# Generated by pormake.
# Topology pyr, (3,6)-cn, num edge types: 1
# Building blocks:
#     Node 0, Type 0, BuildingBlock: MIDCAF_clean_linker_0, # of connection points: 3
#     Node 1, Type 0, BuildingBlock: MIDCAF_clean_linker_0, # of connection points: 3
#     Node 2, Type 0, BuildingBlock: MIDCAF_clean_linker_0, # of connection points: 3
#     Node 3, Type 0, BuildingBlock: MIDCAF_clean_linker_0, # of connection points: 3
#     Node 4, Type 0, BuildingBlock: MIDCAF_clean_linker_0, # of connection points: 3
#     Node 5, Type 0, BuildingBlock: MIDCAF_clean_linker_0, # of connection points: 3
#     Node 6, Type 0, BuildingBlock: MIDCAF_clean_linker_0, # of connection points: 3
#     Node 7, Type 0, BuildingBlock: MIDCAF_clean_linker_0, # of connection points: 3
#     Node 8, Type 1, BuildingBlock: JUFBIX_clean_sbu_0, # of connection points: 6
#     Node 9, Type 1, BuildingBlock: JUFBIX_clean_sbu_0, # of connection points: 6
#     Node 10, Type 1, BuildingBlock: JUFBIX_clean_sbu_0, # of connection points: 6
#     Node 11, Type 1, BuildingBlock: JUFBIX_clean_sbu_0, # of connection points: 6
#     Edge 12, Type (0, 1), BuildingBlock: UVAHIK_clean_linker_0, # of connection points: 2
#     Edge 13, Type (0, 1), BuildingBlock: UVAHIK_clean_linker_0, # of connection points: 2
#     Edge 14, Type (0, 1), BuildingBlock: UVAHIK_clean_linker_0, # of connection points: 2
#     Edge 15, Type (0, 1), BuildingBlock: UVAHIK_clean_linker_0, # of connection points: 2
#     Edge 16, Type (0, 1), BuildingBlock: UVAHIK_clean_linker_0, # of connection points: 2
#     Edge 17, Type (0, 1), BuildingBlock: UVAHIK_clean_linker_0, # of connection points: 2
#     Edge 18, Type (0, 1), BuildingBlock: UVAHIK_clean_linker_0, # of connection points: 2
#     Edge 19, Type (0, 1), BuildingBlock: UVAHIK_clean_linker_0, # of connection points: 2
#     Edge 20, Type (0, 1), BuildingBlock: UVAHIK_clean_linker_0, # of connection points: 2
#     Edge 21, Type (0, 1), BuildingBlock: UVAHIK_clean_linker_0, # of connection points: 2
#     Edge 22, Type (0, 1), BuildingBlock: UVAHIK_clean_linker_0, # of connection points: 2
#     Edge 23, Type (0, 1), BuildingBlock: UVAHIK_clean_linker_0, # of connection points: 2
#     Edge 24, Type (0, 1), BuildingBlock: UVAHIK_clean_linker_0, # of connection points: 2
#     Edge 25, Type (0, 1), BuildingBlock: UVAHIK_clean_linker_0, # of connection points: 2
#     Edge 26, Type (0, 1), BuildingBlock: UVAHIK_clean_linker_0, # of connection points: 2
#     Edge 27, Type (0, 1), BuildingBlock: UVAHIK_clean_linker_0, # of connection points: 2
#     Edge 28, Type (0, 1), BuildingBlock: UVAHIK_clean_linker_0, # of connection points: 2
#     Edge 29, Type (0, 1), BuildingBlock: UVAHIK_clean_linker_0, # of connection points: 2
#     Edge 30, Type (0, 1), BuildingBlock: UVAHIK_clean_linker_0, # of connection points: 2
#     Edge 31, Type (0, 1), BuildingBlock: UVAHIK_clean_linker_0, # of connection points: 2
#     Edge 32, Type (0, 1), BuildingBlock: UVAHIK_clean_linker_0, # of connection points: 2
#     Edge 33, Type (0, 1), BuildingBlock: UVAHIK_clean_linker_0, # of connection points: 2
#     Edge 34, Type (0, 1), BuildingBlock: UVAHIK_clean_linker_0, # of connection points: 2
#     Edge 35, Type (0, 1), BuildingBlock: UVAHIK_clean_linker_0, # of connection points: 2
# Relax obj value: 0.036
# Max RMSD: 0.087
# Mean RMSD: 0.029
data_MOF--net-pyr--node1-JUFBIX_clean_sbu_0--node2-MIDCAF_clean_linker_0--edge1-UVAHIK_clean_linker_0
_symmetry_space_group_name_H-M    P1
_symmetry_Int_Tables_number       1
_symmetry_cell_setting            triclinic
loop_
_symmetry_equiv_pos_as_xyz
'x, y, z'
_cell_length_a     56.751758
_cell_length_b     54.389105
_cell_length_c     56.590078
_cell_angle_alpha  86.473738
_cell_angle_beta   90.175091
_cell_angle_gamma 91.578882
loop_
_atom_site_label
_atom_site_type_symbol
_atom_site_fract_x
_atom_site_fract_y
_atom_site_fract_z
_atom_type_partial_charge
C0 C 0.13072 0.13639 0.23981 0.0
C1 C 0.14173 0.1167 0.25233 0.0
C2 C 0.16232 0.10745 0.24275 0.0
C3 C 0.17169 0.1177 0.22134 0.0
H4 H 0.22818 0.1137 0.17554 0.0
H5 H 0.26344 0.09722 0.1586 0.0
H6 H 0.25606 0.14672 0.09657 0.0
H7 H 0.22067 0.16305 0.11329 0.0
H8 H 0.18499 0.20781 0.11566 0.0
H9 H 0.1663 0.24353 0.09639 0.0
H10 H 0.10744 0.23311 0.14455 0.0
H11 H 0.12641 0.19793 0.16425 0.0
H12 H 0.13098 0.16174 0.20938 0.0
H13 H 0.11464 0.14377 0.24638 0.0
H14 H 0.17145 0.0925 0.25199 0.0
H15 H 0.18764 0.11015 0.21465 0.0
N16 N 0.19054 0.13963 0.17676 0.0
N17 N 0.18886 0.16923 0.14484 0.0
N18 N 0.16009 0.168 0.17458 0.0
C19 C 0.19974 0.14979 0.15608 0.0
C20 C 0.16903 0.17848 0.15395 0.0
C21 C 0.1707 0.1486 0.18616 0.0
C22 C 0.22142 0.13976 0.14584 0.0
C23 C 0.234 0.12111 0.15828 0.0
C24 C 0.25436 0.11172 0.14862 0.0
C25 C 0.26264 0.12061 0.1262 0.0
C26 C 0.25006 0.13922 0.11375 0.0
C27 C 0.22979 0.1487 0.12345 0.0
C28 C 0.15733 0.19992 0.14165 0.0
C29 C 0.16804 0.21309 0.12215 0.0
C30 C 0.15722 0.23356 0.11097 0.0
C31 C 0.13531 0.24139 0.11888 0.0
C32 C 0.12449 0.228 0.13818 0.0
C33 C 0.13536 0.20764 0.14944 0.0
C34 C 0.16072 0.13748 0.20887 0.0
C35 C 0.14006 0.14663 0.21842 0.0
C36 C 0.34539 0.93681 0.58276 0.0
C37 C 0.33489 0.92753 0.56247 0.0
C38 C 0.34607 0.90862 0.55131 0.0
C39 C 0.36664 0.89847 0.56085 0.0
H40 H 0.41122 0.83837 0.55678 0.0
H41 H 0.41881 0.7962 0.54696 0.0
H42 H 0.44833 0.78097 0.61653 0.0
H43 H 0.44098 0.82315 0.62642 0.0
H44 H 0.45527 0.86908 0.65567 0.0
H45 H 0.47057 0.88432 0.69239 0.0
H46 H 0.43425 0.95239 0.67829 0.0
H47 H 0.41899 0.93735 0.64138 0.0
H48 H 0.37314 0.93392 0.60826 0.0
H49 H 0.33714 0.9511 0.59205 0.0
H50 H 0.33872 0.90135 0.53541 0.0
H51 H 0.37443 0.88349 0.55214 0.0
N52 N 0.40299 0.87202 0.58675 0.0
N53 N 0.43063 0.86918 0.61759 0.0
N54 N 0.40763 0.90421 0.61222 0.0
C55 C 0.41993 0.85926 0.59876 0.0
C56 C 0.42474 0.89175 0.62431 0.0
C57 C 0.3967 0.8945 0.59339 0.0
C58 C 0.42551 0.83411 0.59238 0.0
C59 C 0.41942 0.82608 0.56996 0.0
C60 C 0.42382 0.802 0.56429 0.0
C61 C 0.43406 0.7854 0.58104 0.0
C62 C 0.44024 0.7934 0.6034 0.0
C63 C 0.43618 0.81759 0.60896 0.0
C64 C 0.43567 0.90187 0.64561 0.0
C65 C 0.45069 0.8874 0.66019 0.0
C66 C 0.45941 0.89608 0.68131 0.0
C67 C 0.45346 0.91946 0.68827 0.0
C68 C 0.43926 0.93435 0.67329 0.0
C69 C 0.43039 0.92563 0.65221 0.0
C70 C 0.37658 0.90711 0.58168 0.0
C71 C 0.36604 0.92682 0.59217 0.0
C72 C 0.64266 0.28439 0.89895 0.0
C73 C 0.62014 0.27735 0.89095 0.0
C74 C 0.6091 0.29247 0.87343 0.0
C75 C 0.62037 0.31404 0.86404 0.0
H76 H 0.61106 0.37678 0.8185 0.0
H77 H 0.59496 0.39563 0.78213 0.0
H78 H 0.6643 0.42486 0.76255 0.0
H79 H 0.68013 0.40693 0.79959 0.0
H80 H 0.70577 0.41952 0.86009 0.0
H81 H 0.74196 0.43389 0.87919 0.0
H82 H 0.75469 0.35964 0.90659 0.0
H83 H 0.71842 0.34525 0.88794 0.0
H84 H 0.67131 0.31073 0.89613 0.0
H85 H 0.65183 0.27299 0.91217 0.0
H86 H 0.59162 0.28778 0.86711 0.0
H87 H 0.6113 0.32523 0.85058 0.0
N88 N 0.64568 0.35666 0.84291 0.0
N89 N 0.67747 0.3852 0.84279 0.0
N90 N 0.6757 0.35185 0.87115 0.0
C91 C 0.65682 0.37728 0.83322 0.0
C92 C 0.68694 0.37258 0.86184 0.0
C93 C 0.65501 0.34381 0.86185 0.0
C94 C 0.6469 0.39024 0.81186 0.0
C95 C 0.62283 0.3874 0.80651 0.0
C96 C 0.61364 0.39808 0.78553 0.0
C97 C 0.62835 0.41152 0.76913 0.0
C98 C 0.65234 0.4149 0.77481 0.0
C99 C 0.66148 0.40452 0.79602 0.0
C100 C 0.70923 0.38127 0.87255 0.0
C101 C 0.71634 0.40626 0.87011 0.0
C102 C 0.73693 0.41451 0.88112 0.0
C103 C 0.75101 0.39784 0.89432 0.0
C104 C 0.74416 0.37282 0.8964 0.0
C105 C 0.72336 0.36464 0.88581 0.0
C106 C 0.64293 0.32107 0.87201 0.0
C107 C 0.6539 0.30601 0.88964 0.0
C108 C 0.85032 0.60316 0.47033 0.0
C109 C 0.83579 0.58445 0.46149 0.0
C110 C 0.84285 0.57333 0.44099 0.0
C111 C 0.86311 0.58176 0.42879 0.0
H112 H 0.88971 0.58088 0.36335 0.0
H113 H 0.89048 0.57078 0.32217 0.0
H114 H 0.9433 0.62828 0.30723 0.0
H115 H 0.94228 0.63885 0.34845 0.0
H116 H 0.95415 0.67564 0.38722 0.0
H117 H 0.97369 0.71344 0.39874 0.0
H118 H 0.94749 0.6998 0.47001 0.0
H119 H 0.9279 0.66179 0.45864 0.0
H120 H 0.88089 0.62674 0.46489 0.0
H121 H 0.84555 0.61184 0.48629 0.0
H122 H 0.83201 0.55905 0.43354 0.0
H123 H 0.8674 0.57337 0.41253 0.0
N124 N 0.89859 0.606 0.39919 0.0
N125 N 0.92787 0.63663 0.39189 0.0
N126 N 0.90949 0.63205 0.42906 0.0
C127 C 0.91447 0.61764 0.38421 0.0
C128 C 0.9256 0.64388 0.41433 0.0
C129 C 0.89597 0.61298 0.42163 0.0
C130 C 0.91592 0.61073 0.35931 0.0
C131 C 0.90157 0.59139 0.35138 0.0
C132 C 0.90206 0.5855 0.32774 0.0
C133 C 0.91692 0.59875 0.31141 0.0
C134 C 0.93142 0.61795 0.31932 0.0
C135 C 0.93096 0.62386 0.34301 0.0
C136 C 0.93922 0.6657 0.42194 0.0
C137 C 0.95268 0.68047 0.40543 0.0
C138 C 0.96382 0.70223 0.41198 0.0
C139 C 0.96195 0.70965 0.43521 0.0
C140 C 0.94933 0.69445 0.452 0.0
C141 C 0.938 0.67274 0.44542 0.0
C142 C 0.87682 0.60157 0.43673 0.0
C143 C 0.87064 0.61162 0.4581 0.0
C144 C 0.76241 0.89521 0.86507 0.0
C145 C 0.75401 0.88655 0.88752 0.0
C146 C 0.7664 0.8679 0.90011 0.0
C147 C 0.78659 0.85813 0.89053 0.0
H148 H 0.83026 0.79802 0.89844 0.0
H149 H 0.84867 0.7624 0.91822 0.0
H150 H 0.90805 0.77222 0.87065 0.0
H151 H 0.88935 0.80725 0.85042 0.0
H152 H 0.88219 0.83985 0.80237 0.0
H153 H 0.89914 0.85759 0.7655 0.0
H154 H 0.84963 0.91649 0.76489 0.0
H155 H 0.83273 0.89892 0.802 0.0
H156 H 0.78863 0.89278 0.83824 0.0
H157 H 0.75348 0.90974 0.85497 0.0
H158 H 0.7603 0.86056 0.91731 0.0
H159 H 0.79555 0.84374 0.9008 0.0
N160 N 0.82714 0.83678 0.86927 0.0
N161 N 0.85595 0.83737 0.83961 0.0
N162 N 0.82608 0.8664 0.83731 0.0
C163 C 0.84681 0.82712 0.86024 0.0
C164 C 0.84574 0.85698 0.82798 0.0
C165 C 0.81663 0.85642 0.85796 0.0
C166 C 0.85821 0.80558 0.87271 0.0
C167 C 0.84725 0.79261 0.89217 0.0
C168 C 0.85791 0.77219 0.90365 0.0
C169 C 0.8799 0.76424 0.89609 0.0
C170 C 0.89093 0.7774 0.87676 0.0
C171 C 0.88022 0.79768 0.8652 0.0
C172 C 0.85602 0.86789 0.80531 0.0
C173 C 0.87485 0.8566 0.79446 0.0
C174 C 0.88452 0.8667 0.77317 0.0
C175 C 0.87575 0.88846 0.76214 0.0
C176 C 0.85699 0.89984 0.77299 0.0
C177 C 0.8472 0.88965 0.79425 0.0
C178 C 0.79508 0.86683 0.8681 0.0
C179 C 0.7827 0.88555 0.85553 0.0
C180 C 0.57873 0.06847 0.33992 0.0
C181 C 0.5609 0.08072 0.32699 0.0
C182 C 0.5521 0.10245 0.3354 0.0
C183 C 0.56162 0.11228 0.3557 0.0
H184 H 0.55973 0.17332 0.39514 0.0
H185 H 0.55078 0.21556 0.40329 0.0
H186 H 0.61068 0.21833 0.45038 0.0
H187 H 0.61988 0.17631 0.44217 0.0
H188 H 0.65088 0.13053 0.45126 0.0
H189 H 0.68966 0.11669 0.46381 0.0
H190 H 0.68545 0.05952 0.41419 0.0
H191 H 0.64677 0.07339 0.40135 0.0
H192 H 0.60247 0.0687 0.36925 0.0
H193 H 0.58607 0.05183 0.33381 0.0
H194 H 0.53813 0.11213 0.32602 0.0
H195 H 0.55481 0.1294 0.3613 0.0
N196 N 0.58518 0.13463 0.39471 0.0
N197 N 0.61636 0.13571 0.4219 0.0
N198 N 0.61146 0.10209 0.39827 0.0
C199 C 0.59716 0.14637 0.41175 0.0
C200 C 0.6236 0.11356 0.41535 0.0
C201 C 0.59215 0.11241 0.38794 0.0
C202 C 0.5906 0.17138 0.41789 0.0
C203 C 0.57094 0.18285 0.40734 0.0
C204 C 0.56574 0.20703 0.41206 0.0
C205 C 0.58014 0.22029 0.42734 0.0
C206 C 0.59949 0.20869 0.43824 0.0
C207 C 0.60464 0.18451 0.43363 0.0
C208 C 0.64577 0.10328 0.42506 0.0
C209 C 0.65805 0.11483 0.44317 0.0
C210 C 0.68024 0.10682 0.4505 0.0
C211 C 0.69065 0.08719 0.43981 0.0
C212 C 0.67797 0.07495 0.42248 0.0
C213 C 0.65574 0.08284 0.41523 0.0
C214 C 0.5802 0.10062 0.36803 0.0
C215 C 0.58825 0.07829 0.36019 0.0
C216 C 0.27604 0.59462 0.13631 0.0
C217 C 0.26797 0.60543 0.11468 0.0
C218 C 0.28097 0.62532 0.10376 0.0
C219 C 0.30142 0.63441 0.11438 0.0
H220 H 0.3461 0.69527 0.1122 0.0
H221 H 0.36507 0.73335 0.09624 0.0
H222 H 0.4228 0.72251 0.14542 0.0
H223 H 0.40357 0.6848 0.16186 0.0
H224 H 0.39555 0.64793 0.20568 0.0
H225 H 0.41084 0.62864 0.24212 0.0
H226 H 0.35952 0.56888 0.2381 0.0
H227 H 0.3437 0.5885 0.20174 0.0
H228 H 0.30216 0.59489 0.1636 0.0
H229 H 0.26655 0.57907 0.14502 0.0
H230 H 0.27509 0.63421 0.08722 0.0
H231 H 0.31085 0.64991 0.10552 0.0
N232 N 0.34191 0.65458 0.13815 0.0
N233 N 0.36981 0.65262 0.16873 0.0
N234 N 0.3395 0.62253 0.16783 0.0
C235 C 0.36141 0.6641 0.14859 0.0
C236 C 0.359 0.63186 0.17849 0.0
C237 C 0.33086 0.63378 0.14761 0.0
C238 C 0.37324 0.68695 0.13838 0.0
C239 C 0.36286 0.70094 0.11961 0.0
C240 C 0.37381 0.72275 0.11035 0.0
C241 C 0.39547 0.73101 0.11954 0.0
C242 C 0.40595 0.71689 0.13816 0.0
C243 C 0.39495 0.69517 0.14751 0.0
C244 C 0.36836 0.61979 0.20066 0.0
C245 C 0.38746 0.63066 0.21246 0.0
C246 C 0.39637 0.61951 0.23335 0.0
C247 C 0.38651 0.59714 0.24298 0.0
C248 C 0.36737 0.58624 0.23127 0.0
C249 C 0.35839 0.59745 0.21034 0.0
C250 C 0.30942 0.62375 0.13613 0.0
C251 C 0.29655 0.60363 0.14689 0.0
C252 C 0.07435 0.30294 0.564 0.0
C253 C 0.05338 0.29414 0.57518 0.0
C254 C 0.04383 0.30781 0.59299 0.0
C255 C 0.05542 0.32915 0.60006 0.0
H256 H 0.0656 0.36737 0.66134 0.0
H257 H 0.06093 0.37938 0.70192 0.0
H258 H 0.11791 0.43319 0.6912 0.0
H259 H 0.12223 0.42181 0.65078 0.0
H260 H 0.1397 0.43544 0.59811 0.0
H261 H 0.17549 0.45301 0.57977 0.0
H262 H 0.18084 0.38921 0.53843 0.0
H263 H 0.14452 0.37181 0.5564 0.0
H264 H 0.10217 0.33032 0.56224 0.0
H265 H 0.08247 0.29276 0.55048 0.0
H266 H 0.02748 0.30191 0.60167 0.0
H267 H 0.04775 0.33897 0.61411 0.0
N268 N 0.08525 0.36696 0.61976 0.0
N269 N 0.11487 0.39757 0.61452 0.0
N270 N 0.10719 0.37067 0.58449 0.0
C271 C 0.09783 0.38612 0.62824 0.0
C272 C 0.11964 0.39009 0.59267 0.0
C273 C 0.08976 0.35919 0.59786 0.0
C274 C 0.09422 0.39366 0.65268 0.0
C275 C 0.07704 0.38186 0.6676 0.0
C276 C 0.07448 0.38859 0.69092 0.0
C277 C 0.08903 0.40726 0.69978 0.0
C278 C 0.10617 0.41901 0.68485 0.0
C279 C 0.10869 0.41236 0.66162 0.0
C280 C 0.13946 0.40203 0.57899 0.0
C281 C 0.14832 0.42525 0.5849 0.0
C282 C 0.16889 0.43531 0.57444 0.0
C283 C 0.18126 0.42232 0.55797 0.0
C284 C 0.17168 0.39975 0.55099 0.0
C285 C 0.1509 0.38973 0.56135 0.0
C286 C 0.07667 0.33754 0.58928 0.0
C287 C 0.08577 0.32445 0.57086 0.0
Co288 Co 0.99359 0.00274 0.49838 0.0
C289 C 0.01302 0.956 0.49637 0.0
Co290 Co 0.02764 0.99809 0.51663 0.0
C291 C 0.94561 0.01615 0.48732 0.0
C292 C 0.96153 0.99635 0.46027 0.0
N293 N 0.96567 0.00511 0.48171 0.0
N294 N 0.92916 0.01473 0.47012 0.0
C295 C 0.93914 1.0022 0.45312 0.0
H296 H 0.94337 0.02551 0.50347 0.0
H297 H 0.9741 0.98648 0.45038 0.0
C298 C 0.00839 0.04488 0.51862 0.0
N299 N 0.05569 0.99603 0.53314 0.0
C300 C 0.07669 0.98805 0.52604 0.0
C301 C 0.05984 0.00471 0.55463 0.0
N302 N 0.09379 0.9918 0.54214 0.0
C303 C 0.08326 1.00223 0.56016 0.0
C304 C 0.03276 0.01519 0.46965 0.0
O305 O 0.99144 0.03595 0.50686 0.0
O306 O 0.0256 0.03134 0.52441 0.0
O307 O 0.04436 0.0088 0.4882 0.0
O308 O 0.01038 0.01393 0.47044 0.0
O309 O 0.02956 0.96475 0.50879 0.0
H310 H 0.04678 0.01302 0.56527 0.0
H311 H 0.07958 0.98065 0.50899 0.0
O312 O 0.996 0.9696 0.49 0.0
O313 O 0.97685 0.99151 0.5265 0.0
O314 O 0.01072 0.98749 0.54482 0.0
C315 C 0.98832 0.98575 0.5453 0.0
H316 H 0.93084 0.99744 0.43671 0.0
H317 H 0.09196 0.00791 0.57607 0.0
Co318 Co 0.49848 1.00131 0.98994 0.0
C319 C 0.49533 0.96239 0.02446 0.0
Co320 Co 0.5183 0.00751 0.02268 0.0
C321 C 0.48827 0.9952 0.94051 0.0
C322 C 0.45868 0.98595 0.96306 0.0
N323 N 0.4811 0.99485 0.96326 0.0
N324 N 0.47131 0.98647 0.92625 0.0
C325 C 0.45265 0.98069 0.94036 0.0
H326 H 0.50597 1.00044 0.93474 0.0
H327 H 0.44775 0.98254 0.97861 0.0
C328 C 0.5214 0.0464 0.98807 0.0
N329 N 0.53549 0.01373 0.04952 0.0
C330 C 0.52806 0.01199 0.0722 0.0
C331 C 0.55806 0.02198 0.0505 0.0
N332 N 0.54508 0.01893 0.08734 0.0
C333 C 0.56401 0.02516 0.07371 0.0
C334 C 0.54462 0.98537 0.98854 0.0
O335 O 0.50806 0.03259 0.97622 0.0
O336 O 0.52784 0.03891 0.00876 0.0
O337 O 0.54525 0.99312 0.00929 0.0
O338 O 0.52557 0.98709 0.97673 0.0
O339 O 0.50859 0.97615 0.03643 0.0
H340 H 0.56931 0.02591 0.03526 0.0
H341 H 0.51044 0.00584 0.07743 0.0
O342 O 0.48905 0.96997 1.00378 0.0
O343 O 0.47152 0.01565 1.00338 0.0
O344 O 0.49125 0.02178 0.03587 0.0
C345 C 0.47218 0.02343 0.02411 0.0
H346 H 0.43606 0.97262 0.93474 0.0
H347 H 0.58075 0.03229 0.07993 0.0
Co348 Co 0.52438 0.51197 0.49869 0.0
C349 C 0.48835 0.51242 0.46519 0.0
Co350 Co 0.4913 0.49361 0.51149 0.0
C351 C 0.57402 0.52517 0.49292 0.0
C352 C 0.55125 0.55098 0.47497 0.0
N353 N 0.55112 0.52937 0.48801 0.0
N354 N 0.58834 0.54353 0.4837 0.0
C355 C 0.57406 0.55973 0.47233 0.0
H356 H 0.57997 0.50951 0.50386 0.0
H357 H 0.53566 0.56016 0.46839 0.0
C358 C 0.52734 0.49301 0.54495 0.0
N359 N 0.46446 0.47636 0.52205 0.0
C360 C 0.44171 0.48136 0.51728 0.0
C361 C 0.46373 0.45482 0.53518 0.0
N362 N 0.42679 0.46367 0.52677 0.0
C363 C 0.44065 0.44701 0.53814 0.0
C364 C 0.52286 0.46309 0.49015 0.0
O365 O 0.53876 0.50538 0.52877 0.0
O366 O 0.50627 0.48594 0.54094 0.0
O367 O 0.50271 0.46443 0.49964 0.0
O368 O 0.53623 0.48225 0.48808 0.0
O369 O 0.47658 0.50138 0.48189 0.0
H370 H 0.47904 0.44518 0.54182 0.0
H371 H 0.43629 0.4973 0.50643 0.0
O372 O 0.50981 0.51838 0.46872 0.0
O373 O 0.51229 0.5415 0.50927 0.0
O374 O 0.47998 0.523 0.52324 0.0
C375 C 0.49258 0.54254 0.51968 0.0
H376 H 0.5797 0.57684 0.46298 0.0
H377 H 0.4346 0.43031 0.54793 0.0
Co378 Co 0.01369 0.50119 0.99047 0.0
C379 C 0.96717 0.48356 0.99774 0.0
Co380 Co 0.99971 0.50455 0.0265 0.0
C381 C 0.03972 0.48909 0.94815 0.0
C382 C 0.01056 0.5126 0.94092 0.0
N383 N 0.02225 0.5007 0.95884 0.0
N384 N 0.03951 0.49393 0.92446 0.0
C385 C 0.02124 0.50868 0.9199 0.0
H386 H 0.05222 0.47731 0.95745 0.0
H387 H 0.99482 0.52304 0.94282 0.0
C388 C 0.04633 0.52197 0.01935 0.0
N389 N 0.99099 0.50509 0.05802 0.0
C390 C 0.97309 0.51648 0.06818 0.0
C391 C 1.00267 0.49381 0.07627 0.0
N392 N 0.97308 0.51233 0.09196 0.0
C393 C 0.99163 0.49807 0.09706 0.0
C394 C 0.02315 0.46007 0.01839 0.0
O395 O 0.0433 0.51582 0.99819 0.0
O396 O 0.0295 0.51866 0.03408 0.0
O397 O 0.01185 0.47225 0.03288 0.0
O398 O 0.02623 0.46926 0.99738 0.0
O399 O 0.96997 0.49046 0.01865 0.0
H400 H 0.01859 0.48357 0.0747 0.0
H401 H 0.96042 0.52765 0.05841 0.0
O402 O 0.98407 0.48642 0.98305 0.0
O403 O 1.00116 0.53329 0.98405 0.0
O404 O 0.9876 0.53673 0.01975 0.0
C405 C 0.99031 0.54571 0.99864 0.0
H406 H 0.01551 0.51536 0.90246 0.0
H407 H 0.9973 0.49194 0.11468 0.0
C408 C 0.13152 0.08036 0.28082 0.0
C409 C 0.13173 0.10595 0.27525 0.0
C410 C 0.12168 0.07033 0.3021 0.0
C411 C 0.07968 0.08454 0.3492 0.0
H412 H 0.10824 0.02962 0.38442 0.0
C413 C 0.03163 0.03154 0.42722 0.0
C414 C 0.04488 0.02451 0.44746 0.0
C415 C 0.04273 0.04104 0.40646 0.0
C416 C 0.10011 0.04507 0.37491 0.0
H417 H 0.12231 0.14105 0.28828 0.0
H418 H 0.10518 0.12362 0.32523 0.0
H419 H 0.12696 0.04733 0.34821 0.0
H420 H 0.08036 0.02173 0.4615 0.0
H421 H 0.09977 0.0385 0.42524 0.0
H422 H 0.05306 0.08259 0.37599 0.0
C423 C 0.11223 0.11121 0.31295 0.0
C424 C 0.11072 0.05506 0.35397 0.0
C425 C 0.12207 0.12123 0.2917 0.0
C426 C 0.0696 0.02694 0.44626 0.0
C427 C 0.08074 0.03645 0.42541 0.0
C428 C 0.06907 0.07453 0.37006 0.0
C429 C 0.11177 0.08561 0.31841 0.0
C430 C 0.10063 0.07494 0.34081 0.0
C431 C 0.06743 0.04381 0.40527 0.0
C432 C 0.07908 0.05461 0.38319 0.0
H433 H 0.13851 0.06797 0.26849 0.0
H434 H 0.12137 0.05051 0.30553 0.0
H435 H 0.07123 0.09963 0.33946 0.0
H436 H 0.01257 0.02982 0.4274 0.0
H437 H 0.0319 0.04607 0.39123 0.0
C438 C 0.45809 0.91125 0.73191 0.0
C439 C 0.46071 0.92754 0.71182 0.0
C440 C 0.46352 0.919 0.75436 0.0
C441 C 0.46999 0.97524 0.78747 0.0
H442 H 0.49311 0.92868 0.83621 0.0
C443 C 0.48609 0.99764 0.88589 0.0
C444 C 0.47358 0.98131 0.90179 0.0
C445 C 0.48799 0.99253 0.86203 0.0
C446 C 0.48677 0.9419 0.82272 0.0
H447 H 0.47164 0.96456 0.69936 0.0
H448 H 0.48163 0.97807 0.73868 0.0
H449 H 0.49112 0.91715 0.79528 0.0
H450 H 0.45392 0.94661 0.90555 0.0
H451 H 0.45757 0.93746 0.86405 0.0
H452 H 0.46569 0.99993 0.8152 0.0
C453 C 0.47494 0.95941 0.73711 0.0
C454 C 0.48547 0.93528 0.79931 0.0
C455 C 0.46928 0.95168 0.7146 0.0
C456 C 0.4634 0.95962 0.89358 0.0
C457 C 0.46568 0.95429 0.86993 0.0
C458 C 0.47162 0.98198 0.81089 0.0
C459 C 0.47193 0.9432 0.7573 0.0
C460 C 0.47636 0.95157 0.7815 0.0
C461 C 0.47789 0.97073 0.85393 0.0
C462 C 0.47938 0.96509 0.82878 0.0
H463 H 0.4511 0.89268 0.73037 0.0
H464 H 0.46041 0.90616 0.76949 0.0
H465 H 0.4627 0.98819 0.7743 0.0
H466 H 0.49403 0.0145 0.89188 0.0
H467 H 0.49749 0.00546 0.84996 0.0
C468 C 0.60151 0.4074 0.73411 0.0
C469 C 0.61882 0.42108 0.74587 0.0
C470 C 0.59265 0.41603 0.71222 0.0
C471 C 0.5883 0.47251 0.67211 0.0
H472 H 0.57098 0.42489 0.62637 0.0
C473 C 0.55965 0.49787 0.57482 0.0
C474 C 0.53857 0.48613 0.56792 0.0
C475 C 0.57036 0.49083 0.59642 0.0
C476 C 0.57569 0.43837 0.63902 0.0
H477 H 0.64025 0.45483 0.7436 0.0
H478 H 0.62556 0.46933 0.70488 0.0
H479 H 0.58859 0.41086 0.66392 0.0
H480 H 0.51222 0.45783 0.57816 0.0
H481 H 0.53117 0.44531 0.61555 0.0
H482 H 0.57576 0.50003 0.64666 0.0
C483 C 0.61844 0.45213 0.7129 0.0
C484 C 0.58565 0.43036 0.66062 0.0
C485 C 0.62712 0.44363 0.735 0.0
C486 C 0.52842 0.46728 0.583 0.0
C487 C 0.53931 0.46 0.60434 0.0
C488 C 0.57864 0.48055 0.6503 0.0
C489 C 0.6011 0.43841 0.7012 0.0
C490 C 0.59174 0.44726 0.67764 0.0
C491 C 0.56038 0.47166 0.61122 0.0
C492 C 0.57193 0.46349 0.63373 0.0
H493 H 0.59494 0.38976 0.74164 0.0
H494 H 0.579 0.40512 0.70403 0.0
H495 H 0.59248 0.48605 0.68484 0.0
H496 H 0.56786 0.51248 0.56357 0.0
H497 H 0.58666 0.50003 0.60133 0.0
C498 C 0.91677 0.56762 0.28054 0.0
C499 C 0.91731 0.5924 0.28627 0.0
C500 C 0.91725 0.56151 0.25697 0.0
C501 C 0.93619 0.58582 0.19798 0.0
H502 H 0.90156 0.52815 0.17811 0.0
C503 C 0.95231 0.54748 0.10694 0.0
C504 C 0.95816 0.52253 0.10908 0.0
C505 C 0.94154 0.55833 0.1258 0.0
C506 C 0.91122 0.54439 0.18335 0.0
H507 H 0.91832 0.63023 0.27166 0.0
H508 H 0.91929 0.61953 0.23037 0.0
H509 H 0.89417 0.54319 0.21709 0.0
H510 H 0.95586 0.48892 0.13153 0.0
H511 H 0.93693 0.5076 0.16431 0.0
H512 H 0.95382 0.58649 0.16456 0.0
C513 C 0.91869 0.60484 0.24419 0.0
C514 C 0.90708 0.55294 0.20569 0.0
C515 C 0.91821 0.61096 0.26783 0.0
C516 C 0.95162 0.50823 0.1296 0.0
C517 C 0.94063 0.51892 0.14825 0.0
C518 C 0.94028 0.5773 0.17559 0.0
C519 C 0.91827 0.58003 0.23851 0.0
C520 C 0.92008 0.57325 0.21356 0.0
C521 C 0.93614 0.54424 0.14687 0.0
C522 C 0.92839 0.55602 0.16837 0.0
H523 H 0.91647 0.55288 0.29432 0.0
H524 H 0.91744 0.54222 0.25324 0.0
H525 H 0.94662 0.60141 0.20355 0.0
H526 H 0.95733 0.55887 0.0913 0.0
H527 H 0.93814 0.57786 0.12422 0.0
C528 C 0.30426 0.10561 0.12992 0.0
C529 C 0.28427 0.11052 0.11581 0.0
C530 C 0.32459 0.09632 0.12012 0.0
C531 C 0.3454 0.06313 0.06919 0.0
H532 H 0.40693 0.08902 0.08659 0.0
C533 C 0.43028 0.03723 0.02103 0.0
C534 C 0.4509 0.03387 0.03456 0.0
C535 C 0.41011 0.0467 0.03095 0.0
C536 C 0.38993 0.08131 0.08173 0.0
H537 H 0.27002 0.10911 0.08031 0.0
H538 H 0.30548 0.09311 0.06321 0.0
H539 H 0.37162 0.10497 0.10394 0.0
H540 H 0.46635 0.0378 0.06927 0.0
H541 H 0.43113 0.05388 0.08667 0.0
H542 H 0.36362 0.03931 0.04717 0.0
C543 C 0.30541 0.09635 0.0819 0.0
C544 C 0.36964 0.09051 0.09169 0.0
C545 C 0.28514 0.10578 0.09167 0.0
C546 C 0.45083 0.04027 0.05827 0.0
C547 C 0.43062 0.04964 0.06823 0.0
C548 C 0.36568 0.05384 0.05932 0.0
C549 C 0.32544 0.09153 0.09598 0.0
C550 C 0.34709 0.08159 0.08551 0.0
C551 C 0.40993 0.05297 0.05473 0.0
C552 C 0.38827 0.06282 0.06539 0.0
H553 H 0.30432 0.10923 0.14852 0.0
H554 H 0.33959 0.09262 0.13155 0.0
H555 H 0.32836 0.05554 0.06429 0.0
H556 H 0.4297 0.03259 1.00269 0.0
H557 H 0.39471 0.04935 0.01984 0.0
C558 C 0.29423 0.91965 0.54639 0.0
C559 C 0.31154 0.93638 0.55414 0.0
C560 C 0.2714 0.92735 0.54122 0.0
C561 C 0.23018 0.97191 0.55965 0.0
H562 H 0.19279 0.954 0.50555 0.0
C563 C 0.13526 0.00388 0.5486 0.0
C564 C 0.11847 0.98722 0.54005 0.0
C565 C 0.15924 0.99911 0.54754 0.0
C566 C 0.2029 0.95891 0.5209 0.0
H567 H 0.31871 0.9747 0.561 0.0
H568 H 0.27865 0.98792 0.55258 0.0
H569 H 0.23427 0.94303 0.50811 0.0
H570 H 0.11339 0.95276 0.52334 0.0
H571 H 0.15535 0.94375 0.52227 0.0
H572 H 0.19894 0.98676 0.57313 0.0
C573 C 0.28282 0.96883 0.55068 0.0
C574 C 0.22667 0.95275 0.52226 0.0
C575 C 0.30571 0.96121 0.55559 0.0
C576 C 0.12608 0.9659 0.52995 0.0
C577 C 0.15011 0.96087 0.52925 0.0
C578 C 0.20643 0.97774 0.55848 0.0
C579 C 0.26535 0.95186 0.54393 0.0
C580 C 0.2405 0.95923 0.54165 0.0
C581 C 0.16698 0.9773 0.53831 0.0
C582 C 0.19244 0.97137 0.53909 0.0
H583 H 0.29795 0.90032 0.54537 0.0
H584 H 0.25818 0.91386 0.53626 0.0
H585 H 0.24034 0.97668 0.57503 0.0
H586 H 0.12982 0.02069 0.55602 0.0
H587 H 0.17168 0.01254 0.55407 0.0
C588 C 0.77207 0.42603 0.92117 0.0
C589 C 0.77272 0.40649 0.90614 0.0
C590 C 0.79244 0.43366 0.93293 0.0
C591 C 0.85311 0.41338 0.94913 0.0
H592 H 0.8636 0.48262 0.95966 0.0
C593 C 0.94358 0.45795 0.9707 0.0
C594 C 0.94442 0.47287 0.99011 0.0
C595 C 0.92204 0.44878 0.96254 0.0
C596 C 0.86074 0.4632 0.95703 0.0
H597 H 0.79509 0.37994 0.89108 0.0
H598 H 0.83091 0.39386 0.91064 0.0
H599 H 0.82734 0.4692 0.94047 0.0
H600 H 0.92345 0.48983 0.01629 0.0
H601 H 0.88555 0.47428 1.00146 0.0
H602 H 0.88719 0.40779 0.96471 0.0
C603 C 0.81459 0.40281 0.91418 0.0
C604 C 0.83993 0.45543 0.94612 0.0
C605 C 0.79413 0.39491 0.90278 0.0
C606 C 0.9233 0.47827 1.00136 0.0
C607 C 0.90167 0.46951 0.99285 0.0
C608 C 0.87409 0.42125 0.95963 0.0
C609 C 0.81403 0.42218 0.92957 0.0
C610 C 0.83588 0.43042 0.94188 0.0
C611 C 0.90089 0.45475 0.97333 0.0
C612 C 0.87811 0.44622 0.96357 0.0
H613 H 0.75567 0.43506 0.92422 0.0
H614 H 0.79113 0.44832 0.94492 0.0
H615 H 0.85046 0.39391 0.94674 0.0
H616 H 0.95959 0.45345 0.96173 0.0
H617 H 0.92186 0.43756 0.94737 0.0
C618 C 0.79761 0.59764 0.47799 0.0
C619 C 0.81208 0.57852 0.47173 0.0
C620 C 0.77396 0.59287 0.48368 0.0
C621 C 0.72869 0.54429 0.49895 0.0
H622 H 0.68762 0.58932 0.46398 0.0
C623 C 0.62797 0.52581 0.48704 0.0
C624 C 0.61345 0.54633 0.48651 0.0
C625 C 0.65253 0.52897 0.4881 0.0
C626 C 0.69875 0.57678 0.47423 0.0
H627 H 0.81347 0.53907 0.46836 0.0
H628 H 0.77194 0.53079 0.47802 0.0
H629 H 0.72997 0.59628 0.462 0.0
H630 H 0.613 0.58597 0.48831 0.0
H631 H 0.65557 0.5915 0.49065 0.0
H632 H 0.69724 0.52473 0.51107 0.0
C633 C 0.77898 0.54947 0.47852 0.0
C634 C 0.72307 0.58078 0.47307 0.0
C635 C 0.80269 0.55425 0.47279 0.0
C636 C 0.62381 0.5699 0.4881 0.0
C637 C 0.64822 0.57304 0.48941 0.0
C638 C 0.70421 0.54034 0.50024 0.0
C639 C 0.76419 0.56888 0.48323 0.0
C640 C 0.73833 0.56466 0.48543 0.0
C641 C 0.66293 0.5527 0.48887 0.0
C642 C 0.68896 0.55661 0.48791 0.0
H643 H 0.80415 0.61657 0.47718 0.0
H644 H 0.76307 0.60814 0.48761 0.0
H645 H 0.74005 0.53158 0.50869 0.0
H646 H 0.62038 0.50746 0.48578 0.0
H647 H 0.66334 0.51292 0.48749 0.0
C648 C 0.12538 0.26891 0.0827 0.0
C649 C 0.12395 0.26359 0.10734 0.0
C650 C 0.11483 0.28983 0.07203 0.0
C651 C 0.09136 0.35055 0.0863 0.0
H652 H 0.06063 0.34808 0.02516 0.0
C653 C 0.03107 0.42759 0.05054 0.0
C654 C 0.03365 0.4363 0.02673 0.0
C655 C 0.04223 0.40631 0.05924 0.0
C656 C 0.06935 0.34914 0.04213 0.0
H657 H 0.11033 0.27659 0.13998 0.0
H658 H 0.0914 0.31235 0.12142 0.0
H659 H 0.07978 0.31153 0.04259 0.0
H660 H 0.04962 0.42887 0.99324 0.0
H661 H 0.06904 0.39138 0.00848 0.0
H662 H 0.08064 0.38799 0.08603 0.0
C663 C 0.10099 0.3006 0.1103 0.0
C664 C 0.08038 0.32818 0.05214 0.0
C665 C 0.1116 0.27979 0.12095 0.0
C666 C 0.04723 0.42269 0.01166 0.0
C667 C 0.05831 0.40119 0.02038 0.0
C668 C 0.08023 0.37138 0.07639 0.0
C669 C 0.10252 0.30602 0.08569 0.0
C670 C 0.09138 0.32852 0.07449 0.0
C671 C 0.05624 0.39297 0.0444 0.0
C672 C 0.06888 0.37091 0.05428 0.0
H673 H 0.13448 0.25678 0.07155 0.0
H674 H 0.11662 0.29345 0.05308 0.0
H675 H 0.1001 0.35182 0.10323 0.0
H676 H 0.02068 0.43744 0.06269 0.0
H677 H 0.03989 0.40029 0.07771 0.0
C678 C 0.60989 0.24713 0.92497 0.0
C679 C 0.60831 0.25421 0.90072 0.0
C680 C 0.59916 0.22517 0.93409 0.0
C681 C 0.57634 0.16483 0.91605 0.0
H682 H 0.54647 0.16165 0.97776 0.0
C683 C 0.52485 0.07817 0.95415 0.0
C684 C 0.52968 0.07079 0.97787 0.0
C685 C 0.53326 0.10098 0.94442 0.0
C686 C 0.55488 0.16223 0.96057 0.0
H687 H 0.59418 0.24365 0.86703 0.0
H688 H 0.57492 0.20568 0.88304 0.0
H689 H 0.56318 0.20078 0.96128 0.0
H690 H 0.54691 0.08165 0.01005 0.0
H691 H 0.56154 0.12139 0.99306 0.0
H692 H 0.56799 0.12625 0.91538 0.0
C693 C 0.58475 0.21696 0.89497 0.0
C694 C 0.5645 0.18462 0.95114 0.0
C695 C 0.59554 0.23889 0.88584 0.0
C696 C 0.54286 0.08679 0.99172 0.0
C697 C 0.55113 0.10963 0.98204 0.0
C698 C 0.56662 0.14246 0.92544 0.0
C699 C 0.5865 0.20978 0.91919 0.0
C700 C 0.57551 0.18616 0.92885 0.0
C701 C 0.54653 0.11692 0.95826 0.0
C702 C 0.55596 0.14088 0.94787 0.0
H703 H 0.61934 0.25863 0.93699 0.0
H704 H 0.6011 0.22007 0.95278 0.0
H705 H 0.585 0.16526 0.899 0.0
H706 H 0.51474 0.06626 0.94301 0.0
H707 H 0.52926 0.1062 0.9261 0.0
C708 C 0.98455 0.7364 0.46261 0.0
C709 C 0.97192 0.7339 0.44146 0.0
C710 C 0.99322 0.75955 0.46861 0.0
C711 C 1.00494 0.82361 0.44293 0.0
H712 H 0.99961 0.84104 0.50809 0.0
C713 C 0.99915 0.9231 0.47046 0.0
C714 C 0.01305 0.93022 0.48958 0.0
C715 C 0.99808 0.89859 0.46451 0.0
C716 C 1.00153 0.83629 0.48989 0.0
H717 H 0.95812 0.75366 0.41023 0.0
H718 H 0.97263 0.79393 0.42085 0.0
H719 H 0.99008 0.79892 0.49794 0.0
H720 H 0.03689 0.91735 0.51739 0.0
H721 H 0.0345 0.8741 0.50727 0.0
H722 H 0.01522 0.86138 0.43481 0.0
C723 C 0.9766 0.77805 0.43252 0.0
C724 C 0.99614 0.81215 0.48405 0.0
C725 C 0.96817 0.75495 0.42644 0.0
C726 C 0.02609 0.91236 0.50251 0.0
C727 C 0.02466 0.88767 0.49681 0.0
C728 C 0.01002 0.84777 0.44873 0.0
C729 C 0.98923 0.78071 0.45369 0.0
C730 C 0.9973 0.80563 0.46039 0.0
C731 C 0.01058 0.88059 0.47779 0.0
C732 C 0.00794 0.85443 0.47218 0.0
H733 H 0.98783 0.72043 0.47443 0.0
H734 H 1.00311 0.76083 0.4849 0.0
H735 H 0.00664 0.81915 0.42463 0.0
H736 H 0.98896 0.93646 0.46012 0.0
H737 H 0.98691 0.89357 0.44991 0.0
C738 C 0.44951 0.75494 0.55407 0.0
C739 C 0.43817 0.75973 0.57521 0.0
C740 C 0.45348 0.73074 0.54855 0.0
C741 C 0.45598 0.66687 0.57567 0.0
H742 H 0.45437 0.65044 0.50995 0.0
C743 C 0.4664 0.56786 0.54365 0.0
C744 C 0.48434 0.5665 0.52675 0.0
C745 C 0.45891 0.59079 0.55018 0.0
C746 C 0.45483 0.65481 0.52837 0.0
H747 H 0.42168 0.74317 0.60701 0.0
H748 H 0.42791 0.70078 0.5971 0.0
H749 H 0.44424 0.69171 0.52015 0.0
H750 H 0.50825 0.58796 0.50319 0.0
H751 H 0.49478 0.62783 0.51423 0.0
H752 H 0.46626 0.62961 0.58371 0.0
C753 C 0.43436 0.71566 0.58503 0.0
C754 C 0.44922 0.67849 0.53424 0.0
C755 C 0.4307 0.73991 0.5907 0.0
C756 C 0.49445 0.58841 0.51634 0.0
C757 C 0.48668 0.61122 0.52253 0.0
C758 C 0.46125 0.64304 0.5698 0.0
C759 C 0.44585 0.71076 0.56389 0.0
C760 C 0.45018 0.685 0.55792 0.0
C761 C 0.4689 0.61262 0.53951 0.0
C762 C 0.46113 0.63699 0.54606 0.0
H763 H 0.45567 0.76995 0.54198 0.0
H764 H 0.46287 0.72777 0.53239 0.0
H765 H 0.45721 0.67125 0.59405 0.0
H766 H 0.45834 0.55124 0.55197 0.0
H767 H 0.44513 0.59149 0.56331 0.0
C768 C 0.89242 0.88393 0.72141 0.0
C769 C 0.88621 0.89921 0.73945 0.0
C770 C 0.90256 0.89391 0.70028 0.0
C771 C 0.93572 0.94878 0.67484 0.0
H772 H 0.9175 0.92332 0.61472 0.0
C773 C 0.98862 0.97224 0.58859 0.0
C774 C 0.9759 0.97685 0.56747 0.0
C775 C 0.9771 0.96353 0.60943 0.0
C776 C 0.92268 0.93079 0.63132 0.0
H777 H 0.88595 0.93711 0.74928 0.0
H778 H 0.90347 0.95454 0.71237 0.0
H779 H 0.89819 0.90694 0.65108 0.0
H780 H 0.94097 0.97596 0.55185 0.0
H781 H 0.92089 0.96075 0.58822 0.0
H782 H 0.96014 0.97269 0.65509 0.0
C783 C 0.9006 0.93477 0.71464 0.0
C784 C 0.91177 0.9212 0.65222 0.0
C785 C 0.89032 0.92479 0.73572 0.0
C786 C 0.95134 0.97258 0.56776 0.0
C787 C 0.93983 0.96372 0.5886 0.0
C788 C 0.94673 0.95825 0.65396 0.0
C789 C 0.90689 0.91946 0.69663 0.0
C790 C 0.91818 0.93002 0.67428 0.0
C791 C 0.95256 0.95906 0.60972 0.0
C792 C 0.94042 0.94934 0.63192 0.0
H793 H 0.88931 0.86418 0.72354 0.0
H794 H 0.90736 0.88153 0.68693 0.0
H795 H 0.94126 0.95587 0.69149 0.0
H796 H 0.00755 0.97528 0.58905 0.0
H797 H 0.98753 0.95988 0.62526 0.0
C798 C 0.55006 0.08865 0.28432 0.0
C799 C 0.5529 0.07183 0.30392 0.0
C800 C 0.54501 0.08031 0.26197 0.0
C801 C 0.55287 0.02627 0.22742 0.0
H802 H 0.51424 0.06269 0.18157 0.0
C803 C 0.52118 0.02475 0.12301 0.0
C804 C 0.54311 0.02083 0.11256 0.0
C805 C 0.51958 0.02808 0.14725 0.0
C806 C 0.52482 0.05207 0.19422 0.0
H807 H 0.55146 0.03311 0.31565 0.0
H808 H 0.54258 0.01852 0.27655 0.0
H809 H 0.51497 0.07391 0.22261 0.0
H810 H 0.58036 0.01637 0.11962 0.0
H811 H 0.57768 0.02267 0.16168 0.0
H812 H 0.5628 0.00449 0.19903 0.0
C813 C 0.54465 0.03815 0.27844 0.0
C814 C 0.52544 0.05868 0.21769 0.0
C815 C 0.54972 0.04651 0.30082 0.0
C816 C 0.56327 0.01967 0.12702 0.0
C817 C 0.56167 0.02297 0.15122 0.0
C818 C 0.55224 0.01965 0.20396 0.0
C819 C 0.54267 0.05495 0.25868 0.0
C820 C 0.53984 0.04618 0.23445 0.0
C821 C 0.53985 0.02749 0.16158 0.0
C822 C 0.53859 0.0328 0.18698 0.0
H823 H 0.55277 0.10825 0.286 0.0
H824 H 0.54398 0.09374 0.24709 0.0
H825 H 0.5643 0.01637 0.23982 0.0
H826 H 0.50532 0.02596 0.11239 0.0
H827 H 0.50247 0.0313 0.15473 0.0
C828 C 0.3811 0.57456 0.28282 0.0
C829 C 0.39618 0.5854 0.26522 0.0
C830 C 0.39026 0.56443 0.30411 0.0
C831 C 0.44566 0.54214 0.33196 0.0
H832 H 0.41448 0.55535 0.39054 0.0
C833 C 0.49068 0.52929 0.42309 0.0
C834 C 0.47718 0.5186 0.44201 0.0
C835 C 0.48013 0.53558 0.40131 0.0
C836 C 0.42322 0.55123 0.37432 0.0
H837 H 0.43278 0.59338 0.25594 0.0
H838 H 0.44868 0.57636 0.29321 0.0
H839 H 0.3972 0.56954 0.35279 0.0
H840 H 0.44201 0.50602 0.45287 0.0
H841 H 0.42359 0.51708 0.41476 0.0
H842 H 0.47194 0.52429 0.35356 0.0
C843 C 0.42978 0.57542 0.29051 0.0
C844 C 0.4133 0.55932 0.35268 0.0
C845 C 0.42064 0.58548 0.26925 0.0
C846 C 0.4529 0.51423 0.43864 0.0
C847 C 0.44233 0.52067 0.41687 0.0
C848 C 0.45562 0.53416 0.35359 0.0
C849 C 0.41472 0.5649 0.30827 0.0
C850 C 0.42453 0.55509 0.33124 0.0
C851 C 0.45583 0.53144 0.39799 0.0
C852 C 0.44462 0.53882 0.37501 0.0
H853 H 0.36216 0.57436 0.28037 0.0
H854 H 0.37818 0.55623 0.31731 0.0
H855 H 0.45455 0.53816 0.31577 0.0
H856 H 0.50942 0.53294 0.42512 0.0
H857 H 0.49095 0.54414 0.38719 0.0
C858 C 0.08797 0.43988 0.72907 0.0
C859 C 0.08632 0.41483 0.72438 0.0
C860 C 0.08578 0.44722 0.7521 0.0
C861 C 0.08866 0.4254 0.81517 0.0
H862 H 0.05192 0.48333 0.8232 0.0
C863 C 0.05484 0.45834 0.90513 0.0
C864 C 0.05363 0.48393 0.90664 0.0
C865 C 0.06278 0.44869 0.88427 0.0
C866 C 0.06255 0.46734 0.82126 0.0
H867 H 0.08131 0.37777 0.74033 0.0
H868 H 0.07686 0.39071 0.7807 0.0
H869 H 0.0566 0.46857 0.78398 0.0
H870 H 0.06177 0.51948 0.88902 0.0
H871 H 0.0764 0.50284 0.85295 0.0
H872 H 0.09416 0.42413 0.85282 0.0
C873 C 0.08017 0.40461 0.76648 0.0
C874 C 0.06519 0.45884 0.79875 0.0
C875 C 0.08241 0.39724 0.74334 0.0
C876 C 0.0625 0.49969 0.88806 0.0
C877 C 0.07063 0.49014 0.86742 0.0
C878 C 0.08593 0.43391 0.83786 0.0
C879 C 0.08171 0.42972 0.77107 0.0
C880 C 0.07846 0.43795 0.79536 0.0
C881 C 0.06969 0.46461 0.86481 0.0
C882 C 0.07306 0.45517 0.84105 0.0
H883 H 0.09072 0.45394 0.71486 0.0
H884 H 0.08736 0.46668 0.75505 0.0
H885 H 0.09909 0.4093 0.81309 0.0
H886 H 0.04782 0.44594 0.91925 0.0
H887 H 0.06187 0.42894 0.88276 0.0
C888 C 0.73149 0.90173 0.92188 0.0
C889 C 0.73241 0.89687 0.89777 0.0
C890 C 0.71122 0.91126 0.93155 0.0
C891 C 0.65582 0.94343 0.91479 0.0
H892 H 0.63668 0.92127 0.97846 0.0
C893 C 0.56594 0.96824 0.95449 0.0
C894 C 0.56589 0.97481 0.97816 0.0
C895 C 0.58611 0.95868 0.94463 0.0
C896 C 0.64189 0.92785 0.96073 0.0
H897 H 0.71244 0.89801 0.86503 0.0
H898 H 0.67704 0.91433 0.88187 0.0
H899 H 0.67186 0.90477 0.9614 0.0
H900 H 0.58714 0.97636 0.00998 0.0
H901 H 0.62223 0.95969 0.99281 0.0
H902 H 0.62566 0.96634 0.91411 0.0
C903 C 0.69217 0.91126 0.89328 0.0
C904 C 0.66214 0.91841 0.95093 0.0
C905 C 0.7125 0.90184 0.88358 0.0
C906 C 0.58649 0.97145 0.99173 0.0
C907 C 0.60661 0.96176 0.9819 0.0
C908 C 0.63549 0.95277 0.92456 0.0
C909 C 0.6912 0.9161 0.91742 0.0
C910 C 0.66946 0.92609 0.92782 0.0
C911 C 0.60673 0.9553 0.9582 0.0
C912 C 0.62828 0.94516 0.94769 0.0
H913 H 0.74661 0.89851 0.93326 0.0
H914 H 0.71139 0.91516 0.95008 0.0
H915 H 0.66103 0.95015 0.89712 0.0
H916 H 0.5504 0.97056 0.9435 0.0
H917 H 0.58546 0.95366 0.92641 0.0
C918 C 0.73115 0.07699 0.42712 0.0
C919 C 0.71529 0.08065 0.4455 0.0
C920 C 0.75466 0.07198 0.4321 0.0
C921 C 0.79417 0.04725 0.47821 0.0
H922 H 0.84249 0.08039 0.43867 0.0
C923 C 0.89365 0.02817 0.49058 0.0
C924 C 0.90598 0.02489 0.46954 0.0
C925 C 0.87081 0.03728 0.48977 0.0
C926 C 0.82921 0.07089 0.44979 0.0
H927 H 0.71151 0.08159 0.48353 0.0
H928 H 0.75283 0.07264 0.49229 0.0
H929 H 0.80145 0.09154 0.4333 0.0
H930 H 0.90427 0.02938 0.43123 0.0
H931 H 0.86451 0.04466 0.4298 0.0
H932 H 0.82189 0.02609 0.49426 0.0
C933 C 0.74695 0.0737 0.47404 0.0
C934 C 0.80573 0.07729 0.44672 0.0
C935 C 0.72339 0.07894 0.46903 0.0
C936 C 0.89517 0.03132 0.44775 0.0
C937 C 0.87246 0.04043 0.44694 0.0
C938 C 0.81771 0.04074 0.48122 0.0
C939 C 0.76284 0.0704 0.45558 0.0
C940 C 0.78792 0.06518 0.46054 0.0
C941 C 0.85995 0.04341 0.46792 0.0
C942 C 0.83541 0.05213 0.46667 0.0
H943 H 0.7255 0.0785 0.4088 0.0
H944 H 0.76644 0.0692 0.41754 0.0
H945 H 0.78077 0.03754 0.48903 0.0
H946 H 0.90143 0.02324 0.50763 0.0
H947 H 0.86167 0.03953 0.50624 0.0
C948 C 0.24439 0.59356 0.07926 0.0
C949 C 0.24583 0.5963 0.10377 0.0
C950 C 0.22341 0.5852 0.06905 0.0
C951 C 0.16713 0.55195 0.08427 0.0
H952 H 0.1455 0.58209 0.02447 0.0
C953 C 0.0726 0.53683 0.05125 0.0
C954 C 0.06939 0.53177 0.02737 0.0
C955 C 0.09457 0.54466 0.05947 0.0
C956 C 0.15146 0.57332 0.04104 0.0
H957 H 0.22625 0.59288 0.1367 0.0
H958 H 0.18967 0.57849 0.11893 0.0
H959 H 0.18316 0.59563 0.04105 0.0
H960 H 0.08668 0.53152 0.99326 0.0
H961 H 0.12524 0.54536 0.00772 0.0
H962 H 0.13533 0.52992 0.08446 0.0
C963 C 0.20487 0.58228 0.10762 0.0
C964 C 0.17303 0.58104 0.05054 0.0
C965 C 0.22583 0.59055 0.11783 0.0
C966 C 0.08858 0.53527 0.01176 0.0
C967 C 0.11063 0.54326 0.02 0.0
C968 C 0.14558 0.54434 0.07485 0.0
C969 C 0.2034 0.57945 0.08312 0.0
C970 C 0.181 0.57061 0.0724 0.0
C971 C 0.11389 0.54771 0.04403 0.0
C972 C 0.13737 0.55512 0.05327 0.0
H973 H 0.25958 0.59758 0.068 0.0
H974 H 0.22298 0.58291 0.05017 0.0
H975 H 0.17296 0.54314 0.10087 0.0
H976 H 0.0582 0.53443 0.06378 0.0
H977 H 0.09642 0.54836 0.07799 0.0
C978 C 0.22102 0.44095 0.56606 0.0
C979 C 0.205 0.43129 0.54981 0.0
C980 C 0.24388 0.448 0.55916 0.0
C981 C 0.28889 0.43514 0.51575 0.0
H982 H 0.3218 0.48981 0.54349 0.0
C983 C 0.38935 0.4394 0.52676 0.0
C984 C 0.40148 0.46231 0.52462 0.0
C985 C 0.36481 0.43801 0.52555 0.0
C986 C 0.31284 0.47472 0.53524 0.0
H987 H 0.20034 0.42206 0.51333 0.0
H988 H 0.24052 0.43441 0.5012 0.0
H989 H 0.27938 0.48433 0.54871 0.0
H990 H 0.39719 0.50175 0.51902 0.0
H991 H 0.35426 0.49929 0.51653 0.0
H992 H 0.32239 0.42545 0.50238 0.0
C993 C 0.23531 0.43631 0.51938 0.0
C994 C 0.28855 0.47141 0.53847 0.0
C995 C 0.21233 0.42923 0.52631 0.0
C996 C 0.38844 0.4838 0.52064 0.0
C997 C 0.36382 0.48241 0.51941 0.0
C998 C 0.31318 0.43848 0.51246 0.0
C999 C 0.25141 0.44557 0.53582 0.0
C1000 C 0.27641 0.45118 0.52935 0.0
C1001 C 0.35172 0.4595 0.52208 0.0
C1002 C 0.32554 0.45791 0.52274 0.0
H1003 H 0.21616 0.44228 0.58443 0.0
H1004 H 0.25595 0.45451 0.57242 0.0
H1005 H 0.28012 0.4193 0.50858 0.0
H1006 H 0.3988 0.42245 0.52944 0.0
H1007 H 0.35608 0.42008 0.528 0.0
C1008 C 0.88953 0.7374 0.93283 0.0
C1009 C 0.89128 0.74231 0.90814 0.0
C1010 C 0.90045 0.71698 0.94403 0.0
C1011 C 0.94855 0.67378 0.93598 0.0
H1012 H 0.91567 0.63163 0.98359 0.0
C1013 C 0.98309 0.57856 0.96666 0.0
C1014 C 0.9802 0.56972 0.99039 0.0
C1015 C 0.97279 0.6004 0.95813 0.0
C1016 C 0.92529 0.6434 0.97062 0.0
H1017 H 0.9055 0.72883 0.87595 0.0
H1018 H 0.92476 0.69366 0.89549 0.0
H1019 H 0.8965 0.66802 0.96588 0.0
H1020 H 0.96433 0.5773 0.02387 0.0
H1021 H 0.94663 0.61586 0.00907 0.0
H1022 H 0.97736 0.64944 0.94067 0.0
C1023 C 0.91518 0.70581 0.90623 0.0
C1024 C 0.91424 0.66425 0.96041 0.0
C1025 C 0.90415 0.72608 0.89502 0.0
C1026 C 0.96693 0.58356 0.00549 0.0
C1027 C 0.95663 0.60558 0.99694 0.0
C1028 C 0.95964 0.65309 0.94627 0.0
C1029 C 0.91355 0.70103 0.93089 0.0
C1030 C 0.92561 0.6795 0.9427 0.0
C1031 C 0.95937 0.61426 0.97308 0.0
C1032 C 0.94806 0.63735 0.96348 0.0
H1033 H 0.88009 0.7496 0.94363 0.0
H1034 H 0.89902 0.71398 0.96308 0.0
H1035 H 0.95802 0.68538 0.92275 0.0
H1036 H 0.99309 0.56842 0.95442 0.0
H1037 H 0.97498 0.60611 0.93958 0.0
C1038 C 0.40656 0.7608 0.08544 0.0
C1039 C 0.40696 0.75437 0.10989 0.0
C1040 C 0.4169 0.78301 0.07643 0.0
C1041 C 0.4607 0.83134 0.08972 0.0
H1042 H 0.42563 0.87126 0.04347 0.0
C1043 C 0.49025 0.93084 0.05843 0.0
C1044 C 0.48679 0.93802 0.03443 0.0
C1045 C 0.48119 0.90816 0.06789 0.0
C1046 C 0.43582 0.86021 0.05613 0.0
H1047 H 0.41856 0.76637 0.14402 0.0
H1048 H 0.43687 0.80499 0.12818 0.0
H1049 H 0.40873 0.83207 0.05929 0.0
H1050 H 0.47169 0.92679 1.00136 0.0
H1051 H 0.45641 0.88718 0.01767 0.0
H1052 H 0.48791 0.85938 0.08638 0.0
C1053 C 0.42869 0.79271 0.11602 0.0
C1054 C 0.4261 0.83776 0.06522 0.0
C1055 C 0.41823 0.77056 0.12506 0.0
C1056 C 0.47451 0.9219 0.01998 0.0
C1057 C 0.4656 0.89923 0.02938 0.0
C1058 C 0.47051 0.85376 0.08051 0.0
C1059 C 0.42799 0.79923 0.09163 0.0
C1060 C 0.43844 0.82307 0.08207 0.0
C1061 C 0.46859 0.89218 0.05349 0.0
C1062 C 0.45821 0.86843 0.06354 0.0
H1063 H 0.39842 0.74858 0.07321 0.0
H1064 H 0.41639 0.78739 0.0575 0.0
H1065 H 0.4707 0.82026 0.10253 0.0
H1066 H 0.49958 0.9429 0.07003 0.0
H1067 H 0.4836 0.90342 0.08659 0.0
C1068 C 0.03255 0.25394 0.58716 0.0
C1069 C 0.04237 0.27011 0.56925 0.0
C1070 C 0.02417 0.23047 0.58209 0.0
C1071 C 0.02552 0.17717 0.57075 0.0
H1072 H 0.99784 0.16161 0.51056 0.0
C1073 C 0.02816 0.08015 0.53758 0.0
C1074 C 0.00869 0.07077 0.52527 0.0
C1075 C 0.02907 0.10461 0.54359 0.0
C1076 C 0.00525 0.16566 0.52759 0.0
H1077 H 0.04979 0.27458 0.5316 0.0
H1078 H 0.03615 0.23329 0.52295 0.0
H1079 H 1.00378 0.20463 0.51976 0.0
H1080 H 0.97478 0.07976 0.50972 0.0
H1081 H 0.97628 0.1227 0.52053 0.0
H1082 H 0.02682 0.13834 0.57873 0.0
C1083 C 0.03459 0.23889 0.5409 0.0
C1084 C 0.00893 0.19032 0.53275 0.0
C1085 C 0.04276 0.26248 0.54594 0.0
C1086 C 0.99004 0.08645 0.5192 0.0
C1087 C 0.99095 0.11105 0.52528 0.0
C1088 C 0.02173 0.15261 0.56566 0.0
C1089 C 0.02562 0.2224 0.55901 0.0
C1090 C 0.01951 0.19637 0.55424 0.0
C1091 C 0.0105 0.12038 0.53757 0.0
C1092 C 0.01206 0.14653 0.54382 0.0
H1093 H 0.03211 0.25899 0.60536 0.0
H1094 H 0.01699 0.21844 0.5964 0.0
H1095 H 0.03396 0.18103 0.58736 0.0
H1096 H 0.04291 0.06865 0.54244 0.0
H1097 H 0.04462 0.11128 0.55261 0.0
C1098 C 0.55209 0.25344 0.4358 0.0
C1099 C 0.57522 0.24625 0.43168 0.0
C1100 C 0.54754 0.27785 0.44017 0.0
C1101 C 0.57636 0.33466 0.4601 0.0
H1102 H 0.51961 0.36484 0.43518 0.0
C1103 C 0.55341 0.43617 0.47388 0.0
C1104 C 0.53021 0.43941 0.48149 0.0
C1105 C 0.56006 0.41348 0.46599 0.0
C1106 C 0.5355 0.35661 0.4423 0.0
H1107 H 0.61164 0.25908 0.42831 0.0
H1108 H 0.60368 0.30176 0.43575 0.0
H1109 H 0.52902 0.32345 0.42464 0.0
H1110 H 0.49576 0.4215 0.48658 0.0
H1111 H 0.50735 0.38217 0.47282 0.0
H1112 H 0.5827 0.3679 0.47786 0.0
C1113 C 0.58912 0.28845 0.43606 0.0
C1114 C 0.54085 0.33289 0.43635 0.0
C1115 C 0.59367 0.26401 0.4318 0.0
C1116 C 0.51379 0.41964 0.48085 0.0
C1117 C 0.52036 0.39713 0.4728 0.0
C1118 C 0.57105 0.35848 0.46596 0.0
C1119 C 0.566 0.29564 0.44037 0.0
C1120 C 0.56114 0.32147 0.44549 0.0
C1121 C 0.54355 0.39378 0.46533 0.0
C1122 C 0.55036 0.36951 0.45743 0.0
H1123 H 0.53756 0.24009 0.43611 0.0
H1124 H 0.52958 0.28267 0.44384 0.0
H1125 H 0.592 0.32631 0.46766 0.0
H1126 H 0.56645 0.45107 0.47418 0.0
H1127 H 0.57804 0.41139 0.46022 0.0
loop_
_geom_bond_atom_site_label_1
_geom_bond_atom_site_label_2
_geom_bond_distance
_geom_bond_site_symmetry_2
_ccdc_geom_bond_type
C0 C1 1.384 . S
C0 H13 0.947 . S
C0 C35 1.382 . S
C1 C0 1.384 . S
C1 C2 1.378 . S
C2 C1 1.378 . S
C2 C3 1.378 . S
C2 H14 0.952 . S
C3 C2 1.378 . S
C3 H15 0.950 . S
C3 C34 1.383 . S
H4 C23 0.947 . S
H5 C24 0.946 . S
H6 C26 0.953 . S
H7 C27 0.945 . S
H8 C29 0.952 . S
H9 C30 0.949 . S
H10 C32 0.950 . S
H11 C33 0.948 . S
H12 C35 0.951 . S
H13 C0 0.947 . S
H14 C2 0.952 . S
H15 C3 0.950 . S
N16 C19 1.382 . S
N16 C21 1.363 . S
N17 C19 1.371 . S
N17 C20 1.372 . S
N18 C20 1.361 . S
N18 C21 1.377 . S
C19 N16 1.382 . S
C19 N17 1.371 . S
C19 C22 1.480 . S
C20 N17 1.372 . S
C20 N18 1.361 . S
C20 C28 1.457 . S
C21 N16 1.363 . S
C21 N18 1.377 . S
C21 C34 1.479 . S
C22 C19 1.480 . S
C22 C23 1.383 . S
C22 C27 1.385 . S
C23 H4 0.947 . S
C23 C22 1.383 . S
C23 C24 1.388 . S
C24 H5 0.946 . S
C24 C23 1.388 . S
C24 C25 1.384 . S
C25 C24 1.384 . S
C25 C26 1.377 . S
C26 H6 0.953 . S
C26 C25 1.377 . S
C26 C27 1.369 . S
C27 H7 0.945 . S
C27 C22 1.385 . S
C27 C26 1.369 . S
C28 C20 1.457 . S
C28 C29 1.372 . S
C28 C33 1.364 . S
C29 H8 0.952 . S
C29 C28 1.372 . S
C29 C30 1.389 . S
C30 H9 0.949 . S
C30 C29 1.389 . S
C30 C31 1.387 . S
C31 C30 1.387 . S
C31 C32 1.372 . S
C32 H10 0.950 . S
C32 C31 1.372 . S
C32 C33 1.379 . S
C33 H11 0.948 . S
C33 C28 1.364 . S
C33 C32 1.379 . S
C34 C3 1.383 . S
C34 C21 1.479 . S
C34 C35 1.398 . S
C35 C0 1.382 . S
C35 H12 0.951 . S
C35 C34 1.398 . S
C36 C37 1.384 . S
C36 H49 0.947 . S
C36 C71 1.382 . S
C37 C36 1.384 . S
C37 C38 1.378 . S
C38 C37 1.378 . S
C38 C39 1.378 . S
C38 H50 0.952 . S
C39 C38 1.378 . S
C39 H51 0.950 . S
C39 C70 1.383 . S
H40 C59 0.947 . S
H41 C60 0.946 . S
H42 C62 0.953 . S
H43 C63 0.945 . S
H44 C65 0.952 . S
H45 C66 0.949 . S
H46 C68 0.950 . S
H47 C69 0.948 . S
H48 C71 0.951 . S
H49 C36 0.947 . S
H50 C38 0.952 . S
H51 C39 0.950 . S
N52 C55 1.382 . S
N52 C57 1.363 . S
N53 C55 1.371 . S
N53 C56 1.372 . S
N54 C56 1.361 . S
N54 C57 1.377 . S
C55 N52 1.382 . S
C55 N53 1.371 . S
C55 C58 1.480 . S
C56 N53 1.372 . S
C56 N54 1.361 . S
C56 C64 1.457 . S
C57 N52 1.363 . S
C57 N54 1.377 . S
C57 C70 1.479 . S
C58 C55 1.480 . S
C58 C59 1.383 . S
C58 C63 1.385 . S
C59 H40 0.947 . S
C59 C58 1.383 . S
C59 C60 1.388 . S
C60 H41 0.946 . S
C60 C59 1.388 . S
C60 C61 1.384 . S
C61 C60 1.384 . S
C61 C62 1.377 . S
C62 H42 0.953 . S
C62 C61 1.377 . S
C62 C63 1.369 . S
C63 H43 0.945 . S
C63 C58 1.385 . S
C63 C62 1.369 . S
C64 C56 1.457 . S
C64 C65 1.372 . S
C64 C69 1.364 . S
C65 H44 0.952 . S
C65 C64 1.372 . S
C65 C66 1.389 . S
C66 H45 0.949 . S
C66 C65 1.389 . S
C66 C67 1.387 . S
C67 C66 1.387 . S
C67 C68 1.372 . S
C68 H46 0.950 . S
C68 C67 1.372 . S
C68 C69 1.379 . S
C69 H47 0.948 . S
C69 C64 1.364 . S
C69 C68 1.379 . S
C70 C39 1.383 . S
C70 C57 1.479 . S
C70 C71 1.398 . S
C71 C36 1.382 . S
C71 H48 0.951 . S
C71 C70 1.398 . S
C72 C73 1.384 . S
C72 H85 0.947 . S
C72 C107 1.382 . S
C73 C72 1.384 . S
C73 C74 1.378 . S
C74 C73 1.378 . S
C74 C75 1.378 . S
C74 H86 0.952 . S
C75 C74 1.378 . S
C75 H87 0.950 . S
C75 C106 1.383 . S
H76 C95 0.947 . S
H77 C96 0.946 . S
H78 C98 0.953 . S
H79 C99 0.945 . S
H80 C101 0.952 . S
H81 C102 0.949 . S
H82 C104 0.950 . S
H83 C105 0.948 . S
H84 C107 0.951 . S
H85 C72 0.947 . S
H86 C74 0.952 . S
H87 C75 0.950 . S
N88 C91 1.382 . S
N88 C93 1.363 . S
N89 C91 1.371 . S
N89 C92 1.372 . S
N90 C92 1.361 . S
N90 C93 1.377 . S
C91 N88 1.382 . S
C91 N89 1.371 . S
C91 C94 1.480 . S
C92 N89 1.372 . S
C92 N90 1.361 . S
C92 C100 1.457 . S
C93 N88 1.363 . S
C93 N90 1.377 . S
C93 C106 1.479 . S
C94 C91 1.480 . S
C94 C95 1.383 . S
C94 C99 1.385 . S
C95 H76 0.947 . S
C95 C94 1.383 . S
C95 C96 1.388 . S
C96 H77 0.946 . S
C96 C95 1.388 . S
C96 C97 1.384 . S
C97 C96 1.384 . S
C97 C98 1.377 . S
C98 H78 0.953 . S
C98 C97 1.377 . S
C98 C99 1.369 . S
C99 H79 0.945 . S
C99 C94 1.385 . S
C99 C98 1.369 . S
C100 C92 1.457 . S
C100 C101 1.372 . S
C100 C105 1.364 . S
C101 H80 0.952 . S
C101 C100 1.372 . S
C101 C102 1.389 . S
C102 H81 0.949 . S
C102 C101 1.389 . S
C102 C103 1.387 . S
C103 C102 1.387 . S
C103 C104 1.372 . S
C104 H82 0.950 . S
C104 C103 1.372 . S
C104 C105 1.379 . S
C105 H83 0.948 . S
C105 C100 1.364 . S
C105 C104 1.379 . S
C106 C75 1.383 . S
C106 C93 1.479 . S
C106 C107 1.398 . S
C107 C72 1.382 . S
C107 H84 0.951 . S
C107 C106 1.398 . S
C108 C109 1.384 . S
C108 H121 0.947 . S
C108 C143 1.382 . S
C109 C108 1.384 . S
C109 C110 1.378 . S
C110 C109 1.378 . S
C110 C111 1.378 . S
C110 H122 0.952 . S
C111 C110 1.378 . S
C111 H123 0.950 . S
C111 C142 1.383 . S
H112 C131 0.947 . S
H113 C132 0.946 . S
H114 C134 0.953 . S
H115 C135 0.945 . S
H116 C137 0.952 . S
H117 C138 0.949 . S
H118 C140 0.950 . S
H119 C141 0.948 . S
H120 C143 0.951 . S
H121 C108 0.947 . S
H122 C110 0.952 . S
H123 C111 0.950 . S
N124 C127 1.382 . S
N124 C129 1.363 . S
N125 C127 1.371 . S
N125 C128 1.372 . S
N126 C128 1.361 . S
N126 C129 1.377 . S
C127 N124 1.382 . S
C127 N125 1.371 . S
C127 C130 1.480 . S
C128 N125 1.372 . S
C128 N126 1.361 . S
C128 C136 1.457 . S
C129 N124 1.363 . S
C129 N126 1.377 . S
C129 C142 1.479 . S
C130 C127 1.480 . S
C130 C131 1.383 . S
C130 C135 1.385 . S
C131 H112 0.947 . S
C131 C130 1.383 . S
C131 C132 1.388 . S
C132 H113 0.946 . S
C132 C131 1.388 . S
C132 C133 1.384 . S
C133 C132 1.384 . S
C133 C134 1.377 . S
C134 H114 0.953 . S
C134 C133 1.377 . S
C134 C135 1.369 . S
C135 H115 0.945 . S
C135 C130 1.385 . S
C135 C134 1.369 . S
C136 C128 1.457 . S
C136 C137 1.372 . S
C136 C141 1.364 . S
C137 H116 0.952 . S
C137 C136 1.372 . S
C137 C138 1.389 . S
C138 H117 0.949 . S
C138 C137 1.389 . S
C138 C139 1.387 . S
C139 C138 1.387 . S
C139 C140 1.372 . S
C140 H118 0.950 . S
C140 C139 1.372 . S
C140 C141 1.379 . S
C141 H119 0.948 . S
C141 C136 1.364 . S
C141 C140 1.379 . S
C142 C111 1.383 . S
C142 C129 1.479 . S
C142 C143 1.398 . S
C143 C108 1.382 . S
C143 H120 0.951 . S
C143 C142 1.398 . S
C144 C145 1.384 . S
C144 H157 0.947 . S
C144 C179 1.382 . S
C145 C144 1.384 . S
C145 C146 1.378 . S
C146 C145 1.378 . S
C146 C147 1.378 . S
C146 H158 0.952 . S
C147 C146 1.378 . S
C147 H159 0.950 . S
C147 C178 1.383 . S
H148 C167 0.947 . S
H149 C168 0.946 . S
H150 C170 0.953 . S
H151 C171 0.945 . S
H152 C173 0.952 . S
H153 C174 0.949 . S
H154 C176 0.950 . S
H155 C177 0.948 . S
H156 C179 0.951 . S
H157 C144 0.947 . S
H158 C146 0.952 . S
H159 C147 0.950 . S
N160 C163 1.382 . S
N160 C165 1.363 . S
N161 C163 1.371 . S
N161 C164 1.372 . S
N162 C164 1.361 . S
N162 C165 1.377 . S
C163 N160 1.382 . S
C163 N161 1.371 . S
C163 C166 1.480 . S
C164 N161 1.372 . S
C164 N162 1.361 . S
C164 C172 1.457 . S
C165 N160 1.363 . S
C165 N162 1.377 . S
C165 C178 1.479 . S
C166 C163 1.480 . S
C166 C167 1.383 . S
C166 C171 1.385 . S
C167 H148 0.947 . S
C167 C166 1.383 . S
C167 C168 1.388 . S
C168 H149 0.946 . S
C168 C167 1.388 . S
C168 C169 1.384 . S
C169 C168 1.384 . S
C169 C170 1.377 . S
C170 H150 0.953 . S
C170 C169 1.377 . S
C170 C171 1.369 . S
C171 H151 0.945 . S
C171 C166 1.385 . S
C171 C170 1.369 . S
C172 C164 1.457 . S
C172 C173 1.372 . S
C172 C177 1.364 . S
C173 H152 0.952 . S
C173 C172 1.372 . S
C173 C174 1.389 . S
C174 H153 0.949 . S
C174 C173 1.389 . S
C174 C175 1.387 . S
C175 C174 1.387 . S
C175 C176 1.372 . S
C176 H154 0.950 . S
C176 C175 1.372 . S
C176 C177 1.379 . S
C177 H155 0.948 . S
C177 C172 1.364 . S
C177 C176 1.379 . S
C178 C147 1.383 . S
C178 C165 1.479 . S
C178 C179 1.398 . S
C179 C144 1.382 . S
C179 H156 0.951 . S
C179 C178 1.398 . S
C180 C181 1.384 . S
C180 H193 0.947 . S
C180 C215 1.382 . S
C181 C180 1.384 . S
C181 C182 1.378 . S
C182 C181 1.378 . S
C182 C183 1.378 . S
C182 H194 0.952 . S
C183 C182 1.378 . S
C183 H195 0.950 . S
C183 C214 1.383 . S
H184 C203 0.947 . S
H185 C204 0.946 . S
H186 C206 0.953 . S
H187 C207 0.945 . S
H188 C209 0.952 . S
H189 C210 0.949 . S
H190 C212 0.950 . S
H191 C213 0.948 . S
H192 C215 0.951 . S
H193 C180 0.947 . S
H194 C182 0.952 . S
H195 C183 0.950 . S
N196 C199 1.382 . S
N196 C201 1.363 . S
N197 C199 1.371 . S
N197 C200 1.372 . S
N198 C200 1.361 . S
N198 C201 1.377 . S
C199 N196 1.382 . S
C199 N197 1.371 . S
C199 C202 1.480 . S
C200 N197 1.372 . S
C200 N198 1.361 . S
C200 C208 1.457 . S
C201 N196 1.363 . S
C201 N198 1.377 . S
C201 C214 1.479 . S
C202 C199 1.480 . S
C202 C203 1.383 . S
C202 C207 1.385 . S
C203 H184 0.947 . S
C203 C202 1.383 . S
C203 C204 1.388 . S
C204 H185 0.946 . S
C204 C203 1.388 . S
C204 C205 1.384 . S
C205 C204 1.384 . S
C205 C206 1.377 . S
C206 H186 0.953 . S
C206 C205 1.377 . S
C206 C207 1.369 . S
C207 H187 0.945 . S
C207 C202 1.385 . S
C207 C206 1.369 . S
C208 C200 1.457 . S
C208 C209 1.372 . S
C208 C213 1.364 . S
C209 H188 0.952 . S
C209 C208 1.372 . S
C209 C210 1.389 . S
C210 H189 0.949 . S
C210 C209 1.389 . S
C210 C211 1.387 . S
C211 C210 1.387 . S
C211 C212 1.372 . S
C212 H190 0.950 . S
C212 C211 1.372 . S
C212 C213 1.379 . S
C213 H191 0.948 . S
C213 C208 1.364 . S
C213 C212 1.379 . S
C214 C183 1.383 . S
C214 C201 1.479 . S
C214 C215 1.398 . S
C215 C180 1.382 . S
C215 H192 0.951 . S
C215 C214 1.398 . S
C216 C217 1.384 . S
C216 H229 0.947 . S
C216 C251 1.382 . S
C217 C216 1.384 . S
C217 C218 1.378 . S
C218 C217 1.378 . S
C218 C219 1.378 . S
C218 H230 0.952 . S
C219 C218 1.378 . S
C219 H231 0.950 . S
C219 C250 1.383 . S
H220 C239 0.947 . S
H221 C240 0.946 . S
H222 C242 0.953 . S
H223 C243 0.945 . S
H224 C245 0.952 . S
H225 C246 0.949 . S
H226 C248 0.950 . S
H227 C249 0.948 . S
H228 C251 0.951 . S
H229 C216 0.947 . S
H230 C218 0.952 . S
H231 C219 0.950 . S
N232 C235 1.382 . S
N232 C237 1.363 . S
N233 C235 1.371 . S
N233 C236 1.372 . S
N234 C236 1.361 . S
N234 C237 1.377 . S
C235 N232 1.382 . S
C235 N233 1.371 . S
C235 C238 1.480 . S
C236 N233 1.372 . S
C236 N234 1.361 . S
C236 C244 1.457 . S
C237 N232 1.363 . S
C237 N234 1.377 . S
C237 C250 1.479 . S
C238 C235 1.480 . S
C238 C239 1.383 . S
C238 C243 1.385 . S
C239 H220 0.947 . S
C239 C238 1.383 . S
C239 C240 1.388 . S
C240 H221 0.946 . S
C240 C239 1.388 . S
C240 C241 1.384 . S
C241 C240 1.384 . S
C241 C242 1.377 . S
C242 H222 0.953 . S
C242 C241 1.377 . S
C242 C243 1.369 . S
C243 H223 0.945 . S
C243 C238 1.385 . S
C243 C242 1.369 . S
C244 C236 1.457 . S
C244 C245 1.372 . S
C244 C249 1.364 . S
C245 H224 0.952 . S
C245 C244 1.372 . S
C245 C246 1.389 . S
C246 H225 0.949 . S
C246 C245 1.389 . S
C246 C247 1.387 . S
C247 C246 1.387 . S
C247 C248 1.372 . S
C248 H226 0.950 . S
C248 C247 1.372 . S
C248 C249 1.379 . S
C249 H227 0.948 . S
C249 C244 1.364 . S
C249 C248 1.379 . S
C250 C219 1.383 . S
C250 C237 1.479 . S
C250 C251 1.398 . S
C251 C216 1.382 . S
C251 H228 0.951 . S
C251 C250 1.398 . S
C252 C253 1.384 . S
C252 H265 0.947 . S
C252 C287 1.382 . S
C253 C252 1.384 . S
C253 C254 1.378 . S
C254 C253 1.378 . S
C254 C255 1.378 . S
C254 H266 0.952 . S
C255 C254 1.378 . S
C255 H267 0.950 . S
C255 C286 1.383 . S
H256 C275 0.947 . S
H257 C276 0.946 . S
H258 C278 0.953 . S
H259 C279 0.945 . S
H260 C281 0.952 . S
H261 C282 0.949 . S
H262 C284 0.950 . S
H263 C285 0.948 . S
H264 C287 0.951 . S
H265 C252 0.947 . S
H266 C254 0.952 . S
H267 C255 0.950 . S
N268 C271 1.382 . S
N268 C273 1.363 . S
N269 C271 1.371 . S
N269 C272 1.372 . S
N270 C272 1.361 . S
N270 C273 1.377 . S
C271 N268 1.382 . S
C271 N269 1.371 . S
C271 C274 1.480 . S
C272 N269 1.372 . S
C272 N270 1.361 . S
C272 C280 1.457 . S
C273 N268 1.363 . S
C273 N270 1.377 . S
C273 C286 1.479 . S
C274 C271 1.480 . S
C274 C275 1.383 . S
C274 C279 1.385 . S
C275 H256 0.947 . S
C275 C274 1.383 . S
C275 C276 1.388 . S
C276 H257 0.946 . S
C276 C275 1.388 . S
C276 C277 1.384 . S
C277 C276 1.384 . S
C277 C278 1.377 . S
C278 H258 0.953 . S
C278 C277 1.377 . S
C278 C279 1.369 . S
C279 H259 0.945 . S
C279 C274 1.385 . S
C279 C278 1.369 . S
C280 C272 1.457 . S
C280 C281 1.372 . S
C280 C285 1.364 . S
C281 H260 0.952 . S
C281 C280 1.372 . S
C281 C282 1.389 . S
C282 H261 0.949 . S
C282 C281 1.389 . S
C282 C283 1.387 . S
C283 C282 1.387 . S
C283 C284 1.372 . S
C284 H262 0.950 . S
C284 C283 1.372 . S
C284 C285 1.379 . S
C285 H263 0.948 . S
C285 C280 1.364 . S
C285 C284 1.379 . S
C286 C255 1.383 . S
C286 C273 1.479 . S
C286 C287 1.398 . S
C287 C252 1.382 . S
C287 H264 0.951 . S
C287 C286 1.398 . S
Co288 N293 2.057 . S
Co288 O305 2.021 . S
Co288 O308 2.062 . S
Co288 O312 2.117 1_545 S
Co288 O313 2.020 1_545 S
C289 O309 1.259 1_655 S
C289 O312 1.258 . S
Co290 N299 2.057 . S
Co290 O306 2.117 1_565 S
Co290 O307 2.020 1_565 S
Co290 O309 2.021 . S
Co290 O314 2.062 . S
C291 N293 1.316 . S
C291 N294 1.347 . S
C291 H296 0.931 . S
C292 N293 1.375 1_565 S
C292 C295 1.350 1_565 S
C292 H297 0.930 . S
N293 Co288 2.057 . S
N293 C291 1.316 . S
N293 C292 1.375 1_545 S
N294 C291 1.347 . S
N294 C295 1.373 . S
C295 C292 1.350 1_545 S
C295 N294 1.373 . S
C295 H316 0.931 1_545 S
H296 C291 0.931 . S
H297 C292 0.930 . S
C298 O305 1.259 1_455 S
C298 O306 1.258 . S
N299 Co290 2.057 . S
N299 C300 1.316 . S
N299 C301 1.375 1_565 S
C300 N299 1.316 . S
C300 N302 1.347 . S
C300 H311 0.931 . S
C301 N299 1.375 1_545 S
C301 C303 1.350 1_545 S
C301 H310 0.930 . S
N302 C300 1.347 . S
N302 C303 1.373 . S
C303 C301 1.350 1_565 S
C303 N302 1.373 . S
C303 H317 0.931 1_565 S
C304 O307 1.256 . S
C304 O308 1.255 1_455 S
O305 Co288 2.021 . S
O305 C298 1.259 1_655 S
O306 Co290 2.117 1_545 S
O306 C298 1.258 . S
O307 Co290 2.020 1_545 S
O307 C304 1.256 . S
O308 Co288 2.062 . S
O308 C304 1.255 1_655 S
O309 C289 1.259 1_455 S
O309 Co290 2.021 . S
H310 C301 0.930 . S
H311 C300 0.931 . S
O312 Co288 2.117 1_565 S
O312 C289 1.258 . S
O313 Co288 2.020 1_565 S
O313 C315 1.256 . S
O314 Co290 2.062 . S
O314 C315 1.255 1_455 S
C315 O313 1.256 . S
C315 O314 1.255 1_655 S
H316 C295 0.931 1_565 S
H317 C303 0.931 1_545 S
Co318 N323 2.057 . S
Co318 O335 2.021 1_565 S
Co318 O338 2.062 . S
Co318 O342 2.117 . S
Co318 O343 2.020 1_565 S
C319 O339 1.259 . S
C319 O342 1.258 1_554 S
Co320 N329 2.057 . S
Co320 O336 2.117 . S
Co320 O337 2.020 1_545 S
Co320 O339 2.021 1_545 S
Co320 O344 2.062 . S
C321 N323 1.316 . S
C321 N324 1.347 . S
C321 H326 0.931 1_565 S
C322 N323 1.375 . S
C322 C325 1.350 . S
C322 H327 0.930 . S
N323 Co318 2.057 . S
N323 C321 1.316 . S
N323 C322 1.375 . S
N324 C321 1.347 . S
N324 C325 1.373 . S
C325 C322 1.350 . S
C325 N324 1.373 . S
C325 H346 0.931 . S
H326 C321 0.931 1_545 S
H327 C322 0.930 . S
C328 O335 1.259 . S
C328 O336 1.258 1_556 S
N329 Co320 2.057 . S
N329 C330 1.316 . S
N329 C331 1.375 . S
C330 N329 1.316 . S
C330 N332 1.347 . S
C330 H341 0.931 1_545 S
C331 N329 1.375 . S
C331 C333 1.350 . S
C331 H340 0.930 . S
N332 C330 1.347 . S
N332 C333 1.373 . S
C333 C331 1.350 . S
C333 N332 1.373 . S
C333 H347 0.931 . S
C334 O337 1.256 1_556 S
C334 O338 1.255 . S
O335 Co318 2.021 1_545 S
O335 C328 1.259 . S
O336 Co320 2.117 . S
O336 C328 1.258 1_554 S
O337 Co320 2.020 1_565 S
O337 C334 1.256 1_554 S
O338 Co318 2.062 . S
O338 C334 1.255 . S
O339 C319 1.259 . S
O339 Co320 2.021 1_565 S
H340 C331 0.930 . S
H341 C330 0.931 1_565 S
O342 Co318 2.117 . S
O342 C319 1.258 1_556 S
O343 Co318 2.020 1_545 S
O343 C345 1.256 1_556 S
O344 Co320 2.062 . S
O344 C345 1.255 . S
C345 O343 1.256 1_554 S
C345 O344 1.255 . S
H346 C325 0.931 . S
H347 C333 0.931 . S
Co348 N353 2.057 . S
Co348 O365 2.021 . S
Co348 O368 2.062 . S
Co348 O372 2.117 . S
Co348 O373 2.020 . S
C349 O369 1.259 . S
C349 O372 1.258 . S
Co350 N359 2.057 . S
Co350 O366 2.117 . S
Co350 O367 2.020 . S
Co350 O369 2.021 . S
Co350 O374 2.062 . S
C351 N353 1.316 . S
C351 N354 1.347 . S
C351 H356 0.931 . S
C352 N353 1.375 . S
C352 C355 1.350 . S
C352 H357 0.930 . S
N353 Co348 2.057 . S
N353 C351 1.316 . S
N353 C352 1.375 . S
N354 C351 1.347 . S
N354 C355 1.373 . S
C355 C352 1.350 . S
C355 N354 1.373 . S
C355 H376 0.931 . S
H356 C351 0.931 . S
H357 C352 0.930 . S
C358 O365 1.259 . S
C358 O366 1.258 . S
N359 Co350 2.057 . S
N359 C360 1.316 . S
N359 C361 1.375 . S
C360 N359 1.316 . S
C360 N362 1.347 . S
C360 H371 0.931 . S
C361 N359 1.375 . S
C361 C363 1.350 . S
C361 H370 0.930 . S
N362 C360 1.347 . S
N362 C363 1.373 . S
C363 C361 1.350 . S
C363 N362 1.373 . S
C363 H377 0.931 . S
C364 O367 1.256 . S
C364 O368 1.255 . S
O365 Co348 2.021 . S
O365 C358 1.259 . S
O366 Co350 2.117 . S
O366 C358 1.258 . S
O367 Co350 2.020 . S
O367 C364 1.256 . S
O368 Co348 2.062 . S
O368 C364 1.255 . S
O369 C349 1.259 . S
O369 Co350 2.021 . S
H370 C361 0.930 . S
H371 C360 0.931 . S
O372 Co348 2.117 . S
O372 C349 1.258 . S
O373 Co348 2.020 . S
O373 C375 1.256 . S
O374 Co350 2.062 . S
O374 C375 1.255 . S
C375 O373 1.256 . S
C375 O374 1.255 . S
H376 C355 0.931 . S
H377 C363 0.931 . S
Co378 N383 2.057 . S
Co378 O395 2.021 . S
Co378 O398 2.062 . S
Co378 O402 2.117 1_455 S
Co378 O403 2.026 . S
C379 O399 1.259 1_556 S
C379 O402 1.258 . S
Co380 N389 2.057 . S
Co380 O396 2.117 1_655 S
Co380 O397 2.020 1_655 S
Co380 O399 2.021 . S
Co380 O404 2.062 . S
C381 N383 1.316 . S
C381 N384 1.347 . S
C381 H386 0.931 . S
C382 N383 1.375 1_655 S
C382 C385 1.350 1_655 S
C382 H387 0.930 . S
N383 Co378 2.057 . S
N383 C381 1.316 . S
N383 C382 1.375 1_455 S
N384 C381 1.347 . S
N384 C385 1.373 . S
C385 C382 1.350 1_455 S
C385 N384 1.373 . S
C385 H406 0.930 1_455 S
H386 C381 0.931 . S
H387 C382 0.930 . S
C388 O395 1.259 1_554 S
C388 O396 1.258 . S
N389 Co380 2.057 . S
N389 C390 1.316 . S
N389 C391 1.375 1_655 S
C390 N389 1.316 . S
C390 N392 1.347 . S
C390 H401 0.931 . S
C391 N389 1.375 1_455 S
C391 C393 1.350 1_455 S
C391 H400 0.930 . S
N392 C390 1.347 . S
N392 C393 1.373 . S
C393 C391 1.350 1_655 S
C393 N392 1.373 . S
C393 H407 0.931 1_655 S
C394 O397 1.256 . S
C394 O398 1.255 1_554 S
O395 Co378 2.021 . S
O395 C388 1.259 1_556 S
O396 Co380 2.117 1_455 S
O396 C388 1.258 . S
O397 Co380 2.020 1_455 S
O397 C394 1.256 . S
O398 Co378 2.062 . S
O398 C394 1.255 1_556 S
O399 C379 1.259 1_554 S
O399 Co380 2.021 . S
H400 C391 0.930 . S
H401 C390 0.931 . S
O402 Co378 2.117 1_655 S
O402 C379 1.258 . S
O403 Co378 2.026 . S
O403 C405 1.247 1_455 S
O404 Co380 2.062 . S
O404 C405 1.255 1_554 S
C405 O403 1.247 1_655 S
C405 O404 1.255 1_556 S
H406 C385 0.930 1_655 S
H407 C393 0.931 1_455 S
C408 C409 1.349 . S
C408 C410 1.327 . S
C408 H433 0.950 . S
C409 C408 1.349 . S
C409 C425 1.349 . S
C410 C408 1.327 . S
C410 C429 1.429 . S
C410 H434 0.950 . S
C411 C428 1.574 . S
C411 C430 1.368 . S
C411 H435 0.949 . S
H412 C416 0.949 . S
C413 C414 1.349 . S
C413 C415 1.327 . S
C413 H436 0.950 . S
C414 C413 1.349 . S
C414 C426 1.349 . S
C415 C413 1.327 . S
C415 C431 1.429 . S
C415 H437 0.950 . S
C416 H412 0.949 . S
C416 C424 1.574 . S
C416 C432 1.368 . S
H417 C425 0.950 . S
H418 C423 0.950 . S
H419 C424 0.949 . S
H420 C426 0.950 1_565 S
H421 C427 0.950 . S
H422 C428 0.949 . S
C423 H418 0.950 . S
C423 C425 1.327 . S
C423 C429 1.429 . S
C424 C416 1.574 . S
C424 H419 0.949 . S
C424 C430 1.368 . S
C425 C409 1.349 . S
C425 H417 0.950 . S
C425 C423 1.327 . S
C426 C414 1.349 . S
C426 H420 0.950 1_545 S
C426 C427 1.327 . S
C427 H421 0.950 . S
C427 C426 1.327 . S
C427 C431 1.429 . S
C428 C411 1.574 . S
C428 H422 0.949 . S
C428 C432 1.368 . S
C429 C410 1.429 . S
C429 C423 1.429 . S
C429 C430 1.523 . S
C430 C411 1.368 . S
C430 C424 1.368 . S
C430 C429 1.523 . S
C431 C415 1.429 . S
C431 C427 1.429 . S
C431 C432 1.523 . S
C432 C416 1.368 . S
C432 C428 1.368 . S
C432 C431 1.523 . S
H433 C408 0.950 . S
H434 C410 0.950 . S
H435 C411 0.949 . S
H436 C413 0.950 . S
H437 C415 0.950 . S
C438 C439 1.349 . S
C438 C440 1.327 . S
C438 H463 0.950 . S
C439 C438 1.349 . S
C439 C455 1.349 . S
C440 C438 1.327 . S
C440 C459 1.429 . S
C440 H464 0.950 . S
C441 C458 1.574 . S
C441 C460 1.368 . S
C441 H465 0.949 . S
H442 C446 0.949 . S
C443 C444 1.349 . S
C443 C445 1.327 . S
C443 H466 0.950 . S
C444 C443 1.349 . S
C444 C456 1.349 . S
C445 C443 1.327 . S
C445 C461 1.429 . S
C445 H467 0.950 . S
C446 H442 0.949 . S
C446 C454 1.574 . S
C446 C462 1.368 . S
H447 C455 0.950 . S
H448 C453 0.950 . S
H449 C454 0.949 . S
H450 C456 0.950 . S
H451 C457 0.950 . S
H452 C458 0.949 . S
C453 H448 0.950 . S
C453 C455 1.327 . S
C453 C459 1.429 . S
C454 C446 1.574 . S
C454 H449 0.949 . S
C454 C460 1.368 . S
C455 C439 1.349 . S
C455 H447 0.950 . S
C455 C453 1.327 . S
C456 C444 1.349 . S
C456 H450 0.950 . S
C456 C457 1.327 . S
C457 H451 0.950 . S
C457 C456 1.327 . S
C457 C461 1.429 . S
C458 C441 1.574 . S
C458 H452 0.949 . S
C458 C462 1.368 . S
C459 C440 1.429 . S
C459 C453 1.429 . S
C459 C460 1.523 . S
C460 C441 1.368 . S
C460 C454 1.368 . S
C460 C459 1.523 . S
C461 C445 1.429 . S
C461 C457 1.429 . S
C461 C462 1.523 . S
C462 C446 1.368 . S
C462 C458 1.368 . S
C462 C461 1.523 . S
H463 C438 0.950 . S
H464 C440 0.950 . S
H465 C441 0.949 . S
H466 C443 0.950 . S
H467 C445 0.950 . S
C468 C469 1.349 . S
C468 C470 1.327 . S
C468 H493 0.950 . S
C469 C468 1.349 . S
C469 C485 1.349 . S
C470 C468 1.327 . S
C470 C489 1.429 . S
C470 H494 0.950 . S
C471 C488 1.574 . S
C471 C490 1.368 . S
C471 H495 0.949 . S
H472 C476 0.949 . S
C473 C474 1.349 . S
C473 C475 1.327 . S
C473 H496 0.950 . S
C474 C473 1.349 . S
C474 C486 1.349 . S
C475 C473 1.327 . S
C475 C491 1.429 . S
C475 H497 0.950 . S
C476 H472 0.949 . S
C476 C484 1.574 . S
C476 C492 1.368 . S
H477 C485 0.950 . S
H478 C483 0.950 . S
H479 C484 0.949 . S
H480 C486 0.950 . S
H481 C487 0.950 . S
H482 C488 0.949 . S
C483 H478 0.950 . S
C483 C485 1.327 . S
C483 C489 1.429 . S
C484 C476 1.574 . S
C484 H479 0.949 . S
C484 C490 1.368 . S
C485 C469 1.349 . S
C485 H477 0.950 . S
C485 C483 1.327 . S
C486 C474 1.349 . S
C486 H480 0.950 . S
C486 C487 1.327 . S
C487 H481 0.950 . S
C487 C486 1.327 . S
C487 C491 1.429 . S
C488 C471 1.574 . S
C488 H482 0.949 . S
C488 C492 1.368 . S
C489 C470 1.429 . S
C489 C483 1.429 . S
C489 C490 1.523 . S
C490 C471 1.368 . S
C490 C484 1.368 . S
C490 C489 1.523 . S
C491 C475 1.429 . S
C491 C487 1.429 . S
C491 C492 1.523 . S
C492 C476 1.368 . S
C492 C488 1.368 . S
C492 C491 1.523 . S
H493 C468 0.950 . S
H494 C470 0.950 . S
H495 C471 0.949 . S
H496 C473 0.950 . S
H497 C475 0.950 . S
C498 C499 1.349 . S
C498 C500 1.327 . S
C498 H523 0.950 . S
C499 C498 1.349 . S
C499 C515 1.349 . S
C500 C498 1.327 . S
C500 C519 1.429 . S
C500 H524 0.950 . S
C501 C518 1.574 . S
C501 C520 1.368 . S
C501 H525 0.949 . S
H502 C506 0.949 . S
C503 C504 1.349 . S
C503 C505 1.327 . S
C503 H526 0.950 . S
C504 C503 1.349 . S
C504 C516 1.349 . S
C505 C503 1.327 . S
C505 C521 1.429 . S
C505 H527 0.950 . S
C506 H502 0.949 . S
C506 C514 1.574 . S
C506 C522 1.368 . S
H507 C515 0.950 . S
H508 C513 0.950 . S
H509 C514 0.949 . S
H510 C516 0.950 . S
H511 C517 0.950 . S
H512 C518 0.949 . S
C513 H508 0.950 . S
C513 C515 1.327 . S
C513 C519 1.429 . S
C514 C506 1.574 . S
C514 H509 0.949 . S
C514 C520 1.368 . S
C515 C499 1.349 . S
C515 H507 0.950 . S
C515 C513 1.327 . S
C516 C504 1.349 . S
C516 H510 0.950 . S
C516 C517 1.327 . S
C517 H511 0.950 . S
C517 C516 1.327 . S
C517 C521 1.429 . S
C518 C501 1.574 . S
C518 H512 0.949 . S
C518 C522 1.368 . S
C519 C500 1.429 . S
C519 C513 1.429 . S
C519 C520 1.523 . S
C520 C501 1.368 . S
C520 C514 1.368 . S
C520 C519 1.523 . S
C521 C505 1.429 . S
C521 C517 1.429 . S
C521 C522 1.523 . S
C522 C506 1.368 . S
C522 C518 1.368 . S
C522 C521 1.523 . S
H523 C498 0.950 . S
H524 C500 0.950 . S
H525 C501 0.949 . S
H526 C503 0.950 . S
H527 C505 0.950 . S
C528 C529 1.349 . S
C528 C530 1.327 . S
C528 H553 0.950 . S
C529 C528 1.349 . S
C529 C545 1.349 . S
C530 C528 1.327 . S
C530 C549 1.429 . S
C530 H554 0.950 . S
C531 C548 1.574 . S
C531 C550 1.368 . S
C531 H555 0.949 . S
H532 C536 0.949 . S
C533 C534 1.349 . S
C533 C535 1.327 . S
C533 H556 0.950 1_554 S
C534 C533 1.349 . S
C534 C546 1.349 . S
C535 C533 1.327 . S
C535 C551 1.429 . S
C535 H557 0.950 . S
C536 H532 0.949 . S
C536 C544 1.574 . S
C536 C552 1.368 . S
H537 C545 0.950 . S
H538 C543 0.950 . S
H539 C544 0.949 . S
H540 C546 0.950 . S
H541 C547 0.950 . S
H542 C548 0.949 . S
C543 H538 0.950 . S
C543 C545 1.327 . S
C543 C549 1.429 . S
C544 C536 1.574 . S
C544 H539 0.949 . S
C544 C550 1.368 . S
C545 C529 1.349 . S
C545 H537 0.950 . S
C545 C543 1.327 . S
C546 C534 1.349 . S
C546 H540 0.950 . S
C546 C547 1.327 . S
C547 H541 0.950 . S
C547 C546 1.327 . S
C547 C551 1.429 . S
C548 C531 1.574 . S
C548 H542 0.949 . S
C548 C552 1.368 . S
C549 C530 1.429 . S
C549 C543 1.429 . S
C549 C550 1.523 . S
C550 C531 1.368 . S
C550 C544 1.368 . S
C550 C549 1.523 . S
C551 C535 1.429 . S
C551 C547 1.429 . S
C551 C552 1.523 . S
C552 C536 1.368 . S
C552 C548 1.368 . S
C552 C551 1.523 . S
H553 C528 0.950 . S
H554 C530 0.950 . S
H555 C531 0.949 . S
H556 C533 0.950 1_556 S
H557 C535 0.950 . S
C558 C559 1.349 . S
C558 C560 1.327 . S
C558 H583 0.950 . S
C559 C558 1.349 . S
C559 C575 1.349 . S
C560 C558 1.327 . S
C560 C579 1.429 . S
C560 H584 0.950 . S
C561 C578 1.574 . S
C561 C580 1.368 . S
C561 H585 0.949 . S
H562 C566 0.949 . S
C563 C564 1.349 . S
C563 C565 1.327 . S
C563 H586 0.950 . S
C564 C563 1.349 . S
C564 C576 1.349 . S
C565 C563 1.327 . S
C565 C581 1.429 . S
C565 H587 0.950 . S
C566 H562 0.949 . S
C566 C574 1.574 . S
C566 C582 1.368 . S
H567 C575 0.950 . S
H568 C573 0.950 . S
H569 C574 0.949 . S
H570 C576 0.950 . S
H571 C577 0.950 . S
H572 C578 0.949 . S
C573 H568 0.950 . S
C573 C575 1.327 . S
C573 C579 1.429 . S
C574 C566 1.574 . S
C574 H569 0.949 . S
C574 C580 1.368 . S
C575 C559 1.349 . S
C575 H567 0.950 . S
C575 C573 1.327 . S
C576 C564 1.349 . S
C576 H570 0.950 . S
C576 C577 1.327 . S
C577 H571 0.950 . S
C577 C576 1.327 . S
C577 C581 1.429 . S
C578 C561 1.574 . S
C578 H572 0.949 . S
C578 C582 1.368 . S
C579 C560 1.429 . S
C579 C573 1.429 . S
C579 C580 1.523 . S
C580 C561 1.368 . S
C580 C574 1.368 . S
C580 C579 1.523 . S
C581 C565 1.429 . S
C581 C577 1.429 . S
C581 C582 1.523 . S
C582 C566 1.368 . S
C582 C578 1.368 . S
C582 C581 1.523 . S
H583 C558 0.950 . S
H584 C560 0.950 . S
H585 C561 0.949 . S
H586 C563 0.950 . S
H587 C565 0.950 . S
C588 C589 1.349 . S
C588 C590 1.327 . S
C588 H613 0.950 . S
C589 C588 1.349 . S
C589 C605 1.349 . S
C590 C588 1.327 . S
C590 C609 1.429 . S
C590 H614 0.950 . S
C591 C608 1.574 . S
C591 C610 1.368 . S
C591 H615 0.949 . S
H592 C596 0.949 . S
C593 C594 1.349 . S
C593 C595 1.327 . S
C593 H616 0.950 . S
C594 C593 1.349 . S
C594 C606 1.349 . S
C595 C593 1.327 . S
C595 C611 1.429 . S
C595 H617 0.950 . S
C596 H592 0.949 . S
C596 C604 1.574 . S
C596 C612 1.368 . S
H597 C605 0.950 . S
H598 C603 0.950 . S
H599 C604 0.949 . S
H600 C606 0.950 . S
H601 C607 0.950 . S
H602 C608 0.949 . S
C603 H598 0.950 . S
C603 C605 1.327 . S
C603 C609 1.429 . S
C604 C596 1.574 . S
C604 H599 0.949 . S
C604 C610 1.368 . S
C605 C589 1.349 . S
C605 H597 0.950 . S
C605 C603 1.327 . S
C606 C594 1.349 . S
C606 H600 0.950 . S
C606 C607 1.327 . S
C607 H601 0.950 . S
C607 C606 1.327 . S
C607 C611 1.429 . S
C608 C591 1.574 . S
C608 H602 0.949 . S
C608 C612 1.368 . S
C609 C590 1.429 . S
C609 C603 1.429 . S
C609 C610 1.523 . S
C610 C591 1.368 . S
C610 C604 1.368 . S
C610 C609 1.523 . S
C611 C595 1.429 . S
C611 C607 1.429 . S
C611 C612 1.523 . S
C612 C596 1.368 . S
C612 C608 1.368 . S
C612 C611 1.523 . S
H613 C588 0.950 . S
H614 C590 0.950 . S
H615 C591 0.949 . S
H616 C593 0.950 . S
H617 C595 0.950 . S
C618 C619 1.349 . S
C618 C620 1.327 . S
C618 H643 0.950 . S
C619 C618 1.349 . S
C619 C635 1.349 . S
C620 C618 1.327 . S
C620 C639 1.429 . S
C620 H644 0.950 . S
C621 C638 1.574 . S
C621 C640 1.368 . S
C621 H645 0.949 . S
H622 C626 0.949 . S
C623 C624 1.349 . S
C623 C625 1.327 . S
C623 H646 0.950 . S
C624 C623 1.349 . S
C624 C636 1.349 . S
C625 C623 1.327 . S
C625 C641 1.429 . S
C625 H647 0.950 . S
C626 H622 0.949 . S
C626 C634 1.574 . S
C626 C642 1.368 . S
H627 C635 0.950 . S
H628 C633 0.950 . S
H629 C634 0.949 . S
H630 C636 0.950 . S
H631 C637 0.950 . S
H632 C638 0.949 . S
C633 H628 0.950 . S
C633 C635 1.327 . S
C633 C639 1.429 . S
C634 C626 1.574 . S
C634 H629 0.949 . S
C634 C640 1.368 . S
C635 C619 1.349 . S
C635 H627 0.950 . S
C635 C633 1.327 . S
C636 C624 1.349 . S
C636 H630 0.950 . S
C636 C637 1.327 . S
C637 H631 0.950 . S
C637 C636 1.327 . S
C637 C641 1.429 . S
C638 C621 1.574 . S
C638 H632 0.949 . S
C638 C642 1.368 . S
C639 C620 1.429 . S
C639 C633 1.429 . S
C639 C640 1.523 . S
C640 C621 1.368 . S
C640 C634 1.368 . S
C640 C639 1.523 . S
C641 C625 1.429 . S
C641 C637 1.429 . S
C641 C642 1.523 . S
C642 C626 1.368 . S
C642 C638 1.368 . S
C642 C641 1.523 . S
H643 C618 0.950 . S
H644 C620 0.950 . S
H645 C621 0.949 . S
H646 C623 0.950 . S
H647 C625 0.950 . S
C648 C649 1.349 . S
C648 C650 1.327 . S
C648 H673 0.950 . S
C649 C648 1.349 . S
C649 C665 1.349 . S
C650 C648 1.327 . S
C650 C669 1.429 . S
C650 H674 0.950 . S
C651 C668 1.574 . S
C651 C670 1.368 . S
C651 H675 0.949 . S
H652 C656 0.949 . S
C653 C654 1.349 . S
C653 C655 1.327 . S
C653 H676 0.950 . S
C654 C653 1.349 . S
C654 C666 1.349 . S
C655 C653 1.327 . S
C655 C671 1.429 . S
C655 H677 0.950 . S
C656 H652 0.949 . S
C656 C664 1.574 . S
C656 C672 1.368 . S
H657 C665 0.950 . S
H658 C663 0.950 . S
H659 C664 0.949 . S
H660 C666 0.950 1_556 S
H661 C667 0.950 . S
H662 C668 0.949 . S
C663 H658 0.950 . S
C663 C665 1.327 . S
C663 C669 1.429 . S
C664 C656 1.574 . S
C664 H659 0.949 . S
C664 C670 1.368 . S
C665 C649 1.349 . S
C665 H657 0.950 . S
C665 C663 1.327 . S
C666 C654 1.349 . S
C666 H660 0.950 1_554 S
C666 C667 1.327 . S
C667 H661 0.950 . S
C667 C666 1.327 . S
C667 C671 1.429 . S
C668 C651 1.574 . S
C668 H662 0.949 . S
C668 C672 1.368 . S
C669 C650 1.429 . S
C669 C663 1.429 . S
C669 C670 1.523 . S
C670 C651 1.368 . S
C670 C664 1.368 . S
C670 C669 1.523 . S
C671 C655 1.429 . S
C671 C667 1.429 . S
C671 C672 1.523 . S
C672 C656 1.368 . S
C672 C668 1.368 . S
C672 C671 1.523 . S
H673 C648 0.950 . S
H674 C650 0.950 . S
H675 C651 0.949 . S
H676 C653 0.950 . S
H677 C655 0.950 . S
C678 C679 1.349 . S
C678 C680 1.327 . S
C678 H703 0.950 . S
C679 C678 1.349 . S
C679 C695 1.349 . S
C680 C678 1.327 . S
C680 C699 1.429 . S
C680 H704 0.950 . S
C681 C698 1.574 . S
C681 C700 1.368 . S
C681 H705 0.949 . S
H682 C686 0.949 . S
C683 C684 1.349 . S
C683 C685 1.327 . S
C683 H706 0.950 . S
C684 C683 1.349 . S
C684 C696 1.349 . S
C685 C683 1.327 . S
C685 C701 1.429 . S
C685 H707 0.950 . S
C686 H682 0.949 . S
C686 C694 1.574 . S
C686 C702 1.368 . S
H687 C695 0.950 . S
H688 C693 0.950 . S
H689 C694 0.949 . S
H690 C696 0.950 . S
H691 C697 0.950 . S
H692 C698 0.949 . S
C693 H688 0.950 . S
C693 C695 1.327 . S
C693 C699 1.429 . S
C694 C686 1.574 . S
C694 H689 0.949 . S
C694 C700 1.368 . S
C695 C679 1.349 . S
C695 H687 0.950 . S
C695 C693 1.327 . S
C696 C684 1.349 . S
C696 H690 0.950 . S
C696 C697 1.327 . S
C697 H691 0.950 . S
C697 C696 1.327 . S
C697 C701 1.429 . S
C698 C681 1.574 . S
C698 H692 0.949 . S
C698 C702 1.368 . S
C699 C680 1.429 . S
C699 C693 1.429 . S
C699 C700 1.523 . S
C700 C681 1.368 . S
C700 C694 1.368 . S
C700 C699 1.523 . S
C701 C685 1.429 . S
C701 C697 1.429 . S
C701 C702 1.523 . S
C702 C686 1.368 . S
C702 C698 1.368 . S
C702 C701 1.523 . S
H703 C678 0.950 . S
H704 C680 0.950 . S
H705 C681 0.949 . S
H706 C683 0.950 . S
H707 C685 0.950 . S
C708 C709 1.349 . S
C708 C710 1.327 . S
C708 H733 0.950 . S
C709 C708 1.349 . S
C709 C725 1.349 . S
C710 C708 1.327 . S
C710 C729 1.429 . S
C710 H734 0.950 . S
C711 C728 1.574 . S
C711 C730 1.368 . S
C711 H735 0.949 . S
H712 C716 0.949 . S
C713 C714 1.349 . S
C713 C715 1.327 . S
C713 H736 0.950 . S
C714 C713 1.349 . S
C714 C726 1.349 . S
C715 C713 1.327 . S
C715 C731 1.429 . S
C715 H737 0.950 . S
C716 H712 0.949 . S
C716 C724 1.574 . S
C716 C732 1.368 . S
H717 C725 0.950 . S
H718 C723 0.950 . S
H719 C724 0.949 . S
H720 C726 0.950 . S
H721 C727 0.950 . S
H722 C728 0.949 . S
C723 H718 0.950 . S
C723 C725 1.327 . S
C723 C729 1.429 . S
C724 C716 1.574 . S
C724 H719 0.949 . S
C724 C730 1.368 . S
C725 C709 1.349 . S
C725 H717 0.950 . S
C725 C723 1.327 . S
C726 C714 1.349 . S
C726 H720 0.950 . S
C726 C727 1.327 . S
C727 H721 0.950 . S
C727 C726 1.327 . S
C727 C731 1.429 . S
C728 C711 1.574 . S
C728 H722 0.949 . S
C728 C732 1.368 . S
C729 C710 1.429 . S
C729 C723 1.429 . S
C729 C730 1.523 . S
C730 C711 1.368 . S
C730 C724 1.368 . S
C730 C729 1.523 . S
C731 C715 1.429 . S
C731 C727 1.429 . S
C731 C732 1.523 . S
C732 C716 1.368 . S
C732 C728 1.368 . S
C732 C731 1.523 . S
H733 C708 0.950 . S
H734 C710 0.950 . S
H735 C711 0.949 . S
H736 C713 0.950 . S
H737 C715 0.950 . S
C738 C739 1.349 . S
C738 C740 1.327 . S
C738 H763 0.950 . S
C739 C738 1.349 . S
C739 C755 1.349 . S
C740 C738 1.327 . S
C740 C759 1.429 . S
C740 H764 0.950 . S
C741 C758 1.574 . S
C741 C760 1.368 . S
C741 H765 0.949 . S
H742 C746 0.949 . S
C743 C744 1.349 . S
C743 C745 1.327 . S
C743 H766 0.950 . S
C744 C743 1.349 . S
C744 C756 1.349 . S
C745 C743 1.327 . S
C745 C761 1.429 . S
C745 H767 0.950 . S
C746 H742 0.949 . S
C746 C754 1.574 . S
C746 C762 1.368 . S
H747 C755 0.950 . S
H748 C753 0.950 . S
H749 C754 0.949 . S
H750 C756 0.950 . S
H751 C757 0.950 . S
H752 C758 0.949 . S
C753 H748 0.950 . S
C753 C755 1.327 . S
C753 C759 1.429 . S
C754 C746 1.574 . S
C754 H749 0.949 . S
C754 C760 1.368 . S
C755 C739 1.349 . S
C755 H747 0.950 . S
C755 C753 1.327 . S
C756 C744 1.349 . S
C756 H750 0.950 . S
C756 C757 1.327 . S
C757 H751 0.950 . S
C757 C756 1.327 . S
C757 C761 1.429 . S
C758 C741 1.574 . S
C758 H752 0.949 . S
C758 C762 1.368 . S
C759 C740 1.429 . S
C759 C753 1.429 . S
C759 C760 1.523 . S
C760 C741 1.368 . S
C760 C754 1.368 . S
C760 C759 1.523 . S
C761 C745 1.429 . S
C761 C757 1.429 . S
C761 C762 1.523 . S
C762 C746 1.368 . S
C762 C758 1.368 . S
C762 C761 1.523 . S
H763 C738 0.950 . S
H764 C740 0.950 . S
H765 C741 0.949 . S
H766 C743 0.950 . S
H767 C745 0.950 . S
C768 C769 1.349 . S
C768 C770 1.327 . S
C768 H793 0.950 . S
C769 C768 1.349 . S
C769 C785 1.349 . S
C770 C768 1.327 . S
C770 C789 1.429 . S
C770 H794 0.950 . S
C771 C788 1.574 . S
C771 C790 1.368 . S
C771 H795 0.949 . S
H772 C776 0.949 . S
C773 C774 1.349 . S
C773 C775 1.327 . S
C773 H796 0.977 1_565 S
C774 C773 1.349 . S
C774 C786 1.349 . S
C775 C773 1.327 . S
C775 C791 1.429 . S
C775 H797 0.950 . S
C776 H772 0.949 . S
C776 C784 1.574 . S
C776 C792 1.368 . S
H777 C785 0.950 . S
H778 C783 0.950 . S
H779 C784 0.949 . S
H780 C786 0.950 . S
H781 C787 0.950 . S
H782 C788 0.949 . S
C783 H778 0.950 . S
C783 C785 1.327 . S
C783 C789 1.429 . S
C784 C776 1.574 . S
C784 H779 0.949 . S
C784 C790 1.368 . S
C785 C769 1.349 . S
C785 H777 0.950 . S
C785 C783 1.327 . S
C786 C774 1.349 . S
C786 H780 0.950 . S
C786 C787 1.327 . S
C787 H781 0.950 . S
C787 C786 1.327 . S
C787 C791 1.429 . S
C788 C771 1.574 . S
C788 H782 0.949 . S
C788 C792 1.368 . S
C789 C770 1.429 . S
C789 C783 1.429 . S
C789 C790 1.523 . S
C790 C771 1.368 . S
C790 C784 1.368 . S
C790 C789 1.523 . S
C791 C775 1.429 . S
C791 C787 1.429 . S
C791 C792 1.523 . S
C792 C776 1.368 . S
C792 C788 1.368 . S
C792 C791 1.523 . S
H793 C768 0.950 . S
H794 C770 0.950 . S
H795 C771 0.949 . S
H796 C773 0.977 1_545 S
H797 C775 0.950 . S
C798 C799 1.349 . S
C798 C800 1.327 . S
C798 H823 0.950 . S
C799 C798 1.349 . S
C799 C815 1.349 . S
C800 C798 1.327 . S
C800 C819 1.429 . S
C800 H824 0.950 . S
C801 C818 1.574 . S
C801 C820 1.368 . S
C801 H825 0.949 . S
H802 C806 0.949 . S
C803 C804 1.349 . S
C803 C805 1.327 . S
C803 H826 0.950 . S
C804 C803 1.349 . S
C804 C816 1.349 . S
C805 C803 1.327 . S
C805 C821 1.429 . S
C805 H827 0.950 . S
C806 H802 0.949 . S
C806 C814 1.574 . S
C806 C822 1.368 . S
H807 C815 0.950 . S
H808 C813 0.950 . S
H809 C814 0.949 . S
H810 C816 0.950 . S
H811 C817 0.950 . S
H812 C818 0.949 . S
C813 H808 0.950 . S
C813 C815 1.327 . S
C813 C819 1.429 . S
C814 C806 1.574 . S
C814 H809 0.949 . S
C814 C820 1.368 . S
C815 C799 1.349 . S
C815 H807 0.950 . S
C815 C813 1.327 . S
C816 C804 1.349 . S
C816 H810 0.950 . S
C816 C817 1.327 . S
C817 H811 0.950 . S
C817 C816 1.327 . S
C817 C821 1.429 . S
C818 C801 1.574 . S
C818 H812 0.949 . S
C818 C822 1.368 . S
C819 C800 1.429 . S
C819 C813 1.429 . S
C819 C820 1.523 . S
C820 C801 1.368 . S
C820 C814 1.368 . S
C820 C819 1.523 . S
C821 C805 1.429 . S
C821 C817 1.429 . S
C821 C822 1.523 . S
C822 C806 1.368 . S
C822 C818 1.368 . S
C822 C821 1.523 . S
H823 C798 0.950 . S
H824 C800 0.950 . S
H825 C801 0.949 . S
H826 C803 0.950 . S
H827 C805 0.950 . S
C828 C829 1.349 . S
C828 C830 1.327 . S
C828 H853 0.950 . S
C829 C828 1.349 . S
C829 C845 1.349 . S
C830 C828 1.327 . S
C830 C849 1.429 . S
C830 H854 0.950 . S
C831 C848 1.574 . S
C831 C850 1.368 . S
C831 H855 0.949 . S
H832 C836 0.949 . S
C833 C834 1.349 . S
C833 C835 1.327 . S
C833 H856 0.950 . S
C834 C833 1.349 . S
C834 C846 1.349 . S
C835 C833 1.327 . S
C835 C851 1.429 . S
C835 H857 0.950 . S
C836 H832 0.949 . S
C836 C844 1.574 . S
C836 C852 1.368 . S
H837 C845 0.950 . S
H838 C843 0.950 . S
H839 C844 0.949 . S
H840 C846 0.950 . S
H841 C847 0.950 . S
H842 C848 0.949 . S
C843 H838 0.950 . S
C843 C845 1.327 . S
C843 C849 1.429 . S
C844 C836 1.574 . S
C844 H839 0.949 . S
C844 C850 1.368 . S
C845 C829 1.349 . S
C845 H837 0.950 . S
C845 C843 1.327 . S
C846 C834 1.349 . S
C846 H840 0.950 . S
C846 C847 1.327 . S
C847 H841 0.950 . S
C847 C846 1.327 . S
C847 C851 1.429 . S
C848 C831 1.574 . S
C848 H842 0.949 . S
C848 C852 1.368 . S
C849 C830 1.429 . S
C849 C843 1.429 . S
C849 C850 1.523 . S
C850 C831 1.368 . S
C850 C844 1.368 . S
C850 C849 1.523 . S
C851 C835 1.429 . S
C851 C847 1.429 . S
C851 C852 1.523 . S
C852 C836 1.368 . S
C852 C848 1.368 . S
C852 C851 1.523 . S
H853 C828 0.950 . S
H854 C830 0.950 . S
H855 C831 0.949 . S
H856 C833 0.950 . S
H857 C835 0.950 . S
C858 C859 1.349 . S
C858 C860 1.327 . S
C858 H883 0.950 . S
C859 C858 1.349 . S
C859 C875 1.349 . S
C860 C858 1.327 . S
C860 C879 1.429 . S
C860 H884 0.950 . S
C861 C878 1.574 . S
C861 C880 1.368 . S
C861 H885 0.949 . S
H862 C866 0.949 . S
C863 C864 1.349 . S
C863 C865 1.327 . S
C863 H886 0.950 . S
C864 C863 1.349 . S
C864 C876 1.349 . S
C865 C863 1.327 . S
C865 C881 1.429 . S
C865 H887 0.950 . S
C866 H862 0.949 . S
C866 C874 1.574 . S
C866 C882 1.368 . S
H867 C875 0.950 . S
H868 C873 0.950 . S
H869 C874 0.949 . S
H870 C876 0.950 . S
H871 C877 0.950 . S
H872 C878 0.949 . S
C873 H868 0.950 . S
C873 C875 1.327 . S
C873 C879 1.429 . S
C874 C866 1.574 . S
C874 H869 0.949 . S
C874 C880 1.368 . S
C875 C859 1.349 . S
C875 H867 0.950 . S
C875 C873 1.327 . S
C876 C864 1.349 . S
C876 H870 0.950 . S
C876 C877 1.327 . S
C877 H871 0.950 . S
C877 C876 1.327 . S
C877 C881 1.429 . S
C878 C861 1.574 . S
C878 H872 0.949 . S
C878 C882 1.368 . S
C879 C860 1.429 . S
C879 C873 1.429 . S
C879 C880 1.523 . S
C880 C861 1.368 . S
C880 C874 1.368 . S
C880 C879 1.523 . S
C881 C865 1.429 . S
C881 C877 1.429 . S
C881 C882 1.523 . S
C882 C866 1.368 . S
C882 C878 1.368 . S
C882 C881 1.523 . S
H883 C858 0.950 . S
H884 C860 0.950 . S
H885 C861 0.949 . S
H886 C863 0.950 . S
H887 C865 0.950 . S
C888 C889 1.349 . S
C888 C890 1.327 . S
C888 H913 0.950 . S
C889 C888 1.349 . S
C889 C905 1.349 . S
C890 C888 1.327 . S
C890 C909 1.429 . S
C890 H914 0.950 . S
C891 C908 1.574 . S
C891 C910 1.368 . S
C891 H915 0.949 . S
H892 C896 0.949 . S
C893 C894 1.349 . S
C893 C895 1.327 . S
C893 H916 0.950 . S
C894 C893 1.349 . S
C894 C906 1.349 . S
C895 C893 1.327 . S
C895 C911 1.429 . S
C895 H917 0.950 . S
C896 H892 0.949 . S
C896 C904 1.574 . S
C896 C912 1.368 . S
H897 C905 0.950 . S
H898 C903 0.950 . S
H899 C904 0.949 . S
H900 C906 0.950 1_554 S
H901 C907 0.967 . S
H902 C908 0.949 . S
C903 H898 0.950 . S
C903 C905 1.327 . S
C903 C909 1.429 . S
C904 C896 1.574 . S
C904 H899 0.949 . S
C904 C910 1.368 . S
C905 C889 1.349 . S
C905 H897 0.950 . S
C905 C903 1.327 . S
C906 C894 1.349 . S
C906 H900 0.950 1_556 S
C906 C907 1.327 . S
C907 H901 0.967 . S
C907 C906 1.327 . S
C907 C911 1.429 . S
C908 C891 1.574 . S
C908 H902 0.949 . S
C908 C912 1.368 . S
C909 C890 1.429 . S
C909 C903 1.429 . S
C909 C910 1.523 . S
C910 C891 1.368 . S
C910 C904 1.368 . S
C910 C909 1.523 . S
C911 C895 1.429 . S
C911 C907 1.429 . S
C911 C912 1.523 . S
C912 C896 1.368 . S
C912 C908 1.368 . S
C912 C911 1.523 . S
H913 C888 0.950 . S
H914 C890 0.950 . S
H915 C891 0.949 . S
H916 C893 0.950 . S
H917 C895 0.950 . S
C918 C919 1.349 . S
C918 C920 1.327 . S
C918 H943 0.950 . S
C919 C918 1.349 . S
C919 C935 1.349 . S
C920 C918 1.327 . S
C920 C939 1.429 . S
C920 H944 0.950 . S
C921 C938 1.574 . S
C921 C940 1.368 . S
C921 H945 0.949 . S
H922 C926 0.949 . S
C923 C924 1.349 . S
C923 C925 1.327 . S
C923 H946 0.950 . S
C924 C923 1.349 . S
C924 C936 1.349 . S
C925 C923 1.327 . S
C925 C941 1.429 . S
C925 H947 0.950 . S
C926 H922 0.949 . S
C926 C934 1.574 . S
C926 C942 1.368 . S
H927 C935 0.950 . S
H928 C933 0.950 . S
H929 C934 0.949 . S
H930 C936 0.950 . S
H931 C937 0.950 . S
H932 C938 0.949 . S
C933 H928 0.950 . S
C933 C935 1.327 . S
C933 C939 1.429 . S
C934 C926 1.574 . S
C934 H929 0.949 . S
C934 C940 1.368 . S
C935 C919 1.349 . S
C935 H927 0.950 . S
C935 C933 1.327 . S
C936 C924 1.349 . S
C936 H930 0.950 . S
C936 C937 1.327 . S
C937 H931 0.950 . S
C937 C936 1.327 . S
C937 C941 1.429 . S
C938 C921 1.574 . S
C938 H932 0.949 . S
C938 C942 1.368 . S
C939 C920 1.429 . S
C939 C933 1.429 . S
C939 C940 1.523 . S
C940 C921 1.368 . S
C940 C934 1.368 . S
C940 C939 1.523 . S
C941 C925 1.429 . S
C941 C937 1.429 . S
C941 C942 1.523 . S
C942 C926 1.368 . S
C942 C938 1.368 . S
C942 C941 1.523 . S
H943 C918 0.950 . S
H944 C920 0.950 . S
H945 C921 0.949 . S
H946 C923 0.950 . S
H947 C925 0.950 . S
C948 C949 1.349 . S
C948 C950 1.327 . S
C948 H973 0.950 . S
C949 C948 1.349 . S
C949 C965 1.349 . S
C950 C948 1.327 . S
C950 C969 1.429 . S
C950 H974 0.950 . S
C951 C968 1.574 . S
C951 C970 1.368 . S
C951 H975 0.949 . S
H952 C956 0.949 . S
C953 C954 1.349 . S
C953 C955 1.327 . S
C953 H976 0.950 . S
C954 C953 1.349 . S
C954 C966 1.349 . S
C955 C953 1.327 . S
C955 C971 1.429 . S
C955 H977 0.950 . S
C956 H952 0.949 . S
C956 C964 1.574 . S
C956 C972 1.368 . S
H957 C965 0.950 . S
H958 C963 0.950 . S
H959 C964 0.949 . S
H960 C966 0.950 1_556 S
H961 C967 0.926 1_556 S
H962 C968 0.949 . S
C963 H958 0.950 . S
C963 C965 1.327 . S
C963 C969 1.429 . S
C964 C956 1.574 . S
C964 H959 0.949 . S
C964 C970 1.368 . S
C965 C949 1.349 . S
C965 H957 0.950 . S
C965 C963 1.327 . S
C966 C954 1.349 . S
C966 H960 0.950 1_554 S
C966 C967 1.327 . S
C967 H961 0.926 1_554 S
C967 C966 1.327 . S
C967 C971 1.429 . S
C968 C951 1.574 . S
C968 H962 0.949 . S
C968 C972 1.368 . S
C969 C950 1.429 . S
C969 C963 1.429 . S
C969 C970 1.523 . S
C970 C951 1.368 . S
C970 C964 1.368 . S
C970 C969 1.523 . S
C971 C955 1.429 . S
C971 C967 1.429 . S
C971 C972 1.523 . S
C972 C956 1.368 . S
C972 C968 1.368 . S
C972 C971 1.523 . S
H973 C948 0.950 . S
H974 C950 0.950 . S
H975 C951 0.949 . S
H976 C953 0.950 . S
H977 C955 0.950 . S
C978 C979 1.349 . S
C978 C980 1.327 . S
C978 H1003 0.950 . S
C979 C978 1.349 . S
C979 C995 1.349 . S
C980 C978 1.327 . S
C980 C999 1.429 . S
C980 H1004 0.950 . S
C981 C998 1.574 . S
C981 C1000 1.368 . S
C981 H1005 0.949 . S
H982 C986 0.949 . S
C983 C984 1.349 . S
C983 C985 1.327 . S
C983 H1006 0.950 . S
C984 C983 1.349 . S
C984 C996 1.349 . S
C985 C983 1.327 . S
C985 C1001 1.429 . S
C985 H1007 0.950 . S
C986 H982 0.949 . S
C986 C994 1.574 . S
C986 C1002 1.368 . S
H987 C995 0.950 . S
H988 C993 0.950 . S
H989 C994 0.949 . S
H990 C996 0.950 . S
H991 C997 0.950 . S
H992 C998 0.949 . S
C993 H988 0.950 . S
C993 C995 1.327 . S
C993 C999 1.429 . S
C994 C986 1.574 . S
C994 H989 0.949 . S
C994 C1000 1.368 . S
C995 C979 1.349 . S
C995 H987 0.950 . S
C995 C993 1.327 . S
C996 C984 1.349 . S
C996 H990 0.950 . S
C996 C997 1.327 . S
C997 H991 0.950 . S
C997 C996 1.327 . S
C997 C1001 1.429 . S
C998 C981 1.574 . S
C998 H992 0.949 . S
C998 C1002 1.368 . S
C999 C980 1.429 . S
C999 C993 1.429 . S
C999 C1000 1.523 . S
C1000 C981 1.368 . S
C1000 C994 1.368 . S
C1000 C999 1.523 . S
C1001 C985 1.429 . S
C1001 C997 1.429 . S
C1001 C1002 1.523 . S
C1002 C986 1.368 . S
C1002 C998 1.368 . S
C1002 C1001 1.523 . S
H1003 C978 0.950 . S
H1004 C980 0.950 . S
H1005 C981 0.949 . S
H1006 C983 0.950 . S
H1007 C985 0.950 . S
C1008 C1009 1.349 . S
C1008 C1010 1.327 . S
C1008 H1033 0.950 . S
C1009 C1008 1.349 . S
C1009 C1025 1.349 . S
C1010 C1008 1.327 . S
C1010 C1029 1.429 . S
C1010 H1034 0.950 . S
C1011 C1028 1.574 . S
C1011 C1030 1.368 . S
C1011 H1035 0.949 . S
H1012 C1016 0.949 . S
C1013 C1014 1.349 . S
C1013 C1015 1.327 . S
C1013 H1036 0.971 . S
C1014 C1013 1.349 . S
C1014 C1026 1.349 . S
C1015 C1013 1.327 . S
C1015 C1031 1.429 . S
C1015 H1037 0.950 . S
C1016 H1012 0.949 . S
C1016 C1024 1.574 . S
C1016 C1032 1.368 . S
H1017 C1025 0.950 . S
H1018 C1023 0.950 . S
H1019 C1024 0.949 . S
H1020 C1026 0.950 1_554 S
H1021 C1027 0.949 1_554 S
H1022 C1028 0.949 . S
C1023 H1018 0.950 . S
C1023 C1025 1.327 . S
C1023 C1029 1.429 . S
C1024 C1016 1.574 . S
C1024 H1019 0.949 . S
C1024 C1030 1.368 . S
C1025 C1009 1.349 . S
C1025 H1017 0.950 . S
C1025 C1023 1.327 . S
C1026 C1014 1.349 . S
C1026 H1020 0.950 1_556 S
C1026 C1027 1.327 . S
C1027 H1021 0.949 1_556 S
C1027 C1026 1.327 . S
C1027 C1031 1.429 . S
C1028 C1011 1.574 . S
C1028 H1022 0.949 . S
C1028 C1032 1.368 . S
C1029 C1010 1.429 . S
C1029 C1023 1.429 . S
C1029 C1030 1.523 . S
C1030 C1011 1.368 . S
C1030 C1024 1.368 . S
C1030 C1029 1.523 . S
C1031 C1015 1.429 . S
C1031 C1027 1.429 . S
C1031 C1032 1.523 . S
C1032 C1016 1.368 . S
C1032 C1028 1.368 . S
C1032 C1031 1.523 . S
H1033 C1008 0.950 . S
H1034 C1010 0.950 . S
H1035 C1011 0.949 . S
H1036 C1013 0.971 . S
H1037 C1015 0.950 . S
C1038 C1039 1.349 . S
C1038 C1040 1.327 . S
C1038 H1063 0.950 . S
C1039 C1038 1.349 . S
C1039 C1055 1.349 . S
C1040 C1038 1.327 . S
C1040 C1059 1.429 . S
C1040 H1064 0.950 . S
C1041 C1058 1.574 . S
C1041 C1060 1.368 . S
C1041 H1065 0.949 . S
H1042 C1046 0.949 . S
C1043 C1044 1.349 . S
C1043 C1045 1.327 . S
C1043 H1066 0.950 . S
C1044 C1043 1.349 . S
C1044 C1056 1.349 . S
C1045 C1043 1.327 . S
C1045 C1061 1.429 . S
C1045 H1067 0.950 . S
C1046 H1042 0.949 . S
C1046 C1054 1.574 . S
C1046 C1062 1.368 . S
H1047 C1055 0.950 . S
H1048 C1053 0.950 . S
H1049 C1054 0.949 . S
H1050 C1056 0.950 1_556 S
H1051 C1057 0.950 . S
H1052 C1058 0.949 . S
C1053 H1048 0.950 . S
C1053 C1055 1.327 . S
C1053 C1059 1.429 . S
C1054 C1046 1.574 . S
C1054 H1049 0.949 . S
C1054 C1060 1.368 . S
C1055 C1039 1.349 . S
C1055 H1047 0.950 . S
C1055 C1053 1.327 . S
C1056 C1044 1.349 . S
C1056 H1050 0.950 1_554 S
C1056 C1057 1.327 . S
C1057 H1051 0.950 . S
C1057 C1056 1.327 . S
C1057 C1061 1.429 . S
C1058 C1041 1.574 . S
C1058 H1052 0.949 . S
C1058 C1062 1.368 . S
C1059 C1040 1.429 . S
C1059 C1053 1.429 . S
C1059 C1060 1.523 . S
C1060 C1041 1.368 . S
C1060 C1054 1.368 . S
C1060 C1059 1.523 . S
C1061 C1045 1.429 . S
C1061 C1057 1.429 . S
C1061 C1062 1.523 . S
C1062 C1046 1.368 . S
C1062 C1058 1.368 . S
C1062 C1061 1.523 . S
H1063 C1038 0.950 . S
H1064 C1040 0.950 . S
H1065 C1041 0.949 . S
H1066 C1043 0.950 . S
H1067 C1045 0.950 . S
C1068 C1069 1.349 . S
C1068 C1070 1.327 . S
C1068 H1093 0.950 . S
C1069 C1068 1.349 . S
C1069 C1085 1.349 . S
C1070 C1068 1.327 . S
C1070 C1089 1.429 . S
C1070 H1094 0.950 . S
C1071 C1088 1.574 . S
C1071 C1090 1.368 . S
C1071 H1095 0.949 . S
H1072 C1076 0.949 . S
C1073 C1074 1.349 . S
C1073 C1075 1.327 . S
C1073 H1096 0.950 . S
C1074 C1073 1.349 . S
C1074 C1086 1.349 . S
C1075 C1073 1.327 . S
C1075 C1091 1.429 . S
C1075 H1097 0.950 . S
C1076 H1072 0.949 . S
C1076 C1084 1.574 . S
C1076 C1092 1.368 . S
H1077 C1085 0.950 . S
H1078 C1083 0.950 . S
H1079 C1084 0.949 . S
H1080 C1086 0.950 1_655 S
H1081 C1087 0.950 . S
H1082 C1088 0.949 . S
C1083 H1078 0.950 . S
C1083 C1085 1.327 . S
C1083 C1089 1.429 . S
C1084 C1076 1.574 . S
C1084 H1079 0.949 . S
C1084 C1090 1.368 . S
C1085 C1069 1.349 . S
C1085 H1077 0.950 . S
C1085 C1083 1.327 . S
C1086 C1074 1.349 . S
C1086 H1080 0.950 1_455 S
C1086 C1087 1.327 . S
C1087 H1081 0.950 . S
C1087 C1086 1.327 . S
C1087 C1091 1.429 . S
C1088 C1071 1.574 . S
C1088 H1082 0.949 . S
C1088 C1092 1.368 . S
C1089 C1070 1.429 . S
C1089 C1083 1.429 . S
C1089 C1090 1.523 . S
C1090 C1071 1.368 . S
C1090 C1084 1.368 . S
C1090 C1089 1.523 . S
C1091 C1075 1.429 . S
C1091 C1087 1.429 . S
C1091 C1092 1.523 . S
C1092 C1076 1.368 . S
C1092 C1088 1.368 . S
C1092 C1091 1.523 . S
H1093 C1068 0.950 . S
H1094 C1070 0.950 . S
H1095 C1071 0.949 . S
H1096 C1073 0.950 . S
H1097 C1075 0.950 . S
C1098 C1099 1.349 . S
C1098 C1100 1.327 . S
C1098 H1123 0.950 . S
C1099 C1098 1.349 . S
C1099 C1115 1.349 . S
C1100 C1098 1.327 . S
C1100 C1119 1.429 . S
C1100 H1124 0.950 . S
C1101 C1118 1.574 . S
C1101 C1120 1.368 . S
C1101 H1125 0.949 . S
H1102 C1106 0.949 . S
C1103 C1104 1.349 . S
C1103 C1105 1.327 . S
C1103 H1126 0.950 . S
C1104 C1103 1.349 . S
C1104 C1116 1.349 . S
C1105 C1103 1.327 . S
C1105 C1121 1.429 . S
C1105 H1127 0.950 . S
C1106 H1102 0.949 . S
C1106 C1114 1.574 . S
C1106 C1122 1.368 . S
H1107 C1115 0.950 . S
H1108 C1113 0.950 . S
H1109 C1114 0.949 . S
H1110 C1116 0.950 . S
H1111 C1117 0.950 . S
H1112 C1118 0.949 . S
C1113 H1108 0.950 . S
C1113 C1115 1.327 . S
C1113 C1119 1.429 . S
C1114 C1106 1.574 . S
C1114 H1109 0.949 . S
C1114 C1120 1.368 . S
C1115 C1099 1.349 . S
C1115 H1107 0.950 . S
C1115 C1113 1.327 . S
C1116 C1104 1.349 . S
C1116 H1110 0.950 . S
C1116 C1117 1.327 . S
C1117 H1111 0.950 . S
C1117 C1116 1.327 . S
C1117 C1121 1.429 . S
C1118 C1101 1.574 . S
C1118 H1112 0.949 . S
C1118 C1122 1.368 . S
C1119 C1100 1.429 . S
C1119 C1113 1.429 . S
C1119 C1120 1.523 . S
C1120 C1101 1.368 . S
C1120 C1114 1.368 . S
C1120 C1119 1.523 . S
C1121 C1105 1.429 . S
C1121 C1117 1.429 . S
C1121 C1122 1.523 . S
C1122 C1106 1.368 . S
C1122 C1118 1.368 . S
C1122 C1121 1.523 . S
H1123 C1098 0.950 . S
H1124 C1100 0.950 . S
H1125 C1101 0.949 . S
H1126 C1103 0.950 . S
H1127 C1105 0.950 . S
C409 C1 2.156 . S
C414 C304 2.186 . S
C439 C67 1.090 . S
C444 N324 1.085 . S
C474 C358 1.966 . S
C469 C97 1.935 . S
C499 C133 1.342 . S
C504 N392 1.274 . S
C534 C345 2.378 . S
C529 C25 2.340 . S
C564 N302 1.167 . S
C559 C37 1.194 . S
C594 C379 1.970 . S
C589 C103 1.937 . S
C624 N354 1.004 . S
C619 C109 1.012 . S
C649 C31 1.826 . S
C654 C394 1.863 . S
C684 C328 1.696 . S
C679 C73 1.668 . S
C709 C139 1.494 . S
C714 C289 1.495 . S
C739 C61 1.431 . S
C744 C375 1.463 . S
C774 C315 2.197 . S
C769 C175 2.195 . S
C799 C181 1.082 . S
C804 N332 1.072 . S
C829 C247 1.991 . S
C834 C349 1.989 . S
C859 C277 1.332 . S
C864 N384 1.268 . S
C889 C145 2.369 . S
C894 C334 2.373 . S
C924 N294 1.172 . S
C919 C211 1.192 . S
C954 C388 1.952 . S
C949 C217 1.946 . S
C984 N362 1.021 . S
C979 C283 1.032 . S
C1009 C169 1.850 . S
C1014 C405 1.856 . S
C1044 C319 1.698 . S
C1039 C241 1.696 . S
C1074 C298 1.480 . S
C1069 C253 1.477 . S
C1099 C205 1.441 . S
C1104 C364 1.473 . S
