# Generated by pormake.
# Topology pyr, (3,6)-cn, num edge types: 1
# Building blocks:
#     Node 0, Type 0, BuildingBlock: BELTOD_clean_linker_0, # of connection points: 3
#     Node 1, Type 0, BuildingBlock: BELTOD_clean_linker_0, # of connection points: 3
#     Node 2, Type 0, BuildingBlock: BELTOD_clean_linker_0, # of connection points: 3
#     Node 3, Type 0, BuildingBlock: BELTOD_clean_linker_0, # of connection points: 3
#     Node 4, Type 0, BuildingBlock: BELTOD_clean_linker_0, # of connection points: 3
#     Node 5, Type 0, BuildingBlock: BELTOD_clean_linker_0, # of connection points: 3
#     Node 6, Type 0, BuildingBlock: BELTOD_clean_linker_0, # of connection points: 3
#     Node 7, Type 0, BuildingBlock: BELTOD_clean_linker_0, # of connection points: 3
#     Node 8, Type 1, BuildingBlock: VOLQOD_clean_sbu_1, # of connection points: 6
#     Node 9, Type 1, BuildingBlock: VOLQOD_clean_sbu_1, # of connection points: 6
#     Node 10, Type 1, BuildingBlock: VOLQOD_clean_sbu_1, # of connection points: 6
#     Node 11, Type 1, BuildingBlock: VOLQOD_clean_sbu_1, # of connection points: 6
#     Edge 12, Type (0, 1), BuildingBlock: UVAHIK_clean_linker_0, # of connection points: 2
#     Edge 13, Type (0, 1), BuildingBlock: UVAHIK_clean_linker_0, # of connection points: 2
#     Edge 14, Type (0, 1), BuildingBlock: UVAHIK_clean_linker_0, # of connection points: 2
#     Edge 15, Type (0, 1), BuildingBlock: UVAHIK_clean_linker_0, # of connection points: 2
#     Edge 16, Type (0, 1), BuildingBlock: UVAHIK_clean_linker_0, # of connection points: 2
#     Edge 17, Type (0, 1), BuildingBlock: UVAHIK_clean_linker_0, # of connection points: 2
#     Edge 18, Type (0, 1), BuildingBlock: UVAHIK_clean_linker_0, # of connection points: 2
#     Edge 19, Type (0, 1), BuildingBlock: UVAHIK_clean_linker_0, # of connection points: 2
#     Edge 20, Type (0, 1), BuildingBlock: UVAHIK_clean_linker_0, # of connection points: 2
#     Edge 21, Type (0, 1), BuildingBlock: UVAHIK_clean_linker_0, # of connection points: 2
#     Edge 22, Type (0, 1), BuildingBlock: UVAHIK_clean_linker_0, # of connection points: 2
#     Edge 23, Type (0, 1), BuildingBlock: UVAHIK_clean_linker_0, # of connection points: 2
#     Edge 24, Type (0, 1), BuildingBlock: UVAHIK_clean_linker_0, # of connection points: 2
#     Edge 25, Type (0, 1), BuildingBlock: UVAHIK_clean_linker_0, # of connection points: 2
#     Edge 26, Type (0, 1), BuildingBlock: UVAHIK_clean_linker_0, # of connection points: 2
#     Edge 27, Type (0, 1), BuildingBlock: UVAHIK_clean_linker_0, # of connection points: 2
#     Edge 28, Type (0, 1), BuildingBlock: UVAHIK_clean_linker_0, # of connection points: 2
#     Edge 29, Type (0, 1), BuildingBlock: UVAHIK_clean_linker_0, # of connection points: 2
#     Edge 30, Type (0, 1), BuildingBlock: UVAHIK_clean_linker_0, # of connection points: 2
#     Edge 31, Type (0, 1), BuildingBlock: UVAHIK_clean_linker_0, # of connection points: 2
#     Edge 32, Type (0, 1), BuildingBlock: UVAHIK_clean_linker_0, # of connection points: 2
#     Edge 33, Type (0, 1), BuildingBlock: UVAHIK_clean_linker_0, # of connection points: 2
#     Edge 34, Type (0, 1), BuildingBlock: UVAHIK_clean_linker_0, # of connection points: 2
#     Edge 35, Type (0, 1), BuildingBlock: UVAHIK_clean_linker_0, # of connection points: 2
# Relax obj value: 0.036
# Max RMSD: 0.117
# Mean RMSD: 0.050
data_MOF--net-pry--node1-VOLQOD_clean_sbu_1--node2-BELTOD_clean_linker_0--edge1-UVAHIK_clean_linker_0
_symmetry_space_group_name_H-M    P1
_symmetry_Int_Tables_number       1
_symmetry_cell_setting            triclinic
loop_
_symmetry_equiv_pos_as_xyz
'x, y, z'
_cell_length_a     52.634978
_cell_length_b     53.023896
_cell_length_c     52.505886
_cell_angle_alpha  89.958257
_cell_angle_beta   90.194311
_cell_angle_gamma 90.145
loop_
_atom_site_label
_atom_site_type_symbol
_atom_site_fract_x
_atom_site_fract_y
_atom_site_fract_z
_atom_type_partial_charge
P0 P 0.15695 0.17474 0.18394 0.0
H1 H 0.20915 0.18337 0.16814 0.0
H2 H 0.23845 0.15937 0.14154 0.0
H3 H 0.17987 0.10377 0.12784 0.0
H4 H 0.15043 0.12818 0.15424 0.0
H5 H 0.17038 0.22571 0.16907 0.0
H6 H 0.15024 0.25669 0.14118 0.0
H7 H 0.08911 0.2043 0.12595 0.0
H8 H 0.10974 0.173 0.15365 0.0
H9 H 0.1631 0.12448 0.20559 0.0
H10 H 0.1051 0.18173 0.20332 0.0
O11 O 0.17438 0.19024 0.20546 0.0
H12 H 0.13659 0.09879 0.23333 0.0
H13 H 0.07807 0.15579 0.2306 0.0
C14 C 0.17795 0.15707 0.16382 0.0
C15 C 0.20262 0.16601 0.15945 0.0
C16 C 0.21926 0.1524 0.14407 0.0
C17 C 0.21146 0.12961 0.1328 0.0
C18 C 0.18644 0.12109 0.1366 0.0
C19 C 0.16968 0.13495 0.15171 0.0
C20 C 0.14109 0.19742 0.16407 0.0
C21 C 0.15255 0.22092 0.15991 0.0
C22 C 0.14115 0.23852 0.1438 0.0
C23 C 0.11807 0.2329 0.13154 0.0
C24 C 0.10674 0.20917 0.13545 0.0
C25 C 0.11843 0.19138 0.15131 0.0
C26 C 0.13569 0.15457 0.20148 0.0
C27 C 0.1443 0.13118 0.21037 0.0
C28 C 0.12907 0.11646 0.22626 0.0
C29 C 0.10503 0.12506 0.23397 0.0
C30 C 0.09647 0.14859 0.22503 0.0
C31 C 0.11179 0.16332 0.20914 0.0
P32 P 0.41827 0.90055 0.60798 0.0
H33 H 0.46494 0.90895 0.63671 0.0
H34 H 0.47345 0.91709 0.68185 0.0
H35 H 0.39322 0.91055 0.69778 0.0
H36 H 0.38486 0.90254 0.65274 0.0
H37 H 0.42525 0.8772 0.55853 0.0
H38 H 0.43366 0.8338 0.54522 0.0
H39 H 0.43446 0.81036 0.62407 0.0
H40 H 0.4262 0.85377 0.6372 0.0
H41 H 0.39153 0.94781 0.5996 0.0
H42 H 0.37302 0.86857 0.60163 0.0
O43 O 0.43673 0.92007 0.59127 0.0
H44 H 0.34689 0.95785 0.59163 0.0
H45 H 0.32856 0.87833 0.59293 0.0
C46 C 0.42426 0.90573 0.64132 0.0
C47 C 0.44921 0.90931 0.64995 0.0
C48 C 0.45405 0.91377 0.67575 0.0
C49 C 0.43396 0.91467 0.69332 0.0
C50 C 0.40903 0.91042 0.68462 0.0
C51 C 0.40424 0.90582 0.65886 0.0
C52 C 0.42559 0.86875 0.59881 0.0
C53 C 0.42746 0.86272 0.57293 0.0
C54 C 0.43205 0.8379 0.56536 0.0
C55 C 0.4348 0.81868 0.58361 0.0
C56 C 0.43281 0.82483 0.60958 0.0
C57 C 0.42807 0.84965 0.61712 0.0
C58 C 0.38564 0.90747 0.60061 0.0
C59 C 0.37789 0.93257 0.59793 0.0
C60 C 0.35238 0.93825 0.59332 0.0
C61 C 0.33415 0.91888 0.59147 0.0
C62 C 0.34205 0.89371 0.59443 0.0
C63 C 0.36755 0.88808 0.59912 0.0
P64 P 0.65326 0.3609 0.86021 0.0
H65 H 0.69211 0.34716 0.89683 0.0
H66 H 0.72075 0.37202 0.92361 0.0
H67 H 0.68232 0.44014 0.90009 0.0
H68 H 0.65377 0.41514 0.87329 0.0
H69 H 0.62964 0.31605 0.83955 0.0
H70 H 0.60574 0.28142 0.85862 0.0
H71 H 0.61309 0.3167 0.93251 0.0
H72 H 0.63628 0.35178 0.91303 0.0
H73 H 0.66472 0.39599 0.81946 0.0
H74 H 0.59774 0.36834 0.8576 0.0
O75 O 0.67445 0.34716 0.8412 0.0
H76 H 0.63807 0.4196 0.78971 0.0
H77 H 0.57091 0.3919 0.82781 0.0
C78 C 0.67097 0.37928 0.88297 0.0
C79 C 0.68957 0.3674 0.89781 0.0
C80 C 0.70584 0.38164 0.9132 0.0
C81 C 0.70387 0.40808 0.91386 0.0
C82 C 0.68448 0.41983 0.89973 0.0
C83 C 0.6681 0.40552 0.88444 0.0
C84 C 0.63518 0.33612 0.87496 0.0
C85 C 0.6261 0.3163 0.85986 0.0
C86 C 0.61253 0.29647 0.87082 0.0
C87 C 0.60781 0.29608 0.89718 0.0
C88 C 0.61631 0.31645 0.91216 0.0
C89 C 0.6298 0.3364 0.90109 0.0
C90 C 0.6332 0.38011 0.8404 0.0
C91 C 0.64426 0.3952 0.82154 0.0
C92 C 0.62901 0.40882 0.80469 0.0
C93 C 0.60239 0.4075 0.80637 0.0
C94 C 0.59137 0.39302 0.8259 0.0
C95 C 0.60669 0.37956 0.84292 0.0
P96 P 0.8597 0.63344 0.37453 0.0
H97 H 0.88004 0.68014 0.35504 0.0
H98 H 0.90585 0.71349 0.37367 0.0
H99 H 0.90866 0.67229 0.44479 0.0
H100 H 0.88435 0.63805 0.42516 0.0
H101 H 0.84917 0.6089 0.32612 0.0
H102 H 0.87608 0.58674 0.29579 0.0
H103 H 0.93993 0.5943 0.34722 0.0
H104 H 0.91275 0.61655 0.3776 0.0
H105 H 0.83692 0.64388 0.42422 0.0
H106 H 0.84188 0.58128 0.37212 0.0
O107 O 0.83812 0.6483 0.35669 0.0
H108 H 0.80809 0.6198 0.45098 0.0
H109 H 0.81135 0.55792 0.39736 0.0
C110 C 0.87929 0.65724 0.38909 0.0
C111 C 0.88619 0.67832 0.37466 0.0
C112 C 0.90086 0.69746 0.38543 0.0
C113 C 0.90875 0.69603 0.41103 0.0
C114 C 0.90284 0.67415 0.42509 0.0
C115 C 0.88854 0.65472 0.41403 0.0
C116 C 0.87913 0.6148 0.35379 0.0
C117 C 0.8689 0.60561 0.33097 0.0
C118 C 0.88425 0.59275 0.31376 0.0
C119 C 0.91015 0.58889 0.31911 0.0
C120 C 0.92011 0.59726 0.34251 0.0
C121 C 0.90461 0.60996 0.35984 0.0
C122 C 0.84231 0.6141 0.3966 0.0
C123 C 0.83232 0.6247 0.41884 0.0
C124 C 0.81534 0.61102 0.43389 0.0
C125 C 0.80706 0.58686 0.42635 0.0
C126 C 0.81757 0.57617 0.40424 0.0
C127 C 0.83504 0.58964 0.38958 0.0
P128 P 0.92312 0.94121 0.9503 0.0
H129 H 0.89707 0.96653 0.99236 0.0
H130 H 0.85211 0.97238 0.00233 0.0
H131 H 0.8316 0.93291 0.9332 0.0
H132 H 0.87637 0.92644 0.92391 0.0
H133 H 0.96444 0.90918 0.93254 0.0
H134 H 0.97478 0.86479 0.93979 0.0
H135 H 0.91226 0.85868 0.99247 0.0
H136 H 0.90161 0.903 0.98479 0.0
H137 H 0.94146 0.9858 0.9228 0.0
H138 H 0.91621 0.91049 0.90455 0.0
O139 O 0.94115 0.96043 0.9679 0.0
H140 H 0.9493 0.99397 0.87757 0.0
H141 H 0.92439 0.91829 0.85958 0.0
C142 C 0.89007 0.94648 0.95713 0.0
C143 C 0.88287 0.95928 0.97929 0.0
C144 C 0.85715 0.96268 0.98493 0.0
C145 C 0.8382 0.9532 0.96852 0.0
C146 C 0.84563 0.94022 0.94641 0.0
C147 C 0.8713 0.93676 0.9409 0.0
C148 C 0.93176 0.90915 0.95747 0.0
C149 C 0.95285 0.89828 0.94554 0.0
C150 C 0.95876 0.87296 0.94969 0.0
C151 C 0.9441 0.8583 0.96642 0.0
C152 C 0.92379 0.86959 0.97941 0.0
C153 C 0.91764 0.89486 0.97493 0.0
C154 C 0.92867 0.94742 0.91705 0.0
C155 C 0.93774 0.97099 0.90909 0.0
C156 C 0.94228 0.9756 0.88326 0.0
C157 C 0.93757 0.95674 0.86499 0.0
C158 C 0.92798 0.93331 0.8731 0.0
C159 C 0.92348 0.92876 0.89886 0.0
P160 P 0.62846 0.1129 0.41506 0.0
H161 H 0.63455 0.14709 0.4578 0.0
H162 H 0.60641 0.17915 0.47547 0.0
H163 H 0.5446 0.15033 0.42957 0.0
H164 H 0.57272 0.11814 0.41218 0.0
H165 H 0.66656 0.07725 0.39949 0.0
H166 H 0.69636 0.05143 0.42332 0.0
H167 H 0.65741 0.07014 0.49319 0.0
H168 H 0.62786 0.09654 0.46901 0.0
H169 H 0.61398 0.13717 0.36796 0.0
H170 H 0.61002 0.06235 0.39996 0.0
O171 O 0.65059 0.13353 0.40582 0.0
H172 H 0.59503 0.12182 0.3285 0.0
H173 H 0.5916 0.04654 0.36003 0.0
C174 C 0.60585 0.1305 0.43344 0.0
C175 C 0.61472 0.14712 0.45222 0.0
C176 C 0.59859 0.16539 0.46235 0.0
C177 C 0.5734 0.16741 0.45362 0.0
C178 C 0.56402 0.14935 0.43639 0.0
C179 C 0.58012 0.13093 0.42645 0.0
C180 C 0.64512 0.08887 0.43246 0.0
C181 C 0.66399 0.07523 0.41985 0.0
C182 C 0.68098 0.06032 0.43357 0.0
C183 C 0.67945 0.0588 0.46028 0.0
C184 C 0.65936 0.07121 0.47269 0.0
C185 C 0.64236 0.08622 0.45887 0.0
C186 C 0.61401 0.10076 0.38653 0.0
C187 C 0.60924 0.11734 0.36635 0.0
C188 C 0.59847 0.10851 0.34378 0.0
C189 C 0.59224 0.08286 0.34095 0.0
C190 C 0.59622 0.06639 0.36162 0.0
C191 C 0.60694 0.07534 0.38434 0.0
P192 P 0.42925 0.58113 0.08046 0.0
H193 H 0.39517 0.60547 0.04396 0.0
H194 H 0.35014 0.59973 0.034 0.0
H195 H 0.34616 0.53858 0.0882 0.0
H196 H 0.3912 0.54466 0.09849 0.0
H197 H 0.47191 0.60844 0.05727 0.0
H198 H 0.48081 0.65329 0.05161 0.0
H199 H 0.41212 0.67128 0.09284 0.0
H200 H 0.40247 0.62664 0.09644 0.0
H201 H 0.45279 0.5355 0.10135 0.0
H202 H 0.41883 0.60352 0.13048 0.0
O203 O 0.44693 0.56465 0.0601 0.0
H204 H 0.4599 0.52072 0.14496 0.0
H205 H 0.42662 0.58944 0.17372 0.0
C206 C 0.39633 0.57604 0.07257 0.0
C207 C 0.38459 0.591 0.05393 0.0
C208 C 0.35888 0.58771 0.04822 0.0
C209 C 0.34466 0.56892 0.06056 0.0
C210 C 0.35672 0.55324 0.07847 0.0
C211 C 0.38239 0.5568 0.08445 0.0
C212 C 0.43656 0.6142 0.07729 0.0
C213 C 0.45874 0.6221 0.06496 0.0
C214 C 0.46392 0.64782 0.06196 0.0
C215 C 0.44718 0.66612 0.0717 0.0
C216 C 0.42523 0.65793 0.08455 0.0
C217 C 0.41986 0.63228 0.08704 0.0
C218 C 0.43573 0.57087 0.11256 0.0
C219 C 0.4472 0.54744 0.11707 0.0
C220 C 0.45131 0.53903 0.14202 0.0
C221 C 0.44385 0.5539 0.16288 0.0
C222 C 0.43231 0.57734 0.15816 0.0
C223 C 0.42811 0.5856 0.13329 0.0
P224 P 0.1156 0.39258 0.62256 0.0
H225 H 0.13787 0.34626 0.60396 0.0
H226 H 0.11999 0.3087 0.58394 0.0
H227 H 0.04569 0.34322 0.58402 0.0
H228 H 0.06387 0.38098 0.60412 0.0
H229 H 0.15157 0.43346 0.63005 0.0
H230 H 0.1809 0.45435 0.60096 0.0
H231 H 0.14493 0.41686 0.53731 0.0
H232 H 0.11523 0.39636 0.56647 0.0
H233 H 0.07729 0.37212 0.65609 0.0
H234 H 0.10477 0.44592 0.63495 0.0
O235 O 0.13806 0.38133 0.64196 0.0
H236 H 0.05248 0.39071 0.69028 0.0
H237 H 0.08085 0.46455 0.66997 0.0
C238 C 0.10204 0.36598 0.6062 0.0
C239 C 0.11775 0.34578 0.59961 0.0
C240 C 0.10754 0.32444 0.58793 0.0
C241 C 0.0814 0.32298 0.58254 0.0
C242 C 0.06583 0.34372 0.58827 0.0
C243 C 0.07617 0.36523 0.59978 0.0
C244 C 0.13138 0.41322 0.60049 0.0
C245 C 0.14934 0.43048 0.60976 0.0
C246 C 0.16606 0.44247 0.59309 0.0
C247 C 0.16529 0.43705 0.5669 0.0
C248 C 0.146 0.42122 0.55745 0.0
C249 C 0.12904 0.40949 0.57414 0.0
C250 C 0.09275 0.40761 0.64283 0.0
C251 C 0.07749 0.39242 0.65838 0.0
C252 C 0.06353 0.40305 0.67812 0.0
C253 C 0.06504 0.42905 0.68309 0.0
C254 C 0.07918 0.44448 0.66654 0.0
C255 C 0.09301 0.43379 0.64657 0.0
O256 O 0.99743 0.05478 0.54937 0.0
Zn257 Zn 0.98437 0.01901 0.5506 0.0
O258 O 0.00463 0.99663 0.52933 0.0
Zn259 Zn 0.98416 0.98582 0.50029 0.0
Zn260 Zn 0.03416 0.01473 0.51665 0.0
Zn261 Zn 0.01578 0.96738 0.54933 0.0
O262 O 0.98492 0.94824 0.49782 0.0
O263 O 0.00444 0.93469 0.53281 0.0
O264 O 0.94769 0.01891 0.5396 0.0
O265 O 0.94749 0.99557 0.50455 0.0
O266 O 0.99728 -0.00016 0.46692 0.0
O267 O 0.03482 0.01521 0.47851 0.0
O268 O 0.06677 -0.00057 0.52914 0.0
O269 O 0.98479 0.00723 0.58691 0.0
O270 O 0.05406 0.96631 0.55166 0.0
O271 O 0.00275 0.96938 0.5855 0.0
C272 C 0.01728 0.06445 0.53951 0.0
C273 C 0.99288 0.93034 0.51188 0.0
C274 C 0.01853 0.00995 0.46134 0.0
C275 C 0.93583 0.00863 0.52114 0.0
C276 C 0.07174 0.98019 0.54279 0.0
C277 C 0.99172 0.98691 0.59784 0.0
O278 O 0.03306 0.05103 0.52721 0.0
O279 O 0.49302 0.05371 0.99191 0.0
Zn280 Zn 0.47912 0.01867 0.99784 0.0
O281 O 0.50108 -0.00059 0.02089 0.0
Zn282 Zn 0.51646 0.97125 0.00264 0.0
Zn283 Zn 0.52805 0.02135 0.03363 0.0
Zn284 Zn 0.48094 0.98641 0.04941 0.0
O285 O 0.50728 0.9382 0.01895 0.0
O286 O 0.48 0.94836 0.04946 0.0
O287 O 0.47614 0.00143 0.96367 0.0
O288 O 0.50373 0.96991 0.96649 0.0
O289 O 0.55465 0.97367 0.00206 0.0
O290 O 0.56269 0.00833 0.02429 0.0
O291 O 0.52675 0.02381 0.07165 0.0
O292 O 0.44405 0.02273 0.01263 0.0
O293 O 0.49549 0.99808 0.08317 0.0
O294 O 0.44496 -0.00082 0.04763 0.0
C295 C 0.51111 0.06615 0.00211 0.0
C296 C 0.49214 0.93191 0.03672 0.0
C297 C 0.57033 0.98936 0.01163 0.0
C298 C 0.48749 0.98261 0.95384 0.0
C299 C 0.51337 0.01334 0.08885 0.0
C300 C 0.43319 0.01369 0.03229 0.0
O301 O 0.52547 0.05621 0.01888 0.0
O302 O 0.51218 0.50157 0.5564 0.0
Zn303 Zn 0.51255 0.51395 0.52034 0.0
O304 O 0.4915 0.49276 0.49848 0.0
Zn305 Zn 0.51259 0.47718 0.47216 0.0
Zn306 Zn 0.47563 0.46626 0.51911 0.0
Zn307 Zn 0.46544 0.51389 0.48254 0.0
O308 O 0.50128 0.48788 0.43706 0.0
O309 O 0.46856 0.51322 0.4443 0.0
O310 O 0.54876 0.51413 0.50865 0.0
O311 O 0.54945 0.48709 0.47637 0.0
O312 O 0.51061 0.43926 0.47383 0.0
O313 O 0.48676 0.43177 0.50783 0.0
O314 O 0.43754 0.46755 0.5156 0.0
O315 O 0.50028 0.5497 0.52102 0.0
O316 O 0.43054 0.50124 0.49132 0.0
O317 O 0.46755 0.55011 0.49435 0.0
C318 C 0.50036 0.4841 0.56806 0.0
C319 C 0.48355 0.50213 0.42897 0.0
C320 C 0.50015 0.42397 0.48932 0.0
C321 C 0.56077 0.50226 0.49143 0.0
C322 C 0.42242 0.48257 0.50422 0.0
C323 C 0.48234 0.5614 0.50986 0.0
O324 O 0.48524 0.46933 0.55629 0.0
O325 O 0.98833 0.51535 0.06215 0.0
Zn326 Zn 0.98812 0.50286 0.02608 0.0
O327 O 0.00833 0.52499 0.0042 0.0
Zn328 Zn 0.98668 0.53958 0.97753 0.0
Zn329 Zn 0.02347 0.55206 0.02459 0.0
Zn330 Zn 0.03527 0.5052 0.98861 0.0
O331 O 0.99859 0.52944 0.94249 0.0
O332 O 0.03102 0.50393 0.95068 0.0
O333 O 0.95188 0.501 0.01405 0.0
O334 O 0.95056 0.52696 0.98087 0.0
O335 O 0.98625 0.5776 0.97961 0.0
O336 O 0.01054 0.58597 0.01327 0.0
O337 O 0.06172 0.55227 0.02181 0.0
O338 O 0.0022 0.46751 0.02727 0.0
O339 O 0.0697 0.51955 0.99677 0.0
O340 O 0.03545 0.46958 0.00158 0.0
C341 C 0.00014 0.53299 0.07364 0.0
C342 C 0.01606 0.51466 0.93497 0.0
C343 C 0.99627 0.59327 0.99507 0.0
C344 C 0.93966 0.51164 0.99605 0.0
C345 C 0.07735 0.53807 0.01019 0.0
C346 C 0.02128 0.45722 0.01671 0.0
O347 O 0.01464 0.54812 0.06166 0.0
C348 C 0.07754 0.12248 0.27287 0.0
C349 C 0.08993 0.11027 0.25267 0.0
C350 C 0.06567 0.1085 0.29202 0.0
C351 C 0.07073 0.04738 0.32357 0.0
H352 H 0.00927 0.06864 0.3579 0.0
C353 C 0.00504 0.01789 0.41604 0.0
C354 C 0.02434 0.01664 0.43459 0.0
C355 C 0.01054 0.02609 0.3913 0.0
C356 C 0.02625 0.06224 0.3483 0.0
H357 H 0.09819 0.0738 0.23597 0.0
H358 H 0.07766 0.0494 0.2696 0.0
H359 H 0.02205 0.08941 0.31835 0.0
H360 H 0.06467 0.02214 0.44144 0.0
H361 H 0.07419 0.03622 0.39845 0.0
H362 H 0.07529 0.02066 0.35381 0.0
C363 C 0.07744 0.0698 0.27073 0.0
C364 C 0.03368 0.07427 0.3258 0.0
C365 C 0.08923 0.08378 0.25152 0.0
C366 C 0.04933 0.02297 0.42766 0.0
C367 C 0.05484 0.03086 0.40295 0.0
C368 C 0.06339 0.03548 0.34611 0.0
C369 C 0.06598 0.082 0.29146 0.0
C370 C 0.05629 0.06732 0.31349 0.0
C371 C 0.03549 0.03282 0.38459 0.0
C372 C 0.04139 0.04315 0.35901 0.0
H373 H 0.07799 0.14283 0.27457 0.0
H374 H 0.05731 0.11847 0.30791 0.0
H375 H 0.08835 0.04171 0.31468 0.0
H376 H 0.98559 0.01317 0.42079 0.0
H377 H 0.99528 0.02731 0.37746 0.0
C378 C 0.45945 0.90948 0.73349 0.0
C379 C 0.43893 0.92056 0.72052 0.0
C380 C 0.46437 0.91549 0.75895 0.0
C381 C 0.43471 0.94346 0.81635 0.0
H382 H 0.50462 0.95251 0.8381 0.0
C383 C 0.4621 0.98715 0.91353 0.0
C384 C 0.48172 0.97526 0.92721 0.0
C385 C 0.45665 0.98007 0.88846 0.0
C386 C 0.48502 0.94981 0.83237 0.0
H387 H 0.40762 0.94682 0.72397 0.0
H388 H 0.41635 0.95754 0.76826 0.0
H389 H 0.49548 0.94073 0.79415 0.0
H390 H 0.51102 0.94657 0.92515 0.0
H391 H 0.50148 0.9343 0.88145 0.0
H392 H 0.4243 0.95289 0.85457 0.0
C393 C 0.42835 0.9438 0.75898 0.0
C394 C 0.47976 0.943 0.8072 0.0
C395 C 0.42336 0.93769 0.73357 0.0
C396 C 0.49579 0.95616 0.9152 0.0
C397 C 0.49043 0.9492 0.8901 0.0
C398 C 0.43997 0.9504 0.8415 0.0
C399 C 0.44896 0.93284 0.77197 0.0
C400 C 0.45454 0.93975 0.79887 0.0
C401 C 0.4708 0.96105 0.87646 0.0
C402 C 0.46518 0.95366 0.84977 0.0
H403 H 0.47157 0.89596 0.72401 0.0
H404 H 0.48014 0.90637 0.76849 0.0
H405 H 0.41509 0.94072 0.8107 0.0
H406 H 0.45089 0.00193 0.92218 0.0
H407 H 0.44157 0.98972 0.87833 0.0
C408 C 0.56641 0.40648 0.77503 0.0
C409 C 0.58641 0.41982 0.78668 0.0
C410 C 0.55354 0.41671 0.75414 0.0
C411 C 0.56477 0.46139 0.70199 0.0
H412 H 0.49342 0.45025 0.68701 0.0
C413 C 0.52062 0.49754 0.60907 0.0
C414 C 0.50545 0.48023 0.59555 0.0
C415 C 0.52749 0.49288 0.63432 0.0
C416 C 0.51339 0.45341 0.69091 0.0
H417 H 0.60741 0.45502 0.78679 0.0
H418 H 0.58474 0.47306 0.7505 0.0
H419 H 0.51065 0.43766 0.72841 0.0
H420 H 0.48469 0.44493 0.5984 0.0
H421 H 0.49702 0.43662 0.64245 0.0
H422 H 0.56777 0.47659 0.66446 0.0
C423 C 0.57941 0.45443 0.75711 0.0
C424 C 0.52325 0.44622 0.71461 0.0
C425 C 0.59235 0.44415 0.7779 0.0
C426 C 0.49643 0.45864 0.60824 0.0
C427 C 0.50338 0.45394 0.63354 0.0
C428 C 0.55494 0.46858 0.6784 0.0
C429 C 0.56034 0.44054 0.74453 0.0
C430 C 0.54913 0.44992 0.72031 0.0
C431 C 0.51943 0.47076 0.64667 0.0
C432 C 0.5292 0.46447 0.67247 0.0
H433 H 0.56157 0.38758 0.78122 0.0
H434 H 0.53914 0.40539 0.74476 0.0
H435 H 0.58489 0.46403 0.7055 0.0
H436 H 0.52767 0.51452 0.6 0.0
H437 H 0.53948 0.50644 0.64406 0.0
C438 C 0.95001 0.58978 0.2933 0.0
C439 C 0.92687 0.57799 0.29935 0.0
C440 C 0.96382 0.58214 0.272 0.0
C441 C 0.9696 0.5322 0.22292 0.0
H442 H 0.9856 0.58821 0.17817 0.0
C443 C 0.97912 0.52098 0.1146 0.0
C444 C 0.99678 0.53599 0.10144 0.0
C445 C 0.97528 0.52431 0.14066 0.0
C446 C 0.9818 0.57232 0.19057 0.0
H447 H 0.90099 0.54778 0.28909 0.0
H448 H 0.92494 0.53457 0.25176 0.0
H449 H 0.97143 0.59649 0.22135 0.0
H450 H 0.02487 0.56577 0.10557 0.0
H451 H 0.01834 0.57138 0.15115 0.0
H452 H 0.97936 0.50804 0.19183 0.0
C453 C 0.93248 0.54967 0.26346 0.0
C454 C 0.97367 0.57708 0.21537 0.0
C455 C 0.91863 0.55738 0.28468 0.0
C456 C 0.01095 0.55403 0.11507 0.0
C457 C 0.00717 0.55729 0.14119 0.0
C458 C 0.97784 0.52743 0.19812 0.0
C459 C 0.95479 0.56248 0.25644 0.0
C460 C 0.96692 0.5571 0.2316 0.0
C461 C 0.98909 0.54265 0.15423 0.0
C462 C 0.98342 0.54746 0.18147 0.0
H463 H 0.95676 0.60581 0.30418 0.0
H464 H 0.9811 0.59217 0.26718 0.0
H465 H 0.96482 0.51643 0.23514 0.0
H466 H 0.96786 0.50691 0.10471 0.0
H467 H 0.9609 0.513 0.15 0.0
C468 C 0.2456 0.12593 0.09987 0.0
C469 C 0.22983 0.11441 0.11804 0.0
C470 C 0.2645 0.11205 0.08764 0.0
C471 C 0.30623 0.05883 0.09884 0.0
H472 H 0.3212 0.06403 0.02677 0.0
C473 C 0.39256 0.00795 0.05636 0.0
C474 C 0.40689 0.0214 0.03834 0.0
C475 C 0.36857 0.01646 0.06368 0.0
C476 C 0.31744 0.06254 0.04698 0.0
H477 H 0.22102 0.0793 0.13726 0.0
H478 H 0.2543 0.05506 0.11603 0.0
H479 H 0.28339 0.0845 0.04385 0.0
H480 H 0.40697 0.05401 0.01338 0.0
H481 H 0.36562 0.06934 0.02674 0.0
H482 H 0.34069 0.038 0.10244 0.0
C483 C 0.25194 0.07479 0.11122 0.0
C484 C 0.29571 0.07417 0.05669 0.0
C485 C 0.23282 0.08859 0.12321 0.0
C486 C 0.39638 0.04314 0.02724 0.0
C487 C 0.37253 0.05185 0.03482 0.0
C488 C 0.32809 0.04749 0.08922 0.0
C489 C 0.26819 0.08648 0.09359 0.0
C490 C 0.29004 0.07261 0.08276 0.0
C491 C 0.35847 0.03885 0.05344 0.0
C492 C 0.33415 0.04939 0.0632 0.0
H493 H 0.24356 0.14577 0.09543 0.0
H494 H 0.27687 0.12158 0.07426 0.0
H495 H 0.30252 0.05763 0.11909 0.0
H496 H 0.40001 0.99096 0.06506 0.0
H497 H 0.35808 0.00561 0.07762 0.0
C498 C 0.30028 0.94396 0.56923 0.0
C499 C 0.30701 0.92491 0.5866 0.0
C500 C 0.27478 0.94968 0.56466 0.0
C501 C 0.21061 0.94303 0.59244 0.0
H502 H 0.18841 0.95786 0.52355 0.0
C503 C 0.10473 0.95367 0.56463 0.0
C504 C 0.09859 0.97375 0.54822 0.0
C505 C 0.13009 0.94753 0.56954 0.0
C506 C 0.19438 0.95399 0.54292 0.0
H507 H 0.29213 0.89712 0.61302 0.0
H508 H 0.24763 0.90665 0.60456 0.0
H509 H 0.23276 0.94731 0.5316 0.0
H510 H 0.11441 0.00317 0.52419 0.0
H511 H 0.15856 0.99245 0.53282 0.0
H512 H 0.17212 0.94958 0.60369 0.0
C513 C 0.26209 0.91738 0.59469 0.0
C514 C 0.21979 0.94798 0.54755 0.0
C515 C 0.28761 0.9117 0.59929 0.0
C516 C 0.11841 0.98756 0.53689 0.0
C517 C 0.14374 0.98134 0.54171 0.0
C518 C 0.18516 0.94895 0.58779 0.0
C519 C 0.25537 0.93644 0.57731 0.0
C520 C 0.22825 0.94252 0.57238 0.0
C521 C 0.14986 0.96124 0.55805 0.0
C522 C 0.1768 0.95459 0.56299 0.0
H523 H 0.31472 0.95432 0.55892 0.0
H524 H 0.27029 0.96467 0.55139 0.0
H525 H 0.21656 0.93928 0.61184 0.0
H526 H 0.08995 0.94263 0.57368 0.0
H527 H 0.13421 0.93179 0.58203 0.0
C528 C 0.73257 0.4156 0.95143 0.0
C529 C 0.72336 0.42325 0.9275 0.0
C530 C 0.75316 0.42804 0.9627 0.0
C531 C 0.7938 0.48549 0.95869 0.0
H532 H 0.84568 0.44081 0.98536 0.0
C533 C 0.89902 0.51474 0.97104 0.0
C534 C 0.91252 0.50513 0.99205 0.0
C535 C 0.87403 0.50705 0.96627 0.0
C536 C 0.83125 0.45364 0.97841 0.0
H537 H 0.728 0.4505 0.89703 0.0
H538 H 0.76396 0.47209 0.91658 0.0
H539 H 0.805 0.42351 0.97197 0.0
H540 H 0.90987 0.4807 0.02516 0.0
H541 H 0.86628 0.4675 0.01691 0.0
H542 H 0.8205 0.51554 0.96456 0.0
C543 C 0.75508 0.45672 0.92686 0.0
C544 C 0.80787 0.44371 0.97075 0.0
C545 C 0.73444 0.44433 0.91563 0.0
C546 C 0.90014 0.48833 0.00866 0.0
C547 C 0.87517 0.48067 0.00389 0.0
C548 C 0.81726 0.49544 0.96634 0.0
C549 C 0.76507 0.44835 0.95024 0.0
C550 C 0.78896 0.45945 0.9605 0.0
C551 C 0.86197 0.48959 0.9824 0.0
C552 C 0.83636 0.47955 0.976 0.0
H553 H 0.72417 0.39965 0.96121 0.0
H554 H 0.76008 0.42143 0.98096 0.0
H555 H 0.77953 0.49818 0.95118 0.0
H556 H 0.90794 0.52773 0.95787 0.0
H557 H 0.86448 0.51409 0.94941 0.0
C558 C 0.78404 0.54746 0.4406 0.0
C559 C 0.78579 0.57398 0.43988 0.0
C560 C 0.76234 0.53561 0.45025 0.0
C561 C 0.707 0.54363 0.49101 0.0
H562 H 0.66959 0.50507 0.44054 0.0
C563 C 0.59958 0.5284 0.49896 0.0
C564 C 0.58837 0.50658 0.48872 0.0
C565 C 0.62547 0.53305 0.49586 0.0
C566 C 0.67993 0.51521 0.45517 0.0
H567 H 0.76606 0.60862 0.44978 0.0
H568 H 0.72909 0.58786 0.46766 0.0
H569 H 0.71276 0.51894 0.43141 0.0
H570 H 0.59566 0.47207 0.4679 0.0
H571 H 0.64112 0.47971 0.46323 0.0
H572 H 0.67443 0.53998 0.51489 0.0
C573 C 0.74451 0.57636 0.46055 0.0
C574 C 0.70466 0.5232 0.44986 0.0
C575 C 0.76587 0.58823 0.45041 0.0
C576 C 0.60373 0.48919 0.47578 0.0
C577 C 0.62978 0.49364 0.47303 0.0
C578 C 0.68247 0.53525 0.49655 0.0
C579 C 0.74229 0.55002 0.45998 0.0
C580 C 0.71808 0.53807 0.46744 0.0
C581 C 0.64095 0.51578 0.4828 0.0
C582 C 0.66828 0.52164 0.47837 0.0
H583 H 0.79917 0.5358 0.43322 0.0
H584 H 0.76102 0.51523 0.44977 0.0
H585 H 0.71714 0.55496 0.50491 0.0
H586 H 0.58822 0.54226 0.50888 0.0
H587 H 0.63315 0.55059 0.50313 0.0
C588 C 0.12039 0.26495 0.09672 0.0
C589 C 0.10593 0.25204 0.11499 0.0
C590 C 0.10976 0.2847 0.08275 0.0
C591 C 0.0487 0.31619 0.06603 0.0
H592 H 0.09265 0.37435 0.05727 0.0
C593 C 0.0134 0.41687 0.0406 0.0
C594 C 0.02825 0.43098 0.02348 0.0
C595 C 0.02147 0.39313 0.04892 0.0
C596 C 0.08022 0.35815 0.05924 0.0
H597 H 0.06886 0.24903 0.13249 0.0
H598 H 0.05034 0.28402 0.10853 0.0
H599 H 0.10934 0.33644 0.07706 0.0
H600 H 0.06265 0.43058 0.00075 0.0
H601 H 0.07665 0.38929 0.01531 0.0
H602 H 0.01934 0.33855 0.04883 0.0
C603 C 0.06976 0.27861 0.10459 0.0
C604 C 0.0898 0.33634 0.07054 0.0
C605 C 0.08035 0.25862 0.11839 0.0
C606 C 0.0508 0.42036 0.01408 0.0
C607 C 0.05891 0.39673 0.02249 0.0
C608 C 0.03904 0.33817 0.05487 0.0
C609 C 0.08451 0.29222 0.08696 0.0
C610 C 0.0742 0.31506 0.0741 0.0
C611 C 0.04461 0.3831 0.04039 0.0
C612 C 0.05473 0.35937 0.05138 0.0
H613 H 0.14006 0.25996 0.09347 0.0
H614 H 0.1215 0.29431 0.06887 0.0
H615 H 0.03622 0.30008 0.06822 0.0
H616 H 0.99588 0.42445 0.04816 0.0
H617 H 0.01013 0.3831 0.06283 0.0
C618 C 0.60027 0.24953 0.90059 0.0
C619 C 0.59473 0.2741 0.90891 0.0
C620 C 0.58803 0.22874 0.9113 0.0
C621 C 0.55479 0.20738 0.96862 0.0
H622 H 0.53339 0.1525 0.92463 0.0
C623 C 0.53609 0.10637 0.00483 0.0
C624 C 0.51633 0.09231 0.99361 0.0
C625 C 0.54228 0.13033 0.99566 0.0
C626 C 0.53892 0.16777 0.93718 0.0
H627 H 0.57191 0.29603 0.93509 0.0
H628 H 0.55065 0.25952 0.95405 0.0
H629 H 0.55036 0.19105 0.90594 0.0
H630 H 0.48693 0.09289 0.96451 0.0
H631 H 0.49774 0.13477 0.94857 0.0
H632 H 0.54352 0.18394 -0.00012 0.0
C633 C 0.56458 0.25647 0.93925 0.0
C634 C 0.54891 0.18975 0.92648 0.0
C635 C 0.57679 0.27735 0.92842 0.0
C636 C 0.50236 0.10312 0.97351 0.0
C637 C 0.50861 0.12708 0.9643 0.0
C638 C 0.54487 0.18533 0.97935 0.0
C639 C 0.57 0.23195 0.93068 0.0
C640 C 0.55737 0.20961 0.94208 0.0
C641 C 0.52889 0.14079 0.97502 0.0
C642 C 0.53718 0.16513 0.96375 0.0
H643 H 0.6144 0.24628 0.88602 0.0
H644 H 0.59302 0.21007 0.90467 0.0
H645 H 0.56125 0.22232 0.98114 0.0
H646 H 0.54721 0.09868 0.02038 0.0
H647 H 0.55819 0.14027 0.00416 0.0
C648 C 0.94134 0.71419 0.44145 0.0
C649 C 0.92215 0.71775 0.42303 0.0
C650 C 0.95368 0.73496 0.45247 0.0
C651 C 0.9698 0.80051 0.43975 0.0
H652 H 0.96695 0.8123 0.51258 0.0
C653 C 0.97539 0.89951 0.48049 0.0
C654 C 0.98874 0.90406 0.50325 0.0
C655 C 0.97162 0.87501 0.47176 0.0
C656 C 0.96842 0.80906 0.49227 0.0
H657 H 0.90032 0.74612 0.40264 0.0
H658 H 0.92247 0.78193 0.42104 0.0
H659 H 0.95282 0.7717 0.49522 0.0
H660 H 0.00851 0.88625 0.5348 0.0
H661 H 0.00191 0.84313 0.51936 0.0
H662 H 0.98487 0.83779 0.4365 0.0
C663 C 0.92808 0.7631 0.42675 0.0
C664 C 0.96031 0.78586 0.48238 0.0
C665 C 0.91551 0.74252 0.41611 0.0
C666 C 0.99813 0.88339 0.5172 0.0
C667 C 0.99432 0.85872 0.5084 0.0
C668 C 0.97809 0.8235 0.44959 0.0
C669 C 0.9473 0.75954 0.44493 0.0
C670 C 0.96011 0.78182 0.45596 0.0
C671 C 0.98116 0.85432 0.48548 0.0
C672 C 0.97655 0.82841 0.47584 0.0
H673 H 0.9471 0.69542 0.44711 0.0
H674 H 0.96847 0.73183 0.46652 0.0
H675 H 0.97014 0.79763 0.41932 0.0
H676 H 0.96772 0.9149 0.46929 0.0
H677 H 0.96085 0.87228 0.45436 0.0
C678 C 0.42611 0.78171 0.55504 0.0
C679 C 0.43961 0.7923 0.57557 0.0
C680 C 0.43064 0.75687 0.54747 0.0
C681 C 0.45799 0.69674 0.57048 0.0
H682 H 0.45942 0.67981 0.49864 0.0
C683 C 0.49286 0.60037 0.53471 0.0
C684 C 0.47813 0.58837 0.51586 0.0
C685 C 0.48819 0.6254 0.54138 0.0
C686 C 0.45884 0.68422 0.51877 0.0
H687 H 0.46873 0.7853 0.60398 0.0
H688 H 0.47684 0.74205 0.59063 0.0
H689 H 0.45122 0.72322 0.51163 0.0
H690 H 0.44724 0.59354 0.48888 0.0
H691 H 0.43915 0.63736 0.50057 0.0
H692 H 0.46584 0.65779 0.57759 0.0
C693 C 0.46238 0.75275 0.58068 0.0
C694 C 0.4541 0.70907 0.52623 0.0
C695 C 0.45777 0.77754 0.58832 0.0
C696 C 0.45894 0.60219 0.50348 0.0
C697 C 0.45436 0.62732 0.51009 0.0
C698 C 0.46284 0.67195 0.56302 0.0
C699 C 0.44885 0.74209 0.56019 0.0
C700 C 0.45368 0.71564 0.55218 0.0
C701 C 0.46878 0.63909 0.5293 0.0
C702 C 0.46338 0.66543 0.53709 0.0
H703 H 0.41174 0.79251 0.54507 0.0
H704 H 0.41958 0.74913 0.53188 0.0
H705 H 0.45732 0.70102 0.59063 0.0
H706 H 0.50785 0.59036 0.5446 0.0
H707 H 0.49987 0.63408 0.55599 0.0
C708 C 0.92621 0.95221 0.81875 0.0
C709 C 0.94297 0.96118 0.8376 0.0
C710 C 0.93184 0.95529 0.79297 0.0
C711 C 0.97072 0.99278 0.74851 0.0
H712 H 0.95827 0.93676 0.70262 0.0
C713 C 0.97526 0.00329 0.63936 0.0
C714 C 0.98682 0.98381 0.62544 0.0
C715 C 0.97056 0.00052 0.66535 0.0
C716 C 0.96205 0.95251 0.71522 0.0
H717 H 0.97875 0.98054 0.84411 0.0
H718 H 0.98854 0.98602 0.79905 0.0
H719 H 0.94892 0.93215 0.74785 0.0
H720 H 0.00258 0.94611 0.6281 0.0
H721 H 0.99446 0.94135 0.67359 0.0
H722 H 0.98414 0.01303 0.71593 0.0
C723 C 0.97091 0.97681 0.80425 0.0
C724 C 0.95641 0.94997 0.74107 0.0
C725 C 0.96528 0.97371 0.83007 0.0
C726 C 0.9936 0.96147 0.6382 0.0
C727 C 0.98883 0.95869 0.66424 0.0
C728 C 0.97629 0.99534 0.72264 0.0
C729 C 0.95435 0.96744 0.78542 0.0
C730 C 0.9606 0.97011 0.758 0.0
C731 C 0.97727 0.9782 0.67809 0.0
C732 C 0.97194 0.97526 0.70569 0.0
H733 H 0.90865 0.94286 0.82393 0.0
H734 H 0.91847 0.94828 0.77893 0.0
H735 H 0.97399 0.0087 0.76103 0.0
H736 H 0.96973 0.02075 0.63017 0.0
H737 H 0.96131 0.01576 0.6754 0.0
C738 C 0.59261 0.08265 0.29335 0.0
C739 C 0.58224 0.07353 0.31621 0.0
C740 C 0.58264 0.07515 0.26995 0.0
C741 C 0.54578 0.02607 0.23751 0.0
H742 H 0.53688 0.07848 0.18669 0.0
C743 C 0.50537 0.00748 0.13574 0.0
C744 C 0.51881 0.01929 0.11589 0.0
C745 C 0.51066 0.01346 0.16119 0.0
C746 C 0.53937 0.0636 0.20062 0.0
H747 H 0.55365 0.04878 0.33236 0.0
H748 H 0.53628 0.0354 0.29113 0.0
H749 H 0.55076 0.08973 0.22946 0.0
H750 H 0.54852 0.04649 0.10733 0.0
H751 H 0.55774 0.05669 0.15143 0.0
H752 H 0.53481 -0.00012 0.20832 0.0
C753 C 0.55215 0.04843 0.29152 0.0
C754 C 0.54731 0.07005 0.22511 0.0
C755 C 0.56211 0.05605 0.31507 0.0
C756 C 0.53768 0.03708 0.12207 0.0
C757 C 0.54288 0.04308 0.14738 0.0
C758 C 0.53783 0.01958 0.21288 0.0
C759 C 0.56209 0.05825 0.26875 0.0
C760 C 0.55118 0.05132 0.24364 0.0
C761 C 0.52937 0.03147 0.16723 0.0
C762 C 0.53514 0.03826 0.19404 0.0
H763 H 0.60855 0.09562 0.29352 0.0
H764 H 0.59112 0.08255 0.25271 0.0
H765 H 0.54867 0.01124 0.25141 0.0
H766 H 0.49073 0.99366 0.13165 0.0
H767 H 0.49989 0.00428 0.1761 0.0
C768 C 0.4294 0.54967 0.20818 0.0
C769 C 0.44791 0.54515 0.18949 0.0
C770 C 0.43358 0.54264 0.23345 0.0
C771 C 0.48518 0.52794 0.27889 0.0
H772 H 0.42939 0.50435 0.32076 0.0
C773 C 0.49797 0.49615 0.38383 0.0
C774 C 0.48004 0.50561 0.40117 0.0
C775 C 0.49449 0.49932 0.3576 0.0
C776 C 0.44512 0.51104 0.30932 0.0
H777 H 0.48519 0.5292 0.18276 0.0
H778 H 0.4922 0.51624 0.22682 0.0
H779 H 0.42245 0.51189 0.27547 0.0
H780 H 0.44435 0.52577 0.40445 0.0
H781 H 0.43833 0.53121 0.35876 0.0
H782 H 0.50782 0.527 0.31287 0.0
C783 C 0.47461 0.52567 0.22195 0.0
C784 C 0.44115 0.51541 0.28338 0.0
C785 C 0.47047 0.53283 0.19662 0.0
C786 C 0.45855 0.51825 0.39167 0.0
C787 C 0.45499 0.52123 0.36547 0.0
C788 C 0.48918 0.52339 0.30482 0.0
C789 C 0.4563 0.5307 0.24072 0.0
C790 C 0.46103 0.52428 0.26791 0.0
C791 C 0.47291 0.5118 0.34816 0.0
C792 C 0.4691 0.51524 0.32037 0.0
H793 H 0.41163 0.55875 0.2033 0.0
H794 H 0.41917 0.54709 0.24741 0.0
H795 H 0.50084 0.53507 0.26764 0.0
H796 H 0.51474 0.48632 0.39048 0.0
H797 H 0.50853 0.49171 0.34469 0.0
C798 C 0.05781 0.42586 0.72988 0.0
C799 C 0.05445 0.43933 0.70708 0.0
C800 C 0.04932 0.43565 0.75289 0.0
C801 C 0.03387 0.49509 0.78492 0.0
H802 H 0.00863 0.44919 0.8366 0.0
C803 C 0.00603 0.52347 0.88896 0.0
C804 C 0.01827 0.50868 0.90756 0.0
C805 C 0.00739 0.51688 0.86318 0.0
C806 C 0.01556 0.46223 0.8223 0.0
H807 H 0.03937 0.47366 0.69054 0.0
H808 H 0.02425 0.49086 0.73108 0.0
H809 H 0.01497 0.43403 0.7933 0.0
H810 H 0.04168 0.47554 0.91364 0.0
H811 H 0.04364 0.46394 0.86887 0.0
H812 H 0.03454 0.52322 0.81433 0.0
C813 C 0.03366 0.47272 0.73101 0.0
C814 C 0.01928 0.45357 0.79756 0.0
C815 C 0.04226 0.46288 0.70783 0.0
C816 C 0.03206 0.48737 0.89984 0.0
C817 C 0.03306 0.48061 0.87423 0.0
C818 C 0.02985 0.50385 0.80972 0.0
C819 C 0.03715 0.45918 0.7538 0.0
C820 C 0.02932 0.46964 0.77879 0.0
C821 C 0.0206 0.49517 0.85571 0.0
C822 C 0.02144 0.48723 0.82876 0.0
H823 H 0.06776 0.408 0.73012 0.0
H824 H 0.05299 0.42501 0.77013 0.0
H825 H 0.04174 0.50792 0.77094 0.0
H826 H 0.99533 0.54005 0.89432 0.0
H827 H 0.99767 0.52839 0.84917 0.0
C828 C 0.80194 0.97961 0.98448 0.0
C829 C 0.81081 0.95672 0.97435 0.0
C830 C 0.77606 0.98308 0.98926 0.0
C831 C 0.71311 0.95987 0.9698 0.0
H832 H 0.69008 0.99112 0.03232 0.0
C833 C 0.60706 0.96339 0.99649 0.0
C834 C 0.59795 0.98555 0.0079 0.0
C835 C 0.63309 0.95985 0.99287 0.0
C836 C 0.6962 0.98265 0.01462 0.0
H837 H 0.79942 0.91926 0.96211 0.0
H838 H 0.75431 0.92548 0.97013 0.0
H839 H 0.73547 0.98515 0.02522 0.0
H840 H 0.60916 0.02144 0.0244 0.0
H841 H 0.65449 0.01546 0.01764 0.0
H842 H 0.67398 0.9576 0.95898 0.0
C843 C 0.76736 0.94084 0.97405 0.0
C844 C 0.7222 0.9792 0.01059 0.0
C845 C 0.79321 0.93731 0.96942 0.0
C846 C 0.61551 0.00408 0.01565 0.0
C847 C 0.64154 0.00059 0.01191 0.0
C848 C 0.68714 0.96344 0.97375 0.0
C849 C 0.75848 0.9638 0.98389 0.0
C850 C 0.73092 0.96769 0.98818 0.0
C851 C 0.65066 0.97844 0.00045 0.0
C852 C 0.67834 0.9748 0.99624 0.0
H853 H 0.81491 0.99507 0.9882 0.0
H854 H 0.76974 0.00109 0.9966 0.0
H855 H 0.71927 0.9513 0.95216 0.0
H856 H 0.59409 0.94865 0.99044 0.0
H857 H 0.63946 0.94238 0.98437 0.0
C858 C 0.71356 0.02606 0.46543 0.0
C859 C 0.70068 0.04724 0.47493 0.0
C860 C 0.73681 0.01869 0.47593 0.0
C861 C 0.79056 0.04809 0.50947 0.0
H862 H 0.81788 0.98027 0.50853 0.0
C863 C 0.89476 0.02717 0.53624 0.0
C864 C 0.90789 0.01139 0.5193 0.0
C865 C 0.86839 0.02967 0.53457 0.0
C866 C 0.81048 -0.00069 0.50884 0.0
H867 H 0.70115 0.07588 0.50448 0.0
H868 H 0.74103 0.06235 0.5234 0.0
H869 H 0.77257 0.98684 0.50074 0.0
H870 H 0.90345 0.98555 0.48752 0.0
H871 H 0.85748 0.99007 0.48453 0.0
H872 H 0.82846 0.0606 0.51714 0.0
C873 C 0.73357 0.05192 0.50729 0.0
C874 C 0.78455 0.00308 0.50439 0.0
C875 C 0.71045 0.05944 0.49665 0.0
C876 C 0.89398 0.99794 0.50083 0.0
C877 C 0.8676 0.00033 0.49926 0.0
C878 C 0.81639 0.0443 0.51406 0.0
C879 C 0.74758 0.03219 0.49634 0.0
C880 C 0.77436 0.02758 0.5042 0.0
C881 C 0.85454 0.01632 0.51601 0.0
C882 C 0.82672 0.01993 0.51334 0.0
H883 H 0.70632 0.01591 0.44904 0.0
H884 H 0.74703 0.00339 0.46697 0.0
H885 H 0.78355 0.06727 0.50896 0.0
H886 H 0.90484 0.03773 0.55078 0.0
H887 H 0.8588 0.04199 0.54786 0.0
C888 C 0.30118 0.58701 0.05477 0.0
C889 C 0.31725 0.56592 0.05489 0.0
C890 C 0.27529 0.58429 0.04952 0.0
C891 C 0.22394 0.53602 0.04644 0.0
H892 H 0.18844 0.58827 0.00886 0.0
C893 C 0.12228 0.5231 0.00726 0.0
C894 C 0.10498 0.54231 0.01337 0.0
C895 C 0.14825 0.52636 0.01171 0.0
C896 C 0.19812 0.57362 0.01949 0.0
H897 H 0.31905 0.52553 0.04924 0.0
H898 H 0.27401 0.52075 0.03925 0.0
H899 H 0.23379 0.59288 0.01756 0.0
H900 H 0.10146 0.58029 0.02827 0.0
H901 H 0.14704 0.58612 0.03559 0.0
H902 H 0.18826 0.51654 0.04771 0.0
C903 C 0.28115 0.53935 0.04392 0.0
C904 C 0.22407 0.57627 0.02461 0.0
C905 C 0.30699 0.54205 0.04953 0.0
C906 C 0.1143 0.56511 0.02342 0.0
C907 C 0.14036 0.5685 0.02752 0.0
C908 C 0.19809 0.53323 0.041 0.0
C909 C 0.26492 0.56043 0.04392 0.0
C910 C 0.23732 0.55753 0.03822 0.0
C911 C 0.15751 0.54902 0.02201 0.0
C912 C 0.18494 0.55202 0.02754 0.0
H913 H 0.30859 0.6056 0.05915 0.0
H914 H 0.26337 0.60088 0.05022 0.0
H915 H 0.2333 0.52144 0.05741 0.0
H916 H 0.11574 0.50527 -0.00045 0.0
H917 H 0.16113 0.51113 0.0071 0.0
C918 C 0.19767 0.46862 0.55213 0.0
C919 C 0.18706 0.4443 0.55069 0.0
C920 C 0.22136 0.47364 0.54123 0.0
C921 C 0.28005 0.44201 0.5343 0.0
H922 H 0.30157 0.49574 0.48912 0.0
C923 C 0.3853 0.45363 0.50891 0.0
C924 C 0.39482 0.47817 0.5059 0.0
C925 C 0.35918 0.44942 0.51063 0.0
C926 C 0.29595 0.48084 0.50205 0.0
H927 H 0.19221 0.4066 0.53559 0.0
H928 H 0.23372 0.41533 0.51696 0.0
H929 H 0.25631 0.48962 0.49777 0.0
H930 H 0.38467 0.51758 0.50231 0.0
H931 H 0.33918 0.51051 0.50683 0.0
H932 H 0.31923 0.43398 0.54014 0.0
C933 C 0.22356 0.43049 0.52624 0.0
C934 C 0.27003 0.47727 0.50676 0.0
C935 C 0.19977 0.42558 0.53675 0.0
C936 C 0.37777 0.49844 0.50452 0.0
C937 C 0.35165 0.49431 0.50689 0.0
C938 C 0.30588 0.4459 0.53009 0.0
C939 C 0.23488 0.45429 0.52914 0.0
C940 C 0.26196 0.45776 0.52286 0.0
C941 C 0.34198 0.46974 0.5101 0.0
C942 C 0.31426 0.46535 0.51389 0.0
H943 H 0.18822 0.48336 0.56275 0.0
H944 H 0.22986 0.4921 0.54377 0.0
H945 H 0.27422 0.42712 0.54718 0.0
H946 H 0.39803 0.43762 0.50962 0.0
H947 H 0.35253 0.43016 0.51237 0.0
C948 C 0.95229 0.8156 0.94823 0.0
C949 C 0.94957 0.83113 0.96967 0.0
C950 C 0.95719 0.78989 0.95109 0.0
C951 C 0.95496 0.7379 -0.00118 0.0
H952 H 0.99788 0.70415 0.9496 0.0
C953 C 0.99478 0.63713 0.01262 0.0
C954 C 0.99103 0.62051 0.99208 0.0
C955 C 0.98951 0.6628 0.00997 0.0
C956 C 0.98575 0.71334 0.96338 0.0
H957 H 0.9501 0.83221 0.01087 0.0
H958 H 0.95962 0.78745 0.016 0.0
H959 H 0.98972 0.74918 0.94522 0.0
H960 H 0.97911 0.61784 0.95258 0.0
H961 H 0.97045 0.66292 0.94784 0.0
H962 H 0.95179 0.70199 0.01734 0.0
C963 C 0.95724 0.79487 0.99693 0.0
C964 C 0.98093 0.73912 0.96084 0.0
C965 C 0.95193 0.82054 0.99405 0.0
C966 C 0.98212 0.63016 0.96876 0.0
C967 C 0.97728 0.65593 0.966 0.0
C968 C 0.96014 0.7122 0.00156 0.0
C969 C 0.95987 0.77916 0.97548 0.0
C970 C 0.96535 0.75175 0.97845 0.0
C971 C 0.98081 0.67244 0.98662 0.0
C972 C 0.97547 0.69968 0.9838 0.0
H973 H 0.95019 0.82328 0.92921 0.0
H974 H 0.9585 0.77839 0.93411 0.0
H975 H 0.9425 0.74677 0.01248 0.0
H976 H 0.00154 0.63026 0.03085 0.0
H977 H 0.99253 0.6752 0.0261 0.0
C978 C 0.47731 0.70305 0.06841 0.0
C979 C 0.45232 0.69358 0.06829 0.0
C980 C 0.48198 0.72883 0.06523 0.0
C981 C 0.45052 0.78837 0.04391 0.0
H982 H 0.50768 0.81965 0.0785 0.0
C983 C 0.46522 0.89632 0.05265 0.0
C984 C 0.48823 0.90488 0.04221 0.0
C985 C 0.46105 0.87056 0.05647 0.0
C986 C 0.49168 0.81106 0.06874 0.0
H987 H 0.41264 0.70416 0.06427 0.0
H988 H 0.42063 0.74892 0.06057 0.0
H989 H 0.49973 0.77461 0.08406 0.0
H990 H 0.52521 0.89335 0.02836 0.0
H991 H 0.51813 0.84831 0.03588 0.0
H992 H 0.44207 0.82525 0.02947 0.0
C993 C 0.43678 0.73644 0.06234 0.0
C994 C 0.48721 0.78523 0.07171 0.0
C995 C 0.43215 0.71065 0.06499 0.0
C996 C 0.50725 0.88726 0.03633 0.0
C997 C 0.50328 0.86157 0.04071 0.0
C998 C 0.4547 0.81426 0.04142 0.0
C999 C 0.46176 0.74592 0.06231 0.0
C1000 C 0.4666 0.77348 0.05924 0.0
C1001 C 0.48004 0.85302 0.05049 0.0
C1002 C 0.47536 0.82576 0.05373 0.0
H1003 H 0.49337 0.69063 0.07122 0.0
H1004 H 0.50151 0.73526 0.0649 0.0
H1005 H 0.43483 0.78004 0.03349 0.0
H1006 H 0.4502 0.90947 0.05725 0.0
H1007 H 0.443 0.8643 0.0641 0.0
C1008 C 0.04861 0.28868 0.58361 0.0
C1009 C 0.07047 0.29918 0.57251 0.0
C1010 C 0.04056 0.26443 0.57691 0.0
C1011 C 0.06764 0.20544 0.55357 0.0
H1012 H 0.9975 0.18365 0.54761 0.0
C1013 C 0.04205 0.1032 0.52838 0.0
C1014 C 0.02196 0.09189 0.54181 0.0
C1015 C 0.04656 0.12905 0.5303 0.0
C1016 C 0.01716 0.18944 0.54946 0.0
H1017 H 0.09986 0.29344 0.5443 0.0
H1018 H 0.08574 0.25116 0.5325 0.0
H1019 H 0.00721 0.22847 0.553 0.0
H1020 H 0.99072 0.09899 0.56767 0.0
H1021 H -0.00104 0.14415 0.57144 0.0
H1022 H 0.0777 0.16658 0.55061 0.0
C1023 C 0.07516 0.26142 0.54678 0.0
C1024 C 0.02271 0.21509 0.55246 0.0
C1025 C 0.08321 0.28561 0.55349 0.0
C1026 C 0.00636 0.10711 0.55708 0.0
C1027 C 0.01096 0.13302 0.55909 0.0
C1028 C 0.06212 0.17988 0.55067 0.0
C1029 C 0.05422 0.25027 0.55898 0.0
C1030 C 0.04803 0.22333 0.55456 0.0
C1031 C 0.03121 0.14425 0.54582 0.0
C1032 C 0.03683 0.17156 0.5486 0.0
H1033 H 0.03853 0.29862 0.59848 0.0
H1034 H 0.02445 0.25628 0.58676 0.0
H1035 H 0.08732 0.21111 0.55573 0.0
H1036 H 0.0543 0.09212 0.51623 0.0
H1037 H 0.06205 0.13717 0.51949 0.0
C1038 C 0.558 0.20074 0.48389 0.0
C1039 C 0.55862 0.19048 0.45921 0.0
C1040 C 0.54771 0.22471 0.488 0.0
C1041 C 0.54358 0.28409 0.45596 0.0
H1042 H 0.49242 0.30355 0.50503 0.0
C1043 C 0.50993 0.38673 0.46194 0.0
C1044 C 0.50399 0.39659 0.48597 0.0
C1045 C 0.51416 0.36093 0.45885 0.0
C1046 C 0.50701 0.29852 0.4915 0.0
H1047 H 0.54827 0.19687 0.4197 0.0
H1048 H 0.53067 0.23875 0.4269 0.0
H1049 H 0.50364 0.25905 0.50026 0.0
H1050 H 0.49776 0.38722 0.52566 0.0
H1051 H 0.50634 0.34241 0.52059 0.0
H1052 H 0.54813 0.32321 0.44786 0.0
C1053 C 0.53788 0.22815 0.44302 0.0
C1054 C 0.51326 0.27303 0.4887 0.0
C1055 C 0.54776 0.20412 0.43898 0.0
C1056 C 0.50217 0.38011 0.50685 0.0
C1057 C 0.50693 0.35435 0.50388 0.0
C1058 C 0.53775 0.30953 0.45907 0.0
C1059 C 0.53835 0.23888 0.46742 0.0
C1060 C 0.53144 0.26565 0.47075 0.0
C1061 C 0.51313 0.34441 0.47985 0.0
C1062 C 0.51924 0.31714 0.47674 0.0
H1063 H 0.56624 0.1906 0.49979 0.0
H1064 H 0.54832 0.23271 0.50697 0.0
H1065 H 0.55799 0.27884 0.44228 0.0
H1066 H 0.51114 0.39895 0.44543 0.0
H1067 H 0.51819 0.35399 0.43991 0.0
loop_
_geom_bond_atom_site_label_1
_geom_bond_atom_site_label_2
_geom_bond_distance
_geom_bond_site_symmetry_2
_ccdc_geom_bond_type
P0 O11 1.490 . S
P0 C14 1.812 . S
P0 C20 1.803 . S
P0 C26 1.819 . S
H1 C15 0.941 . S
H2 C16 0.939 . S
H3 C18 0.940 . S
H4 C19 0.940 . S
H5 C21 0.939 . S
H6 C22 0.942 . S
H7 C24 0.940 . S
H8 C25 0.939 . S
H9 C27 0.941 . S
H10 C31 0.939 . S
O11 P0 1.490 . S
H12 C28 0.939 . S
H13 C30 0.940 . S
C14 P0 1.812 . S
C14 C15 1.389 . S
C14 C19 1.391 . S
C15 H1 0.941 . S
C15 C14 1.389 . S
C15 C16 1.397 . S
C16 H2 0.939 . S
C16 C15 1.397 . S
C16 C17 1.378 . S
C17 C16 1.378 . S
C17 C18 1.378 . S
C18 H3 0.940 . S
C18 C17 1.378 . S
C18 C19 1.396 . S
C19 H4 0.940 . S
C19 C14 1.391 . S
C19 C18 1.396 . S
C20 P0 1.803 . S
C20 C21 1.378 . S
C20 C25 1.400 . S
C21 H5 0.939 . S
C21 C20 1.378 . S
C21 C22 1.361 . S
C22 H6 0.942 . S
C22 C21 1.361 . S
C22 C23 1.369 . S
C23 C22 1.369 . S
C23 C24 1.404 . S
C24 H7 0.940 . S
C24 C23 1.404 . S
C24 C25 1.389 . S
C25 H8 0.939 . S
C25 C20 1.400 . S
C25 C24 1.389 . S
C26 P0 1.819 . S
C26 C27 1.391 . S
C26 C31 1.391 . S
C27 H9 0.941 . S
C27 C26 1.391 . S
C27 C28 1.396 . S
C28 H12 0.939 . S
C28 C27 1.396 . S
C28 C29 1.397 . S
C29 C28 1.397 . S
C29 C30 1.385 . S
C30 H13 0.940 . S
C30 C29 1.385 . S
C30 C31 1.388 . S
C31 H10 0.939 . S
C31 C26 1.391 . S
C31 C30 1.388 . S
P32 O43 1.490 . S
P32 C46 1.812 . S
P32 C52 1.803 . S
P32 C58 1.819 . S
H33 C47 0.941 . S
H34 C48 0.939 . S
H35 C50 0.940 . S
H36 C51 0.940 . S
H37 C53 0.939 . S
H38 C54 0.942 . S
H39 C56 0.940 . S
H40 C57 0.939 . S
H41 C59 0.941 . S
H42 C63 0.939 . S
O43 P32 1.490 . S
H44 C60 0.939 . S
H45 C62 0.940 . S
C46 P32 1.812 . S
C46 C47 1.389 . S
C46 C51 1.391 . S
C47 H33 0.941 . S
C47 C46 1.389 . S
C47 C48 1.397 . S
C48 H34 0.939 . S
C48 C47 1.397 . S
C48 C49 1.378 . S
C49 C48 1.378 . S
C49 C50 1.378 . S
C50 H35 0.940 . S
C50 C49 1.378 . S
C50 C51 1.396 . S
C51 H36 0.940 . S
C51 C46 1.391 . S
C51 C50 1.396 . S
C52 P32 1.803 . S
C52 C53 1.378 . S
C52 C57 1.400 . S
C53 H37 0.939 . S
C53 C52 1.378 . S
C53 C54 1.361 . S
C54 H38 0.942 . S
C54 C53 1.361 . S
C54 C55 1.369 . S
C55 C54 1.369 . S
C55 C56 1.404 . S
C56 H39 0.940 . S
C56 C55 1.404 . S
C56 C57 1.389 . S
C57 H40 0.939 . S
C57 C52 1.400 . S
C57 C56 1.389 . S
C58 P32 1.819 . S
C58 C59 1.391 . S
C58 C63 1.391 . S
C59 H41 0.941 . S
C59 C58 1.391 . S
C59 C60 1.396 . S
C60 H44 0.939 . S
C60 C59 1.396 . S
C60 C61 1.397 . S
C61 C60 1.397 . S
C61 C62 1.385 . S
C62 H45 0.940 . S
C62 C61 1.385 . S
C62 C63 1.388 . S
C63 H42 0.939 . S
C63 C58 1.391 . S
C63 C62 1.388 . S
P64 O75 1.490 . S
P64 C78 1.812 . S
P64 C84 1.803 . S
P64 C90 1.819 . S
H65 C79 0.941 . S
H66 C80 0.939 . S
H67 C82 0.940 . S
H68 C83 0.940 . S
H69 C85 0.939 . S
H70 C86 0.942 . S
H71 C88 0.940 . S
H72 C89 0.939 . S
H73 C91 0.941 . S
H74 C95 0.939 . S
O75 P64 1.490 . S
H76 C92 0.939 . S
H77 C94 0.940 . S
C78 P64 1.812 . S
C78 C79 1.389 . S
C78 C83 1.391 . S
C79 H65 0.941 . S
C79 C78 1.389 . S
C79 C80 1.397 . S
C80 H66 0.939 . S
C80 C79 1.397 . S
C80 C81 1.378 . S
C81 C80 1.378 . S
C81 C82 1.378 . S
C82 H67 0.940 . S
C82 C81 1.378 . S
C82 C83 1.396 . S
C83 H68 0.940 . S
C83 C78 1.391 . S
C83 C82 1.396 . S
C84 P64 1.803 . S
C84 C85 1.378 . S
C84 C89 1.400 . S
C85 H69 0.939 . S
C85 C84 1.378 . S
C85 C86 1.361 . S
C86 H70 0.942 . S
C86 C85 1.361 . S
C86 C87 1.369 . S
C87 C86 1.369 . S
C87 C88 1.404 . S
C88 H71 0.940 . S
C88 C87 1.404 . S
C88 C89 1.389 . S
C89 H72 0.939 . S
C89 C84 1.400 . S
C89 C88 1.389 . S
C90 P64 1.819 . S
C90 C91 1.391 . S
C90 C95 1.391 . S
C91 H73 0.941 . S
C91 C90 1.391 . S
C91 C92 1.396 . S
C92 H76 0.939 . S
C92 C91 1.396 . S
C92 C93 1.397 . S
C93 C92 1.397 . S
C93 C94 1.385 . S
C94 H77 0.940 . S
C94 C93 1.385 . S
C94 C95 1.388 . S
C95 H74 0.939 . S
C95 C90 1.391 . S
C95 C94 1.388 . S
P96 O107 1.490 . S
P96 C110 1.812 . S
P96 C116 1.803 . S
P96 C122 1.819 . S
H97 C111 0.941 . S
H98 C112 0.939 . S
H99 C114 0.940 . S
H100 C115 0.940 . S
H101 C117 0.939 . S
H102 C118 0.942 . S
H103 C120 0.940 . S
H104 C121 0.939 . S
H105 C123 0.941 . S
H106 C127 0.939 . S
O107 P96 1.490 . S
H108 C124 0.939 . S
H109 C126 0.940 . S
C110 P96 1.812 . S
C110 C111 1.389 . S
C110 C115 1.391 . S
C111 H97 0.941 . S
C111 C110 1.389 . S
C111 C112 1.397 . S
C112 H98 0.939 . S
C112 C111 1.397 . S
C112 C113 1.378 . S
C113 C112 1.378 . S
C113 C114 1.378 . S
C114 H99 0.940 . S
C114 C113 1.378 . S
C114 C115 1.396 . S
C115 H100 0.940 . S
C115 C110 1.391 . S
C115 C114 1.396 . S
C116 P96 1.803 . S
C116 C117 1.378 . S
C116 C121 1.400 . S
C117 H101 0.939 . S
C117 C116 1.378 . S
C117 C118 1.361 . S
C118 H102 0.942 . S
C118 C117 1.361 . S
C118 C119 1.369 . S
C119 C118 1.369 . S
C119 C120 1.404 . S
C120 H103 0.940 . S
C120 C119 1.404 . S
C120 C121 1.389 . S
C121 H104 0.939 . S
C121 C116 1.400 . S
C121 C120 1.389 . S
C122 P96 1.819 . S
C122 C123 1.391 . S
C122 C127 1.391 . S
C123 H105 0.941 . S
C123 C122 1.391 . S
C123 C124 1.396 . S
C124 H108 0.939 . S
C124 C123 1.396 . S
C124 C125 1.397 . S
C125 C124 1.397 . S
C125 C126 1.385 . S
C126 H109 0.940 . S
C126 C125 1.385 . S
C126 C127 1.388 . S
C127 H106 0.939 . S
C127 C122 1.391 . S
C127 C126 1.388 . S
P128 O139 1.490 . S
P128 C142 1.812 . S
P128 C148 1.803 . S
P128 C154 1.819 . S
H129 C143 0.941 . S
H130 C144 0.939 . S
H131 C146 0.940 . S
H132 C147 0.940 . S
H133 C149 0.939 . S
H134 C150 0.942 . S
H135 C152 0.940 . S
H136 C153 0.939 . S
H137 C155 0.941 . S
H138 C159 0.939 . S
O139 P128 1.490 . S
H140 C156 0.939 . S
H141 C158 0.940 . S
C142 P128 1.812 . S
C142 C143 1.389 . S
C142 C147 1.391 . S
C143 H129 0.941 . S
C143 C142 1.389 . S
C143 C144 1.397 . S
C144 H130 0.939 . S
C144 C143 1.397 . S
C144 C145 1.378 . S
C145 C144 1.378 . S
C145 C146 1.378 . S
C146 H131 0.940 . S
C146 C145 1.378 . S
C146 C147 1.396 . S
C147 H132 0.940 . S
C147 C142 1.391 . S
C147 C146 1.396 . S
C148 P128 1.803 . S
C148 C149 1.378 . S
C148 C153 1.400 . S
C149 H133 0.939 . S
C149 C148 1.378 . S
C149 C150 1.361 . S
C150 H134 0.942 . S
C150 C149 1.361 . S
C150 C151 1.369 . S
C151 C150 1.369 . S
C151 C152 1.404 . S
C152 H135 0.940 . S
C152 C151 1.404 . S
C152 C153 1.389 . S
C153 H136 0.939 . S
C153 C148 1.400 . S
C153 C152 1.389 . S
C154 P128 1.819 . S
C154 C155 1.391 . S
C154 C159 1.391 . S
C155 H137 0.941 . S
C155 C154 1.391 . S
C155 C156 1.396 . S
C156 H140 0.939 . S
C156 C155 1.396 . S
C156 C157 1.397 . S
C157 C156 1.397 . S
C157 C158 1.385 . S
C158 H141 0.940 . S
C158 C157 1.385 . S
C158 C159 1.388 . S
C159 H138 0.939 . S
C159 C154 1.391 . S
C159 C158 1.388 . S
P160 O171 1.490 . S
P160 C174 1.812 . S
P160 C180 1.803 . S
P160 C186 1.819 . S
H161 C175 0.941 . S
H162 C176 0.939 . S
H163 C178 0.940 . S
H164 C179 0.940 . S
H165 C181 0.939 . S
H166 C182 0.942 . S
H167 C184 0.940 . S
H168 C185 0.939 . S
H169 C187 0.941 . S
H170 C191 0.939 . S
O171 P160 1.490 . S
H172 C188 0.939 . S
H173 C190 0.940 . S
C174 P160 1.812 . S
C174 C175 1.389 . S
C174 C179 1.391 . S
C175 H161 0.941 . S
C175 C174 1.389 . S
C175 C176 1.397 . S
C176 H162 0.939 . S
C176 C175 1.397 . S
C176 C177 1.378 . S
C177 C176 1.378 . S
C177 C178 1.378 . S
C178 H163 0.940 . S
C178 C177 1.378 . S
C178 C179 1.396 . S
C179 H164 0.940 . S
C179 C174 1.391 . S
C179 C178 1.396 . S
C180 P160 1.803 . S
C180 C181 1.378 . S
C180 C185 1.400 . S
C181 H165 0.939 . S
C181 C180 1.378 . S
C181 C182 1.361 . S
C182 H166 0.942 . S
C182 C181 1.361 . S
C182 C183 1.369 . S
C183 C182 1.369 . S
C183 C184 1.404 . S
C184 H167 0.940 . S
C184 C183 1.404 . S
C184 C185 1.389 . S
C185 H168 0.939 . S
C185 C180 1.400 . S
C185 C184 1.389 . S
C186 P160 1.819 . S
C186 C187 1.391 . S
C186 C191 1.391 . S
C187 H169 0.941 . S
C187 C186 1.391 . S
C187 C188 1.396 . S
C188 H172 0.939 . S
C188 C187 1.396 . S
C188 C189 1.397 . S
C189 C188 1.397 . S
C189 C190 1.385 . S
C190 H173 0.940 . S
C190 C189 1.385 . S
C190 C191 1.388 . S
C191 H170 0.939 . S
C191 C186 1.391 . S
C191 C190 1.388 . S
P192 O203 1.490 . S
P192 C206 1.812 . S
P192 C212 1.803 . S
P192 C218 1.819 . S
H193 C207 0.941 . S
H194 C208 0.939 . S
H195 C210 0.940 . S
H196 C211 0.940 . S
H197 C213 0.939 . S
H198 C214 0.942 . S
H199 C216 0.940 . S
H200 C217 0.939 . S
H201 C219 0.941 . S
H202 C223 0.939 . S
O203 P192 1.490 . S
H204 C220 0.939 . S
H205 C222 0.940 . S
C206 P192 1.812 . S
C206 C207 1.389 . S
C206 C211 1.391 . S
C207 H193 0.941 . S
C207 C206 1.389 . S
C207 C208 1.397 . S
C208 H194 0.939 . S
C208 C207 1.397 . S
C208 C209 1.378 . S
C209 C208 1.378 . S
C209 C210 1.378 . S
C210 H195 0.940 . S
C210 C209 1.378 . S
C210 C211 1.396 . S
C211 H196 0.940 . S
C211 C206 1.391 . S
C211 C210 1.396 . S
C212 P192 1.803 . S
C212 C213 1.378 . S
C212 C217 1.400 . S
C213 H197 0.939 . S
C213 C212 1.378 . S
C213 C214 1.361 . S
C214 H198 0.942 . S
C214 C213 1.361 . S
C214 C215 1.369 . S
C215 C214 1.369 . S
C215 C216 1.404 . S
C216 H199 0.940 . S
C216 C215 1.404 . S
C216 C217 1.389 . S
C217 H200 0.939 . S
C217 C212 1.400 . S
C217 C216 1.389 . S
C218 P192 1.819 . S
C218 C219 1.391 . S
C218 C223 1.391 . S
C219 H201 0.941 . S
C219 C218 1.391 . S
C219 C220 1.396 . S
C220 H204 0.939 . S
C220 C219 1.396 . S
C220 C221 1.397 . S
C221 C220 1.397 . S
C221 C222 1.385 . S
C222 H205 0.940 . S
C222 C221 1.385 . S
C222 C223 1.388 . S
C223 H202 0.939 . S
C223 C218 1.391 . S
C223 C222 1.388 . S
P224 O235 1.490 . S
P224 C238 1.812 . S
P224 C244 1.803 . S
P224 C250 1.819 . S
H225 C239 0.941 . S
H226 C240 0.939 . S
H227 C242 0.940 . S
H228 C243 0.940 . S
H229 C245 0.939 . S
H230 C246 0.942 . S
H231 C248 0.940 . S
H232 C249 0.939 . S
H233 C251 0.941 . S
H234 C255 0.939 . S
O235 P224 1.490 . S
H236 C252 0.939 . S
H237 C254 0.940 . S
C238 P224 1.812 . S
C238 C239 1.389 . S
C238 C243 1.391 . S
C239 H225 0.941 . S
C239 C238 1.389 . S
C239 C240 1.397 . S
C240 H226 0.939 . S
C240 C239 1.397 . S
C240 C241 1.378 . S
C241 C240 1.378 . S
C241 C242 1.378 . S
C242 H227 0.940 . S
C242 C241 1.378 . S
C242 C243 1.396 . S
C243 H228 0.940 . S
C243 C238 1.391 . S
C243 C242 1.396 . S
C244 P224 1.803 . S
C244 C245 1.378 . S
C244 C249 1.400 . S
C245 H229 0.939 . S
C245 C244 1.378 . S
C245 C246 1.361 . S
C246 H230 0.942 . S
C246 C245 1.361 . S
C246 C247 1.369 . S
C247 C246 1.369 . S
C247 C248 1.404 . S
C248 H231 0.940 . S
C248 C247 1.404 . S
C248 C249 1.389 . S
C249 H232 0.939 . S
C249 C244 1.400 . S
C249 C248 1.389 . S
C250 P224 1.819 . S
C250 C251 1.391 . S
C250 C255 1.391 . S
C251 H233 0.941 . S
C251 C250 1.391 . S
C251 C252 1.396 . S
C252 H236 0.939 . S
C252 C251 1.396 . S
C252 C253 1.397 . S
C253 C252 1.397 . S
C253 C254 1.385 . S
C254 H237 0.940 . S
C254 C253 1.385 . S
C254 C255 1.388 . S
C255 H234 0.939 . S
C255 C250 1.391 . S
C255 C254 1.388 . S
O256 Zn257 1.953 . S
O256 C272 1.225 1_655 S
Zn257 O256 1.953 . S
Zn257 O258 1.949 1_655 S
Zn257 O264 1.919 . S
Zn257 O269 1.924 . S
O258 Zn257 1.949 1_455 S
O258 Zn259 1.923 1_445 S
O258 Zn260 1.950 . S
O258 Zn261 1.945 1_545 S
Zn259 O258 1.923 1_665 S
Zn259 O262 1.933 . S
Zn259 O265 1.941 1_565 S
Zn259 O266 1.965 1_665 S
Zn260 O258 1.950 . S
Zn260 O267 1.938 . S
Zn260 O268 1.906 1_545 S
Zn260 O278 1.953 . S
Zn261 O258 1.945 1_565 S
Zn261 O263 1.932 1_455 S
Zn261 O270 1.977 . S
Zn261 O271 1.910 1_455 S
O262 Zn259 1.933 . S
O262 C273 1.226 . S
O263 Zn261 1.932 1_655 S
O263 C273 1.307 . S
O264 Zn257 1.919 . S
O264 C275 1.253 . S
O265 Zn259 1.941 1_545 S
O265 C275 1.283 . S
O266 Zn259 1.965 1_445 S
O266 C274 1.303 . S
O267 Zn260 1.938 . S
O267 C274 1.247 . S
O268 Zn260 1.906 1_565 S
O268 C276 1.304 . S
O269 Zn257 1.924 . S
O269 C277 1.311 1_545 S
O270 Zn261 1.977 . S
O270 C276 1.272 . S
O271 Zn261 1.910 1_655 S
O271 C277 1.231 . S
C272 O256 1.225 1_455 S
C272 O278 1.298 . S
C273 O262 1.226 . S
C273 O263 1.307 . S
C274 O266 1.303 . S
C274 O267 1.247 . S
C275 O264 1.253 . S
C275 O265 1.283 . S
C276 O268 1.304 . S
C276 O270 1.272 . S
C277 O269 1.311 1_565 S
C277 O271 1.231 . S
O278 Zn260 1.953 . S
O278 C272 1.298 . S
O279 Zn280 1.953 . S
O279 C295 1.225 1_556 S
Zn280 O279 1.953 . S
Zn280 O281 1.949 1_556 S
Zn280 O287 1.919 . S
Zn280 O292 1.924 1_556 S
O281 Zn280 1.949 1_554 S
O281 Zn282 1.923 1_545 S
O281 Zn283 1.950 . S
O281 Zn284 1.944 1_545 S
Zn282 O281 1.923 1_565 S
Zn282 O285 1.933 . S
Zn282 O288 1.941 1_554 S
Zn282 O289 1.965 . S
Zn283 O281 1.950 . S
Zn283 O290 1.938 . S
Zn283 O291 1.906 . S
Zn283 O301 1.953 . S
Zn284 O281 1.944 1_565 S
Zn284 O286 1.936 . S
Zn284 O293 1.975 1_565 S
Zn284 O294 1.908 1_565 S
O285 Zn282 1.933 . S
O285 C296 1.226 . S
O286 Zn284 1.936 . S
O286 C296 1.307 . S
O287 Zn280 1.919 . S
O287 C298 1.253 1_545 S
O288 Zn282 1.941 1_556 S
O288 C298 1.283 . S
O289 Zn282 1.965 . S
O289 C297 1.303 . S
O290 Zn283 1.938 . S
O290 C297 1.247 1_545 S
O291 Zn283 1.906 . S
O291 C299 1.304 . S
O292 Zn280 1.924 1_554 S
O292 C300 1.311 . S
O293 Zn284 1.975 1_545 S
O293 C299 1.272 . S
O294 Zn284 1.908 1_545 S
O294 C300 1.231 . S
C295 O279 1.225 1_554 S
C295 O301 1.298 . S
C296 O285 1.226 . S
C296 O286 1.307 . S
C297 O289 1.303 . S
C297 O290 1.247 1_565 S
C298 O287 1.253 1_565 S
C298 O288 1.283 . S
C299 O291 1.304 . S
C299 O293 1.272 . S
C300 O292 1.311 . S
C300 O294 1.231 . S
O301 Zn283 1.953 . S
O301 C295 1.298 . S
O302 Zn303 1.953 . S
O302 C318 1.225 . S
Zn303 O302 1.953 . S
Zn303 O304 1.949 . S
Zn303 O310 1.919 . S
Zn303 O315 1.924 . S
O304 Zn303 1.949 . S
O304 Zn305 1.923 . S
O304 Zn306 1.950 . S
O304 Zn307 1.945 . S
Zn305 O304 1.923 . S
Zn305 O308 1.933 . S
Zn305 O311 1.941 . S
Zn305 O312 1.965 . S
Zn306 O304 1.950 . S
Zn306 O313 1.938 . S
Zn306 O314 1.906 . S
Zn306 O324 1.953 . S
Zn307 O304 1.945 . S
Zn307 O309 1.932 . S
Zn307 O316 1.977 . S
Zn307 O317 1.910 . S
O308 Zn305 1.933 . S
O308 C319 1.226 . S
O309 Zn307 1.932 . S
O309 C319 1.307 . S
O310 Zn303 1.919 . S
O310 C321 1.253 . S
O311 Zn305 1.941 . S
O311 C321 1.283 . S
O312 Zn305 1.965 . S
O312 C320 1.303 . S
O313 Zn306 1.938 . S
O313 C320 1.247 . S
O314 Zn306 1.906 . S
O314 C322 1.304 . S
O315 Zn303 1.924 . S
O315 C323 1.311 . S
O316 Zn307 1.977 . S
O316 C322 1.272 . S
O317 Zn307 1.910 . S
O317 C323 1.231 . S
C318 O302 1.225 . S
C318 O324 1.298 . S
C319 O308 1.226 . S
C319 O309 1.307 . S
C320 O312 1.303 . S
C320 O313 1.247 . S
C321 O310 1.253 . S
C321 O311 1.283 . S
C322 O314 1.304 . S
C322 O316 1.272 . S
C323 O315 1.311 . S
C323 O317 1.231 . S
O324 Zn306 1.953 . S
O324 C318 1.298 . S
O325 Zn326 1.953 . S
O325 C341 1.225 . S
Zn326 O325 1.953 . S
Zn326 O327 1.949 1_655 S
Zn326 O333 1.919 . S
Zn326 O338 1.924 . S
O327 Zn326 1.949 1_455 S
O327 Zn328 1.923 1_454 S
O327 Zn329 1.950 . S
O327 Zn330 1.945 1_554 S
Zn328 O327 1.923 1_656 S
Zn328 O331 1.933 1_655 S
Zn328 O334 1.941 . S
Zn328 O335 1.965 . S
Zn329 O327 1.950 . S
Zn329 O336 1.938 . S
Zn329 O337 1.906 . S
Zn329 O347 1.953 . S
Zn330 O327 1.945 1_556 S
Zn330 O332 1.932 . S
Zn330 O339 1.977 1_556 S
Zn330 O340 1.910 1_556 S
O331 Zn328 1.933 1_455 S
O331 C342 1.226 . S
O332 Zn330 1.932 . S
O332 C342 1.307 . S
O333 Zn326 1.919 . S
O333 C344 1.253 1_554 S
O334 Zn328 1.941 . S
O334 C344 1.283 . S
O335 Zn328 1.965 . S
O335 C343 1.303 . S
O336 Zn329 1.938 . S
O336 C343 1.247 1_454 S
O337 Zn329 1.906 . S
O337 C345 1.304 . S
O338 Zn326 1.924 . S
O338 C346 1.311 1_655 S
O339 Zn330 1.977 1_554 S
O339 C345 1.272 . S
O340 Zn330 1.910 1_554 S
O340 C346 1.231 . S
C341 O325 1.225 . S
C341 O347 1.298 1_655 S
C342 O331 1.226 . S
C342 O332 1.307 . S
C343 O335 1.303 . S
C343 O336 1.247 1_656 S
C344 O333 1.253 1_556 S
C344 O334 1.283 . S
C345 O337 1.304 . S
C345 O339 1.272 . S
C346 O338 1.311 1_455 S
C346 O340 1.231 . S
O347 Zn329 1.953 . S
O347 C341 1.298 1_455 S
C348 C349 1.349 . S
C348 C350 1.327 . S
C348 H373 0.950 . S
C349 C348 1.349 . S
C349 C365 1.349 . S
C350 C348 1.327 . S
C350 C369 1.429 . S
C350 H374 0.950 . S
C351 C368 1.574 . S
C351 C370 1.368 . S
C351 H375 0.949 . S
H352 C356 0.949 . S
C353 C354 1.349 . S
C353 C355 1.327 . S
C353 H376 0.950 . S
C354 C353 1.349 . S
C354 C366 1.349 . S
C355 C353 1.327 . S
C355 C371 1.429 . S
C355 H377 0.950 . S
C356 H352 0.949 . S
C356 C364 1.574 . S
C356 C372 1.368 . S
H357 C365 0.950 . S
H358 C363 0.950 . S
H359 C364 0.949 . S
H360 C366 0.950 . S
H361 C367 0.950 . S
H362 C368 0.949 . S
C363 H358 0.950 . S
C363 C365 1.327 . S
C363 C369 1.429 . S
C364 C356 1.574 . S
C364 H359 0.949 . S
C364 C370 1.368 . S
C365 C349 1.349 . S
C365 H357 0.950 . S
C365 C363 1.327 . S
C366 C354 1.349 . S
C366 H360 0.950 . S
C366 C367 1.327 . S
C367 H361 0.950 . S
C367 C366 1.327 . S
C367 C371 1.429 . S
C368 C351 1.574 . S
C368 H362 0.949 . S
C368 C372 1.368 . S
C369 C350 1.429 . S
C369 C363 1.429 . S
C369 C370 1.523 . S
C370 C351 1.368 . S
C370 C364 1.368 . S
C370 C369 1.523 . S
C371 C355 1.429 . S
C371 C367 1.429 . S
C371 C372 1.523 . S
C372 C356 1.368 . S
C372 C368 1.368 . S
C372 C371 1.523 . S
H373 C348 0.950 . S
H374 C350 0.950 . S
H375 C351 0.949 . S
H376 C353 0.950 . S
H377 C355 0.950 . S
C378 C379 1.349 . S
C378 C380 1.327 . S
C378 H403 0.950 . S
C379 C378 1.349 . S
C379 C395 1.349 . S
C380 C378 1.327 . S
C380 C399 1.429 . S
C380 H404 0.950 . S
C381 C398 1.574 . S
C381 C400 1.368 . S
C381 H405 0.949 . S
H382 C386 0.949 . S
C383 C384 1.349 . S
C383 C385 1.327 . S
C383 H406 0.950 . S
C384 C383 1.349 . S
C384 C396 1.349 . S
C385 C383 1.327 . S
C385 C401 1.429 . S
C385 H407 0.950 . S
C386 H382 0.949 . S
C386 C394 1.574 . S
C386 C402 1.368 . S
H387 C395 0.950 . S
H388 C393 0.950 . S
H389 C394 0.949 . S
H390 C396 0.950 . S
H391 C397 0.950 . S
H392 C398 0.949 . S
C393 H388 0.950 . S
C393 C395 1.327 . S
C393 C399 1.429 . S
C394 C386 1.574 . S
C394 H389 0.949 . S
C394 C400 1.368 . S
C395 C379 1.349 . S
C395 H387 0.950 . S
C395 C393 1.327 . S
C396 C384 1.349 . S
C396 H390 0.950 . S
C396 C397 1.327 . S
C397 H391 0.950 . S
C397 C396 1.327 . S
C397 C401 1.429 . S
C398 C381 1.574 . S
C398 H392 0.949 . S
C398 C402 1.368 . S
C399 C380 1.429 . S
C399 C393 1.429 . S
C399 C400 1.523 . S
C400 C381 1.368 . S
C400 C394 1.368 . S
C400 C399 1.523 . S
C401 C385 1.429 . S
C401 C397 1.429 . S
C401 C402 1.523 . S
C402 C386 1.368 . S
C402 C398 1.368 . S
C402 C401 1.523 . S
H403 C378 0.950 . S
H404 C380 0.950 . S
H405 C381 0.949 . S
H406 C383 0.950 . S
H407 C385 0.950 . S
C408 C409 1.349 . S
C408 C410 1.327 . S
C408 H433 0.950 . S
C409 C408 1.349 . S
C409 C425 1.349 . S
C410 C408 1.327 . S
C410 C429 1.429 . S
C410 H434 0.950 . S
C411 C428 1.574 . S
C411 C430 1.368 . S
C411 H435 0.949 . S
H412 C416 0.949 . S
C413 C414 1.349 . S
C413 C415 1.327 . S
C413 H436 0.950 . S
C414 C413 1.349 . S
C414 C426 1.349 . S
C415 C413 1.327 . S
C415 C431 1.429 . S
C415 H437 0.950 . S
C416 H412 0.949 . S
C416 C424 1.574 . S
C416 C432 1.368 . S
H417 C425 0.950 . S
H418 C423 0.950 . S
H419 C424 0.949 . S
H420 C426 0.950 . S
H421 C427 0.950 . S
H422 C428 0.949 . S
C423 H418 0.950 . S
C423 C425 1.327 . S
C423 C429 1.429 . S
C424 C416 1.574 . S
C424 H419 0.949 . S
C424 C430 1.368 . S
C425 C409 1.349 . S
C425 H417 0.950 . S
C425 C423 1.327 . S
C426 C414 1.349 . S
C426 H420 0.950 . S
C426 C427 1.327 . S
C427 H421 0.950 . S
C427 C426 1.327 . S
C427 C431 1.429 . S
C428 C411 1.574 . S
C428 H422 0.949 . S
C428 C432 1.368 . S
C429 C410 1.429 . S
C429 C423 1.429 . S
C429 C430 1.523 . S
C430 C411 1.368 . S
C430 C424 1.368 . S
C430 C429 1.523 . S
C431 C415 1.429 . S
C431 C427 1.429 . S
C431 C432 1.523 . S
C432 C416 1.368 . S
C432 C428 1.368 . S
C432 C431 1.523 . S
H433 C408 0.950 . S
H434 C410 0.950 . S
H435 C411 0.949 . S
H436 C413 0.950 . S
H437 C415 0.950 . S
C438 C439 1.349 . S
C438 C440 1.327 . S
C438 H463 0.950 . S
C439 C438 1.349 . S
C439 C455 1.349 . S
C440 C438 1.327 . S
C440 C459 1.429 . S
C440 H464 0.950 . S
C441 C458 1.574 . S
C441 C460 1.368 . S
C441 H465 0.949 . S
H442 C446 0.949 . S
C443 C444 1.349 . S
C443 C445 1.327 . S
C443 H466 0.950 . S
C444 C443 1.349 . S
C444 C456 1.349 . S
C445 C443 1.327 . S
C445 C461 1.429 . S
C445 H467 0.950 . S
C446 H442 0.949 . S
C446 C454 1.574 . S
C446 C462 1.368 . S
H447 C455 0.950 . S
H448 C453 0.950 . S
H449 C454 0.949 . S
H450 C456 0.950 . S
H451 C457 0.950 . S
H452 C458 0.949 . S
C453 H448 0.950 . S
C453 C455 1.327 . S
C453 C459 1.429 . S
C454 C446 1.574 . S
C454 H449 0.949 . S
C454 C460 1.368 . S
C455 C439 1.349 . S
C455 H447 0.950 . S
C455 C453 1.327 . S
C456 C444 1.349 . S
C456 H450 0.950 . S
C456 C457 1.327 . S
C457 H451 0.950 . S
C457 C456 1.327 . S
C457 C461 1.429 . S
C458 C441 1.574 . S
C458 H452 0.949 . S
C458 C462 1.368 . S
C459 C440 1.429 . S
C459 C453 1.429 . S
C459 C460 1.523 . S
C460 C441 1.368 . S
C460 C454 1.368 . S
C460 C459 1.523 . S
C461 C445 1.429 . S
C461 C457 1.429 . S
C461 C462 1.523 . S
C462 C446 1.368 . S
C462 C458 1.368 . S
C462 C461 1.523 . S
H463 C438 0.950 . S
H464 C440 0.950 . S
H465 C441 0.949 . S
H466 C443 0.950 . S
H467 C445 0.950 . S
C468 C469 1.349 . S
C468 C470 1.327 . S
C468 H493 0.950 . S
C469 C468 1.349 . S
C469 C485 1.349 . S
C470 C468 1.327 . S
C470 C489 1.429 . S
C470 H494 0.950 . S
C471 C488 1.574 . S
C471 C490 1.368 . S
C471 H495 0.949 . S
H472 C476 0.949 . S
C473 C474 1.349 . S
C473 C475 1.327 . S
C473 H496 0.950 . S
C474 C473 1.349 . S
C474 C486 1.349 . S
C475 C473 1.327 . S
C475 C491 1.429 . S
C475 H497 0.950 . S
C476 H472 0.949 . S
C476 C484 1.574 . S
C476 C492 1.368 . S
H477 C485 0.950 . S
H478 C483 0.950 . S
H479 C484 0.949 . S
H480 C486 0.950 . S
H481 C487 0.950 . S
H482 C488 0.949 . S
C483 H478 0.950 . S
C483 C485 1.327 . S
C483 C489 1.429 . S
C484 C476 1.574 . S
C484 H479 0.949 . S
C484 C490 1.368 . S
C485 C469 1.349 . S
C485 H477 0.950 . S
C485 C483 1.327 . S
C486 C474 1.349 . S
C486 H480 0.950 . S
C486 C487 1.327 . S
C487 H481 0.950 . S
C487 C486 1.327 . S
C487 C491 1.429 . S
C488 C471 1.574 . S
C488 H482 0.949 . S
C488 C492 1.368 . S
C489 C470 1.429 . S
C489 C483 1.429 . S
C489 C490 1.523 . S
C490 C471 1.368 . S
C490 C484 1.368 . S
C490 C489 1.523 . S
C491 C475 1.429 . S
C491 C487 1.429 . S
C491 C492 1.523 . S
C492 C476 1.368 . S
C492 C488 1.368 . S
C492 C491 1.523 . S
H493 C468 0.950 . S
H494 C470 0.950 . S
H495 C471 0.949 . S
H496 C473 0.950 . S
H497 C475 0.950 . S
C498 C499 1.349 . S
C498 C500 1.327 . S
C498 H523 0.950 . S
C499 C498 1.349 . S
C499 C515 1.349 . S
C500 C498 1.327 . S
C500 C519 1.429 . S
C500 H524 0.950 . S
C501 C518 1.574 . S
C501 C520 1.368 . S
C501 H525 0.949 . S
H502 C506 0.949 . S
C503 C504 1.349 . S
C503 C505 1.327 . S
C503 H526 0.950 . S
C504 C503 1.349 . S
C504 C516 1.349 . S
C505 C503 1.327 . S
C505 C521 1.429 . S
C505 H527 0.950 . S
C506 H502 0.949 . S
C506 C514 1.574 . S
C506 C522 1.368 . S
H507 C515 0.950 . S
H508 C513 0.950 . S
H509 C514 0.949 . S
H510 C516 0.950 . S
H511 C517 0.950 . S
H512 C518 0.949 . S
C513 H508 0.950 . S
C513 C515 1.327 . S
C513 C519 1.429 . S
C514 C506 1.574 . S
C514 H509 0.949 . S
C514 C520 1.368 . S
C515 C499 1.349 . S
C515 H507 0.950 . S
C515 C513 1.327 . S
C516 C504 1.349 . S
C516 H510 0.950 . S
C516 C517 1.327 . S
C517 H511 0.950 . S
C517 C516 1.327 . S
C517 C521 1.429 . S
C518 C501 1.574 . S
C518 H512 0.949 . S
C518 C522 1.368 . S
C519 C500 1.429 . S
C519 C513 1.429 . S
C519 C520 1.523 . S
C520 C501 1.368 . S
C520 C514 1.368 . S
C520 C519 1.523 . S
C521 C505 1.429 . S
C521 C517 1.429 . S
C521 C522 1.523 . S
C522 C506 1.368 . S
C522 C518 1.368 . S
C522 C521 1.523 . S
H523 C498 0.950 . S
H524 C500 0.950 . S
H525 C501 0.949 . S
H526 C503 0.950 . S
H527 C505 0.950 . S
C528 C529 1.349 . S
C528 C530 1.327 . S
C528 H553 0.950 . S
C529 C528 1.349 . S
C529 C545 1.349 . S
C530 C528 1.327 . S
C530 C549 1.429 . S
C530 H554 0.950 . S
C531 C548 1.574 . S
C531 C550 1.368 . S
C531 H555 0.949 . S
H532 C536 0.949 . S
C533 C534 1.349 . S
C533 C535 1.327 . S
C533 H556 0.950 . S
C534 C533 1.349 . S
C534 C546 1.349 . S
C535 C533 1.327 . S
C535 C551 1.429 . S
C535 H557 0.950 . S
C536 H532 0.949 . S
C536 C544 1.574 . S
C536 C552 1.368 . S
H537 C545 0.950 . S
H538 C543 0.950 . S
H539 C544 0.949 . S
H540 C546 0.950 . S
H541 C547 0.950 . S
H542 C548 0.949 . S
C543 H538 0.950 . S
C543 C545 1.327 . S
C543 C549 1.429 . S
C544 C536 1.574 . S
C544 H539 0.949 . S
C544 C550 1.368 . S
C545 C529 1.349 . S
C545 H537 0.950 . S
C545 C543 1.327 . S
C546 C534 1.349 . S
C546 H540 0.950 . S
C546 C547 1.327 . S
C547 H541 0.950 . S
C547 C546 1.327 . S
C547 C551 1.429 . S
C548 C531 1.574 . S
C548 H542 0.949 . S
C548 C552 1.368 . S
C549 C530 1.429 . S
C549 C543 1.429 . S
C549 C550 1.523 . S
C550 C531 1.368 . S
C550 C544 1.368 . S
C550 C549 1.523 . S
C551 C535 1.429 . S
C551 C547 1.429 . S
C551 C552 1.523 . S
C552 C536 1.368 . S
C552 C548 1.368 . S
C552 C551 1.523 . S
H553 C528 0.950 . S
H554 C530 0.950 . S
H555 C531 0.949 . S
H556 C533 0.950 . S
H557 C535 0.950 . S
C558 C559 1.349 . S
C558 C560 1.327 . S
C558 H583 0.950 . S
C559 C558 1.349 . S
C559 C575 1.349 . S
C560 C558 1.327 . S
C560 C579 1.429 . S
C560 H584 0.950 . S
C561 C578 1.574 . S
C561 C580 1.368 . S
C561 H585 0.949 . S
H562 C566 0.949 . S
C563 C564 1.349 . S
C563 C565 1.327 . S
C563 H586 0.950 . S
C564 C563 1.349 . S
C564 C576 1.349 . S
C565 C563 1.327 . S
C565 C581 1.429 . S
C565 H587 0.950 . S
C566 H562 0.949 . S
C566 C574 1.574 . S
C566 C582 1.368 . S
H567 C575 0.950 . S
H568 C573 0.950 . S
H569 C574 0.949 . S
H570 C576 0.950 . S
H571 C577 0.950 . S
H572 C578 0.949 . S
C573 H568 0.950 . S
C573 C575 1.327 . S
C573 C579 1.429 . S
C574 C566 1.574 . S
C574 H569 0.949 . S
C574 C580 1.368 . S
C575 C559 1.349 . S
C575 H567 0.950 . S
C575 C573 1.327 . S
C576 C564 1.349 . S
C576 H570 0.950 . S
C576 C577 1.327 . S
C577 H571 0.950 . S
C577 C576 1.327 . S
C577 C581 1.429 . S
C578 C561 1.574 . S
C578 H572 0.949 . S
C578 C582 1.368 . S
C579 C560 1.429 . S
C579 C573 1.429 . S
C579 C580 1.523 . S
C580 C561 1.368 . S
C580 C574 1.368 . S
C580 C579 1.523 . S
C581 C565 1.429 . S
C581 C577 1.429 . S
C581 C582 1.523 . S
C582 C566 1.368 . S
C582 C578 1.368 . S
C582 C581 1.523 . S
H583 C558 0.950 . S
H584 C560 0.950 . S
H585 C561 0.949 . S
H586 C563 0.950 . S
H587 C565 0.950 . S
C588 C589 1.349 . S
C588 C590 1.327 . S
C588 H613 0.950 . S
C589 C588 1.349 . S
C589 C605 1.349 . S
C590 C588 1.327 . S
C590 C609 1.429 . S
C590 H614 0.950 . S
C591 C608 1.574 . S
C591 C610 1.368 . S
C591 H615 0.949 . S
H592 C596 0.949 . S
C593 C594 1.349 . S
C593 C595 1.327 . S
C593 H616 0.950 1_455 S
C594 C593 1.349 . S
C594 C606 1.349 . S
C595 C593 1.327 . S
C595 C611 1.429 . S
C595 H617 0.950 . S
C596 H592 0.949 . S
C596 C604 1.574 . S
C596 C612 1.368 . S
H597 C605 0.950 . S
H598 C603 0.950 . S
H599 C604 0.949 . S
H600 C606 0.950 . S
H601 C607 0.950 . S
H602 C608 0.949 . S
C603 H598 0.950 . S
C603 C605 1.327 . S
C603 C609 1.429 . S
C604 C596 1.574 . S
C604 H599 0.949 . S
C604 C610 1.368 . S
C605 C589 1.349 . S
C605 H597 0.950 . S
C605 C603 1.327 . S
C606 C594 1.349 . S
C606 H600 0.950 . S
C606 C607 1.327 . S
C607 H601 0.950 . S
C607 C606 1.327 . S
C607 C611 1.429 . S
C608 C591 1.574 . S
C608 H602 0.949 . S
C608 C612 1.368 . S
C609 C590 1.429 . S
C609 C603 1.429 . S
C609 C610 1.523 . S
C610 C591 1.368 . S
C610 C604 1.368 . S
C610 C609 1.523 . S
C611 C595 1.429 . S
C611 C607 1.429 . S
C611 C612 1.523 . S
C612 C596 1.368 . S
C612 C608 1.368 . S
C612 C611 1.523 . S
H613 C588 0.950 . S
H614 C590 0.950 . S
H615 C591 0.949 . S
H616 C593 0.950 1_655 S
H617 C595 0.950 . S
C618 C619 1.349 . S
C618 C620 1.327 . S
C618 H643 0.950 . S
C619 C618 1.349 . S
C619 C635 1.349 . S
C620 C618 1.327 . S
C620 C639 1.429 . S
C620 H644 0.950 . S
C621 C638 1.574 . S
C621 C640 1.368 . S
C621 H645 0.949 . S
H622 C626 0.949 . S
C623 C624 1.349 1_554 S
C623 C625 1.340 . S
C623 H646 0.950 . S
C624 C623 1.349 1_556 S
C624 C636 1.349 . S
C625 C623 1.340 . S
C625 C641 1.390 1_554 S
C625 H647 0.978 . S
C626 H622 0.949 . S
C626 C634 1.574 . S
C626 C642 1.368 . S
H627 C635 0.950 . S
H628 C633 0.950 . S
H629 C634 0.949 . S
H630 C636 0.950 . S
H631 C637 0.950 . S
H632 C638 0.949 1_554 S
C633 H628 0.950 . S
C633 C635 1.327 . S
C633 C639 1.429 . S
C634 C626 1.574 . S
C634 H629 0.949 . S
C634 C640 1.368 . S
C635 C619 1.349 . S
C635 H627 0.950 . S
C635 C633 1.327 . S
C636 C624 1.349 . S
C636 H630 0.950 . S
C636 C637 1.327 . S
C637 H631 0.950 . S
C637 C636 1.327 . S
C637 C641 1.429 . S
C638 C621 1.574 . S
C638 H632 0.949 1_556 S
C638 C642 1.368 . S
C639 C620 1.429 . S
C639 C633 1.429 . S
C639 C640 1.523 . S
C640 C621 1.368 . S
C640 C634 1.368 . S
C640 C639 1.523 . S
C641 C625 1.390 1_556 S
C641 C637 1.429 . S
C641 C642 1.523 . S
C642 C626 1.368 . S
C642 C638 1.368 . S
C642 C641 1.523 . S
H643 C618 0.950 . S
H644 C620 0.950 . S
H645 C621 0.949 . S
H646 C623 0.950 . S
H647 C625 0.978 . S
C648 C649 1.349 . S
C648 C650 1.327 . S
C648 H673 0.950 . S
C649 C648 1.349 . S
C649 C665 1.349 . S
C650 C648 1.327 . S
C650 C669 1.429 . S
C650 H674 0.950 . S
C651 C668 1.574 . S
C651 C670 1.368 . S
C651 H675 0.949 . S
H652 C656 0.949 . S
C653 C654 1.349 . S
C653 C655 1.327 . S
C653 H676 0.950 . S
C654 C653 1.349 . S
C654 C666 1.349 . S
C655 C653 1.327 . S
C655 C671 1.429 . S
C655 H677 0.950 . S
C656 H652 0.949 . S
C656 C664 1.574 . S
C656 C672 1.368 . S
H657 C665 0.950 . S
H658 C663 0.950 . S
H659 C664 0.949 . S
H660 C666 0.950 . S
H661 C667 0.950 . S
H662 C668 0.949 . S
C663 H658 0.950 . S
C663 C665 1.327 . S
C663 C669 1.429 . S
C664 C656 1.574 . S
C664 H659 0.949 . S
C664 C670 1.368 . S
C665 C649 1.349 . S
C665 H657 0.950 . S
C665 C663 1.327 . S
C666 C654 1.349 . S
C666 H660 0.950 . S
C666 C667 1.327 . S
C667 H661 0.950 . S
C667 C666 1.327 . S
C667 C671 1.429 . S
C668 C651 1.574 . S
C668 H662 0.949 . S
C668 C672 1.368 . S
C669 C650 1.429 . S
C669 C663 1.429 . S
C669 C670 1.523 . S
C670 C651 1.368 . S
C670 C664 1.368 . S
C670 C669 1.523 . S
C671 C655 1.429 . S
C671 C667 1.429 . S
C671 C672 1.523 . S
C672 C656 1.368 . S
C672 C668 1.368 . S
C672 C671 1.523 . S
H673 C648 0.950 . S
H674 C650 0.950 . S
H675 C651 0.949 . S
H676 C653 0.950 . S
H677 C655 0.950 . S
C678 C679 1.349 . S
C678 C680 1.327 . S
C678 H703 0.950 . S
C679 C678 1.349 . S
C679 C695 1.349 . S
C680 C678 1.327 . S
C680 C699 1.429 . S
C680 H704 0.950 . S
C681 C698 1.574 . S
C681 C700 1.368 . S
C681 H705 0.949 . S
H682 C686 0.949 . S
C683 C684 1.349 . S
C683 C685 1.327 . S
C683 H706 0.950 . S
C684 C683 1.349 . S
C684 C696 1.349 . S
C685 C683 1.327 . S
C685 C701 1.429 . S
C685 H707 0.950 . S
C686 H682 0.949 . S
C686 C694 1.574 . S
C686 C702 1.368 . S
H687 C695 0.950 . S
H688 C693 0.950 . S
H689 C694 0.949 . S
H690 C696 0.950 . S
H691 C697 0.950 . S
H692 C698 0.949 . S
C693 H688 0.950 . S
C693 C695 1.327 . S
C693 C699 1.429 . S
C694 C686 1.574 . S
C694 H689 0.949 . S
C694 C700 1.368 . S
C695 C679 1.349 . S
C695 H687 0.950 . S
C695 C693 1.327 . S
C696 C684 1.349 . S
C696 H690 0.950 . S
C696 C697 1.327 . S
C697 H691 0.950 . S
C697 C696 1.327 . S
C697 C701 1.429 . S
C698 C681 1.574 . S
C698 H692 0.949 . S
C698 C702 1.368 . S
C699 C680 1.429 . S
C699 C693 1.429 . S
C699 C700 1.523 . S
C700 C681 1.368 . S
C700 C694 1.368 . S
C700 C699 1.523 . S
C701 C685 1.429 . S
C701 C697 1.429 . S
C701 C702 1.523 . S
C702 C686 1.368 . S
C702 C698 1.368 . S
C702 C701 1.523 . S
H703 C678 0.950 . S
H704 C680 0.950 . S
H705 C681 0.949 . S
H706 C683 0.950 . S
H707 C685 0.950 . S
C708 C709 1.349 . S
C708 C710 1.327 . S
C708 H733 0.950 . S
C709 C708 1.349 . S
C709 C725 1.349 . S
C710 C708 1.327 . S
C710 C729 1.429 . S
C710 H734 0.950 . S
C711 C728 1.571 1_565 S
C711 C730 1.386 . S
C711 H735 0.936 1_565 S
H712 C716 0.949 . S
C713 C714 1.349 1_545 S
C713 C715 1.327 . S
C713 H736 0.950 . S
C714 C713 1.349 1_565 S
C714 C726 1.349 . S
C715 C713 1.327 . S
C715 C731 1.429 1_545 S
C715 H737 0.950 . S
C716 H712 0.949 . S
C716 C724 1.574 . S
C716 C732 1.368 . S
H717 C725 0.950 . S
H718 C723 0.950 1_545 S
H719 C724 0.949 . S
H720 C726 0.950 . S
H721 C727 0.950 . S
H722 C728 0.949 . S
C723 H718 0.950 1_565 S
C723 C725 1.327 . S
C723 C729 1.429 . S
C724 C716 1.574 . S
C724 H719 0.949 . S
C724 C730 1.368 . S
C725 C709 1.349 . S
C725 H717 0.950 . S
C725 C723 1.327 . S
C726 C714 1.349 . S
C726 H720 0.950 . S
C726 C727 1.327 . S
C727 H721 0.950 . S
C727 C726 1.327 . S
C727 C731 1.429 . S
C728 C711 1.571 1_545 S
C728 H722 0.949 . S
C728 C732 1.368 1_545 S
C729 C710 1.429 . S
C729 C723 1.429 . S
C729 C730 1.523 . S
C730 C711 1.386 . S
C730 C724 1.368 . S
C730 C729 1.523 . S
C731 C715 1.429 1_565 S
C731 C727 1.429 . S
C731 C732 1.523 . S
C732 C716 1.368 . S
C732 C728 1.368 1_565 S
C732 C731 1.523 . S
H733 C708 0.950 . S
H734 C710 0.950 . S
H735 C711 0.936 1_545 S
H736 C713 0.950 . S
H737 C715 0.950 . S
C738 C739 1.349 . S
C738 C740 1.327 . S
C738 H763 0.950 . S
C739 C738 1.349 . S
C739 C755 1.349 . S
C740 C738 1.327 . S
C740 C759 1.429 . S
C740 H764 0.950 . S
C741 C758 1.574 . S
C741 C760 1.368 . S
C741 H765 0.949 . S
H742 C746 0.949 . S
C743 C744 1.349 1_565 S
C743 C745 1.327 1_565 S
C743 H766 0.950 . S
C744 C743 1.349 1_545 S
C744 C756 1.349 . S
C745 C743 1.327 1_545 S
C745 C761 1.429 . S
C745 H767 0.950 1_545 S
C746 H742 0.949 . S
C746 C754 1.574 . S
C746 C762 1.368 . S
H747 C755 0.950 . S
H748 C753 0.950 . S
H749 C754 0.949 . S
H750 C756 0.950 . S
H751 C757 0.950 . S
H752 C758 0.949 1_565 S
C753 H748 0.950 . S
C753 C755 1.327 . S
C753 C759 1.429 . S
C754 C746 1.574 . S
C754 H749 0.949 . S
C754 C760 1.368 . S
C755 C739 1.349 . S
C755 H747 0.950 . S
C755 C753 1.327 . S
C756 C744 1.349 . S
C756 H750 0.950 . S
C756 C757 1.327 . S
C757 H751 0.950 . S
C757 C756 1.327 . S
C757 C761 1.429 . S
C758 C741 1.574 . S
C758 H752 0.949 1_545 S
C758 C762 1.368 . S
C759 C740 1.429 . S
C759 C753 1.429 . S
C759 C760 1.523 . S
C760 C741 1.368 . S
C760 C754 1.368 . S
C760 C759 1.523 . S
C761 C745 1.429 . S
C761 C757 1.429 . S
C761 C762 1.523 . S
C762 C746 1.368 . S
C762 C758 1.368 . S
C762 C761 1.523 . S
H763 C738 0.950 . S
H764 C740 0.950 . S
H765 C741 0.949 . S
H766 C743 0.950 . S
H767 C745 0.950 1_565 S
C768 C769 1.349 . S
C768 C770 1.327 . S
C768 H793 0.950 . S
C769 C768 1.349 . S
C769 C785 1.349 . S
C770 C768 1.327 . S
C770 C789 1.429 . S
C770 H794 0.950 . S
C771 C788 1.574 . S
C771 C790 1.368 . S
C771 H795 0.949 . S
H772 C776 0.949 . S
C773 C774 1.349 . S
C773 C775 1.327 . S
C773 H796 0.950 . S
C774 C773 1.349 . S
C774 C786 1.349 . S
C775 C773 1.327 . S
C775 C791 1.429 . S
C775 H797 0.950 . S
C776 H772 0.949 . S
C776 C784 1.574 . S
C776 C792 1.368 . S
H777 C785 0.950 . S
H778 C783 0.950 . S
H779 C784 0.949 . S
H780 C786 0.950 . S
H781 C787 0.950 . S
H782 C788 0.949 . S
C783 H778 0.950 . S
C783 C785 1.327 . S
C783 C789 1.429 . S
C784 C776 1.574 . S
C784 H779 0.949 . S
C784 C790 1.368 . S
C785 C769 1.349 . S
C785 H777 0.950 . S
C785 C783 1.327 . S
C786 C774 1.349 . S
C786 H780 0.950 . S
C786 C787 1.327 . S
C787 H781 0.950 . S
C787 C786 1.327 . S
C787 C791 1.429 . S
C788 C771 1.574 . S
C788 H782 0.949 . S
C788 C792 1.368 . S
C789 C770 1.429 . S
C789 C783 1.429 . S
C789 C790 1.523 . S
C790 C771 1.368 . S
C790 C784 1.368 . S
C790 C789 1.523 . S
C791 C775 1.429 . S
C791 C787 1.429 . S
C791 C792 1.523 . S
C792 C776 1.368 . S
C792 C788 1.368 . S
C792 C791 1.523 . S
H793 C768 0.950 . S
H794 C770 0.950 . S
H795 C771 0.949 . S
H796 C773 0.950 . S
H797 C775 0.950 . S
C798 C799 1.349 . S
C798 C800 1.327 . S
C798 H823 0.950 . S
C799 C798 1.349 . S
C799 C815 1.349 . S
C800 C798 1.327 . S
C800 C819 1.429 . S
C800 H824 0.950 . S
C801 C818 1.574 . S
C801 C820 1.368 . S
C801 H825 0.949 . S
H802 C806 0.949 . S
C803 C804 1.349 . S
C803 C805 1.327 . S
C803 H826 0.950 . S
C804 C803 1.349 . S
C804 C816 1.349 . S
C805 C803 1.327 . S
C805 C821 1.429 . S
C805 H827 0.950 . S
C806 H802 0.949 . S
C806 C814 1.574 . S
C806 C822 1.368 . S
H807 C815 0.950 . S
H808 C813 0.950 . S
H809 C814 0.949 . S
H810 C816 0.950 . S
H811 C817 0.950 . S
H812 C818 0.949 . S
C813 H808 0.950 . S
C813 C815 1.327 . S
C813 C819 1.429 . S
C814 C806 1.574 . S
C814 H809 0.949 . S
C814 C820 1.368 . S
C815 C799 1.349 . S
C815 H807 0.950 . S
C815 C813 1.327 . S
C816 C804 1.349 . S
C816 H810 0.950 . S
C816 C817 1.327 . S
C817 H811 0.950 . S
C817 C816 1.327 . S
C817 C821 1.429 . S
C818 C801 1.574 . S
C818 H812 0.949 . S
C818 C822 1.368 . S
C819 C800 1.429 . S
C819 C813 1.429 . S
C819 C820 1.523 . S
C820 C801 1.368 . S
C820 C814 1.368 . S
C820 C819 1.523 . S
C821 C805 1.429 . S
C821 C817 1.429 . S
C821 C822 1.523 . S
C822 C806 1.368 . S
C822 C818 1.368 . S
C822 C821 1.523 . S
H823 C798 0.950 . S
H824 C800 0.950 . S
H825 C801 0.949 . S
H826 C803 0.950 . S
H827 C805 0.950 . S
C828 C829 1.349 . S
C828 C830 1.327 . S
C828 H853 0.950 . S
C829 C828 1.349 . S
C829 C845 1.349 . S
C830 C828 1.327 . S
C830 C849 1.429 . S
C830 H854 0.950 . S
C831 C848 1.574 . S
C831 C850 1.368 . S
C831 H855 0.949 . S
H832 C836 0.949 1_544 S
C833 C834 1.349 . S
C833 C835 1.327 . S
C833 H856 0.950 . S
C834 C833 1.349 . S
C834 C846 1.349 1_566 S
C835 C833 1.327 . S
C835 C851 1.429 . S
C835 H857 0.950 . S
C836 H832 0.949 1_566 S
C836 C844 1.574 . S
C836 C852 1.368 . S
H837 C845 0.950 . S
H838 C843 0.950 . S
H839 C844 0.948 1_544 S
H840 C846 0.950 . S
H841 C847 0.950 . S
H842 C848 0.949 . S
C843 H838 0.950 . S
C843 C845 1.327 . S
C843 C849 1.429 . S
C844 C836 1.574 . S
C844 H839 0.948 1_566 S
C844 C850 1.368 . S
C845 C829 1.349 . S
C845 H837 0.950 . S
C845 C843 1.327 . S
C846 C834 1.349 1_544 S
C846 H840 0.950 . S
C846 C847 1.327 . S
C847 H841 0.950 . S
C847 C846 1.327 . S
C847 C851 1.429 1_544 S
C848 C831 1.574 . S
C848 H842 0.949 . S
C848 C852 1.368 . S
C849 C830 1.429 . S
C849 C843 1.429 . S
C849 C850 1.523 . S
C850 C831 1.368 . S
C850 C844 1.368 . S
C850 C849 1.523 . S
C851 C835 1.429 . S
C851 C847 1.429 1_566 S
C851 C852 1.523 . S
C852 C836 1.368 . S
C852 C848 1.368 . S
C852 C851 1.523 . S
H853 C828 0.950 . S
H854 C830 0.950 . S
H855 C831 0.949 . S
H856 C833 0.950 . S
H857 C835 0.950 . S
C858 C859 1.349 . S
C858 C860 1.327 . S
C858 H883 0.950 . S
C859 C858 1.349 . S
C859 C875 1.349 . S
C860 C858 1.327 . S
C860 C879 1.429 . S
C860 H884 0.950 . S
C861 C878 1.574 . S
C861 C880 1.368 . S
C861 H885 0.949 . S
H862 C866 0.949 1_565 S
C863 C864 1.349 . S
C863 C865 1.327 . S
C863 H886 0.950 . S
C864 C863 1.349 . S
C864 C876 1.349 1_545 S
C865 C863 1.327 . S
C865 C881 1.429 . S
C865 H887 0.950 . S
C866 H862 0.949 1_545 S
C866 C874 1.574 . S
C866 C882 1.368 . S
H867 C875 0.950 . S
H868 C873 0.950 . S
H869 C874 0.949 1_565 S
H870 C876 0.950 . S
H871 C877 0.950 1_565 S
H872 C878 0.949 . S
C873 H868 0.950 . S
C873 C875 1.327 . S
C873 C879 1.429 . S
C874 C866 1.574 . S
C874 H869 0.949 1_545 S
C874 C880 1.368 . S
C875 C859 1.349 . S
C875 H867 0.950 . S
C875 C873 1.327 . S
C876 C864 1.349 1_565 S
C876 H870 0.950 . S
C876 C877 1.327 1_565 S
C877 H871 0.950 1_545 S
C877 C876 1.327 1_545 S
C877 C881 1.429 . S
C878 C861 1.574 . S
C878 H872 0.949 . S
C878 C882 1.368 . S
C879 C860 1.429 . S
C879 C873 1.429 . S
C879 C880 1.523 . S
C880 C861 1.368 . S
C880 C874 1.368 . S
C880 C879 1.523 . S
C881 C865 1.429 . S
C881 C877 1.429 . S
C881 C882 1.523 . S
C882 C866 1.368 . S
C882 C878 1.368 . S
C882 C881 1.523 . S
H883 C858 0.950 . S
H884 C860 0.950 . S
H885 C861 0.949 . S
H886 C863 0.950 . S
H887 C865 0.950 . S
C888 C889 1.349 . S
C888 C890 1.327 . S
C888 H913 0.950 . S
C889 C888 1.349 . S
C889 C905 1.349 . S
C890 C888 1.327 . S
C890 C909 1.429 . S
C890 H914 0.950 . S
C891 C908 1.574 . S
C891 C910 1.368 . S
C891 H915 0.949 . S
H892 C896 0.949 . S
C893 C894 1.349 . S
C893 C895 1.327 . S
C893 H916 0.950 . S
C894 C893 1.349 . S
C894 C906 1.364 . S
C895 C893 1.327 . S
C895 C911 1.429 . S
C895 H917 0.950 . S
C896 H892 0.949 . S
C896 C904 1.574 . S
C896 C912 1.368 . S
H897 C905 0.950 . S
H898 C903 0.950 . S
H899 C904 0.949 . S
H900 C906 0.927 1_556 S
H901 C907 0.950 1_556 S
H902 C908 0.949 . S
C903 H898 0.950 . S
C903 C905 1.327 . S
C903 C909 1.429 . S
C904 C896 1.574 . S
C904 H899 0.949 . S
C904 C910 1.368 . S
C905 C889 1.349 . S
C905 H897 0.950 . S
C905 C903 1.327 . S
C906 C894 1.364 . S
C906 H900 0.927 1_554 S
C906 C907 1.335 . S
C907 H901 0.950 1_554 S
C907 C906 1.335 . S
C907 C911 1.429 . S
C908 C891 1.574 . S
C908 H902 0.949 . S
C908 C912 1.368 . S
C909 C890 1.429 . S
C909 C903 1.429 . S
C909 C910 1.523 . S
C910 C891 1.368 . S
C910 C904 1.368 . S
C910 C909 1.523 . S
C911 C895 1.429 . S
C911 C907 1.429 . S
C911 C912 1.523 . S
C912 C896 1.368 . S
C912 C908 1.368 . S
C912 C911 1.523 . S
H913 C888 0.950 . S
H914 C890 0.950 . S
H915 C891 0.949 . S
H916 C893 0.950 . S
H917 C895 0.950 . S
C918 C919 1.349 . S
C918 C920 1.327 . S
C918 H943 0.950 . S
C919 C918 1.349 . S
C919 C935 1.349 . S
C920 C918 1.327 . S
C920 C939 1.429 . S
C920 H944 0.950 . S
C921 C938 1.574 . S
C921 C940 1.368 . S
C921 H945 0.949 . S
H922 C926 0.949 . S
C923 C924 1.349 . S
C923 C925 1.327 . S
C923 H946 0.950 . S
C924 C923 1.349 . S
C924 C936 1.349 . S
C925 C923 1.327 . S
C925 C941 1.429 . S
C925 H947 0.950 . S
C926 H922 0.949 . S
C926 C934 1.574 . S
C926 C942 1.368 . S
H927 C935 0.950 . S
H928 C933 0.950 . S
H929 C934 0.949 . S
H930 C936 0.950 . S
H931 C937 0.950 . S
H932 C938 0.949 . S
C933 H928 0.950 . S
C933 C935 1.327 . S
C933 C939 1.429 . S
C934 C926 1.574 . S
C934 H929 0.949 . S
C934 C940 1.368 . S
C935 C919 1.349 . S
C935 H927 0.950 . S
C935 C933 1.327 . S
C936 C924 1.349 . S
C936 H930 0.950 . S
C936 C937 1.327 . S
C937 H931 0.950 . S
C937 C936 1.327 . S
C937 C941 1.429 . S
C938 C921 1.574 . S
C938 H932 0.949 . S
C938 C942 1.368 . S
C939 C920 1.429 . S
C939 C933 1.429 . S
C939 C940 1.523 . S
C940 C921 1.368 . S
C940 C934 1.368 . S
C940 C939 1.523 . S
C941 C925 1.429 . S
C941 C937 1.429 . S
C941 C942 1.523 . S
C942 C926 1.368 . S
C942 C938 1.368 . S
C942 C941 1.523 . S
H943 C918 0.950 . S
H944 C920 0.950 . S
H945 C921 0.949 . S
H946 C923 0.950 . S
H947 C925 0.950 . S
C948 C949 1.349 . S
C948 C950 1.327 . S
C948 H973 0.950 . S
C949 C948 1.349 . S
C949 C965 1.349 . S
C950 C948 1.327 . S
C950 C969 1.429 . S
C950 H974 0.950 . S
C951 C968 1.574 . S
C951 C970 1.368 . S
C951 H975 0.949 1_556 S
H952 C956 0.949 . S
C953 C954 1.349 1_554 S
C953 C955 1.327 . S
C953 H976 0.950 . S
C954 C953 1.349 1_556 S
C954 C966 1.349 . S
C955 C953 1.327 . S
C955 C971 1.429 1_554 S
C955 H977 0.950 . S
C956 H952 0.949 . S
C956 C964 1.574 . S
C956 C972 1.368 . S
H957 C965 0.950 . S
H958 C963 0.976 . S
H959 C964 0.949 . S
H960 C966 0.969 . S
H961 C967 0.950 . S
H962 C968 0.949 1_554 S
C963 H958 0.976 . S
C963 C965 1.327 . S
C963 C969 1.429 . S
C964 C956 1.574 . S
C964 H959 0.949 . S
C964 C970 1.368 . S
C965 C949 1.349 . S
C965 H957 0.950 . S
C965 C963 1.327 . S
C966 C954 1.349 . S
C966 H960 0.969 . S
C966 C967 1.327 . S
C967 H961 0.950 . S
C967 C966 1.327 . S
C967 C971 1.429 . S
C968 C951 1.574 . S
C968 H962 0.949 1_556 S
C968 C972 1.368 . S
C969 C950 1.429 . S
C969 C963 1.429 . S
C969 C970 1.523 . S
C970 C951 1.368 . S
C970 C964 1.368 . S
C970 C969 1.523 . S
C971 C955 1.429 1_556 S
C971 C967 1.429 . S
C971 C972 1.523 . S
C972 C956 1.368 . S
C972 C968 1.368 . S
C972 C971 1.523 . S
H973 C948 0.950 . S
H974 C950 0.950 . S
H975 C951 0.949 1_554 S
H976 C953 0.950 . S
H977 C955 0.950 . S
C978 C979 1.349 . S
C978 C980 1.327 . S
C978 H1003 0.950 . S
C979 C978 1.349 . S
C979 C995 1.349 . S
C980 C978 1.327 . S
C980 C999 1.429 . S
C980 H1004 0.950 . S
C981 C998 1.574 . S
C981 C1000 1.368 . S
C981 H1005 0.949 . S
H982 C986 0.949 . S
C983 C984 1.349 . S
C983 C985 1.327 . S
C983 H1006 0.950 . S
C984 C983 1.349 . S
C984 C996 1.349 . S
C985 C983 1.327 . S
C985 C1001 1.429 . S
C985 H1007 0.950 . S
C986 H982 0.949 . S
C986 C994 1.574 . S
C986 C1002 1.368 . S
H987 C995 0.950 . S
H988 C993 0.950 . S
H989 C994 0.949 . S
H990 C996 0.950 . S
H991 C997 0.950 . S
H992 C998 0.949 . S
C993 H988 0.950 . S
C993 C995 1.327 . S
C993 C999 1.429 . S
C994 C986 1.574 . S
C994 H989 0.949 . S
C994 C1000 1.368 . S
C995 C979 1.349 . S
C995 H987 0.950 . S
C995 C993 1.327 . S
C996 C984 1.349 . S
C996 H990 0.950 . S
C996 C997 1.327 . S
C997 H991 0.950 . S
C997 C996 1.327 . S
C997 C1001 1.429 . S
C998 C981 1.574 . S
C998 H992 0.949 . S
C998 C1002 1.368 . S
C999 C980 1.429 . S
C999 C993 1.429 . S
C999 C1000 1.523 . S
C1000 C981 1.368 . S
C1000 C994 1.368 . S
C1000 C999 1.523 . S
C1001 C985 1.429 . S
C1001 C997 1.429 . S
C1001 C1002 1.523 . S
C1002 C986 1.368 . S
C1002 C998 1.368 . S
C1002 C1001 1.523 . S
H1003 C978 0.950 . S
H1004 C980 0.950 . S
H1005 C981 0.949 . S
H1006 C983 0.950 . S
H1007 C985 0.950 . S
C1008 C1009 1.349 . S
C1008 C1010 1.327 . S
C1008 H1033 0.950 . S
C1009 C1008 1.349 . S
C1009 C1025 1.349 . S
C1010 C1008 1.327 . S
C1010 C1029 1.429 . S
C1010 H1034 0.950 . S
C1011 C1028 1.574 . S
C1011 C1030 1.368 . S
C1011 H1035 0.949 . S
H1012 C1016 0.949 . S
C1013 C1014 1.349 . S
C1013 C1015 1.327 . S
C1013 H1036 0.950 . S
C1014 C1013 1.349 . S
C1014 C1026 1.349 . S
C1015 C1013 1.327 . S
C1015 C1031 1.429 . S
C1015 H1037 0.950 . S
C1016 H1012 0.949 . S
C1016 C1024 1.574 . S
C1016 C1032 1.368 . S
H1017 C1025 0.950 . S
H1018 C1023 0.950 . S
H1019 C1024 0.949 . S
H1020 C1026 0.970 . S
H1021 C1027 0.950 . S
H1022 C1028 0.949 . S
C1023 H1018 0.950 . S
C1023 C1025 1.327 . S
C1023 C1029 1.429 . S
C1024 C1016 1.574 . S
C1024 H1019 0.949 . S
C1024 C1030 1.368 . S
C1025 C1009 1.349 . S
C1025 H1017 0.950 . S
C1025 C1023 1.327 . S
C1026 C1014 1.349 . S
C1026 H1020 0.970 . S
C1026 C1027 1.327 . S
C1027 H1021 0.950 . S
C1027 C1026 1.327 . S
C1027 C1031 1.429 . S
C1028 C1011 1.574 . S
C1028 H1022 0.949 . S
C1028 C1032 1.368 . S
C1029 C1010 1.429 . S
C1029 C1023 1.429 . S
C1029 C1030 1.523 . S
C1030 C1011 1.368 . S
C1030 C1024 1.368 . S
C1030 C1029 1.523 . S
C1031 C1015 1.429 . S
C1031 C1027 1.429 . S
C1031 C1032 1.523 . S
C1032 C1016 1.368 . S
C1032 C1028 1.368 . S
C1032 C1031 1.523 . S
H1033 C1008 0.950 . S
H1034 C1010 0.950 . S
H1035 C1011 0.949 . S
H1036 C1013 0.950 . S
H1037 C1015 0.950 . S
C1038 C1039 1.349 . S
C1038 C1040 1.327 . S
C1038 H1063 0.950 . S
C1039 C1038 1.349 . S
C1039 C1055 1.349 . S
C1040 C1038 1.327 . S
C1040 C1059 1.429 . S
C1040 H1064 0.950 . S
C1041 C1058 1.574 . S
C1041 C1060 1.368 . S
C1041 H1065 0.949 . S
H1042 C1046 0.949 . S
C1043 C1044 1.349 . S
C1043 C1045 1.327 . S
C1043 H1066 0.950 . S
C1044 C1043 1.349 . S
C1044 C1056 1.349 . S
C1045 C1043 1.327 . S
C1045 C1061 1.429 . S
C1045 H1067 0.950 . S
C1046 H1042 0.949 . S
C1046 C1054 1.574 . S
C1046 C1062 1.368 . S
H1047 C1055 0.950 . S
H1048 C1053 0.950 . S
H1049 C1054 0.949 . S
H1050 C1056 0.950 . S
H1051 C1057 0.950 . S
H1052 C1058 0.949 . S
C1053 H1048 0.950 . S
C1053 C1055 1.327 . S
C1053 C1059 1.429 . S
C1054 C1046 1.574 . S
C1054 H1049 0.949 . S
C1054 C1060 1.368 . S
C1055 C1039 1.349 . S
C1055 H1047 0.950 . S
C1055 C1053 1.327 . S
C1056 C1044 1.349 . S
C1056 H1050 0.950 . S
C1056 C1057 1.327 . S
C1057 H1051 0.950 . S
C1057 C1056 1.327 . S
C1057 C1061 1.429 . S
C1058 C1041 1.574 . S
C1058 H1052 0.949 . S
C1058 C1062 1.368 . S
C1059 C1040 1.429 . S
C1059 C1053 1.429 . S
C1059 C1060 1.523 . S
C1060 C1041 1.368 . S
C1060 C1054 1.368 . S
C1060 C1059 1.523 . S
C1061 C1045 1.429 . S
C1061 C1057 1.429 . S
C1061 C1062 1.523 . S
C1062 C1046 1.368 . S
C1062 C1058 1.368 . S
C1062 C1061 1.523 . S
H1063 C1038 0.950 . S
H1064 C1040 0.950 . S
H1065 C1041 0.949 . S
H1066 C1043 0.950 . S
H1067 C1045 0.950 . S
C349 C29 1.591 . S
C354 C274 1.629 . S
C379 C49 1.551 . S
C384 C298 1.526 . S
C414 C318 1.427 . S
C409 C93 1.349 . S
C439 C119 1.293 . S
C444 C341 1.359 . S
C474 C300 1.666 . S
C469 C17 1.654 . S
C504 C276 1.707 . S
C499 C61 1.737 . S
C534 C344 1.539 . S
C529 C81 1.511 . S
C564 C321 1.588 . S
C559 C125 1.543 . S
C589 C23 1.286 . S
C594 C346 1.300 . S
C624 C295 1.619 1_556 S
C619 C87 1.545 . S
C649 C113 1.603 . S
C654 C273 1.676 . S
C679 C55 1.333 . S
C684 C323 1.307 . S
C714 C277 1.622 . S
C709 C157 1.639 . S
C739 C189 1.505 . S
C744 C299 1.594 . S
C769 C221 1.802 . S
C774 C319 1.802 . S
C799 C253 1.692 . S
C804 C342 1.814 . S
C829 C145 1.602 . S
C834 C297 1.558 1_556 S
C864 C275 1.502 . S
C859 C183 1.405 . S
C894 C345 1.467 . S
C889 C209 1.507 . S
C924 C322 1.465 . S
C919 C247 1.418 . S
C949 C151 1.931 . S
C954 C343 1.876 . S
C984 C296 1.529 . S
C979 C215 1.537 . S
C1014 C272 1.574 . S
C1009 C241 1.480 . S
C1039 C177 1.823 . S
C1044 C320 1.890 . S
