# Generated by pormake.
# Topology ssc, (4,4)-cn, num edge types: 1
# Building blocks:
#     Node 0, Type 0, BuildingBlock: QUQFOY_clean_sbu_3, # of connection points: 4
#     Node 1, Type 0, BuildingBlock: QUQFOY_clean_sbu_3, # of connection points: 4
#     Node 2, Type 0, BuildingBlock: QUQFOY_clean_sbu_3, # of connection points: 4
#     Node 3, Type 0, BuildingBlock: QUQFOY_clean_sbu_3, # of connection points: 4
#     Node 4, Type 0, BuildingBlock: QUQFOY_clean_sbu_3, # of connection points: 4
#     Node 5, Type 0, BuildingBlock: QUQFOY_clean_sbu_3, # of connection points: 4
#     Node 6, Type 0, BuildingBlock: QUQFOY_clean_sbu_3, # of connection points: 4
#     Node 7, Type 0, BuildingBlock: QUQFOY_clean_sbu_3, # of connection points: 4
#     Node 8, Type 0, BuildingBlock: QUQFOY_clean_sbu_3, # of connection points: 4
#     Node 9, Type 0, BuildingBlock: QUQFOY_clean_sbu_3, # of connection points: 4
#     Node 10, Type 0, BuildingBlock: QUQFOY_clean_sbu_3, # of connection points: 4
#     Node 11, Type 0, BuildingBlock: QUQFOY_clean_sbu_3, # of connection points: 4
#     Node 12, Type 1, BuildingBlock: KUFVIS_clean_linker_0, # of connection points: 4
#     Node 13, Type 1, BuildingBlock: KUFVIS_clean_linker_0, # of connection points: 4
#     Node 14, Type 1, BuildingBlock: KUFVIS_clean_linker_0, # of connection points: 4
#     Node 15, Type 1, BuildingBlock: KUFVIS_clean_linker_0, # of connection points: 4
#     Node 16, Type 1, BuildingBlock: KUFVIS_clean_linker_0, # of connection points: 4
#     Node 17, Type 1, BuildingBlock: KUFVIS_clean_linker_0, # of connection points: 4
#     Node 18, Type 1, BuildingBlock: KUFVIS_clean_linker_0, # of connection points: 4
#     Node 19, Type 1, BuildingBlock: KUFVIS_clean_linker_0, # of connection points: 4
#     Node 20, Type 1, BuildingBlock: KUFVIS_clean_linker_0, # of connection points: 4
#     Node 21, Type 1, BuildingBlock: KUFVIS_clean_linker_0, # of connection points: 4
#     Node 22, Type 1, BuildingBlock: KUFVIS_clean_linker_0, # of connection points: 4
#     Node 23, Type 1, BuildingBlock: KUFVIS_clean_linker_0, # of connection points: 4
#     Edge 24, Type (0, 1), BuildingBlock: KIFKEQ_clean_linker_1, # of connection points: 2
#     Edge 25, Type (0, 1), BuildingBlock: KIFKEQ_clean_linker_1, # of connection points: 2
#     Edge 26, Type (0, 1), BuildingBlock: KIFKEQ_clean_linker_1, # of connection points: 2
#     Edge 27, Type (0, 1), BuildingBlock: KIFKEQ_clean_linker_1, # of connection points: 2
#     Edge 28, Type (0, 1), BuildingBlock: KIFKEQ_clean_linker_1, # of connection points: 2
#     Edge 29, Type (0, 1), BuildingBlock: KIFKEQ_clean_linker_1, # of connection points: 2
#     Edge 30, Type (0, 1), BuildingBlock: KIFKEQ_clean_linker_1, # of connection points: 2
#     Edge 31, Type (0, 1), BuildingBlock: KIFKEQ_clean_linker_1, # of connection points: 2
#     Edge 32, Type (0, 1), BuildingBlock: KIFKEQ_clean_linker_1, # of connection points: 2
#     Edge 33, Type (0, 1), BuildingBlock: KIFKEQ_clean_linker_1, # of connection points: 2
#     Edge 34, Type (0, 1), BuildingBlock: KIFKEQ_clean_linker_1, # of connection points: 2
#     Edge 35, Type (0, 1), BuildingBlock: KIFKEQ_clean_linker_1, # of connection points: 2
#     Edge 36, Type (0, 1), BuildingBlock: KIFKEQ_clean_linker_1, # of connection points: 2
#     Edge 37, Type (0, 1), BuildingBlock: KIFKEQ_clean_linker_1, # of connection points: 2
#     Edge 38, Type (0, 1), BuildingBlock: KIFKEQ_clean_linker_1, # of connection points: 2
#     Edge 39, Type (0, 1), BuildingBlock: KIFKEQ_clean_linker_1, # of connection points: 2
#     Edge 40, Type (0, 1), BuildingBlock: KIFKEQ_clean_linker_1, # of connection points: 2
#     Edge 41, Type (0, 1), BuildingBlock: KIFKEQ_clean_linker_1, # of connection points: 2
#     Edge 42, Type (0, 1), BuildingBlock: KIFKEQ_clean_linker_1, # of connection points: 2
#     Edge 43, Type (0, 1), BuildingBlock: KIFKEQ_clean_linker_1, # of connection points: 2
#     Edge 44, Type (0, 1), BuildingBlock: KIFKEQ_clean_linker_1, # of connection points: 2
#     Edge 45, Type (0, 1), BuildingBlock: KIFKEQ_clean_linker_1, # of connection points: 2
#     Edge 46, Type (0, 1), BuildingBlock: KIFKEQ_clean_linker_1, # of connection points: 2
#     Edge 47, Type (0, 1), BuildingBlock: KIFKEQ_clean_linker_1, # of connection points: 2
#     Edge 48, Type (0, 1), BuildingBlock: KIFKEQ_clean_linker_1, # of connection points: 2
#     Edge 49, Type (0, 1), BuildingBlock: KIFKEQ_clean_linker_1, # of connection points: 2
#     Edge 50, Type (0, 1), BuildingBlock: KIFKEQ_clean_linker_1, # of connection points: 2
#     Edge 51, Type (0, 1), BuildingBlock: KIFKEQ_clean_linker_1, # of connection points: 2
#     Edge 52, Type (0, 1), BuildingBlock: KIFKEQ_clean_linker_1, # of connection points: 2
#     Edge 53, Type (0, 1), BuildingBlock: KIFKEQ_clean_linker_1, # of connection points: 2
#     Edge 54, Type (0, 1), BuildingBlock: KIFKEQ_clean_linker_1, # of connection points: 2
#     Edge 55, Type (0, 1), BuildingBlock: KIFKEQ_clean_linker_1, # of connection points: 2
#     Edge 56, Type (0, 1), BuildingBlock: KIFKEQ_clean_linker_1, # of connection points: 2
#     Edge 57, Type (0, 1), BuildingBlock: KIFKEQ_clean_linker_1, # of connection points: 2
#     Edge 58, Type (0, 1), BuildingBlock: KIFKEQ_clean_linker_1, # of connection points: 2
#     Edge 59, Type (0, 1), BuildingBlock: KIFKEQ_clean_linker_1, # of connection points: 2
#     Edge 60, Type (0, 1), BuildingBlock: KIFKEQ_clean_linker_1, # of connection points: 2
#     Edge 61, Type (0, 1), BuildingBlock: KIFKEQ_clean_linker_1, # of connection points: 2
#     Edge 62, Type (0, 1), BuildingBlock: KIFKEQ_clean_linker_1, # of connection points: 2
#     Edge 63, Type (0, 1), BuildingBlock: KIFKEQ_clean_linker_1, # of connection points: 2
#     Edge 64, Type (0, 1), BuildingBlock: KIFKEQ_clean_linker_1, # of connection points: 2
#     Edge 65, Type (0, 1), BuildingBlock: KIFKEQ_clean_linker_1, # of connection points: 2
#     Edge 66, Type (0, 1), BuildingBlock: KIFKEQ_clean_linker_1, # of connection points: 2
#     Edge 67, Type (0, 1), BuildingBlock: KIFKEQ_clean_linker_1, # of connection points: 2
#     Edge 68, Type (0, 1), BuildingBlock: KIFKEQ_clean_linker_1, # of connection points: 2
#     Edge 69, Type (0, 1), BuildingBlock: KIFKEQ_clean_linker_1, # of connection points: 2
#     Edge 70, Type (0, 1), BuildingBlock: KIFKEQ_clean_linker_1, # of connection points: 2
#     Edge 71, Type (0, 1), BuildingBlock: KIFKEQ_clean_linker_1, # of connection points: 2
# Relax obj value: 0.126
# Max RMSD: 0.301
# Mean RMSD: 0.275
data_MOF--net-ssc--node1-QUQFOY_clean_sbu_3--node2-KUFVIS_clean_linker_0--edge1-KIFKEQ_clean_linker_1
_symmetry_space_group_name_H-M    P1
_symmetry_Int_Tables_number       1
_symmetry_cell_setting            triclinic
loop_
_symmetry_equiv_pos_as_xyz
'x, y, z'
_cell_length_a     31.830618
_cell_length_b     31.997209
_cell_length_c     31.86096
_cell_angle_alpha  92.589089
_cell_angle_beta   90.02909
_cell_angle_gamma 90.813521
loop_
_atom_site_label
_atom_site_type_symbol
_atom_site_fract_x
_atom_site_fract_y
_atom_site_fract_z
_atom_type_partial_charge
C0 C 0.09695 0.25398 0.21715 0.0
O1 O 0.09942 0.21468 0.21977 0.0
Cd2 Cd 0.05889 0.1667 0.178 0.0
O3 O 0.07036 0.2697 0.19254 0.0
Cd4 Cd 0.01811 0.24225 0.13903 0.0
C5 C 0.95554 0.18885 0.20142 0.0
O6 O 0.0678 0.19169 0.10981 0.0
O7 O 0.00364 0.18118 0.09049 0.0
O8 O 0.03981 0.30183 0.09883 0.0
C9 C 0.04207 0.17248 0.08558 0.0
O10 O 0.98562 0.16305 0.19998 0.0
C11 C 0.00392 0.30947 0.08398 0.0
O12 O 0.95973 0.22455 0.18575 0.0
O13 O 0.97353 0.28705 0.09631 0.0
C14 C 0.08778 0.75671 0.26837 0.0
O15 O 0.08524 0.79625 0.26983 0.0
Cd16 Cd 0.04414 0.8328 0.32158 0.0
O17 O 0.06717 0.73509 0.29428 0.0
Cd18 Cd 0.01846 0.74842 0.3545 0.0
C19 C 0.94373 0.79587 0.3019 0.0
O20 O 0.05954 0.80614 0.38836 0.0
O21 O -0.00578 0.80174 0.40556 0.0
O22 O 0.05254 0.69305 0.39213 0.0
C23 C 0.03034 0.81747 0.41301 0.0
O24 O 0.96963 0.82655 0.30486 0.0
C25 C 0.01909 0.67689 0.4062 0.0
O26 O 0.95442 0.75972 0.31289 0.0
O27 O 0.98481 0.69215 0.39399 0.0
C28 C 0.60141 0.74863 0.71869 0.0
O29 O 0.60482 0.70929 0.72003 0.0
Cd30 Cd 0.56568 0.66201 0.67601 0.0
O31 O 0.57495 0.76449 0.69405 0.0
Cd32 Cd 0.52438 0.73804 0.63861 0.0
C33 C 0.46153 0.68205 0.69864 0.0
O34 O 0.57512 0.68887 0.60845 0.0
O35 O 0.51124 0.67832 0.58816 0.0
O36 O 0.54611 0.79907 0.60034 0.0
C37 C 0.54982 0.67022 0.58333 0.0
O38 O 0.49223 0.65699 0.69742 0.0
C39 C 0.51021 0.80699 0.58568 0.0
O40 O 0.4652 0.718 0.68338 0.0
O41 O 0.47991 0.78402 0.59724 0.0
C42 C 0.58228 0.2583 0.77161 0.0
O43 O 0.57951 0.29782 0.77251 0.0
Cd44 Cd 0.53822 0.33487 0.82374 0.0
O45 O 0.56166 0.2369 0.7977 0.0
Cd46 Cd 0.51254 0.25039 0.85755 0.0
C47 C 0.43794 0.29756 0.80415 0.0
O48 O 0.55379 0.30835 0.89053 0.0
O49 O 0.48877 0.30379 0.90878 0.0
O50 O 0.54706 0.19502 0.89484 0.0
C51 C 0.52492 0.31973 0.91555 0.0
O52 O 0.46379 0.32829 0.80691 0.0
C53 C 0.51384 0.17918 0.90976 0.0
O54 O 0.4486 0.26154 0.81556 0.0
O55 O 0.47939 0.19456 0.89815 0.0
C56 C 0.08938 0.02805 0.18789 0.0
O57 O 0.09892 0.06098 0.20977 0.0
Cd58 Cd 0.14643 0.06261 0.26789 0.0
O59 O 0.10698 0.99343 0.19482 0.0
Cd60 Cd 0.16219 0.96617 0.24154 0.0
C61 C 0.09785 0.98587 0.32423 0.0
O62 O 0.2076 0.02809 0.24216 0.0
O63 O 0.2204 0.98467 0.28988 0.0
O64 O 0.18799 0.92327 0.18228 0.0
C65 C 0.23079 0.01794 0.27214 0.0
O66 O 0.10835 0.02427 0.32165 0.0
C67 C 0.19154 0.89004 0.20229 0.0
O68 O 0.11117 0.95841 0.2975 0.0
O69 O 0.18034 0.89186 0.24057 0.0
C70 C 0.19957 0.91949 0.49626 0.0
O71 O 0.22178 0.91184 0.46375 0.0
Cd72 Cd 0.28058 0.86591 0.45947 0.0
O73 O 0.207 0.90146 0.53041 0.0
Cd74 Cd 0.25734 0.84896 0.55606 0.0
C75 C 0.34006 0.91434 0.53803 0.0
O76 O 0.25561 0.80472 0.49128 0.0
O77 O 0.30008 0.78745 0.53813 0.0
O78 O 0.20141 0.82283 0.60091 0.0
C79 C 0.28289 0.77931 0.50288 0.0
O80 O 0.33614 0.90352 0.49923 0.0
C81 C 0.22511 0.8173 0.63226 0.0
O82 O 0.31415 0.90113 0.56501 0.0
O83 O 0.26325 0.82878 0.62899 0.0
C84 C 0.42186 0.95031 0.69327 0.0
O85 O 0.40992 0.91567 0.70764 0.0
Cd86 Cd 0.35327 0.90637 0.75577 0.0
O87 O 0.4026 0.98418 0.70301 0.0
Cd88 Cd 0.34171 0.00964 0.74605 0.0
C89 C 0.39238 0.97629 0.83285 0.0
O90 O 0.30023 0.94791 0.72745 0.0
O91 O 0.27081 0.99047 0.77183 0.0
O92 O 0.32875 0.06093 0.69317 0.0
C93 C 0.26869 0.95635 0.75011 0.0
O94 O 0.38312 0.93898 0.82004 0.0
C95 C 0.32104 0.09103 0.71934 0.0
O96 O 0.38231 0.00734 0.81142 0.0
O97 O 0.3246 0.08368 0.75802 0.0
C98 C 0.19937 0.08924 0.06463 0.0
O99 O 0.21227 0.10269 0.10058 0.0
Cd100 Cd 0.26179 0.15899 0.11218 0.0
O101 O 0.21054 0.10733 0.03137 0.0
Cd102 Cd 0.25411 0.16766 0.00865 0.0
C103 C 0.33719 0.11451 0.04687 0.0
O104 O 0.23708 0.21249 0.06964 0.0
O105 O 0.28589 0.23564 0.02987 0.0
O106 O 0.20143 0.18256 0.95553 0.0
C107 C 0.26281 0.24159 0.0619 0.0
O108 O 0.32481 0.1258 0.08364 0.0
C109 C 0.22759 0.18968 0.92646 0.0
O110 O 0.31673 0.1244 0.01442 0.0
O111 O 0.26613 0.18437 0.93486 0.0
C112 C 0.702 0.41877 0.00052 0.0
O113 O 0.72294 0.41174 0.96709 0.0
Cd114 Cd 0.7849 0.37065 0.96256 0.0
O115 O 0.7121 0.40158 0.03444 0.0
Cd116 Cd 0.7657 0.35076 0.05799 0.0
C117 C 0.84074 0.42288 0.04252 0.0
O118 O 0.76759 0.3067 0.99352 0.0
O119 O 0.8203 0.30124 0.03494 0.0
O120 O 0.71167 0.31806 0.10008 0.0
C121 C 0.80132 0.28832 0.00178 0.0
O122 O 0.8375 0.41181 0.00369 0.0
C123 C 0.73493 0.31311 0.13184 0.0
O124 O 0.81596 0.40798 0.06957 0.0
O125 O 0.77244 0.32688 0.1299 0.0
C126 C 0.91595 0.44953 0.1904 0.0
O127 O 0.9048 0.41449 0.20443 0.0
Cd128 Cd 0.84897 0.40446 0.25367 0.0
O129 O 0.89644 0.48294 0.20121 0.0
Cd130 Cd 0.83644 0.5071 0.24594 0.0
C131 C 0.88871 0.47296 0.3314 0.0
O132 O 0.79403 0.44553 0.22757 0.0
O133 O 0.76648 0.48787 0.2735 0.0
O134 O 0.82279 0.5585 0.19355 0.0
C135 C 0.76333 0.45403 0.25142 0.0
O136 O 0.87952 0.43573 0.31827 0.0
C137 C 0.81643 0.58888 0.21977 0.0
O138 O 0.87819 0.50419 0.31047 0.0
O139 O 0.82047 0.58153 0.2584 0.0
C140 C 0.6998 0.58874 0.56586 0.0
O141 O 0.71213 0.60247 0.60189 0.0
Cd142 Cd 0.762 0.65874 0.61249 0.0
O143 O 0.71132 0.60689 0.53276 0.0
Cd144 Cd 0.75456 0.66819 0.51129 0.0
C145 C 0.83763 0.61467 0.54778 0.0
O146 O 0.73787 0.7145 0.57207 0.0
O147 O 0.7888 0.73446 0.5329 0.0
O148 O 0.70232 0.68551 0.45872 0.0
C149 C 0.76489 0.74237 0.56393 0.0
O150 O 0.82549 0.62589 0.58464 0.0
C151 C 0.72842 0.69156 0.42936 0.0
O152 O 0.8169 0.62464 0.51557 0.0
O153 O 0.76676 0.68472 0.43733 0.0
C154 C 0.5867 0.52524 0.68851 0.0
O155 O 0.59515 0.55847 0.71046 0.0
Cd156 Cd 0.64357 0.56402 0.76786 0.0
O157 O 0.60534 0.4911 0.69535 0.0
Cd158 Cd 0.6613 0.46501 0.74198 0.0
C159 C 0.59874 0.48724 0.82694 0.0
O160 O 0.70229 0.52873 0.73828 0.0
O161 O 0.72706 0.48482 0.78045 0.0
O162 O 0.68305 0.4196 0.68273 0.0
C163 C 0.73103 0.5197 0.76345 0.0
O164 O 0.60748 0.52584 0.82279 0.0
C165 C 0.68901 0.38759 0.70408 0.0
O166 O 0.61294 0.45942 0.80105 0.0
O167 O 0.68054 0.39112 0.74301 0.0
H168 H 0.89912 0.33864 0.5751 0.0
H169 H 0.96738 0.22746 0.59891 0.0
H170 H 0.03207 0.3355 0.55206 0.0
H171 H 0.01601 0.20526 0.53127 0.0
H172 H 0.146 0.19082 0.56215 0.0
H173 H 0.07886 0.29656 0.61421 0.0
C174 C 0.92843 0.32168 0.57434 0.0
C175 C 0.96532 0.34171 0.56155 0.0
C176 C 0.92901 0.28086 0.58821 0.0
C177 C 0.96687 0.25914 0.58821 0.0
C178 C 0.00418 0.27858 0.57468 0.0
C179 C 0.00344 0.3203 0.56232 0.0
C180 C 0.04347 0.25467 0.5716 0.0
C181 C 0.04426 0.21695 0.5471 0.0
C182 C 0.0815 0.19438 0.54289 0.0
C183 C 0.11776 0.20945 0.56364 0.0
C184 C 0.11702 0.24581 0.58982 0.0
C185 C 0.07985 0.26875 0.59351 0.0
H186 H 0.89302 0.66016 0.96489 0.0
H187 H 0.0044 0.71777 0.01873 0.0
H188 H 0.96476 0.74617 0.89362 0.0
H189 H 0.04046 0.7433 0.88947 0.0
H190 H 0.12116 0.83988 0.94343 0.0
H191 H 0.01576 0.79654 0.01399 0.0
C192 C 0.91851 0.68296 0.96341 0.0
C193 C 0.92512 0.70341 0.9261 0.0
C194 C 0.94713 0.68759 -0.00324 0.0
C195 C 0.98157 0.71501 0.99345 0.0
C196 C 0.98774 0.7371 0.95664 0.0
C197 C 0.95965 0.73059 0.92273 0.0
C198 C 0.02474 0.7652 0.95296 0.0
C199 C 0.04888 0.76434 0.91585 0.0
C200 C 0.084 0.79082 0.91268 0.0
C201 C 0.09506 0.81804 0.9466 0.0
C202 C 0.07042 0.82046 0.98292 0.0
C203 C 0.03536 0.79393 0.9862 0.0
H204 H 0.40012 0.83877 0.07285 0.0
H205 H 0.46797 0.72763 0.09755 0.0
H206 H 0.53345 0.8359 0.05207 0.0
H207 H 0.51687 0.70385 0.03337 0.0
H208 H 0.64676 0.69021 0.06481 0.0
H209 H 0.58014 0.79813 0.11257 0.0
C210 C 0.42945 0.82183 0.07248 0.0
C211 C 0.46654 0.842 0.06047 0.0
C212 C 0.4298 0.78096 0.0862 0.0
C213 C 0.46766 0.75931 0.08684 0.0
C214 C 0.50521 0.77879 0.07396 0.0
C215 C 0.50467 0.8206 0.06177 0.0
C216 C 0.54453 0.7548 0.0716 0.0
C217 C 0.54515 0.71612 0.04871 0.0
C218 C 0.58226 0.69325 0.04551 0.0
C219 C 0.61862 0.70901 0.06555 0.0
C220 C 0.61806 0.74638 0.0902 0.0
C221 C 0.581 0.76959 0.09293 0.0
H222 H 0.40026 0.15084 0.48068 0.0
H223 H 0.51647 0.20674 0.5243 0.0
H224 H 0.46123 0.24337 0.40783 0.0
H225 H 0.53907 0.23807 0.39558 0.0
H226 H 0.61934 0.33806 0.44334 0.0
H227 H 0.52204 0.29014 0.52188 0.0
C228 C 0.42501 0.17417 0.47749 0.0
C229 C 0.42633 0.19748 0.44142 0.0
C230 C 0.45732 0.17702 0.50731 0.0
C231 C 0.49085 0.20514 0.50183 0.0
C232 C 0.49205 0.2299 0.46631 0.0
C233 C 0.45999 0.22537 0.43583 0.0
C234 C 0.52762 0.25927 0.46019 0.0
C235 C 0.54872 0.25942 0.42129 0.0
C236 C 0.58228 0.28733 0.41555 0.0
C237 C 0.59452 0.31523 0.44849 0.0
C238 C 0.57273 0.31673 0.48659 0.0
C239 C 0.53945 0.28849 0.49263 0.0
H240 H 0.57092 0.86482 0.32264 0.0
H241 H 0.62664 0.9333 0.22338 0.0
H242 H 0.53537 0.99196 0.3062 0.0
H243 H 0.54736 0.9822 0.18423 0.0
H244 H 0.58708 0.11108 0.18305 0.0
H245 H 0.62159 0.03718 0.2866 0.0
C246 C 0.57233 0.89274 0.30452 0.0
C247 C 0.54896 0.92765 0.31773 0.0
C248 C 0.6007 0.89451 0.27101 0.0
C249 C 0.60428 0.93139 0.2489 0.0
C250 C 0.57975 0.96627 0.26085 0.0
C251 C 0.55291 0.96457 0.29587 0.0
C252 C 0.5834 0.00546 0.23833 0.0
C253 C 0.56369 0.00894 0.19902 0.0
C254 C 0.56436 0.0474 0.1794 0.0
C255 C 0.58541 0.08172 0.19883 0.0
C256 C 0.60655 0.07814 0.23699 0.0
C257 C 0.60538 0.04002 0.25695 0.0
H258 H 0.15409 0.45141 0.40762 0.0
H259 H 0.16303 0.47509 0.54108 0.0
H260 H 0.26377 0.41331 0.47347 0.0
H261 H 0.20552 0.39699 0.57907 0.0
H262 H 0.31526 0.44169 0.64698 0.0
H263 H 0.28738 0.48974 0.52673 0.0
C264 C 0.17239 0.45108 0.43636 0.0
C265 C 0.21124 0.43121 0.43594 0.0
C266 C 0.1546 0.46647 0.47395 0.0
C267 C 0.17667 0.4633 0.51178 0.0
C268 C 0.2168 0.4454 0.51136 0.0
C269 C 0.23369 0.4288 0.47351 0.0
C270 C 0.2422 0.44528 0.54987 0.0
C271 C 0.23235 0.41816 0.58216 0.0
C272 C 0.25865 0.41716 0.61747 0.0
C273 C 0.29406 0.44369 0.62046 0.0
C274 C 0.30483 0.46955 0.58776 0.0
C275 C 0.27882 0.47025 0.55246 0.0
H276 H 0.012 0.12444 0.8557 0.0
H277 H 0.92797 0.07272 0.7609 0.0
H278 H 0.0439 0.01086 0.7875 0.0
H279 H 0.03383 0.01394 0.70339 0.0
H280 H 0.9527 0.91429 0.6565 0.0
H281 H 0.91441 0.99129 0.76324 0.0
C282 C 0.00557 0.1018 0.83004 0.0
C283 C 0.03306 0.06839 0.82298 0.0
C284 C 0.96743 0.10352 0.80829 0.0
C285 C 0.95757 0.07201 0.77769 0.0
C286 C 0.98583 0.03932 0.76911 0.0
C287 C 0.02333 0.03741 0.79215 0.0
C288 C 0.97574 0.00574 0.73758 0.0
C289 C 0.00506 -0.00433 0.7059 0.0
C290 C -0.00321 0.96261 0.6769 0.0
C291 C 0.95952 0.93929 0.67979 0.0
C292 C 0.92962 0.9497 0.71054 0.0
C293 C 0.93753 0.9832 0.73937 0.0
H294 H 0.33243 0.51737 0.85754 0.0
H295 H 0.29704 0.48282 0.98154 0.0
H296 H 0.22677 0.57561 0.91847 0.0
H297 H 0.26168 0.5929 0.00963 0.0
H298 H 0.16476 0.55056 0.0919 0.0
H299 H 0.19292 0.47821 0.97877 0.0
C300 C 0.3104 0.51885 0.88353 0.0
C301 C 0.27771 0.54773 0.88302 0.0
C302 C 0.31819 0.49581 0.91906 0.0
C303 C 0.29096 0.49987 0.95357 0.0
C304 C 0.2572 0.5277 0.9529 0.0
C305 C 0.25122 0.55234 0.91799 0.0
C306 C 0.23106 0.53417 0.9906 0.0
C307 C 0.23804 0.56977 0.01737 0.0
C308 C 0.21458 0.5752 0.05428 0.0
C309 C 0.18389 0.5455 0.06396 0.0
C310 C 0.17552 0.51089 0.03679 0.0
C311 C 0.19934 0.50494 5e-05 0.0
H312 H 0.65562 0.9514 0.91074 0.0
H313 H 0.66628 0.97872 0.04354 0.0
H314 H 0.76438 0.91166 0.97709 0.0
H315 H 0.70877 0.89704 0.08127 0.0
H316 H 0.81804 0.94279 0.14925 0.0
H317 H 0.78843 0.99213 0.02995 0.0
C318 C 0.67411 0.95134 0.93938 0.0
C319 C 0.71224 0.93016 0.93932 0.0
C320 C 0.65712 0.96843 0.97668 0.0
C321 C 0.67936 0.96572 0.01445 0.0
C322 C 0.7188 0.94646 0.01429 0.0
C323 C 0.73484 0.92815 0.97684 0.0
C324 C 0.74432 0.94649 0.05269 0.0
C325 C 0.7352 0.91868 0.08456 0.0
C326 C 0.76168 0.91769 0.11971 0.0
C327 C 0.79664 0.94482 0.1229 0.0
C328 C 0.80673 0.97138 0.09054 0.0
C329 C 0.78043 0.97214 0.05545 0.0
H330 H 0.5105 0.61381 0.36634 0.0
H331 H 0.42012 0.55566 0.28144 0.0
H332 H 0.54755 0.51158 0.28406 0.0
H333 H 0.52988 0.51274 0.20743 0.0
H334 H 0.45221 0.41139 0.15846 0.0
H335 H 0.41424 0.4805 0.27028 0.0
C336 C 0.50294 0.59155 0.34066 0.0
C337 C 0.53384 0.5638 0.32607 0.0
C338 C 0.4614 0.58771 0.3263 0.0
C339 C 0.45202 0.5587 0.29317 0.0
C340 C 0.48347 0.53214 0.2766 0.0
C341 C 0.52411 0.53423 0.29398 0.0
C342 C 0.47371 0.49986 0.24339 0.0
C343 C 0.50217 0.49293 0.21012 0.0
C344 C 0.49464 0.46076 0.17995 0.0
C345 C 0.45861 0.43558 0.18271 0.0
C346 C 0.42934 0.44304 0.21479 0.0
C347 C 0.43679 0.4752 0.2452 0.0
H348 H 0.83203 0.02457 0.36189 0.0
H349 H 0.80028 0.98459 0.48502 0.0
H350 H 0.7305 0.08276 0.4299 0.0
H351 H 0.76355 0.09745 0.51785 0.0
H352 H 0.67354 0.04773 0.6034 0.0
H353 H 0.70097 0.97925 0.48787 0.0
C354 C 0.81114 0.02542 0.38882 0.0
C355 C 0.7792 0.05517 0.39109 0.0
C356 C 0.81959 0.00036 0.42275 0.0
C357 C 0.79378 0.0034 0.45835 0.0
C358 C 0.76103 0.03238 0.46058 0.0
C359 C 0.75436 0.05893 0.42731 0.0
C360 C 0.73621 0.03703 0.49932 0.0
C361 C 0.74201 0.07266 0.5263 0.0
C362 C 0.72007 0.076 0.56434 0.0
C363 C 0.692 0.04413 0.57484 0.0
C364 C 0.68443 0.00963 0.54726 0.0
C365 C 0.70687 0.00581 0.50951 0.0
H366 H 0.06711 0.36446 0.82087 0.0
H367 H 0.12511 0.43286 0.7228 0.0
H368 H 0.03241 0.49174 0.80376 0.0
H369 H 0.04791 0.48058 0.68154 0.0
H370 H 0.08438 0.61035 0.68076 0.0
H371 H 0.11713 0.53818 0.78614 0.0
C372 C 0.06902 0.39239 0.80281 0.0
C373 C 0.04552 0.42738 0.81556 0.0
C374 C 0.09809 0.39411 0.76991 0.0
C375 C 0.10229 0.43103 0.74792 0.0
C376 C 0.07771 0.46601 0.75942 0.0
C377 C 0.05012 0.46433 0.79384 0.0
C378 C 0.08153 0.50508 0.73671 0.0
C379 C 0.06312 0.5078 0.69669 0.0
C380 C 0.06344 0.54611 0.67684 0.0
C381 C 0.08296 0.58108 0.6967 0.0
C382 C 0.10285 0.57836 0.73562 0.0
C383 C 0.10195 0.54036 0.75586 0.0
H384 H 0.93311 0.32623 0.03855 0.0
H385 H 0.0641 0.36104 0.05356 0.0
H386 H 0.92948 0.36773 0.97587 0.0
H387 H 0.06034 0.40237 0.99186 0.0
H388 H 0.98578 0.36976 0.83516 0.0
H389 H 0.96407 0.35282 0.90583 0.0
H390 H 0.02983 0.46293 0.95626 0.0
H391 H 0.0519 0.47957 0.88533 0.0
C392 C 0.96079 0.34351 0.02914 0.0
C393 C -0.00099 0.34003 0.05081 0.0
C394 C 0.95868 0.36727 0.99331 0.0
C395 C -0.00543 0.3885 0.97901 0.0
C396 C 0.0319 0.3871 0.00239 0.0
C397 C 0.03417 0.36298 0.03763 0.0
C398 C -0.00588 0.39121 0.86122 0.0
C399 C 0.02094 0.42562 0.85495 0.0
C400 C 0.98155 0.38164 0.90172 0.0
C401 C -0.0041 0.40614 0.93669 0.0
C402 C 0.01877 0.4432 0.92991 0.0
C403 C 0.03112 0.45293 0.8893 0.0
H404 H 0.88948 0.74016 0.26022 0.0
H405 H 0.90206 0.86879 0.30582 0.0
H406 H 0.82485 0.75747 0.2232 0.0
H407 H 0.83861 0.88607 0.2695 0.0
H408 H 0.73734 0.92523 0.2015 0.0
H409 H 0.76582 0.88308 0.25642 0.0
H410 H 0.81367 0.79562 0.16137 0.0
H411 H 0.78347 0.83692 0.10705 0.0
C412 C 0.8779 0.77182 0.26316 0.0
C413 C 0.90125 0.80336 0.28515 0.0
C414 C 0.84085 0.78174 0.24205 0.0
C415 C 0.82622 0.82316 0.24322 0.0
C416 C 0.84812 0.85368 0.26815 0.0
C417 C 0.88511 0.84393 0.2886 0.0
C418 C 0.75165 0.8956 0.19266 0.0
C419 C 0.75878 0.88446 0.15023 0.0
C420 C 0.7685 0.87166 0.22403 0.0
C421 C 0.79366 0.83691 0.21331 0.0
C422 C 0.7949 0.82233 0.17098 0.0
C423 C 0.77744 0.84596 0.13966 0.0
H424 H 0.62675 0.66942 0.54672 0.0
H425 H 0.50658 0.60499 0.54541 0.0
H426 H 0.64757 0.62851 0.48376 0.0
H427 H 0.52776 0.56344 0.48337 0.0
H428 H 0.55167 0.49907 0.37384 0.0
H429 H 0.57443 0.51308 0.44594 0.0
H430 H 0.6203 0.63488 0.41301 0.0
H431 H 0.59692 0.62096 0.3413 0.0
C432 C 0.60529 0.6457 0.5336 0.0
C433 C 0.56475 0.6408 0.55017 0.0
C434 C 0.61732 0.62229 0.49775 0.0
C435 C 0.58958 0.59269 0.47873 0.0
C436 C 0.55029 0.58546 0.49761 0.0
C437 C 0.53783 0.60963 0.53279 0.0
C438 C 0.56951 0.52754 0.38131 0.0
C439 C 0.57105 0.55976 0.35285 0.0
C440 C 0.58211 0.53578 0.42282 0.0
C441 C 0.59718 0.57586 0.43542 0.0
C442 C 0.60802 0.604 0.40442 0.0
C443 C 0.59498 0.59592 0.36304 0.0
H444 H 0.60557 0.17661 0.76878 0.0
H445 H 0.62429 0.29234 0.70587 0.0
H446 H 0.6525 0.14154 0.71915 0.0
H447 H 0.6716 0.25695 0.65593 0.0
H448 H 0.69061 0.15207 0.54646 0.0
H449 H 0.6655 0.20394 0.59872 0.0
H450 H 0.72505 0.1368 0.69676 0.0
H451 H 0.74879 0.08432 0.64437 0.0
C452 C 0.61988 0.19465 0.74448 0.0
C453 C 0.61096 0.23719 0.74119 0.0
C454 C 0.64733 0.17468 0.71632 0.0
C455 C 0.66648 0.19668 0.68401 0.0
C456 C 0.6576 0.23927 0.68066 0.0
C457 C 0.63038 0.25944 0.70918 0.0
C458 C 0.69998 0.14968 0.57896 0.0
C459 C 0.72125 0.1143 0.59168 0.0
C460 C 0.68545 0.17924 0.60897 0.0
C461 C 0.69219 0.17367 0.652 0.0
C462 C 0.71837 0.14121 0.66392 0.0
C463 C 0.73248 0.11152 0.634 0.0
H464 H 0.088 0.63823 0.43634 0.0
H465 H 0.95352 0.64617 0.45191 0.0
H466 H 0.09243 0.59761 0.49875 0.0
H467 H 0.95801 0.60491 0.51426 0.0
H468 H -0.00162 0.59432 0.6547 0.0
H469 H 0.98318 0.61764 0.58453 0.0
H470 H 0.07775 0.53472 0.53322 0.0
H471 H 0.09249 0.51109 0.60345 0.0
C472 C 0.05921 0.63044 0.45251 0.0
C473 C 0.02045 0.6457 0.43922 0.0
C474 C 0.0617 0.60688 0.4883 0.0
C475 C 0.02546 0.59773 0.51163 0.0
C476 C 0.98644 0.6113 0.49709 0.0
C477 C 0.9839 0.63488 0.46123 0.0
C478 C 0.01462 0.57988 0.62804 0.0
C479 C 0.04623 0.55062 0.63425 0.0
C480 C 0.00603 0.59324 0.58779 0.0
C481 C 0.02919 0.5779 0.55293 0.0
C482 C 0.05914 0.54683 0.55912 0.0
C483 C 0.06741 0.53309 0.59932 0.0
H484 H 0.67227 0.72608 0.75963 0.0
H485 H 0.59574 0.83292 0.73543 0.0
H486 H 0.71798 0.77013 0.8047 0.0
H487 H 0.64053 0.87665 0.7816 0.0
H488 H 0.72128 0.95468 0.85894 0.0
H489 H 0.70763 0.90943 0.7965 0.0
H490 H 0.70871 0.80148 0.87338 0.0
H491 H 0.72357 0.84659 0.93499 0.0
C492 C 0.66517 0.759 0.76396 0.0
C493 C 0.62988 0.77592 0.74465 0.0
C494 C 0.69152 0.78425 0.78964 0.0
C495 C 0.68295 0.82688 0.7969 0.0
C496 C 0.6486 0.8441 0.77616 0.0
C497 C 0.62248 0.81892 0.75013 0.0
C498 C 0.72073 0.92107 0.86187 0.0
C499 C 0.72278 0.90401 0.90164 0.0
C500 C 0.71236 0.89521 0.82632 0.0
C501 C 0.70556 0.85206 0.83024 0.0
C502 C 0.71359 0.83458 0.86915 0.0
C503 C 0.72233 0.86043 0.9046 0.0
H504 H 0.46733 0.37161 0.95105 0.0
H505 H 0.59851 0.33943 0.95612 0.0
H506 H 0.47668 0.41916 0.01204 0.0
H507 H 0.60741 0.38577 0.01901 0.0
H508 H 0.49523 0.5087 0.11264 0.0
H509 H 0.51582 0.48471 0.04171 0.0
H510 H 0.57206 0.3756 0.09192 0.0
H511 H 0.55029 0.39906 0.16258 0.0
C512 C 0.49832 0.37524 0.96495 0.0
C513 C 0.53213 0.35179 0.94924 0.0
C514 C 0.50384 0.40285 -0.0005 0.0
C515 C 0.54299 0.4066 0.01977 0.0
C516 C 0.57722 0.38408 0.00334 0.0
C517 C 0.57201 0.3574 0.96771 0.0
C518 C 0.51388 0.48074 0.10858 0.0
C519 C 0.52113 0.45543 0.14253 0.0
C520 C 0.52556 0.46704 0.06816 0.0
C521 C 0.54509 0.42825 0.06154 0.0
C522 C 0.55728 0.40578 0.09629 0.0
C523 C 0.54486 0.41908 0.13664 0.0
H524 H 0.89342 0.23859 0.23643 0.0
H525 H 0.92698 0.10983 0.20975 0.0
H526 H 0.83109 0.21498 0.27487 0.0
H527 H 0.86542 0.08651 0.24697 0.0
H528 H 0.76073 0.04083 0.3083 0.0
H529 H 0.78831 0.08256 0.25191 0.0
H530 H 0.8269 0.17915 0.34353 0.0
H531 H 0.79803 0.1379 0.3995 0.0
C532 C 0.88705 0.20536 0.23807 0.0
C533 C 0.91539 0.176 0.22072 0.0
C534 C 0.85139 0.19189 0.2599 0.0
C535 C 0.84309 0.1489 0.26376 0.0
C536 C 0.87025 0.11984 0.24405 0.0
C537 C 0.906 0.13321 0.22313 0.0
C538 C 0.77297 0.07201 0.31598 0.0
C539 C 0.7779 0.08605 0.35808 0.0
C540 C 0.78906 0.09578 0.28382 0.0
C541 C 0.81108 0.13344 0.29348 0.0
C542 C 0.8103 0.15021 0.33504 0.0
C543 C 0.79373 0.1266 0.36719 0.0
H544 H 0.06516 0.03455 0.38869 0.0
H545 H 0.05583 0.91105 0.32854 0.0
H546 H 0.00034 0.02182 0.42621 0.0
H547 H 0.99056 0.89824 0.36617 0.0
H548 H 0.85026 0.94702 0.36137 0.0
H549 H 0.92379 0.93018 0.35076 0.0
H550 H 0.95374 0.98563 0.47347 0.0
H551 H 0.87998 0.00348 0.48356 0.0
C552 C 0.04997 0.00415 0.38443 0.0
C553 C 0.06513 0.9742 0.3548 0.0
C554 C 0.01282 -0.00334 0.40626 0.0
C555 C 0.98975 0.95927 0.39855 0.0
C556 C 0.00722 0.92765 0.37222 0.0
C557 C 0.04469 0.93497 0.35074 0.0
C558 C 0.87231 0.95416 0.3867 0.0
C559 C 0.8596 0.97723 0.42289 0.0
C560 C 0.9145 0.94424 0.38081 0.0
C561 C 0.9448 0.95726 0.41098 0.0
C562 C 0.93121 0.9758 0.44938 0.0
C563 C 0.8889 0.98567 0.45532 0.0
H564 H 0.27264 0.77684 0.68877 0.0
H565 H 0.14429 0.80261 0.65599 0.0
H566 H 0.24814 0.72484 0.73722 0.0
H567 H 0.11971 0.75033 0.70322 0.0
H568 H 0.07346 0.6507 0.77178 0.0
H569 H 0.10838 0.71881 0.76715 0.0
H570 H 0.22136 0.65684 0.72392 0.0
H571 H 0.1869 0.58938 0.73098 0.0
C572 C 0.23913 0.77209 0.69265 0.0
C573 C 0.21033 0.79328 0.6681 0.0
C574 C 0.22508 0.74208 0.72027 0.0
C575 C 0.18193 0.73265 0.72383 0.0
C576 C 0.15316 0.75673 0.70191 0.0
C577 C 0.16721 0.78657 0.67431 0.0
C578 C 0.10651 0.65187 0.76373 0.0
C579 C 0.12754 0.61509 0.75143 0.0
C580 C 0.12637 0.69084 0.76034 0.0
C581 C 0.16711 0.69353 0.74334 0.0
C582 C 0.18991 0.65634 0.73683 0.0
C583 C 0.17024 0.61741 0.74097 0.0
H584 H 0.42693 0.05001 0.8658 0.0
H585 H 0.42278 0.91677 0.88285 0.0
H586 H 0.4851 0.05734 0.91556 0.0
H587 H 0.48162 0.92363 0.93038 0.0
H588 H 0.58851 0.93527 0.01355 0.0
H589 H 0.51623 0.94395 0.99115 0.0
H590 H 0.55641 0.0416 0.91013 0.0
H591 H 0.62844 0.03294 0.93304 0.0
C592 C 0.43788 0.0224 0.88067 0.0
C593 C 0.42073 0.98266 0.8696 0.0
C594 C 0.47151 0.02655 0.90897 0.0
C595 C 0.48879 0.99106 0.92661 0.0
C596 C 0.46922 0.9519 0.91802 0.0
C597 C 0.43545 0.94783 0.89023 0.0
C598 C 0.58139 0.95994 0.99257 0.0
C599 C 0.61376 0.98364 0.97514 0.0
C600 C 0.53995 0.9648 0.97945 0.0
C601 C 0.5301 0.9934 0.9487 0.0
C602 C 0.56232 0.01965 0.93424 0.0
C603 C 0.60374 0.01476 0.94731 0.0
H604 H 0.29436 0.31805 0.04541 0.0
H605 H 0.25161 0.24342 0.14704 0.0
H606 H 0.31965 0.37199 0.09605 0.0
H607 H 0.27813 0.29727 0.19808 0.0
H608 H 0.41698 0.36217 0.2339 0.0
H609 H 0.3603 0.31659 0.20599 0.0
H610 H 0.29787 0.42393 0.15904 0.0
H611 H 0.35434 0.46952 0.18779 0.0
C612 C 0.28963 0.31365 0.07861 0.0
C613 C 0.2715 0.27655 0.0924 0.0
C614 C 0.30371 0.34465 0.10758 0.0
C615 C 0.30067 0.33873 0.1509 0.0
C616 C 0.28057 0.30254 0.1648 0.0
C617 C 0.26551 0.27185 0.13567 0.0
C618 C 0.38991 0.37609 0.21969 0.0
C619 C 0.38963 0.41907 0.21294 0.0
C620 C 0.35752 0.35013 0.20373 0.0
C621 C 0.32503 0.36685 0.1801 0.0
C622 C 0.32262 0.41043 0.17721 0.0
C623 C 0.35471 0.43645 0.19376 0.0
H624 H 0.0381 0.09347 0.1735 0.0
H625 H 0.05965 0.96442 0.13487 0.0
H626 H 0.97105 0.09083 0.13663 0.0
H627 H 0.99253 0.9618 0.09813 0.0
H628 H 0.86951 0.96582 0.03276 0.0
H629 H 0.94272 0.98899 0.04311 0.0
H630 H 0.90898 0.04862 0.16244 0.0
H631 H 0.83631 0.02545 0.15209 0.0
C632 C 0.02923 0.06496 0.15609 0.0
C633 C 0.05394 0.02899 0.1578 0.0
C634 C 0.99074 0.06345 0.13508 0.0
C635 C 0.97634 0.02597 0.11512 0.0
C636 C 0.0029 0.99121 0.11316 0.0
C637 C 0.04129 0.99263 0.13449 0.0
C638 C 0.87765 0.98519 0.06042 0.0
C639 C 0.84757 -0.00617 0.09177 0.0
C640 C 0.91945 -0.00181 0.06642 0.0
C641 C 0.93149 0.02051 0.10357 0.0
C642 C 0.90055 0.03202 0.13322 0.0
C643 C 0.85902 0.01857 0.1275 0.0
H644 H 0.30659 0.70188 0.52302 0.0
H645 H 0.2952 0.78203 0.4185 0.0
H646 H 0.34017 0.64908 0.47762 0.0
H647 H 0.33212 0.73099 0.37347 0.0
H648 H 0.39162 0.62671 0.29558 0.0
H649 H 0.33944 0.66693 0.33614 0.0
H650 H 0.40586 0.64148 0.4506 0.0
H651 H 0.45472 0.599 0.41096 0.0
C652 C 0.31138 0.70803 0.49019 0.0
C653 C 0.29885 0.74594 0.47422 0.0
C654 C 0.33096 0.67803 0.46415 0.0
C655 C 0.34006 0.68605 0.42194 0.0
C656 C 0.3255 0.72337 0.40558 0.0
C657 C 0.30461 0.75282 0.43141 0.0
C658 C 0.39436 0.62921 0.32949 0.0
C659 C 0.4279 0.61051 0.34989 0.0
C660 C 0.36475 0.6526 0.35275 0.0
C661 C 0.36831 0.65783 0.39682 0.0
C662 C 0.40124 0.63784 0.41697 0.0
C663 C 0.4301 0.6141 0.39397 0.0
H664 H 0.45653 0.01798 0.65621 0.0
H665 H 0.47404 0.88561 0.6707 0.0
H666 H 0.5189 0.02006 0.61219 0.0
H667 H 0.53836 0.88884 0.62901 0.0
H668 H 0.67718 0.95522 0.61 0.0
H669 H 0.61063 0.93213 0.6406 0.0
H670 H 0.54312 0.98439 0.53836 0.0
H671 H 0.60969 0.00653 0.50728 0.0
C672 C 0.4732 0.98919 0.6495 0.0
C673 C 0.45955 0.95144 0.66611 0.0
C674 C 0.50887 0.99042 0.62421 0.0
C675 C 0.53248 0.95425 0.61609 0.0
C676 C 0.51984 0.91676 0.63371 0.0
C677 C 0.48323 0.91513 0.65783 0.0
C678 C 0.64819 0.9597 0.59305 0.0
C679 C 0.64829 0.98231 0.55629 0.0
C680 C 0.6102 0.94681 0.61063 0.0
C681 C 0.57198 0.95728 0.59209 0.0
C682 C 0.57233 0.97651 0.55335 0.0
C683 C 0.6103 0.98859 0.53532 0.0
H684 H 0.14765 0.19764 0.89773 0.0
H685 H 0.27679 0.22449 0.86601 0.0
H686 H 0.12416 0.2391 0.84075 0.0
H687 H 0.25317 0.26678 0.8086 0.0
H688 H 0.18146 0.39508 0.78703 0.0
H689 H 0.21982 0.33507 0.81057 0.0
H690 H 0.11835 0.25303 0.76716 0.0
H691 H 0.07968 0.31351 0.74473 0.0
C692 C 0.17109 0.21138 0.87778 0.0
C693 C 0.21404 0.20795 0.88672 0.0
C694 C 0.15763 0.23511 0.84474 0.0
C695 C 0.18676 0.25651 0.81996 0.0
C696 C 0.22989 0.25094 0.8272 0.0
C697 C 0.24341 0.22661 0.86004 0.0
C698 C 0.16845 0.36398 0.78047 0.0
C699 C 0.1275 0.35887 0.76457 0.0
C700 C 0.19033 0.32946 0.79417 0.0
C701 C 0.1715 0.28932 0.79207 0.0
C702 C 0.1332 0.28367 0.77033 0.0
C703 C 0.11126 0.3182 0.75692 0.0
H704 H 0.38709 0.08627 0.10911 0.0
H705 H 0.36471 0.07249 0.97534 0.0
H706 H 0.43043 0.0247 0.10559 0.0
H707 H 0.40926 0.01145 0.97159 0.0
H708 H 0.41844 0.87144 -0.00116 0.0
H709 H 0.39853 0.94334 0.99051 0.0
H710 H 0.48825 0.98405 0.08649 0.0
H711 H 0.50693 0.91104 0.09565 0.0
C712 C 0.39235 0.07078 0.07867 0.0
C713 C 0.37156 0.08384 0.04267 0.0
C714 C 0.41767 0.03547 0.07657 0.0
C715 C 0.42311 0.01249 0.03833 0.0
C716 C 0.40536 0.02787 0.00169 0.0
C717 C 0.3798 0.06306 0.00381 0.0
C718 C 0.43469 0.89595 0.0173 0.0
C719 C 0.46397 0.88583 0.048 0.0
C720 C 0.42346 0.93737 0.01245 0.0
C721 C 0.4415 0.96987 0.03803 0.0
C722 C 0.47322 0.95988 0.06669 0.0
C723 C 0.4844 0.91816 0.07159 0.0
H724 H 0.83453 0.47803 0.11019 0.0
H725 H 0.91183 0.44692 0.00219 0.0
H726 H 0.87144 0.54522 0.1196 0.0
H727 H 0.94892 0.51332 0.01175 0.0
H728 H 0.00665 0.6328 0.01868 0.0
H729 H 0.99176 0.56543 0.04849 0.0
H730 H 0.86517 0.60495 0.07687 0.0
H731 H 0.88053 0.67221 0.04758 0.0
C732 C 0.86028 0.48495 0.08928 0.0
C733 C 0.86976 0.45768 0.05488 0.0
C734 C 0.88122 0.52353 0.09453 0.0
C735 C 0.91268 0.53501 0.06611 0.0
C736 C 0.92508 0.5056 0.03449 0.0
C737 C 0.90362 0.46749 0.02876 0.0
C738 C 0.97647 0.62786 0.03351 0.0
C739 C 0.94443 0.65722 0.03023 0.0
C740 C 0.96774 0.58906 0.05022 0.0
C741 C 0.92691 0.57928 0.06395 0.0
C742 C 0.89694 0.61121 0.06651 0.0
C743 C 0.90564 0.64988 0.04967 0.0
H744 H 0.7857 0.65452 0.26841 0.0
H745 H 0.81161 0.61483 0.13979 0.0
H746 H 0.74771 0.71467 0.24401 0.0
H747 H 0.77339 0.67391 0.11548 0.0
H748 H 0.69822 0.7664 0.06797 0.0
H749 H 0.75988 0.74511 0.10669 0.0
H750 H 0.68069 0.7191 0.21286 0.0
H751 H 0.61992 0.74221 0.17467 0.0
C752 C 0.78408 0.65912 0.23498 0.0
C753 C 0.80092 0.62946 0.20594 0.0
C754 C 0.76215 0.69352 0.22101 0.0
C755 C 0.75692 0.69914 0.17778 0.0
C756 C 0.77701 0.67126 0.14903 0.0
C757 C 0.79866 0.63688 0.16295 0.0
C758 C 0.69462 0.75857 0.10051 0.0
C759 C 0.65441 0.7552 0.11819 0.0
C760 C 0.72977 0.74565 0.12251 0.0
C761 C 0.72504 0.72848 0.16217 0.0
C762 C 0.68573 0.73173 0.18229 0.0
C763 C 0.65068 0.7452 0.16044 0.0
H764 H 0.66968 0.54899 0.4941 0.0
H765 H 0.67432 0.53831 0.62888 0.0
H766 H 0.63087 0.48282 0.48739 0.0
H767 H 0.63792 0.4703 0.6211 0.0
H768 H 0.52494 0.38482 0.50162 0.0
H769 H 0.55064 0.45329 0.52929 0.0
H770 H 0.66802 0.39812 0.56296 0.0
H771 H 0.64275 0.32983 0.53444 0.0
C772 C 0.66167 0.53313 0.52237 0.0
C773 C 0.67423 0.54965 0.5621 0.0
C774 C 0.63952 0.49524 0.51843 0.0
C775 C 0.63057 0.47243 0.55394 0.0
C776 C 0.64356 0.4882 0.59361 0.0
C777 C 0.66457 0.5269 0.59782 0.0
C778 C 0.55539 0.38701 0.51685 0.0
C779 C 0.58182 0.35223 0.51641 0.0
C780 C 0.57013 0.42609 0.53232 0.0
C781 C 0.61113 0.43054 0.54823 0.0
C782 C 0.63607 0.39504 0.55143 0.0
C783 C 0.62163 0.35611 0.53528 0.0
H784 H 0.21925 0.82097 0.24142 0.0
H785 H 0.21184 0.87545 0.12017 0.0
H786 H 0.26838 0.7691 0.21278 0.0
H787 H 0.26114 0.82486 0.09187 0.0
H788 H 0.35983 0.75434 0.04339 0.0
H789 H 0.28867 0.75884 0.07175 0.0
H790 H 0.34045 0.78071 0.19646 0.0
H791 H 0.41088 0.77401 0.16805 0.0
C792 C 0.22732 0.82125 0.20841 0.0
C793 C 0.21259 0.85293 0.18324 0.0
C794 C 0.25555 0.79159 0.19202 0.0
C795 C 0.26956 0.79317 0.15022 0.0
C796 C 0.25111 0.8222 0.12411 0.0
C797 C 0.22303 0.85173 0.14046 0.0
C798 C 0.35564 0.7575 0.07713 0.0
C799 C 0.39051 0.76421 0.10364 0.0
C800 C 0.31497 0.76068 0.09338 0.0
C801 C 0.30879 0.77187 0.13616 0.0
C802 C 0.34373 0.77228 0.16335 0.0
C803 C 0.38433 0.76838 0.14714 0.0
H804 H 0.15328 0.95232 0.56193 0.0
H805 H 0.17398 0.96254 0.42865 0.0
H806 H 0.11161 0.01544 0.56298 0.0
H807 H 0.13204 0.02565 0.42983 0.0
H808 H 0.13423 0.16765 0.48061 0.0
H809 H 0.15048 0.09518 0.46119 0.0
H810 H 0.04901 0.05362 0.53984 0.0
H811 H 0.0329 0.12644 0.55922 0.0
C812 C 0.14816 0.96743 0.53265 0.0
C813 C 0.16775 0.95283 0.49541 0.0
C814 C 0.12386 0.00347 0.53317 0.0
C815 C 0.11857 0.02565 0.49647 0.0
C816 C 0.13565 0.00935 0.45863 0.0
C817 C 0.15982 0.97322 0.45805 0.0
C818 C 0.11443 0.14297 0.49239 0.0
C819 C 0.08254 0.15244 0.52153 0.0
C820 C 0.12361 0.10143 0.48123 0.0
C821 C 0.10134 0.06857 0.49942 0.0
C822 C 0.06694 0.07821 0.52562 0.0
C823 C 0.05747 0.11987 0.53644 0.0
H824 H 0.68629 0.46791 0.28573 0.0
H825 H 0.76635 0.36932 0.23687 0.0
H826 H 0.63654 0.41575 0.31013 0.0
H827 H 0.71705 0.31713 0.26274 0.0
H828 H 0.66194 0.26821 0.39257 0.0
H829 H 0.70146 0.30147 0.3373 0.0
H830 H 0.58704 0.35527 0.2925 0.0
H831 H 0.54757 0.32143 0.34784 0.0
C832 C 0.69278 0.43506 0.27947 0.0
C833 C 0.73032 0.42267 0.25984 0.0
C834 C 0.66412 0.40515 0.29307 0.0
C835 C 0.67283 0.36224 0.28801 0.0
C836 C 0.70941 0.34988 0.26651 0.0
C837 C 0.73763 0.3798 0.25196 0.0
C838 C 0.64506 0.28531 0.36947 0.0
C839 C 0.60193 0.29241 0.37423 0.0
C840 C 0.66761 0.30449 0.33787 0.0
C841 C 0.64739 0.33167 0.31115 0.0
C842 C 0.60342 0.33488 0.31304 0.0
C843 C 0.58079 0.31522 0.34435 0.0
H844 H 0.80474 0.506 0.80378 0.0
H845 H 0.72928 0.60409 0.75514 0.0
H846 H 0.8548 0.55859 0.83231 0.0
H847 H 0.77898 0.65667 0.78457 0.0
H848 H 0.84128 0.71372 0.91553 0.0
H849 H 0.79624 0.67341 0.86573 0.0
H850 H 0.90609 0.61902 0.80705 0.0
H851 H 0.95111 0.6602 0.8563 0.0
C852 C 0.79914 0.53873 0.79882 0.0
C853 C 0.76309 0.55099 0.77751 0.0
C854 C 0.82789 0.56875 0.81481 0.0
C855 C 0.82069 0.61156 0.81039 0.0
C856 C 0.78519 0.62382 0.7882 0.0
C857 C 0.75687 0.59374 0.77144 0.0
C858 C 0.85568 0.69458 0.89072 0.0
C859 C 0.89944 0.69013 0.8893 0.0
C860 C 0.83004 0.67147 0.86239 0.0
C861 C 0.84784 0.64294 0.83293 0.0
C862 C 0.89175 0.64078 0.82961 0.0
C863 C 0.91742 0.66454 0.85742 0.0
H864 H 0.57016 0.85968 0.55639 0.0
H865 H 0.4394 0.8243 0.5407 0.0
H866 H 0.56638 0.9013 0.49482 0.0
H867 H 0.43567 0.86626 0.47848 0.0
H868 H 0.4891 0.87049 0.33787 0.0
H869 H 0.46875 0.85282 0.40868 0.0
H870 H 0.53674 0.96158 0.45916 0.0
H871 H 0.55748 0.9789 0.38799 0.0
C872 C 0.54025 0.86164 0.54041 0.0
C873 C 0.5052 0.8383 0.55323 0.0
C874 C 0.53796 0.88594 0.50526 0.0
C875 C 0.50065 0.88738 0.48182 0.0
C876 C 0.46485 0.8659 0.49596 0.0
C877 C 0.46701 0.84185 0.53157 0.0
C878 C 0.49823 0.89151 0.36402 0.0
C879 C 0.52522 0.92574 0.35761 0.0
C880 C 0.48647 0.8815 0.40463 0.0
C881 C 0.50181 0.90537 0.43961 0.0
C882 C 0.52496 0.94227 0.43282 0.0
C883 C 0.53651 0.95243 0.39209 0.0
H884 H 0.39583 0.37027 0.80743 0.0
H885 H 0.38458 0.24159 0.76173 0.0
H886 H 0.3331 0.38729 0.76982 0.0
H887 H 0.32076 0.25865 0.72335 0.0
H888 H 0.23317 0.42588 0.69885 0.0
H889 H 0.26103 0.38462 0.75477 0.0
H890 H 0.31009 0.29593 0.66152 0.0
H891 H 0.28042 0.33629 0.60625 0.0
C892 C 0.37929 0.34533 0.78994 0.0
C893 C 0.39563 0.30482 0.78686 0.0
C894 C 0.34269 0.35493 0.76871 0.0
C895 C 0.32142 0.32432 0.74333 0.0
C896 C 0.33621 0.28297 0.74255 0.0
C897 C 0.37282 0.27319 0.76445 0.0
C898 C 0.24758 0.39615 0.69063 0.0
C899 C 0.25515 0.38438 0.64842 0.0
C900 C 0.26414 0.37274 0.72257 0.0
C901 C 0.28942 0.33787 0.71268 0.0
C902 C 0.29118 0.32272 0.67056 0.0
C903 C 0.274 0.34579 0.63866 0.0
H904 H 0.11965 0.16802 0.05073 0.0
H905 H -0.00291 0.10833 0.04771 0.0
H906 H 0.14004 0.12617 0.98855 0.0
H907 H 0.01766 0.06563 0.98637 0.0
H908 H 0.03884 0.00364 0.87434 0.0
H909 H 0.05943 0.01472 0.94762 0.0
H910 H 0.11807 0.13242 0.91827 0.0
H911 H 0.0981 0.12084 0.84534 0.0
C912 C 0.0975 0.14505 0.03741 0.0
C913 C 0.05647 0.14195 0.05319 0.0
C914 C 0.10926 0.121 0.00193 0.0
C915 C 0.08068 0.09245 0.98243 0.0
C916 C 0.04086 0.08678 0.00081 0.0
C917 C 0.02872 0.11163 0.03564 0.0
C918 C 0.0587 0.03043 0.88309 0.0
C919 C 0.06558 0.06227 0.85489 0.0
C920 C 0.06999 0.03707 0.92522 0.0
C921 C 0.08822 0.07554 0.93904 0.0
C922 C 0.10325 0.10285 0.9089 0.0
C923 C 0.09199 0.09618 0.86685 0.0
H924 H 0.11057 0.67486 0.26412 0.0
H925 H 0.12873 0.7913 0.20232 0.0
H926 H 0.15551 0.63985 0.21255 0.0
H927 H 0.17413 0.756 0.15049 0.0
H928 H 0.1859 0.65209 0.03875 0.0
H929 H 0.16428 0.70381 0.09281 0.0
H930 H 0.22699 0.63406 0.18692 0.0
H931 H 0.24725 0.58177 0.13273 0.0
C932 C 0.12439 0.69308 0.23968 0.0
C933 C 0.1158 0.73578 0.2372 0.0
C934 C 0.15072 0.67313 0.21039 0.0
C935 C 0.16901 0.69531 0.17776 0.0
C936 C 0.16069 0.73813 0.17538 0.0
C937 C 0.13459 0.75826 0.20501 0.0
C938 C 0.19677 0.6491 0.0707 0.0
C939 C 0.218 0.61316 0.08188 0.0
C940 C 0.18425 0.67858 0.10175 0.0
C941 C 0.1929 0.6723 0.1443 0.0
C942 C 0.21895 0.6391 0.15451 0.0
C943 C 0.23109 0.60951 0.12354 0.0
H944 H 0.44934 0.15004 0.95792 0.0
H945 H 0.58304 0.13954 0.93796 0.0
H946 H 0.45521 0.10923 0.02045 0.0
H947 H 0.5888 0.09915 0.00042 0.0
H948 H 0.59066 0.0124 0.10493 0.0
H949 H 0.57418 0.0366 0.03528 0.0
H950 H 0.48254 0.12089 0.08988 0.0
H951 H 0.49953 0.09702 0.15946 0.0
C952 C 0.4798 0.13824 0.9663 0.0
C953 C 0.51577 0.14824 0.943 0.0
C954 C 0.48313 0.11488 0.00225 0.0
C955 C 0.52233 0.10058 0.01553 0.0
C956 C 0.55792 0.10895 0.99096 0.0
C957 C 0.55467 0.13238 0.95513 0.0
C958 C 0.56587 0.03488 0.10169 0.0
C959 C 0.54602 0.0526 0.13735 0.0
C960 C 0.55661 0.04896 0.06182 0.0
C961 C 0.52701 0.08059 0.05669 0.0
C962 C 0.50513 0.09613 0.09232 0.0
C963 C 0.51474 0.08244 0.13224 0.0
H964 H 0.16994 0.23128 0.25388 0.0
H965 H 0.09209 0.33828 0.2344 0.0
H966 H 0.21754 0.27489 0.2973 0.0
H967 H 0.13878 0.3816 0.27908 0.0
H968 H 0.22516 0.34816 0.42928 0.0
H969 H 0.2102 0.30448 0.36679 0.0
H970 H 0.20603 0.4145 0.29301 0.0
H971 H 0.21985 0.45831 0.3564 0.0
C972 C 0.16298 0.26417 0.25889 0.0
C973 C 0.12673 0.28123 0.24154 0.0
C974 C 0.19042 0.28916 0.2836 0.0
C975 C 0.18196 0.33167 0.29192 0.0
C976 C 0.14675 0.34913 0.27282 0.0
C977 C 0.11955 0.3242 0.24768 0.0
C978 C 0.22333 0.36281 0.39934 0.0
C979 C 0.22277 0.40649 0.39762 0.0
C980 C 0.21451 0.33778 0.36336 0.0
C981 C 0.20541 0.35619 0.32516 0.0
C982 C 0.21156 0.39955 0.3223 0.0
C983 C 0.22005 0.42459 0.35839 0.0
H984 H 0.10292 0.83556 0.45606 0.0
H985 H 0.97271 0.87031 0.44681 0.0
H986 H 0.11065 0.88154 0.51944 0.0
H987 H 0.98094 0.91733 0.50841 0.0
H988 H 0.04941 0.89772 0.6616 0.0
H989 H 0.07171 0.87208 0.59172 0.0
H990 H 0.02153 0.98252 0.53841 0.0
H991 H 0.00069 0.00879 0.60852 0.0
C992 C 0.07642 0.85397 0.46688 0.0
C993 C 0.03711 0.84927 0.44703 0.0
C994 C 0.08094 0.88034 0.50284 0.0
C995 C 0.04663 0.90342 0.51823 0.0
C996 C 0.00814 0.90053 0.49668 0.0
C997 C 0.00327 0.87327 0.46175 0.0
C998 C 0.04546 0.91746 0.63517 0.0
C999 C 0.0235 0.95503 0.63995 0.0
C1000 C 0.05815 0.9029 0.59528 0.0
C1001 C 0.04791 0.92533 0.55988 0.0
C1002 C 0.02984 0.96494 0.56539 0.0
C1003 C 0.01805 0.97993 0.60535 0.0
H1004 H 0.43659 0.60228 0.71038 0.0
H1005 H 0.39547 0.72991 0.7284 0.0
H1006 H 0.37408 0.5777 0.74512 0.0
H1007 H 0.33208 0.70497 0.76425 0.0
H1008 H 0.29268 0.63132 0.88964 0.0
H1009 H 0.3245 0.67158 0.83444 0.0
H1010 H 0.29667 0.5705 0.74385 0.0
H1011 H 0.26593 0.5299 0.79951 0.0
C1012 C 0.41385 0.62513 0.72135 0.0
C1013 C 0.4213 0.66808 0.71712 0.0
C1014 C 0.37757 0.61097 0.74084 0.0
C1015 C 0.34784 0.63936 0.75724 0.0
C1016 C 0.3544 0.68237 0.75182 0.0
C1017 C 0.39067 0.69661 0.73146 0.0
C1018 C 0.29129 0.61874 0.85751 0.0
C1019 C 0.27758 0.57736 0.84878 0.0
C1020 C 0.30961 0.64177 0.82582 0.0
C1021 C 0.31428 0.6236 0.78509 0.0
C1022 C 0.29437 0.58486 0.7752 0.0
C1023 C 0.27646 0.56173 0.80692 0.0
H1024 H 0.56408 0.53687 0.88963 0.0
H1025 H 0.55919 0.41139 0.83372 0.0
H1026 H 0.49884 0.52374 0.9263 0.0
H1027 H 0.49349 0.39819 0.87038 0.0
H1028 H 0.35187 0.44002 0.86177 0.0
H1029 H 0.42622 0.42584 0.8534 0.0
H1030 H 0.45179 0.48924 0.97348 0.0
H1031 H 0.37712 0.50457 0.98115 0.0
C1032 C 0.54976 0.50599 0.88615 0.0
C1033 C 0.56628 0.47555 0.85784 0.0
C1034 C 0.51234 0.49829 0.9075 0.0
C1035 C 0.49035 0.46013 0.90063 0.0
C1036 C 0.50924 0.42818 0.87578 0.0
C1037 C 0.54699 0.43572 0.85484 0.0
C1038 C 0.37318 0.44949 0.88711 0.0
C1039 C 0.35888 0.47404 0.92169 0.0
C1040 C 0.41588 0.44116 0.88248 0.0
C1041 C 0.44516 0.45718 0.91236 0.0
C1042 C 0.43012 0.47721 0.94949 0.0
C1043 C 0.38727 0.48557 0.95413 0.0
H1044 H 0.65413 0.29833 0.15454 0.0
H1045 H 0.78206 0.27218 0.18858 0.0
H1046 H 0.62879 0.24701 0.20236 0.0
H1047 H 0.7567 0.22064 0.23741 0.0
H1048 H 0.58039 0.15153 0.27359 0.0
H1049 H 0.61774 0.21833 0.26854 0.0
H1050 H 0.72777 0.15235 0.22367 0.0
H1051 H 0.69089 0.08606 0.23101 0.0
C1052 C 0.6768 0.28228 0.17315 0.0
C1053 C 0.72 0.28867 0.16727 0.0
C1054 C 0.66231 0.25307 0.20112 0.0
C1055 C 0.6907 0.2292 0.22368 0.0
C1056 C 0.73399 0.23801 0.22016 0.0
C1057 C 0.74851 0.26763 0.1923 0.0
C1058 C 0.61334 0.15148 0.26507 0.0
C1059 C 0.6328 0.11397 0.25228 0.0
C1060 C 0.6346 0.18967 0.26154 0.0
C1061 C 0.67513 0.19085 0.24391 0.0
C1062 C 0.69651 0.15289 0.23704 0.0
C1063 C 0.67543 0.11469 0.24129 0.0
H1064 H 0.91955 0.41324 0.38103 0.0
H1065 H 0.9232 0.54656 0.36449 0.0
H1066 H 0.97846 0.42015 0.42856 0.0
H1067 H 0.98151 0.5539 0.41396 0.0
H1068 H 0.12481 0.53054 0.4305 0.0
H1069 H 0.0526 0.53866 0.40812 0.0
H1070 H 0.01379 0.44038 0.48904 0.0
H1071 H 0.08637 0.43223 0.51091 0.0
C1072 C 0.93215 0.44431 0.38849 0.0
C1073 C 0.91727 0.47917 0.36802 0.0
C1074 C 0.96596 0.44841 0.41626 0.0
C1075 C 0.98547 0.4876 0.42485 0.0
C1076 C 0.96801 0.52309 0.40736 0.0
C1077 C 0.93429 0.51892 0.3792 0.0
C1078 C 0.1004 0.512 0.44478 0.0
C1079 C 0.11092 0.48086 0.4724 0.0
C1080 C 0.05885 0.51662 0.43206 0.0
C1081 C 0.02695 0.49007 0.44664 0.0
C1082 C 0.03727 0.46143 0.4772 0.0
C1083 C 0.07887 0.45686 0.49001 0.0
H1084 H 0.79807 0.81709 0.54385 0.0
H1085 H 0.75099 0.74951 0.64869 0.0
H1086 H 0.82241 0.87364 0.59191 0.0
H1087 H 0.77647 0.80609 0.69728 0.0
H1088 H 0.91342 0.87154 0.73604 0.0
H1089 H 0.857 0.82538 0.70865 0.0
H1090 H 0.80067 0.92965 0.64944 0.0
H1091 H 0.85698 0.97584 0.67748 0.0
C1092 C 0.79221 0.81481 0.57717 0.0
C1093 C 0.77311 0.77891 0.59266 0.0
C1094 C 0.80574 0.84733 0.60467 0.0
C1095 C 0.80118 0.84423 0.64829 0.0
C1096 C 0.78014 0.80923 0.66376 0.0
C1097 C 0.76565 0.77698 0.63603 0.0
C1098 C 0.88763 0.88488 0.71918 0.0
C1099 C 0.88915 0.927 0.70885 0.0
C1100 C 0.85538 0.85856 0.70348 0.0
C1101 C 0.82482 0.87397 0.67659 0.0
C1102 C 0.82395 0.9171 0.67006 0.0
C1103 C 0.85592 0.94351 0.68625 0.0
H1104 H 0.55697 0.46005 0.63736 0.0
H1105 H 0.53685 0.5906 0.67045 0.0
H1106 H 0.49034 0.45692 0.59961 0.0
H1107 H 0.47033 0.58749 0.63259 0.0
H1108 H 0.36855 0.46077 0.53142 0.0
H1109 H 0.442 0.48281 0.54251 0.0
H1110 H 0.40704 0.54735 0.65901 0.0
H1111 H 0.33415 0.52516 0.648 0.0
C1112 C 0.53895 0.48838 0.63569 0.0
C1113 C 0.55168 0.52536 0.65791 0.0
C1114 C 0.50089 0.48667 0.61374 0.0
C1115 C 0.47487 0.52182 0.61387 0.0
C1116 C 0.48953 0.55979 0.63258 0.0
C1117 C 0.52764 0.56154 0.65425 0.0
C1118 C 0.37653 0.48094 0.55857 0.0
C1119 C 0.34601 0.49129 0.58898 0.0
C1120 C 0.41846 0.49329 0.56501 0.0
C1121 C 0.43018 0.51667 0.60163 0.0
C1122 C 0.39888 0.52984 0.63022 0.0
C1123 C 0.35721 0.51701 0.6241 0.0
H1124 H 0.8836 0.26596 -0.0007 0.0
H1125 H 0.76644 0.25005 0.93142 0.0
H1126 H 0.91926 0.22498 0.94412 0.0
H1127 H 0.80238 0.20853 0.87613 0.0
H1128 H 0.88489 0.09046 0.82778 0.0
H1129 H 0.84074 0.1376 0.87058 0.0
H1130 H 0.93682 0.23394 0.86674 0.0
H1131 H 0.98067 0.18711 0.8236 0.0
C1132 C 0.86541 0.25349 0.97273 0.0
C1133 C 0.82222 0.26116 0.96969 0.0
C1134 C 0.88592 0.23041 0.94092 0.0
C1135 C 0.86362 0.21409 0.90564 0.0
C1136 C 0.82025 0.22091 0.90296 0.0
C1137 C 0.79978 0.24457 0.93457 0.0
C1138 C 0.89582 0.12225 0.83467 0.0
C1139 C 0.93638 0.13502 0.82285 0.0
C1140 C 0.87067 0.14912 0.85938 0.0
C1141 C 0.88588 0.18898 0.87269 0.0
C1142 C 0.92478 0.20301 0.8576 0.0
C1143 C 0.94972 0.17635 0.83274 0.0
H1144 H 0.96988 0.38659 0.16683 0.0
H1145 H 0.94747 0.51811 0.15255 0.0
H1146 H 0.03295 0.39181 0.1237 0.0
H1147 H 0.00853 0.52219 0.10703 0.0
H1148 H 0.169 0.45297 0.09612 0.0
H1149 H 0.10337 0.43096 0.12916 0.0
H1150 H 0.03284 0.49282 0.03486 0.0
H1151 H 0.09858 0.51414 0.00158 0.0
C1152 C 0.97768 0.41631 0.15362 0.0
C1153 C 0.95293 0.45177 0.16235 0.0
C1154 C 0.01362 0.41911 0.12862 0.0
C1155 C 0.02453 0.45689 0.11044 0.0
C1156 C -0.00014 0.49224 0.1192 0.0
C1157 C 0.96487 0.48987 0.14535 0.0
C1158 C 0.13938 0.45989 0.08134 0.0
C1159 C 0.13857 0.48474 0.04618 0.0
C1160 C 0.10188 0.44766 0.10038 0.0
C1161 C 0.06316 0.46092 0.08495 0.0
C1162 C 0.06237 0.48273 0.04765 0.0
C1163 C 0.09984 0.49434 0.02824 0.0
H1164 H 0.77808 0.72415 0.36791 0.0
H1165 H 0.64857 0.70219 0.40177 0.0
H1166 H 0.75509 0.76601 0.30981 0.0
H1167 H 0.62576 0.74279 0.3439 0.0
H1168 H 0.68429 0.89558 0.28717 0.0
H1169 H 0.72244 0.83564 0.31126 0.0
H1170 H 0.62055 0.75368 0.26888 0.0
H1171 H 0.58215 0.81403 0.24575 0.0
C1172 C 0.74473 0.72718 0.36225 0.0
C1173 C 0.7151 0.70993 0.38961 0.0
C1174 C 0.7316 0.7512 0.32899 0.0
C1175 C 0.68858 0.75771 0.32199 0.0
C1176 C 0.65912 0.73789 0.34767 0.0
C1177 C 0.6722 0.71463 0.38116 0.0
C1178 C 0.67117 0.86449 0.28086 0.0
C1179 C 0.63013 0.85937 0.26517 0.0
C1180 C 0.69294 0.83002 0.29488 0.0
C1181 C 0.67387 0.79001 0.2933 0.0
C1182 C 0.63559 0.78427 0.27156 0.0
C1183 C 0.6138 0.81871 0.25778 0.0
H1184 H 0.86392 0.57227 0.47603 0.0
H1185 H 0.88842 0.58665 0.6094 0.0
H1186 H 0.90791 0.51082 0.47195 0.0
H1187 H 0.93118 0.52466 0.60556 0.0
H1188 H 0.91592 0.37088 0.50076 0.0
H1189 H 0.89662 0.44289 0.49186 0.0
H1190 H 0.98881 0.4838 0.58535 0.0
H1191 H 0.00701 0.41075 0.59503 0.0
C1192 C 0.87942 0.56292 0.50432 0.0
C1193 C 0.87193 0.58397 0.5432 0.0
C1194 C 0.90464 0.5275 0.502 0.0
C1195 C 0.92283 0.51221 0.53846 0.0
C1196 C 0.9181 0.53542 0.57666 0.0
C1197 C 0.89315 0.57097 0.57896 0.0
C1198 C 0.9328 0.39543 0.51855 0.0
C1199 C 0.96264 0.38541 0.54875 0.0
C1200 C 0.92195 0.4369 0.51336 0.0
C1201 C 0.94087 0.46948 0.53814 0.0
C1202 C 0.97313 0.45954 0.5662 0.0
C1203 C 0.98398 0.4178 0.57142 0.0
H1204 H 0.34224 0.96451 0.61003 0.0
H1205 H 0.40859 0.93894 0.49367 0.0
H1206 H 0.38387 0.02844 0.62208 0.0
H1207 H 0.45052 0.00189 0.50585 0.0
H1208 H 0.51566 0.11707 0.51633 0.0
H1209 H 0.49913 0.04764 0.54067 0.0
H1210 H 0.38099 0.09323 0.59003 0.0
H1211 H 0.39835 0.16242 0.56669 0.0
C1212 C 0.36656 0.97182 0.58764 0.0
C1213 C 0.37164 0.94699 0.55051 0.0
C1214 C 0.3903 0.00864 0.59444 0.0
C1215 C 0.42033 0.02083 0.56478 0.0
C1216 C 0.42811 -0.00637 0.52976 0.0
C1217 C 0.40382 0.95739 0.52255 0.0
C1218 C 0.48743 0.11272 0.53471 0.0
C1219 C 0.45789 0.14474 0.53903 0.0
C1220 C 0.47755 0.07273 0.54807 0.0
C1221 C 0.43797 0.06429 0.56583 0.0
C1222 C 0.41163 0.09818 0.57624 0.0
C1223 C 0.42159 0.13811 0.56299 0.0
H1224 H 0.28728 0.15505 0.7679 0.0
H1225 H 0.31572 0.11711 0.63935 0.0
H1226 H 0.24678 0.21346 0.74348 0.0
H1227 H 0.275 0.17455 0.61499 0.0
H1228 H 0.19715 0.26623 0.56796 0.0
H1229 H 0.25903 0.245 0.60636 0.0
H1230 H 0.18008 0.21656 0.71203 0.0
H1231 H 0.11905 0.23951 0.67412 0.0
C1232 C 0.28567 0.1597 0.73447 0.0
C1233 C 0.30408 0.13101 0.70547 0.0
C1234 C 0.26223 0.19308 0.72048 0.0
C1235 C 0.25707 0.19873 0.67725 0.0
C1236 C 0.27852 0.17188 0.64855 0.0
C1237 C 0.30167 0.13846 0.66249 0.0
C1238 C 0.19361 0.25776 0.60033 0.0
C1239 C 0.15343 0.25381 0.61794 0.0
C1240 C 0.2289 0.24485 0.62212 0.0
C1241 C 0.22439 0.22719 0.66157 0.0
C1242 C 0.18498 0.22958 0.68162 0.0
C1243 C 0.14977 0.24298 0.65995 0.0
H1244 H 0.16522 0.05192 0.99355 0.0
H1245 H 0.17682 0.0373 0.12736 0.0
H1246 H 0.12436 0.9871 0.98714 0.0
H1247 H 0.13896 0.97013 0.11965 0.0
H1248 H 0.02307 0.88907 -0.00403 0.0
H1249 H 0.0485 0.95692 0.02531 0.0
H1250 H 0.16273 0.89952 0.06511 0.0
H1251 H 0.1378 0.83187 0.03478 0.0
C1252 C 0.15835 0.03546 0.02173 0.0
C1253 C 0.17326 0.05058 0.06113 0.0
C1254 C 0.13506 -0.0017 0.01797 0.0
C1255 C 0.12767 0.97456 0.0532 0.0
C1256 C 0.14331 0.98878 0.09245 0.0
C1257 C 0.16516 0.02698 0.09661 0.0
C1258 C 0.05267 0.89066 0.01282 0.0
C1259 C 0.07853 0.85554 0.01344 0.0
C1260 C 0.06725 0.92937 0.02929 0.0
C1261 C 0.10748 0.93306 0.04722 0.0
C1262 C 0.13142 0.89709 0.05183 0.0
C1263 C 0.1172 0.85853 0.03461 0.0
H1264 H 0.71895 0.3202 0.74451 0.0
H1265 H 0.70763 0.3709 0.62181 0.0
H1266 H 0.76897 0.26899 0.7164 0.0
H1267 H 0.75796 0.32112 0.59402 0.0
H1268 H 0.85906 0.25259 0.54632 0.0
H1269 H 0.78798 0.25631 0.57502 0.0
H1270 H 0.84019 0.28178 0.69906 0.0
H1271 H 0.91054 0.27576 0.67036 0.0
C1272 C 0.72636 0.31978 0.71132 0.0
C1273 C 0.71025 0.35031 0.68554 0.0
C1274 C 0.75514 0.2905 0.69522 0.0
C1275 C 0.76846 0.2914 0.65315 0.0
C1276 C 0.74859 0.31904 0.62652 0.0
C1277 C 0.71986 0.34811 0.64256 0.0
C1278 C 0.85502 0.25642 0.58004 0.0
C1279 C 0.88996 0.26418 0.60624 0.0
C1280 C 0.81438 0.25917 0.59648 0.0
C1281 C 0.80823 0.27102 0.63911 0.0
C1282 C 0.84339 0.27275 0.66608 0.0
C1283 C 0.88396 0.26926 0.6497 0.0
H1284 H 0.67088 0.45912 0.93353 0.0
H1285 H 0.65824 0.45166 0.06809 0.0
H1286 H 0.62805 0.52157 0.93577 0.0
H1287 H 0.61535 0.5141 0.07017 0.0
H1288 H 0.53587 0.62573 0.06736 0.0
H1289 H 0.55186 0.55244 0.05003 0.0
H1290 H 0.64841 0.59154 0.96438 0.0
H1291 H 0.63252 0.66449 0.98208 0.0
C1292 C 0.65827 0.47024 0.9635 0.0
C1293 C 0.66892 0.45097 0.00083 0.0
C1294 C 0.63358 0.506 0.96469 0.0
C1295 C 0.61866 0.52308 0.00314 0.0
C1296 C 0.62618 0.50167 0.03996 0.0
C1297 C 0.6511 0.466 0.03883 0.0
C1298 C 0.5593 0.61843 0.04358 0.0
C1299 C 0.58305 0.65051 0.02601 0.0
C1300 C 0.56869 0.57651 0.0339 0.0
C1301 C 0.60159 0.56609 0.00608 0.0
C1302 C 0.62261 0.59836 0.98563 0.0
C1303 C 0.61363 0.64018 -0.00424 0.0
H1304 H 0.27578 0.87162 0.74126 0.0
H1305 H 0.18918 0.96903 0.77878 0.0
H1306 H 0.22735 0.81925 0.76791 0.0
H1307 H 0.13988 0.91635 0.80328 0.0
H1308 H 0.05255 0.81962 0.84068 0.0
H1309 H 0.09409 0.85239 0.78612 0.0
H1310 H 0.2077 0.80788 0.84214 0.0
H1311 H 0.16615 0.77562 0.89653 0.0
C1312 C 0.24579 0.88168 0.75385 0.0
C1313 C 0.23634 0.9244 0.7585 0.0
C1314 C 0.218 0.85161 0.76872 0.0
C1315 C 0.17963 0.86353 0.78696 0.0
C1316 C 0.16891 0.90607 0.78868 0.0
C1317 C 0.19724 0.93628 0.77502 0.0
C1318 C 0.08624 0.8152 0.83995 0.0
C1319 C 0.10639 0.79543 0.87268 0.0
C1320 C 0.10999 0.83426 0.80907 0.0
C1321 C 0.1541 0.83337 0.81043 0.0
C1322 C 0.17377 0.80905 0.8402 0.0
C1323 C 0.15007 0.79051 0.87133 0.0
H1324 H 0.26287 0.01818 0.3513 0.0
H1325 H 0.26674 0.08641 0.23731 0.0
H1326 H 0.30764 0.07155 0.38618 0.0
H1327 H 0.31263 0.13965 0.27243 0.0
H1328 H 0.44081 0.17594 0.35885 0.0
H1329 H 0.39179 0.13694 0.31171 0.0
H1330 H 0.29297 0.15449 0.40315 0.0
H1331 H 0.34146 0.19401 0.44978 0.0
C1332 C 0.27367 0.04426 0.33357 0.0
C1333 C 0.26123 0.04817 0.29167 0.0
C1334 C 0.29898 0.07499 0.35359 0.0
C1335 C 0.31295 0.10985 0.33198 0.0
C1336 C 0.30196 0.11314 0.28964 0.0
C1337 C 0.27586 0.08269 0.26974 0.0
C1338 C 0.40813 0.17315 0.36793 0.0
C1339 C 0.39493 0.18748 0.40808 0.0
C1340 C 0.38024 0.15064 0.34113 0.0
C1341 C 0.33905 0.14217 0.35439 0.0
C1342 C 0.3248 0.16025 0.3926 0.0
C1343 C 0.35243 0.18298 0.4191 0.0
loop_
_geom_bond_atom_site_label_1
_geom_bond_atom_site_label_2
_geom_bond_distance
_geom_bond_site_symmetry_2
_ccdc_geom_bond_type
C0 O1 1.306 . S
C0 O3 1.160 . S
O1 C0 1.306 . S
O1 Cd2 2.228 . S
Cd2 O1 2.228 . S
Cd2 O6 2.273 . S
Cd2 O10 2.277 1_455 S
O3 C0 1.160 . S
O3 Cd4 2.203 1_455 S
Cd4 O3 2.203 1_655 S
Cd4 O6 2.411 1_655 S
Cd4 O7 2.333 . S
Cd4 O8 2.352 1_655 S
Cd4 O12 2.277 . S
Cd4 O13 2.356 . S
C5 O10 1.209 . S
C5 O12 1.226 . S
O6 Cd2 2.273 . S
O6 Cd4 2.411 1_455 S
O6 C9 1.320 . S
O7 Cd4 2.333 . S
O7 C9 1.214 1_655 S
O8 Cd4 2.352 1_455 S
O8 C11 1.258 1_455 S
C9 O6 1.320 . S
C9 O7 1.214 1_455 S
O10 Cd2 2.277 1_655 S
O10 C5 1.209 . S
C11 O8 1.258 1_655 S
C11 O13 1.282 . S
O12 Cd4 2.277 . S
O12 C5 1.226 . S
O13 Cd4 2.356 . S
O13 C11 1.282 . S
C14 O15 1.306 . S
C14 O17 1.160 . S
O15 C14 1.306 . S
O15 Cd16 2.228 . S
Cd16 O15 2.228 . S
Cd16 O20 2.273 . S
Cd16 O24 2.277 1_455 S
O17 C14 1.160 . S
O17 Cd18 2.203 1_455 S
Cd18 O17 2.203 1_655 S
Cd18 O20 2.411 1_655 S
Cd18 O21 2.333 . S
Cd18 O22 2.352 1_655 S
Cd18 O26 2.277 . S
Cd18 O27 2.356 . S
C19 O24 1.209 . S
C19 O26 1.226 . S
O20 Cd16 2.273 . S
O20 Cd18 2.411 1_455 S
O20 C23 1.320 . S
O21 Cd18 2.333 . S
O21 C23 1.214 1_655 S
O22 Cd18 2.352 1_455 S
O22 C25 1.258 1_455 S
C23 O20 1.320 . S
C23 O21 1.214 1_455 S
O24 Cd16 2.277 1_655 S
O24 C19 1.209 . S
C25 O22 1.258 1_655 S
C25 O27 1.282 . S
O26 Cd18 2.277 . S
O26 C19 1.226 . S
O27 Cd18 2.356 . S
O27 C25 1.282 . S
C28 O29 1.306 . S
C28 O31 1.160 . S
O29 C28 1.306 . S
O29 Cd30 2.228 . S
Cd30 O29 2.228 . S
Cd30 O34 2.273 . S
Cd30 O38 2.277 . S
O31 C28 1.160 . S
O31 Cd32 2.203 . S
Cd32 O31 2.203 . S
Cd32 O34 2.411 . S
Cd32 O35 2.333 . S
Cd32 O36 2.352 . S
Cd32 O40 2.277 . S
Cd32 O41 2.356 . S
C33 O38 1.209 . S
C33 O40 1.226 . S
O34 Cd30 2.273 . S
O34 Cd32 2.411 . S
O34 C37 1.320 . S
O35 Cd32 2.333 . S
O35 C37 1.214 . S
O36 Cd32 2.352 . S
O36 C39 1.258 . S
C37 O34 1.320 . S
C37 O35 1.214 . S
O38 Cd30 2.277 . S
O38 C33 1.209 . S
C39 O36 1.258 . S
C39 O41 1.282 . S
O40 Cd32 2.277 . S
O40 C33 1.226 . S
O41 Cd32 2.356 . S
O41 C39 1.282 . S
C42 O43 1.306 . S
C42 O45 1.160 . S
O43 C42 1.306 . S
O43 Cd44 2.228 . S
Cd44 O43 2.228 . S
Cd44 O48 2.273 . S
Cd44 O52 2.277 . S
O45 C42 1.160 . S
O45 Cd46 2.203 . S
Cd46 O45 2.203 . S
Cd46 O48 2.411 . S
Cd46 O49 2.333 . S
Cd46 O50 2.352 . S
Cd46 O54 2.277 . S
Cd46 O55 2.356 . S
C47 O52 1.209 . S
C47 O54 1.226 . S
O48 Cd44 2.273 . S
O48 Cd46 2.411 . S
O48 C51 1.320 . S
O49 Cd46 2.333 . S
O49 C51 1.214 . S
O50 Cd46 2.352 . S
O50 C53 1.258 . S
C51 O48 1.320 . S
C51 O49 1.214 . S
O52 Cd44 2.277 . S
O52 C47 1.209 . S
C53 O50 1.258 . S
C53 O55 1.282 . S
O54 Cd46 2.277 . S
O54 C47 1.226 . S
O55 Cd46 2.356 . S
O55 C53 1.282 . S
C56 O57 1.306 . S
C56 O59 1.160 1_545 S
O57 C56 1.306 . S
O57 Cd58 2.228 . S
Cd58 O57 2.228 . S
Cd58 O62 2.273 . S
Cd58 O66 2.277 . S
O59 C56 1.160 1_565 S
O59 Cd60 2.203 . S
Cd60 O59 2.203 . S
Cd60 O62 2.411 1_565 S
Cd60 O63 2.333 1_565 S
Cd60 O64 2.352 . S
Cd60 O68 2.277 . S
Cd60 O69 2.356 . S
C61 O66 1.209 . S
C61 O68 1.226 1_545 S
O62 Cd58 2.273 . S
O62 Cd60 2.411 1_545 S
O62 C65 1.320 . S
O63 Cd60 2.333 1_545 S
O63 C65 1.214 . S
O64 Cd60 2.352 . S
O64 C67 1.258 . S
C65 O62 1.320 . S
C65 O63 1.214 . S
O66 Cd58 2.277 . S
O66 C61 1.209 . S
C67 O64 1.258 . S
C67 O69 1.282 . S
O68 Cd60 2.277 . S
O68 C61 1.226 1_565 S
O69 Cd60 2.356 . S
O69 C67 1.282 . S
C70 O71 1.306 . S
C70 O73 1.160 . S
O71 C70 1.306 . S
O71 Cd72 2.228 . S
Cd72 O71 2.228 . S
Cd72 O76 2.273 . S
Cd72 O80 2.277 . S
O73 C70 1.160 . S
O73 Cd74 2.203 . S
Cd74 O73 2.203 . S
Cd74 O76 2.411 . S
Cd74 O77 2.333 . S
Cd74 O78 2.352 . S
Cd74 O82 2.277 . S
Cd74 O83 2.356 . S
C75 O80 1.209 . S
C75 O82 1.226 . S
O76 Cd72 2.273 . S
O76 Cd74 2.411 . S
O76 C79 1.320 . S
O77 Cd74 2.333 . S
O77 C79 1.214 . S
O78 Cd74 2.352 . S
O78 C81 1.258 . S
C79 O76 1.320 . S
C79 O77 1.214 . S
O80 Cd72 2.277 . S
O80 C75 1.209 . S
C81 O78 1.258 . S
C81 O83 1.282 . S
O82 Cd74 2.277 . S
O82 C75 1.226 . S
O83 Cd74 2.356 . S
O83 C81 1.282 . S
C84 O85 1.306 . S
C84 O87 1.160 1_565 S
O85 C84 1.306 . S
O85 Cd86 2.228 . S
Cd86 O85 2.228 . S
Cd86 O90 2.273 . S
Cd86 O94 2.277 . S
O87 C84 1.160 1_545 S
O87 Cd88 2.203 . S
Cd88 O87 2.203 . S
Cd88 O90 2.411 1_545 S
Cd88 O91 2.333 1_545 S
Cd88 O92 2.352 . S
Cd88 O96 2.277 . S
Cd88 O97 2.356 . S
C89 O94 1.209 1_545 S
C89 O96 1.226 . S
O90 Cd86 2.273 . S
O90 Cd88 2.411 1_565 S
O90 C93 1.320 . S
O91 Cd88 2.333 1_565 S
O91 C93 1.214 . S
O92 Cd88 2.352 . S
O92 C95 1.258 . S
C93 O90 1.320 . S
C93 O91 1.214 . S
O94 Cd86 2.277 . S
O94 C89 1.209 1_565 S
C95 O92 1.258 . S
C95 O97 1.282 . S
O96 Cd88 2.277 . S
O96 C89 1.226 . S
O97 Cd88 2.356 . S
O97 C95 1.282 . S
C98 O99 1.306 . S
C98 O101 1.160 1_554 S
O99 C98 1.306 . S
O99 Cd100 2.228 . S
Cd100 O99 2.228 . S
Cd100 O104 2.273 . S
Cd100 O108 2.277 . S
O101 C98 1.160 1_556 S
O101 Cd102 2.203 . S
Cd102 O101 2.203 . S
Cd102 O104 2.411 1_556 S
Cd102 O105 2.333 1_556 S
Cd102 O106 2.352 . S
Cd102 O110 2.277 . S
Cd102 O111 2.356 . S
C103 O108 1.209 1_556 S
C103 O110 1.226 . S
O104 Cd100 2.273 . S
O104 Cd102 2.411 1_554 S
O104 C107 1.320 . S
O105 Cd102 2.333 1_554 S
O105 C107 1.214 . S
O106 Cd102 2.352 . S
O106 C109 1.258 . S
C107 O104 1.320 . S
C107 O105 1.214 . S
O108 Cd100 2.277 . S
O108 C103 1.209 1_554 S
C109 O106 1.258 . S
C109 O111 1.282 . S
O110 Cd102 2.277 . S
O110 C103 1.226 . S
O111 Cd102 2.356 . S
O111 C109 1.282 . S
C112 O113 1.306 1_554 S
C112 O115 1.160 . S
O113 C112 1.306 1_556 S
O113 Cd114 2.228 . S
Cd114 O113 2.228 . S
Cd114 O118 2.273 . S
Cd114 O122 2.277 . S
O115 C112 1.160 . S
O115 Cd116 2.203 . S
Cd116 O115 2.203 . S
Cd116 O118 2.411 1_554 S
Cd116 O119 2.333 . S
Cd116 O120 2.352 . S
Cd116 O124 2.277 . S
Cd116 O125 2.356 . S
C117 O122 1.209 1_554 S
C117 O124 1.226 . S
O118 Cd114 2.273 . S
O118 Cd116 2.411 1_556 S
O118 C121 1.320 . S
O119 Cd116 2.333 . S
O119 C121 1.214 1_554 S
O120 Cd116 2.352 . S
O120 C123 1.258 . S
C121 O118 1.320 . S
C121 O119 1.214 1_556 S
O122 Cd114 2.277 . S
O122 C117 1.209 1_556 S
C123 O120 1.258 . S
C123 O125 1.282 . S
O124 Cd116 2.277 . S
O124 C117 1.226 . S
O125 Cd116 2.356 . S
O125 C123 1.282 . S
C126 O127 1.306 . S
C126 O129 1.160 . S
O127 C126 1.306 . S
O127 Cd128 2.228 . S
Cd128 O127 2.228 . S
Cd128 O132 2.273 . S
Cd128 O136 2.277 . S
O129 C126 1.160 . S
O129 Cd130 2.203 . S
Cd130 O129 2.203 . S
Cd130 O132 2.411 . S
Cd130 O133 2.333 . S
Cd130 O134 2.352 . S
Cd130 O138 2.277 . S
Cd130 O139 2.356 . S
C131 O136 1.209 . S
C131 O138 1.226 . S
O132 Cd128 2.273 . S
O132 Cd130 2.411 . S
O132 C135 1.320 . S
O133 Cd130 2.333 . S
O133 C135 1.214 . S
O134 Cd130 2.352 . S
O134 C137 1.258 . S
C135 O132 1.320 . S
C135 O133 1.214 . S
O136 Cd128 2.277 . S
O136 C131 1.209 . S
C137 O134 1.258 . S
C137 O139 1.282 . S
O138 Cd130 2.277 . S
O138 C131 1.226 . S
O139 Cd130 2.356 . S
O139 C137 1.282 . S
C140 O141 1.306 . S
C140 O143 1.160 . S
O141 C140 1.306 . S
O141 Cd142 2.228 . S
Cd142 O141 2.228 . S
Cd142 O146 2.273 . S
Cd142 O150 2.277 . S
O143 C140 1.160 . S
O143 Cd144 2.203 . S
Cd144 O143 2.203 . S
Cd144 O146 2.411 . S
Cd144 O147 2.333 . S
Cd144 O148 2.352 . S
Cd144 O152 2.277 . S
Cd144 O153 2.356 . S
C145 O150 1.209 . S
C145 O152 1.226 . S
O146 Cd142 2.273 . S
O146 Cd144 2.411 . S
O146 C149 1.320 . S
O147 Cd144 2.333 . S
O147 C149 1.214 . S
O148 Cd144 2.352 . S
O148 C151 1.258 . S
C149 O146 1.320 . S
C149 O147 1.214 . S
O150 Cd142 2.277 . S
O150 C145 1.209 . S
C151 O148 1.258 . S
C151 O153 1.282 . S
O152 Cd144 2.277 . S
O152 C145 1.226 . S
O153 Cd144 2.356 . S
O153 C151 1.282 . S
C154 O155 1.306 . S
C154 O157 1.160 . S
O155 C154 1.306 . S
O155 Cd156 2.228 . S
Cd156 O155 2.228 . S
Cd156 O160 2.273 . S
Cd156 O164 2.277 . S
O157 C154 1.160 . S
O157 Cd158 2.203 . S
Cd158 O157 2.203 . S
Cd158 O160 2.411 . S
Cd158 O161 2.333 . S
Cd158 O162 2.352 . S
Cd158 O166 2.277 . S
Cd158 O167 2.356 . S
C159 O164 1.209 . S
C159 O166 1.226 . S
O160 Cd156 2.273 . S
O160 Cd158 2.411 . S
O160 C163 1.320 . S
O161 Cd158 2.333 . S
O161 C163 1.214 . S
O162 Cd158 2.352 . S
O162 C165 1.258 . S
C163 O160 1.320 . S
C163 O161 1.214 . S
O164 Cd156 2.277 . S
O164 C159 1.209 . S
C165 O162 1.258 . S
C165 O167 1.282 . S
O166 Cd158 2.277 . S
O166 C159 1.226 . S
O167 Cd158 2.356 . S
O167 C165 1.282 . S
H168 C174 0.930 . S
H169 C177 0.931 . S
H170 C179 0.931 1_455 S
H171 C181 0.930 . S
H172 C183 0.930 . S
H173 C185 0.931 . S
C174 H168 0.930 . S
C174 C175 1.380 . S
C174 C176 1.394 . S
C175 C174 1.380 . S
C175 C179 1.382 . S
C176 C174 1.394 . S
C176 C177 1.400 . S
C177 H169 0.931 . S
C177 C176 1.400 . S
C177 C178 1.377 . S
C178 C177 1.377 . S
C178 C179 1.416 . S
C178 C180 1.498 1_655 S
C179 H170 0.931 1_655 S
C179 C175 1.382 . S
C179 C178 1.416 . S
C180 C178 1.498 1_455 S
C180 C181 1.384 . S
C180 C185 1.408 . S
C181 H171 0.930 . S
C181 C180 1.384 . S
C181 C182 1.389 . S
C182 C181 1.389 . S
C182 C183 1.405 . S
C183 H172 0.930 . S
C183 C182 1.405 . S
C183 C184 1.364 . S
C184 C183 1.364 . S
C184 C185 1.400 . S
C185 H173 0.931 . S
C185 C180 1.408 . S
C185 C184 1.400 . S
H186 C192 0.930 . S
H187 C195 0.943 1_455 S
H188 C197 0.931 . S
H189 C199 0.930 . S
H190 C201 0.930 . S
H191 C203 0.955 . S
C192 H186 0.930 . S
C192 C193 1.380 . S
C192 C194 1.394 1_556 S
C193 C192 1.380 . S
C193 C197 1.382 . S
C194 C192 1.394 1_554 S
C194 C195 1.401 . S
C195 H187 0.943 1_655 S
C195 C194 1.401 . S
C195 C196 1.361 1_654 S
C196 C195 1.361 1_456 S
C196 C197 1.415 1_455 S
C196 C198 1.501 . S
C197 H188 0.931 . S
C197 C193 1.382 . S
C197 C196 1.415 1_655 S
C198 C196 1.501 . S
C198 C199 1.384 . S
C198 C203 1.386 1_556 S
C199 H189 0.930 . S
C199 C198 1.384 . S
C199 C200 1.389 . S
C200 C199 1.389 . S
C200 C201 1.405 . S
C201 H190 0.930 . S
C201 C200 1.405 . S
C201 C202 1.362 . S
C202 C201 1.362 . S
C202 C203 1.399 1_556 S
C203 H191 0.955 . S
C203 C198 1.386 1_554 S
C203 C202 1.399 1_554 S
H204 C210 0.930 . S
H205 C213 0.931 . S
H206 C215 0.931 1_556 S
H207 C217 0.930 1_556 S
H208 C219 0.930 . S
H209 C221 0.931 . S
C210 H204 0.930 . S
C210 C211 1.380 . S
C210 C212 1.394 . S
C211 C210 1.380 . S
C211 C215 1.382 . S
C212 C210 1.394 . S
C212 C213 1.400 . S
C213 H205 0.931 . S
C213 C212 1.400 . S
C213 C214 1.375 . S
C214 C213 1.375 . S
C214 C215 1.415 . S
C214 C216 1.501 . S
C215 H206 0.931 1_554 S
C215 C211 1.382 . S
C215 C214 1.415 . S
C216 C214 1.501 . S
C216 C217 1.384 . S
C216 C221 1.408 . S
C217 H207 0.930 1_554 S
C217 C216 1.384 . S
C217 C218 1.389 . S
C218 C217 1.389 . S
C218 C219 1.405 . S
C219 H208 0.930 . S
C219 C218 1.405 . S
C219 C220 1.364 . S
C220 C219 1.364 . S
C220 C221 1.400 . S
C221 H209 0.931 . S
C221 C216 1.408 . S
C221 C220 1.400 . S
H222 C228 0.930 . S
H223 C231 0.931 . S
H224 C233 0.931 . S
H225 C235 0.930 . S
H226 C237 0.930 . S
H227 C239 0.931 . S
C228 H222 0.930 . S
C228 C229 1.380 . S
C228 C230 1.394 . S
C229 C228 1.380 . S
C229 C233 1.382 . S
C230 C228 1.394 . S
C230 C231 1.400 . S
C231 H223 0.931 . S
C231 C230 1.400 . S
C231 C232 1.375 . S
C232 C231 1.375 . S
C232 C233 1.415 . S
C232 C234 1.501 . S
C233 H224 0.931 . S
C233 C229 1.382 . S
C233 C232 1.415 . S
C234 C232 1.501 . S
C234 C235 1.384 . S
C234 C239 1.408 . S
C235 H225 0.930 . S
C235 C234 1.384 . S
C235 C236 1.389 . S
C236 C235 1.389 . S
C236 C237 1.405 . S
C237 H226 0.930 . S
C237 C236 1.405 . S
C237 C238 1.364 . S
C238 C237 1.364 . S
C238 C239 1.400 . S
C239 H227 0.931 . S
C239 C234 1.408 . S
C239 C238 1.400 . S
H240 C246 0.930 . S
H241 C249 0.931 . S
H242 C251 0.931 . S
H243 C253 0.930 . S
H244 C255 0.930 . S
H245 C257 0.931 . S
C246 H240 0.930 . S
C246 C247 1.380 . S
C246 C248 1.394 . S
C247 C246 1.380 . S
C247 C251 1.382 . S
C248 C246 1.394 . S
C248 C249 1.400 . S
C249 H241 0.931 . S
C249 C248 1.400 . S
C249 C250 1.375 . S
C250 C249 1.375 . S
C250 C251 1.415 . S
C250 C252 1.501 1_565 S
C251 H242 0.931 . S
C251 C247 1.382 . S
C251 C250 1.415 . S
C252 C250 1.501 1_545 S
C252 C253 1.384 . S
C252 C257 1.408 . S
C253 H243 0.930 . S
C253 C252 1.384 . S
C253 C254 1.389 . S
C254 C253 1.389 . S
C254 C255 1.405 . S
C255 H244 0.930 . S
C255 C254 1.405 . S
C255 C256 1.364 . S
C256 C255 1.364 . S
C256 C257 1.400 . S
C257 H245 0.931 . S
C257 C252 1.408 . S
C257 C256 1.400 . S
H258 C264 0.930 . S
H259 C267 0.931 . S
H260 C269 0.931 . S
H261 C271 0.930 . S
H262 C273 0.930 . S
H263 C275 0.931 . S
C264 H258 0.930 . S
C264 C265 1.380 . S
C264 C266 1.394 . S
C265 C264 1.380 . S
C265 C269 1.382 . S
C266 C264 1.394 . S
C266 C267 1.400 . S
C267 H259 0.931 . S
C267 C266 1.400 . S
C267 C268 1.375 . S
C268 C267 1.375 . S
C268 C269 1.415 . S
C268 C270 1.501 . S
C269 H260 0.931 . S
C269 C265 1.382 . S
C269 C268 1.415 . S
C270 C268 1.501 . S
C270 C271 1.384 . S
C270 C275 1.408 . S
C271 H261 0.930 . S
C271 C270 1.384 . S
C271 C272 1.389 . S
C272 C271 1.389 . S
C272 C273 1.405 . S
C273 H262 0.930 . S
C273 C272 1.405 . S
C273 C274 1.364 . S
C274 C273 1.364 . S
C274 C275 1.400 . S
C275 H263 0.931 . S
C275 C270 1.408 . S
C275 C274 1.400 . S
H276 C282 0.930 . S
H277 C285 0.931 . S
H278 C287 0.931 . S
H279 C289 0.930 . S
H280 C291 0.930 . S
H281 C293 0.931 . S
C282 H276 0.930 . S
C282 C283 1.380 1_655 S
C282 C284 1.394 . S
C283 C282 1.380 1_455 S
C283 C287 1.382 . S
C284 C282 1.394 . S
C284 C285 1.400 . S
C285 H277 0.931 . S
C285 C284 1.400 . S
C285 C286 1.375 . S
C286 C285 1.375 . S
C286 C287 1.415 1_655 S
C286 C288 1.501 1_545 S
C287 H278 0.931 . S
C287 C283 1.382 . S
C287 C286 1.415 1_455 S
C288 C286 1.501 1_565 S
C288 C289 1.384 1_655 S
C288 C293 1.408 . S
C289 H279 0.930 . S
C289 C288 1.384 1_455 S
C289 C290 1.389 . S
C290 C289 1.389 . S
C290 C291 1.405 1_455 S
C291 H280 0.930 . S
C291 C290 1.405 1_655 S
C291 C292 1.364 . S
C292 C291 1.364 . S
C292 C293 1.400 . S
C293 H281 0.931 . S
C293 C288 1.408 . S
C293 C292 1.400 . S
H294 C300 0.930 . S
H295 C303 0.931 1_554 S
H296 C305 0.931 . S
H297 C307 0.930 . S
H298 C309 0.930 . S
H299 C311 0.931 . S
C300 H294 0.930 . S
C300 C301 1.380 . S
C300 C302 1.394 . S
C301 C300 1.380 . S
C301 C305 1.382 . S
C302 C300 1.394 . S
C302 C303 1.400 . S
C303 H295 0.931 1_556 S
C303 C302 1.400 . S
C303 C304 1.375 1_556 S
C304 C303 1.375 1_554 S
C304 C305 1.415 1_554 S
C304 C306 1.501 . S
C305 H296 0.931 . S
C305 C301 1.382 . S
C305 C304 1.415 1_556 S
C306 C304 1.501 . S
C306 C307 1.384 . S
C306 C311 1.408 . S
C307 H297 0.930 . S
C307 C306 1.384 . S
C307 C308 1.389 . S
C308 C307 1.389 . S
C308 C309 1.405 . S
C309 H298 0.930 . S
C309 C308 1.405 . S
C309 C310 1.364 . S
C310 C309 1.364 . S
C310 C311 1.400 . S
C311 H299 0.931 . S
C311 C306 1.408 . S
C311 C310 1.400 . S
H312 C318 0.930 . S
H313 C321 0.934 1_545 S
H314 C323 0.927 1_554 S
H315 C325 0.930 . S
H316 C327 0.930 . S
H317 C329 0.931 1_545 S
C318 H312 0.930 . S
C318 C319 1.380 . S
C318 C320 1.394 . S
C319 C318 1.380 . S
C319 C323 1.382 . S
C320 C318 1.394 . S
C320 C321 1.395 1_556 S
C321 H313 0.934 1_565 S
C321 C320 1.395 1_554 S
C321 C322 1.377 . S
C322 C321 1.377 . S
C322 C323 1.415 1_554 S
C322 C324 1.501 . S
C323 H314 0.927 1_556 S
C323 C319 1.382 . S
C323 C322 1.415 1_556 S
C324 C322 1.501 . S
C324 C325 1.384 . S
C324 C329 1.408 . S
C325 H315 0.930 . S
C325 C324 1.384 . S
C325 C326 1.389 . S
C326 C325 1.389 . S
C326 C327 1.405 . S
C327 H316 0.930 . S
C327 C326 1.405 . S
C327 C328 1.364 . S
C328 C327 1.364 . S
C328 C329 1.400 . S
C329 H317 0.931 1_565 S
C329 C324 1.408 . S
C329 C328 1.400 . S
H330 C336 0.930 . S
H331 C339 0.931 . S
H332 C341 0.931 . S
H333 C343 0.930 . S
H334 C345 0.930 . S
H335 C347 0.931 . S
C336 H330 0.930 . S
C336 C337 1.380 . S
C336 C338 1.394 . S
C337 C336 1.380 . S
C337 C341 1.382 . S
C338 C336 1.394 . S
C338 C339 1.400 . S
C339 H331 0.931 . S
C339 C338 1.400 . S
C339 C340 1.375 . S
C340 C339 1.375 . S
C340 C341 1.415 . S
C340 C342 1.501 . S
C341 H332 0.931 . S
C341 C337 1.382 . S
C341 C340 1.415 . S
C342 C340 1.501 . S
C342 C343 1.384 . S
C342 C347 1.408 . S
C343 H333 0.930 . S
C343 C342 1.384 . S
C343 C344 1.389 . S
C344 C343 1.389 . S
C344 C345 1.405 . S
C345 H334 0.930 . S
C345 C344 1.405 . S
C345 C346 1.364 . S
C346 C345 1.364 . S
C346 C347 1.400 . S
C347 H335 0.931 . S
C347 C342 1.408 . S
C347 C346 1.400 . S
H348 C354 0.930 . S
H349 C357 0.915 1_565 S
H350 C359 0.931 . S
H351 C361 0.930 . S
H352 C363 0.930 . S
H353 C365 0.931 1_565 S
C354 H348 0.930 . S
C354 C355 1.380 . S
C354 C356 1.394 . S
C355 C354 1.380 . S
C355 C359 1.382 . S
C356 C354 1.394 . S
C356 C357 1.400 . S
C357 H349 0.915 1_545 S
C357 C356 1.400 . S
C357 C358 1.375 . S
C358 C357 1.375 . S
C358 C359 1.415 . S
C358 C360 1.501 . S
C359 H350 0.931 . S
C359 C355 1.382 . S
C359 C358 1.415 . S
C360 C358 1.501 . S
C360 C361 1.384 . S
C360 C365 1.408 . S
C361 H351 0.930 . S
C361 C360 1.384 . S
C361 C362 1.389 . S
C362 C361 1.389 . S
C362 C363 1.405 . S
C363 H352 0.930 . S
C363 C362 1.405 . S
C363 C364 1.364 . S
C364 C363 1.364 . S
C364 C365 1.400 . S
C365 H353 0.931 1_545 S
C365 C360 1.408 . S
C365 C364 1.400 . S
H366 C372 0.930 . S
H367 C375 0.931 . S
H368 C377 0.931 . S
H369 C379 0.930 . S
H370 C381 0.930 . S
H371 C383 0.931 . S
C372 H366 0.930 . S
C372 C373 1.380 . S
C372 C374 1.394 . S
C373 C372 1.380 . S
C373 C377 1.382 . S
C374 C372 1.394 . S
C374 C375 1.400 . S
C375 H367 0.931 . S
C375 C374 1.400 . S
C375 C376 1.375 . S
C376 C375 1.375 . S
C376 C377 1.415 . S
C376 C378 1.501 . S
C377 H368 0.931 . S
C377 C373 1.382 . S
C377 C376 1.415 . S
C378 C376 1.501 . S
C378 C379 1.384 . S
C378 C383 1.408 . S
C379 H369 0.930 . S
C379 C378 1.384 . S
C379 C380 1.389 . S
C380 C379 1.389 . S
C380 C381 1.405 . S
C381 H370 0.930 . S
C381 C380 1.405 . S
C381 C382 1.364 . S
C382 C381 1.364 . S
C382 C383 1.400 . S
C383 H371 0.931 . S
C383 C378 1.408 . S
C383 C382 1.400 . S
H384 C392 0.950 . S
H385 C397 0.950 . S
H386 C394 0.947 1_556 S
H387 C396 0.945 1_556 S
H388 C398 0.950 . S
H389 C400 0.950 . S
H390 C402 0.950 . S
H391 C403 0.950 . S
C392 H384 0.950 . S
C392 C393 1.402 . S
C392 C394 1.391 . S
C393 C392 1.402 . S
C393 C397 1.375 1_655 S
C394 H386 0.947 1_554 S
C394 C392 1.391 . S
C394 C395 1.400 1_654 S
C395 C394 1.400 1_456 S
C395 C396 1.394 1_556 S
C395 C401 1.491 . S
C396 H387 0.945 1_554 S
C396 C395 1.394 1_554 S
C396 C397 1.399 . S
C397 H385 0.950 . S
C397 C393 1.375 1_455 S
C397 C396 1.399 . S
C398 H388 0.950 . S
C398 C399 1.386 . S
C398 C400 1.391 . S
C399 C398 1.386 . S
C399 C403 1.393 1_455 S
C400 H389 0.950 . S
C400 C398 1.391 . S
C400 C401 1.400 . S
C401 C395 1.491 . S
C401 C400 1.400 . S
C401 C402 1.398 1_455 S
C402 H390 0.950 . S
C402 C401 1.398 1_655 S
C402 C403 1.391 . S
C403 H391 0.950 . S
C403 C399 1.393 1_655 S
C403 C402 1.391 . S
H404 C412 0.950 . S
H405 C417 0.950 . S
H406 C414 0.950 . S
H407 C416 0.950 . S
H408 C418 0.950 . S
H409 C420 0.950 . S
H410 C422 0.950 . S
H411 C423 0.950 . S
C412 H404 0.950 . S
C412 C413 1.386 . S
C412 C414 1.391 . S
C413 C412 1.386 . S
C413 C417 1.393 . S
C414 H406 0.950 . S
C414 C412 1.391 . S
C414 C415 1.400 . S
C415 C414 1.400 . S
C415 C416 1.398 . S
C415 C421 1.491 . S
C416 H407 0.950 . S
C416 C415 1.398 . S
C416 C417 1.391 . S
C417 H405 0.950 . S
C417 C413 1.393 . S
C417 C416 1.391 . S
C418 H408 0.950 . S
C418 C419 1.386 . S
C418 C420 1.391 . S
C419 C418 1.386 . S
C419 C423 1.393 . S
C420 H409 0.950 . S
C420 C418 1.391 . S
C420 C421 1.400 . S
C421 C415 1.491 . S
C421 C420 1.400 . S
C421 C422 1.398 . S
C422 H410 0.950 . S
C422 C421 1.398 . S
C422 C423 1.391 . S
C423 H411 0.950 . S
C423 C419 1.393 . S
C423 C422 1.391 . S
H424 C432 0.950 . S
H425 C437 0.950 . S
H426 C434 0.950 . S
H427 C436 0.950 . S
H428 C438 0.950 . S
H429 C440 0.950 . S
H430 C442 0.950 . S
H431 C443 0.950 . S
C432 H424 0.950 . S
C432 C433 1.386 . S
C432 C434 1.391 . S
C433 C432 1.386 . S
C433 C437 1.393 . S
C434 H426 0.950 . S
C434 C432 1.391 . S
C434 C435 1.400 . S
C435 C434 1.400 . S
C435 C436 1.398 . S
C435 C441 1.491 . S
C436 H427 0.950 . S
C436 C435 1.398 . S
C436 C437 1.391 . S
C437 H425 0.950 . S
C437 C433 1.393 . S
C437 C436 1.391 . S
C438 H428 0.950 . S
C438 C439 1.386 . S
C438 C440 1.391 . S
C439 C438 1.386 . S
C439 C443 1.393 . S
C440 H429 0.950 . S
C440 C438 1.391 . S
C440 C441 1.400 . S
C441 C435 1.491 . S
C441 C440 1.400 . S
C441 C442 1.398 . S
C442 H430 0.950 . S
C442 C441 1.398 . S
C442 C443 1.391 . S
C443 H431 0.950 . S
C443 C439 1.393 . S
C443 C442 1.391 . S
H444 C452 0.950 . S
H445 C457 0.950 . S
H446 C454 0.950 . S
H447 C456 0.950 . S
H448 C458 0.950 . S
H449 C460 0.950 . S
H450 C462 0.950 . S
H451 C463 0.950 . S
C452 H444 0.950 . S
C452 C453 1.386 . S
C452 C454 1.391 . S
C453 C452 1.386 . S
C453 C457 1.393 . S
C454 H446 0.950 . S
C454 C452 1.391 . S
C454 C455 1.400 . S
C455 C454 1.400 . S
C455 C456 1.398 . S
C455 C461 1.491 . S
C456 H447 0.950 . S
C456 C455 1.398 . S
C456 C457 1.391 . S
C457 H445 0.950 . S
C457 C453 1.393 . S
C457 C456 1.391 . S
C458 H448 0.950 . S
C458 C459 1.386 . S
C458 C460 1.391 . S
C459 C458 1.386 . S
C459 C463 1.393 . S
C460 H449 0.950 . S
C460 C458 1.391 . S
C460 C461 1.400 . S
C461 C455 1.491 . S
C461 C460 1.400 . S
C461 C462 1.398 . S
C462 H450 0.950 . S
C462 C461 1.398 . S
C462 C463 1.391 . S
C463 H451 0.950 . S
C463 C459 1.393 . S
C463 C462 1.391 . S
H464 C472 0.950 . S
H465 C477 0.950 . S
H466 C474 0.950 . S
H467 C476 0.950 . S
H468 C478 0.950 . S
H469 C480 0.950 . S
H470 C482 0.950 . S
H471 C483 0.950 . S
C472 H464 0.950 . S
C472 C473 1.386 1_455 S
C472 C474 1.391 . S
C473 C472 1.386 1_655 S
C473 C477 1.393 . S
C474 H466 0.950 . S
C474 C472 1.391 . S
C474 C475 1.400 . S
C475 C474 1.400 . S
C475 C476 1.398 1_455 S
C475 C481 1.491 . S
C476 H467 0.950 . S
C476 C475 1.398 1_655 S
C476 C477 1.391 . S
C477 H465 0.950 . S
C477 C473 1.393 . S
C477 C476 1.391 . S
C478 H468 0.950 . S
C478 C479 1.386 1_655 S
C478 C480 1.391 . S
C479 C478 1.386 1_455 S
C479 C483 1.393 . S
C480 H469 0.950 . S
C480 C478 1.391 . S
C480 C481 1.400 1_655 S
C481 C475 1.491 . S
C481 C480 1.400 1_455 S
C481 C482 1.398 . S
C482 H470 0.950 . S
C482 C481 1.398 . S
C482 C483 1.391 . S
C483 H471 0.950 . S
C483 C479 1.393 . S
C483 C482 1.391 . S
H484 C492 0.950 . S
H485 C497 0.950 . S
H486 C494 0.950 . S
H487 C496 0.950 . S
H488 C498 0.950 . S
H489 C500 0.950 . S
H490 C502 0.950 . S
H491 C503 0.950 . S
C492 H484 0.950 . S
C492 C493 1.386 . S
C492 C494 1.391 . S
C493 C492 1.386 . S
C493 C497 1.393 . S
C494 H486 0.950 . S
C494 C492 1.391 . S
C494 C495 1.400 . S
C495 C494 1.400 . S
C495 C496 1.398 . S
C495 C501 1.491 . S
C496 H487 0.950 . S
C496 C495 1.398 . S
C496 C497 1.391 . S
C497 H485 0.950 . S
C497 C493 1.393 . S
C497 C496 1.391 . S
C498 H488 0.950 . S
C498 C499 1.386 . S
C498 C500 1.391 . S
C499 C498 1.386 . S
C499 C503 1.393 . S
C500 H489 0.950 . S
C500 C498 1.391 . S
C500 C501 1.400 . S
C501 C495 1.491 . S
C501 C500 1.400 . S
C501 C502 1.398 . S
C502 H490 0.950 . S
C502 C501 1.398 . S
C502 C503 1.391 . S
C503 H491 0.950 . S
C503 C499 1.393 . S
C503 C502 1.391 . S
H504 C512 0.949 1_556 S
H505 C517 0.950 . S
H506 C514 0.950 . S
H507 C516 0.950 . S
H508 C518 0.950 . S
H509 C520 0.950 . S
H510 C522 0.950 . S
H511 C523 0.950 . S
C512 H504 0.949 1_554 S
C512 C513 1.386 1_554 S
C512 C514 1.391 . S
C513 C512 1.386 1_556 S
C513 C517 1.393 . S
C514 H506 0.950 . S
C514 C512 1.391 . S
C514 C515 1.400 . S
C515 C514 1.400 . S
C515 C516 1.398 . S
C515 C521 1.491 . S
C516 H507 0.950 . S
C516 C515 1.398 . S
C516 C517 1.391 1_554 S
C517 H505 0.950 . S
C517 C513 1.393 . S
C517 C516 1.391 1_556 S
C518 H508 0.950 . S
C518 C519 1.386 . S
C518 C520 1.391 . S
C519 C518 1.386 . S
C519 C523 1.393 . S
C520 H509 0.950 . S
C520 C518 1.391 . S
C520 C521 1.400 . S
C521 C515 1.491 . S
C521 C520 1.400 . S
C521 C522 1.398 . S
C522 H510 0.950 . S
C522 C521 1.398 . S
C522 C523 1.391 . S
C523 H511 0.950 . S
C523 C519 1.393 . S
C523 C522 1.391 . S
H524 C532 0.950 . S
H525 C537 0.950 . S
H526 C534 0.950 . S
H527 C536 0.950 . S
H528 C538 0.950 . S
H529 C540 0.950 . S
H530 C542 0.950 . S
H531 C543 0.950 . S
C532 H524 0.950 . S
C532 C533 1.386 . S
C532 C534 1.391 . S
C533 C532 1.386 . S
C533 C537 1.393 . S
C534 H526 0.950 . S
C534 C532 1.391 . S
C534 C535 1.400 . S
C535 C534 1.400 . S
C535 C536 1.398 . S
C535 C541 1.491 . S
C536 H527 0.950 . S
C536 C535 1.398 . S
C536 C537 1.391 . S
C537 H525 0.950 . S
C537 C533 1.393 . S
C537 C536 1.391 . S
C538 H528 0.950 . S
C538 C539 1.386 . S
C538 C540 1.391 . S
C539 C538 1.386 . S
C539 C543 1.393 . S
C540 H529 0.950 . S
C540 C538 1.391 . S
C540 C541 1.400 . S
C541 C535 1.491 . S
C541 C540 1.400 . S
C541 C542 1.398 . S
C542 H530 0.950 . S
C542 C541 1.398 . S
C542 C543 1.391 . S
C543 H531 0.950 . S
C543 C539 1.393 . S
C543 C542 1.391 . S
H544 C552 0.950 . S
H545 C557 0.950 . S
H546 C554 0.950 1_655 S
H547 C556 0.941 1_655 S
H548 C558 0.950 . S
H549 C560 0.950 . S
H550 C562 0.950 . S
H551 C563 0.950 . S
C552 H544 0.950 . S
C552 C553 1.386 . S
C552 C554 1.391 . S
C553 C552 1.386 . S
C553 C557 1.393 1_545 S
C554 H546 0.950 1_455 S
C554 C552 1.391 . S
C554 C555 1.400 1_455 S
C555 C554 1.400 1_655 S
C555 C556 1.398 1_645 S
C555 C561 1.491 . S
C556 H547 0.941 1_455 S
C556 C555 1.398 1_465 S
C556 C557 1.391 . S
C557 H545 0.950 . S
C557 C553 1.393 1_565 S
C557 C556 1.391 . S
C558 H548 0.950 . S
C558 C559 1.386 1_565 S
C558 C560 1.391 . S
C559 C558 1.386 1_545 S
C559 C563 1.393 . S
C560 H549 0.950 . S
C560 C558 1.391 . S
C560 C561 1.400 1_565 S
C561 C555 1.491 . S
C561 C560 1.400 1_545 S
C561 C562 1.398 . S
C562 H550 0.950 . S
C562 C561 1.398 . S
C562 C563 1.391 . S
C563 H551 0.950 . S
C563 C559 1.393 . S
C563 C562 1.391 . S
H564 C572 0.950 . S
H565 C577 0.950 . S
H566 C574 0.950 . S
H567 C576 0.950 . S
H568 C578 0.950 . S
H569 C580 0.950 . S
H570 C582 0.950 . S
H571 C583 0.950 . S
C572 H564 0.950 . S
C572 C573 1.386 . S
C572 C574 1.391 . S
C573 C572 1.386 . S
C573 C577 1.393 . S
C574 H566 0.950 . S
C574 C572 1.391 . S
C574 C575 1.400 . S
C575 C574 1.400 . S
C575 C576 1.398 . S
C575 C581 1.491 . S
C576 H567 0.950 . S
C576 C575 1.398 . S
C576 C577 1.391 . S
C577 H565 0.950 . S
C577 C573 1.393 . S
C577 C576 1.391 . S
C578 H568 0.950 . S
C578 C579 1.386 . S
C578 C580 1.391 . S
C579 C578 1.386 . S
C579 C583 1.393 . S
C580 H569 0.950 . S
C580 C578 1.391 . S
C580 C581 1.400 . S
C581 C575 1.491 . S
C581 C580 1.400 . S
C581 C582 1.398 . S
C582 H570 0.950 . S
C582 C581 1.398 . S
C582 C583 1.391 . S
C583 H571 0.950 . S
C583 C579 1.393 . S
C583 C582 1.391 . S
H584 C592 0.950 . S
H585 C597 0.950 . S
H586 C594 0.950 . S
H587 C596 0.950 . S
H588 C598 0.924 1_554 S
H589 C600 0.950 . S
H590 C602 0.950 . S
H591 C603 0.950 . S
C592 H584 0.950 . S
C592 C593 1.386 . S
C592 C594 1.391 . S
C593 C592 1.386 . S
C593 C597 1.393 1_545 S
C594 H586 0.950 . S
C594 C592 1.391 . S
C594 C595 1.400 . S
C595 C594 1.400 . S
C595 C596 1.398 1_545 S
C595 C601 1.491 . S
C596 H587 0.950 . S
C596 C595 1.398 1_565 S
C596 C597 1.391 . S
C597 H585 0.950 . S
C597 C593 1.393 1_565 S
C597 C596 1.391 . S
C598 H588 0.924 1_556 S
C598 C599 1.386 1_565 S
C598 C600 1.391 . S
C599 C598 1.386 1_545 S
C599 C603 1.393 . S
C600 H589 0.950 . S
C600 C598 1.391 . S
C600 C601 1.400 1_565 S
C601 C595 1.491 . S
C601 C600 1.400 1_545 S
C601 C602 1.398 . S
C602 H590 0.950 . S
C602 C601 1.398 . S
C602 C603 1.391 . S
C603 H591 0.950 . S
C603 C599 1.393 . S
C603 C602 1.391 . S
H604 C612 0.950 . S
H605 C617 0.950 . S
H606 C614 0.950 . S
H607 C616 0.950 . S
H608 C618 0.950 . S
H609 C620 0.950 . S
H610 C622 0.950 . S
H611 C623 0.950 . S
C612 H604 0.950 . S
C612 C613 1.386 . S
C612 C614 1.391 . S
C613 C612 1.386 . S
C613 C617 1.393 . S
C614 H606 0.950 . S
C614 C612 1.391 . S
C614 C615 1.400 . S
C615 C614 1.400 . S
C615 C616 1.398 . S
C615 C621 1.491 . S
C616 H607 0.950 . S
C616 C615 1.398 . S
C616 C617 1.391 . S
C617 H605 0.950 . S
C617 C613 1.393 . S
C617 C616 1.391 . S
C618 H608 0.950 . S
C618 C619 1.386 . S
C618 C620 1.391 . S
C619 C618 1.386 . S
C619 C623 1.393 . S
C620 H609 0.950 . S
C620 C618 1.391 . S
C620 C621 1.400 . S
C621 C615 1.491 . S
C621 C620 1.400 . S
C621 C622 1.398 . S
C622 H610 0.950 . S
C622 C621 1.398 . S
C622 C623 1.391 . S
C623 H611 0.950 . S
C623 C619 1.393 . S
C623 C622 1.391 . S
H624 C632 0.950 . S
H625 C637 0.950 . S
H626 C634 0.950 . S
H627 C636 0.950 . S
H628 C638 0.950 . S
H629 C640 0.950 . S
H630 C642 0.950 . S
H631 C643 0.950 . S
C632 H624 0.950 . S
C632 C633 1.386 . S
C632 C634 1.391 1_455 S
C633 C632 1.386 . S
C633 C637 1.393 1_545 S
C634 H626 0.950 . S
C634 C632 1.391 1_655 S
C634 C635 1.400 . S
C635 C634 1.400 . S
C635 C636 1.398 1_645 S
C635 C641 1.491 . S
C636 H627 0.950 . S
C636 C635 1.398 1_465 S
C636 C637 1.391 . S
C637 H625 0.950 . S
C637 C633 1.393 1_565 S
C637 C636 1.391 . S
C638 H628 0.950 . S
C638 C639 1.386 1_565 S
C638 C640 1.391 . S
C639 C638 1.386 1_545 S
C639 C643 1.393 . S
C640 H629 0.950 . S
C640 C638 1.391 . S
C640 C641 1.400 1_565 S
C641 C635 1.491 . S
C641 C640 1.400 1_545 S
C641 C642 1.398 . S
C642 H630 0.950 . S
C642 C641 1.398 . S
C642 C643 1.391 . S
C643 H631 0.950 . S
C643 C639 1.393 . S
C643 C642 1.391 . S
H644 C652 0.950 . S
H645 C657 0.950 . S
H646 C654 0.950 . S
H647 C656 0.950 . S
H648 C658 0.950 . S
H649 C660 0.950 . S
H650 C662 0.950 . S
H651 C663 0.950 . S
C652 H644 0.950 . S
C652 C653 1.386 . S
C652 C654 1.391 . S
C653 C652 1.386 . S
C653 C657 1.393 . S
C654 H646 0.950 . S
C654 C652 1.391 . S
C654 C655 1.400 . S
C655 C654 1.400 . S
C655 C656 1.398 . S
C655 C661 1.491 . S
C656 H647 0.950 . S
C656 C655 1.398 . S
C656 C657 1.391 . S
C657 H645 0.950 . S
C657 C653 1.393 . S
C657 C656 1.391 . S
C658 H648 0.950 . S
C658 C659 1.386 . S
C658 C660 1.391 . S
C659 C658 1.386 . S
C659 C663 1.393 . S
C660 H649 0.950 . S
C660 C658 1.391 . S
C660 C661 1.400 . S
C661 C655 1.491 . S
C661 C660 1.400 . S
C661 C662 1.398 . S
C662 H650 0.950 . S
C662 C661 1.398 . S
C662 C663 1.391 . S
C663 H651 0.950 . S
C663 C659 1.393 . S
C663 C662 1.391 . S
H664 C672 0.950 . S
H665 C677 0.950 . S
H666 C674 0.950 . S
H667 C676 0.950 . S
H668 C678 0.950 . S
H669 C680 0.950 . S
H670 C682 0.950 . S
H671 C683 0.950 . S
C672 H664 0.950 . S
C672 C673 1.386 1_545 S
C672 C674 1.391 . S
C673 C672 1.386 1_565 S
C673 C677 1.393 . S
C674 H666 0.950 . S
C674 C672 1.391 . S
C674 C675 1.400 1_545 S
C675 C674 1.400 1_565 S
C675 C676 1.398 . S
C675 C681 1.491 . S
C676 H667 0.950 . S
C676 C675 1.398 . S
C676 C677 1.391 . S
C677 H665 0.950 . S
C677 C673 1.393 . S
C677 C676 1.391 . S
C678 H668 0.950 . S
C678 C679 1.386 . S
C678 C680 1.391 . S
C679 C678 1.386 . S
C679 C683 1.393 1_565 S
C680 H669 0.950 . S
C680 C678 1.391 . S
C680 C681 1.400 . S
C681 C675 1.491 . S
C681 C680 1.400 . S
C681 C682 1.398 1_565 S
C682 H670 0.950 . S
C682 C681 1.398 1_545 S
C682 C683 1.391 . S
C683 H671 0.950 . S
C683 C679 1.393 1_545 S
C683 C682 1.391 . S
H684 C692 0.950 . S
H685 C697 0.950 . S
H686 C694 0.950 . S
H687 C696 0.950 . S
H688 C698 0.950 . S
H689 C700 0.950 . S
H690 C702 0.950 . S
H691 C703 0.950 . S
C692 H684 0.950 . S
C692 C693 1.386 . S
C692 C694 1.391 . S
C693 C692 1.386 . S
C693 C697 1.393 . S
C694 H686 0.950 . S
C694 C692 1.391 . S
C694 C695 1.400 . S
C695 C694 1.400 . S
C695 C696 1.398 . S
C695 C701 1.491 . S
C696 H687 0.950 . S
C696 C695 1.398 . S
C696 C697 1.391 . S
C697 H685 0.950 . S
C697 C693 1.393 . S
C697 C696 1.391 . S
C698 H688 0.950 . S
C698 C699 1.386 . S
C698 C700 1.391 . S
C699 C698 1.386 . S
C699 C703 1.393 . S
C700 H689 0.950 . S
C700 C698 1.391 . S
C700 C701 1.400 . S
C701 C695 1.491 . S
C701 C700 1.400 . S
C701 C702 1.398 . S
C702 H690 0.950 . S
C702 C701 1.398 . S
C702 C703 1.391 . S
C703 H691 0.950 . S
C703 C699 1.393 . S
C703 C702 1.391 . S
H704 C712 0.950 . S
H705 C717 0.950 . S
H706 C714 0.950 1_565 S
H707 C716 0.953 . S
H708 C718 0.950 . S
H709 C720 0.951 . S
H710 C722 0.950 . S
H711 C723 0.950 . S
C712 H704 0.950 . S
C712 C713 1.386 . S
C712 C714 1.389 . S
C713 C712 1.386 . S
C713 C717 1.393 1_556 S
C714 H706 0.950 1_545 S
C714 C712 1.389 . S
C714 C715 1.402 1_545 S
C715 C714 1.402 1_565 S
C715 C716 1.397 1_556 S
C715 C721 1.491 . S
C716 H707 0.953 . S
C716 C715 1.397 1_554 S
C716 C717 1.390 1_565 S
C717 H705 0.950 . S
C717 C713 1.393 1_554 S
C717 C716 1.390 1_545 S
C718 H708 0.950 . S
C718 C719 1.386 . S
C718 C720 1.391 . S
C719 C718 1.386 . S
C719 C723 1.393 . S
C720 H709 0.951 . S
C720 C718 1.391 . S
C720 C721 1.400 . S
C721 C715 1.491 . S
C721 C720 1.400 . S
C721 C722 1.398 . S
C722 H710 0.950 . S
C722 C721 1.398 . S
C722 C723 1.391 . S
C723 H711 0.950 . S
C723 C719 1.393 . S
C723 C722 1.391 . S
H724 C732 0.950 . S
H725 C737 0.950 1_556 S
H726 C734 0.950 . S
H727 C736 0.950 1_556 S
H728 C738 0.950 . S
H729 C740 0.950 . S
H730 C742 0.950 . S
H731 C743 0.950 . S
C732 H724 0.950 . S
C732 C733 1.386 . S
C732 C734 1.391 . S
C733 C732 1.386 . S
C733 C737 1.393 . S
C734 H726 0.950 . S
C734 C732 1.391 . S
C734 C735 1.400 . S
C735 C734 1.400 . S
C735 C736 1.398 . S
C735 C741 1.491 . S
C736 H727 0.950 1_554 S
C736 C735 1.398 . S
C736 C737 1.391 . S
C737 H725 0.950 1_554 S
C737 C733 1.393 . S
C737 C736 1.391 . S
C738 H728 0.950 . S
C738 C739 1.386 1_556 S
C738 C740 1.391 . S
C739 C738 1.386 1_554 S
C739 C743 1.393 . S
C740 H729 0.950 . S
C740 C738 1.391 . S
C740 C741 1.400 1_556 S
C741 C735 1.491 . S
C741 C740 1.400 1_554 S
C741 C742 1.398 . S
C742 H730 0.950 . S
C742 C741 1.398 . S
C742 C743 1.391 . S
C743 H731 0.950 . S
C743 C739 1.393 . S
C743 C742 1.391 . S
H744 C752 0.950 . S
H745 C757 0.950 . S
H746 C754 0.950 . S
H747 C756 0.950 . S
H748 C758 0.950 . S
H749 C760 0.950 . S
H750 C762 0.950 . S
H751 C763 0.950 . S
C752 H744 0.950 . S
C752 C753 1.386 . S
C752 C754 1.391 . S
C753 C752 1.386 . S
C753 C757 1.393 . S
C754 H746 0.950 . S
C754 C752 1.391 . S
C754 C755 1.400 . S
C755 C754 1.400 . S
C755 C756 1.398 . S
C755 C761 1.491 . S
C756 H747 0.950 . S
C756 C755 1.398 . S
C756 C757 1.391 . S
C757 H745 0.950 . S
C757 C753 1.393 . S
C757 C756 1.391 . S
C758 H748 0.950 . S
C758 C759 1.386 . S
C758 C760 1.391 . S
C759 C758 1.386 . S
C759 C763 1.393 . S
C760 H749 0.950 . S
C760 C758 1.391 . S
C760 C761 1.400 . S
C761 C755 1.491 . S
C761 C760 1.400 . S
C761 C762 1.398 . S
C762 H750 0.950 . S
C762 C761 1.398 . S
C762 C763 1.391 . S
C763 H751 0.950 . S
C763 C759 1.393 . S
C763 C762 1.391 . S
H764 C772 0.950 . S
H765 C777 0.950 . S
H766 C774 0.950 . S
H767 C776 0.950 . S
H768 C778 0.950 . S
H769 C780 0.950 . S
H770 C782 0.950 . S
H771 C783 0.950 . S
C772 H764 0.950 . S
C772 C773 1.386 . S
C772 C774 1.391 . S
C773 C772 1.386 . S
C773 C777 1.393 . S
C774 H766 0.950 . S
C774 C772 1.391 . S
C774 C775 1.400 . S
C775 C774 1.400 . S
C775 C776 1.398 . S
C775 C781 1.491 . S
C776 H767 0.950 . S
C776 C775 1.398 . S
C776 C777 1.391 . S
C777 H765 0.950 . S
C777 C773 1.393 . S
C777 C776 1.391 . S
C778 H768 0.950 . S
C778 C779 1.386 . S
C778 C780 1.391 . S
C779 C778 1.386 . S
C779 C783 1.393 . S
C780 H769 0.950 . S
C780 C778 1.391 . S
C780 C781 1.400 . S
C781 C775 1.491 . S
C781 C780 1.400 . S
C781 C782 1.398 . S
C782 H770 0.950 . S
C782 C781 1.398 . S
C782 C783 1.391 . S
C783 H771 0.950 . S
C783 C779 1.393 . S
C783 C782 1.391 . S
H784 C792 0.950 . S
H785 C797 0.950 . S
H786 C794 0.950 . S
H787 C796 0.950 . S
H788 C798 0.950 . S
H789 C800 0.950 . S
H790 C802 0.950 . S
H791 C803 0.950 . S
C792 H784 0.950 . S
C792 C793 1.386 . S
C792 C794 1.391 . S
C793 C792 1.386 . S
C793 C797 1.393 . S
C794 H786 0.950 . S
C794 C792 1.391 . S
C794 C795 1.400 . S
C795 C794 1.400 . S
C795 C796 1.398 . S
C795 C801 1.491 . S
C796 H787 0.950 . S
C796 C795 1.398 . S
C796 C797 1.391 . S
C797 H785 0.950 . S
C797 C793 1.393 . S
C797 C796 1.391 . S
C798 H788 0.950 . S
C798 C799 1.386 . S
C798 C800 1.391 . S
C799 C798 1.386 . S
C799 C803 1.393 . S
C800 H789 0.950 . S
C800 C798 1.391 . S
C800 C801 1.400 . S
C801 C795 1.491 . S
C801 C800 1.400 . S
C801 C802 1.398 . S
C802 H790 0.950 . S
C802 C801 1.398 . S
C802 C803 1.391 . S
C803 H791 0.950 . S
C803 C799 1.393 . S
C803 C802 1.391 . S
H804 C812 0.950 . S
H805 C817 0.950 . S
H806 C814 0.950 . S
H807 C816 0.950 . S
H808 C818 0.950 . S
H809 C820 0.950 . S
H810 C822 0.950 . S
H811 C823 0.950 . S
C812 H804 0.950 . S
C812 C813 1.386 . S
C812 C814 1.391 1_565 S
C813 C812 1.386 . S
C813 C817 1.393 . S
C814 H806 0.950 . S
C814 C812 1.391 1_545 S
C814 C815 1.400 . S
C815 C814 1.400 . S
C815 C816 1.398 . S
C815 C821 1.491 . S
C816 H807 0.950 . S
C816 C815 1.398 . S
C816 C817 1.391 1_545 S
C817 H805 0.950 . S
C817 C813 1.393 . S
C817 C816 1.391 1_565 S
C818 H808 0.950 . S
C818 C819 1.386 . S
C818 C820 1.391 . S
C819 C818 1.386 . S
C819 C823 1.393 . S
C820 H809 0.950 . S
C820 C818 1.391 . S
C820 C821 1.400 . S
C821 C815 1.491 . S
C821 C820 1.400 . S
C821 C822 1.398 . S
C822 H810 0.950 . S
C822 C821 1.398 . S
C822 C823 1.391 . S
C823 H811 0.950 . S
C823 C819 1.393 . S
C823 C822 1.391 . S
H824 C832 0.950 . S
H825 C837 0.950 . S
H826 C834 0.950 . S
H827 C836 0.950 . S
H828 C838 0.950 . S
H829 C840 0.950 . S
H830 C842 0.950 . S
H831 C843 0.950 . S
C832 H824 0.950 . S
C832 C833 1.386 . S
C832 C834 1.391 . S
C833 C832 1.386 . S
C833 C837 1.393 . S
C834 H826 0.950 . S
C834 C832 1.391 . S
C834 C835 1.400 . S
C835 C834 1.400 . S
C835 C836 1.398 . S
C835 C841 1.491 . S
C836 H827 0.950 . S
C836 C835 1.398 . S
C836 C837 1.391 . S
C837 H825 0.950 . S
C837 C833 1.393 . S
C837 C836 1.391 . S
C838 H828 0.950 . S
C838 C839 1.386 . S
C838 C840 1.391 . S
C839 C838 1.386 . S
C839 C843 1.393 . S
C840 H829 0.950 . S
C840 C838 1.391 . S
C840 C841 1.400 . S
C841 C835 1.491 . S
C841 C840 1.400 . S
C841 C842 1.398 . S
C842 H830 0.950 . S
C842 C841 1.398 . S
C842 C843 1.391 . S
C843 H831 0.950 . S
C843 C839 1.393 . S
C843 C842 1.391 . S
H844 C852 0.950 . S
H845 C857 0.950 . S
H846 C854 0.950 . S
H847 C856 0.950 . S
H848 C858 0.950 . S
H849 C860 0.950 . S
H850 C862 0.950 . S
H851 C863 0.950 . S
C852 H844 0.950 . S
C852 C853 1.386 . S
C852 C854 1.391 . S
C853 C852 1.386 . S
C853 C857 1.393 . S
C854 H846 0.950 . S
C854 C852 1.391 . S
C854 C855 1.400 . S
C855 C854 1.400 . S
C855 C856 1.398 . S
C855 C861 1.491 . S
C856 H847 0.950 . S
C856 C855 1.398 . S
C856 C857 1.391 . S
C857 H845 0.950 . S
C857 C853 1.393 . S
C857 C856 1.391 . S
C858 H848 0.950 . S
C858 C859 1.386 . S
C858 C860 1.391 . S
C859 C858 1.386 . S
C859 C863 1.393 . S
C860 H849 0.950 . S
C860 C858 1.391 . S
C860 C861 1.400 . S
C861 C855 1.491 . S
C861 C860 1.400 . S
C861 C862 1.398 . S
C862 H850 0.950 . S
C862 C861 1.398 . S
C862 C863 1.391 . S
C863 H851 0.950 . S
C863 C859 1.393 . S
C863 C862 1.391 . S
H864 C872 0.950 . S
H865 C877 0.950 . S
H866 C874 0.950 . S
H867 C876 0.950 . S
H868 C878 0.950 . S
H869 C880 0.950 . S
H870 C882 0.950 . S
H871 C883 0.950 . S
C872 H864 0.950 . S
C872 C873 1.386 . S
C872 C874 1.391 . S
C873 C872 1.386 . S
C873 C877 1.393 . S
C874 H866 0.950 . S
C874 C872 1.391 . S
C874 C875 1.400 . S
C875 C874 1.400 . S
C875 C876 1.398 . S
C875 C881 1.491 . S
C876 H867 0.950 . S
C876 C875 1.398 . S
C876 C877 1.391 . S
C877 H865 0.950 . S
C877 C873 1.393 . S
C877 C876 1.391 . S
C878 H868 0.950 . S
C878 C879 1.386 . S
C878 C880 1.391 . S
C879 C878 1.386 . S
C879 C883 1.393 . S
C880 H869 0.950 . S
C880 C878 1.391 . S
C880 C881 1.400 . S
C881 C875 1.491 . S
C881 C880 1.400 . S
C881 C882 1.398 . S
C882 H870 0.950 . S
C882 C881 1.398 . S
C882 C883 1.391 . S
C883 H871 0.950 . S
C883 C879 1.393 . S
C883 C882 1.391 . S
H884 C892 0.950 . S
H885 C897 0.950 . S
H886 C894 0.950 . S
H887 C896 0.950 . S
H888 C898 0.950 . S
H889 C900 0.950 . S
H890 C902 0.950 . S
H891 C903 0.950 . S
C892 H884 0.950 . S
C892 C893 1.386 . S
C892 C894 1.391 . S
C893 C892 1.386 . S
C893 C897 1.393 . S
C894 H886 0.950 . S
C894 C892 1.391 . S
C894 C895 1.400 . S
C895 C894 1.400 . S
C895 C896 1.398 . S
C895 C901 1.491 . S
C896 H887 0.950 . S
C896 C895 1.398 . S
C896 C897 1.391 . S
C897 H885 0.950 . S
C897 C893 1.393 . S
C897 C896 1.391 . S
C898 H888 0.950 . S
C898 C899 1.386 . S
C898 C900 1.391 . S
C899 C898 1.386 . S
C899 C903 1.393 . S
C900 H889 0.950 . S
C900 C898 1.391 . S
C900 C901 1.400 . S
C901 C895 1.491 . S
C901 C900 1.400 . S
C901 C902 1.398 . S
C902 H890 0.950 . S
C902 C901 1.398 . S
C902 C903 1.391 . S
C903 H891 0.950 . S
C903 C899 1.393 . S
C903 C902 1.391 . S
H904 C912 0.950 . S
H905 C917 0.950 . S
H906 C914 0.965 . S
H907 C916 0.950 . S
H908 C918 0.950 1_655 S
H909 C920 0.950 1_655 S
H910 C922 0.950 . S
H911 C923 0.950 . S
C912 H904 0.950 . S
C912 C913 1.386 . S
C912 C914 1.373 1_554 S
C913 C912 1.386 . S
C913 C917 1.393 1_455 S
C914 H906 0.965 . S
C914 C912 1.373 1_556 S
C914 C915 1.404 . S
C915 C914 1.404 . S
C915 C916 1.398 1_456 S
C915 C921 1.491 . S
C916 H907 0.950 . S
C916 C915 1.398 1_654 S
C916 C917 1.391 . S
C917 H905 0.950 . S
C917 C913 1.393 1_655 S
C917 C916 1.391 . S
C918 H908 0.950 1_455 S
C918 C919 1.386 . S
C918 C920 1.391 . S
C919 C918 1.386 . S
C919 C923 1.393 . S
C920 H909 0.950 1_455 S
C920 C918 1.391 . S
C920 C921 1.400 . S
C921 C915 1.491 . S
C921 C920 1.400 . S
C921 C922 1.398 . S
C922 H910 0.950 . S
C922 C921 1.398 . S
C922 C923 1.391 . S
C923 H911 0.950 . S
C923 C919 1.393 . S
C923 C922 1.391 . S
H924 C932 0.950 . S
H925 C937 0.950 . S
H926 C934 0.950 . S
H927 C936 0.950 . S
H928 C938 0.950 . S
H929 C940 0.950 . S
H930 C942 0.950 . S
H931 C943 0.950 . S
C932 H924 0.950 . S
C932 C933 1.386 . S
C932 C934 1.391 . S
C933 C932 1.386 . S
C933 C937 1.393 . S
C934 H926 0.950 . S
C934 C932 1.391 . S
C934 C935 1.400 . S
C935 C934 1.400 . S
C935 C936 1.398 . S
C935 C941 1.491 . S
C936 H927 0.950 . S
C936 C935 1.398 . S
C936 C937 1.391 . S
C937 H925 0.950 . S
C937 C933 1.393 . S
C937 C936 1.391 . S
C938 H928 0.950 . S
C938 C939 1.386 . S
C938 C940 1.391 . S
C939 C938 1.386 . S
C939 C943 1.393 . S
C940 H929 0.950 . S
C940 C938 1.391 . S
C940 C941 1.400 . S
C941 C935 1.491 . S
C941 C940 1.400 . S
C941 C942 1.398 . S
C942 H930 0.950 . S
C942 C941 1.398 . S
C942 C943 1.391 . S
C943 H931 0.950 . S
C943 C939 1.393 . S
C943 C942 1.391 . S
H944 C952 0.955 . S
H945 C957 0.950 . S
H946 C954 0.950 . S
H947 C956 0.950 . S
H948 C958 0.950 . S
H949 C960 0.950 . S
H950 C962 0.950 . S
H951 C963 0.950 . S
C952 H944 0.955 . S
C952 C953 1.386 1_554 S
C952 C954 1.391 . S
C953 C952 1.386 1_556 S
C953 C957 1.393 . S
C954 H946 0.950 . S
C954 C952 1.391 . S
C954 C955 1.400 . S
C955 C954 1.400 . S
C955 C956 1.398 . S
C955 C961 1.491 . S
C956 H947 0.950 . S
C956 C955 1.398 . S
C956 C957 1.391 1_554 S
C957 H945 0.950 . S
C957 C953 1.393 . S
C957 C956 1.391 1_556 S
C958 H948 0.950 . S
C958 C959 1.386 . S
C958 C960 1.391 . S
C959 C958 1.386 . S
C959 C963 1.393 . S
C960 H949 0.950 . S
C960 C958 1.391 . S
C960 C961 1.400 . S
C961 C955 1.491 . S
C961 C960 1.400 . S
C961 C962 1.398 . S
C962 H950 0.950 . S
C962 C961 1.398 . S
C962 C963 1.391 . S
C963 H951 0.950 . S
C963 C959 1.393 . S
C963 C962 1.391 . S
H964 C972 0.950 . S
H965 C977 0.950 . S
H966 C974 0.950 . S
H967 C976 0.950 . S
H968 C978 0.950 . S
H969 C980 0.950 . S
H970 C982 0.950 . S
H971 C983 0.950 . S
C972 H964 0.950 . S
C972 C973 1.386 . S
C972 C974 1.391 . S
C973 C972 1.386 . S
C973 C977 1.393 . S
C974 H966 0.950 . S
C974 C972 1.391 . S
C974 C975 1.400 . S
C975 C974 1.400 . S
C975 C976 1.398 . S
C975 C981 1.491 . S
C976 H967 0.950 . S
C976 C975 1.398 . S
C976 C977 1.391 . S
C977 H965 0.950 . S
C977 C973 1.393 . S
C977 C976 1.391 . S
C978 H968 0.950 . S
C978 C979 1.386 . S
C978 C980 1.391 . S
C979 C978 1.386 . S
C979 C983 1.393 . S
C980 H969 0.950 . S
C980 C978 1.391 . S
C980 C981 1.400 . S
C981 C975 1.491 . S
C981 C980 1.400 . S
C981 C982 1.398 . S
C982 H970 0.950 . S
C982 C981 1.398 . S
C982 C983 1.391 . S
C983 H971 0.950 . S
C983 C979 1.393 . S
C983 C982 1.391 . S
H984 C992 0.950 . S
H985 C997 0.950 . S
H986 C994 0.950 . S
H987 C996 0.950 . S
H988 C998 0.950 . S
H989 C1000 0.950 . S
H990 C1002 0.950 . S
H991 C1003 0.950 . S
C992 H984 0.950 . S
C992 C993 1.386 . S
C992 C994 1.391 . S
C993 C992 1.386 . S
C993 C997 1.393 1_455 S
C994 H986 0.950 . S
C994 C992 1.391 . S
C994 C995 1.400 . S
C995 C994 1.400 . S
C995 C996 1.398 1_455 S
C995 C1001 1.491 . S
C996 H987 0.950 . S
C996 C995 1.398 1_655 S
C996 C997 1.391 . S
C997 H985 0.950 . S
C997 C993 1.393 1_655 S
C997 C996 1.391 . S
C998 H988 0.950 . S
C998 C999 1.386 1_655 S
C998 C1000 1.391 . S
C999 C998 1.386 1_455 S
C999 C1003 1.393 . S
C1000 H989 0.950 . S
C1000 C998 1.391 . S
C1000 C1001 1.400 1_655 S
C1001 C995 1.491 . S
C1001 C1000 1.400 1_455 S
C1001 C1002 1.398 . S
C1002 H990 0.950 . S
C1002 C1001 1.398 . S
C1002 C1003 1.391 . S
C1003 H991 0.950 . S
C1003 C999 1.393 . S
C1003 C1002 1.391 . S
H1004 C1012 0.950 . S
H1005 C1017 0.950 . S
H1006 C1014 0.950 . S
H1007 C1016 0.950 . S
H1008 C1018 0.950 . S
H1009 C1020 0.950 . S
H1010 C1022 0.950 . S
H1011 C1023 0.950 . S
C1012 H1004 0.950 . S
C1012 C1013 1.386 . S
C1012 C1014 1.391 . S
C1013 C1012 1.386 . S
C1013 C1017 1.393 . S
C1014 H1006 0.950 . S
C1014 C1012 1.391 . S
C1014 C1015 1.400 . S
C1015 C1014 1.400 . S
C1015 C1016 1.398 . S
C1015 C1021 1.491 . S
C1016 H1007 0.950 . S
C1016 C1015 1.398 . S
C1016 C1017 1.391 . S
C1017 H1005 0.950 . S
C1017 C1013 1.393 . S
C1017 C1016 1.391 . S
C1018 H1008 0.950 . S
C1018 C1019 1.386 . S
C1018 C1020 1.391 . S
C1019 C1018 1.386 . S
C1019 C1023 1.393 . S
C1020 H1009 0.950 . S
C1020 C1018 1.391 . S
C1020 C1021 1.400 . S
C1021 C1015 1.491 . S
C1021 C1020 1.400 . S
C1021 C1022 1.398 . S
C1022 H1010 0.950 . S
C1022 C1021 1.398 . S
C1022 C1023 1.391 . S
C1023 H1011 0.950 . S
C1023 C1019 1.393 . S
C1023 C1022 1.391 . S
H1024 C1032 0.950 . S
H1025 C1037 0.950 . S
H1026 C1034 0.950 . S
H1027 C1036 0.950 . S
H1028 C1038 0.950 . S
H1029 C1040 0.950 . S
H1030 C1042 0.950 . S
H1031 C1043 0.950 . S
C1032 H1024 0.950 . S
C1032 C1033 1.386 . S
C1032 C1034 1.391 . S
C1033 C1032 1.386 . S
C1033 C1037 1.393 . S
C1034 H1026 0.950 . S
C1034 C1032 1.391 . S
C1034 C1035 1.400 . S
C1035 C1034 1.400 . S
C1035 C1036 1.398 . S
C1035 C1041 1.491 . S
C1036 H1027 0.950 . S
C1036 C1035 1.398 . S
C1036 C1037 1.391 . S
C1037 H1025 0.950 . S
C1037 C1033 1.393 . S
C1037 C1036 1.391 . S
C1038 H1028 0.950 . S
C1038 C1039 1.386 . S
C1038 C1040 1.391 . S
C1039 C1038 1.386 . S
C1039 C1043 1.393 . S
C1040 H1029 0.950 . S
C1040 C1038 1.391 . S
C1040 C1041 1.400 . S
C1041 C1035 1.491 . S
C1041 C1040 1.400 . S
C1041 C1042 1.398 . S
C1042 H1030 0.950 . S
C1042 C1041 1.398 . S
C1042 C1043 1.391 . S
C1043 H1031 0.950 . S
C1043 C1039 1.393 . S
C1043 C1042 1.391 . S
H1044 C1052 0.950 . S
H1045 C1057 0.950 . S
H1046 C1054 0.950 . S
H1047 C1056 0.950 . S
H1048 C1058 0.950 . S
H1049 C1060 0.950 . S
H1050 C1062 0.950 . S
H1051 C1063 0.950 . S
C1052 H1044 0.950 . S
C1052 C1053 1.386 . S
C1052 C1054 1.391 . S
C1053 C1052 1.386 . S
C1053 C1057 1.393 . S
C1054 H1046 0.950 . S
C1054 C1052 1.391 . S
C1054 C1055 1.400 . S
C1055 C1054 1.400 . S
C1055 C1056 1.398 . S
C1055 C1061 1.491 . S
C1056 H1047 0.950 . S
C1056 C1055 1.398 . S
C1056 C1057 1.391 . S
C1057 H1045 0.950 . S
C1057 C1053 1.393 . S
C1057 C1056 1.391 . S
C1058 H1048 0.950 . S
C1058 C1059 1.386 . S
C1058 C1060 1.391 . S
C1059 C1058 1.386 . S
C1059 C1063 1.393 . S
C1060 H1049 0.950 . S
C1060 C1058 1.391 . S
C1060 C1061 1.400 . S
C1061 C1055 1.491 . S
C1061 C1060 1.400 . S
C1061 C1062 1.398 . S
C1062 H1050 0.950 . S
C1062 C1061 1.398 . S
C1062 C1063 1.391 . S
C1063 H1051 0.950 . S
C1063 C1059 1.393 . S
C1063 C1062 1.391 . S
H1064 C1072 0.950 . S
H1065 C1077 0.953 . S
H1066 C1074 0.950 . S
H1067 C1076 0.950 . S
H1068 C1078 0.950 . S
H1069 C1080 0.950 . S
H1070 C1082 0.950 . S
H1071 C1083 0.950 . S
C1072 H1064 0.950 . S
C1072 C1073 1.386 . S
C1072 C1074 1.391 1_655 S
C1073 C1072 1.386 . S
C1073 C1077 1.393 1_655 S
C1074 H1066 0.950 . S
C1074 C1072 1.391 1_455 S
C1074 C1075 1.400 . S
C1075 C1074 1.400 . S
C1075 C1076 1.398 . S
C1075 C1081 1.491 . S
C1076 H1067 0.950 . S
C1076 C1075 1.398 . S
C1076 C1077 1.391 . S
C1077 H1065 0.953 . S
C1077 C1073 1.393 1_455 S
C1077 C1076 1.391 . S
C1078 H1068 0.950 . S
C1078 C1079 1.386 . S
C1078 C1080 1.391 . S
C1079 C1078 1.386 . S
C1079 C1083 1.393 . S
C1080 H1069 0.950 . S
C1080 C1078 1.391 . S
C1080 C1081 1.400 . S
C1081 C1075 1.491 . S
C1081 C1080 1.400 . S
C1081 C1082 1.398 . S
C1082 H1070 0.950 . S
C1082 C1081 1.398 . S
C1082 C1083 1.391 . S
C1083 H1071 0.950 . S
C1083 C1079 1.393 . S
C1083 C1082 1.391 . S
H1084 C1092 0.950 . S
H1085 C1097 0.950 . S
H1086 C1094 0.950 . S
H1087 C1096 0.950 . S
H1088 C1098 0.950 . S
H1089 C1100 0.950 . S
H1090 C1102 0.950 . S
H1091 C1103 0.950 . S
C1092 H1084 0.950 . S
C1092 C1093 1.386 . S
C1092 C1094 1.391 . S
C1093 C1092 1.386 . S
C1093 C1097 1.393 . S
C1094 H1086 0.950 . S
C1094 C1092 1.391 . S
C1094 C1095 1.400 . S
C1095 C1094 1.400 . S
C1095 C1096 1.398 . S
C1095 C1101 1.491 . S
C1096 H1087 0.950 . S
C1096 C1095 1.398 . S
C1096 C1097 1.391 . S
C1097 H1085 0.950 . S
C1097 C1093 1.393 . S
C1097 C1096 1.391 . S
C1098 H1088 0.950 . S
C1098 C1099 1.386 . S
C1098 C1100 1.391 . S
C1099 C1098 1.386 . S
C1099 C1103 1.393 . S
C1100 H1089 0.950 . S
C1100 C1098 1.391 . S
C1100 C1101 1.400 . S
C1101 C1095 1.491 . S
C1101 C1100 1.400 . S
C1101 C1102 1.398 . S
C1102 H1090 0.950 . S
C1102 C1101 1.398 . S
C1102 C1103 1.391 . S
C1103 H1091 0.950 . S
C1103 C1099 1.393 . S
C1103 C1102 1.391 . S
H1104 C1112 0.950 . S
H1105 C1117 0.950 . S
H1106 C1114 0.950 . S
H1107 C1116 0.950 . S
H1108 C1118 0.950 . S
H1109 C1120 0.950 . S
H1110 C1122 0.950 . S
H1111 C1123 0.950 . S
C1112 H1104 0.950 . S
C1112 C1113 1.386 . S
C1112 C1114 1.391 . S
C1113 C1112 1.386 . S
C1113 C1117 1.393 . S
C1114 H1106 0.950 . S
C1114 C1112 1.391 . S
C1114 C1115 1.400 . S
C1115 C1114 1.400 . S
C1115 C1116 1.398 . S
C1115 C1121 1.491 . S
C1116 H1107 0.950 . S
C1116 C1115 1.398 . S
C1116 C1117 1.391 . S
C1117 H1105 0.950 . S
C1117 C1113 1.393 . S
C1117 C1116 1.391 . S
C1118 H1108 0.950 . S
C1118 C1119 1.386 . S
C1118 C1120 1.391 . S
C1119 C1118 1.386 . S
C1119 C1123 1.393 . S
C1120 H1109 0.950 . S
C1120 C1118 1.391 . S
C1120 C1121 1.400 . S
C1121 C1115 1.491 . S
C1121 C1120 1.400 . S
C1121 C1122 1.398 . S
C1122 H1110 0.950 . S
C1122 C1121 1.398 . S
C1122 C1123 1.391 . S
C1123 H1111 0.950 . S
C1123 C1119 1.393 . S
C1123 C1122 1.391 . S
H1124 C1132 0.950 . S
H1125 C1137 0.950 . S
H1126 C1134 0.950 . S
H1127 C1136 0.950 . S
H1128 C1138 0.950 . S
H1129 C1140 0.950 . S
H1130 C1142 0.950 . S
H1131 C1143 0.950 . S
C1132 H1124 0.950 . S
C1132 C1133 1.386 . S
C1132 C1134 1.391 . S
C1133 C1132 1.386 . S
C1133 C1137 1.393 . S
C1134 H1126 0.950 . S
C1134 C1132 1.391 . S
C1134 C1135 1.400 . S
C1135 C1134 1.400 . S
C1135 C1136 1.398 . S
C1135 C1141 1.491 . S
C1136 H1127 0.950 . S
C1136 C1135 1.398 . S
C1136 C1137 1.391 . S
C1137 H1125 0.950 . S
C1137 C1133 1.393 . S
C1137 C1136 1.391 . S
C1138 H1128 0.950 . S
C1138 C1139 1.386 . S
C1138 C1140 1.391 . S
C1139 C1138 1.386 . S
C1139 C1143 1.393 . S
C1140 H1129 0.950 . S
C1140 C1138 1.391 . S
C1140 C1141 1.400 . S
C1141 C1135 1.491 . S
C1141 C1140 1.400 . S
C1141 C1142 1.398 . S
C1142 H1130 0.950 . S
C1142 C1141 1.398 . S
C1142 C1143 1.391 . S
C1143 H1131 0.950 . S
C1143 C1139 1.393 . S
C1143 C1142 1.391 . S
H1144 C1152 0.950 . S
H1145 C1157 0.950 1_655 S
H1146 C1154 0.950 . S
H1147 C1156 0.950 . S
H1148 C1158 0.950 . S
H1149 C1160 0.950 . S
H1150 C1162 0.950 . S
H1151 C1163 0.950 . S
C1152 H1144 0.950 . S
C1152 C1153 1.386 . S
C1152 C1154 1.391 1_655 S
C1153 C1152 1.386 . S
C1153 C1157 1.393 1_655 S
C1154 H1146 0.950 . S
C1154 C1152 1.391 1_455 S
C1154 C1155 1.400 . S
C1155 C1154 1.400 . S
C1155 C1156 1.398 . S
C1155 C1161 1.491 . S
C1156 H1147 0.950 . S
C1156 C1155 1.398 . S
C1156 C1157 1.391 . S
C1157 H1145 0.950 1_455 S
C1157 C1153 1.393 1_455 S
C1157 C1156 1.391 . S
C1158 H1148 0.950 . S
C1158 C1159 1.386 . S
C1158 C1160 1.391 . S
C1159 C1158 1.386 . S
C1159 C1163 1.393 . S
C1160 H1149 0.950 . S
C1160 C1158 1.391 . S
C1160 C1161 1.400 . S
C1161 C1155 1.491 . S
C1161 C1160 1.400 . S
C1161 C1162 1.398 . S
C1162 H1150 0.950 . S
C1162 C1161 1.398 . S
C1162 C1163 1.391 . S
C1163 H1151 0.950 . S
C1163 C1159 1.393 . S
C1163 C1162 1.391 . S
H1164 C1172 0.950 . S
H1165 C1177 0.950 . S
H1166 C1174 0.950 . S
H1167 C1176 0.950 . S
H1168 C1178 0.950 . S
H1169 C1180 0.950 . S
H1170 C1182 0.950 . S
H1171 C1183 0.950 . S
C1172 H1164 0.950 . S
C1172 C1173 1.386 . S
C1172 C1174 1.391 . S
C1173 C1172 1.386 . S
C1173 C1177 1.393 . S
C1174 H1166 0.950 . S
C1174 C1172 1.391 . S
C1174 C1175 1.400 . S
C1175 C1174 1.400 . S
C1175 C1176 1.398 . S
C1175 C1181 1.491 . S
C1176 H1167 0.950 . S
C1176 C1175 1.398 . S
C1176 C1177 1.391 . S
C1177 H1165 0.950 . S
C1177 C1173 1.393 . S
C1177 C1176 1.391 . S
C1178 H1168 0.950 . S
C1178 C1179 1.386 . S
C1178 C1180 1.391 . S
C1179 C1178 1.386 . S
C1179 C1183 1.393 . S
C1180 H1169 0.950 . S
C1180 C1178 1.391 . S
C1180 C1181 1.400 . S
C1181 C1175 1.491 . S
C1181 C1180 1.400 . S
C1181 C1182 1.398 . S
C1182 H1170 0.950 . S
C1182 C1181 1.398 . S
C1182 C1183 1.391 . S
C1183 H1171 0.950 . S
C1183 C1179 1.393 . S
C1183 C1182 1.391 . S
H1184 C1192 0.950 . S
H1185 C1197 0.950 . S
H1186 C1194 0.950 . S
H1187 C1196 0.950 . S
H1188 C1198 0.950 . S
H1189 C1200 0.950 . S
H1190 C1202 0.950 . S
H1191 C1203 0.950 . S
C1192 H1184 0.950 . S
C1192 C1193 1.386 . S
C1192 C1194 1.391 . S
C1193 C1192 1.386 . S
C1193 C1197 1.393 . S
C1194 H1186 0.950 . S
C1194 C1192 1.391 . S
C1194 C1195 1.400 . S
C1195 C1194 1.400 . S
C1195 C1196 1.398 . S
C1195 C1201 1.491 . S
C1196 H1187 0.950 . S
C1196 C1195 1.398 . S
C1196 C1197 1.391 . S
C1197 H1185 0.950 . S
C1197 C1193 1.393 . S
C1197 C1196 1.391 . S
C1198 H1188 0.950 . S
C1198 C1199 1.386 . S
C1198 C1200 1.391 . S
C1199 C1198 1.386 . S
C1199 C1203 1.393 . S
C1200 H1189 0.950 . S
C1200 C1198 1.391 . S
C1200 C1201 1.400 . S
C1201 C1195 1.491 . S
C1201 C1200 1.400 . S
C1201 C1202 1.398 . S
C1202 H1190 0.950 . S
C1202 C1201 1.398 . S
C1202 C1203 1.391 . S
C1203 H1191 0.950 . S
C1203 C1199 1.393 . S
C1203 C1202 1.391 . S
H1204 C1212 0.950 . S
H1205 C1217 0.950 . S
H1206 C1214 0.950 . S
H1207 C1216 0.950 . S
H1208 C1218 0.950 . S
H1209 C1220 0.950 . S
H1210 C1222 0.950 . S
H1211 C1223 0.950 . S
C1212 H1204 0.950 . S
C1212 C1213 1.386 . S
C1212 C1214 1.391 1_565 S
C1213 C1212 1.386 . S
C1213 C1217 1.393 . S
C1214 H1206 0.950 . S
C1214 C1212 1.391 1_545 S
C1214 C1215 1.400 . S
C1215 C1214 1.400 . S
C1215 C1216 1.398 . S
C1215 C1221 1.491 . S
C1216 H1207 0.950 . S
C1216 C1215 1.398 . S
C1216 C1217 1.391 1_545 S
C1217 H1205 0.950 . S
C1217 C1213 1.393 . S
C1217 C1216 1.391 1_565 S
C1218 H1208 0.950 . S
C1218 C1219 1.386 . S
C1218 C1220 1.391 . S
C1219 C1218 1.386 . S
C1219 C1223 1.393 . S
C1220 H1209 0.950 . S
C1220 C1218 1.391 . S
C1220 C1221 1.400 . S
C1221 C1215 1.491 . S
C1221 C1220 1.400 . S
C1221 C1222 1.398 . S
C1222 H1210 0.950 . S
C1222 C1221 1.398 . S
C1222 C1223 1.391 . S
C1223 H1211 0.950 . S
C1223 C1219 1.393 . S
C1223 C1222 1.391 . S
H1224 C1232 0.950 . S
H1225 C1237 0.950 . S
H1226 C1234 0.950 . S
H1227 C1236 0.950 . S
H1228 C1238 0.950 . S
H1229 C1240 0.950 . S
H1230 C1242 0.950 . S
H1231 C1243 0.950 . S
C1232 H1224 0.950 . S
C1232 C1233 1.386 . S
C1232 C1234 1.391 . S
C1233 C1232 1.386 . S
C1233 C1237 1.393 . S
C1234 H1226 0.950 . S
C1234 C1232 1.391 . S
C1234 C1235 1.400 . S
C1235 C1234 1.400 . S
C1235 C1236 1.398 . S
C1235 C1241 1.491 . S
C1236 H1227 0.950 . S
C1236 C1235 1.398 . S
C1236 C1237 1.391 . S
C1237 H1225 0.950 . S
C1237 C1233 1.393 . S
C1237 C1236 1.391 . S
C1238 H1228 0.950 . S
C1238 C1239 1.386 . S
C1238 C1240 1.391 . S
C1239 C1238 1.386 . S
C1239 C1243 1.393 . S
C1240 H1229 0.950 . S
C1240 C1238 1.391 . S
C1240 C1241 1.400 . S
C1241 C1235 1.491 . S
C1241 C1240 1.400 . S
C1241 C1242 1.398 . S
C1242 H1230 0.950 . S
C1242 C1241 1.398 . S
C1242 C1243 1.391 . S
C1243 H1231 0.950 . S
C1243 C1239 1.393 . S
C1243 C1242 1.391 . S
H1244 C1252 0.950 . S
H1245 C1257 0.950 . S
H1246 C1254 0.950 . S
H1247 C1256 0.950 . S
H1248 C1258 0.950 . S
H1249 C1260 0.950 . S
H1250 C1262 0.950 . S
H1251 C1263 0.950 . S
C1252 H1244 0.950 . S
C1252 C1253 1.386 . S
C1252 C1254 1.391 1_545 S
C1253 C1252 1.386 . S
C1253 C1257 1.393 . S
C1254 H1246 0.950 . S
C1254 C1252 1.391 1_565 S
C1254 C1255 1.400 . S
C1255 C1254 1.400 . S
C1255 C1256 1.398 1_565 S
C1255 C1261 1.491 . S
C1256 H1247 0.950 . S
C1256 C1255 1.398 1_545 S
C1256 C1257 1.391 . S
C1257 H1245 0.950 . S
C1257 C1253 1.393 . S
C1257 C1256 1.391 . S
C1258 H1248 0.950 . S
C1258 C1259 1.386 . S
C1258 C1260 1.391 . S
C1259 C1258 1.386 . S
C1259 C1263 1.393 . S
C1260 H1249 0.950 . S
C1260 C1258 1.391 . S
C1260 C1261 1.400 . S
C1261 C1255 1.491 . S
C1261 C1260 1.400 . S
C1261 C1262 1.398 . S
C1262 H1250 0.950 . S
C1262 C1261 1.398 . S
C1262 C1263 1.391 . S
C1263 H1251 0.950 . S
C1263 C1259 1.393 . S
C1263 C1262 1.391 . S
H1264 C1272 0.950 . S
H1265 C1277 0.950 . S
H1266 C1274 0.950 . S
H1267 C1276 0.950 . S
H1268 C1278 0.950 . S
H1269 C1280 0.950 . S
H1270 C1282 0.950 . S
H1271 C1283 0.950 . S
C1272 H1264 0.950 . S
C1272 C1273 1.386 . S
C1272 C1274 1.391 . S
C1273 C1272 1.386 . S
C1273 C1277 1.393 . S
C1274 H1266 0.950 . S
C1274 C1272 1.391 . S
C1274 C1275 1.400 . S
C1275 C1274 1.400 . S
C1275 C1276 1.398 . S
C1275 C1281 1.491 . S
C1276 H1267 0.950 . S
C1276 C1275 1.398 . S
C1276 C1277 1.391 . S
C1277 H1265 0.950 . S
C1277 C1273 1.393 . S
C1277 C1276 1.391 . S
C1278 H1268 0.950 . S
C1278 C1279 1.386 . S
C1278 C1280 1.391 . S
C1279 C1278 1.386 . S
C1279 C1283 1.393 . S
C1280 H1269 0.950 . S
C1280 C1278 1.391 . S
C1280 C1281 1.400 . S
C1281 C1275 1.491 . S
C1281 C1280 1.400 . S
C1281 C1282 1.398 . S
C1282 H1270 0.950 . S
C1282 C1281 1.398 . S
C1282 C1283 1.391 . S
C1283 H1271 0.950 . S
C1283 C1279 1.393 . S
C1283 C1282 1.391 . S
H1284 C1292 0.950 . S
H1285 C1297 0.950 . S
H1286 C1294 0.950 . S
H1287 C1296 0.950 . S
H1288 C1298 0.950 . S
H1289 C1300 0.950 . S
H1290 C1302 0.950 . S
H1291 C1303 0.950 . S
C1292 H1284 0.950 . S
C1292 C1293 1.386 1_556 S
C1292 C1294 1.391 . S
C1293 C1292 1.386 1_554 S
C1293 C1297 1.393 . S
C1294 H1286 0.950 . S
C1294 C1292 1.391 . S
C1294 C1295 1.400 1_556 S
C1295 C1294 1.400 1_554 S
C1295 C1296 1.398 . S
C1295 C1301 1.491 . S
C1296 H1287 0.950 . S
C1296 C1295 1.398 . S
C1296 C1297 1.391 . S
C1297 H1285 0.950 . S
C1297 C1293 1.393 . S
C1297 C1296 1.391 . S
C1298 H1288 0.950 . S
C1298 C1299 1.383 1_554 S
C1298 C1300 1.391 . S
C1299 C1298 1.383 1_556 S
C1299 C1303 1.395 . S
C1300 H1289 0.950 . S
C1300 C1298 1.391 . S
C1300 C1301 1.400 . S
C1301 C1295 1.491 . S
C1301 C1300 1.400 . S
C1301 C1302 1.398 1_554 S
C1302 H1290 0.950 . S
C1302 C1301 1.398 1_556 S
C1302 C1303 1.391 . S
C1303 H1291 0.950 . S
C1303 C1299 1.395 . S
C1303 C1302 1.391 . S
H1304 C1312 0.950 . S
H1305 C1317 0.950 . S
H1306 C1314 0.950 . S
H1307 C1316 0.950 . S
H1308 C1318 0.950 . S
H1309 C1320 0.950 . S
H1310 C1322 0.950 . S
H1311 C1323 0.950 . S
C1312 H1304 0.950 . S
C1312 C1313 1.386 . S
C1312 C1314 1.391 . S
C1313 C1312 1.386 . S
C1313 C1317 1.393 . S
C1314 H1306 0.950 . S
C1314 C1312 1.391 . S
C1314 C1315 1.400 . S
C1315 C1314 1.400 . S
C1315 C1316 1.398 . S
C1315 C1321 1.491 . S
C1316 H1307 0.950 . S
C1316 C1315 1.398 . S
C1316 C1317 1.391 . S
C1317 H1305 0.950 . S
C1317 C1313 1.393 . S
C1317 C1316 1.391 . S
C1318 H1308 0.950 . S
C1318 C1319 1.386 . S
C1318 C1320 1.391 . S
C1319 C1318 1.386 . S
C1319 C1323 1.393 . S
C1320 H1309 0.950 . S
C1320 C1318 1.391 . S
C1320 C1321 1.400 . S
C1321 C1315 1.491 . S
C1321 C1320 1.400 . S
C1321 C1322 1.398 . S
C1322 H1310 0.950 . S
C1322 C1321 1.398 . S
C1322 C1323 1.391 . S
C1323 H1311 0.950 . S
C1323 C1319 1.393 . S
C1323 C1322 1.391 . S
H1324 C1332 0.950 . S
H1325 C1337 0.950 . S
H1326 C1334 0.950 . S
H1327 C1336 0.950 . S
H1328 C1338 0.950 . S
H1329 C1340 0.950 . S
H1330 C1342 0.950 . S
H1331 C1343 0.950 . S
C1332 H1324 0.950 . S
C1332 C1333 1.386 . S
C1332 C1334 1.391 . S
C1333 C1332 1.386 . S
C1333 C1337 1.393 . S
C1334 H1326 0.950 . S
C1334 C1332 1.391 . S
C1334 C1335 1.400 . S
C1335 C1334 1.400 . S
C1335 C1336 1.398 . S
C1335 C1341 1.491 . S
C1336 H1327 0.950 . S
C1336 C1335 1.398 . S
C1336 C1337 1.391 . S
C1337 H1325 0.950 . S
C1337 C1333 1.393 . S
C1337 C1336 1.391 . S
C1338 H1328 0.950 . S
C1338 C1339 1.386 . S
C1338 C1340 1.391 . S
C1339 C1338 1.386 . S
C1339 C1343 1.393 . S
C1340 H1329 0.950 . S
C1340 C1338 1.391 . S
C1340 C1341 1.400 . S
C1341 C1335 1.491 . S
C1341 C1340 1.400 . S
C1341 C1342 1.398 . S
C1342 H1330 0.950 . S
C1342 C1341 1.398 . S
C1342 C1343 1.391 . S
C1343 H1331 0.950 . S
C1343 C1339 1.393 . S
C1343 C1342 1.391 . S
C399 C373 1.056 . S
C393 C11 1.140 . S
C413 C19 1.370 . S
C419 C326 1.306 . S
C433 C37 1.179 . S
C439 C337 1.007 . S
C459 C362 1.230 . S
C453 C42 1.297 . S
C473 C25 1.121 . S
C479 C380 1.025 . S
C499 C319 1.212 . S
C493 C28 1.283 . S
C519 C344 0.991 . S
C513 C51 1.187 . S
C539 C355 1.303 . S
C533 C5 1.351 . S
C553 C61 1.126 . S
C559 C356 1.014 . S
C579 C382 1.281 . S
C573 C81 1.340 . S
C599 C320 1.031 1_545 S
C593 C89 1.211 . S
C619 C346 1.229 . S
C613 C107 1.264 . S
C633 C56 1.112 . S
C639 C328 1.004 1_545 S
C653 C79 1.298 . S
C659 C338 1.248 . S
C673 C84 1.152 . S
C679 C364 1.073 1_565 S
C699 C374 1.317 . S
C693 C109 1.363 . S
C719 C211 1.142 1_556 S
C713 C103 1.236 . S
C739 C194 1.046 . S
C733 C117 1.200 . S
C759 C220 1.259 . S
C753 C137 1.317 . S
C779 C238 0.965 . S
C773 C140 1.111 . S
C793 C67 1.270 . S
C799 C212 1.212 . S
C813 C70 1.148 . S
C819 C182 1.038 . S
C833 C135 1.343 . S
C839 C236 1.292 . S
C853 C163 1.304 . S
C859 C193 1.278 . S
C879 C247 1.024 . S
C873 C39 1.108 . S
C899 C272 1.307 . S
C893 C47 1.359 . S
C913 C9 1.177 . S
C919 C283 1.001 . S
C933 C14 1.306 . S
C939 C308 1.254 . S
C959 C254 1.012 . S
C953 C53 1.148 . S
C979 C265 1.235 . S
C973 C0 1.280 . S
C993 C23 1.200 . S
C999 C290 1.044 . S
C1019 C301 1.313 . S
C1013 C33 1.330 . S
C1033 C159 1.124 . S
C1039 C302 1.023 . S
C1053 C123 1.325 . S
C1059 C256 1.268 . S
C1079 C266 1.077 . S
C1073 C131 1.194 . S
C1093 C149 1.269 . S
C1099 C292 1.226 . S
C1119 C274 1.000 . S
C1113 C154 1.109 . S
C1133 C121 1.287 . S
C1139 C284 1.277 . S
C1159 C310 1.078 . S
C1153 C126 1.172 . S
C1179 C248 1.338 . S
C1173 C151 1.375 . S
C1199 C175 1.137 . S
C1193 C145 1.246 . S
C1219 C230 1.053 . S
C1213 C75 1.201 . S
C1233 C95 1.315 . S
C1239 C184 1.249 . S
C1259 C202 0.967 1_554 S
C1253 C98 1.112 . S
C1279 C176 1.226 . S
C1273 C165 1.274 . S
C1293 C112 1.171 . S
C1299 C218 1.017 1_556 S
C1313 C93 1.354 . S
C1319 C200 1.329 . S
C1333 C65 1.298 . S
C1339 C229 1.298 . S
