# Generated by pormake.
# Topology nom, (4,4)-cn, num edge types: 1
# Building blocks:
#     Node 0, Type 0, BuildingBlock: MIFKUJ_clean_linker_1, # of connection points: 4
#     Node 1, Type 0, BuildingBlock: MIFKUJ_clean_linker_1, # of connection points: 4
#     Node 2, Type 0, BuildingBlock: MIFKUJ_clean_linker_1, # of connection points: 4
#     Node 3, Type 0, BuildingBlock: MIFKUJ_clean_linker_1, # of connection points: 4
#     Node 4, Type 0, BuildingBlock: MIFKUJ_clean_linker_1, # of connection points: 4
#     Node 5, Type 0, BuildingBlock: MIFKUJ_clean_linker_1, # of connection points: 4
#     Node 6, Type 1, BuildingBlock: QUQFOY_clean_sbu_1, # of connection points: 4
#     Node 7, Type 1, BuildingBlock: QUQFOY_clean_sbu_1, # of connection points: 4
#     Node 8, Type 1, BuildingBlock: QUQFOY_clean_sbu_1, # of connection points: 4
#     Node 9, Type 1, BuildingBlock: QUQFOY_clean_sbu_1, # of connection points: 4
#     Node 10, Type 1, BuildingBlock: QUQFOY_clean_sbu_1, # of connection points: 4
#     Node 11, Type 1, BuildingBlock: QUQFOY_clean_sbu_1, # of connection points: 4
#     Edge 12, Type (0, 1), BuildingBlock: EYOCIG_clean_linker_4, # of connection points: 2
#     Edge 13, Type (0, 1), BuildingBlock: EYOCIG_clean_linker_4, # of connection points: 2
#     Edge 14, Type (0, 1), BuildingBlock: EYOCIG_clean_linker_4, # of connection points: 2
#     Edge 15, Type (0, 1), BuildingBlock: EYOCIG_clean_linker_4, # of connection points: 2
#     Edge 16, Type (0, 1), BuildingBlock: EYOCIG_clean_linker_4, # of connection points: 2
#     Edge 17, Type (0, 1), BuildingBlock: EYOCIG_clean_linker_4, # of connection points: 2
#     Edge 18, Type (0, 1), BuildingBlock: EYOCIG_clean_linker_4, # of connection points: 2
#     Edge 19, Type (0, 1), BuildingBlock: EYOCIG_clean_linker_4, # of connection points: 2
#     Edge 20, Type (0, 1), BuildingBlock: EYOCIG_clean_linker_4, # of connection points: 2
#     Edge 21, Type (0, 1), BuildingBlock: EYOCIG_clean_linker_4, # of connection points: 2
#     Edge 22, Type (0, 1), BuildingBlock: EYOCIG_clean_linker_4, # of connection points: 2
#     Edge 23, Type (0, 1), BuildingBlock: EYOCIG_clean_linker_4, # of connection points: 2
#     Edge 24, Type (0, 1), BuildingBlock: EYOCIG_clean_linker_4, # of connection points: 2
#     Edge 25, Type (0, 1), BuildingBlock: EYOCIG_clean_linker_4, # of connection points: 2
#     Edge 26, Type (0, 1), BuildingBlock: EYOCIG_clean_linker_4, # of connection points: 2
#     Edge 27, Type (0, 1), BuildingBlock: EYOCIG_clean_linker_4, # of connection points: 2
#     Edge 28, Type (0, 1), BuildingBlock: EYOCIG_clean_linker_4, # of connection points: 2
#     Edge 29, Type (0, 1), BuildingBlock: EYOCIG_clean_linker_4, # of connection points: 2
#     Edge 30, Type (0, 1), BuildingBlock: EYOCIG_clean_linker_4, # of connection points: 2
#     Edge 31, Type (0, 1), BuildingBlock: EYOCIG_clean_linker_4, # of connection points: 2
#     Edge 32, Type (0, 1), BuildingBlock: EYOCIG_clean_linker_4, # of connection points: 2
#     Edge 33, Type (0, 1), BuildingBlock: EYOCIG_clean_linker_4, # of connection points: 2
#     Edge 34, Type (0, 1), BuildingBlock: EYOCIG_clean_linker_4, # of connection points: 2
#     Edge 35, Type (0, 1), BuildingBlock: EYOCIG_clean_linker_4, # of connection points: 2
# Relax obj value: 0.014
# Max RMSD: 0.116
# Mean RMSD: 0.112
data_MOF--net-nom--node1-QUQFOY_clean_sbu_1--node2-MIFKUJ_clean_linker_1--edge1-EYOCIG_clean_linker_4
_symmetry_space_group_name_H-M    P1
_symmetry_Int_Tables_number       1
_symmetry_cell_setting            triclinic
loop_
_symmetry_equiv_pos_as_xyz
'x, y, z'
_cell_length_a     45.741149
_cell_length_b     45.781153
_cell_length_c     45.305216
_cell_angle_alpha  89.997381
_cell_angle_beta   89.995589
_cell_angle_gamma 120.07234
loop_
_atom_site_label
_atom_site_type_symbol
_atom_site_fract_x
_atom_site_fract_y
_atom_site_fract_z
_atom_type_partial_charge
H0 H 0.99143 0.49832 0.25409 0.0
H1 H 0.94701 0.46911 0.21707 0.0
H2 H 0.90041 0.52667 0.24392 0.0
H3 H 0.94522 0.55641 0.28086 0.0
H4 H 0.03776 0.56417 0.26029 0.0
H5 H 0.94222 0.4792 0.31673 0.0
H6 H 0.88382 0.45124 0.3351 0.0
H7 H 0.90258 0.54468 0.37483 0.0
H8 H 0.96086 0.57283 0.35618 0.0
H9 H 0.06504 0.61727 0.38168 0.0
H10 H 0.10733 0.63047 0.42067 0.0
H11 H 0.13903 0.56677 0.37791 0.0
H12 H 0.09664 0.55318 0.33925 0.0
H13 H 1.01183 0.5581 0.36719 0.0
H14 H 0.10864 0.64144 0.31692 0.0
H15 H 0.16682 0.67113 0.29824 0.0
H16 H 0.14633 0.58379 0.24657 0.0
H17 H 0.08818 0.55374 0.26554 0.0
C18 C 0.9715 0.52936 0.27039 0.0
C19 C 0.97177 0.50481 0.25197 0.0
C20 C 0.94641 0.48806 0.23098 0.0
C21 C 0.92049 0.49567 0.22806 0.0
C22 C 0.9202 0.52038 0.24612 0.0
C23 C 0.94566 0.53725 0.26716 0.0
C24 C 0.99831 0.54627 0.29297 0.0
C25 C 0.03214 0.56265 0.2837 0.0
C26 C 0.9909 0.54548 0.32339 0.0
C27 C 0.95575 0.52822 0.33476 0.0
C28 C 0.93374 0.49373 0.32924 0.0
C29 C 0.90056 0.47775 0.33984 0.0
C30 C 0.88913 0.49599 0.35629 0.0
C31 C 0.91111 0.53025 0.36219 0.0
C32 C 0.94427 0.54626 0.35159 0.0
C33 C 0.07797 0.58458 0.35734 0.0
C34 C 0.08121 0.6063 0.38061 0.0
C35 C 0.1053 0.61387 0.40276 0.0
C36 C 0.12621 0.59964 0.40192 0.0
C37 C 0.12318 0.57813 0.37871 0.0
C38 C 0.09914 0.57054 0.35662 0.0
C39 C 0.05135 0.57494 0.33459 0.0
C40 C 0.01756 0.56006 0.34378 0.0
C41 C 0.05879 0.57725 0.30406 0.0
C42 C 0.09407 0.59523 0.29284 0.0
C43 C 0.11668 0.6285 0.30181 0.0
C44 C 0.14978 0.64548 0.29107 0.0
C45 C 0.16065 0.62952 0.27112 0.0
C46 C 0.13825 0.59643 0.26199 0.0
C47 C 0.10512 0.57939 0.27273 0.0
H48 H 0.40759 0.9557 0.52259 0.0
H49 H 0.37797 0.89727 0.54078 0.0
H50 H 0.45362 0.88021 0.50063 0.0
H51 H 0.48353 0.93876 0.48271 0.0
H52 H 0.47319 1.00725 0.53374 0.0
H53 H 0.40838 0.94108 0.4474 0.0
H54 H 0.39338 0.89633 0.41047 0.0
H55 H 0.4976 0.9436 0.38317 0.0
H56 H 0.51275 0.98795 0.4202 0.0
H57 H 0.5542 0.08438 0.43271 0.0
H58 H 0.58263 0.14269 0.41424 0.0
H59 H 0.51517 0.1626 0.46564 0.0
H60 H 0.48636 0.10426 0.48383 0.0
H61 H 0.49306 0.03395 0.42695 0.0
H62 H 0.56276 0.09234 0.50636 0.0
H63 H 0.59121 0.13473 0.54507 0.0
H64 H 0.49531 0.10258 0.58731 0.0
H65 H 0.46657 0.06027 0.54827 0.0
C66 C 0.44753 0.95145 0.50099 0.0
C67 C 0.4179 0.93945 0.51781 0.0
C68 C 0.40103 0.9062 0.52815 0.0
C69 C 0.41372 0.88465 0.52198 0.0
C70 C 0.44352 0.8966 0.50556 0.0
C71 C 0.46042 0.92987 0.49522 0.0
C72 C 0.46506 0.98666 0.48983 0.0
C73 C 0.47695 0.01313 0.51036 0.0
C74 C 0.47162 0.9943 0.45942 0.0
C75 C 0.46174 0.96767 0.43671 0.0
C76 C 0.42801 0.94169 0.43358 0.0
C77 C 0.41946 0.91627 0.41256 0.0
C78 C 0.44451 0.91675 0.3944 0.0
C79 C 0.47802 0.94285 0.39717 0.0
C80 C 0.48659 0.96818 0.41815 0.0
C81 C 0.51827 0.08997 0.45983 0.0
C82 C 0.54542 0.10122 0.43994 0.0
C83 C 0.5617 0.13445 0.4295 0.0
C84 C 0.55095 0.15674 0.4387 0.0
C85 C 0.52384 0.14566 0.45842 0.0
C86 C 0.50753 0.11246 0.46886 0.0
C87 C 0.50088 0.05463 0.47084 0.0
C88 C 0.48894 0.02816 0.45033 0.0
C89 C 0.49569 0.04697 0.50133 0.0
C90 C 0.51247 0.07345 0.52419 0.0
C91 C 0.54772 0.09473 0.52364 0.0
C92 C 0.56397 0.11877 0.54575 0.0
C93 C 0.54524 0.12169 0.56881 0.0
C94 C 0.51007 0.10064 0.56951 0.0
C95 C 0.49374 0.07653 0.54734 0.0
H96 H 0.51275 0.54151 0.7075 0.0
H97 H 0.49741 0.57033 0.74474 0.0
H98 H 0.39311 0.51254 0.71781 0.0
H99 H 0.40832 0.48318 0.68065 0.0
H100 H 0.49339 0.47584 0.70096 0.0
H101 H 0.48274 0.56081 0.64507 0.0
H102 H 0.45235 0.58883 0.62694 0.0
H103 H 0.37749 0.49561 0.58683 0.0
H104 H 0.40757 0.46739 0.60524 0.0
H105 H 0.46724 0.42286 0.57964 0.0
H106 H 0.49625 0.40959 0.54065 0.0
H107 H 0.59196 0.47387 0.58301 0.0
H108 H 0.56324 0.48752 0.62167 0.0
H109 H 0.47328 0.48217 0.59417 0.0
H110 H 0.48705 0.39892 0.64416 0.0
H111 H 0.51584 0.36951 0.66258 0.0
H112 H 0.58296 0.45704 0.71405 0.0
H113 H 0.55454 0.4868 0.69535 0.0
C114 C 0.46172 0.51038 0.69115 0.0
C115 C 0.48654 0.53488 0.70965 0.0
C116 C 0.47786 0.55142 0.73076 0.0
C117 C 0.44426 0.54363 0.73372 0.0
C118 C 0.41925 0.51896 0.71558 0.0
C119 C 0.42792 0.50231 0.69442 0.0
C120 C 0.47169 0.4937 0.66845 0.0
C121 C 0.48923 0.47742 0.67758 0.0
C122 C 0.46502 0.49459 0.63805 0.0
C123 C 0.44715 0.51188 0.62683 0.0
C124 C 0.45969 0.54633 0.63253 0.0
C125 C 0.44252 0.56235 0.62207 0.0
C126 C 0.41282 0.5442 0.60558 0.0
C127 C 0.40047 0.50997 0.5995 0.0
C128 C 0.4176 0.49393 0.60997 0.0
C129 C 0.51302 0.45583 0.60377 0.0
C130 C 0.49443 0.43395 0.58061 0.0
C131 C 0.51091 0.42635 0.55847 0.0
C132 C 0.54612 0.44071 0.55921 0.0
C133 C 0.56471 0.46242 0.58229 0.0
C134 C 0.5483 0.47004 0.60437 0.0
C135 C 0.49607 0.46535 0.62661 0.0
C136 C 0.47709 0.48016 0.61755 0.0
C137 C 0.50131 0.463 0.65711 0.0
C138 C 0.51879 0.44519 0.66817 0.0
C139 C 0.50815 0.41196 0.65918 0.0
C140 C 0.52445 0.39514 0.66976 0.0
C141 C 0.55144 0.41124 0.68958 0.0
C142 C 0.56212 0.4443 0.69872 0.0
C143 C 0.54585 0.46117 0.68814 0.0
H144 H 0.05657 0.54137 0.75403 0.0
H145 H 0.10091 0.5706 0.71694 0.0
H146 H 0.14777 0.51328 0.74381 0.0
H147 H 0.10303 0.48352 0.78082 0.0
H148 H 1.01036 0.47554 0.76037 0.0
H149 H 0.10589 0.56072 0.8166 0.0
H150 H 0.16434 0.58885 0.83487 0.0
H151 H 0.14591 0.49557 0.87471 0.0
H152 H 0.08759 0.46725 0.85617 0.0
H153 H 0.98335 0.42258 0.8818 0.0
H154 H 0.94112 0.40938 0.92085 0.0
H155 H 0.90931 0.47302 0.87815 0.0
H156 H 0.95164 0.48662 0.83943 0.0
H157 H 0.03652 0.48182 0.86722 0.0
H158 H 0.93959 0.39832 0.81712 0.0
H159 H 0.88138 0.36862 0.79852 0.0
H160 H 0.90178 0.45594 0.74684 0.0
H161 H 0.95996 0.486 0.76573 0.0
C162 C 0.07663 0.51045 0.77035 0.0
C163 C 0.07627 0.53493 0.7519 0.0
C164 C 0.10159 0.5517 0.73088 0.0
C165 C 0.12755 0.54416 0.72794 0.0
C166 C 0.12793 0.51951 0.74602 0.0
C167 C 0.10252 0.50263 0.7671 0.0
C168 C 0.04988 0.49355 0.79297 0.0
C169 C 0.01603 0.4771 0.78376 0.0
C170 C 0.05736 0.4944 0.82339 0.0
C171 C 0.09253 0.51177 0.83469 0.0
C172 C 0.11446 0.54626 0.82911 0.0
C173 C 0.14767 0.56234 0.83965 0.0
C174 C 0.1592 0.54419 0.8561 0.0
C175 C 0.1373 0.50993 0.86207 0.0
C176 C 0.10412 0.49382 0.85152 0.0
C177 C 0.97036 0.45524 0.85749 0.0
C178 C 0.96717 0.43354 0.88076 0.0
C179 C 0.94311 0.42597 0.90294 0.0
C180 C 0.92219 0.44019 0.90214 0.0
C181 C 0.92517 0.46168 0.87893 0.0
C182 C 0.94917 0.46926 0.8568 0.0
C183 C 0.99693 0.46487 0.83469 0.0
C184 C 0.03075 0.47982 0.84383 0.0
C185 C 0.98942 0.46251 0.80418 0.0
C186 C 0.95412 0.44452 0.79302 0.0
C187 C 0.93153 0.41125 0.80202 0.0
C188 C 0.89841 0.39427 0.79133 0.0
C189 C 0.8875 0.41022 0.7714 0.0
C190 C 0.90989 0.44331 0.76225 0.0
C191 C 0.94304 0.46035 0.77294 0.0
H192 H 0.64045 0.08467 0.02255 0.0
H193 H 0.66998 0.14316 0.0406 0.0
H194 H 0.59429 0.15997 0.00021 0.0
H195 H 0.56446 0.10137 0.98242 0.0
H196 H 0.57495 0.03318 0.03383 0.0
H197 H 0.63957 0.0989 0.94724 0.0
H198 H 0.65449 0.14341 0.91008 0.0
H199 H 0.55023 0.0959 0.88286 0.0
H200 H 0.53516 0.05178 0.92012 0.0
H201 H 0.49379 0.95547 0.93313 0.0
H202 H 0.46546 0.89712 0.91479 0.0
H203 H 0.53307 0.87753 0.96629 0.0
H204 H 0.56177 0.93592 0.98436 0.0
H205 H 0.55489 1.00587 0.92717 0.0
H206 H 0.48539 0.94784 0.00684 0.0
H207 H 0.45712 0.90561 0.04571 0.0
H208 H 0.55316 0.93819 0.08782 0.0
H209 H 0.58173 0.98033 0.04862 0.0
C210 C 0.6005 0.08879 0.00084 0.0
C211 C 0.63012 0.10088 0.01768 0.0
C212 C 0.64694 0.13416 0.02794 0.0
C213 C 0.6342 0.15565 0.02168 0.0
C214 C 0.60443 0.14362 0.00521 0.0
C215 C 0.58757 0.11032 -0.00505 0.0
C216 C 0.58297 0.05353 -0.01017 0.0
C217 C 0.57115 0.02717 0.01048 0.0
C218 C 0.57637 0.04571 0.95946 0.0
C219 C 0.58619 0.0722 0.93662 0.0
C220 C 0.61991 0.09818 0.9334 0.0
C221 C 0.62842 0.12346 0.91223 0.0
C222 C 0.60334 0.12285 0.89403 0.0
C223 C 0.56983 0.09675 0.89689 0.0
C224 C 0.56131 0.07155 0.91801 0.0
C225 C 0.52978 0.95005 0.96029 0.0
C226 C 0.50261 0.93869 0.94042 0.0
C227 C 0.48639 0.90544 0.93005 0.0
C228 C 0.49723 0.88323 0.9393 0.0
C229 C 0.52434 0.89441 0.95903 0.0
C230 C 0.54059 0.92764 0.9694 0.0
C231 C 0.54717 0.98544 0.97115 0.0
C232 C 0.55905 0.01179 0.95052 0.0
C233 C 0.55243 0.99328 0.0016 0.0
C234 C 0.53575 0.96693 0.02459 0.0
C235 C 0.5005 0.94558 0.02413 0.0
C236 C 0.48435 0.92163 0.04634 0.0
C237 C 0.50316 0.91887 0.0694 0.0
C238 C 0.53833 0.94 0.07001 0.0
C239 C 0.55456 0.96401 0.04775 0.0
H240 H 0.536 0.49892 0.20761 0.0
H241 H 0.55148 0.47013 0.24477 0.0
H242 H 0.65567 0.52788 0.2175 0.0
H243 H 0.64033 0.5572 0.18042 0.0
H244 H 0.55528 0.56454 0.20101 0.0
H245 H 0.56579 0.4795 0.1451 0.0
H246 H 0.59616 0.45149 0.1269 0.0
H247 H 0.67082 0.54465 0.08654 0.0
H248 H 0.64075 0.57286 0.10501 0.0
H249 H 0.58077 0.61721 0.07959 0.0
H250 H 0.5515 0.63029 0.04071 0.0
H251 H 0.45603 0.56587 0.08339 0.0
H252 H 0.485 0.55241 0.12195 0.0
H253 H 0.57493 0.55795 0.09414 0.0
H254 H 0.56119 0.64122 0.14412 0.0
H255 H 0.53231 0.67054 0.16255 0.0
H256 H 0.46553 0.5831 0.21429 0.0
H257 H 0.49404 0.55343 0.19558 0.0
C258 C 0.58696 0.53002 0.1911 0.0
C259 C 0.56222 0.50555 0.20968 0.0
C260 C 0.57098 0.48903 0.23073 0.0
C261 C 0.60459 0.49681 0.23357 0.0
C262 C 0.62953 0.52146 0.21536 0.0
C263 C 0.62078 0.53809 0.19425 0.0
C264 C 0.57689 0.54665 0.16843 0.0
C265 C 0.55935 0.56291 0.17761 0.0
C266 C 0.58343 0.54568 0.13801 0.0
C267 C 0.60128 0.52839 0.12674 0.0
C268 C 0.58879 0.49396 0.13249 0.0
C269 C 0.60595 0.47795 0.12199 0.0
C270 C 0.63559 0.4961 0.10542 0.0
C271 C 0.64788 0.5303 0.09928 0.0
C272 C 0.63077 0.54633 0.10979 0.0
C273 C 0.53512 0.58418 0.10388 0.0
C274 C 0.55357 0.60604 0.08065 0.0
C275 C 0.53694 0.61354 0.05857 0.0
C276 C 0.50174 0.59909 0.05944 0.0
C277 C 0.48328 0.57739 0.08258 0.0
C278 C 0.49983 0.56988 0.1046 0.0
C279 C 0.55223 0.57479 0.12666 0.0
C280 C 0.57122 0.56002 0.11754 0.0
C281 C 0.54713 0.57723 0.15717 0.0
C282 C 0.52963 0.595 0.16827 0.0
C283 C 0.54015 0.62818 0.1592 0.0
C284 C 0.5238 0.64495 0.16978 0.0
C285 C 0.49687 0.62885 0.18968 0.0
C286 C 0.48632 0.59583 0.1989 0.0
C287 C 0.50264 0.57901 0.18831 0.0
O288 O 0.60331 0.38814 0.42973 0.0
Cd289 Cd 0.61638 0.37017 0.39332 0.0
Cd290 Cd 0.67484 0.42923 0.40024 0.0
O291 O 0.65392 0.43112 0.44013 0.0
O292 O 0.58299 0.32094 0.39284 0.0
O293 O 0.63791 0.34177 0.40021 0.0
C294 C 0.60776 0.31603 0.39868 0.0
C295 C 0.72943 0.43864 0.39616 0.0
C296 C 0.62287 0.41238 0.44643 0.0
C297 C 0.63373 0.42082 0.34587 0.0
O298 O 0.65738 0.44101 0.36276 0.0
O299 O 0.61516 0.38991 0.3526 0.0
O300 O 0.72394 0.46319 0.40111 0.0
O301 O 0.704 0.40828 0.39497 0.0
O302 O 0.23663 0.60019 0.59908 0.0
Cd303 Cd 0.26595 0.61167 0.56165 0.0
Cd304 Cd 0.26656 0.67083 0.5681 0.0
O305 O 0.24547 0.6513 0.60887 0.0
O306 O 0.28079 0.57755 0.56108 0.0
O307 O 0.31613 0.63246 0.56692 0.0
C308 C 0.31095 0.60204 0.56592 0.0
C309 C 0.31193 0.72514 0.5625 0.0
C310 C 0.23311 0.62045 0.61579 0.0
C311 C 0.2309 0.62814 0.51513 0.0
O312 O 0.23556 0.65247 0.53165 0.0
O313 O 0.24318 0.60948 0.52165 0.0
O314 O 0.28213 0.71997 0.56825 0.0
O315 O 0.31657 0.69957 0.56124 0.0
O316 O 0.65614 0.23227 0.76535 0.0
Cd317 Cd 0.67355 0.26168 0.72795 0.0
Cd318 Cd 0.61526 0.26226 0.73499 0.0
O319 O 0.61388 0.241 0.77559 0.0
O320 O 0.72271 0.27719 0.72698 0.0
O321 O 0.70244 0.31184 0.73327 0.0
C322 C 0.72799 0.30716 0.73194 0.0
C323 C 0.60716 0.30809 0.72981 0.0
C324 C 0.63244 0.22865 0.78224 0.0
C325 C 0.62161 0.2267 0.68174 0.0
O326 O 0.60207 0.23135 0.69847 0.0
O327 O 0.65264 0.23896 0.68804 0.0
O328 O 0.58221 0.27847 0.73558 0.0
O329 O 0.63721 0.31226 0.72826 0.0
O330 O 0.44478 0.65174 0.93006 0.0
Cd331 Cd 0.43198 0.66989 0.89361 0.0
Cd332 Cd 0.37341 0.61089 0.90024 0.0
O333 O 0.39406 0.60879 0.94022 0.0
O334 O 0.46542 0.71911 0.89332 0.0
O335 O 0.41046 0.6983 0.90044 0.0
C336 C 0.44063 0.72402 0.89907 0.0
C337 C 0.31888 0.60158 0.89599 0.0
C338 C 0.42507 0.62746 0.94665 0.0
C339 C 0.41485 0.61942 0.84605 0.0
O340 O 0.39106 0.59921 0.86282 0.0
O341 O 0.43344 0.65029 0.85288 0.0
O342 O 0.3243 0.57699 0.9009 0.0
O343 O 0.34434 0.63193 0.8949 0.0
O344 O 0.81267 0.38751 0.03183 0.0
Cd345 Cd 0.7815 0.36922 0.0682 0.0
Cd346 Cd 0.78236 0.42844 0.06167 0.0
O347 O 0.80519 0.43056 0.02172 0.0
O348 O 0.76571 0.32003 0.06832 0.0
O349 O 0.73151 0.34068 0.06116 0.0
C350 C 0.736 0.31502 0.06245 0.0
C351 C 0.73741 0.43816 0.06584 0.0
C352 C 0.81743 0.41185 0.01528 0.0
C353 C 0.81494 0.41952 0.11591 0.0
O354 O 0.81158 0.43984 0.09916 0.0
O355 O 0.80247 0.38865 0.10901 0.0
O356 O 0.7676 0.46262 0.06104 0.0
O357 O 0.73218 0.40772 0.06687 0.0
O358 O 0.44625 0.8088 0.19892 0.0
Cd359 Cd 0.4329 0.77766 0.2353 0.0
Cd360 Cd 0.37465 0.77829 0.22823 0.0
O361 O 0.39574 0.80131 0.18844 0.0
O362 O 0.46593 0.76142 0.23587 0.0
O363 O 0.41096 0.72769 0.22837 0.0
C364 C 0.44099 0.73183 0.22998 0.0
C365 C 0.32021 0.73277 0.23196 0.0
C366 C 0.42679 0.81359 0.18222 0.0
C367 C 0.41554 0.81097 0.28269 0.0
O368 O 0.3919 0.80745 0.26577 0.0
O369 O 0.43414 0.79868 0.276 0.0
O370 O 0.32549 0.76277 0.22714 0.0
O371 O 0.34576 0.72809 0.23328 0.0
C372 C 0.22355 0.66374 0.25155 0.0
C373 C 0.19473 0.64733 0.25996 0.0
C374 C 0.25756 0.68522 0.24328 0.0
C375 C 0.28662 0.70589 0.23825 0.0
C376 C 0.58002 0.21976 0.41951 0.0
C377 C 0.56739 0.1909 0.42778 0.0
C378 C 0.59272 0.25372 0.41109 0.0
C379 C 0.60114 0.28266 0.40561 0.0
C380 C 0.37858 0.57308 0.58669 0.0
C381 C 0.39453 0.56036 0.59548 0.0
C382 C 0.35767 0.58607 0.57799 0.0
C383 C 0.33742 0.5949 0.57261 0.0
C384 C 0.8246 0.37602 0.75184 0.0
C385 C 0.85342 0.3924 0.76026 0.0
C386 C 0.79061 0.3546 0.7435 0.0
C387 C 0.76156 0.33398 0.73837 0.0
C388 C 0.46831 0.82023 0.92011 0.0
C389 C 0.48089 0.84907 0.9284 0.0
C390 C 0.45564 0.78629 0.91162 0.0
C391 C 0.44724 0.75737 0.90607 0.0
C392 C 0.66982 0.46722 0.0865 0.0
C393 C 0.65389 0.47995 0.0953 0.0
C394 C 0.69073 0.4542 0.07782 0.0
C395 C 0.71096 0.44535 0.07248 0.0
C396 C 0.37981 0.8214 0.54069 0.0
C397 C 0.39568 0.85011 0.53195 0.0
C398 C 0.35887 0.78751 0.54954 0.0
C399 C 0.33854 0.75855 0.55528 0.0
C400 C 0.58029 0.37724 0.70904 0.0
C401 C 0.56781 0.39354 0.70067 0.0
C402 C 0.59274 0.35579 0.7175 0.0
C403 C 0.60088 0.33507 0.72294 0.0
C404 C 0.22235 0.57308 0.87511 0.0
C405 C 0.19368 0.56039 0.86625 0.0
C406 C 0.25627 0.58596 0.88387 0.0
C407 C 0.28532 0.59463 0.88927 0.0
C408 C 0.66801 0.2189 0.04038 0.0
C409 C 0.65216 0.1902 0.03163 0.0
C410 C 0.68896 0.25276 0.0493 0.0
C411 C 0.70933 0.28168 0.05512 0.0
C412 C 0.46792 0.66276 0.20911 0.0
C413 C 0.48045 0.64649 0.20076 0.0
C414 C 0.45544 0.68417 0.21758 0.0
C415 C 0.44728 0.70488 0.22305 0.0
C416 C 0.82601 0.46724 0.37538 0.0
C417 C 0.85467 0.47988 0.36649 0.0
C418 C 0.79209 0.45437 0.38414 0.0
C419 C 0.76303 0.44567 0.38949 0.0
C420 C 0.17003 0.61125 0.44473 0.0
C421 C 0.15 0.60609 0.42531 0.0
C422 C 0.19234 0.61648 0.46828 0.0
C423 C 0.21008 0.62094 0.48942 0.0
C424 C 0.5772 0.16568 0.61155 0.0
C425 C 0.56239 0.14555 0.59219 0.0
C426 C 0.5943 0.18807 0.63502 0.0
C427 C 0.60772 0.20584 0.65612 0.0
C428 C 0.43047 0.57609 0.77465 0.0
C429 C 0.43572 0.56076 0.75575 0.0
C430 C 0.42558 0.59331 0.79822 0.0
C431 C 0.42166 0.6064 0.81977 0.0
C432 C 0.8784 0.4286 0.94498 0.0
C433 C 0.89842 0.43373 0.92556 0.0
C434 C 0.85608 0.4234 0.96851 0.0
C435 C 0.8383 0.41899 -0.01038 0.0
C436 C 0.47135 0.87494 0.11222 0.0
C437 C 0.48612 0.89505 0.09283 0.0
C438 C 0.45425 0.85249 0.13566 0.0
C439 C 0.44078 0.8346 0.15668 0.0
C440 C 0.61844 0.46433 0.27442 0.0
C441 C 0.6132 0.47969 0.25555 0.0
C442 C 0.62325 0.44705 0.298 0.0
C443 C 0.62706 0.43391 0.31956 0.0
C444 C 0.4309 0.87018 0.35384 0.0
C445 C 0.43608 0.89091 0.37256 0.0
C446 C 0.42608 0.84791 0.33041 0.0
C447 C 0.42225 0.83085 0.30892 0.0
C448 C 0.57833 0.42896 0.51653 0.0
C449 C 0.56341 0.43415 0.53587 0.0
C450 C 0.59553 0.42376 0.49309 0.0
C451 C 0.60899 0.41941 0.47203 0.0
C452 C 0.17398 0.577 0.68715 0.0
C453 C 0.15331 0.56151 0.70598 0.0
C454 C 0.19618 0.59435 0.66362 0.0
C455 C 0.21324 0.60748 0.64208 0.0
C456 C 0.6169 0.16925 0.8533 0.0
C457 C 0.61171 0.14858 0.8721 0.0
C458 C 0.62176 0.19152 0.82986 0.0
C459 C 0.62566 0.20866 0.80841 0.0
C460 C 0.46932 0.61069 0.01685 0.0
C461 C 0.4843 0.60555 0.03616 0.0
C462 C 0.45214 0.61589 -0.0066 0.0
C463 C 0.43876 0.6203 0.97231 0.0
C464 C 0.87401 0.46286 0.18731 0.0
C465 C 0.8947 0.47834 0.20612 0.0
C466 C 0.8518 0.44553 0.16378 0.0
C467 C 0.83476 0.43243 0.14223 0.0
loop_
_geom_bond_atom_site_label_1
_geom_bond_atom_site_label_2
_geom_bond_distance
_geom_bond_site_symmetry_2
_ccdc_geom_bond_type
H0 C19 0.949 . S
H1 C20 0.950 . S
H2 C22 0.950 . S
H3 C23 0.950 . S
H4 C25 0.950 . S
H5 C28 0.950 . S
H6 C29 0.950 . S
H7 C31 0.951 . S
H8 C32 0.949 . S
H9 C34 0.949 . S
H10 C35 0.950 . S
H11 C37 0.950 . S
H12 C38 0.950 . S
H13 C40 0.950 1_655 S
H14 C43 0.950 . S
H15 C44 0.950 . S
H16 C46 0.951 . S
H17 C47 0.949 . S
C18 C19 1.376 . S
C18 C23 1.386 . S
C18 C24 1.483 . S
C19 H0 0.949 . S
C19 C18 1.376 . S
C19 C20 1.397 . S
C20 H1 0.950 . S
C20 C19 1.397 . S
C20 C21 1.391 . S
C21 C20 1.391 . S
C21 C22 1.405 . S
C22 H2 0.950 . S
C22 C21 1.405 . S
C22 C23 1.367 . S
C23 H3 0.950 . S
C23 C18 1.386 . S
C23 C22 1.367 . S
C24 C18 1.483 . S
C24 C25 1.382 1_655 S
C24 C26 1.403 . S
C25 H4 0.950 . S
C25 C24 1.382 1_455 S
C25 C41 1.411 . S
C26 C24 1.403 . S
C26 C27 1.489 . S
C26 C40 1.411 1_655 S
C27 C26 1.489 . S
C27 C28 1.383 . S
C27 C32 1.382 . S
C28 H5 0.950 . S
C28 C27 1.383 . S
C28 C29 1.395 . S
C29 H6 0.950 . S
C29 C28 1.395 . S
C29 C30 1.288 . S
C30 C29 1.288 . S
C30 C31 1.392 . S
C31 H7 0.951 . S
C31 C30 1.392 . S
C31 C32 1.392 . S
C32 H8 0.949 . S
C32 C27 1.382 . S
C32 C31 1.392 . S
C33 C34 1.376 . S
C33 C38 1.386 . S
C33 C39 1.483 . S
C34 H9 0.949 . S
C34 C33 1.376 . S
C34 C35 1.397 . S
C35 H10 0.950 . S
C35 C34 1.397 . S
C35 C36 1.391 . S
C36 C35 1.391 . S
C36 C37 1.405 . S
C37 H11 0.950 . S
C37 C36 1.405 . S
C37 C38 1.367 . S
C38 H12 0.950 . S
C38 C33 1.386 . S
C38 C37 1.367 . S
C39 C33 1.483 . S
C39 C40 1.382 . S
C39 C41 1.403 . S
C40 H13 0.950 1_455 S
C40 C26 1.411 1_455 S
C40 C39 1.382 . S
C41 C25 1.411 . S
C41 C39 1.403 . S
C41 C42 1.489 . S
C42 C41 1.489 . S
C42 C43 1.383 . S
C42 C47 1.382 . S
C43 H14 0.950 . S
C43 C42 1.383 . S
C43 C44 1.395 . S
C44 H15 0.950 . S
C44 C43 1.395 . S
C44 C45 1.288 . S
C45 C44 1.288 . S
C45 C46 1.392 . S
C46 H16 0.951 . S
C46 C45 1.392 . S
C46 C47 1.392 . S
C47 H17 0.949 . S
C47 C42 1.382 . S
C47 C46 1.392 . S
H48 C67 0.949 . S
H49 C68 0.950 . S
H50 C70 0.950 . S
H51 C71 0.950 . S
H52 C73 0.950 . S
H53 C76 0.950 . S
H54 C77 0.950 . S
H55 C79 0.951 . S
H56 C80 0.949 . S
H57 C82 0.949 . S
H58 C83 0.950 . S
H59 C85 0.950 . S
H60 C86 0.950 . S
H61 C88 0.950 . S
H62 C91 0.950 . S
H63 C92 0.950 . S
H64 C94 0.951 . S
H65 C95 0.949 . S
C66 C67 1.376 . S
C66 C71 1.386 . S
C66 C72 1.483 . S
C67 H48 0.949 . S
C67 C66 1.376 . S
C67 C68 1.397 . S
C68 H49 0.950 . S
C68 C67 1.397 . S
C68 C69 1.391 . S
C69 C68 1.391 . S
C69 C70 1.405 . S
C70 H50 0.950 . S
C70 C69 1.405 . S
C70 C71 1.367 . S
C71 H51 0.950 . S
C71 C66 1.386 . S
C71 C70 1.367 . S
C72 C66 1.483 . S
C72 C73 1.380 . S
C72 C74 1.403 . S
C73 H52 0.950 . S
C73 C72 1.380 . S
C73 C89 1.413 1_565 S
C74 C72 1.403 . S
C74 C75 1.489 . S
C74 C88 1.411 1_565 S
C75 C74 1.489 . S
C75 C76 1.383 . S
C75 C80 1.382 . S
C76 H53 0.950 . S
C76 C75 1.383 . S
C76 C77 1.395 . S
C77 H54 0.950 . S
C77 C76 1.395 . S
C77 C78 1.288 . S
C78 C77 1.288 . S
C78 C79 1.392 . S
C79 H55 0.951 . S
C79 C78 1.392 . S
C79 C80 1.392 . S
C80 H56 0.949 . S
C80 C75 1.382 . S
C80 C79 1.392 . S
C81 C82 1.376 . S
C81 C86 1.386 . S
C81 C87 1.483 . S
C82 H57 0.949 . S
C82 C81 1.376 . S
C82 C83 1.397 . S
C83 H58 0.950 . S
C83 C82 1.397 . S
C83 C84 1.391 . S
C84 C83 1.391 . S
C84 C85 1.405 . S
C85 H59 0.950 . S
C85 C84 1.405 . S
C85 C86 1.367 . S
C86 H60 0.950 . S
C86 C81 1.386 . S
C86 C85 1.367 . S
C87 C81 1.483 . S
C87 C88 1.382 . S
C87 C89 1.403 . S
C88 H61 0.950 . S
C88 C74 1.411 1_545 S
C88 C87 1.382 . S
C89 C73 1.413 1_545 S
C89 C87 1.403 . S
C89 C90 1.489 . S
C90 C89 1.489 . S
C90 C91 1.383 . S
C90 C95 1.382 . S
C91 H62 0.950 . S
C91 C90 1.383 . S
C91 C92 1.395 . S
C92 H63 0.950 . S
C92 C91 1.395 . S
C92 C93 1.288 . S
C93 C92 1.288 . S
C93 C94 1.392 . S
C94 H64 0.951 . S
C94 C93 1.392 . S
C94 C95 1.392 . S
C95 H65 0.949 . S
C95 C90 1.382 . S
C95 C94 1.392 . S
H96 C115 0.949 . S
H97 C116 0.950 . S
H98 C118 0.950 . S
H99 C119 0.950 . S
H100 C121 0.950 . S
H101 C124 0.950 . S
H102 C125 0.950 . S
H103 C127 0.951 . S
H104 C128 0.949 . S
H105 C130 0.949 . S
H106 C131 0.950 . S
H107 C133 0.950 . S
H108 C134 0.950 . S
H109 C136 0.950 . S
H110 C139 0.950 . S
H111 C140 0.950 . S
H112 C142 0.951 . S
H113 C143 0.949 . S
C114 C115 1.376 . S
C114 C119 1.386 . S
C114 C120 1.483 . S
C115 H96 0.949 . S
C115 C114 1.376 . S
C115 C116 1.397 . S
C116 H97 0.950 . S
C116 C115 1.397 . S
C116 C117 1.391 . S
C117 C116 1.391 . S
C117 C118 1.405 . S
C118 H98 0.950 . S
C118 C117 1.405 . S
C118 C119 1.367 . S
C119 H99 0.950 . S
C119 C114 1.386 . S
C119 C118 1.367 . S
C120 C114 1.483 . S
C120 C121 1.382 . S
C120 C122 1.403 . S
C121 H100 0.950 . S
C121 C120 1.382 . S
C121 C137 1.411 . S
C122 C120 1.403 . S
C122 C123 1.489 . S
C122 C136 1.411 . S
C123 C122 1.489 . S
C123 C124 1.383 . S
C123 C128 1.382 . S
C124 H101 0.950 . S
C124 C123 1.383 . S
C124 C125 1.395 . S
C125 H102 0.950 . S
C125 C124 1.395 . S
C125 C126 1.288 . S
C126 C125 1.288 . S
C126 C127 1.392 . S
C127 H103 0.951 . S
C127 C126 1.392 . S
C127 C128 1.392 . S
C128 H104 0.949 . S
C128 C123 1.382 . S
C128 C127 1.392 . S
C129 C130 1.376 . S
C129 C134 1.386 . S
C129 C135 1.483 . S
C130 H105 0.949 . S
C130 C129 1.376 . S
C130 C131 1.397 . S
C131 H106 0.950 . S
C131 C130 1.397 . S
C131 C132 1.391 . S
C132 C131 1.391 . S
C132 C133 1.405 . S
C133 H107 0.950 . S
C133 C132 1.405 . S
C133 C134 1.367 . S
C134 H108 0.950 . S
C134 C129 1.386 . S
C134 C133 1.367 . S
C135 C129 1.483 . S
C135 C136 1.382 . S
C135 C137 1.403 . S
C136 H109 0.950 . S
C136 C122 1.411 . S
C136 C135 1.382 . S
C137 C121 1.411 . S
C137 C135 1.403 . S
C137 C138 1.489 . S
C138 C137 1.489 . S
C138 C139 1.383 . S
C138 C143 1.382 . S
C139 H110 0.950 . S
C139 C138 1.383 . S
C139 C140 1.395 . S
C140 H111 0.950 . S
C140 C139 1.395 . S
C140 C141 1.288 . S
C141 C140 1.288 . S
C141 C142 1.392 . S
C142 H112 0.951 . S
C142 C141 1.392 . S
C142 C143 1.392 . S
C143 H113 0.949 . S
C143 C138 1.382 . S
C143 C142 1.392 . S
H144 C163 0.949 . S
H145 C164 0.950 . S
H146 C166 0.950 . S
H147 C167 0.950 . S
H148 C169 0.950 1_655 S
H149 C172 0.950 . S
H150 C173 0.950 . S
H151 C175 0.951 . S
H152 C176 0.949 . S
H153 C178 0.949 . S
H154 C179 0.950 . S
H155 C181 0.950 . S
H156 C182 0.950 . S
H157 C184 0.950 . S
H158 C187 0.950 . S
H159 C188 0.950 . S
H160 C190 0.951 . S
H161 C191 0.949 . S
C162 C163 1.376 . S
C162 C167 1.386 . S
C162 C168 1.483 . S
C163 H144 0.949 . S
C163 C162 1.376 . S
C163 C164 1.397 . S
C164 H145 0.950 . S
C164 C163 1.397 . S
C164 C165 1.391 . S
C165 C164 1.391 . S
C165 C166 1.405 . S
C166 H146 0.950 . S
C166 C165 1.405 . S
C166 C167 1.367 . S
C167 H147 0.950 . S
C167 C162 1.386 . S
C167 C166 1.367 . S
C168 C162 1.483 . S
C168 C169 1.382 . S
C168 C170 1.403 . S
C169 H148 0.950 1_455 S
C169 C168 1.382 . S
C169 C185 1.411 1_455 S
C170 C168 1.403 . S
C170 C171 1.489 . S
C170 C184 1.411 . S
C171 C170 1.489 . S
C171 C172 1.383 . S
C171 C176 1.382 . S
C172 H149 0.950 . S
C172 C171 1.383 . S
C172 C173 1.395 . S
C173 H150 0.950 . S
C173 C172 1.395 . S
C173 C174 1.288 . S
C174 C173 1.288 . S
C174 C175 1.392 . S
C175 H151 0.951 . S
C175 C174 1.392 . S
C175 C176 1.392 . S
C176 H152 0.949 . S
C176 C171 1.382 . S
C176 C175 1.392 . S
C177 C178 1.376 . S
C177 C182 1.386 . S
C177 C183 1.483 . S
C178 H153 0.949 . S
C178 C177 1.376 . S
C178 C179 1.397 . S
C179 H154 0.950 . S
C179 C178 1.397 . S
C179 C180 1.391 . S
C180 C179 1.391 . S
C180 C181 1.405 . S
C181 H155 0.950 . S
C181 C180 1.405 . S
C181 C182 1.367 . S
C182 H156 0.950 . S
C182 C177 1.386 . S
C182 C181 1.367 . S
C183 C177 1.483 . S
C183 C184 1.382 1_655 S
C183 C185 1.403 . S
C184 H157 0.950 . S
C184 C170 1.411 . S
C184 C183 1.382 1_455 S
C185 C169 1.411 1_655 S
C185 C183 1.403 . S
C185 C186 1.489 . S
C186 C185 1.489 . S
C186 C187 1.383 . S
C186 C191 1.382 . S
C187 H158 0.950 . S
C187 C186 1.383 . S
C187 C188 1.395 . S
C188 H159 0.950 . S
C188 C187 1.395 . S
C188 C189 1.288 . S
C189 C188 1.288 . S
C189 C190 1.392 . S
C190 H160 0.951 . S
C190 C189 1.392 . S
C190 C191 1.392 . S
C191 H161 0.949 . S
C191 C186 1.382 . S
C191 C190 1.392 . S
H192 C211 0.949 . S
H193 C212 0.950 . S
H194 C214 0.950 . S
H195 C215 0.939 1_556 S
H196 C217 0.950 . S
H197 C220 0.950 . S
H198 C221 0.950 . S
H199 C223 0.951 . S
H200 C224 0.949 . S
H201 C226 0.949 . S
H202 C227 0.950 . S
H203 C229 0.950 . S
H204 C230 0.950 . S
H205 C232 0.950 . S
H206 C235 0.950 . S
H207 C236 0.950 . S
H208 C238 0.951 . S
H209 C239 0.949 . S
C210 C211 1.376 . S
C210 C215 1.391 . S
C210 C216 1.483 1_554 S
C211 H192 0.949 . S
C211 C210 1.376 . S
C211 C212 1.397 . S
C212 H193 0.950 . S
C212 C211 1.397 . S
C212 C213 1.391 . S
C213 C212 1.391 . S
C213 C214 1.405 . S
C214 H194 0.950 . S
C214 C213 1.405 . S
C214 C215 1.374 . S
C215 H195 0.939 1_554 S
C215 C210 1.391 . S
C215 C214 1.374 . S
C216 C210 1.483 1_556 S
C216 C217 1.382 1_556 S
C216 C218 1.403 . S
C217 H196 0.950 . S
C217 C216 1.382 1_554 S
C217 C233 1.411 1_545 S
C218 C216 1.403 . S
C218 C219 1.489 . S
C218 C232 1.413 1_545 S
C219 C218 1.489 . S
C219 C220 1.383 . S
C219 C224 1.382 . S
C220 H197 0.950 . S
C220 C219 1.383 . S
C220 C221 1.395 . S
C221 H198 0.950 . S
C221 C220 1.395 . S
C221 C222 1.288 . S
C222 C221 1.288 . S
C222 C223 1.392 . S
C223 H199 0.951 . S
C223 C222 1.392 . S
C223 C224 1.392 . S
C224 H200 0.949 . S
C224 C219 1.382 . S
C224 C223 1.392 . S
C225 C226 1.376 . S
C225 C230 1.386 . S
C225 C231 1.483 . S
C226 H201 0.949 . S
C226 C225 1.376 . S
C226 C227 1.397 . S
C227 H202 0.950 . S
C227 C226 1.397 . S
C227 C228 1.391 . S
C228 C227 1.391 . S
C228 C229 1.405 . S
C229 H203 0.950 . S
C229 C228 1.405 . S
C229 C230 1.367 . S
C230 H204 0.950 . S
C230 C225 1.386 . S
C230 C229 1.367 . S
C231 C225 1.483 . S
C231 C232 1.380 . S
C231 C233 1.403 1_556 S
C232 H205 0.950 . S
C232 C218 1.413 1_565 S
C232 C231 1.380 . S
C233 C217 1.411 1_565 S
C233 C231 1.403 1_554 S
C233 C234 1.489 . S
C234 C233 1.489 . S
C234 C235 1.383 . S
C234 C239 1.382 . S
C235 H206 0.950 . S
C235 C234 1.383 . S
C235 C236 1.395 . S
C236 H207 0.950 . S
C236 C235 1.395 . S
C236 C237 1.288 . S
C237 C236 1.288 . S
C237 C238 1.392 . S
C238 H208 0.951 . S
C238 C237 1.392 . S
C238 C239 1.392 . S
C239 H209 0.949 . S
C239 C234 1.382 . S
C239 C238 1.392 . S
H240 C259 0.949 . S
H241 C260 0.950 . S
H242 C262 0.950 . S
H243 C263 0.950 . S
H244 C265 0.950 . S
H245 C268 0.950 . S
H246 C269 0.950 . S
H247 C271 0.951 . S
H248 C272 0.949 . S
H249 C274 0.949 . S
H250 C275 0.950 . S
H251 C277 0.950 . S
H252 C278 0.950 . S
H253 C280 0.950 . S
H254 C283 0.950 . S
H255 C284 0.950 . S
H256 C286 0.951 . S
H257 C287 0.949 . S
C258 C259 1.376 . S
C258 C263 1.386 . S
C258 C264 1.483 . S
C259 H240 0.949 . S
C259 C258 1.376 . S
C259 C260 1.397 . S
C260 H241 0.950 . S
C260 C259 1.397 . S
C260 C261 1.391 . S
C261 C260 1.391 . S
C261 C262 1.405 . S
C262 H242 0.950 . S
C262 C261 1.405 . S
C262 C263 1.367 . S
C263 H243 0.950 . S
C263 C258 1.386 . S
C263 C262 1.367 . S
C264 C258 1.483 . S
C264 C265 1.382 . S
C264 C266 1.403 . S
C265 H244 0.950 . S
C265 C264 1.382 . S
C265 C281 1.411 . S
C266 C264 1.403 . S
C266 C267 1.489 . S
C266 C280 1.411 . S
C267 C266 1.489 . S
C267 C268 1.383 . S
C267 C272 1.382 . S
C268 H245 0.950 . S
C268 C267 1.383 . S
C268 C269 1.395 . S
C269 H246 0.950 . S
C269 C268 1.395 . S
C269 C270 1.288 . S
C270 C269 1.288 . S
C270 C271 1.392 . S
C271 H247 0.951 . S
C271 C270 1.392 . S
C271 C272 1.392 . S
C272 H248 0.949 . S
C272 C267 1.382 . S
C272 C271 1.392 . S
C273 C274 1.376 . S
C273 C278 1.386 . S
C273 C279 1.483 . S
C274 H249 0.949 . S
C274 C273 1.376 . S
C274 C275 1.397 . S
C275 H250 0.950 . S
C275 C274 1.397 . S
C275 C276 1.391 . S
C276 C275 1.391 . S
C276 C277 1.405 . S
C277 H251 0.950 . S
C277 C276 1.405 . S
C277 C278 1.367 . S
C278 H252 0.950 . S
C278 C273 1.386 . S
C278 C277 1.367 . S
C279 C273 1.483 . S
C279 C280 1.382 . S
C279 C281 1.403 . S
C280 H253 0.950 . S
C280 C266 1.411 . S
C280 C279 1.382 . S
C281 C265 1.411 . S
C281 C279 1.403 . S
C281 C282 1.489 . S
C282 C281 1.489 . S
C282 C283 1.383 . S
C282 C287 1.382 . S
C283 H254 0.950 . S
C283 C282 1.383 . S
C283 C284 1.395 . S
C284 H255 0.950 . S
C284 C283 1.395 . S
C284 C285 1.288 . S
C285 C284 1.288 . S
C285 C286 1.392 . S
C286 H256 0.951 . S
C286 C285 1.392 . S
C286 C287 1.392 . S
C287 H257 0.949 . S
C287 C282 1.382 . S
C287 C286 1.392 . S
O288 Cd289 2.223 . S
O288 C296 1.315 . S
Cd289 O288 2.223 . S
Cd289 O292 2.297 . S
Cd289 O293 2.439 . S
Cd289 O299 2.240 . S
Cd290 O291 2.240 . S
Cd290 O298 2.223 . S
Cd290 O300 2.297 . S
Cd290 O301 2.439 . S
O291 Cd290 2.240 . S
O291 C296 1.279 . S
O292 Cd289 2.297 . S
O292 C294 1.247 . S
O293 Cd289 2.439 . S
O293 C294 1.208 . S
C294 O292 1.247 . S
C294 O293 1.208 . S
C295 O300 1.247 . S
C295 O301 1.208 . S
C296 O288 1.315 . S
C296 O291 1.279 . S
C297 O298 1.315 . S
C297 O299 1.279 . S
O298 Cd290 2.223 . S
O298 C297 1.315 . S
O299 Cd289 2.240 . S
O299 C297 1.279 . S
O300 Cd290 2.297 . S
O300 C295 1.247 . S
O301 Cd290 2.439 . S
O301 C295 1.208 . S
O302 Cd303 2.223 . S
O302 C310 1.315 . S
Cd303 O302 2.223 . S
Cd303 O306 2.297 . S
Cd303 O307 2.439 . S
Cd303 O313 2.240 . S
Cd304 O305 2.240 . S
Cd304 O312 2.223 . S
Cd304 O314 2.297 . S
Cd304 O315 2.439 . S
O305 Cd304 2.240 . S
O305 C310 1.279 . S
O306 Cd303 2.297 . S
O306 C308 1.247 . S
O307 Cd303 2.439 . S
O307 C308 1.208 . S
C308 O306 1.247 . S
C308 O307 1.208 . S
C309 O314 1.247 . S
C309 O315 1.208 . S
C310 O302 1.315 . S
C310 O305 1.279 . S
C311 O312 1.315 . S
C311 O313 1.279 . S
O312 Cd304 2.223 . S
O312 C311 1.315 . S
O313 Cd303 2.240 . S
O313 C311 1.279 . S
O314 Cd304 2.297 . S
O314 C309 1.247 . S
O315 Cd304 2.439 . S
O315 C309 1.208 . S
O316 Cd317 2.223 . S
O316 C324 1.315 . S
Cd317 O316 2.223 . S
Cd317 O320 2.297 . S
Cd317 O321 2.439 . S
Cd317 O327 2.240 . S
Cd318 O319 2.240 . S
Cd318 O326 2.223 . S
Cd318 O328 2.297 . S
Cd318 O329 2.439 . S
O319 Cd318 2.240 . S
O319 C324 1.279 . S
O320 Cd317 2.297 . S
O320 C322 1.247 . S
O321 Cd317 2.439 . S
O321 C322 1.208 . S
C322 O320 1.247 . S
C322 O321 1.208 . S
C323 O328 1.247 . S
C323 O329 1.208 . S
C324 O316 1.315 . S
C324 O319 1.279 . S
C325 O326 1.315 . S
C325 O327 1.279 . S
O326 Cd318 2.223 . S
O326 C325 1.315 . S
O327 Cd317 2.240 . S
O327 C325 1.279 . S
O328 Cd318 2.297 . S
O328 C323 1.247 . S
O329 Cd318 2.439 . S
O329 C323 1.208 . S
O330 Cd331 2.223 . S
O330 C338 1.315 . S
Cd331 O330 2.223 . S
Cd331 O334 2.297 . S
Cd331 O335 2.439 . S
Cd331 O341 2.240 . S
Cd332 O333 2.240 . S
Cd332 O340 2.223 . S
Cd332 O342 2.297 . S
Cd332 O343 2.439 . S
O333 Cd332 2.240 . S
O333 C338 1.279 . S
O334 Cd331 2.297 . S
O334 C336 1.247 . S
O335 Cd331 2.439 . S
O335 C336 1.208 . S
C336 O334 1.247 . S
C336 O335 1.208 . S
C337 O342 1.247 . S
C337 O343 1.208 . S
C338 O330 1.315 . S
C338 O333 1.279 . S
C339 O340 1.315 . S
C339 O341 1.279 . S
O340 Cd332 2.223 . S
O340 C339 1.315 . S
O341 Cd331 2.240 . S
O341 C339 1.279 . S
O342 Cd332 2.297 . S
O342 C337 1.247 . S
O343 Cd332 2.439 . S
O343 C337 1.208 . S
O344 Cd345 2.223 . S
O344 C352 1.315 . S
Cd345 O344 2.223 . S
Cd345 O348 2.297 . S
Cd345 O349 2.439 . S
Cd345 O355 2.240 . S
Cd346 O347 2.240 . S
Cd346 O354 2.223 . S
Cd346 O356 2.297 . S
Cd346 O357 2.439 . S
O347 Cd346 2.240 . S
O347 C352 1.279 . S
O348 Cd345 2.297 . S
O348 C350 1.247 . S
O349 Cd345 2.439 . S
O349 C350 1.208 . S
C350 O348 1.247 . S
C350 O349 1.208 . S
C351 O356 1.247 . S
C351 O357 1.208 . S
C352 O344 1.315 . S
C352 O347 1.279 . S
C353 O354 1.315 . S
C353 O355 1.279 . S
O354 Cd346 2.223 . S
O354 C353 1.315 . S
O355 Cd345 2.240 . S
O355 C353 1.279 . S
O356 Cd346 2.297 . S
O356 C351 1.247 . S
O357 Cd346 2.439 . S
O357 C351 1.208 . S
O358 Cd359 2.223 . S
O358 C366 1.315 . S
Cd359 O358 2.223 . S
Cd359 O362 2.297 . S
Cd359 O363 2.439 . S
Cd359 O369 2.240 . S
Cd360 O361 2.240 . S
Cd360 O368 2.223 . S
Cd360 O370 2.297 . S
Cd360 O371 2.439 . S
O361 Cd360 2.240 . S
O361 C366 1.279 . S
O362 Cd359 2.297 . S
O362 C364 1.247 . S
O363 Cd359 2.439 . S
O363 C364 1.208 . S
C364 O362 1.247 . S
C364 O363 1.208 . S
C365 O370 1.247 . S
C365 O371 1.208 . S
C366 O358 1.315 . S
C366 O361 1.279 . S
C367 O368 1.315 . S
C367 O369 1.279 . S
O368 Cd360 2.223 . S
O368 C367 1.315 . S
O369 Cd359 2.240 . S
O369 C367 1.279 . S
O370 Cd360 2.297 . S
O370 C365 1.247 . S
O371 Cd360 2.439 . S
O371 C365 1.208 . S
C372 C373 1.170 . S
C372 C374 1.380 . S
C373 C372 1.170 . S
C374 C372 1.380 . S
C374 C375 1.170 . S
C375 C374 1.170 . S
C376 C377 1.170 . S
C376 C378 1.380 . S
C377 C376 1.170 . S
C378 C376 1.380 . S
C378 C379 1.170 . S
C379 C378 1.170 . S
C380 C381 1.170 . S
C380 C382 1.380 . S
C381 C380 1.170 . S
C382 C380 1.380 . S
C382 C383 1.170 . S
C383 C382 1.170 . S
C384 C385 1.170 . S
C384 C386 1.380 . S
C385 C384 1.170 . S
C386 C384 1.380 . S
C386 C387 1.170 . S
C387 C386 1.170 . S
C388 C389 1.170 . S
C388 C390 1.380 . S
C389 C388 1.170 . S
C390 C388 1.380 . S
C390 C391 1.170 . S
C391 C390 1.170 . S
C392 C393 1.170 . S
C392 C394 1.380 . S
C393 C392 1.170 . S
C394 C392 1.380 . S
C394 C395 1.170 . S
C395 C394 1.170 . S
C396 C397 1.170 . S
C396 C398 1.380 . S
C397 C396 1.170 . S
C398 C396 1.380 . S
C398 C399 1.170 . S
C399 C398 1.170 . S
C400 C401 1.170 . S
C400 C402 1.380 . S
C401 C400 1.170 . S
C402 C400 1.380 . S
C402 C403 1.170 . S
C403 C402 1.170 . S
C404 C405 1.170 . S
C404 C406 1.380 . S
C405 C404 1.170 . S
C406 C404 1.380 . S
C406 C407 1.170 . S
C407 C406 1.170 . S
C408 C409 1.170 . S
C408 C410 1.380 . S
C409 C408 1.170 . S
C410 C408 1.380 . S
C410 C411 1.170 . S
C411 C410 1.170 . S
C412 C413 1.170 . S
C412 C414 1.380 . S
C413 C412 1.170 . S
C414 C412 1.380 . S
C414 C415 1.170 . S
C415 C414 1.170 . S
C416 C417 1.170 . S
C416 C418 1.380 . S
C417 C416 1.170 . S
C418 C416 1.380 . S
C418 C419 1.170 . S
C419 C418 1.170 . S
C420 C421 1.170 . S
C420 C422 1.380 . S
C421 C420 1.170 . S
C422 C420 1.380 . S
C422 C423 1.170 . S
C423 C422 1.170 . S
C424 C425 1.170 . S
C424 C426 1.380 . S
C425 C424 1.170 . S
C426 C424 1.380 . S
C426 C427 1.170 . S
C427 C426 1.170 . S
C428 C429 1.170 . S
C428 C430 1.380 . S
C429 C428 1.170 . S
C430 C428 1.380 . S
C430 C431 1.170 . S
C431 C430 1.170 . S
C432 C433 1.170 . S
C432 C434 1.380 . S
C433 C432 1.170 . S
C434 C432 1.380 . S
C434 C435 1.170 1_556 S
C435 C434 1.170 1_554 S
C436 C437 1.170 . S
C436 C438 1.380 . S
C437 C436 1.170 . S
C438 C436 1.380 . S
C438 C439 1.170 . S
C439 C438 1.170 . S
C440 C441 1.170 . S
C440 C442 1.380 . S
C441 C440 1.170 . S
C442 C440 1.380 . S
C442 C443 1.170 . S
C443 C442 1.170 . S
C444 C445 1.170 . S
C444 C446 1.380 . S
C445 C444 1.170 . S
C446 C444 1.380 . S
C446 C447 1.170 . S
C447 C446 1.170 . S
C448 C449 1.170 . S
C448 C450 1.380 . S
C449 C448 1.170 . S
C450 C448 1.380 . S
C450 C451 1.170 . S
C451 C450 1.170 . S
C452 C453 1.170 . S
C452 C454 1.380 . S
C453 C452 1.170 . S
C454 C452 1.380 . S
C454 C455 1.170 . S
C455 C454 1.170 . S
C456 C457 1.170 . S
C456 C458 1.380 . S
C457 C456 1.170 . S
C458 C456 1.380 . S
C458 C459 1.170 . S
C459 C458 1.170 . S
C460 C461 1.170 . S
C460 C462 1.380 1_554 S
C461 C460 1.170 . S
C462 C460 1.380 1_556 S
C462 C463 1.170 . S
C463 C462 1.170 . S
C464 C465 1.170 . S
C464 C466 1.380 . S
C465 C464 1.170 . S
C466 C464 1.380 . S
C466 C467 1.170 . S
C467 C466 1.170 . S
C375 C365 1.486 . S
C373 C45 1.519 . S
C377 C84 1.516 . S
C379 C294 1.492 . S
C381 C126 1.491 . S
C383 C308 1.489 . S
C385 C189 1.511 . S
C387 C322 1.478 . S
C391 C336 1.484 . S
C389 C228 1.498 . S
C393 C270 1.489 . S
C395 C351 1.486 . S
C397 C69 1.508 . S
C399 C309 1.480 . S
C401 C141 1.517 . S
C403 C323 1.469 . S
C405 C174 1.507 . S
C407 C337 1.493 . S
C411 C350 1.498 . S
C409 C213 1.499 . S
C415 C364 1.480 . S
C413 C285 1.510 . S
C419 C295 1.476 . S
C417 C30 1.495 . S
C421 C36 1.566 . S
C423 C311 1.536 . S
C425 C93 1.571 . S
C427 C325 1.546 . S
C431 C339 1.541 . S
C429 C117 1.546 . S
C433 C180 1.574 . S
C435 C352 1.521 . S
C439 C366 1.525 . S
C437 C237 1.573 . S
C443 C297 1.519 . S
C441 C261 1.564 . S
C447 C367 1.540 . S
C445 C78 1.540 . S
C449 C132 1.569 . S
C451 C296 1.528 . S
C455 C310 1.545 . S
C453 C165 1.544 . S
C457 C222 1.548 . S
C459 C324 1.519 . S
C461 C276 1.564 . S
C463 C338 1.538 . S
C465 C21 1.541 . S
C467 C353 1.548 . S
