# Generated by pormake.
# Topology pth, (4,4)-cn, num edge types: 1
# Building blocks:
#     Node 0, Type 0, BuildingBlock: GALJAG_clean_sbu_0, # of connection points: 4
#     Node 1, Type 0, BuildingBlock: GALJAG_clean_sbu_0, # of connection points: 4
#     Node 2, Type 0, BuildingBlock: GALJAG_clean_sbu_0, # of connection points: 4
#     Node 3, Type 1, BuildingBlock: MUDLON_clean_linker_0, # of connection points: 4
#     Node 4, Type 1, BuildingBlock: MUDLON_clean_linker_0, # of connection points: 4
#     Node 5, Type 1, BuildingBlock: MUDLON_clean_linker_0, # of connection points: 4
#     Edge 6, Type (0, 1), BuildingBlock: XIVTED_clean_linker_0, # of connection points: 2
#     Edge 7, Type (0, 1), BuildingBlock: XIVTED_clean_linker_0, # of connection points: 2
#     Edge 8, Type (0, 1), BuildingBlock: XIVTED_clean_linker_0, # of connection points: 2
#     Edge 9, Type (0, 1), BuildingBlock: XIVTED_clean_linker_0, # of connection points: 2
#     Edge 10, Type (0, 1), BuildingBlock: XIVTED_clean_linker_0, # of connection points: 2
#     Edge 11, Type (0, 1), BuildingBlock: XIVTED_clean_linker_0, # of connection points: 2
#     Edge 12, Type (0, 1), BuildingBlock: XIVTED_clean_linker_0, # of connection points: 2
#     Edge 13, Type (0, 1), BuildingBlock: XIVTED_clean_linker_0, # of connection points: 2
#     Edge 14, Type (0, 1), BuildingBlock: XIVTED_clean_linker_0, # of connection points: 2
#     Edge 15, Type (0, 1), BuildingBlock: XIVTED_clean_linker_0, # of connection points: 2
#     Edge 16, Type (0, 1), BuildingBlock: XIVTED_clean_linker_0, # of connection points: 2
#     Edge 17, Type (0, 1), BuildingBlock: XIVTED_clean_linker_0, # of connection points: 2
# Relax obj value: 0.015
# Max RMSD: 0.066
# Mean RMSD: 0.062
data_MOF--net-pth--node1-GALJAG_clean_sbu_0--node2-MUDLON_clean_linker_0--edge1-XIVTED_clean_linker_0
_symmetry_space_group_name_H-M    P1
_symmetry_Int_Tables_number       1
_symmetry_cell_setting            triclinic
loop_
_symmetry_equiv_pos_as_xyz
'x, y, z'
_cell_length_a     34.387592
_cell_length_b     34.420302
_cell_length_c     66.950042
_cell_angle_alpha  90.096943
_cell_angle_beta   90.094487
_cell_angle_gamma 120.15146
loop_
_atom_site_label
_atom_site_type_symbol
_atom_site_fract_x
_atom_site_fract_y
_atom_site_fract_z
_atom_type_partial_charge
In0 In -6e-05 0.00302 0.0372 0.0
O1 O 0.97635 0.05008 0.04924 0.0
O2 O 0.0318 0.05043 0.06347 0.0
C3 C 0.93243 0.95077 0.01206 0.0
C4 C 0.06784 0.05588 0.01244 0.0
C5 C 0.99239 0.93642 0.06086 0.0
O6 O 0.92895 0.9761 0.02474 0.0
O7 O 0.96994 0.95244 0.01198 0.0
O8 O 0.0256 0.95802 0.04941 0.0
O9 O 0.96366 0.94897 0.06055 0.0
C10 C 0.00601 0.06652 0.06275 0.0
O11 O 0.07193 0.03206 0.02568 0.0
O12 O 0.02966 0.05256 0.01166 0.0
In13 In 0.98792 0.99539 0.36714 0.0
O14 O 0.03022 0.06906 0.35776 0.0
O15 O 0.96493 0.03029 0.34522 0.0
C16 C 0.05415 -0.00015 0.3903 0.0
C17 C 0.92351 0.98878 0.39215 0.0
C18 C 0.97485 0.92761 0.34237 0.0
O19 O 0.06161 0.02737 0.37636 0.0
O20 O 0.01338 0.97017 0.39251 0.0
O21 O 0.95043 0.92159 0.35738 0.0
O22 O 0.00541 0.96772 0.33974 0.0
C23 C 0.00054 0.0679 0.34628 0.0
O24 O 0.9147 0.97117 0.37499 0.0
O25 O 0.9647 0.00969 0.39669 0.0
In26 In 0.0084 0.01728 0.70363 0.0
O27 O 0.96983 0.94665 0.71709 0.0
O28 O 0.94924 0.99399 0.72433 0.0
C29 C 0.07329 0.0182 0.68098 0.0
C30 C 0.95427 0.02217 0.67599 0.0
C31 C 0.06281 0.07332 0.7321 0.0
O32 O 0.04344 0.98255 0.68922 0.0
O33 O 0.06962 0.05241 0.68396 0.0
O34 O 0.04644 0.08651 0.71854 0.0
O35 O 0.0508 0.03215 0.73139 0.0
C36 C 0.94255 0.95466 0.72638 0.0
O37 O 0.97399 0.0525 0.68909 0.0
O38 O 0.96319 0.99084 0.67662 0.0
H39 H 0.86126 0.60813 0.21678 0.0
N40 N 0.92756 0.60015 0.2009 0.0
H41 H 0.86629 0.65672 0.24462 0.0
H42 H -0.00092 0.64339 0.22711 0.0
H43 H 0.00393 0.69088 0.25487 0.0
H44 H 0.00235 0.68253 0.19415 0.0
H45 H 0.01329 0.73307 0.1667 0.0
H46 H 0.87453 0.58361 0.16932 0.0
H47 H 0.88541 0.63442 0.1415 0.0
H48 H 0.88199 0.51145 0.20438 0.0
H49 H 0.0162 0.62325 0.19625 0.0
H50 H 0.91134 0.45985 0.20396 0.0
H51 H 0.04615 0.57299 0.19731 0.0
H52 H 0.98453 0.31527 0.21398 0.0
H53 H 0.97716 0.26803 0.24212 0.0
H54 H 0.10638 0.37094 0.26458 0.0
H55 H 0.11435 0.41772 0.23551 0.0
H56 H 0.12393 0.39041 0.18734 0.0
H57 H 0.11766 0.34097 0.15971 0.0
H58 H 0.97591 0.29615 0.15454 0.0
H59 H 0.98305 0.34697 0.1816 0.0
H60 H 0.98156 0.38528 0.22419 0.0
H61 H 0.95104 0.4348 0.22269 0.0
H62 H 0.05393 0.51894 0.18034 0.0
N63 N 0.05799 0.39674 0.2047 0.0
H64 H 0.08658 0.4706 0.18306 0.0
C65 C 0.92955 0.62195 0.21965 0.0
C66 C 0.89212 0.62528 0.22538 0.0
C67 C 0.89506 0.65299 0.24129 0.0
C68 C 0.93573 0.67807 0.25176 0.0
C69 C 0.97238 0.67257 0.24684 0.0
C70 C 0.96943 0.64492 0.23095 0.0
C71 C 0.93744 0.62896 0.18377 0.0
C72 C 0.977 0.67116 0.18257 0.0
C73 C 0.98331 0.70015 0.16679 0.0
C74 C 0.95017 0.68779 0.15195 0.0
C75 C 0.91134 0.64505 0.15283 0.0
C76 C 0.90517 0.61593 0.16859 0.0
C77 C 0.94662 0.57118 0.2006 0.0
C78 C 0.91783 0.52486 0.20273 0.0
C79 C 0.93481 0.49552 0.20264 0.0
C80 C 0.98132 0.51208 0.20074 0.0
C81 C 0.01011 0.55868 0.19847 0.0
C82 C 0.99296 0.58779 0.19813 0.0
C83 C 0.0504 0.37012 0.22248 0.0
C84 C 0.01137 0.3279 0.22488 0.0
C85 C 0.00692 0.30101 0.24123 0.0
C86 C 0.04117 0.31561 0.25569 0.0
C87 C 0.07959 0.35842 0.2536 0.0
C88 C 0.08409 0.38533 0.23712 0.0
C89 C 0.0541 0.37215 0.18661 0.0
C90 C 0.09181 0.37057 0.17991 0.0
C91 C 0.08799 0.34198 0.16428 0.0
C92 C 0.04609 0.314 0.15512 0.0
C93 C 0.00873 0.31738 0.16115 0.0
C94 C 0.01269 0.34629 0.17671 0.0
C95 C 0.03722 0.42433 0.20385 0.0
C96 C 0.9981 0.41434 0.21464 0.0
C97 C 0.98008 0.44272 0.2136 0.0
C98 C -0.0001 0.48119 0.20143 0.0
C99 C 0.03822 0.49035 0.19027 0.0
C100 C 0.0568 0.46252 0.19165 0.0
H101 H 0.68838 0.03468 0.54576 0.0
N102 N 0.61079 0.9549 0.53904 0.0
H103 H 0.7436 0.04947 0.572 0.0
H104 H 0.60007 0.90391 0.57064 0.0
H105 H 0.65485 0.91872 0.59726 0.0
H106 H 0.62388 0.88907 0.52672 0.0
H107 H 0.67266 0.89164 0.49947 0.0
H108 H 0.6513 0.02208 0.51133 0.0
H109 H 0.69933 0.02438 0.48377 0.0
H110 H 0.61369 0.02746 0.55895 0.0
H111 H 0.53917 0.92321 0.51531 0.0
H112 H 0.5593 0.05193 0.55643 0.0
H113 H 0.48576 0.94965 0.51185 0.0
H114 H 0.37124 0.11928 0.55042 0.0
H115 H 0.32484 0.11114 0.5794 0.0
H116 H 0.30224 0.97711 0.58884 0.0
H117 H 0.34691 0.98486 0.55951 0.0
H118 H 0.30705 0.97757 0.5262 0.0
H119 H 0.25411 0.96268 0.4992 0.0
H120 H 0.33938 0.09751 0.47703 0.0
H121 H 0.39367 0.11117 0.50365 0.0
H122 H 0.47282 0.10992 0.53737 0.0
H123 H 0.5305 0.0882 0.53695 0.0
H124 H 0.42675 0.94931 0.52898 0.0
N125 N 0.38457 0.05715 0.53375 0.0
H126 H 0.37035 0.97165 0.5282 0.0
C127 C 0.64013 0.96792 0.55623 0.0
C128 C 0.68049 0.00953 0.55714 0.0
C129 C 0.71192 0.01805 0.57222 0.0
C130 C 0.70375 0.98506 0.58657 0.0
C131 C 0.66233 0.94453 0.58624 0.0
C132 C 0.63087 0.93612 0.57119 0.0
C133 C 0.63378 0.9551 0.521 0.0
C134 C 0.63956 0.9183 0.51714 0.0
C135 C 0.6675 0.91992 0.5017 0.0
C136 C 0.68971 0.95826 0.48964 0.0
C137 C 0.68223 0.99433 0.4928 0.0
C138 C 0.65482 0.99301 0.5085 0.0
C139 C 0.58093 0.97304 0.53721 0.0
C140 C 0.58625 0.01004 0.54852 0.0
C141 C 0.55497 0.02449 0.54697 0.0
C142 C 0.51791 0.00284 0.53395 0.0
C143 C 0.51328 0.96666 0.52234 0.0
C144 C 0.54409 0.95174 0.52414 0.0
C145 C 0.36292 0.05306 0.55271 0.0
C146 C 0.35691 0.0885 0.559 0.0
C147 C 0.33047 0.08376 0.57563 0.0
C148 C 0.30955 0.04332 0.58647 0.0
C149 C 0.3172 0.00844 0.58067 0.0
C150 C 0.34335 0.01309 0.56391 0.0
C151 C 0.35478 0.04552 0.51682 0.0
C152 C 0.31516 0.00352 0.51523 0.0
C153 C 0.28442 0.99528 0.4999 0.0
C154 C 0.29211 0.02904 0.48601 0.0
C155 C 0.33251 0.07051 0.48727 0.0
C156 C 0.36352 0.07851 0.5025 0.0
C157 C 0.41728 0.04268 0.53298 0.0
C158 C 0.46279 0.07488 0.53537 0.0
C159 C 0.4956 0.06228 0.53529 0.0
C160 C 0.48341 0.01687 0.53304 0.0
C161 C 0.43767 0.98467 0.53042 0.0
C162 C 0.40504 0.99744 0.53019 0.0
H163 H 0.62319 0.752 0.88138 0.0
N164 N 0.61093 0.67532 0.8662 0.0
H165 H 0.67178 0.79471 0.90942 0.0
H166 H 0.65174 0.64541 0.89252 0.0
H167 H 0.69887 0.68695 0.92076 0.0
H168 H 0.69376 0.68377 0.85984 0.0
H169 H 0.74411 0.72233 0.83217 0.0
H170 H 0.59301 0.70757 0.8336 0.0
H171 H 0.64326 0.74575 0.80541 0.0
H172 H 0.52444 0.63297 0.87575 0.0
H173 H 0.63099 0.60884 0.85792 0.0
H174 H 0.47246 0.55175 0.87756 0.0
H175 H 0.57981 0.52831 0.85994 0.0
H176 H 0.33325 0.35263 0.8879 0.0
H177 H 0.28068 0.30844 0.91406 0.0
H178 H 0.35461 0.23914 0.92407 0.0
H179 H 0.4083 0.28507 0.89819 0.0
H180 H 0.39124 0.27036 0.85367 0.0
H181 H 0.33706 0.2294 0.82703 0.0
H182 H 0.29555 0.32894 0.82751 0.0
H183 H 0.35099 0.37045 0.8536 0.0
H184 H 0.41035 0.40766 0.90072 0.0
H185 H 0.46059 0.48765 0.89809 0.0
H186 H 0.51414 0.46828 0.84311 0.0
N187 N 0.40193 0.34203 0.87347 0.0
H188 H 0.46365 0.38735 0.84568 0.0
C189 C 0.63366 0.6956 0.88475 0.0
C190 C 0.63895 0.73733 0.89021 0.0
C191 C 0.66662 0.76157 0.90626 0.0
C192 C 0.68957 0.74441 0.9172 0.0
C193 C 0.68229 0.70146 0.9124 0.0
C194 C 0.65484 0.67738 0.89631 0.0
C195 C 0.63946 0.69302 0.84887 0.0
C196 C 0.68203 0.69654 0.84794 0.0
C197 C 0.71084 0.71844 0.83198 0.0
C198 C 0.69783 0.73735 0.81662 0.0
C199 C 0.65452 0.73207 0.81715 0.0
C200 C 0.62568 0.71008 0.83314 0.0
C201 C 0.58143 0.62723 0.86657 0.0
C202 C 0.53654 0.61018 0.87219 0.0
C203 C 0.50707 0.56387 0.87333 0.0
C204 C 0.52204 0.53362 0.86887 0.0
C205 C 0.56706 0.55071 0.86317 0.0
C206 C 0.59649 0.597 0.86205 0.0
C207 C 0.3751 0.32238 0.89115 0.0
C208 C 0.33877 0.32864 0.89597 0.0
C209 C 0.30843 0.30297 0.91086 0.0
C210 C 0.31295 0.26967 0.92098 0.0
C211 C 0.35031 0.26474 0.91673 0.0
C212 C 0.38104 0.29092 0.90196 0.0
C213 C 0.37489 0.32305 0.85573 0.0
C214 C 0.37109 0.28374 0.84768 0.0
C215 C 0.33982 0.26023 0.83263 0.0
C216 C 0.3114 0.27549 0.82541 0.0
C217 C 0.31698 0.31633 0.8327 0.0
C218 C 0.34848 0.33996 0.84771 0.0
C219 C 0.43142 0.39049 0.87287 0.0
C220 C 0.43181 0.41981 0.88777 0.0
C221 C 0.46097 0.46614 0.88636 0.0
C222 C 0.49096 0.4844 0.87028 0.0
C223 C 0.4915 0.45528 0.85572 0.0
C224 C 0.46237 0.409 0.8571 0.0
H225 H 0.06455 0.10293 0.09386 0.0
H226 H 0.99427 0.28598 0.12091 0.0
H227 H 0.96009 0.11263 0.06244 0.0
H228 H 0.08512 0.26169 0.1562 0.0
H229 H 0.98364 0.2255 0.0982 0.0
H230 H 0.07494 0.16404 0.11577 0.0
C231 C 0.04369 0.11789 0.09161 0.0
C232 C 0.01135 0.10266 0.07634 0.0
C233 C 0.00599 0.23359 0.11089 0.0
C234 C 0.0232 0.17293 0.10134 0.0
C235 C 0.012 0.26802 0.12389 0.0
C236 C 0.0408 0.27915 0.14047 0.0
C237 C 0.02896 0.21015 0.11451 0.0
C238 C 0.06327 0.25501 0.14344 0.0
C239 C 0.04965 0.15283 0.10412 0.0
C240 C 0.98532 0.12333 0.07408 0.0
N241 N 0.05683 0.22172 0.13062 0.0
N242 N 0.99186 0.15753 0.08644 0.0
H243 H 0.83719 0.96676 0.38322 0.0
H244 H 0.7605 0.94569 0.49626 0.0
H245 H 0.9301 0.00143 0.43245 0.0
H246 H 0.69556 0.97964 0.44991 0.0
H247 H 0.81753 0.95349 0.47222 0.0
H248 H 0.7792 0.95953 0.40675 0.0
C249 C 0.8453 0.97278 0.39897 0.0
C250 C 0.88838 0.98472 0.40596 0.0
C251 C 0.79079 0.95921 0.46731 0.0
C252 C 0.82243 0.97593 0.43279 0.0
C253 C 0.75817 0.95447 0.48095 0.0
C254 C 0.72339 0.96193 0.47496 0.0
C255 C 0.78816 0.97072 0.44747 0.0
C256 C 0.72203 0.97375 0.45504 0.0
C257 C 0.81236 0.96884 0.41232 0.0
C258 C 0.89732 0.99232 0.42647 0.0
N259 N 0.75386 0.97748 0.4419 0.0
N260 N 0.86447 0.9874 0.43921 0.0
H261 H 0.8775 0.96417 0.74482 0.0
H262 H 0.75907 0.72245 0.79662 0.0
H263 H 0.92203 0.86852 0.73558 0.0
H264 H 0.71223 0.81727 0.80161 0.0
H265 H 0.81762 0.77367 0.77355 0.0
H266 H 0.81571 0.90923 0.76509 0.0
C267 C 0.87426 0.93151 0.74707 0.0
C268 C 0.90506 0.92094 0.73857 0.0
C269 C 0.79427 0.78304 0.77958 0.0
C270 C 0.83409 0.8576 0.76184 0.0
C271 C 0.76093 0.7539 0.79279 0.0
C272 C 0.7307 0.7656 0.8011 0.0
C273 C 0.79754 0.82426 0.77475 0.0
C274 C 0.73436 0.80652 0.79541 0.0
C275 C 0.83883 0.90005 0.75862 0.0
C276 C 0.89905 0.87803 0.74192 0.0
N277 N 0.7673 0.83442 0.78272 0.0
N278 N 0.86429 0.8479 0.75339 0.0
H279 H 0.05179 0.90632 0.06646 0.0
H280 H 0.88586 0.70606 0.13868 0.0
H281 H 0.91987 0.88037 0.08348 0.0
H282 H 0.02525 0.7451 0.13042 0.0
H283 H 0.8955 0.76466 0.11538 0.0
H284 H 0.04086 0.84305 0.08724 0.0
C285 C 0.02056 0.8873 0.07457 0.0
C286 C 0.98675 0.89866 0.07334 0.0
C287 C 0.92395 0.76031 0.11857 0.0
C288 C 0.9739 0.82626 0.09695 0.0
C289 C 0.91836 0.72656 0.13174 0.0
C290 C 0.95484 0.72072 0.13652 0.0
C291 C 0.96631 0.78843 0.11005 0.0
C292 C 0.99637 0.7488 0.12731 0.0
C293 C 0.01433 0.85124 0.08641 0.0
C294 C 0.94689 0.87289 0.08409 0.0
N295 N 0.00102 0.78153 0.11455 0.0
N296 N 0.94157 0.83789 0.09542 0.0
H297 H 0.14517 0.05465 0.38635 0.0
H298 H 0.20071 0.98379 0.49115 0.0
H299 H 0.04473 0.95164 0.42403 0.0
H300 H 0.30289 0.0589 0.4471 0.0
H301 H 0.14336 0.97452 0.46722 0.0
H302 H 0.20383 0.06005 0.40896 0.0
C303 C 0.1355 0.03312 0.39935 0.0
C304 C 0.09007 0.00272 0.40338 0.0
C305 C 0.1783 0.99279 0.46273 0.0
C306 C 0.15677 0.00887 0.42928 0.0
C307 C 0.21118 0.99785 0.47636 0.0
C308 C 0.2569 0.02197 0.47116 0.0
C309 C 0.19103 0.01237 0.44376 0.0
C310 C 0.26819 0.04049 0.45189 0.0
C311 C 0.16896 0.03613 0.4122 0.0
C312 C 0.07936 0.97553 0.42038 0.0
N313 N 0.23549 0.03546 0.43892 0.0
N314 N 0.11244 0.97944 0.43277 0.0
H315 H 0.09436 0.05 0.76441 0.0
H316 H 0.28046 0.30194 0.79312 0.0
H317 H 0.10704 0.1656 0.73339 0.0
H318 H 0.25639 0.18443 0.82626 0.0
H319 H 0.21725 0.25373 0.77109 0.0
H320 H 0.15352 0.0998 0.78737 0.0
C321 C 0.10945 0.08598 0.76252 0.0
C322 C 0.09588 0.10373 0.74696 0.0
C323 C 0.2259 0.2386 0.78319 0.0
C324 C 0.16417 0.16118 0.77314 0.0
C325 C 0.2619 0.26607 0.79578 0.0
C326 C 0.27406 0.24718 0.81146 0.0
C327 C 0.20191 0.19195 0.78634 0.0
C328 C 0.24897 0.20046 0.81413 0.0
C329 C 0.14332 0.11446 0.77564 0.0
C330 C 0.11652 0.1506 0.74524 0.0
N331 N 0.21424 0.17456 0.8017 0.0
N332 N 0.14993 0.1778 0.75812 0.0
H333 H 0.92513 0.08302 0.67186 0.0
H334 H 0.72863 0.92377 0.59621 0.0
H335 H 0.90557 0.95741 0.64856 0.0
H336 H 0.76187 0.06028 0.6083 0.0
H337 H 0.79051 0.93455 0.61763 0.0
H338 H 0.86381 0.07529 0.65021 0.0
C339 C 0.90822 0.05408 0.66208 0.0
C340 C 0.92036 0.02077 0.66201 0.0
C341 C 0.78434 0.96222 0.61566 0.0
C342 C 0.85018 0.01146 0.63754 0.0
C343 C 0.74864 0.9559 0.60359 0.0
C344 C 0.73987 0.99109 0.60056 0.0
C345 C 0.8116 0.00402 0.6249 0.0
C346 C 0.76764 0.03234 0.61017 0.0
C347 C 0.87324 0.04964 0.64979 0.0
C348 C 0.89733 0.98389 0.64913 0.0
N349 N 0.80227 0.03768 0.62197 0.0
N350 N 0.86325 0.98013 0.63753 0.0
H351 H 0.84801 0.94015 0.00894 0.0
H352 H 0.77203 0.75293 0.92332 0.0
H353 H 0.93266 0.89243 0.98466 0.0
H354 H 0.68582 0.80108 0.9453 0.0
H355 H 0.82981 0.80197 0.94693 0.0
H356 H 0.78715 0.88849 0.98661 0.0
C357 C 0.85378 0.91887 -0.00111 0.0
C358 C 0.89541 0.92059 -0.0014 0.0
C359 C 0.79823 0.80177 0.94669 0.0
C360 C 0.82616 0.86148 0.97316 0.0
C361 C 0.76496 0.77339 0.93331 0.0
C362 C 0.72381 0.77264 0.93237 0.0
C363 C 0.79058 0.82991 0.95928 0.0
C364 C 0.71717 0.80083 0.94539 0.0
C365 C 0.81906 0.88938 0.98619 0.0
C366 C 0.90113 0.89227 0.98535 0.0
N367 N 0.75024 0.82839 0.95831 0.0
N368 N 0.86692 0.86392 0.97319 0.0
H369 H 0.02778 0.93209 0.31119 0.0
H370 H 0.87698 0.67274 0.28098 0.0
H371 H 0.90865 0.83908 0.34362 0.0
H372 H 0.00682 0.76329 0.25547 0.0
H373 H 0.88597 0.7331 0.30344 0.0
H374 H 0.01852 0.87055 0.28979 0.0
C375 C -0.00041 0.89868 0.31377 0.0
C376 C 0.96892 0.89064 0.32918 0.0
C377 C 0.91258 0.73958 0.293 0.0
C378 C 0.95808 0.81992 0.30475 0.0
C379 C 0.90741 0.70522 0.28016 0.0
C380 C 0.9413 0.71291 0.26641 0.0
C381 C 0.95171 0.782 0.29192 0.0
C382 C 0.98014 0.75557 0.26605 0.0
C383 C 0.99438 0.8635 0.3016 0.0
C384 C 0.93306 0.84667 0.33189 0.0
N385 N 0.98417 0.78849 0.27853 0.0
N386 N 0.92855 0.81291 0.31976 0.0
H387 H 0.14913 0.09338 0.66901 0.0
H388 H 0.23001 0.96696 0.59566 0.0
H389 H 0.0815 0.94872 0.66544 0.0
H390 H 0.31556 0.10462 0.61449 0.0
H391 H 0.17469 0.95892 0.62057 0.0
H392 H 0.20924 0.09798 0.6481 0.0
C393 C 0.14699 0.06252 0.66383 0.0
C394 C 0.11019 0.02058 0.66886 0.0
C395 C 0.20578 0.99072 0.61936 0.0
C396 C 0.17889 0.02563 0.64481 0.0
C397 C 0.2376 0.99533 0.60522 0.0
C398 C 0.27757 0.03669 0.60283 0.0
C399 C 0.21366 0.02785 0.63106 0.0
C400 C 0.28493 0.07239 0.61546 0.0
C401 C 0.18145 0.06518 0.65197 0.0
C402 C 0.1093 0.98171 0.66186 0.0
N403 N 0.25312 0.06726 0.62888 0.0
N404 N 0.14301 0.98516 0.65 0.0
H405 H 0.15639 0.07793 0.01385 0.0
H406 H 0.22204 0.23279 0.9167 0.0
H407 H 0.06328 0.10264 0.98069 0.0
H408 H 0.32166 0.23373 0.95639 0.0
H409 H 0.16316 0.18066 0.93893 0.0
H410 H 0.21712 0.13005 0.99174 0.0
C411 C 0.14874 0.0942 0.00189 0.0
C412 C 0.10481 0.08605 -0.00092 0.0
C413 C 0.19788 0.19237 0.94286 0.0
C414 C 0.17379 0.14538 0.97383 0.0
C415 C 0.23166 0.2225 0.93023 0.0
C416 C 0.27707 0.23824 0.93477 0.0
C417 C 0.2093 0.17733 0.96016 0.0
C418 C 0.28715 0.22237 0.95223 0.0
C419 C 0.18337 0.124 0.98934 0.0
C420 C 0.09668 0.10802 0.98341 0.0
N421 N 0.25351 0.19276 0.9643 0.0
N422 N 0.1308 0.13659 0.97137 0.0
H423 H 0.93639 0.07784 0.32694 0.0
H424 H 0.10783 0.3034 0.27187 0.0
H425 H 0.07867 0.14727 0.33977 0.0
H426 H 0.966 0.25734 0.27693 0.0
H427 H 0.09891 0.24647 0.29611 0.0
H428 H 0.94712 0.14219 0.3073 0.0
C429 C 0.96991 0.10672 0.32564 0.0
C430 C 0.00675 0.10724 0.3349 0.0
C431 C 0.06988 0.2492 0.29204 0.0
C432 C 0.01932 0.18088 0.31237 0.0
C433 C 0.07496 0.28189 0.27829 0.0
C434 C 0.0375 0.28494 0.27213 0.0
C435 C 0.02698 0.21902 0.2995 0.0
C436 C 0.99565 0.2556 0.28082 0.0
C437 C 0.97598 0.14353 0.31452 0.0
C438 C 0.0494 0.14559 0.33283 0.0
N439 N 0.99144 0.22358 0.29386 0.0
N440 N 0.05463 0.1808 0.32161 0.0
loop_
_geom_bond_atom_site_label_1
_geom_bond_atom_site_label_2
_geom_bond_distance
_geom_bond_site_symmetry_2
_ccdc_geom_bond_type
In0 O1 2.294 1_455 S
In0 O2 2.326 . S
In0 O6 2.266 1_445 S
In0 O7 2.326 1_445 S
In0 O8 2.266 1_545 S
In0 O9 2.326 1_445 S
In0 O11 2.294 . S
In0 O12 2.326 . S
O1 In0 2.294 1_655 S
O1 C10 1.240 1_655 S
O2 In0 2.326 . S
O2 C10 1.252 . S
C3 O6 1.252 . S
C3 O7 1.260 . S
C4 O11 1.240 . S
C4 O12 1.252 . S
C5 O8 1.234 1_655 S
C5 O9 1.290 . S
O6 In0 2.266 1_665 S
O6 C3 1.252 . S
O7 In0 2.326 1_665 S
O7 C3 1.260 . S
O8 In0 2.266 1_565 S
O8 C5 1.234 1_455 S
O9 In0 2.326 1_665 S
O9 C5 1.290 . S
C10 O1 1.240 1_455 S
C10 O2 1.252 . S
O11 In0 2.294 . S
O11 C4 1.240 . S
O12 In0 2.326 . S
O12 C4 1.252 . S
In13 O14 2.292 . S
In13 O15 2.308 1_455 S
In13 O19 2.288 . S
In13 O20 2.341 1_545 S
In13 O21 2.269 1_445 S
In13 O22 2.344 1_545 S
In13 O24 2.272 1_445 S
In13 O25 2.311 1_455 S
O14 In13 2.292 . S
O14 C23 1.240 1_455 S
O15 In13 2.308 1_655 S
O15 C23 1.252 . S
C16 O19 1.234 1_565 S
C16 O20 1.268 . S
C17 O24 1.240 1_545 S
C17 O25 1.252 . S
C18 O21 1.252 1_455 S
C18 O22 1.260 . S
O19 In13 2.288 . S
O19 C16 1.234 1_545 S
O20 In13 2.341 1_565 S
O20 C16 1.268 . S
O21 In13 2.269 1_665 S
O21 C18 1.252 1_655 S
O22 In13 2.344 1_565 S
O22 C18 1.260 . S
C23 O14 1.240 1_655 S
C23 O15 1.252 . S
O24 In13 2.272 1_665 S
O24 C17 1.240 1_565 S
O25 In13 2.311 1_655 S
O25 C17 1.252 . S
In26 O27 2.269 1_445 S
In26 O28 2.309 1_445 S
In26 O32 2.269 1_545 S
In26 O33 2.346 . S
In26 O34 2.291 . S
In26 O35 2.343 . S
In26 O37 2.291 1_455 S
In26 O38 2.306 1_445 S
O27 In26 2.269 1_665 S
O27 C36 1.240 . S
O28 In26 2.309 1_665 S
O28 C36 1.252 . S
C29 O32 1.252 1_545 S
C29 O33 1.260 . S
C30 O37 1.240 1_565 S
C30 O38 1.252 . S
C31 O34 1.252 . S
C31 O35 1.260 . S
O32 In26 2.269 1_565 S
O32 C29 1.252 1_565 S
O33 In26 2.346 . S
O33 C29 1.260 . S
O34 In26 2.291 . S
O34 C31 1.252 . S
O35 In26 2.343 . S
O35 C31 1.260 . S
C36 O27 1.240 . S
C36 O28 1.252 . S
O37 In26 2.291 1_655 S
O37 C30 1.240 1_545 S
O38 In26 2.306 1_665 S
O38 C30 1.252 . S
H39 C66 0.929 . S
N40 C65 1.433 . S
N40 C71 1.435 . S
N40 C77 1.423 . S
H41 C67 0.930 . S
H42 C70 0.931 . S
H43 C69 0.929 . S
H44 C72 0.930 . S
H45 C73 0.932 . S
H46 C76 0.929 . S
H47 C75 0.931 . S
H48 C78 0.929 . S
H49 C82 0.928 1_455 S
H50 C79 0.931 . S
H51 C81 0.929 1_455 S
H52 C84 0.929 . S
H53 C85 0.930 . S
H54 C87 0.929 . S
H55 C88 0.931 . S
H56 C90 0.930 . S
H57 C91 0.932 . S
H58 C93 0.931 . S
H59 C94 0.929 . S
H60 C96 0.929 . S
H61 C97 0.931 . S
H62 C99 0.929 1_455 S
N63 C83 1.433 . S
N63 C89 1.435 . S
N63 C95 1.423 . S
H64 C100 0.920 1_455 S
C65 N40 1.433 . S
C65 C66 1.363 . S
C65 C70 1.370 1_655 S
C66 H39 0.929 . S
C66 C65 1.363 . S
C66 C67 1.385 . S
C67 H41 0.930 . S
C67 C66 1.385 . S
C67 C68 1.357 . S
C68 C67 1.357 . S
C68 C69 1.406 1_655 S
C69 H43 0.929 . S
C69 C68 1.406 1_455 S
C69 C70 1.391 . S
C70 H42 0.931 . S
C70 C65 1.370 1_455 S
C70 C69 1.391 . S
C71 N40 1.435 . S
C71 C72 1.358 1_655 S
C71 C76 1.371 . S
C72 H44 0.930 . S
C72 C71 1.358 1_455 S
C72 C73 1.405 . S
C73 H45 0.932 . S
C73 C72 1.405 . S
C73 C74 1.389 . S
C74 C73 1.389 . S
C74 C75 1.390 1_455 S
C75 H47 0.931 . S
C75 C74 1.390 1_655 S
C75 C76 1.382 . S
C76 H46 0.929 . S
C76 C71 1.371 . S
C76 C75 1.382 . S
C77 N40 1.423 . S
C77 C78 1.362 . S
C77 C82 1.399 . S
C78 H48 0.929 . S
C78 C77 1.362 . S
C78 C79 1.376 . S
C79 H50 0.931 . S
C79 C78 1.376 . S
C79 C80 1.396 . S
C80 C79 1.396 . S
C80 C81 1.348 . S
C80 C98 1.472 . S
C81 H51 0.929 1_655 S
C81 C80 1.348 . S
C81 C82 1.437 . S
C82 H49 0.928 1_655 S
C82 C77 1.399 . S
C82 C81 1.437 . S
C83 N63 1.433 . S
C83 C84 1.363 . S
C83 C88 1.370 1_655 S
C84 H52 0.929 . S
C84 C83 1.363 . S
C84 C85 1.385 . S
C85 H53 0.930 . S
C85 C84 1.385 . S
C85 C86 1.357 . S
C86 C85 1.357 . S
C86 C87 1.406 1_655 S
C87 H54 0.929 . S
C87 C86 1.406 1_455 S
C87 C88 1.391 . S
C88 H55 0.931 . S
C88 C83 1.370 1_455 S
C88 C87 1.391 . S
C89 N63 1.435 . S
C89 C90 1.358 1_655 S
C89 C94 1.371 . S
C90 H56 0.930 . S
C90 C89 1.358 1_455 S
C90 C91 1.405 . S
C91 H57 0.932 . S
C91 C90 1.405 . S
C91 C92 1.390 . S
C92 C91 1.390 . S
C92 C93 1.381 1_455 S
C93 H58 0.931 . S
C93 C92 1.381 1_655 S
C93 C94 1.382 . S
C94 H59 0.929 . S
C94 C89 1.371 . S
C94 C93 1.382 . S
C95 N63 1.423 . S
C95 C96 1.362 . S
C95 C100 1.392 . S
C96 H60 0.929 . S
C96 C95 1.362 . S
C96 C97 1.376 . S
C97 H61 0.931 . S
C97 C96 1.376 . S
C97 C98 1.396 . S
C98 C80 1.472 . S
C98 C97 1.396 . S
C98 C99 1.348 . S
C99 H62 0.929 1_655 S
C99 C98 1.348 . S
C99 C100 1.452 . S
C100 H64 0.920 1_655 S
C100 C95 1.392 . S
C100 C99 1.452 . S
H101 C128 0.929 . S
N102 C127 1.433 . S
N102 C133 1.435 . S
N102 C139 1.423 . S
H103 C129 0.930 . S
H104 C132 0.931 . S
H105 C131 0.929 . S
H106 C134 0.930 . S
H107 C135 0.932 . S
H108 C138 0.929 . S
H109 C137 0.931 . S
H110 C140 0.929 . S
H111 C144 0.932 1_565 S
H112 C141 0.931 . S
H113 C143 0.929 1_565 S
H114 C146 0.929 . S
H115 C147 0.930 . S
H116 C149 0.929 . S
H117 C150 0.931 . S
H118 C152 0.930 . S
H119 C153 0.932 . S
H120 C155 0.931 . S
H121 C156 0.929 . S
H122 C158 0.929 . S
H123 C159 0.931 . S
H124 C161 0.929 1_565 S
N125 C145 1.433 . S
N125 C151 1.435 . S
N125 C157 1.423 . S
H126 C162 0.932 1_565 S
C127 N102 1.433 . S
C127 C128 1.363 . S
C127 C132 1.370 1_545 S
C128 H101 0.929 . S
C128 C127 1.363 . S
C128 C129 1.385 . S
C129 H103 0.930 . S
C129 C128 1.385 . S
C129 C130 1.357 . S
C130 C129 1.357 . S
C130 C131 1.406 1_545 S
C131 H105 0.929 . S
C131 C130 1.406 1_565 S
C131 C132 1.391 . S
C132 H104 0.931 . S
C132 C127 1.370 1_565 S
C132 C131 1.391 . S
C133 N102 1.435 . S
C133 C134 1.358 1_545 S
C133 C138 1.371 . S
C134 H106 0.930 . S
C134 C133 1.358 1_565 S
C134 C135 1.405 . S
C135 H107 0.932 . S
C135 C134 1.405 . S
C135 C136 1.383 1_565 S
C136 C135 1.383 1_545 S
C136 C137 1.393 . S
C137 H109 0.931 . S
C137 C136 1.393 . S
C137 C138 1.382 . S
C138 H108 0.929 . S
C138 C133 1.371 . S
C138 C137 1.382 . S
C139 N102 1.423 . S
C139 C140 1.362 . S
C139 C144 1.388 . S
C140 H110 0.929 . S
C140 C139 1.362 . S
C140 C141 1.376 . S
C141 H112 0.931 . S
C141 C140 1.376 . S
C141 C142 1.396 . S
C142 C141 1.396 . S
C142 C143 1.348 . S
C142 C160 1.472 . S
C143 H113 0.929 1_545 S
C143 C142 1.348 . S
C143 C144 1.443 . S
C144 H111 0.932 1_545 S
C144 C139 1.388 . S
C144 C143 1.443 . S
C145 N125 1.433 . S
C145 C146 1.363 . S
C145 C150 1.370 1_545 S
C146 H114 0.929 . S
C146 C145 1.363 . S
C146 C147 1.385 . S
C147 H115 0.930 . S
C147 C146 1.385 . S
C147 C148 1.357 . S
C148 C147 1.357 . S
C148 C149 1.406 1_545 S
C149 H116 0.929 . S
C149 C148 1.406 1_565 S
C149 C150 1.391 . S
C150 H117 0.931 . S
C150 C145 1.370 1_565 S
C150 C149 1.391 . S
C151 N125 1.435 . S
C151 C152 1.358 1_545 S
C151 C156 1.371 . S
C152 H118 0.930 . S
C152 C151 1.358 1_565 S
C152 C153 1.405 . S
C153 H119 0.932 . S
C153 C152 1.405 . S
C153 C154 1.383 1_565 S
C154 C153 1.383 1_545 S
C154 C155 1.393 . S
C155 H120 0.931 . S
C155 C154 1.393 . S
C155 C156 1.382 . S
C156 H121 0.929 . S
C156 C151 1.371 . S
C156 C155 1.382 . S
C157 N125 1.423 . S
C157 C158 1.362 . S
C157 C162 1.388 . S
C158 H122 0.929 . S
C158 C157 1.362 . S
C158 C159 1.376 . S
C159 H123 0.931 . S
C159 C158 1.376 . S
C159 C160 1.396 . S
C160 C142 1.472 . S
C160 C159 1.396 . S
C160 C161 1.348 . S
C161 H124 0.929 1_545 S
C161 C160 1.348 . S
C161 C162 1.443 . S
C162 H126 0.932 1_545 S
C162 C157 1.388 . S
C162 C161 1.443 . S
H163 C190 0.929 . S
N164 C189 1.433 . S
N164 C195 1.435 . S
N164 C201 1.423 . S
H165 C191 0.930 . S
H166 C194 0.931 . S
H167 C193 0.929 . S
H168 C196 0.930 . S
H169 C197 0.932 . S
H170 C200 0.929 . S
H171 C199 0.931 . S
H172 C202 0.929 . S
H173 C206 0.932 . S
H174 C203 0.931 . S
H175 C205 0.929 . S
H176 C208 0.929 . S
H177 C209 0.930 . S
H178 C211 0.929 . S
H179 C212 0.931 . S
H180 C214 0.930 . S
H181 C215 0.932 . S
H182 C217 0.931 . S
H183 C218 0.929 . S
H184 C220 0.929 . S
H185 C221 0.931 . S
H186 C223 0.929 . S
N187 C207 1.433 . S
N187 C213 1.435 . S
N187 C219 1.423 . S
H188 C224 0.932 . S
C189 N164 1.433 . S
C189 C190 1.363 . S
C189 C194 1.370 . S
C190 H163 0.929 . S
C190 C189 1.363 . S
C190 C191 1.385 . S
C191 H165 0.930 . S
C191 C190 1.385 . S
C191 C192 1.357 . S
C192 C191 1.357 . S
C192 C193 1.406 . S
C193 H167 0.929 . S
C193 C192 1.406 . S
C193 C194 1.391 . S
C194 H166 0.931 . S
C194 C189 1.370 . S
C194 C193 1.391 . S
C195 N164 1.435 . S
C195 C196 1.358 . S
C195 C200 1.371 . S
C196 H168 0.930 . S
C196 C195 1.358 . S
C196 C197 1.405 . S
C197 H169 0.932 . S
C197 C196 1.405 . S
C197 C198 1.383 . S
C198 C197 1.383 . S
C198 C199 1.393 . S
C199 H171 0.931 . S
C199 C198 1.393 . S
C199 C200 1.382 . S
C200 H170 0.929 . S
C200 C195 1.371 . S
C200 C199 1.382 . S
C201 N164 1.423 . S
C201 C202 1.362 . S
C201 C206 1.388 . S
C202 H172 0.929 . S
C202 C201 1.362 . S
C202 C203 1.376 . S
C203 H174 0.931 . S
C203 C202 1.376 . S
C203 C204 1.396 . S
C204 C203 1.396 . S
C204 C205 1.348 . S
C204 C222 1.472 . S
C205 H175 0.929 . S
C205 C204 1.348 . S
C205 C206 1.443 . S
C206 H173 0.932 . S
C206 C201 1.388 . S
C206 C205 1.443 . S
C207 N187 1.433 . S
C207 C208 1.363 . S
C207 C212 1.370 . S
C208 H176 0.929 . S
C208 C207 1.363 . S
C208 C209 1.385 . S
C209 H177 0.930 . S
C209 C208 1.385 . S
C209 C210 1.357 . S
C210 C209 1.357 . S
C210 C211 1.406 . S
C211 H178 0.929 . S
C211 C210 1.406 . S
C211 C212 1.391 . S
C212 H179 0.931 . S
C212 C207 1.370 . S
C212 C211 1.391 . S
C213 N187 1.435 . S
C213 C214 1.358 . S
C213 C218 1.371 . S
C214 H180 0.930 . S
C214 C213 1.358 . S
C214 C215 1.405 . S
C215 H181 0.932 . S
C215 C214 1.405 . S
C215 C216 1.383 . S
C216 C215 1.383 . S
C216 C217 1.393 . S
C217 H182 0.931 . S
C217 C216 1.393 . S
C217 C218 1.382 . S
C218 H183 0.929 . S
C218 C213 1.371 . S
C218 C217 1.382 . S
C219 N187 1.423 . S
C219 C220 1.362 . S
C219 C224 1.388 . S
C220 H184 0.929 . S
C220 C219 1.362 . S
C220 C221 1.376 . S
C221 H185 0.931 . S
C221 C220 1.376 . S
C221 C222 1.396 . S
C222 C204 1.472 . S
C222 C221 1.396 . S
C222 C223 1.348 . S
C223 H186 0.929 . S
C223 C222 1.348 . S
C223 C224 1.443 . S
C224 H188 0.932 . S
C224 C219 1.388 . S
C224 C223 1.443 . S
H225 C231 0.930 . S
H226 C235 0.930 . S
H227 C240 0.929 . S
H228 C238 0.929 . S
H229 C233 0.929 . S
H230 C239 0.929 . S
C231 H225 0.930 . S
C231 C232 1.367 . S
C231 C239 1.378 . S
C232 C231 1.367 . S
C232 C240 1.433 1_455 S
C233 H229 0.929 . S
C233 C235 1.378 . S
C233 C237 1.350 1_655 S
C234 C237 1.463 . S
C234 C239 1.350 . S
C234 N242 1.427 1_455 S
C235 H226 0.930 . S
C235 C233 1.378 . S
C235 C236 1.367 1_655 S
C236 C235 1.367 1_455 S
C236 C238 1.433 . S
C237 C233 1.350 1_455 S
C237 C234 1.463 . S
C237 N241 1.427 . S
C238 H228 0.929 . S
C238 C236 1.433 . S
C238 N241 1.384 . S
C239 H230 0.929 . S
C239 C231 1.378 . S
C239 C234 1.350 . S
C240 H227 0.929 . S
C240 C232 1.433 1_655 S
C240 N242 1.384 . S
N241 C237 1.427 . S
N241 C238 1.384 . S
N242 C234 1.427 1_655 S
N242 C240 1.384 . S
H243 C249 0.930 . S
H244 C253 0.930 . S
H245 C258 0.929 . S
H246 C256 0.929 . S
H247 C251 0.929 . S
H248 C257 0.929 . S
C249 H243 0.930 . S
C249 C250 1.367 . S
C249 C257 1.378 . S
C250 C249 1.367 . S
C250 C258 1.433 1_545 S
C251 H247 0.929 . S
C251 C253 1.378 . S
C251 C255 1.350 1_565 S
C252 C255 1.463 . S
C252 C257 1.350 . S
C252 N260 1.427 1_545 S
C253 H244 0.930 . S
C253 C251 1.378 . S
C253 C254 1.367 1_565 S
C254 C253 1.367 1_545 S
C254 C256 1.433 . S
C255 C251 1.350 1_545 S
C255 C252 1.463 . S
C255 N259 1.427 . S
C256 H246 0.929 . S
C256 C254 1.433 . S
C256 N259 1.384 . S
C257 H248 0.929 . S
C257 C249 1.378 . S
C257 C252 1.350 . S
C258 H245 0.929 . S
C258 C250 1.433 1_565 S
C258 N260 1.384 . S
N259 C255 1.427 . S
N259 C256 1.384 . S
N260 C252 1.427 1_565 S
N260 C258 1.384 . S
H261 C267 0.930 . S
H262 C271 0.930 . S
H263 C276 0.929 . S
H264 C274 0.929 . S
H265 C269 0.929 . S
H266 C275 0.929 . S
C267 H261 0.930 . S
C267 C268 1.367 . S
C267 C275 1.378 . S
C268 C267 1.367 . S
C268 C276 1.433 . S
C269 H265 0.929 . S
C269 C271 1.378 . S
C269 C273 1.350 . S
C270 C273 1.463 . S
C270 C275 1.350 . S
C270 N278 1.427 . S
C271 H262 0.930 . S
C271 C269 1.378 . S
C271 C272 1.367 . S
C272 C271 1.367 . S
C272 C274 1.433 . S
C273 C269 1.350 . S
C273 C270 1.463 . S
C273 N277 1.427 . S
C274 H264 0.929 . S
C274 C272 1.433 . S
C274 N277 1.384 . S
C275 H266 0.929 . S
C275 C267 1.378 . S
C275 C270 1.350 . S
C276 H263 0.929 . S
C276 C268 1.433 . S
C276 N278 1.384 . S
N277 C273 1.427 . S
N277 C274 1.384 . S
N278 C270 1.427 . S
N278 C276 1.384 . S
H279 C285 0.930 . S
H280 C289 0.930 . S
H281 C294 0.929 . S
H282 C292 0.929 . S
H283 C287 0.929 . S
H284 C293 0.929 . S
C285 H279 0.930 . S
C285 C286 1.366 . S
C285 C293 1.378 . S
C286 C285 1.366 . S
C286 C294 1.434 1_455 S
C287 H283 0.929 . S
C287 C289 1.378 . S
C287 C291 1.346 1_655 S
C288 C291 1.460 . S
C288 C293 1.350 . S
C288 N296 1.427 1_455 S
C289 H280 0.930 . S
C289 C287 1.378 . S
C289 C290 1.367 1_655 S
C290 C289 1.367 1_455 S
C290 C292 1.433 . S
C291 C287 1.346 1_455 S
C291 C288 1.460 . S
C291 N295 1.434 . S
C292 H282 0.929 . S
C292 C290 1.433 . S
C292 N295 1.384 . S
C293 H284 0.929 . S
C293 C285 1.378 . S
C293 C288 1.350 . S
C294 H281 0.929 . S
C294 C286 1.434 1_655 S
C294 N296 1.384 . S
N295 C291 1.434 . S
N295 C292 1.384 . S
N296 C288 1.427 1_655 S
N296 C294 1.384 . S
H297 C303 0.930 . S
H298 C307 0.930 . S
H299 C312 0.929 . S
H300 C310 0.929 . S
H301 C305 0.929 . S
H302 C311 0.929 . S
C303 H297 0.930 . S
C303 C304 1.366 1_545 S
C303 C311 1.378 . S
C304 C303 1.366 1_565 S
C304 C312 1.433 . S
C305 H301 0.929 . S
C305 C307 1.378 . S
C305 C309 1.350 1_565 S
C306 C309 1.463 . S
C306 C311 1.350 . S
C306 N314 1.427 1_545 S
C307 H298 0.930 . S
C307 C305 1.378 . S
C307 C308 1.367 1_565 S
C308 C307 1.367 1_545 S
C308 C310 1.433 . S
C309 C305 1.350 1_545 S
C309 C306 1.463 . S
C309 N313 1.427 . S
C310 H300 0.929 . S
C310 C308 1.433 . S
C310 N313 1.384 . S
C311 H302 0.929 . S
C311 C303 1.378 . S
C311 C306 1.350 . S
C312 H299 0.929 . S
C312 C304 1.433 . S
C312 N314 1.384 . S
N313 C309 1.427 . S
N313 C310 1.384 . S
N314 C306 1.427 1_565 S
N314 C312 1.384 . S
H315 C321 0.930 . S
H316 C325 0.930 . S
H317 C330 0.929 . S
H318 C328 0.929 . S
H319 C323 0.929 . S
H320 C329 0.929 . S
C321 H315 0.930 . S
C321 C322 1.367 . S
C321 C329 1.378 . S
C322 C321 1.367 . S
C322 C330 1.433 . S
C323 H319 0.929 . S
C323 C325 1.378 . S
C323 C327 1.350 . S
C324 C327 1.463 . S
C324 C329 1.350 . S
C324 N332 1.427 . S
C325 H316 0.930 . S
C325 C323 1.378 . S
C325 C326 1.367 . S
C326 C325 1.367 . S
C326 C328 1.433 . S
C327 C323 1.350 . S
C327 C324 1.463 . S
C327 N331 1.427 . S
C328 H318 0.929 . S
C328 C326 1.433 . S
C328 N331 1.384 . S
C329 H320 0.929 . S
C329 C321 1.378 . S
C329 C324 1.350 . S
C330 H317 0.929 . S
C330 C322 1.433 . S
C330 N332 1.384 . S
N331 C327 1.427 . S
N331 C328 1.384 . S
N332 C324 1.427 . S
N332 C330 1.384 . S
H333 C339 0.930 . S
H334 C343 0.930 . S
H335 C348 0.929 . S
H336 C346 0.929 . S
H337 C341 0.929 . S
H338 C347 0.929 . S
C339 H333 0.930 . S
C339 C340 1.367 1_545 S
C339 C347 1.378 . S
C340 C339 1.367 1_565 S
C340 C348 1.433 . S
C341 H337 0.929 . S
C341 C343 1.378 . S
C341 C345 1.350 . S
C342 C345 1.464 1_545 S
C342 C347 1.351 . S
C342 N350 1.425 1_545 S
C343 H334 0.930 . S
C343 C341 1.378 . S
C343 C344 1.355 1_565 S
C344 C343 1.355 1_545 S
C344 C346 1.438 . S
C345 C341 1.350 . S
C345 C342 1.464 1_565 S
C345 N349 1.427 1_565 S
C346 H336 0.929 . S
C346 C344 1.438 . S
C346 N349 1.384 . S
C347 H338 0.929 . S
C347 C339 1.378 . S
C347 C342 1.351 . S
C348 H335 0.929 . S
C348 C340 1.433 . S
C348 N350 1.384 . S
N349 C345 1.427 1_545 S
N349 C346 1.384 . S
N350 C342 1.425 1_565 S
N350 C348 1.384 . S
H351 C357 0.930 . S
H352 C361 0.930 . S
H353 C366 0.929 . S
H354 C364 0.929 . S
H355 C359 0.929 . S
H356 C365 0.929 . S
C357 H351 0.930 . S
C357 C358 1.367 . S
C357 C365 1.378 . S
C358 C357 1.367 . S
C358 C366 1.433 1_554 S
C359 H355 0.929 . S
C359 C361 1.378 . S
C359 C363 1.350 . S
C360 C363 1.463 . S
C360 C365 1.350 1_556 S
C360 N368 1.427 . S
C361 H352 0.930 . S
C361 C359 1.378 . S
C361 C362 1.367 . S
C362 C361 1.367 . S
C362 C364 1.433 . S
C363 C359 1.350 . S
C363 C360 1.463 . S
C363 N367 1.427 . S
C364 H354 0.929 . S
C364 C362 1.433 . S
C364 N367 1.384 . S
C365 H356 0.929 . S
C365 C357 1.378 . S
C365 C360 1.350 1_554 S
C366 H353 0.929 . S
C366 C358 1.433 1_556 S
C366 N368 1.384 . S
N367 C363 1.427 . S
N367 C364 1.384 . S
N368 C360 1.427 . S
N368 C366 1.384 . S
H369 C375 0.930 . S
H370 C379 0.930 . S
H371 C384 0.929 . S
H372 C382 0.929 . S
H373 C377 0.929 . S
H374 C383 0.929 . S
C375 H369 0.930 . S
C375 C376 1.367 . S
C375 C383 1.378 . S
C376 C375 1.367 . S
C376 C384 1.433 1_455 S
C377 H373 0.929 . S
C377 C379 1.378 . S
C377 C381 1.350 1_655 S
C378 C381 1.463 . S
C378 C383 1.350 . S
C378 N386 1.427 1_455 S
C379 H370 0.930 . S
C379 C377 1.378 . S
C379 C380 1.367 1_655 S
C380 C379 1.367 1_455 S
C380 C382 1.433 . S
C381 C377 1.350 1_455 S
C381 C378 1.463 . S
C381 N385 1.427 . S
C382 H372 0.929 . S
C382 C380 1.433 . S
C382 N385 1.384 . S
C383 H374 0.929 . S
C383 C375 1.378 . S
C383 C378 1.350 . S
C384 H371 0.929 . S
C384 C376 1.433 1_655 S
C384 N386 1.384 . S
N385 C381 1.427 . S
N385 C382 1.384 . S
N386 C378 1.427 1_655 S
N386 C384 1.384 . S
H387 C393 0.930 . S
H388 C397 0.930 . S
H389 C402 0.929 . S
H390 C400 0.929 . S
H391 C395 0.929 . S
H392 C401 0.929 . S
C393 H387 0.930 . S
C393 C394 1.367 . S
C393 C401 1.378 . S
C394 C393 1.367 . S
C394 C402 1.433 1_545 S
C395 H391 0.929 . S
C395 C397 1.378 . S
C395 C399 1.350 1_565 S
C396 C399 1.463 . S
C396 C401 1.350 . S
C396 N404 1.427 1_545 S
C397 H388 0.930 . S
C397 C395 1.378 . S
C397 C398 1.367 1_565 S
C398 C397 1.367 1_545 S
C398 C400 1.433 . S
C399 C395 1.350 1_545 S
C399 C396 1.463 . S
C399 N403 1.427 . S
C400 H390 0.929 . S
C400 C398 1.433 . S
C400 N403 1.384 . S
C401 H392 0.929 . S
C401 C393 1.378 . S
C401 C396 1.350 . S
C402 H389 0.929 . S
C402 C394 1.433 1_565 S
C402 N404 1.384 . S
N403 C399 1.427 . S
N403 C400 1.384 . S
N404 C396 1.427 1_565 S
N404 C402 1.384 . S
H405 C411 0.930 . S
H406 C415 0.930 . S
H407 C420 0.929 . S
H408 C418 0.929 . S
H409 C413 0.929 . S
H410 C419 0.929 . S
C411 H405 0.930 . S
C411 C412 1.367 . S
C411 C419 1.378 . S
C412 C411 1.367 . S
C412 C420 1.433 1_554 S
C413 H409 0.929 . S
C413 C415 1.378 . S
C413 C417 1.350 . S
C414 C417 1.463 . S
C414 C419 1.350 1_556 S
C414 N422 1.427 . S
C415 H406 0.930 . S
C415 C413 1.378 . S
C415 C416 1.367 . S
C416 C415 1.367 . S
C416 C418 1.433 . S
C417 C413 1.350 . S
C417 C414 1.463 . S
C417 N421 1.427 . S
C418 H408 0.929 . S
C418 C416 1.433 . S
C418 N421 1.384 . S
C419 H410 0.929 . S
C419 C411 1.378 . S
C419 C414 1.350 1_554 S
C420 H407 0.929 . S
C420 C412 1.433 1_556 S
C420 N422 1.384 . S
N421 C417 1.427 . S
N421 C418 1.384 . S
N422 C414 1.427 . S
N422 C420 1.384 . S
H423 C429 0.930 . S
H424 C433 0.930 . S
H425 C438 0.929 . S
H426 C436 0.929 . S
H427 C431 0.929 . S
H428 C437 0.929 . S
C429 H423 0.930 . S
C429 C430 1.367 . S
C429 C437 1.378 . S
C430 C429 1.367 . S
C430 C438 1.433 1_655 S
C431 H427 0.929 . S
C431 C433 1.378 . S
C431 C435 1.354 . S
C432 C435 1.472 1_655 S
C432 C437 1.350 . S
C432 N440 1.427 1_655 S
C433 H424 0.930 . S
C433 C431 1.378 . S
C433 C434 1.367 . S
C434 C433 1.367 . S
C434 C436 1.433 1_455 S
C435 C431 1.354 . S
C435 C432 1.472 1_455 S
C435 N439 1.414 1_455 S
C436 H426 0.929 . S
C436 C434 1.433 1_655 S
C436 N439 1.384 . S
C437 H428 0.929 . S
C437 C429 1.378 . S
C437 C432 1.350 . S
C438 H425 0.929 . S
C438 C430 1.433 1_455 S
C438 N440 1.384 . S
N439 C435 1.414 1_655 S
N439 C436 1.384 . S
N440 C432 1.427 1_455 S
N440 C438 1.384 . S
C236 C92 1.398 . S
C232 C10 1.405 . S
C250 C17 1.406 . S
C254 C136 1.388 . S
C268 C36 1.407 . S
C272 C198 1.396 . S
C286 C5 1.394 1_455 S
C290 C74 1.383 . S
C308 C154 1.389 . S
C304 C16 1.416 . S
C322 C31 1.404 . S
C326 C216 1.393 . S
C344 C130 1.649 . S
C340 C30 1.753 . S
C358 C3 1.752 . S
C362 C192 1.625 . S
C380 C68 1.640 1_455 S
C376 C18 1.756 . S
C398 C148 1.632 . S
C394 C29 1.754 . S
C416 C210 1.624 . S
C412 C4 1.751 . S
C430 C23 1.753 . S
C434 C86 1.639 1_455 S
