# Generated by pormake.
# Topology bwt, (3,3)-cn, num edge types: 1
# Building blocks:
#     Node 0, Type 0, BuildingBlock: WUSLED_clean_sbu_0, # of connection points: 3
#     Node 1, Type 0, BuildingBlock: WUSLED_clean_sbu_0, # of connection points: 3
#     Node 2, Type 0, BuildingBlock: WUSLED_clean_sbu_0, # of connection points: 3
#     Node 3, Type 0, BuildingBlock: WUSLED_clean_sbu_0, # of connection points: 3
#     Node 4, Type 0, BuildingBlock: WUSLED_clean_sbu_0, # of connection points: 3
#     Node 5, Type 0, BuildingBlock: WUSLED_clean_sbu_0, # of connection points: 3
#     Node 6, Type 0, BuildingBlock: WUSLED_clean_sbu_0, # of connection points: 3
#     Node 7, Type 0, BuildingBlock: WUSLED_clean_sbu_0, # of connection points: 3
#     Node 8, Type 0, BuildingBlock: WUSLED_clean_sbu_0, # of connection points: 3
#     Node 9, Type 0, BuildingBlock: WUSLED_clean_sbu_0, # of connection points: 3
#     Node 10, Type 0, BuildingBlock: WUSLED_clean_sbu_0, # of connection points: 3
#     Node 11, Type 0, BuildingBlock: WUSLED_clean_sbu_0, # of connection points: 3
#     Node 12, Type 0, BuildingBlock: WUSLED_clean_sbu_0, # of connection points: 3
#     Node 13, Type 0, BuildingBlock: WUSLED_clean_sbu_0, # of connection points: 3
#     Node 14, Type 0, BuildingBlock: WUSLED_clean_sbu_0, # of connection points: 3
#     Node 15, Type 0, BuildingBlock: WUSLED_clean_sbu_0, # of connection points: 3
#     Node 16, Type 0, BuildingBlock: WUSLED_clean_sbu_0, # of connection points: 3
#     Node 17, Type 0, BuildingBlock: WUSLED_clean_sbu_0, # of connection points: 3
#     Node 18, Type 0, BuildingBlock: WUSLED_clean_sbu_0, # of connection points: 3
#     Node 19, Type 0, BuildingBlock: WUSLED_clean_sbu_0, # of connection points: 3
#     Node 20, Type 0, BuildingBlock: WUSLED_clean_sbu_0, # of connection points: 3
#     Node 21, Type 0, BuildingBlock: WUSLED_clean_sbu_0, # of connection points: 3
#     Node 22, Type 0, BuildingBlock: WUSLED_clean_sbu_0, # of connection points: 3
#     Node 23, Type 0, BuildingBlock: WUSLED_clean_sbu_0, # of connection points: 3
#     Node 24, Type 1, BuildingBlock: BETDIP_clean_linker_0, # of connection points: 3
#     Node 25, Type 1, BuildingBlock: BETDIP_clean_linker_0, # of connection points: 3
#     Node 26, Type 1, BuildingBlock: BETDIP_clean_linker_0, # of connection points: 3
#     Node 27, Type 1, BuildingBlock: BETDIP_clean_linker_0, # of connection points: 3
#     Node 28, Type 1, BuildingBlock: BETDIP_clean_linker_0, # of connection points: 3
#     Node 29, Type 1, BuildingBlock: BETDIP_clean_linker_0, # of connection points: 3
#     Node 30, Type 1, BuildingBlock: BETDIP_clean_linker_0, # of connection points: 3
#     Node 31, Type 1, BuildingBlock: BETDIP_clean_linker_0, # of connection points: 3
#     Node 32, Type 1, BuildingBlock: BETDIP_clean_linker_0, # of connection points: 3
#     Node 33, Type 1, BuildingBlock: BETDIP_clean_linker_0, # of connection points: 3
#     Node 34, Type 1, BuildingBlock: BETDIP_clean_linker_0, # of connection points: 3
#     Node 35, Type 1, BuildingBlock: BETDIP_clean_linker_0, # of connection points: 3
#     Node 36, Type 1, BuildingBlock: BETDIP_clean_linker_0, # of connection points: 3
#     Node 37, Type 1, BuildingBlock: BETDIP_clean_linker_0, # of connection points: 3
#     Node 38, Type 1, BuildingBlock: BETDIP_clean_linker_0, # of connection points: 3
#     Node 39, Type 1, BuildingBlock: BETDIP_clean_linker_0, # of connection points: 3
#     Node 40, Type 1, BuildingBlock: BETDIP_clean_linker_0, # of connection points: 3
#     Node 41, Type 1, BuildingBlock: BETDIP_clean_linker_0, # of connection points: 3
#     Node 42, Type 1, BuildingBlock: BETDIP_clean_linker_0, # of connection points: 3
#     Node 43, Type 1, BuildingBlock: BETDIP_clean_linker_0, # of connection points: 3
#     Node 44, Type 1, BuildingBlock: BETDIP_clean_linker_0, # of connection points: 3
#     Node 45, Type 1, BuildingBlock: BETDIP_clean_linker_0, # of connection points: 3
#     Node 46, Type 1, BuildingBlock: BETDIP_clean_linker_0, # of connection points: 3
#     Node 47, Type 1, BuildingBlock: BETDIP_clean_linker_0, # of connection points: 3
#     Edge 48, Type (0, 1), BuildingBlock: MIFKUJ_clean_linker_0, # of connection points: 2
#     Edge 49, Type (0, 1), BuildingBlock: MIFKUJ_clean_linker_0, # of connection points: 2
#     Edge 50, Type (0, 1), BuildingBlock: MIFKUJ_clean_linker_0, # of connection points: 2
#     Edge 51, Type (0, 1), BuildingBlock: MIFKUJ_clean_linker_0, # of connection points: 2
#     Edge 52, Type (0, 1), BuildingBlock: MIFKUJ_clean_linker_0, # of connection points: 2
#     Edge 53, Type (0, 1), BuildingBlock: MIFKUJ_clean_linker_0, # of connection points: 2
#     Edge 54, Type (0, 1), BuildingBlock: MIFKUJ_clean_linker_0, # of connection points: 2
#     Edge 55, Type (0, 1), BuildingBlock: MIFKUJ_clean_linker_0, # of connection points: 2
#     Edge 56, Type (0, 1), BuildingBlock: MIFKUJ_clean_linker_0, # of connection points: 2
#     Edge 57, Type (0, 1), BuildingBlock: MIFKUJ_clean_linker_0, # of connection points: 2
#     Edge 58, Type (0, 1), BuildingBlock: MIFKUJ_clean_linker_0, # of connection points: 2
#     Edge 59, Type (0, 1), BuildingBlock: MIFKUJ_clean_linker_0, # of connection points: 2
#     Edge 60, Type (0, 1), BuildingBlock: MIFKUJ_clean_linker_0, # of connection points: 2
#     Edge 61, Type (0, 1), BuildingBlock: MIFKUJ_clean_linker_0, # of connection points: 2
#     Edge 62, Type (0, 1), BuildingBlock: MIFKUJ_clean_linker_0, # of connection points: 2
#     Edge 63, Type (0, 1), BuildingBlock: MIFKUJ_clean_linker_0, # of connection points: 2
#     Edge 64, Type (0, 1), BuildingBlock: MIFKUJ_clean_linker_0, # of connection points: 2
#     Edge 65, Type (0, 1), BuildingBlock: MIFKUJ_clean_linker_0, # of connection points: 2
#     Edge 66, Type (0, 1), BuildingBlock: MIFKUJ_clean_linker_0, # of connection points: 2
#     Edge 67, Type (0, 1), BuildingBlock: MIFKUJ_clean_linker_0, # of connection points: 2
#     Edge 68, Type (0, 1), BuildingBlock: MIFKUJ_clean_linker_0, # of connection points: 2
#     Edge 69, Type (0, 1), BuildingBlock: MIFKUJ_clean_linker_0, # of connection points: 2
#     Edge 70, Type (0, 1), BuildingBlock: MIFKUJ_clean_linker_0, # of connection points: 2
#     Edge 71, Type (0, 1), BuildingBlock: MIFKUJ_clean_linker_0, # of connection points: 2
#     Edge 72, Type (0, 1), BuildingBlock: MIFKUJ_clean_linker_0, # of connection points: 2
#     Edge 73, Type (0, 1), BuildingBlock: MIFKUJ_clean_linker_0, # of connection points: 2
#     Edge 74, Type (0, 1), BuildingBlock: MIFKUJ_clean_linker_0, # of connection points: 2
#     Edge 75, Type (0, 1), BuildingBlock: MIFKUJ_clean_linker_0, # of connection points: 2
#     Edge 76, Type (0, 1), BuildingBlock: MIFKUJ_clean_linker_0, # of connection points: 2
#     Edge 77, Type (0, 1), BuildingBlock: MIFKUJ_clean_linker_0, # of connection points: 2
#     Edge 78, Type (0, 1), BuildingBlock: MIFKUJ_clean_linker_0, # of connection points: 2
#     Edge 79, Type (0, 1), BuildingBlock: MIFKUJ_clean_linker_0, # of connection points: 2
#     Edge 80, Type (0, 1), BuildingBlock: MIFKUJ_clean_linker_0, # of connection points: 2
#     Edge 81, Type (0, 1), BuildingBlock: MIFKUJ_clean_linker_0, # of connection points: 2
#     Edge 82, Type (0, 1), BuildingBlock: MIFKUJ_clean_linker_0, # of connection points: 2
#     Edge 83, Type (0, 1), BuildingBlock: MIFKUJ_clean_linker_0, # of connection points: 2
#     Edge 84, Type (0, 1), BuildingBlock: MIFKUJ_clean_linker_0, # of connection points: 2
#     Edge 85, Type (0, 1), BuildingBlock: MIFKUJ_clean_linker_0, # of connection points: 2
#     Edge 86, Type (0, 1), BuildingBlock: MIFKUJ_clean_linker_0, # of connection points: 2
#     Edge 87, Type (0, 1), BuildingBlock: MIFKUJ_clean_linker_0, # of connection points: 2
#     Edge 88, Type (0, 1), BuildingBlock: MIFKUJ_clean_linker_0, # of connection points: 2
#     Edge 89, Type (0, 1), BuildingBlock: MIFKUJ_clean_linker_0, # of connection points: 2
#     Edge 90, Type (0, 1), BuildingBlock: MIFKUJ_clean_linker_0, # of connection points: 2
#     Edge 91, Type (0, 1), BuildingBlock: MIFKUJ_clean_linker_0, # of connection points: 2
#     Edge 92, Type (0, 1), BuildingBlock: MIFKUJ_clean_linker_0, # of connection points: 2
#     Edge 93, Type (0, 1), BuildingBlock: MIFKUJ_clean_linker_0, # of connection points: 2
#     Edge 94, Type (0, 1), BuildingBlock: MIFKUJ_clean_linker_0, # of connection points: 2
#     Edge 95, Type (0, 1), BuildingBlock: MIFKUJ_clean_linker_0, # of connection points: 2
#     Edge 96, Type (0, 1), BuildingBlock: MIFKUJ_clean_linker_0, # of connection points: 2
#     Edge 97, Type (0, 1), BuildingBlock: MIFKUJ_clean_linker_0, # of connection points: 2
#     Edge 98, Type (0, 1), BuildingBlock: MIFKUJ_clean_linker_0, # of connection points: 2
#     Edge 99, Type (0, 1), BuildingBlock: MIFKUJ_clean_linker_0, # of connection points: 2
#     Edge 100, Type (0, 1), BuildingBlock: MIFKUJ_clean_linker_0, # of connection points: 2
#     Edge 101, Type (0, 1), BuildingBlock: MIFKUJ_clean_linker_0, # of connection points: 2
#     Edge 102, Type (0, 1), BuildingBlock: MIFKUJ_clean_linker_0, # of connection points: 2
#     Edge 103, Type (0, 1), BuildingBlock: MIFKUJ_clean_linker_0, # of connection points: 2
#     Edge 104, Type (0, 1), BuildingBlock: MIFKUJ_clean_linker_0, # of connection points: 2
#     Edge 105, Type (0, 1), BuildingBlock: MIFKUJ_clean_linker_0, # of connection points: 2
#     Edge 106, Type (0, 1), BuildingBlock: MIFKUJ_clean_linker_0, # of connection points: 2
#     Edge 107, Type (0, 1), BuildingBlock: MIFKUJ_clean_linker_0, # of connection points: 2
#     Edge 108, Type (0, 1), BuildingBlock: MIFKUJ_clean_linker_0, # of connection points: 2
#     Edge 109, Type (0, 1), BuildingBlock: MIFKUJ_clean_linker_0, # of connection points: 2
#     Edge 110, Type (0, 1), BuildingBlock: MIFKUJ_clean_linker_0, # of connection points: 2
#     Edge 111, Type (0, 1), BuildingBlock: MIFKUJ_clean_linker_0, # of connection points: 2
#     Edge 112, Type (0, 1), BuildingBlock: MIFKUJ_clean_linker_0, # of connection points: 2
#     Edge 113, Type (0, 1), BuildingBlock: MIFKUJ_clean_linker_0, # of connection points: 2
#     Edge 114, Type (0, 1), BuildingBlock: MIFKUJ_clean_linker_0, # of connection points: 2
#     Edge 115, Type (0, 1), BuildingBlock: MIFKUJ_clean_linker_0, # of connection points: 2
#     Edge 116, Type (0, 1), BuildingBlock: MIFKUJ_clean_linker_0, # of connection points: 2
#     Edge 117, Type (0, 1), BuildingBlock: MIFKUJ_clean_linker_0, # of connection points: 2
#     Edge 118, Type (0, 1), BuildingBlock: MIFKUJ_clean_linker_0, # of connection points: 2
#     Edge 119, Type (0, 1), BuildingBlock: MIFKUJ_clean_linker_0, # of connection points: 2
# Relax obj value: 0.121
# Max RMSD: 0.173
# Mean RMSD: 0.083
data_MOF--net-bwt--node1-WUSLED_clean_sbu_0--node2-BETDIP_clean_linker_0--edge1-MIFKUJ_clean_linker_0
_symmetry_space_group_name_H-M    P1
_symmetry_Int_Tables_number       1
_symmetry_cell_setting            triclinic
loop_
_symmetry_equiv_pos_as_xyz
'x, y, z'
_cell_length_a     84.770789
_cell_length_b     84.781647
_cell_length_c     84.745203
_cell_angle_alpha  95.408347
_cell_angle_beta   95.418888
_cell_angle_gamma 95.41066
loop_
_atom_site_label
_atom_site_type_symbol
_atom_site_fract_x
_atom_site_fract_y
_atom_site_fract_z
_atom_type_partial_charge
C0 C 0.30635 0.64638 0.35002 0.0
C1 C 0.31961 0.64732 0.36146 0.0
C2 C 0.33724 0.64461 0.34048 0.0
C3 C 0.3349 0.64653 0.35674 0.0
C4 C 0.32392 0.64384 0.32906 0.0
C5 C 0.30862 0.64475 0.3338 0.0
U6 U 0.27787 0.63539 0.3797 0.0
O7 O 0.25872 0.64752 0.38977 0.0
O8 O 0.25328 0.62373 0.37662 0.0
C9 C 0.24761 0.63604 0.38387 0.0
C10 C 0.29009 0.64592 0.35492 0.0
C11 C 0.2329 0.64097 0.37601 0.0
C12 C 0.21883 0.65701 0.35812 0.0
C13 C 0.23314 0.65228 0.36492 0.0
C14 C 0.20399 0.63901 0.37325 0.0
C15 C 0.20407 0.65052 0.36232 0.0
C16 C 0.21824 0.63432 0.38001 0.0
C17 C 0.29594 0.61601 0.41559 0.0
C18 C 0.2809 0.60206 0.43405 0.0
C19 C 0.30955 0.60782 0.43949 0.0
C20 C 0.30999 0.61517 0.42544 0.0
C21 C 0.29502 0.60112 0.44395 0.0
C22 C 0.28135 0.6095 0.42 0.0
C23 C 0.29692 0.62337 0.40064 0.0
O24 O 0.2827 0.63154 0.35462 0.0
O25 O 0.2884 0.65523 0.36784 0.0
O26 O 0.29493 0.6386 0.40133 0.0
O27 O 0.28947 0.61504 0.38777 0.0
H28 H 0.31812 0.64835 0.37406 0.0
H29 H 0.34485 0.64695 0.36584 0.0
H30 H 0.32533 0.64257 0.31645 0.0
H31 H 0.29853 0.64394 0.3248 0.0
H32 H 0.21933 0.66596 0.34981 0.0
H33 H 0.24437 0.65753 0.36165 0.0
H34 H 0.19288 0.6335 0.37651 0.0
H35 H 0.21781 0.62551 0.38848 0.0
H36 H 0.26951 0.59717 0.43725 0.0
H37 H 0.32066 0.60712 0.44671 0.0
H38 H 0.32136 0.62009 0.42219 0.0
H39 H 0.27036 0.61009 0.41254 0.0
C40 C 0.20502 0.33188 0.78185 0.0
C41 C 0.19711 0.3352 0.79541 0.0
C42 C 0.17141 0.32805 0.77975 0.0
C43 C 0.18048 0.33326 0.79439 0.0
C44 C 0.17942 0.32449 0.76623 0.0
C45 C 0.1961 0.32642 0.76727 0.0
U46 U 0.24218 0.35183 0.80529 0.0
O47 O 0.26661 0.3453 0.80967 0.0
O48 O 0.26238 0.36727 0.79882 0.0
C49 C 0.27288 0.35772 0.80337 0.0
C50 C 0.22244 0.33529 0.78279 0.0
C51 C 0.28513 0.35488 0.79256 0.0
C52 C 0.29452 0.34126 0.76923 0.0
C53 C 0.28249 0.34336 0.7793 0.0
C54 C 0.3118 0.36212 0.78565 0.0
C55 C 0.30927 0.35074 0.77224 0.0
C56 C 0.29985 0.36416 0.79567 0.0
C57 C 0.23628 0.37472 0.84485 0.0
C58 C 0.25764 0.39248 0.86006 0.0
C59 C 0.23104 0.39101 0.86848 0.0
C60 C 0.22574 0.37957 0.85566 0.0
C61 C 0.24698 0.39783 0.87065 0.0
C62 C 0.25232 0.38102 0.84724 0.0
C63 C 0.23012 0.36409 0.83051 0.0
O64 O 0.22739 0.35038 0.78234 0.0
O65 O 0.23055 0.32868 0.79396 0.0
O66 O 0.23514 0.34987 0.82946 0.0
O67 O 0.23028 0.3708 0.81717 0.0
H68 H 0.20381 0.33954 0.80676 0.0
H69 H 0.17473 0.3359 0.80507 0.0
H70 H 0.17281 0.32065 0.75473 0.0
H71 H 0.20201 0.32398 0.75665 0.0
H72 H 0.29219 0.33246 0.75894 0.0
H73 H 0.27115 0.3361 0.77671 0.0
H74 H 0.32309 0.36942 0.78848 0.0
H75 H 0.30211 0.37306 0.8059 0.0
H76 H 0.27003 0.39736 0.86153 0.0
H77 H 0.22248 0.39501 0.87628 0.0
H78 H 0.2133 0.37487 0.8539 0.0
H79 H 0.2606 0.37738 0.83895 0.0
C80 C 0.6995 0.98265 0.63478 0.0
C81 C 0.71221 0.98842 0.62674 0.0
C82 C 0.73123 0.98139 0.64761 0.0
C83 C 0.72793 0.98782 0.6331 0.0
C84 C 0.71841 0.97578 0.65572 0.0
C85 C 0.70266 0.97639 0.64933 0.0
U86 U 0.67196 0.98889 0.59919 0.0
O87 O 0.65036 0.97458 0.58722 0.0
O88 O 0.64943 0.99962 0.59619 0.0
C89 C 0.6414 0.98624 0.58952 0.0
C90 C 0.68304 0.98248 0.62753 0.0
C91 C 0.62601 0.982 0.59546 0.0
C92 C 0.60921 0.98022 0.61703 0.0
C93 C 0.62429 0.98316 0.61181 0.0
C94 C 0.59758 0.97442 0.5896 0.0
C95 C 0.59564 0.97606 0.60595 0.0
C96 C 0.61263 0.97738 0.58442 0.0
C97 C 0.68977 0.00142 0.56269 0.0
C98 C 0.67207 0.00385 0.53901 0.0
C99 C 0.70064 0.00548 0.53778 0.0
C100 C 0.7029 0.00348 0.55398 0.0
C101 C 0.68517 0.00539 0.53005 0.0
C102 C 0.67436 0.00186 0.55521 0.0
C103 C 0.69205 0.99771 0.57924 0.0
O104 O 0.67862 0.9965 0.62469 0.0
O105 O 0.67892 0.97147 0.61549 0.0
O106 O 0.688 0.98274 0.58119 0.0
O107 O 0.68681 0.00779 0.58977 0.0
H108 H 0.70997 0.99325 0.61544 0.0
H109 H 0.73749 0.99246 0.62667 0.0
H110 H 0.72054 0.97059 0.66683 0.0
H111 H 0.69297 0.97177 0.65561 0.0
H112 H 0.60811 0.98174 0.62969 0.0
H113 H 0.63452 0.98669 0.62051 0.0
H114 H 0.58743 0.97099 0.58079 0.0
H115 H 0.61377 0.97636 0.57175 0.0
H116 H 0.66004 0.00389 0.53343 0.0
H117 H 0.71095 0.00639 0.53115 0.0
H118 H 0.71486 0.00307 0.5596 0.0
H119 H 0.66408 1.00025 0.56181 0.0
C120 C 0.78235 0.02527 0.27631 0.0
C121 C 0.76975 0.02772 0.26507 0.0
C122 C 0.75044 0.02008 0.28316 0.0
C123 C 0.75398 0.02526 0.26851 0.0
C124 C 0.76307 0.01814 0.2946 0.0
C125 C 0.77889 0.02074 0.2912 0.0
U126 U 0.809 0.01443 0.24529 0.0
O127 O 0.82978 0.02711 0.23652 0.0
O128 O 0.83178 0.00399 0.24592 0.0
C129 C 0.83924 0.01637 0.24052 0.0
C130 C 0.79878 0.02558 0.27186 0.0
C131 C 0.85526 0.02239 0.24845 0.0
C132 C 0.87844 0.0194 0.2668 0.0
C133 C 0.86236 0.01523 0.26127 0.0
C134 C 0.88038 0.03848 0.24736 0.0
C135 C 0.88775 0.03075 0.25958 0.0
C136 C 0.86434 0.0343 0.24182 0.0
C137 C 0.78737 0.99275 0.2065 0.0
C138 C 0.80115 0.98266 0.18442 0.0
C139 C 0.77229 0.98074 0.18189 0.0
C140 C 0.77275 0.98805 0.19741 0.0
C141 C 0.78648 0.97796 0.17519 0.0
C142 C 0.80159 0.99001 0.19998 0.0
C143 C 0.78749 1.00055 0.2227 0.0
O144 O 0.80407 0.01151 0.26996 0.0
O145 O 0.80216 0.03458 0.26054 0.0
O146 O 0.7918 0.01596 0.22452 0.0
O147 O 0.79395 0.99302 0.23412 0.0
H148 H 0.77203 0.03098 0.25338 0.0
H149 H 0.74452 0.02671 0.2594 0.0
H150 H 0.76071 0.01434 0.30608 0.0
H151 H 0.78841 0.01868 0.3 0.0
H152 H 0.88378 0.01312 0.27615 0.0
H153 H 0.85572 0.00595 0.2666 0.0
H154 H 0.88714 0.04744 0.24171 0.0
H155 H 0.85921 0.03995 0.23188 0.0
H156 H 0.81228 0.9806 0.17965 0.0
H157 H 0.76081 0.97756 0.17502 0.0
H158 H 0.76167 0.99015 0.20227 0.0
H159 H 0.81299 0.99358 0.2069 0.0
C160 C 0.36536 0.31469 0.66328 0.0
C161 C 0.37712 0.32766 0.66434 0.0
C162 C 0.35675 0.3459 0.66104 0.0
C163 C 0.37287 0.3431 0.66346 0.0
C164 C 0.34499 0.33285 0.66027 0.0
C165 C 0.34928 0.31741 0.66143 0.0
U166 U 0.39385 0.28526 0.65155 0.0
O167 O 0.40387 0.26597 0.66368 0.0
O168 O 0.39003 0.26064 0.6402 0.0
C169 C 0.39723 0.25487 0.65251 0.0
C170 C 0.36983 0.29826 0.66285 0.0
C171 C 0.38921 0.24035 0.65792 0.0
C172 C 0.36716 0.21934 0.65552 0.0
C173 C 0.37363 0.23417 0.65175 0.0
C174 C 0.39143 0.21692 0.67219 0.0
C175 C 0.37611 0.21037 0.66552 0.0
C176 C 0.39791 0.23169 0.66838 0.0
C177 C 0.42895 0.30252 0.6301 0.0
C178 C 0.45564 0.29466 0.6282 0.0
C179 C 0.44378 0.30983 0.60823 0.0
C180 C 0.43005 0.31 0.61611 0.0
C181 C 0.45678 0.30224 0.61421 0.0
C182 C 0.44182 0.29474 0.63605 0.0
C183 C 0.41446 0.3036 0.63837 0.0
O184 O 0.36889 0.29062 0.64851 0.0
O185 O 0.38294 0.29637 0.67178 0.0
O186 O 0.41572 0.30184 0.65368 0.0
O187 O 0.40121 0.29637 0.63059 0.0
H188 H 0.38963 0.32582 0.66556 0.0
H189 H 0.38228 0.35282 0.66447 0.0
H190 H 0.33247 0.33443 0.65821 0.0
H191 H 0.34002 0.30753 0.66041 0.0
H192 H 0.35539 0.21462 0.65004 0.0
H193 H 0.36661 0.24053 0.64362 0.0
H194 H 0.39856 0.21048 0.68015 0.0
H195 H 0.40995 0.23616 0.67327 0.0
H196 H 0.4654 0.28858 0.63302 0.0
H197 H 0.44434 0.31597 0.59762 0.0
H198 H 0.4203 0.31615 0.61136 0.0
H199 H 0.44126 0.28883 0.6468 0.0
C200 C 0.27001 0.78945 0.0058 0.0
C201 C 0.25793 0.77741 0.99957 0.0
C202 C 0.27672 0.75753 0.00089 0.0
C203 C 0.26123 0.76163 0.99717 0.0
C204 C 0.2889 0.76964 0.00697 0.0
C205 C 0.28553 0.78552 0.00947 0.0
U206 U 0.23891 0.81677 0.99979 0.0
O207 O 0.23039 0.83583 0.01525 0.0
O208 O 0.23863 0.84082 0.99222 0.0
C209 C 0.23349 0.84663 0.00551 0.0
C210 C 0.26605 0.80597 0.0082 0.0
C211 C 0.24154 0.86205 0.01289 0.0
C212 C 0.26529 0.88062 0.02045 0.0
C213 C 0.25818 0.86538 0.01438 0.0
C214 C 0.23922 0.88908 0.02394 0.0
C215 C 0.25586 0.8927 0.02515 0.0
C216 C 0.23216 0.87392 0.01789 0.0
C217 C 0.19962 0.79533 0.9783 0.0
C218 C 0.17545 0.80798 0.97272 0.0
C219 C 0.17568 0.77965 0.96549 0.0
C220 C 0.19166 0.78071 0.97154 0.0
C221 C 0.16734 0.79324 0.96605 0.0
C222 C 0.1915 0.80902 0.9788 0.0
C223 C 0.21624 0.79584 0.98506 0.0
O224 O 0.26337 0.81271 0.99499 0.0
O225 O 0.25519 0.80815 0.01807 0.0
O226 O 0.21877 0.79865 1.00065 0.0
O227 O 0.22684 0.80371 0.97761 0.0
H228 H 0.24589 0.78024 0.99658 0.0
H229 H 0.25166 0.75262 0.99229 0.0
H230 H 0.30091 0.76677 0.01006 0.0
H231 H 0.29499 0.79468 0.01428 0.0
H232 H 0.27814 0.88298 0.02133 0.0
H233 H 0.26563 0.85631 0.01063 0.0
H234 H 0.23156 0.89814 0.02715 0.0
H235 H 0.21929 0.87157 0.01675 0.0
H236 H 0.16939 0.81867 0.97324 0.0
H237 H 0.16975 0.76806 0.96076 0.0
H238 H 0.19777 0.77003 0.97116 0.0
H239 H 0.19754 0.82042 0.984 0.0
C240 C 0.7765 0.20364 0.31963 0.0
C241 C 0.78683 0.19377 0.32682 0.0
C242 C 0.76976 0.17019 0.31466 0.0
C243 C 0.78353 0.17719 0.32431 0.0
C244 C 0.75975 0.18016 0.30706 0.0
C245 C 0.7631 0.19674 0.30955 0.0
U246 U 0.79744 0.23918 0.3461 0.0
O247 O 0.80641 0.26331 0.34108 0.0
O248 O 0.78839 0.26014 0.35786 0.0
C249 C 0.79681 0.2702 0.35025 0.0
C250 C 0.77897 0.22101 0.32364 0.0
C251 C 0.7884 0.28305 0.34388 0.0
C252 C 0.76402 0.29368 0.33428 0.0
C253 C 0.77218 0.2807 0.3381 0.0
C254 C 0.78836 0.31134 0.34122 0.0
C255 C 0.77194 0.30922 0.33614 0.0
C256 C 0.79648 0.29838 0.34505 0.0
C257 C 0.82767 0.23187 0.37992 0.0
C258 C 0.8382 0.25314 0.40048 0.0
C259 C 0.84783 0.22713 0.40075 0.0
C260 C 0.83765 0.22166 0.38697 0.0
C261 C 0.84812 0.2429 0.40774 0.0
C262 C 0.82808 0.24768 0.38667 0.0
C263 C 0.81657 0.22586 0.36583 0.0
O264 O 0.77419 0.22602 0.33737 0.0
O265 O 0.79303 0.2279 0.32138 0.0
O266 O 0.82064 0.23035 0.35222 0.0
O267 O 0.80147 0.22695 0.36762 0.0
H268 H 0.79718 0.1989 0.33477 0.0
H269 H 0.79137 0.16989 0.3305 0.0
H270 H 0.74914 0.17514 0.29944 0.0
H271 H 0.75498 0.20418 0.30394 0.0
H272 H 0.75143 0.29161 0.33021 0.0
H273 H 0.76572 0.26894 0.33705 0.0
H274 H 0.79481 0.32312 0.34299 0.0
H275 H 0.80897 0.30046 0.34956 0.0
H276 H 0.83833 0.26541 0.40544 0.0
H277 H 0.85523 0.21892 0.40613 0.0
H278 H 0.83743 0.20941 0.38191 0.0
H279 H 0.82048 0.25574 0.38132 0.0
C280 C 0.63299 0.70044 0.98132 0.0
C281 C 0.62396 0.71309 0.97834 0.0
C282 C 0.64795 0.73181 0.98253 0.0
C283 C 0.63136 0.72857 0.97882 0.0
C284 C 0.65695 0.71909 0.98569 0.0
C285 C 0.64952 0.70354 0.98504 0.0
U286 U 0.59681 0.67339 0.98747 0.0
O287 O 0.58408 0.65247 0.97262 0.0
O288 O 0.59351 0.65044 0.99733 0.0
C289 C 0.58651 0.64297 0.98381 0.0
C290 C 0.62515 0.68413 0.98085 0.0
C291 C 0.59206 0.62756 0.97874 0.0
C292 C 0.61253 0.60937 0.97857 0.0
C293 C 0.60796 0.62461 0.98219 0.0
C294 C 0.58552 0.60007 0.9674 0.0
C295 C 0.6013 0.59685 0.97137 0.0
C296 C 0.58095 0.61528 0.97109 0.0
C297 C 0.56128 0.69121 0.0023 0.0
C298 C 0.53532 0.67589 0.99931 0.0
C299 C 0.54055 0.6996 0.01812 0.0
C300 C 0.55609 0.70188 0.01387 0.0
C301 C 0.52994 0.68663 0.01079 0.0
C302 C 0.55086 0.67809 0.9952 0.0
C303 C 0.57763 0.69352 0.99795 0.0
O304 O 0.6225 0.6794 0.9948 0.0
O305 O 0.61291 0.68043 0.96996 0.0
O306 O 0.57919 0.69021 0.98274 0.0
O307 O 0.58834 0.68772 0.00739 0.0
H308 H 0.61114 0.71101 0.97557 0.0
H309 H 0.62406 0.73796 0.97606 0.0
H310 H 0.6697 0.72115 0.98884 0.0
H311 H 0.65667 0.69395 0.98753 0.0
H312 H 0.62474 0.60729 0.98198 0.0
H313 H 0.61674 0.63395 0.98807 0.0
H314 H 0.57663 0.59078 0.96162 0.0
H315 H 0.56863 0.61736 0.96828 0.0
H316 H 0.52744 0.66595 0.99318 0.0
H317 H 0.53686 0.70799 0.02715 0.0
H318 H 0.56406 0.71196 0.01962 0.0
H319 H 0.5547 0.6696 0.98635 0.0
C320 C 0.65678 0.35887 0.31093 0.0
C321 C 0.66191 0.37106 0.3233 0.0
C322 C 0.6561 0.35296 0.34315 0.0
C323 C 0.66157 0.36813 0.33923 0.0
C324 C 0.65131 0.3407 0.3308 0.0
C325 C 0.65162 0.34364 0.31484 0.0
U326 U 0.64256 0.38372 0.27874 0.0
O327 O 0.65417 0.39326 0.25892 0.0
O328 O 0.63185 0.37739 0.25406 0.0
C329 C 0.64358 0.38526 0.24803 0.0
C330 C 0.65581 0.36208 0.29402 0.0
C331 C 0.64987 0.37693 0.23429 0.0
C332 C 0.65642 0.35282 0.21949 0.0
C333 C 0.65155 0.36055 0.23329 0.0
C334 C 0.65843 0.37783 0.20779 0.0
C335 C 0.65976 0.36135 0.2065 0.0
C336 C 0.65353 0.38551 0.22153 0.0
C337 C 0.61864 0.41823 0.29261 0.0
C338 C 0.61745 0.44565 0.28665 0.0
C339 C 0.59457 0.43126 0.29579 0.0
C340 C 0.60292 0.41786 0.29663 0.0
C341 C 0.60185 0.44539 0.29105 0.0
C342 C 0.62576 0.4322 0.28738 0.0
C343 C 0.62764 0.40441 0.29514 0.0
O344 O 0.64147 0.35949 0.28627 0.0
O345 O 0.66377 0.37534 0.29095 0.0
O346 O 0.64304 0.40629 0.29391 0.0
O347 O 0.62076 0.39044 0.2887 0.0
H348 H 0.66589 0.38297 0.3207 0.0
H349 H 0.66547 0.37777 0.3485 0.0
H350 H 0.64692 0.32893 0.33346 0.0
H351 H 0.64758 0.33407 0.30554 0.0
H352 H 0.65748 0.34016 0.21895 0.0
H353 H 0.64885 0.35371 0.24305 0.0
H354 H 0.66068 0.38474 0.19797 0.0
H355 H 0.65225 0.39814 0.22205 0.0
H356 H 0.62329 0.45632 0.28278 0.0
H357 H 0.58264 0.43074 0.29942 0.0
H358 H 0.59721 0.40729 0.30082 0.0
H359 H 0.63785 0.43288 0.28416 0.0
C360 C 0.99546 0.27522 0.77535 0.0
C361 C 0.9992 0.2654 0.76216 0.0
C362 C 0.98617 0.28184 0.74395 0.0
C363 C 0.99472 0.26878 0.7466 0.0
C364 C 0.98268 0.29178 0.75716 0.0
C365 C 0.98732 0.28852 0.77268 0.0
U366 U 0.99401 0.24353 0.80324 0.0
O367 O 0.01055 0.23756 0.82294 0.0
O368 O 0.98621 0.24255 0.82716 0.0
C369 C 1.00006 0.23896 0.83335 0.0
C370 C 0.99867 0.27096 0.79178 0.0
C371 C 0.00592 0.24674 0.84934 0.0
C372 C 0.01286 0.27009 0.86861 0.0
C373 C 0.00824 0.26336 0.85286 0.0
C374 C 0.01296 0.24365 0.8772 0.0
C375 C 0.0152 0.26028 0.88099 0.0
C376 C 0.00843 0.237 0.86157 0.0
C377 C 0.97743 0.20193 0.78394 0.0
C378 C 0.98291 0.17636 0.79277 0.0
C379 C 0.9594 0.17821 0.77467 0.0
C380 C 0.96353 0.19458 0.77491 0.0
C381 C 0.9692 0.16891 0.78338 0.0
C382 C 0.98695 0.19277 0.79313 0.0
C383 C 0.98197 0.21899 0.78317 0.0
O384 O 0.98587 0.26674 0.79865 0.0
O385 O 0.01007 0.26167 0.79415 0.0
O386 O 0.9973 0.22376 0.78561 0.0
O387 O 0.97314 0.22875 0.79037 0.0
H388 H 0.00531 0.25493 0.76384 0.0
H389 H 0.99762 0.26097 0.73665 0.0
H390 H 0.97641 0.30215 0.75548 0.0
H391 H 0.98426 0.29622 0.78264 0.0
H392 H 0.01454 0.28294 0.87109 0.0
H393 H 0.00629 0.27107 0.84353 0.0
H394 H 0.01422 0.23567 0.8864 0.0
H395 H 0.00654 0.22414 0.85909 0.0
H396 H 0.9906 0.16947 0.79968 0.0
H397 H 0.94888 0.17274 0.76718 0.0
H398 H 0.95603 0.20146 0.76777 0.0
H399 H 0.99765 0.19823 0.80035 0.0
C400 C 0.3194 0.76913 0.20823 0.0
C401 C 0.31684 0.78124 0.19832 0.0
C402 C 0.3135 0.76183 0.17479 0.0
C403 C 0.31383 0.77761 0.18178 0.0
C404 C 0.3159 0.74975 0.18483 0.0
C405 C 0.31874 0.75336 0.20134 0.0
U406 U 0.34434 0.79388 0.24301 0.0
O407 O 0.3387 0.80268 0.26696 0.0
O408 O 0.35757 0.78685 0.26429 0.0
C409 C 0.34907 0.79443 0.27414 0.0
C410 C 0.32377 0.77274 0.22557 0.0
C411 C 0.34364 0.78566 0.28717 0.0
C412 C 0.33646 0.7609 0.29833 0.0
C413 C 0.33964 0.76909 0.28519 0.0
C414 C 0.34051 0.78583 0.31538 0.0
C415 C 0.33717 0.76915 0.31364 0.0
C416 C 0.34373 0.79398 0.30228 0.0
C417 C 0.37456 0.82717 0.2347 0.0
C418 C 0.39655 0.83814 0.2543 0.0
C419 C 0.39073 0.85133 0.23059 0.0
C420 C 0.37802 0.83966 0.22547 0.0
C421 C 0.40024 0.85064 0.24501 0.0
C422 C 0.38378 0.82657 0.24923 0.0
C423 C 0.36158 0.81462 0.22898 0.0
O424 O 0.33824 0.76979 0.23059 0.0
O425 O 0.31984 0.7863 0.23218 0.0
O426 O 0.34751 0.81714 0.23344 0.0
O427 O 0.36511 0.80001 0.23033 0.0
H428 H 0.3174 0.79355 0.20329 0.0
H429 H 0.31186 0.7872 0.17448 0.0
H430 H 0.31609 0.73751 0.17993 0.0
H431 H 0.32084 0.74386 0.20874 0.0
H432 H 0.33374 0.74808 0.29656 0.0
H433 H 0.33943 0.76244 0.27359 0.0
H434 H 0.34138 0.79255 0.32701 0.0
H435 H 0.34686 0.80676 0.30406 0.0
H436 H 0.40372 0.83706 0.26533 0.0
H437 H 0.39305 0.86092 0.22327 0.0
H438 H 0.37095 0.84034 0.21426 0.0
H439 H 0.38126 0.81701 0.25656 0.0
C440 C 0.9867 0.62008 0.70155 0.0
C441 C 0.98306 0.61017 0.71338 0.0
C442 C 0.98603 0.63318 0.73338 0.0
C443 C 0.98266 0.61666 0.72911 0.0
C444 C 0.99003 0.64298 0.72153 0.0
C445 C 0.9903 0.63649 0.70577 0.0
U446 U 0.99376 0.58701 0.6701 0.0
O447 O 0.97875 0.57689 0.64817 0.0
O448 O 0.00313 0.58772 0.64689 0.0
C449 C 0.98965 0.58121 0.63895 0.0
C450 C 0.98647 0.61355 0.68477 0.0
C451 C 0.98412 0.58874 0.62482 0.0
C452 C 0.98223 0.61199 0.61034 0.0
C453 C 0.98606 0.60533 0.62452 0.0
C454 C 0.97384 0.58561 0.59688 0.0
C455 C 0.9764 0.60216 0.59627 0.0
C456 C 0.9777 0.57898 0.61103 0.0
C457 C 0.00974 0.54925 0.6805 0.0
C458 C 0.00848 0.52739 0.65956 0.0
C459 C 0.02243 0.52548 0.68553 0.0
C460 C 0.01872 0.54071 0.69078 0.0
C461 C 0.01712 0.51859 0.66994 0.0
C462 C 0.0049 0.54263 0.66478 0.0
C463 C 0.00526 0.56497 0.68609 0.0
O464 O 1.00047 0.61212 0.67961 0.0
O465 O 0.97598 0.60117 0.68003 0.0
O466 O 0.98994 0.56646 0.68376 0.0
O467 O 0.01425 0.5771 0.68203 0.0
H468 H 0.98032 0.59744 0.71042 0.0
H469 H 0.97935 0.60875 0.73783 0.0
H470 H 0.99301 0.6557 0.72441 0.0
H471 H 0.99324 0.64432 0.69684 0.0
H472 H 0.98447 0.62477 0.61024 0.0
H473 H 0.99097 0.61307 0.63509 0.0
H474 H 0.96912 0.57774 0.58634 0.0
H475 H 0.97606 0.56615 0.61108 0.0
H476 H 0.00432 0.5224 0.64748 0.0
H477 H 0.02892 0.51886 0.69385 0.0
H478 H 0.0226 0.54568 0.70293 0.0
H479 H 0.99809 0.54916 0.65662 0.0
C480 C 0.69217 0.35025 0.64885 0.0
C481 C 0.68355 0.3623 0.64321 0.0
C482 C 0.65929 0.35021 0.6524 0.0
C483 C 0.66737 0.36234 0.64507 0.0
C484 C 0.66798 0.33816 0.6581 0.0
C485 C 0.68428 0.33819 0.65633 0.0
U486 U 0.72388 0.3595 0.62229 0.0
O487 O 0.74867 0.37036 0.62668 0.0
O488 O 0.74332 0.34633 0.61401 0.0
C489 C 0.75444 0.35757 0.62048 0.0
C490 C 0.70901 0.34977 0.64589 0.0
C491 C 0.7686 0.35237 0.62941 0.0
C492 C 0.78926 0.35598 0.65189 0.0
C493 C 0.77471 0.3597 0.64463 0.0
C494 C 0.79158 0.33716 0.62913 0.0
C495 C 0.79804 0.34488 0.64409 0.0
C496 C 0.77708 0.34092 0.62187 0.0
C497 C 0.70761 0.37843 0.58483 0.0
C498 C 0.72235 0.39273 0.56638 0.0
C499 C 0.69408 0.38477 0.56005 0.0
C500 C 0.69372 0.37793 0.57437 0.0
C501 C 0.70837 0.39227 0.55586 0.0
C502 C 0.72198 0.38581 0.58076 0.0
C503 C 0.70646 0.37152 0.6 0.0
O504 O 0.71135 0.34015 0.63343 0.0
O505 O 0.71742 0.36373 0.64675 0.0
O506 O 0.71368 0.38004 0.61287 0.0
O507 O 0.70814 0.35625 0.59976 0.0
H508 H 0.6893 0.37164 0.63721 0.0
H509 H 0.66123 0.372 0.64081 0.0
H510 H 0.66213 0.3285 0.6636 0.0
H511 H 0.69065 0.32864 0.66053 0.0
H512 H 0.79391 0.36228 0.66333 0.0
H513 H 0.76853 0.36865 0.65076 0.0
H514 H 0.79784 0.32836 0.62288 0.0
H515 H 0.7727 0.33515 0.61011 0.0
H516 H 0.73357 0.39829 0.56343 0.0
H517 H 0.68305 0.38442 0.55238 0.0
H518 H 0.6825 0.37236 0.57737 0.0
H519 H 0.73285 0.38628 0.5887 0.0
C520 C 0.79905 0.66918 0.23361 0.0
C521 C 0.80751 0.65691 0.22758 0.0
C522 C 0.83271 0.67265 0.23709 0.0
C523 C 0.82413 0.65857 0.2294 0.0
C524 C 0.82417 0.68495 0.24316 0.0
C525 C 0.80746 0.68322 0.24141 0.0
U526 U 0.76242 0.64873 0.20962 0.0
O527 O 0.73993 0.63727 0.21597 0.0
O528 O 0.73957 0.65686 0.20077 0.0
C529 C 0.73122 0.64683 0.20847 0.0
C530 C 0.78152 0.6674 0.2311 0.0
C531 C 0.71866 0.65321 0.21724 0.0
C532 C 0.70945 0.66522 0.24143 0.0
C533 C 0.72195 0.66096 0.23274 0.0
C534 C 0.69039 0.65451 0.21899 0.0
C535 C 0.69348 0.66175 0.23476 0.0
C536 C 0.70286 0.6503 0.21034 0.0
C537 C 0.77003 0.61845 0.17551 0.0
C538 C 0.74875 0.6013 0.15943 0.0
C539 C 0.77621 0.59947 0.15431 0.0
C540 C 0.7812 0.61151 0.16667 0.0
C541 C 0.75994 0.59415 0.15061 0.0
C542 C 0.75377 0.61336 0.1718 0.0
C543 C 0.77559 0.63066 0.1888 0.0
O544 O 0.77547 0.67226 0.21776 0.0
O545 O 0.77472 0.65347 0.23386 0.0
O546 O 0.77291 0.62664 0.20297 0.0
O547 O 0.77237 0.64521 0.18663 0.0
H548 H 0.80126 0.64599 0.22142 0.0
H549 H 0.83023 0.64871 0.22486 0.0
H550 H 0.83039 0.69601 0.249 0.0
H551 H 0.80112 0.69288 0.246 0.0
H552 H 0.71227 0.67094 0.25347 0.0
H553 H 0.73411 0.66331 0.23825 0.0
H554 H 0.67829 0.65139 0.21352 0.0
H555 H 0.70011 0.64423 0.19842 0.0
H556 H 0.73615 0.59736 0.15698 0.0
H557 H 0.7851 0.5944 0.14759 0.0
H558 H 0.7938 0.61536 0.16938 0.0
H559 H 0.745 0.61859 0.17859 0.0
C560 C 0.29859 0.02182 0.36231 0.0
C561 C 0.28863 0.03067 0.37121 0.0
C562 C 0.26672 0.02401 0.35023 0.0
C563 C 0.27295 0.03185 0.36519 0.0
C564 C 0.27679 0.0154 0.34118 0.0
C565 C 0.29259 0.01434 0.34718 0.0
U566 U 0.32416 0.0116 0.39753 0.0
O567 O 0.34461 0.99763 0.40048 0.0
O568 O 0.34691 0.02284 0.41005 0.0
C569 C 0.35415 0.00994 0.4075 0.0
C570 C 0.3147 0.0194 0.3693 0.0
C571 C 0.36982 0.0124 0.4016 0.0
C572 C 0.38648 0.01605 0.38018 0.0
C573 C 0.37134 0.01397 0.38547 0.0
C574 C 0.3986 0.01529 0.40714 0.0
C575 C 0.40028 0.01666 0.39096 0.0
C576 C 0.3835 0.01318 0.41239 0.0
C577 C 0.303 0.00238 0.43356 0.0
C578 C 0.31779 0.9957 0.45753 0.0
C579 C 0.29077 0.00272 0.45828 0.0
C580 C 0.28987 0.00462 0.44205 0.0
C581 C 0.30485 0.99853 0.46624 0.0
C582 C 0.3169 0.9977 0.4413 0.0
C583 C 0.30248 0.00613 0.417 0.0
O584 O 0.32089 0.02993 0.3812 0.0
O585 O 0.31675 0.00465 0.37196 0.0
O586 O 0.30657 0.99502 0.40673 0.0
O587 O 0.30891 0.02048 0.41523 0.0
H588 H 0.29284 0.03649 0.38299 0.0
H589 H 0.26567 0.03883 0.37235 0.0
H590 H 0.27234 0.00909 0.32968 0.0
H591 H 0.3 0.00733 0.34018 0.0
H592 H 0.38739 0.0172 0.36767 0.0
H593 H 0.36086 0.0135 0.37701 0.0
H594 H 0.40896 0.01546 0.4157 0.0
H595 H 0.3825 0.01199 0.42489 0.0
H596 H 0.32884 0.99265 0.46341 0.0
H597 H 0.28058 0.00484 0.46469 0.0
H598 H 0.27907 0.00827 0.43622 0.0
H599 H 0.32721 0.99605 0.43491 0.0
C600 C 0.21715 0.00078 0.72498 0.0
C601 C 0.22868 0.00696 0.73755 0.0
C602 C 0.24955 0.00587 0.71982 0.0
C603 C 0.24468 0.00946 0.73502 0.0
C604 C 0.23794 0.99962 0.70718 0.0
C605 C 0.22183 0.9971 0.70976 0.0
U606 U 0.18948 0.00235 0.756 0.0
O607 O 0.1661 0.01131 0.75787 0.0
O608 O 0.16928 0.98643 0.76166 0.0
C609 C 0.15934 0.9974 0.76069 0.0
C610 C 0.20043 0.9981 0.72825 0.0
C611 C 0.14339 0.99233 0.75239 0.0
C612 C 0.12528 0.97592 0.732 0.0
C613 C 0.14085 0.98136 0.73867 0.0
C614 C 0.11483 0.99266 0.75248 0.0
C615 C 0.1121 0.98131 0.73905 0.0
C616 C 0.1303 0.99808 0.75906 0.0
C617 C 0.211 0.01627 0.79769 0.0
C618 C 0.19916 0.02651 0.82107 0.0
C619 C 0.22576 0.01814 0.82383 0.0
C620 C 0.22475 0.01412 0.80741 0.0
C621 C 0.213 0.02442 0.83085 0.0
C622 C 0.19812 0.02238 0.80459 0.0
C623 C 0.21059 0.01225 0.78042 0.0
O624 O 0.19748 0.98638 0.73702 0.0
O625 O 0.19421 0.01112 0.7331 0.0
O626 O 0.20371 0.02193 0.77136 0.0
O627 O 0.20689 0.99713 0.77527 0.0
H628 H 0.2253 0.00973 0.74943 0.0
H629 H 0.25328 0.0139 0.7451 0.0
H630 H 0.2413 0.99674 0.69532 0.0
H631 H 0.21309 0.99226 0.69994 0.0
H632 H 0.12354 0.96717 0.72166 0.0
H633 H 0.15084 0.9768 0.73333 0.0
H634 H 0.10496 0.99731 0.75798 0.0
H635 H 0.13203 0.00659 0.76961 0.0
H636 H 0.18911 0.03122 0.82618 0.0
H637 H 0.23666 0.0166 0.83102 0.0
H638 H 0.23481 0.00945 0.80226 0.0
H639 H 0.18735 0.02404 0.79725 0.0
C640 C 0.64932 0.69226 0.354 0.0
C641 C 0.64265 0.68305 0.36508 0.0
C642 C 0.65557 0.66017 0.35512 0.0
C643 C 0.64578 0.66723 0.3657 0.0
C644 C 0.6622 0.66944 0.34395 0.0
C645 C 0.65908 0.68536 0.3434 0.0
U646 U 0.62385 0.72388 0.36662 0.0
O647 O 0.62923 0.74901 0.37623 0.0
O648 O 0.61303 0.7426 0.35429 0.0
C649 C 0.62056 0.75415 0.36447 0.0
C650 C 0.64579 0.70891 0.35351 0.0
C651 C 0.62772 0.76817 0.35769 0.0
C652 C 0.64917 0.7822 0.3457 0.0
C653 C 0.64239 0.76828 0.35125 0.0
C654 C 0.62659 0.79583 0.35281 0.0
C655 C 0.64138 0.79619 0.34649 0.0
C656 C 0.61986 0.78198 0.35832 0.0
C657 C 0.5911 0.70917 0.39215 0.0
C658 C 0.57046 0.72459 0.40155 0.0
C659 C 0.57233 0.69787 0.40899 0.0
C660 C 0.58542 0.69655 0.4003 0.0
C661 C 0.56464 0.71188 0.40971 0.0
C662 C 0.58362 0.72325 0.39285 0.0
C663 C 0.60466 0.70713 0.38284 0.0
O664 O 0.63201 0.7107 0.34575 0.0
O665 O 0.64853 0.71776 0.36728 0.0
O666 O 0.61842 0.71461 0.38912 0.0
O667 O 0.60193 0.70804 0.36745 0.0
H668 H 0.63503 0.68813 0.37335 0.0
H669 H 0.6407 0.66061 0.37465 0.0
H670 H 0.66964 0.66436 0.33552 0.0
H671 H 0.66424 0.69225 0.33468 0.0
H672 H 0.66049 0.78199 0.34078 0.0
H673 H 0.64863 0.7577 0.35068 0.0
H674 H 0.62037 0.8064 0.35391 0.0
H675 H 0.60858 0.78214 0.36335 0.0
H676 H 0.5649 0.73559 0.40197 0.0
H677 H 0.56802 0.68775 0.41486 0.0
H678 H 0.59103 0.68557 0.39982 0.0
H679 H 0.58791 0.73313 0.38663 0.0
C680 C 0.71994 0.21875 0.9947 0.0
C681 C 0.72319 0.22776 0.00967 0.0
C682 C 0.71557 0.2515 0.99811 0.0
C683 C 0.72095 0.24391 0.01136 0.0
C684 C 0.71205 0.24242 0.98321 0.0
C685 C 0.71414 0.22619 0.98154 0.0
U686 U 0.75096 0.19044 0.99965 0.0
O687 O 0.75092 0.16643 0.00733 0.0
O688 O 0.75791 0.17084 0.98366 0.0
C689 C 0.75492 0.16023 0.99364 0.0
C690 C 0.72409 0.2022 0.99239 0.0
C691 C 0.74636 0.14474 0.98677 0.0
C692 C 0.72771 0.12156 0.98888 0.0
C693 C 0.73367 0.13738 0.9939 0.0
C694 C 0.74638 0.12052 0.96898 0.0
C695 C 0.73435 0.11281 0.97669 0.0
C696 C 0.75235 0.13629 0.97401 0.0
C697 C 0.79207 0.20945 0.01908 0.0
C698 C 0.81263 0.2079 0.04083 0.0
C699 C 0.82008 0.21239 0.01461 0.0
C700 C 0.80404 0.21189 0.0089 0.0
C701 C 0.82457 0.21056 0.03068 0.0
C702 C 0.79655 0.20739 0.03511 0.0
C703 C 0.77515 0.21018 0.01328 0.0
O704 O 0.73447 0.19982 0.98205 0.0
O705 O 0.72697 0.19518 0.00542 0.0
O706 O 0.76442 0.20322 0.02131 0.0
O707 O 0.77144 0.2078 0.99777 0.0
H708 H 0.72791 0.22247 0.02002 0.0
H709 H 0.724 0.2506 0.02295 0.0
H710 H 0.70785 0.24789 0.97279 0.0
H711 H 0.71166 0.21954 0.96987 0.0
H712 H 0.71852 0.11594 0.99516 0.0
H713 H 0.72882 0.14357 0.00381 0.0
H714 H 0.75158 0.11418 0.95939 0.0
H715 H 0.76217 0.14166 0.96835 0.0
H716 H 0.81571 0.20637 0.05325 0.0
H717 H 0.82899 0.21479 0.00655 0.0
H718 H 0.80105 0.2138 0.99656 0.0
H719 H 0.78764 0.20566 0.04332 0.0
C720 C 0.23586 0.79963 0.67458 0.0
C721 C 0.2257 0.80946 0.66713 0.0
C722 C 0.24377 0.83293 0.67759 0.0
C723 C 0.2296 0.82595 0.66862 0.0
C724 C 0.25374 0.82305 0.68536 0.0
C725 C 0.24982 0.80651 0.68383 0.0
U726 U 0.20975 0.76432 0.65331 0.0
O727 O 0.21525 0.74181 0.64113 0.0
O728 O 0.20039 0.74144 0.66103 0.0
C729 C 0.20773 0.73308 0.65067 0.0
C730 C 0.23224 0.78223 0.67197 0.0
C731 C 0.21576 0.71969 0.65641 0.0
C732 C 0.23914 0.70521 0.65958 0.0
C733 C 0.2323 0.71918 0.65652 0.0
C734 C 0.21315 0.69245 0.66327 0.0
C735 C 0.22955 0.69154 0.66252 0.0
C736 C 0.20635 0.70637 0.66021 0.0
C737 C 0.17532 0.77244 0.62401 0.0
C738 C 0.16237 0.75275 0.60296 0.0
C739 C 0.15037 0.77705 0.6095 0.0
C740 C 0.16294 0.78203 0.62135 0.0
C741 C 0.15005 0.76245 0.60005 0.0
C742 C 0.17486 0.75767 0.61489 0.0
C743 C 0.1888 0.77812 0.63606 0.0
O744 O 0.2188 0.77659 0.67694 0.0
O745 O 0.23428 0.77596 0.65761 0.0
O746 O 0.20293 0.77563 0.63178 0.0
O747 O 0.18694 0.77483 0.65066 0.0
H748 H 0.21486 0.80434 0.65992 0.0
H749 H 0.22156 0.83323 0.66267 0.0
H750 H 0.26481 0.82803 0.69221 0.0
H751 H 0.25783 0.79907 0.6896 0.0
H752 H 0.25178 0.70487 0.65882 0.0
H753 H 0.23985 0.72931 0.65364 0.0
H754 H 0.20548 0.68222 0.66577 0.0
H755 H 0.19357 0.70651 0.6602 0.0
H756 H 0.16232 0.74134 0.59601 0.0
H757 H 0.1411 0.78481 0.60746 0.0
H758 H 0.16311 0.79345 0.62831 0.0
H759 H 0.18424 0.75002 0.61688 0.0
C760 C 0.36137 0.30638 0.00915 0.0
C761 C 0.3705 0.2938 0.00556 0.0
C762 C 0.34862 0.27453 0.00987 0.0
C763 C 0.3642 0.27806 0.0059 0.0
C764 C 0.33952 0.28718 0.01363 0.0
C765 C 0.34586 0.30302 0.01324 0.0
U766 U 0.39788 0.33279 0.00507 0.0
O767 O 0.40291 0.35356 0.99194 0.0
O768 O 0.40899 0.35547 0.01788 0.0
C769 C 0.40847 0.36289 0.00493 0.0
C770 C 0.36844 0.32285 0.00887 0.0
C771 C 0.40284 0.37876 0.00633 0.0
C772 C 0.38304 0.39661 0.0127 0.0
C773 C 0.38795 0.38126 0.01149 0.0
C774 C 0.40783 0.40695 0.00355 0.0
C775 C 0.39295 0.40965 0.00876 0.0
C776 C 0.41271 0.39166 0.00237 0.0
C777 C 0.43481 0.3117 0.99922 0.0
C778 C 0.46049 0.32661 0.99812 0.0
C779 C 0.45825 0.29777 0.9966 0.0
C780 C 0.4419 0.29746 0.99774 0.0
C781 C 0.46775 0.31236 0.99694 0.0
C782 C 0.44412 0.32628 0.99925 0.0
C783 C 0.41783 0.31124 0.0013 0.0
O784 O 0.37923 0.32798 0.02089 0.0
O785 O 0.373 0.32613 0.99502 0.0
O786 O 0.40877 0.31568 0.98941 0.0
O787 O 0.41465 0.31735 0.01533 0.0
H788 H 0.38257 0.29618 0.00253 0.0
H789 H 0.37163 0.26865 0.00324 0.0
H790 H 0.32745 0.28483 0.01666 0.0
H791 H 0.33868 0.3126 0.01611 0.0
H792 H 0.37156 0.3983 0.01686 0.0
H793 H 0.38018 0.37139 0.01459 0.0
H794 H 0.41563 0.41663 1.00013 0.0
H795 H 0.42421 0.3899 0.99829 0.0
H796 H 0.46747 0.33802 0.99826 0.0
H797 H 0.46352 0.28661 0.99595 0.0
H798 H 0.43485 0.28612 0.99777 0.0
H799 H 0.43876 0.33739 1.00036 0.0
C800 C 0.35899 0.64999 0.69908 0.0
C801 C 0.36875 0.64227 0.68904 0.0
C802 C 0.36036 0.65768 0.66743 0.0
C803 C 0.36951 0.64613 0.67347 0.0
C804 C 0.35074 0.66556 0.67765 0.0
C805 C 0.35002 0.66169 0.69332 0.0
U806 U 0.36581 0.61951 0.72744 0.0
O807 O 0.37575 0.62104 0.7525 0.0
O808 O 0.35144 0.60961 0.74528 0.0
C809 C 0.36244 0.61463 0.75715 0.0
C810 C 0.35784 0.64529 0.71526 0.0
C811 C 0.35694 0.62252 0.77166 0.0
C812 C 0.35811 0.64496 0.79209 0.0
C813 C 0.36228 0.6384 0.77744 0.0
C814 C 0.34274 0.62007 0.79509 0.0
C815 C 0.34851 0.63577 0.80125 0.0
C816 C 0.34695 0.61353 0.78051 0.0
C817 C 0.38353 0.5827 0.70824 0.0
C818 C 0.39211 0.56039 0.72166 0.0
C819 C 0.39302 0.56038 0.69316 0.0
C820 C 0.38702 0.57518 0.69375 0.0
C821 C 0.39564 0.55278 0.70708 0.0
C822 C 0.38607 0.57525 0.72223 0.0
C823 C 0.37743 0.59835 0.7083 0.0
O824 O 0.34757 0.63285 0.71607 0.0
O825 O 0.37158 0.64463 0.72367 0.0
O826 O 0.38626 0.61024 0.71691 0.0
O827 O 0.36212 0.59854 0.7096 0.0
H828 H 0.37576 0.63316 0.69325 0.0
H829 H 0.37741 0.64009 0.66621 0.0
H830 H 0.34355 0.67453 0.67351 0.0
H831 H 0.34236 0.66773 0.70088 0.0
H832 H 0.36287 0.65704 0.79649 0.0
H833 H 0.37 0.64564 0.77086 0.0
H834 H 0.33508 0.61274 0.80164 0.0
H835 H 0.34267 0.60127 0.77629 0.0
H836 H 0.39387 0.55479 0.73257 0.0
H837 H 0.39585 0.55503 0.6818 0.0
H838 H 0.3852 0.58081 0.68286 0.0
H839 H 0.3834 0.58092 0.73353 0.0
C840 C 1.00079 0.72217 0.22102 0.0
C841 C 0.99807 0.73409 0.23284 0.0
C842 C 0.00117 0.71587 0.25308 0.0
C843 C 0.99811 0.73092 0.24869 0.0
C844 C 0.00418 0.70401 0.24131 0.0
C845 C 0.00389 0.70712 0.22534 0.0
U846 U 0.00492 0.75391 0.19398 0.0
O847 O 0.01802 0.75696 0.17306 0.0
O848 O 0.99212 0.75816 0.17126 0.0
C849 C 0.00504 0.75848 0.16379 0.0
C850 C 0.00109 0.72591 0.20445 0.0
C851 C 0.00344 0.74988 0.14775 0.0
C852 C 0.99478 0.72657 0.12887 0.0
C853 C 0.99666 0.73401 0.14454 0.0
C854 C 0.00658 0.75078 0.11971 0.0
C855 C 0.99974 0.73491 0.11627 0.0
C856 C 0.00842 0.75815 0.13527 0.0
C857 C 0.01195 0.7961 0.21502 0.0
C858 C 0.01797 0.81919 0.20091 0.0
C859 C 0.01514 0.82256 0.2292 0.0
C860 C 0.01206 0.80609 0.22914 0.0
C861 C 0.01817 0.8293 0.2151 0.0
C862 C 0.01484 0.80269 0.20086 0.0
C863 C 0.00912 0.77882 0.21533 0.0
O864 O 0.98909 0.73333 0.19901 0.0
O865 O 0.01496 0.7323 0.2011 0.0
O866 O 0.02079 0.77076 0.21104 0.0
O867 O 0.99498 0.77226 0.20908 0.0
H868 H 0.99586 0.74586 0.22978 0.0
H869 H 0.99591 0.74029 0.25757 0.0
H870 H 0.00663 0.69234 0.24445 0.0
H871 H 0.0062 0.69785 0.21641 0.0
H872 H 0.98956 0.71431 0.12662 0.0
H873 H 0.99273 0.72746 0.15408 0.0
H874 H 0.01023 0.75767 0.1103 0.0
H875 H 0.01357 0.77044 0.13754 0.0
H876 H 0.02013 0.82405 0.18984 0.0
H877 H 0.01546 0.82999 0.24037 0.0
H878 H 0.00991 0.80114 0.24017 0.0
H879 H 0.01475 0.79508 0.18984 0.0
C880 C 0.67412 0.23444 0.79653 0.0
C881 C 0.66668 0.22484 0.80687 0.0
C882 C 0.6795 0.24241 0.82982 0.0
C883 C 0.66937 0.22877 0.82336 0.0
C884 C 0.68703 0.25191 0.81938 0.0
C885 C 0.68436 0.24794 0.80286 0.0
U886 U 0.65023 0.20934 0.76182 0.0
O887 O 0.63908 0.2153 0.73902 0.0
O888 O 0.65711 0.19828 0.7392 0.0
C889 C 0.64783 0.20648 0.73055 0.0
C890 C 0.67083 0.23056 0.77919 0.0
C891 C 0.65466 0.21365 0.71718 0.0
C892 C 0.66207 0.23668 0.70334 0.0
C893 C 0.6578 0.23022 0.71715 0.0
C894 C 0.66094 0.21009 0.68978 0.0
C895 C 0.66325 0.22668 0.68936 0.0
C896 C 0.65665 0.20366 0.70353 0.0
C897 C 0.61807 0.17785 0.77104 0.0
C898 C 0.60671 0.1542 0.75374 0.0
C899 C 0.59171 0.16539 0.77425 0.0
C900 C 0.60425 0.17733 0.77893 0.0
C901 C 0.59285 0.15366 0.76165 0.0
C902 C 0.61918 0.16624 0.75833 0.0
C903 C 0.63105 0.19065 0.77615 0.0
O904 O 0.6744 0.21645 0.7737 0.0
O905 O 0.6568 0.23382 0.77312 0.0
O906 O 0.62796 0.20496 0.77289 0.0
O907 O 0.64548 0.18747 0.77335 0.0
H908 H 0.65864 0.21441 0.80217 0.0
H909 H 0.6632 0.22133 0.83104 0.0
H910 H 0.69502 0.26241 0.82397 0.0
H911 H 0.69019 0.25547 0.79504 0.0
H912 H 0.66369 0.24951 0.7034 0.0
H913 H 0.65637 0.23819 0.72757 0.0
H914 H 0.66203 0.20205 0.67931 0.0
H915 H 0.65434 0.19084 0.70332 0.0
H916 H 0.60783 0.14543 0.74386 0.0
H917 H 0.58122 0.16519 0.78063 0.0
H918 H 0.60315 0.18619 0.78875 0.0
H919 H 0.62966 0.16649 0.75192 0.0
C920 C 0.01907 0.3663 0.2919 0.0
C921 C 0.01201 0.37371 0.2793 0.0
C922 C 0.02298 0.3558 0.26002 0.0
C923 C 0.01388 0.36847 0.26353 0.0
C924 C 0.02981 0.34821 0.27269 0.0
C925 C 0.02789 0.35345 0.28851 0.0
U926 U 0.01249 0.40148 0.31943 0.0
O927 O 1.0 0.40479 0.34086 0.0
O928 O 0.02557 0.41269 0.34201 0.0
C929 C 0.01303 0.41084 0.34992 0.0
C930 C 0.01831 0.37293 0.30846 0.0
C931 C 0.01564 0.40473 0.36552 0.0
C932 C 0.01433 0.3832 0.38252 0.0
C933 C 0.0129 0.38844 0.36731 0.0
C934 C 0.02175 0.41041 0.39419 0.0
C935 C 0.01858 0.39417 0.39616 0.0
C936 C 0.02028 0.41561 0.37902 0.0
C937 C 0.00376 0.4386 0.2994 0.0
C938 C 0.99702 0.4627 0.31396 0.0
C939 C 0.00595 0.4636 0.28767 0.0
C940 C 0.00727 0.44727 0.28668 0.0
C941 C 0.00105 0.47152 0.30141 0.0
C942 C 0.99848 0.44634 0.313 0.0
C943 C 0.00672 0.42179 0.29864 0.0
O944 O 0.02964 0.38439 0.31374 0.0
O945 O 0.00413 0.37626 0.312 0.0
O946 O 0.99553 0.41195 0.30322 0.0
O947 O 0.02116 0.4193 0.30419 0.0
H948 H 0.00527 0.38376 0.28167 0.0
H949 H 0.00823 0.37442 0.25409 0.0
H950 H 0.03703 0.33852 0.27042 0.0
H951 H 0.03359 0.34772 0.29809 0.0
H952 H 0.01198 0.3706 0.38362 0.0
H953 H 0.00938 0.37984 0.357 0.0
H954 H 0.02483 0.41919 0.40442 0.0
H955 H 0.0224 0.42824 0.37785 0.0
H956 H 0.99336 0.46855 0.32473 0.0
H957 H 0.00898 0.4701 0.27778 0.0
H958 H 0.01139 0.44146 0.27611 0.0
H959 H 0.99585 0.43983 0.32301 0.0
H960 H 0.29412 0.53098 0.63904 0.0
H961 H 0.30662 0.51512 0.59238 0.0
H962 H 0.28775 0.56007 0.60051 0.0
H963 H 0.32446 0.50242 0.60754 0.0
C964 C 0.31733 0.49801 0.61651 0.0
C965 C 0.29506 0.53291 0.62669 0.0
C966 C 0.2901 0.54681 0.6209 0.0
C967 C 0.30123 0.52146 0.61659 0.0
C968 C 0.30223 0.52395 0.60045 0.0
C969 C 0.29755 0.53798 0.59468 0.0
C970 C 0.29146 0.54926 0.60496 0.0
N971 N 0.306 0.50747 0.62291 0.0
H972 H 0.32467 0.57021 0.999 0.0
H973 H 0.28076 0.55745 0.96842 0.0
H974 H 0.30691 0.52102 0.98683 0.0
H975 H 0.3243 0.59257 0.9839 0.0
C976 C 0.31194 0.59486 0.98436 0.0
C977 C 0.31559 0.56129 0.9929 0.0
C978 C 0.31703 0.5451 0.99427 0.0
C979 C 0.30223 0.56578 0.98381 0.0
C980 C 0.29076 0.554 0.9758 0.0
C981 C 0.2924 0.53784 0.97686 0.0
C982 C 0.30533 0.53354 0.9864 0.0
N983 N 0.29973 0.58197 0.98267 0.0
H984 H 0.70558 0.96664 0.32049 0.0
H985 H 0.70136 0.99999 0.36095 0.0
H986 H 0.68255 0.95102 0.36027 0.0
H987 H 0.69349 0.01393 0.33723 0.0
C988 C 0.70519 0.01282 0.33321 0.0
C989 C 0.7015 0.96924 0.33209 0.0
C990 C 0.69359 0.95706 0.33947 0.0
C991 C 0.70366 0.98491 0.33958 0.0
C992 C 0.6988 0.98808 0.35484 0.0
C993 C 0.69137 0.97593 0.36252 0.0
C994 C 0.68852 0.9605 0.35459 0.0
N995 N 0.71081 0.99752 0.33188 0.0
H996 H 0.71037 0.93365 0.97199 0.0
H997 H 0.7333 0.91021 0.00935 0.0
H998 H 0.74102 0.96113 0.01022 0.0
H999 H 0.73521 0.89279 0.98279 0.0
C1000 C 0.72225 0.89145 0.98161 0.0
C1001 C 0.71821 0.93427 0.98295 0.0
C1002 C 0.72572 0.94904 0.9901 0.0
C1003 C 0.72133 0.92021 0.98959 0.0
C1004 C 0.7313 0.92103 0.00394 0.0
C1005 C 0.73838 0.93575 0.01152 0.0
C1006 C 0.73577 0.94966 0.00435 0.0
N1007 N 0.71402 0.9053 0.98207 0.0
H1008 H 0.64649 0.29729 0.53174 0.0
H1009 H 0.60131 0.31603 0.5224 0.0
H1010 H 0.61096 0.29238 0.56434 0.0
H1011 H 0.61555 0.3319 0.50757 0.0
C1012 C 0.62359 0.3242 0.50227 0.0
C1013 C 0.63481 0.2994 0.53516 0.0
C1014 C 0.62985 0.29388 0.54917 0.0
C1015 C 0.62467 0.30749 0.52542 0.0
C1016 C 0.60939 0.31007 0.52987 0.0
C1017 C 0.60447 0.30485 0.54407 0.0
C1018 C 0.61474 0.29667 0.5535 0.0
N1019 N 0.63002 0.31234 0.51102 0.0
H1020 H 0.97402 0.69073 0.93568 0.0
H1021 H 0.00451 0.72087 0.91055 0.0
H1022 H 0.01108 0.72384 0.96169 0.0
H1023 H 0.97861 0.71848 0.89395 0.0
C1024 C 0.97844 0.70558 0.89276 0.0
C1025 C 0.98374 0.70002 0.9358 0.0
C1026 C 0.99198 0.70688 0.95034 0.0
C1027 C 0.9881 0.70515 0.92139 0.0
C1028 C 0.00086 0.71711 0.92164 0.0
C1029 C 0.0092 0.72398 0.93613 0.0
C1030 C 0.00462 0.71879 0.95041 0.0
N1031 N 0.98018 0.69758 0.90672 0.0
H1032 H 0.99188 0.34543 0.56058 0.0
H1033 H 0.95046 0.31148 0.55953 0.0
H1034 H 0.97056 0.32012 0.51618 0.0
H1035 H 0.94664 0.32915 0.58168 0.0
C1036 C 0.9586 0.32981 0.58775 0.0
C1037 C 0.98285 0.33676 0.55399 0.0
C1038 C 0.98275 0.33352 0.5374 0.0
C1039 C 0.9712 0.32895 0.56209 0.0
C1040 C 0.95937 0.31778 0.55344 0.0
C1041 C 0.95928 0.31437 0.5369 0.0
C1042 C 0.97102 0.32225 0.52905 0.0
N1043 N 0.97198 0.33207 0.57895 0.0
H1044 H 0.32328 0.69737 0.97059 0.0
H1045 H 0.35729 0.69606 0.01122 0.0
H1046 H 0.36712 0.67651 0.965 0.0
H1047 H 0.32766 0.6842 0.01701 0.0
C1048 C 0.32528 0.69651 0.01631 0.0
C1049 C 0.33458 0.69412 0.97559 0.0
C1050 C 0.34451 0.68618 0.96579 0.0
C1051 C 0.33894 0.69715 0.99206 0.0
C1052 C 0.35374 0.69329 0.99856 0.0
C1053 C 0.36399 0.68599 0.98885 0.0
C1054 C 0.35917 0.68214 0.97256 0.0
N1055 N 0.32833 0.70367 0.00227 0.0
H1056 H 0.53396 0.64168 0.3 0.0
H1057 H 0.51535 0.59339 0.30454 0.0
H1058 H 0.56498 0.60444 0.29945 0.0
H1059 H 0.49318 0.60244 0.29066 0.0
C1060 C 0.49293 0.61357 0.29807 0.0
C1061 C 0.53578 0.62926 0.30061 0.0
C1062 C 0.5511 0.62437 0.29992 0.0
C1063 C 0.52274 0.61811 0.30199 0.0
C1064 C 0.5252 0.60197 0.3029 0.0
C1065 C 0.54048 0.59696 0.30224 0.0
C1066 C 0.55326 0.60826 0.30063 0.0
N1067 N 0.50741 0.62346 0.30296 0.0
H1068 H 0.93274 0.96097 0.70464 0.0
H1069 H 0.91364 0.00315 0.72354 0.0
H1070 H 0.96376 0.99875 0.73222 0.0
H1071 H 0.89421 0.98099 0.72902 0.0
C1072 C 0.89229 0.97694 0.71636 0.0
C1073 C 0.93447 0.97258 0.71147 0.0
C1074 C 0.94979 0.97895 0.71819 0.0
C1075 C 0.9213 0.98098 0.7141 0.0
C1076 C 0.9237 0.99628 0.7225 0.0
C1077 C 0.93901 0.00299 0.72888 0.0
C1078 C 0.95189 0.99397 0.72703 0.0
N1079 N 0.90571 0.97417 0.70799 0.0
H1080 H 0.56174 0.99904 0.32817 0.0
H1081 H 0.55472 0.95589 0.29577 0.0
H1082 H 0.51531 0.97333 0.31795 0.0
H1083 H 0.58684 0.9907 0.33221 0.0
C1084 C 0.58915 0.98668 0.32017 0.0
C1085 C 0.55412 0.98891 0.32205 0.0
C1086 C 0.53785 0.98748 0.32404 0.0
C1087 C 0.56028 0.97745 0.31179 0.0
C1088 C 0.55 0.96471 0.30362 0.0
C1089 C 0.53383 0.96298 0.3061 0.0
C1090 C 0.52786 0.9745 0.31616 0.0
N1091 N 0.57665 0.97851 0.30923 0.0
H1092 H 0.9625 0.32613 0.72041 0.0
H1093 H 0.01694 0.34377 0.71936 0.0
H1094 H 0.96589 0.36214 0.68013 0.0
H1095 H 0.01303 0.31291 0.72223 0.0
C1096 C 0.00905 0.31658 0.73371 0.0
C1097 C 0.97087 0.33279 0.71408 0.0
C1098 C 0.96276 0.34309 0.69944 0.0
C1099 C 0.99029 0.33262 0.72093 0.0
C1100 C 0.00484 0.3438 0.71354 0.0
C1101 C 0.99295 0.36003 0.69121 0.0
C1102 C 0.97264 0.35589 0.68857 0.0
N1103 N 0.99486 0.3242 0.73399 0.0
H1104 H 0.7011 0.46586 0.36146 0.0
H1105 H 0.69147 0.48102 0.4093 0.0
H1106 H 0.70253 0.43329 0.39742 0.0
H1107 H 0.67351 0.49496 0.39374 0.0
C1108 C 0.6819 0.50002 0.38617 0.0
C1109 C 0.69989 0.46327 0.37359 0.0
C1110 C 0.70193 0.44794 0.37799 0.0
C1111 C 0.69567 0.47515 0.38468 0.0
C1112 C 0.69425 0.47184 0.40053 0.0
C1113 C 0.69654 0.45665 0.4051 0.0
C1114 C 0.7003 0.44486 0.39376 0.0
N1115 N 0.69301 0.49034 0.37966 0.0
H1116 H 0.67531 0.44371 0.99137 0.0
H1117 H 0.71166 0.45088 0.03128 0.0
H1118 H 0.6904 0.49085 0.01418 0.0
H1119 H 0.7199 0.4288 0.01867 0.0
C1120 C 0.70885 0.42143 0.01445 0.0
C1121 C 0.68291 0.45161 1.00037 0.0
C1122 C 0.68185 0.46808 0.00137 0.0
C1123 C 0.69403 0.44533 0.01073 0.0
C1124 C 0.70353 0.4556 0.02274 0.0
C1125 C 0.70238 0.47208 0.02396 0.0
C1126 C 0.69167 0.47819 0.01309 0.0
N1127 N 0.69515 0.42864 0.00898 0.0
H1128 H 0.31259 0.03801 0.68046 0.0
H1129 H 0.30327 0.00279 0.6398 0.0
H1130 H 0.32772 0.0486 0.63519 0.0
H1131 H 0.27667 0.00343 0.65663 0.0
C1132 C 0.28535 0.99863 0.66464 0.0
C1133 C 0.31356 0.03442 0.66801 0.0
C1134 C 0.32092 0.04514 0.65858 0.0
C1135 C 0.30715 0.01913 0.6612 0.0
C1136 C 0.30828 0.01456 0.64503 0.0
C1137 C 0.31569 0.02511 0.63556 0.0
C1138 C 0.32205 0.04033 0.64246 0.0
N1139 N 0.29972 0.00821 0.6706 0.0
H1140 H 0.30116 0.07159 0.03254 0.0
H1141 H 0.28144 0.08903 0.98964 0.0
H1142 H 0.26906 0.04049 0.99835 0.0
H1143 H 0.31026 0.09987 0.99361 0.0
C1144 C 0.30823 0.10603 0.00498 0.0
C1145 C 0.2934 0.06969 0.02147 0.0
C1146 C 0.28523 0.05461 0.01646 0.0
C1147 C 0.29218 0.08211 0.01171 0.0
C1148 C 0.28232 0.07946 0.99719 0.0
C1149 C 0.27391 0.06449 0.99221 0.0
C1150 C 0.27541 0.05216 0.00201 0.0
N1151 N 0.30112 0.09713 0.01635 0.0
H1152 H 0.36661 0.70539 0.47296 0.0
H1153 H 0.41432 0.69845 0.49131 0.0
H1154 H 0.40504 0.71017 0.44339 0.0
H1155 H 0.39778 0.67815 0.50255 0.0
C1156 C 0.39011 0.68636 0.50773 0.0
C1157 C 0.37911 0.70516 0.47128 0.0
C1158 C 0.38446 0.70792 0.45647 0.0
C1159 C 0.38973 0.70135 0.48377 0.0
C1160 C 0.40598 0.70105 0.48164 0.0
C1161 C 0.41152 0.70409 0.46702 0.0
C1162 C 0.40069 0.70747 0.45456 0.0
N1163 N 0.38386 0.69785 0.49837 0.0
H1164 H 0.03009 0.29099 0.06201 0.0
H1165 H 0.99373 0.26879 0.08713 0.0
H1166 H 0.98869 0.26413 0.03584 0.0
H1167 H 0.03071 0.30979 0.08637 0.0
C1168 C 0.02928 0.30171 0.09547 0.0
C1169 C 0.01869 0.28402 0.06187 0.0
C1170 C 0.01019 0.27756 0.04728 0.0
C1171 C 0.01263 0.28076 0.07627 0.0
C1172 C 0.99813 0.27131 0.07594 0.0
C1173 C 0.98916 0.2655 0.06146 0.0
C1174 C 0.99542 0.26852 0.04717 0.0
N1175 N 0.0208 0.28641 0.0914 0.0
H1176 H 0.99077 0.68538 0.44609 0.0
H1177 H 0.03512 0.7159 0.4525 0.0
H1178 H 0.0163 0.69634 0.49261 0.0
H1179 H 0.98632 0.69927 0.42439 0.0
C1180 C 0.99793 0.7004 0.41994 0.0
C1181 C 1.0007 0.69185 0.45373 0.0
C1182 C 0.00192 0.69027 0.47012 0.0
C1183 C 0.01255 0.70142 0.44735 0.0
C1184 C 0.02578 0.70889 0.45742 0.0
C1185 C 0.02716 0.70701 0.47373 0.0
C1186 C 0.01513 0.69789 0.48 0.0
N1187 N 0.01199 0.70309 0.43078 0.0
H1188 H 0.679 0.29354 0.03775 0.0
H1189 H 0.64079 0.2952 0.00097 0.0
H1190 H 0.6327 0.30385 0.05016 0.0
H1191 H 0.66636 0.31009 0.9923 0.0
C1192 C 0.67101 0.29855 0.9921 0.0
C1193 C 0.66672 0.29525 0.03423 0.0
C1194 C 0.65654 0.29894 0.04594 0.0
C1195 C 0.66108 0.29406 0.018 0.0
C1196 C 0.64514 0.2962 0.01351 0.0
C1197 C 0.63478 0.2996 0.02502 0.0
C1198 C 0.64059 0.30101 0.0412 0.0
N1199 N 0.67137 0.2906 0.00614 0.0
H1200 H 0.46353 0.3568 0.69455 0.0
H1201 H 0.48128 0.40391 0.68464 0.0
H1202 H 0.43529 0.39599 0.70135 0.0
H1203 H 0.49331 0.38864 0.6659 0.0
C1204 C 0.49784 0.37989 0.67325 0.0
C1205 C 0.462 0.36929 0.69401 0.0
C1206 C 0.44803 0.37526 0.69858 0.0
C1207 C 0.474 0.37945 0.68865 0.0
C1208 C 0.47201 0.39576 0.68826 0.0
C1209 C 0.45803 0.40167 0.69277 0.0
C1210 C 0.44611 0.39139 0.69785 0.0
N1211 N 0.48808 0.37311 0.68416 0.0
H1212 H 0.06989 0.03429 0.28779 0.0
H1213 H 0.08518 0.99185 0.26449 0.0
H1214 H 0.03568 0.99984 0.25954 0.0
H1215 H 0.0926 0.03054 0.30547 0.0
C1216 C 0.10106 0.02728 0.29718 0.0
C1217 C 0.06719 0.02305 0.28039 0.0
C1218 C 0.05144 0.01811 0.27397 0.0
C1219 C 0.07943 0.01359 0.2767 0.0
C1220 C 0.07572 0.99921 0.2669 0.0
C1221 C 0.05991 0.99388 0.261 0.0
C1222 C 0.04792 0.00362 0.26433 0.0
N1223 N 0.09563 0.01812 0.28246 0.0
H1224 H 0.44183 0.99169 0.68334 0.0
H1225 H 0.44998 0.03359 0.71735 0.0
H1226 H 0.48903 0.01524 0.69553 0.0
H1227 H 0.42624 0.0268 0.72364 0.0
C1228 C 0.41939 0.01912 0.71394 0.0
C1229 C 0.44986 0.00106 0.69027 0.0
C1230 C 0.4662 0.00199 0.68865 0.0
C1231 C 0.44384 0.01215 0.70088 0.0
C1232 C 0.45436 0.02462 0.70947 0.0
C1233 C 0.47076 0.02573 0.70777 0.0
C1234 C 0.47651 0.01426 0.69741 0.0
N1235 N 0.42715 0.01057 0.7022 0.0
H1236 H 0.04047 0.68051 0.28351 0.0
H1237 H 0.00536 0.63971 0.27866 0.0
H1238 H 0.04889 0.64009 0.30906 0.0
H1239 H 0.00387 0.64986 0.25114 0.0
C1240 C 1.00065 0.66074 0.2573 0.0
C1241 C 0.03654 0.66878 0.28662 0.0
C1242 C 0.0464 0.66119 0.29713 0.0
C1243 C 0.02166 0.66109 0.27997 0.0
C1244 C 0.01675 0.64575 0.28386 0.0
C1245 C 0.0265 0.63812 0.29435 0.0
C1246 C 0.04123 0.64598 0.30102 0.0
N1247 N 0.01145 0.66904 0.26986 0.0
H1248 H 0.19547 0.65648 0.33148 0.0
H1249 H 0.16951 0.66303 0.32012 0.0
H1250 H 0.152 0.66243 0.36623 0.0
H1251 H 0.17787 0.65614 0.37769 0.0
H1252 H 0.13209 0.64432 0.34335 0.0
H1253 H 0.15971 0.69721 0.3502 0.0
H1254 H 0.18127 0.71785 0.34678 0.0
H1255 H 0.17003 0.71026 0.29599 0.0
H1256 H 0.14854 0.6894 0.29909 0.0
H1257 H 0.05773 0.66899 0.32815 0.0
H1258 H 0.08578 0.67256 0.33899 0.0
H1259 H 0.09985 0.67128 0.29132 0.0
H1260 H 0.07168 0.66803 0.28046 0.0
H1261 H 0.12179 0.69086 0.31392 0.0
H1262 H 0.09537 0.63773 0.30646 0.0
H1263 H 0.07349 0.61712 0.30906 0.0
H1264 H 0.08287 0.62458 0.36004 0.0
H1265 H 0.10466 0.64544 0.35774 0.0
C1266 C 0.18618 0.65802 0.33926 0.0
C1267 C 0.18873 0.65563 0.35548 0.0
C1268 C 0.17134 0.66174 0.33274 0.0
C1269 C 0.1588 0.66323 0.34233 0.0
C1270 C 0.16146 0.66125 0.35858 0.0
C1271 C 0.17625 0.65757 0.36509 0.0
C1272 C 0.14262 0.66591 0.33536 0.0
C1273 C 0.12985 0.65463 0.33712 0.0
C1274 C 0.13972 0.67907 0.32676 0.0
C1275 C 0.15262 0.69162 0.32487 0.0
C1276 C 0.16193 0.69984 0.33829 0.0
C1277 C 0.17412 0.7116 0.33642 0.0
C1278 C 0.17705 0.71533 0.32118 0.0
C1279 C 0.16777 0.70734 0.30779 0.0
C1280 C 0.15557 0.69555 0.3096 0.0
C1281 C 0.06683 0.67013 0.32005 0.0
C1282 C 0.06263 0.6682 0.30351 0.0
C1283 C 0.08283 0.67209 0.32623 0.0
C1284 C 0.09488 0.67183 0.31594 0.0
C1285 C 0.09073 0.67147 0.29946 0.0
C1286 C 0.07467 0.66966 0.29327 0.0
C1287 C 0.11135 0.66946 0.32225 0.0
C1288 C 0.12411 0.68063 0.32023 0.0
C1289 C 0.11435 0.6561 0.3305 0.0
C1290 C 0.10155 0.64324 0.33193 0.0
C1291 C 0.09271 0.63503 0.31823 0.0
C1292 C 0.08033 0.62331 0.31964 0.0
C1293 C 0.07676 0.61958 0.3347 0.0
C1294 C 0.08563 0.62751 0.34838 0.0
C1295 C 0.09801 0.63927 0.34703 0.0
H1296 H 0.06714 0.61051 0.33577 0.0
H1297 H 0.18649 0.72445 0.31975 0.0
H1298 H 0.32813 0.37449 0.76156 0.0
H1299 H 0.35037 0.37202 0.74558 0.0
H1300 H 0.34156 0.32081 0.74219 0.0
H1301 H 0.31942 0.3232 0.7587 0.0
H1302 H 0.37293 0.33075 0.74968 0.0
H1303 H 0.33241 0.34019 0.70987 0.0
H1304 H 0.30994 0.35412 0.69966 0.0
H1305 H 0.34093 0.39754 0.70214 0.0
H1306 H 0.36356 0.38396 0.71259 0.0
H1307 H 0.42489 0.35507 0.6807 0.0
H1308 H 0.4001 0.34339 0.68978 0.0
H1309 H 0.41693 0.36221 0.7381 0.0
H1310 H 0.44163 0.37381 0.72906 0.0
H1311 H 0.37899 0.36087 0.70278 0.0
H1312 H 0.40065 0.33999 0.76409 0.0
H1313 H 0.42274 0.32636 0.77565 0.0
H1314 H 0.42899 0.30444 0.72919 0.0
H1315 H 0.40679 0.31776 0.71736 0.0
C1316 C 0.33091 0.36268 0.75745 0.0
C1317 C 0.32204 0.34904 0.76148 0.0
C1318 C 0.34354 0.36129 0.74816 0.0
C1319 C 0.34753 0.34623 0.74251 0.0
C1320 C 0.33863 0.33255 0.74635 0.0
C1321 C 0.32592 0.33393 0.75568 0.0
C1322 C 0.36147 0.34502 0.73321 0.0
C1323 C 0.37421 0.33718 0.73932 0.0
C1324 C 0.36299 0.35307 0.71944 0.0
C1325 C 0.34966 0.36106 0.71216 0.0
C1326 C 0.33443 0.35272 0.70828 0.0
C1327 C 0.32165 0.36057 0.7025 0.0
C1328 C 0.32398 0.37674 0.70038 0.0
C1329 C 0.33914 0.38503 0.70385 0.0
C1330 C 0.35196 0.37725 0.70966 0.0
C1331 C 0.42347 0.35616 0.69332 0.0
C1332 C 0.43516 0.36507 0.70428 0.0
C1333 C 0.40929 0.34962 0.69845 0.0
C1334 C 0.40668 0.35183 0.7146 0.0
C1335 C 0.41877 0.36008 0.72563 0.0
C1336 C 0.43287 0.36668 0.7205 0.0
C1337 C 0.39075 0.34731 0.71977 0.0
C1338 C 0.37761 0.35409 0.71289 0.0
C1339 C 0.38886 0.33821 0.73276 0.0
C1340 C 0.40208 0.32995 0.73983 0.0
C1341 C 0.40666 0.33218 0.75635 0.0
C1342 C 0.41922 0.32453 0.76294 0.0
C1343 C 0.42728 0.31456 0.75316 0.0
C1344 C 0.42277 0.3122 0.73675 0.0
C1345 C 0.41021 0.31982 0.73009 0.0
H1346 H 0.43701 0.30866 0.75829 0.0
H1347 H 0.31408 0.3828 0.69591 0.0
H1348 H 0.58611 0.96148 0.63154 0.0
H1349 H 0.55993 0.96064 0.64154 0.0
H1350 H 0.54235 0.98556 0.6025 0.0
H1351 H 0.56858 0.98691 0.59274 0.0
H1352 H 0.53562 0.99932 0.63007 0.0
H1353 H 0.52952 0.94636 0.60433 0.0
H1354 H 0.5369 0.91931 0.59746 0.0
H1355 H 0.53661 0.90988 0.64634 0.0
H1356 H 0.52945 0.93696 0.65355 0.0
H1357 H 0.46066 0.99954 0.65641 0.0
H1358 H 0.47834 0.9888 0.63771 0.0
H1359 H 0.50521 0.97024 0.67631 0.0
H1360 H 0.48766 0.9811 0.69499 0.0
H1361 H 0.50453 0.95162 0.6455 0.0
H1362 H 0.51592 0.00574 0.67146 0.0
H1363 H 0.50868 0.03274 0.67895 0.0
H1364 H 0.49942 0.03969 0.62952 0.0
H1365 H 0.50637 0.01259 0.62175 0.0
C1366 C 0.57665 0.96674 0.62506 0.0
C1367 C 0.57945 0.97429 0.61137 0.0
C1368 C 0.56164 0.96608 0.63068 0.0
C1369 C 0.54913 0.97289 0.62267 0.0
C1370 C 0.5518 0.98014 0.60881 0.0
C1371 C 0.56679 0.9808 0.60319 0.0
C1372 C 0.53372 0.97372 0.62952 0.0
C1373 C 0.52865 0.98882 0.63306 0.0
C1374 C 0.52478 0.96008 0.63378 0.0
C1375 C 0.52906 0.94375 0.6295 0.0
C1376 C 0.53115 0.93857 0.61364 0.0
C1377 C 0.53527 0.92322 0.60968 0.0
C1378 C 0.53725 0.91289 0.62146 0.0
C1379 C 0.53508 0.91789 0.63723 0.0
C1380 C 0.53097 0.93324 0.64125 0.0
C1381 C 0.46987 0.99249 0.66071 0.0
C1382 C 0.4729 0.99112 0.67705 0.0
C1383 C 0.47998 0.98642 0.65006 0.0
C1384 C 0.49316 0.9789 0.6557 0.0
C1385 C 0.49507 0.97595 0.67174 0.0
C1386 C 0.48508 0.98216 0.68239 0.0
C1387 C 0.50659 0.97714 0.64595 0.0
C1388 C 0.51136 0.96199 0.64207 0.0
C1389 C 0.51535 0.99071 0.64139 0.0
C1390 C 0.51147 0.0071 0.64603 0.0
C1391 C 0.51223 0.01299 0.6622 0.0
C1392 C 0.50819 0.0283 0.66649 0.0
C1393 C 0.50354 0.0379 0.65472 0.0
C1394 C 0.50299 0.03222 0.63863 0.0
C1395 C 0.50697 0.01689 0.63427 0.0
H1396 H 0.50042 0.04976 0.65807 0.0
H1397 H 0.54045 0.90101 0.61837 0.0
H1398 H 0.90472 0.03358 0.28925 0.0
H1399 H 0.93378 0.03564 0.29536 0.0
H1400 H 0.93938 0.03583 0.24532 0.0
H1401 H 0.91055 0.03344 0.23912 0.0
H1402 H 0.9561 0.014 0.25901 0.0
H1403 H 0.9481 0.06949 0.27057 0.0
H1404 H 0.93654 0.09197 0.28422 0.0
H1405 H 0.95685 0.08034 0.32949 0.0
H1406 H 0.96836 0.05764 0.31612 0.0
H1407 H 0.03481 0.03391 0.25303 0.0
H1408 H 0.00782 0.04129 0.25505 0.0
H1409 H 0.0103 0.02942 0.30352 0.0
H1410 H 0.03749 0.02207 0.30151 0.0
H1411 H 0.9899 0.05705 0.29391 0.0
H1412 H 0.99529 1.00055 0.28346 0.0
H1413 H 0.00768 0.97819 0.27066 0.0
H1414 H 0.99268 0.99183 0.22451 0.0
H1415 H 0.98009 0.01425 0.2371 0.0
C1416 C 0.91217 0.03414 0.27958 0.0
C1417 C 0.90531 0.0334 0.2637 0.0
C1418 C 0.92876 0.03543 0.28309 0.0
C1419 C 0.93873 0.03595 0.27079 0.0
C1420 C 0.9319 0.03549 0.255 0.0
C1421 C 0.9154 0.03426 0.25149 0.0
C1422 C 0.95624 0.03601 0.27407 0.0
C1423 C 0.96343 0.02349 0.26658 0.0
C1424 C 0.96582 0.04811 0.28433 0.0
C1425 C 0.95893 0.06176 0.29236 0.0
C1426 C 0.94998 0.07164 0.28345 0.0
C1427 C 0.94347 0.08444 0.29113 0.0
C1428 C 0.94592 0.08755 0.30771 0.0
C1429 C 0.95494 0.0779 0.31665 0.0
C1430 C 0.96147 0.06507 0.30902 0.0
C1431 C 0.02987 0.03365 0.26435 0.0
C1432 C 0.03814 0.02754 0.27715 0.0
C1433 C 0.01448 0.03782 0.26549 0.0
C1434 C 0.00709 0.0358 0.2794 0.0
C1435 C 0.01589 0.03119 0.29276 0.0
C1436 C 0.03139 0.02703 0.29162 0.0
C1437 C 0.98954 0.03526 0.2786 0.0
C1438 C 0.98243 0.04756 0.28651 0.0
C1439 C 0.9799 0.02288 0.26889 0.0
C1440 C 0.98684 0.00909 0.2612 0.0
C1441 C 0.99465 0.99877 0.27058 0.0
C1442 C 0.00168 0.98608 0.26337 0.0
C1443 C 0.00103 0.98361 0.24678 0.0
C1444 C 0.99317 0.99374 0.23736 0.0
C1445 C 0.98601 0.0064 0.24452 0.0
H1446 H 0.00663 0.97387 0.24125 0.0
H1447 H 0.94087 0.09747 0.31364 0.0
H1448 H 0.39275 0.1843 0.66641 0.0
H1449 H 0.38263 0.15685 0.66878 0.0
H1450 H 0.33542 0.17104 0.67203 0.0
H1451 H 0.34559 0.19879 0.67019 0.0
H1452 H 0.3423 0.14839 0.69251 0.0
H1453 H 0.34438 0.15495 0.63733 0.0
H1454 H 0.35661 0.16294 0.61364 0.0
H1455 H 0.39201 0.13056 0.62083 0.0
H1456 H 0.38013 0.12254 0.64472 0.0
H1457 H 0.30409 0.06832 0.67112 0.0
H1458 H 0.31269 0.09695 0.67558 0.0
H1459 H 0.35995 0.08773 0.66472 0.0
H1460 H 0.35093 0.05937 0.65909 0.0
H1461 H 0.35111 0.10883 0.64812 0.0
H1462 H 0.34815 0.10227 0.70415 0.0
H1463 H 0.33467 0.09453 0.72731 0.0
H1464 H 0.29969 0.12681 0.71796 0.0
H1465 H 0.31277 0.13456 0.69465 0.0
C1466 C 0.38027 0.18171 0.66797 0.0
C1467 C 0.36999 0.19381 0.66806 0.0
C1468 C 0.37447 0.16595 0.66918 0.0
C1469 C 0.35823 0.16184 0.67038 0.0
C1470 C 0.34799 0.17392 0.67107 0.0
C1471 C 0.3538 0.18976 0.66986 0.0
C1472 C 0.35193 0.14482 0.66999 0.0
C1473 C 0.34409 0.13971 0.68276 0.0
C1474 C 0.3543 0.13351 0.6573 0.0
C1475 C 0.36145 0.13826 0.6429 0.0
C1476 C 0.35485 0.14963 0.63393 0.0
C1477 C 0.3617 0.15414 0.62046 0.0
C1478 C 0.3751 0.14729 0.61576 0.0
C1479 C 0.38164 0.13587 0.6245 0.0
C1480 C 0.37485 0.13133 0.638 0.0
C1481 C 0.31641 0.07245 0.67012 0.0
C1482 C 0.32692 0.0617 0.66492 0.0
C1483 C 0.32136 0.08882 0.67271 0.0
C1484 C 0.33705 0.09464 0.67059 0.0
C1485 C 0.34776 0.08366 0.66634 0.0
C1486 C 0.34268 0.06743 0.66329 0.0
C1487 C 0.342 0.11207 0.671 0.0
C1488 C 0.34943 0.11736 0.65803 0.0
C1489 C 0.33913 0.12347 0.68348 0.0
C1490 C 0.33137 0.11887 0.69758 0.0
C1491 C 0.33752 0.10762 0.70698 0.0
C1492 C 0.32997 0.10324 0.72013 0.0
C1493 C 0.31634 0.11014 0.72406 0.0
C1494 C 0.31024 0.12146 0.71489 0.0
C1495 C 0.31772 0.12585 0.70172 0.0
H1496 H 0.31052 0.10673 0.73424 0.0
H1497 H 0.38039 0.1508 0.60532 0.0
H1498 H 0.24798 0.91337 0.04932 0.0
H1499 H 0.25664 0.94186 0.05477 0.0
H1500 H 0.2886 0.93816 0.01823 0.0
H1501 H 0.27985 0.90971 0.01253 0.0
H1502 H 0.30128 0.95965 0.0449 0.0
H1503 H 0.25292 0.94827 0.00862 0.0
H1504 H 0.22527 0.93648 1.00064 0.0
H1505 H 0.20961 0.96328 0.04074 0.0
H1506 H 0.23724 0.97505 0.04909 0.0
H1507 H 0.30503 0.03228 0.01037 0.0
H1508 H 0.30376 0.00572 0.01943 0.0
H1509 H 0.26857 0.01861 0.05063 0.0
H1510 H 0.26966 0.04519 0.04118 0.0
H1511 H 0.25779 0.99306 0.0319 0.0
H1512 H 0.30588 0.00828 0.06538 0.0
H1513 H 0.33355 0.02014 0.07295 0.0
H1514 H 0.35001 0.9868 0.03846 0.0
H1515 H 0.32241 0.97487 0.03051 0.0
C1516 C 0.25697 0.91858 0.04254 0.0
C1517 C 0.26304 0.9093 0.03031 0.0
C1518 C 0.26197 0.93484 0.04575 0.0
C1519 C 0.27311 0.94215 0.03677 0.0
C1520 C 0.28002 0.93274 0.02532 0.0
C1521 C 0.275 0.91646 0.02209 0.0
C1522 C 0.27621 0.95976 0.038 0.0
C1523 C 0.29183 0.96701 0.04204 0.0
C1524 C 0.26377 0.96935 0.03467 0.0
C1525 C 0.24716 0.96238 0.02959 0.0
C1526 C 0.2436 0.95155 0.01581 0.0
C1527 C 0.22793 0.94488 0.01121 0.0
C1528 C 0.2157 0.94909 0.02021 0.0
C1529 C 0.2191 0.96001 0.0338 0.0
C1530 C 0.23476 0.96668 0.03848 0.0
C1531 C 0.29752 0.0296 0.01963 0.0
C1532 C 0.2876 0.04072 0.02528 0.0
C1533 C 0.29679 0.01443 0.02484 0.0
C1534 C 0.28615 0.01014 0.03583 0.0
C1535 C 0.27692 0.02166 0.04221 0.0
C1536 C 0.27762 0.03685 0.03694 0.0
C1537 C 0.28298 0.99314 0.03865 0.0
C1538 C 0.26728 0.98589 0.03521 0.0
C1539 C 0.29537 0.98362 0.04254 0.0
C1540 C 0.31203 0.99073 0.04728 0.0
C1541 C 0.31538 0.00354 0.05932 0.0
C1542 C 0.33106 0.01027 0.0637 0.0
C1543 C 0.34353 0.00425 0.05618 0.0
C1544 C 0.34034 0.99146 0.04428 0.0
C1545 C 0.32468 0.98469 0.03985 0.0
H1546 H 0.35566 0.00947 0.05958 0.0
H1547 H 0.20357 0.94392 0.01662 0.0
H1548 H 0.74279 0.31423 0.34581 0.0
H1549 H 0.72961 0.33855 0.34576 0.0
H1550 H 0.7677 0.36081 0.32255 0.0
H1551 H 0.781 0.33639 0.32252 0.0
H1552 H 0.76202 0.37913 0.34836 0.0
H1553 H 0.72901 0.3534 0.30194 0.0
H1554 H 0.71252 0.33053 0.2865 0.0
H1555 H 0.68072 0.32928 0.32297 0.0
H1556 H 0.69669 0.35249 0.33838 0.0
H1557 H 0.72443 0.44957 0.3567 0.0
H1558 H 0.73471 0.42706 0.34203 0.0
H1559 H 0.69989 0.39455 0.35973 0.0
H1560 H 0.68917 0.41694 0.37366 0.0
H1561 H 0.70493 0.38288 0.33155 0.0
H1562 H 0.73865 0.40543 0.37926 0.0
H1563 H 0.75547 0.42676 0.39663 0.0
H1564 H 0.78679 0.43216 0.36008 0.0
H1565 H 0.77001 0.41098 0.34242 0.0
C1566 C 0.74818 0.32412 0.34028 0.0
C1567 C 0.76298 0.32333 0.33417 0.0
C1568 C 0.7406 0.33806 0.34025 0.0
C1569 C 0.74756 0.35149 0.33399 0.0
C1570 C 0.76208 0.35059 0.32742 0.0
C1571 C 0.7697 0.33664 0.32746 0.0
C1572 C 0.74041 0.36685 0.33579 0.0
C1573 C 0.74966 0.38009 0.34429 0.0
C1574 C 0.72418 0.36802 0.33086 0.0
C1575 C 0.71405 0.35464 0.32129 0.0
C1576 C 0.71841 0.34831 0.30659 0.0
C1577 C 0.70911 0.33536 0.29781 0.0
C1578 C 0.69548 0.32855 0.30369 0.0
C1579 C 0.6911 0.33475 0.31832 0.0
C1580 C 0.70021 0.34787 0.32702 0.0
C1581 C 0.71868 0.43766 0.35704 0.0
C1582 C 0.70622 0.43499 0.3666 0.0
C1583 C 0.72465 0.42478 0.34878 0.0
C1584 C 0.71839 0.40904 0.35015 0.0
C1585 C 0.70507 0.40653 0.35859 0.0
C1586 C 0.69902 0.41935 0.36668 0.0
C1587 C 0.72652 0.39513 0.34433 0.0
C1588 C 0.71743 0.38211 0.33518 0.0
C1589 C 0.74289 0.39408 0.34885 0.0
C1590 C 0.75298 0.40679 0.35946 0.0
C1591 C 0.74906 0.41125 0.3749 0.0
C1592 C 0.75859 0.4233 0.38479 0.0
C1593 C 0.77216 0.43085 0.37944 0.0
C1594 C 0.77625 0.42633 0.36419 0.0
C1595 C 0.76674 0.41431 0.35423 0.0
H1596 H 0.77952 0.44017 0.38712 0.0
H1597 H 0.68837 0.31843 0.29695 0.0
H1598 H 0.58388 0.56909 0.97604 0.0
H1599 H 0.59238 0.54233 0.9747 0.0
H1600 H 0.63768 0.56045 0.9607 0.0
H1601 H 0.629 0.58716 0.96131 0.0
H1602 H 0.62779 0.53107 0.94543 0.0
H1603 H 0.63277 0.55667 0.99966 0.0
H1604 H 0.6227 0.56982 0.02336 0.0
H1605 H 0.58947 0.52873 0.02527 0.0
H1606 H 0.59923 0.51542 0.00145 0.0
H1607 H 0.68779 0.49113 0.98202 0.0
H1608 H 0.66853 0.50741 0.97014 0.0
H1609 H 0.63015 0.47778 0.98601 0.0
H1610 H 0.64955 0.46141 0.99796 0.0
H1611 H 0.63072 0.50854 0.99745 0.0
H1612 H 0.63099 0.48076 0.94651 0.0
H1613 H 0.64225 0.46787 0.92344 0.0
H1614 H 0.66659 0.51275 0.91558 0.0
H1615 H 0.65568 0.52589 0.93875 0.0
C1616 C 0.59549 0.56735 0.97226 0.0
C1617 C 0.60583 0.58033 0.96894 0.0
C1618 C 0.60038 0.55204 0.97162 0.0
C1619 C 0.61575 0.54944 0.96784 0.0
C1620 C 0.62578 0.5622 0.96369 0.0
C1621 C 0.62087 0.5775 0.96423 0.0
C1622 C 0.62201 0.53389 0.96966 0.0
C1623 C 0.62846 0.5261 0.95678 0.0
C1624 C 0.62242 0.52717 0.98435 0.0
C1625 C 0.61657 0.53515 0.99867 0.0
C1626 C 0.62323 0.5505 0.00507 0.0
C1627 C 0.6176 0.55797 0.01853 0.0
C1628 C 0.60541 0.55014 0.02578 0.0
C1629 C 0.59888 0.53479 0.01962 0.0
C1630 C 0.60445 0.52728 0.00614 0.0
C1631 C 0.67519 0.48779 0.98247 0.0
C1632 C 0.67009 0.47509 0.99089 0.0
C1633 C 0.66418 0.49703 0.97562 0.0
C1634 C 0.64788 0.49379 0.97714 0.0
C1635 C 0.64267 0.48043 0.98464 0.0
C1636 C 0.65371 0.47105 0.99138 0.0
C1637 C 0.63695 0.50588 0.97334 0.0
C1638 C 0.62966 0.51314 0.98591 0.0
C1639 C 0.6359 0.51213 0.95841 0.0
C1640 C 0.64255 0.5043 0.94444 0.0
C1641 C 0.63884 0.48787 0.93994 0.0
C1642 C 0.64515 0.48052 0.92683 0.0
C1643 C 0.65514 0.48948 0.91806 0.0
C1644 C 0.65884 0.50582 0.92238 0.0
C1645 C 0.65257 0.51323 0.93549 0.0
H1646 H 0.66001 0.48377 0.90791 0.0
H1647 H 0.60107 0.55594 0.03621 0.0
H1648 H 0.64641 0.33263 0.19117 0.0
H1649 H 0.65134 0.32032 0.16512 0.0
H1650 H 0.68703 0.35914 0.1612 0.0
H1651 H 0.68216 0.37153 0.18731 0.0
H1652 H 0.66721 0.35383 0.13494 0.0
H1653 H 0.6973 0.32141 0.16642 0.0
H1654 H 0.70281 0.30402 0.18758 0.0
H1655 H 0.66521 0.2692 0.16551 0.0
H1656 H 0.65931 0.28648 0.14432 0.0
H1657 H 0.68279 0.31809 0.06006 0.0
H1658 H 0.6891 0.32672 0.08862 0.0
H1659 H 0.64953 0.29489 0.09899 0.0
H1660 H 0.64326 0.28621 0.07055 0.0
H1661 H 0.67574 0.29711 0.12229 0.0
H1662 H 0.64347 0.33159 0.09354 0.0
H1663 H 0.63798 0.34879 0.07219 0.0
H1664 H 0.68033 0.37978 0.08951 0.0
H1665 H 0.6862 0.36259 0.11082 0.0
C1666 C 0.65556 0.33839 0.18494 0.0
C1667 C 0.66386 0.3531 0.19134 0.0
C1668 C 0.65837 0.33133 0.17001 0.0
C1669 C 0.66966 0.33872 0.16121 0.0
C1670 C 0.67825 0.35321 0.16774 0.0
C1671 C 0.67541 0.3603 0.18265 0.0
C1672 C 0.67163 0.33191 0.14475 0.0
C1673 C 0.66945 0.34152 0.13226 0.0
C1674 C 0.67428 0.31577 0.14113 0.0
C1675 C 0.67779 0.30531 0.15384 0.0
C1676 C 0.69012 0.3101 0.16614 0.0
C1677 C 0.69333 0.30025 0.17813 0.0
C1678 C 0.68434 0.28553 0.17791 0.0
C1679 C 0.67215 0.28061 0.16567 0.0
C1680 C 0.66889 0.29042 0.15365 0.0
C1681 C 0.67576 0.3126 0.0685 0.0
C1682 C 0.66244 0.30162 0.06312 0.0
C1683 C 0.67932 0.31759 0.08478 0.0
C1684 C 0.66963 0.3116 0.0959 0.0
C1685 C 0.65713 0.29968 0.09063 0.0
C1686 C 0.65351 0.2948 0.07438 0.0
C1687 C 0.67116 0.31901 0.11264 0.0
C1688 C 0.67387 0.3095 0.12511 0.0
C1689 C 0.66902 0.33525 0.11628 0.0
C1690 C 0.66537 0.34572 0.10365 0.0
C1691 C 0.65167 0.34202 0.09272 0.0
C1692 C 0.64848 0.35176 0.08064 0.0
C1693 C 0.65882 0.36535 0.07947 0.0
C1694 C 0.67235 0.36923 0.09041 0.0
C1695 C 0.67561 0.3595 0.1025 0.0
H1696 H 0.65634 0.37288 0.0701 0.0
H1697 H 0.68685 0.27792 0.1872 0.0
H1698 H 0.03541 0.24965 0.90388 0.0
H1699 H 0.03777 0.25718 0.93258 0.0
H1700 H 0.00689 0.29401 0.92553 0.0
H1701 H 0.00382 0.2861 0.89672 0.0
H1702 H 0.03888 0.29877 0.95248 0.0
H1703 H 0.98646 0.26974 0.93419 0.0
H1704 H 0.96933 0.2479 0.91786 0.0
H1705 H 0.99576 0.21353 0.93982 0.0
H1706 H 0.01323 0.23522 0.95609 0.0
H1707 H 0.01168 0.3041 0.03134 0.0
H1708 H 0.01636 0.30516 0.00323 0.0
H1709 H 0.02682 0.25618 1.00042 0.0
H1710 H 0.02176 0.25508 0.02826 0.0
H1711 H 0.00479 0.25974 0.97784 0.0
H1712 H 0.05558 0.28759 0.99788 0.0
H1713 H 0.07419 0.30853 0.01378 0.0
H1714 H 0.05277 0.34433 0.98901 0.0
H1715 H 0.03387 0.3236 0.9731 0.0
C1716 C 0.02919 0.25944 0.90836 0.0
C1717 C 0.01914 0.26703 0.89797 0.0
C1718 C 0.03072 0.26385 0.92476 0.0
C1719 C 0.02248 0.2761 0.93113 0.0
C1720 C 0.01344 0.28458 0.92079 0.0
C1721 C 0.01172 0.28004 0.90432 0.0
C1722 C 0.02149 0.27824 0.94853 0.0
C1723 C 0.03125 0.29046 0.95809 0.0
C1724 C 0.01185 0.26713 0.95578 0.0
C1725 C 0.00124 0.25408 0.9462 0.0
C1726 C 0.98871 0.25753 0.93541 0.0
C1727 C 0.97892 0.24518 0.92619 0.0
C1728 C 0.98149 0.22934 0.92776 0.0
C1729 C 0.99381 0.22581 0.9386 0.0
C1730 C 0.00365 0.23812 0.94782 0.0
C1731 C 0.01547 0.29378 0.02478 0.0
C1732 C 0.01651 0.27955 0.03187 0.0
C1733 C 0.01811 0.29435 0.00874 0.0
C1734 C 0.02193 0.28073 0.99967 0.0
C1735 C 0.02383 0.26682 0.00712 0.0
C1736 C 0.02107 0.26621 0.02304 0.0
C1737 C 0.02229 0.28029 0.9821 0.0
C1738 C 0.01236 0.26826 0.9724 0.0
C1739 C 0.03187 0.29157 0.97485 0.0
C1740 C 0.04319 0.30405 0.98442 0.0
C1741 C 0.05473 0.29994 0.99592 0.0
C1742 C 0.06536 0.31177 0.00492 0.0
C1743 C 0.06463 0.32775 0.00245 0.0
C1744 C 0.0533 0.33194 0.99094 0.0
C1745 C 0.04264 0.32016 0.98192 0.0
H1746 H 0.07288 0.33689 0.00942 0.0
H1747 H 0.97389 0.21979 0.92062 0.0
H1748 H 0.35004 0.74181 0.32009 0.0
H1749 H 0.35096 0.72948 0.34495 0.0
H1750 H 0.3226 0.76452 0.36481 0.0
H1751 H 0.32164 0.77698 0.33986 0.0
H1752 H 0.34869 0.76275 0.38416 0.0
H1753 H 0.30713 0.72387 0.3579 0.0
H1754 H 0.29413 0.70459 0.33578 0.0
H1755 H 0.33454 0.67768 0.33875 0.0
H1756 H 0.34761 0.69655 0.36106 0.0
H1757 H 0.3607 0.7279 0.45653 0.0
H1758 H 0.34545 0.73622 0.43323 0.0
H1759 H 0.36874 0.70455 0.40231 0.0
H1760 H 0.38333 0.69571 0.42544 0.0
H1761 H 0.33946 0.70506 0.3901 0.0
H1762 H 0.38263 0.74495 0.41231 0.0
H1763 H 0.39747 0.7642 0.43342 0.0
H1764 H 0.35627 0.78972 0.43659 0.0
H1765 H 0.34113 0.77048 0.41561 0.0
C1766 C 0.34361 0.74665 0.32956 0.0
C1767 C 0.33579 0.76041 0.32798 0.0
C1768 C 0.34413 0.73955 0.34381 0.0
C1769 C 0.33671 0.74596 0.35674 0.0
C1770 C 0.32839 0.75935 0.355 0.0
C1771 C 0.32791 0.76649 0.34075 0.0
C1772 C 0.33915 0.73967 0.3725 0.0
C1773 C 0.34625 0.75019 0.38557 0.0
C1774 C 0.33635 0.72325 0.37429 0.0
C1775 C 0.32834 0.71164 0.36112 0.0
C1776 C 0.31321 0.7138 0.35385 0.0
C1777 C 0.30579 0.70289 0.34133 0.0
C1778 C 0.31345 0.68983 0.33593 0.0
C1779 C 0.32851 0.68764 0.34307 0.0
C1780 C 0.33589 0.69839 0.35571 0.0
C1781 C 0.36224 0.72244 0.44478 0.0
C1782 C 0.37344 0.71138 0.4428 0.0
C1783 C 0.35363 0.7273 0.43146 0.0
C1784 C 0.35621 0.72129 0.41597 0.0
C1785 C 0.36659 0.70946 0.41409 0.0
C1786 C 0.37506 0.70453 0.42734 0.0
C1787 C 0.34931 0.72809 0.40163 0.0
C1788 C 0.34144 0.71768 0.38882 0.0
C1789 C 0.35161 0.7446 0.39999 0.0
C1790 C 0.3607 0.75617 0.41256 0.0
C1791 C 0.37671 0.7546 0.41759 0.0
C1792 C 0.38517 0.76552 0.42952 0.0
C1793 C 0.3778 0.77814 0.43638 0.0
C1794 C 0.36195 0.77991 0.43129 0.0
C1795 C 0.35342 0.769 0.41939 0.0
H1796 H 0.38437 0.78658 0.44561 0.0
H1797 H 0.30774 0.68144 0.32618 0.0
H1798 H 0.96333 0.62967 0.59015 0.0
H1799 H 0.96198 0.64196 0.56512 0.0
H1800 H 0.98276 0.60235 0.54245 0.0
H1801 H 0.9846 0.59026 0.56747 0.0
H1802 H 0.99817 0.63013 0.53769 0.0
H1803 H 0.94385 0.6076 0.53276 0.0
H1804 H 0.91709 0.60199 0.54136 0.0
H1805 H 0.9113 0.65193 0.5453 0.0
H1806 H 0.93813 0.65787 0.53693 0.0
H1807 H 0.99615 0.65821 0.46368 0.0
H1808 H 0.98494 0.64004 0.48158 0.0
H1809 H 0.97179 0.68005 0.51096 0.0
H1810 H 0.98316 0.69822 0.49321 0.0
H1811 H 0.95073 0.65001 0.51031 0.0
H1812 H 0.00607 0.67257 0.51965 0.0
H1813 H 0.03274 0.67887 0.5111 0.0
H1814 H 0.03655 0.62906 0.4996 0.0
H1815 H 0.0097 0.62247 0.50774 0.0
C1816 C 0.96754 0.62355 0.57981 0.0
C1817 C 0.97409 0.609 0.58082 0.0
C1818 C 0.9666 0.6305 0.56547 0.0
C1819 C 0.97215 0.62299 0.55188 0.0
C1820 C 0.97834 0.6083 0.55276 0.0
C1821 C 0.97927 0.60135 0.56706 0.0
C1822 C 0.9728 0.63109 0.53716 0.0
C1823 C 0.98771 0.63415 0.53154 0.0
C1824 C 0.95923 0.63671 0.52936 0.0
C1825 C 0.94306 0.63319 0.53434 0.0
C1826 C 0.93692 0.6174 0.53558 0.0
C1827 C 0.92173 0.61416 0.54039 0.0
C1828 C 0.91251 0.6266 0.54391 0.0
C1829 C 0.91846 0.64231 0.54258 0.0
C1830 C 0.93365 0.64562 0.53779 0.0
C1831 C 0.99015 0.66301 0.47352 0.0
C1832 C 0.9905 0.67953 0.47718 0.0
C1833 C 0.98381 0.65266 0.48374 0.0
C1834 C 0.97772 0.65877 0.49764 0.0
C1835 C 0.97638 0.67514 0.50026 0.0
C1836 C 0.98288 0.68549 0.49015 0.0
C1837 C 0.97602 0.64882 0.51092 0.0
C1838 C 0.96104 0.64563 0.51635 0.0
C1839 C 0.98953 0.64312 0.51868 0.0
C1840 C 0.0058 0.64703 0.5141 0.0
C1841 C 0.01253 0.66296 0.51515 0.0
C1842 C 0.02768 0.66659 0.51039 0.0
C1843 C 0.03632 0.65438 0.50477 0.0
C1844 C 0.02983 0.63851 0.50393 0.0
C1845 C 0.01464 0.63482 0.5086 0.0
H1846 H 0.04806 0.65723 0.50111 0.0
H1847 H 0.90075 0.62407 0.54763 0.0
H1848 H 0.82456 0.3409 0.6286 0.0
H1849 H 0.85128 0.33727 0.64004 0.0
H1850 H 0.83531 0.33918 0.68694 0.0
H1851 H 0.80837 0.34265 0.67554 0.0
H1852 H 0.86261 0.35784 0.68714 0.0
H1853 H 0.84383 0.30415 0.66783 0.0
H1854 H 0.83172 0.28175 0.64849 0.0
H1855 H 0.86908 0.29039 0.61854 0.0
H1856 H 0.88126 0.31304 0.63755 0.0
H1857 H 0.93927 0.34035 0.71959 0.0
H1858 H 0.91035 0.3373 0.71232 0.0
H1859 H 0.91789 0.33702 0.66266 0.0
H1860 H 0.94653 0.33988 0.66978 0.0
H1861 H 0.89378 0.31504 0.66678 0.0
H1862 H 0.91006 0.37067 0.6839 0.0
H1863 H 0.9225 0.39322 0.70291 0.0
H1864 H 0.88996 0.38068 0.73668 0.0
H1865 H 0.87746 0.35791 0.71793 0.0
C1866 C 0.82659 0.34024 0.64132 0.0
C1867 C 0.81421 0.34199 0.65112 0.0
C1868 C 0.84194 0.33819 0.64786 0.0
C1869 C 0.84531 0.33775 0.66435 0.0
C1870 C 0.83301 0.33945 0.67419 0.0
C1871 C 0.81761 0.3415 0.66764 0.0
C1872 C 0.86186 0.33629 0.6713 0.0
C1873 C 0.8693 0.34828 0.68292 0.0
C1874 C 0.87074 0.32398 0.66561 0.0
C1875 C 0.86338 0.31042 0.65407 0.0
C1876 C 0.84938 0.30139 0.65704 0.0
C1877 C 0.84252 0.28862 0.64615 0.0
C1878 C 0.8496 0.28467 0.63227 0.0
C1879 C 0.86359 0.29347 0.62928 0.0
C1880 C 0.87048 0.30628 0.64012 0.0
C1881 C 0.93475 0.33939 0.70712 0.0
C1882 C 0.94524 0.34043 0.69529 0.0
C1883 C 0.91822 0.33776 0.70298 0.0
C1884 C 0.91193 0.3371 0.68694 0.0
C1885 C 0.92242 0.33754 0.67511 0.0
C1886 C 0.93886 0.33929 0.67924 0.0
C1887 C 0.89452 0.33672 0.68235 0.0
C1888 C 0.88695 0.32442 0.67116 0.0
C1889 C 0.88553 0.34875 0.68837 0.0
C1890 C 0.89296 0.36249 0.6996 0.0
C1891 C 0.90564 0.37266 0.69543 0.0
C1892 C 0.91269 0.38549 0.70615 0.0
C1893 C 0.90706 0.38835 0.72102 0.0
C1894 C 0.89433 0.37843 0.72517 0.0
C1895 C 0.88725 0.36556 0.7145 0.0
H1896 H 0.91253 0.3983 0.7293 0.0
H1897 H 0.84428 0.27477 0.62386 0.0
H1898 H 0.69171 0.65693 0.26609 0.0
H1899 H 0.66826 0.65691 0.28069 0.0
H1900 H 0.64095 0.67136 0.23997 0.0
H1901 H 0.66458 0.67209 0.22546 0.0
H1902 H 0.63147 0.68448 0.26808 0.0
H1903 H 0.64079 0.63265 0.24455 0.0
H1904 H 0.65656 0.61008 0.23926 0.0
H1905 H 0.66208 0.60421 0.28919 0.0
H1906 H 0.64652 0.62691 0.29481 0.0
H1907 H 0.55417 0.64438 0.27663 0.0
H1908 H 0.57923 0.6572 0.26927 0.0
H1909 H 0.60463 0.6418 0.31067 0.0
H1910 H 0.5797 0.62892 0.31793 0.0
H1911 H 0.61572 0.63077 0.28376 0.0
H1912 H 0.60375 0.68128 0.30688 0.0
H1913 H 0.5875 0.70356 0.31163 0.0
H1914 H 0.58601 0.71153 0.26224 0.0
H1915 H 0.6021 0.68917 0.25714 0.0
C1916 C 0.68089 0.6606 0.26037 0.0
C1917 C 0.68 0.66429 0.24449 0.0
C1918 C 0.66743 0.66046 0.26872 0.0
C1919 C 0.65277 0.66382 0.26131 0.0
C1920 C 0.65211 0.66863 0.24589 0.0
C1921 C 0.6656 0.66887 0.23755 0.0
C1922 C 0.63787 0.66056 0.2689 0.0
C1923 C 0.62794 0.67273 0.27144 0.0
C1924 C 0.63336 0.64527 0.27346 0.0
C1925 C 0.64265 0.63158 0.27011 0.0
C1926 C 0.64548 0.62662 0.25441 0.0
C1927 C 0.65436 0.6138 0.25135 0.0
C1928 C 0.66036 0.60575 0.26389 0.0
C1929 C 0.65745 0.61048 0.2795 0.0
C1930 C 0.6486 0.62332 0.28263 0.0
C1931 C 0.56503 0.64426 0.28444 0.0
C1932 C 0.56506 0.63557 0.29775 0.0
C1933 C 0.57934 0.65157 0.28023 0.0
C1934 C 0.59384 0.65036 0.28937 0.0
C1935 C 0.59362 0.6428 0.3034 0.0
C1936 C 0.57938 0.63548 0.30755 0.0
C1937 C 0.6093 0.65472 0.28316 0.0
C1938 C 0.61929 0.64263 0.28068 0.0
C1939 C 0.61373 0.67003 0.27861 0.0
C1940 C 0.60401 0.68344 0.2816 0.0
C1941 C 0.59984 0.68769 0.29699 0.0
C1942 C 0.59068 0.70036 0.29976 0.0
C1943 C 0.58569 0.70893 0.28723 0.0
C1944 C 0.58987 0.70487 0.27193 0.0
C1945 C 0.59903 0.69221 0.2691 0.0
H1946 H 0.5786 0.71873 0.2894 0.0
H1947 H 0.66722 0.59582 0.26149 0.0
H1948 H 0.40981 0.00126 0.36427 0.0
H1949 H 0.43677 0.00166 0.35627 0.0
H1950 H 0.45427 0.03501 0.39717 0.0
H1951 H 0.42719 0.03499 0.40506 0.0
H1952 H 0.46832 0.04202 0.36984 0.0
H1953 H 0.4585 0.99709 0.39946 0.0
H1954 H 0.44346 0.97264 0.406 0.0
H1955 H 0.44791 0.94962 0.35951 0.0
H1956 H 0.46277 0.97401 0.3526 0.0
H1957 H 0.54012 0.98993 0.35628 0.0
H1958 H 0.52093 0.0015 0.37272 0.0
H1959 H 0.49932 0.02097 0.33169 0.0
H1960 H 0.51844 0.00938 0.31534 0.0
H1961 H 0.49021 0.98974 0.36471 0.0
H1962 H 0.47819 0.05159 0.34418 0.0
H1963 H 0.49354 0.076 0.33797 0.0
H1964 H 0.53424 0.06535 0.36768 0.0
H1965 H 0.51909 0.041 0.37427 0.0
C1966 C 0.41932 0.00893 0.3714 0.0
C1967 C 0.41638 0.01801 0.38536 0.0
C1968 C 0.43474 0.00905 0.36688 0.0
C1969 C 0.44753 0.0182 0.37626 0.0
C1970 C 0.44456 0.02782 0.38982 0.0
C1971 C 0.42912 0.02769 0.39437 0.0
C1972 C 0.46405 0.01697 0.37232 0.0
C1973 C 0.47319 0.03063 0.36877 0.0
C1974 C 0.47049 0.00216 0.37132 0.0
C1975 C 0.46165 0.98742 0.37548 0.0
C1976 C 0.45618 0.98685 0.39059 0.0
C1977 C 0.4477 0.97299 0.39437 0.0
C1978 C 0.44471 0.95959 0.38317 0.0
C1979 C 0.45022 0.96001 0.36817 0.0
C1980 C 0.45869 0.97384 0.36433 0.0
C1981 C 0.53178 0.99739 0.35104 0.0
C1982 C 0.53074 0.99893 0.33466 0.0
C1983 C 0.52077 0.00388 0.36037 0.0
C1984 C 0.50868 0.01206 0.35342 0.0
C1985 C 0.50866 0.01491 0.33737 0.0
C1986 C 0.51959 0.00832 0.32803 0.0
C1987 C 0.49441 0.0147 0.36174 0.0
C1988 C 0.48556 0.00123 0.36603 0.0
C1989 C 0.48833 0.02968 0.36344 0.0
C1990 C 0.49751 0.04439 0.35964 0.0
C1991 C 0.49039 0.05449 0.34947 0.0
C1992 C 0.49907 0.06831 0.34586 0.0
C1993 C 0.51487 0.0722 0.3524 0.0
C1994 C 0.52202 0.06229 0.36258 0.0
C1995 C 0.5134 0.04846 0.36623 0.0
H1996 H 0.52156 0.08291 0.34959 0.0
H1997 H 0.43814 0.94888 0.38612 0.0
H1998 H 0.09876 0.97625 0.70789 0.0
H1999 H 0.07062 0.96833 0.69828 0.0
H2000 H 0.05995 0.96465 0.74667 0.0
H2001 H 0.08793 0.97204 0.75621 0.0
H2002 H 0.04288 0.94138 0.72699 0.0
H2003 H 0.05561 0.99886 0.72823 0.0
H2004 H 0.07002 0.02307 0.72037 0.0
H2005 H 0.05334 0.00853 0.67125 0.0
H2006 H 0.03898 0.98412 0.67883 0.0
H2007 H 0.96992 0.96908 0.74106 0.0
H2008 H 0.99668 0.96151 0.7383 0.0
H2009 H 0.98904 0.96338 0.68746 0.0
H2010 H 0.96208 0.97101 0.69028 0.0
H2011 H 0.01508 0.9824 0.70075 0.0
H2012 H 0.99619 0.92827 0.70176 0.0
H2013 H 0.98115 0.90512 0.71086 0.0
H2014 H 0.00864 0.91375 0.7566 0.0
H2015 H 0.0237 0.93711 0.74788 0.0
C2016 C 0.09044 0.97345 0.71641 0.0
C2017 C 0.0955 0.97502 0.73283 0.0
C2018 C 0.07437 0.969 0.71093 0.0
C2019 C 0.06313 0.9661 0.72178 0.0
C2020 C 0.06836 0.96685 0.73806 0.0
C2021 C 0.08434 0.97126 0.74352 0.0
C2022 C 0.04575 0.96357 0.71662 0.0
C2023 C 0.03677 0.9503 0.72119 0.0
C2024 C 0.03781 0.97495 0.70861 0.0
C2025 C 0.04643 0.98959 0.70406 0.0
C2026 C 0.05513 0.00078 0.71575 0.0
C2027 C 0.06326 0.01454 0.71135 0.0
C2028 C 0.06264 0.01731 0.69531 0.0
C2029 C 0.05384 0.00634 0.68365 0.0
C2030 C 0.04571 0.99255 0.68799 0.0
C2031 C 0.97377 0.96731 0.72924 0.0
C2032 C 0.964 0.97053 0.71587 0.0
C2033 C 0.98904 0.96294 0.72765 0.0
C2034 C 0.99486 0.96179 0.71265 0.0
C2035 C 0.98475 0.96411 0.69912 0.0
C2036 C 0.96936 0.96835 0.70071 0.0
C2037 C 0.01211 0.96052 0.7117 0.0
C2038 C 0.02112 0.97313 0.70603 0.0
C2039 C 0.02003 0.94861 0.71883 0.0
C2040 C 0.01106 0.9345 0.72416 0.0
C2041 C 0.99897 0.9253 0.7138 0.0
C2042 C 0.99044 0.91213 0.71888 0.0
C2043 C 0.99393 0.90797 0.7343 0.0
C2044 C 0.00596 0.91697 0.74466 0.0
C2045 C 0.01453 0.93017 0.73963 0.0
H2046 H 0.98731 0.89777 0.73822 0.0
H2047 H 0.06894 0.02797 0.69193 0.0
H2048 H 0.62654 0.81834 0.33056 0.0
H2049 H 0.63799 0.84435 0.32471 0.0
H2050 H 0.68438 0.83432 0.34432 0.0
H2051 H 0.67284 0.8085 0.35089 0.0
H2052 H 0.67871 0.86275 0.35589 0.0
H2053 H 0.67464 0.83576 0.30335 0.0
H2054 H 0.6615 0.81924 0.27935 0.0
H2055 H 0.62781 0.85343 0.27277 0.0
H2056 H 0.64061 0.87006 0.29686 0.0
H2057 H 0.71508 0.93535 0.33762 0.0
H2058 H 0.70878 0.9063 0.33321 0.0
H2059 H 0.65921 0.9123 0.3216 0.0
H2060 H 0.66552 0.94131 0.32609 0.0
H2061 H 0.66921 0.88511 0.30417 0.0
H2062 H 0.67066 0.90966 0.35822 0.0
H2063 H 0.68335 0.92672 0.38206 0.0
H2064 H 0.72156 0.89697 0.38561 0.0
H2065 H 0.70919 0.87986 0.36159 0.0
C2066 C 0.63919 0.82163 0.33363 0.0
C2067 C 0.64873 0.81131 0.34131 0.0
C2068 C 0.64578 0.83646 0.33008 0.0
C2069 C 0.66211 0.84129 0.3339 0.0
C2070 C 0.67176 0.83086 0.34119 0.0
C2071 C 0.66515 0.81603 0.34482 0.0
C2072 C 0.66884 0.85764 0.33133 0.0
C2073 C 0.67693 0.86746 0.34446 0.0
C2074 C 0.66622 0.86404 0.31654 0.0
C2075 C 0.65852 0.8541 0.30199 0.0
C2076 C 0.66436 0.8397 0.29685 0.0
C2077 C 0.65698 0.83033 0.28322 0.0
C2078 C 0.64381 0.83527 0.27456 0.0
C2079 C 0.63801 0.84962 0.27949 0.0
C2080 C 0.64534 0.85903 0.29313 0.0
C2081 C 0.70298 0.93042 0.33346 0.0
C2082 C 0.69077 0.94044 0.33209 0.0
C2083 C 0.69937 0.91386 0.33104 0.0
C2084 C 0.68349 0.90715 0.32727 0.0
C2085 C 0.67152 0.91722 0.32447 0.0
C2086 C 0.67512 0.93376 0.32701 0.0
C2087 C 0.67901 0.89001 0.32868 0.0
C2088 C 0.67124 0.88017 0.31545 0.0
C2089 C 0.68184 0.88356 0.34338 0.0
C2090 C 0.6891 0.89359 0.35802 0.0
C2091 C 0.68182 0.90682 0.36402 0.0
C2092 C 0.68895 0.91649 0.37757 0.0
C2093 C 0.70328 0.91296 0.38532 0.0
C2094 C 0.71047 0.8997 0.37957 0.0
C2095 C 0.70341 0.89001 0.366 0.0
H2096 H 0.70879 0.92047 0.3958 0.0
H2097 H 0.63812 0.82799 0.26401 0.0
H2098 H 0.70452 0.09621 0.97389 0.0
H2099 H 0.69801 0.0672 0.9706 0.0
H2100 H 0.74779 0.06109 0.96876 0.0
H2101 H 0.75431 0.08986 0.97193 0.0
H2102 H 0.73018 0.03985 0.94783 0.0
H2103 H 0.72935 0.05939 0.00353 0.0
H2104 H 0.71984 0.0756 0.02573 0.0
H2105 H 0.67223 0.05316 0.0127 0.0
H2106 H 0.68144 0.03695 0.99029 0.0
H2107 H 0.74832 0.97142 0.98319 0.0
H2108 H 0.74454 0.99778 0.97498 0.0
H2109 H 0.6936 0.98717 0.97345 0.0
H2110 H 0.69738 0.96058 0.98166 0.0
H2111 H 0.7053 0.01557 0.9917 0.0
H2112 H 0.7087 0.99158 0.93938 0.0
H2113 H 0.7196 0.97504 0.91837 0.0
H2114 H 0.76366 0.00547 0.92589 0.0
H2115 H 0.75312 0.02207 0.94711 0.0
C2116 C 0.71404 0.08865 0.97266 0.0
C2117 C 0.72993 0.09535 0.97318 0.0
C2118 C 0.71031 0.07209 0.97077 0.0
C2119 C 0.72243 0.06195 0.96958 0.0
C2120 C 0.73821 0.06865 0.96954 0.0
C2121 C 0.74192 0.08513 0.97133 0.0
C2122 C 0.7191 0.04441 0.96942 0.0
C2123 C 0.72472 0.03452 0.9574 0.0
C2124 C 0.71156 0.03742 0.98166 0.0
C2125 C 0.70604 0.04713 0.99513 0.0
C2126 C 0.71683 0.05801 0.00534 0.0
C2127 C 0.7115 0.06718 0.01796 0.0
C2128 C 0.69543 0.06545 0.02059 0.0
C2129 C 0.68467 0.05451 0.01062 0.0
C2130 C 0.68993 0.04533 0.99796 0.0
C2131 C 0.73631 0.97462 0.98083 0.0
C2132 C 0.72313 0.96403 0.98306 0.0
C2133 C 0.73415 0.98963 0.97607 0.0
C2134 C 0.71878 0.99439 0.9735 0.0
C2135 C 0.70554 0.98367 0.97529 0.0
C2136 C 0.7077 0.96851 0.97989 0.0
C2137 C 0.7169 0.01107 0.97042 0.0
C2138 C 0.71033 0.02082 0.98185 0.0
C2139 C 0.72373 0.01794 0.95774 0.0
C2140 C 0.73012 0.00804 0.9449 0.0
C2141 C 0.72075 0.99469 0.93663 0.0
C2142 C 0.72686 0.98531 0.92467 0.0
C2143 C 0.74232 0.98919 0.9208 0.0
C2144 C 0.75169 0.00248 0.92888 0.0
C2145 C 0.74564 0.0119 0.94087 0.0
H2146 H 0.74703 0.98191 0.91154 0.0
H2147 H 0.69133 0.07256 0.03038 0.0
H2148 H 0.25793 0.68546 0.67823 0.0
H2149 H 0.26948 0.65996 0.67769 0.0
H2150 H 0.22802 0.63728 0.64771 0.0
H2151 H 0.21646 0.6625 0.64832 0.0
H2152 H 0.23693 0.6182 0.66882 0.0
H2153 H 0.26307 0.6512 0.6335 0.0
H2154 H 0.27911 0.67488 0.62665 0.0
H2155 H 0.31878 0.66463 0.65798 0.0
H2156 H 0.3028 0.6412 0.6655 0.0
H2157 H 0.26098 0.55735 0.61677 0.0
H2158 H 0.25182 0.58073 0.63089 0.0
H2159 H 0.29589 0.58802 0.66182 0.0
H2160 H 0.30502 0.56437 0.64772 0.0
H2161 H 0.28871 0.6147 0.64659 0.0
H2162 H 0.26298 0.57863 0.67804 0.0
H2163 H 0.24651 0.55451 0.68327 0.0
H2164 H 0.2059 0.56964 0.65684 0.0
H2165 H 0.22216 0.59375 0.65125 0.0
C2166 C 0.25127 0.675 0.67161 0.0
C2167 C 0.23627 0.67601 0.66333 0.0
C2168 C 0.25786 0.66043 0.67132 0.0
C2169 C 0.24968 0.6467 0.66254 0.0
C2170 C 0.23453 0.64765 0.65465 0.0
C2171 C 0.22791 0.66211 0.65503 0.0
C2172 C 0.25702 0.63146 0.6607 0.0
C2173 C 0.24826 0.61744 0.66395 0.0
C2174 C 0.27202 0.63048 0.65476 0.0
C2175 C 0.28162 0.64462 0.6503 0.0
C2176 C 0.27514 0.65412 0.63911 0.0
C2177 C 0.28423 0.66751 0.63511 0.0
C2178 C 0.29993 0.67134 0.64199 0.0
C2179 C 0.30659 0.66174 0.6528 0.0
C2180 C 0.2975 0.64844 0.65698 0.0
C2181 C 0.26851 0.56372 0.62685 0.0
C2182 C 0.28364 0.5591 0.63125 0.0
C2183 C 0.26328 0.57704 0.63493 0.0
C2184 C 0.27314 0.58607 0.64745 0.0
C2185 C 0.28807 0.58115 0.65224 0.0
C2186 C 0.29323 0.56764 0.64428 0.0
C2187 C 0.26838 0.60146 0.65424 0.0
C2188 C 0.2776 0.6155 0.65187 0.0
C2189 C 0.25372 0.60245 0.66077 0.0
C2190 C 0.24383 0.58798 0.66416 0.0
C2191 C 0.25056 0.57677 0.67325 0.0
C2192 C 0.24126 0.5631 0.67629 0.0
C2193 C 0.22517 0.56053 0.67037 0.0
C2194 C 0.21836 0.57165 0.66142 0.0
C2195 C 0.22761 0.58533 0.65833 0.0
H2196 H 0.21799 0.54994 0.67274 0.0
H2197 H 0.30698 0.68169 0.63887 0.0
H2198 H 0.36332 0.41844 1.00012 0.0
H2199 H 0.35526 0.44538 1.00056 0.0
H2200 H 0.40289 0.46478 0.01946 0.0
H2201 H 0.4109 0.43783 0.01963 0.0
H2202 H 0.38128 0.48025 0.034 0.0
H2203 H 0.39036 0.46465 0.97998 0.0
H2204 H 0.38726 0.44755 0.95445 0.0
H2205 H 0.33717 0.45264 0.94903 0.0
H2206 H 0.33992 0.46955 0.97467 0.0
H2207 H 0.34664 0.54686 0.98464 0.0
H2208 H 0.36639 0.52837 0.9907 0.0
H2209 H 0.33859 0.51084 0.02668 0.0
H2210 H 0.31889 0.52924 0.02057 0.0
H2211 H 0.35578 0.49723 0.98416 0.0
H2212 H 0.3621 0.49217 0.05254 0.0
H2213 H 0.36583 0.50997 0.07763 0.0
H2214 H 0.38683 0.54775 0.05355 0.0
H2215 H 0.38345 0.53012 0.02836 0.0
C2216 C 0.37203 0.42841 0.00459 0.0
C2217 C 0.38779 0.42597 0.00974 0.0
C2218 C 0.36745 0.44382 0.00468 0.0
C2219 C 0.37855 0.45711 0.00978 0.0
C2220 C 0.39416 0.45471 0.01537 0.0
C2221 C 0.39874 0.4393 0.01533 0.0
C2222 C 0.37389 0.47349 0.00906 0.0
C2223 C 0.37576 0.48401 0.0231 0.0
C2224 C 0.36704 0.47852 0.99474 0.0
C2225 C 0.36534 0.46828 0.97932 0.0
C2226 C 0.37867 0.46202 0.97341 0.0
C2227 C 0.37697 0.45237 0.95891 0.0
C2228 C 0.36202 0.44898 0.95014 0.0
C2229 C 0.34874 0.45525 0.95585 0.0
C2230 C 0.35037 0.46488 0.97036 0.0
C2231 C 0.34526 0.53968 0.99444 0.0
C2232 C 0.33136 0.53945 0.00221 0.0
C2233 C 0.35644 0.52901 0.99779 0.0
C2234 C 0.35391 0.51815 0.00906 0.0
C2235 C 0.3409 0.51921 0.01806 0.0
C2236 C 0.32967 0.52976 0.01462 0.0
C2237 C 0.36271 0.50385 0.0092 0.0
C2238 C 0.36153 0.49361 0.99503 0.0
C2239 C 0.37024 0.49916 0.02337 0.0
C2240 C 0.37241 0.50982 0.03851 0.0
C2241 C 0.36759 0.50424 0.0526 0.0
C2242 C 0.36963 0.51432 0.06685 0.0
C2243 C 0.37652 0.52999 0.06718 0.0
C2244 C 0.38143 0.53562 0.05327 0.0
C2245 C 0.37943 0.5256 0.03899 0.0
H2246 H 0.37809 0.53777 0.07822 0.0
H2247 H 0.36073 0.44152 0.93891 0.0
H2248 H 0.34792 0.62017 0.82805 0.0
H2249 H 0.34293 0.6306 0.8547 0.0
H2250 H 0.33687 0.67646 0.83821 0.0
H2251 H 0.34172 0.66602 0.81131 0.0
H2252 H 0.35576 0.67948 0.86593 0.0
H2253 H 0.30473 0.65268 0.84671 0.0
H2254 H 0.28544 0.63049 0.834 0.0
H2255 H 0.29968 0.60143 0.87059 0.0
H2256 H 0.31922 0.62336 0.8834 0.0
H2257 H 0.33574 0.70584 0.94335 0.0
H2258 H 0.33197 0.69919 0.91426 0.0
H2259 H 0.33971 0.65046 0.92037 0.0
H2260 H 0.34331 0.65703 0.94929 0.0
H2261 H 0.31642 0.65189 0.89654 0.0
H2262 H 0.36995 0.67708 0.91304 0.0
H2263 H 0.38967 0.69891 0.92577 0.0
H2264 H 0.37072 0.73076 0.89411 0.0
H2265 H 0.35073 0.70914 0.88133 0.0
C2266 C 0.34525 0.63241 0.82996 0.0
C2267 C 0.3451 0.6422 0.81744 0.0
C2268 C 0.34242 0.63837 0.84526 0.0
C2269 C 0.33928 0.65426 0.84844 0.0
C2270 C 0.33921 0.66414 0.83603 0.0
C2271 C 0.34204 0.65817 0.82067 0.0
C2272 C 0.33671 0.66058 0.86489 0.0
C2273 C 0.34691 0.67366 0.8725 0.0
C2274 C 0.32532 0.65288 0.87359 0.0
C2275 C 0.31352 0.63965 0.86596 0.0
C2276 C 0.30383 0.64152 0.85199 0.0
C2277 C 0.29283 0.62899 0.84477 0.0
C2278 C 0.29135 0.61455 0.85147 0.0
C2279 C 0.30084 0.61262 0.86541 0.0
C2280 C 0.31186 0.62511 0.87267 0.0
C2281 C 0.33634 0.69367 0.93843 0.0
C2282 C 0.33996 0.68196 0.94849 0.0
C2283 C 0.33428 0.6899 0.92185 0.0
C2284 C 0.33579 0.67437 0.91512 0.0
C2285 C 0.33852 0.66252 0.92526 0.0
C2286 C 0.34065 0.66629 0.94176 0.0
C2287 C 0.3357 0.67052 0.89761 0.0
C2288 C 0.32504 0.65789 0.88984 0.0
C2289 C 0.34668 0.67861 0.88877 0.0
C2290 C 0.35874 0.69156 0.89637 0.0
C2291 C 0.36992 0.68877 0.90888 0.0
C2292 C 0.38115 0.70109 0.91609 0.0
C2293 C 0.38142 0.71622 0.91078 0.0
C2294 C 0.37048 0.71904 0.89823 0.0
C2295 C 0.3592 0.70676 0.89099 0.0
H2296 H 0.39012 0.72575 0.91638 0.0
H2297 H 0.28283 0.60486 0.84586 0.0
H2298 H 0.97391 0.71564 0.10074 0.0
H2299 H 0.96946 0.70595 0.0723 0.0
H2300 H 0.01594 0.72799 0.06546 0.0
H2301 H 0.02061 0.73736 0.09377 0.0
H2302 H 0.99228 0.73661 0.04464 0.0
H2303 H 0.00976 0.68881 0.06408 0.0
H2304 H 0.00883 0.66633 0.08055 0.0
H2305 H 0.96146 0.65003 0.05911 0.0
H2306 H 0.96203 0.67255 0.04266 0.0
H2307 H 0.00911 0.69089 0.97093 0.0
H2308 H 0.00596 0.69001 0.9993 0.0
H2309 H 0.96263 0.71265 0.99318 0.0
H2310 H 0.96569 0.71333 0.96471 0.0
H2311 H 0.98205 0.68052 0.02034 0.0
H2312 H 0.96944 0.74545 0.02066 0.0
H2313 H 0.97231 0.76759 0.00384 0.0
H2314 H 0.01353 0.74926 0.98615 0.0
H2315 H 0.01102 0.72718 0.00302 0.0
C2316 C 0.98331 0.71813 0.09323 0.0
C2317 C 0.99755 0.72744 0.0995 0.0
C2318 C 0.98072 0.71264 0.07698 0.0
C2319 C 0.99233 0.71637 0.06677 0.0
C2320 C 0.00676 0.72513 0.07311 0.0
C2321 C 0.00938 0.73052 0.08929 0.0
C2322 C 0.98928 0.712 0.04931 0.0
C2323 C 0.9899 0.72434 0.03938 0.0
C2324 C 0.98622 0.696 0.04241 0.0
C2325 C 0.98587 0.68247 0.05228 0.0
C2326 C 0.99909 0.68052 0.06299 0.0
C2327 C 0.99864 0.66775 0.0723 0.0
C2328 C 0.98508 0.65679 0.07092 0.0
C2329 C 0.97195 0.65855 0.06019 0.0
C2330 C 0.97233 0.67131 0.05087 0.0
C2331 C 0.99856 0.69501 0.97555 0.0
C2332 C 0.98759 0.70212 0.96576 0.0
C2333 C 0.99675 0.69448 0.99171 0.0
C2334 C 0.98413 0.70135 0.99832 0.0
C2335 C 0.97242 0.70724 0.98826 0.0
C2336 C 0.97414 0.7076 0.97204 0.0
C2337 C 0.98502 0.70513 0.01583 0.0
C2338 C 0.98406 0.69276 0.0257 0.0
C2339 C 0.988 0.7211 0.02277 0.0
C2340 C 0.98991 0.73459 0.01295 0.0
C2341 C 0.97914 0.74621 0.01323 0.0
C2342 C 0.98071 0.75873 0.00367 0.0
C2343 C 0.99306 0.75979 0.99387 0.0
C2344 C 0.00393 0.74839 0.99368 0.0
C2345 C 0.00243 0.73587 0.00323 0.0
H2346 H 0.99422 0.76947 0.98646 0.0
H2347 H 0.98476 0.64691 0.07813 0.0
H2348 H 0.64763 0.21643 0.6601 0.0
H2349 H 0.65001 0.22801 0.63516 0.0
H2350 H 0.68603 0.2641 0.65875 0.0
H2351 H 0.6836 0.25252 0.68402 0.0
H2352 H 0.66521 0.27732 0.64065 0.0
H2353 H 0.69583 0.23432 0.63141 0.0
H2354 H 0.70299 0.20677 0.63079 0.0
H2355 H 0.66229 0.19075 0.59708 0.0
H2356 H 0.65473 0.21816 0.59768 0.0
H2357 H 0.65982 0.30413 0.56345 0.0
H2358 H 0.67406 0.29266 0.58556 0.0
H2359 H 0.6369 0.2536 0.58133 0.0
H2360 H 0.62284 0.2649 0.55927 0.0
H2361 H 0.66714 0.24421 0.58947 0.0
H2362 H 0.63325 0.286 0.60944 0.0
H2363 H 0.62612 0.31356 0.60886 0.0
H2364 H 0.67533 0.33158 0.62027 0.0
H2365 H 0.68265 0.30417 0.62143 0.0
C2366 C 0.65632 0.22663 0.65997 0.0
C2367 C 0.66554 0.23344 0.67405 0.0
C2368 C 0.65768 0.23325 0.64565 0.0
C2369 C 0.66844 0.24675 0.64495 0.0
C2370 C 0.67773 0.25361 0.65897 0.0
C2371 C 0.6763 0.24701 0.67339 0.0
C2372 C 0.66902 0.25412 0.62973 0.0
C2373 C 0.66613 0.27016 0.62954 0.0
C2374 C 0.67019 0.24487 0.61512 0.0
C2375 C 0.67469 0.22833 0.61464 0.0
C2376 C 0.68835 0.22492 0.62394 0.0
C2377 C 0.69249 0.20932 0.62358 0.0
C2378 C 0.6831 0.19702 0.61391 0.0
C2379 C 0.66956 0.20029 0.60456 0.0
C2380 C 0.66536 0.21587 0.60488 0.0
C2381 C 0.65502 0.29284 0.56695 0.0
C2382 C 0.64022 0.28542 0.55979 0.0
C2383 C 0.66307 0.28636 0.57962 0.0
C2384 C 0.6564 0.2724 0.58523 0.0
C2385 C 0.64226 0.26437 0.57721 0.0
C2386 C 0.63421 0.27085 0.56465 0.0
C2387 C 0.66279 0.26705 0.60052 0.0
C2388 C 0.66687 0.25143 0.6007 0.0
C2389 C 0.66294 0.27667 0.61511 0.0
C2390 C 0.65846 0.29313 0.61556 0.0
C2391 C 0.64249 0.29589 0.61204 0.0
C2392 C 0.63842 0.31146 0.61164 0.0
C2393 C 0.65026 0.32432 0.61464 0.0
C2394 C 0.66616 0.32163 0.61817 0.0
C2395 C 0.67027 0.3061 0.6188 0.0
H2396 H 0.64713 0.33636 0.61416 0.0
H2397 H 0.68632 0.18495 0.61365 0.0
H2398 H 0.99721 0.37267 0.40705 0.0
H2399 H 0.9963 0.3656 0.43424 0.0
H2400 H 0.0391 0.39707 0.44951 0.0
H2401 H 0.04033 0.40394 0.42216 0.0
H2402 H 0.03916 0.36912 0.46342 0.0
H2403 H 0.0046 0.40966 0.45706 0.0
H2404 H 0.98312 0.42299 0.44389 0.0
H2405 H 0.94923 0.38326 0.4488 0.0
H2406 H 0.97055 0.36958 0.46179 0.0
H2407 H 0.9889 0.3658 0.53825 0.0
H2408 H 0.00138 0.3803 0.51817 0.0
H2409 H 0.01301 0.33594 0.49506 0.0
H2410 H 0.00085 0.32155 0.5152 0.0
H2411 H 0.98931 0.37646 0.48829 0.0
H2412 H 0.043 0.34161 0.47232 0.0
H2413 H 0.06525 0.33 0.48631 0.0
H2414 H 0.06257 0.36178 0.5283 0.0
H2415 H 0.04047 0.37375 0.51451 0.0
C2416 C 0.0066 0.37788 0.4161 0.0
C2417 C 0.01881 0.38892 0.41243 0.0
C2418 C 0.00598 0.37395 0.43168 0.0
C2419 C 0.0175 0.381 0.44394 0.0
C2420 C 0.03005 0.39157 0.44025 0.0
C2421 C 0.03066 0.39555 0.42464 0.0
C2422 C 0.01603 0.37764 0.46065 0.0
C2423 C 0.02832 0.37077 0.46894 0.0
C2424 C 0.0021 0.38033 0.46803 0.0
C2425 C 0.9892 0.38855 0.46031 0.0
C2426 C 0.99258 0.40372 0.45524 0.0
C2427 C 0.98044 0.41134 0.44781 0.0
C2428 C 0.96483 0.40397 0.44548 0.0
C2429 C 0.96133 0.38896 0.4506 0.0
C2430 C 0.97344 0.38127 0.45802 0.0
C2431 C 0.99471 0.35926 0.52925 0.0
C2432 C 0.99385 0.34256 0.52819 0.0
C2433 C 0.00172 0.36752 0.51771 0.0
C2434 C 0.0081 0.35922 0.50506 0.0
C2435 C 0.00837 0.34267 0.50478 0.0
C2436 C 0.00134 0.33443 0.51626 0.0
C2437 C 0.01216 0.36726 0.4909 0.0
C2438 C 1.00031 0.37501 0.48299 0.0
C2439 C 0.0266 0.3656 0.48404 0.0
C2440 C 0.03998 0.35852 0.49239 0.0
C2441 C 0.0472 0.34619 0.48451 0.0
C2442 C 0.05978 0.33953 0.49241 0.0
C2443 C 0.0653 0.34512 0.50819 0.0
C2444 C 0.05826 0.35742 0.51609 0.0
C2445 C 0.04568 0.36413 0.50825 0.0
H2446 H 0.07503 0.33995 0.51429 0.0
H2447 H 0.95544 0.40989 0.43973 0.0
H2448 H 0.27806 0.57299 0.44843 0.0
H2449 H 0.27854 0.55938 0.47268 0.0
H2450 H 0.31188 0.59742 0.49721 0.0
H2451 H 0.31146 0.61104 0.47306 0.0
H2452 H 0.32126 0.56936 0.50309 0.0
H2453 H 0.27219 0.59372 0.50349 0.0
H2454 H 0.24556 0.59949 0.49267 0.0
H2455 H 0.22872 0.54979 0.48931 0.0
H2456 H 0.25534 0.54369 0.49993 0.0
H2457 H 0.31309 0.56398 0.58462 0.0
H2458 H 0.31309 0.57117 0.55733 0.0
H2459 H 0.28483 0.5269 0.53985 0.0
H2460 H 0.28492 0.51959 0.56731 0.0
H2461 H 0.27255 0.55422 0.52868 0.0
H2462 H 0.32152 0.53073 0.5315 0.0
H2463 H 0.3481 0.5259 0.54335 0.0
H2464 H 0.3651 0.57496 0.54152 0.0
H2465 H 0.33855 0.58015 0.52988 0.0
C2466 C 0.28535 0.57854 0.45905 0.0
C2467 C 0.29474 0.59309 0.45881 0.0
C2468 C 0.28564 0.57072 0.47289 0.0
C2469 C 0.2952 0.5774 0.48681 0.0
C2470 C 0.30449 0.59198 0.4866 0.0
C2471 C 0.30425 0.59975 0.47278 0.0
C2472 C 0.29573 0.56922 0.50159 0.0
C2473 C 0.31061 0.56616 0.50874 0.0
C2474 C 0.2818 0.5646 0.50873 0.0
C2475 C 0.26581 0.56823 0.50231 0.0
C2476 C 0.26285 0.584 0.5003 0.0
C2477 C 0.24775 0.58734 0.49424 0.0
C2478 C 0.23547 0.57501 0.49025 0.0
C2479 C 0.23826 0.55932 0.49237 0.0
C2480 C 0.25334 0.55592 0.49842 0.0
C2481 C 0.30708 0.55569 0.57491 0.0
C2482 C 0.29902 0.54124 0.578 0.0
C2483 C 0.30711 0.55978 0.55935 0.0
C2484 C 0.29901 0.54954 0.54657 0.0
C2485 C 0.29118 0.53493 0.54956 0.0
C2486 C 0.29133 0.53073 0.56518 0.0
C2487 C 0.29809 0.55468 0.53029 0.0
C2488 C 0.28315 0.5572 0.52288 0.0
C2489 C 0.31197 0.55892 0.52297 0.0
C2490 C 0.328 0.55585 0.52991 0.0
C2491 C 0.33089 0.54052 0.53374 0.0
C2492 C 0.34596 0.53771 0.5404 0.0
C2493 C 0.35828 0.55012 0.54321 0.0
C2494 C 0.35555 0.56536 0.53934 0.0
C2495 C 0.34049 0.56824 0.53269 0.0
H2496 H 0.36994 0.54792 0.54837 0.0
H2497 H 0.22378 0.57761 0.48557 0.0
H2498 H 0.26584 0.42518 0.86804 0.0
H2499 H 0.27237 0.44829 0.88774 0.0
H2500 H 0.24594 0.42433 0.9212 0.0
H2501 H 0.23938 0.40103 0.90148 0.0
H2502 H 0.23783 0.4534 0.92018 0.0
H2503 H 0.28651 0.43085 0.92714 0.0
H2504 H 0.31088 0.41904 0.92068 0.0
H2505 H 0.32738 0.46156 0.90079 0.0
H2506 H 0.30298 0.47356 0.90693 0.0
H2507 H 0.27566 0.51157 0.98559 0.0
H2508 H 0.26504 0.48749 0.96798 0.0
H2509 H 0.27706 0.51106 0.92715 0.0
H2510 H 0.28736 0.53523 0.94465 0.0
H2511 H 0.29217 0.48133 0.93395 0.0
H2512 H 0.24122 0.50294 0.92788 0.0
H2513 H 0.21779 0.51398 0.93798 0.0
H2514 H 0.20678 0.47144 0.96029 0.0
H2515 H 0.23031 0.46023 0.95051 0.0
C2516 C 0.2617 0.42466 0.87971 0.0
C2517 C 0.25211 0.41125 0.8832 0.0
C2518 C 0.26542 0.43791 0.89096 0.0
C2519 C 0.25974 0.43801 0.906 0.0
C2520 C 0.25042 0.42452 0.90966 0.0
C2521 C 0.24666 0.41125 0.89838 0.0
C2522 C 0.26281 0.45257 0.91746 0.0
C2523 C 0.24976 0.45936 0.92337 0.0
C2524 C 0.27835 0.46042 0.9216 0.0
C2525 C 0.29281 0.45305 0.91734 0.0
C2526 C 0.29523 0.43762 0.9212 0.0
C2527 C 0.30908 0.4309 0.91765 0.0
C2528 C 0.32066 0.43953 0.91029 0.0
C2529 C 0.31839 0.45488 0.90646 0.0
C2530 C 0.30455 0.46165 0.90999 0.0
C2531 C 0.27545 0.51175 0.9728 0.0
C2532 C 0.28223 0.5252 0.96641 0.0
C2533 C 0.26945 0.49803 0.9628 0.0
C2534 C 0.27037 0.49756 0.94634 0.0
C2535 C 0.27623 0.51129 0.93985 0.0
C2536 C 0.28198 0.52509 0.94981 0.0
C2537 C 0.26721 0.48225 0.93619 0.0
C2538 C 0.28028 0.4753 0.93067 0.0
C2539 C 0.25179 0.4741 0.93277 0.0
C2540 C 0.23763 0.48082 0.93861 0.0
C2541 C 0.2339 0.496 0.93508 0.0
C2542 C 0.22058 0.50228 0.94071 0.0
C2543 C 0.21083 0.49344 0.94982 0.0
C2544 C 0.21436 0.47828 0.95326 0.0
C2545 C 0.22768 0.47196 0.94766 0.0
H2546 H 0.20051 0.49832 0.95417 0.0
H2547 H 0.3314 0.43433 0.9076 0.0
H2548 H 0.66292 0.98695 0.50909 0.0
H2549 H 0.66127 0.98441 0.48004 0.0
H2550 H 0.7003 0.02134 0.4822 0.0
H2551 H 0.70202 0.02398 0.51135 0.0
H2552 H 0.65717 0.00322 0.45576 0.0
H2553 H 0.72534 0.00891 0.4556 0.0
H2554 H 0.74934 0.00589 0.47351 0.0
H2555 H 0.72232 0.97177 0.49739 0.0
H2556 H 0.69824 0.97441 0.47948 0.0
H2557 H 0.67899 0.00218 0.37594 0.0
H2558 H 0.67556 0.00873 0.40405 0.0
H2559 H 0.69111 0.96352 0.4147 0.0
H2560 H 0.69536 0.95726 0.38686 0.0
H2561 H 0.70637 0.98652 0.43471 0.0
H2562 H 0.65161 0.97123 0.41438 0.0
H2563 H 0.62702 0.97222 0.39663 0.0
H2564 H 0.62581 0.02137 0.4137 0.0
H2565 H 0.65053 0.02073 0.4314 0.0
C2566 C 0.67089 0.99483 0.5034 0.0
C2567 C 0.68272 0.00555 0.51251 0.0
C2568 C 0.66992 0.99335 0.48679 0.0
C2569 C 0.68079 0.00253 0.47901 0.0
C2570 C 0.69194 0.01399 0.48802 0.0
C2571 C 0.69296 0.01543 0.50465 0.0
C2572 C 0.68154 0.99886 0.46169 0.0
C2573 C 0.66793 0.99967 0.4511 0.0
C2574 C 0.6955 0.99393 0.45569 0.0
C2575 C 0.70997 0.992 0.46632 0.0
C2576 C 0.72455 0.00072 0.46464 0.0
C2577 C 0.73816 0.99908 0.47479 0.0
C2578 C 0.73734 0.98869 0.48661 0.0
C2579 C 0.72293 0.97985 0.48826 0.0
C2580 C 0.7093 0.98142 0.47812 0.0
C2581 C 0.68167 0.99363 0.38428 0.0
C2582 C 0.68751 0.97922 0.37916 0.0
C2583 C 0.67955 0.99733 0.40031 0.0
C2584 C 0.68302 0.98658 0.41146 0.0
C2585 C 0.68837 0.97199 0.40629 0.0
C2586 C 0.69062 0.96835 0.39033 0.0
C2587 C 0.68199 0.99085 0.42867 0.0
C2588 C 0.6956 0.99019 0.43927 0.0
C2589 C 0.66794 0.99561 0.43464 0.0
C2590 C 0.65301 0.99597 0.4241 0.0
C2591 C 0.64617 0.98228 0.41426 0.0
C2592 C 0.63219 0.98277 0.40422 0.0
C2593 C 0.62488 0.99686 0.404 0.0
C2594 C 0.6315 0.01047 0.41386 0.0
C2595 C 0.64548 0.01005 0.42392 0.0
H2596 H 0.61406 0.99722 0.39622 0.0
H2597 H 0.74788 0.98746 0.49448 0.0
H2598 H 0.80559 0.98638 0.15236 0.0
H2599 H 0.80254 0.97634 0.12411 0.0
H2600 H 0.76249 0.94366 0.13176 0.0
H2601 H 0.76585 0.95316 0.16011 0.0
H2602 H 0.78015 0.9302 0.11021 0.0
H2603 H 0.75694 0.97987 0.11934 0.0
H2604 H 0.75732 0.00826 0.12911 0.0
H2605 H 0.79368 0.0205 0.09905 0.0
H2606 H 0.79364 0.99214 0.08926 0.0
H2607 H 0.73046 0.92092 0.03728 0.0
H2608 H 0.74369 0.92539 0.0644 0.0
H2609 H 0.78017 0.95772 0.04898 0.0
H2610 H 0.76683 0.9534 0.02178 0.0
H2611 H 0.76842 0.97107 0.07378 0.0
H2612 H 0.78827 0.92108 0.06149 0.0
H2613 H 0.78674 0.89265 0.0515 0.0
H2614 H 0.75599 0.8807 0.08702 0.0
H2615 H 0.75715 0.90908 0.09709 0.0
C2616 C 0.79638 0.97679 0.14811 0.0
C2617 C 0.78582 0.97072 0.15845 0.0
C2618 C 0.79458 0.97114 0.13194 0.0
C2619 C 0.78212 0.95945 0.12579 0.0
C2620 C 0.77214 0.95274 0.13623 0.0
C2621 C 0.77397 0.95832 0.1524 0.0
C2622 C 0.77853 0.95516 0.10836 0.0
C2623 C 0.77754 0.93909 0.10221 0.0
C2624 C 0.77546 0.96683 0.09791 0.0
C2625 C 0.77542 0.98388 0.10372 0.0
C2626 C 0.76509 0.98861 0.11491 0.0
C2627 C 0.76524 0.00469 0.12043 0.0
C2628 C 0.77555 0.01617 0.11474 0.0
C2629 C 0.78572 0.01159 0.10347 0.0
C2630 C 0.78564 0.99552 0.09793 0.0
C2631 C 0.74152 0.92867 0.03958 0.0
C2632 C 0.7476 0.93685 0.02743 0.0
C2633 C 0.7491 0.9312 0.0551 0.0
C2634 C 0.76302 0.94179 0.05872 0.0
C2635 C 0.76945 0.9495 0.04646 0.0
C2636 C 0.76181 0.94705 0.03095 0.0
C2637 C 0.76985 0.94604 0.07553 0.0
C2638 C 0.77136 0.96214 0.08163 0.0
C2639 C 0.77331 0.93437 0.0859 0.0
C2640 C 0.77272 0.91724 0.07998 0.0
C2641 C 0.78109 0.9124 0.06711 0.0
C2642 C 0.78031 0.89629 0.06144 0.0
C2643 C 0.77125 0.88488 0.0686 0.0
C2644 C 0.763 0.88955 0.08148 0.0
C2645 C 0.76374 0.90565 0.08719 0.0
H2646 H 0.77064 0.87241 0.06418 0.0
H2647 H 0.77565 0.02862 0.11903 0.0
H2648 H 0.48776 0.30779 0.62762 0.0
H2649 H 0.51192 0.30949 0.61388 0.0
H2650 H 0.48335 0.29954 0.56853 0.0
H2651 H 0.45916 0.29749 0.58217 0.0
H2652 H 0.50926 0.28274 0.5699 0.0
H2653 H 0.49836 0.33673 0.58244 0.0
H2654 H 0.49352 0.36059 0.59953 0.0
H2655 H 0.53971 0.3612 0.62533 0.0
H2656 H 0.54454 0.33699 0.60893 0.0
H2657 H 0.57528 0.30057 0.52622 0.0
H2658 H 0.54905 0.30191 0.53603 0.0
H2659 H 0.57179 0.31583 0.58369 0.0
H2660 H 0.59784 0.31518 0.57389 0.0
H2661 H 0.54731 0.33165 0.57886 0.0
H2662 H 0.55696 0.2765 0.57012 0.0
H2663 H 0.56279 0.25223 0.55426 0.0
H2664 H 0.52036 0.25354 0.52264 0.0
H2665 H 0.51439 0.27797 0.53821 0.0
C2666 C 0.48663 0.30578 0.61473 0.0
C2667 C 0.47153 0.30257 0.60598 0.0
C2668 C 0.50043 0.30691 0.6069 0.0
C2669 C 0.49941 0.30487 0.59018 0.0
C2670 C 0.4844 0.30125 0.58143 0.0
C2671 C 0.4706 0.30019 0.58924 0.0
C2672 C 0.51401 0.30653 0.58181 0.0
C2673 C 0.51746 0.29353 0.57167 0.0
C2674 C 0.52487 0.32051 0.58436 0.0
C2675 C 0.52175 0.3349 0.59453 0.0
C2676 C 0.50738 0.34179 0.59193 0.0
C2677 C 0.50463 0.35539 0.60153 0.0
C2678 C 0.51624 0.36237 0.61361 0.0
C2679 C 0.53064 0.35575 0.6161 0.0
C2680 C 0.53337 0.34205 0.60668 0.0
C2681 C 0.57465 0.30425 0.53871 0.0
C2682 C 0.58861 0.30757 0.54932 0.0
C2683 C 0.55967 0.30484 0.54434 0.0
C2684 C 0.55843 0.30864 0.56067 0.0
C2685 C 0.5724 0.31277 0.57108 0.0
C2686 C 0.5873 0.31228 0.56547 0.0
C2687 C 0.54274 0.30775 0.56723 0.0
C2688 C 0.53904 0.32091 0.577 0.0
C2689 C 0.53178 0.29385 0.56455 0.0
C2690 C 0.53533 0.27916 0.55521 0.0
C2691 C 0.54894 0.27168 0.55971 0.0
C2692 C 0.55226 0.25789 0.55079 0.0
C2693 C 0.54198 0.25137 0.53742 0.0
C2694 C 0.52833 0.25862 0.53298 0.0
C2695 C 0.52497 0.27244 0.54185 0.0
H2696 H 0.54456 0.24069 0.53053 0.0
H2697 H 0.51413 0.37294 0.62098 0.0
H2698 H 0.1436 0.80742 0.97994 0.0
H2699 H 0.11488 0.80174 0.97271 0.0
H2700 H 0.12327 0.76929 0.93275 0.0
H2701 H 0.15196 0.77544 0.93946 0.0
H2702 H 0.09761 0.78452 0.92539 0.0
H2703 H 0.11743 0.75617 0.96894 0.0
H2704 H 0.1311 0.75408 0.99556 0.0
H2705 H 0.09792 0.7824 0.01715 0.0
H2706 H 0.08418 0.78482 0.99061 0.0
H2707 H 0.03369 0.72311 0.91741 0.0
H2708 H 0.05848 0.74081 0.92046 0.0
H2709 H 0.04144 0.76928 0.95896 0.0
H2710 H 0.01656 0.75161 0.95592 0.0
H2711 H 0.06985 0.76041 0.96766 0.0
H2712 H 0.04714 0.78441 0.92349 0.0
H2713 H 0.03349 0.78525 0.89662 0.0
H2714 H 0.07174 0.76408 0.87577 0.0
H2715 H 0.08552 0.76289 0.90252 0.0
C2716 C 0.13935 0.79942 0.96935 0.0
C2717 C 0.15007 0.79167 0.96042 0.0
C2718 C 0.12292 0.7961 0.9653 0.0
C2719 C 0.11693 0.78484 0.95239 0.0
C2720 C 0.12761 0.77794 0.94282 0.0
C2721 C 0.14402 0.78133 0.94679 0.0
C2722 C 0.09975 0.77898 0.94973 0.0
C2723 C 0.09151 0.77922 0.93459 0.0
C2724 C 0.09171 0.77236 0.96185 0.0
C2725 C 0.09991 0.77084 0.9778 0.0
C2726 C 0.11313 0.76205 0.97936 0.0
C2727 C 0.12088 0.76079 0.99443 0.0
C2728 C 0.11541 0.76815 0.00804 0.0
C2729 C 0.10216 0.77674 0.0066 0.0
C2730 C 0.09439 0.77806 0.99155 0.0
C2731 C 0.03505 0.73338 0.92624 0.0
C2732 C 0.02324 0.73591 0.9365 0.0
C2733 C 0.04923 0.74351 0.92797 0.0
C2734 C 0.05179 0.75643 0.93989 0.0
C2735 C 0.03972 0.75937 0.9497 0.0
C2736 C 0.02556 0.74924 0.94799 0.0
C2737 C 0.06768 0.76573 0.94322 0.0
C2738 C 0.07575 0.76604 0.9585 0.0
C2739 C 0.07554 0.77272 0.93118 0.0
C2740 C 0.06732 0.77347 0.91504 0.0
C2741 C 0.0526 0.77983 0.91318 0.0
C2742 C 0.04484 0.78038 0.89797 0.0
C2743 C 0.05173 0.7747 0.8845 0.0
C2744 C 0.06641 0.76848 0.88621 0.0
C2745 C 0.07421 0.76788 0.90141 0.0
H2746 H 0.04571 0.77514 0.87273 0.0
H2747 H 0.12143 0.76716 0.0197 0.0
H2748 H 0.84073 0.261 0.4339 0.0
H2749 H 0.85815 0.27096 0.45813 0.0
H2750 H 0.89661 0.2477 0.43947 0.0
H2751 H 0.87919 0.23763 0.41523 0.0
H2752 H 0.89575 0.24394 0.47039 0.0
H2753 H 0.89484 0.28758 0.43835 0.0
H2754 H 0.88256 0.30698 0.42244 0.0
H2755 H 0.86102 0.3256 0.46315 0.0
H2756 H 0.873 0.30615 0.47926 0.0
H2757 H 0.9628 0.29037 0.51418 0.0
H2758 H 0.94201 0.27566 0.49499 0.0
H2759 H 0.90623 0.29899 0.51851 0.0
H2760 H 0.9271 0.31394 0.53767 0.0
H2761 H 0.90414 0.3021 0.48676 0.0
H2762 H 0.90813 0.25932 0.51944 0.0
H2763 H 0.9219 0.24033 0.53466 0.0
H2764 H 0.93939 0.2205 0.49199 0.0
H2765 H 0.92591 0.23953 0.47654 0.0
C2766 C 0.85292 0.25808 0.43493 0.0
C2767 C 0.85862 0.24863 0.4226 0.0
C2768 C 0.86285 0.26374 0.44879 0.0
C2769 C 0.87875 0.26024 0.45054 0.0
C2770 C 0.88438 0.25053 0.4384 0.0
C2771 C 0.87442 0.24478 0.42455 0.0
C2772 C 0.8896 0.26702 0.46484 0.0
C2773 C 0.89769 0.25666 0.47391 0.0
C2774 C 0.8919 0.2836 0.46961 0.0
C2775 C 0.88466 0.29529 0.45995 0.0
C2776 C 0.88737 0.29572 0.44387 0.0
C2777 C 0.88049 0.30674 0.43482 0.0
C2778 C 0.87097 0.31748 0.44176 0.0
C2779 C 0.86836 0.31725 0.45778 0.0
C2780 C 0.8752 0.30624 0.46688 0.0
C2781 C 0.95047 0.29212 0.51544 0.0
C2782 C 0.94654 0.30334 0.52735 0.0
C2783 C 0.93859 0.28365 0.50453 0.0
C2784 C 0.92256 0.2862 0.50534 0.0
C2785 C 0.91853 0.29683 0.5177 0.0
C2786 C 0.93043 0.30527 0.5287 0.0
C2787 C 0.91032 0.27904 0.49232 0.0
C2788 C 0.90203 0.28935 0.48341 0.0
C2789 C 0.90802 0.26245 0.48761 0.0
C2790 C 0.91609 0.25094 0.49685 0.0
C2791 C 0.91501 0.25099 0.51332 0.0
C2792 C 0.92275 0.2402 0.52198 0.0
C2793 C 0.93154 0.22924 0.5143 0.0
C2794 C 0.93258 0.22901 0.49792 0.0
C2795 C 0.92487 0.23978 0.4892 0.0
H2796 H 0.93752 0.2209 0.52103 0.0
H2797 H 0.86566 0.32601 0.43474 0.0
H2798 H 0.51133 0.65885 0.01326 0.0
H2799 H 0.48256 0.65551 0.01469 0.0
H2800 H 0.48163 0.70646 0.01838 0.0
H2801 H 0.51025 0.70996 0.01631 0.0
H2802 H 0.46053 0.689 0.03827 0.0
H2803 H 0.47499 0.68906 0.98364 0.0
H2804 H 0.48917 0.67894 0.9613 0.0
H2805 H 0.4657 0.63198 0.96251 0.0
H2806 H 0.45157 0.6418 0.98505 0.0
H2807 H 0.38607 0.70754 0.00627 0.0
H2808 H 0.41364 0.70405 0.01501 0.0
H2809 H 0.40575 0.65468 0.99549 0.0
H2810 H 0.37823 0.65842 0.98609 0.0
H2811 H 0.43116 0.66686 0.98627 0.0
H2812 H 0.41273 0.66698 0.03721 0.0
H2813 H 0.3986 0.67595 0.06 0.0
H2814 H 0.42881 0.72015 0.06708 0.0
H2815 H 0.44298 0.71155 0.04419 0.0
C2816 C 0.50504 0.66937 0.01446 0.0
C2817 C 0.51308 0.68467 0.01437 0.0
C2818 C 0.48864 0.66742 0.01545 0.0
C2819 C 0.48004 0.68074 0.01654 0.0
C2820 C 0.48814 0.69605 0.01764 0.0
C2821 C 0.50451 0.69802 0.01647 0.0
C2822 C 0.46246 0.67873 0.01444 0.0
C2823 C 0.45402 0.6842 0.02695 0.0
C2824 C 0.45406 0.67195 0.99981 0.0
C2825 C 0.46239 0.66611 0.98613 0.0
C2826 C 0.47296 0.67655 0.97922 0.0
C2827 C 0.48097 0.67088 0.96652 0.0
C2828 C 0.47838 0.65482 0.96052 0.0
C2829 C 0.46772 0.64441 0.96719 0.0
C2830 C 0.45971 0.65002 0.97993 0.0
C2831 C 0.39017 0.69588 0.0041 0.0
C2832 C 0.3801 0.68324 0.99553 0.0
C2833 C 0.4059 0.69385 0.0092 0.0
C2834 C 0.41176 0.67902 0.00617 0.0
C2835 C 0.40151 0.66622 0.99801 0.0
C2836 C 0.38583 0.66835 0.99264 0.0
C2837 C 0.42895 0.67742 0.01006 0.0
C2838 C 0.43744 0.67133 0.99781 0.0
C2839 C 0.4373 0.6834 0.02504 0.0
C2840 C 0.42887 0.68864 0.0389 0.0
C2841 C 0.4163 0.67866 0.04355 0.0
C2842 C 0.40829 0.68367 0.0565 0.0
C2843 C 0.41279 0.69862 0.06497 0.0
C2844 C 0.42533 0.70857 0.06052 0.0
C2845 C 0.43338 0.70362 0.04756 0.0
H2846 H 0.40656 0.70249 0.07499 0.0
H2847 H 0.48459 0.65044 0.95068 0.0
H2848 H 0.61406 0.47548 0.30312 0.0
H2849 H 0.60016 0.49945 0.30529 0.0
H2850 H 0.55687 0.47251 0.28279 0.0
H2851 H 0.57079 0.44841 0.28044 0.0
H2852 H 0.56354 0.50245 0.2711 0.0
H2853 H 0.55955 0.4812 0.32125 0.0
H2854 H 0.5699 0.47034 0.34571 0.0
H2855 H 0.60026 0.5138 0.3599 0.0
H2856 H 0.59026 0.52484 0.33541 0.0
H2857 H 0.52186 0.57009 0.28798 0.0
H2858 H 0.52841 0.5425 0.28696 0.0
H2859 H 0.57262 0.55806 0.31622 0.0
H2860 H 0.5657 0.58532 0.31812 0.0
H2861 H 0.56149 0.53131 0.32448 0.0
H2862 H 0.56923 0.55125 0.27378 0.0
H2863 H 0.56088 0.56261 0.24895 0.0
H2864 H 0.52571 0.52255 0.23545 0.0
H2865 H 0.53374 0.51105 0.26031 0.0
C2866 C 0.60163 0.47468 0.29846 0.0
C2867 C 0.59351 0.46006 0.2916 0.0
C2868 C 0.59368 0.48835 0.29983 0.0
C2869 C 0.57745 0.4877 0.29437 0.0
C2870 C 0.56938 0.47323 0.28715 0.0
C2871 C 0.57731 0.45948 0.28589 0.0
C2872 C 0.56901 0.50218 0.29639 0.0
C2873 C 0.5628 0.50863 0.28277 0.0
C2874 C 0.56832 0.51034 0.31161 0.0
C2875 C 0.57422 0.5038 0.32644 0.0
C2876 C 0.56851 0.4884 0.32954 0.0
C2877 C 0.5743 0.48222 0.34341 0.0
C2878 C 0.58575 0.49136 0.35434 0.0
C2879 C 0.59139 0.50673 0.35142 0.0
C2880 C 0.58565 0.51296 0.33756 0.0
C2881 C 0.5328 0.56756 0.29449 0.0
C2882 C 0.54338 0.57997 0.30292 0.0
C2883 C 0.53663 0.55181 0.29373 0.0
C2884 C 0.55121 0.54821 0.30119 0.0
C2885 C 0.56136 0.56049 0.31025 0.0
C2886 C 0.55746 0.57613 0.31119 0.0
C2887 C 0.55639 0.53192 0.29915 0.0
C2888 C 0.56199 0.52506 0.31279 0.0
C2889 C 0.55674 0.52352 0.28393 0.0
C2890 C 0.55195 0.53039 0.26897 0.0
C2891 C 0.55964 0.54492 0.26556 0.0
C2892 C 0.55498 0.55138 0.25148 0.0
C2893 C 0.54274 0.54333 0.24065 0.0
C2894 C 0.53517 0.52879 0.24386 0.0
C2895 C 0.53977 0.52229 0.25794 0.0
H2896 H 0.53914 0.54834 0.22976 0.0
H2897 H 0.59022 0.48655 0.36507 0.0
H2898 H 0.98991 0.14697 0.77757 0.0
H2899 H 0.98366 0.11819 0.77114 0.0
H2900 H 0.9345 0.12241 0.77838 0.0
H2901 H 0.94067 0.15133 0.7848 0.0
H2902 H 0.94938 0.09425 0.7908 0.0
H2903 H 0.94028 0.12144 0.74347 0.0
H2904 H 0.94799 0.14063 0.72473 0.0
H2905 H 0.98843 0.11569 0.71523 0.0
H2906 H 0.9811 0.09649 0.73414 0.0
H2907 H 0.91971 0.01887 0.74797 0.0
H2908 H 0.92371 0.04671 0.75927 0.0
H2909 H 0.96887 0.05235 0.73974 0.0
H2910 H 0.96439 0.02511 0.72734 0.0
H2911 H 0.9541 0.07613 0.73418 0.0
H2912 H 0.96458 0.04927 0.78101 0.0
H2913 H 0.95876 0.03039 0.80064 0.0
H2914 H 0.91814 0.05423 0.81201 0.0
H2915 H 0.92361 0.07314 0.79228 0.0
C2916 C 0.97785 0.14173 0.77816 0.0
C2917 C 0.96575 0.15135 0.78161 0.0
C2918 C 0.97429 0.12532 0.77445 0.0
C2919 C 0.95862 0.11827 0.77424 0.0
C2920 C 0.94667 0.12769 0.77853 0.0
C2921 C 0.95018 0.14416 0.78207 0.0
C2922 C 0.95456 0.10138 0.76799 0.0
C2923 C 0.95018 0.09022 0.77839 0.0
C2924 C 0.95594 0.09624 0.75188 0.0
C2925 C 0.96022 0.10762 0.74033 0.0
C2926 C 0.95089 0.12012 0.73749 0.0
C2927 C 0.95518 0.13099 0.72682 0.0
C2928 C 0.96871 0.1294 0.71882 0.0
C2929 C 0.97796 0.11692 0.72145 0.0
C2930 C 0.97374 0.10603 0.73213 0.0
C2931 C 0.93043 0.02607 0.74595 0.0
C2932 C 0.94173 0.01964 0.73674 0.0
C2933 C 0.93281 0.04194 0.75264 0.0
C2934 C 0.9467 0.05161 0.75055 0.0
C2935 C 0.95807 0.04515 0.74156 0.0
C2936 C 0.95557 0.02943 0.73464 0.0
C2937 C 0.94921 0.06866 0.75704 0.0
C2938 C 0.95323 0.07998 0.74662 0.0
C2939 C 0.9477 0.07385 0.77318 0.0
C2940 C 0.94441 0.06251 0.78504 0.0
C2941 C 0.95433 0.05041 0.7876 0.0
C2942 C 0.95111 0.03972 0.79876 0.0
C2943 C 0.93806 0.04108 0.80753 0.0
C2944 C 0.92823 0.05317 0.80519 0.0
C2945 C 0.93139 0.06389 0.79403 0.0
H2946 H 0.93559 0.03279 0.81617 0.0
H2947 H 0.97202 0.13783 0.71057 0.0
H2948 H 0.42145 0.86454 0.22656 0.0
H2949 H 0.44468 0.88368 0.23537 0.0
H2950 H 0.4343 0.8825 0.28415 0.0
H2951 H 0.41056 0.86411 0.27536 0.0
H2952 H 0.44299 0.91172 0.27916 0.0
H2953 H 0.46362 0.86136 0.26794 0.0
H2954 H 0.46762 0.83675 0.2515 0.0
H2955 H 0.48884 0.86448 0.21765 0.0
H2956 H 0.48478 0.88926 0.2338 0.0
H2957 H 0.51536 0.9427 0.32112 0.0
H2958 H 0.49377 0.92286 0.30902 0.0
H2959 H 0.50555 0.93259 0.26222 0.0
H2960 H 0.52745 0.95242 0.2744 0.0
H2961 H 0.49634 0.90022 0.26439 0.0
H2962 H 0.47691 0.95084 0.27756 0.0
H2963 H 0.47407 0.97477 0.29557 0.0
H2964 H 0.45109 0.94565 0.32726 0.0
H2965 H 0.45402 0.9215 0.30956 0.0
C2966 C 0.42394 0.86854 0.23914 0.0
C2967 C 0.41415 0.86268 0.25025 0.0
C2968 C 0.43736 0.87934 0.24418 0.0
C2969 C 0.44142 0.88432 0.26046 0.0
C2970 C 0.43148 0.87877 0.27153 0.0
C2971 C 0.41798 0.86811 0.26649 0.0
C2972 C 0.45604 0.89523 0.26604 0.0
C2973 C 0.45465 0.9091 0.27603 0.0
C2974 C 0.47126 0.89204 0.26169 0.0
C2975 C 0.47373 0.87716 0.25199 0.0
C2976 C 0.46903 0.8622 0.25693 0.0
C2977 C 0.47132 0.84823 0.24768 0.0
C2978 C 0.47843 0.84905 0.23352 0.0
C2979 C 0.4833 0.86386 0.22861 0.0
C2980 C 0.48102 0.87787 0.23781 0.0
C2981 C 0.51351 0.94038 0.30825 0.0
C2982 C 0.52289 0.94914 0.29865 0.0
C2983 C 0.50118 0.92911 0.30136 0.0
C2984 C 0.49785 0.92656 0.28474 0.0
C2985 C 0.50789 0.93449 0.27508 0.0
C2986 C 0.52038 0.94575 0.28201 0.0
C2987 C 0.48323 0.91647 0.27765 0.0
C2988 C 0.48463 0.90283 0.26738 0.0
C2989 C 0.46802 0.91978 0.28185 0.0
C2990 C 0.46578 0.93434 0.29227 0.0
C2991 C 0.47131 0.94953 0.2884 0.0
C2992 C 0.46969 0.96313 0.29856 0.0
C2993 C 0.46243 0.96173 0.31256 0.0
C2994 C 0.45671 0.94672 0.3164 0.0
C2995 C 0.45833 0.93307 0.3063 0.0
H2996 H 0.46121 0.97228 0.32042 0.0
H2997 H 0.4802 0.83822 0.22637 0.0
H2998 H 0.99471 0.49544 0.65532 0.0
H2999 H 0.99676 0.46687 0.65189 0.0
H3000 H 0.04651 0.47503 0.66988 0.0
H3001 H 0.04437 0.50374 0.67378 0.0
H3002 H 0.01256 0.44418 0.63824 0.0
H3003 H 0.05359 0.44864 0.69634 0.0
H3004 H 0.06258 0.46749 0.72023 0.0
H3005 H 0.01808 0.48789 0.71581 0.0
H3006 H 0.00877 0.469 0.69206 0.0
H3007 H 0.01142 0.36358 0.66527 0.0
H3008 H 0.02128 0.38896 0.65583 0.0
H3009 H 0.99352 0.41411 0.68807 0.0
H3010 H 0.98432 0.38927 0.69784 0.0
H3011 H 0.02461 0.42641 0.69178 0.0
H3012 H 0.98227 0.40773 0.64888 0.0
H3013 H 0.96999 0.38878 0.6262 0.0
H3014 H 0.0117 0.39682 0.60179 0.0
H3015 H 0.02431 0.41566 0.62446 0.0
C3016 C 0.0062 0.49119 0.65813 0.0
C3017 C 0.01932 0.50176 0.66508 0.0
C3018 C 0.00739 0.47484 0.65607 0.0
C3019 C 0.02172 0.46877 0.66085 0.0
C3020 C 0.03527 0.47944 0.66633 0.0
C3021 C 0.03402 0.49581 0.66864 0.0
C3022 C 0.0215 0.45154 0.66277 0.0
C3023 C 0.01547 0.44023 0.64987 0.0
C3024 C 0.02524 0.44635 0.67795 0.0
C3025 C 0.03062 0.45759 0.69233 0.0
C3026 C 0.04574 0.45714 0.70051 0.0
C3027 C 0.05088 0.46781 0.71402 0.0
C3028 C 0.04094 0.47893 0.71949 0.0
C3029 C 0.02579 0.47931 0.71153 0.0
C3030 C 0.02058 0.46863 0.69805 0.0
C3031 C 0.00778 0.37459 0.67057 0.0
C3032 C 0.99812 0.37465 0.68322 0.0
C3033 C 0.01322 0.38902 0.66501 0.0
C3034 C 0.00854 0.40345 0.67167 0.0
C3035 C 0.9977 0.40319 0.68314 0.0
C3036 C 0.99245 0.38897 0.68872 0.0
C3037 C 0.01499 0.41916 0.66746 0.0
C3038 C 0.02232 0.43021 0.67997 0.0
C3039 C 0.01198 0.42409 0.65208 0.0
C3040 C 0.00431 0.41293 0.63843 0.0
C3041 C 0.98887 0.40536 0.63873 0.0
C3042 C 0.98184 0.39465 0.62587 0.0
C3043 C 0.99008 0.39155 0.61259 0.0
C3044 C 0.00535 0.3992 0.61211 0.0
C3045 C 0.01244 0.40989 0.62495 0.0
H3046 H 0.98463 0.38325 0.60265 0.0
H3047 H 0.04495 0.4872 0.72992 0.0
H3048 H 0.6932 0.38021 0.52676 0.0
H3049 H 0.6919 0.39284 0.50211 0.0
H3050 H 0.72267 0.4334 0.52539 0.0
H3051 H 0.72367 0.42099 0.55042 0.0
H3052 H 0.6983 0.44299 0.50793 0.0
H3053 H 0.73548 0.40507 0.49941 0.0
H3054 H 0.74569 0.37876 0.49806 0.0
H3055 H 0.70855 0.36069 0.461 0.0
H3056 H 0.69806 0.38684 0.46217 0.0
H3057 H 0.71133 0.47333 0.43263 0.0
H3058 H 0.71342 0.46422 0.45934 0.0
H3059 H 0.68193 0.42202 0.44155 0.0
H3060 H 0.67995 0.43101 0.41495 0.0
H3061 H 0.70882 0.41459 0.45673 0.0
H3062 H 0.6703 0.45155 0.46711 0.0
H3063 H 0.65989 0.47778 0.46836 0.0
H3064 H 0.70004 0.49761 0.5013 0.0
H3065 H 0.7108 0.47153 0.50007 0.0
C3066 C 0.69965 0.39185 0.52669 0.0
C3067 C 0.7085 0.39961 0.5406 0.0
C3068 C 0.69899 0.39901 0.51252 0.0
C3069 C 0.70726 0.41403 0.51181 0.0
C3070 C 0.7162 0.42179 0.52563 0.0
C3071 C 0.71688 0.41462 0.53988 0.0
C3072 C 0.70619 0.42166 0.49669 0.0
C3073 C 0.70086 0.43688 0.49678 0.0
C3074 C 0.70925 0.41359 0.48205 0.0
C3075 C 0.71575 0.39788 0.48114 0.0
C3076 C 0.72937 0.39545 0.49109 0.0
C3077 C 0.73526 0.38057 0.49031 0.0
C3078 C 0.72772 0.36803 0.47952 0.0
C3079 C 0.71435 0.37039 0.4694 0.0
C3080 C 0.70844 0.38525 0.47012 0.0
C3081 C 0.70456 0.46233 0.43456 0.0
C3082 C 0.69556 0.45282 0.42173 0.0
C3083 C 0.70578 0.4571 0.44979 0.0
C3084 C 0.69789 0.44238 0.45243 0.0
C3085 C 0.68823 0.43333 0.43978 0.0
C3086 C 0.68707 0.4385 0.4246 0.0
C3087 C 0.70059 0.4357 0.46794 0.0
C3088 C 0.70632 0.4207 0.46791 0.0
C3089 C 0.69792 0.44396 0.48258 0.0
C3090 C 0.69144 0.45963 0.48336 0.0
C3091 C 0.67698 0.46154 0.47451 0.0
C3092 C 0.671 0.47637 0.47524 0.0
C3093 C 0.67932 0.48937 0.48487 0.0
C3094 C 0.69362 0.48754 0.49383 0.0
C3095 C 0.69966 0.47273 0.49313 0.0
H3096 H 0.67467 0.50084 0.48542 0.0
H3097 H 0.73229 0.35652 0.47895 0.0
H3098 H 0.77373 0.56669 0.14403 0.0
H3099 H 0.76534 0.54537 0.12257 0.0
H3100 H 0.72592 0.57059 0.1066 0.0
H3101 H 0.73429 0.59202 0.128 0.0
H3102 H 0.71651 0.53969 0.10692 0.0
H3103 H 0.75882 0.57067 0.0868 0.0
H3104 H 0.78587 0.58435 0.08717 0.0
H3105 H 0.80576 0.53985 0.09016 0.0
H3106 H 0.77883 0.52594 0.09003 0.0
H3107 H 0.7188 0.50092 0.02174 0.0
H3108 H 0.7302 0.52079 0.04362 0.0
H3109 H 0.71816 0.48792 0.07756 0.0
H3110 H 0.70638 0.46809 0.05569 0.0
H3111 H 0.75341 0.52283 0.06796 0.0
H3112 H 0.70398 0.50916 0.10871 0.0
H3113 H 0.67595 0.49752 0.1064 0.0
H3114 H 0.66867 0.51107 0.0589 0.0
H3115 H 0.69657 0.52299 0.06102 0.0
C3116 C 0.76335 0.56777 0.13587 0.0
C3117 C 0.75472 0.5811 0.13768 0.0
C3118 C 0.75856 0.55556 0.12363 0.0
C3119 C 0.7451 0.55647 0.1129 0.0
C3120 C 0.73633 0.56964 0.11478 0.0
C3121 C 0.7411 0.58186 0.12703 0.0
C3122 C 0.74014 0.54366 0.09971 0.0
C3123 C 0.7246 0.53597 0.09845 0.0
C3124 C 0.75061 0.53897 0.0885 0.0
C3125 C 0.76682 0.54729 0.08857 0.0
C3126 C 0.76898 0.56383 0.08767 0.0
C3127 C 0.78428 0.57162 0.08782 0.0
C3128 C 0.79753 0.56298 0.08874 0.0
C3129 C 0.79549 0.54653 0.08947 0.0
C3130 C 0.78021 0.53868 0.08936 0.0
C3131 C 0.71873 0.49788 0.03387 0.0
C3132 C 0.71156 0.48303 0.03703 0.0
C3133 C 0.72533 0.5092 0.04634 0.0
C3134 C 0.72482 0.50591 0.06221 0.0
C3135 C 0.7185 0.49076 0.06539 0.0
C3136 C 0.7119 0.4794 0.0529 0.0
C3137 C 0.72988 0.51873 0.07534 0.0
C3138 C 0.7454 0.52644 0.07656 0.0
C3139 C 0.71927 0.52372 0.08629 0.0
C3140 C 0.70241 0.51679 0.08497 0.0
C3141 C 0.69637 0.5097 0.0978 0.0
C3142 C 0.68051 0.50305 0.09652 0.0
C3143 C 0.67055 0.5035 0.08249 0.0
C3144 C 0.67641 0.51067 0.06973 0.0
C3145 C 0.69225 0.51736 0.07097 0.0
H3146 H 0.65828 0.49833 0.08151 0.0
H3147 H 0.80937 0.56904 0.08884 0.0
H3148 H 0.29644 0.02091 0.48805 0.0
H3149 H 0.30063 0.02208 0.51704 0.0
H3150 H 0.32146 0.97757 0.51323 0.0
H3151 H 0.31723 0.97627 0.48399 0.0
H3152 H 0.29881 0.98089 0.53716 0.0
H3153 H 0.34622 0.00742 0.52178 0.0
H3154 H 0.36192 0.02599 0.50712 0.0
H3155 H 0.34141 0.06543 0.52987 0.0
H3156 H 0.32539 0.04707 0.54449 0.0
H3157 H 0.32361 0.99701 0.62123 0.0
H3158 H 0.32408 0.98946 0.59264 0.0
H3159 H 0.30934 0.03516 0.58261 0.0
H3160 H 0.30892 0.04275 0.61104 0.0
H3161 H 0.33297 0.02764 0.56565 0.0
H3162 H 0.28311 0.00095 0.57809 0.0
H3163 H 0.26672 0.98261 0.5924 0.0
H3164 H 0.29146 0.94363 0.5751 0.0
H3165 H 0.30814 0.96181 0.56086 0.0
C3166 C 0.30169 0.01124 0.49336 0.0
C3167 C 0.30649 0.99848 0.48379 0.0
C3168 C 0.30417 0.01198 0.5099 0.0
C3169 C 0.31146 0.99997 0.5172 0.0
C3170 C 0.31585 0.98694 0.50775 0.0
C3171 C 0.3135 0.98627 0.49112 0.0
C3172 C 0.31486 0.00155 0.53473 0.0
C3173 C 0.30654 0.99089 0.54345 0.0
C3174 C 0.32482 0.01471 0.54282 0.0
C3175 C 0.33452 0.02584 0.53415 0.0
C3176 C 0.34496 0.02004 0.52357 0.0
C3177 C 0.35393 0.03053 0.51528 0.0
C3178 C 0.35264 0.04688 0.51754 0.0
C3179 C 0.3424 0.05277 0.52813 0.0
C3180 C 0.33338 0.04232 0.53643 0.0
C3181 C 0.32042 0.00539 0.61289 0.0
C3182 C 0.31626 0.02048 0.61834 0.0
C3183 C 0.32071 0.00108 0.59659 0.0
C3184 C 0.31666 0.01172 0.58551 0.0
C3185 C 0.3126 0.0268 0.59097 0.0
C3186 C 0.31239 0.03114 0.60721 0.0
C3187 C 0.31648 0.00731 0.56815 0.0
C3188 C 0.32546 0.01744 0.55943 0.0
C3189 C 0.30709 0.99369 0.5601 0.0
C3190 C 0.297 0.98276 0.56857 0.0
C3191 C 0.28513 0.98849 0.57744 0.0
C3192 C 0.27578 0.97813 0.58552 0.0
C3193 C 0.27808 0.96198 0.5847 0.0
C3194 C 0.28971 0.95615 0.57575 0.0
C3195 C 0.29911 0.96648 0.56767 0.0
H3196 H 0.27083 0.95397 0.59097 0.0
H3197 H 0.3596 0.05498 0.51112 0.0
H3198 H 0.22464 0.00759 0.85439 0.0
H3199 H 0.22972 0.01622 0.88284 0.0
H3200 H 0.20959 0.06014 0.87532 0.0
H3201 H 0.20484 0.05168 0.84663 0.0
H3202 H 0.23787 0.06564 0.89294 0.0
H3203 H 0.19005 0.03263 0.89513 0.0
H3204 H 0.17077 0.00866 0.88942 0.0
H3205 H 0.20409 0.98112 0.91285 0.0
H3206 H 0.22368 0.00487 0.9185 0.0
H3207 H 0.25401 0.08397 0.97794 0.0
H3208 H 0.23885 0.07897 0.95154 0.0
H3209 H 0.25669 0.03309 0.94468 0.0
H3210 H 0.27208 0.0381 0.97073 0.0
H3211 H 0.22437 0.03179 0.93543 0.0
H3212 H 0.27338 0.06406 0.92854 0.0
H3213 H 0.29269 0.08805 0.93408 0.0
H3214 H 0.25629 0.11715 0.91941 0.0
H3215 H 0.2367 0.09333 0.914 0.0
C3216 C 0.22121 0.01905 0.8588 0.0
C3217 C 0.21443 0.029 0.84828 0.0
C3218 C 0.22396 0.0239 0.87509 0.0
C3219 C 0.21988 0.03876 0.88123 0.0
C3220 C 0.21275 0.04859 0.87082 0.0
C3221 C 0.20996 0.04371 0.85448 0.0
C3222 C 0.22429 0.04437 0.89832 0.0
C3223 C 0.23458 0.05845 0.90229 0.0
C3224 C 0.22014 0.0349 0.91049 0.0
C3225 C 0.20838 0.02054 0.90717 0.0
C3226 C 0.19332 0.02144 0.89897 0.0
C3227 C 0.18232 0.00789 0.89576 0.0
C3228 C 0.18621 0.99337 0.90075 0.0
C3229 C 0.2011 0.99238 0.90899 0.0
C3230 C 0.21214 0.00589 0.91223 0.0
C3231 C 0.25475 0.07285 0.97077 0.0
C3232 C 0.26424 0.06143 0.97647 0.0
C3233 C 0.24602 0.06998 0.95575 0.0
C3234 C 0.24667 0.05566 0.94619 0.0
C3235 C 0.25592 0.04416 0.95194 0.0
C3236 C 0.26467 0.04703 0.96687 0.0
C3237 C 0.23831 0.05272 0.92988 0.0
C3238 C 0.2273 0.03915 0.9261 0.0
C3239 C 0.24175 0.06267 0.9179 0.0
C3240 C 0.25354 0.07696 0.92107 0.0
C3241 C 0.26947 0.07559 0.92663 0.0
C3242 C 0.28047 0.08915 0.92972 0.0
C3243 C 0.27571 0.10412 0.92715 0.0
C3244 C 0.25995 0.10555 0.92143 0.0
C3245 C 0.2489 0.09203 0.91835 0.0
H3246 H 0.28424 0.1146 0.92955 0.0
H3247 H 0.17768 0.98289 0.89825 0.0
H3248 H 0.53699 0.72458 0.4008 0.0
H3249 H 0.51283 0.72433 0.41445 0.0
H3250 H 0.53564 0.70097 0.45212 0.0
H3251 H 0.5599 0.70132 0.43863 0.0
H3252 H 0.50688 0.68602 0.4419 0.0
H3253 H 0.52847 0.73967 0.45869 0.0
H3254 H 0.53997 0.76683 0.45542 0.0
H3255 H 0.49744 0.77449 0.42666 0.0
H3256 H 0.48577 0.74728 0.42957 0.0
H3257 H 0.43748 0.71926 0.48603 0.0
H3258 H 0.46544 0.72099 0.48026 0.0
H3259 H 0.45175 0.69065 0.43638 0.0
H3260 H 0.42396 0.68882 0.44212 0.0
H3261 H 0.47798 0.73313 0.45441 0.0
H3262 H 0.48138 0.66757 0.42934 0.0
H3263 H 0.47034 0.64059 0.43387 0.0
H3264 H 0.46429 0.6572 0.48215 0.0
H3265 H 0.4755 0.68422 0.47799 0.0
C3266 C 0.53699 0.71967 0.41214 0.0
C3267 C 0.55037 0.71291 0.41858 0.0
C3268 C 0.52314 0.71951 0.41992 0.0
C3269 C 0.52244 0.71268 0.43435 0.0
C3270 C 0.53589 0.70624 0.44098 0.0
C3271 C 0.54973 0.7064 0.43322 0.0
C3272 C 0.50741 0.7115 0.44206 0.0
C3273 C 0.50062 0.69634 0.44471 0.0
C3274 C 0.49934 0.72498 0.44599 0.0
C3275 C 0.5063 0.74138 0.44425 0.0
C3276 C 0.52162 0.7471 0.45157 0.0
C3277 C 0.52816 0.76251 0.44979 0.0
C3278 C 0.51945 0.77237 0.44081 0.0
C3279 C 0.50417 0.76684 0.43361 0.0
C3280 C 0.49758 0.75142 0.43533 0.0
C3281 C 0.44053 0.71276 0.47531 0.0
C3282 C 0.42859 0.70392 0.46451 0.0
C3283 C 0.45644 0.71385 0.47196 0.0
C3284 C 0.46066 0.70591 0.45792 0.0
C3285 C 0.44878 0.69675 0.44735 0.0
C3286 C 0.43291 0.69578 0.45061 0.0
C3287 C 0.47732 0.70763 0.45382 0.0
C3288 C 0.48437 0.72286 0.45177 0.0
C3289 C 0.48572 0.69424 0.4506 0.0
C3290 C 0.47918 0.67795 0.4533 0.0
C3291 C 0.47778 0.66545 0.44095 0.0
C3292 C 0.47147 0.65015 0.44345 0.0
C3293 C 0.46658 0.64719 0.45828 0.0
C3294 C 0.46803 0.65952 0.47066 0.0
C3295 C 0.47434 0.67483 0.46822 0.0
H3296 H 0.46169 0.63535 0.46019 0.0
H3297 H 0.52454 0.7843 0.43945 0.0
H3298 H 0.83829 0.22686 0.05875 0.0
H3299 H 0.86669 0.233 0.06743 0.0
H3300 H 0.87799 0.20558 0.02524 0.0
H3301 H 0.84956 0.19896 0.01669 0.0
H3302 H 0.89867 0.2023 0.05188 0.0
H3303 H 0.87688 0.2446 0.02514 0.0
H3304 H 0.85803 0.26463 0.02092 0.0
H3305 H 0.87271 0.28758 0.06807 0.0
H3306 H 0.89149 0.26754 0.07264 0.0
H3307 H 0.97521 0.2396 0.04135 0.0
H3308 H 0.94764 0.22763 0.03943 0.0
H3309 H 0.93904 0.25983 0.07951 0.0
H3310 H 0.9663 0.27238 0.08099 0.0
H3311 H 0.91684 0.26006 0.05614 0.0
H3312 H 0.94065 0.21931 0.08216 0.0
H3313 H 0.9595 0.19931 0.08646 0.0
H3314 H 0.94145 0.17347 0.04136 0.0
H3315 H 0.92264 0.19345 0.03667 0.0
C3316 C 0.84679 0.22178 0.05151 0.0
C3317 C 0.84168 0.21256 0.03694 0.0
C3318 C 0.86302 0.22539 0.05645 0.0
C3319 C 0.87442 0.21994 0.04685 0.0
C3320 C 0.86937 0.20995 0.03278 0.0
C3321 C 0.85314 0.20631 0.02785 0.0
C3322 C 0.89147 0.22587 0.05067 0.0
C3323 C 0.90271 0.2149 0.05273 0.0
C3324 C 0.89664 0.24234 0.05208 0.0
C3325 C 0.88546 0.25448 0.04929 0.0
C3326 C 0.876 0.25385 0.03464 0.0
C3327 C 0.86534 0.26521 0.03218 0.0
C3328 C 0.86414 0.27734 0.04423 0.0
C3329 C 0.87363 0.27816 0.05875 0.0
C3330 C 0.88429 0.26681 0.06129 0.0
C3331 C 0.96746 0.24413 0.04976 0.0
C3332 C 0.97296 0.25701 0.06127 0.0
C3333 C 0.95175 0.23713 0.04879 0.0
C3334 C 0.9413 0.24274 0.05942 0.0
C3335 C 0.94691 0.25527 0.07122 0.0
C3336 C 0.96255 0.26234 0.07213 0.0
C3337 C 0.9242 0.23651 0.05741 0.0
C3338 C 0.91289 0.24744 0.05555 0.0
C3339 C 0.91903 0.22002 0.05623 0.0
C3340 C 0.93032 0.20796 0.05901 0.0
C3341 C 0.94079 0.20944 0.0731 0.0
C3342 C 0.95145 0.19809 0.07562 0.0
C3343 C 0.9517 0.18515 0.06417 0.0
C3344 C 0.94126 0.18351 0.0502 0.0
C3345 C 0.93058 0.19483 0.04762 0.0
H3346 H 0.95996 0.17638 0.06615 0.0
H3347 H 0.85588 0.28613 0.0423 0.0
H3348 H 0.15301 0.75018 0.56966 0.0
H3349 H 0.13181 0.74224 0.54794 0.0
H3350 H 0.09679 0.75577 0.579 0.0
H3351 H 0.11797 0.7636 0.60087 0.0
H3352 H 0.08771 0.72689 0.5617 0.0
H3353 H 0.10627 0.77943 0.5521 0.0
H3354 H 0.12604 0.80168 0.54844 0.0
H3355 H 0.13968 0.77503 0.50718 0.0
H3356 H 0.12014 0.7525 0.51073 0.0
H3357 H 0.03679 0.73837 0.4829 0.0
H3358 H 0.05767 0.74924 0.50431 0.0
H3359 H 0.07009 0.7017 0.50991 0.0
H3360 H 0.04893 0.69089 0.48897 0.0
H3361 H 0.08871 0.74988 0.51001 0.0
H3362 H 0.07945 0.69722 0.54838 0.0
H3363 H 0.05808 0.67683 0.55295 0.0
H3364 H 0.02277 0.70714 0.5384 0.0
H3365 H 0.04392 0.72781 0.53396 0.0
C3366 C 0.14079 0.75136 0.57189 0.0
C3367 C 0.13714 0.75751 0.58696 0.0
C3368 C 0.12871 0.74694 0.55945 0.0
C3369 C 0.11276 0.74854 0.56183 0.0
C3370 C 0.10904 0.75448 0.57691 0.0
C3371 C 0.12114 0.75903 0.58934 0.0
C3372 C 0.09998 0.74388 0.54857 0.0
C3373 C 0.08791 0.73191 0.5504 0.0
C3374 C 0.10006 0.75072 0.53397 0.0
C3375 C 0.11184 0.76422 0.53177 0.0
C3376 C 0.11358 0.77825 0.54232 0.0
C3377 C 0.12473 0.79093 0.54025 0.0
C3378 C 0.13414 0.78975 0.52761 0.0
C3379 C 0.1324 0.77591 0.51698 0.0
C3380 C 0.12128 0.76319 0.51901 0.0
C3381 C 0.04421 0.73036 0.48857 0.0
C3382 C 0.04134 0.71386 0.48444 0.0
C3383 C 0.05607 0.73652 0.50079 0.0
C3384 C 0.06521 0.72624 0.50895 0.0
C3385 C 0.06294 0.70982 0.50407 0.0
C3386 C 0.05098 0.70367 0.49205 0.0
C3387 C 0.07666 0.73255 0.52297 0.0
C3388 C 0.08849 0.74485 0.5213 0.0
C3389 C 0.07613 0.72627 0.53786 0.0
C3390 C 0.06329 0.71402 0.54075 0.0
C3391 C 0.06713 0.69958 0.54625 0.0
C3392 C 0.05505 0.68797 0.54882 0.0
C3393 C 0.03908 0.69072 0.54602 0.0
C3394 C 0.03515 0.70505 0.5406 0.0
C3395 C 0.04718 0.71671 0.53804 0.0
H3396 H 0.02976 0.68171 0.54798 0.0
H3397 H 0.14276 0.79958 0.52602 0.0
H3398 H 0.48426 0.29282 0.97856 0.0
H3399 H 0.5131 0.29165 0.98053 0.0
H3400 H 0.51962 0.33129 0.01718 0.0
H3401 H 0.49083 0.33249 0.01535 0.0
H3402 H 0.54248 0.33334 0.99647 0.0
H3403 H 0.51886 0.294 0.02723 0.0
H3404 H 0.50029 0.27095 0.03141 0.0
H3405 H 0.52026 0.24184 0.99575 0.0
H3406 H 0.53881 0.2648 0.9912 0.0
H3407 H 0.61722 0.32258 0.03688 0.0
H3408 H 0.58918 0.32551 0.02929 0.0
H3409 H 0.58635 0.28465 0.99432 0.0
H3410 H 0.61427 0.28136 0.00217 0.0
H3411 H 0.56178 0.28295 0.01201 0.0
H3412 H 0.58702 0.32186 0.98277 0.0
H3413 H 0.60574 0.3449 0.97888 0.0
H3414 H 0.58309 0.37481 0.01166 0.0
H3415 H 0.56437 0.35189 0.01594 0.0
C3416 C 0.49185 0.30132 0.98699 0.0
C3417 C 0.48527 0.31265 0.9969 0.0
C3418 C 0.50831 0.30068 0.98806 0.0
C3419 C 0.51845 0.31126 0.99915 0.0
C3420 C 0.51199 0.32304 0.00854 0.0
C3421 C 0.49554 0.32372 0.00745 0.0
C3422 C 0.53567 0.30943 0.00171 0.0
C3423 C 0.54673 0.32238 0.99998 0.0
C3424 C 0.54117 0.295 0.00596 0.0
C3425 C 0.53009 0.28116 0.00875 0.0
C3426 C 0.5192 0.28272 0.0202 0.0
C3427 C 0.5087 0.26966 0.02265 0.0
C3428 C 0.50906 0.25495 0.01382 0.0
C3429 C 0.51997 0.25325 0.00256 0.0
C3430 C 0.53049 0.26628 1.00004 0.0
C3431 C 0.6106 0.31418 0.02762 0.0
C3432 C 0.61792 0.30172 0.02013 0.0
C3433 C 0.59464 0.31598 0.02318 0.0
C3434 C 0.58575 0.3054 0.01112 0.0
C3435 C 0.59304 0.29298 0.0036 0.0
C3436 C 0.609 0.29118 0.00803 0.0
C3437 C 0.56865 0.30689 0.00686 0.0
C3438 C 0.55758 0.29388 0.00832 0.0
C3439 C 0.56319 0.32127 0.00238 0.0
C3440 C 0.57437 0.33511 0.99978 0.0
C3441 C 0.5861 0.33332 0.98925 0.0
C3442 C 0.5967 0.34636 0.98695 0.0
C3443 C 0.59562 0.3613 0.99504 0.0
C3444 C 0.58392 0.36323 0.00541 0.0
C3445 C 0.5733 0.35022 0.00776 0.0
H3446 H 0.60384 0.37138 0.99325 0.0
H3447 H 0.50092 0.24485 0.01574 0.0
H3448 H 0.38781 0.5274 0.68434 0.0
H3449 H 0.39981 0.50235 0.68195 0.0
H3450 H 0.43003 0.51724 0.72569 0.0
H3451 H 0.41845 0.54265 0.72786 0.0
H3452 H 0.44688 0.5049 0.70356 0.0
H3453 H 0.39768 0.48919 0.72379 0.0
H3454 H 0.36867 0.48568 0.72524 0.0
H3455 H 0.3621 0.45795 0.67961 0.0
H3456 H 0.39103 0.46164 0.67767 0.0
H3457 H 0.4696 0.42644 0.71477 0.0
H3458 H 0.46082 0.45331 0.71671 0.0
H3459 H 0.4316 0.44142 0.67192 0.0
H3460 H 0.4399 0.41441 0.67029 0.0
H3461 H 0.41467 0.45231 0.69535 0.0
H3462 H 0.46387 0.46837 0.67495 0.0
H3463 H 0.49299 0.47088 0.67412 0.0
H3464 H 0.49952 0.49698 0.72061 0.0
H3465 H 0.47044 0.49443 0.72182 0.0
C3466 C 0.39705 0.52539 0.69344 0.0
C3467 C 0.4022 0.53708 0.70627 0.0
C3468 C 0.40379 0.51098 0.69213 0.0
C3469 C 0.41573 0.50783 0.70371 0.0
C3470 C 0.42081 0.51939 0.71663 0.0
C3471 C 0.41407 0.53385 0.71793 0.0
C3472 C 0.42321 0.49268 0.70204 0.0
C3473 C 0.43985 0.49338 0.70199 0.0
C3474 C 0.41402 0.47764 0.69961 0.0
C3475 C 0.39654 0.47584 0.70052 0.0
C3476 C 0.39004 0.48253 0.71396 0.0
C3477 C 0.3736 0.48049 0.71488 0.0
C3478 C 0.36354 0.47164 0.70249 0.0
C3479 C 0.3699 0.46484 0.68916 0.0
C3480 C 0.38631 0.46691 0.68814 0.0
C3481 C 0.46161 0.42978 0.70519 0.0
C3482 C 0.45547 0.41856 0.69232 0.0
C3483 C 0.4566 0.44507 0.70629 0.0
C3484 C 0.44546 0.44931 0.69448 0.0
C3485 C 0.44002 0.43829 0.68122 0.0
C3486 C 0.44488 0.42299 0.68021 0.0
C3487 C 0.43825 0.46455 0.69665 0.0
C3488 C 0.42167 0.46384 0.69685 0.0
C3489 C 0.44748 0.47952 0.69923 0.0
C3490 C 0.46498 0.48107 0.69854 0.0
C3491 C 0.47152 0.47452 0.68506 0.0
C3492 C 0.48802 0.47597 0.68451 0.0
C3493 C 0.4981 0.48404 0.69732 0.0
C3494 C 0.4917 0.49071 0.7107 0.0
C3495 C 0.47521 0.48928 0.71132 0.0
H3496 H 0.51087 0.48516 0.69687 0.0
H3497 H 0.35083 0.47003 0.70325 0.0
H3498 H 0.0413 0.84548 0.20058 0.0
H3499 H 0.04854 0.87432 0.20286 0.0
H3500 H 0.01093 0.88133 0.23293 0.0
H3501 H 0.00335 0.85263 0.23031 0.0
H3502 H 0.01282 0.90362 0.21222 0.0
H3503 H 0.04921 0.88018 0.24878 0.0
H3504 H 0.06931 0.8621 0.25581 0.0
H3505 H 0.1006 0.88363 0.22507 0.0
H3506 H 0.08057 0.90171 0.2177 0.0
H3507 H 0.03494 0.97243 0.26474 0.0
H3508 H 0.02802 0.94577 0.25113 0.0
H3509 H 0.06869 0.9517 0.22445 0.0
H3510 H 0.07552 0.97877 0.23787 0.0
H3511 H 0.06694 0.92377 0.23784 0.0
H3512 H 0.03189 0.95075 0.20542 0.0
H3513 H 0.0116 0.96882 0.199 0.0
H3514 H 0.97766 0.94102 0.22237 0.0
H3515 H 0.99781 0.92291 0.22916 0.0
C3516 C 0.0344 0.8532 0.20743 0.0
C3517 C 0.02185 0.84678 0.2154 0.0
C3518 C 0.03862 0.86965 0.20881 0.0
C3519 C 0.03039 0.87994 0.21823 0.0
C3520 C 0.01746 0.8736 0.22564 0.0
C3521 C 0.01324 0.85719 0.22426 0.0
C3522 C 0.03569 0.89721 0.2212 0.0
C3523 C 0.02463 0.90806 0.21784 0.0
C3524 C 0.05128 0.90298 0.22809 0.0
C3525 C 0.06332 0.89214 0.23253 0.0
C3526 C 0.06032 0.88096 0.24342 0.0
C3527 C 0.07171 0.87074 0.24748 0.0
C3528 C 0.08621 0.87168 0.24084 0.0
C3529 C 0.08936 0.88289 0.23017 0.0
C3530 C 0.07799 0.89313 0.22605 0.0
C3531 C 0.0422 0.96826 0.25569 0.0
C3532 C 0.05566 0.97781 0.25224 0.0
C3533 C 0.03826 0.95297 0.24795 0.0
C3534 C 0.0477 0.94685 0.23659 0.0
C3535 C 0.0612 0.95627 0.23311 0.0
C3536 C 0.06512 0.97167 0.24083 0.0
C3537 C 0.0439 0.93019 0.22929 0.0
C3538 C 0.05524 0.91942 0.23185 0.0
C3539 C 0.02854 0.92451 0.22174 0.0
C3540 C 0.0164 0.93548 0.21784 0.0
C3541 C 0.02014 0.94855 0.2093 0.0
C3542 C 0.00865 0.95878 0.20556 0.0
C3543 C 0.99334 0.95603 0.21021 0.0
C3544 C 0.98951 0.94309 0.2187 0.0
C3545 C 0.00096 0.93283 0.22249 0.0
H3546 H 0.98445 0.96395 0.20729 0.0
H3547 H 0.09501 0.86375 0.24401 0.0
H3548 H 0.59493 0.12178 0.75571 0.0
H3549 H 0.57322 0.10066 0.7476 0.0
H3550 H 0.53926 0.13551 0.74833 0.0
H3551 H 0.56096 0.15666 0.75681 0.0
H3552 H 0.52782 0.11042 0.76093 0.0
H3553 H 0.55115 0.11874 0.71296 0.0
H3554 H 0.57259 0.12159 0.69537 0.0
H3555 H 0.58305 0.07374 0.70102 0.0
H3556 H 0.56182 0.07068 0.71884 0.0
H3557 H 0.46606 0.05739 0.71241 0.0
H3558 H 0.48581 0.07969 0.72322 0.0
H3559 H 0.52075 0.04685 0.73189 0.0
H3560 H 0.50101 0.02451 0.72166 0.0
H3561 H 0.53064 0.07171 0.71384 0.0
H3562 H 0.50662 0.06426 0.76239 0.0
H3563 H 0.48421 0.06201 0.77887 0.0
H3564 H 0.47379 0.10926 0.77035 0.0
H3565 H 0.49601 0.1117 0.75362 0.0
C3566 C 0.58284 0.12493 0.75405 0.0
C3567 C 0.57964 0.14086 0.75679 0.0
C3568 C 0.57044 0.11287 0.7494 0.0
C3569 C 0.55461 0.11652 0.74708 0.0
C3570 C 0.55137 0.1324 0.75002 0.0
C3571 C 0.56376 0.14447 0.75486 0.0
C3572 C 0.54149 0.10373 0.74161 0.0
C3573 C 0.52835 0.10211 0.75049 0.0
C3574 C 0.54219 0.09275 0.72807 0.0
C3575 C 0.55499 0.09454 0.71736 0.0
C3576 C 0.55811 0.10887 0.71056 0.0
C3577 C 0.57021 0.11051 0.70053 0.0
C3578 C 0.5792 0.09787 0.69711 0.0
C3579 C 0.57609 0.08353 0.70369 0.0
C3580 C 0.56401 0.08183 0.71375 0.0
C3581 C 0.47782 0.05488 0.71699 0.0
C3582 C 0.48198 0.03916 0.71605 0.0
C3583 C 0.48911 0.06764 0.72307 0.0
C3584 C 0.50474 0.06489 0.72825 0.0
C3585 C 0.50877 0.04921 0.72783 0.0
C3586 C 0.49748 0.03648 0.72193 0.0
C3587 C 0.51719 0.07833 0.73328 0.0
C3588 C 0.53015 0.08008 0.72425 0.0
C3589 C 0.51619 0.08953 0.74651 0.0
C3590 C 0.50287 0.08809 0.75661 0.0
C3591 C 0.49946 0.07411 0.76391 0.0
C3592 C 0.48681 0.07282 0.77332 0.0
C3593 C 0.47755 0.08547 0.77562 0.0
C3594 C 0.48095 0.09946 0.76854 0.0
C3595 C 0.49358 0.10081 0.7591 0.0
H3596 H 0.46776 0.08444 0.78291 0.0
H3597 H 0.58856 0.09916 0.68934 0.0
H3598 H 0.02475 0.49313 0.29522 0.0
H3599 H 0.02547 0.52211 0.2979 0.0
H3600 H 0.97861 0.51869 0.31399 0.0
H3601 H 0.97781 0.48945 0.31131 0.0
H3602 H 0.98336 0.54018 0.28983 0.0
H3603 H 0.0068 0.53069 0.34086 0.0
H3604 H 0.0246 0.51857 0.35989 0.0
H3605 H 0.06544 0.5402 0.34066 0.0
H3606 H 0.04789 0.55225 0.32134 0.0
H3607 H 0.99759 0.62566 0.3022 0.0
H3608 H 0.98987 0.5981 0.30727 0.0
H3609 H 0.03696 0.58602 0.29902 0.0
H3610 H 0.04469 0.6134 0.29411 0.0
H3611 H 0.02747 0.57299 0.32412 0.0
H3612 H 0.00426 0.57788 0.27019 0.0
H3613 H 0.98697 0.58959 0.25035 0.0
H3614 H 0.94616 0.57638 0.27448 0.0
H3615 H 0.96327 0.56476 0.29459 0.0
C3616 C 0.01455 0.49853 0.29923 0.0
C3617 C 0.00119 0.48907 0.303 0.0
C3618 C 0.01502 0.51507 0.30087 0.0
C3619 C 0.00215 0.52249 0.30626 0.0
C3620 C 0.98867 0.51313 0.30986 0.0
C3621 C 0.98826 0.4965 0.3084 0.0
C3622 C 0.003 0.54007 0.30788 0.0
C3623 C 0.99274 0.54743 0.2976 0.0
C3624 C 0.01536 0.54944 0.31791 0.0
C3625 C 0.026 0.54231 0.32958 0.0
C3626 C 0.01957 0.53277 0.34061 0.0
C3627 C 0.02963 0.52592 0.35146 0.0
C3628 C 0.04614 0.52859 0.35147 0.0
C3629 C 0.05265 0.53814 0.34064 0.0
C3630 C 0.04265 0.545 0.32975 0.0
C3631 C 0.00624 0.61707 0.30146 0.0
C3632 C 0.02173 0.62164 0.29777 0.0
C3633 C 0.00184 0.60137 0.30438 0.0
C3634 C 0.01282 0.58998 0.30342 0.0
C3635 C 0.02833 0.59462 0.29993 0.0
C3636 C 0.03274 0.61027 0.29713 0.0
C3637 C 0.00827 0.57306 0.30557 0.0
C3638 C 0.01783 0.56582 0.31661 0.0
C3639 C 0.99534 0.56382 0.29617 0.0
C3640 C 0.98506 0.57063 0.28399 0.0
C3641 C 0.99161 0.57757 0.27132 0.0
C3642 C 0.98185 0.58418 0.26002 0.0
C3643 C 0.96549 0.58378 0.26119 0.0
C3644 C 0.95885 0.57671 0.27362 0.0
C3645 C 0.96856 0.57011 0.28496 0.0
H3646 H 0.95795 0.58891 0.25243 0.0
H3647 H 0.0539 0.52328 0.35988 0.0
H3648 H 0.34566 0.62393 0.31668 0.0
H3649 H 0.37239 0.62027 0.30945 0.0
H3650 H 0.39234 0.6575 0.34604 0.0
H3651 H 0.36553 0.66157 0.35306 0.0
H3652 H 0.4068 0.65947 0.31875 0.0
H3653 H 0.39346 0.61903 0.3526 0.0
H3654 H 0.3768 0.59673 0.36137 0.0
H3655 H 0.38017 0.5685 0.31724 0.0
H3656 H 0.39668 0.59073 0.30811 0.0
H3657 H 0.4868 0.63863 0.31902 0.0
H3658 H 0.46071 0.6452 0.32629 0.0
H3659 H 0.43781 0.60593 0.29339 0.0
H3660 H 0.46387 0.59907 0.28651 0.0
H3661 H 0.4252 0.60573 0.32006 0.0
H3662 H 0.438 0.64632 0.28582 0.0
H3663 H 0.45439 0.66871 0.27685 0.0
H3664 H 0.45197 0.69664 0.32137 0.0
H3665 H 0.43573 0.67434 0.33069 0.0
C3666 C 0.3557 0.63152 0.32305 0.0
C3667 C 0.35345 0.64298 0.33552 0.0
C3668 C 0.371 0.6293 0.31899 0.0
C3669 C 0.3844 0.63844 0.32737 0.0
C3670 C 0.38218 0.65025 0.33948 0.0
C3671 C 0.36687 0.65247 0.34356 0.0
C3672 C 0.40073 0.63534 0.32373 0.0
C3673 C 0.41092 0.64778 0.31923 0.0
C3674 C 0.40602 0.62002 0.32411 0.0
C3675 C 0.39619 0.60659 0.32962 0.0
C3676 C 0.39056 0.60811 0.34472 0.0
C3677 C 0.38115 0.59548 0.34976 0.0
C3678 C 0.3774 0.58122 0.33986 0.0
C3679 C 0.38308 0.57956 0.3249 0.0
C3680 C 0.39247 0.59216 0.31979 0.0
C3681 C 0.47618 0.63148 0.31327 0.0
C3682 C 0.47732 0.61836 0.30215 0.0
C3683 C 0.46126 0.63528 0.31738 0.0
C3684 C 0.44722 0.62618 0.31027 0.0
C3685 C 0.44843 0.61314 0.29907 0.0
C3686 C 0.46331 0.60926 0.2951 0.0
C3687 C 0.43127 0.62979 0.31478 0.0
C3688 C 0.42113 0.61744 0.31955 0.0
C3689 C 0.42605 0.64518 0.3146 0.0
C3690 C 0.43579 0.6586 0.30901 0.0
C3691 C 0.44107 0.65719 0.29374 0.0
C3692 C 0.45031 0.66987 0.28859 0.0
C3693 C 0.45426 0.68407 0.29855 0.0
C3694 C 0.44893 0.68563 0.31368 0.0
C3695 C 0.43969 0.67298 0.31889 0.0
H3696 H 0.46141 0.69387 0.29454 0.0
H3697 H 0.37011 0.57146 0.34378 0.0
H3698 H 0.15243 0.34848 0.79389 0.0
H3699 H 0.12334 0.34669 0.7913 0.0
H3700 H 0.12111 0.30311 0.76013 0.0
H3701 H 0.1502 0.30473 0.76276 0.0
H3702 H 0.10212 0.32336 0.74785 0.0
H3703 H 0.11197 0.30312 0.79871 0.0
H3704 H 0.12392 0.30389 0.82649 0.0
H3705 H 0.10141 0.34588 0.83932 0.0
H3706 H 0.0895 0.34548 0.81155 0.0
H3707 H 0.02533 0.29228 0.74099 0.0
H3708 H 0.05167 0.29483 0.75585 0.0
H3709 H 0.04698 0.34398 0.77105 0.0
H3710 H 0.02033 0.34137 0.75621 0.0
H3711 H 0.06883 0.3231 0.79305 0.0
H3712 H 0.06097 0.34454 0.74167 0.0
H3713 H 0.04774 0.34279 0.71429 0.0
H3714 H 0.06638 0.2982 0.70294 0.0
H3715 H 0.07952 0.29959 0.73039 0.0
C3716 C 0.14576 0.33838 0.78667 0.0
C3717 C 0.15368 0.32673 0.77853 0.0
C3718 C 0.12911 0.33739 0.7852 0.0
C3719 C 0.12003 0.3247 0.77562 0.0
C3720 C 0.12788 0.31302 0.76757 0.0
C3721 C 0.14452 0.314 0.76902 0.0
C3722 C 0.10236 0.32393 0.77337 0.0
C3723 C 0.09492 0.32323 0.75778 0.0
C3724 C 0.09288 0.32415 0.78631 0.0
C3725 C 0.09998 0.32436 0.80302 0.0
C3726 C 0.10968 0.31259 0.80743 0.0
C3727 C 0.11642 0.31295 0.82318 0.0
C3728 C 0.11346 0.32495 0.83465 0.0
C3729 C 0.10371 0.3366 0.83041 0.0
C3730 C 0.09695 0.33631 0.81467 0.0
C3731 C 0.02954 0.30336 0.74824 0.0
C3732 C 0.0209 0.31662 0.74752 0.0
C3733 C 0.04459 0.30481 0.75672 0.0
C3734 C 0.0513 0.31963 0.76438 0.0
C3735 C 0.04191 0.33242 0.7653 0.0
C3736 C 0.02669 0.33092 0.75688 0.0
C3737 C 0.06885 0.32244 0.76763 0.0
C3738 C 0.07618 0.32347 0.78326 0.0
C3739 C 0.07835 0.32265 0.75478 0.0
C3740 C 0.07111 0.32211 0.73809 0.0
C3741 C 0.06218 0.33433 0.73335 0.0
C3742 C 0.05469 0.3334 0.71783 0.0
C3743 C 0.05616 0.32036 0.70688 0.0
C3744 C 0.06523 0.30828 0.71143 0.0
C3745 C 0.07272 0.30914 0.72696 0.0
H3746 H 0.05032 0.31965 0.69488 0.0
H3747 H 0.11869 0.3252 0.84684 0.0
H3748 H 0.75605 0.97291 0.63129 0.0
H3749 H 0.78368 0.97174 0.64191 0.0
H3750 H 0.77193 0.98592 0.68926 0.0
H3751 H 0.74436 0.98764 0.67864 0.0
H3752 H 0.79913 0.00219 0.68318 0.0
H3753 H 0.77713 0.9472 0.6774 0.0
H3754 H 0.76321 0.92246 0.66286 0.0
H3755 H 0.79897 0.92167 0.6302 0.0
H3756 H 0.81299 0.94654 0.64442 0.0
H3757 H 0.86572 0.98255 0.73007 0.0
H3758 H 0.83872 0.98273 0.71716 0.0
H3759 H 0.85494 0.9695 0.67148 0.0
H3760 H 0.88206 0.96915 0.68443 0.0
H3761 H 0.82621 0.95309 0.67509 0.0
H3762 H 0.84878 0.00734 0.68129 0.0
H3763 H 0.8628 0.03213 0.6956 0.0
H3764 H 0.82606 0.03451 0.72706 0.0
H3765 H 0.81192 0.00959 0.71307 0.0
C3766 C 0.75936 0.97591 0.64395 0.0
C3767 C 0.74798 0.98038 0.65412 0.0
C3768 C 0.77513 0.97507 0.65002 0.0
C3769 C 0.77984 0.97858 0.6664 0.0
C3770 C 0.76855 0.98312 0.67658 0.0
C3771 C 0.75277 0.98396 0.67052 0.0
C3772 C 0.79659 0.97774 0.67293 0.0
C3773 C 0.80498 0.99139 0.68158 0.0
C3774 C 0.8044 0.96381 0.67039 0.0
C3775 C 0.79602 0.94882 0.66188 0.0
C3776 C 0.78196 0.94182 0.66704 0.0
C3777 C 0.77406 0.92776 0.65887 0.0
C3778 C 0.78018 0.92052 0.64559 0.0
C3779 C 0.79423 0.9273 0.64048 0.0
C3780 C 0.80216 0.94137 0.64859 0.0
C3781 C 0.8635 0.97958 0.71728 0.0
C3782 C 0.87595 0.9759 0.70824 0.0
C3783 C 0.8481 0.97976 0.70992 0.0
C3784 C 0.84487 0.97638 0.69333 0.0
C3785 C 0.8572 0.97221 0.68429 0.0
C3786 C 0.87268 0.97203 0.69169 0.0
C3787 C 0.82863 0.97745 0.68555 0.0
C3788 C 0.82036 0.96389 0.67663 0.0
C3789 C 0.82093 0.99148 0.68779 0.0
C3790 C 0.82936 0.00651 0.69621 0.0
C3791 C 0.84375 0.01308 0.69134 0.0
C3792 C 0.85171 0.02717 0.69938 0.0
C3793 C 0.84534 0.03487 0.71226 0.0
C3794 C 0.83098 0.02852 0.71709 0.0
C3795 C 0.82298 0.01442 0.7091 0.0
H3796 H 0.85152 0.04578 0.71847 0.0
H3797 H 0.77405 0.90964 0.63928 0.0
H3798 H 0.73805 0.99391 0.29604 0.0
H3799 H 0.71055 0.98693 0.30081 0.0
H3800 H 0.69711 0.02935 0.28082 0.0
H3801 H 0.72485 0.03671 0.27671 0.0
H3802 H 0.68298 0.02785 0.30429 0.0
H3803 H 0.6887 0.987 0.26253 0.0
H3804 H 0.70053 0.96456 0.24911 0.0
H3805 H 0.69124 0.9365 0.28749 0.0
H3806 H 0.67946 0.95878 0.30116 0.0
H3807 H 0.59971 0.98003 0.29083 0.0
H3808 H 0.62698 0.98466 0.28381 0.0
H3809 H 0.6431 0.00227 0.33267 0.0
H3810 H 0.61575 0.99805 0.33966 0.0
H3811 H 0.65465 0.97346 0.29333 0.0
H3812 H 0.66903 0.02993 0.33515 0.0
H3813 H 0.65604 0.05261 0.34656 0.0
H3814 H 0.62305 0.04882 0.30434 0.0
H3815 H 0.6361 0.0263 0.29261 0.0
C3816 C 0.72924 0.00181 0.29278 0.0
C3817 C 0.73364 0.01591 0.28609 0.0
C3818 C 0.7134 0.99769 0.2953 0.0
C3819 C 0.70152 0.00749 0.29108 0.0
C3820 C 0.70594 0.02154 0.28426 0.0
C3821 C 0.72181 0.02571 0.28181 0.0
C3822 C 0.68473 0.00365 0.29459 0.0
C3823 C 0.67694 0.0159 0.30186 0.0
C3824 C 0.67647 0.98812 0.29133 0.0
C3825 C 0.6834 0.97466 0.28298 0.0
C3826 C 0.68927 0.97608 0.26815 0.0
C3827 C 0.69595 0.96337 0.26048 0.0
C3828 C 0.69669 0.94913 0.26746 0.0
C3829 C 0.69069 0.94754 0.28209 0.0
C3830 C 0.684 0.9602 0.2898 0.0
C3831 C 0.60906 0.98486 0.30008 0.0
C3832 C 0.60563 0.98879 0.3158 0.0
C3833 C 0.62465 0.98745 0.29606 0.0
C3834 C 0.63704 0.99399 0.30766 0.0
C3835 C 0.63368 0.9975 0.32345 0.0
C3836 C 0.61809 0.99503 0.32745 0.0
C3837 C 0.65339 0.99757 0.30317 0.0
C3838 C 0.66096 0.98532 0.29577 0.0
C3839 C 0.66143 0.01307 0.30608 0.0
C3840 C 0.65366 0.02664 0.31297 0.0
C3841 C 0.6592 0.03415 0.32822 0.0
C3842 C 0.65177 0.04689 0.33477 0.0
C3843 C 0.63876 0.05219 0.32615 0.0
C3844 C 0.63315 0.04473 0.31098 0.0
C3845 C 0.64056 0.03199 0.30438 0.0
H3846 H 0.633 0.06205 0.33125 0.0
H3847 H 0.70187 0.93932 0.26151 0.0
H3848 H 0.37244 0.36862 0.64552 0.0
H3849 H 0.36508 0.39497 0.64098 0.0
H3850 H 0.32334 0.38657 0.66563 0.0
H3851 H 0.33067 0.36004 0.67029 0.0
H3852 H 0.31591 0.3994 0.63901 0.0
H3853 H 0.35554 0.41305 0.68327 0.0
H3854 H 0.38153 0.41222 0.69877 0.0
H3855 H 0.40541 0.4315 0.66127 0.0
H3856 H 0.37961 0.43243 0.64561 0.0
H3857 H 0.30093 0.48127 0.63724 0.0
H3858 H 0.30693 0.456 0.64714 0.0
H3859 H 0.34753 0.45542 0.62009 0.0
H3860 H 0.34155 0.48062 0.61012 0.0
H3861 H 0.3544 0.44787 0.65093 0.0
H3862 H 0.31413 0.43268 0.60646 0.0
H3863 H 0.28792 0.43302 0.59123 0.0
H3864 H 0.26463 0.41651 0.63037 0.0
H3865 H 0.29073 0.41629 0.64592 0.0
C3866 C 0.36187 0.37242 0.65032 0.0
C3867 C 0.35232 0.3622 0.65857 0.0
C3868 C 0.35764 0.38755 0.64766 0.0
C3869 C 0.34382 0.39293 0.65324 0.0
C3870 C 0.33413 0.38274 0.66131 0.0
C3871 C 0.33834 0.36755 0.66395 0.0
C3872 C 0.33924 0.40894 0.65001 0.0
C3873 C 0.3242 0.41005 0.64195 0.0
C3874 C 0.3501 0.42285 0.65364 0.0
C3875 C 0.36565 0.42269 0.66322 0.0
C3876 C 0.36635 0.41707 0.67834 0.0
C3877 C 0.38106 0.41662 0.68718 0.0
C3878 C 0.39515 0.42179 0.68103 0.0
C3879 C 0.39454 0.42753 0.66607 0.0
C3880 C 0.37986 0.42807 0.65723 0.0
C3881 C 0.31116 0.47578 0.63345 0.0
C3882 C 0.3208 0.48289 0.6229 0.0
C3883 C 0.31454 0.46132 0.63907 0.0
C3884 C 0.32764 0.45379 0.63429 0.0
C3885 C 0.33739 0.46103 0.62395 0.0
C3886 C 0.33393 0.47538 0.61823 0.0
C3887 C 0.33115 0.43827 0.63984 0.0
C3888 C 0.34601 0.43726 0.6483 0.0
C3889 C 0.32004 0.42451 0.63675 0.0
C3890 C 0.30437 0.42466 0.62742 0.0
C3891 C 0.30341 0.42927 0.61188 0.0
C3892 C 0.28858 0.42941 0.60317 0.0
C3893 C 0.27462 0.42484 0.60985 0.0
C3894 C 0.27546 0.42008 0.62523 0.0
C3895 C 0.29027 0.41994 0.63399 0.0
H3896 H 0.26314 0.42495 0.60309 0.0
H3897 H 0.40653 0.42137 0.68785 0.0
H3898 H 0.30132 0.74508 0.98692 0.0
H3899 H 0.30566 0.71692 0.98218 0.0
H3900 H 0.26369 0.70374 0.00502 0.0
H3901 H 0.25912 0.73176 0.00944 0.0
H3902 H 0.28798 0.68884 0.01583 0.0
H3903 H 0.26338 0.69907 0.96706 0.0
H3904 H 0.25754 0.71135 0.94233 0.0
H3905 H 0.29959 0.6952 0.92452 0.0
H3906 H 0.30588 0.68303 0.94925 0.0
H3907 H 0.2839 0.60576 0.99164 0.0
H3908 H 0.27718 0.63325 0.99306 0.0
H3909 H 0.3234 0.64877 0.9794 0.0
H3910 H 0.33038 0.62119 0.97828 0.0
H3911 H 0.29487 0.66144 0.96298 0.0
H3912 H 0.31999 0.65395 0.01481 0.0
H3913 H 0.32362 0.64118 0.03963 0.0
H3914 H 0.27673 0.65079 0.0503 0.0
H3915 H 0.27267 0.66335 0.02535 0.0
C3916 C 0.29309 0.73616 0.99099 0.0
C3917 C 0.27991 0.74061 0.99859 0.0
C3918 C 0.29551 0.72008 0.98818 0.0
C3919 C 0.28494 0.70821 0.99317 0.0
C3920 C 0.27196 0.71268 0.00102 0.0
C3921 C 0.26937 0.72869 0.00355 0.0
C3922 C 0.28769 0.69117 0.99073 0.0
C3923 C 0.28935 0.68285 0.00423 0.0
C3924 C 0.2893 0.68331 0.97551 0.0
C3925 C 0.28555 0.69069 0.96048 0.0
C3926 C 0.27167 0.69847 0.95811 0.0
C3927 C 0.26818 0.70532 0.94399 0.0
C3928 C 0.27831 0.70426 0.93195 0.0
C3929 C 0.29187 0.69621 0.93394 0.0
C3930 C 0.29542 0.68937 0.94806 0.0
C3931 C 0.29262 0.61499 0.98885 0.0
C3932 C 0.30768 0.61139 0.98485 0.0
C3933 C 0.28875 0.63067 0.98966 0.0
C3934 C 0.29979 0.64296 0.98632 0.0
C3935 C 0.31472 0.63938 0.98195 0.0
C3936 C 0.31871 0.6237 0.98141 0.0
C3937 C 0.29597 0.65965 0.98815 0.0
C3938 C 0.29373 0.66769 0.97452 0.0
C3939 C 0.29359 0.66724 0.00318 0.0
C3940 C 0.29592 0.65938 0.01804 0.0
C3941 C 0.31033 0.65311 0.02229 0.0
C3942 C 0.3125 0.64597 0.03643 0.0
C3943 C 0.30039 0.64511 0.04651 0.0
C3944 C 0.28609 0.65142 0.04246 0.0
C3945 C 0.28384 0.65855 0.02832 0.0
H3946 H 0.30211 0.63961 0.05747 0.0
H3947 H 0.27556 0.70953 0.921 0.0
H3948 H 0.78882 0.14578 0.31108 0.0
H3949 H 0.7813 0.11724 0.3123 0.0
H3950 H 0.73288 0.12675 0.31754 0.0
H3951 H 0.74028 0.1551 0.31653 0.0
H3952 H 0.74604 0.10976 0.34109 0.0
H3953 H 0.74261 0.10946 0.28357 0.0
H3954 H 0.75306 0.11311 0.25784 0.0
H3955 H 0.78667 0.07932 0.26675 0.0
H3956 H 0.77663 0.07568 0.29269 0.0
H3957 H 0.69467 0.04153 0.33161 0.0
H3958 H 0.70924 0.06629 0.32653 0.0
H3959 H 0.75138 0.04222 0.32147 0.0
H3960 H 0.73651 0.017 0.32626 0.0
H3961 H 0.74697 0.06485 0.29926 0.0
H3962 H 0.74975 0.06335 0.3553 0.0
H3963 H 0.73956 0.05887 0.38099 0.0
H3964 H 0.70852 0.09559 0.37535 0.0
H3965 H 0.71834 0.10013 0.3495 0.0
C3966 C 0.77655 0.14174 0.31236 0.0
C3967 C 0.76514 0.15272 0.31371 0.0
C3968 C 0.77226 0.12544 0.31295 0.0
C3969 C 0.75653 0.11989 0.31499 0.0
C3970 C 0.74508 0.13078 0.31593 0.0
C3971 C 0.74931 0.14698 0.31523 0.0
C3972 C 0.752 0.10302 0.31742 0.0
C3973 C 0.74619 0.09997 0.3319 0.0
C3974 C 0.7529 0.09014 0.30572 0.0
C3975 C 0.75906 0.09252 0.29022 0.0
C3976 C 0.75239 0.10298 0.28016 0.0
C3977 C 0.7582 0.10501 0.26551 0.0
C3978 C 0.77058 0.09652 0.2607 0.0
C3979 C 0.77713 0.08594 0.27052 0.0
C3980 C 0.77139 0.0839 0.2852 0.0
C3981 C 0.70696 0.04141 0.32921 0.0
C3982 C 0.71441 0.02734 0.32925 0.0
C3983 C 0.71531 0.0556 0.32636 0.0
C3984 C 0.73146 0.05616 0.32386 0.0
C3985 C 0.73892 0.04203 0.32342 0.0
C3986 C 0.73044 0.02768 0.32618 0.0
C3987 C 0.74041 0.07182 0.32265 0.0
C3988 C 0.74711 0.07463 0.30852 0.0
C3989 C 0.74055 0.08454 0.33475 0.0
C3990 C 0.73474 0.08203 0.35041 0.0
C3991 C 0.74069 0.07041 0.35949 0.0
C3992 C 0.73498 0.06787 0.37409 0.0
C3993 C 0.72339 0.07693 0.37979 0.0
C3994 C 0.7175 0.08859 0.37092 0.0
C3995 C 0.72315 0.09117 0.3563 0.0
H3996 H 0.71898 0.07494 0.39109 0.0
H3997 H 0.77504 0.09808 0.24934 0.0
H3998 H 0.63672 0.75973 0.99343 0.0
H3999 H 0.64893 0.7869 0.99285 0.0
H4000 H 0.68928 0.76877 0.97271 0.0
H4001 H 0.67693 0.74151 0.97265 0.0
H4002 H 0.69717 0.79335 0.99859 0.0
H4003 H 0.66316 0.78255 0.94883 0.0
H4004 H 0.6376 0.77433 0.93241 0.0
H4005 H 0.61638 0.81231 0.95687 0.0
H4006 H 0.64177 0.82062 0.9736 0.0
H4007 H 0.73466 0.86363 0.9755 0.0
H4008 H 0.72159 0.83663 0.9753 0.0
H4009 H 0.67792 0.85586 0.98577 0.0
H4010 H 0.69082 0.8829 0.98531 0.0
H4011 H 0.67111 0.83072 0.96543 0.0
H4012 H 0.70353 0.84209 0.01504 0.0
H4013 H 0.72804 0.85064 0.03305 0.0
H4014 H 0.75093 0.81229 0.01141 0.0
H4015 H 0.72662 0.80364 0.99311 0.0
C4016 C 0.64811 0.76146 0.98869 0.0
C4017 C 0.65576 0.74836 0.98297 0.0
C4018 C 0.6551 0.77702 0.98847 0.0
C4019 C 0.66993 0.77981 0.98263 0.0
C4020 C 0.67782 0.76683 0.97729 0.0
C4021 C 0.67077 0.75125 0.97735 0.0
C4022 C 0.67714 0.7963 0.98195 0.0
C4023 C 0.69161 0.80149 0.99119 0.0
C4024 C 0.66955 0.80702 0.97272 0.0
C4025 C 0.65432 0.80211 0.96257 0.0
C4026 C 0.65301 0.78907 0.9508 0.0
C4027 C 0.63856 0.78441 0.94142 0.0
C4028 C 0.62536 0.79277 0.94362 0.0
C4029 C 0.62661 0.80583 0.95518 0.0
C4030 C 0.64103 0.81053 0.96461 0.0
C4031 C 0.72222 0.86205 0.9776 0.0
C4032 C 0.71375 0.8753 0.98044 0.0
C4033 C 0.7148 0.84665 0.97761 0.0
C4034 C 0.69886 0.8442 0.98088 0.0
C4035 C 0.69024 0.85744 0.98328 0.0
C4036 C 0.69761 0.87288 0.98302 0.0
C4037 C 0.6913 0.82784 0.98199 0.0
C4038 C 0.67673 0.82265 0.97286 0.0
C4039 C 0.69866 0.8172 0.99157 0.0
C4040 C 0.71329 0.82231 0.0026 0.0
C4041 C 0.71383 0.83555 0.01404 0.0
C4042 C 0.72768 0.8404 0.02432 0.0
C4043 C 0.74105 0.83203 0.02335 0.0
C4044 C 0.74057 0.81877 0.01213 0.0
C4045 C 0.72675 0.81388 0.00181 0.0
H4046 H 0.75176 0.83581 0.03132 0.0
H4047 H 0.61419 0.78914 0.93635 0.0
H4048 H 0.66554 0.32799 0.35869 0.0
H4049 H 0.66218 0.32299 0.38625 0.0
H4050 H 0.63967 0.36637 0.39303 0.0
H4051 H 0.64339 0.37158 0.36568 0.0
H4052 H 0.65853 0.36387 0.4184 0.0
H4053 H 0.61818 0.3282 0.38579 0.0
H4054 H 0.60788 0.30693 0.36441 0.0
H4055 H 0.63595 0.27416 0.38701 0.0
H4056 H 0.64657 0.29529 0.40843 0.0
H4057 H 0.61591 0.348 0.48471 0.0
H4058 H 0.62352 0.35292 0.45828 0.0
H4059 H 0.64993 0.31183 0.45751 0.0
H4060 H 0.64232 0.30685 0.48392 0.0
H4061 H 0.63099 0.31251 0.42965 0.0
H4062 H 0.66834 0.34866 0.4645 0.0
H4063 H 0.67695 0.37027 0.48589 0.0
H4064 H 0.65351 0.40323 0.45875 0.0
H4065 H 0.64411 0.38162 0.43746 0.0
C4066 C 0.65989 0.33644 0.3661 0.0
C4067 C 0.65468 0.35014 0.36003 0.0
C4068 C 0.65793 0.33356 0.38183 0.0
C4069 C 0.65043 0.34416 0.3917 0.0
C4070 C 0.64551 0.35801 0.38571 0.0
C4071 C 0.64765 0.36099 0.37006 0.0
C4072 C 0.64744 0.34081 0.40817 0.0
C4073 C 0.65234 0.35271 0.42083 0.0
C4074 C 0.63971 0.3261 0.41145 0.0
C4075 C 0.6333 0.31337 0.39861 0.0
C4076 C 0.62224 0.31648 0.38614 0.0
C4077 C 0.61633 0.30445 0.37402 0.0
C4078 C 0.62129 0.28922 0.37433 0.0
C4079 C 0.63214 0.28597 0.38677 0.0
C4080 C 0.6381 0.29797 0.39891 0.0
C4081 C 0.6234 0.34007 0.47891 0.0
C4082 C 0.62856 0.3271 0.48639 0.0
C4083 C 0.62778 0.34292 0.46385 0.0
C4084 C 0.63743 0.33283 0.45597 0.0
C4085 C 0.64252 0.31979 0.46339 0.0
C4086 C 0.6382 0.31699 0.4785 0.0
C4087 C 0.64185 0.33567 0.43983 0.0
C4088 C 0.63724 0.32366 0.42724 0.0
C4089 C 0.64966 0.35037 0.43661 0.0
C4090 C 0.65531 0.36341 0.44945 0.0
C4091 C 0.66479 0.36045 0.46318 0.0
C4092 C 0.66979 0.37272 0.47532 0.0
C4093 C 0.66573 0.38813 0.47372 0.0
C4094 C 0.6566 0.39127 0.46 0.0
C4095 C 0.65136 0.37899 0.44792 0.0
H4096 H 0.66971 0.39766 0.48305 0.0
H4097 H 0.6167 0.27992 0.36494 0.0
H4098 H 0.00387 0.28239 0.71845 0.0
H4099 H 0.9977 0.2952 0.69409 0.0
H4100 H 0.95025 0.29994 0.70679 0.0
H4101 H 0.95695 0.28904 0.73204 0.0
H4102 H 0.95351 0.28686 0.67553 0.0
H4103 H 0.97535 0.36179 0.72114 0.0
H4104 H 0.00281 0.38177 0.72616 0.0
H4105 H 0.0314 0.35369 0.68827 0.0
H4106 H 0.00985 0.3291 0.67679 0.0
H4107 H 0.93531 0.32732 0.60744 0.0
H4108 H 0.93787 0.3222 0.6355 0.0
H4109 H 0.98873 0.32246 0.63486 0.0
H4110 H 0.98627 0.328 0.60696 0.0
H4111 H 0.98119 0.33725 0.6624 0.0
H4112 H 0.96345 0.28676 0.62992 0.0
H4113 H 0.94468 0.26955 0.61003 0.0
H4114 H 0.90634 0.27753 0.63855 0.0
H4115 H 0.9249 0.29488 0.65855 0.0
C4116 C 0.99215 0.28627 0.71609 0.0
C4117 C 0.9812 0.28558 0.72755 0.0
C4118 C 0.98874 0.29379 0.7023 0.0
C4119 C 0.97397 0.2997 0.69935 0.0
C4120 C 0.96212 0.29648 0.70946 0.0
C4121 C 0.96588 0.29009 0.72376 0.0
C4122 C 0.97008 0.30728 0.68465 0.0
C4123 C 0.95931 0.29815 0.67291 0.0
C4124 C 0.9773 0.32238 0.68136 0.0
C4125 C 0.98827 0.33466 0.69297 0.0
C4126 C 0.98535 0.35843 0.71472 0.0
C4127 C 0.00228 0.37131 0.71771 0.0
C4128 C 0.01819 0.36834 0.70752 0.0
C4129 C 0.02017 0.35316 0.69338 0.0
C4130 C 0.00679 0.33738 0.68626 0.0
C4131 C 0.94705 0.32644 0.61336 0.0
C4132 C 0.96056 0.32793 0.605 0.0
C4133 C 0.94849 0.32345 0.62936 0.0
C4134 C 0.96346 0.32163 0.6372 0.0
C4135 C 0.97705 0.32375 0.62903 0.0
C4136 C 0.97563 0.32687 0.61307 0.0
C4137 C 0.96495 0.31677 0.65363 0.0
C4138 C 0.97511 0.32632 0.66553 0.0
C4139 C 0.95657 0.30274 0.65754 0.0
C4140 C 0.94551 0.29215 0.64565 0.0
C4141 C 0.95101 0.28486 0.63191 0.0
C4142 C 0.94042 0.27509 0.62063 0.0
C4143 C 0.92433 0.27246 0.62302 0.0
C4144 C 0.91881 0.27956 0.63672 0.0
C4145 C 0.92935 0.28934 0.64804 0.0
H4146 H 0.91615 0.2649 0.61427 0.0
H4147 H 0.02832 0.37726 0.71024 0.0
H4148 H 0.29723 0.73528 0.15745 0.0
H4149 H 0.29692 0.72731 0.12897 0.0
H4150 H 0.32398 0.77168 0.12332 0.0
H4151 H 0.32504 0.77954 0.15197 0.0
H4152 H 0.29598 0.75803 0.09728 0.0
H4153 H 0.34552 0.74656 0.12566 0.0
H4154 H 0.36105 0.73585 0.14755 0.0
H4155 H 0.33608 0.68939 0.13387 0.0
H4156 H 0.32021 0.69992 0.11205 0.0
H4157 H 0.32423 0.72891 0.02291 0.0
H4158 H 0.31943 0.74281 0.0485 0.0
H4159 H 0.30914 0.69748 0.06671 0.0
H4160 H 0.31477 0.68378 0.04166 0.0
H4161 H 0.32983 0.71443 0.08636 0.0
H4162 H 0.27956 0.72426 0.05959 0.0
H4163 H 0.26145 0.7337 0.03886 0.0
H4164 H 0.28546 0.781 0.04901 0.0
H4165 H 0.30363 0.77184 0.06999 0.0
C4166 C 0.30312 0.7434 0.15021 0.0
C4167 C 0.31138 0.75796 0.15713 0.0
C4168 C 0.30275 0.73889 0.13389 0.0
C4169 C 0.31043 0.74891 0.1241 0.0
C4170 C 0.31786 0.76386 0.1307 0.0
C4171 C 0.31843 0.76831 0.14709 0.0
C4172 C 0.31228 0.74286 0.10749 0.0
C4173 C 0.30354 0.74866 0.09478 0.0
C4174 C 0.3219 0.73045 0.10436 0.0
C4175 C 0.33158 0.72406 0.11733 0.0
C4176 C 0.34325 0.7341 0.12741 0.0
C4177 C 0.35213 0.72805 0.13979 0.0
C4178 C 0.34953 0.71196 0.14213 0.0
C4179 C 0.33807 0.70186 0.13206 0.0
C4180 C 0.32914 0.70786 0.11968 0.0
C4181 C 0.32072 0.72198 0.03234 0.0
C4182 C 0.32 0.70528 0.03042 0.0
C4183 C 0.31788 0.72991 0.04693 0.0
C4184 C 0.31398 0.72121 0.05962 0.0
C4185 C 0.31231 0.7045 0.05722 0.0
C4186 C 0.31543 0.69665 0.04285 0.0
C4187 C 0.31316 0.7292 0.07589 0.0
C4188 C 0.32226 0.72384 0.08866 0.0
C4189 C 0.30369 0.74183 0.07899 0.0
C4190 C 0.29302 0.74734 0.06624 0.0
C4191 C 0.28105 0.73665 0.05732 0.0
C4192 C 0.27075 0.74196 0.04556 0.0
C4193 C 0.27234 0.75793 0.04257 0.0
C4194 C 0.28424 0.76863 0.05135 0.0
C4195 C 0.2945 0.7634 0.06323 0.0
H4196 H 0.2643 0.76203 0.03352 0.0
H4197 H 0.35641 0.7073 0.15171 0.0
H4198 H 0.97488 0.66141 0.74331 0.0
H4199 H 0.97349 0.67291 0.7706 0.0
H4200 H 0.99302 0.63218 0.78858 0.0
H4201 H 0.99496 0.62076 0.76132 0.0
H4202 H 0.96629 0.64105 0.80336 0.0
H4203 H 0.01646 0.66526 0.79058 0.0
H4204 H 0.03422 0.68002 0.77437 0.0
H4205 H 0.0076 0.72048 0.77992 0.0
H4206 H 0.98953 0.70587 0.79599 0.0
H4207 H 0.98327 0.67438 0.88444 0.0
H4208 H 0.98393 0.66136 0.85752 0.0
H4209 H 0.97206 0.70439 0.83781 0.0
H4210 H 0.97194 0.71759 0.86475 0.0
H4211 H 0.99528 0.69364 0.82389 0.0
H4212 H 0.9448 0.67003 0.83603 0.0
H4213 H 0.92624 0.65556 0.85169 0.0
H4214 H 0.95216 0.61453 0.84687 0.0
H4215 H 0.97101 0.62884 0.83134 0.0
C4216 C 0.97911 0.65497 0.75303 0.0
C4217 C 0.98512 0.64017 0.75005 0.0
C4218 C 0.9782 0.66153 0.76863 0.0
C4219 C 0.98322 0.65343 0.7816 0.0
C4220 C 0.98903 0.63858 0.77872 0.0
C4221 C 0.99007 0.63206 0.76311 0.0
C4222 C 0.98248 0.66054 0.79814 0.0
C4223 C 0.97279 0.65245 0.80797 0.0
C4224 C 0.99065 0.67558 0.80396 0.0
C4225 C 0.00155 0.68441 0.79436 0.0
C4226 C 0.01431 0.67726 0.78823 0.0
C4227 C 0.02445 0.68561 0.77909 0.0
C4228 C 0.02202 0.70116 0.77608 0.0
C4229 C 0.00946 0.70842 0.78225 0.0
C4230 C 0.99927 0.70012 0.79138 0.0
C4231 C 0.98063 0.68099 0.87435 0.0
C4232 C 0.97749 0.69698 0.87663 0.0
C4233 C 0.98096 0.67352 0.85895 0.0
C4234 C 0.9779 0.68183 0.84558 0.0
C4235 C 0.97449 0.69773 0.84791 0.0
C4236 C 0.97434 0.70523 0.86328 0.0
C4237 C 0.97893 0.67426 0.82918 0.0
C4238 C 0.98874 0.68225 0.81936 0.0
C4239 C 0.97073 0.6592 0.82334 0.0
C4240 C 0.95941 0.65057 0.83266 0.0
C4241 C 0.94662 0.65797 0.83842 0.0
C4242 C 0.93603 0.64979 0.84725 0.0
C4243 C 0.93805 0.63416 0.85031 0.0
C4244 C 0.95063 0.62665 0.84451 0.0
C4245 C 0.96126 0.63478 0.83568 0.0
H4246 H 0.92983 0.62784 0.85715 0.0
H4247 H 0.02988 0.70761 0.76901 0.0
H4248 H 0.63608 0.35879 0.63103 0.0
H4249 H 0.6083 0.36169 0.63484 0.0
H4250 H 0.61492 0.34435 0.68094 0.0
H4251 H 0.64299 0.34186 0.6775 0.0
H4252 H 0.58486 0.33209 0.66124 0.0
H4253 H 0.61656 0.3817 0.68134 0.0
H4254 H 0.63639 0.40445 0.67928 0.0
H4255 H 0.60767 0.41757 0.63906 0.0
H4256 H 0.58779 0.39473 0.64073 0.0
H4257 H 0.51484 0.35977 0.69032 0.0
H4258 H 0.54179 0.35285 0.68688 0.0
H4259 H 0.54379 0.38191 0.64779 0.0
H4260 H 0.51705 0.38905 0.65143 0.0
H4261 H 0.57 0.38744 0.66472 0.0
H4262 H 0.53823 0.33908 0.64366 0.0
H4263 H 0.51835 0.31592 0.64359 0.0
H4264 H 0.54634 0.29962 0.68253 0.0
H4265 H 0.56626 0.3229 0.68303 0.0
C4266 C 0.63171 0.35562 0.64203 0.0
C4267 C 0.64193 0.35033 0.65407 0.0
C4268 C 0.61577 0.35717 0.64411 0.0
C4269 C 0.60961 0.35337 0.65822 0.0
C4270 C 0.61946 0.34732 0.66995 0.0
C4271 C 0.6355 0.34587 0.66793 0.0
C4272 C 0.59322 0.35682 0.66111 0.0
C4273 C 0.58158 0.34419 0.66222 0.0
C4274 C 0.58892 0.37257 0.66194 0.0
C4275 C 0.60076 0.38643 0.66107 0.0
C4276 C 0.61454 0.38937 0.67198 0.0
C4277 C 0.62577 0.40228 0.6709 0.0
C4278 C 0.62331 0.41243 0.65903 0.0
C4279 C 0.60957 0.40969 0.64824 0.0
C4280 C 0.59831 0.39677 0.64926 0.0
C4281 C 0.52099 0.36455 0.68091 0.0
C4282 C 0.51383 0.37489 0.67106 0.0
C4283 C 0.53639 0.36052 0.67888 0.0
C4284 C 0.5448 0.36657 0.66684 0.0
C4285 C 0.53758 0.37693 0.65707 0.0
C4286 C 0.52227 0.38101 0.65914 0.0
C4287 C 0.56133 0.36268 0.6647 0.0
C4288 C 0.5731 0.37529 0.66376 0.0
C4289 C 0.56562 0.34686 0.66374 0.0
C4290 C 0.55366 0.33284 0.66348 0.0
C4291 C 0.54009 0.33064 0.65228 0.0
C4292 C 0.52882 0.31747 0.65214 0.0
C4293 C 0.53107 0.30631 0.66305 0.0
C4294 C 0.54461 0.30829 0.6741 0.0
C4295 C 0.55589 0.32148 0.67432 0.0
H4296 H 0.52234 0.29611 0.66292 0.0
H4297 H 0.63202 0.42242 0.6582 0.0
H4298 H 0.8523 0.66249 0.21517 0.0
H4299 H 0.88123 0.66287 0.21866 0.0
H4300 H 0.88257 0.68738 0.26576 0.0
H4301 H 0.85345 0.68661 0.26263 0.0
H4302 H 0.90701 0.69937 0.24634 0.0
H4303 H 0.88522 0.65025 0.26424 0.0
H4304 H 0.8675 0.62514 0.26154 0.0
H4305 H 0.88892 0.60847 0.22001 0.0
H4306 H 0.90661 0.6336 0.22232 0.0
H4307 H 0.98529 0.68229 0.2746 0.0
H4308 H 0.95743 0.68745 0.27019 0.0
H4309 H 0.95112 0.65377 0.22803 0.0
H4310 H 0.97908 0.64872 0.2325 0.0
H4311 H 0.9289 0.64709 0.2459 0.0
H4312 H 0.94914 0.69481 0.22572 0.0
H4313 H 0.96521 0.72039 0.22483 0.0
H4314 H 0.9469 0.73965 0.26728 0.0
H4315 H 0.93057 0.71415 0.26834 0.0
C4316 C 0.85868 0.66789 0.22634 0.0
C4317 C 0.85047 0.67429 0.23872 0.0
C4318 C 0.87524 0.6682 0.22824 0.0
C4319 C 0.88399 0.67501 0.24252 0.0
C4320 C 0.87599 0.68208 0.25465 0.0
C4321 C 0.85936 0.68166 0.25281 0.0
C4322 C 0.90139 0.67396 0.24495 0.0
C4323 C 0.91185 0.68798 0.24651 0.0
C4324 C 0.90763 0.65906 0.24467 0.0
C4325 C 0.89714 0.64387 0.24338 0.0
C4326 C 0.88607 0.64128 0.25447 0.0
C4327 C 0.87604 0.62704 0.25301 0.0
C4328 C 0.87706 0.61523 0.24059 0.0
C4329 C 0.88814 0.61763 0.22962 0.0
C4330 C 0.89817 0.63187 0.231 0.0
C4331 C 0.9781 0.67644 0.26412 0.0
C4332 C 0.98436 0.66529 0.2538 0.0
C4333 C 0.96212 0.67932 0.26162 0.0
C4334 C 0.95212 0.67104 0.24872 0.0
C4335 C 0.95856 0.66026 0.2381 0.0
C4336 C 0.97453 0.65741 0.24063 0.0
C4337 C 0.93471 0.67253 0.24706 0.0
C4338 C 0.92417 0.65854 0.24577 0.0
C4339 C 0.92844 0.68744 0.24732 0.0
C4340 C 0.93875 0.70254 0.24719 0.0
C4341 C 0.94867 0.70444 0.23497 0.0
C4342 C 0.95778 0.71895 0.23439 0.0
C4343 C 0.95713 0.73164 0.24602 0.0
C4344 C 0.94737 0.72982 0.25826 0.0
C4345 C 0.93815 0.71536 0.25883 0.0
H4346 H 0.96419 0.74287 0.24555 0.0
H4347 H 0.86929 0.60421 0.23948 0.0
H4348 H 0.2411 0.02252 0.36761 0.0
H4349 H 0.21327 0.02412 0.35846 0.0
H4350 H 0.22548 0.02728 0.31049 0.0
H4351 H 0.25362 0.02654 0.31975 0.0
H4352 H 0.20513 0.04789 0.31728 0.0
H4353 H 0.20735 0.99253 0.32209 0.0
H4354 H 0.21359 0.96873 0.33511 0.0
H4355 H 0.18316 0.98051 0.37126 0.0
H4356 H 0.17691 0.00452 0.35857 0.0
H4357 H 0.12598 0.02573 0.27904 0.0
H4358 H 0.15428 0.02662 0.28842 0.0
H4359 H 0.14327 0.03343 0.33709 0.0
H4360 H 0.11485 0.03281 0.32773 0.0
H4361 H 0.16277 0.00791 0.32984 0.0
H4362 H 0.16051 0.0635 0.32373 0.0
H4363 H 0.15411 0.08643 0.30936 0.0
H4364 H 0.18451 0.0728 0.27379 0.0
H4365 H 0.19091 0.04963 0.28783 0.0
C4366 C 0.23795 0.02375 0.35513 0.0
C4367 C 0.24966 0.02448 0.34443 0.0
C4368 C 0.22196 0.02445 0.34988 0.0
C4369 C 0.21722 0.0256 0.33375 0.0
C4370 C 0.22885 0.02634 0.323 0.0
C4371 C 0.24491 0.02576 0.32828 0.0
C4372 C 0.20016 0.02626 0.3282 0.0
C4373 C 0.1959 0.03902 0.31983 0.0
C4374 C 0.18806 0.01484 0.33178 0.0
C4375 C 0.19179 1.00041 0.33946 0.0
C4376 C 0.20209 0.99012 0.33289 0.0
C4377 C 0.20561 0.97658 0.3402 0.0
C4378 C 0.19881 0.97314 0.35403 0.0
C4379 C 0.18844 0.98321 0.36055 0.0
C4380 C 0.18489 0.99678 0.3533 0.0
C4381 C 0.1296 0.02756 0.29174 0.0
C4382 C 0.11826 0.02913 0.30271 0.0
C4383 C 0.14576 0.02811 0.29706 0.0
C4384 C 0.15083 0.03008 0.31343 0.0
C4385 C 0.13956 0.03189 0.32441 0.0
C4386 C 0.12339 0.03161 0.31907 0.0
C4387 C 0.16782 0.02954 0.31902 0.0
C4388 C 0.17204 0.01678 0.32734 0.0
C4389 C 0.17988 0.04081 0.31521 0.0
C4390 C 0.17605 0.05473 0.30674 0.0
C4391 C 0.16571 0.0653 0.31276 0.0
C4392 C 0.16211 0.07836 0.3047 0.0
C4393 C 0.16887 0.08105 0.29065 0.0
C4394 C 0.17927 0.07069 0.28466 0.0
C4395 C 0.1829 0.0576 0.29267 0.0
H4396 H 0.16607 0.09118 0.28443 0.0
H4397 H 0.20155 0.96264 0.35967 0.0
H4398 H 0.2663 0.98617 0.70195 0.0
H4399 H 0.29495 0.98821 0.70072 0.0
H4400 H 0.30062 0.03245 0.73103 0.0
H4401 H 0.27187 0.03048 0.73255 0.0
H4402 H 0.31922 0.03572 0.70978 0.0
H4403 H 0.31006 0.99393 0.74344 0.0
H4404 H 0.29781 0.96866 0.75127 0.0
H4405 H 0.31375 0.94298 0.71065 0.0
H4406 H 0.32595 0.96812 0.70248 0.0
H4407 H 0.40175 0.03556 0.73331 0.0
H4408 H 0.3727 0.03326 0.733 0.0
H4409 H 0.36837 0.99658 0.6935 0.0
H4410 H 0.39745 0.99884 0.69373 0.0
H4411 H 0.34944 0.98932 0.71819 0.0
H4412 H 0.35983 0.03209 0.68576 0.0
H4413 H 0.37491 0.05724 0.68105 0.0
H4414 H 0.35792 0.0812 0.72199 0.0
H4415 H 0.34283 0.05617 0.72706 0.0
C4416 C 0.27358 0.99644 0.70822 0.0
C4417 C 0.26677 0.00803 0.71753 0.0
C4418 C 0.29001 0.99756 0.7075 0.0
C4419 C 0.30005 0.01039 0.71576 0.0
C4420 C 0.29321 0.02236 0.72455 0.0
C4421 C 0.27675 0.02117 0.72548 0.0
C4422 C 0.31763 0.01128 0.71518 0.0
C4423 C 0.32578 0.02559 0.71178 0.0
C4424 C 0.32632 0.99802 0.71752 0.0
C4425 C 0.31888 0.98291 0.72234 0.0
C4426 C 0.31089 0.9829 0.73615 0.0
C4427 C 0.304 0.9686 0.74067 0.0
C4428 C 0.30511 0.95421 0.73153 0.0
C4429 C 0.31302 0.95411 0.71779 0.0
C4430 C 0.31993 0.96838 0.71321 0.0
C4431 C 0.39458 0.02702 0.72456 0.0
C4432 C 0.40183 0.01744 0.71353 0.0
C4433 C 0.37802 0.02574 0.72437 0.0
C4434 C 0.3684 0.01485 0.71314 0.0
C4435 C 0.37561 0.00508 0.70223 0.0
C4436 C 0.3922 0.00643 0.70235 0.0
C4437 C 0.35082 0.01368 0.71287 0.0
C4438 C 0.34274 0.99935 0.71608 0.0
C4439 C 0.34223 0.02693 0.71055 0.0
C4440 C 0.35027 0.04224 0.70683 0.0
C4441 C 0.35928 0.04274 0.69375 0.0
C4442 C 0.36785 0.05696 0.69103 0.0
C4443 C 0.36726 0.07084 0.70115 0.0
C4444 C 0.35815 0.0705 0.71404 0.0
C4445 C 0.3496 0.0563 0.71685 0.0
H4446 H 0.37387 0.08186 0.69901 0.0
H4447 H 0.29973 0.94316 0.73503 0.0
H4448 H 0.63487 0.63484 0.36042 0.0
H4449 H 0.64081 0.6078 0.36441 0.0
H4450 H 0.68949 0.6198 0.35547 0.0
H4451 H 0.68377 0.64711 0.35183 0.0
H4452 H 0.67583 0.58927 0.34068 0.0
H4453 H 0.68235 0.61927 0.39237 0.0
H4454 H 0.67409 0.63714 0.41405 0.0
H4455 H 0.63375 0.60361 0.41793 0.0
H4456 H 0.64164 0.58564 0.3961 0.0
H4457 H 0.70284 0.51957 0.37184 0.0
H4458 H 0.69972 0.54677 0.36537 0.0
H4459 H 0.65352 0.54386 0.38306 0.0
H4460 H 0.65698 0.51705 0.39018 0.0
H4461 H 0.66807 0.57082 0.39352 0.0
H4462 H 0.65994 0.54139 0.34145 0.0
H4463 H 0.66681 0.52354 0.31899 0.0
H4464 H 0.7084 0.55539 0.31498 0.0
H4465 H 0.70188 0.57334 0.33754 0.0
C4466 C 0.64688 0.6318 0.35936 0.0
C4467 C 0.65889 0.64328 0.35603 0.0
C4468 C 0.65023 0.61629 0.36156 0.0
C4469 C 0.66564 0.61184 0.36044 0.0
C4470 C 0.67751 0.623 0.35641 0.0
C4471 C 0.6742 0.63859 0.35428 0.0
C4472 C 0.66941 0.59575 0.3642 0.0
C4473 C 0.67437 0.58526 0.35229 0.0
C4474 C 0.66719 0.59046 0.37925 0.0
C4475 C 0.66252 0.60117 0.39251 0.0
C4476 C 0.67166 0.61576 0.39777 0.0
C4477 C 0.66705 0.6259 0.41009 0.0
C4478 C 0.65338 0.62153 0.41734 0.0
C4479 C 0.64432 0.60699 0.4123 0.0
C4480 C 0.64887 0.59681 0.39996 0.0
C4481 C 0.692 0.52474 0.37426 0.0
C4482 C 0.68011 0.51621 0.38147 0.0
C4483 C 0.69017 0.54027 0.37048 0.0
C4484 C 0.67627 0.5474 0.37352 0.0
C4485 C 0.66437 0.53873 0.38061 0.0
C4486 C 0.66632 0.52337 0.38463 0.0
C4487 C 0.67418 0.56402 0.36987 0.0
C4488 C 0.6696 0.57472 0.38187 0.0
C4489 C 0.67657 0.5694 0.35484 0.0
C4490 C 0.68052 0.55861 0.3413 0.0
C4491 C 0.67062 0.54452 0.33586 0.0
C4492 C 0.67444 0.5344 0.3231 0.0
C4493 C 0.68806 0.5383 0.3156 0.0
C4494 C 0.69787 0.55236 0.32082 0.0
C4495 C 0.69411 0.56252 0.33358 0.0
H4496 H 0.69099 0.53045 0.30572 0.0
H4497 H 0.64983 0.6294 0.42688 0.0
H4498 H 0.72459 0.27336 0.97799 0.0
H4499 H 0.72342 0.30215 0.98147 0.0
H4500 H 0.70253 0.29782 0.02546 0.0
H4501 H 0.70363 0.26909 0.02213 0.0
H4502 H 0.70185 0.32006 0.98165 0.0
H4503 H 0.70871 0.33077 0.05019 0.0
H4504 H 0.72096 0.31918 0.07342 0.0
H4505 H 0.75629 0.30145 0.04524 0.0
H4506 H 0.74428 0.31301 0.02188 0.0
H4507 H 0.68367 0.39842 0.00541 0.0
H4508 H 0.68439 0.36951 0.00318 0.0
H4509 H 0.73493 0.37609 0.01787 0.0
H4510 H 0.73418 0.40501 0.02048 0.0
H4511 H 0.72104 0.35309 0.03248 0.0
H4512 H 0.72121 0.36442 0.97701 0.0
H4513 H 0.71079 0.37599 0.95294 0.0
H4514 H 0.6649 0.35028 0.95448 0.0
H4515 H 0.67504 0.33882 0.97871 0.0
C4516 C 0.71962 0.27852 0.98835 0.0
C4517 C 0.71426 0.26892 0.99982 0.0
C4518 C 0.71901 0.295 0.99034 0.0
C4519 C 0.71307 0.30226 0.00382 0.0
C4520 C 0.70751 0.29263 0.01515 0.0
C4521 C 0.70811 0.27617 0.01321 0.0
C4522 C 0.71242 0.31983 0.00579 0.0
C4523 C 0.70599 0.32719 0.99282 0.0
C4524 C 0.71798 0.32936 0.02027 0.0
C4525 C 0.72552 0.32265 0.03429 0.0
C4526 C 0.71913 0.32445 0.04899 0.0
C4527 C 0.72602 0.31787 0.06216 0.0
C4528 C 0.73938 0.30956 0.0608 0.0
C4529 C 0.74591 0.30785 0.04627 0.0
C4530 C 0.73906 0.3144 0.03305 0.0
C4531 C 0.69493 0.3937 0.00815 0.0
C4532 C 0.70892 0.40393 0.01303 0.0
C4533 C 0.69534 0.37718 0.00681 0.0
C4534 C 0.70976 0.37063 0.01016 0.0
C4535 C 0.72367 0.38086 0.01522 0.0
C4536 C 0.72325 0.39736 0.01665 0.0
C4537 C 0.71042 0.35312 0.00838 0.0
C4538 C 0.71679 0.34583 0.02139 0.0
C4539 C 0.70502 0.34366 0.99391 0.0
C4540 C 0.69888 0.35071 0.97953 0.0
C4541 C 0.7089 0.36129 0.9722 0.0
C4542 C 0.70304 0.36784 0.95856 0.0
C4543 C 0.6872 0.36384 0.95216 0.0
C4544 C 0.67718 0.35332 0.95941 0.0
C4545 C 0.68298 0.34677 0.97306 0.0
H4546 H 0.68269 0.36892 0.9416 0.0
H4547 H 0.74469 0.30446 0.07101 0.0
H4548 H 0.2414 0.85161 0.65309 0.0
H4549 H 0.2495 0.88008 0.65377 0.0
H4550 H 0.26519 0.88224 0.70391 0.0
H4551 H 0.25674 0.85369 0.70342 0.0
H4552 H 0.24895 0.90781 0.69687 0.0
H4553 H 0.29228 0.88176 0.67826 0.0
H4554 H 0.30501 0.86246 0.66133 0.0
H4555 H 0.28888 0.88412 0.61976 0.0
H4556 H 0.27585 0.90341 0.63641 0.0
H4557 H 0.30696 0.97802 0.67307 0.0
H4558 H 0.30121 0.95038 0.67883 0.0
H4559 H 0.25082 0.95419 0.66979 0.0
H4560 H 0.25655 0.98189 0.66429 0.0
H4561 H 0.28727 0.92568 0.65977 0.0
H4562 H 0.23008 0.93073 0.69194 0.0
H4563 H 0.21912 0.94966 0.7109 0.0
H4564 H 0.26647 0.96986 0.72894 0.0
H4565 H 0.27764 0.95134 0.70979 0.0
C4566 C 0.24638 0.85815 0.66433 0.0
C4567 C 0.24842 0.85036 0.67821 0.0
C4568 C 0.25112 0.87441 0.66466 0.0
C4569 C 0.25809 0.88325 0.67886 0.0
C4570 C 0.25987 0.87563 0.69283 0.0
C4571 C 0.25516 0.8593 0.69249 0.0
C4572 C 0.26381 0.90035 0.6789 0.0
C4573 C 0.25735 0.91174 0.68879 0.0
C4574 C 0.27506 0.90545 0.66863 0.0
C4575 C 0.28299 0.89395 0.65858 0.0
C4576 C 0.29135 0.88234 0.66549 0.0
C4577 C 0.29863 0.87141 0.65595 0.0
C4578 C 0.29773 0.87205 0.63948 0.0
C4579 C 0.28956 0.88364 0.63252 0.0
C4580 C 0.28224 0.89458 0.64201 0.0
C4581 C 0.29466 0.97297 0.67247 0.0
C4582 C 0.28215 0.98208 0.66848 0.0
C4583 C 0.2914 0.9572 0.67575 0.0
C4584 C 0.27558 0.95027 0.67498 0.0
C4585 C 0.2631 0.95937 0.67081 0.0
C4586 C 0.26637 0.97512 0.66753 0.0
C4587 C 0.2721 0.93323 0.67743 0.0
C4588 C 0.27895 0.9218 0.66795 0.0
C4589 C 0.26142 0.92814 0.68827 0.0
C4590 C 0.25471 0.93964 0.69946 0.0
C4591 C 0.23815 0.93923 0.69994 0.0
C4592 C 0.23189 0.94994 0.71066 0.0
C4593 C 0.24209 0.96096 0.72111 0.0
C4594 C 0.25857 0.96134 0.72082 0.0
C4595 C 0.26486 0.95083 0.70996 0.0
H4596 H 0.23723 0.9692 0.72943 0.0
H4597 H 0.30337 0.86357 0.63211 0.0
H4598 H 0.35139 0.24939 0.9881 0.0
H4599 H 0.34235 0.22138 0.98911 0.0
H4600 H 0.32174 0.23331 0.03276 0.0
H4601 H 0.33122 0.26148 0.03206 0.0
H4602 H 0.33876 0.20774 0.03468 0.0
H4603 H 0.29784 0.22306 0.99835 0.0
H4604 H 0.28675 0.23532 0.97506 0.0
H4605 H 0.30887 0.20322 0.94392 0.0
H4606 H 0.32029 0.1909 0.96703 0.0
H4607 H 0.30195 0.12692 0.03008 0.0
H4608 H 0.30685 0.1561 0.03259 0.0
H4609 H 0.32788 0.15357 0.9881 0.0
H4610 H 0.32272 0.12455 0.98542 0.0
H4611 H 0.30736 0.17516 0.98856 0.0
H4612 H 0.35054 0.16191 0.02474 0.0
H4613 H 0.36237 0.14985 0.04784 0.0
H4614 H 0.33645 0.17808 0.07903 0.0
H4615 H 0.3243 0.19016 0.05607 0.0
C4616 C 0.34497 0.24608 0.99794 0.0
C4617 C 0.34207 0.25766 0.01003 0.0
C4618 C 0.33967 0.23006 0.99843 0.0
C4619 C 0.33123 0.22526 0.01093 0.0
C4620 C 0.32819 0.23678 0.02298 0.0
C4621 C 0.33349 0.25286 0.02249 0.0
C4622 C 0.32605 0.20811 0.0115 0.0
C4623 C 0.33162 0.20065 0.02474 0.0
C4624 C 0.31696 0.19882 0.99841 0.0
C4625 C 0.31001 0.20612 0.98445 0.0
C4626 C 0.30043 0.21868 0.98654 0.0
C4627 C 0.29407 0.22563 0.97337 0.0
C4628 C 0.29713 0.22007 0.95802 0.0
C4629 C 0.30652 0.20751 0.95581 0.0
C4630 C 0.31292 0.20053 0.96895 0.0
C4631 C 0.30774 0.13261 0.02093 0.0
C4632 C 0.31201 0.12352 0.00755 0.0
C4633 C 0.31055 0.14927 0.02238 0.0
C4634 C 0.31779 0.15704 0.01055 0.0
C4635 C 0.32222 0.14787 0.99734 0.0
C4636 C 0.31935 0.1313 0.99585 0.0
C4637 C 0.32044 0.1747 0.01155 0.0
C4638 C 0.31434 0.18226 0.9986 0.0
C4639 C 0.32908 0.18405 0.02487 0.0
C4640 C 0.33637 0.17679 0.03867 0.0
C4641 C 0.34726 0.16544 0.03651 0.0
C4642 C 0.35404 0.15862 0.04957 0.0
C4643 C 0.35012 0.16316 0.06488 0.0
C4644 C 0.33945 0.17455 0.06716 0.0
C4645 C 0.33262 0.18139 0.05413 0.0
H4646 H 0.35539 0.15787 0.07499 0.0
H4647 H 0.2922 0.22547 0.94784 0.0
H4648 H 0.35869 0.68663 0.6552 0.0
H4649 H 0.36146 0.69255 0.6278 0.0
H4650 H 0.36684 0.64325 0.61417 0.0
H4651 H 0.36326 0.63699 0.64116 0.0
H4652 H 0.39199 0.66666 0.60674 0.0
H4653 H 0.33463 0.6548 0.60113 0.0
H4654 H 0.30724 0.65808 0.60741 0.0
H4655 H 0.31317 0.707 0.59779 0.0
H4656 H 0.34067 0.70405 0.59161 0.0
H4657 H 0.39385 0.661 0.52416 0.0
H4658 H 0.38714 0.65727 0.55105 0.0
H4659 H 0.36974 0.70357 0.55491 0.0
H4660 H 0.3758 0.70699 0.5276 0.0
H4661 H 0.35098 0.68405 0.56829 0.0
H4662 H 0.40729 0.69669 0.57302 0.0
H4663 H 0.43486 0.69459 0.56669 0.0
H4664 H 0.43198 0.64652 0.57907 0.0
H4665 H 0.40431 0.64826 0.58527 0.0
C4666 C 0.36011 0.67695 0.64634 0.0
C4667 C 0.36098 0.66134 0.65057 0.0
C4668 C 0.36177 0.6804 0.63068 0.0
C4669 C 0.36446 0.66835 0.61902 0.0
C4670 C 0.36492 0.65274 0.62305 0.0
C4671 C 0.36301 0.64923 0.63857 0.0
C4672 C 0.36774 0.67206 0.60281 0.0
C4673 C 0.383 0.67032 0.59825 0.0
C4674 C 0.35616 0.6774 0.59201 0.0
C4675 C 0.33977 0.67926 0.59609 0.0
C4676 C 0.33016 0.66631 0.60054 0.0
C4677 C 0.31459 0.66809 0.60402 0.0
C4678 C 0.30847 0.68274 0.60301 0.0
C4679 C 0.31792 0.69566 0.59857 0.0
C4680 C 0.3335 0.69394 0.59506 0.0
C4681 C 0.38852 0.67034 0.53073 0.0
C4682 C 0.3854 0.68428 0.52385 0.0
C4683 C 0.38478 0.66826 0.54615 0.0
C4684 C 0.37827 0.6803 0.55522 0.0
C4685 C 0.37482 0.69414 0.54821 0.0
C4686 C 0.37831 0.6961 0.53262 0.0
C4687 C 0.37523 0.67838 0.57202 0.0
C4688 C 0.36006 0.68051 0.57676 0.0
C4689 C 0.38699 0.67365 0.58313 0.0
C4690 C 0.40367 0.67257 0.57949 0.0
C4691 C 0.4125 0.68564 0.5743 0.0
C4692 C 0.42815 0.68451 0.57074 0.0
C4693 C 0.43516 0.67042 0.57245 0.0
C4694 C 0.42654 0.65743 0.57775 0.0
C4695 C 0.41087 0.65848 0.5813 0.0
H4696 H 0.44728 0.66957 0.56969 0.0
H4697 H 0.2964 0.6841 0.60563 0.0
H4698 H 0.02456 0.70425 0.27164 0.0
H4699 H 0.02467 0.6996 0.29988 0.0
H4700 H 0.97792 0.71556 0.30053 0.0
H4701 H 0.9779 0.72055 0.2725 0.0
H4702 H 0.01992 0.72431 0.3258 0.0
H4703 H 0.95876 0.6927 0.31818 0.0
H4704 H 0.94095 0.67238 0.30038 0.0
H4705 H 0.98099 0.64734 0.28975 0.0
H4706 H 0.99908 0.66771 0.30723 0.0
H4707 H 0.97347 0.70198 0.39734 0.0
H4708 H 0.97465 0.70343 0.36873 0.0
H4709 H 0.02537 0.70041 0.37492 0.0
H4710 H 0.0243 0.69952 0.40354 0.0
H4711 H 0.98244 0.68403 0.34563 0.0
H4712 H 0.04389 0.72082 0.34838 0.0
H4713 H 0.06129 0.74104 0.3666 0.0
H4714 H 0.02048 0.75667 0.38748 0.0
H4715 H 0.00283 0.73669 0.36927 0.0
C4716 C 0.0143 0.70667 0.27783 0.0
C4717 C 0.0012 0.71269 0.26995 0.0
C4718 C 0.01437 0.704 0.29388 0.0
C4719 C 0.00122 0.70701 0.30214 0.0
C4720 C 0.9881 0.71298 0.29427 0.0
C4721 C 0.98815 0.71594 0.27834 0.0
C4722 C 0.00152 0.70491 0.31927 0.0
C4723 C 0.01193 0.71535 0.33019 0.0
C4724 C 0.99083 0.69351 0.32492 0.0
C4725 C 0.98019 0.68169 0.31391 0.0
C4726 C 0.96373 0.68287 0.31197 0.0
C4727 C 0.95362 0.67138 0.30195 0.0
C4728 C 0.95985 0.65855 0.29399 0.0
C4729 C 0.97622 0.65726 0.29596 0.0
C4730 C 0.98641 0.66884 0.3058 0.0
C4731 C 0.98486 0.70168 0.39256 0.0
C4732 C 0.9988 0.70084 0.40264 0.0
C4733 C 0.98552 0.70245 0.37622 0.0
C4734 C 1.00013 0.70227 0.36968 0.0
C4735 C 0.01402 0.70095 0.37972 0.0
C4736 C 0.01338 0.70039 0.39608 0.0
C4737 C 0.00082 0.70354 0.35238 0.0
C4738 C 0.99055 0.69296 0.34137 0.0
C4739 C 0.0116 0.71496 0.34668 0.0
C4740 C 0.02208 0.72714 0.35758 0.0
C4741 C 0.03864 0.72861 0.35683 0.0
C4742 C 0.04854 0.74002 0.36716 0.0
C4743 C 0.042 0.75009 0.37823 0.0
C4744 C 0.02554 0.74882 0.37895 0.0
C4745 C 0.01558 0.73744 0.36864 0.0
H4746 H 0.04969 0.75891 0.38622 0.0
H4747 H 0.95201 0.64966 0.28624 0.0
H4748 H 0.68382 0.22297 0.85364 0.0
H4749 H 0.68597 0.23038 0.88245 0.0
H4750 H 0.68228 0.27945 0.8744 0.0
H4751 H 0.68015 0.27214 0.84565 0.0
H4752 H 0.7045 0.27753 0.8985 0.0
H4753 H 0.65014 0.25489 0.8829 0.0
H4754 H 0.62907 0.234 0.8709 0.0
H4755 H 0.64581 0.20194 0.90351 0.0
H4756 H 0.66713 0.2226 0.91557 0.0
H4757 H 0.67287 0.3125 0.96505 0.0
H4758 H 0.67872 0.30083 0.93915 0.0
H4759 H 0.68435 0.25614 0.95837 0.0
H4760 H 0.6789 0.26803 0.98466 0.0
H4761 H 0.66453 0.25274 0.93033 0.0
H4762 H 0.71798 0.27606 0.947 0.0
H4763 H 0.73896 0.29714 0.95883 0.0
H4764 H 0.72301 0.32826 0.92489 0.0
H4765 H 0.70218 0.30722 0.91261 0.0
C4766 C 0.68345 0.23534 0.85802 0.0
C4767 C 0.68174 0.24696 0.84734 0.0
C4768 C 0.6847 0.23955 0.87448 0.0
C4769 C 0.6841 0.25544 0.8806 0.0
C4770 C 0.68282 0.26712 0.86997 0.0
C4771 C 0.68163 0.26293 0.85352 0.0
C4772 C 0.68432 0.25995 0.898 0.0
C4773 C 0.69572 0.27213 0.90543 0.0
C4774 C 0.67316 0.25262 0.90721 0.0
C4775 C 0.66034 0.24022 0.9 0.0
C4776 C 0.64941 0.24334 0.88742 0.0
C4777 C 0.63741 0.23155 0.88063 0.0
C4778 C 0.63614 0.21663 0.88641 0.0
C4779 C 0.64684 0.21349 0.89903 0.0
C4780 C 0.65887 0.22524 0.90585 0.0
C4781 C 0.67572 0.3003 0.96387 0.0
C4782 C 0.67566 0.29127 0.9769 0.0
C4783 C 0.67909 0.29364 0.94906 0.0
C4784 C 0.68228 0.27769 0.94689 0.0
C4785 C 0.68219 0.26855 0.95988 0.0
C4786 C 0.67905 0.27534 0.97486 0.0
C4787 C 0.6845 0.2705 0.93069 0.0
C4788 C 0.67353 0.25787 0.92347 0.0
C4789 C 0.696 0.27742 0.92166 0.0
C4790 C 0.7085 0.29011 0.92895 0.0
C4791 C 0.71893 0.28742 0.9421 0.0
C4792 C 0.73082 0.29934 0.94885 0.0
C4793 C 0.73224 0.31407 0.9427 0.0
C4794 C 0.72189 0.31685 0.92965 0.0
C4795 C 0.71012 0.30489 0.92271 0.0
H4796 H 0.74139 0.32331 0.94802 0.0
H4797 H 0.62684 0.20752 0.88114 0.0
H4798 H 0.02309 0.32547 0.24547 0.0
H4799 H 0.02699 0.3175 0.21773 0.0
H4800 H 0.03252 0.36684 0.20874 0.0
H4801 H 0.02882 0.37492 0.23647 0.0
H4802 H 0.01262 0.34925 0.18571 0.0
H4803 H 0.06456 0.34593 0.21176 0.0
H4804 H 0.08424 0.33757 0.23178 0.0
H4805 H 0.07027 0.2885 0.21454 0.0
H4806 H 0.05033 0.29656 0.19455 0.0
H4807 H 0.0361 0.33268 0.10798 0.0
H4808 H 0.0379 0.34324 0.13618 0.0
H4809 H 0.03099 0.29536 0.14942 0.0
H4810 H 0.02932 0.28481 0.12144 0.0
H4811 H 0.05322 0.31388 0.17021 0.0
H4812 H 1.00004 0.31709 0.14577 0.0
H4813 H 0.97996 0.32521 0.12599 0.0
H4814 H 0.99613 0.37443 0.14049 0.0
H4815 H 0.01647 0.36658 0.16022 0.0
C4816 C 0.02533 0.33463 0.23765 0.0
C4817 C 0.0256 0.35083 0.24321 0.0
C4818 C 0.02754 0.33006 0.22178 0.0
C4819 C 0.03017 0.34158 0.21117 0.0
C4820 C 0.03046 0.35775 0.21669 0.0
C4821 C 0.02827 0.36233 0.23254 0.0
C4822 C 0.03219 0.33677 0.19423 0.0
C4823 C 0.02169 0.34175 0.18232 0.0
C4824 C 0.04383 0.32674 0.1898 0.0
C4825 C 0.05586 0.32185 0.20175 0.0
C4826 C 0.0656 0.33335 0.21232 0.0
C4827 C 0.07681 0.32866 0.22365 0.0
C4828 C 0.07848 0.31251 0.22446 0.0
C4829 C 0.06895 0.30101 0.21391 0.0
C4830 C 0.05771 0.30563 0.20257 0.0
C4831 C 0.03522 0.32444 0.11696 0.0
C4832 C 0.0324 0.30796 0.11251 0.0
C4833 C 0.03617 0.33046 0.13303 0.0
C4834 C 0.03435 0.32008 0.14488 0.0
C4835 C 0.03238 0.30359 0.14049 0.0
C4836 C 0.03135 0.29758 0.12446 0.0
C4837 C 0.03359 0.32629 0.16174 0.0
C4838 C 0.04429 0.32154 0.17362 0.0
C4839 C 0.02212 0.33651 0.16617 0.0
C4840 C 0.0099 0.34125 0.15433 0.0
C4841 C 0.99941 0.32964 0.14464 0.0
C4842 C 0.98796 0.33419 0.13346 0.0
C4843 C 0.9868 0.35032 0.13195 0.0
C4844 C 0.99706 0.36194 0.14165 0.0
C4845 C 0.00855 0.35745 0.15284 0.0
H4846 H 0.97793 0.35382 0.12329 0.0
H4847 H 0.08717 0.30891 0.23324 0.0
loop_
_geom_bond_atom_site_label_1
_geom_bond_atom_site_label_2
_geom_bond_distance
_geom_bond_site_symmetry_2
_ccdc_geom_bond_type
C0 C1 1.264 . S
C0 C5 1.479 . S
C0 C10 1.465 . S
C1 C0 1.264 . S
C1 C3 1.339 . S
C1 H28 0.931 . S
C2 C3 1.395 . S
C2 C4 1.320 . S
C3 C1 1.339 . S
C3 C2 1.395 . S
C3 H29 0.929 . S
C4 C2 1.320 . S
C4 C5 1.405 . S
C4 H30 0.930 . S
C5 C0 1.479 . S
C5 C4 1.405 . S
C5 H31 0.931 . S
U6 O7 2.454 . S
U6 O8 2.458 . S
U6 C9 2.984 . S
U6 C10 2.847 . S
U6 C23 2.882 . S
U6 O24 2.441 . S
U6 O25 2.420 . S
U6 O26 2.455 . S
U6 O27 2.449 . S
O7 U6 2.454 . S
O7 C9 1.353 . S
O8 U6 2.458 . S
O8 C9 1.286 . S
C9 U6 2.984 . S
C9 O7 1.353 . S
C9 O8 1.286 . S
C9 C11 1.363 . S
C10 C0 1.465 . S
C10 U6 2.847 . S
C10 O24 1.249 . S
C10 O25 1.202 . S
C11 C9 1.363 . S
C11 C13 1.408 . S
C11 C16 1.342 . S
C12 C13 1.310 . S
C12 C15 1.461 . S
C12 H32 0.932 . S
C13 C11 1.408 . S
C13 C12 1.310 . S
C13 H33 0.930 . S
C14 C15 1.474 . S
C14 C16 1.285 . S
C14 H34 0.929 . S
C15 C12 1.461 . S
C15 C14 1.474 . S
C16 C11 1.342 . S
C16 C14 1.285 . S
C16 H35 0.930 . S
C17 C20 1.424 . S
C17 C22 1.245 . S
C17 C23 1.428 . S
C18 C21 1.260 . S
C18 C22 1.477 . S
C18 H36 0.932 . S
C19 C20 1.384 . S
C19 C21 1.479 . S
C19 H37 0.929 . S
C20 C17 1.424 . S
C20 C19 1.384 . S
C20 H38 0.928 . S
C21 C18 1.260 . S
C21 C19 1.479 . S
C22 C17 1.245 . S
C22 C18 1.477 . S
C22 H39 0.932 . S
C23 U6 2.882 . S
C23 C17 1.428 . S
C23 O26 1.301 . S
C23 O27 1.282 . S
O24 U6 2.441 . S
O24 C10 1.249 . S
O25 U6 2.420 . S
O25 C10 1.202 . S
O26 U6 2.455 . S
O26 C23 1.301 . S
O27 U6 2.449 . S
O27 C23 1.282 . S
H28 C1 0.931 . S
H29 C3 0.929 . S
H30 C4 0.930 . S
H31 C5 0.931 . S
H32 C12 0.932 . S
H33 C13 0.930 . S
H34 C14 0.929 . S
H35 C16 0.930 . S
H36 C18 0.932 . S
H37 C19 0.929 . S
H38 C20 0.928 . S
H39 C22 0.932 . S
C40 C41 1.264 . S
C40 C45 1.479 . S
C40 C50 1.465 . S
C41 C40 1.264 . S
C41 C43 1.339 . S
C41 H68 0.931 . S
C42 C43 1.395 . S
C42 C44 1.320 . S
C43 C41 1.339 . S
C43 C42 1.395 . S
C43 H69 0.929 . S
C44 C42 1.320 . S
C44 C45 1.405 . S
C44 H70 0.930 . S
C45 C40 1.479 . S
C45 C44 1.405 . S
C45 H71 0.931 . S
U46 O47 2.454 . S
U46 O48 2.458 . S
U46 C49 2.984 . S
U46 C50 2.847 . S
U46 C63 2.882 . S
U46 O64 2.441 . S
U46 O65 2.420 . S
U46 O66 2.455 . S
U46 O67 2.449 . S
O47 U46 2.454 . S
O47 C49 1.353 . S
O48 U46 2.458 . S
O48 C49 1.286 . S
C49 U46 2.984 . S
C49 O47 1.353 . S
C49 O48 1.286 . S
C49 C51 1.363 . S
C50 C40 1.465 . S
C50 U46 2.847 . S
C50 O64 1.249 . S
C50 O65 1.202 . S
C51 C49 1.363 . S
C51 C53 1.408 . S
C51 C56 1.342 . S
C52 C53 1.310 . S
C52 C55 1.461 . S
C52 H72 0.932 . S
C53 C51 1.408 . S
C53 C52 1.310 . S
C53 H73 0.930 . S
C54 C55 1.474 . S
C54 C56 1.285 . S
C54 H74 0.929 . S
C55 C52 1.461 . S
C55 C54 1.474 . S
C56 C51 1.342 . S
C56 C54 1.285 . S
C56 H75 0.930 . S
C57 C60 1.424 . S
C57 C62 1.245 . S
C57 C63 1.428 . S
C58 C61 1.260 . S
C58 C62 1.477 . S
C58 H76 0.932 . S
C59 C60 1.384 . S
C59 C61 1.479 . S
C59 H77 0.929 . S
C60 C57 1.424 . S
C60 C59 1.384 . S
C60 H78 0.928 . S
C61 C58 1.260 . S
C61 C59 1.479 . S
C62 C57 1.245 . S
C62 C58 1.477 . S
C62 H79 0.932 . S
C63 U46 2.882 . S
C63 C57 1.428 . S
C63 O66 1.301 . S
C63 O67 1.282 . S
O64 U46 2.441 . S
O64 C50 1.249 . S
O65 U46 2.420 . S
O65 C50 1.202 . S
O66 U46 2.455 . S
O66 C63 1.301 . S
O67 U46 2.449 . S
O67 C63 1.282 . S
H68 C41 0.931 . S
H69 C43 0.929 . S
H70 C44 0.930 . S
H71 C45 0.931 . S
H72 C52 0.932 . S
H73 C53 0.930 . S
H74 C54 0.929 . S
H75 C56 0.930 . S
H76 C58 0.932 . S
H77 C59 0.929 . S
H78 C60 0.928 . S
H79 C62 0.932 . S
C80 C81 1.264 . S
C80 C85 1.479 . S
C80 C90 1.465 . S
C81 C80 1.264 . S
C81 C83 1.339 . S
C81 H108 0.931 . S
C82 C83 1.395 . S
C82 C84 1.320 . S
C83 C81 1.339 . S
C83 C82 1.395 . S
C83 H109 0.929 . S
C84 C82 1.320 . S
C84 C85 1.405 . S
C84 H110 0.925 1_565 S
C85 C80 1.479 . S
C85 C84 1.405 . S
C85 H111 0.931 . S
U86 O87 2.454 . S
U86 O88 2.458 . S
U86 C89 2.984 . S
U86 C90 2.847 . S
U86 C103 2.882 . S
U86 O104 2.441 . S
U86 O105 2.420 . S
U86 O106 2.455 . S
U86 O107 2.449 . S
O87 U86 2.454 . S
O87 C89 1.353 . S
O88 U86 2.458 . S
O88 C89 1.286 . S
C89 U86 2.984 . S
C89 O87 1.353 . S
C89 O88 1.286 . S
C89 C91 1.363 . S
C90 C80 1.465 . S
C90 U86 2.847 . S
C90 O104 1.249 . S
C90 O105 1.202 . S
C91 C89 1.363 . S
C91 C93 1.408 . S
C91 C96 1.363 . S
C92 C93 1.310 . S
C92 C95 1.461 . S
C92 H112 0.930 . S
C93 C91 1.408 . S
C93 C92 1.310 . S
C93 H113 0.930 . S
C94 C95 1.473 1_545 S
C94 C96 1.277 1_545 S
C94 H114 0.932 . S
C95 C92 1.461 . S
C95 C94 1.473 1_565 S
C96 C91 1.363 . S
C96 C94 1.277 1_565 S
C96 H115 0.926 . S
C97 C100 1.424 . S
C97 C102 1.245 . S
C97 C103 1.428 . S
C98 C101 1.260 . S
C98 C102 1.477 . S
C98 H116 0.932 . S
C99 C100 1.384 . S
C99 C101 1.479 . S
C99 H117 0.929 . S
C100 C97 1.424 . S
C100 C99 1.384 . S
C100 H118 0.928 . S
C101 C98 1.260 . S
C101 C99 1.479 . S
C102 C97 1.245 . S
C102 C98 1.477 . S
C102 H119 0.932 . S
C103 U86 2.882 . S
C103 C97 1.428 . S
C103 O106 1.301 . S
C103 O107 1.282 . S
O104 U86 2.441 . S
O104 C90 1.249 . S
O105 U86 2.420 . S
O105 C90 1.202 . S
O106 U86 2.455 . S
O106 C103 1.301 . S
O107 U86 2.449 . S
O107 C103 1.282 . S
H108 C81 0.931 . S
H109 C83 0.929 . S
H110 C84 0.925 1_545 S
H111 C85 0.931 . S
H112 C92 0.930 . S
H113 C93 0.930 . S
H114 C94 0.932 . S
H115 C96 0.926 . S
H116 C98 0.932 . S
H117 C99 0.929 . S
H118 C100 0.928 . S
H119 C102 0.932 . S
C120 C121 1.264 . S
C120 C125 1.479 . S
C120 C130 1.465 . S
C121 C120 1.264 . S
C121 C123 1.339 . S
C121 H148 0.931 . S
C122 C123 1.395 . S
C122 C124 1.320 . S
C123 C121 1.339 . S
C123 C122 1.395 . S
C123 H149 0.929 . S
C124 C122 1.320 . S
C124 C125 1.405 . S
C124 H150 0.930 . S
C125 C120 1.479 . S
C125 C124 1.405 . S
C125 H151 0.931 . S
U126 O127 2.454 . S
U126 O128 2.458 . S
U126 C129 2.984 . S
U126 C130 2.847 . S
U126 C143 2.882 . S
U126 O144 2.441 . S
U126 O145 2.420 . S
U126 O146 2.455 . S
U126 O147 2.449 . S
O127 U126 2.454 . S
O127 C129 1.353 . S
O128 U126 2.458 . S
O128 C129 1.286 . S
C129 U126 2.984 . S
C129 O127 1.353 . S
C129 O128 1.286 . S
C129 C131 1.363 . S
C130 C120 1.465 . S
C130 U126 2.847 . S
C130 O144 1.249 . S
C130 O145 1.202 . S
C131 C129 1.363 . S
C131 C133 1.408 . S
C131 C136 1.342 . S
C132 C133 1.310 . S
C132 C135 1.461 . S
C132 H152 0.932 . S
C133 C131 1.408 . S
C133 C132 1.310 . S
C133 H153 0.930 . S
C134 C135 1.474 . S
C134 C136 1.285 . S
C134 H154 0.929 . S
C135 C132 1.461 . S
C135 C134 1.474 . S
C136 C131 1.342 . S
C136 C134 1.285 . S
C136 H155 0.930 . S
C137 C140 1.424 . S
C137 C142 1.245 . S
C137 C143 1.428 1_565 S
C138 C141 1.260 . S
C138 C142 1.477 . S
C138 H156 0.932 . S
C139 C140 1.384 . S
C139 C141 1.479 . S
C139 H157 0.929 . S
C140 C137 1.424 . S
C140 C139 1.384 . S
C140 H158 0.928 . S
C141 C138 1.260 . S
C141 C139 1.479 . S
C142 C137 1.245 . S
C142 C138 1.477 . S
C142 H159 0.932 . S
C143 U126 2.882 . S
C143 C137 1.428 1_545 S
C143 O146 1.301 . S
C143 O147 1.282 . S
O144 U126 2.441 . S
O144 C130 1.249 . S
O145 U126 2.420 . S
O145 C130 1.202 . S
O146 U126 2.455 . S
O146 C143 1.301 . S
O147 U126 2.449 . S
O147 C143 1.282 . S
H148 C121 0.931 . S
H149 C123 0.929 . S
H150 C124 0.930 . S
H151 C125 0.931 . S
H152 C132 0.932 . S
H153 C133 0.930 . S
H154 C134 0.929 . S
H155 C136 0.930 . S
H156 C138 0.932 . S
H157 C139 0.929 . S
H158 C140 0.928 . S
H159 C142 0.932 . S
C160 C161 1.264 . S
C160 C165 1.479 . S
C160 C170 1.465 . S
C161 C160 1.264 . S
C161 C163 1.339 . S
C161 H188 0.931 . S
C162 C163 1.395 . S
C162 C164 1.320 . S
C163 C161 1.339 . S
C163 C162 1.395 . S
C163 H189 0.929 . S
C164 C162 1.320 . S
C164 C165 1.405 . S
C164 H190 0.930 . S
C165 C160 1.479 . S
C165 C164 1.405 . S
C165 H191 0.931 . S
U166 O167 2.454 . S
U166 O168 2.458 . S
U166 C169 2.984 . S
U166 C170 2.847 . S
U166 C183 2.882 . S
U166 O184 2.441 . S
U166 O185 2.420 . S
U166 O186 2.455 . S
U166 O187 2.449 . S
O167 U166 2.454 . S
O167 C169 1.353 . S
O168 U166 2.458 . S
O168 C169 1.286 . S
C169 U166 2.984 . S
C169 O167 1.353 . S
C169 O168 1.286 . S
C169 C171 1.363 . S
C170 C160 1.465 . S
C170 U166 2.847 . S
C170 O184 1.249 . S
C170 O185 1.202 . S
C171 C169 1.363 . S
C171 C173 1.408 . S
C171 C176 1.342 . S
C172 C173 1.310 . S
C172 C175 1.461 . S
C172 H192 0.932 . S
C173 C171 1.408 . S
C173 C172 1.310 . S
C173 H193 0.930 . S
C174 C175 1.474 . S
C174 C176 1.285 . S
C174 H194 0.929 . S
C175 C172 1.461 . S
C175 C174 1.474 . S
C176 C171 1.342 . S
C176 C174 1.285 . S
C176 H195 0.930 . S
C177 C180 1.424 . S
C177 C182 1.245 . S
C177 C183 1.428 . S
C178 C181 1.260 . S
C178 C182 1.477 . S
C178 H196 0.932 . S
C179 C180 1.384 . S
C179 C181 1.479 . S
C179 H197 0.929 . S
C180 C177 1.424 . S
C180 C179 1.384 . S
C180 H198 0.928 . S
C181 C178 1.260 . S
C181 C179 1.479 . S
C182 C177 1.245 . S
C182 C178 1.477 . S
C182 H199 0.932 . S
C183 U166 2.882 . S
C183 C177 1.428 . S
C183 O186 1.301 . S
C183 O187 1.282 . S
O184 U166 2.441 . S
O184 C170 1.249 . S
O185 U166 2.420 . S
O185 C170 1.202 . S
O186 U166 2.455 . S
O186 C183 1.301 . S
O187 U166 2.449 . S
O187 C183 1.282 . S
H188 C161 0.931 . S
H189 C163 0.929 . S
H190 C164 0.930 . S
H191 C165 0.931 . S
H192 C172 0.932 . S
H193 C173 0.930 . S
H194 C174 0.929 . S
H195 C176 0.930 . S
H196 C178 0.932 . S
H197 C179 0.929 . S
H198 C180 0.928 . S
H199 C182 0.932 . S
C200 C201 1.264 . S
C200 C205 1.479 . S
C200 C210 1.465 . S
C201 C200 1.264 . S
C201 C203 1.339 . S
C201 H228 0.931 . S
C202 C203 1.395 . S
C202 C204 1.320 . S
C203 C201 1.339 . S
C203 C202 1.395 . S
C203 H229 0.929 . S
C204 C202 1.320 . S
C204 C205 1.405 . S
C204 H230 0.930 . S
C205 C200 1.479 . S
C205 C204 1.405 . S
C205 H231 0.931 . S
U206 O207 2.454 . S
U206 O208 2.458 . S
U206 C209 2.984 . S
U206 C210 2.847 . S
U206 C223 2.882 . S
U206 O224 2.441 . S
U206 O225 2.420 . S
U206 O226 2.455 . S
U206 O227 2.449 . S
O207 U206 2.454 . S
O207 C209 1.353 . S
O208 U206 2.458 . S
O208 C209 1.286 . S
C209 U206 2.984 . S
C209 O207 1.353 . S
C209 O208 1.286 . S
C209 C211 1.363 . S
C210 C200 1.465 . S
C210 U206 2.847 . S
C210 O224 1.249 . S
C210 O225 1.202 . S
C211 C209 1.363 . S
C211 C213 1.408 . S
C211 C216 1.342 . S
C212 C213 1.310 . S
C212 C215 1.461 . S
C212 H232 0.932 . S
C213 C211 1.408 . S
C213 C212 1.310 . S
C213 H233 0.930 . S
C214 C215 1.474 . S
C214 C216 1.285 . S
C214 H234 0.929 . S
C215 C212 1.461 . S
C215 C214 1.474 . S
C216 C211 1.342 . S
C216 C214 1.285 . S
C216 H235 0.930 . S
C217 C220 1.424 . S
C217 C222 1.245 . S
C217 C223 1.428 1_556 S
C218 C221 1.260 . S
C218 C222 1.477 . S
C218 H236 0.932 . S
C219 C220 1.384 . S
C219 C221 1.479 . S
C219 H237 0.929 . S
C220 C217 1.424 . S
C220 C219 1.384 . S
C220 H238 0.928 . S
C221 C218 1.260 . S
C221 C219 1.479 . S
C222 C217 1.245 . S
C222 C218 1.477 . S
C222 H239 0.932 . S
C223 U206 2.882 . S
C223 C217 1.428 1_554 S
C223 O226 1.301 . S
C223 O227 1.282 . S
O224 U206 2.441 . S
O224 C210 1.249 . S
O225 U206 2.420 . S
O225 C210 1.202 . S
O226 U206 2.455 . S
O226 C223 1.301 . S
O227 U206 2.449 . S
O227 C223 1.282 . S
H228 C201 0.931 . S
H229 C203 0.929 . S
H230 C204 0.930 . S
H231 C205 0.931 . S
H232 C212 0.932 . S
H233 C213 0.930 . S
H234 C214 0.929 . S
H235 C216 0.930 . S
H236 C218 0.932 . S
H237 C219 0.929 . S
H238 C220 0.928 . S
H239 C222 0.932 . S
C240 C241 1.264 . S
C240 C245 1.479 . S
C240 C250 1.465 . S
C241 C240 1.264 . S
C241 C243 1.339 . S
C241 H268 0.931 . S
C242 C243 1.395 . S
C242 C244 1.320 . S
C243 C241 1.339 . S
C243 C242 1.395 . S
C243 H269 0.929 . S
C244 C242 1.320 . S
C244 C245 1.405 . S
C244 H270 0.930 . S
C245 C240 1.479 . S
C245 C244 1.405 . S
C245 H271 0.931 . S
U246 O247 2.454 . S
U246 O248 2.458 . S
U246 C249 2.984 . S
U246 C250 2.847 . S
U246 C263 2.882 . S
U246 O264 2.441 . S
U246 O265 2.420 . S
U246 O266 2.455 . S
U246 O267 2.449 . S
O247 U246 2.454 . S
O247 C249 1.353 . S
O248 U246 2.458 . S
O248 C249 1.286 . S
C249 U246 2.984 . S
C249 O247 1.353 . S
C249 O248 1.286 . S
C249 C251 1.363 . S
C250 C240 1.465 . S
C250 U246 2.847 . S
C250 O264 1.249 . S
C250 O265 1.202 . S
C251 C249 1.363 . S
C251 C253 1.408 . S
C251 C256 1.342 . S
C252 C253 1.310 . S
C252 C255 1.461 . S
C252 H272 0.932 . S
C253 C251 1.408 . S
C253 C252 1.310 . S
C253 H273 0.930 . S
C254 C255 1.474 . S
C254 C256 1.285 . S
C254 H274 0.929 . S
C255 C252 1.461 . S
C255 C254 1.474 . S
C256 C251 1.342 . S
C256 C254 1.285 . S
C256 H275 0.930 . S
C257 C260 1.424 . S
C257 C262 1.245 . S
C257 C263 1.428 . S
C258 C261 1.260 . S
C258 C262 1.477 . S
C258 H276 0.932 . S
C259 C260 1.384 . S
C259 C261 1.479 . S
C259 H277 0.929 . S
C260 C257 1.424 . S
C260 C259 1.384 . S
C260 H278 0.928 . S
C261 C258 1.260 . S
C261 C259 1.479 . S
C262 C257 1.245 . S
C262 C258 1.477 . S
C262 H279 0.932 . S
C263 U246 2.882 . S
C263 C257 1.428 . S
C263 O266 1.301 . S
C263 O267 1.282 . S
O264 U246 2.441 . S
O264 C250 1.249 . S
O265 U246 2.420 . S
O265 C250 1.202 . S
O266 U246 2.455 . S
O266 C263 1.301 . S
O267 U246 2.449 . S
O267 C263 1.282 . S
H268 C241 0.931 . S
H269 C243 0.929 . S
H270 C244 0.930 . S
H271 C245 0.931 . S
H272 C252 0.932 . S
H273 C253 0.930 . S
H274 C254 0.929 . S
H275 C256 0.930 . S
H276 C258 0.932 . S
H277 C259 0.929 . S
H278 C260 0.928 . S
H279 C262 0.932 . S
C280 C281 1.264 . S
C280 C285 1.479 . S
C280 C290 1.465 . S
C281 C280 1.264 . S
C281 C283 1.339 . S
C281 H308 0.931 . S
C282 C283 1.395 . S
C282 C284 1.320 . S
C283 C281 1.339 . S
C283 C282 1.395 . S
C283 H309 0.929 . S
C284 C282 1.320 . S
C284 C285 1.405 . S
C284 H310 0.925 1_556 S
C285 C280 1.479 . S
C285 C284 1.405 . S
C285 H311 0.931 . S
U286 O287 2.454 . S
U286 O288 2.458 . S
U286 C289 2.984 . S
U286 C290 2.847 . S
U286 C303 2.882 . S
U286 O304 2.441 . S
U286 O305 2.420 . S
U286 O306 2.455 . S
U286 O307 2.449 . S
O287 U286 2.454 . S
O287 C289 1.353 . S
O288 U286 2.458 . S
O288 C289 1.286 . S
C289 U286 2.984 . S
C289 O287 1.353 . S
C289 O288 1.286 . S
C289 C291 1.363 . S
C290 C280 1.465 . S
C290 U286 2.847 . S
C290 O304 1.249 . S
C290 O305 1.202 . S
C291 C289 1.363 . S
C291 C293 1.408 . S
C291 C296 1.363 . S
C292 C293 1.310 . S
C292 C295 1.461 . S
C292 H312 0.930 . S
C293 C291 1.408 . S
C293 C292 1.310 . S
C293 H313 0.930 . S
C294 C295 1.473 1_554 S
C294 C296 1.277 1_554 S
C294 H314 0.932 . S
C295 C292 1.461 . S
C295 C294 1.473 1_556 S
C296 C291 1.363 . S
C296 C294 1.277 1_556 S
C296 H315 0.926 . S
C297 C300 1.424 . S
C297 C302 1.245 . S
C297 C303 1.428 . S
C298 C301 1.260 . S
C298 C302 1.477 . S
C298 H316 0.932 . S
C299 C300 1.384 . S
C299 C301 1.479 . S
C299 H317 0.929 . S
C300 C297 1.424 . S
C300 C299 1.384 . S
C300 H318 0.928 . S
C301 C298 1.260 . S
C301 C299 1.479 . S
C302 C297 1.245 . S
C302 C298 1.477 . S
C302 H319 0.932 . S
C303 U286 2.882 . S
C303 C297 1.428 . S
C303 O306 1.301 . S
C303 O307 1.282 . S
O304 U286 2.441 . S
O304 C290 1.249 . S
O305 U286 2.420 . S
O305 C290 1.202 . S
O306 U286 2.455 . S
O306 C303 1.301 . S
O307 U286 2.449 . S
O307 C303 1.282 . S
H308 C281 0.931 . S
H309 C283 0.929 . S
H310 C284 0.925 1_554 S
H311 C285 0.931 . S
H312 C292 0.930 . S
H313 C293 0.930 . S
H314 C294 0.932 . S
H315 C296 0.926 . S
H316 C298 0.932 . S
H317 C299 0.929 . S
H318 C300 0.928 . S
H319 C302 0.932 . S
C320 C321 1.264 . S
C320 C325 1.479 . S
C320 C330 1.465 . S
C321 C320 1.264 . S
C321 C323 1.339 . S
C321 H348 0.931 . S
C322 C323 1.395 . S
C322 C324 1.320 . S
C323 C321 1.339 . S
C323 C322 1.395 . S
C323 H349 0.929 . S
C324 C322 1.320 . S
C324 C325 1.405 . S
C324 H350 0.930 . S
C325 C320 1.479 . S
C325 C324 1.405 . S
C325 H351 0.931 . S
U326 O327 2.454 . S
U326 O328 2.458 . S
U326 C329 2.984 . S
U326 C330 2.847 . S
U326 C343 2.882 . S
U326 O344 2.441 . S
U326 O345 2.420 . S
U326 O346 2.455 . S
U326 O347 2.449 . S
O327 U326 2.454 . S
O327 C329 1.353 . S
O328 U326 2.458 . S
O328 C329 1.286 . S
C329 U326 2.984 . S
C329 O327 1.353 . S
C329 O328 1.286 . S
C329 C331 1.363 . S
C330 C320 1.465 . S
C330 U326 2.847 . S
C330 O344 1.249 . S
C330 O345 1.202 . S
C331 C329 1.363 . S
C331 C333 1.408 . S
C331 C336 1.342 . S
C332 C333 1.310 . S
C332 C335 1.461 . S
C332 H352 0.932 . S
C333 C331 1.408 . S
C333 C332 1.310 . S
C333 H353 0.930 . S
C334 C335 1.474 . S
C334 C336 1.285 . S
C334 H354 0.929 . S
C335 C332 1.461 . S
C335 C334 1.474 . S
C336 C331 1.342 . S
C336 C334 1.285 . S
C336 H355 0.930 . S
C337 C340 1.424 . S
C337 C342 1.245 . S
C337 C343 1.428 . S
C338 C341 1.260 . S
C338 C342 1.477 . S
C338 H356 0.932 . S
C339 C340 1.384 . S
C339 C341 1.479 . S
C339 H357 0.929 . S
C340 C337 1.424 . S
C340 C339 1.384 . S
C340 H358 0.928 . S
C341 C338 1.260 . S
C341 C339 1.479 . S
C342 C337 1.245 . S
C342 C338 1.477 . S
C342 H359 0.932 . S
C343 U326 2.882 . S
C343 C337 1.428 . S
C343 O346 1.301 . S
C343 O347 1.282 . S
O344 U326 2.441 . S
O344 C330 1.249 . S
O345 U326 2.420 . S
O345 C330 1.202 . S
O346 U326 2.455 . S
O346 C343 1.301 . S
O347 U326 2.449 . S
O347 C343 1.282 . S
H348 C321 0.931 . S
H349 C323 0.929 . S
H350 C324 0.930 . S
H351 C325 0.931 . S
H352 C332 0.932 . S
H353 C333 0.930 . S
H354 C334 0.929 . S
H355 C336 0.930 . S
H356 C338 0.932 . S
H357 C339 0.929 . S
H358 C340 0.928 . S
H359 C342 0.932 . S
C360 C361 1.264 . S
C360 C365 1.479 . S
C360 C370 1.465 . S
C361 C360 1.264 . S
C361 C363 1.339 . S
C361 H388 0.931 . S
C362 C363 1.395 . S
C362 C364 1.320 . S
C363 C361 1.339 . S
C363 C362 1.395 . S
C363 H389 0.929 . S
C364 C362 1.320 . S
C364 C365 1.405 . S
C364 H390 0.930 . S
C365 C360 1.479 . S
C365 C364 1.405 . S
C365 H391 0.931 . S
U366 O367 2.454 . S
U366 O368 2.458 . S
U366 C369 2.984 . S
U366 C370 2.847 . S
U366 C383 2.882 . S
U366 O384 2.441 . S
U366 O385 2.420 . S
U366 O386 2.455 . S
U366 O387 2.449 . S
O367 U366 2.454 . S
O367 C369 1.353 . S
O368 U366 2.458 . S
O368 C369 1.286 . S
C369 U366 2.984 . S
C369 O367 1.353 . S
C369 O368 1.286 . S
C369 C371 1.363 . S
C370 C360 1.465 . S
C370 U366 2.847 . S
C370 O384 1.249 . S
C370 O385 1.202 . S
C371 C369 1.363 . S
C371 C373 1.408 . S
C371 C376 1.342 . S
C372 C373 1.310 . S
C372 C375 1.461 . S
C372 H392 0.932 . S
C373 C371 1.408 . S
C373 C372 1.310 . S
C373 H393 0.930 . S
C374 C375 1.474 . S
C374 C376 1.285 . S
C374 H394 0.929 . S
C375 C372 1.461 . S
C375 C374 1.474 . S
C376 C371 1.342 . S
C376 C374 1.285 . S
C376 H395 0.930 . S
C377 C380 1.424 . S
C377 C382 1.245 . S
C377 C383 1.428 1_655 S
C378 C381 1.260 . S
C378 C382 1.477 . S
C378 H396 0.932 . S
C379 C380 1.384 . S
C379 C381 1.479 . S
C379 H397 0.929 . S
C380 C377 1.424 . S
C380 C379 1.384 . S
C380 H398 0.928 . S
C381 C378 1.260 . S
C381 C379 1.479 . S
C382 C377 1.245 . S
C382 C378 1.477 . S
C382 H399 0.932 . S
C383 U366 2.882 . S
C383 C377 1.428 1_455 S
C383 O386 1.301 . S
C383 O387 1.282 . S
O384 U366 2.441 . S
O384 C370 1.249 . S
O385 U366 2.420 . S
O385 C370 1.202 . S
O386 U366 2.455 . S
O386 C383 1.301 . S
O387 U366 2.449 . S
O387 C383 1.282 . S
H388 C361 0.931 . S
H389 C363 0.929 . S
H390 C364 0.930 . S
H391 C365 0.931 . S
H392 C372 0.932 . S
H393 C373 0.930 . S
H394 C374 0.929 . S
H395 C376 0.930 . S
H396 C378 0.932 . S
H397 C379 0.929 . S
H398 C380 0.928 . S
H399 C382 0.932 . S
C400 C401 1.264 . S
C400 C405 1.479 . S
C400 C410 1.465 . S
C401 C400 1.264 . S
C401 C403 1.339 . S
C401 H428 0.931 . S
C402 C403 1.395 . S
C402 C404 1.320 . S
C403 C401 1.339 . S
C403 C402 1.395 . S
C403 H429 0.929 . S
C404 C402 1.320 . S
C404 C405 1.405 . S
C404 H430 0.930 . S
C405 C400 1.479 . S
C405 C404 1.405 . S
C405 H431 0.931 . S
U406 O407 2.454 . S
U406 O408 2.458 . S
U406 C409 2.984 . S
U406 C410 2.847 . S
U406 C423 2.882 . S
U406 O424 2.441 . S
U406 O425 2.420 . S
U406 O426 2.455 . S
U406 O427 2.449 . S
O407 U406 2.454 . S
O407 C409 1.353 . S
O408 U406 2.458 . S
O408 C409 1.286 . S
C409 U406 2.984 . S
C409 O407 1.353 . S
C409 O408 1.286 . S
C409 C411 1.363 . S
C410 C400 1.465 . S
C410 U406 2.847 . S
C410 O424 1.249 . S
C410 O425 1.202 . S
C411 C409 1.363 . S
C411 C413 1.408 . S
C411 C416 1.342 . S
C412 C413 1.310 . S
C412 C415 1.461 . S
C412 H432 0.932 . S
C413 C411 1.408 . S
C413 C412 1.310 . S
C413 H433 0.930 . S
C414 C415 1.474 . S
C414 C416 1.285 . S
C414 H434 0.929 . S
C415 C412 1.461 . S
C415 C414 1.474 . S
C416 C411 1.342 . S
C416 C414 1.285 . S
C416 H435 0.930 . S
C417 C420 1.424 . S
C417 C422 1.245 . S
C417 C423 1.428 . S
C418 C421 1.260 . S
C418 C422 1.477 . S
C418 H436 0.932 . S
C419 C420 1.384 . S
C419 C421 1.479 . S
C419 H437 0.929 . S
C420 C417 1.424 . S
C420 C419 1.384 . S
C420 H438 0.928 . S
C421 C418 1.260 . S
C421 C419 1.479 . S
C422 C417 1.245 . S
C422 C418 1.477 . S
C422 H439 0.932 . S
C423 U406 2.882 . S
C423 C417 1.428 . S
C423 O426 1.301 . S
C423 O427 1.282 . S
O424 U406 2.441 . S
O424 C410 1.249 . S
O425 U406 2.420 . S
O425 C410 1.202 . S
O426 U406 2.455 . S
O426 C423 1.301 . S
O427 U406 2.449 . S
O427 C423 1.282 . S
H428 C401 0.931 . S
H429 C403 0.929 . S
H430 C404 0.930 . S
H431 C405 0.931 . S
H432 C412 0.932 . S
H433 C413 0.930 . S
H434 C414 0.929 . S
H435 C416 0.930 . S
H436 C418 0.932 . S
H437 C419 0.929 . S
H438 C420 0.928 . S
H439 C422 0.932 . S
C440 C441 1.264 . S
C440 C445 1.479 . S
C440 C450 1.465 . S
C441 C440 1.264 . S
C441 C443 1.339 . S
C441 H468 0.931 . S
C442 C443 1.395 . S
C442 C444 1.320 . S
C443 C441 1.339 . S
C443 C442 1.395 . S
C443 H469 0.929 . S
C444 C442 1.320 . S
C444 C445 1.405 . S
C444 H470 0.925 1_655 S
C445 C440 1.479 . S
C445 C444 1.405 . S
C445 H471 0.931 . S
U446 O447 2.454 . S
U446 O448 2.458 . S
U446 C449 2.984 . S
U446 C450 2.847 . S
U446 C463 2.882 . S
U446 O464 2.441 . S
U446 O465 2.420 . S
U446 O466 2.455 . S
U446 O467 2.449 . S
O447 U446 2.454 . S
O447 C449 1.353 . S
O448 U446 2.458 . S
O448 C449 1.286 . S
C449 U446 2.984 . S
C449 O447 1.353 . S
C449 O448 1.286 . S
C449 C451 1.363 . S
C450 C440 1.465 . S
C450 U446 2.847 . S
C450 O464 1.249 . S
C450 O465 1.202 . S
C451 C449 1.363 . S
C451 C453 1.408 . S
C451 C456 1.363 . S
C452 C453 1.310 . S
C452 C455 1.461 . S
C452 H472 0.930 . S
C453 C451 1.408 . S
C453 C452 1.310 . S
C453 H473 0.930 . S
C454 C455 1.473 1_455 S
C454 C456 1.277 1_455 S
C454 H474 0.932 . S
C455 C452 1.461 . S
C455 C454 1.473 1_655 S
C456 C451 1.363 . S
C456 C454 1.277 1_655 S
C456 H475 0.926 . S
C457 C460 1.424 . S
C457 C462 1.245 . S
C457 C463 1.428 . S
C458 C461 1.260 . S
C458 C462 1.477 . S
C458 H476 0.932 . S
C459 C460 1.384 . S
C459 C461 1.479 . S
C459 H477 0.929 . S
C460 C457 1.424 . S
C460 C459 1.384 . S
C460 H478 0.928 . S
C461 C458 1.260 . S
C461 C459 1.479 . S
C462 C457 1.245 . S
C462 C458 1.477 . S
C462 H479 0.932 . S
C463 U446 2.882 . S
C463 C457 1.428 . S
C463 O466 1.301 . S
C463 O467 1.282 . S
O464 U446 2.441 . S
O464 C450 1.249 . S
O465 U446 2.420 . S
O465 C450 1.202 . S
O466 U446 2.455 . S
O466 C463 1.301 . S
O467 U446 2.449 . S
O467 C463 1.282 . S
H468 C441 0.931 . S
H469 C443 0.929 . S
H470 C444 0.925 1_455 S
H471 C445 0.931 . S
H472 C452 0.930 . S
H473 C453 0.930 . S
H474 C454 0.932 . S
H475 C456 0.926 . S
H476 C458 0.932 . S
H477 C459 0.929 . S
H478 C460 0.928 . S
H479 C462 0.932 . S
C480 C481 1.264 . S
C480 C485 1.479 . S
C480 C490 1.465 . S
C481 C480 1.264 . S
C481 C483 1.339 . S
C481 H508 0.931 . S
C482 C483 1.395 . S
C482 C484 1.320 . S
C483 C481 1.339 . S
C483 C482 1.395 . S
C483 H509 0.929 . S
C484 C482 1.320 . S
C484 C485 1.405 . S
C484 H510 0.930 . S
C485 C480 1.479 . S
C485 C484 1.405 . S
C485 H511 0.931 . S
U486 O487 2.454 . S
U486 O488 2.458 . S
U486 C489 2.984 . S
U486 C490 2.847 . S
U486 C503 2.882 . S
U486 O504 2.441 . S
U486 O505 2.420 . S
U486 O506 2.455 . S
U486 O507 2.449 . S
O487 U486 2.454 . S
O487 C489 1.353 . S
O488 U486 2.458 . S
O488 C489 1.286 . S
C489 U486 2.984 . S
C489 O487 1.353 . S
C489 O488 1.286 . S
C489 C491 1.363 . S
C490 C480 1.465 . S
C490 U486 2.847 . S
C490 O504 1.249 . S
C490 O505 1.202 . S
C491 C489 1.363 . S
C491 C493 1.408 . S
C491 C496 1.342 . S
C492 C493 1.310 . S
C492 C495 1.461 . S
C492 H512 0.932 . S
C493 C491 1.408 . S
C493 C492 1.310 . S
C493 H513 0.930 . S
C494 C495 1.474 . S
C494 C496 1.285 . S
C494 H514 0.929 . S
C495 C492 1.461 . S
C495 C494 1.474 . S
C496 C491 1.342 . S
C496 C494 1.285 . S
C496 H515 0.930 . S
C497 C500 1.424 . S
C497 C502 1.245 . S
C497 C503 1.428 . S
C498 C501 1.260 . S
C498 C502 1.477 . S
C498 H516 0.932 . S
C499 C500 1.384 . S
C499 C501 1.479 . S
C499 H517 0.929 . S
C500 C497 1.424 . S
C500 C499 1.384 . S
C500 H518 0.928 . S
C501 C498 1.260 . S
C501 C499 1.479 . S
C502 C497 1.245 . S
C502 C498 1.477 . S
C502 H519 0.932 . S
C503 U486 2.882 . S
C503 C497 1.428 . S
C503 O506 1.301 . S
C503 O507 1.282 . S
O504 U486 2.441 . S
O504 C490 1.249 . S
O505 U486 2.420 . S
O505 C490 1.202 . S
O506 U486 2.455 . S
O506 C503 1.301 . S
O507 U486 2.449 . S
O507 C503 1.282 . S
H508 C481 0.931 . S
H509 C483 0.929 . S
H510 C484 0.930 . S
H511 C485 0.931 . S
H512 C492 0.932 . S
H513 C493 0.930 . S
H514 C494 0.929 . S
H515 C496 0.930 . S
H516 C498 0.932 . S
H517 C499 0.929 . S
H518 C500 0.928 . S
H519 C502 0.932 . S
C520 C521 1.264 . S
C520 C525 1.479 . S
C520 C530 1.465 . S
C521 C520 1.264 . S
C521 C523 1.339 . S
C521 H548 0.931 . S
C522 C523 1.395 . S
C522 C524 1.320 . S
C523 C521 1.339 . S
C523 C522 1.395 . S
C523 H549 0.929 . S
C524 C522 1.320 . S
C524 C525 1.405 . S
C524 H550 0.930 . S
C525 C520 1.479 . S
C525 C524 1.405 . S
C525 H551 0.931 . S
U526 O527 2.454 . S
U526 O528 2.458 . S
U526 C529 2.984 . S
U526 C530 2.847 . S
U526 C543 2.882 . S
U526 O544 2.441 . S
U526 O545 2.420 . S
U526 O546 2.455 . S
U526 O547 2.449 . S
O527 U526 2.454 . S
O527 C529 1.353 . S
O528 U526 2.458 . S
O528 C529 1.286 . S
C529 U526 2.984 . S
C529 O527 1.353 . S
C529 O528 1.286 . S
C529 C531 1.363 . S
C530 C520 1.465 . S
C530 U526 2.847 . S
C530 O544 1.249 . S
C530 O545 1.202 . S
C531 C529 1.363 . S
C531 C533 1.408 . S
C531 C536 1.342 . S
C532 C533 1.310 . S
C532 C535 1.461 . S
C532 H552 0.932 . S
C533 C531 1.408 . S
C533 C532 1.310 . S
C533 H553 0.930 . S
C534 C535 1.474 . S
C534 C536 1.285 . S
C534 H554 0.929 . S
C535 C532 1.461 . S
C535 C534 1.474 . S
C536 C531 1.342 . S
C536 C534 1.285 . S
C536 H555 0.930 . S
C537 C540 1.424 . S
C537 C542 1.245 . S
C537 C543 1.428 . S
C538 C541 1.260 . S
C538 C542 1.477 . S
C538 H556 0.932 . S
C539 C540 1.384 . S
C539 C541 1.479 . S
C539 H557 0.929 . S
C540 C537 1.424 . S
C540 C539 1.384 . S
C540 H558 0.928 . S
C541 C538 1.260 . S
C541 C539 1.479 . S
C542 C537 1.245 . S
C542 C538 1.477 . S
C542 H559 0.932 . S
C543 U526 2.882 . S
C543 C537 1.428 . S
C543 O546 1.301 . S
C543 O547 1.282 . S
O544 U526 2.441 . S
O544 C530 1.249 . S
O545 U526 2.420 . S
O545 C530 1.202 . S
O546 U526 2.455 . S
O546 C543 1.301 . S
O547 U526 2.449 . S
O547 C543 1.282 . S
H548 C521 0.931 . S
H549 C523 0.929 . S
H550 C524 0.930 . S
H551 C525 0.931 . S
H552 C532 0.932 . S
H553 C533 0.930 . S
H554 C534 0.929 . S
H555 C536 0.930 . S
H556 C538 0.932 . S
H557 C539 0.929 . S
H558 C540 0.928 . S
H559 C542 0.932 . S
C560 C561 1.264 . S
C560 C565 1.479 . S
C560 C570 1.465 . S
C561 C560 1.264 . S
C561 C563 1.339 . S
C561 H588 0.931 . S
C562 C563 1.395 . S
C562 C564 1.320 . S
C563 C561 1.339 . S
C563 C562 1.395 . S
C563 H589 0.929 . S
C564 C562 1.320 . S
C564 C565 1.405 . S
C564 H590 0.921 1_565 S
C565 C560 1.479 . S
C565 C564 1.405 . S
C565 H591 0.931 . S
U566 O567 2.454 . S
U566 O568 2.458 . S
U566 C569 2.984 . S
U566 C570 2.847 . S
U566 C583 2.882 . S
U566 O584 2.441 . S
U566 O585 2.420 . S
U566 O586 2.455 . S
U566 O587 2.449 . S
O567 U566 2.454 . S
O567 C569 1.353 . S
O568 U566 2.458 . S
O568 C569 1.286 . S
C569 U566 2.984 . S
C569 O567 1.353 . S
C569 O568 1.286 . S
C569 C571 1.363 . S
C570 C560 1.465 . S
C570 U566 2.847 . S
C570 O584 1.249 . S
C570 O585 1.202 . S
C571 C569 1.363 . S
C571 C573 1.408 . S
C571 C576 1.342 . S
C572 C573 1.310 . S
C572 C575 1.460 . S
C572 H592 0.932 . S
C573 C571 1.408 . S
C573 C572 1.310 . S
C573 H593 0.930 . S
C574 C575 1.475 1_545 S
C574 C576 1.286 1_545 S
C574 H594 0.930 . S
C575 C572 1.460 . S
C575 C574 1.475 1_565 S
C576 C571 1.342 . S
C576 C574 1.286 1_565 S
C576 H595 0.929 . S
C577 C580 1.424 . S
C577 C582 1.245 . S
C577 C583 1.428 . S
C578 C581 1.260 . S
C578 C582 1.477 . S
C578 H596 0.932 . S
C579 C580 1.384 . S
C579 C581 1.479 . S
C579 H597 0.929 . S
C580 C577 1.424 . S
C580 C579 1.384 . S
C580 H598 0.928 . S
C581 C578 1.260 . S
C581 C579 1.479 . S
C582 C577 1.245 . S
C582 C578 1.477 . S
C582 H599 0.932 . S
C583 U566 2.882 . S
C583 C577 1.428 . S
C583 O586 1.301 . S
C583 O587 1.282 . S
O584 U566 2.441 . S
O584 C570 1.249 . S
O585 U566 2.420 . S
O585 C570 1.202 . S
O586 U566 2.455 . S
O586 C583 1.301 . S
O587 U566 2.449 . S
O587 C583 1.282 . S
H588 C561 0.931 . S
H589 C563 0.929 . S
H590 C564 0.921 1_545 S
H591 C565 0.931 . S
H592 C572 0.932 . S
H593 C573 0.930 . S
H594 C574 0.930 . S
H595 C576 0.929 . S
H596 C578 0.932 . S
H597 C579 0.929 . S
H598 C580 0.928 . S
H599 C582 0.932 . S
C600 C601 1.264 1_565 S
C600 C605 1.477 . S
C600 C610 1.467 1_565 S
C601 C600 1.264 1_545 S
C601 C603 1.339 1_545 S
C601 H628 0.931 . S
C602 C603 1.395 . S
C602 C604 1.320 . S
C603 C601 1.339 1_565 S
C603 C602 1.395 . S
C603 H629 0.926 1_565 S
C604 C602 1.320 . S
C604 C605 1.405 . S
C604 H630 0.930 . S
C605 C600 1.477 . S
C605 C604 1.405 . S
C605 H631 0.931 . S
U606 O607 2.454 1_545 S
U606 O608 2.458 . S
U606 C609 2.984 1_545 S
U606 C610 2.847 . S
U606 C623 2.882 . S
U606 O624 2.441 . S
U606 O625 2.420 . S
U606 O626 2.455 . S
U606 O627 2.449 . S
O607 U606 2.454 1_565 S
O607 C609 1.354 . S
O608 U606 2.458 . S
O608 C609 1.285 1_545 S
C609 U606 2.984 1_565 S
C609 O607 1.354 . S
C609 O608 1.285 1_565 S
C609 C611 1.363 . S
C610 C600 1.467 1_545 S
C610 U606 2.847 . S
C610 O624 1.249 . S
C610 O625 1.202 . S
C611 C609 1.363 . S
C611 C613 1.408 . S
C611 C616 1.342 . S
C612 C613 1.310 . S
C612 C615 1.461 . S
C612 H632 0.932 . S
C613 C611 1.408 . S
C613 C612 1.310 . S
C613 H633 0.930 . S
C614 C615 1.474 . S
C614 C616 1.285 . S
C614 H634 0.929 . S
C615 C612 1.461 . S
C615 C614 1.474 . S
C616 C611 1.342 . S
C616 C614 1.285 . S
C616 H635 0.934 . S
C617 C620 1.424 . S
C617 C622 1.245 . S
C617 C623 1.428 . S
C618 C621 1.260 . S
C618 C622 1.477 . S
C618 H636 0.932 . S
C619 C620 1.384 . S
C619 C621 1.479 . S
C619 H637 0.929 . S
C620 C617 1.424 . S
C620 C619 1.384 . S
C620 H638 0.928 . S
C621 C618 1.260 . S
C621 C619 1.479 . S
C622 C617 1.245 . S
C622 C618 1.477 . S
C622 H639 0.932 . S
C623 U606 2.882 . S
C623 C617 1.428 . S
C623 O626 1.301 . S
C623 O627 1.282 . S
O624 U606 2.441 . S
O624 C610 1.249 . S
O625 U606 2.420 . S
O625 C610 1.202 . S
O626 U606 2.455 . S
O626 C623 1.301 . S
O627 U606 2.449 . S
O627 C623 1.282 . S
H628 C601 0.931 . S
H629 C603 0.926 1_545 S
H630 C604 0.930 . S
H631 C605 0.931 . S
H632 C612 0.932 . S
H633 C613 0.930 . S
H634 C614 0.929 . S
H635 C616 0.934 . S
H636 C618 0.932 . S
H637 C619 0.929 . S
H638 C620 0.928 . S
H639 C622 0.932 . S
C640 C641 1.264 . S
C640 C645 1.479 . S
C640 C650 1.465 . S
C641 C640 1.264 . S
C641 C643 1.339 . S
C641 H668 0.931 . S
C642 C643 1.395 . S
C642 C644 1.320 . S
C643 C641 1.339 . S
C643 C642 1.395 . S
C643 H669 0.929 . S
C644 C642 1.320 . S
C644 C645 1.405 . S
C644 H670 0.930 . S
C645 C640 1.479 . S
C645 C644 1.405 . S
C645 H671 0.931 . S
U646 O647 2.454 . S
U646 O648 2.458 . S
U646 C649 2.984 . S
U646 C650 2.847 . S
U646 C663 2.882 . S
U646 O664 2.441 . S
U646 O665 2.420 . S
U646 O666 2.455 . S
U646 O667 2.449 . S
O647 U646 2.454 . S
O647 C649 1.353 . S
O648 U646 2.458 . S
O648 C649 1.286 . S
C649 U646 2.984 . S
C649 O647 1.353 . S
C649 O648 1.286 . S
C649 C651 1.363 . S
C650 C640 1.465 . S
C650 U646 2.847 . S
C650 O664 1.249 . S
C650 O665 1.202 . S
C651 C649 1.363 . S
C651 C653 1.408 . S
C651 C656 1.342 . S
C652 C653 1.310 . S
C652 C655 1.461 . S
C652 H672 0.932 . S
C653 C651 1.408 . S
C653 C652 1.310 . S
C653 H673 0.930 . S
C654 C655 1.474 . S
C654 C656 1.285 . S
C654 H674 0.929 . S
C655 C652 1.461 . S
C655 C654 1.474 . S
C656 C651 1.342 . S
C656 C654 1.285 . S
C656 H675 0.930 . S
C657 C660 1.424 . S
C657 C662 1.245 . S
C657 C663 1.428 . S
C658 C661 1.260 . S
C658 C662 1.477 . S
C658 H676 0.932 . S
C659 C660 1.384 . S
C659 C661 1.479 . S
C659 H677 0.929 . S
C660 C657 1.424 . S
C660 C659 1.384 . S
C660 H678 0.928 . S
C661 C658 1.260 . S
C661 C659 1.479 . S
C662 C657 1.245 . S
C662 C658 1.477 . S
C662 H679 0.932 . S
C663 U646 2.882 . S
C663 C657 1.428 . S
C663 O666 1.301 . S
C663 O667 1.282 . S
O664 U646 2.441 . S
O664 C650 1.249 . S
O665 U646 2.420 . S
O665 C650 1.202 . S
O666 U646 2.455 . S
O666 C663 1.301 . S
O667 U646 2.449 . S
O667 C663 1.282 . S
H668 C641 0.931 . S
H669 C643 0.929 . S
H670 C644 0.930 . S
H671 C645 0.931 . S
H672 C652 0.932 . S
H673 C653 0.930 . S
H674 C654 0.929 . S
H675 C656 0.930 . S
H676 C658 0.932 . S
H677 C659 0.929 . S
H678 C660 0.928 . S
H679 C662 0.932 . S
C680 C681 1.264 1_556 S
C680 C685 1.477 . S
C680 C690 1.467 1_556 S
C681 C680 1.264 1_554 S
C681 C683 1.339 1_554 S
C681 H708 0.931 . S
C682 C683 1.395 . S
C682 C684 1.320 . S
C683 C681 1.339 1_556 S
C683 C682 1.395 . S
C683 H709 0.926 1_556 S
C684 C682 1.320 . S
C684 C685 1.405 . S
C684 H710 0.930 . S
C685 C680 1.477 . S
C685 C684 1.405 . S
C685 H711 0.931 . S
U686 O687 2.454 1_554 S
U686 O688 2.458 . S
U686 C689 2.984 1_554 S
U686 C690 2.847 . S
U686 C703 2.882 . S
U686 O704 2.441 . S
U686 O705 2.420 . S
U686 O706 2.455 . S
U686 O707 2.449 . S
O687 U686 2.454 1_556 S
O687 C689 1.354 . S
O688 U686 2.458 . S
O688 C689 1.285 1_554 S
C689 U686 2.984 1_556 S
C689 O687 1.354 . S
C689 O688 1.285 1_556 S
C689 C691 1.363 . S
C690 C680 1.467 1_554 S
C690 U686 2.847 . S
C690 O704 1.249 . S
C690 O705 1.202 . S
C691 C689 1.363 . S
C691 C693 1.408 . S
C691 C696 1.342 . S
C692 C693 1.310 . S
C692 C695 1.461 . S
C692 H712 0.932 . S
C693 C691 1.408 . S
C693 C692 1.310 . S
C693 H713 0.930 . S
C694 C695 1.474 . S
C694 C696 1.285 . S
C694 H714 0.929 . S
C695 C692 1.461 . S
C695 C694 1.474 . S
C696 C691 1.342 . S
C696 C694 1.285 . S
C696 H715 0.934 . S
C697 C700 1.424 . S
C697 C702 1.245 . S
C697 C703 1.428 . S
C698 C701 1.260 . S
C698 C702 1.477 . S
C698 H716 0.932 . S
C699 C700 1.384 . S
C699 C701 1.479 . S
C699 H717 0.929 . S
C700 C697 1.424 . S
C700 C699 1.384 . S
C700 H718 0.928 . S
C701 C698 1.260 . S
C701 C699 1.479 . S
C702 C697 1.245 . S
C702 C698 1.477 . S
C702 H719 0.932 . S
C703 U686 2.882 . S
C703 C697 1.428 . S
C703 O706 1.301 . S
C703 O707 1.282 . S
O704 U686 2.441 . S
O704 C690 1.249 . S
O705 U686 2.420 . S
O705 C690 1.202 . S
O706 U686 2.455 . S
O706 C703 1.301 . S
O707 U686 2.449 . S
O707 C703 1.282 . S
H708 C681 0.931 . S
H709 C683 0.926 1_554 S
H710 C684 0.930 . S
H711 C685 0.931 . S
H712 C692 0.932 . S
H713 C693 0.930 . S
H714 C694 0.929 . S
H715 C696 0.934 . S
H716 C698 0.932 . S
H717 C699 0.929 . S
H718 C700 0.928 . S
H719 C702 0.932 . S
C720 C721 1.264 . S
C720 C725 1.479 . S
C720 C730 1.465 . S
C721 C720 1.264 . S
C721 C723 1.339 . S
C721 H748 0.931 . S
C722 C723 1.395 . S
C722 C724 1.320 . S
C723 C721 1.339 . S
C723 C722 1.395 . S
C723 H749 0.929 . S
C724 C722 1.320 . S
C724 C725 1.405 . S
C724 H750 0.930 . S
C725 C720 1.479 . S
C725 C724 1.405 . S
C725 H751 0.931 . S
U726 O727 2.454 . S
U726 O728 2.458 . S
U726 C729 2.984 . S
U726 C730 2.847 . S
U726 C743 2.882 . S
U726 O744 2.441 . S
U726 O745 2.420 . S
U726 O746 2.455 . S
U726 O747 2.449 . S
O727 U726 2.454 . S
O727 C729 1.353 . S
O728 U726 2.458 . S
O728 C729 1.286 . S
C729 U726 2.984 . S
C729 O727 1.353 . S
C729 O728 1.286 . S
C729 C731 1.363 . S
C730 C720 1.465 . S
C730 U726 2.847 . S
C730 O744 1.249 . S
C730 O745 1.202 . S
C731 C729 1.363 . S
C731 C733 1.408 . S
C731 C736 1.342 . S
C732 C733 1.310 . S
C732 C735 1.461 . S
C732 H752 0.932 . S
C733 C731 1.408 . S
C733 C732 1.310 . S
C733 H753 0.930 . S
C734 C735 1.474 . S
C734 C736 1.285 . S
C734 H754 0.929 . S
C735 C732 1.461 . S
C735 C734 1.474 . S
C736 C731 1.342 . S
C736 C734 1.285 . S
C736 H755 0.930 . S
C737 C740 1.424 . S
C737 C742 1.245 . S
C737 C743 1.428 . S
C738 C741 1.260 . S
C738 C742 1.477 . S
C738 H756 0.932 . S
C739 C740 1.384 . S
C739 C741 1.479 . S
C739 H757 0.929 . S
C740 C737 1.424 . S
C740 C739 1.384 . S
C740 H758 0.928 . S
C741 C738 1.260 . S
C741 C739 1.479 . S
C742 C737 1.245 . S
C742 C738 1.477 . S
C742 H759 0.932 . S
C743 U726 2.882 . S
C743 C737 1.428 . S
C743 O746 1.301 . S
C743 O747 1.282 . S
O744 U726 2.441 . S
O744 C730 1.249 . S
O745 U726 2.420 . S
O745 C730 1.202 . S
O746 U726 2.455 . S
O746 C743 1.301 . S
O747 U726 2.449 . S
O747 C743 1.282 . S
H748 C721 0.931 . S
H749 C723 0.929 . S
H750 C724 0.930 . S
H751 C725 0.931 . S
H752 C732 0.932 . S
H753 C733 0.930 . S
H754 C734 0.929 . S
H755 C736 0.930 . S
H756 C738 0.932 . S
H757 C739 0.929 . S
H758 C740 0.928 . S
H759 C742 0.932 . S
C760 C761 1.264 . S
C760 C765 1.479 . S
C760 C770 1.465 . S
C761 C760 1.264 . S
C761 C763 1.339 . S
C761 H788 0.931 . S
C762 C763 1.395 . S
C762 C764 1.320 . S
C763 C761 1.339 . S
C763 C762 1.395 . S
C763 H789 0.929 . S
C764 C762 1.320 . S
C764 C765 1.405 . S
C764 H790 0.921 1_556 S
C765 C760 1.479 . S
C765 C764 1.405 . S
C765 H791 0.931 . S
U766 O767 2.454 . S
U766 O768 2.458 . S
U766 C769 2.984 . S
U766 C770 2.847 . S
U766 C783 2.882 . S
U766 O784 2.441 . S
U766 O785 2.420 . S
U766 O786 2.455 . S
U766 O787 2.449 . S
O767 U766 2.454 . S
O767 C769 1.353 . S
O768 U766 2.458 . S
O768 C769 1.286 . S
C769 U766 2.984 . S
C769 O767 1.353 . S
C769 O768 1.286 . S
C769 C771 1.363 . S
C770 C760 1.465 . S
C770 U766 2.847 . S
C770 O784 1.249 . S
C770 O785 1.202 . S
C771 C769 1.363 . S
C771 C773 1.408 . S
C771 C776 1.342 . S
C772 C773 1.310 . S
C772 C775 1.460 . S
C772 H792 0.932 . S
C773 C771 1.408 . S
C773 C772 1.310 . S
C773 H793 0.930 . S
C774 C775 1.475 1_554 S
C774 C776 1.286 1_554 S
C774 H794 0.930 . S
C775 C772 1.460 . S
C775 C774 1.475 1_556 S
C776 C771 1.342 . S
C776 C774 1.286 1_556 S
C776 H795 0.929 . S
C777 C780 1.424 . S
C777 C782 1.245 . S
C777 C783 1.428 . S
C778 C781 1.260 . S
C778 C782 1.477 . S
C778 H796 0.932 . S
C779 C780 1.384 . S
C779 C781 1.479 . S
C779 H797 0.929 . S
C780 C777 1.424 . S
C780 C779 1.384 . S
C780 H798 0.928 . S
C781 C778 1.260 . S
C781 C779 1.479 . S
C782 C777 1.245 . S
C782 C778 1.477 . S
C782 H799 0.932 . S
C783 U766 2.882 . S
C783 C777 1.428 . S
C783 O786 1.301 . S
C783 O787 1.282 . S
O784 U766 2.441 . S
O784 C770 1.249 . S
O785 U766 2.420 . S
O785 C770 1.202 . S
O786 U766 2.455 . S
O786 C783 1.301 . S
O787 U766 2.449 . S
O787 C783 1.282 . S
H788 C761 0.931 . S
H789 C763 0.929 . S
H790 C764 0.921 1_554 S
H791 C765 0.931 . S
H792 C772 0.932 . S
H793 C773 0.930 . S
H794 C774 0.930 . S
H795 C776 0.929 . S
H796 C778 0.932 . S
H797 C779 0.929 . S
H798 C780 0.928 . S
H799 C782 0.932 . S
C800 C801 1.264 . S
C800 C805 1.479 . S
C800 C810 1.465 . S
C801 C800 1.264 . S
C801 C803 1.339 . S
C801 H828 0.931 . S
C802 C803 1.395 . S
C802 C804 1.320 . S
C803 C801 1.339 . S
C803 C802 1.395 . S
C803 H829 0.929 . S
C804 C802 1.320 . S
C804 C805 1.405 . S
C804 H830 0.930 . S
C805 C800 1.479 . S
C805 C804 1.405 . S
C805 H831 0.931 . S
U806 O807 2.454 . S
U806 O808 2.458 . S
U806 C809 2.984 . S
U806 C810 2.847 . S
U806 C823 2.882 . S
U806 O824 2.441 . S
U806 O825 2.420 . S
U806 O826 2.455 . S
U806 O827 2.449 . S
O807 U806 2.454 . S
O807 C809 1.353 . S
O808 U806 2.458 . S
O808 C809 1.286 . S
C809 U806 2.984 . S
C809 O807 1.353 . S
C809 O808 1.286 . S
C809 C811 1.363 . S
C810 C800 1.465 . S
C810 U806 2.847 . S
C810 O824 1.249 . S
C810 O825 1.202 . S
C811 C809 1.363 . S
C811 C813 1.408 . S
C811 C816 1.342 . S
C812 C813 1.310 . S
C812 C815 1.461 . S
C812 H832 0.932 . S
C813 C811 1.408 . S
C813 C812 1.310 . S
C813 H833 0.930 . S
C814 C815 1.474 . S
C814 C816 1.285 . S
C814 H834 0.929 . S
C815 C812 1.461 . S
C815 C814 1.474 . S
C816 C811 1.342 . S
C816 C814 1.285 . S
C816 H835 0.930 . S
C817 C820 1.424 . S
C817 C822 1.245 . S
C817 C823 1.428 . S
C818 C821 1.260 . S
C818 C822 1.477 . S
C818 H836 0.932 . S
C819 C820 1.384 . S
C819 C821 1.479 . S
C819 H837 0.929 . S
C820 C817 1.424 . S
C820 C819 1.384 . S
C820 H838 0.928 . S
C821 C818 1.260 . S
C821 C819 1.479 . S
C822 C817 1.245 . S
C822 C818 1.477 . S
C822 H839 0.932 . S
C823 U806 2.882 . S
C823 C817 1.428 . S
C823 O826 1.301 . S
C823 O827 1.282 . S
O824 U806 2.441 . S
O824 C810 1.249 . S
O825 U806 2.420 . S
O825 C810 1.202 . S
O826 U806 2.455 . S
O826 C823 1.301 . S
O827 U806 2.449 . S
O827 C823 1.282 . S
H828 C801 0.931 . S
H829 C803 0.929 . S
H830 C804 0.930 . S
H831 C805 0.931 . S
H832 C812 0.932 . S
H833 C813 0.930 . S
H834 C814 0.929 . S
H835 C816 0.930 . S
H836 C818 0.932 . S
H837 C819 0.929 . S
H838 C820 0.928 . S
H839 C822 0.932 . S
C840 C841 1.264 1_655 S
C840 C845 1.477 . S
C840 C850 1.467 1_655 S
C841 C840 1.264 1_455 S
C841 C843 1.339 1_455 S
C841 H868 0.931 . S
C842 C843 1.395 . S
C842 C844 1.320 . S
C843 C841 1.339 1_655 S
C843 C842 1.395 . S
C843 H869 0.926 1_655 S
C844 C842 1.320 . S
C844 C845 1.405 . S
C844 H870 0.930 . S
C845 C840 1.477 . S
C845 C844 1.405 . S
C845 H871 0.931 . S
U846 O847 2.454 1_455 S
U846 O848 2.458 . S
U846 C849 2.984 1_455 S
U846 C850 2.847 . S
U846 C863 2.882 . S
U846 O864 2.441 . S
U846 O865 2.420 . S
U846 O866 2.455 . S
U846 O867 2.449 . S
O847 U846 2.454 1_655 S
O847 C849 1.354 . S
O848 U846 2.458 . S
O848 C849 1.286 1_455 S
C849 U846 2.984 1_655 S
C849 O847 1.354 . S
C849 O848 1.286 1_655 S
C849 C851 1.363 . S
C850 C840 1.467 1_455 S
C850 U846 2.847 . S
C850 O864 1.249 . S
C850 O865 1.202 . S
C851 C849 1.363 . S
C851 C853 1.408 . S
C851 C856 1.342 . S
C852 C853 1.310 . S
C852 C855 1.461 . S
C852 H872 0.932 . S
C853 C851 1.408 . S
C853 C852 1.310 . S
C853 H873 0.930 . S
C854 C855 1.474 . S
C854 C856 1.285 . S
C854 H874 0.929 . S
C855 C852 1.461 . S
C855 C854 1.474 . S
C856 C851 1.342 . S
C856 C854 1.285 . S
C856 H875 0.934 . S
C857 C860 1.424 . S
C857 C862 1.245 . S
C857 C863 1.428 . S
C858 C861 1.260 . S
C858 C862 1.477 . S
C858 H876 0.932 . S
C859 C860 1.384 . S
C859 C861 1.479 . S
C859 H877 0.929 . S
C860 C857 1.424 . S
C860 C859 1.384 . S
C860 H878 0.928 . S
C861 C858 1.260 . S
C861 C859 1.479 . S
C862 C857 1.245 . S
C862 C858 1.477 . S
C862 H879 0.932 . S
C863 U846 2.882 . S
C863 C857 1.428 . S
C863 O866 1.301 . S
C863 O867 1.282 . S
O864 U846 2.441 . S
O864 C850 1.249 . S
O865 U846 2.420 . S
O865 C850 1.202 . S
O866 U846 2.455 . S
O866 C863 1.301 . S
O867 U846 2.449 . S
O867 C863 1.282 . S
H868 C841 0.931 . S
H869 C843 0.926 1_455 S
H870 C844 0.930 . S
H871 C845 0.931 . S
H872 C852 0.932 . S
H873 C853 0.930 . S
H874 C854 0.929 . S
H875 C856 0.934 . S
H876 C858 0.932 . S
H877 C859 0.929 . S
H878 C860 0.928 . S
H879 C862 0.932 . S
C880 C881 1.264 . S
C880 C885 1.479 . S
C880 C890 1.465 . S
C881 C880 1.264 . S
C881 C883 1.339 . S
C881 H908 0.931 . S
C882 C883 1.395 . S
C882 C884 1.320 . S
C883 C881 1.339 . S
C883 C882 1.395 . S
C883 H909 0.929 . S
C884 C882 1.320 . S
C884 C885 1.405 . S
C884 H910 0.930 . S
C885 C880 1.479 . S
C885 C884 1.405 . S
C885 H911 0.931 . S
U886 O887 2.454 . S
U886 O888 2.458 . S
U886 C889 2.984 . S
U886 C890 2.847 . S
U886 C903 2.882 . S
U886 O904 2.441 . S
U886 O905 2.420 . S
U886 O906 2.455 . S
U886 O907 2.449 . S
O887 U886 2.454 . S
O887 C889 1.353 . S
O888 U886 2.458 . S
O888 C889 1.286 . S
C889 U886 2.984 . S
C889 O887 1.353 . S
C889 O888 1.286 . S
C889 C891 1.363 . S
C890 C880 1.465 . S
C890 U886 2.847 . S
C890 O904 1.249 . S
C890 O905 1.202 . S
C891 C889 1.363 . S
C891 C893 1.408 . S
C891 C896 1.342 . S
C892 C893 1.310 . S
C892 C895 1.461 . S
C892 H912 0.932 . S
C893 C891 1.408 . S
C893 C892 1.310 . S
C893 H913 0.930 . S
C894 C895 1.474 . S
C894 C896 1.285 . S
C894 H914 0.929 . S
C895 C892 1.461 . S
C895 C894 1.474 . S
C896 C891 1.342 . S
C896 C894 1.285 . S
C896 H915 0.930 . S
C897 C900 1.424 . S
C897 C902 1.245 . S
C897 C903 1.428 . S
C898 C901 1.260 . S
C898 C902 1.477 . S
C898 H916 0.932 . S
C899 C900 1.384 . S
C899 C901 1.479 . S
C899 H917 0.929 . S
C900 C897 1.424 . S
C900 C899 1.384 . S
C900 H918 0.928 . S
C901 C898 1.260 . S
C901 C899 1.479 . S
C902 C897 1.245 . S
C902 C898 1.477 . S
C902 H919 0.932 . S
C903 U886 2.882 . S
C903 C897 1.428 . S
C903 O906 1.301 . S
C903 O907 1.282 . S
O904 U886 2.441 . S
O904 C890 1.249 . S
O905 U886 2.420 . S
O905 C890 1.202 . S
O906 U886 2.455 . S
O906 C903 1.301 . S
O907 U886 2.449 . S
O907 C903 1.282 . S
H908 C881 0.931 . S
H909 C883 0.929 . S
H910 C884 0.930 . S
H911 C885 0.931 . S
H912 C892 0.932 . S
H913 C893 0.930 . S
H914 C894 0.929 . S
H915 C896 0.930 . S
H916 C898 0.932 . S
H917 C899 0.929 . S
H918 C900 0.928 . S
H919 C902 0.932 . S
C920 C921 1.264 . S
C920 C925 1.479 . S
C920 C930 1.465 . S
C921 C920 1.264 . S
C921 C923 1.339 . S
C921 H948 0.931 . S
C922 C923 1.395 . S
C922 C924 1.320 . S
C923 C921 1.339 . S
C923 C922 1.395 . S
C923 H949 0.929 . S
C924 C922 1.320 . S
C924 C925 1.405 . S
C924 H950 0.921 1_655 S
C925 C920 1.479 . S
C925 C924 1.405 . S
C925 H951 0.931 . S
U926 O927 2.454 . S
U926 O928 2.458 . S
U926 C929 2.984 . S
U926 C930 2.847 . S
U926 C943 2.882 . S
U926 O944 2.441 . S
U926 O945 2.420 . S
U926 O946 2.455 . S
U926 O947 2.449 . S
O927 U926 2.454 . S
O927 C929 1.353 . S
O928 U926 2.458 . S
O928 C929 1.286 . S
C929 U926 2.984 . S
C929 O927 1.353 . S
C929 O928 1.286 . S
C929 C931 1.363 . S
C930 C920 1.465 . S
C930 U926 2.847 . S
C930 O944 1.249 . S
C930 O945 1.202 . S
C931 C929 1.363 . S
C931 C933 1.408 . S
C931 C936 1.342 . S
C932 C933 1.310 . S
C932 C935 1.460 . S
C932 H952 0.932 . S
C933 C931 1.408 . S
C933 C932 1.310 . S
C933 H953 0.930 . S
C934 C935 1.475 1_455 S
C934 C936 1.286 1_455 S
C934 H954 0.930 . S
C935 C932 1.460 . S
C935 C934 1.475 1_655 S
C936 C931 1.342 . S
C936 C934 1.286 1_655 S
C936 H955 0.929 . S
C937 C940 1.424 . S
C937 C942 1.245 . S
C937 C943 1.428 . S
C938 C941 1.260 . S
C938 C942 1.477 . S
C938 H956 0.932 . S
C939 C940 1.384 . S
C939 C941 1.479 . S
C939 H957 0.929 . S
C940 C937 1.424 . S
C940 C939 1.384 . S
C940 H958 0.928 . S
C941 C938 1.260 . S
C941 C939 1.479 . S
C942 C937 1.245 . S
C942 C938 1.477 . S
C942 H959 0.932 . S
C943 U926 2.882 . S
C943 C937 1.428 . S
C943 O946 1.301 . S
C943 O947 1.282 . S
O944 U926 2.441 . S
O944 C930 1.249 . S
O945 U926 2.420 . S
O945 C930 1.202 . S
O946 U926 2.455 . S
O946 C943 1.301 . S
O947 U926 2.449 . S
O947 C943 1.282 . S
H948 C921 0.931 . S
H949 C923 0.929 . S
H950 C924 0.921 1_455 S
H951 C925 0.931 . S
H952 C932 0.932 . S
H953 C933 0.930 . S
H954 C934 0.930 . S
H955 C936 0.929 . S
H956 C938 0.932 . S
H957 C939 0.929 . S
H958 C940 0.928 . S
H959 C942 0.932 . S
H960 C965 0.930 . S
H961 C968 0.930 . S
H962 C970 0.930 . S
H963 C964 1.016 . S
C964 H963 1.016 . S
C964 N971 1.286 . S
C965 H960 0.930 . S
C965 C966 1.397 . S
C965 C967 1.361 . S
C966 C965 1.397 . S
C966 C970 1.390 . S
C967 C965 1.361 . S
C967 C968 1.393 . S
C967 N971 1.413 . S
C968 H961 0.930 . S
C968 C967 1.393 . S
C968 C969 1.399 . S
C969 C968 1.399 . S
C969 C970 1.381 . S
C970 H962 0.930 . S
C970 C966 1.390 . S
C970 C969 1.381 . S
N971 C964 1.286 . S
N971 C967 1.413 . S
H972 C977 0.930 . S
H973 C980 0.930 . S
H974 C982 0.930 . S
H975 C976 1.016 1_556 S
C976 H975 1.016 1_554 S
C976 N983 1.286 . S
C977 H972 0.930 . S
C977 C978 1.397 . S
C977 C979 1.361 . S
C978 C977 1.397 . S
C978 C982 1.390 1_554 S
C979 C977 1.361 . S
C979 C980 1.393 1_554 S
C979 N983 1.413 . S
C980 H973 0.930 . S
C980 C979 1.393 1_556 S
C980 C981 1.399 . S
C981 C980 1.399 . S
C981 C982 1.381 . S
C982 H974 0.930 . S
C982 C978 1.390 1_556 S
C982 C981 1.381 . S
N983 C976 1.286 . S
N983 C979 1.413 . S
H984 C989 0.930 . S
H985 C992 0.930 . S
H986 C994 0.930 . S
H987 C988 1.016 . S
C988 H987 1.016 . S
C988 N995 1.286 . S
C989 H984 0.930 . S
C989 C990 1.397 . S
C989 C991 1.361 1_565 S
C990 C989 1.397 . S
C990 C994 1.390 . S
C991 C989 1.361 1_545 S
C991 C992 1.393 . S
C991 N995 1.413 . S
C992 H985 0.930 . S
C992 C991 1.393 . S
C992 C993 1.399 1_545 S
C993 C992 1.399 1_565 S
C993 C994 1.381 . S
C994 H986 0.930 . S
C994 C990 1.390 . S
C994 C993 1.381 . S
N995 C988 1.286 . S
N995 C991 1.413 . S
H996 C1001 0.930 . S
H997 C1004 0.930 . S
H998 C1006 0.930 . S
H999 C1000 1.071 . S
C1000 H999 1.071 . S
C1000 N1007 1.286 . S
C1001 H996 0.930 . S
C1001 C1002 1.397 . S
C1001 C1003 1.361 . S
C1002 C1001 1.397 . S
C1002 C1006 1.390 1_556 S
C1003 C1001 1.361 . S
C1003 C1004 1.393 1_556 S
C1003 N1007 1.413 . S
C1004 H997 0.930 . S
C1004 C1003 1.393 1_554 S
C1004 C1005 1.399 . S
C1005 C1004 1.399 . S
C1005 C1006 1.381 . S
C1006 H998 0.930 . S
C1006 C1002 1.390 1_554 S
C1006 C1005 1.381 . S
N1007 C1000 1.286 . S
N1007 C1003 1.413 . S
H1008 C1013 0.930 . S
H1009 C1016 0.930 . S
H1010 C1018 0.930 . S
H1011 C1012 1.016 . S
C1012 H1011 1.016 . S
C1012 N1019 1.286 . S
C1013 H1008 0.930 . S
C1013 C1014 1.397 . S
C1013 C1015 1.361 . S
C1014 C1013 1.397 . S
C1014 C1018 1.390 . S
C1015 C1013 1.361 . S
C1015 C1016 1.393 . S
C1015 N1019 1.413 . S
C1016 H1009 0.930 . S
C1016 C1015 1.393 . S
C1016 C1017 1.399 . S
C1017 C1016 1.399 . S
C1017 C1018 1.381 . S
C1018 H1010 0.930 . S
C1018 C1014 1.390 . S
C1018 C1017 1.381 . S
N1019 C1012 1.286 . S
N1019 C1015 1.413 . S
H1020 C1025 0.930 . S
H1021 C1028 0.930 . S
H1022 C1030 0.930 . S
H1023 C1024 1.071 . S
C1024 H1023 1.071 . S
C1024 N1031 1.286 . S
C1025 H1020 0.930 . S
C1025 C1026 1.397 . S
C1025 C1027 1.361 . S
C1026 C1025 1.397 . S
C1026 C1030 1.390 1_655 S
C1027 C1025 1.361 . S
C1027 C1028 1.393 1_655 S
C1027 N1031 1.413 . S
C1028 H1021 0.930 . S
C1028 C1027 1.393 1_455 S
C1028 C1029 1.399 . S
C1029 C1028 1.399 . S
C1029 C1030 1.381 . S
C1030 H1022 0.930 . S
C1030 C1026 1.390 1_455 S
C1030 C1029 1.381 . S
N1031 C1024 1.286 . S
N1031 C1027 1.413 . S
H1032 C1037 0.930 . S
H1033 C1040 0.930 . S
H1034 C1042 0.930 . S
H1035 C1036 1.016 1_655 S
C1036 H1035 1.016 1_455 S
C1036 N1043 1.286 . S
C1037 H1032 0.930 . S
C1037 C1038 1.397 . S
C1037 C1039 1.361 . S
C1038 C1037 1.397 . S
C1038 C1042 1.390 1_455 S
C1039 C1037 1.361 . S
C1039 C1040 1.393 1_455 S
C1039 N1043 1.413 . S
C1040 H1033 0.930 . S
C1040 C1039 1.393 1_655 S
C1040 C1041 1.399 . S
C1041 C1040 1.399 . S
C1041 C1042 1.381 . S
C1042 H1034 0.930 . S
C1042 C1038 1.390 1_655 S
C1042 C1041 1.381 . S
N1043 C1036 1.286 . S
N1043 C1039 1.413 . S
H1044 C1049 0.930 . S
H1045 C1052 0.930 . S
H1046 C1054 0.930 . S
H1047 C1048 1.016 . S
C1048 H1047 1.016 . S
C1048 N1055 1.286 . S
C1049 H1044 0.930 . S
C1049 C1050 1.397 . S
C1049 C1051 1.361 1_556 S
C1050 C1049 1.397 . S
C1050 C1054 1.390 . S
C1051 C1049 1.361 1_554 S
C1051 C1052 1.393 . S
C1051 N1055 1.413 . S
C1052 H1045 0.930 . S
C1052 C1051 1.393 . S
C1052 C1053 1.399 1_554 S
C1053 C1052 1.399 1_556 S
C1053 C1054 1.381 . S
C1054 H1046 0.930 . S
C1054 C1050 1.390 . S
C1054 C1053 1.381 . S
N1055 C1048 1.286 . S
N1055 C1051 1.413 . S
H1056 C1061 0.930 . S
H1057 C1064 0.930 . S
H1058 C1066 0.930 . S
H1059 C1060 1.016 . S
C1060 H1059 1.016 . S
C1060 N1067 1.286 . S
C1061 H1056 0.930 . S
C1061 C1062 1.397 . S
C1061 C1063 1.361 . S
C1062 C1061 1.397 . S
C1062 C1066 1.390 . S
C1063 C1061 1.361 . S
C1063 C1064 1.393 . S
C1063 N1067 1.413 . S
C1064 H1057 0.930 . S
C1064 C1063 1.393 . S
C1064 C1065 1.399 . S
C1065 C1064 1.399 . S
C1065 C1066 1.381 . S
C1066 H1058 0.930 . S
C1066 C1062 1.390 . S
C1066 C1065 1.381 . S
N1067 C1060 1.286 . S
N1067 C1063 1.413 . S
H1068 C1073 0.930 . S
H1069 C1076 0.930 . S
H1070 C1078 0.930 . S
H1071 C1072 1.071 . S
C1072 H1071 1.071 . S
C1072 N1079 1.286 . S
C1073 H1068 0.930 . S
C1073 C1074 1.397 . S
C1073 C1075 1.361 . S
C1074 C1073 1.397 . S
C1074 C1078 1.390 1_565 S
C1075 C1073 1.361 . S
C1075 C1076 1.393 1_565 S
C1075 N1079 1.413 . S
C1076 H1069 0.930 . S
C1076 C1075 1.393 1_545 S
C1076 C1077 1.399 . S
C1077 C1076 1.399 . S
C1077 C1078 1.381 . S
C1078 H1070 0.930 . S
C1078 C1074 1.390 1_545 S
C1078 C1077 1.381 . S
N1079 C1072 1.286 . S
N1079 C1075 1.413 . S
H1080 C1085 0.930 . S
H1081 C1088 0.930 . S
H1082 C1090 0.930 . S
H1083 C1084 1.016 1_565 S
C1084 H1083 1.016 1_545 S
C1084 N1091 1.286 . S
C1085 H1080 0.930 . S
C1085 C1086 1.397 . S
C1085 C1087 1.361 . S
C1086 C1085 1.397 . S
C1086 C1090 1.390 1_545 S
C1087 C1085 1.361 . S
C1087 C1088 1.393 1_545 S
C1087 N1091 1.413 . S
C1088 H1081 0.930 . S
C1088 C1087 1.393 1_565 S
C1088 C1089 1.399 . S
C1089 C1088 1.399 . S
C1089 C1090 1.381 . S
C1090 H1082 0.930 . S
C1090 C1086 1.390 1_565 S
C1090 C1089 1.381 . S
N1091 C1084 1.286 . S
N1091 C1087 1.413 . S
H1092 C1097 0.930 . S
H1093 C1100 0.930 . S
H1094 C1102 0.930 . S
H1095 C1096 1.016 . S
C1096 H1095 1.016 . S
C1096 N1103 1.286 . S
C1097 H1092 0.930 . S
C1097 C1098 1.397 . S
C1097 C1099 1.361 1_655 S
C1098 C1097 1.397 . S
C1098 C1102 1.390 . S
C1099 C1097 1.361 1_455 S
C1099 C1100 1.393 . S
C1099 N1103 1.413 . S
C1100 H1093 0.930 . S
C1100 C1099 1.393 . S
C1100 C1101 1.399 1_455 S
C1101 C1100 1.399 1_655 S
C1101 C1102 1.381 . S
C1102 H1094 0.930 . S
C1102 C1098 1.390 . S
C1102 C1101 1.381 . S
N1103 C1096 1.286 . S
N1103 C1099 1.413 . S
H1104 C1109 0.930 . S
H1105 C1112 0.930 . S
H1106 C1114 0.930 . S
H1107 C1108 1.016 . S
C1108 H1107 1.016 . S
C1108 N1115 1.286 . S
C1109 H1104 0.930 . S
C1109 C1110 1.397 . S
C1109 C1111 1.361 . S
C1110 C1109 1.397 . S
C1110 C1114 1.390 . S
C1111 C1109 1.361 . S
C1111 C1112 1.393 . S
C1111 N1115 1.413 . S
C1112 H1105 0.930 . S
C1112 C1111 1.393 . S
C1112 C1113 1.399 . S
C1113 C1112 1.399 . S
C1113 C1114 1.381 . S
C1114 H1106 0.930 . S
C1114 C1110 1.390 . S
C1114 C1113 1.381 . S
N1115 C1108 1.286 . S
N1115 C1111 1.413 . S
H1116 C1121 0.930 . S
H1117 C1124 0.930 . S
H1118 C1126 0.930 . S
H1119 C1120 1.016 1_554 S
C1120 H1119 1.016 1_556 S
C1120 N1127 1.286 . S
C1121 H1116 0.930 . S
C1121 C1122 1.397 . S
C1121 C1123 1.361 . S
C1122 C1121 1.397 . S
C1122 C1126 1.390 1_556 S
C1123 C1121 1.361 . S
C1123 C1124 1.393 1_556 S
C1123 N1127 1.413 . S
C1124 H1117 0.930 . S
C1124 C1123 1.393 1_554 S
C1124 C1125 1.399 . S
C1125 C1124 1.399 . S
C1125 C1126 1.381 . S
C1126 H1118 0.930 . S
C1126 C1122 1.390 1_554 S
C1126 C1125 1.381 . S
N1127 C1120 1.286 . S
N1127 C1123 1.413 . S
H1128 C1133 0.930 . S
H1129 C1136 0.930 . S
H1130 C1138 0.930 . S
H1131 C1132 1.016 . S
C1132 H1131 1.016 . S
C1132 N1139 1.286 . S
C1133 H1128 0.930 . S
C1133 C1134 1.397 . S
C1133 C1135 1.361 1_545 S
C1134 C1133 1.397 . S
C1134 C1138 1.390 . S
C1135 C1133 1.361 1_565 S
C1135 C1136 1.393 . S
C1135 N1139 1.413 . S
C1136 H1129 0.930 . S
C1136 C1135 1.393 . S
C1136 C1137 1.399 1_565 S
C1137 C1136 1.399 1_545 S
C1137 C1138 1.381 . S
C1138 H1130 0.930 . S
C1138 C1134 1.390 . S
C1138 C1137 1.381 . S
N1139 C1132 1.286 . S
N1139 C1135 1.413 . S
H1140 C1145 0.930 . S
H1141 C1148 0.930 . S
H1142 C1150 0.930 . S
H1143 C1144 1.016 1_556 S
C1144 H1143 1.016 1_554 S
C1144 N1151 1.286 . S
C1145 H1140 0.930 . S
C1145 C1146 1.397 . S
C1145 C1147 1.361 . S
C1146 C1145 1.397 . S
C1146 C1150 1.390 1_554 S
C1147 C1145 1.361 . S
C1147 C1148 1.393 1_554 S
C1147 N1151 1.413 . S
C1148 H1141 0.930 . S
C1148 C1147 1.393 1_556 S
C1148 C1149 1.399 . S
C1149 C1148 1.399 . S
C1149 C1150 1.381 . S
C1150 H1142 0.930 . S
C1150 C1146 1.390 1_556 S
C1150 C1149 1.381 . S
N1151 C1144 1.286 . S
N1151 C1147 1.413 . S
H1152 C1157 0.930 . S
H1153 C1160 0.930 . S
H1154 C1162 0.930 . S
H1155 C1156 1.016 . S
C1156 H1155 1.016 . S
C1156 N1163 1.286 . S
C1157 H1152 0.930 . S
C1157 C1158 1.397 . S
C1157 C1159 1.361 . S
C1158 C1157 1.397 . S
C1158 C1162 1.390 . S
C1159 C1157 1.361 . S
C1159 C1160 1.393 . S
C1159 N1163 1.413 . S
C1160 H1153 0.930 . S
C1160 C1159 1.393 . S
C1160 C1161 1.399 . S
C1161 C1160 1.399 . S
C1161 C1162 1.381 . S
C1162 H1154 0.930 . S
C1162 C1158 1.390 . S
C1162 C1161 1.381 . S
N1163 C1156 1.286 . S
N1163 C1159 1.413 . S
H1164 C1169 0.930 . S
H1165 C1172 0.930 . S
H1166 C1174 0.930 . S
H1167 C1168 1.016 1_655 S
C1168 H1167 1.016 1_455 S
C1168 N1175 1.286 . S
C1169 H1164 0.930 . S
C1169 C1170 1.397 . S
C1169 C1171 1.361 . S
C1170 C1169 1.397 . S
C1170 C1174 1.390 1_455 S
C1171 C1169 1.361 . S
C1171 C1172 1.393 1_455 S
C1171 N1175 1.413 . S
C1172 H1165 0.930 . S
C1172 C1171 1.393 1_655 S
C1172 C1173 1.399 . S
C1173 C1172 1.399 . S
C1173 C1174 1.381 . S
C1174 H1166 0.930 . S
C1174 C1170 1.390 1_655 S
C1174 C1173 1.381 . S
N1175 C1168 1.286 . S
N1175 C1171 1.413 . S
H1176 C1181 0.930 . S
H1177 C1184 0.930 . S
H1178 C1186 0.930 . S
H1179 C1180 1.016 1_455 S
C1180 H1179 1.016 1_655 S
C1180 N1187 1.286 . S
C1181 H1176 0.930 . S
C1181 C1182 1.397 . S
C1181 C1183 1.361 . S
C1182 C1181 1.397 . S
C1182 C1186 1.390 1_655 S
C1183 C1181 1.361 . S
C1183 C1184 1.393 1_655 S
C1183 N1187 1.413 . S
C1184 H1177 0.930 . S
C1184 C1183 1.393 1_455 S
C1184 C1185 1.399 . S
C1185 C1184 1.399 . S
C1185 C1186 1.381 . S
C1186 H1178 0.930 . S
C1186 C1182 1.390 1_455 S
C1186 C1185 1.381 . S
N1187 C1180 1.286 . S
N1187 C1183 1.413 . S
H1188 C1193 0.930 . S
H1189 C1196 0.930 . S
H1190 C1198 0.930 . S
H1191 C1192 1.016 . S
C1192 H1191 1.016 . S
C1192 N1199 1.286 . S
C1193 H1188 0.930 . S
C1193 C1194 1.397 . S
C1193 C1195 1.361 1_554 S
C1194 C1193 1.397 . S
C1194 C1198 1.390 . S
C1195 C1193 1.361 1_556 S
C1195 C1196 1.393 . S
C1195 N1199 1.413 . S
C1196 H1189 0.930 . S
C1196 C1195 1.393 . S
C1196 C1197 1.399 1_556 S
C1197 C1196 1.399 1_554 S
C1197 C1198 1.381 . S
C1198 H1190 0.930 . S
C1198 C1194 1.390 . S
C1198 C1197 1.381 . S
N1199 C1192 1.286 . S
N1199 C1195 1.413 . S
H1200 C1205 0.930 . S
H1201 C1208 0.930 . S
H1202 C1210 0.930 . S
H1203 C1204 1.016 . S
C1204 H1203 1.016 . S
C1204 N1211 1.286 . S
C1205 H1200 0.930 . S
C1205 C1206 1.397 . S
C1205 C1207 1.361 . S
C1206 C1205 1.397 . S
C1206 C1210 1.390 . S
C1207 C1205 1.361 . S
C1207 C1208 1.393 . S
C1207 N1211 1.413 . S
C1208 H1201 0.930 . S
C1208 C1207 1.393 . S
C1208 C1209 1.399 . S
C1209 C1208 1.399 . S
C1209 C1210 1.381 . S
C1210 H1202 0.930 . S
C1210 C1206 1.390 . S
C1210 C1209 1.381 . S
N1211 C1204 1.286 . S
N1211 C1207 1.413 . S
H1212 C1217 0.930 . S
H1213 C1220 0.930 . S
H1214 C1222 0.930 . S
H1215 C1216 1.016 1_565 S
C1216 H1215 1.016 1_545 S
C1216 N1223 1.286 . S
C1217 H1212 0.930 . S
C1217 C1218 1.397 . S
C1217 C1219 1.361 . S
C1218 C1217 1.397 . S
C1218 C1222 1.390 1_545 S
C1219 C1217 1.361 . S
C1219 C1220 1.393 1_545 S
C1219 N1223 1.413 . S
C1220 H1213 0.930 . S
C1220 C1219 1.393 1_565 S
C1220 C1221 1.399 . S
C1221 C1220 1.399 . S
C1221 C1222 1.381 . S
C1222 H1214 0.930 . S
C1222 C1218 1.390 1_565 S
C1222 C1221 1.381 . S
N1223 C1216 1.286 . S
N1223 C1219 1.413 . S
H1224 C1229 0.930 . S
H1225 C1232 0.930 . S
H1226 C1234 0.930 . S
H1227 C1228 1.016 1_545 S
C1228 H1227 1.016 1_565 S
C1228 N1235 1.286 . S
C1229 H1224 0.930 . S
C1229 C1230 1.397 . S
C1229 C1231 1.361 . S
C1230 C1229 1.397 . S
C1230 C1234 1.390 1_565 S
C1231 C1229 1.361 . S
C1231 C1232 1.393 1_565 S
C1231 N1235 1.413 . S
C1232 H1225 0.930 . S
C1232 C1231 1.393 1_545 S
C1232 C1233 1.399 . S
C1233 C1232 1.399 . S
C1233 C1234 1.381 . S
C1234 H1226 0.930 . S
C1234 C1230 1.390 1_545 S
C1234 C1233 1.381 . S
N1235 C1228 1.286 . S
N1235 C1231 1.413 . S
H1236 C1241 0.930 . S
H1237 C1244 0.930 . S
H1238 C1246 0.930 . S
H1239 C1240 1.016 . S
C1240 H1239 1.016 . S
C1240 N1247 1.286 . S
C1241 H1236 0.930 . S
C1241 C1242 1.397 . S
C1241 C1243 1.361 1_455 S
C1242 C1241 1.397 . S
C1242 C1246 1.390 . S
C1243 C1241 1.361 1_655 S
C1243 C1244 1.393 . S
C1243 N1247 1.413 . S
C1244 H1237 0.930 . S
C1244 C1243 1.393 . S
C1244 C1245 1.399 1_655 S
C1245 C1244 1.399 1_455 S
C1245 C1246 1.381 . S
C1246 H1238 0.930 . S
C1246 C1242 1.390 . S
C1246 C1245 1.381 . S
N1247 C1240 1.286 . S
N1247 C1243 1.413 . S
H1248 C1266 0.951 . S
H1249 C1268 0.951 . S
H1250 C1270 0.950 . S
H1251 C1271 0.950 . S
H1252 C1273 0.950 . S
H1253 C1276 0.950 . S
H1254 C1277 0.950 . S
H1255 C1279 0.950 . S
H1256 C1280 0.950 . S
H1257 C1281 0.951 . S
H1258 C1283 0.951 . S
H1259 C1285 0.950 . S
H1260 C1286 0.950 . S
H1261 C1288 0.950 . S
H1262 C1291 0.950 . S
H1263 C1292 0.950 . S
H1264 C1294 0.950 . S
H1265 C1295 0.950 . S
C1266 H1248 0.951 . S
C1266 C1267 1.366 . S
C1266 C1268 1.388 . S
C1267 C1266 1.366 . S
C1267 C1271 1.385 . S
C1268 H1249 0.951 . S
C1268 C1266 1.388 . S
C1268 C1269 1.366 . S
C1269 C1268 1.366 . S
C1269 C1270 1.414 . S
C1269 C1272 1.499 . S
C1270 H1250 0.950 . S
C1270 C1269 1.414 . S
C1270 C1271 1.374 . S
C1271 H1251 0.950 . S
C1271 C1267 1.385 . S
C1271 C1270 1.374 . S
C1272 C1269 1.499 . S
C1272 C1273 1.373 . S
C1272 C1274 1.389 . S
C1273 H1252 0.950 . S
C1273 C1272 1.373 . S
C1273 C1289 1.377 . S
C1274 C1272 1.389 . S
C1274 C1275 1.524 . S
C1274 C1288 1.377 . S
C1275 C1274 1.524 . S
C1275 C1276 1.397 . S
C1275 C1280 1.363 . S
C1276 H1253 0.950 . S
C1276 C1275 1.397 . S
C1276 C1277 1.334 . S
C1277 H1254 0.950 . S
C1277 C1276 1.334 . S
C1277 C1278 1.287 . S
C1278 C1277 1.287 . S
C1278 C1279 1.524 . S
C1278 H1297 0.913 . S
C1279 H1255 0.950 . S
C1279 C1278 1.524 . S
C1279 C1280 1.415 . S
C1280 H1256 0.950 . S
C1280 C1275 1.363 . S
C1280 C1279 1.415 . S
C1281 H1257 0.951 . S
C1281 C1282 1.366 . S
C1281 C1283 1.388 . S
C1282 C1281 1.366 . S
C1282 C1286 1.385 . S
C1283 H1258 0.951 . S
C1283 C1281 1.388 . S
C1283 C1284 1.366 . S
C1284 C1283 1.366 . S
C1284 C1285 1.414 . S
C1284 C1287 1.499 . S
C1285 H1259 0.950 . S
C1285 C1284 1.414 . S
C1285 C1286 1.374 . S
C1286 H1260 0.950 . S
C1286 C1282 1.385 . S
C1286 C1285 1.374 . S
C1287 C1284 1.499 . S
C1287 C1288 1.373 . S
C1287 C1289 1.389 . S
C1288 H1261 0.950 . S
C1288 C1274 1.377 . S
C1288 C1287 1.373 . S
C1289 C1273 1.377 . S
C1289 C1287 1.389 . S
C1289 C1290 1.524 . S
C1290 C1289 1.524 . S
C1290 C1291 1.397 . S
C1290 C1295 1.363 . S
C1291 H1262 0.950 . S
C1291 C1290 1.397 . S
C1291 C1292 1.334 . S
C1292 H1263 0.950 . S
C1292 C1291 1.334 . S
C1292 C1293 1.287 . S
C1293 C1292 1.287 . S
C1293 C1294 1.524 . S
C1293 H1296 0.999 . S
C1294 H1264 0.950 . S
C1294 C1293 1.524 . S
C1294 C1295 1.415 . S
C1295 H1265 0.950 . S
C1295 C1290 1.363 . S
C1295 C1294 1.415 . S
H1296 C1293 0.999 . S
H1297 C1278 0.913 . S
H1298 C1316 0.951 . S
H1299 C1318 0.951 . S
H1300 C1320 0.950 . S
H1301 C1321 0.950 . S
H1302 C1323 0.950 . S
H1303 C1326 0.950 . S
H1304 C1327 0.950 . S
H1305 C1329 0.950 . S
H1306 C1330 0.950 . S
H1307 C1331 0.951 . S
H1308 C1333 0.951 . S
H1309 C1335 0.950 . S
H1310 C1336 0.950 . S
H1311 C1338 0.950 . S
H1312 C1341 0.950 . S
H1313 C1342 0.950 . S
H1314 C1344 0.950 . S
H1315 C1345 0.950 . S
C1316 H1298 0.951 . S
C1316 C1317 1.366 . S
C1316 C1318 1.388 . S
C1317 C1316 1.366 . S
C1317 C1321 1.385 . S
C1318 H1299 0.951 . S
C1318 C1316 1.388 . S
C1318 C1319 1.366 . S
C1319 C1318 1.366 . S
C1319 C1320 1.414 . S
C1319 C1322 1.499 . S
C1320 H1300 0.950 . S
C1320 C1319 1.414 . S
C1320 C1321 1.374 . S
C1321 H1301 0.950 . S
C1321 C1317 1.385 . S
C1321 C1320 1.374 . S
C1322 C1319 1.499 . S
C1322 C1323 1.373 . S
C1322 C1324 1.389 . S
C1323 H1302 0.950 . S
C1323 C1322 1.373 . S
C1323 C1339 1.377 . S
C1324 C1322 1.389 . S
C1324 C1325 1.524 . S
C1324 C1338 1.377 . S
C1325 C1324 1.524 . S
C1325 C1326 1.397 . S
C1325 C1330 1.363 . S
C1326 H1303 0.950 . S
C1326 C1325 1.397 . S
C1326 C1327 1.334 . S
C1327 H1304 0.950 . S
C1327 C1326 1.334 . S
C1327 C1328 1.287 . S
C1328 C1327 1.287 . S
C1328 C1329 1.524 . S
C1328 H1347 0.913 . S
C1329 H1305 0.950 . S
C1329 C1328 1.524 . S
C1329 C1330 1.415 . S
C1330 H1306 0.950 . S
C1330 C1325 1.363 . S
C1330 C1329 1.415 . S
C1331 H1307 0.951 . S
C1331 C1332 1.366 . S
C1331 C1333 1.388 . S
C1332 C1331 1.366 . S
C1332 C1336 1.385 . S
C1333 H1308 0.951 . S
C1333 C1331 1.388 . S
C1333 C1334 1.366 . S
C1334 C1333 1.366 . S
C1334 C1335 1.414 . S
C1334 C1337 1.499 . S
C1335 H1309 0.950 . S
C1335 C1334 1.414 . S
C1335 C1336 1.374 . S
C1336 H1310 0.950 . S
C1336 C1332 1.385 . S
C1336 C1335 1.374 . S
C1337 C1334 1.499 . S
C1337 C1338 1.373 . S
C1337 C1339 1.389 . S
C1338 H1311 0.950 . S
C1338 C1324 1.377 . S
C1338 C1337 1.373 . S
C1339 C1323 1.377 . S
C1339 C1337 1.389 . S
C1339 C1340 1.524 . S
C1340 C1339 1.524 . S
C1340 C1341 1.397 . S
C1340 C1345 1.363 . S
C1341 H1312 0.950 . S
C1341 C1340 1.397 . S
C1341 C1342 1.334 . S
C1342 H1313 0.950 . S
C1342 C1341 1.334 . S
C1342 C1343 1.287 . S
C1343 C1342 1.287 . S
C1343 C1344 1.524 . S
C1343 H1346 0.999 . S
C1344 H1314 0.950 . S
C1344 C1343 1.524 . S
C1344 C1345 1.415 . S
C1345 H1315 0.950 . S
C1345 C1340 1.363 . S
C1345 C1344 1.415 . S
H1346 C1343 0.999 . S
H1347 C1328 0.913 . S
H1348 C1366 0.951 . S
H1349 C1368 0.951 . S
H1350 C1370 0.934 1_545 S
H1351 C1371 0.950 . S
H1352 C1373 0.950 . S
H1353 C1376 0.950 . S
H1354 C1377 0.950 . S
H1355 C1379 0.950 . S
H1356 C1380 0.950 . S
H1357 C1381 0.951 . S
H1358 C1383 0.951 . S
H1359 C1385 0.950 . S
H1360 C1386 0.950 . S
H1361 C1388 0.950 . S
H1362 C1391 0.950 . S
H1363 C1392 0.950 . S
H1364 C1394 0.950 . S
H1365 C1395 0.950 . S
C1366 H1348 0.951 . S
C1366 C1367 1.360 1_565 S
C1366 C1368 1.388 . S
C1367 C1366 1.360 1_545 S
C1367 C1371 1.389 . S
C1368 H1349 0.951 . S
C1368 C1366 1.388 . S
C1368 C1369 1.366 . S
C1369 C1368 1.366 . S
C1369 C1370 1.416 . S
C1369 C1372 1.499 . S
C1370 H1350 0.934 1_565 S
C1370 C1369 1.416 . S
C1370 C1371 1.373 1_565 S
C1371 H1351 0.950 . S
C1371 C1367 1.389 . S
C1371 C1370 1.373 1_545 S
C1372 C1369 1.499 . S
C1372 C1373 1.373 1_565 S
C1372 C1374 1.389 . S
C1373 H1352 0.950 . S
C1373 C1372 1.373 1_545 S
C1373 C1389 1.377 . S
C1374 C1372 1.389 . S
C1374 C1375 1.524 . S
C1374 C1388 1.377 . S
C1375 C1374 1.524 . S
C1375 C1376 1.397 . S
C1375 C1380 1.363 . S
C1376 H1353 0.950 . S
C1376 C1375 1.397 . S
C1376 C1377 1.334 . S
C1377 H1354 0.950 . S
C1377 C1376 1.334 . S
C1377 C1378 1.287 . S
C1378 C1377 1.287 . S
C1378 C1379 1.524 . S
C1378 H1397 0.913 . S
C1379 H1355 0.950 . S
C1379 C1378 1.524 . S
C1379 C1380 1.415 . S
C1380 H1356 0.950 . S
C1380 C1375 1.363 . S
C1380 C1379 1.415 . S
C1381 H1357 0.951 . S
C1381 C1382 1.366 . S
C1381 C1383 1.388 . S
C1382 C1381 1.366 . S
C1382 C1386 1.385 . S
C1383 H1358 0.951 . S
C1383 C1381 1.388 . S
C1383 C1384 1.366 . S
C1384 C1383 1.366 . S
C1384 C1385 1.414 . S
C1384 C1387 1.499 . S
C1385 H1359 0.950 . S
C1385 C1384 1.414 . S
C1385 C1386 1.374 . S
C1386 H1360 0.950 . S
C1386 C1382 1.385 . S
C1386 C1385 1.374 . S
C1387 C1384 1.499 . S
C1387 C1388 1.373 . S
C1387 C1389 1.389 1_565 S
C1388 H1361 0.950 . S
C1388 C1374 1.377 . S
C1388 C1387 1.373 . S
C1389 C1373 1.377 . S
C1389 C1387 1.389 1_545 S
C1389 C1390 1.524 . S
C1390 C1389 1.524 . S
C1390 C1391 1.397 . S
C1390 C1395 1.363 . S
C1391 H1362 0.950 . S
C1391 C1390 1.397 . S
C1391 C1392 1.334 . S
C1392 H1363 0.950 . S
C1392 C1391 1.334 . S
C1392 C1393 1.287 . S
C1393 C1392 1.287 . S
C1393 C1394 1.524 . S
C1393 H1396 0.999 . S
C1394 H1364 0.950 . S
C1394 C1393 1.524 . S
C1394 C1395 1.415 . S
C1395 H1365 0.950 . S
C1395 C1390 1.363 . S
C1395 C1394 1.415 . S
H1396 C1393 0.999 . S
H1397 C1378 0.913 . S
H1398 C1416 0.951 . S
H1399 C1418 0.951 . S
H1400 C1420 0.950 . S
H1401 C1421 0.950 . S
H1402 C1423 0.950 . S
H1403 C1426 0.950 . S
H1404 C1427 0.950 . S
H1405 C1429 0.950 . S
H1406 C1430 0.950 . S
H1407 C1431 0.951 . S
H1408 C1433 0.963 . S
H1409 C1435 0.950 . S
H1410 C1436 0.950 . S
H1411 C1438 0.950 . S
H1412 C1441 0.950 1_455 S
H1413 C1442 0.950 . S
H1414 C1444 0.950 . S
H1415 C1445 0.950 . S
C1416 H1398 0.951 . S
C1416 C1417 1.366 . S
C1416 C1418 1.388 . S
C1417 C1416 1.366 . S
C1417 C1421 1.385 . S
C1418 H1399 0.951 . S
C1418 C1416 1.388 . S
C1418 C1419 1.366 . S
C1419 C1418 1.366 . S
C1419 C1420 1.414 . S
C1419 C1422 1.499 . S
C1420 H1400 0.950 . S
C1420 C1419 1.414 . S
C1420 C1421 1.374 . S
C1421 H1401 0.950 . S
C1421 C1417 1.385 . S
C1421 C1420 1.374 . S
C1422 C1419 1.499 . S
C1422 C1423 1.373 1_545 S
C1422 C1424 1.389 . S
C1423 H1402 0.950 . S
C1423 C1422 1.373 1_565 S
C1423 C1439 1.377 . S
C1424 C1422 1.389 . S
C1424 C1425 1.524 . S
C1424 C1438 1.377 . S
C1425 C1424 1.524 . S
C1425 C1426 1.397 . S
C1425 C1430 1.363 . S
C1426 H1403 0.950 . S
C1426 C1425 1.397 . S
C1426 C1427 1.334 . S
C1427 H1404 0.950 . S
C1427 C1426 1.334 . S
C1427 C1428 1.287 . S
C1428 C1427 1.287 . S
C1428 C1429 1.524 . S
C1428 H1447 0.913 . S
C1429 H1405 0.950 . S
C1429 C1428 1.524 . S
C1429 C1430 1.415 . S
C1430 H1406 0.950 . S
C1430 C1425 1.363 . S
C1430 C1429 1.415 . S
C1431 H1407 0.951 . S
C1431 C1432 1.366 . S
C1431 C1433 1.388 . S
C1432 C1431 1.366 . S
C1432 C1436 1.385 . S
C1433 H1408 0.963 . S
C1433 C1431 1.388 . S
C1433 C1434 1.366 . S
C1434 C1433 1.366 . S
C1434 C1435 1.414 . S
C1434 C1437 1.499 1_455 S
C1435 H1409 0.950 . S
C1435 C1434 1.414 . S
C1435 C1436 1.374 . S
C1436 H1410 0.950 . S
C1436 C1432 1.385 . S
C1436 C1435 1.374 . S
C1437 C1434 1.499 1_655 S
C1437 C1438 1.373 . S
C1437 C1439 1.389 1_545 S
C1438 H1411 0.950 . S
C1438 C1424 1.377 . S
C1438 C1437 1.373 . S
C1439 C1423 1.377 . S
C1439 C1437 1.389 1_565 S
C1439 C1440 1.524 . S
C1440 C1439 1.524 . S
C1440 C1441 1.397 . S
C1440 C1445 1.363 . S
C1441 H1412 0.950 1_655 S
C1441 C1440 1.397 . S
C1441 C1442 1.334 1_655 S
C1442 H1413 0.950 . S
C1442 C1441 1.334 1_455 S
C1442 C1443 1.287 1_455 S
C1443 C1442 1.287 1_655 S
C1443 C1444 1.524 . S
C1443 H1446 0.978 1_655 S
C1444 H1414 0.950 . S
C1444 C1443 1.524 . S
C1444 C1445 1.415 . S
C1445 H1415 0.950 . S
C1445 C1440 1.363 . S
C1445 C1444 1.415 . S
H1446 C1443 0.978 1_455 S
H1447 C1428 0.913 . S
H1448 C1466 0.951 . S
H1449 C1468 0.951 . S
H1450 C1470 0.950 . S
H1451 C1471 0.950 . S
H1452 C1473 0.950 . S
H1453 C1476 0.950 . S
H1454 C1477 0.950 . S
H1455 C1479 0.950 . S
H1456 C1480 0.950 . S
H1457 C1481 0.951 . S
H1458 C1483 0.951 . S
H1459 C1485 0.950 . S
H1460 C1486 0.950 . S
H1461 C1488 0.950 . S
H1462 C1491 0.950 . S
H1463 C1492 0.950 . S
H1464 C1494 0.950 . S
H1465 C1495 0.950 . S
C1466 H1448 0.951 . S
C1466 C1467 1.366 . S
C1466 C1468 1.388 . S
C1467 C1466 1.366 . S
C1467 C1471 1.385 . S
C1468 H1449 0.951 . S
C1468 C1466 1.388 . S
C1468 C1469 1.366 . S
C1469 C1468 1.366 . S
C1469 C1470 1.414 . S
C1469 C1472 1.499 . S
C1470 H1450 0.950 . S
C1470 C1469 1.414 . S
C1470 C1471 1.374 . S
C1471 H1451 0.950 . S
C1471 C1467 1.385 . S
C1471 C1470 1.374 . S
C1472 C1469 1.499 . S
C1472 C1473 1.373 . S
C1472 C1474 1.389 . S
C1473 H1452 0.950 . S
C1473 C1472 1.373 . S
C1473 C1489 1.377 . S
C1474 C1472 1.389 . S
C1474 C1475 1.524 . S
C1474 C1488 1.377 . S
C1475 C1474 1.524 . S
C1475 C1476 1.397 . S
C1475 C1480 1.363 . S
C1476 H1453 0.950 . S
C1476 C1475 1.397 . S
C1476 C1477 1.334 . S
C1477 H1454 0.950 . S
C1477 C1476 1.334 . S
C1477 C1478 1.287 . S
C1478 C1477 1.287 . S
C1478 C1479 1.524 . S
C1478 H1497 0.913 . S
C1479 H1455 0.950 . S
C1479 C1478 1.524 . S
C1479 C1480 1.415 . S
C1480 H1456 0.950 . S
C1480 C1475 1.363 . S
C1480 C1479 1.415 . S
C1481 H1457 0.951 . S
C1481 C1482 1.366 . S
C1481 C1483 1.388 . S
C1482 C1481 1.366 . S
C1482 C1486 1.385 . S
C1483 H1458 0.951 . S
C1483 C1481 1.388 . S
C1483 C1484 1.366 . S
C1484 C1483 1.366 . S
C1484 C1485 1.414 . S
C1484 C1487 1.499 . S
C1485 H1459 0.950 . S
C1485 C1484 1.414 . S
C1485 C1486 1.374 . S
C1486 H1460 0.950 . S
C1486 C1482 1.385 . S
C1486 C1485 1.374 . S
C1487 C1484 1.499 . S
C1487 C1488 1.373 . S
C1487 C1489 1.389 . S
C1488 H1461 0.950 . S
C1488 C1474 1.377 . S
C1488 C1487 1.373 . S
C1489 C1473 1.377 . S
C1489 C1487 1.389 . S
C1489 C1490 1.524 . S
C1490 C1489 1.524 . S
C1490 C1491 1.397 . S
C1490 C1495 1.363 . S
C1491 H1462 0.950 . S
C1491 C1490 1.397 . S
C1491 C1492 1.334 . S
C1492 H1463 0.950 . S
C1492 C1491 1.334 . S
C1492 C1493 1.287 . S
C1493 C1492 1.287 . S
C1493 C1494 1.524 . S
C1493 H1496 0.999 . S
C1494 H1464 0.950 . S
C1494 C1493 1.524 . S
C1494 C1495 1.415 . S
C1495 H1465 0.950 . S
C1495 C1490 1.363 . S
C1495 C1494 1.415 . S
H1496 C1493 0.999 . S
H1497 C1478 0.913 . S
H1498 C1516 0.951 . S
H1499 C1518 0.951 . S
H1500 C1520 0.950 1_556 S
H1501 C1521 0.950 1_556 S
H1502 C1523 0.950 . S
H1503 C1526 0.950 . S
H1504 C1527 0.950 . S
H1505 C1529 0.950 . S
H1506 C1530 0.950 . S
H1507 C1531 0.951 1_556 S
H1508 C1533 0.951 1_556 S
H1509 C1535 0.950 . S
H1510 C1536 0.950 . S
H1511 C1538 0.950 . S
H1512 C1541 0.950 . S
H1513 C1542 0.950 . S
H1514 C1544 0.950 . S
H1515 C1545 0.950 . S
C1516 H1498 0.951 . S
C1516 C1517 1.366 . S
C1516 C1518 1.388 . S
C1517 C1516 1.366 . S
C1517 C1521 1.385 . S
C1518 H1499 0.951 . S
C1518 C1516 1.388 . S
C1518 C1519 1.366 . S
C1519 C1518 1.366 . S
C1519 C1520 1.414 . S
C1519 C1522 1.499 . S
C1520 H1500 0.950 1_554 S
C1520 C1519 1.414 . S
C1520 C1521 1.374 . S
C1521 H1501 0.950 1_554 S
C1521 C1517 1.385 . S
C1521 C1520 1.374 . S
C1522 C1519 1.499 . S
C1522 C1523 1.373 . S
C1522 C1524 1.389 . S
C1523 H1502 0.950 . S
C1523 C1522 1.373 . S
C1523 C1539 1.377 . S
C1524 C1522 1.389 . S
C1524 C1525 1.524 . S
C1524 C1538 1.377 . S
C1525 C1524 1.524 . S
C1525 C1526 1.397 1_554 S
C1525 C1530 1.363 . S
C1526 H1503 0.950 . S
C1526 C1525 1.397 1_556 S
C1526 C1527 1.334 . S
C1527 H1504 0.950 . S
C1527 C1526 1.334 . S
C1527 C1528 1.287 . S
C1528 C1527 1.287 . S
C1528 C1529 1.524 1_556 S
C1528 H1547 0.913 . S
C1529 H1505 0.950 . S
C1529 C1528 1.524 1_554 S
C1529 C1530 1.415 . S
C1530 H1506 0.950 . S
C1530 C1525 1.363 . S
C1530 C1529 1.415 . S
C1531 H1507 0.951 1_554 S
C1531 C1532 1.366 . S
C1531 C1533 1.388 . S
C1532 C1531 1.366 . S
C1532 C1536 1.385 . S
C1533 H1508 0.951 1_554 S
C1533 C1531 1.388 . S
C1533 C1534 1.366 . S
C1534 C1533 1.366 . S
C1534 C1535 1.414 . S
C1534 C1537 1.499 1_545 S
C1535 H1509 0.950 . S
C1535 C1534 1.414 . S
C1535 C1536 1.374 . S
C1536 H1510 0.950 . S
C1536 C1532 1.385 . S
C1536 C1535 1.374 . S
C1537 C1534 1.499 1_565 S
C1537 C1538 1.373 . S
C1537 C1539 1.389 . S
C1538 H1511 0.950 . S
C1538 C1524 1.377 . S
C1538 C1537 1.373 . S
C1539 C1523 1.377 . S
C1539 C1537 1.389 . S
C1539 C1540 1.524 . S
C1540 C1539 1.524 . S
C1540 C1541 1.397 1_565 S
C1540 C1545 1.363 . S
C1541 H1512 0.950 . S
C1541 C1540 1.397 1_545 S
C1541 C1542 1.334 . S
C1542 H1513 0.950 . S
C1542 C1541 1.334 . S
C1542 C1543 1.287 . S
C1543 C1542 1.287 . S
C1543 C1544 1.524 . S
C1543 H1546 0.999 . S
C1544 H1514 0.950 . S
C1544 C1543 1.524 . S
C1544 C1545 1.415 1_545 S
C1545 H1515 0.950 . S
C1545 C1540 1.363 . S
C1545 C1544 1.415 1_565 S
H1546 C1543 0.999 . S
H1547 C1528 0.913 . S
H1548 C1566 0.951 . S
H1549 C1568 0.951 . S
H1550 C1570 0.950 . S
H1551 C1571 0.950 . S
H1552 C1573 0.950 . S
H1553 C1576 0.950 . S
H1554 C1577 0.950 . S
H1555 C1579 0.950 . S
H1556 C1580 0.950 . S
H1557 C1581 0.951 . S
H1558 C1583 0.951 . S
H1559 C1585 0.950 . S
H1560 C1586 0.950 . S
H1561 C1588 0.950 . S
H1562 C1591 0.950 . S
H1563 C1592 0.950 . S
H1564 C1594 0.950 . S
H1565 C1595 0.950 . S
C1566 H1548 0.951 . S
C1566 C1567 1.366 . S
C1566 C1568 1.388 . S
C1567 C1566 1.366 . S
C1567 C1571 1.385 . S
C1568 H1549 0.951 . S
C1568 C1566 1.388 . S
C1568 C1569 1.366 . S
C1569 C1568 1.366 . S
C1569 C1570 1.414 . S
C1569 C1572 1.499 . S
C1570 H1550 0.950 . S
C1570 C1569 1.414 . S
C1570 C1571 1.374 . S
C1571 H1551 0.950 . S
C1571 C1567 1.385 . S
C1571 C1570 1.374 . S
C1572 C1569 1.499 . S
C1572 C1573 1.373 . S
C1572 C1574 1.389 . S
C1573 H1552 0.950 . S
C1573 C1572 1.373 . S
C1573 C1589 1.377 . S
C1574 C1572 1.389 . S
C1574 C1575 1.524 . S
C1574 C1588 1.377 . S
C1575 C1574 1.524 . S
C1575 C1576 1.397 . S
C1575 C1580 1.363 . S
C1576 H1553 0.950 . S
C1576 C1575 1.397 . S
C1576 C1577 1.334 . S
C1577 H1554 0.950 . S
C1577 C1576 1.334 . S
C1577 C1578 1.287 . S
C1578 C1577 1.287 . S
C1578 C1579 1.524 . S
C1578 H1597 0.913 . S
C1579 H1555 0.950 . S
C1579 C1578 1.524 . S
C1579 C1580 1.415 . S
C1580 H1556 0.950 . S
C1580 C1575 1.363 . S
C1580 C1579 1.415 . S
C1581 H1557 0.951 . S
C1581 C1582 1.366 . S
C1581 C1583 1.388 . S
C1582 C1581 1.366 . S
C1582 C1586 1.385 . S
C1583 H1558 0.951 . S
C1583 C1581 1.388 . S
C1583 C1584 1.366 . S
C1584 C1583 1.366 . S
C1584 C1585 1.414 . S
C1584 C1587 1.499 . S
C1585 H1559 0.950 . S
C1585 C1584 1.414 . S
C1585 C1586 1.374 . S
C1586 H1560 0.950 . S
C1586 C1582 1.385 . S
C1586 C1585 1.374 . S
C1587 C1584 1.499 . S
C1587 C1588 1.373 . S
C1587 C1589 1.389 . S
C1588 H1561 0.950 . S
C1588 C1574 1.377 . S
C1588 C1587 1.373 . S
C1589 C1573 1.377 . S
C1589 C1587 1.389 . S
C1589 C1590 1.524 . S
C1590 C1589 1.524 . S
C1590 C1591 1.397 . S
C1590 C1595 1.363 . S
C1591 H1562 0.950 . S
C1591 C1590 1.397 . S
C1591 C1592 1.334 . S
C1592 H1563 0.950 . S
C1592 C1591 1.334 . S
C1592 C1593 1.287 . S
C1593 C1592 1.287 . S
C1593 C1594 1.524 . S
C1593 H1596 0.999 . S
C1594 H1564 0.950 . S
C1594 C1593 1.524 . S
C1594 C1595 1.415 . S
C1595 H1565 0.950 . S
C1595 C1590 1.363 . S
C1595 C1594 1.415 . S
H1596 C1593 0.999 . S
H1597 C1578 0.913 . S
H1598 C1616 0.951 . S
H1599 C1618 0.941 . S
H1600 C1620 0.950 . S
H1601 C1621 0.950 . S
H1602 C1623 0.950 . S
H1603 C1626 0.950 . S
H1604 C1627 0.950 . S
H1605 C1629 0.950 . S
H1606 C1630 0.950 . S
H1607 C1631 0.951 . S
H1608 C1633 0.951 . S
H1609 C1635 0.950 . S
H1610 C1636 0.950 . S
H1611 C1638 0.950 . S
H1612 C1641 0.950 . S
H1613 C1642 0.950 . S
H1614 C1644 0.950 . S
H1615 C1645 0.950 . S
C1616 H1598 0.951 . S
C1616 C1617 1.369 . S
C1616 C1618 1.388 . S
C1617 C1616 1.369 . S
C1617 C1621 1.381 1_554 S
C1618 H1599 0.941 . S
C1618 C1616 1.388 . S
C1618 C1619 1.367 1_554 S
C1619 C1618 1.367 1_556 S
C1619 C1620 1.414 . S
C1619 C1622 1.499 . S
C1620 H1600 0.950 . S
C1620 C1619 1.414 . S
C1620 C1621 1.374 . S
C1621 H1601 0.950 . S
C1621 C1617 1.381 1_556 S
C1621 C1620 1.374 . S
C1622 C1619 1.499 . S
C1622 C1623 1.373 . S
C1622 C1624 1.389 1_556 S
C1623 H1602 0.950 . S
C1623 C1622 1.373 . S
C1623 C1639 1.377 . S
C1624 C1622 1.389 1_554 S
C1624 C1625 1.524 . S
C1624 C1638 1.377 . S
C1625 C1624 1.524 . S
C1625 C1626 1.397 . S
C1625 C1630 1.363 . S
C1626 H1603 0.950 . S
C1626 C1625 1.397 . S
C1626 C1627 1.334 . S
C1627 H1604 0.950 . S
C1627 C1626 1.334 . S
C1627 C1628 1.287 . S
C1628 C1627 1.287 . S
C1628 C1629 1.524 . S
C1628 H1647 0.913 . S
C1629 H1605 0.950 . S
C1629 C1628 1.524 . S
C1629 C1630 1.415 . S
C1630 H1606 0.950 . S
C1630 C1625 1.363 . S
C1630 C1629 1.415 . S
C1631 H1607 0.951 . S
C1631 C1632 1.366 . S
C1631 C1633 1.388 . S
C1632 C1631 1.366 . S
C1632 C1636 1.385 . S
C1633 H1608 0.951 . S
C1633 C1631 1.388 . S
C1633 C1634 1.366 . S
C1634 C1633 1.366 . S
C1634 C1635 1.414 . S
C1634 C1637 1.499 . S
C1635 H1609 0.950 . S
C1635 C1634 1.414 . S
C1635 C1636 1.374 . S
C1636 H1610 0.950 . S
C1636 C1632 1.385 . S
C1636 C1635 1.374 . S
C1637 C1634 1.499 . S
C1637 C1638 1.373 1_556 S
C1637 C1639 1.389 . S
C1638 H1611 0.950 . S
C1638 C1624 1.377 . S
C1638 C1637 1.373 1_554 S
C1639 C1623 1.377 . S
C1639 C1637 1.389 . S
C1639 C1640 1.524 . S
C1640 C1639 1.524 . S
C1640 C1641 1.397 . S
C1640 C1645 1.363 . S
C1641 H1612 0.950 . S
C1641 C1640 1.397 . S
C1641 C1642 1.334 . S
C1642 H1613 0.950 . S
C1642 C1641 1.334 . S
C1642 C1643 1.287 . S
C1643 C1642 1.287 . S
C1643 C1644 1.524 . S
C1643 H1646 0.999 . S
C1644 H1614 0.950 . S
C1644 C1643 1.524 . S
C1644 C1645 1.415 . S
C1645 H1615 0.950 . S
C1645 C1640 1.363 . S
C1645 C1644 1.415 . S
H1646 C1643 0.999 . S
H1647 C1628 0.913 . S
H1648 C1666 0.951 . S
H1649 C1668 0.951 . S
H1650 C1670 0.950 . S
H1651 C1671 0.950 . S
H1652 C1673 0.950 . S
H1653 C1676 0.950 . S
H1654 C1677 0.950 . S
H1655 C1679 0.950 . S
H1656 C1680 0.950 . S
H1657 C1681 0.951 . S
H1658 C1683 0.951 . S
H1659 C1685 0.950 . S
H1660 C1686 0.950 . S
H1661 C1688 0.950 . S
H1662 C1691 0.950 . S
H1663 C1692 0.950 . S
H1664 C1694 0.950 . S
H1665 C1695 0.950 . S
C1666 H1648 0.951 . S
C1666 C1667 1.366 . S
C1666 C1668 1.388 . S
C1667 C1666 1.366 . S
C1667 C1671 1.385 . S
C1668 H1649 0.951 . S
C1668 C1666 1.388 . S
C1668 C1669 1.366 . S
C1669 C1668 1.366 . S
C1669 C1670 1.414 . S
C1669 C1672 1.499 . S
C1670 H1650 0.950 . S
C1670 C1669 1.414 . S
C1670 C1671 1.374 . S
C1671 H1651 0.950 . S
C1671 C1667 1.385 . S
C1671 C1670 1.374 . S
C1672 C1669 1.499 . S
C1672 C1673 1.373 . S
C1672 C1674 1.389 . S
C1673 H1652 0.950 . S
C1673 C1672 1.373 . S
C1673 C1689 1.377 . S
C1674 C1672 1.389 . S
C1674 C1675 1.524 . S
C1674 C1688 1.377 . S
C1675 C1674 1.524 . S
C1675 C1676 1.397 . S
C1675 C1680 1.363 . S
C1676 H1653 0.950 . S
C1676 C1675 1.397 . S
C1676 C1677 1.334 . S
C1677 H1654 0.950 . S
C1677 C1676 1.334 . S
C1677 C1678 1.287 . S
C1678 C1677 1.287 . S
C1678 C1679 1.524 . S
C1678 H1697 0.913 . S
C1679 H1655 0.950 . S
C1679 C1678 1.524 . S
C1679 C1680 1.415 . S
C1680 H1656 0.950 . S
C1680 C1675 1.363 . S
C1680 C1679 1.415 . S
C1681 H1657 0.951 . S
C1681 C1682 1.366 . S
C1681 C1683 1.388 . S
C1682 C1681 1.366 . S
C1682 C1686 1.385 . S
C1683 H1658 0.951 . S
C1683 C1681 1.388 . S
C1683 C1684 1.366 . S
C1684 C1683 1.366 . S
C1684 C1685 1.414 . S
C1684 C1687 1.499 . S
C1685 H1659 0.950 . S
C1685 C1684 1.414 . S
C1685 C1686 1.374 . S
C1686 H1660 0.950 . S
C1686 C1682 1.385 . S
C1686 C1685 1.374 . S
C1687 C1684 1.499 . S
C1687 C1688 1.373 . S
C1687 C1689 1.389 . S
C1688 H1661 0.950 . S
C1688 C1674 1.377 . S
C1688 C1687 1.373 . S
C1689 C1673 1.377 . S
C1689 C1687 1.389 . S
C1689 C1690 1.524 . S
C1690 C1689 1.524 . S
C1690 C1691 1.397 . S
C1690 C1695 1.363 . S
C1691 H1662 0.950 . S
C1691 C1690 1.397 . S
C1691 C1692 1.334 . S
C1692 H1663 0.950 . S
C1692 C1691 1.334 . S
C1692 C1693 1.287 . S
C1693 C1692 1.287 . S
C1693 C1694 1.524 . S
C1693 H1696 0.999 . S
C1694 H1664 0.950 . S
C1694 C1693 1.524 . S
C1694 C1695 1.415 . S
C1695 H1665 0.950 . S
C1695 C1690 1.363 . S
C1695 C1694 1.415 . S
H1696 C1693 0.999 . S
H1697 C1678 0.913 . S
H1698 C1716 0.951 . S
H1699 C1718 0.951 . S
H1700 C1720 0.950 . S
H1701 C1721 0.950 . S
H1702 C1723 0.950 . S
H1703 C1726 0.950 . S
H1704 C1727 0.950 . S
H1705 C1729 0.950 . S
H1706 C1730 0.950 . S
H1707 C1731 0.951 . S
H1708 C1733 0.951 . S
H1709 C1735 0.950 . S
H1710 C1736 0.950 . S
H1711 C1738 0.957 . S
H1712 C1741 0.950 . S
H1713 C1742 0.950 . S
H1714 C1744 0.950 . S
H1715 C1745 0.950 . S
C1716 H1698 0.951 . S
C1716 C1717 1.366 . S
C1716 C1718 1.388 . S
C1717 C1716 1.366 . S
C1717 C1721 1.385 . S
C1718 H1699 0.951 . S
C1718 C1716 1.388 . S
C1718 C1719 1.366 . S
C1719 C1718 1.366 . S
C1719 C1720 1.414 . S
C1719 C1722 1.499 . S
C1720 H1700 0.950 . S
C1720 C1719 1.414 . S
C1720 C1721 1.374 . S
C1721 H1701 0.950 . S
C1721 C1717 1.385 . S
C1721 C1720 1.374 . S
C1722 C1719 1.499 . S
C1722 C1723 1.373 . S
C1722 C1724 1.389 1_455 S
C1723 H1702 0.950 . S
C1723 C1722 1.373 . S
C1723 C1739 1.377 . S
C1724 C1722 1.389 1_655 S
C1724 C1725 1.524 . S
C1724 C1738 1.376 . S
C1725 C1724 1.524 . S
C1725 C1726 1.397 . S
C1725 C1730 1.363 . S
C1726 H1703 0.950 . S
C1726 C1725 1.397 . S
C1726 C1727 1.334 . S
C1727 H1704 0.950 . S
C1727 C1726 1.334 . S
C1727 C1728 1.287 . S
C1728 C1727 1.287 . S
C1728 C1729 1.524 . S
C1728 H1747 0.913 . S
C1729 H1705 0.950 . S
C1729 C1728 1.524 . S
C1729 C1730 1.415 . S
C1730 H1706 0.950 . S
C1730 C1725 1.363 . S
C1730 C1729 1.415 . S
C1731 H1707 0.951 . S
C1731 C1732 1.366 . S
C1731 C1733 1.388 . S
C1732 C1731 1.366 . S
C1732 C1736 1.385 . S
C1733 H1708 0.951 . S
C1733 C1731 1.388 . S
C1733 C1734 1.366 . S
C1734 C1733 1.366 . S
C1734 C1735 1.414 . S
C1734 C1737 1.499 1_554 S
C1735 H1709 0.950 . S
C1735 C1734 1.414 . S
C1735 C1736 1.374 . S
C1736 H1710 0.950 . S
C1736 C1732 1.385 . S
C1736 C1735 1.374 . S
C1737 C1734 1.499 1_556 S
C1737 C1738 1.367 1_455 S
C1737 C1739 1.389 . S
C1738 H1711 0.957 . S
C1738 C1724 1.376 . S
C1738 C1737 1.367 1_655 S
C1739 C1723 1.377 . S
C1739 C1737 1.389 . S
C1739 C1740 1.524 . S
C1740 C1739 1.524 . S
C1740 C1741 1.397 1_556 S
C1740 C1745 1.363 . S
C1741 H1712 0.950 . S
C1741 C1740 1.397 1_554 S
C1741 C1742 1.334 . S
C1742 H1713 0.950 . S
C1742 C1741 1.334 . S
C1742 C1743 1.287 . S
C1743 C1742 1.287 . S
C1743 C1744 1.524 . S
C1743 H1746 0.999 . S
C1744 H1714 0.950 . S
C1744 C1743 1.524 . S
C1744 C1745 1.415 1_554 S
C1745 H1715 0.950 . S
C1745 C1740 1.363 . S
C1745 C1744 1.415 1_556 S
H1746 C1743 0.999 . S
H1747 C1728 0.913 . S
H1748 C1766 0.951 . S
H1749 C1768 0.951 . S
H1750 C1770 0.950 . S
H1751 C1771 0.950 . S
H1752 C1773 0.950 . S
H1753 C1776 0.950 . S
H1754 C1777 0.950 . S
H1755 C1779 0.950 . S
H1756 C1780 0.950 . S
H1757 C1781 0.951 . S
H1758 C1783 0.951 . S
H1759 C1785 0.950 . S
H1760 C1786 0.950 . S
H1761 C1788 0.950 . S
H1762 C1791 0.950 . S
H1763 C1792 0.950 . S
H1764 C1794 0.950 . S
H1765 C1795 0.950 . S
C1766 H1748 0.951 . S
C1766 C1767 1.366 . S
C1766 C1768 1.388 . S
C1767 C1766 1.366 . S
C1767 C1771 1.385 . S
C1768 H1749 0.951 . S
C1768 C1766 1.388 . S
C1768 C1769 1.366 . S
C1769 C1768 1.366 . S
C1769 C1770 1.414 . S
C1769 C1772 1.499 . S
C1770 H1750 0.950 . S
C1770 C1769 1.414 . S
C1770 C1771 1.374 . S
C1771 H1751 0.950 . S
C1771 C1767 1.385 . S
C1771 C1770 1.374 . S
C1772 C1769 1.499 . S
C1772 C1773 1.373 . S
C1772 C1774 1.389 . S
C1773 H1752 0.950 . S
C1773 C1772 1.373 . S
C1773 C1789 1.377 . S
C1774 C1772 1.389 . S
C1774 C1775 1.524 . S
C1774 C1788 1.377 . S
C1775 C1774 1.524 . S
C1775 C1776 1.397 . S
C1775 C1780 1.363 . S
C1776 H1753 0.950 . S
C1776 C1775 1.397 . S
C1776 C1777 1.334 . S
C1777 H1754 0.950 . S
C1777 C1776 1.334 . S
C1777 C1778 1.287 . S
C1778 C1777 1.287 . S
C1778 C1779 1.524 . S
C1778 H1797 0.913 . S
C1779 H1755 0.950 . S
C1779 C1778 1.524 . S
C1779 C1780 1.415 . S
C1780 H1756 0.950 . S
C1780 C1775 1.363 . S
C1780 C1779 1.415 . S
C1781 H1757 0.951 . S
C1781 C1782 1.366 . S
C1781 C1783 1.388 . S
C1782 C1781 1.366 . S
C1782 C1786 1.385 . S
C1783 H1758 0.951 . S
C1783 C1781 1.388 . S
C1783 C1784 1.366 . S
C1784 C1783 1.366 . S
C1784 C1785 1.414 . S
C1784 C1787 1.499 . S
C1785 H1759 0.950 . S
C1785 C1784 1.414 . S
C1785 C1786 1.374 . S
C1786 H1760 0.950 . S
C1786 C1782 1.385 . S
C1786 C1785 1.374 . S
C1787 C1784 1.499 . S
C1787 C1788 1.373 . S
C1787 C1789 1.389 . S
C1788 H1761 0.950 . S
C1788 C1774 1.377 . S
C1788 C1787 1.373 . S
C1789 C1773 1.377 . S
C1789 C1787 1.389 . S
C1789 C1790 1.524 . S
C1790 C1789 1.524 . S
C1790 C1791 1.397 . S
C1790 C1795 1.363 . S
C1791 H1762 0.950 . S
C1791 C1790 1.397 . S
C1791 C1792 1.334 . S
C1792 H1763 0.950 . S
C1792 C1791 1.334 . S
C1792 C1793 1.287 . S
C1793 C1792 1.287 . S
C1793 C1794 1.524 . S
C1793 H1796 0.999 . S
C1794 H1764 0.950 . S
C1794 C1793 1.524 . S
C1794 C1795 1.415 . S
C1795 H1765 0.950 . S
C1795 C1790 1.363 . S
C1795 C1794 1.415 . S
H1796 C1793 0.999 . S
H1797 C1778 0.913 . S
H1798 C1816 0.951 . S
H1799 C1818 0.951 . S
H1800 C1820 0.950 . S
H1801 C1821 0.950 . S
H1802 C1823 0.950 . S
H1803 C1826 0.950 . S
H1804 C1827 0.950 . S
H1805 C1829 0.950 . S
H1806 C1830 0.950 . S
H1807 C1831 0.946 . S
H1808 C1833 0.951 . S
H1809 C1835 0.950 . S
H1810 C1836 0.950 . S
H1811 C1838 0.950 . S
H1812 C1841 0.950 . S
H1813 C1842 0.950 . S
H1814 C1844 0.950 . S
H1815 C1845 0.950 . S
C1816 H1798 0.951 . S
C1816 C1817 1.350 1_655 S
C1816 C1818 1.388 . S
C1817 C1816 1.350 1_455 S
C1817 C1821 1.400 . S
C1818 H1799 0.951 . S
C1818 C1816 1.388 . S
C1818 C1819 1.366 . S
C1819 C1818 1.366 . S
C1819 C1820 1.414 1_655 S
C1819 C1822 1.499 . S
C1820 H1800 0.950 . S
C1820 C1819 1.414 1_455 S
C1820 C1821 1.374 . S
C1821 H1801 0.950 . S
C1821 C1817 1.400 . S
C1821 C1820 1.374 . S
C1822 C1819 1.499 . S
C1822 C1823 1.373 1_655 S
C1822 C1824 1.389 . S
C1823 H1802 0.950 . S
C1823 C1822 1.373 1_455 S
C1823 C1839 1.377 . S
C1824 C1822 1.389 . S
C1824 C1825 1.524 . S
C1824 C1838 1.377 . S
C1825 C1824 1.524 . S
C1825 C1826 1.397 . S
C1825 C1830 1.363 . S
C1826 H1803 0.950 . S
C1826 C1825 1.397 . S
C1826 C1827 1.334 . S
C1827 H1804 0.950 . S
C1827 C1826 1.334 . S
C1827 C1828 1.287 . S
C1828 C1827 1.287 . S
C1828 C1829 1.524 . S
C1828 H1847 0.913 . S
C1829 H1805 0.950 . S
C1829 C1828 1.524 . S
C1829 C1830 1.415 . S
C1830 H1806 0.950 . S
C1830 C1825 1.363 . S
C1830 C1829 1.415 . S
C1831 H1807 0.946 . S
C1831 C1832 1.371 1_455 S
C1831 C1833 1.388 . S
C1832 C1831 1.371 1_655 S
C1832 C1836 1.385 . S
C1833 H1808 0.951 . S
C1833 C1831 1.388 . S
C1833 C1834 1.366 1_455 S
C1834 C1833 1.366 1_655 S
C1834 C1835 1.414 . S
C1834 C1837 1.499 . S
C1835 H1809 0.950 . S
C1835 C1834 1.414 . S
C1835 C1836 1.374 . S
C1836 H1810 0.950 . S
C1836 C1832 1.385 . S
C1836 C1835 1.374 . S
C1837 C1834 1.499 . S
C1837 C1838 1.373 . S
C1837 C1839 1.389 1_655 S
C1838 H1811 0.950 . S
C1838 C1824 1.377 . S
C1838 C1837 1.373 . S
C1839 C1823 1.377 . S
C1839 C1837 1.389 1_455 S
C1839 C1840 1.524 . S
C1840 C1839 1.524 . S
C1840 C1841 1.397 . S
C1840 C1845 1.363 . S
C1841 H1812 0.950 . S
C1841 C1840 1.397 . S
C1841 C1842 1.334 . S
C1842 H1813 0.950 . S
C1842 C1841 1.334 . S
C1842 C1843 1.287 . S
C1843 C1842 1.287 . S
C1843 C1844 1.524 . S
C1843 H1846 0.999 . S
C1844 H1814 0.950 . S
C1844 C1843 1.524 . S
C1844 C1845 1.415 . S
C1845 H1815 0.950 . S
C1845 C1840 1.363 . S
C1845 C1844 1.415 . S
H1846 C1843 0.999 . S
H1847 C1828 0.913 . S
H1848 C1866 0.951 . S
H1849 C1868 0.951 . S
H1850 C1870 0.950 . S
H1851 C1871 0.950 . S
H1852 C1873 0.950 . S
H1853 C1876 0.950 . S
H1854 C1877 0.950 . S
H1855 C1879 0.950 . S
H1856 C1880 0.950 . S
H1857 C1881 0.951 . S
H1858 C1883 0.951 . S
H1859 C1885 0.950 . S
H1860 C1886 0.950 . S
H1861 C1888 0.950 . S
H1862 C1891 0.950 . S
H1863 C1892 0.950 . S
H1864 C1894 0.950 . S
H1865 C1895 0.950 . S
C1866 H1848 0.951 . S
C1866 C1867 1.366 . S
C1866 C1868 1.388 . S
C1867 C1866 1.366 . S
C1867 C1871 1.385 . S
C1868 H1849 0.951 . S
C1868 C1866 1.388 . S
C1868 C1869 1.366 . S
C1869 C1868 1.366 . S
C1869 C1870 1.414 . S
C1869 C1872 1.499 . S
C1870 H1850 0.950 . S
C1870 C1869 1.414 . S
C1870 C1871 1.374 . S
C1871 H1851 0.950 . S
C1871 C1867 1.385 . S
C1871 C1870 1.374 . S
C1872 C1869 1.499 . S
C1872 C1873 1.373 . S
C1872 C1874 1.389 . S
C1873 H1852 0.950 . S
C1873 C1872 1.373 . S
C1873 C1889 1.377 . S
C1874 C1872 1.389 . S
C1874 C1875 1.524 . S
C1874 C1888 1.377 . S
C1875 C1874 1.524 . S
C1875 C1876 1.397 . S
C1875 C1880 1.363 . S
C1876 H1853 0.950 . S
C1876 C1875 1.397 . S
C1876 C1877 1.334 . S
C1877 H1854 0.950 . S
C1877 C1876 1.334 . S
C1877 C1878 1.287 . S
C1878 C1877 1.287 . S
C1878 C1879 1.524 . S
C1878 H1897 0.913 . S
C1879 H1855 0.950 . S
C1879 C1878 1.524 . S
C1879 C1880 1.415 . S
C1880 H1856 0.950 . S
C1880 C1875 1.363 . S
C1880 C1879 1.415 . S
C1881 H1857 0.951 . S
C1881 C1882 1.366 . S
C1881 C1883 1.388 . S
C1882 C1881 1.366 . S
C1882 C1886 1.385 . S
C1883 H1858 0.951 . S
C1883 C1881 1.388 . S
C1883 C1884 1.366 . S
C1884 C1883 1.366 . S
C1884 C1885 1.414 . S
C1884 C1887 1.499 . S
C1885 H1859 0.950 . S
C1885 C1884 1.414 . S
C1885 C1886 1.374 . S
C1886 H1860 0.950 . S
C1886 C1882 1.385 . S
C1886 C1885 1.374 . S
C1887 C1884 1.499 . S
C1887 C1888 1.373 . S
C1887 C1889 1.389 . S
C1888 H1861 0.950 . S
C1888 C1874 1.377 . S
C1888 C1887 1.373 . S
C1889 C1873 1.377 . S
C1889 C1887 1.389 . S
C1889 C1890 1.524 . S
C1890 C1889 1.524 . S
C1890 C1891 1.397 . S
C1890 C1895 1.363 . S
C1891 H1862 0.950 . S
C1891 C1890 1.397 . S
C1891 C1892 1.334 . S
C1892 H1863 0.950 . S
C1892 C1891 1.334 . S
C1892 C1893 1.287 . S
C1893 C1892 1.287 . S
C1893 C1894 1.524 . S
C1893 H1896 0.999 . S
C1894 H1864 0.950 . S
C1894 C1893 1.524 . S
C1894 C1895 1.415 . S
C1895 H1865 0.950 . S
C1895 C1890 1.363 . S
C1895 C1894 1.415 . S
H1896 C1893 0.999 . S
H1897 C1878 0.913 . S
H1898 C1916 0.951 . S
H1899 C1918 0.951 . S
H1900 C1920 0.950 . S
H1901 C1921 0.950 . S
H1902 C1923 0.950 . S
H1903 C1926 0.950 . S
H1904 C1927 0.950 . S
H1905 C1929 0.950 . S
H1906 C1930 0.950 . S
H1907 C1931 0.951 . S
H1908 C1933 0.951 . S
H1909 C1935 0.950 . S
H1910 C1936 0.950 . S
H1911 C1938 0.950 . S
H1912 C1941 0.950 . S
H1913 C1942 0.950 . S
H1914 C1944 0.950 . S
H1915 C1945 0.950 . S
C1916 H1898 0.951 . S
C1916 C1917 1.366 . S
C1916 C1918 1.388 . S
C1917 C1916 1.366 . S
C1917 C1921 1.385 . S
C1918 H1899 0.951 . S
C1918 C1916 1.388 . S
C1918 C1919 1.366 . S
C1919 C1918 1.366 . S
C1919 C1920 1.414 . S
C1919 C1922 1.499 . S
C1920 H1900 0.950 . S
C1920 C1919 1.414 . S
C1920 C1921 1.374 . S
C1921 H1901 0.950 . S
C1921 C1917 1.385 . S
C1921 C1920 1.374 . S
C1922 C1919 1.499 . S
C1922 C1923 1.373 . S
C1922 C1924 1.389 . S
C1923 H1902 0.950 . S
C1923 C1922 1.373 . S
C1923 C1939 1.377 . S
C1924 C1922 1.389 . S
C1924 C1925 1.524 . S
C1924 C1938 1.377 . S
C1925 C1924 1.524 . S
C1925 C1926 1.397 . S
C1925 C1930 1.363 . S
C1926 H1903 0.950 . S
C1926 C1925 1.397 . S
C1926 C1927 1.334 . S
C1927 H1904 0.950 . S
C1927 C1926 1.334 . S
C1927 C1928 1.287 . S
C1928 C1927 1.287 . S
C1928 C1929 1.524 . S
C1928 H1947 0.913 . S
C1929 H1905 0.950 . S
C1929 C1928 1.524 . S
C1929 C1930 1.415 . S
C1930 H1906 0.950 . S
C1930 C1925 1.363 . S
C1930 C1929 1.415 . S
C1931 H1907 0.951 . S
C1931 C1932 1.366 . S
C1931 C1933 1.388 . S
C1932 C1931 1.366 . S
C1932 C1936 1.385 . S
C1933 H1908 0.951 . S
C1933 C1931 1.388 . S
C1933 C1934 1.366 . S
C1934 C1933 1.366 . S
C1934 C1935 1.414 . S
C1934 C1937 1.499 . S
C1935 H1909 0.950 . S
C1935 C1934 1.414 . S
C1935 C1936 1.374 . S
C1936 H1910 0.950 . S
C1936 C1932 1.385 . S
C1936 C1935 1.374 . S
C1937 C1934 1.499 . S
C1937 C1938 1.373 . S
C1937 C1939 1.389 . S
C1938 H1911 0.950 . S
C1938 C1924 1.377 . S
C1938 C1937 1.373 . S
C1939 C1923 1.377 . S
C1939 C1937 1.389 . S
C1939 C1940 1.524 . S
C1940 C1939 1.524 . S
C1940 C1941 1.397 . S
C1940 C1945 1.363 . S
C1941 H1912 0.950 . S
C1941 C1940 1.397 . S
C1941 C1942 1.334 . S
C1942 H1913 0.950 . S
C1942 C1941 1.334 . S
C1942 C1943 1.287 . S
C1943 C1942 1.287 . S
C1943 C1944 1.524 . S
C1943 H1946 0.999 . S
C1944 H1914 0.950 . S
C1944 C1943 1.524 . S
C1944 C1945 1.415 . S
C1945 H1915 0.950 . S
C1945 C1940 1.363 . S
C1945 C1944 1.415 . S
H1946 C1943 0.999 . S
H1947 C1928 0.913 . S
H1948 C1966 0.951 . S
H1949 C1968 0.951 . S
H1950 C1970 0.950 . S
H1951 C1971 0.950 . S
H1952 C1973 0.950 . S
H1953 C1976 0.950 . S
H1954 C1977 0.950 . S
H1955 C1979 0.950 . S
H1956 C1980 0.950 . S
H1957 C1981 0.951 . S
H1958 C1983 0.951 . S
H1959 C1985 0.950 1_565 S
H1960 C1986 0.950 1_565 S
H1961 C1988 0.950 . S
H1962 C1991 0.950 . S
H1963 C1992 0.950 . S
H1964 C1994 0.950 . S
H1965 C1995 0.950 . S
C1966 H1948 0.951 . S
C1966 C1967 1.373 . S
C1966 C1968 1.388 . S
C1967 C1966 1.373 . S
C1967 C1971 1.377 1_565 S
C1968 H1949 0.951 . S
C1968 C1966 1.388 . S
C1968 C1969 1.366 1_565 S
C1969 C1968 1.366 1_545 S
C1969 C1970 1.414 . S
C1969 C1972 1.499 . S
C1970 H1950 0.950 . S
C1970 C1969 1.414 . S
C1970 C1971 1.374 . S
C1971 H1951 0.950 . S
C1971 C1967 1.377 1_545 S
C1971 C1970 1.374 . S
C1972 C1969 1.499 . S
C1972 C1973 1.373 . S
C1972 C1974 1.389 1_545 S
C1973 H1952 0.950 . S
C1973 C1972 1.373 . S
C1973 C1989 1.377 . S
C1974 C1972 1.389 1_565 S
C1974 C1975 1.524 . S
C1974 C1988 1.377 . S
C1975 C1974 1.524 . S
C1975 C1976 1.397 . S
C1975 C1980 1.363 . S
C1976 H1953 0.950 . S
C1976 C1975 1.397 . S
C1976 C1977 1.334 . S
C1977 H1954 0.950 . S
C1977 C1976 1.334 . S
C1977 C1978 1.287 . S
C1978 C1977 1.287 . S
C1978 C1979 1.524 . S
C1978 H1997 0.913 . S
C1979 H1955 0.950 . S
C1979 C1978 1.524 . S
C1979 C1980 1.415 . S
C1980 H1956 0.950 . S
C1980 C1975 1.363 . S
C1980 C1979 1.415 . S
C1981 H1957 0.951 . S
C1981 C1982 1.366 . S
C1981 C1983 1.388 . S
C1982 C1981 1.366 . S
C1982 C1986 1.385 . S
C1983 H1958 0.951 . S
C1983 C1981 1.388 . S
C1983 C1984 1.366 . S
C1984 C1983 1.366 . S
C1984 C1985 1.414 . S
C1984 C1987 1.499 . S
C1985 H1959 0.950 1_545 S
C1985 C1984 1.414 . S
C1985 C1986 1.374 . S
C1986 H1960 0.950 1_545 S
C1986 C1982 1.385 . S
C1986 C1985 1.374 . S
C1987 C1984 1.499 . S
C1987 C1988 1.373 1_545 S
C1987 C1989 1.389 . S
C1988 H1961 0.950 . S
C1988 C1974 1.377 . S
C1988 C1987 1.373 1_565 S
C1989 C1973 1.377 . S
C1989 C1987 1.389 . S
C1989 C1990 1.524 . S
C1990 C1989 1.524 . S
C1990 C1991 1.397 . S
C1990 C1995 1.363 . S
C1991 H1962 0.950 . S
C1991 C1990 1.397 . S
C1991 C1992 1.334 . S
C1992 H1963 0.950 . S
C1992 C1991 1.334 . S
C1992 C1993 1.287 . S
C1993 C1992 1.287 . S
C1993 C1994 1.524 . S
C1993 H1996 0.999 . S
C1994 H1964 0.950 . S
C1994 C1993 1.524 . S
C1994 C1995 1.415 . S
C1995 H1965 0.950 . S
C1995 C1990 1.363 . S
C1995 C1994 1.415 . S
H1996 C1993 0.999 . S
H1997 C1978 0.913 . S
H1998 C2016 0.951 . S
H1999 C2018 0.951 . S
H2000 C2020 0.950 . S
H2001 C2021 0.950 . S
H2002 C2023 0.950 . S
H2003 C2026 0.950 . S
H2004 C2027 0.950 . S
H2005 C2029 0.950 . S
H2006 C2030 0.950 . S
H2007 C2031 0.951 . S
H2008 C2033 0.951 . S
H2009 C2035 0.950 . S
H2010 C2036 0.950 . S
H2011 C2038 0.950 1_545 S
H2012 C2041 0.950 . S
H2013 C2042 0.950 . S
H2014 C2044 0.950 . S
H2015 C2045 0.950 . S
C2016 H1998 0.951 . S
C2016 C2017 1.366 . S
C2016 C2018 1.388 . S
C2017 C2016 1.366 . S
C2017 C2021 1.385 . S
C2018 H1999 0.951 . S
C2018 C2016 1.388 . S
C2018 C2019 1.366 . S
C2019 C2018 1.366 . S
C2019 C2020 1.414 . S
C2019 C2022 1.499 . S
C2020 H2000 0.950 . S
C2020 C2019 1.414 . S
C2020 C2021 1.374 . S
C2021 H2001 0.950 . S
C2021 C2017 1.385 . S
C2021 C2020 1.374 . S
C2022 C2019 1.499 . S
C2022 C2023 1.373 . S
C2022 C2024 1.389 . S
C2023 H2002 0.950 . S
C2023 C2022 1.373 . S
C2023 C2039 1.377 . S
C2024 C2022 1.389 . S
C2024 C2025 1.524 1_565 S
C2024 C2038 1.377 . S
C2025 C2024 1.524 1_545 S
C2025 C2026 1.397 . S
C2025 C2030 1.363 . S
C2026 H2003 0.950 . S
C2026 C2025 1.397 . S
C2026 C2027 1.334 . S
C2027 H2004 0.950 . S
C2027 C2026 1.334 . S
C2027 C2028 1.287 . S
C2028 C2027 1.287 . S
C2028 C2029 1.524 . S
C2028 H2047 0.913 . S
C2029 H2005 0.950 . S
C2029 C2028 1.524 . S
C2029 C2030 1.415 . S
C2030 H2006 0.950 . S
C2030 C2025 1.363 . S
C2030 C2029 1.415 . S
C2031 H2007 0.951 . S
C2031 C2032 1.366 . S
C2031 C2033 1.388 . S
C2032 C2031 1.366 . S
C2032 C2036 1.385 . S
C2033 H2008 0.951 . S
C2033 C2031 1.388 . S
C2033 C2034 1.366 . S
C2034 C2033 1.366 . S
C2034 C2035 1.414 . S
C2034 C2037 1.499 1_655 S
C2035 H2009 0.950 . S
C2035 C2034 1.414 . S
C2035 C2036 1.374 . S
C2036 H2010 0.950 . S
C2036 C2032 1.385 . S
C2036 C2035 1.374 . S
C2037 C2034 1.499 1_455 S
C2037 C2038 1.373 . S
C2037 C2039 1.389 . S
C2038 H2011 0.950 1_565 S
C2038 C2024 1.377 . S
C2038 C2037 1.373 . S
C2039 C2023 1.377 . S
C2039 C2037 1.389 . S
C2039 C2040 1.524 . S
C2040 C2039 1.524 . S
C2040 C2041 1.397 1_455 S
C2040 C2045 1.363 . S
C2041 H2012 0.950 . S
C2041 C2040 1.397 1_655 S
C2041 C2042 1.334 . S
C2042 H2013 0.950 . S
C2042 C2041 1.334 . S
C2042 C2043 1.287 . S
C2043 C2042 1.287 . S
C2043 C2044 1.524 1_655 S
C2043 H2046 0.999 . S
C2044 H2014 0.950 . S
C2044 C2043 1.524 1_455 S
C2044 C2045 1.415 . S
C2045 H2015 0.950 . S
C2045 C2040 1.363 . S
C2045 C2044 1.415 . S
H2046 C2043 0.999 . S
H2047 C2028 0.913 . S
H2048 C2066 0.951 . S
H2049 C2068 0.951 . S
H2050 C2070 0.950 . S
H2051 C2071 0.950 . S
H2052 C2073 0.950 . S
H2053 C2076 0.950 . S
H2054 C2077 0.950 . S
H2055 C2079 0.950 . S
H2056 C2080 0.950 . S
H2057 C2081 0.951 . S
H2058 C2083 0.951 . S
H2059 C2085 0.950 . S
H2060 C2086 0.950 . S
H2061 C2088 0.950 . S
H2062 C2091 0.950 . S
H2063 C2092 0.950 . S
H2064 C2094 0.950 . S
H2065 C2095 0.950 . S
C2066 H2048 0.951 . S
C2066 C2067 1.366 . S
C2066 C2068 1.388 . S
C2067 C2066 1.366 . S
C2067 C2071 1.385 . S
C2068 H2049 0.951 . S
C2068 C2066 1.388 . S
C2068 C2069 1.366 . S
C2069 C2068 1.366 . S
C2069 C2070 1.414 . S
C2069 C2072 1.499 . S
C2070 H2050 0.950 . S
C2070 C2069 1.414 . S
C2070 C2071 1.374 . S
C2071 H2051 0.950 . S
C2071 C2067 1.385 . S
C2071 C2070 1.374 . S
C2072 C2069 1.499 . S
C2072 C2073 1.373 . S
C2072 C2074 1.389 . S
C2073 H2052 0.950 . S
C2073 C2072 1.373 . S
C2073 C2089 1.377 . S
C2074 C2072 1.389 . S
C2074 C2075 1.524 . S
C2074 C2088 1.377 . S
C2075 C2074 1.524 . S
C2075 C2076 1.397 . S
C2075 C2080 1.363 . S
C2076 H2053 0.950 . S
C2076 C2075 1.397 . S
C2076 C2077 1.334 . S
C2077 H2054 0.950 . S
C2077 C2076 1.334 . S
C2077 C2078 1.287 . S
C2078 C2077 1.287 . S
C2078 C2079 1.524 . S
C2078 H2097 0.913 . S
C2079 H2055 0.950 . S
C2079 C2078 1.524 . S
C2079 C2080 1.415 . S
C2080 H2056 0.950 . S
C2080 C2075 1.363 . S
C2080 C2079 1.415 . S
C2081 H2057 0.951 . S
C2081 C2082 1.366 . S
C2081 C2083 1.388 . S
C2082 C2081 1.366 . S
C2082 C2086 1.385 . S
C2083 H2058 0.951 . S
C2083 C2081 1.388 . S
C2083 C2084 1.366 . S
C2084 C2083 1.366 . S
C2084 C2085 1.414 . S
C2084 C2087 1.499 . S
C2085 H2059 0.950 . S
C2085 C2084 1.414 . S
C2085 C2086 1.374 . S
C2086 H2060 0.950 . S
C2086 C2082 1.385 . S
C2086 C2085 1.374 . S
C2087 C2084 1.499 . S
C2087 C2088 1.373 . S
C2087 C2089 1.389 . S
C2088 H2061 0.950 . S
C2088 C2074 1.377 . S
C2088 C2087 1.373 . S
C2089 C2073 1.377 . S
C2089 C2087 1.389 . S
C2089 C2090 1.524 . S
C2090 C2089 1.524 . S
C2090 C2091 1.397 . S
C2090 C2095 1.363 . S
C2091 H2062 0.950 . S
C2091 C2090 1.397 . S
C2091 C2092 1.334 . S
C2092 H2063 0.950 . S
C2092 C2091 1.334 . S
C2092 C2093 1.287 . S
C2093 C2092 1.287 . S
C2093 C2094 1.524 . S
C2093 H2096 0.999 . S
C2094 H2064 0.950 . S
C2094 C2093 1.524 . S
C2094 C2095 1.415 . S
C2095 H2065 0.950 . S
C2095 C2090 1.363 . S
C2095 C2094 1.415 . S
H2096 C2093 0.999 . S
H2097 C2078 0.913 . S
H2098 C2116 0.951 . S
H2099 C2118 0.951 . S
H2100 C2120 0.950 1_554 S
H2101 C2121 0.950 1_554 S
H2102 C2123 0.950 . S
H2103 C2126 0.950 . S
H2104 C2127 0.950 . S
H2105 C2129 0.950 1_556 S
H2106 C2130 0.950 . S
H2107 C2131 0.951 1_554 S
H2108 C2133 0.937 1_554 S
H2109 C2135 0.950 . S
H2110 C2136 0.950 . S
H2111 C2138 0.950 . S
H2112 C2141 0.950 . S
H2113 C2142 0.950 . S
H2114 C2144 0.950 . S
H2115 C2145 0.950 . S
C2116 H2098 0.951 . S
C2116 C2117 1.366 . S
C2116 C2118 1.388 . S
C2117 C2116 1.366 . S
C2117 C2121 1.385 . S
C2118 H2099 0.951 . S
C2118 C2116 1.388 . S
C2118 C2119 1.366 . S
C2119 C2118 1.366 . S
C2119 C2120 1.414 . S
C2119 C2122 1.499 . S
C2120 H2100 0.950 1_556 S
C2120 C2119 1.414 . S
C2120 C2121 1.374 . S
C2121 H2101 0.950 1_556 S
C2121 C2117 1.385 . S
C2121 C2120 1.374 . S
C2122 C2119 1.499 . S
C2122 C2123 1.373 . S
C2122 C2124 1.389 . S
C2123 H2102 0.950 . S
C2123 C2122 1.373 . S
C2123 C2139 1.377 . S
C2124 C2122 1.389 . S
C2124 C2125 1.524 1_556 S
C2124 C2138 1.377 . S
C2125 C2124 1.524 1_554 S
C2125 C2126 1.397 . S
C2125 C2130 1.363 1_554 S
C2126 H2103 0.950 . S
C2126 C2125 1.397 . S
C2126 C2127 1.334 . S
C2127 H2104 0.950 . S
C2127 C2126 1.334 . S
C2127 C2128 1.287 . S
C2128 C2127 1.287 . S
C2128 C2129 1.524 . S
C2128 H2147 0.913 . S
C2129 H2105 0.950 1_554 S
C2129 C2128 1.524 . S
C2129 C2130 1.415 1_554 S
C2130 H2106 0.950 . S
C2130 C2125 1.363 1_556 S
C2130 C2129 1.415 1_556 S
C2131 H2107 0.951 1_556 S
C2131 C2132 1.366 . S
C2131 C2133 1.388 . S
C2132 C2131 1.366 . S
C2132 C2136 1.385 . S
C2133 H2108 0.937 1_556 S
C2133 C2131 1.388 . S
C2133 C2134 1.366 . S
C2134 C2133 1.366 . S
C2134 C2135 1.414 . S
C2134 C2137 1.499 1_565 S
C2135 H2109 0.950 . S
C2135 C2134 1.414 . S
C2135 C2136 1.374 . S
C2136 H2110 0.950 . S
C2136 C2132 1.385 . S
C2136 C2135 1.374 . S
C2137 C2134 1.499 1_545 S
C2137 C2138 1.373 . S
C2137 C2139 1.389 . S
C2138 H2111 0.950 . S
C2138 C2124 1.377 . S
C2138 C2137 1.373 . S
C2139 C2123 1.377 . S
C2139 C2137 1.389 . S
C2139 C2140 1.524 . S
C2140 C2139 1.524 . S
C2140 C2141 1.397 1_545 S
C2140 C2145 1.363 . S
C2141 H2112 0.950 . S
C2141 C2140 1.397 1_565 S
C2141 C2142 1.334 . S
C2142 H2113 0.950 . S
C2142 C2141 1.334 . S
C2142 C2143 1.287 . S
C2143 C2142 1.287 . S
C2143 C2144 1.524 1_565 S
C2143 H2146 0.999 . S
C2144 H2114 0.950 . S
C2144 C2143 1.524 1_545 S
C2144 C2145 1.415 . S
C2145 H2115 0.950 . S
C2145 C2140 1.363 . S
C2145 C2144 1.415 . S
H2146 C2143 0.999 . S
H2147 C2128 0.913 . S
H2148 C2166 0.951 . S
H2149 C2168 0.951 . S
H2150 C2170 0.950 . S
H2151 C2171 0.950 . S
H2152 C2173 0.950 . S
H2153 C2176 0.950 . S
H2154 C2177 0.950 . S
H2155 C2179 0.950 . S
H2156 C2180 0.950 . S
H2157 C2181 0.951 . S
H2158 C2183 0.951 . S
H2159 C2185 0.950 . S
H2160 C2186 0.950 . S
H2161 C2188 0.950 . S
H2162 C2191 0.950 . S
H2163 C2192 0.950 . S
H2164 C2194 0.950 . S
H2165 C2195 0.950 . S
C2166 H2148 0.951 . S
C2166 C2167 1.366 . S
C2166 C2168 1.388 . S
C2167 C2166 1.366 . S
C2167 C2171 1.385 . S
C2168 H2149 0.951 . S
C2168 C2166 1.388 . S
C2168 C2169 1.366 . S
C2169 C2168 1.366 . S
C2169 C2170 1.414 . S
C2169 C2172 1.499 . S
C2170 H2150 0.950 . S
C2170 C2169 1.414 . S
C2170 C2171 1.374 . S
C2171 H2151 0.950 . S
C2171 C2167 1.385 . S
C2171 C2170 1.374 . S
C2172 C2169 1.499 . S
C2172 C2173 1.373 . S
C2172 C2174 1.389 . S
C2173 H2152 0.950 . S
C2173 C2172 1.373 . S
C2173 C2189 1.377 . S
C2174 C2172 1.389 . S
C2174 C2175 1.524 . S
C2174 C2188 1.377 . S
C2175 C2174 1.524 . S
C2175 C2176 1.397 . S
C2175 C2180 1.363 . S
C2176 H2153 0.950 . S
C2176 C2175 1.397 . S
C2176 C2177 1.334 . S
C2177 H2154 0.950 . S
C2177 C2176 1.334 . S
C2177 C2178 1.287 . S
C2178 C2177 1.287 . S
C2178 C2179 1.524 . S
C2178 H2197 0.913 . S
C2179 H2155 0.950 . S
C2179 C2178 1.524 . S
C2179 C2180 1.415 . S
C2180 H2156 0.950 . S
C2180 C2175 1.363 . S
C2180 C2179 1.415 . S
C2181 H2157 0.951 . S
C2181 C2182 1.366 . S
C2181 C2183 1.388 . S
C2182 C2181 1.366 . S
C2182 C2186 1.385 . S
C2183 H2158 0.951 . S
C2183 C2181 1.388 . S
C2183 C2184 1.366 . S
C2184 C2183 1.366 . S
C2184 C2185 1.414 . S
C2184 C2187 1.499 . S
C2185 H2159 0.950 . S
C2185 C2184 1.414 . S
C2185 C2186 1.374 . S
C2186 H2160 0.950 . S
C2186 C2182 1.385 . S
C2186 C2185 1.374 . S
C2187 C2184 1.499 . S
C2187 C2188 1.373 . S
C2187 C2189 1.389 . S
C2188 H2161 0.950 . S
C2188 C2174 1.377 . S
C2188 C2187 1.373 . S
C2189 C2173 1.377 . S
C2189 C2187 1.389 . S
C2189 C2190 1.524 . S
C2190 C2189 1.524 . S
C2190 C2191 1.397 . S
C2190 C2195 1.363 . S
C2191 H2162 0.950 . S
C2191 C2190 1.397 . S
C2191 C2192 1.334 . S
C2192 H2163 0.950 . S
C2192 C2191 1.334 . S
C2192 C2193 1.287 . S
C2193 C2192 1.287 . S
C2193 C2194 1.524 . S
C2193 H2196 0.999 . S
C2194 H2164 0.950 . S
C2194 C2193 1.524 . S
C2194 C2195 1.415 . S
C2195 H2165 0.950 . S
C2195 C2190 1.363 . S
C2195 C2194 1.415 . S
H2196 C2193 0.999 . S
H2197 C2178 0.913 . S
H2198 C2216 0.951 . S
H2199 C2218 0.951 . S
H2200 C2220 0.950 . S
H2201 C2221 0.950 . S
H2202 C2223 0.950 . S
H2203 C2226 0.950 . S
H2204 C2227 0.950 . S
H2205 C2229 0.950 . S
H2206 C2230 0.950 . S
H2207 C2231 0.951 . S
H2208 C2233 0.951 . S
H2209 C2235 0.950 . S
H2210 C2236 0.950 . S
H2211 C2238 0.950 . S
H2212 C2241 0.950 . S
H2213 C2242 0.950 . S
H2214 C2244 0.950 . S
H2215 C2245 0.950 . S
C2216 H2198 0.951 . S
C2216 C2217 1.367 . S
C2216 C2218 1.388 . S
C2217 C2216 1.367 . S
C2217 C2221 1.383 1_556 S
C2218 H2199 0.951 . S
C2218 C2216 1.388 . S
C2218 C2219 1.366 1_556 S
C2219 C2218 1.366 1_554 S
C2219 C2220 1.414 . S
C2219 C2222 1.499 . S
C2220 H2200 0.950 . S
C2220 C2219 1.414 . S
C2220 C2221 1.374 . S
C2221 H2201 0.950 . S
C2221 C2217 1.383 1_554 S
C2221 C2220 1.374 . S
C2222 C2219 1.499 . S
C2222 C2223 1.373 . S
C2222 C2224 1.389 1_554 S
C2223 H2202 0.950 . S
C2223 C2222 1.373 . S
C2223 C2239 1.377 . S
C2224 C2222 1.389 1_556 S
C2224 C2225 1.524 . S
C2224 C2238 1.377 . S
C2225 C2224 1.524 . S
C2225 C2226 1.397 . S
C2225 C2230 1.363 . S
C2226 H2203 0.950 . S
C2226 C2225 1.397 . S
C2226 C2227 1.334 . S
C2227 H2204 0.950 . S
C2227 C2226 1.334 . S
C2227 C2228 1.287 . S
C2228 C2227 1.287 . S
C2228 C2229 1.524 . S
C2228 H2247 0.913 . S
C2229 H2205 0.950 . S
C2229 C2228 1.524 . S
C2229 C2230 1.415 . S
C2230 H2206 0.950 . S
C2230 C2225 1.363 . S
C2230 C2229 1.415 . S
C2231 H2207 0.951 . S
C2231 C2232 1.366 . S
C2231 C2233 1.388 . S
C2232 C2231 1.366 . S
C2232 C2236 1.385 . S
C2233 H2208 0.951 . S
C2233 C2231 1.388 . S
C2233 C2234 1.366 . S
C2234 C2233 1.366 . S
C2234 C2235 1.414 . S
C2234 C2237 1.499 . S
C2235 H2209 0.950 . S
C2235 C2234 1.414 . S
C2235 C2236 1.374 . S
C2236 H2210 0.950 . S
C2236 C2232 1.385 . S
C2236 C2235 1.374 . S
C2237 C2234 1.499 . S
C2237 C2238 1.373 1_554 S
C2237 C2239 1.389 . S
C2238 H2211 0.950 . S
C2238 C2224 1.377 . S
C2238 C2237 1.373 1_556 S
C2239 C2223 1.377 . S
C2239 C2237 1.389 . S
C2239 C2240 1.524 . S
C2240 C2239 1.524 . S
C2240 C2241 1.397 . S
C2240 C2245 1.363 . S
C2241 H2212 0.950 . S
C2241 C2240 1.397 . S
C2241 C2242 1.334 . S
C2242 H2213 0.950 . S
C2242 C2241 1.334 . S
C2242 C2243 1.287 . S
C2243 C2242 1.287 . S
C2243 C2244 1.524 . S
C2243 H2246 0.999 . S
C2244 H2214 0.950 . S
C2244 C2243 1.524 . S
C2244 C2245 1.415 . S
C2245 H2215 0.950 . S
C2245 C2240 1.363 . S
C2245 C2244 1.415 . S
H2246 C2243 0.999 . S
H2247 C2228 0.913 . S
H2248 C2266 0.951 . S
H2249 C2268 0.951 . S
H2250 C2270 0.950 . S
H2251 C2271 0.950 . S
H2252 C2273 0.950 . S
H2253 C2276 0.950 . S
H2254 C2277 0.950 . S
H2255 C2279 0.950 . S
H2256 C2280 0.950 . S
H2257 C2281 0.951 . S
H2258 C2283 0.951 . S
H2259 C2285 0.950 . S
H2260 C2286 0.950 . S
H2261 C2288 0.950 . S
H2262 C2291 0.950 . S
H2263 C2292 0.950 . S
H2264 C2294 0.950 . S
H2265 C2295 0.950 . S
C2266 H2248 0.951 . S
C2266 C2267 1.366 . S
C2266 C2268 1.388 . S
C2267 C2266 1.366 . S
C2267 C2271 1.385 . S
C2268 H2249 0.951 . S
C2268 C2266 1.388 . S
C2268 C2269 1.366 . S
C2269 C2268 1.366 . S
C2269 C2270 1.414 . S
C2269 C2272 1.499 . S
C2270 H2250 0.950 . S
C2270 C2269 1.414 . S
C2270 C2271 1.374 . S
C2271 H2251 0.950 . S
C2271 C2267 1.385 . S
C2271 C2270 1.374 . S
C2272 C2269 1.499 . S
C2272 C2273 1.373 . S
C2272 C2274 1.389 . S
C2273 H2252 0.950 . S
C2273 C2272 1.373 . S
C2273 C2289 1.377 . S
C2274 C2272 1.389 . S
C2274 C2275 1.524 . S
C2274 C2288 1.377 . S
C2275 C2274 1.524 . S
C2275 C2276 1.397 . S
C2275 C2280 1.363 . S
C2276 H2253 0.950 . S
C2276 C2275 1.397 . S
C2276 C2277 1.334 . S
C2277 H2254 0.950 . S
C2277 C2276 1.334 . S
C2277 C2278 1.287 . S
C2278 C2277 1.287 . S
C2278 C2279 1.524 . S
C2278 H2297 0.913 . S
C2279 H2255 0.950 . S
C2279 C2278 1.524 . S
C2279 C2280 1.415 . S
C2280 H2256 0.950 . S
C2280 C2275 1.363 . S
C2280 C2279 1.415 . S
C2281 H2257 0.951 . S
C2281 C2282 1.366 . S
C2281 C2283 1.388 . S
C2282 C2281 1.366 . S
C2282 C2286 1.385 . S
C2283 H2258 0.951 . S
C2283 C2281 1.388 . S
C2283 C2284 1.366 . S
C2284 C2283 1.366 . S
C2284 C2285 1.414 . S
C2284 C2287 1.499 . S
C2285 H2259 0.950 . S
C2285 C2284 1.414 . S
C2285 C2286 1.374 . S
C2286 H2260 0.950 . S
C2286 C2282 1.385 . S
C2286 C2285 1.374 . S
C2287 C2284 1.499 . S
C2287 C2288 1.373 . S
C2287 C2289 1.389 . S
C2288 H2261 0.950 . S
C2288 C2274 1.377 . S
C2288 C2287 1.373 . S
C2289 C2273 1.377 . S
C2289 C2287 1.389 . S
C2289 C2290 1.524 . S
C2290 C2289 1.524 . S
C2290 C2291 1.397 . S
C2290 C2295 1.363 . S
C2291 H2262 0.950 . S
C2291 C2290 1.397 . S
C2291 C2292 1.334 . S
C2292 H2263 0.950 . S
C2292 C2291 1.334 . S
C2292 C2293 1.287 . S
C2293 C2292 1.287 . S
C2293 C2294 1.524 . S
C2293 H2296 0.999 . S
C2294 H2264 0.950 . S
C2294 C2293 1.524 . S
C2294 C2295 1.415 . S
C2295 H2265 0.950 . S
C2295 C2290 1.363 . S
C2295 C2294 1.415 . S
H2296 C2293 0.999 . S
H2297 C2278 0.913 . S
H2298 C2316 0.951 . S
H2299 C2318 0.951 . S
H2300 C2320 0.992 . S
H2301 C2321 0.969 . S
H2302 C2323 0.950 . S
H2303 C2326 0.950 . S
H2304 C2327 0.950 . S
H2305 C2329 0.950 . S
H2306 C2330 0.950 . S
H2307 C2331 0.968 . S
H2308 C2333 0.950 . S
H2309 C2335 0.950 . S
H2310 C2336 0.950 . S
H2311 C2338 0.950 . S
H2312 C2341 0.941 1_556 S
H2313 C2342 0.950 . S
H2314 C2344 0.909 1_455 S
H2315 C2345 0.955 1_455 S
C2316 H2298 0.951 . S
C2316 C2317 1.366 . S
C2316 C2318 1.388 . S
C2317 C2316 1.366 . S
C2317 C2321 1.362 1_655 S
C2318 H2299 0.951 . S
C2318 C2316 1.388 . S
C2318 C2319 1.366 . S
C2319 C2318 1.366 . S
C2319 C2320 1.381 1_655 S
C2319 C2322 1.499 . S
C2320 H2300 0.992 . S
C2320 C2319 1.381 1_455 S
C2320 C2321 1.371 . S
C2321 H2301 0.969 . S
C2321 C2317 1.362 1_455 S
C2321 C2320 1.371 . S
C2322 C2319 1.499 . S
C2322 C2323 1.373 . S
C2322 C2324 1.389 . S
C2323 H2302 0.950 . S
C2323 C2322 1.373 . S
C2323 C2339 1.377 . S
C2324 C2322 1.389 . S
C2324 C2325 1.524 . S
C2324 C2338 1.377 . S
C2325 C2324 1.524 . S
C2325 C2326 1.397 1_655 S
C2325 C2330 1.363 . S
C2326 H2303 0.950 . S
C2326 C2325 1.397 1_455 S
C2326 C2327 1.334 . S
C2327 H2304 0.950 . S
C2327 C2326 1.334 . S
C2327 C2328 1.287 1_455 S
C2328 C2327 1.287 1_655 S
C2328 C2329 1.524 . S
C2328 H2347 0.913 . S
C2329 H2305 0.950 . S
C2329 C2328 1.524 . S
C2329 C2330 1.415 . S
C2330 H2306 0.950 . S
C2330 C2325 1.363 . S
C2330 C2329 1.415 . S
C2331 H2307 0.968 . S
C2331 C2332 1.352 1_455 S
C2331 C2333 1.385 . S
C2332 C2331 1.352 1_655 S
C2332 C2336 1.385 . S
C2333 H2308 0.950 . S
C2333 C2331 1.385 . S
C2333 C2334 1.366 1_455 S
C2334 C2333 1.366 1_655 S
C2334 C2335 1.414 . S
C2334 C2337 1.499 1_556 S
C2335 H2309 0.950 . S
C2335 C2334 1.414 . S
C2335 C2336 1.374 . S
C2336 H2310 0.950 . S
C2336 C2332 1.385 . S
C2336 C2335 1.374 . S
C2337 C2334 1.499 1_554 S
C2337 C2338 1.373 . S
C2337 C2339 1.389 . S
C2338 H2311 0.950 . S
C2338 C2324 1.377 . S
C2338 C2337 1.373 . S
C2339 C2323 1.377 . S
C2339 C2337 1.389 . S
C2339 C2340 1.524 . S
C2340 C2339 1.524 . S
C2340 C2341 1.429 . S
C2340 C2345 1.359 . S
C2341 H2312 0.941 1_554 S
C2341 C2340 1.429 . S
C2341 C2342 1.314 1_554 S
C2342 H2313 0.950 . S
C2342 C2341 1.314 1_556 S
C2342 C2343 1.287 1_556 S
C2343 C2342 1.287 1_554 S
C2343 C2344 1.583 . S
C2343 H2346 0.999 1_554 S
C2344 H2314 0.909 1_655 S
C2344 C2343 1.583 . S
C2344 C2345 1.407 . S
C2345 H2315 0.955 1_655 S
C2345 C2340 1.359 . S
C2345 C2344 1.407 . S
H2346 C2343 0.999 1_556 S
H2347 C2328 0.913 . S
H2348 C2366 0.951 . S
H2349 C2368 0.951 . S
H2350 C2370 0.950 . S
H2351 C2371 0.950 . S
H2352 C2373 0.950 . S
H2353 C2376 0.950 . S
H2354 C2377 0.950 . S
H2355 C2379 0.950 . S
H2356 C2380 0.950 . S
H2357 C2381 0.951 . S
H2358 C2383 0.951 . S
H2359 C2385 0.950 . S
H2360 C2386 0.950 . S
H2361 C2388 0.950 . S
H2362 C2391 0.950 . S
H2363 C2392 0.950 . S
H2364 C2394 0.950 . S
H2365 C2395 0.950 . S
C2366 H2348 0.951 . S
C2366 C2367 1.366 . S
C2366 C2368 1.388 . S
C2367 C2366 1.366 . S
C2367 C2371 1.385 . S
C2368 H2349 0.951 . S
C2368 C2366 1.388 . S
C2368 C2369 1.366 . S
C2369 C2368 1.366 . S
C2369 C2370 1.414 . S
C2369 C2372 1.499 . S
C2370 H2350 0.950 . S
C2370 C2369 1.414 . S
C2370 C2371 1.374 . S
C2371 H2351 0.950 . S
C2371 C2367 1.385 . S
C2371 C2370 1.374 . S
C2372 C2369 1.499 . S
C2372 C2373 1.373 . S
C2372 C2374 1.389 . S
C2373 H2352 0.950 . S
C2373 C2372 1.373 . S
C2373 C2389 1.377 . S
C2374 C2372 1.389 . S
C2374 C2375 1.524 . S
C2374 C2388 1.377 . S
C2375 C2374 1.524 . S
C2375 C2376 1.397 . S
C2375 C2380 1.363 . S
C2376 H2353 0.950 . S
C2376 C2375 1.397 . S
C2376 C2377 1.334 . S
C2377 H2354 0.950 . S
C2377 C2376 1.334 . S
C2377 C2378 1.287 . S
C2378 C2377 1.287 . S
C2378 C2379 1.524 . S
C2378 H2397 0.913 . S
C2379 H2355 0.950 . S
C2379 C2378 1.524 . S
C2379 C2380 1.415 . S
C2380 H2356 0.950 . S
C2380 C2375 1.363 . S
C2380 C2379 1.415 . S
C2381 H2357 0.951 . S
C2381 C2382 1.366 . S
C2381 C2383 1.388 . S
C2382 C2381 1.366 . S
C2382 C2386 1.385 . S
C2383 H2358 0.951 . S
C2383 C2381 1.388 . S
C2383 C2384 1.366 . S
C2384 C2383 1.366 . S
C2384 C2385 1.414 . S
C2384 C2387 1.499 . S
C2385 H2359 0.950 . S
C2385 C2384 1.414 . S
C2385 C2386 1.374 . S
C2386 H2360 0.950 . S
C2386 C2382 1.385 . S
C2386 C2385 1.374 . S
C2387 C2384 1.499 . S
C2387 C2388 1.373 . S
C2387 C2389 1.389 . S
C2388 H2361 0.950 . S
C2388 C2374 1.377 . S
C2388 C2387 1.373 . S
C2389 C2373 1.377 . S
C2389 C2387 1.389 . S
C2389 C2390 1.524 . S
C2390 C2389 1.524 . S
C2390 C2391 1.397 . S
C2390 C2395 1.363 . S
C2391 H2362 0.950 . S
C2391 C2390 1.397 . S
C2391 C2392 1.334 . S
C2392 H2363 0.950 . S
C2392 C2391 1.334 . S
C2392 C2393 1.287 . S
C2393 C2392 1.287 . S
C2393 C2394 1.524 . S
C2393 H2396 0.999 . S
C2394 H2364 0.950 . S
C2394 C2393 1.524 . S
C2394 C2395 1.415 . S
C2395 H2365 0.950 . S
C2395 C2390 1.363 . S
C2395 C2394 1.415 . S
H2396 C2393 0.999 . S
H2397 C2378 0.913 . S
H2398 C2416 0.951 . S
H2399 C2418 0.951 . S
H2400 C2420 0.950 . S
H2401 C2421 0.950 . S
H2402 C2423 0.950 . S
H2403 C2426 0.950 . S
H2404 C2427 0.950 . S
H2405 C2429 0.950 . S
H2406 C2430 0.950 . S
H2407 C2431 0.951 . S
H2408 C2433 0.951 . S
H2409 C2435 0.993 . S
H2410 C2436 0.915 1_655 S
H2411 C2438 0.950 . S
H2412 C2441 0.950 . S
H2413 C2442 0.950 . S
H2414 C2444 0.950 . S
H2415 C2445 0.950 . S
C2416 H2398 0.951 . S
C2416 C2417 1.375 . S
C2416 C2418 1.388 . S
C2417 C2416 1.375 . S
C2417 C2421 1.374 1_655 S
C2418 H2399 0.951 . S
C2418 C2416 1.388 . S
C2418 C2419 1.366 1_655 S
C2419 C2418 1.366 1_455 S
C2419 C2420 1.414 . S
C2419 C2422 1.499 . S
C2420 H2400 0.950 . S
C2420 C2419 1.414 . S
C2420 C2421 1.374 . S
C2421 H2401 0.950 . S
C2421 C2417 1.374 1_455 S
C2421 C2420 1.374 . S
C2422 C2419 1.499 . S
C2422 C2423 1.373 . S
C2422 C2424 1.389 1_455 S
C2423 H2402 0.950 . S
C2423 C2422 1.373 . S
C2423 C2439 1.377 . S
C2424 C2422 1.389 1_655 S
C2424 C2425 1.524 . S
C2424 C2438 1.377 . S
C2425 C2424 1.524 . S
C2425 C2426 1.397 . S
C2425 C2430 1.363 . S
C2426 H2403 0.950 . S
C2426 C2425 1.397 . S
C2426 C2427 1.334 . S
C2427 H2404 0.950 . S
C2427 C2426 1.334 . S
C2427 C2428 1.287 . S
C2428 C2427 1.287 . S
C2428 C2429 1.524 . S
C2428 H2447 0.913 . S
C2429 H2405 0.950 . S
C2429 C2428 1.524 . S
C2429 C2430 1.415 . S
C2430 H2406 0.950 . S
C2430 C2425 1.363 . S
C2430 C2429 1.415 . S
C2431 H2407 0.951 . S
C2431 C2432 1.366 . S
C2431 C2433 1.388 . S
C2432 C2431 1.366 . S
C2432 C2436 1.424 . S
C2433 H2408 0.951 . S
C2433 C2431 1.388 . S
C2433 C2434 1.366 . S
C2434 C2433 1.366 . S
C2434 C2435 1.376 1_455 S
C2434 C2437 1.499 . S
C2435 H2409 0.993 . S
C2435 C2434 1.376 1_655 S
C2435 C2436 1.374 1_655 S
C2436 H2410 0.915 1_455 S
C2436 C2432 1.424 . S
C2436 C2435 1.374 1_455 S
C2437 C2434 1.499 . S
C2437 C2438 1.373 1_455 S
C2437 C2439 1.389 . S
C2438 H2411 0.950 . S
C2438 C2424 1.377 . S
C2438 C2437 1.373 1_655 S
C2439 C2423 1.377 . S
C2439 C2437 1.389 . S
C2439 C2440 1.524 . S
C2440 C2439 1.524 . S
C2440 C2441 1.397 . S
C2440 C2445 1.363 . S
C2441 H2412 0.950 . S
C2441 C2440 1.397 . S
C2441 C2442 1.334 . S
C2442 H2413 0.950 . S
C2442 C2441 1.334 . S
C2442 C2443 1.287 . S
C2443 C2442 1.287 . S
C2443 C2444 1.524 . S
C2443 H2446 0.999 . S
C2444 H2414 0.950 . S
C2444 C2443 1.524 . S
C2444 C2445 1.415 . S
C2445 H2415 0.950 . S
C2445 C2440 1.363 . S
C2445 C2444 1.415 . S
H2446 C2443 0.999 . S
H2447 C2428 0.913 . S
H2448 C2466 0.951 . S
H2449 C2468 0.951 . S
H2450 C2470 0.950 . S
H2451 C2471 0.950 . S
H2452 C2473 0.950 . S
H2453 C2476 0.950 . S
H2454 C2477 0.950 . S
H2455 C2479 0.950 . S
H2456 C2480 0.950 . S
H2457 C2481 0.951 . S
H2458 C2483 0.951 . S
H2459 C2485 0.950 . S
H2460 C2486 0.950 . S
H2461 C2488 0.950 . S
H2462 C2491 0.950 . S
H2463 C2492 0.950 . S
H2464 C2494 0.950 . S
H2465 C2495 0.950 . S
C2466 H2448 0.951 . S
C2466 C2467 1.366 . S
C2466 C2468 1.388 . S
C2467 C2466 1.366 . S
C2467 C2471 1.385 . S
C2468 H2449 0.951 . S
C2468 C2466 1.388 . S
C2468 C2469 1.366 . S
C2469 C2468 1.366 . S
C2469 C2470 1.414 . S
C2469 C2472 1.499 . S
C2470 H2450 0.950 . S
C2470 C2469 1.414 . S
C2470 C2471 1.374 . S
C2471 H2451 0.950 . S
C2471 C2467 1.385 . S
C2471 C2470 1.374 . S
C2472 C2469 1.499 . S
C2472 C2473 1.373 . S
C2472 C2474 1.389 . S
C2473 H2452 0.950 . S
C2473 C2472 1.373 . S
C2473 C2489 1.377 . S
C2474 C2472 1.389 . S
C2474 C2475 1.524 . S
C2474 C2488 1.377 . S
C2475 C2474 1.524 . S
C2475 C2476 1.397 . S
C2475 C2480 1.363 . S
C2476 H2453 0.950 . S
C2476 C2475 1.397 . S
C2476 C2477 1.334 . S
C2477 H2454 0.950 . S
C2477 C2476 1.334 . S
C2477 C2478 1.287 . S
C2478 C2477 1.287 . S
C2478 C2479 1.524 . S
C2478 H2497 0.913 . S
C2479 H2455 0.950 . S
C2479 C2478 1.524 . S
C2479 C2480 1.415 . S
C2480 H2456 0.950 . S
C2480 C2475 1.363 . S
C2480 C2479 1.415 . S
C2481 H2457 0.951 . S
C2481 C2482 1.366 . S
C2481 C2483 1.388 . S
C2482 C2481 1.366 . S
C2482 C2486 1.385 . S
C2483 H2458 0.951 . S
C2483 C2481 1.388 . S
C2483 C2484 1.366 . S
C2484 C2483 1.366 . S
C2484 C2485 1.414 . S
C2484 C2487 1.499 . S
C2485 H2459 0.950 . S
C2485 C2484 1.414 . S
C2485 C2486 1.374 . S
C2486 H2460 0.950 . S
C2486 C2482 1.385 . S
C2486 C2485 1.374 . S
C2487 C2484 1.499 . S
C2487 C2488 1.373 . S
C2487 C2489 1.389 . S
C2488 H2461 0.950 . S
C2488 C2474 1.377 . S
C2488 C2487 1.373 . S
C2489 C2473 1.377 . S
C2489 C2487 1.389 . S
C2489 C2490 1.524 . S
C2490 C2489 1.524 . S
C2490 C2491 1.397 . S
C2490 C2495 1.363 . S
C2491 H2462 0.950 . S
C2491 C2490 1.397 . S
C2491 C2492 1.334 . S
C2492 H2463 0.950 . S
C2492 C2491 1.334 . S
C2492 C2493 1.287 . S
C2493 C2492 1.287 . S
C2493 C2494 1.524 . S
C2493 H2496 0.999 . S
C2494 H2464 0.950 . S
C2494 C2493 1.524 . S
C2494 C2495 1.415 . S
C2495 H2465 0.950 . S
C2495 C2490 1.363 . S
C2495 C2494 1.415 . S
H2496 C2493 0.999 . S
H2497 C2478 0.913 . S
H2498 C2516 0.951 . S
H2499 C2518 0.951 . S
H2500 C2520 0.950 . S
H2501 C2521 0.950 . S
H2502 C2523 0.950 . S
H2503 C2526 0.950 . S
H2504 C2527 0.950 . S
H2505 C2529 0.950 . S
H2506 C2530 0.950 . S
H2507 C2531 0.951 . S
H2508 C2533 0.951 . S
H2509 C2535 0.950 . S
H2510 C2536 0.950 . S
H2511 C2538 0.950 . S
H2512 C2541 0.950 . S
H2513 C2542 0.950 . S
H2514 C2544 0.950 . S
H2515 C2545 0.950 . S
C2516 H2498 0.951 . S
C2516 C2517 1.366 . S
C2516 C2518 1.388 . S
C2517 C2516 1.366 . S
C2517 C2521 1.385 . S
C2518 H2499 0.951 . S
C2518 C2516 1.388 . S
C2518 C2519 1.366 . S
C2519 C2518 1.366 . S
C2519 C2520 1.414 . S
C2519 C2522 1.499 . S
C2520 H2500 0.950 . S
C2520 C2519 1.414 . S
C2520 C2521 1.374 . S
C2521 H2501 0.950 . S
C2521 C2517 1.385 . S
C2521 C2520 1.374 . S
C2522 C2519 1.499 . S
C2522 C2523 1.373 . S
C2522 C2524 1.389 . S
C2523 H2502 0.950 . S
C2523 C2522 1.373 . S
C2523 C2539 1.377 . S
C2524 C2522 1.389 . S
C2524 C2525 1.524 . S
C2524 C2538 1.377 . S
C2525 C2524 1.524 . S
C2525 C2526 1.397 . S
C2525 C2530 1.363 . S
C2526 H2503 0.950 . S
C2526 C2525 1.397 . S
C2526 C2527 1.334 . S
C2527 H2504 0.950 . S
C2527 C2526 1.334 . S
C2527 C2528 1.287 . S
C2528 C2527 1.287 . S
C2528 C2529 1.524 . S
C2528 H2547 0.913 . S
C2529 H2505 0.950 . S
C2529 C2528 1.524 . S
C2529 C2530 1.415 . S
C2530 H2506 0.950 . S
C2530 C2525 1.363 . S
C2530 C2529 1.415 . S
C2531 H2507 0.951 . S
C2531 C2532 1.366 . S
C2531 C2533 1.388 . S
C2532 C2531 1.366 . S
C2532 C2536 1.385 . S
C2533 H2508 0.951 . S
C2533 C2531 1.388 . S
C2533 C2534 1.366 . S
C2534 C2533 1.366 . S
C2534 C2535 1.414 . S
C2534 C2537 1.499 . S
C2535 H2509 0.950 . S
C2535 C2534 1.414 . S
C2535 C2536 1.374 . S
C2536 H2510 0.950 . S
C2536 C2532 1.385 . S
C2536 C2535 1.374 . S
C2537 C2534 1.499 . S
C2537 C2538 1.373 . S
C2537 C2539 1.389 . S
C2538 H2511 0.950 . S
C2538 C2524 1.377 . S
C2538 C2537 1.373 . S
C2539 C2523 1.377 . S
C2539 C2537 1.389 . S
C2539 C2540 1.524 . S
C2540 C2539 1.524 . S
C2540 C2541 1.397 . S
C2540 C2545 1.363 . S
C2541 H2512 0.950 . S
C2541 C2540 1.397 . S
C2541 C2542 1.334 . S
C2542 H2513 0.950 . S
C2542 C2541 1.334 . S
C2542 C2543 1.287 . S
C2543 C2542 1.287 . S
C2543 C2544 1.524 . S
C2543 H2546 0.999 . S
C2544 H2514 0.950 . S
C2544 C2543 1.524 . S
C2544 C2545 1.415 . S
C2545 H2515 0.950 . S
C2545 C2540 1.363 . S
C2545 C2544 1.415 . S
H2546 C2543 0.999 . S
H2547 C2528 0.913 . S
H2548 C2566 0.951 . S
H2549 C2568 0.951 . S
H2550 C2570 0.950 . S
H2551 C2571 0.950 . S
H2552 C2573 0.950 . S
H2553 C2576 0.950 1_545 S
H2554 C2577 0.950 . S
H2555 C2579 0.950 . S
H2556 C2580 0.950 . S
H2557 C2581 0.951 . S
H2558 C2583 0.951 . S
H2559 C2585 0.950 . S
H2560 C2586 0.950 . S
H2561 C2588 0.950 . S
H2562 C2591 0.950 1_565 S
H2563 C2592 0.944 1_565 S
H2564 C2594 0.950 . S
H2565 C2595 0.950 . S
C2566 H2548 0.951 . S
C2566 C2567 1.364 1_565 S
C2566 C2568 1.388 . S
C2567 C2566 1.364 1_545 S
C2567 C2571 1.386 . S
C2568 H2549 0.951 . S
C2568 C2566 1.388 . S
C2568 C2569 1.372 . S
C2569 C2568 1.372 . S
C2569 C2570 1.408 1_565 S
C2569 C2572 1.498 1_565 S
C2570 H2550 0.950 . S
C2570 C2569 1.408 1_545 S
C2570 C2571 1.374 . S
C2571 H2551 0.950 . S
C2571 C2567 1.386 . S
C2571 C2570 1.374 . S
C2572 C2569 1.498 1_545 S
C2572 C2573 1.370 . S
C2572 C2574 1.392 1_545 S
C2573 H2552 0.950 . S
C2573 C2572 1.370 . S
C2573 C2589 1.377 . S
C2574 C2572 1.392 1_565 S
C2574 C2575 1.524 . S
C2574 C2588 1.377 . S
C2575 C2574 1.524 . S
C2575 C2576 1.397 . S
C2575 C2580 1.363 . S
C2576 H2553 0.950 1_565 S
C2576 C2575 1.397 . S
C2576 C2577 1.334 . S
C2577 H2554 0.950 . S
C2577 C2576 1.334 . S
C2577 C2578 1.287 . S
C2578 C2577 1.287 . S
C2578 C2579 1.524 . S
C2578 H2597 0.913 . S
C2579 H2555 0.950 . S
C2579 C2578 1.524 . S
C2579 C2580 1.415 . S
C2580 H2556 0.950 . S
C2580 C2575 1.363 . S
C2580 C2579 1.415 . S
C2581 H2557 0.951 . S
C2581 C2582 1.366 1_545 S
C2581 C2583 1.388 . S
C2582 C2581 1.366 1_565 S
C2582 C2586 1.385 . S
C2583 H2558 0.951 . S
C2583 C2581 1.388 . S
C2583 C2584 1.366 1_545 S
C2584 C2583 1.366 1_565 S
C2584 C2585 1.414 . S
C2584 C2587 1.499 . S
C2585 H2559 0.950 . S
C2585 C2584 1.414 . S
C2585 C2586 1.374 . S
C2586 H2560 0.950 . S
C2586 C2582 1.385 . S
C2586 C2585 1.374 . S
C2587 C2584 1.499 . S
C2587 C2588 1.373 . S
C2587 C2589 1.389 1_565 S
C2588 H2561 0.950 . S
C2588 C2574 1.377 . S
C2588 C2587 1.373 . S
C2589 C2573 1.377 . S
C2589 C2587 1.389 1_545 S
C2589 C2590 1.524 . S
C2590 C2589 1.524 . S
C2590 C2591 1.397 . S
C2590 C2595 1.363 . S
C2591 H2562 0.950 1_545 S
C2591 C2590 1.397 . S
C2591 C2592 1.334 . S
C2592 H2563 0.944 1_545 S
C2592 C2591 1.334 . S
C2592 C2593 1.287 . S
C2593 C2592 1.287 . S
C2593 C2594 1.524 . S
C2593 H2596 0.999 . S
C2594 H2564 0.950 . S
C2594 C2593 1.524 . S
C2594 C2595 1.415 . S
C2595 H2565 0.950 . S
C2595 C2590 1.363 . S
C2595 C2594 1.415 . S
H2596 C2593 0.999 . S
H2597 C2578 0.913 . S
H2598 C2616 0.951 . S
H2599 C2618 0.951 . S
H2600 C2620 0.950 . S
H2601 C2621 0.950 . S
H2602 C2623 0.950 . S
H2603 C2626 0.950 . S
H2604 C2627 0.950 . S
H2605 C2629 0.950 . S
H2606 C2630 0.950 . S
H2607 C2631 0.951 . S
H2608 C2633 0.951 . S
H2609 C2635 0.950 . S
H2610 C2636 0.950 . S
H2611 C2638 0.950 . S
H2612 C2641 0.950 . S
H2613 C2642 0.950 . S
H2614 C2644 0.950 . S
H2615 C2645 0.950 . S
C2616 H2598 0.951 . S
C2616 C2617 1.366 . S
C2616 C2618 1.388 . S
C2617 C2616 1.366 . S
C2617 C2621 1.385 . S
C2618 H2599 0.951 . S
C2618 C2616 1.388 . S
C2618 C2619 1.366 . S
C2619 C2618 1.366 . S
C2619 C2620 1.414 . S
C2619 C2622 1.499 . S
C2620 H2600 0.950 . S
C2620 C2619 1.414 . S
C2620 C2621 1.374 . S
C2621 H2601 0.950 . S
C2621 C2617 1.385 . S
C2621 C2620 1.374 . S
C2622 C2619 1.499 . S
C2622 C2623 1.373 . S
C2622 C2624 1.389 . S
C2623 H2602 0.950 . S
C2623 C2622 1.373 . S
C2623 C2639 1.377 . S
C2624 C2622 1.389 . S
C2624 C2625 1.524 . S
C2624 C2638 1.377 . S
C2625 C2624 1.524 . S
C2625 C2626 1.397 . S
C2625 C2630 1.363 . S
C2626 H2603 0.950 . S
C2626 C2625 1.397 . S
C2626 C2627 1.334 1_565 S
C2627 H2604 0.950 . S
C2627 C2626 1.334 1_545 S
C2627 C2628 1.287 . S
C2628 C2627 1.287 . S
C2628 C2629 1.524 . S
C2628 H2647 0.913 . S
C2629 H2605 0.950 . S
C2629 C2628 1.524 . S
C2629 C2630 1.415 1_545 S
C2630 H2606 0.950 . S
C2630 C2625 1.363 . S
C2630 C2629 1.415 1_565 S
C2631 H2607 0.951 . S
C2631 C2632 1.366 . S
C2631 C2633 1.388 . S
C2632 C2631 1.366 . S
C2632 C2636 1.385 . S
C2633 H2608 0.951 . S
C2633 C2631 1.388 . S
C2633 C2634 1.366 . S
C2634 C2633 1.366 . S
C2634 C2635 1.414 . S
C2634 C2637 1.499 . S
C2635 H2609 0.950 . S
C2635 C2634 1.414 . S
C2635 C2636 1.374 . S
C2636 H2610 0.950 . S
C2636 C2632 1.385 . S
C2636 C2635 1.374 . S
C2637 C2634 1.499 . S
C2637 C2638 1.373 . S
C2637 C2639 1.389 . S
C2638 H2611 0.950 . S
C2638 C2624 1.377 . S
C2638 C2637 1.373 . S
C2639 C2623 1.377 . S
C2639 C2637 1.389 . S
C2639 C2640 1.524 . S
C2640 C2639 1.524 . S
C2640 C2641 1.397 . S
C2640 C2645 1.363 . S
C2641 H2612 0.950 . S
C2641 C2640 1.397 . S
C2641 C2642 1.334 . S
C2642 H2613 0.950 . S
C2642 C2641 1.334 . S
C2642 C2643 1.287 . S
C2643 C2642 1.287 . S
C2643 C2644 1.524 . S
C2643 H2646 0.999 . S
C2644 H2614 0.950 . S
C2644 C2643 1.524 . S
C2644 C2645 1.415 . S
C2645 H2615 0.950 . S
C2645 C2640 1.363 . S
C2645 C2644 1.415 . S
H2646 C2643 0.999 . S
H2647 C2628 0.913 . S
H2648 C2666 0.951 . S
H2649 C2668 0.951 . S
H2650 C2670 0.950 . S
H2651 C2671 0.950 . S
H2652 C2673 0.950 . S
H2653 C2676 0.950 . S
H2654 C2677 0.950 . S
H2655 C2679 0.950 . S
H2656 C2680 0.950 . S
H2657 C2681 0.951 . S
H2658 C2683 0.951 . S
H2659 C2685 0.950 . S
H2660 C2686 0.950 . S
H2661 C2688 0.950 . S
H2662 C2691 0.950 . S
H2663 C2692 0.950 . S
H2664 C2694 0.950 . S
H2665 C2695 0.950 . S
C2666 H2648 0.951 . S
C2666 C2667 1.366 . S
C2666 C2668 1.388 . S
C2667 C2666 1.366 . S
C2667 C2671 1.385 . S
C2668 H2649 0.951 . S
C2668 C2666 1.388 . S
C2668 C2669 1.366 . S
C2669 C2668 1.366 . S
C2669 C2670 1.414 . S
C2669 C2672 1.499 . S
C2670 H2650 0.950 . S
C2670 C2669 1.414 . S
C2670 C2671 1.374 . S
C2671 H2651 0.950 . S
C2671 C2667 1.385 . S
C2671 C2670 1.374 . S
C2672 C2669 1.499 . S
C2672 C2673 1.373 . S
C2672 C2674 1.389 . S
C2673 H2652 0.950 . S
C2673 C2672 1.373 . S
C2673 C2689 1.377 . S
C2674 C2672 1.389 . S
C2674 C2675 1.524 . S
C2674 C2688 1.377 . S
C2675 C2674 1.524 . S
C2675 C2676 1.397 . S
C2675 C2680 1.363 . S
C2676 H2653 0.950 . S
C2676 C2675 1.397 . S
C2676 C2677 1.334 . S
C2677 H2654 0.950 . S
C2677 C2676 1.334 . S
C2677 C2678 1.287 . S
C2678 C2677 1.287 . S
C2678 C2679 1.524 . S
C2678 H2697 0.913 . S
C2679 H2655 0.950 . S
C2679 C2678 1.524 . S
C2679 C2680 1.415 . S
C2680 H2656 0.950 . S
C2680 C2675 1.363 . S
C2680 C2679 1.415 . S
C2681 H2657 0.951 . S
C2681 C2682 1.366 . S
C2681 C2683 1.388 . S
C2682 C2681 1.366 . S
C2682 C2686 1.385 . S
C2683 H2658 0.951 . S
C2683 C2681 1.388 . S
C2683 C2684 1.366 . S
C2684 C2683 1.366 . S
C2684 C2685 1.414 . S
C2684 C2687 1.499 . S
C2685 H2659 0.950 . S
C2685 C2684 1.414 . S
C2685 C2686 1.374 . S
C2686 H2660 0.950 . S
C2686 C2682 1.385 . S
C2686 C2685 1.374 . S
C2687 C2684 1.499 . S
C2687 C2688 1.373 . S
C2687 C2689 1.389 . S
C2688 H2661 0.950 . S
C2688 C2674 1.377 . S
C2688 C2687 1.373 . S
C2689 C2673 1.377 . S
C2689 C2687 1.389 . S
C2689 C2690 1.524 . S
C2690 C2689 1.524 . S
C2690 C2691 1.397 . S
C2690 C2695 1.363 . S
C2691 H2662 0.950 . S
C2691 C2690 1.397 . S
C2691 C2692 1.334 . S
C2692 H2663 0.950 . S
C2692 C2691 1.334 . S
C2692 C2693 1.287 . S
C2693 C2692 1.287 . S
C2693 C2694 1.524 . S
C2693 H2696 0.999 . S
C2694 H2664 0.950 . S
C2694 C2693 1.524 . S
C2694 C2695 1.415 . S
C2695 H2665 0.950 . S
C2695 C2690 1.363 . S
C2695 C2694 1.415 . S
H2696 C2693 0.999 . S
H2697 C2678 0.913 . S
H2698 C2716 0.951 . S
H2699 C2718 0.951 . S
H2700 C2720 0.950 . S
H2701 C2721 0.950 . S
H2702 C2723 0.950 . S
H2703 C2726 0.950 . S
H2704 C2727 0.950 . S
H2705 C2729 0.950 . S
H2706 C2730 0.950 . S
H2707 C2731 0.951 . S
H2708 C2733 0.951 . S
H2709 C2735 0.950 . S
H2710 C2736 0.950 . S
H2711 C2738 0.950 . S
H2712 C2741 0.950 . S
H2713 C2742 0.950 . S
H2714 C2744 0.950 . S
H2715 C2745 0.950 . S
C2716 H2698 0.951 . S
C2716 C2717 1.366 . S
C2716 C2718 1.388 . S
C2717 C2716 1.366 . S
C2717 C2721 1.385 . S
C2718 H2699 0.951 . S
C2718 C2716 1.388 . S
C2718 C2719 1.366 . S
C2719 C2718 1.366 . S
C2719 C2720 1.414 . S
C2719 C2722 1.499 . S
C2720 H2700 0.950 . S
C2720 C2719 1.414 . S
C2720 C2721 1.374 . S
C2721 H2701 0.950 . S
C2721 C2717 1.385 . S
C2721 C2720 1.374 . S
C2722 C2719 1.499 . S
C2722 C2723 1.373 . S
C2722 C2724 1.389 . S
C2723 H2702 0.950 . S
C2723 C2722 1.373 . S
C2723 C2739 1.377 . S
C2724 C2722 1.389 . S
C2724 C2725 1.524 . S
C2724 C2738 1.377 . S
C2725 C2724 1.524 . S
C2725 C2726 1.397 . S
C2725 C2730 1.363 . S
C2726 H2703 0.950 . S
C2726 C2725 1.397 . S
C2726 C2727 1.334 1_556 S
C2727 H2704 0.950 . S
C2727 C2726 1.334 1_554 S
C2727 C2728 1.287 . S
C2728 C2727 1.287 . S
C2728 C2729 1.524 . S
C2728 H2747 0.913 . S
C2729 H2705 0.950 . S
C2729 C2728 1.524 . S
C2729 C2730 1.415 1_554 S
C2730 H2706 0.950 . S
C2730 C2725 1.363 . S
C2730 C2729 1.415 1_556 S
C2731 H2707 0.951 . S
C2731 C2732 1.366 . S
C2731 C2733 1.388 . S
C2732 C2731 1.366 . S
C2732 C2736 1.385 . S
C2733 H2708 0.951 . S
C2733 C2731 1.388 . S
C2733 C2734 1.366 . S
C2734 C2733 1.366 . S
C2734 C2735 1.414 . S
C2734 C2737 1.499 . S
C2735 H2709 0.950 . S
C2735 C2734 1.414 . S
C2735 C2736 1.374 . S
C2736 H2710 0.950 . S
C2736 C2732 1.385 . S
C2736 C2735 1.374 . S
C2737 C2734 1.499 . S
C2737 C2738 1.373 . S
C2737 C2739 1.389 . S
C2738 H2711 0.950 . S
C2738 C2724 1.377 . S
C2738 C2737 1.373 . S
C2739 C2723 1.377 . S
C2739 C2737 1.389 . S
C2739 C2740 1.524 . S
C2740 C2739 1.524 . S
C2740 C2741 1.397 . S
C2740 C2745 1.363 . S
C2741 H2712 0.950 . S
C2741 C2740 1.397 . S
C2741 C2742 1.334 . S
C2742 H2713 0.950 . S
C2742 C2741 1.334 . S
C2742 C2743 1.287 . S
C2743 C2742 1.287 . S
C2743 C2744 1.524 . S
C2743 H2746 0.999 . S
C2744 H2714 0.950 . S
C2744 C2743 1.524 . S
C2744 C2745 1.415 . S
C2745 H2715 0.950 . S
C2745 C2740 1.363 . S
C2745 C2744 1.415 . S
H2746 C2743 0.999 . S
H2747 C2728 0.913 . S
H2748 C2766 0.951 . S
H2749 C2768 0.951 . S
H2750 C2770 0.950 . S
H2751 C2771 0.950 . S
H2752 C2773 0.950 . S
H2753 C2776 0.950 . S
H2754 C2777 0.950 . S
H2755 C2779 0.950 . S
H2756 C2780 0.950 . S
H2757 C2781 0.951 . S
H2758 C2783 0.951 . S
H2759 C2785 0.950 . S
H2760 C2786 0.950 . S
H2761 C2788 0.950 . S
H2762 C2791 0.950 . S
H2763 C2792 0.950 . S
H2764 C2794 0.950 . S
H2765 C2795 0.950 . S
C2766 H2748 0.951 . S
C2766 C2767 1.366 . S
C2766 C2768 1.388 . S
C2767 C2766 1.366 . S
C2767 C2771 1.385 . S
C2768 H2749 0.951 . S
C2768 C2766 1.388 . S
C2768 C2769 1.366 . S
C2769 C2768 1.366 . S
C2769 C2770 1.414 . S
C2769 C2772 1.499 . S
C2770 H2750 0.950 . S
C2770 C2769 1.414 . S
C2770 C2771 1.374 . S
C2771 H2751 0.950 . S
C2771 C2767 1.385 . S
C2771 C2770 1.374 . S
C2772 C2769 1.499 . S
C2772 C2773 1.373 . S
C2772 C2774 1.389 . S
C2773 H2752 0.950 . S
C2773 C2772 1.373 . S
C2773 C2789 1.377 . S
C2774 C2772 1.389 . S
C2774 C2775 1.524 . S
C2774 C2788 1.377 . S
C2775 C2774 1.524 . S
C2775 C2776 1.397 . S
C2775 C2780 1.363 . S
C2776 H2753 0.950 . S
C2776 C2775 1.397 . S
C2776 C2777 1.334 . S
C2777 H2754 0.950 . S
C2777 C2776 1.334 . S
C2777 C2778 1.287 . S
C2778 C2777 1.287 . S
C2778 C2779 1.524 . S
C2778 H2797 0.913 . S
C2779 H2755 0.950 . S
C2779 C2778 1.524 . S
C2779 C2780 1.415 . S
C2780 H2756 0.950 . S
C2780 C2775 1.363 . S
C2780 C2779 1.415 . S
C2781 H2757 0.951 . S
C2781 C2782 1.366 . S
C2781 C2783 1.388 . S
C2782 C2781 1.366 . S
C2782 C2786 1.385 . S
C2783 H2758 0.951 . S
C2783 C2781 1.388 . S
C2783 C2784 1.366 . S
C2784 C2783 1.366 . S
C2784 C2785 1.414 . S
C2784 C2787 1.499 . S
C2785 H2759 0.950 . S
C2785 C2784 1.414 . S
C2785 C2786 1.374 . S
C2786 H2760 0.950 . S
C2786 C2782 1.385 . S
C2786 C2785 1.374 . S
C2787 C2784 1.499 . S
C2787 C2788 1.373 . S
C2787 C2789 1.389 . S
C2788 H2761 0.950 . S
C2788 C2774 1.377 . S
C2788 C2787 1.373 . S
C2789 C2773 1.377 . S
C2789 C2787 1.389 . S
C2789 C2790 1.524 . S
C2790 C2789 1.524 . S
C2790 C2791 1.397 . S
C2790 C2795 1.363 . S
C2791 H2762 0.950 . S
C2791 C2790 1.397 . S
C2791 C2792 1.334 . S
C2792 H2763 0.950 . S
C2792 C2791 1.334 . S
C2792 C2793 1.287 . S
C2793 C2792 1.287 . S
C2793 C2794 1.524 . S
C2793 H2796 0.999 . S
C2794 H2764 0.950 . S
C2794 C2793 1.524 . S
C2794 C2795 1.415 . S
C2795 H2765 0.950 . S
C2795 C2790 1.363 . S
C2795 C2794 1.415 . S
H2796 C2793 0.999 . S
H2797 C2778 0.913 . S
H2798 C2816 0.962 . S
H2799 C2818 0.943 . S
H2800 C2820 0.950 . S
H2801 C2821 0.950 . S
H2802 C2823 0.950 . S
H2803 C2826 0.950 . S
H2804 C2827 0.950 . S
H2805 C2829 0.950 . S
H2806 C2830 0.950 . S
H2807 C2831 0.951 . S
H2808 C2833 0.951 . S
H2809 C2835 0.947 1_554 S
H2810 C2836 0.942 . S
H2811 C2838 0.950 . S
H2812 C2841 0.950 . S
H2813 C2842 0.950 . S
H2814 C2844 0.950 . S
H2815 C2845 0.950 . S
C2816 H2798 0.962 . S
C2816 C2817 1.356 . S
C2816 C2818 1.391 . S
C2817 C2816 1.356 . S
C2817 C2821 1.384 1_554 S
C2818 H2799 0.943 . S
C2818 C2816 1.391 . S
C2818 C2819 1.365 1_554 S
C2819 C2818 1.365 1_556 S
C2819 C2820 1.414 . S
C2819 C2822 1.499 . S
C2820 H2800 0.950 . S
C2820 C2819 1.414 . S
C2820 C2821 1.374 . S
C2821 H2801 0.950 . S
C2821 C2817 1.384 1_556 S
C2821 C2820 1.374 . S
C2822 C2819 1.499 . S
C2822 C2823 1.373 1_556 S
C2822 C2824 1.389 . S
C2823 H2802 0.950 . S
C2823 C2822 1.373 1_554 S
C2823 C2839 1.377 . S
C2824 C2822 1.389 . S
C2824 C2825 1.524 . S
C2824 C2838 1.377 . S
C2825 C2824 1.524 . S
C2825 C2826 1.397 . S
C2825 C2830 1.363 . S
C2826 H2803 0.950 . S
C2826 C2825 1.397 . S
C2826 C2827 1.334 . S
C2827 H2804 0.950 . S
C2827 C2826 1.334 . S
C2827 C2828 1.287 . S
C2828 C2827 1.287 . S
C2828 C2829 1.524 . S
C2828 H2847 0.913 . S
C2829 H2805 0.950 . S
C2829 C2828 1.524 . S
C2829 C2830 1.415 . S
C2830 H2806 0.950 . S
C2830 C2825 1.363 . S
C2830 C2829 1.415 . S
C2831 H2807 0.951 . S
C2831 C2832 1.366 . S
C2831 C2833 1.388 . S
C2832 C2831 1.366 . S
C2832 C2836 1.392 . S
C2833 H2808 0.951 . S
C2833 C2831 1.388 . S
C2833 C2834 1.372 . S
C2834 C2833 1.372 . S
C2834 C2835 1.409 . S
C2834 C2837 1.501 . S
C2835 H2809 0.947 1_556 S
C2835 C2834 1.409 . S
C2835 C2836 1.376 . S
C2836 H2810 0.942 . S
C2836 C2832 1.392 . S
C2836 C2835 1.376 . S
C2837 C2834 1.501 . S
C2837 C2838 1.378 . S
C2837 C2839 1.385 1_556 S
C2838 H2811 0.950 . S
C2838 C2824 1.377 . S
C2838 C2837 1.378 . S
C2839 C2823 1.377 . S
C2839 C2837 1.385 1_554 S
C2839 C2840 1.524 . S
C2840 C2839 1.524 . S
C2840 C2841 1.397 . S
C2840 C2845 1.363 . S
C2841 H2812 0.950 . S
C2841 C2840 1.397 . S
C2841 C2842 1.334 . S
C2842 H2813 0.950 . S
C2842 C2841 1.334 . S
C2842 C2843 1.287 . S
C2843 C2842 1.287 . S
C2843 C2844 1.524 . S
C2843 H2846 0.999 . S
C2844 H2814 0.950 . S
C2844 C2843 1.524 . S
C2844 C2845 1.415 . S
C2845 H2815 0.950 . S
C2845 C2840 1.363 . S
C2845 C2844 1.415 . S
H2846 C2843 0.999 . S
H2847 C2828 0.913 . S
H2848 C2866 0.951 . S
H2849 C2868 0.951 . S
H2850 C2870 0.950 . S
H2851 C2871 0.950 . S
H2852 C2873 0.950 . S
H2853 C2876 0.950 . S
H2854 C2877 0.950 . S
H2855 C2879 0.950 . S
H2856 C2880 0.950 . S
H2857 C2881 0.951 . S
H2858 C2883 0.951 . S
H2859 C2885 0.950 . S
H2860 C2886 0.950 . S
H2861 C2888 0.950 . S
H2862 C2891 0.950 . S
H2863 C2892 0.950 . S
H2864 C2894 0.950 . S
H2865 C2895 0.950 . S
C2866 H2848 0.951 . S
C2866 C2867 1.366 . S
C2866 C2868 1.388 . S
C2867 C2866 1.366 . S
C2867 C2871 1.385 . S
C2868 H2849 0.951 . S
C2868 C2866 1.388 . S
C2868 C2869 1.366 . S
C2869 C2868 1.366 . S
C2869 C2870 1.414 . S
C2869 C2872 1.499 . S
C2870 H2850 0.950 . S
C2870 C2869 1.414 . S
C2870 C2871 1.374 . S
C2871 H2851 0.950 . S
C2871 C2867 1.385 . S
C2871 C2870 1.374 . S
C2872 C2869 1.499 . S
C2872 C2873 1.373 . S
C2872 C2874 1.389 . S
C2873 H2852 0.950 . S
C2873 C2872 1.373 . S
C2873 C2889 1.377 . S
C2874 C2872 1.389 . S
C2874 C2875 1.524 . S
C2874 C2888 1.377 . S
C2875 C2874 1.524 . S
C2875 C2876 1.397 . S
C2875 C2880 1.363 . S
C2876 H2853 0.950 . S
C2876 C2875 1.397 . S
C2876 C2877 1.334 . S
C2877 H2854 0.950 . S
C2877 C2876 1.334 . S
C2877 C2878 1.287 . S
C2878 C2877 1.287 . S
C2878 C2879 1.524 . S
C2878 H2897 0.913 . S
C2879 H2855 0.950 . S
C2879 C2878 1.524 . S
C2879 C2880 1.415 . S
C2880 H2856 0.950 . S
C2880 C2875 1.363 . S
C2880 C2879 1.415 . S
C2881 H2857 0.951 . S
C2881 C2882 1.366 . S
C2881 C2883 1.388 . S
C2882 C2881 1.366 . S
C2882 C2886 1.385 . S
C2883 H2858 0.951 . S
C2883 C2881 1.388 . S
C2883 C2884 1.366 . S
C2884 C2883 1.366 . S
C2884 C2885 1.414 . S
C2884 C2887 1.499 . S
C2885 H2859 0.950 . S
C2885 C2884 1.414 . S
C2885 C2886 1.374 . S
C2886 H2860 0.950 . S
C2886 C2882 1.385 . S
C2886 C2885 1.374 . S
C2887 C2884 1.499 . S
C2887 C2888 1.373 . S
C2887 C2889 1.389 . S
C2888 H2861 0.950 . S
C2888 C2874 1.377 . S
C2888 C2887 1.373 . S
C2889 C2873 1.377 . S
C2889 C2887 1.389 . S
C2889 C2890 1.524 . S
C2890 C2889 1.524 . S
C2890 C2891 1.397 . S
C2890 C2895 1.363 . S
C2891 H2862 0.950 . S
C2891 C2890 1.397 . S
C2891 C2892 1.334 . S
C2892 H2863 0.950 . S
C2892 C2891 1.334 . S
C2892 C2893 1.287 . S
C2893 C2892 1.287 . S
C2893 C2894 1.524 . S
C2893 H2896 0.999 . S
C2894 H2864 0.950 . S
C2894 C2893 1.524 . S
C2894 C2895 1.415 . S
C2895 H2865 0.950 . S
C2895 C2890 1.363 . S
C2895 C2894 1.415 . S
H2896 C2893 0.999 . S
H2897 C2878 0.913 . S
H2898 C2916 0.951 . S
H2899 C2918 0.951 . S
H2900 C2920 0.950 . S
H2901 C2921 0.950 . S
H2902 C2923 0.950 . S
H2903 C2926 0.950 . S
H2904 C2927 0.950 . S
H2905 C2929 0.950 . S
H2906 C2930 0.950 . S
H2907 C2931 0.951 . S
H2908 C2933 0.951 . S
H2909 C2935 0.950 . S
H2910 C2936 0.950 . S
H2911 C2938 0.950 . S
H2912 C2941 0.950 . S
H2913 C2942 0.950 . S
H2914 C2944 0.950 . S
H2915 C2945 0.950 . S
C2916 H2898 0.951 . S
C2916 C2917 1.366 . S
C2916 C2918 1.388 . S
C2917 C2916 1.366 . S
C2917 C2921 1.385 . S
C2918 H2899 0.951 . S
C2918 C2916 1.388 . S
C2918 C2919 1.366 . S
C2919 C2918 1.366 . S
C2919 C2920 1.414 . S
C2919 C2922 1.499 . S
C2920 H2900 0.950 . S
C2920 C2919 1.414 . S
C2920 C2921 1.374 . S
C2921 H2901 0.950 . S
C2921 C2917 1.385 . S
C2921 C2920 1.374 . S
C2922 C2919 1.499 . S
C2922 C2923 1.373 . S
C2922 C2924 1.389 . S
C2923 H2902 0.950 . S
C2923 C2922 1.373 . S
C2923 C2939 1.377 . S
C2924 C2922 1.389 . S
C2924 C2925 1.524 . S
C2924 C2938 1.377 . S
C2925 C2924 1.524 . S
C2925 C2926 1.397 . S
C2925 C2930 1.363 . S
C2926 H2903 0.950 . S
C2926 C2925 1.397 . S
C2926 C2927 1.334 . S
C2927 H2904 0.950 . S
C2927 C2926 1.334 . S
C2927 C2928 1.287 1_655 S
C2928 C2927 1.287 1_455 S
C2928 C2929 1.524 . S
C2928 H2947 0.913 . S
C2929 H2905 0.950 . S
C2929 C2928 1.524 . S
C2929 C2930 1.415 1_455 S
C2930 H2906 0.950 . S
C2930 C2925 1.363 . S
C2930 C2929 1.415 1_655 S
C2931 H2907 0.951 . S
C2931 C2932 1.366 . S
C2931 C2933 1.388 . S
C2932 C2931 1.366 . S
C2932 C2936 1.385 . S
C2933 H2908 0.951 . S
C2933 C2931 1.388 . S
C2933 C2934 1.366 . S
C2934 C2933 1.366 . S
C2934 C2935 1.414 . S
C2934 C2937 1.499 . S
C2935 H2909 0.950 . S
C2935 C2934 1.414 . S
C2935 C2936 1.374 . S
C2936 H2910 0.950 . S
C2936 C2932 1.385 . S
C2936 C2935 1.374 . S
C2937 C2934 1.499 . S
C2937 C2938 1.373 . S
C2937 C2939 1.389 . S
C2938 H2911 0.950 . S
C2938 C2924 1.377 . S
C2938 C2937 1.373 . S
C2939 C2923 1.377 . S
C2939 C2937 1.389 . S
C2939 C2940 1.524 . S
C2940 C2939 1.524 . S
C2940 C2941 1.397 . S
C2940 C2945 1.363 . S
C2941 H2912 0.950 . S
C2941 C2940 1.397 . S
C2941 C2942 1.334 . S
C2942 H2913 0.950 . S
C2942 C2941 1.334 . S
C2942 C2943 1.287 . S
C2943 C2942 1.287 . S
C2943 C2944 1.524 . S
C2943 H2946 0.999 . S
C2944 H2914 0.950 . S
C2944 C2943 1.524 . S
C2944 C2945 1.415 . S
C2945 H2915 0.950 . S
C2945 C2940 1.363 . S
C2945 C2944 1.415 . S
H2946 C2943 0.999 . S
H2947 C2928 0.913 . S
H2948 C2966 0.951 . S
H2949 C2968 0.951 . S
H2950 C2970 0.950 . S
H2951 C2971 0.950 . S
H2952 C2973 0.950 . S
H2953 C2976 0.950 . S
H2954 C2977 0.950 . S
H2955 C2979 0.950 . S
H2956 C2980 0.950 . S
H2957 C2981 0.951 . S
H2958 C2983 0.951 . S
H2959 C2985 0.950 . S
H2960 C2986 0.950 . S
H2961 C2988 0.950 . S
H2962 C2991 0.950 . S
H2963 C2992 0.950 . S
H2964 C2994 0.950 1_545 S
H2965 C2995 0.950 . S
C2966 H2948 0.951 . S
C2966 C2967 1.366 . S
C2966 C2968 1.388 . S
C2967 C2966 1.366 . S
C2967 C2971 1.385 . S
C2968 H2949 0.951 . S
C2968 C2966 1.388 . S
C2968 C2969 1.366 . S
C2969 C2968 1.366 . S
C2969 C2970 1.414 . S
C2969 C2972 1.499 . S
C2970 H2950 0.950 . S
C2970 C2969 1.414 . S
C2970 C2971 1.374 . S
C2971 H2951 0.950 . S
C2971 C2967 1.385 . S
C2971 C2970 1.374 . S
C2972 C2969 1.499 . S
C2972 C2973 1.373 . S
C2972 C2974 1.389 . S
C2973 H2952 0.950 . S
C2973 C2972 1.373 . S
C2973 C2989 1.377 . S
C2974 C2972 1.389 . S
C2974 C2975 1.524 . S
C2974 C2988 1.377 . S
C2975 C2974 1.524 . S
C2975 C2976 1.397 . S
C2975 C2980 1.363 . S
C2976 H2953 0.950 . S
C2976 C2975 1.397 . S
C2976 C2977 1.334 . S
C2977 H2954 0.950 . S
C2977 C2976 1.334 . S
C2977 C2978 1.287 . S
C2978 C2977 1.287 . S
C2978 C2979 1.524 . S
C2978 H2997 0.913 . S
C2979 H2955 0.950 . S
C2979 C2978 1.524 . S
C2979 C2980 1.415 . S
C2980 H2956 0.950 . S
C2980 C2975 1.363 . S
C2980 C2979 1.415 . S
C2981 H2957 0.951 . S
C2981 C2982 1.366 . S
C2981 C2983 1.388 . S
C2982 C2981 1.366 . S
C2982 C2986 1.385 . S
C2983 H2958 0.951 . S
C2983 C2981 1.388 . S
C2983 C2984 1.366 . S
C2984 C2983 1.366 . S
C2984 C2985 1.414 . S
C2984 C2987 1.499 . S
C2985 H2959 0.950 . S
C2985 C2984 1.414 . S
C2985 C2986 1.374 . S
C2986 H2960 0.950 . S
C2986 C2982 1.385 . S
C2986 C2985 1.374 . S
C2987 C2984 1.499 . S
C2987 C2988 1.373 . S
C2987 C2989 1.389 . S
C2988 H2961 0.950 . S
C2988 C2974 1.377 . S
C2988 C2987 1.373 . S
C2989 C2973 1.377 . S
C2989 C2987 1.389 . S
C2989 C2990 1.524 . S
C2990 C2989 1.524 . S
C2990 C2991 1.397 . S
C2990 C2995 1.363 . S
C2991 H2962 0.950 . S
C2991 C2990 1.397 . S
C2991 C2992 1.334 1_565 S
C2992 H2963 0.950 . S
C2992 C2991 1.334 1_545 S
C2992 C2993 1.287 . S
C2993 C2992 1.287 . S
C2993 C2994 1.524 1_545 S
C2993 H2996 0.999 . S
C2994 H2964 0.950 1_565 S
C2994 C2993 1.524 1_565 S
C2994 C2995 1.415 . S
C2995 H2965 0.950 . S
C2995 C2990 1.363 . S
C2995 C2994 1.415 . S
H2996 C2993 0.999 . S
H2997 C2978 0.913 . S
H2998 C3016 0.951 . S
H2999 C3018 0.951 . S
H3000 C3020 0.950 . S
H3001 C3021 0.950 . S
H3002 C3023 0.950 . S
H3003 C3026 0.950 1_455 S
H3004 C3027 0.950 . S
H3005 C3029 0.950 . S
H3006 C3030 0.950 . S
H3007 C3031 0.951 . S
H3008 C3033 0.951 . S
H3009 C3035 0.950 . S
H3010 C3036 0.950 . S
H3011 C3038 0.950 . S
H3012 C3041 0.950 1_655 S
H3013 C3042 0.982 . S
H3014 C3044 0.950 . S
H3015 C3045 0.950 . S
C3016 H2998 0.951 . S
C3016 C3017 1.364 1_655 S
C3016 C3018 1.388 . S
C3017 C3016 1.364 1_455 S
C3017 C3021 1.386 . S
C3018 H2999 0.951 . S
C3018 C3016 1.388 . S
C3018 C3019 1.373 . S
C3019 C3018 1.373 . S
C3019 C3020 1.407 1_655 S
C3019 C3022 1.498 1_655 S
C3020 H3000 0.950 . S
C3020 C3019 1.407 1_455 S
C3020 C3021 1.374 . S
C3021 H3001 0.950 . S
C3021 C3017 1.386 . S
C3021 C3020 1.374 . S
C3022 C3019 1.498 1_455 S
C3022 C3023 1.369 . S
C3022 C3024 1.393 1_455 S
C3023 H3002 0.950 . S
C3023 C3022 1.369 . S
C3023 C3039 1.377 . S
C3024 C3022 1.393 1_655 S
C3024 C3025 1.524 . S
C3024 C3038 1.377 . S
C3025 C3024 1.524 . S
C3025 C3026 1.397 . S
C3025 C3030 1.363 . S
C3026 H3003 0.950 1_655 S
C3026 C3025 1.397 . S
C3026 C3027 1.334 . S
C3027 H3004 0.950 . S
C3027 C3026 1.334 . S
C3027 C3028 1.287 . S
C3028 C3027 1.287 . S
C3028 C3029 1.524 . S
C3028 H3047 0.913 . S
C3029 H3005 0.950 . S
C3029 C3028 1.524 . S
C3029 C3030 1.415 . S
C3030 H3006 0.950 . S
C3030 C3025 1.363 . S
C3030 C3029 1.415 . S
C3031 H3007 0.951 . S
C3031 C3032 1.366 1_455 S
C3031 C3033 1.388 . S
C3032 C3031 1.366 1_655 S
C3032 C3036 1.385 . S
C3033 H3008 0.951 . S
C3033 C3031 1.388 . S
C3033 C3034 1.366 1_455 S
C3034 C3033 1.366 1_655 S
C3034 C3035 1.414 . S
C3034 C3037 1.499 . S
C3035 H3009 0.950 . S
C3035 C3034 1.414 . S
C3035 C3036 1.374 . S
C3036 H3010 0.950 . S
C3036 C3032 1.385 . S
C3036 C3035 1.374 . S
C3037 C3034 1.499 . S
C3037 C3038 1.373 . S
C3037 C3039 1.389 1_655 S
C3038 H3011 0.950 . S
C3038 C3024 1.377 . S
C3038 C3037 1.373 . S
C3039 C3023 1.377 . S
C3039 C3037 1.389 1_455 S
C3039 C3040 1.524 . S
C3040 C3039 1.524 . S
C3040 C3041 1.397 . S
C3040 C3045 1.363 . S
C3041 H3012 0.950 1_455 S
C3041 C3040 1.397 . S
C3041 C3042 1.334 . S
C3042 H3013 0.982 . S
C3042 C3041 1.334 . S
C3042 C3043 1.287 . S
C3043 C3042 1.287 . S
C3043 C3044 1.524 . S
C3043 H3046 0.999 . S
C3044 H3014 0.950 . S
C3044 C3043 1.524 . S
C3044 C3045 1.415 . S
C3045 H3015 0.950 . S
C3045 C3040 1.363 . S
C3045 C3044 1.415 . S
H3046 C3043 0.999 . S
H3047 C3028 0.913 . S
H3048 C3066 0.951 . S
H3049 C3068 0.951 . S
H3050 C3070 0.950 . S
H3051 C3071 0.950 . S
H3052 C3073 0.950 . S
H3053 C3076 0.950 . S
H3054 C3077 0.950 . S
H3055 C3079 0.950 . S
H3056 C3080 0.950 . S
H3057 C3081 0.951 . S
H3058 C3083 0.951 . S
H3059 C3085 0.950 . S
H3060 C3086 0.950 . S
H3061 C3088 0.950 . S
H3062 C3091 0.950 . S
H3063 C3092 0.950 . S
H3064 C3094 0.950 . S
H3065 C3095 0.950 . S
C3066 H3048 0.951 . S
C3066 C3067 1.366 . S
C3066 C3068 1.388 . S
C3067 C3066 1.366 . S
C3067 C3071 1.385 . S
C3068 H3049 0.951 . S
C3068 C3066 1.388 . S
C3068 C3069 1.366 . S
C3069 C3068 1.366 . S
C3069 C3070 1.414 . S
C3069 C3072 1.499 . S
C3070 H3050 0.950 . S
C3070 C3069 1.414 . S
C3070 C3071 1.374 . S
C3071 H3051 0.950 . S
C3071 C3067 1.385 . S
C3071 C3070 1.374 . S
C3072 C3069 1.499 . S
C3072 C3073 1.373 . S
C3072 C3074 1.389 . S
C3073 H3052 0.950 . S
C3073 C3072 1.373 . S
C3073 C3089 1.377 . S
C3074 C3072 1.389 . S
C3074 C3075 1.524 . S
C3074 C3088 1.377 . S
C3075 C3074 1.524 . S
C3075 C3076 1.397 . S
C3075 C3080 1.363 . S
C3076 H3053 0.950 . S
C3076 C3075 1.397 . S
C3076 C3077 1.334 . S
C3077 H3054 0.950 . S
C3077 C3076 1.334 . S
C3077 C3078 1.287 . S
C3078 C3077 1.287 . S
C3078 C3079 1.524 . S
C3078 H3097 0.913 . S
C3079 H3055 0.950 . S
C3079 C3078 1.524 . S
C3079 C3080 1.415 . S
C3080 H3056 0.950 . S
C3080 C3075 1.363 . S
C3080 C3079 1.415 . S
C3081 H3057 0.951 . S
C3081 C3082 1.366 . S
C3081 C3083 1.388 . S
C3082 C3081 1.366 . S
C3082 C3086 1.385 . S
C3083 H3058 0.951 . S
C3083 C3081 1.388 . S
C3083 C3084 1.366 . S
C3084 C3083 1.366 . S
C3084 C3085 1.414 . S
C3084 C3087 1.499 . S
C3085 H3059 0.950 . S
C3085 C3084 1.414 . S
C3085 C3086 1.374 . S
C3086 H3060 0.950 . S
C3086 C3082 1.385 . S
C3086 C3085 1.374 . S
C3087 C3084 1.499 . S
C3087 C3088 1.373 . S
C3087 C3089 1.389 . S
C3088 H3061 0.950 . S
C3088 C3074 1.377 . S
C3088 C3087 1.373 . S
C3089 C3073 1.377 . S
C3089 C3087 1.389 . S
C3089 C3090 1.524 . S
C3090 C3089 1.524 . S
C3090 C3091 1.397 . S
C3090 C3095 1.363 . S
C3091 H3062 0.950 . S
C3091 C3090 1.397 . S
C3091 C3092 1.334 . S
C3092 H3063 0.950 . S
C3092 C3091 1.334 . S
C3092 C3093 1.287 . S
C3093 C3092 1.287 . S
C3093 C3094 1.524 . S
C3093 H3096 0.999 . S
C3094 H3064 0.950 . S
C3094 C3093 1.524 . S
C3094 C3095 1.415 . S
C3095 H3065 0.950 . S
C3095 C3090 1.363 . S
C3095 C3094 1.415 . S
H3096 C3093 0.999 . S
H3097 C3078 0.913 . S
H3098 C3116 0.951 . S
H3099 C3118 0.951 . S
H3100 C3120 0.950 . S
H3101 C3121 0.950 . S
H3102 C3123 0.950 . S
H3103 C3126 0.950 . S
H3104 C3127 0.950 . S
H3105 C3129 0.950 . S
H3106 C3130 0.950 . S
H3107 C3131 0.951 . S
H3108 C3133 0.951 . S
H3109 C3135 0.950 . S
H3110 C3136 0.950 . S
H3111 C3138 0.950 . S
H3112 C3141 0.950 . S
H3113 C3142 0.950 . S
H3114 C3144 0.950 . S
H3115 C3145 0.950 . S
C3116 H3098 0.951 . S
C3116 C3117 1.366 . S
C3116 C3118 1.388 . S
C3117 C3116 1.366 . S
C3117 C3121 1.385 . S
C3118 H3099 0.951 . S
C3118 C3116 1.388 . S
C3118 C3119 1.366 . S
C3119 C3118 1.366 . S
C3119 C3120 1.414 . S
C3119 C3122 1.499 . S
C3120 H3100 0.950 . S
C3120 C3119 1.414 . S
C3120 C3121 1.374 . S
C3121 H3101 0.950 . S
C3121 C3117 1.385 . S
C3121 C3120 1.374 . S
C3122 C3119 1.499 . S
C3122 C3123 1.373 . S
C3122 C3124 1.389 . S
C3123 H3102 0.950 . S
C3123 C3122 1.373 . S
C3123 C3139 1.377 . S
C3124 C3122 1.389 . S
C3124 C3125 1.524 . S
C3124 C3138 1.377 . S
C3125 C3124 1.524 . S
C3125 C3126 1.397 . S
C3125 C3130 1.363 . S
C3126 H3103 0.950 . S
C3126 C3125 1.397 . S
C3126 C3127 1.334 . S
C3127 H3104 0.950 . S
C3127 C3126 1.334 . S
C3127 C3128 1.287 . S
C3128 C3127 1.287 . S
C3128 C3129 1.524 . S
C3128 H3147 0.913 . S
C3129 H3105 0.950 . S
C3129 C3128 1.524 . S
C3129 C3130 1.415 . S
C3130 H3106 0.950 . S
C3130 C3125 1.363 . S
C3130 C3129 1.415 . S
C3131 H3107 0.951 . S
C3131 C3132 1.366 . S
C3131 C3133 1.388 . S
C3132 C3131 1.366 . S
C3132 C3136 1.385 . S
C3133 H3108 0.951 . S
C3133 C3131 1.388 . S
C3133 C3134 1.366 . S
C3134 C3133 1.366 . S
C3134 C3135 1.414 . S
C3134 C3137 1.499 . S
C3135 H3109 0.950 . S
C3135 C3134 1.414 . S
C3135 C3136 1.374 . S
C3136 H3110 0.950 . S
C3136 C3132 1.385 . S
C3136 C3135 1.374 . S
C3137 C3134 1.499 . S
C3137 C3138 1.373 . S
C3137 C3139 1.389 . S
C3138 H3111 0.950 . S
C3138 C3124 1.377 . S
C3138 C3137 1.373 . S
C3139 C3123 1.377 . S
C3139 C3137 1.389 . S
C3139 C3140 1.524 . S
C3140 C3139 1.524 . S
C3140 C3141 1.397 . S
C3140 C3145 1.363 . S
C3141 H3112 0.950 . S
C3141 C3140 1.397 . S
C3141 C3142 1.334 . S
C3142 H3113 0.950 . S
C3142 C3141 1.334 . S
C3142 C3143 1.287 . S
C3143 C3142 1.287 . S
C3143 C3144 1.524 . S
C3143 H3146 0.999 . S
C3144 H3114 0.950 . S
C3144 C3143 1.524 . S
C3144 C3145 1.415 . S
C3145 H3115 0.950 . S
C3145 C3140 1.363 . S
C3145 C3144 1.415 . S
H3146 C3143 0.999 . S
H3147 C3128 0.913 . S
H3148 C3166 0.951 . S
H3149 C3168 0.951 . S
H3150 C3170 0.950 . S
H3151 C3171 0.950 . S
H3152 C3173 0.950 . S
H3153 C3176 0.950 . S
H3154 C3177 0.950 . S
H3155 C3179 0.950 . S
H3156 C3180 0.950 . S
H3157 C3181 0.951 . S
H3158 C3183 0.951 . S
H3159 C3185 0.950 . S
H3160 C3186 0.950 . S
H3161 C3188 0.950 . S
H3162 C3191 0.950 . S
H3163 C3192 0.950 . S
H3164 C3194 0.950 . S
H3165 C3195 0.950 . S
C3166 H3148 0.951 . S
C3166 C3167 1.363 1_545 S
C3166 C3168 1.388 . S
C3167 C3166 1.363 1_565 S
C3167 C3171 1.387 . S
C3168 H3149 0.951 . S
C3168 C3166 1.388 . S
C3168 C3169 1.416 . S
C3169 C3168 1.416 . S
C3169 C3170 1.368 1_545 S
C3169 C3172 1.498 . S
C3170 H3150 0.950 . S
C3170 C3169 1.368 1_565 S
C3170 C3171 1.374 . S
C3171 H3151 0.950 . S
C3171 C3167 1.387 . S
C3171 C3170 1.374 . S
C3172 C3169 1.498 . S
C3172 C3173 1.321 1_545 S
C3172 C3174 1.438 . S
C3173 H3152 0.950 . S
C3173 C3172 1.321 1_565 S
C3173 C3189 1.377 . S
C3174 C3172 1.438 . S
C3174 C3175 1.524 . S
C3174 C3188 1.377 . S
C3175 C3174 1.524 . S
C3175 C3176 1.397 . S
C3175 C3180 1.363 . S
C3176 H3153 0.950 . S
C3176 C3175 1.397 . S
C3176 C3177 1.334 . S
C3177 H3154 0.950 . S
C3177 C3176 1.334 . S
C3177 C3178 1.287 . S
C3178 C3177 1.287 . S
C3178 C3179 1.524 . S
C3178 H3197 0.913 . S
C3179 H3155 0.950 . S
C3179 C3178 1.524 . S
C3179 C3180 1.415 . S
C3180 H3156 0.950 . S
C3180 C3175 1.363 . S
C3180 C3179 1.415 . S
C3181 H3157 0.951 . S
C3181 C3182 1.366 1_565 S
C3181 C3183 1.388 . S
C3182 C3181 1.366 1_545 S
C3182 C3186 1.385 . S
C3183 H3158 0.951 . S
C3183 C3181 1.388 . S
C3183 C3184 1.315 1_565 S
C3184 C3183 1.315 1_545 S
C3184 C3185 1.464 . S
C3184 C3187 1.498 . S
C3185 H3159 0.950 . S
C3185 C3184 1.464 . S
C3185 C3186 1.374 . S
C3186 H3160 0.950 . S
C3186 C3182 1.385 . S
C3186 C3185 1.374 . S
C3187 C3184 1.498 . S
C3187 C3188 1.438 . S
C3187 C3189 1.332 1_545 S
C3188 H3161 0.950 . S
C3188 C3174 1.377 . S
C3188 C3187 1.438 . S
C3189 C3173 1.377 . S
C3189 C3187 1.332 1_565 S
C3189 C3190 1.524 . S
C3190 C3189 1.524 . S
C3190 C3191 1.397 . S
C3190 C3195 1.363 . S
C3191 H3162 0.950 . S
C3191 C3190 1.397 . S
C3191 C3192 1.334 . S
C3192 H3163 0.950 . S
C3192 C3191 1.334 . S
C3192 C3193 1.287 . S
C3193 C3192 1.287 . S
C3193 C3194 1.524 . S
C3193 H3196 0.999 . S
C3194 H3164 0.950 . S
C3194 C3193 1.524 . S
C3194 C3195 1.415 . S
C3195 H3165 0.950 . S
C3195 C3190 1.363 . S
C3195 C3194 1.415 . S
H3196 C3193 0.999 . S
H3197 C3178 0.913 . S
H3198 C3216 0.951 . S
H3199 C3218 0.951 . S
H3200 C3220 0.950 . S
H3201 C3221 0.950 . S
H3202 C3223 0.950 . S
H3203 C3226 0.950 . S
H3204 C3227 0.951 . S
H3205 C3229 0.950 . S
H3206 C3230 0.950 . S
H3207 C3231 0.951 . S
H3208 C3233 0.951 . S
H3209 C3235 0.950 . S
H3210 C3236 0.950 . S
H3211 C3238 0.950 . S
H3212 C3241 0.950 . S
H3213 C3242 0.950 . S
H3214 C3244 0.950 . S
H3215 C3245 0.950 . S
C3216 H3198 0.951 . S
C3216 C3217 1.366 . S
C3216 C3218 1.388 . S
C3217 C3216 1.366 . S
C3217 C3221 1.385 . S
C3218 H3199 0.951 . S
C3218 C3216 1.388 . S
C3218 C3219 1.366 . S
C3219 C3218 1.366 . S
C3219 C3220 1.414 . S
C3219 C3222 1.499 . S
C3220 H3200 0.950 . S
C3220 C3219 1.414 . S
C3220 C3221 1.374 . S
C3221 H3201 0.950 . S
C3221 C3217 1.385 . S
C3221 C3220 1.374 . S
C3222 C3219 1.499 . S
C3222 C3223 1.373 . S
C3222 C3224 1.389 . S
C3223 H3202 0.950 . S
C3223 C3222 1.373 . S
C3223 C3239 1.377 . S
C3224 C3222 1.389 . S
C3224 C3225 1.524 . S
C3224 C3238 1.377 . S
C3225 C3224 1.524 . S
C3225 C3226 1.397 . S
C3225 C3230 1.363 . S
C3226 H3203 0.950 . S
C3226 C3225 1.397 . S
C3226 C3227 1.303 1_545 S
C3227 H3204 0.951 . S
C3227 C3226 1.303 1_565 S
C3227 C3228 1.318 . S
C3228 C3227 1.318 . S
C3228 C3229 1.524 . S
C3228 H3247 0.913 . S
C3229 H3205 0.950 . S
C3229 C3228 1.524 . S
C3229 C3230 1.415 1_565 S
C3230 H3206 0.950 . S
C3230 C3225 1.363 . S
C3230 C3229 1.415 1_545 S
C3231 H3207 0.951 . S
C3231 C3232 1.366 . S
C3231 C3233 1.388 . S
C3232 C3231 1.366 . S
C3232 C3236 1.385 . S
C3233 H3208 0.951 . S
C3233 C3231 1.388 . S
C3233 C3234 1.366 . S
C3234 C3233 1.366 . S
C3234 C3235 1.414 . S
C3234 C3237 1.499 . S
C3235 H3209 0.950 . S
C3235 C3234 1.414 . S
C3235 C3236 1.374 . S
C3236 H3210 0.950 . S
C3236 C3232 1.385 . S
C3236 C3235 1.374 . S
C3237 C3234 1.499 . S
C3237 C3238 1.373 . S
C3237 C3239 1.389 . S
C3238 H3211 0.950 . S
C3238 C3224 1.377 . S
C3238 C3237 1.373 . S
C3239 C3223 1.377 . S
C3239 C3237 1.389 . S
C3239 C3240 1.524 . S
C3240 C3239 1.524 . S
C3240 C3241 1.397 . S
C3240 C3245 1.363 . S
C3241 H3212 0.950 . S
C3241 C3240 1.397 . S
C3241 C3242 1.334 . S
C3242 H3213 0.950 . S
C3242 C3241 1.334 . S
C3242 C3243 1.287 . S
C3243 C3242 1.287 . S
C3243 C3244 1.524 . S
C3243 H3246 0.999 . S
C3244 H3214 0.950 . S
C3244 C3243 1.524 . S
C3244 C3245 1.415 . S
C3245 H3215 0.950 . S
C3245 C3240 1.363 . S
C3245 C3244 1.415 . S
H3246 C3243 0.999 . S
H3247 C3228 0.913 . S
H3248 C3266 0.951 . S
H3249 C3268 0.951 . S
H3250 C3270 0.950 . S
H3251 C3271 0.950 . S
H3252 C3273 0.950 . S
H3253 C3276 0.950 . S
H3254 C3277 0.950 . S
H3255 C3279 0.950 . S
H3256 C3280 0.950 . S
H3257 C3281 0.951 . S
H3258 C3283 0.951 . S
H3259 C3285 0.950 . S
H3260 C3286 0.950 . S
H3261 C3288 0.950 . S
H3262 C3291 0.950 . S
H3263 C3292 0.950 . S
H3264 C3294 0.950 . S
H3265 C3295 0.950 . S
C3266 H3248 0.951 . S
C3266 C3267 1.366 . S
C3266 C3268 1.388 . S
C3267 C3266 1.366 . S
C3267 C3271 1.385 . S
C3268 H3249 0.951 . S
C3268 C3266 1.388 . S
C3268 C3269 1.366 . S
C3269 C3268 1.366 . S
C3269 C3270 1.414 . S
C3269 C3272 1.499 . S
C3270 H3250 0.950 . S
C3270 C3269 1.414 . S
C3270 C3271 1.374 . S
C3271 H3251 0.950 . S
C3271 C3267 1.385 . S
C3271 C3270 1.374 . S
C3272 C3269 1.499 . S
C3272 C3273 1.373 . S
C3272 C3274 1.389 . S
C3273 H3252 0.950 . S
C3273 C3272 1.373 . S
C3273 C3289 1.377 . S
C3274 C3272 1.389 . S
C3274 C3275 1.524 . S
C3274 C3288 1.377 . S
C3275 C3274 1.524 . S
C3275 C3276 1.397 . S
C3275 C3280 1.363 . S
C3276 H3253 0.950 . S
C3276 C3275 1.397 . S
C3276 C3277 1.334 . S
C3277 H3254 0.950 . S
C3277 C3276 1.334 . S
C3277 C3278 1.287 . S
C3278 C3277 1.287 . S
C3278 C3279 1.524 . S
C3278 H3297 0.913 . S
C3279 H3255 0.950 . S
C3279 C3278 1.524 . S
C3279 C3280 1.415 . S
C3280 H3256 0.950 . S
C3280 C3275 1.363 . S
C3280 C3279 1.415 . S
C3281 H3257 0.951 . S
C3281 C3282 1.366 . S
C3281 C3283 1.388 . S
C3282 C3281 1.366 . S
C3282 C3286 1.385 . S
C3283 H3258 0.951 . S
C3283 C3281 1.388 . S
C3283 C3284 1.366 . S
C3284 C3283 1.366 . S
C3284 C3285 1.414 . S
C3284 C3287 1.499 . S
C3285 H3259 0.950 . S
C3285 C3284 1.414 . S
C3285 C3286 1.374 . S
C3286 H3260 0.950 . S
C3286 C3282 1.385 . S
C3286 C3285 1.374 . S
C3287 C3284 1.499 . S
C3287 C3288 1.373 . S
C3287 C3289 1.389 . S
C3288 H3261 0.950 . S
C3288 C3274 1.377 . S
C3288 C3287 1.373 . S
C3289 C3273 1.377 . S
C3289 C3287 1.389 . S
C3289 C3290 1.524 . S
C3290 C3289 1.524 . S
C3290 C3291 1.397 . S
C3290 C3295 1.363 . S
C3291 H3262 0.950 . S
C3291 C3290 1.397 . S
C3291 C3292 1.334 . S
C3292 H3263 0.950 . S
C3292 C3291 1.334 . S
C3292 C3293 1.287 . S
C3293 C3292 1.287 . S
C3293 C3294 1.524 . S
C3293 H3296 0.999 . S
C3294 H3264 0.950 . S
C3294 C3293 1.524 . S
C3294 C3295 1.415 . S
C3295 H3265 0.950 . S
C3295 C3290 1.363 . S
C3295 C3294 1.415 . S
H3296 C3293 0.999 . S
H3297 C3278 0.913 . S
H3298 C3316 0.951 . S
H3299 C3318 0.951 . S
H3300 C3320 0.950 . S
H3301 C3321 0.950 . S
H3302 C3323 0.950 . S
H3303 C3326 0.950 . S
H3304 C3327 0.950 . S
H3305 C3329 0.950 . S
H3306 C3330 0.950 . S
H3307 C3331 0.951 . S
H3308 C3333 0.951 . S
H3309 C3335 0.950 . S
H3310 C3336 0.950 . S
H3311 C3338 0.950 . S
H3312 C3341 0.950 . S
H3313 C3342 0.950 . S
H3314 C3344 0.950 . S
H3315 C3345 0.950 . S
C3316 H3298 0.951 . S
C3316 C3317 1.366 . S
C3316 C3318 1.388 . S
C3317 C3316 1.366 . S
C3317 C3321 1.385 . S
C3318 H3299 0.951 . S
C3318 C3316 1.388 . S
C3318 C3319 1.366 . S
C3319 C3318 1.366 . S
C3319 C3320 1.414 . S
C3319 C3322 1.499 . S
C3320 H3300 0.950 . S
C3320 C3319 1.414 . S
C3320 C3321 1.374 . S
C3321 H3301 0.950 . S
C3321 C3317 1.385 . S
C3321 C3320 1.374 . S
C3322 C3319 1.499 . S
C3322 C3323 1.373 . S
C3322 C3324 1.389 . S
C3323 H3302 0.950 . S
C3323 C3322 1.373 . S
C3323 C3339 1.377 . S
C3324 C3322 1.389 . S
C3324 C3325 1.524 . S
C3324 C3338 1.377 . S
C3325 C3324 1.524 . S
C3325 C3326 1.397 . S
C3325 C3330 1.363 . S
C3326 H3303 0.950 . S
C3326 C3325 1.397 . S
C3326 C3327 1.334 . S
C3327 H3304 0.950 . S
C3327 C3326 1.334 . S
C3327 C3328 1.287 . S
C3328 C3327 1.287 . S
C3328 C3329 1.524 . S
C3328 H3347 0.913 . S
C3329 H3305 0.950 . S
C3329 C3328 1.524 . S
C3329 C3330 1.415 . S
C3330 H3306 0.950 . S
C3330 C3325 1.363 . S
C3330 C3329 1.415 . S
C3331 H3307 0.951 . S
C3331 C3332 1.366 . S
C3331 C3333 1.388 . S
C3332 C3331 1.366 . S
C3332 C3336 1.385 . S
C3333 H3308 0.951 . S
C3333 C3331 1.388 . S
C3333 C3334 1.366 . S
C3334 C3333 1.366 . S
C3334 C3335 1.414 . S
C3334 C3337 1.499 . S
C3335 H3309 0.950 . S
C3335 C3334 1.414 . S
C3335 C3336 1.374 . S
C3336 H3310 0.950 . S
C3336 C3332 1.385 . S
C3336 C3335 1.374 . S
C3337 C3334 1.499 . S
C3337 C3338 1.373 . S
C3337 C3339 1.389 . S
C3338 H3311 0.950 . S
C3338 C3324 1.377 . S
C3338 C3337 1.373 . S
C3339 C3323 1.377 . S
C3339 C3337 1.389 . S
C3339 C3340 1.524 . S
C3340 C3339 1.524 . S
C3340 C3341 1.397 . S
C3340 C3345 1.363 . S
C3341 H3312 0.950 . S
C3341 C3340 1.397 . S
C3341 C3342 1.334 . S
C3342 H3313 0.950 . S
C3342 C3341 1.334 . S
C3342 C3343 1.287 . S
C3343 C3342 1.287 . S
C3343 C3344 1.524 . S
C3343 H3346 0.999 . S
C3344 H3314 0.950 . S
C3344 C3343 1.524 . S
C3344 C3345 1.415 . S
C3345 H3315 0.950 . S
C3345 C3340 1.363 . S
C3345 C3344 1.415 . S
H3346 C3343 0.999 . S
H3347 C3328 0.913 . S
H3348 C3366 0.951 . S
H3349 C3368 0.951 . S
H3350 C3370 0.950 . S
H3351 C3371 0.950 . S
H3352 C3373 0.950 . S
H3353 C3376 0.950 . S
H3354 C3377 0.950 . S
H3355 C3379 0.950 . S
H3356 C3380 0.950 . S
H3357 C3381 0.951 . S
H3358 C3383 0.951 . S
H3359 C3385 0.950 . S
H3360 C3386 0.950 . S
H3361 C3388 0.950 . S
H3362 C3391 0.950 . S
H3363 C3392 0.950 . S
H3364 C3394 0.950 . S
H3365 C3395 0.950 . S
C3366 H3348 0.951 . S
C3366 C3367 1.366 . S
C3366 C3368 1.388 . S
C3367 C3366 1.366 . S
C3367 C3371 1.385 . S
C3368 H3349 0.951 . S
C3368 C3366 1.388 . S
C3368 C3369 1.366 . S
C3369 C3368 1.366 . S
C3369 C3370 1.414 . S
C3369 C3372 1.499 . S
C3370 H3350 0.950 . S
C3370 C3369 1.414 . S
C3370 C3371 1.374 . S
C3371 H3351 0.950 . S
C3371 C3367 1.385 . S
C3371 C3370 1.374 . S
C3372 C3369 1.499 . S
C3372 C3373 1.373 . S
C3372 C3374 1.389 . S
C3373 H3352 0.950 . S
C3373 C3372 1.373 . S
C3373 C3389 1.377 . S
C3374 C3372 1.389 . S
C3374 C3375 1.524 . S
C3374 C3388 1.377 . S
C3375 C3374 1.524 . S
C3375 C3376 1.397 . S
C3375 C3380 1.363 . S
C3376 H3353 0.950 . S
C3376 C3375 1.397 . S
C3376 C3377 1.334 . S
C3377 H3354 0.950 . S
C3377 C3376 1.334 . S
C3377 C3378 1.287 . S
C3378 C3377 1.287 . S
C3378 C3379 1.524 . S
C3378 H3397 0.913 . S
C3379 H3355 0.950 . S
C3379 C3378 1.524 . S
C3379 C3380 1.415 . S
C3380 H3356 0.950 . S
C3380 C3375 1.363 . S
C3380 C3379 1.415 . S
C3381 H3357 0.951 . S
C3381 C3382 1.366 . S
C3381 C3383 1.388 . S
C3382 C3381 1.366 . S
C3382 C3386 1.385 . S
C3383 H3358 0.951 . S
C3383 C3381 1.388 . S
C3383 C3384 1.366 . S
C3384 C3383 1.366 . S
C3384 C3385 1.414 . S
C3384 C3387 1.499 . S
C3385 H3359 0.950 . S
C3385 C3384 1.414 . S
C3385 C3386 1.374 . S
C3386 H3360 0.950 . S
C3386 C3382 1.385 . S
C3386 C3385 1.374 . S
C3387 C3384 1.499 . S
C3387 C3388 1.373 . S
C3387 C3389 1.389 . S
C3388 H3361 0.950 . S
C3388 C3374 1.377 . S
C3388 C3387 1.373 . S
C3389 C3373 1.377 . S
C3389 C3387 1.389 . S
C3389 C3390 1.524 . S
C3390 C3389 1.524 . S
C3390 C3391 1.397 . S
C3390 C3395 1.363 . S
C3391 H3362 0.950 . S
C3391 C3390 1.397 . S
C3391 C3392 1.334 . S
C3392 H3363 0.950 . S
C3392 C3391 1.334 . S
C3392 C3393 1.287 . S
C3393 C3392 1.287 . S
C3393 C3394 1.524 . S
C3393 H3396 0.999 . S
C3394 H3364 0.950 . S
C3394 C3393 1.524 . S
C3394 C3395 1.415 . S
C3395 H3365 0.950 . S
C3395 C3390 1.363 . S
C3395 C3394 1.415 . S
H3396 C3393 0.999 . S
H3397 C3378 0.913 . S
H3398 C3416 0.951 . S
H3399 C3418 0.951 . S
H3400 C3420 0.950 . S
H3401 C3421 0.950 . S
H3402 C3423 0.950 . S
H3403 C3426 0.950 . S
H3404 C3427 0.950 . S
H3405 C3429 0.950 . S
H3406 C3430 0.950 1_556 S
H3407 C3431 0.951 . S
H3408 C3433 0.951 . S
H3409 C3435 0.950 . S
H3410 C3436 0.950 . S
H3411 C3438 0.950 . S
H3412 C3441 0.950 . S
H3413 C3442 0.950 . S
H3414 C3444 0.950 . S
H3415 C3445 0.950 1_554 S
C3416 H3398 0.951 . S
C3416 C3417 1.367 . S
C3416 C3418 1.388 . S
C3417 C3416 1.367 . S
C3417 C3421 1.383 1_556 S
C3418 H3399 0.951 . S
C3418 C3416 1.388 . S
C3418 C3419 1.366 1_556 S
C3419 C3418 1.366 1_554 S
C3419 C3420 1.414 . S
C3419 C3422 1.499 . S
C3420 H3400 0.950 . S
C3420 C3419 1.414 . S
C3420 C3421 1.374 . S
C3421 H3401 0.950 . S
C3421 C3417 1.383 1_554 S
C3421 C3420 1.374 . S
C3422 C3419 1.499 . S
C3422 C3423 1.373 1_554 S
C3422 C3424 1.389 . S
C3423 H3402 0.950 . S
C3423 C3422 1.373 1_556 S
C3423 C3439 1.377 . S
C3424 C3422 1.389 . S
C3424 C3425 1.524 . S
C3424 C3438 1.377 . S
C3425 C3424 1.524 . S
C3425 C3426 1.397 . S
C3425 C3430 1.363 . S
C3426 H3403 0.950 . S
C3426 C3425 1.397 . S
C3426 C3427 1.334 . S
C3427 H3404 0.950 . S
C3427 C3426 1.334 . S
C3427 C3428 1.287 . S
C3428 C3427 1.287 . S
C3428 C3429 1.524 . S
C3428 H3447 0.913 . S
C3429 H3405 0.950 . S
C3429 C3428 1.524 . S
C3429 C3430 1.415 . S
C3430 H3406 0.950 1_554 S
C3430 C3425 1.363 . S
C3430 C3429 1.415 . S
C3431 H3407 0.951 . S
C3431 C3432 1.366 . S
C3431 C3433 1.388 . S
C3432 C3431 1.366 . S
C3432 C3436 1.385 1_554 S
C3433 H3408 0.951 . S
C3433 C3431 1.388 . S
C3433 C3434 1.386 . S
C3434 C3433 1.386 . S
C3434 C3435 1.394 1_554 S
C3434 C3437 1.502 . S
C3435 H3409 0.950 . S
C3435 C3434 1.394 1_556 S
C3435 C3436 1.374 . S
C3436 H3410 0.950 . S
C3436 C3432 1.385 1_556 S
C3436 C3435 1.374 . S
C3437 C3434 1.502 . S
C3437 C3438 1.373 . S
C3437 C3439 1.389 1_554 S
C3438 H3411 0.950 . S
C3438 C3424 1.377 . S
C3438 C3437 1.373 . S
C3439 C3423 1.377 . S
C3439 C3437 1.389 1_556 S
C3439 C3440 1.524 . S
C3440 C3439 1.524 . S
C3440 C3441 1.397 . S
C3440 C3445 1.363 . S
C3441 H3412 0.950 . S
C3441 C3440 1.397 . S
C3441 C3442 1.334 . S
C3442 H3413 0.950 . S
C3442 C3441 1.334 . S
C3442 C3443 1.287 . S
C3443 C3442 1.287 . S
C3443 C3444 1.524 . S
C3443 H3446 0.999 . S
C3444 H3414 0.950 . S
C3444 C3443 1.524 . S
C3444 C3445 1.415 . S
C3445 H3415 0.950 1_556 S
C3445 C3440 1.363 . S
C3445 C3444 1.415 . S
H3446 C3443 0.999 . S
H3447 C3428 0.913 . S
H3448 C3466 0.951 . S
H3449 C3468 0.951 . S
H3450 C3470 0.950 . S
H3451 C3471 0.950 . S
H3452 C3473 0.950 . S
H3453 C3476 0.950 . S
H3454 C3477 0.950 . S
H3455 C3479 0.950 . S
H3456 C3480 0.950 . S
H3457 C3481 0.951 . S
H3458 C3483 0.951 . S
H3459 C3485 0.950 . S
H3460 C3486 0.950 . S
H3461 C3488 0.950 . S
H3462 C3491 0.950 . S
H3463 C3492 0.950 . S
H3464 C3494 0.950 . S
H3465 C3495 0.950 . S
C3466 H3448 0.951 . S
C3466 C3467 1.366 . S
C3466 C3468 1.388 . S
C3467 C3466 1.366 . S
C3467 C3471 1.385 . S
C3468 H3449 0.951 . S
C3468 C3466 1.388 . S
C3468 C3469 1.366 . S
C3469 C3468 1.366 . S
C3469 C3470 1.414 . S
C3469 C3472 1.499 . S
C3470 H3450 0.950 . S
C3470 C3469 1.414 . S
C3470 C3471 1.374 . S
C3471 H3451 0.950 . S
C3471 C3467 1.385 . S
C3471 C3470 1.374 . S
C3472 C3469 1.499 . S
C3472 C3473 1.373 . S
C3472 C3474 1.389 . S
C3473 H3452 0.950 . S
C3473 C3472 1.373 . S
C3473 C3489 1.377 . S
C3474 C3472 1.389 . S
C3474 C3475 1.524 . S
C3474 C3488 1.377 . S
C3475 C3474 1.524 . S
C3475 C3476 1.397 . S
C3475 C3480 1.363 . S
C3476 H3453 0.950 . S
C3476 C3475 1.397 . S
C3476 C3477 1.334 . S
C3477 H3454 0.950 . S
C3477 C3476 1.334 . S
C3477 C3478 1.287 . S
C3478 C3477 1.287 . S
C3478 C3479 1.524 . S
C3478 H3497 0.913 . S
C3479 H3455 0.950 . S
C3479 C3478 1.524 . S
C3479 C3480 1.415 . S
C3480 H3456 0.950 . S
C3480 C3475 1.363 . S
C3480 C3479 1.415 . S
C3481 H3457 0.951 . S
C3481 C3482 1.366 . S
C3481 C3483 1.388 . S
C3482 C3481 1.366 . S
C3482 C3486 1.385 . S
C3483 H3458 0.951 . S
C3483 C3481 1.388 . S
C3483 C3484 1.366 . S
C3484 C3483 1.366 . S
C3484 C3485 1.414 . S
C3484 C3487 1.499 . S
C3485 H3459 0.950 . S
C3485 C3484 1.414 . S
C3485 C3486 1.374 . S
C3486 H3460 0.950 . S
C3486 C3482 1.385 . S
C3486 C3485 1.374 . S
C3487 C3484 1.499 . S
C3487 C3488 1.373 . S
C3487 C3489 1.389 . S
C3488 H3461 0.950 . S
C3488 C3474 1.377 . S
C3488 C3487 1.373 . S
C3489 C3473 1.377 . S
C3489 C3487 1.389 . S
C3489 C3490 1.524 . S
C3490 C3489 1.524 . S
C3490 C3491 1.397 . S
C3490 C3495 1.363 . S
C3491 H3462 0.950 . S
C3491 C3490 1.397 . S
C3491 C3492 1.334 . S
C3492 H3463 0.950 . S
C3492 C3491 1.334 . S
C3492 C3493 1.287 . S
C3493 C3492 1.287 . S
C3493 C3494 1.524 . S
C3493 H3496 0.999 . S
C3494 H3464 0.950 . S
C3494 C3493 1.524 . S
C3494 C3495 1.415 . S
C3495 H3465 0.950 . S
C3495 C3490 1.363 . S
C3495 C3494 1.415 . S
H3496 C3493 0.999 . S
H3497 C3478 0.913 . S
H3498 C3516 0.951 . S
H3499 C3518 0.951 . S
H3500 C3520 0.950 . S
H3501 C3521 0.950 . S
H3502 C3523 0.950 . S
H3503 C3526 0.950 . S
H3504 C3527 0.950 . S
H3505 C3529 0.950 . S
H3506 C3530 0.950 . S
H3507 C3531 0.951 . S
H3508 C3533 0.951 . S
H3509 C3535 0.950 . S
H3510 C3536 0.950 . S
H3511 C3538 0.950 . S
H3512 C3541 0.950 . S
H3513 C3542 0.950 . S
H3514 C3544 0.934 1_655 S
H3515 C3545 0.950 . S
C3516 H3498 0.951 . S
C3516 C3517 1.366 . S
C3516 C3518 1.388 . S
C3517 C3516 1.366 . S
C3517 C3521 1.385 . S
C3518 H3499 0.951 . S
C3518 C3516 1.388 . S
C3518 C3519 1.366 . S
C3519 C3518 1.366 . S
C3519 C3520 1.414 . S
C3519 C3522 1.499 . S
C3520 H3500 0.950 . S
C3520 C3519 1.414 . S
C3520 C3521 1.374 . S
C3521 H3501 0.950 . S
C3521 C3517 1.385 . S
C3521 C3520 1.374 . S
C3522 C3519 1.499 . S
C3522 C3523 1.373 . S
C3522 C3524 1.389 . S
C3523 H3502 0.950 . S
C3523 C3522 1.373 . S
C3523 C3539 1.377 . S
C3524 C3522 1.389 . S
C3524 C3525 1.524 . S
C3524 C3538 1.377 . S
C3525 C3524 1.524 . S
C3525 C3526 1.397 . S
C3525 C3530 1.363 . S
C3526 H3503 0.950 . S
C3526 C3525 1.397 . S
C3526 C3527 1.334 . S
C3527 H3504 0.950 . S
C3527 C3526 1.334 . S
C3527 C3528 1.287 . S
C3528 C3527 1.287 . S
C3528 C3529 1.524 . S
C3528 H3547 0.913 . S
C3529 H3505 0.950 . S
C3529 C3528 1.524 . S
C3529 C3530 1.415 . S
C3530 H3506 0.950 . S
C3530 C3525 1.363 . S
C3530 C3529 1.415 . S
C3531 H3507 0.951 . S
C3531 C3532 1.366 . S
C3531 C3533 1.388 . S
C3532 C3531 1.366 . S
C3532 C3536 1.385 . S
C3533 H3508 0.951 . S
C3533 C3531 1.388 . S
C3533 C3534 1.366 . S
C3534 C3533 1.366 . S
C3534 C3535 1.414 . S
C3534 C3537 1.499 . S
C3535 H3509 0.950 . S
C3535 C3534 1.414 . S
C3535 C3536 1.374 . S
C3536 H3510 0.950 . S
C3536 C3532 1.385 . S
C3536 C3535 1.374 . S
C3537 C3534 1.499 . S
C3537 C3538 1.373 . S
C3537 C3539 1.389 . S
C3538 H3511 0.950 . S
C3538 C3524 1.377 . S
C3538 C3537 1.373 . S
C3539 C3523 1.377 . S
C3539 C3537 1.389 . S
C3539 C3540 1.524 . S
C3540 C3539 1.524 . S
C3540 C3541 1.397 . S
C3540 C3545 1.363 . S
C3541 H3512 0.950 . S
C3541 C3540 1.397 . S
C3541 C3542 1.334 . S
C3542 H3513 0.950 . S
C3542 C3541 1.334 . S
C3542 C3543 1.287 . S
C3543 C3542 1.287 . S
C3543 C3544 1.527 . S
C3543 H3546 0.999 1_455 S
C3544 H3514 0.934 1_455 S
C3544 C3543 1.527 . S
C3544 C3545 1.430 . S
C3545 H3515 0.950 . S
C3545 C3540 1.363 . S
C3545 C3544 1.430 . S
H3546 C3543 0.999 1_655 S
H3547 C3528 0.913 . S
H3548 C3566 0.951 . S
H3549 C3568 0.951 . S
H3550 C3570 0.950 . S
H3551 C3571 0.950 . S
H3552 C3573 0.950 . S
H3553 C3576 0.950 . S
H3554 C3577 0.950 . S
H3555 C3579 0.950 . S
H3556 C3580 0.950 . S
H3557 C3581 0.951 . S
H3558 C3583 0.951 . S
H3559 C3585 0.950 . S
H3560 C3586 0.950 . S
H3561 C3588 0.950 . S
H3562 C3591 0.950 . S
H3563 C3592 0.950 . S
H3564 C3594 0.950 . S
H3565 C3595 0.950 . S
C3566 H3548 0.951 . S
C3566 C3567 1.366 . S
C3566 C3568 1.388 . S
C3567 C3566 1.366 . S
C3567 C3571 1.385 . S
C3568 H3549 0.951 . S
C3568 C3566 1.388 . S
C3568 C3569 1.366 . S
C3569 C3568 1.366 . S
C3569 C3570 1.414 . S
C3569 C3572 1.499 . S
C3570 H3550 0.950 . S
C3570 C3569 1.414 . S
C3570 C3571 1.374 . S
C3571 H3551 0.950 . S
C3571 C3567 1.385 . S
C3571 C3570 1.374 . S
C3572 C3569 1.499 . S
C3572 C3573 1.373 . S
C3572 C3574 1.389 . S
C3573 H3552 0.950 . S
C3573 C3572 1.373 . S
C3573 C3589 1.377 . S
C3574 C3572 1.389 . S
C3574 C3575 1.524 . S
C3574 C3588 1.377 . S
C3575 C3574 1.524 . S
C3575 C3576 1.397 . S
C3575 C3580 1.363 . S
C3576 H3553 0.950 . S
C3576 C3575 1.397 . S
C3576 C3577 1.334 . S
C3577 H3554 0.950 . S
C3577 C3576 1.334 . S
C3577 C3578 1.287 . S
C3578 C3577 1.287 . S
C3578 C3579 1.524 . S
C3578 H3597 0.913 . S
C3579 H3555 0.950 . S
C3579 C3578 1.524 . S
C3579 C3580 1.415 . S
C3580 H3556 0.950 . S
C3580 C3575 1.363 . S
C3580 C3579 1.415 . S
C3581 H3557 0.951 . S
C3581 C3582 1.366 . S
C3581 C3583 1.388 . S
C3582 C3581 1.366 . S
C3582 C3586 1.385 . S
C3583 H3558 0.951 . S
C3583 C3581 1.388 . S
C3583 C3584 1.366 . S
C3584 C3583 1.366 . S
C3584 C3585 1.414 . S
C3584 C3587 1.499 . S
C3585 H3559 0.950 . S
C3585 C3584 1.414 . S
C3585 C3586 1.374 . S
C3586 H3560 0.950 . S
C3586 C3582 1.385 . S
C3586 C3585 1.374 . S
C3587 C3584 1.499 . S
C3587 C3588 1.373 . S
C3587 C3589 1.389 . S
C3588 H3561 0.950 . S
C3588 C3574 1.377 . S
C3588 C3587 1.373 . S
C3589 C3573 1.377 . S
C3589 C3587 1.389 . S
C3589 C3590 1.524 . S
C3590 C3589 1.524 . S
C3590 C3591 1.397 . S
C3590 C3595 1.363 . S
C3591 H3562 0.950 . S
C3591 C3590 1.397 . S
C3591 C3592 1.334 . S
C3592 H3563 0.950 . S
C3592 C3591 1.334 . S
C3592 C3593 1.287 . S
C3593 C3592 1.287 . S
C3593 C3594 1.524 . S
C3593 H3596 0.999 . S
C3594 H3564 0.950 . S
C3594 C3593 1.524 . S
C3594 C3595 1.415 . S
C3595 H3565 0.950 . S
C3595 C3590 1.363 . S
C3595 C3594 1.415 . S
H3596 C3593 0.999 . S
H3597 C3578 0.913 . S
H3598 C3616 0.951 . S
H3599 C3618 0.951 . S
H3600 C3620 0.950 . S
H3601 C3621 0.950 . S
H3602 C3623 0.950 . S
H3603 C3626 0.950 . S
H3604 C3627 0.950 . S
H3605 C3629 0.950 . S
H3606 C3630 0.950 . S
H3607 C3631 0.951 . S
H3608 C3633 0.951 . S
H3609 C3635 0.950 . S
H3610 C3636 0.950 . S
H3611 C3638 0.950 . S
H3612 C3641 0.950 . S
H3613 C3642 0.950 . S
H3614 C3644 0.950 . S
H3615 C3645 0.950 . S
C3616 H3598 0.951 . S
C3616 C3617 1.364 1_455 S
C3616 C3618 1.388 . S
C3617 C3616 1.364 1_655 S
C3617 C3621 1.387 . S
C3618 H3599 0.951 . S
C3618 C3616 1.388 . S
C3618 C3619 1.401 . S
C3619 C3618 1.401 . S
C3619 C3620 1.381 1_455 S
C3619 C3622 1.497 . S
C3620 H3600 0.950 . S
C3620 C3619 1.381 1_655 S
C3620 C3621 1.374 . S
C3621 H3601 0.950 . S
C3621 C3617 1.387 . S
C3621 C3620 1.374 . S
C3622 C3619 1.497 . S
C3622 C3623 1.356 1_455 S
C3622 C3624 1.406 . S
C3623 H3602 0.950 . S
C3623 C3622 1.356 1_655 S
C3623 C3639 1.377 . S
C3624 C3622 1.406 . S
C3624 C3625 1.524 . S
C3624 C3638 1.377 . S
C3625 C3624 1.524 . S
C3625 C3626 1.397 . S
C3625 C3630 1.363 . S
C3626 H3603 0.950 . S
C3626 C3625 1.397 . S
C3626 C3627 1.334 . S
C3627 H3604 0.950 . S
C3627 C3626 1.334 . S
C3627 C3628 1.287 . S
C3628 C3627 1.287 . S
C3628 C3629 1.524 . S
C3628 H3647 0.913 . S
C3629 H3605 0.950 . S
C3629 C3628 1.524 . S
C3629 C3630 1.415 . S
C3630 H3606 0.950 . S
C3630 C3625 1.363 . S
C3630 C3629 1.415 . S
C3631 H3607 0.951 . S
C3631 C3632 1.366 1_655 S
C3631 C3633 1.388 . S
C3632 C3631 1.366 1_455 S
C3632 C3636 1.385 . S
C3633 H3608 0.951 . S
C3633 C3631 1.388 . S
C3633 C3634 1.366 1_655 S
C3634 C3633 1.366 1_455 S
C3634 C3635 1.414 . S
C3634 C3637 1.499 . S
C3635 H3609 0.950 . S
C3635 C3634 1.414 . S
C3635 C3636 1.374 . S
C3636 H3610 0.950 . S
C3636 C3632 1.385 . S
C3636 C3635 1.374 . S
C3637 C3634 1.499 . S
C3637 C3638 1.373 . S
C3637 C3639 1.389 1_455 S
C3638 H3611 0.950 . S
C3638 C3624 1.377 . S
C3638 C3637 1.373 . S
C3639 C3623 1.377 . S
C3639 C3637 1.389 1_655 S
C3639 C3640 1.524 . S
C3640 C3639 1.524 . S
C3640 C3641 1.397 . S
C3640 C3645 1.363 . S
C3641 H3612 0.950 . S
C3641 C3640 1.397 . S
C3641 C3642 1.334 . S
C3642 H3613 0.950 . S
C3642 C3641 1.334 . S
C3642 C3643 1.287 . S
C3643 C3642 1.287 . S
C3643 C3644 1.524 . S
C3643 H3646 0.999 . S
C3644 H3614 0.950 . S
C3644 C3643 1.524 . S
C3644 C3645 1.415 . S
C3645 H3615 0.950 . S
C3645 C3640 1.363 . S
C3645 C3644 1.415 . S
H3646 C3643 0.999 . S
H3647 C3628 0.913 . S
H3648 C3666 0.951 . S
H3649 C3668 0.951 . S
H3650 C3670 0.950 . S
H3651 C3671 0.950 . S
H3652 C3673 0.950 . S
H3653 C3676 0.950 . S
H3654 C3677 0.950 . S
H3655 C3679 0.950 . S
H3656 C3680 0.950 . S
H3657 C3681 0.951 . S
H3658 C3683 0.951 . S
H3659 C3685 0.950 . S
H3660 C3686 0.950 . S
H3661 C3688 0.950 . S
H3662 C3691 0.950 . S
H3663 C3692 0.950 . S
H3664 C3694 0.950 . S
H3665 C3695 0.950 . S
C3666 H3648 0.951 . S
C3666 C3667 1.366 . S
C3666 C3668 1.388 . S
C3667 C3666 1.366 . S
C3667 C3671 1.385 . S
C3668 H3649 0.951 . S
C3668 C3666 1.388 . S
C3668 C3669 1.366 . S
C3669 C3668 1.366 . S
C3669 C3670 1.414 . S
C3669 C3672 1.499 . S
C3670 H3650 0.950 . S
C3670 C3669 1.414 . S
C3670 C3671 1.374 . S
C3671 H3651 0.950 . S
C3671 C3667 1.385 . S
C3671 C3670 1.374 . S
C3672 C3669 1.499 . S
C3672 C3673 1.373 . S
C3672 C3674 1.389 . S
C3673 H3652 0.950 . S
C3673 C3672 1.373 . S
C3673 C3689 1.377 . S
C3674 C3672 1.389 . S
C3674 C3675 1.524 . S
C3674 C3688 1.377 . S
C3675 C3674 1.524 . S
C3675 C3676 1.397 . S
C3675 C3680 1.363 . S
C3676 H3653 0.950 . S
C3676 C3675 1.397 . S
C3676 C3677 1.334 . S
C3677 H3654 0.950 . S
C3677 C3676 1.334 . S
C3677 C3678 1.287 . S
C3678 C3677 1.287 . S
C3678 C3679 1.524 . S
C3678 H3697 0.913 . S
C3679 H3655 0.950 . S
C3679 C3678 1.524 . S
C3679 C3680 1.415 . S
C3680 H3656 0.950 . S
C3680 C3675 1.363 . S
C3680 C3679 1.415 . S
C3681 H3657 0.951 . S
C3681 C3682 1.366 . S
C3681 C3683 1.388 . S
C3682 C3681 1.366 . S
C3682 C3686 1.385 . S
C3683 H3658 0.951 . S
C3683 C3681 1.388 . S
C3683 C3684 1.366 . S
C3684 C3683 1.366 . S
C3684 C3685 1.414 . S
C3684 C3687 1.499 . S
C3685 H3659 0.950 . S
C3685 C3684 1.414 . S
C3685 C3686 1.374 . S
C3686 H3660 0.950 . S
C3686 C3682 1.385 . S
C3686 C3685 1.374 . S
C3687 C3684 1.499 . S
C3687 C3688 1.373 . S
C3687 C3689 1.389 . S
C3688 H3661 0.950 . S
C3688 C3674 1.377 . S
C3688 C3687 1.373 . S
C3689 C3673 1.377 . S
C3689 C3687 1.389 . S
C3689 C3690 1.524 . S
C3690 C3689 1.524 . S
C3690 C3691 1.397 . S
C3690 C3695 1.363 . S
C3691 H3662 0.950 . S
C3691 C3690 1.397 . S
C3691 C3692 1.334 . S
C3692 H3663 0.950 . S
C3692 C3691 1.334 . S
C3692 C3693 1.287 . S
C3693 C3692 1.287 . S
C3693 C3694 1.524 . S
C3693 H3696 0.999 . S
C3694 H3664 0.950 . S
C3694 C3693 1.524 . S
C3694 C3695 1.415 . S
C3695 H3665 0.950 . S
C3695 C3690 1.363 . S
C3695 C3694 1.415 . S
H3696 C3693 0.999 . S
H3697 C3678 0.913 . S
H3698 C3716 0.951 . S
H3699 C3718 0.951 . S
H3700 C3720 0.950 . S
H3701 C3721 0.950 . S
H3702 C3723 0.950 . S
H3703 C3726 0.950 . S
H3704 C3727 0.950 . S
H3705 C3729 0.950 . S
H3706 C3730 0.950 . S
H3707 C3731 0.951 . S
H3708 C3733 0.951 . S
H3709 C3735 0.950 . S
H3710 C3736 0.950 . S
H3711 C3738 0.950 . S
H3712 C3741 0.950 . S
H3713 C3742 0.950 . S
H3714 C3744 0.950 . S
H3715 C3745 0.950 . S
C3716 H3698 0.951 . S
C3716 C3717 1.366 . S
C3716 C3718 1.388 . S
C3717 C3716 1.366 . S
C3717 C3721 1.385 . S
C3718 H3699 0.951 . S
C3718 C3716 1.388 . S
C3718 C3719 1.366 . S
C3719 C3718 1.366 . S
C3719 C3720 1.414 . S
C3719 C3722 1.499 . S
C3720 H3700 0.950 . S
C3720 C3719 1.414 . S
C3720 C3721 1.374 . S
C3721 H3701 0.950 . S
C3721 C3717 1.385 . S
C3721 C3720 1.374 . S
C3722 C3719 1.499 . S
C3722 C3723 1.373 . S
C3722 C3724 1.389 . S
C3723 H3702 0.950 . S
C3723 C3722 1.373 . S
C3723 C3739 1.377 . S
C3724 C3722 1.389 . S
C3724 C3725 1.524 . S
C3724 C3738 1.377 . S
C3725 C3724 1.524 . S
C3725 C3726 1.397 . S
C3725 C3730 1.363 . S
C3726 H3703 0.950 . S
C3726 C3725 1.397 . S
C3726 C3727 1.334 . S
C3727 H3704 0.950 . S
C3727 C3726 1.334 . S
C3727 C3728 1.287 . S
C3728 C3727 1.287 . S
C3728 C3729 1.524 . S
C3728 H3747 0.913 . S
C3729 H3705 0.950 . S
C3729 C3728 1.524 . S
C3729 C3730 1.415 . S
C3730 H3706 0.950 . S
C3730 C3725 1.363 . S
C3730 C3729 1.415 . S
C3731 H3707 0.951 . S
C3731 C3732 1.366 . S
C3731 C3733 1.388 . S
C3732 C3731 1.366 . S
C3732 C3736 1.385 . S
C3733 H3708 0.951 . S
C3733 C3731 1.388 . S
C3733 C3734 1.366 . S
C3734 C3733 1.366 . S
C3734 C3735 1.414 . S
C3734 C3737 1.499 . S
C3735 H3709 0.950 . S
C3735 C3734 1.414 . S
C3735 C3736 1.374 . S
C3736 H3710 0.950 . S
C3736 C3732 1.385 . S
C3736 C3735 1.374 . S
C3737 C3734 1.499 . S
C3737 C3738 1.373 . S
C3737 C3739 1.389 . S
C3738 H3711 0.950 . S
C3738 C3724 1.377 . S
C3738 C3737 1.373 . S
C3739 C3723 1.377 . S
C3739 C3737 1.389 . S
C3739 C3740 1.524 . S
C3740 C3739 1.524 . S
C3740 C3741 1.397 . S
C3740 C3745 1.363 . S
C3741 H3712 0.950 . S
C3741 C3740 1.397 . S
C3741 C3742 1.334 . S
C3742 H3713 0.950 . S
C3742 C3741 1.334 . S
C3742 C3743 1.287 . S
C3743 C3742 1.287 . S
C3743 C3744 1.524 . S
C3743 H3746 0.999 . S
C3744 H3714 0.950 . S
C3744 C3743 1.524 . S
C3744 C3745 1.415 . S
C3745 H3715 0.950 . S
C3745 C3740 1.363 . S
C3745 C3744 1.415 . S
H3746 C3743 0.999 . S
H3747 C3728 0.913 . S
H3748 C3766 0.951 . S
H3749 C3768 0.951 . S
H3750 C3770 0.950 . S
H3751 C3771 0.950 . S
H3752 C3773 0.950 . S
H3753 C3776 0.950 . S
H3754 C3777 0.950 . S
H3755 C3779 0.950 . S
H3756 C3780 0.950 . S
H3757 C3781 0.951 . S
H3758 C3783 0.951 1_545 S
H3759 C3785 0.950 . S
H3760 C3786 0.950 . S
H3761 C3788 0.950 . S
H3762 C3791 0.950 . S
H3763 C3792 0.950 . S
H3764 C3794 0.950 . S
H3765 C3795 0.950 . S
C3766 H3748 0.951 . S
C3766 C3767 1.390 . S
C3766 C3768 1.388 . S
C3767 C3766 1.390 . S
C3767 C3771 1.375 1_565 S
C3768 H3749 0.951 . S
C3768 C3766 1.388 . S
C3768 C3769 1.366 . S
C3769 C3768 1.366 . S
C3769 C3770 1.414 1_565 S
C3769 C3772 1.499 . S
C3770 H3750 0.950 . S
C3770 C3769 1.414 1_545 S
C3770 C3771 1.374 . S
C3771 H3751 0.950 . S
C3771 C3767 1.375 1_545 S
C3771 C3770 1.374 . S
C3772 C3769 1.499 . S
C3772 C3773 1.373 1_565 S
C3772 C3774 1.389 . S
C3773 H3752 0.950 . S
C3773 C3772 1.373 1_545 S
C3773 C3789 1.377 . S
C3774 C3772 1.389 . S
C3774 C3775 1.524 . S
C3774 C3788 1.377 . S
C3775 C3774 1.524 . S
C3775 C3776 1.397 . S
C3775 C3780 1.363 . S
C3776 H3753 0.950 . S
C3776 C3775 1.397 . S
C3776 C3777 1.334 . S
C3777 H3754 0.950 . S
C3777 C3776 1.334 . S
C3777 C3778 1.287 . S
C3778 C3777 1.287 . S
C3778 C3779 1.524 . S
C3778 H3797 0.913 . S
C3779 H3755 0.950 . S
C3779 C3778 1.524 . S
C3779 C3780 1.415 . S
C3780 H3756 0.950 . S
C3780 C3775 1.363 . S
C3780 C3779 1.415 . S
C3781 H3757 0.951 . S
C3781 C3782 1.366 . S
C3781 C3783 1.388 . S
C3782 C3781 1.366 . S
C3782 C3786 1.385 . S
C3783 H3758 0.951 1_565 S
C3783 C3781 1.388 . S
C3783 C3784 1.366 . S
C3784 C3783 1.366 . S
C3784 C3785 1.414 . S
C3784 C3787 1.499 . S
C3785 H3759 0.950 . S
C3785 C3784 1.414 . S
C3785 C3786 1.374 . S
C3786 H3760 0.950 . S
C3786 C3782 1.385 . S
C3786 C3785 1.374 . S
C3787 C3784 1.499 . S
C3787 C3788 1.373 . S
C3787 C3789 1.389 1_565 S
C3788 H3761 0.950 . S
C3788 C3774 1.377 . S
C3788 C3787 1.373 . S
C3789 C3773 1.377 . S
C3789 C3787 1.389 1_545 S
C3789 C3790 1.524 . S
C3790 C3789 1.524 . S
C3790 C3791 1.397 . S
C3790 C3795 1.363 . S
C3791 H3762 0.950 . S
C3791 C3790 1.397 . S
C3791 C3792 1.334 . S
C3792 H3763 0.950 . S
C3792 C3791 1.334 . S
C3792 C3793 1.287 . S
C3793 C3792 1.287 . S
C3793 C3794 1.524 . S
C3793 H3796 0.999 . S
C3794 H3764 0.950 . S
C3794 C3793 1.524 . S
C3794 C3795 1.415 . S
C3795 H3765 0.950 . S
C3795 C3790 1.363 . S
C3795 C3794 1.415 . S
H3796 C3793 0.999 . S
H3797 C3778 0.913 . S
H3798 C3816 0.951 1_565 S
H3799 C3818 0.951 1_565 S
H3800 C3820 0.950 . S
H3801 C3821 0.950 . S
H3802 C3823 0.950 . S
H3803 C3826 0.950 . S
H3804 C3827 0.950 . S
H3805 C3829 0.950 . S
H3806 C3830 0.950 . S
H3807 C3831 0.951 . S
H3808 C3833 0.951 . S
H3809 C3835 0.969 . S
H3810 C3836 0.950 . S
H3811 C3838 0.950 . S
H3812 C3841 0.950 . S
H3813 C3842 0.950 . S
H3814 C3844 0.950 . S
H3815 C3845 0.950 . S
C3816 H3798 0.951 1_545 S
C3816 C3817 1.366 . S
C3816 C3818 1.388 . S
C3817 C3816 1.366 . S
C3817 C3821 1.385 . S
C3818 H3799 0.951 1_545 S
C3818 C3816 1.388 . S
C3818 C3819 1.366 . S
C3819 C3818 1.366 . S
C3819 C3820 1.414 . S
C3819 C3822 1.499 . S
C3820 H3800 0.950 . S
C3820 C3819 1.414 . S
C3820 C3821 1.374 . S
C3821 H3801 0.950 . S
C3821 C3817 1.385 . S
C3821 C3820 1.374 . S
C3822 C3819 1.499 . S
C3822 C3823 1.373 . S
C3822 C3824 1.389 1_545 S
C3823 H3802 0.950 . S
C3823 C3822 1.373 . S
C3823 C3839 1.377 . S
C3824 C3822 1.389 1_565 S
C3824 C3825 1.524 . S
C3824 C3838 1.377 . S
C3825 C3824 1.524 . S
C3825 C3826 1.397 . S
C3825 C3830 1.363 . S
C3826 H3803 0.950 . S
C3826 C3825 1.397 . S
C3826 C3827 1.334 . S
C3827 H3804 0.950 . S
C3827 C3826 1.334 . S
C3827 C3828 1.287 . S
C3828 C3827 1.287 . S
C3828 C3829 1.524 . S
C3828 H3847 0.913 . S
C3829 H3805 0.950 . S
C3829 C3828 1.524 . S
C3829 C3830 1.415 . S
C3830 H3806 0.950 . S
C3830 C3825 1.363 . S
C3830 C3829 1.415 . S
C3831 H3807 0.951 . S
C3831 C3832 1.366 . S
C3831 C3833 1.388 . S
C3832 C3831 1.366 . S
C3832 C3836 1.385 1_545 S
C3833 H3808 0.951 . S
C3833 C3831 1.388 . S
C3833 C3834 1.366 . S
C3834 C3833 1.366 . S
C3834 C3835 1.397 1_545 S
C3834 C3837 1.499 . S
C3835 H3809 0.969 . S
C3835 C3834 1.397 1_565 S
C3835 C3836 1.373 . S
C3836 H3810 0.950 . S
C3836 C3832 1.385 1_565 S
C3836 C3835 1.373 . S
C3837 C3834 1.499 . S
C3837 C3838 1.373 1_545 S
C3837 C3839 1.389 . S
C3838 H3811 0.950 . S
C3838 C3824 1.377 . S
C3838 C3837 1.373 1_565 S
C3839 C3823 1.377 . S
C3839 C3837 1.389 . S
C3839 C3840 1.524 . S
C3840 C3839 1.524 . S
C3840 C3841 1.397 . S
C3840 C3845 1.363 . S
C3841 H3812 0.950 . S
C3841 C3840 1.397 . S
C3841 C3842 1.334 . S
C3842 H3813 0.950 . S
C3842 C3841 1.334 . S
C3842 C3843 1.287 . S
C3843 C3842 1.287 . S
C3843 C3844 1.524 . S
C3843 H3846 0.999 . S
C3844 H3814 0.950 . S
C3844 C3843 1.524 . S
C3844 C3845 1.415 . S
C3845 H3815 0.950 . S
C3845 C3840 1.363 . S
C3845 C3844 1.415 . S
H3846 C3843 0.999 . S
H3847 C3828 0.913 . S
H3848 C3866 0.951 . S
H3849 C3868 0.951 . S
H3850 C3870 0.950 . S
H3851 C3871 0.950 . S
H3852 C3873 0.950 . S
H3853 C3876 0.950 . S
H3854 C3877 0.950 . S
H3855 C3879 0.950 . S
H3856 C3880 0.950 . S
H3857 C3881 0.951 . S
H3858 C3883 0.951 . S
H3859 C3885 0.950 . S
H3860 C3886 0.950 . S
H3861 C3888 0.950 . S
H3862 C3891 0.950 . S
H3863 C3892 0.950 . S
H3864 C3894 0.950 . S
H3865 C3895 0.950 . S
C3866 H3848 0.951 . S
C3866 C3867 1.366 . S
C3866 C3868 1.388 . S
C3867 C3866 1.366 . S
C3867 C3871 1.385 . S
C3868 H3849 0.951 . S
C3868 C3866 1.388 . S
C3868 C3869 1.366 . S
C3869 C3868 1.366 . S
C3869 C3870 1.414 . S
C3869 C3872 1.499 . S
C3870 H3850 0.950 . S
C3870 C3869 1.414 . S
C3870 C3871 1.374 . S
C3871 H3851 0.950 . S
C3871 C3867 1.385 . S
C3871 C3870 1.374 . S
C3872 C3869 1.499 . S
C3872 C3873 1.373 . S
C3872 C3874 1.389 . S
C3873 H3852 0.950 . S
C3873 C3872 1.373 . S
C3873 C3889 1.377 . S
C3874 C3872 1.389 . S
C3874 C3875 1.524 . S
C3874 C3888 1.377 . S
C3875 C3874 1.524 . S
C3875 C3876 1.397 . S
C3875 C3880 1.363 . S
C3876 H3853 0.950 . S
C3876 C3875 1.397 . S
C3876 C3877 1.334 . S
C3877 H3854 0.950 . S
C3877 C3876 1.334 . S
C3877 C3878 1.287 . S
C3878 C3877 1.287 . S
C3878 C3879 1.524 . S
C3878 H3897 0.913 . S
C3879 H3855 0.950 . S
C3879 C3878 1.524 . S
C3879 C3880 1.415 . S
C3880 H3856 0.950 . S
C3880 C3875 1.363 . S
C3880 C3879 1.415 . S
C3881 H3857 0.951 . S
C3881 C3882 1.366 . S
C3881 C3883 1.388 . S
C3882 C3881 1.366 . S
C3882 C3886 1.385 . S
C3883 H3858 0.951 . S
C3883 C3881 1.388 . S
C3883 C3884 1.366 . S
C3884 C3883 1.366 . S
C3884 C3885 1.414 . S
C3884 C3887 1.499 . S
C3885 H3859 0.950 . S
C3885 C3884 1.414 . S
C3885 C3886 1.374 . S
C3886 H3860 0.950 . S
C3886 C3882 1.385 . S
C3886 C3885 1.374 . S
C3887 C3884 1.499 . S
C3887 C3888 1.373 . S
C3887 C3889 1.389 . S
C3888 H3861 0.950 . S
C3888 C3874 1.377 . S
C3888 C3887 1.373 . S
C3889 C3873 1.377 . S
C3889 C3887 1.389 . S
C3889 C3890 1.524 . S
C3890 C3889 1.524 . S
C3890 C3891 1.397 . S
C3890 C3895 1.363 . S
C3891 H3862 0.950 . S
C3891 C3890 1.397 . S
C3891 C3892 1.334 . S
C3892 H3863 0.950 . S
C3892 C3891 1.334 . S
C3892 C3893 1.287 . S
C3893 C3892 1.287 . S
C3893 C3894 1.524 . S
C3893 H3896 0.999 . S
C3894 H3864 0.950 . S
C3894 C3893 1.524 . S
C3894 C3895 1.415 . S
C3895 H3865 0.950 . S
C3895 C3890 1.363 . S
C3895 C3894 1.415 . S
H3896 C3893 0.999 . S
H3897 C3878 0.913 . S
H3898 C3916 0.951 . S
H3899 C3918 0.951 . S
H3900 C3920 0.950 . S
H3901 C3921 0.950 . S
H3902 C3923 0.950 . S
H3903 C3926 0.950 . S
H3904 C3927 0.950 . S
H3905 C3929 0.950 . S
H3906 C3930 0.950 . S
H3907 C3931 0.951 . S
H3908 C3933 0.951 . S
H3909 C3935 0.950 1_556 S
H3910 C3936 0.950 1_556 S
H3911 C3938 0.950 . S
H3912 C3941 0.950 . S
H3913 C3942 0.950 . S
H3914 C3944 0.950 . S
H3915 C3945 0.950 . S
C3916 H3898 0.951 . S
C3916 C3917 1.366 . S
C3916 C3918 1.388 . S
C3917 C3916 1.366 . S
C3917 C3921 1.385 . S
C3918 H3899 0.951 . S
C3918 C3916 1.388 . S
C3918 C3919 1.366 . S
C3919 C3918 1.366 . S
C3919 C3920 1.414 . S
C3919 C3922 1.499 . S
C3920 H3900 0.950 . S
C3920 C3919 1.414 . S
C3920 C3921 1.374 . S
C3921 H3901 0.950 . S
C3921 C3917 1.385 . S
C3921 C3920 1.374 . S
C3922 C3919 1.499 . S
C3922 C3923 1.373 . S
C3922 C3924 1.389 1_554 S
C3923 H3902 0.950 . S
C3923 C3922 1.373 . S
C3923 C3939 1.377 . S
C3924 C3922 1.389 1_556 S
C3924 C3925 1.524 . S
C3924 C3938 1.377 . S
C3925 C3924 1.524 . S
C3925 C3926 1.397 . S
C3925 C3930 1.363 . S
C3926 H3903 0.950 . S
C3926 C3925 1.397 . S
C3926 C3927 1.334 . S
C3927 H3904 0.950 . S
C3927 C3926 1.334 . S
C3927 C3928 1.287 . S
C3928 C3927 1.287 . S
C3928 C3929 1.524 . S
C3928 H3947 0.913 . S
C3929 H3905 0.950 . S
C3929 C3928 1.524 . S
C3929 C3930 1.415 . S
C3930 H3906 0.950 . S
C3930 C3925 1.363 . S
C3930 C3929 1.415 . S
C3931 H3907 0.951 . S
C3931 C3932 1.366 . S
C3931 C3933 1.388 . S
C3932 C3931 1.366 . S
C3932 C3936 1.385 . S
C3933 H3908 0.951 . S
C3933 C3931 1.388 . S
C3933 C3934 1.366 . S
C3934 C3933 1.366 . S
C3934 C3935 1.414 . S
C3934 C3937 1.499 . S
C3935 H3909 0.950 1_554 S
C3935 C3934 1.414 . S
C3935 C3936 1.374 . S
C3936 H3910 0.950 1_554 S
C3936 C3932 1.385 . S
C3936 C3935 1.374 . S
C3937 C3934 1.499 . S
C3937 C3938 1.373 1_554 S
C3937 C3939 1.389 . S
C3938 H3911 0.950 . S
C3938 C3924 1.377 . S
C3938 C3937 1.373 1_556 S
C3939 C3923 1.377 . S
C3939 C3937 1.389 . S
C3939 C3940 1.524 . S
C3940 C3939 1.524 . S
C3940 C3941 1.397 . S
C3940 C3945 1.363 . S
C3941 H3912 0.950 . S
C3941 C3940 1.397 . S
C3941 C3942 1.334 . S
C3942 H3913 0.950 . S
C3942 C3941 1.334 . S
C3942 C3943 1.287 . S
C3943 C3942 1.287 . S
C3943 C3944 1.524 . S
C3943 H3946 0.999 . S
C3944 H3914 0.950 . S
C3944 C3943 1.524 . S
C3944 C3945 1.415 . S
C3945 H3915 0.950 . S
C3945 C3940 1.363 . S
C3945 C3944 1.415 . S
H3946 C3943 0.999 . S
H3947 C3928 0.913 . S
H3948 C3966 0.951 . S
H3949 C3968 0.951 . S
H3950 C3970 0.950 . S
H3951 C3971 0.950 . S
H3952 C3973 0.950 . S
H3953 C3976 0.950 . S
H3954 C3977 0.950 . S
H3955 C3979 0.950 . S
H3956 C3980 0.950 . S
H3957 C3981 0.951 . S
H3958 C3983 0.951 . S
H3959 C3985 0.950 . S
H3960 C3986 0.950 . S
H3961 C3988 0.950 . S
H3962 C3991 0.950 . S
H3963 C3992 0.950 . S
H3964 C3994 0.950 . S
H3965 C3995 0.950 . S
C3966 H3948 0.951 . S
C3966 C3967 1.366 . S
C3966 C3968 1.388 . S
C3967 C3966 1.366 . S
C3967 C3971 1.385 . S
C3968 H3949 0.951 . S
C3968 C3966 1.388 . S
C3968 C3969 1.366 . S
C3969 C3968 1.366 . S
C3969 C3970 1.414 . S
C3969 C3972 1.499 . S
C3970 H3950 0.950 . S
C3970 C3969 1.414 . S
C3970 C3971 1.374 . S
C3971 H3951 0.950 . S
C3971 C3967 1.385 . S
C3971 C3970 1.374 . S
C3972 C3969 1.499 . S
C3972 C3973 1.373 . S
C3972 C3974 1.389 . S
C3973 H3952 0.950 . S
C3973 C3972 1.373 . S
C3973 C3989 1.377 . S
C3974 C3972 1.389 . S
C3974 C3975 1.524 . S
C3974 C3988 1.377 . S
C3975 C3974 1.524 . S
C3975 C3976 1.397 . S
C3975 C3980 1.363 . S
C3976 H3953 0.950 . S
C3976 C3975 1.397 . S
C3976 C3977 1.334 . S
C3977 H3954 0.950 . S
C3977 C3976 1.334 . S
C3977 C3978 1.287 . S
C3978 C3977 1.287 . S
C3978 C3979 1.524 . S
C3978 H3997 0.913 . S
C3979 H3955 0.950 . S
C3979 C3978 1.524 . S
C3979 C3980 1.415 . S
C3980 H3956 0.950 . S
C3980 C3975 1.363 . S
C3980 C3979 1.415 . S
C3981 H3957 0.951 . S
C3981 C3982 1.366 . S
C3981 C3983 1.388 . S
C3982 C3981 1.366 . S
C3982 C3986 1.385 . S
C3983 H3958 0.951 . S
C3983 C3981 1.388 . S
C3983 C3984 1.366 . S
C3984 C3983 1.366 . S
C3984 C3985 1.414 . S
C3984 C3987 1.499 . S
C3985 H3959 0.950 . S
C3985 C3984 1.414 . S
C3985 C3986 1.374 . S
C3986 H3960 0.950 . S
C3986 C3982 1.385 . S
C3986 C3985 1.374 . S
C3987 C3984 1.499 . S
C3987 C3988 1.373 . S
C3987 C3989 1.389 . S
C3988 H3961 0.950 . S
C3988 C3974 1.377 . S
C3988 C3987 1.373 . S
C3989 C3973 1.377 . S
C3989 C3987 1.389 . S
C3989 C3990 1.524 . S
C3990 C3989 1.524 . S
C3990 C3991 1.397 . S
C3990 C3995 1.363 . S
C3991 H3962 0.950 . S
C3991 C3990 1.397 . S
C3991 C3992 1.334 . S
C3992 H3963 0.950 . S
C3992 C3991 1.334 . S
C3992 C3993 1.287 . S
C3993 C3992 1.287 . S
C3993 C3994 1.524 . S
C3993 H3996 0.999 . S
C3994 H3964 0.950 . S
C3994 C3993 1.524 . S
C3994 C3995 1.415 . S
C3995 H3965 0.950 . S
C3995 C3990 1.363 . S
C3995 C3994 1.415 . S
H3996 C3993 0.999 . S
H3997 C3978 0.913 . S
H3998 C4016 0.951 . S
H3999 C4018 0.951 . S
H4000 C4020 0.950 . S
H4001 C4021 0.950 . S
H4002 C4023 0.950 . S
H4003 C4026 0.950 . S
H4004 C4027 0.950 . S
H4005 C4029 0.950 . S
H4006 C4030 0.950 1_554 S
H4007 C4031 0.951 . S
H4008 C4033 0.951 . S
H4009 C4035 0.950 1_554 S
H4010 C4036 0.950 1_554 S
H4011 C4038 0.950 . S
H4012 C4041 0.950 . S
H4013 C4042 0.950 . S
H4014 C4044 0.950 . S
H4015 C4045 0.950 . S
C4016 H3998 0.951 . S
C4016 C4017 1.344 1_554 S
C4016 C4018 1.388 . S
C4017 C4016 1.344 1_556 S
C4017 C4021 1.421 . S
C4018 H3999 0.951 . S
C4018 C4016 1.388 . S
C4018 C4019 1.366 1_554 S
C4019 C4018 1.366 1_556 S
C4019 C4020 1.414 . S
C4019 C4022 1.499 . S
C4020 H4000 0.950 . S
C4020 C4019 1.414 . S
C4020 C4021 1.374 . S
C4021 H4001 0.950 . S
C4021 C4017 1.421 . S
C4021 C4020 1.374 . S
C4022 C4019 1.499 . S
C4022 C4023 1.373 . S
C4022 C4024 1.389 . S
C4023 H4002 0.950 . S
C4023 C4022 1.373 . S
C4023 C4039 1.377 . S
C4024 C4022 1.389 . S
C4024 C4025 1.524 . S
C4024 C4038 1.377 . S
C4025 C4024 1.524 . S
C4025 C4026 1.397 . S
C4025 C4030 1.363 . S
C4026 H4003 0.950 . S
C4026 C4025 1.397 . S
C4026 C4027 1.334 . S
C4027 H4004 0.950 . S
C4027 C4026 1.334 . S
C4027 C4028 1.287 . S
C4028 C4027 1.287 . S
C4028 C4029 1.524 . S
C4028 H4047 0.913 . S
C4029 H4005 0.950 . S
C4029 C4028 1.524 . S
C4029 C4030 1.415 . S
C4030 H4006 0.950 1_556 S
C4030 C4025 1.363 . S
C4030 C4029 1.415 . S
C4031 H4007 0.951 . S
C4031 C4032 1.366 . S
C4031 C4033 1.388 . S
C4032 C4031 1.366 . S
C4032 C4036 1.385 . S
C4033 H4008 0.951 . S
C4033 C4031 1.388 . S
C4033 C4034 1.366 . S
C4034 C4033 1.366 . S
C4034 C4035 1.414 . S
C4034 C4037 1.499 . S
C4035 H4009 0.950 1_556 S
C4035 C4034 1.414 . S
C4035 C4036 1.374 . S
C4036 H4010 0.950 1_556 S
C4036 C4032 1.385 . S
C4036 C4035 1.374 . S
C4037 C4034 1.499 . S
C4037 C4038 1.373 . S
C4037 C4039 1.389 . S
C4038 H4011 0.950 . S
C4038 C4024 1.377 . S
C4038 C4037 1.373 . S
C4039 C4023 1.377 . S
C4039 C4037 1.389 . S
C4039 C4040 1.525 . S
C4040 C4039 1.525 . S
C4040 C4041 1.394 1_556 S
C4040 C4045 1.365 . S
C4041 H4012 0.950 . S
C4041 C4040 1.394 1_554 S
C4041 C4042 1.334 . S
C4042 H4013 0.950 . S
C4042 C4041 1.334 . S
C4042 C4043 1.287 . S
C4043 C4042 1.287 . S
C4043 C4044 1.524 1_554 S
C4043 H4046 0.999 . S
C4044 H4014 0.950 . S
C4044 C4043 1.524 1_556 S
C4044 C4045 1.415 . S
C4045 H4015 0.950 . S
C4045 C4040 1.365 . S
C4045 C4044 1.415 . S
H4046 C4043 0.999 . S
H4047 C4028 0.913 . S
H4048 C4066 0.951 . S
H4049 C4068 0.951 . S
H4050 C4070 0.950 . S
H4051 C4071 0.950 . S
H4052 C4073 0.950 . S
H4053 C4076 0.950 . S
H4054 C4077 0.950 . S
H4055 C4079 0.950 . S
H4056 C4080 0.950 . S
H4057 C4081 0.951 . S
H4058 C4083 0.951 . S
H4059 C4085 0.950 . S
H4060 C4086 0.950 . S
H4061 C4088 0.950 . S
H4062 C4091 0.950 . S
H4063 C4092 0.950 . S
H4064 C4094 0.950 . S
H4065 C4095 0.950 . S
C4066 H4048 0.951 . S
C4066 C4067 1.366 . S
C4066 C4068 1.388 . S
C4067 C4066 1.366 . S
C4067 C4071 1.385 . S
C4068 H4049 0.951 . S
C4068 C4066 1.388 . S
C4068 C4069 1.366 . S
C4069 C4068 1.366 . S
C4069 C4070 1.414 . S
C4069 C4072 1.499 . S
C4070 H4050 0.950 . S
C4070 C4069 1.414 . S
C4070 C4071 1.374 . S
C4071 H4051 0.950 . S
C4071 C4067 1.385 . S
C4071 C4070 1.374 . S
C4072 C4069 1.499 . S
C4072 C4073 1.373 . S
C4072 C4074 1.389 . S
C4073 H4052 0.950 . S
C4073 C4072 1.373 . S
C4073 C4089 1.377 . S
C4074 C4072 1.389 . S
C4074 C4075 1.524 . S
C4074 C4088 1.377 . S
C4075 C4074 1.524 . S
C4075 C4076 1.397 . S
C4075 C4080 1.363 . S
C4076 H4053 0.950 . S
C4076 C4075 1.397 . S
C4076 C4077 1.334 . S
C4077 H4054 0.950 . S
C4077 C4076 1.334 . S
C4077 C4078 1.287 . S
C4078 C4077 1.287 . S
C4078 C4079 1.524 . S
C4078 H4097 0.913 . S
C4079 H4055 0.950 . S
C4079 C4078 1.524 . S
C4079 C4080 1.415 . S
C4080 H4056 0.950 . S
C4080 C4075 1.363 . S
C4080 C4079 1.415 . S
C4081 H4057 0.951 . S
C4081 C4082 1.366 . S
C4081 C4083 1.388 . S
C4082 C4081 1.366 . S
C4082 C4086 1.385 . S
C4083 H4058 0.951 . S
C4083 C4081 1.388 . S
C4083 C4084 1.366 . S
C4084 C4083 1.366 . S
C4084 C4085 1.414 . S
C4084 C4087 1.499 . S
C4085 H4059 0.950 . S
C4085 C4084 1.414 . S
C4085 C4086 1.374 . S
C4086 H4060 0.950 . S
C4086 C4082 1.385 . S
C4086 C4085 1.374 . S
C4087 C4084 1.499 . S
C4087 C4088 1.373 . S
C4087 C4089 1.389 . S
C4088 H4061 0.950 . S
C4088 C4074 1.377 . S
C4088 C4087 1.373 . S
C4089 C4073 1.377 . S
C4089 C4087 1.389 . S
C4089 C4090 1.524 . S
C4090 C4089 1.524 . S
C4090 C4091 1.397 . S
C4090 C4095 1.363 . S
C4091 H4062 0.950 . S
C4091 C4090 1.397 . S
C4091 C4092 1.334 . S
C4092 H4063 0.950 . S
C4092 C4091 1.334 . S
C4092 C4093 1.287 . S
C4093 C4092 1.287 . S
C4093 C4094 1.524 . S
C4093 H4096 0.999 . S
C4094 H4064 0.950 . S
C4094 C4093 1.524 . S
C4094 C4095 1.415 . S
C4095 H4065 0.950 . S
C4095 C4090 1.363 . S
C4095 C4094 1.415 . S
H4096 C4093 0.999 . S
H4097 C4078 0.913 . S
H4098 C4116 0.951 . S
H4099 C4118 0.951 . S
H4100 C4120 0.996 . S
H4101 C4121 0.948 . S
H4102 C4123 0.950 . S
H4103 C4126 0.950 . S
H4104 C4127 0.950 . S
H4105 C4129 0.950 . S
H4106 C4130 0.950 . S
H4107 C4131 0.951 . S
H4108 C4133 0.951 . S
H4109 C4135 0.950 . S
H4110 C4136 0.950 . S
H4111 C4138 0.950 . S
H4112 C4141 0.950 . S
H4113 C4142 0.950 . S
H4114 C4144 0.950 . S
H4115 C4145 0.950 . S
C4116 H4098 0.951 . S
C4116 C4117 1.366 . S
C4116 C4118 1.388 . S
C4117 C4116 1.366 . S
C4117 C4121 1.387 1_455 S
C4118 H4099 0.951 . S
C4118 C4116 1.388 . S
C4118 C4119 1.366 . S
C4119 C4118 1.366 . S
C4119 C4120 1.370 1_455 S
C4119 C4122 1.499 . S
C4120 H4100 0.996 . S
C4120 C4119 1.370 1_655 S
C4120 C4121 1.377 . S
C4121 H4101 0.948 . S
C4121 C4117 1.387 1_655 S
C4121 C4120 1.377 . S
C4122 C4119 1.499 . S
C4122 C4123 1.373 . S
C4122 C4124 1.389 . S
C4123 H4102 0.950 . S
C4123 C4122 1.373 . S
C4123 C4139 1.377 . S
C4124 C4122 1.389 . S
C4124 C4125 1.524 . S
C4124 C4138 1.377 . S
C4125 C4124 1.524 . S
C4125 C4126 1.397 1_455 S
C4125 C4130 1.363 . S
C4126 H4103 0.950 . S
C4126 C4125 1.397 1_655 S
C4126 C4127 1.334 . S
C4127 H4104 0.950 . S
C4127 C4126 1.334 . S
C4127 C4128 1.287 1_655 S
C4128 C4127 1.287 1_455 S
C4128 C4129 1.524 . S
C4128 H4147 0.913 . S
C4129 H4105 0.950 . S
C4129 C4128 1.524 . S
C4129 C4130 1.415 . S
C4130 H4106 0.950 . S
C4130 C4125 1.363 . S
C4130 C4129 1.415 . S
C4131 H4107 0.951 . S
C4131 C4132 1.366 1_655 S
C4131 C4133 1.388 . S
C4132 C4131 1.366 1_455 S
C4132 C4136 1.385 . S
C4133 H4108 0.951 . S
C4133 C4131 1.388 . S
C4133 C4134 1.366 1_655 S
C4134 C4133 1.366 1_455 S
C4134 C4135 1.414 . S
C4134 C4137 1.499 . S
C4135 H4109 0.950 . S
C4135 C4134 1.414 . S
C4135 C4136 1.374 . S
C4136 H4110 0.950 . S
C4136 C4132 1.385 . S
C4136 C4135 1.374 . S
C4137 C4134 1.499 . S
C4137 C4138 1.373 . S
C4137 C4139 1.389 . S
C4138 H4111 0.950 . S
C4138 C4124 1.377 . S
C4138 C4137 1.373 . S
C4139 C4123 1.377 . S
C4139 C4137 1.389 . S
C4139 C4140 1.524 . S
C4140 C4139 1.524 . S
C4140 C4141 1.397 . S
C4140 C4145 1.363 1_455 S
C4141 H4112 0.950 . S
C4141 C4140 1.397 . S
C4141 C4142 1.334 . S
C4142 H4113 0.950 . S
C4142 C4141 1.334 . S
C4142 C4143 1.287 . S
C4143 C4142 1.287 . S
C4143 C4144 1.524 1_455 S
C4143 H4146 0.999 . S
C4144 H4114 0.950 . S
C4144 C4143 1.524 1_655 S
C4144 C4145 1.415 . S
C4145 H4115 0.950 . S
C4145 C4140 1.363 1_655 S
C4145 C4144 1.415 . S
H4146 C4143 0.999 . S
H4147 C4128 0.913 . S
H4148 C4166 0.951 . S
H4149 C4168 0.951 . S
H4150 C4170 0.950 . S
H4151 C4171 0.950 . S
H4152 C4173 0.950 . S
H4153 C4176 0.950 . S
H4154 C4177 0.950 . S
H4155 C4179 0.950 . S
H4156 C4180 0.950 . S
H4157 C4181 0.951 . S
H4158 C4183 0.951 . S
H4159 C4185 0.950 . S
H4160 C4186 0.950 . S
H4161 C4188 0.950 . S
H4162 C4191 0.950 . S
H4163 C4192 0.950 . S
H4164 C4194 0.950 . S
H4165 C4195 0.950 . S
C4166 H4148 0.951 . S
C4166 C4167 1.366 . S
C4166 C4168 1.388 . S
C4167 C4166 1.366 . S
C4167 C4171 1.385 . S
C4168 H4149 0.951 . S
C4168 C4166 1.388 . S
C4168 C4169 1.366 . S
C4169 C4168 1.366 . S
C4169 C4170 1.414 . S
C4169 C4172 1.499 . S
C4170 H4150 0.950 . S
C4170 C4169 1.414 . S
C4170 C4171 1.374 . S
C4171 H4151 0.950 . S
C4171 C4167 1.385 . S
C4171 C4170 1.374 . S
C4172 C4169 1.499 . S
C4172 C4173 1.373 . S
C4172 C4174 1.389 . S
C4173 H4152 0.950 . S
C4173 C4172 1.373 . S
C4173 C4189 1.377 . S
C4174 C4172 1.389 . S
C4174 C4175 1.524 . S
C4174 C4188 1.377 . S
C4175 C4174 1.524 . S
C4175 C4176 1.397 . S
C4175 C4180 1.363 . S
C4176 H4153 0.950 . S
C4176 C4175 1.397 . S
C4176 C4177 1.334 . S
C4177 H4154 0.950 . S
C4177 C4176 1.334 . S
C4177 C4178 1.287 . S
C4178 C4177 1.287 . S
C4178 C4179 1.524 . S
C4178 H4197 0.913 . S
C4179 H4155 0.950 . S
C4179 C4178 1.524 . S
C4179 C4180 1.415 . S
C4180 H4156 0.950 . S
C4180 C4175 1.363 . S
C4180 C4179 1.415 . S
C4181 H4157 0.951 . S
C4181 C4182 1.366 . S
C4181 C4183 1.388 . S
C4182 C4181 1.366 . S
C4182 C4186 1.385 . S
C4183 H4158 0.951 . S
C4183 C4181 1.388 . S
C4183 C4184 1.366 . S
C4184 C4183 1.366 . S
C4184 C4185 1.414 . S
C4184 C4187 1.499 . S
C4185 H4159 0.950 . S
C4185 C4184 1.414 . S
C4185 C4186 1.374 . S
C4186 H4160 0.950 . S
C4186 C4182 1.385 . S
C4186 C4185 1.374 . S
C4187 C4184 1.499 . S
C4187 C4188 1.373 . S
C4187 C4189 1.389 . S
C4188 H4161 0.950 . S
C4188 C4174 1.377 . S
C4188 C4187 1.373 . S
C4189 C4173 1.377 . S
C4189 C4187 1.389 . S
C4189 C4190 1.524 . S
C4190 C4189 1.524 . S
C4190 C4191 1.397 . S
C4190 C4195 1.363 . S
C4191 H4162 0.950 . S
C4191 C4190 1.397 . S
C4191 C4192 1.334 . S
C4192 H4163 0.950 . S
C4192 C4191 1.334 . S
C4192 C4193 1.287 . S
C4193 C4192 1.287 . S
C4193 C4194 1.524 . S
C4193 H4196 0.999 . S
C4194 H4164 0.950 . S
C4194 C4193 1.524 . S
C4194 C4195 1.415 . S
C4195 H4165 0.950 . S
C4195 C4190 1.363 . S
C4195 C4194 1.415 . S
H4196 C4193 0.999 . S
H4197 C4178 0.913 . S
H4198 C4216 0.951 . S
H4199 C4218 0.951 . S
H4200 C4220 0.950 . S
H4201 C4221 0.950 . S
H4202 C4223 0.950 . S
H4203 C4226 0.950 . S
H4204 C4227 0.950 . S
H4205 C4229 0.950 . S
H4206 C4230 0.950 . S
H4207 C4231 0.951 . S
H4208 C4233 0.951 . S
H4209 C4235 0.950 . S
H4210 C4236 0.950 . S
H4211 C4238 0.944 1_455 S
H4212 C4241 0.950 . S
H4213 C4242 0.950 . S
H4214 C4244 0.950 . S
H4215 C4245 0.950 . S
C4216 H4198 0.951 . S
C4216 C4217 1.387 . S
C4216 C4218 1.388 . S
C4217 C4216 1.387 . S
C4217 C4221 1.377 1_655 S
C4218 H4199 0.951 . S
C4218 C4216 1.388 . S
C4218 C4219 1.366 . S
C4219 C4218 1.366 . S
C4219 C4220 1.414 1_655 S
C4219 C4222 1.499 . S
C4220 H4200 0.950 . S
C4220 C4219 1.414 1_455 S
C4220 C4221 1.374 . S
C4221 H4201 0.950 . S
C4221 C4217 1.377 1_455 S
C4221 C4220 1.374 . S
C4222 C4219 1.499 . S
C4222 C4223 1.373 . S
C4222 C4224 1.389 1_655 S
C4223 H4202 0.950 . S
C4223 C4222 1.373 . S
C4223 C4239 1.377 . S
C4224 C4222 1.389 1_455 S
C4224 C4225 1.524 . S
C4224 C4238 1.370 1_455 S
C4225 C4224 1.524 . S
C4225 C4226 1.397 . S
C4225 C4230 1.363 . S
C4226 H4203 0.950 . S
C4226 C4225 1.397 . S
C4226 C4227 1.334 . S
C4227 H4204 0.950 . S
C4227 C4226 1.334 . S
C4227 C4228 1.287 . S
C4228 C4227 1.287 . S
C4228 C4229 1.524 . S
C4228 H4247 0.913 . S
C4229 H4205 0.950 . S
C4229 C4228 1.524 . S
C4229 C4230 1.415 . S
C4230 H4206 0.950 . S
C4230 C4225 1.363 . S
C4230 C4229 1.415 . S
C4231 H4207 0.951 . S
C4231 C4232 1.366 . S
C4231 C4233 1.388 . S
C4232 C4231 1.366 . S
C4232 C4236 1.385 . S
C4233 H4208 0.951 . S
C4233 C4231 1.388 . S
C4233 C4234 1.366 . S
C4234 C4233 1.366 . S
C4234 C4235 1.414 . S
C4234 C4237 1.499 . S
C4235 H4209 0.950 . S
C4235 C4234 1.414 . S
C4235 C4236 1.374 . S
C4236 H4210 0.950 . S
C4236 C4232 1.385 . S
C4236 C4235 1.374 . S
C4237 C4234 1.499 . S
C4237 C4238 1.386 . S
C4237 C4239 1.389 . S
C4238 H4211 0.944 1_655 S
C4238 C4224 1.370 1_655 S
C4238 C4237 1.386 . S
C4239 C4223 1.377 . S
C4239 C4237 1.389 . S
C4239 C4240 1.524 . S
C4240 C4239 1.524 . S
C4240 C4241 1.397 . S
C4240 C4245 1.363 . S
C4241 H4212 0.950 . S
C4241 C4240 1.397 . S
C4241 C4242 1.334 . S
C4242 H4213 0.950 . S
C4242 C4241 1.334 . S
C4242 C4243 1.287 . S
C4243 C4242 1.287 . S
C4243 C4244 1.524 . S
C4243 H4246 0.999 . S
C4244 H4214 0.950 . S
C4244 C4243 1.524 . S
C4244 C4245 1.415 . S
C4245 H4215 0.950 . S
C4245 C4240 1.363 . S
C4245 C4244 1.415 . S
H4246 C4243 0.999 . S
H4247 C4228 0.913 . S
H4248 C4266 0.951 . S
H4249 C4268 0.951 . S
H4250 C4270 0.950 . S
H4251 C4271 0.950 . S
H4252 C4273 0.950 . S
H4253 C4276 0.950 . S
H4254 C4277 0.950 . S
H4255 C4279 0.950 . S
H4256 C4280 0.950 . S
H4257 C4281 0.951 . S
H4258 C4283 0.951 . S
H4259 C4285 0.950 . S
H4260 C4286 0.950 . S
H4261 C4288 0.950 . S
H4262 C4291 0.950 . S
H4263 C4292 0.950 . S
H4264 C4294 0.950 . S
H4265 C4295 0.950 . S
C4266 H4248 0.951 . S
C4266 C4267 1.366 . S
C4266 C4268 1.388 . S
C4267 C4266 1.366 . S
C4267 C4271 1.385 . S
C4268 H4249 0.951 . S
C4268 C4266 1.388 . S
C4268 C4269 1.366 . S
C4269 C4268 1.366 . S
C4269 C4270 1.414 . S
C4269 C4272 1.499 . S
C4270 H4250 0.950 . S
C4270 C4269 1.414 . S
C4270 C4271 1.374 . S
C4271 H4251 0.950 . S
C4271 C4267 1.385 . S
C4271 C4270 1.374 . S
C4272 C4269 1.499 . S
C4272 C4273 1.373 . S
C4272 C4274 1.389 . S
C4273 H4252 0.950 . S
C4273 C4272 1.373 . S
C4273 C4289 1.377 . S
C4274 C4272 1.389 . S
C4274 C4275 1.524 . S
C4274 C4288 1.377 . S
C4275 C4274 1.524 . S
C4275 C4276 1.397 . S
C4275 C4280 1.363 . S
C4276 H4253 0.950 . S
C4276 C4275 1.397 . S
C4276 C4277 1.334 . S
C4277 H4254 0.950 . S
C4277 C4276 1.334 . S
C4277 C4278 1.287 . S
C4278 C4277 1.287 . S
C4278 C4279 1.524 . S
C4278 H4297 0.913 . S
C4279 H4255 0.950 . S
C4279 C4278 1.524 . S
C4279 C4280 1.415 . S
C4280 H4256 0.950 . S
C4280 C4275 1.363 . S
C4280 C4279 1.415 . S
C4281 H4257 0.951 . S
C4281 C4282 1.366 . S
C4281 C4283 1.388 . S
C4282 C4281 1.366 . S
C4282 C4286 1.385 . S
C4283 H4258 0.951 . S
C4283 C4281 1.388 . S
C4283 C4284 1.366 . S
C4284 C4283 1.366 . S
C4284 C4285 1.414 . S
C4284 C4287 1.499 . S
C4285 H4259 0.950 . S
C4285 C4284 1.414 . S
C4285 C4286 1.374 . S
C4286 H4260 0.950 . S
C4286 C4282 1.385 . S
C4286 C4285 1.374 . S
C4287 C4284 1.499 . S
C4287 C4288 1.373 . S
C4287 C4289 1.389 . S
C4288 H4261 0.950 . S
C4288 C4274 1.377 . S
C4288 C4287 1.373 . S
C4289 C4273 1.377 . S
C4289 C4287 1.389 . S
C4289 C4290 1.524 . S
C4290 C4289 1.524 . S
C4290 C4291 1.397 . S
C4290 C4295 1.363 . S
C4291 H4262 0.950 . S
C4291 C4290 1.397 . S
C4291 C4292 1.334 . S
C4292 H4263 0.950 . S
C4292 C4291 1.334 . S
C4292 C4293 1.287 . S
C4293 C4292 1.287 . S
C4293 C4294 1.524 . S
C4293 H4296 0.999 . S
C4294 H4264 0.950 . S
C4294 C4293 1.524 . S
C4294 C4295 1.415 . S
C4295 H4265 0.950 . S
C4295 C4290 1.363 . S
C4295 C4294 1.415 . S
H4296 C4293 0.999 . S
H4297 C4278 0.913 . S
H4298 C4316 0.951 . S
H4299 C4318 0.951 . S
H4300 C4320 0.950 . S
H4301 C4321 0.950 . S
H4302 C4323 0.950 . S
H4303 C4326 0.950 . S
H4304 C4327 0.950 . S
H4305 C4329 0.950 . S
H4306 C4330 0.950 . S
H4307 C4331 0.951 . S
H4308 C4333 0.951 . S
H4309 C4335 0.950 . S
H4310 C4336 0.950 . S
H4311 C4338 0.950 . S
H4312 C4341 0.950 . S
H4313 C4342 0.950 . S
H4314 C4344 0.950 . S
H4315 C4345 0.950 . S
C4316 H4298 0.951 . S
C4316 C4317 1.366 . S
C4316 C4318 1.388 . S
C4317 C4316 1.366 . S
C4317 C4321 1.385 . S
C4318 H4299 0.951 . S
C4318 C4316 1.388 . S
C4318 C4319 1.366 . S
C4319 C4318 1.366 . S
C4319 C4320 1.414 . S
C4319 C4322 1.499 . S
C4320 H4300 0.950 . S
C4320 C4319 1.414 . S
C4320 C4321 1.374 . S
C4321 H4301 0.950 . S
C4321 C4317 1.385 . S
C4321 C4320 1.374 . S
C4322 C4319 1.499 . S
C4322 C4323 1.373 . S
C4322 C4324 1.389 . S
C4323 H4302 0.950 . S
C4323 C4322 1.373 . S
C4323 C4339 1.377 . S
C4324 C4322 1.389 . S
C4324 C4325 1.524 . S
C4324 C4338 1.377 . S
C4325 C4324 1.524 . S
C4325 C4326 1.397 . S
C4325 C4330 1.363 . S
C4326 H4303 0.950 . S
C4326 C4325 1.397 . S
C4326 C4327 1.334 . S
C4327 H4304 0.950 . S
C4327 C4326 1.334 . S
C4327 C4328 1.287 . S
C4328 C4327 1.287 . S
C4328 C4329 1.524 . S
C4328 H4347 0.913 . S
C4329 H4305 0.950 . S
C4329 C4328 1.524 . S
C4329 C4330 1.415 . S
C4330 H4306 0.950 . S
C4330 C4325 1.363 . S
C4330 C4329 1.415 . S
C4331 H4307 0.951 . S
C4331 C4332 1.366 . S
C4331 C4333 1.388 . S
C4332 C4331 1.366 . S
C4332 C4336 1.385 . S
C4333 H4308 0.951 . S
C4333 C4331 1.388 . S
C4333 C4334 1.366 . S
C4334 C4333 1.366 . S
C4334 C4335 1.414 . S
C4334 C4337 1.499 . S
C4335 H4309 0.950 . S
C4335 C4334 1.414 . S
C4335 C4336 1.374 . S
C4336 H4310 0.950 . S
C4336 C4332 1.385 . S
C4336 C4335 1.374 . S
C4337 C4334 1.499 . S
C4337 C4338 1.373 . S
C4337 C4339 1.389 . S
C4338 H4311 0.950 . S
C4338 C4324 1.377 . S
C4338 C4337 1.373 . S
C4339 C4323 1.377 . S
C4339 C4337 1.389 . S
C4339 C4340 1.524 . S
C4340 C4339 1.524 . S
C4340 C4341 1.397 . S
C4340 C4345 1.363 . S
C4341 H4312 0.950 . S
C4341 C4340 1.397 . S
C4341 C4342 1.334 . S
C4342 H4313 0.950 . S
C4342 C4341 1.334 . S
C4342 C4343 1.287 . S
C4343 C4342 1.287 . S
C4343 C4344 1.524 . S
C4343 H4346 0.999 . S
C4344 H4314 0.950 . S
C4344 C4343 1.524 . S
C4344 C4345 1.415 . S
C4345 H4315 0.950 . S
C4345 C4340 1.363 . S
C4345 C4344 1.415 . S
H4346 C4343 0.999 . S
H4347 C4328 0.913 . S
H4348 C4366 0.951 . S
H4349 C4368 0.960 . S
H4350 C4370 0.950 . S
H4351 C4371 0.950 . S
H4352 C4373 0.950 . S
H4353 C4376 0.950 . S
H4354 C4377 0.950 . S
H4355 C4379 0.950 . S
H4356 C4380 0.950 . S
H4357 C4381 0.951 . S
H4358 C4383 0.951 . S
H4359 C4385 0.950 . S
H4360 C4386 0.950 . S
H4361 C4388 0.950 . S
H4362 C4391 0.950 . S
H4363 C4392 0.950 . S
H4364 C4394 0.950 . S
H4365 C4395 0.950 . S
C4366 H4348 0.951 . S
C4366 C4367 1.360 1_565 S
C4366 C4368 1.401 . S
C4367 C4366 1.360 1_545 S
C4367 C4371 1.405 . S
C4368 H4349 0.960 . S
C4368 C4366 1.401 . S
C4368 C4369 1.348 1_565 S
C4369 C4368 1.348 1_545 S
C4369 C4370 1.414 . S
C4369 C4372 1.499 . S
C4370 H4350 0.950 . S
C4370 C4369 1.414 . S
C4370 C4371 1.374 . S
C4371 H4351 0.950 . S
C4371 C4367 1.405 . S
C4371 C4370 1.374 . S
C4372 C4369 1.499 . S
C4372 C4373 1.373 . S
C4372 C4374 1.389 1_545 S
C4373 H4352 0.950 . S
C4373 C4372 1.373 . S
C4373 C4389 1.377 . S
C4374 C4372 1.389 1_565 S
C4374 C4375 1.524 . S
C4374 C4388 1.377 . S
C4375 C4374 1.524 . S
C4375 C4376 1.397 . S
C4375 C4380 1.363 . S
C4376 H4353 0.950 . S
C4376 C4375 1.397 . S
C4376 C4377 1.334 . S
C4377 H4354 0.950 . S
C4377 C4376 1.334 . S
C4377 C4378 1.287 . S
C4378 C4377 1.287 . S
C4378 C4379 1.524 . S
C4378 H4397 0.913 . S
C4379 H4355 0.950 . S
C4379 C4378 1.524 . S
C4379 C4380 1.415 . S
C4380 H4356 0.950 . S
C4380 C4375 1.363 . S
C4380 C4379 1.415 . S
C4381 H4357 0.951 . S
C4381 C4382 1.366 . S
C4381 C4383 1.388 . S
C4382 C4381 1.366 . S
C4382 C4386 1.385 . S
C4383 H4358 0.951 . S
C4383 C4381 1.388 . S
C4383 C4384 1.366 . S
C4384 C4383 1.366 . S
C4384 C4385 1.414 . S
C4384 C4387 1.499 . S
C4385 H4359 0.950 . S
C4385 C4384 1.414 . S
C4385 C4386 1.374 . S
C4386 H4360 0.950 . S
C4386 C4382 1.385 . S
C4386 C4385 1.374 . S
C4387 C4384 1.499 . S
C4387 C4388 1.373 1_545 S
C4387 C4389 1.389 . S
C4388 H4361 0.950 . S
C4388 C4374 1.377 . S
C4388 C4387 1.373 1_565 S
C4389 C4373 1.377 . S
C4389 C4387 1.389 . S
C4389 C4390 1.524 . S
C4390 C4389 1.524 . S
C4390 C4391 1.397 . S
C4390 C4395 1.363 . S
C4391 H4362 0.950 . S
C4391 C4390 1.397 . S
C4391 C4392 1.334 . S
C4392 H4363 0.950 . S
C4392 C4391 1.334 . S
C4392 C4393 1.287 . S
C4393 C4392 1.287 . S
C4393 C4394 1.524 . S
C4393 H4396 0.999 . S
C4394 H4364 0.950 . S
C4394 C4393 1.524 . S
C4394 C4395 1.415 . S
C4395 H4365 0.950 . S
C4395 C4390 1.363 . S
C4395 C4394 1.415 . S
H4396 C4393 0.999 . S
H4397 C4378 0.913 . S
H4398 C4416 0.951 . S
H4399 C4418 0.951 . S
H4400 C4420 0.950 1_545 S
H4401 C4421 0.950 1_545 S
H4402 C4423 0.950 . S
H4403 C4426 0.950 . S
H4404 C4427 0.950 . S
H4405 C4429 0.950 . S
H4406 C4430 0.950 . S
H4407 C4431 0.951 . S
H4408 C4433 0.951 . S
H4409 C4435 0.950 . S
H4410 C4436 0.950 . S
H4411 C4438 0.950 . S
H4412 C4441 0.950 . S
H4413 C4442 0.950 . S
H4414 C4444 0.950 . S
H4415 C4445 0.950 . S
C4416 H4398 0.951 . S
C4416 C4417 1.366 . S
C4416 C4418 1.388 . S
C4417 C4416 1.366 . S
C4417 C4421 1.385 . S
C4418 H4399 0.951 . S
C4418 C4416 1.388 . S
C4418 C4419 1.366 . S
C4419 C4418 1.366 . S
C4419 C4420 1.414 . S
C4419 C4422 1.499 . S
C4420 H4400 0.950 1_565 S
C4420 C4419 1.414 . S
C4420 C4421 1.374 . S
C4421 H4401 0.950 1_565 S
C4421 C4417 1.385 . S
C4421 C4420 1.374 . S
C4422 C4419 1.499 . S
C4422 C4423 1.373 1_565 S
C4422 C4424 1.389 . S
C4423 H4402 0.950 . S
C4423 C4422 1.373 1_545 S
C4423 C4439 1.377 . S
C4424 C4422 1.389 . S
C4424 C4425 1.524 . S
C4424 C4438 1.377 . S
C4425 C4424 1.524 . S
C4425 C4426 1.397 . S
C4425 C4430 1.363 . S
C4426 H4403 0.950 . S
C4426 C4425 1.397 . S
C4426 C4427 1.334 . S
C4427 H4404 0.950 . S
C4427 C4426 1.334 . S
C4427 C4428 1.287 . S
C4428 C4427 1.287 . S
C4428 C4429 1.524 . S
C4428 H4447 0.913 . S
C4429 H4405 0.950 . S
C4429 C4428 1.524 . S
C4429 C4430 1.415 . S
C4430 H4406 0.950 . S
C4430 C4425 1.363 . S
C4430 C4429 1.415 . S
C4431 H4407 0.951 . S
C4431 C4432 1.366 1_545 S
C4431 C4433 1.388 . S
C4432 C4431 1.366 1_565 S
C4432 C4436 1.385 . S
C4433 H4408 0.951 . S
C4433 C4431 1.388 . S
C4433 C4434 1.366 1_545 S
C4434 C4433 1.366 1_565 S
C4434 C4435 1.414 . S
C4434 C4437 1.499 . S
C4435 H4409 0.950 . S
C4435 C4434 1.414 . S
C4435 C4436 1.374 . S
C4436 H4410 0.950 . S
C4436 C4432 1.385 . S
C4436 C4435 1.374 . S
C4437 C4434 1.499 . S
C4437 C4438 1.373 . S
C4437 C4439 1.389 1_565 S
C4438 H4411 0.950 . S
C4438 C4424 1.377 . S
C4438 C4437 1.373 . S
C4439 C4423 1.377 . S
C4439 C4437 1.389 1_545 S
C4439 C4440 1.524 . S
C4440 C4439 1.524 . S
C4440 C4441 1.397 . S
C4440 C4445 1.363 . S
C4441 H4412 0.950 . S
C4441 C4440 1.397 . S
C4441 C4442 1.334 . S
C4442 H4413 0.950 . S
C4442 C4441 1.334 . S
C4442 C4443 1.287 . S
C4443 C4442 1.287 . S
C4443 C4444 1.524 . S
C4443 H4446 0.999 . S
C4444 H4414 0.950 . S
C4444 C4443 1.524 . S
C4444 C4445 1.415 . S
C4445 H4415 0.950 . S
C4445 C4440 1.363 . S
C4445 C4444 1.415 . S
H4446 C4443 0.999 . S
H4447 C4428 0.913 . S
H4448 C4466 0.951 . S
H4449 C4468 0.951 . S
H4450 C4470 0.950 . S
H4451 C4471 0.950 . S
H4452 C4473 0.950 . S
H4453 C4476 0.950 . S
H4454 C4477 0.950 . S
H4455 C4479 0.950 . S
H4456 C4480 0.950 . S
H4457 C4481 0.951 . S
H4458 C4483 0.951 . S
H4459 C4485 0.950 . S
H4460 C4486 0.950 . S
H4461 C4488 0.950 . S
H4462 C4491 0.950 . S
H4463 C4492 0.950 . S
H4464 C4494 0.950 . S
H4465 C4495 0.950 . S
C4466 H4448 0.951 . S
C4466 C4467 1.366 . S
C4466 C4468 1.388 . S
C4467 C4466 1.366 . S
C4467 C4471 1.385 . S
C4468 H4449 0.951 . S
C4468 C4466 1.388 . S
C4468 C4469 1.366 . S
C4469 C4468 1.366 . S
C4469 C4470 1.414 . S
C4469 C4472 1.499 . S
C4470 H4450 0.950 . S
C4470 C4469 1.414 . S
C4470 C4471 1.374 . S
C4471 H4451 0.950 . S
C4471 C4467 1.385 . S
C4471 C4470 1.374 . S
C4472 C4469 1.499 . S
C4472 C4473 1.373 . S
C4472 C4474 1.389 . S
C4473 H4452 0.950 . S
C4473 C4472 1.373 . S
C4473 C4489 1.377 . S
C4474 C4472 1.389 . S
C4474 C4475 1.524 . S
C4474 C4488 1.377 . S
C4475 C4474 1.524 . S
C4475 C4476 1.397 . S
C4475 C4480 1.363 . S
C4476 H4453 0.950 . S
C4476 C4475 1.397 . S
C4476 C4477 1.334 . S
C4477 H4454 0.950 . S
C4477 C4476 1.334 . S
C4477 C4478 1.287 . S
C4478 C4477 1.287 . S
C4478 C4479 1.524 . S
C4478 H4497 0.913 . S
C4479 H4455 0.950 . S
C4479 C4478 1.524 . S
C4479 C4480 1.415 . S
C4480 H4456 0.950 . S
C4480 C4475 1.363 . S
C4480 C4479 1.415 . S
C4481 H4457 0.951 . S
C4481 C4482 1.366 . S
C4481 C4483 1.388 . S
C4482 C4481 1.366 . S
C4482 C4486 1.385 . S
C4483 H4458 0.951 . S
C4483 C4481 1.388 . S
C4483 C4484 1.366 . S
C4484 C4483 1.366 . S
C4484 C4485 1.414 . S
C4484 C4487 1.499 . S
C4485 H4459 0.950 . S
C4485 C4484 1.414 . S
C4485 C4486 1.374 . S
C4486 H4460 0.950 . S
C4486 C4482 1.385 . S
C4486 C4485 1.374 . S
C4487 C4484 1.499 . S
C4487 C4488 1.373 . S
C4487 C4489 1.389 . S
C4488 H4461 0.950 . S
C4488 C4474 1.377 . S
C4488 C4487 1.373 . S
C4489 C4473 1.377 . S
C4489 C4487 1.389 . S
C4489 C4490 1.524 . S
C4490 C4489 1.524 . S
C4490 C4491 1.397 . S
C4490 C4495 1.363 . S
C4491 H4462 0.950 . S
C4491 C4490 1.397 . S
C4491 C4492 1.334 . S
C4492 H4463 0.950 . S
C4492 C4491 1.334 . S
C4492 C4493 1.287 . S
C4493 C4492 1.287 . S
C4493 C4494 1.524 . S
C4493 H4496 0.999 . S
C4494 H4464 0.950 . S
C4494 C4493 1.524 . S
C4494 C4495 1.415 . S
C4495 H4465 0.950 . S
C4495 C4490 1.363 . S
C4495 C4494 1.415 . S
H4496 C4493 0.999 . S
H4497 C4478 0.913 . S
H4498 C4516 0.951 . S
H4499 C4518 0.951 . S
H4500 C4520 0.950 . S
H4501 C4521 0.950 . S
H4502 C4523 0.950 . S
H4503 C4526 0.950 . S
H4504 C4527 0.950 . S
H4505 C4529 0.950 . S
H4506 C4530 0.950 . S
H4507 C4531 0.951 . S
H4508 C4533 0.951 . S
H4509 C4535 0.950 . S
H4510 C4536 0.950 . S
H4511 C4538 0.924 1_554 S
H4512 C4541 0.950 . S
H4513 C4542 0.950 . S
H4514 C4544 0.950 . S
H4515 C4545 0.950 . S
C4516 H4498 0.951 . S
C4516 C4517 1.366 . S
C4516 C4518 1.388 . S
C4517 C4516 1.366 . S
C4517 C4521 1.385 . S
C4518 H4499 0.951 . S
C4518 C4516 1.388 . S
C4518 C4519 1.366 . S
C4519 C4518 1.366 . S
C4519 C4520 1.414 . S
C4519 C4522 1.499 . S
C4520 H4500 0.950 . S
C4520 C4519 1.414 . S
C4520 C4521 1.374 . S
C4521 H4501 0.950 . S
C4521 C4517 1.385 . S
C4521 C4520 1.374 . S
C4522 C4519 1.499 . S
C4522 C4523 1.373 . S
C4522 C4524 1.403 . S
C4523 H4502 0.950 . S
C4523 C4522 1.373 . S
C4523 C4539 1.377 . S
C4524 C4522 1.403 . S
C4524 C4525 1.506 1_556 S
C4524 C4538 1.373 . S
C4525 C4524 1.506 1_554 S
C4525 C4526 1.397 . S
C4525 C4530 1.363 . S
C4526 H4503 0.950 . S
C4526 C4525 1.397 . S
C4526 C4527 1.334 . S
C4527 H4504 0.950 . S
C4527 C4526 1.334 . S
C4527 C4528 1.287 . S
C4528 C4527 1.287 . S
C4528 C4529 1.524 . S
C4528 H4547 0.913 . S
C4529 H4505 0.950 . S
C4529 C4528 1.524 . S
C4529 C4530 1.415 . S
C4530 H4506 0.950 . S
C4530 C4525 1.363 . S
C4530 C4529 1.415 . S
C4531 H4507 0.951 . S
C4531 C4532 1.366 . S
C4531 C4533 1.388 . S
C4532 C4531 1.366 . S
C4532 C4536 1.385 . S
C4533 H4508 0.951 . S
C4533 C4531 1.388 . S
C4533 C4534 1.366 . S
C4534 C4533 1.366 . S
C4534 C4535 1.414 . S
C4534 C4537 1.499 . S
C4535 H4509 0.950 . S
C4535 C4534 1.414 . S
C4535 C4536 1.374 . S
C4536 H4510 0.950 . S
C4536 C4532 1.385 . S
C4536 C4535 1.374 . S
C4537 C4534 1.499 . S
C4537 C4538 1.410 . S
C4537 C4539 1.389 . S
C4538 H4511 0.924 1_556 S
C4538 C4524 1.373 . S
C4538 C4537 1.410 . S
C4539 C4523 1.377 . S
C4539 C4537 1.389 . S
C4539 C4540 1.524 . S
C4540 C4539 1.524 . S
C4540 C4541 1.397 . S
C4540 C4545 1.363 . S
C4541 H4512 0.950 . S
C4541 C4540 1.397 . S
C4541 C4542 1.334 . S
C4542 H4513 0.950 . S
C4542 C4541 1.334 . S
C4542 C4543 1.287 . S
C4543 C4542 1.287 . S
C4543 C4544 1.524 . S
C4543 H4546 0.999 . S
C4544 H4514 0.950 . S
C4544 C4543 1.524 . S
C4544 C4545 1.415 . S
C4545 H4515 0.950 . S
C4545 C4540 1.363 . S
C4545 C4544 1.415 . S
H4546 C4543 0.999 . S
H4547 C4528 0.913 . S
H4548 C4566 0.951 . S
H4549 C4568 0.951 . S
H4550 C4570 0.950 . S
H4551 C4571 0.950 . S
H4552 C4573 0.950 . S
H4553 C4576 0.950 . S
H4554 C4577 0.950 . S
H4555 C4579 0.950 . S
H4556 C4580 0.950 . S
H4557 C4581 0.951 . S
H4558 C4583 0.951 . S
H4559 C4585 0.950 . S
H4560 C4586 0.950 . S
H4561 C4588 0.950 . S
H4562 C4591 0.950 . S
H4563 C4592 0.950 . S
H4564 C4594 0.950 . S
H4565 C4595 0.950 . S
C4566 H4548 0.951 . S
C4566 C4567 1.366 . S
C4566 C4568 1.388 . S
C4567 C4566 1.366 . S
C4567 C4571 1.385 . S
C4568 H4549 0.951 . S
C4568 C4566 1.388 . S
C4568 C4569 1.366 . S
C4569 C4568 1.366 . S
C4569 C4570 1.414 . S
C4569 C4572 1.499 . S
C4570 H4550 0.950 . S
C4570 C4569 1.414 . S
C4570 C4571 1.374 . S
C4571 H4551 0.950 . S
C4571 C4567 1.385 . S
C4571 C4570 1.374 . S
C4572 C4569 1.499 . S
C4572 C4573 1.373 . S
C4572 C4574 1.389 . S
C4573 H4552 0.950 . S
C4573 C4572 1.373 . S
C4573 C4589 1.377 . S
C4574 C4572 1.389 . S
C4574 C4575 1.524 . S
C4574 C4588 1.377 . S
C4575 C4574 1.524 . S
C4575 C4576 1.397 . S
C4575 C4580 1.363 . S
C4576 H4553 0.950 . S
C4576 C4575 1.397 . S
C4576 C4577 1.334 . S
C4577 H4554 0.950 . S
C4577 C4576 1.334 . S
C4577 C4578 1.287 . S
C4578 C4577 1.287 . S
C4578 C4579 1.524 . S
C4578 H4597 0.913 . S
C4579 H4555 0.950 . S
C4579 C4578 1.524 . S
C4579 C4580 1.415 . S
C4580 H4556 0.950 . S
C4580 C4575 1.363 . S
C4580 C4579 1.415 . S
C4581 H4557 0.951 . S
C4581 C4582 1.366 . S
C4581 C4583 1.388 . S
C4582 C4581 1.366 . S
C4582 C4586 1.385 . S
C4583 H4558 0.951 . S
C4583 C4581 1.388 . S
C4583 C4584 1.366 . S
C4584 C4583 1.366 . S
C4584 C4585 1.414 . S
C4584 C4587 1.499 . S
C4585 H4559 0.950 . S
C4585 C4584 1.414 . S
C4585 C4586 1.374 . S
C4586 H4560 0.950 . S
C4586 C4582 1.385 . S
C4586 C4585 1.374 . S
C4587 C4584 1.499 . S
C4587 C4588 1.373 . S
C4587 C4589 1.389 . S
C4588 H4561 0.950 . S
C4588 C4574 1.377 . S
C4588 C4587 1.373 . S
C4589 C4573 1.377 . S
C4589 C4587 1.389 . S
C4589 C4590 1.524 . S
C4590 C4589 1.524 . S
C4590 C4591 1.397 . S
C4590 C4595 1.363 . S
C4591 H4562 0.950 . S
C4591 C4590 1.397 . S
C4591 C4592 1.334 . S
C4592 H4563 0.950 . S
C4592 C4591 1.334 . S
C4592 C4593 1.287 . S
C4593 C4592 1.287 . S
C4593 C4594 1.524 . S
C4593 H4596 0.999 . S
C4594 H4564 0.950 . S
C4594 C4593 1.524 . S
C4594 C4595 1.415 . S
C4595 H4565 0.950 . S
C4595 C4590 1.363 . S
C4595 C4594 1.415 . S
H4596 C4593 0.999 . S
H4597 C4578 0.913 . S
H4598 C4616 0.951 . S
H4599 C4618 0.951 . S
H4600 C4620 0.950 . S
H4601 C4621 0.950 . S
H4602 C4623 0.950 . S
H4603 C4626 0.950 . S
H4604 C4627 0.950 . S
H4605 C4629 0.950 . S
H4606 C4630 0.950 . S
H4607 C4631 0.951 . S
H4608 C4633 0.951 . S
H4609 C4635 0.950 1_556 S
H4610 C4636 0.963 . S
H4611 C4638 0.950 . S
H4612 C4641 0.950 . S
H4613 C4642 0.950 . S
H4614 C4644 0.950 . S
H4615 C4645 0.950 . S
C4616 H4598 0.951 . S
C4616 C4617 1.346 1_556 S
C4616 C4618 1.388 . S
C4617 C4616 1.346 1_554 S
C4617 C4621 1.419 . S
C4618 H4599 0.951 . S
C4618 C4616 1.388 . S
C4618 C4619 1.366 1_556 S
C4619 C4618 1.366 1_554 S
C4619 C4620 1.414 . S
C4619 C4622 1.499 . S
C4620 H4600 0.950 . S
C4620 C4619 1.414 . S
C4620 C4621 1.374 . S
C4621 H4601 0.950 . S
C4621 C4617 1.419 . S
C4621 C4620 1.374 . S
C4622 C4619 1.499 . S
C4622 C4623 1.373 . S
C4622 C4624 1.389 1_554 S
C4623 H4602 0.950 . S
C4623 C4622 1.373 . S
C4623 C4639 1.377 . S
C4624 C4622 1.389 1_556 S
C4624 C4625 1.524 . S
C4624 C4638 1.377 . S
C4625 C4624 1.524 . S
C4625 C4626 1.397 . S
C4625 C4630 1.363 . S
C4626 H4603 0.950 . S
C4626 C4625 1.397 . S
C4626 C4627 1.334 . S
C4627 H4604 0.950 . S
C4627 C4626 1.334 . S
C4627 C4628 1.287 . S
C4628 C4627 1.287 . S
C4628 C4629 1.524 . S
C4628 H4647 0.913 . S
C4629 H4605 0.950 . S
C4629 C4628 1.524 . S
C4629 C4630 1.415 . S
C4630 H4606 0.950 . S
C4630 C4625 1.363 . S
C4630 C4629 1.415 . S
C4631 H4607 0.951 . S
C4631 C4632 1.366 . S
C4631 C4633 1.388 . S
C4632 C4631 1.366 . S
C4632 C4636 1.385 . S
C4633 H4608 0.951 . S
C4633 C4631 1.388 . S
C4633 C4634 1.366 . S
C4634 C4633 1.366 . S
C4634 C4635 1.414 . S
C4634 C4637 1.499 . S
C4635 H4609 0.950 1_554 S
C4635 C4634 1.414 . S
C4635 C4636 1.374 . S
C4636 H4610 0.963 . S
C4636 C4632 1.385 . S
C4636 C4635 1.374 . S
C4637 C4634 1.499 . S
C4637 C4638 1.373 1_554 S
C4637 C4639 1.389 . S
C4638 H4611 0.950 . S
C4638 C4624 1.377 . S
C4638 C4637 1.373 1_556 S
C4639 C4623 1.377 . S
C4639 C4637 1.389 . S
C4639 C4640 1.524 . S
C4640 C4639 1.524 . S
C4640 C4641 1.397 . S
C4640 C4645 1.363 . S
C4641 H4612 0.950 . S
C4641 C4640 1.397 . S
C4641 C4642 1.334 . S
C4642 H4613 0.950 . S
C4642 C4641 1.334 . S
C4642 C4643 1.287 . S
C4643 C4642 1.287 . S
C4643 C4644 1.524 . S
C4643 H4646 0.999 . S
C4644 H4614 0.950 . S
C4644 C4643 1.524 . S
C4644 C4645 1.415 . S
C4645 H4615 0.950 . S
C4645 C4640 1.363 . S
C4645 C4644 1.415 . S
H4646 C4643 0.999 . S
H4647 C4628 0.913 . S
H4648 C4666 0.951 . S
H4649 C4668 0.951 . S
H4650 C4670 0.950 . S
H4651 C4671 0.950 . S
H4652 C4673 0.950 . S
H4653 C4676 0.950 . S
H4654 C4677 0.950 . S
H4655 C4679 0.950 . S
H4656 C4680 0.950 . S
H4657 C4681 0.951 . S
H4658 C4683 0.951 . S
H4659 C4685 0.950 . S
H4660 C4686 0.950 . S
H4661 C4688 0.950 . S
H4662 C4691 0.950 . S
H4663 C4692 0.950 . S
H4664 C4694 0.950 . S
H4665 C4695 0.950 . S
C4666 H4648 0.951 . S
C4666 C4667 1.366 . S
C4666 C4668 1.388 . S
C4667 C4666 1.366 . S
C4667 C4671 1.385 . S
C4668 H4649 0.951 . S
C4668 C4666 1.388 . S
C4668 C4669 1.366 . S
C4669 C4668 1.366 . S
C4669 C4670 1.414 . S
C4669 C4672 1.499 . S
C4670 H4650 0.950 . S
C4670 C4669 1.414 . S
C4670 C4671 1.374 . S
C4671 H4651 0.950 . S
C4671 C4667 1.385 . S
C4671 C4670 1.374 . S
C4672 C4669 1.499 . S
C4672 C4673 1.373 . S
C4672 C4674 1.389 . S
C4673 H4652 0.950 . S
C4673 C4672 1.373 . S
C4673 C4689 1.377 . S
C4674 C4672 1.389 . S
C4674 C4675 1.524 . S
C4674 C4688 1.377 . S
C4675 C4674 1.524 . S
C4675 C4676 1.397 . S
C4675 C4680 1.363 . S
C4676 H4653 0.950 . S
C4676 C4675 1.397 . S
C4676 C4677 1.334 . S
C4677 H4654 0.950 . S
C4677 C4676 1.334 . S
C4677 C4678 1.287 . S
C4678 C4677 1.287 . S
C4678 C4679 1.524 . S
C4678 H4697 0.913 . S
C4679 H4655 0.950 . S
C4679 C4678 1.524 . S
C4679 C4680 1.415 . S
C4680 H4656 0.950 . S
C4680 C4675 1.363 . S
C4680 C4679 1.415 . S
C4681 H4657 0.951 . S
C4681 C4682 1.366 . S
C4681 C4683 1.388 . S
C4682 C4681 1.366 . S
C4682 C4686 1.385 . S
C4683 H4658 0.951 . S
C4683 C4681 1.388 . S
C4683 C4684 1.366 . S
C4684 C4683 1.366 . S
C4684 C4685 1.414 . S
C4684 C4687 1.499 . S
C4685 H4659 0.950 . S
C4685 C4684 1.414 . S
C4685 C4686 1.374 . S
C4686 H4660 0.950 . S
C4686 C4682 1.385 . S
C4686 C4685 1.374 . S
C4687 C4684 1.499 . S
C4687 C4688 1.373 . S
C4687 C4689 1.389 . S
C4688 H4661 0.950 . S
C4688 C4674 1.377 . S
C4688 C4687 1.373 . S
C4689 C4673 1.377 . S
C4689 C4687 1.389 . S
C4689 C4690 1.524 . S
C4690 C4689 1.524 . S
C4690 C4691 1.397 . S
C4690 C4695 1.363 . S
C4691 H4662 0.950 . S
C4691 C4690 1.397 . S
C4691 C4692 1.334 . S
C4692 H4663 0.950 . S
C4692 C4691 1.334 . S
C4692 C4693 1.287 . S
C4693 C4692 1.287 . S
C4693 C4694 1.524 . S
C4693 H4696 0.999 . S
C4694 H4664 0.950 . S
C4694 C4693 1.524 . S
C4694 C4695 1.415 . S
C4695 H4665 0.950 . S
C4695 C4690 1.363 . S
C4695 C4694 1.415 . S
H4696 C4693 0.999 . S
H4697 C4678 0.913 . S
H4698 C4716 0.951 1_455 S
H4699 C4718 0.914 1_455 S
H4700 C4720 0.950 . S
H4701 C4721 0.950 . S
H4702 C4723 0.950 . S
H4703 C4726 0.950 . S
H4704 C4727 0.950 . S
H4705 C4729 0.950 1_455 S
H4706 C4730 0.950 1_455 S
H4707 C4731 0.951 . S
H4708 C4733 0.951 . S
H4709 C4735 0.950 . S
H4710 C4736 0.950 . S
H4711 C4738 0.950 . S
H4712 C4741 0.950 . S
H4713 C4742 0.950 . S
H4714 C4744 0.950 . S
H4715 C4745 0.950 . S
C4716 H4698 0.951 1_655 S
C4716 C4717 1.366 . S
C4716 C4718 1.386 . S
C4717 C4716 1.366 . S
C4717 C4721 1.385 . S
C4718 H4699 0.914 1_655 S
C4718 C4716 1.386 . S
C4718 C4719 1.406 . S
C4719 C4718 1.406 . S
C4719 C4720 1.414 . S
C4719 C4722 1.499 . S
C4720 H4700 0.950 . S
C4720 C4719 1.414 . S
C4720 C4721 1.374 . S
C4721 H4701 0.950 . S
C4721 C4717 1.385 . S
C4721 C4720 1.374 . S
C4722 C4719 1.499 . S
C4722 C4723 1.373 . S
C4722 C4724 1.389 . S
C4723 H4702 0.950 . S
C4723 C4722 1.373 . S
C4723 C4739 1.377 . S
C4724 C4722 1.389 . S
C4724 C4725 1.524 . S
C4724 C4738 1.377 . S
C4725 C4724 1.524 . S
C4725 C4726 1.397 . S
C4725 C4730 1.363 . S
C4726 H4703 0.950 . S
C4726 C4725 1.397 . S
C4726 C4727 1.334 . S
C4727 H4704 0.950 . S
C4727 C4726 1.334 . S
C4727 C4728 1.287 . S
C4728 C4727 1.287 . S
C4728 C4729 1.524 . S
C4728 H4747 0.913 . S
C4729 H4705 0.950 1_655 S
C4729 C4728 1.524 . S
C4729 C4730 1.415 . S
C4730 H4706 0.950 1_655 S
C4730 C4725 1.363 . S
C4730 C4729 1.415 . S
C4731 H4707 0.951 . S
C4731 C4732 1.366 . S
C4731 C4733 1.388 . S
C4732 C4731 1.366 . S
C4732 C4736 1.385 1_655 S
C4733 H4708 0.951 . S
C4733 C4731 1.388 . S
C4733 C4734 1.366 . S
C4734 C4733 1.366 . S
C4734 C4735 1.414 1_655 S
C4734 C4737 1.499 . S
C4735 H4709 0.950 . S
C4735 C4734 1.414 1_455 S
C4735 C4736 1.374 . S
C4736 H4710 0.950 . S
C4736 C4732 1.385 1_455 S
C4736 C4735 1.374 . S
C4737 C4734 1.499 . S
C4737 C4738 1.373 . S
C4737 C4739 1.389 . S
C4738 H4711 0.950 . S
C4738 C4724 1.377 . S
C4738 C4737 1.373 . S
C4739 C4723 1.377 . S
C4739 C4737 1.389 . S
C4739 C4740 1.524 . S
C4740 C4739 1.524 . S
C4740 C4741 1.397 1_655 S
C4740 C4745 1.363 . S
C4741 H4712 0.950 . S
C4741 C4740 1.397 1_455 S
C4741 C4742 1.334 . S
C4742 H4713 0.950 . S
C4742 C4741 1.334 . S
C4742 C4743 1.297 . S
C4743 C4742 1.297 . S
C4743 C4744 1.513 1_455 S
C4743 H4746 0.999 . S
C4744 H4714 0.950 . S
C4744 C4743 1.513 1_655 S
C4744 C4745 1.415 . S
C4745 H4715 0.950 . S
C4745 C4740 1.363 . S
C4745 C4744 1.415 . S
H4746 C4743 0.999 . S
H4747 C4728 0.913 . S
H4748 C4766 0.951 . S
H4749 C4768 0.951 . S
H4750 C4770 0.950 . S
H4751 C4771 0.950 . S
H4752 C4773 0.950 . S
H4753 C4776 0.950 . S
H4754 C4777 0.950 . S
H4755 C4779 0.950 . S
H4756 C4780 0.950 . S
H4757 C4781 0.951 . S
H4758 C4783 0.951 . S
H4759 C4785 0.950 . S
H4760 C4786 0.950 . S
H4761 C4788 0.950 . S
H4762 C4791 0.950 . S
H4763 C4792 0.950 . S
H4764 C4794 0.950 . S
H4765 C4795 0.950 . S
C4766 H4748 0.951 . S
C4766 C4767 1.366 . S
C4766 C4768 1.388 . S
C4767 C4766 1.366 . S
C4767 C4771 1.385 . S
C4768 H4749 0.951 . S
C4768 C4766 1.388 . S
C4768 C4769 1.366 . S
C4769 C4768 1.366 . S
C4769 C4770 1.414 . S
C4769 C4772 1.499 . S
C4770 H4750 0.950 . S
C4770 C4769 1.414 . S
C4770 C4771 1.374 . S
C4771 H4751 0.950 . S
C4771 C4767 1.385 . S
C4771 C4770 1.374 . S
C4772 C4769 1.499 . S
C4772 C4773 1.373 . S
C4772 C4774 1.389 . S
C4773 H4752 0.950 . S
C4773 C4772 1.373 . S
C4773 C4789 1.377 . S
C4774 C4772 1.389 . S
C4774 C4775 1.524 . S
C4774 C4788 1.377 . S
C4775 C4774 1.524 . S
C4775 C4776 1.397 . S
C4775 C4780 1.363 . S
C4776 H4753 0.950 . S
C4776 C4775 1.397 . S
C4776 C4777 1.334 . S
C4777 H4754 0.950 . S
C4777 C4776 1.334 . S
C4777 C4778 1.287 . S
C4778 C4777 1.287 . S
C4778 C4779 1.524 . S
C4778 H4797 0.913 . S
C4779 H4755 0.950 . S
C4779 C4778 1.524 . S
C4779 C4780 1.415 . S
C4780 H4756 0.950 . S
C4780 C4775 1.363 . S
C4780 C4779 1.415 . S
C4781 H4757 0.951 . S
C4781 C4782 1.366 . S
C4781 C4783 1.388 . S
C4782 C4781 1.366 . S
C4782 C4786 1.385 . S
C4783 H4758 0.951 . S
C4783 C4781 1.388 . S
C4783 C4784 1.366 . S
C4784 C4783 1.366 . S
C4784 C4785 1.414 . S
C4784 C4787 1.499 . S
C4785 H4759 0.950 . S
C4785 C4784 1.414 . S
C4785 C4786 1.374 . S
C4786 H4760 0.950 . S
C4786 C4782 1.385 . S
C4786 C4785 1.374 . S
C4787 C4784 1.499 . S
C4787 C4788 1.373 . S
C4787 C4789 1.389 . S
C4788 H4761 0.950 . S
C4788 C4774 1.377 . S
C4788 C4787 1.373 . S
C4789 C4773 1.377 . S
C4789 C4787 1.389 . S
C4789 C4790 1.524 . S
C4790 C4789 1.524 . S
C4790 C4791 1.397 . S
C4790 C4795 1.363 . S
C4791 H4762 0.950 . S
C4791 C4790 1.397 . S
C4791 C4792 1.334 . S
C4792 H4763 0.950 . S
C4792 C4791 1.334 . S
C4792 C4793 1.287 . S
C4793 C4792 1.287 . S
C4793 C4794 1.524 . S
C4793 H4796 0.999 . S
C4794 H4764 0.950 . S
C4794 C4793 1.524 . S
C4794 C4795 1.415 . S
C4795 H4765 0.950 . S
C4795 C4790 1.363 . S
C4795 C4794 1.415 . S
H4796 C4793 0.999 . S
H4797 C4778 0.913 . S
H4798 C4816 0.951 . S
H4799 C4818 0.951 . S
H4800 C4820 0.950 . S
H4801 C4821 0.950 1_655 S
H4802 C4823 0.950 . S
H4803 C4826 0.950 . S
H4804 C4827 0.950 . S
H4805 C4829 0.950 . S
H4806 C4830 0.950 . S
H4807 C4831 0.951 . S
H4808 C4833 0.951 . S
H4809 C4835 0.950 . S
H4810 C4836 0.950 . S
H4811 C4838 0.950 . S
H4812 C4841 0.950 . S
H4813 C4842 0.950 . S
H4814 C4844 0.950 . S
H4815 C4845 0.950 . S
C4816 H4798 0.951 . S
C4816 C4817 1.380 . S
C4816 C4818 1.388 . S
C4817 C4816 1.380 . S
C4817 C4821 1.385 . S
C4818 H4799 0.951 . S
C4818 C4816 1.388 . S
C4818 C4819 1.366 . S
C4819 C4818 1.366 . S
C4819 C4820 1.414 . S
C4819 C4822 1.499 . S
C4820 H4800 0.950 . S
C4820 C4819 1.414 . S
C4820 C4821 1.374 . S
C4821 H4801 0.950 1_455 S
C4821 C4817 1.385 . S
C4821 C4820 1.374 . S
C4822 C4819 1.499 . S
C4822 C4823 1.373 1_455 S
C4822 C4824 1.389 . S
C4823 H4802 0.950 . S
C4823 C4822 1.373 1_655 S
C4823 C4839 1.377 . S
C4824 C4822 1.389 . S
C4824 C4825 1.524 . S
C4824 C4838 1.377 . S
C4825 C4824 1.524 . S
C4825 C4826 1.397 . S
C4825 C4830 1.363 . S
C4826 H4803 0.950 . S
C4826 C4825 1.397 . S
C4826 C4827 1.334 . S
C4827 H4804 0.950 . S
C4827 C4826 1.334 . S
C4827 C4828 1.287 . S
C4828 C4827 1.287 . S
C4828 C4829 1.524 . S
C4828 H4847 0.913 . S
C4829 H4805 0.950 . S
C4829 C4828 1.524 . S
C4829 C4830 1.415 . S
C4830 H4806 0.950 . S
C4830 C4825 1.363 . S
C4830 C4829 1.415 . S
C4831 H4807 0.951 . S
C4831 C4832 1.366 . S
C4831 C4833 1.388 . S
C4832 C4831 1.366 . S
C4832 C4836 1.385 . S
C4833 H4808 0.951 . S
C4833 C4831 1.388 . S
C4833 C4834 1.366 . S
C4834 C4833 1.366 . S
C4834 C4835 1.414 . S
C4834 C4837 1.499 . S
C4835 H4809 0.950 . S
C4835 C4834 1.414 . S
C4835 C4836 1.374 . S
C4836 H4810 0.950 . S
C4836 C4832 1.385 . S
C4836 C4835 1.374 . S
C4837 C4834 1.499 . S
C4837 C4838 1.373 . S
C4837 C4839 1.389 1_455 S
C4838 H4811 0.950 . S
C4838 C4824 1.377 . S
C4838 C4837 1.373 . S
C4839 C4823 1.377 . S
C4839 C4837 1.389 1_655 S
C4839 C4840 1.524 . S
C4840 C4839 1.524 . S
C4840 C4841 1.397 . S
C4840 C4845 1.363 . S
C4841 H4812 0.950 . S
C4841 C4840 1.397 . S
C4841 C4842 1.334 . S
C4842 H4813 0.950 . S
C4842 C4841 1.334 . S
C4842 C4843 1.287 . S
C4843 C4842 1.287 . S
C4843 C4844 1.524 . S
C4843 H4846 0.999 . S
C4844 H4814 0.950 . S
C4844 C4843 1.524 . S
C4844 C4845 1.415 . S
C4845 H4815 0.950 . S
C4845 C4840 1.363 . S
C4845 C4844 1.415 . S
H4846 C4843 0.999 . S
H4847 C4828 0.913 . S
C1282 C1242 1.791 . S
C1267 C15 1.857 . S
C1332 C1206 1.356 . S
C1317 C55 1.330 . S
C1382 C1230 0.646 . S
C1367 C95 0.577 1_545 S
C1432 C1218 1.410 . S
C1417 C135 1.420 . S
C1482 C1134 1.790 . S
C1467 C175 1.856 . S
C1517 C215 1.421 . S
C1532 C1146 1.410 . S
C1582 C1110 1.355 . S
C1567 C255 1.329 . S
C1617 C295 0.577 1_554 S
C1632 C1122 0.643 . S
C1682 C1194 1.791 . S
C1667 C335 1.856 . S
C1717 C375 1.421 . S
C1732 C1170 1.410 . S
C1767 C415 1.330 . S
C1782 C1158 1.356 . S
C1832 C1182 0.646 . S
C1817 C455 0.578 1_455 S
C1882 C1098 1.782 . S
C1867 C495 1.855 . S
C1917 C535 1.324 . S
C1932 C1062 1.354 . S
C1982 C1086 0.642 . S
C1967 C575 0.577 . S
C2017 C615 1.420 . S
C2032 C1074 1.388 . S
C2082 C990 1.782 . S
C2067 C655 1.854 . S
C2132 C1002 1.389 . S
C2117 C695 1.420 . S
C2167 C735 1.323 . S
C2182 C966 1.354 . S
C2217 C775 0.577 . S
C2232 C978 0.642 . S
C2267 C815 1.847 . S
C2282 C1050 1.790 . S
C2317 C855 1.420 . S
C2332 C1026 1.389 . S
C2382 C1014 1.355 . S
C2367 C895 1.323 . S
C2417 C935 0.578 . S
C2432 C1038 0.643 . S
C2482 C969 1.675 . S
C2467 C21 1.711 . S
C2532 C981 1.609 . S
C2517 C61 1.671 . S
C2567 C101 0.654 1_545 S
C2582 C993 0.652 . S
C2617 C141 0.784 . S
C2632 C1005 0.774 . S
C2682 C1017 1.676 . S
C2667 C181 1.712 . S
C2717 C221 0.784 . S
C2732 C1029 0.774 . S
C2782 C1041 1.609 . S
C2767 C261 1.671 . S
C2832 C1053 0.652 . S
C2817 C301 0.654 1_554 S
C2882 C1065 1.676 . S
C2867 C341 1.712 . S
C2917 C381 0.784 . S
C2932 C1077 0.774 . S
C2967 C421 1.675 . S
C2982 C1089 1.605 . S
C3017 C461 0.654 1_455 S
C3032 C1101 0.652 . S
C3067 C501 1.675 . S
C3082 C1113 1.675 . S
C3117 C541 1.559 . S
C3132 C1125 1.611 . S
C3167 C581 0.654 . S
C3182 C1137 0.651 . S
C3217 C621 0.781 . S
C3232 C1149 0.775 . S
C3267 C661 1.676 . S
C3282 C1161 1.675 . S
C3332 C1173 0.782 . S
C3317 C701 0.775 . S
C3382 C1185 1.616 . S
C3367 C741 1.554 . S
C3432 C1197 0.651 . S
C3417 C781 0.654 . S
C3482 C1209 1.675 . S
C3467 C821 1.676 . S
C3517 C861 0.782 . S
C3532 C1221 0.776 . S
C3567 C901 1.560 . S
C3582 C1233 1.611 . S
C3617 C941 0.653 . S
C3632 C1245 0.651 . S
C3667 C2 1.670 . S
C3682 C1060 1.640 . S
C3732 C1096 1.742 . S
C3717 C42 1.796 . S
C3767 C82 1.512 . S
C3782 C1072 1.466 . S
C3832 C1084 1.470 . S
C3817 C122 1.464 . S
C3867 C162 1.671 . S
C3882 C964 1.641 . S
C3917 C202 1.463 . S
C3932 C976 1.470 . S
C3967 C242 1.804 . S
C3982 C988 1.736 . S
C4017 C282 1.512 . S
C4032 C1000 1.465 . S
C4082 C1012 1.640 . S
C4067 C322 1.670 . S
C4132 C1036 1.470 . S
C4117 C362 1.463 . S
C4167 C402 1.804 . S
C4182 C1048 1.734 . S
C4217 C442 1.511 . S
C4232 C1024 1.464 . S
C4282 C1204 1.642 . S
C4267 C482 1.649 . S
C4332 C1240 1.735 . S
C4317 C522 1.716 . S
C4367 C562 1.515 1_545 S
C4382 C1216 1.455 . S
C4432 C1228 1.476 . S
C4417 C602 1.454 . S
C4467 C642 1.650 . S
C4482 C1108 1.643 . S
C4517 C682 1.454 . S
C4532 C1120 1.475 . S
C4567 C722 1.724 . S
C4582 C1132 1.729 . S
C4632 C1144 1.455 . S
C4617 C762 1.515 1_554 S
C4682 C1156 1.643 . S
C4667 C802 1.649 . S
C4732 C1180 1.475 . S
C4717 C842 1.453 . S
C4767 C882 1.724 . S
C4782 C1192 1.728 . S
C4832 C1168 1.457 . S
C4817 C922 1.516 1_455 S
