# Generated by pormake.
# Topology zzz, (3,6)-cn, num edge types: 1
# Building blocks:
#     Node 0, Type 0, BuildingBlock: BETDAH_clean_linker_0, # of connection points: 3
#     Node 1, Type 0, BuildingBlock: BETDAH_clean_linker_0, # of connection points: 3
#     Node 2, Type 0, BuildingBlock: BETDAH_clean_linker_0, # of connection points: 3
#     Node 3, Type 0, BuildingBlock: BETDAH_clean_linker_0, # of connection points: 3
#     Node 4, Type 0, BuildingBlock: BETDAH_clean_linker_0, # of connection points: 3
#     Node 5, Type 0, BuildingBlock: BETDAH_clean_linker_0, # of connection points: 3
#     Node 6, Type 0, BuildingBlock: BETDAH_clean_linker_0, # of connection points: 3
#     Node 7, Type 0, BuildingBlock: BETDAH_clean_linker_0, # of connection points: 3
#     Node 8, Type 1, BuildingBlock: CUWYAW_clean_sbu_0, # of connection points: 6
#     Node 9, Type 1, BuildingBlock: CUWYAW_clean_sbu_0, # of connection points: 6
#     Node 10, Type 1, BuildingBlock: CUWYAW_clean_sbu_0, # of connection points: 6
#     Node 11, Type 1, BuildingBlock: CUWYAW_clean_sbu_0, # of connection points: 6
#     Edge 12, Type (0, 1), BuildingBlock: UVAHIK_clean_linker_0, # of connection points: 2
#     Edge 13, Type (0, 1), BuildingBlock: UVAHIK_clean_linker_0, # of connection points: 2
#     Edge 14, Type (0, 1), BuildingBlock: UVAHIK_clean_linker_0, # of connection points: 2
#     Edge 15, Type (0, 1), BuildingBlock: UVAHIK_clean_linker_0, # of connection points: 2
#     Edge 16, Type (0, 1), BuildingBlock: UVAHIK_clean_linker_0, # of connection points: 2
#     Edge 17, Type (0, 1), BuildingBlock: UVAHIK_clean_linker_0, # of connection points: 2
#     Edge 18, Type (0, 1), BuildingBlock: UVAHIK_clean_linker_0, # of connection points: 2
#     Edge 19, Type (0, 1), BuildingBlock: UVAHIK_clean_linker_0, # of connection points: 2
#     Edge 20, Type (0, 1), BuildingBlock: UVAHIK_clean_linker_0, # of connection points: 2
#     Edge 21, Type (0, 1), BuildingBlock: UVAHIK_clean_linker_0, # of connection points: 2
#     Edge 22, Type (0, 1), BuildingBlock: UVAHIK_clean_linker_0, # of connection points: 2
#     Edge 23, Type (0, 1), BuildingBlock: UVAHIK_clean_linker_0, # of connection points: 2
#     Edge 24, Type (0, 1), BuildingBlock: UVAHIK_clean_linker_0, # of connection points: 2
#     Edge 25, Type (0, 1), BuildingBlock: UVAHIK_clean_linker_0, # of connection points: 2
#     Edge 26, Type (0, 1), BuildingBlock: UVAHIK_clean_linker_0, # of connection points: 2
#     Edge 27, Type (0, 1), BuildingBlock: UVAHIK_clean_linker_0, # of connection points: 2
#     Edge 28, Type (0, 1), BuildingBlock: UVAHIK_clean_linker_0, # of connection points: 2
#     Edge 29, Type (0, 1), BuildingBlock: UVAHIK_clean_linker_0, # of connection points: 2
#     Edge 30, Type (0, 1), BuildingBlock: UVAHIK_clean_linker_0, # of connection points: 2
#     Edge 31, Type (0, 1), BuildingBlock: UVAHIK_clean_linker_0, # of connection points: 2
#     Edge 32, Type (0, 1), BuildingBlock: UVAHIK_clean_linker_0, # of connection points: 2
#     Edge 33, Type (0, 1), BuildingBlock: UVAHIK_clean_linker_0, # of connection points: 2
#     Edge 34, Type (0, 1), BuildingBlock: UVAHIK_clean_linker_0, # of connection points: 2
#     Edge 35, Type (0, 1), BuildingBlock: UVAHIK_clean_linker_0, # of connection points: 2
# Relax obj value: 0.215
# Max RMSD: 0.149
# Mean RMSD: 0.134
data_MOF--net-zzz--node1-CUWYAW_clean_sbu_0--node2-BETDAH_clean_linker_0--edge1-UVAHIK_clean_linker_0
_symmetry_space_group_name_H-M    P1
_symmetry_Int_Tables_number       1
_symmetry_cell_setting            triclinic
loop_
_symmetry_equiv_pos_as_xyz
'x, y, z'
_cell_length_a     67.170493
_cell_length_b     67.217328
_cell_length_c     18.20329
_cell_angle_alpha  89.994047
_cell_angle_beta   89.9319
_cell_angle_gamma 89.941071
loop_
_atom_site_label
_atom_site_type_symbol
_atom_site_fract_x
_atom_site_fract_y
_atom_site_fract_z
_atom_type_partial_charge
H0 H 0.79205 0.49927 0.26437 0.0
H1 H 0.73125 0.51211 0.21149 0.0
H2 H 0.75325 0.52298 0.43074 0.0
C3 C 0.77735 0.50404 0.28174 0.0
C4 C 0.77455 0.51057 0.35413 0.0
C5 C 0.76186 0.50462 0.23022 0.0
C6 C 0.74312 0.51167 0.25165 0.0
C7 C 0.73979 0.51815 0.32429 0.0
C8 C 0.75567 0.5178 0.37507 0.0
N9 N 0.72075 0.52517 0.34726 0.0
C10 C 0.70413 0.52569 0.30133 0.0
H11 H 0.03901 0.78559 0.31409 0.0
H12 H 0.02499 0.73002 0.21141 0.0
H13 H 0.99099 0.75009 0.39894 0.0
C14 C 0.0304 0.77194 0.31379 0.0
C15 C 0.01485 0.76954 0.36431 0.0
C16 C 0.03402 0.75783 0.25877 0.0
C17 C 0.0223 0.74065 0.25503 0.0
C18 C 1.00695 0.73753 0.30669 0.0
C19 C 1.0031 0.7522 0.36039 0.0
N20 N 0.9949 0.72011 0.30506 0.0
C21 C 0.99761 0.70439 0.25594 0.0
H22 H 0.72323 0.0111 0.2618 0.0
H23 H 0.78518 1.00459 0.21136 0.0
H24 H 0.76274 0.98624 0.42348 0.0
C25 C 0.7381 1.00674 0.27874 0.0
C26 C 0.74092 0.99834 0.34835 0.0
C27 C 0.75399 1.00908 0.22972 0.0
C28 C 0.77308 1.00295 0.25027 0.0
C29 C 0.77646 0.99488 0.32066 0.0
C30 C 0.7603 0.99276 0.3698 0.0
N31 N 0.79581 0.98848 0.34251 0.0
C32 C 0.81231 0.9888 0.29579 0.0
H33 H 0.47854 0.73426 0.31689 0.0
H34 H 0.49372 0.79026 0.21964 0.0
H35 H 0.5263 0.76884 0.40831 0.0
C36 C 0.48729 0.74782 0.31825 0.0
C37 C 0.50252 0.74982 0.37019 0.0
C38 C 0.48416 0.76227 0.26407 0.0
C39 C 0.49605 0.77936 0.26262 0.0
C40 C 0.51107 0.78205 0.31577 0.0
C41 C 0.51444 0.76705 0.36859 0.0
N42 N 0.52326 0.79938 0.31659 0.0
C43 C 0.52083 0.81544 0.26892 0.0
H44 H 0.23407 0.54265 0.09911 0.0
H45 H 0.28964 0.52835 0.20139 0.0
H46 H 0.26936 0.49439 0.01446 0.0
C47 C 0.24768 0.53395 0.0994 0.0
C48 C 0.25001 0.51838 0.04899 0.0
C49 C 0.26183 0.5375 0.15425 0.0
C50 C 0.27898 0.52568 0.15797 0.0
C51 C 0.28202 0.51029 0.10649 0.0
C52 C 0.2673 0.50652 0.05292 0.0
N53 N 0.29941 0.49814 0.10814 0.0
C54 C 0.31513 0.50072 0.15731 0.0
H55 H 0.04977 0.22663 0.10892 0.0
H56 H 0.0368 0.2848 0.1919 0.0
H57 H 0.01315 0.26633 0.98234 0.0
C58 C 0.04329 0.24126 0.10067 0.0
C59 C 0.03172 0.2448 0.03809 0.0
C60 C 0.04493 0.25554 0.15637 0.0
C61 C 0.03567 0.27405 0.14797 0.0
C62 C 0.02453 0.2783 0.08434 0.0
C63 C 0.02229 0.26342 0.03017 0.0
N64 N 0.01492 0.29704 0.07463 0.0
C65 C 0.01626 0.31284 0.12424 0.0
H66 H 0.2869 0.99628 0.14901 0.0
H67 H 0.22632 1.00302 0.21712 0.0
H68 H 0.24379 0.01958 0.9968 0.0
C69 C 0.27172 1.0006 0.13613 0.0
C70 C 0.26717 1.00772 0.06585 0.0
C71 C 0.25706 0.99912 0.19043 0.0
C72 C 0.23746 1.00451 0.17461 0.0
C73 C 0.23248 0.01216 0.1049 0.0
C74 C 0.24749 0.01383 0.05069 0.0
N75 N 0.21265 0.01829 0.08833 0.0
C76 C 0.19692 0.01746 0.13858 0.0
H77 H 0.50659 0.29357 0.16821 0.0
H78 H 0.49954 0.23164 0.21616 0.0
H79 H 0.49306 0.25284 0.99304 0.0
C80 C 0.50351 0.27858 0.14923 0.0
C81 C 0.50012 0.27518 0.07444 0.0
C82 C 0.50317 0.26298 0.20004 0.0
C83 C 0.49953 0.24357 0.17618 0.0
C84 C 0.49565 0.23975 0.10135 0.0
C85 C 0.49584 0.25569 0.05071 0.0
N86 N 0.49165 0.22011 0.07585 0.0
C87 C 0.4911 0.20352 0.12194 0.0
C88 C 0.98791 0.03234 0.53094 0.0
Eu89 Eu 0.9949 0.01251 0.64981 0.0
C90 C 0.99815 0.05044 0.50645 0.0
C91 C 0.9882 0.06474 0.46431 0.0
C92 C 0.99728 0.08305 0.44965 0.0
C93 C 0.01632 0.08731 0.47784 0.0
C94 C 0.02636 0.07276 0.51873 0.0
C95 C 0.01738 0.05449 0.53278 0.0
C96 C 0.96962 1.00169 0.75904 0.0
C97 C 0.01144 0.04502 0.77005 0.0
C98 C 0.02142 0.9821 0.92507 0.0
Eu99 Eu 0.01497 0.99823 0.79829 0.0
C100 C 0.03267 0.96408 0.94411 0.0
C101 C 0.04045 0.96151 0.01477 0.0
C102 C 0.05099 0.94417 0.03228 0.0
C103 C 0.05379 0.92909 0.97939 0.0
C104 C 0.04629 0.93205 0.90813 0.0
C105 C 0.03598 0.94942 0.8906 0.0
C106 C 0.04297 1.00179 0.68889 0.0
C107 C 1.00201 0.96584 0.67094 0.0
O108 O 0.99884 0.01617 0.53189 0.0
O109 O 0.9773 0.03455 0.59079 0.0
O110 O 0.96594 0.99896 0.6896 0.0
O111 O 0.98575 0.01106 0.76703 0.0
O112 O 1.00804 0.0406 0.70025 0.0
O113 O 0.01226 0.03112 0.82148 0.0
O114 O 1.00509 0.97905 0.88709 0.0
O115 O 0.03211 0.99692 0.89976 0.0
O116 O 0.04718 0.99649 0.75553 0.0
O117 O 0.02459 1.00483 0.68625 0.0
O118 O 1.00552 0.96953 0.7414 0.0
O119 O 0.99952 0.98021 0.622 0.0
H120 H 0.97325 0.06197 0.4445 0.0
H121 H 0.98919 0.09409 0.41821 0.0
H122 H 0.04112 0.07555 0.5403 0.0
H123 H 0.02527 0.04373 0.56614 0.0
H124 H 0.03829 0.97282 0.0564 0.0
H125 H 0.05684 0.94253 0.08736 0.0
H126 H 0.04782 0.92072 0.86624 0.0
H127 H 0.03035 0.95126 0.83533 0.0
C128 C 0.47824 0.99071 0.49983 0.0
Eu129 Eu 0.49606 0.99851 0.622 0.0
C130 C 0.45969 0.97953 0.49035 0.0
C131 C 0.45275 0.96753 0.54812 0.0
C132 C 0.4336 0.95959 0.54622 0.0
C133 C 0.42097 0.96363 0.48671 0.0
C134 C 0.42828 0.97498 0.42741 0.0
C135 C 0.44751 0.98292 0.42937 0.0
C136 C 0.5008 0.97181 0.73403 0.0
C137 C 0.46319 0.01051 0.74999 0.0
C138 C 0.52921 0.03421 0.87511 0.0
Eu139 Eu 0.50912 0.02127 0.76367 0.0
C140 C 0.55097 0.0344 0.88664 0.0
C141 C 0.56117 0.05261 0.88691 0.0
C142 C 0.58195 0.05305 0.88492 0.0
C143 C 0.59298 0.03526 0.88339 0.0
C144 C 0.58274 0.01703 0.88616 0.0
C145 C 0.56197 0.01659 0.88742 0.0
C146 C 0.49635 0.04399 0.64995 0.0
C147 C 0.54278 1.00557 0.64382 0.0
O148 O 0.47596 1.00763 0.53477 0.0
O149 O 0.49357 0.98039 0.52329 0.0
O150 O 0.4959 0.9669 0.6677 0.0
O151 O 0.50319 0.99035 0.73594 0.0
O152 O 0.46696 1.00625 0.68015 0.0
O153 O 0.47753 0.01474 0.79727 0.0
O154 O 0.52042 0.0168 0.87471 0.0
O155 O 0.52294 0.04582 0.8223 0.0
O156 O 0.49212 0.0476 0.71834 0.0
O157 O 0.50737 0.0288 0.64506 0.0
O158 O 0.53855 0.01206 0.71087 0.0
O159 O 0.52874 1.00094 0.59587 0.0
H160 H 0.46181 0.96501 0.59635 0.0
H161 H 0.42848 0.9508 0.59237 0.0
H162 H 0.41879 0.97863 0.38125 0.0
H163 H 0.4525 0.99244 0.38499 0.0
H164 H 0.55303 0.06653 0.88561 0.0
H165 H 0.58932 0.06735 0.88228 0.0
H166 H 0.59076 1.00305 0.88679 0.0
H167 H 0.55459 1.00227 0.88677 0.0
C168 C 0.53354 0.48731 0.54763 0.0
Eu169 Eu 0.52103 0.50686 0.66181 0.0
C170 C 0.535 0.46579 0.53363 0.0
C171 C 0.55298 0.45768 0.50806 0.0
C172 C 0.55564 0.43705 0.50565 0.0
C173 C 0.5404 0.42426 0.52941 0.0
C174 C 0.52218 0.43242 0.55237 0.0
C175 C 0.51949 0.45298 0.55448 0.0
C176 C 0.54454 0.51871 0.77466 0.0
C177 C 0.50482 0.47411 0.78318 0.0
C178 C 0.49167 0.53811 0.92932 0.0
Eu179 Eu 0.49914 0.52125 0.80444 0.0
C180 C 0.48059 0.55636 0.94661 0.0
C181 C 0.47237 0.55924 0.01648 0.0
C182 C 0.46224 0.57691 0.03283 0.0
C183 C 0.46033 0.59203 0.97958 0.0
C184 C 0.46818 0.58873 0.90896 0.0
C185 C 0.47806 0.57103 0.89256 0.0
C186 C 0.47209 0.51793 0.69255 0.0
C187 C 0.51249 0.55318 0.67666 0.0
O188 O 0.51559 0.49487 0.55234 0.0
O189 O 0.54539 0.49386 0.59907 0.0
O190 O 0.54822 0.52262 0.70611 0.0
O191 O 0.52884 0.50849 0.78047 0.0
O192 O 0.51114 0.47783 0.71548 0.0
O193 O 0.50087 0.4885 0.83061 0.0
O194 O 0.50837 0.54077 0.89306 0.0
O195 O 0.48098 0.52338 0.90347 0.0
O196 O 0.46755 0.52339 0.75869 0.0
O197 O 0.49048 0.51451 0.69057 0.0
O198 O 0.50909 0.54973 0.74733 0.0
O199 O 0.51505 0.53857 0.62881 0.0
H200 H 0.56519 0.46732 0.49237 0.0
H201 H 0.56981 0.43112 0.48745 0.0
H202 H 0.51004 0.42287 0.5695 0.0
H203 H 0.50549 0.45882 0.5748 0.0
H204 H 0.47393 0.54794 0.05851 0.0
H205 H 0.45608 0.57878 0.08738 0.0
H206 H 0.46731 0.60007 0.86683 0.0
H207 H 0.48404 0.56896 0.83785 0.0
C208 C 0.03777 0.52661 0.48695 0.0
Eu209 Eu 0.02131 0.51949 0.61283 0.0
C210 C 0.05575 0.53799 0.4686 0.0
C211 C 0.05835 0.54597 0.39823 0.0
C212 C 0.07571 0.5565 0.38108 0.0
C213 C 0.09079 0.55908 0.43405 0.0
C214 C 0.08778 0.55143 0.50511 0.0
C215 C 0.07038 0.54114 0.52229 0.0
C216 C 0.01749 0.547 0.72307 0.0
C217 C 0.05365 0.50653 0.74078 0.0
C218 C 0.98665 0.48726 0.87039 0.0
Eu219 Eu 1.0073 0.4982 0.75742 0.0
C220 C 0.96516 0.49009 0.88376 0.0
C221 C 0.95258 0.47343 0.88566 0.0
C222 C 0.93193 0.47582 0.88351 0.0
C223 C 0.92348 0.49492 0.88013 0.0
C224 C 0.93603 0.51161 0.88173 0.0
C225 C 0.95668 0.50923 0.88312 0.0
C226 C 0.01888 0.47419 0.64522 0.0
C227 C 0.9743 0.5142 0.63754 0.0
O228 O 0.04087 0.51017 0.52421 0.0
O229 O 0.02282 0.53712 0.51249 0.0
O230 O 0.02296 0.55134 0.65675 0.0
O231 O 0.01441 0.52859 0.72585 0.0
O232 O 0.05004 0.51012 0.67028 0.0
O233 O 0.03917 0.50366 0.78903 0.0
O234 O 0.99782 0.50325 0.87053 0.0
O235 O 0.99088 0.47526 0.81597 0.0
O236 O 0.02275 0.47063 0.71395 0.0
O237 O 1.00873 0.48993 0.63936 0.0
O238 O 0.97842 0.5092 0.70624 0.0
O239 O 0.98847 0.51705 0.58803 0.0
H240 H 0.04705 0.54393 0.35648 0.0
H241 H 0.07738 0.56247 0.32617 0.0
H242 H 0.09911 0.55281 0.54704 0.0
H243 H 0.06851 0.53534 0.57736 0.0
H244 H 0.95875 0.45853 0.88574 0.0
H245 H 0.92258 0.4627 0.8839 0.0
H246 H 0.92992 0.52651 0.87895 0.0
H247 H 0.96593 0.5224 0.88058 0.0
C248 C 0.18474 0.0157 0.26672 0.0
C249 C 0.18071 0.01642 0.19123 0.0
C250 C 0.16918 0.01414 0.31765 0.0
C251 C 0.11523 0.02278 0.34325 0.0
H252 H 0.12156 0.98594 0.50537 0.0
C253 C 0.05191 1.00687 0.55546 0.0
C254 C 0.05772 1.00407 0.62882 0.0
C255 C 0.06626 1.00841 0.49951 0.0
C256 C 0.11959 0.99651 0.46109 0.0
H257 H 0.15745 0.01651 0.10922 0.0
H258 H 0.13008 0.01396 0.19836 0.0
H259 H 0.14772 0.98881 0.41349 0.0
H260 H 0.08308 1.00095 0.70129 0.0
H261 H 0.10797 1.00399 0.60492 0.0
H262 H 0.08718 0.03071 0.39164 0.0
C263 C 0.14524 0.01456 0.21835 0.0
C264 C 0.13463 0.99812 0.40819 0.0
C265 C 0.16087 0.01594 0.16734 0.0
C266 C 0.07811 1.003 0.64519 0.0
C267 C 0.09241 1.0046 0.58966 0.0
C268 C 0.10019 0.02128 0.39661 0.0
C269 C 0.14922 0.01345 0.2942 0.0
C270 C 0.13275 0.01139 0.34892 0.0
C271 C 0.08674 1.00714 0.51582 0.0
C272 C 0.10225 1.00826 0.45677 0.0
H273 H 0.19991 0.01632 0.28662 0.0
H274 H 0.17278 0.01365 0.37561 0.0
H275 H 0.11336 0.03326 0.29858 0.0
H276 H 0.03632 1.00751 0.54115 0.0
H277 H 0.06127 0.01016 0.44334 0.0
C278 C 0.50025 0.16893 0.15409 0.0
C279 C 0.4906 0.18678 0.17196 0.0
C280 C 0.50009 0.1529 0.20342 0.0
C281 C 0.49265 0.14128 0.40095 0.0
H282 H 0.48692 0.08699 0.33212 0.0
C283 C 0.48275 0.07633 0.60428 0.0
C284 C 0.49345 0.05876 0.59043 0.0
C285 C 0.48152 0.09129 0.55105 0.0
C286 C 0.48873 0.10204 0.35224 0.0
H287 H 0.47311 0.20212 0.25408 0.0
H288 H 0.47257 0.17415 0.34024 0.0
H289 H 0.48664 0.11438 0.24388 0.0
H290 H 0.51069 0.04278 0.50889 0.0
H291 H 0.50868 0.06899 0.41579 0.0
H292 H 0.49484 0.12903 0.50909 0.0
C293 C 0.48051 0.17246 0.2888 0.0
C294 C 0.48858 0.11777 0.30158 0.0
C295 C 0.48068 0.18843 0.23941 0.0
C296 C 0.50233 0.05617 0.52113 0.0
C297 C 0.50111 0.07118 0.46772 0.0
C298 C 0.4928 0.12559 0.45148 0.0
C299 C 0.49029 0.15448 0.27168 0.0
C300 C 0.49048 0.13762 0.32529 0.0
C301 C 0.49098 0.08911 0.48249 0.0
C302 C 0.49078 0.10575 0.42795 0.0
H303 H 0.50806 0.16742 0.10226 0.0
H304 H 0.50797 0.13942 0.18866 0.0
H305 H 0.49456 0.1563 0.42125 0.0
H306 H 0.47562 0.07871 0.65697 0.0
H307 H 0.47323 0.10468 0.56391 0.0
C308 C 0.32864 0.5097 0.27918 0.0
C309 C 0.33176 0.50292 0.20732 0.0
C310 C 0.34471 0.51168 0.32767 0.0
C311 C 0.3967 0.49478 0.35985 0.0
H312 H 0.39786 0.53971 0.49315 0.0
C313 C 0.46288 0.51016 0.5608 0.0
C314 C 0.45745 0.5162 0.63193 0.0
C315 C 0.44847 0.50881 0.50499 0.0
C316 C 0.39772 0.52697 0.45675 0.0
H317 H 0.3538 0.49283 0.12906 0.0
H318 H 0.382 0.4964 0.21343 0.0
H319 H 0.37096 0.53681 0.40439 0.0
H320 H 0.43269 0.52546 0.70041 0.0
H321 H 0.40779 0.523 0.60435 0.0
H322 H 0.42347 0.4849 0.41295 0.0
C323 C 0.3672 0.50003 0.23294 0.0
C324 C 0.38223 0.52529 0.4058 0.0
C325 C 0.35111 0.49809 0.18446 0.0
C326 C 0.43741 0.52083 0.6461 0.0
C327 C 0.42311 0.51955 0.59073 0.0
C328 C 0.41224 0.49646 0.41098 0.0
C329 C 0.36424 0.50689 0.30525 0.0
C330 C 0.38133 0.50904 0.35725 0.0
C331 C 0.42839 0.51362 0.51927 0.0
C332 C 0.41279 0.51244 0.46086 0.0
H333 H 0.31378 0.51338 0.29802 0.0
H334 H 0.34177 0.51671 0.38315 0.0
H335 H 0.39644 0.48197 0.32379 0.0
H336 H 0.4782 0.50656 0.54824 0.0
H337 H 0.45309 0.50429 0.45048 0.0
C338 C 0.02479 0.32736 0.24531 0.0
C339 C 0.01731 0.32967 0.17395 0.0
C340 C 0.02585 0.34368 0.29304 0.0
C341 C 1.00467 0.39383 0.32582 0.0
H342 H 0.05081 0.40035 0.45122 0.0
C343 C 0.01363 0.46265 0.51531 0.0
C344 C 0.02104 0.45911 0.58627 0.0
C345 C 0.0142 0.44767 0.4617 0.0
C346 C 0.03771 0.39868 0.41718 0.0
H347 H 1.00498 0.35059 0.09606 0.0
H348 H 1.00679 0.37922 0.17928 0.0
H349 H 0.04948 0.37259 0.36521 0.0
H350 H 0.03529 0.43725 0.65614 0.0
H351 H 0.0361 0.41112 0.56351 0.0
H352 H 0.99274 0.41973 0.3785 0.0
C353 C 0.01175 0.36483 0.19882 0.0
C354 C 0.03695 0.38273 0.36774 0.0
C355 C 0.0108 0.34849 0.15102 0.0
C356 C 0.0295 0.44047 0.60191 0.0
C357 C 0.03005 0.42549 0.5485 0.0
C358 C 1.00538 0.40976 0.37549 0.0
C359 C 0.01935 0.36265 0.27048 0.0
C360 C 0.02037 0.38 0.32171 0.0
C361 C 0.0222 0.42877 0.47782 0.0
C362 C 0.02186 0.41234 0.42229 0.0
H363 H 0.02976 0.31295 0.26453 0.0
H364 H 0.0315 0.34136 0.34809 0.0
H365 H 0.99155 0.39208 0.29193 0.0
H366 H 1.00707 0.4769 0.50155 0.0
H367 H 1.00831 0.45089 0.40764 0.0
C368 C 0.82645 0.98223 0.17294 0.0
C369 C 0.8289 0.98916 0.24493 0.0
C370 C 0.84236 0.98274 0.12316 0.0
C371 C 0.89091 1.00742 0.0887 0.0
H372 H 0.89866 0.96387 0.95195 0.0
C373 C 0.95865 1.00453 0.89069 0.0
C374 C 0.95483 0.99837 0.81831 0.0
C375 C 0.94407 1.00251 0.9454 0.0
C376 C 0.89663 0.97626 0.98925 0.0
H377 H 0.84962 1.00203 0.32223 0.0
H378 H 0.8776 1.00283 0.23564 0.0
H379 H 0.87175 0.96226 0.04169 0.0
H380 H 0.93289 0.98489 0.74685 0.0
H381 H 0.90745 0.9815 0.84166 0.0
H382 H 0.91568 0.0215 0.03582 0.0
C383 C 0.8634 0.99717 0.217 0.0
C384 C 0.88116 0.97534 0.04081 0.0
C385 C 0.84745 0.99662 0.26675 0.0
C386 C 0.9363 0.98975 0.80215 0.0
C387 C 0.92174 0.98772 0.85673 0.0
C388 C 0.90639 1.00835 0.03708 0.0
C389 C 0.86108 0.99023 0.14444 0.0
C390 C 0.87798 0.99096 0.09094 0.0
C391 C 0.92533 0.99424 0.92901 0.0
C392 C 0.90938 0.99284 0.98625 0.0
H393 H 0.81217 0.97652 0.15499 0.0
H394 H 0.8399 0.97755 0.0676 0.0
H395 H 0.88879 0.01986 0.12568 0.0
H396 H 0.97282 0.01118 0.90487 0.0
H397 H 0.94749 1.00744 1.00059 0.0
C398 C 0.49962 0.84025 0.20643 0.0
C399 C 0.51854 0.83233 0.2203 0.0
C400 C 0.49739 0.85657 0.15923 0.0
C401 C 0.52543 0.89794 0.07 0.0
H402 H 0.48128 0.8973 0.93317 0.0
C403 C 0.50848 0.96315 0.86629 0.0
C404 C 0.5031 0.95735 0.7949 0.0
C405 C 0.51018 0.9489 0.92254 0.0
C406 C 0.49375 0.89771 0.97084 0.0
H407 H 0.54999 0.835 0.197 0.0
H408 H 0.5462 0.86335 0.11357 0.0
H409 H 0.48483 0.87049 0.02193 0.0
H410 H 0.49547 0.93212 0.72631 0.0
H411 H 0.49854 0.90751 0.82317 0.0
H412 H 0.53462 0.92495 0.01697 0.0
C413 C 0.53305 0.85727 0.13968 0.0
C414 C 0.49565 0.88242 0.02244 0.0
C415 C 0.53524 0.84095 0.18692 0.0
C416 C 0.49956 0.93712 0.78082 0.0
C417 C 0.50118 0.92298 0.83662 0.0
C418 C 0.5235 0.9133 0.0183 0.0
C419 C 0.51407 0.86527 0.12492 0.0
C420 C 0.51163 0.88218 0.07228 0.0
C421 C 0.50638 0.92863 0.90839 0.0
C422 C 0.50777 0.91323 0.96733 0.0
H423 H 0.48655 0.83381 0.23203 0.0
H424 H 0.48259 0.86244 0.15002 0.0
H425 H 0.53779 0.8984 0.10812 0.0
H426 H 0.51125 0.97863 0.87874 0.0
H427 H 0.51413 0.95379 0.9773 0.0
C428 C 0.66898 0.51775 0.27363 0.0
C429 C 0.68722 0.52601 0.25207 0.0
C430 C 0.65271 0.51782 0.22543 0.0
C431 C 0.63327 0.5426 0.05743 0.0
H432 H 0.59987 0.49576 0.043 0.0
C433 C 0.57739 0.53123 0.81965 0.0
C434 C 0.55924 0.52166 0.83438 0.0
C435 C 0.59206 0.53275 0.87389 0.0
C436 C 0.60883 0.50909 0.04703 0.0
H437 H 0.70308 0.54072 0.16414 0.0
H438 H 0.67478 0.5408 0.0794 0.0
H439 H 0.62729 0.49632 0.13062 0.0
H440 H 0.54197 0.50665 0.91825 0.0
H441 H 0.56751 0.50948 0.01355 0.0
H442 H 0.61491 0.55533 0.97356 0.0
C443 C 0.6728 0.5345 0.13367 0.0
C444 C 0.62461 0.50941 0.09733 0.0
C445 C 0.68905 0.53438 0.18189 0.0
C446 C 0.55585 0.51406 0.90521 0.0
C447 C 0.57055 0.51556 0.95961 0.0
C448 C 0.61748 0.5423 0.00722 0.0
C449 C 0.6544 0.52619 0.15471 0.0
C450 C 0.63716 0.5261 0.10281 0.0
C451 C 0.58896 0.52474 0.94444 0.0
C452 C 0.60513 0.52548 1.00083 0.0
H453 H 0.6673 0.51123 0.32771 0.0
H454 H 0.63876 0.5115 0.24388 0.0
H455 H 0.64236 0.55586 0.06099 0.0
H456 H 0.58046 0.53721 0.76555 0.0
H457 H 0.60608 0.53969 0.8597 0.0
C458 C 0.0187 0.67918 0.19466 0.0
C459 C 0.99993 0.68774 0.20614 0.0
C460 C 0.0209 0.66295 0.14694 0.0
C461 C 0.99231 0.62283 0.05251 0.0
H462 H 0.03826 0.62141 0.92371 0.0
C463 C 1.00872 0.55655 0.85359 0.0
C464 C 0.0155 0.56177 0.78318 0.0
C465 C 1.00705 0.57103 0.90901 0.0
C466 C 0.02528 0.62158 0.95904 0.0
H467 H 0.96873 0.68632 0.17781 0.0
H468 H 0.97248 0.65816 0.0935 0.0
H469 H 0.03467 0.64844 0.01159 0.0
H470 H 0.02571 0.58626 0.71547 0.0
H471 H 0.02269 0.61133 0.81092 0.0
H472 H 0.98267 0.59621 0.99814 0.0
C473 C 0.98552 0.66366 0.12187 0.0
C474 C 0.02333 0.63701 0.0102 0.0
C475 C 0.98336 0.67988 0.16963 0.0
C476 C 0.02052 0.5817 0.76928 0.0
C477 C 0.01892 0.5961 0.82431 0.0
C478 C 0.99427 0.60735 0.00129 0.0
C479 C 1.00434 0.65497 0.10971 0.0
C480 C 1.00673 0.63799 0.05724 0.0
C481 C 0.01225 0.59101 0.89508 0.0
C482 C 0.01067 0.60666 0.95319 0.0
H483 H 0.03167 0.685 0.22271 0.0
H484 H 0.03557 0.65654 0.13981 0.0
H485 H 0.97945 0.62292 0.08845 0.0
H486 H 1.00472 0.54133 0.86585 0.0
H487 H 1.00195 0.56654 0.96296 0.0
C488 C 0.04005 0.24691 0.2871 0.0
C489 C 0.05314 0.24916 0.22767 0.0
C490 C 0.04441 0.23333 0.34282 0.0
C491 C 0.06938 0.18558 0.33837 0.0
H492 H 0.03955 0.17833 0.51878 0.0
C493 C 0.02582 0.11522 0.39451 0.0
C494 C 0.02572 0.10689 0.46509 0.0
C495 C 0.03497 0.1335 0.38196 0.0
C496 C 0.04831 0.18013 0.46923 0.0
H497 H 0.08237 0.24195 0.18553 0.0
H498 H 0.09058 0.21901 0.285 0.0
H499 H 0.04811 0.21192 0.47814 0.0
H500 H 0.03477 0.11122 0.57834 0.0
H501 H 0.05069 0.14348 0.55626 0.0
H502 H 0.06892 0.15393 0.328 0.0
C503 C 0.07655 0.22696 0.28726 0.0
C504 C 0.05312 0.19937 0.4457 0.0
C505 C 0.072 0.24023 0.2307 0.0
C506 C 0.03482 0.11727 0.52317 0.0
C507 C 0.04383 0.13571 0.51072 0.0
C508 C 0.06465 0.16646 0.36198 0.0
C509 C 0.06204 0.22199 0.34003 0.0
C510 C 0.06273 0.20235 0.37779 0.0
C511 C 0.04412 0.14391 0.43981 0.0
C512 C 0.05312 0.16362 0.42535 0.0
H513 H 0.02539 0.25366 0.28576 0.0
H514 H 0.03286 0.23008 0.38252 0.0
H515 H 0.07668 0.18708 0.28563 0.0
H516 H 0.01901 0.10748 0.34879 0.0
H517 H 0.03462 0.13965 0.32696 0.0
C518 C 0.27617 1.00398 0.30483 0.0
C519 C 0.26292 0.99235 0.26408 0.0
C520 C 0.28611 0.99587 0.3648 0.0
C521 C 0.30746 0.97633 0.48897 0.0
H522 H 0.33232 0.92889 0.40975 0.0
C523 C 0.38856 0.96017 0.55411 0.0
C524 C 0.39973 0.95765 0.4893 0.0
C525 C 0.36793 0.95751 0.55369 0.0
C526 C 0.32544 0.94201 0.43333 0.0
H527 H 0.24808 0.96389 0.25673 0.0
H528 H 0.26555 0.94946 0.36249 0.0
H529 H 0.30002 0.93926 0.36408 0.0
H530 H 0.39831 0.94873 0.37511 0.0
H531 H 0.36242 0.94479 0.37334 0.0
H532 H 0.33389 0.98036 0.55191 0.0
C533 C 0.26834 0.96484 0.34801 0.0
C534 C 0.30673 0.94783 0.4079 0.0
C535 C 0.25828 0.97306 0.2879 0.0
C536 C 0.39006 0.9511 0.42553 0.0
C537 C 0.36947 0.94852 0.42501 0.0
C538 C 0.32629 0.97066 0.51369 0.0
C539 C 0.28312 0.97585 0.38472 0.0
C540 C 0.29823 0.96587 0.4315 0.0
C541 C 0.35805 0.95237 0.48839 0.0
C542 C 0.33607 0.95422 0.48211 0.0
H543 H 0.27994 0.01889 0.2869 0.0
H544 H 0.29752 1.00478 0.39085 0.0
H545 H 0.30103 0.99001 0.50972 0.0
H546 H 0.39556 0.96533 0.60419 0.0
H547 H 0.35963 0.96041 0.60361 0.0
C548 C 0.5252 0.2621 0.31004 0.0
C549 C 0.50708 0.2676 0.27771 0.0
C550 C 0.53168 0.27167 0.37399 0.0
C551 C 0.51726 0.31151 0.50898 0.0
H552 H 0.56833 0.33361 0.45289 0.0
C553 C 0.53708 0.39102 0.59038 0.0
C554 C 0.54324 0.40243 0.52979 0.0
C555 C 0.5376 0.37026 0.58745 0.0
C556 C 0.55412 0.32754 0.46988 0.0
H557 H 0.48051 0.28547 0.28964 0.0
H558 H 0.49161 0.30219 0.40011 0.0
H559 H 0.55783 0.30204 0.40163 0.0
H560 H 0.55579 0.40119 0.4203 0.0
H561 H 0.55626 0.3651 0.41397 0.0
H562 H 0.5126 0.33808 0.57074 0.0
C563 C 0.50094 0.29052 0.37775 0.0
C564 C 0.5482 0.3092 0.44138 0.0
C565 C 0.49455 0.28104 0.31403 0.0
C566 C 0.55102 0.39275 0.46788 0.0
C567 C 0.55142 0.37202 0.46465 0.0
C568 C 0.52307 0.32998 0.53671 0.0
C569 C 0.52009 0.28684 0.40601 0.0
C570 C 0.5291 0.30166 0.45663 0.0
C571 C 0.54419 0.36049 0.52359 0.0
C572 C 0.541 0.33878 0.51348 0.0
H573 H 0.53508 0.25176 0.28248 0.0
H574 H 0.54638 0.26828 0.39503 0.0
H575 H 0.50268 0.30583 0.5234 0.0
H576 H 0.53142 0.39818 0.63943 0.0
H577 H 0.53224 0.36187 0.63425 0.0
C578 C 0.25007 0.5442 0.28044 0.0
C579 C 0.25654 0.55171 0.21274 0.0
C580 C 0.237 0.5553 0.32391 0.0
C581 C 0.19698 0.58952 0.27847 0.0
H582 H 0.18058 0.57574 0.47613 0.0
C583 C 0.11892 0.56431 0.34564 0.0
C584 C 0.1102 0.56832 0.41425 0.0
C585 C 0.13815 0.57081 0.32986 0.0
C586 C 0.18501 0.58021 0.42134 0.0
H587 H 0.25721 0.57758 0.14226 0.0
H588 H 0.23528 0.59751 0.22004 0.0
H589 H 0.21564 0.5734 0.44215 0.0
H590 H 0.11453 0.58346 0.51842 0.0
H591 H 0.14846 0.59438 0.49118 0.0
H592 H 0.16629 0.59557 0.25689 0.0
C593 C 0.23954 0.5828 0.23851 0.0
C594 C 0.2051 0.57869 0.40163 0.0
C595 C 0.2523 0.57153 0.19437 0.0
C596 C 0.12093 0.57977 0.46551 0.0
C597 C 0.14031 0.58613 0.44991 0.0
C598 C 0.177 0.59116 0.2983 0.0
C599 C 0.23038 0.57416 0.30038 0.0
C600 C 0.21112 0.58212 0.32864 0.0
C601 C 0.14924 0.58139 0.38236 0.0
C602 C 0.17064 0.58534 0.3685 0.0
H603 H 0.25307 0.52887 0.29531 0.0
H604 H 0.23039 0.54806 0.37109 0.0
H605 H 0.20085 0.5923 0.22165 0.0
H606 H 0.11133 0.55525 0.30527 0.0
H607 H 0.14473 0.56655 0.27782 0.0
C608 C 0.04055 0.76966 0.13258 0.0
C609 C 0.04816 0.76323 0.20014 0.0
C610 C 0.05149 0.78284 0.08916 0.0
C611 C 0.08515 0.82319 0.13494 0.0
H612 H 0.07133 0.83948 0.93728 0.0
C613 C 0.0591 0.90101 0.06778 0.0
C614 C 0.06316 0.90976 0.99931 0.0
C615 C 0.06576 0.88184 0.08359 0.0
C616 C 0.07581 0.83509 0.99209 0.0
H617 H 0.07409 0.76277 0.27035 0.0
H618 H 0.09374 0.78494 0.19267 0.0
H619 H 0.06939 0.80441 0.97099 0.0
H620 H 0.07857 0.90556 0.89546 0.0
H621 H 0.08975 0.87173 0.92273 0.0
H622 H 0.09076 0.85392 0.15681 0.0
C623 C 0.07906 0.78054 0.17427 0.0
C624 C 0.07452 0.815 0.01163 0.0
C625 C 0.06796 0.76764 0.21834 0.0
C626 C 0.07483 0.89913 0.94824 0.0
C627 C 0.08134 0.8798 0.96387 0.0
C628 C 0.08653 0.84318 0.11529 0.0
C629 C 0.07028 0.78964 0.11261 0.0
C630 C 0.07799 0.80899 0.08458 0.0
C631 C 0.07655 0.87084 0.03125 0.0
C632 C 0.08071 0.84949 0.04507 0.0
H633 H 0.02524 0.76652 0.11784 0.0
H634 H 0.04415 0.78941 0.04212 0.0
H635 H 0.08793 0.81933 0.19174 0.0
H636 H 0.04989 0.90852 0.108 0.0
H637 H 0.06146 0.87522 0.13551 0.0
C638 C 0.73943 0.03472 0.1476 0.0
C639 C 0.74985 0.01678 0.15544 0.0
C640 C 0.7303 0.03942 0.08118 0.0
C641 C 0.70461 0.01082 0.94524 0.0
H642 H 0.68618 0.06329 0.88873 0.0
C643 C 0.62591 0.04998 0.91876 0.0
C644 C 0.61508 0.03566 0.87936 0.0
C645 C 0.64666 0.0495 0.9195 0.0
C646 C 0.69129 0.04851 0.90308 0.0
H647 H 0.76091 0.9907 0.09877 0.0
H648 H 0.7448 0.99886 0.98188 0.0
H649 H 0.71853 0.05958 0.94837 0.0
H650 H 0.61769 0.01027 0.80628 0.0
H651 H 0.65398 1.00937 0.80803 0.0
H652 H 0.67685 0.99988 0.90552 0.0
C653 C 0.74361 1.00926 0.02714 0.0
C654 C 0.70983 0.04637 0.93695 0.0
C655 C 0.75289 1.00463 0.09375 0.0
C656 C 0.62555 0.02136 0.83807 0.0
C657 C 0.64635 0.02089 0.83873 0.0
C658 C 0.68612 0.01295 0.91138 0.0
C659 C 0.73126 0.02612 0.02158 0.0
C660 C 0.71606 0.02767 0.96278 0.0
C661 C 0.65712 0.03466 0.88092 0.0
C662 C 0.67874 0.03196 0.89432 0.0
H663 H 0.73703 0.04433 0.19459 0.0
H664 H 0.72083 0.05246 0.07928 0.0
H665 H 0.70885 0.99619 0.96459 0.0
H666 H 0.61838 0.06104 0.95196 0.0
H667 H 0.65445 0.06007 0.95391 0.0
C668 C 0.47818 0.7508 0.13716 0.0
C669 C 0.47028 0.75739 0.20414 0.0
C670 C 0.46712 0.73805 0.09246 0.0
C671 C 0.4317 0.69883 0.13393 0.0
H672 H 0.4465 0.68239 0.93729 0.0
C673 C 0.45548 0.62027 0.06761 0.0
C674 C 0.45158 0.61171 0.99872 0.0
C675 C 0.44943 0.63967 0.08305 0.0
C676 C 0.44175 0.68685 0.99174 0.0
H677 H 0.4439 0.75857 0.2721 0.0
H678 H 0.42409 0.73721 0.19211 0.0
H679 H 0.44943 0.71731 0.97212 0.0
H680 H 0.43712 0.61656 0.89355 0.0
H681 H 0.42702 0.65078 0.92022 0.0
H682 H 0.4248 0.66828 0.15439 0.0
C683 C 0.43903 0.74114 0.17514 0.0
C684 C 0.4436 0.70685 0.01195 0.0
C685 C 0.45024 0.75358 0.22053 0.0
C686 C 0.44071 0.62281 0.94671 0.0
C687 C 0.43482 0.64236 0.96199 0.0
C688 C 0.42975 0.67894 0.11359 0.0
C689 C 0.44794 0.73186 0.11402 0.0
C690 C 0.43977 0.71285 0.0847 0.0
C691 C 0.43943 0.65109 0.02993 0.0
C692 C 0.43591 0.67255 0.04382 0.0
H693 H 0.49368 0.75346 0.12387 0.0
H694 H 0.47458 0.73132 0.04593 0.0
H695 H 0.42861 0.70268 0.19053 0.0
H696 H 0.46412 0.61241 0.10856 0.0
H697 H 0.45359 0.64607 0.13543 0.0
C698 C 0.76183 0.51276 0.09599 0.0
C699 C 0.76623 0.49935 0.15289 0.0
C700 C 0.77106 0.51073 0.02745 0.0
C701 C 0.80928 0.47978 0.92712 0.0
H702 H 0.834 0.53129 0.8992 0.0
C703 C 0.89013 0.48538 0.82885 0.0
C704 C 0.9016 0.49742 0.87568 0.0
C705 C 0.86935 0.48677 0.82918 0.0
C706 C 0.82719 0.51679 0.90568 0.0
H707 H 0.78121 0.4718 0.18003 0.0
H708 H 0.79774 0.46853 0.06264 0.0
H709 H 0.80203 0.52923 0.96003 0.0
H710 H 0.90042 0.52083 0.95733 0.0
H711 H 0.86441 0.52299 0.95936 0.0
H712 H 0.83562 0.46725 0.88029 0.0
C713 C 0.78722 0.4806 0.06939 0.0
C714 C 0.80861 0.51559 0.93968 0.0
C715 C 0.77792 0.48257 0.13741 0.0
C716 C 0.89199 0.51146 0.92029 0.0
C717 C 0.87129 0.51279 0.9209 0.0
C718 C 0.82805 0.48097 0.89419 0.0
C719 C 0.78495 0.49537 0.01516 0.0
C720 C 0.8001 0.49695 0.95564 0.0
C721 C 0.85967 0.50018 0.87655 0.0
C722 C 0.83777 0.49941 0.88791 0.0
H723 H 0.75269 0.52576 0.10631 0.0
H724 H 0.76855 0.52208 0.98626 0.0
H725 H 0.80284 0.46522 0.93623 0.0
H726 H 0.89723 0.47471 0.7927 0.0
H727 H 0.86087 0.477 0.79378 0.0
C728 C 0.04463 0.21697 0.95979 0.0
C729 C 0.02833 0.22792 0.9866 0.0
C730 C 0.04183 0.1985 0.92583 0.0
C731 C 1.00706 0.1564 0.929 0.0
H732 H 0.03909 0.1367 0.76719 0.0
C733 C 0.01437 0.07223 0.86491 0.0
C734 C 0.0137 0.06637 0.79076 0.0
C735 C 0.01556 0.0924 0.88406 0.0
C736 C 0.02992 0.14198 0.81214 0.0
H737 H 0.99622 0.22846 0.99607 0.0
H738 H 0.99123 0.19616 0.93622 0.0
H739 H 0.04141 0.17165 0.80325 0.0
H740 H 0.01403 0.07738 0.67863 0.0
H741 H 0.01624 0.11241 0.71204 0.0
H742 H 0.99569 0.12672 0.93839 0.0
C743 C 1.00623 0.20185 0.94178 0.0
C744 C 0.03135 0.16201 0.83311 0.0
C745 C 1.00904 0.22048 0.97512 0.0
C746 C 0.01455 0.08125 0.73631 0.0
C747 C 0.0159 0.1014 0.75546 0.0
C748 C 1.00577 0.13634 0.90847 0.0
C749 C 0.02264 0.19038 0.91852 0.0
C750 C 0.02003 0.16947 0.89215 0.0
C751 C 0.01626 0.10728 0.82961 0.0
C752 C 0.01729 0.1288 0.85015 0.0
H753 H 0.05968 0.22227 0.96844 0.0
H754 H 0.05483 0.19007 0.90914 0.0
H755 H 0.99829 0.16153 0.97525 0.0
H756 H 0.01374 0.06124 0.90838 0.0
H757 H 0.01608 0.09635 0.9417 0.0
C758 C 0.29477 0.99131 0.99649 0.0
C759 C 0.28352 1.00853 0.01066 0.0
C760 C 0.31265 0.99235 0.95724 0.0
C761 C 0.35331 0.02746 0.91698 0.0
H762 H 0.37193 0.98493 0.79041 0.0
C763 C 0.43691 0.01699 0.84639 0.0
C764 C 0.44201 0.01087 0.77489 0.0
C765 C 0.41695 0.01754 0.8691 0.0
C766 C 0.36697 0.99706 0.82504 0.0
H767 H 0.2818 0.04028 0.99243 0.0
H768 H 0.31311 0.04219 0.92281 0.0
H769 H 0.33764 0.98478 0.83442 0.0
H770 H 0.42985 1.00041 0.67135 0.0
H771 H 0.39522 1.00148 0.71076 0.0
H772 H 0.38264 0.03974 0.90762 0.0
C773 C 0.30812 0.02784 0.94261 0.0
C774 C 0.34729 0.99688 0.85085 0.0
C775 C 0.29006 0.02674 0.98157 0.0
C776 C 0.42658 1.00523 0.72686 0.0
C777 C 0.40664 1.00573 0.74963 0.0
C778 C 0.37301 0.02761 0.89135 0.0
C779 C 0.3199 0.0107 0.93145 0.0
C780 C 0.34024 0.01194 0.89797 0.0
C781 C 0.40151 0.01193 0.82106 0.0
C782 C 0.38021 0.01228 0.84573 0.0
H783 H 0.29015 0.9771 0.0188 0.0
H784 H 0.32131 0.97887 0.95059 0.0
H785 H 0.34853 0.03921 0.9537 0.0
H786 H 0.44833 0.0214 0.88501 0.0
H787 H 0.41365 0.0221 0.92486 0.0
C788 C 0.51858 0.30446 0.02521 0.0
C789 C 0.50149 0.29244 0.02356 0.0
C790 C 0.51873 0.32308 0.99112 0.0
C791 C 0.49255 0.35637 0.8601 0.0
H792 H 0.51548 0.39768 0.98231 0.0
C793 C 0.50615 0.43727 0.75758 0.0
C794 C 0.50283 0.45298 0.80723 0.0
C795 C 0.50496 0.41741 0.78049 0.0
C796 C 0.50885 0.3864 0.94762 0.0
H797 H 0.47149 0.29001 0.98143 0.0
H798 H 0.47171 0.32272 0.92107 0.0
H799 H 0.51569 0.36338 0.0246 0.0
H800 H 0.49526 0.45987 0.9203 0.0
H801 H 0.49319 0.42531 0.96023 0.0
H802 H 0.48555 0.3796 0.7834 0.0
C803 C 0.48505 0.31766 0.94866 0.0
C804 C 0.50921 0.36663 0.97146 0.0
C805 C 0.48493 0.29889 0.98289 0.0
C806 C 0.498 0.44824 0.88039 0.0
C807 C 0.49692 0.42837 0.90345 0.0
C808 C 0.49229 0.37621 0.83594 0.0
C809 C 0.50174 0.33027 0.95467 0.0
C810 C 0.50116 0.3513 0.92801 0.0
C811 C 0.50055 0.41267 0.85396 0.0
C812 C 0.50044 0.39151 0.87949 0.0
H813 H 0.53159 0.29981 0.05593 0.0
H814 H 0.53201 0.33213 0.99535 0.0
H815 H 0.48626 0.34496 0.82516 0.0
H816 H 0.50989 0.44029 0.70097 0.0
H817 H 0.50799 0.40576 0.74096 0.0
C818 C 0.22494 0.4951 0.99212 0.0
C819 C 0.23337 0.51418 0.99701 0.0
C820 C 0.20681 0.49219 0.95523 0.0
C821 C 0.17038 0.51691 0.82829 0.0
H822 H 0.13191 0.48344 0.92778 0.0
C823 C 0.09049 0.50636 0.7148 0.0
C824 C 0.07476 0.50556 0.76585 0.0
C825 C 0.11035 0.50573 0.73817 0.0
C826 C 0.1424 0.49297 0.89945 0.0
H827 H 0.23007 0.54488 0.96284 0.0
H828 H 0.19864 0.53995 0.89953 0.0
H829 H 0.16591 0.48526 0.97358 0.0
H830 H 0.06777 0.50344 0.88193 0.0
H831 H 0.1023 0.50276 0.92273 0.0
H832 H 0.1467 0.52534 0.75622 0.0
C833 C 0.20589 0.52712 0.92358 0.0
C834 C 0.16206 0.49376 0.92511 0.0
C835 C 0.22392 0.53 0.96033 0.0
C836 C 0.07945 0.504 0.84092 0.0
C837 C 0.09933 0.50347 0.86434 0.0
C838 C 0.15072 0.51618 0.80285 0.0
C839 C 0.19675 0.50829 0.92213 0.0
C840 C 0.1763 0.50595 0.8905 0.0
C841 C 0.1151 0.50438 0.81334 0.0
C842 C 0.13635 0.50438 0.83853 0.0
H843 H 0.23177 0.48264 0.02022 0.0
H844 H 0.20043 0.47741 0.95424 0.0
H845 H 0.18092 0.52628 0.79948 0.0
H846 H 0.08752 0.50743 0.65647 0.0
H847 H 0.122 0.50614 0.69701 0.0
C848 C 0.02626 0.79571 0.4529 0.0
C849 C 0.01051 0.78614 0.41634 0.0
C850 C 0.02321 0.81371 0.48974 0.0
C851 C 0.98946 0.85726 0.48828 0.0
H852 H 0.02085 0.87289 0.65718 0.0
C853 C 0.99942 0.9399 0.57136 0.0
C854 C 1.0009 0.94471 0.64636 0.0
C855 C 0.9989 0.92 0.5483 0.0
C856 C 0.01174 0.86879 0.61056 0.0
H857 H 0.97893 0.7875 0.39341 0.0
H858 H 0.97341 0.81878 0.45948 0.0
H859 H 0.02208 0.83867 0.61405 0.0
H860 H 1.00262 0.93213 0.75601 0.0
H861 H 1.00136 0.89761 0.71605 0.0
H862 H 0.97893 0.88734 0.48538 0.0
C863 C 0.98826 0.81252 0.45838 0.0
C864 C 0.01263 0.84913 0.58519 0.0
C865 C 0.99134 0.79442 0.42141 0.0
C866 C 1.0016 0.92907 0.69772 0.0
C867 C 1.00099 0.90918 0.6747 0.0
C868 C 0.98851 0.87692 0.51382 0.0
C869 C 1.00428 0.82269 0.49136 0.0
C870 C 1.00175 0.84312 0.52297 0.0
C871 C 0.99975 0.90432 0.59959 0.0
C872 C 0.99986 0.88306 0.57473 0.0
H873 H 0.04121 0.78968 0.45025 0.0
H874 H 0.03598 0.82106 0.51371 0.0
H875 H 0.98101 0.85334 0.43979 0.0
H876 H 0.99894 0.9515 0.53011 0.0
H877 H 0.99826 0.91694 0.48996 0.0
C878 C 0.72118 1.00363 0.46496 0.0
C879 C 0.72307 0.99488 0.39521 0.0
C880 C 0.70284 1.00315 0.50235 0.0
C881 C 0.65285 0.97846 0.50216 0.0
H882 H 0.63444 0.0281 0.58679 0.0
C883 C 0.56946 0.99351 0.55728 0.0
C884 C 0.56408 1.00369 0.62181 0.0
C885 C 0.58949 0.9916 0.53686 0.0
C886 C 0.6394 0.01403 0.5643 0.0
H887 H 0.70766 0.97794 0.31169 0.0
H888 H 0.67597 0.97703 0.37613 0.0
H889 H 0.66862 0.02539 0.54208 0.0
H890 H 0.57575 0.02013 0.71493 0.0
H891 H 0.6106 0.01705 0.67849 0.0
H892 H 0.62356 0.96722 0.52293 0.0
C893 C 0.68846 0.98421 0.4027 0.0
C894 C 0.65907 0.01245 0.53881 0.0
C895 C 0.70664 0.9848 0.36545 0.0
C896 C 0.57929 0.01208 0.66504 0.0
C897 C 0.59932 0.01038 0.64407 0.0
C898 C 0.63321 0.98006 0.5274 0.0
C899 C 0.68611 0.99375 0.47096 0.0
C900 C 0.66596 0.99475 0.50608 0.0
C901 C 0.60472 0.99998 0.58 0.0
C902 C 0.62608 0.99797 0.5576 0.0
H903 H 0.73357 0.01163 0.48891 0.0
H904 H 0.70166 0.01047 0.55518 0.0
H905 H 0.65769 0.96446 0.47874 0.0
H906 H 0.5582 0.98688 0.52253 0.0
H907 H 0.59302 0.98378 0.48647 0.0
C908 C 0.49027 0.72345 0.45645 0.0
C909 C 0.50634 0.73294 0.42145 0.0
C910 C 0.4929 0.70531 0.49273 0.0
C911 C 0.52603 0.66136 0.49192 0.0
H912 H 0.49404 0.64605 0.65999 0.0
C913 C 0.51508 0.57884 0.57597 0.0
C914 C 0.51361 0.57421 0.65115 0.0
C915 C 0.51574 0.59869 0.55234 0.0
C916 C 0.5033 0.65006 0.61358 0.0
H917 H 0.53803 0.73128 0.40053 0.0
H918 H 0.5428 0.69971 0.46555 0.0
H919 H 0.49333 0.6803 0.617 0.0
H920 H 0.51206 0.58704 0.76045 0.0
H921 H 0.51353 0.62144 0.71951 0.0
H922 H 0.53618 0.63114 0.4891 0.0
C923 C 0.52804 0.70617 0.46372 0.0
C924 C 0.50271 0.66973 0.58833 0.0
C925 C 0.52539 0.72442 0.42737 0.0
C926 C 0.51304 0.58997 0.70205 0.0
C927 C 0.51378 0.60978 0.67848 0.0
C928 C 0.52666 0.64168 0.51733 0.0
C929 C 0.51172 0.69612 0.49526 0.0
C930 C 0.51385 0.67562 0.5265 0.0
C931 C 0.51503 0.61446 0.60324 0.0
C932 C 0.51511 0.63567 0.57801 0.0
H933 H 0.47541 0.72968 0.45305 0.0
H934 H 0.47992 0.69804 0.5156 0.0
H935 H 0.53466 0.66522 0.44371 0.0
H936 H 0.51548 0.56713 0.53512 0.0
H937 H 0.5164 0.60164 0.49392 0.0
C938 C 0.80424 0.49333 0.40754 0.0
C939 C 0.792 0.5103 0.40475 0.0
C940 C 0.82286 0.494 0.44154 0.0
C941 C 0.85578 0.52247 0.56651 0.0
H942 H 0.89755 0.49931 0.44638 0.0
C943 C 0.93764 0.51215 0.66638 0.0
C944 C 0.95299 0.51568 0.61518 0.0
C945 C 0.91761 0.51248 0.64484 0.0
C946 C 0.88613 0.50599 0.48048 0.0
H947 H 0.78921 0.54094 0.43987 0.0
H948 H 0.82186 0.54211 0.50031 0.0
H949 H 0.86313 0.49765 0.40546 0.0
H950 H 0.95906 0.52274 0.50109 0.0
H951 H 0.92422 0.52335 0.46361 0.0
H952 H 0.87899 0.53088 0.64142 0.0
C953 C 0.81698 0.52827 0.47588 0.0
C954 C 0.86632 0.50482 0.45743 0.0
C955 C 0.79824 0.52759 0.44155 0.0
C956 C 0.94772 0.51989 0.54208 0.0
C957 C 0.9277 0.52013 0.52046 0.0
C958 C 0.87568 0.52349 0.59001 0.0
C959 C 0.82981 0.51167 0.47388 0.0
C960 C 0.85085 0.51299 0.50006 0.0
C961 C 0.91237 0.51623 0.57134 0.0
C962 C 0.89113 0.51533 0.54705 0.0
H963 H 0.79975 0.4797 0.38043 0.0
H964 H 0.83212 0.4808 0.4405 0.0
H965 H 0.84424 0.52887 0.60076 0.0
H966 H 0.94107 0.50875 0.72306 0.0
H967 H 0.90626 0.50922 0.68542 0.0
loop_
_geom_bond_atom_site_label_1
_geom_bond_atom_site_label_2
_geom_bond_distance
_geom_bond_site_symmetry_2
_ccdc_geom_bond_type
H0 C3 0.929 . S
H1 C6 0.929 . S
H2 C8 0.930 . S
C3 H0 0.929 . S
C3 C4 1.398 . S
C3 C5 1.396 . S
C4 C3 1.398 . S
C4 C8 1.407 . S
C5 C3 1.396 . S
C5 C6 1.394 . S
C6 H1 0.929 . S
C6 C5 1.394 . S
C6 C7 1.382 . S
C7 C6 1.382 . S
C7 C8 1.392 . S
C7 N9 1.420 . S
C8 H2 0.930 . S
C8 C4 1.407 . S
C8 C7 1.392 . S
N9 C7 1.420 . S
N9 C10 1.244 . S
C10 N9 1.244 . S
H11 C14 0.929 . S
H12 C17 0.929 . S
H13 C19 0.930 . S
C14 H11 0.929 . S
C14 C15 1.395 1_655 S
C14 C16 1.395 1_655 S
C15 C14 1.395 1_455 S
C15 C19 1.413 . S
C16 C14 1.395 1_455 S
C16 C17 1.396 . S
C17 H12 0.929 . S
C17 C16 1.396 . S
C17 C18 1.382 . S
C18 C17 1.382 . S
C18 C19 1.392 . S
C18 N20 1.420 . S
C19 H13 0.930 . S
C19 C15 1.413 . S
C19 C18 1.392 . S
N20 C18 1.420 . S
N20 C21 1.232 1_455 S
C21 N20 1.232 1_655 S
H22 C25 0.929 . S
H23 C28 0.929 . S
H24 C30 0.930 . S
C25 H22 0.929 . S
C25 C26 1.395 1_565 S
C25 C27 1.395 1_565 S
C26 C25 1.395 1_545 S
C26 C30 1.413 . S
C27 C25 1.395 1_545 S
C27 C28 1.396 . S
C28 H23 0.929 . S
C28 C27 1.396 . S
C28 C29 1.382 . S
C29 C28 1.382 . S
C29 C30 1.392 . S
C29 N31 1.420 . S
C30 H24 0.930 . S
C30 C26 1.413 . S
C30 C29 1.392 . S
N31 C29 1.420 . S
N31 C32 1.232 1_545 S
C32 N31 1.232 1_565 S
H33 C36 0.929 . S
H34 C39 0.929 . S
H35 C41 0.930 . S
C36 H33 0.929 . S
C36 C37 1.398 . S
C36 C38 1.396 . S
C37 C36 1.398 . S
C37 C41 1.407 . S
C38 C36 1.396 . S
C38 C39 1.394 . S
C39 H34 0.929 . S
C39 C38 1.394 . S
C39 C40 1.382 . S
C40 C39 1.382 . S
C40 C41 1.392 . S
C40 N42 1.420 . S
C41 H35 0.930 . S
C41 C37 1.407 . S
C41 C40 1.392 . S
N42 C40 1.420 . S
N42 C43 1.244 . S
C43 N42 1.244 . S
H44 C47 0.929 . S
H45 C50 0.929 . S
H46 C52 0.930 . S
C47 H44 0.929 . S
C47 C48 1.398 1_554 S
C47 C49 1.396 . S
C48 C47 1.398 1_556 S
C48 C52 1.407 . S
C49 C47 1.396 . S
C49 C50 1.394 . S
C50 H45 0.929 . S
C50 C49 1.394 . S
C50 C51 1.382 . S
C51 C50 1.382 . S
C51 C52 1.392 1_554 S
C51 N53 1.420 . S
C52 H46 0.930 . S
C52 C48 1.407 . S
C52 C51 1.392 1_556 S
N53 C51 1.420 . S
N53 C54 1.244 . S
C54 N53 1.244 . S
H55 C58 0.929 . S
H56 C61 0.929 . S
H57 C63 0.930 . S
C58 H55 0.929 . S
C58 C59 1.394 1_654 S
C58 C60 1.394 1_655 S
C59 C58 1.394 1_456 S
C59 C63 1.416 . S
C60 C58 1.394 1_455 S
C60 C61 1.398 . S
C61 H56 0.929 . S
C61 C60 1.398 . S
C61 C62 1.382 . S
C62 C61 1.382 . S
C62 C63 1.392 1_554 S
C62 N64 1.420 . S
C63 H57 0.930 . S
C63 C59 1.416 . S
C63 C62 1.392 1_556 S
N64 C62 1.420 . S
N64 C65 1.238 1_455 S
C65 N64 1.238 1_655 S
H66 C69 0.929 . S
H67 C72 0.929 . S
H68 C74 0.930 . S
C69 H66 0.929 . S
C69 C70 1.395 1_564 S
C69 C71 1.394 1_565 S
C70 C69 1.395 1_546 S
C70 C74 1.416 . S
C71 C69 1.394 1_545 S
C71 C72 1.398 . S
C72 H67 0.929 . S
C72 C71 1.398 . S
C72 C73 1.382 . S
C73 C72 1.382 . S
C73 C74 1.392 1_554 S
C73 N75 1.420 . S
C74 H68 0.930 . S
C74 C70 1.416 . S
C74 C73 1.392 1_556 S
N75 C73 1.420 . S
N75 C76 1.238 1_545 S
C76 N75 1.238 1_565 S
H77 C80 0.929 . S
H78 C83 0.929 . S
H79 C85 0.930 . S
C80 H77 0.929 . S
C80 C81 1.398 1_554 S
C80 C82 1.396 . S
C81 C80 1.398 1_556 S
C81 C85 1.407 . S
C82 C80 1.396 . S
C82 C83 1.394 . S
C83 H78 0.929 . S
C83 C82 1.394 . S
C83 C84 1.382 . S
C84 C83 1.382 . S
C84 C85 1.392 1_554 S
C84 N86 1.420 . S
C85 H79 0.930 . S
C85 C81 1.407 . S
C85 C84 1.392 1_556 S
N86 C84 1.420 . S
N86 C87 1.244 . S
C87 N86 1.244 . S
C88 Eu89 2.835 . S
C88 C90 1.500 . S
C88 O108 1.261 . S
C88 O109 1.260 . S
Eu89 C88 2.835 . S
Eu89 O108 2.474 . S
Eu89 O109 2.480 . S
Eu89 O110 2.430 . S
Eu89 O111 2.670 1_545 S
Eu89 O112 2.394 . S
Eu89 O117 2.355 1_655 S
Eu89 O119 2.374 1_545 S
C90 C88 1.500 . S
C90 C91 1.377 . S
C90 C95 1.424 . S
C91 C90 1.377 . S
C91 C92 1.395 . S
C91 H120 0.931 . S
C92 C91 1.395 . S
C92 C93 1.383 . S
C92 H121 0.931 . S
C93 C92 1.383 . S
C93 C94 1.394 . S
C94 C93 1.394 . S
C94 C95 1.382 . S
C94 H122 0.931 1_655 S
C95 C90 1.424 . S
C95 C94 1.382 . S
C95 H123 0.881 1_655 S
C96 O110 1.282 . S
C96 O111 1.254 1_545 S
C97 O112 1.251 1_455 S
C97 O113 1.251 . S
C98 Eu99 2.835 . S
C98 C100 1.500 . S
C98 O114 1.273 . S
C98 O115 1.260 . S
Eu99 C98 2.835 . S
Eu99 O111 2.355 1_455 S
Eu99 O113 2.374 1_565 S
Eu99 O114 2.480 . S
Eu99 O115 2.480 . S
Eu99 O116 2.430 . S
Eu99 O117 2.670 1_565 S
Eu99 O118 2.394 . S
C100 C98 1.500 . S
C100 C101 1.377 . S
C100 C105 1.377 . S
C101 C100 1.377 . S
C101 C102 1.395 . S
C101 H124 0.931 . S
C102 C101 1.395 . S
C102 C103 1.383 . S
C102 H125 0.931 . S
C103 C102 1.383 . S
C103 C104 1.394 . S
C104 C103 1.394 . S
C104 C105 1.378 . S
C104 H126 0.931 1_455 S
C105 C100 1.377 . S
C105 C104 1.378 . S
C105 H127 0.931 1_455 S
C106 O116 1.275 . S
C106 O117 1.258 1_565 S
C107 O118 1.251 1_655 S
C107 O119 1.251 . S
O108 C88 1.261 . S
O108 Eu89 2.474 . S
O109 C88 1.260 . S
O109 Eu89 2.480 . S
O110 Eu89 2.430 . S
O110 C96 1.282 . S
O111 Eu89 2.670 1_565 S
O111 C96 1.254 1_565 S
O111 Eu99 2.355 1_655 S
O112 Eu89 2.394 . S
O112 C97 1.251 1_655 S
O113 C97 1.251 . S
O113 Eu99 2.374 1_545 S
O114 C98 1.273 . S
O114 Eu99 2.480 . S
O115 C98 1.260 . S
O115 Eu99 2.480 . S
O116 Eu99 2.430 . S
O116 C106 1.275 . S
O117 Eu89 2.355 1_455 S
O117 Eu99 2.670 1_545 S
O117 C106 1.258 1_545 S
O118 Eu99 2.394 . S
O118 C107 1.251 1_455 S
O119 Eu89 2.374 1_565 S
O119 C107 1.251 . S
H120 C91 0.931 . S
H121 C92 0.931 . S
H122 C94 0.931 1_455 S
H123 C95 0.881 1_455 S
H124 C101 0.931 . S
H125 C102 0.931 . S
H126 C104 0.931 1_655 S
H127 C105 0.931 1_655 S
C128 Eu129 2.835 . S
C128 C130 1.500 . S
C128 O148 1.257 . S
C128 O149 1.260 . S
Eu129 C128 2.835 . S
Eu129 O148 2.473 . S
Eu129 O149 2.480 . S
Eu129 O150 2.430 . S
Eu129 O151 2.670 . S
Eu129 O152 2.394 . S
Eu129 O157 2.355 1_565 S
Eu129 O159 2.374 . S
C130 C128 1.500 . S
C130 C131 1.377 . S
C130 C135 1.416 . S
C131 C130 1.377 . S
C131 C132 1.395 . S
C131 H160 0.931 . S
C132 C131 1.395 . S
C132 C133 1.383 . S
C132 H161 0.931 . S
C133 C132 1.383 . S
C133 C134 1.394 . S
C134 C133 1.394 . S
C134 C135 1.381 . S
C134 H162 0.931 1_565 S
C135 C130 1.416 . S
C135 C134 1.381 . S
C135 H163 0.889 1_565 S
C136 O150 1.259 . S
C136 O151 1.270 . S
C137 O152 1.251 1_545 S
C137 O153 1.251 . S
C138 Eu139 2.835 . S
C138 C140 1.500 . S
C138 O154 1.269 . S
C138 O155 1.260 . S
Eu139 C138 2.835 . S
Eu139 O151 2.355 1_545 S
Eu139 O153 2.374 . S
Eu139 O154 2.478 . S
Eu139 O155 2.480 . S
Eu139 O156 2.430 . S
Eu139 O157 2.670 . S
Eu139 O158 2.394 . S
C140 C138 1.500 . S
C140 C141 1.377 . S
C140 C145 1.428 . S
C141 C140 1.377 . S
C141 C142 1.395 . S
C141 H164 0.931 . S
C142 C141 1.395 . S
C142 C143 1.383 . S
C142 H165 0.931 . S
C143 C142 1.383 . S
C143 C144 1.394 . S
C144 C143 1.394 . S
C144 C145 1.383 . S
C144 H166 0.931 1_545 S
C145 C140 1.428 . S
C145 C144 1.383 . S
C145 H167 0.877 1_545 S
C146 O156 1.259 . S
C146 O157 1.270 . S
C147 O158 1.251 1_565 S
C147 O159 1.251 . S
O148 C128 1.257 . S
O148 Eu129 2.473 . S
O149 C128 1.260 . S
O149 Eu129 2.480 . S
O150 Eu129 2.430 . S
O150 C136 1.259 . S
O151 Eu129 2.670 . S
O151 C136 1.270 . S
O151 Eu139 2.355 1_565 S
O152 Eu129 2.394 . S
O152 C137 1.251 1_565 S
O153 C137 1.251 . S
O153 Eu139 2.374 . S
O154 C138 1.269 . S
O154 Eu139 2.478 . S
O155 C138 1.260 . S
O155 Eu139 2.480 . S
O156 Eu139 2.430 . S
O156 C146 1.259 . S
O157 Eu129 2.355 1_545 S
O157 Eu139 2.670 . S
O157 C146 1.270 . S
O158 Eu139 2.394 . S
O158 C147 1.251 1_545 S
O159 Eu129 2.374 . S
O159 C147 1.251 . S
H160 C131 0.931 . S
H161 C132 0.931 . S
H162 C134 0.931 1_545 S
H163 C135 0.889 1_545 S
H164 C141 0.931 . S
H165 C142 0.931 . S
H166 C144 0.931 1_565 S
H167 C145 0.877 1_565 S
C168 Eu169 2.835 . S
C168 C170 1.500 . S
C168 O188 1.257 . S
C168 O189 1.260 . S
Eu169 C168 2.835 . S
Eu169 O188 2.473 . S
Eu169 O189 2.480 . S
Eu169 O190 2.430 . S
Eu169 O191 2.670 . S
Eu169 O192 2.394 . S
Eu169 O197 2.355 . S
Eu169 O199 2.374 . S
C170 C168 1.500 . S
C170 C171 1.377 . S
C170 C175 1.377 . S
C171 C170 1.377 . S
C171 C172 1.395 . S
C171 H200 0.931 . S
C172 C171 1.395 . S
C172 C173 1.383 . S
C172 H201 0.931 . S
C173 C172 1.383 . S
C173 C174 1.394 . S
C174 C173 1.394 . S
C174 C175 1.378 . S
C174 H202 0.931 . S
C175 C170 1.377 . S
C175 C174 1.378 . S
C175 H203 0.931 . S
C176 O190 1.259 . S
C176 O191 1.270 . S
C177 O192 1.251 . S
C177 O193 1.251 . S
C178 Eu179 2.835 . S
C178 C180 1.500 . S
C178 O194 1.257 . S
C178 O195 1.260 . S
Eu179 C178 2.835 . S
Eu179 O191 2.355 . S
Eu179 O193 2.374 . S
Eu179 O194 2.473 . S
Eu179 O195 2.480 . S
Eu179 O196 2.430 . S
Eu179 O197 2.670 . S
Eu179 O198 2.394 . S
C180 C178 1.500 . S
C180 C181 1.377 . S
C180 C185 1.377 . S
C181 C180 1.377 . S
C181 C182 1.395 . S
C181 H204 0.931 . S
C182 C181 1.395 . S
C182 C183 1.383 . S
C182 H205 0.931 . S
C183 C182 1.383 . S
C183 C184 1.394 . S
C184 C183 1.394 . S
C184 C185 1.378 . S
C184 H206 0.931 . S
C185 C180 1.377 . S
C185 C184 1.378 . S
C185 H207 0.931 . S
C186 O196 1.259 . S
C186 O197 1.270 . S
C187 O198 1.251 . S
C187 O199 1.251 . S
O188 C168 1.257 . S
O188 Eu169 2.473 . S
O189 C168 1.260 . S
O189 Eu169 2.480 . S
O190 Eu169 2.430 . S
O190 C176 1.259 . S
O191 Eu169 2.670 . S
O191 C176 1.270 . S
O191 Eu179 2.355 . S
O192 Eu169 2.394 . S
O192 C177 1.251 . S
O193 C177 1.251 . S
O193 Eu179 2.374 . S
O194 C178 1.257 . S
O194 Eu179 2.473 . S
O195 C178 1.260 . S
O195 Eu179 2.480 . S
O196 Eu179 2.430 . S
O196 C186 1.259 . S
O197 Eu169 2.355 . S
O197 Eu179 2.670 . S
O197 C186 1.270 . S
O198 Eu179 2.394 . S
O198 C187 1.251 . S
O199 Eu169 2.374 . S
O199 C187 1.251 . S
H200 C171 0.931 . S
H201 C172 0.931 . S
H202 C174 0.931 . S
H203 C175 0.931 . S
H204 C181 0.931 . S
H205 C182 0.931 . S
H206 C184 0.931 . S
H207 C185 0.931 . S
C208 Eu209 2.835 . S
C208 C210 1.500 . S
C208 O228 1.257 . S
C208 O229 1.260 . S
Eu209 C208 2.835 . S
Eu209 O228 2.473 . S
Eu209 O229 2.480 . S
Eu209 O230 2.430 . S
Eu209 O231 2.670 1_455 S
Eu209 O232 2.394 . S
Eu209 O237 2.355 . S
Eu209 O239 2.374 1_455 S
C210 C208 1.500 . S
C210 C211 1.377 . S
C210 C215 1.377 . S
C211 C210 1.377 . S
C211 C212 1.395 . S
C211 H240 0.931 . S
C212 C211 1.395 . S
C212 C213 1.383 . S
C212 H241 0.931 . S
C213 C212 1.383 . S
C213 C214 1.394 . S
C214 C213 1.394 . S
C214 C215 1.378 . S
C214 H242 0.931 . S
C215 C210 1.377 . S
C215 C214 1.378 . S
C215 H243 0.931 . S
C216 O230 1.277 . S
C216 O231 1.257 1_455 S
C217 O232 1.251 . S
C217 O233 1.251 . S
C218 Eu219 2.835 . S
C218 C220 1.500 . S
C218 O234 1.257 . S
C218 O235 1.260 . S
Eu219 C218 2.835 . S
Eu219 O231 2.355 . S
Eu219 O233 2.374 1_655 S
Eu219 O234 2.473 . S
Eu219 O235 2.480 . S
Eu219 O236 2.430 . S
Eu219 O237 2.670 1_655 S
Eu219 O238 2.394 . S
C220 C218 1.500 . S
C220 C221 1.377 . S
C220 C225 1.377 . S
C221 C220 1.377 . S
C221 C222 1.395 . S
C221 H244 0.931 . S
C222 C221 1.395 . S
C222 C223 1.383 . S
C222 H245 0.931 . S
C223 C222 1.383 . S
C223 C224 1.394 . S
C224 C223 1.394 . S
C224 C225 1.378 . S
C224 H246 0.931 . S
C225 C220 1.377 . S
C225 C224 1.378 . S
C225 H247 0.931 . S
C226 O236 1.270 . S
C226 O237 1.262 1_655 S
C227 O238 1.251 . S
C227 O239 1.251 . S
O228 C208 1.257 . S
O228 Eu209 2.473 . S
O229 C208 1.260 . S
O229 Eu209 2.480 . S
O230 Eu209 2.430 . S
O230 C216 1.277 . S
O231 Eu209 2.670 1_655 S
O231 C216 1.257 1_655 S
O231 Eu219 2.355 . S
O232 Eu209 2.394 . S
O232 C217 1.251 . S
O233 C217 1.251 . S
O233 Eu219 2.374 1_455 S
O234 C218 1.257 . S
O234 Eu219 2.473 . S
O235 C218 1.260 . S
O235 Eu219 2.480 . S
O236 Eu219 2.430 . S
O236 C226 1.270 . S
O237 Eu209 2.355 . S
O237 Eu219 2.670 1_455 S
O237 C226 1.262 1_455 S
O238 Eu219 2.394 . S
O238 C227 1.251 . S
O239 Eu209 2.374 1_655 S
O239 C227 1.251 . S
H240 C211 0.931 . S
H241 C212 0.931 . S
H242 C214 0.931 . S
H243 C215 0.931 . S
H244 C221 0.931 . S
H245 C222 0.931 . S
H246 C224 0.931 . S
H247 C225 0.931 . S
C248 C249 1.347 1_565 S
C248 C250 1.327 . S
C248 H273 0.950 . S
C249 C248 1.347 1_545 S
C249 C265 1.351 . S
C250 C248 1.327 . S
C250 C269 1.421 1_565 S
C250 H274 0.950 . S
C251 C268 1.574 . S
C251 C270 1.380 . S
C251 H275 0.949 . S
H252 C256 0.949 . S
C253 C254 1.373 . S
C253 C255 1.327 . S
C253 H276 0.950 . S
C254 C253 1.373 . S
C254 C266 1.325 1_545 S
C255 C253 1.327 . S
C255 C271 1.447 . S
C255 H277 0.950 . S
C256 H252 0.949 . S
C256 C264 1.574 . S
C256 C272 1.352 1_565 S
H257 C265 0.950 . S
H258 C263 0.950 . S
H259 C264 0.949 . S
H260 C266 0.950 . S
H261 C267 0.950 . S
H262 C268 0.949 . S
C263 H258 0.950 . S
C263 C265 1.327 . S
C263 C269 1.436 . S
C264 C256 1.574 . S
C264 H259 0.949 . S
C264 C270 1.357 1_565 S
C265 C249 1.351 . S
C265 H257 0.950 . S
C265 C263 1.327 . S
C266 C254 1.325 1_565 S
C266 H260 0.950 . S
C266 C267 1.327 . S
C267 H261 0.950 . S
C267 C266 1.327 . S
C267 C271 1.411 1_565 S
C268 C251 1.574 . S
C268 H262 0.949 . S
C268 C272 1.385 . S
C269 C250 1.421 1_545 S
C269 C263 1.436 . S
C269 C270 1.523 . S
C270 C251 1.380 . S
C270 C264 1.357 1_545 S
C270 C269 1.523 . S
C271 C255 1.447 . S
C271 C267 1.411 1_545 S
C271 C272 1.523 . S
C272 C256 1.352 1_545 S
C272 C268 1.385 . S
C272 C271 1.523 . S
H273 C248 0.950 . S
H274 C250 0.950 . S
H275 C251 0.949 . S
H276 C253 0.950 . S
H277 C255 0.950 . S
C278 C279 1.349 . S
C278 C280 1.327 . S
C278 H303 0.950 . S
C279 C278 1.349 . S
C279 C295 1.349 . S
C280 C278 1.327 . S
C280 C299 1.429 . S
C280 H304 0.950 . S
C281 C298 1.574 . S
C281 C300 1.368 . S
C281 H305 0.949 . S
H282 C286 0.949 . S
C283 C284 1.349 . S
C283 C285 1.327 . S
C283 H306 0.950 . S
C284 C283 1.349 . S
C284 C296 1.349 . S
C285 C283 1.327 . S
C285 C301 1.429 . S
C285 H307 0.950 . S
C286 H282 0.949 . S
C286 C294 1.574 . S
C286 C302 1.368 . S
H287 C295 0.950 . S
H288 C293 0.950 . S
H289 C294 0.949 . S
H290 C296 0.950 . S
H291 C297 0.950 . S
H292 C298 0.949 . S
C293 H288 0.950 . S
C293 C295 1.327 . S
C293 C299 1.429 . S
C294 C286 1.574 . S
C294 H289 0.949 . S
C294 C300 1.368 . S
C295 C279 1.349 . S
C295 H287 0.950 . S
C295 C293 1.327 . S
C296 C284 1.349 . S
C296 H290 0.950 . S
C296 C297 1.327 . S
C297 H291 0.950 . S
C297 C296 1.327 . S
C297 C301 1.429 . S
C298 C281 1.574 . S
C298 H292 0.949 . S
C298 C302 1.368 . S
C299 C280 1.429 . S
C299 C293 1.429 . S
C299 C300 1.523 . S
C300 C281 1.368 . S
C300 C294 1.368 . S
C300 C299 1.523 . S
C301 C285 1.429 . S
C301 C297 1.429 . S
C301 C302 1.523 . S
C302 C286 1.368 . S
C302 C298 1.368 . S
C302 C301 1.523 . S
H303 C278 0.950 . S
H304 C280 0.950 . S
H305 C281 0.949 . S
H306 C283 0.950 . S
H307 C285 0.950 . S
C308 C309 1.349 . S
C308 C310 1.327 . S
C308 H333 0.950 . S
C309 C308 1.349 . S
C309 C325 1.349 . S
C310 C308 1.327 . S
C310 C329 1.429 . S
C310 H334 0.950 . S
C311 C328 1.574 . S
C311 C330 1.368 . S
C311 H335 0.949 . S
H312 C316 0.949 . S
C313 C314 1.349 . S
C313 C315 1.327 . S
C313 H336 0.950 . S
C314 C313 1.349 . S
C314 C326 1.349 . S
C315 C313 1.327 . S
C315 C331 1.429 . S
C315 H337 0.950 . S
C316 H312 0.949 . S
C316 C324 1.574 . S
C316 C332 1.368 . S
H317 C325 0.950 . S
H318 C323 0.950 . S
H319 C324 0.949 . S
H320 C326 0.950 . S
H321 C327 0.950 . S
H322 C328 0.949 . S
C323 H318 0.950 . S
C323 C325 1.327 . S
C323 C329 1.429 . S
C324 C316 1.574 . S
C324 H319 0.949 . S
C324 C330 1.368 . S
C325 C309 1.349 . S
C325 H317 0.950 . S
C325 C323 1.327 . S
C326 C314 1.349 . S
C326 H320 0.950 . S
C326 C327 1.327 . S
C327 H321 0.950 . S
C327 C326 1.327 . S
C327 C331 1.429 . S
C328 C311 1.574 . S
C328 H322 0.949 . S
C328 C332 1.368 . S
C329 C310 1.429 . S
C329 C323 1.429 . S
C329 C330 1.523 . S
C330 C311 1.368 . S
C330 C324 1.368 . S
C330 C329 1.523 . S
C331 C315 1.429 . S
C331 C327 1.429 . S
C331 C332 1.523 . S
C332 C316 1.368 . S
C332 C328 1.368 . S
C332 C331 1.523 . S
H333 C308 0.950 . S
H334 C310 0.950 . S
H335 C311 0.949 . S
H336 C313 0.950 . S
H337 C315 0.950 . S
C338 C339 1.352 . S
C338 C340 1.327 . S
C338 H363 0.950 . S
C339 C338 1.352 . S
C339 C355 1.346 1_455 S
C340 C338 1.327 . S
C340 C359 1.439 . S
C340 H364 0.950 . S
C341 C358 1.574 . S
C341 C360 1.353 1_655 S
C341 H365 0.949 . S
H342 C346 0.949 . S
C343 C344 1.316 1_655 S
C343 C345 1.327 . S
C343 H366 0.950 . S
C344 C343 1.316 1_455 S
C344 C356 1.382 . S
C345 C343 1.327 . S
C345 C361 1.404 1_655 S
C345 H367 0.950 . S
C346 H342 0.949 . S
C346 C354 1.574 . S
C346 C362 1.391 . S
H347 C355 0.950 . S
H348 C353 0.950 . S
H349 C354 0.949 . S
H350 C356 0.950 . S
H351 C357 0.950 . S
H352 C358 0.949 . S
C353 H348 0.950 . S
C353 C355 1.327 . S
C353 C359 1.418 1_655 S
C354 C346 1.574 . S
C354 H349 0.949 . S
C354 C360 1.384 . S
C355 C339 1.346 1_655 S
C355 H347 0.950 . S
C355 C353 1.327 . S
C356 C344 1.382 . S
C356 H350 0.950 . S
C356 C357 1.327 . S
C357 H351 0.950 . S
C357 C356 1.327 . S
C357 C361 1.454 . S
C358 C341 1.574 . S
C358 H352 0.949 . S
C358 C362 1.345 1_655 S
C359 C340 1.439 . S
C359 C353 1.418 1_455 S
C359 C360 1.523 . S
C360 C341 1.353 1_455 S
C360 C354 1.384 . S
C360 C359 1.523 . S
C361 C345 1.404 1_455 S
C361 C357 1.454 . S
C361 C362 1.523 . S
C362 C346 1.391 . S
C362 C358 1.345 1_455 S
C362 C361 1.523 . S
H363 C338 0.950 . S
H364 C340 0.950 . S
H365 C341 0.949 . S
H366 C343 0.950 . S
H367 C345 0.950 . S
C368 C369 1.351 1_565 S
C368 C370 1.327 . S
C368 H393 0.950 . S
C369 C368 1.351 1_545 S
C369 C385 1.347 . S
C370 C368 1.327 . S
C370 C389 1.426 . S
C370 H394 0.950 . S
C371 C388 1.574 . S
C371 C390 1.367 1_545 S
C371 H395 0.949 . S
H372 C376 0.949 . S
C373 C374 1.335 1_545 S
C373 C375 1.327 . S
C373 H396 0.950 . S
C374 C373 1.335 1_565 S
C374 C386 1.363 . S
C375 C373 1.327 . S
C375 C391 1.420 1_545 S
C375 H397 0.950 . S
C376 H372 0.949 . S
C376 C384 1.574 1_556 S
C376 C392 1.375 . S
H377 C385 0.950 . S
H378 C383 0.950 . S
H379 C384 0.949 . S
H380 C386 0.950 . S
H381 C387 0.950 . S
H382 C388 0.949 . S
C383 H378 0.950 . S
C383 C385 1.327 . S
C383 C389 1.431 1_545 S
C384 C376 1.574 1_554 S
C384 H379 0.949 . S
C384 C390 1.369 . S
C385 C369 1.347 . S
C385 H377 0.950 . S
C385 C383 1.327 . S
C386 C374 1.363 . S
C386 H380 0.950 . S
C386 C387 1.327 . S
C387 H381 0.950 . S
C387 C386 1.327 . S
C387 C391 1.437 . S
C388 C371 1.574 . S
C388 H382 0.949 . S
C388 C392 1.362 1_544 S
C389 C370 1.426 . S
C389 C383 1.431 1_565 S
C389 C390 1.523 . S
C390 C371 1.367 1_565 S
C390 C384 1.369 . S
C390 C389 1.523 . S
C391 C375 1.420 1_565 S
C391 C387 1.437 . S
C391 C392 1.523 . S
C392 C376 1.375 . S
C392 C388 1.362 1_566 S
C392 C391 1.523 . S
H393 C368 0.950 . S
H394 C370 0.950 . S
H395 C371 0.949 . S
H396 C373 0.950 . S
H397 C375 0.950 . S
C398 C399 1.349 . S
C398 C400 1.327 . S
C398 H423 0.950 . S
C399 C398 1.349 . S
C399 C415 1.349 . S
C400 C398 1.327 . S
C400 C419 1.429 . S
C400 H424 0.950 . S
C401 C418 1.574 . S
C401 C420 1.368 . S
C401 H425 0.949 . S
H402 C406 0.949 . S
C403 C404 1.349 . S
C403 C405 1.327 . S
C403 H426 0.950 . S
C404 C403 1.349 . S
C404 C416 1.349 . S
C405 C403 1.327 . S
C405 C421 1.429 . S
C405 H427 0.950 . S
C406 H402 0.949 . S
C406 C414 1.574 1_556 S
C406 C422 1.373 . S
H407 C415 0.950 . S
H408 C413 0.950 . S
H409 C414 0.949 . S
H410 C416 0.950 . S
H411 C417 0.950 . S
H412 C418 0.949 . S
C413 H408 0.950 . S
C413 C415 1.327 . S
C413 C419 1.429 . S
C414 C406 1.574 1_554 S
C414 H409 0.949 . S
C414 C420 1.368 . S
C415 C399 1.349 . S
C415 H407 0.950 . S
C415 C413 1.327 . S
C416 C404 1.349 . S
C416 H410 0.950 . S
C416 C417 1.327 . S
C417 H411 0.950 . S
C417 C416 1.327 . S
C417 C421 1.429 . S
C418 C401 1.574 . S
C418 H412 0.949 . S
C418 C422 1.356 1_554 S
C419 C400 1.429 . S
C419 C413 1.429 . S
C419 C420 1.523 . S
C420 C401 1.368 . S
C420 C414 1.368 . S
C420 C419 1.523 . S
C421 C405 1.429 . S
C421 C417 1.429 . S
C421 C422 1.533 . S
C422 C406 1.373 . S
C422 C418 1.356 1_556 S
C422 C421 1.533 . S
H423 C398 0.950 . S
H424 C400 0.950 . S
H425 C401 0.949 . S
H426 C403 0.950 . S
H427 C405 0.950 . S
C428 C429 1.349 . S
C428 C430 1.327 . S
C428 H453 0.950 . S
C429 C428 1.349 . S
C429 C445 1.349 . S
C430 C428 1.327 . S
C430 C449 1.429 . S
C430 H454 0.950 . S
C431 C448 1.574 1_554 S
C431 C450 1.368 . S
C431 H455 0.949 . S
H432 C436 0.949 . S
C433 C434 1.349 . S
C433 C435 1.327 . S
C433 H456 0.950 . S
C434 C433 1.349 . S
C434 C446 1.349 . S
C435 C433 1.327 . S
C435 C451 1.429 . S
C435 H457 0.950 . S
C436 H432 0.949 . S
C436 C444 1.574 . S
C436 C452 1.368 1_554 S
H437 C445 0.950 . S
H438 C443 0.950 . S
H439 C444 0.949 . S
H440 C446 0.950 . S
H441 C447 0.950 . S
H442 C448 0.949 . S
C443 H438 0.950 . S
C443 C445 1.327 . S
C443 C449 1.429 . S
C444 C436 1.574 . S
C444 H439 0.949 . S
C444 C450 1.368 . S
C445 C429 1.349 . S
C445 H437 0.950 . S
C445 C443 1.327 . S
C446 C434 1.349 . S
C446 H440 0.950 . S
C446 C447 1.327 . S
C447 H441 0.950 . S
C447 C446 1.327 . S
C447 C451 1.429 . S
C448 C431 1.574 1_556 S
C448 H442 0.949 . S
C448 C452 1.368 . S
C449 C430 1.429 . S
C449 C443 1.429 . S
C449 C450 1.523 . S
C450 C431 1.368 . S
C450 C444 1.368 . S
C450 C449 1.523 . S
C451 C435 1.429 . S
C451 C447 1.429 . S
C451 C452 1.523 . S
C452 C436 1.368 1_556 S
C452 C448 1.368 . S
C452 C451 1.523 . S
H453 C428 0.950 . S
H454 C430 0.950 . S
H455 C431 0.949 . S
H456 C433 0.950 . S
H457 C435 0.950 . S
C458 C459 1.347 1_455 S
C458 C460 1.327 . S
C458 H483 0.950 . S
C459 C458 1.347 1_655 S
C459 C475 1.351 . S
C460 C458 1.327 . S
C460 C479 1.423 1_455 S
C460 H484 0.950 . S
C461 C478 1.574 . S
C461 C480 1.378 . S
C461 H485 0.949 . S
H462 C466 0.949 . S
C463 C464 1.369 . S
C463 C465 1.327 . S
C463 H486 0.950 . S
C464 C463 1.369 . S
C464 C476 1.330 1_655 S
C465 C463 1.327 . S
C465 C481 1.444 . S
C465 H487 0.950 . S
C466 H462 0.949 . S
C466 C474 1.574 1_556 S
C466 C482 1.355 1_455 S
H467 C475 0.950 . S
H468 C473 0.950 . S
H469 C474 0.949 . S
H470 C476 0.950 . S
H471 C477 0.950 . S
H472 C478 0.949 . S
C473 H468 0.950 . S
C473 C475 1.327 . S
C473 C479 1.435 . S
C474 C466 1.574 1_554 S
C474 H469 0.949 . S
C474 C480 1.359 1_455 S
C475 C459 1.351 . S
C475 H467 0.950 . S
C475 C473 1.327 . S
C476 C464 1.330 1_455 S
C476 H470 0.950 . S
C476 C477 1.327 . S
C477 H471 0.950 . S
C477 C476 1.327 . S
C477 C481 1.414 1_455 S
C478 C461 1.574 . S
C478 H472 0.949 . S
C478 C482 1.382 1_554 S
C479 C460 1.423 1_655 S
C479 C473 1.435 . S
C479 C480 1.523 . S
C480 C461 1.378 . S
C480 C474 1.359 1_655 S
C480 C479 1.523 . S
C481 C465 1.444 . S
C481 C477 1.414 1_655 S
C481 C482 1.523 . S
C482 C466 1.355 1_655 S
C482 C478 1.382 1_556 S
C482 C481 1.523 . S
H483 C458 0.950 . S
H484 C460 0.950 . S
H485 C461 0.949 . S
H486 C463 0.950 . S
H487 C465 0.950 . S
C488 C489 1.349 1_655 S
C488 C490 1.327 . S
C488 H513 0.950 . S
C489 C488 1.349 1_455 S
C489 C505 1.349 . S
C490 C488 1.327 . S
C490 C509 1.429 . S
C490 H514 0.950 . S
C491 C508 1.569 1_455 S
C491 C510 1.368 1_455 S
C491 H515 0.949 . S
H492 C496 0.949 . S
C493 C494 1.349 . S
C493 C495 1.327 . S
C493 H516 0.950 . S
C494 C493 1.349 . S
C494 C506 1.349 . S
C495 C493 1.327 . S
C495 C511 1.429 . S
C495 H517 0.950 1_655 S
C496 H492 0.949 . S
C496 C504 1.574 . S
C496 C512 1.368 . S
H497 C505 0.950 . S
H498 C503 0.950 . S
H499 C504 0.949 . S
H500 C506 0.950 . S
H501 C507 0.950 . S
H502 C508 0.933 1_455 S
C503 H498 0.950 . S
C503 C505 1.327 . S
C503 C509 1.429 1_455 S
C504 C496 1.574 . S
C504 H499 0.949 . S
C504 C510 1.368 . S
C505 C489 1.349 . S
C505 H497 0.950 . S
C505 C503 1.327 . S
C506 C494 1.349 . S
C506 H500 0.950 . S
C506 C507 1.327 . S
C507 H501 0.950 . S
C507 C506 1.327 . S
C507 C511 1.429 . S
C508 C491 1.569 1_655 S
C508 H502 0.933 1_655 S
C508 C512 1.393 . S
C509 C490 1.429 . S
C509 C503 1.429 1_655 S
C509 C510 1.523 . S
C510 C491 1.368 1_655 S
C510 C504 1.368 . S
C510 C509 1.523 . S
C511 C495 1.429 . S
C511 C507 1.429 . S
C511 C512 1.523 . S
C512 C496 1.368 . S
C512 C508 1.393 . S
C512 C511 1.523 . S
H513 C488 0.950 . S
H514 C490 0.950 . S
H515 C491 0.949 . S
H516 C493 0.950 . S
H517 C495 0.950 1_455 S
C518 C519 1.349 . S
C518 C520 1.323 1_545 S
C518 H543 0.950 . S
C519 C518 1.349 . S
C519 C535 1.349 1_545 S
C520 C518 1.323 1_565 S
C520 C539 1.434 . S
C520 H544 0.948 1_565 S
C521 C538 1.574 . S
C521 C540 1.368 . S
C521 H545 0.949 . S
H522 C526 0.949 . S
C523 C524 1.349 . S
C523 C525 1.327 . S
C523 H546 0.950 . S
C524 C523 1.349 . S
C524 C536 1.349 . S
C525 C523 1.327 . S
C525 C541 1.429 . S
C525 H547 0.950 . S
C526 H522 0.949 . S
C526 C534 1.574 . S
C526 C542 1.368 . S
H527 C535 0.950 . S
H528 C533 0.950 . S
H529 C534 0.949 . S
H530 C536 0.950 . S
H531 C537 0.950 . S
H532 C538 0.949 . S
C533 H528 0.950 . S
C533 C535 1.327 . S
C533 C539 1.429 . S
C534 C526 1.574 . S
C534 H529 0.949 . S
C534 C540 1.368 . S
C535 C519 1.349 1_565 S
C535 H527 0.950 . S
C535 C533 1.327 . S
C536 C524 1.349 . S
C536 H530 0.950 . S
C536 C537 1.327 . S
C537 H531 0.950 . S
C537 C536 1.327 . S
C537 C541 1.429 . S
C538 C521 1.574 . S
C538 H532 0.949 . S
C538 C542 1.368 . S
C539 C520 1.434 . S
C539 C533 1.429 . S
C539 C540 1.523 . S
C540 C521 1.368 . S
C540 C534 1.368 . S
C540 C539 1.523 . S
C541 C525 1.429 . S
C541 C537 1.429 . S
C541 C542 1.523 . S
C542 C526 1.368 . S
C542 C538 1.368 . S
C542 C541 1.523 . S
H543 C518 0.950 . S
H544 C520 0.948 1_545 S
H545 C521 0.949 . S
H546 C523 0.950 . S
H547 C525 0.950 . S
C548 C549 1.349 . S
C548 C550 1.327 . S
C548 H573 0.950 . S
C549 C548 1.349 . S
C549 C565 1.349 . S
C550 C548 1.327 . S
C550 C569 1.429 . S
C550 H574 0.950 . S
C551 C568 1.574 . S
C551 C570 1.368 . S
C551 H575 0.949 . S
H552 C556 0.949 . S
C553 C554 1.349 . S
C553 C555 1.327 . S
C553 H576 0.950 . S
C554 C553 1.349 . S
C554 C566 1.349 . S
C555 C553 1.327 . S
C555 C571 1.429 . S
C555 H577 0.950 . S
C556 H552 0.949 . S
C556 C564 1.574 . S
C556 C572 1.368 . S
H557 C565 0.950 . S
H558 C563 0.950 . S
H559 C564 0.949 . S
H560 C566 0.950 . S
H561 C567 0.950 . S
H562 C568 0.949 . S
C563 H558 0.950 . S
C563 C565 1.327 . S
C563 C569 1.429 . S
C564 C556 1.574 . S
C564 H559 0.949 . S
C564 C570 1.368 . S
C565 C549 1.349 . S
C565 H557 0.950 . S
C565 C563 1.327 . S
C566 C554 1.349 . S
C566 H560 0.950 . S
C566 C567 1.327 . S
C567 H561 0.950 . S
C567 C566 1.327 . S
C567 C571 1.429 . S
C568 C551 1.574 . S
C568 H562 0.949 . S
C568 C572 1.368 . S
C569 C550 1.429 . S
C569 C563 1.429 . S
C569 C570 1.523 . S
C570 C551 1.368 . S
C570 C564 1.368 . S
C570 C569 1.523 . S
C571 C555 1.429 . S
C571 C567 1.429 . S
C571 C572 1.523 . S
C572 C556 1.368 . S
C572 C568 1.368 . S
C572 C571 1.523 . S
H573 C548 0.950 . S
H574 C550 0.950 . S
H575 C551 0.949 . S
H576 C553 0.950 . S
H577 C555 0.950 . S
C578 C579 1.349 . S
C578 C580 1.327 . S
C578 H603 0.950 . S
C579 C578 1.349 . S
C579 C595 1.349 . S
C580 C578 1.327 . S
C580 C599 1.429 . S
C580 H604 0.950 . S
C581 C598 1.574 . S
C581 C600 1.368 . S
C581 H605 0.949 . S
H582 C586 0.949 . S
C583 C584 1.349 . S
C583 C585 1.327 . S
C583 H606 0.950 . S
C584 C583 1.349 . S
C584 C596 1.349 . S
C585 C583 1.327 . S
C585 C601 1.429 . S
C585 H607 0.950 . S
C586 H582 0.949 . S
C586 C594 1.574 . S
C586 C602 1.368 . S
H587 C595 0.950 . S
H588 C593 0.950 . S
H589 C594 0.949 . S
H590 C596 0.950 . S
H591 C597 0.950 . S
H592 C598 0.949 . S
C593 H588 0.950 . S
C593 C595 1.327 . S
C593 C599 1.429 . S
C594 C586 1.574 . S
C594 H589 0.949 . S
C594 C600 1.368 . S
C595 C579 1.349 . S
C595 H587 0.950 . S
C595 C593 1.327 . S
C596 C584 1.349 . S
C596 H590 0.950 . S
C596 C597 1.327 . S
C597 H591 0.950 . S
C597 C596 1.327 . S
C597 C601 1.429 . S
C598 C581 1.574 . S
C598 H592 0.949 . S
C598 C602 1.368 . S
C599 C580 1.429 . S
C599 C593 1.429 . S
C599 C600 1.523 . S
C600 C581 1.368 . S
C600 C594 1.368 . S
C600 C599 1.523 . S
C601 C585 1.429 . S
C601 C597 1.429 . S
C601 C602 1.523 . S
C602 C586 1.368 . S
C602 C598 1.368 . S
C602 C601 1.523 . S
H603 C578 0.950 . S
H604 C580 0.950 . S
H605 C581 0.949 . S
H606 C583 0.950 . S
H607 C585 0.950 . S
C608 C609 1.349 . S
C608 C610 1.327 . S
C608 H633 0.950 . S
C609 C608 1.349 . S
C609 C625 1.349 1_655 S
C610 C608 1.327 . S
C610 C629 1.429 1_655 S
C610 H634 0.950 . S
C611 C628 1.574 . S
C611 C630 1.368 . S
C611 H635 0.949 . S
H612 C616 0.925 1_655 S
C613 C614 1.349 1_554 S
C613 C615 1.327 . S
C613 H636 0.950 . S
C614 C613 1.349 1_556 S
C614 C626 1.349 . S
C615 C613 1.327 . S
C615 C631 1.429 . S
C615 H637 0.950 . S
C616 H612 0.925 1_455 S
C616 C624 1.566 1_455 S
C616 C632 1.405 . S
H617 C625 0.950 . S
H618 C623 0.950 . S
H619 C624 0.949 . S
H620 C626 0.950 . S
H621 C627 0.950 1_655 S
H622 C628 0.949 . S
C623 H618 0.950 . S
C623 C625 1.327 . S
C623 C629 1.429 . S
C624 C616 1.566 1_655 S
C624 H619 0.949 . S
C624 C630 1.368 1_655 S
C625 C609 1.349 1_455 S
C625 H617 0.950 . S
C625 C623 1.327 . S
C626 C614 1.349 . S
C626 H620 0.950 . S
C626 C627 1.327 . S
C627 H621 0.950 1_455 S
C627 C626 1.327 . S
C627 C631 1.429 1_556 S
C628 C611 1.574 . S
C628 H622 0.949 . S
C628 C632 1.368 . S
C629 C610 1.429 1_455 S
C629 C623 1.429 . S
C629 C630 1.523 . S
C630 C611 1.368 . S
C630 C624 1.368 1_455 S
C630 C629 1.523 . S
C631 C615 1.429 . S
C631 C627 1.429 1_554 S
C631 C632 1.523 . S
C632 C616 1.405 . S
C632 C628 1.368 . S
C632 C631 1.523 . S
H633 C608 0.950 . S
H634 C610 0.950 . S
H635 C611 0.949 . S
H636 C613 0.950 . S
H637 C615 0.950 . S
C638 C639 1.304 1_545 S
C638 C640 1.327 . S
C638 H663 0.950 . S
C639 C638 1.304 1_565 S
C639 C655 1.387 . S
C640 C638 1.327 . S
C640 C659 1.429 . S
C640 H664 0.950 . S
C641 C658 1.574 . S
C641 C660 1.368 1_565 S
C641 H665 0.949 . S
H642 C646 0.949 . S
C643 C644 1.349 1_554 S
C643 C645 1.327 . S
C643 H666 0.950 1_545 S
C644 C643 1.349 1_556 S
C644 C656 1.349 . S
C645 C643 1.327 . S
C645 C661 1.429 . S
C645 H667 0.950 1_545 S
C646 H642 0.949 . S
C646 C654 1.574 . S
C646 C662 1.368 . S
H647 C655 0.950 . S
H648 C653 0.950 . S
H649 C654 0.949 . S
H650 C656 0.950 . S
H651 C657 0.950 . S
H652 C658 0.949 . S
C653 H648 0.950 . S
C653 C655 1.327 . S
C653 C659 1.429 1_565 S
C654 C646 1.574 . S
C654 H649 0.949 . S
C654 C660 1.368 . S
C655 C639 1.387 . S
C655 H647 0.950 . S
C655 C653 1.327 . S
C656 C644 1.349 . S
C656 H650 0.950 . S
C656 C657 1.327 1_556 S
C657 H651 0.950 . S
C657 C656 1.327 1_554 S
C657 C661 1.429 . S
C658 C641 1.574 . S
C658 H652 0.949 . S
C658 C662 1.368 1_565 S
C659 C640 1.429 . S
C659 C653 1.429 1_545 S
C659 C660 1.523 . S
C660 C641 1.368 1_545 S
C660 C654 1.368 . S
C660 C659 1.523 . S
C661 C645 1.429 . S
C661 C657 1.429 . S
C661 C662 1.523 . S
C662 C646 1.368 . S
C662 C658 1.368 1_545 S
C662 C661 1.523 . S
H663 C638 0.950 . S
H664 C640 0.950 . S
H665 C641 0.949 . S
H666 C643 0.950 1_565 S
H667 C645 0.950 1_565 S
C668 C669 1.349 . S
C668 C670 1.327 . S
C668 H693 0.950 . S
C669 C668 1.349 . S
C669 C685 1.349 . S
C670 C668 1.327 . S
C670 C689 1.429 . S
C670 H694 0.950 . S
C671 C688 1.574 . S
C671 C690 1.368 . S
C671 H695 0.949 . S
H672 C676 0.949 . S
C673 C674 1.349 1_554 S
C673 C675 1.327 . S
C673 H696 0.950 . S
C674 C673 1.349 1_556 S
C674 C686 1.349 . S
C675 C673 1.327 . S
C675 C691 1.429 . S
C675 H697 0.950 . S
C676 H672 0.949 . S
C676 C684 1.574 . S
C676 C692 1.368 . S
H677 C685 0.950 . S
H678 C683 0.950 . S
H679 C684 0.949 . S
H680 C686 0.950 . S
H681 C687 0.950 . S
H682 C688 0.949 . S
C683 H678 0.950 . S
C683 C685 1.327 . S
C683 C689 1.429 . S
C684 C676 1.574 . S
C684 H679 0.949 . S
C684 C690 1.368 . S
C685 C669 1.349 . S
C685 H677 0.950 . S
C685 C683 1.327 . S
C686 C674 1.349 . S
C686 H680 0.950 . S
C686 C687 1.327 . S
C687 H681 0.950 . S
C687 C686 1.327 . S
C687 C691 1.429 1_556 S
C688 C671 1.574 . S
C688 H682 0.949 . S
C688 C692 1.368 . S
C689 C670 1.429 . S
C689 C683 1.429 . S
C689 C690 1.523 . S
C690 C671 1.368 . S
C690 C684 1.368 . S
C690 C689 1.523 . S
C691 C675 1.429 . S
C691 C687 1.429 1_554 S
C691 C692 1.523 . S
C692 C676 1.368 . S
C692 C688 1.368 . S
C692 C691 1.523 . S
H693 C668 0.950 . S
H694 C670 0.950 . S
H695 C671 0.949 . S
H696 C673 0.950 . S
H697 C675 0.950 . S
C698 C699 1.349 . S
C698 C700 1.327 . S
C698 H723 0.950 . S
C699 C698 1.349 . S
C699 C715 1.349 . S
C700 C698 1.327 . S
C700 C719 1.429 . S
C700 H724 0.950 . S
C701 C718 1.574 . S
C701 C720 1.368 . S
C701 H725 0.949 . S
H702 C706 0.949 . S
C703 C704 1.349 . S
C703 C705 1.327 1_556 S
C703 H726 0.950 . S
C704 C703 1.349 . S
C704 C716 1.349 1_556 S
C705 C703 1.327 1_554 S
C705 C721 1.429 . S
C705 H727 0.950 . S
C706 H702 0.949 . S
C706 C714 1.574 . S
C706 C722 1.368 . S
H707 C715 0.950 . S
H708 C713 0.950 . S
H709 C714 0.949 . S
H710 C716 0.950 . S
H711 C717 0.950 . S
H712 C718 0.949 . S
C713 H708 0.950 . S
C713 C715 1.327 . S
C713 C719 1.429 . S
C714 C706 1.574 . S
C714 H709 0.949 . S
C714 C720 1.368 . S
C715 C699 1.349 . S
C715 H707 0.950 . S
C715 C713 1.327 . S
C716 C704 1.349 1_554 S
C716 H710 0.950 . S
C716 C717 1.327 . S
C717 H711 0.950 . S
C717 C716 1.327 . S
C717 C721 1.429 . S
C718 C701 1.574 . S
C718 H712 0.949 . S
C718 C722 1.368 . S
C719 C700 1.429 . S
C719 C713 1.429 . S
C719 C720 1.523 . S
C720 C701 1.368 . S
C720 C714 1.368 . S
C720 C719 1.523 . S
C721 C705 1.429 . S
C721 C717 1.429 . S
C721 C722 1.523 . S
C722 C706 1.368 . S
C722 C718 1.368 . S
C722 C721 1.523 . S
H723 C698 0.950 . S
H724 C700 0.950 . S
H725 C701 0.949 . S
H726 C703 0.950 . S
H727 C705 0.950 . S
C728 C729 1.378 . S
C728 C730 1.327 . S
C728 H753 0.950 . S
C729 C728 1.378 . S
C729 C745 1.323 1_455 S
C730 C728 1.327 . S
C730 C749 1.429 . S
C730 H754 0.950 . S
C731 C748 1.574 . S
C731 C750 1.368 1_655 S
C731 H755 0.949 . S
H732 C736 0.949 . S
C733 C734 1.349 1_655 S
C733 C735 1.327 . S
C733 H756 0.950 . S
C734 C733 1.349 1_455 S
C734 C746 1.349 . S
C735 C733 1.327 . S
C735 C751 1.429 1_655 S
C735 H757 0.950 . S
C736 H732 0.949 . S
C736 C744 1.574 . S
C736 C752 1.368 . S
H737 C745 0.939 1_554 S
H738 C743 0.950 . S
H739 C744 0.949 . S
H740 C746 0.950 . S
H741 C747 0.950 . S
H742 C748 0.949 . S
C743 H738 0.950 . S
C743 C745 1.327 . S
C743 C749 1.429 1_655 S
C744 C736 1.574 . S
C744 H739 0.949 . S
C744 C750 1.368 . S
C745 C729 1.323 1_655 S
C745 H737 0.939 1_556 S
C745 C743 1.327 . S
C746 C734 1.349 . S
C746 H740 0.950 . S
C746 C747 1.327 . S
C747 H741 0.950 . S
C747 C746 1.327 . S
C747 C751 1.429 . S
C748 C731 1.574 . S
C748 H742 0.949 . S
C748 C752 1.368 1_655 S
C749 C730 1.429 . S
C749 C743 1.429 1_455 S
C749 C750 1.523 . S
C750 C731 1.368 1_455 S
C750 C744 1.368 . S
C750 C749 1.523 . S
C751 C735 1.429 1_455 S
C751 C747 1.429 . S
C751 C752 1.523 . S
C752 C736 1.368 . S
C752 C748 1.368 1_455 S
C752 C751 1.523 . S
H753 C728 0.950 . S
H754 C730 0.950 . S
H755 C731 0.949 . S
H756 C733 0.950 . S
H757 C735 0.950 . S
C758 C759 1.312 1_565 S
C758 C760 1.327 . S
C758 H783 0.950 . S
C759 C758 1.312 1_545 S
C759 C775 1.388 . S
C760 C758 1.327 . S
C760 C779 1.429 1_565 S
C760 H784 0.950 . S
C761 C778 1.574 . S
C761 C780 1.368 . S
C761 H785 0.949 . S
H762 C766 0.949 . S
C763 C764 1.349 . S
C763 C765 1.327 . S
C763 H786 0.950 . S
C764 C763 1.349 . S
C764 C776 1.349 1_545 S
C765 C763 1.327 . S
C765 C781 1.429 . S
C765 H787 0.950 . S
C766 H762 0.949 . S
C766 C774 1.574 . S
C766 C782 1.368 1_565 S
H767 C775 0.950 . S
H768 C773 0.950 . S
H769 C774 0.949 . S
H770 C776 0.950 . S
H771 C777 0.950 . S
H772 C778 0.949 . S
C773 H768 0.950 . S
C773 C775 1.327 . S
C773 C779 1.429 . S
C774 C766 1.574 . S
C774 H769 0.949 . S
C774 C780 1.368 1_565 S
C775 C759 1.388 . S
C775 H767 0.950 . S
C775 C773 1.327 . S
C776 C764 1.349 1_565 S
C776 H770 0.950 . S
C776 C777 1.327 . S
C777 H771 0.950 . S
C777 C776 1.327 . S
C777 C781 1.429 1_565 S
C778 C761 1.574 . S
C778 H772 0.949 . S
C778 C782 1.368 . S
C779 C760 1.429 1_545 S
C779 C773 1.429 . S
C779 C780 1.523 . S
C780 C761 1.368 . S
C780 C774 1.368 1_545 S
C780 C779 1.523 . S
C781 C765 1.429 . S
C781 C777 1.429 1_545 S
C781 C782 1.523 . S
C782 C766 1.368 1_545 S
C782 C778 1.368 . S
C782 C781 1.523 . S
H783 C758 0.950 . S
H784 C760 0.950 . S
H785 C761 0.949 . S
H786 C763 0.950 . S
H787 C765 0.950 . S
C788 C789 1.349 . S
C788 C790 1.327 . S
C788 H813 0.950 1_556 S
C789 C788 1.349 . S
C789 C805 1.349 . S
C790 C788 1.327 . S
C790 C809 1.429 . S
C790 H814 0.950 . S
C791 C808 1.574 . S
C791 C810 1.368 . S
C791 H815 0.949 . S
H792 C796 0.949 . S
C793 C794 1.349 . S
C793 C795 1.327 . S
C793 H816 0.950 . S
C794 C793 1.349 . S
C794 C806 1.349 . S
C795 C793 1.327 . S
C795 C811 1.429 . S
C795 H817 0.950 . S
C796 H792 0.949 . S
C796 C804 1.574 . S
C796 C812 1.368 . S
H797 C805 0.950 . S
H798 C803 0.950 . S
H799 C804 0.949 . S
H800 C806 0.950 . S
H801 C807 0.950 . S
H802 C808 0.949 . S
C803 H798 0.950 . S
C803 C805 1.327 . S
C803 C809 1.429 . S
C804 C796 1.574 . S
C804 H799 0.949 . S
C804 C810 1.368 . S
C805 C789 1.349 . S
C805 H797 0.950 . S
C805 C803 1.327 . S
C806 C794 1.349 . S
C806 H800 0.950 . S
C806 C807 1.327 . S
C807 H801 0.950 . S
C807 C806 1.327 . S
C807 C811 1.429 . S
C808 C791 1.574 . S
C808 H802 0.949 . S
C808 C812 1.368 . S
C809 C790 1.429 . S
C809 C803 1.429 . S
C809 C810 1.523 . S
C810 C791 1.368 . S
C810 C804 1.368 . S
C810 C809 1.523 . S
C811 C795 1.429 . S
C811 C807 1.429 . S
C811 C812 1.523 . S
C812 C796 1.368 . S
C812 C808 1.368 . S
C812 C811 1.523 . S
H813 C788 0.950 1_554 S
H814 C790 0.950 . S
H815 C791 0.949 . S
H816 C793 0.950 . S
H817 C795 0.950 . S
C818 C819 1.349 . S
C818 C820 1.327 . S
C818 H843 0.950 . S
C819 C818 1.349 . S
C819 C835 1.349 . S
C820 C818 1.327 . S
C820 C839 1.429 . S
C820 H844 0.950 . S
C821 C838 1.574 . S
C821 C840 1.368 . S
C821 H845 0.949 . S
H822 C826 0.949 . S
C823 C824 1.349 . S
C823 C825 1.327 . S
C823 H846 0.950 . S
C824 C823 1.349 . S
C824 C836 1.349 . S
C825 C823 1.327 . S
C825 C841 1.429 . S
C825 H847 0.950 . S
C826 H822 0.949 . S
C826 C834 1.574 . S
C826 C842 1.368 . S
H827 C835 0.950 . S
H828 C833 0.950 . S
H829 C834 0.949 . S
H830 C836 0.950 . S
H831 C837 0.950 . S
H832 C838 0.949 . S
C833 H828 0.950 . S
C833 C835 1.327 . S
C833 C839 1.429 . S
C834 C826 1.574 . S
C834 H829 0.949 . S
C834 C840 1.368 . S
C835 C819 1.349 . S
C835 H827 0.950 . S
C835 C833 1.327 . S
C836 C824 1.349 . S
C836 H830 0.950 . S
C836 C837 1.327 . S
C837 H831 0.950 . S
C837 C836 1.327 . S
C837 C841 1.429 . S
C838 C821 1.574 . S
C838 H832 0.949 . S
C838 C842 1.368 . S
C839 C820 1.429 . S
C839 C833 1.429 . S
C839 C840 1.523 . S
C840 C821 1.368 . S
C840 C834 1.368 . S
C840 C839 1.523 . S
C841 C825 1.429 . S
C841 C837 1.429 . S
C841 C842 1.523 . S
C842 C826 1.368 . S
C842 C838 1.368 . S
C842 C841 1.523 . S
H843 C818 0.950 . S
H844 C820 0.950 . S
H845 C821 0.949 . S
H846 C823 0.950 . S
H847 C825 0.950 . S
C848 C849 1.336 1_455 S
C848 C850 1.327 . S
C848 H873 0.950 . S
C849 C848 1.336 1_655 S
C849 C865 1.366 . S
C850 C848 1.327 . S
C850 C869 1.429 1_455 S
C850 H874 0.950 . S
C851 C868 1.574 . S
C851 C870 1.368 . S
C851 H875 0.949 . S
H852 C856 0.949 . S
C853 C854 1.349 . S
C853 C855 1.327 . S
C853 H876 0.950 . S
C854 C853 1.349 . S
C854 C866 1.363 . S
C855 C853 1.327 . S
C855 C871 1.429 . S
C855 H877 0.950 . S
C856 H852 0.949 . S
C856 C864 1.574 . S
C856 C872 1.368 1_455 S
H857 C865 0.950 . S
H858 C863 0.950 . S
H859 C864 0.949 . S
H860 C866 0.939 1_455 S
H861 C867 0.950 . S
H862 C868 0.949 . S
C863 H858 0.950 . S
C863 C865 1.327 . S
C863 C869 1.429 . S
C864 C856 1.574 . S
C864 H859 0.949 . S
C864 C870 1.368 1_455 S
C865 C849 1.366 . S
C865 H857 0.950 . S
C865 C863 1.327 . S
C866 C854 1.363 . S
C866 H860 0.939 1_655 S
C866 C867 1.326 1_655 S
C867 H861 0.950 . S
C867 C866 1.326 1_455 S
C867 C871 1.428 1_455 S
C868 C851 1.574 . S
C868 H862 0.949 . S
C868 C872 1.368 . S
C869 C850 1.429 1_655 S
C869 C863 1.429 . S
C869 C870 1.523 . S
C870 C851 1.368 . S
C870 C864 1.368 1_655 S
C870 C869 1.523 . S
C871 C855 1.429 . S
C871 C867 1.428 1_655 S
C871 C872 1.523 . S
C872 C856 1.368 1_655 S
C872 C868 1.368 . S
C872 C871 1.523 . S
H873 C848 0.950 . S
H874 C850 0.950 . S
H875 C851 0.949 . S
H876 C853 0.950 . S
H877 C855 0.950 . S
C878 C879 1.321 1_545 S
C878 C880 1.327 . S
C878 H903 0.950 . S
C879 C878 1.321 1_565 S
C879 C895 1.379 . S
C880 C878 1.327 . S
C880 C899 1.429 1_545 S
C880 H904 0.950 . S
C881 C898 1.574 . S
C881 C900 1.368 . S
C881 H905 0.949 . S
H882 C886 0.949 . S
C883 C884 1.349 . S
C883 C885 1.327 . S
C883 H906 0.950 . S
C884 C883 1.349 . S
C884 C896 1.349 1_565 S
C885 C883 1.327 . S
C885 C901 1.429 . S
C885 H907 0.950 . S
C886 H882 0.949 . S
C886 C894 1.574 . S
C886 C902 1.368 1_545 S
H887 C895 0.950 . S
H888 C893 0.950 . S
H889 C894 0.949 . S
H890 C896 0.950 . S
H891 C897 0.950 . S
H892 C898 0.949 . S
C893 H888 0.950 . S
C893 C895 1.327 . S
C893 C899 1.429 . S
C894 C886 1.574 . S
C894 H889 0.949 . S
C894 C900 1.368 1_545 S
C895 C879 1.379 . S
C895 H887 0.950 . S
C895 C893 1.327 . S
C896 C884 1.349 1_545 S
C896 H890 0.950 . S
C896 C897 1.327 . S
C897 H891 0.950 . S
C897 C896 1.327 . S
C897 C901 1.429 1_545 S
C898 C881 1.574 . S
C898 H892 0.949 . S
C898 C902 1.368 . S
C899 C880 1.429 1_565 S
C899 C893 1.429 . S
C899 C900 1.523 . S
C900 C881 1.368 . S
C900 C894 1.368 1_565 S
C900 C899 1.523 . S
C901 C885 1.429 . S
C901 C897 1.429 1_565 S
C901 C902 1.523 . S
C902 C886 1.368 1_565 S
C902 C898 1.368 . S
C902 C901 1.523 . S
H903 C878 0.950 . S
H904 C880 0.950 . S
H905 C881 0.949 . S
H906 C883 0.950 . S
H907 C885 0.950 . S
C908 C909 1.349 . S
C908 C910 1.327 . S
C908 H933 0.950 . S
C909 C908 1.349 . S
C909 C925 1.349 . S
C910 C908 1.327 . S
C910 C929 1.429 . S
C910 H934 0.950 . S
C911 C928 1.574 . S
C911 C930 1.368 . S
C911 H935 0.949 . S
H912 C916 0.949 . S
C913 C914 1.349 . S
C913 C915 1.327 . S
C913 H936 0.950 . S
C914 C913 1.349 . S
C914 C926 1.349 . S
C915 C913 1.327 . S
C915 C931 1.429 . S
C915 H937 0.950 . S
C916 H912 0.949 . S
C916 C924 1.574 . S
C916 C932 1.368 . S
H917 C925 0.950 . S
H918 C923 0.950 . S
H919 C924 0.949 . S
H920 C926 0.950 . S
H921 C927 0.950 . S
H922 C928 0.949 . S
C923 H918 0.950 . S
C923 C925 1.327 . S
C923 C929 1.429 . S
C924 C916 1.574 . S
C924 H919 0.949 . S
C924 C930 1.368 . S
C925 C909 1.349 . S
C925 H917 0.950 . S
C925 C923 1.327 . S
C926 C914 1.349 . S
C926 H920 0.950 . S
C926 C927 1.327 . S
C927 H921 0.950 . S
C927 C926 1.327 . S
C927 C931 1.429 . S
C928 C911 1.574 . S
C928 H922 0.949 . S
C928 C932 1.368 . S
C929 C910 1.429 . S
C929 C923 1.429 . S
C929 C930 1.523 . S
C930 C911 1.368 . S
C930 C924 1.368 . S
C930 C929 1.523 . S
C931 C915 1.429 . S
C931 C927 1.429 . S
C931 C932 1.523 . S
C932 C916 1.368 . S
C932 C928 1.368 . S
C932 C931 1.523 . S
H933 C908 0.950 . S
H934 C910 0.950 . S
H935 C911 0.949 . S
H936 C913 0.950 . S
H937 C915 0.950 . S
C938 C939 1.349 . S
C938 C940 1.327 . S
C938 H963 0.950 . S
C939 C938 1.349 . S
C939 C955 1.349 . S
C940 C938 1.327 . S
C940 C959 1.429 . S
C940 H964 0.950 . S
C941 C958 1.574 . S
C941 C960 1.368 . S
C941 H965 0.949 . S
H942 C946 0.949 . S
C943 C944 1.349 . S
C943 C945 1.327 . S
C943 H966 0.950 . S
C944 C943 1.349 . S
C944 C956 1.349 . S
C945 C943 1.327 . S
C945 C961 1.429 . S
C945 H967 0.950 . S
C946 H942 0.949 . S
C946 C954 1.574 . S
C946 C962 1.368 . S
H947 C955 0.950 . S
H948 C953 0.950 . S
H949 C954 0.949 . S
H950 C956 0.950 . S
H951 C957 0.950 . S
H952 C958 0.949 . S
C953 H948 0.950 . S
C953 C955 1.327 . S
C953 C959 1.429 . S
C954 C946 1.574 . S
C954 H949 0.949 . S
C954 C960 1.368 . S
C955 C939 1.349 . S
C955 H947 0.950 . S
C955 C953 1.327 . S
C956 C944 1.349 . S
C956 H950 0.950 . S
C956 C957 1.327 . S
C957 H951 0.950 . S
C957 C956 1.327 . S
C957 C961 1.429 . S
C958 C941 1.574 . S
C958 H952 0.949 . S
C958 C962 1.368 . S
C959 C940 1.429 . S
C959 C953 1.429 . S
C959 C960 1.523 . S
C960 C941 1.368 . S
C960 C954 1.368 . S
C960 C959 1.523 . S
C961 C945 1.429 . S
C961 C957 1.429 . S
C961 C962 1.523 . S
C962 C946 1.368 . S
C962 C958 1.368 . S
C962 C961 1.523 . S
H963 C938 0.950 . S
H964 C940 0.950 . S
H965 C941 0.949 . S
H966 C943 0.950 . S
H967 C945 0.950 . S
C249 C76 1.764 1_545 S
C254 C106 1.848 1_545 S
C284 C146 1.857 . S
C279 C87 1.762 . S
C314 C186 1.859 . S
C309 C54 1.770 . S
C344 C226 1.854 1_455 S
C339 C65 1.766 1_455 S
C374 C96 1.853 1_565 S
C369 C32 1.771 1_545 S
C399 C43 1.767 . S
C404 C136 1.861 . S
C429 C10 1.769 . S
C434 C176 1.859 . S
C459 C21 1.767 . S
C464 C216 1.855 1_655 S
C494 C93 0.306 . S
C489 C60 0.374 . S
C524 C133 0.311 . S
C519 C71 0.378 . S
C554 C173 0.314 . S
C549 C82 0.376 . S
C579 C49 0.373 . S
C584 C213 0.305 . S
C609 C16 0.377 1_655 S
C614 C103 0.305 . S
C644 C143 0.311 . S
C639 C27 0.372 1_565 S
C674 C183 0.314 . S
C669 C38 0.385 . S
C699 C5 0.381 . S
C704 C223 0.314 . S
C729 C59 1.894 . S
C734 C97 2.070 . S
C759 C70 1.886 . S
C764 C137 2.067 . S
C794 C177 2.062 . S
C789 C81 1.880 . S
C824 C217 2.071 . S
C819 C48 1.883 . S
C849 C15 1.895 1_655 S
C854 C107 2.085 . S
C884 C147 2.067 . S
C879 C26 1.886 1_565 S
C914 C187 2.061 . S
C909 C37 1.882 . S
C939 C4 1.892 . S
C944 C227 2.078 . S
