# Generated by pormake.
# Topology zzz, (3,6)-cn, num edge types: 1
# Building blocks:
#     Node 0, Type 0, BuildingBlock: CUQRIR_clean_linker_1, # of connection points: 3
#     Node 1, Type 0, BuildingBlock: CUQRIR_clean_linker_1, # of connection points: 3
#     Node 2, Type 0, BuildingBlock: CUQRIR_clean_linker_1, # of connection points: 3
#     Node 3, Type 0, BuildingBlock: CUQRIR_clean_linker_1, # of connection points: 3
#     Node 4, Type 0, BuildingBlock: CUQRIR_clean_linker_1, # of connection points: 3
#     Node 5, Type 0, BuildingBlock: CUQRIR_clean_linker_1, # of connection points: 3
#     Node 6, Type 0, BuildingBlock: CUQRIR_clean_linker_1, # of connection points: 3
#     Node 7, Type 0, BuildingBlock: CUQRIR_clean_linker_1, # of connection points: 3
#     Node 8, Type 1, BuildingBlock: BETDAH_clean_sbu_0, # of connection points: 6
#     Node 9, Type 1, BuildingBlock: BETDAH_clean_sbu_0, # of connection points: 6
#     Node 10, Type 1, BuildingBlock: BETDAH_clean_sbu_0, # of connection points: 6
#     Node 11, Type 1, BuildingBlock: BETDAH_clean_sbu_0, # of connection points: 6
#     Edge 12, Type (0, 1), None
#     Edge 13, Type (0, 1), None
#     Edge 14, Type (0, 1), None
#     Edge 15, Type (0, 1), None
#     Edge 16, Type (0, 1), None
#     Edge 17, Type (0, 1), None
#     Edge 18, Type (0, 1), None
#     Edge 19, Type (0, 1), None
#     Edge 20, Type (0, 1), None
#     Edge 21, Type (0, 1), None
#     Edge 22, Type (0, 1), None
#     Edge 23, Type (0, 1), None
#     Edge 24, Type (0, 1), None
#     Edge 25, Type (0, 1), None
#     Edge 26, Type (0, 1), None
#     Edge 27, Type (0, 1), None
#     Edge 28, Type (0, 1), None
#     Edge 29, Type (0, 1), None
#     Edge 30, Type (0, 1), None
#     Edge 31, Type (0, 1), None
#     Edge 32, Type (0, 1), None
#     Edge 33, Type (0, 1), None
#     Edge 34, Type (0, 1), None
#     Edge 35, Type (0, 1), None
# Relax obj value: 0.940
# Max RMSD: 0.279
# Mean RMSD: 0.145
data_MOF--net-zzz--node1-BETDAH_clean_sbu_0--node2-CUQRIR_clean_linker_1--edge1-none
_symmetry_space_group_name_H-M    P1
_symmetry_Int_Tables_number       1
_symmetry_cell_setting            triclinic
loop_
_symmetry_equiv_pos_as_xyz
'x, y, z'
_cell_length_a     20.352658
_cell_length_b     19.474846
_cell_length_c     6.3397658
_cell_angle_alpha  89.428621
_cell_angle_beta   84.417296
_cell_angle_gamma 90.418267
loop_
_atom_site_label
_atom_site_type_symbol
_atom_site_fract_x
_atom_site_fract_y
_atom_site_fract_z
_atom_type_partial_charge
C0 C 0.76658 0.63641 0.48332 0.0
N1 N 0.82145 0.59142 0.48513 0.0
N2 N 0.71811 0.61663 0.34485 0.0
C3 C 0.76211 0.70118 0.60608 0.0
C4 C 0.75643 0.57374 0.22667 0.0
N5 N 0.80713 0.54996 0.32827 0.0
C6 C 0.76992 0.59196 0.99689 0.0
H7 H 0.71391 0.70286 0.70272 0.0
H8 H 0.76569 0.74474 0.49273 0.0
H9 H 0.80312 0.70629 0.70763 0.0
H10 H 0.80993 0.63117 0.98192 0.0
H11 H 0.72586 0.61379 0.93397 0.0
H12 H 0.78725 0.54855 0.89956 0.0
C13 C 0.97613 0.79471 0.34678 0.0
N14 N 1.01979 0.84146 0.44345 0.0
N15 N 1.00579 0.74848 0.1893 0.0
C16 C 0.90436 0.79205 0.40739 0.0
C17 C 0.06416 0.78125 0.165 0.0
N18 N 0.07693 0.82177 0.33457 0.0
C19 C 0.08107 0.80784 0.94577 0.0
H20 H 0.88367 0.74213 0.36185 0.0
H21 H 0.88225 0.83307 0.31617 0.0
H22 H 0.89413 0.79989 0.58027 0.0
H23 H 0.03487 0.81371 0.86931 0.0
H24 H 0.10982 0.77209 0.84211 0.0
H25 H 0.10393 0.85851 0.95132 0.0
C26 C 0.78792 0.9719 0.49245 0.0
N27 N 0.7251 1.00795 0.52363 0.0
N28 N 0.83312 0.99056 0.30363 0.0
C29 C 0.79469 0.90478 0.60257 0.0
C30 C 0.78676 1.02463 0.21075 0.0
N31 N 0.73496 1.04541 0.3447 0.0
C32 C 0.77399 1.0072 0.99224 0.0
H33 H 0.84333 0.90113 0.6647 0.0
H34 H 0.78908 0.86393 0.48624 0.0
H35 H 0.75445 0.8958 0.73008 0.0
H36 H 0.73998 0.96248 1.00568 0.0
H37 H 0.81728 0.99365 0.88945 0.0
H38 H 0.75244 0.05009 0.91358 0.0
C39 C 0.56988 0.80393 0.50988 0.0
N40 N 0.52797 0.75884 0.64559 0.0
N41 N 0.5376 0.84767 0.37 0.0
C42 C 0.64142 0.81203 0.52944 0.0
C43 C 0.47798 0.81693 0.4035 0.0
N44 N 0.46871 0.77774 0.58678 0.0
C45 C 0.44754 0.79411 0.21191 0.0
H46 H 0.65725 0.86579 0.49254 0.0
H47 H 0.66786 0.77885 0.40944 0.0
H48 H 0.65261 0.79802 0.69181 0.0
H49 H 0.47615 0.81147 0.06276 0.0
H50 H 0.39566 0.80848 0.20713 0.0
H51 H 0.44645 0.73827 0.22378 0.0
C52 C 0.3037 0.49613 0.70949 0.0
N53 N 0.23992 0.50947 0.81655 0.0
N54 N 0.35386 0.48592 0.8494 0.0
C55 C 0.30992 0.45902 0.50864 0.0
C56 C 0.31098 0.47237 0.01673 0.0
N57 N 0.25755 0.51114 0.00833 0.0
C58 C 0.30053 0.39724 0.07245 0.0
H59 H 0.26078 0.45413 0.44966 0.0
H60 H 0.32852 0.40676 0.53726 0.0
H61 H 0.34719 0.48482 0.39738 0.0
H62 H 0.3408 0.37954 0.16252 0.0
H63 H 0.30187 0.36571 0.92703 0.0
H64 H 0.25247 0.3884 0.16604 0.0
C65 C 0.06036 0.3123 0.24197 0.0
N66 N 1.01708 0.25578 0.20512 0.0
N67 N 0.0394 0.3551 0.41935 0.0
C68 C 0.1245 0.32454 0.11204 0.0
C69 C 0.99192 0.31236 0.50241 0.0
N70 N 0.9696 0.26796 0.36179 0.0
C71 C 0.98879 0.29269 0.72919 0.0
H72 H 0.16443 0.31513 0.21482 0.0
H73 H 0.13036 0.29017 0.97322 0.0
H74 H 0.12909 0.379 0.06011 0.0
H75 H 0.97183 0.33476 0.83364 0.0
H76 H 0.03924 0.27894 0.76473 0.0
H77 H 0.95595 0.24828 0.75548 0.0
C78 C 0.24021 0.1182 0.30119 0.0
N79 N 0.30511 0.08798 0.30774 0.0
N80 N 0.19187 0.10098 0.47827 0.0
C81 C 0.23647 0.19017 0.2173 0.0
C82 C 0.23837 0.08758 0.60616 0.0
N83 N 0.2945 0.06461 0.50657 0.0
C84 C 0.24243 0.12708 0.80047 0.0
H85 H 0.23367 0.22581 0.35344 0.0
H86 H 0.19023 0.19693 0.14168 0.0
H87 H 0.28111 0.20515 0.1121 0.0
H88 H 0.20983 0.10127 0.92497 0.0
H89 H 0.22564 0.18055 0.7768 0.0
H90 H 0.29378 0.12851 0.84319 0.0
C91 C 0.48072 0.29231 0.44531 0.0
N92 N 0.52685 0.34659 0.38903 0.0
N93 N 0.49965 0.24693 0.60467 0.0
C94 C 0.41916 0.28062 0.34048 0.0
C95 C 0.54971 0.28416 0.66518 0.0
N96 N 0.57248 0.33306 0.52182 0.0
C97 C 0.55389 0.29314 0.8967 0.0
H98 H 0.37664 0.30057 0.44353 0.0
H99 H 0.42206 0.30653 0.18438 0.0
H100 H 0.41053 0.2248 0.32179 0.0
H101 H 0.55035 0.24405 0.98508 0.0
H102 H 0.50947 0.32185 0.95415 0.0
H103 H 0.598 0.3218 0.93067 0.0
Ho104 Ho 0.05132 1.0374 0.9276 0.0
Ho105 Ho 0.97365 1.04692 0.80553 0.0
C106 C 1.0104 0.90281 0.58783 0.0
C107 C 0.15033 0.99493 0.12327 0.0
C108 C 0.17646 0.93836 0.2338 0.0
C109 C 0.16627 0.93434 0.45462 0.0
C110 C 0.15948 0.86944 0.54525 0.0
C111 C 0.14355 0.81904 0.40764 0.0
C112 C 0.19515 0.81852 0.24272 0.0
C113 C 0.20464 0.88027 0.13107 0.0
C114 C 0.12245 0.10929 0.5664 0.0
C115 C 1.02274 0.1899 0.08586 0.0
C116 C 0.87755 0.09349 0.60513 0.0
C117 C 0.8557 0.15414 0.50336 0.0
C118 C 0.86554 0.16172 0.28208 0.0
C119 C 0.87565 0.22706 0.19863 0.0
C120 C 0.89921 0.27147 0.33966 0.0
C121 C 0.85679 0.27498 0.53016 0.0
C122 C 0.83805 0.21247 0.62176 0.0
C123 C 0.90126 0.98046 0.19185 0.0
O124 O 0.05397 0.93029 0.7142 0.0
O125 O 0.95938 0.94391 0.60728 0.0
O126 O 0.09805 1.02367 0.21565 0.0
O127 O 0.1444 0.98559 0.92552 0.0
O128 O 0.10879 0.12971 0.7608 0.0
O129 O 0.07803 0.05901 0.58351 0.0
O130 O 0.97579 0.15966 0.97985 0.0
O131 O 0.07141 0.14611 0.08402 0.0
O132 O 0.93022 0.06526 0.51471 0.0
O133 O 0.88062 0.09776 0.80627 0.0
O134 O 0.91159 0.95905 0.9955 0.0
O135 O 0.94764 1.02919 0.15769 0.0
H136 H 0.16658 0.9782 0.55141 0.0
H137 H 0.18193 0.85814 0.68775 0.0
H138 H 0.23382 0.78112 0.23206 0.0
H139 H 0.23159 0.88202 0.97705 0.0
H140 H 0.87034 0.11934 0.17861 0.0
H141 H 0.88564 0.23599 0.03213 0.0
H142 H 0.85761 0.31659 0.64018 0.0
H143 H 0.8204 0.20979 0.78707 0.0
Ho144 Ho 0.53196 0.05988 0.0309 0.0
Ho145 Ho 0.50484 1.02709 0.87509 0.0
C146 C 0.65967 1.00946 0.66859 0.0
C147 C 0.57694 0.13208 0.32252 0.0
C148 C 0.62127 0.19049 0.3424 0.0
C149 C 0.64981 0.18362 0.53492 0.0
C150 C 0.70609 0.14733 0.53884 0.0
C151 C 0.72864 0.11799 0.34999 0.0
C152 C 0.72265 0.15726 0.16456 0.0
C153 C 0.66791 0.19931 0.1663 0.0
C154 C 0.48025 0.18152 0.7036 0.0
C155 C 0.37215 0.08042 0.18232 0.0
C156 C 0.45642 0.95895 0.59019 0.0
C157 C 0.3991 0.91684 0.59771 0.0
C158 C 0.37274 0.91764 0.40239 0.0
C159 C 0.31594 0.95103 0.38504 0.0
C160 C 0.29802 0.99391 0.55126 0.0
C161 C 0.30575 0.97133 0.75837 0.0
C162 C 0.35561 0.92472 0.78031 0.0
C163 C 0.55495 0.90625 0.22325 0.0
O164 O 0.64462 1.0156 0.88194 0.0
O165 O 0.60081 1.02419 0.61013 0.0
O166 O 0.51975 0.14323 0.25671 0.0
O167 O 0.60494 0.07763 0.23706 0.0
O168 O 0.52647 0.1389 0.76017 0.0
O169 O 0.52511 0.13809 0.76436 0.0
O170 O 0.39033 0.07202 0.97526 0.0
O171 O 0.42843 0.06581 0.26217 0.0
O172 O 0.44108 1.02199 0.6358 0.0
O173 O 0.50562 0.93643 0.68564 0.0
O174 O 0.50887 0.94892 0.15988 0.0
O175 O 0.51036 0.94967 0.15556 0.0
H176 H 0.62647 0.19221 0.68843 0.0
H177 H 0.72049 0.1295 0.68857 0.0
H178 H 0.75321 0.15005 0.01978 0.0
H179 H 0.6553 0.2199 0.01864 0.0
H180 H 0.40178 0.91385 0.25579 0.0
H181 H 0.30391 0.96288 0.22744 0.0
H182 H 0.285 0.99885 0.89534 0.0
H183 H 0.37243 0.91643 0.93392 0.0
Ho184 Ho 0.50075 0.57054 0.14892 0.0
Ho185 Ho 0.57117 0.54703 0.96293 0.0
C186 C 0.53979 0.69847 0.78271 0.0
C187 C 0.40413 0.60463 0.41981 0.0
C188 C 0.37458 0.6557 0.55658 0.0
C189 C 0.38835 0.65719 0.76694 0.0
C190 C 0.39208 0.72106 0.85665 0.0
C191 C 0.40307 0.77404 0.71092 0.0
C192 C 0.34808 0.77288 0.59048 0.0
C193 C 0.34137 0.71259 0.48082 0.0
C194 C 0.4225 0.49024 0.88932 0.0
C195 C 0.52346 0.41277 0.2769 0.0
C196 C 0.67607 0.50688 0.73887 0.0
C197 C 0.69065 0.44904 0.60547 0.0
C198 C 0.67311 0.44725 0.39756 0.0
C199 C 0.66346 0.38447 0.3084 0.0
C200 C 0.64289 0.33533 0.45696 0.0
C201 C 0.68678 0.32772 0.61465 0.0
C202 C 0.70884 0.38724 0.6979 0.0
C203 C 0.6545 0.63766 0.28076 0.0
O204 O 0.50477 0.68122 0.96599 0.0
O205 O 0.57837 0.64596 0.72985 0.0
O206 O 0.40697 0.61798 0.21948 0.0
O207 O 0.45848 0.57786 0.47262 0.0
O208 O 0.43644 0.47838 0.079 0.0
O209 O 0.46692 0.53677 0.83096 0.0
O210 O 0.54914 0.42814 0.07759 0.0
O211 O 0.50935 0.47178 0.37025 0.0
O212 O 0.65876 0.48886 0.9325 0.0
O213 O 0.63726 0.55364 0.67418 0.0
O214 O 0.60548 0.59293 0.26601 0.0
O215 O 0.60514 0.59266 0.2629 0.0
H216 H 0.37972 0.61291 0.86361 0.0
H217 H 0.3617 0.72786 1.00315 0.0
H218 H 0.31505 0.81473 0.57139 0.0
H219 H 0.31618 0.71211 0.33912 0.0
H220 H 0.66331 0.49148 0.31124 0.0
H221 H 0.65085 0.38093 0.14953 0.0
H222 H 0.68827 0.28403 0.71771 0.0
H223 H 0.72827 0.38441 0.84943 0.0
Ho224 Ho 1.01656 0.53272 0.8301 0.0
Ho225 Ho 0.03955 0.58808 0.64571 0.0
C226 C 0.88502 0.59125 0.58325 0.0
C227 C 0.97365 0.47069 0.17701 0.0
C228 C 0.92518 0.41829 0.23976 0.0
C229 C 0.90117 0.42327 0.45508 0.0
C230 C 0.83949 0.44819 0.50437 0.0
C231 C 0.81205 0.47726 0.33669 0.0
C232 C 0.81814 0.44052 0.1475 0.0
C233 C 0.87782 0.40876 0.09598 0.0
C234 C 0.05456 0.41962 0.52429 0.0
C235 C 0.17071 0.52244 0.79038 0.0
C236 C 0.10515 0.66961 0.38182 0.0
C237 C 0.1653 0.65064 0.26702 0.0
C238 C 0.18649 0.58949 0.33743 0.0
C239 C 0.2509 0.5775 0.30163 0.0
C240 C 0.26703 0.57772 0.08997 0.0
C241 C 0.24733 0.63651 0.97593 0.0
C242 C 0.19457 0.67427 0.07019 0.0
C243 C 0.98719 0.69266 0.04662 0.0
O244 O 0.90339 0.54638 0.72997 0.0
O245 O 0.93998 0.62061 0.50065 0.0
O246 O 0.02484 0.45131 0.05719 0.0
O247 O 0.9493 0.52799 0.11188 0.0
O248 O 0.05571 0.42315 0.72893 0.0
O249 O 0.02814 0.48035 0.49542 0.0
O250 O 0.13816 0.51772 0.62682 0.0
O251 O 0.12556 0.5439 0.93606 0.0
O252 O 0.10998 0.67088 0.58335 0.0
O253 O 0.05442 0.63395 0.3383 0.0
O254 O 0.03095 0.64595 0.96864 0.0
O255 O 0.03031 0.6451 0.96309 0.0
H256 H 0.93042 0.4216 0.58566 0.0
H257 H 0.82403 0.46231 0.66502 0.0
H258 H 0.78625 0.44955 0.02667 0.0
H259 H 0.89115 0.39895 0.93121 0.0
H260 H 0.15503 0.54803 0.29093 0.0
H261 H 0.27858 0.60743 0.3976 0.0
H262 H 0.25856 0.64209 0.8069 0.0
H263 H 0.17611 0.7155 0.98485 0.0
loop_
_geom_bond_atom_site_label_1
_geom_bond_atom_site_label_2
_geom_bond_distance
_geom_bond_site_symmetry_2
_ccdc_geom_bond_type
C0 N1 1.317 . S
C0 N2 1.348 . S
C0 C3 1.485 1_556 S
N1 C0 1.317 . S
N1 N5 1.370 . S
N2 C0 1.348 . S
N2 C4 1.346 . S
C3 C0 1.485 1_554 S
C3 H7 0.960 . S
C3 H8 0.961 . S
C3 H9 0.960 . S
C4 N2 1.346 . S
C4 N5 1.307 . S
C4 C6 1.486 . S
N5 N1 1.370 . S
N5 C4 1.307 . S
C6 C4 1.486 . S
C6 H10 0.960 . S
C6 H11 0.960 . S
C6 H12 0.959 . S
H7 C3 0.960 . S
H8 C3 0.961 . S
H9 C3 0.960 . S
H10 C6 0.960 . S
H11 C6 0.960 . S
H12 C6 0.959 . S
C13 N14 1.317 . S
C13 N15 1.348 . S
C13 C16 1.485 1_556 S
N14 C13 1.317 . S
N14 N18 1.371 . S
N15 C13 1.348 . S
N15 C17 1.346 1_655 S
C16 C13 1.485 1_554 S
C16 H20 0.960 1_655 S
C16 H21 0.961 . S
C16 H22 0.960 . S
C17 N15 1.346 1_455 S
C17 N18 1.307 1_455 S
C17 C19 1.486 . S
N18 N14 1.371 . S
N18 C17 1.307 1_655 S
C19 C17 1.486 . S
C19 H23 0.960 1_455 S
C19 H24 0.960 . S
C19 H25 0.959 . S
H20 C16 0.960 1_455 S
H21 C16 0.961 . S
H22 C16 0.960 . S
H23 C19 0.960 1_655 S
H24 C19 0.960 . S
H25 C19 0.959 . S
C26 N27 1.317 . S
C26 N28 1.348 . S
C26 C29 1.485 1_556 S
N27 C26 1.317 . S
N27 N31 1.371 . S
N28 C26 1.348 . S
N28 C30 1.346 1_565 S
C29 C26 1.485 1_554 S
C29 H33 0.960 1_565 S
C29 H34 0.961 . S
C29 H35 0.960 . S
C30 N28 1.346 1_545 S
C30 N31 1.307 1_545 S
C30 C32 1.486 . S
N31 N27 1.371 . S
N31 C30 1.307 1_565 S
C32 C30 1.486 . S
C32 H36 0.960 1_545 S
C32 H37 0.960 . S
C32 H38 0.959 . S
H33 C29 0.960 1_545 S
H34 C29 0.961 . S
H35 C29 0.960 . S
H36 C32 0.960 1_565 S
H37 C32 0.960 . S
H38 C32 0.959 . S
C39 N40 1.317 . S
C39 N41 1.348 . S
C39 C42 1.485 1_556 S
N40 C39 1.317 . S
N40 N44 1.370 . S
N41 C39 1.348 . S
N41 C43 1.346 . S
C42 C39 1.485 1_554 S
C42 H46 0.960 . S
C42 H47 0.961 . S
C42 H48 0.960 . S
C43 N41 1.346 . S
C43 N44 1.307 . S
C43 C45 1.486 . S
N44 N40 1.370 . S
N44 C43 1.307 . S
C45 C43 1.486 . S
C45 H49 0.960 . S
C45 H50 0.960 . S
C45 H51 0.959 . S
H46 C42 0.960 . S
H47 C42 0.961 . S
H48 C42 0.960 . S
H49 C45 0.960 . S
H50 C45 0.960 . S
H51 C45 0.959 . S
C52 N53 1.317 . S
C52 N54 1.348 1_556 S
C52 C55 1.485 . S
N53 C52 1.317 . S
N53 N57 1.370 1_556 S
N54 C52 1.348 1_554 S
N54 C56 1.346 . S
C55 C52 1.485 . S
C55 H59 0.960 . S
C55 H60 0.961 . S
C55 H61 0.960 . S
C56 N54 1.346 . S
C56 N57 1.307 . S
C56 C58 1.486 . S
N57 N53 1.370 1_554 S
N57 C56 1.307 . S
C58 C56 1.486 . S
C58 H62 0.960 . S
C58 H63 0.960 . S
C58 H64 0.959 . S
H59 C55 0.960 . S
H60 C55 0.961 . S
H61 C55 0.960 . S
H62 C58 0.960 . S
H63 C58 0.960 . S
H64 C58 0.959 . S
C65 N66 1.317 . S
C65 N67 1.348 1_556 S
C65 C68 1.485 . S
N66 C65 1.317 . S
N66 N70 1.371 1_556 S
N67 C65 1.348 1_554 S
N67 C69 1.346 1_655 S
C68 C65 1.485 . S
C68 H72 0.960 1_655 S
C68 H73 0.961 . S
C68 H74 0.960 . S
C69 N67 1.346 1_455 S
C69 N70 1.307 1_455 S
C69 C71 1.487 . S
N70 N66 1.371 1_554 S
N70 C69 1.307 1_655 S
C71 C69 1.487 . S
C71 H75 0.960 1_455 S
C71 H76 0.960 . S
C71 H77 0.959 . S
H72 C68 0.960 1_455 S
H73 C68 0.961 . S
H74 C68 0.960 . S
H75 C71 0.960 1_655 S
H76 C71 0.960 . S
H77 C71 0.959 . S
C78 N79 1.317 . S
C78 N80 1.348 1_556 S
C78 C81 1.485 . S
N79 C78 1.317 . S
N79 N83 1.371 1_556 S
N80 C78 1.348 1_554 S
N80 C82 1.346 1_565 S
C81 C78 1.485 . S
C81 H85 0.960 1_565 S
C81 H86 0.961 . S
C81 H87 0.960 . S
C82 N80 1.346 1_545 S
C82 N83 1.307 1_545 S
C82 C84 1.487 . S
N83 N79 1.371 1_554 S
N83 C82 1.307 1_565 S
C84 C82 1.487 . S
C84 H88 0.960 1_545 S
C84 H89 0.960 . S
C84 H90 0.959 . S
H85 C81 0.960 1_545 S
H86 C81 0.961 . S
H87 C81 0.960 . S
H88 C84 0.960 1_565 S
H89 C84 0.960 . S
H90 C84 0.959 . S
C91 N92 1.317 . S
C91 N93 1.348 1_556 S
C91 C94 1.485 . S
N92 C91 1.317 . S
N92 N96 1.370 1_556 S
N93 C91 1.348 1_554 S
N93 C95 1.346 . S
C94 C91 1.485 . S
C94 H98 0.960 . S
C94 H99 0.961 . S
C94 H100 0.960 . S
C95 N93 1.346 . S
C95 N96 1.307 . S
C95 C97 1.486 . S
N96 N92 1.370 1_554 S
N96 C95 1.307 . S
C97 C95 1.486 . S
C97 H101 0.960 . S
C97 H102 0.960 . S
C97 H103 0.959 . S
H98 C94 0.960 . S
H99 C94 0.961 . S
H100 C94 0.960 . S
H101 C97 0.960 . S
H102 C97 0.960 . S
H103 C97 0.959 . S
Ho104 C107 2.811 . S
Ho104 O124 2.322 1_554 S
Ho104 O126 2.378 . S
Ho104 O127 2.524 . S
Ho104 O128 2.381 1_554 S
Ho104 O129 2.669 1_564 S
Ho104 O131 2.346 1_565 S
Ho104 O135 2.305 1_455 S
Ho105 C116 2.811 . S
Ho105 O125 2.346 1_545 S
Ho105 O129 2.305 1_655 S
Ho105 O130 2.322 . S
Ho105 O132 2.378 . S
Ho105 O133 2.524 . S
Ho105 O134 2.381 . S
Ho105 O135 2.669 1_546 S
C106 O124 1.259 1_655 S
C106 O125 1.268 . S
C107 Ho104 2.811 . S
C107 C108 1.488 . S
C107 O126 1.215 . S
C107 O127 1.289 . S
C108 C107 1.488 . S
C108 C109 1.348 . S
C108 C113 1.413 . S
C109 C108 1.348 . S
C109 C110 1.442 . S
C109 H136 0.930 . S
C110 C109 1.442 . S
C110 C111 1.381 . S
C110 H137 0.931 . S
C111 C110 1.381 . S
C111 C112 1.321 . S
C112 C111 1.321 . S
C112 C113 1.403 . S
C112 H138 0.934 . S
C113 C108 1.413 . S
C113 C112 1.403 . S
C113 H139 0.930 . S
C114 O128 1.275 . S
C114 O129 1.256 1_565 S
C115 O130 1.259 1_455 S
C115 O131 1.268 1_556 S
C116 Ho105 2.811 . S
C116 C117 1.488 . S
C116 O132 1.215 . S
C116 O133 1.289 . S
C117 C116 1.488 . S
C117 C118 1.348 . S
C117 C122 1.413 . S
C118 C117 1.348 . S
C118 C119 1.442 . S
C118 H140 0.930 . S
C119 C118 1.442 . S
C119 C120 1.381 . S
C119 H141 0.931 . S
C120 C119 1.381 . S
C120 C121 1.321 . S
C121 C120 1.321 . S
C121 C122 1.403 . S
C121 H142 0.934 . S
C122 C117 1.413 . S
C122 C121 1.403 . S
C122 H143 0.930 . S
C123 O134 1.275 1_554 S
C123 O135 1.256 1_545 S
O124 Ho104 2.322 1_556 S
O124 C106 1.259 1_455 S
O125 Ho105 2.346 1_565 S
O125 C106 1.268 . S
O126 Ho104 2.378 . S
O126 C107 1.215 . S
O127 Ho104 2.524 . S
O127 C107 1.289 . S
O128 Ho104 2.381 1_556 S
O128 C114 1.275 . S
O129 Ho104 2.669 1_546 S
O129 Ho105 2.305 1_455 S
O129 C114 1.256 1_545 S
O130 Ho105 2.322 . S
O130 C115 1.259 1_655 S
O131 Ho104 2.346 1_545 S
O131 C115 1.268 1_554 S
O132 Ho105 2.378 . S
O132 C116 1.215 . S
O133 Ho105 2.524 . S
O133 C116 1.289 . S
O134 Ho105 2.381 . S
O134 C123 1.275 1_556 S
O135 Ho104 2.305 1_655 S
O135 Ho105 2.669 1_564 S
O135 C123 1.256 1_565 S
H136 C109 0.930 . S
H137 C110 0.931 . S
H138 C112 0.934 . S
H139 C113 0.930 . S
H140 C118 0.930 . S
H141 C119 0.931 . S
H142 C121 0.934 . S
H143 C122 0.930 . S
Ho144 C147 2.811 . S
Ho144 O164 2.322 1_554 S
Ho144 O166 2.378 . S
Ho144 O167 2.524 . S
Ho144 O168 2.381 1_554 S
Ho144 O169 2.669 1_554 S
Ho144 O171 2.346 . S
Ho144 O175 2.305 1_545 S
Ho145 C156 2.811 . S
Ho145 O165 2.346 . S
Ho145 O169 2.305 1_565 S
Ho145 O170 2.322 . S
Ho145 O172 2.378 . S
Ho145 O173 2.524 . S
Ho145 O174 2.381 . S
Ho145 O175 2.669 1_556 S
C146 O164 1.259 1_565 S
C146 O165 1.268 . S
C147 Ho144 2.811 . S
C147 C148 1.488 . S
C147 O166 1.215 . S
C147 O167 1.289 . S
C148 C147 1.488 . S
C148 C149 1.348 . S
C148 C153 1.413 . S
C149 C148 1.348 . S
C149 C150 1.442 . S
C149 H176 0.930 . S
C150 C149 1.442 . S
C150 C151 1.381 . S
C150 H177 0.931 . S
C151 C150 1.381 . S
C151 C152 1.321 . S
C152 C151 1.321 . S
C152 C153 1.403 . S
C152 H178 0.934 . S
C153 C148 1.413 . S
C153 C152 1.403 . S
C153 H179 0.930 . S
C154 O168 1.275 . S
C154 O169 1.256 . S
C155 O170 1.259 1_545 S
C155 O171 1.268 1_556 S
C156 Ho145 2.811 . S
C156 C157 1.488 . S
C156 O172 1.215 . S
C156 O173 1.289 . S
C157 C156 1.488 . S
C157 C158 1.348 . S
C157 C162 1.413 . S
C158 C157 1.348 . S
C158 C159 1.442 . S
C158 H180 0.930 . S
C159 C158 1.442 . S
C159 C160 1.381 . S
C159 H181 0.931 . S
C160 C159 1.381 . S
C160 C161 1.321 . S
C161 C160 1.321 . S
C161 C162 1.403 . S
C161 H182 0.934 . S
C162 C157 1.413 . S
C162 C161 1.403 . S
C162 H183 0.930 . S
C163 O174 1.275 1_554 S
C163 O175 1.256 . S
O164 Ho144 2.322 1_556 S
O164 C146 1.259 1_545 S
O165 Ho145 2.346 . S
O165 C146 1.268 . S
O166 Ho144 2.378 . S
O166 C147 1.215 . S
O167 Ho144 2.524 . S
O167 C147 1.289 . S
O168 Ho144 2.381 1_556 S
O168 C154 1.275 . S
O169 Ho144 2.669 1_556 S
O169 Ho145 2.305 1_545 S
O169 C154 1.256 . S
O170 Ho145 2.322 . S
O170 C155 1.259 1_565 S
O171 Ho144 2.346 . S
O171 C155 1.268 1_554 S
O172 Ho145 2.378 . S
O172 C156 1.215 . S
O173 Ho145 2.524 . S
O173 C156 1.289 . S
O174 Ho145 2.381 . S
O174 C163 1.275 1_556 S
O175 Ho144 2.305 1_565 S
O175 Ho145 2.669 1_554 S
O175 C163 1.256 . S
H176 C149 0.930 . S
H177 C150 0.931 . S
H178 C152 0.934 . S
H179 C153 0.930 . S
H180 C158 0.930 . S
H181 C159 0.931 . S
H182 C161 0.934 . S
H183 C162 0.930 . S
Ho184 C187 2.811 . S
Ho184 O204 2.322 1_554 S
Ho184 O206 2.378 . S
Ho184 O207 2.524 . S
Ho184 O208 2.381 1_554 S
Ho184 O209 2.669 1_554 S
Ho184 O211 2.346 . S
Ho184 O215 2.305 . S
Ho185 C196 2.811 . S
Ho185 O205 2.346 . S
Ho185 O209 2.305 . S
Ho185 O210 2.322 . S
Ho185 O212 2.378 . S
Ho185 O213 2.524 . S
Ho185 O214 2.381 . S
Ho185 O215 2.669 1_556 S
C186 O204 1.259 . S
C186 O205 1.268 . S
C187 Ho184 2.811 . S
C187 C188 1.488 . S
C187 O206 1.215 . S
C187 O207 1.289 . S
C188 C187 1.488 . S
C188 C189 1.348 . S
C188 C193 1.413 . S
C189 C188 1.348 . S
C189 C190 1.442 . S
C189 H216 0.930 . S
C190 C189 1.442 . S
C190 C191 1.381 . S
C190 H217 0.931 . S
C191 C190 1.381 . S
C191 C192 1.321 . S
C192 C191 1.321 . S
C192 C193 1.403 . S
C192 H218 0.934 . S
C193 C188 1.413 . S
C193 C192 1.403 . S
C193 H219 0.930 . S
C194 O208 1.275 . S
C194 O209 1.256 . S
C195 O210 1.259 . S
C195 O211 1.268 1_556 S
C196 Ho185 2.811 . S
C196 C197 1.488 . S
C196 O212 1.215 . S
C196 O213 1.289 . S
C197 C196 1.488 . S
C197 C198 1.348 . S
C197 C202 1.413 . S
C198 C197 1.348 . S
C198 C199 1.442 . S
C198 H220 0.930 . S
C199 C198 1.442 . S
C199 C200 1.381 . S
C199 H221 0.931 . S
C200 C199 1.381 . S
C200 C201 1.321 . S
C201 C200 1.321 . S
C201 C202 1.403 . S
C201 H222 0.934 . S
C202 C197 1.413 . S
C202 C201 1.403 . S
C202 H223 0.930 . S
C203 O214 1.275 1_554 S
C203 O215 1.256 . S
O204 Ho184 2.322 1_556 S
O204 C186 1.259 . S
O205 Ho185 2.346 . S
O205 C186 1.268 . S
O206 Ho184 2.378 . S
O206 C187 1.215 . S
O207 Ho184 2.524 . S
O207 C187 1.289 . S
O208 Ho184 2.381 1_556 S
O208 C194 1.275 . S
O209 Ho184 2.669 1_556 S
O209 Ho185 2.305 . S
O209 C194 1.256 . S
O210 Ho185 2.322 . S
O210 C195 1.259 . S
O211 Ho184 2.346 . S
O211 C195 1.268 1_554 S
O212 Ho185 2.378 . S
O212 C196 1.215 . S
O213 Ho185 2.524 . S
O213 C196 1.289 . S
O214 Ho185 2.381 . S
O214 C203 1.275 1_556 S
O215 Ho184 2.305 . S
O215 Ho185 2.669 1_554 S
O215 C203 1.256 . S
H216 C189 0.930 . S
H217 C190 0.931 . S
H218 C192 0.934 . S
H219 C193 0.930 . S
H220 C198 0.930 . S
H221 C199 0.931 . S
H222 C201 0.934 . S
H223 C202 0.930 . S
Ho224 C227 2.811 . S
Ho224 O244 2.322 1_554 S
Ho224 O246 2.378 . S
Ho224 O247 2.524 . S
Ho224 O248 2.381 1_554 S
Ho224 O249 2.669 1_654 S
Ho224 O251 2.346 1_655 S
Ho224 O255 2.305 . S
Ho225 C236 2.811 . S
Ho225 O245 2.346 1_455 S
Ho225 O249 2.305 . S
Ho225 O250 2.322 . S
Ho225 O252 2.378 . S
Ho225 O253 2.524 . S
Ho225 O254 2.381 . S
Ho225 O255 2.669 1_456 S
C226 O244 1.259 . S
C226 O245 1.268 . S
C227 Ho224 2.811 . S
C227 C228 1.488 . S
C227 O246 1.215 . S
C227 O247 1.289 . S
C228 C227 1.488 . S
C228 C229 1.348 . S
C228 C233 1.413 . S
C229 C228 1.348 . S
C229 C230 1.442 . S
C229 H256 0.930 . S
C230 C229 1.442 . S
C230 C231 1.381 . S
C230 H257 0.931 . S
C231 C230 1.381 . S
C231 C232 1.321 . S
C232 C231 1.321 . S
C232 C233 1.403 . S
C232 H258 0.934 . S
C233 C228 1.413 . S
C233 C232 1.403 . S
C233 H259 0.930 . S
C234 O248 1.279 . S
C234 O249 1.253 1_655 S
C235 O250 1.259 . S
C235 O251 1.268 1_556 S
C236 Ho225 2.811 . S
C236 C237 1.488 . S
C236 O252 1.215 . S
C236 O253 1.289 . S
C237 C236 1.488 . S
C237 C238 1.348 . S
C237 C242 1.413 . S
C238 C237 1.348 . S
C238 C239 1.442 . S
C238 H260 0.930 . S
C239 C238 1.442 . S
C239 C240 1.381 . S
C239 H261 0.931 . S
C240 C239 1.381 . S
C240 C241 1.321 . S
C241 C240 1.321 . S
C241 C242 1.403 . S
C241 H262 0.934 . S
C242 C237 1.413 . S
C242 C241 1.403 . S
C242 H263 0.930 . S
C243 O254 1.281 1_554 S
C243 O255 1.252 1_455 S
O244 Ho224 2.322 1_556 S
O244 C226 1.259 . S
O245 Ho225 2.346 1_655 S
O245 C226 1.268 . S
O246 Ho224 2.378 . S
O246 C227 1.215 . S
O247 Ho224 2.524 . S
O247 C227 1.289 . S
O248 Ho224 2.381 1_556 S
O248 C234 1.279 . S
O249 Ho224 2.669 1_456 S
O249 Ho225 2.305 . S
O249 C234 1.253 1_455 S
O250 Ho225 2.322 . S
O250 C235 1.259 . S
O251 Ho224 2.346 1_455 S
O251 C235 1.268 1_554 S
O252 Ho225 2.378 . S
O252 C236 1.215 . S
O253 Ho225 2.524 . S
O253 C236 1.289 . S
O254 Ho225 2.381 . S
O254 C243 1.281 1_556 S
O255 Ho224 2.305 . S
O255 Ho225 2.669 1_654 S
O255 C243 1.252 1_655 S
H256 C229 0.930 . S
H257 C230 0.931 . S
H258 C232 0.934 . S
H259 C233 0.930 . S
H260 C238 0.930 . S
H261 C239 0.931 . S
H262 C241 0.934 . S
H263 C242 0.930 . S
N80 C114 2.866 1_554 S
C154 N93 2.892 1_556 S
C194 N54 2.893 1_556 S
C234 N67 2.835 1_556 S
C123 N28 2.871 1_544 S
N41 C163 2.882 1_556 S
N2 C203 2.879 1_556 S
N15 C243 2.836 1_656 S
C120 N70 2.762 . S
C160 N83 2.588 . S
C200 N96 2.513 . S
N57 C240 2.652 . S
N18 C111 2.770 1_655 S
C151 N31 2.597 1_545 S
C191 N44 2.538 . S
N5 C231 2.676 . S
N66 C115 4.069 1_655 S
N79 C155 3.992 1_565 S
C195 N92 4.000 . S
C235 N53 4.071 . S
N14 C106 4.050 . S
C146 N27 3.967 . S
C186 N40 3.959 . S
N1 C226 4.038 . S
