# Generated by pormake.
# Topology sqc, (4,8)-cn, num edge types: 1
# Building blocks:
#     Node 0, Type 0, BuildingBlock: NAHDIM_clean_linker_0, # of connection points: 4
#     Node 1, Type 0, BuildingBlock: NAHDIM_clean_linker_0, # of connection points: 4
#     Node 2, Type 0, BuildingBlock: NAHDIM_clean_linker_0, # of connection points: 4
#     Node 3, Type 0, BuildingBlock: NAHDIM_clean_linker_0, # of connection points: 4
#     Node 4, Type 0, BuildingBlock: NAHDIM_clean_linker_0, # of connection points: 4
#     Node 5, Type 0, BuildingBlock: NAHDIM_clean_linker_0, # of connection points: 4
#     Node 6, Type 0, BuildingBlock: NAHDIM_clean_linker_0, # of connection points: 4
#     Node 7, Type 0, BuildingBlock: NAHDIM_clean_linker_0, # of connection points: 4
#     Node 8, Type 1, BuildingBlock: TAGTUT_clean_sbu_3, # of connection points: 8
#     Node 9, Type 1, BuildingBlock: TAGTUT_clean_sbu_3, # of connection points: 8
#     Node 10, Type 1, BuildingBlock: TAGTUT_clean_sbu_3, # of connection points: 8
#     Node 11, Type 1, BuildingBlock: TAGTUT_clean_sbu_3, # of connection points: 8
#     Edge 12, Type (0, 1), BuildingBlock: UVAHIK_clean_linker_0, # of connection points: 2
#     Edge 13, Type (0, 1), BuildingBlock: UVAHIK_clean_linker_0, # of connection points: 2
#     Edge 14, Type (0, 1), BuildingBlock: UVAHIK_clean_linker_0, # of connection points: 2
#     Edge 15, Type (0, 1), BuildingBlock: UVAHIK_clean_linker_0, # of connection points: 2
#     Edge 16, Type (0, 1), BuildingBlock: UVAHIK_clean_linker_0, # of connection points: 2
#     Edge 17, Type (0, 1), BuildingBlock: UVAHIK_clean_linker_0, # of connection points: 2
#     Edge 18, Type (0, 1), BuildingBlock: UVAHIK_clean_linker_0, # of connection points: 2
#     Edge 19, Type (0, 1), BuildingBlock: UVAHIK_clean_linker_0, # of connection points: 2
#     Edge 20, Type (0, 1), BuildingBlock: UVAHIK_clean_linker_0, # of connection points: 2
#     Edge 21, Type (0, 1), BuildingBlock: UVAHIK_clean_linker_0, # of connection points: 2
#     Edge 22, Type (0, 1), BuildingBlock: UVAHIK_clean_linker_0, # of connection points: 2
#     Edge 23, Type (0, 1), BuildingBlock: UVAHIK_clean_linker_0, # of connection points: 2
#     Edge 24, Type (0, 1), BuildingBlock: UVAHIK_clean_linker_0, # of connection points: 2
#     Edge 25, Type (0, 1), BuildingBlock: UVAHIK_clean_linker_0, # of connection points: 2
#     Edge 26, Type (0, 1), BuildingBlock: UVAHIK_clean_linker_0, # of connection points: 2
#     Edge 27, Type (0, 1), BuildingBlock: UVAHIK_clean_linker_0, # of connection points: 2
#     Edge 28, Type (0, 1), BuildingBlock: UVAHIK_clean_linker_0, # of connection points: 2
#     Edge 29, Type (0, 1), BuildingBlock: UVAHIK_clean_linker_0, # of connection points: 2
#     Edge 30, Type (0, 1), BuildingBlock: UVAHIK_clean_linker_0, # of connection points: 2
#     Edge 31, Type (0, 1), BuildingBlock: UVAHIK_clean_linker_0, # of connection points: 2
#     Edge 32, Type (0, 1), BuildingBlock: UVAHIK_clean_linker_0, # of connection points: 2
#     Edge 33, Type (0, 1), BuildingBlock: UVAHIK_clean_linker_0, # of connection points: 2
#     Edge 34, Type (0, 1), BuildingBlock: UVAHIK_clean_linker_0, # of connection points: 2
#     Edge 35, Type (0, 1), BuildingBlock: UVAHIK_clean_linker_0, # of connection points: 2
#     Edge 36, Type (0, 1), BuildingBlock: UVAHIK_clean_linker_0, # of connection points: 2
#     Edge 37, Type (0, 1), BuildingBlock: UVAHIK_clean_linker_0, # of connection points: 2
#     Edge 38, Type (0, 1), BuildingBlock: UVAHIK_clean_linker_0, # of connection points: 2
#     Edge 39, Type (0, 1), BuildingBlock: UVAHIK_clean_linker_0, # of connection points: 2
#     Edge 40, Type (0, 1), BuildingBlock: UVAHIK_clean_linker_0, # of connection points: 2
#     Edge 41, Type (0, 1), BuildingBlock: UVAHIK_clean_linker_0, # of connection points: 2
#     Edge 42, Type (0, 1), BuildingBlock: UVAHIK_clean_linker_0, # of connection points: 2
#     Edge 43, Type (0, 1), BuildingBlock: UVAHIK_clean_linker_0, # of connection points: 2
# Relax obj value: 0.121
# Max RMSD: 0.250
# Mean RMSD: 0.122
data_MOF--net-sqc--node1-TAGTUT_clean_sbu_3--node2-NAHDIM_clean_linker_0--edge1-UVAHIK_clean_linker_0
_symmetry_space_group_name_H-M    P1
_symmetry_Int_Tables_number       1
_symmetry_cell_setting            triclinic
loop_
_symmetry_equiv_pos_as_xyz
'x, y, z'
_cell_length_a     37.111741
_cell_length_b     37.100676
_cell_length_c     124.56074
_cell_angle_alpha  90.280479
_cell_angle_beta   89.623909
_cell_angle_gamma 90.003736
loop_
_atom_site_label
_atom_site_type_symbol
_atom_site_fract_x
_atom_site_fract_y
_atom_site_fract_z
_atom_type_partial_charge
C0 C 0.91967 0.95898 0.43452 0.0
C1 C 0.89977 0.95089 0.44505 0.0
C2 C 0.92876 0.97948 0.46035 0.0
C3 C 0.93291 0.94983 0.4672 0.0
C4 C 0.95869 0.95037 0.47539 0.0
C5 C 0.98051 0.98128 0.4768 0.0
C6 C 0.97567 0.01156 0.47009 0.0
C7 C 0.94946 0.01038 0.46202 0.0
C8 C 0.96259 0.918 0.48258 0.0
C9 C 0.99836 0.04503 0.47139 0.0
C10 C 0.26099 0.91232 0.46607 0.0
C11 C 0.2352 0.93391 0.47273 0.0
C12 C 0.17379 0.92859 0.47994 0.0
C13 C 0.16737 0.96592 0.48052 0.0
C14 C 0.13369 0.97938 0.4838 0.0
C15 C 0.10621 0.95508 0.48696 0.0
C16 C 0.11288 0.91753 0.48665 0.0
C17 C 0.14652 0.9048 0.48306 0.0
C18 C 0.12744 0.01961 0.48377 0.0
C19 C 0.08441 0.89082 0.49005 0.0
C20 C 0.13922 0.05616 0.55053 0.0
C21 C 0.13529 0.07664 0.54122 0.0
C22 C 0.10459 0.07288 0.53479 0.0
C23 C 0.07784 0.04727 0.53763 0.0
C24 C 0.08134 0.02738 0.54724 0.0
C25 C 0.11188 0.03252 0.55367 0.0
C26 C 0.10122 0.09577 0.52487 0.0
C27 C 0.05341 0.99998 0.55055 0.0
C28 C 0.79231 0.10342 0.5216 0.0
C29 C 0.81325 0.09089 0.53143 0.0
C30 C 0.87945 0.09511 0.53112 0.0
C31 C 0.90675 0.11632 0.52666 0.0
C32 C 0.94168 0.10266 0.52515 0.0
C33 C 0.94951 0.06698 0.52833 0.0
C34 C 0.92257 0.04609 0.53345 0.0
C35 C 0.88779 0.06041 0.53484 0.0
C36 C 0.96989 0.12588 0.51982 0.0
C37 C 0.93036 0.00829 0.53719 0.0
C38 C 0.00835 0.98204 0.4853 0.0
C39 C 0.04236 0.96787 0.48287 0.0
C40 C 0.07029 0.96898 0.49035 0.0
C41 C 0.06423 0.98474 0.50057 0.0
C42 C 0.09153 0.9861 0.50834 0.0
C43 C 0.08596 0.00359 0.51811 0.0
C44 C 0.05276 0.02016 0.52055 0.0
C45 C 0.04751 0.03987 0.53019 0.0
C46 C 0.0136 0.05451 0.53258 0.0
C47 C 0.98481 0.05054 0.52547 0.0
C48 C 0.99006 0.03226 0.51559 0.0
C49 C 0.9621 0.02903 0.50806 0.0
C50 C 0.96789 0.01225 0.4982 0.0
C51 C 0.00181 0.99789 0.49548 0.0
C52 C 0.03002 0.99971 0.50307 0.0
C53 C 0.02421 0.01719 0.51311 0.0
C54 C 0.2092 0.00874 0.55642 0.0
C55 C 0.20308 0.04778 0.55295 0.0
O56 O 0.90475 0.97924 0.45217 0.0
O57 O 0.84577 0.10935 0.53181 0.0
O58 O 0.16938 0.0589 0.55652 0.0
O59 O 0.20546 0.91448 0.47626 0.0
H60 H 0.91175 0.92556 0.44817 0.0
H61 H 0.94906 0.96104 0.43605 0.0
H62 H 0.91044 0.98487 0.43104 0.0
H63 H 0.91519 0.93694 0.42861 0.0
H64 H 0.91576 0.92644 0.46623 0.0
H65 H 0.94563 0.03331 0.45679 0.0
H66 H 0.99006 0.90653 0.48163 0.0
H67 H 0.94255 0.89664 0.48075 0.0
H68 H 0.95935 0.92633 0.49111 0.0
H69 H 0.99256 0.06552 0.46516 0.0
H70 H 0.02739 0.03789 0.47096 0.0
H71 H 0.99321 0.05721 0.47942 0.0
H72 H 0.24751 0.95052 0.47923 0.0
H73 H 0.25841 0.93663 0.45094 0.0
H74 H 0.25411 0.8831 0.46743 0.0
H75 H 0.28649 0.91145 0.47091 0.0
H76 H 0.18833 0.98478 0.47829 0.0
H77 H 0.15168 0.87608 0.48263 0.0
H78 H 0.12592 0.02969 0.49216 0.0
H79 H 0.10147 0.02606 0.47984 0.0
H80 H 0.1494 0.03433 0.47956 0.0
H81 H 0.09516 0.86293 0.49056 0.0
H82 H 0.06209 0.89105 0.48417 0.0
H83 H 0.07296 0.8986 0.49799 0.0
H84 H 0.20451 0.04877 0.54401 0.0
H85 H 0.15637 0.09545 0.539 0.0
H86 H 0.11519 0.01717 0.56098 0.0
H87 H 0.10751 0.07915 0.51766 0.0
H88 H 0.12006 0.11904 0.525 0.0
H89 H 0.07327 0.10604 0.52404 0.0
H90 H 0.06132 0.98504 0.55787 0.0
H91 H 0.04902 0.98035 0.54393 0.0
H92 H 0.02736 0.01377 0.55215 0.0
H93 H 0.81756 0.06141 0.53042 0.0
H94 H 0.76617 0.08893 0.52106 0.0
H95 H 0.80815 0.09759 0.51419 0.0
H96 H 0.78709 0.1329 0.52203 0.0
H97 H 0.90025 0.14335 0.52405 0.0
H98 H 0.86736 0.04447 0.53884 0.0
H99 H 0.97814 0.11344 0.51205 0.0
H100 H 0.99422 0.12748 0.52494 0.0
H101 H 0.96002 0.15364 0.51827 0.0
H102 H 0.90736 0.99641 0.5417 0.0
H103 H 0.95453 0.00828 0.5424 0.0
H104 H 0.93642 0.99085 0.53014 0.0
H105 H 0.04731 0.9563 0.47498 0.0
H106 H 0.11771 0.97409 0.50688 0.0
H107 H 0.10814 0.00415 0.52371 0.0
H108 H 0.0097 0.0696 0.53998 0.0
H109 H 0.9355 0.03984 0.50965 0.0
H110 H 0.94547 0.01092 0.49269 0.0
H111 H 0.20843 0.00665 0.56532 0.0
H112 H 0.23564 0.99871 0.55343 0.0
H113 H 0.18781 0.99116 0.55305 0.0
C114 C 0.11219 0.82554 0.79718 0.0
C115 C 0.15044 0.84041 0.79587 0.0
C116 C 0.19051 0.81449 0.78261 0.0
C117 C 0.22441 0.82045 0.78716 0.0
C118 C 0.2534 0.79736 0.78481 0.0
C119 C 0.24801 0.7673 0.77795 0.0
C120 C 0.2138 0.76161 0.77323 0.0
C121 C 0.18566 0.78587 0.77545 0.0
C122 C 0.28956 0.80467 0.78985 0.0
C123 C 0.20659 0.72936 0.76613 0.0
C124 C 0.28732 0.60696 0.83661 0.0
C125 C 0.28189 0.59242 0.8252 0.0
C126 C 0.31467 0.61712 0.81013 0.0
C127 C 0.29025 0.61107 0.80178 0.0
C128 C 0.28975 0.63361 0.79279 0.0
C129 C 0.31398 0.66302 0.79221 0.0
C130 C 0.33959 0.66832 0.80044 0.0
C131 C 0.33996 0.64483 0.80925 0.0
C132 C 0.26261 0.62662 0.78405 0.0
C133 C 0.36561 0.69954 0.80012 0.0
C134 C 0.47686 0.60242 0.74085 0.0
C135 C 0.44055 0.5931 0.73929 0.0
C136 C 0.41322 0.61903 0.74043 0.0
C137 C 0.42234 0.65474 0.7434 0.0
C138 C 0.45891 0.66425 0.74483 0.0
C139 C 0.48573 0.63799 0.7434 0.0
C140 C 0.37458 0.60821 0.73849 0.0
C141 C 0.46963 0.70205 0.748 0.0
C142 C 0.26366 0.85601 0.69962 0.0
C143 C 0.30095 0.85383 0.70471 0.0
C144 C 0.32759 0.79829 0.71126 0.0
C145 C 0.3184 0.76185 0.71141 0.0
C146 C 0.32907 0.73964 0.71989 0.0
C147 C 0.35057 0.75416 0.7282 0.0
C148 C 0.36216 0.79049 0.72766 0.0
C149 C 0.35007 0.81238 0.71925 0.0
C150 C 0.3165 0.70094 0.7201 0.0
C151 C 0.38658 0.80638 0.73609 0.0
C152 C 0.27749 0.74071 0.77625 0.0
C153 C 0.28391 0.71592 0.78442 0.0
C154 C 0.31059 0.68953 0.78338 0.0
C155 C 0.33194 0.68788 0.77395 0.0
C156 C 0.35922 0.6619 0.77267 0.0
C157 C 0.37991 0.66036 0.76332 0.0
C158 C 0.37355 0.68419 0.75479 0.0
C159 C 0.39364 0.68209 0.74511 0.0
C160 C 0.38622 0.70584 0.73673 0.0
C161 C 0.35909 0.73179 0.73771 0.0
C162 C 0.33907 0.73469 0.74739 0.0
C163 C 0.3118 0.76074 0.7487 0.0
C164 C 0.29223 0.76334 0.75823 0.0
C165 C 0.29825 0.73921 0.76669 0.0
C166 C 0.32557 0.71269 0.76555 0.0
C167 C 0.34621 0.71065 0.75593 0.0
C168 C 0.53666 0.52555 0.74451 0.0
C169 C 0.50102 0.54097 0.74052 0.0
O170 O 0.16184 0.83527 0.78536 0.0
O171 O 0.31419 0.81918 0.70333 0.0
O172 O 0.50408 0.57811 0.73989 0.0
O173 O 0.31321 0.59747 0.81927 0.0
H174 H 0.16754 0.82455 0.80148 0.0
H175 H 0.11222 0.79607 0.79556 0.0
H176 H 0.09339 0.8385 0.79147 0.0
H177 H 0.10225 0.83011 0.80551 0.0
H178 H 0.22802 0.84304 0.79259 0.0
H179 H 0.15926 0.78166 0.77199 0.0
H180 H 0.29495 0.78402 0.79605 0.0
H181 H 0.2907 0.83171 0.7937 0.0
H182 H 0.3113 0.80272 0.7837 0.0
H183 H 0.17751 0.72639 0.76425 0.0
H184 H 0.21605 0.7043 0.77006 0.0
H185 H 0.22169 0.73221 0.75847 0.0
H186 H 0.25946 0.60885 0.82184 0.0
H187 H 0.26321 0.6013 0.84167 0.0
H188 H 0.29132 0.63662 0.83634 0.0
H189 H 0.31145 0.59487 0.84039 0.0
H190 H 0.27132 0.58898 0.80238 0.0
H191 H 0.35886 0.64904 0.81573 0.0
H192 H 0.24208 0.64838 0.78413 0.0
H193 H 0.24865 0.60036 0.78507 0.0
H194 H 0.27609 0.62695 0.77606 0.0
H195 H 0.38335 0.70036 0.80726 0.0
H196 H 0.35045 0.72529 0.79968 0.0
H197 H 0.38273 0.69759 0.7928 0.0
H198 H 0.48004 0.53385 0.74659 0.0
H199 H 0.4334 0.56578 0.7371 0.0
H200 H 0.51383 0.64496 0.74449 0.0
H201 H 0.35937 0.6091 0.74619 0.0
H202 H 0.37235 0.58061 0.73506 0.0
H203 H 0.36159 0.62751 0.73293 0.0
H204 H 0.49903 0.70453 0.74946 0.0
H205 H 0.45484 0.71034 0.75539 0.0
H206 H 0.46207 0.72104 0.74154 0.0
H207 H 0.29739 0.86008 0.71342 0.0
H208 H 0.25195 0.88332 0.7008 0.0
H209 H 0.24536 0.83609 0.70345 0.0
H210 H 0.26528 0.85 0.69087 0.0
H211 H 0.30152 0.75122 0.70507 0.0
H212 H 0.35815 0.84042 0.71891 0.0
H213 H 0.30281 0.69513 0.72786 0.0
H214 H 0.34013 0.68272 0.71942 0.0
H215 H 0.29768 0.69463 0.71345 0.0
H216 H 0.39795 0.83274 0.73357 0.0
H217 H 0.40909 0.7876 0.73782 0.0
H218 H 0.37113 0.81049 0.74365 0.0
H219 H 0.2675 0.71686 0.79167 0.0
H220 H 0.36496 0.64254 0.77891 0.0
H221 H 0.4007 0.63995 0.76283 0.0
H222 H 0.40137 0.7037 0.72928 0.0
H223 H 0.30531 0.77957 0.7424 0.0
H224 H 0.27192 0.78421 0.75882 0.0
H225 H 0.53474 0.4958 0.74534 0.0
H226 H 0.5431 0.53722 0.75251 0.0
H227 H 0.55898 0.53211 0.73885 0.0
C228 C 0.68131 0.93178 0.08725 0.0
C229 C 0.69879 0.92721 0.07617 0.0
C230 C 0.68166 0.96045 0.06008 0.0
C231 C 0.68778 0.93286 0.05252 0.0
C232 C 0.67273 0.93473 0.04222 0.0
C233 C 0.65122 0.96475 0.03947 0.0
C234 C 0.64657 0.99338 0.04691 0.0
C235 C 0.66237 0.99101 0.05708 0.0
C236 C 0.67893 0.90419 0.03439 0.0
C237 C 0.62361 0.02576 0.04433 0.0
C238 C 0.42257 0.81004 0.02163 0.0
C239 C 0.44169 0.83383 0.02986 0.0
C240 C 0.4761 0.88677 0.02428 0.0
C241 C 0.47673 0.92359 0.02662 0.0
C242 C 0.50852 0.94368 0.02547 0.0
C243 C 0.54006 0.92654 0.02155 0.0
C244 C 0.5392 0.88951 0.01878 0.0
C245 C 0.50715 0.86995 0.02017 0.0
C246 C 0.50853 0.98303 0.0286 0.0
C247 C 0.57222 0.87062 0.01441 0.0
C248 C 0.518 0.06543 0.96526 0.0
C249 C 0.52595 0.08791 0.97406 0.0
C250 C 0.55536 0.0807 0.98071 0.0
C251 C 0.57797 0.05093 0.97839 0.0
C252 C 0.57149 0.0296 0.96916 0.0
C253 C 0.54138 0.03701 0.96275 0.0
C254 C 0.56173 0.10444 0.9904 0.0
C255 C 0.59559 0.99822 0.9663 0.0
C256 C 0.85535 0.13762 0.0009 0.0
C257 C 0.82983 0.11933 0.99297 0.0
C258 C 0.76403 0.11355 0.99385 0.0
C259 C 0.7333 0.12778 0.99881 0.0
C260 C 0.70054 0.10892 0.99877 0.0
C261 C 0.6985 0.07508 0.99352 0.0
C262 C 0.72916 0.06108 0.98814 0.0
C263 C 0.76163 0.08051 0.98832 0.0
C264 C 0.6683 0.12485 0.00451 0.0
C265 C 0.72769 0.0253 0.98235 0.0
C266 C 0.63025 0.96452 0.02937 0.0
C267 C 0.59796 0.94519 0.02937 0.0
C268 C 0.57429 0.94699 0.02073 0.0
C269 C 0.58267 0.96908 0.01185 0.0
C270 C 0.55861 0.97295 0.00327 0.0
C271 C 0.56621 0.99632 0.99487 0.0
C272 C 0.59874 0.01581 0.99452 0.0
C273 C 0.60616 0.04055 0.98619 0.0
C274 C 0.63914 0.05877 0.98594 0.0
C275 C 0.66468 0.05377 0.99401 0.0
C276 C 0.65713 0.03019 0.00264 0.0
C277 C 0.68152 0.02569 0.01114 0.0
C278 C 0.67298 0.00391 0.01987 0.0
C279 C 0.63998 0.9854 0.02034 0.0
C280 C 0.61572 0.98825 0.01164 0.0
C281 C 0.62406 0.01112 0.00287 0.0
C282 C 0.43672 0.08168 0.97064 0.0
C283 C 0.45984 0.09362 0.961 0.0
O284 O 0.69346 0.95846 0.07034 0.0
O285 O 0.79529 0.13245 0.99465 0.0
O286 O 0.48791 0.06962 0.95917 0.0
O287 O 0.4449 0.86852 0.02588 0.0
H288 H 0.68504 0.90392 0.07228 0.0
H289 H 0.65196 0.93672 0.08635 0.0
H290 H 0.69333 0.95499 0.09162 0.0
H291 H 0.68494 0.90695 0.09208 0.0
H292 H 0.70401 0.90976 0.05465 0.0
H293 H 0.65837 0.01239 0.06293 0.0
H294 H 0.6536 0.88857 0.03348 0.0
H295 H 0.70045 0.88559 0.0371 0.0
H296 H 0.68634 0.91494 0.02636 0.0
H297 H 0.62116 0.04472 0.05122 0.0
H298 H 0.59619 0.01693 0.04196 0.0
H299 H 0.63556 0.04046 0.03743 0.0
H300 H 0.46867 0.82185 0.0314 0.0
H301 H 0.41972 0.78214 0.02473 0.0
H302 H 0.43861 0.80903 0.01408 0.0
H303 H 0.39541 0.82094 0.01981 0.0
H304 H 0.4524 0.93633 0.02964 0.0
H305 H 0.5063 0.84171 0.01796 0.0
H306 H 0.51463 0.99974 0.02145 0.0
H307 H 0.52994 0.98825 0.03459 0.0
H308 H 0.48224 0.99182 0.03203 0.0
H309 H 0.56649 0.84242 0.01191 0.0
H310 H 0.59345 0.87027 0.02065 0.0
H311 H 0.58312 0.8856 0.00741 0.0
H312 H 0.47096 0.12087 0.96271 0.0
H313 H 0.50898 0.11072 0.97599 0.0
H314 H 0.53548 0.02007 0.95587 0.0
H315 H 0.56274 0.08785 0.99778 0.0
H316 H 0.54048 0.12528 0.99144 0.0
H317 H 0.58812 0.11818 0.98952 0.0
H318 H 0.58963 0.98706 0.95822 0.0
H319 H 0.59187 0.97652 0.97231 0.0
H320 H 0.62429 0.00665 0.96655 0.0
H321 H 0.83088 0.08999 0.99481 0.0
H322 H 0.88331 0.12756 -0.00029 0.0
H323 H 0.84682 0.1314 0.00926 0.0
H324 H 0.85508 0.16736 -0.00012 0.0
H325 H 0.7353 0.15349 0.00293 0.0
H326 H 0.78494 0.06974 0.98414 0.0
H327 H 0.65916 0.10637 0.01096 0.0
H328 H 0.64573 0.12783 0.99879 0.0
H329 H 0.67423 0.15161 0.00812 0.0
H330 H 0.75368 0.01837 0.97837 0.0
H331 H 0.7062 0.02591 0.97619 0.0
H332 H 0.72071 0.00369 0.98814 0.0
H333 H 0.59062 0.92927 0.03634 0.0
H334 H 0.53324 0.95856 0.00308 0.0
H335 H 0.54621 0.99883 0.98863 0.0
H336 H 0.64453 0.07792 0.97957 0.0
H337 H 0.70724 0.03945 0.01124 0.0
H338 H 0.69246 0.00182 0.02627 0.0
H339 H 0.4131 0.09983 0.97163 0.0
H340 H 0.42701 0.05359 0.96954 0.0
H341 H 0.45238 0.08279 0.97818 0.0
C342 C 0.0998 0.15957 0.22615 0.0
C343 C 0.13945 0.15508 0.223 0.0
C344 C 0.1867 0.18168 0.23353 0.0
C345 C 0.21994 0.17787 0.22831 0.0
C346 C 0.2473 0.20358 0.22977 0.0
C347 C 0.24081 0.23399 0.23644 0.0
C348 C 0.20679 0.23809 0.24155 0.0
C349 C 0.18033 0.21144 0.24017 0.0
C350 C 0.28311 0.19822 0.22418 0.0
C351 C 0.19823 0.27065 0.24842 0.0
C352 C 0.2933 0.39476 0.17693 0.0
C353 C 0.2836 0.41047 0.18798 0.0
C354 C 0.31073 0.38549 0.20388 0.0
C355 C 0.2832 0.39043 0.2115 0.0
C356 C 0.28042 0.36783 0.22047 0.0
C357 C 0.30548 0.33941 0.22174 0.0
C358 C 0.33375 0.33488 0.21415 0.0
C359 C 0.33638 0.35851 0.20541 0.0
C360 C 0.25042 0.37403 0.2285 0.0
C361 C 0.36063 0.30457 0.21514 0.0
C362 C 0.46316 0.4068 0.27281 0.0
C363 C 0.42687 0.41391 0.27531 0.0
C364 C 0.40061 0.38687 0.27428 0.0
C365 C 0.41086 0.35215 0.27061 0.0
C366 C 0.44755 0.34467 0.2684 0.0
C367 C 0.47328 0.37207 0.26964 0.0
C368 C 0.36187 0.39544 0.27702 0.0
C369 C 0.45946 0.3079 0.26456 0.0
C370 C 0.26701 0.14044 0.31398 0.0
C371 C 0.30482 0.14356 0.30913 0.0
C372 C 0.32717 0.20094 0.30246 0.0
C373 C 0.31534 0.23662 0.30273 0.0
C374 C 0.32326 0.26022 0.29428 0.0
C375 C 0.34465 0.24797 0.28554 0.0
C376 C 0.35862 0.21243 0.28557 0.0
C377 C 0.34933 0.18909 0.29399 0.0
C378 C 0.30812 0.29797 0.29458 0.0
C379 C 0.3829 0.19897 0.27666 0.0
C380 C 0.26943 0.26162 0.238 0.0
C381 C 0.27538 0.28651 0.22979 0.0
C382 C 0.30125 0.31374 0.23078 0.0
C383 C 0.32189 0.31642 0.24026 0.0
C384 C 0.3478 0.34371 0.2416 0.0
C385 C 0.36814 0.34597 0.25093 0.0
C386 C 0.36297 0.32139 0.25936 0.0
C387 C 0.38316 0.32379 0.26894 0.0
C388 C 0.37708 0.29911 0.2772 0.0
C389 C 0.35114 0.27198 0.27621 0.0
C390 C 0.33088 0.26897 0.26666 0.0
C391 C 0.30464 0.24195 0.26536 0.0
C392 C 0.28499 0.23907 0.25593 0.0
C393 C 0.29004 0.26372 0.24751 0.0
C394 C 0.31629 0.29126 0.24864 0.0
C395 C 0.33681 0.2938 0.25821 0.0
C396 C 0.51478 0.4848 0.26546 0.0
C397 C 0.484 0.46937 0.27225 0.0
O398 O 0.16048 0.15677 0.23213 0.0
O399 O 0.31689 0.17863 0.31051 0.0
O400 O 0.48912 0.43257 0.27335 0.0
O401 O 0.31238 0.40581 0.19487 0.0
H402 H 0.14615 0.17795 0.21754 0.0
H403 H 0.09553 0.18655 0.22985 0.0
H404 H 0.09158 0.1388 0.23207 0.0
H405 H 0.08238 0.15738 0.21895 0.0
H406 H 0.22441 0.15463 0.22317 0.0
H407 H 0.15432 0.21403 0.24411 0.0
H408 H 0.28667 0.21921 0.21794 0.0
H409 H 0.28522 0.17132 0.22027 0.0
H410 H 0.30545 0.20125 0.23001 0.0
H411 H 0.16901 0.27266 0.25033 0.0
H412 H 0.2069 0.29574 0.24432 0.0
H413 H 0.21318 0.26889 0.25609 0.0
H414 H 0.25981 0.39458 0.19077 0.0
H415 H 0.27142 0.40015 0.17111 0.0
H416 H 0.29676 0.36511 0.17758 0.0
H417 H 0.31894 0.40622 0.17383 0.0
H418 H 0.26385 0.41191 0.21039 0.0
H419 H 0.35764 0.35511 0.19948 0.0
H420 H 0.23081 0.3515 0.228 0.0
H421 H 0.23586 0.3997 0.22705 0.0
H422 H 0.26135 0.37447 0.23678 0.0
H423 H 0.37897 0.30281 0.20807 0.0
H424 H 0.34631 0.27846 0.21604 0.0
H425 H 0.37716 0.30872 0.22243 0.0
H426 H 0.4588 0.47475 0.26771 0.0
H427 H 0.41898 0.44044 0.27812 0.0
H428 H 0.50142 0.36674 0.26787 0.0
H429 H 0.34529 0.39362 0.26965 0.0
H430 H 0.35869 0.42285 0.28053 0.0
H431 H 0.35117 0.37538 0.28281 0.0
H432 H 0.48885 0.30675 0.26284 0.0
H433 H 0.44462 0.30045 0.25716 0.0
H434 H 0.45284 0.28748 0.27076 0.0
H435 H 0.30254 0.13684 0.30043 0.0
H436 H 0.25621 0.11277 0.3128 0.0
H437 H 0.24862 0.15972 0.30998 0.0
H438 H 0.26743 0.14673 0.32271 0.0
H439 H 0.29873 0.24555 0.30942 0.0
H440 H 0.35944 0.1617 0.29401 0.0
H441 H 0.29341 0.30366 0.28704 0.0
H442 H 0.33053 0.31767 0.29519 0.0
H443 H 0.2895 0.30228 0.30149 0.0
H444 H 0.39592 0.17294 0.27869 0.0
H445 H 0.40418 0.21915 0.27486 0.0
H446 H 0.36686 0.19503 0.26925 0.0
H447 H 0.25944 0.28484 0.22253 0.0
H448 H 0.35273 0.3636 0.23544 0.0
H449 H 0.38786 0.3674 0.25146 0.0
H450 H 0.39247 0.30129 0.28455 0.0
H451 H 0.29907 0.22253 0.27161 0.0
H452 H 0.26554 0.21742 0.25536 0.0
H453 H 0.51124 0.51433 0.26443 0.0
H454 H 0.51489 0.47192 0.25739 0.0
H455 H 0.54124 0.47967 0.26929 0.0
C456 C 0.63392 0.32815 0.30632 0.0
C457 C 0.67001 0.34421 0.30273 0.0
C458 C 0.70068 0.31444 0.28788 0.0
C459 C 0.73645 0.31584 0.29141 0.0
C460 C 0.76216 0.29123 0.28752 0.0
C461 C 0.7518 0.2646 0.27996 0.0
C462 C 0.71587 0.26365 0.27622 0.0
C463 C 0.69086 0.28903 0.28012 0.0
C464 C 0.80038 0.29352 0.29153 0.0
C465 C 0.70387 0.23557 0.2682 0.0
C466 C 0.87854 0.01182 0.29958 0.0
C467 C 0.83816 0.01993 0.2993 0.0
C468 C 0.82565 0.08466 0.29773 0.0
C469 C 0.80393 0.08466 0.28855 0.0
C470 C 0.79838 0.11649 0.28273 0.0
C471 C 0.81475 0.14896 0.2862 0.0
C472 C 0.8354 0.1493 0.2957 0.0
C473 C 0.84027 0.11713 0.30141 0.0
C474 C 0.77521 0.11541 0.27282 0.0
C475 C 0.85283 0.1835 0.29971 0.0
C476 C 0.99078 0.13835 0.23684 0.0
C477 C 0.95612 0.12619 0.2342 0.0
C478 C 0.92595 0.14854 0.23569 0.0
C479 C 0.93052 0.18334 0.24021 0.0
C480 C 0.96563 0.19604 0.24251 0.0
C481 C 0.9954 0.17351 0.24061 0.0
C482 C 0.88918 0.13469 0.23261 0.0
C483 C 0.97167 0.23307 0.24724 0.0
C484 C 0.76644 0.40176 0.2076 0.0
C485 C 0.80595 0.39729 0.21073 0.0
C486 C 0.82908 0.33767 0.21531 0.0
C487 C 0.81899 0.30175 0.21388 0.0
C488 C 0.82957 0.2752 0.22119 0.0
C489 C 0.85164 0.28483 0.22997 0.0
C490 C 0.86361 0.32087 0.23112 0.0
C491 C 0.85201 0.34704 0.2238 0.0
C492 C 0.81657 0.23698 0.21964 0.0
C493 C 0.88823 0.33173 0.24017 0.0
C494 C 0.77866 0.23771 0.27609 0.0
C495 C 0.78445 0.20703 0.28234 0.0
C496 C 0.81132 0.1821 0.27963 0.0
C497 C 0.83382 0.18838 0.27062 0.0
C498 C 0.86288 0.16542 0.26814 0.0
C499 C 0.88469 0.17165 0.25921 0.0
C500 C 0.87751 0.20032 0.25219 0.0
C501 C 0.89866 0.20609 0.24285 0.0
C502 C 0.88994 0.23416 0.23588 0.0
C503 C 0.86107 0.2573 0.23809 0.0
C504 C 0.84059 0.2529 0.24762 0.0
C505 C 0.81231 0.2766 0.25032 0.0
C506 C 0.79249 0.27215 0.25975 0.0
C507 C 0.79917 0.24298 0.26661 0.0
C508 C 0.82713 0.21843 0.26395 0.0
C509 C 0.84847 0.22392 0.25459 0.0
C510 C 0.05413 0.07159 0.24484 0.0
C511 C 0.02061 0.08023 0.23826 0.0
O512 O 0.6752 0.33715 0.29189 0.0
O513 O 0.81662 0.36238 0.20826 0.0
O514 O 0.02016 0.11673 0.23597 0.0
O515 O 0.83218 0.05425 0.30344 0.0
H516 H 0.69097 0.33052 0.30762 0.0
H517 H 0.63438 0.29844 0.30516 0.0
H518 H 0.61135 0.33932 0.30155 0.0
H519 H 0.62898 0.33392 0.31497 0.0
H520 H 0.74423 0.33628 0.29719 0.0
H521 H 0.66321 0.28845 0.27737 0.0
H522 H 0.80707 0.26859 0.29599 0.0
H523 H 0.80462 0.31707 0.29692 0.0
H524 H 0.81937 0.29544 0.28463 0.0
H525 H 0.67462 0.23746 0.26645 0.0
H526 H 0.7098 0.20821 0.27131 0.0
H527 H 0.71918 0.23884 0.26058 0.0
H528 H 0.8297 0.018 0.29077 0.0
H529 H 0.88403 0.98447 0.29627 0.0
H530 H 0.88878 0.01336 0.30793 0.0
H531 H 0.89337 0.03178 0.29461 0.0
H532 H 0.79084 0.06006 0.28597 0.0
H533 H 0.85632 0.11699 0.30865 0.0
H534 H 0.75415 0.13663 0.27333 0.0
H535 H 0.76193 0.08884 0.27169 0.0
H536 H 0.7921 0.12111 0.26564 0.0
H537 H 0.86903 0.17904 0.30705 0.0
H538 H 0.83171 0.20386 0.30153 0.0
H539 H 0.87059 0.19483 0.29336 0.0
H540 H 0.99706 0.07317 0.24345 0.0
H541 H 0.95264 0.09929 0.23095 0.0
H542 H 0.02237 0.18274 0.24247 0.0
H543 H 0.87359 0.12817 0.23998 0.0
H544 H 0.89088 0.10999 0.22756 0.0
H545 H 0.87402 0.15565 0.22818 0.0
H546 H 0.00034 0.23784 0.24932 0.0
H547 H 0.9549 0.23664 0.25458 0.0
H548 H 0.96322 0.25383 0.24138 0.0
H549 H 0.8076 0.40247 0.21953 0.0
H550 H 0.75675 0.42927 0.20969 0.0
H551 H 0.74961 0.38194 0.21203 0.0
H552 H 0.76294 0.39714 0.19884 0.0
H553 H 0.80182 0.29477 0.20718 0.0
H554 H 0.86106 0.37466 0.22465 0.0
H555 H 0.80189 0.2279 0.22694 0.0
H556 H 0.84003 0.21879 0.21847 0.0
H557 H 0.79847 0.23418 0.21262 0.0
H558 H 0.89785 0.35996 0.23938 0.0
H559 H 0.91191 0.31346 0.2404 0.0
H560 H 0.87369 0.32909 0.24794 0.0
H561 H 0.76794 0.20258 0.28944 0.0
H562 H 0.86936 0.14256 0.27314 0.0
H563 H 0.90691 0.15331 0.2578 0.0
H564 H 0.90571 0.23792 0.22861 0.0
H565 H 0.80543 0.29914 0.24525 0.0
H566 H 0.7714 0.29153 0.26148 0.0
H567 H 0.07903 0.07837 0.24031 0.0
H568 H 0.05468 0.0425 0.24691 0.0
H569 H 0.05378 0.0875 0.25242 0.0
C570 C 0.63764 0.67594 0.70723 0.0
C571 C 0.67018 0.65639 0.71197 0.0
C572 C 0.70091 0.68731 0.72641 0.0
C573 C 0.73697 0.68065 0.72361 0.0
C574 C 0.76432 0.70438 0.72684 0.0
C575 C 0.75528 0.7354 0.73294 0.0
C576 C 0.71906 0.74135 0.73613 0.0
C577 C 0.69234 0.71681 0.73293 0.0
C578 C 0.80276 0.69677 0.72352 0.0
C579 C 0.70845 0.7742 0.7426 0.0
C580 C 0.83153 0.90167 0.67553 0.0
C581 C 0.81339 0.91121 0.68626 0.0
C582 C 0.83462 0.88854 0.70314 0.0
C583 C 0.80522 0.89308 0.71011 0.0
C584 C 0.79989 0.86971 0.7188 0.0
C585 C 0.82424 0.84086 0.72041 0.0
C586 C 0.85423 0.83655 0.71342 0.0
C587 C 0.85939 0.86097 0.70497 0.0
C588 C 0.76798 0.87557 0.72618 0.0
C589 C 0.88033 0.8057 0.71471 0.0
C590 C 0.9679 0.90567 0.77203 0.0
C591 C 0.93158 0.91091 0.7749 0.0
C592 C 0.90692 0.88233 0.77449 0.0
C593 C 0.91876 0.84788 0.77106 0.0
C594 C 0.95569 0.84201 0.7688 0.0
C595 C 0.97989 0.87102 0.76941 0.0
C596 C 0.86789 0.88929 0.77728 0.0
C597 C 0.96923 0.80549 0.76525 0.0
C598 C 0.76294 0.63529 0.81101 0.0
C599 C 0.80116 0.63853 0.80646 0.0
C600 C 0.82582 0.69585 0.80041 0.0
C601 C 0.81551 0.73199 0.80076 0.0
C602 C 0.82588 0.75586 0.79261 0.0
C603 C 0.84824 0.74338 0.78411 0.0
C604 C 0.86066 0.70726 0.7841 0.0
C605 C 0.8489 0.6837 0.7922 0.0
C606 C 0.81233 0.79422 0.79298 0.0
C607 C 0.88587 0.69343 0.77547 0.0
C608 C 0.78335 0.76265 0.73541 0.0
C609 C 0.79156 0.78797 0.72749 0.0
C610 C 0.81757 0.81459 0.72917 0.0
C611 C 0.83624 0.81598 0.73902 0.0
C612 C 0.86241 0.8425 0.74101 0.0
C613 C 0.88094 0.84339 0.75067 0.0
C614 C 0.8736 0.81817 0.7588 0.0
C615 C 0.89191 0.81932 0.76872 0.0
C616 C 0.88379 0.79411 0.77668 0.0
C617 C 0.85733 0.7678 0.77507 0.0
C618 C 0.83874 0.76619 0.76517 0.0
C619 C 0.81179 0.74028 0.76327 0.0
C620 C 0.7939 0.73878 0.7535 0.0
C621 C 0.80167 0.76363 0.74532 0.0
C622 C 0.82836 0.7903 0.7471 0.0
C623 C 0.84703 0.79144 0.75702 0.0
C624 C 0.01237 0.9865 0.76278 0.0
C625 C 0.9834 0.96929 0.7699 0.0
O626 O 0.6739 0.66619 0.72266 0.0
O627 O 0.81322 0.67346 0.80814 0.0
O628 O 0.99186 0.93333 0.7715 0.0
O629 O 0.83863 0.9097 0.69438 0.0
H630 H 0.69383 0.66555 0.70713 0.0
H631 H 0.64264 0.70546 0.70727 0.0
H632 H 0.61282 0.67074 0.712 0.0
H633 H 0.63325 0.66716 0.69879 0.0
H634 H 0.74362 0.65709 0.71883 0.0
H635 H 0.6644 0.72141 0.73513 0.0
H636 H 0.8119 0.71757 0.71773 0.0
H637 H 0.80583 0.66981 0.7197 0.0
H638 H 0.82067 0.69833 0.73062 0.0
H639 H 0.67899 0.77535 0.74421 0.0
H640 H 0.71662 0.79898 0.73825 0.0
H641 H 0.72281 0.77415 0.75039 0.0
H642 H 0.79231 0.8901 0.68748 0.0
H643 H 0.81218 0.90472 0.66883 0.0
H644 H 0.84074 0.87318 0.67569 0.0
H645 H 0.85544 0.91894 0.67402 0.0
H646 H 0.78645 0.91487 0.70872 0.0
H647 H 0.882 0.85782 0.69949 0.0
H648 H 0.74823 0.85345 0.725 0.0
H649 H 0.75425 0.90163 0.72464 0.0
H650 H 0.77668 0.87492 0.73469 0.0
H651 H 0.89992 0.80394 0.70794 0.0
H652 H 0.86545 0.7798 0.71526 0.0
H653 H 0.89556 0.80924 0.72228 0.0
H654 H 0.95778 0.97155 0.76533 0.0
H655 H 0.9222 0.93732 0.77731 0.0
H656 H 0.00808 0.8671 0.76739 0.0
H657 H 0.85147 0.88779 0.76987 0.0
H658 H 0.8638 0.91622 0.78104 0.0
H659 H 0.85775 0.86831 0.78286 0.0
H660 H 0.99899 0.80492 0.76423 0.0
H661 H 0.95661 0.79802 0.75749 0.0
H662 H 0.96126 0.78481 0.77122 0.0
H663 H 0.79957 0.63245 0.7977 0.0
H664 H 0.75206 0.60779 0.80955 0.0
H665 H 0.745 0.655 0.80701 0.0
H666 H 0.76267 0.64089 0.81978 0.0
H667 H 0.79817 0.74113 0.80725 0.0
H668 H 0.85786 0.6559 0.79216 0.0
H669 H 0.79984 0.80145 0.7852 0.0
H670 H 0.83536 0.81276 0.7943 0.0
H671 H 0.79225 0.7986 0.79951 0.0
H672 H 0.8976 0.66683 0.77755 0.0
H673 H 0.90812 0.71292 0.77409 0.0
H674 H 0.87094 0.69047 0.76783 0.0
H675 H 0.77736 0.78702 0.7199 0.0
H676 H 0.869 0.86281 0.73511 0.0
H677 H 0.90103 0.86427 0.75167 0.0
H678 H 0.89772 0.79546 0.7843 0.0
H679 H 0.80427 0.72073 0.7693 0.0
H680 H 0.77368 0.71804 0.75245 0.0
H681 H 0.03952 0.98369 0.76639 0.0
H682 H 0.00646 0.01557 0.76159 0.0
H683 H 0.01275 0.97303 0.7548 0.0
C684 C 0.64328 0.63076 0.06672 0.0
C685 C 0.67019 0.60218 0.06279 0.0
C686 C 0.64089 0.58131 0.04658 0.0
C687 C 0.63093 0.54602 0.04929 0.0
C688 C 0.60185 0.52899 0.04419 0.0
C689 C 0.58216 0.54783 0.0363 0.0
C690 C 0.59262 0.58325 0.03344 0.0
C691 C 0.62229 0.59931 0.03851 0.0
C692 C 0.59212 0.49092 0.04727 0.0
C693 C 0.57221 0.60428 0.02511 0.0
C694 C 0.30279 0.458 0.04513 0.0
C695 C 0.32032 0.49409 0.04794 0.0
C696 C 0.38638 0.49666 0.04818 0.0
C697 C 0.3919 0.52848 0.04232 0.0
C698 C 0.42549 0.53571 0.03752 0.0
C699 C 0.45393 0.5106 0.0386 0.0
C700 C 0.44897 0.47968 0.04506 0.0
C701 C 0.41529 0.47337 0.04986 0.0
C702 C 0.43023 0.5694 0.03093 0.0
C703 C 0.47878 0.4525 0.0465 0.0
C704 C 0.39586 0.4178 0.97681 0.0
C705 C 0.4065 0.45386 0.97559 0.0
C706 C 0.44004 0.46571 0.97937 0.0
C707 C 0.46329 0.44101 0.98449 0.0
C708 C 0.45343 0.40425 0.98518 0.0
C709 C 0.41992 0.39305 0.9812 0.0
C710 C 0.45021 0.50488 0.97819 0.0
C711 C 0.47769 0.37711 0.99049 0.0
C712 C 0.74554 0.45343 0.98669 0.0
C713 C 0.72969 0.42665 0.97857 0.0
C714 C 0.66664 0.44581 0.97688 0.0
C715 C 0.6466 0.47566 0.9736 0.0
C716 C 0.61152 0.48168 0.97752 0.0
C717 C 0.59605 0.45684 0.98479 0.0
C718 C 0.6154 0.42557 0.98768 0.0
C719 C 0.65043 0.42031 0.98369 0.0
C720 C 0.59138 0.51506 0.97419 0.0
C721 C 0.59926 0.39797 0.99518 0.0
C722 C 0.55075 0.53048 0.03102 0.0
C723 C 0.51778 0.52987 0.03656 0.0
C724 C 0.48722 0.51409 0.032 0.0
C725 C 0.48909 0.4996 0.02149 0.0
C726 C 0.45853 0.4847 0.01653 0.0
C727 C 0.46059 0.47032 0.00623 0.0
C728 C 0.49346 0.46948 0.00055 0.0
C729 C 0.49586 0.45441 0.99012 0.0
C730 C 0.52941 0.45171 0.98499 0.0
C731 C 0.56069 0.4644 0.98996 0.0
C732 C 0.55841 0.48154 0.00012 0.0
C733 C 0.58908 0.49606 0.00513 0.0
C734 C 0.58662 0.51238 0.01519 0.0
C735 C 0.5535 0.51436 0.02072 0.0
C736 C 0.5224 0.49943 0.01588 0.0
C737 C 0.52473 0.48367 0.00548 0.0
C738 C 0.31509 0.41286 0.98636 0.0
C739 C 0.33039 0.42338 0.97537 0.0
O740 O 0.66806 0.59866 0.05172 0.0
O741 O 0.70114 0.44249 0.97322 0.0
O742 O 0.36299 0.40584 0.97366 0.0
O743 O 0.35384 0.48763 0.05242 0.0
H744 H 0.66321 0.57618 0.0667 0.0
H745 H 0.61538 0.62242 0.06469 0.0
H746 H 0.64891 0.65713 0.06285 0.0
H747 H 0.64488 0.63402 0.07557 0.0
H748 H 0.64609 0.5316 0.05529 0.0
H749 H 0.63044 0.62646 0.03643 0.0
H750 H 0.56605 0.49111 0.05168 0.0
H751 H 0.6128 0.4784 0.05247 0.0
H752 H 0.58873 0.47395 0.03997 0.0
H753 H 0.58155 0.63266 0.02455 0.0
H754 H 0.54294 0.60416 0.02703 0.0
H755 H 0.57577 0.59127 0.01713 0.0
H756 H 0.32283 0.50945 0.04032 0.0
H757 H 0.29953 0.44109 0.05241 0.0
H758 H 0.31996 0.44321 0.03924 0.0
H759 H 0.27592 0.46239 0.04146 0.0
H760 H 0.37009 0.5476 0.04146 0.0
H761 H 0.41093 0.44934 0.05461 0.0
H762 H 0.45544 0.58347 0.03324 0.0
H763 H 0.40718 0.58827 0.03191 0.0
H764 H 0.43268 0.56193 0.02232 0.0
H765 H 0.47087 0.43032 0.052 0.0
H766 H 0.50299 0.46609 0.04978 0.0
H767 H 0.48636 0.4407 0.0386 0.0
H768 H 0.33403 0.4531 0.97535 0.0
H769 H 0.38886 0.4728 0.97166 0.0
H770 H 0.41175 0.3651 0.98187 0.0
H771 H 0.44955 0.51814 0.9862 0.0
H772 H 0.43159 0.51954 0.9728 0.0
H773 H 0.4781 0.50727 0.97498 0.0
H774 H 0.46605 0.34953 0.99042 0.0
H775 H 0.48261 0.3853 0.99894 0.0
H776 H 0.50418 0.37646 0.9863 0.0
H777 H 0.72078 0.40297 0.98328 0.0
H778 H 0.77076 0.44256 0.99019 0.0
H779 H 0.72591 0.45799 0.99333 0.0
H780 H 0.75112 0.47989 0.9829 0.0
H781 H 0.65898 0.49487 0.96818 0.0
H782 H 0.66457 0.39604 0.98589 0.0
H783 H 0.58605 0.53225 0.98135 0.0
H784 H 0.5649 0.50741 0.97076 0.0
H785 H 0.60658 0.5311 0.96816 0.0
H786 H 0.61685 0.37399 0.99614 0.0
H787 H 0.57269 0.38897 0.99212 0.0
H788 H 0.5947 0.41038 0.0032 0.0
H789 H 0.51603 0.54128 0.04458 0.0
H790 H 0.43253 0.48414 0.0205 0.0
H791 H 0.43608 0.45941 0.00284 0.0
H792 H 0.53128 0.439 0.97714 0.0
H793 H 0.61534 0.49516 0.0013 0.0
H794 H 0.61112 0.52309 0.01863 0.0
H795 H 0.28879 0.42643 0.9878 0.0
H796 H 0.33396 0.42137 0.99277 0.0
H797 H 0.31127 0.3832 0.98686 0.0
C798 C 0.95129 0.66128 0.48204 0.0
C799 C 0.96281 0.63977 0.47207 0.0
C800 C 0.99755 0.58654 0.47765 0.0
C801 C 0.99772 0.54895 0.47722 0.0
C802 C 0.02834 0.5292 0.48009 0.0
C803 C 0.05933 0.54766 0.48374 0.0
C804 C 0.05926 0.58575 0.48434 0.0
C805 C 0.02839 0.60487 0.48125 0.0
C806 C 0.02752 0.48861 0.4792 0.0
C807 C 0.09175 0.60616 0.48832 0.0
C808 C 0.3023 0.43565 0.4427 0.0
C809 C 0.28669 0.46677 0.44933 0.0
C810 C 0.22556 0.47651 0.45614 0.0
C811 C 0.234 0.50204 0.4641 0.0
C812 C 0.20872 0.51125 0.47209 0.0
C813 C 0.17479 0.4938 0.47227 0.0
C814 C 0.166 0.46874 0.46408 0.0
C815 C 0.19137 0.46093 0.45602 0.0
C816 C 0.21844 0.5392 0.48042 0.0
C817 C 0.13003 0.44974 0.46393 0.0
C818 C 0.2509 0.36006 0.52574 0.0
C819 C 0.25215 0.39664 0.52871 0.0
C820 C 0.22168 0.41873 0.52764 0.0
C821 C 0.18943 0.40394 0.52351 0.0
C822 C 0.18764 0.36672 0.52104 0.0
C823 C 0.2184 0.3452 0.52229 0.0
C824 C 0.22419 0.4581 0.53063 0.0
C825 C 0.15355 0.34991 0.51677 0.0
C826 C 0.91943 0.43634 0.5413 0.0
C827 C 0.9432 0.4207 0.55019 0.0
C828 C 0.00392 0.44271 0.54564 0.0
C829 C 0.03128 0.46678 0.54849 0.0
C830 C 0.06308 0.4695 0.54236 0.0
C831 C 0.06751 0.44749 0.53315 0.0
C832 C 0.04029 0.42258 0.53031 0.0
C833 C 0.00884 0.42048 0.53655 0.0
C834 C 0.09161 0.49633 0.54556 0.0
C835 C 0.04412 0.39856 0.52054 0.0
C836 C 0.09181 0.52698 0.48686 0.0
C837 C 0.11911 0.52248 0.47918 0.0
C838 C 0.1489 0.50054 0.48119 0.0
C839 C 0.15208 0.48309 0.49121 0.0
C840 C 0.18146 0.46046 0.49346 0.0
C841 C 0.18402 0.44292 0.50327 0.0
C842 C 0.15691 0.44669 0.51114 0.0
C843 C 0.15861 0.42787 0.52098 0.0
C844 C 0.12996 0.43018 0.5283 0.0
C845 C 0.09968 0.45127 0.5261 0.0
C846 C 0.09852 0.47196 0.51661 0.0
C847 C 0.06918 0.49469 0.5144 0.0
C848 C 0.06736 0.51349 0.50479 0.0
C849 C 0.09448 0.50975 0.49692 0.0
C850 C 0.12471 0.48768 0.49909 0.0
C851 C 0.12693 0.46911 0.50901 0.0
C852 C 0.33758 0.32285 0.51867 0.0
C853 C 0.31603 0.34943 0.5256 0.0
O854 O 0.96694 0.60372 0.47463 0.0
O855 O 0.97333 0.44215 0.55176 0.0
O856 O 0.28038 0.33836 0.526 0.0
O857 O 0.24953 0.46626 0.44844 0.0
H858 H 0.98867 0.65093 0.46895 0.0
H859 H 0.97227 0.65952 0.48832 0.0
H860 H 0.92565 0.6506 0.48541 0.0
H861 H 0.94758 0.69014 0.47997 0.0
H862 H 0.97374 0.53508 0.47449 0.0
H863 H 0.02848 0.63397 0.4818 0.0
H864 H 0.05141 0.47881 0.47463 0.0
H865 H 0.00278 0.47869 0.47517 0.0
H866 H 0.02865 0.47667 0.48734 0.0
H867 H 0.08669 0.6356 0.48896 0.0
H868 H 0.11477 0.60164 0.48273 0.0
H869 H 0.09979 0.59589 0.49631 0.0
H870 H 0.2944 0.46196 0.45784 0.0
H871 H 0.3321 0.43475 0.44348 0.0
H872 H 0.29532 0.43868 0.43408 0.0
H873 H 0.29115 0.40966 0.44562 0.0
H874 H 0.26015 0.51496 0.46408 0.0
H875 H 0.18502 0.44165 0.44974 0.0
H876 H 0.19607 0.55882 0.48147 0.0
H877 H 0.24339 0.5541 0.47825 0.0
H878 H 0.22272 0.52584 0.48826 0.0
H879 H 0.12896 0.42819 0.45771 0.0
H880 H 0.10845 0.4696 0.46224 0.0
H881 H 0.12418 0.43762 0.47188 0.0
H882 H 0.31823 0.376 0.52151 0.0
H883 H 0.27684 0.40814 0.53178 0.0
H884 H 0.21756 0.31681 0.52021 0.0
H885 H 0.22266 0.47468 0.52325 0.0
H886 H 0.24972 0.4646 0.53483 0.0
H887 H 0.20113 0.46583 0.53588 0.0
H888 H 0.15702 0.32087 0.51481 0.0
H889 H 0.14479 0.36426 0.50943 0.0
H890 H 0.13172 0.35268 0.52285 0.0
H891 H 0.95165 0.39311 0.54772 0.0
H892 H 0.89443 0.42011 0.54045 0.0
H893 H 0.93386 0.4358 0.53347 0.0
H894 H 0.91202 0.46475 0.54309 0.0
H895 H 0.02744 0.4838 0.5555 0.0
H896 H 0.98823 0.40161 0.53414 0.0
H897 H 0.09592 0.51591 0.53896 0.0
H898 H 0.11755 0.48214 0.54686 0.0
H899 H 0.08425 0.51136 0.55299 0.0
H900 H 0.02196 0.37854 0.51993 0.0
H901 H 0.07018 0.38392 0.52076 0.0
H902 H 0.04412 0.41534 0.51318 0.0
H903 H 0.1165 0.53521 0.4714 0.0
H904 H 0.20284 0.45593 0.48766 0.0
H905 H 0.20727 0.42587 0.50451 0.0
H906 H 0.13065 0.41434 0.53559 0.0
H907 H 0.04724 0.49815 0.52009 0.0
H908 H 0.04412 0.53055 0.50352 0.0
H909 H 0.33585 0.29513 0.52197 0.0
H910 H 0.36634 0.33113 0.51826 0.0
H911 H 0.32669 0.32246 0.51039 0.0
C912 C 0.11573 0.71543 0.14966 0.0
C913 C 0.98254 0.67623 0.14954 0.0
C914 C 0.97937 0.72612 0.11839 0.0
Mg915 Mg 0.15872 0.77927 0.13773 0.0
Mg916 Mg 0.12155 0.85056 0.12617 0.0
O917 O 0.11985 0.80111 0.12871 0.0
Mg918 Mg 0.07763 0.77399 0.13445 0.0
O919 O 0.03861 0.74234 0.14027 0.0
Mg920 Mg 0.05135 0.69637 0.13264 0.0
Mg921 Mg 0.99009 0.75484 0.14146 0.0
C922 C 0.04369 0.83319 0.11699 0.0
O923 O 0.05756 0.81852 0.14621 0.0
O924 O 0.2002 0.80864 0.12661 0.0
O925 O 0.99853 0.80702 0.14922 0.0
O926 O 0.15738 0.82842 0.1498 0.0
O927 O 0.17168 0.8523 0.11756 0.0
O928 O 0.12979 0.87407 0.14149 0.0
O929 O 0.09476 0.72818 0.12316 0.0
O930 O 0.1545 0.73216 0.12592 0.0
C931 C 0.12713 0.71682 0.1216 0.0
C932 C 0.19987 0.83353 0.11946 0.0
O933 O 0.04272 0.80212 0.12157 0.0
O934 O 0.00901 0.66767 0.14335 0.0
O935 O 0.06971 0.85563 0.11828 0.0
O936 O 0.00665 0.70535 0.11972 0.0
O937 O 0.97146 0.70881 0.15055 0.0
O938 O 0.96996 0.74942 0.12547 0.0
O939 O 0.11439 0.74881 0.14701 0.0
O940 O 0.09438 0.69183 0.14564 0.0
C941 C 0.14525 0.86083 0.14969 0.0
C942 C 0.02694 0.82639 0.15054 0.0
C943 C 0.61989 0.79835 0.39358 0.0
C944 C 0.68128 0.67683 0.39388 0.0
C945 C 0.62582 0.65808 0.36348 0.0
Mg946 Mg 0.54787 0.82937 0.38272 0.0
Mg947 Mg 0.48041 0.77886 0.37396 0.0
O948 O 0.53017 0.78668 0.37427 0.0
Mg949 Mg 0.56522 0.75001 0.37951 0.0
O950 O 0.60429 0.71751 0.38476 0.0
Mg951 Mg 0.64615 0.73662 0.37629 0.0
Mg952 Mg 0.60183 0.66822 0.3872 0.0
C953 C 0.5085 0.70595 0.36324 0.0
O954 O 0.52658 0.72383 0.39196 0.0
O955 O 0.50867 0.86427 0.37264 0.0
O956 O 0.55018 0.66891 0.3955 0.0
O957 O 0.50318 0.82245 0.39581 0.0
O958 O 0.46574 0.82807 0.36589 0.0
O959 O 0.46245 0.78212 0.39033 0.0
O960 O 0.60562 0.77316 0.36739 0.0
O961 O 0.59223 0.83168 0.3699 0.0
C962 C 0.6113 0.80673 0.36548 0.0
C963 C 0.48061 0.8591 0.36684 0.0
O964 O 0.5403 0.71 0.36719 0.0
O965 O 0.68395 0.70202 0.38689 0.0
O966 O 0.48236 0.72769 0.36532 0.0
O967 O 0.64143 0.68903 0.36372 0.0
O968 O 0.65139 0.66082 0.3958 0.0
O969 O 0.60797 0.64606 0.37151 0.0
O970 O 0.58675 0.79133 0.39153 0.0
O971 O 0.64588 0.78099 0.3891 0.0
C972 C 0.4748 0.8035 0.39748 0.0
C973 C 0.5256 0.69305 0.39667 0.0
C974 C 0.60217 0.19651 0.65162 0.0
C975 C 0.47459 0.14546 0.64907 0.0
C976 C 0.46996 0.20156 0.61874 0.0
Mg977 Mg 0.64036 0.26715 0.64189 0.0
Mg978 Mg 0.59436 0.33898 0.63416 0.0
O979 O 0.60056 0.28899 0.63306 0.0
Mg980 Mg 0.56062 0.25566 0.63727 0.0
O981 O 0.52418 0.2188 0.64163 0.0
Mg982 Mg 0.54268 0.17623 0.6333 0.0
Mg983 Mg 0.47445 0.22567 0.64248 0.0
C984 C 0.52344 0.31696 0.62137 0.0
O985 O 0.53357 0.29516 0.64936 0.0
O986 O 0.67869 0.30596 0.6328 0.0
O987 O 0.47542 0.27728 0.65092 0.0
O988 O 0.63491 0.30954 0.65559 0.0
O989 O 0.64629 0.35389 0.62748 0.0
O990 O 0.59432 0.35121 0.65103 0.0
O991 O 0.58372 0.21501 0.62511 0.0
O992 O 0.64224 0.22508 0.62846 0.0
C993 C 0.61727 0.20808 0.62347 0.0
C994 C 0.67609 0.33643 0.62799 0.0
O995 O 0.52557 0.28415 0.62465 0.0
O996 O 0.50207 0.14077 0.64289 0.0
O997 O 0.54517 0.3418 0.62456 0.0
O998 O 0.49957 0.18418 0.61993 0.0
O999 O 0.46037 0.17653 0.65061 0.0
O1000 O 0.45646 0.2209 0.62627 0.0
O1001 O 0.59801 0.23014 0.64964 0.0
O1002 O 0.5838 0.17216 0.64679 0.0
C1003 C 0.61558 0.33713 0.65784 0.0
C1004 C 0.50122 0.29935 0.65296 0.0
C1005 C 0.11789 0.29173 0.88933 0.0
C1006 C 0.17482 0.16395 0.88805 0.0
C1007 C 0.11224 0.15052 0.85918 0.0
Mg1008 Mg 0.04388 0.32335 0.87966 0.0
Mg1009 Mg 0.97351 0.27351 0.8724 0.0
O1010 O 0.02348 0.27989 0.8723 0.0
Mg1011 Mg 0.05912 0.24305 0.87705 0.0
O1012 O 0.09848 0.20966 0.88161 0.0
Mg1013 Mg 0.13833 0.22753 0.87202 0.0
Mg1014 Mg 0.09314 0.15985 0.88304 0.0
C1015 C 0.99877 0.19949 0.86188 0.0
O1016 O 0.02379 0.21821 0.89063 0.0
O1017 O 0.0036 0.35785 0.86984 0.0
O1018 O 0.04392 0.16113 0.89266 0.0
O1019 O 0.00125 0.31972 0.89345 0.0
O1020 O 0.9593 0.32188 0.86381 0.0
O1021 O 0.95786 0.28075 0.88885 0.0
O1022 O 0.09665 0.26417 0.86388 0.0
O1023 O 0.08483 0.32316 0.86586 0.0
C1024 C 0.10201 0.29719 0.86133 0.0
C1025 C 0.97483 0.35269 0.86436 0.0
O1026 O 0.03105 0.20363 0.86542 0.0
O1027 O 0.17701 0.19135 0.88181 0.0
O1028 O 0.97285 0.22116 0.86427 0.0
O1029 O 0.13006 0.18016 0.85968 0.0
O1030 O 0.14492 0.14784 0.88997 0.0
O1031 O 0.09343 0.13919 0.86709 0.0
O1032 O 0.08411 0.28507 0.88825 0.0
O1033 O 0.1421 0.27325 0.88435 0.0
C1034 C 0.97202 0.30262 0.89557 0.0
C1035 C 0.0219 0.18682 0.895 0.0
C1036 C 0.27553 0.97101 0.46149 0.0
C1037 C 0.22957 0.9516 0.46295 0.0
C1038 C 0.30822 0.94102 0.45556 0.0
C1039 C 0.313 0.85766 0.43459 0.0
H1040 H 0.41252 0.86154 0.44381 0.0
C1041 C 0.42305 0.78792 0.40966 0.0
C1042 C 0.45332 0.80949 0.40742 0.0
C1043 C 0.39912 0.79731 0.41792 0.0
C1044 C 0.38486 0.86019 0.44112 0.0
H1045 H 0.18492 0.90534 0.4546 0.0
H1046 H 0.23994 0.86108 0.44468 0.0
H1047 H 0.36578 0.8912 0.45456 0.0
H1048 H 0.48349 0.85643 0.41264 0.0
H1049 H 0.44146 0.87322 0.42685 0.0
H1050 H 0.33193 0.82794 0.42096 0.0
C1051 C 0.24751 0.88581 0.44869 0.0
C1052 C 0.35808 0.87723 0.44728 0.0
C1053 C 0.21275 0.91399 0.45438 0.0
C1054 C 0.46041 0.83924 0.41411 0.0
C1055 C 0.43632 0.84879 0.42232 0.0
C1056 C 0.3397 0.84074 0.42843 0.0
C1057 C 0.29447 0.89867 0.4496 0.0
C1058 C 0.322 0.87677 0.44394 0.0
C1059 C 0.40472 0.82865 0.42409 0.0
C1060 C 0.3761 0.84243 0.43148 0.0
H1061 H 0.28375 0.99494 0.46582 0.0
H1062 H 0.33624 0.94898 0.4554 0.0
H1063 H 0.28565 0.85731 0.43164 0.0
H1064 H 0.41694 0.76457 0.40475 0.0
H1065 H 0.37551 0.7807 0.41922 0.0
C1066 C 0.32654 0.91663 0.70375 0.0
C1067 C 0.32582 0.88134 0.69965 0.0
C1068 C 0.34619 0.94351 0.69853 0.0
C1069 C 0.38448 0.96574 0.67185 0.0
H1070 H 0.42971 0.0436 0.68768 0.0
C1071 C 0.46837 0.07871 0.65162 0.0
C1072 C 0.45942 0.11403 0.65481 0.0
C1073 C 0.45428 0.0491 0.65714 0.0
C1074 C 0.41708 0.02206 0.68317 0.0
H1075 H 0.345 0.84651 0.6868 0.0
H1076 H 0.38054 0.89305 0.67791 0.0
H1077 H 0.40281 0.99333 0.69741 0.0
H1078 H 0.42889 0.1459 0.66636 0.0
H1079 H 0.40468 0.09417 0.67603 0.0
H1080 H 0.39918 0.99453 0.65761 0.0
C1081 C 0.36552 0.90016 0.68509 0.0
C1082 C 0.40156 0.9933 0.68873 0.0
C1083 C 0.34552 0.87334 0.69026 0.0
C1084 C 0.43623 0.11907 0.66366 0.0
C1085 C 0.42256 0.08948 0.66926 0.0
C1086 C 0.40038 0.9943 0.66629 0.0
C1087 C 0.36568 0.93573 0.68907 0.0
C1088 C 0.38459 0.965 0.68315 0.0
C1089 C 0.43141 0.05423 0.66604 0.0
C1090 C 0.41638 0.02297 0.67191 0.0
H1091 H 0.31099 0.92365 0.71085 0.0
H1092 H 0.34503 0.97068 0.70173 0.0
H1093 H 0.37115 0.94481 0.66727 0.0
H1094 H 0.48611 0.07389 0.64483 0.0
H1095 H 0.46163 0.02218 0.65452 0.0
C1096 C 0.41974 0.06494 0.9469 0.0
C1097 C 0.43664 0.09588 0.95107 0.0
C1098 C 0.39485 0.06785 0.93857 0.0
C1099 C 0.36366 0.12576 0.91675 0.0
H1100 H 0.26857 0.08854 0.92346 0.0
C1101 C 0.23719 0.17499 0.89481 0.0
C1102 C 0.20772 0.1516 0.89358 0.0
C1103 C 0.26737 0.16435 0.90063 0.0
C1104 C 0.29506 0.09843 0.92129 0.0
H1105 H 0.44219 0.15376 0.9494 0.0
H1106 H 0.39942 0.15866 0.93466 0.0
H1107 H 0.31854 0.07602 0.93543 0.0
H1108 H 0.18743 0.09812 0.8971 0.0
H1109 H 0.24064 0.079 0.90691 0.0
H1110 H 0.34051 0.14803 0.90259 0.0
C1111 C 0.40522 0.13226 0.93791 0.0
C1112 C 0.32367 0.09131 0.92819 0.0
C1113 C 0.42959 0.12946 0.94635 0.0
C1114 C 0.20957 0.1169 0.898 0.0
C1115 C 0.24003 0.10603 0.90368 0.0
C1116 C 0.3352 0.1324 0.90974 0.0
C1117 C 0.38701 0.10162 0.93411 0.0
C1118 C 0.35803 0.10555 0.9261 0.0
C1119 C 0.26912 0.12982 0.90523 0.0
C1120 C 0.30029 0.11955 0.91205 0.0
H1121 H 0.4249 0.03869 0.95033 0.0
H1122 H 0.38129 0.04381 0.93572 0.0
H1123 H 0.39003 0.13675 0.91492 0.0
H1124 H 0.2365 0.20202 0.89156 0.0
H1125 H 0.2888 0.18375 0.9018 0.0
C1126 C 0.1535 0.11966 0.20611 0.0
C1127 C 0.14553 0.11968 0.21714 0.0
C1128 C 0.1575 0.08727 0.2005 0.0
C1129 C 0.13079 0.99248 0.20033 0.0
H1130 H 0.20683 0.98538 0.17892 0.0
C1131 C 0.14799 0.87257 0.16965 0.0
C1132 C 0.15012 0.88502 0.15902 0.0
C1133 C 0.15026 0.89703 0.17827 0.0
C1134 C 0.18554 0.98689 0.1849 0.0
H1135 H 0.13582 0.08576 0.23096 0.0
H1136 H 0.14195 0.02872 0.22102 0.0
H1137 H 0.20573 0.03644 0.19129 0.0
H1138 H 0.15681 0.9324 0.14908 0.0
H1139 H 0.1616 0.97446 0.16397 0.0
H1140 H 0.10987 0.94342 0.19355 0.0
C1141 C 0.14527 0.05392 0.21678 0.0
C1142 C 0.18485 0.01615 0.19196 0.0
C1143 C 0.1418 0.08646 0.22245 0.0
C1144 C 0.15513 0.92198 0.15718 0.0
C1145 C 0.15805 0.94608 0.16571 0.0
C1146 C 0.13139 0.96312 0.19319 0.0
C1147 C 0.1533 0.05403 0.20573 0.0
C1148 C 0.1568 0.01998 0.19949 0.0
C1149 C 0.15559 0.934 0.17634 0.0
C1150 C 0.15816 0.96076 0.18518 0.0
H1151 H 0.15634 0.14478 0.20179 0.0
H1152 H 0.16317 0.08828 0.19196 0.0
H1153 H 0.10897 0.9946 0.2061 0.0
H1154 H 0.14366 0.84424 0.17127 0.0
H1155 H 0.14812 0.88711 0.18642 0.0
C1156 C 0.26711 0.07069 0.55261 0.0
C1157 C 0.23262 0.07182 0.55736 0.0
C1158 C 0.29574 0.08999 0.55707 0.0
C1159 C 0.31905 0.16602 0.57443 0.0
H1160 H 0.40097 0.10851 0.58309 0.0
C1161 C 0.41335 0.21009 0.60827 0.0
C1162 C 0.4486 0.19636 0.60882 0.0
C1163 C 0.3906 0.20026 0.59988 0.0
C1164 C 0.37892 0.12539 0.58051 0.0
H1165 H 0.20128 0.09445 0.57055 0.0
H1166 H 0.25107 0.12909 0.57809 0.0
H1167 H 0.35378 0.08127 0.5723 0.0
H1168 H 0.48864 0.16417 0.6004 0.0
H1169 H 0.4493 0.14795 0.58552 0.0
H1170 H 0.34402 0.21027 0.58254 0.0
C1171 C 0.25575 0.11324 0.57089 0.0
C1172 C 0.35172 0.10959 0.57437 0.0
C1173 C 0.22727 0.09336 0.56656 0.0
C1174 C 0.46147 0.17481 0.60031 0.0
C1175 C 0.43876 0.16528 0.59182 0.0
C1176 C 0.34659 0.18207 0.5804 0.0
C1177 C 0.29034 0.1113 0.56627 0.0
C1178 C 0.32109 0.12948 0.57154 0.0
C1179 C 0.40257 0.17677 0.5917 0.0
C1180 C 0.37637 0.16167 0.58382 0.0
H1181 H 0.27207 0.05407 0.54558 0.0
H1182 H 0.3222 0.08802 0.55338 0.0
H1183 H 0.29585 0.18201 0.57222 0.0
H1184 H 0.40251 0.227 0.61462 0.0
H1185 H 0.36296 0.20952 0.6002 0.0
C1186 C 0.17245 0.89103 0.80778 0.0
C1187 C 0.15204 0.87996 0.7989 0.0
C1188 C 0.17094 0.92664 0.81143 0.0
C1189 C 0.17208 0.00763 0.81552 0.0
H1190 H 0.07417 0.04035 0.82058 0.0
C1191 C 0.13949 0.13456 0.84116 0.0
C1192 C 0.11484 0.12718 0.84949 0.0
C1193 C 0.14403 0.11015 0.83263 0.0
C1194 C 0.10167 0.03179 0.81911 0.0
H1195 H 0.1159 0.89803 0.78644 0.0
H1196 H 0.11255 0.96034 0.79299 0.0
H1197 H 0.08495 0.98617 0.80982 0.0
H1198 H 0.0747 0.0889 0.85513 0.0
H1199 H 0.08241 0.04699 0.84033 0.0
H1200 H 0.18868 0.05201 0.82539 0.0
C1201 C 0.12962 0.94132 0.79713 0.0
C1202 C 0.10785 0.00102 0.81286 0.0
C1203 C 0.13151 0.90573 0.7934 0.0
C1204 C 0.09403 0.09554 0.84889 0.0
C1205 C 0.0982 0.07155 0.84034 0.0
C1206 C 0.16591 0.03853 0.82175 0.0
C1207 C 0.14878 0.95194 0.80633 0.0
C1208 C 0.14303 0.98797 0.81128 0.0
C1209 C 0.12364 0.07822 0.83221 0.0
C1210 C 0.13055 0.05017 0.82391 0.0
H1211 H 0.18868 0.87183 0.81215 0.0
H1212 H 0.18573 0.93388 0.8186 0.0
H1213 H 0.1995 0.99832 0.81437 0.0
H1214 H 0.15603 0.1586 0.84139 0.0
H1215 H 0.16382 0.11595 0.82644 0.0
C1216 C 0.43038 0.81256 0.04889 0.0
C1217 C 0.4207 0.83497 0.04031 0.0
C1218 C 0.41109 0.81373 0.05857 0.0
C1219 C 0.34995 0.87171 0.07446 0.0
H1220 H 0.31876 0.78239 0.08761 0.0
C1221 C 0.23157 0.86436 0.10426 0.0
C1222 C 0.23194 0.83844 0.11245 0.0
C1223 C 0.25947 0.86595 0.09672 0.0
C1224 C 0.32785 0.8076 0.08419 0.0
H1225 H 0.3823 0.875 0.03498 0.0
H1226 H 0.34875 0.8772 0.05188 0.0
H1227 H 0.35795 0.78052 0.07184 0.0
H1228 H 0.26319 0.79522 0.1195 0.0
H1229 H 0.31221 0.79839 0.10639 0.0
H1230 H 0.3195 0.89883 0.08671 0.0
C1231 C 0.37174 0.85932 0.05121 0.0
C1232 C 0.35022 0.8065 0.07512 0.0
C1233 C 0.39082 0.85796 0.04152 0.0
C1234 C 0.26188 0.81538 0.11326 0.0
C1235 C 0.28988 0.81701 0.1057 0.0
C1236 C 0.32775 0.87283 0.08356 0.0
C1237 C 0.38173 0.83733 0.05985 0.0
C1238 C 0.36084 0.83852 0.07003 0.0
C1239 C 0.28856 0.84176 0.09719 0.0
C1240 C 0.31578 0.84077 0.08839 0.0
H1241 H 0.453 0.79426 0.04812 0.0
H1242 H 0.41937 0.79646 0.06509 0.0
H1243 H 0.35828 0.89684 0.07082 0.0
H1244 H 0.20903 0.88264 0.10339 0.0
H1245 H 0.25734 0.8851 0.09022 0.0
C1246 C 0.33146 0.08133 0.31059 0.0
C1247 C 0.32986 0.11692 0.31444 0.0
C1248 C 0.35128 0.05522 0.31601 0.0
C1249 C 0.38906 0.03584 0.34286 0.0
H1250 H 0.43565 0.95724 0.32754 0.0
C1251 C 0.47426 0.92556 0.36369 0.0
C1252 C 0.46538 0.8899 0.36086 0.0
C1253 C 0.45997 0.95456 0.35799 0.0
C1254 C 0.42265 0.97901 0.33191 0.0
H1255 H 0.34763 0.15302 0.32708 0.0
H1256 H 0.38353 0.10788 0.33632 0.0
H1257 H 0.40834 0.00629 0.31748 0.0
H1258 H 0.43482 0.85679 0.34976 0.0
H1259 H 0.41035 0.90745 0.33974 0.0
H1260 H 0.40394 0.00851 0.35729 0.0
C1261 C 0.36904 0.09992 0.32917 0.0
C1262 C 0.40687 0.00706 0.32616 0.0
C1263 C 0.34884 0.12596 0.3238 0.0
C1264 C 0.4421 0.88391 0.35218 0.0
C1265 C 0.42828 0.91287 0.34638 0.0
C1266 C 0.40528 0.008 0.3486 0.0
C1267 C 0.37012 0.06406 0.32543 0.0
C1268 C 0.38935 0.03559 0.33155 0.0
C1269 C 0.437 0.94846 0.34925 0.0
C1270 C 0.42175 0.97906 0.34318 0.0
H1271 H 0.31646 0.07348 0.30352 0.0
H1272 H 0.35076 0.0278 0.313 0.0
H1273 H 0.37534 0.05695 0.34731 0.0
H1274 H 0.49205 0.9311 0.37035 0.0
H1275 H 0.46721 0.98176 0.36033 0.0
C1276 C 0.79137 0.13245 0.54633 0.0
C1277 C 0.79146 0.09809 0.54153 0.0
C1278 C 0.77002 0.13945 0.55537 0.0
C1279 C 0.68954 0.1093 0.57019 0.0
H1280 H 0.73313 0.16249 0.59361 0.0
C1281 C 0.61136 0.18074 0.60511 0.0
C1282 C 0.62877 0.18228 0.61508 0.0
C1283 C 0.6282 0.16378 0.59632 0.0
C1284 C 0.72058 0.14722 0.58721 0.0
H1285 H 0.76792 0.04471 0.54211 0.0
H1286 H 0.73054 0.05694 0.55801 0.0
H1287 H 0.76911 0.14715 0.57788 0.0
H1288 H 0.67509 0.16402 0.62405 0.0
H1289 H 0.70378 0.13368 0.60889 0.0
H1290 H 0.64078 0.10974 0.57959 0.0
C1291 C 0.74729 0.07829 0.55481 0.0
C1292 C 0.74114 0.13883 0.57813 0.0
C1293 C 0.7689 0.0712 0.54579 0.0
C1294 C 0.66135 0.16363 0.6164 0.0
C1295 C 0.67789 0.14649 0.6077 0.0
C1296 C 0.66877 0.11795 0.57929 0.0
C1297 C 0.74784 0.11244 0.55974 0.0
C1298 C 0.72586 0.12001 0.56949 0.0
C1299 C 0.66246 0.14797 0.59745 0.0
C1300 C 0.68413 0.13703 0.5879 0.0
H1301 H 0.80769 0.154 0.54305 0.0
H1302 H 0.77052 0.16623 0.55887 0.0
H1303 H 0.67699 0.09495 0.56361 0.0
H1304 H 0.58629 0.19505 0.6039 0.0
H1305 H 0.61561 0.16532 0.58852 0.0
C1306 C 0.81471 0.99563 0.31703 0.0
C1307 C 0.81767 0.99224 0.30582 0.0
C1308 C 0.79694 0.96932 0.32306 0.0
C1309 C 0.73075 0.89514 0.32065 0.0
H1310 H 0.76274 0.8744 0.34954 0.0
C1311 C 0.65185 0.80022 0.34935 0.0
C1312 C 0.64247 0.81811 0.35893 0.0
C1313 C 0.67821 0.81484 0.34252 0.0
C1314 C 0.75366 0.87972 0.34146 0.0
H1315 H 0.80595 0.95776 0.29221 0.0
H1316 H 0.7752 0.91147 0.30275 0.0
H1317 H 0.79909 0.91329 0.33805 0.0
H1318 H 0.65467 0.86362 0.36926 0.0
H1319 H 0.70098 0.88847 0.35754 0.0
H1320 H 0.68499 0.86187 0.32419 0.0
C1321 C 0.7857 0.93498 0.30685 0.0
C1322 C 0.77429 0.90224 0.33489 0.0
C1323 C 0.80333 0.96144 0.30081 0.0
C1324 C 0.66124 0.84946 0.36187 0.0
C1325 C 0.68792 0.86355 0.3552 0.0
C1326 C 0.71027 0.87232 0.3272 0.0
C1327 C 0.78221 0.93863 0.31806 0.0
C1328 C 0.76254 0.91117 0.32452 0.0
C1329 C 0.6961 0.84695 0.34533 0.0
C1330 C 0.721 0.86527 0.33777 0.0
H1331 H 0.82611 0.0187 0.32115 0.0
H1332 H 0.79435 0.97337 0.33165 0.0
H1333 H 0.7207 0.90158 0.31275 0.0
H1334 H 0.63765 0.77605 0.34692 0.0
H1335 H 0.68413 0.80151 0.33495 0.0
C1336 C 0.76292 0.94772 0.07947 0.0
C1337 C 0.73858 0.91961 0.07735 0.0
C1338 C 0.79889 0.9402 0.08179 0.0
C1339 C 0.86854 0.86827 0.08106 0.0
H1340 H 0.9064 0.92005 0.10563 0.0
C1341 C 0.98944 0.81851 0.10592 0.0
C1342 C 0.01287 0.8443 0.11031 0.0
C1343 C 0.95889 0.82923 0.10027 0.0
C1344 C 0.89659 0.90577 0.09863 0.0
H1345 H 0.73271 0.86173 0.07594 0.0
H1346 H 0.79551 0.84844 0.08011 0.0
H1347 H 0.84774 0.93616 0.0986 0.0
H1348 H 0.02364 0.90161 0.11174 0.0
H1349 H 0.97042 0.92028 0.10187 0.0
H1350 H 0.91724 0.83728 0.0813 0.0
C1351 C 0.78704 0.87634 0.07974 0.0
C1352 C 0.8629 0.91503 0.09459 0.0
C1353 C 0.75107 0.88389 0.07739 0.0
C1354 C 0.00596 0.88103 0.10853 0.0
C1355 C 0.97533 0.89175 0.10294 0.0
C1356 C 0.90233 0.85898 0.08511 0.0
C1357 C 0.81121 0.90438 0.08216 0.0
C1358 C 0.84828 0.89615 0.08583 0.0
C1359 C 0.95104 0.86599 0.09894 0.0
C1360 C 0.91654 0.87739 0.09402 0.0
H1361 H 0.7539 0.97549 0.07962 0.0
H1362 H 0.81692 0.96242 0.0835 0.0
H1363 H 0.85819 0.8535 0.07422 0.0
H1364 H 0.99462 0.79006 0.10692 0.0
H1365 H 0.94079 0.80873 0.09725 0.0
C1366 C 0.94824 0.00663 0.78344 0.0
C1367 C 0.98029 0.98878 0.78057 0.0
C1368 C 0.94545 0.02516 0.7932 0.0
C1369 C 0.9924 0.03817 0.81947 0.0
H1370 H 0.93971 0.12848 0.81984 0.0
C1371 C 0.02108 0.15647 0.84794 0.0
C1372 C 0.99212 0.17052 0.85394 0.0
C1373 C 0.0153 0.13089 0.83992 0.0
C1374 C 0.95402 0.10302 0.81988 0.0
H1375 H 0.03441 0.97596 0.78571 0.0
H1376 H 0.03052 0.01027 0.80236 0.0
H1377 H 0.93845 0.09048 0.80383 0.0
H1378 H 0.93403 0.16928 0.85603 0.0
H1379 H 0.92391 0.1244 0.84178 0.0
H1380 H 0.01003 0.05246 0.83528 0.0
C1381 C 0.00695 0.00888 0.79733 0.0
C1382 C 0.95328 0.08111 0.81073 0.0
C1383 C 0.00943 0.98964 0.78769 0.0
C1384 C 0.95698 0.15861 0.85164 0.0
C1385 C 0.95115 0.13305 0.84351 0.0
C1386 C 0.99376 0.06049 0.82851 0.0
C1387 C 0.97494 0.02694 0.80023 0.0
C1388 C 0.973 0.04866 0.81032 0.0
C1389 C 0.98038 0.11895 0.83764 0.0
C1390 C 0.97497 0.09328 0.82872 0.0
H1391 H 0.92527 0.00623 0.77812 0.0
H1392 H 0.92013 0.0381 0.7952 0.0
H1393 H 0.00715 0.01301 0.8196 0.0
H1394 H 0.04812 0.16637 0.84915 0.0
H1395 H 0.038 0.12135 0.83519 0.0
C1396 C 0.84452 0.91106 0.44475 0.0
C1397 C 0.85994 0.94516 0.44309 0.0
C1398 C 0.80875 0.90446 0.44196 0.0
C1399 C 0.74297 0.93259 0.4224 0.0
H1400 H 0.68074 0.86718 0.4381 0.0
C1401 C 0.6271 0.86073 0.4009 0.0
C1402 C 0.62945 0.82332 0.40226 0.0
C1403 C 0.64494 0.88394 0.40803 0.0
C1404 C 0.69763 0.88569 0.43364 0.0
H1405 H 0.84943 0.99966 0.43777 0.0
H1406 H 0.78684 0.98785 0.43265 0.0
H1407 H 0.73359 0.89281 0.44687 0.0
H1408 H 0.64997 0.7806 0.41225 0.0
H1409 H 0.6807 0.82056 0.42466 0.0
H1410 H 0.70867 0.92359 0.40894 0.0
C1411 C 0.80257 0.96627 0.4361 0.0
C1412 C 0.72787 0.90035 0.43866 0.0
C1413 C 0.83831 0.97301 0.43902 0.0
C1414 C 0.64752 0.80947 0.41117 0.0
C1415 C 0.665 0.83248 0.4183 0.0
C1416 C 0.71287 0.91772 0.41734 0.0
C1417 C 0.78763 0.93173 0.43737 0.0
C1418 C 0.75167 0.92273 0.43295 0.0
C1419 C 0.66518 0.86992 0.41659 0.0
C1420 C 0.69079 0.8928 0.42275 0.0
H1421 H 0.86047 0.88912 0.4479 0.0
H1422 H 0.79818 0.87743 0.44292 0.0
H1423 H 0.76089 0.94962 0.41777 0.0
H1424 H 0.61363 0.8718 0.39397 0.0
H1425 H 0.64437 0.91267 0.40654 0.0
C1426 C 0.04424 0.06523 0.21956 0.0
C1427 C 0.02017 0.05801 0.22805 0.0
C1428 C 0.04581 0.04246 0.21058 0.0
C1429 C 0.02236 0.94897 0.20256 0.0
H1430 H 0.03641 0.98378 0.17353 0.0
C1431 C 0.99811 0.85782 0.16619 0.0
C1432 C 0.02498 0.85708 0.15819 0.0
C1433 C 0.99852 0.88421 0.17421 0.0
C1434 C 0.03276 0.97372 0.18161 0.0
H1435 H 0.97829 0.02201 0.23367 0.0
H1436 H 0.98016 0.98292 0.21794 0.0
H1437 H 0.03509 0.02669 0.18852 0.0
H1438 H 0.07156 0.8851 0.15189 0.0
H1439 H 0.07268 0.93113 0.16603 0.0
H1440 H 0.01942 0.89618 0.19567 0.0
C1441 C 0.99852 0.00558 0.21829 0.0
C1442 C 0.03207 0.99824 0.1902 0.0
C1443 C 0.99713 0.02817 0.22726 0.0
C1444 C 0.05117 0.88444 0.1581 0.0
C1445 C 0.05153 0.91101 0.16611 0.0
C1446 C 0.02273 0.92463 0.194 0.0
C1447 C 0.02338 0.01195 0.20993 0.0
C1448 C 0.0262 0.98617 0.20076 0.0
C1449 C 0.02565 0.91063 0.17439 0.0
C1450 C 0.02733 0.93675 0.18342 0.0
H1451 H 0.06234 0.08804 0.22 0.0
H1452 H 0.06533 0.04819 0.20432 0.0
H1453 H 0.01899 0.93853 0.2106 0.0
H1454 H 0.97742 0.83725 0.1665 0.0
H1455 H 0.9778 0.88365 0.18037 0.0
C1456 C 0.85895 0.099 0.97555 0.0
C1457 C 0.84199 0.12635 0.98155 0.0
C1458 C 0.87287 0.10614 0.96532 0.0
C1459 C 0.90931 0.18034 0.94941 0.0
H1460 H 0.90122 0.11318 0.9256 0.0
C1461 C 0.97748 0.20948 0.90871 0.0
C1462 C 0.99482 0.18043 0.90359 0.0
C1463 C 0.95439 0.2037 0.91745 0.0
C1464 C 0.90401 0.13209 0.9322 0.0
H1465 H 0.82579 0.18244 0.98154 0.0
H1466 H 0.85029 0.19505 0.96366 0.0
H1467 H 0.86885 0.10131 0.94234 0.0
H1468 H 0.00086 0.12224 0.90353 0.0
H1469 H 0.96129 0.1122 0.91886 0.0
H1470 H 0.94536 0.21052 0.9395 0.0
C1471 C 0.85283 0.16809 0.96687 0.0
C1472 C 0.88536 0.12531 0.94177 0.0
C1473 C 0.83867 0.16087 0.97706 0.0
C1474 C 0.9879 0.14531 0.90727 0.0
C1475 C 0.96491 0.13951 0.91602 0.0
C1476 C 0.92817 0.18697 0.93989 0.0
C1477 C 0.87046 0.14091 0.96095 0.0
C1478 C 0.8881 0.14919 0.95051 0.0
C1479 C 0.9482 0.16869 0.92132 0.0
C1480 C 0.92609 0.16275 0.93118 0.0
H1481 H 0.86209 0.07225 0.97886 0.0
H1482 H 0.88667 0.08476 0.96101 0.0
H1483 H 0.91238 0.19899 0.95606 0.0
H1484 H 0.98274 0.23682 0.90622 0.0
H1485 H 0.94177 0.22677 0.92127 0.0
C1486 C 0.81352 0.97866 0.68219 0.0
C1487 C 0.79542 0.94793 0.68603 0.0
C1488 C 0.79508 0.01128 0.68094 0.0
C1489 C 0.70118 0.04343 0.67781 0.0
H1490 H 0.74508 0.13832 0.6783 0.0
C1491 C 0.61569 0.16447 0.66834 0.0
C1492 C 0.62843 0.18409 0.65952 0.0
C1493 C 0.6389 0.14226 0.67405 0.0
C1494 C 0.73255 0.11195 0.67818 0.0
H1495 H 0.74515 0.92858 0.6928 0.0
H1496 H 0.71365 0.98565 0.69121 0.0
H1497 H 0.78008 0.0857 0.68394 0.0
H1498 H 0.67547 0.19812 0.65009 0.0
H1499 H 0.71649 0.15885 0.6601 0.0
H1500 H 0.65386 0.06937 0.67205 0.0
C1501 C 0.74141 0.98419 0.68852 0.0
C1502 C 0.75257 0.08177 0.68135 0.0
C1503 C 0.75955 0.95147 0.68952 0.0
C1504 C 0.66533 0.18365 0.65701 0.0
C1505 C 0.68868 0.16113 0.66272 0.0
C1506 C 0.6812 0.07344 0.67481 0.0
C1507 C 0.75843 0.01417 0.6838 0.0
C1508 C 0.73715 0.04703 0.68114 0.0
C1509 C 0.67518 0.13883 0.67092 0.0
C1510 C 0.69661 0.10799 0.67491 0.0
H1511 H 0.84153 0.97719 0.67976 0.0
H1512 H 0.80923 0.03369 0.67731 0.0
H1513 H 0.68855 0.01721 0.67717 0.0
H1514 H 0.5872 0.16424 0.67031 0.0
H1515 H 0.6279 0.12574 0.68043 0.0
C1516 C 0.7552 0.37717 0.96685 0.0
C1517 C 0.75713 0.41314 0.97041 0.0
C1518 C 0.77972 0.36388 0.95926 0.0
C1519 C 0.86992 0.37745 0.94827 0.0
H1520 H 0.83396 0.32639 0.92332 0.0
C1521 C 0.9605 0.3416 0.91175 0.0
C1522 C 0.95205 0.31086 0.90563 0.0
C1523 C 0.93841 0.35218 0.92035 0.0
C1524 C 0.84466 0.33988 0.93034 0.0
H1525 H 0.78507 0.46407 0.9681 0.0
H1526 H 0.82859 0.44039 0.95511 0.0
H1527 H 0.79178 0.34881 0.93681 0.0
H1528 H 0.91495 0.26593 0.90416 0.0
H1529 H 0.87773 0.28318 0.91943 0.0
H1530 H 0.92286 0.36795 0.94197 0.0
C1531 C 0.8084 0.42241 0.95841 0.0
C1532 C 0.82037 0.35296 0.93802 0.0
C1533 C 0.78348 0.4359 0.96588 0.0
C1534 C 0.92213 0.28993 0.90865 0.0
C1535 C 0.90049 0.30008 0.91736 0.0
C1536 C 0.89434 0.36387 0.94066 0.0
C1537 C 0.80676 0.38627 0.95505 0.0
C1538 C 0.83274 0.37205 0.94702 0.0
C1539 C 0.90765 0.33197 0.92312 0.0
C1540 C 0.88202 0.34506 0.93155 0.0
H1541 H 0.73467 0.35923 0.96998 0.0
H1542 H 0.77779 0.33594 0.95676 0.0
H1543 H 0.88012 0.39179 0.95521 0.0
H1544 H 0.98322 0.35848 0.90961 0.0
H1545 H 0.94468 0.37708 0.9245 0.0
C1546 C 0.84452 0.41644 0.19476 0.0
C1547 C 0.82893 0.42455 0.2048 0.0
C1548 C 0.86297 0.44294 0.18898 0.0
C1549 C 0.90309 0.53482 0.19158 0.0
H1550 H 0.8928 0.53504 0.16062 0.0
C1551 C 0.94336 0.65574 0.16483 0.0
C1552 C 0.96471 0.64738 0.15579 0.0
C1553 C 0.92749 0.62828 0.17089 0.0
C1554 C 0.89608 0.53515 0.16925 0.0
H1555 H 0.81956 0.46689 0.21649 0.0
H1556 H 0.85074 0.51346 0.20631 0.0
H1557 H 0.86441 0.48749 0.17111 0.0
H1558 H 0.98557 0.60364 0.14592 0.0
H1559 H 0.95729 0.55585 0.1564 0.0
H1560 H 0.93392 0.58325 0.18965 0.0
C1561 C 0.85 0.48637 0.20304 0.0
C1562 C 0.88001 0.50779 0.17528 0.0
C1563 C 0.83199 0.45975 0.20888 0.0
C1564 C 0.96939 0.61101 0.15286 0.0
C1565 C 0.95308 0.58363 0.15882 0.0
C1566 C 0.91874 0.56245 0.18555 0.0
C1567 C 0.86555 0.4784 0.19297 0.0
C1568 C 0.88332 0.50721 0.18654 0.0
C1569 C 0.93218 0.59199 0.16793 0.0
C1570 C 0.9154 0.56284 0.17433 0.0
H1571 H 0.84212 0.38973 0.19129 0.0
H1572 H 0.87502 0.4356 0.18134 0.0
H1573 H 0.90681 0.53498 0.20019 0.0
H1574 H 0.9393 0.68347 0.16732 0.0
H1575 H 0.91125 0.63543 0.17784 0.0
C1576 C 0.90205 0.62369 0.46422 0.0
C1577 C 0.93462 0.64288 0.4634 0.0
C1578 C 0.87621 0.62609 0.45616 0.0
C1579 C 0.84614 0.68374 0.43396 0.0
H1580 H 0.79623 0.59734 0.42462 0.0
C1581 C 0.74593 0.68648 0.3989 0.0
C1582 C 0.71308 0.66834 0.40055 0.0
C1583 C 0.77472 0.68147 0.40591 0.0
C1584 C 0.80975 0.62174 0.42719 0.0
H1585 H 0.96513 0.68051 0.45369 0.0
H1586 H 0.92003 0.68455 0.43953 0.0
H1587 H 0.84276 0.59312 0.43831 0.0
H1588 H 0.68535 0.62961 0.41067 0.0
H1589 H 0.73546 0.62114 0.42292 0.0
H1590 H 0.81289 0.71245 0.42296 0.0
C1591 C 0.91452 0.66763 0.44641 0.0
C1592 C 0.83637 0.61933 0.43504 0.0
C1593 C 0.94042 0.66519 0.45447 0.0
C1594 C 0.71023 0.64401 0.40914 0.0
C1595 C 0.73904 0.63903 0.41615 0.0
C1596 C 0.81951 0.68615 0.42612 0.0
C1597 C 0.88222 0.64794 0.44713 0.0
C1598 C 0.8547 0.65034 0.43856 0.0
C1599 C 0.77138 0.65821 0.41473 0.0
C1600 C 0.80085 0.65522 0.42269 0.0
H1601 H 0.89667 0.60671 0.47109 0.0
H1602 H 0.85132 0.61113 0.45705 0.0
H1603 H 0.8594 0.70819 0.4366 0.0
H1604 H 0.74921 0.70525 0.39234 0.0
H1605 H 0.7995 0.69615 0.40448 0.0
C1606 C 0.63606 0.59769 0.7149 0.0
C1607 C 0.6666 0.61585 0.71093 0.0
C1608 C 0.6309 0.5611 0.71263 0.0
C1609 C 0.67448 0.47745 0.70303 0.0
H1610 H 0.58727 0.46392 0.68665 0.0
C1611 C 0.65669 0.36818 0.6705 0.0
C1612 C 0.62177 0.35659 0.66797 0.0
C1613 C 0.66208 0.39334 0.67872 0.0
C1614 C 0.61101 0.46653 0.69156 0.0
H1615 H 0.71741 0.6091 0.70248 0.0
H1616 H 0.70868 0.54509 0.69867 0.0
H1617 H 0.5965 0.52007 0.6963 0.0
H1618 H 0.5657 0.35855 0.6727 0.0
H1619 H 0.57522 0.40094 0.68753 0.0
H1620 H 0.68914 0.42391 0.69813 0.0
C1621 C 0.68848 0.55928 0.70337 0.0
C1622 C 0.6165 0.49895 0.697 0.0
C1623 C 0.69332 0.59597 0.70548 0.0
C1624 C 0.59271 0.36787 0.67438 0.0
C1625 C 0.5982 0.39228 0.68279 0.0
C1626 C 0.66858 0.44456 0.69775 0.0
C1627 C 0.65669 0.54181 0.70662 0.0
C1628 C 0.6487 0.50513 0.70254 0.0
C1629 C 0.63265 0.40682 0.68468 0.0
C1630 C 0.63706 0.43904 0.69174 0.0
H1631 H 0.61547 0.61207 0.71939 0.0
H1632 H 0.60629 0.54811 0.7153 0.0
H1633 H 0.69955 0.48161 0.70727 0.0
H1634 H 0.67948 0.35987 0.6656 0.0
H1635 H 0.68895 0.40396 0.67988 0.0
C1636 C 0.72055 0.60163 0.07624 0.0
C1637 C 0.70793 0.6127 0.06618 0.0
C1638 C 0.7531 0.61468 0.08023 0.0
C1639 C 0.80388 0.67043 0.08953 0.0
H1640 H 0.89544 0.67176 0.07432 0.0
C1641 C 0.92408 0.74167 0.10801 0.0
C1642 C 0.95487 0.71996 0.10917 0.0
C1643 C 0.89688 0.73193 0.10089 0.0
C1644 C 0.86998 0.67164 0.07862 0.0
H1645 H 0.7197 0.64622 0.05238 0.0
H1646 H 0.77733 0.6686 0.05931 0.0
H1647 H 0.84191 0.64591 0.06561 0.0
H1648 H 0.98244 0.67248 0.10304 0.0
H1649 H 0.93452 0.65529 0.09063 0.0
H1650 H 0.8314 0.69576 0.10253 0.0
C1651 C 0.76199 0.64945 0.06402 0.0
C1652 C 0.83943 0.65702 0.07363 0.0
C1653 C 0.72909 0.63663 0.06006 0.0
C1654 C 0.95905 0.68977 0.10239 0.0
C1655 C 0.93165 0.67995 0.09525 0.0
C1656 C 0.83408 0.6854 0.09442 0.0
C1657 C 0.77386 0.63919 0.07425 0.0
C1658 C 0.80622 0.65586 0.07913 0.0
C1659 C 0.89964 0.70013 0.09478 0.0
C1660 C 0.86754 0.68599 0.08907 0.0
H1661 H 0.7046 0.58366 0.08119 0.0
H1662 H 0.76173 0.60618 0.08811 0.0
H1663 H 0.77856 0.67023 0.09391 0.0
H1664 H 0.92002 0.76535 0.11299 0.0
H1665 H 0.87283 0.74843 0.10053 0.0
C1666 C 0.64736 0.40804 0.29969 0.0
C1667 C 0.67099 0.38441 0.30494 0.0
C1668 C 0.64474 0.44416 0.30291 0.0
C1669 C 0.68816 0.51563 0.31949 0.0
H1670 H 0.58998 0.54251 0.3266 0.0
C1671 C 0.65213 0.64263 0.34521 0.0
C1672 C 0.62962 0.63399 0.35397 0.0
C1673 C 0.65724 0.61784 0.33677 0.0
C1674 C 0.6175 0.5358 0.32449 0.0
H1675 H 0.71191 0.38063 0.31721 0.0
H1676 H 0.70757 0.44353 0.32277 0.0
H1677 H 0.60117 0.48878 0.31581 0.0
H1678 H 0.59453 0.59254 0.36055 0.0
H1679 H 0.60297 0.55036 0.34595 0.0
H1680 H 0.70437 0.56188 0.32867 0.0
C1681 C 0.69111 0.43429 0.31616 0.0
C1682 C 0.62395 0.50505 0.31826 0.0
C1683 C 0.69345 0.39817 0.31302 0.0
C1684 C 0.61187 0.60048 0.35394 0.0
C1685 C 0.61653 0.57618 0.34551 0.0
C1686 C 0.68165 0.54673 0.32562 0.0
C1687 C 0.66602 0.45747 0.31135 0.0
C1688 C 0.65939 0.49384 0.31603 0.0
C1689 C 0.6395 0.58431 0.33687 0.0
C1690 C 0.64627 0.55634 0.32852 0.0
H1691 H 0.62989 0.39819 0.29339 0.0
H1692 H 0.62534 0.46144 0.299 0.0
H1693 H 0.71576 0.50784 0.31781 0.0
H1694 H 0.6664 0.66808 0.345 0.0
H1695 H 0.6752 0.62475 0.3302 0.0
C1696 C 0.90681 0.44832 0.56553 0.0
C1697 C 0.92211 0.41768 0.5606 0.0
C1698 C 0.88431 0.44473 0.57451 0.0
C1699 C 0.85883 0.38407 0.59652 0.0
H1700 H 0.7625 0.42245 0.593 0.0
C1701 C 0.73753 0.32833 0.61995 0.0
C1702 C 0.7082 0.35095 0.62238 0.0
C1703 C 0.76659 0.34101 0.61388 0.0
C1704 C 0.78943 0.41221 0.59429 0.0
H1705 H 0.92773 0.35963 0.56165 0.0
H1706 H 0.88915 0.35352 0.57746 0.0
H1707 H 0.80928 0.43723 0.57996 0.0
H1708 H 0.68722 0.40521 0.62078 0.0
H1709 H 0.73848 0.42771 0.61047 0.0
H1710 H 0.83921 0.35894 0.61081 0.0
C1711 C 0.89422 0.3802 0.57429 0.0
C1712 C 0.81621 0.42065 0.58678 0.0
C1713 C 0.91615 0.3837 0.56522 0.0
C1714 C 0.70923 0.38697 0.61894 0.0
C1715 C 0.73857 0.39982 0.61299 0.0
C1716 C 0.83222 0.37604 0.60412 0.0
C1717 C 0.87746 0.41056 0.57888 0.0
C1718 C 0.85087 0.40589 0.58767 0.0
C1719 C 0.76734 0.37681 0.6102 0.0
C1720 C 0.79687 0.38917 0.60294 0.0
H1721 H 0.91141 0.47491 0.56224 0.0
H1722 H 0.87189 0.46856 0.57797 0.0
H1723 H 0.88551 0.37268 0.59744 0.0
H1724 H 0.73752 0.30036 0.62241 0.0
H1725 H 0.78783 0.32223 0.61175 0.0
C1726 C 0.84469 0.61997 0.82117 0.0
C1727 C 0.8256 0.61136 0.81179 0.0
C1728 C 0.86434 0.5935 0.82654 0.0
C1729 C 0.90026 0.49983 0.82351 0.0
H1730 H 0.8985 0.50199 0.85465 0.0
C1731 C 0.9355 0.37706 0.84981 0.0
C1732 C 0.95947 0.38328 0.85832 0.0
C1733 C 0.92153 0.40587 0.84398 0.0
C1734 C 0.89948 0.50125 0.84595 0.0
H1735 H 0.81142 0.56827 0.80084 0.0
H1736 H 0.84468 0.52184 0.81033 0.0
H1737 H 0.87023 0.55061 0.84467 0.0
H1738 H 0.98723 0.42469 0.86744 0.0
H1739 H 0.96211 0.47506 0.85735 0.0
H1740 H 0.92835 0.4496 0.8249 0.0
C1741 C 0.84574 0.54922 0.81336 0.0
C1742 C 0.88346 0.52921 0.84021 0.0
C1743 C 0.82651 0.57577 0.80793 0.0
C1744 C 0.9689 0.41898 0.86092 0.0
C1745 C 0.95444 0.44782 0.85518 0.0
C1746 C 0.91581 0.47164 0.82927 0.0
C1747 C 0.86471 0.55764 0.82279 0.0
C1748 C 0.88343 0.52878 0.82891 0.0
C1749 C 0.93077 0.44151 0.84663 0.0
C1750 C 0.91539 0.472 0.84054 0.0
H1751 H 0.84403 0.64703 0.82446 0.0
H1752 H 0.87898 0.60116 0.83368 0.0
H1753 H 0.90147 0.49887 0.81483 0.0
H1754 H 0.92781 0.34989 0.84758 0.0
H1755 H 0.90308 0.40031 0.83747 0.0
C1756 C 0.29826 0.50756 0.06686 0.0
C1757 C 0.29672 0.51468 0.0558 0.0
C1758 C 0.27575 0.52593 0.07404 0.0
C1759 C 0.19106 0.57705 0.07628 0.0
H1760 H 0.23629 0.6187 0.10139 0.0
C1761 C 0.12334 0.68402 0.10412 0.0
C1762 C 0.13428 0.685 0.11487 0.0
C1763 C 0.13849 0.65876 0.09701 0.0
C1764 C 0.22292 0.60664 0.09456 0.0
H1765 H 0.26902 0.54497 0.04353 0.0
H1766 H 0.22956 0.57731 0.05615 0.0
H1767 H 0.27231 0.58398 0.08875 0.0
H1768 H 0.16656 0.65882 0.12695 0.0
H1769 H 0.19142 0.61356 0.11477 0.0
H1770 H 0.14155 0.59983 0.08213 0.0
C1771 C 0.24847 0.55776 0.05924 0.0
C1772 C 0.24372 0.58688 0.08727 0.0
C1773 C 0.27125 0.53957 0.05204 0.0
C1774 C 0.15794 0.65859 0.11865 0.0
C1775 C 0.17248 0.633 0.11163 0.0
C1776 C 0.17007 0.59665 0.08365 0.0
C1777 C 0.25077 0.55137 0.07032 0.0
C1778 C 0.22809 0.57191 0.07805 0.0
C1779 C 0.16443 0.63393 0.10062 0.0
C1780 C 0.18578 0.61168 0.09289 0.0
H1781 H 0.31691 0.48777 0.06995 0.0
H1782 H 0.2777 0.52004 0.08253 0.0
H1783 H 0.17828 0.56557 0.06925 0.0
H1784 H 0.10537 0.70448 0.10104 0.0
H1785 H 0.1317 0.66032 0.08859 0.0
C1786 C 0.24059 0.54204 0.81931 0.0
C1787 C 0.27098 0.55302 0.82513 0.0
C1788 C 0.22798 0.50668 0.81997 0.0
C1789 C 0.24811 0.41522 0.83145 0.0
H1790 H 0.14395 0.41155 0.83358 0.0
C1791 C 0.1643 0.31668 0.85725 0.0
C1792 C 0.13 0.30707 0.85356 0.0
C1793 C 0.1869 0.33816 0.85092 0.0
C1794 C 0.17304 0.41175 0.83278 0.0
H1795 H 0.31416 0.53435 0.83534 0.0
H1796 H 0.29074 0.47346 0.83719 0.0
H1797 H 0.17284 0.46664 0.82797 0.0
H1798 H 0.09308 0.30973 0.84024 0.0
H1799 H 0.13271 0.34681 0.82906 0.0
H1800 H 0.2477 0.36058 0.83711 0.0
C1801 C 0.2768 0.49189 0.83194 0.0
C1802 C 0.18977 0.44351 0.82952 0.0
C1803 C 0.28998 0.52709 0.83104 0.0
C1804 C 0.11974 0.31643 0.84314 0.0
C1805 C 0.14226 0.33788 0.83681 0.0
C1806 C 0.23125 0.38346 0.83489 0.0
C1807 C 0.24495 0.48149 0.82668 0.0
C1808 C 0.22757 0.44601 0.82896 0.0
C1809 C 0.17518 0.3506 0.84088 0.0
C1810 C 0.19353 0.38164 0.83574 0.0
H1811 H 0.22585 0.56113 0.81446 0.0
H1812 H 0.2042 0.49947 0.81545 0.0
H1813 H 0.27723 0.4158 0.83095 0.0
H1814 H 0.17229 0.31033 0.86538 0.0
H1815 H 0.21194 0.34777 0.85431 0.0
C1816 C 0.32784 0.3223 0.54387 0.0
C1817 C 0.33149 0.35144 0.53679 0.0
C1818 C 0.34465 0.32298 0.55387 0.0
C1819 C 0.42078 0.36622 0.56786 0.0
H1820 H 0.37836 0.32079 0.5929 0.0
C1821 C 0.4955 0.36019 0.60832 0.0
C1822 C 0.49626 0.32591 0.6131 0.0
C1823 C 0.47206 0.36729 0.59983 0.0
C1824 C 0.39056 0.33354 0.58597 0.0
H1825 H 0.35482 0.40445 0.5347 0.0
H1826 H 0.38352 0.40614 0.55228 0.0
H1827 H 0.34318 0.32617 0.57651 0.0
H1828 H 0.47203 0.27289 0.61288 0.0
H1829 H 0.43132 0.28507 0.59817 0.0
H1830 H 0.46829 0.37317 0.57728 0.0
C1831 C 0.3682 0.38245 0.55004 0.0
C1832 C 0.37046 0.33654 0.57656 0.0
C1833 C 0.35157 0.38164 0.54001 0.0
C1834 C 0.47213 0.29947 0.60944 0.0
C1835 C 0.44861 0.30657 0.60101 0.0
C1836 C 0.44078 0.3634 0.57728 0.0
C1837 C 0.36541 0.3529 0.55704 0.0
C1838 C 0.38553 0.35239 0.56733 0.0
C1839 C 0.44871 0.34036 0.59599 0.0
C1840 C 0.42611 0.34652 0.58638 0.0
H1841 H 0.31269 0.29859 0.54155 0.0
H1842 H 0.34233 0.29951 0.55897 0.0
H1843 H 0.4335 0.37806 0.56087 0.0
H1844 H 0.51362 0.38131 0.61093 0.0
H1845 H 0.47249 0.39373 0.59618 0.0
C1846 C 0.45676 0.51442 0.28525 0.0
C1847 C 0.48271 0.48774 0.28312 0.0
C1848 C 0.45739 0.53394 0.29487 0.0
C1849 C 0.52009 0.56323 0.31585 0.0
H1850 H 0.43294 0.5911 0.33111 0.0
C1851 C 0.52569 0.64681 0.35481 0.0
C1852 C 0.50213 0.67633 0.35545 0.0
C1853 C 0.52133 0.62044 0.34687 0.0
C1854 C 0.45749 0.58366 0.3269 0.0
H1855 H 0.52953 0.46033 0.28941 0.0
H1856 H 0.53063 0.49433 0.30628 0.0
H1857 H 0.42909 0.55065 0.31561 0.0
H1858 H 0.45456 0.70061 0.34847 0.0
H1859 H 0.44736 0.65494 0.33452 0.0
H1860 H 0.54844 0.59673 0.32698 0.0
C1861 C 0.5098 0.50022 0.30049 0.0
C1862 C 0.45529 0.56051 0.31803 0.0
C1863 C 0.50905 0.48058 0.29089 0.0
C1864 C 0.47324 0.67819 0.34821 0.0
C1865 C 0.46901 0.65194 0.34023 0.0
C1866 C 0.52229 0.58633 0.32471 0.0
C1867 C 0.48423 0.52743 0.30254 0.0
C1868 C 0.48656 0.55024 0.31235 0.0
C1869 C 0.49345 0.62313 0.33934 0.0
C1870 C 0.491 0.59702 0.33029 0.0
H1871 H 0.43642 0.52075 0.27935 0.0
H1872 H 0.43762 0.55504 0.29612 0.0
H1873 H 0.5446 0.55644 0.31152 0.0
H1874 H 0.54756 0.64418 0.36043 0.0
H1875 H 0.53986 0.59797 0.34655 0.0
C1876 C 0.3019 0.37738 0.96293 0.0
C1877 C 0.3042 0.41316 0.96661 0.0
C1878 C 0.27801 0.3681 0.95476 0.0
C1879 C 0.24604 0.36342 0.93256 0.0
H1880 H 0.14697 0.39664 0.93146 0.0
C1881 C 0.16362 0.33591 0.89536 0.0
C1882 C 0.13054 0.3186 0.8972 0.0
C1883 C 0.18111 0.35383 0.90368 0.0
C1884 C 0.17458 0.38723 0.93168 0.0
H1885 H 0.28165 0.46676 0.96511 0.0
H1886 H 0.23994 0.45056 0.95072 0.0
H1887 H 0.18486 0.41313 0.94681 0.0
H1888 H 0.08814 0.30912 0.90888 0.0
H1889 H 0.11911 0.34024 0.92359 0.0
H1890 H 0.23602 0.33711 0.91762 0.0
C1891 C 0.25684 0.4298 0.95412 0.0
C1892 C 0.19629 0.3968 0.94042 0.0
C1893 C 0.28091 0.43913 0.96228 0.0
C1894 C 0.11361 0.32236 0.90726 0.0
C1895 C 0.13138 0.3401 0.91567 0.0
C1896 C 0.22456 0.35413 0.92385 0.0
C1897 C 0.25557 0.3943 0.95017 0.0
C1898 C 0.23219 0.38476 0.94096 0.0
C1899 C 0.1661 0.35446 0.91406 0.0
C1900 C 0.18861 0.36591 0.92328 0.0
H1901 H 0.31885 0.35662 0.96632 0.0
H1902 H 0.27713 0.34036 0.95202 0.0
H1903 H 0.27368 0.35406 0.93268 0.0
H1904 H 0.17701 0.33382 0.88763 0.0
H1905 H 0.20738 0.36549 0.90213 0.0
C1906 C 0.47157 0.49265 0.72929 0.0
C1907 C 0.49186 0.52453 0.72972 0.0
C1908 C 0.46591 0.47497 0.71953 0.0
C1909 C 0.5076 0.46581 0.6927 0.0
H1910 H 0.42399 0.40594 0.68742 0.0
C1911 C 0.50751 0.36468 0.65757 0.0
C1912 C 0.49335 0.33057 0.65994 0.0
C1913 C 0.50122 0.39386 0.66449 0.0
C1914 C 0.44766 0.42236 0.68879 0.0
H1915 H 0.52208 0.5631 0.72024 0.0
H1916 H 0.5112 0.53304 0.70311 0.0
H1917 H 0.42373 0.44775 0.70256 0.0
H1918 H 0.46059 0.3002 0.67113 0.0
H1919 H 0.45104 0.35034 0.68349 0.0
H1920 H 0.53172 0.44035 0.67905 0.0
C1921 C 0.49992 0.52134 0.71033 0.0
C1922 C 0.44749 0.44638 0.69748 0.0
C1923 C 0.50589 0.53881 0.72013 0.0
C1924 C 0.47185 0.3263 0.66914 0.0
C1925 C 0.46612 0.35522 0.67617 0.0
C1926 C 0.50772 0.44196 0.68399 0.0
C1927 C 0.48043 0.48878 0.70992 0.0
C1928 C 0.47801 0.46751 0.69977 0.0
C1929 C 0.48115 0.38932 0.67403 0.0
C1930 C 0.47834 0.41887 0.68216 0.0
H1931 H 0.46098 0.48079 0.73659 0.0
H1932 H 0.45147 0.44962 0.7196 0.0
H1933 H 0.53155 0.48159 0.69419 0.0
H1934 H 0.52343 0.36877 0.65036 0.0
H1935 H 0.51259 0.4198 0.66242 0.0
C1936 C 0.28645 0.52145 0.43706 0.0
C1937 C 0.30228 0.50217 0.44549 0.0
C1938 C 0.30328 0.55214 0.4329 0.0
C1939 C 0.37952 0.61634 0.43771 0.0
H1940 H 0.38239 0.62031 0.40661 0.0
C1941 C 0.50039 0.66366 0.41295 0.0
C1942 C 0.49478 0.68431 0.4037 0.0
C1943 C 0.47121 0.65156 0.41904 0.0
C1944 C 0.38123 0.62015 0.4153 0.0
H1945 H 0.34803 0.49965 0.45613 0.0
H1946 H 0.37804 0.55231 0.44872 0.0
H1947 H 0.34101 0.57904 0.41546 0.0
H1948 H 0.45455 0.70946 0.3937 0.0
H1949 H 0.40306 0.68736 0.40427 0.0
H1950 H 0.42186 0.65566 0.43741 0.0
C1951 C 0.35201 0.54477 0.44554 0.0
C1952 C 0.35746 0.59649 0.42041 0.0
C1953 C 0.335 0.51439 0.44975 0.0
C1954 C 0.45951 0.69384 0.40085 0.0
C1955 C 0.43015 0.68109 0.40685 0.0
C1956 C 0.40363 0.63964 0.43259 0.0
C1957 C 0.33666 0.56379 0.43695 0.0
C1958 C 0.35717 0.59337 0.43167 0.0
C1959 C 0.43581 0.65931 0.41589 0.0
C1960 C 0.40547 0.64089 0.42134 0.0
H1961 H 0.26144 0.51239 0.43352 0.0
H1962 H 0.29048 0.56629 0.42637 0.0
H1963 H 0.37939 0.61536 0.44639 0.0
H1964 H 0.52738 0.65609 0.41532 0.0
H1965 H 0.47633 0.63447 0.42589 0.0
C1966 C 0.24102 0.46173 0.19227 0.0
C1967 C 0.27314 0.44995 0.18738 0.0
C1968 C 0.22896 0.49703 0.19091 0.0
C1969 C 0.25375 0.5875 0.17957 0.0
H1970 H 0.1507 0.59209 0.1749 0.0
C1971 C 0.17699 0.69293 0.15387 0.0
C1972 C 0.14225 0.70237 0.15738 0.0
C1973 C 0.19789 0.66908 0.15991 0.0
C1974 C 0.17944 0.59155 0.17638 0.0
H1975 H 0.3198 0.4673 0.17818 0.0
H1976 H 0.29765 0.52815 0.17517 0.0
H1977 H 0.17737 0.53639 0.1809 0.0
H1978 H 0.10285 0.6968 0.17012 0.0
H1979 H 0.13949 0.65587 0.18079 0.0
H1980 H 0.25544 0.64261 0.17431 0.0
C1981 C 0.2818 0.5103 0.18016 0.0
C1982 C 0.19485 0.55949 0.17987 0.0
C1983 C 0.2943 0.47513 0.18175 0.0
C1984 C 0.12984 0.69024 0.16738 0.0
C1985 C 0.15065 0.66657 0.1734 0.0
C1986 C 0.23826 0.61962 0.1759 0.0
C1987 C 0.24836 0.52139 0.18445 0.0
C1988 C 0.23224 0.55681 0.18147 0.0
C1989 C 0.18403 0.65424 0.16946 0.0
C1990 C 0.20093 0.62186 0.17424 0.0
H1991 H 0.22458 0.44329 0.19691 0.0
H1992 H 0.20379 0.50486 0.1947 0.0
H1993 H 0.28257 0.58667 0.18083 0.0
H1994 H 0.18663 0.7014 0.14605 0.0
H1995 H 0.22339 0.65984 0.15663 0.0
loop_
_geom_bond_atom_site_label_1
_geom_bond_atom_site_label_2
_geom_bond_distance
_geom_bond_site_symmetry_2
_ccdc_geom_bond_type
C0 C1 1.560 . S
C0 H61 0.959 . S
C0 H62 0.959 . S
C0 H63 0.960 . S
C1 C0 1.560 . S
C1 O56 1.426 . S
C1 H60 0.980 . S
C2 C3 1.407 . S
C2 C7 1.418 . S
C2 O56 1.334 . S
C3 C2 1.407 . S
C3 C4 1.360 . S
C3 H64 0.929 . S
C4 C3 1.360 . S
C4 C5 1.401 . S
C4 C8 1.527 . S
C5 C4 1.401 . S
C5 C6 1.405 . S
C5 C38 1.587 . S
C6 C5 1.405 . S
C6 C7 1.332 . S
C6 C9 1.496 1_565 S
C7 C2 1.418 . S
C7 C6 1.332 . S
C7 H65 0.920 1_565 S
C8 C4 1.527 . S
C8 H66 0.959 . S
C8 H67 0.961 . S
C8 H68 0.961 . S
C9 C6 1.496 1_545 S
C9 H69 0.960 . S
C9 H70 0.960 . S
C9 H71 0.961 . S
C10 C11 1.517 . S
C10 H73 0.961 . S
C10 H74 0.960 . S
C10 H75 0.959 . S
C11 C10 1.517 . S
C11 O59 1.468 . S
C11 H72 0.980 . S
C12 C13 1.349 . S
C12 C17 1.367 . S
C12 O59 1.408 . S
C13 C12 1.349 . S
C13 C14 1.407 . S
C13 H76 0.930 . S
C14 C13 1.407 . S
C14 C15 1.449 . S
C14 C18 1.535 . S
C15 C14 1.449 . S
C15 C16 1.384 . S
C15 C40 1.553 . S
C16 C15 1.384 . S
C16 C17 1.364 . S
C16 C19 1.450 . S
C17 C12 1.367 . S
C17 C16 1.364 . S
C17 H77 0.931 . S
C18 C14 1.535 . S
C18 H78 0.959 . S
C18 H79 0.961 . S
C18 H80 0.959 . S
C19 C16 1.450 . S
C19 H81 0.960 . S
C19 H82 0.960 . S
C19 H83 0.960 . S
C20 C21 1.309 . S
C20 C25 1.304 . S
C20 O58 1.435 . S
C21 C20 1.309 . S
C21 C22 1.476 . S
C21 H85 0.930 . S
C22 C21 1.476 . S
C22 C23 1.400 . S
C22 C26 1.567 . S
C23 C22 1.400 . S
C23 C24 1.373 . S
C23 C45 1.432 . S
C24 C23 1.373 . S
C24 C25 1.339 . S
C24 C27 1.530 1_545 S
C25 C20 1.304 . S
C25 C24 1.339 . S
C25 H86 0.930 1_545 S
C26 C22 1.567 . S
C26 H87 0.961 . S
C26 H88 0.960 . S
C26 H89 0.958 . S
C27 C24 1.530 1_565 S
C27 H90 0.961 . S
C27 H91 0.960 . S
C27 H92 0.960 . S
C28 C29 1.530 . S
C28 H94 0.961 . S
C28 H95 0.961 . S
C28 H96 0.959 . S
C29 C28 1.530 . S
C29 O57 1.412 . S
C29 H93 0.980 . S
C30 C31 1.288 . S
C30 C35 1.377 . S
C30 O57 1.393 . S
C31 C30 1.288 . S
C31 C32 1.369 . S
C31 H97 0.932 . S
C32 C31 1.369 . S
C32 C33 1.398 . S
C32 C36 1.527 . S
C33 C32 1.398 . S
C33 C34 1.380 . S
C33 C47 1.497 . S
C34 C33 1.380 . S
C34 C35 1.383 . S
C34 C37 1.603 1_545 S
C35 C30 1.377 . S
C35 C34 1.383 . S
C35 H98 0.929 . S
C36 C32 1.527 . S
C36 H99 0.961 . S
C36 H100 0.959 . S
C36 H101 0.959 . S
C37 C34 1.603 1_565 S
C37 H102 0.960 . S
C37 H103 0.962 . S
C37 H104 0.961 . S
C38 C5 1.587 . S
C38 C39 1.360 1_655 S
C38 C51 1.412 . S
C39 C38 1.360 1_455 S
C39 C40 1.365 . S
C39 H105 0.929 . S
C40 C15 1.553 . S
C40 C39 1.365 . S
C40 C41 1.404 . S
C41 C40 1.404 . S
C41 C42 1.395 . S
C41 C52 1.451 . S
C42 C41 1.395 . S
C42 C43 1.322 . S
C42 H106 0.930 . S
C43 C42 1.322 . S
C43 C44 1.459 . S
C43 H107 0.929 . S
C44 C43 1.459 . S
C44 C45 1.445 1_565 S
C44 C53 1.395 . S
C45 C23 1.432 . S
C45 C44 1.445 1_545 S
C45 C46 1.370 . S
C46 C45 1.370 . S
C46 C47 1.438 1_455 S
C46 H108 0.930 . S
C47 C33 1.497 . S
C47 C46 1.438 1_655 S
C47 C48 1.360 . S
C48 C47 1.360 . S
C48 C49 1.401 . S
C48 C53 1.446 1_645 S
C49 C48 1.401 . S
C49 C50 1.347 1_545 S
C49 H109 0.929 . S
C50 C49 1.347 1_565 S
C50 C51 1.455 . S
C50 H110 0.930 . S
C51 C38 1.412 . S
C51 C50 1.455 . S
C51 C52 1.331 1_655 S
C52 C41 1.451 . S
C52 C51 1.331 1_455 S
C52 C53 1.497 . S
C53 C44 1.395 . S
C53 C48 1.446 1_465 S
C53 C52 1.497 . S
C54 C55 1.582 . S
C54 H111 0.962 . S
C54 H112 0.959 . S
C54 H113 0.958 . S
C55 C54 1.582 . S
C55 O58 1.458 . S
C55 H84 0.980 . S
O56 C1 1.426 . S
O56 C2 1.334 . S
O57 C29 1.412 . S
O57 C30 1.393 . S
O58 C20 1.435 . S
O58 C55 1.458 . S
O59 C11 1.468 . S
O59 C12 1.408 . S
H60 C1 0.980 . S
H61 C0 0.959 . S
H62 C0 0.959 . S
H63 C0 0.960 . S
H64 C3 0.929 . S
H65 C7 0.920 1_545 S
H66 C8 0.959 . S
H67 C8 0.961 . S
H68 C8 0.961 . S
H69 C9 0.960 . S
H70 C9 0.960 . S
H71 C9 0.961 . S
H72 C11 0.980 . S
H73 C10 0.961 . S
H74 C10 0.960 . S
H75 C10 0.959 . S
H76 C13 0.930 . S
H77 C17 0.931 . S
H78 C18 0.959 . S
H79 C18 0.961 . S
H80 C18 0.959 . S
H81 C19 0.960 . S
H82 C19 0.960 . S
H83 C19 0.960 . S
H84 C55 0.980 . S
H85 C21 0.930 . S
H86 C25 0.930 1_565 S
H87 C26 0.961 . S
H88 C26 0.960 . S
H89 C26 0.958 . S
H90 C27 0.961 . S
H91 C27 0.960 . S
H92 C27 0.960 . S
H93 C29 0.980 . S
H94 C28 0.961 . S
H95 C28 0.961 . S
H96 C28 0.959 . S
H97 C31 0.932 . S
H98 C35 0.929 . S
H99 C36 0.961 . S
H100 C36 0.959 . S
H101 C36 0.959 . S
H102 C37 0.960 . S
H103 C37 0.962 . S
H104 C37 0.961 . S
H105 C39 0.929 . S
H106 C42 0.930 . S
H107 C43 0.929 . S
H108 C46 0.930 . S
H109 C49 0.929 . S
H110 C50 0.930 . S
H111 C54 0.962 . S
H112 C54 0.959 . S
H113 C54 0.958 . S
C114 C115 1.560 . S
C114 H175 0.959 . S
C114 H176 0.959 . S
C114 H177 0.960 . S
C115 C114 1.560 . S
C115 O170 1.426 . S
C115 H174 0.980 . S
C116 C117 1.407 . S
C116 C121 1.418 . S
C116 O170 1.334 . S
C117 C116 1.407 . S
C117 C118 1.360 . S
C117 H178 0.929 . S
C118 C117 1.360 . S
C118 C119 1.401 . S
C118 C122 1.527 . S
C119 C118 1.401 . S
C119 C120 1.405 . S
C119 C152 1.587 . S
C120 C119 1.405 . S
C120 C121 1.332 . S
C120 C123 1.496 . S
C121 C116 1.418 . S
C121 C120 1.332 . S
C121 H179 0.929 . S
C122 C118 1.527 . S
C122 H180 0.959 . S
C122 H181 0.961 . S
C122 H182 0.961 . S
C123 C120 1.496 . S
C123 H183 0.960 . S
C123 H184 0.960 . S
C123 H185 0.961 . S
C124 C125 1.517 . S
C124 H187 0.961 . S
C124 H188 0.960 . S
C124 H189 0.959 . S
C125 C124 1.517 . S
C125 O173 1.468 . S
C125 H186 0.980 . S
C126 C127 1.349 . S
C126 C131 1.367 . S
C126 O173 1.408 . S
C127 C126 1.349 . S
C127 C128 1.407 . S
C127 H190 0.930 . S
C128 C127 1.407 . S
C128 C129 1.449 . S
C128 C132 1.535 . S
C129 C128 1.449 . S
C129 C130 1.384 . S
C129 C154 1.553 . S
C130 C129 1.384 . S
C130 C131 1.364 . S
C130 C133 1.450 . S
C131 C126 1.367 . S
C131 C130 1.364 . S
C131 H191 0.931 . S
C132 C128 1.535 . S
C132 H192 0.959 . S
C132 H193 0.961 . S
C132 H194 0.959 . S
C133 C130 1.450 . S
C133 H195 0.960 . S
C133 H196 0.960 . S
C133 H197 0.960 . S
C134 C135 1.309 . S
C134 C139 1.304 . S
C134 O172 1.435 . S
C135 C134 1.309 . S
C135 C136 1.476 . S
C135 H199 0.930 . S
C136 C135 1.476 . S
C136 C137 1.400 . S
C136 C140 1.567 . S
C137 C136 1.400 . S
C137 C138 1.373 . S
C137 C159 1.432 . S
C138 C137 1.373 . S
C138 C139 1.339 . S
C138 C141 1.530 . S
C139 C134 1.304 . S
C139 C138 1.339 . S
C139 H200 0.930 . S
C140 C136 1.567 . S
C140 H201 0.961 . S
C140 H202 0.960 . S
C140 H203 0.958 . S
C141 C138 1.530 . S
C141 H204 0.961 . S
C141 H205 0.960 . S
C141 H206 0.960 . S
C142 C143 1.530 . S
C142 H208 0.961 . S
C142 H209 0.961 . S
C142 H210 0.959 . S
C143 C142 1.530 . S
C143 O171 1.412 . S
C143 H207 0.980 . S
C144 C145 1.288 . S
C144 C149 1.377 . S
C144 O171 1.393 . S
C145 C144 1.288 . S
C145 C146 1.369 . S
C145 H211 0.932 . S
C146 C145 1.369 . S
C146 C147 1.398 . S
C146 C150 1.527 . S
C147 C146 1.398 . S
C147 C148 1.380 . S
C147 C161 1.497 . S
C148 C147 1.380 . S
C148 C149 1.383 . S
C148 C151 1.603 . S
C149 C144 1.377 . S
C149 C148 1.383 . S
C149 H212 0.929 . S
C150 C146 1.527 . S
C150 H213 0.961 . S
C150 H214 0.959 . S
C150 H215 0.959 . S
C151 C148 1.603 . S
C151 H216 0.960 . S
C151 H217 0.962 . S
C151 H218 0.961 . S
C152 C119 1.587 . S
C152 C153 1.360 . S
C152 C165 1.412 . S
C153 C152 1.360 . S
C153 C154 1.365 . S
C153 H219 0.929 . S
C154 C129 1.553 . S
C154 C153 1.365 . S
C154 C155 1.404 . S
C155 C154 1.404 . S
C155 C156 1.395 . S
C155 C166 1.451 . S
C156 C155 1.395 . S
C156 C157 1.322 . S
C156 H220 0.930 . S
C157 C156 1.322 . S
C157 C158 1.459 . S
C157 H221 0.929 . S
C158 C157 1.459 . S
C158 C159 1.445 . S
C158 C167 1.395 . S
C159 C137 1.432 . S
C159 C158 1.445 . S
C159 C160 1.370 . S
C160 C159 1.370 . S
C160 C161 1.438 . S
C160 H222 0.930 . S
C161 C147 1.497 . S
C161 C160 1.438 . S
C161 C162 1.360 . S
C162 C161 1.360 . S
C162 C163 1.401 . S
C162 C167 1.446 . S
C163 C162 1.401 . S
C163 C164 1.347 . S
C163 H223 0.929 . S
C164 C163 1.347 . S
C164 C165 1.455 . S
C164 H224 0.930 . S
C165 C152 1.412 . S
C165 C164 1.455 . S
C165 C166 1.331 . S
C166 C155 1.451 . S
C166 C165 1.331 . S
C166 C167 1.497 . S
C167 C158 1.395 . S
C167 C162 1.446 . S
C167 C166 1.497 . S
C168 C169 1.582 . S
C168 H225 0.962 . S
C168 H226 0.959 . S
C168 H227 0.958 . S
C169 C168 1.582 . S
C169 O172 1.458 . S
C169 H198 0.980 . S
O170 C115 1.426 . S
O170 C116 1.334 . S
O171 C143 1.412 . S
O171 C144 1.393 . S
O172 C134 1.435 . S
O172 C169 1.458 . S
O173 C125 1.468 . S
O173 C126 1.408 . S
H174 C115 0.980 . S
H175 C114 0.959 . S
H176 C114 0.959 . S
H177 C114 0.960 . S
H178 C117 0.929 . S
H179 C121 0.929 . S
H180 C122 0.959 . S
H181 C122 0.961 . S
H182 C122 0.961 . S
H183 C123 0.960 . S
H184 C123 0.960 . S
H185 C123 0.961 . S
H186 C125 0.980 . S
H187 C124 0.961 . S
H188 C124 0.960 . S
H189 C124 0.959 . S
H190 C127 0.930 . S
H191 C131 0.931 . S
H192 C132 0.959 . S
H193 C132 0.961 . S
H194 C132 0.959 . S
H195 C133 0.960 . S
H196 C133 0.960 . S
H197 C133 0.960 . S
H198 C169 0.980 . S
H199 C135 0.930 . S
H200 C139 0.930 . S
H201 C140 0.961 . S
H202 C140 0.960 . S
H203 C140 0.958 . S
H204 C141 0.961 . S
H205 C141 0.960 . S
H206 C141 0.960 . S
H207 C143 0.980 . S
H208 C142 0.961 . S
H209 C142 0.961 . S
H210 C142 0.959 . S
H211 C145 0.932 . S
H212 C149 0.929 . S
H213 C150 0.961 . S
H214 C150 0.959 . S
H215 C150 0.959 . S
H216 C151 0.960 . S
H217 C151 0.962 . S
H218 C151 0.961 . S
H219 C153 0.929 . S
H220 C156 0.930 . S
H221 C157 0.929 . S
H222 C160 0.930 . S
H223 C163 0.929 . S
H224 C164 0.930 . S
H225 C168 0.962 . S
H226 C168 0.959 . S
H227 C168 0.958 . S
C228 C229 1.560 . S
C228 H289 0.959 . S
C228 H290 0.959 . S
C228 H291 0.960 . S
C229 C228 1.560 . S
C229 O284 1.426 . S
C229 H288 0.980 . S
C230 C231 1.407 . S
C230 C235 1.418 . S
C230 O284 1.334 . S
C231 C230 1.407 . S
C231 C232 1.360 . S
C231 H292 0.929 . S
C232 C231 1.360 . S
C232 C233 1.401 . S
C232 C236 1.527 . S
C233 C232 1.401 . S
C233 C234 1.405 . S
C233 C266 1.587 . S
C234 C233 1.405 . S
C234 C235 1.332 . S
C234 C237 1.496 1_565 S
C235 C230 1.418 . S
C235 C234 1.332 . S
C235 H293 0.937 . S
C236 C232 1.527 . S
C236 H294 0.959 . S
C236 H295 0.961 . S
C236 H296 0.961 . S
C237 C234 1.496 1_545 S
C237 H297 0.960 . S
C237 H298 0.969 . S
C237 H299 0.961 . S
C238 C239 1.517 . S
C238 H301 0.961 . S
C238 H302 0.960 . S
C238 H303 0.959 . S
C239 C238 1.517 . S
C239 O287 1.468 . S
C239 H300 0.980 . S
C240 C241 1.349 . S
C240 C245 1.367 . S
C240 O287 1.408 . S
C241 C240 1.349 . S
C241 C242 1.407 . S
C241 H304 0.930 . S
C242 C241 1.407 . S
C242 C243 1.449 . S
C242 C246 1.535 . S
C243 C242 1.449 . S
C243 C244 1.384 . S
C243 C268 1.553 . S
C244 C243 1.384 . S
C244 C245 1.364 . S
C244 C247 1.450 . S
C245 C240 1.367 . S
C245 C244 1.364 . S
C245 H305 0.931 . S
C246 C242 1.535 . S
C246 H306 0.959 . S
C246 H307 0.961 . S
C246 H308 0.959 . S
C247 C244 1.450 . S
C247 H309 0.960 . S
C247 H310 0.960 . S
C247 H311 0.960 . S
C248 C249 1.309 . S
C248 C253 1.304 . S
C248 O286 1.435 . S
C249 C248 1.309 . S
C249 C250 1.476 . S
C249 H313 0.930 . S
C250 C249 1.476 . S
C250 C251 1.400 . S
C250 C254 1.567 . S
C251 C250 1.400 . S
C251 C252 1.373 . S
C251 C273 1.432 . S
C252 C251 1.373 . S
C252 C253 1.339 . S
C252 C255 1.530 1_545 S
C253 C248 1.304 . S
C253 C252 1.339 . S
C253 H314 0.930 1_545 S
C254 C250 1.567 . S
C254 H315 1.030 . S
C254 H316 0.960 . S
C254 H317 0.958 . S
C255 C252 1.530 1_565 S
C255 H318 0.961 . S
C255 H319 0.960 . S
C255 H320 0.960 . S
C256 C257 1.530 . S
C256 H322 0.961 . S
C256 H323 0.961 . S
C256 H324 0.959 . S
C257 C256 1.530 . S
C257 O285 1.412 . S
C257 H321 0.980 . S
C258 C259 1.288 . S
C258 C263 1.377 . S
C258 O285 1.393 . S
C259 C258 1.288 . S
C259 C260 1.369 . S
C259 H325 0.932 . S
C260 C259 1.369 . S
C260 C261 1.398 . S
C260 C264 1.527 . S
C261 C260 1.398 . S
C261 C262 1.380 . S
C261 C275 1.497 . S
C262 C261 1.380 . S
C262 C263 1.383 . S
C262 C265 1.603 1_545 S
C263 C258 1.377 . S
C263 C262 1.383 . S
C263 H326 0.929 . S
C264 C260 1.527 . S
C264 H327 0.890 1_556 S
C264 H328 0.959 . S
C264 H329 0.959 . S
C265 C262 1.603 1_565 S
C265 H330 0.960 . S
C265 H331 0.962 . S
C265 H332 0.961 . S
C266 C233 1.587 . S
C266 C267 1.360 . S
C266 C279 1.412 . S
C267 C266 1.360 . S
C267 C268 1.365 . S
C267 H333 0.929 . S
C268 C243 1.553 . S
C268 C267 1.365 . S
C268 C269 1.404 . S
C269 C268 1.404 . S
C269 C270 1.395 . S
C269 C280 1.451 . S
C270 C269 1.395 . S
C270 C271 1.352 . S
C270 H334 0.930 . S
C271 C270 1.352 . S
C271 C272 1.445 1_554 S
C271 H335 0.913 1_554 S
C272 C271 1.445 1_556 S
C272 C273 1.445 1_565 S
C272 C281 1.349 1_556 S
C273 C251 1.432 . S
C273 C272 1.445 1_545 S
C273 C274 1.370 . S
C274 C273 1.370 . S
C274 C275 1.438 . S
C274 H336 0.930 . S
C275 C261 1.497 . S
C275 C274 1.438 . S
C275 C276 1.360 . S
C276 C275 1.360 . S
C276 C277 1.401 1_556 S
C276 C281 1.413 1_546 S
C277 C276 1.401 1_554 S
C277 C278 1.347 1_545 S
C277 H337 0.938 . S
C278 C277 1.347 1_565 S
C278 C279 1.455 . S
C278 H338 0.930 . S
C279 C266 1.412 . S
C279 C278 1.455 . S
C279 C280 1.331 . S
C280 C269 1.451 . S
C280 C279 1.331 . S
C280 C281 1.591 . S
C281 C272 1.349 1_554 S
C281 C276 1.413 1_564 S
C281 C280 1.591 . S
C282 C283 1.582 . S
C282 H339 0.962 . S
C282 H340 0.959 . S
C282 H341 0.958 . S
C283 C282 1.582 . S
C283 O286 1.458 . S
C283 H312 0.980 . S
O284 C229 1.426 . S
O284 C230 1.334 . S
O285 C257 1.412 . S
O285 C258 1.393 . S
O286 C248 1.435 . S
O286 C283 1.458 . S
O287 C239 1.468 . S
O287 C240 1.408 . S
H288 C229 0.980 . S
H289 C228 0.959 . S
H290 C228 0.959 . S
H291 C228 0.960 . S
H292 C231 0.929 . S
H293 C235 0.937 . S
H294 C236 0.959 . S
H295 C236 0.961 . S
H296 C236 0.961 . S
H297 C237 0.960 . S
H298 C237 0.969 . S
H299 C237 0.961 . S
H300 C239 0.980 . S
H301 C238 0.961 . S
H302 C238 0.960 . S
H303 C238 0.959 . S
H304 C241 0.930 . S
H305 C245 0.931 . S
H306 C246 0.959 . S
H307 C246 0.961 . S
H308 C246 0.959 . S
H309 C247 0.960 . S
H310 C247 0.960 . S
H311 C247 0.960 . S
H312 C283 0.980 . S
H313 C249 0.930 . S
H314 C253 0.930 1_565 S
H315 C254 1.030 . S
H316 C254 0.960 . S
H317 C254 0.958 . S
H318 C255 0.961 . S
H319 C255 0.960 . S
H320 C255 0.960 . S
H321 C257 0.980 . S
H322 C256 0.961 . S
H323 C256 0.961 . S
H324 C256 0.959 . S
H325 C259 0.932 . S
H326 C263 0.929 . S
H327 C264 0.890 1_554 S
H328 C264 0.959 . S
H329 C264 0.959 . S
H330 C265 0.960 . S
H331 C265 0.962 . S
H332 C265 0.961 . S
H333 C267 0.929 . S
H334 C270 0.930 . S
H335 C271 0.913 1_556 S
H336 C274 0.930 . S
H337 C277 0.938 . S
H338 C278 0.930 . S
H339 C282 0.962 . S
H340 C282 0.959 . S
H341 C282 0.958 . S
C342 C343 1.560 . S
C342 H403 0.959 . S
C342 H404 0.959 . S
C342 H405 0.960 . S
C343 C342 1.560 . S
C343 O398 1.426 . S
C343 H402 0.980 . S
C344 C345 1.407 . S
C344 C349 1.418 . S
C344 O398 1.334 . S
C345 C344 1.407 . S
C345 C346 1.360 . S
C345 H406 0.929 . S
C346 C345 1.360 . S
C346 C347 1.401 . S
C346 C350 1.527 . S
C347 C346 1.401 . S
C347 C348 1.405 . S
C347 C380 1.587 . S
C348 C347 1.405 . S
C348 C349 1.332 . S
C348 C351 1.496 . S
C349 C344 1.418 . S
C349 C348 1.332 . S
C349 H407 0.929 . S
C350 C346 1.527 . S
C350 H408 0.959 . S
C350 H409 0.961 . S
C350 H410 0.961 . S
C351 C348 1.496 . S
C351 H411 0.960 . S
C351 H412 0.960 . S
C351 H413 0.961 . S
C352 C353 1.517 . S
C352 H415 0.961 . S
C352 H416 0.960 . S
C352 H417 0.959 . S
C353 C352 1.517 . S
C353 O401 1.468 . S
C353 H414 0.980 . S
C354 C355 1.349 . S
C354 C359 1.367 . S
C354 O401 1.408 . S
C355 C354 1.349 . S
C355 C356 1.407 . S
C355 H418 0.930 . S
C356 C355 1.407 . S
C356 C357 1.449 . S
C356 C360 1.535 . S
C357 C356 1.449 . S
C357 C358 1.384 . S
C357 C382 1.553 . S
C358 C357 1.384 . S
C358 C359 1.364 . S
C358 C361 1.450 . S
C359 C354 1.367 . S
C359 C358 1.364 . S
C359 H419 0.931 . S
C360 C356 1.535 . S
C360 H420 0.959 . S
C360 H421 0.961 . S
C360 H422 0.959 . S
C361 C358 1.450 . S
C361 H423 0.960 . S
C361 H424 0.960 . S
C361 H425 0.960 . S
C362 C363 1.309 . S
C362 C367 1.304 . S
C362 O400 1.435 . S
C363 C362 1.309 . S
C363 C364 1.476 . S
C363 H427 0.930 . S
C364 C363 1.476 . S
C364 C365 1.400 . S
C364 C368 1.567 . S
C365 C364 1.400 . S
C365 C366 1.373 . S
C365 C387 1.432 . S
C366 C365 1.373 . S
C366 C367 1.339 . S
C366 C369 1.530 . S
C367 C362 1.304 . S
C367 C366 1.339 . S
C367 H428 0.930 . S
C368 C364 1.567 . S
C368 H429 0.961 . S
C368 H430 0.960 . S
C368 H431 0.958 . S
C369 C366 1.530 . S
C369 H432 0.961 . S
C369 H433 0.960 . S
C369 H434 0.960 . S
C370 C371 1.530 . S
C370 H436 0.961 . S
C370 H437 0.961 . S
C370 H438 0.959 . S
C371 C370 1.530 . S
C371 O399 1.412 . S
C371 H435 0.980 . S
C372 C373 1.288 . S
C372 C377 1.377 . S
C372 O399 1.393 . S
C373 C372 1.288 . S
C373 C374 1.369 . S
C373 H439 0.932 . S
C374 C373 1.369 . S
C374 C375 1.398 . S
C374 C378 1.527 . S
C375 C374 1.398 . S
C375 C376 1.380 . S
C375 C389 1.497 . S
C376 C375 1.380 . S
C376 C377 1.383 . S
C376 C379 1.603 . S
C377 C372 1.377 . S
C377 C376 1.383 . S
C377 H440 0.929 . S
C378 C374 1.527 . S
C378 H441 0.961 . S
C378 H442 0.959 . S
C378 H443 0.959 . S
C379 C376 1.603 . S
C379 H444 0.960 . S
C379 H445 0.962 . S
C379 H446 0.961 . S
C380 C347 1.587 . S
C380 C381 1.360 . S
C380 C393 1.412 . S
C381 C380 1.360 . S
C381 C382 1.365 . S
C381 H447 0.929 . S
C382 C357 1.553 . S
C382 C381 1.365 . S
C382 C383 1.404 . S
C383 C382 1.404 . S
C383 C384 1.395 . S
C383 C394 1.451 . S
C384 C383 1.395 . S
C384 C385 1.322 . S
C384 H448 0.930 . S
C385 C384 1.322 . S
C385 C386 1.459 . S
C385 H449 0.929 . S
C386 C385 1.459 . S
C386 C387 1.445 . S
C386 C395 1.395 . S
C387 C365 1.432 . S
C387 C386 1.445 . S
C387 C388 1.370 . S
C388 C387 1.370 . S
C388 C389 1.438 . S
C388 H450 0.930 . S
C389 C375 1.497 . S
C389 C388 1.438 . S
C389 C390 1.360 . S
C390 C389 1.360 . S
C390 C391 1.401 . S
C390 C395 1.446 . S
C391 C390 1.401 . S
C391 C392 1.347 . S
C391 H451 0.929 . S
C392 C391 1.347 . S
C392 C393 1.455 . S
C392 H452 0.930 . S
C393 C380 1.412 . S
C393 C392 1.455 . S
C393 C394 1.331 . S
C394 C383 1.451 . S
C394 C393 1.331 . S
C394 C395 1.497 . S
C395 C386 1.395 . S
C395 C390 1.446 . S
C395 C394 1.497 . S
C396 C397 1.582 . S
C396 H453 0.962 . S
C396 H454 0.959 . S
C396 H455 0.958 . S
C397 C396 1.582 . S
C397 O400 1.458 . S
C397 H426 0.980 . S
O398 C343 1.426 . S
O398 C344 1.334 . S
O399 C371 1.412 . S
O399 C372 1.393 . S
O400 C362 1.435 . S
O400 C397 1.458 . S
O401 C353 1.468 . S
O401 C354 1.408 . S
H402 C343 0.980 . S
H403 C342 0.959 . S
H404 C342 0.959 . S
H405 C342 0.960 . S
H406 C345 0.929 . S
H407 C349 0.929 . S
H408 C350 0.959 . S
H409 C350 0.961 . S
H410 C350 0.961 . S
H411 C351 0.960 . S
H412 C351 0.960 . S
H413 C351 0.961 . S
H414 C353 0.980 . S
H415 C352 0.961 . S
H416 C352 0.960 . S
H417 C352 0.959 . S
H418 C355 0.930 . S
H419 C359 0.931 . S
H420 C360 0.959 . S
H421 C360 0.961 . S
H422 C360 0.959 . S
H423 C361 0.960 . S
H424 C361 0.960 . S
H425 C361 0.960 . S
H426 C397 0.980 . S
H427 C363 0.930 . S
H428 C367 0.930 . S
H429 C368 0.961 . S
H430 C368 0.960 . S
H431 C368 0.958 . S
H432 C369 0.961 . S
H433 C369 0.960 . S
H434 C369 0.960 . S
H435 C371 0.980 . S
H436 C370 0.961 . S
H437 C370 0.961 . S
H438 C370 0.959 . S
H439 C373 0.932 . S
H440 C377 0.929 . S
H441 C378 0.961 . S
H442 C378 0.959 . S
H443 C378 0.959 . S
H444 C379 0.960 . S
H445 C379 0.962 . S
H446 C379 0.961 . S
H447 C381 0.929 . S
H448 C384 0.930 . S
H449 C385 0.929 . S
H450 C388 0.930 . S
H451 C391 0.929 . S
H452 C392 0.930 . S
H453 C396 0.962 . S
H454 C396 0.959 . S
H455 C396 0.958 . S
C456 C457 1.560 . S
C456 H517 0.959 . S
C456 H518 0.959 . S
C456 H519 0.960 . S
C457 C456 1.560 . S
C457 O512 1.426 . S
C457 H516 0.980 . S
C458 C459 1.407 . S
C458 C463 1.418 . S
C458 O512 1.334 . S
C459 C458 1.407 . S
C459 C460 1.360 . S
C459 H520 0.929 . S
C460 C459 1.360 . S
C460 C461 1.401 . S
C460 C464 1.527 . S
C461 C460 1.401 . S
C461 C462 1.405 . S
C461 C494 1.587 . S
C462 C461 1.405 . S
C462 C463 1.332 . S
C462 C465 1.496 . S
C463 C458 1.418 . S
C463 C462 1.332 . S
C463 H521 0.929 . S
C464 C460 1.527 . S
C464 H522 0.959 . S
C464 H523 0.961 . S
C464 H524 0.961 . S
C465 C462 1.496 . S
C465 H525 0.960 . S
C465 H526 0.960 . S
C465 H527 0.961 . S
C466 C467 1.517 1_565 S
C466 H529 0.961 . S
C466 H530 0.960 . S
C466 H531 0.959 . S
C467 C466 1.517 1_545 S
C467 O515 1.468 . S
C467 H528 0.980 . S
C468 C469 1.349 . S
C468 C473 1.367 . S
C468 O515 1.408 . S
C469 C468 1.349 . S
C469 C470 1.407 . S
C469 H532 0.930 . S
C470 C469 1.407 . S
C470 C471 1.449 . S
C470 C474 1.535 . S
C471 C470 1.449 . S
C471 C472 1.384 . S
C471 C496 1.553 . S
C472 C471 1.384 . S
C472 C473 1.364 . S
C472 C475 1.450 . S
C473 C468 1.367 . S
C473 C472 1.364 . S
C473 H533 0.931 . S
C474 C470 1.535 . S
C474 H534 0.959 . S
C474 H535 0.961 . S
C474 H536 0.959 . S
C475 C472 1.450 . S
C475 H537 0.960 . S
C475 H538 0.960 . S
C475 H539 0.960 . S
C476 C477 1.309 . S
C476 C481 1.304 . S
C476 O514 1.435 . S
C477 C476 1.309 . S
C477 C478 1.476 . S
C477 H541 0.930 . S
C478 C477 1.476 . S
C478 C479 1.400 . S
C478 C482 1.567 . S
C479 C478 1.400 . S
C479 C480 1.373 . S
C479 C501 1.432 . S
C480 C479 1.373 . S
C480 C481 1.339 . S
C480 C483 1.530 . S
C481 C476 1.304 . S
C481 C480 1.339 . S
C481 H542 0.930 . S
C482 C478 1.567 . S
C482 H543 0.961 . S
C482 H544 0.960 . S
C482 H545 0.958 . S
C483 C480 1.530 . S
C483 H546 0.961 . S
C483 H547 0.960 . S
C483 H548 0.960 . S
C484 C485 1.530 . S
C484 H550 0.961 . S
C484 H551 0.961 . S
C484 H552 0.959 . S
C485 C484 1.530 . S
C485 O513 1.412 . S
C485 H549 0.980 . S
C486 C487 1.288 . S
C486 C491 1.377 . S
C486 O513 1.393 . S
C487 C486 1.288 . S
C487 C488 1.369 . S
C487 H553 0.932 . S
C488 C487 1.369 . S
C488 C489 1.398 . S
C488 C492 1.527 . S
C489 C488 1.398 . S
C489 C490 1.380 . S
C489 C503 1.497 . S
C490 C489 1.380 . S
C490 C491 1.383 . S
C490 C493 1.603 . S
C491 C486 1.377 . S
C491 C490 1.383 . S
C491 H554 0.929 . S
C492 C488 1.527 . S
C492 H555 0.961 . S
C492 H556 0.959 . S
C492 H557 0.959 . S
C493 C490 1.603 . S
C493 H558 0.960 . S
C493 H559 0.962 . S
C493 H560 0.961 . S
C494 C461 1.587 . S
C494 C495 1.360 . S
C494 C507 1.412 . S
C495 C494 1.360 . S
C495 C496 1.365 . S
C495 H561 0.929 . S
C496 C471 1.553 . S
C496 C495 1.365 . S
C496 C497 1.404 . S
C497 C496 1.404 . S
C497 C498 1.395 . S
C497 C508 1.451 . S
C498 C497 1.395 . S
C498 C499 1.322 . S
C498 H562 0.930 . S
C499 C498 1.322 . S
C499 C500 1.459 . S
C499 H563 0.929 . S
C500 C499 1.459 . S
C500 C501 1.445 . S
C500 C509 1.395 . S
C501 C479 1.432 . S
C501 C500 1.445 . S
C501 C502 1.370 . S
C502 C501 1.370 . S
C502 C503 1.438 . S
C502 H564 0.930 . S
C503 C489 1.497 . S
C503 C502 1.438 . S
C503 C504 1.360 . S
C504 C503 1.360 . S
C504 C505 1.401 . S
C504 C509 1.446 . S
C505 C504 1.401 . S
C505 C506 1.347 . S
C505 H565 0.929 . S
C506 C505 1.347 . S
C506 C507 1.455 . S
C506 H566 0.930 . S
C507 C494 1.412 . S
C507 C506 1.455 . S
C507 C508 1.331 . S
C508 C497 1.451 . S
C508 C507 1.331 . S
C508 C509 1.497 . S
C509 C500 1.395 . S
C509 C504 1.446 . S
C509 C508 1.497 . S
C510 C511 1.582 1_565 S
C510 H567 0.962 . S
C510 H568 0.959 . S
C510 H569 0.958 . S
C511 C510 1.582 1_545 S
C511 O514 1.458 . S
C511 H540 0.980 1_545 S
O512 C457 1.426 . S
O512 C458 1.334 . S
O513 C485 1.412 . S
O513 C486 1.393 . S
O514 C476 1.435 . S
O514 C511 1.458 . S
O515 C467 1.468 . S
O515 C468 1.408 . S
H516 C457 0.980 . S
H517 C456 0.959 . S
H518 C456 0.959 . S
H519 C456 0.960 . S
H520 C459 0.929 . S
H521 C463 0.929 . S
H522 C464 0.959 . S
H523 C464 0.961 . S
H524 C464 0.961 . S
H525 C465 0.960 . S
H526 C465 0.960 . S
H527 C465 0.961 . S
H528 C467 0.980 . S
H529 C466 0.961 . S
H530 C466 0.960 . S
H531 C466 0.959 . S
H532 C469 0.930 . S
H533 C473 0.931 . S
H534 C474 0.959 . S
H535 C474 0.961 . S
H536 C474 0.959 . S
H537 C475 0.960 . S
H538 C475 0.960 . S
H539 C475 0.960 . S
H540 C511 0.980 1_565 S
H541 C477 0.930 . S
H542 C481 0.930 . S
H543 C482 0.961 . S
H544 C482 0.960 . S
H545 C482 0.958 . S
H546 C483 0.961 . S
H547 C483 0.960 . S
H548 C483 0.960 . S
H549 C485 0.980 . S
H550 C484 0.961 . S
H551 C484 0.961 . S
H552 C484 0.959 . S
H553 C487 0.932 . S
H554 C491 0.929 . S
H555 C492 0.961 . S
H556 C492 0.959 . S
H557 C492 0.959 . S
H558 C493 0.960 . S
H559 C493 0.962 . S
H560 C493 0.961 . S
H561 C495 0.929 . S
H562 C498 0.930 . S
H563 C499 0.929 . S
H564 C502 0.930 . S
H565 C505 0.929 . S
H566 C506 0.930 . S
H567 C510 0.962 . S
H568 C510 0.959 . S
H569 C510 0.958 . S
C570 C571 1.560 . S
C570 H631 0.959 . S
C570 H632 0.959 . S
C570 H633 0.960 . S
C571 C570 1.560 . S
C571 O626 1.426 . S
C571 H630 0.980 . S
C572 C573 1.407 . S
C572 C577 1.418 . S
C572 O626 1.334 . S
C573 C572 1.407 . S
C573 C574 1.360 . S
C573 H634 0.929 . S
C574 C573 1.360 . S
C574 C575 1.401 . S
C574 C578 1.527 . S
C575 C574 1.401 . S
C575 C576 1.405 . S
C575 C608 1.587 . S
C576 C575 1.405 . S
C576 C577 1.332 . S
C576 C579 1.496 . S
C577 C572 1.418 . S
C577 C576 1.332 . S
C577 H635 0.929 . S
C578 C574 1.527 . S
C578 H636 0.959 . S
C578 H637 0.961 . S
C578 H638 0.961 . S
C579 C576 1.496 . S
C579 H639 0.960 . S
C579 H640 0.960 . S
C579 H641 0.961 . S
C580 C581 1.517 1_545 S
C580 H643 0.961 . S
C580 H644 0.960 . S
C580 H645 0.959 . S
C581 C580 1.517 1_565 S
C581 O629 1.468 . S
C581 H642 0.980 . S
C582 C583 1.349 . S
C582 C587 1.367 . S
C582 O629 1.408 . S
C583 C582 1.349 . S
C583 C584 1.407 . S
C583 H646 0.930 . S
C584 C583 1.407 . S
C584 C585 1.449 . S
C584 C588 1.535 . S
C585 C584 1.449 . S
C585 C586 1.384 . S
C585 C610 1.553 . S
C586 C585 1.384 . S
C586 C587 1.364 . S
C586 C589 1.450 . S
C587 C582 1.367 . S
C587 C586 1.364 . S
C587 H647 0.931 . S
C588 C584 1.535 . S
C588 H648 0.959 . S
C588 H649 0.961 . S
C588 H650 0.959 . S
C589 C586 1.450 . S
C589 H651 0.960 . S
C589 H652 0.960 . S
C589 H653 0.960 . S
C590 C591 1.309 . S
C590 C595 1.304 . S
C590 O628 1.435 . S
C591 C590 1.309 . S
C591 C592 1.476 . S
C591 H655 0.930 . S
C592 C591 1.476 . S
C592 C593 1.400 . S
C592 C596 1.567 . S
C593 C592 1.400 . S
C593 C594 1.373 . S
C593 C615 1.432 . S
C594 C593 1.373 . S
C594 C595 1.339 . S
C594 C597 1.530 . S
C595 C590 1.304 . S
C595 C594 1.339 . S
C595 H656 0.930 . S
C596 C592 1.567 . S
C596 H657 0.961 . S
C596 H658 0.960 . S
C596 H659 0.958 . S
C597 C594 1.530 . S
C597 H660 0.961 . S
C597 H661 0.960 . S
C597 H662 0.960 . S
C598 C599 1.530 . S
C598 H664 0.961 . S
C598 H665 0.961 . S
C598 H666 0.959 . S
C599 C598 1.530 . S
C599 O627 1.412 . S
C599 H663 0.980 . S
C600 C601 1.288 . S
C600 C605 1.377 . S
C600 O627 1.393 . S
C601 C600 1.288 . S
C601 C602 1.369 . S
C601 H667 0.932 . S
C602 C601 1.369 . S
C602 C603 1.398 . S
C602 C606 1.527 . S
C603 C602 1.398 . S
C603 C604 1.380 . S
C603 C617 1.497 . S
C604 C603 1.380 . S
C604 C605 1.383 . S
C604 C607 1.603 . S
C605 C600 1.377 . S
C605 C604 1.383 . S
C605 H668 0.929 . S
C606 C602 1.527 . S
C606 H669 0.961 . S
C606 H670 0.959 . S
C606 H671 0.959 . S
C607 C604 1.603 . S
C607 H672 0.960 . S
C607 H673 0.962 . S
C607 H674 0.961 . S
C608 C575 1.587 . S
C608 C609 1.360 . S
C608 C621 1.412 . S
C609 C608 1.360 . S
C609 C610 1.365 . S
C609 H675 0.929 . S
C610 C585 1.553 . S
C610 C609 1.365 . S
C610 C611 1.404 . S
C611 C610 1.404 . S
C611 C612 1.395 . S
C611 C622 1.451 . S
C612 C611 1.395 . S
C612 C613 1.322 . S
C612 H676 0.930 . S
C613 C612 1.322 . S
C613 C614 1.459 . S
C613 H677 0.929 . S
C614 C613 1.459 . S
C614 C615 1.445 . S
C614 C623 1.395 . S
C615 C593 1.432 . S
C615 C614 1.445 . S
C615 C616 1.370 . S
C616 C615 1.370 . S
C616 C617 1.438 . S
C616 H678 0.930 . S
C617 C603 1.497 . S
C617 C616 1.438 . S
C617 C618 1.360 . S
C618 C617 1.360 . S
C618 C619 1.401 . S
C618 C623 1.446 . S
C619 C618 1.401 . S
C619 C620 1.347 . S
C619 H679 0.929 . S
C620 C619 1.347 . S
C620 C621 1.455 . S
C620 H680 0.930 . S
C621 C608 1.412 . S
C621 C620 1.455 . S
C621 C622 1.331 . S
C622 C611 1.451 . S
C622 C621 1.331 . S
C622 C623 1.497 . S
C623 C614 1.395 . S
C623 C618 1.446 . S
C623 C622 1.497 . S
C624 C625 1.582 . S
C624 H681 0.962 . S
C624 H682 0.959 . S
C624 H683 0.958 . S
C625 C624 1.582 . S
C625 O628 1.458 1_545 S
C625 H654 0.980 . S
O626 C571 1.426 . S
O626 C572 1.334 . S
O627 C599 1.412 . S
O627 C600 1.393 . S
O628 C590 1.435 . S
O628 C625 1.458 1_565 S
O629 C581 1.468 . S
O629 C582 1.408 . S
H630 C571 0.980 . S
H631 C570 0.959 . S
H632 C570 0.959 . S
H633 C570 0.960 . S
H634 C573 0.929 . S
H635 C577 0.929 . S
H636 C578 0.959 . S
H637 C578 0.961 . S
H638 C578 0.961 . S
H639 C579 0.960 . S
H640 C579 0.960 . S
H641 C579 0.961 . S
H642 C581 0.980 . S
H643 C580 0.961 . S
H644 C580 0.960 . S
H645 C580 0.959 . S
H646 C583 0.930 . S
H647 C587 0.931 . S
H648 C588 0.959 . S
H649 C588 0.961 . S
H650 C588 0.959 . S
H651 C589 0.960 . S
H652 C589 0.960 . S
H653 C589 0.960 . S
H654 C625 0.980 . S
H655 C591 0.930 . S
H656 C595 0.930 . S
H657 C596 0.961 . S
H658 C596 0.960 . S
H659 C596 0.958 . S
H660 C597 0.961 . S
H661 C597 0.960 . S
H662 C597 0.960 . S
H663 C599 0.980 . S
H664 C598 0.961 . S
H665 C598 0.961 . S
H666 C598 0.959 . S
H667 C601 0.932 . S
H668 C605 0.929 . S
H669 C606 0.961 . S
H670 C606 0.959 . S
H671 C606 0.959 . S
H672 C607 0.960 . S
H673 C607 0.962 . S
H674 C607 0.961 . S
H675 C609 0.929 . S
H676 C612 0.930 . S
H677 C613 0.929 . S
H678 C616 0.930 . S
H679 C619 0.929 . S
H680 C620 0.930 . S
H681 C624 0.962 . S
H682 C624 0.959 . S
H683 C624 0.958 . S
C684 C685 1.560 . S
C684 H745 0.959 . S
C684 H746 0.959 . S
C684 H747 0.960 . S
C685 C684 1.560 . S
C685 O740 1.426 . S
C685 H744 0.980 . S
C686 C687 1.407 . S
C686 C691 1.418 . S
C686 O740 1.334 . S
C687 C686 1.407 . S
C687 C688 1.360 . S
C687 H748 0.929 . S
C688 C687 1.360 . S
C688 C689 1.401 . S
C688 C692 1.527 . S
C689 C688 1.401 . S
C689 C690 1.405 . S
C689 C722 1.587 . S
C690 C689 1.405 . S
C690 C691 1.332 . S
C690 C693 1.496 . S
C691 C686 1.418 . S
C691 C690 1.332 . S
C691 H749 0.929 . S
C692 C688 1.527 . S
C692 H750 0.959 . S
C692 H751 0.961 . S
C692 H752 0.961 . S
C693 C690 1.496 . S
C693 H753 0.960 . S
C693 H754 0.960 . S
C693 H755 0.961 . S
C694 C695 1.517 . S
C694 H757 0.961 . S
C694 H758 0.960 . S
C694 H759 0.959 . S
C695 C694 1.517 . S
C695 O743 1.468 . S
C695 H756 0.980 . S
C696 C697 1.349 . S
C696 C701 1.367 . S
C696 O743 1.408 . S
C697 C696 1.349 . S
C697 C698 1.407 . S
C697 H760 0.930 . S
C698 C697 1.407 . S
C698 C699 1.449 . S
C698 C702 1.535 . S
C699 C698 1.449 . S
C699 C700 1.384 . S
C699 C724 1.553 . S
C700 C699 1.384 . S
C700 C701 1.364 . S
C700 C703 1.450 . S
C701 C696 1.367 . S
C701 C700 1.364 . S
C701 H761 0.931 . S
C702 C698 1.535 . S
C702 H762 0.959 . S
C702 H763 0.961 . S
C702 H764 0.959 . S
C703 C700 1.450 . S
C703 H765 0.960 . S
C703 H766 0.960 . S
C703 H767 0.960 . S
C704 C705 1.309 . S
C704 C709 1.304 . S
C704 O742 1.435 . S
C705 C704 1.309 . S
C705 C706 1.476 . S
C705 H769 0.930 . S
C706 C705 1.476 . S
C706 C707 1.400 . S
C706 C710 1.567 . S
C707 C706 1.400 . S
C707 C708 1.373 . S
C707 C729 1.432 . S
C708 C707 1.373 . S
C708 C709 1.339 . S
C708 C711 1.530 . S
C709 C704 1.304 . S
C709 C708 1.339 . S
C709 H770 0.930 . S
C710 C706 1.567 . S
C710 H771 0.961 . S
C710 H772 0.960 . S
C710 H773 0.958 . S
C711 C708 1.530 . S
C711 H774 0.961 . S
C711 H775 0.960 1_556 S
C711 H776 0.960 . S
C712 C713 1.530 . S
C712 H778 0.961 . S
C712 H779 0.961 . S
C712 H780 0.959 . S
C713 C712 1.530 . S
C713 O741 1.412 . S
C713 H777 0.980 . S
C714 C715 1.288 . S
C714 C719 1.377 . S
C714 O741 1.393 . S
C715 C714 1.288 . S
C715 C716 1.369 . S
C715 H781 0.932 . S
C716 C715 1.369 . S
C716 C717 1.398 . S
C716 C720 1.527 . S
C717 C716 1.398 . S
C717 C718 1.380 . S
C717 C731 1.497 . S
C718 C717 1.380 . S
C718 C719 1.383 . S
C718 C721 1.603 . S
C719 C714 1.377 . S
C719 C718 1.383 . S
C719 H782 0.929 . S
C720 C716 1.527 . S
C720 H783 0.961 . S
C720 H784 0.959 . S
C720 H785 0.959 . S
C721 C718 1.603 . S
C721 H786 0.960 . S
C721 H787 0.962 . S
C721 H788 0.965 1_556 S
C722 C689 1.587 . S
C722 C723 1.360 . S
C722 C735 1.412 . S
C723 C722 1.360 . S
C723 C724 1.365 . S
C723 H789 0.929 . S
C724 C699 1.553 . S
C724 C723 1.365 . S
C724 C725 1.404 . S
C725 C724 1.404 . S
C725 C726 1.395 . S
C725 C736 1.451 . S
C726 C725 1.395 . S
C726 C727 1.322 . S
C726 H790 0.930 . S
C727 C726 1.322 . S
C727 C728 1.459 . S
C727 H791 0.929 . S
C728 C727 1.459 . S
C728 C729 1.445 1_554 S
C728 C737 1.395 . S
C729 C707 1.432 . S
C729 C728 1.445 1_556 S
C729 C730 1.370 . S
C730 C729 1.370 . S
C730 C731 1.438 . S
C730 H792 0.930 . S
C731 C717 1.497 . S
C731 C730 1.438 . S
C731 C732 1.360 1_556 S
C732 C731 1.360 1_554 S
C732 C733 1.401 . S
C732 C737 1.446 . S
C733 C732 1.401 . S
C733 C734 1.347 . S
C733 H793 0.929 . S
C734 C733 1.347 . S
C734 C735 1.455 . S
C734 H794 0.930 . S
C735 C722 1.412 . S
C735 C734 1.455 . S
C735 C736 1.331 . S
C736 C725 1.451 . S
C736 C735 1.331 . S
C736 C737 1.497 . S
C737 C728 1.395 . S
C737 C732 1.446 . S
C737 C736 1.497 . S
C738 C739 1.582 . S
C738 H795 0.962 . S
C738 H796 0.959 . S
C738 H797 0.958 . S
C739 C738 1.582 . S
C739 O742 1.458 . S
C739 H768 0.980 . S
O740 C685 1.426 . S
O740 C686 1.334 . S
O741 C713 1.412 . S
O741 C714 1.393 . S
O742 C704 1.435 . S
O742 C739 1.458 . S
O743 C695 1.468 . S
O743 C696 1.408 . S
H744 C685 0.980 . S
H745 C684 0.959 . S
H746 C684 0.959 . S
H747 C684 0.960 . S
H748 C687 0.929 . S
H749 C691 0.929 . S
H750 C692 0.959 . S
H751 C692 0.961 . S
H752 C692 0.961 . S
H753 C693 0.960 . S
H754 C693 0.960 . S
H755 C693 0.961 . S
H756 C695 0.980 . S
H757 C694 0.961 . S
H758 C694 0.960 . S
H759 C694 0.959 . S
H760 C697 0.930 . S
H761 C701 0.931 . S
H762 C702 0.959 . S
H763 C702 0.961 . S
H764 C702 0.959 . S
H765 C703 0.960 . S
H766 C703 0.960 . S
H767 C703 0.960 . S
H768 C739 0.980 . S
H769 C705 0.930 . S
H770 C709 0.930 . S
H771 C710 0.961 . S
H772 C710 0.960 . S
H773 C710 0.958 . S
H774 C711 0.961 . S
H775 C711 0.960 1_554 S
H776 C711 0.960 . S
H777 C713 0.980 . S
H778 C712 0.961 . S
H779 C712 0.961 . S
H780 C712 0.959 . S
H781 C715 0.932 . S
H782 C719 0.929 . S
H783 C720 0.961 . S
H784 C720 0.959 . S
H785 C720 0.959 . S
H786 C721 0.960 . S
H787 C721 0.962 . S
H788 C721 0.965 1_554 S
H789 C723 0.929 . S
H790 C726 0.930 . S
H791 C727 0.929 . S
H792 C730 0.930 . S
H793 C733 0.929 . S
H794 C734 0.930 . S
H795 C738 0.962 . S
H796 C738 0.959 . S
H797 C738 0.958 . S
C798 C799 1.560 . S
C798 H859 0.959 . S
C798 H860 0.959 . S
C798 H861 0.960 . S
C799 C798 1.560 . S
C799 O854 1.426 . S
C799 H858 0.980 . S
C800 C801 1.407 . S
C800 C805 1.418 . S
C800 O854 1.334 1_455 S
C801 C800 1.407 . S
C801 C802 1.360 . S
C801 H862 0.929 1_455 S
C802 C801 1.360 . S
C802 C803 1.401 . S
C802 C806 1.527 . S
C803 C802 1.401 . S
C803 C804 1.405 . S
C803 C836 1.587 . S
C804 C803 1.405 . S
C804 C805 1.332 . S
C804 C807 1.496 . S
C805 C800 1.418 . S
C805 C804 1.332 . S
C805 H863 0.929 . S
C806 C802 1.527 . S
C806 H864 0.959 . S
C806 H865 0.961 . S
C806 H866 0.961 . S
C807 C804 1.496 . S
C807 H867 0.960 . S
C807 H868 0.960 . S
C807 H869 0.961 . S
C808 C809 1.517 . S
C808 H871 0.961 . S
C808 H872 0.960 . S
C808 H873 0.959 . S
C809 C808 1.517 . S
C809 O857 1.468 . S
C809 H870 0.980 . S
C810 C811 1.349 . S
C810 C815 1.367 . S
C810 O857 1.408 . S
C811 C810 1.349 . S
C811 C812 1.407 . S
C811 H874 0.930 . S
C812 C811 1.407 . S
C812 C813 1.449 . S
C812 C816 1.535 . S
C813 C812 1.449 . S
C813 C814 1.384 . S
C813 C838 1.553 . S
C814 C813 1.384 . S
C814 C815 1.364 . S
C814 C817 1.450 . S
C815 C810 1.367 . S
C815 C814 1.364 . S
C815 H875 0.931 . S
C816 C812 1.535 . S
C816 H876 0.959 . S
C816 H877 0.961 . S
C816 H878 0.959 . S
C817 C814 1.450 . S
C817 H879 0.960 . S
C817 H880 0.960 . S
C817 H881 0.960 . S
C818 C819 1.309 . S
C818 C823 1.304 . S
C818 O856 1.435 . S
C819 C818 1.309 . S
C819 C820 1.476 . S
C819 H883 0.930 . S
C820 C819 1.476 . S
C820 C821 1.400 . S
C820 C824 1.567 . S
C821 C820 1.400 . S
C821 C822 1.373 . S
C821 C843 1.432 . S
C822 C821 1.373 . S
C822 C823 1.339 . S
C822 C825 1.530 . S
C823 C818 1.304 . S
C823 C822 1.339 . S
C823 H884 0.930 . S
C824 C820 1.567 . S
C824 H885 0.961 . S
C824 H886 0.960 . S
C824 H887 0.958 . S
C825 C822 1.530 . S
C825 H888 0.961 . S
C825 H889 0.960 . S
C825 H890 0.960 . S
C826 C827 1.530 . S
C826 H892 0.961 . S
C826 H893 0.961 . S
C826 H894 0.959 . S
C827 C826 1.530 . S
C827 O855 1.412 . S
C827 H891 0.980 . S
C828 C829 1.288 . S
C828 C833 1.377 . S
C828 O855 1.393 1_455 S
C829 C828 1.288 . S
C829 C830 1.369 . S
C829 H895 0.932 . S
C830 C829 1.369 . S
C830 C831 1.398 . S
C830 C834 1.527 . S
C831 C830 1.398 . S
C831 C832 1.380 . S
C831 C845 1.497 . S
C832 C831 1.380 . S
C832 C833 1.383 . S
C832 C835 1.603 . S
C833 C828 1.377 . S
C833 C832 1.383 . S
C833 H896 0.918 1_455 S
C834 C830 1.527 . S
C834 H897 0.961 . S
C834 H898 0.959 . S
C834 H899 0.959 . S
C835 C832 1.603 . S
C835 H900 0.960 . S
C835 H901 0.962 . S
C835 H902 0.961 . S
C836 C803 1.587 . S
C836 C837 1.360 . S
C836 C849 1.412 . S
C837 C836 1.360 . S
C837 C838 1.365 . S
C837 H903 0.929 . S
C838 C813 1.553 . S
C838 C837 1.365 . S
C838 C839 1.404 . S
C839 C838 1.404 . S
C839 C840 1.395 . S
C839 C850 1.451 . S
C840 C839 1.395 . S
C840 C841 1.322 . S
C840 H904 0.930 . S
C841 C840 1.322 . S
C841 C842 1.459 . S
C841 H905 0.929 . S
C842 C841 1.459 . S
C842 C843 1.445 . S
C842 C851 1.395 . S
C843 C821 1.432 . S
C843 C842 1.445 . S
C843 C844 1.370 . S
C844 C843 1.370 . S
C844 C845 1.438 . S
C844 H906 0.930 . S
C845 C831 1.497 . S
C845 C844 1.438 . S
C845 C846 1.360 . S
C846 C845 1.360 . S
C846 C847 1.401 . S
C846 C851 1.446 . S
C847 C846 1.401 . S
C847 C848 1.347 . S
C847 H907 0.929 . S
C848 C847 1.347 . S
C848 C849 1.455 . S
C848 H908 0.930 . S
C849 C836 1.412 . S
C849 C848 1.455 . S
C849 C850 1.331 . S
C850 C839 1.451 . S
C850 C849 1.331 . S
C850 C851 1.497 . S
C851 C842 1.395 . S
C851 C846 1.446 . S
C851 C850 1.497 . S
C852 C853 1.582 . S
C852 H909 0.962 . S
C852 H910 0.959 . S
C852 H911 0.958 . S
C853 C852 1.582 . S
C853 O856 1.458 . S
C853 H882 0.980 . S
O854 C799 1.426 . S
O854 C800 1.334 1_655 S
O855 C827 1.412 . S
O855 C828 1.393 1_655 S
O856 C818 1.435 . S
O856 C853 1.458 . S
O857 C809 1.468 . S
O857 C810 1.408 . S
H858 C799 0.980 . S
H859 C798 0.959 . S
H860 C798 0.959 . S
H861 C798 0.960 . S
H862 C801 0.929 1_655 S
H863 C805 0.929 . S
H864 C806 0.959 . S
H865 C806 0.961 . S
H866 C806 0.961 . S
H867 C807 0.960 . S
H868 C807 0.960 . S
H869 C807 0.961 . S
H870 C809 0.980 . S
H871 C808 0.961 . S
H872 C808 0.960 . S
H873 C808 0.959 . S
H874 C811 0.930 . S
H875 C815 0.931 . S
H876 C816 0.959 . S
H877 C816 0.961 . S
H878 C816 0.959 . S
H879 C817 0.960 . S
H880 C817 0.960 . S
H881 C817 0.960 . S
H882 C853 0.980 . S
H883 C819 0.930 . S
H884 C823 0.930 . S
H885 C824 0.961 . S
H886 C824 0.960 . S
H887 C824 0.958 . S
H888 C825 0.961 . S
H889 C825 0.960 . S
H890 C825 0.960 . S
H891 C827 0.980 . S
H892 C826 0.961 . S
H893 C826 0.961 . S
H894 C826 0.959 . S
H895 C829 0.932 . S
H896 C833 0.918 1_655 S
H897 C834 0.961 . S
H898 C834 0.959 . S
H899 C834 0.959 . S
H900 C835 0.960 . S
H901 C835 0.962 . S
H902 C835 0.961 . S
H903 C837 0.929 . S
H904 C840 0.930 . S
H905 C841 0.929 . S
H906 C844 0.930 . S
H907 C847 0.929 . S
H908 C848 0.930 . S
H909 C852 0.962 . S
H910 C852 0.959 . S
H911 C852 0.958 . S
C912 O939 1.312 . S
C912 O940 1.208 . S
C913 O934 1.331 1_655 S
C913 O937 1.244 . S
C914 O936 1.264 1_655 S
C914 O938 1.273 . S
Mg915 O917 1.936 . S
Mg915 O924 2.081 . S
Mg915 O926 2.023 . S
Mg915 O930 2.031 . S
Mg915 O939 2.291 . S
Mg916 O917 1.963 . S
Mg916 O927 1.942 . S
Mg916 O928 1.955 . S
Mg916 O935 1.986 . S
O917 Mg915 1.936 . S
O917 Mg916 1.963 . S
O917 Mg918 1.915 . S
Mg918 O917 1.915 . S
Mg918 O919 1.915 . S
Mg918 O923 2.013 . S
Mg918 O929 2.114 . S
Mg918 O933 2.013 . S
Mg918 O939 2.114 . S
O919 Mg918 1.915 . S
O919 Mg920 1.936 . S
O919 Mg921 1.963 1_455 S
Mg920 O919 1.936 . S
Mg920 O929 2.291 . S
Mg920 O934 2.081 . S
Mg920 O936 2.023 . S
Mg920 O940 2.031 . S
Mg921 O919 1.963 1_655 S
Mg921 O925 1.986 . S
Mg921 O937 1.942 . S
Mg921 O938 1.955 . S
C922 O933 1.191 . S
C922 O935 1.307 . S
O923 Mg918 2.013 . S
O923 C942 1.191 . S
O924 Mg915 2.081 . S
O924 C932 1.331 . S
O925 Mg921 1.986 . S
O925 C942 1.307 1_655 S
O926 Mg915 2.023 . S
O926 C941 1.264 . S
O927 Mg916 1.942 . S
O927 C932 1.244 . S
O928 Mg916 1.955 . S
O928 C941 1.273 . S
O929 Mg918 2.114 . S
O929 Mg920 2.291 . S
O929 C931 1.312 . S
O930 Mg915 2.031 . S
O930 C931 1.208 . S
C931 O929 1.312 . S
C931 O930 1.208 . S
C932 O924 1.331 . S
C932 O927 1.244 . S
O933 Mg918 2.013 . S
O933 C922 1.191 . S
O934 C913 1.331 1_455 S
O934 Mg920 2.081 . S
O935 Mg916 1.986 . S
O935 C922 1.307 . S
O936 C914 1.264 1_455 S
O936 Mg920 2.023 . S
O937 C913 1.244 . S
O937 Mg921 1.942 . S
O938 C914 1.273 . S
O938 Mg921 1.955 . S
O939 C912 1.312 . S
O939 Mg915 2.291 . S
O939 Mg918 2.114 . S
O940 C912 1.208 . S
O940 Mg920 2.031 . S
C941 O926 1.264 . S
C941 O928 1.273 . S
C942 O923 1.191 . S
C942 O925 1.307 1_455 S
C943 O970 1.312 . S
C943 O971 1.208 . S
C944 O965 1.331 . S
C944 O968 1.244 . S
C945 O967 1.264 . S
C945 O969 1.273 . S
Mg946 O948 1.936 . S
Mg946 O955 2.081 . S
Mg946 O957 2.023 . S
Mg946 O961 2.031 . S
Mg946 O970 2.291 . S
Mg947 O948 1.963 . S
Mg947 O958 1.942 . S
Mg947 O959 1.955 . S
Mg947 O966 1.986 . S
O948 Mg946 1.936 . S
O948 Mg947 1.963 . S
O948 Mg949 1.915 . S
Mg949 O948 1.915 . S
Mg949 O950 1.915 . S
Mg949 O954 2.013 . S
Mg949 O960 2.114 . S
Mg949 O964 2.013 . S
Mg949 O970 2.114 . S
O950 Mg949 1.915 . S
O950 Mg951 1.936 . S
O950 Mg952 1.963 . S
Mg951 O950 1.936 . S
Mg951 O960 2.291 . S
Mg951 O965 2.081 . S
Mg951 O967 2.023 . S
Mg951 O971 2.031 . S
Mg952 O950 1.963 . S
Mg952 O956 1.986 . S
Mg952 O968 1.942 . S
Mg952 O969 1.955 . S
C953 O964 1.191 . S
C953 O966 1.307 . S
O954 Mg949 2.013 . S
O954 C973 1.191 . S
O955 Mg946 2.081 . S
O955 C963 1.331 . S
O956 Mg952 1.986 . S
O956 C973 1.307 . S
O957 Mg946 2.023 . S
O957 C972 1.264 . S
O958 Mg947 1.942 . S
O958 C963 1.244 . S
O959 Mg947 1.955 . S
O959 C972 1.273 . S
O960 Mg949 2.114 . S
O960 Mg951 2.291 . S
O960 C962 1.312 . S
O961 Mg946 2.031 . S
O961 C962 1.208 . S
C962 O960 1.312 . S
C962 O961 1.208 . S
C963 O955 1.331 . S
C963 O958 1.244 . S
O964 Mg949 2.013 . S
O964 C953 1.191 . S
O965 C944 1.331 . S
O965 Mg951 2.081 . S
O966 Mg947 1.986 . S
O966 C953 1.307 . S
O967 C945 1.264 . S
O967 Mg951 2.023 . S
O968 C944 1.244 . S
O968 Mg952 1.942 . S
O969 C945 1.273 . S
O969 Mg952 1.955 . S
O970 C943 1.312 . S
O970 Mg946 2.291 . S
O970 Mg949 2.114 . S
O971 C943 1.208 . S
O971 Mg951 2.031 . S
C972 O957 1.264 . S
C972 O959 1.273 . S
C973 O954 1.191 . S
C973 O956 1.307 . S
C974 O1001 1.312 . S
C974 O1002 1.208 . S
C975 O996 1.331 . S
C975 O999 1.244 . S
C976 O998 1.264 . S
C976 O1000 1.273 . S
Mg977 O979 1.936 . S
Mg977 O986 2.081 . S
Mg977 O988 2.023 . S
Mg977 O992 2.031 . S
Mg977 O1001 2.291 . S
Mg978 O979 1.963 . S
Mg978 O989 1.942 . S
Mg978 O990 1.955 . S
Mg978 O997 1.986 . S
O979 Mg977 1.936 . S
O979 Mg978 1.963 . S
O979 Mg980 1.915 . S
Mg980 O979 1.915 . S
Mg980 O981 1.915 . S
Mg980 O985 2.013 . S
Mg980 O991 2.114 . S
Mg980 O995 2.013 . S
Mg980 O1001 2.114 . S
O981 Mg980 1.915 . S
O981 Mg982 1.936 . S
O981 Mg983 1.963 . S
Mg982 O981 1.936 . S
Mg982 O991 2.291 . S
Mg982 O996 2.081 . S
Mg982 O998 2.023 . S
Mg982 O1002 2.031 . S
Mg983 O981 1.963 . S
Mg983 O987 1.986 . S
Mg983 O999 1.942 . S
Mg983 O1000 1.955 . S
C984 O995 1.191 . S
C984 O997 1.307 . S
O985 Mg980 2.013 . S
O985 C1004 1.191 . S
O986 Mg977 2.081 . S
O986 C994 1.331 . S
O987 Mg983 1.986 . S
O987 C1004 1.307 . S
O988 Mg977 2.023 . S
O988 C1003 1.264 . S
O989 Mg978 1.942 . S
O989 C994 1.244 . S
O990 Mg978 1.955 . S
O990 C1003 1.273 . S
O991 Mg980 2.114 . S
O991 Mg982 2.291 . S
O991 C993 1.312 . S
O992 Mg977 2.031 . S
O992 C993 1.208 . S
C993 O991 1.312 . S
C993 O992 1.208 . S
C994 O986 1.331 . S
C994 O989 1.244 . S
O995 Mg980 2.013 . S
O995 C984 1.191 . S
O996 C975 1.331 . S
O996 Mg982 2.081 . S
O997 Mg978 1.986 . S
O997 C984 1.307 . S
O998 C976 1.264 . S
O998 Mg982 2.023 . S
O999 C975 1.244 . S
O999 Mg983 1.942 . S
O1000 C976 1.273 . S
O1000 Mg983 1.955 . S
O1001 C974 1.312 . S
O1001 Mg977 2.291 . S
O1001 Mg980 2.114 . S
O1002 C974 1.208 . S
O1002 Mg982 2.031 . S
C1003 O988 1.264 . S
C1003 O990 1.273 . S
C1004 O985 1.191 . S
C1004 O987 1.307 . S
C1005 O1032 1.312 . S
C1005 O1033 1.208 . S
C1006 O1027 1.331 . S
C1006 O1030 1.244 . S
C1007 O1029 1.264 . S
C1007 O1031 1.273 . S
Mg1008 O1010 1.936 . S
Mg1008 O1017 2.081 . S
Mg1008 O1019 2.023 . S
Mg1008 O1023 2.031 . S
Mg1008 O1032 2.291 . S
Mg1009 O1010 1.963 1_655 S
Mg1009 O1020 1.942 . S
Mg1009 O1021 1.955 . S
Mg1009 O1028 1.986 . S
O1010 Mg1008 1.936 . S
O1010 Mg1009 1.963 1_455 S
O1010 Mg1011 1.915 . S
Mg1011 O1010 1.915 . S
Mg1011 O1012 1.915 . S
Mg1011 O1016 2.013 . S
Mg1011 O1022 2.114 . S
Mg1011 O1026 2.013 . S
Mg1011 O1032 2.114 . S
O1012 Mg1011 1.915 . S
O1012 Mg1013 1.936 . S
O1012 Mg1014 1.963 . S
Mg1013 O1012 1.936 . S
Mg1013 O1022 2.291 . S
Mg1013 O1027 2.081 . S
Mg1013 O1029 2.023 . S
Mg1013 O1033 2.031 . S
Mg1014 O1012 1.963 . S
Mg1014 O1018 1.986 . S
Mg1014 O1030 1.942 . S
Mg1014 O1031 1.955 . S
C1015 O1026 1.191 . S
C1015 O1028 1.307 1_455 S
O1016 Mg1011 2.013 . S
O1016 C1035 1.191 . S
O1017 Mg1008 2.081 . S
O1017 C1025 1.331 1_455 S
O1018 Mg1014 1.986 . S
O1018 C1035 1.307 . S
O1019 Mg1008 2.023 . S
O1019 C1034 1.264 1_455 S
O1020 Mg1009 1.942 . S
O1020 C1025 1.244 . S
O1021 Mg1009 1.955 . S
O1021 C1034 1.273 . S
O1022 Mg1011 2.114 . S
O1022 Mg1013 2.291 . S
O1022 C1024 1.312 . S
O1023 Mg1008 2.031 . S
O1023 C1024 1.208 . S
C1024 O1022 1.312 . S
C1024 O1023 1.208 . S
C1025 O1017 1.331 1_655 S
C1025 O1020 1.244 . S
O1026 Mg1011 2.013 . S
O1026 C1015 1.191 . S
O1027 C1006 1.331 . S
O1027 Mg1013 2.081 . S
O1028 Mg1009 1.986 . S
O1028 C1015 1.307 1_655 S
O1029 C1007 1.264 . S
O1029 Mg1013 2.023 . S
O1030 C1006 1.244 . S
O1030 Mg1014 1.942 . S
O1031 C1007 1.273 . S
O1031 Mg1014 1.955 . S
O1032 C1005 1.312 . S
O1032 Mg1008 2.291 . S
O1032 Mg1011 2.114 . S
O1033 C1005 1.208 . S
O1033 Mg1013 2.031 . S
C1034 O1019 1.264 1_655 S
C1034 O1021 1.273 . S
C1035 O1016 1.191 . S
C1035 O1018 1.307 . S
C1036 C1037 1.349 . S
C1036 C1038 1.327 . S
C1036 H1061 0.950 . S
C1037 C1036 1.349 . S
C1037 C1053 1.349 . S
C1038 C1036 1.327 . S
C1038 C1057 1.429 . S
C1038 H1062 0.950 . S
C1039 C1056 1.574 . S
C1039 C1058 1.368 . S
C1039 H1063 0.949 . S
H1040 C1044 0.949 . S
C1041 C1042 1.349 . S
C1041 C1043 1.327 . S
C1041 H1064 0.950 . S
C1042 C1041 1.349 . S
C1042 C1054 1.349 . S
C1043 C1041 1.327 . S
C1043 C1059 1.429 . S
C1043 H1065 0.950 . S
C1044 H1040 0.949 . S
C1044 C1052 1.574 . S
C1044 C1060 1.368 . S
H1045 C1053 0.950 . S
H1046 C1051 0.950 . S
H1047 C1052 0.949 . S
H1048 C1054 0.950 . S
H1049 C1055 0.950 . S
H1050 C1056 0.949 . S
C1051 H1046 0.950 . S
C1051 C1053 1.327 . S
C1051 C1057 1.429 . S
C1052 C1044 1.574 . S
C1052 H1047 0.949 . S
C1052 C1058 1.368 . S
C1053 C1037 1.349 . S
C1053 H1045 0.950 . S
C1053 C1051 1.327 . S
C1054 C1042 1.349 . S
C1054 H1048 0.950 . S
C1054 C1055 1.327 . S
C1055 H1049 0.950 . S
C1055 C1054 1.327 . S
C1055 C1059 1.429 . S
C1056 C1039 1.574 . S
C1056 H1050 0.949 . S
C1056 C1060 1.368 . S
C1057 C1038 1.429 . S
C1057 C1051 1.429 . S
C1057 C1058 1.523 . S
C1058 C1039 1.368 . S
C1058 C1052 1.368 . S
C1058 C1057 1.523 . S
C1059 C1043 1.429 . S
C1059 C1055 1.429 . S
C1059 C1060 1.523 . S
C1060 C1044 1.368 . S
C1060 C1056 1.368 . S
C1060 C1059 1.523 . S
H1061 C1036 0.950 . S
H1062 C1038 0.950 . S
H1063 C1039 0.949 . S
H1064 C1041 0.950 . S
H1065 C1043 0.950 . S
C1066 C1067 1.349 . S
C1066 C1068 1.327 . S
C1066 H1091 0.950 . S
C1067 C1066 1.349 . S
C1067 C1083 1.349 . S
C1068 C1066 1.327 . S
C1068 C1087 1.429 . S
C1068 H1092 0.950 . S
C1069 C1086 1.574 1_565 S
C1069 C1088 1.368 . S
C1069 H1093 0.949 . S
H1070 C1074 0.949 . S
C1071 C1072 1.349 . S
C1071 C1073 1.327 . S
C1071 H1094 0.950 . S
C1072 C1071 1.349 . S
C1072 C1084 1.349 . S
C1073 C1071 1.327 . S
C1073 C1089 1.429 . S
C1073 H1095 0.950 . S
C1074 H1070 0.949 . S
C1074 C1082 1.594 . S
C1074 C1090 1.368 . S
H1075 C1083 0.950 . S
H1076 C1081 0.950 . S
H1077 C1082 0.943 1_565 S
H1078 C1084 0.950 . S
H1079 C1085 0.950 . S
H1080 C1086 0.949 . S
C1081 H1076 0.950 . S
C1081 C1083 1.327 . S
C1081 C1087 1.429 . S
C1082 C1074 1.594 . S
C1082 H1077 0.943 1_545 S
C1082 C1088 1.355 1_545 S
C1083 C1067 1.349 . S
C1083 H1075 0.950 . S
C1083 C1081 1.327 . S
C1084 C1072 1.349 . S
C1084 H1078 0.950 . S
C1084 C1085 1.327 . S
C1085 H1079 0.950 . S
C1085 C1084 1.327 . S
C1085 C1089 1.429 . S
C1086 C1069 1.574 1_545 S
C1086 H1080 0.949 . S
C1086 C1090 1.368 . S
C1087 C1068 1.429 . S
C1087 C1081 1.429 . S
C1087 C1088 1.523 . S
C1088 C1069 1.368 . S
C1088 C1082 1.355 1_565 S
C1088 C1087 1.523 . S
C1089 C1073 1.429 . S
C1089 C1085 1.429 . S
C1089 C1090 1.523 . S
C1090 C1074 1.368 . S
C1090 C1086 1.368 . S
C1090 C1089 1.523 . S
H1091 C1066 0.950 . S
H1092 C1068 0.950 . S
H1093 C1069 0.949 . S
H1094 C1071 0.950 . S
H1095 C1073 0.950 . S
C1096 C1097 1.349 . S
C1096 C1098 1.327 . S
C1096 H1121 0.950 . S
C1097 C1096 1.349 . S
C1097 C1113 1.349 . S
C1098 C1096 1.327 . S
C1098 C1117 1.429 . S
C1098 H1122 0.950 . S
C1099 C1116 1.574 . S
C1099 C1118 1.368 . S
C1099 H1123 0.949 . S
H1100 C1104 0.949 . S
C1101 C1102 1.349 . S
C1101 C1103 1.327 . S
C1101 H1124 0.950 . S
C1102 C1101 1.349 . S
C1102 C1114 1.349 . S
C1103 C1101 1.327 . S
C1103 C1119 1.429 . S
C1103 H1125 0.950 . S
C1104 H1100 0.949 . S
C1104 C1112 1.574 . S
C1104 C1120 1.368 . S
H1105 C1113 0.950 . S
H1106 C1111 0.950 . S
H1107 C1112 0.949 . S
H1108 C1114 0.950 . S
H1109 C1115 0.950 . S
H1110 C1116 0.949 . S
C1111 H1106 0.950 . S
C1111 C1113 1.327 . S
C1111 C1117 1.429 . S
C1112 C1104 1.574 . S
C1112 H1107 0.949 . S
C1112 C1118 1.368 . S
C1113 C1097 1.349 . S
C1113 H1105 0.950 . S
C1113 C1111 1.327 . S
C1114 C1102 1.349 . S
C1114 H1108 0.950 . S
C1114 C1115 1.327 . S
C1115 H1109 0.950 . S
C1115 C1114 1.327 . S
C1115 C1119 1.429 . S
C1116 C1099 1.574 . S
C1116 H1110 0.949 . S
C1116 C1120 1.368 . S
C1117 C1098 1.429 . S
C1117 C1111 1.429 . S
C1117 C1118 1.523 . S
C1118 C1099 1.368 . S
C1118 C1112 1.368 . S
C1118 C1117 1.523 . S
C1119 C1103 1.429 . S
C1119 C1115 1.429 . S
C1119 C1120 1.523 . S
C1120 C1104 1.368 . S
C1120 C1116 1.368 . S
C1120 C1119 1.523 . S
H1121 C1096 0.950 . S
H1122 C1098 0.950 . S
H1123 C1099 0.949 . S
H1124 C1101 0.950 . S
H1125 C1103 0.950 . S
C1126 C1127 1.349 . S
C1126 C1128 1.327 . S
C1126 H1151 0.950 . S
C1127 C1126 1.349 . S
C1127 C1143 1.349 . S
C1128 C1126 1.327 . S
C1128 C1147 1.429 . S
C1128 H1152 0.950 . S
C1129 C1146 1.574 . S
C1129 C1148 1.368 1_565 S
C1129 H1153 0.949 . S
H1130 C1134 0.949 . S
C1131 C1132 1.349 . S
C1131 C1133 1.327 . S
C1131 H1154 0.950 . S
C1132 C1131 1.349 . S
C1132 C1144 1.349 . S
C1133 C1131 1.327 . S
C1133 C1149 1.429 . S
C1133 H1155 0.950 . S
C1134 H1130 0.949 . S
C1134 C1142 1.574 1_565 S
C1134 C1150 1.368 . S
H1135 C1143 0.950 . S
H1136 C1141 0.950 . S
H1137 C1142 0.949 . S
H1138 C1144 0.950 . S
H1139 C1145 0.950 . S
H1140 C1146 0.949 . S
C1141 H1136 0.950 . S
C1141 C1143 1.327 . S
C1141 C1147 1.429 . S
C1142 C1134 1.574 1_545 S
C1142 H1137 0.949 . S
C1142 C1148 1.368 . S
C1143 C1127 1.349 . S
C1143 H1135 0.950 . S
C1143 C1141 1.327 . S
C1144 C1132 1.349 . S
C1144 H1138 0.950 . S
C1144 C1145 1.327 . S
C1145 H1139 0.950 . S
C1145 C1144 1.327 . S
C1145 C1149 1.429 . S
C1146 C1129 1.574 . S
C1146 H1140 0.949 . S
C1146 C1150 1.368 . S
C1147 C1128 1.429 . S
C1147 C1141 1.429 . S
C1147 C1148 1.523 . S
C1148 C1129 1.368 1_545 S
C1148 C1142 1.368 . S
C1148 C1147 1.523 . S
C1149 C1133 1.429 . S
C1149 C1145 1.429 . S
C1149 C1150 1.523 . S
C1150 C1134 1.368 . S
C1150 C1146 1.368 . S
C1150 C1149 1.523 . S
H1151 C1126 0.950 . S
H1152 C1128 0.950 . S
H1153 C1129 0.949 . S
H1154 C1131 0.950 . S
H1155 C1133 0.950 . S
C1156 C1157 1.349 . S
C1156 C1158 1.327 . S
C1156 H1181 0.950 . S
C1157 C1156 1.349 . S
C1157 C1173 1.349 . S
C1158 C1156 1.327 . S
C1158 C1177 1.429 . S
C1158 H1182 0.950 . S
C1159 C1176 1.574 . S
C1159 C1178 1.368 . S
C1159 H1183 0.949 . S
H1160 C1164 0.949 . S
C1161 C1162 1.349 . S
C1161 C1163 1.327 . S
C1161 H1184 0.950 . S
C1162 C1161 1.349 . S
C1162 C1174 1.349 . S
C1163 C1161 1.327 . S
C1163 C1179 1.429 . S
C1163 H1185 0.950 . S
C1164 H1160 0.949 . S
C1164 C1172 1.574 . S
C1164 C1180 1.368 . S
H1165 C1173 0.950 . S
H1166 C1171 0.950 . S
H1167 C1172 0.949 . S
H1168 C1174 0.950 . S
H1169 C1175 0.950 . S
H1170 C1176 0.949 . S
C1171 H1166 0.950 . S
C1171 C1173 1.327 . S
C1171 C1177 1.429 . S
C1172 C1164 1.574 . S
C1172 H1167 0.949 . S
C1172 C1178 1.368 . S
C1173 C1157 1.349 . S
C1173 H1165 0.950 . S
C1173 C1171 1.327 . S
C1174 C1162 1.349 . S
C1174 H1168 0.950 . S
C1174 C1175 1.327 . S
C1175 H1169 0.950 . S
C1175 C1174 1.327 . S
C1175 C1179 1.429 . S
C1176 C1159 1.574 . S
C1176 H1170 0.949 . S
C1176 C1180 1.368 . S
C1177 C1158 1.429 . S
C1177 C1171 1.429 . S
C1177 C1178 1.523 . S
C1178 C1159 1.368 . S
C1178 C1172 1.368 . S
C1178 C1177 1.523 . S
C1179 C1163 1.429 . S
C1179 C1175 1.429 . S
C1179 C1180 1.523 . S
C1180 C1164 1.368 . S
C1180 C1176 1.368 . S
C1180 C1179 1.523 . S
H1181 C1156 0.950 . S
H1182 C1158 0.950 . S
H1183 C1159 0.949 . S
H1184 C1161 0.950 . S
H1185 C1163 0.950 . S
C1186 C1187 1.349 . S
C1186 C1188 1.327 . S
C1186 H1211 0.950 . S
C1187 C1186 1.349 . S
C1187 C1203 1.349 . S
C1188 C1186 1.327 . S
C1188 C1207 1.429 . S
C1188 H1212 0.950 . S
C1189 C1206 1.574 . S
C1189 C1208 1.368 1_545 S
C1189 H1213 0.949 . S
H1190 C1194 0.949 . S
C1191 C1192 1.349 . S
C1191 C1193 1.327 . S
C1191 H1214 0.950 . S
C1192 C1191 1.349 . S
C1192 C1204 1.349 . S
C1193 C1191 1.327 . S
C1193 C1209 1.429 . S
C1193 H1215 0.950 . S
C1194 H1190 0.949 . S
C1194 C1202 1.574 1_545 S
C1194 C1210 1.368 . S
H1195 C1203 0.950 . S
H1196 C1201 0.950 . S
H1197 C1202 0.949 . S
H1198 C1204 0.950 . S
H1199 C1205 0.950 . S
H1200 C1206 0.949 . S
C1201 H1196 0.950 . S
C1201 C1203 1.327 . S
C1201 C1207 1.429 . S
C1202 C1194 1.574 1_565 S
C1202 H1197 0.949 . S
C1202 C1208 1.368 . S
C1203 C1187 1.349 . S
C1203 H1195 0.950 . S
C1203 C1201 1.327 . S
C1204 C1192 1.349 . S
C1204 H1198 0.950 . S
C1204 C1205 1.327 . S
C1205 H1199 0.950 . S
C1205 C1204 1.327 . S
C1205 C1209 1.429 . S
C1206 C1189 1.574 . S
C1206 H1200 0.949 . S
C1206 C1210 1.368 . S
C1207 C1188 1.429 . S
C1207 C1201 1.429 . S
C1207 C1208 1.523 . S
C1208 C1189 1.368 1_565 S
C1208 C1202 1.368 . S
C1208 C1207 1.523 . S
C1209 C1193 1.429 . S
C1209 C1205 1.429 . S
C1209 C1210 1.523 . S
C1210 C1194 1.368 . S
C1210 C1206 1.368 . S
C1210 C1209 1.523 . S
H1211 C1186 0.950 . S
H1212 C1188 0.950 . S
H1213 C1189 0.949 . S
H1214 C1191 0.950 . S
H1215 C1193 0.950 . S
C1216 C1217 1.349 . S
C1216 C1218 1.327 . S
C1216 H1241 0.950 . S
C1217 C1216 1.349 . S
C1217 C1233 1.349 . S
C1218 C1216 1.327 . S
C1218 C1237 1.429 . S
C1218 H1242 0.950 . S
C1219 C1236 1.574 . S
C1219 C1238 1.368 . S
C1219 H1243 0.949 . S
H1220 C1224 0.949 . S
C1221 C1222 1.349 . S
C1221 C1223 1.327 . S
C1221 H1244 0.950 . S
C1222 C1221 1.349 . S
C1222 C1234 1.349 . S
C1223 C1221 1.327 . S
C1223 C1239 1.429 . S
C1223 H1245 0.950 . S
C1224 H1220 0.949 . S
C1224 C1232 1.574 . S
C1224 C1240 1.368 . S
H1225 C1233 0.950 . S
H1226 C1231 0.950 . S
H1227 C1232 0.949 . S
H1228 C1234 0.950 . S
H1229 C1235 0.950 . S
H1230 C1236 0.949 . S
C1231 H1226 0.950 . S
C1231 C1233 1.327 . S
C1231 C1237 1.429 . S
C1232 C1224 1.574 . S
C1232 H1227 0.949 . S
C1232 C1238 1.368 . S
C1233 C1217 1.349 . S
C1233 H1225 0.950 . S
C1233 C1231 1.327 . S
C1234 C1222 1.349 . S
C1234 H1228 0.950 . S
C1234 C1235 1.327 . S
C1235 H1229 0.950 . S
C1235 C1234 1.327 . S
C1235 C1239 1.429 . S
C1236 C1219 1.574 . S
C1236 H1230 0.949 . S
C1236 C1240 1.368 . S
C1237 C1218 1.429 . S
C1237 C1231 1.429 . S
C1237 C1238 1.523 . S
C1238 C1219 1.368 . S
C1238 C1232 1.368 . S
C1238 C1237 1.523 . S
C1239 C1223 1.429 . S
C1239 C1235 1.429 . S
C1239 C1240 1.523 . S
C1240 C1224 1.368 . S
C1240 C1236 1.368 . S
C1240 C1239 1.523 . S
H1241 C1216 0.950 . S
H1242 C1218 0.950 . S
H1243 C1219 0.949 . S
H1244 C1221 0.950 . S
H1245 C1223 0.950 . S
C1246 C1247 1.349 . S
C1246 C1248 1.327 . S
C1246 H1271 0.950 . S
C1247 C1246 1.349 . S
C1247 C1263 1.349 . S
C1248 C1246 1.327 . S
C1248 C1267 1.429 . S
C1248 H1272 0.950 . S
C1249 C1266 1.574 1_545 S
C1249 C1268 1.368 . S
C1249 H1273 0.949 . S
H1250 C1254 0.949 . S
C1251 C1252 1.349 . S
C1251 C1253 1.327 . S
C1251 H1274 0.950 . S
C1252 C1251 1.349 . S
C1252 C1264 1.349 . S
C1253 C1251 1.327 . S
C1253 C1269 1.429 . S
C1253 H1275 0.950 . S
C1254 H1250 0.949 . S
C1254 C1262 1.583 . S
C1254 C1270 1.368 . S
H1255 C1263 0.950 . S
H1256 C1261 0.950 . S
H1257 C1262 0.948 1_545 S
H1258 C1264 0.950 . S
H1259 C1265 0.950 . S
H1260 C1266 0.949 . S
C1261 H1256 0.950 . S
C1261 C1263 1.327 . S
C1261 C1267 1.429 . S
C1262 C1254 1.583 . S
C1262 H1257 0.948 1_565 S
C1262 C1268 1.361 1_565 S
C1263 C1247 1.349 . S
C1263 H1255 0.950 . S
C1263 C1261 1.327 . S
C1264 C1252 1.349 . S
C1264 H1258 0.950 . S
C1264 C1265 1.327 . S
C1265 H1259 0.950 . S
C1265 C1264 1.327 . S
C1265 C1269 1.429 . S
C1266 C1249 1.574 1_565 S
C1266 H1260 0.949 . S
C1266 C1270 1.368 . S
C1267 C1248 1.429 . S
C1267 C1261 1.429 . S
C1267 C1268 1.523 . S
C1268 C1249 1.368 . S
C1268 C1262 1.361 1_545 S
C1268 C1267 1.523 . S
C1269 C1253 1.429 . S
C1269 C1265 1.429 . S
C1269 C1270 1.523 . S
C1270 C1254 1.368 . S
C1270 C1266 1.368 . S
C1270 C1269 1.523 . S
H1271 C1246 0.950 . S
H1272 C1248 0.950 . S
H1273 C1249 0.949 . S
H1274 C1251 0.950 . S
H1275 C1253 0.950 . S
C1276 C1277 1.349 . S
C1276 C1278 1.327 . S
C1276 H1301 0.950 . S
C1277 C1276 1.349 . S
C1277 C1293 1.349 . S
C1278 C1276 1.327 . S
C1278 C1297 1.429 . S
C1278 H1302 0.950 . S
C1279 C1296 1.574 . S
C1279 C1298 1.368 . S
C1279 H1303 0.949 . S
H1280 C1284 0.949 . S
C1281 C1282 1.349 . S
C1281 C1283 1.327 . S
C1281 H1304 0.950 . S
C1282 C1281 1.349 . S
C1282 C1294 1.349 . S
C1283 C1281 1.327 . S
C1283 C1299 1.429 . S
C1283 H1305 0.950 . S
C1284 H1280 0.949 . S
C1284 C1292 1.574 . S
C1284 C1300 1.368 . S
H1285 C1293 0.950 . S
H1286 C1291 0.950 . S
H1287 C1292 0.949 . S
H1288 C1294 0.950 . S
H1289 C1295 0.950 . S
H1290 C1296 0.949 . S
C1291 H1286 0.950 . S
C1291 C1293 1.327 . S
C1291 C1297 1.429 . S
C1292 C1284 1.574 . S
C1292 H1287 0.949 . S
C1292 C1298 1.368 . S
C1293 C1277 1.349 . S
C1293 H1285 0.950 . S
C1293 C1291 1.327 . S
C1294 C1282 1.349 . S
C1294 H1288 0.950 . S
C1294 C1295 1.327 . S
C1295 H1289 0.950 . S
C1295 C1294 1.327 . S
C1295 C1299 1.429 . S
C1296 C1279 1.574 . S
C1296 H1290 0.949 . S
C1296 C1300 1.368 . S
C1297 C1278 1.429 . S
C1297 C1291 1.429 . S
C1297 C1298 1.523 . S
C1298 C1279 1.368 . S
C1298 C1292 1.368 . S
C1298 C1297 1.523 . S
C1299 C1283 1.429 . S
C1299 C1295 1.429 . S
C1299 C1300 1.523 . S
C1300 C1284 1.368 . S
C1300 C1296 1.368 . S
C1300 C1299 1.523 . S
H1301 C1276 0.950 . S
H1302 C1278 0.950 . S
H1303 C1279 0.949 . S
H1304 C1281 0.950 . S
H1305 C1283 0.950 . S
C1306 C1307 1.353 . S
C1306 C1308 1.327 1_545 S
C1306 H1331 0.950 . S
C1307 C1306 1.353 . S
C1307 C1323 1.324 1_545 S
C1308 C1306 1.327 1_565 S
C1308 C1327 1.429 . S
C1308 H1332 0.950 . S
C1309 C1326 1.574 . S
C1309 C1328 1.368 . S
C1309 H1333 0.949 . S
H1310 C1314 0.949 . S
C1311 C1312 1.349 . S
C1311 C1313 1.327 . S
C1311 H1334 0.950 . S
C1312 C1311 1.349 . S
C1312 C1324 1.349 . S
C1313 C1311 1.327 . S
C1313 C1329 1.429 . S
C1313 H1335 0.950 . S
C1314 H1310 0.949 . S
C1314 C1322 1.574 . S
C1314 C1330 1.368 . S
H1315 C1323 0.950 . S
H1316 C1321 0.950 . S
H1317 C1322 0.949 . S
H1318 C1324 0.950 . S
H1319 C1325 0.950 . S
H1320 C1326 0.949 . S
C1321 H1316 0.950 . S
C1321 C1323 1.327 . S
C1321 C1327 1.429 . S
C1322 C1314 1.574 . S
C1322 H1317 0.949 . S
C1322 C1328 1.368 . S
C1323 C1307 1.324 1_565 S
C1323 H1315 0.950 . S
C1323 C1321 1.327 . S
C1324 C1312 1.349 . S
C1324 H1318 0.950 . S
C1324 C1325 1.327 . S
C1325 H1319 0.950 . S
C1325 C1324 1.327 . S
C1325 C1329 1.429 . S
C1326 C1309 1.574 . S
C1326 H1320 0.949 . S
C1326 C1330 1.368 . S
C1327 C1308 1.429 . S
C1327 C1321 1.429 . S
C1327 C1328 1.523 . S
C1328 C1309 1.368 . S
C1328 C1322 1.368 . S
C1328 C1327 1.523 . S
C1329 C1313 1.429 . S
C1329 C1325 1.429 . S
C1329 C1330 1.523 . S
C1330 C1314 1.368 . S
C1330 C1326 1.368 . S
C1330 C1329 1.523 . S
H1331 C1306 0.950 . S
H1332 C1308 0.950 . S
H1333 C1309 0.949 . S
H1334 C1311 0.950 . S
H1335 C1313 0.950 . S
C1336 C1337 1.349 . S
C1336 C1338 1.327 . S
C1336 H1361 0.950 . S
C1337 C1336 1.349 . S
C1337 C1353 1.349 . S
C1338 C1336 1.327 . S
C1338 C1357 1.429 . S
C1338 H1362 0.950 . S
C1339 C1356 1.574 . S
C1339 C1358 1.368 . S
C1339 H1363 0.949 . S
H1340 C1344 0.949 . S
C1341 C1342 1.349 . S
C1341 C1343 1.327 1_455 S
C1341 H1364 0.950 . S
C1342 C1341 1.349 . S
C1342 C1354 1.349 . S
C1343 C1341 1.327 1_655 S
C1343 C1359 1.429 . S
C1343 H1365 0.950 . S
C1344 H1340 0.949 . S
C1344 C1352 1.574 . S
C1344 C1360 1.368 . S
H1345 C1353 0.950 . S
H1346 C1351 0.950 . S
H1347 C1352 0.949 . S
H1348 C1354 0.950 . S
H1349 C1355 0.950 . S
H1350 C1356 0.949 . S
C1351 H1346 0.950 . S
C1351 C1353 1.327 . S
C1351 C1357 1.429 . S
C1352 C1344 1.574 . S
C1352 H1347 0.949 . S
C1352 C1358 1.368 . S
C1353 C1337 1.349 . S
C1353 H1345 0.950 . S
C1353 C1351 1.327 . S
C1354 C1342 1.349 . S
C1354 H1348 0.950 . S
C1354 C1355 1.327 1_455 S
C1355 H1349 0.950 . S
C1355 C1354 1.327 1_655 S
C1355 C1359 1.429 . S
C1356 C1339 1.574 . S
C1356 H1350 0.949 . S
C1356 C1360 1.368 . S
C1357 C1338 1.429 . S
C1357 C1351 1.429 . S
C1357 C1358 1.523 . S
C1358 C1339 1.368 . S
C1358 C1352 1.368 . S
C1358 C1357 1.523 . S
C1359 C1343 1.429 . S
C1359 C1355 1.429 . S
C1359 C1360 1.523 . S
C1360 C1344 1.368 . S
C1360 C1356 1.368 . S
C1360 C1359 1.523 . S
H1361 C1336 0.950 . S
H1362 C1338 0.950 . S
H1363 C1339 0.949 . S
H1364 C1341 0.950 . S
H1365 C1343 0.950 . S
C1366 C1367 1.349 . S
C1366 C1368 1.327 . S
C1366 H1391 0.950 . S
C1367 C1366 1.349 . S
C1367 C1383 1.349 1_545 S
C1368 C1366 1.327 . S
C1368 C1387 1.429 . S
C1368 H1392 0.950 . S
C1369 C1386 1.574 . S
C1369 C1388 1.368 . S
C1369 H1393 0.949 . S
H1370 C1374 0.949 . S
C1371 C1372 1.349 . S
C1371 C1373 1.327 . S
C1371 H1394 0.950 . S
C1372 C1371 1.349 . S
C1372 C1384 1.349 1_455 S
C1373 C1371 1.327 . S
C1373 C1389 1.429 1_455 S
C1373 H1395 0.950 . S
C1374 H1370 0.949 . S
C1374 C1382 1.574 . S
C1374 C1390 1.368 . S
H1375 C1383 0.950 . S
H1376 C1381 0.950 . S
H1377 C1382 0.949 . S
H1378 C1384 0.950 . S
H1379 C1385 0.950 . S
H1380 C1386 0.949 . S
C1381 H1376 0.950 . S
C1381 C1383 1.327 1_545 S
C1381 C1387 1.429 . S
C1382 C1374 1.574 . S
C1382 H1377 0.949 . S
C1382 C1388 1.368 . S
C1383 C1367 1.349 1_565 S
C1383 H1375 0.950 . S
C1383 C1381 1.327 1_565 S
C1384 C1372 1.349 1_655 S
C1384 H1378 0.950 . S
C1384 C1385 1.327 . S
C1385 H1379 0.950 . S
C1385 C1384 1.327 . S
C1385 C1389 1.429 . S
C1386 C1369 1.574 . S
C1386 H1380 0.949 . S
C1386 C1390 1.368 . S
C1387 C1368 1.429 . S
C1387 C1381 1.429 . S
C1387 C1388 1.523 . S
C1388 C1369 1.368 . S
C1388 C1382 1.368 . S
C1388 C1387 1.523 . S
C1389 C1373 1.429 1_655 S
C1389 C1385 1.429 . S
C1389 C1390 1.523 . S
C1390 C1374 1.368 . S
C1390 C1386 1.368 . S
C1390 C1389 1.523 . S
H1391 C1366 0.950 . S
H1392 C1368 0.950 . S
H1393 C1369 0.949 . S
H1394 C1371 0.950 . S
H1395 C1373 0.950 . S
C1396 C1397 1.349 . S
C1396 C1398 1.327 . S
C1396 H1421 0.950 . S
C1397 C1396 1.349 . S
C1397 C1413 1.349 . S
C1398 C1396 1.327 . S
C1398 C1417 1.429 . S
C1398 H1422 0.950 . S
C1399 C1416 1.574 . S
C1399 C1418 1.368 . S
C1399 H1423 0.949 . S
H1400 C1404 0.949 . S
C1401 C1402 1.349 . S
C1401 C1403 1.327 . S
C1401 H1424 0.950 . S
C1402 C1401 1.349 . S
C1402 C1414 1.349 . S
C1403 C1401 1.327 . S
C1403 C1419 1.429 . S
C1403 H1425 0.950 . S
C1404 H1400 0.949 . S
C1404 C1412 1.574 . S
C1404 C1420 1.368 . S
H1405 C1413 0.950 . S
H1406 C1411 0.950 . S
H1407 C1412 0.949 . S
H1408 C1414 0.950 . S
H1409 C1415 0.950 . S
H1410 C1416 0.949 . S
C1411 H1406 0.950 . S
C1411 C1413 1.327 . S
C1411 C1417 1.429 . S
C1412 C1404 1.574 . S
C1412 H1407 0.949 . S
C1412 C1418 1.368 . S
C1413 C1397 1.349 . S
C1413 H1405 0.950 . S
C1413 C1411 1.327 . S
C1414 C1402 1.349 . S
C1414 H1408 0.950 . S
C1414 C1415 1.327 . S
C1415 H1409 0.950 . S
C1415 C1414 1.327 . S
C1415 C1419 1.429 . S
C1416 C1399 1.574 . S
C1416 H1410 0.949 . S
C1416 C1420 1.368 . S
C1417 C1398 1.429 . S
C1417 C1411 1.429 . S
C1417 C1418 1.523 . S
C1418 C1399 1.368 . S
C1418 C1412 1.368 . S
C1418 C1417 1.523 . S
C1419 C1403 1.429 . S
C1419 C1415 1.429 . S
C1419 C1420 1.523 . S
C1420 C1404 1.368 . S
C1420 C1416 1.368 . S
C1420 C1419 1.523 . S
H1421 C1396 0.950 . S
H1422 C1398 0.950 . S
H1423 C1399 0.949 . S
H1424 C1401 0.950 . S
H1425 C1403 0.950 . S
C1426 C1427 1.349 . S
C1426 C1428 1.327 1_545 S
C1426 H1451 0.950 . S
C1427 C1426 1.349 . S
C1427 C1443 1.349 1_545 S
C1428 C1426 1.327 1_565 S
C1428 C1447 1.429 . S
C1428 H1452 0.953 . S
C1429 C1446 1.574 . S
C1429 C1448 1.368 . S
C1429 H1453 0.949 . S
H1430 C1434 0.947 1_455 S
C1431 C1432 1.349 1_655 S
C1431 C1433 1.327 . S
C1431 H1454 0.950 . S
C1432 C1431 1.349 1_455 S
C1432 C1444 1.349 . S
C1433 C1431 1.327 . S
C1433 C1449 1.429 . S
C1433 H1455 0.950 . S
C1434 H1430 0.947 1_655 S
C1434 C1442 1.574 . S
C1434 C1450 1.368 . S
H1435 C1443 0.950 . S
H1436 C1441 0.950 . S
H1437 C1442 0.949 . S
H1438 C1444 0.950 . S
H1439 C1445 0.950 . S
H1440 C1446 0.949 . S
C1441 H1436 0.950 . S
C1441 C1443 1.327 . S
C1441 C1447 1.429 . S
C1442 C1434 1.574 . S
C1442 H1437 0.949 . S
C1442 C1448 1.368 . S
C1443 C1427 1.349 1_565 S
C1443 H1435 0.950 . S
C1443 C1441 1.327 . S
C1444 C1432 1.349 . S
C1444 H1438 0.950 . S
C1444 C1445 1.327 . S
C1445 H1439 0.950 . S
C1445 C1444 1.327 . S
C1445 C1449 1.429 1_455 S
C1446 C1429 1.574 . S
C1446 H1440 0.949 . S
C1446 C1450 1.368 . S
C1447 C1428 1.429 . S
C1447 C1441 1.429 . S
C1447 C1448 1.523 . S
C1448 C1429 1.368 . S
C1448 C1442 1.368 . S
C1448 C1447 1.523 . S
C1449 C1433 1.429 . S
C1449 C1445 1.429 1_655 S
C1449 C1450 1.523 . S
C1450 C1434 1.368 . S
C1450 C1446 1.368 . S
C1450 C1449 1.523 . S
H1451 C1426 0.950 . S
H1452 C1428 0.953 . S
H1453 C1429 0.949 . S
H1454 C1431 0.950 . S
H1455 C1433 0.950 . S
C1456 C1457 1.349 . S
C1456 C1458 1.327 . S
C1456 H1481 0.950 . S
C1457 C1456 1.349 . S
C1457 C1473 1.349 . S
C1458 C1456 1.327 . S
C1458 C1477 1.429 . S
C1458 H1482 0.950 . S
C1459 C1476 1.574 . S
C1459 C1478 1.368 . S
C1459 H1483 0.949 . S
H1460 C1464 0.949 . S
C1461 C1462 1.349 1_655 S
C1461 C1463 1.327 . S
C1461 H1484 0.950 . S
C1462 C1461 1.349 1_455 S
C1462 C1474 1.349 . S
C1463 C1461 1.327 . S
C1463 C1479 1.429 . S
C1463 H1485 0.950 . S
C1464 H1460 0.949 . S
C1464 C1472 1.574 . S
C1464 C1480 1.368 . S
H1465 C1473 0.950 . S
H1466 C1471 0.950 . S
H1467 C1472 0.949 . S
H1468 C1474 0.950 . S
H1469 C1475 0.950 . S
H1470 C1476 0.949 . S
C1471 H1466 0.950 . S
C1471 C1473 1.327 . S
C1471 C1477 1.429 . S
C1472 C1464 1.574 . S
C1472 H1467 0.949 . S
C1472 C1478 1.368 . S
C1473 C1457 1.349 . S
C1473 H1465 0.950 . S
C1473 C1471 1.327 . S
C1474 C1462 1.349 . S
C1474 H1468 0.950 . S
C1474 C1475 1.327 1_455 S
C1475 H1469 0.950 . S
C1475 C1474 1.327 1_655 S
C1475 C1479 1.429 . S
C1476 C1459 1.574 . S
C1476 H1470 0.949 . S
C1476 C1480 1.368 . S
C1477 C1458 1.429 . S
C1477 C1471 1.429 . S
C1477 C1478 1.523 . S
C1478 C1459 1.368 . S
C1478 C1472 1.368 . S
C1478 C1477 1.523 . S
C1479 C1463 1.429 . S
C1479 C1475 1.429 . S
C1479 C1480 1.523 . S
C1480 C1464 1.368 . S
C1480 C1476 1.368 . S
C1480 C1479 1.523 . S
H1481 C1456 0.950 . S
H1482 C1458 0.950 . S
H1483 C1459 0.949 . S
H1484 C1461 0.950 . S
H1485 C1463 0.950 . S
C1486 C1487 1.349 . S
C1486 C1488 1.327 . S
C1486 H1511 0.950 . S
C1487 C1486 1.349 . S
C1487 C1503 1.349 1_545 S
C1488 C1486 1.327 . S
C1488 C1507 1.429 . S
C1488 H1512 0.950 . S
C1489 C1506 1.574 . S
C1489 C1508 1.368 . S
C1489 H1513 0.949 . S
H1490 C1494 0.949 . S
C1491 C1492 1.349 . S
C1491 C1493 1.327 . S
C1491 H1514 0.950 . S
C1492 C1491 1.349 . S
C1492 C1504 1.349 . S
C1493 C1491 1.327 . S
C1493 C1509 1.429 . S
C1493 H1515 0.950 . S
C1494 H1490 0.949 . S
C1494 C1502 1.574 . S
C1494 C1510 1.368 . S
H1495 C1503 0.950 . S
H1496 C1501 0.950 . S
H1497 C1502 0.949 . S
H1498 C1504 0.950 . S
H1499 C1505 0.950 . S
H1500 C1506 0.949 . S
C1501 H1496 0.950 . S
C1501 C1503 1.327 1_545 S
C1501 C1507 1.429 . S
C1502 C1494 1.574 . S
C1502 H1497 0.949 . S
C1502 C1508 1.368 . S
C1503 C1487 1.349 1_565 S
C1503 H1495 0.950 . S
C1503 C1501 1.327 1_565 S
C1504 C1492 1.349 . S
C1504 H1498 0.950 . S
C1504 C1505 1.327 . S
C1505 H1499 0.950 . S
C1505 C1504 1.327 . S
C1505 C1509 1.429 . S
C1506 C1489 1.574 . S
C1506 H1500 0.949 . S
C1506 C1510 1.368 . S
C1507 C1488 1.429 . S
C1507 C1501 1.429 . S
C1507 C1508 1.523 . S
C1508 C1489 1.368 . S
C1508 C1502 1.368 . S
C1508 C1507 1.523 . S
C1509 C1493 1.429 . S
C1509 C1505 1.429 . S
C1509 C1510 1.523 . S
C1510 C1494 1.368 . S
C1510 C1506 1.368 . S
C1510 C1509 1.523 . S
H1511 C1486 0.950 . S
H1512 C1488 0.950 . S
H1513 C1489 0.949 . S
H1514 C1491 0.950 . S
H1515 C1493 0.950 . S
C1516 C1517 1.349 . S
C1516 C1518 1.327 . S
C1516 H1541 0.950 . S
C1517 C1516 1.349 . S
C1517 C1533 1.349 . S
C1518 C1516 1.327 . S
C1518 C1537 1.429 . S
C1518 H1542 0.950 . S
C1519 C1536 1.574 . S
C1519 C1538 1.368 . S
C1519 H1543 0.949 . S
H1520 C1524 0.949 . S
C1521 C1522 1.349 . S
C1521 C1523 1.327 . S
C1521 H1544 0.950 . S
C1522 C1521 1.349 . S
C1522 C1534 1.349 . S
C1523 C1521 1.327 . S
C1523 C1539 1.429 . S
C1523 H1545 0.950 . S
C1524 H1520 0.949 . S
C1524 C1532 1.574 . S
C1524 C1540 1.368 . S
H1525 C1533 0.950 . S
H1526 C1531 0.950 . S
H1527 C1532 0.949 . S
H1528 C1534 0.950 . S
H1529 C1535 0.950 . S
H1530 C1536 0.949 . S
C1531 H1526 0.950 . S
C1531 C1533 1.327 . S
C1531 C1537 1.429 . S
C1532 C1524 1.574 . S
C1532 H1527 0.949 . S
C1532 C1538 1.368 . S
C1533 C1517 1.349 . S
C1533 H1525 0.950 . S
C1533 C1531 1.327 . S
C1534 C1522 1.349 . S
C1534 H1528 0.950 . S
C1534 C1535 1.327 . S
C1535 H1529 0.950 . S
C1535 C1534 1.327 . S
C1535 C1539 1.429 . S
C1536 C1519 1.574 . S
C1536 H1530 0.949 . S
C1536 C1540 1.368 . S
C1537 C1518 1.429 . S
C1537 C1531 1.429 . S
C1537 C1538 1.523 . S
C1538 C1519 1.368 . S
C1538 C1532 1.368 . S
C1538 C1537 1.523 . S
C1539 C1523 1.429 . S
C1539 C1535 1.429 . S
C1539 C1540 1.523 . S
C1540 C1524 1.368 . S
C1540 C1536 1.368 . S
C1540 C1539 1.523 . S
H1541 C1516 0.950 . S
H1542 C1518 0.950 . S
H1543 C1519 0.949 . S
H1544 C1521 0.950 . S
H1545 C1523 0.950 . S
C1546 C1547 1.349 . S
C1546 C1548 1.327 . S
C1546 H1571 0.950 . S
C1547 C1546 1.349 . S
C1547 C1563 1.349 . S
C1548 C1546 1.327 . S
C1548 C1567 1.429 . S
C1548 H1572 0.950 . S
C1549 C1566 1.574 . S
C1549 C1568 1.368 . S
C1549 H1573 0.949 . S
H1550 C1554 0.949 . S
C1551 C1552 1.349 . S
C1551 C1553 1.327 . S
C1551 H1574 0.942 1_655 S
C1552 C1551 1.349 . S
C1552 C1564 1.349 . S
C1553 C1551 1.327 . S
C1553 C1569 1.429 . S
C1553 H1575 0.950 . S
C1554 H1550 0.949 . S
C1554 C1562 1.574 . S
C1554 C1570 1.368 . S
H1555 C1563 0.950 . S
H1556 C1561 0.950 . S
H1557 C1562 0.949 . S
H1558 C1564 0.950 . S
H1559 C1565 0.950 . S
H1560 C1566 0.949 . S
C1561 H1556 0.950 . S
C1561 C1563 1.327 . S
C1561 C1567 1.429 . S
C1562 C1554 1.574 . S
C1562 H1557 0.949 . S
C1562 C1568 1.368 . S
C1563 C1547 1.349 . S
C1563 H1555 0.950 . S
C1563 C1561 1.327 . S
C1564 C1552 1.349 . S
C1564 H1558 0.950 . S
C1564 C1565 1.327 . S
C1565 H1559 0.950 . S
C1565 C1564 1.327 . S
C1565 C1569 1.429 . S
C1566 C1549 1.574 . S
C1566 H1560 0.949 . S
C1566 C1570 1.368 . S
C1567 C1548 1.429 . S
C1567 C1561 1.429 . S
C1567 C1568 1.523 . S
C1568 C1549 1.368 . S
C1568 C1562 1.368 . S
C1568 C1567 1.523 . S
C1569 C1553 1.429 . S
C1569 C1565 1.429 . S
C1569 C1570 1.523 . S
C1570 C1554 1.368 . S
C1570 C1566 1.368 . S
C1570 C1569 1.523 . S
H1571 C1546 0.950 . S
H1572 C1548 0.950 . S
H1573 C1549 0.949 . S
H1574 C1551 0.942 1_455 S
H1575 C1553 0.950 . S
C1576 C1577 1.349 . S
C1576 C1578 1.327 . S
C1576 H1601 0.950 . S
C1577 C1576 1.349 . S
C1577 C1593 1.349 . S
C1578 C1576 1.327 . S
C1578 C1597 1.429 . S
C1578 H1602 0.950 . S
C1579 C1596 1.574 . S
C1579 C1598 1.368 . S
C1579 H1603 0.949 . S
H1580 C1584 0.949 . S
C1581 C1582 1.349 . S
C1581 C1583 1.327 . S
C1581 H1604 0.950 . S
C1582 C1581 1.349 . S
C1582 C1594 1.349 . S
C1583 C1581 1.327 . S
C1583 C1599 1.429 . S
C1583 H1605 0.950 . S
C1584 H1580 0.949 . S
C1584 C1592 1.574 . S
C1584 C1600 1.368 . S
H1585 C1593 0.950 . S
H1586 C1591 0.950 . S
H1587 C1592 0.949 . S
H1588 C1594 0.950 . S
H1589 C1595 0.950 . S
H1590 C1596 0.949 . S
C1591 H1586 0.950 . S
C1591 C1593 1.327 . S
C1591 C1597 1.429 . S
C1592 C1584 1.574 . S
C1592 H1587 0.949 . S
C1592 C1598 1.368 . S
C1593 C1577 1.349 . S
C1593 H1585 0.950 . S
C1593 C1591 1.327 . S
C1594 C1582 1.349 . S
C1594 H1588 0.950 . S
C1594 C1595 1.327 . S
C1595 H1589 0.950 . S
C1595 C1594 1.327 . S
C1595 C1599 1.429 . S
C1596 C1579 1.574 . S
C1596 H1590 0.949 . S
C1596 C1600 1.368 . S
C1597 C1578 1.429 . S
C1597 C1591 1.429 . S
C1597 C1598 1.523 . S
C1598 C1579 1.368 . S
C1598 C1592 1.368 . S
C1598 C1597 1.523 . S
C1599 C1583 1.429 . S
C1599 C1595 1.429 . S
C1599 C1600 1.523 . S
C1600 C1584 1.368 . S
C1600 C1596 1.368 . S
C1600 C1599 1.523 . S
H1601 C1576 0.950 . S
H1602 C1578 0.950 . S
H1603 C1579 0.949 . S
H1604 C1581 0.950 . S
H1605 C1583 0.950 . S
C1606 C1607 1.349 . S
C1606 C1608 1.327 . S
C1606 H1631 0.950 . S
C1607 C1606 1.349 . S
C1607 C1623 1.349 . S
C1608 C1606 1.327 . S
C1608 C1627 1.429 . S
C1608 H1632 0.950 . S
C1609 C1626 1.574 . S
C1609 C1628 1.368 . S
C1609 H1633 0.949 . S
H1610 C1614 0.949 . S
C1611 C1612 1.349 . S
C1611 C1613 1.327 . S
C1611 H1634 0.950 . S
C1612 C1611 1.349 . S
C1612 C1624 1.349 . S
C1613 C1611 1.327 . S
C1613 C1629 1.429 . S
C1613 H1635 0.950 . S
C1614 H1610 0.949 . S
C1614 C1622 1.574 . S
C1614 C1630 1.368 . S
H1615 C1623 0.950 . S
H1616 C1621 0.950 . S
H1617 C1622 0.949 . S
H1618 C1624 0.950 . S
H1619 C1625 0.950 . S
H1620 C1626 0.949 . S
C1621 H1616 0.950 . S
C1621 C1623 1.327 . S
C1621 C1627 1.429 . S
C1622 C1614 1.574 . S
C1622 H1617 0.949 . S
C1622 C1628 1.368 . S
C1623 C1607 1.349 . S
C1623 H1615 0.950 . S
C1623 C1621 1.327 . S
C1624 C1612 1.349 . S
C1624 H1618 0.950 . S
C1624 C1625 1.327 . S
C1625 H1619 0.950 . S
C1625 C1624 1.327 . S
C1625 C1629 1.429 . S
C1626 C1609 1.574 . S
C1626 H1620 0.949 . S
C1626 C1630 1.368 . S
C1627 C1608 1.429 . S
C1627 C1621 1.429 . S
C1627 C1628 1.523 . S
C1628 C1609 1.368 . S
C1628 C1622 1.368 . S
C1628 C1627 1.523 . S
C1629 C1613 1.429 . S
C1629 C1625 1.429 . S
C1629 C1630 1.523 . S
C1630 C1614 1.368 . S
C1630 C1626 1.368 . S
C1630 C1629 1.523 . S
H1631 C1606 0.950 . S
H1632 C1608 0.950 . S
H1633 C1609 0.949 . S
H1634 C1611 0.950 . S
H1635 C1613 0.950 . S
C1636 C1637 1.349 . S
C1636 C1638 1.327 . S
C1636 H1661 0.950 . S
C1637 C1636 1.349 . S
C1637 C1653 1.349 . S
C1638 C1636 1.327 . S
C1638 C1657 1.429 . S
C1638 H1662 0.950 . S
C1639 C1656 1.574 . S
C1639 C1658 1.368 . S
C1639 H1663 0.949 . S
H1640 C1644 0.949 . S
C1641 C1642 1.349 . S
C1641 C1643 1.327 . S
C1641 H1664 0.950 . S
C1642 C1641 1.349 . S
C1642 C1654 1.349 . S
C1643 C1641 1.327 . S
C1643 C1659 1.429 . S
C1643 H1665 0.950 . S
C1644 H1640 0.949 . S
C1644 C1652 1.574 . S
C1644 C1660 1.368 . S
H1645 C1653 0.950 . S
H1646 C1651 0.950 . S
H1647 C1652 0.949 . S
H1648 C1654 0.950 . S
H1649 C1655 0.950 . S
H1650 C1656 0.949 . S
C1651 H1646 0.950 . S
C1651 C1653 1.327 . S
C1651 C1657 1.429 . S
C1652 C1644 1.574 . S
C1652 H1647 0.949 . S
C1652 C1658 1.368 . S
C1653 C1637 1.349 . S
C1653 H1645 0.950 . S
C1653 C1651 1.327 . S
C1654 C1642 1.349 . S
C1654 H1648 0.950 . S
C1654 C1655 1.327 . S
C1655 H1649 0.950 . S
C1655 C1654 1.327 . S
C1655 C1659 1.429 . S
C1656 C1639 1.574 . S
C1656 H1650 0.949 . S
C1656 C1660 1.368 . S
C1657 C1638 1.429 . S
C1657 C1651 1.429 . S
C1657 C1658 1.523 . S
C1658 C1639 1.368 . S
C1658 C1652 1.368 . S
C1658 C1657 1.523 . S
C1659 C1643 1.429 . S
C1659 C1655 1.429 . S
C1659 C1660 1.523 . S
C1660 C1644 1.368 . S
C1660 C1656 1.368 . S
C1660 C1659 1.523 . S
H1661 C1636 0.950 . S
H1662 C1638 0.950 . S
H1663 C1639 0.949 . S
H1664 C1641 0.950 . S
H1665 C1643 0.950 . S
C1666 C1667 1.349 . S
C1666 C1668 1.327 . S
C1666 H1691 0.950 . S
C1667 C1666 1.349 . S
C1667 C1683 1.349 . S
C1668 C1666 1.327 . S
C1668 C1687 1.429 . S
C1668 H1692 0.950 . S
C1669 C1686 1.574 . S
C1669 C1688 1.368 . S
C1669 H1693 0.949 . S
H1670 C1674 0.949 . S
C1671 C1672 1.349 . S
C1671 C1673 1.327 . S
C1671 H1694 0.950 . S
C1672 C1671 1.349 . S
C1672 C1684 1.349 . S
C1673 C1671 1.327 . S
C1673 C1689 1.429 . S
C1673 H1695 0.950 . S
C1674 H1670 0.949 . S
C1674 C1682 1.574 . S
C1674 C1690 1.368 . S
H1675 C1683 0.950 . S
H1676 C1681 0.950 . S
H1677 C1682 0.949 . S
H1678 C1684 0.950 . S
H1679 C1685 0.950 . S
H1680 C1686 0.949 . S
C1681 H1676 0.950 . S
C1681 C1683 1.327 . S
C1681 C1687 1.429 . S
C1682 C1674 1.574 . S
C1682 H1677 0.949 . S
C1682 C1688 1.368 . S
C1683 C1667 1.349 . S
C1683 H1675 0.950 . S
C1683 C1681 1.327 . S
C1684 C1672 1.349 . S
C1684 H1678 0.950 . S
C1684 C1685 1.327 . S
C1685 H1679 0.950 . S
C1685 C1684 1.327 . S
C1685 C1689 1.429 . S
C1686 C1669 1.574 . S
C1686 H1680 0.949 . S
C1686 C1690 1.368 . S
C1687 C1668 1.429 . S
C1687 C1681 1.429 . S
C1687 C1688 1.523 . S
C1688 C1669 1.368 . S
C1688 C1682 1.368 . S
C1688 C1687 1.523 . S
C1689 C1673 1.429 . S
C1689 C1685 1.429 . S
C1689 C1690 1.523 . S
C1690 C1674 1.368 . S
C1690 C1686 1.368 . S
C1690 C1689 1.523 . S
H1691 C1666 0.950 . S
H1692 C1668 0.950 . S
H1693 C1669 0.949 . S
H1694 C1671 0.950 . S
H1695 C1673 0.950 . S
C1696 C1697 1.349 . S
C1696 C1698 1.327 . S
C1696 H1721 0.950 . S
C1697 C1696 1.349 . S
C1697 C1713 1.349 . S
C1698 C1696 1.327 . S
C1698 C1717 1.429 . S
C1698 H1722 0.950 . S
C1699 C1716 1.574 . S
C1699 C1718 1.368 . S
C1699 H1723 0.949 . S
H1700 C1704 0.949 . S
C1701 C1702 1.349 . S
C1701 C1703 1.327 . S
C1701 H1724 0.950 . S
C1702 C1701 1.349 . S
C1702 C1714 1.349 . S
C1703 C1701 1.327 . S
C1703 C1719 1.429 . S
C1703 H1725 0.950 . S
C1704 H1700 0.949 . S
C1704 C1712 1.574 . S
C1704 C1720 1.368 . S
H1705 C1713 0.950 . S
H1706 C1711 0.950 . S
H1707 C1712 0.949 . S
H1708 C1714 0.950 . S
H1709 C1715 0.950 . S
H1710 C1716 0.949 . S
C1711 H1706 0.950 . S
C1711 C1713 1.327 . S
C1711 C1717 1.429 . S
C1712 C1704 1.574 . S
C1712 H1707 0.949 . S
C1712 C1718 1.368 . S
C1713 C1697 1.349 . S
C1713 H1705 0.950 . S
C1713 C1711 1.327 . S
C1714 C1702 1.349 . S
C1714 H1708 0.950 . S
C1714 C1715 1.327 . S
C1715 H1709 0.950 . S
C1715 C1714 1.327 . S
C1715 C1719 1.429 . S
C1716 C1699 1.574 . S
C1716 H1710 0.949 . S
C1716 C1720 1.368 . S
C1717 C1698 1.429 . S
C1717 C1711 1.429 . S
C1717 C1718 1.523 . S
C1718 C1699 1.368 . S
C1718 C1712 1.368 . S
C1718 C1717 1.523 . S
C1719 C1703 1.429 . S
C1719 C1715 1.429 . S
C1719 C1720 1.523 . S
C1720 C1704 1.368 . S
C1720 C1716 1.368 . S
C1720 C1719 1.523 . S
H1721 C1696 0.950 . S
H1722 C1698 0.950 . S
H1723 C1699 0.949 . S
H1724 C1701 0.950 . S
H1725 C1703 0.950 . S
C1726 C1727 1.349 . S
C1726 C1728 1.327 . S
C1726 H1751 0.950 . S
C1727 C1726 1.349 . S
C1727 C1743 1.349 . S
C1728 C1726 1.327 . S
C1728 C1747 1.429 . S
C1728 H1752 0.950 . S
C1729 C1746 1.574 . S
C1729 C1748 1.368 . S
C1729 H1753 0.949 . S
H1730 C1734 0.949 . S
C1731 C1732 1.349 . S
C1731 C1733 1.327 . S
C1731 H1754 0.950 . S
C1732 C1731 1.349 . S
C1732 C1744 1.349 . S
C1733 C1731 1.327 . S
C1733 C1749 1.429 . S
C1733 H1755 0.950 . S
C1734 H1730 0.949 . S
C1734 C1742 1.574 . S
C1734 C1750 1.368 . S
H1735 C1743 0.950 . S
H1736 C1741 0.950 . S
H1737 C1742 0.949 . S
H1738 C1744 0.950 . S
H1739 C1745 0.950 . S
H1740 C1746 0.949 . S
C1741 H1736 0.950 . S
C1741 C1743 1.327 . S
C1741 C1747 1.429 . S
C1742 C1734 1.574 . S
C1742 H1737 0.949 . S
C1742 C1748 1.368 . S
C1743 C1727 1.349 . S
C1743 H1735 0.950 . S
C1743 C1741 1.327 . S
C1744 C1732 1.349 . S
C1744 H1738 0.950 . S
C1744 C1745 1.327 . S
C1745 H1739 0.950 . S
C1745 C1744 1.327 . S
C1745 C1749 1.429 . S
C1746 C1729 1.574 . S
C1746 H1740 0.949 . S
C1746 C1750 1.368 . S
C1747 C1728 1.429 . S
C1747 C1741 1.429 . S
C1747 C1748 1.523 . S
C1748 C1729 1.368 . S
C1748 C1742 1.368 . S
C1748 C1747 1.523 . S
C1749 C1733 1.429 . S
C1749 C1745 1.429 . S
C1749 C1750 1.523 . S
C1750 C1734 1.368 . S
C1750 C1746 1.368 . S
C1750 C1749 1.523 . S
H1751 C1726 0.950 . S
H1752 C1728 0.950 . S
H1753 C1729 0.949 . S
H1754 C1731 0.950 . S
H1755 C1733 0.950 . S
C1756 C1757 1.349 . S
C1756 C1758 1.327 . S
C1756 H1781 0.950 . S
C1757 C1756 1.349 . S
C1757 C1773 1.349 . S
C1758 C1756 1.327 . S
C1758 C1777 1.429 . S
C1758 H1782 0.950 . S
C1759 C1776 1.574 . S
C1759 C1778 1.368 . S
C1759 H1783 0.949 . S
H1760 C1764 0.949 . S
C1761 C1762 1.349 . S
C1761 C1763 1.327 . S
C1761 H1784 0.950 . S
C1762 C1761 1.349 . S
C1762 C1774 1.349 . S
C1763 C1761 1.327 . S
C1763 C1779 1.429 . S
C1763 H1785 0.950 . S
C1764 H1760 0.949 . S
C1764 C1772 1.574 . S
C1764 C1780 1.368 . S
H1765 C1773 0.950 . S
H1766 C1771 0.950 . S
H1767 C1772 0.949 . S
H1768 C1774 0.950 . S
H1769 C1775 0.950 . S
H1770 C1776 0.949 . S
C1771 H1766 0.950 . S
C1771 C1773 1.327 . S
C1771 C1777 1.429 . S
C1772 C1764 1.574 . S
C1772 H1767 0.949 . S
C1772 C1778 1.368 . S
C1773 C1757 1.349 . S
C1773 H1765 0.950 . S
C1773 C1771 1.327 . S
C1774 C1762 1.349 . S
C1774 H1768 0.950 . S
C1774 C1775 1.327 . S
C1775 H1769 0.950 . S
C1775 C1774 1.327 . S
C1775 C1779 1.429 . S
C1776 C1759 1.574 . S
C1776 H1770 0.949 . S
C1776 C1780 1.368 . S
C1777 C1758 1.429 . S
C1777 C1771 1.429 . S
C1777 C1778 1.523 . S
C1778 C1759 1.368 . S
C1778 C1772 1.368 . S
C1778 C1777 1.523 . S
C1779 C1763 1.429 . S
C1779 C1775 1.429 . S
C1779 C1780 1.523 . S
C1780 C1764 1.368 . S
C1780 C1776 1.368 . S
C1780 C1779 1.523 . S
H1781 C1756 0.950 . S
H1782 C1758 0.950 . S
H1783 C1759 0.949 . S
H1784 C1761 0.950 . S
H1785 C1763 0.950 . S
C1786 C1787 1.349 . S
C1786 C1788 1.327 . S
C1786 H1811 0.950 . S
C1787 C1786 1.349 . S
C1787 C1803 1.349 . S
C1788 C1786 1.327 . S
C1788 C1807 1.429 . S
C1788 H1812 0.950 . S
C1789 C1806 1.574 . S
C1789 C1808 1.368 . S
C1789 H1813 0.949 . S
H1790 C1794 0.949 . S
C1791 C1792 1.349 . S
C1791 C1793 1.327 . S
C1791 H1814 0.950 . S
C1792 C1791 1.349 . S
C1792 C1804 1.349 . S
C1793 C1791 1.327 . S
C1793 C1809 1.429 . S
C1793 H1815 0.950 . S
C1794 H1790 0.949 . S
C1794 C1802 1.574 . S
C1794 C1810 1.368 . S
H1795 C1803 0.950 . S
H1796 C1801 0.950 . S
H1797 C1802 0.949 . S
H1798 C1804 0.950 . S
H1799 C1805 0.950 . S
H1800 C1806 0.949 . S
C1801 H1796 0.950 . S
C1801 C1803 1.327 . S
C1801 C1807 1.429 . S
C1802 C1794 1.574 . S
C1802 H1797 0.949 . S
C1802 C1808 1.368 . S
C1803 C1787 1.349 . S
C1803 H1795 0.950 . S
C1803 C1801 1.327 . S
C1804 C1792 1.349 . S
C1804 H1798 0.950 . S
C1804 C1805 1.327 . S
C1805 H1799 0.950 . S
C1805 C1804 1.327 . S
C1805 C1809 1.429 . S
C1806 C1789 1.574 . S
C1806 H1800 0.949 . S
C1806 C1810 1.368 . S
C1807 C1788 1.429 . S
C1807 C1801 1.429 . S
C1807 C1808 1.523 . S
C1808 C1789 1.368 . S
C1808 C1802 1.368 . S
C1808 C1807 1.523 . S
C1809 C1793 1.429 . S
C1809 C1805 1.429 . S
C1809 C1810 1.523 . S
C1810 C1794 1.368 . S
C1810 C1806 1.368 . S
C1810 C1809 1.523 . S
H1811 C1786 0.950 . S
H1812 C1788 0.950 . S
H1813 C1789 0.949 . S
H1814 C1791 0.950 . S
H1815 C1793 0.950 . S
C1816 C1817 1.349 . S
C1816 C1818 1.327 . S
C1816 H1841 0.950 . S
C1817 C1816 1.349 . S
C1817 C1833 1.349 . S
C1818 C1816 1.327 . S
C1818 C1837 1.429 . S
C1818 H1842 0.950 . S
C1819 C1836 1.574 . S
C1819 C1838 1.368 . S
C1819 H1843 0.949 . S
H1820 C1824 0.949 . S
C1821 C1822 1.349 . S
C1821 C1823 1.327 . S
C1821 H1844 0.950 . S
C1822 C1821 1.349 . S
C1822 C1834 1.349 . S
C1823 C1821 1.327 . S
C1823 C1839 1.429 . S
C1823 H1845 0.950 . S
C1824 H1820 0.949 . S
C1824 C1832 1.574 . S
C1824 C1840 1.368 . S
H1825 C1833 0.950 . S
H1826 C1831 0.950 . S
H1827 C1832 0.949 . S
H1828 C1834 0.950 . S
H1829 C1835 0.950 . S
H1830 C1836 0.949 . S
C1831 H1826 0.950 . S
C1831 C1833 1.327 . S
C1831 C1837 1.429 . S
C1832 C1824 1.574 . S
C1832 H1827 0.949 . S
C1832 C1838 1.368 . S
C1833 C1817 1.349 . S
C1833 H1825 0.950 . S
C1833 C1831 1.327 . S
C1834 C1822 1.349 . S
C1834 H1828 0.950 . S
C1834 C1835 1.327 . S
C1835 H1829 0.950 . S
C1835 C1834 1.327 . S
C1835 C1839 1.429 . S
C1836 C1819 1.574 . S
C1836 H1830 0.949 . S
C1836 C1840 1.368 . S
C1837 C1818 1.429 . S
C1837 C1831 1.429 . S
C1837 C1838 1.523 . S
C1838 C1819 1.368 . S
C1838 C1832 1.368 . S
C1838 C1837 1.523 . S
C1839 C1823 1.429 . S
C1839 C1835 1.429 . S
C1839 C1840 1.523 . S
C1840 C1824 1.368 . S
C1840 C1836 1.368 . S
C1840 C1839 1.523 . S
H1841 C1816 0.950 . S
H1842 C1818 0.950 . S
H1843 C1819 0.949 . S
H1844 C1821 0.950 . S
H1845 C1823 0.950 . S
C1846 C1847 1.349 . S
C1846 C1848 1.327 . S
C1846 H1871 0.950 . S
C1847 C1846 1.349 . S
C1847 C1863 1.349 . S
C1848 C1846 1.327 . S
C1848 C1867 1.429 . S
C1848 H1872 0.950 . S
C1849 C1866 1.574 . S
C1849 C1868 1.368 . S
C1849 H1873 0.949 . S
H1850 C1854 0.949 . S
C1851 C1852 1.349 . S
C1851 C1853 1.327 . S
C1851 H1874 0.950 . S
C1852 C1851 1.349 . S
C1852 C1864 1.349 . S
C1853 C1851 1.327 . S
C1853 C1869 1.429 . S
C1853 H1875 0.950 . S
C1854 H1850 0.949 . S
C1854 C1862 1.574 . S
C1854 C1870 1.368 . S
H1855 C1863 0.950 . S
H1856 C1861 0.950 . S
H1857 C1862 0.949 . S
H1858 C1864 0.950 . S
H1859 C1865 0.950 . S
H1860 C1866 0.949 . S
C1861 H1856 0.950 . S
C1861 C1863 1.327 . S
C1861 C1867 1.429 . S
C1862 C1854 1.574 . S
C1862 H1857 0.949 . S
C1862 C1868 1.368 . S
C1863 C1847 1.349 . S
C1863 H1855 0.950 . S
C1863 C1861 1.327 . S
C1864 C1852 1.349 . S
C1864 H1858 0.950 . S
C1864 C1865 1.327 . S
C1865 H1859 0.950 . S
C1865 C1864 1.327 . S
C1865 C1869 1.429 . S
C1866 C1849 1.574 . S
C1866 H1860 0.949 . S
C1866 C1870 1.368 . S
C1867 C1848 1.429 . S
C1867 C1861 1.429 . S
C1867 C1868 1.523 . S
C1868 C1849 1.368 . S
C1868 C1862 1.368 . S
C1868 C1867 1.523 . S
C1869 C1853 1.429 . S
C1869 C1865 1.429 . S
C1869 C1870 1.523 . S
C1870 C1854 1.368 . S
C1870 C1866 1.368 . S
C1870 C1869 1.523 . S
H1871 C1846 0.950 . S
H1872 C1848 0.950 . S
H1873 C1849 0.949 . S
H1874 C1851 0.950 . S
H1875 C1853 0.950 . S
C1876 C1877 1.349 . S
C1876 C1878 1.327 . S
C1876 H1901 0.950 . S
C1877 C1876 1.349 . S
C1877 C1893 1.349 . S
C1878 C1876 1.327 . S
C1878 C1897 1.429 . S
C1878 H1902 0.950 . S
C1879 C1896 1.574 . S
C1879 C1898 1.368 . S
C1879 H1903 0.949 . S
H1880 C1884 0.949 . S
C1881 C1882 1.349 . S
C1881 C1883 1.327 . S
C1881 H1904 0.950 . S
C1882 C1881 1.349 . S
C1882 C1894 1.349 . S
C1883 C1881 1.327 . S
C1883 C1899 1.429 . S
C1883 H1905 0.950 . S
C1884 H1880 0.949 . S
C1884 C1892 1.574 . S
C1884 C1900 1.368 . S
H1885 C1893 0.950 . S
H1886 C1891 0.950 . S
H1887 C1892 0.949 . S
H1888 C1894 0.950 . S
H1889 C1895 0.950 . S
H1890 C1896 0.949 . S
C1891 H1886 0.950 . S
C1891 C1893 1.327 . S
C1891 C1897 1.429 . S
C1892 C1884 1.574 . S
C1892 H1887 0.949 . S
C1892 C1898 1.368 . S
C1893 C1877 1.349 . S
C1893 H1885 0.950 . S
C1893 C1891 1.327 . S
C1894 C1882 1.349 . S
C1894 H1888 0.950 . S
C1894 C1895 1.327 . S
C1895 H1889 0.950 . S
C1895 C1894 1.327 . S
C1895 C1899 1.429 . S
C1896 C1879 1.574 . S
C1896 H1890 0.949 . S
C1896 C1900 1.368 . S
C1897 C1878 1.429 . S
C1897 C1891 1.429 . S
C1897 C1898 1.523 . S
C1898 C1879 1.368 . S
C1898 C1892 1.368 . S
C1898 C1897 1.523 . S
C1899 C1883 1.429 . S
C1899 C1895 1.429 . S
C1899 C1900 1.523 . S
C1900 C1884 1.368 . S
C1900 C1896 1.368 . S
C1900 C1899 1.523 . S
H1901 C1876 0.950 . S
H1902 C1878 0.950 . S
H1903 C1879 0.949 . S
H1904 C1881 0.950 . S
H1905 C1883 0.950 . S
C1906 C1907 1.349 . S
C1906 C1908 1.327 . S
C1906 H1931 0.950 . S
C1907 C1906 1.349 . S
C1907 C1923 1.349 . S
C1908 C1906 1.327 . S
C1908 C1927 1.429 . S
C1908 H1932 0.950 . S
C1909 C1926 1.574 . S
C1909 C1928 1.368 . S
C1909 H1933 0.949 . S
H1910 C1914 0.949 . S
C1911 C1912 1.349 . S
C1911 C1913 1.327 . S
C1911 H1934 0.950 . S
C1912 C1911 1.349 . S
C1912 C1924 1.349 . S
C1913 C1911 1.327 . S
C1913 C1929 1.429 . S
C1913 H1935 0.950 . S
C1914 H1910 0.949 . S
C1914 C1922 1.574 . S
C1914 C1930 1.368 . S
H1915 C1923 0.950 . S
H1916 C1921 0.950 . S
H1917 C1922 0.949 . S
H1918 C1924 0.950 . S
H1919 C1925 0.950 . S
H1920 C1926 0.949 . S
C1921 H1916 0.950 . S
C1921 C1923 1.327 . S
C1921 C1927 1.429 . S
C1922 C1914 1.574 . S
C1922 H1917 0.949 . S
C1922 C1928 1.368 . S
C1923 C1907 1.349 . S
C1923 H1915 0.950 . S
C1923 C1921 1.327 . S
C1924 C1912 1.349 . S
C1924 H1918 0.950 . S
C1924 C1925 1.327 . S
C1925 H1919 0.950 . S
C1925 C1924 1.327 . S
C1925 C1929 1.429 . S
C1926 C1909 1.574 . S
C1926 H1920 0.949 . S
C1926 C1930 1.368 . S
C1927 C1908 1.429 . S
C1927 C1921 1.429 . S
C1927 C1928 1.523 . S
C1928 C1909 1.368 . S
C1928 C1922 1.368 . S
C1928 C1927 1.523 . S
C1929 C1913 1.429 . S
C1929 C1925 1.429 . S
C1929 C1930 1.523 . S
C1930 C1914 1.368 . S
C1930 C1926 1.368 . S
C1930 C1929 1.523 . S
H1931 C1906 0.950 . S
H1932 C1908 0.950 . S
H1933 C1909 0.949 . S
H1934 C1911 0.950 . S
H1935 C1913 0.950 . S
C1936 C1937 1.349 . S
C1936 C1938 1.327 . S
C1936 H1961 0.950 . S
C1937 C1936 1.349 . S
C1937 C1953 1.349 . S
C1938 C1936 1.327 . S
C1938 C1957 1.429 . S
C1938 H1962 0.950 . S
C1939 C1956 1.574 . S
C1939 C1958 1.368 . S
C1939 H1963 0.949 . S
H1940 C1944 0.949 . S
C1941 C1942 1.349 . S
C1941 C1943 1.327 . S
C1941 H1964 0.950 . S
C1942 C1941 1.349 . S
C1942 C1954 1.349 . S
C1943 C1941 1.327 . S
C1943 C1959 1.429 . S
C1943 H1965 0.950 . S
C1944 H1940 0.949 . S
C1944 C1952 1.574 . S
C1944 C1960 1.368 . S
H1945 C1953 0.950 . S
H1946 C1951 0.950 . S
H1947 C1952 0.949 . S
H1948 C1954 0.950 . S
H1949 C1955 0.950 . S
H1950 C1956 0.949 . S
C1951 H1946 0.950 . S
C1951 C1953 1.327 . S
C1951 C1957 1.429 . S
C1952 C1944 1.574 . S
C1952 H1947 0.949 . S
C1952 C1958 1.368 . S
C1953 C1937 1.349 . S
C1953 H1945 0.950 . S
C1953 C1951 1.327 . S
C1954 C1942 1.349 . S
C1954 H1948 0.950 . S
C1954 C1955 1.327 . S
C1955 H1949 0.950 . S
C1955 C1954 1.327 . S
C1955 C1959 1.429 . S
C1956 C1939 1.574 . S
C1956 H1950 0.949 . S
C1956 C1960 1.368 . S
C1957 C1938 1.429 . S
C1957 C1951 1.429 . S
C1957 C1958 1.523 . S
C1958 C1939 1.368 . S
C1958 C1952 1.368 . S
C1958 C1957 1.523 . S
C1959 C1943 1.429 . S
C1959 C1955 1.429 . S
C1959 C1960 1.523 . S
C1960 C1944 1.368 . S
C1960 C1956 1.368 . S
C1960 C1959 1.523 . S
H1961 C1936 0.950 . S
H1962 C1938 0.950 . S
H1963 C1939 0.949 . S
H1964 C1941 0.950 . S
H1965 C1943 0.950 . S
C1966 C1967 1.349 . S
C1966 C1968 1.327 . S
C1966 H1991 0.950 . S
C1967 C1966 1.349 . S
C1967 C1983 1.349 . S
C1968 C1966 1.327 . S
C1968 C1987 1.429 . S
C1968 H1992 0.950 . S
C1969 C1986 1.574 . S
C1969 C1988 1.368 . S
C1969 H1993 0.949 . S
H1970 C1974 0.949 . S
C1971 C1972 1.349 . S
C1971 C1973 1.327 . S
C1971 H1994 0.950 . S
C1972 C1971 1.349 . S
C1972 C1984 1.349 . S
C1973 C1971 1.327 . S
C1973 C1989 1.429 . S
C1973 H1995 0.950 . S
C1974 H1970 0.949 . S
C1974 C1982 1.574 . S
C1974 C1990 1.368 . S
H1975 C1983 0.950 . S
H1976 C1981 0.950 . S
H1977 C1982 0.949 . S
H1978 C1984 0.950 . S
H1979 C1985 0.950 . S
H1980 C1986 0.949 . S
C1981 H1976 0.950 . S
C1981 C1983 1.327 . S
C1981 C1987 1.429 . S
C1982 C1974 1.574 . S
C1982 H1977 0.949 . S
C1982 C1988 1.368 . S
C1983 C1967 1.349 . S
C1983 H1975 0.950 . S
C1983 C1981 1.327 . S
C1984 C1972 1.349 . S
C1984 H1978 0.950 . S
C1984 C1985 1.327 . S
C1985 H1979 0.950 . S
C1985 C1984 1.327 . S
C1985 C1989 1.429 . S
C1986 C1969 1.574 . S
C1986 H1980 0.949 . S
C1986 C1990 1.368 . S
C1987 C1968 1.429 . S
C1987 C1981 1.429 . S
C1987 C1988 1.523 . S
C1988 C1969 1.368 . S
C1988 C1982 1.368 . S
C1988 C1987 1.523 . S
C1989 C1973 1.429 . S
C1989 C1985 1.429 . S
C1989 C1990 1.523 . S
C1990 C1974 1.368 . S
C1990 C1986 1.368 . S
C1990 C1989 1.523 . S
H1991 C1966 0.950 . S
H1992 C1968 0.950 . S
H1993 C1969 0.949 . S
H1994 C1971 0.950 . S
H1995 C1973 0.950 . S
C1042 C972 1.921 . S
C1037 C11 1.318 . S
C1067 C143 1.416 . S
C1072 C975 1.772 . S
C1097 C283 1.363 . S
C1102 C1006 1.873 . S
C1132 C941 1.723 . S
C1127 C343 1.456 . S
C1162 C976 1.980 . S
C1157 C55 1.472 . S
C1192 C1007 1.704 . S
C1187 C115 1.441 . S
C1222 C932 1.813 . S
C1217 C239 1.225 . S
C1252 C963 1.791 . S
C1247 C371 1.433 . S
C1277 C29 0.891 . S
C1282 C993 0.971 . S
C1307 C467 0.731 . S
C1312 C962 1.080 . S
C1337 C229 0.768 . S
C1342 C922 0.855 . S
C1372 C1015 1.130 . S
C1367 C625 0.907 . S
C1402 C943 0.914 . S
C1397 C1 0.800 . S
C1427 C511 0.899 . S
C1432 C942 1.117 . S
C1457 C257 0.837 . S
C1462 C1035 0.920 . S
C1492 C974 1.093 . S
C1487 C581 0.709 1_545 S
C1517 C713 1.500 . S
C1522 C1034 1.851 . S
C1547 C485 1.410 . S
C1552 C913 1.765 . S
C1577 C799 1.375 . S
C1582 C944 1.645 . S
C1607 C571 1.442 . S
C1612 C1003 1.704 . S
C1642 C914 1.749 . S
C1637 C685 1.474 . S
C1667 C457 1.437 . S
C1672 C945 1.697 . S
C1697 C827 1.392 . S
C1702 C994 1.748 . S
C1732 C1025 1.773 . S
C1727 C599 1.416 . S
C1757 C695 0.715 . S
C1762 C931 1.114 . S
C1787 C125 0.712 . S
C1792 C1024 1.104 . S
C1817 C853 0.904 . S
C1822 C984 1.123 . S
C1852 C953 1.158 . S
C1847 C397 0.925 . S
C1882 C1005 1.153 . S
C1877 C739 0.952 . S
C1912 C1004 1.142 . S
C1907 C169 0.914 . S
C1942 C973 1.076 . S
C1937 C809 0.696 . S
C1972 C912 1.120 . S
C1967 C353 0.714 . S
