# Generated by pormake.
# Topology rtl, (3,6)-cn, num edge types: 1
# Building blocks:
#     Node 0, Type 0, BuildingBlock: BETDAH_clean_linker_0, # of connection points: 3
#     Node 1, Type 0, BuildingBlock: BETDAH_clean_linker_0, # of connection points: 3
#     Node 2, Type 0, BuildingBlock: BETDAH_clean_linker_0, # of connection points: 3
#     Node 3, Type 0, BuildingBlock: BETDAH_clean_linker_0, # of connection points: 3
#     Node 4, Type 1, BuildingBlock: KUMBUR_clean_sbu_1, # of connection points: 6
#     Node 5, Type 1, BuildingBlock: KUMBUR_clean_sbu_1, # of connection points: 6
#     Edge 6, Type (0, 1), BuildingBlock: AJUNOK_clean_linker_0, # of connection points: 2
#     Edge 7, Type (0, 1), BuildingBlock: AJUNOK_clean_linker_0, # of connection points: 2
#     Edge 8, Type (0, 1), BuildingBlock: AJUNOK_clean_linker_0, # of connection points: 2
#     Edge 9, Type (0, 1), BuildingBlock: AJUNOK_clean_linker_0, # of connection points: 2
#     Edge 10, Type (0, 1), BuildingBlock: AJUNOK_clean_linker_0, # of connection points: 2
#     Edge 11, Type (0, 1), BuildingBlock: AJUNOK_clean_linker_0, # of connection points: 2
#     Edge 12, Type (0, 1), BuildingBlock: AJUNOK_clean_linker_0, # of connection points: 2
#     Edge 13, Type (0, 1), BuildingBlock: AJUNOK_clean_linker_0, # of connection points: 2
#     Edge 14, Type (0, 1), BuildingBlock: AJUNOK_clean_linker_0, # of connection points: 2
#     Edge 15, Type (0, 1), BuildingBlock: AJUNOK_clean_linker_0, # of connection points: 2
#     Edge 16, Type (0, 1), BuildingBlock: AJUNOK_clean_linker_0, # of connection points: 2
#     Edge 17, Type (0, 1), BuildingBlock: AJUNOK_clean_linker_0, # of connection points: 2
# Relax obj value: 0.051
# Max RMSD: 0.238
# Mean RMSD: 0.168
data_MOF--net-rtl--node1-KUMBUR_clean_sbu_1--node2-BETDAH_clean_linker_0--edge1-AJUNOK_clean_linker_0
_symmetry_space_group_name_H-M    P1
_symmetry_Int_Tables_number       1
_symmetry_cell_setting            triclinic
loop_
_symmetry_equiv_pos_as_xyz
'x, y, z'
_cell_length_a     26.136935
_cell_length_b     26.426062
_cell_length_c     20.477196
_cell_angle_alpha  75.07306
_cell_angle_beta   100.44166
_cell_angle_gamma 92.288871
loop_
_atom_site_label
_atom_site_type_symbol
_atom_site_fract_x
_atom_site_fract_y
_atom_site_fract_z
_atom_type_partial_charge
H0 H 0.14869 0.90808 0.02789 0.0
H1 H 0.29342 0.83158 0.13765 0.0
H2 H 0.25788 0.86428 0.91799 0.0
C3 C 0.18475 0.8889 0.02862 0.0
C4 C 0.19848 0.88664 0.9662 0.0
C5 C 0.21834 0.86846 0.09136 0.0
C6 C 0.26625 0.84622 0.09026 0.0
C7 C 0.28029 0.84417 0.02806 0.0
C8 C 0.24623 0.86419 0.96622 0.0
N9 N 0.3319 0.83058 0.02684 0.0
C10 C 0.34728 0.78006 0.03029 0.0
H11 H 0.64183 0.61053 0.68245 0.0
H12 H 0.73696 0.74015 0.59963 0.0
H13 H 0.68041 0.73265 0.78635 0.0
C14 C 0.66113 0.6472 0.68517 0.0
C15 C 0.65782 0.66843 0.74056 0.0
C16 C 0.68939 0.67274 0.63362 0.0
C17 C 0.71557 0.7197 0.63911 0.0
C18 C 0.71243 0.74125 0.69441 0.0
C19 C 0.68274 0.71593 0.74384 0.0
N20 N 0.73705 0.78902 0.7015 0.0
C21 C 0.78017 0.81109 0.6736 0.0
H22 H 0.90504 0.12386 0.12852 0.0
H23 H 0.80278 0.16435 0.24974 0.0
H24 H 0.76235 0.2097 0.03015 0.0
C25 C 0.87012 0.14345 0.13124 0.0
C26 C 0.83531 0.16679 0.07056 0.0
C27 C 0.85889 0.14346 0.19578 0.0
C28 C 0.81261 0.16628 0.19991 0.0
C29 C 0.7781 0.19049 0.14053 0.0
C30 C 0.78975 0.1915 0.07587 0.0
N31 N 0.72861 0.20614 0.14751 0.0
C32 C 0.7096 0.25718 0.124 0.0
H33 H 0.40294 0.41755 0.44904 0.0
H34 H 0.29656 0.29969 0.53104 0.0
H35 H 0.33807 0.30814 0.33406 0.0
C36 C 0.37776 0.38463 0.44387 0.0
C37 C 0.37354 0.36604 0.38503 0.0
C38 C 0.35059 0.3607 0.49679 0.0
C39 C 0.31758 0.31812 0.49021 0.0
C40 C 0.31319 0.29889 0.43124 0.0
C41 C 0.34156 0.32286 0.37944 0.0
N42 N 0.28192 0.25512 0.42179 0.0
C43 C 0.2461 0.22919 0.46155 0.0
Tb44 Tb 0.05626 0.95789 0.54976 0.0
C45 C 0.92794 0.15665 0.50138 0.0
N46 N 0.97582 0.14691 0.5414 0.0
C47 C 1.00406 0.2324 0.48737 0.0
C48 C 0.91652 0.2045 0.45159 0.0
C49 C 1.01364 0.18414 0.53583 0.0
C50 C 0.95539 0.24256 0.44484 0.0
C51 C 0.84076 0.126 0.46921 0.0
C52 C 0.89096 0.11749 0.50946 0.0
C53 C 0.82933 0.17326 0.41854 0.0
C54 C 0.86713 0.21241 0.40973 0.0
Tb55 Tb 0.9884 0.06589 0.61593 0.0
N56 N 0.90382 0.07186 0.55831 0.0
C57 C 0.80318 0.08736 0.48244 0.0
C58 C 0.86563 0.03687 0.57604 0.0
C59 C 0.81537 0.04318 0.53719 0.0
H60 H 0.05114 0.17675 0.56899 0.0
H61 H 0.78574 0.01449 0.55051 0.0
H62 H 0.98142 0.85273 0.56395 0.0
H63 H 0.25433 0.98739 0.66861 0.0
H64 H 0.87273 1.00492 0.62142 0.0
H65 H 0.76411 0.09235 0.45279 0.0
H66 H 0.17315 0.01228 0.58677 0.0
H67 H 0.03425 0.2617 0.4828 0.0
H68 H 0.79114 0.18023 0.38659 0.0
H69 H 0.85769 0.24875 0.3707 0.0
H70 H 0.98639 0.76115 0.63377 0.0
H71 H 0.94822 0.27986 0.40708 0.0
H72 H 0.26547 0.89807 0.74568 0.0
N73 N 0.05733 0.87185 0.6085 0.0
C74 C 0.10186 0.85427 0.65327 0.0
C75 C 0.01908 0.787 0.63992 0.0
C76 C 0.10651 0.80226 0.69395 0.0
C77 C 0.01622 0.83905 0.60088 0.0
C78 C 0.06436 0.76854 0.68679 0.0
N79 N 0.1357 0.93954 0.62042 0.0
C80 C 0.17601 0.97398 0.62153 0.0
C81 C 0.18892 0.87287 0.70621 0.0
C82 C 0.14239 0.88925 0.65959 0.0
C83 C 0.22914 0.90904 0.71035 0.0
C84 C 0.22286 0.95959 0.66722 0.0
H85 H 0.06636 0.72826 0.71714 0.0
H86 H 0.15695 0.74608 0.7728 0.0
H87 H 0.22913 0.80785 0.78343 0.0
O88 O 0.09882 0.97566 0.46865 0.0
O89 O 0.05815 0.94616 0.66069 0.0
O90 O 0.06001 0.02834 0.67983 0.0
O91 O 0.05374 0.90562 0.48684 0.0
O92 O 0.08539 0.039 0.52683 0.0
O93 O 0.07141 0.07876 0.61134 0.0
O94 O 0.95124 0.05543 0.70175 0.0
O95 O 0.99043 0.07851 0.50555 0.0
O96 O 0.9849 0.99638 0.48697 0.0
O97 O 0.99467 0.12477 0.66961 0.0
O98 O 0.96334 0.98319 0.64244 0.0
O99 O 0.97278 0.94885 0.55195 0.0
C100 C 0.07126 0.97811 0.7005 0.0
C101 C 0.12882 0.9032 0.43817 0.0
C102 C 0.17635 0.87798 0.35863 0.0
C103 C 0.21164 0.84947 0.41508 0.0
C104 C 0.16439 0.87408 0.49344 0.0
C105 C 0.2055 0.84744 0.48195 0.0
C106 C 0.13475 0.90484 0.37056 0.0
C107 C 0.09443 0.0763 0.55989 0.0
C108 C 0.08607 0.93255 0.45036 0.0
C109 C 0.15268 0.78586 0.74088 0.0
C110 C 0.19377 0.82107 0.747 0.0
C111 C 0.97673 0.04708 0.46519 0.0
C112 C 0.92317 0.13267 0.72298 0.0
C113 C 0.87508 0.15954 0.80091 0.0
C114 C 0.8429 0.19122 0.74368 0.0
C115 C 0.89046 0.1647 0.66692 0.0
C116 C 0.91562 0.13052 0.7902 0.0
C117 C 0.85066 0.19377 0.67728 0.0
C118 C 0.95112 0.94876 0.60532 0.0
C119 C 0.96471 0.10102 0.71193 0.0
H120 H 0.24377 0.82829 0.40741 0.0
H121 H 0.16058 0.8719 0.54546 0.0
H122 H 0.23275 0.82514 0.52507 0.0
H123 H 0.10761 0.92753 0.32749 0.0
H124 H 0.81192 0.21441 0.75041 0.0
H125 H 0.89567 0.16747 0.61514 0.0
H126 H 0.94063 0.1058 0.83388 0.0
H127 H 0.82572 0.21843 0.6336 0.0
Tb128 Tb 0.46674 0.4855 1.01107 0.0
C129 C 0.64899 0.62723 0.04428 0.0
N130 N 0.64758 0.57605 0.07839 0.0
C131 C 0.72814 0.56037 0.04629 0.0
C132 C 0.68852 0.64661 1.00627 0.0
C133 C 0.68771 0.54299 0.08292 0.0
C134 C 0.72801 0.61217 1.00668 0.0
C135 C 0.61195 0.71405 0.01738 0.0
C136 C 0.6111 0.66009 0.04936 0.0
C137 C 0.64952 0.73346 0.97612 0.0
C138 C 0.68776 0.69974 0.97051 0.0
Tb139 Tb 0.57717 0.55005 0.13027 0.0
N140 N 0.57586 0.63963 0.09005 0.0
C141 C 0.57639 0.74695 0.03017 0.0
C142 C 0.545 0.67229 0.10835 0.0
C143 C 0.54361 0.72612 0.07719 0.0
H144 H 0.68741 0.50281 0.11283 0.0
H145 H 0.51767 0.75152 0.09005 0.0
H146 H 0.36772 0.57281 0.9692 0.0
H147 H 0.4647 0.27743 0.12059 0.0
H148 H 0.52125 0.65696 0.14692 0.0
H149 H 0.57562 0.78869 1.00658 0.0
H150 H 0.49797 0.36061 0.05494 0.0
H151 H 0.75908 0.53375 0.04814 0.0
H152 H 0.65035 0.77469 0.95018 0.0
H153 H 0.71731 0.71539 0.94 0.0
H154 H 0.28671 0.58174 1.01038 0.0
H155 H 0.75913 0.62543 0.978 0.0
H156 H 0.38623 0.27817 0.17244 0.0
N157 N 0.38717 0.49771 0.03788 0.0
C158 C 0.36815 0.45521 0.07945 0.0
C159 C 0.30979 0.54625 0.0314 0.0
C160 C 0.32064 0.45756 0.10201 0.0
C161 C 0.35664 0.5415 1.00949 0.0
C162 C 0.2923 0.50451 0.0792 0.0
N163 N 0.43944 0.40732 0.07107 0.0
C164 C 0.4637 0.36102 0.07747 0.0
C165 C 0.37442 0.36197 0.1335 0.0
C166 C 0.39449 0.40807 0.09513 0.0
C167 C 0.40047 0.31456 0.1434 0.0
C168 C 0.44485 0.31399 0.11429 0.0
H169 H 0.25564 0.50802 0.09535 0.0
H170 H 0.26593 0.41366 0.1627 0.0
H171 H 0.3131 0.32984 0.19026 0.0
O172 O 0.4831 0.45609 0.93052 0.0
O173 O 0.49276 0.45032 0.12162 0.0
O174 O 0.50677 0.51936 0.17009 0.0
O175 O 0.40488 0.47344 0.9356 0.0
O176 O 0.54496 0.45107 0.02951 0.0
O177 O 0.59302 0.46863 0.1296 0.0
O178 O 0.61348 0.58648 0.20861 0.0
O179 O 0.58513 0.54452 0.02703 0.0
O180 O 0.50407 0.55718 0.96028 0.0
O181 O 0.61888 0.50254 0.22116 0.0
O182 O 0.49563 0.57608 0.11373 0.0
O183 O 0.45971 0.56959 1.00449 0.0
C184 C 0.4882 0.47243 0.17071 0.0
C185 C 0.42408 0.48186 0.82589 0.0
C186 C 0.3966 0.47148 0.7097 0.0
C187 C 0.39685 0.5262 0.68428 0.0
C188 C 0.42477 0.53638 0.79967 0.0
C189 C 0.41122 0.55836 0.72906 0.0
C190 C 0.41045 0.4495 0.78078 0.0
C191 C 0.58423 0.44176 0.08209 0.0
C192 C 0.4348 0.45819 0.90021 0.0
C193 C 0.30196 0.41243 0.144 0.0
C194 C 0.32871 0.36465 0.15952 0.0
C195 C 0.55456 0.56489 0.96847 0.0
C196 C 0.66454 0.53448 0.31674 0.0
C197 C 0.69542 0.56156 0.42309 0.0
C198 C 0.72823 0.51728 0.44675 0.0
C199 C 0.69794 0.49077 0.34195 0.0
C200 C 0.66326 0.56994 0.3577 0.0
C201 C 0.72952 0.48237 0.40639 0.0
C202 C 0.46358 0.59288 0.05491 0.0
C203 C 0.63145 0.54176 0.24805 0.0
H204 H 0.38658 0.54397 0.62968 0.0
H205 H 0.43511 0.56184 0.83383 0.0
H206 H 0.41161 0.60046 0.70899 0.0
H207 H 0.40971 0.40735 0.80103 0.0
H208 H 0.75238 0.50912 0.49726 0.0
H209 H 0.6998 0.463 0.31165 0.0
H210 H 0.63741 0.60364 0.33905 0.0
H211 H 0.75492 0.4484 0.42535 0.0
C212 C 0.20435 0.17635 0.55771 0.0
C213 C 0.2053 0.19493 0.4871 0.0
C214 C 0.16731 0.13897 0.58143 0.0
C215 C 0.13099 0.11843 0.53521 0.0
H216 H 0.2329 0.18992 0.59472 0.0
H217 H 0.16822 0.12479 0.63621 0.0
S218 S 0.11551 0.1578 0.34519 0.0
N219 N 0.16517 0.19265 0.37145 0.0
N220 N 0.09655 0.12232 0.41553 0.0
C221 C 0.13103 0.13801 0.46455 0.0
C222 C 0.168 0.17628 0.44064 0.0
C223 C 0.38374 0.69358 0.09724 0.0
C224 C 0.37105 0.73065 0.03388 0.0
C225 C 0.41257 0.64835 0.10325 0.0
C226 C 0.42982 0.63889 0.0461 0.0
H227 H 0.37249 0.7002 0.14278 0.0
H228 H 0.4222 0.62103 0.15327 0.0
S229 S 0.40571 0.72438 0.86863 0.0
N230 N 0.37674 0.75513 0.91286 0.0
N231 N 0.431 0.67032 0.92384 0.0
C232 C 0.41607 0.67527 0.9821 0.0
C233 C 0.38677 0.72125 0.97612 0.0
C234 C 0.83393 0.85896 0.58862 0.0
C235 C 0.82608 0.84079 0.65683 0.0
C236 C 0.87567 0.89249 0.57234 0.0
C237 C 0.9103 0.90944 0.6237 0.0
H238 H 0.80704 0.84826 0.54754 0.0
H239 H 0.87972 0.90672 0.51898 0.0
S240 S 0.90779 0.86963 0.81058 0.0
N241 N 0.85736 0.83966 0.77614 0.0
N242 N 0.93525 0.90263 0.74595 0.0
C243 C 0.90337 0.89011 0.69222 0.0
C244 C 0.86135 0.85579 0.70865 0.0
C245 C 0.68239 0.33071 0.16324 0.0
C246 C 0.68329 0.30699 0.10954 0.0
C247 C 0.65145 0.3752 0.15333 0.0
C248 C 0.61984 0.39722 0.08943 0.0
H249 H 0.70458 0.31386 0.21388 0.0
H250 H 0.65112 0.3913 0.19684 0.0
S251 S 0.61213 0.35094 0.93107 0.0
N252 N 0.65278 0.30943 0.9898 0.0
N253 N 0.59463 0.39312 0.97021 0.0
C254 C 0.62203 0.37451 0.03463 0.0
C255 C 0.65375 0.32931 0.04495 0.0
C256 C 0.24332 0.89006 0.20541 0.0
C257 C 0.20525 0.87309 0.15767 0.0
C258 C 0.23305 0.89293 0.26925 0.0
C259 C 0.18414 0.8794 0.28796 0.0
H260 H 0.28157 0.90114 0.19348 0.0
H261 H 0.26386 0.90548 0.30462 0.0
S262 S 0.07109 0.83201 0.18257 0.0
N263 N 0.11658 0.84205 0.13425 0.0
N264 N 0.09719 0.84837 0.25394 0.0
C265 C 0.14531 0.86343 0.24042 0.0
C266 C 0.15586 0.86008 0.17543 0.0
C267 C 0.58799 0.66449 0.81184 0.0
C268 C 0.62983 0.64034 0.79647 0.0
C269 C 0.56236 0.63908 0.8661 0.0
C270 C 0.5786 0.58927 0.90781 0.0
H271 H 0.57509 0.70333 0.78175 0.0
H272 H 0.53078 0.65919 0.87684 0.0
S273 S 0.68598 0.5094 0.88936 0.0
N274 N 0.6858 0.56357 0.82717 0.0
N275 N 0.63849 0.51647 0.92968 0.0
C276 C 0.62021 0.56475 0.8929 0.0
C277 C 0.6456 0.5901 0.83708 0.0
C278 C 0.9279 0.14627 0.29636 0.0
C279 C 0.89329 0.11689 0.2601 0.0
C280 C 0.95592 0.12293 0.36183 0.0
C281 C 0.94959 0.06963 0.39383 0.0
H282 H 0.93245 0.18779 0.27455 0.0
H283 H 0.9822 0.14708 0.38792 0.0
S284 S 0.863 0.97624 0.31925 0.0
N285 N 0.85434 0.03219 0.25951 0.0
N286 N 0.90616 0.98817 0.38304 0.0
C287 C 0.91568 0.03971 0.35716 0.0
C288 C 0.88754 0.06347 0.29028 0.0
C289 C 0.32252 0.41639 0.56582 0.0
C290 C 0.35855 0.38097 0.55876 0.0
C291 C 0.33445 0.4445 0.61625 0.0
C292 C 0.38258 0.43766 0.66154 0.0
H293 H 0.28601 0.42422 0.53007 0.0
H294 H 0.3064 0.4727 0.61883 0.0
S295 S 0.48949 0.34867 0.66449 0.0
N296 N 0.44367 0.33995 0.60133 0.0
N297 N 0.46579 0.39199 0.69685 0.0
C298 C 0.41805 0.40092 0.65643 0.0
C299 C 0.40612 0.37282 0.60473 0.0
C300 C 0.64533 0.63211 0.53955 0.0
C301 C 0.69132 0.64968 0.57465 0.0
C302 C 0.64651 0.60636 0.48765 0.0
C303 C 0.69378 0.59673 0.46919 0.0
H304 H 0.60813 0.6375 0.55318 0.0
H305 H 0.61041 0.59184 0.46397 0.0
S306 S 0.82477 0.63748 0.54185 0.0
N307 N 0.78524 0.65741 0.58473 0.0
N308 N 0.78735 0.60976 0.48693 0.0
C309 C 0.73977 0.61591 0.5019 0.0
C310 C 0.73857 0.64222 0.55455 0.0
C311 C 0.89513 0.17364 0.98463 0.0
C312 C 0.84537 0.16298 1.00233 0.0
C313 C 0.90508 0.17084 0.92032 0.0
C314 C 0.86563 0.15745 0.87118 0.0
H315 H 0.92638 0.18528 0.02024 0.0
H316 H 0.94351 0.18067 0.90822 0.0
S317 S 0.73067 0.11967 0.89458 0.0
N318 N 0.75768 0.13367 0.96716 0.0
N319 N 0.77618 0.12953 0.84638 0.0
C320 C 0.81629 0.14513 0.88893 0.0
C321 C 0.80621 0.14765 0.95435 0.0
C322 C 0.39652 0.44624 0.29952 0.0
C323 C 0.4028 0.39211 0.32978 0.0
C324 C 0.42489 0.47213 0.24874 0.0
C325 C 0.46055 0.44479 0.22648 0.0
H326 H 0.36915 0.46864 0.31493 0.0
H327 H 0.41819 0.51364 0.22584 0.0
S328 S 0.4954 0.30408 0.29457 0.0
N329 N 0.44966 0.31283 0.33679 0.0
N330 N 0.50351 0.36164 0.24204 0.0
C331 C 0.46805 0.39098 0.25732 0.0
C332 C 0.43896 0.36457 0.30871 0.0
C333 C 0.13125 0.87999 0.86529 0.0
C334 C 0.16465 0.91101 0.9003 0.0
C335 C 0.10022 0.90234 0.80153 0.0
C336 C 0.10212 0.95639 0.77003 0.0
H337 H 0.12927 0.83817 0.88724 0.0
H338 H 0.07476 0.87692 0.77659 0.0
S339 S 0.18453 0.05391 0.84157 0.0
N340 N 0.19813 0.99791 0.90016 0.0
N341 N 0.14084 0.0401 0.77959 0.0
C342 C 0.13531 0.98777 0.8052 0.0
C343 C 0.16649 0.96497 0.8704 0.0
loop_
_geom_bond_atom_site_label_1
_geom_bond_atom_site_label_2
_geom_bond_distance
_geom_bond_site_symmetry_2
_ccdc_geom_bond_type
H0 C3 0.929 . S
H1 C6 0.929 . S
H2 C8 0.930 . S
C3 H0 0.929 . S
C3 C4 1.398 1_554 S
C3 C5 1.396 . S
C4 C3 1.398 1_556 S
C4 C8 1.407 . S
C5 C3 1.396 . S
C5 C6 1.394 . S
C6 H1 0.929 . S
C6 C5 1.394 . S
C6 C7 1.382 . S
C7 C6 1.382 . S
C7 C8 1.392 1_554 S
C7 N9 1.420 . S
C8 H2 0.930 . S
C8 C4 1.407 . S
C8 C7 1.392 1_556 S
N9 C7 1.420 . S
N9 C10 1.244 . S
C10 N9 1.244 . S
H11 C14 0.929 . S
H12 C17 0.929 . S
H13 C19 0.930 . S
C14 H11 0.929 . S
C14 C15 1.398 . S
C14 C16 1.396 . S
C15 C14 1.398 . S
C15 C19 1.407 . S
C16 C14 1.396 . S
C16 C17 1.394 . S
C17 H12 0.929 . S
C17 C16 1.394 . S
C17 C18 1.382 . S
C18 C17 1.382 . S
C18 C19 1.392 . S
C18 N20 1.420 . S
C19 H13 0.930 . S
C19 C15 1.407 . S
C19 C18 1.392 . S
N20 C18 1.420 . S
N20 C21 1.244 . S
C21 N20 1.244 . S
H22 C25 0.929 . S
H23 C28 0.929 . S
H24 C30 0.930 1_556 S
C25 H22 0.929 . S
C25 C26 1.398 . S
C25 C27 1.396 . S
C26 C25 1.398 . S
C26 C30 1.407 . S
C27 C25 1.396 . S
C27 C28 1.394 . S
C28 H23 0.929 . S
C28 C27 1.394 . S
C28 C29 1.382 . S
C29 C28 1.382 . S
C29 C30 1.392 . S
C29 N31 1.420 . S
C30 H24 0.930 1_554 S
C30 C26 1.407 . S
C30 C29 1.392 . S
N31 C29 1.420 . S
N31 C32 1.244 . S
C32 N31 1.244 . S
H33 C36 0.929 . S
H34 C39 0.929 . S
H35 C41 0.930 . S
C36 H33 0.929 . S
C36 C37 1.398 . S
C36 C38 1.396 . S
C37 C36 1.398 . S
C37 C41 1.407 . S
C38 C36 1.396 . S
C38 C39 1.394 . S
C39 H34 0.929 . S
C39 C38 1.394 . S
C39 C40 1.382 . S
C40 C39 1.382 . S
C40 C41 1.392 . S
C40 N42 1.420 . S
C41 H35 0.930 . S
C41 C37 1.407 . S
C41 C40 1.392 . S
N42 C40 1.420 . S
N42 C43 1.244 . S
C43 N42 1.244 . S
Tb44 N73 2.617 . S
Tb44 N79 2.572 . S
Tb44 O88 2.465 . S
Tb44 O89 2.387 . S
Tb44 O91 2.428 . S
Tb44 O92 2.308 1_565 S
Tb44 O96 2.349 1_465 S
Tb44 O99 2.393 1_455 S
Tb44 C108 2.802 . S
C45 N46 1.379 . S
C45 C48 1.416 . S
C45 C52 1.424 . S
N46 C45 1.379 . S
N46 C49 1.334 1_655 S
N46 Tb55 2.617 . S
C47 C49 1.390 . S
C47 C50 1.339 1_455 S
C47 H67 0.930 . S
C48 C45 1.416 . S
C48 C50 1.416 . S
C48 C54 1.448 . S
C49 N46 1.334 1_455 S
C49 C47 1.390 . S
C49 H60 0.930 . S
C50 C47 1.339 1_655 S
C50 C48 1.416 . S
C50 H71 0.930 . S
C51 C52 1.413 . S
C51 C53 1.427 . S
C51 C57 1.416 . S
C52 C45 1.424 . S
C52 C51 1.413 . S
C52 N56 1.361 . S
C53 C51 1.427 . S
C53 C54 1.328 . S
C53 H68 0.929 . S
C54 C48 1.448 . S
C54 C53 1.328 . S
C54 H69 0.930 . S
Tb55 N46 2.617 . S
Tb55 N56 2.572 . S
Tb55 O90 2.349 1_655 S
Tb55 O93 2.393 1_655 S
Tb55 O94 2.465 . S
Tb55 O95 2.387 . S
Tb55 O97 2.428 . S
Tb55 O98 2.308 1_545 S
Tb55 C119 2.802 . S
N56 C52 1.361 . S
N56 Tb55 2.572 . S
N56 C58 1.340 . S
C57 C51 1.416 . S
C57 C59 1.332 . S
C57 H65 0.931 . S
C58 N56 1.340 . S
C58 C59 1.407 . S
C58 H64 0.930 . S
C59 C57 1.332 . S
C59 C58 1.407 . S
C59 H61 0.929 . S
H60 C49 0.930 . S
H61 C59 0.929 . S
H62 C77 0.930 1_655 S
H63 C84 0.929 . S
H64 C58 0.930 . S
H65 C57 0.931 . S
H66 C80 0.930 . S
H67 C47 0.930 . S
H68 C53 0.929 . S
H69 C54 0.930 . S
H70 C75 0.930 1_655 S
H71 C50 0.930 . S
H72 C83 0.931 . S
N73 Tb44 2.617 . S
N73 C74 1.379 . S
N73 C77 1.334 . S
C74 N73 1.379 . S
C74 C76 1.416 . S
C74 C82 1.424 . S
C75 H70 0.930 1_455 S
C75 C77 1.390 . S
C75 C78 1.339 . S
C76 C74 1.416 . S
C76 C78 1.416 . S
C76 C109 1.448 . S
C77 H62 0.930 1_455 S
C77 N73 1.334 . S
C77 C75 1.390 . S
C78 C75 1.339 . S
C78 C76 1.416 . S
C78 H85 0.930 . S
N79 Tb44 2.572 . S
N79 C80 1.340 . S
N79 C82 1.361 . S
C80 H66 0.930 . S
C80 N79 1.340 . S
C80 C84 1.407 . S
C81 C82 1.413 . S
C81 C83 1.416 . S
C81 C110 1.427 . S
C82 C74 1.424 . S
C82 N79 1.361 . S
C82 C81 1.413 . S
C83 H72 0.931 . S
C83 C81 1.416 . S
C83 C84 1.332 . S
C84 H63 0.929 . S
C84 C80 1.407 . S
C84 C83 1.332 . S
H85 C78 0.930 . S
H86 C109 0.930 . S
H87 C110 0.929 . S
O88 Tb44 2.465 . S
O88 C108 1.264 . S
O89 Tb44 2.387 . S
O89 C100 1.264 . S
O90 Tb55 2.349 1_455 S
O90 C100 1.243 1_545 S
O91 Tb44 2.428 . S
O91 C108 1.256 . S
O92 Tb44 2.308 1_545 S
O92 C107 1.266 . S
O93 Tb55 2.393 1_455 S
O93 C107 1.248 . S
O94 Tb55 2.465 . S
O94 C119 1.264 . S
O95 Tb55 2.387 . S
O95 C111 1.264 . S
O96 Tb44 2.349 1_645 S
O96 C111 1.243 . S
O97 Tb55 2.428 . S
O97 C119 1.256 . S
O98 Tb55 2.308 1_565 S
O98 C118 1.266 . S
O99 Tb44 2.393 1_655 S
O99 C118 1.248 . S
C100 O89 1.264 . S
C100 O90 1.243 1_565 S
C101 C104 1.399 . S
C101 C106 1.383 . S
C101 C108 1.496 . S
C102 C103 1.399 . S
C102 C106 1.389 . S
C103 C102 1.399 . S
C103 C105 1.380 . S
C103 H120 0.929 . S
C104 C101 1.399 . S
C104 C105 1.392 . S
C104 H121 0.929 . S
C105 C103 1.380 . S
C105 C104 1.392 . S
C105 H122 0.929 . S
C106 C101 1.383 . S
C106 C102 1.389 . S
C106 H123 0.931 . S
C107 O92 1.266 . S
C107 O93 1.248 . S
C108 Tb44 2.802 . S
C108 O88 1.264 . S
C108 O91 1.256 . S
C108 C101 1.496 . S
C109 C76 1.448 . S
C109 H86 0.930 . S
C109 C110 1.328 . S
C110 C81 1.427 . S
C110 H87 0.929 . S
C110 C109 1.328 . S
C111 O95 1.264 . S
C111 O96 1.243 . S
C112 C115 1.399 . S
C112 C116 1.383 . S
C112 C119 1.496 . S
C113 C114 1.399 . S
C113 C116 1.389 . S
C114 C113 1.399 . S
C114 C117 1.380 . S
C114 H124 0.929 . S
C115 C112 1.399 . S
C115 C117 1.392 . S
C115 H125 0.929 . S
C116 C112 1.383 . S
C116 C113 1.389 . S
C116 H126 0.931 . S
C117 C114 1.380 . S
C117 C115 1.392 . S
C117 H127 0.929 . S
C118 O98 1.266 . S
C118 O99 1.248 . S
C119 Tb55 2.802 . S
C119 O94 1.264 . S
C119 O97 1.256 . S
C119 C112 1.496 . S
H120 C103 0.929 . S
H121 C104 0.929 . S
H122 C105 0.929 . S
H123 C106 0.931 . S
H124 C114 0.929 . S
H125 C115 0.929 . S
H126 C116 0.931 . S
H127 C117 0.929 . S
Tb128 N157 2.617 . S
Tb128 N163 2.572 . S
Tb128 O172 2.465 1_554 S
Tb128 O173 2.387 . S
Tb128 O175 2.428 1_554 S
Tb128 O176 2.308 . S
Tb128 O180 2.349 1_554 S
Tb128 O183 2.393 . S
Tb128 C192 2.802 1_554 S
C129 N130 1.379 . S
C129 C132 1.416 . S
C129 C136 1.424 . S
N130 C129 1.379 . S
N130 C133 1.334 . S
N130 Tb139 2.617 . S
C131 C133 1.390 . S
C131 C134 1.339 . S
C131 H151 0.930 . S
C132 C129 1.416 . S
C132 C134 1.416 . S
C132 C138 1.448 . S
C133 N130 1.334 . S
C133 C131 1.390 . S
C133 H144 0.930 . S
C134 C131 1.339 . S
C134 C132 1.416 . S
C134 H155 0.930 . S
C135 C136 1.413 . S
C135 C137 1.427 . S
C135 C141 1.416 . S
C136 C129 1.424 . S
C136 C135 1.413 . S
C136 N140 1.361 . S
C137 C135 1.427 . S
C137 C138 1.328 . S
C137 H152 0.929 . S
C138 C132 1.448 . S
C138 C137 1.328 . S
C138 H153 0.930 . S
Tb139 N130 2.617 . S
Tb139 N140 2.572 . S
Tb139 O174 2.349 . S
Tb139 O177 2.393 . S
Tb139 O178 2.465 . S
Tb139 O179 2.387 . S
Tb139 O181 2.428 . S
Tb139 O182 2.308 . S
Tb139 C203 2.802 . S
N140 C136 1.361 . S
N140 Tb139 2.572 . S
N140 C142 1.340 . S
C141 C135 1.416 . S
C141 C143 1.332 . S
C141 H149 0.931 . S
C142 N140 1.340 . S
C142 C143 1.407 . S
C142 H148 0.930 . S
C143 C141 1.332 . S
C143 C142 1.407 . S
C143 H145 0.929 . S
H144 C133 0.930 . S
H145 C143 0.929 . S
H146 C161 0.930 . S
H147 C168 0.929 . S
H148 C142 0.930 . S
H149 C141 0.931 . S
H150 C164 0.930 . S
H151 C131 0.930 . S
H152 C137 0.929 . S
H153 C138 0.930 . S
H154 C159 0.930 . S
H155 C134 0.930 . S
H156 C167 0.931 . S
N157 Tb128 2.617 . S
N157 C158 1.379 . S
N157 C161 1.334 1_554 S
C158 N157 1.379 . S
C158 C160 1.416 . S
C158 C166 1.424 . S
C159 H154 0.930 . S
C159 C161 1.390 . S
C159 C162 1.339 1_556 S
C160 C158 1.416 . S
C160 C162 1.416 . S
C160 C193 1.448 . S
C161 H146 0.930 . S
C161 N157 1.334 1_556 S
C161 C159 1.390 . S
C162 C159 1.339 1_554 S
C162 C160 1.416 . S
C162 H169 0.930 . S
N163 Tb128 2.572 . S
N163 C164 1.340 . S
N163 C166 1.361 . S
C164 H150 0.930 . S
C164 N163 1.340 . S
C164 C168 1.407 . S
C165 C166 1.413 . S
C165 C167 1.416 . S
C165 C194 1.427 . S
C166 C158 1.424 . S
C166 N163 1.361 . S
C166 C165 1.413 . S
C167 H156 0.931 . S
C167 C165 1.416 . S
C167 C168 1.332 . S
C168 H147 0.929 . S
C168 C164 1.407 . S
C168 C167 1.332 . S
H169 C162 0.930 . S
H170 C193 0.930 . S
H171 C194 0.929 . S
O172 Tb128 2.465 1_556 S
O172 C192 1.264 . S
O173 Tb128 2.387 . S
O173 C184 1.264 . S
O174 Tb139 2.349 . S
O174 C184 1.243 . S
O175 Tb128 2.428 1_556 S
O175 C192 1.256 . S
O176 Tb128 2.308 . S
O176 C191 1.266 . S
O177 Tb139 2.393 . S
O177 C191 1.248 . S
O178 Tb139 2.465 . S
O178 C203 1.264 . S
O179 Tb139 2.387 . S
O179 C195 1.264 1_554 S
O180 Tb128 2.349 1_556 S
O180 C195 1.243 . S
O181 Tb139 2.428 . S
O181 C203 1.256 . S
O182 Tb139 2.308 . S
O182 C202 1.266 . S
O183 Tb128 2.393 . S
O183 C202 1.248 . S
C184 O173 1.264 . S
C184 O174 1.243 . S
C185 C188 1.399 . S
C185 C190 1.383 . S
C185 C192 1.496 . S
C186 C187 1.399 . S
C186 C190 1.389 . S
C187 C186 1.399 . S
C187 C189 1.380 . S
C187 H204 0.929 . S
C188 C185 1.399 . S
C188 C189 1.392 . S
C188 H205 0.929 . S
C189 C187 1.380 . S
C189 C188 1.392 . S
C189 H206 0.929 . S
C190 C185 1.383 . S
C190 C186 1.389 . S
C190 H207 0.931 . S
C191 O176 1.266 . S
C191 O177 1.248 . S
C192 Tb128 2.802 1_556 S
C192 O172 1.264 . S
C192 O175 1.256 . S
C192 C185 1.496 . S
C193 C160 1.448 . S
C193 H170 0.930 . S
C193 C194 1.328 . S
C194 C165 1.427 . S
C194 H171 0.929 . S
C194 C193 1.328 . S
C195 O179 1.264 1_556 S
C195 O180 1.243 . S
C196 C199 1.399 . S
C196 C200 1.383 . S
C196 C203 1.496 . S
C197 C198 1.399 . S
C197 C200 1.389 . S
C198 C197 1.399 . S
C198 C201 1.380 . S
C198 H208 0.929 . S
C199 C196 1.399 . S
C199 C201 1.392 . S
C199 H209 0.929 . S
C200 C196 1.383 . S
C200 C197 1.389 . S
C200 H210 0.931 . S
C201 C198 1.380 . S
C201 C199 1.392 . S
C201 H211 0.929 . S
C202 O182 1.266 . S
C202 O183 1.248 . S
C203 Tb139 2.802 . S
C203 O178 1.264 . S
C203 O181 1.256 . S
C203 C196 1.496 . S
H204 C187 0.929 . S
H205 C188 0.929 . S
H206 C189 0.929 . S
H207 C190 0.931 . S
H208 C198 0.929 . S
H209 C199 0.929 . S
H210 C200 0.931 . S
H211 C201 0.929 . S
C212 C213 1.369 . S
C212 C214 1.419 . S
C212 H216 0.930 . S
C213 C212 1.369 . S
C213 C222 1.429 . S
C214 C212 1.419 . S
C214 C215 1.363 . S
C214 H217 0.929 . S
C215 C214 1.363 . S
C215 C221 1.428 . S
H216 C212 0.930 . S
H217 C214 0.929 . S
S218 N219 1.613 . S
S218 N220 1.610 . S
N219 S218 1.613 . S
N219 C222 1.350 . S
N220 S218 1.610 . S
N220 C221 1.351 . S
C221 C215 1.428 . S
C221 N220 1.351 . S
C221 C222 1.434 . S
C222 C213 1.429 . S
C222 N219 1.350 . S
C222 C221 1.434 . S
C223 C224 1.369 . S
C223 C225 1.419 . S
C223 H227 0.930 . S
C224 C223 1.369 . S
C224 C233 1.429 . S
C225 C223 1.419 . S
C225 C226 1.363 . S
C225 H228 0.929 . S
C226 C225 1.363 . S
C226 C232 1.428 . S
H227 C223 0.930 . S
H228 C225 0.929 . S
S229 N230 1.613 . S
S229 N231 1.610 . S
N230 S229 1.613 . S
N230 C233 1.350 1_556 S
N231 S229 1.610 . S
N231 C232 1.351 1_556 S
C232 C226 1.428 . S
C232 N231 1.351 1_554 S
C232 C233 1.434 . S
C233 C224 1.429 . S
C233 N230 1.350 1_554 S
C233 C232 1.434 . S
C234 C235 1.369 . S
C234 C236 1.419 . S
C234 H238 0.930 . S
C235 C234 1.369 . S
C235 C244 1.429 . S
C236 C234 1.419 . S
C236 C237 1.363 . S
C236 H239 0.929 . S
C237 C236 1.363 . S
C237 C243 1.428 . S
H238 C234 0.930 . S
H239 C236 0.929 . S
S240 N241 1.613 . S
S240 N242 1.610 . S
N241 S240 1.613 . S
N241 C244 1.350 . S
N242 S240 1.610 . S
N242 C243 1.351 . S
C243 C237 1.428 . S
C243 N242 1.351 . S
C243 C244 1.434 . S
C244 C235 1.429 . S
C244 N241 1.350 . S
C244 C243 1.434 . S
C245 C246 1.369 . S
C245 C247 1.419 . S
C245 H249 0.930 . S
C246 C245 1.369 . S
C246 C255 1.429 . S
C247 C245 1.419 . S
C247 C248 1.363 . S
C247 H250 0.929 . S
C248 C247 1.363 . S
C248 C254 1.428 . S
H249 C245 0.930 . S
H250 C247 0.929 . S
S251 N252 1.613 . S
S251 N253 1.610 . S
N252 S251 1.613 . S
N252 C255 1.350 1_556 S
N253 S251 1.610 . S
N253 C254 1.351 1_556 S
C254 C248 1.428 . S
C254 N253 1.351 1_554 S
C254 C255 1.434 . S
C255 C246 1.429 . S
C255 N252 1.350 1_554 S
C255 C254 1.434 . S
C256 C257 1.369 . S
C256 C258 1.419 . S
C256 H260 0.930 . S
C257 C256 1.369 . S
C257 C266 1.429 . S
C258 C256 1.419 . S
C258 C259 1.363 . S
C258 H261 0.929 . S
C259 C258 1.363 . S
C259 C265 1.428 . S
H260 C256 0.930 . S
H261 C258 0.929 . S
S262 N263 1.613 . S
S262 N264 1.610 . S
N263 S262 1.613 . S
N263 C266 1.350 . S
N264 S262 1.610 . S
N264 C265 1.351 . S
C265 C259 1.428 . S
C265 N264 1.351 . S
C265 C266 1.434 . S
C266 C257 1.429 . S
C266 N263 1.350 . S
C266 C265 1.434 . S
C267 C268 1.369 . S
C267 C269 1.419 . S
C267 H271 0.930 . S
C268 C267 1.369 . S
C268 C277 1.429 . S
C269 C267 1.419 . S
C269 C270 1.363 . S
C269 H272 0.929 . S
C270 C269 1.363 . S
C270 C276 1.428 . S
H271 C267 0.930 . S
H272 C269 0.929 . S
S273 N274 1.613 . S
S273 N275 1.610 . S
N274 S273 1.613 . S
N274 C277 1.350 . S
N275 S273 1.610 . S
N275 C276 1.351 . S
C276 C270 1.428 . S
C276 N275 1.351 . S
C276 C277 1.434 . S
C277 C268 1.429 . S
C277 N274 1.350 . S
C277 C276 1.434 . S
C278 C279 1.369 . S
C278 C280 1.419 . S
C278 H282 0.930 . S
C279 C278 1.369 . S
C279 C288 1.429 . S
C280 C278 1.419 . S
C280 C281 1.363 . S
C280 H283 0.929 . S
C281 C280 1.363 . S
C281 C287 1.428 . S
H282 C278 0.930 . S
H283 C280 0.929 . S
S284 N285 1.613 1_565 S
S284 N286 1.610 . S
N285 S284 1.613 1_545 S
N285 C288 1.350 . S
N286 S284 1.610 . S
N286 C287 1.351 1_565 S
C287 C281 1.428 . S
C287 N286 1.351 1_545 S
C287 C288 1.434 . S
C288 C279 1.429 . S
C288 N285 1.350 . S
C288 C287 1.434 . S
C289 C290 1.369 . S
C289 C291 1.419 . S
C289 H293 0.930 . S
C290 C289 1.369 . S
C290 C299 1.429 . S
C291 C289 1.419 . S
C291 C292 1.363 . S
C291 H294 0.929 . S
C292 C291 1.363 . S
C292 C298 1.428 . S
H293 C289 0.930 . S
H294 C291 0.929 . S
S295 N296 1.613 . S
S295 N297 1.610 . S
N296 S295 1.613 . S
N296 C299 1.350 . S
N297 S295 1.610 . S
N297 C298 1.351 . S
C298 C292 1.428 . S
C298 N297 1.351 . S
C298 C299 1.434 . S
C299 C290 1.429 . S
C299 N296 1.350 . S
C299 C298 1.434 . S
C300 C301 1.369 . S
C300 C302 1.419 . S
C300 H304 0.930 . S
C301 C300 1.369 . S
C301 C310 1.429 . S
C302 C300 1.419 . S
C302 C303 1.363 . S
C302 H305 0.929 . S
C303 C302 1.363 . S
C303 C309 1.428 . S
H304 C300 0.930 . S
H305 C302 0.929 . S
S306 N307 1.613 . S
S306 N308 1.610 . S
N307 S306 1.613 . S
N307 C310 1.350 . S
N308 S306 1.610 . S
N308 C309 1.351 . S
C309 C303 1.428 . S
C309 N308 1.351 . S
C309 C310 1.434 . S
C310 C301 1.429 . S
C310 N307 1.350 . S
C310 C309 1.434 . S
C311 C312 1.369 1_554 S
C311 C313 1.419 1_554 S
C311 H315 0.930 . S
C312 C311 1.369 1_556 S
C312 C321 1.429 . S
C313 C311 1.419 1_556 S
C313 C314 1.363 . S
C313 H316 0.929 . S
C314 C313 1.363 . S
C314 C320 1.428 . S
H315 C311 0.930 . S
H316 C313 0.929 . S
S317 N318 1.613 . S
S317 N319 1.610 . S
N318 S317 1.613 . S
N318 C321 1.350 . S
N319 S317 1.610 . S
N319 C320 1.351 . S
C320 C314 1.428 . S
C320 N319 1.351 . S
C320 C321 1.434 . S
C321 C312 1.429 . S
C321 N318 1.350 . S
C321 C320 1.434 . S
C322 C323 1.369 . S
C322 C324 1.419 . S
C322 H326 0.930 . S
C323 C322 1.369 . S
C323 C332 1.429 . S
C324 C322 1.419 . S
C324 C325 1.363 . S
C324 H327 0.929 . S
C325 C324 1.363 . S
C325 C331 1.428 . S
H326 C322 0.930 . S
H327 C324 0.929 . S
S328 N329 1.613 . S
S328 N330 1.610 . S
N329 S328 1.613 . S
N329 C332 1.350 . S
N330 S328 1.610 . S
N330 C331 1.351 . S
C331 C325 1.428 . S
C331 N330 1.351 . S
C331 C332 1.434 . S
C332 C323 1.429 . S
C332 N329 1.350 . S
C332 C331 1.434 . S
C333 C334 1.369 . S
C333 C335 1.419 . S
C333 H337 0.930 . S
C334 C333 1.369 . S
C334 C343 1.429 . S
C335 C333 1.419 . S
C335 C336 1.363 . S
C335 H338 0.929 . S
C336 C335 1.363 . S
C336 C342 1.428 . S
H337 C333 0.930 . S
H338 C335 0.929 . S
S339 N340 1.613 . S
S339 N341 1.610 . S
N340 S339 1.613 . S
N340 C343 1.350 1_545 S
N341 S339 1.610 . S
N341 C342 1.351 1_545 S
C342 C336 1.428 . S
C342 N341 1.351 1_565 S
C342 C343 1.434 . S
C343 C334 1.429 . S
C343 N340 1.350 1_565 S
C343 C342 1.434 . S
C215 C107 1.629 . S
C213 C43 1.641 . S
C224 C10 1.637 . S
C226 C202 1.633 . S
C235 C21 1.637 . S
C237 C118 1.650 . S
C246 C32 1.604 . S
C248 C191 1.606 . S
C259 C102 1.410 . S
C257 C5 1.583 . S
C270 C195 1.689 . S
C268 C15 1.681 . S
C279 C27 1.627 . S
C281 C111 1.650 . S
C290 C38 1.589 . S
C292 C186 1.430 . S
C303 C197 1.389 . S
C301 C16 1.555 . S
C314 C113 1.362 . S
C312 C26 1.544 1_556 S
C325 C184 1.619 . S
C323 C37 1.607 . S
C334 C4 1.570 . S
C336 C100 1.591 . S
