# Generated by pormake.
# Topology ssa, (4,4)-cn, num edge types: 1
# Building blocks:
#     Node 0, Type 0, BuildingBlock: NAWXER_clean_sbu_0, # of connection points: 4
#     Node 1, Type 0, BuildingBlock: NAWXER_clean_sbu_0, # of connection points: 4
#     Node 2, Type 0, BuildingBlock: NAWXER_clean_sbu_0, # of connection points: 4
#     Node 3, Type 0, BuildingBlock: NAWXER_clean_sbu_0, # of connection points: 4
#     Node 4, Type 0, BuildingBlock: NAWXER_clean_sbu_0, # of connection points: 4
#     Node 5, Type 0, BuildingBlock: NAWXER_clean_sbu_0, # of connection points: 4
#     Node 6, Type 1, BuildingBlock: MUDLON_clean_linker_0, # of connection points: 4
#     Node 7, Type 1, BuildingBlock: MUDLON_clean_linker_0, # of connection points: 4
#     Node 8, Type 1, BuildingBlock: MUDLON_clean_linker_0, # of connection points: 4
#     Node 9, Type 1, BuildingBlock: MUDLON_clean_linker_0, # of connection points: 4
#     Node 10, Type 1, BuildingBlock: MUDLON_clean_linker_0, # of connection points: 4
#     Node 11, Type 1, BuildingBlock: MUDLON_clean_linker_0, # of connection points: 4
#     Edge 12, Type (0, 1), BuildingBlock: MIFKUJ_clean_linker_0, # of connection points: 2
#     Edge 13, Type (0, 1), BuildingBlock: MIFKUJ_clean_linker_0, # of connection points: 2
#     Edge 14, Type (0, 1), BuildingBlock: MIFKUJ_clean_linker_0, # of connection points: 2
#     Edge 15, Type (0, 1), BuildingBlock: MIFKUJ_clean_linker_0, # of connection points: 2
#     Edge 16, Type (0, 1), BuildingBlock: MIFKUJ_clean_linker_0, # of connection points: 2
#     Edge 17, Type (0, 1), BuildingBlock: MIFKUJ_clean_linker_0, # of connection points: 2
#     Edge 18, Type (0, 1), BuildingBlock: MIFKUJ_clean_linker_0, # of connection points: 2
#     Edge 19, Type (0, 1), BuildingBlock: MIFKUJ_clean_linker_0, # of connection points: 2
#     Edge 20, Type (0, 1), BuildingBlock: MIFKUJ_clean_linker_0, # of connection points: 2
#     Edge 21, Type (0, 1), BuildingBlock: MIFKUJ_clean_linker_0, # of connection points: 2
#     Edge 22, Type (0, 1), BuildingBlock: MIFKUJ_clean_linker_0, # of connection points: 2
#     Edge 23, Type (0, 1), BuildingBlock: MIFKUJ_clean_linker_0, # of connection points: 2
#     Edge 24, Type (0, 1), BuildingBlock: MIFKUJ_clean_linker_0, # of connection points: 2
#     Edge 25, Type (0, 1), BuildingBlock: MIFKUJ_clean_linker_0, # of connection points: 2
#     Edge 26, Type (0, 1), BuildingBlock: MIFKUJ_clean_linker_0, # of connection points: 2
#     Edge 27, Type (0, 1), BuildingBlock: MIFKUJ_clean_linker_0, # of connection points: 2
#     Edge 28, Type (0, 1), BuildingBlock: MIFKUJ_clean_linker_0, # of connection points: 2
#     Edge 29, Type (0, 1), BuildingBlock: MIFKUJ_clean_linker_0, # of connection points: 2
#     Edge 30, Type (0, 1), BuildingBlock: MIFKUJ_clean_linker_0, # of connection points: 2
#     Edge 31, Type (0, 1), BuildingBlock: MIFKUJ_clean_linker_0, # of connection points: 2
#     Edge 32, Type (0, 1), BuildingBlock: MIFKUJ_clean_linker_0, # of connection points: 2
#     Edge 33, Type (0, 1), BuildingBlock: MIFKUJ_clean_linker_0, # of connection points: 2
#     Edge 34, Type (0, 1), BuildingBlock: MIFKUJ_clean_linker_0, # of connection points: 2
#     Edge 35, Type (0, 1), BuildingBlock: MIFKUJ_clean_linker_0, # of connection points: 2
# Relax obj value: 0.009
# Max RMSD: 0.047
# Mean RMSD: 0.033
data_MOF--net-ssa--node1-NAWXER_clean_sbu_0--node2-MUDLON_clean_linker_0--edge1-MIFKUJ_clean_linker_0
_symmetry_space_group_name_H-M    P1
_symmetry_Int_Tables_number       1
_symmetry_cell_setting            triclinic
loop_
_symmetry_equiv_pos_as_xyz
'x, y, z'
_cell_length_a     83.975201
_cell_length_b     84.062753
_cell_length_c     46.142248
_cell_angle_alpha  89.990191
_cell_angle_beta   89.91018
_cell_angle_gamma 120.05158
loop_
_atom_site_label
_atom_site_type_symbol
_atom_site_fract_x
_atom_site_fract_y
_atom_site_fract_z
_atom_type_partial_charge
C0 C 0.04541 0.53378 0.04568 0.0
C1 C 0.00653 0.47418 0.00047 0.0
O2 O 0.03167 0.52299 0.06169 0.0
Zn3 Zn 0.00891 0.49509 0.06011 0.0
O4 O 0.0479 0.52807 0.02154 0.0
Zn5 Zn 0.02648 0.50388 0.02337 0.0
O6 O 0.00442 0.50992 0.02258 0.0
O7 O 0.98804 0.49893 0.0626 0.0
O8 O 0.02109 0.48782 0.99055 0.0
O9 O 0.00075 0.47521 0.02577 0.0
O10 O 0.01385 0.48327 0.09211 0.0
O11 O 0.03394 0.49103 0.05653 0.0
C12 C 0.99085 0.5074 0.03862 0.0
C13 C 0.02811 0.48383 0.08159 0.0
C14 C 0.52312 0.03389 0.50584 0.0
C15 C 0.5454 0.995 0.46553 0.0
O16 O 0.52084 0.0209 0.52295 0.0
Zn17 Zn 0.52546 0.99807 0.5232 0.0
O18 O 0.53013 0.03519 0.48091 0.0
Zn19 Zn 0.53412 0.01446 0.48508 0.0
O20 O 0.5066 0.99143 0.48395 0.0
O21 O 0.50078 0.97733 0.52626 0.0
O22 O 0.5461 0.0091 0.45413 0.0
O23 O 0.5381 0.9896 0.49069 0.0
O24 O 0.54171 0.00398 0.55588 0.0
O25 O 0.55425 0.02322 0.51919 0.0
C26 C 0.49553 0.9785 0.50094 0.0
C27 C 0.55538 0.01812 0.54495 0.0
C28 C 0.5018 0.47756 0.95878 0.0
C29 C 0.52537 0.5384 0.0013 0.0
O30 O 0.49993 0.4907 0.94917 0.0
Zn31 Zn 0.51263 0.50792 0.98028 0.0
O32 O 0.50999 0.47939 0.98301 0.0
Zn33 Zn 0.52302 0.4998 0.01598 0.0
O34 O 0.50755 0.48896 0.04989 0.0
O35 O 0.49408 0.49644 0.0159 0.0
O36 O 0.52886 0.52777 0.01661 0.0
O37 O 0.51578 0.53237 0.97839 0.0
O38 O 0.54058 0.51347 0.97612 0.0
O39 O 0.5476 0.50343 0.01564 0.0
C40 C 0.49367 0.48982 0.04107 0.0
C41 C 0.55222 0.51118 0.99094 0.0
C42 C 0.05289 0.5437 0.50254 0.0
C43 C 0.0151 0.4819 0.54142 0.0
O44 O 0.05805 0.54205 0.52801 0.0
Zn45 Zn 0.04975 0.52062 0.5603 0.0
O46 O 0.0391 0.53008 0.49088 0.0
Zn47 Zn 0.03358 0.51301 0.5221 0.0
O48 O 0.02441 0.52411 0.55582 0.0
O49 O 0.0429 0.53012 0.59322 0.0
O50 O 0.01311 0.48828 0.5176 0.0
O51 O 0.02804 0.49248 0.55873 0.0
O52 O 0.07124 0.51782 0.56323 0.0
O53 O 0.05714 0.5094 0.52092 0.0
C54 C 0.02906 0.52996 0.58183 0.0
C55 C 0.07029 0.51171 0.53771 0.0
C56 C 0.53132 0.98364 0.01425 0.0
C57 C 0.51006 0.02107 0.96529 0.0
O58 O 0.53368 0.99745 0.02947 0.0
Zn59 Zn 0.52825 0.01999 0.02571 0.0
O60 O 0.52377 0.98086 0.98947 0.0
Zn61 Zn 0.5203 0.00183 0.98984 0.0
O62 O 0.54837 0.02418 0.98924 0.0
O63 O 0.55259 0.04125 0.02805 0.0
O64 O 0.50936 0.00647 0.95623 0.0
O65 O 0.5167 0.02723 0.99046 0.0
O66 O 0.51105 0.01552 0.0568 0.0
O67 O 0.49979 0.99403 0.02308 0.0
C68 C 0.55884 0.03816 0.00494 0.0
C69 C 0.49797 1.00044 0.04729 0.0
C70 C 0.55907 0.52949 0.55733 0.0
C71 C 0.49832 0.50701 0.51529 0.0
O72 O 0.54539 0.52983 0.56841 0.0
Zn73 Zn 0.52877 0.51893 0.53621 0.0
O74 O 0.55777 0.52283 0.53187 0.0
Zn75 Zn 0.53705 0.50999 0.49906 0.0
O76 O 0.54719 0.52593 0.46591 0.0
O77 O 0.54079 0.53897 0.50213 0.0
O78 O 0.50901 0.50408 0.49909 0.0
O79 O 0.50431 0.51569 0.53899 0.0
O80 O 0.52334 0.49103 0.53756 0.0
O81 O 0.53403 0.48566 0.49721 0.0
C82 C 0.54695 0.53977 0.4764 0.0
C83 C 0.52604 0.48012 0.52158 0.0
H84 H 0.32231 0.46218 0.30254 0.0
N85 N 0.29609 0.42684 0.28963 0.0
H86 H 0.34252 0.47215 0.34464 0.0
H87 H 0.29318 0.40696 0.33628 0.0
H88 H 0.3133 0.41689 0.37893 0.0
H89 H 0.31017 0.40632 0.273 0.0
H90 H 0.33379 0.41359 0.23636 0.0
H91 H 0.30883 0.45543 0.25107 0.0
H92 H 0.33194 0.46252 0.21329 0.0
H93 H 0.29012 0.45483 0.30757 0.0
H94 H 0.26558 0.40304 0.26227 0.0
H95 H 0.26123 0.45463 0.30583 0.0
H96 H 0.23679 0.40341 0.2583 0.0
H97 H 0.18286 0.45878 0.30778 0.0
H98 H 0.17619 0.4702 0.35173 0.0
H99 H 0.16202 0.41916 0.39524 0.0
H100 H 0.16753 0.40739 0.35012 0.0
H101 H 0.14104 0.39955 0.28863 0.0
H102 H 0.12006 0.40281 0.25563 0.0
H103 H 0.16528 0.45418 0.2246 0.0
H104 H 0.18611 0.45055 0.25693 0.0
H105 H 0.20911 0.45526 0.28948 0.0
H106 H 0.23873 0.45723 0.28123 0.0
H107 H 0.21231 0.39798 0.28752 0.0
N108 N 0.17608 0.42374 0.2986 0.0
H109 H 0.18267 0.39625 0.2935 0.0
C110 C 0.30624 0.43374 0.31627 0.0
C111 C 0.31999 0.45228 0.31937 0.0
C112 C 0.33147 0.45799 0.34358 0.0
C113 C 0.32954 0.44528 0.36507 0.0
C114 C 0.31521 0.42696 0.3626 0.0
C115 C 0.30366 0.42128 0.33841 0.0
C116 C 0.30769 0.43021 0.26465 0.0
C117 C 0.31465 0.41842 0.25961 0.0
C118 C 0.32813 0.4226 0.23856 0.0
C119 C 0.33489 0.4387 0.2218 0.0
C120 C 0.32731 0.45017 0.22608 0.0
C121 C 0.31391 0.44603 0.24742 0.0
C122 C 0.27996 0.4286 0.28569 0.0
C123 C 0.27864 0.44349 0.29682 0.0
C124 C 0.26199 0.44348 0.29545 0.0
C125 C 0.24641 0.42885 0.28229 0.0
C126 C 0.24823 0.41465 0.26944 0.0
C127 C 0.26475 0.41448 0.27139 0.0
C128 C 0.17521 0.43199 0.32549 0.0
C129 C 0.1784 0.45006 0.32675 0.0
C130 C 0.17478 0.45668 0.35221 0.0
C131 C 0.16827 0.44554 0.37715 0.0
C132 C 0.16649 0.42797 0.37632 0.0
C133 C 0.16979 0.42125 0.35067 0.0
C134 C 0.16511 0.42472 0.27538 0.0
C135 C 0.14646 0.41126 0.27415 0.0
C136 C 0.13448 0.41327 0.25553 0.0
C137 C 0.14094 0.42889 0.23774 0.0
C138 C 0.15986 0.44191 0.23784 0.0
C139 C 0.17184 0.43986 0.25646 0.0
C140 C 0.1936 0.42551 0.29159 0.0
C141 C 0.20963 0.44269 0.28817 0.0
C142 C 0.22667 0.44379 0.28392 0.0
C143 C 0.2281 0.42777 0.28374 0.0
C144 C 0.21189 0.41063 0.28681 0.0
C145 C 0.19487 0.40956 0.29047 0.0
H146 H 0.74128 0.12404 0.79413 0.0
N147 N 0.75895 0.158 0.77363 0.0
H148 H 0.72084 0.11265 0.83571 0.0
H149 H 0.75597 0.17958 0.81622 0.0
H150 H 0.73675 0.16853 0.85913 0.0
H151 H 0.73124 0.16584 0.76728 0.0
H152 H 0.70611 0.15163 0.73217 0.0
H153 H 0.75753 0.13864 0.72716 0.0
H154 H 0.73254 0.12457 0.69162 0.0
H155 H 0.79264 0.16293 0.77388 0.0
H156 H 0.76298 0.19226 0.7669 0.0
H157 H 0.82172 0.19167 0.76832 0.0
H158 H 0.79197 0.22129 0.76308 0.0
H159 H 0.91101 0.28728 0.78107 0.0
H160 H 0.92443 0.31042 0.81935 0.0
H161 H 0.87508 0.31438 0.82128 0.0
H162 H 0.86177 0.29114 0.78292 0.0
H163 H 0.8686 0.29947 0.73245 0.0
H164 H 0.88265 0.32045 0.69171 0.0
H165 H 0.91717 0.29694 0.67485 0.0
H166 H 0.90282 0.27573 0.7157 0.0
H167 H 0.87167 0.24669 0.78582 0.0
H168 H 0.84219 0.21856 0.79204 0.0
H169 H 0.81711 0.23957 0.73305 0.0
N170 N 0.87928 0.27586 0.75404 0.0
H171 H 0.84625 0.26796 0.72841 0.0
C172 C 0.75021 0.1526 0.80176 0.0
C173 C 0.74059 0.13384 0.80858 0.0
C174 C 0.72893 0.12737 0.8326 0.0
C175 C 0.72688 0.13961 0.85099 0.0
C176 C 0.73751 0.15859 0.84518 0.0
C177 C 0.74883 0.16501 0.82065 0.0
C178 C 0.74618 0.15311 0.74992 0.0
C179 C 0.73186 0.15722 0.75043 0.0
C180 C 0.71746 0.14901 0.73049 0.0
C181 C 0.71731 0.13686 0.70943 0.0
C182 C 0.73235 0.13394 0.70756 0.0
C183 C 0.74662 0.14195 0.72777 0.0
C184 C 0.77572 0.17544 0.77113 0.0
C185 C 0.79248 0.17567 0.77155 0.0
C186 C 0.80909 0.19217 0.76858 0.0
C187 C 0.80933 0.20896 0.76552 0.0
C188 C 0.79241 0.20868 0.76504 0.0
C189 C 0.77576 0.19207 0.76752 0.0
C190 C 0.88552 0.2876 0.77914 0.0
C191 C 0.903 0.29291 0.7902 0.0
C192 C 0.91059 0.30608 0.81209 0.0
C193 C 0.90084 0.31428 0.82325 0.0
C194 C 0.88299 0.30844 0.81286 0.0
C195 C 0.87535 0.29515 0.79105 0.0
C196 C 0.88454 0.28582 0.72697 0.0
C197 C 0.87873 0.29836 0.71949 0.0
C198 C 0.8868 0.31039 0.69615 0.0
C199 C 0.90105 0.31037 0.68019 0.0
C200 C 0.90627 0.2973 0.68688 0.0
C201 C 0.89801 0.28511 0.71 0.0
C202 C 0.86142 0.25949 0.75654 0.0
C203 C 0.85976 0.24522 0.77433 0.0
C204 C 0.84289 0.22906 0.77764 0.0
C205 C 0.82717 0.22659 0.7628 0.0
C206 C 0.82879 0.24099 0.74513 0.0
C207 C 0.84566 0.25732 0.74222 0.0
H208 H 0.58109 0.85202 0.26047 0.0
N209 N 0.61457 0.86053 0.23766 0.0
H210 H 0.57578 0.86856 0.29921 0.0
H211 H 0.63965 0.88557 0.27271 0.0
H212 H 0.63441 0.90242 0.31154 0.0
H213 H 0.63513 0.89077 0.20719 0.0
H214 H 0.62514 0.9034 0.16808 0.0
H215 H 0.58115 0.84271 0.21061 0.0
H216 H 0.5708 0.85544 0.17192 0.0
H217 H 0.59015 0.82968 0.26923 0.0
H218 H 0.63371 0.84991 0.20561 0.0
H219 H 0.58861 0.8001 0.26924 0.0
H220 H 0.63147 0.81989 0.20417 0.0
H221 H 0.57434 0.70972 0.24411 0.0
H222 H 0.56498 0.68636 0.28153 0.0
H223 H 0.61797 0.71838 0.32301 0.0
H224 H 0.62765 0.74092 0.28386 0.0
H225 H 0.62614 0.7218 0.21442 0.0
H226 H 0.61686 0.70096 0.17324 0.0
H227 H 0.57376 0.71321 0.15371 0.0
H228 H 0.58242 0.73304 0.19591 0.0
H229 H 0.57961 0.74346 0.24431 0.0
H230 H 0.57998 0.77275 0.24383 0.0
H231 H 0.639 0.80136 0.23141 0.0
N232 N 0.60921 0.73864 0.23581 0.0
H233 H 0.63816 0.77193 0.23017 0.0
C234 C 0.61085 0.86744 0.2639 0.0
C235 C 0.59281 0.86258 0.27206 0.0
C236 C 0.58978 0.87206 0.29424 0.0
C237 C 0.60469 0.88679 0.30832 0.0
C238 C 0.62268 0.89115 0.30095 0.0
C239 C 0.62569 0.88148 0.27902 0.0
C240 C 0.60889 0.86596 0.21184 0.0
C241 C 0.62119 0.88284 0.1991 0.0
C242 C 0.6154 0.89007 0.17699 0.0
C243 C 0.5971 0.88054 0.16724 0.0
C244 C 0.585 0.86308 0.17891 0.0
C245 C 0.59085 0.85583 0.20109 0.0
C246 C 0.6123 0.84231 0.23754 0.0
C247 C 0.5993 0.82785 0.25498 0.0
C248 C 0.5983 0.81071 0.25481 0.0
C249 C 0.61001 0.80753 0.2369 0.0
C250 C 0.62254 0.82187 0.21885 0.0
C251 C 0.62374 0.83903 0.2194 0.0
C252 C 0.60193 0.72684 0.26083 0.0
C253 C 0.58388 0.71179 0.26139 0.0
C254 C 0.57849 0.69846 0.2831 0.0
C255 C 0.59084 0.70015 0.30517 0.0
C256 C 0.60828 0.71618 0.3059 0.0
C257 C 0.61379 0.72926 0.28379 0.0
C258 C 0.60515 0.7291 0.20839 0.0
C259 C 0.61491 0.72022 0.20089 0.0
C260 C 0.6096 0.70836 0.17717 0.0
C261 C 0.59445 0.70526 0.16002 0.0
C262 C 0.58525 0.71494 0.16668 0.0
C263 C 0.59039 0.72657 0.19076 0.0
C264 C 0.60889 0.7556 0.23682 0.0
C265 C 0.59257 0.75607 0.24126 0.0
C266 C 0.59286 0.77287 0.24125 0.0
C267 C 0.60951 0.78953 0.23731 0.0
C268 C 0.62584 0.78888 0.23369 0.0
C269 C 0.62546 0.7721 0.23324 0.0
H270 H 0.91318 0.61427 0.83027 0.0
N271 N 0.88321 0.59295 0.79975 0.0
H272 H 0.92319 0.60644 0.87512 0.0
H273 H 0.86235 0.56255 0.83321 0.0
H274 H 0.87248 0.55423 0.87753 0.0
H275 H 0.87556 0.55768 0.78937 0.0
H276 H 0.89239 0.54865 0.75641 0.0
H277 H 0.90678 0.61352 0.75854 0.0
H278 H 0.92341 0.60438 0.72478 0.0
H279 H 0.87357 0.61611 0.82101 0.0
H280 H 0.85242 0.56617 0.77128 0.0
H281 H 0.84413 0.61494 0.81682 0.0
H282 H 0.82337 0.56558 0.76508 0.0
H283 H 0.75464 0.61509 0.80394 0.0
H284 H 0.73257 0.60907 0.843 0.0
H285 H 0.7274 0.55582 0.85681 0.0
H286 H 0.74983 0.56223 0.81879 0.0
H287 H 0.73649 0.55622 0.77061 0.0
H288 H 0.7125 0.54693 0.73446 0.0
H289 H 0.74124 0.6016 0.69749 0.0
H290 H 0.7645 0.61107 0.73544 0.0
H291 H 0.79733 0.62012 0.78211 0.0
H292 H 0.82626 0.62003 0.7847 0.0
H293 H 0.79604 0.56054 0.78635 0.0
N294 N 0.76362 0.59163 0.78136 0.0
H295 H 0.76732 0.56096 0.78127 0.0
C296 C 0.8872 0.58897 0.82832 0.0
C297 C 0.9041 0.60133 0.84091 0.0
C298 C 0.90982 0.59675 0.86635 0.0
C299 C 0.89877 0.57956 0.87962 0.0
C300 C 0.88129 0.5676 0.86794 0.0
C301 C 0.87552 0.57228 0.84251 0.0
C302 C 0.89009 0.58642 0.77668 0.0
C303 C 0.88578 0.56796 0.77517 0.0
C304 C 0.89542 0.56279 0.75634 0.0
C305 C 0.90932 0.57587 0.73835 0.0
C306 C 0.91272 0.59402 0.7384 0.0
C307 C 0.90324 0.59925 0.75757 0.0
C308 C 0.86542 0.59147 0.79627 0.0
C309 C 0.86261 0.60501 0.80886 0.0
C310 C 0.84578 0.60439 0.80614 0.0
C311 C 0.83132 0.59033 0.79014 0.0
C312 C 0.83406 0.57656 0.77776 0.0
C313 C 0.85086 0.57699 0.78105 0.0
C314 C 0.75384 0.58915 0.80821 0.0
C315 C 0.74915 0.60238 0.81608 0.0
C316 C 0.73641 0.59882 0.83818 0.0
C317 C 0.72796 0.58182 0.85272 0.0
C318 C 0.7337 0.56911 0.84625 0.0
C319 C 0.74655 0.57275 0.82426 0.0
C320 C 0.75211 0.58453 0.75612 0.0
C321 C 0.7378 0.56615 0.75453 0.0
C322 C 0.72407 0.56081 0.73354 0.0
C323 C 0.72459 0.57361 0.7133 0.0
C324 C 0.73998 0.5915 0.71327 0.0
C325 C 0.75347 0.59691 0.73465 0.0
C326 C 0.78022 0.59064 0.78214 0.0
C327 C 0.79704 0.6071 0.78287 0.0
C328 C 0.81355 0.60696 0.78468 0.0
C329 C 0.81361 0.59027 0.78641 0.0
C330 C 0.79664 0.57369 0.78498 0.0
C331 C 0.78011 0.57387 0.78252 0.0
H332 H 0.1799 0.71255 0.26274 0.0
N333 N 0.1755 0.74257 0.2576 0.0
H334 H 0.16803 0.69013 0.30181 0.0
H335 H 0.16354 0.74659 0.30896 0.0
H336 H 0.15306 0.72506 0.34956 0.0
H337 H 0.1403 0.72362 0.24331 0.0
H338 H 0.12641 0.70151 0.20429 0.0
H339 H 0.1943 0.73841 0.21144 0.0
H340 H 0.18062 0.71742 0.17116 0.0
H341 H 0.20974 0.74619 0.25814 0.0
H342 H 0.18078 0.77634 0.25764 0.0
H343 H 0.23912 0.77498 0.25922 0.0
H344 H 0.20982 0.80517 0.26111 0.0
H345 H 0.32194 0.85641 0.28634 0.0
H346 H 0.34189 0.8654 0.32834 0.0
H347 H 0.30596 0.8804 0.37306 0.0
H348 H 0.28682 0.87264 0.32962 0.0
H349 H 0.3095 0.89821 0.26796 0.0
H350 H 0.33336 0.91582 0.23235 0.0
H351 H 0.32702 0.86522 0.19722 0.0
H352 H 0.30405 0.84791 0.23438 0.0
H353 H 0.28692 0.82815 0.2949 0.0
H354 H 0.25879 0.79907 0.28815 0.0
H355 H 0.23602 0.82663 0.23842 0.0
N356 N 0.29309 0.8624 0.27818 0.0
H357 H 0.26373 0.85598 0.2476 0.0
C358 C 0.17209 0.73101 0.28265 0.0
C359 C 0.17415 0.71542 0.2817 0.0
C360 C 0.16747 0.70264 0.30434 0.0
C361 C 0.15913 0.70546 0.32882 0.0
C362 C 0.15872 0.72198 0.33071 0.0
C363 C 0.16494 0.73448 0.30771 0.0
C364 C 0.1683 0.73269 0.23071 0.0
C365 C 0.14916 0.72256 0.22729 0.0
C366 C 0.14124 0.70994 0.20473 0.0
C367 C 0.15232 0.7074 0.18445 0.0
C368 C 0.17157 0.71854 0.18672 0.0
C369 C 0.17949 0.73085 0.20978 0.0
C370 C 0.19311 0.75923 0.25719 0.0
C371 C 0.20976 0.75907 0.25813 0.0
C372 C 0.22656 0.77561 0.25916 0.0
C373 C 0.22705 0.79262 0.26019 0.0
C374 C 0.21023 0.79254 0.25952 0.0
C375 C 0.19353 0.77605 0.25778 0.0
C376 C 0.30312 0.86434 0.30461 0.0
C377 C 0.31831 0.86157 0.30521 0.0
C378 C 0.32962 0.86653 0.32958 0.0
C379 C 0.3258 0.87395 0.35422 0.0
C380 C 0.30971 0.87527 0.35428 0.0
C381 C 0.29861 0.87065 0.32962 0.0
C382 C 0.3049 0.87181 0.25377 0.0
C383 C 0.31309 0.89096 0.25223 0.0
C384 C 0.3267 0.90098 0.23168 0.0
C385 C 0.33227 0.89203 0.21175 0.0
C386 C 0.3234 0.87268 0.2125 0.0
C387 C 0.31001 0.86268 0.23349 0.0
C388 C 0.27733 0.8445 0.27233 0.0
C389 C 0.27588 0.82806 0.28274 0.0
C390 C 0.25973 0.81124 0.27847 0.0
C391 C 0.24483 0.81033 0.26301 0.0
C392 C 0.24683 0.82671 0.25127 0.0
C393 C 0.26277 0.84354 0.25619 0.0
H394 H 0.42498 0.13865 0.67948 0.0
N395 N 0.44211 0.15551 0.72801 0.0
H396 H 0.43796 0.13022 0.63864 0.0
H397 H 0.47879 0.16829 0.71831 0.0
H398 H 0.49185 0.16043 0.67749 0.0
H399 H 0.46995 0.16985 0.76804 0.0
H400 H 0.47654 0.15214 0.80314 0.0
H401 H 0.42012 0.12082 0.74319 0.0
H402 H 0.42625 0.10305 0.77888 0.0
H403 H 0.41288 0.15857 0.73961 0.0
H404 H 0.4716 0.19087 0.72756 0.0
H405 H 0.41137 0.18672 0.74502 0.0
H406 H 0.47017 0.21897 0.7316 0.0
H407 H 0.42045 0.28513 0.70189 0.0
H408 H 0.43386 0.30701 0.66213 0.0
H409 H 0.48318 0.30305 0.6673 0.0
H410 H 0.46988 0.28176 0.70794 0.0
H411 H 0.47061 0.2972 0.75576 0.0
H412 H 0.47639 0.32066 0.79173 0.0
H413 H 0.41789 0.29712 0.80441 0.0
H414 H 0.41217 0.27342 0.76828 0.0
H415 H 0.41249 0.23905 0.71412 0.0
H416 H 0.41387 0.21073 0.71484 0.0
H417 H 0.46494 0.2386 0.76257 0.0
N418 N 0.43687 0.27168 0.73448 0.0
H419 H 0.46377 0.26693 0.76073 0.0
C420 C 0.4508 0.15405 0.70196 0.0
C421 C 0.43966 0.14384 0.67871 0.0
C422 C 0.44712 0.1391 0.65538 0.0
C423 C 0.46591 0.14453 0.655 0.0
C424 C 0.47728 0.15585 0.67737 0.0
C425 C 0.46981 0.16051 0.70067 0.0
C426 C 0.44454 0.14657 0.75285 0.0
C427 C 0.46018 0.15536 0.77065 0.0
C428 C 0.46391 0.1452 0.79079 0.0
C429 C 0.45206 0.1261 0.7935 0.0
C430 C 0.43586 0.11765 0.77692 0.0
C431 C 0.4322 0.12779 0.75679 0.0
C432 C 0.44221 0.17251 0.7328 0.0
C433 C 0.42544 0.17175 0.73814 0.0
C434 C 0.42461 0.18786 0.74099 0.0
C435 C 0.44062 0.20517 0.73837 0.0
C436 C 0.45757 0.20591 0.73397 0.0
C437 C 0.45839 0.18975 0.73136 0.0
C438 C 0.44407 0.2818 0.70787 0.0
C439 C 0.43399 0.2887 0.69395 0.0
C440 C 0.44168 0.30115 0.6711 0.0
C441 C 0.45968 0.3069 0.66147 0.0
C442 C 0.46941 0.29915 0.67442 0.0
C443 C 0.46174 0.28681 0.69753 0.0
C444 C 0.44087 0.28333 0.75955 0.0
C445 C 0.45901 0.2966 0.76697 0.0
C446 C 0.46231 0.31011 0.78751 0.0
C447 C 0.44759 0.31078 0.80078 0.0
C448 C 0.4295 0.29701 0.79435 0.0
C449 C 0.42621 0.28339 0.77399 0.0
C450 C 0.43785 0.2551 0.73745 0.0
C451 C 0.42389 0.23896 0.72493 0.0
C452 C 0.42467 0.22276 0.72554 0.0
C453 C 0.43949 0.22231 0.7389 0.0
C454 C 0.45342 0.23848 0.75182 0.0
C455 C 0.45267 0.25474 0.75101 0.0
H456 H 0.01945 0.46637 0.13446 0.0
H457 H 0.03687 0.45493 0.16123 0.0
H458 H 0.07729 0.47375 0.09268 0.0
H459 H 0.05988 0.48484 0.06566 0.0
H460 H 0.06943 0.44058 0.11017 0.0
H461 H 0.08491 0.49796 0.15638 0.0
H462 H 0.07838 0.51997 0.18153 0.0
H463 H 0.05234 0.48142 0.25101 0.0
H464 H 0.05851 0.45908 0.22607 0.0
H465 H 0.14522 0.44296 0.18269 0.0
H466 H 0.12441 0.45032 0.15652 0.0
H467 H 0.08616 0.42963 0.22805 0.0
H468 H 0.10714 0.42284 0.25473 0.0
H469 H 0.09121 0.46198 0.21017 0.0
H470 H 0.07754 0.40525 0.16486 0.0
H471 H 0.08454 0.38362 0.13957 0.0
H472 H 0.1076 0.42125 0.06821 0.0
H473 H 0.10097 0.44322 0.09326 0.0
C474 C 0.03203 0.46803 0.12508 0.0
C475 C 0.03829 0.47658 0.09796 0.0
C476 C 0.042 0.46154 0.14044 0.0
C477 C 0.0585 0.46365 0.12909 0.0
C478 C 0.0646 0.47194 0.10187 0.0
C479 C 0.05464 0.47834 0.08648 0.0
C480 C 0.0696 0.45742 0.14551 0.0
C481 C 0.07433 0.4454 0.13194 0.0
C482 C 0.07566 0.46335 0.17416 0.0
C483 C 0.07199 0.47678 0.18921 0.0
C484 C 0.07766 0.49413 0.17691 0.0
C485 C 0.07405 0.50667 0.19115 0.0
C486 C 0.0649 0.50207 0.21781 0.0
C487 C 0.0594 0.48494 0.23034 0.0
C488 C 0.06296 0.47234 0.21617 0.0
C489 C 0.13238 0.43998 0.19285 0.0
C490 C 0.12783 0.43224 0.22077 0.0
C491 C 0.12042 0.44405 0.17776 0.0
C492 C 0.10362 0.44036 0.19021 0.0
C493 C 0.099 0.43253 0.21797 0.0
C494 C 0.11094 0.42848 0.23307 0.0
C495 C 0.09118 0.44527 0.17473 0.0
C496 C 0.0862 0.45705 0.18847 0.0
C497 C 0.08494 0.43916 0.14621 0.0
C498 C 0.0889 0.42595 0.13106 0.0
C499 C 0.08424 0.40897 0.14388 0.0
C500 C 0.08812 0.39664 0.12957 0.0
C501 C 0.09655 0.40108 0.10234 0.0
C502 C 0.10109 0.41784 0.08932 0.0
C503 C 0.09725 0.43023 0.10355 0.0
H504 H 0.09954 0.39151 0.09129 0.0
H505 H 0.06212 0.5118 0.2288 0.0
H506 H 0.58935 0.04298 0.52442 0.0
H507 H 0.61704 0.06269 0.55246 0.0
H508 H 0.58748 0.03849 0.63174 0.0
H509 H 0.55969 0.01847 0.60379 0.0
H510 H 0.60768 0.07832 0.62991 0.0
H511 H 0.61639 0.02669 0.61183 0.0
H512 H 0.61817 0.00381 0.58064 0.0
H513 H 0.6632 0.04707 0.53359 0.0
H514 H 0.66149 0.07024 0.56421 0.0
H515 H 0.68192 0.11712 0.72792 0.0
H516 H 0.6547 0.09692 0.6995 0.0
H517 H 0.68797 0.1114 0.62199 0.0
H518 H 0.71545 0.13116 0.65077 0.0
H519 H 0.66566 0.07644 0.62201 0.0
H520 H 0.65766 0.12814 0.63747 0.0
H521 H 0.65577 0.15216 0.66538 0.0
H522 H 0.60979 0.11076 0.71337 0.0
H523 H 0.61156 0.08648 0.68602 0.0
C524 C 0.58876 0.04174 0.54782 0.0
C525 C 0.57235 0.02917 0.56192 0.0
C526 C 0.6046 0.05299 0.56377 0.0
C527 C 0.60427 0.052 0.59411 0.0
C528 C 0.58796 0.03942 0.6083 0.0
C529 C 0.57216 0.02795 0.59232 0.0
C530 C 0.62087 0.06449 0.61097 0.0
C531 C 0.6203 0.07778 0.6286 0.0
C532 C 0.63745 0.06414 0.60827 0.0
C533 C 0.6387 0.05021 0.59014 0.0
C534 C 0.62658 0.03134 0.59469 0.0
C535 C 0.62759 0.01831 0.57714 0.0
C536 C 0.64076 0.02398 0.5551 0.0
C537 C 0.65299 0.0427 0.55064 0.0
C538 C 0.65202 0.05578 0.56811 0.0
C539 C 0.68337 0.11619 0.70474 0.0
C540 C 0.70074 0.12584 0.69146 0.0
C541 C 0.6678 0.10466 0.68848 0.0
C542 C 0.66917 0.10284 0.65845 0.0
C543 C 0.68653 0.11257 0.6451 0.0
C544 C 0.7022 0.1239 0.66149 0.0
C545 C 0.65256 0.09037 0.64126 0.0
C546 C 0.65309 0.07708 0.62345 0.0
C547 C 0.636 0.09092 0.64341 0.0
C548 C 0.63485 0.10549 0.65986 0.0
C549 C 0.64723 0.12416 0.65412 0.0
C550 C 0.64617 0.13782 0.66982 0.0
C551 C 0.6327 0.13299 0.69118 0.0
C552 C 0.62023 0.11448 0.69684 0.0
C553 C 0.62124 0.10076 0.68122 0.0
H554 H 0.6319 0.14359 0.70331 0.0
H555 H 0.6415 0.01388 0.54151 0.0
H556 H 0.55947 0.56098 0.02183 0.0
H557 H 0.5714 0.59156 0.04255 0.0
H558 H 0.51978 0.58912 0.02453 0.0
H559 H 0.50823 0.55881 0.00195 0.0
H560 H 0.5459 0.62279 0.01839 0.0
H561 H 0.53022 0.57851 0.09324 0.0
H562 H 0.52969 0.55274 0.11963 0.0
H563 H 0.58816 0.58465 0.13185 0.0
H564 H 0.58907 0.61055 0.10522 0.0
H565 H 0.55857 0.68181 0.14408 0.0
H566 H 0.5471 0.6561 0.11025 0.0
H567 H 0.60265 0.66937 0.09125 0.0
H568 H 0.61446 0.69586 0.12364 0.0
H569 H 0.57339 0.63071 0.11619 0.0
H570 H 0.58655 0.67584 0.04018 0.0
H571 H 0.58371 0.70077 0.01715 0.0
H572 H 0.5251 0.66566 0.01222 0.0
H573 H 0.52758 0.6406 0.03565 0.0
C574 C 0.55079 0.56711 0.02193 0.0
C575 C 0.53291 0.55757 0.01063 0.0
C576 C 0.55755 0.58453 0.03393 0.0
C577 C 0.54629 0.59243 0.03601 0.0
C578 C 0.52869 0.58327 0.0234 0.0
C579 C 0.52208 0.56598 0.01055 0.0
C580 C 0.55267 0.60973 0.05264 0.0
C581 C 0.55173 0.62442 0.03988 0.0
C582 C 0.56021 0.61192 0.08082 0.0
C583 C 0.55973 0.59642 0.09702 0.0
C584 C 0.54298 0.57999 0.1014 0.0
C585 C 0.54261 0.56537 0.11642 0.0
C586 C 0.55889 0.56704 0.12734 0.0
C587 C 0.57557 0.58337 0.12335 0.0
C588 C 0.57601 0.59804 0.10833 0.0
C589 C 0.56846 0.67974 0.13205 0.0
C590 C 0.58751 0.69095 0.13689 0.0
C591 C 0.56182 0.66492 0.11284 0.0
C592 C 0.57405 0.66091 0.09839 0.0
C593 C 0.59303 0.67231 0.10231 0.0
C594 C 0.59972 0.68734 0.12106 0.0
C595 C 0.567 0.64373 0.08162 0.0
C596 C 0.56764 0.62901 0.09461 0.0
C597 C 0.55871 0.64139 0.05416 0.0
C598 C 0.55724 0.65642 0.03997 0.0
C599 C 0.57304 0.6735 0.03448 0.0
C600 C 0.5715 0.68764 0.02128 0.0
C601 C 0.55423 0.68482 0.01331 0.0
C602 C 0.53847 0.66784 0.01844 0.0
C603 C 0.53994 0.65366 0.03165 0.0
H604 H 0.55306 0.69578 0.00309 0.0
H605 H 0.55858 0.5557 0.13895 0.0
H606 H 0.00568 0.54059 0.56016 0.0
H607 H 0.9862 0.54936 0.58721 0.0
H608 H 0.0074 0.54148 0.66767 0.0
H609 H 0.02724 0.53296 0.6407 0.0
H610 H 0.96732 0.52332 0.66279 0.0
H611 H 0.02164 0.58275 0.64981 0.0
H612 H 0.04633 0.60765 0.6211 0.0
H613 H 0.0061 0.61296 0.57123 0.0
H614 H 0.98114 0.58789 0.59939 0.0
H615 H 0.92741 0.55891 0.75829 0.0
H616 H 0.94819 0.55179 0.73164 0.0
H617 H 0.93879 0.57433 0.65372 0.0
H618 H 0.91854 0.58222 0.68086 0.0
H619 H 0.97315 0.58495 0.65667 0.0
H620 H 0.9189 0.52634 0.66654 0.0
H621 H 0.89298 0.50042 0.69174 0.0
H622 H 0.93084 0.49196 0.74274 0.0
H623 H 0.95701 0.518 0.71811 0.0
C624 C 0.00629 0.54082 0.58362 0.0
C625 C 0.01799 0.53608 0.59833 0.0
C626 C 0.99519 0.54588 0.599 0.0
C627 C 0.99542 0.54609 0.62938 0.0
C628 C 0.00708 0.54141 0.64419 0.0
C629 C 0.01844 0.53663 0.62879 0.0
C630 C 0.98304 0.5507 0.64557 0.0
C631 C 0.96871 0.53686 0.66189 0.0
C632 C 0.98452 0.56816 0.64334 0.0
C633 C 0.99952 0.58332 0.62653 0.0
C634 C 0.01805 0.58912 0.63256 0.0
C635 C 0.03209 0.60329 0.61642 0.0
C636 C 0.02778 0.61185 0.5943 0.0
C637 C 0.00942 0.6063 0.58834 0.0
C638 C 0.99532 0.59213 0.60441 0.0
C639 C 0.92966 0.56218 0.7354 0.0
C640 C 0.92124 0.57092 0.72151 0.0
C641 C 0.9415 0.55806 0.72014 0.0
C642 C 0.94481 0.56215 0.69046 0.0
C643 C 0.93644 0.57097 0.67656 0.0
C644 C 0.92484 0.57543 0.692 0.0
C645 C 0.9573 0.55756 0.67419 0.0
C646 C 0.97166 0.57138 0.65772 0.0
C647 C 0.95562 0.53994 0.67581 0.0
C648 C 0.93992 0.52424 0.69066 0.0
C649 C 0.9217 0.51904 0.68328 0.0
C650 C 0.90697 0.50431 0.69744 0.0
C651 C 0.91026 0.49458 0.71888 0.0
C652 C 0.92831 0.49953 0.72615 0.0
C653 C 0.9431 0.51426 0.71208 0.0
H654 H 0.89883 0.48317 0.72981 0.0
H655 H 0.03868 0.62281 0.58182 0.0
H656 H 0.48131 0.01375 0.08292 0.0
H657 H 0.45222 0.99602 0.10915 0.0
H658 H 0.44765 0.94565 0.07692 0.0
H659 H 0.47596 0.96341 0.04922 0.0
H660 H 0.41632 0.94157 0.07464 0.0
H661 H 0.46142 0.96336 0.15014 0.0
H662 H 0.48757 0.98615 0.17916 0.0
H663 H 0.45696 0.01269 0.20204 0.0
H664 H 0.43069 0.99017 0.17286 0.0
H665 H 0.35859 0.88404 0.19285 0.0
H666 H 0.38539 0.90288 0.16249 0.0
H667 H 0.36961 0.94426 0.15641 0.0
H668 H 0.34203 0.92505 0.18511 0.0
H669 H 0.40996 0.95334 0.17817 0.0
H670 H 0.36407 0.92834 0.10106 0.0
H671 H 0.3386 0.90272 0.07474 0.0
H672 H 0.37255 0.87884 0.05859 0.0
H673 H 0.39814 0.9042 0.08523 0.0
C674 C 0.47405 0.99889 0.08154 0.0
C675 C 0.48084 0.98993 0.06411 0.0
C676 C 0.45748 0.98874 0.09667 0.0
C677 C 0.44778 0.9694 0.09551 0.0
C678 C 0.45473 0.96051 0.07817 0.0
C679 C 0.47097 0.97067 0.06241 0.0
C680 C 0.43028 0.95835 0.11188 0.0
C681 C 0.4151 0.94412 0.09735 0.0
C682 C 0.42841 0.96164 0.14151 0.0
C683 C 0.44417 0.9752 0.15906 0.0
C684 C 0.46032 0.97414 0.16119 0.0
C685 C 0.47515 0.98699 0.17769 0.0
C686 C 0.47395 0.00089 0.19236 0.0
C687 C 0.45788 0.00193 0.19063 0.0
C688 C 0.44301 0.98912 0.17412 0.0
C689 C 0.36043 0.89689 0.18449 0.0
C690 C 0.34801 0.90295 0.19163 0.0
C691 C 0.3759 0.90772 0.16738 0.0
C692 C 0.37943 0.92493 0.15743 0.0
C693 C 0.3671 0.93102 0.1641 0.0
C694 C 0.35141 0.92004 0.18071 0.0
C695 C 0.39638 0.93678 0.14083 0.0
C696 C 0.41136 0.95103 0.1554 0.0
C697 C 0.39826 0.93321 0.11154 0.0
C698 C 0.38293 0.91804 0.09541 0.0
C699 C 0.36603 0.91752 0.09217 0.0
C700 C 0.35159 0.90308 0.07713 0.0
C701 C 0.35394 0.88913 0.06508 0.0
C702 C 0.37075 0.88964 0.06797 0.0
C703 C 0.38522 0.90405 0.08302 0.0
H704 H 0.34274 0.87796 0.05343 0.0
H705 H 0.48544 0.01083 0.20513 0.0
H706 H 0.53711 0.4561 0.50309 0.0
H707 H 0.52749 0.42544 0.52259 0.0
H708 H 0.4907 0.4308 0.58204 0.0
H709 H 0.50071 0.46149 0.56348 0.0
H710 H 0.50818 0.41829 0.60989 0.0
H711 H 0.47565 0.40304 0.51955 0.0
H712 H 0.47219 0.40349 0.46654 0.0
H713 H 0.50696 0.3801 0.45473 0.0
H714 H 0.51082 0.37973 0.5077 0.0
H715 H 0.44447 0.31387 0.61384 0.0
H716 H 0.45772 0.34222 0.58552 0.0
H717 H 0.50895 0.36273 0.6316 0.0
H718 H 0.49551 0.33503 0.66124 0.0
H719 H 0.48543 0.36206 0.54997 0.0
H720 H 0.52578 0.40731 0.64787 0.0
H721 H 0.52462 0.4061 0.70135 0.0
H722 H 0.46639 0.36853 0.69853 0.0
H723 H 0.46716 0.36973 0.64511 0.0
C724 C 0.52691 0.45065 0.52023 0.0
C725 C 0.51974 0.46122 0.53187 0.0
C726 C 0.52137 0.43311 0.53128 0.0
C727 C 0.5083 0.42574 0.55374 0.0
C728 C 0.50091 0.43621 0.5649 0.0
C729 C 0.50663 0.45377 0.55421 0.0
C730 C 0.50258 0.4074 0.56645 0.0
C731 C 0.5033 0.40604 0.5967 0.0
C732 C 0.49597 0.39132 0.54938 0.0
C733 C 0.4937 0.39155 0.51755 0.0
C734 C 0.48268 0.39814 0.50563 0.0
C735 C 0.48062 0.39835 0.4756 0.0
C736 C 0.48939 0.39188 0.45728 0.0
C737 C 0.5002 0.38514 0.46895 0.0
C738 C 0.50233 0.38491 0.49897 0.0
C739 C 0.45859 0.32438 0.61791 0.0
C740 C 0.46877 0.32227 0.64028 0.0
C741 C 0.46622 0.34049 0.60143 0.0
C742 C 0.4842 0.35475 0.60687 0.0
C743 C 0.49492 0.35203 0.62741 0.0
C744 C 0.48724 0.33605 0.64415 0.0
C745 C 0.491 0.37305 0.59329 0.0
C746 C 0.49053 0.37439 0.56301 0.0
C747 C 0.49723 0.38908 0.61035 0.0
C748 C 0.49659 0.38845 0.6425 0.0
C749 C 0.51273 0.39884 0.65869 0.0
C750 C 0.51213 0.39815 0.68898 0.0
C751 C 0.49545 0.38719 0.70332 0.0
C752 C 0.47931 0.37696 0.6874 0.0
C753 C 0.47982 0.37763 0.65712 0.0
H754 H 0.49502 0.38668 0.72675 0.0
H755 H 0.48778 0.39205 0.43403 0.0
H756 H 0.5394 0.96073 0.47795 0.0
H757 H 0.55165 0.94365 0.45284 0.0
H758 H 0.5811 0.98906 0.39379 0.0
H759 H 0.5683 0.00601 0.41829 0.0
H760 H 0.56628 0.95873 0.36479 0.0
H761 H 0.60311 0.97928 0.44982 0.0
H762 H 0.60968 0.9844 0.50212 0.0
H763 H 0.58094 0.92611 0.51677 0.0
H764 H 0.57397 0.92064 0.46459 0.0
H765 H 0.62149 0.92412 0.3078 0.0
H766 H 0.61365 0.94362 0.33684 0.0
H767 H 0.5725 0.89585 0.38255 0.0
H768 H 0.58021 0.8762 0.35339 0.0
H769 H 0.59533 0.92866 0.41833 0.0
H770 H 0.55781 0.90951 0.33139 0.0
H771 H 0.55323 0.9059 0.2785 0.0
H772 H 0.58641 0.96432 0.26734 0.0
H773 H 0.59142 0.96824 0.32016 0.0
C774 C 0.54852 0.96712 0.45966 0.0
C775 C 0.55293 0.98476 0.45016 0.0
C776 C 0.55562 0.95737 0.44542 0.0
C777 C 0.56761 0.96519 0.42175 0.0
C778 C 0.57193 0.98276 0.41207 0.0
C779 C 0.56462 0.99244 0.42609 0.0
C780 C 0.57516 0.95477 0.40665 0.0
C781 C 0.5729 0.95245 0.37652 0.0
C782 C 0.58364 0.94633 0.4219 0.0
C783 C 0.58788 0.94955 0.4533 0.0
C784 C 0.59808 0.96755 0.46421 0.0
C785 C 0.60189 0.97052 0.49384 0.0
C786 C 0.5957 0.95559 0.51276 0.0
C787 C 0.58572 0.93766 0.50208 0.0
C788 C 0.58185 0.93462 0.47248 0.0
C789 C 0.61104 0.91782 0.32446 0.0
C790 C 0.60144 0.89865 0.32837 0.0
C791 C 0.60653 0.92895 0.34089 0.0
C792 C 0.59245 0.92113 0.36167 0.0
C793 C 0.58342 0.90211 0.36661 0.0
C794 C 0.58777 0.89092 0.34989 0.0
C795 C 0.58629 0.93263 0.37676 0.0
C796 C 0.5888 0.93511 0.40678 0.0
C797 C 0.57834 0.94148 0.3614 0.0
C798 C 0.57515 0.93915 0.32969 0.0
C799 C 0.56425 0.92157 0.31763 0.0
C800 C 0.56156 0.91947 0.28767 0.0
C801 C 0.56957 0.93487 0.26956 0.0
C802 C 0.58024 0.9524 0.28139 0.0
C803 C 0.583 0.95457 0.31134 0.0
H804 H 0.56747 0.93321 0.24637 0.0
H805 H 0.59866 0.95792 0.53569 0.0
H806 H 0.5798 0.50611 0.0129 0.0
H807 H 0.61073 0.5177 0.99281 0.0
H808 H 0.59797 0.54367 0.92305 0.0
H809 H 0.56712 0.53186 0.94245 0.0
H810 H 0.61445 0.52677 0.90238 0.0
H811 H 0.6251 0.56806 0.98188 0.0
H812 H 0.62413 0.57638 0.03284 0.0
H813 H 0.65638 0.55202 0.058 0.0
H814 H 0.65733 0.54333 0.0072 0.0
H815 H 0.69996 0.58897 0.8446 0.0
H816 H 0.67156 0.57714 0.87225 0.0
H817 H 0.69001 0.54971 0.93075 0.0
H818 H 0.71898 0.56211 0.90369 0.0
H819 H 0.67132 0.56502 0.95899 0.0
H820 H 0.66195 0.52571 0.87729 0.0
H821 H 0.66346 0.51912 0.8256 0.0
H822 H 0.6288 0.54138 0.80397 0.0
H823 H 0.62729 0.54835 0.8555 0.0
C824 C 0.58361 0.51428 0.99328 0.0
C825 C 0.57097 0.51803 0.97926 0.0
C826 C 0.60131 0.52097 0.98189 0.0
C827 C 0.60673 0.53169 0.95653 0.0
C828 C 0.5941 0.53539 0.94258 0.0
C829 C 0.57644 0.52863 0.95376 0.0
C830 C 0.62541 0.53894 0.944 0.0
C831 C 0.62685 0.53525 0.91475 0.0
C832 C 0.64165 0.54964 0.96028 0.0
C833 C 0.64109 0.55485 0.9908 0.0
C834 C 0.63185 0.56434 0.99832 0.0
C835 C 0.63133 0.56915 0.02716 0.0
C836 C 0.64014 0.56468 0.04866 0.0
C837 C 0.64953 0.55544 0.04133 0.0
C838 C 0.65007 0.55058 0.01252 0.0
C839 C 0.69829 0.58086 0.86379 0.0
C840 C 0.71178 0.57645 0.87186 0.0
C841 C 0.68191 0.57393 0.8794 0.0
C842 C 0.67855 0.56228 0.9032 0.0
C843 C 0.69231 0.55858 0.9123 0.0
C844 C 0.70878 0.56557 0.8967 0.0
C845 C 0.66022 0.55316 0.91732 0.0
C846 C 0.65887 0.55641 0.94679 0.0
C847 C 0.64401 0.54217 0.90121 0.0
C848 C 0.64461 0.53766 0.87025 0.0
C849 C 0.65473 0.52929 0.8615 0.0
C850 C 0.65558 0.52547 0.83223 0.0
C851 C 0.64625 0.52985 0.81151 0.0
C852 C 0.63601 0.53799 0.82004 0.0
C853 C 0.63513 0.54186 0.84928 0.0
H854 H 0.64694 0.5269 0.78886 0.0
H855 H 0.63972 0.56842 0.07098 0.0
H856 H 0.07605 0.57767 0.52492 0.0
H857 H 0.09395 0.60653 0.49845 0.0
H858 H 0.07231 0.57789 0.41765 0.0
H859 H 0.05375 0.54922 0.44412 0.0
H860 H 0.12039 0.61826 0.4626 0.0
H861 H 0.06995 0.6048 0.3671 0.0
H862 H 0.03649 0.58885 0.35827 0.0
H863 H 0.02681 0.59394 0.4483 0.0
H864 H 0.06021 0.61013 0.45759 0.0
H865 H 0.16819 0.67979 0.34776 0.0
H866 H 0.15032 0.6536 0.37948 0.0
H867 H 0.11127 0.67194 0.39375 0.0
H868 H 0.12795 0.69704 0.35995 0.0
H869 H 0.09313 0.63826 0.38554 0.0
H870 H 0.14413 0.67508 0.44675 0.0
H871 H 0.17673 0.69365 0.46084 0.0
H872 H 0.18381 0.6469 0.44897 0.0
H873 H 0.1513 0.6281 0.43444 0.0
C874 C 0.075 0.57758 0.50151 0.0
C875 C 0.06338 0.56122 0.4866 0.0
C876 C 0.0853 0.59407 0.48639 0.0
C877 C 0.08436 0.5945 0.45603 0.0
C878 C 0.07295 0.57807 0.4411 0.0
C879 C 0.06238 0.56165 0.45624 0.0
C880 C 0.0955 0.61203 0.43996 0.0
C881 C 0.11441 0.62267 0.44582 0.0
C882 C 0.08769 0.61809 0.41852 0.0
C883 C 0.06758 0.60852 0.41307 0.0
C884 C 0.06068 0.60258 0.38498 0.0
C885 C 0.04173 0.59349 0.37991 0.0
C886 C 0.02954 0.59034 0.40273 0.0
C887 C 0.03627 0.59633 0.43066 0.0
C888 C 0.05521 0.60544 0.43585 0.0
C889 C 0.15572 0.67823 0.3574 0.0
C890 C 0.1496 0.69067 0.35101 0.0
C891 C 0.14564 0.66334 0.37601 0.0
C892 C 0.12949 0.66082 0.38938 0.0
C893 C 0.12366 0.67351 0.38374 0.0
C894 C 0.13346 0.68812 0.36465 0.0
C895 C 0.11811 0.64448 0.40798 0.0
C896 C 0.09913 0.63398 0.40247 0.0
C897 C 0.12575 0.63897 0.43052 0.0
C898 C 0.14531 0.65022 0.43926 0.0
C899 C 0.15267 0.66879 0.44695 0.0
C900 C 0.17113 0.67936 0.45504 0.0
C901 C 0.18235 0.67147 0.45574 0.0
C902 C 0.17511 0.653 0.4484 0.0
C903 C 0.15666 0.64237 0.44026 0.0
H904 H 0.19664 0.67968 0.46201 0.0
H905 H 0.01487 0.58329 0.39875 0.0
H906 H 0.49368 0.01172 0.91168 0.0
H907 H 0.48317 0.02897 0.88229 0.0
H908 H 0.50155 0.07074 0.94842 0.0
H909 H 0.51173 0.05353 0.97802 0.0
H910 H 0.46856 0.06261 0.92951 0.0
H911 H 0.52631 0.07689 0.88589 0.0
H912 H 0.54857 0.06981 0.86289 0.0
H913 H 0.51097 0.04279 0.79285 0.0
H914 H 0.48833 0.04942 0.81566 0.0
H915 H 0.46761 0.13401 0.84777 0.0
H916 H 0.47701 0.11569 0.87672 0.0
H917 H 0.45733 0.07433 0.80984 0.0
H918 H 0.44848 0.09278 0.78045 0.0
H919 H 0.49043 0.0817 0.8287 0.0
H920 H 0.43285 0.06776 0.87224 0.0
H921 H 0.41063 0.07486 0.89533 0.0
H922 H 0.44819 0.10152 0.9656 0.0
H923 H 0.47074 0.09479 0.94272 0.0
C924 C 0.49546 0.02457 0.91994 0.0
C925 C 0.50356 0.03124 0.94718 0.0
C926 C 0.48952 0.03446 0.90308 0.0
C927 C 0.49173 0.05125 0.91304 0.0
C928 C 0.49968 0.05782 0.9403 0.0
C929 C 0.50554 0.04795 0.95717 0.0
C930 C 0.48575 0.06204 0.89527 0.0
C931 C 0.47351 0.06696 0.90758 0.0
C932 C 0.4919 0.06741 0.86644 0.0
C933 C 0.50554 0.06349 0.85265 0.0
C934 C 0.52272 0.06931 0.8657 0.0
C935 C 0.53542 0.0654 0.85269 0.0
C936 C 0.53117 0.05583 0.82648 0.0
C937 C 0.51423 0.05018 0.81318 0.0
C938 C 0.50146 0.05401 0.82614 0.0
C939 C 0.46534 0.12104 0.83921 0.0
C940 C 0.45716 0.1148 0.81189 0.0
C941 C 0.47058 0.11052 0.85587 0.0
C942 C 0.46769 0.09354 0.84557 0.0
C943 C 0.45963 0.08735 0.81827 0.0
C944 C 0.45439 0.09783 0.80163 0.0
C945 C 0.47329 0.0823 0.86299 0.0
C946 C 0.48546 0.07731 0.85062 0.0
C947 C 0.46711 0.0769 0.89178 0.0
C948 C 0.45355 0.08092 0.90562 0.0
C949 C 0.43643 0.07526 0.8925 0.0
C950 C 0.42376 0.0792 0.90557 0.0
C951 C 0.42802 0.08868 0.93187 0.0
C952 C 0.44493 0.0942 0.9452 0.0
C953 C 0.45765 0.09031 0.93221 0.0
H954 H 0.41819 0.09171 0.94196 0.0
H955 H 0.54103 0.05283 0.81643 0.0
H956 H 0.47621 0.52168 0.52647 0.0
H957 H 0.44562 0.51162 0.50613 0.0
H958 H 0.44671 0.46639 0.46364 0.0
H959 H 0.47744 0.47692 0.48265 0.0
H960 H 0.43687 0.48216 0.42695 0.0
H961 H 0.41868 0.46191 0.52548 0.0
H962 H 0.41874 0.46549 0.57854 0.0
H963 H 0.40087 0.50491 0.56839 0.0
H964 H 0.40092 0.50173 0.51523 0.0
H965 H 0.34619 0.42639 0.38323 0.0
H966 H 0.37279 0.43727 0.41511 0.0
H967 H 0.37217 0.48759 0.42985 0.0
H968 H 0.34529 0.4767 0.39801 0.0
H969 H 0.38132 0.47178 0.48099 0.0
H970 H 0.39894 0.49053 0.38152 0.0
H971 H 0.39772 0.48504 0.32886 0.0
H972 H 0.41614 0.44626 0.34202 0.0
H973 H 0.41716 0.45129 0.39484 0.0
C974 C 0.46976 0.50949 0.51303 0.0
C975 C 0.47919 0.50014 0.50593 0.0
C976 C 0.45227 0.50369 0.50152 0.0
C977 C 0.44377 0.48817 0.48339 0.0
C978 C 0.45299 0.47848 0.47733 0.0
C979 C 0.47055 0.48449 0.48824 0.0
C980 C 0.42585 0.48251 0.46908 0.0
C981 C 0.42472 0.4797 0.43897 0.0
C982 C 0.41005 0.47982 0.48444 0.0
C983 C 0.41 0.48173 0.51638 0.0
C984 C 0.4149 0.47145 0.53456 0.0
C985 C 0.41489 0.47339 0.56465 0.0
C986 C 0.40986 0.48546 0.57682 0.0
C987 C 0.40479 0.49559 0.55893 0.0
C988 C 0.40479 0.49371 0.52882 0.0
C989 C 0.35134 0.43954 0.39389 0.0
C990 C 0.3437 0.45074 0.388 0.0
C991 C 0.36659 0.44576 0.41199 0.0
C992 C 0.37447 0.46327 0.42458 0.0
C993 C 0.36623 0.47403 0.4203 0.0
C994 C 0.351 0.46786 0.40198 0.0
C995 C 0.39245 0.47097 0.43934 0.0
C996 C 0.39358 0.4743 0.46925 0.0
C997 C 0.40827 0.47397 0.42395 0.0
C998 C 0.40797 0.47117 0.39215 0.0
C999 C 0.4026 0.48073 0.3732 0.0
C1000 C 0.40196 0.47772 0.34332 0.0
C1001 C 0.40681 0.46528 0.3321 0.0
C1002 C 0.41237 0.45588 0.35074 0.0
C1003 C 0.41299 0.45882 0.38065 0.0
H1004 H 0.4063 0.46296 0.30897 0.0
H1005 H 0.40986 0.48694 0.60012 0.0
H1006 H 0.01245 0.4684 0.94399 0.0
H1007 H 0.99397 0.44095 0.91463 0.0
H1008 H 0.95855 0.41432 0.988 0.0
H1009 H 0.97666 0.44178 0.01725 0.0
H1010 H 0.98624 0.40639 0.91804 0.0
H1011 H 0.91486 0.38709 0.96539 0.0
H1012 H 0.89922 0.40236 0.98744 0.0
H1013 H 0.93581 0.45235 0.94248 0.0
H1014 H 0.95148 0.43733 0.91996 0.0
H1015 H 0.92154 0.31688 0.87074 0.0
H1016 H 0.93892 0.34366 0.90197 0.0
H1017 H 0.91827 0.37347 0.85366 0.0
H1018 H 0.90078 0.34673 0.82253 0.0
H1019 H 0.91879 0.38049 0.90954 0.0
H1020 H 0.96125 0.37985 0.84069 0.0
H1021 H 0.97727 0.36645 0.81424 0.0
H1022 H 0.99947 0.35989 0.8942 0.0
H1023 H 0.98335 0.37302 0.92117 0.0
C1024 C 0.00075 0.45668 0.95389 0.0
C1025 C 0.99596 0.45734 0.98291 0.0
C1026 C 0.99022 0.44099 0.9371 0.0
C1027 C 0.97473 0.42566 0.94899 0.0
C1028 C 0.97024 0.4261 0.97818 0.0
C1029 C 0.98066 0.44181 0.99491 0.0
C1030 C 0.96314 0.40929 0.93081 0.0
C1031 C 0.97149 0.40072 0.91624 0.0
C1032 C 0.94393 0.40204 0.92802 0.0
C1033 C 0.93445 0.41113 0.94124 0.0
C1034 C 0.91951 0.40133 0.96016 0.0
C1035 C 0.91065 0.40994 0.97276 0.0
C1036 C 0.91655 0.42833 0.96647 0.0
C1037 C 0.93129 0.43813 0.94748 0.0
C1038 C 0.94018 0.42958 0.93481 0.0
C1039 C 0.92064 0.32912 0.86689 0.0
C1040 C 0.90986 0.32973 0.84409 0.0
C1041 C 0.93059 0.34441 0.88471 0.0
C1042 C 0.93014 0.36067 0.87985 0.0
C1043 C 0.91884 0.36107 0.85781 0.0
C1044 C 0.9088 0.34576 0.8401 0.0
C1045 C 0.94185 0.37746 0.89709 0.0
C1046 C 0.93353 0.38611 0.91148 0.0
C1047 C 0.96115 0.38503 0.89915 0.0
C1048 C 0.97095 0.37725 0.88297 0.0
C1049 C 0.96944 0.37543 0.85265 0.0
C1050 C 0.97855 0.3679 0.83756 0.0
C1051 C 0.98935 0.36228 0.85254 0.0
C1052 C 0.99109 0.36423 0.88263 0.0
C1053 C 0.98198 0.37172 0.89783 0.0
H1054 H 0.99639 0.35645 0.84082 0.0
H1055 H 0.90967 0.43496 0.97627 0.0
H1056 H 0.95815 0.50143 0.06235 0.0
H1057 H 0.93913 0.51433 0.04573 0.0
H1058 H 0.97815 0.54322 0.97728 0.0
H1059 H 0.99703 0.53054 0.99349 0.0
H1060 H 0.96763 0.56523 0.00656 0.0
H1061 H 0.939 0.50352 0.96386 0.0
H1062 H 0.92311 0.46973 0.96677 0.0
H1063 H 0.87993 0.4693 0.01733 0.0
H1064 H 0.89571 0.50317 0.01497 0.0
H1065 H 0.9333 0.58466 0.88428 0.0
H1066 H 0.94552 0.57361 0.92194 0.0
H1067 H 0.89347 0.54908 0.96694 0.0
H1068 H 0.88102 0.56026 0.92896 0.0
H1069 H 0.90602 0.52554 0.96338 0.0
H1070 H 0.93082 0.58655 0.99599 0.0
H1071 H 0.94614 0.62031 0.99283 0.0
H1072 H 0.99584 0.62265 0.96365 0.0
H1073 H 0.98076 0.58888 0.96617 0.0
C1074 C 0.96264 0.51055 0.04378 0.0
C1075 C 0.97907 0.5149 0.02918 0.0
C1076 C 0.95178 0.51789 0.03433 0.0
C1077 C 0.95726 0.52974 0.01029 0.0
C1078 C 0.97371 0.53419 0.99597 0.0
C1079 C 0.98444 0.52681 0.00519 0.0
C1080 C 0.94597 0.53743 0.99916 0.0
C1081 C 0.95413 0.55659 0.99717 0.0
C1082 C 0.92804 0.52615 0.98811 0.0
C1083 C 0.91865 0.50585 0.98959 0.0
C1084 C 0.92621 0.49622 0.97583 0.0
C1085 C 0.9172 0.47705 0.97733 0.0
C1086 C 0.90055 0.46735 0.99232 0.0
C1087 C 0.89285 0.47682 0.00579 0.0
C1088 C 0.90181 0.496 0.00437 0.0
C1089 C 0.92452 0.57729 0.90249 0.0
C1090 C 0.90624 0.57355 0.90377 0.0
C1091 C 0.93154 0.57095 0.92405 0.0
C1092 C 0.92054 0.56082 0.9476 0.0
C1093 C 0.90225 0.557 0.94907 0.0
C1094 C 0.89515 0.56334 0.92734 0.0
C1095 C 0.9281 0.55338 0.96938 0.0
C1096 C 0.91926 0.53428 0.9735 0.0
C1097 C 0.94537 0.56475 0.98264 0.0
C1098 C 0.9546 0.58513 0.9812 0.0
C1099 C 0.94498 0.59424 0.98873 0.0
C1100 C 0.95363 0.61339 0.98706 0.0
C1101 C 0.97194 0.62362 0.97803 0.0
C1102 C 0.98166 0.61471 0.97067 0.0
C1103 C 0.97307 0.59556 0.97227 0.0
H1104 H 0.97861 0.63845 0.97675 0.0
H1105 H 0.89358 0.45251 0.99344 0.0
H1106 H 0.48375 0.97039 0.4453 0.0
H1107 H 0.45241 0.95079 0.42815 0.0
H1108 H 0.43313 0.93801 0.51649 0.0
H1109 H 0.46481 0.95718 0.53386 0.0
H1110 H 0.41477 0.90856 0.48437 0.0
H1111 H 0.42823 0.97023 0.47759 0.0
H1112 H 0.44612 0.00313 0.46502 0.0
H1113 H 0.44156 0.98951 0.37459 0.0
H1114 H 0.42387 0.95649 0.38663 0.0
H1115 H 0.33415 0.90415 0.38779 0.0
H1116 H 0.359 0.91939 0.42247 0.0
H1117 H 0.37474 0.87841 0.40788 0.0
H1118 H 0.34881 0.86206 0.37526 0.0
H1119 H 0.39227 0.93611 0.4116 0.0
H1120 H 0.40103 0.87666 0.4604 0.0
H1121 H 0.38138 0.84498 0.4782 0.0
H1122 H 0.33749 0.85606 0.49431 0.0
H1123 H 0.35694 0.88787 0.47701 0.0
C1124 C 0.47287 0.96332 0.46111 0.0
C1125 C 0.47669 0.96548 0.49093 0.0
C1126 C 0.45493 0.95217 0.45128 0.0
C1127 C 0.44032 0.9433 0.47103 0.0
C1128 C 0.44417 0.94482 0.50085 0.0
C1129 C 0.46224 0.95578 0.51074 0.0
C1130 C 0.4211 0.93296 0.46023 0.0
C1131 C 0.40976 0.91456 0.46857 0.0
C1132 C 0.41429 0.941 0.44047 0.0
C1133 C 0.42481 0.96087 0.43304 0.0
C1134 C 0.43113 0.97424 0.45503 0.0
C1135 C 0.44123 0.99291 0.448 0.0
C1136 C 0.445 0.99841 0.41903 0.0
C1137 C 0.43864 0.98523 0.39702 0.0
C1138 C 0.42855 0.96653 0.40394 0.0
C1139 C 0.34237 0.89788 0.39272 0.0
C1140 C 0.33942 0.88184 0.37834 0.0
C1141 C 0.35681 0.90681 0.41239 0.0
C1142 C 0.36888 0.90016 0.41788 0.0
C1143 C 0.36554 0.88376 0.4045 0.0
C1144 C 0.35083 0.87456 0.38532 0.0
C1145 C 0.386 0.91138 0.4349 0.0
C1146 C 0.39703 0.93004 0.4277 0.0
C1147 C 0.39216 0.90372 0.45649 0.0
C1148 C 0.38042 0.88463 0.46718 0.0
C1149 C 0.38722 0.87237 0.46788 0.0
C1150 C 0.37611 0.85438 0.47785 0.0
C1151 C 0.35819 0.8485 0.48731 0.0
C1152 C 0.35135 0.86061 0.48689 0.0
C1153 C 0.36241 0.87862 0.47695 0.0
H1154 H 0.34961 0.83456 0.49501 0.0
H1155 H 0.45283 0.01287 0.41363 0.0
H1156 H 0.4774 0.46492 0.91336 0.0
H1157 H 0.46673 0.43621 0.88619 0.0
H1158 H 0.50078 0.42295 0.93908 0.0
H1159 H 0.5113 0.45131 0.96644 0.0
H1160 H 0.50398 0.41902 0.87848 0.0
H1161 H 0.45726 0.4017 0.95264 0.0
H1162 H 0.43344 0.40455 0.97961 0.0
H1163 H 0.40271 0.39576 0.90112 0.0
H1164 H 0.42651 0.39312 0.8736 0.0
H1165 H 0.47304 0.32674 0.84401 0.0
H1166 H 0.48083 0.35483 0.87082 0.0
H1167 H 0.43844 0.35926 0.82507 0.0
H1168 H 0.4304 0.33103 0.79859 0.0
H1169 H 0.43892 0.36857 0.87968 0.0
H1170 H 0.48389 0.38494 0.80513 0.0
H1171 H 0.5075 0.3829 0.77616 0.0
H1172 H 0.54138 0.39487 0.85174 0.0
H1173 H 0.51784 0.3967 0.88129 0.0
C1174 C 0.48258 0.45586 0.91918 0.0
C1175 C 0.49515 0.46035 0.94209 0.0
C1176 C 0.47645 0.43948 0.90372 0.0
C1177 C 0.48296 0.42748 0.91073 0.0
C1178 C 0.49562 0.43204 0.93335 0.0
C1179 C 0.50154 0.44822 0.94903 0.0
C1180 C 0.47671 0.41014 0.89454 0.0
C1181 C 0.48979 0.4079 0.87893 0.0
C1182 C 0.45811 0.39593 0.89447 0.0
C1183 C 0.44377 0.39742 0.91102 0.0
C1184 C 0.44551 0.40054 0.94109 0.0
C1185 C 0.432 0.40208 0.95648 0.0
C1186 C 0.4166 0.40039 0.94207 0.0
C1187 C 0.41466 0.3971 0.91225 0.0
C1188 C 0.42815 0.39557 0.89675 0.0
C1189 C 0.46532 0.33365 0.83984 0.0
C1190 C 0.45116 0.32672 0.81916 0.0
C1191 C 0.46981 0.34972 0.85509 0.0
C1192 C 0.46045 0.35936 0.84956 0.0
C1193 C 0.44586 0.35209 0.82968 0.0
C1194 C 0.44125 0.33592 0.81463 0.0
C1195 C 0.46625 0.37727 0.86388 0.0
C1196 C 0.4531 0.37968 0.87907 0.0
C1197 C 0.48477 0.39179 0.86321 0.0
C1198 C 0.49902 0.39079 0.84548 0.0
C1199 C 0.49632 0.38701 0.81562 0.0
C1200 C 0.50969 0.38591 0.79909 0.0
C1201 C 0.52591 0.38872 0.81211 0.0
C1202 C 0.5288 0.39267 0.84169 0.0
C1203 C 0.51545 0.39376 0.85834 0.0
H1204 H 0.53625 0.38786 0.79927 0.0
H1205 H 0.40615 0.40159 0.95403 0.0
H1206 H 0.08017 0.51154 0.48194 0.0
H1207 H 0.09975 0.50026 0.46289 0.0
H1208 H 0.11019 0.48886 0.5498 0.0
H1209 H 0.09096 0.50086 0.5692 0.0
H1210 H 0.14054 0.50074 0.51618 0.0
H1211 H 0.07761 0.45449 0.50989 0.0
H1212 H 0.04475 0.44159 0.4984 0.0
H1213 H 0.05793 0.4528 0.40804 0.0
H1214 H 0.09092 0.46603 0.41904 0.0
H1215 H 0.13911 0.42422 0.41297 0.0
H1216 H 0.12579 0.43434 0.45032 0.0
H1217 H 0.16779 0.49066 0.435 0.0
H1218 H 0.18216 0.48052 0.39922 0.0
H1219 H 0.11003 0.45237 0.44136 0.0
H1220 H 0.17215 0.51835 0.49068 0.0
H1221 H 0.20399 0.52893 0.50629 0.0
H1222 H 0.19086 0.47299 0.51828 0.0
H1223 H 0.15889 0.46208 0.50315 0.0
C1224 C 0.08679 0.50683 0.49705 0.0
C1225 C 0.08384 0.50681 0.52702 0.0
C1226 C 0.09796 0.50036 0.48614 0.0
C1227 C 0.10604 0.49328 0.50488 0.0
C1228 C 0.10397 0.49416 0.53496 0.0
C1229 C 0.09298 0.50097 0.54599 0.0
C1230 C 0.11552 0.48392 0.49258 0.0
C1231 C 0.13392 0.49009 0.49992 0.0
C1232 C 0.10663 0.46956 0.47215 0.0
C1233 C 0.08676 0.46134 0.46533 0.0
C1234 C 0.07351 0.45428 0.48759 0.0
C1235 C 0.05486 0.44691 0.48116 0.0
C1236 C 0.04926 0.4464 0.45251 0.0
C1237 C 0.0623 0.45321 0.43022 0.0
C1238 C 0.08097 0.46062 0.43654 0.0
C1239 C 0.14602 0.43871 0.41822 0.0
C1240 C 0.16171 0.45154 0.40273 0.0
C1241 C 0.1382 0.44451 0.43946 0.0
C1242 C 0.14569 0.46328 0.44552 0.0
C1243 C 0.16183 0.47607 0.4311 0.0
C1244 C 0.16988 0.47025 0.4102 0.0
C1245 C 0.13541 0.46955 0.46411 0.0
C1246 C 0.11674 0.46281 0.4579 0.0
C1247 C 0.14395 0.48293 0.48617 0.0
C1248 C 0.16314 0.4894 0.49554 0.0
C1249 C 0.17603 0.50831 0.49678 0.0
C1250 C 0.19411 0.51436 0.50552 0.0
C1251 C 0.19946 0.50164 0.5132 0.0
C1252 C 0.18672 0.48283 0.51223 0.0
C1253 C 0.16862 0.47671 0.50352 0.0
H1254 H 0.21346 0.50635 0.51994 0.0
H1255 H 0.03482 0.4407 0.44758 0.0
H1256 H 0.5801 0.07519 0.01396 0.0
H1257 H 0.61116 0.09574 0.99471 0.0
H1258 H 0.61192 0.04923 0.95689 0.0
H1259 H 0.58076 0.02878 0.9751 0.0
H1260 H 0.64661 0.07959 0.99126 0.0
H1261 H 0.60207 0.06744 0.9124 0.0
H1262 H 0.5746 0.06739 0.89338 0.0
H1263 H 0.59938 0.12508 0.91145 0.0
H1264 H 0.62688 0.12537 0.93102 0.0
H1265 H 0.71478 0.1082 0.88393 0.0
H1266 H 0.68839 0.09418 0.9161 0.0
H1267 H 0.68119 0.14126 0.90626 0.0
H1268 H 0.70625 0.15443 0.87141 0.0
H1269 H 0.65036 0.11412 0.90187 0.0
H1270 H 0.69658 0.12925 0.9725 0.0
H1271 H 0.72417 0.13153 0.99533 0.0
H1272 H 0.69788 0.07268 0.99888 0.0
H1273 H 0.67021 0.07002 0.9757 0.0
C1274 C 0.58701 0.06938 0.00179 0.0
C1275 C 0.57805 0.05045 0.99581 0.0
C1276 C 0.60469 0.08109 0.99087 0.0
C1277 C 0.61374 0.07392 0.9745 0.0
C1278 C 0.60513 0.05495 0.9696 0.0
C1279 C 0.58733 0.04334 0.97984 0.0
C1280 C 0.63162 0.08622 0.96051 0.0
C1281 C 0.64757 0.08716 0.97166 0.0
C1282 C 0.63279 0.09654 0.93568 0.0
C1283 C 0.6164 0.09637 0.9235 0.0
C1284 C 0.60157 0.08007 0.91257 0.0
C1285 C 0.58602 0.08 0.90164 0.0
C1286 C 0.58522 0.09621 0.90131 0.0
C1287 C 0.6 0.11253 0.91179 0.0
C1288 C 0.61557 0.11265 0.92279 0.0
C1289 C 0.70756 0.11559 0.88831 0.0
C1290 C 0.71269 0.13244 0.87451 0.0
C1291 C 0.69261 0.10767 0.90736 0.0
C1292 C 0.6828 0.1167 0.91409 0.0
C1293 C 0.68845 0.13394 0.90149 0.0
C1294 C 0.70307 0.14163 0.88177 0.0
C1295 C 0.66578 0.10746 0.93216 0.0
C1296 C 0.6498 0.10697 0.92175 0.0
C1297 C 0.66474 0.09795 0.95816 0.0
C1298 C 0.68135 0.09945 0.97216 0.0
C1299 C 0.69672 0.11679 0.97796 0.0
C1300 C 0.71237 0.11814 0.991 0.0
C1301 C 0.71279 0.10226 0.99851 0.0
C1302 C 0.69754 0.08497 0.99305 0.0
C1303 C 0.68185 0.08353 0.97999 0.0
H1304 H 0.72492 0.10334 0.00859 0.0
H1305 H 0.57317 0.09615 0.89289 0.0
H1306 H 0.56029 0.57482 0.49553 0.0
H1307 H 0.56787 0.60207 0.46664 0.0
H1308 H 0.55295 0.56931 0.3887 0.0
H1309 H 0.54641 0.54225 0.41747 0.0
H1310 H 0.58031 0.59975 0.37658 0.0
H1311 H 0.52375 0.58316 0.4236 0.0
H1312 H 0.50198 0.57502 0.46435 0.0
H1313 H 0.53662 0.62788 0.50287 0.0
H1314 H 0.55874 0.63624 0.46253 0.0
H1315 H 0.55692 0.67518 0.32807 0.0
H1316 H 0.54909 0.64766 0.35626 0.0
H1317 H 0.60639 0.66305 0.35896 0.0
H1318 H 0.61414 0.68954 0.32868 0.0
H1319 H 0.55544 0.63982 0.40622 0.0
H1320 H 0.61242 0.62693 0.35889 0.0
H1321 H 0.62951 0.63186 0.31311 0.0
H1322 H 0.58564 0.63231 0.26612 0.0
H1323 H 0.56819 0.62713 0.31154 0.0
C1324 C 0.55879 0.5735 0.4722 0.0
C1325 C 0.55271 0.55643 0.45873 0.0
C1326 C 0.56297 0.58905 0.4557 0.0
C1327 C 0.56055 0.58773 0.42549 0.0
C1328 C 0.5549 0.57074 0.41196 0.0
C1329 C 0.55116 0.55527 0.4284 0.0
C1330 C 0.56383 0.60401 0.40804 0.0
C1331 C 0.57484 0.60848 0.3831 0.0
C1332 C 0.55627 0.61518 0.41591 0.0
C1333 C 0.54298 0.61026 0.44017 0.0
C1334 C 0.52678 0.593 0.44086 0.0
C1335 C 0.51438 0.58835 0.46387 0.0
C1336 C 0.51794 0.60091 0.48622 0.0
C1337 C 0.53389 0.61816 0.48556 0.0
C1338 C 0.54636 0.62287 0.46261 0.0
C1339 C 0.56787 0.67264 0.3343 0.0
C1340 C 0.58617 0.68462 0.32561 0.0
C1341 C 0.56337 0.65695 0.35077 0.0
C1342 C 0.57708 0.653 0.35925 0.0
C1343 C 0.59546 0.66548 0.35206 0.0
C1344 C 0.59992 0.68091 0.3351 0.0
C1345 C 0.57218 0.63571 0.37508 0.0
C1346 C 0.56087 0.63106 0.39971 0.0
C1347 C 0.57876 0.62389 0.36616 0.0
C1348 C 0.58909 0.62682 0.33868 0.0
C1349 C 0.60639 0.62801 0.33877 0.0
C1350 C 0.61615 0.63086 0.31289 0.0
C1351 C 0.60869 0.63246 0.28674 0.0
C1352 C 0.59143 0.63114 0.2864 0.0
C1353 C 0.58161 0.62826 0.31221 0.0
H1354 H 0.61627 0.63469 0.26673 0.0
H1355 H 0.50832 0.59729 0.50402 0.0
H1356 H 0.5138 0.0554 0.47315 0.0
H1357 H 0.503 0.07588 0.49121 0.0
H1358 H 0.51038 0.06327 0.57916 0.0
H1359 H 0.52036 0.04245 0.56138 0.0
H1360 H 0.47884 0.06088 0.5751 0.0
H1361 H 0.54053 0.1053 0.54274 0.0
H1362 H 0.56545 0.12039 0.50669 0.0
H1363 H 0.53149 0.13409 0.45508 0.0
H1364 H 0.50628 0.11888 0.49069 0.0
H1365 H 0.4883 0.13054 0.66566 0.0
H1366 H 0.49735 0.11398 0.63239 0.0
H1367 H 0.46841 0.12286 0.56292 0.0
H1368 H 0.45931 0.13976 0.59629 0.0
H1369 H 0.50629 0.12683 0.54963 0.0
H1370 H 0.44593 0.08496 0.58781 0.0
H1371 H 0.42297 0.07136 0.62703 0.0
H1372 H 0.45669 0.05376 0.67048 0.0
H1373 H 0.48 0.06753 0.63174 0.0
C1374 C 0.51319 0.05714 0.49631 0.0
C1375 C 0.51779 0.04725 0.51587 0.0
C1376 C 0.50707 0.06886 0.50661 0.0
C1377 C 0.50588 0.07115 0.53659 0.0
C1378 C 0.51097 0.06161 0.55596 0.0
C1379 C 0.51672 0.04972 0.54576 0.0
C1380 C 0.49887 0.08294 0.5484 0.0
C1381 C 0.48492 0.0753 0.56947 0.0
C1382 C 0.50632 0.10164 0.54052 0.0
C1383 C 0.52146 0.11076 0.51916 0.0
C1384 C 0.53833 0.1114 0.52358 0.0
C1385 C 0.55252 0.12 0.50326 0.0
C1386 C 0.55004 0.12813 0.47856 0.0
C1387 C 0.53338 0.12774 0.47418 0.0
C1388 C 0.51915 0.11915 0.49443 0.0
C1389 C 0.48424 0.12944 0.64316 0.0
C1390 C 0.47311 0.1365 0.63359 0.0
C1391 C 0.48935 0.11988 0.62421 0.0
C1392 C 0.48347 0.11717 0.59532 0.0
C1393 C 0.47309 0.12489 0.58518 0.0
C1394 C 0.46782 0.13439 0.60427 0.0
C1395 C 0.48693 0.10483 0.5769 0.0
C1396 C 0.50005 0.11231 0.55466 0.0
C1397 C 0.47893 0.086 0.5839 0.0
C1398 C 0.46476 0.07737 0.60694 0.0
C1399 C 0.4485 0.07829 0.60582 0.0
C1400 C 0.43542 0.07054 0.62796 0.0
C1401 C 0.43838 0.06172 0.65125 0.0
C1402 C 0.45441 0.06059 0.65242 0.0
C1403 C 0.46755 0.06835 0.63036 0.0
H1404 H 0.42824 0.05574 0.66838 0.0
H1405 H 0.56104 0.13478 0.46286 0.0
H1406 H 0.46361 0.49302 0.02955 0.0
H1407 H 0.43681 0.48414 0.06008 0.0
H1408 H 0.45909 0.46367 0.1248 0.0
H1409 H 0.48637 0.47299 0.09447 0.0
H1410 H 0.41076 0.45281 0.07919 0.0
H1411 H 0.44553 0.46979 0.19202 0.0
H1412 H 0.47574 0.49088 0.21376 0.0
H1413 H 0.4878 0.52923 0.1442 0.0
H1414 H 0.45755 0.50851 0.1223 0.0
H1415 H 0.34152 0.41603 0.18712 0.0
H1416 H 0.36841 0.42435 0.15696 0.0
H1417 H 0.39014 0.48149 0.17844 0.0
H1418 H 0.36389 0.47317 0.21026 0.0
H1419 H 0.41656 0.47438 0.18073 0.0
H1420 H 0.36974 0.46256 0.11102 0.0
H1421 H 0.33966 0.44485 0.08688 0.0
H1422 H 0.35181 0.40226 0.06607 0.0
H1423 H 0.38188 0.41962 0.09043 0.0
C1424 C 0.46287 0.48661 0.05026 0.0
C1425 C 0.4772 0.48377 0.0596 0.0
C1426 C 0.44746 0.48148 0.06767 0.0
C1427 C 0.44595 0.47336 0.09484 0.0
C1428 C 0.46007 0.47017 0.10409 0.0
C1429 C 0.47562 0.47543 0.0867 0.0
C1430 C 0.42962 0.46842 0.11334 0.0
C1431 C 0.41203 0.45747 0.10143 0.0
C1432 C 0.43124 0.47481 0.14217 0.0
C1433 C 0.44936 0.48749 0.15537 0.0
C1434 C 0.4546 0.48275 0.18143 0.0
C1435 C 0.47173 0.49464 0.19377 0.0
C1436 C 0.48371 0.51135 0.18031 0.0
C1437 C 0.47854 0.51625 0.15455 0.0
C1438 C 0.46141 0.50443 0.14215 0.0
C1439 C 0.35206 0.43037 0.18565 0.0
C1440 C 0.35046 0.44391 0.20124 0.0
C1441 C 0.36737 0.43513 0.16807 0.0
C1442 C 0.38126 0.45358 0.16512 0.0
C1443 C 0.37961 0.46716 0.18033 0.0
C1444 C 0.36442 0.46238 0.19823 0.0
C1445 C 0.39766 0.45872 0.14659 0.0
C1446 C 0.41526 0.46964 0.15852 0.0
C1447 C 0.39606 0.45278 0.11747 0.0
C1448 C 0.37798 0.44231 0.1028 0.0
C1449 C 0.36594 0.44935 0.10149 0.0
C1450 C 0.3489 0.43939 0.08773 0.0
C1451 C 0.3438 0.42242 0.07502 0.0
C1452 C 0.35576 0.4154 0.07597 0.0
C1453 C 0.37281 0.4253 0.08972 0.0
H1454 H 0.33061 0.41473 0.06438 0.0
H1455 H 0.49697 0.52052 0.18989 0.0
H1456 H 0.98098 0.45785 0.51943 0.0
H1457 H 0.95995 0.42623 0.53557 0.0
H1458 H 1.00026 0.43057 0.59767 0.0
H1459 H 0.02117 0.46209 0.58202 0.0
H1460 H 0.98303 0.39687 0.56634 0.0
H1461 H 0.96737 0.43674 0.6207 0.0
H1462 H 0.95789 0.46007 0.6251 0.0
H1463 H 0.90832 0.42524 0.57804 0.0
H1464 H 0.91765 0.4018 0.57302 0.0
H1465 H 0.93822 0.33168 0.67626 0.0
H1466 H 0.95588 0.35825 0.64506 0.0
H1467 H 0.90569 0.34929 0.60473 0.0
H1468 H 0.88786 0.32291 0.63682 0.0
H1469 H 0.92547 0.38349 0.61699 0.0
H1470 H 0.93857 0.34155 0.56831 0.0
H1471 H 0.94778 0.31808 0.56305 0.0
H1472 H 0.00134 0.3558 0.59669 0.0
H1473 H 0.99239 0.37944 0.60254 0.0
C1474 C 0.98539 0.452 0.53637 0.0
C1475 C 0.00266 0.46249 0.54961 0.0
C1476 C 0.97337 0.43397 0.54556 0.0
C1477 C 0.97856 0.42613 0.56786 0.0
C1478 C 0.99602 0.43638 0.5804 0.0
C1479 C 0.0079 0.45442 0.57153 0.0
C1480 C 0.96561 0.40757 0.57931 0.0
C1481 C 0.97045 0.39388 0.57749 0.0
C1482 C 0.94895 0.4036 0.59302 0.0
C1483 C 0.94331 0.41764 0.59616 0.0
C1484 C 0.95453 0.43413 0.61107 0.0
C1485 C 0.94917 0.44736 0.61372 0.0
C1486 C 0.93254 0.44417 0.60178 0.0
C1487 C 0.92121 0.42771 0.58723 0.0
C1488 C 0.92653 0.41445 0.58448 0.0
C1489 C 0.93097 0.33514 0.66032 0.0
C1490 C 0.91167 0.32516 0.65881 0.0
C1491 C 0.94109 0.35033 0.6424 0.0
C1492 C 0.93219 0.35566 0.6221 0.0
C1493 C 0.9129 0.34545 0.62014 0.0
C1494 C 0.90273 0.33038 0.63841 0.0
C1495 C 0.94298 0.37267 0.60461 0.0
C1496 C 0.9378 0.38618 0.60534 0.0
C1497 C 0.95925 0.37639 0.58963 0.0
C1498 C 0.96475 0.36224 0.58602 0.0
C1499 C 0.95228 0.34481 0.57476 0.0
C1500 C 0.95746 0.33148 0.57165 0.0
C1501 C 0.97512 0.33544 0.57957 0.0
C1502 C 0.98766 0.35276 0.59056 0.0
C1503 C 0.98255 0.36614 0.59374 0.0
H1504 H 0.97911 0.32509 0.57715 0.0
H1505 H 0.92841 0.45442 0.60386 0.0
H1506 H 0.55315 0.98938 0.06118 0.0
H1507 H 0.56402 0.96945 0.08011 0.0
H1508 H 0.53492 0.93003 0.01253 0.0
H1509 H 0.52395 0.95006 0.99316 0.0
H1510 H 0.53009 0.91449 0.0692 0.0
H1511 H 0.5789 0.95415 0.00564 0.0
H1512 H 0.60176 0.98388 0.98442 0.0
H1513 H 0.62826 0.00165 0.06708 0.0
H1514 H 0.60539 0.97212 0.08893 0.0
H1515 H 0.57439 0.86544 0.12008 0.0
H1516 H 0.56297 0.88058 0.0875 0.0
H1517 H 0.59298 0.93084 0.13627 0.0
H1518 H 0.60443 0.91592 0.16854 0.0
H1519 H 0.59702 0.93805 0.08016 0.0
H1520 H 0.54621 0.90139 0.1451 0.0
H1521 H 0.52292 0.8726 0.16833 0.0
H1522 H 0.50003 0.85004 0.08503 0.0
H1523 H 0.52336 0.87864 0.06128 0.0
C1524 C 0.54902 0.97649 0.05027 0.0
C1525 C 0.5377 0.97132 0.0256 0.0
C1526 C 0.55531 0.96514 0.06108 0.0
C1527 C 0.55041 0.94837 0.04755 0.0
C1528 C 0.53889 0.94298 0.02318 0.0
C1529 C 0.5327 0.95444 0.01213 0.0
C1530 C 0.55734 0.9366 0.05932 0.0
C1531 C 0.54471 0.91941 0.07104 0.0
C1532 C 0.57642 0.94322 0.06208 0.0
C1533 C 0.59035 0.96094 0.04896 0.0
C1534 C 0.58953 0.96444 0.01935 0.0
C1535 C 0.6025 0.98125 0.0072 0.0
C1536 C 0.61643 0.99465 0.0244 0.0
C1537 C 0.61746 0.99125 0.05378 0.0
C1538 C 0.60451 0.97447 0.06606 0.0
C1539 C 0.57852 0.87971 0.12378 0.0
C1540 C 0.5904 0.88952 0.14676 0.0
C1541 C 0.572 0.88834 0.10518 0.0
C1542 C 0.57706 0.90684 0.10952 0.0
C1543 C 0.58901 0.91662 0.13232 0.0
C1544 C 0.59559 0.90807 0.15073 0.0
C1545 C 0.56979 0.91615 0.0909 0.0
C1546 C 0.58238 0.93291 0.07784 0.0
C1547 C 0.55069 0.9092 0.08715 0.0
C1548 C 0.53666 0.89204 0.1014 0.0
C1549 C 0.5363 0.89023 0.13173 0.0
C1550 C 0.52308 0.87396 0.14499 0.0
C1551 C 0.51004 0.85947 0.12816 0.0
C1552 C 0.51016 0.86125 0.09803 0.0
C1553 C 0.52337 0.87749 0.08466 0.0
H1554 H 0.49981 0.84689 0.13846 0.0
H1555 H 0.62646 0.00767 0.01495 0.0
H1556 H 0.59407 0.54567 0.53669 0.0
H1557 H 0.622 0.5532 0.56362 0.0
H1558 H 0.59003 0.53288 0.64224 0.0
H1559 H 0.56229 0.52657 0.61559 0.0
H1560 H 0.6199 0.55952 0.65654 0.0
H1561 H 0.60531 0.50716 0.59956 0.0
H1562 H 0.59745 0.48801 0.5556 0.0
H1563 H 0.6493 0.52666 0.5173 0.0
H1564 H 0.65736 0.54617 0.56089 0.0
H1565 H 0.70066 0.54035 0.68772 0.0
H1566 H 0.67198 0.53204 0.66254 0.0
H1567 H 0.68359 0.58804 0.66935 0.0
H1568 H 0.71136 0.59612 0.69645 0.0
H1569 H 0.6622 0.54021 0.61534 0.0
H1570 H 0.64551 0.59053 0.67848 0.0
H1571 H 0.65021 0.60398 0.7274 0.0
H1572 H 0.65543 0.55945 0.76221 0.0
H1573 H 0.65039 0.54553 0.71366 0.0
C1574 C 0.59309 0.54305 0.5598 0.0
C1575 C 0.57607 0.53551 0.5741 0.0
C1576 C 0.60902 0.54717 0.57515 0.0
C1577 C 0.60813 0.54312 0.60489 0.0
C1578 C 0.59115 0.53609 0.61933 0.0
C1579 C 0.57529 0.53249 0.60411 0.0
C1580 C 0.62483 0.54605 0.62077 0.0
C1581 C 0.62911 0.55527 0.64749 0.0
C1582 C 0.6366 0.53992 0.60964 0.0
C1583 C 0.63187 0.5282 0.58341 0.0
C1584 C 0.61498 0.51163 0.58169 0.0
C1585 C 0.6105 0.50071 0.55685 0.0
C1586 C 0.62285 0.50614 0.53365 0.0
C1587 C 0.63973 0.52248 0.53528 0.0
C1588 C 0.64428 0.53347 0.56006 0.0
C1589 C 0.69706 0.55089 0.68413 0.0
C1590 C 0.70837 0.5689 0.69449 0.0
C1591 C 0.68071 0.54614 0.66943 0.0
C1592 C 0.67539 0.55931 0.66455 0.0
C1593 C 0.68713 0.5775 0.67345 0.0
C1594 C 0.70327 0.58218 0.68856 0.0
C1595 C 0.65745 0.55409 0.65064 0.0
C1596 C 0.65294 0.54441 0.62436 0.0
C1597 C 0.64498 0.55892 0.66293 0.0
C1598 C 0.64776 0.56709 0.69233 0.0
C1599 C 0.64756 0.58355 0.69659 0.0
C1600 C 0.65028 0.59126 0.72427 0.0
C1601 C 0.65314 0.58259 0.74789 0.0
C1602 C 0.65323 0.56616 0.7439 0.0
C1603 C 0.65045 0.55836 0.7163 0.0
H1604 H 0.65528 0.58859 0.76929 0.0
H1605 H 0.61935 0.49766 0.51443 0.0
H1606 H 0.038 0.55369 0.08425 0.0
H1607 H 0.0587 0.58507 0.10096 0.0
H1608 H 0.10192 0.58819 0.04651 0.0
H1609 H 0.08109 0.55687 0.02891 0.0
H1610 H 0.10402 0.59671 0.11975 0.0
H1611 H 0.09633 0.61281 0.01999 0.0
H1612 H 0.07673 0.61042 0.97856 0.0
H1613 H 0.04742 0.62899 0.03217 0.0
H1614 H 0.0667 0.63121 0.07403 0.0
H1615 H 0.16642 0.68648 0.16257 0.0
H1616 H 0.15113 0.65951 0.13184 0.0
H1617 H 0.1029 0.66524 0.12873 0.0
H1618 H 0.11878 0.69339 0.15694 0.0
H1619 H 0.10494 0.65217 0.08065 0.0
H1620 H 0.10875 0.63588 0.17877 0.0
H1621 H 0.12387 0.63627 0.22476 0.0
H1622 H 0.15517 0.61582 0.18105 0.0
H1623 H 0.14039 0.61554 0.1347 0.0
C1624 C 0.05189 0.56106 0.07571 0.0
C1625 C 0.05796 0.55283 0.05531 0.0
C1626 C 0.06364 0.57899 0.08519 0.0
C1627 C 0.08172 0.58888 0.07477 0.0
C1628 C 0.08792 0.58074 0.05454 0.0
C1629 C 0.07603 0.5629 0.04456 0.0
C1630 C 0.09424 0.60743 0.08628 0.0
C1631 C 0.10463 0.60896 0.11089 0.0
C1632 C 0.09425 0.62312 0.07537 0.0
C1633 C 0.0828 0.62196 0.05018 0.0
C1634 C 0.08558 0.61619 0.02301 0.0
C1635 C 0.07456 0.61491 0.99943 0.0
C1636 C 0.0608 0.61949 0.00275 0.0
C1637 C 0.05807 0.62542 0.02964 0.0
C1638 C 0.06904 0.6267 0.05328 0.0
C1639 C 0.1528 0.68247 0.15466 0.0
C1640 C 0.14381 0.69214 0.16284 0.0
C1641 C 0.14391 0.66675 0.13741 0.0
C1642 C 0.1256 0.6599 0.12875 0.0
C1643 C 0.11694 0.67005 0.13542 0.0
C1644 C 0.126 0.68607 0.152 0.0
C1645 C 0.11511 0.6417 0.11423 0.0
C1646 C 0.10482 0.6401 0.08929 0.0
C1647 C 0.11476 0.62578 0.12539 0.0
C1648 C 0.12363 0.6259 0.15323 0.0
C1649 C 0.11895 0.63159 0.17894 0.0
C1650 C 0.12745 0.63178 0.20507 0.0
C1651 C 0.14051 0.62613 0.20581 0.0
C1652 C 0.14507 0.62023 0.18043 0.0
C1653 C 0.13664 0.62005 0.15423 0.0
H1654 H 0.14707 0.62628 0.22606 0.0
H1655 H 0.05228 0.6185 0.98448 0.0
loop_
_geom_bond_atom_site_label_1
_geom_bond_atom_site_label_2
_geom_bond_distance
_geom_bond_site_symmetry_2
_ccdc_geom_bond_type
C0 O2 1.247 . S
C0 O4 1.258 . S
C1 O8 1.247 . S
C1 O9 1.258 . S
O2 C0 1.247 . S
O2 Zn3 2.028 1_455 S
Zn3 O2 2.028 1_655 S
Zn3 O7 2.035 . S
Zn3 O9 2.035 . S
Zn3 O10 2.028 1_655 S
O4 C0 1.258 . S
O4 Zn5 2.035 . S
Zn5 O4 2.035 . S
Zn5 O6 2.028 1_455 S
Zn5 O8 2.028 1_455 S
Zn5 O11 2.035 . S
O6 Zn5 2.028 1_655 S
O6 C12 1.247 . S
O7 Zn3 2.035 . S
O7 C12 1.258 . S
O8 C1 1.247 . S
O8 Zn5 2.028 1_655 S
O9 C1 1.258 . S
O9 Zn3 2.035 . S
O10 Zn3 2.028 1_455 S
O10 C13 1.247 . S
O11 Zn5 2.035 . S
O11 C13 1.258 . S
C12 O6 1.247 . S
C12 O7 1.258 . S
C13 O10 1.247 . S
C13 O11 1.258 . S
C14 O16 1.247 . S
C14 O18 1.258 . S
C15 O22 1.239 1_565 S
C15 O23 1.258 . S
O16 C14 1.247 . S
O16 Zn17 2.028 1_545 S
Zn17 O16 2.028 1_565 S
Zn17 O21 2.035 . S
Zn17 O23 2.035 . S
Zn17 O24 2.028 1_565 S
O18 C14 1.258 . S
O18 Zn19 2.035 . S
Zn19 O18 2.035 . S
Zn19 O20 2.033 . S
Zn19 O22 2.037 . S
Zn19 O25 2.035 . S
O20 Zn19 2.033 . S
O20 C26 1.235 1_545 S
O21 Zn17 2.035 . S
O21 C26 1.258 . S
O22 C15 1.239 1_545 S
O22 Zn19 2.037 . S
O23 C15 1.258 . S
O23 Zn17 2.035 . S
O24 Zn17 2.028 1_545 S
O24 C27 1.247 . S
O25 Zn19 2.035 . S
O25 C27 1.258 . S
C26 O20 1.235 1_565 S
C26 O21 1.258 . S
C27 O24 1.247 . S
C27 O25 1.258 . S
C28 O30 1.247 . S
C28 O32 1.258 1_556 S
C29 O36 1.247 . S
C29 O37 1.258 . S
O30 C28 1.247 . S
O30 Zn31 2.028 . S
Zn31 O30 2.028 . S
Zn31 O35 2.035 1_556 S
Zn31 O37 2.035 1_556 S
Zn31 O38 2.028 . S
O32 C28 1.258 1_554 S
O32 Zn33 2.035 . S
Zn33 O32 2.035 . S
Zn33 O34 2.028 . S
Zn33 O36 2.028 . S
Zn33 O39 2.035 . S
O34 Zn33 2.028 . S
O34 C40 1.247 . S
O35 Zn31 2.035 1_554 S
O35 C40 1.258 . S
O36 C29 1.247 . S
O36 Zn33 2.028 . S
O37 C29 1.258 . S
O37 Zn31 2.035 1_554 S
O38 Zn31 2.028 . S
O38 C41 1.247 . S
O39 Zn33 2.035 . S
O39 C41 1.258 1_554 S
C40 O34 1.247 . S
C40 O35 1.258 . S
C41 O38 1.247 . S
C41 O39 1.258 1_556 S
C42 O44 1.247 . S
C42 O46 1.258 . S
C43 O50 1.247 . S
C43 O51 1.258 . S
O44 C42 1.247 . S
O44 Zn45 2.028 . S
Zn45 O44 2.028 . S
Zn45 O49 2.035 . S
Zn45 O51 2.035 . S
Zn45 O52 2.028 . S
O46 C42 1.258 . S
O46 Zn47 2.035 . S
Zn47 O46 2.035 . S
Zn47 O48 2.028 . S
Zn47 O50 2.028 . S
Zn47 O53 2.035 . S
O48 Zn47 2.028 . S
O48 C54 1.247 . S
O49 Zn45 2.035 . S
O49 C54 1.258 . S
O50 C43 1.247 . S
O50 Zn47 2.028 . S
O51 C43 1.258 . S
O51 Zn45 2.035 . S
O52 Zn45 2.028 . S
O52 C55 1.247 . S
O53 Zn47 2.035 . S
O53 C55 1.258 . S
C54 O48 1.247 . S
C54 O49 1.258 . S
C55 O52 1.247 . S
C55 O53 1.258 . S
C56 O58 1.247 1_565 S
C56 O60 1.258 . S
C57 O64 1.247 . S
C57 O65 1.258 1_556 S
O58 C56 1.247 1_545 S
O58 Zn59 2.028 . S
Zn59 O58 2.028 . S
Zn59 O63 2.035 . S
Zn59 O65 2.035 . S
Zn59 O66 2.028 . S
O60 C56 1.258 . S
O60 Zn61 2.035 1_554 S
Zn61 O60 2.035 1_556 S
Zn61 O62 2.028 1_565 S
Zn61 O64 2.028 1_565 S
Zn61 O67 2.035 1_556 S
O62 Zn61 2.028 1_545 S
O62 C68 1.247 . S
O63 Zn59 2.035 . S
O63 C68 1.258 1_554 S
O64 C57 1.247 . S
O64 Zn61 2.028 1_545 S
O65 C57 1.258 1_554 S
O65 Zn59 2.035 . S
O66 Zn59 2.028 . S
O66 C69 1.247 1_545 S
O67 Zn61 2.035 1_554 S
O67 C69 1.258 . S
C68 O62 1.247 . S
C68 O63 1.258 1_556 S
C69 O66 1.247 1_565 S
C69 O67 1.258 . S
C70 O72 1.247 . S
C70 O74 1.258 . S
C71 O78 1.247 . S
C71 O79 1.258 . S
O72 C70 1.247 . S
O72 Zn73 2.028 . S
Zn73 O72 2.028 . S
Zn73 O77 2.035 . S
Zn73 O79 2.035 . S
Zn73 O80 2.028 . S
O74 C70 1.258 . S
O74 Zn75 2.035 . S
Zn75 O74 2.035 . S
Zn75 O76 2.028 . S
Zn75 O78 2.028 . S
Zn75 O81 2.035 . S
O76 Zn75 2.028 . S
O76 C82 1.247 . S
O77 Zn73 2.035 . S
O77 C82 1.258 . S
O78 C71 1.247 . S
O78 Zn75 2.028 . S
O79 C71 1.258 . S
O79 Zn73 2.035 . S
O80 Zn73 2.028 . S
O80 C83 1.247 . S
O81 Zn75 2.035 . S
O81 C83 1.258 . S
C82 O76 1.247 . S
C82 O77 1.258 . S
C83 O80 1.247 . S
C83 O81 1.258 . S
H84 C111 0.929 . S
N85 C110 1.433 . S
N85 C116 1.435 . S
N85 C122 1.423 . S
H86 C112 0.930 . S
H87 C115 0.931 . S
H88 C114 0.929 . S
H89 C117 0.930 . S
H90 C118 0.932 . S
H91 C121 0.929 . S
H92 C120 0.931 . S
H93 C123 0.929 . S
H94 C127 0.932 . S
H95 C124 0.931 . S
H96 C126 0.929 . S
H97 C129 0.929 . S
H98 C130 0.930 . S
H99 C132 0.929 . S
H100 C133 0.931 . S
H101 C135 0.930 . S
H102 C136 0.932 . S
H103 C138 0.931 . S
H104 C139 0.929 . S
H105 C141 0.929 . S
H106 C142 0.931 . S
H107 C144 0.929 . S
N108 C128 1.433 . S
N108 C134 1.435 . S
N108 C140 1.423 . S
H109 C145 0.932 . S
C110 N85 1.433 . S
C110 C111 1.363 . S
C110 C115 1.370 . S
C111 H84 0.929 . S
C111 C110 1.363 . S
C111 C112 1.385 . S
C112 H86 0.930 . S
C112 C111 1.385 . S
C112 C113 1.357 . S
C113 C112 1.357 . S
C113 C114 1.406 . S
C114 H88 0.929 . S
C114 C113 1.406 . S
C114 C115 1.391 . S
C115 H87 0.931 . S
C115 C110 1.370 . S
C115 C114 1.391 . S
C116 N85 1.435 . S
C116 C117 1.358 . S
C116 C121 1.371 . S
C117 H89 0.930 . S
C117 C116 1.358 . S
C117 C118 1.405 . S
C118 H90 0.932 . S
C118 C117 1.405 . S
C118 C119 1.383 . S
C119 C118 1.383 . S
C119 C120 1.393 . S
C120 H92 0.931 . S
C120 C119 1.393 . S
C120 C121 1.382 . S
C121 H91 0.929 . S
C121 C116 1.371 . S
C121 C120 1.382 . S
C122 N85 1.423 . S
C122 C123 1.362 . S
C122 C127 1.388 . S
C123 H93 0.929 . S
C123 C122 1.362 . S
C123 C124 1.376 . S
C124 H95 0.931 . S
C124 C123 1.376 . S
C124 C125 1.396 . S
C125 C124 1.396 . S
C125 C126 1.348 . S
C125 C143 1.472 . S
C126 H96 0.929 . S
C126 C125 1.348 . S
C126 C127 1.443 . S
C127 H94 0.932 . S
C127 C122 1.388 . S
C127 C126 1.443 . S
C128 N108 1.433 . S
C128 C129 1.363 . S
C128 C133 1.370 . S
C129 H97 0.929 . S
C129 C128 1.363 . S
C129 C130 1.385 . S
C130 H98 0.930 . S
C130 C129 1.385 . S
C130 C131 1.357 . S
C131 C130 1.357 . S
C131 C132 1.406 . S
C132 H99 0.929 . S
C132 C131 1.406 . S
C132 C133 1.391 . S
C133 H100 0.931 . S
C133 C128 1.370 . S
C133 C132 1.391 . S
C134 N108 1.435 . S
C134 C135 1.358 . S
C134 C139 1.371 . S
C135 H101 0.930 . S
C135 C134 1.358 . S
C135 C136 1.405 . S
C136 H102 0.932 . S
C136 C135 1.405 . S
C136 C137 1.383 . S
C137 C136 1.383 . S
C137 C138 1.393 . S
C138 H103 0.931 . S
C138 C137 1.393 . S
C138 C139 1.382 . S
C139 H104 0.929 . S
C139 C134 1.371 . S
C139 C138 1.382 . S
C140 N108 1.423 . S
C140 C141 1.362 . S
C140 C145 1.388 . S
C141 H105 0.929 . S
C141 C140 1.362 . S
C141 C142 1.376 . S
C142 H106 0.931 . S
C142 C141 1.376 . S
C142 C143 1.396 . S
C143 C125 1.472 . S
C143 C142 1.396 . S
C143 C144 1.348 . S
C144 H107 0.929 . S
C144 C143 1.348 . S
C144 C145 1.443 . S
C145 H109 0.932 . S
C145 C140 1.388 . S
C145 C144 1.443 . S
H146 C173 0.929 . S
N147 C172 1.433 . S
N147 C178 1.435 . S
N147 C184 1.423 . S
H148 C174 0.930 . S
H149 C177 0.931 . S
H150 C176 0.929 . S
H151 C179 0.930 . S
H152 C180 0.932 . S
H153 C183 0.929 . S
H154 C182 0.931 . S
H155 C185 0.929 . S
H156 C189 0.932 . S
H157 C186 0.931 . S
H158 C188 0.929 . S
H159 C191 0.929 . S
H160 C192 0.930 . S
H161 C194 0.929 . S
H162 C195 0.931 . S
H163 C197 0.930 . S
H164 C198 0.932 . S
H165 C200 0.931 . S
H166 C201 0.929 . S
H167 C203 0.929 . S
H168 C204 0.931 . S
H169 C206 0.929 . S
N170 C190 1.433 . S
N170 C196 1.435 . S
N170 C202 1.423 . S
H171 C207 0.932 . S
C172 N147 1.433 . S
C172 C173 1.363 . S
C172 C177 1.370 . S
C173 H146 0.929 . S
C173 C172 1.363 . S
C173 C174 1.385 . S
C174 H148 0.930 . S
C174 C173 1.385 . S
C174 C175 1.357 . S
C175 C174 1.357 . S
C175 C176 1.406 . S
C176 H150 0.929 . S
C176 C175 1.406 . S
C176 C177 1.391 . S
C177 H149 0.931 . S
C177 C172 1.370 . S
C177 C176 1.391 . S
C178 N147 1.435 . S
C178 C179 1.358 . S
C178 C183 1.371 . S
C179 H151 0.930 . S
C179 C178 1.358 . S
C179 C180 1.405 . S
C180 H152 0.932 . S
C180 C179 1.405 . S
C180 C181 1.383 . S
C181 C180 1.383 . S
C181 C182 1.393 . S
C182 H154 0.931 . S
C182 C181 1.393 . S
C182 C183 1.382 . S
C183 H153 0.929 . S
C183 C178 1.371 . S
C183 C182 1.382 . S
C184 N147 1.423 . S
C184 C185 1.362 . S
C184 C189 1.388 . S
C185 H155 0.929 . S
C185 C184 1.362 . S
C185 C186 1.376 . S
C186 H157 0.931 . S
C186 C185 1.376 . S
C186 C187 1.396 . S
C187 C186 1.396 . S
C187 C188 1.348 . S
C187 C205 1.472 . S
C188 H158 0.929 . S
C188 C187 1.348 . S
C188 C189 1.443 . S
C189 H156 0.932 . S
C189 C184 1.388 . S
C189 C188 1.443 . S
C190 N170 1.433 . S
C190 C191 1.363 . S
C190 C195 1.370 . S
C191 H159 0.929 . S
C191 C190 1.363 . S
C191 C192 1.385 . S
C192 H160 0.930 . S
C192 C191 1.385 . S
C192 C193 1.357 . S
C193 C192 1.357 . S
C193 C194 1.406 . S
C194 H161 0.929 . S
C194 C193 1.406 . S
C194 C195 1.391 . S
C195 H162 0.931 . S
C195 C190 1.370 . S
C195 C194 1.391 . S
C196 N170 1.435 . S
C196 C197 1.358 . S
C196 C201 1.371 . S
C197 H163 0.930 . S
C197 C196 1.358 . S
C197 C198 1.405 . S
C198 H164 0.932 . S
C198 C197 1.405 . S
C198 C199 1.383 . S
C199 C198 1.383 . S
C199 C200 1.393 . S
C200 H165 0.931 . S
C200 C199 1.393 . S
C200 C201 1.382 . S
C201 H166 0.929 . S
C201 C196 1.371 . S
C201 C200 1.382 . S
C202 N170 1.423 . S
C202 C203 1.362 . S
C202 C207 1.388 . S
C203 H167 0.929 . S
C203 C202 1.362 . S
C203 C204 1.376 . S
C204 H168 0.931 . S
C204 C203 1.376 . S
C204 C205 1.396 . S
C205 C187 1.472 . S
C205 C204 1.396 . S
C205 C206 1.348 . S
C206 H169 0.929 . S
C206 C205 1.348 . S
C206 C207 1.443 . S
C207 H171 0.932 . S
C207 C202 1.388 . S
C207 C206 1.443 . S
H208 C235 0.929 . S
N209 C234 1.433 . S
N209 C240 1.435 . S
N209 C246 1.423 . S
H210 C236 0.930 . S
H211 C239 0.931 . S
H212 C238 0.929 . S
H213 C241 0.930 . S
H214 C242 0.932 . S
H215 C245 0.929 . S
H216 C244 0.931 . S
H217 C247 0.929 . S
H218 C251 0.932 . S
H219 C248 0.931 . S
H220 C250 0.929 . S
H221 C253 0.929 . S
H222 C254 0.930 . S
H223 C256 0.929 . S
H224 C257 0.931 . S
H225 C259 0.930 . S
H226 C260 0.932 . S
H227 C262 0.931 . S
H228 C263 0.929 . S
H229 C265 0.929 . S
H230 C266 0.931 . S
H231 C268 0.929 . S
N232 C252 1.433 . S
N232 C258 1.435 . S
N232 C264 1.423 . S
H233 C269 0.932 . S
C234 N209 1.433 . S
C234 C235 1.363 . S
C234 C239 1.370 . S
C235 H208 0.929 . S
C235 C234 1.363 . S
C235 C236 1.385 . S
C236 H210 0.930 . S
C236 C235 1.385 . S
C236 C237 1.357 . S
C237 C236 1.357 . S
C237 C238 1.406 . S
C238 H212 0.929 . S
C238 C237 1.406 . S
C238 C239 1.391 . S
C239 H211 0.931 . S
C239 C234 1.370 . S
C239 C238 1.391 . S
C240 N209 1.435 . S
C240 C241 1.358 . S
C240 C245 1.371 . S
C241 H213 0.930 . S
C241 C240 1.358 . S
C241 C242 1.405 . S
C242 H214 0.932 . S
C242 C241 1.405 . S
C242 C243 1.383 . S
C243 C242 1.383 . S
C243 C244 1.393 . S
C244 H216 0.931 . S
C244 C243 1.393 . S
C244 C245 1.382 . S
C245 H215 0.929 . S
C245 C240 1.371 . S
C245 C244 1.382 . S
C246 N209 1.423 . S
C246 C247 1.362 . S
C246 C251 1.388 . S
C247 H217 0.929 . S
C247 C246 1.362 . S
C247 C248 1.376 . S
C248 H219 0.931 . S
C248 C247 1.376 . S
C248 C249 1.396 . S
C249 C248 1.396 . S
C249 C250 1.348 . S
C249 C267 1.472 . S
C250 H220 0.929 . S
C250 C249 1.348 . S
C250 C251 1.443 . S
C251 H218 0.932 . S
C251 C246 1.388 . S
C251 C250 1.443 . S
C252 N232 1.433 . S
C252 C253 1.363 . S
C252 C257 1.370 . S
C253 H221 0.929 . S
C253 C252 1.363 . S
C253 C254 1.385 . S
C254 H222 0.930 . S
C254 C253 1.385 . S
C254 C255 1.357 . S
C255 C254 1.357 . S
C255 C256 1.406 . S
C256 H223 0.929 . S
C256 C255 1.406 . S
C256 C257 1.391 . S
C257 H224 0.931 . S
C257 C252 1.370 . S
C257 C256 1.391 . S
C258 N232 1.435 . S
C258 C259 1.358 . S
C258 C263 1.371 . S
C259 H225 0.930 . S
C259 C258 1.358 . S
C259 C260 1.405 . S
C260 H226 0.932 . S
C260 C259 1.405 . S
C260 C261 1.383 . S
C261 C260 1.383 . S
C261 C262 1.393 . S
C262 H227 0.931 . S
C262 C261 1.393 . S
C262 C263 1.382 . S
C263 H228 0.929 . S
C263 C258 1.371 . S
C263 C262 1.382 . S
C264 N232 1.423 . S
C264 C265 1.362 . S
C264 C269 1.388 . S
C265 H229 0.929 . S
C265 C264 1.362 . S
C265 C266 1.376 . S
C266 H230 0.931 . S
C266 C265 1.376 . S
C266 C267 1.396 . S
C267 C249 1.472 . S
C267 C266 1.396 . S
C267 C268 1.348 . S
C268 H231 0.929 . S
C268 C267 1.348 . S
C268 C269 1.443 . S
C269 H233 0.932 . S
C269 C264 1.388 . S
C269 C268 1.443 . S
H270 C297 0.929 . S
N271 C296 1.433 . S
N271 C302 1.435 . S
N271 C308 1.423 . S
H272 C298 0.930 . S
H273 C301 0.931 . S
H274 C300 0.929 . S
H275 C303 0.930 . S
H276 C304 0.932 . S
H277 C307 0.929 . S
H278 C306 0.931 . S
H279 C309 0.929 . S
H280 C313 0.932 . S
H281 C310 0.931 . S
H282 C312 0.929 . S
H283 C315 0.929 . S
H284 C316 0.930 . S
H285 C318 0.929 . S
H286 C319 0.931 . S
H287 C321 0.930 . S
H288 C322 0.932 . S
H289 C324 0.931 . S
H290 C325 0.929 . S
H291 C327 0.929 . S
H292 C328 0.931 . S
H293 C330 0.929 . S
N294 C314 1.433 . S
N294 C320 1.435 . S
N294 C326 1.423 . S
H295 C331 0.932 . S
C296 N271 1.433 . S
C296 C297 1.363 . S
C296 C301 1.370 . S
C297 H270 0.929 . S
C297 C296 1.363 . S
C297 C298 1.385 . S
C298 H272 0.930 . S
C298 C297 1.385 . S
C298 C299 1.357 . S
C299 C298 1.357 . S
C299 C300 1.406 . S
C300 H274 0.929 . S
C300 C299 1.406 . S
C300 C301 1.391 . S
C301 H273 0.931 . S
C301 C296 1.370 . S
C301 C300 1.391 . S
C302 N271 1.435 . S
C302 C303 1.358 . S
C302 C307 1.371 . S
C303 H275 0.930 . S
C303 C302 1.358 . S
C303 C304 1.405 . S
C304 H276 0.932 . S
C304 C303 1.405 . S
C304 C305 1.383 . S
C305 C304 1.383 . S
C305 C306 1.393 . S
C306 H278 0.931 . S
C306 C305 1.393 . S
C306 C307 1.382 . S
C307 H277 0.929 . S
C307 C302 1.371 . S
C307 C306 1.382 . S
C308 N271 1.423 . S
C308 C309 1.362 . S
C308 C313 1.388 . S
C309 H279 0.929 . S
C309 C308 1.362 . S
C309 C310 1.376 . S
C310 H281 0.931 . S
C310 C309 1.376 . S
C310 C311 1.396 . S
C311 C310 1.396 . S
C311 C312 1.348 . S
C311 C329 1.472 . S
C312 H282 0.929 . S
C312 C311 1.348 . S
C312 C313 1.443 . S
C313 H280 0.932 . S
C313 C308 1.388 . S
C313 C312 1.443 . S
C314 N294 1.433 . S
C314 C315 1.363 . S
C314 C319 1.370 . S
C315 H283 0.929 . S
C315 C314 1.363 . S
C315 C316 1.385 . S
C316 H284 0.930 . S
C316 C315 1.385 . S
C316 C317 1.357 . S
C317 C316 1.357 . S
C317 C318 1.406 . S
C318 H285 0.929 . S
C318 C317 1.406 . S
C318 C319 1.391 . S
C319 H286 0.931 . S
C319 C314 1.370 . S
C319 C318 1.391 . S
C320 N294 1.435 . S
C320 C321 1.358 . S
C320 C325 1.371 . S
C321 H287 0.930 . S
C321 C320 1.358 . S
C321 C322 1.405 . S
C322 H288 0.932 . S
C322 C321 1.405 . S
C322 C323 1.383 . S
C323 C322 1.383 . S
C323 C324 1.393 . S
C324 H289 0.931 . S
C324 C323 1.393 . S
C324 C325 1.382 . S
C325 H290 0.929 . S
C325 C320 1.371 . S
C325 C324 1.382 . S
C326 N294 1.423 . S
C326 C327 1.362 . S
C326 C331 1.388 . S
C327 H291 0.929 . S
C327 C326 1.362 . S
C327 C328 1.376 . S
C328 H292 0.931 . S
C328 C327 1.376 . S
C328 C329 1.396 . S
C329 C311 1.472 . S
C329 C328 1.396 . S
C329 C330 1.348 . S
C330 H293 0.929 . S
C330 C329 1.348 . S
C330 C331 1.443 . S
C331 H295 0.932 . S
C331 C326 1.388 . S
C331 C330 1.443 . S
H332 C359 0.929 . S
N333 C358 1.433 . S
N333 C364 1.435 . S
N333 C370 1.423 . S
H334 C360 0.930 . S
H335 C363 0.931 . S
H336 C362 0.929 . S
H337 C365 0.930 . S
H338 C366 0.932 . S
H339 C369 0.929 . S
H340 C368 0.931 . S
H341 C371 0.929 . S
H342 C375 0.932 . S
H343 C372 0.931 . S
H344 C374 0.929 . S
H345 C377 0.929 . S
H346 C378 0.930 . S
H347 C380 0.929 . S
H348 C381 0.931 . S
H349 C383 0.930 . S
H350 C384 0.932 . S
H351 C386 0.931 . S
H352 C387 0.929 . S
H353 C389 0.929 . S
H354 C390 0.931 . S
H355 C392 0.929 . S
N356 C376 1.433 . S
N356 C382 1.435 . S
N356 C388 1.423 . S
H357 C393 0.932 . S
C358 N333 1.433 . S
C358 C359 1.363 . S
C358 C363 1.370 . S
C359 H332 0.929 . S
C359 C358 1.363 . S
C359 C360 1.385 . S
C360 H334 0.930 . S
C360 C359 1.385 . S
C360 C361 1.357 . S
C361 C360 1.357 . S
C361 C362 1.406 . S
C362 H336 0.929 . S
C362 C361 1.406 . S
C362 C363 1.391 . S
C363 H335 0.931 . S
C363 C358 1.370 . S
C363 C362 1.391 . S
C364 N333 1.435 . S
C364 C365 1.358 . S
C364 C369 1.371 . S
C365 H337 0.930 . S
C365 C364 1.358 . S
C365 C366 1.405 . S
C366 H338 0.932 . S
C366 C365 1.405 . S
C366 C367 1.383 . S
C367 C366 1.383 . S
C367 C368 1.393 . S
C368 H340 0.931 . S
C368 C367 1.393 . S
C368 C369 1.382 . S
C369 H339 0.929 . S
C369 C364 1.371 . S
C369 C368 1.382 . S
C370 N333 1.423 . S
C370 C371 1.362 . S
C370 C375 1.388 . S
C371 H341 0.929 . S
C371 C370 1.362 . S
C371 C372 1.376 . S
C372 H343 0.931 . S
C372 C371 1.376 . S
C372 C373 1.396 . S
C373 C372 1.396 . S
C373 C374 1.348 . S
C373 C391 1.472 . S
C374 H344 0.929 . S
C374 C373 1.348 . S
C374 C375 1.443 . S
C375 H342 0.932 . S
C375 C370 1.388 . S
C375 C374 1.443 . S
C376 N356 1.433 . S
C376 C377 1.363 . S
C376 C381 1.370 . S
C377 H345 0.929 . S
C377 C376 1.363 . S
C377 C378 1.385 . S
C378 H346 0.930 . S
C378 C377 1.385 . S
C378 C379 1.357 . S
C379 C378 1.357 . S
C379 C380 1.406 . S
C380 H347 0.929 . S
C380 C379 1.406 . S
C380 C381 1.391 . S
C381 H348 0.931 . S
C381 C376 1.370 . S
C381 C380 1.391 . S
C382 N356 1.435 . S
C382 C383 1.358 . S
C382 C387 1.371 . S
C383 H349 0.930 . S
C383 C382 1.358 . S
C383 C384 1.405 . S
C384 H350 0.932 . S
C384 C383 1.405 . S
C384 C385 1.383 . S
C385 C384 1.383 . S
C385 C386 1.393 . S
C386 H351 0.931 . S
C386 C385 1.393 . S
C386 C387 1.382 . S
C387 H352 0.929 . S
C387 C382 1.371 . S
C387 C386 1.382 . S
C388 N356 1.423 . S
C388 C389 1.362 . S
C388 C393 1.388 . S
C389 H353 0.929 . S
C389 C388 1.362 . S
C389 C390 1.376 . S
C390 H354 0.931 . S
C390 C389 1.376 . S
C390 C391 1.396 . S
C391 C373 1.472 . S
C391 C390 1.396 . S
C391 C392 1.348 . S
C392 H355 0.929 . S
C392 C391 1.348 . S
C392 C393 1.443 . S
C393 H357 0.932 . S
C393 C388 1.388 . S
C393 C392 1.443 . S
H394 C421 0.929 . S
N395 C420 1.433 . S
N395 C426 1.435 . S
N395 C432 1.423 . S
H396 C422 0.930 . S
H397 C425 0.931 . S
H398 C424 0.929 . S
H399 C427 0.930 . S
H400 C428 0.932 . S
H401 C431 0.929 . S
H402 C430 0.931 . S
H403 C433 0.929 . S
H404 C437 0.932 . S
H405 C434 0.931 . S
H406 C436 0.929 . S
H407 C439 0.929 . S
H408 C440 0.930 . S
H409 C442 0.929 . S
H410 C443 0.931 . S
H411 C445 0.930 . S
H412 C446 0.932 . S
H413 C448 0.931 . S
H414 C449 0.929 . S
H415 C451 0.929 . S
H416 C452 0.931 . S
H417 C454 0.929 . S
N418 C438 1.433 . S
N418 C444 1.435 . S
N418 C450 1.423 . S
H419 C455 0.932 . S
C420 N395 1.433 . S
C420 C421 1.363 . S
C420 C425 1.370 . S
C421 H394 0.929 . S
C421 C420 1.363 . S
C421 C422 1.385 . S
C422 H396 0.930 . S
C422 C421 1.385 . S
C422 C423 1.357 . S
C423 C422 1.357 . S
C423 C424 1.406 . S
C424 H398 0.929 . S
C424 C423 1.406 . S
C424 C425 1.391 . S
C425 H397 0.931 . S
C425 C420 1.370 . S
C425 C424 1.391 . S
C426 N395 1.435 . S
C426 C427 1.358 . S
C426 C431 1.371 . S
C427 H399 0.930 . S
C427 C426 1.358 . S
C427 C428 1.405 . S
C428 H400 0.932 . S
C428 C427 1.405 . S
C428 C429 1.383 . S
C429 C428 1.383 . S
C429 C430 1.393 . S
C430 H402 0.931 . S
C430 C429 1.393 . S
C430 C431 1.382 . S
C431 H401 0.929 . S
C431 C426 1.371 . S
C431 C430 1.382 . S
C432 N395 1.423 . S
C432 C433 1.362 . S
C432 C437 1.388 . S
C433 H403 0.929 . S
C433 C432 1.362 . S
C433 C434 1.376 . S
C434 H405 0.931 . S
C434 C433 1.376 . S
C434 C435 1.396 . S
C435 C434 1.396 . S
C435 C436 1.348 . S
C435 C453 1.472 . S
C436 H406 0.929 . S
C436 C435 1.348 . S
C436 C437 1.443 . S
C437 H404 0.932 . S
C437 C432 1.388 . S
C437 C436 1.443 . S
C438 N418 1.433 . S
C438 C439 1.363 . S
C438 C443 1.370 . S
C439 H407 0.929 . S
C439 C438 1.363 . S
C439 C440 1.385 . S
C440 H408 0.930 . S
C440 C439 1.385 . S
C440 C441 1.357 . S
C441 C440 1.357 . S
C441 C442 1.406 . S
C442 H409 0.929 . S
C442 C441 1.406 . S
C442 C443 1.391 . S
C443 H410 0.931 . S
C443 C438 1.370 . S
C443 C442 1.391 . S
C444 N418 1.435 . S
C444 C445 1.358 . S
C444 C449 1.371 . S
C445 H411 0.930 . S
C445 C444 1.358 . S
C445 C446 1.405 . S
C446 H412 0.932 . S
C446 C445 1.405 . S
C446 C447 1.383 . S
C447 C446 1.383 . S
C447 C448 1.393 . S
C448 H413 0.931 . S
C448 C447 1.393 . S
C448 C449 1.382 . S
C449 H414 0.929 . S
C449 C444 1.371 . S
C449 C448 1.382 . S
C450 N418 1.423 . S
C450 C451 1.362 . S
C450 C455 1.388 . S
C451 H415 0.929 . S
C451 C450 1.362 . S
C451 C452 1.376 . S
C452 H416 0.931 . S
C452 C451 1.376 . S
C452 C453 1.396 . S
C453 C435 1.472 . S
C453 C452 1.396 . S
C453 C454 1.348 . S
C454 H417 0.929 . S
C454 C453 1.348 . S
C454 C455 1.443 . S
C455 H419 0.932 . S
C455 C450 1.388 . S
C455 C454 1.443 . S
H456 C474 0.951 . S
H457 C476 0.951 . S
H458 C478 0.950 . S
H459 C479 0.950 . S
H460 C481 0.950 . S
H461 C484 0.950 . S
H462 C485 0.950 . S
H463 C487 0.950 . S
H464 C488 0.950 . S
H465 C489 0.951 . S
H466 C491 0.951 . S
H467 C493 0.950 . S
H468 C494 0.950 . S
H469 C496 0.950 . S
H470 C499 0.950 . S
H471 C500 0.950 . S
H472 C502 0.950 . S
H473 C503 0.950 . S
C474 H456 0.951 . S
C474 C475 1.366 . S
C474 C476 1.388 . S
C475 C474 1.366 . S
C475 C479 1.385 . S
C476 H457 0.951 . S
C476 C474 1.388 . S
C476 C477 1.366 . S
C477 C476 1.366 . S
C477 C478 1.414 . S
C477 C480 1.499 . S
C478 H458 0.950 . S
C478 C477 1.414 . S
C478 C479 1.374 . S
C479 H459 0.950 . S
C479 C475 1.385 . S
C479 C478 1.374 . S
C480 C477 1.499 . S
C480 C481 1.373 . S
C480 C482 1.389 . S
C481 H460 0.950 . S
C481 C480 1.373 . S
C481 C497 1.377 . S
C482 C480 1.389 . S
C482 C483 1.524 . S
C482 C496 1.377 . S
C483 C482 1.524 . S
C483 C484 1.397 . S
C483 C488 1.363 . S
C484 H461 0.950 . S
C484 C483 1.397 . S
C484 C485 1.334 . S
C485 H462 0.950 . S
C485 C484 1.334 . S
C485 C486 1.287 . S
C486 C485 1.287 . S
C486 C487 1.524 . S
C486 H505 0.913 . S
C487 H463 0.950 . S
C487 C486 1.524 . S
C487 C488 1.415 . S
C488 H464 0.950 . S
C488 C483 1.363 . S
C488 C487 1.415 . S
C489 H465 0.951 . S
C489 C490 1.366 . S
C489 C491 1.388 . S
C490 C489 1.366 . S
C490 C494 1.385 . S
C491 H466 0.951 . S
C491 C489 1.388 . S
C491 C492 1.366 . S
C492 C491 1.366 . S
C492 C493 1.414 . S
C492 C495 1.499 . S
C493 H467 0.950 . S
C493 C492 1.414 . S
C493 C494 1.374 . S
C494 H468 0.950 . S
C494 C490 1.385 . S
C494 C493 1.374 . S
C495 C492 1.499 . S
C495 C496 1.373 . S
C495 C497 1.389 . S
C496 H469 0.950 . S
C496 C482 1.377 . S
C496 C495 1.373 . S
C497 C481 1.377 . S
C497 C495 1.389 . S
C497 C498 1.524 . S
C498 C497 1.524 . S
C498 C499 1.397 . S
C498 C503 1.363 . S
C499 H470 0.950 . S
C499 C498 1.397 . S
C499 C500 1.334 . S
C500 H471 0.950 . S
C500 C499 1.334 . S
C500 C501 1.287 . S
C501 C500 1.287 . S
C501 C502 1.524 . S
C501 H504 0.999 . S
C502 H472 0.950 . S
C502 C501 1.524 . S
C502 C503 1.415 . S
C503 H473 0.950 . S
C503 C498 1.363 . S
C503 C502 1.415 . S
H504 C501 0.999 . S
H505 C486 0.913 . S
H506 C524 0.951 . S
H507 C526 0.951 . S
H508 C528 0.950 . S
H509 C529 0.950 . S
H510 C531 0.950 . S
H511 C534 0.950 . S
H512 C535 0.950 . S
H513 C537 0.950 . S
H514 C538 0.950 . S
H515 C539 0.951 . S
H516 C541 0.951 . S
H517 C543 0.950 . S
H518 C544 0.950 . S
H519 C546 0.950 . S
H520 C549 0.950 . S
H521 C550 0.950 . S
H522 C552 0.950 . S
H523 C553 0.950 . S
C524 H506 0.951 . S
C524 C525 1.366 . S
C524 C526 1.388 . S
C525 C524 1.366 . S
C525 C529 1.385 . S
C526 H507 0.951 . S
C526 C524 1.388 . S
C526 C527 1.366 . S
C527 C526 1.366 . S
C527 C528 1.414 . S
C527 C530 1.499 . S
C528 H508 0.950 . S
C528 C527 1.414 . S
C528 C529 1.374 . S
C529 H509 0.950 . S
C529 C525 1.385 . S
C529 C528 1.374 . S
C530 C527 1.499 . S
C530 C531 1.373 . S
C530 C532 1.389 . S
C531 H510 0.950 . S
C531 C530 1.373 . S
C531 C547 1.377 . S
C532 C530 1.389 . S
C532 C533 1.524 . S
C532 C546 1.377 . S
C533 C532 1.524 . S
C533 C534 1.397 . S
C533 C538 1.363 . S
C534 H511 0.950 . S
C534 C533 1.397 . S
C534 C535 1.334 . S
C535 H512 0.950 . S
C535 C534 1.334 . S
C535 C536 1.287 . S
C536 C535 1.287 . S
C536 C537 1.524 . S
C536 H555 0.913 . S
C537 H513 0.950 . S
C537 C536 1.524 . S
C537 C538 1.415 . S
C538 H514 0.950 . S
C538 C533 1.363 . S
C538 C537 1.415 . S
C539 H515 0.951 . S
C539 C540 1.366 . S
C539 C541 1.388 . S
C540 C539 1.366 . S
C540 C544 1.385 . S
C541 H516 0.951 . S
C541 C539 1.388 . S
C541 C542 1.366 . S
C542 C541 1.366 . S
C542 C543 1.414 . S
C542 C545 1.499 . S
C543 H517 0.950 . S
C543 C542 1.414 . S
C543 C544 1.374 . S
C544 H518 0.950 . S
C544 C540 1.385 . S
C544 C543 1.374 . S
C545 C542 1.499 . S
C545 C546 1.373 . S
C545 C547 1.389 . S
C546 H519 0.950 . S
C546 C532 1.377 . S
C546 C545 1.373 . S
C547 C531 1.377 . S
C547 C545 1.389 . S
C547 C548 1.524 . S
C548 C547 1.524 . S
C548 C549 1.397 . S
C548 C553 1.363 . S
C549 H520 0.950 . S
C549 C548 1.397 . S
C549 C550 1.334 . S
C550 H521 0.950 . S
C550 C549 1.334 . S
C550 C551 1.287 . S
C551 C550 1.287 . S
C551 C552 1.524 . S
C551 H554 0.999 . S
C552 H522 0.950 . S
C552 C551 1.524 . S
C552 C553 1.415 . S
C553 H523 0.950 . S
C553 C548 1.363 . S
C553 C552 1.415 . S
H554 C551 0.999 . S
H555 C536 0.913 . S
H556 C574 0.951 . S
H557 C576 0.951 . S
H558 C578 0.950 . S
H559 C579 0.950 . S
H560 C581 0.950 . S
H561 C584 0.950 . S
H562 C585 0.950 . S
H563 C587 0.950 . S
H564 C588 0.950 . S
H565 C589 0.951 . S
H566 C591 0.951 . S
H567 C593 0.950 . S
H568 C594 0.950 . S
H569 C596 0.950 . S
H570 C599 0.950 . S
H571 C600 0.950 . S
H572 C602 0.950 . S
H573 C603 0.950 . S
C574 H556 0.951 . S
C574 C575 1.366 . S
C574 C576 1.388 . S
C575 C574 1.366 . S
C575 C579 1.385 . S
C576 H557 0.951 . S
C576 C574 1.388 . S
C576 C577 1.366 . S
C577 C576 1.366 . S
C577 C578 1.414 . S
C577 C580 1.499 . S
C578 H558 0.950 . S
C578 C577 1.414 . S
C578 C579 1.374 . S
C579 H559 0.950 . S
C579 C575 1.385 . S
C579 C578 1.374 . S
C580 C577 1.499 . S
C580 C581 1.373 . S
C580 C582 1.389 . S
C581 H560 0.950 . S
C581 C580 1.373 . S
C581 C597 1.377 . S
C582 C580 1.389 . S
C582 C583 1.524 . S
C582 C596 1.377 . S
C583 C582 1.524 . S
C583 C584 1.397 . S
C583 C588 1.363 . S
C584 H561 0.950 . S
C584 C583 1.397 . S
C584 C585 1.334 . S
C585 H562 0.950 . S
C585 C584 1.334 . S
C585 C586 1.287 . S
C586 C585 1.287 . S
C586 C587 1.524 . S
C586 H605 0.913 . S
C587 H563 0.950 . S
C587 C586 1.524 . S
C587 C588 1.415 . S
C588 H564 0.950 . S
C588 C583 1.363 . S
C588 C587 1.415 . S
C589 H565 0.951 . S
C589 C590 1.366 . S
C589 C591 1.388 . S
C590 C589 1.366 . S
C590 C594 1.385 . S
C591 H566 0.951 . S
C591 C589 1.388 . S
C591 C592 1.366 . S
C592 C591 1.366 . S
C592 C593 1.414 . S
C592 C595 1.499 . S
C593 H567 0.950 . S
C593 C592 1.414 . S
C593 C594 1.374 . S
C594 H568 0.950 . S
C594 C590 1.385 . S
C594 C593 1.374 . S
C595 C592 1.499 . S
C595 C596 1.373 . S
C595 C597 1.389 . S
C596 H569 0.950 . S
C596 C582 1.377 . S
C596 C595 1.373 . S
C597 C581 1.377 . S
C597 C595 1.389 . S
C597 C598 1.524 . S
C598 C597 1.524 . S
C598 C599 1.397 . S
C598 C603 1.363 . S
C599 H570 0.950 . S
C599 C598 1.397 . S
C599 C600 1.334 . S
C600 H571 0.950 . S
C600 C599 1.334 . S
C600 C601 1.287 . S
C601 C600 1.287 . S
C601 C602 1.524 . S
C601 H604 0.999 . S
C602 H572 0.950 . S
C602 C601 1.524 . S
C602 C603 1.415 . S
C603 H573 0.950 . S
C603 C598 1.363 . S
C603 C602 1.415 . S
H604 C601 0.999 . S
H605 C586 0.913 . S
H606 C624 0.951 . S
H607 C626 0.951 . S
H608 C628 0.950 . S
H609 C629 0.950 . S
H610 C631 0.950 . S
H611 C634 0.950 . S
H612 C635 0.950 . S
H613 C637 0.950 . S
H614 C638 0.950 . S
H615 C639 0.951 . S
H616 C641 0.951 . S
H617 C643 0.950 . S
H618 C644 0.950 . S
H619 C646 0.950 . S
H620 C649 0.950 . S
H621 C650 0.950 . S
H622 C652 0.950 . S
H623 C653 0.950 . S
C624 H606 0.951 . S
C624 C625 1.366 . S
C624 C626 1.388 1_455 S
C625 C624 1.366 . S
C625 C629 1.385 . S
C626 H607 0.951 . S
C626 C624 1.388 1_655 S
C626 C627 1.366 . S
C627 C626 1.366 . S
C627 C628 1.414 1_655 S
C627 C630 1.499 . S
C628 H608 0.950 . S
C628 C627 1.414 1_455 S
C628 C629 1.374 . S
C629 H609 0.950 . S
C629 C625 1.385 . S
C629 C628 1.374 . S
C630 C627 1.499 . S
C630 C631 1.373 . S
C630 C632 1.389 . S
C631 H610 0.950 . S
C631 C630 1.373 . S
C631 C647 1.377 . S
C632 C630 1.389 . S
C632 C633 1.524 . S
C632 C646 1.377 . S
C633 C632 1.524 . S
C633 C634 1.397 1_655 S
C633 C638 1.363 . S
C634 H611 0.950 . S
C634 C633 1.397 1_455 S
C634 C635 1.334 . S
C635 H612 0.950 . S
C635 C634 1.334 . S
C635 C636 1.287 . S
C636 C635 1.287 . S
C636 C637 1.524 . S
C636 H655 0.913 . S
C637 H613 0.950 . S
C637 C636 1.524 . S
C637 C638 1.415 1_455 S
C638 H614 0.950 . S
C638 C633 1.363 . S
C638 C637 1.415 1_655 S
C639 H615 0.951 . S
C639 C640 1.366 . S
C639 C641 1.388 . S
C640 C639 1.366 . S
C640 C644 1.385 . S
C641 H616 0.951 . S
C641 C639 1.388 . S
C641 C642 1.366 . S
C642 C641 1.366 . S
C642 C643 1.414 . S
C642 C645 1.499 . S
C643 H617 0.950 . S
C643 C642 1.414 . S
C643 C644 1.374 . S
C644 H618 0.950 . S
C644 C640 1.385 . S
C644 C643 1.374 . S
C645 C642 1.499 . S
C645 C646 1.373 . S
C645 C647 1.389 . S
C646 H619 0.950 . S
C646 C632 1.377 . S
C646 C645 1.373 . S
C647 C631 1.377 . S
C647 C645 1.389 . S
C647 C648 1.524 . S
C648 C647 1.524 . S
C648 C649 1.397 . S
C648 C653 1.363 . S
C649 H620 0.950 . S
C649 C648 1.397 . S
C649 C650 1.334 . S
C650 H621 0.950 . S
C650 C649 1.334 . S
C650 C651 1.287 . S
C651 C650 1.287 . S
C651 C652 1.524 . S
C651 H654 0.999 . S
C652 H622 0.950 . S
C652 C651 1.524 . S
C652 C653 1.415 . S
C653 H623 0.950 . S
C653 C648 1.363 . S
C653 C652 1.415 . S
H654 C651 0.999 . S
H655 C636 0.913 . S
H656 C674 0.951 . S
H657 C676 0.951 . S
H658 C678 0.950 . S
H659 C679 0.950 . S
H660 C681 0.950 . S
H661 C684 0.950 . S
H662 C685 0.950 . S
H663 C687 0.950 . S
H664 C688 0.950 . S
H665 C689 0.951 . S
H666 C691 0.951 . S
H667 C693 0.950 . S
H668 C694 0.950 . S
H669 C696 0.950 . S
H670 C699 0.950 . S
H671 C700 0.950 . S
H672 C702 0.950 . S
H673 C703 0.950 . S
C674 H656 0.951 . S
C674 C675 1.366 . S
C674 C676 1.388 . S
C675 C674 1.366 . S
C675 C679 1.385 . S
C676 H657 0.951 . S
C676 C674 1.388 . S
C676 C677 1.366 . S
C677 C676 1.366 . S
C677 C678 1.414 . S
C677 C680 1.499 . S
C678 H658 0.950 . S
C678 C677 1.414 . S
C678 C679 1.374 . S
C679 H659 0.950 . S
C679 C675 1.385 . S
C679 C678 1.374 . S
C680 C677 1.499 . S
C680 C681 1.373 . S
C680 C682 1.389 . S
C681 H660 0.950 . S
C681 C680 1.373 . S
C681 C697 1.377 . S
C682 C680 1.389 . S
C682 C683 1.524 . S
C682 C696 1.377 . S
C683 C682 1.524 . S
C683 C684 1.397 . S
C683 C688 1.363 . S
C684 H661 0.950 . S
C684 C683 1.397 . S
C684 C685 1.334 . S
C685 H662 0.950 . S
C685 C684 1.334 . S
C685 C686 1.287 1_565 S
C686 C685 1.287 1_545 S
C686 C687 1.524 . S
C686 H705 0.913 . S
C687 H663 0.950 . S
C687 C686 1.524 . S
C687 C688 1.415 1_545 S
C688 H664 0.950 . S
C688 C683 1.363 . S
C688 C687 1.415 1_565 S
C689 H665 0.951 . S
C689 C690 1.366 . S
C689 C691 1.388 . S
C690 C689 1.366 . S
C690 C694 1.385 . S
C691 H666 0.951 . S
C691 C689 1.388 . S
C691 C692 1.366 . S
C692 C691 1.366 . S
C692 C693 1.414 . S
C692 C695 1.499 . S
C693 H667 0.950 . S
C693 C692 1.414 . S
C693 C694 1.374 . S
C694 H668 0.950 . S
C694 C690 1.385 . S
C694 C693 1.374 . S
C695 C692 1.499 . S
C695 C696 1.373 . S
C695 C697 1.389 . S
C696 H669 0.950 . S
C696 C682 1.377 . S
C696 C695 1.373 . S
C697 C681 1.377 . S
C697 C695 1.389 . S
C697 C698 1.524 . S
C698 C697 1.524 . S
C698 C699 1.397 . S
C698 C703 1.363 . S
C699 H670 0.950 . S
C699 C698 1.397 . S
C699 C700 1.334 . S
C700 H671 0.950 . S
C700 C699 1.334 . S
C700 C701 1.287 . S
C701 C700 1.287 . S
C701 C702 1.524 . S
C701 H704 0.999 . S
C702 H672 0.950 . S
C702 C701 1.524 . S
C702 C703 1.415 . S
C703 H673 0.950 . S
C703 C698 1.363 . S
C703 C702 1.415 . S
H704 C701 0.999 . S
H705 C686 0.913 . S
H706 C724 0.951 . S
H707 C726 0.951 . S
H708 C728 0.950 . S
H709 C729 0.950 . S
H710 C731 0.950 . S
H711 C734 0.950 . S
H712 C735 0.950 . S
H713 C737 0.950 . S
H714 C738 0.950 . S
H715 C739 0.951 . S
H716 C741 0.951 . S
H717 C743 0.950 . S
H718 C744 0.950 . S
H719 C746 0.950 . S
H720 C749 0.950 . S
H721 C750 0.950 . S
H722 C752 0.950 . S
H723 C753 0.950 . S
C724 H706 0.951 . S
C724 C725 1.366 . S
C724 C726 1.388 . S
C725 C724 1.366 . S
C725 C729 1.385 . S
C726 H707 0.951 . S
C726 C724 1.388 . S
C726 C727 1.366 . S
C727 C726 1.366 . S
C727 C728 1.414 . S
C727 C730 1.499 . S
C728 H708 0.950 . S
C728 C727 1.414 . S
C728 C729 1.374 . S
C729 H709 0.950 . S
C729 C725 1.385 . S
C729 C728 1.374 . S
C730 C727 1.499 . S
C730 C731 1.373 . S
C730 C732 1.389 . S
C731 H710 0.950 . S
C731 C730 1.373 . S
C731 C747 1.377 . S
C732 C730 1.389 . S
C732 C733 1.524 . S
C732 C746 1.377 . S
C733 C732 1.524 . S
C733 C734 1.397 . S
C733 C738 1.363 . S
C734 H711 0.950 . S
C734 C733 1.397 . S
C734 C735 1.334 . S
C735 H712 0.950 . S
C735 C734 1.334 . S
C735 C736 1.287 . S
C736 C735 1.287 . S
C736 C737 1.524 . S
C736 H755 0.913 . S
C737 H713 0.950 . S
C737 C736 1.524 . S
C737 C738 1.415 . S
C738 H714 0.950 . S
C738 C733 1.363 . S
C738 C737 1.415 . S
C739 H715 0.951 . S
C739 C740 1.366 . S
C739 C741 1.388 . S
C740 C739 1.366 . S
C740 C744 1.385 . S
C741 H716 0.951 . S
C741 C739 1.388 . S
C741 C742 1.366 . S
C742 C741 1.366 . S
C742 C743 1.414 . S
C742 C745 1.499 . S
C743 H717 0.950 . S
C743 C742 1.414 . S
C743 C744 1.374 . S
C744 H718 0.950 . S
C744 C740 1.385 . S
C744 C743 1.374 . S
C745 C742 1.499 . S
C745 C746 1.373 . S
C745 C747 1.389 . S
C746 H719 0.950 . S
C746 C732 1.377 . S
C746 C745 1.373 . S
C747 C731 1.377 . S
C747 C745 1.389 . S
C747 C748 1.524 . S
C748 C747 1.524 . S
C748 C749 1.397 . S
C748 C753 1.363 . S
C749 H720 0.950 . S
C749 C748 1.397 . S
C749 C750 1.334 . S
C750 H721 0.950 . S
C750 C749 1.334 . S
C750 C751 1.287 . S
C751 C750 1.287 . S
C751 C752 1.524 . S
C751 H754 0.999 . S
C752 H722 0.950 . S
C752 C751 1.524 . S
C752 C753 1.415 . S
C753 H723 0.950 . S
C753 C748 1.363 . S
C753 C752 1.415 . S
H754 C751 0.999 . S
H755 C736 0.913 . S
H756 C774 0.951 . S
H757 C776 0.951 . S
H758 C778 0.950 . S
H759 C779 0.950 . S
H760 C781 0.950 . S
H761 C784 0.950 . S
H762 C785 0.950 . S
H763 C787 0.950 . S
H764 C788 0.950 . S
H765 C789 0.951 . S
H766 C791 0.951 . S
H767 C793 0.950 . S
H768 C794 0.950 . S
H769 C796 0.950 . S
H770 C799 0.950 . S
H771 C800 0.950 . S
H772 C802 0.950 . S
H773 C803 0.950 . S
C774 H756 0.951 . S
C774 C775 1.366 . S
C774 C776 1.388 . S
C775 C774 1.366 . S
C775 C779 1.385 . S
C776 H757 0.951 . S
C776 C774 1.388 . S
C776 C777 1.366 . S
C777 C776 1.366 . S
C777 C778 1.414 . S
C777 C780 1.499 . S
C778 H758 0.950 . S
C778 C777 1.414 . S
C778 C779 1.374 . S
C779 H759 0.950 . S
C779 C775 1.385 . S
C779 C778 1.374 . S
C780 C777 1.499 . S
C780 C781 1.373 . S
C780 C782 1.389 . S
C781 H760 0.950 . S
C781 C780 1.373 . S
C781 C797 1.377 . S
C782 C780 1.389 . S
C782 C783 1.524 . S
C782 C796 1.377 . S
C783 C782 1.524 . S
C783 C784 1.397 . S
C783 C788 1.363 . S
C784 H761 0.950 . S
C784 C783 1.397 . S
C784 C785 1.334 . S
C785 H762 0.950 . S
C785 C784 1.334 . S
C785 C786 1.287 . S
C786 C785 1.287 . S
C786 C787 1.524 . S
C786 H805 0.913 . S
C787 H763 0.950 . S
C787 C786 1.524 . S
C787 C788 1.415 . S
C788 H764 0.950 . S
C788 C783 1.363 . S
C788 C787 1.415 . S
C789 H765 0.951 . S
C789 C790 1.366 . S
C789 C791 1.388 . S
C790 C789 1.366 . S
C790 C794 1.385 . S
C791 H766 0.951 . S
C791 C789 1.388 . S
C791 C792 1.366 . S
C792 C791 1.366 . S
C792 C793 1.414 . S
C792 C795 1.499 . S
C793 H767 0.950 . S
C793 C792 1.414 . S
C793 C794 1.374 . S
C794 H768 0.950 . S
C794 C790 1.385 . S
C794 C793 1.374 . S
C795 C792 1.499 . S
C795 C796 1.373 . S
C795 C797 1.389 . S
C796 H769 0.950 . S
C796 C782 1.377 . S
C796 C795 1.373 . S
C797 C781 1.377 . S
C797 C795 1.389 . S
C797 C798 1.524 . S
C798 C797 1.524 . S
C798 C799 1.397 . S
C798 C803 1.363 . S
C799 H770 0.950 . S
C799 C798 1.397 . S
C799 C800 1.334 . S
C800 H771 0.950 . S
C800 C799 1.334 . S
C800 C801 1.287 . S
C801 C800 1.287 . S
C801 C802 1.524 . S
C801 H804 0.999 . S
C802 H772 0.950 . S
C802 C801 1.524 . S
C802 C803 1.415 . S
C803 H773 0.950 . S
C803 C798 1.363 . S
C803 C802 1.415 . S
H804 C801 0.999 . S
H805 C786 0.913 . S
H806 C824 0.951 . S
H807 C826 0.951 . S
H808 C828 0.950 . S
H809 C829 0.950 . S
H810 C831 0.950 . S
H811 C834 0.950 . S
H812 C835 0.950 . S
H813 C837 0.950 . S
H814 C838 0.950 . S
H815 C839 0.951 . S
H816 C841 0.951 . S
H817 C843 0.950 . S
H818 C844 0.950 . S
H819 C846 0.950 . S
H820 C849 0.950 . S
H821 C850 0.950 . S
H822 C852 0.950 . S
H823 C853 0.950 . S
C824 H806 0.951 . S
C824 C825 1.366 . S
C824 C826 1.388 . S
C825 C824 1.366 . S
C825 C829 1.385 . S
C826 H807 0.951 . S
C826 C824 1.388 . S
C826 C827 1.366 . S
C827 C826 1.366 . S
C827 C828 1.414 . S
C827 C830 1.499 . S
C828 H808 0.950 . S
C828 C827 1.414 . S
C828 C829 1.374 . S
C829 H809 0.950 . S
C829 C825 1.385 . S
C829 C828 1.374 . S
C830 C827 1.499 . S
C830 C831 1.373 . S
C830 C832 1.389 . S
C831 H810 0.950 . S
C831 C830 1.373 . S
C831 C847 1.377 . S
C832 C830 1.389 . S
C832 C833 1.524 . S
C832 C846 1.377 . S
C833 C832 1.524 . S
C833 C834 1.397 . S
C833 C838 1.363 . S
C834 H811 0.950 . S
C834 C833 1.397 . S
C834 C835 1.334 1_556 S
C835 H812 0.950 . S
C835 C834 1.334 1_554 S
C835 C836 1.287 . S
C836 C835 1.287 . S
C836 C837 1.524 . S
C836 H855 0.913 . S
C837 H813 0.950 . S
C837 C836 1.524 . S
C837 C838 1.415 1_554 S
C838 H814 0.950 . S
C838 C833 1.363 . S
C838 C837 1.415 1_556 S
C839 H815 0.951 . S
C839 C840 1.366 . S
C839 C841 1.388 . S
C840 C839 1.366 . S
C840 C844 1.385 . S
C841 H816 0.951 . S
C841 C839 1.388 . S
C841 C842 1.366 . S
C842 C841 1.366 . S
C842 C843 1.414 . S
C842 C845 1.499 . S
C843 H817 0.950 . S
C843 C842 1.414 . S
C843 C844 1.374 . S
C844 H818 0.950 . S
C844 C840 1.385 . S
C844 C843 1.374 . S
C845 C842 1.499 . S
C845 C846 1.373 . S
C845 C847 1.389 . S
C846 H819 0.950 . S
C846 C832 1.377 . S
C846 C845 1.373 . S
C847 C831 1.377 . S
C847 C845 1.389 . S
C847 C848 1.524 . S
C848 C847 1.524 . S
C848 C849 1.397 . S
C848 C853 1.363 . S
C849 H820 0.950 . S
C849 C848 1.397 . S
C849 C850 1.334 . S
C850 H821 0.950 . S
C850 C849 1.334 . S
C850 C851 1.287 . S
C851 C850 1.287 . S
C851 C852 1.524 . S
C851 H854 0.999 . S
C852 H822 0.950 . S
C852 C851 1.524 . S
C852 C853 1.415 . S
C853 H823 0.950 . S
C853 C848 1.363 . S
C853 C852 1.415 . S
H854 C851 0.999 . S
H855 C836 0.913 . S
H856 C874 0.951 . S
H857 C876 0.951 . S
H858 C878 0.950 . S
H859 C879 0.950 . S
H860 C881 0.950 . S
H861 C884 0.950 . S
H862 C885 0.950 . S
H863 C887 0.950 . S
H864 C888 0.950 . S
H865 C889 0.951 . S
H866 C891 0.951 . S
H867 C893 0.950 . S
H868 C894 0.950 . S
H869 C896 0.950 . S
H870 C899 0.950 . S
H871 C900 0.950 . S
H872 C902 0.950 . S
H873 C903 0.950 . S
C874 H856 0.951 . S
C874 C875 1.366 . S
C874 C876 1.388 . S
C875 C874 1.366 . S
C875 C879 1.385 . S
C876 H857 0.951 . S
C876 C874 1.388 . S
C876 C877 1.366 . S
C877 C876 1.366 . S
C877 C878 1.414 . S
C877 C880 1.499 . S
C878 H858 0.950 . S
C878 C877 1.414 . S
C878 C879 1.374 . S
C879 H859 0.950 . S
C879 C875 1.385 . S
C879 C878 1.374 . S
C880 C877 1.499 . S
C880 C881 1.373 . S
C880 C882 1.389 . S
C881 H860 0.950 . S
C881 C880 1.373 . S
C881 C897 1.377 . S
C882 C880 1.389 . S
C882 C883 1.524 . S
C882 C896 1.377 . S
C883 C882 1.524 . S
C883 C884 1.397 . S
C883 C888 1.363 . S
C884 H861 0.950 . S
C884 C883 1.397 . S
C884 C885 1.334 . S
C885 H862 0.950 . S
C885 C884 1.334 . S
C885 C886 1.287 . S
C886 C885 1.287 . S
C886 C887 1.524 . S
C886 H905 0.913 . S
C887 H863 0.950 . S
C887 C886 1.524 . S
C887 C888 1.415 . S
C888 H864 0.950 . S
C888 C883 1.363 . S
C888 C887 1.415 . S
C889 H865 0.951 . S
C889 C890 1.366 . S
C889 C891 1.388 . S
C890 C889 1.366 . S
C890 C894 1.385 . S
C891 H866 0.951 . S
C891 C889 1.388 . S
C891 C892 1.366 . S
C892 C891 1.366 . S
C892 C893 1.414 . S
C892 C895 1.499 . S
C893 H867 0.950 . S
C893 C892 1.414 . S
C893 C894 1.374 . S
C894 H868 0.950 . S
C894 C890 1.385 . S
C894 C893 1.374 . S
C895 C892 1.499 . S
C895 C896 1.373 . S
C895 C897 1.389 . S
C896 H869 0.950 . S
C896 C882 1.377 . S
C896 C895 1.373 . S
C897 C881 1.377 . S
C897 C895 1.389 . S
C897 C898 1.524 . S
C898 C897 1.524 . S
C898 C899 1.397 . S
C898 C903 1.363 . S
C899 H870 0.950 . S
C899 C898 1.397 . S
C899 C900 1.334 . S
C900 H871 0.950 . S
C900 C899 1.334 . S
C900 C901 1.287 . S
C901 C900 1.287 . S
C901 C902 1.524 . S
C901 H904 0.999 . S
C902 H872 0.950 . S
C902 C901 1.524 . S
C902 C903 1.415 . S
C903 H873 0.950 . S
C903 C898 1.363 . S
C903 C902 1.415 . S
H904 C901 0.999 . S
H905 C886 0.913 . S
H906 C924 0.951 . S
H907 C926 0.951 . S
H908 C928 0.950 . S
H909 C929 0.950 . S
H910 C931 0.950 . S
H911 C934 0.950 . S
H912 C935 0.950 . S
H913 C937 0.950 . S
H914 C938 0.950 . S
H915 C939 0.951 . S
H916 C941 0.951 . S
H917 C943 0.950 . S
H918 C944 0.950 . S
H919 C946 0.950 . S
H920 C949 0.950 . S
H921 C950 0.950 . S
H922 C952 0.950 . S
H923 C953 0.950 . S
C924 H906 0.951 . S
C924 C925 1.366 . S
C924 C926 1.388 . S
C925 C924 1.366 . S
C925 C929 1.385 . S
C926 H907 0.951 . S
C926 C924 1.388 . S
C926 C927 1.366 . S
C927 C926 1.366 . S
C927 C928 1.414 . S
C927 C930 1.499 . S
C928 H908 0.950 . S
C928 C927 1.414 . S
C928 C929 1.374 . S
C929 H909 0.950 . S
C929 C925 1.385 . S
C929 C928 1.374 . S
C930 C927 1.499 . S
C930 C931 1.373 . S
C930 C932 1.389 . S
C931 H910 0.950 . S
C931 C930 1.373 . S
C931 C947 1.377 . S
C932 C930 1.389 . S
C932 C933 1.524 . S
C932 C946 1.377 . S
C933 C932 1.524 . S
C933 C934 1.397 . S
C933 C938 1.363 . S
C934 H911 0.950 . S
C934 C933 1.397 . S
C934 C935 1.334 . S
C935 H912 0.950 . S
C935 C934 1.334 . S
C935 C936 1.287 . S
C936 C935 1.287 . S
C936 C937 1.524 . S
C936 H955 0.913 . S
C937 H913 0.950 . S
C937 C936 1.524 . S
C937 C938 1.415 . S
C938 H914 0.950 . S
C938 C933 1.363 . S
C938 C937 1.415 . S
C939 H915 0.951 . S
C939 C940 1.366 . S
C939 C941 1.388 . S
C940 C939 1.366 . S
C940 C944 1.385 . S
C941 H916 0.951 . S
C941 C939 1.388 . S
C941 C942 1.366 . S
C942 C941 1.366 . S
C942 C943 1.414 . S
C942 C945 1.499 . S
C943 H917 0.950 . S
C943 C942 1.414 . S
C943 C944 1.374 . S
C944 H918 0.950 . S
C944 C940 1.385 . S
C944 C943 1.374 . S
C945 C942 1.499 . S
C945 C946 1.373 . S
C945 C947 1.389 . S
C946 H919 0.950 . S
C946 C932 1.377 . S
C946 C945 1.373 . S
C947 C931 1.377 . S
C947 C945 1.389 . S
C947 C948 1.524 . S
C948 C947 1.524 . S
C948 C949 1.397 . S
C948 C953 1.363 . S
C949 H920 0.950 . S
C949 C948 1.397 . S
C949 C950 1.334 . S
C950 H921 0.950 . S
C950 C949 1.334 . S
C950 C951 1.287 . S
C951 C950 1.287 . S
C951 C952 1.524 . S
C951 H954 0.999 . S
C952 H922 0.950 . S
C952 C951 1.524 . S
C952 C953 1.415 . S
C953 H923 0.950 . S
C953 C948 1.363 . S
C953 C952 1.415 . S
H954 C951 0.999 . S
H955 C936 0.913 . S
H956 C974 0.951 . S
H957 C976 0.951 . S
H958 C978 0.950 . S
H959 C979 0.950 . S
H960 C981 0.950 . S
H961 C984 0.950 . S
H962 C985 0.950 . S
H963 C987 0.950 . S
H964 C988 0.950 . S
H965 C989 0.951 . S
H966 C991 0.951 . S
H967 C993 0.950 . S
H968 C994 0.950 . S
H969 C996 0.950 . S
H970 C999 0.950 . S
H971 C1000 0.950 . S
H972 C1002 0.950 . S
H973 C1003 0.950 . S
C974 H956 0.951 . S
C974 C975 1.366 . S
C974 C976 1.388 . S
C975 C974 1.366 . S
C975 C979 1.385 . S
C976 H957 0.951 . S
C976 C974 1.388 . S
C976 C977 1.366 . S
C977 C976 1.366 . S
C977 C978 1.414 . S
C977 C980 1.499 . S
C978 H958 0.950 . S
C978 C977 1.414 . S
C978 C979 1.374 . S
C979 H959 0.950 . S
C979 C975 1.385 . S
C979 C978 1.374 . S
C980 C977 1.499 . S
C980 C981 1.373 . S
C980 C982 1.389 . S
C981 H960 0.950 . S
C981 C980 1.373 . S
C981 C997 1.377 . S
C982 C980 1.389 . S
C982 C983 1.524 . S
C982 C996 1.377 . S
C983 C982 1.524 . S
C983 C984 1.397 . S
C983 C988 1.363 . S
C984 H961 0.950 . S
C984 C983 1.397 . S
C984 C985 1.334 . S
C985 H962 0.950 . S
C985 C984 1.334 . S
C985 C986 1.287 . S
C986 C985 1.287 . S
C986 C987 1.524 . S
C986 H1005 0.913 . S
C987 H963 0.950 . S
C987 C986 1.524 . S
C987 C988 1.415 . S
C988 H964 0.950 . S
C988 C983 1.363 . S
C988 C987 1.415 . S
C989 H965 0.951 . S
C989 C990 1.366 . S
C989 C991 1.388 . S
C990 C989 1.366 . S
C990 C994 1.385 . S
C991 H966 0.951 . S
C991 C989 1.388 . S
C991 C992 1.366 . S
C992 C991 1.366 . S
C992 C993 1.414 . S
C992 C995 1.499 . S
C993 H967 0.950 . S
C993 C992 1.414 . S
C993 C994 1.374 . S
C994 H968 0.950 . S
C994 C990 1.385 . S
C994 C993 1.374 . S
C995 C992 1.499 . S
C995 C996 1.373 . S
C995 C997 1.389 . S
C996 H969 0.950 . S
C996 C982 1.377 . S
C996 C995 1.373 . S
C997 C981 1.377 . S
C997 C995 1.389 . S
C997 C998 1.524 . S
C998 C997 1.524 . S
C998 C999 1.397 . S
C998 C1003 1.363 . S
C999 H970 0.950 . S
C999 C998 1.397 . S
C999 C1000 1.334 . S
C1000 H971 0.950 . S
C1000 C999 1.334 . S
C1000 C1001 1.287 . S
C1001 C1000 1.287 . S
C1001 C1002 1.524 . S
C1001 H1004 0.999 . S
C1002 H972 0.950 . S
C1002 C1001 1.524 . S
C1002 C1003 1.415 . S
C1003 H973 0.950 . S
C1003 C998 1.363 . S
C1003 C1002 1.415 . S
H1004 C1001 0.999 . S
H1005 C986 0.913 . S
H1006 C1024 0.951 . S
H1007 C1026 0.951 . S
H1008 C1028 0.951 1_554 S
H1009 C1029 0.950 . S
H1010 C1031 0.950 . S
H1011 C1034 0.950 . S
H1012 C1035 0.950 . S
H1013 C1037 0.950 . S
H1014 C1038 0.950 . S
H1015 C1039 0.951 . S
H1016 C1041 0.951 . S
H1017 C1043 0.950 . S
H1018 C1044 0.950 . S
H1019 C1046 0.950 . S
H1020 C1049 0.950 . S
H1021 C1050 0.950 . S
H1022 C1052 0.950 . S
H1023 C1053 0.950 . S
C1024 H1006 0.951 . S
C1024 C1025 1.366 1_556 S
C1024 C1026 1.388 . S
C1025 C1024 1.366 1_554 S
C1025 C1029 1.385 . S
C1026 H1007 0.951 . S
C1026 C1024 1.388 . S
C1026 C1027 1.366 . S
C1027 C1026 1.366 . S
C1027 C1028 1.412 . S
C1027 C1030 1.499 . S
C1028 H1008 0.951 1_556 S
C1028 C1027 1.412 . S
C1028 C1029 1.375 1_556 S
C1029 H1009 0.950 . S
C1029 C1025 1.385 . S
C1029 C1028 1.375 1_554 S
C1030 C1027 1.499 . S
C1030 C1031 1.373 . S
C1030 C1032 1.389 . S
C1031 H1010 0.950 . S
C1031 C1030 1.373 . S
C1031 C1047 1.377 . S
C1032 C1030 1.389 . S
C1032 C1033 1.524 . S
C1032 C1046 1.377 . S
C1033 C1032 1.524 . S
C1033 C1034 1.397 1_556 S
C1033 C1038 1.363 . S
C1034 H1011 0.950 . S
C1034 C1033 1.397 1_554 S
C1034 C1035 1.334 . S
C1035 H1012 0.950 . S
C1035 C1034 1.334 . S
C1035 C1036 1.287 . S
C1036 C1035 1.287 . S
C1036 C1037 1.524 1_554 S
C1036 H1055 0.913 . S
C1037 H1013 0.950 . S
C1037 C1036 1.524 1_556 S
C1037 C1038 1.415 . S
C1038 H1014 0.950 . S
C1038 C1033 1.363 . S
C1038 C1037 1.415 . S
C1039 H1015 0.951 . S
C1039 C1040 1.366 . S
C1039 C1041 1.388 . S
C1040 C1039 1.366 . S
C1040 C1044 1.385 . S
C1041 H1016 0.951 . S
C1041 C1039 1.388 . S
C1041 C1042 1.366 . S
C1042 C1041 1.366 . S
C1042 C1043 1.414 . S
C1042 C1045 1.499 . S
C1043 H1017 0.950 . S
C1043 C1042 1.414 . S
C1043 C1044 1.374 . S
C1044 H1018 0.950 . S
C1044 C1040 1.385 . S
C1044 C1043 1.374 . S
C1045 C1042 1.499 . S
C1045 C1046 1.373 . S
C1045 C1047 1.389 . S
C1046 H1019 0.950 . S
C1046 C1032 1.377 . S
C1046 C1045 1.373 . S
C1047 C1031 1.377 . S
C1047 C1045 1.389 . S
C1047 C1048 1.524 . S
C1048 C1047 1.524 . S
C1048 C1049 1.397 . S
C1048 C1053 1.363 . S
C1049 H1020 0.950 . S
C1049 C1048 1.397 . S
C1049 C1050 1.334 . S
C1050 H1021 0.950 . S
C1050 C1049 1.334 . S
C1050 C1051 1.287 . S
C1051 C1050 1.287 . S
C1051 C1052 1.524 . S
C1051 H1054 0.999 . S
C1052 H1022 0.950 . S
C1052 C1051 1.524 . S
C1052 C1053 1.415 . S
C1053 H1023 0.950 . S
C1053 C1048 1.363 . S
C1053 C1052 1.415 . S
H1054 C1051 0.999 . S
H1055 C1036 0.913 . S
H1056 C1074 0.951 . S
H1057 C1076 0.951 . S
H1058 C1078 0.950 . S
H1059 C1079 0.950 . S
H1060 C1081 0.950 . S
H1061 C1084 0.950 . S
H1062 C1085 0.950 . S
H1063 C1087 0.950 . S
H1064 C1088 0.950 . S
H1065 C1089 0.951 . S
H1066 C1091 0.951 . S
H1067 C1093 0.950 . S
H1068 C1094 0.950 . S
H1069 C1096 0.950 . S
H1070 C1099 0.950 . S
H1071 C1100 0.950 . S
H1072 C1102 0.950 . S
H1073 C1103 0.950 . S
C1074 H1056 0.951 . S
C1074 C1075 1.366 . S
C1074 C1076 1.388 . S
C1075 C1074 1.366 . S
C1075 C1079 1.385 1_554 S
C1076 H1057 0.951 . S
C1076 C1074 1.388 . S
C1076 C1077 1.366 1_554 S
C1077 C1076 1.366 1_556 S
C1077 C1078 1.414 . S
C1077 C1080 1.499 . S
C1078 H1058 0.950 . S
C1078 C1077 1.414 . S
C1078 C1079 1.374 . S
C1079 H1059 0.950 . S
C1079 C1075 1.385 1_556 S
C1079 C1078 1.374 . S
C1080 C1077 1.499 . S
C1080 C1081 1.373 . S
C1080 C1082 1.389 . S
C1081 H1060 0.950 . S
C1081 C1080 1.373 . S
C1081 C1097 1.377 . S
C1082 C1080 1.389 . S
C1082 C1083 1.524 . S
C1082 C1096 1.377 . S
C1083 C1082 1.524 . S
C1083 C1084 1.397 . S
C1083 C1088 1.363 . S
C1084 H1061 0.950 . S
C1084 C1083 1.397 . S
C1084 C1085 1.334 . S
C1085 H1062 0.950 . S
C1085 C1084 1.334 . S
C1085 C1086 1.287 . S
C1086 C1085 1.287 . S
C1086 C1087 1.524 1_556 S
C1086 H1105 0.913 . S
C1087 H1063 0.950 . S
C1087 C1086 1.524 1_554 S
C1087 C1088 1.415 1_554 S
C1088 H1064 0.950 . S
C1088 C1083 1.363 . S
C1088 C1087 1.415 1_556 S
C1089 H1065 0.951 . S
C1089 C1090 1.366 . S
C1089 C1091 1.388 . S
C1090 C1089 1.366 . S
C1090 C1094 1.385 . S
C1091 H1066 0.951 . S
C1091 C1089 1.388 . S
C1091 C1092 1.366 . S
C1092 C1091 1.366 . S
C1092 C1093 1.414 . S
C1092 C1095 1.499 . S
C1093 H1067 0.950 . S
C1093 C1092 1.414 . S
C1093 C1094 1.374 . S
C1094 H1068 0.950 . S
C1094 C1090 1.385 . S
C1094 C1093 1.374 . S
C1095 C1092 1.499 . S
C1095 C1096 1.373 . S
C1095 C1097 1.389 . S
C1096 H1069 0.950 . S
C1096 C1082 1.377 . S
C1096 C1095 1.373 . S
C1097 C1081 1.377 . S
C1097 C1095 1.389 . S
C1097 C1098 1.524 . S
C1098 C1097 1.524 . S
C1098 C1099 1.397 . S
C1098 C1103 1.363 . S
C1099 H1070 0.950 . S
C1099 C1098 1.397 . S
C1099 C1100 1.334 . S
C1100 H1071 0.950 . S
C1100 C1099 1.334 . S
C1100 C1101 1.287 . S
C1101 C1100 1.287 . S
C1101 C1102 1.524 . S
C1101 H1104 0.999 . S
C1102 H1072 0.950 . S
C1102 C1101 1.524 . S
C1102 C1103 1.415 . S
C1103 H1073 0.950 . S
C1103 C1098 1.363 . S
C1103 C1102 1.415 . S
H1104 C1101 0.999 . S
H1105 C1086 0.913 . S
H1106 C1124 0.951 . S
H1107 C1126 0.951 . S
H1108 C1128 0.950 . S
H1109 C1129 0.950 . S
H1110 C1131 0.950 . S
H1111 C1134 0.950 . S
H1112 C1135 0.950 1_545 S
H1113 C1137 0.950 . S
H1114 C1138 0.950 . S
H1115 C1139 0.951 . S
H1116 C1141 0.951 . S
H1117 C1143 0.950 . S
H1118 C1144 0.950 . S
H1119 C1146 0.950 . S
H1120 C1149 0.950 . S
H1121 C1150 0.950 . S
H1122 C1152 0.950 . S
H1123 C1153 0.950 . S
C1124 H1106 0.951 . S
C1124 C1125 1.366 . S
C1124 C1126 1.388 . S
C1125 C1124 1.366 . S
C1125 C1129 1.385 . S
C1126 H1107 0.951 . S
C1126 C1124 1.388 . S
C1126 C1127 1.366 . S
C1127 C1126 1.366 . S
C1127 C1128 1.414 . S
C1127 C1130 1.499 . S
C1128 H1108 0.950 . S
C1128 C1127 1.414 . S
C1128 C1129 1.374 . S
C1129 H1109 0.950 . S
C1129 C1125 1.385 . S
C1129 C1128 1.374 . S
C1130 C1127 1.499 . S
C1130 C1131 1.373 . S
C1130 C1132 1.389 . S
C1131 H1110 0.950 . S
C1131 C1130 1.373 . S
C1131 C1147 1.377 . S
C1132 C1130 1.389 . S
C1132 C1133 1.524 . S
C1132 C1146 1.377 . S
C1133 C1132 1.524 . S
C1133 C1134 1.397 . S
C1133 C1138 1.363 . S
C1134 H1111 0.950 . S
C1134 C1133 1.397 . S
C1134 C1135 1.334 . S
C1135 H1112 0.950 1_565 S
C1135 C1134 1.334 . S
C1135 C1136 1.287 . S
C1136 C1135 1.287 . S
C1136 C1137 1.524 . S
C1136 H1155 0.913 1_565 S
C1137 H1113 0.950 . S
C1137 C1136 1.524 . S
C1137 C1138 1.415 . S
C1138 H1114 0.950 . S
C1138 C1133 1.363 . S
C1138 C1137 1.415 . S
C1139 H1115 0.951 . S
C1139 C1140 1.366 . S
C1139 C1141 1.388 . S
C1140 C1139 1.366 . S
C1140 C1144 1.385 . S
C1141 H1116 0.951 . S
C1141 C1139 1.388 . S
C1141 C1142 1.366 . S
C1142 C1141 1.366 . S
C1142 C1143 1.414 . S
C1142 C1145 1.499 . S
C1143 H1117 0.950 . S
C1143 C1142 1.414 . S
C1143 C1144 1.374 . S
C1144 H1118 0.950 . S
C1144 C1140 1.385 . S
C1144 C1143 1.374 . S
C1145 C1142 1.499 . S
C1145 C1146 1.373 . S
C1145 C1147 1.389 . S
C1146 H1119 0.950 . S
C1146 C1132 1.377 . S
C1146 C1145 1.373 . S
C1147 C1131 1.377 . S
C1147 C1145 1.389 . S
C1147 C1148 1.524 . S
C1148 C1147 1.524 . S
C1148 C1149 1.397 . S
C1148 C1153 1.363 . S
C1149 H1120 0.950 . S
C1149 C1148 1.397 . S
C1149 C1150 1.334 . S
C1150 H1121 0.950 . S
C1150 C1149 1.334 . S
C1150 C1151 1.287 . S
C1151 C1150 1.287 . S
C1151 C1152 1.524 . S
C1151 H1154 0.999 . S
C1152 H1122 0.950 . S
C1152 C1151 1.524 . S
C1152 C1153 1.415 . S
C1153 H1123 0.950 . S
C1153 C1148 1.363 . S
C1153 C1152 1.415 . S
H1154 C1151 0.999 . S
H1155 C1136 0.913 1_545 S
H1156 C1174 0.951 . S
H1157 C1176 0.951 . S
H1158 C1178 0.950 . S
H1159 C1179 0.950 . S
H1160 C1181 0.950 . S
H1161 C1184 0.950 . S
H1162 C1185 0.950 . S
H1163 C1187 0.950 . S
H1164 C1188 0.950 . S
H1165 C1189 0.951 . S
H1166 C1191 0.951 . S
H1167 C1193 0.950 . S
H1168 C1194 0.950 . S
H1169 C1196 0.950 . S
H1170 C1199 0.950 . S
H1171 C1200 0.950 . S
H1172 C1202 0.950 . S
H1173 C1203 0.950 . S
C1174 H1156 0.951 . S
C1174 C1175 1.366 . S
C1174 C1176 1.388 . S
C1175 C1174 1.366 . S
C1175 C1179 1.385 . S
C1176 H1157 0.951 . S
C1176 C1174 1.388 . S
C1176 C1177 1.366 . S
C1177 C1176 1.366 . S
C1177 C1178 1.414 . S
C1177 C1180 1.499 . S
C1178 H1158 0.950 . S
C1178 C1177 1.414 . S
C1178 C1179 1.374 . S
C1179 H1159 0.950 . S
C1179 C1175 1.385 . S
C1179 C1178 1.374 . S
C1180 C1177 1.499 . S
C1180 C1181 1.373 . S
C1180 C1182 1.389 . S
C1181 H1160 0.950 . S
C1181 C1180 1.373 . S
C1181 C1197 1.377 . S
C1182 C1180 1.389 . S
C1182 C1183 1.524 . S
C1182 C1196 1.377 . S
C1183 C1182 1.524 . S
C1183 C1184 1.397 . S
C1183 C1188 1.363 . S
C1184 H1161 0.950 . S
C1184 C1183 1.397 . S
C1184 C1185 1.334 . S
C1185 H1162 0.950 . S
C1185 C1184 1.334 . S
C1185 C1186 1.287 . S
C1186 C1185 1.287 . S
C1186 C1187 1.524 . S
C1186 H1205 0.913 . S
C1187 H1163 0.950 . S
C1187 C1186 1.524 . S
C1187 C1188 1.415 . S
C1188 H1164 0.950 . S
C1188 C1183 1.363 . S
C1188 C1187 1.415 . S
C1189 H1165 0.951 . S
C1189 C1190 1.366 . S
C1189 C1191 1.388 . S
C1190 C1189 1.366 . S
C1190 C1194 1.385 . S
C1191 H1166 0.951 . S
C1191 C1189 1.388 . S
C1191 C1192 1.366 . S
C1192 C1191 1.366 . S
C1192 C1193 1.414 . S
C1192 C1195 1.499 . S
C1193 H1167 0.950 . S
C1193 C1192 1.414 . S
C1193 C1194 1.374 . S
C1194 H1168 0.950 . S
C1194 C1190 1.385 . S
C1194 C1193 1.374 . S
C1195 C1192 1.499 . S
C1195 C1196 1.373 . S
C1195 C1197 1.389 . S
C1196 H1169 0.950 . S
C1196 C1182 1.377 . S
C1196 C1195 1.373 . S
C1197 C1181 1.377 . S
C1197 C1195 1.389 . S
C1197 C1198 1.524 . S
C1198 C1197 1.524 . S
C1198 C1199 1.397 . S
C1198 C1203 1.363 . S
C1199 H1170 0.950 . S
C1199 C1198 1.397 . S
C1199 C1200 1.334 . S
C1200 H1171 0.950 . S
C1200 C1199 1.334 . S
C1200 C1201 1.287 . S
C1201 C1200 1.287 . S
C1201 C1202 1.524 . S
C1201 H1204 0.999 . S
C1202 H1172 0.950 . S
C1202 C1201 1.524 . S
C1202 C1203 1.415 . S
C1203 H1173 0.950 . S
C1203 C1198 1.363 . S
C1203 C1202 1.415 . S
H1204 C1201 0.999 . S
H1205 C1186 0.913 . S
H1206 C1224 0.951 . S
H1207 C1226 0.951 . S
H1208 C1228 0.950 . S
H1209 C1229 0.950 . S
H1210 C1231 0.950 . S
H1211 C1234 0.950 . S
H1212 C1235 0.950 . S
H1213 C1237 0.950 . S
H1214 C1238 0.950 . S
H1215 C1239 0.951 . S
H1216 C1241 0.951 . S
H1217 C1243 0.950 . S
H1218 C1244 0.950 . S
H1219 C1246 0.950 . S
H1220 C1249 0.950 . S
H1221 C1250 0.950 . S
H1222 C1252 0.950 . S
H1223 C1253 0.950 . S
C1224 H1206 0.951 . S
C1224 C1225 1.366 . S
C1224 C1226 1.388 . S
C1225 C1224 1.366 . S
C1225 C1229 1.385 . S
C1226 H1207 0.951 . S
C1226 C1224 1.388 . S
C1226 C1227 1.366 . S
C1227 C1226 1.366 . S
C1227 C1228 1.414 . S
C1227 C1230 1.499 . S
C1228 H1208 0.950 . S
C1228 C1227 1.414 . S
C1228 C1229 1.374 . S
C1229 H1209 0.950 . S
C1229 C1225 1.385 . S
C1229 C1228 1.374 . S
C1230 C1227 1.499 . S
C1230 C1231 1.373 . S
C1230 C1232 1.389 . S
C1231 H1210 0.950 . S
C1231 C1230 1.373 . S
C1231 C1247 1.377 . S
C1232 C1230 1.389 . S
C1232 C1233 1.524 . S
C1232 C1246 1.377 . S
C1233 C1232 1.524 . S
C1233 C1234 1.397 . S
C1233 C1238 1.363 . S
C1234 H1211 0.950 . S
C1234 C1233 1.397 . S
C1234 C1235 1.334 . S
C1235 H1212 0.950 . S
C1235 C1234 1.334 . S
C1235 C1236 1.287 . S
C1236 C1235 1.287 . S
C1236 C1237 1.524 . S
C1236 H1255 0.913 . S
C1237 H1213 0.950 . S
C1237 C1236 1.524 . S
C1237 C1238 1.415 . S
C1238 H1214 0.950 . S
C1238 C1233 1.363 . S
C1238 C1237 1.415 . S
C1239 H1215 0.951 . S
C1239 C1240 1.366 . S
C1239 C1241 1.388 . S
C1240 C1239 1.366 . S
C1240 C1244 1.385 . S
C1241 H1216 0.951 . S
C1241 C1239 1.388 . S
C1241 C1242 1.366 . S
C1242 C1241 1.366 . S
C1242 C1243 1.414 . S
C1242 C1245 1.499 . S
C1243 H1217 0.950 . S
C1243 C1242 1.414 . S
C1243 C1244 1.374 . S
C1244 H1218 0.950 . S
C1244 C1240 1.385 . S
C1244 C1243 1.374 . S
C1245 C1242 1.499 . S
C1245 C1246 1.373 . S
C1245 C1247 1.389 . S
C1246 H1219 0.950 . S
C1246 C1232 1.377 . S
C1246 C1245 1.373 . S
C1247 C1231 1.377 . S
C1247 C1245 1.389 . S
C1247 C1248 1.524 . S
C1248 C1247 1.524 . S
C1248 C1249 1.397 . S
C1248 C1253 1.363 . S
C1249 H1220 0.950 . S
C1249 C1248 1.397 . S
C1249 C1250 1.334 . S
C1250 H1221 0.950 . S
C1250 C1249 1.334 . S
C1250 C1251 1.287 . S
C1251 C1250 1.287 . S
C1251 C1252 1.524 . S
C1251 H1254 0.999 . S
C1252 H1222 0.950 . S
C1252 C1251 1.524 . S
C1252 C1253 1.415 . S
C1253 H1223 0.950 . S
C1253 C1248 1.363 . S
C1253 C1252 1.415 . S
H1254 C1251 0.999 . S
H1255 C1236 0.913 . S
H1256 C1274 0.951 . S
H1257 C1276 0.951 . S
H1258 C1278 0.950 . S
H1259 C1279 0.950 . S
H1260 C1281 0.950 . S
H1261 C1284 0.950 . S
H1262 C1285 0.950 . S
H1263 C1287 0.950 . S
H1264 C1288 0.950 . S
H1265 C1289 0.951 . S
H1266 C1291 0.951 . S
H1267 C1293 0.950 . S
H1268 C1294 0.950 . S
H1269 C1296 0.950 . S
H1270 C1299 0.950 . S
H1271 C1300 0.950 . S
H1272 C1302 0.950 . S
H1273 C1303 0.950 . S
C1274 H1256 0.951 . S
C1274 C1275 1.366 . S
C1274 C1276 1.388 . S
C1275 C1274 1.366 . S
C1275 C1279 1.385 . S
C1276 H1257 0.951 . S
C1276 C1274 1.388 . S
C1276 C1277 1.366 . S
C1277 C1276 1.366 . S
C1277 C1278 1.414 . S
C1277 C1280 1.499 . S
C1278 H1258 0.950 . S
C1278 C1277 1.414 . S
C1278 C1279 1.374 . S
C1279 H1259 0.950 . S
C1279 C1275 1.385 . S
C1279 C1278 1.374 . S
C1280 C1277 1.499 . S
C1280 C1281 1.373 . S
C1280 C1282 1.389 . S
C1281 H1260 0.950 . S
C1281 C1280 1.373 . S
C1281 C1297 1.377 . S
C1282 C1280 1.389 . S
C1282 C1283 1.524 . S
C1282 C1296 1.377 . S
C1283 C1282 1.524 . S
C1283 C1284 1.397 . S
C1283 C1288 1.363 . S
C1284 H1261 0.950 . S
C1284 C1283 1.397 . S
C1284 C1285 1.334 . S
C1285 H1262 0.950 . S
C1285 C1284 1.334 . S
C1285 C1286 1.287 . S
C1286 C1285 1.287 . S
C1286 C1287 1.524 . S
C1286 H1305 0.913 . S
C1287 H1263 0.950 . S
C1287 C1286 1.524 . S
C1287 C1288 1.415 . S
C1288 H1264 0.950 . S
C1288 C1283 1.363 . S
C1288 C1287 1.415 . S
C1289 H1265 0.951 . S
C1289 C1290 1.366 . S
C1289 C1291 1.388 . S
C1290 C1289 1.366 . S
C1290 C1294 1.385 . S
C1291 H1266 0.951 . S
C1291 C1289 1.388 . S
C1291 C1292 1.366 . S
C1292 C1291 1.366 . S
C1292 C1293 1.414 . S
C1292 C1295 1.499 . S
C1293 H1267 0.950 . S
C1293 C1292 1.414 . S
C1293 C1294 1.374 . S
C1294 H1268 0.950 . S
C1294 C1290 1.385 . S
C1294 C1293 1.374 . S
C1295 C1292 1.499 . S
C1295 C1296 1.373 . S
C1295 C1297 1.389 . S
C1296 H1269 0.950 . S
C1296 C1282 1.377 . S
C1296 C1295 1.373 . S
C1297 C1281 1.377 . S
C1297 C1295 1.389 . S
C1297 C1298 1.524 . S
C1298 C1297 1.524 . S
C1298 C1299 1.397 . S
C1298 C1303 1.363 . S
C1299 H1270 0.950 . S
C1299 C1298 1.397 . S
C1299 C1300 1.334 . S
C1300 H1271 0.950 . S
C1300 C1299 1.334 . S
C1300 C1301 1.287 . S
C1301 C1300 1.287 . S
C1301 C1302 1.524 . S
C1301 H1304 0.999 . S
C1302 H1272 0.950 . S
C1302 C1301 1.524 . S
C1302 C1303 1.415 . S
C1303 H1273 0.950 . S
C1303 C1298 1.363 . S
C1303 C1302 1.415 . S
H1304 C1301 0.999 . S
H1305 C1286 0.913 . S
H1306 C1324 0.951 . S
H1307 C1326 0.951 . S
H1308 C1328 0.950 . S
H1309 C1329 0.950 . S
H1310 C1331 0.950 . S
H1311 C1334 0.950 . S
H1312 C1335 0.950 . S
H1313 C1337 0.950 . S
H1314 C1338 0.950 . S
H1315 C1339 0.951 . S
H1316 C1341 0.951 . S
H1317 C1343 0.950 . S
H1318 C1344 0.950 . S
H1319 C1346 0.950 . S
H1320 C1349 0.950 . S
H1321 C1350 0.950 . S
H1322 C1352 0.950 . S
H1323 C1353 0.950 . S
C1324 H1306 0.951 . S
C1324 C1325 1.366 . S
C1324 C1326 1.388 . S
C1325 C1324 1.366 . S
C1325 C1329 1.385 . S
C1326 H1307 0.951 . S
C1326 C1324 1.388 . S
C1326 C1327 1.366 . S
C1327 C1326 1.366 . S
C1327 C1328 1.414 . S
C1327 C1330 1.499 . S
C1328 H1308 0.950 . S
C1328 C1327 1.414 . S
C1328 C1329 1.374 . S
C1329 H1309 0.950 . S
C1329 C1325 1.385 . S
C1329 C1328 1.374 . S
C1330 C1327 1.499 . S
C1330 C1331 1.373 . S
C1330 C1332 1.389 . S
C1331 H1310 0.950 . S
C1331 C1330 1.373 . S
C1331 C1347 1.377 . S
C1332 C1330 1.389 . S
C1332 C1333 1.524 . S
C1332 C1346 1.377 . S
C1333 C1332 1.524 . S
C1333 C1334 1.397 . S
C1333 C1338 1.363 . S
C1334 H1311 0.950 . S
C1334 C1333 1.397 . S
C1334 C1335 1.334 . S
C1335 H1312 0.950 . S
C1335 C1334 1.334 . S
C1335 C1336 1.287 . S
C1336 C1335 1.287 . S
C1336 C1337 1.524 . S
C1336 H1355 0.913 . S
C1337 H1313 0.950 . S
C1337 C1336 1.524 . S
C1337 C1338 1.415 . S
C1338 H1314 0.950 . S
C1338 C1333 1.363 . S
C1338 C1337 1.415 . S
C1339 H1315 0.951 . S
C1339 C1340 1.366 . S
C1339 C1341 1.388 . S
C1340 C1339 1.366 . S
C1340 C1344 1.385 . S
C1341 H1316 0.951 . S
C1341 C1339 1.388 . S
C1341 C1342 1.366 . S
C1342 C1341 1.366 . S
C1342 C1343 1.414 . S
C1342 C1345 1.499 . S
C1343 H1317 0.950 . S
C1343 C1342 1.414 . S
C1343 C1344 1.374 . S
C1344 H1318 0.950 . S
C1344 C1340 1.385 . S
C1344 C1343 1.374 . S
C1345 C1342 1.499 . S
C1345 C1346 1.373 . S
C1345 C1347 1.389 . S
C1346 H1319 0.950 . S
C1346 C1332 1.377 . S
C1346 C1345 1.373 . S
C1347 C1331 1.377 . S
C1347 C1345 1.389 . S
C1347 C1348 1.524 . S
C1348 C1347 1.524 . S
C1348 C1349 1.397 . S
C1348 C1353 1.363 . S
C1349 H1320 0.950 . S
C1349 C1348 1.397 . S
C1349 C1350 1.334 . S
C1350 H1321 0.950 . S
C1350 C1349 1.334 . S
C1350 C1351 1.287 . S
C1351 C1350 1.287 . S
C1351 C1352 1.524 . S
C1351 H1354 0.999 . S
C1352 H1322 0.950 . S
C1352 C1351 1.524 . S
C1352 C1353 1.415 . S
C1353 H1323 0.950 . S
C1353 C1348 1.363 . S
C1353 C1352 1.415 . S
H1354 C1351 0.999 . S
H1355 C1336 0.913 . S
H1356 C1374 0.951 . S
H1357 C1376 0.951 . S
H1358 C1378 0.950 . S
H1359 C1379 0.950 . S
H1360 C1381 0.950 . S
H1361 C1384 0.950 . S
H1362 C1385 0.950 . S
H1363 C1387 0.950 . S
H1364 C1388 0.950 . S
H1365 C1389 0.951 . S
H1366 C1391 0.951 . S
H1367 C1393 0.950 . S
H1368 C1394 0.950 . S
H1369 C1396 0.950 . S
H1370 C1399 0.950 . S
H1371 C1400 0.950 . S
H1372 C1402 0.950 . S
H1373 C1403 0.950 . S
C1374 H1356 0.951 . S
C1374 C1375 1.366 . S
C1374 C1376 1.388 . S
C1375 C1374 1.366 . S
C1375 C1379 1.385 . S
C1376 H1357 0.951 . S
C1376 C1374 1.388 . S
C1376 C1377 1.366 . S
C1377 C1376 1.366 . S
C1377 C1378 1.414 . S
C1377 C1380 1.499 . S
C1378 H1358 0.950 . S
C1378 C1377 1.414 . S
C1378 C1379 1.374 . S
C1379 H1359 0.950 . S
C1379 C1375 1.385 . S
C1379 C1378 1.374 . S
C1380 C1377 1.499 . S
C1380 C1381 1.373 . S
C1380 C1382 1.389 . S
C1381 H1360 0.950 . S
C1381 C1380 1.373 . S
C1381 C1397 1.377 . S
C1382 C1380 1.389 . S
C1382 C1383 1.524 . S
C1382 C1396 1.377 . S
C1383 C1382 1.524 . S
C1383 C1384 1.397 . S
C1383 C1388 1.363 . S
C1384 H1361 0.950 . S
C1384 C1383 1.397 . S
C1384 C1385 1.334 . S
C1385 H1362 0.950 . S
C1385 C1384 1.334 . S
C1385 C1386 1.287 . S
C1386 C1385 1.287 . S
C1386 C1387 1.524 . S
C1386 H1405 0.913 . S
C1387 H1363 0.950 . S
C1387 C1386 1.524 . S
C1387 C1388 1.415 . S
C1388 H1364 0.950 . S
C1388 C1383 1.363 . S
C1388 C1387 1.415 . S
C1389 H1365 0.951 . S
C1389 C1390 1.366 . S
C1389 C1391 1.388 . S
C1390 C1389 1.366 . S
C1390 C1394 1.385 . S
C1391 H1366 0.951 . S
C1391 C1389 1.388 . S
C1391 C1392 1.366 . S
C1392 C1391 1.366 . S
C1392 C1393 1.414 . S
C1392 C1395 1.499 . S
C1393 H1367 0.950 . S
C1393 C1392 1.414 . S
C1393 C1394 1.374 . S
C1394 H1368 0.950 . S
C1394 C1390 1.385 . S
C1394 C1393 1.374 . S
C1395 C1392 1.499 . S
C1395 C1396 1.373 . S
C1395 C1397 1.389 . S
C1396 H1369 0.950 . S
C1396 C1382 1.377 . S
C1396 C1395 1.373 . S
C1397 C1381 1.377 . S
C1397 C1395 1.389 . S
C1397 C1398 1.524 . S
C1398 C1397 1.524 . S
C1398 C1399 1.397 . S
C1398 C1403 1.363 . S
C1399 H1370 0.950 . S
C1399 C1398 1.397 . S
C1399 C1400 1.334 . S
C1400 H1371 0.950 . S
C1400 C1399 1.334 . S
C1400 C1401 1.287 . S
C1401 C1400 1.287 . S
C1401 C1402 1.524 . S
C1401 H1404 0.999 . S
C1402 H1372 0.950 . S
C1402 C1401 1.524 . S
C1402 C1403 1.415 . S
C1403 H1373 0.950 . S
C1403 C1398 1.363 . S
C1403 C1402 1.415 . S
H1404 C1401 0.999 . S
H1405 C1386 0.913 . S
H1406 C1424 0.951 . S
H1407 C1426 0.951 . S
H1408 C1428 0.950 . S
H1409 C1429 0.950 . S
H1410 C1431 0.950 . S
H1411 C1434 0.950 . S
H1412 C1435 0.950 . S
H1413 C1437 0.950 . S
H1414 C1438 0.950 . S
H1415 C1439 0.951 . S
H1416 C1441 0.951 . S
H1417 C1443 0.950 . S
H1418 C1444 0.950 . S
H1419 C1446 0.950 . S
H1420 C1449 0.950 . S
H1421 C1450 0.950 . S
H1422 C1452 0.950 . S
H1423 C1453 0.950 . S
C1424 H1406 0.951 . S
C1424 C1425 1.366 . S
C1424 C1426 1.388 . S
C1425 C1424 1.366 . S
C1425 C1429 1.385 . S
C1426 H1407 0.951 . S
C1426 C1424 1.388 . S
C1426 C1427 1.366 . S
C1427 C1426 1.366 . S
C1427 C1428 1.414 . S
C1427 C1430 1.499 . S
C1428 H1408 0.950 . S
C1428 C1427 1.414 . S
C1428 C1429 1.374 . S
C1429 H1409 0.950 . S
C1429 C1425 1.385 . S
C1429 C1428 1.374 . S
C1430 C1427 1.499 . S
C1430 C1431 1.373 . S
C1430 C1432 1.389 . S
C1431 H1410 0.950 . S
C1431 C1430 1.373 . S
C1431 C1447 1.377 . S
C1432 C1430 1.389 . S
C1432 C1433 1.524 . S
C1432 C1446 1.377 . S
C1433 C1432 1.524 . S
C1433 C1434 1.397 . S
C1433 C1438 1.363 . S
C1434 H1411 0.950 . S
C1434 C1433 1.397 . S
C1434 C1435 1.334 . S
C1435 H1412 0.950 . S
C1435 C1434 1.334 . S
C1435 C1436 1.287 . S
C1436 C1435 1.287 . S
C1436 C1437 1.524 . S
C1436 H1455 0.913 . S
C1437 H1413 0.950 . S
C1437 C1436 1.524 . S
C1437 C1438 1.415 . S
C1438 H1414 0.950 . S
C1438 C1433 1.363 . S
C1438 C1437 1.415 . S
C1439 H1415 0.951 . S
C1439 C1440 1.366 . S
C1439 C1441 1.388 . S
C1440 C1439 1.366 . S
C1440 C1444 1.385 . S
C1441 H1416 0.951 . S
C1441 C1439 1.388 . S
C1441 C1442 1.366 . S
C1442 C1441 1.366 . S
C1442 C1443 1.414 . S
C1442 C1445 1.499 . S
C1443 H1417 0.950 . S
C1443 C1442 1.414 . S
C1443 C1444 1.374 . S
C1444 H1418 0.950 . S
C1444 C1440 1.385 . S
C1444 C1443 1.374 . S
C1445 C1442 1.499 . S
C1445 C1446 1.373 . S
C1445 C1447 1.389 . S
C1446 H1419 0.950 . S
C1446 C1432 1.377 . S
C1446 C1445 1.373 . S
C1447 C1431 1.377 . S
C1447 C1445 1.389 . S
C1447 C1448 1.524 . S
C1448 C1447 1.524 . S
C1448 C1449 1.397 . S
C1448 C1453 1.363 . S
C1449 H1420 0.950 . S
C1449 C1448 1.397 . S
C1449 C1450 1.334 . S
C1450 H1421 0.950 . S
C1450 C1449 1.334 . S
C1450 C1451 1.287 . S
C1451 C1450 1.287 . S
C1451 C1452 1.524 . S
C1451 H1454 0.999 . S
C1452 H1422 0.950 . S
C1452 C1451 1.524 . S
C1452 C1453 1.415 . S
C1453 H1423 0.950 . S
C1453 C1448 1.363 . S
C1453 C1452 1.415 . S
H1454 C1451 0.999 . S
H1455 C1436 0.913 . S
H1456 C1474 0.951 . S
H1457 C1476 0.951 . S
H1458 C1478 0.950 . S
H1459 C1479 0.950 . S
H1460 C1481 0.950 1_455 S
H1461 C1484 0.950 . S
H1462 C1485 0.950 . S
H1463 C1487 0.950 . S
H1464 C1488 0.950 . S
H1465 C1489 0.951 . S
H1466 C1491 0.951 . S
H1467 C1493 0.950 . S
H1468 C1494 0.950 . S
H1469 C1496 0.950 . S
H1470 C1499 0.950 . S
H1471 C1500 0.950 . S
H1472 C1502 0.950 . S
H1473 C1503 0.950 . S
C1474 H1456 0.951 . S
C1474 C1475 1.366 . S
C1474 C1476 1.388 1_455 S
C1475 C1474 1.366 . S
C1475 C1479 1.385 . S
C1476 H1457 0.951 . S
C1476 C1474 1.388 1_655 S
C1476 C1477 1.366 . S
C1477 C1476 1.366 . S
C1477 C1478 1.414 1_655 S
C1477 C1480 1.499 . S
C1478 H1458 0.950 . S
C1478 C1477 1.414 1_455 S
C1478 C1479 1.374 . S
C1479 H1459 0.950 . S
C1479 C1475 1.385 . S
C1479 C1478 1.374 . S
C1480 C1477 1.499 . S
C1480 C1481 1.373 . S
C1480 C1482 1.389 . S
C1481 H1460 0.950 1_655 S
C1481 C1480 1.373 . S
C1481 C1497 1.377 . S
C1482 C1480 1.389 . S
C1482 C1483 1.524 . S
C1482 C1496 1.377 . S
C1483 C1482 1.524 . S
C1483 C1484 1.397 . S
C1483 C1488 1.363 . S
C1484 H1461 0.950 . S
C1484 C1483 1.397 . S
C1484 C1485 1.334 . S
C1485 H1462 0.950 . S
C1485 C1484 1.334 . S
C1485 C1486 1.287 . S
C1486 C1485 1.287 . S
C1486 C1487 1.524 . S
C1486 H1505 0.913 . S
C1487 H1463 0.950 . S
C1487 C1486 1.524 . S
C1487 C1488 1.415 . S
C1488 H1464 0.950 . S
C1488 C1483 1.363 . S
C1488 C1487 1.415 . S
C1489 H1465 0.951 . S
C1489 C1490 1.366 . S
C1489 C1491 1.388 . S
C1490 C1489 1.366 . S
C1490 C1494 1.385 . S
C1491 H1466 0.951 . S
C1491 C1489 1.388 . S
C1491 C1492 1.366 . S
C1492 C1491 1.366 . S
C1492 C1493 1.414 . S
C1492 C1495 1.499 . S
C1493 H1467 0.950 . S
C1493 C1492 1.414 . S
C1493 C1494 1.374 . S
C1494 H1468 0.950 . S
C1494 C1490 1.385 . S
C1494 C1493 1.374 . S
C1495 C1492 1.499 . S
C1495 C1496 1.373 . S
C1495 C1497 1.389 . S
C1496 H1469 0.950 . S
C1496 C1482 1.377 . S
C1496 C1495 1.373 . S
C1497 C1481 1.377 . S
C1497 C1495 1.389 . S
C1497 C1498 1.524 . S
C1498 C1497 1.524 . S
C1498 C1499 1.397 . S
C1498 C1503 1.363 1_655 S
C1499 H1470 0.950 . S
C1499 C1498 1.397 . S
C1499 C1500 1.334 . S
C1500 H1471 0.950 . S
C1500 C1499 1.334 . S
C1500 C1501 1.287 1_655 S
C1501 C1500 1.287 1_455 S
C1501 C1502 1.524 . S
C1501 H1504 0.999 . S
C1502 H1472 0.950 . S
C1502 C1501 1.524 . S
C1502 C1503 1.415 . S
C1503 H1473 0.950 . S
C1503 C1498 1.363 1_455 S
C1503 C1502 1.415 . S
H1504 C1501 0.999 . S
H1505 C1486 0.913 . S
H1506 C1524 1.006 . S
H1507 C1526 0.951 . S
H1508 C1528 0.950 . S
H1509 C1529 0.950 . S
H1510 C1531 0.950 . S
H1511 C1534 0.950 . S
H1512 C1535 0.950 . S
H1513 C1537 0.944 1_545 S
H1514 C1538 0.950 . S
H1515 C1539 0.951 . S
H1516 C1541 0.951 . S
H1517 C1543 0.950 . S
H1518 C1544 0.950 . S
H1519 C1546 0.950 . S
H1520 C1549 0.950 . S
H1521 C1550 0.950 . S
H1522 C1552 0.950 . S
H1523 C1553 0.950 . S
C1524 H1506 1.006 . S
C1524 C1525 1.366 . S
C1524 C1526 1.388 . S
C1525 C1524 1.366 . S
C1525 C1529 1.385 . S
C1526 H1507 0.951 . S
C1526 C1524 1.388 . S
C1526 C1527 1.366 . S
C1527 C1526 1.366 . S
C1527 C1528 1.414 . S
C1527 C1530 1.499 . S
C1528 H1508 0.950 . S
C1528 C1527 1.414 . S
C1528 C1529 1.374 . S
C1529 H1509 0.950 . S
C1529 C1525 1.385 . S
C1529 C1528 1.374 . S
C1530 C1527 1.499 . S
C1530 C1531 1.373 . S
C1530 C1532 1.389 . S
C1531 H1510 0.950 . S
C1531 C1530 1.373 . S
C1531 C1547 1.377 . S
C1532 C1530 1.389 . S
C1532 C1533 1.524 . S
C1532 C1546 1.377 . S
C1533 C1532 1.524 . S
C1533 C1534 1.397 . S
C1533 C1538 1.363 . S
C1534 H1511 0.950 . S
C1534 C1533 1.397 . S
C1534 C1535 1.334 . S
C1535 H1512 0.950 . S
C1535 C1534 1.334 . S
C1535 C1536 1.287 . S
C1536 C1535 1.287 . S
C1536 C1537 1.524 . S
C1536 H1555 0.913 1_565 S
C1537 H1513 0.944 1_565 S
C1537 C1536 1.524 . S
C1537 C1538 1.421 . S
C1538 H1514 0.950 . S
C1538 C1533 1.363 . S
C1538 C1537 1.421 . S
C1539 H1515 0.951 . S
C1539 C1540 1.366 . S
C1539 C1541 1.388 . S
C1540 C1539 1.366 . S
C1540 C1544 1.385 . S
C1541 H1516 0.951 . S
C1541 C1539 1.388 . S
C1541 C1542 1.366 . S
C1542 C1541 1.366 . S
C1542 C1543 1.414 . S
C1542 C1545 1.499 . S
C1543 H1517 0.950 . S
C1543 C1542 1.414 . S
C1543 C1544 1.374 . S
C1544 H1518 0.950 . S
C1544 C1540 1.385 . S
C1544 C1543 1.374 . S
C1545 C1542 1.499 . S
C1545 C1546 1.373 . S
C1545 C1547 1.389 . S
C1546 H1519 0.950 . S
C1546 C1532 1.377 . S
C1546 C1545 1.373 . S
C1547 C1531 1.377 . S
C1547 C1545 1.389 . S
C1547 C1548 1.524 . S
C1548 C1547 1.524 . S
C1548 C1549 1.397 . S
C1548 C1553 1.363 . S
C1549 H1520 0.950 . S
C1549 C1548 1.397 . S
C1549 C1550 1.334 . S
C1550 H1521 0.950 . S
C1550 C1549 1.334 . S
C1550 C1551 1.287 . S
C1551 C1550 1.287 . S
C1551 C1552 1.524 . S
C1551 H1554 0.999 . S
C1552 H1522 0.950 . S
C1552 C1551 1.524 . S
C1552 C1553 1.415 . S
C1553 H1523 0.950 . S
C1553 C1548 1.363 . S
C1553 C1552 1.415 . S
H1554 C1551 0.999 . S
H1555 C1536 0.913 1_545 S
H1556 C1574 0.951 . S
H1557 C1576 0.951 . S
H1558 C1578 0.950 . S
H1559 C1579 0.950 . S
H1560 C1581 0.950 . S
H1561 C1584 0.950 . S
H1562 C1585 0.950 . S
H1563 C1587 0.950 . S
H1564 C1588 0.950 . S
H1565 C1589 0.951 . S
H1566 C1591 0.951 . S
H1567 C1593 0.950 . S
H1568 C1594 0.950 . S
H1569 C1596 0.950 . S
H1570 C1599 0.950 . S
H1571 C1600 0.950 . S
H1572 C1602 0.950 . S
H1573 C1603 0.950 . S
C1574 H1556 0.951 . S
C1574 C1575 1.366 . S
C1574 C1576 1.388 . S
C1575 C1574 1.366 . S
C1575 C1579 1.385 . S
C1576 H1557 0.951 . S
C1576 C1574 1.388 . S
C1576 C1577 1.366 . S
C1577 C1576 1.366 . S
C1577 C1578 1.414 . S
C1577 C1580 1.499 . S
C1578 H1558 0.950 . S
C1578 C1577 1.414 . S
C1578 C1579 1.374 . S
C1579 H1559 0.950 . S
C1579 C1575 1.385 . S
C1579 C1578 1.374 . S
C1580 C1577 1.499 . S
C1580 C1581 1.373 . S
C1580 C1582 1.389 . S
C1581 H1560 0.950 . S
C1581 C1580 1.373 . S
C1581 C1597 1.377 . S
C1582 C1580 1.389 . S
C1582 C1583 1.524 . S
C1582 C1596 1.377 . S
C1583 C1582 1.524 . S
C1583 C1584 1.397 . S
C1583 C1588 1.363 . S
C1584 H1561 0.950 . S
C1584 C1583 1.397 . S
C1584 C1585 1.334 . S
C1585 H1562 0.950 . S
C1585 C1584 1.334 . S
C1585 C1586 1.287 . S
C1586 C1585 1.287 . S
C1586 C1587 1.524 . S
C1586 H1605 0.913 . S
C1587 H1563 0.950 . S
C1587 C1586 1.524 . S
C1587 C1588 1.415 . S
C1588 H1564 0.950 . S
C1588 C1583 1.363 . S
C1588 C1587 1.415 . S
C1589 H1565 0.951 . S
C1589 C1590 1.366 . S
C1589 C1591 1.388 . S
C1590 C1589 1.366 . S
C1590 C1594 1.385 . S
C1591 H1566 0.951 . S
C1591 C1589 1.388 . S
C1591 C1592 1.366 . S
C1592 C1591 1.366 . S
C1592 C1593 1.414 . S
C1592 C1595 1.499 . S
C1593 H1567 0.950 . S
C1593 C1592 1.414 . S
C1593 C1594 1.374 . S
C1594 H1568 0.950 . S
C1594 C1590 1.385 . S
C1594 C1593 1.374 . S
C1595 C1592 1.499 . S
C1595 C1596 1.373 . S
C1595 C1597 1.389 . S
C1596 H1569 0.950 . S
C1596 C1582 1.377 . S
C1596 C1595 1.373 . S
C1597 C1581 1.377 . S
C1597 C1595 1.389 . S
C1597 C1598 1.524 . S
C1598 C1597 1.524 . S
C1598 C1599 1.397 . S
C1598 C1603 1.363 . S
C1599 H1570 0.950 . S
C1599 C1598 1.397 . S
C1599 C1600 1.334 . S
C1600 H1571 0.950 . S
C1600 C1599 1.334 . S
C1600 C1601 1.287 . S
C1601 C1600 1.287 . S
C1601 C1602 1.524 . S
C1601 H1604 0.999 . S
C1602 H1572 0.950 . S
C1602 C1601 1.524 . S
C1602 C1603 1.415 . S
C1603 H1573 0.950 . S
C1603 C1598 1.363 . S
C1603 C1602 1.415 . S
H1604 C1601 0.999 . S
H1605 C1586 0.913 . S
H1606 C1624 0.951 . S
H1607 C1626 0.951 . S
H1608 C1628 0.950 . S
H1609 C1629 0.950 . S
H1610 C1631 0.950 . S
H1611 C1634 0.950 . S
H1612 C1635 0.950 . S
H1613 C1637 0.950 . S
H1614 C1638 0.950 . S
H1615 C1639 0.951 . S
H1616 C1641 0.951 . S
H1617 C1643 0.950 . S
H1618 C1644 0.950 . S
H1619 C1646 0.950 . S
H1620 C1649 0.950 . S
H1621 C1650 0.950 . S
H1622 C1652 0.950 . S
H1623 C1653 0.950 . S
C1624 H1606 0.951 . S
C1624 C1625 1.366 . S
C1624 C1626 1.388 . S
C1625 C1624 1.366 . S
C1625 C1629 1.385 . S
C1626 H1607 0.951 . S
C1626 C1624 1.388 . S
C1626 C1627 1.366 . S
C1627 C1626 1.366 . S
C1627 C1628 1.414 . S
C1627 C1630 1.499 . S
C1628 H1608 0.950 . S
C1628 C1627 1.414 . S
C1628 C1629 1.374 . S
C1629 H1609 0.950 . S
C1629 C1625 1.385 . S
C1629 C1628 1.374 . S
C1630 C1627 1.499 . S
C1630 C1631 1.373 . S
C1630 C1632 1.389 . S
C1631 H1610 0.950 . S
C1631 C1630 1.373 . S
C1631 C1647 1.377 . S
C1632 C1630 1.389 . S
C1632 C1633 1.524 . S
C1632 C1646 1.377 . S
C1633 C1632 1.524 . S
C1633 C1634 1.397 . S
C1633 C1638 1.363 . S
C1634 H1611 0.950 . S
C1634 C1633 1.397 . S
C1634 C1635 1.334 . S
C1635 H1612 0.950 . S
C1635 C1634 1.334 . S
C1635 C1636 1.287 . S
C1636 C1635 1.287 . S
C1636 C1637 1.524 . S
C1636 H1655 0.913 . S
C1637 H1613 0.950 . S
C1637 C1636 1.524 . S
C1637 C1638 1.415 . S
C1638 H1614 0.950 . S
C1638 C1633 1.363 . S
C1638 C1637 1.415 . S
C1639 H1615 0.951 . S
C1639 C1640 1.366 . S
C1639 C1641 1.388 . S
C1640 C1639 1.366 . S
C1640 C1644 1.385 . S
C1641 H1616 0.951 . S
C1641 C1639 1.388 . S
C1641 C1642 1.366 . S
C1642 C1641 1.366 . S
C1642 C1643 1.414 . S
C1642 C1645 1.499 . S
C1643 H1617 0.950 . S
C1643 C1642 1.414 . S
C1643 C1644 1.374 . S
C1644 H1618 0.950 . S
C1644 C1640 1.385 . S
C1644 C1643 1.374 . S
C1645 C1642 1.499 . S
C1645 C1646 1.373 . S
C1645 C1647 1.389 . S
C1646 H1619 0.950 . S
C1646 C1632 1.377 . S
C1646 C1645 1.373 . S
C1647 C1631 1.377 . S
C1647 C1645 1.389 . S
C1647 C1648 1.524 . S
C1648 C1647 1.524 . S
C1648 C1649 1.397 . S
C1648 C1653 1.363 . S
C1649 H1620 0.950 . S
C1649 C1648 1.397 . S
C1649 C1650 1.334 . S
C1650 H1621 0.950 . S
C1650 C1649 1.334 . S
C1650 C1651 1.287 . S
C1651 C1650 1.287 . S
C1651 C1652 1.524 . S
C1651 H1654 0.999 . S
C1652 H1622 0.950 . S
C1652 C1651 1.524 . S
C1652 C1653 1.415 . S
C1653 H1623 0.950 . S
C1653 C1648 1.363 . S
C1653 C1652 1.415 . S
H1654 C1651 0.999 . S
H1655 C1636 0.913 . S
C475 C13 1.718 . S
C490 C137 1.630 . S
C525 C27 1.832 . S
C540 C181 1.768 . S
C590 C261 1.544 . S
C575 C29 1.617 . S
C640 C305 1.656 . S
C625 C54 1.714 . S
C690 C385 1.707 . S
C675 C69 1.806 . S
C740 C441 1.785 . S
C725 C83 1.931 . S
C775 C15 1.964 . S
C790 C237 1.752 . S
C825 C41 1.725 . S
C840 C317 1.616 . S
C890 C361 1.730 . S
C875 C42 1.905 . S
C940 C429 1.612 . S
C925 C57 1.652 . S
C975 C71 1.753 . S
C990 C113 1.586 . S
C1040 C193 1.802 . S
C1025 C1 1.903 . S
C1090 C299 1.802 . S
C1075 C12 1.903 . S
C1125 C26 1.753 . S
C1140 C379 1.585 . S
C1190 C447 1.613 . S
C1175 C28 1.653 . S
C1225 C55 1.905 . S
C1240 C131 1.730 . S
C1275 C68 1.724 . S
C1290 C175 1.615 . S
C1325 C82 1.964 . S
C1340 C255 1.752 . S
C1375 C14 1.931 . S
C1390 C423 1.785 . S
C1440 C119 1.707 . S
C1425 C40 1.806 . S
C1475 C43 1.713 . S
C1490 C199 1.655 . S
C1525 C56 1.618 . S
C1540 C243 1.545 . S
C1575 C70 1.832 . S
C1590 C323 1.769 . S
C1625 C0 1.718 . S
C1640 C367 1.631 . S
