# Generated by pormake.
# Topology zzz, (3,6)-cn, num edge types: 1
# Building blocks:
#     Node 0, Type 0, BuildingBlock: BETDIP_clean_linker_0, # of connection points: 3
#     Node 1, Type 0, BuildingBlock: BETDIP_clean_linker_0, # of connection points: 3
#     Node 2, Type 0, BuildingBlock: BETDIP_clean_linker_0, # of connection points: 3
#     Node 3, Type 0, BuildingBlock: BETDIP_clean_linker_0, # of connection points: 3
#     Node 4, Type 0, BuildingBlock: BETDIP_clean_linker_0, # of connection points: 3
#     Node 5, Type 0, BuildingBlock: BETDIP_clean_linker_0, # of connection points: 3
#     Node 6, Type 0, BuildingBlock: BETDIP_clean_linker_0, # of connection points: 3
#     Node 7, Type 0, BuildingBlock: BETDIP_clean_linker_0, # of connection points: 3
#     Node 8, Type 1, BuildingBlock: BETDIP_clean_sbu_0, # of connection points: 6
#     Node 9, Type 1, BuildingBlock: BETDIP_clean_sbu_0, # of connection points: 6
#     Node 10, Type 1, BuildingBlock: BETDIP_clean_sbu_0, # of connection points: 6
#     Node 11, Type 1, BuildingBlock: BETDIP_clean_sbu_0, # of connection points: 6
#     Edge 12, Type (0, 1), BuildingBlock: UVAHIK_clean_linker_0, # of connection points: 2
#     Edge 13, Type (0, 1), BuildingBlock: UVAHIK_clean_linker_0, # of connection points: 2
#     Edge 14, Type (0, 1), BuildingBlock: UVAHIK_clean_linker_0, # of connection points: 2
#     Edge 15, Type (0, 1), BuildingBlock: UVAHIK_clean_linker_0, # of connection points: 2
#     Edge 16, Type (0, 1), BuildingBlock: UVAHIK_clean_linker_0, # of connection points: 2
#     Edge 17, Type (0, 1), BuildingBlock: UVAHIK_clean_linker_0, # of connection points: 2
#     Edge 18, Type (0, 1), BuildingBlock: UVAHIK_clean_linker_0, # of connection points: 2
#     Edge 19, Type (0, 1), BuildingBlock: UVAHIK_clean_linker_0, # of connection points: 2
#     Edge 20, Type (0, 1), BuildingBlock: UVAHIK_clean_linker_0, # of connection points: 2
#     Edge 21, Type (0, 1), BuildingBlock: UVAHIK_clean_linker_0, # of connection points: 2
#     Edge 22, Type (0, 1), BuildingBlock: UVAHIK_clean_linker_0, # of connection points: 2
#     Edge 23, Type (0, 1), BuildingBlock: UVAHIK_clean_linker_0, # of connection points: 2
#     Edge 24, Type (0, 1), BuildingBlock: UVAHIK_clean_linker_0, # of connection points: 2
#     Edge 25, Type (0, 1), BuildingBlock: UVAHIK_clean_linker_0, # of connection points: 2
#     Edge 26, Type (0, 1), BuildingBlock: UVAHIK_clean_linker_0, # of connection points: 2
#     Edge 27, Type (0, 1), BuildingBlock: UVAHIK_clean_linker_0, # of connection points: 2
#     Edge 28, Type (0, 1), BuildingBlock: UVAHIK_clean_linker_0, # of connection points: 2
#     Edge 29, Type (0, 1), BuildingBlock: UVAHIK_clean_linker_0, # of connection points: 2
#     Edge 30, Type (0, 1), BuildingBlock: UVAHIK_clean_linker_0, # of connection points: 2
#     Edge 31, Type (0, 1), BuildingBlock: UVAHIK_clean_linker_0, # of connection points: 2
#     Edge 32, Type (0, 1), BuildingBlock: UVAHIK_clean_linker_0, # of connection points: 2
#     Edge 33, Type (0, 1), BuildingBlock: UVAHIK_clean_linker_0, # of connection points: 2
#     Edge 34, Type (0, 1), BuildingBlock: UVAHIK_clean_linker_0, # of connection points: 2
#     Edge 35, Type (0, 1), BuildingBlock: UVAHIK_clean_linker_0, # of connection points: 2
# Relax obj value: 0.220
# Max RMSD: 0.152
# Mean RMSD: 0.145
data_MOF--net-zzz--node1-BETDIP_clean_sbu_0--node2-BETDIP_clean_linker_0--edge1-UVAHIK_clean_linker_0
_symmetry_space_group_name_H-M    P1
_symmetry_Int_Tables_number       1
_symmetry_cell_setting            triclinic
loop_
_symmetry_equiv_pos_as_xyz
'x, y, z'
_cell_length_a     67.933337
_cell_length_b     67.975725
_cell_length_c     17.325395
_cell_angle_alpha  89.980325
_cell_angle_beta   90.011611
_cell_angle_gamma 89.915474
loop_
_atom_site_label
_atom_site_type_symbol
_atom_site_fract_x
_atom_site_fract_y
_atom_site_fract_z
_atom_type_partial_charge
H0 H 0.75994 0.5194 0.40199 0.0
H1 H 0.74041 0.50884 0.16898 0.0
H2 H 0.80216 0.51013 0.21954 0.0
H3 H 0.72306 0.54675 0.27736 0.0
C4 C 0.71634 0.53227 0.28071 0.0
C5 C 0.76336 0.51643 0.34205 0.0
C6 C 0.7832 0.51542 0.31745 0.0
C7 C 0.74791 0.51447 0.28781 0.0
C8 C 0.75227 0.51065 0.21024 0.0
C9 C 0.77178 0.50914 0.1858 0.0
C10 C 0.78707 0.51164 0.23914 0.0
N11 N 0.72787 0.51643 0.30984 0.0
H12 H 0.0149 0.75415 0.39272 0.0
H13 H 0.98329 0.73385 0.1922 0.0
H14 H 0.98459 0.79543 0.24669 0.0
H15 H 0.97702 0.70825 0.32235 0.0
C16 C 0.99205 0.70592 0.30284 0.0
C17 C 1.00557 0.7572 0.34344 0.0
C18 C 1.00002 0.77677 0.32639 0.0
C19 C 0.99921 0.7416 0.29556 0.0
C20 C 0.98757 0.74571 0.23044 0.0
C21 C 0.98228 0.76507 0.21223 0.0
C22 C 0.98832 0.78036 0.26119 0.0
N23 N 1.0055 0.7219 0.30906 0.0
H24 H 0.76776 0.99194 0.36846 0.0
H25 H 0.78582 0.01821 0.15337 0.0
H26 H 0.7259 0.02374 0.22937 0.0
H27 H 0.79708 0.97148 0.19983 0.0
C28 C 0.80658 0.98318 0.22077 0.0
C29 C 0.76429 1.00061 0.31775 0.0
C30 C 0.74485 1.00719 0.30499 0.0
C31 C 0.77903 1.00439 0.26216 0.0
C32 C 0.77445 0.01525 0.19568 0.0
C33 C 0.75546 0.02273 0.1848 0.0
C34 C 0.74079 0.01851 0.23919 0.0
N35 N 0.79857 0.99741 0.27213 0.0
H36 H 0.51808 0.76333 0.38698 0.0
H37 H 0.48656 0.77886 0.17973 0.0
H38 H 0.47278 0.72524 0.29779 0.0
H39 H 0.52829 0.78353 0.16718 0.0
C40 C 0.52369 0.7956 0.20424 0.0
C41 C 0.50662 0.76021 0.34527 0.0
C42 C 0.49557 0.74266 0.35102 0.0
C43 C 0.50327 0.77341 0.28363 0.0
C44 C 0.4889 0.76898 0.22803 0.0
C45 C 0.47759 0.7519 0.23423 0.0
C46 C 0.48087 0.73898 0.2959 0.0
N47 N 0.51454 0.79093 0.27583 0.0
H48 H 0.27282 0.50777 0.03504 0.0
H49 H 0.28481 0.52766 0.2669 0.0
H50 H 0.22524 0.52428 0.18613 0.0
H51 H 0.31007 0.54512 0.16815 0.0
C52 C 0.31531 0.53 0.16573 0.0
C53 C 0.26765 0.5129 0.09065 0.0
C54 C 0.24728 0.51566 0.10357 0.0
C55 C 0.28135 0.51762 0.14933 0.0
C56 C 0.27446 0.52443 0.221 0.0
C57 C 0.25431 0.52647 0.23487 0.0
C58 C 0.24087 0.52222 0.17593 0.0
N59 N 0.30201 0.51547 0.13747 0.0
H60 H 0.02015 0.26224 0.05554 0.0
H61 H 0.98629 0.28302 0.24955 0.0
H62 H 0.97958 0.22357 0.17084 0.0
H63 H 0.98676 0.31069 0.121 0.0
C64 C 1.00125 0.31123 0.14754 0.0
C65 C 1.00925 0.2596 0.09995 0.0
C66 C 0.99977 0.24113 0.10473 0.0
C67 C 1.00396 0.27494 0.15114 0.0
C68 C 0.98992 0.27143 0.20901 0.0
C69 C 0.98108 0.25296 0.21648 0.0
C70 C 0.98596 0.23807 0.1638 0.0
N71 N 0.01296 0.29381 0.14656 0.0
H72 H 0.26257 0.02037 0.06039 0.0
H73 H 0.24306 0.9891 0.26296 0.0
H74 H 0.30106 0.979 0.17396 0.0
H75 H 0.21433 0.98945 0.12442 0.0
C76 C 0.21416 1.00338 0.15523 0.0
C77 C 0.26533 0.00972 0.10564 0.0
C78 C 0.28356 0.9997 0.10884 0.0
C79 C 0.2504 1.00533 0.15977 0.0
C80 C 0.25415 0.99181 0.21923 0.0
C81 C 0.2724 0.98248 0.2243 0.0
C82 C 0.28683 0.98615 0.16862 0.0
N83 N 0.23173 0.01476 0.15655 0.0
H84 H 0.50878 0.25319 0.03268 0.0
H85 H 0.52241 0.23704 0.26761 0.0
H86 H 0.52547 0.29751 0.1977 0.0
H87 H 0.54131 0.21158 0.13808 0.0
C88 C 0.52593 0.20801 0.14814 0.0
C89 C 0.51301 0.25735 0.0907 0.0
C90 C 0.51731 0.27719 0.10793 0.0
C91 C 0.51524 0.24275 0.14824 0.0
C92 C 0.521 0.24817 0.2231 0.0
C93 C 0.52414 0.26793 0.24139 0.0
C94 C 0.52248 0.28224 0.18365 0.0
N95 N 0.51146 0.22261 0.13211 0.0
Tb96 Tb 0.02358 1.00234 0.78196 0.0
Tb97 Tb 1.0052 0.01661 0.64026 0.0
C98 C 0.03044 0.98085 0.89578 0.0
C99 C 0.02459 0.96002 0.90497 0.0
C100 C 1.00465 0.95491 0.91425 0.0
C101 C 0.99863 0.93538 0.90715 0.0
C102 C 0.01237 0.92051 0.89063 0.0
C103 C 0.03241 0.92547 0.88502 0.0
C104 C 0.03846 0.94501 0.89242 0.0
C105 C 0.04885 0.01418 0.67587 0.0
C106 C 0.0114 0.97208 0.64935 0.0
C107 C 0.99592 0.03676 0.52489 0.0
C108 C 0.9876 0.05687 0.5217 0.0
C109 C 0.99919 0.07326 0.54098 0.0
C110 C 0.99062 0.0918 0.54938 0.0
C111 C 0.97031 0.09442 0.53802 0.0
C112 C 0.95884 0.07822 0.51552 0.0
C113 C 0.9674 0.05962 0.50745 0.0
C114 C 0.97972 1.00462 0.74549 0.0
C115 C 0.01742 0.04732 0.77515 0.0
O116 O 0.0161 0.99373 0.8944 0.0
O117 O 0.04344 0.98422 0.84171 0.0
O118 O 0.03332 1.00449 0.6646 0.0
O119 O 0.05117 0.01681 0.7495 0.0
O120 O 0.01245 0.9755 0.72445 0.0
O121 O 0.01162 0.98695 0.60026 0.0
O122 O 0.01405 0.03515 0.55002 0.0
O123 O 0.9844 0.0234 0.55486 0.0
O124 O 0.99524 0.01429 0.75753 0.0
O125 O 0.97754 1.00241 0.67187 0.0
O126 O 0.01206 0.04423 0.70247 0.0
O127 O 0.02141 0.0325 0.82199 0.0
H128 H 0.99351 0.96606 0.924 0.0
H129 H 0.98315 0.93197 0.9136 0.0
H130 H 0.04336 0.91436 0.87211 0.0
H131 H 0.05389 0.9485 0.88466 0.0
H132 H 0.01482 0.07175 0.55165 0.0
H133 H 0.99995 0.1041 0.56473 0.0
H134 H 0.94316 0.07982 0.50601 0.0
H135 H 0.95811 0.04727 0.49237 0.0
Tb136 Tb 0.51989 0.01897 0.76901 0.0
Tb137 Tb 0.50861 0.99537 0.64109 0.0
C138 C 0.53855 0.03504 0.87668 0.0
C139 C 0.55763 0.04504 0.87181 0.0
C140 C 0.56984 0.04631 0.9366 0.0
C141 C 0.58906 0.05338 0.92899 0.0
C142 C 0.59635 0.05914 0.85628 0.0
C143 C 0.58378 0.05848 0.79203 0.0
C144 C 0.56458 0.05152 0.79977 0.0
C145 C 0.50801 0.03981 0.64787 0.0
C146 C 0.55264 1.00538 0.64686 0.0
C147 C 0.49121 0.97965 0.52878 0.0
C148 C 0.47161 0.97062 0.52153 0.0
C149 C 0.45489 0.98009 0.55127 0.0
C150 C 0.43675 0.97056 0.55241 0.0
C151 C 0.43489 0.9515 0.5222 0.0
C152 C 0.45145 0.9422 0.49012 0.0
C153 C 0.46974 0.95164 0.49047 0.0
C154 C 0.52144 0.97441 0.75996 0.0
C155 C 0.47619 1.00854 0.76613 0.0
O156 O 0.53919 0.01613 0.86304 0.0
O157 O 0.52412 0.04362 0.83987 0.0
O158 O 0.51895 0.02486 0.64669 0.0
O159 O 0.50362 0.04367 0.71874 0.0
O160 O 0.54865 0.01077 0.71851 0.0
O161 O 0.53815 1.00125 0.59891 0.0
O162 O 0.49177 0.99868 0.54032 0.0
O163 O 0.50337 0.97025 0.57389 0.0
O164 O 0.51007 0.98909 0.76352 0.0
O165 O 0.52564 0.9711 0.68847 0.0
O166 O 0.47993 1.0036 0.69354 0.0
O167 O 0.49084 0.01235 0.81366 0.0
H168 H 0.56478 0.04117 0.99235 0.0
H169 H 0.59851 0.05344 0.97936 0.0
H170 H 0.58895 0.06289 0.73547 0.0
H171 H 0.55538 0.05054 0.74882 0.0
H172 H 0.45588 0.99484 0.57401 0.0
H173 H 0.42407 0.97822 0.57568 0.0
H174 H 0.45028 0.92757 0.46582 0.0
H175 H 0.48248 0.94404 0.46745 0.0
Tb176 Tb 0.50329 0.51532 0.79398 0.0
Tb177 Tb 0.52513 0.50479 0.65961 0.0
C178 C 0.48967 0.53321 0.90866 0.0
C179 C 0.47947 0.55243 0.91331 0.0
C180 C 0.49006 0.56936 0.93372 0.0
C181 C 0.48119 0.58786 0.93017 0.0
C182 C 0.46148 0.58984 0.90668 0.0
C183 C 0.45066 0.57287 0.88859 0.0
C184 C 0.45957 0.55434 0.89177 0.0
C185 C 0.48055 0.50431 0.67703 0.0
C186 C 0.51471 0.54866 0.67076 0.0
C187 C 0.53901 0.48654 0.54653 0.0
C188 C 0.54853 0.46715 0.54782 0.0
C189 C 0.54705 0.45457 0.48425 0.0
C190 C 0.55353 0.4351 0.49002 0.0
C191 C 0.56152 0.42791 0.55968 0.0
C192 C 0.56357 0.44082 0.62239 0.0
C193 C 0.5571 0.46024 0.61656 0.0
C194 C 0.54776 0.5161 0.77612 0.0
C195 C 0.51351 0.47149 0.7827 0.0
O196 O 0.50825 0.53382 0.88887 0.0
O197 O 0.48027 0.5191 0.87317 0.0
O198 O 0.49566 0.51499 0.67283 0.0
O199 O 0.47748 0.50008 0.74868 0.0
O200 O 0.51047 0.54428 0.7433 0.0
O201 O 0.51828 0.53447 0.62066 0.0
O202 O 0.5203 0.48636 0.56426 0.0
O203 O 0.5485 0.50052 0.58234 0.0
O204 O 0.53282 0.50518 0.7807 0.0
O205 O 0.55068 0.52044 0.70448 0.0
O206 O 0.51759 0.47585 0.71003 0.0
O207 O 0.51019 0.48572 0.83277 0.0
H208 H 0.50536 0.56837 0.95104 0.0
H209 H 0.48977 0.60063 0.94633 0.0
H210 H 0.43544 0.57395 0.87048 0.0
H211 H 0.45094 0.5416 0.87578 0.0
H212 H 0.5402 0.45957 0.43126 0.0
H213 H 0.55141 0.42544 0.44103 0.0
H214 H 0.56976 0.43579 0.67654 0.0
H215 H 0.55815 0.46968 0.66679 0.0
Tb216 Tb 0.00935 0.49801 0.78321 0.0
Tb217 Tb 0.02038 0.52155 0.6534 0.0
C218 C 0.99041 0.4838 0.89372 0.0
C219 C 0.96973 0.47728 0.89369 0.0
C220 C 0.95638 0.48614 0.94459 0.0
C221 C 0.93616 0.48386 0.93357 0.0
C222 C 0.92896 0.47257 0.87171 0.0
C223 C 0.94231 0.46251 0.82424 0.0
C224 C 0.96255 0.46497 0.83469 0.0
C225 C 0.02076 0.47687 0.66287 0.0
C226 C 0.97626 0.51198 0.66149 0.0
C227 C 0.03845 0.53668 0.54202 0.0
C228 C 0.05889 0.54395 0.5384 0.0
C229 C 0.07473 0.53121 0.55338 0.0
C230 C 0.09361 0.53866 0.5644 0.0
C231 C 0.0971 0.55895 0.55951 0.0
C232 C 0.08157 0.57164 0.53995 0.0
C233 C 0.06255 0.56419 0.52996 0.0
C234 C 1.0087 0.54252 0.77385 0.0
C235 C 0.05342 0.50755 0.77519 0.0
O236 O 0.99277 0.50273 0.88365 0.0
O237 O 1.00269 0.47348 0.852 0.0
O238 O 0.00999 0.49201 0.66106 0.0
O239 O 0.02514 0.47301 0.73394 0.0
O240 O 0.98048 0.50603 0.73241 0.0
O241 O 0.99053 0.51662 0.61325 0.0
O242 O 0.03612 0.51767 0.55029 0.0
O243 O 0.02686 0.54664 0.5877 0.0
O244 O 0.01972 0.52757 0.77555 0.0
O245 O 1.00416 0.54623 0.70289 0.0
O246 O 0.04921 0.51303 0.70359 0.0
O247 O 0.03912 0.50328 0.82388 0.0
H248 H 0.96155 0.49577 0.9901 0.0
H249 H 0.92612 0.49151 0.97182 0.0
H250 H 0.93712 0.45377 0.77608 0.0
H251 H 0.97248 0.45813 0.79377 0.0
H252 H 0.0725 0.51551 0.55934 0.0
H253 H 0.10552 0.52854 0.57715 0.0
H254 H 0.08406 0.58732 0.53465 0.0
H255 H 0.05057 0.57431 0.51831 0.0
C256 C 0.179 0.99792 0.18866 0.0
C257 C 0.19653 1.00823 0.20226 0.0
C258 C 0.16265 1.00049 0.23661 0.0
C259 C 0.1414 0.03229 0.39252 0.0
H260 H 0.11043 0.98552 0.43271 0.0
C261 C 0.08243 0.02602 0.63693 0.0
C262 C 0.06484 0.01627 0.61814 0.0
C263 C 0.09811 0.02665 0.58425 0.0
C264 C 0.11878 0.99879 0.42154 0.0
H265 H 0.21064 0.02964 0.27639 0.0
H266 H 0.18224 0.03382 0.36188 0.0
H267 H 0.13848 0.98364 0.34612 0.0
H268 H 0.04967 1.00002 0.52853 0.0
H269 H 0.07703 1.00092 0.43707 0.0
H270 H 0.12181 0.04719 0.47048 0.0
C271 C 0.18091 0.02401 0.31295 0.0
C272 C 0.13489 0.99775 0.37144 0.0
C273 C 0.19725 0.02161 0.26403 0.0
C274 C 0.06306 1.00759 0.54488 0.0
C275 C 0.07878 1.00802 0.49262 0.0
C276 C 0.12536 0.03326 0.44351 0.0
C277 C 0.16346 0.01321 0.30071 0.0
C278 C 0.14639 0.01451 0.35547 0.0
C279 C 0.0966 0.01733 0.51197 0.0
C280 C 0.11376 0.01653 0.45816 0.0
H281 H 0.17802 0.98757 0.14127 0.0
H282 H 0.14941 0.9923 0.22359 0.0
H283 H 0.1497 0.04558 0.38134 0.0
H284 H 0.08422 0.03288 0.69292 0.0
H285 H 0.11165 0.03386 0.60112 0.0
C286 C 0.53524 0.17385 0.18499 0.0
C287 C 0.52125 0.18904 0.18651 0.0
C288 C 0.53233 0.15655 0.22716 0.0
C289 C 0.4948 0.12823 0.34164 0.0
H290 H 0.54158 0.10433 0.42951 0.0
C291 C 0.49432 0.071 0.59249 0.0
C292 C 0.5071 0.05481 0.58577 0.0
C293 C 0.49469 0.08623 0.53793 0.0
C294 C 0.52838 0.11068 0.40472 0.0
H295 H 0.49306 0.198 0.23302 0.0
H296 H 0.48819 0.16812 0.3092 0.0
H297 H 0.54473 0.13311 0.34739 0.0
H298 H 0.52996 0.04162 0.51552 0.0
H299 H 0.53088 0.06841 0.42093 0.0
H300 H 0.47849 0.10606 0.40265 0.0
C301 C 0.50123 0.16921 0.27359 0.0
C302 C 0.53016 0.12721 0.35707 0.0
C303 C 0.50401 0.18642 0.23 0.0
C304 C 0.51992 0.0539 0.52221 0.0
C305 C 0.52052 0.06929 0.46832 0.0
C306 C 0.49302 0.11184 0.39046 0.0
C307 C 0.51552 0.1541 0.27382 0.0
C308 C 0.51341 0.13626 0.32437 0.0
C309 C 0.50808 0.08575 0.47607 0.0
C310 C 0.50981 0.10284 0.42238 0.0
H311 H 0.54865 0.17547 0.15171 0.0
H312 H 0.54345 0.14517 0.22355 0.0
H313 H 0.48155 0.13448 0.31702 0.0
H314 H 0.48428 0.07208 0.64088 0.0
H315 H 0.48501 0.09874 0.54581 0.0
C316 C 0.34182 0.50622 0.21106 0.0
C317 C 0.33348 0.52518 0.20981 0.0
C318 C 0.35852 0.50229 0.25675 0.0
C319 C 0.38279 0.51907 0.43337 0.0
H320 H 0.43055 0.49465 0.35659 0.0
C321 C 0.44596 0.49667 0.63754 0.0
C322 C 0.46479 0.50354 0.61761 0.0
C323 C 0.43042 0.49756 0.58461 0.0
C324 C 0.41729 0.50147 0.37875 0.0
H325 H 0.33619 0.55482 0.25435 0.0
H326 H 0.36483 0.54788 0.33478 0.0
H327 H 0.4023 0.49937 0.26957 0.0
H328 H 0.4823 0.51594 0.5252 0.0
H329 H 0.45509 0.51717 0.43174 0.0
H330 H 0.39754 0.52118 0.54228 0.0
C331 C 0.35863 0.53609 0.30053 0.0
C332 C 0.4011 0.50403 0.32916 0.0
C333 C 0.34226 0.54006 0.25419 0.0
C334 C 0.46794 0.51058 0.54226 0.0
C335 C 0.45239 0.51122 0.48874 0.0
C336 C 0.39876 0.51621 0.48307 0.0
C337 C 0.36689 0.51715 0.30295 0.0
C338 C 0.38375 0.51309 0.3558 0.0
C339 C 0.43334 0.50509 0.50991 0.0
C340 C 0.41628 0.50752 0.45637 0.0
H341 H 0.33538 0.49446 0.17739 0.0
H342 H 0.36456 0.48754 0.25765 0.0
H343 H 0.3696 0.52602 0.4557 0.0
H344 H 0.44305 0.49108 0.69496 0.0
H345 H 0.416 0.49252 0.60246 0.0
C346 C 0.99534 0.34635 0.18091 0.0
C347 C 1.00664 0.32925 0.19142 0.0
C348 C 0.99853 0.36305 0.22629 0.0
C349 C 0.03372 0.38639 0.36534 0.0
H350 H 0.98722 0.41585 0.42507 0.0
C351 C 0.03312 0.4447 0.6114 0.0
C352 C 0.02167 0.46175 0.60103 0.0
C353 C 0.03267 0.42943 0.55711 0.0
C354 C 1.00041 0.40798 0.40819 0.0
H355 H 0.03045 0.31634 0.25743 0.0
H356 H 0.03583 0.3454 0.33834 0.0
H357 H 0.98395 0.38748 0.34073 0.0
H358 H 1.00119 0.47638 0.52424 0.0
H359 H 1.00031 0.44968 0.42936 0.0
H360 H 0.05005 0.40675 0.43506 0.0
C361 C 0.02469 0.34608 0.29374 0.0
C362 C 0.99856 0.39165 0.35947 0.0
C363 C 0.0216 0.32936 0.24744 0.0
C364 C 0.01017 0.46343 0.53392 0.0
C365 C 0.00957 0.44806 0.47987 0.0
C366 C 0.03554 0.40268 0.41472 0.0
C367 C 0.01296 0.3631 0.28466 0.0
C368 C 0.01517 0.38059 0.33696 0.0
C369 C 0.02061 0.43072 0.49125 0.0
C370 C 0.01891 0.41372 0.43674 0.0
H371 H 0.98374 0.34671 0.13798 0.0
H372 H 0.98952 0.37592 0.21578 0.0
H373 H 0.04691 0.3785 0.34877 0.0
H374 H 0.04215 0.44297 0.66252 0.0
H375 H 0.04125 0.41628 0.56821 0.0
C376 C 0.83642 1.00299 0.1825 0.0
C377 C 0.82673 0.98481 0.1883 0.0
C378 C 0.8543 1.00452 0.14224 0.0
C379 C 0.88414 0.97704 0.99531 0.0
H380 H 0.92265 0.01756 0.03819 0.0
C381 C 0.94523 0.99477 0.77627 0.0
C382 C 0.96364 1.00143 0.8021 0.0
C383 C 0.92958 0.99235 0.82772 0.0
C384 C 0.91224 1.00594 0.02584 0.0
H385 H 0.82853 0.95388 0.16023 0.0
H386 H 0.86011 0.95616 0.09469 0.0
H387 H 0.89439 0.01368 0.12316 0.0
H388 H 0.98011 0.01067 0.90266 0.0
H389 H 0.95303 1.00559 0.9937 0.0
H390 H 0.9023 0.96866 0.90038 0.0
C391 C 0.8537 0.9695 0.11771 0.0
C392 C 0.89576 1.00391 0.07413 0.0
C393 C 0.83566 0.96809 0.15626 0.0
C394 C 0.96612 1.00542 0.88107 0.0
C395 C 0.95048 1.0027 0.93309 0.0
C396 C 0.90072 0.97885 0.948 0.0
C397 C 0.86308 0.98783 0.10798 0.0
C398 C 0.8813 0.98955 0.05917 0.0
C399 C 0.93191 0.99618 0.90712 0.0
C400 C 0.9149 0.99353 0.96152 0.0
H401 H 0.82975 0.01618 0.20587 0.0
H402 H 0.86078 0.01895 0.13558 0.0
H403 H 0.87335 0.96599 0.9803 0.0
H404 H 0.94277 0.99171 0.71567 0.0
H405 H 0.91551 0.98781 0.80451 0.0
C406 C 0.53538 0.81894 0.10407 0.0
C407 C 0.52488 0.8159 0.17271 0.0
C408 C 0.53529 0.83727 0.06762 0.0
C409 C 0.52369 0.89047 0.09183 0.0
H410 H 0.52057 0.88829 0.86854 0.0
C411 C 0.51215 0.95898 0.88778 0.0
C412 C 0.52334 0.95881 0.81945 0.0
C413 C 0.51244 0.94267 0.93792 0.0
C414 C 0.52162 0.88922 0.93082 0.0
H415 H 0.50636 0.82993 0.25844 0.0
H416 H 0.50595 0.86212 0.19399 0.0
H417 H 0.52067 0.85797 0.94246 0.0
H418 H 0.54443 0.94202 0.75256 0.0
H419 H 0.54502 0.91392 0.83937 0.0
H420 H 0.52443 0.92197 0.0791 0.0
C421 C 0.51449 0.8503 0.16876 0.0
C422 C 0.52173 0.87177 0.9734 0.0
C423 C 0.51469 0.83185 0.2057 0.0
C424 C 0.53547 0.94252 0.80426 0.0
C425 C 0.53572 0.92634 0.85387 0.0
C426 C 0.52348 0.90805 0.04891 0.0
C427 C 0.52446 0.85312 0.09825 0.0
C428 C 0.52316 0.87207 0.05442 0.0
C429 C 0.52385 0.92593 0.92029 0.0
C430 C 0.52282 0.90759 0.96771 0.0
H431 H 0.54345 0.80695 0.07754 0.0
H432 H 0.54358 0.83893 0.01464 0.0
H433 H 0.52483 0.8913 0.15408 0.0
H434 H 0.50266 0.97134 0.90098 0.0
H435 H 0.50313 0.94283 0.98865 0.0
C436 C 0.68518 0.54603 0.22761 0.0
C437 C 0.69678 0.52945 0.2438 0.0
C438 C 0.66768 0.54431 0.18555 0.0
C439 C 0.63117 0.50816 0.1061 0.0
H440 H 0.62058 0.55097 0.96421 0.0
C441 C 0.56092 0.51041 0.91082 0.0
C442 C 0.56333 0.518 0.83592 0.0
C443 C 0.57625 0.51175 0.96522 0.0
C444 C 0.62332 0.53875 0.00287 0.0
H445 H 0.69896 0.49786 0.22964 0.0
H446 H 0.66866 0.49482 0.15404 0.0
H447 H 0.64889 0.5527 0.04863 0.0
H448 H 0.58368 0.5329 0.75948 0.0
H449 H 0.61029 0.53482 0.8525 0.0
H450 H 0.60594 0.49385 0.05709 0.0
C451 C 0.67279 0.5092 0.17542 0.0
C452 C 0.63949 0.53989 0.05262 0.0
C453 C 0.69023 0.51091 0.21868 0.0
C454 C 0.58127 0.527 0.8168 0.0
C455 C 0.59655 0.52822 0.87063 0.0
C456 C 0.615 0.50694 0.05565 0.0
C457 C 0.66143 0.52596 0.15692 0.0
C458 C 0.64375 0.52463 0.10507 0.0
C459 C 0.59433 0.52067 0.94583 0.0
C460 C 0.61092 0.52217 0.00276 0.0
H461 H 0.68982 0.56049 0.24654 0.0
H462 H 0.65919 0.55751 0.17473 0.0
H463 H 0.63375 0.49618 0.14602 0.0
H464 H 0.54724 0.50339 0.92724 0.0
H465 H 0.57384 0.50594 0.02264 0.0
C466 C 0.98256 0.67225 0.26087 0.0
C467 C 0.99646 0.68751 0.25966 0.0
C468 C 0.98496 0.65554 0.21479 0.0
C469 C 0.0207 0.62723 0.09465 0.0
H470 H 0.97304 0.60862 0.99568 0.0
C471 C 0.99509 0.57411 0.82452 0.0
C472 C 1.00707 0.55751 0.83593 0.0
C473 C 0.99427 0.58912 0.87965 0.0
C474 C 0.98654 0.61363 0.02245 0.0
H475 H 0.02418 0.69696 0.21034 0.0
H476 H 0.02834 0.66776 0.12861 0.0
H477 H 0.97143 0.63634 0.08381 0.0
H478 H 0.02751 0.54353 0.91474 0.0
H479 H 0.02604 0.56982 0.01185 0.0
H480 H 0.03582 0.60465 0.03117 0.0
C481 C 0.01564 0.66862 0.16618 0.0
C482 C 0.98558 0.62945 0.07395 0.0
C483 C 0.01325 0.68539 0.21292 0.0
C484 C 0.01809 0.55613 0.90445 0.0
C485 C 0.01737 0.57128 0.9597 0.0
C486 C 0.02164 0.61129 0.04305 0.0
C487 C 1.00128 0.65363 0.16533 0.0
C488 C 1.00263 0.63654 0.11086 0.0
C489 C 1.00546 0.58802 0.94791 0.0
C490 C 1.00457 0.60436 0.00581 0.0
H491 H 0.96952 0.67343 0.29658 0.0
H492 H 0.97382 0.64418 0.21731 0.0
H493 H 0.03412 0.63217 0.12225 0.0
H494 H 0.98647 0.57566 0.77224 0.0
H495 H 0.98514 0.60185 0.86785 0.0
C496 C 0.95206 0.23571 0.27373 0.0
C497 C 0.96836 0.24814 0.28346 0.0
C498 C 0.94391 0.22599 0.33692 0.0
C499 C 0.96505 0.20588 0.51179 0.0
H500 H 0.91704 0.17525 0.50356 0.0
C501 C 0.96725 0.12658 0.608 0.0
C502 C 0.96142 0.11422 0.5471 0.0
C503 C 0.96129 0.14625 0.60974 0.0
C504 C 0.93044 0.18381 0.50761 0.0
H505 H 0.98678 0.26268 0.36818 0.0
H506 H 0.97205 0.24628 0.479 0.0
H507 H 0.91788 0.20793 0.44507 0.0
H508 H 0.94353 0.11233 0.44379 0.0
H509 H 0.9334 0.1466 0.44594 0.0
H510 H 0.97804 0.18144 0.56949 0.0
C511 C 0.96606 0.24341 0.42219 0.0
C512 C 0.93094 0.20252 0.47406 0.0
C513 C 0.9744 0.25297 0.35867 0.0
C514 C 0.94824 0.12147 0.49152 0.0
C515 C 0.94231 0.14114 0.49314 0.0
C516 C 0.9645 0.18731 0.5457 0.0
C517 C 0.95179 0.22866 0.41134 0.0
C518 C 0.9487 0.21314 0.47076 0.0
C519 C 0.94943 0.15395 0.55045 0.0
C520 C 0.94762 0.17553 0.53921 0.0
H521 H 0.94674 0.23215 0.21645 0.0
H522 H 0.93288 0.21488 0.32572 0.0
H523 H 0.97905 0.21346 0.51068 0.0
H524 H 0.97704 0.12124 0.65275 0.0
H525 H 0.96679 0.15568 0.65525 0.0
C526 C 0.28659 0.98055 0.35482 0.0
C527 C 0.27782 0.97087 0.29257 0.0
C528 C 0.29718 0.96993 0.40967 0.0
C529 C 0.3265 0.92452 0.40949 0.0
H530 H 0.34669 0.9506 0.59151 0.0
C531 C 0.40754 0.93593 0.44907 0.0
C532 C 0.41532 0.94212 0.51979 0.0
C533 C 0.38777 0.93064 0.4434 0.0
C534 C 0.3412 0.94256 0.54213 0.0
H535 H 0.27125 0.94262 0.24173 0.0
H536 H 0.28888 0.92369 0.34016 0.0
H537 H 0.31346 0.95722 0.54949 0.0
H538 H 0.40935 0.94581 0.64165 0.0
H539 H 0.37495 0.93565 0.63291 0.0
H540 H 0.35406 0.90949 0.4032 0.0
C541 C 0.28828 0.93954 0.34565 0.0
C542 C 0.3221 0.94667 0.5171 0.0
C543 C 0.27798 0.95028 0.28975 0.0
C544 C 0.40351 0.94132 0.58619 0.0
C545 C 0.38379 0.93561 0.58093 0.0
C546 C 0.34535 0.91989 0.43602 0.0
C547 C 0.29908 0.94932 0.40357 0.0
C548 C 0.31521 0.93912 0.44648 0.0
C549 C 0.37538 0.93111 0.50875 0.0
C550 C 0.35359 0.9302 0.49851 0.0
H551 H 0.28674 0.99648 0.35727 0.0
H552 H 0.30534 0.97823 0.45221 0.0
H553 H 0.32179 0.91798 0.35568 0.0
H554 H 0.41636 0.93654 0.39703 0.0
H555 H 0.38201 0.92764 0.3864 0.0
C556 C 0.54682 0.26796 0.35521 0.0
C557 C 0.52921 0.27414 0.32042 0.0
C558 C 0.55374 0.27751 0.42147 0.0
C559 C 0.57166 0.31395 0.49354 0.0
H560 H 0.53692 0.34406 0.62588 0.0
C561 C 0.57454 0.39616 0.50701 0.0
C562 C 0.56611 0.40668 0.56834 0.0
C563 C 0.5757 0.3757 0.50963 0.0
C564 C 0.54717 0.33559 0.59139 0.0
H565 H 0.50401 0.29343 0.33065 0.0
H566 H 0.51591 0.31013 0.44497 0.0
H567 H 0.52623 0.31244 0.57667 0.0
H568 H 0.55386 0.40407 0.6836 0.0
H569 H 0.55621 0.36832 0.68874 0.0
H570 H 0.59232 0.33743 0.50597 0.0
C571 C 0.52449 0.29796 0.42263 0.0
C572 C 0.54091 0.31748 0.5625 0.0
C573 C 0.5177 0.28855 0.35652 0.0
C574 C 0.56039 0.3964 0.63518 0.0
C575 C 0.56162 0.37588 0.63797 0.0
C576 C 0.57804 0.33193 0.52336 0.0
C577 C 0.54305 0.29325 0.45377 0.0
C578 C 0.55242 0.30731 0.50814 0.0
C579 C 0.56854 0.36523 0.57389 0.0
C580 C 0.56521 0.34367 0.56735 0.0
H581 H 0.55588 0.25681 0.32807 0.0
H582 H 0.56799 0.27342 0.44453 0.0
H583 H 0.58106 0.30644 0.45255 0.0
H584 H 0.57944 0.40369 0.45538 0.0
H585 H 0.58094 0.3681 0.45869 0.0
C586 C 0.23228 0.52217 0.3479 0.0
C587 C 0.247 0.53304 0.31079 0.0
C588 C 0.22316 0.52954 0.41369 0.0
C589 C 0.2083 0.57662 0.48814 0.0
H590 H 0.18097 0.54164 0.62812 0.0
C591 C 0.12666 0.577 0.51329 0.0
C592 C 0.11723 0.56639 0.57179 0.0
C593 C 0.14697 0.57994 0.51623 0.0
C594 C 0.18865 0.55205 0.5917 0.0
H595 H 0.26478 0.55943 0.31555 0.0
H596 H 0.24851 0.57261 0.43108 0.0
H597 H 0.21183 0.53138 0.57172 0.0
H598 H 0.12082 0.55276 0.68392 0.0
H599 H 0.15622 0.55857 0.69091 0.0
H600 H 0.1848 0.59706 0.50613 0.0
C601 C 0.24408 0.55836 0.40919 0.0
C602 C 0.20635 0.54598 0.55862 0.0
C603 C 0.25339 0.55084 0.34338 0.0
C604 C 0.12795 0.5607 0.63742 0.0
C605 C 0.14821 0.56398 0.64118 0.0
C606 C 0.19075 0.58286 0.52236 0.0
C607 C 0.22846 0.54803 0.44367 0.0
C608 C 0.21536 0.55747 0.50131 0.0
C609 C 0.15818 0.57251 0.57834 0.0
C610 C 0.17983 0.56989 0.56896 0.0
H611 H 0.22727 0.50832 0.32408 0.0
H612 H 0.21098 0.52129 0.43771 0.0
H613 H 0.21505 0.586 0.44513 0.0
H614 H 0.11865 0.58152 0.46217 0.0
H615 H 0.15395 0.58643 0.46622 0.0
C616 C 0.95952 0.78568 0.13281 0.0
C617 C 0.97304 0.7701 0.13712 0.0
C618 C 0.95656 0.79558 0.0633 0.0
C619 C 0.98986 0.80652 0.90425 0.0
H620 H 0.95359 0.85036 0.8899 0.0
C621 C 0.0166 0.88435 0.91155 0.0
C622 C 1.0058 0.89992 0.87936 0.0
C623 C 0.00985 0.86507 0.90539 0.0
C624 C 0.96377 0.8381 0.89096 0.0
H625 H 0.99096 0.75011 0.06931 0.0
H626 H 0.98491 0.76665 0.94711 0.0
H627 H 0.94219 0.81911 0.94093 0.0
H628 H 0.98001 0.90736 0.81137 0.0
H629 H 0.96811 0.87353 0.80098 0.0
H630 H 0.01149 0.8256 0.85543 0.0
C631 C 0.97746 0.77204 0.99816 0.0
C632 C 0.95727 0.82017 0.92124 0.0
C633 C 0.98074 0.76236 0.06824 0.0
C634 C 0.98845 0.89568 0.83821 0.0
C635 C 0.9817 0.87632 0.83178 0.0
C636 C 0.99621 0.82426 0.87256 0.0
C637 C 0.96688 0.78987 0.99637 0.0
C638 C 0.97073 0.80478 0.93493 0.0
C639 C 0.99215 0.86082 0.86657 0.0
C640 C 0.98371 0.84072 0.87195 0.0
H641 H 0.95283 0.79155 0.18474 0.0
H642 H 0.948 0.809 0.06506 0.0
H643 H 1.00076 0.79507 0.91221 0.0
H644 H 0.02987 0.88713 0.94441 0.0
H645 H 0.01807 0.85363 0.93471 0.0
C646 C 0.75343 0.02661 0.04127 0.0
C647 C 0.75022 0.03427 0.11545 0.0
C648 C 0.74414 0.03514 0.97732 0.0
C649 C 0.71004 0.07624 0.91979 0.0
H650 H 0.67988 0.03336 0.83225 0.0
C651 C 0.62846 0.05551 0.78654 0.0
C652 C 0.61748 0.06401 0.84677 0.0
C653 C 0.64897 0.05707 0.78555 0.0
C654 C 0.6884 0.04565 0.85384 0.0
H655 H 0.73695 0.05802 0.18037 0.0
H656 H 0.72054 0.07268 0.07021 0.0
H657 H 0.71117 0.02653 0.89303 0.0
H658 H 0.61909 0.08246 0.94847 0.0
H659 H 0.65481 0.08497 0.94762 0.0
H660 H 0.68616 0.09504 0.88643 0.0
C661 C 0.73018 0.06024 0.06015 0.0
C662 C 0.70648 0.04172 0.88878 0.0
C663 C 0.7394 0.05172 0.12372 0.0
C664 C 0.62722 0.07549 0.90211 0.0
C665 C 0.64768 0.07715 0.90088 0.0
C666 C 0.69185 0.08015 0.88523 0.0
C667 C 0.73156 0.05144 0.98684 0.0
C668 C 0.71685 0.05676 0.9268 0.0
C669 C 0.65884 0.06726 0.8445 0.0
C670 C 0.68031 0.06467 0.85642 0.0
H671 H 0.76182 0.01319 0.0335 0.0
H672 H 0.74573 0.02819 0.92143 0.0
H673 H 0.71795 0.08824 0.94673 0.0
H674 H 0.62135 0.04659 0.74298 0.0
H675 H 0.65716 0.04939 0.74112 0.0
C676 C 0.445 0.73961 0.18878 0.0
C677 C 0.4642 0.74578 0.17162 0.0
C678 C 0.43439 0.72846 0.13542 0.0
C679 C 0.43874 0.70349 0.94194 0.0
H680 H 0.42396 0.65809 0.06403 0.0
C681 C 0.46281 0.62572 0.87474 0.0
C682 C 0.45223 0.6096 0.90374 0.0
C683 C 0.45562 0.64481 0.88378 0.0
C684 C 0.42741 0.67067 0.02812 0.0
H685 H 0.48664 0.74709 0.08322 0.0
H686 H 0.46865 0.72704 0.9914 0.0
H687 H 0.42623 0.68977 0.12496 0.0
H688 H 0.42493 0.60063 0.95812 0.0
H689 H 0.41223 0.63402 0.97321 0.0
H690 H 0.44149 0.68365 0.84637 0.0
C691 C 0.46138 0.73104 0.04473 0.0
C692 C 0.4287 0.68903 0.06331 0.0
C693 C 0.47181 0.7425 0.09756 0.0
C694 C 0.43348 0.61279 0.93562 0.0
C695 C 0.42625 0.63191 0.94455 0.0
C696 C 0.43754 0.68501 0.90671 0.0
C697 C 0.44306 0.72284 0.06499 0.0
C698 C 0.43554 0.70546 0.02183 0.0
C699 C 0.43766 0.64818 0.92195 0.0
C700 C 0.43298 0.66823 0.95066 0.0
H701 H 0.43878 0.74221 0.24546 0.0
H702 H 0.42007 0.7229 0.15202 0.0
H703 H 0.44353 0.71594 0.90777 0.0
H704 H 0.47711 0.62365 0.84818 0.0
H705 H 0.46488 0.65695 0.86601 0.0
C706 C 0.78912 0.51681 0.0633 0.0
C707 C 0.77665 0.50434 0.10508 0.0
C708 C 0.79765 0.51038 0.99467 0.0
C709 C 0.81538 0.49382 0.84958 0.0
H710 H 0.84425 0.44813 0.92132 0.0
C711 C 0.89737 0.4905 0.85289 0.0
C712 C 0.90768 0.47262 0.85385 0.0
C713 C 0.87704 0.49078 0.84322 0.0
C714 C 0.83608 0.46048 0.89812 0.0
H715 H 0.7618 0.4762 0.1056 0.0
H716 H 0.77713 0.46466 0.9856 0.0
H717 H 0.8127 0.45594 0.97822 0.0
H718 H 0.90513 0.44108 0.83944 0.0
H719 H 0.86925 0.44146 0.82384 0.0
H720 H 0.83967 0.4992 0.77381 0.0
C721 C 0.78017 0.47945 0.00555 0.0
C722 C 0.81787 0.46498 0.93092 0.0
C723 C 0.77141 0.48603 0.07396 0.0
C724 C 0.89745 0.45505 0.83974 0.0
C725 C 0.87696 0.45528 0.83068 0.0
C726 C 0.83357 0.48926 0.81641 0.0
C727 C 0.79409 0.49123 0.96725 0.0
C728 C 0.80813 0.48254 0.91128 0.0
C729 C 0.86648 0.47313 0.83477 0.0
C730 C 0.84479 0.47344 0.84495 0.0
H731 H 0.79327 0.53102 0.08643 0.0
H732 H 0.80847 0.51976 0.96728 0.0
H733 H 0.80794 0.50722 0.83217 0.0
H734 H 0.905 0.50431 0.86167 0.0
H735 H 0.86951 0.50478 0.84765 0.0
C736 C 0.98795 0.21347 0.02134 0.0
C737 C 1.00385 0.22438 0.05096 0.0
C738 C 0.99096 0.19531 0.98546 0.0
C739 C 0.02632 0.16237 0.89001 0.0
H740 H 0.99346 0.12112 0.97565 0.0
C741 C 0.01781 0.08407 0.75406 0.0
C742 C 0.01806 0.06792 0.80503 0.0
C743 C 0.01769 0.10344 0.7821 0.0
C744 C 1.00283 0.13241 0.95129 0.0
H745 H 0.03561 0.22528 0.06067 0.0
H746 H 0.04099 0.1935 0.99554 0.0
H747 H 0.99042 0.1547 0.02393 0.0
H748 H 0.01859 0.05969 0.92593 0.0
H749 H 0.01811 0.09342 0.97473 0.0
H750 H 0.03848 0.13996 0.81634 0.0
C751 C 0.02611 0.19907 0.00131 0.0
C752 C 1.00098 0.15171 0.97856 0.0
C753 C 0.02306 0.21731 0.03818 0.0
C754 C 0.01841 0.0717 0.88486 0.0
C755 C 0.01804 0.09107 0.9129 0.0
C756 C 0.02794 0.14303 0.86167 0.0
C757 C 0.01001 0.18754 0.97713 0.0
C758 C 0.01263 0.16697 0.94821 0.0
C759 C 0.01758 0.1072 0.86194 0.0
C760 C 0.01621 0.1278 0.8921 0.0
H761 H 0.97297 0.2186 0.02922 0.0
H762 H 0.97827 0.18704 0.96609 0.0
H763 H 0.03547 0.17378 0.86535 0.0
H764 H 0.01767 0.08176 0.69231 0.0
H765 H 0.01718 0.11549 0.74119 0.0
C766 C 0.30933 0.98704 0.01838 0.0
C767 C 0.29986 1.00321 0.05287 0.0
C768 C 0.32701 0.98941 0.97813 0.0
C769 C 0.3702 0.02228 0.96945 0.0
H770 H 0.38435 0.98946 0.79505 0.0
C771 C 0.45138 0.01087 0.87406 0.0
C772 C 0.45548 0.00932 0.79467 0.0
C773 C 0.4319 0.0115 0.9009 0.0
C774 C 0.38065 0.99891 0.84322 0.0
H775 H 0.30113 0.03473 0.06927 0.0
H776 H 0.33204 0.03902 0.99769 0.0
H777 H 0.35076 0.98895 0.84408 0.0
H778 H 0.44203 1.00796 0.6815 0.0
H779 H 0.40824 1.00892 0.72776 0.0
H780 H 0.4001 0.03231 0.96832 0.0
C781 C 0.32584 0.02441 0.00263 0.0
C782 C 0.36137 0.99847 0.87191 0.0
C783 C 0.30799 0.02203 0.04272 0.0
C784 C 0.43954 1.00867 0.74293 0.0
C785 C 0.42007 0.00926 0.76966 0.0
C786 C 0.38951 0.0227 0.94079 0.0
C787 C 0.33583 1.00804 0.97132 0.0
C788 C 0.35589 0.00996 0.93608 0.0
C789 C 0.41593 0.01063 0.8491 0.0
C790 C 0.3951 0.01085 0.87778 0.0
H791 H 0.30345 0.97234 0.02545 0.0
H792 H 0.33425 0.97641 0.95573 0.0
H793 H 0.36666 0.03119 0.01937 0.0
H794 H 0.46324 0.0114 0.91579 0.0
H795 H 0.42937 0.0123 0.96252 0.0
C796 C 0.53478 0.30402 0.0382 0.0
C797 C 0.51743 0.29313 0.04904 0.0
C798 C 0.53446 0.32198 0.99888 0.0
C799 C 0.50541 0.3551 0.87191 0.0
H800 H 0.53325 0.39595 0.98365 0.0
C801 C 0.51594 0.43512 0.75482 0.0
C802 C 0.51351 0.45055 0.80831 0.0
C803 C 0.51602 0.41542 0.77922 0.0
C804 C 0.52532 0.38478 0.95178 0.0
H805 H 0.48629 0.29202 0.02368 0.0
H806 H 0.48566 0.32353 0.95369 0.0
H807 H 0.53415 0.36224 0.03069 0.0
H808 H 0.5092 0.45716 0.92956 0.0
H809 H 0.50951 0.42296 0.97196 0.0
H810 H 0.49649 0.3779 0.79325 0.0
C811 C 0.49958 0.31806 0.9755 0.0
C812 C 0.52601 0.36535 0.97831 0.0
C813 C 0.49992 0.29998 0.01518 0.0
C814 C 0.51115 0.44573 0.8867 0.0
C815 C 0.51142 0.42608 0.91111 0.0
C816 C 0.50489 0.3746 0.8448 0.0
C817 C 0.51673 0.32963 0.96948 0.0
C818 C 0.51606 0.35022 0.93896 0.0
C819 C 0.51392 0.41064 0.85782 0.0
C820 C 0.51473 0.38973 0.8848 0.0
H821 H 0.54848 0.29911 0.0639 0.0
H822 H 0.54802 0.33025 0.99399 0.0
H823 H 0.49763 0.34382 0.84007 0.0
H824 H 0.51783 0.43824 0.69395 0.0
H825 H 0.51812 0.40394 0.73666 0.0
C826 C 0.22339 0.49409 0.03306 0.0
C827 C 0.23203 0.51266 0.04326 0.0
C828 C 0.20545 0.49219 0.99337 0.0
C829 C 0.1691 0.51929 0.86875 0.0
H830 H 0.1314 0.48452 0.96644 0.0
C831 C 0.08988 0.50862 0.74801 0.0
C832 C 0.07437 0.50697 0.80139 0.0
C833 C 0.10957 0.50851 0.77237 0.0
C834 C 0.14166 0.49442 0.93859 0.0
H835 H 0.22895 0.54369 0.01885 0.0
H836 H 0.19789 0.5405 0.94913 0.0
H837 H 0.16513 0.48561 0.01354 0.0
H838 H 0.06763 0.50372 0.923 0.0
H839 H 0.10185 0.5036 0.9657 0.0
H840 H 0.14541 0.5286 0.79551 0.0
C841 C 0.20498 0.52727 0.97026 0.0
C842 C 0.16119 0.49482 0.96493 0.0
C843 C 0.22286 0.52914 0.00997 0.0
C844 C 0.07913 0.50495 0.88002 0.0
C845 C 0.09884 0.5048 0.90451 0.0
C846 C 0.14956 0.51889 0.84236 0.0
C847 C 0.19565 0.50886 0.96345 0.0
C848 C 0.1752 0.50738 0.93094 0.0
C849 C 0.11439 0.50661 0.85109 0.0
C850 C 0.13547 0.50659 0.8774 0.0
H851 H 0.22992 0.48122 0.05972 0.0
H852 H 0.19893 0.47772 0.98843 0.0
H853 H 0.17942 0.52905 0.84049 0.0
H854 H 0.08683 0.50979 0.68705 0.0
H855 H 0.12104 0.50962 0.72917 0.0
C856 C 0.01538 0.8101 0.3336 0.0
C857 C 1.00663 0.79415 0.37225 0.0
C858 C 0.01731 0.82841 0.36954 0.0
C859 C 0.01662 0.85564 0.55418 0.0
H860 H 0.99728 0.89824 0.4259 0.0
C861 C 1.00753 0.93561 0.67182 0.0
C862 C 0.01074 0.95139 0.62071 0.0
C863 C 1.00729 0.9161 0.64511 0.0
C864 C 1.00309 0.88669 0.46243 0.0
H865 H 0.99424 0.78462 0.48099 0.0
H866 H 0.99801 0.81674 0.54506 0.0
H867 H 0.99777 0.86492 0.37573 0.0
H868 H 0.01659 0.95884 0.50134 0.0
H869 H 0.01672 0.92507 0.45514 0.0
H870 H 0.02232 0.8775 0.64054 0.0
C871 C 1.00326 0.815 0.48644 0.0
C872 C 1.00328 0.86746 0.43355 0.0
C873 C 1.00121 0.79657 0.45002 0.0
C874 C 0.01383 0.94712 0.54229 0.0
C875 C 0.01379 0.92763 0.5157 0.0
C876 C 0.01667 0.875 0.58296 0.0
C877 C 0.01065 0.83133 0.44548 0.0
C878 C 0.01019 0.85168 0.47861 0.0
C879 C 0.01041 0.91176 0.5665 0.0
C880 C 0.01004 0.8909 0.53724 0.0
H881 H 0.01979 0.80868 0.27375 0.0
H882 H 0.02346 0.84051 0.33679 0.0
H883 H 0.02207 0.84384 0.59041 0.0
H884 H 1.00504 0.93832 0.7326 0.0
H885 H 1.0044 0.90446 0.6861 0.0
C886 C 0.72714 1.00809 0.43327 0.0
C887 C 0.72804 1.00187 0.35603 0.0
C888 C 0.7095 1.00638 0.47539 0.0
C889 C 0.65953 0.98274 0.47019 0.0
H890 H 0.64344 0.0281 0.59036 0.0
C891 C 0.57805 0.99745 0.54584 0.0
C892 C 0.57348 1.00434 0.62023 0.0
C893 C 0.59765 0.99607 0.52117 0.0
C894 C 0.64778 0.0152 0.55776 0.0
H895 H 0.71159 0.98818 0.2636 0.0
H896 H 0.68113 0.98521 0.33586 0.0
H897 H 0.67669 0.02665 0.53687 0.0
H898 H 0.58613 0.01528 0.72692 0.0
H899 H 0.62031 0.01287 0.68368 0.0
H900 H 0.63046 0.97157 0.48914 0.0
C901 C 0.69386 0.99125 0.36498 0.0
C902 C 0.66692 0.01432 0.52729 0.0
C903 C 0.71135 0.99301 0.32321 0.0
C904 C 0.58906 0.00996 0.66914 0.0
C905 C 0.60868 1.00867 0.64425 0.0
C906 C 0.6404 0.9837 0.5001 0.0
C907 C 0.69247 0.9983 0.44114 0.0
C908 C 0.67296 0.99824 0.4817 0.0
C909 C 0.61325 1.00163 0.57003 0.0
C910 C 0.63412 1.00009 0.54307 0.0
H911 H 0.73973 0.01514 0.45973 0.0
H912 H 0.70909 0.01176 0.53418 0.0
H913 H 0.6637 0.9699 0.43706 0.0
H914 H 0.56649 0.99302 0.5065 0.0
H915 H 0.60057 0.99085 0.46324 0.0
C916 C 0.48457 0.71693 0.44555 0.0
C917 C 0.50006 0.72686 0.40837 0.0
C918 C 0.48789 0.69921 0.48458 0.0
C919 C 0.52295 0.65727 0.48569 0.0
H920 H 0.49044 0.63971 0.65602 0.0
C921 C 0.51691 0.57477 0.5676 0.0
C922 C 0.51449 0.56965 0.64566 0.0
C923 C 0.5164 0.59453 0.54423 0.0
C924 C 0.49986 0.64435 0.60905 0.0
H925 H 0.53147 0.7265 0.38757 0.0
H926 H 0.53747 0.69582 0.45797 0.0
H927 H 0.48832 0.67366 0.61261 0.0
H928 H 0.50982 0.58151 0.7605 0.0
H929 H 0.50937 0.6158 0.72025 0.0
H930 H 0.53477 0.62807 0.4831 0.0
C931 C 0.5226 0.70152 0.4553 0.0
C932 C 0.49846 0.66388 0.58341 0.0
C933 C 0.51924 0.71931 0.41599 0.0
C934 C 0.51168 0.58484 0.69979 0.0
C935 C 0.51129 0.60459 0.67652 0.0
C936 C 0.52443 0.63778 0.51163 0.0
C937 C 0.50685 0.69087 0.48803 0.0
C938 C 0.50977 0.67059 0.52054 0.0
C939 C 0.51358 0.60978 0.59829 0.0
C940 C 0.51271 0.6309 0.57303 0.0
H941 H 0.46962 0.72237 0.44095 0.0
H942 H 0.47531 0.69153 0.50826 0.0
H943 H 0.53176 0.6617 0.43662 0.0
H944 H 0.51899 0.56349 0.52421 0.0
H945 H 0.51786 0.59779 0.48334 0.0
C946 C 0.80192 0.50829 0.44137 0.0
C947 C 0.80034 0.51834 0.37065 0.0
C948 C 0.81956 0.50886 0.48417 0.0
C949 C 0.86822 0.53543 0.49646 0.0
H950 H 0.88654 0.48702 0.59061 0.0
C951 C 0.9504 0.5216 0.5642 0.0
C952 C 0.95531 0.51305 0.63563 0.0
C953 C 0.93073 0.52287 0.54009 0.0
C954 C 0.88157 0.50072 0.56522 0.0
H955 H 0.8157 0.53786 0.29226 0.0
H956 H 0.84616 0.53848 0.36448 0.0
H957 H 0.85333 0.48869 0.53661 0.0
H958 H 0.94315 0.49913 0.73757 0.0
H959 H 0.90886 0.50087 0.69438 0.0
H960 H 0.89672 0.54718 0.52252 0.0
C961 C 0.83395 0.53026 0.38824 0.0
C962 C 0.86243 0.50173 0.53449 0.0
C963 C 0.81642 0.52975 0.34604 0.0
C964 C 0.93997 0.50568 0.68203 0.0
C965 C 0.92029 0.50666 0.6573 0.0
C966 C 0.88738 0.53432 0.52615 0.0
C967 C 0.83601 0.51957 0.45737 0.0
C968 C 0.85557 0.51901 0.49817 0.0
C969 C 0.9154 0.51542 0.58621 0.0
C970 C 0.89446 0.51686 0.55971 0.0
H971 H 0.78985 0.49931 0.46192 0.0
H972 H 0.82038 0.50066 0.53766 0.0
H973 H 0.86344 0.54921 0.4713 0.0
H974 H 0.96175 0.52746 0.52686 0.0
H975 H 0.92755 0.5295 0.48461 0.0
loop_
_geom_bond_atom_site_label_1
_geom_bond_atom_site_label_2
_geom_bond_distance
_geom_bond_site_symmetry_2
_ccdc_geom_bond_type
H0 C5 0.930 . S
H1 C8 0.930 . S
H2 C10 0.930 . S
H3 C4 1.016 . S
C4 H3 1.016 . S
C4 N11 1.286 . S
C5 H0 0.930 . S
C5 C6 1.397 . S
C5 C7 1.361 . S
C6 C5 1.397 . S
C6 C10 1.390 . S
C7 C5 1.361 . S
C7 C8 1.393 . S
C7 N11 1.413 . S
C8 H1 0.930 . S
C8 C7 1.393 . S
C8 C9 1.399 . S
C9 C8 1.399 . S
C9 C10 1.381 . S
C10 H2 0.930 . S
C10 C6 1.390 . S
C10 C9 1.381 . S
N11 C4 1.286 . S
N11 C7 1.413 . S
H12 C17 0.930 . S
H13 C20 0.930 . S
H14 C22 0.930 . S
H15 C16 1.029 . S
C16 H15 1.029 . S
C16 N23 1.268 1_655 S
C17 H12 0.930 . S
C17 C18 1.407 . S
C17 C19 1.361 . S
C18 C17 1.407 . S
C18 C22 1.385 1_455 S
C19 C17 1.361 . S
C19 C20 1.393 . S
C19 N23 1.413 . S
C20 H13 0.930 . S
C20 C19 1.393 . S
C20 C21 1.402 . S
C21 C20 1.402 . S
C21 C22 1.379 1_455 S
C22 H14 0.930 . S
C22 C18 1.385 1_655 S
C22 C21 1.379 1_655 S
N23 C16 1.268 1_455 S
N23 C19 1.413 . S
H24 C29 0.930 . S
H25 C32 0.930 . S
H26 C34 0.930 . S
H27 C28 1.029 . S
C28 H27 1.029 . S
C28 N35 1.268 1_565 S
C29 H24 0.930 . S
C29 C30 1.407 . S
C29 C31 1.361 . S
C30 C29 1.407 . S
C30 C34 1.385 1_545 S
C31 C29 1.361 . S
C31 C32 1.393 . S
C31 N35 1.413 . S
C32 H25 0.930 . S
C32 C31 1.393 . S
C32 C33 1.402 . S
C33 C32 1.402 . S
C33 C34 1.379 1_545 S
C34 H26 0.930 . S
C34 C30 1.385 1_565 S
C34 C33 1.379 1_565 S
N35 C28 1.268 1_545 S
N35 C31 1.413 . S
H36 C41 0.930 . S
H37 C44 0.930 . S
H38 C46 0.930 . S
H39 C40 1.016 . S
C40 H39 1.016 . S
C40 N47 1.286 . S
C41 H36 0.930 . S
C41 C42 1.397 . S
C41 C43 1.361 . S
C42 C41 1.397 . S
C42 C46 1.390 . S
C43 C41 1.361 . S
C43 C44 1.393 . S
C43 N47 1.413 . S
C44 H37 0.930 . S
C44 C43 1.393 . S
C44 C45 1.399 . S
C45 C44 1.399 . S
C45 C46 1.381 . S
C46 H38 0.930 . S
C46 C42 1.390 . S
C46 C45 1.381 . S
N47 C40 1.286 . S
N47 C43 1.413 . S
H48 C53 0.930 . S
H49 C56 0.930 . S
H50 C58 0.930 . S
H51 C52 1.016 . S
C52 H51 1.016 . S
C52 N59 1.286 . S
C53 H48 0.930 . S
C53 C54 1.397 . S
C53 C55 1.361 1_556 S
C54 C53 1.397 . S
C54 C58 1.390 1_556 S
C55 C53 1.361 1_554 S
C55 C56 1.393 . S
C55 N59 1.413 . S
C56 H49 0.930 . S
C56 C55 1.393 . S
C56 C57 1.399 . S
C57 C56 1.399 . S
C57 C58 1.381 . S
C58 H50 0.930 . S
C58 C54 1.390 1_554 S
C58 C57 1.381 . S
N59 C52 1.286 . S
N59 C55 1.413 . S
H60 C65 0.930 . S
H61 C68 0.930 . S
H62 C70 0.930 . S
H63 C64 1.025 . S
C64 H63 1.025 . S
C64 N71 1.274 1_655 S
C65 H60 0.930 . S
C65 C66 1.397 . S
C65 C67 1.361 1_556 S
C66 C65 1.397 . S
C66 C70 1.390 1_456 S
C67 C65 1.361 1_554 S
C67 C68 1.393 . S
C67 N71 1.413 . S
C68 H61 0.930 . S
C68 C67 1.393 . S
C68 C69 1.404 . S
C69 C68 1.404 . S
C69 C70 1.378 1_455 S
C70 H62 0.930 . S
C70 C66 1.390 1_654 S
C70 C69 1.378 1_655 S
N71 C64 1.274 1_455 S
N71 C67 1.413 . S
H72 C77 0.930 . S
H73 C80 0.930 . S
H74 C82 0.930 . S
H75 C76 1.025 . S
C76 H75 1.025 . S
C76 N83 1.274 1_565 S
C77 H72 0.930 . S
C77 C78 1.397 . S
C77 C79 1.361 1_556 S
C78 C77 1.397 . S
C78 C82 1.390 1_546 S
C79 C77 1.361 1_554 S
C79 C80 1.393 . S
C79 N83 1.413 . S
C80 H73 0.930 . S
C80 C79 1.393 . S
C80 C81 1.404 . S
C81 C80 1.404 . S
C81 C82 1.378 1_545 S
C82 H74 0.930 . S
C82 C78 1.390 1_564 S
C82 C81 1.378 1_565 S
N83 C76 1.274 1_545 S
N83 C79 1.413 . S
H84 C89 0.930 . S
H85 C92 0.930 . S
H86 C94 0.930 . S
H87 C88 1.016 . S
C88 H87 1.016 . S
C88 N95 1.286 . S
C89 H84 0.930 . S
C89 C90 1.397 . S
C89 C91 1.361 1_556 S
C90 C89 1.397 . S
C90 C94 1.390 1_556 S
C91 C89 1.361 1_554 S
C91 C92 1.393 . S
C91 N95 1.413 . S
C92 H85 0.930 . S
C92 C91 1.393 . S
C92 C93 1.399 . S
C93 C92 1.399 . S
C93 C94 1.381 . S
C94 H86 0.930 . S
C94 C90 1.390 1_554 S
C94 C93 1.381 . S
N95 C88 1.286 . S
N95 C91 1.413 . S
Tb96 C98 2.809 . S
Tb96 O116 2.478 1_455 S
Tb96 O117 2.440 . S
Tb96 O118 2.658 1_565 S
Tb96 O119 2.409 . S
Tb96 O120 2.378 . S
Tb96 O124 2.325 1_455 S
Tb96 O127 2.341 1_565 S
Tb97 C107 2.809 . S
Tb97 O118 2.325 1_655 S
Tb97 O121 2.341 1_545 S
Tb97 O122 2.473 1_655 S
Tb97 O123 2.440 . S
Tb97 O124 2.658 1_545 S
Tb97 O125 2.409 . S
Tb97 O126 2.378 . S
C98 Tb96 2.809 . S
C98 C99 1.514 . S
C98 O116 1.235 1_455 S
C98 O117 1.266 . S
C99 C98 1.514 . S
C99 C100 1.359 . S
C99 C104 1.348 . S
C100 C99 1.359 . S
C100 C101 1.380 . S
C100 H128 0.929 1_455 S
C101 C100 1.380 . S
C101 C102 1.347 . S
C101 H129 0.931 1_455 S
C102 C101 1.347 . S
C102 C103 1.369 . S
C103 C102 1.369 . S
C103 C104 1.408 . S
C103 H130 0.930 . S
C104 C99 1.348 . S
C104 C103 1.408 . S
C104 H131 0.930 . S
C105 O118 1.262 1_565 S
C105 O119 1.281 . S
C106 O120 1.236 1_655 S
C106 O121 1.266 . S
C107 Tb97 2.809 . S
C107 C108 1.514 . S
C107 O122 1.222 1_655 S
C107 O123 1.266 . S
C108 C107 1.514 . S
C108 C109 1.359 . S
C108 C113 1.348 . S
C109 C108 1.359 . S
C109 C110 1.380 . S
C109 H132 0.929 1_655 S
C110 C109 1.380 . S
C110 C111 1.347 . S
C110 H133 0.931 1_655 S
C111 C110 1.347 . S
C111 C112 1.369 . S
C112 C111 1.369 . S
C112 C113 1.408 . S
C112 H134 0.930 . S
C113 C108 1.348 . S
C113 C112 1.408 . S
C113 H135 0.930 . S
C114 O124 1.281 1_545 S
C114 O125 1.254 . S
C115 O126 1.236 1_455 S
C115 O127 1.266 . S
O116 Tb96 2.478 1_655 S
O116 C98 1.235 1_655 S
O117 Tb96 2.440 . S
O117 C98 1.266 . S
O118 Tb96 2.658 1_545 S
O118 Tb97 2.325 1_455 S
O118 C105 1.262 1_545 S
O119 Tb96 2.409 . S
O119 C105 1.281 . S
O120 Tb96 2.378 . S
O120 C106 1.236 1_455 S
O121 Tb97 2.341 1_565 S
O121 C106 1.266 . S
O122 Tb97 2.473 1_455 S
O122 C107 1.222 1_455 S
O123 Tb97 2.440 . S
O123 C107 1.266 . S
O124 Tb96 2.325 1_655 S
O124 Tb97 2.658 1_565 S
O124 C114 1.281 1_565 S
O125 Tb97 2.409 . S
O125 C114 1.254 . S
O126 Tb97 2.378 . S
O126 C115 1.236 1_655 S
O127 Tb96 2.341 1_545 S
O127 C115 1.266 . S
H128 C100 0.929 1_655 S
H129 C101 0.931 1_655 S
H130 C103 0.930 . S
H131 C104 0.930 . S
H132 C109 0.929 1_455 S
H133 C110 0.931 1_455 S
H134 C112 0.930 . S
H135 C113 0.930 . S
Tb136 C138 2.809 . S
Tb136 O156 2.475 1_545 S
Tb136 O157 2.440 . S
Tb136 O158 2.658 . S
Tb136 O159 2.409 . S
Tb136 O160 2.378 . S
Tb136 O164 2.325 1_545 S
Tb136 O167 2.341 . S
Tb137 C147 2.809 . S
Tb137 O158 2.325 1_565 S
Tb137 O161 2.341 . S
Tb137 O162 2.469 1_565 S
Tb137 O163 2.440 . S
Tb137 O164 2.658 . S
Tb137 O165 2.409 . S
Tb137 O166 2.378 . S
C138 Tb136 2.809 . S
C138 C139 1.514 . S
C138 O156 1.227 1_545 S
C138 O157 1.266 . S
C139 C138 1.514 . S
C139 C140 1.359 . S
C139 C144 1.348 . S
C140 C139 1.359 . S
C140 C141 1.380 . S
C140 H168 0.929 1_545 S
C141 C140 1.380 . S
C141 C142 1.347 . S
C141 H169 0.931 1_545 S
C142 C141 1.347 . S
C142 C143 1.369 . S
C143 C142 1.369 . S
C143 C144 1.408 . S
C143 H170 0.930 . S
C144 C139 1.348 . S
C144 C143 1.408 . S
C144 H171 0.930 . S
C145 O158 1.281 . S
C145 O159 1.254 . S
C146 O160 1.236 1_565 S
C146 O161 1.266 . S
C147 Tb137 2.809 . S
C147 C148 1.514 . S
C147 O162 1.214 1_565 S
C147 O163 1.266 . S
C148 C147 1.514 . S
C148 C149 1.359 . S
C148 C153 1.348 . S
C149 C148 1.359 . S
C149 C150 1.380 . S
C149 H172 0.929 1_565 S
C150 C149 1.380 . S
C150 C151 1.347 . S
C150 H173 0.931 1_565 S
C151 C150 1.347 . S
C151 C152 1.369 . S
C152 C151 1.369 . S
C152 C153 1.408 . S
C152 H174 0.930 . S
C153 C148 1.348 . S
C153 C152 1.408 . S
C153 H175 0.930 . S
C154 O164 1.281 . S
C154 O165 1.254 . S
C155 O166 1.236 1_545 S
C155 O167 1.266 . S
O156 Tb136 2.475 1_565 S
O156 C138 1.227 1_565 S
O157 Tb136 2.440 . S
O157 C138 1.266 . S
O158 Tb136 2.658 . S
O158 Tb137 2.325 1_545 S
O158 C145 1.281 . S
O159 Tb136 2.409 . S
O159 C145 1.254 . S
O160 Tb136 2.378 . S
O160 C146 1.236 1_545 S
O161 Tb137 2.341 . S
O161 C146 1.266 . S
O162 Tb137 2.469 1_545 S
O162 C147 1.214 1_545 S
O163 Tb137 2.440 . S
O163 C147 1.266 . S
O164 Tb136 2.325 1_565 S
O164 Tb137 2.658 . S
O164 C154 1.281 . S
O165 Tb137 2.409 . S
O165 C154 1.254 . S
O166 Tb137 2.378 . S
O166 C155 1.236 1_565 S
O167 Tb136 2.341 . S
O167 C155 1.266 . S
H168 C140 0.929 1_565 S
H169 C141 0.931 1_565 S
H170 C143 0.930 . S
H171 C144 0.930 . S
H172 C149 0.929 1_545 S
H173 C150 0.931 1_545 S
H174 C152 0.930 . S
H175 C153 0.930 . S
Tb176 C178 2.809 . S
Tb176 O196 2.484 . S
Tb176 O197 2.440 . S
Tb176 O198 2.658 . S
Tb176 O199 2.409 . S
Tb176 O200 2.378 . S
Tb176 O204 2.325 . S
Tb176 O207 2.341 . S
Tb177 C187 2.809 . S
Tb177 O198 2.325 . S
Tb177 O201 2.341 . S
Tb177 O202 2.484 . S
Tb177 O203 2.440 . S
Tb177 O204 2.658 . S
Tb177 O205 2.409 . S
Tb177 O206 2.378 . S
C178 Tb176 2.809 . S
C178 C179 1.514 . S
C178 O196 1.248 . S
C178 O197 1.266 . S
C179 C178 1.514 . S
C179 C180 1.359 . S
C179 C184 1.348 . S
C180 C179 1.359 . S
C180 C181 1.380 . S
C180 H208 0.929 . S
C181 C180 1.380 . S
C181 C182 1.347 . S
C181 H209 0.931 . S
C182 C181 1.347 . S
C182 C183 1.369 . S
C183 C182 1.369 . S
C183 C184 1.408 . S
C183 H210 0.930 . S
C184 C179 1.348 . S
C184 C183 1.408 . S
C184 H211 0.930 . S
C185 O198 1.281 . S
C185 O199 1.254 . S
C186 O200 1.236 . S
C186 O201 1.266 . S
C187 Tb177 2.809 . S
C187 C188 1.514 . S
C187 O202 1.248 . S
C187 O203 1.266 . S
C188 C187 1.514 . S
C188 C189 1.359 . S
C188 C193 1.348 . S
C189 C188 1.359 . S
C189 C190 1.380 . S
C189 H212 0.929 . S
C190 C189 1.380 . S
C190 C191 1.347 . S
C190 H213 0.931 . S
C191 C190 1.347 . S
C191 C192 1.369 . S
C192 C191 1.369 . S
C192 C193 1.408 . S
C192 H214 0.930 . S
C193 C188 1.348 . S
C193 C192 1.408 . S
C193 H215 0.930 . S
C194 O204 1.281 . S
C194 O205 1.254 . S
C195 O206 1.236 . S
C195 O207 1.266 . S
O196 Tb176 2.484 . S
O196 C178 1.248 . S
O197 Tb176 2.440 . S
O197 C178 1.266 . S
O198 Tb176 2.658 . S
O198 Tb177 2.325 . S
O198 C185 1.281 . S
O199 Tb176 2.409 . S
O199 C185 1.254 . S
O200 Tb176 2.378 . S
O200 C186 1.236 . S
O201 Tb177 2.341 . S
O201 C186 1.266 . S
O202 Tb177 2.484 . S
O202 C187 1.248 . S
O203 Tb177 2.440 . S
O203 C187 1.266 . S
O204 Tb176 2.325 . S
O204 Tb177 2.658 . S
O204 C194 1.281 . S
O205 Tb177 2.409 . S
O205 C194 1.254 . S
O206 Tb177 2.378 . S
O206 C195 1.236 . S
O207 Tb176 2.341 . S
O207 C195 1.266 . S
H208 C180 0.929 . S
H209 C181 0.931 . S
H210 C183 0.930 . S
H211 C184 0.930 . S
H212 C189 0.929 . S
H213 C190 0.931 . S
H214 C192 0.930 . S
H215 C193 0.930 . S
Tb216 C218 2.809 . S
Tb216 O236 2.484 . S
Tb216 O237 2.440 . S
Tb216 O238 2.658 1_655 S
Tb216 O239 2.409 . S
Tb216 O240 2.378 . S
Tb216 O244 2.325 . S
Tb216 O247 2.341 1_655 S
Tb217 C227 2.809 . S
Tb217 O238 2.325 . S
Tb217 O241 2.341 1_455 S
Tb217 O242 2.484 . S
Tb217 O243 2.440 . S
Tb217 O244 2.658 1_455 S
Tb217 O245 2.409 . S
Tb217 O246 2.378 . S
C218 Tb216 2.809 . S
C218 C219 1.514 . S
C218 O236 1.248 . S
C218 O237 1.266 . S
C219 C218 1.514 . S
C219 C220 1.359 . S
C219 C224 1.348 . S
C220 C219 1.359 . S
C220 C221 1.380 . S
C220 H248 0.929 . S
C221 C220 1.380 . S
C221 C222 1.347 . S
C221 H249 0.931 . S
C222 C221 1.347 . S
C222 C223 1.369 . S
C223 C222 1.369 . S
C223 C224 1.408 . S
C223 H250 0.930 . S
C224 C219 1.348 . S
C224 C223 1.408 . S
C224 H251 0.930 . S
C225 O238 1.269 1_655 S
C225 O239 1.270 . S
C226 O240 1.236 . S
C226 O241 1.266 . S
C227 Tb217 2.809 . S
C227 C228 1.514 . S
C227 O242 1.248 . S
C227 O243 1.266 . S
C228 C227 1.514 . S
C228 C229 1.359 . S
C228 C233 1.348 . S
C229 C228 1.359 . S
C229 C230 1.380 . S
C229 H252 0.929 . S
C230 C229 1.380 . S
C230 C231 1.347 . S
C230 H253 0.931 . S
C231 C230 1.347 . S
C231 C232 1.369 . S
C232 C231 1.369 . S
C232 C233 1.408 . S
C232 H254 0.930 . S
C233 C228 1.348 . S
C233 C232 1.408 . S
C233 H255 0.930 . S
C234 O244 1.265 1_455 S
C234 O245 1.277 . S
C235 O246 1.236 . S
C235 O247 1.266 . S
O236 Tb216 2.484 . S
O236 C218 1.248 . S
O237 Tb216 2.440 . S
O237 C218 1.266 . S
O238 Tb216 2.658 1_455 S
O238 Tb217 2.325 . S
O238 C225 1.269 1_455 S
O239 Tb216 2.409 . S
O239 C225 1.270 . S
O240 Tb216 2.378 . S
O240 C226 1.236 . S
O241 Tb217 2.341 1_655 S
O241 C226 1.266 . S
O242 Tb217 2.484 . S
O242 C227 1.248 . S
O243 Tb217 2.440 . S
O243 C227 1.266 . S
O244 Tb216 2.325 . S
O244 Tb217 2.658 1_655 S
O244 C234 1.265 1_655 S
O245 Tb217 2.409 . S
O245 C234 1.277 . S
O246 Tb217 2.378 . S
O246 C235 1.236 . S
O247 Tb216 2.341 1_455 S
O247 C235 1.266 . S
H248 C220 0.929 . S
H249 C221 0.931 . S
H250 C223 0.930 . S
H251 C224 0.930 . S
H252 C229 0.929 . S
H253 C230 0.931 . S
H254 C232 0.930 . S
H255 C233 0.930 . S
C256 C257 1.347 1_565 S
C256 C258 1.327 . S
C256 H281 0.950 . S
C257 C256 1.347 1_545 S
C257 C273 1.350 . S
C258 C256 1.327 . S
C258 C277 1.423 1_565 S
C258 H282 0.950 . S
C259 C276 1.574 . S
C259 C278 1.377 . S
C259 H283 0.949 . S
H260 C264 0.949 . S
C261 C262 1.367 . S
C261 C263 1.327 . S
C261 H284 0.950 . S
C262 C261 1.367 . S
C262 C274 1.331 1_545 S
C263 C261 1.327 . S
C263 C279 1.442 . S
C263 H285 0.950 . S
C264 H260 0.949 . S
C264 C272 1.574 . S
C264 C280 1.356 1_565 S
H265 C273 0.950 . S
H266 C271 0.950 . S
H267 C272 0.949 . S
H268 C274 0.950 . S
H269 C275 0.950 . S
H270 C276 0.949 . S
C271 H266 0.950 . S
C271 C273 1.327 . S
C271 C277 1.434 . S
C272 C264 1.574 . S
C272 H267 0.949 . S
C272 C278 1.360 1_565 S
C273 C257 1.350 . S
C273 H265 0.950 . S
C273 C271 1.327 . S
C274 C262 1.331 1_565 S
C274 H268 0.950 . S
C274 C275 1.327 . S
C275 H269 0.950 . S
C275 C274 1.327 . S
C275 C279 1.415 1_565 S
C276 C259 1.574 . S
C276 H270 0.949 . S
C276 C280 1.381 . S
C277 C258 1.423 1_545 S
C277 C271 1.434 . S
C277 C278 1.523 . S
C278 C259 1.377 . S
C278 C272 1.360 1_545 S
C278 C277 1.523 . S
C279 C263 1.442 . S
C279 C275 1.415 1_545 S
C279 C280 1.523 . S
C280 C264 1.356 1_545 S
C280 C276 1.381 . S
C280 C279 1.523 . S
H281 C256 0.950 . S
H282 C258 0.950 . S
H283 C259 0.949 . S
H284 C261 0.950 . S
H285 C263 0.950 . S
C286 C287 1.349 . S
C286 C288 1.327 . S
C286 H311 0.950 . S
C287 C286 1.349 . S
C287 C303 1.349 . S
C288 C286 1.327 . S
C288 C307 1.429 . S
C288 H312 0.950 . S
C289 C306 1.574 . S
C289 C308 1.368 . S
C289 H313 0.949 . S
H290 C294 0.949 . S
C291 C292 1.349 . S
C291 C293 1.327 . S
C291 H314 0.950 . S
C292 C291 1.349 . S
C292 C304 1.349 . S
C293 C291 1.327 . S
C293 C309 1.429 . S
C293 H315 0.950 . S
C294 H290 0.949 . S
C294 C302 1.574 . S
C294 C310 1.368 . S
H295 C303 0.950 . S
H296 C301 0.950 . S
H297 C302 0.949 . S
H298 C304 0.950 . S
H299 C305 0.950 . S
H300 C306 0.949 . S
C301 H296 0.950 . S
C301 C303 1.327 . S
C301 C307 1.429 . S
C302 C294 1.574 . S
C302 H297 0.949 . S
C302 C308 1.368 . S
C303 C287 1.349 . S
C303 H295 0.950 . S
C303 C301 1.327 . S
C304 C292 1.349 . S
C304 H298 0.950 . S
C304 C305 1.327 . S
C305 H299 0.950 . S
C305 C304 1.327 . S
C305 C309 1.429 . S
C306 C289 1.574 . S
C306 H300 0.949 . S
C306 C310 1.368 . S
C307 C288 1.429 . S
C307 C301 1.429 . S
C307 C308 1.523 . S
C308 C289 1.368 . S
C308 C302 1.368 . S
C308 C307 1.523 . S
C309 C293 1.429 . S
C309 C305 1.429 . S
C309 C310 1.523 . S
C310 C294 1.368 . S
C310 C306 1.368 . S
C310 C309 1.523 . S
H311 C286 0.950 . S
H312 C288 0.950 . S
H313 C289 0.949 . S
H314 C291 0.950 . S
H315 C293 0.950 . S
C316 C317 1.349 . S
C316 C318 1.327 . S
C316 H341 0.950 . S
C317 C316 1.349 . S
C317 C333 1.349 . S
C318 C316 1.327 . S
C318 C337 1.429 . S
C318 H342 0.950 . S
C319 C336 1.574 . S
C319 C338 1.368 . S
C319 H343 0.949 . S
H320 C324 0.949 . S
C321 C322 1.349 . S
C321 C323 1.327 . S
C321 H344 0.950 . S
C322 C321 1.349 . S
C322 C334 1.349 . S
C323 C321 1.327 . S
C323 C339 1.429 . S
C323 H345 0.950 . S
C324 H320 0.949 . S
C324 C332 1.574 . S
C324 C340 1.368 . S
H325 C333 0.950 . S
H326 C331 0.950 . S
H327 C332 0.949 . S
H328 C334 0.950 . S
H329 C335 0.950 . S
H330 C336 0.949 . S
C331 H326 0.950 . S
C331 C333 1.327 . S
C331 C337 1.429 . S
C332 C324 1.574 . S
C332 H327 0.949 . S
C332 C338 1.368 . S
C333 C317 1.349 . S
C333 H325 0.950 . S
C333 C331 1.327 . S
C334 C322 1.349 . S
C334 H328 0.950 . S
C334 C335 1.327 . S
C335 H329 0.950 . S
C335 C334 1.327 . S
C335 C339 1.429 . S
C336 C319 1.574 . S
C336 H330 0.949 . S
C336 C340 1.368 . S
C337 C318 1.429 . S
C337 C331 1.429 . S
C337 C338 1.523 . S
C338 C319 1.368 . S
C338 C332 1.368 . S
C338 C337 1.523 . S
C339 C323 1.429 . S
C339 C335 1.429 . S
C339 C340 1.523 . S
C340 C324 1.368 . S
C340 C336 1.368 . S
C340 C339 1.523 . S
H341 C316 0.950 . S
H342 C318 0.950 . S
H343 C319 0.949 . S
H344 C321 0.950 . S
H345 C323 0.950 . S
C346 C347 1.346 1_655 S
C346 C348 1.327 . S
C346 H371 0.950 . S
C347 C346 1.346 1_455 S
C347 C363 1.352 . S
C348 C346 1.327 . S
C348 C367 1.417 1_655 S
C348 H372 0.950 . S
C349 C366 1.574 . S
C349 C368 1.386 . S
C349 H373 0.949 . S
H350 C354 0.949 . S
C351 C352 1.387 . S
C351 C353 1.327 . S
C351 H374 0.950 . S
C352 C351 1.387 . S
C352 C364 1.311 1_455 S
C353 C351 1.327 . S
C353 C369 1.457 . S
C353 H375 0.950 . S
C354 H350 0.949 . S
C354 C362 1.574 . S
C354 C370 1.342 1_655 S
H355 C363 0.950 . S
H356 C361 0.950 . S
H357 C362 0.949 . S
H358 C364 0.950 . S
H359 C365 0.950 . S
H360 C366 0.949 . S
C361 H356 0.950 . S
C361 C363 1.327 . S
C361 C367 1.440 . S
C362 C354 1.574 . S
C362 H357 0.949 . S
C362 C368 1.351 1_655 S
C363 C347 1.352 . S
C363 H355 0.950 . S
C363 C361 1.327 . S
C364 C352 1.311 1_655 S
C364 H358 0.950 . S
C364 C365 1.327 . S
C365 H359 0.950 . S
C365 C364 1.327 . S
C365 C369 1.401 1_655 S
C366 C349 1.574 . S
C366 H360 0.949 . S
C366 C370 1.394 . S
C367 C348 1.417 1_455 S
C367 C361 1.440 . S
C367 C368 1.523 . S
C368 C349 1.386 . S
C368 C362 1.351 1_455 S
C368 C367 1.523 . S
C369 C353 1.457 . S
C369 C365 1.401 1_455 S
C369 C370 1.523 . S
C370 C354 1.342 1_455 S
C370 C366 1.394 . S
C370 C369 1.523 . S
H371 C346 0.950 . S
H372 C348 0.950 . S
H373 C349 0.949 . S
H374 C351 0.950 . S
H375 C353 0.950 . S
C376 C377 1.347 . S
C376 C378 1.327 . S
C376 H401 0.950 . S
C377 C376 1.347 . S
C377 C393 1.351 1_545 S
C378 C376 1.327 . S
C378 C397 1.433 1_545 S
C378 H402 0.950 . S
C379 C396 1.584 . S
C379 C398 1.366 . S
C379 H403 0.949 . S
H380 C384 0.949 . S
C381 C382 1.357 . S
C381 C383 1.327 . S
C381 H404 0.950 . S
C382 C381 1.357 . S
C382 C394 1.341 1_565 S
C383 C381 1.327 . S
C383 C399 1.432 . S
C383 H405 0.950 . S
C384 H380 0.949 . S
C384 C392 1.574 . S
C384 C400 1.366 1_545 S
H385 C393 0.950 . S
H386 C391 0.950 . S
H387 C392 0.949 . S
H388 C394 0.950 . S
H389 C395 0.950 . S
H390 C396 0.938 1_556 S
C391 H386 0.950 . S
C391 C393 1.327 . S
C391 C397 1.424 . S
C392 C384 1.574 . S
C392 H387 0.949 . S
C392 C398 1.370 1_545 S
C393 C377 1.351 1_565 S
C393 H385 0.950 . S
C393 C391 1.327 . S
C394 C382 1.341 1_545 S
C394 H388 0.950 . S
C394 C395 1.327 . S
C395 H389 0.950 . S
C395 C394 1.327 . S
C395 C399 1.425 1_545 S
C396 C379 1.584 . S
C396 H390 0.938 1_554 S
C396 C400 1.372 . S
C397 C378 1.433 1_565 S
C397 C391 1.424 . S
C397 C398 1.523 . S
C398 C379 1.366 . S
C398 C392 1.370 1_565 S
C398 C397 1.523 . S
C399 C383 1.432 . S
C399 C395 1.425 1_565 S
C399 C400 1.523 1_556 S
C400 C384 1.366 1_565 S
C400 C396 1.372 . S
C400 C399 1.523 1_554 S
H401 C376 0.950 . S
H402 C378 0.950 . S
H403 C379 0.949 . S
H404 C381 0.950 . S
H405 C383 0.950 . S
C406 C407 1.349 . S
C406 C408 1.327 . S
C406 H431 0.950 . S
C407 C406 1.349 . S
C407 C423 1.349 . S
C408 C406 1.327 . S
C408 C427 1.429 . S
C408 H432 0.950 . S
C409 C426 1.574 . S
C409 C428 1.368 . S
C409 H433 0.949 . S
H410 C414 0.949 . S
C411 C412 1.349 . S
C411 C413 1.327 . S
C411 H434 0.950 . S
C412 C411 1.349 . S
C412 C424 1.349 . S
C413 C411 1.327 . S
C413 C429 1.429 . S
C413 H435 0.950 1_556 S
C414 H410 0.949 . S
C414 C422 1.574 1_556 S
C414 C430 1.368 1_556 S
H415 C423 0.950 . S
H416 C421 0.950 . S
H417 C422 0.949 . S
H418 C424 0.950 . S
H419 C425 0.950 . S
H420 C426 0.949 . S
C421 H416 0.950 . S
C421 C423 1.327 . S
C421 C427 1.429 . S
C422 C414 1.574 1_554 S
C422 H417 0.949 . S
C422 C428 1.368 . S
C423 C407 1.349 . S
C423 H415 0.950 . S
C423 C421 1.327 . S
C424 C412 1.349 . S
C424 H418 0.950 . S
C424 C425 1.327 . S
C425 H419 0.950 . S
C425 C424 1.327 . S
C425 C429 1.429 . S
C426 C409 1.574 . S
C426 H420 0.949 . S
C426 C430 1.368 . S
C427 C408 1.429 . S
C427 C421 1.429 . S
C427 C428 1.523 . S
C428 C409 1.368 . S
C428 C422 1.368 . S
C428 C427 1.523 . S
C429 C413 1.429 . S
C429 C425 1.429 . S
C429 C430 1.523 1_556 S
C430 C414 1.368 1_554 S
C430 C426 1.368 . S
C430 C429 1.523 1_554 S
H431 C406 0.950 . S
H432 C408 0.950 . S
H433 C409 0.949 . S
H434 C411 0.950 . S
H435 C413 0.950 1_554 S
C436 C437 1.349 . S
C436 C438 1.327 . S
C436 H461 0.950 . S
C437 C436 1.349 . S
C437 C453 1.349 . S
C438 C436 1.327 . S
C438 C457 1.429 . S
C438 H462 0.950 . S
C439 C456 1.574 . S
C439 C458 1.368 . S
C439 H463 0.949 . S
H440 C444 0.949 1_556 S
C441 C442 1.349 . S
C441 C443 1.327 . S
C441 H464 0.950 . S
C442 C441 1.349 . S
C442 C454 1.349 . S
C443 C441 1.327 . S
C443 C459 1.429 . S
C443 H465 0.950 . S
C444 H440 0.949 1_554 S
C444 C452 1.574 . S
C444 C460 1.368 . S
H445 C453 0.950 . S
H446 C451 0.950 . S
H447 C452 0.949 . S
H448 C454 0.950 . S
H449 C455 0.950 . S
H450 C456 0.949 . S
C451 H446 0.950 . S
C451 C453 1.327 . S
C451 C457 1.429 . S
C452 C444 1.574 . S
C452 H447 0.949 . S
C452 C458 1.368 . S
C453 C437 1.349 . S
C453 H445 0.950 . S
C453 C451 1.327 . S
C454 C442 1.349 . S
C454 H448 0.950 . S
C454 C455 1.327 . S
C455 H449 0.950 . S
C455 C454 1.327 . S
C455 C459 1.429 . S
C456 C439 1.574 . S
C456 H450 0.949 . S
C456 C460 1.368 . S
C457 C438 1.429 . S
C457 C451 1.429 . S
C457 C458 1.523 . S
C458 C439 1.368 . S
C458 C452 1.368 . S
C458 C457 1.523 . S
C459 C443 1.429 . S
C459 C455 1.429 . S
C459 C460 1.523 1_556 S
C460 C444 1.368 . S
C460 C456 1.368 . S
C460 C459 1.523 1_554 S
H461 C436 0.950 . S
H462 C438 0.950 . S
H463 C439 0.949 . S
H464 C441 0.950 . S
H465 C443 0.950 . S
C466 C467 1.352 . S
C466 C468 1.327 . S
C466 H491 0.950 . S
C467 C466 1.352 . S
C467 C483 1.346 1_655 S
C468 C466 1.327 . S
C468 C487 1.438 . S
C468 H492 0.950 . S
C469 C486 1.580 . S
C469 C488 1.353 1_455 S
C469 H493 0.949 . S
H470 C474 0.949 . S
C471 C472 1.317 1_455 S
C471 C473 1.327 . S
C471 H494 0.950 . S
C472 C471 1.317 1_655 S
C472 C484 1.381 . S
C473 C471 1.327 . S
C473 C489 1.405 1_455 S
C473 H495 0.950 . S
C474 H470 0.949 . S
C474 C482 1.574 . S
C474 C490 1.391 . S
H475 C483 0.950 . S
H476 C481 0.950 . S
H477 C482 0.949 . S
H478 C484 0.950 . S
H479 C485 0.950 . S
H480 C486 0.943 1_556 S
C481 H476 0.950 . S
C481 C483 1.327 . S
C481 C487 1.419 1_455 S
C482 C474 1.574 . S
C482 H477 0.949 . S
C482 C488 1.383 . S
C483 C467 1.346 1_455 S
C483 H475 0.950 . S
C483 C481 1.327 . S
C484 C472 1.381 . S
C484 H478 0.950 . S
C484 C485 1.327 . S
C485 H479 0.950 . S
C485 C484 1.327 . S
C485 C489 1.453 . S
C486 C469 1.580 . S
C486 H480 0.943 1_554 S
C486 C490 1.347 1_455 S
C487 C468 1.438 . S
C487 C481 1.419 1_655 S
C487 C488 1.523 . S
C488 C469 1.353 1_655 S
C488 C482 1.383 . S
C488 C487 1.523 . S
C489 C473 1.405 1_655 S
C489 C485 1.453 . S
C489 C490 1.523 1_556 S
C490 C474 1.391 . S
C490 C486 1.347 1_655 S
C490 C489 1.523 1_554 S
H491 C466 0.950 . S
H492 C468 0.950 . S
H493 C469 0.949 . S
H494 C471 0.950 . S
H495 C473 0.950 . S
C496 C497 1.349 1_655 S
C496 C498 1.327 . S
C496 H521 0.950 . S
C497 C496 1.349 1_455 S
C497 C513 1.349 . S
C498 C496 1.327 . S
C498 C517 1.429 . S
C498 H522 0.950 . S
C499 C516 1.574 . S
C499 C518 1.368 1_455 S
C499 H523 0.949 . S
H500 C504 0.949 . S
C501 C502 1.349 . S
C501 C503 1.327 . S
C501 H524 0.950 1_655 S
C502 C501 1.349 . S
C502 C514 1.349 . S
C503 C501 1.327 . S
C503 C519 1.429 . S
C503 H525 0.950 1_655 S
C504 H500 0.949 . S
C504 C512 1.574 . S
C504 C520 1.368 . S
H505 C513 0.950 . S
H506 C511 0.950 . S
H507 C512 0.949 . S
H508 C514 0.950 . S
H509 C515 0.950 . S
H510 C516 0.949 . S
C511 H506 0.950 . S
C511 C513 1.327 . S
C511 C517 1.429 1_455 S
C512 C504 1.574 . S
C512 H507 0.949 . S
C512 C518 1.368 . S
C513 C497 1.349 . S
C513 H505 0.950 . S
C513 C511 1.327 . S
C514 C502 1.349 . S
C514 H508 0.950 . S
C514 C515 1.327 . S
C515 H509 0.950 . S
C515 C514 1.327 . S
C515 C519 1.429 . S
C516 C499 1.574 . S
C516 H510 0.949 . S
C516 C520 1.368 1_455 S
C517 C498 1.429 . S
C517 C511 1.429 1_655 S
C517 C518 1.523 . S
C518 C499 1.368 1_655 S
C518 C512 1.368 . S
C518 C517 1.523 . S
C519 C503 1.429 . S
C519 C515 1.429 . S
C519 C520 1.523 . S
C520 C504 1.368 . S
C520 C516 1.368 1_655 S
C520 C519 1.523 . S
H521 C496 0.950 . S
H522 C498 0.950 . S
H523 C499 0.949 . S
H524 C501 0.950 1_455 S
H525 C503 0.950 1_455 S
C526 C527 1.349 . S
C526 C528 1.327 . S
C526 H551 0.950 . S
C527 C526 1.349 . S
C527 C543 1.349 1_545 S
C528 C526 1.327 . S
C528 C547 1.429 1_545 S
C528 H552 0.950 . S
C529 C546 1.574 . S
C529 C548 1.368 . S
C529 H553 0.949 . S
H530 C534 0.949 1_545 S
C531 C532 1.349 . S
C531 C533 1.327 . S
C531 H554 0.950 . S
C532 C531 1.349 . S
C532 C544 1.349 . S
C533 C531 1.327 . S
C533 C549 1.429 . S
C533 H555 0.950 . S
C534 H530 0.949 1_565 S
C534 C542 1.574 1_565 S
C534 C550 1.368 . S
H535 C543 0.950 . S
H536 C541 0.950 . S
H537 C542 0.949 . S
H538 C544 0.950 . S
H539 C545 0.957 . S
H540 C546 0.949 . S
C541 H536 0.950 . S
C541 C543 1.327 . S
C541 C547 1.429 . S
C542 C534 1.574 1_545 S
C542 H537 0.949 . S
C542 C548 1.368 1_545 S
C543 C527 1.349 1_565 S
C543 H535 0.950 . S
C543 C541 1.327 . S
C544 C532 1.349 . S
C544 H538 0.950 . S
C544 C545 1.327 . S
C545 H539 0.957 . S
C545 C544 1.327 . S
C545 C549 1.429 . S
C546 C529 1.574 . S
C546 H540 0.949 . S
C546 C550 1.368 . S
C547 C528 1.429 1_565 S
C547 C541 1.429 . S
C547 C548 1.523 . S
C548 C529 1.368 . S
C548 C542 1.368 1_565 S
C548 C547 1.523 . S
C549 C533 1.429 . S
C549 C545 1.429 . S
C549 C550 1.523 . S
C550 C534 1.368 . S
C550 C546 1.368 . S
C550 C549 1.523 . S
H551 C526 0.950 . S
H552 C528 0.950 . S
H553 C529 0.949 . S
H554 C531 0.950 . S
H555 C533 0.950 . S
C556 C557 1.349 . S
C556 C558 1.327 . S
C556 H581 0.950 . S
C557 C556 1.349 . S
C557 C573 1.349 . S
C558 C556 1.327 . S
C558 C577 1.429 . S
C558 H582 0.950 . S
C559 C576 1.574 . S
C559 C578 1.368 . S
C559 H583 0.949 . S
H560 C564 0.949 . S
C561 C562 1.349 . S
C561 C563 1.327 . S
C561 H584 0.950 . S
C562 C561 1.349 . S
C562 C574 1.349 . S
C563 C561 1.327 . S
C563 C579 1.429 . S
C563 H585 0.950 . S
C564 H560 0.949 . S
C564 C572 1.574 . S
C564 C580 1.368 . S
H565 C573 0.950 . S
H566 C571 0.950 . S
H567 C572 0.949 . S
H568 C574 0.950 . S
H569 C575 0.950 . S
H570 C576 0.949 . S
C571 H566 0.950 . S
C571 C573 1.327 . S
C571 C577 1.429 . S
C572 C564 1.574 . S
C572 H567 0.949 . S
C572 C578 1.368 . S
C573 C557 1.349 . S
C573 H565 0.950 . S
C573 C571 1.327 . S
C574 C562 1.349 . S
C574 H568 0.950 . S
C574 C575 1.327 . S
C575 H569 0.950 . S
C575 C574 1.327 . S
C575 C579 1.429 . S
C576 C559 1.574 . S
C576 H570 0.949 . S
C576 C580 1.368 . S
C577 C558 1.429 . S
C577 C571 1.429 . S
C577 C578 1.523 . S
C578 C559 1.368 . S
C578 C572 1.368 . S
C578 C577 1.523 . S
C579 C563 1.429 . S
C579 C575 1.429 . S
C579 C580 1.523 . S
C580 C564 1.368 . S
C580 C576 1.368 . S
C580 C579 1.523 . S
H581 C556 0.950 . S
H582 C558 0.950 . S
H583 C559 0.949 . S
H584 C561 0.950 . S
H585 C563 0.950 . S
C586 C587 1.349 . S
C586 C588 1.327 . S
C586 H611 0.950 . S
C587 C586 1.349 . S
C587 C603 1.349 . S
C588 C586 1.327 . S
C588 C607 1.429 . S
C588 H612 0.950 . S
C589 C606 1.574 . S
C589 C608 1.368 . S
C589 H613 0.949 . S
H590 C594 0.949 . S
C591 C592 1.349 . S
C591 C593 1.327 . S
C591 H614 0.950 . S
C592 C591 1.349 . S
C592 C604 1.349 . S
C593 C591 1.327 . S
C593 C609 1.429 . S
C593 H615 0.950 . S
C594 H590 0.949 . S
C594 C602 1.574 . S
C594 C610 1.368 . S
H595 C603 0.950 . S
H596 C601 0.950 . S
H597 C602 0.949 . S
H598 C604 0.950 . S
H599 C605 0.950 . S
H600 C606 0.949 . S
C601 H596 0.950 . S
C601 C603 1.327 . S
C601 C607 1.429 . S
C602 C594 1.574 . S
C602 H597 0.949 . S
C602 C608 1.368 . S
C603 C587 1.349 . S
C603 H595 0.950 . S
C603 C601 1.327 . S
C604 C592 1.349 . S
C604 H598 0.950 . S
C604 C605 1.327 . S
C605 H599 0.950 . S
C605 C604 1.327 . S
C605 C609 1.429 . S
C606 C589 1.574 . S
C606 H600 0.949 . S
C606 C610 1.368 . S
C607 C588 1.429 . S
C607 C601 1.429 . S
C607 C608 1.523 . S
C608 C589 1.368 . S
C608 C602 1.368 . S
C608 C607 1.523 . S
C609 C593 1.429 . S
C609 C605 1.429 . S
C609 C610 1.523 . S
C610 C594 1.368 . S
C610 C606 1.368 . S
C610 C609 1.523 . S
H611 C586 0.950 . S
H612 C588 0.950 . S
H613 C589 0.949 . S
H614 C591 0.950 . S
H615 C593 0.950 . S
C616 C617 1.349 . S
C616 C618 1.327 . S
C616 H641 0.950 . S
C617 C616 1.349 . S
C617 C633 1.349 1_655 S
C618 C616 1.327 . S
C618 C637 1.429 1_655 S
C618 H642 0.950 . S
C619 C636 1.574 . S
C619 C638 1.368 . S
C619 H643 0.949 . S
H620 C624 0.948 . S
C621 C622 1.349 1_554 S
C621 C623 1.327 . S
C621 H644 0.950 . S
C622 C621 1.349 1_556 S
C622 C634 1.349 . S
C623 C621 1.327 . S
C623 C639 1.429 . S
C623 H645 0.950 . S
C624 H620 0.948 . S
C624 C632 1.573 . S
C624 C640 1.370 1_655 S
H625 C633 0.950 . S
H626 C631 0.950 . S
H627 C632 0.949 . S
H628 C634 0.950 . S
H629 C635 0.950 1_655 S
H630 C636 0.949 . S
C631 H626 0.950 . S
C631 C633 1.327 . S
C631 C637 1.429 . S
C632 C624 1.573 . S
C632 H627 0.949 . S
C632 C638 1.368 1_655 S
C633 C617 1.349 1_455 S
C633 H625 0.950 . S
C633 C631 1.327 . S
C634 C622 1.349 . S
C634 H628 0.950 . S
C634 C635 1.327 . S
C635 H629 0.950 1_455 S
C635 C634 1.327 . S
C635 C639 1.429 1_556 S
C636 C619 1.574 . S
C636 H630 0.949 . S
C636 C640 1.368 . S
C637 C618 1.429 1_455 S
C637 C631 1.429 . S
C637 C638 1.523 . S
C638 C619 1.368 . S
C638 C632 1.368 1_455 S
C638 C637 1.523 . S
C639 C623 1.429 . S
C639 C635 1.429 1_554 S
C639 C640 1.523 . S
C640 C624 1.370 1_455 S
C640 C636 1.368 . S
C640 C639 1.523 . S
H641 C616 0.950 . S
H642 C618 0.950 . S
H643 C619 0.949 . S
H644 C621 0.950 . S
H645 C623 0.950 . S
C646 C647 1.384 . S
C646 C648 1.327 . S
C646 H671 0.950 . S
C647 C646 1.384 . S
C647 C663 1.307 1_565 S
C648 C646 1.327 . S
C648 C667 1.429 1_565 S
C648 H672 0.950 . S
C649 C666 1.574 . S
C649 C668 1.368 . S
C649 H673 0.949 . S
H650 C654 0.949 . S
C651 C652 1.349 . S
C651 C653 1.327 1_556 S
C651 H674 0.950 . S
C652 C651 1.349 . S
C652 C664 1.349 1_556 S
C653 C651 1.327 1_554 S
C653 C669 1.429 . S
C653 H675 0.950 . S
C654 H650 0.949 . S
C654 C662 1.574 . S
C654 C670 1.368 1_565 S
H655 C663 0.950 . S
H656 C661 0.950 . S
H657 C662 0.949 . S
H658 C664 0.929 1_565 S
H659 C665 0.950 1_565 S
H660 C666 0.949 . S
C661 H656 0.950 . S
C661 C663 1.327 . S
C661 C667 1.429 . S
C662 C654 1.574 . S
C662 H657 0.949 . S
C662 C668 1.368 1_565 S
C663 C647 1.307 1_545 S
C663 H655 0.950 . S
C663 C661 1.327 . S
C664 C652 1.349 1_554 S
C664 H658 0.929 1_545 S
C664 C665 1.327 . S
C665 H659 0.950 1_545 S
C665 C664 1.327 . S
C665 C669 1.429 . S
C666 C649 1.574 . S
C666 H660 0.949 . S
C666 C670 1.368 . S
C667 C648 1.429 1_545 S
C667 C661 1.429 . S
C667 C668 1.523 . S
C668 C649 1.368 . S
C668 C662 1.368 1_545 S
C668 C667 1.523 . S
C669 C653 1.429 . S
C669 C665 1.429 . S
C669 C670 1.523 . S
C670 C654 1.368 1_545 S
C670 C666 1.368 . S
C670 C669 1.523 . S
H671 C646 0.950 . S
H672 C648 0.950 . S
H673 C649 0.949 . S
H674 C651 0.950 . S
H675 C653 0.950 . S
C676 C677 1.349 . S
C676 C678 1.327 . S
C676 H701 0.950 . S
C677 C676 1.349 . S
C677 C693 1.349 . S
C678 C676 1.327 . S
C678 C697 1.429 . S
C678 H702 0.950 . S
C679 C696 1.574 . S
C679 C698 1.368 . S
C679 H703 0.949 . S
H680 C684 0.949 . S
C681 C682 1.349 . S
C681 C683 1.327 . S
C681 H704 0.950 . S
C682 C681 1.349 . S
C682 C694 1.349 1_556 S
C683 C681 1.327 . S
C683 C699 1.429 1_556 S
C683 H705 0.950 . S
C684 H680 0.949 . S
C684 C692 1.574 . S
C684 C700 1.368 . S
H685 C693 0.950 . S
H686 C691 0.950 . S
H687 C692 0.949 . S
H688 C694 0.950 . S
H689 C695 0.950 . S
H690 C696 0.949 . S
C691 H686 0.950 . S
C691 C693 1.327 . S
C691 C697 1.429 . S
C692 C684 1.574 . S
C692 H687 0.949 . S
C692 C698 1.368 . S
C693 C677 1.349 . S
C693 H685 0.950 . S
C693 C691 1.327 . S
C694 C682 1.349 1_554 S
C694 H688 0.950 . S
C694 C695 1.327 . S
C695 H689 0.950 . S
C695 C694 1.327 . S
C695 C699 1.429 . S
C696 C679 1.574 . S
C696 H690 0.949 . S
C696 C700 1.368 . S
C697 C678 1.429 . S
C697 C691 1.429 . S
C697 C698 1.523 . S
C698 C679 1.368 . S
C698 C692 1.368 . S
C698 C697 1.523 . S
C699 C683 1.429 1_554 S
C699 C695 1.429 . S
C699 C700 1.523 . S
C700 C684 1.368 . S
C700 C696 1.368 . S
C700 C699 1.523 . S
H701 C676 0.950 . S
H702 C678 0.950 . S
H703 C679 0.949 . S
H704 C681 0.950 . S
H705 C683 0.950 . S
C706 C707 1.349 . S
C706 C708 1.327 . S
C706 H731 0.950 . S
C707 C706 1.349 . S
C707 C723 1.349 . S
C708 C706 1.327 . S
C708 C727 1.429 . S
C708 H732 0.950 . S
C709 C726 1.574 . S
C709 C728 1.368 . S
C709 H733 0.949 . S
H710 C714 0.949 . S
C711 C712 1.349 . S
C711 C713 1.327 . S
C711 H734 0.950 . S
C712 C711 1.349 . S
C712 C724 1.349 1_556 S
C713 C711 1.327 . S
C713 C729 1.429 1_556 S
C713 H735 0.950 . S
C714 H710 0.949 . S
C714 C722 1.574 . S
C714 C730 1.368 . S
H715 C723 0.950 . S
H716 C721 0.950 . S
H717 C722 0.949 . S
H718 C724 0.950 . S
H719 C725 0.950 . S
H720 C726 0.949 . S
C721 H716 0.950 . S
C721 C723 1.327 . S
C721 C727 1.429 . S
C722 C714 1.574 . S
C722 H717 0.949 . S
C722 C728 1.368 . S
C723 C707 1.349 . S
C723 H715 0.950 . S
C723 C721 1.327 . S
C724 C712 1.349 1_554 S
C724 H718 0.950 . S
C724 C725 1.327 . S
C725 H719 0.950 . S
C725 C724 1.327 . S
C725 C729 1.429 . S
C726 C709 1.574 . S
C726 H720 0.949 . S
C726 C730 1.368 . S
C727 C708 1.429 . S
C727 C721 1.429 . S
C727 C728 1.523 . S
C728 C709 1.368 . S
C728 C722 1.368 . S
C728 C727 1.523 . S
C729 C713 1.429 1_554 S
C729 C725 1.429 . S
C729 C730 1.523 . S
C730 C714 1.368 . S
C730 C726 1.368 . S
C730 C729 1.523 . S
H731 C706 0.950 . S
H732 C708 0.950 . S
H733 C709 0.949 . S
H734 C711 0.950 . S
H735 C713 0.950 . S
C736 C737 1.324 1_655 S
C736 C738 1.327 . S
C736 H761 0.950 . S
C737 C736 1.324 1_455 S
C737 C753 1.378 . S
C738 C736 1.327 . S
C738 C757 1.429 1_655 S
C738 H762 0.950 . S
C739 C756 1.574 . S
C739 C758 1.368 . S
C739 H763 0.949 . S
H740 C744 0.949 . S
C741 C742 1.349 . S
C741 C743 1.327 . S
C741 H764 0.950 . S
C742 C741 1.349 . S
C742 C754 1.349 1_455 S
C743 C741 1.327 . S
C743 C759 1.429 . S
C743 H765 0.950 . S
C744 H740 0.949 . S
C744 C752 1.574 . S
C744 C760 1.368 1_655 S
H745 C753 0.950 . S
H746 C751 0.950 . S
H747 C752 0.949 . S
H748 C754 0.950 . S
H749 C755 0.950 . S
H750 C756 0.949 . S
C751 H746 0.950 . S
C751 C753 1.327 . S
C751 C757 1.429 . S
C752 C744 1.574 . S
C752 H747 0.949 . S
C752 C758 1.368 1_655 S
C753 C737 1.378 . S
C753 H745 0.950 . S
C753 C751 1.327 . S
C754 C742 1.349 1_655 S
C754 H748 0.950 . S
C754 C755 1.327 . S
C755 H749 0.950 . S
C755 C754 1.327 . S
C755 C759 1.429 1_655 S
C756 C739 1.574 . S
C756 H750 0.949 . S
C756 C760 1.368 . S
C757 C738 1.429 1_455 S
C757 C751 1.429 . S
C757 C758 1.523 . S
C758 C739 1.368 . S
C758 C752 1.368 1_455 S
C758 C757 1.523 . S
C759 C743 1.429 . S
C759 C755 1.429 1_455 S
C759 C760 1.523 . S
C760 C744 1.368 1_455 S
C760 C756 1.368 . S
C760 C759 1.523 . S
H761 C736 0.950 . S
H762 C738 0.950 . S
H763 C739 0.949 . S
H764 C741 0.950 . S
H765 C743 0.950 . S
C766 C767 1.323 1_565 S
C766 C768 1.327 . S
C766 H791 0.950 . S
C767 C766 1.323 1_545 S
C767 C783 1.379 . S
C768 C766 1.327 . S
C768 C787 1.429 1_565 S
C768 H792 0.950 . S
C769 C786 1.574 . S
C769 C788 1.368 . S
C769 H793 0.949 . S
H770 C774 0.949 . S
C771 C772 1.349 . S
C771 C773 1.327 . S
C771 H794 0.950 . S
C772 C771 1.349 . S
C772 C784 1.349 1_545 S
C773 C771 1.327 . S
C773 C789 1.429 . S
C773 H795 0.950 . S
C774 H770 0.949 . S
C774 C782 1.574 . S
C774 C790 1.368 1_565 S
H775 C783 0.950 . S
H776 C781 0.950 . S
H777 C782 0.949 . S
H778 C784 0.950 . S
H779 C785 0.950 . S
H780 C786 0.949 . S
C781 H776 0.950 . S
C781 C783 1.327 . S
C781 C787 1.429 . S
C782 C774 1.574 . S
C782 H777 0.949 . S
C782 C788 1.368 1_565 S
C783 C767 1.379 . S
C783 H775 0.950 . S
C783 C781 1.327 . S
C784 C772 1.349 1_565 S
C784 H778 0.950 . S
C784 C785 1.327 . S
C785 H779 0.950 . S
C785 C784 1.327 . S
C785 C789 1.429 1_565 S
C786 C769 1.574 . S
C786 H780 0.949 . S
C786 C790 1.368 . S
C787 C768 1.429 1_545 S
C787 C781 1.429 . S
C787 C788 1.523 . S
C788 C769 1.368 . S
C788 C782 1.368 1_545 S
C788 C787 1.523 . S
C789 C773 1.429 . S
C789 C785 1.429 1_545 S
C789 C790 1.523 . S
C790 C774 1.368 1_545 S
C790 C786 1.368 . S
C790 C789 1.523 . S
H791 C766 0.950 . S
H792 C768 0.950 . S
H793 C769 0.949 . S
H794 C771 0.950 . S
H795 C773 0.950 . S
C796 C797 1.349 . S
C796 C798 1.327 . S
C796 H821 0.950 . S
C797 C796 1.349 . S
C797 C813 1.349 . S
C798 C796 1.327 . S
C798 C817 1.429 . S
C798 H822 0.950 . S
C799 C816 1.574 . S
C799 C818 1.368 . S
C799 H823 0.949 . S
H800 C804 0.949 . S
C801 C802 1.349 . S
C801 C803 1.327 . S
C801 H824 0.950 . S
C802 C801 1.349 . S
C802 C814 1.349 . S
C803 C801 1.327 . S
C803 C819 1.429 . S
C803 H825 0.950 . S
C804 H800 0.949 . S
C804 C812 1.574 . S
C804 C820 1.368 . S
H805 C813 0.950 . S
H806 C811 0.950 . S
H807 C812 0.949 . S
H808 C814 0.950 . S
H809 C815 0.950 . S
H810 C816 0.949 . S
C811 H806 0.950 . S
C811 C813 1.327 . S
C811 C817 1.429 . S
C812 C804 1.574 . S
C812 H807 0.949 . S
C812 C818 1.368 . S
C813 C797 1.349 . S
C813 H805 0.950 . S
C813 C811 1.327 . S
C814 C802 1.349 . S
C814 H808 0.950 . S
C814 C815 1.327 . S
C815 H809 0.950 . S
C815 C814 1.327 . S
C815 C819 1.429 . S
C816 C799 1.574 . S
C816 H810 0.949 . S
C816 C820 1.368 . S
C817 C798 1.429 . S
C817 C811 1.429 . S
C817 C818 1.523 . S
C818 C799 1.368 . S
C818 C812 1.368 . S
C818 C817 1.523 . S
C819 C803 1.429 . S
C819 C815 1.429 . S
C819 C820 1.523 . S
C820 C804 1.368 . S
C820 C816 1.368 . S
C820 C819 1.523 . S
H821 C796 0.950 . S
H822 C798 0.950 . S
H823 C799 0.949 . S
H824 C801 0.950 . S
H825 C803 0.950 . S
C826 C827 1.349 . S
C826 C828 1.327 . S
C826 H851 0.950 . S
C827 C826 1.349 . S
C827 C843 1.349 . S
C828 C826 1.327 . S
C828 C847 1.429 . S
C828 H852 0.950 . S
C829 C846 1.574 . S
C829 C848 1.368 . S
C829 H853 0.949 . S
H830 C834 0.949 . S
C831 C832 1.349 . S
C831 C833 1.327 . S
C831 H854 0.950 . S
C832 C831 1.349 . S
C832 C844 1.349 . S
C833 C831 1.327 . S
C833 C849 1.429 . S
C833 H855 0.950 . S
C834 H830 0.949 . S
C834 C842 1.574 . S
C834 C850 1.368 . S
H835 C843 0.950 . S
H836 C841 0.950 . S
H837 C842 0.949 . S
H838 C844 0.950 . S
H839 C845 0.950 . S
H840 C846 0.949 . S
C841 H836 0.950 . S
C841 C843 1.327 . S
C841 C847 1.429 . S
C842 C834 1.574 . S
C842 H837 0.949 . S
C842 C848 1.368 . S
C843 C827 1.349 . S
C843 H835 0.950 . S
C843 C841 1.327 . S
C844 C832 1.349 . S
C844 H838 0.950 . S
C844 C845 1.327 . S
C845 H839 0.950 . S
C845 C844 1.327 . S
C845 C849 1.429 . S
C846 C829 1.574 . S
C846 H840 0.949 . S
C846 C850 1.368 . S
C847 C828 1.429 . S
C847 C841 1.429 . S
C847 C848 1.523 . S
C848 C829 1.368 . S
C848 C842 1.368 . S
C848 C847 1.523 . S
C849 C833 1.429 . S
C849 C845 1.429 . S
C849 C850 1.523 . S
C850 C834 1.368 . S
C850 C846 1.368 . S
C850 C849 1.523 . S
H851 C826 0.950 . S
H852 C828 0.950 . S
H853 C829 0.949 . S
H854 C831 0.950 . S
H855 C833 0.950 . S
C856 C857 1.362 . S
C856 C858 1.327 . S
C856 H881 0.950 . S
C857 C856 1.362 . S
C857 C873 1.340 1_655 S
C858 C856 1.327 . S
C858 C877 1.429 . S
C858 H882 0.950 . S
C859 C876 1.573 . S
C859 C878 1.358 1_455 S
C859 H883 0.963 . S
H860 C864 0.949 . S
C861 C862 1.349 . S
C861 C863 1.327 . S
C861 H884 0.950 1_655 S
C862 C861 1.349 . S
C862 C874 1.349 . S
C863 C861 1.327 . S
C863 C879 1.429 . S
C863 H885 0.950 1_655 S
C864 H860 0.949 . S
C864 C872 1.574 . S
C864 C880 1.368 . S
H865 C873 0.950 . S
H866 C871 0.950 . S
H867 C872 0.949 . S
H868 C874 0.950 . S
H869 C875 0.950 . S
H870 C876 0.948 . S
C871 H866 0.950 . S
C871 C873 1.327 . S
C871 C877 1.429 1_455 S
C872 C864 1.574 . S
C872 H867 0.949 . S
C872 C878 1.368 . S
C873 C857 1.340 1_455 S
C873 H865 0.950 . S
C873 C871 1.327 . S
C874 C862 1.349 . S
C874 H868 0.950 . S
C874 C875 1.327 . S
C875 H869 0.950 . S
C875 C874 1.327 . S
C875 C879 1.429 . S
C876 C859 1.573 . S
C876 H870 0.948 . S
C876 C880 1.369 1_455 S
C877 C858 1.429 . S
C877 C871 1.429 1_655 S
C877 C878 1.523 . S
C878 C859 1.358 1_655 S
C878 C872 1.368 . S
C878 C877 1.523 . S
C879 C863 1.429 . S
C879 C875 1.429 . S
C879 C880 1.523 . S
C880 C864 1.368 . S
C880 C876 1.369 1_655 S
C880 C879 1.523 . S
H881 C856 0.950 . S
H882 C858 0.950 . S
H883 C859 0.963 . S
H884 C861 0.950 1_455 S
H885 C863 0.950 1_455 S
C886 C887 1.319 1_545 S
C886 C888 1.327 . S
C886 H911 0.950 . S
C887 C886 1.319 1_565 S
C887 C903 1.381 . S
C888 C886 1.327 . S
C888 C907 1.429 1_545 S
C888 H912 0.950 . S
C889 C906 1.574 . S
C889 C908 1.368 . S
C889 H913 0.949 . S
H890 C894 0.949 . S
C891 C892 1.349 . S
C891 C893 1.327 . S
C891 H914 0.950 . S
C892 C891 1.349 . S
C892 C904 1.349 1_565 S
C893 C891 1.327 . S
C893 C909 1.429 . S
C893 H915 0.950 . S
C894 H890 0.949 . S
C894 C902 1.574 . S
C894 C910 1.368 1_545 S
H895 C903 0.950 . S
H896 C901 0.950 . S
H897 C902 0.949 . S
H898 C904 0.950 . S
H899 C905 0.950 . S
H900 C906 0.949 . S
C901 H896 0.950 . S
C901 C903 1.327 . S
C901 C907 1.429 . S
C902 C894 1.574 . S
C902 H897 0.949 . S
C902 C908 1.368 1_545 S
C903 C887 1.381 . S
C903 H895 0.950 . S
C903 C901 1.327 . S
C904 C892 1.349 1_545 S
C904 H898 0.950 . S
C904 C905 1.327 . S
C905 H899 0.950 . S
C905 C904 1.327 . S
C905 C909 1.429 1_545 S
C906 C889 1.574 . S
C906 H900 0.949 . S
C906 C910 1.368 . S
C907 C888 1.429 1_565 S
C907 C901 1.429 . S
C907 C908 1.523 . S
C908 C889 1.368 . S
C908 C902 1.368 1_565 S
C908 C907 1.523 . S
C909 C893 1.429 . S
C909 C905 1.429 1_565 S
C909 C910 1.523 . S
C910 C894 1.368 1_565 S
C910 C906 1.368 . S
C910 C909 1.523 . S
H911 C886 0.950 . S
H912 C888 0.950 . S
H913 C889 0.949 . S
H914 C891 0.950 . S
H915 C893 0.950 . S
C916 C917 1.349 . S
C916 C918 1.327 . S
C916 H941 0.950 . S
C917 C916 1.349 . S
C917 C933 1.349 . S
C918 C916 1.327 . S
C918 C937 1.429 . S
C918 H942 0.950 . S
C919 C936 1.574 . S
C919 C938 1.368 . S
C919 H943 0.949 . S
H920 C924 0.949 . S
C921 C922 1.349 . S
C921 C923 1.327 . S
C921 H944 0.950 . S
C922 C921 1.349 . S
C922 C934 1.349 . S
C923 C921 1.327 . S
C923 C939 1.429 . S
C923 H945 0.950 . S
C924 H920 0.949 . S
C924 C932 1.574 . S
C924 C940 1.368 . S
H925 C933 0.950 . S
H926 C931 0.950 . S
H927 C932 0.949 . S
H928 C934 0.950 . S
H929 C935 0.950 . S
H930 C936 0.949 . S
C931 H926 0.950 . S
C931 C933 1.327 . S
C931 C937 1.429 . S
C932 C924 1.574 . S
C932 H927 0.949 . S
C932 C938 1.368 . S
C933 C917 1.349 . S
C933 H925 0.950 . S
C933 C931 1.327 . S
C934 C922 1.349 . S
C934 H928 0.950 . S
C934 C935 1.327 . S
C935 H929 0.950 . S
C935 C934 1.327 . S
C935 C939 1.429 . S
C936 C919 1.574 . S
C936 H930 0.949 . S
C936 C940 1.368 . S
C937 C918 1.429 . S
C937 C931 1.429 . S
C937 C938 1.523 . S
C938 C919 1.368 . S
C938 C932 1.368 . S
C938 C937 1.523 . S
C939 C923 1.429 . S
C939 C935 1.429 . S
C939 C940 1.523 . S
C940 C924 1.368 . S
C940 C936 1.368 . S
C940 C939 1.523 . S
H941 C916 0.950 . S
H942 C918 0.950 . S
H943 C919 0.949 . S
H944 C921 0.950 . S
H945 C923 0.950 . S
C946 C947 1.349 . S
C946 C948 1.327 . S
C946 H971 0.950 . S
C947 C946 1.349 . S
C947 C963 1.349 . S
C948 C946 1.327 . S
C948 C967 1.429 . S
C948 H972 0.950 . S
C949 C966 1.574 . S
C949 C968 1.368 . S
C949 H973 0.949 . S
H950 C954 0.949 . S
C951 C952 1.349 . S
C951 C953 1.327 . S
C951 H974 0.950 . S
C952 C951 1.349 . S
C952 C964 1.349 . S
C953 C951 1.327 . S
C953 C969 1.429 . S
C953 H975 0.950 . S
C954 H950 0.949 . S
C954 C962 1.574 . S
C954 C970 1.368 . S
H955 C963 0.950 . S
H956 C961 0.950 . S
H957 C962 0.949 . S
H958 C964 0.950 . S
H959 C965 0.950 . S
H960 C966 0.949 . S
C961 H956 0.950 . S
C961 C963 1.327 . S
C961 C967 1.429 . S
C962 C954 1.574 . S
C962 H957 0.949 . S
C962 C968 1.368 . S
C963 C947 1.349 . S
C963 H955 0.950 . S
C963 C961 1.327 . S
C964 C952 1.349 . S
C964 H958 0.950 . S
C964 C965 1.327 . S
C965 H959 0.950 . S
C965 C964 1.327 . S
C965 C969 1.429 . S
C966 C949 1.574 . S
C966 H960 0.949 . S
C966 C970 1.368 . S
C967 C948 1.429 . S
C967 C961 1.429 . S
C967 C968 1.523 . S
C968 C949 1.368 . S
C968 C962 1.368 . S
C968 C967 1.523 . S
C969 C953 1.429 . S
C969 C965 1.429 . S
C969 C970 1.523 . S
C970 C954 1.368 . S
C970 C966 1.368 . S
C970 C969 1.523 . S
H971 C946 0.950 . S
H972 C948 0.950 . S
H973 C949 0.949 . S
H974 C951 0.950 . S
H975 C953 0.950 . S
C257 C76 1.729 1_545 S
C262 C105 1.824 1_545 S
C292 C145 1.838 . S
C287 C88 1.732 . S
C322 C185 1.842 . S
C317 C52 1.742 . S
C352 C225 1.832 1_455 S
C347 C64 1.734 1_455 S
C382 C114 1.830 1_565 S
C377 C28 1.735 1_545 S
C407 C40 1.735 . S
C412 C154 1.841 . S
C437 C4 1.740 . S
C442 C194 1.841 . S
C467 C16 1.734 . S
C472 C234 1.833 1_655 S
C502 C111 0.312 . S
C497 C69 0.371 . S
C532 C151 0.320 . S
C527 C81 0.378 . S
C562 C191 0.327 . S
C557 C93 0.379 . S
C587 C57 0.372 . S
C592 C231 0.314 . S
C617 C21 0.374 1_655 S
C622 C102 0.310 . S
C652 C142 0.320 . S
C647 C33 0.372 1_565 S
C682 C182 0.328 . S
C677 C45 0.389 . S
C707 C9 0.382 . S
C712 C222 0.323 . S
C737 C66 1.914 . S
C742 C115 2.092 . S
C767 C78 1.894 . S
C772 C155 2.078 . S
C802 C195 2.066 . S
C797 C90 1.881 . S
C832 C235 2.086 . S
C827 C54 1.895 . S
C857 C18 1.914 1_655 S
C862 C106 2.107 . S
C892 C146 2.078 . S
C887 C30 1.894 1_565 S
C922 C186 2.065 . S
C917 C42 1.885 . S
C947 C6 1.906 . S
C952 C226 2.093 . S
