# Generated by pormake.
# Topology ssb, (4,4)-cn, num edge types: 1
# Building blocks:
#     Node 0, Type 0, BuildingBlock: MUDLON_clean_linker_0, # of connection points: 4
#     Node 1, Type 0, BuildingBlock: MUDLON_clean_linker_0, # of connection points: 4
#     Node 2, Type 0, BuildingBlock: MUDLON_clean_linker_0, # of connection points: 4
#     Node 3, Type 0, BuildingBlock: MUDLON_clean_linker_0, # of connection points: 4
#     Node 4, Type 0, BuildingBlock: MUDLON_clean_linker_0, # of connection points: 4
#     Node 5, Type 0, BuildingBlock: MUDLON_clean_linker_0, # of connection points: 4
#     Node 6, Type 0, BuildingBlock: MUDLON_clean_linker_0, # of connection points: 4
#     Node 7, Type 0, BuildingBlock: MUDLON_clean_linker_0, # of connection points: 4
#     Node 8, Type 1, BuildingBlock: NAWXER_clean_sbu_0, # of connection points: 4
#     Node 9, Type 1, BuildingBlock: NAWXER_clean_sbu_0, # of connection points: 4
#     Node 10, Type 1, BuildingBlock: NAWXER_clean_sbu_0, # of connection points: 4
#     Node 11, Type 1, BuildingBlock: NAWXER_clean_sbu_0, # of connection points: 4
#     Node 12, Type 1, BuildingBlock: NAWXER_clean_sbu_0, # of connection points: 4
#     Node 13, Type 1, BuildingBlock: NAWXER_clean_sbu_0, # of connection points: 4
#     Node 14, Type 1, BuildingBlock: NAWXER_clean_sbu_0, # of connection points: 4
#     Node 15, Type 1, BuildingBlock: NAWXER_clean_sbu_0, # of connection points: 4
#     Edge 16, Type (0, 1), None
#     Edge 17, Type (0, 1), None
#     Edge 18, Type (0, 1), None
#     Edge 19, Type (0, 1), None
#     Edge 20, Type (0, 1), None
#     Edge 21, Type (0, 1), None
#     Edge 22, Type (0, 1), None
#     Edge 23, Type (0, 1), None
#     Edge 24, Type (0, 1), None
#     Edge 25, Type (0, 1), None
#     Edge 26, Type (0, 1), None
#     Edge 27, Type (0, 1), None
#     Edge 28, Type (0, 1), None
#     Edge 29, Type (0, 1), None
#     Edge 30, Type (0, 1), None
#     Edge 31, Type (0, 1), None
#     Edge 32, Type (0, 1), None
#     Edge 33, Type (0, 1), None
#     Edge 34, Type (0, 1), None
#     Edge 35, Type (0, 1), None
#     Edge 36, Type (0, 1), None
#     Edge 37, Type (0, 1), None
#     Edge 38, Type (0, 1), None
#     Edge 39, Type (0, 1), None
#     Edge 40, Type (0, 1), None
#     Edge 41, Type (0, 1), None
#     Edge 42, Type (0, 1), None
#     Edge 43, Type (0, 1), None
#     Edge 44, Type (0, 1), None
#     Edge 45, Type (0, 1), None
#     Edge 46, Type (0, 1), None
#     Edge 47, Type (0, 1), None
# Relax obj value: 0.006
# Max RMSD: 0.064
# Mean RMSD: 0.036
data_MOF--net-ssb--node1-NAWXER_clean_sbu_0--node2-MUDLON_clean_linker_0--edge1-none
_symmetry_space_group_name_H-M    P1
_symmetry_Int_Tables_number       1
_symmetry_cell_setting            triclinic
loop_
_symmetry_equiv_pos_as_xyz
'x, y, z'
_cell_length_a     35.321507
_cell_length_b     35.334292
_cell_length_c     31.445944
_cell_angle_alpha  89.526101
_cell_angle_beta   90.101193
_cell_angle_gamma 90.063289
loop_
_atom_site_label
_atom_site_type_symbol
_atom_site_fract_x
_atom_site_fract_y
_atom_site_fract_z
_atom_type_partial_charge
H0 H 0.27212 0.35312 0.06687 0.0
N1 N 0.32288 0.34281 0.1284 0.0
H2 H 0.24757 0.4139 0.04065 0.0
H3 H 0.32798 0.41041 0.16994 0.0
H4 H 0.30537 0.47112 0.14252 0.0
H5 H 0.38465 0.38754 0.1466 0.0
H6 H 0.44714 0.3838 0.11313 0.0
H7 H 0.34789 0.29001 0.07611 0.0
H8 H 0.41087 0.28482 0.04447 0.0
H9 H 0.2817 0.2801 0.12797 0.0
H10 H 0.33936 0.35713 0.21132 0.0
H11 H 0.25674 0.24534 0.18931 0.0
H12 H 0.31234 0.32475 0.27301 0.0
H13 H 0.13376 0.20764 0.35542 0.0
H14 H 0.07372 0.22877 0.38454 0.0
H15 H 0.13225 0.312 0.45979 0.0
H16 H 0.1929 0.28994 0.43121 0.0
H17 H 0.23719 0.21145 0.45765 0.0
H18 H 0.2411 0.1494 0.49283 0.0
H19 H 0.18089 0.09888 0.38813 0.0
H20 H 0.17908 0.16095 0.35168 0.0
H21 H 0.17748 0.22717 0.30273 0.0
H22 H 0.21028 0.25174 0.2405 0.0
H23 H 0.30993 0.27202 0.31736 0.0
N24 N 0.20367 0.22834 0.38465 0.0
H25 H 0.27549 0.24979 0.38014 0.0
C26 C 0.30287 0.37739 0.11933 0.0
C27 C 0.2781 0.37864 0.08452 0.0
C28 C 0.26361 0.41322 0.07006 0.0
C29 C 0.2744 0.44701 0.08988 0.0
C30 C 0.29623 0.44533 0.12716 0.0
C31 C 0.30986 0.41064 0.14226 0.0
C32 C 0.36121 0.33928 0.11325 0.0
C33 C 0.38991 0.36521 0.12417 0.0
C34 C 0.42575 0.36304 0.10514 0.0
C35 C 0.43385 0.33407 0.07625 0.0
C36 C 0.40557 0.30732 0.06689 0.0
C37 C 0.3696 0.31018 0.08489 0.0
C38 C 0.31167 0.32141 0.16523 0.0
C39 C 0.28886 0.28944 0.15971 0.0
C40 C 0.27433 0.26992 0.19484 0.0
C41 C 0.28183 0.28249 0.23638 0.0
C42 C 0.30606 0.31389 0.24169 0.0
C43 C 0.32118 0.33292 0.20641 0.0
C44 C 0.16796 0.24667 0.39205 0.0
C45 C 0.13385 0.23122 0.37703 0.0
C46 C 0.09939 0.24364 0.39328 0.0
C47 C 0.0985 0.27202 0.42421 0.0
C48 C 0.13219 0.29054 0.43536 0.0
C49 C 0.1668 0.2777 0.4195 0.0
C50 C 0.20771 0.19086 0.40237 0.0
C51 C 0.22526 0.18694 0.44207 0.0
C52 C 0.22715 0.15167 0.46218 0.0
C53 C 0.21065 0.11974 0.44338 0.0
C54 C 0.19309 0.12337 0.40349 0.0
C55 C 0.19215 0.1587 0.38271 0.0
C56 C 0.22387 0.23745 0.34628 0.0
C57 C 0.20634 0.23682 0.30622 0.0
C58 C 0.22546 0.25059 0.2704 0.0
C59 C 0.26282 0.26442 0.27372 0.0
C60 C 0.28093 0.26268 0.31359 0.0
C61 C 0.2615 0.24959 0.34946 0.0
H62 H 0.65847 0.37914 0.14218 0.0
N63 N 0.70989 0.32091 0.1309 0.0
H64 H 0.66143 0.44198 0.10947 0.0
H65 H 0.76662 0.35117 0.08731 0.0
H66 H 0.77062 0.41471 0.05637 0.0
H67 H 0.69964 0.27371 0.06668 0.0
H68 H 0.63901 0.24956 0.04037 0.0
H69 H 0.64327 0.3218 0.17486 0.0
H70 H 0.58202 0.30063 0.14661 0.0
H71 H 0.70675 0.35756 0.20712 0.0
H72 H 0.75301 0.26082 0.14318 0.0
H73 H 0.73724 0.33729 0.27339 0.0
H74 H 0.78128 0.23865 0.20942 0.0
H75 H 0.8506 0.16106 0.44904 0.0
H76 H 0.91482 0.16225 0.47491 0.0
H77 H 0.931 0.27259 0.4181 0.0
H78 H 0.86664 0.27158 0.39109 0.0
H79 H 0.82866 0.15403 0.35514 0.0
H80 H 0.80824 0.08977 0.37314 0.0
H81 H 0.73266 0.13424 0.46798 0.0
H82 H 0.75437 0.19839 0.45113 0.0
H83 H 0.75546 0.26375 0.39304 0.0
H84 H 0.73223 0.29265 0.32737 0.0
H85 H 0.82786 0.24589 0.25985 0.0
N86 N 0.81324 0.21664 0.40245 0.0
H87 H 0.84906 0.21494 0.32521 0.0
C88 C 0.7122 0.35982 0.11649 0.0
C89 C 0.68298 0.38631 0.12335 0.0
C90 C 0.68467 0.42249 0.10476 0.0
C91 C 0.71613 0.43326 0.0803 0.0
C92 C 0.74602 0.40737 0.07526 0.0
C93 C 0.74386 0.37103 0.09287 0.0
C94 C 0.67551 0.30082 0.1215 0.0
C95 C 0.67425 0.27814 0.08525 0.0
C96 C 0.63977 0.26389 0.0707 0.0
C97 C 0.60606 0.27325 0.09161 0.0
C98 C 0.60779 0.29267 0.13033 0.0
C99 C 0.64256 0.30554 0.14585 0.0
C100 C 0.72814 0.31079 0.17022 0.0
C101 C 0.72358 0.33199 0.20741 0.0
C102 C 0.74077 0.32006 0.24538 0.0
C103 C 0.76198 0.28625 0.24705 0.0
C104 C 0.76619 0.26529 0.20949 0.0
C105 C 0.74971 0.27764 0.17157 0.0
C106 C 0.85324 0.21524 0.41484 0.0
C107 C 0.86793 0.18501 0.43987 0.0
C108 C 0.9051 0.18559 0.4552 0.0
C109 C 0.92843 0.21702 0.44774 0.0
C110 C 0.91403 0.24748 0.42362 0.0
C111 C 0.87698 0.24678 0.40786 0.0
C112 C 0.79385 0.18069 0.40301 0.0
C113 C 0.80643 0.15011 0.37839 0.0
C114 C 0.79441 0.11345 0.3883 0.0
C115 C 0.76895 0.10723 0.42188 0.0
C116 C 0.75191 0.13837 0.44155 0.0
C117 C 0.76471 0.17494 0.43248 0.0
C118 C 0.80395 0.23745 0.36414 0.0
C119 C 0.77154 0.26023 0.36405 0.0
C120 C 0.75848 0.27692 0.32642 0.0
C121 C 0.77796 0.2716 0.28793 0.0
C122 C 0.81151 0.24998 0.28852 0.0
C123 C 0.82402 0.23255 0.32603 0.0
H124 H 0.85652 0.76268 0.4424 0.0
N125 N 0.84193 0.82448 0.39625 0.0
H126 H 0.91935 0.73914 0.46228 0.0
H127 H 0.90783 0.84188 0.35482 0.0
H128 H 0.97033 0.81879 0.37484 0.0
H129 H 0.89223 0.86013 0.44903 0.0
H130 H 0.89031 0.92476 0.47344 0.0
H131 H 0.7924 0.88074 0.37195 0.0
H132 H 0.78998 0.94497 0.39849 0.0
H133 H 0.77841 0.78441 0.39826 0.0
H134 H 0.85523 0.84061 0.31229 0.0
H135 H 0.74217 0.76038 0.33795 0.0
H136 H 0.82162 0.81428 0.25191 0.0
H137 H 0.70713 0.63734 0.1748 0.0
H138 H 0.73065 0.5784 0.14567 0.0
H139 H 0.80355 0.64093 0.06052 0.0
H140 H 0.77932 0.7005 0.08955 0.0
H141 H 0.7026 0.75321 0.07881 0.0
H142 H 0.64018 0.76054 0.04571 0.0
H143 H 0.59334 0.68012 0.13536 0.0
H144 H 0.65551 0.67501 0.17034 0.0
H145 H 0.71982 0.68234 0.22523 0.0
H146 H 0.74586 0.71428 0.28679 0.0
H147 H 0.76907 0.81306 0.20867 0.0
N148 N 0.72155 0.70819 0.14316 0.0
H149 H 0.7458 0.77917 0.14649 0.0
C150 C 0.87756 0.80451 0.39802 0.0
C151 C 0.88119 0.77367 0.42601 0.0
C152 C 0.91703 0.75984 0.43678 0.0
C153 C 0.94953 0.77726 0.42004 0.0
C154 C 0.9456 0.80462 0.38771 0.0
C155 C 0.9098 0.81803 0.37648 0.0
C156 C 0.84371 0.86482 0.4062 0.0
C157 C 0.87078 0.87854 0.4356 0.0
C158 C 0.86973 0.91584 0.44996 0.0
C159 C 0.84049 0.94016 0.43721 0.0
C160 C 0.81334 0.927 0.40817 0.0
C161 C 0.81488 0.88995 0.39287 0.0
C162 C 0.81981 0.81356 0.3598 0.0
C163 C 0.78745 0.7914 0.36625 0.0
C164 C 0.76707 0.77739 0.33168 0.0
C165 C 0.77917 0.78472 0.28976 0.0
C166 C 0.81102 0.8082 0.2835 0.0
C167 C 0.83084 0.82285 0.31813 0.0
C168 C 0.74085 0.67345 0.13354 0.0
C169 C 0.72901 0.63869 0.15093 0.0
C170 C 0.74298 0.60485 0.13475 0.0
C171 C 0.76916 0.6052 0.10123 0.0
C172 C 0.78407 0.6399 0.08709 0.0
C173 C 0.76979 0.67387 0.10308 0.0
C174 C 0.68389 0.7132 0.12645 0.0
C175 C 0.67876 0.73763 0.0917 0.0
C176 C 0.64316 0.74173 0.07291 0.0
C177 C 0.61209 0.72066 0.0879 0.0
C178 C 0.61699 0.69633 0.12301 0.0
C179 C 0.65254 0.69323 0.14278 0.0
C180 C 0.73185 0.7281 0.18106 0.0
C181 C 0.73064 0.71074 0.22129 0.0
C182 C 0.74516 0.72944 0.25676 0.0
C183 C 0.76019 0.76629 0.2529 0.0
C184 C 0.75891 0.78436 0.21285 0.0
C185 C 0.74522 0.76526 0.17731 0.0
H186 H 0.34817 0.7846 0.05816 0.0
N187 N 0.33412 0.73659 0.12175 0.0
H188 H 0.40998 0.81019 0.03731 0.0
H189 H 0.39858 0.7357 0.17079 0.0
H190 H 0.46022 0.75983 0.14921 0.0
H191 H 0.38506 0.67841 0.13613 0.0
H192 H 0.38206 0.61493 0.10584 0.0
H193 H 0.27883 0.70664 0.07603 0.0
H194 H 0.27479 0.64269 0.04741 0.0
H195 H 0.27367 0.78073 0.12309 0.0
H196 H 0.34579 0.71302 0.20361 0.0
H197 H 0.23984 0.80367 0.18531 0.0
H198 H 0.31525 0.73866 0.26643 0.0
H199 H 0.21168 0.92135 0.35086 0.0
H200 H 0.23519 0.98052 0.37886 0.0
H201 H 0.31081 0.91951 0.46246 0.0
H202 H 0.28747 0.85949 0.43349 0.0
H203 H 0.2104 0.81056 0.45101 0.0
H204 H 0.14834 0.8043 0.48508 0.0
H205 H 0.09929 0.8774 0.38931 0.0
H206 H 0.16117 0.88151 0.35353 0.0
H207 H 0.22615 0.87866 0.30073 0.0
H208 H 0.24798 0.84666 0.23786 0.0
H209 H 0.26533 0.74434 0.31209 0.0
N210 N 0.22793 0.85073 0.38239 0.0
H211 H 0.2466 0.7783 0.37601 0.0
C212 C 0.36891 0.75716 0.11509 0.0
C213 C 0.37224 0.78048 0.07906 0.0
C214 C 0.40735 0.79581 0.06774 0.0
C215 C 0.43971 0.78729 0.09198 0.0
C216 C 0.43554 0.76743 0.1305 0.0
C217 C 0.40031 0.75281 0.14227 0.0
C218 C 0.3323 0.69779 0.10773 0.0
C219 C 0.36096 0.67112 0.11671 0.0
C220 C 0.3592 0.63461 0.09952 0.0
C221 C 0.32817 0.62374 0.07441 0.0
C222 C 0.29893 0.65 0.06701 0.0
C223 C 0.30119 0.68661 0.08319 0.0
C224 C 0.3128 0.74623 0.15891 0.0
C225 C 0.28225 0.77105 0.15442 0.0
C226 C 0.26332 0.78446 0.19014 0.0
C227 C 0.27531 0.77402 0.23134 0.0
C228 C 0.3049 0.74744 0.23549 0.0
C229 C 0.32305 0.7332 0.19955 0.0
C230 C 0.24743 0.88574 0.39059 0.0
C231 C 0.23453 0.9203 0.37364 0.0
C232 C 0.24842 0.95437 0.3893 0.0
C233 C 0.27494 0.95453 0.42257 0.0
C234 C 0.29101 0.92017 0.43611 0.0
C235 C 0.2772 0.88592 0.42018 0.0
C236 C 0.19057 0.8468 0.4002 0.0
C237 C 0.18622 0.82493 0.43715 0.0
C238 C 0.15089 0.82152 0.45657 0.0
C239 C 0.11932 0.84075 0.43999 0.0
C240 C 0.12344 0.86282 0.40296 0.0
C241 C 0.15877 0.86526 0.38266 0.0
C242 C 0.23581 0.83117 0.34349 0.0
C243 C 0.23482 0.84951 0.30377 0.0
C244 C 0.24686 0.83072 0.26735 0.0
C245 C 0.25896 0.79273 0.26953 0.0
C246 C 0.25741 0.77381 0.30908 0.0
C247 C 0.24631 0.79301 0.34565 0.0
H248 H 0.15846 0.87917 0.64221 0.0
N249 N 0.20987 0.82094 0.63092 0.0
H250 H 0.16143 0.942 0.6095 0.0
H251 H 0.2666 0.85118 0.58733 0.0
H252 H 0.2706 0.91472 0.55638 0.0
H253 H 0.19964 0.77372 0.56671 0.0
H254 H 0.13902 0.74957 0.54038 0.0
H255 H 0.14323 0.82182 0.67486 0.0
H256 H 0.082 0.80066 0.64658 0.0
H257 H 0.20673 0.85758 0.70714 0.0
H258 H 0.25299 0.76084 0.6432 0.0
H259 H 0.23721 0.8373 0.77341 0.0
H260 H 0.28126 0.73867 0.70944 0.0
H261 H 0.35058 0.66107 0.94906 0.0
H262 H 0.41481 0.66226 0.97492 0.0
H263 H 0.43099 0.7726 0.91811 0.0
H264 H 0.36663 0.77158 0.8911 0.0
H265 H 0.32864 0.65405 0.85515 0.0
H266 H 0.30823 0.58978 0.87314 0.0
H267 H 0.23265 0.63424 0.96799 0.0
H268 H 0.25435 0.69839 0.95114 0.0
H269 H 0.25544 0.76376 0.89306 0.0
H270 H 0.23221 0.79267 0.8274 0.0
H271 H 0.32784 0.74591 0.75987 0.0
N272 N 0.31322 0.71665 0.90246 0.0
H273 H 0.34904 0.71496 0.82522 0.0
C274 C 0.21219 0.85985 0.61651 0.0
C275 C 0.18297 0.88634 0.62338 0.0
C276 C 0.18466 0.92251 0.60478 0.0
C277 C 0.21612 0.93328 0.58032 0.0
C278 C 0.246 0.90738 0.57528 0.0
C279 C 0.24384 0.87104 0.59288 0.0
C280 C 0.17549 0.80084 0.62151 0.0
C281 C 0.17425 0.77816 0.58527 0.0
C282 C 0.13977 0.7639 0.57071 0.0
C283 C 0.10605 0.77327 0.5916 0.0
C284 C 0.10777 0.79269 0.63032 0.0
C285 C 0.14254 0.80557 0.64585 0.0
C286 C 0.22811 0.81081 0.67025 0.0
C287 C 0.22356 0.832 0.70743 0.0
C288 C 0.24074 0.82008 0.7454 0.0
C289 C 0.26195 0.78627 0.74707 0.0
C290 C 0.26617 0.7653 0.70951 0.0
C291 C 0.24969 0.77766 0.67159 0.0
C292 C 0.35323 0.71525 0.91485 0.0
C293 C 0.36791 0.68502 0.93989 0.0
C294 C 0.40509 0.6856 0.95521 0.0
C295 C 0.42842 0.71703 0.94774 0.0
C296 C 0.41402 0.74748 0.92363 0.0
C297 C 0.37696 0.74679 0.90787 0.0
C298 C 0.29383 0.6807 0.90303 0.0
C299 C 0.30641 0.65013 0.8784 0.0
C300 C 0.2944 0.61346 0.88831 0.0
C301 C 0.26894 0.60723 0.92189 0.0
C302 C 0.2519 0.63838 0.94156 0.0
C303 C 0.26469 0.67495 0.93249 0.0
C304 C 0.30393 0.73746 0.86416 0.0
C305 C 0.27152 0.76024 0.86407 0.0
C306 C 0.25846 0.77694 0.82644 0.0
C307 C 0.27794 0.77161 0.78795 0.0
C308 C 0.31149 0.75 0.78854 0.0
C309 C 0.324 0.73256 0.82605 0.0
H310 H 0.35653 0.26269 0.94237 0.0
N311 N 0.34195 0.32451 0.89624 0.0
H312 H 0.41935 0.23915 0.96226 0.0
H313 H 0.40785 0.34192 0.85483 0.0
H314 H 0.47035 0.31882 0.87487 0.0
H315 H 0.39223 0.36014 0.94904 0.0
H316 H 0.3903 0.42478 0.97345 0.0
H317 H 0.29242 0.38077 0.87192 0.0
H318 H 0.29 0.445 0.89846 0.0
H319 H 0.27841 0.28446 0.89824 0.0
H320 H 0.35527 0.34061 0.81228 0.0
H321 H 0.24217 0.26043 0.83793 0.0
H322 H 0.32165 0.31428 0.75189 0.0
H323 H 0.20717 0.13735 0.67481 0.0
H324 H 0.23069 0.07841 0.64569 0.0
H325 H 0.30355 0.14094 0.56049 0.0
H326 H 0.27932 0.20051 0.58953 0.0
H327 H 0.2026 0.25323 0.57881 0.0
H328 H 0.14019 0.26056 0.54572 0.0
H329 H 0.09336 0.18011 0.63534 0.0
H330 H 0.15553 0.175 0.67033 0.0
H331 H 0.21981 0.18237 0.72523 0.0
H332 H 0.24586 0.21431 0.78679 0.0
H333 H 0.26912 0.31306 0.70864 0.0
N334 N 0.22156 0.2082 0.64315 0.0
H335 H 0.24584 0.27917 0.64647 0.0
C336 C 0.37758 0.30453 0.89801 0.0
C337 C 0.3812 0.27368 0.92599 0.0
C338 C 0.41703 0.25985 0.93677 0.0
C339 C 0.44955 0.27728 0.92005 0.0
C340 C 0.44562 0.30465 0.88773 0.0
C341 C 0.40982 0.31806 0.87648 0.0
C342 C 0.34373 0.36485 0.90619 0.0
C343 C 0.37078 0.37856 0.93561 0.0
C344 C 0.36973 0.41586 0.94997 0.0
C345 C 0.3405 0.44017 0.93721 0.0
C346 C 0.31336 0.42702 0.90816 0.0
C347 C 0.3149 0.38997 0.89285 0.0
C348 C 0.31983 0.31358 0.85979 0.0
C349 C 0.28746 0.29144 0.86623 0.0
C350 C 0.26708 0.27743 0.83166 0.0
C351 C 0.27919 0.28474 0.78974 0.0
C352 C 0.31105 0.30821 0.78348 0.0
C353 C 0.33087 0.32286 0.81811 0.0
C354 C 0.24086 0.17346 0.63354 0.0
C355 C 0.22903 0.1387 0.65093 0.0
C356 C 0.243 0.10486 0.63476 0.0
C357 C 0.26917 0.10521 0.60123 0.0
C358 C 0.28408 0.13991 0.58707 0.0
C359 C 0.2698 0.17388 0.60306 0.0
C360 C 0.1839 0.2132 0.62645 0.0
C361 C 0.17876 0.23765 0.5917 0.0
C362 C 0.14316 0.24174 0.57291 0.0
C363 C 0.1121 0.22067 0.5879 0.0
C364 C 0.11701 0.19632 0.623 0.0
C365 C 0.15256 0.19322 0.64277 0.0
C366 C 0.23186 0.22812 0.68105 0.0
C367 C 0.23064 0.21076 0.72129 0.0
C368 C 0.24516 0.22946 0.75675 0.0
C369 C 0.26021 0.26631 0.75289 0.0
C370 C 0.25894 0.28437 0.71283 0.0
C371 C 0.24526 0.26527 0.67729 0.0
H372 H 0.84816 0.28458 0.55819 0.0
N373 N 0.83413 0.23656 0.62178 0.0
H374 H 0.90997 0.31018 0.53733 0.0
H375 H 0.89859 0.23566 0.6708 0.0
H376 H 0.96023 0.2598 0.64922 0.0
H377 H 0.88506 0.17837 0.63616 0.0
H378 H 0.88205 0.1149 0.60585 0.0
H379 H 0.77884 0.20662 0.57604 0.0
H380 H 0.77479 0.14267 0.54741 0.0
H381 H 0.77366 0.28069 0.62311 0.0
H382 H 0.8458 0.213 0.70363 0.0
H383 H 0.73983 0.30363 0.68533 0.0
H384 H 0.81527 0.23865 0.76645 0.0
H385 H 0.71171 0.42135 0.85085 0.0
H386 H 0.73523 0.48052 0.87885 0.0
H387 H 0.81082 0.4195 0.96249 0.0
H388 H 0.78748 0.35948 0.93352 0.0
H389 H 0.71042 0.31054 0.95101 0.0
H390 H 0.64836 0.30428 0.98509 0.0
H391 H 0.59931 0.37742 0.88937 0.0
H392 H 0.66119 0.38153 0.85357 0.0
H393 H 0.72614 0.37863 0.80074 0.0
H394 H 0.74797 0.34663 0.73787 0.0
H395 H 0.76535 0.24433 0.81212 0.0
N396 N 0.72794 0.35072 0.88241 0.0
H397 H 0.74663 0.2783 0.87604 0.0
C398 C 0.86891 0.25713 0.61511 0.0
C399 C 0.87224 0.28046 0.57909 0.0
C400 C 0.90735 0.29579 0.56776 0.0
C401 C 0.93971 0.28727 0.59199 0.0
C402 C 0.93554 0.2674 0.63051 0.0
C403 C 0.90031 0.25278 0.64229 0.0
C404 C 0.8323 0.19776 0.60775 0.0
C405 C 0.86096 0.17109 0.61673 0.0
C406 C 0.85919 0.13458 0.59954 0.0
C407 C 0.82817 0.12372 0.57442 0.0
C408 C 0.79893 0.14998 0.56702 0.0
C409 C 0.80119 0.18659 0.58321 0.0
C410 C 0.81281 0.2462 0.65893 0.0
C411 C 0.78225 0.27102 0.65445 0.0
C412 C 0.76332 0.28442 0.69017 0.0
C413 C 0.77531 0.274 0.73136 0.0
C414 C 0.80491 0.24742 0.73551 0.0
C415 C 0.82306 0.23318 0.69957 0.0
C416 C 0.74745 0.38574 0.8906 0.0
C417 C 0.73456 0.42029 0.87364 0.0
C418 C 0.74845 0.45436 0.88929 0.0
C419 C 0.77497 0.45452 0.92257 0.0
C420 C 0.79103 0.42016 0.93612 0.0
C421 C 0.77721 0.38592 0.9202 0.0
C422 C 0.69059 0.3468 0.90022 0.0
C423 C 0.68623 0.32491 0.93716 0.0
C424 C 0.6509 0.3215 0.95659 0.0
C425 C 0.61934 0.34075 0.94002 0.0
C426 C 0.62346 0.36284 0.903 0.0
C427 C 0.65879 0.36527 0.8827 0.0
C428 C 0.73582 0.33116 0.84351 0.0
C429 C 0.73482 0.34949 0.80378 0.0
C430 C 0.74686 0.33069 0.76737 0.0
C431 C 0.75897 0.29271 0.76955 0.0
C432 C 0.75743 0.2738 0.80911 0.0
C433 C 0.74633 0.293 0.84568 0.0
H434 H 0.77211 0.85311 0.56682 0.0
N435 N 0.82286 0.84279 0.62836 0.0
H436 H 0.74755 0.91389 0.54061 0.0
H437 H 0.82794 0.91037 0.66993 0.0
H438 H 0.80533 0.9711 0.64252 0.0
H439 H 0.88461 0.88754 0.64654 0.0
H440 H 0.9471 0.88381 0.61308 0.0
H441 H 0.84788 0.78998 0.5761 0.0
H442 H 0.91086 0.78479 0.54446 0.0
H443 H 0.78166 0.78009 0.62793 0.0
H444 H 0.83936 0.8571 0.71128 0.0
H445 H 0.7567 0.74533 0.68928 0.0
H446 H 0.81233 0.82472 0.77297 0.0
H447 H 0.63375 0.70762 0.8554 0.0
H448 H 0.57371 0.72875 0.88454 0.0
H449 H 0.63225 0.81198 0.95977 0.0
H450 H 0.6929 0.78992 0.93118 0.0
H451 H 0.7372 0.71143 0.95761 0.0
H452 H 0.74112 0.64938 -0.0072 0.0
H453 H 0.68088 0.59886 0.88813 0.0
H454 H 0.67905 0.66092 0.85167 0.0
H455 H 0.67746 0.72716 0.80271 0.0
H456 H 0.71025 0.75173 0.74047 0.0
H457 H 0.80992 0.77198 0.81732 0.0
N458 N 0.70366 0.72831 0.88462 0.0
H459 H 0.77549 0.74975 0.8801 0.0
C460 C 0.80284 0.87737 0.6193 0.0
C461 C 0.77808 0.87862 0.58448 0.0
C462 C 0.76359 0.91321 0.57003 0.0
C463 C 0.77437 0.94699 0.58986 0.0
C464 C 0.7962 0.9453 0.62715 0.0
C465 C 0.80982 0.91061 0.64224 0.0
C466 C 0.86119 0.83927 0.61322 0.0
C467 C 0.88988 0.86521 0.62412 0.0
C468 C 0.92572 0.86303 0.6051 0.0
C469 C 0.93382 0.83406 0.57622 0.0
C470 C 0.90556 0.8073 0.56687 0.0
C471 C 0.86958 0.81015 0.58487 0.0
C472 C 0.81165 0.82139 0.66519 0.0
C473 C 0.78883 0.78942 0.65967 0.0
C474 C 0.7743 0.76991 0.69481 0.0
C475 C 0.78181 0.78246 0.73634 0.0
C476 C 0.80605 0.81386 0.74166 0.0
C477 C 0.82117 0.83288 0.70638 0.0
C478 C 0.66795 0.74665 0.89203 0.0
C479 C 0.63384 0.73119 0.87702 0.0
C480 C 0.59939 0.74362 0.89327 0.0
C481 C 0.5985 0.772 0.92419 0.0
C482 C 0.63219 0.79052 0.93534 0.0
C483 C 0.6668 0.77768 0.91948 0.0
C484 C 0.70771 0.69084 0.90235 0.0
C485 C 0.72527 0.68692 0.94204 0.0
C486 C 0.72716 0.65165 0.96215 0.0
C487 C 0.71065 0.61972 0.94336 0.0
C488 C 0.69308 0.62335 0.90348 0.0
C489 C 0.69214 0.65868 0.8827 0.0
C490 C 0.72386 0.73743 0.84625 0.0
C491 C 0.70632 0.73681 0.80619 0.0
C492 C 0.72544 0.75057 0.77037 0.0
C493 C 0.7628 0.76439 0.77369 0.0
C494 C 0.78091 0.76265 0.81356 0.0
C495 C 0.76149 0.74956 0.84943 0.0
C496 C 0.97556 0.28372 0.56916 0.0
C497 C 0.06627 0.27313 0.45344 0.0
O498 O 0.99046 0.31146 0.54924 0.0
Zn499 Zn 0.02222 0.28106 0.51192 0.0
O500 O 0.98544 0.2499 0.56064 0.0
Zn501 Zn 0.02005 0.22017 0.51843 0.0
O502 O 0.05618 0.19499 0.556 0.0
O503 O 0.06523 0.25679 0.55171 0.0
O504 O 0.05527 0.24142 0.46909 0.0
O505 O 0.05395 0.3041 0.4685 0.0
O506 O 0.97868 0.25399 0.4759 0.0
O507 O 0.98118 0.19238 0.48783 0.0
C508 C 0.0754 0.22417 0.56567 0.0
C509 C 0.96522 0.22074 0.47009 0.0
C510 C 0.82652 0.08626 0.55363 0.0
C511 C 0.8345 0.97625 0.45965 0.0
O512 O 0.85658 0.06927 0.54235 0.0
Zn513 Zn 0.83243 0.03048 0.5079 0.0
O514 O 0.79419 0.07292 0.54267 0.0
Zn515 Zn 0.77167 0.0274 0.50546 0.0
O516 O 0.74557 0.99404 0.54536 0.0
O517 O 0.80772 0.99391 0.55326 0.0
O518 O 0.80047 0.98652 0.46753 0.0
O519 O 0.86208 0.99434 0.4759 0.0
O520 O 0.80572 0.06404 0.46001 0.0
O521 O 0.74354 0.05684 0.46402 0.0
C522 C 0.77505 0.98171 0.56413 0.0
C523 C 0.77236 0.0723 0.44689 0.0
C524 C 0.97082 0.8316 0.55443 0.0
C525 C 0.08246 0.83604 0.46131 0.0
O526 O 0.98874 0.86122 0.54286 0.0
Zn527 Zn 0.02687 0.8361 0.5082 0.0
O528 O 0.98293 0.79898 0.54332 0.0
Zn529 Zn 0.0275 0.77502 0.50629 0.0
O530 O 0.05814 0.74707 0.54705 0.0
O531 O 0.06176 0.80921 0.5542 0.0
O532 O 0.07145 0.80246 0.47073 0.0
O533 O 0.06401 0.86444 0.47478 0.0
O534 O 0.99287 0.81128 0.46055 0.0
O535 O 0.99744 0.7489 0.46375 0.0
C536 C 0.07171 0.77587 0.56575 0.0
C537 C 0.98345 0.77861 0.44684 0.0
C538 C 0.26956 0.07282 0.57239 0.0
C539 C 0.27333 0.98605 0.45247 0.0
O540 O 0.2998 0.06093 0.55501 0.0
Zn541 Zn 0.27491 0.02915 0.51273 0.0
O542 O 0.23727 0.06152 0.55916 0.0
Zn543 Zn 0.21318 0.02703 0.51215 0.0
O544 O 0.18821 0.98736 0.54548 0.0
O545 O 0.25059 0.98394 0.54874 0.0
O546 O 0.2403 0.99498 0.46543 0.0
O547 O 0.30262 0.99952 0.47059 0.0
O548 O 0.24788 0.07229 0.47594 0.0
O549 O 0.18577 0.06423 0.47763 0.0
C550 C 0.21801 0.97049 0.55841 0.0
C551 C 0.21458 0.0829 0.46506 0.0
C552 C 0.47557 0.78374 0.06915 0.0
C553 C 0.56627 0.77312 0.95343 0.0
O554 O 0.49046 0.81147 0.04923 0.0
Zn555 Zn 0.52222 0.78106 0.01191 0.0
O556 O 0.48544 0.74991 0.06064 0.0
Zn557 Zn 0.52004 0.72017 0.01843 0.0
O558 O 0.55617 0.69499 0.056 0.0
O559 O 0.56523 0.75679 0.0517 0.0
O560 O 0.55526 0.74141 0.96909 0.0
O561 O 0.55396 0.80409 0.96849 0.0
O562 O 0.47867 0.75399 0.97589 0.0
O563 O 0.48117 0.69238 0.98783 0.0
C564 C 0.57539 0.72417 0.06567 0.0
C565 C 0.46521 0.72075 0.97009 0.0
C566 C 0.32652 0.58628 0.05362 0.0
C567 C 0.33451 0.47626 0.95964 0.0
O568 O 0.35659 0.56929 0.04234 0.0
Zn569 Zn 0.33244 0.53049 0.00789 0.0
O570 O 0.2942 0.57294 0.04267 0.0
Zn571 Zn 0.27168 0.52741 0.00546 0.0
O572 O 0.24559 0.49405 0.04537 0.0
O573 O 0.30774 0.49392 0.05326 0.0
O574 O 0.30048 0.48653 0.96753 0.0
O575 O 0.36209 0.49436 0.97589 0.0
O576 O 0.30572 0.56406 0.96001 0.0
O577 O 0.24354 0.55684 0.96403 0.0
C578 C 0.27507 0.48172 0.06414 0.0
C579 C 0.27236 0.5723 0.9469 0.0
C580 C 0.58249 0.33604 0.96135 0.0
C581 C 0.47084 0.3316 0.05446 0.0
O582 O 0.56404 0.36444 0.97482 0.0
Zn583 Zn 0.52689 0.3361 0.00823 0.0
O584 O 0.57146 0.30246 0.97076 0.0
Zn585 Zn 0.52751 0.27502 0.00631 0.0
O586 O 0.49744 0.24892 0.96376 0.0
O587 O 0.49288 0.3113 0.96057 0.0
O588 O 0.48294 0.29898 0.04334 0.0
O589 O 0.48877 0.36122 0.0429 0.0
O590 O 0.56177 0.30919 0.05423 0.0
O591 O 0.55814 0.24706 0.04706 0.0
C592 C 0.48345 0.27863 0.94687 0.0
C593 C 0.57171 0.27585 0.06578 0.0
C594 C 0.76955 0.57282 0.07239 0.0
C595 C 0.77335 0.48604 0.95247 0.0
O596 O 0.7998 0.56093 0.05502 0.0
Zn597 Zn 0.77492 0.52914 0.01273 0.0
O598 O 0.73727 0.56151 0.05916 0.0
Zn599 Zn 0.71319 0.52701 0.01215 0.0
O600 O 0.68822 0.48734 0.04547 0.0
O601 O 0.7506 0.48393 0.04874 0.0
O602 O 0.74032 0.49497 0.96543 0.0
O603 O 0.80264 0.49952 0.9706 0.0
O604 O 0.74788 0.57228 0.97593 0.0
O605 O 0.68578 0.56421 0.97762 0.0
C606 C 0.71802 0.47047 0.0584 0.0
C607 C 0.71459 0.58288 0.96505 0.0
loop_
_geom_bond_atom_site_label_1
_geom_bond_atom_site_label_2
_geom_bond_distance
_geom_bond_site_symmetry_2
_ccdc_geom_bond_type
H0 C27 0.929 . S
N1 C26 1.433 . S
N1 C32 1.435 . S
N1 C38 1.423 . S
H2 C28 0.930 . S
H3 C31 0.931 . S
H4 C30 0.929 . S
H5 C33 0.930 . S
H6 C34 0.932 . S
H7 C37 0.929 . S
H8 C36 0.931 . S
H9 C39 0.929 . S
H10 C43 0.932 . S
H11 C40 0.931 . S
H12 C42 0.929 . S
H13 C45 0.929 . S
H14 C46 0.930 . S
H15 C48 0.929 . S
H16 C49 0.931 . S
H17 C51 0.930 . S
H18 C52 0.932 . S
H19 C54 0.931 . S
H20 C55 0.929 . S
H21 C57 0.929 . S
H22 C58 0.931 . S
H23 C60 0.929 . S
N24 C44 1.433 . S
N24 C50 1.435 . S
N24 C56 1.423 . S
H25 C61 0.932 . S
C26 N1 1.433 . S
C26 C27 1.363 . S
C26 C31 1.370 . S
C27 H0 0.929 . S
C27 C26 1.363 . S
C27 C28 1.385 . S
C28 H2 0.930 . S
C28 C27 1.385 . S
C28 C29 1.357 . S
C29 C28 1.357 . S
C29 C30 1.406 . S
C30 H4 0.929 . S
C30 C29 1.406 . S
C30 C31 1.391 . S
C31 H3 0.931 . S
C31 C26 1.370 . S
C31 C30 1.391 . S
C32 N1 1.435 . S
C32 C33 1.358 . S
C32 C37 1.371 . S
C33 H5 0.930 . S
C33 C32 1.358 . S
C33 C34 1.405 . S
C34 H6 0.932 . S
C34 C33 1.405 . S
C34 C35 1.383 . S
C35 C34 1.383 . S
C35 C36 1.393 . S
C36 H8 0.931 . S
C36 C35 1.393 . S
C36 C37 1.382 . S
C37 H7 0.929 . S
C37 C32 1.371 . S
C37 C36 1.382 . S
C38 N1 1.423 . S
C38 C39 1.362 . S
C38 C43 1.388 . S
C39 H9 0.929 . S
C39 C38 1.362 . S
C39 C40 1.376 . S
C40 H11 0.931 . S
C40 C39 1.376 . S
C40 C41 1.396 . S
C41 C40 1.396 . S
C41 C42 1.348 . S
C41 C59 1.472 . S
C42 H12 0.929 . S
C42 C41 1.348 . S
C42 C43 1.443 . S
C43 H10 0.932 . S
C43 C38 1.388 . S
C43 C42 1.443 . S
C44 N24 1.433 . S
C44 C45 1.363 . S
C44 C49 1.370 . S
C45 H13 0.929 . S
C45 C44 1.363 . S
C45 C46 1.385 . S
C46 H14 0.930 . S
C46 C45 1.385 . S
C46 C47 1.357 . S
C47 C46 1.357 . S
C47 C48 1.406 . S
C48 H15 0.929 . S
C48 C47 1.406 . S
C48 C49 1.391 . S
C49 H16 0.931 . S
C49 C44 1.370 . S
C49 C48 1.391 . S
C50 N24 1.435 . S
C50 C51 1.358 . S
C50 C55 1.371 . S
C51 H17 0.930 . S
C51 C50 1.358 . S
C51 C52 1.405 . S
C52 H18 0.932 . S
C52 C51 1.405 . S
C52 C53 1.383 . S
C53 C52 1.383 . S
C53 C54 1.393 . S
C54 H19 0.931 . S
C54 C53 1.393 . S
C54 C55 1.382 . S
C55 H20 0.929 . S
C55 C50 1.371 . S
C55 C54 1.382 . S
C56 N24 1.423 . S
C56 C57 1.362 . S
C56 C61 1.388 . S
C57 H21 0.929 . S
C57 C56 1.362 . S
C57 C58 1.376 . S
C58 H22 0.931 . S
C58 C57 1.376 . S
C58 C59 1.396 . S
C59 C41 1.472 . S
C59 C58 1.396 . S
C59 C60 1.348 . S
C60 H23 0.929 . S
C60 C59 1.348 . S
C60 C61 1.443 . S
C61 H25 0.932 . S
C61 C56 1.388 . S
C61 C60 1.443 . S
H62 C89 0.929 . S
N63 C88 1.433 . S
N63 C94 1.435 . S
N63 C100 1.423 . S
H64 C90 0.930 . S
H65 C93 0.931 . S
H66 C92 0.929 . S
H67 C95 0.930 . S
H68 C96 0.932 . S
H69 C99 0.929 . S
H70 C98 0.931 . S
H71 C101 0.929 . S
H72 C105 0.932 . S
H73 C102 0.931 . S
H74 C104 0.929 . S
H75 C107 0.929 . S
H76 C108 0.930 . S
H77 C110 0.929 . S
H78 C111 0.931 . S
H79 C113 0.930 . S
H80 C114 0.932 . S
H81 C116 0.931 . S
H82 C117 0.929 . S
H83 C119 0.929 . S
H84 C120 0.931 . S
H85 C122 0.929 . S
N86 C106 1.433 . S
N86 C112 1.435 . S
N86 C118 1.423 . S
H87 C123 0.932 . S
C88 N63 1.433 . S
C88 C89 1.363 . S
C88 C93 1.370 . S
C89 H62 0.929 . S
C89 C88 1.363 . S
C89 C90 1.385 . S
C90 H64 0.930 . S
C90 C89 1.385 . S
C90 C91 1.357 . S
C91 C90 1.357 . S
C91 C92 1.406 . S
C92 H66 0.929 . S
C92 C91 1.406 . S
C92 C93 1.391 . S
C93 H65 0.931 . S
C93 C88 1.370 . S
C93 C92 1.391 . S
C94 N63 1.435 . S
C94 C95 1.358 . S
C94 C99 1.371 . S
C95 H67 0.930 . S
C95 C94 1.358 . S
C95 C96 1.405 . S
C96 H68 0.932 . S
C96 C95 1.405 . S
C96 C97 1.383 . S
C97 C96 1.383 . S
C97 C98 1.393 . S
C98 H70 0.931 . S
C98 C97 1.393 . S
C98 C99 1.382 . S
C99 H69 0.929 . S
C99 C94 1.371 . S
C99 C98 1.382 . S
C100 N63 1.423 . S
C100 C101 1.362 . S
C100 C105 1.388 . S
C101 H71 0.929 . S
C101 C100 1.362 . S
C101 C102 1.376 . S
C102 H73 0.931 . S
C102 C101 1.376 . S
C102 C103 1.396 . S
C103 C102 1.396 . S
C103 C104 1.348 . S
C103 C121 1.472 . S
C104 H74 0.929 . S
C104 C103 1.348 . S
C104 C105 1.443 . S
C105 H72 0.932 . S
C105 C100 1.388 . S
C105 C104 1.443 . S
C106 N86 1.433 . S
C106 C107 1.363 . S
C106 C111 1.370 . S
C107 H75 0.929 . S
C107 C106 1.363 . S
C107 C108 1.385 . S
C108 H76 0.930 . S
C108 C107 1.385 . S
C108 C109 1.357 . S
C109 C108 1.357 . S
C109 C110 1.406 . S
C110 H77 0.929 . S
C110 C109 1.406 . S
C110 C111 1.391 . S
C111 H78 0.931 . S
C111 C106 1.370 . S
C111 C110 1.391 . S
C112 N86 1.435 . S
C112 C113 1.358 . S
C112 C117 1.371 . S
C113 H79 0.930 . S
C113 C112 1.358 . S
C113 C114 1.405 . S
C114 H80 0.932 . S
C114 C113 1.405 . S
C114 C115 1.383 . S
C115 C114 1.383 . S
C115 C116 1.393 . S
C116 H81 0.931 . S
C116 C115 1.393 . S
C116 C117 1.382 . S
C117 H82 0.929 . S
C117 C112 1.371 . S
C117 C116 1.382 . S
C118 N86 1.423 . S
C118 C119 1.362 . S
C118 C123 1.388 . S
C119 H83 0.929 . S
C119 C118 1.362 . S
C119 C120 1.376 . S
C120 H84 0.931 . S
C120 C119 1.376 . S
C120 C121 1.396 . S
C121 C103 1.472 . S
C121 C120 1.396 . S
C121 C122 1.348 . S
C122 H85 0.929 . S
C122 C121 1.348 . S
C122 C123 1.443 . S
C123 H87 0.932 . S
C123 C118 1.388 . S
C123 C122 1.443 . S
H124 C151 0.929 . S
N125 C150 1.433 . S
N125 C156 1.435 . S
N125 C162 1.423 . S
H126 C152 0.930 . S
H127 C155 0.931 . S
H128 C154 0.929 . S
H129 C157 0.930 . S
H130 C158 0.932 . S
H131 C161 0.929 . S
H132 C160 0.931 . S
H133 C163 0.929 . S
H134 C167 0.932 . S
H135 C164 0.931 . S
H136 C166 0.929 . S
H137 C169 0.929 . S
H138 C170 0.930 . S
H139 C172 0.929 . S
H140 C173 0.931 . S
H141 C175 0.930 . S
H142 C176 0.932 . S
H143 C178 0.931 . S
H144 C179 0.929 . S
H145 C181 0.929 . S
H146 C182 0.931 . S
H147 C184 0.929 . S
N148 C168 1.433 . S
N148 C174 1.435 . S
N148 C180 1.423 . S
H149 C185 0.932 . S
C150 N125 1.433 . S
C150 C151 1.363 . S
C150 C155 1.370 . S
C151 H124 0.929 . S
C151 C150 1.363 . S
C151 C152 1.385 . S
C152 H126 0.930 . S
C152 C151 1.385 . S
C152 C153 1.357 . S
C153 C152 1.357 . S
C153 C154 1.406 . S
C154 H128 0.929 . S
C154 C153 1.406 . S
C154 C155 1.391 . S
C155 H127 0.931 . S
C155 C150 1.370 . S
C155 C154 1.391 . S
C156 N125 1.435 . S
C156 C157 1.358 . S
C156 C161 1.371 . S
C157 H129 0.930 . S
C157 C156 1.358 . S
C157 C158 1.405 . S
C158 H130 0.932 . S
C158 C157 1.405 . S
C158 C159 1.383 . S
C159 C158 1.383 . S
C159 C160 1.393 . S
C160 H132 0.931 . S
C160 C159 1.393 . S
C160 C161 1.382 . S
C161 H131 0.929 . S
C161 C156 1.371 . S
C161 C160 1.382 . S
C162 N125 1.423 . S
C162 C163 1.362 . S
C162 C167 1.388 . S
C163 H133 0.929 . S
C163 C162 1.362 . S
C163 C164 1.376 . S
C164 H135 0.931 . S
C164 C163 1.376 . S
C164 C165 1.396 . S
C165 C164 1.396 . S
C165 C166 1.348 . S
C165 C183 1.472 . S
C166 H136 0.929 . S
C166 C165 1.348 . S
C166 C167 1.443 . S
C167 H134 0.932 . S
C167 C162 1.388 . S
C167 C166 1.443 . S
C168 N148 1.433 . S
C168 C169 1.363 . S
C168 C173 1.370 . S
C169 H137 0.929 . S
C169 C168 1.363 . S
C169 C170 1.385 . S
C170 H138 0.930 . S
C170 C169 1.385 . S
C170 C171 1.357 . S
C171 C170 1.357 . S
C171 C172 1.406 . S
C172 H139 0.929 . S
C172 C171 1.406 . S
C172 C173 1.391 . S
C173 H140 0.931 . S
C173 C168 1.370 . S
C173 C172 1.391 . S
C174 N148 1.435 . S
C174 C175 1.358 . S
C174 C179 1.371 . S
C175 H141 0.930 . S
C175 C174 1.358 . S
C175 C176 1.405 . S
C176 H142 0.932 . S
C176 C175 1.405 . S
C176 C177 1.383 . S
C177 C176 1.383 . S
C177 C178 1.393 . S
C178 H143 0.931 . S
C178 C177 1.393 . S
C178 C179 1.382 . S
C179 H144 0.929 . S
C179 C174 1.371 . S
C179 C178 1.382 . S
C180 N148 1.423 . S
C180 C181 1.362 . S
C180 C185 1.388 . S
C181 H145 0.929 . S
C181 C180 1.362 . S
C181 C182 1.376 . S
C182 H146 0.931 . S
C182 C181 1.376 . S
C182 C183 1.396 . S
C183 C165 1.472 . S
C183 C182 1.396 . S
C183 C184 1.348 . S
C184 H147 0.929 . S
C184 C183 1.348 . S
C184 C185 1.443 . S
C185 H149 0.932 . S
C185 C180 1.388 . S
C185 C184 1.443 . S
H186 C213 0.929 . S
N187 C212 1.433 . S
N187 C218 1.435 . S
N187 C224 1.423 . S
H188 C214 0.930 . S
H189 C217 0.931 . S
H190 C216 0.929 . S
H191 C219 0.930 . S
H192 C220 0.932 . S
H193 C223 0.929 . S
H194 C222 0.931 . S
H195 C225 0.929 . S
H196 C229 0.932 . S
H197 C226 0.931 . S
H198 C228 0.929 . S
H199 C231 0.929 . S
H200 C232 0.930 . S
H201 C234 0.929 . S
H202 C235 0.931 . S
H203 C237 0.930 . S
H204 C238 0.932 . S
H205 C240 0.931 . S
H206 C241 0.929 . S
H207 C243 0.929 . S
H208 C244 0.931 . S
H209 C246 0.929 . S
N210 C230 1.433 . S
N210 C236 1.435 . S
N210 C242 1.423 . S
H211 C247 0.932 . S
C212 N187 1.433 . S
C212 C213 1.363 . S
C212 C217 1.370 . S
C213 H186 0.929 . S
C213 C212 1.363 . S
C213 C214 1.385 . S
C214 H188 0.930 . S
C214 C213 1.385 . S
C214 C215 1.357 . S
C215 C214 1.357 . S
C215 C216 1.406 . S
C216 H190 0.929 . S
C216 C215 1.406 . S
C216 C217 1.391 . S
C217 H189 0.931 . S
C217 C212 1.370 . S
C217 C216 1.391 . S
C218 N187 1.435 . S
C218 C219 1.358 . S
C218 C223 1.371 . S
C219 H191 0.930 . S
C219 C218 1.358 . S
C219 C220 1.405 . S
C220 H192 0.932 . S
C220 C219 1.405 . S
C220 C221 1.383 . S
C221 C220 1.383 . S
C221 C222 1.393 . S
C222 H194 0.931 . S
C222 C221 1.393 . S
C222 C223 1.382 . S
C223 H193 0.929 . S
C223 C218 1.371 . S
C223 C222 1.382 . S
C224 N187 1.423 . S
C224 C225 1.362 . S
C224 C229 1.388 . S
C225 H195 0.929 . S
C225 C224 1.362 . S
C225 C226 1.376 . S
C226 H197 0.931 . S
C226 C225 1.376 . S
C226 C227 1.396 . S
C227 C226 1.396 . S
C227 C228 1.348 . S
C227 C245 1.472 . S
C228 H198 0.929 . S
C228 C227 1.348 . S
C228 C229 1.443 . S
C229 H196 0.932 . S
C229 C224 1.388 . S
C229 C228 1.443 . S
C230 N210 1.433 . S
C230 C231 1.363 . S
C230 C235 1.370 . S
C231 H199 0.929 . S
C231 C230 1.363 . S
C231 C232 1.385 . S
C232 H200 0.930 . S
C232 C231 1.385 . S
C232 C233 1.357 . S
C233 C232 1.357 . S
C233 C234 1.406 . S
C234 H201 0.929 . S
C234 C233 1.406 . S
C234 C235 1.391 . S
C235 H202 0.931 . S
C235 C230 1.370 . S
C235 C234 1.391 . S
C236 N210 1.435 . S
C236 C237 1.358 . S
C236 C241 1.371 . S
C237 H203 0.930 . S
C237 C236 1.358 . S
C237 C238 1.405 . S
C238 H204 0.932 . S
C238 C237 1.405 . S
C238 C239 1.383 . S
C239 C238 1.383 . S
C239 C240 1.393 . S
C240 H205 0.931 . S
C240 C239 1.393 . S
C240 C241 1.382 . S
C241 H206 0.929 . S
C241 C236 1.371 . S
C241 C240 1.382 . S
C242 N210 1.423 . S
C242 C243 1.362 . S
C242 C247 1.388 . S
C243 H207 0.929 . S
C243 C242 1.362 . S
C243 C244 1.376 . S
C244 H208 0.931 . S
C244 C243 1.376 . S
C244 C245 1.396 . S
C245 C227 1.472 . S
C245 C244 1.396 . S
C245 C246 1.348 . S
C246 H209 0.929 . S
C246 C245 1.348 . S
C246 C247 1.443 . S
C247 H211 0.932 . S
C247 C242 1.388 . S
C247 C246 1.443 . S
H248 C275 0.929 . S
N249 C274 1.433 . S
N249 C280 1.435 . S
N249 C286 1.423 . S
H250 C276 0.930 . S
H251 C279 0.931 . S
H252 C278 0.929 . S
H253 C281 0.930 . S
H254 C282 0.932 . S
H255 C285 0.929 . S
H256 C284 0.931 . S
H257 C287 0.929 . S
H258 C291 0.932 . S
H259 C288 0.931 . S
H260 C290 0.929 . S
H261 C293 0.929 . S
H262 C294 0.930 . S
H263 C296 0.929 . S
H264 C297 0.931 . S
H265 C299 0.930 . S
H266 C300 0.932 . S
H267 C302 0.931 . S
H268 C303 0.929 . S
H269 C305 0.929 . S
H270 C306 0.931 . S
H271 C308 0.929 . S
N272 C292 1.433 . S
N272 C298 1.435 . S
N272 C304 1.423 . S
H273 C309 0.932 . S
C274 N249 1.433 . S
C274 C275 1.363 . S
C274 C279 1.370 . S
C275 H248 0.929 . S
C275 C274 1.363 . S
C275 C276 1.385 . S
C276 H250 0.930 . S
C276 C275 1.385 . S
C276 C277 1.357 . S
C277 C276 1.357 . S
C277 C278 1.406 . S
C278 H252 0.929 . S
C278 C277 1.406 . S
C278 C279 1.391 . S
C279 H251 0.931 . S
C279 C274 1.370 . S
C279 C278 1.391 . S
C280 N249 1.435 . S
C280 C281 1.358 . S
C280 C285 1.371 . S
C281 H253 0.930 . S
C281 C280 1.358 . S
C281 C282 1.405 . S
C282 H254 0.932 . S
C282 C281 1.405 . S
C282 C283 1.383 . S
C283 C282 1.383 . S
C283 C284 1.393 . S
C284 H256 0.931 . S
C284 C283 1.393 . S
C284 C285 1.382 . S
C285 H255 0.929 . S
C285 C280 1.371 . S
C285 C284 1.382 . S
C286 N249 1.423 . S
C286 C287 1.362 . S
C286 C291 1.388 . S
C287 H257 0.929 . S
C287 C286 1.362 . S
C287 C288 1.376 . S
C288 H259 0.931 . S
C288 C287 1.376 . S
C288 C289 1.396 . S
C289 C288 1.396 . S
C289 C290 1.348 . S
C289 C307 1.472 . S
C290 H260 0.929 . S
C290 C289 1.348 . S
C290 C291 1.443 . S
C291 H258 0.932 . S
C291 C286 1.388 . S
C291 C290 1.443 . S
C292 N272 1.433 . S
C292 C293 1.363 . S
C292 C297 1.370 . S
C293 H261 0.929 . S
C293 C292 1.363 . S
C293 C294 1.385 . S
C294 H262 0.930 . S
C294 C293 1.385 . S
C294 C295 1.357 . S
C295 C294 1.357 . S
C295 C296 1.406 . S
C296 H263 0.929 . S
C296 C295 1.406 . S
C296 C297 1.391 . S
C297 H264 0.931 . S
C297 C292 1.370 . S
C297 C296 1.391 . S
C298 N272 1.435 . S
C298 C299 1.358 . S
C298 C303 1.371 . S
C299 H265 0.930 . S
C299 C298 1.358 . S
C299 C300 1.405 . S
C300 H266 0.932 . S
C300 C299 1.405 . S
C300 C301 1.383 . S
C301 C300 1.383 . S
C301 C302 1.393 . S
C302 H267 0.931 . S
C302 C301 1.393 . S
C302 C303 1.382 . S
C303 H268 0.929 . S
C303 C298 1.371 . S
C303 C302 1.382 . S
C304 N272 1.423 . S
C304 C305 1.362 . S
C304 C309 1.388 . S
C305 H269 0.929 . S
C305 C304 1.362 . S
C305 C306 1.376 . S
C306 H270 0.931 . S
C306 C305 1.376 . S
C306 C307 1.396 . S
C307 C289 1.472 . S
C307 C306 1.396 . S
C307 C308 1.348 . S
C308 H271 0.929 . S
C308 C307 1.348 . S
C308 C309 1.443 . S
C309 H273 0.932 . S
C309 C304 1.388 . S
C309 C308 1.443 . S
H310 C337 0.929 . S
N311 C336 1.433 . S
N311 C342 1.435 . S
N311 C348 1.423 . S
H312 C338 0.930 . S
H313 C341 0.931 . S
H314 C340 0.929 . S
H315 C343 0.930 . S
H316 C344 0.932 . S
H317 C347 0.929 . S
H318 C346 0.931 . S
H319 C349 0.929 . S
H320 C353 0.932 . S
H321 C350 0.931 . S
H322 C352 0.929 . S
H323 C355 0.929 . S
H324 C356 0.930 . S
H325 C358 0.929 . S
H326 C359 0.931 . S
H327 C361 0.930 . S
H328 C362 0.932 . S
H329 C364 0.931 . S
H330 C365 0.929 . S
H331 C367 0.929 . S
H332 C368 0.931 . S
H333 C370 0.929 . S
N334 C354 1.433 . S
N334 C360 1.435 . S
N334 C366 1.423 . S
H335 C371 0.932 . S
C336 N311 1.433 . S
C336 C337 1.363 . S
C336 C341 1.370 . S
C337 H310 0.929 . S
C337 C336 1.363 . S
C337 C338 1.385 . S
C338 H312 0.930 . S
C338 C337 1.385 . S
C338 C339 1.357 . S
C339 C338 1.357 . S
C339 C340 1.406 . S
C340 H314 0.929 . S
C340 C339 1.406 . S
C340 C341 1.391 . S
C341 H313 0.931 . S
C341 C336 1.370 . S
C341 C340 1.391 . S
C342 N311 1.435 . S
C342 C343 1.358 . S
C342 C347 1.371 . S
C343 H315 0.930 . S
C343 C342 1.358 . S
C343 C344 1.405 . S
C344 H316 0.932 . S
C344 C343 1.405 . S
C344 C345 1.383 . S
C345 C344 1.383 . S
C345 C346 1.393 . S
C346 H318 0.931 . S
C346 C345 1.393 . S
C346 C347 1.382 . S
C347 H317 0.929 . S
C347 C342 1.371 . S
C347 C346 1.382 . S
C348 N311 1.423 . S
C348 C349 1.362 . S
C348 C353 1.388 . S
C349 H319 0.929 . S
C349 C348 1.362 . S
C349 C350 1.376 . S
C350 H321 0.931 . S
C350 C349 1.376 . S
C350 C351 1.396 . S
C351 C350 1.396 . S
C351 C352 1.348 . S
C351 C369 1.472 . S
C352 H322 0.929 . S
C352 C351 1.348 . S
C352 C353 1.443 . S
C353 H320 0.932 . S
C353 C348 1.388 . S
C353 C352 1.443 . S
C354 N334 1.433 . S
C354 C355 1.363 . S
C354 C359 1.370 . S
C355 H323 0.929 . S
C355 C354 1.363 . S
C355 C356 1.385 . S
C356 H324 0.930 . S
C356 C355 1.385 . S
C356 C357 1.357 . S
C357 C356 1.357 . S
C357 C358 1.406 . S
C358 H325 0.929 . S
C358 C357 1.406 . S
C358 C359 1.391 . S
C359 H326 0.931 . S
C359 C354 1.370 . S
C359 C358 1.391 . S
C360 N334 1.435 . S
C360 C361 1.358 . S
C360 C365 1.371 . S
C361 H327 0.930 . S
C361 C360 1.358 . S
C361 C362 1.405 . S
C362 H328 0.932 . S
C362 C361 1.405 . S
C362 C363 1.383 . S
C363 C362 1.383 . S
C363 C364 1.393 . S
C364 H329 0.931 . S
C364 C363 1.393 . S
C364 C365 1.382 . S
C365 H330 0.929 . S
C365 C360 1.371 . S
C365 C364 1.382 . S
C366 N334 1.423 . S
C366 C367 1.362 . S
C366 C371 1.388 . S
C367 H331 0.929 . S
C367 C366 1.362 . S
C367 C368 1.376 . S
C368 H332 0.931 . S
C368 C367 1.376 . S
C368 C369 1.396 . S
C369 C351 1.472 . S
C369 C368 1.396 . S
C369 C370 1.348 . S
C370 H333 0.929 . S
C370 C369 1.348 . S
C370 C371 1.443 . S
C371 H335 0.932 . S
C371 C366 1.388 . S
C371 C370 1.443 . S
H372 C399 0.929 . S
N373 C398 1.433 . S
N373 C404 1.435 . S
N373 C410 1.423 . S
H374 C400 0.930 . S
H375 C403 0.931 . S
H376 C402 0.929 . S
H377 C405 0.930 . S
H378 C406 0.932 . S
H379 C409 0.929 . S
H380 C408 0.931 . S
H381 C411 0.929 . S
H382 C415 0.932 . S
H383 C412 0.931 . S
H384 C414 0.929 . S
H385 C417 0.929 . S
H386 C418 0.930 . S
H387 C420 0.929 . S
H388 C421 0.931 . S
H389 C423 0.930 . S
H390 C424 0.935 . S
H391 C426 0.931 . S
H392 C427 0.929 . S
H393 C429 0.929 . S
H394 C430 0.931 . S
H395 C432 0.929 . S
N396 C416 1.433 . S
N396 C422 1.435 . S
N396 C428 1.423 . S
H397 C433 0.932 . S
C398 N373 1.433 . S
C398 C399 1.363 . S
C398 C403 1.370 . S
C399 H372 0.929 . S
C399 C398 1.363 . S
C399 C400 1.385 . S
C400 H374 0.930 . S
C400 C399 1.385 . S
C400 C401 1.357 . S
C401 C400 1.357 . S
C401 C402 1.406 . S
C402 H376 0.929 . S
C402 C401 1.406 . S
C402 C403 1.391 . S
C403 H375 0.931 . S
C403 C398 1.370 . S
C403 C402 1.391 . S
C404 N373 1.435 . S
C404 C405 1.358 . S
C404 C409 1.371 . S
C405 H377 0.930 . S
C405 C404 1.358 . S
C405 C406 1.405 . S
C406 H378 0.932 . S
C406 C405 1.405 . S
C406 C407 1.383 . S
C407 C406 1.383 . S
C407 C408 1.393 . S
C408 H380 0.931 . S
C408 C407 1.393 . S
C408 C409 1.382 . S
C409 H379 0.929 . S
C409 C404 1.371 . S
C409 C408 1.382 . S
C410 N373 1.423 . S
C410 C411 1.362 . S
C410 C415 1.388 . S
C411 H381 0.929 . S
C411 C410 1.362 . S
C411 C412 1.376 . S
C412 H383 0.931 . S
C412 C411 1.376 . S
C412 C413 1.396 . S
C413 C412 1.396 . S
C413 C414 1.348 . S
C413 C431 1.472 . S
C414 H384 0.929 . S
C414 C413 1.348 . S
C414 C415 1.443 . S
C415 H382 0.932 . S
C415 C410 1.388 . S
C415 C414 1.443 . S
C416 N396 1.433 . S
C416 C417 1.363 . S
C416 C421 1.370 . S
C417 H385 0.929 . S
C417 C416 1.363 . S
C417 C418 1.385 . S
C418 H386 0.930 . S
C418 C417 1.385 . S
C418 C419 1.357 . S
C419 C418 1.357 . S
C419 C420 1.406 . S
C420 H387 0.929 . S
C420 C419 1.406 . S
C420 C421 1.391 . S
C421 H388 0.931 . S
C421 C416 1.370 . S
C421 C420 1.391 . S
C422 N396 1.435 . S
C422 C423 1.358 . S
C422 C427 1.371 . S
C423 H389 0.930 . S
C423 C422 1.358 . S
C423 C424 1.405 . S
C424 H390 0.935 . S
C424 C423 1.405 . S
C424 C425 1.383 . S
C425 C424 1.383 . S
C425 C426 1.393 . S
C426 H391 0.931 . S
C426 C425 1.393 . S
C426 C427 1.382 . S
C427 H392 0.929 . S
C427 C422 1.371 . S
C427 C426 1.382 . S
C428 N396 1.423 . S
C428 C429 1.362 . S
C428 C433 1.388 . S
C429 H393 0.929 . S
C429 C428 1.362 . S
C429 C430 1.376 . S
C430 H394 0.931 . S
C430 C429 1.376 . S
C430 C431 1.396 . S
C431 C413 1.472 . S
C431 C430 1.396 . S
C431 C432 1.348 . S
C432 H395 0.929 . S
C432 C431 1.348 . S
C432 C433 1.443 . S
C433 H397 0.932 . S
C433 C428 1.388 . S
C433 C432 1.443 . S
H434 C461 0.929 . S
N435 C460 1.433 . S
N435 C466 1.435 . S
N435 C472 1.423 . S
H436 C462 0.930 . S
H437 C465 0.931 . S
H438 C464 0.929 . S
H439 C467 0.930 . S
H440 C468 0.932 . S
H441 C471 0.929 . S
H442 C470 0.931 . S
H443 C473 0.929 . S
H444 C477 0.932 . S
H445 C474 0.931 . S
H446 C476 0.929 . S
H447 C479 0.929 . S
H448 C480 0.930 . S
H449 C482 0.929 . S
H450 C483 0.931 . S
H451 C485 0.930 . S
H452 C486 0.919 1_554 S
H453 C488 0.931 . S
H454 C489 0.929 . S
H455 C491 0.929 . S
H456 C492 0.931 . S
H457 C494 0.929 . S
N458 C478 1.433 . S
N458 C484 1.435 . S
N458 C490 1.423 . S
H459 C495 0.932 . S
C460 N435 1.433 . S
C460 C461 1.363 . S
C460 C465 1.370 . S
C461 H434 0.929 . S
C461 C460 1.363 . S
C461 C462 1.385 . S
C462 H436 0.930 . S
C462 C461 1.385 . S
C462 C463 1.357 . S
C463 C462 1.357 . S
C463 C464 1.406 . S
C464 H438 0.929 . S
C464 C463 1.406 . S
C464 C465 1.391 . S
C465 H437 0.931 . S
C465 C460 1.370 . S
C465 C464 1.391 . S
C466 N435 1.435 . S
C466 C467 1.358 . S
C466 C471 1.371 . S
C467 H439 0.930 . S
C467 C466 1.358 . S
C467 C468 1.405 . S
C468 H440 0.932 . S
C468 C467 1.405 . S
C468 C469 1.383 . S
C469 C468 1.383 . S
C469 C470 1.393 . S
C470 H442 0.931 . S
C470 C469 1.393 . S
C470 C471 1.382 . S
C471 H441 0.929 . S
C471 C466 1.371 . S
C471 C470 1.382 . S
C472 N435 1.423 . S
C472 C473 1.362 . S
C472 C477 1.388 . S
C473 H443 0.929 . S
C473 C472 1.362 . S
C473 C474 1.376 . S
C474 H445 0.931 . S
C474 C473 1.376 . S
C474 C475 1.396 . S
C475 C474 1.396 . S
C475 C476 1.348 . S
C475 C493 1.472 . S
C476 H446 0.929 . S
C476 C475 1.348 . S
C476 C477 1.443 . S
C477 H444 0.932 . S
C477 C472 1.388 . S
C477 C476 1.443 . S
C478 N458 1.433 . S
C478 C479 1.363 . S
C478 C483 1.370 . S
C479 H447 0.929 . S
C479 C478 1.363 . S
C479 C480 1.385 . S
C480 H448 0.930 . S
C480 C479 1.385 . S
C480 C481 1.357 . S
C481 C480 1.357 . S
C481 C482 1.406 . S
C482 H449 0.929 . S
C482 C481 1.406 . S
C482 C483 1.391 . S
C483 H450 0.931 . S
C483 C478 1.370 . S
C483 C482 1.391 . S
C484 N458 1.435 . S
C484 C485 1.358 . S
C484 C489 1.371 . S
C485 H451 0.930 . S
C485 C484 1.358 . S
C485 C486 1.405 . S
C486 H452 0.919 1_556 S
C486 C485 1.405 . S
C486 C487 1.383 . S
C487 C486 1.383 . S
C487 C488 1.393 . S
C488 H453 0.931 . S
C488 C487 1.393 . S
C488 C489 1.382 . S
C489 H454 0.929 . S
C489 C484 1.371 . S
C489 C488 1.382 . S
C490 N458 1.423 . S
C490 C491 1.362 . S
C490 C495 1.388 . S
C491 H455 0.929 . S
C491 C490 1.362 . S
C491 C492 1.376 . S
C492 H456 0.931 . S
C492 C491 1.376 . S
C492 C493 1.396 . S
C493 C475 1.472 . S
C493 C492 1.396 . S
C493 C494 1.348 . S
C494 H457 0.929 . S
C494 C493 1.348 . S
C494 C495 1.443 . S
C495 H459 0.932 . S
C495 C490 1.388 . S
C495 C494 1.443 . S
C496 O498 1.247 . S
C496 O500 1.258 . S
C497 O504 1.247 . S
C497 O505 1.258 . S
O498 C496 1.247 . S
O498 Zn499 2.028 1_655 S
Zn499 O498 2.028 1_455 S
Zn499 O503 2.035 . S
Zn499 O505 2.035 . S
Zn499 O506 2.028 1_455 S
O500 C496 1.258 . S
O500 Zn501 2.035 1_655 S
Zn501 O500 2.035 1_455 S
Zn501 O502 2.028 . S
Zn501 O504 2.028 . S
Zn501 O507 2.035 1_455 S
O502 Zn501 2.028 . S
O502 C508 1.247 . S
O503 Zn499 2.035 . S
O503 C508 1.258 . S
O504 C497 1.247 . S
O504 Zn501 2.028 . S
O505 C497 1.258 . S
O505 Zn499 2.035 . S
O506 Zn499 2.028 1_655 S
O506 C509 1.247 . S
O507 Zn501 2.035 1_655 S
O507 C509 1.258 . S
C508 O502 1.247 . S
C508 O503 1.258 . S
C509 O506 1.247 . S
C509 O507 1.258 . S
C510 O512 1.247 . S
C510 O514 1.258 . S
C511 O518 1.247 . S
C511 O519 1.258 . S
O512 C510 1.247 . S
O512 Zn513 2.028 . S
Zn513 O512 2.028 . S
Zn513 O517 2.035 1_545 S
Zn513 O519 2.035 1_545 S
Zn513 O520 2.028 . S
O514 C510 1.258 . S
O514 Zn515 2.035 . S
Zn515 O514 2.035 . S
Zn515 O516 2.028 1_545 S
Zn515 O518 2.028 1_545 S
Zn515 O521 2.035 . S
O516 Zn515 2.028 1_565 S
O516 C522 1.247 . S
O517 Zn513 2.035 1_565 S
O517 C522 1.258 . S
O518 C511 1.247 . S
O518 Zn515 2.028 1_565 S
O519 C511 1.258 . S
O519 Zn513 2.035 1_565 S
O520 Zn513 2.028 . S
O520 C523 1.247 . S
O521 Zn515 2.035 . S
O521 C523 1.258 . S
C522 O516 1.247 . S
C522 O517 1.258 . S
C523 O520 1.247 . S
C523 O521 1.258 . S
C524 O526 1.247 . S
C524 O528 1.258 . S
C525 O532 1.247 . S
C525 O533 1.258 . S
O526 C524 1.247 . S
O526 Zn527 2.028 1_655 S
Zn527 O526 2.028 1_455 S
Zn527 O531 2.035 . S
Zn527 O533 2.035 . S
Zn527 O534 2.028 1_455 S
O528 C524 1.258 . S
O528 Zn529 2.035 1_655 S
Zn529 O528 2.035 1_455 S
Zn529 O530 2.028 . S
Zn529 O532 2.028 . S
Zn529 O535 2.035 1_455 S
O530 Zn529 2.028 . S
O530 C536 1.247 . S
O531 Zn527 2.035 . S
O531 C536 1.258 . S
O532 C525 1.247 . S
O532 Zn529 2.028 . S
O533 C525 1.258 . S
O533 Zn527 2.035 . S
O534 Zn527 2.028 1_655 S
O534 C537 1.247 . S
O535 Zn529 2.035 1_655 S
O535 C537 1.258 . S
C536 O530 1.247 . S
C536 O531 1.258 . S
C537 O534 1.247 . S
C537 O535 1.258 . S
C538 O540 1.247 . S
C538 O542 1.258 . S
C539 O546 1.247 . S
C539 O547 1.258 . S
O540 C538 1.247 . S
O540 Zn541 2.028 . S
Zn541 O540 2.028 . S
Zn541 O545 2.035 1_545 S
Zn541 O547 2.035 1_545 S
Zn541 O548 2.028 . S
O542 C538 1.258 . S
O542 Zn543 2.035 . S
Zn543 O542 2.035 . S
Zn543 O544 2.028 1_545 S
Zn543 O546 2.028 1_545 S
Zn543 O549 2.035 . S
O544 Zn543 2.028 1_565 S
O544 C550 1.247 . S
O545 Zn541 2.035 1_565 S
O545 C550 1.258 . S
O546 C539 1.247 . S
O546 Zn543 2.028 1_565 S
O547 C539 1.258 . S
O547 Zn541 2.035 1_565 S
O548 Zn541 2.028 . S
O548 C551 1.247 . S
O549 Zn543 2.035 . S
O549 C551 1.258 . S
C550 O544 1.247 . S
C550 O545 1.258 . S
C551 O548 1.247 . S
C551 O549 1.258 . S
C552 O554 1.247 . S
C552 O556 1.258 . S
C553 O560 1.247 . S
C553 O561 1.258 . S
O554 C552 1.247 . S
O554 Zn555 2.028 . S
Zn555 O554 2.028 . S
Zn555 O559 2.035 . S
Zn555 O561 2.035 1_554 S
Zn555 O562 2.028 1_554 S
O556 C552 1.258 . S
O556 Zn557 2.035 . S
Zn557 O556 2.035 . S
Zn557 O558 2.028 . S
Zn557 O560 2.028 1_554 S
Zn557 O563 2.035 1_554 S
O558 Zn557 2.028 . S
O558 C564 1.247 . S
O559 Zn555 2.035 . S
O559 C564 1.258 . S
O560 C553 1.247 . S
O560 Zn557 2.028 1_556 S
O561 C553 1.258 . S
O561 Zn555 2.035 1_556 S
O562 Zn555 2.028 1_556 S
O562 C565 1.247 . S
O563 Zn557 2.035 1_556 S
O563 C565 1.258 . S
C564 O558 1.247 . S
C564 O559 1.258 . S
C565 O562 1.247 . S
C565 O563 1.258 . S
C566 O568 1.247 . S
C566 O570 1.258 . S
C567 O574 1.247 . S
C567 O575 1.258 . S
O568 C566 1.247 . S
O568 Zn569 2.028 . S
Zn569 O568 2.028 . S
Zn569 O573 2.035 . S
Zn569 O575 2.035 1_554 S
Zn569 O576 2.028 1_554 S
O570 C566 1.258 . S
O570 Zn571 2.035 . S
Zn571 O570 2.035 . S
Zn571 O572 2.028 . S
Zn571 O574 2.028 1_554 S
Zn571 O577 2.035 1_554 S
O572 Zn571 2.028 . S
O572 C578 1.247 . S
O573 Zn569 2.035 . S
O573 C578 1.258 . S
O574 C567 1.247 . S
O574 Zn571 2.028 1_556 S
O575 C567 1.258 . S
O575 Zn569 2.035 1_556 S
O576 Zn569 2.028 1_556 S
O576 C579 1.247 . S
O577 Zn571 2.035 1_556 S
O577 C579 1.258 . S
C578 O572 1.247 . S
C578 O573 1.258 . S
C579 O576 1.247 . S
C579 O577 1.258 . S
C580 O582 1.247 . S
C580 O584 1.258 . S
C581 O588 1.247 . S
C581 O589 1.258 . S
O582 C580 1.247 . S
O582 Zn583 2.028 1_556 S
Zn583 O582 2.028 1_554 S
Zn583 O587 2.035 1_554 S
Zn583 O589 2.035 . S
Zn583 O590 2.028 . S
O584 C580 1.258 . S
O584 Zn585 2.035 1_556 S
Zn585 O584 2.035 1_554 S
Zn585 O586 2.028 1_554 S
Zn585 O588 2.028 . S
Zn585 O591 2.035 . S
O586 Zn585 2.028 1_556 S
O586 C592 1.247 . S
O587 Zn583 2.035 1_556 S
O587 C592 1.258 . S
O588 C581 1.247 . S
O588 Zn585 2.028 . S
O589 C581 1.258 . S
O589 Zn583 2.035 . S
O590 Zn583 2.028 . S
O590 C593 1.247 . S
O591 Zn585 2.035 . S
O591 C593 1.258 . S
C592 O586 1.247 . S
C592 O587 1.258 . S
C593 O590 1.247 . S
C593 O591 1.258 . S
C594 O596 1.247 . S
C594 O598 1.258 . S
C595 O602 1.247 . S
C595 O603 1.258 . S
O596 C594 1.247 . S
O596 Zn597 2.028 . S
Zn597 O596 2.028 . S
Zn597 O601 2.035 . S
Zn597 O603 2.035 1_554 S
Zn597 O604 2.028 1_554 S
O598 C594 1.258 . S
O598 Zn599 2.035 . S
Zn599 O598 2.035 . S
Zn599 O600 2.028 . S
Zn599 O602 2.028 1_554 S
Zn599 O605 2.035 1_554 S
O600 Zn599 2.028 . S
O600 C606 1.247 . S
O601 Zn597 2.035 . S
O601 C606 1.258 . S
O602 C595 1.247 . S
O602 Zn599 2.028 1_556 S
O603 C595 1.258 . S
O603 Zn597 2.035 1_556 S
O604 Zn597 2.028 1_556 S
O604 C607 1.247 . S
O605 Zn599 2.035 1_556 S
O605 C607 1.258 . S
C606 O600 1.247 . S
C606 O601 1.258 . S
C607 O604 1.247 . S
C607 O605 1.258 . S
C497 C47 1.537 . S
C523 C115 1.477 . S
C537 C153 1.645 . S
C539 C233 1.702 . S
C283 C536 1.441 . S
C538 C357 1.539 . S
C496 C401 1.624 . S
C522 C463 1.636 . S
C524 C469 1.293 . S
C550 C277 1.477 . S
C508 C363 1.999 . S
C510 C407 1.634 . S
C509 C109 1.455 . S
C511 C159 1.294 . S
C525 C239 1.573 . S
C551 C53 2.004 . S
C553 C481 1.537 . S
C301 C579 1.477 . S
C339 C592 1.639 . S
C419 C595 1.702 . S
C97 C593 1.442 . S
C171 C594 1.539 . S
C215 C552 1.624 . S
C578 C29 1.636 . S
C581 C35 1.293 . S
C91 C606 1.477 . S
C177 C564 1.999 . S
C221 C566 1.633 . S
C565 C295 1.455 . S
C567 C345 1.293 . S
C425 C580 1.571 . S
C607 C487 2.004 . S
