# Generated by pormake.
# Topology sit, (3,6)-cn, num edge types: 1
# Building blocks:
#     Node 0, Type 0, BuildingBlock: KAKCAD_clean_linker_0, # of connection points: 3
#     Node 1, Type 0, BuildingBlock: KAKCAD_clean_linker_0, # of connection points: 3
#     Node 2, Type 0, BuildingBlock: KAKCAD_clean_linker_0, # of connection points: 3
#     Node 3, Type 0, BuildingBlock: KAKCAD_clean_linker_0, # of connection points: 3
#     Node 4, Type 1, BuildingBlock: MIDCAF_clean_sbu_0, # of connection points: 6
#     Node 5, Type 1, BuildingBlock: MIDCAF_clean_sbu_0, # of connection points: 6
#     Edge 6, Type (0, 1), BuildingBlock: FUNLAD_clean_linker_1, # of connection points: 2
#     Edge 7, Type (0, 1), BuildingBlock: FUNLAD_clean_linker_1, # of connection points: 2
#     Edge 8, Type (0, 1), BuildingBlock: FUNLAD_clean_linker_1, # of connection points: 2
#     Edge 9, Type (0, 1), BuildingBlock: FUNLAD_clean_linker_1, # of connection points: 2
#     Edge 10, Type (0, 1), BuildingBlock: FUNLAD_clean_linker_1, # of connection points: 2
#     Edge 11, Type (0, 1), BuildingBlock: FUNLAD_clean_linker_1, # of connection points: 2
#     Edge 12, Type (0, 1), BuildingBlock: FUNLAD_clean_linker_1, # of connection points: 2
#     Edge 13, Type (0, 1), BuildingBlock: FUNLAD_clean_linker_1, # of connection points: 2
#     Edge 14, Type (0, 1), BuildingBlock: FUNLAD_clean_linker_1, # of connection points: 2
#     Edge 15, Type (0, 1), BuildingBlock: FUNLAD_clean_linker_1, # of connection points: 2
#     Edge 16, Type (0, 1), BuildingBlock: FUNLAD_clean_linker_1, # of connection points: 2
#     Edge 17, Type (0, 1), BuildingBlock: FUNLAD_clean_linker_1, # of connection points: 2
# Relax obj value: 0.110
# Max RMSD: 0.193
# Mean RMSD: 0.106
data_MOF--net-sit--node1-MIDCAF_clean_sbu_0--node2-KAKCAD_clean_linker_0--edge1-FUNLAD_clean_linker_1
_symmetry_space_group_name_H-M    P1
_symmetry_Int_Tables_number       1
_symmetry_cell_setting            triclinic
loop_
_symmetry_equiv_pos_as_xyz
'x, y, z'
_cell_length_a     29.684078
_cell_length_b     39.518974
_cell_length_c     44.694229
_cell_angle_alpha  89.958709
_cell_angle_beta   89.589696
_cell_angle_gamma 84.652905
loop_
_atom_site_label
_atom_site_type_symbol
_atom_site_fract_x
_atom_site_fract_y
_atom_site_fract_z
_atom_type_partial_charge
C0 C 0.23716 0.35417 0.0176 0.0
C1 C 0.23966 0.38909 0.02285 0.0
C2 C 0.19794 0.33889 0.02501 0.0
C3 C 0.16065 0.35819 0.03786 0.0
C4 C 0.16457 0.39238 0.04518 0.0
C5 C 0.20379 0.40761 0.03788 0.0
C6 C 0.11639 0.34388 0.04083 0.0
C7 C 0.11314 0.31102 0.05218 0.0
C8 C 0.071 0.29746 0.05381 0.0
C9 C 0.03212 0.31707 0.04365 0.0
C10 C 0.03498 0.34976 0.03179 0.0
C11 C 0.07723 0.3629 0.03062 0.0
C12 C -0.00546 0.36972 0.01921 0.0
C13 C 0.9633 0.3537 0.00201 0.0
C14 C -0.01203 0.40516 0.02313 0.0
C15 C 0.95181 0.42421 0.0094 0.0
C16 C 0.92143 0.40835 0.99142 0.0
C17 C 0.06737 0.26292 0.06624 0.0
C18 C 0.0988 0.23553 0.05817 0.0
C19 C 0.03223 0.2571 0.08629 0.0
C20 C 0.02914 0.22487 0.09852 0.0
C21 C 0.06126 0.19768 0.09105 0.0
C22 C 0.09551 0.20317 0.07028 0.0
C23 C 0.92701 0.3727 0.98845 0.0
H24 H 0.26487 0.33879 0.00702 0.0
H25 H 0.19598 0.31245 0.01925 0.0
H26 H 0.13662 0.4077 0.05562 0.0
H27 H 0.20512 0.43439 0.04259 0.0
H28 H 0.14325 0.2963 0.06024 0.0
H29 H 0.08006 0.38755 0.02051 0.0
H30 H -0.00038 0.3067 0.04469 0.0
H31 H 0.9674 0.32649 -0.00161 0.0
H32 H 0.01091 0.41826 0.03673 0.0
H33 H 0.94794 0.45151 0.01256 0.0
H34 H 0.12581 0.23911 0.04239 0.0
H35 H 0.0075 0.27765 0.09296 0.0
H36 H 0.90355 0.35911 0.97582 0.0
H37 H 0.12044 0.18258 0.06399 0.0
H38 H 0.00153 0.22134 0.11382 0.0
C39 C 0.85368 0.69791 0.01075 0.0
C40 C 0.84817 0.66339 0.01575 0.0
C41 C 0.8935 0.71159 0.01904 0.0
C42 C 0.92869 0.69094 0.03247 0.0
C43 C 0.92195 0.65714 0.03957 0.0
C44 C 0.88206 0.64349 0.03145 0.0
C45 C 0.9741 0.70319 0.03545 0.0
C46 C 0.9798 0.73529 0.04753 0.0
C47 C 0.02288 0.74766 0.04809 0.0
C48 C 0.06011 0.72729 0.03593 0.0
C49 C 0.05483 0.69486 0.02437 0.0
C50 C 0.0118 0.68312 0.02425 0.0
C51 C 0.0937 0.67322 0.01158 0.0
C52 C 0.12331 0.68669 0.99112 0.0
C53 C 0.09983 0.63842 0.01851 0.0
C54 C 0.13449 0.61742 0.00494 0.0
C55 C 0.16388 0.63063 0.98414 0.0
C56 C 0.02923 0.78117 0.06218 0.0
C57 C -0.00518 0.80825 0.06129 0.0
C58 C 0.06914 0.78589 0.07787 0.0
C59 C 0.07407 0.81637 0.09278 0.0
C60 C 0.03894 0.84279 0.09275 0.0
C61 C -0.00061 0.83848 0.07679 0.0
C62 C 0.15788 0.66565 0.97738 0.0
H63 H 0.82805 0.71401 -0.00099 0.0
H64 H 0.89784 0.73771 0.01324 0.0
H65 H 0.94835 0.64086 0.05041 0.0
H66 H 0.87907 0.61712 0.0367 0.0
H67 H 0.95066 0.75017 0.05699 0.0
H68 H 0.00733 0.6587 0.0142 0.0
H69 H 0.09336 0.73646 0.03551 0.0
H70 H 0.11887 0.71331 0.985 0.0
H71 H 0.07762 0.62739 0.03437 0.0
H72 H 0.1382 0.59065 0.01065 0.0
H73 H 0.96397 0.80602 0.04898 0.0
H74 H 0.09603 0.76557 0.07981 0.0
H75 H 0.17882 0.67709 0.96111 0.0
H76 H 0.97169 0.85838 0.07667 0.0
H77 H 0.10443 0.81841 0.10568 0.0
C78 C 0.74616 0.84448 0.49574 0.0
C79 C 0.74602 0.88004 0.49516 0.0
C80 C 0.70918 0.8291 0.50718 0.0
C81 C 0.67101 0.84902 0.51816 0.0
C82 C 0.67137 0.88457 0.51849 0.0
C83 C 0.70834 0.89997 0.50706 0.0
C84 C 0.62975 0.833 0.52733 0.0
C85 C 0.63268 0.80301 0.54442 0.0
C86 C 0.59346 0.78758 0.55233 0.0
C87 C 0.55107 0.80244 0.54281 0.0
C88 C 0.5476 0.83224 0.52548 0.0
C89 C 0.58713 0.84728 0.51792 0.0
C90 C 0.50315 0.84708 0.51408 0.0
C91 C 0.47177 0.826 0.50267 0.0
C92 C 0.49262 0.88253 0.51323 0.0
C93 C 0.45236 0.8966 0.50035 0.0
C94 C 0.42176 0.87545 0.48799 0.0
C95 C 0.59658 0.75609 0.57071 0.0
C96 C 0.62991 0.72924 0.56475 0.0
C97 C 0.5662 0.7528 0.59453 0.0
C98 C 0.56901 0.72339 0.61202 0.0
C99 C 0.60205 0.69626 0.6059 0.0
C100 C 0.63261 0.69969 0.58219 0.0
C101 C 0.43146 0.84006 0.48992 0.0
H102 H 0.77461 0.82847 0.48664 0.0
H103 H 0.70977 0.80167 0.50633 0.0
H104 H 0.64258 0.90059 0.52711 0.0
H105 H 0.70625 0.9274 0.50676 0.0
H106 H 0.66542 0.79207 0.55208 0.0
H107 H 0.5849 0.86955 0.50365 0.0
H108 H 0.52072 0.79062 0.54872 0.0
H109 H 0.47895 0.79862 0.50271 0.0
H110 H 0.51563 0.89945 0.52245 0.0
H111 H 0.44544 0.92396 0.50025 0.0
H112 H 0.65367 0.73095 0.54642 0.0
H113 H 0.54077 0.77333 0.60009 0.0
H114 H 0.40835 0.82317 0.48074 0.0
H115 H 0.65871 0.67944 0.57713 0.0
H116 H 0.54585 0.72265 0.63073 0.0
C117 C 0.3696 0.20128 0.50825 0.0
C118 C 0.36666 0.16614 0.51136 0.0
C119 C 0.40936 0.21568 0.51548 0.0
C120 C 0.44711 0.19513 0.52586 0.0
C121 C 0.4433 0.16038 0.53078 0.0
C122 C 0.4036 0.14596 0.52357 0.0
C123 C 0.49166 0.20894 0.52844 0.0
C124 C 0.49598 0.24052 0.542 0.0
C125 C 0.53843 0.25361 0.54349 0.0
C126 C 0.57654 0.23476 0.53094 0.0
C127 C 0.57259 0.2032 0.51721 0.0
C128 C 0.53002 0.19067 0.51603 0.0
C129 C 0.61235 0.18334 0.50343 0.0
C130 C 0.64386 0.19952 0.48629 0.0
C131 C 0.61807 0.14776 0.50638 0.0
C132 C 0.65372 0.12875 0.49186 0.0
C133 C 0.68451 0.14475 0.47402 0.0
C134 C 0.54324 0.28633 0.55908 0.0
C135 C 0.51054 0.31421 0.55586 0.0
C136 C 0.58009 0.28955 0.57807 0.0
C137 C 0.58339 0.31943 0.5942 0.0
C138 C 0.54989 0.34685 0.59197 0.0
C139 C 0.51382 0.3442 0.57205 0.0
C140 C 0.67968 0.18051 0.47186 0.0
H141 H 0.3417 0.21748 0.49895 0.0
H142 H 0.41136 0.24251 0.51133 0.0
H143 H 0.47176 0.14403 0.53918 0.0
H144 H 0.40325 0.11883 0.52633 0.0
H145 H 0.46649 0.25442 0.55202 0.0
H146 H 0.5264 0.16699 0.50447 0.0
H147 H 0.60935 0.24463 0.53191 0.0
H148 H 0.64037 0.22686 0.4835 0.0
H149 H 0.59488 0.13454 0.51992 0.0
H150 H 0.657 0.10135 0.49439 0.0
H151 H 0.48222 0.31278 0.54091 0.0
H152 H 0.6057 0.26852 0.58132 0.0
H153 H 0.70341 0.19415 0.45929 0.0
H154 H 0.48772 0.36483 0.56901 0.0
H155 H 0.61159 0.32062 0.60931 0.0
Zn156 Zn 0.06871 0.09731 0.34058 0.0
Zn157 Zn 0.06671 0.96055 0.33988 0.0
Zn158 Zn 0.06391 0.02965 0.33876 0.0
C159 C 0.06877 0.98251 0.27964 0.0
C160 C -0.01168 0.98704 0.37042 0.0
O161 O 0.11996 0.04334 0.36751 0.0
O162 O 0.11977 0.09933 0.3684 0.0
C163 C 0.07362 0.07709 0.28047 0.0
O164 O 0.06951 1.01196 0.29185 0.0
O165 O 0.06578 0.9564 0.29563 0.0
O166 O 0.00998 0.95917 0.36321 0.0
O167 O 0.00272 0.01548 0.36242 0.0
O168 O 0.07861 0.10228 0.29704 0.0
O169 O 0.06688 0.048 0.29191 0.0
O170 O -0.00049 0.05132 0.35847 0.0
O171 O 0.0065 0.10671 0.35735 0.0
C172 C 0.98336 0.08228 0.36325 0.0
O173 O 0.12515 1.00827 0.36211 0.0
O174 O 0.12569 0.9522 0.36117 0.0
C175 C 0.136 0.07042 0.37723 0.0
C176 C 0.14416 0.97852 0.36841 0.0
Zn177 Zn 0.54026 0.58178 0.85232 0.0
Zn178 Zn 0.556 0.44872 0.84028 0.0
Zn179 Zn 0.54589 0.51531 0.84792 0.0
C180 C 0.55203 0.47564 0.78378 0.0
C181 C 0.47478 0.46396 0.87134 0.0
O182 O 0.6036 0.53035 0.87452 0.0
O183 O 0.59805 0.58658 0.87268 0.0
C184 C 0.53873 0.56914 0.79187 0.0
O185 O 0.54537 0.50302 0.7995 0.0
O186 O 0.56072 0.44723 0.79638 0.0
O187 O 0.49741 0.43963 0.85832 0.0
O188 O 0.48768 0.49426 0.87042 0.0
O189 O 0.5333 0.59396 0.80964 0.0
O190 O 0.54459 0.53848 0.80205 0.0
O191 O 0.48278 0.5307 0.87333 0.0
O192 O 0.48628 0.58622 0.8783 0.0
C193 C 0.46653 0.55994 0.88346 0.0
O194 O 0.61021 0.4947 0.86924 0.0
O195 O 0.61112 0.43884 0.86435 0.0
C196 C 0.61813 0.55897 0.88179 0.0
C197 C 0.62923 0.46441 0.87366 0.0
H198 H 0.07355 0.14134 0.09274 0.0
C199 C 0.06043 0.16374 0.10525 0.0
H200 H 0.03579 0.18274 0.14693 0.0
H201 H 0.96672 0.06538 0.21536 0.0
H202 H 0.8952 0.09174 0.19668 0.0
H203 H 0.89342 0.13399 0.1559 0.0
H204 H 0.96334 0.15034 0.13371 0.0
C205 C 0.04802 0.16045 0.13401 0.0
C206 C 0.04917 0.12732 0.14998 0.0
C207 C 0.00817 0.1171 0.1619 0.0
C208 C 0.00916 0.09254 0.1852 0.0
C209 C 0.96781 0.084 0.19771 0.0
C210 C 0.92656 0.09881 0.18707 0.0
C211 C 0.92556 0.12261 0.1641 0.0
C212 C 0.96581 0.13185 0.15165 0.0
H213 H 0.09291 0.10443 0.24072 0.0
C214 C 0.07607 0.0825 0.248 0.0
H215 H 0.03337 0.04557 0.23494 0.0
H216 H 0.13474 0.13664 0.1289 0.0
H217 H 0.20462 0.10442 0.14317 0.0
H218 H 0.20481 0.05855 0.1807 0.0
H219 H 0.13449 0.04541 0.2048 0.0
C220 C 0.05394 0.06537 0.22772 0.0
C221 C 0.05122 0.0784 0.19637 0.0
C222 C 0.09149 0.08391 0.18069 0.0
C223 C 0.0909 0.10925 0.15807 0.0
C224 C 0.13259 0.11681 0.14531 0.0
C225 C 0.17313 0.09855 0.15343 0.0
C226 C 0.17327 0.07279 0.17462 0.0
C227 C 0.13298 0.06557 0.18831 0.0
H228 H 0.00961 0.88189 0.12425 0.0
C229 C 0.04058 0.87279 0.11247 0.0
H230 H 0.10998 0.87817 0.10647 0.0
H231 H 0.01327 0.99692 0.20261 0.0
H232 H 0.97189 0.02124 0.15978 0.0
H233 H 0.98175 0.99477 0.1099 0.0
H234 H 0.03272 0.94345 0.10259 0.0
C235 C 0.07918 0.88668 0.11859 0.0
C236 C 0.08232 0.90835 0.14565 0.0
C237 C 0.05378 0.93896 0.14928 0.0
C238 C 0.04908 0.95478 0.17787 0.0
C239 C 0.01866 0.98429 0.18127 0.0
C240 C -0.00527 0.99848 0.15689 0.0
C241 C 0.00021 0.98352 0.12879 0.0
C242 C 0.02927 0.95403 0.12491 0.0
H243 H 0.0902 0.99689 0.23397 0.0
C244 C 0.07379 0.97823 0.24692 0.0
H245 H 0.04571 0.93121 0.24685 0.0
H246 H 0.14701 0.85368 0.14511 0.0
H247 H 0.19388 0.83325 0.18657 0.0
H248 H 0.18729 0.86193 0.23562 0.0
H249 H 0.13334 0.91124 0.24341 0.0
C250 C 0.06118 0.95018 0.23362 0.0
C251 C 0.07386 0.94033 0.20243 0.0
C252 C 0.10658 0.91235 0.19785 0.0
C253 C 0.11081 0.89622 0.16945 0.0
C254 C 0.14248 0.86731 0.16601 0.0
C255 C 0.1697 0.85524 0.18969 0.0
C256 C 0.16596 0.87134 0.21731 0.0
C257 C 0.13475 0.89951 0.2215 0.0
H258 H 0.63944 0.64944 0.62397 0.0
C259 C 0.60731 0.66509 0.62484 0.0
H260 H 0.54125 0.66932 0.64331 0.0
H261 H 0.51989 0.53178 0.70157 0.0
H262 H 0.47495 0.52652 0.65688 0.0
H263 H 0.47906 0.56705 0.61509 0.0
H264 H 0.52797 0.61302 0.61791 0.0
C265 C 0.5749 0.65604 0.64363 0.0
C266 C 0.58191 0.6269 0.66479 0.0
C267 C 0.55401 0.59978 0.66249 0.0
C268 C 0.55207 0.57611 0.68633 0.0
C269 C 0.52263 0.55016 0.684 0.0
C270 C 0.49678 0.54691 0.65846 0.0
C271 C 0.49912 0.56972 0.63493 0.0
C272 C 0.52716 0.59602 0.63687 0.0
H273 H 0.52044 0.6005 0.75272 0.0
C274 C 0.53924 0.57686 0.75964 0.0
H275 H 0.59136 0.53928 0.74724 0.0
H276 H 0.64151 0.67476 0.67651 0.0
H277 H 0.69186 0.67542 0.71865 0.0
H278 H 0.69262 0.6313 0.75776 0.0
H279 H 0.64205 0.58651 0.75501 0.0
C280 C 0.56882 0.56102 0.74023 0.0
C281 C 0.57893 0.57905 0.71203 0.0
C282 C 0.61079 0.60358 0.71274 0.0
C283 C 0.61151 0.62821 0.68954 0.0
C284 C 0.6406 0.65446 0.69258 0.0
C285 C 0.66959 0.65533 0.71689 0.0
C286 C 0.66994 0.63056 0.73895 0.0
C287 C 0.64074 0.60506 0.73713 0.0
H288 H 0.58272 0.37575 0.62649 0.0
C289 C 0.55276 0.37622 0.61252 0.0
H290 H 0.48719 0.40138 0.60608 0.0
H291 H 0.48263 0.42447 0.74691 0.0
H292 H 0.42203 0.38805 0.73987 0.0
H293 H 0.40532 0.36655 0.68972 0.0
H294 H 0.44897 0.38137 0.64635 0.0
C295 C 0.51875 0.40041 0.61819 0.0
C296 C 0.52013 0.42096 0.64601 0.0
C297 C 0.49322 0.41286 0.67085 0.0
C298 C 0.503 0.42504 0.69974 0.0
C299 C 0.47677 0.41566 0.72447 0.0
C300 C 0.44184 0.39487 0.72074 0.0
C301 C 0.43242 0.38278 0.6925 0.0
C302 C 0.45779 0.39147 0.66778 0.0
H303 H 0.52414 0.49824 0.742 0.0
C304 C 0.54447 0.47665 0.75126 0.0
H305 H 0.57646 0.42748 0.74371 0.0
H306 H 0.56916 0.44826 0.60186 0.0
H307 H 0.62588 0.48845 0.60844 0.0
H308 H 0.64365 0.50894 0.65881 0.0
H309 H 0.60483 0.48951 0.70288 0.0
C310 C 0.55726 0.44956 0.73409 0.0
C311 C 0.53937 0.44537 0.70359 0.0
C312 C 0.56248 0.45686 0.67831 0.0
C313 C 0.55261 0.44476 0.64936 0.0
C314 C 0.5761 0.45642 0.62434 0.0
C315 C 0.60847 0.47949 0.62785 0.0
C316 C 0.6185 0.49102 0.65622 0.0
C317 C 0.59614 0.47967 0.6813 0.0
H318 H 0.28339 0.43166 0.02129 0.0
C319 C 0.27737 0.40753 0.01107 0.0
H320 H 0.29134 0.3758 0.97349 0.0
H321 H 0.34962 0.48364 0.88438 0.0
H322 H 0.27182 0.4817 0.86968 0.0
H323 H 0.21921 0.45159 0.90068 0.0
H324 H 0.24448 0.42357 0.94669 0.0
C325 C 0.29973 0.39804 0.98576 0.0
C326 C 0.32955 0.42072 0.97024 0.0
C327 C 0.31435 0.43701 0.94344 0.0
C328 C 0.34459 0.45456 0.92573 0.0
C329 C 0.32834 0.47025 0.89892 0.0
C330 C 0.28358 0.46923 0.89013 0.0
C331 C 0.254 0.45229 0.90756 0.0
C332 C 0.26904 0.4362 0.93386 0.0
H333 H 0.41796 0.43394 0.88158 0.0
C334 C 0.43495 0.45578 0.88866 0.0
H335 H 0.44415 0.48969 0.92347 0.0
H336 H 0.36791 0.39473 0.02184 0.0
H337 H 0.444 0.40084 0.03907 0.0
H338 H 0.49616 0.43257 0.00919 0.0
H339 H 0.47281 0.45812 0.96192 0.0
C340 C 0.42391 0.47035 0.91506 0.0
C341 C 0.38996 0.45618 0.93516 0.0
C342 C 0.40391 0.44233 0.96332 0.0
C343 C 0.37376 0.42423 0.98072 0.0
C344 C 0.38919 0.40917 0.00798 0.0
C345 C 0.43284 0.4124 0.0181 0.0
C346 C 0.4622 0.43026 0.00128 0.0
C347 C 0.44823 0.44491 0.97414 0.0
H348 H 0.78513 0.66653 0.98964 0.0
C349 C 0.8087 0.64898 0.00189 0.0
H350 H 0.8259 0.59671 0.0114 0.0
H351 H 0.619 0.61676 0.94891 0.0
H352 H 0.59432 0.64622 0.99463 0.0
H353 H 0.64872 0.65542 0.03465 0.0
H354 H 0.72823 0.63537 0.02904 0.0
C355 C 0.80279 0.6156 0.00058 0.0
C356 C 0.76833 0.60344 0.98013 0.0
C357 C 0.72188 0.61448 0.98411 0.0
C358 C 0.69048 0.60867 0.96127 0.0
C359 C 0.64437 0.62057 0.96553 0.0
C360 C 0.62971 0.63741 0.99171 0.0
C361 C 0.66034 0.64262 0.01423 0.0
C362 C 0.70591 0.63126 0.01063 0.0
H363 H 0.6662 0.53726 0.91574 0.0
C364 C 0.65545 0.55999 0.90325 0.0
H365 H 0.66138 0.61257 0.89859 0.0
H366 H 0.85372 0.57363 0.96784 0.0
H367 H 0.8776 0.54169 0.92334 0.0
H368 H 0.82357 0.533 0.88313 0.0
H369 H 0.74477 0.55497 0.88764 0.0
C370 C 0.67339 0.58902 0.90973 0.0
C371 C 0.70547 0.59121 0.93482 0.0
C372 C 0.75122 0.57768 0.93192 0.0
C373 C 0.78264 0.58348 0.95482 0.0
C374 C 0.82833 0.57012 0.95119 0.0
C375 C 0.84257 0.55175 0.92572 0.0
C376 C 0.81207 0.54671 0.90312 0.0
C377 C 0.76691 0.55946 0.90603 0.0
H378 H 0.87596 0.45555 0.98471 0.0
C379 C 0.88401 0.4297 0.97668 0.0
H380 H 0.86943 0.39424 0.94351 0.0
H381 H 0.67416 0.48869 0.94588 0.0
H382 H 0.66954 0.47685 -0.00104 0.0
H383 H 0.7339 0.44634 0.02524 0.0
H384 H 0.80338 0.42844 -0.00113 0.0
C385 C 0.86006 0.41875 0.95379 0.0
C386 C 0.82241 0.44029 0.93951 0.0
C387 C 0.78145 0.44945 0.95534 0.0
C388 C 0.74351 0.46546 0.93992 0.0
C389 C 0.70352 0.47557 0.95632 0.0
C390 C 0.70044 0.46899 0.98682 0.0
C391 C 0.73671 0.45193 0.00162 0.0
C392 C 0.77668 0.44201 0.98617 0.0
H393 H 0.6763 0.43417 0.9029 0.0
C394 C 0.67104 0.45822 0.89098 0.0
H395 H 0.70107 0.50188 0.8771 0.0
H396 H 0.89804 0.43177 0.90402 0.0
H397 H 0.90262 0.44453 0.851 0.0
H398 H 0.83529 0.46873 0.82359 0.0
H399 H 0.76322 0.48084 0.84909 0.0
C400 C 0.70366 0.47946 0.89124 0.0
C401 C 0.74577 0.47041 0.90851 0.0
C402 C 0.78748 0.46341 0.89317 0.0
C403 C 0.82599 0.4487 0.9088 0.0
C404 C 0.86747 0.44225 0.89305 0.0
C405 C 0.87061 0.44957 0.86266 0.0
C406 C 0.83272 0.46322 0.84724 0.0
C407 C 0.7915 0.47001 0.86216 0.0
H408 H 0.19821 0.57973 0.97357 0.0
C409 C 0.19955 0.60684 0.96987 0.0
H410 H 0.23765 0.6434 0.94918 0.0
H411 H 0.40788 0.52998 0.9531 0.0
H412 H 0.40371 0.53591 0.007 0.0
H413 H 0.33838 0.5686 0.03107 0.0
H414 H 0.27668 0.59484 0.00131 0.0
C415 C 0.2341 0.61684 0.95356 0.0
C416 C 0.2692 0.59202 0.94026 0.0
C417 C 0.30506 0.5772 0.95806 0.0
C418 C 0.34316 0.55908 0.94415 0.0
C419 C 0.37846 0.54432 0.96242 0.0
C420 C 0.37643 0.54755 0.99343 0.0
C421 C 0.33965 0.5659 0.00697 0.0
C422 C 0.3044 0.5808 0.9896 0.0
H423 H 0.42121 0.58598 0.91671 0.0
C424 C 0.4249 0.56438 0.90152 0.0
H425 H 0.39185 0.52719 0.87976 0.0
H426 H 0.20183 0.61152 0.90089 0.0
H427 H 0.20312 0.60149 0.84724 0.0
H428 H 0.26945 0.57044 0.82289 0.0
H429 H 0.33474 0.5493 0.85185 0.0
C430 C 0.38965 0.54627 0.89722 0.0
C431 C 0.34561 0.55649 0.91247 0.0
C432 C 0.30733 0.56781 0.89511 0.0
C433 C 0.26916 0.58584 0.90907 0.0
C434 C 0.2318 0.59789 0.89127 0.0
C435 C 0.23205 0.59223 0.86051 0.0
C436 C 0.26939 0.57473 0.84681 0.0
C437 C 0.30676 0.56275 0.86375 0.0
H438 H 0.80665 0.8781 0.46617 0.0
C439 C 0.78427 0.89503 0.48003 0.0
H440 H 0.7716 0.94604 0.49516 0.0
H441 H 0.9798 0.92516 0.43378 0.0
H442 H -0.00012 0.89032 0.47725 0.0
H443 H 0.94231 0.87908 0.51517 0.0
H444 H 0.86421 0.90252 0.50969 0.0
C445 C 0.79253 0.92792 0.48169 0.0
C446 C 0.82895 0.94072 0.46291 0.0
C447 C 0.87459 0.92761 0.46685 0.0
C448 C 0.9078 0.93449 0.44522 0.0
C449 C 0.95306 0.92058 0.44943 0.0
C450 C 0.96511 0.90066 0.47436 0.0
C451 C 0.9327 0.8943 0.49569 0.0
C452 C 0.88795 0.90766 0.49216 0.0
H453 H 0.93727 1.0093 0.40286 0.0
C454 C 0.94871 0.98654 0.39048 0.0
H455 H 0.94163 0.93442 0.38423 0.0
H456 H 0.74623 0.97496 0.45195 0.0
H457 H 0.72665 1.01199 0.40976 0.0
H458 H 0.78347 0.02229 0.3712 0.0
H459 H 0.86077 0.99681 0.37509 0.0
C460 C 0.92919 0.95776 0.39563 0.0
C461 C 0.89543 0.95495 0.41998 0.0
C462 C 0.85056 0.97041 0.41735 0.0
C463 C 0.81739 0.96363 0.43915 0.0
C464 C 0.77268 0.97907 0.43596 0.0
C465 C 0.76098 1.00036 0.41184 0.0
C466 C 0.79307 1.00631 0.39019 0.0
C467 C 0.83736 0.99155 0.39275 0.0
H468 H 0.30489 0.16803 0.48422 0.0
C469 C 0.32674 0.15144 0.49852 0.0
H470 H 0.33806 0.10099 0.5152 0.0
H471 H 0.13708 0.12785 0.44508 0.0
H472 H 0.11345 0.16365 0.48755 0.0
H473 H 0.1664 0.17234 0.52857 0.0
H474 H 0.2435 0.14536 0.52718 0.0
C475 C 0.31764 0.1188 0.50133 0.0
C476 C 0.28223 0.10568 0.48225 0.0
C477 C 0.23708 0.12068 0.48385 0.0
C478 C 0.20656 0.11532 0.46043 0.0
C479 C 0.16186 0.1313 0.46219 0.0
C480 C 0.14778 0.15175 0.48651 0.0
C481 C 0.1776 0.15666 0.5096 0.0
C482 C 0.22176 0.1413 0.50843 0.0
H483 H 0.17751 0.04389 0.41246 0.0
C484 C 0.17086 0.06777 0.40062 0.0
H485 H 0.18399 0.11915 0.39796 0.0
H486 H 0.36287 0.06634 0.47666 0.0
H487 H 0.38427 0.02614 0.43689 0.0
H488 H 0.33169 0.01723 0.39576 0.0
H489 H 0.25765 0.04851 0.39406 0.0
C490 C 0.19192 0.09479 0.40893 0.0
C491 C 0.22107 0.09443 0.43579 0.0
C492 C 0.26445 0.07603 0.43608 0.0
C493 C 0.29498 0.08145 0.45963 0.0
C494 C 0.33842 0.06331 0.45928 0.0
C495 C 0.35115 0.04016 0.43657 0.0
C496 C 0.32153 0.03511 0.41344 0.0
C497 C 0.27889 0.05309 0.41286 0.0
H498 H 0.35349 0.87189 0.46967 0.0
C499 C 0.37977 0.88903 0.47259 0.0
H500 H 0.39941 0.93788 0.46141 0.0
H501 H 0.24309 0.90444 0.36196 0.0
H502 H 0.30176 0.86389 0.34174 0.0
H503 H 0.37574 0.85389 0.3666 0.0
H504 H 0.39133 0.88427 0.41194 0.0
C505 C 0.37401 0.91995 0.45975 0.0
C506 C 0.33261 0.93001 0.44211 0.0
C507 C 0.32441 0.91257 0.41526 0.0
C508 C 0.28207 0.91872 0.4007 0.0
C509 C 0.27459 0.90066 0.37408 0.0
C510 C 0.30805 0.87739 0.36213 0.0
C511 C 0.34966 0.87173 0.37614 0.0
C512 C 0.35802 0.88913 0.40231 0.0
H513 H 0.20816 0.99688 0.38379 0.0
C514 C 0.18793 0.97536 0.38399 0.0
H515 H 0.18353 0.92488 0.39823 0.0
H516 H 0.34071 0.97154 0.49028 0.0
H517 H 0.28355 1.01426 0.50931 0.0
H518 H 0.20904 0.02383 0.48509 0.0
H519 H 0.19124 0.99087 0.44178 0.0
C520 C 0.20306 0.94682 0.39843 0.0
C521 C 0.24835 0.94279 0.41268 0.0
C522 C 0.25758 0.96174 0.43856 0.0
C523 C 0.30014 0.95567 0.453 0.0
C524 C 0.30875 0.97495 0.47867 0.0
C525 C 0.27624 0.99949 0.48984 0.0
C526 C 0.23432 1.00493 0.47617 0.0
C527 C 0.22474 0.98609 0.45104 0.0
H528 H 0.7287 0.09714 0.46631 0.0
C529 C 0.72178 0.12334 0.45891 0.0
H530 H 0.73951 0.15955 0.42705 0.0
H531 H 0.93033 0.05903 0.43239 0.0
H532 H 0.93175 0.07042 0.48565 0.0
H533 H 0.86733 0.10318 0.51059 0.0
H534 H 0.80094 0.1238 0.48271 0.0
C535 C 0.74737 0.13457 0.43675 0.0
C536 C 0.7854 0.11275 0.42287 0.0
C537 C 0.8247 0.1021 0.43959 0.0
C538 C 0.86283 0.08483 0.42498 0.0
C539 C 0.901 0.07317 0.44224 0.0
C540 C 0.90222 0.07946 0.47284 0.0
C541 C 0.86591 0.09779 0.48689 0.0
C542 C 0.82768 0.10924 0.47056 0.0
H543 H 0.93366 0.11477 0.38921 0.0
C544 C 0.93918 0.0904 0.37781 0.0
H545 H 0.90879 0.04691 0.36393 0.0
H546 H 0.71312 0.12471 0.38544 0.0
H547 H 0.71192 0.11245 0.33223 0.0
H548 H 0.77987 0.08569 0.30642 0.0
H549 H 0.84923 0.07057 0.33373 0.0
C550 C 0.9057 0.0699 0.37733 0.0
C551 C 0.86265 0.08018 0.39351 0.0
C552 C 0.82257 0.08885 0.37719 0.0
C553 C 0.78373 0.10489 0.39196 0.0
C554 C 0.74389 0.11308 0.3752 0.0
C555 C 0.7427 0.10607 0.34468 0.0
C556 C 0.78095 0.09098 0.33015 0.0
C557 C 0.82057 0.08251 0.34608 0.0
loop_
_geom_bond_atom_site_label_1
_geom_bond_atom_site_label_2
_geom_bond_distance
_geom_bond_site_symmetry_2
_ccdc_geom_bond_type
C0 C1 1.386 . S
C0 C2 1.397 . S
C0 H24 0.931 . S
C1 C0 1.386 . S
C1 C5 1.397 . S
C2 C0 1.397 . S
C2 C3 1.384 . S
C2 H25 0.930 . S
C3 C2 1.384 . S
C3 C4 1.377 . S
C3 C6 1.481 1_556 S
C4 C3 1.377 . S
C4 C5 1.389 . S
C4 H26 0.929 . S
C5 C1 1.397 . S
C5 C4 1.389 . S
C5 H27 0.931 . S
C6 C3 1.481 1_554 S
C6 C7 1.387 . S
C6 C11 1.390 1_554 S
C7 C6 1.387 . S
C7 C8 1.401 . S
C7 H28 0.930 . S
C8 C7 1.401 . S
C8 C9 1.376 . S
C8 C17 1.511 . S
C9 C8 1.376 . S
C9 C10 1.392 . S
C9 H30 0.931 . S
C10 C9 1.392 . S
C10 C11 1.361 1_554 S
C10 C12 1.500 1_554 S
C11 C6 1.390 1_556 S
C11 C10 1.361 1_556 S
C11 H29 0.931 . S
C12 C10 1.500 1_556 S
C12 C13 1.371 . S
C12 C14 1.365 . S
C13 C12 1.371 . S
C13 C23 1.386 1_455 S
C13 H31 0.931 . S
C14 C12 1.365 . S
C14 C15 1.409 1_455 S
C14 H32 0.929 . S
C15 C14 1.409 1_655 S
C15 C16 1.380 . S
C15 H33 0.930 . S
C16 C15 1.380 . S
C16 C23 1.357 . S
C17 C8 1.511 . S
C17 C18 1.341 . S
C17 C19 1.371 . S
C18 C17 1.341 . S
C18 C22 1.394 . S
C18 H34 0.930 . S
C19 C17 1.371 . S
C19 C20 1.392 . S
C19 H35 0.931 . S
C20 C19 1.392 . S
C20 C21 1.331 . S
C20 H38 0.932 . S
C21 C20 1.331 . S
C21 C22 1.336 . S
C22 C18 1.394 . S
C22 C21 1.336 . S
C22 H37 0.929 . S
C23 C13 1.386 1_655 S
C23 C16 1.357 . S
C23 H36 0.928 . S
H24 C0 0.931 . S
H25 C2 0.930 . S
H26 C4 0.929 . S
H27 C5 0.931 . S
H28 C7 0.930 . S
H29 C11 0.931 . S
H30 C9 0.931 . S
H31 C13 0.931 . S
H32 C14 0.929 . S
H33 C15 0.930 . S
H34 C18 0.930 . S
H35 C19 0.931 . S
H36 C23 0.928 . S
H37 C22 0.929 . S
H38 C20 0.932 . S
C39 C40 1.386 . S
C39 C41 1.397 . S
C39 H63 0.931 . S
C40 C39 1.386 . S
C40 C44 1.397 . S
C41 C39 1.397 . S
C41 C42 1.384 . S
C41 H64 0.930 . S
C42 C41 1.384 . S
C42 C43 1.377 . S
C42 C45 1.481 1_556 S
C43 C42 1.377 . S
C43 C44 1.389 . S
C43 H65 0.929 . S
C44 C40 1.397 . S
C44 C43 1.389 . S
C44 H66 0.931 . S
C45 C42 1.481 1_554 S
C45 C46 1.387 . S
C45 C50 1.390 1_654 S
C46 C45 1.387 . S
C46 C47 1.401 1_655 S
C46 H67 0.930 . S
C47 C46 1.401 1_455 S
C47 C48 1.376 . S
C47 C56 1.511 . S
C48 C47 1.376 . S
C48 C49 1.392 . S
C48 H69 0.931 . S
C49 C48 1.392 . S
C49 C50 1.361 1_554 S
C49 C51 1.500 1_554 S
C50 C45 1.390 1_456 S
C50 C49 1.361 1_556 S
C50 H68 0.931 . S
C51 C49 1.500 1_556 S
C51 C52 1.371 . S
C51 C53 1.365 . S
C52 C51 1.371 . S
C52 C62 1.386 . S
C52 H70 0.938 . S
C53 C51 1.365 . S
C53 C54 1.409 . S
C53 H71 0.929 . S
C54 C53 1.409 . S
C54 C55 1.380 . S
C54 H72 0.930 . S
C55 C54 1.380 . S
C55 C62 1.357 . S
C56 C47 1.511 . S
C56 C57 1.341 1_455 S
C56 C58 1.371 . S
C57 C56 1.341 1_655 S
C57 C61 1.394 . S
C57 H73 0.930 . S
C58 C56 1.371 . S
C58 C59 1.392 . S
C58 H74 0.931 . S
C59 C58 1.392 . S
C59 C60 1.334 . S
C59 H77 0.932 . S
C60 C59 1.334 . S
C60 C61 1.333 1_455 S
C61 C57 1.394 . S
C61 C60 1.333 1_655 S
C61 H76 0.929 . S
C62 C52 1.386 . S
C62 C55 1.357 . S
C62 H75 0.928 . S
H63 C39 0.931 . S
H64 C41 0.930 . S
H65 C43 0.929 . S
H66 C44 0.931 . S
H67 C46 0.930 . S
H68 C50 0.931 . S
H69 C48 0.931 . S
H70 C52 0.938 . S
H71 C53 0.929 . S
H72 C54 0.930 . S
H73 C57 0.930 . S
H74 C58 0.931 . S
H75 C62 0.928 . S
H76 C61 0.929 . S
H77 C59 0.932 . S
C78 C79 1.386 . S
C78 C80 1.397 . S
C78 H102 0.931 . S
C79 C78 1.386 . S
C79 C83 1.397 . S
C80 C78 1.397 . S
C80 C81 1.384 . S
C80 H103 0.930 . S
C81 C80 1.384 . S
C81 C82 1.377 . S
C81 C84 1.481 . S
C82 C81 1.377 . S
C82 C83 1.389 . S
C82 H104 0.929 . S
C83 C79 1.397 . S
C83 C82 1.389 . S
C83 H105 0.931 . S
C84 C81 1.481 . S
C84 C85 1.387 . S
C84 C89 1.390 . S
C85 C84 1.387 . S
C85 C86 1.401 . S
C85 H106 0.930 . S
C86 C85 1.401 . S
C86 C87 1.376 . S
C86 C95 1.511 . S
C87 C86 1.376 . S
C87 C88 1.392 . S
C87 H108 0.931 . S
C88 C87 1.392 . S
C88 C89 1.361 . S
C88 C90 1.500 . S
C89 C84 1.390 . S
C89 C88 1.361 . S
C89 H107 0.931 . S
C90 C88 1.500 . S
C90 C91 1.371 . S
C90 C92 1.365 . S
C91 C90 1.371 . S
C91 C101 1.386 . S
C91 H109 0.931 . S
C92 C90 1.365 . S
C92 C93 1.409 . S
C92 H110 0.929 . S
C93 C92 1.409 . S
C93 C94 1.380 . S
C93 H111 0.930 . S
C94 C93 1.380 . S
C94 C101 1.357 . S
C95 C86 1.511 . S
C95 C96 1.341 . S
C95 C97 1.371 . S
C96 C95 1.341 . S
C96 C100 1.394 . S
C96 H112 0.930 . S
C97 C95 1.371 . S
C97 C98 1.392 . S
C97 H113 0.931 . S
C98 C97 1.392 . S
C98 C99 1.331 . S
C98 H116 0.932 . S
C99 C98 1.331 . S
C99 C100 1.336 . S
C100 C96 1.394 . S
C100 C99 1.336 . S
C100 H115 0.929 . S
C101 C91 1.386 . S
C101 C94 1.357 . S
C101 H114 0.928 . S
H102 C78 0.931 . S
H103 C80 0.930 . S
H104 C82 0.929 . S
H105 C83 0.931 . S
H106 C85 0.930 . S
H107 C89 0.931 . S
H108 C87 0.931 . S
H109 C91 0.931 . S
H110 C92 0.929 . S
H111 C93 0.930 . S
H112 C96 0.930 . S
H113 C97 0.931 . S
H114 C101 0.928 . S
H115 C100 0.929 . S
H116 C98 0.932 . S
C117 C118 1.386 . S
C117 C119 1.397 . S
C117 H141 0.931 . S
C118 C117 1.386 . S
C118 C122 1.397 . S
C119 C117 1.397 . S
C119 C120 1.384 . S
C119 H142 0.930 . S
C120 C119 1.384 . S
C120 C121 1.377 . S
C120 C123 1.481 . S
C121 C120 1.377 . S
C121 C122 1.389 . S
C121 H143 0.929 . S
C122 C118 1.397 . S
C122 C121 1.389 . S
C122 H144 0.931 . S
C123 C120 1.481 . S
C123 C124 1.387 . S
C123 C128 1.390 . S
C124 C123 1.387 . S
C124 C125 1.401 . S
C124 H145 0.930 . S
C125 C124 1.401 . S
C125 C126 1.376 . S
C125 C134 1.511 . S
C126 C125 1.376 . S
C126 C127 1.392 . S
C126 H147 0.931 . S
C127 C126 1.392 . S
C127 C128 1.361 . S
C127 C129 1.500 . S
C128 C123 1.390 . S
C128 C127 1.361 . S
C128 H146 0.931 . S
C129 C127 1.500 . S
C129 C130 1.371 . S
C129 C131 1.365 . S
C130 C129 1.371 . S
C130 C140 1.386 . S
C130 H148 0.931 . S
C131 C129 1.365 . S
C131 C132 1.409 . S
C131 H149 0.929 . S
C132 C131 1.409 . S
C132 C133 1.380 . S
C132 H150 0.930 . S
C133 C132 1.380 . S
C133 C140 1.357 . S
C134 C125 1.511 . S
C134 C135 1.341 . S
C134 C136 1.371 . S
C135 C134 1.341 . S
C135 C139 1.394 . S
C135 H151 0.930 . S
C136 C134 1.371 . S
C136 C137 1.392 . S
C136 H152 0.931 . S
C137 C136 1.392 . S
C137 C138 1.331 . S
C137 H155 0.932 . S
C138 C137 1.331 . S
C138 C139 1.336 . S
C139 C135 1.394 . S
C139 C138 1.336 . S
C139 H154 0.929 . S
C140 C130 1.386 . S
C140 C133 1.357 . S
C140 H153 0.928 . S
H141 C117 0.931 . S
H142 C119 0.930 . S
H143 C121 0.929 . S
H144 C122 0.931 . S
H145 C124 0.930 . S
H146 C128 0.931 . S
H147 C126 0.931 . S
H148 C130 0.931 . S
H149 C131 0.929 . S
H150 C132 0.930 . S
H151 C135 0.930 . S
H152 C136 0.931 . S
H153 C140 0.928 . S
H154 C139 0.929 . S
H155 C137 0.932 . S
Zn156 O162 1.920 . S
Zn156 O168 1.898 . S
Zn156 O171 1.905 1_455 S
Zn157 O165 1.905 . S
Zn157 O166 1.898 . S
Zn157 O174 1.920 . S
Zn158 O161 2.080 . S
Zn158 O164 2.114 1_545 S
Zn158 O167 2.120 1_545 S
Zn158 O169 2.120 . S
Zn158 O170 2.114 . S
Zn158 O173 2.080 1_545 S
C159 O164 1.166 . S
C159 O165 1.182 . S
C160 O166 1.167 . S
C160 O167 1.299 . S
O161 Zn158 2.080 . S
O161 C175 1.305 . S
O162 Zn156 1.920 . S
O162 C175 1.234 . S
C163 O168 1.167 . S
C163 O169 1.299 . S
O164 Zn158 2.114 1_565 S
O164 C159 1.166 . S
O165 Zn157 1.905 . S
O165 C159 1.182 . S
O166 Zn157 1.898 . S
O166 C160 1.167 . S
O167 Zn158 2.120 1_565 S
O167 C160 1.299 . S
O168 Zn156 1.898 . S
O168 C163 1.167 . S
O169 Zn158 2.120 . S
O169 C163 1.299 . S
O170 Zn158 2.114 . S
O170 C172 1.166 1_455 S
O171 Zn156 1.905 1_655 S
O171 C172 1.182 . S
C172 O170 1.166 1_655 S
C172 O171 1.182 . S
O173 Zn158 2.080 1_565 S
O173 C176 1.305 . S
O174 Zn157 1.920 . S
O174 C176 1.234 . S
C175 O161 1.305 . S
C175 O162 1.234 . S
C176 O173 1.305 . S
C176 O174 1.234 . S
Zn177 O183 1.920 . S
Zn177 O189 1.898 . S
Zn177 O192 1.905 . S
Zn178 O186 1.905 . S
Zn178 O187 1.898 . S
Zn178 O195 1.920 . S
Zn179 O182 2.080 . S
Zn179 O185 2.114 . S
Zn179 O188 2.120 . S
Zn179 O190 2.120 . S
Zn179 O191 2.114 . S
Zn179 O194 2.080 . S
C180 O185 1.166 . S
C180 O186 1.182 . S
C181 O187 1.167 . S
C181 O188 1.299 . S
O182 Zn179 2.080 . S
O182 C196 1.305 . S
O183 Zn177 1.920 . S
O183 C196 1.234 . S
C184 O189 1.167 . S
C184 O190 1.299 . S
O185 Zn179 2.114 . S
O185 C180 1.166 . S
O186 Zn178 1.905 . S
O186 C180 1.182 . S
O187 Zn178 1.898 . S
O187 C181 1.167 . S
O188 Zn179 2.120 . S
O188 C181 1.299 . S
O189 Zn177 1.898 . S
O189 C184 1.167 . S
O190 Zn179 2.120 . S
O190 C184 1.299 . S
O191 Zn179 2.114 . S
O191 C193 1.166 . S
O192 Zn177 1.905 . S
O192 C193 1.182 . S
C193 O191 1.166 . S
C193 O192 1.182 . S
O194 Zn179 2.080 . S
O194 C197 1.305 . S
O195 Zn178 1.920 . S
O195 C197 1.234 . S
C196 O182 1.305 . S
C196 O183 1.234 . S
C197 O194 1.305 . S
C197 O195 1.234 . S
H198 C199 0.951 . S
C199 H198 0.951 . S
C199 C205 1.265 . S
H200 C205 0.950 . S
H201 C209 0.949 . S
H202 C210 0.950 . S
H203 C211 0.951 . S
H204 C212 0.951 . S
C205 C199 1.265 . S
C205 H200 0.950 . S
C205 C206 1.478 . S
C206 C205 1.478 . S
C206 C207 1.397 . S
C206 C223 1.394 . S
C207 C206 1.397 . S
C207 C208 1.438 . S
C207 C212 1.429 . S
C208 C207 1.438 . S
C208 C209 1.428 . S
C208 C221 1.394 . S
C209 H201 0.949 . S
C209 C208 1.428 . S
C209 C210 1.345 . S
C210 H202 0.950 . S
C210 C209 1.345 . S
C210 C211 1.424 . S
C211 H203 0.951 . S
C211 C210 1.424 . S
C211 C212 1.347 . S
C212 H204 0.951 . S
C212 C207 1.429 . S
C212 C211 1.347 . S
H213 C214 0.951 . S
C214 H213 0.951 . S
C214 C220 1.265 . S
H215 C220 0.950 . S
H216 C224 0.949 . S
H217 C225 0.950 . S
H218 C226 0.951 . S
H219 C227 0.951 . S
C220 C214 1.265 . S
C220 H215 0.950 . S
C220 C221 1.478 . S
C221 C208 1.394 . S
C221 C220 1.478 . S
C221 C222 1.397 . S
C222 C221 1.397 . S
C222 C223 1.438 . S
C222 C227 1.429 . S
C223 C206 1.394 . S
C223 C222 1.438 . S
C223 C224 1.428 . S
C224 H216 0.949 . S
C224 C223 1.428 . S
C224 C225 1.345 . S
C225 H217 0.950 . S
C225 C224 1.345 . S
C225 C226 1.424 . S
C226 H218 0.951 . S
C226 C225 1.424 . S
C226 C227 1.347 . S
C227 H219 0.951 . S
C227 C222 1.429 . S
C227 C226 1.347 . S
H228 C229 0.951 . S
C229 H228 0.951 . S
C229 C235 1.265 1_655 S
H230 C235 0.950 . S
H231 C239 0.949 . S
H232 C240 0.950 1_545 S
H233 C241 0.951 . S
H234 C242 0.951 . S
C235 C229 1.265 1_455 S
C235 H230 0.950 . S
C235 C236 1.478 . S
C236 C235 1.478 . S
C236 C237 1.397 . S
C236 C253 1.394 . S
C237 C236 1.397 . S
C237 C238 1.438 . S
C237 C242 1.429 . S
C238 C237 1.438 . S
C238 C239 1.428 . S
C238 C251 1.394 . S
C239 H231 0.949 . S
C239 C238 1.428 . S
C239 C240 1.345 . S
C240 H232 0.950 1_565 S
C240 C239 1.345 . S
C240 C241 1.424 . S
C241 H233 0.951 . S
C241 C240 1.424 . S
C241 C242 1.347 . S
C242 H234 0.951 . S
C242 C237 1.429 . S
C242 C241 1.347 . S
H243 C244 0.951 . S
C244 H243 0.951 . S
C244 C250 1.265 . S
H245 C250 0.950 1_655 S
H246 C254 0.949 . S
H247 C255 0.950 . S
H248 C256 0.951 . S
H249 C257 0.951 . S
C250 C244 1.265 . S
C250 H245 0.950 1_455 S
C250 C251 1.478 . S
C251 C238 1.394 . S
C251 C250 1.478 . S
C251 C252 1.397 . S
C252 C251 1.397 . S
C252 C253 1.438 . S
C252 C257 1.429 1_455 S
C253 C236 1.394 . S
C253 C252 1.438 . S
C253 C254 1.428 1_455 S
C254 H246 0.949 . S
C254 C253 1.428 1_655 S
C254 C255 1.345 . S
C255 H247 0.950 . S
C255 C254 1.345 . S
C255 C256 1.424 . S
C256 H248 0.951 . S
C256 C255 1.424 . S
C256 C257 1.347 . S
C257 H249 0.951 . S
C257 C252 1.429 1_655 S
C257 C256 1.347 . S
H258 C259 0.951 . S
C259 H258 0.951 . S
C259 C265 1.265 . S
H260 C265 0.950 . S
H261 C269 0.949 . S
H262 C270 0.950 . S
H263 C271 0.951 . S
H264 C272 0.951 . S
C265 C259 1.265 . S
C265 H260 0.950 . S
C265 C266 1.478 . S
C266 C265 1.478 . S
C266 C267 1.397 . S
C266 C283 1.394 . S
C267 C266 1.397 . S
C267 C268 1.438 . S
C267 C272 1.429 . S
C268 C267 1.438 . S
C268 C269 1.428 . S
C268 C281 1.394 . S
C269 H261 0.949 . S
C269 C268 1.428 . S
C269 C270 1.345 . S
C270 H262 0.950 . S
C270 C269 1.345 . S
C270 C271 1.424 . S
C271 H263 0.951 . S
C271 C270 1.424 . S
C271 C272 1.347 . S
C272 H264 0.951 . S
C272 C267 1.429 . S
C272 C271 1.347 . S
H273 C274 0.951 . S
C274 H273 0.951 . S
C274 C280 1.265 . S
H275 C280 0.950 . S
H276 C284 0.949 . S
H277 C285 0.950 . S
H278 C286 0.951 . S
H279 C287 0.951 . S
C280 C274 1.265 . S
C280 H275 0.950 . S
C280 C281 1.478 . S
C281 C268 1.394 . S
C281 C280 1.478 . S
C281 C282 1.397 . S
C282 C281 1.397 . S
C282 C283 1.438 . S
C282 C287 1.429 . S
C283 C266 1.394 . S
C283 C282 1.438 . S
C283 C284 1.428 . S
C284 H276 0.949 . S
C284 C283 1.428 . S
C284 C285 1.345 . S
C285 H277 0.950 . S
C285 C284 1.345 . S
C285 C286 1.424 . S
C286 H278 0.951 . S
C286 C285 1.424 . S
C286 C287 1.347 . S
C287 H279 0.951 . S
C287 C282 1.429 . S
C287 C286 1.347 . S
H288 C289 0.951 . S
C289 H288 0.951 . S
C289 C295 1.265 . S
H290 C295 0.950 . S
H291 C299 0.949 . S
H292 C300 0.950 . S
H293 C301 0.951 . S
H294 C302 0.951 . S
C295 C289 1.265 . S
C295 H290 0.950 . S
C295 C296 1.478 . S
C296 C295 1.478 . S
C296 C297 1.397 . S
C296 C313 1.394 . S
C297 C296 1.397 . S
C297 C298 1.438 . S
C297 C302 1.429 . S
C298 C297 1.438 . S
C298 C299 1.428 . S
C298 C311 1.394 . S
C299 H291 0.949 . S
C299 C298 1.428 . S
C299 C300 1.345 . S
C300 H292 0.950 . S
C300 C299 1.345 . S
C300 C301 1.424 . S
C301 H293 0.951 . S
C301 C300 1.424 . S
C301 C302 1.347 . S
C302 H294 0.951 . S
C302 C297 1.429 . S
C302 C301 1.347 . S
H303 C304 0.951 . S
C304 H303 0.951 . S
C304 C310 1.265 . S
H305 C310 0.950 . S
H306 C314 0.949 . S
H307 C315 0.950 . S
H308 C316 0.951 . S
H309 C317 0.951 . S
C310 C304 1.265 . S
C310 H305 0.950 . S
C310 C311 1.478 . S
C311 C298 1.394 . S
C311 C310 1.478 . S
C311 C312 1.397 . S
C312 C311 1.397 . S
C312 C313 1.438 . S
C312 C317 1.429 . S
C313 C296 1.394 . S
C313 C312 1.438 . S
C313 C314 1.428 . S
C314 H306 0.949 . S
C314 C313 1.428 . S
C314 C315 1.345 . S
C315 H307 0.950 . S
C315 C314 1.345 . S
C315 C316 1.424 . S
C316 H308 0.951 . S
C316 C315 1.424 . S
C316 C317 1.347 . S
C317 H309 0.951 . S
C317 C312 1.429 . S
C317 C316 1.347 . S
H318 C319 0.951 . S
C319 H318 0.951 . S
C319 C325 1.265 . S
H320 C325 0.950 . S
H321 C329 0.949 . S
H322 C330 0.950 . S
H323 C331 0.951 . S
H324 C332 0.951 . S
C325 C319 1.265 . S
C325 H320 0.950 . S
C325 C326 1.478 . S
C326 C325 1.478 . S
C326 C327 1.397 . S
C326 C343 1.394 . S
C327 C326 1.397 . S
C327 C328 1.438 . S
C327 C332 1.429 . S
C328 C327 1.438 . S
C328 C329 1.428 . S
C328 C341 1.394 . S
C329 H321 0.949 . S
C329 C328 1.428 . S
C329 C330 1.345 . S
C330 H322 0.950 . S
C330 C329 1.345 . S
C330 C331 1.424 . S
C331 H323 0.951 . S
C331 C330 1.424 . S
C331 C332 1.347 . S
C332 H324 0.951 . S
C332 C327 1.429 . S
C332 C331 1.347 . S
H333 C334 0.951 . S
C334 H333 0.951 . S
C334 C340 1.265 . S
H335 C340 0.950 . S
H336 C344 0.949 . S
H337 C345 0.950 . S
H338 C346 0.951 . S
H339 C347 0.951 . S
C340 C334 1.265 . S
C340 H335 0.950 . S
C340 C341 1.478 . S
C341 C328 1.394 . S
C341 C340 1.478 . S
C341 C342 1.397 . S
C342 C341 1.397 . S
C342 C343 1.438 . S
C342 C347 1.429 . S
C343 C326 1.394 . S
C343 C342 1.438 . S
C343 C344 1.428 . S
C344 H336 0.949 . S
C344 C343 1.428 . S
C344 C345 1.345 1_556 S
C345 H337 0.950 . S
C345 C344 1.345 1_554 S
C345 C346 1.424 . S
C346 H338 0.951 . S
C346 C345 1.424 . S
C346 C347 1.347 1_554 S
C347 H339 0.951 . S
C347 C342 1.429 . S
C347 C346 1.347 1_556 S
H348 C349 0.951 . S
C349 H348 0.951 . S
C349 C355 1.265 . S
H350 C355 0.950 . S
H351 C359 0.949 . S
H352 C360 0.950 . S
H353 C361 0.946 1_554 S
H354 C362 0.952 . S
C355 C349 1.265 . S
C355 H350 0.950 . S
C355 C356 1.478 . S
C356 C355 1.478 . S
C356 C357 1.397 . S
C356 C373 1.394 . S
C357 C356 1.397 . S
C357 C358 1.438 . S
C357 C362 1.429 . S
C358 C357 1.438 . S
C358 C359 1.428 . S
C358 C371 1.394 . S
C359 H351 0.949 . S
C359 C358 1.428 . S
C359 C360 1.345 . S
C360 H352 0.950 . S
C360 C359 1.345 . S
C360 C361 1.427 . S
C361 H353 0.946 1_556 S
C361 C360 1.427 . S
C361 C362 1.349 . S
C362 H354 0.952 . S
C362 C357 1.429 . S
C362 C361 1.349 . S
H363 C364 0.951 . S
C364 H363 0.951 . S
C364 C370 1.265 . S
H365 C370 0.950 . S
H366 C374 0.949 . S
H367 C375 0.950 . S
H368 C376 0.951 . S
H369 C377 0.951 . S
C370 C364 1.265 . S
C370 H365 0.950 . S
C370 C371 1.478 . S
C371 C358 1.394 . S
C371 C370 1.478 . S
C371 C372 1.397 . S
C372 C371 1.397 . S
C372 C373 1.438 . S
C372 C377 1.429 . S
C373 C356 1.394 . S
C373 C372 1.438 . S
C373 C374 1.428 . S
C374 H366 0.949 . S
C374 C373 1.428 . S
C374 C375 1.345 . S
C375 H367 0.950 . S
C375 C374 1.345 . S
C375 C376 1.424 . S
C376 H368 0.951 . S
C376 C375 1.424 . S
C376 C377 1.347 . S
C377 H369 0.951 . S
C377 C372 1.429 . S
C377 C376 1.347 . S
H378 C379 0.951 . S
C379 H378 0.951 . S
C379 C385 1.265 . S
H380 C385 0.950 . S
H381 C389 0.949 . S
H382 C390 0.950 . S
H383 C391 0.951 1_554 S
H384 C392 0.951 . S
C385 C379 1.265 . S
C385 H380 0.950 . S
C385 C386 1.478 . S
C386 C385 1.478 . S
C386 C387 1.397 . S
C386 C403 1.394 . S
C387 C386 1.397 . S
C387 C388 1.438 . S
C387 C392 1.429 . S
C388 C387 1.438 . S
C388 C389 1.428 . S
C388 C401 1.394 . S
C389 H381 0.949 . S
C389 C388 1.428 . S
C389 C390 1.345 . S
C390 H382 0.950 . S
C390 C389 1.345 . S
C390 C391 1.424 . S
C391 H383 0.951 1_556 S
C391 C390 1.424 . S
C391 C392 1.347 . S
C392 H384 0.951 . S
C392 C387 1.429 . S
C392 C391 1.347 . S
H393 C394 0.951 . S
C394 H393 0.951 . S
C394 C400 1.265 . S
H395 C400 0.950 . S
H396 C404 0.949 . S
H397 C405 0.950 . S
H398 C406 0.951 . S
H399 C407 0.951 . S
C400 C394 1.265 . S
C400 H395 0.950 . S
C400 C401 1.478 . S
C401 C388 1.394 . S
C401 C400 1.478 . S
C401 C402 1.397 . S
C402 C401 1.397 . S
C402 C403 1.438 . S
C402 C407 1.429 . S
C403 C386 1.394 . S
C403 C402 1.438 . S
C403 C404 1.428 . S
C404 H396 0.949 . S
C404 C403 1.428 . S
C404 C405 1.345 . S
C405 H397 0.950 . S
C405 C404 1.345 . S
C405 C406 1.424 . S
C406 H398 0.951 . S
C406 C405 1.424 . S
C406 C407 1.347 . S
C407 H399 0.951 . S
C407 C402 1.429 . S
C407 C406 1.347 . S
H408 C409 0.951 . S
C409 H408 0.951 . S
C409 C415 1.265 . S
H410 C415 0.950 . S
H411 C419 0.949 . S
H412 C420 0.950 1_554 S
H413 C421 0.951 . S
H414 C422 0.951 . S
C415 C409 1.265 . S
C415 H410 0.950 . S
C415 C416 1.478 . S
C416 C415 1.478 . S
C416 C417 1.397 . S
C416 C433 1.394 . S
C417 C416 1.397 . S
C417 C418 1.438 . S
C417 C422 1.429 . S
C418 C417 1.438 . S
C418 C419 1.428 . S
C418 C431 1.394 . S
C419 H411 0.949 . S
C419 C418 1.428 . S
C419 C420 1.345 . S
C420 H412 0.950 1_556 S
C420 C419 1.345 . S
C420 C421 1.424 1_556 S
C421 H413 0.951 . S
C421 C420 1.424 1_554 S
C421 C422 1.347 1_554 S
C422 H414 0.951 . S
C422 C417 1.429 . S
C422 C421 1.347 1_556 S
H423 C424 0.951 . S
C424 H423 0.951 . S
C424 C430 1.265 . S
H425 C430 0.950 . S
H426 C434 0.949 . S
H427 C435 0.950 . S
H428 C436 0.951 . S
H429 C437 0.951 . S
C430 C424 1.265 . S
C430 H425 0.950 . S
C430 C431 1.478 . S
C431 C418 1.394 . S
C431 C430 1.478 . S
C431 C432 1.397 . S
C432 C431 1.397 . S
C432 C433 1.438 . S
C432 C437 1.429 . S
C433 C416 1.394 . S
C433 C432 1.438 . S
C433 C434 1.428 . S
C434 H426 0.949 . S
C434 C433 1.428 . S
C434 C435 1.345 . S
C435 H427 0.950 . S
C435 C434 1.345 . S
C435 C436 1.424 . S
C436 H428 0.951 . S
C436 C435 1.424 . S
C436 C437 1.347 . S
C437 H429 0.951 . S
C437 C432 1.429 . S
C437 C436 1.347 . S
H438 C439 0.951 . S
C439 H438 0.951 . S
C439 C445 1.265 . S
H440 C445 0.950 . S
H441 C449 0.949 . S
H442 C450 0.950 . S
H443 C451 0.951 . S
H444 C452 0.951 . S
C445 C439 1.265 . S
C445 H440 0.950 . S
C445 C446 1.478 . S
C446 C445 1.478 . S
C446 C447 1.397 . S
C446 C463 1.394 . S
C447 C446 1.397 . S
C447 C448 1.438 . S
C447 C452 1.429 . S
C448 C447 1.438 . S
C448 C449 1.428 . S
C448 C461 1.394 . S
C449 H441 0.949 . S
C449 C448 1.428 . S
C449 C450 1.345 . S
C450 H442 0.950 . S
C450 C449 1.345 . S
C450 C451 1.424 . S
C451 H443 0.951 . S
C451 C450 1.424 . S
C451 C452 1.347 . S
C452 H444 0.951 . S
C452 C447 1.429 . S
C452 C451 1.347 . S
H453 C454 0.951 1_455 S
C454 H453 0.951 1_655 S
C454 C460 1.265 . S
H455 C460 0.950 . S
H456 C464 0.949 . S
H457 C465 0.950 . S
H458 C466 0.951 . S
H459 C467 0.951 . S
C460 C454 1.265 . S
C460 H455 0.950 . S
C460 C461 1.478 . S
C461 C448 1.394 . S
C461 C460 1.478 . S
C461 C462 1.397 . S
C462 C461 1.397 . S
C462 C463 1.438 . S
C462 C467 1.429 . S
C463 C446 1.394 . S
C463 C462 1.438 . S
C463 C464 1.428 . S
C464 H456 0.949 . S
C464 C463 1.428 . S
C464 C465 1.345 . S
C465 H457 0.950 . S
C465 C464 1.345 . S
C465 C466 1.424 . S
C466 H458 0.951 . S
C466 C465 1.424 . S
C466 C467 1.347 . S
C467 H459 0.951 . S
C467 C462 1.429 . S
C467 C466 1.347 . S
H468 C469 0.951 . S
C469 H468 0.951 . S
C469 C475 1.265 . S
H470 C475 0.950 . S
H471 C479 0.949 . S
H472 C480 0.950 . S
H473 C481 0.951 . S
H474 C482 0.951 . S
C475 C469 1.265 . S
C475 H470 0.950 . S
C475 C476 1.478 . S
C476 C475 1.478 . S
C476 C477 1.397 . S
C476 C493 1.394 . S
C477 C476 1.397 . S
C477 C478 1.438 . S
C477 C482 1.429 . S
C478 C477 1.438 . S
C478 C479 1.428 . S
C478 C491 1.394 . S
C479 H471 0.949 . S
C479 C478 1.428 . S
C479 C480 1.345 . S
C480 H472 0.950 . S
C480 C479 1.345 . S
C480 C481 1.424 . S
C481 H473 0.951 . S
C481 C480 1.424 . S
C481 C482 1.347 . S
C482 H474 0.951 . S
C482 C477 1.429 . S
C482 C481 1.347 . S
H483 C484 0.951 . S
C484 H483 0.951 . S
C484 C490 1.265 . S
H485 C490 0.950 . S
H486 C494 0.949 . S
H487 C495 0.950 . S
H488 C496 0.951 . S
H489 C497 0.951 . S
C490 C484 1.265 . S
C490 H485 0.950 . S
C490 C491 1.478 . S
C491 C478 1.394 . S
C491 C490 1.478 . S
C491 C492 1.397 . S
C492 C491 1.397 . S
C492 C493 1.438 . S
C492 C497 1.429 . S
C493 C476 1.394 . S
C493 C492 1.438 . S
C493 C494 1.428 . S
C494 H486 0.949 . S
C494 C493 1.428 . S
C494 C495 1.345 . S
C495 H487 0.950 . S
C495 C494 1.345 . S
C495 C496 1.424 . S
C496 H488 0.951 . S
C496 C495 1.424 . S
C496 C497 1.347 . S
C497 H489 0.951 . S
C497 C492 1.429 . S
C497 C496 1.347 . S
H498 C499 0.951 . S
C499 H498 0.951 . S
C499 C505 1.265 . S
H500 C505 0.950 . S
H501 C509 0.949 . S
H502 C510 0.950 . S
H503 C511 0.951 . S
H504 C512 0.951 . S
C505 C499 1.265 . S
C505 H500 0.950 . S
C505 C506 1.478 . S
C506 C505 1.478 . S
C506 C507 1.397 . S
C506 C523 1.394 . S
C507 C506 1.397 . S
C507 C508 1.438 . S
C507 C512 1.429 . S
C508 C507 1.438 . S
C508 C509 1.428 . S
C508 C521 1.394 . S
C509 H501 0.949 . S
C509 C508 1.428 . S
C509 C510 1.345 . S
C510 H502 0.950 . S
C510 C509 1.345 . S
C510 C511 1.424 . S
C511 H503 0.951 . S
C511 C510 1.424 . S
C511 C512 1.347 . S
C512 H504 0.951 . S
C512 C507 1.429 . S
C512 C511 1.347 . S
H513 C514 0.951 . S
C514 H513 0.951 . S
C514 C520 1.265 . S
H515 C520 0.950 . S
H516 C524 0.949 . S
H517 C525 0.950 . S
H518 C526 0.951 . S
H519 C527 0.951 . S
C520 C514 1.265 . S
C520 H515 0.950 . S
C520 C521 1.478 . S
C521 C508 1.394 . S
C521 C520 1.478 . S
C521 C522 1.397 . S
C522 C521 1.397 . S
C522 C523 1.438 . S
C522 C527 1.429 . S
C523 C506 1.394 . S
C523 C522 1.438 . S
C523 C524 1.428 . S
C524 H516 0.949 . S
C524 C523 1.428 . S
C524 C525 1.345 . S
C525 H517 0.950 . S
C525 C524 1.345 . S
C525 C526 1.424 . S
C526 H518 0.951 . S
C526 C525 1.424 . S
C526 C527 1.347 . S
C527 H519 0.951 . S
C527 C522 1.429 . S
C527 C526 1.347 . S
H528 C529 0.951 . S
C529 H528 0.951 . S
C529 C535 1.265 . S
H530 C535 0.950 . S
H531 C539 0.949 . S
H532 C540 0.950 . S
H533 C541 0.951 . S
H534 C542 0.951 . S
C535 C529 1.265 . S
C535 H530 0.950 . S
C535 C536 1.478 . S
C536 C535 1.478 . S
C536 C537 1.397 . S
C536 C553 1.394 . S
C537 C536 1.397 . S
C537 C538 1.438 . S
C537 C542 1.429 . S
C538 C537 1.438 . S
C538 C539 1.428 . S
C538 C551 1.394 . S
C539 H531 0.949 . S
C539 C538 1.428 . S
C539 C540 1.345 . S
C540 H532 0.950 . S
C540 C539 1.345 . S
C540 C541 1.424 . S
C541 H533 0.951 . S
C541 C540 1.424 . S
C541 C542 1.347 . S
C542 H534 0.951 . S
C542 C537 1.429 . S
C542 C541 1.347 . S
H543 C544 0.951 . S
C544 H543 0.951 . S
C544 C550 1.265 . S
H545 C550 0.950 . S
H546 C554 0.949 . S
H547 C555 0.950 . S
H548 C556 0.951 . S
H549 C557 0.951 . S
C550 C544 1.265 . S
C550 H545 0.950 . S
C550 C551 1.478 . S
C551 C538 1.394 . S
C551 C550 1.478 . S
C551 C552 1.397 . S
C552 C551 1.397 . S
C552 C553 1.438 . S
C552 C557 1.429 . S
C553 C536 1.394 . S
C553 C552 1.438 . S
C553 C554 1.428 . S
C554 H546 0.949 . S
C554 C553 1.428 . S
C554 C555 1.345 . S
C555 H547 0.950 . S
C555 C554 1.345 . S
C555 C556 1.424 . S
C556 H548 0.951 . S
C556 C555 1.424 . S
C556 C557 1.347 . S
C557 H549 0.951 . S
C557 C552 1.429 . S
C557 C556 1.347 . S
C214 C163 1.376 . S
C199 C21 1.526 . S
C244 C159 1.425 . S
C229 C60 1.534 1_655 S
C274 C184 1.391 . S
C259 C99 1.539 . S
C289 C138 1.501 . S
C304 C180 1.444 . S
C319 C1 1.163 . S
C334 C181 0.951 . S
C364 C196 1.168 . S
C349 C40 1.239 . S
C379 C16 1.679 . S
C394 C197 1.492 . S
C424 C193 1.518 . S
C409 C55 1.693 . S
C454 C160 0.999 1_655 S
C439 C79 1.162 . S
C469 C118 1.180 . S
C484 C175 1.002 . S
C514 C176 1.604 . S
C499 C94 1.706 . S
C544 C172 1.520 . S
C529 C133 1.693 . S
