# Generated by pormake.
# Topology llk, (3,12)-cn, num edge types: 1
# Building blocks:
#     Node 0, Type 0, BuildingBlock: BETDAH_clean_linker_0, # of connection points: 3
#     Node 1, Type 0, BuildingBlock: BETDAH_clean_linker_0, # of connection points: 3
#     Node 2, Type 0, BuildingBlock: BETDAH_clean_linker_0, # of connection points: 3
#     Node 3, Type 0, BuildingBlock: BETDAH_clean_linker_0, # of connection points: 3
#     Node 4, Type 0, BuildingBlock: BETDAH_clean_linker_0, # of connection points: 3
#     Node 5, Type 0, BuildingBlock: BETDAH_clean_linker_0, # of connection points: 3
#     Node 6, Type 0, BuildingBlock: BETDAH_clean_linker_0, # of connection points: 3
#     Node 7, Type 0, BuildingBlock: BETDAH_clean_linker_0, # of connection points: 3
#     Node 8, Type 0, BuildingBlock: BETDAH_clean_linker_0, # of connection points: 3
#     Node 9, Type 0, BuildingBlock: BETDAH_clean_linker_0, # of connection points: 3
#     Node 10, Type 0, BuildingBlock: BETDAH_clean_linker_0, # of connection points: 3
#     Node 11, Type 0, BuildingBlock: BETDAH_clean_linker_0, # of connection points: 3
#     Node 12, Type 0, BuildingBlock: BETDAH_clean_linker_0, # of connection points: 3
#     Node 13, Type 0, BuildingBlock: BETDAH_clean_linker_0, # of connection points: 3
#     Node 14, Type 0, BuildingBlock: BETDAH_clean_linker_0, # of connection points: 3
#     Node 15, Type 0, BuildingBlock: BETDAH_clean_linker_0, # of connection points: 3
#     Node 16, Type 0, BuildingBlock: BETDAH_clean_linker_0, # of connection points: 3
#     Node 17, Type 0, BuildingBlock: BETDAH_clean_linker_0, # of connection points: 3
#     Node 18, Type 0, BuildingBlock: BETDAH_clean_linker_0, # of connection points: 3
#     Node 19, Type 0, BuildingBlock: BETDAH_clean_linker_0, # of connection points: 3
#     Node 20, Type 0, BuildingBlock: BETDAH_clean_linker_0, # of connection points: 3
#     Node 21, Type 0, BuildingBlock: BETDAH_clean_linker_0, # of connection points: 3
#     Node 22, Type 0, BuildingBlock: BETDAH_clean_linker_0, # of connection points: 3
#     Node 23, Type 0, BuildingBlock: BETDAH_clean_linker_0, # of connection points: 3
#     Node 24, Type 1, BuildingBlock: EZIPEK_clean_sbu_0, # of connection points: 12
#     Node 25, Type 1, BuildingBlock: EZIPEK_clean_sbu_0, # of connection points: 12
#     Node 26, Type 1, BuildingBlock: EZIPEK_clean_sbu_0, # of connection points: 12
#     Node 27, Type 1, BuildingBlock: EZIPEK_clean_sbu_0, # of connection points: 12
#     Node 28, Type 1, BuildingBlock: EZIPEK_clean_sbu_0, # of connection points: 12
#     Node 29, Type 1, BuildingBlock: EZIPEK_clean_sbu_0, # of connection points: 12
#     Edge 30, Type (0, 1), BuildingBlock: XIVTED_clean_linker_0, # of connection points: 2
#     Edge 31, Type (0, 1), BuildingBlock: XIVTED_clean_linker_0, # of connection points: 2
#     Edge 32, Type (0, 1), BuildingBlock: XIVTED_clean_linker_0, # of connection points: 2
#     Edge 33, Type (0, 1), BuildingBlock: XIVTED_clean_linker_0, # of connection points: 2
#     Edge 34, Type (0, 1), BuildingBlock: XIVTED_clean_linker_0, # of connection points: 2
#     Edge 35, Type (0, 1), BuildingBlock: XIVTED_clean_linker_0, # of connection points: 2
#     Edge 36, Type (0, 1), BuildingBlock: XIVTED_clean_linker_0, # of connection points: 2
#     Edge 37, Type (0, 1), BuildingBlock: XIVTED_clean_linker_0, # of connection points: 2
#     Edge 38, Type (0, 1), BuildingBlock: XIVTED_clean_linker_0, # of connection points: 2
#     Edge 39, Type (0, 1), BuildingBlock: XIVTED_clean_linker_0, # of connection points: 2
#     Edge 40, Type (0, 1), BuildingBlock: XIVTED_clean_linker_0, # of connection points: 2
#     Edge 41, Type (0, 1), BuildingBlock: XIVTED_clean_linker_0, # of connection points: 2
#     Edge 42, Type (0, 1), BuildingBlock: XIVTED_clean_linker_0, # of connection points: 2
#     Edge 43, Type (0, 1), BuildingBlock: XIVTED_clean_linker_0, # of connection points: 2
#     Edge 44, Type (0, 1), BuildingBlock: XIVTED_clean_linker_0, # of connection points: 2
#     Edge 45, Type (0, 1), BuildingBlock: XIVTED_clean_linker_0, # of connection points: 2
#     Edge 46, Type (0, 1), BuildingBlock: XIVTED_clean_linker_0, # of connection points: 2
#     Edge 47, Type (0, 1), BuildingBlock: XIVTED_clean_linker_0, # of connection points: 2
#     Edge 48, Type (0, 1), BuildingBlock: XIVTED_clean_linker_0, # of connection points: 2
#     Edge 49, Type (0, 1), BuildingBlock: XIVTED_clean_linker_0, # of connection points: 2
#     Edge 50, Type (0, 1), BuildingBlock: XIVTED_clean_linker_0, # of connection points: 2
#     Edge 51, Type (0, 1), BuildingBlock: XIVTED_clean_linker_0, # of connection points: 2
#     Edge 52, Type (0, 1), BuildingBlock: XIVTED_clean_linker_0, # of connection points: 2
#     Edge 53, Type (0, 1), BuildingBlock: XIVTED_clean_linker_0, # of connection points: 2
#     Edge 54, Type (0, 1), BuildingBlock: XIVTED_clean_linker_0, # of connection points: 2
#     Edge 55, Type (0, 1), BuildingBlock: XIVTED_clean_linker_0, # of connection points: 2
#     Edge 56, Type (0, 1), BuildingBlock: XIVTED_clean_linker_0, # of connection points: 2
#     Edge 57, Type (0, 1), BuildingBlock: XIVTED_clean_linker_0, # of connection points: 2
#     Edge 58, Type (0, 1), BuildingBlock: XIVTED_clean_linker_0, # of connection points: 2
#     Edge 59, Type (0, 1), BuildingBlock: XIVTED_clean_linker_0, # of connection points: 2
#     Edge 60, Type (0, 1), BuildingBlock: XIVTED_clean_linker_0, # of connection points: 2
#     Edge 61, Type (0, 1), BuildingBlock: XIVTED_clean_linker_0, # of connection points: 2
#     Edge 62, Type (0, 1), BuildingBlock: XIVTED_clean_linker_0, # of connection points: 2
#     Edge 63, Type (0, 1), BuildingBlock: XIVTED_clean_linker_0, # of connection points: 2
#     Edge 64, Type (0, 1), BuildingBlock: XIVTED_clean_linker_0, # of connection points: 2
#     Edge 65, Type (0, 1), BuildingBlock: XIVTED_clean_linker_0, # of connection points: 2
#     Edge 66, Type (0, 1), BuildingBlock: XIVTED_clean_linker_0, # of connection points: 2
#     Edge 67, Type (0, 1), BuildingBlock: XIVTED_clean_linker_0, # of connection points: 2
#     Edge 68, Type (0, 1), BuildingBlock: XIVTED_clean_linker_0, # of connection points: 2
#     Edge 69, Type (0, 1), BuildingBlock: XIVTED_clean_linker_0, # of connection points: 2
#     Edge 70, Type (0, 1), BuildingBlock: XIVTED_clean_linker_0, # of connection points: 2
#     Edge 71, Type (0, 1), BuildingBlock: XIVTED_clean_linker_0, # of connection points: 2
#     Edge 72, Type (0, 1), BuildingBlock: XIVTED_clean_linker_0, # of connection points: 2
#     Edge 73, Type (0, 1), BuildingBlock: XIVTED_clean_linker_0, # of connection points: 2
#     Edge 74, Type (0, 1), BuildingBlock: XIVTED_clean_linker_0, # of connection points: 2
#     Edge 75, Type (0, 1), BuildingBlock: XIVTED_clean_linker_0, # of connection points: 2
#     Edge 76, Type (0, 1), BuildingBlock: XIVTED_clean_linker_0, # of connection points: 2
#     Edge 77, Type (0, 1), BuildingBlock: XIVTED_clean_linker_0, # of connection points: 2
#     Edge 78, Type (0, 1), BuildingBlock: XIVTED_clean_linker_0, # of connection points: 2
#     Edge 79, Type (0, 1), BuildingBlock: XIVTED_clean_linker_0, # of connection points: 2
#     Edge 80, Type (0, 1), BuildingBlock: XIVTED_clean_linker_0, # of connection points: 2
#     Edge 81, Type (0, 1), BuildingBlock: XIVTED_clean_linker_0, # of connection points: 2
#     Edge 82, Type (0, 1), BuildingBlock: XIVTED_clean_linker_0, # of connection points: 2
#     Edge 83, Type (0, 1), BuildingBlock: XIVTED_clean_linker_0, # of connection points: 2
#     Edge 84, Type (0, 1), BuildingBlock: XIVTED_clean_linker_0, # of connection points: 2
#     Edge 85, Type (0, 1), BuildingBlock: XIVTED_clean_linker_0, # of connection points: 2
#     Edge 86, Type (0, 1), BuildingBlock: XIVTED_clean_linker_0, # of connection points: 2
#     Edge 87, Type (0, 1), BuildingBlock: XIVTED_clean_linker_0, # of connection points: 2
#     Edge 88, Type (0, 1), BuildingBlock: XIVTED_clean_linker_0, # of connection points: 2
#     Edge 89, Type (0, 1), BuildingBlock: XIVTED_clean_linker_0, # of connection points: 2
#     Edge 90, Type (0, 1), BuildingBlock: XIVTED_clean_linker_0, # of connection points: 2
#     Edge 91, Type (0, 1), BuildingBlock: XIVTED_clean_linker_0, # of connection points: 2
#     Edge 92, Type (0, 1), BuildingBlock: XIVTED_clean_linker_0, # of connection points: 2
#     Edge 93, Type (0, 1), BuildingBlock: XIVTED_clean_linker_0, # of connection points: 2
#     Edge 94, Type (0, 1), BuildingBlock: XIVTED_clean_linker_0, # of connection points: 2
#     Edge 95, Type (0, 1), BuildingBlock: XIVTED_clean_linker_0, # of connection points: 2
#     Edge 96, Type (0, 1), BuildingBlock: XIVTED_clean_linker_0, # of connection points: 2
#     Edge 97, Type (0, 1), BuildingBlock: XIVTED_clean_linker_0, # of connection points: 2
#     Edge 98, Type (0, 1), BuildingBlock: XIVTED_clean_linker_0, # of connection points: 2
#     Edge 99, Type (0, 1), BuildingBlock: XIVTED_clean_linker_0, # of connection points: 2
#     Edge 100, Type (0, 1), BuildingBlock: XIVTED_clean_linker_0, # of connection points: 2
#     Edge 101, Type (0, 1), BuildingBlock: XIVTED_clean_linker_0, # of connection points: 2
# Relax obj value: 0.069
# Max RMSD: 0.164
# Mean RMSD: 0.122
data_MOF--net-llk--node1-EZIPEK_clean_sbu_0--node2-BETDAH_clean_linker_0--edge1-XIVTED_clean_linker_0
_symmetry_space_group_name_H-M    P1
_symmetry_Int_Tables_number       1
_symmetry_cell_setting            triclinic
loop_
_symmetry_equiv_pos_as_xyz
'x, y, z'
_cell_length_a     47.421636
_cell_length_b     47.714966
_cell_length_c     48.011379
_cell_angle_alpha  90.0071
_cell_angle_beta   90.010348
_cell_angle_gamma 90.006102
loop_
_atom_site_label
_atom_site_type_symbol
_atom_site_fract_x
_atom_site_fract_y
_atom_site_fract_z
_atom_type_partial_charge
H0 H 0.00863 0.25238 0.3378 0.0
H1 H 0.00855 0.29477 0.25905 0.0
H2 H 0.02272 0.20556 0.26261 0.0
C3 C 0.01057 0.25166 0.31531 0.0
C4 C 0.01613 0.22601 0.30224 0.0
C5 C 0.00775 0.27647 0.29994 0.0
C6 C 0.01067 0.27559 0.27088 0.0
C7 C 0.01593 0.24993 0.25726 0.0
C8 C 0.01843 0.22523 0.27306 0.0
N9 N 0.01903 0.24825 0.22785 0.0
C10 C 0.01764 0.27124 0.21004 0.0
H11 H 0.67928 -0.00074 0.25638 0.0
H12 H 0.75852 0.00445 0.29904 0.0
H13 H 0.75657 0.99049 0.21039 0.0
C14 C 0.70213 0.99876 0.25586 0.0
C15 C 0.71596 0.99421 0.23046 0.0
C16 C 0.71731 0.00261 0.28061 0.0
C17 C 0.74685 0.00154 0.27991 0.0
C18 C 0.76112 0.99735 0.25449 0.0
C19 C 0.74555 0.99395 0.22987 0.0
N20 N 0.791 0.9964 0.25298 0.0
C21 C 0.80842 0.99685 0.27625 0.0
H22 H 0.02473 0.66773 0.25807 0.0
H23 H 0.01571 0.74541 0.30185 0.0
H24 H 0.01398 0.7443 0.21209 0.0
C25 C 0.02256 0.69035 0.25767 0.0
C26 C 0.02029 0.70413 0.23199 0.0
C27 C 0.02122 0.70507 0.28286 0.0
C28 C 0.01681 0.73411 0.28238 0.0
C29 C 0.01416 0.74841 0.25683 0.0
C30 C 0.0158 0.73327 0.23174 0.0
N31 N 0.01006 0.77792 0.2557 0.0
C32 C 0.00931 0.79518 0.27909 0.0
H33 H 0.26191 0.0025 0.33862 0.0
H34 H 0.30732 0.00332 0.26133 0.0
H35 H 0.21746 0.98963 0.26169 0.0
C36 C 0.26201 0.00087 0.3161 0.0
C37 C 0.23666 0.99558 0.30206 0.0
C38 C 0.28752 0.00381 0.30165 0.0
C39 C 0.28764 0.00116 0.27252 0.0
C40 C 0.26228 0.99621 0.25798 0.0
C41 C 0.23689 0.99369 0.27288 0.0
N42 N 0.26149 0.99348 0.22851 0.0
C43 C 0.28516 0.99392 0.21137 0.0
H44 H 0.02333 0.7478 0.67425 0.0
H45 H 0.01686 0.70256 0.75106 0.0
H46 H 0.01453 0.79291 0.75126 0.0
C47 C 0.0218 0.7479 0.69678 0.0
C48 C 0.01981 0.77352 0.71089 0.0
C49 C 0.02104 0.72232 0.71107 0.0
C50 C 0.01748 0.72232 0.74007 0.0
C51 C 0.01509 0.74783 0.75471 0.0
C52 C 0.01613 0.77332 0.73996 0.0
N53 N 0.01186 0.7486 0.78416 0.0
C54 C 0.01203 0.725 0.80126 0.0
H55 H 0.26154 -0.00036 0.67234 0.0
H56 H 0.30665 0.99619 0.74975 0.0
H57 H 0.21721 0.01246 0.74932 0.0
C58 C 0.26163 0.00087 0.69489 0.0
C59 C 0.2364 0.00654 0.70896 0.0
C60 C 0.28698 0.99697 0.70938 0.0
C61 C 0.28707 -0.00087 0.73854 0.0
C62 C 0.26184 0.00467 0.75307 0.0
C63 C 0.23657 0.00805 0.73815 0.0
N64 N 0.26114 0.00719 0.78254 0.0
C65 C 0.28488 0.00557 0.79948 0.0
H66 H 0.01485 0.33256 0.75358 0.0
H67 H 0.01599 0.25417 0.71003 0.0
H68 H 0.00321 0.25571 0.79892 0.0
C69 C 0.01342 0.30989 0.75392 0.0
C70 C 0.00859 0.29615 0.77928 0.0
C71 C 0.01614 0.29494 0.72894 0.0
C72 C 0.01388 0.26565 0.72933 0.0
C73 C 0.00932 0.25132 0.75458 0.0
C74 C 0.00696 0.2667 0.77951 0.0
N75 N 0.00681 0.22162 0.75553 0.0
C76 C 0.00725 0.20434 0.7321 0.0
H77 H 0.75938 0.99805 0.67608 0.0
H78 H 0.71691 0.00516 0.75456 0.0
H79 H 0.80628 0.98868 0.75208 0.0
C80 C 0.76005 0.9977 0.69866 0.0
C81 C 0.78566 0.99247 0.71216 0.0
C82 C 0.73529 0.0025 0.71377 0.0
C83 C 0.73612 0.00162 0.74294 0.0
C84 C 0.76188 0.99683 0.75687 0.0
C85 C 0.78655 0.99253 0.74135 0.0
N86 N 0.76377 0.99621 0.78636 0.0
C87 C 0.7405 0.9973 0.80387 0.0
H88 H 0.34118 0.2489 0.99444 0.0
H89 H 0.26438 0.29354 0.0102 0.0
H90 H 0.26543 0.20332 0.01345 0.0
C91 C 0.31873 0.24872 0.99868 0.0
C92 C 0.30499 0.22305 0.00276 0.0
C93 C 0.30427 0.27419 0.00115 0.0
C94 C 0.27558 0.27388 0.00826 0.0
C95 C 0.26153 0.24822 0.01282 0.0
C96 C 0.27638 0.22298 0.01016 0.0
N97 N 0.23255 0.24709 0.02007 0.0
C98 C 0.215 0.27034 0.01926 0.0
H99 H 0.34043 0.75016 0.99493 0.0
H100 H 0.26384 0.70535 0.01113 0.0
H101 H 0.26341 0.79557 0.00854 0.0
C102 C 0.31785 0.75022 0.99846 0.0
C103 C 0.30361 0.77586 1.00057 0.0
C104 C 0.30366 0.72471 0.00192 0.0
C105 C 0.27478 0.72501 0.00823 0.0
C106 C 0.26019 0.75067 0.01061 0.0
C107 C 0.27474 0.77592 0.00686 0.0
N108 N 0.23094 0.75183 0.01667 0.0
C109 C 0.21401 0.72817 0.01824 0.0
H110 H 0.76138 0.33094 0.00532 0.0
H111 H 0.71674 0.25283 1.00066 0.0
H112 H 0.8065 0.25346 0.01482 0.0
C113 C 0.76146 0.30823 0.00596 0.0
C114 C 0.78691 0.29407 0.01059 0.0
C115 C 0.73611 0.29359 0.00224 0.0
C116 C 0.73629 0.26419 0.00351 0.0
C117 C 0.76181 0.24964 0.00796 0.0
C118 C 0.78697 0.2647 0.01124 0.0
N119 N 0.76299 0.21995 0.00933 0.0
C120 C 0.73948 0.20271 0.00747 0.0
H121 H 0.76184 0.66835 0.99682 0.0
H122 H 0.71622 0.74496 0.00922 0.0
H123 H 0.80707 0.74495 0.01148 0.0
C124 C 0.76182 0.69085 1.00001 0.0
C125 C 0.78754 0.70494 0.00306 0.0
C126 C 0.73605 0.70506 0.002 0.0
C127 C 0.73609 0.73393 0.00766 0.0
C128 C 0.76181 0.74837 0.01117 0.0
C129 C 0.78736 0.73372 0.00901 0.0
N130 N 0.76279 0.77756 0.01679 0.0
C131 C 0.73943 0.79505 0.01535 0.0
H132 H 0.5254 0.75209 0.83656 0.0
H133 H 0.51733 0.7953 0.75876 0.0
H134 H 0.51425 0.705 0.76101 0.0
C135 C 0.5233 0.75139 0.81408 0.0
C136 C 0.52069 0.72542 0.80072 0.0
C137 C 0.52238 0.77658 0.79913 0.0
C138 C 0.51809 0.77583 0.77024 0.0
C139 C 0.51513 0.74996 0.75634 0.0
C140 C 0.51631 0.72488 0.77174 0.0
N141 N 0.51116 0.74843 0.72701 0.0
C142 C 0.51122 0.77155 0.70928 0.0
H143 H 0.17992 0.50992 0.75707 0.0
H144 H 0.25845 0.50241 0.80056 0.0
H145 H 0.25712 0.50141 0.71085 0.0
C146 C 0.20271 0.50823 0.7566 0.0
C147 C 0.21661 0.50642 0.73089 0.0
C148 C 0.21765 0.50712 0.78177 0.0
C149 C 0.24695 0.50335 0.78113 0.0
C150 C 0.26128 0.50125 0.75549 0.0
C151 C 0.24598 0.50274 0.73052 0.0
N152 N 0.291 0.49794 0.75409 0.0
C153 C 0.30825 0.49723 0.77747 0.0
H154 H 0.51416 0.16699 0.75882 0.0
H155 H 0.51448 0.24584 0.80164 0.0
H156 H 0.50066 0.2432 0.71294 0.0
C157 C 0.51231 0.18963 0.7583 0.0
C158 C 0.507 0.20307 0.73287 0.0
C159 C 0.51502 0.20486 0.78312 0.0
C160 C 0.51232 0.23412 0.78247 0.0
C161 C 0.50725 0.24809 0.75709 0.0
C162 C 0.50481 0.23245 0.73239 0.0
N163 N 0.5043 0.2777 0.75574 0.0
C164 C 0.50559 0.29525 0.77887 0.0
H165 H 0.76416 0.48701 0.83808 0.0
H166 H 0.80876 0.49579 0.76085 0.0
H167 H 0.71791 0.49916 0.76208 0.0
C168 C 0.76384 0.48937 0.81562 0.0
C169 C 0.73791 0.49218 0.80192 0.0
C170 C 0.78941 0.4904 0.80104 0.0
C171 C 0.78903 0.49498 0.77215 0.0
C172 C 0.76315 0.49821 0.75801 0.0
C173 C 0.73776 0.49693 0.77305 0.0
N174 N 0.76181 0.50261 0.72876 0.0
C175 C 0.78504 0.50184 0.71109 0.0
H176 H 0.52403 0.24617 0.17309 0.0
H177 H 0.5166 0.20232 0.25059 0.0
H178 H 0.51372 0.29264 0.24914 0.0
C179 C 0.52212 0.24668 0.19559 0.0
C180 C 0.51971 0.27255 0.20919 0.0
C181 C 0.5213 0.22137 0.21034 0.0
C182 C 0.51728 0.22188 0.23926 0.0
C183 C 0.51451 0.24762 0.25341 0.0
C184 C 0.51561 0.27285 0.23822 0.0
N185 N 0.51086 0.24888 0.28281 0.0
C186 C 0.51094 0.22555 0.30028 0.0
H187 H 0.76032 0.50017 0.17347 0.0
H188 H 0.80647 0.50585 0.25014 0.0
H189 H 0.71685 0.4905 0.25139 0.0
C190 C 0.76067 0.49967 0.19605 0.0
C191 C 0.73558 0.49469 0.2106 0.0
C192 C 0.78624 0.50384 0.21007 0.0
C193 C 0.78671 0.50273 0.23928 0.0
C194 C 0.76159 0.49804 0.25431 0.0
C195 C 0.73611 0.49428 0.23983 0.0
N196 N 0.76119 0.49682 0.28387 0.0
C197 C 0.78504 0.49931 0.30055 0.0
H198 H 0.51639 0.83245 0.25259 0.0
H199 H 0.51688 0.75382 0.20953 0.0
H200 H 0.50376 0.75601 0.29835 0.0
C201 C 0.51472 0.8098 0.25307 0.0
C202 C 0.50958 0.79626 0.27848 0.0
C203 C 0.5174 0.79466 0.22821 0.0
C204 C 0.51484 0.76541 0.22876 0.0
C205 C 0.51008 0.75127 0.25408 0.0
C206 C 0.5077 0.76683 0.2789 0.0
N207 N 0.50737 0.72159 0.25521 0.0
C208 C 0.50796 0.70418 0.23189 0.0
H209 H 0.26052 0.4989 0.17604 0.0
H210 H 0.21767 0.50294 0.25452 0.0
H211 H 0.30711 0.48678 0.25184 0.0
C212 C 0.26111 0.49777 0.1986 0.0
C213 C 0.28666 0.49206 0.212 0.0
C214 C 0.23625 0.50189 0.21375 0.0
C215 C 0.23695 0.49995 0.24289 0.0
C216 C 0.26266 0.49472 0.25676 0.0
C217 C 0.28742 0.49103 0.24118 0.0
N218 N 0.26441 0.49296 0.28623 0.0
C219 C 0.24119 0.49426 0.30383 0.0
H220 H 0.84116 0.74827 0.50656 0.0
H221 H 0.76254 0.79183 0.5149 0.0
H222 H 0.76328 0.70246 0.50189 0.0
C223 C 0.81831 0.74793 0.50707 0.0
C224 C 0.80409 0.72247 0.50344 0.0
C225 C 0.80353 0.77296 0.5114 0.0
C226 C 0.77396 0.77248 0.51163 0.0
C227 C 0.75938 0.7469 0.50838 0.0
C228 C 0.77457 0.72203 0.50458 0.0
N229 N 0.72952 0.74544 0.50878 0.0
C230 C 0.71238 0.76897 0.5081 0.0
H231 H 0.84032 0.24838 0.51275 0.0
H232 H 0.76224 0.20549 0.49829 0.0
H233 H 0.7653 0.29566 0.4951 0.0
C234 C 0.81783 0.24907 0.5088 0.0
C235 C 0.80461 0.27505 0.50503 0.0
C236 C 0.80273 0.22392 0.5066 0.0
C237 C 0.77393 0.22489 0.49998 0.0
C238 C 0.76039 0.25086 0.49569 0.0
C239 C 0.77588 0.27576 0.4981 0.0
N240 N 0.73128 0.25266 0.48909 0.0
C241 C 0.71311 0.22991 0.49055 0.0
H242 H 0.26145 0.83123 0.49076 0.0
H243 H 0.21633 0.75418 0.50224 0.0
H244 H 0.30717 0.75414 0.50045 0.0
C245 C 0.26152 0.80863 0.49308 0.0
C246 C 0.28734 0.79446 0.49452 0.0
C247 C 0.23583 0.79432 0.49555 0.0
C248 C 0.23611 0.76527 0.50023 0.0
C249 C 0.26193 0.75071 0.50205 0.0
C250 C 0.28738 0.76544 0.49926 0.0
N251 N 0.26313 0.72132 0.50656 0.0
C252 C 0.23955 0.7041 0.50816 0.0
H253 H 0.25944 0.16596 0.5043 0.0
H254 H 0.21588 0.2444 0.49771 0.0
H255 H 0.30541 0.24308 0.51322 0.0
C256 C 0.25984 0.18868 0.50463 0.0
C257 C 0.28534 0.20261 0.50957 0.0
C258 C 0.2348 0.20357 0.50019 0.0
C259 C 0.23528 0.23294 0.50102 0.0
C260 C 0.26088 0.24729 0.50551 0.0
C261 C 0.28581 0.232 0.50953 0.0
N262 N 0.26232 0.27699 0.50616 0.0
C263 C 0.23875 0.29425 0.50543 0.0
C264 C 0.01123 0.93005 0.57226 0.0
C265 C 0.00832 0.93264 0.4367 0.0
C266 C 0.00774 0.06555 0.57516 0.0
C267 C 0.00933 0.06825 0.43954 0.0
C268 C 0.93931 0.06581 0.50818 0.0
C269 C 0.94111 0.93061 0.50678 0.0
C270 C 0.07582 0.06805 0.50435 0.0
C271 C 0.0777 0.93186 0.50382 0.0
C272 C 0.07732 0.99854 0.43843 0.0
C273 C 0.94115 0.9987 0.43759 0.0
C274 C 0.07699 0.00105 0.57345 0.0
C275 C 0.94098 0.99569 0.5731 0.0
Eu276 Eu 0.00943 0.9459 0.50477 0.0
O277 O 0.98413 0.97425 0.4804 0.0
O278 O 0.03433 0.97377 0.53014 0.0
Eu279 Eu 0.95538 0.99841 0.50536 0.0
Eu280 Eu 0.06211 -0.00027 0.5059 0.0
O281 O 0.98414 0.97354 0.52972 0.0
O282 O 0.03413 0.97498 0.48077 0.0
Eu283 Eu 0.00891 0.998 0.55829 0.0
Eu284 Eu 0.00907 0.0002 0.4533 0.0
O285 O 0.98335 0.02309 0.53088 0.0
O286 O 0.98338 0.02451 0.48134 0.0
O287 O 0.03344 0.02485 0.4819 0.0
O288 O 0.03359 0.02399 0.53109 0.0
Eu289 Eu 0.008 0.05233 0.50707 0.0
O290 O 0.01171 0.92192 0.54562 0.0
O291 O 0.00857 0.92322 0.46295 0.0
O292 O 0.00822 0.07498 0.54892 0.0
O293 O 0.00863 0.07639 0.46619 0.0
O294 O 0.93099 0.03916 0.5065 0.0
O295 O 0.93212 0.95705 0.50531 0.0
O296 O 0.08473 0.0415 0.50336 0.0
O297 O 0.08603 0.95859 0.50503 0.0
O298 O 0.05059 -0.00023 0.42978 0.0
O299 O 0.96807 -0.00036 0.42971 0.0
O300 O 0.05025 -0.00084 0.58188 0.0
O301 O 0.96772 0.99652 0.58153 0.0
O302 O 0.04906 0.07635 0.5067 0.0
O303 O 0.96598 0.07478 0.50871 0.0
O304 O 0.05107 0.92288 0.50354 0.0
O305 O 0.96802 0.92236 0.50704 0.0
O306 O 0.00865 0.95956 0.42917 0.0
O307 O 0.00934 0.04176 0.43062 0.0
O308 O 0.00973 0.9565 0.58116 0.0
O309 O 0.00765 0.0386 0.58261 0.0
O310 O 0.93215 0.99616 0.54666 0.0
O311 O 0.93195 0.9984 0.46392 0.0
O312 O 0.08561 0.00162 0.54697 0.0
O313 O 0.08574 0.99836 0.46497 0.0
C314 C 0.51278 0.92838 0.06985 0.0
C315 C 0.51291 0.06402 0.07487 0.0
C316 C 0.51342 0.93346 0.93495 0.0
C317 C 0.51409 0.06897 0.93995 0.0
C318 C 0.57983 -0.0006 0.93799 0.0
C319 C 0.57939 0.99578 0.07241 0.0
C320 C 0.44265 0.00084 0.93782 0.0
C321 C 0.44263 0.9961 0.07249 0.0
C322 C 0.44303 0.06617 0.00637 0.0
C323 C 0.57986 0.0664 0.00604 0.0
C324 C 0.44302 0.93132 0.00118 0.0
C325 C 0.57983 0.93101 0.00414 0.0
Eu326 Eu 0.51101 0.99689 0.05775 0.0
O327 O 0.53616 0.02286 0.03077 0.0
O328 O 0.48621 0.97255 0.02906 0.0
Eu329 Eu 0.56421 0.99871 0.00521 0.0
Eu330 Eu 0.45837 0.99868 0.00516 0.0
O331 O 0.53595 0.97304 0.02888 0.0
O332 O 0.48627 0.0231 0.03071 0.0
Eu333 Eu 0.51142 0.94552 0.00311 0.0
Eu334 Eu 0.51146 0.05188 0.00673 0.0
O335 O 0.53621 0.97469 0.97937 0.0
O336 O 0.5362 0.02439 0.98106 0.0
O337 O 0.48642 0.02453 0.98099 0.0
O338 O 0.48647 0.97463 0.97936 0.0
Eu339 Eu 0.51129 0.00053 0.95208 0.0
O340 O 0.51276 0.95474 0.07918 0.0
O341 O 0.51176 0.03719 0.0826 0.0
O342 O 0.51149 0.96025 0.92725 0.0
O343 O 0.51372 0.04262 0.93063 0.0
O344 O 0.58791 0.99871 0.96457 0.0
O345 O 0.58802 0.99757 0.04603 0.0
O346 O 0.43462 -0.00034 0.96442 0.0
O347 O 0.43442 0.99699 0.04592 0.0
O348 O 0.46976 0.07499 0.00625 0.0
O349 O 0.55318 0.07532 0.00698 0.0
O350 O 0.46974 0.92256 1.00023 0.0
O351 O 0.55313 0.92208 0.00378 0.0
O352 O 0.46936 0.00172 0.92889 0.0
O353 O 0.55317 0.00038 0.92899 0.0
O354 O 0.46939 0.99595 0.08123 0.0
O355 O 0.55259 0.99522 0.08089 0.0
O356 O 0.51291 0.07351 0.04869 0.0
O357 O 0.51271 0.07688 0.96658 0.0
O358 O 0.51145 0.92051 0.0432 0.0
O359 O 0.51408 0.92399 0.96113 0.0
O360 O 0.58798 0.95775 0.00451 0.0
O361 O 0.588 0.03966 0.0053 0.0
O362 O 0.43452 0.95782 0.0036 0.0
O363 O 0.43451 0.03956 0.00655 0.0
C364 C 0.01317 0.42935 0.07288 0.0
C365 C 0.01339 0.43256 0.93807 0.0
C366 C 0.0127 0.56575 0.07563 0.0
C367 C 0.01411 0.5689 0.94104 0.0
C368 C 0.94516 0.56687 0.00506 0.0
C369 C 0.94544 0.43119 0.00805 0.0
C370 C 0.08108 0.56715 0.012 0.0
C371 C 0.0816 0.43108 0.00609 0.0
C372 C 0.08308 0.50259 0.9409 0.0
C373 C 0.94667 0.49787 0.93822 0.0
C374 C 0.08036 0.49923 0.076 0.0
C375 C 0.94449 0.50037 0.07367 0.0
Eu376 Eu 0.01353 0.44636 0.00576 0.0
O377 O 0.98895 0.47501 0.98129 0.0
O378 O 0.03844 0.47358 0.03174 0.0
Eu379 Eu 0.96013 0.49906 0.00619 0.0
Eu380 Eu 0.06713 0.49912 0.00795 0.0
O381 O 0.98806 0.4737 0.03087 0.0
O382 O 0.03918 0.47491 0.98195 0.0
Eu383 Eu 0.01272 0.49777 0.05979 0.0
Eu384 Eu 0.01443 0.50047 0.95422 0.0
O385 O 0.98791 0.5233 0.0321 0.0
O386 O 0.98863 0.52452 0.98225 0.0
O387 O 0.03901 0.5246 0.9833 0.0
O388 O 0.03786 0.52314 0.03246 0.0
Eu389 Eu 0.01312 0.55186 0.00817 0.0
O390 O 0.01372 0.42175 0.04612 0.0
O391 O 0.01316 0.42352 0.96437 0.0
O392 O 0.01158 0.57471 0.04936 0.0
O393 O 0.01416 0.57645 0.96782 0.0
O394 O 0.9366 0.54025 0.00358 0.0
O395 O 0.93685 0.45781 0.0086 0.0
O396 O 0.09037 0.54077 0.01017 0.0
O397 O 0.09069 0.45754 0.00789 0.0
O398 O 0.05639 0.50265 0.93206 0.0
O399 O 0.97346 0.50044 0.93017 0.0
O400 O 0.05349 0.49773 0.08396 0.0
O401 O 0.97106 0.49817 0.08249 0.0
O402 O 0.05419 0.5752 0.0115 0.0
O403 O 0.97179 0.57544 0.00759 0.0
O404 O 0.05473 0.42303 0.0048 0.0
O405 O 0.97216 0.42261 0.00617 0.0
O406 O 0.01413 0.45942 0.93011 0.0
O407 O 0.01405 0.54248 0.93173 0.0
O408 O 0.0126 0.45576 0.08216 0.0
O409 O 0.01371 0.53894 0.08371 0.0
O410 O 0.93619 0.50151 0.04708 0.0
O411 O 0.9376 0.49636 0.96454 0.0
O412 O 0.08959 0.49997 0.04971 0.0
O413 O 0.09154 0.50083 0.96737 0.0
C414 C 0.51035 0.43015 0.07162 0.0
C415 C 0.50921 0.5657 0.07479 0.0
C416 C 0.51052 0.43317 0.93597 0.0
C417 C 0.51105 0.56865 0.93917 0.0
C418 C 0.57851 0.50002 0.93791 0.0
C419 C 0.57811 0.49623 0.07296 0.0
C420 C 0.44244 0.4988 0.9374 0.0
C421 C 0.44214 0.49686 0.07285 0.0
C422 C 0.44167 0.56723 0.00503 0.0
C423 C 0.57819 0.56735 0.00653 0.0
C424 C 0.44117 0.43205 0.0031 0.0
C425 C 0.57795 0.43108 0.00231 0.0
Eu426 Eu 0.51003 0.4982 0.05774 0.0
O427 O 0.53529 0.52384 0.03068 0.0
O428 O 0.48486 0.47385 0.02932 0.0
Eu429 Eu 0.56341 0.49918 0.00541 0.0
Eu430 Eu 0.45664 0.49955 0.0052 0.0
O431 O 0.53494 0.4737 0.02935 0.0
O432 O 0.48483 0.52397 0.03064 0.0
Eu433 Eu 0.50981 0.44604 0.00407 0.0
Eu434 Eu 0.5101 0.55263 0.00669 0.0
O435 O 0.53504 0.47486 0.98021 0.0
O436 O 0.53524 0.52493 0.98143 0.0
O437 O 0.48512 0.52505 0.98115 0.0
O438 O 0.48512 0.47517 0.9801 0.0
Eu439 Eu 0.51038 0.50066 0.95292 0.0
O440 O 0.50964 0.45665 0.08049 0.0
O441 O 0.50963 0.53874 0.08219 0.0
O442 O 0.5111 0.46012 0.92857 0.0
O443 O 0.50962 0.54221 0.93027 0.0
O444 O 0.58706 0.49887 0.96439 0.0
O445 O 0.5868 0.49666 0.0465 0.0
O446 O 0.43321 0.49942 0.96372 0.0
O447 O 0.43332 0.49743 0.04643 0.0
O448 O 0.46848 0.5758 0.00489 0.0
O449 O 0.55149 0.57598 0.00794 0.0
O450 O 0.4679 0.42319 0.00263 0.0
O451 O 0.55119 0.42244 0.00296 0.0
O452 O 0.46935 0.49927 0.92949 0.0
O453 O 0.55177 0.50145 0.9294 0.0
O454 O 0.46891 0.49742 0.08123 0.0
O455 O 0.55133 0.49722 0.08141 0.0
O456 O 0.50923 0.57519 0.04856 0.0
O457 O 0.51201 0.57677 0.96582 0.0
O458 O 0.5107 0.42196 0.04497 0.0
O459 O 0.50979 0.42364 0.96216 0.0
O460 O 0.58661 0.45772 0.003 0.0
O461 O 0.58683 0.54071 0.0052 0.0
O462 O 0.43272 0.45866 0.00441 0.0
O463 O 0.43292 0.54067 0.00587 0.0
C464 C 0.01376 0.43046 0.57157 0.0
C465 C 0.0094 0.43278 0.4366 0.0
C466 C 0.01162 0.56599 0.57405 0.0
C467 C 0.01548 0.56842 0.43917 0.0
C468 C 0.94381 0.56724 0.50375 0.0
C469 C 0.94307 0.43217 0.50458 0.0
C470 C 0.08057 0.56681 0.50779 0.0
C471 C 0.07991 0.43143 0.50586 0.0
C472 C 0.08138 0.49874 0.43922 0.0
C473 C 0.94435 0.50199 0.43691 0.0
C474 C 0.07874 0.50021 0.57373 0.0
C475 C 0.94203 0.49832 0.57178 0.0
Eu476 Eu 0.01156 0.44624 0.5045 0.0
O477 O 0.9872 0.47505 0.47982 0.0
O478 O 0.03596 0.47409 0.53014 0.0
Eu479 Eu 0.95869 0.49965 0.50456 0.0
Eu480 Eu 0.06469 0.49912 0.50627 0.0
O481 O 0.98613 0.47402 0.52945 0.0
O482 O 0.03714 0.47453 0.48037 0.0
Eu483 Eu 0.01061 0.49864 0.55807 0.0
Eu484 Eu 0.01269 0.50016 0.45243 0.0
O485 O 0.9863 0.52441 0.5302 0.0
O486 O 0.98749 0.52475 0.48055 0.0
O487 O 0.03725 0.52461 0.48127 0.0
O488 O 0.03616 0.52374 0.53081 0.0
Eu489 Eu 0.0121 0.55256 0.50611 0.0
O490 O 0.01278 0.42206 0.54507 0.0
O491 O 0.00909 0.42382 0.46296 0.0
O492 O 0.0126 0.57501 0.54772 0.0
O493 O 0.01377 0.57675 0.46564 0.0
O494 O 0.93509 0.5407 0.50438 0.0
O495 O 0.93468 0.45879 0.50312 0.0
O496 O 0.08868 0.54004 0.50749 0.0
O497 O 0.08809 0.4581 0.50736 0.0
O498 O 0.05482 0.49917 0.42993 0.0
O499 O 0.97124 0.50191 0.42848 0.0
O500 O 0.0518 0.50054 0.5818 0.0
O501 O 0.96867 0.49781 0.58083 0.0
O502 O 0.05389 0.57579 0.50718 0.0
O503 O 0.97059 0.57585 0.50424 0.0
O504 O 0.05325 0.42257 0.5038 0.0
O505 O 0.96976 0.42334 0.50588 0.0
O506 O 0.01131 0.45942 0.42839 0.0
O507 O 0.0155 0.54191 0.43025 0.0
O508 O 0.01311 0.45699 0.5804 0.0
O509 O 0.01006 0.53931 0.58217 0.0
O510 O 0.93414 0.49906 0.54509 0.0
O511 O 0.93574 0.50105 0.46335 0.0
O512 O 0.08785 0.49904 0.54748 0.0
O513 O 0.08914 0.49878 0.46593 0.0
C514 C 0.51371 0.92933 0.57138 0.0
C515 C 0.51385 0.93337 0.43665 0.0
C516 C 0.51043 0.06548 0.57525 0.0
C517 C 0.51289 0.06974 0.44042 0.0
C518 C 0.44465 0.06667 0.50919 0.0
C519 C 0.44625 0.93091 0.50132 0.0
C520 C 0.58077 0.06839 0.50739 0.0
C521 C 0.58228 0.93238 0.50406 0.0
C522 C 0.58273 0.00356 0.43952 0.0
C523 C 0.44621 0.00298 0.43745 0.0
C524 C 0.58054 0.00115 0.5746 0.0
C525 C 0.44462 0.99441 0.57255 0.0
Eu526 Eu 0.51405 0.94685 0.50437 0.0
O527 O 0.48902 0.97532 0.48007 0.0
O528 O 0.53882 0.97409 0.53044 0.0
Eu529 Eu 0.46006 0.99896 0.5052 0.0
Eu530 Eu 0.56706 0.00015 0.50664 0.0
O531 O 0.48831 0.97371 0.52964 0.0
O532 O 0.53924 0.97582 0.48065 0.0
Eu533 Eu 0.51285 0.99781 0.55865 0.0
Eu534 Eu 0.51413 0.00121 0.45312 0.0
O535 O 0.48787 0.02323 0.53108 0.0
O536 O 0.48838 0.02491 0.48153 0.0
O537 O 0.5385 0.02531 0.48233 0.0
O538 O 0.53796 0.02388 0.53174 0.0
Eu539 Eu 0.51282 0.05236 0.50751 0.0
O540 O 0.51387 0.92186 0.54457 0.0
O541 O 0.51421 0.92423 0.46291 0.0
O542 O 0.51197 0.07482 0.54909 0.0
O543 O 0.51244 0.07718 0.46724 0.0
O544 O 0.4362 0.03996 0.50882 0.0
O545 O 0.43726 0.95743 0.50104 0.0
O546 O 0.59007 0.04197 0.50648 0.0
O547 O 0.59111 0.9589 0.50618 0.0
O548 O 0.556 0.00364 0.43079 0.0
O549 O 0.47306 0.00194 0.42922 0.0
O550 O 0.55372 -0.0008 0.58271 0.0
O551 O 0.47124 0.99579 0.58142 0.0
O552 O 0.5538 0.07623 0.50825 0.0
O553 O 0.4713 0.07547 0.50819 0.0
O554 O 0.5555 0.92402 0.50298 0.0
O555 O 0.47305 0.92267 0.50324 0.0
O556 O 0.51385 0.96027 0.42879 0.0
O557 O 0.51366 0.04338 0.43098 0.0
O558 O 0.51359 0.95569 0.58078 0.0
O559 O 0.5102 0.03856 0.58293 0.0
O560 O 0.43624 0.99484 0.54598 0.0
O561 O 0.43722 0.00262 0.46383 0.0
O562 O 0.58963 0.00176 0.54826 0.0
O563 O 0.59127 0.0017 0.46595 0.0
H564 H 0.22668 0.15961 0.46495 0.0
H565 H 0.07187 0.12335 0.51967 0.0
H566 H 0.18308 0.21139 0.52471 0.0
H567 H 0.12881 0.06324 0.48275 0.0
H568 H 0.10827 0.15951 0.51478 0.0
H569 H 0.18602 0.12836 0.46332 0.0
C570 C 0.20837 0.16452 0.47753 0.0
C571 C 0.20839 0.18778 0.4954 0.0
C572 C 0.11266 0.1384 0.50773 0.0
C573 C 0.16183 0.15213 0.49366 0.0
C574 C 0.09196 0.11776 0.51048 0.0
C575 C 0.09742 0.09017 0.50182 0.0
C576 C 0.13876 0.13142 0.49585 0.0
C577 C 0.12379 0.08412 0.49005 0.0
C578 C 0.18522 0.14667 0.47663 0.0
C579 C 0.1839 0.19359 0.51076 0.0
N580 N 0.14343 0.10459 0.48738 0.0
N581 N 0.16163 0.17564 0.50979 0.0
H582 H 0.79858 0.17569 0.47542 0.0
H583 H 0.94305 0.11704 0.5328 0.0
H584 H 0.84146 0.21093 0.54659 0.0
H585 H 0.88513 0.06352 0.48823 0.0
H586 H 0.90656 0.15291 0.53553 0.0
H587 H 0.82959 0.1346 0.47813 0.0
C588 C 0.81413 0.17456 0.4919 0.0
C589 C 0.81782 0.19698 0.51049 0.0
C590 C 0.90174 0.13326 0.5253 0.0
C591 C 0.85353 0.15055 0.51331 0.0
C592 C 0.92264 0.11287 0.52353 0.0
C593 C 0.91713 0.08736 0.51013 0.0
C594 C 0.87526 0.12834 0.51318 0.0
C595 C 0.89019 0.08293 0.49879 0.0
C596 C 0.83188 0.15121 0.49334 0.0
C597 C 0.83839 0.19446 0.53137 0.0
N598 N 0.87027 0.10339 0.50029 0.0
N599 N 0.85572 0.1719 0.53195 0.0
H600 H 0.79452 0.82421 0.48678 0.0
H601 H 0.94773 0.87757 0.52692 0.0
H602 H 0.84938 0.78139 0.54448 0.0
H603 H 0.88504 0.93345 0.49262 0.0
H604 H 0.91182 0.84143 0.53146 0.0
H605 H 0.8265 0.86471 0.48784 0.0
C606 C 0.81299 0.82355 0.50003 0.0
C607 C 0.81963 0.79928 0.51518 0.0
C608 C 0.90585 0.86163 0.52305 0.0
C609 C 0.85633 0.84502 0.51608 0.0
C610 C 0.92642 0.88222 0.52021 0.0
C611 C 0.91942 0.90853 0.50921 0.0
C612 C 0.87808 0.86718 0.5145 0.0
C613 C 0.89134 0.91344 0.50122 0.0
C614 C 0.83128 0.84655 0.50051 0.0
C615 C 0.84385 0.79945 0.53196 0.0
N616 N 0.87168 0.89284 0.50381 0.0
N617 N 0.86149 0.82177 0.53167 0.0
H618 H 0.18823 0.78943 0.5281 0.0
H619 H 0.13039 0.93778 0.48204 0.0
H620 H 0.22271 0.83618 0.45906 0.0
H621 H 0.07546 0.87702 0.52072 0.0
H622 H 0.16669 0.90181 0.47771 0.0
H623 H 0.14768 0.82146 0.52882 0.0
C624 C 0.18707 0.8061 0.51283 0.0
C625 C 0.20913 0.81046 0.49382 0.0
C626 C 0.14665 0.89631 0.48706 0.0
C627 C 0.16339 0.84731 0.49499 0.0
C628 C 0.12603 0.91689 0.48976 0.0
C629 C 0.09993 0.91036 0.5018 0.0
C630 C 0.14135 0.86911 0.49691 0.0
C631 C 0.09531 0.88286 0.5112 0.0
C632 C 0.16404 0.82442 0.51337 0.0
C633 C 0.20658 0.83248 0.47458 0.0
N634 N 0.11595 0.86322 0.50878 0.0
N635 N 0.18438 0.8503 0.47593 0.0
H636 H 0.55957 0.20912 0.16989 0.0
H637 H 0.4948 0.06034 0.12907 0.0
H638 H 0.48989 0.1731 0.21528 0.0
H639 H 0.53714 0.11558 0.07141 0.0
H640 H 0.49972 0.09621 0.16551 0.0
H641 H 0.55947 0.16868 0.13886 0.0
C642 C 0.54438 0.19254 0.17344 0.0
C643 C 0.52431 0.19471 0.19479 0.0
C644 C 0.50793 0.10032 0.14486 0.0
C645 C 0.5242 0.14833 0.15945 0.0
C646 C 0.50518 0.07994 0.12412 0.0
C647 C 0.51538 0.08514 0.09715 0.0
C648 C 0.52147 0.12571 0.13862 0.0
C649 C 0.52864 0.11084 0.0918 0.0
C650 C 0.54433 0.16951 0.15573 0.0
C651 C 0.50562 0.17227 0.19896 0.0
N652 N 0.53138 0.1301 0.11238 0.0
N653 N 0.5058 0.15003 0.1812 0.0
H654 H 0.79319 0.53844 0.16539 0.0
H655 H 0.94814 0.48464 0.12845 0.0
H656 H 0.83818 0.47929 0.21684 0.0
H657 H 0.89086 0.52087 0.06846 0.0
H658 H 0.91162 0.48891 0.16419 0.0
H659 H 0.83307 0.53955 0.13333 0.0
C660 C 0.81161 0.52586 0.17005 0.0
C661 C 0.81221 0.50835 0.19353 0.0
C662 C 0.90713 0.49593 0.1432 0.0
C663 C 0.85793 0.5096 0.15696 0.0
C664 C 0.92793 0.49355 0.12278 0.0
C665 C 0.92249 0.5023 0.09536 0.0
C666 C 0.88088 0.5075 0.13623 0.0
C667 C 0.8959 0.5136 0.08923 0.0
C668 C 0.83432 0.52648 0.15173 0.0
C669 C 0.83686 0.49303 0.19894 0.0
N670 N 0.87612 0.51594 0.10953 0.0
N671 N 0.85871 0.49379 0.1806 0.0
H672 H 0.55433 0.83732 0.21849 0.0
H673 H 0.49672 0.87312 0.06618 0.0
H674 H 0.49069 0.78713 0.17799 0.0
H675 H 0.53577 0.93298 0.12155 0.0
H676 H 0.50166 0.83707 0.1024 0.0
H677 H 0.55602 0.86773 0.17771 0.0
C678 C 0.54087 0.83259 0.20087 0.0
C679 C 0.52193 0.81004 0.2018 0.0
C680 C 0.50918 0.85811 0.10646 0.0
C681 C 0.5238 0.8447 0.15507 0.0
C682 C 0.5064 0.87864 0.08587 0.0
C683 C 0.51556 0.90615 0.09101 0.0
C684 C 0.52166 0.86512 0.13204 0.0
C685 C 0.528 0.91218 0.11682 0.0
C686 C 0.54184 0.84994 0.17763 0.0
C687 C 0.5055 0.80439 0.17812 0.0
N688 N 0.53071 0.89183 0.13632 0.0
N689 N 0.50656 0.82185 0.15574 0.0
H690 H 0.22786 0.5395 0.172 0.0
H691 H 0.07541 0.48228 0.13032 0.0
H692 H 0.18489 0.47612 0.21998 0.0
H693 H 0.13344 0.52114 0.07276 0.0
H694 H 0.11075 0.48692 0.16728 0.0
H695 H 0.18785 0.5413 0.1401 0.0
C696 C 0.20976 0.52624 0.176 0.0
C697 C 0.20981 0.50726 0.19831 0.0
C698 C 0.11564 0.49444 0.14655 0.0
C699 C 0.16409 0.50912 0.16187 0.0
C700 C 0.09555 0.49182 0.12546 0.0
C701 C 0.10161 0.50116 0.09836 0.0
C702 C 0.14173 0.50689 0.14056 0.0
C703 C 0.128 0.51333 0.09324 0.0
C704 C 0.18702 0.5272 0.15776 0.0
C705 C 0.18565 0.49095 0.20293 0.0
N706 N 0.14705 0.51591 0.11417 0.0
N707 N 0.16379 0.49199 0.1846 0.0
H708 H 0.56112 0.78928 0.83901 0.0
H709 H 0.49479 0.93704 0.88092 0.0
H710 H 0.49055 0.82456 0.7944 0.0
H711 H 0.53836 0.88217 0.93804 0.0
H712 H 0.49991 0.90141 0.8443 0.0
H713 H 0.56089 0.82967 0.87012 0.0
C714 C 0.54573 0.80571 0.83562 0.0
C715 C 0.52543 0.80333 0.81449 0.0
C716 C 0.50835 0.89733 0.86487 0.0
C717 C 0.52514 0.84963 0.84994 0.0
C718 C 0.50549 0.91757 0.88572 0.0
C719 C 0.51599 0.91242 0.9126 0.0
C720 C 0.5223 0.87212 0.8709 0.0
C721 C 0.52964 0.88688 0.91773 0.0
C722 C 0.54559 0.8287 0.85339 0.0
C723 C 0.50645 0.82556 0.81054 0.0
N724 N 0.53248 0.86775 0.89705 0.0
N725 N 0.50655 0.84775 0.82836 0.0
H726 H 0.22414 0.47631 0.82986 0.0
H727 H 0.07783 0.5278 0.89046 0.0
H728 H 0.17567 0.54401 0.79431 0.0
H729 H 0.13806 0.48429 0.94221 0.0
H730 H 0.11335 0.53181 0.85415 0.0
H731 H 0.19359 0.47756 0.87114 0.0
C732 C 0.20738 0.49169 0.83092 0.0
C733 C 0.20208 0.50974 0.80842 0.0
C734 C 0.11893 0.52151 0.87349 0.0
C735 C 0.16701 0.51095 0.85513 0.0
C736 C 0.09856 0.51901 0.89415 0.0
C737 C 0.10496 0.50549 0.91928 0.0
C738 C 0.14584 0.51004 0.87772 0.0
C739 C 0.13231 0.49488 0.92309 0.0
C740 C 0.18993 0.49231 0.85439 0.0
C741 C 0.18004 0.52921 0.81084 0.0
N742 N 0.15175 0.49709 0.90234 0.0
N743 N 0.16314 0.52905 0.83358 0.0
H744 H 0.48872 0.21271 0.83354 0.0
H745 H 0.53822 0.06428 0.88882 0.0
H746 H 0.5518 0.16201 0.79283 0.0
H747 H 0.49723 0.12405 0.94285 0.0
H748 H 0.54244 0.10031 0.85326 0.0
H749 H 0.49153 0.18186 0.87435 0.0
C750 C 0.50353 0.19542 0.8334 0.0
C751 C 0.51969 0.18957 0.8096 0.0
C752 C 0.53267 0.10568 0.87293 0.0
C753 C 0.52262 0.15411 0.85578 0.0
C754 C 0.53003 0.08502 0.89318 0.0
C755 C 0.5171 0.09112 0.91872 0.0
C756 C 0.52195 0.13262 0.87801 0.0
C757 C 0.50731 0.1185 0.92339 0.0
C758 C 0.50501 0.17777 0.8566 0.0
C759 C 0.53845 0.16686 0.81047 0.0
N760 N 0.50964 0.13823 0.90305 0.0
N761 N 0.53912 0.14977 0.833 0.0
H762 H 0.80151 0.45187 0.84116 0.0
H763 H 0.95006 0.51713 0.88449 0.0
H764 H 0.83788 0.5219 0.79707 0.0
H765 H 0.89474 0.47339 0.94118 0.0
H766 H 0.91424 0.51257 0.84787 0.0
H767 H 0.84163 0.45207 0.87294 0.0
C768 C 0.81812 0.46715 0.83802 0.0
C769 C 0.81611 0.48728 0.8168 0.0
C770 C 0.91007 0.50399 0.86834 0.0
C771 C 0.86214 0.4875 0.85304 0.0
C772 C 0.93044 0.50652 0.88922 0.0
C773 C 0.92527 0.49576 0.91598 0.0
C774 C 0.88466 0.49013 0.87418 0.0
C775 C 0.8995 0.48227 0.92096 0.0
C776 C 0.84095 0.46727 0.85619 0.0
C777 C 0.83858 0.5061 0.81323 0.0
N778 N 0.88022 0.47975 0.90023 0.0
N779 N 0.86063 0.50595 0.8314 0.0
H780 H 0.72393 0.66508 0.9632 0.0
H781 H 0.57514 0.62101 0.02667 0.0
H782 H 0.68788 0.70808 0.03383 0.0
H783 H 0.63068 0.56394 0.98352 0.0
H784 H 0.61138 0.65755 0.02323 0.0
H785 H 0.68399 0.63289 0.9632 0.0
C786 C 0.70746 0.66788 0.9786 0.0
C787 C 0.7095 0.68893 0.99892 0.0
C788 C 0.61552 0.63701 0.01455 0.0
C789 C 0.66365 0.65227 0.99885 0.0
C790 C 0.59493 0.61618 0.01646 0.0
C791 C 0.60001 0.58936 0.00548 0.0
C792 C 0.64107 0.63107 0.00109 0.0
C793 C 0.62599 0.58421 0.99253 0.0
C794 C 0.68473 0.64948 0.97858 0.0
C795 C 0.68717 0.69208 0.01786 0.0
N796 N 0.64549 0.60493 0.99057 0.0
N797 N 0.66519 0.67373 0.01753 0.0
H798 H 0.30026 0.67764 0.03499 0.0
H799 H 0.44647 0.61912 0.98198 0.0
H800 H 0.34382 0.71131 0.96346 0.0
H801 H 0.38714 0.56505 0.024 0.0
H802 H 0.41018 0.65517 0.97887 0.0
H803 H 0.33208 0.63707 0.03416 0.0
C804 C 0.31617 0.6763 0.01887 0.0
C805 C 0.31973 0.69813 0.99957 0.0
C806 C 0.40505 0.63537 0.98866 0.0
C807 C 0.35635 0.65233 0.99893 0.0
C808 C 0.42582 0.61488 0.99066 0.0
C809 C 0.41981 0.58912 0.00336 0.0
C810 C 0.37819 0.63029 0.99986 0.0
C811 C 0.39258 0.58464 0.01397 0.0
C812 C 0.33437 0.65325 0.0185 0.0
C813 C 0.3408 0.69535 0.97922 0.0
N814 N 0.37276 0.60518 0.01223 0.0
N815 N 0.35855 0.67311 0.97968 0.0
H816 H 0.34311 0.28651 0.96101 0.0
H817 H 0.38727 0.43507 0.02323 0.0
H818 H 0.30146 0.32227 0.03263 0.0
H819 H 0.44437 0.38038 0.97905 0.0
H820 H 0.35058 0.39895 0.01995 0.0
H821 H 0.3748 0.32676 0.95972 0.0
C822 C 0.34049 0.30296 0.97634 0.0
C823 C 0.32 0.30076 0.99733 0.0
C824 C 0.37114 0.39499 0.01096 0.0
C825 C 0.35601 0.34696 0.99574 0.0
C826 C 0.39203 0.41552 0.01276 0.0
C827 C 0.41892 0.41057 0.00153 0.0
C828 C 0.3771 0.36965 0.99737 0.0
C829 C 0.42403 0.3849 0.98827 0.0
C830 C 0.35858 0.32589 0.97558 0.0
C831 C 0.31701 0.32309 0.01615 0.0
N832 N 0.40326 0.36544 0.98645 0.0
N833 N 0.33505 0.34523 0.01508 0.0
H834 H 0.6842 0.28564 0.02657 0.0
H835 H 0.63145 0.43703 0.98235 0.0
H836 H 0.72811 0.33835 0.96781 0.0
H837 H 0.57456 0.37556 0.01699 0.0
H838 H 0.66776 0.40111 0.97883 0.0
H839 H 0.6436 0.3175 0.02418 0.0
C840 C 0.6851 0.30361 0.01281 0.0
C841 C 0.70972 0.30966 0.99774 0.0
C842 C 0.64729 0.39539 0.98707 0.0
C843 C 0.66381 0.34628 0.99534 0.0
C844 C 0.62661 0.41597 0.98929 0.0
C845 C 0.59998 0.40932 1.0001 0.0
C846 C 0.64152 0.36799 0.99609 0.0
C847 C 0.59482 0.38156 0.00847 0.0
C848 C 0.66203 0.32184 0.01158 0.0
C849 C 0.70981 0.33328 0.98032 0.0
N850 N 0.61552 0.36192 0.00653 0.0
N851 N 0.6874 0.3509 0.97989 0.0
H852 H 0.0585 0.71065 0.66971 0.0
H853 H 0.99319 0.56243 0.62813 0.0
H854 H 0.9894 0.67416 0.71561 0.0
H855 H 0.035 0.61801 0.5704 0.0
H856 H -0.00196 0.59821 0.66459 0.0
H857 H 0.05759 0.67083 0.63792 0.0
C858 C 0.04326 0.6941 0.67321 0.0
C859 C 0.0236 0.69596 0.69496 0.0
C860 C 0.00611 0.60245 0.64391 0.0
C861 C 0.02258 0.65027 0.65873 0.0
C862 C 0.00339 0.58212 0.62314 0.0
C863 C 0.01354 0.58738 0.59615 0.0
C864 C 0.01956 0.62787 0.63771 0.0
C865 C 0.02656 0.6132 0.5908 0.0
C866 C 0.04274 0.67142 0.65505 0.0
C867 C 0.00483 0.67356 0.69901 0.0
N868 N 0.0293 0.63241 0.61142 0.0
N869 N 0.00458 0.65166 0.68083 0.0
H870 H 0.33928 0.02063 0.71679 0.0
H871 H 0.39105 0.97413 0.56666 0.0
H872 H 0.29418 0.96153 0.6653 0.0
H873 H 0.44802 0.00927 0.62757 0.0
H874 H 0.35472 0.9709 0.60249 0.0
H875 H 0.37964 0.01718 0.68506 0.0
C876 C 0.33807 0.00655 0.69912 0.0
C877 C 0.31319 0.99171 0.69338 0.0
C878 C 0.37524 0.97914 0.60807 0.0
C879 C 0.35886 0.98815 0.65685 0.0
C880 C 0.39592 0.9812 0.58756 0.0
C881 C 0.42256 0.99208 0.59411 0.0
C882 C 0.38108 0.98842 0.63523 0.0
C883 C 0.42777 0.00066 0.62164 0.0
C884 C 0.36101 0.00473 0.68095 0.0
C885 C 0.31271 0.97388 0.67012 0.0
N886 N 0.40711 0.99888 0.64117 0.0
N887 N 0.33502 0.9729 0.65251 0.0
H888 H 0.98985 0.28686 0.67855 0.0
H889 H 0.03633 0.43625 0.62334 0.0
H890 H 0.05192 0.33869 0.71944 0.0
H891 H -0.00192 0.37508 0.56887 0.0
H892 H 0.04067 0.40056 0.65926 0.0
H893 H 0.99205 0.31787 0.63784 0.0
C894 C 0.0043 0.30444 0.67876 0.0
C895 C 0.02036 0.31053 0.70257 0.0
C896 C 0.03147 0.39483 0.63941 0.0
C897 C 0.02257 0.34618 0.65651 0.0
C898 C 0.02876 0.41529 0.61896 0.0
C899 C 0.01662 0.40867 0.59316 0.0
C900 C 0.02161 0.36758 0.63425 0.0
C901 C 0.00757 0.38103 0.58851 0.0
C902 C 0.00543 0.32218 0.65562 0.0
C903 C 0.03864 0.33364 0.70179 0.0
N904 N 0.00997 0.3615 0.60901 0.0
N905 N 0.03896 0.35081 0.67931 0.0
H906 H 0.68354 0.97782 0.72125 0.0
H907 H 0.63349 0.02308 0.57035 0.0
H908 H 0.72723 0.03867 0.67072 0.0
H909 H 0.57622 0.98529 0.62935 0.0
H910 H 0.66852 0.02761 0.60717 0.0
H911 H 0.64336 0.98019 0.68904 0.0
C912 C 0.68439 0.99211 0.70374 0.0
C913 C 0.70883 0.00771 0.69829 0.0
C914 C 0.64823 0.01846 0.61214 0.0
C915 C 0.66355 0.01008 0.66129 0.0
C916 C 0.62831 0.01563 0.59104 0.0
C917 C 0.60197 0.00363 0.59674 0.0
C918 C 0.64197 0.00888 0.6391 0.0
C919 C 0.5963 0.99468 0.62406 0.0
C920 C 0.66159 0.99332 0.6853 0.0
C921 C 0.70897 0.02583 0.67529 0.0
N922 N 0.61626 0.99725 0.64422 0.0
N923 N 0.68687 0.02621 0.65742 0.0
H924 H 0.03442 0.32706 0.29266 0.0
H925 H 0.98634 0.38067 0.44125 0.0
H926 H 0.97033 0.28628 0.34192 0.0
H927 H 0.02587 0.43615 0.38188 0.0
H928 H 0.98189 0.34528 0.40495 0.0
H929 H 0.03204 0.36765 0.324 0.0
C930 C 0.01945 0.3269 0.3097 0.0
C931 C 0.0029 0.30312 0.31504 0.0
C932 C 0.99139 0.36525 0.39978 0.0
C933 C 0.00053 0.34896 0.3511 0.0
C934 C 0.99417 0.38538 0.42057 0.0
C935 C 0.00667 0.41132 0.41462 0.0
C936 C 0.00156 0.37086 0.37288 0.0
C937 C 0.01609 0.41639 0.38734 0.0
C938 C 0.01823 0.34995 0.32765 0.0
C939 C 0.98394 0.30394 0.33746 0.0
N940 N 0.0136 0.3962 0.36749 0.0
N941 N 0.98358 0.32627 0.35489 0.0
H942 H 0.72642 0.97821 0.3317 0.0
H943 H 0.57689 0.02668 0.38806 0.0
H944 H 0.67273 0.03753 0.2894 0.0
H945 H 0.6383 0.98721 0.44165 0.0
H946 H 0.61235 0.03025 0.35169 0.0
H947 H 0.69579 0.98146 0.37279 0.0
C948 C 0.70848 0.99225 0.33124 0.0
C949 C 0.70177 0.00725 0.30698 0.0
C950 C 0.61821 0.02094 0.37144 0.0
C951 C 0.66661 0.01073 0.3535 0.0
C952 C 0.59787 0.01869 0.39216 0.0
C953 C 0.60458 0.00636 0.41783 0.0
C954 C 0.64545 0.01046 0.37616 0.0
C955 C 0.63226 0.99682 0.42211 0.0
C956 C 0.69097 0.994 0.35461 0.0
C957 C 0.67827 0.02508 0.30744 0.0
N958 N 0.65167 0.99879 0.40133 0.0
N959 N 0.66137 0.02606 0.33017 0.0
H960 H 0.98964 0.71046 0.33064 0.0
H961 H 0.04057 0.56381 0.38845 0.0
H962 H 0.05907 0.66399 0.29535 0.0
H963 H -0.00284 0.62292 0.44136 0.0
H964 H 0.04503 0.59997 0.35292 0.0
H965 H 0.99048 0.67918 0.37123 0.0
C966 C 0.00534 0.69401 0.33165 0.0
C967 C 0.02397 0.68945 0.30939 0.0
C968 C 0.03466 0.60512 0.37236 0.0
C969 C 0.02468 0.65352 0.35524 0.0
C970 C 0.03189 0.58441 0.39254 0.0
C971 C 0.01832 0.59036 0.41778 0.0
C972 C 0.0234 0.63188 0.3772 0.0
C973 C 0.00781 0.61753 0.42214 0.0
C974 C 0.00573 0.67613 0.35472 0.0
C975 C 0.04384 0.66779 0.31172 0.0
N976 N 0.01031 0.63729 0.40188 0.0
N977 N 0.04341 0.6504 0.33401 0.0
H978 H 0.29552 0.04035 0.34464 0.0
H979 H 0.4505 0.98723 0.38266 0.0
H980 H 0.33916 0.97835 0.29542 0.0
H981 H 0.39277 0.0238 0.44197 0.0
H982 H 0.41401 0.9909 0.34666 0.0
H983 H 0.33581 0.04246 0.37614 0.0
C984 C 0.31372 0.02733 0.34034 0.0
C985 C 0.31379 0.00873 0.31769 0.0
C986 C 0.40945 0.99817 0.36755 0.0
C987 C 0.36004 0.01117 0.35361 0.0
C988 C 0.43022 0.99615 0.38809 0.0
C989 C 0.42458 0.00509 0.41541 0.0
C990 C 0.38308 0.00962 0.37432 0.0
C991 C 0.39794 0.01637 0.42128 0.0
C992 C 0.33668 0.02854 0.35834 0.0
C993 C 0.33823 0.99291 0.31269 0.0
N994 N 0.37822 0.01838 0.40089 0.0
N995 N 0.36034 0.99427 0.33071 0.0
H996 H 0.04637 0.22058 0.35026 0.0
H997 H 0.99683 0.06415 0.3838 0.0
H998 H 0.99323 0.17351 0.29427 0.0
H999 H 0.02606 0.12278 0.44597 0.0
H1000 H 0.00109 0.10092 0.34843 0.0
H1001 H 0.04584 0.18135 0.38275 0.0
C1002 C 0.03469 0.20187 0.34473 0.0
C1003 C 0.01939 0.20051 0.31972 0.0
C1004 C 0.00653 0.10567 0.36983 0.0
C1005 C 0.01884 0.15535 0.35688 0.0
C1006 C 0.00415 0.08472 0.39005 0.0
C1007 C 0.01099 0.09041 0.41798 0.0
C1008 C 0.01621 0.13236 0.37751 0.0
C1009 C 0.02029 0.11747 0.4248 0.0
C1010 C 0.03438 0.1795 0.36332 0.0
C1011 C 0.00526 0.17545 0.31334 0.0
N1012 N 0.02273 0.13736 0.40471 0.0
N1013 N 0.00513 0.15388 0.33193 0.0
H1014 H 0.86093 0.97596 0.27778 0.0
H1015 H 0.88426 0.01064 0.43961 0.0
H1016 H 0.79801 0.0169 0.32812 0.0
H1017 H 0.95022 0.98392 0.38353 0.0
H1018 H 0.85085 0.00957 0.40054 0.0
H1019 H 0.89277 0.97528 0.31793 0.0
C1020 C 0.85392 0.98479 0.29739 0.0
C1021 C 0.82706 0.9965 0.2999 0.0
C1022 C 0.87266 0.00396 0.3969 0.0
C1023 C 0.86302 0.99581 0.34581 0.0
C1024 C 0.89169 0.00446 0.41918 0.0
C1025 C 0.92013 0.99756 0.41483 0.0
C1026 C 0.88215 0.99623 0.37023 0.0
C1027 C 0.92861 0.98975 0.38789 0.0
C1028 C 0.87201 0.98443 0.32028 0.0
C1029 C 0.81868 0.00763 0.32557 0.0
N1030 N 0.90973 0.98929 0.3667 0.0
N1031 N 0.83665 0.00702 0.34766 0.0
H1032 H 0.02106 0.78331 0.33324 0.0
H1033 H -0.00151 0.9424 0.38138 0.0
H1034 H 0.99598 0.84997 0.27804 0.0
H1035 H 0.01621 0.87535 0.43926 0.0
H1036 H -0.00188 0.90865 0.34351 0.0
H1037 H 0.02 0.81632 0.37242 0.0
C1038 C 0.01524 0.8049 0.32944 0.0
C1039 C 0.00852 0.8141 0.30255 0.0
C1040 C 0.00206 0.90124 0.36447 0.0
C1041 C 0.00741 0.8519 0.34701 0.0
C1042 C 0.00236 0.92057 0.38622 0.0
C1043 C 0.00753 0.91182 0.4137 0.0
C1044 C 0.00707 0.87279 0.37 0.0
C1045 C 0.01212 0.88311 0.41847 0.0
C1046 C 0.01464 0.82373 0.35178 0.0
C1047 C 0.00126 0.84221 0.29858 0.0
N1048 N 0.01189 0.86464 0.39682 0.0
N1049 N 0.00094 0.86016 0.32057 0.0
H1050 H 0.18423 0.01869 0.2927 0.0
H1051 H 0.13121 0.97974 0.44513 0.0
H1052 H 0.22941 0.9645 0.34912 0.0
H1053 H 0.07432 0.0122 0.38273 0.0
H1054 H 0.1679 0.97607 0.40998 0.0
H1055 H 0.14355 0.01752 0.32447 0.0
C1056 C 0.18542 0.00622 0.31151 0.0
C1057 C 0.21038 0.99205 0.31852 0.0
C1058 C 0.14738 0.9839 0.40387 0.0
C1059 C 0.16435 0.99099 0.35498 0.0
C1060 C 0.12642 0.9862 0.42403 0.0
C1061 C 0.09963 0.99643 0.41695 0.0
C1062 C 0.14178 0.9922 0.37636 0.0
C1063 C 0.09467 0.00417 0.38912 0.0
C1064 C 0.1623 0.00568 0.32967 0.0
C1065 C 0.21083 0.97628 0.3432 0.0
N1066 N 0.11564 0.00211 0.36984 0.0
N1067 N 0.18835 0.97644 0.36063 0.0
H1068 H 0.98721 0.82127 0.71569 0.0
H1069 H 0.03363 0.87757 0.56695 0.0
H1070 H 0.05587 0.78588 0.66834 0.0
H1071 H 0.99346 0.93216 0.62668 0.0
H1072 H 0.03764 0.8416 0.60289 0.0
H1073 H 0.98605 0.86113 0.68319 0.0
C1074 C 0.0023 0.82208 0.69879 0.0
C1075 C 0.02134 0.79995 0.69447 0.0
C1076 C 0.02802 0.86149 0.60817 0.0
C1077 C 0.01967 0.84494 0.65702 0.0
C1078 C 0.02551 0.88195 0.58759 0.0
C1079 C 0.01317 0.90792 0.5938 0.0
C1080 C 0.0177 0.86676 0.6351 0.0
C1081 C 0.00325 0.91247 0.62104 0.0
C1082 C 0.0015 0.8447 0.68017 0.0
C1083 C 0.04033 0.80207 0.67209 0.0
N1084 N 0.00553 0.892 0.64067 0.0
N1085 N 0.03875 0.82388 0.65406 0.0
H1086 H 0.22961 0.03906 0.66285 0.0
H1087 H 0.07306 0.98715 0.6289 0.0
H1088 H 0.18397 0.9833 0.71733 0.0
H1089 H 0.13079 0.02074 0.56785 0.0
H1090 H 0.10989 0.9918 0.66447 0.0
H1091 H 0.18935 0.03981 0.6313 0.0
C1092 C 0.21096 0.02713 0.66826 0.0
C1093 C 0.21028 0.01069 0.69248 0.0
C1094 C 0.11438 0.99816 0.64328 0.0
C1095 C 0.16406 0.01145 0.65641 0.0
C1096 C 0.09341 0.99555 0.62297 0.0
C1097 C 0.0989 0.0034 0.59527 0.0
C1098 C 0.14083 0.00907 0.63591 0.0
C1099 C 0.12566 0.01413 0.58882 0.0
C1100 C 0.18801 0.02753 0.65022 0.0
C1101 C 0.18535 0.99618 0.69882 0.0
N1102 N 0.14555 0.01669 0.60897 0.0
N1103 N 0.16324 0.99665 0.6807 0.0
H1104 H 0.01301 0.21682 0.67707 0.0
H1105 H 0.00243 0.05561 0.63114 0.0
H1106 H 0.00156 0.14828 0.73435 0.0
H1107 H 0.01198 0.12326 0.57209 0.0
H1108 H 0.00223 0.08955 0.66886 0.0
H1109 H 0.01294 0.18336 0.63819 0.0
C1110 C 0.01049 0.1947 0.68141 0.0
C1111 C 0.00732 0.18512 0.7088 0.0
C1112 C 0.00437 0.09705 0.64768 0.0
C1113 C 0.00716 0.14683 0.66465 0.0
C1114 C 0.00453 0.0776 0.62599 0.0
C1115 C 0.0073 0.08645 0.59819 0.0
C1116 C 0.00706 0.12573 0.64177 0.0
C1117 C 0.00978 0.11537 0.59311 0.0
C1118 C 0.01043 0.17562 0.65924 0.0
C1119 C 0.00409 0.15636 0.71342 0.0
N1120 N 0.00964 0.13396 0.61468 0.0
N1121 N 0.0041 0.13822 0.69158 0.0
H1122 H 0.79093 0.95849 0.66687 0.0
H1123 H 0.94613 0.0099 0.62807 0.0
H1124 H 0.83821 0.01571 0.71851 0.0
H1125 H 0.88693 0.97625 0.5684 0.0
H1126 H 0.91036 0.00533 0.66445 0.0
H1127 H 0.83021 0.957 0.63411 0.0
C1128 C 0.80974 0.97055 0.67141 0.0
C1129 C 0.81119 0.98766 0.69514 0.0
C1130 C 0.90528 0.99894 0.6434 0.0
C1131 C 0.85615 0.98599 0.65781 0.0
C1132 C 0.92564 0.00149 0.62262 0.0
C1133 C 0.91942 0.99356 0.59511 0.0
C1134 C 0.87867 0.98806 0.63668 0.0
C1135 C 0.89253 0.9829 0.58924 0.0
C1136 C 0.83209 0.96972 0.6527 0.0
C1137 C 0.83626 0.00231 0.70041 0.0
N1138 N 0.87315 0.98039 0.60989 0.0
N1139 N 0.85775 0.00138 0.68168 0.0
H1140 H 0.2817 0.98262 0.15672 0.0
H1141 H 0.44742 0.00244 0.12937 0.0
H1142 H 0.34051 0.00482 0.22144 0.0
H1143 H 0.38601 0.98786 0.06449 0.0
H1144 H 0.40935 0.00154 0.1638 0.0
H1145 H 0.32041 0.98256 0.12295 0.0
C1146 C 0.30287 0.98748 0.16372 0.0
C1147 C 0.30813 0.99376 0.19167 0.0
C1148 C 0.40427 0.99853 0.14202 0.0
C1149 C 0.35249 0.99378 0.15341 0.0
C1150 C 0.42601 0.99897 0.12232 0.0
C1151 C 0.42001 0.99528 0.09389 0.0
C1152 C 0.37632 0.99422 0.13328 0.0
C1153 C 0.39177 0.99098 0.08609 0.0
C1154 C 0.32495 0.98748 0.14451 0.0
C1155 C 0.33577 -0.00012 0.19994 0.0
N1156 N 0.37107 0.99055 0.10563 0.0
N1157 N 0.35701 -0.00025 0.18085 0.0
H1158 H 0.00864 0.26746 0.15485 0.0
H1159 H 0.01754 0.43355 0.12998 0.0
H1160 H 0.02396 0.32671 0.22082 0.0
H1161 H 0.00917 0.3727 0.06384 0.0
H1162 H 0.01819 0.39524 0.16382 0.0
H1163 H 0.00703 0.30623 0.12137 0.0
C1164 C 0.0116 0.28874 0.16219 0.0
C1165 C 0.01637 0.29412 0.19042 0.0
C1166 C 0.01621 0.39031 0.14189 0.0
C1167 C 0.01461 0.33852 0.15252 0.0
C1168 C 0.01578 0.4122 0.12251 0.0
C1169 C 0.01333 0.40647 0.09389 0.0
C1170 C 0.01406 0.36244 0.13266 0.0
C1171 C 0.01119 0.37829 0.08559 0.0
C1172 C 0.01072 0.31084 0.14315 0.0
C1173 C 0.02014 0.32188 0.19911 0.0
N1174 N 0.01159 0.35742 0.10485 0.0
N1175 N 0.01917 0.34312 0.1802 0.0
H1176 H 0.66951 0.96115 0.22417 0.0
H1177 H 0.63527 0.01056 0.06878 0.0
H1178 H 0.72361 0.01765 0.17868 0.0
H1179 H 0.57367 0.97608 0.1255 0.0
H1180 H 0.67101 0.00703 0.1055 0.0
H1181 H 0.63771 0.95937 0.18433 0.0
C1182 C 0.67476 0.9731 0.20569 0.0
C1183 C 0.69896 0.98999 0.20489 0.0
C1184 C 0.64966 0.00022 0.1098 0.0
C1185 C 0.66269 0.98792 0.15912 0.0
C1186 C 0.62927 0.00217 0.08889 0.0
C1187 C 0.60137 0.99378 0.09414 0.0
C1188 C 0.64216 0.98944 0.13596 0.0
C1189 C 0.5948 0.9831 0.12058 0.0
C1190 C 0.6566 0.97206 0.18296 0.0
C1191 C 0.70513 0.00442 0.18015 0.0
N1192 N 0.61505 0.98121 0.14045 0.0
N1193 N 0.68693 0.00327 0.15826 0.0
H1194 H 0.05766 0.66228 0.22032 0.0
H1195 H 0.99317 0.61978 0.073 0.0
H1196 H 0.98761 0.7074 0.18451 0.0
H1197 H 0.03493 0.56146 0.12799 0.0
H1198 H 0.99669 0.65593 0.10919 0.0
H1199 H 0.05625 0.62959 0.18135 0.0
C1200 C 0.04204 0.66541 0.20415 0.0
C1201 C 0.02233 0.68731 0.20599 0.0
C1202 C 0.00501 0.6352 0.11326 0.0
C1203 C 0.02086 0.65 0.16107 0.0
C1204 C 0.00308 0.61458 0.09266 0.0
C1205 C 0.0137 0.58751 0.09754 0.0
C1206 C 0.01815 0.62884 0.13866 0.0
C1207 C 0.02623 0.58192 0.12341 0.0
C1208 C 0.04126 0.64671 0.18193 0.0
C1209 C 0.00314 0.69079 0.18397 0.0
N1210 N 0.02827 0.60246 0.14291 0.0
N1211 N 0.00274 0.67217 0.16244 0.0
H1212 H 0.34004 0.01498 0.78768 0.0
H1213 H 0.38621 0.99307 0.94668 0.0
H1214 H 0.28296 0.9931 0.85397 0.0
H1215 H 0.44635 0.00875 0.88088 0.0
H1216 H 0.34847 0.99359 0.91261 0.0
H1217 H 0.37953 0.01325 0.82092 0.0
C1218 C 0.33596 0.00971 0.80926 0.0
C1219 C 0.30848 0.00412 0.81834 0.0
C1220 C 0.36989 0.9969 0.90552 0.0
C1221 C 0.35308 0.00224 0.85627 0.0
C1222 C 0.39159 0.99668 0.92505 0.0
C1223 C 0.41968 0.00098 0.91677 0.0
C1224 C 0.37607 0.00154 0.87732 0.0
C1225 C 0.42507 0.00535 0.8883 0.0
C1226 C 0.3584 0.00874 0.82818 0.0
C1227 C 0.30399 0.99751 0.84633 0.0
N1228 N 0.40345 0.00559 0.8696 0.0
N1229 N 0.32607 0.9968 0.86435 0.0
H1230 H 0.97729 0.34366 0.78582 0.0
H1231 H 0.02686 0.3766 0.94156 0.0
H1232 H 0.03227 0.28795 0.8312 0.0
H1233 H 0.99642 0.43917 0.88398 0.0
H1234 H 0.02333 0.3413 0.90455 0.0
H1235 H 0.97744 0.37577 0.82528 0.0
C1236 C 0.98932 0.3381 0.8042 0.0
C1237 C 0.00523 0.31329 0.80499 0.0
C1238 C 0.01745 0.36277 0.9001 0.0
C1239 C 0.00533 0.35005 0.85049 0.0
C1240 C 0.0194 0.38294 0.92118 0.0
C1241 C 0.01201 0.41098 0.91586 0.0
C1242 C 0.00762 0.37059 0.87364 0.0
C1243 C 0.00258 0.41793 0.88903 0.0
C1244 C 0.9894 0.35648 0.82672 0.0
C1245 C 0.01977 0.30686 0.82968 0.0
N1246 N 0.00055 0.39788 0.86902 0.0
N1247 N 0.01966 0.32526 0.85142 0.0
H1248 H 0.74082 0.97908 0.85667 0.0
H1249 H 0.57696 0.01163 0.88194 0.0
H1250 H 0.68737 0.01584 0.79399 0.0
H1251 H 0.635 0.98556 0.94632 0.0
H1252 H 0.61596 0.01093 0.84841 0.0
H1253 H 0.70103 0.979 0.88913 0.0
C1254 C 0.7206 0.98713 0.84986 0.0
C1255 C 0.7171 0.99747 0.82288 0.0
C1256 C 0.62006 0.00539 0.86991 0.0
C1257 C 0.67159 0.99746 0.85953 0.0
C1258 C 0.59781 0.00569 0.88903 0.0
C1259 C 0.60269 0.99876 0.91704 0.0
C1260 C 0.64725 0.99791 0.87887 0.0
C1261 C 0.63018 0.99132 0.92504 0.0
C1262 C 0.69791 0.98711 0.8683 0.0
C1263 C 0.69068 0.00765 0.81475 0.0
N1264 N 0.65134 0.99107 0.90607 0.0
N1265 N 0.6688 0.00739 0.83306 0.0
H1266 H 0.01965 0.66971 0.78967 0.0
H1267 H 0.00885 0.62535 0.95043 0.0
H1268 H 0.00492 0.72783 0.85676 0.0
H1269 H 0.01877 0.56526 0.88382 0.0
H1270 H 0.00827 0.66293 0.91622 0.0
H1271 H 0.02019 0.63104 0.82347 0.0
C1272 C 0.01649 0.67425 0.81154 0.0
C1273 C 0.0122 0.70181 0.82063 0.0
C1274 C 0.01057 0.64154 0.90903 0.0
C1275 C 0.01285 0.65797 0.8593 0.0
C1276 C 0.01097 0.61996 0.92861 0.0
C1277 C 0.01388 0.59191 0.92012 0.0
C1278 C 0.01319 0.63526 0.88057 0.0
C1279 C 0.01642 0.58648 0.89143 0.0
C1280 C 0.0168 0.65223 0.83082 0.0
C1281 C 0.00827 0.70675 0.84907 0.0
N1282 N 0.01604 0.60794 0.87272 0.0
N1283 N 0.00871 0.68505 0.86742 0.0
H1284 H 0.22609 0.32329 0.03614 0.0
H1285 H 0.07401 0.37745 0.98823 0.0
H1286 H 0.16309 0.27144 0.9971 0.0
H1287 H 0.1371 0.4325 0.02319 0.0
H1288 H 0.10721 0.33889 0.99062 0.0
H1289 H 0.19459 0.36397 0.03135 0.0
C1290 C 0.20555 0.32061 0.0266 0.0
C1291 C 0.19683 0.29429 0.01707 0.0
C1292 C 0.11393 0.35937 0.99772 0.0
C1293 C 0.16103 0.3402 0.01143 0.0
C1294 C 0.09491 0.38148 0.99642 0.0
C1295 C 0.10268 0.40827 0.00578 0.0
C1296 C 0.14101 0.36387 0.00859 0.0
C1297 C 0.13022 0.4122 0.01576 0.0
C1298 C 0.18767 0.34372 0.0238 0.0
C1299 C 0.17031 0.29155 0.00477 0.0
N1300 N 0.14839 0.39014 0.0171 0.0
N1301 N 0.15327 0.31425 0.00234 0.0
H1302 H 0.22415 0.67815 0.9939 0.0
H1303 H 0.07238 0.61899 0.03391 0.0
H1304 H 0.16426 0.723 0.04455 0.0
H1305 H 0.13735 0.56692 0.9979 0.0
H1306 H 0.10594 0.65726 0.03746 0.0
H1307 H 0.19301 0.63707 0.99458 0.0
C1308 C 0.20449 0.67916 0.00534 0.0
C1309 C 0.19651 0.70366 0.01924 0.0
C1310 C 0.11297 0.63747 0.02888 0.0
C1311 C 0.16091 0.65731 0.01991 0.0
C1312 C 0.09376 0.61559 0.02669 0.0
C1313 C 0.10201 0.58978 0.01528 0.0
C1314 C 0.14067 0.63372 0.01936 0.0
C1315 C 0.13011 0.5865 0.00676 0.0
C1316 C 0.18677 0.6558 0.00573 0.0
C1317 C 0.17093 0.7043 0.03359 0.0
N1318 N 0.14843 0.60836 0.00874 0.0
N1319 N 0.15389 0.68144 0.03345 0.0
H1320 H 0.34368 0.20992 0.9628 0.0
H1321 H 0.3892 0.06287 0.02661 0.0
H1322 H 0.30352 0.1763 0.03627 0.0
H1323 H 0.4464 0.11821 0.98336 0.0
H1324 H 0.35243 0.09897 0.02356 0.0
H1325 H 0.37587 0.17008 0.96253 0.0
C1326 C 0.34152 0.19405 0.9788 0.0
C1327 C 0.32129 0.19673 0.99997 0.0
C1328 C 0.37306 0.10308 0.01478 0.0
C1329 C 0.35779 0.15096 0.99947 0.0
C1330 C 0.39398 0.08258 0.01645 0.0
C1331 C 0.42087 0.08772 0.00536 0.0
C1332 C 0.37902 0.12851 0.00139 0.0
C1333 C 0.42604 0.11355 0.99246 0.0
C1334 C 0.35988 0.17136 0.97859 0.0
C1335 C 0.31886 0.17509 0.01964 0.0
N1336 N 0.40522 0.13294 0.99069 0.0
N1337 N 0.33712 0.15312 0.01906 0.0
H1338 H 0.83888 0.28534 0.98678 0.0
H1339 H 0.89229 0.43738 0.02868 0.0
H1340 H 0.79444 0.34033 0.04302 0.0
H1341 H 0.94841 0.37553 0.99342 0.0
H1342 H 0.85585 0.40177 0.03263 0.0
H1343 H 0.8796 0.3171 0.98852 0.0
C1344 C 0.83789 0.30382 0.99983 0.0
C1345 C 0.81313 0.31049 0.01441 0.0
C1346 C 0.87616 0.39589 0.02414 0.0
C1347 C 0.85918 0.34694 0.01613 0.0
C1348 C 0.89695 0.4163 0.02167 0.0
C1349 C 0.92339 0.40948 0.01051 0.0
C1350 C 0.88164 0.36845 0.01509 0.0
C1351 C 0.92829 0.38169 0.00214 0.0
C1352 C 0.86102 0.32198 1.0007 0.0
C1353 C 0.81288 0.33475 0.03092 0.0
N1354 N 0.90748 0.36218 0.00437 0.0
N1355 N 0.83539 0.35223 0.03108 0.0
H1356 H 0.74207 0.84879 0.99922 0.0
H1357 H 0.5756 0.87429 0.01408 0.0
H1358 H 0.68434 0.7846 0.02621 0.0
H1359 H 0.63611 0.93921 0.995 0.0
H1360 H 0.61426 0.8403 0.01615 0.0
H1361 H 0.70261 0.88162 0.99526 0.0
C1362 C 0.72096 0.84173 0.0043 0.0
C1363 C 0.71617 0.81424 0.01306 0.0
C1364 C 0.61899 0.862 0.01148 0.0
C1365 C 0.67102 0.85134 0.00862 0.0
C1366 C 0.59693 0.8814 0.01019 0.0
C1367 C 0.60256 0.90973 0.00449 0.0
C1368 C 0.64683 0.87097 0.00687 0.0
C1369 C 0.63067 0.9177 0.99971 0.0
C1370 C 0.69846 0.86038 0.00206 0.0
C1371 C 0.68865 0.8058 0.01938 0.0
N1372 N 0.65167 0.89845 0.00103 0.0
N1373 N 0.66698 0.82434 0.01704 0.0
H1374 H 0.83514 0.70801 0.03578 0.0
H1375 H 0.89345 0.56294 0.98059 0.0
H1376 H 0.80049 0.66516 0.96435 0.0
H1377 H 0.94716 0.62055 0.02531 0.0
H1378 H 0.85739 0.59926 0.97767 0.0
H1379 H 0.87576 0.67612 0.03459 0.0
C1380 C 0.83629 0.69224 0.0196 0.0
C1381 C 0.81418 0.6889 1.00044 0.0
C1382 C 0.87713 0.60401 0.988 0.0
C1383 C 0.86003 0.65221 0.99935 0.0
C1384 C 0.89762 0.58322 0.98987 0.0
C1385 C 0.92328 0.58873 0.00327 0.0
C1386 C 0.88211 0.63038 1.00002 0.0
C1387 C 0.92766 0.6155 0.01469 0.0
C1388 C 0.85936 0.67399 0.01903 0.0
C1389 C 0.8167 0.66801 0.97999 0.0
N1390 N 0.90713 0.63532 0.01304 0.0
N1391 N 0.83897 0.65024 0.98023 0.0
H1392 H 0.30033 0.82401 0.03178 0.0
H1393 H 0.4468 0.87989 0.97674 0.0
H1394 H 0.34351 0.78763 0.96135 0.0
H1395 H 0.38881 0.93405 0.02048 0.0
H1396 H 0.40987 0.84445 0.97342 0.0
H1397 H 0.33236 0.86427 0.02958 0.0
C1398 C 0.31619 0.82472 0.01557 0.0
C1399 C 0.31962 0.80225 0.99703 0.0
C1400 C 0.40517 0.86417 0.98358 0.0
C1401 C 0.35649 0.84769 0.99482 0.0
C1402 C 0.4263 0.88428 0.9857 0.0
C1403 C 0.42086 0.90984 0.99901 0.0
C1404 C 0.37856 0.86946 0.99527 0.0
C1405 C 0.39382 0.91459 0.00998 0.0
C1406 C 0.33453 0.84759 0.01442 0.0
C1407 C 0.34062 0.80418 0.97652 0.0
N1408 N 0.37369 0.89443 0.00812 0.0
N1409 N 0.35853 0.82629 0.97622 0.0
H1410 H 0.74096 0.14933 0.99001 0.0
H1411 H 0.57603 0.12315 0.01611 0.0
H1412 H 0.68514 0.21322 0.02127 0.0
H1413 H 0.63569 0.05824 0.99452 0.0
H1414 H 0.61455 0.15737 0.01533 0.0
H1415 H 0.70136 0.11643 0.98852 0.0
C1416 C 0.72022 0.15633 0.99646 0.0
C1417 C 0.71601 0.18373 0.00577 0.0
C1418 C 0.61912 0.13562 0.01076 0.0
C1419 C 0.67076 0.14653 0.0043 0.0
C1420 C 0.59714 0.11607 0.01115 0.0
C1421 C 0.60258 0.0877 0.00549 0.0
C1422 C 0.64665 0.12674 0.00451 0.0
C1423 C 0.6304 0.07979 0.99925 0.0
C1424 C 0.69766 0.13763 0.99568 0.0
C1425 C 0.68897 0.19209 0.01395 0.0
N1426 N 0.65131 0.09917 0.99892 0.0
N1427 N 0.66724 0.17349 0.01306 0.0
H1428 H 0.55742 0.71382 0.84299 0.0
H1429 H 0.49196 0.56603 0.88529 0.0
H1430 H 0.48766 0.67781 0.79765 0.0
H1431 H 0.53342 0.62134 0.9435 0.0
H1432 H 0.49582 0.60238 0.84935 0.0
H1433 H 0.55537 0.67492 0.87581 0.0
C1434 C 0.54171 0.69763 0.83984 0.0
C1435 C 0.52228 0.69942 0.81781 0.0
C1436 C 0.504 0.60649 0.87002 0.0
C1437 C 0.52012 0.65452 0.85528 0.0
C1438 C 0.50189 0.58579 0.89052 0.0
C1439 C 0.51234 0.59069 0.91749 0.0
C1440 C 0.51716 0.63203 0.87638 0.0
C1441 C 0.52487 0.61672 0.9231 0.0
C1442 C 0.54057 0.67545 0.85863 0.0
C1443 C 0.50299 0.67733 0.81434 0.0
N1444 N 0.5271 0.63631 0.90267 0.0
N1445 N 0.50227 0.65582 0.83303 0.0
H1446 H 0.29791 0.51964 0.82827 0.0
H1447 H 0.4513 0.48037 0.8845 0.0
H1448 H 0.35942 0.4733 0.78095 0.0
H1449 H 0.38597 0.51277 0.93827 0.0
H1450 H 0.41785 0.47887 0.84629 0.0
H1451 H 0.32963 0.51859 0.86873 0.0
C1452 C 0.31808 0.50913 0.82655 0.0
C1453 C 0.32629 0.49648 0.80153 0.0
C1454 C 0.4107 0.48624 0.86642 0.0
C1455 C 0.36252 0.49536 0.84723 0.0
C1456 C 0.42987 0.48726 0.88831 0.0
C1457 C 0.4215 0.49697 0.91465 0.0
C1458 C 0.38288 0.49521 0.87067 0.0
C1459 C 0.39331 0.50516 0.91832 0.0
C1460 C 0.33612 0.50852 0.84956 0.0
C1461 C 0.35252 0.48328 0.80003 0.0
N1462 N 0.37501 0.50429 0.89647 0.0
N1463 N 0.3698 0.48314 0.82258 0.0
H1464 H 0.49747 0.28305 0.83347 0.0
H1465 H 0.51679 0.44312 0.88012 0.0
H1466 H 0.51638 0.35056 0.77693 0.0
H1467 H 0.5043 0.3757 0.93893 0.0
H1468 H 0.51609 0.40928 0.84233 0.0
H1469 H 0.49935 0.31627 0.87256 0.0
C1470 C 0.50211 0.30489 0.82939 0.0
C1471 C 0.50686 0.31429 0.80218 0.0
C1472 C 0.51355 0.40181 0.86348 0.0
C1473 C 0.50888 0.35227 0.84642 0.0
C1474 C 0.5139 0.42119 0.8852 0.0
C1475 C 0.51057 0.41236 0.91293 0.0
C1476 C 0.50974 0.37324 0.86932 0.0
C1477 C 0.50701 0.38355 0.91795 0.0
C1478 C 0.50316 0.32382 0.85163 0.0
C1479 C 0.51263 0.34266 0.79775 0.0
N1480 N 0.50662 0.36503 0.89635 0.0
N1481 N 0.51344 0.36069 0.81965 0.0
H1482 H 0.72545 0.45496 0.84324 0.0
H1483 H 0.5759 0.51919 0.884 0.0
H1484 H 0.69013 0.52505 0.79837 0.0
H1485 H 0.63115 0.47743 0.9422 0.0
H1486 H 0.61282 0.51561 0.84826 0.0
H1487 H 0.68544 0.45618 0.87503 0.0
C1488 C 0.70919 0.47057 0.84 0.0
C1489 C 0.71147 0.49033 0.81844 0.0
C1490 C 0.61674 0.50729 0.86889 0.0
C1491 C 0.66534 0.49156 0.85467 0.0
C1492 C 0.59574 0.50925 0.88925 0.0
C1493 C 0.60053 0.4987 0.91617 0.0
C1494 C 0.64239 0.49417 0.87539 0.0
C1495 C 0.62662 0.48609 0.92185 0.0
C1496 C 0.68637 0.47122 0.85816 0.0
C1497 C 0.68928 0.50949 0.81475 0.0
N1498 N 0.64647 0.48404 0.9016 0.0
N1499 N 0.66715 0.50977 0.83285 0.0
H1500 H 0.5563 0.28432 0.16688 0.0
H1501 H 0.49168 0.43281 0.12567 0.0
H1502 H 0.48695 0.32034 0.21278 0.0
H1503 H 0.53225 0.37734 0.06704 0.0
H1504 H 0.49545 0.39627 0.16148 0.0
H1505 H 0.55433 0.32348 0.13438 0.0
C1506 C 0.5407 0.30056 0.17022 0.0
C1507 C 0.52135 0.2987 0.19231 0.0
C1508 C 0.50345 0.39218 0.14075 0.0
C1509 C 0.51928 0.34391 0.1552 0.0
C1510 C 0.50139 0.41298 0.12033 0.0
C1511 C 0.5116 0.40808 0.09327 0.0
C1512 C 0.51634 0.36655 0.13422 0.0
C1513 C 0.52388 0.38197 0.08751 0.0
C1514 C 0.53961 0.3229 0.15162 0.0
C1515 C 0.50221 0.32087 0.19603 0.0
N1516 N 0.52607 0.36229 0.10785 0.0
N1517 N 0.50152 0.34253 0.17751 0.0
H1518 H 0.68338 0.51846 0.21898 0.0
H1519 H 0.63179 0.47646 0.0672 0.0
H1520 H 0.72802 0.461 0.16542 0.0
H1521 H 0.57438 0.51036 0.12835 0.0
H1522 H 0.66785 0.47257 0.10309 0.0
H1523 H 0.64293 0.51652 0.18699 0.0
C1524 C 0.68445 0.50505 0.2008 0.0
C1525 C 0.70922 0.49023 0.19456 0.0
C1526 C 0.64733 0.48074 0.10874 0.0
C1527 C 0.66352 0.48834 0.15781 0.0
C1528 C 0.62677 0.48318 0.08817 0.0
C1529 C 0.60006 0.49389 0.09473 0.0
C1530 C 0.64136 0.48942 0.13607 0.0
C1531 C 0.59471 0.50195 0.1224 0.0
C1532 C 0.66148 0.50409 0.18249 0.0
C1533 C 0.70957 0.47327 0.17068 0.0
N1534 N 0.61528 0.49978 0.14205 0.0
N1535 N 0.68726 0.47308 0.15303 0.0
H1536 H 0.51702 0.71632 0.17724 0.0
H1537 H 0.50195 0.55573 0.13053 0.0
H1538 H 0.49928 0.64847 0.23377 0.0
H1539 H 0.5151 0.62324 0.072 0.0
H1540 H 0.50156 0.58959 0.16835 0.0
H1541 H 0.51709 0.68292 0.13834 0.0
C1542 C 0.51313 0.69437 0.18141 0.0
C1543 C 0.50814 0.68497 0.2086 0.0
C1544 C 0.50453 0.59707 0.14726 0.0
C1545 C 0.50818 0.64673 0.16442 0.0
C1546 C 0.50481 0.57768 0.12553 0.0
C1547 C 0.50863 0.58652 0.09785 0.0
C1548 C 0.50817 0.62569 0.14151 0.0
C1549 C 0.51203 0.61538 0.09292 0.0
C1550 C 0.51315 0.67532 0.15923 0.0
C1551 C 0.50323 0.65641 0.213 0.0
N1552 N 0.51178 0.6339 0.11453 0.0
N1553 N 0.50339 0.63828 0.19114 0.0
H1554 H 0.29187 0.45916 0.16598 0.0
H1555 H 0.44733 0.51057 0.12801 0.0
H1556 H 0.33928 0.51513 0.21882 0.0
H1557 H 0.38793 0.478 0.06795 0.0
H1558 H 0.41145 0.50587 0.16433 0.0
H1559 H 0.33111 0.4583 0.13317 0.0
C1560 C 0.31071 0.47108 0.17077 0.0
C1561 C 0.3122 0.48765 0.19487 0.0
C1562 C 0.40636 0.49975 0.1432 0.0
C1563 C 0.35715 0.48672 0.15745 0.0
C1564 C 0.42677 0.50239 0.12245 0.0
C1565 C 0.42054 0.49479 0.09486 0.0
C1566 C 0.37969 0.48909 0.13634 0.0
C1567 C 0.39356 0.48439 0.08886 0.0
C1568 C 0.33304 0.47062 0.15203 0.0
C1569 C 0.3373 0.50215 0.20042 0.0
N1570 N 0.37416 0.48178 0.10947 0.0
N1571 N 0.35878 0.50159 0.18165 0.0
H1572 H 0.78055 0.49178 0.6562 0.0
H1573 H 0.94696 0.50356 0.62868 0.0
H1574 H 0.84084 0.50962 0.72092 0.0
H1575 H 0.885 0.49299 0.56352 0.0
H1576 H 0.90893 0.50402 0.66303 0.0
H1577 H 0.81903 0.49035 0.62215 0.0
C1578 C 0.802 0.49536 0.66314 0.0
C1579 C 0.80777 0.5008 0.69117 0.0
C1580 C 0.90369 0.50158 0.64121 0.0
C1581 C 0.85183 0.49924 0.65262 0.0
C1582 C 0.92542 0.50125 0.62154 0.0
C1583 C 0.91928 0.49825 0.59305 0.0
C1584 C 0.87558 0.49878 0.63242 0.0
C1585 C 0.89087 0.49546 0.58517 0.0
C1586 C 0.82394 0.49458 0.64377 0.0
C1587 C 0.83573 0.50532 0.69936 0.0
N1588 N 0.87015 0.49578 0.60472 0.0
N1589 N 0.85681 0.50443 0.68013 0.0
H1590 H 0.50427 0.76763 0.65378 0.0
H1591 H 0.51804 0.93335 0.62848 0.0
H1592 H 0.51843 0.82706 0.71986 0.0
H1593 H 0.50873 0.87269 0.5623 0.0
H1594 H 0.51727 0.89512 0.66235 0.0
H1595 H 0.50479 0.80619 0.62001 0.0
C1596 C 0.50747 0.78889 0.66109 0.0
C1597 C 0.5113 0.79435 0.68946 0.0
C1598 C 0.51542 0.8902 0.64041 0.0
C1599 C 0.51197 0.83852 0.65119 0.0
C1600 C 0.51582 0.91206 0.621 0.0
C1601 C 0.51347 0.90637 0.59236 0.0
C1602 C 0.51255 0.86238 0.63121 0.0
C1603 C 0.51071 0.87823 0.58407 0.0
C1604 C 0.50779 0.81088 0.64188 0.0
C1605 C 0.51537 0.8221 0.69808 0.0
N1606 N 0.51029 0.85738 0.60337 0.0
N1607 N 0.5156 0.84321 0.679 0.0
H1608 H 0.22189 0.47485 0.68311 0.0
H1609 H 0.07264 0.52231 0.6257 0.0
H1610 H 0.1731 0.54199 0.71932 0.0
H1611 H 0.13385 0.48265 0.57203 0.0
H1612 H 0.10835 0.52587 0.66202 0.0
H1613 H 0.18977 0.47465 0.64298 0.0
C1614 C 0.20472 0.48979 0.68245 0.0
C1615 C 0.19989 0.50815 0.70482 0.0
C1616 C 0.11403 0.51649 0.64226 0.0
C1617 C 0.16295 0.50761 0.65947 0.0
C1618 C 0.09358 0.51423 0.62159 0.0
C1619 C 0.10027 0.50209 0.59584 0.0
C1620 C 0.1413 0.50616 0.63736 0.0
C1621 C 0.12787 0.49226 0.59159 0.0
C1622 C 0.18635 0.48956 0.65965 0.0
C1623 C 0.1772 0.52696 0.70292 0.0
N1624 N 0.14738 0.4943 0.61226 0.0
N1625 N 0.15941 0.52596 0.68085 0.0
H1626 H 0.52955 0.21228 0.68075 0.0
H1627 H 0.49201 0.05798 0.6287 0.0
H1628 H 0.47732 0.15443 0.72669 0.0
H1629 H 0.52391 0.1215 0.57291 0.0
H1630 H 0.48855 0.09308 0.66539 0.0
H1631 H 0.5287 0.17994 0.64093 0.0
C1632 C 0.51759 0.19301 0.68233 0.0
C1633 C 0.50385 0.18585 0.70723 0.0
C1634 C 0.49622 0.09941 0.6451 0.0
C1635 C 0.50319 0.14866 0.6621 0.0
C1636 C 0.49839 0.0793 0.62415 0.0
C1637 C 0.50837 0.08673 0.59766 0.0
C1638 C 0.50437 0.1272 0.63974 0.0
C1639 C 0.51603 0.11482 0.593 0.0
C1640 C 0.51725 0.1745 0.65968 0.0
C1641 C 0.48879 0.16052 0.70815 0.0
N1642 N 0.51405 0.13401 0.61389 0.0
N1643 N 0.48911 0.14277 0.68609 0.0
H1644 H 0.78338 0.51689 0.35363 0.0
H1645 H 0.94882 0.49345 0.3802 0.0
H1646 H 0.83986 0.4868 0.29007 0.0
H1647 H 0.88839 0.51336 0.44455 0.0
H1648 H 0.91051 0.49427 0.34587 0.0
H1649 H 0.82295 0.51923 0.38632 0.0
C1650 C 0.80426 0.51089 0.34663 0.0
C1651 C 0.80862 0.50164 0.31937 0.0
C1652 C 0.90573 0.49849 0.36752 0.0
C1653 C 0.85392 0.50408 0.35642 0.0
C1654 C 0.9276 0.49811 0.38713 0.0
C1655 C 0.92189 0.50318 0.4154 0.0
C1656 C 0.87801 0.50419 0.37622 0.0
C1657 C 0.89391 0.50905 0.4231 0.0
C1658 C 0.82682 0.51216 0.36523 0.0
C1659 C 0.83587 0.49406 0.31107 0.0
N1660 N 0.87313 0.50937 0.40367 0.0
N1661 N 0.8576 0.49539 0.32959 0.0
H1662 H 0.47846 0.84393 0.28451 0.0
H1663 H 0.52815 0.87765 0.44005 0.0
H1664 H 0.53301 0.78833 0.33052 0.0
H1665 H 0.49643 0.93976 0.38263 0.0
H1666 H 0.52475 0.84226 0.40317 0.0
H1667 H 0.47852 0.8763 0.32376 0.0
C1668 C 0.49037 0.83846 0.30298 0.0
C1669 C 0.50618 0.81359 0.30403 0.0
C1670 C 0.51857 0.86365 0.39871 0.0
C1671 C 0.5062 0.85066 0.34926 0.0
C1672 C 0.52045 0.88387 0.41973 0.0
C1673 C 0.51265 0.9118 0.41443 0.0
C1674 C 0.50842 0.8713 0.37233 0.0
C1675 C 0.50292 0.9186 0.38766 0.0
C1676 C 0.49041 0.85699 0.32538 0.0
C1677 C 0.52059 0.80729 0.32881 0.0
N1678 N 0.50098 0.8985 0.36771 0.0
N1679 N 0.52045 0.82583 0.35042 0.0
H1680 H 0.24298 0.48023 0.35792 0.0
H1681 H 0.0781 0.50768 0.38265 0.0
H1682 H 0.18712 0.50967 0.29348 0.0
H1683 H 0.1373 0.48805 0.44824 0.0
H1684 H 0.11694 0.50654 0.34907 0.0
H1685 H 0.20363 0.48104 0.39095 0.0
C1686 C 0.22233 0.48687 0.35084 0.0
C1687 C 0.21804 0.49488 0.32318 0.0
C1688 C 0.12136 0.50251 0.37083 0.0
C1689 C 0.17304 0.49586 0.3605 0.0
C1690 C 0.09919 0.50307 0.39001 0.0
C1691 C 0.10438 0.49801 0.41837 0.0
C1692 C 0.14886 0.49667 0.38006 0.0
C1693 C 0.1322 0.49227 0.42667 0.0
C1694 C 0.19991 0.48736 0.36961 0.0
C1695 C 0.19109 0.50329 0.31474 0.0
N1696 N 0.15332 0.49172 0.40762 0.0
N1697 N 0.1695 0.50355 0.33338 0.0
H1698 H 0.52101 0.17055 0.28936 0.0
H1699 H 0.50509 0.12597 0.44966 0.0
H1700 H 0.50117 0.22833 0.35545 0.0
H1701 H 0.51952 0.06637 0.38344 0.0
H1702 H 0.50444 0.16358 0.41541 0.0
H1703 H 0.52132 0.13204 0.3233 0.0
C1704 C 0.51666 0.17505 0.31104 0.0
C1705 C 0.511 0.20247 0.31979 0.0
C1706 C 0.50774 0.14229 0.40833 0.0
C1707 C 0.51141 0.15879 0.35865 0.0
C1708 C 0.50818 0.1207 0.42793 0.0
C1709 C 0.5124 0.09279 0.41955 0.0
C1710 C 0.51163 0.13613 0.37998 0.0
C1711 C 0.51612 0.08748 0.39097 0.0
C1712 C 0.51684 0.15312 0.3304 0.0
C1713 C 0.5056 0.20735 0.34802 0.0
N1714 N 0.5157 0.10893 0.37225 0.0
N1715 N 0.50596 0.18573 0.36648 0.0
H1716 H 0.66376 0.77291 0.47994 0.0
H1717 H 0.63742 0.93336 0.52211 0.0
H1718 H 0.72097 0.81962 0.53195 0.0
H1719 H 0.57551 0.88006 0.48273 0.0
H1720 H 0.67079 0.894 0.52183 0.0
H1721 H 0.63322 0.81415 0.47681 0.0
C1722 C 0.66976 0.79198 0.49068 0.0
C1723 C 0.69455 0.79317 0.50629 0.0
C1724 C 0.6499 0.89106 0.51321 0.0
C1725 C 0.66014 0.84025 0.50288 0.0
C1726 C 0.63093 0.91351 0.51325 0.0
C1727 C 0.60357 0.90989 0.50271 0.0
C1728 C 0.64143 0.86504 0.50229 0.0
C1729 C 0.59623 0.88372 0.49149 0.0
C1730 C 0.65244 0.81548 0.48892 0.0
C1731 C 0.70181 0.81815 0.51976 0.0
N1732 N 0.61501 0.86235 0.49163 0.0
N1733 N 0.68459 0.84085 0.5178 0.0
H1734 H 0.66029 0.23115 0.5106 0.0
H1735 H 0.63708 0.06555 0.49361 0.0
H1736 H 0.72358 0.17586 0.4771 0.0
H1737 H 0.57233 0.12365 0.51958 0.0
H1738 H 0.67024 0.10478 0.4901 0.0
H1739 H 0.62852 0.19109 0.51628 0.0
C1740 C 0.66735 0.21046 0.50441 0.0
C1741 C 0.69427 0.2065 0.49335 0.0
C1742 C 0.64877 0.10884 0.49663 0.0
C1743 C 0.65847 0.16071 0.49981 0.0
C1744 C 0.62987 0.08645 0.49877 0.0
C1745 C 0.6018 0.09128 0.50674 0.0
C1746 C 0.63954 0.13617 0.50266 0.0
C1747 C 0.59364 0.11886 0.51307 0.0
C1748 C 0.64933 0.18762 0.50766 0.0
C1749 C 0.70279 0.17951 0.4857 0.0
N1750 N 0.61238 0.14019 0.51084 0.0
N1751 N 0.68489 0.1575 0.48907 0.0
H1752 H 0.79693 0.67106 0.52808 0.0
H1753 H 0.94954 0.62042 0.48381 0.0
H1754 H 0.84905 0.71521 0.46888 0.0
H1755 H 0.88814 0.56338 0.51849 0.0
H1756 H 0.91302 0.65612 0.48008 0.0
H1757 H 0.8294 0.63114 0.5256 0.0
C1758 C 0.81491 0.67214 0.51421 0.0
C1759 C 0.82064 0.6966 0.49903 0.0
C1760 C 0.90748 0.63575 0.48837 0.0
C1761 C 0.85792 0.65152 0.49652 0.0
C1762 C 0.92838 0.61545 0.49075 0.0
C1763 C 0.92188 0.58898 0.50165 0.0
C1764 C 0.87996 0.6297 0.49731 0.0
C1765 C 0.89402 0.58355 0.50995 0.0
C1766 C 0.83348 0.64946 0.51291 0.0
C1767 C 0.84427 0.69699 0.48146 0.0
N1768 N 0.87406 0.60387 0.50784 0.0
N1769 N 0.86225 0.67494 0.48097 0.0
H1770 H 0.29891 0.83573 0.45692 0.0
H1771 H 0.44943 0.8764 0.51915 0.0
H1772 H 0.33613 0.79023 0.52538 0.0
H1773 H 0.39411 0.93491 0.47767 0.0
H1774 H 0.41293 0.84018 0.51485 0.0
H1775 H 0.33931 0.86733 0.45681 0.0
C1776 C 0.3157 0.83229 0.47184 0.0
C1777 C 0.31388 0.81066 0.49158 0.0
C1778 C 0.40892 0.86095 0.50668 0.0
C1779 C 0.36032 0.84663 0.49134 0.0
C1780 C 0.42968 0.88159 0.50904 0.0
C1781 C 0.42469 0.90875 0.49888 0.0
C1782 C 0.38328 0.86745 0.4936 0.0
C1783 C 0.39873 0.91436 0.48606 0.0
C1784 C 0.33873 0.85033 0.47174 0.0
C1785 C 0.33665 0.80668 0.50987 0.0
N1786 N 0.37905 0.89386 0.4837 0.0
N1787 N 0.3589 0.8247 0.50948 0.0
H1788 H 0.18647 0.28463 0.48457 0.0
H1789 H 0.13418 0.43916 0.52291 0.0
H1790 H 0.23743 0.34617 0.52675 0.0
H1791 H 0.07788 0.37555 0.49111 0.0
H1792 H 0.17224 0.40523 0.5232 0.0
H1793 H 0.14647 0.31739 0.48543 0.0
C1794 C 0.18911 0.30506 0.49405 0.0
C1795 C 0.215 0.31297 0.50563 0.0
C1796 C 0.15159 0.39858 0.51619 0.0
C1797 C 0.16983 0.35032 0.50664 0.0
C1798 C 0.12976 0.41803 0.51591 0.0
C1799 C 0.10272 0.41028 0.50678 0.0
C1800 C 0.14658 0.37108 0.50714 0.0
C1801 C 0.09836 0.38244 0.49832 0.0
C1802 C 0.16636 0.32369 0.49457 0.0
C1803 C 0.21766 0.3395 0.5176 0.0
N1804 N 0.12014 0.36384 0.49856 0.0
N1805 N 0.19534 0.3573 0.51775 0.0
H1806 H 0.29127 0.15686 0.54304 0.0
H1807 H 0.44874 0.12226 0.4954 0.0
H1808 H 0.33804 0.21012 0.48699 0.0
H1809 H 0.39053 0.06076 0.52786 0.0
H1810 H 0.41178 0.15788 0.49898 0.0
H1811 H 0.33146 0.12508 0.54529 0.0
C1812 C 0.31012 0.16194 0.53134 0.0
C1813 C 0.31118 0.18587 0.51438 0.0
C1814 C 0.4072 0.13659 0.50536 0.0
C1815 C 0.35727 0.14965 0.51699 0.0
C1816 C 0.42824 0.11625 0.50338 0.0
C1817 C 0.42264 0.08843 0.51121 0.0
C1818 C 0.38054 0.12911 0.51558 0.0
C1819 C 0.3957 0.08185 0.52131 0.0
C1820 C 0.33302 0.1438 0.53263 0.0
C1821 C 0.33636 0.19185 0.50024 0.0
N1822 N 0.37568 0.10206 0.52325 0.0
N1823 N 0.35841 0.17367 0.50165 0.0
H1824 H 0.84407 0.28688 0.54468 0.0
H1825 H 0.88946 0.43532 0.48357 0.0
H1826 H 0.80351 0.32245 0.47234 0.0
H1827 H 0.94608 0.38014 0.52778 0.0
H1828 H 0.8529 0.39897 0.48565 0.0
H1829 H 0.87636 0.32661 0.54577 0.0
C1830 C 0.84189 0.30312 0.52906 0.0
C1831 C 0.82144 0.30106 0.50801 0.0
C1832 C 0.87334 0.39495 0.49488 0.0
C1833 C 0.85809 0.34676 0.50945 0.0
C1834 C 0.89415 0.41561 0.49378 0.0
C1835 C 0.92086 0.41061 0.5054 0.0
C1836 C 0.87919 0.36944 0.50818 0.0
C1837 C 0.92588 0.38474 0.5183 0.0
C1838 C 0.8603 0.32578 0.52974 0.0
C1839 C 0.81901 0.32318 0.48887 0.0
N1840 N 0.90518 0.36516 0.51946 0.0
N1841 N 0.83731 0.34511 0.48992 0.0
H1842 H 0.24108 0.65095 0.52643 0.0
H1843 H 0.07658 0.6237 0.49893 0.0
H1844 H 0.1853 0.71383 0.49313 0.0
H1845 H 0.13645 0.55864 0.51944 0.0
H1846 H 0.11493 0.65803 0.50026 0.0
H1847 H 0.2017 0.61772 0.5277 0.0
C1848 C 0.22041 0.65768 0.51949 0.0
C1849 C 0.21617 0.68492 0.50969 0.0
C1850 C 0.1196 0.63623 0.50448 0.0
C1851 C 0.17117 0.64732 0.51094 0.0
C1852 C 0.09771 0.6166 0.50379 0.0
C1853 C 0.10325 0.58815 0.50893 0.0
C1854 C 0.14718 0.62737 0.51056 0.0
C1855 C 0.13111 0.58026 0.51508 0.0
C1856 C 0.19798 0.63878 0.52015 0.0
C1857 C 0.18921 0.69289 0.50089 0.0
N1858 N 0.15196 0.59973 0.51573 0.0
N1859 N 0.16762 0.67412 0.5017 0.0
loop_
_geom_bond_atom_site_label_1
_geom_bond_atom_site_label_2
_geom_bond_distance
_geom_bond_site_symmetry_2
_ccdc_geom_bond_type
H0 C3 0.929 . S
H1 C6 0.929 . S
H2 C8 0.930 . S
C3 H0 0.929 . S
C3 C4 1.398 . S
C3 C5 1.396 . S
C4 C3 1.398 . S
C4 C8 1.407 . S
C5 C3 1.396 . S
C5 C6 1.394 . S
C6 H1 0.929 . S
C6 C5 1.394 . S
C6 C7 1.382 . S
C7 C6 1.382 . S
C7 C8 1.392 . S
C7 N9 1.420 . S
C8 H2 0.930 . S
C8 C4 1.407 . S
C8 C7 1.392 . S
N9 C7 1.420 . S
N9 C10 1.244 . S
C10 N9 1.244 . S
H11 C14 0.929 . S
H12 C17 0.929 . S
H13 C19 0.930 . S
C14 H11 0.929 . S
C14 C15 1.395 1_545 S
C14 C16 1.394 1_545 S
C15 C14 1.395 1_565 S
C15 C19 1.414 . S
C16 C14 1.394 1_565 S
C16 C17 1.397 . S
C17 H12 0.929 . S
C17 C16 1.397 . S
C17 C18 1.382 . S
C18 C17 1.382 . S
C18 C19 1.392 . S
C18 N20 1.420 . S
C19 H13 0.930 . S
C19 C15 1.414 . S
C19 C18 1.392 . S
N20 C18 1.420 . S
N20 C21 1.232 1_565 S
C21 N20 1.232 1_545 S
H22 C25 0.929 . S
H23 C28 0.929 . S
H24 C30 0.930 . S
C25 H22 0.929 . S
C25 C26 1.398 . S
C25 C27 1.396 . S
C26 C25 1.398 . S
C26 C30 1.407 . S
C27 C25 1.396 . S
C27 C28 1.394 . S
C28 H23 0.929 . S
C28 C27 1.394 . S
C28 C29 1.382 . S
C29 C28 1.382 . S
C29 C30 1.392 . S
C29 N31 1.420 . S
C30 H24 0.930 . S
C30 C26 1.407 . S
C30 C29 1.392 . S
N31 C29 1.420 . S
N31 C32 1.244 . S
C32 N31 1.244 . S
H33 C36 0.929 . S
H34 C39 0.929 . S
H35 C41 0.930 . S
C36 H33 0.929 . S
C36 C37 1.395 1_545 S
C36 C38 1.394 1_545 S
C37 C36 1.395 1_565 S
C37 C41 1.414 . S
C38 C36 1.394 1_565 S
C38 C39 1.397 . S
C39 H34 0.929 . S
C39 C38 1.397 . S
C39 C40 1.382 . S
C40 C39 1.382 . S
C40 C41 1.392 . S
C40 N42 1.420 . S
C41 H35 0.930 . S
C41 C37 1.414 . S
C41 C40 1.392 . S
N42 C40 1.420 . S
N42 C43 1.232 1_565 S
C43 N42 1.232 1_545 S
H44 C47 0.929 . S
H45 C50 0.929 . S
H46 C52 0.930 . S
C47 H44 0.929 . S
C47 C48 1.398 . S
C47 C49 1.396 . S
C48 C47 1.398 . S
C48 C52 1.407 . S
C49 C47 1.396 . S
C49 C50 1.394 . S
C50 H45 0.929 . S
C50 C49 1.394 . S
C50 C51 1.382 . S
C51 C50 1.382 . S
C51 C52 1.392 . S
C51 N53 1.420 . S
C52 H46 0.930 . S
C52 C48 1.407 . S
C52 C51 1.392 . S
N53 C51 1.420 . S
N53 C54 1.244 . S
C54 N53 1.244 . S
H55 C58 0.929 . S
H56 C61 0.929 . S
H57 C63 0.930 . S
C58 H55 0.929 . S
C58 C59 1.398 1_565 S
C58 C60 1.393 1_565 S
C59 C58 1.398 1_545 S
C59 C63 1.407 . S
C60 C58 1.393 1_545 S
C60 C61 1.402 . S
C61 H56 0.929 . S
C61 C60 1.402 . S
C61 C62 1.382 . S
C62 C61 1.382 . S
C62 C63 1.392 . S
C62 N64 1.420 . S
C63 H57 0.930 . S
C63 C59 1.407 . S
C63 C62 1.392 . S
N64 C62 1.420 . S
N64 C65 1.244 1_545 S
C65 N64 1.244 1_565 S
H66 C69 0.929 . S
H67 C72 0.929 . S
H68 C74 0.930 . S
C69 H66 0.929 . S
C69 C70 1.398 . S
C69 C71 1.396 . S
C70 C69 1.398 . S
C70 C74 1.407 . S
C71 C69 1.396 . S
C71 C72 1.394 . S
C72 H67 0.929 . S
C72 C71 1.394 . S
C72 C73 1.382 . S
C73 C72 1.382 . S
C73 C74 1.392 . S
C73 N75 1.420 . S
C74 H68 0.930 . S
C74 C70 1.407 . S
C74 C73 1.392 . S
N75 C73 1.420 . S
N75 C76 1.244 . S
C76 N75 1.244 . S
H77 C80 0.929 . S
H78 C83 0.929 . S
H79 C85 0.930 . S
C80 H77 0.929 . S
C80 C81 1.397 1_545 S
C80 C82 1.396 1_545 S
C81 C80 1.397 1_565 S
C81 C85 1.410 . S
C82 C80 1.396 1_565 S
C82 C83 1.394 . S
C83 H78 0.929 . S
C83 C82 1.394 . S
C83 C84 1.382 . S
C84 C83 1.382 . S
C84 C85 1.392 . S
C84 N86 1.420 . S
C85 H79 0.930 . S
C85 C81 1.410 . S
C85 C84 1.392 . S
N86 C84 1.420 . S
N86 C87 1.244 1_565 S
C87 N86 1.244 1_545 S
H88 C91 0.929 . S
H89 C94 0.931 . S
H90 C96 0.930 . S
C91 H88 0.929 . S
C91 C92 1.398 . S
C91 C93 1.396 . S
C92 C91 1.398 . S
C92 C96 1.407 1_554 S
C93 C91 1.396 . S
C93 C94 1.391 1_554 S
C94 H89 0.931 . S
C94 C93 1.391 1_556 S
C94 C95 1.383 . S
C95 C94 1.383 . S
C95 C96 1.392 . S
C95 N97 1.420 . S
C96 H90 0.930 . S
C96 C92 1.407 1_556 S
C96 C95 1.392 . S
N97 C95 1.420 . S
N97 C98 1.244 1_556 S
C98 N97 1.244 1_554 S
H99 C102 0.923 1_556 S
H100 C105 0.929 . S
H101 C107 0.930 . S
C102 H99 0.923 1_554 S
C102 C103 1.398 . S
C102 C104 1.396 . S
C103 C102 1.398 . S
C103 C107 1.407 . S
C104 C102 1.396 . S
C104 C105 1.394 . S
C105 H100 0.929 . S
C105 C104 1.394 . S
C105 C106 1.382 . S
C106 C105 1.382 . S
C106 C107 1.392 . S
C106 N108 1.420 . S
C107 H101 0.930 . S
C107 C103 1.407 . S
C107 C106 1.392 . S
N108 C106 1.420 . S
N108 C109 1.244 . S
C109 N108 1.244 . S
H110 C113 0.929 . S
H111 C116 0.930 . S
H112 C118 0.930 . S
C113 H110 0.929 . S
C113 C114 1.398 . S
C113 C115 1.396 . S
C114 C113 1.398 . S
C114 C118 1.407 1_554 S
C115 C113 1.396 . S
C115 C116 1.392 1_554 S
C116 H111 0.930 . S
C116 C115 1.392 1_556 S
C116 C117 1.383 . S
C117 C116 1.383 . S
C117 C118 1.392 . S
C117 N119 1.420 . S
C118 H112 0.930 . S
C118 C114 1.407 1_556 S
C118 C117 1.392 . S
N119 C117 1.420 . S
N119 C120 1.244 1_556 S
C120 N119 1.244 1_554 S
H121 C124 0.929 1_556 S
H122 C127 0.929 . S
H123 C129 0.930 . S
C124 H121 0.929 1_554 S
C124 C125 1.398 . S
C124 C126 1.396 . S
C125 C124 1.398 . S
C125 C129 1.407 . S
C126 C124 1.396 . S
C126 C127 1.394 . S
C127 H122 0.929 . S
C127 C126 1.394 . S
C127 C128 1.382 . S
C128 C127 1.382 . S
C128 C129 1.392 . S
C128 N130 1.420 . S
C129 H123 0.930 . S
C129 C125 1.407 . S
C129 C128 1.392 . S
N130 C128 1.420 . S
N130 C131 1.244 . S
C131 N130 1.244 . S
H132 C135 0.929 . S
H133 C138 0.929 . S
H134 C140 0.930 . S
C135 H132 0.929 . S
C135 C136 1.398 . S
C135 C137 1.396 . S
C136 C135 1.398 . S
C136 C140 1.407 . S
C137 C135 1.396 . S
C137 C138 1.394 . S
C138 H133 0.929 . S
C138 C137 1.394 . S
C138 C139 1.382 . S
C139 C138 1.382 . S
C139 C140 1.392 . S
C139 N141 1.420 . S
C140 H134 0.930 . S
C140 C136 1.407 . S
C140 C139 1.392 . S
N141 C139 1.420 . S
N141 C142 1.244 . S
C142 N141 1.244 . S
H143 C146 0.929 . S
H144 C149 0.929 . S
H145 C151 0.930 . S
C146 H143 0.929 . S
C146 C147 1.398 . S
C146 C148 1.396 . S
C147 C146 1.398 . S
C147 C151 1.407 . S
C148 C146 1.396 . S
C148 C149 1.394 . S
C149 H144 0.929 . S
C149 C148 1.394 . S
C149 C150 1.382 . S
C150 C149 1.382 . S
C150 C151 1.392 . S
C150 N152 1.420 . S
C151 H145 0.930 . S
C151 C147 1.407 . S
C151 C150 1.392 . S
N152 C150 1.420 . S
N152 C153 1.244 . S
C153 N152 1.244 . S
H154 C157 0.929 . S
H155 C160 0.929 . S
H156 C162 0.930 . S
C157 H154 0.929 . S
C157 C158 1.398 . S
C157 C159 1.396 . S
C158 C157 1.398 . S
C158 C162 1.407 . S
C159 C157 1.396 . S
C159 C160 1.394 . S
C160 H155 0.929 . S
C160 C159 1.394 . S
C160 C161 1.382 . S
C161 C160 1.382 . S
C161 C162 1.392 . S
C161 N163 1.420 . S
C162 H156 0.930 . S
C162 C158 1.407 . S
C162 C161 1.392 . S
N163 C161 1.420 . S
N163 C164 1.244 . S
C164 N163 1.244 . S
H165 C168 0.929 . S
H166 C171 0.929 . S
H167 C173 0.930 . S
C168 H165 0.929 . S
C168 C169 1.398 . S
C168 C170 1.396 . S
C169 C168 1.398 . S
C169 C173 1.407 . S
C170 C168 1.396 . S
C170 C171 1.394 . S
C171 H166 0.929 . S
C171 C170 1.394 . S
C171 C172 1.382 . S
C172 C171 1.382 . S
C172 C173 1.392 . S
C172 N174 1.420 . S
C173 H167 0.930 . S
C173 C169 1.407 . S
C173 C172 1.392 . S
N174 C172 1.420 . S
N174 C175 1.244 . S
C175 N174 1.244 . S
H176 C179 0.929 . S
H177 C182 0.929 . S
H178 C184 0.930 . S
C179 H176 0.929 . S
C179 C180 1.398 . S
C179 C181 1.396 . S
C180 C179 1.398 . S
C180 C184 1.407 . S
C181 C179 1.396 . S
C181 C182 1.394 . S
C182 H177 0.929 . S
C182 C181 1.394 . S
C182 C183 1.382 . S
C183 C182 1.382 . S
C183 C184 1.392 . S
C183 N185 1.420 . S
C184 H178 0.930 . S
C184 C180 1.407 . S
C184 C183 1.392 . S
N185 C183 1.420 . S
N185 C186 1.244 . S
C186 N185 1.244 . S
H187 C190 0.929 . S
H188 C193 0.929 . S
H189 C195 0.930 . S
C190 H187 0.929 . S
C190 C191 1.398 . S
C190 C192 1.396 . S
C191 C190 1.398 . S
C191 C195 1.407 . S
C192 C190 1.396 . S
C192 C193 1.394 . S
C193 H188 0.929 . S
C193 C192 1.394 . S
C193 C194 1.382 . S
C194 C193 1.382 . S
C194 C195 1.392 . S
C194 N196 1.420 . S
C195 H189 0.930 . S
C195 C191 1.407 . S
C195 C194 1.392 . S
N196 C194 1.420 . S
N196 C197 1.244 . S
C197 N196 1.244 . S
H198 C201 0.929 . S
H199 C204 0.929 . S
H200 C206 0.930 . S
C201 H198 0.929 . S
C201 C202 1.398 . S
C201 C203 1.396 . S
C202 C201 1.398 . S
C202 C206 1.407 . S
C203 C201 1.396 . S
C203 C204 1.394 . S
C204 H199 0.929 . S
C204 C203 1.394 . S
C204 C205 1.382 . S
C205 C204 1.382 . S
C205 C206 1.392 . S
C205 N207 1.420 . S
C206 H200 0.930 . S
C206 C202 1.407 . S
C206 C205 1.392 . S
N207 C205 1.420 . S
N207 C208 1.244 . S
C208 N207 1.244 . S
H209 C212 0.929 . S
H210 C215 0.929 . S
H211 C217 0.930 . S
C212 H209 0.929 . S
C212 C213 1.398 . S
C212 C214 1.396 . S
C213 C212 1.398 . S
C213 C217 1.407 . S
C214 C212 1.396 . S
C214 C215 1.394 . S
C215 H210 0.929 . S
C215 C214 1.394 . S
C215 C216 1.382 . S
C216 C215 1.382 . S
C216 C217 1.392 . S
C216 N218 1.420 . S
C217 H211 0.930 . S
C217 C213 1.407 . S
C217 C216 1.392 . S
N218 C216 1.420 . S
N218 C219 1.244 . S
C219 N218 1.244 . S
H220 C223 0.929 . S
H221 C226 0.929 . S
H222 C228 0.930 . S
C223 H220 0.929 . S
C223 C224 1.398 . S
C223 C225 1.396 . S
C224 C223 1.398 . S
C224 C228 1.407 . S
C225 C223 1.396 . S
C225 C226 1.394 . S
C226 H221 0.929 . S
C226 C225 1.394 . S
C226 C227 1.382 . S
C227 C226 1.382 . S
C227 C228 1.392 . S
C227 N229 1.420 . S
C228 H222 0.930 . S
C228 C224 1.407 . S
C228 C227 1.392 . S
N229 C227 1.420 . S
N229 C230 1.244 . S
C230 N229 1.244 . S
H231 C234 0.929 . S
H232 C237 0.929 . S
H233 C239 0.930 . S
C234 H231 0.929 . S
C234 C235 1.398 . S
C234 C236 1.396 . S
C235 C234 1.398 . S
C235 C239 1.407 . S
C236 C234 1.396 . S
C236 C237 1.394 . S
C237 H232 0.929 . S
C237 C236 1.394 . S
C237 C238 1.382 . S
C238 C237 1.382 . S
C238 C239 1.392 . S
C238 N240 1.420 . S
C239 H233 0.930 . S
C239 C235 1.407 . S
C239 C238 1.392 . S
N240 C238 1.420 . S
N240 C241 1.244 . S
C241 N240 1.244 . S
H242 C245 0.929 . S
H243 C248 0.929 . S
H244 C250 0.930 . S
C245 H242 0.929 . S
C245 C246 1.398 . S
C245 C247 1.396 . S
C246 C245 1.398 . S
C246 C250 1.407 . S
C247 C245 1.396 . S
C247 C248 1.394 . S
C248 H243 0.929 . S
C248 C247 1.394 . S
C248 C249 1.382 . S
C249 C248 1.382 . S
C249 C250 1.392 . S
C249 N251 1.420 . S
C250 H244 0.930 . S
C250 C246 1.407 . S
C250 C249 1.392 . S
N251 C249 1.420 . S
N251 C252 1.244 . S
C252 N251 1.244 . S
H253 C256 0.929 . S
H254 C259 0.929 . S
H255 C261 0.930 . S
C256 H253 0.929 . S
C256 C257 1.398 . S
C256 C258 1.396 . S
C257 C256 1.398 . S
C257 C261 1.407 . S
C258 C256 1.396 . S
C258 C259 1.394 . S
C259 H254 0.929 . S
C259 C258 1.394 . S
C259 C260 1.382 . S
C260 C259 1.382 . S
C260 C261 1.392 . S
C260 N262 1.420 . S
C261 H255 0.930 . S
C261 C257 1.407 . S
C261 C260 1.392 . S
N262 C260 1.420 . S
N262 C263 1.244 . S
C263 N262 1.244 . S
C264 O290 1.283 . S
C264 O308 1.283 . S
C265 O291 1.283 . S
C265 O306 1.283 . S
C266 O292 1.283 . S
C266 O309 1.283 . S
C267 O293 1.283 . S
C267 O307 1.283 . S
C268 O294 1.283 . S
C268 O303 1.283 . S
C269 O295 1.283 . S
C269 O305 1.283 . S
C270 O296 1.283 . S
C270 O302 1.283 . S
C271 O297 1.283 . S
C271 O304 1.283 . S
C272 O298 1.283 . S
C272 O313 1.283 . S
C273 O299 1.283 . S
C273 O311 1.283 . S
C274 O300 1.283 . S
C274 O312 1.283 . S
C275 O301 1.283 . S
C275 O310 1.283 . S
Eu276 O277 2.348 1_455 S
Eu276 O278 2.370 . S
Eu276 O281 2.348 1_455 S
Eu276 O282 2.370 . S
Eu276 O290 2.363 . S
Eu276 O291 2.363 . S
Eu276 O304 2.363 . S
Eu276 O305 2.363 1_455 S
O277 Eu276 2.348 1_655 S
O277 Eu279 2.394 1_565 S
O277 Eu284 2.346 1_665 S
O278 Eu276 2.370 . S
O278 Eu280 2.367 1_565 S
O278 Eu283 2.366 1_565 S
Eu279 O277 2.394 1_545 S
Eu279 O281 2.394 1_545 S
Eu279 O285 2.400 . S
Eu279 O286 2.400 . S
Eu279 O294 2.368 . S
Eu279 O295 2.358 1_545 S
Eu279 O310 2.363 . S
Eu279 O311 2.363 . S
Eu280 O278 2.367 1_545 S
Eu280 O282 2.367 1_545 S
Eu280 O287 2.373 . S
Eu280 O288 2.373 . S
Eu280 O296 2.368 . S
Eu280 O297 2.358 1_545 S
Eu280 O312 2.363 . S
Eu280 O313 2.363 . S
O281 Eu276 2.348 1_655 S
O281 Eu279 2.394 1_565 S
O281 Eu283 2.344 1_665 S
O282 Eu276 2.370 . S
O282 Eu280 2.367 1_565 S
O282 Eu284 2.368 1_565 S
Eu283 O278 2.366 1_545 S
Eu283 O281 2.344 1_445 S
Eu283 O285 2.352 1_455 S
Eu283 O288 2.374 . S
Eu283 O300 2.363 . S
Eu283 O301 2.363 1_455 S
Eu283 O308 2.356 1_545 S
Eu283 O309 2.369 . S
Eu284 O277 2.346 1_445 S
Eu284 O282 2.368 1_545 S
Eu284 O286 2.350 1_455 S
Eu284 O287 2.372 . S
Eu284 O298 2.363 . S
Eu284 O299 2.363 1_455 S
Eu284 O306 2.359 1_545 S
Eu284 O307 2.367 . S
O285 Eu279 2.400 . S
O285 Eu283 2.352 1_655 S
O285 Eu289 2.348 1_655 S
O286 Eu279 2.400 . S
O286 Eu284 2.350 1_655 S
O286 Eu289 2.348 1_655 S
O287 Eu280 2.373 . S
O287 Eu284 2.372 . S
O287 Eu289 2.370 . S
O288 Eu280 2.373 . S
O288 Eu283 2.374 . S
O288 Eu289 2.370 . S
Eu289 O285 2.348 1_455 S
Eu289 O286 2.348 1_455 S
Eu289 O287 2.370 . S
Eu289 O288 2.370 . S
Eu289 O292 2.363 . S
Eu289 O293 2.363 . S
Eu289 O302 2.363 . S
Eu289 O303 2.363 1_455 S
O290 C264 1.283 . S
O290 Eu276 2.363 . S
O291 C265 1.283 . S
O291 Eu276 2.363 . S
O292 C266 1.283 . S
O292 Eu289 2.363 . S
O293 C267 1.283 . S
O293 Eu289 2.363 . S
O294 C268 1.283 . S
O294 Eu279 2.368 . S
O295 C269 1.283 . S
O295 Eu279 2.358 1_565 S
O296 C270 1.283 . S
O296 Eu280 2.368 . S
O297 C271 1.283 . S
O297 Eu280 2.358 1_565 S
O298 C272 1.283 . S
O298 Eu284 2.363 . S
O299 C273 1.283 . S
O299 Eu284 2.363 1_655 S
O300 C274 1.283 . S
O300 Eu283 2.363 . S
O301 C275 1.283 . S
O301 Eu283 2.363 1_655 S
O302 C270 1.283 . S
O302 Eu289 2.363 . S
O303 C268 1.283 . S
O303 Eu289 2.363 1_655 S
O304 C271 1.283 . S
O304 Eu276 2.363 . S
O305 C269 1.283 . S
O305 Eu276 2.363 1_655 S
O306 C265 1.283 . S
O306 Eu284 2.359 1_565 S
O307 C267 1.283 . S
O307 Eu284 2.367 . S
O308 C264 1.283 . S
O308 Eu283 2.356 1_565 S
O309 C266 1.283 . S
O309 Eu283 2.369 . S
O310 C275 1.283 . S
O310 Eu279 2.363 . S
O311 C273 1.283 . S
O311 Eu279 2.363 . S
O312 C274 1.283 . S
O312 Eu280 2.363 . S
O313 C272 1.283 . S
O313 Eu280 2.363 . S
C314 O340 1.283 . S
C314 O358 1.283 . S
C315 O341 1.283 . S
C315 O356 1.283 . S
C316 O342 1.283 . S
C316 O359 1.283 . S
C317 O343 1.283 . S
C317 O357 1.283 . S
C318 O344 1.283 . S
C318 O353 1.283 . S
C319 O345 1.283 . S
C319 O355 1.283 . S
C320 O346 1.283 . S
C320 O352 1.283 . S
C321 O347 1.283 . S
C321 O354 1.283 . S
C322 O348 1.283 . S
C322 O363 1.283 . S
C323 O349 1.283 . S
C323 O361 1.283 . S
C324 O350 1.283 . S
C324 O362 1.283 . S
C325 O351 1.283 . S
C325 O360 1.283 . S
Eu326 O327 2.372 . S
Eu326 O328 2.369 1_545 S
Eu326 O331 2.369 1_545 S
Eu326 O332 2.372 . S
Eu326 O340 2.360 1_545 S
Eu326 O341 2.366 . S
Eu326 O354 2.363 . S
Eu326 O355 2.363 . S
O327 Eu326 2.372 . S
O327 Eu329 2.373 . S
O327 Eu334 2.370 . S
O328 Eu326 2.369 1_565 S
O328 Eu330 2.367 1_565 S
O328 Eu333 2.370 . S
Eu329 O327 2.373 . S
Eu329 O331 2.367 1_545 S
Eu329 O335 2.367 1_544 S
Eu329 O336 2.373 1_554 S
Eu329 O344 2.363 1_554 S
Eu329 O345 2.363 . S
Eu329 O360 2.358 1_545 S
Eu329 O361 2.368 . S
Eu330 O328 2.367 1_545 S
Eu330 O332 2.373 . S
Eu330 O337 2.373 1_554 S
Eu330 O338 2.367 1_544 S
Eu330 O346 2.363 1_554 S
Eu330 O347 2.363 . S
Eu330 O362 2.358 1_545 S
Eu330 O363 2.368 . S
O331 Eu326 2.369 1_565 S
O331 Eu329 2.367 1_565 S
O331 Eu333 2.370 . S
O332 Eu326 2.372 . S
O332 Eu330 2.373 . S
O332 Eu334 2.370 . S
Eu333 O328 2.370 . S
Eu333 O331 2.370 . S
Eu333 O335 2.370 1_554 S
Eu333 O338 2.370 1_554 S
Eu333 O350 2.363 . S
Eu333 O351 2.363 . S
Eu333 O358 2.363 . S
Eu333 O359 2.363 1_554 S
Eu334 O327 2.370 . S
Eu334 O332 2.370 . S
Eu334 O336 2.370 1_554 S
Eu334 O337 2.370 1_554 S
Eu334 O348 2.363 . S
Eu334 O349 2.363 . S
Eu334 O356 2.363 . S
Eu334 O357 2.363 1_554 S
O335 Eu329 2.367 1_566 S
O335 Eu333 2.370 1_556 S
O335 Eu339 2.366 1_565 S
O336 Eu329 2.373 1_556 S
O336 Eu334 2.370 1_556 S
O336 Eu339 2.374 . S
O337 Eu330 2.373 1_556 S
O337 Eu334 2.370 1_556 S
O337 Eu339 2.374 . S
O338 Eu330 2.367 1_566 S
O338 Eu333 2.370 1_556 S
O338 Eu339 2.366 1_565 S
Eu339 O335 2.366 1_545 S
Eu339 O336 2.374 . S
Eu339 O337 2.374 . S
Eu339 O338 2.366 1_545 S
Eu339 O342 2.356 1_545 S
Eu339 O343 2.370 . S
Eu339 O352 2.363 . S
Eu339 O353 2.363 . S
O340 C314 1.283 . S
O340 Eu326 2.360 1_565 S
O341 C315 1.283 . S
O341 Eu326 2.366 . S
O342 C316 1.283 . S
O342 Eu339 2.356 1_565 S
O343 C317 1.283 . S
O343 Eu339 2.370 . S
O344 C318 1.283 . S
O344 Eu329 2.363 1_556 S
O345 C319 1.283 . S
O345 Eu329 2.363 . S
O346 C320 1.283 . S
O346 Eu330 2.363 1_556 S
O347 C321 1.283 . S
O347 Eu330 2.363 . S
O348 C322 1.283 . S
O348 Eu334 2.363 . S
O349 C323 1.283 . S
O349 Eu334 2.363 . S
O350 C324 1.283 . S
O350 Eu333 2.363 . S
O351 C325 1.283 . S
O351 Eu333 2.363 . S
O352 C320 1.283 . S
O352 Eu339 2.363 . S
O353 C318 1.283 . S
O353 Eu339 2.363 . S
O354 C321 1.283 . S
O354 Eu326 2.363 . S
O355 C319 1.283 . S
O355 Eu326 2.363 . S
O356 C315 1.283 . S
O356 Eu334 2.363 . S
O357 C317 1.283 . S
O357 Eu334 2.363 1_556 S
O358 C314 1.283 . S
O358 Eu333 2.363 . S
O359 C316 1.283 . S
O359 Eu333 2.363 1_556 S
O360 C325 1.283 . S
O360 Eu329 2.358 1_565 S
O361 C323 1.283 . S
O361 Eu329 2.368 . S
O362 C324 1.283 . S
O362 Eu330 2.358 1_565 S
O363 C322 1.283 . S
O363 Eu330 2.368 . S
C364 O390 1.283 . S
C364 O408 1.283 . S
C365 O391 1.283 . S
C365 O406 1.283 . S
C366 O392 1.283 . S
C366 O409 1.283 . S
C367 O393 1.283 . S
C367 O407 1.283 . S
C368 O394 1.283 . S
C368 O403 1.283 . S
C369 O395 1.283 . S
C369 O405 1.283 . S
C370 O396 1.283 . S
C370 O402 1.283 . S
C371 O397 1.283 . S
C371 O404 1.283 . S
C372 O398 1.283 . S
C372 O413 1.283 . S
C373 O399 1.283 . S
C373 O411 1.283 . S
C374 O400 1.283 . S
C374 O412 1.283 . S
C375 O401 1.283 . S
C375 O410 1.283 . S
Eu376 O377 2.348 1_454 S
Eu376 O378 2.393 . S
Eu376 O381 2.393 1_455 S
Eu376 O382 2.348 1_554 S
Eu376 O390 2.401 . S
Eu376 O391 2.325 1_554 S
Eu376 O404 2.363 . S
Eu376 O405 2.363 1_455 S
O377 Eu376 2.348 1_656 S
O377 Eu379 2.349 1_556 S
O377 Eu384 2.370 1_655 S
O378 Eu376 2.393 . S
O378 Eu380 2.393 . S
O378 Eu383 2.370 . S
Eu379 O377 2.349 1_554 S
Eu379 O381 2.391 . S
Eu379 O385 2.391 . S
Eu379 O386 2.349 1_554 S
Eu379 O394 2.363 . S
Eu379 O395 2.363 . S
Eu379 O410 2.398 . S
Eu379 O411 2.328 1_554 S
Eu380 O378 2.393 . S
Eu380 O382 2.348 1_554 S
Eu380 O387 2.348 1_554 S
Eu380 O388 2.392 . S
Eu380 O396 2.363 . S
Eu380 O397 2.363 . S
Eu380 O412 2.400 . S
Eu380 O413 2.326 1_554 S
O381 Eu376 2.393 1_655 S
O381 Eu379 2.391 . S
O381 Eu383 2.370 1_655 S
O382 Eu376 2.348 1_556 S
O382 Eu380 2.348 1_556 S
O382 Eu384 2.370 . S
Eu383 O378 2.370 . S
Eu383 O381 2.370 1_455 S
Eu383 O385 2.370 1_455 S
Eu383 O388 2.370 . S
Eu383 O400 2.363 . S
Eu383 O401 2.363 1_455 S
Eu383 O408 2.363 . S
Eu383 O409 2.363 . S
Eu384 O377 2.370 1_455 S
Eu384 O382 2.370 . S
Eu384 O386 2.370 1_455 S
Eu384 O387 2.370 . S
Eu384 O398 2.363 . S
Eu384 O399 2.363 1_455 S
Eu384 O406 2.363 . S
Eu384 O407 2.363 . S
O385 Eu379 2.391 . S
O385 Eu383 2.370 1_655 S
O385 Eu389 2.391 1_655 S
O386 Eu379 2.349 1_556 S
O386 Eu384 2.370 1_655 S
O386 Eu389 2.350 1_656 S
O387 Eu380 2.348 1_556 S
O387 Eu384 2.370 . S
O387 Eu389 2.350 1_556 S
O388 Eu380 2.392 . S
O388 Eu383 2.370 . S
O388 Eu389 2.391 . S
Eu389 O385 2.391 1_455 S
Eu389 O386 2.350 1_454 S
Eu389 O387 2.350 1_554 S
Eu389 O388 2.391 . S
Eu389 O392 2.398 . S
Eu389 O393 2.328 1_554 S
Eu389 O402 2.363 . S
Eu389 O403 2.363 1_455 S
O390 C364 1.283 . S
O390 Eu376 2.401 . S
O391 C365 1.283 . S
O391 Eu376 2.325 1_556 S
O392 C366 1.283 . S
O392 Eu389 2.398 . S
O393 C367 1.283 . S
O393 Eu389 2.328 1_556 S
O394 C368 1.283 . S
O394 Eu379 2.363 . S
O395 C369 1.283 . S
O395 Eu379 2.363 . S
O396 C370 1.283 . S
O396 Eu380 2.363 . S
O397 C371 1.283 . S
O397 Eu380 2.363 . S
O398 C372 1.283 . S
O398 Eu384 2.363 . S
O399 C373 1.283 . S
O399 Eu384 2.363 1_655 S
O400 C374 1.283 . S
O400 Eu383 2.363 . S
O401 C375 1.283 . S
O401 Eu383 2.363 1_655 S
O402 C370 1.283 . S
O402 Eu389 2.363 . S
O403 C368 1.283 . S
O403 Eu389 2.363 1_655 S
O404 C371 1.283 . S
O404 Eu376 2.363 . S
O405 C369 1.283 . S
O405 Eu376 2.363 1_655 S
O406 C365 1.283 . S
O406 Eu384 2.363 . S
O407 C367 1.283 . S
O407 Eu384 2.363 . S
O408 C364 1.283 . S
O408 Eu383 2.363 . S
O409 C366 1.283 . S
O409 Eu383 2.363 . S
O410 C375 1.283 . S
O410 Eu379 2.398 . S
O411 C373 1.283 . S
O411 Eu379 2.328 1_556 S
O412 C374 1.283 . S
O412 Eu380 2.400 . S
O413 C372 1.283 . S
O413 Eu380 2.326 1_556 S
C414 O440 1.283 . S
C414 O458 1.283 . S
C415 O441 1.283 . S
C415 O456 1.283 . S
C416 O442 1.283 . S
C416 O459 1.283 . S
C417 O443 1.283 . S
C417 O457 1.283 . S
C418 O444 1.283 . S
C418 O453 1.283 . S
C419 O445 1.283 . S
C419 O455 1.283 . S
C420 O446 1.283 . S
C420 O452 1.283 . S
C421 O447 1.283 . S
C421 O454 1.283 . S
C422 O448 1.283 . S
C422 O463 1.283 . S
C423 O449 1.283 . S
C423 O461 1.283 . S
C424 O450 1.283 . S
C424 O462 1.283 . S
C425 O451 1.283 . S
C425 O460 1.283 . S
Eu426 O427 2.370 . S
Eu426 O428 2.370 . S
Eu426 O431 2.370 . S
Eu426 O432 2.370 . S
Eu426 O440 2.363 . S
Eu426 O441 2.363 . S
Eu426 O454 2.363 . S
Eu426 O455 2.363 . S
O427 Eu426 2.370 . S
O427 Eu429 2.370 . S
O427 Eu434 2.370 . S
O428 Eu426 2.370 . S
O428 Eu430 2.370 . S
O428 Eu433 2.370 . S
Eu429 O427 2.370 . S
Eu429 O431 2.370 . S
Eu429 O435 2.370 1_554 S
Eu429 O436 2.370 1_554 S
Eu429 O444 2.363 1_554 S
Eu429 O445 2.363 . S
Eu429 O460 2.363 . S
Eu429 O461 2.363 . S
Eu430 O428 2.370 . S
Eu430 O432 2.370 . S
Eu430 O437 2.370 1_554 S
Eu430 O438 2.370 1_554 S
Eu430 O446 2.363 1_554 S
Eu430 O447 2.363 . S
Eu430 O462 2.363 . S
Eu430 O463 2.363 . S
O431 Eu426 2.370 . S
O431 Eu429 2.370 . S
O431 Eu433 2.370 . S
O432 Eu426 2.370 . S
O432 Eu430 2.370 . S
O432 Eu434 2.370 . S
Eu433 O428 2.370 . S
Eu433 O431 2.370 . S
Eu433 O435 2.370 1_554 S
Eu433 O438 2.370 1_554 S
Eu433 O450 2.363 . S
Eu433 O451 2.363 . S
Eu433 O458 2.363 . S
Eu433 O459 2.363 1_554 S
Eu434 O427 2.370 . S
Eu434 O432 2.370 . S
Eu434 O436 2.370 1_554 S
Eu434 O437 2.370 1_554 S
Eu434 O448 2.363 . S
Eu434 O449 2.363 . S
Eu434 O456 2.363 . S
Eu434 O457 2.363 1_554 S
O435 Eu429 2.370 1_556 S
O435 Eu433 2.370 1_556 S
O435 Eu439 2.370 . S
O436 Eu429 2.370 1_556 S
O436 Eu434 2.370 1_556 S
O436 Eu439 2.370 . S
O437 Eu430 2.370 1_556 S
O437 Eu434 2.370 1_556 S
O437 Eu439 2.370 . S
O438 Eu430 2.370 1_556 S
O438 Eu433 2.370 1_556 S
O438 Eu439 2.370 . S
Eu439 O435 2.370 . S
Eu439 O436 2.370 . S
Eu439 O437 2.370 . S
Eu439 O438 2.370 . S
Eu439 O442 2.363 . S
Eu439 O443 2.363 . S
Eu439 O452 2.363 . S
Eu439 O453 2.363 . S
O440 C414 1.283 . S
O440 Eu426 2.363 . S
O441 C415 1.283 . S
O441 Eu426 2.363 . S
O442 C416 1.283 . S
O442 Eu439 2.363 . S
O443 C417 1.283 . S
O443 Eu439 2.363 . S
O444 C418 1.283 . S
O444 Eu429 2.363 1_556 S
O445 C419 1.283 . S
O445 Eu429 2.363 . S
O446 C420 1.283 . S
O446 Eu430 2.363 1_556 S
O447 C421 1.283 . S
O447 Eu430 2.363 . S
O448 C422 1.283 . S
O448 Eu434 2.363 . S
O449 C423 1.283 . S
O449 Eu434 2.363 . S
O450 C424 1.283 . S
O450 Eu433 2.363 . S
O451 C425 1.283 . S
O451 Eu433 2.363 . S
O452 C420 1.283 . S
O452 Eu439 2.363 . S
O453 C418 1.283 . S
O453 Eu439 2.363 . S
O454 C421 1.283 . S
O454 Eu426 2.363 . S
O455 C419 1.283 . S
O455 Eu426 2.363 . S
O456 C415 1.283 . S
O456 Eu434 2.363 . S
O457 C417 1.283 . S
O457 Eu434 2.363 1_556 S
O458 C414 1.283 . S
O458 Eu433 2.363 . S
O459 C416 1.283 . S
O459 Eu433 2.363 1_556 S
O460 C425 1.283 . S
O460 Eu429 2.363 . S
O461 C423 1.283 . S
O461 Eu429 2.363 . S
O462 C424 1.283 . S
O462 Eu430 2.363 . S
O463 C422 1.283 . S
O463 Eu430 2.363 . S
C464 O490 1.283 . S
C464 O508 1.283 . S
C465 O491 1.283 . S
C465 O506 1.283 . S
C466 O492 1.283 . S
C466 O509 1.283 . S
C467 O493 1.283 . S
C467 O507 1.283 . S
C468 O494 1.283 . S
C468 O503 1.283 . S
C469 O495 1.283 . S
C469 O505 1.283 . S
C470 O496 1.283 . S
C470 O502 1.283 . S
C471 O497 1.283 . S
C471 O504 1.283 . S
C472 O498 1.283 . S
C472 O513 1.283 . S
C473 O499 1.283 . S
C473 O511 1.283 . S
C474 O500 1.283 . S
C474 O512 1.283 . S
C475 O501 1.283 . S
C475 O510 1.283 . S
Eu476 O477 2.370 1_455 S
Eu476 O478 2.370 . S
Eu476 O481 2.370 1_455 S
Eu476 O482 2.370 . S
Eu476 O490 2.363 . S
Eu476 O491 2.363 . S
Eu476 O504 2.363 . S
Eu476 O505 2.363 1_455 S
O477 Eu476 2.370 1_655 S
O477 Eu479 2.370 . S
O477 Eu484 2.370 1_655 S
O478 Eu476 2.370 . S
O478 Eu480 2.370 . S
O478 Eu483 2.370 . S
Eu479 O477 2.370 . S
Eu479 O481 2.370 . S
Eu479 O485 2.370 . S
Eu479 O486 2.370 . S
Eu479 O494 2.363 . S
Eu479 O495 2.363 . S
Eu479 O510 2.363 . S
Eu479 O511 2.363 . S
Eu480 O478 2.370 . S
Eu480 O482 2.370 . S
Eu480 O487 2.370 . S
Eu480 O488 2.370 . S
Eu480 O496 2.363 . S
Eu480 O497 2.363 . S
Eu480 O512 2.363 . S
Eu480 O513 2.363 . S
O481 Eu476 2.370 1_655 S
O481 Eu479 2.370 . S
O481 Eu483 2.370 1_655 S
O482 Eu476 2.370 . S
O482 Eu480 2.370 . S
O482 Eu484 2.370 . S
Eu483 O478 2.370 . S
Eu483 O481 2.370 1_455 S
Eu483 O485 2.370 1_455 S
Eu483 O488 2.370 . S
Eu483 O500 2.363 . S
Eu483 O501 2.363 1_455 S
Eu483 O508 2.363 . S
Eu483 O509 2.363 . S
Eu484 O477 2.370 1_455 S
Eu484 O482 2.370 . S
Eu484 O486 2.370 1_455 S
Eu484 O487 2.370 . S
Eu484 O498 2.363 . S
Eu484 O499 2.363 1_455 S
Eu484 O506 2.363 . S
Eu484 O507 2.363 . S
O485 Eu479 2.370 . S
O485 Eu483 2.370 1_655 S
O485 Eu489 2.370 1_655 S
O486 Eu479 2.370 . S
O486 Eu484 2.370 1_655 S
O486 Eu489 2.370 1_655 S
O487 Eu480 2.370 . S
O487 Eu484 2.370 . S
O487 Eu489 2.370 . S
O488 Eu480 2.370 . S
O488 Eu483 2.370 . S
O488 Eu489 2.370 . S
Eu489 O485 2.370 1_455 S
Eu489 O486 2.370 1_455 S
Eu489 O487 2.370 . S
Eu489 O488 2.370 . S
Eu489 O492 2.363 . S
Eu489 O493 2.363 . S
Eu489 O502 2.363 . S
Eu489 O503 2.363 1_455 S
O490 C464 1.283 . S
O490 Eu476 2.363 . S
O491 C465 1.283 . S
O491 Eu476 2.363 . S
O492 C466 1.283 . S
O492 Eu489 2.363 . S
O493 C467 1.283 . S
O493 Eu489 2.363 . S
O494 C468 1.283 . S
O494 Eu479 2.363 . S
O495 C469 1.283 . S
O495 Eu479 2.363 . S
O496 C470 1.283 . S
O496 Eu480 2.363 . S
O497 C471 1.283 . S
O497 Eu480 2.363 . S
O498 C472 1.283 . S
O498 Eu484 2.363 . S
O499 C473 1.283 . S
O499 Eu484 2.363 1_655 S
O500 C474 1.283 . S
O500 Eu483 2.363 . S
O501 C475 1.283 . S
O501 Eu483 2.363 1_655 S
O502 C470 1.283 . S
O502 Eu489 2.363 . S
O503 C468 1.283 . S
O503 Eu489 2.363 1_655 S
O504 C471 1.283 . S
O504 Eu476 2.363 . S
O505 C469 1.283 . S
O505 Eu476 2.363 1_655 S
O506 C465 1.283 . S
O506 Eu484 2.363 . S
O507 C467 1.283 . S
O507 Eu484 2.363 . S
O508 C464 1.283 . S
O508 Eu483 2.363 . S
O509 C466 1.283 . S
O509 Eu483 2.363 . S
O510 C475 1.283 . S
O510 Eu479 2.363 . S
O511 C473 1.283 . S
O511 Eu479 2.363 . S
O512 C474 1.283 . S
O512 Eu480 2.363 . S
O513 C472 1.283 . S
O513 Eu480 2.363 . S
C514 O540 1.283 . S
C514 O558 1.283 . S
C515 O541 1.283 . S
C515 O556 1.283 . S
C516 O542 1.283 . S
C516 O559 1.283 . S
C517 O543 1.283 . S
C517 O557 1.283 . S
C518 O544 1.283 . S
C518 O553 1.283 . S
C519 O545 1.283 . S
C519 O555 1.283 . S
C520 O546 1.283 . S
C520 O552 1.283 . S
C521 O547 1.283 . S
C521 O554 1.283 . S
C522 O548 1.283 . S
C522 O563 1.283 . S
C523 O549 1.283 . S
C523 O561 1.283 . S
C524 O550 1.283 . S
C524 O562 1.283 . S
C525 O551 1.283 . S
C525 O560 1.283 . S
Eu526 O527 2.370 . S
Eu526 O528 2.370 . S
Eu526 O531 2.370 . S
Eu526 O532 2.370 . S
Eu526 O540 2.363 . S
Eu526 O541 2.363 . S
Eu526 O554 2.363 . S
Eu526 O555 2.363 . S
O527 Eu526 2.370 . S
O527 Eu529 2.367 1_565 S
O527 Eu534 2.368 1_565 S
O528 Eu526 2.370 . S
O528 Eu530 2.367 1_565 S
O528 Eu533 2.366 1_565 S
Eu529 O527 2.367 1_545 S
Eu529 O531 2.367 1_545 S
Eu529 O535 2.373 . S
Eu529 O536 2.373 . S
Eu529 O544 2.368 . S
Eu529 O545 2.357 1_545 S
Eu529 O560 2.363 . S
Eu529 O561 2.363 . S
Eu530 O528 2.367 1_545 S
Eu530 O532 2.367 1_545 S
Eu530 O537 2.373 . S
Eu530 O538 2.373 . S
Eu530 O546 2.368 . S
Eu530 O547 2.357 1_545 S
Eu530 O562 2.363 . S
Eu530 O563 2.363 . S
O531 Eu526 2.370 . S
O531 Eu529 2.367 1_565 S
O531 Eu533 2.366 1_565 S
O532 Eu526 2.370 . S
O532 Eu530 2.367 1_565 S
O532 Eu534 2.368 1_565 S
Eu533 O528 2.366 1_545 S
Eu533 O531 2.366 1_545 S
Eu533 O535 2.374 . S
Eu533 O538 2.374 . S
Eu533 O550 2.363 . S
Eu533 O551 2.363 . S
Eu533 O558 2.356 1_545 S
Eu533 O559 2.370 . S
Eu534 O527 2.368 1_545 S
Eu534 O532 2.368 1_545 S
Eu534 O536 2.373 . S
Eu534 O537 2.373 . S
Eu534 O548 2.363 . S
Eu534 O549 2.363 . S
Eu534 O556 2.359 1_545 S
Eu534 O557 2.367 . S
O535 Eu529 2.373 . S
O535 Eu533 2.374 . S
O535 Eu539 2.370 . S
O536 Eu529 2.373 . S
O536 Eu534 2.373 . S
O536 Eu539 2.370 . S
O537 Eu530 2.373 . S
O537 Eu534 2.373 . S
O537 Eu539 2.370 . S
O538 Eu530 2.373 . S
O538 Eu533 2.374 . S
O538 Eu539 2.370 . S
Eu539 O535 2.370 . S
Eu539 O536 2.370 . S
Eu539 O537 2.370 . S
Eu539 O538 2.370 . S
Eu539 O542 2.363 . S
Eu539 O543 2.363 . S
Eu539 O552 2.363 . S
Eu539 O553 2.363 . S
O540 C514 1.283 . S
O540 Eu526 2.363 . S
O541 C515 1.283 . S
O541 Eu526 2.363 . S
O542 C516 1.283 . S
O542 Eu539 2.363 . S
O543 C517 1.283 . S
O543 Eu539 2.363 . S
O544 C518 1.283 . S
O544 Eu529 2.368 . S
O545 C519 1.283 . S
O545 Eu529 2.357 1_565 S
O546 C520 1.283 . S
O546 Eu530 2.368 . S
O547 C521 1.283 . S
O547 Eu530 2.357 1_565 S
O548 C522 1.283 . S
O548 Eu534 2.363 . S
O549 C523 1.283 . S
O549 Eu534 2.363 . S
O550 C524 1.283 . S
O550 Eu533 2.363 . S
O551 C525 1.283 . S
O551 Eu533 2.363 . S
O552 C520 1.283 . S
O552 Eu539 2.363 . S
O553 C518 1.283 . S
O553 Eu539 2.363 . S
O554 C521 1.283 . S
O554 Eu526 2.363 . S
O555 C519 1.283 . S
O555 Eu526 2.363 . S
O556 C515 1.283 . S
O556 Eu534 2.359 1_565 S
O557 C517 1.283 . S
O557 Eu534 2.367 . S
O558 C514 1.283 . S
O558 Eu533 2.356 1_565 S
O559 C516 1.283 . S
O559 Eu533 2.370 . S
O560 C525 1.283 . S
O560 Eu529 2.363 . S
O561 C523 1.283 . S
O561 Eu529 2.363 . S
O562 C524 1.283 . S
O562 Eu530 2.363 . S
O563 C522 1.283 . S
O563 Eu530 2.363 . S
H564 C570 0.930 . S
H565 C574 0.930 . S
H566 C579 0.929 . S
H567 C577 0.929 . S
H568 C572 0.929 . S
H569 C578 0.929 . S
C570 H564 0.930 . S
C570 C571 1.367 . S
C570 C578 1.378 . S
C571 C570 1.367 . S
C571 C579 1.433 . S
C572 H568 0.929 . S
C572 C574 1.378 . S
C572 C576 1.350 . S
C573 C576 1.463 . S
C573 C578 1.350 . S
C573 N581 1.427 . S
C574 H565 0.930 . S
C574 C572 1.378 . S
C574 C575 1.367 . S
C575 C574 1.367 . S
C575 C577 1.433 . S
C576 C572 1.350 . S
C576 C573 1.463 . S
C576 N580 1.427 . S
C577 H567 0.929 . S
C577 C575 1.433 . S
C577 N580 1.384 . S
C578 H569 0.929 . S
C578 C570 1.378 . S
C578 C573 1.350 . S
C579 H566 0.929 . S
C579 C571 1.433 . S
C579 N581 1.384 . S
N580 C576 1.427 . S
N580 C577 1.384 . S
N581 C573 1.427 . S
N581 C579 1.384 . S
H582 C588 0.930 . S
H583 C592 0.930 . S
H584 C597 0.929 . S
H585 C595 0.929 . S
H586 C590 0.929 . S
H587 C596 0.929 . S
C588 H582 0.930 . S
C588 C589 1.367 . S
C588 C596 1.378 . S
C589 C588 1.367 . S
C589 C597 1.433 . S
C590 H586 0.929 . S
C590 C592 1.378 . S
C590 C594 1.350 . S
C591 C594 1.463 . S
C591 C596 1.350 . S
C591 N599 1.427 . S
C592 H583 0.930 . S
C592 C590 1.378 . S
C592 C593 1.367 . S
C593 C592 1.367 . S
C593 C595 1.433 . S
C594 C590 1.350 . S
C594 C591 1.463 . S
C594 N598 1.427 . S
C595 H585 0.929 . S
C595 C593 1.433 . S
C595 N598 1.384 . S
C596 H587 0.929 . S
C596 C588 1.378 . S
C596 C591 1.350 . S
C597 H584 0.929 . S
C597 C589 1.433 . S
C597 N599 1.384 . S
N598 C594 1.427 . S
N598 C595 1.384 . S
N599 C591 1.427 . S
N599 C597 1.384 . S
H600 C606 0.930 . S
H601 C610 0.930 . S
H602 C615 0.929 . S
H603 C613 0.929 . S
H604 C608 0.929 . S
H605 C614 0.929 . S
C606 H600 0.930 . S
C606 C607 1.367 . S
C606 C614 1.378 . S
C607 C606 1.367 . S
C607 C615 1.433 . S
C608 H604 0.929 . S
C608 C610 1.378 . S
C608 C612 1.350 . S
C609 C612 1.463 . S
C609 C614 1.350 . S
C609 N617 1.427 . S
C610 H601 0.930 . S
C610 C608 1.378 . S
C610 C611 1.367 . S
C611 C610 1.367 . S
C611 C613 1.433 . S
C612 C608 1.350 . S
C612 C609 1.463 . S
C612 N616 1.427 . S
C613 H603 0.929 . S
C613 C611 1.433 . S
C613 N616 1.384 . S
C614 H605 0.929 . S
C614 C606 1.378 . S
C614 C609 1.350 . S
C615 H602 0.929 . S
C615 C607 1.433 . S
C615 N617 1.384 . S
N616 C612 1.427 . S
N616 C613 1.384 . S
N617 C609 1.427 . S
N617 C615 1.384 . S
H618 C624 0.930 . S
H619 C628 0.930 . S
H620 C633 0.929 . S
H621 C631 0.929 . S
H622 C626 0.929 . S
H623 C632 0.929 . S
C624 H618 0.930 . S
C624 C625 1.367 . S
C624 C632 1.378 . S
C625 C624 1.367 . S
C625 C633 1.433 . S
C626 H622 0.929 . S
C626 C628 1.378 . S
C626 C630 1.350 . S
C627 C630 1.463 . S
C627 C632 1.350 . S
C627 N635 1.427 . S
C628 H619 0.930 . S
C628 C626 1.378 . S
C628 C629 1.367 . S
C629 C628 1.367 . S
C629 C631 1.433 . S
C630 C626 1.350 . S
C630 C627 1.463 . S
C630 N634 1.427 . S
C631 H621 0.929 . S
C631 C629 1.433 . S
C631 N634 1.384 . S
C632 H623 0.929 . S
C632 C624 1.378 . S
C632 C627 1.350 . S
C633 H620 0.929 . S
C633 C625 1.433 . S
C633 N635 1.384 . S
N634 C630 1.427 . S
N634 C631 1.384 . S
N635 C627 1.427 . S
N635 C633 1.384 . S
H636 C642 0.930 . S
H637 C646 0.930 . S
H638 C651 0.929 . S
H639 C649 0.929 . S
H640 C644 0.929 . S
H641 C650 0.929 . S
C642 H636 0.930 . S
C642 C643 1.367 . S
C642 C650 1.378 . S
C643 C642 1.367 . S
C643 C651 1.433 . S
C644 H640 0.929 . S
C644 C646 1.378 . S
C644 C648 1.350 . S
C645 C648 1.463 . S
C645 C650 1.350 . S
C645 N653 1.427 . S
C646 H637 0.930 . S
C646 C644 1.378 . S
C646 C647 1.367 . S
C647 C646 1.367 . S
C647 C649 1.433 . S
C648 C644 1.350 . S
C648 C645 1.463 . S
C648 N652 1.427 . S
C649 H639 0.929 . S
C649 C647 1.433 . S
C649 N652 1.384 . S
C650 H641 0.929 . S
C650 C642 1.378 . S
C650 C645 1.350 . S
C651 H638 0.929 . S
C651 C643 1.433 . S
C651 N653 1.384 . S
N652 C648 1.427 . S
N652 C649 1.384 . S
N653 C645 1.427 . S
N653 C651 1.384 . S
H654 C660 0.930 . S
H655 C664 0.930 . S
H656 C669 0.929 . S
H657 C667 0.929 . S
H658 C662 0.929 . S
H659 C668 0.929 . S
C660 H654 0.930 . S
C660 C661 1.367 . S
C660 C668 1.378 . S
C661 C660 1.367 . S
C661 C669 1.433 . S
C662 H658 0.929 . S
C662 C664 1.378 . S
C662 C666 1.350 . S
C663 C666 1.463 . S
C663 C668 1.350 . S
C663 N671 1.427 . S
C664 H655 0.930 . S
C664 C662 1.378 . S
C664 C665 1.367 . S
C665 C664 1.367 . S
C665 C667 1.433 . S
C666 C662 1.350 . S
C666 C663 1.463 . S
C666 N670 1.427 . S
C667 H657 0.929 . S
C667 C665 1.433 . S
C667 N670 1.384 . S
C668 H659 0.929 . S
C668 C660 1.378 . S
C668 C663 1.350 . S
C669 H656 0.929 . S
C669 C661 1.433 . S
C669 N671 1.384 . S
N670 C666 1.427 . S
N670 C667 1.384 . S
N671 C663 1.427 . S
N671 C669 1.384 . S
H672 C678 0.930 . S
H673 C682 0.930 . S
H674 C687 0.929 . S
H675 C685 0.929 . S
H676 C680 0.929 . S
H677 C686 0.929 . S
C678 H672 0.930 . S
C678 C679 1.367 . S
C678 C686 1.378 . S
C679 C678 1.367 . S
C679 C687 1.433 . S
C680 H676 0.929 . S
C680 C682 1.378 . S
C680 C684 1.350 . S
C681 C684 1.463 . S
C681 C686 1.350 . S
C681 N689 1.427 . S
C682 H673 0.930 . S
C682 C680 1.378 . S
C682 C683 1.367 . S
C683 C682 1.367 . S
C683 C685 1.433 . S
C684 C680 1.350 . S
C684 C681 1.463 . S
C684 N688 1.427 . S
C685 H675 0.929 . S
C685 C683 1.433 . S
C685 N688 1.384 . S
C686 H677 0.929 . S
C686 C678 1.378 . S
C686 C681 1.350 . S
C687 H674 0.929 . S
C687 C679 1.433 . S
C687 N689 1.384 . S
N688 C684 1.427 . S
N688 C685 1.384 . S
N689 C681 1.427 . S
N689 C687 1.384 . S
H690 C696 0.930 . S
H691 C700 0.930 . S
H692 C705 0.929 . S
H693 C703 0.929 . S
H694 C698 0.929 . S
H695 C704 0.929 . S
C696 H690 0.930 . S
C696 C697 1.367 . S
C696 C704 1.378 . S
C697 C696 1.367 . S
C697 C705 1.433 . S
C698 H694 0.929 . S
C698 C700 1.378 . S
C698 C702 1.350 . S
C699 C702 1.463 . S
C699 C704 1.350 . S
C699 N707 1.427 . S
C700 H691 0.930 . S
C700 C698 1.378 . S
C700 C701 1.367 . S
C701 C700 1.367 . S
C701 C703 1.433 . S
C702 C698 1.350 . S
C702 C699 1.463 . S
C702 N706 1.427 . S
C703 H693 0.929 . S
C703 C701 1.433 . S
C703 N706 1.384 . S
C704 H695 0.929 . S
C704 C696 1.378 . S
C704 C699 1.350 . S
C705 H692 0.929 . S
C705 C697 1.433 . S
C705 N707 1.384 . S
N706 C702 1.427 . S
N706 C703 1.384 . S
N707 C699 1.427 . S
N707 C705 1.384 . S
H708 C714 0.930 . S
H709 C718 0.930 . S
H710 C723 0.929 . S
H711 C721 0.929 . S
H712 C716 0.929 . S
H713 C722 0.929 . S
C714 H708 0.930 . S
C714 C715 1.367 . S
C714 C722 1.378 . S
C715 C714 1.367 . S
C715 C723 1.433 . S
C716 H712 0.929 . S
C716 C718 1.378 . S
C716 C720 1.350 . S
C717 C720 1.463 . S
C717 C722 1.350 . S
C717 N725 1.427 . S
C718 H709 0.930 . S
C718 C716 1.378 . S
C718 C719 1.367 . S
C719 C718 1.367 . S
C719 C721 1.433 . S
C720 C716 1.350 . S
C720 C717 1.463 . S
C720 N724 1.427 . S
C721 H711 0.929 . S
C721 C719 1.433 . S
C721 N724 1.384 . S
C722 H713 0.929 . S
C722 C714 1.378 . S
C722 C717 1.350 . S
C723 H710 0.929 . S
C723 C715 1.433 . S
C723 N725 1.384 . S
N724 C720 1.427 . S
N724 C721 1.384 . S
N725 C717 1.427 . S
N725 C723 1.384 . S
H726 C732 0.930 . S
H727 C736 0.930 . S
H728 C741 0.929 . S
H729 C739 0.929 . S
H730 C734 0.929 . S
H731 C740 0.929 . S
C732 H726 0.930 . S
C732 C733 1.367 . S
C732 C740 1.378 . S
C733 C732 1.367 . S
C733 C741 1.433 . S
C734 H730 0.929 . S
C734 C736 1.378 . S
C734 C738 1.350 . S
C735 C738 1.463 . S
C735 C740 1.350 . S
C735 N743 1.427 . S
C736 H727 0.930 . S
C736 C734 1.378 . S
C736 C737 1.367 . S
C737 C736 1.367 . S
C737 C739 1.433 . S
C738 C734 1.350 . S
C738 C735 1.463 . S
C738 N742 1.427 . S
C739 H729 0.929 . S
C739 C737 1.433 . S
C739 N742 1.384 . S
C740 H731 0.929 . S
C740 C732 1.378 . S
C740 C735 1.350 . S
C741 H728 0.929 . S
C741 C733 1.433 . S
C741 N743 1.384 . S
N742 C738 1.427 . S
N742 C739 1.384 . S
N743 C735 1.427 . S
N743 C741 1.384 . S
H744 C750 0.930 . S
H745 C754 0.930 . S
H746 C759 0.929 . S
H747 C757 0.929 . S
H748 C752 0.929 . S
H749 C758 0.929 . S
C750 H744 0.930 . S
C750 C751 1.367 . S
C750 C758 1.378 . S
C751 C750 1.367 . S
C751 C759 1.433 . S
C752 H748 0.929 . S
C752 C754 1.378 . S
C752 C756 1.350 . S
C753 C756 1.463 . S
C753 C758 1.350 . S
C753 N761 1.427 . S
C754 H745 0.930 . S
C754 C752 1.378 . S
C754 C755 1.367 . S
C755 C754 1.367 . S
C755 C757 1.433 . S
C756 C752 1.350 . S
C756 C753 1.463 . S
C756 N760 1.427 . S
C757 H747 0.929 . S
C757 C755 1.433 . S
C757 N760 1.384 . S
C758 H749 0.929 . S
C758 C750 1.378 . S
C758 C753 1.350 . S
C759 H746 0.929 . S
C759 C751 1.433 . S
C759 N761 1.384 . S
N760 C756 1.427 . S
N760 C757 1.384 . S
N761 C753 1.427 . S
N761 C759 1.384 . S
H762 C768 0.930 . S
H763 C772 0.930 . S
H764 C777 0.929 . S
H765 C775 0.929 . S
H766 C770 0.929 . S
H767 C776 0.929 . S
C768 H762 0.930 . S
C768 C769 1.367 . S
C768 C776 1.378 . S
C769 C768 1.367 . S
C769 C777 1.433 . S
C770 H766 0.929 . S
C770 C772 1.378 . S
C770 C774 1.350 . S
C771 C774 1.463 . S
C771 C776 1.350 . S
C771 N779 1.427 . S
C772 H763 0.930 . S
C772 C770 1.378 . S
C772 C773 1.367 . S
C773 C772 1.367 . S
C773 C775 1.433 . S
C774 C770 1.350 . S
C774 C771 1.463 . S
C774 N778 1.427 . S
C775 H765 0.929 . S
C775 C773 1.433 . S
C775 N778 1.384 . S
C776 H767 0.929 . S
C776 C768 1.378 . S
C776 C771 1.350 . S
C777 H764 0.929 . S
C777 C769 1.433 . S
C777 N779 1.384 . S
N778 C774 1.427 . S
N778 C775 1.384 . S
N779 C771 1.427 . S
N779 C777 1.384 . S
H780 C786 0.930 . S
H781 C790 0.930 . S
H782 C795 0.929 . S
H783 C793 0.929 . S
H784 C788 0.929 . S
H785 C794 0.929 . S
C786 H780 0.930 . S
C786 C787 1.367 1_556 S
C786 C794 1.378 . S
C787 C786 1.367 1_554 S
C787 C795 1.433 . S
C788 H784 0.929 . S
C788 C790 1.378 . S
C788 C792 1.350 . S
C789 C792 1.463 . S
C789 C794 1.350 1_554 S
C789 N797 1.427 . S
C790 H781 0.930 . S
C790 C788 1.378 . S
C790 C791 1.367 . S
C791 C790 1.367 . S
C791 C793 1.433 1_554 S
C792 C788 1.350 . S
C792 C789 1.463 . S
C792 N796 1.427 1_554 S
C793 H783 0.929 . S
C793 C791 1.433 1_556 S
C793 N796 1.384 . S
C794 H785 0.929 . S
C794 C786 1.378 . S
C794 C789 1.350 1_556 S
C795 H782 0.929 . S
C795 C787 1.433 . S
C795 N797 1.384 . S
N796 C792 1.427 1_556 S
N796 C793 1.384 . S
N797 C789 1.427 . S
N797 C795 1.384 . S
H798 C804 0.930 . S
H799 C808 0.930 . S
H800 C813 0.929 . S
H801 C811 0.929 . S
H802 C806 0.929 . S
H803 C812 0.929 . S
C804 H798 0.930 . S
C804 C805 1.367 . S
C804 C812 1.378 . S
C805 C804 1.367 . S
C805 C813 1.433 1_554 S
C806 H802 0.929 . S
C806 C808 1.378 . S
C806 C810 1.350 1_556 S
C807 C810 1.463 . S
C807 C812 1.350 . S
C807 N815 1.427 1_554 S
C808 H799 0.930 . S
C808 C806 1.378 . S
C808 C809 1.367 1_556 S
C809 C808 1.367 1_554 S
C809 C811 1.433 . S
C810 C806 1.350 1_554 S
C810 C807 1.463 . S
C810 N814 1.427 . S
C811 H801 0.929 . S
C811 C809 1.433 . S
C811 N814 1.384 . S
C812 H803 0.929 . S
C812 C804 1.378 . S
C812 C807 1.350 . S
C813 H800 0.929 . S
C813 C805 1.433 1_556 S
C813 N815 1.384 . S
N814 C810 1.427 . S
N814 C811 1.384 . S
N815 C807 1.427 1_556 S
N815 C813 1.384 . S
H816 C822 0.930 . S
H817 C826 0.930 . S
H818 C831 0.929 . S
H819 C829 0.929 . S
H820 C824 0.929 . S
H821 C830 0.929 . S
C822 H816 0.930 . S
C822 C823 1.367 1_556 S
C822 C830 1.378 . S
C823 C822 1.367 1_554 S
C823 C831 1.433 . S
C824 H820 0.929 . S
C824 C826 1.378 . S
C824 C828 1.350 . S
C825 C828 1.463 . S
C825 C830 1.350 1_554 S
C825 N833 1.427 . S
C826 H817 0.930 . S
C826 C824 1.378 . S
C826 C827 1.367 . S
C827 C826 1.367 . S
C827 C829 1.433 1_554 S
C828 C824 1.350 . S
C828 C825 1.463 . S
C828 N832 1.427 1_554 S
C829 H819 0.929 . S
C829 C827 1.433 1_556 S
C829 N832 1.384 . S
C830 H821 0.929 . S
C830 C822 1.378 . S
C830 C825 1.350 1_556 S
C831 H818 0.929 . S
C831 C823 1.433 . S
C831 N833 1.384 . S
N832 C828 1.427 1_556 S
N832 C829 1.384 . S
N833 C825 1.427 . S
N833 C831 1.384 . S
H834 C840 0.930 . S
H835 C844 0.930 . S
H836 C849 0.929 . S
H837 C847 0.929 . S
H838 C842 0.929 . S
H839 C848 0.929 . S
C840 H834 0.930 . S
C840 C841 1.367 . S
C840 C848 1.378 . S
C841 C840 1.367 . S
C841 C849 1.433 1_554 S
C842 H838 0.929 . S
C842 C844 1.378 . S
C842 C846 1.350 1_556 S
C843 C846 1.463 . S
C843 C848 1.350 . S
C843 N851 1.427 1_554 S
C844 H835 0.930 . S
C844 C842 1.378 . S
C844 C845 1.367 1_556 S
C845 C844 1.367 1_554 S
C845 C847 1.433 . S
C846 C842 1.350 1_554 S
C846 C843 1.463 . S
C846 N850 1.427 . S
C847 H837 0.929 . S
C847 C845 1.433 . S
C847 N850 1.384 . S
C848 H839 0.929 . S
C848 C840 1.378 . S
C848 C843 1.350 . S
C849 H836 0.929 . S
C849 C841 1.433 1_556 S
C849 N851 1.384 . S
N850 C846 1.427 . S
N850 C847 1.384 . S
N851 C843 1.427 1_556 S
N851 C849 1.384 . S
H852 C858 0.930 . S
H853 C862 0.930 . S
H854 C867 0.929 . S
H855 C865 0.929 . S
H856 C860 0.929 . S
H857 C866 0.929 . S
C858 H852 0.930 . S
C858 C859 1.367 . S
C858 C866 1.378 . S
C859 C858 1.367 . S
C859 C867 1.433 . S
C860 H856 0.929 . S
C860 C862 1.378 . S
C860 C864 1.350 . S
C861 C864 1.463 . S
C861 C866 1.350 . S
C861 N869 1.427 . S
C862 H853 0.930 . S
C862 C860 1.378 . S
C862 C863 1.367 . S
C863 C862 1.367 . S
C863 C865 1.433 . S
C864 C860 1.350 . S
C864 C861 1.463 . S
C864 N868 1.427 . S
C865 H855 0.929 . S
C865 C863 1.433 . S
C865 N868 1.384 . S
C866 H857 0.929 . S
C866 C858 1.378 . S
C866 C861 1.350 . S
C867 H854 0.929 . S
C867 C859 1.433 . S
C867 N869 1.384 . S
N868 C864 1.427 . S
N868 C865 1.384 . S
N869 C861 1.427 . S
N869 C867 1.384 . S
H870 C876 0.930 . S
H871 C880 0.930 . S
H872 C885 0.929 . S
H873 C883 0.929 . S
H874 C878 0.929 . S
H875 C884 0.929 . S
C876 H870 0.930 . S
C876 C877 1.388 . S
C876 C884 1.378 . S
C877 C876 1.388 . S
C877 C885 1.412 1_545 S
C878 H874 0.929 . S
C878 C880 1.378 . S
C878 C882 1.353 . S
C879 C882 1.461 1_545 S
C879 C884 1.374 . S
C879 N887 1.403 1_545 S
C880 H871 0.930 . S
C880 C878 1.378 . S
C880 C881 1.367 . S
C881 C880 1.367 . S
C881 C883 1.433 1_565 S
C882 C878 1.353 . S
C882 C879 1.461 1_565 S
C882 N886 1.424 1_565 S
C883 H873 0.929 . S
C883 C881 1.433 1_545 S
C883 N886 1.384 . S
C884 H875 0.929 . S
C884 C876 1.378 . S
C884 C879 1.374 . S
C885 H872 0.929 . S
C885 C877 1.412 1_565 S
C885 N887 1.384 . S
N886 C882 1.424 1_545 S
N886 C883 1.384 . S
N887 C879 1.403 1_565 S
N887 C885 1.384 . S
H888 C894 0.930 . S
H889 C898 0.930 . S
H890 C903 0.929 . S
H891 C901 0.929 . S
H892 C896 0.929 . S
H893 C902 0.929 . S
C894 H888 0.930 . S
C894 C895 1.367 1_655 S
C894 C902 1.378 . S
C895 C894 1.367 1_455 S
C895 C903 1.433 . S
C896 H892 0.929 . S
C896 C898 1.378 . S
C896 C900 1.350 . S
C897 C900 1.463 . S
C897 C902 1.350 1_455 S
C897 N905 1.427 . S
C898 H889 0.930 . S
C898 C896 1.378 . S
C898 C899 1.367 . S
C899 C898 1.367 . S
C899 C901 1.433 1_455 S
C900 C896 1.350 . S
C900 C897 1.463 . S
C900 N904 1.427 1_455 S
C901 H891 0.929 . S
C901 C899 1.433 1_655 S
C901 N904 1.384 . S
C902 H893 0.929 . S
C902 C894 1.378 . S
C902 C897 1.350 1_655 S
C903 H890 0.929 . S
C903 C895 1.433 . S
C903 N905 1.384 . S
N904 C900 1.427 1_655 S
N904 C901 1.384 . S
N905 C897 1.427 . S
N905 C903 1.384 . S
H906 C912 0.930 . S
H907 C916 0.930 . S
H908 C921 0.929 . S
H909 C919 0.929 . S
H910 C914 0.929 . S
H911 C920 0.929 . S
C912 H906 0.930 . S
C912 C913 1.365 . S
C912 C920 1.378 . S
C913 C912 1.365 . S
C913 C921 1.435 1_565 S
C914 H910 0.929 . S
C914 C916 1.378 . S
C914 C918 1.350 . S
C915 C918 1.462 1_565 S
C915 C920 1.359 . S
C915 N923 1.418 1_565 S
C916 H907 0.930 . S
C916 C914 1.378 . S
C916 C917 1.392 . S
C917 C916 1.392 . S
C917 C919 1.408 1_545 S
C918 C914 1.350 . S
C918 C915 1.462 1_545 S
C918 N922 1.427 1_545 S
C919 H909 0.929 . S
C919 C917 1.408 1_565 S
C919 N922 1.384 . S
C920 H911 0.929 . S
C920 C912 1.378 . S
C920 C915 1.359 . S
C921 H908 0.929 . S
C921 C913 1.435 1_545 S
C921 N923 1.384 . S
N922 C918 1.427 1_565 S
N922 C919 1.384 . S
N923 C915 1.418 1_545 S
N923 C921 1.384 . S
H924 C930 0.930 . S
H925 C934 0.930 . S
H926 C939 0.929 . S
H927 C937 0.929 . S
H928 C932 0.929 . S
H929 C938 0.929 . S
C930 H924 0.930 . S
C930 C931 1.367 . S
C930 C938 1.378 . S
C931 C930 1.367 . S
C931 C939 1.433 1_455 S
C932 H928 0.929 . S
C932 C934 1.378 . S
C932 C936 1.350 1_655 S
C933 C936 1.463 . S
C933 C938 1.350 . S
C933 N941 1.427 1_455 S
C934 H925 0.930 . S
C934 C932 1.378 . S
C934 C935 1.367 1_655 S
C935 C934 1.367 1_455 S
C935 C937 1.433 . S
C936 C932 1.350 1_455 S
C936 C933 1.463 . S
C936 N940 1.427 . S
C937 H927 0.929 . S
C937 C935 1.433 . S
C937 N940 1.384 . S
C938 H929 0.929 . S
C938 C930 1.378 . S
C938 C933 1.350 . S
C939 H926 0.929 . S
C939 C931 1.433 1_655 S
C939 N941 1.384 . S
N940 C936 1.427 . S
N940 C937 1.384 . S
N941 C933 1.427 1_655 S
N941 C939 1.384 . S
H942 C948 0.930 . S
H943 C952 0.930 . S
H944 C957 0.929 . S
H945 C955 0.929 . S
H946 C950 0.929 . S
H947 C956 0.929 . S
C948 H942 0.930 . S
C948 C949 1.383 . S
C948 C956 1.378 . S
C949 C948 1.383 . S
C949 C957 1.417 1_565 S
C950 H946 0.929 . S
C950 C952 1.378 . S
C950 C954 1.381 . S
C951 C954 1.461 1_565 S
C951 C956 1.374 . S
C951 N959 1.404 1_565 S
C952 H943 0.930 . S
C952 C950 1.378 . S
C952 C953 1.390 . S
C953 C952 1.390 . S
C953 C955 1.410 1_545 S
C954 C950 1.381 . S
C954 C951 1.461 1_545 S
C954 N958 1.396 1_545 S
C955 H945 0.929 . S
C955 C953 1.410 1_565 S
C955 N958 1.384 . S
C956 H947 0.929 . S
C956 C948 1.378 . S
C956 C951 1.374 . S
C957 H944 0.929 . S
C957 C949 1.417 1_545 S
C957 N959 1.384 . S
N958 C954 1.396 1_565 S
N958 C955 1.384 . S
N959 C951 1.404 1_545 S
N959 C957 1.384 . S
H960 C966 0.930 . S
H961 C970 0.930 . S
H962 C975 0.929 . S
H963 C973 0.929 . S
H964 C968 0.929 . S
H965 C974 0.929 . S
C966 H960 0.930 . S
C966 C967 1.367 1_655 S
C966 C974 1.378 . S
C967 C966 1.367 1_455 S
C967 C975 1.433 . S
C968 H964 0.929 . S
C968 C970 1.378 . S
C968 C972 1.350 . S
C969 C972 1.463 . S
C969 C974 1.350 1_455 S
C969 N977 1.427 . S
C970 H961 0.930 . S
C970 C968 1.378 . S
C970 C971 1.367 . S
C971 C970 1.367 . S
C971 C973 1.433 1_455 S
C972 C968 1.350 . S
C972 C969 1.463 . S
C972 N976 1.427 1_455 S
C973 H963 0.929 . S
C973 C971 1.433 1_655 S
C973 N976 1.384 . S
C974 H965 0.929 . S
C974 C966 1.378 . S
C974 C969 1.350 1_655 S
C975 H962 0.929 . S
C975 C967 1.433 . S
C975 N977 1.384 . S
N976 C972 1.427 1_655 S
N976 C973 1.384 . S
N977 C969 1.427 . S
N977 C975 1.384 . S
H978 C984 0.930 . S
H979 C988 0.930 . S
H980 C993 0.929 . S
H981 C991 0.929 . S
H982 C986 0.929 . S
H983 C992 0.929 . S
C984 H978 0.930 . S
C984 C985 1.384 . S
C984 C992 1.378 . S
C985 C984 1.384 . S
C985 C993 1.415 1_545 S
C986 H982 0.929 . S
C986 C988 1.378 . S
C986 C990 1.373 . S
C987 C990 1.461 1_545 S
C987 C992 1.380 . S
C987 N995 1.397 1_545 S
C988 H979 0.930 . S
C988 C986 1.378 . S
C988 C989 1.377 . S
C989 C988 1.377 . S
C989 C991 1.423 1_565 S
C990 C986 1.373 . S
C990 C987 1.461 1_565 S
C990 N994 1.404 1_565 S
C991 H981 0.929 . S
C991 C989 1.423 1_545 S
C991 N994 1.384 . S
C992 H983 0.929 . S
C992 C984 1.378 . S
C992 C987 1.380 . S
C993 H980 0.929 . S
C993 C985 1.415 1_565 S
C993 N995 1.384 . S
N994 C990 1.404 1_545 S
N994 C991 1.384 . S
N995 C987 1.397 1_565 S
N995 C993 1.384 . S
H996 C1002 0.930 . S
H997 C1006 0.930 . S
H998 C1011 0.929 . S
H999 C1009 0.929 . S
H1000 C1004 0.929 . S
H1001 C1010 0.929 . S
C1002 H996 0.930 . S
C1002 C1003 1.367 . S
C1002 C1010 1.378 . S
C1003 C1002 1.367 . S
C1003 C1011 1.433 . S
C1004 H1000 0.929 . S
C1004 C1006 1.378 . S
C1004 C1008 1.350 . S
C1005 C1008 1.463 . S
C1005 C1010 1.350 . S
C1005 N1013 1.427 . S
C1006 H997 0.930 . S
C1006 C1004 1.378 . S
C1006 C1007 1.367 . S
C1007 C1006 1.367 . S
C1007 C1009 1.433 . S
C1008 C1004 1.350 . S
C1008 C1005 1.463 . S
C1008 N1012 1.427 . S
C1009 H999 0.929 . S
C1009 C1007 1.433 . S
C1009 N1012 1.384 . S
C1010 H1001 0.929 . S
C1010 C1002 1.378 . S
C1010 C1005 1.350 . S
C1011 H998 0.929 . S
C1011 C1003 1.433 . S
C1011 N1013 1.384 . S
N1012 C1008 1.427 . S
N1012 C1009 1.384 . S
N1013 C1005 1.427 . S
N1013 C1011 1.384 . S
H1014 C1020 0.930 . S
H1015 C1024 0.930 . S
H1016 C1029 0.929 . S
H1017 C1027 0.929 . S
H1018 C1022 0.929 . S
H1019 C1028 0.929 . S
C1020 H1014 0.930 . S
C1020 C1021 1.381 . S
C1020 C1028 1.378 . S
C1021 C1020 1.381 . S
C1021 C1029 1.419 1_565 S
C1022 H1018 0.929 . S
C1022 C1024 1.378 . S
C1022 C1026 1.350 . S
C1023 C1026 1.461 1_565 S
C1023 C1028 1.372 . S
C1023 N1031 1.405 1_565 S
C1024 H1015 0.930 . S
C1024 C1022 1.378 . S
C1024 C1025 1.396 . S
C1025 C1024 1.396 . S
C1025 C1027 1.404 1_545 S
C1026 C1022 1.350 . S
C1026 C1023 1.461 1_545 S
C1026 N1030 1.427 1_545 S
C1027 H1017 0.929 . S
C1027 C1025 1.404 1_565 S
C1027 N1030 1.384 . S
C1028 H1019 0.929 . S
C1028 C1020 1.378 . S
C1028 C1023 1.372 . S
C1029 H1016 0.929 . S
C1029 C1021 1.419 1_545 S
C1029 N1031 1.384 . S
N1030 C1026 1.427 1_565 S
N1030 C1027 1.384 . S
N1031 C1023 1.405 1_545 S
N1031 C1029 1.384 . S
H1032 C1038 0.930 . S
H1033 C1042 0.930 . S
H1034 C1047 0.929 . S
H1035 C1045 0.929 . S
H1036 C1040 0.929 . S
H1037 C1046 0.929 . S
C1038 H1032 0.930 . S
C1038 C1039 1.367 . S
C1038 C1046 1.378 . S
C1039 C1038 1.367 . S
C1039 C1047 1.433 . S
C1040 H1036 0.929 . S
C1040 C1042 1.378 . S
C1040 C1044 1.350 . S
C1041 C1044 1.463 . S
C1041 C1046 1.350 . S
C1041 N1049 1.427 . S
C1042 H1033 0.930 . S
C1042 C1040 1.378 . S
C1042 C1043 1.367 . S
C1043 C1042 1.367 . S
C1043 C1045 1.433 . S
C1044 C1040 1.350 . S
C1044 C1041 1.463 . S
C1044 N1048 1.427 . S
C1045 H1035 0.929 . S
C1045 C1043 1.433 . S
C1045 N1048 1.384 . S
C1046 H1037 0.929 . S
C1046 C1038 1.378 . S
C1046 C1041 1.350 . S
C1047 H1034 0.929 . S
C1047 C1039 1.433 . S
C1047 N1049 1.384 . S
N1048 C1044 1.427 . S
N1048 C1045 1.384 . S
N1049 C1041 1.427 . S
N1049 C1047 1.384 . S
H1050 C1056 0.930 . S
H1051 C1060 0.930 . S
H1052 C1065 0.929 . S
H1053 C1063 0.929 . S
H1054 C1058 0.929 . S
H1055 C1064 0.929 . S
C1056 H1050 0.930 . S
C1056 C1057 1.389 . S
C1056 C1064 1.378 . S
C1057 C1056 1.389 . S
C1057 C1065 1.411 1_545 S
C1058 H1054 0.929 . S
C1058 C1060 1.378 . S
C1058 C1062 1.370 . S
C1059 C1062 1.461 1_545 S
C1059 C1064 1.384 . S
C1059 N1067 1.393 1_545 S
C1060 H1051 0.930 . S
C1060 C1058 1.378 . S
C1060 C1061 1.374 . S
C1061 C1060 1.374 . S
C1061 C1063 1.426 1_565 S
C1062 C1058 1.370 . S
C1062 C1059 1.461 1_565 S
C1062 N1066 1.407 1_565 S
C1063 H1053 0.929 . S
C1063 C1061 1.426 1_545 S
C1063 N1066 1.384 . S
C1064 H1055 0.929 . S
C1064 C1056 1.378 . S
C1064 C1059 1.384 . S
C1065 H1052 0.929 . S
C1065 C1057 1.411 1_565 S
C1065 N1067 1.384 . S
N1066 C1062 1.407 1_545 S
N1066 C1063 1.384 . S
N1067 C1059 1.393 1_565 S
N1067 C1065 1.384 . S
H1068 C1074 0.930 . S
H1069 C1078 0.930 . S
H1070 C1083 0.929 . S
H1071 C1081 0.929 . S
H1072 C1076 0.929 . S
H1073 C1082 0.929 . S
C1074 H1068 0.930 . S
C1074 C1075 1.367 . S
C1074 C1082 1.378 . S
C1075 C1074 1.367 . S
C1075 C1083 1.433 . S
C1076 H1072 0.929 . S
C1076 C1078 1.378 . S
C1076 C1080 1.350 . S
C1077 C1080 1.463 . S
C1077 C1082 1.350 . S
C1077 N1085 1.427 . S
C1078 H1069 0.930 . S
C1078 C1076 1.378 . S
C1078 C1079 1.367 . S
C1079 C1078 1.367 . S
C1079 C1081 1.433 . S
C1080 C1076 1.350 . S
C1080 C1077 1.463 . S
C1080 N1084 1.427 . S
C1081 H1071 0.929 . S
C1081 C1079 1.433 . S
C1081 N1084 1.384 . S
C1082 H1073 0.929 . S
C1082 C1074 1.378 . S
C1082 C1077 1.350 . S
C1083 H1070 0.929 . S
C1083 C1075 1.433 . S
C1083 N1085 1.384 . S
N1084 C1080 1.427 . S
N1084 C1081 1.384 . S
N1085 C1077 1.427 . S
N1085 C1083 1.384 . S
H1086 C1092 0.930 . S
H1087 C1096 0.930 . S
H1088 C1101 0.929 . S
H1089 C1099 0.929 . S
H1090 C1094 0.929 . S
H1091 C1100 0.929 . S
C1092 H1086 0.930 . S
C1092 C1093 1.367 . S
C1092 C1100 1.378 . S
C1093 C1092 1.367 . S
C1093 C1101 1.433 1_545 S
C1094 H1090 0.929 . S
C1094 C1096 1.378 . S
C1094 C1098 1.367 . S
C1095 C1098 1.462 1_545 S
C1095 C1100 1.350 . S
C1095 N1103 1.427 1_545 S
C1096 H1087 0.930 . S
C1096 C1094 1.378 . S
C1096 C1097 1.375 . S
C1097 C1096 1.375 . S
C1097 C1099 1.424 1_565 S
C1098 C1094 1.367 . S
C1098 C1095 1.462 1_565 S
C1098 N1102 1.410 1_565 S
C1099 H1089 0.929 . S
C1099 C1097 1.424 1_545 S
C1099 N1102 1.384 . S
C1100 H1091 0.929 . S
C1100 C1092 1.378 . S
C1100 C1095 1.350 . S
C1101 H1088 0.929 . S
C1101 C1093 1.433 1_565 S
C1101 N1103 1.384 . S
N1102 C1098 1.410 1_545 S
N1102 C1099 1.384 . S
N1103 C1095 1.427 1_565 S
N1103 C1101 1.384 . S
H1104 C1110 0.930 . S
H1105 C1114 0.930 . S
H1106 C1119 0.913 1_655 S
H1107 C1117 0.929 . S
H1108 C1112 0.929 . S
H1109 C1118 0.929 . S
C1110 H1104 0.930 . S
C1110 C1111 1.367 . S
C1110 C1118 1.378 . S
C1111 C1110 1.367 . S
C1111 C1119 1.433 . S
C1112 H1108 0.929 . S
C1112 C1114 1.378 . S
C1112 C1116 1.350 . S
C1113 C1116 1.463 . S
C1113 C1118 1.350 . S
C1113 N1121 1.427 . S
C1114 H1105 0.930 . S
C1114 C1112 1.378 . S
C1114 C1115 1.367 . S
C1115 C1114 1.367 . S
C1115 C1117 1.433 . S
C1116 C1112 1.350 . S
C1116 C1113 1.463 . S
C1116 N1120 1.427 . S
C1117 H1107 0.929 . S
C1117 C1115 1.433 . S
C1117 N1120 1.384 . S
C1118 H1109 0.929 . S
C1118 C1110 1.378 . S
C1118 C1113 1.350 . S
C1119 H1106 0.913 1_455 S
C1119 C1111 1.433 . S
C1119 N1121 1.384 . S
N1120 C1116 1.427 . S
N1120 C1117 1.384 . S
N1121 C1113 1.427 . S
N1121 C1119 1.384 . S
H1122 C1128 0.930 . S
H1123 C1132 0.930 . S
H1124 C1137 0.929 . S
H1125 C1135 0.929 . S
H1126 C1130 0.929 . S
H1127 C1136 0.929 . S
C1128 H1122 0.930 . S
C1128 C1129 1.368 . S
C1128 C1136 1.378 . S
C1129 C1128 1.368 . S
C1129 C1137 1.432 1_565 S
C1130 H1126 0.929 . S
C1130 C1132 1.378 . S
C1130 C1134 1.350 . S
C1131 C1134 1.462 1_565 S
C1131 C1136 1.365 . S
C1131 N1139 1.412 1_565 S
C1132 H1123 0.930 . S
C1132 C1130 1.378 . S
C1132 C1133 1.398 . S
C1133 C1132 1.398 . S
C1133 C1135 1.402 1_545 S
C1134 C1130 1.350 . S
C1134 C1131 1.462 1_545 S
C1134 N1138 1.427 1_545 S
C1135 H1125 0.929 . S
C1135 C1133 1.402 1_565 S
C1135 N1138 1.384 . S
C1136 H1127 0.929 . S
C1136 C1128 1.378 . S
C1136 C1131 1.365 . S
C1137 H1124 0.929 . S
C1137 C1129 1.432 1_545 S
C1137 N1139 1.384 . S
N1138 C1134 1.427 1_565 S
N1138 C1135 1.384 . S
N1139 C1131 1.412 1_545 S
N1139 C1137 1.384 . S
H1140 C1146 0.930 . S
H1141 C1150 0.930 . S
H1142 C1155 0.929 . S
H1143 C1153 0.929 . S
H1144 C1148 0.929 . S
H1145 C1154 0.929 . S
C1146 H1140 0.930 . S
C1146 C1147 1.386 . S
C1146 C1154 1.378 . S
C1147 C1146 1.386 . S
C1147 C1155 1.413 1_565 S
C1148 H1144 0.929 . S
C1148 C1150 1.378 . S
C1148 C1152 1.385 . S
C1149 C1152 1.460 1_565 S
C1149 C1154 1.379 . S
C1149 N1157 1.398 1_565 S
C1150 H1141 0.930 . S
C1150 C1148 1.378 . S
C1150 C1151 1.392 . S
C1151 C1150 1.392 . S
C1151 C1153 1.407 1_545 S
C1152 C1148 1.385 . S
C1152 C1149 1.460 1_545 S
C1152 N1156 1.392 1_545 S
C1153 H1143 0.929 . S
C1153 C1151 1.407 1_565 S
C1153 N1156 1.384 . S
C1154 H1145 0.929 . S
C1154 C1146 1.378 . S
C1154 C1149 1.379 . S
C1155 H1142 0.929 . S
C1155 C1147 1.413 1_545 S
C1155 N1157 1.384 . S
N1156 C1152 1.392 1_565 S
N1156 C1153 1.384 . S
N1157 C1149 1.398 1_545 S
N1157 C1155 1.384 . S
H1158 C1164 0.930 1_655 S
H1159 C1168 0.930 . S
H1160 C1173 0.929 . S
H1161 C1171 0.929 . S
H1162 C1166 0.929 . S
H1163 C1172 0.916 1_655 S
C1164 H1158 0.930 1_455 S
C1164 C1165 1.367 . S
C1164 C1172 1.380 . S
C1165 C1164 1.367 . S
C1165 C1173 1.433 . S
C1166 H1162 0.929 . S
C1166 C1168 1.378 . S
C1166 C1170 1.350 . S
C1167 C1170 1.463 . S
C1167 C1172 1.362 . S
C1167 N1175 1.427 . S
C1168 H1159 0.930 . S
C1168 C1166 1.378 . S
C1168 C1169 1.367 . S
C1169 C1168 1.367 . S
C1169 C1171 1.433 1_455 S
C1170 C1166 1.350 . S
C1170 C1167 1.463 . S
C1170 N1174 1.427 1_455 S
C1171 H1161 0.929 . S
C1171 C1169 1.433 1_655 S
C1171 N1174 1.384 . S
C1172 H1163 0.916 1_455 S
C1172 C1164 1.380 . S
C1172 C1167 1.362 . S
C1173 H1160 0.929 . S
C1173 C1165 1.433 . S
C1173 N1175 1.384 . S
N1174 C1170 1.427 1_655 S
N1174 C1171 1.384 . S
N1175 C1167 1.427 . S
N1175 C1173 1.384 . S
H1176 C1182 0.930 . S
H1177 C1186 0.930 . S
H1178 C1191 0.929 . S
H1179 C1189 0.929 . S
H1180 C1184 0.929 . S
H1181 C1190 0.929 . S
C1182 H1176 0.930 . S
C1182 C1183 1.385 . S
C1182 C1190 1.378 . S
C1183 C1182 1.385 . S
C1183 C1191 1.415 1_565 S
C1184 H1180 0.929 . S
C1184 C1186 1.378 . S
C1184 C1188 1.383 . S
C1185 C1188 1.460 1_565 S
C1185 C1190 1.377 . S
C1185 N1193 1.400 1_565 S
C1186 H1177 0.930 . S
C1186 C1184 1.378 . S
C1186 C1187 1.391 . S
C1187 C1186 1.391 . S
C1187 C1189 1.409 1_545 S
C1188 C1184 1.383 . S
C1188 C1185 1.460 1_545 S
C1188 N1192 1.394 1_545 S
C1189 H1179 0.929 . S
C1189 C1187 1.409 1_565 S
C1189 N1192 1.384 . S
C1190 H1181 0.929 . S
C1190 C1182 1.378 . S
C1190 C1185 1.377 . S
C1191 H1178 0.929 . S
C1191 C1183 1.415 1_545 S
C1191 N1193 1.384 . S
N1192 C1188 1.394 1_565 S
N1192 C1189 1.384 . S
N1193 C1185 1.400 1_545 S
N1193 C1191 1.384 . S
H1194 C1200 0.930 . S
H1195 C1204 0.930 . S
H1196 C1209 0.925 1_655 S
H1197 C1207 0.929 . S
H1198 C1202 0.930 . S
H1199 C1208 0.929 . S
C1200 H1194 0.930 . S
C1200 C1201 1.367 . S
C1200 C1208 1.378 . S
C1201 C1200 1.367 . S
C1201 C1209 1.433 . S
C1202 H1198 0.930 . S
C1202 C1204 1.378 . S
C1202 C1206 1.348 1_655 S
C1203 C1206 1.463 . S
C1203 C1208 1.350 . S
C1203 N1211 1.427 . S
C1204 H1195 0.930 . S
C1204 C1202 1.378 . S
C1204 C1205 1.367 1_655 S
C1205 C1204 1.367 1_455 S
C1205 C1207 1.433 . S
C1206 C1202 1.348 1_455 S
C1206 C1203 1.463 . S
C1206 N1210 1.427 . S
C1207 H1197 0.929 . S
C1207 C1205 1.433 . S
C1207 N1210 1.384 . S
C1208 H1199 0.929 . S
C1208 C1200 1.378 . S
C1208 C1203 1.350 . S
C1209 H1196 0.925 1_455 S
C1209 C1201 1.433 . S
C1209 N1211 1.384 . S
N1210 C1206 1.427 . S
N1210 C1207 1.384 . S
N1211 C1203 1.427 . S
N1211 C1209 1.384 . S
H1212 C1218 0.930 . S
H1213 C1222 0.930 . S
H1214 C1227 0.929 . S
H1215 C1225 0.929 . S
H1216 C1220 0.929 . S
H1217 C1226 0.929 . S
C1218 H1212 0.930 . S
C1218 C1219 1.391 . S
C1218 C1226 1.378 . S
C1219 C1218 1.391 . S
C1219 C1227 1.410 1_545 S
C1220 H1216 0.929 . S
C1220 C1222 1.378 . S
C1220 C1224 1.355 . S
C1221 C1224 1.462 1_545 S
C1221 C1226 1.350 . S
C1221 N1229 1.427 1_545 S
C1222 H1213 0.930 . S
C1222 C1220 1.378 . S
C1222 C1223 1.368 . S
C1223 C1222 1.368 . S
C1223 C1225 1.432 1_565 S
C1224 C1220 1.355 . S
C1224 C1221 1.462 1_565 S
C1224 N1228 1.422 1_565 S
C1225 H1215 0.929 . S
C1225 C1223 1.432 1_545 S
C1225 N1228 1.384 . S
C1226 H1217 0.929 . S
C1226 C1218 1.378 . S
C1226 C1221 1.350 . S
C1227 H1214 0.929 . S
C1227 C1219 1.410 1_565 S
C1227 N1229 1.384 . S
N1228 C1224 1.422 1_545 S
N1228 C1225 1.384 . S
N1229 C1221 1.427 1_565 S
N1229 C1227 1.384 . S
H1230 C1236 0.930 . S
H1231 C1240 0.930 . S
H1232 C1245 0.929 . S
H1233 C1243 0.929 . S
H1234 C1238 0.929 . S
H1235 C1244 0.929 . S
C1236 H1230 0.930 . S
C1236 C1237 1.367 1_655 S
C1236 C1244 1.378 . S
C1237 C1236 1.367 1_455 S
C1237 C1245 1.433 . S
C1238 H1234 0.929 . S
C1238 C1240 1.378 . S
C1238 C1242 1.350 . S
C1239 C1242 1.463 . S
C1239 C1244 1.350 1_455 S
C1239 N1247 1.427 . S
C1240 H1231 0.930 . S
C1240 C1238 1.378 . S
C1240 C1241 1.367 . S
C1241 C1240 1.367 . S
C1241 C1243 1.433 1_455 S
C1242 C1238 1.350 . S
C1242 C1239 1.463 . S
C1242 N1246 1.427 1_455 S
C1243 H1233 0.929 . S
C1243 C1241 1.433 1_655 S
C1243 N1246 1.384 . S
C1244 H1235 0.929 . S
C1244 C1236 1.378 . S
C1244 C1239 1.350 1_655 S
C1245 H1232 0.929 . S
C1245 C1237 1.433 . S
C1245 N1247 1.384 . S
N1246 C1242 1.427 1_655 S
N1246 C1243 1.384 . S
N1247 C1239 1.427 . S
N1247 C1245 1.384 . S
H1248 C1254 0.930 . S
H1249 C1258 0.930 . S
H1250 C1263 0.929 . S
H1251 C1261 0.929 . S
H1252 C1256 0.929 . S
H1253 C1262 0.929 . S
C1254 H1248 0.930 . S
C1254 C1255 1.367 1_565 S
C1254 C1262 1.378 . S
C1255 C1254 1.367 1_545 S
C1255 C1263 1.433 . S
C1256 H1252 0.929 . S
C1256 C1258 1.378 . S
C1256 C1260 1.372 . S
C1257 C1260 1.462 1_565 S
C1257 C1262 1.352 . S
C1257 N1265 1.426 1_565 S
C1258 H1249 0.930 . S
C1258 C1256 1.378 . S
C1258 C1259 1.382 . S
C1259 C1258 1.382 . S
C1259 C1261 1.418 1_545 S
C1260 C1256 1.372 . S
C1260 C1257 1.462 1_545 S
C1260 N1264 1.406 1_545 S
C1261 H1251 0.929 . S
C1261 C1259 1.418 1_565 S
C1261 N1264 1.384 . S
C1262 H1253 0.929 . S
C1262 C1254 1.378 . S
C1262 C1257 1.352 . S
C1263 H1250 0.929 . S
C1263 C1255 1.433 . S
C1263 N1265 1.384 . S
N1264 C1260 1.406 1_565 S
N1264 C1261 1.384 . S
N1265 C1257 1.426 1_545 S
N1265 C1263 1.384 . S
H1266 C1272 0.930 . S
H1267 C1276 0.930 . S
H1268 C1281 0.929 . S
H1269 C1279 0.929 . S
H1270 C1274 0.929 . S
H1271 C1280 0.929 . S
C1272 H1266 0.930 . S
C1272 C1273 1.367 . S
C1272 C1280 1.378 . S
C1273 C1272 1.367 . S
C1273 C1281 1.433 1_455 S
C1274 H1270 0.929 . S
C1274 C1276 1.378 . S
C1274 C1278 1.350 1_655 S
C1275 C1278 1.463 . S
C1275 C1280 1.350 . S
C1275 N1283 1.427 1_455 S
C1276 H1267 0.930 . S
C1276 C1274 1.378 . S
C1276 C1277 1.367 1_655 S
C1277 C1276 1.367 1_455 S
C1277 C1279 1.433 . S
C1278 C1274 1.350 1_455 S
C1278 C1275 1.463 . S
C1278 N1282 1.427 . S
C1279 H1269 0.929 . S
C1279 C1277 1.433 . S
C1279 N1282 1.384 . S
C1280 H1271 0.929 . S
C1280 C1272 1.378 . S
C1280 C1275 1.350 . S
C1281 H1268 0.929 . S
C1281 C1273 1.433 1_655 S
C1281 N1283 1.384 . S
N1282 C1278 1.427 . S
N1282 C1279 1.384 . S
N1283 C1275 1.427 1_655 S
N1283 C1281 1.384 . S
H1284 C1290 0.930 . S
H1285 C1294 0.930 . S
H1286 C1299 0.929 . S
H1287 C1297 0.929 . S
H1288 C1292 0.929 . S
H1289 C1298 0.929 . S
C1290 H1284 0.930 . S
C1290 C1291 1.367 . S
C1290 C1298 1.378 . S
C1291 C1290 1.367 . S
C1291 C1299 1.433 1_554 S
C1292 H1288 0.929 . S
C1292 C1294 1.378 . S
C1292 C1296 1.350 1_556 S
C1293 C1296 1.463 . S
C1293 C1298 1.350 . S
C1293 N1301 1.427 1_554 S
C1294 H1285 0.930 . S
C1294 C1292 1.378 . S
C1294 C1295 1.367 1_556 S
C1295 C1294 1.367 1_554 S
C1295 C1297 1.433 . S
C1296 C1292 1.350 1_554 S
C1296 C1293 1.463 . S
C1296 N1300 1.427 . S
C1297 H1287 0.929 . S
C1297 C1295 1.433 . S
C1297 N1300 1.384 . S
C1298 H1289 0.929 . S
C1298 C1290 1.378 . S
C1298 C1293 1.350 . S
C1299 H1286 0.929 . S
C1299 C1291 1.433 1_556 S
C1299 N1301 1.384 . S
N1300 C1296 1.427 . S
N1300 C1297 1.384 . S
N1301 C1293 1.427 1_556 S
N1301 C1299 1.384 . S
H1302 C1308 0.930 . S
H1303 C1312 0.930 . S
H1304 C1317 0.929 . S
H1305 C1315 0.929 . S
H1306 C1310 0.929 . S
H1307 C1316 0.929 . S
C1308 H1302 0.930 . S
C1308 C1309 1.367 1_556 S
C1308 C1316 1.378 . S
C1309 C1308 1.367 1_554 S
C1309 C1317 1.433 . S
C1310 H1306 0.929 . S
C1310 C1312 1.378 . S
C1310 C1314 1.350 . S
C1311 C1314 1.463 . S
C1311 C1316 1.350 1_554 S
C1311 N1319 1.427 . S
C1312 H1303 0.930 . S
C1312 C1310 1.378 . S
C1312 C1313 1.367 . S
C1313 C1312 1.367 . S
C1313 C1315 1.433 1_554 S
C1314 C1310 1.350 . S
C1314 C1311 1.463 . S
C1314 N1318 1.427 1_554 S
C1315 H1305 0.929 . S
C1315 C1313 1.433 1_556 S
C1315 N1318 1.384 . S
C1316 H1307 0.929 . S
C1316 C1308 1.378 . S
C1316 C1311 1.350 1_556 S
C1317 H1304 0.929 . S
C1317 C1309 1.433 . S
C1317 N1319 1.384 . S
N1318 C1314 1.427 1_556 S
N1318 C1315 1.384 . S
N1319 C1311 1.427 . S
N1319 C1317 1.384 . S
H1320 C1326 0.930 . S
H1321 C1330 0.930 . S
H1322 C1335 0.929 . S
H1323 C1333 0.929 . S
H1324 C1328 0.929 . S
H1325 C1334 0.929 . S
C1326 H1320 0.930 . S
C1326 C1327 1.367 1_556 S
C1326 C1334 1.378 . S
C1327 C1326 1.367 1_554 S
C1327 C1335 1.433 . S
C1328 H1324 0.929 . S
C1328 C1330 1.378 . S
C1328 C1332 1.350 . S
C1329 C1332 1.463 . S
C1329 C1334 1.350 1_554 S
C1329 N1337 1.427 . S
C1330 H1321 0.930 . S
C1330 C1328 1.378 . S
C1330 C1331 1.367 . S
C1331 C1330 1.367 . S
C1331 C1333 1.433 1_554 S
C1332 C1328 1.350 . S
C1332 C1329 1.463 . S
C1332 N1336 1.427 1_554 S
C1333 H1323 0.929 . S
C1333 C1331 1.433 1_556 S
C1333 N1336 1.384 . S
C1334 H1325 0.929 . S
C1334 C1326 1.378 . S
C1334 C1329 1.350 1_556 S
C1335 H1322 0.929 . S
C1335 C1327 1.433 . S
C1335 N1337 1.384 . S
N1336 C1332 1.427 1_556 S
N1336 C1333 1.384 . S
N1337 C1329 1.427 . S
N1337 C1335 1.384 . S
H1338 C1344 0.930 . S
H1339 C1348 0.930 . S
H1340 C1353 0.929 . S
H1341 C1351 0.929 . S
H1342 C1346 0.929 . S
H1343 C1352 0.929 . S
C1344 H1338 0.930 . S
C1344 C1345 1.367 1_556 S
C1344 C1352 1.378 . S
C1345 C1344 1.367 1_554 S
C1345 C1353 1.433 . S
C1346 H1342 0.929 . S
C1346 C1348 1.378 . S
C1346 C1350 1.350 . S
C1347 C1350 1.463 . S
C1347 C1352 1.350 1_554 S
C1347 N1355 1.427 . S
C1348 H1339 0.930 . S
C1348 C1346 1.378 . S
C1348 C1349 1.367 . S
C1349 C1348 1.367 . S
C1349 C1351 1.433 1_554 S
C1350 C1346 1.350 . S
C1350 C1347 1.463 . S
C1350 N1354 1.427 1_554 S
C1351 H1341 0.929 . S
C1351 C1349 1.433 1_556 S
C1351 N1354 1.384 . S
C1352 H1343 0.929 . S
C1352 C1344 1.378 . S
C1352 C1347 1.350 1_556 S
C1353 H1340 0.929 . S
C1353 C1345 1.433 . S
C1353 N1355 1.384 . S
N1354 C1350 1.427 1_556 S
N1354 C1351 1.384 . S
N1355 C1347 1.427 . S
N1355 C1353 1.384 . S
H1356 C1362 0.930 . S
H1357 C1366 0.930 . S
H1358 C1371 0.929 . S
H1359 C1369 0.929 . S
H1360 C1364 0.929 . S
H1361 C1370 0.929 . S
C1362 H1356 0.930 . S
C1362 C1363 1.367 1_556 S
C1362 C1370 1.378 . S
C1363 C1362 1.367 1_554 S
C1363 C1371 1.433 . S
C1364 H1360 0.929 . S
C1364 C1366 1.378 . S
C1364 C1368 1.350 . S
C1365 C1368 1.463 . S
C1365 C1370 1.350 1_554 S
C1365 N1373 1.427 . S
C1366 H1357 0.930 . S
C1366 C1364 1.378 . S
C1366 C1367 1.367 . S
C1367 C1366 1.367 . S
C1367 C1369 1.433 1_554 S
C1368 C1364 1.350 . S
C1368 C1365 1.463 . S
C1368 N1372 1.427 1_554 S
C1369 H1359 0.929 . S
C1369 C1367 1.433 1_556 S
C1369 N1372 1.384 . S
C1370 H1361 0.929 . S
C1370 C1362 1.378 . S
C1370 C1365 1.350 1_556 S
C1371 H1358 0.929 . S
C1371 C1363 1.433 . S
C1371 N1373 1.384 . S
N1372 C1368 1.427 1_556 S
N1372 C1369 1.384 . S
N1373 C1365 1.427 . S
N1373 C1371 1.384 . S
H1374 C1380 0.930 . S
H1375 C1384 0.930 . S
H1376 C1389 0.929 . S
H1377 C1387 0.929 . S
H1378 C1382 0.929 . S
H1379 C1388 0.929 . S
C1380 H1374 0.930 . S
C1380 C1381 1.367 . S
C1380 C1388 1.378 . S
C1381 C1380 1.367 . S
C1381 C1389 1.433 1_554 S
C1382 H1378 0.929 . S
C1382 C1384 1.378 . S
C1382 C1386 1.350 1_556 S
C1383 C1386 1.463 . S
C1383 C1388 1.350 . S
C1383 N1391 1.427 1_554 S
C1384 H1375 0.930 . S
C1384 C1382 1.378 . S
C1384 C1385 1.350 1_556 S
C1385 C1384 1.350 1_554 S
C1385 C1387 1.451 . S
C1386 C1382 1.350 1_554 S
C1386 C1383 1.463 . S
C1386 N1390 1.427 . S
C1387 H1377 0.929 . S
C1387 C1385 1.451 . S
C1387 N1390 1.384 . S
C1388 H1379 0.929 . S
C1388 C1380 1.378 . S
C1388 C1383 1.350 . S
C1389 H1376 0.929 . S
C1389 C1381 1.433 1_556 S
C1389 N1391 1.384 . S
N1390 C1386 1.427 . S
N1390 C1387 1.384 . S
N1391 C1383 1.427 1_556 S
N1391 C1389 1.384 . S
H1392 C1398 0.930 . S
H1393 C1402 0.930 . S
H1394 C1407 0.929 . S
H1395 C1405 0.929 . S
H1396 C1400 0.929 . S
H1397 C1406 0.929 . S
C1398 H1392 0.930 . S
C1398 C1399 1.367 . S
C1398 C1406 1.378 . S
C1399 C1398 1.367 . S
C1399 C1407 1.433 1_554 S
C1400 H1396 0.929 . S
C1400 C1402 1.378 . S
C1400 C1404 1.350 1_556 S
C1401 C1404 1.463 . S
C1401 C1406 1.350 . S
C1401 N1409 1.427 1_554 S
C1402 H1393 0.930 . S
C1402 C1400 1.378 . S
C1402 C1403 1.367 1_556 S
C1403 C1402 1.367 1_554 S
C1403 C1405 1.433 . S
C1404 C1400 1.350 1_554 S
C1404 C1401 1.463 . S
C1404 N1408 1.427 . S
C1405 H1395 0.929 . S
C1405 C1403 1.433 . S
C1405 N1408 1.384 . S
C1406 H1397 0.929 . S
C1406 C1398 1.378 . S
C1406 C1401 1.350 . S
C1407 H1394 0.929 . S
C1407 C1399 1.433 1_556 S
C1407 N1409 1.384 . S
N1408 C1404 1.427 . S
N1408 C1405 1.384 . S
N1409 C1401 1.427 1_556 S
N1409 C1407 1.384 . S
H1410 C1416 0.930 . S
H1411 C1420 0.930 . S
H1412 C1425 0.929 . S
H1413 C1423 0.929 . S
H1414 C1418 0.929 . S
H1415 C1424 0.929 . S
C1416 H1410 0.930 . S
C1416 C1417 1.367 1_556 S
C1416 C1424 1.378 . S
C1417 C1416 1.367 1_554 S
C1417 C1425 1.433 . S
C1418 H1414 0.929 . S
C1418 C1420 1.378 . S
C1418 C1422 1.350 . S
C1419 C1422 1.463 . S
C1419 C1424 1.350 1_554 S
C1419 N1427 1.427 . S
C1420 H1411 0.930 . S
C1420 C1418 1.378 . S
C1420 C1421 1.367 . S
C1421 C1420 1.367 . S
C1421 C1423 1.433 1_554 S
C1422 C1418 1.350 . S
C1422 C1419 1.463 . S
C1422 N1426 1.427 1_554 S
C1423 H1413 0.929 . S
C1423 C1421 1.433 1_556 S
C1423 N1426 1.384 . S
C1424 H1415 0.929 . S
C1424 C1416 1.378 . S
C1424 C1419 1.350 1_556 S
C1425 H1412 0.929 . S
C1425 C1417 1.433 . S
C1425 N1427 1.384 . S
N1426 C1422 1.427 1_556 S
N1426 C1423 1.384 . S
N1427 C1419 1.427 . S
N1427 C1425 1.384 . S
H1428 C1434 0.930 . S
H1429 C1438 0.930 . S
H1430 C1443 0.929 . S
H1431 C1441 0.929 . S
H1432 C1436 0.929 . S
H1433 C1442 0.929 . S
C1434 H1428 0.930 . S
C1434 C1435 1.367 . S
C1434 C1442 1.378 . S
C1435 C1434 1.367 . S
C1435 C1443 1.433 . S
C1436 H1432 0.929 . S
C1436 C1438 1.378 . S
C1436 C1440 1.350 . S
C1437 C1440 1.463 . S
C1437 C1442 1.350 . S
C1437 N1445 1.427 . S
C1438 H1429 0.930 . S
C1438 C1436 1.378 . S
C1438 C1439 1.367 . S
C1439 C1438 1.367 . S
C1439 C1441 1.433 . S
C1440 C1436 1.350 . S
C1440 C1437 1.463 . S
C1440 N1444 1.427 . S
C1441 H1431 0.929 . S
C1441 C1439 1.433 . S
C1441 N1444 1.384 . S
C1442 H1433 0.929 . S
C1442 C1434 1.378 . S
C1442 C1437 1.350 . S
C1443 H1430 0.929 . S
C1443 C1435 1.433 . S
C1443 N1445 1.384 . S
N1444 C1440 1.427 . S
N1444 C1441 1.384 . S
N1445 C1437 1.427 . S
N1445 C1443 1.384 . S
H1446 C1452 0.930 . S
H1447 C1456 0.930 . S
H1448 C1461 0.929 . S
H1449 C1459 0.929 . S
H1450 C1454 0.929 . S
H1451 C1460 0.929 . S
C1452 H1446 0.930 . S
C1452 C1453 1.367 . S
C1452 C1460 1.378 . S
C1453 C1452 1.367 . S
C1453 C1461 1.433 . S
C1454 H1450 0.929 . S
C1454 C1456 1.378 . S
C1454 C1458 1.350 . S
C1455 C1458 1.463 . S
C1455 C1460 1.350 . S
C1455 N1463 1.427 . S
C1456 H1447 0.930 . S
C1456 C1454 1.378 . S
C1456 C1457 1.367 . S
C1457 C1456 1.367 . S
C1457 C1459 1.433 . S
C1458 C1454 1.350 . S
C1458 C1455 1.463 . S
C1458 N1462 1.427 . S
C1459 H1449 0.929 . S
C1459 C1457 1.433 . S
C1459 N1462 1.384 . S
C1460 H1451 0.929 . S
C1460 C1452 1.378 . S
C1460 C1455 1.350 . S
C1461 H1448 0.929 . S
C1461 C1453 1.433 . S
C1461 N1463 1.384 . S
N1462 C1458 1.427 . S
N1462 C1459 1.384 . S
N1463 C1455 1.427 . S
N1463 C1461 1.384 . S
H1464 C1470 0.930 . S
H1465 C1474 0.930 . S
H1466 C1479 0.929 . S
H1467 C1477 0.929 . S
H1468 C1472 0.929 . S
H1469 C1478 0.929 . S
C1470 H1464 0.930 . S
C1470 C1471 1.367 . S
C1470 C1478 1.378 . S
C1471 C1470 1.367 . S
C1471 C1479 1.433 . S
C1472 H1468 0.929 . S
C1472 C1474 1.378 . S
C1472 C1476 1.350 . S
C1473 C1476 1.463 . S
C1473 C1478 1.350 . S
C1473 N1481 1.427 . S
C1474 H1465 0.930 . S
C1474 C1472 1.378 . S
C1474 C1475 1.367 . S
C1475 C1474 1.367 . S
C1475 C1477 1.433 . S
C1476 C1472 1.350 . S
C1476 C1473 1.463 . S
C1476 N1480 1.427 . S
C1477 H1467 0.929 . S
C1477 C1475 1.433 . S
C1477 N1480 1.384 . S
C1478 H1469 0.929 . S
C1478 C1470 1.378 . S
C1478 C1473 1.350 . S
C1479 H1466 0.929 . S
C1479 C1471 1.433 . S
C1479 N1481 1.384 . S
N1480 C1476 1.427 . S
N1480 C1477 1.384 . S
N1481 C1473 1.427 . S
N1481 C1479 1.384 . S
H1482 C1488 0.930 . S
H1483 C1492 0.930 . S
H1484 C1497 0.929 . S
H1485 C1495 0.929 . S
H1486 C1490 0.929 . S
H1487 C1496 0.929 . S
C1488 H1482 0.930 . S
C1488 C1489 1.367 . S
C1488 C1496 1.378 . S
C1489 C1488 1.367 . S
C1489 C1497 1.433 . S
C1490 H1486 0.929 . S
C1490 C1492 1.378 . S
C1490 C1494 1.350 . S
C1491 C1494 1.463 . S
C1491 C1496 1.350 . S
C1491 N1499 1.427 . S
C1492 H1483 0.930 . S
C1492 C1490 1.378 . S
C1492 C1493 1.367 . S
C1493 C1492 1.367 . S
C1493 C1495 1.433 . S
C1494 C1490 1.350 . S
C1494 C1491 1.463 . S
C1494 N1498 1.427 . S
C1495 H1485 0.929 . S
C1495 C1493 1.433 . S
C1495 N1498 1.384 . S
C1496 H1487 0.929 . S
C1496 C1488 1.378 . S
C1496 C1491 1.350 . S
C1497 H1484 0.929 . S
C1497 C1489 1.433 . S
C1497 N1499 1.384 . S
N1498 C1494 1.427 . S
N1498 C1495 1.384 . S
N1499 C1491 1.427 . S
N1499 C1497 1.384 . S
H1500 C1506 0.930 . S
H1501 C1510 0.930 . S
H1502 C1515 0.929 . S
H1503 C1513 0.929 . S
H1504 C1508 0.929 . S
H1505 C1514 0.929 . S
C1506 H1500 0.930 . S
C1506 C1507 1.367 . S
C1506 C1514 1.378 . S
C1507 C1506 1.367 . S
C1507 C1515 1.433 . S
C1508 H1504 0.929 . S
C1508 C1510 1.378 . S
C1508 C1512 1.350 . S
C1509 C1512 1.463 . S
C1509 C1514 1.350 . S
C1509 N1517 1.427 . S
C1510 H1501 0.930 . S
C1510 C1508 1.378 . S
C1510 C1511 1.367 . S
C1511 C1510 1.367 . S
C1511 C1513 1.433 . S
C1512 C1508 1.350 . S
C1512 C1509 1.463 . S
C1512 N1516 1.427 . S
C1513 H1503 0.929 . S
C1513 C1511 1.433 . S
C1513 N1516 1.384 . S
C1514 H1505 0.929 . S
C1514 C1506 1.378 . S
C1514 C1509 1.350 . S
C1515 H1502 0.929 . S
C1515 C1507 1.433 . S
C1515 N1517 1.384 . S
N1516 C1512 1.427 . S
N1516 C1513 1.384 . S
N1517 C1509 1.427 . S
N1517 C1515 1.384 . S
H1518 C1524 0.930 . S
H1519 C1528 0.930 . S
H1520 C1533 0.929 . S
H1521 C1531 0.929 . S
H1522 C1526 0.929 . S
H1523 C1532 0.929 . S
C1524 H1518 0.930 . S
C1524 C1525 1.367 . S
C1524 C1532 1.378 . S
C1525 C1524 1.367 . S
C1525 C1533 1.433 . S
C1526 H1522 0.929 . S
C1526 C1528 1.378 . S
C1526 C1530 1.350 . S
C1527 C1530 1.463 . S
C1527 C1532 1.350 . S
C1527 N1535 1.427 . S
C1528 H1519 0.930 . S
C1528 C1526 1.378 . S
C1528 C1529 1.367 . S
C1529 C1528 1.367 . S
C1529 C1531 1.433 . S
C1530 C1526 1.350 . S
C1530 C1527 1.463 . S
C1530 N1534 1.427 . S
C1531 H1521 0.929 . S
C1531 C1529 1.433 . S
C1531 N1534 1.384 . S
C1532 H1523 0.929 . S
C1532 C1524 1.378 . S
C1532 C1527 1.350 . S
C1533 H1520 0.929 . S
C1533 C1525 1.433 . S
C1533 N1535 1.384 . S
N1534 C1530 1.427 . S
N1534 C1531 1.384 . S
N1535 C1527 1.427 . S
N1535 C1533 1.384 . S
H1536 C1542 0.930 . S
H1537 C1546 0.930 . S
H1538 C1551 0.929 . S
H1539 C1549 0.929 . S
H1540 C1544 0.929 . S
H1541 C1550 0.929 . S
C1542 H1536 0.930 . S
C1542 C1543 1.367 . S
C1542 C1550 1.378 . S
C1543 C1542 1.367 . S
C1543 C1551 1.433 . S
C1544 H1540 0.929 . S
C1544 C1546 1.378 . S
C1544 C1548 1.350 . S
C1545 C1548 1.463 . S
C1545 C1550 1.350 . S
C1545 N1553 1.427 . S
C1546 H1537 0.930 . S
C1546 C1544 1.378 . S
C1546 C1547 1.367 . S
C1547 C1546 1.367 . S
C1547 C1549 1.433 . S
C1548 C1544 1.350 . S
C1548 C1545 1.463 . S
C1548 N1552 1.427 . S
C1549 H1539 0.929 . S
C1549 C1547 1.433 . S
C1549 N1552 1.384 . S
C1550 H1541 0.929 . S
C1550 C1542 1.378 . S
C1550 C1545 1.350 . S
C1551 H1538 0.929 . S
C1551 C1543 1.433 . S
C1551 N1553 1.384 . S
N1552 C1548 1.427 . S
N1552 C1549 1.384 . S
N1553 C1545 1.427 . S
N1553 C1551 1.384 . S
H1554 C1560 0.930 . S
H1555 C1564 0.930 . S
H1556 C1569 0.929 . S
H1557 C1567 0.929 . S
H1558 C1562 0.929 . S
H1559 C1568 0.929 . S
C1560 H1554 0.930 . S
C1560 C1561 1.367 . S
C1560 C1568 1.378 . S
C1561 C1560 1.367 . S
C1561 C1569 1.433 . S
C1562 H1558 0.929 . S
C1562 C1564 1.378 . S
C1562 C1566 1.350 . S
C1563 C1566 1.463 . S
C1563 C1568 1.350 . S
C1563 N1571 1.427 . S
C1564 H1555 0.930 . S
C1564 C1562 1.378 . S
C1564 C1565 1.367 . S
C1565 C1564 1.367 . S
C1565 C1567 1.433 . S
C1566 C1562 1.350 . S
C1566 C1563 1.463 . S
C1566 N1570 1.427 . S
C1567 H1557 0.929 . S
C1567 C1565 1.433 . S
C1567 N1570 1.384 . S
C1568 H1559 0.929 . S
C1568 C1560 1.378 . S
C1568 C1563 1.350 . S
C1569 H1556 0.929 . S
C1569 C1561 1.433 . S
C1569 N1571 1.384 . S
N1570 C1566 1.427 . S
N1570 C1567 1.384 . S
N1571 C1563 1.427 . S
N1571 C1569 1.384 . S
H1572 C1578 0.930 . S
H1573 C1582 0.930 . S
H1574 C1587 0.929 . S
H1575 C1585 0.929 . S
H1576 C1580 0.929 . S
H1577 C1586 0.929 . S
C1578 H1572 0.930 . S
C1578 C1579 1.367 . S
C1578 C1586 1.378 . S
C1579 C1578 1.367 . S
C1579 C1587 1.433 . S
C1580 H1576 0.929 . S
C1580 C1582 1.378 . S
C1580 C1584 1.350 . S
C1581 C1584 1.463 . S
C1581 C1586 1.350 . S
C1581 N1589 1.427 . S
C1582 H1573 0.930 . S
C1582 C1580 1.378 . S
C1582 C1583 1.367 . S
C1583 C1582 1.367 . S
C1583 C1585 1.433 . S
C1584 C1580 1.350 . S
C1584 C1581 1.463 . S
C1584 N1588 1.427 . S
C1585 H1575 0.929 . S
C1585 C1583 1.433 . S
C1585 N1588 1.384 . S
C1586 H1577 0.929 . S
C1586 C1578 1.378 . S
C1586 C1581 1.350 . S
C1587 H1574 0.929 . S
C1587 C1579 1.433 . S
C1587 N1589 1.384 . S
N1588 C1584 1.427 . S
N1588 C1585 1.384 . S
N1589 C1581 1.427 . S
N1589 C1587 1.384 . S
H1590 C1596 0.930 . S
H1591 C1600 0.930 . S
H1592 C1605 0.929 . S
H1593 C1603 0.929 . S
H1594 C1598 0.929 . S
H1595 C1604 0.929 . S
C1596 H1590 0.930 . S
C1596 C1597 1.367 . S
C1596 C1604 1.378 . S
C1597 C1596 1.367 . S
C1597 C1605 1.433 . S
C1598 H1594 0.929 . S
C1598 C1600 1.378 . S
C1598 C1602 1.350 . S
C1599 C1602 1.463 . S
C1599 C1604 1.350 . S
C1599 N1607 1.427 . S
C1600 H1591 0.930 . S
C1600 C1598 1.378 . S
C1600 C1601 1.367 . S
C1601 C1600 1.367 . S
C1601 C1603 1.433 . S
C1602 C1598 1.350 . S
C1602 C1599 1.463 . S
C1602 N1606 1.427 . S
C1603 H1593 0.929 . S
C1603 C1601 1.433 . S
C1603 N1606 1.384 . S
C1604 H1595 0.929 . S
C1604 C1596 1.378 . S
C1604 C1599 1.350 . S
C1605 H1592 0.929 . S
C1605 C1597 1.433 . S
C1605 N1607 1.384 . S
N1606 C1602 1.427 . S
N1606 C1603 1.384 . S
N1607 C1599 1.427 . S
N1607 C1605 1.384 . S
H1608 C1614 0.930 . S
H1609 C1618 0.930 . S
H1610 C1623 0.929 . S
H1611 C1621 0.929 . S
H1612 C1616 0.929 . S
H1613 C1622 0.929 . S
C1614 H1608 0.930 . S
C1614 C1615 1.367 . S
C1614 C1622 1.378 . S
C1615 C1614 1.367 . S
C1615 C1623 1.433 . S
C1616 H1612 0.929 . S
C1616 C1618 1.378 . S
C1616 C1620 1.350 . S
C1617 C1620 1.463 . S
C1617 C1622 1.350 . S
C1617 N1625 1.427 . S
C1618 H1609 0.930 . S
C1618 C1616 1.378 . S
C1618 C1619 1.367 . S
C1619 C1618 1.367 . S
C1619 C1621 1.433 . S
C1620 C1616 1.350 . S
C1620 C1617 1.463 . S
C1620 N1624 1.427 . S
C1621 H1611 0.929 . S
C1621 C1619 1.433 . S
C1621 N1624 1.384 . S
C1622 H1613 0.929 . S
C1622 C1614 1.378 . S
C1622 C1617 1.350 . S
C1623 H1610 0.929 . S
C1623 C1615 1.433 . S
C1623 N1625 1.384 . S
N1624 C1620 1.427 . S
N1624 C1621 1.384 . S
N1625 C1617 1.427 . S
N1625 C1623 1.384 . S
H1626 C1632 0.930 . S
H1627 C1636 0.930 . S
H1628 C1641 0.929 . S
H1629 C1639 0.929 . S
H1630 C1634 0.929 . S
H1631 C1640 0.929 . S
C1632 H1626 0.930 . S
C1632 C1633 1.367 . S
C1632 C1640 1.378 . S
C1633 C1632 1.367 . S
C1633 C1641 1.433 . S
C1634 H1630 0.929 . S
C1634 C1636 1.378 . S
C1634 C1638 1.350 . S
C1635 C1638 1.463 . S
C1635 C1640 1.350 . S
C1635 N1643 1.427 . S
C1636 H1627 0.930 . S
C1636 C1634 1.378 . S
C1636 C1637 1.367 . S
C1637 C1636 1.367 . S
C1637 C1639 1.433 . S
C1638 C1634 1.350 . S
C1638 C1635 1.463 . S
C1638 N1642 1.427 . S
C1639 H1629 0.929 . S
C1639 C1637 1.433 . S
C1639 N1642 1.384 . S
C1640 H1631 0.929 . S
C1640 C1632 1.378 . S
C1640 C1635 1.350 . S
C1641 H1628 0.929 . S
C1641 C1633 1.433 . S
C1641 N1643 1.384 . S
N1642 C1638 1.427 . S
N1642 C1639 1.384 . S
N1643 C1635 1.427 . S
N1643 C1641 1.384 . S
H1644 C1650 0.930 . S
H1645 C1654 0.930 . S
H1646 C1659 0.929 . S
H1647 C1657 0.929 . S
H1648 C1652 0.929 . S
H1649 C1658 0.929 . S
C1650 H1644 0.930 . S
C1650 C1651 1.367 . S
C1650 C1658 1.378 . S
C1651 C1650 1.367 . S
C1651 C1659 1.433 . S
C1652 H1648 0.929 . S
C1652 C1654 1.378 . S
C1652 C1656 1.350 . S
C1653 C1656 1.463 . S
C1653 C1658 1.350 . S
C1653 N1661 1.427 . S
C1654 H1645 0.930 . S
C1654 C1652 1.378 . S
C1654 C1655 1.367 . S
C1655 C1654 1.367 . S
C1655 C1657 1.433 . S
C1656 C1652 1.350 . S
C1656 C1653 1.463 . S
C1656 N1660 1.427 . S
C1657 H1647 0.929 . S
C1657 C1655 1.433 . S
C1657 N1660 1.384 . S
C1658 H1649 0.929 . S
C1658 C1650 1.378 . S
C1658 C1653 1.350 . S
C1659 H1646 0.929 . S
C1659 C1651 1.433 . S
C1659 N1661 1.384 . S
N1660 C1656 1.427 . S
N1660 C1657 1.384 . S
N1661 C1653 1.427 . S
N1661 C1659 1.384 . S
H1662 C1668 0.930 . S
H1663 C1672 0.930 . S
H1664 C1677 0.929 . S
H1665 C1675 0.929 . S
H1666 C1670 0.929 . S
H1667 C1676 0.929 . S
C1668 H1662 0.930 . S
C1668 C1669 1.367 . S
C1668 C1676 1.378 . S
C1669 C1668 1.367 . S
C1669 C1677 1.433 . S
C1670 H1666 0.929 . S
C1670 C1672 1.378 . S
C1670 C1674 1.350 . S
C1671 C1674 1.463 . S
C1671 C1676 1.350 . S
C1671 N1679 1.427 . S
C1672 H1663 0.930 . S
C1672 C1670 1.378 . S
C1672 C1673 1.367 . S
C1673 C1672 1.367 . S
C1673 C1675 1.433 . S
C1674 C1670 1.350 . S
C1674 C1671 1.463 . S
C1674 N1678 1.427 . S
C1675 H1665 0.929 . S
C1675 C1673 1.433 . S
C1675 N1678 1.384 . S
C1676 H1667 0.929 . S
C1676 C1668 1.378 . S
C1676 C1671 1.350 . S
C1677 H1664 0.929 . S
C1677 C1669 1.433 . S
C1677 N1679 1.384 . S
N1678 C1674 1.427 . S
N1678 C1675 1.384 . S
N1679 C1671 1.427 . S
N1679 C1677 1.384 . S
H1680 C1686 0.930 . S
H1681 C1690 0.930 . S
H1682 C1695 0.929 . S
H1683 C1693 0.929 . S
H1684 C1688 0.929 . S
H1685 C1694 0.929 . S
C1686 H1680 0.930 . S
C1686 C1687 1.367 . S
C1686 C1694 1.378 . S
C1687 C1686 1.367 . S
C1687 C1695 1.433 . S
C1688 H1684 0.929 . S
C1688 C1690 1.378 . S
C1688 C1692 1.350 . S
C1689 C1692 1.463 . S
C1689 C1694 1.350 . S
C1689 N1697 1.427 . S
C1690 H1681 0.930 . S
C1690 C1688 1.378 . S
C1690 C1691 1.367 . S
C1691 C1690 1.367 . S
C1691 C1693 1.433 . S
C1692 C1688 1.350 . S
C1692 C1689 1.463 . S
C1692 N1696 1.427 . S
C1693 H1683 0.929 . S
C1693 C1691 1.433 . S
C1693 N1696 1.384 . S
C1694 H1685 0.929 . S
C1694 C1686 1.378 . S
C1694 C1689 1.350 . S
C1695 H1682 0.929 . S
C1695 C1687 1.433 . S
C1695 N1697 1.384 . S
N1696 C1692 1.427 . S
N1696 C1693 1.384 . S
N1697 C1689 1.427 . S
N1697 C1695 1.384 . S
H1698 C1704 0.930 . S
H1699 C1708 0.930 . S
H1700 C1713 0.929 . S
H1701 C1711 0.929 . S
H1702 C1706 0.929 . S
H1703 C1712 0.929 . S
C1704 H1698 0.930 . S
C1704 C1705 1.367 . S
C1704 C1712 1.378 . S
C1705 C1704 1.367 . S
C1705 C1713 1.433 . S
C1706 H1702 0.929 . S
C1706 C1708 1.378 . S
C1706 C1710 1.350 . S
C1707 C1710 1.463 . S
C1707 C1712 1.350 . S
C1707 N1715 1.427 . S
C1708 H1699 0.930 . S
C1708 C1706 1.378 . S
C1708 C1709 1.367 . S
C1709 C1708 1.367 . S
C1709 C1711 1.433 . S
C1710 C1706 1.350 . S
C1710 C1707 1.463 . S
C1710 N1714 1.427 . S
C1711 H1701 0.929 . S
C1711 C1709 1.433 . S
C1711 N1714 1.384 . S
C1712 H1703 0.929 . S
C1712 C1704 1.378 . S
C1712 C1707 1.350 . S
C1713 H1700 0.929 . S
C1713 C1705 1.433 . S
C1713 N1715 1.384 . S
N1714 C1710 1.427 . S
N1714 C1711 1.384 . S
N1715 C1707 1.427 . S
N1715 C1713 1.384 . S
H1716 C1722 0.930 . S
H1717 C1726 0.930 . S
H1718 C1731 0.929 . S
H1719 C1729 0.929 . S
H1720 C1724 0.929 . S
H1721 C1730 0.929 . S
C1722 H1716 0.930 . S
C1722 C1723 1.367 . S
C1722 C1730 1.378 . S
C1723 C1722 1.367 . S
C1723 C1731 1.433 . S
C1724 H1720 0.929 . S
C1724 C1726 1.378 . S
C1724 C1728 1.350 . S
C1725 C1728 1.463 . S
C1725 C1730 1.350 . S
C1725 N1733 1.427 . S
C1726 H1717 0.930 . S
C1726 C1724 1.378 . S
C1726 C1727 1.367 . S
C1727 C1726 1.367 . S
C1727 C1729 1.433 . S
C1728 C1724 1.350 . S
C1728 C1725 1.463 . S
C1728 N1732 1.427 . S
C1729 H1719 0.929 . S
C1729 C1727 1.433 . S
C1729 N1732 1.384 . S
C1730 H1721 0.929 . S
C1730 C1722 1.378 . S
C1730 C1725 1.350 . S
C1731 H1718 0.929 . S
C1731 C1723 1.433 . S
C1731 N1733 1.384 . S
N1732 C1728 1.427 . S
N1732 C1729 1.384 . S
N1733 C1725 1.427 . S
N1733 C1731 1.384 . S
H1734 C1740 0.930 . S
H1735 C1744 0.930 . S
H1736 C1749 0.929 . S
H1737 C1747 0.929 . S
H1738 C1742 0.929 . S
H1739 C1748 0.929 . S
C1740 H1734 0.930 . S
C1740 C1741 1.367 . S
C1740 C1748 1.378 . S
C1741 C1740 1.367 . S
C1741 C1749 1.433 . S
C1742 H1738 0.929 . S
C1742 C1744 1.378 . S
C1742 C1746 1.350 . S
C1743 C1746 1.463 . S
C1743 C1748 1.350 . S
C1743 N1751 1.427 . S
C1744 H1735 0.930 . S
C1744 C1742 1.378 . S
C1744 C1745 1.367 . S
C1745 C1744 1.367 . S
C1745 C1747 1.433 . S
C1746 C1742 1.350 . S
C1746 C1743 1.463 . S
C1746 N1750 1.427 . S
C1747 H1737 0.929 . S
C1747 C1745 1.433 . S
C1747 N1750 1.384 . S
C1748 H1739 0.929 . S
C1748 C1740 1.378 . S
C1748 C1743 1.350 . S
C1749 H1736 0.929 . S
C1749 C1741 1.433 . S
C1749 N1751 1.384 . S
N1750 C1746 1.427 . S
N1750 C1747 1.384 . S
N1751 C1743 1.427 . S
N1751 C1749 1.384 . S
H1752 C1758 0.930 . S
H1753 C1762 0.930 . S
H1754 C1767 0.929 . S
H1755 C1765 0.929 . S
H1756 C1760 0.929 . S
H1757 C1766 0.929 . S
C1758 H1752 0.930 . S
C1758 C1759 1.367 . S
C1758 C1766 1.378 . S
C1759 C1758 1.367 . S
C1759 C1767 1.433 . S
C1760 H1756 0.929 . S
C1760 C1762 1.378 . S
C1760 C1764 1.350 . S
C1761 C1764 1.463 . S
C1761 C1766 1.350 . S
C1761 N1769 1.427 . S
C1762 H1753 0.930 . S
C1762 C1760 1.378 . S
C1762 C1763 1.367 . S
C1763 C1762 1.367 . S
C1763 C1765 1.433 . S
C1764 C1760 1.350 . S
C1764 C1761 1.463 . S
C1764 N1768 1.427 . S
C1765 H1755 0.929 . S
C1765 C1763 1.433 . S
C1765 N1768 1.384 . S
C1766 H1757 0.929 . S
C1766 C1758 1.378 . S
C1766 C1761 1.350 . S
C1767 H1754 0.929 . S
C1767 C1759 1.433 . S
C1767 N1769 1.384 . S
N1768 C1764 1.427 . S
N1768 C1765 1.384 . S
N1769 C1761 1.427 . S
N1769 C1767 1.384 . S
H1770 C1776 0.930 . S
H1771 C1780 0.930 . S
H1772 C1785 0.929 . S
H1773 C1783 0.929 . S
H1774 C1778 0.929 . S
H1775 C1784 0.929 . S
C1776 H1770 0.930 . S
C1776 C1777 1.367 . S
C1776 C1784 1.378 . S
C1777 C1776 1.367 . S
C1777 C1785 1.433 . S
C1778 H1774 0.929 . S
C1778 C1780 1.378 . S
C1778 C1782 1.350 . S
C1779 C1782 1.463 . S
C1779 C1784 1.350 . S
C1779 N1787 1.427 . S
C1780 H1771 0.930 . S
C1780 C1778 1.378 . S
C1780 C1781 1.367 . S
C1781 C1780 1.367 . S
C1781 C1783 1.433 . S
C1782 C1778 1.350 . S
C1782 C1779 1.463 . S
C1782 N1786 1.427 . S
C1783 H1773 0.929 . S
C1783 C1781 1.433 . S
C1783 N1786 1.384 . S
C1784 H1775 0.929 . S
C1784 C1776 1.378 . S
C1784 C1779 1.350 . S
C1785 H1772 0.929 . S
C1785 C1777 1.433 . S
C1785 N1787 1.384 . S
N1786 C1782 1.427 . S
N1786 C1783 1.384 . S
N1787 C1779 1.427 . S
N1787 C1785 1.384 . S
H1788 C1794 0.930 . S
H1789 C1798 0.930 . S
H1790 C1803 0.929 . S
H1791 C1801 0.929 . S
H1792 C1796 0.929 . S
H1793 C1802 0.929 . S
C1794 H1788 0.930 . S
C1794 C1795 1.367 . S
C1794 C1802 1.378 . S
C1795 C1794 1.367 . S
C1795 C1803 1.433 . S
C1796 H1792 0.929 . S
C1796 C1798 1.378 . S
C1796 C1800 1.350 . S
C1797 C1800 1.463 . S
C1797 C1802 1.350 . S
C1797 N1805 1.427 . S
C1798 H1789 0.930 . S
C1798 C1796 1.378 . S
C1798 C1799 1.367 . S
C1799 C1798 1.367 . S
C1799 C1801 1.433 . S
C1800 C1796 1.350 . S
C1800 C1797 1.463 . S
C1800 N1804 1.427 . S
C1801 H1791 0.929 . S
C1801 C1799 1.433 . S
C1801 N1804 1.384 . S
C1802 H1793 0.929 . S
C1802 C1794 1.378 . S
C1802 C1797 1.350 . S
C1803 H1790 0.929 . S
C1803 C1795 1.433 . S
C1803 N1805 1.384 . S
N1804 C1800 1.427 . S
N1804 C1801 1.384 . S
N1805 C1797 1.427 . S
N1805 C1803 1.384 . S
H1806 C1812 0.930 . S
H1807 C1816 0.930 . S
H1808 C1821 0.929 . S
H1809 C1819 0.929 . S
H1810 C1814 0.929 . S
H1811 C1820 0.929 . S
C1812 H1806 0.930 . S
C1812 C1813 1.367 . S
C1812 C1820 1.378 . S
C1813 C1812 1.367 . S
C1813 C1821 1.433 . S
C1814 H1810 0.929 . S
C1814 C1816 1.378 . S
C1814 C1818 1.350 . S
C1815 C1818 1.463 . S
C1815 C1820 1.350 . S
C1815 N1823 1.427 . S
C1816 H1807 0.930 . S
C1816 C1814 1.378 . S
C1816 C1817 1.367 . S
C1817 C1816 1.367 . S
C1817 C1819 1.433 . S
C1818 C1814 1.350 . S
C1818 C1815 1.463 . S
C1818 N1822 1.427 . S
C1819 H1809 0.929 . S
C1819 C1817 1.433 . S
C1819 N1822 1.384 . S
C1820 H1811 0.929 . S
C1820 C1812 1.378 . S
C1820 C1815 1.350 . S
C1821 H1808 0.929 . S
C1821 C1813 1.433 . S
C1821 N1823 1.384 . S
N1822 C1818 1.427 . S
N1822 C1819 1.384 . S
N1823 C1815 1.427 . S
N1823 C1821 1.384 . S
H1824 C1830 0.930 . S
H1825 C1834 0.930 . S
H1826 C1839 0.929 . S
H1827 C1837 0.929 . S
H1828 C1832 0.929 . S
H1829 C1838 0.929 . S
C1830 H1824 0.930 . S
C1830 C1831 1.367 . S
C1830 C1838 1.378 . S
C1831 C1830 1.367 . S
C1831 C1839 1.433 . S
C1832 H1828 0.929 . S
C1832 C1834 1.378 . S
C1832 C1836 1.350 . S
C1833 C1836 1.463 . S
C1833 C1838 1.350 . S
C1833 N1841 1.427 . S
C1834 H1825 0.930 . S
C1834 C1832 1.378 . S
C1834 C1835 1.367 . S
C1835 C1834 1.367 . S
C1835 C1837 1.433 . S
C1836 C1832 1.350 . S
C1836 C1833 1.463 . S
C1836 N1840 1.427 . S
C1837 H1827 0.929 . S
C1837 C1835 1.433 . S
C1837 N1840 1.384 . S
C1838 H1829 0.929 . S
C1838 C1830 1.378 . S
C1838 C1833 1.350 . S
C1839 H1826 0.929 . S
C1839 C1831 1.433 . S
C1839 N1841 1.384 . S
N1840 C1836 1.427 . S
N1840 C1837 1.384 . S
N1841 C1833 1.427 . S
N1841 C1839 1.384 . S
H1842 C1848 0.930 . S
H1843 C1852 0.930 . S
H1844 C1857 0.929 . S
H1845 C1855 0.929 . S
H1846 C1850 0.929 . S
H1847 C1856 0.929 . S
C1848 H1842 0.930 . S
C1848 C1849 1.367 . S
C1848 C1856 1.378 . S
C1849 C1848 1.367 . S
C1849 C1857 1.433 . S
C1850 H1846 0.929 . S
C1850 C1852 1.378 . S
C1850 C1854 1.350 . S
C1851 C1854 1.463 . S
C1851 C1856 1.350 . S
C1851 N1859 1.427 . S
C1852 H1843 0.930 . S
C1852 C1850 1.378 . S
C1852 C1853 1.367 . S
C1853 C1852 1.367 . S
C1853 C1855 1.433 . S
C1854 C1850 1.350 . S
C1854 C1851 1.463 . S
C1854 N1858 1.427 . S
C1855 H1845 0.929 . S
C1855 C1853 1.433 . S
C1855 N1858 1.384 . S
C1856 H1847 0.929 . S
C1856 C1848 1.378 . S
C1856 C1851 1.350 . S
C1857 H1844 0.929 . S
C1857 C1849 1.433 . S
C1857 N1859 1.384 . S
N1858 C1854 1.427 . S
N1858 C1855 1.384 . S
N1859 C1851 1.427 . S
N1859 C1857 1.384 . S
C575 C270 1.316 . S
C571 C258 1.313 . S
C589 C236 1.585 . S
C593 C268 1.586 . S
C611 C269 1.586 . S
C607 C225 1.586 . S
C625 C247 1.316 . S
C629 C271 1.316 . S
C647 C315 1.453 . S
C643 C181 1.452 . S
C665 C375 1.381 . S
C661 C192 1.377 . S
C679 C203 1.449 . S
C683 C314 1.450 . S
C701 C374 1.659 . S
C697 C214 1.659 . S
C715 C137 1.537 . S
C719 C316 1.539 . S
C737 C372 1.566 . S
C733 C148 1.565 . S
C751 C159 1.548 . S
C755 C317 1.546 . S
C769 C170 1.286 . S
C773 C373 1.288 . S
C791 C423 1.316 . S
C787 C126 1.313 . S
C805 C104 1.585 . S
C809 C422 1.586 . S
C823 C93 1.584 . S
C827 C424 1.587 . S
C845 C425 1.316 . S
C841 C115 1.315 . S
C859 C49 1.451 . S
C863 C466 1.453 . S
C877 C60 1.380 . S
C881 C525 1.382 1_565 S
C895 C71 1.450 . S
C899 C464 1.450 . S
C913 C82 1.659 . S
C917 C524 1.658 . S
C935 C465 1.539 . S
C931 C5 1.538 . S
C953 C522 1.566 . S
C949 C16 1.564 . S
C967 C27 1.549 . S
C971 C467 1.546 . S
C989 C523 1.288 1_565 S
C985 C38 1.286 1_545 S
C1007 C267 1.675 . S
C1003 C4 1.627 . S
C1021 C21 1.382 1_565 S
C1025 C273 1.468 . S
C1039 C32 1.329 . S
C1043 C265 1.434 . S
C1057 C37 1.397 1_545 S
C1061 C272 1.446 1_565 S
C1075 C48 1.625 . S
C1079 C264 1.662 . S
C1097 C274 1.492 1_565 S
C1093 C59 1.439 . S
C1111 C76 1.318 . S
C1115 C266 1.422 . S
C1133 C275 1.776 . S
C1129 C81 1.739 . S
C1151 C321 1.360 . S
C1147 C43 1.268 1_565 S
C1165 C10 1.413 . S
C1169 C364 1.497 . S
C1187 C319 1.663 . S
C1183 C15 1.618 . S
C1205 C366 1.752 . S
C1201 C26 1.710 . S
C1219 C65 1.323 1_545 S
C1223 C320 1.417 1_565 S
C1241 C365 1.644 . S
C1237 C70 1.600 . S
C1259 C318 1.486 . S
C1255 C87 1.402 . S
C1277 C367 1.408 . S
C1273 C54 1.303 . S
C1295 C371 1.453 . S
C1291 C98 1.357 . S
C1309 C109 1.357 . S
C1313 C370 1.453 . S
C1331 C322 1.665 . S
C1327 C92 1.618 . S
C1349 C369 1.459 . S
C1345 C114 1.407 . S
C1363 C131 1.233 . S
C1367 C325 1.320 . S
C1381 C125 1.411 . S
C1385 C368 1.458 . S
C1403 C324 1.665 . S
C1399 C103 1.623 . S
C1421 C323 1.320 . S
C1417 C120 1.238 . S
C1439 C417 1.675 . S
C1435 C136 1.627 . S
C1457 C420 1.468 . S
C1453 C153 1.377 . S
C1471 C164 1.328 . S
C1475 C416 1.433 . S
C1493 C418 1.444 . S
C1489 C169 1.388 . S
C1511 C414 1.662 . S
C1507 C180 1.614 . S
C1525 C191 1.441 . S
C1529 C419 1.492 . S
C1543 C208 1.318 . S
C1547 C415 1.422 . S
C1565 C421 1.777 . S
C1561 C213 1.739 . S
C1583 C475 1.362 . S
C1579 C175 1.277 . S
C1597 C142 1.411 . S
C1601 C514 1.497 . S
C1619 C474 1.663 . S
C1615 C147 1.625 . S
C1637 C516 1.752 . S
C1633 C158 1.715 . S
C1655 C473 1.418 . S
C1651 C197 1.333 . S
C1669 C202 1.598 . S
C1673 C515 1.645 . S
C1691 C472 1.486 . S
C1687 C219 1.398 . S
C1709 C517 1.408 . S
C1705 C186 1.304 . S
C1727 C521 1.453 . S
C1723 C230 1.368 . S
C1741 C241 1.376 . S
C1745 C520 1.454 . S
C1763 C468 1.664 . S
C1759 C224 1.629 . S
C1777 C246 1.400 . S
C1781 C519 1.457 . S
C1799 C471 1.318 . S
C1795 C263 1.224 . S
C1817 C518 1.456 . S
C1813 C257 1.399 . S
C1835 C469 1.664 . S
C1831 C235 1.622 . S
C1849 C252 1.231 . S
C1853 C470 1.319 . S
