# Generated by pormake.
# Topology zzz, (3,6)-cn, num edge types: 1
# Building blocks:
#     Node 0, Type 0, BuildingBlock: BETDAH_clean_linker_0, # of connection points: 3
#     Node 1, Type 0, BuildingBlock: BETDAH_clean_linker_0, # of connection points: 3
#     Node 2, Type 0, BuildingBlock: BETDAH_clean_linker_0, # of connection points: 3
#     Node 3, Type 0, BuildingBlock: BETDAH_clean_linker_0, # of connection points: 3
#     Node 4, Type 0, BuildingBlock: BETDAH_clean_linker_0, # of connection points: 3
#     Node 5, Type 0, BuildingBlock: BETDAH_clean_linker_0, # of connection points: 3
#     Node 6, Type 0, BuildingBlock: BETDAH_clean_linker_0, # of connection points: 3
#     Node 7, Type 0, BuildingBlock: BETDAH_clean_linker_0, # of connection points: 3
#     Node 8, Type 1, BuildingBlock: KUMBOL_clean_sbu_0, # of connection points: 6
#     Node 9, Type 1, BuildingBlock: KUMBOL_clean_sbu_0, # of connection points: 6
#     Node 10, Type 1, BuildingBlock: KUMBOL_clean_sbu_0, # of connection points: 6
#     Node 11, Type 1, BuildingBlock: KUMBOL_clean_sbu_0, # of connection points: 6
#     Edge 12, Type (0, 1), BuildingBlock: OJICUG_clean_linker_0, # of connection points: 2
#     Edge 13, Type (0, 1), BuildingBlock: OJICUG_clean_linker_0, # of connection points: 2
#     Edge 14, Type (0, 1), BuildingBlock: OJICUG_clean_linker_0, # of connection points: 2
#     Edge 15, Type (0, 1), BuildingBlock: OJICUG_clean_linker_0, # of connection points: 2
#     Edge 16, Type (0, 1), BuildingBlock: OJICUG_clean_linker_0, # of connection points: 2
#     Edge 17, Type (0, 1), BuildingBlock: OJICUG_clean_linker_0, # of connection points: 2
#     Edge 18, Type (0, 1), BuildingBlock: OJICUG_clean_linker_0, # of connection points: 2
#     Edge 19, Type (0, 1), BuildingBlock: OJICUG_clean_linker_0, # of connection points: 2
#     Edge 20, Type (0, 1), BuildingBlock: OJICUG_clean_linker_0, # of connection points: 2
#     Edge 21, Type (0, 1), BuildingBlock: OJICUG_clean_linker_0, # of connection points: 2
#     Edge 22, Type (0, 1), BuildingBlock: OJICUG_clean_linker_0, # of connection points: 2
#     Edge 23, Type (0, 1), BuildingBlock: OJICUG_clean_linker_0, # of connection points: 2
#     Edge 24, Type (0, 1), BuildingBlock: OJICUG_clean_linker_0, # of connection points: 2
#     Edge 25, Type (0, 1), BuildingBlock: OJICUG_clean_linker_0, # of connection points: 2
#     Edge 26, Type (0, 1), BuildingBlock: OJICUG_clean_linker_0, # of connection points: 2
#     Edge 27, Type (0, 1), BuildingBlock: OJICUG_clean_linker_0, # of connection points: 2
#     Edge 28, Type (0, 1), BuildingBlock: OJICUG_clean_linker_0, # of connection points: 2
#     Edge 29, Type (0, 1), BuildingBlock: OJICUG_clean_linker_0, # of connection points: 2
#     Edge 30, Type (0, 1), BuildingBlock: OJICUG_clean_linker_0, # of connection points: 2
#     Edge 31, Type (0, 1), BuildingBlock: OJICUG_clean_linker_0, # of connection points: 2
#     Edge 32, Type (0, 1), BuildingBlock: OJICUG_clean_linker_0, # of connection points: 2
#     Edge 33, Type (0, 1), BuildingBlock: OJICUG_clean_linker_0, # of connection points: 2
#     Edge 34, Type (0, 1), BuildingBlock: OJICUG_clean_linker_0, # of connection points: 2
#     Edge 35, Type (0, 1), BuildingBlock: OJICUG_clean_linker_0, # of connection points: 2
# Relax obj value: 0.233
# Max RMSD: 0.183
# Mean RMSD: 0.120
data_MOF--net-zzz--node1-KUMBOL_clean_sbu_0--node2-BETDAH_clean_linker_0--edge1-OJICUG_clean_linker_0
_symmetry_space_group_name_H-M    P1
_symmetry_Int_Tables_number       1
_symmetry_cell_setting            triclinic
loop_
_symmetry_equiv_pos_as_xyz
'x, y, z'
_cell_length_a     36.591002
_cell_length_b     36.584256
_cell_length_c     10.969262
_cell_angle_alpha  92.12681
_cell_angle_beta   89.725796
_cell_angle_gamma 89.754078
loop_
_atom_site_label
_atom_site_type_symbol
_atom_site_fract_x
_atom_site_fract_y
_atom_site_fract_z
_atom_type_partial_charge
H0 H 0.85093 0.5881 0.33389 0.0
H1 H 0.74448 0.57648 0.1721 0.0
H2 H 0.77971 0.50286 0.44647 0.0
C3 C 0.82483 0.57445 0.32695 0.0
C4 C 0.81948 0.5442 0.40001 0.0
C5 C 0.79978 0.58412 0.23554 0.0
C6 C 0.76483 0.56808 0.23664 0.0
C7 C 0.75694 0.53878 0.31126 0.0
C8 C 0.78472 0.52659 0.39281 0.0
N9 N 0.72256 0.51978 0.29899 0.0
C10 C 0.69514 0.52509 0.20975 0.0
H11 H 1.01028 0.85315 0.22559 0.0
H12 H 1.00147 0.73829 0.15385 0.0
H13 H 0.02362 0.77943 0.52117 0.0
C14 C 1.00945 0.826 0.26175 0.0
C15 C 1.01616 0.82158 0.38663 0.0
C16 C 1.00464 0.79597 0.17985 0.0
C17 C 1.00466 0.76062 0.22062 0.0
C18 C 1.01214 0.75354 0.3417 0.0
C19 C 1.01733 0.78438 0.42686 0.0
N20 N 1.01654 0.71578 0.37385 0.0
C21 C 1.01661 0.68516 0.2889 0.0
H22 H 0.69194 0.08659 0.3279 0.0
H23 H 0.8006 0.0706 0.20189 0.0
H24 H 0.76831 0.02722 0.54788 0.0
C25 C 0.71883 0.07629 0.34837 0.0
C26 C 0.72566 0.05826 0.45735 0.0
C27 C 0.74599 0.08162 0.26086 0.0
C28 C 0.78043 0.06629 0.27245 0.0
C29 C 0.78882 0.04569 0.37361 0.0
C30 C 0.76148 0.04219 0.46787 0.0
N31 N 0.82445 0.02896 0.381 0.0
C32 C 0.85189 0.02984 0.28905 0.0
H33 H 0.552 0.7056 0.24933 0.0
H34 H 0.55825 0.81947 0.17676 0.0
H35 H 0.54231 0.78561 0.54658 0.0
C36 C 0.55297 0.73377 0.28377 0.0
C37 C 0.5484 0.74129 0.4094 0.0
C38 C 0.55609 0.76205 0.20099 0.0
C39 C 0.55606 0.79836 0.24307 0.0
C40 C 0.55035 0.80774 0.36624 0.0
C41 C 0.54702 0.77888 0.45082 0.0
N42 N 0.54601 0.84574 0.40262 0.0
C43 C 0.54456 0.87449 0.31945 0.0
H44 H 0.22059 0.56605 0.1666 0.0
H45 H 0.32511 0.53974 0.31445 0.0
H46 H 0.27917 0.47141 0.02341 0.0
C47 C 0.24488 0.54891 0.16288 0.0
C48 C 0.24584 0.51847 0.08146 0.0
C49 C 0.27314 0.55641 0.24614 0.0
C50 C 0.30394 0.53378 0.24801 0.0
C51 C 0.30704 0.50323 0.16745 0.0
C52 C 0.27742 0.49522 0.08481 0.0
N53 N 0.33911 0.48025 0.17049 0.0
C54 C 0.3699 0.48586 0.24712 0.0
H55 H 0.97285 0.19537 0.15911 0.0
H56 H 0.99394 0.30062 0.32497 0.0
H57 H 0.05468 0.26436 1.00264 0.0
C58 C 0.98725 0.22115 0.15559 0.0
C59 C 1.01343 0.22597 0.06343 0.0
C60 C 0.97992 0.24796 0.2474 0.0
C61 C 0.99972 0.2805 0.25237 0.0
C62 C 0.02696 0.28709 0.16595 0.0
C63 C 0.03392 0.25949 0.07068 0.0
N64 N 0.04734 0.32086 0.17473 0.0
C65 C 0.04211 0.35023 0.2623 0.0
H66 H 0.36301 1.00528 0.21222 0.0
H67 H 0.25153 1.01603 0.31777 0.0
H68 H 0.285 0.04767 0.95762 0.0
C69 C 0.33559 1.01272 0.18583 0.0
C70 C 0.32857 0.025 0.06813 0.0
C71 C 0.30788 1.00866 0.27231 0.0
C72 C 0.27235 1.01965 0.24876 0.0
C73 C 0.26369 0.03497 0.13737 0.0
C74 C 0.29187 0.03713 0.04554 0.0
N75 N 0.22692 0.04745 0.11676 0.0
C76 C 0.19788 0.04691 0.20294 0.0
H77 H 0.5874 0.35108 0.11568 0.0
H78 H 0.56537 0.24959 0.28371 0.0
H79 H 0.5029 0.28085 0.97066 0.0
C80 C 0.57275 0.32537 0.11547 0.0
C81 C 0.54551 0.31893 0.02798 0.0
C82 C 0.57966 0.30082 0.208 0.0
C83 C 0.55963 0.26839 0.21235 0.0
C84 C 0.53178 0.26063 0.12801 0.0
C85 C 0.52453 0.28631 0.03572 0.0
N86 N 0.51062 0.22778 0.13646 0.0
C87 C 0.51454 0.20153 0.22704 0.0
Gd88 Gd 0.98588 0.03501 0.61711 0.0
Gd89 Gd 0.05485 1.01775 0.8305 0.0
C90 C 0.10305 0.11087 0.07175 0.0
C91 C 0.1666 0.11029 1.0077 0.0
C92 C 0.12354 0.06718 0.91437 0.0
C93 C 0.09555 0.08191 0.98646 0.0
C94 C 0.15947 0.0809 0.92567 0.0
C95 C 0.13852 0.1251 0.081 0.0
C96 C 0.07475 0.12482 0.14573 0.0
C97 C 0.03988 0.11035 0.13299 0.0
N98 N 0.06128 0.0678 0.97478 0.0
C99 C 0.03357 0.08203 0.04689 0.0
H100 H 1.00605 0.07269 0.03883 0.0
C101 C 0.14393 1.02069 0.7743 0.0
N102 N 0.11607 0.0385 0.83664 0.0
C103 C 0.17976 0.03351 0.78192 0.0
C104 C 0.1875 0.06407 0.85667 0.0
H105 H 0.13815 0.99717 0.71524 0.0
H106 H 0.14458 0.1474 0.14544 0.0
H107 H 1.01133 0.05177 0.32514 0.0
H108 H 0.07945 0.14696 0.21207 0.0
H109 H 1.0176 0.12128 0.18869 0.0
H110 H 0.19397 0.12122 0.01714 0.0
H111 H 0.93359 0.97944 0.79165 0.0
H112 H 1.00282 0.9513 0.1158 0.0
H113 H 0.02555 1.0149 0.13978 0.0
H114 H 0.92783 0.87793 0.36429 0.0
H115 H 0.20136 1.01982 0.72992 0.0
H116 H 0.21535 0.07389 0.8628 0.0
H117 H 0.96364 0.90212 0.19556 0.0
H118 H 0.90183 0.92148 0.772 0.0
N119 N 0.98958 1.00665 0.4194 0.0
C120 C 0.99818 0.96698 0.19998 0.0
C121 C 1.01017 1.00298 0.21182 0.0
C122 C 0.97828 0.95222 0.29469 0.0
C123 C 0.97498 0.97267 0.40591 0.0
C124 C 1.00306 0.02339 0.31917 0.0
N125 N 0.9557 0.9775 0.6112 0.0
C126 C 0.9561 0.95845 0.50246 0.0
C127 C 0.91718 0.93138 0.69545 0.0
C128 C 0.9184 0.9111 0.58569 0.0
C129 C 0.93591 0.96454 0.70656 0.0
C130 C 0.9381 0.92441 0.48758 0.0
H131 H 0.90425 0.88517 0.57787 0.0
O132 O 0.92723 0.04302 0.62864 0.0
O133 O 1.01607 0.06089 0.77614 0.0
O134 O 1.00013 1.01621 0.93597 0.0
O135 O 0.95786 0.04051 0.80392 0.0
O136 O 1.01133 0.0921 0.62722 0.0
O137 O 0.95884 0.07333 0.50029 0.0
O138 O 0.09499 0.9899 0.94179 0.0
O139 O 1.01664 0.98881 0.69715 0.0
O140 O 0.04084 0.03729 0.51316 0.0
O141 O 0.08382 0.04154 0.66648 0.0
O142 O 0.07119 0.97628 0.67907 0.0
O143 O 0.03959 0.97126 0.93493 0.0
C144 C 0.02389 0.09235 0.73732 0.0
C145 C 0.94099 0.90429 0.37652 0.0
C146 C 0.96151 0.91794 0.28082 0.0
C147 C 0.92748 0.07027 0.55604 0.0
C148 C 0.91035 0.10466 0.60322 0.0
C149 C 0.89322 0.10745 0.71858 0.0
C150 C 0.91387 0.13608 0.5357 0.0
C151 C 0.90272 0.1703 0.58438 0.0
C152 C 0.88138 0.14153 0.76644 0.0
C153 C 0.88673 0.1731 0.70056 0.0
C154 C 0.96662 0.02825 0.91213 0.0
C155 C 0.03921 0.96759 0.63944 0.0
C156 C 0.0733 0.96255 0.95667 0.0
C157 C 0.08477 0.92674 0.90301 0.0
C158 C 0.1164 0.92245 0.83038 0.0
C159 C 0.05981 0.89818 0.90556 0.0
C160 C 0.06448 0.86635 0.83153 0.0
C161 C 0.12155 0.89074 0.75691 0.0
C162 C 0.09555 0.86284 0.7564 0.0
C163 C 0.07502 0.04221 0.54992 0.0
H164 H 0.88988 0.08365 0.77329 0.0
H165 H 0.92731 0.13429 0.44721 0.0
H166 H 0.86891 0.14356 0.85615 0.0
H167 H 0.87873 0.19951 0.74016 0.0
H168 H 0.13656 0.94389 0.82725 0.0
H169 H 0.03635 0.90116 0.96597 0.0
H170 H 0.14568 0.88785 0.69987 0.0
H171 H 0.10012 0.83826 0.70024 0.0
Gd172 Gd 0.5262 1.0032 0.65646 0.0
Gd173 Gd 0.5314 0.07312 0.88993 0.0
C174 C 0.43129 0.07225 0.14783 0.0
C175 C 0.3912 0.11696 0.06059 0.0
C176 C 0.45004 0.10204 0.96404 0.0
C177 C 0.4576 0.07794 0.05505 0.0
C178 C 0.41672 0.12205 0.96711 0.0
C179 C 0.39832 0.09187 0.15003 0.0
C180 C 0.43881 0.0471 0.23672 0.0
C181 C 0.47299 0.03068 0.23848 0.0
N182 N 0.49044 0.06026 0.05408 0.0
C183 C 0.49907 0.03918 0.15081 0.0
H184 H 0.52614 0.02904 0.1647 0.0
C185 C 0.46834 0.13159 0.78676 0.0
N186 N 0.47483 0.10589 0.87244 0.0
C187 C 0.43568 0.15139 0.78539 0.0
C188 C 0.40961 0.14644 0.87539 0.0
H189 H 0.48881 0.13945 0.7231 0.0
H190 H 0.37812 0.08785 0.22083 0.0
H191 H 0.53374 0.04781 0.38334 0.0
H192 H 0.41908 0.04141 0.30748 0.0
H193 H 0.47985 1.01256 0.31054 0.0
H194 H 0.36557 0.13194 0.06344 0.0
H195 H 0.56572 0.93445 0.8195 0.0
H196 H 0.64108 0.03331 0.2449 0.0
H197 H 0.58088 0.06337 0.23932 0.0
H198 H 0.69169 0.94143 0.49025 0.0
H199 H 0.43115 0.17134 0.71651 0.0
H200 H 0.3844 0.16207 0.87454 0.0
H201 H 0.68083 0.98609 0.33319 0.0
H202 H 0.62275 0.90148 0.8293 0.0
N203 N 0.56816 1.01531 0.49424 0.0
C204 C 0.62088 0.02784 0.31443 0.0
C205 C 0.58706 0.04497 0.31139 0.0
C206 C 0.62753 1.00243 0.40331 0.0
C207 C 0.60067 0.99707 0.49457 0.0
C208 C 0.56046 0.0369 0.39791 0.0
N209 N 0.58182 0.96898 0.67496 0.0
C210 C 0.60731 0.97273 0.58551 0.0
C211 C 0.61922 0.92201 0.76169 0.0
C212 C 0.64617 0.9271 0.6747 0.0
C213 C 0.58695 0.94241 0.75864 0.0
C214 C 0.64022 0.95207 0.58385 0.0
H215 H 0.67104 0.91094 0.67659 0.0
O216 O 0.51751 0.94477 0.64845 0.0
O217 O 0.49493 0.02902 0.8142 0.0
O218 O 0.55034 1.02061 0.97724 0.0
O219 O 0.52127 0.97908 0.84704 0.0
O220 O 0.46611 1.02013 0.65514 0.0
O221 O 0.49832 0.97715 0.50145 0.0
O222 O 0.5361 0.1319 0.90167 0.0
O223 O 0.56233 0.04742 0.73176 0.0
O224 O 0.5081 0.05595 0.56877 0.0
O225 O 0.5365 0.09766 0.70043 0.0
O226 O 0.59218 0.05799 0.8866 0.0
O227 O 0.56039 0.09994 0.04156 0.0
C228 C 0.46328 0.03209 0.76724 0.0
C229 C 0.66636 0.9569 0.49204 0.0
C230 C 0.66017 0.98227 0.40265 0.0
C231 C 0.49774 0.94525 0.55094 0.0
C232 C 0.46236 0.92661 0.56238 0.0
C233 C 0.4611 0.89081 0.60428 0.0
C234 C 0.42964 0.94518 0.5417 0.0
C235 C 0.39577 0.92879 0.56444 0.0
C236 C 0.4275 0.87418 0.6264 0.0
C237 C 0.39488 0.89304 0.60665 0.0
C238 C 0.53767 0.98726 0.95249 0.0
C239 C 0.59445 0.04507 0.7753 0.0
C240 C 0.55712 0.13231 0.99619 0.0
C241 C 0.59001 0.15486 0.98321 0.0
C242 C 0.58658 0.19159 0.95162 0.0
C243 C 0.62483 0.13975 0.99564 0.0
C244 C 0.6562 0.16094 0.97835 0.0
C245 C 0.61768 0.21286 0.93402 0.0
C246 C 0.65247 0.1977 0.94798 0.0
C247 C 0.52072 0.0893 0.59411 0.0
H248 H 0.48611 0.87595 0.6216 0.0
H249 H 0.4305 0.97233 0.50554 0.0
H250 H 0.42675 0.84662 0.65896 0.0
H251 H 0.36907 0.87966 0.62319 0.0
H252 H 0.55984 0.20372 0.93971 0.0
H253 H 0.62758 0.11171 0.02297 0.0
H254 H 0.61479 0.24121 0.91064 0.0
H255 H 0.67635 0.2147 0.9371 0.0
Gd256 Gd 0.49557 0.53717 0.80046 0.0
Gd257 Gd 0.57393 0.52106 0.60979 0.0
C258 C 0.64119 0.6143 0.4544 0.0
C259 C 0.61183 0.62379 0.26043 0.0
C260 C 0.59206 0.5741 0.38768 0.0
C261 C 0.61717 0.58501 0.47489 0.0
C262 C 0.58886 0.59389 0.27978 0.0
C263 C 0.63831 0.63365 0.34683 0.0
C264 C 0.6672 0.62347 0.54323 0.0
C265 C 0.66883 0.60362 0.64917 0.0
N266 N 0.61764 0.5674 0.58146 0.0
C267 C 0.64385 0.57546 0.66654 0.0
H268 H 0.64544 0.56036 0.74846 0.0
C269 C 0.54758 0.53218 0.31787 0.0
N270 N 0.57085 0.54434 0.40804 0.0
C271 C 0.54155 0.55253 0.21479 0.0
C272 C 0.56229 0.58346 0.19508 0.0
H273 H 0.53255 0.50725 0.32239 0.0
H274 H 0.65621 0.65646 0.33012 0.0
H275 H 0.4431 0.57756 0.59413 0.0
H276 H 0.68625 0.64562 0.5306 0.0
H277 H 0.68915 0.61011 0.71788 0.0
H278 H 0.60959 0.63919 0.17825 0.0
H279 H 0.49078 0.4892 0.06231 0.0
H280 H 0.34226 0.51968 0.56387 0.0
H281 H 0.38206 0.57041 0.50393 0.0
H282 H 0.3503 0.43268 0.87707 0.0
H283 H 0.52044 0.54437 0.15137 0.0
H284 H 0.55798 0.59871 0.1135 0.0
H285 H 0.33119 0.4675 0.70076 0.0
H286 H 0.45172 0.44284 0.1499 0.0
N287 N 0.43871 0.53076 0.70298 0.0
C288 C 0.36911 0.52267 0.60422 0.0
C289 C 0.39146 0.55138 0.57033 0.0
C290 C 0.38096 0.49928 0.69413 0.0
C291 C 0.41607 0.50459 0.74461 0.0
C292 C 0.42626 0.55518 0.62138 0.0
N293 N 0.45867 0.49441 0.90127 0.0
C294 C 0.42646 0.48565 0.84615 0.0
C295 C 0.44438 0.45449 0.06407 0.0
C296 C 0.41247 0.44353 1.00454 0.0
C297 C 0.46672 0.48081 0.01297 0.0
C298 C 0.40255 0.45993 0.89636 0.0
H299 H 0.39497 0.42349 0.04543 0.0
O300 O 0.50577 0.58348 0.92519 0.0
O301 O 0.5571 0.54028 0.79463 0.0
O302 O 0.56108 0.4682 0.7104 0.0
O303 O 0.50281 0.47528 0.79521 0.0
O304 O 0.53466 0.51959 0.94896 0.0
O305 O 0.45054 0.56904 0.88024 0.0
O306 O 0.61701 0.48931 0.51747 0.0
O307 O 0.51265 0.52676 0.60824 0.0
O308 O 0.50507 0.58214 0.66081 0.0
O309 O 0.56728 0.58169 0.66327 0.0
O310 O 0.53373 0.48293 0.50846 0.0
O311 O 0.61853 0.49972 0.71367 0.0
C312 C 0.56514 0.52731 0.89715 0.0
C313 C 0.36885 0.45252 0.84021 0.0
C314 C 0.35799 0.47229 0.73965 0.0
C315 C 0.47203 0.59464 0.92106 0.0
C316 C 0.46634 0.63116 0.87144 0.0
C317 C 0.43718 0.63871 0.79284 0.0
C318 C 0.49327 0.65747 0.89092 0.0
C319 C 0.49267 0.69051 0.82982 0.0
C320 C 0.43604 0.67172 0.73249 0.0
C321 C 0.4637 0.69757 0.75045 0.0
C322 C 0.53206 0.45502 0.76805 0.0
C323 C 0.50357 0.49946 0.54072 0.0
C324 C 0.63385 0.48295 0.61991 0.0
C325 C 0.64687 0.44553 0.64135 0.0
C326 C 0.66554 0.4383 0.7498 0.0
C327 C 0.64017 0.41671 0.5571 0.0
C328 C 0.65082 0.38091 0.58221 0.0
C329 C 0.67618 0.40259 0.77481 0.0
C330 C 0.66847 0.37379 0.69186 0.0
C331 C 0.53647 0.59954 0.6455 0.0
H332 H 0.41566 0.61899 0.77618 0.0
H333 H 0.51471 0.65207 0.95583 0.0
H334 H 0.4137 0.67722 0.67142 0.0
H335 H 0.46222 0.72314 0.70401 0.0
H336 H 0.6713 0.46017 0.81617 0.0
H337 H 0.62561 0.42175 0.47343 0.0
H338 H 0.69001 0.3972 0.85932 0.0
H339 H 0.6762 0.34612 0.71295 0.0
Gd340 Gd 1.01652 0.48258 0.86281 0.0
Gd341 Gd 0.04077 0.5565 0.66984 0.0
C342 C 1.02056 0.67381 0.8154 0.0
C343 C 0.97154 0.69409 0.68553 0.0
C344 C 0.99705 0.63275 0.65678 0.0
C345 C 1.01998 0.63901 0.75511 0.0
C346 C 0.97342 0.66069 0.61843 0.0
C347 C 0.99519 0.7007 0.7837 0.0
C348 C 0.04807 0.68135 0.90046 0.0
C349 C 0.07522 0.65534 0.9188 0.0
N350 N 0.04468 0.61269 0.78231 0.0
C351 C 0.07351 0.6213 0.85691 0.0
H352 H 0.09514 0.60205 0.87163 0.0
C353 C 0.98508 0.59726 0.47725 0.0
N354 N 1.00098 0.60101 0.59016 0.0
C355 C 0.96048 0.62352 0.43751 0.0
C356 C 0.95406 0.65512 0.50964 0.0
H357 H 0.99063 0.5732 0.41976 0.0
H358 H 0.99486 0.7273 0.83064 0.0
H359 H 0.97041 0.43178 0.65311 0.0
H360 H 0.04945 0.7076 0.94866 0.0
H361 H 0.09747 0.66145 0.98082 0.0
H362 H 0.95328 0.71567 0.65827 0.0
H363 H 0.06477 0.47757 0.12393 0.0
H364 H 1.01666 0.32425 0.63424 0.0
H365 H 0.97104 0.3689 0.56521 0.0
H366 H 0.10413 0.32736 0.95677 0.0
H367 H 0.94695 0.61964 0.35045 0.0
H368 H 0.93564 0.67587 0.47734 0.0
H369 H 0.06702 0.30932 0.77852 0.0
H370 H 0.10565 0.43426 0.22237 0.0
N371 N 1.01634 0.42367 0.76785 0.0
C372 C 1.01665 0.35194 0.67299 0.0
C373 C 0.99079 0.37701 0.63404 0.0
C374 C 0.04115 0.36244 0.76523 0.0
C375 C 0.0399 0.39881 0.8131 0.0
C376 C 0.9907 0.41278 0.6838 0.0
N377 N 0.05575 0.44287 0.96625 0.0
C378 C 0.06033 0.40875 0.91502 0.0
C379 C 0.09346 0.4269 0.13519 0.0
C380 C 0.10062 0.39276 0.0791 0.0
C381 C 0.07025 0.45146 0.07862 0.0
C382 C 0.08319 0.38288 0.96957 0.0
H383 H 0.11833 0.37365 0.12384 0.0
O384 O 0.98587 0.49142 0.03212 0.0
O385 O 1.01555 0.54487 0.85181 0.0
O386 O 0.08851 0.54207 0.79736 0.0
O387 O 0.07915 0.48278 0.85954 0.0
O388 O 0.03354 0.52314 1.01234 0.0
O389 O 0.9727 0.44597 0.90985 0.0
O390 O 0.09813 0.55314 0.61741 0.0
O391 O 0.03818 0.49566 0.6785 0.0
O392 O 0.96653 0.49395 0.73956 0.0
O393 O 0.98026 0.54654 0.63636 0.0
O394 O 0.0294 0.51641 0.51006 0.0
O395 O 0.06114 0.58661 0.51693 0.0
C396 C 0.02688 0.55335 0.95992 0.0
C397 C 0.08652 0.34748 0.91663 0.0
C398 C 0.0654 0.33722 0.81502 0.0
C399 C 0.9631 0.46512 1.00651 0.0
C400 C 0.92408 0.4736 0.01519 0.0
C401 C 0.89971 0.44521 0.03791 0.0
C402 C 0.9107 0.50887 0.99411 0.0
C403 C 0.8729 0.51579 0.99617 0.0
C404 C 0.86223 0.45179 0.03948 0.0
C405 C 0.84885 0.48674 0.01913 0.0
C406 C 0.1008 0.51141 0.84557 0.0
C407 C 0.03131 0.48631 0.56741 0.0
C408 C 0.09499 0.5787 0.53891 0.0
C409 C 0.12048 0.6096 0.55392 0.0
C410 C 0.10846 0.64542 0.58361 0.0
C411 C 0.15777 0.60289 0.53791 0.0
C412 C 0.18317 0.63152 0.54774 0.0
C413 C 0.1337 0.67389 0.59709 0.0
C414 C 0.17097 0.66713 0.57764 0.0
C415 C 0.95732 0.52037 0.66498 0.0
H416 H 0.90973 0.41786 0.05341 0.0
H417 H 0.92958 0.53072 0.97524 0.0
H418 H 0.84349 0.42983 0.05775 0.0
H419 H 0.81961 0.49113 0.02573 0.0
H420 H 0.07969 0.65156 0.59531 0.0
H421 H 0.16686 0.57545 0.51121 0.0
H422 H 0.12425 0.70141 0.61955 0.0
H423 H 0.19007 0.68967 0.58271 0.0
C424 C 0.13264 0.03187 0.25397 0.0
C425 C 0.16651 0.04697 0.28894 0.0
H426 H 0.07804 1.018 0.3071 0.0
C427 C 0.16946 0.06207 0.40838 0.0
H428 H 0.12927 1.02002 0.16277 0.0
C429 C 0.13963 0.06154 0.49096 0.0
C430 C 0.10575 0.04582 0.45728 0.0
H431 H 0.195 0.07414 0.43852 0.0
H432 H 0.14323 0.07345 0.58187 0.0
C433 C 0.10288 0.03121 0.33672 0.0
C434 C 0.49246 0.14313 0.31401 0.0
C435 C 0.51648 0.1731 0.31885 0.0
H436 H 0.4743 0.09406 0.39801 0.0
C437 C 0.54182 0.17534 0.41484 0.0
H438 H 0.47237 0.14072 0.24198 0.0
C439 C 0.54309 0.14836 0.50358 0.0
C440 C 0.51918 0.11814 0.49881 0.0
H441 H 0.56067 0.19805 0.42182 0.0
H442 H 0.56306 0.15114 0.57586 0.0
C443 C 0.49373 0.11617 0.40285 0.0
C444 C 0.42632 0.52009 0.31445 0.0
C445 C 0.40348 0.48937 0.32188 0.0
H446 H 0.47455 0.54799 0.37962 0.0
C447 C 0.41429 0.4616 0.40017 0.0
H448 H 0.41921 0.54183 0.25441 0.0
C449 C 0.44665 0.46472 0.47026 0.0
C450 C 0.46887 0.49604 0.46622 0.0
H451 H 0.3977 0.43732 0.40718 0.0
H452 H 0.45399 0.44283 0.52941 0.0
C453 C 0.45834 0.52345 0.38579 0.0
C454 C 0.06335 0.39055 0.44214 0.0
C455 C 0.0387 0.38337 0.34526 0.0
H456 H 0.0806 0.42781 0.58896 0.0
C457 C 1.01175 0.41003 0.32523 0.0
H458 H 0.08492 0.37109 0.4595 0.0
C459 C 1.0093 0.44247 0.39934 0.0
C460 C 0.03328 0.4495 0.49813 0.0
H461 H 0.99274 0.40609 0.25053 0.0
H462 H 0.98841 0.46237 0.37889 0.0
C463 C 0.06079 0.42311 0.5171 0.0
C464 C 0.8995 0.99708 0.15894 0.0
C465 C 0.88103 0.02966 0.19446 0.0
H466 H 0.93976 0.97087 0.04051 0.0
C467 C 0.89104 0.06185 0.13611 0.0
H468 H 0.89242 0.97169 0.20088 0.0
C469 C 0.91871 0.06143 0.04523 0.0
C470 C 0.93756 0.02889 1.01082 0.0
H471 H 0.87738 0.08743 0.16048 0.0
H472 H 0.92558 0.08671 1.00231 0.0
C473 C 0.92707 0.99667 0.06798 0.0
C474 C 0.56664 0.9333 0.2327 0.0
C475 C 0.54266 0.90328 0.2284 0.0
H476 H 0.58451 0.98249 0.14832 0.0
C477 C 0.51723 0.90103 0.1326 0.0
H478 H 0.58685 0.93571 0.30428 0.0
C479 C 0.5157 0.92805 0.04389 0.0
C480 C 0.53952 0.95835 0.04805 0.0
H481 H 0.49849 0.8782 0.12588 0.0
H482 H 0.49561 0.92522 0.97202 0.0
C483 C 0.56513 0.96032 0.14374 0.0
C484 C 0.64127 0.49487 0.10774 0.0
C485 C 0.66394 0.5257 0.12322 0.0
H486 H 0.59331 0.47116 0.02397 0.0
C487 C 0.65493 0.55686 0.05716 0.0
H488 H 0.64694 0.47049 0.15765 0.0
C489 C 0.62399 0.55715 0.97927 0.0
C490 C 0.60138 0.52615 0.96353 0.0
H491 H 0.67127 0.58137 0.06796 0.0
H492 H 0.61691 0.5822 0.93516 0.0
C493 C 0.6105 0.49519 0.03025 0.0
C494 C 0.99257 0.64598 0.10897 0.0
C495 C 1.01838 0.65242 0.20312 0.0
H496 H 0.97442 0.61049 0.95827 0.0
C497 C 0.04628 0.6262 0.2142 0.0
H498 H 0.97038 0.66524 0.09783 0.0
C499 C 0.04866 0.59505 0.13407 0.0
C500 C 0.02366 0.58882 0.03749 0.0
H501 H 0.06644 0.62968 0.28569 0.0
H502 H 0.07061 0.57565 0.1474 0.0
C503 C 0.99504 0.61463 0.02784 0.0
C504 C 0.91946 0.2241 0.31153 0.0
C505 C 0.95317 0.23982 0.34376 0.0
H506 H 0.87566 0.18992 0.36756 0.0
C507 C 0.96384 0.24121 0.46669 0.0
H508 H 0.91048 0.22323 0.21747 0.0
C509 C 0.94361 0.22256 0.5528 0.0
C510 C 0.91268 0.20254 0.51621 0.0
H511 H 0.98971 0.25324 0.49365 0.0
H512 H 0.95453 0.22014 0.64385 0.0
C513 C 0.89934 0.20546 0.39737 0.0
C514 C 0.33737 1.00677 0.47379 0.0
C515 C 0.31677 0.98908 0.38231 0.0
H516 H 0.37803 1.00049 0.61047 0.0
C517 C 0.3147 0.95081 0.37669 0.0
H518 H 0.33937 0.03633 0.47851 0.0
C519 C 0.33739 0.93029 0.44986 0.0
C520 C 0.36217 0.9481 0.52895 0.0
H521 H 0.29907 0.93687 0.30548 0.0
H522 H 0.33871 0.90094 0.43328 0.0
C523 C 0.35962 0.98626 0.54826 0.0
C524 C 0.59301 0.30922 0.43043 0.0
C525 C 0.60456 0.31193 0.30856 0.0
H526 H 0.5997 0.32912 0.61525 0.0
C527 C 0.63678 0.33112 0.28356 0.0
H528 H 0.56819 0.29482 0.45255 0.0
C529 C 0.6544 0.35103 0.37648 0.0
C530 C 0.64049 0.35131 0.49572 0.0
H531 H 0.64666 0.33306 0.19078 0.0
H532 H 0.67716 0.36841 0.35374 0.0
C533 C 0.61097 0.3288 0.52365 0.0
C534 C 0.2624 0.57356 0.46339 0.0
C535 C 0.26665 0.58468 0.3431 0.0
H536 H 0.23186 0.5815 0.62915 0.0
C537 C 0.2537 0.61923 0.31166 0.0
H538 H 0.27241 0.54709 0.48982 0.0
C539 C 0.23078 0.63908 0.39184 0.0
C540 C 0.22052 0.62412 0.50276 0.0
H541 H 0.25711 0.62842 0.21953 0.0
H542 H 0.21679 0.66293 0.35904 0.0
C543 C 0.23926 0.59328 0.54327 0.0
C544 C 0.98878 0.82639 0.98838 0.0
C545 C 1.00973 0.80085 0.04904 0.0
H546 H 0.98929 0.86614 0.85275 0.0
C547 C 0.0418 0.78665 0.99425 0.0
H548 H 0.96355 0.83701 0.02818 0.0
C549 C 0.05675 0.8035 0.89432 0.0
C550 C 0.04009 0.83524 0.85309 0.0
H551 H 0.05824 0.76663 0.03971 0.0
H552 H 0.08444 0.79622 0.86734 0.0
C553 C 1.00347 0.84267 0.88666 0.0
C554 C 0.72257 0.08833 0.05206 0.0
C555 C 0.73728 0.10455 0.15833 0.0
H556 H 0.68554 0.09505 0.90424 0.0
C557 C 0.73388 0.14237 0.18082 0.0
H558 H 0.72493 0.05908 0.03408 0.0
C559 C 0.71125 0.16287 0.1076 0.0
C560 C 0.69173 0.14542 1.01253 0.0
H561 H 0.74509 0.15511 0.26313 0.0
H562 H 0.70528 0.19098 0.13574 0.0
C563 C 0.70008 0.10887 0.97832 0.0
C564 C 0.56931 0.72517 1.01002 0.0
C565 C 0.55062 0.7541 0.06998 0.0
H566 H 0.56634 0.68322 0.87047 0.0
C567 C 0.52053 0.77021 0.01304 0.0
H568 H 0.59318 0.71306 0.05072 0.0
C569 C 0.50471 0.75271 0.91195 0.0
C570 C 0.51895 0.71906 0.86857 0.0
H571 H 0.50605 0.79313 0.05641 0.0
H572 H 0.47822 0.76225 0.88255 0.0
C573 C 0.55405 0.7084 0.90631 0.0
C574 C 0.85163 0.6087 0.11725 0.0
C575 C 0.81389 0.60107 0.12081 0.0
H576 H 0.90281 0.58103 0.08735 0.0
C577 C 0.80029 0.5852 1.01114 0.0
H578 H 0.86353 0.62739 0.18476 0.0
C579 C 0.82226 0.55914 0.94929 0.0
C580 C 0.85819 0.55359 0.99042 0.0
H581 H 0.77132 0.58508 0.99192 0.0
H582 H 0.80971 0.53998 0.88469 0.0
C583 C 0.87439 0.58215 0.06066 0.0
C584 C 0.98617 0.17432 0.92869 0.0
C585 C 1.01741 0.19475 0.96567 0.0
H586 H 0.96396 0.12677 0.83481 0.0
C587 C 0.05136 0.18186 0.91835 0.0
H588 H 0.95913 0.18328 0.95747 0.0
C589 C 0.05381 0.14916 0.84319 0.0
C590 C 0.02259 0.12769 0.81522 0.0
H591 H 0.07622 0.19621 0.94295 0.0
H592 H 0.08036 0.14011 0.80981 0.0
C593 C 0.98875 0.14156 0.85707 0.0
C594 C 0.39062 1.00003 0.99126 0.0
C595 C 0.36057 0.02426 0.9762 0.0
H596 H 0.44594 0.98484 0.94478 0.0
C597 C 0.36366 0.04853 0.87929 0.0
H598 H 0.38944 0.97861 0.05639 0.0
C599 C 0.39631 0.05028 0.80852 0.0
C600 C 0.42745 0.02901 0.83552 0.0
H601 H 0.34156 0.06724 0.86096 0.0
H602 H 0.39784 0.06969 0.73653 0.0
C603 C 0.42347 1.00305 0.92526 0.0
C604 C 0.56981 0.36401 0.87801 0.0
C605 C 0.53945 0.34846 0.93673 0.0
H606 H 0.59144 0.40888 0.78064 0.0
C607 C 0.50546 0.36621 0.92547 0.0
H608 H 0.59652 0.3513 0.88401 0.0
C609 C 0.50258 0.39961 0.8648 0.0
C610 C 0.53361 0.41654 0.81447 0.0
H611 H 0.48148 0.35549 0.96977 0.0
H612 H 0.47614 0.41277 0.86088 0.0
C613 C 0.56695 0.39732 0.81835 0.0
C614 C 0.19098 0.48076 1.00049 0.0
C615 C 0.21243 0.51275 0.99988 0.0
H616 H 0.14005 0.45466 0.95118 0.0
C617 C 0.19776 0.54272 0.93817 0.0
H618 H 0.20074 0.45715 0.04759 0.0
C619 C 0.16258 0.54167 0.88579 0.0
C620 C 0.14009 0.51055 0.89228 0.0
H621 H 0.21307 0.56794 0.93485 0.0
H622 H 0.15269 0.56596 0.84292 0.0
C623 C 0.15559 0.47963 0.94701 0.0
C624 C 0.04878 0.88322 0.41786 0.0
C625 C 0.02462 0.85672 0.46391 0.0
H626 H 0.07171 0.93744 0.43376 0.0
C627 C 1.00554 0.86733 0.57217 0.0
H628 H 0.06436 0.87684 0.33554 0.0
C629 C 1.00966 0.90303 0.62837 0.0
C630 C 0.03258 0.92978 0.57833 0.0
H631 H 0.98633 0.84855 0.61112 0.0
H632 H 0.99453 0.91003 0.71076 0.0
C633 C 0.05288 0.91851 0.474 0.0
C634 C 0.66378 0.08098 0.54662 0.0
C635 C 0.69435 0.05684 0.55253 0.0
H636 H 0.60901 0.09485 0.60355 0.0
C637 C 0.69277 0.03118 0.646 0.0
H638 H 0.66365 0.10379 0.48704 0.0
C639 C 0.66119 0.02815 0.7216 0.0
C640 C 0.6294 0.04934 0.70259 0.0
H641 H 0.71529 1.01249 0.65866 0.0
H642 H 0.66094 1.0078 0.7908 0.0
C643 C 0.63188 0.07654 0.61654 0.0
C644 C 0.51133 0.68671 0.47563 0.0
C645 C 0.54279 0.70875 0.48958 0.0
H646 H 0.48431 0.63605 0.51357 0.0
C647 C 0.5715 0.6949 0.55982 0.0
H648 H 0.48903 0.69577 0.41945 0.0
C649 C 0.56908 0.66011 0.61206 0.0
C650 C 0.53778 0.63787 0.59677 0.0
H651 H 0.59662 0.71024 0.56976 0.0
H652 H 0.59215 0.65035 0.66319 0.0
C653 C 0.50873 0.65215 0.52901 0.0
C654 C 0.88728 0.52892 0.40829 0.0
C655 C 0.85297 0.53051 0.4687 0.0
H656 H 0.94567 0.52451 0.42087 0.0
C657 C 0.85313 0.52398 0.59494 0.0
H658 H 0.88885 0.53294 0.31102 0.0
C659 C 0.88654 0.51842 0.65843 0.0
C660 C 0.92083 0.51981 0.59863 0.0
H661 H 0.8277 0.52497 0.64583 0.0
H662 H 0.8856 0.51484 0.75526 0.0
C663 C 0.92026 0.52415 0.47173 0.0
loop_
_geom_bond_atom_site_label_1
_geom_bond_atom_site_label_2
_geom_bond_distance
_geom_bond_site_symmetry_2
_ccdc_geom_bond_type
H0 C3 0.929 . S
H1 C6 0.929 . S
H2 C8 0.930 . S
C3 H0 0.929 . S
C3 C4 1.398 . S
C3 C5 1.396 . S
C4 C3 1.398 . S
C4 C8 1.407 . S
C5 C3 1.396 . S
C5 C6 1.394 . S
C6 H1 0.929 . S
C6 C5 1.394 . S
C6 C7 1.382 . S
C7 C6 1.382 . S
C7 C8 1.392 . S
C7 N9 1.420 . S
C8 H2 0.930 . S
C8 C4 1.407 . S
C8 C7 1.392 . S
N9 C7 1.420 . S
N9 C10 1.244 . S
C10 N9 1.244 . S
H11 C14 0.929 . S
H12 C17 0.929 . S
H13 C19 0.930 . S
C14 H11 0.929 . S
C14 C15 1.398 . S
C14 C16 1.396 . S
C15 C14 1.398 . S
C15 C19 1.407 . S
C16 C14 1.396 . S
C16 C17 1.394 . S
C17 H12 0.929 . S
C17 C16 1.394 . S
C17 C18 1.382 . S
C18 C17 1.382 . S
C18 C19 1.392 . S
C18 N20 1.420 . S
C19 H13 0.930 . S
C19 C15 1.407 . S
C19 C18 1.392 . S
N20 C18 1.420 . S
N20 C21 1.244 . S
C21 N20 1.244 . S
H22 C25 0.929 . S
H23 C28 0.929 . S
H24 C30 0.930 . S
C25 H22 0.929 . S
C25 C26 1.398 . S
C25 C27 1.396 . S
C26 C25 1.398 . S
C26 C30 1.407 . S
C27 C25 1.396 . S
C27 C28 1.394 . S
C28 H23 0.929 . S
C28 C27 1.394 . S
C28 C29 1.382 . S
C29 C28 1.382 . S
C29 C30 1.392 . S
C29 N31 1.420 . S
C30 H24 0.930 . S
C30 C26 1.407 . S
C30 C29 1.392 . S
N31 C29 1.420 . S
N31 C32 1.244 . S
C32 N31 1.244 . S
H33 C36 0.929 . S
H34 C39 0.929 . S
H35 C41 0.930 . S
C36 H33 0.929 . S
C36 C37 1.398 . S
C36 C38 1.396 . S
C37 C36 1.398 . S
C37 C41 1.407 . S
C38 C36 1.396 . S
C38 C39 1.394 . S
C39 H34 0.929 . S
C39 C38 1.394 . S
C39 C40 1.382 . S
C40 C39 1.382 . S
C40 C41 1.392 . S
C40 N42 1.420 . S
C41 H35 0.930 . S
C41 C37 1.407 . S
C41 C40 1.392 . S
N42 C40 1.420 . S
N42 C43 1.244 . S
C43 N42 1.244 . S
H44 C47 0.929 . S
H45 C50 0.929 . S
H46 C52 0.930 . S
C47 H44 0.929 . S
C47 C48 1.398 . S
C47 C49 1.396 1_556 S
C48 C47 1.398 . S
C48 C52 1.407 . S
C49 C47 1.396 1_554 S
C49 C50 1.394 . S
C50 H45 0.929 . S
C50 C49 1.394 . S
C50 C51 1.382 . S
C51 C50 1.382 . S
C51 C52 1.392 1_554 S
C51 N53 1.420 . S
C52 H46 0.930 . S
C52 C48 1.407 . S
C52 C51 1.392 1_556 S
N53 C51 1.420 . S
N53 C54 1.244 . S
C54 N53 1.244 . S
H55 C58 0.929 . S
H56 C61 0.929 . S
H57 C63 0.930 . S
C58 H55 0.929 . S
C58 C59 1.398 . S
C58 C60 1.396 1_556 S
C59 C58 1.398 . S
C59 C63 1.407 . S
C60 C58 1.396 1_554 S
C60 C61 1.394 . S
C61 H56 0.929 . S
C61 C60 1.394 . S
C61 C62 1.382 . S
C62 C61 1.382 . S
C62 C63 1.392 1_554 S
C62 N64 1.420 . S
C63 H57 0.930 . S
C63 C59 1.407 . S
C63 C62 1.392 1_556 S
N64 C62 1.420 . S
N64 C65 1.244 . S
C65 N64 1.244 . S
H66 C69 0.929 . S
H67 C72 0.929 . S
H68 C74 0.930 . S
C69 H66 0.929 . S
C69 C70 1.398 . S
C69 C71 1.396 1_556 S
C70 C69 1.398 . S
C70 C74 1.407 . S
C71 C69 1.396 1_554 S
C71 C72 1.394 . S
C72 H67 0.929 . S
C72 C71 1.394 . S
C72 C73 1.382 . S
C73 C72 1.382 . S
C73 C74 1.392 1_554 S
C73 N75 1.420 . S
C74 H68 0.930 . S
C74 C70 1.407 . S
C74 C73 1.392 1_556 S
N75 C73 1.420 . S
N75 C76 1.244 . S
C76 N75 1.244 . S
H77 C80 0.929 . S
H78 C83 0.929 . S
H79 C85 0.930 . S
C80 H77 0.929 . S
C80 C81 1.398 . S
C80 C82 1.396 1_556 S
C81 C80 1.398 . S
C81 C85 1.407 . S
C82 C80 1.396 1_554 S
C82 C83 1.394 . S
C83 H78 0.929 . S
C83 C82 1.394 . S
C83 C84 1.382 . S
C84 C83 1.382 . S
C84 C85 1.392 1_554 S
C84 N86 1.420 . S
C85 H79 0.930 . S
C85 C81 1.407 . S
C85 C84 1.392 1_556 S
N86 C84 1.420 . S
N86 C87 1.244 . S
C87 N86 1.244 . S
Gd88 N119 2.661 1_545 S
Gd88 N125 2.601 . S
Gd88 O132 2.545 . S
Gd88 O133 2.606 1_655 S
Gd88 O135 2.429 . S
Gd88 O136 2.545 1_655 S
Gd88 O137 2.412 . S
Gd88 O139 2.362 1_545 S
Gd88 O140 2.324 1_655 S
Gd88 C147 2.828 . S
Gd89 N98 2.661 1_566 S
Gd89 N102 2.601 1_565 S
Gd89 O133 2.362 1_565 S
Gd89 O134 2.324 1_455 S
Gd89 O138 2.545 . S
Gd89 O139 2.606 1_455 S
Gd89 O141 2.429 . S
Gd89 O142 2.545 . S
Gd89 O143 2.412 1_556 S
Gd89 C156 2.828 . S
C90 C93 1.417 . S
C90 C95 1.431 . S
C90 C96 1.412 . S
C91 C94 1.437 . S
C91 C95 1.317 . S
C91 H110 0.929 . S
C92 C93 1.426 . S
C92 C94 1.413 . S
C92 N102 1.359 1_554 S
C93 C90 1.417 . S
C93 C92 1.426 . S
C93 N98 1.350 . S
C94 C91 1.437 . S
C94 C92 1.413 . S
C94 C104 1.391 . S
C95 C90 1.431 . S
C95 C91 1.317 . S
C95 H106 0.930 . S
C96 C90 1.412 . S
C96 C97 1.355 . S
C96 H108 0.930 . S
C97 C96 1.355 . S
C97 C99 1.402 . S
C97 H109 0.930 1_455 S
N98 Gd89 2.661 1_544 S
N98 C93 1.350 . S
N98 C99 1.307 . S
C99 C97 1.402 . S
C99 N98 1.307 . S
C99 H100 0.930 1_455 S
H100 C99 0.930 1_655 S
C101 N102 1.334 1_565 S
C101 C103 1.394 . S
C101 H105 0.930 . S
N102 Gd89 2.601 1_545 S
N102 C92 1.359 1_556 S
N102 C101 1.334 1_545 S
C103 C101 1.394 . S
C103 C104 1.359 1_566 S
C103 H115 0.930 . S
C104 C94 1.391 . S
C104 C103 1.359 1_544 S
C104 H116 0.929 . S
H105 C101 0.930 . S
H106 C95 0.930 . S
H107 C124 0.930 . S
H108 C96 0.930 . S
H109 C97 0.930 1_655 S
H110 C91 0.929 . S
H111 C129 0.930 . S
H112 C120 0.930 . S
H113 C121 0.930 . S
H114 C145 0.929 . S
H115 C103 0.930 . S
H116 C104 0.929 . S
H117 C146 0.930 . S
H118 C127 0.930 . S
N119 Gd88 2.661 1_565 S
N119 C123 1.350 . S
N119 C124 1.307 1_655 S
C120 H112 0.930 . S
C120 C121 1.355 1_655 S
C120 C122 1.412 . S
C121 H113 0.930 . S
C121 C120 1.355 1_455 S
C121 C124 1.402 . S
C122 C120 1.412 . S
C122 C123 1.417 . S
C122 C146 1.431 . S
C123 N119 1.350 . S
C123 C122 1.417 . S
C123 C126 1.426 . S
C124 H107 0.930 . S
C124 N119 1.307 1_455 S
C124 C121 1.402 . S
N125 Gd88 2.601 . S
N125 C126 1.359 1_545 S
N125 C129 1.334 . S
C126 C123 1.426 . S
C126 N125 1.359 1_565 S
C126 C130 1.413 . S
C127 H118 0.930 . S
C127 C128 1.359 . S
C127 C129 1.394 . S
C128 C127 1.359 . S
C128 C130 1.391 1_545 S
C128 H131 0.929 . S
C129 H111 0.930 . S
C129 N125 1.334 . S
C129 C127 1.394 . S
C130 C126 1.413 . S
C130 C128 1.391 1_565 S
C130 C145 1.437 . S
H131 C128 0.929 . S
O132 Gd88 2.545 . S
O132 C147 1.258 . S
O133 Gd88 2.606 1_455 S
O133 Gd89 2.362 1_545 S
O133 C144 1.284 . S
O134 Gd89 2.324 1_655 S
O134 C154 1.254 1_565 S
O135 Gd88 2.429 . S
O135 C154 1.268 . S
O136 Gd88 2.545 1_455 S
O136 C144 1.250 . S
O137 Gd88 2.412 . S
O137 C147 1.252 . S
O138 Gd89 2.545 . S
O138 C156 1.258 . S
O139 Gd88 2.362 1_565 S
O139 Gd89 2.606 1_655 S
O139 C155 1.284 . S
O140 Gd88 2.324 1_455 S
O140 C163 1.254 . S
O141 Gd89 2.429 . S
O141 C163 1.268 1_565 S
O142 Gd89 2.545 . S
O142 C155 1.250 1_455 S
O143 Gd89 2.412 1_554 S
O143 C156 1.252 1_554 S
C144 O133 1.284 . S
C144 O136 1.250 . S
C145 H114 0.929 . S
C145 C130 1.437 . S
C145 C146 1.317 . S
C146 H117 0.930 . S
C146 C122 1.431 . S
C146 C145 1.317 . S
C147 Gd88 2.828 . S
C147 O132 1.258 . S
C147 O137 1.252 . S
C147 C148 1.497 . S
C148 C147 1.497 . S
C148 C149 1.395 . S
C148 C150 1.380 . S
C149 C148 1.395 . S
C149 C152 1.398 . S
C149 H164 0.930 . S
C150 C148 1.380 . S
C150 C151 1.391 . S
C150 H165 0.930 1_655 S
C151 C150 1.391 . S
C151 C153 1.387 . S
C152 C149 1.398 . S
C152 C153 1.380 . S
C152 H166 0.930 . S
C153 C151 1.387 . S
C153 C152 1.380 . S
C153 H167 0.930 . S
C154 O134 1.254 1_545 S
C154 O135 1.268 . S
C155 O139 1.284 . S
C155 O142 1.250 1_655 S
C156 Gd89 2.828 . S
C156 O138 1.258 . S
C156 O143 1.252 1_556 S
C156 C157 1.497 1_556 S
C157 C156 1.497 1_554 S
C157 C158 1.395 . S
C157 C159 1.380 . S
C158 C157 1.395 . S
C158 C161 1.398 . S
C158 H168 0.930 . S
C159 C157 1.380 . S
C159 C160 1.391 . S
C159 H169 0.930 . S
C160 C159 1.391 . S
C160 C162 1.387 . S
C161 C158 1.398 . S
C161 C162 1.380 . S
C161 H170 0.930 . S
C162 C160 1.387 . S
C162 C161 1.380 . S
C162 H171 0.930 . S
C163 O140 1.254 . S
C163 O141 1.268 1_545 S
H164 C149 0.930 . S
H165 C150 0.930 1_455 S
H166 C152 0.930 . S
H167 C153 0.930 . S
H168 C158 0.930 . S
H169 C159 0.930 . S
H170 C161 0.930 . S
H171 C162 0.930 . S
Gd172 N203 2.661 . S
Gd172 N209 2.601 . S
Gd172 O216 2.545 . S
Gd172 O217 2.606 1_565 S
Gd172 O219 2.429 . S
Gd172 O220 2.545 1_565 S
Gd172 O221 2.412 . S
Gd172 O223 2.362 . S
Gd172 O224 2.324 1_565 S
Gd172 C231 2.828 . S
Gd173 N182 2.661 1_556 S
Gd173 N186 2.601 . S
Gd173 O217 2.362 . S
Gd173 O218 2.324 1_545 S
Gd173 O222 2.545 . S
Gd173 O223 2.606 1_545 S
Gd173 O225 2.429 . S
Gd173 O226 2.545 . S
Gd173 O227 2.412 1_556 S
Gd173 C240 2.828 . S
C174 C177 1.417 . S
C174 C179 1.431 . S
C174 C180 1.412 . S
C175 C178 1.437 . S
C175 C179 1.317 . S
C175 H194 0.929 . S
C176 C177 1.426 . S
C176 C178 1.413 . S
C176 N186 1.359 1_554 S
C177 C174 1.417 . S
C177 C176 1.426 . S
C177 N182 1.350 . S
C178 C175 1.437 . S
C178 C176 1.413 . S
C178 C188 1.391 . S
C179 C174 1.431 . S
C179 C175 1.317 . S
C179 H190 0.930 . S
C180 C174 1.412 . S
C180 C181 1.355 . S
C180 H192 0.930 . S
C181 C180 1.355 . S
C181 C183 1.402 . S
C181 H193 0.930 1_545 S
N182 Gd173 2.661 1_554 S
N182 C177 1.350 . S
N182 C183 1.307 . S
C183 C181 1.402 . S
C183 N182 1.307 . S
C183 H184 0.930 1_545 S
H184 C183 0.930 1_565 S
C185 N186 1.334 . S
C185 C187 1.394 . S
C185 H189 0.930 . S
N186 Gd173 2.601 . S
N186 C176 1.359 1_556 S
N186 C185 1.334 . S
C187 C185 1.394 . S
C187 C188 1.359 1_556 S
C187 H199 0.930 . S
C188 C178 1.391 . S
C188 C187 1.359 1_554 S
C188 H200 0.929 . S
H189 C185 0.930 . S
H190 C179 0.930 . S
H191 C208 0.930 . S
H192 C180 0.930 . S
H193 C181 0.930 1_565 S
H194 C175 0.929 . S
H195 C213 0.930 . S
H196 C204 0.930 . S
H197 C205 0.930 . S
H198 C229 0.929 . S
H199 C187 0.930 . S
H200 C188 0.929 . S
H201 C230 0.930 . S
H202 C211 0.930 . S
N203 Gd172 2.661 . S
N203 C207 1.350 . S
N203 C208 1.307 1_565 S
C204 H196 0.930 . S
C204 C205 1.355 1_565 S
C204 C206 1.412 . S
C205 H197 0.930 . S
C205 C204 1.355 1_545 S
C205 C208 1.402 . S
C206 C204 1.412 . S
C206 C207 1.417 . S
C206 C230 1.431 . S
C207 N203 1.350 . S
C207 C206 1.417 . S
C207 C210 1.426 . S
C208 H191 0.930 . S
C208 N203 1.307 1_545 S
C208 C205 1.402 . S
N209 Gd172 2.601 . S
N209 C210 1.359 . S
N209 C213 1.334 . S
C210 C207 1.426 . S
C210 N209 1.359 . S
C210 C214 1.413 . S
C211 H202 0.930 . S
C211 C212 1.359 . S
C211 C213 1.394 . S
C212 C211 1.359 . S
C212 C214 1.391 . S
C212 H215 0.929 . S
C213 H195 0.930 . S
C213 N209 1.334 . S
C213 C211 1.394 . S
C214 C210 1.413 . S
C214 C212 1.391 . S
C214 C229 1.437 . S
H215 C212 0.929 . S
O216 Gd172 2.545 . S
O216 C231 1.258 . S
O217 Gd172 2.606 1_545 S
O217 Gd173 2.362 . S
O217 C228 1.284 . S
O218 Gd173 2.324 1_565 S
O218 C238 1.254 . S
O219 Gd172 2.429 . S
O219 C238 1.268 . S
O220 Gd172 2.545 1_545 S
O220 C228 1.250 . S
O221 Gd172 2.412 . S
O221 C231 1.252 . S
O222 Gd173 2.545 . S
O222 C240 1.258 . S
O223 Gd172 2.362 . S
O223 Gd173 2.606 1_565 S
O223 C239 1.284 . S
O224 Gd172 2.324 1_545 S
O224 C247 1.254 . S
O225 Gd173 2.429 . S
O225 C247 1.268 . S
O226 Gd173 2.545 . S
O226 C239 1.250 1_545 S
O227 Gd173 2.412 1_554 S
O227 C240 1.252 1_554 S
C228 O217 1.284 . S
C228 O220 1.250 . S
C229 H198 0.929 . S
C229 C214 1.437 . S
C229 C230 1.317 . S
C230 H201 0.930 . S
C230 C206 1.431 . S
C230 C229 1.317 . S
C231 Gd172 2.828 . S
C231 O216 1.258 . S
C231 O221 1.252 . S
C231 C232 1.497 . S
C232 C231 1.497 . S
C232 C233 1.395 . S
C232 C234 1.380 . S
C233 C232 1.395 . S
C233 C236 1.398 . S
C233 H248 0.930 . S
C234 C232 1.380 . S
C234 C235 1.391 . S
C234 H249 0.930 1_565 S
C235 C234 1.391 . S
C235 C237 1.387 . S
C236 C233 1.398 . S
C236 C237 1.380 . S
C236 H250 0.930 . S
C237 C235 1.387 . S
C237 C236 1.380 . S
C237 H251 0.930 . S
C238 O218 1.254 . S
C238 O219 1.268 . S
C239 O223 1.284 . S
C239 O226 1.250 1_565 S
C240 Gd173 2.828 . S
C240 O222 1.258 . S
C240 O227 1.252 1_556 S
C240 C241 1.497 1_556 S
C241 C240 1.497 1_554 S
C241 C242 1.395 . S
C241 C243 1.380 . S
C242 C241 1.395 . S
C242 C245 1.398 . S
C242 H252 0.930 . S
C243 C241 1.380 . S
C243 C244 1.391 . S
C243 H253 0.930 . S
C244 C243 1.391 . S
C244 C246 1.387 . S
C245 C242 1.398 . S
C245 C246 1.380 . S
C245 H254 0.930 . S
C246 C244 1.387 . S
C246 C245 1.380 . S
C246 H255 0.930 . S
C247 O224 1.254 . S
C247 O225 1.268 . S
H248 C233 0.930 . S
H249 C234 0.930 1_545 S
H250 C236 0.930 . S
H251 C237 0.930 . S
H252 C242 0.930 . S
H253 C243 0.930 . S
H254 C245 0.930 . S
H255 C246 0.930 . S
Gd256 N287 2.661 . S
Gd256 N293 2.601 . S
Gd256 O300 2.545 1_556 S
Gd256 O301 2.606 . S
Gd256 O303 2.429 . S
Gd256 O304 2.545 . S
Gd256 O305 2.412 . S
Gd256 O307 2.362 . S
Gd256 O308 2.324 . S
Gd256 C315 2.828 1_556 S
Gd257 N266 2.661 . S
Gd257 N270 2.601 . S
Gd257 O301 2.362 . S
Gd257 O302 2.324 . S
Gd257 O306 2.545 . S
Gd257 O307 2.606 . S
Gd257 O309 2.429 . S
Gd257 O310 2.545 . S
Gd257 O311 2.412 . S
Gd257 C324 2.828 . S
C258 C261 1.417 . S
C258 C263 1.431 . S
C258 C264 1.412 . S
C259 C262 1.437 . S
C259 C263 1.317 . S
C259 H278 0.929 . S
C260 C261 1.426 . S
C260 C262 1.413 . S
C260 N270 1.359 . S
C261 C258 1.417 . S
C261 C260 1.426 . S
C261 N266 1.350 . S
C262 C259 1.437 . S
C262 C260 1.413 . S
C262 C272 1.391 . S
C263 C258 1.431 . S
C263 C259 1.317 . S
C263 H274 0.930 . S
C264 C258 1.412 . S
C264 C265 1.355 . S
C264 H276 0.930 . S
C265 C264 1.355 . S
C265 C267 1.402 . S
C265 H277 0.930 . S
N266 Gd257 2.661 . S
N266 C261 1.350 . S
N266 C267 1.307 . S
C267 C265 1.402 . S
C267 N266 1.307 . S
C267 H268 0.930 . S
H268 C267 0.930 . S
C269 N270 1.334 . S
C269 C271 1.394 . S
C269 H273 0.930 . S
N270 Gd257 2.601 . S
N270 C260 1.359 . S
N270 C269 1.334 . S
C271 C269 1.394 . S
C271 C272 1.359 . S
C271 H283 0.930 . S
C272 C262 1.391 . S
C272 C271 1.359 . S
C272 H284 0.929 . S
H273 C269 0.930 . S
H274 C263 0.930 . S
H275 C292 0.930 . S
H276 C264 0.930 . S
H277 C265 0.930 . S
H278 C259 0.929 . S
H279 C297 0.930 . S
H280 C288 0.930 . S
H281 C289 0.930 . S
H282 C313 0.929 . S
H283 C271 0.930 . S
H284 C272 0.929 . S
H285 C314 0.930 . S
H286 C295 0.930 . S
N287 Gd256 2.661 . S
N287 C291 1.350 . S
N287 C292 1.307 . S
C288 H280 0.930 . S
C288 C289 1.355 . S
C288 C290 1.412 . S
C289 H281 0.930 . S
C289 C288 1.355 . S
C289 C292 1.402 . S
C290 C288 1.412 . S
C290 C291 1.417 . S
C290 C314 1.431 . S
C291 N287 1.350 . S
C291 C290 1.417 . S
C291 C294 1.426 . S
C292 H275 0.930 . S
C292 N287 1.307 . S
C292 C289 1.402 . S
N293 Gd256 2.601 . S
N293 C294 1.359 . S
N293 C297 1.334 1_556 S
C294 C291 1.426 . S
C294 N293 1.359 . S
C294 C298 1.413 . S
C295 H286 0.930 . S
C295 C296 1.359 . S
C295 C297 1.394 . S
C296 C295 1.359 . S
C296 C298 1.391 1_554 S
C296 H299 0.929 . S
C297 H279 0.930 . S
C297 N293 1.334 1_554 S
C297 C295 1.394 . S
C298 C294 1.413 . S
C298 C296 1.391 1_556 S
C298 C313 1.437 . S
H299 C296 0.929 . S
O300 Gd256 2.545 1_554 S
O300 C315 1.258 . S
O301 Gd256 2.606 . S
O301 Gd257 2.362 . S
O301 C312 1.284 . S
O302 Gd257 2.324 . S
O302 C322 1.254 . S
O303 Gd256 2.429 . S
O303 C322 1.268 . S
O304 Gd256 2.545 . S
O304 C312 1.250 . S
O305 Gd256 2.412 . S
O305 C315 1.252 1_556 S
O306 Gd257 2.545 . S
O306 C324 1.258 . S
O307 Gd256 2.362 . S
O307 Gd257 2.606 . S
O307 C323 1.284 . S
O308 Gd256 2.324 . S
O308 C331 1.254 . S
O309 Gd257 2.429 . S
O309 C331 1.268 . S
O310 Gd257 2.545 . S
O310 C323 1.250 . S
O311 Gd257 2.412 . S
O311 C324 1.252 . S
C312 O301 1.284 . S
C312 O304 1.250 . S
C313 H282 0.929 . S
C313 C298 1.437 . S
C313 C314 1.317 . S
C314 H285 0.930 . S
C314 C290 1.431 . S
C314 C313 1.317 . S
C315 Gd256 2.828 1_554 S
C315 O300 1.258 . S
C315 O305 1.252 1_554 S
C315 C316 1.497 . S
C316 C315 1.497 . S
C316 C317 1.395 . S
C316 C318 1.380 . S
C317 C316 1.395 . S
C317 C320 1.398 . S
C317 H332 0.930 . S
C318 C316 1.380 . S
C318 C319 1.391 . S
C318 H333 0.930 . S
C319 C318 1.391 . S
C319 C321 1.387 . S
C320 C317 1.398 . S
C320 C321 1.380 . S
C320 H334 0.930 . S
C321 C319 1.387 . S
C321 C320 1.380 . S
C321 H335 0.930 . S
C322 O302 1.254 . S
C322 O303 1.268 . S
C323 O307 1.284 . S
C323 O310 1.250 . S
C324 Gd257 2.828 . S
C324 O306 1.258 . S
C324 O311 1.252 . S
C324 C325 1.497 . S
C325 C324 1.497 . S
C325 C326 1.395 . S
C325 C327 1.380 . S
C326 C325 1.395 . S
C326 C329 1.398 . S
C326 H336 0.930 . S
C327 C325 1.380 . S
C327 C328 1.391 . S
C327 H337 0.930 . S
C328 C327 1.391 . S
C328 C330 1.387 . S
C329 C326 1.398 . S
C329 C330 1.380 . S
C329 H338 0.930 . S
C330 C328 1.387 . S
C330 C329 1.380 . S
C330 H339 0.930 . S
C331 O308 1.254 . S
C331 O309 1.268 . S
H332 C317 0.930 . S
H333 C318 0.930 . S
H334 C320 0.930 . S
H335 C321 0.930 . S
H336 C326 0.930 . S
H337 C327 0.930 . S
H338 C329 0.930 . S
H339 C330 0.930 . S
Gd340 N371 2.661 . S
Gd340 N377 2.607 . S
Gd340 O384 2.545 1_556 S
Gd340 O385 2.606 1_655 S
Gd340 O387 2.429 1_655 S
Gd340 O388 2.545 . S
Gd340 O389 2.412 . S
Gd340 O391 2.362 1_655 S
Gd340 O392 2.324 . S
Gd340 C399 2.828 1_556 S
Gd341 N350 2.661 . S
Gd341 N354 2.601 . S
Gd341 O385 2.362 . S
Gd341 O386 2.324 . S
Gd341 O390 2.545 . S
Gd341 O391 2.606 . S
Gd341 O393 2.429 1_455 S
Gd341 O394 2.545 . S
Gd341 O395 2.412 . S
Gd341 C408 2.828 . S
C342 C345 1.417 . S
C342 C347 1.431 . S
C342 C348 1.412 . S
C343 C346 1.437 . S
C343 C347 1.317 . S
C343 H362 0.929 . S
C344 C345 1.426 . S
C344 C346 1.413 . S
C344 N354 1.359 . S
C345 C342 1.417 . S
C345 C344 1.426 . S
C345 N350 1.350 . S
C346 C343 1.437 . S
C346 C344 1.413 . S
C346 C356 1.391 . S
C347 C342 1.431 . S
C347 C343 1.317 . S
C347 H358 0.930 . S
C348 C342 1.412 . S
C348 C349 1.355 . S
C348 H360 0.930 . S
C349 C348 1.355 . S
C349 C351 1.402 . S
C349 H361 0.930 . S
N350 Gd341 2.661 . S
N350 C345 1.350 . S
N350 C351 1.307 . S
C351 C349 1.402 . S
C351 N350 1.307 . S
C351 H352 0.930 . S
H352 C351 0.930 . S
C353 N354 1.334 1_655 S
C353 C355 1.394 . S
C353 H357 0.930 . S
N354 Gd341 2.601 . S
N354 C344 1.359 . S
N354 C353 1.334 1_455 S
C355 C353 1.394 . S
C355 C356 1.359 1_655 S
C355 H367 0.930 . S
C356 C346 1.391 . S
C356 C355 1.359 1_455 S
C356 H368 0.929 1_455 S
H357 C353 0.930 . S
H358 C347 0.930 . S
H359 C376 0.930 . S
H360 C348 0.930 . S
H361 C349 0.930 . S
H362 C343 0.929 . S
H363 C381 0.930 . S
H364 C372 0.930 . S
H365 C373 0.930 . S
H366 C397 0.929 . S
H367 C355 0.930 . S
H368 C356 0.929 1_655 S
H369 C398 0.930 . S
H370 C379 0.930 . S
N371 Gd340 2.661 . S
N371 C375 1.350 . S
N371 C376 1.307 . S
C372 H364 0.930 . S
C372 C373 1.355 . S
C372 C374 1.412 . S
C373 H365 0.930 . S
C373 C372 1.355 . S
C373 C376 1.402 . S
C374 C372 1.412 . S
C374 C375 1.417 . S
C374 C398 1.431 . S
C375 N371 1.350 . S
C375 C374 1.417 . S
C375 C378 1.426 . S
C376 H359 0.930 . S
C376 N371 1.307 . S
C376 C373 1.402 . S
N377 Gd340 2.607 . S
N377 C378 1.371 . S
N377 C381 1.318 1_656 S
C378 C375 1.426 . S
C378 N377 1.371 . S
C378 C382 1.413 . S
C379 H370 0.930 . S
C379 C380 1.359 . S
C379 C381 1.394 . S
C380 C379 1.359 . S
C380 C382 1.391 1_454 S
C380 H383 0.929 . S
C381 H363 0.930 . S
C381 N377 1.318 1_454 S
C381 C379 1.394 . S
C382 C378 1.413 . S
C382 C380 1.391 1_656 S
C382 C397 1.437 . S
H383 C380 0.929 . S
O384 Gd340 2.545 1_554 S
O384 C399 1.258 . S
O385 Gd340 2.606 1_455 S
O385 Gd341 2.362 . S
O385 C396 1.284 1_455 S
O386 Gd341 2.324 . S
O386 C406 1.254 . S
O387 Gd340 2.429 1_455 S
O387 C406 1.268 . S
O388 Gd340 2.545 . S
O388 C396 1.250 . S
O389 Gd340 2.412 . S
O389 C399 1.252 1_556 S
O390 Gd341 2.545 . S
O390 C408 1.258 . S
O391 Gd340 2.362 1_455 S
O391 Gd341 2.606 . S
O391 C407 1.284 . S
O392 Gd340 2.324 . S
O392 C415 1.254 . S
O393 Gd341 2.429 1_655 S
O393 C415 1.268 . S
O394 Gd341 2.545 . S
O394 C407 1.250 . S
O395 Gd341 2.412 . S
O395 C408 1.252 . S
C396 O385 1.284 1_655 S
C396 O388 1.250 . S
C397 H366 0.929 . S
C397 C382 1.437 . S
C397 C398 1.317 . S
C398 H369 0.930 . S
C398 C374 1.431 . S
C398 C397 1.317 . S
C399 Gd340 2.828 1_554 S
C399 O384 1.258 . S
C399 O389 1.252 1_554 S
C399 C400 1.497 . S
C400 C399 1.497 . S
C400 C401 1.395 . S
C400 C402 1.380 . S
C401 C400 1.395 . S
C401 C404 1.398 . S
C401 H416 0.930 . S
C402 C400 1.380 . S
C402 C403 1.391 . S
C402 H417 0.930 . S
C403 C402 1.391 . S
C403 C405 1.387 . S
C404 C401 1.398 . S
C404 C405 1.380 . S
C404 H418 0.930 . S
C405 C403 1.387 . S
C405 C404 1.380 . S
C405 H419 0.930 . S
C406 O386 1.254 . S
C406 O387 1.268 . S
C407 O391 1.284 . S
C407 O394 1.250 . S
C408 Gd341 2.828 . S
C408 O390 1.258 . S
C408 O395 1.252 . S
C408 C409 1.497 . S
C409 C408 1.497 . S
C409 C410 1.395 . S
C409 C411 1.380 . S
C410 C409 1.395 . S
C410 C413 1.398 . S
C410 H420 0.930 . S
C411 C409 1.380 . S
C411 C412 1.391 . S
C411 H421 0.930 . S
C412 C411 1.391 . S
C412 C414 1.387 . S
C413 C410 1.398 . S
C413 C414 1.380 . S
C413 H422 0.930 . S
C414 C412 1.387 . S
C414 C413 1.380 . S
C414 H423 0.930 . S
C415 O392 1.254 . S
C415 O393 1.268 . S
H416 C401 0.930 . S
H417 C402 0.930 . S
H418 C404 0.930 . S
H419 C405 0.930 . S
H420 C410 0.930 . S
H421 C411 0.930 . S
H422 C413 0.930 . S
H423 C414 0.930 . S
C424 C425 1.387 . S
C424 H428 0.950 . S
C424 C433 1.390 . S
C425 C424 1.387 . S
C425 C427 1.387 . S
H426 C433 0.950 . S
C427 C425 1.387 . S
C427 C429 1.390 . S
C427 H431 0.950 1_545 S
H428 C424 0.950 . S
C429 C427 1.390 . S
C429 C430 1.387 . S
C429 H432 0.950 1_545 S
C430 C429 1.387 . S
C430 C433 1.387 . S
H431 C427 0.950 1_565 S
H432 C429 0.950 1_565 S
C433 C424 1.390 . S
C433 H426 0.950 . S
C433 C430 1.387 . S
C434 C435 1.387 . S
C434 H438 0.950 . S
C434 C443 1.390 . S
C435 C434 1.387 . S
C435 C437 1.387 . S
H436 C443 0.950 . S
C437 C435 1.387 . S
C437 C439 1.390 . S
C437 H441 0.950 . S
H438 C434 0.950 . S
C439 C437 1.390 . S
C439 C440 1.387 . S
C439 H442 0.950 . S
C440 C439 1.387 . S
C440 C443 1.387 . S
H441 C437 0.950 . S
H442 C439 0.950 . S
C443 C434 1.390 . S
C443 H436 0.950 . S
C443 C440 1.387 . S
C444 C445 1.387 . S
C444 H448 0.950 . S
C444 C453 1.390 . S
C445 C444 1.387 . S
C445 C447 1.387 . S
H446 C453 0.950 . S
C447 C445 1.387 . S
C447 C449 1.390 . S
C447 H451 0.950 . S
H448 C444 0.950 . S
C449 C447 1.390 . S
C449 C450 1.387 . S
C449 H452 0.950 . S
C450 C449 1.387 . S
C450 C453 1.387 . S
H451 C447 0.950 . S
H452 C449 0.950 . S
C453 C444 1.390 . S
C453 H446 0.950 . S
C453 C450 1.387 . S
C454 C455 1.387 . S
C454 H458 0.950 . S
C454 C463 1.390 . S
C455 C454 1.387 . S
C455 C457 1.387 . S
H456 C463 0.950 . S
C457 C455 1.387 . S
C457 C459 1.390 . S
C457 H461 0.950 . S
H458 C454 0.950 . S
C459 C457 1.390 . S
C459 C460 1.387 . S
C459 H462 0.950 . S
C460 C459 1.387 . S
C460 C463 1.387 . S
H461 C457 0.950 . S
H462 C459 0.950 . S
C463 C454 1.390 . S
C463 H456 0.950 . S
C463 C460 1.387 . S
C464 C465 1.387 . S
C464 H468 0.950 . S
C464 C473 1.390 . S
C465 C464 1.387 . S
C465 C467 1.387 1_565 S
H466 C473 0.950 1_556 S
C467 C465 1.387 1_545 S
C467 C469 1.390 . S
C467 H471 0.950 . S
H468 C464 0.950 . S
C469 C467 1.390 . S
C469 C470 1.390 1_545 S
C469 H472 0.950 . S
C470 C469 1.390 1_565 S
C470 C473 1.389 . S
H471 C467 0.950 . S
H472 C469 0.950 . S
C473 C464 1.390 . S
C473 H466 0.950 1_554 S
C473 C470 1.389 . S
C474 C475 1.387 . S
C474 H478 0.950 . S
C474 C483 1.390 . S
C475 C474 1.387 . S
C475 C477 1.387 . S
H476 C483 0.950 . S
C477 C475 1.387 . S
C477 C479 1.390 . S
C477 H481 0.950 . S
H478 C474 0.950 . S
C479 C477 1.390 . S
C479 C480 1.387 1_554 S
C479 H482 0.950 1_554 S
C480 C479 1.387 1_556 S
C480 C483 1.387 1_556 S
H481 C477 0.950 . S
H482 C479 0.950 1_556 S
C483 C474 1.390 . S
C483 H476 0.950 . S
C483 C480 1.387 1_554 S
C484 C485 1.387 . S
C484 H488 0.950 . S
C484 C493 1.390 . S
C485 C484 1.387 . S
C485 C487 1.387 . S
H486 C493 0.950 . S
C487 C485 1.387 . S
C487 C489 1.390 . S
C487 H491 0.950 . S
H488 C484 0.950 . S
C489 C487 1.390 . S
C489 C490 1.387 1_554 S
C489 H492 0.950 1_554 S
C490 C489 1.387 1_556 S
C490 C493 1.387 1_556 S
H491 C487 0.950 . S
H492 C489 0.950 1_556 S
C493 C484 1.390 . S
C493 H486 0.950 . S
C493 C490 1.387 1_554 S
C494 C495 1.387 . S
C494 H498 0.950 . S
C494 C503 1.390 . S
C495 C494 1.387 . S
C495 C497 1.387 . S
H496 C503 0.950 . S
C497 C495 1.387 . S
C497 C499 1.390 . S
C497 H501 0.950 . S
H498 C494 0.950 . S
C499 C497 1.390 . S
C499 C500 1.387 1_554 S
C499 H502 0.950 1_654 S
C500 C499 1.387 1_556 S
C500 C503 1.387 1_556 S
H501 C497 0.950 . S
H502 C499 0.950 1_456 S
C503 C494 1.390 . S
C503 H496 0.950 . S
C503 C500 1.387 1_554 S
C504 C505 1.387 . S
C504 H508 0.950 . S
C504 C513 1.390 1_455 S
C505 C504 1.387 . S
C505 C507 1.387 . S
H506 C513 0.950 . S
C507 C505 1.387 . S
C507 C509 1.390 . S
C507 H511 0.950 . S
H508 C504 0.950 . S
C509 C507 1.390 . S
C509 C510 1.372 1_455 S
C509 H512 0.950 . S
C510 C509 1.372 1_655 S
C510 C513 1.390 . S
H511 C507 0.950 . S
H512 C509 0.950 . S
C513 C504 1.390 1_655 S
C513 H506 0.950 . S
C513 C510 1.390 . S
C514 C515 1.387 . S
C514 H518 0.950 . S
C514 C523 1.390 . S
C515 C514 1.387 . S
C515 C517 1.387 . S
H516 C523 0.950 . S
C517 C515 1.387 . S
C517 C519 1.390 . S
C517 H521 0.950 1_554 S
H518 C514 0.950 . S
C519 C517 1.390 . S
C519 C520 1.383 1_545 S
C519 H522 0.950 1_545 S
C520 C519 1.383 1_565 S
C520 C523 1.376 1_565 S
H521 C517 0.950 1_556 S
H522 C519 0.950 1_565 S
C523 C514 1.390 . S
C523 H516 0.950 . S
C523 C520 1.376 1_545 S
C524 C525 1.387 . S
C524 H528 0.950 . S
C524 C533 1.390 . S
C525 C524 1.387 . S
C525 C527 1.387 . S
H526 C533 0.950 . S
C527 C525 1.387 . S
C527 C529 1.390 . S
C527 H531 0.950 1_554 S
H528 C524 0.950 . S
C529 C527 1.390 . S
C529 C530 1.387 . S
C529 H532 0.950 . S
C530 C529 1.387 . S
C530 C533 1.387 . S
H531 C527 0.950 1_556 S
H532 C529 0.950 . S
C533 C524 1.390 . S
C533 H526 0.950 . S
C533 C530 1.387 . S
C534 C535 1.387 . S
C534 H538 0.950 . S
C534 C543 1.390 . S
C535 C534 1.387 . S
C535 C537 1.387 . S
H536 C543 0.950 . S
C537 C535 1.387 . S
C537 C539 1.390 . S
C537 H541 0.950 . S
H538 C534 0.950 . S
C539 C537 1.390 . S
C539 C540 1.387 . S
C539 H542 0.950 . S
C540 C539 1.387 . S
C540 C543 1.387 . S
H541 C537 0.950 . S
H542 C539 0.950 . S
C543 C534 1.390 . S
C543 H536 0.950 . S
C543 C540 1.387 . S
C544 C545 1.387 . S
C544 H548 0.950 . S
C544 C553 1.387 1_655 S
C545 C544 1.387 . S
C545 C547 1.387 . S
H546 C553 0.951 . S
C547 C545 1.387 . S
C547 C549 1.390 1_655 S
C547 H551 0.950 . S
H548 C544 0.950 . S
C549 C547 1.390 1_455 S
C549 C550 1.387 . S
C549 H552 0.950 . S
C550 C549 1.387 . S
C550 C553 1.389 . S
H551 C547 0.950 . S
H552 C549 0.950 . S
C553 C544 1.387 1_455 S
C553 H546 0.951 . S
C553 C550 1.389 . S
C554 C555 1.387 . S
C554 H558 0.950 . S
C554 C563 1.390 1_565 S
C555 C554 1.387 . S
C555 C557 1.387 . S
H556 C563 0.950 . S
C557 C555 1.387 . S
C557 C559 1.390 1_565 S
C557 H561 0.950 . S
H558 C554 0.950 . S
C559 C557 1.390 1_545 S
C559 C560 1.387 . S
C559 H562 0.950 . S
C560 C559 1.387 . S
C560 C563 1.387 . S
H561 C557 0.950 . S
H562 C559 0.950 . S
C563 C554 1.390 1_545 S
C563 H556 0.950 . S
C563 C560 1.387 . S
C564 C565 1.387 . S
C564 H568 0.950 . S
C564 C573 1.390 . S
C565 C564 1.387 . S
C565 C567 1.387 . S
H566 C573 0.950 . S
C567 C565 1.387 . S
C567 C569 1.390 . S
C567 H571 0.950 . S
H568 C564 0.950 . S
C569 C567 1.390 . S
C569 C570 1.387 . S
C569 H572 0.950 . S
C570 C569 1.387 . S
C570 C573 1.387 . S
H571 C567 0.950 . S
H572 C569 0.950 . S
C573 C564 1.390 . S
C573 H566 0.950 . S
C573 C570 1.387 . S
C574 C575 1.387 . S
C574 H578 0.950 . S
C574 C583 1.390 . S
C575 C574 1.387 . S
C575 C577 1.387 . S
H576 C583 0.950 . S
C577 C575 1.387 . S
C577 C579 1.390 . S
C577 H581 0.950 . S
H578 C574 0.950 . S
C579 C577 1.390 . S
C579 C580 1.387 . S
C579 H582 0.950 . S
C580 C579 1.387 . S
C580 C583 1.387 . S
H581 C577 0.950 . S
H582 C579 0.950 . S
C583 C574 1.390 . S
C583 H576 0.950 . S
C583 C580 1.387 . S
C584 C585 1.387 . S
C584 H588 0.950 . S
C584 C593 1.390 . S
C585 C584 1.387 . S
C585 C587 1.387 . S
H586 C593 0.950 . S
C587 C585 1.387 . S
C587 C589 1.390 . S
C587 H591 0.950 . S
H588 C584 0.950 . S
C589 C587 1.390 . S
C589 C590 1.387 . S
C589 H592 0.950 . S
C590 C589 1.387 . S
C590 C593 1.387 . S
H591 C587 0.950 . S
H592 C589 0.950 . S
C593 C584 1.390 . S
C593 H586 0.950 . S
C593 C590 1.387 . S
C594 C595 1.387 . S
C594 H598 0.950 . S
C594 C603 1.390 . S
C595 C594 1.387 . S
C595 C597 1.387 . S
H596 C603 0.950 . S
C597 C595 1.387 . S
C597 C599 1.390 . S
C597 H601 0.950 . S
H598 C594 0.950 . S
C599 C597 1.390 . S
C599 C600 1.387 . S
C599 H602 0.950 . S
C600 C599 1.387 . S
C600 C603 1.387 . S
H601 C597 0.950 . S
H602 C599 0.950 . S
C603 C594 1.390 . S
C603 H596 0.950 . S
C603 C600 1.387 . S
C604 C605 1.387 . S
C604 H608 0.949 1_556 S
C604 C613 1.390 . S
C605 C604 1.387 . S
C605 C607 1.387 . S
H606 C613 0.950 . S
C607 C605 1.387 . S
C607 C609 1.390 . S
C607 H611 0.950 . S
H608 C604 0.949 1_554 S
C609 C607 1.390 . S
C609 C610 1.387 . S
C609 H612 0.950 . S
C610 C609 1.387 . S
C610 C613 1.387 . S
H611 C607 0.950 . S
H612 C609 0.950 . S
C613 C604 1.390 . S
C613 H606 0.950 . S
C613 C610 1.387 . S
C614 C615 1.387 . S
C614 H618 0.950 . S
C614 C623 1.390 . S
C615 C614 1.387 . S
C615 C617 1.387 . S
H616 C623 0.950 . S
C617 C615 1.387 . S
C617 C619 1.390 . S
C617 H621 0.950 1_556 S
H618 C614 0.950 . S
C619 C617 1.390 . S
C619 C620 1.387 . S
C619 H622 0.949 1_556 S
C620 C619 1.387 . S
C620 C623 1.387 . S
H621 C617 0.950 1_554 S
H622 C619 0.949 1_554 S
C623 C614 1.390 . S
C623 H616 0.950 . S
C623 C620 1.387 . S
C624 C625 1.387 . S
C624 H628 0.950 . S
C624 C633 1.390 . S
C625 C624 1.387 . S
C625 C627 1.387 . S
H626 C633 0.950 . S
C627 C625 1.387 . S
C627 C629 1.390 . S
C627 H631 0.950 . S
H628 C624 0.950 . S
C629 C627 1.390 . S
C629 C630 1.387 . S
C629 H632 0.950 . S
C630 C629 1.387 . S
C630 C633 1.387 . S
H631 C627 0.950 . S
H632 C629 0.950 . S
C633 C624 1.390 . S
C633 H626 0.950 . S
C633 C630 1.387 . S
C634 C635 1.387 . S
C634 H638 0.950 . S
C634 C643 1.390 . S
C635 C634 1.387 . S
C635 C637 1.387 . S
H636 C643 0.950 . S
C637 C635 1.387 . S
C637 C639 1.390 . S
C637 H641 0.950 . S
H638 C634 0.950 . S
C639 C637 1.390 . S
C639 C640 1.387 . S
C639 H642 0.950 . S
C640 C639 1.387 . S
C640 C643 1.387 . S
H641 C637 0.950 . S
H642 C639 0.950 . S
C643 C634 1.390 . S
C643 H636 0.950 . S
C643 C640 1.387 . S
C644 C645 1.387 . S
C644 H648 0.950 . S
C644 C653 1.390 . S
C645 C644 1.387 . S
C645 C647 1.387 . S
H646 C653 0.950 . S
C647 C645 1.387 . S
C647 C649 1.390 . S
C647 H651 0.950 . S
H648 C644 0.950 . S
C649 C647 1.390 . S
C649 C650 1.387 . S
C649 H652 0.950 . S
C650 C649 1.387 . S
C650 C653 1.387 . S
H651 C647 0.950 . S
H652 C649 0.950 . S
C653 C644 1.390 . S
C653 H646 0.950 . S
C653 C650 1.387 . S
C654 C655 1.387 . S
C654 H658 0.950 . S
C654 C663 1.390 . S
C655 C654 1.387 . S
C655 C657 1.387 . S
H656 C663 0.950 . S
C657 C655 1.387 . S
C657 C659 1.390 . S
C657 H661 0.950 . S
H658 C654 0.950 . S
C659 C657 1.390 . S
C659 C660 1.387 . S
C659 H662 0.950 . S
C660 C659 1.387 . S
C660 C663 1.387 . S
H661 C657 0.950 . S
H662 C659 0.950 . S
C663 C654 1.390 . S
C663 H656 0.950 . S
C663 C660 1.387 . S
C425 C76 1.957 . S
C430 C163 2.092 . S
C440 C247 2.102 . S
C435 C87 1.965 . S
C450 C323 2.003 . S
C445 C54 2.037 . S
C460 C407 1.992 . S
C455 C65 2.027 . S
C470 C154 2.091 1_564 S
C465 C32 1.968 . S
C475 C43 1.975 . S
C480 C238 2.103 . S
C485 C10 2.042 . S
C490 C312 1.999 . S
C495 C21 2.037 . S
C500 C396 1.994 . S
C510 C151 0.964 . S
C505 C60 0.896 . S
C520 C235 0.933 . S
C515 C71 0.874 . S
C530 C328 0.890 . S
C525 C82 0.851 . S
C535 C49 0.870 . S
C540 C412 0.923 . S
C545 C16 0.892 . S
C550 C160 0.948 . S
C560 C244 0.916 . S
C555 C27 0.863 . S
C570 C319 0.890 . S
C565 C38 0.847 . S
C575 C5 0.862 . S
C580 C403 0.921 . S
C585 C59 2.101 . S
C590 C144 2.205 . S
C595 C70 2.082 . S
C600 C228 2.187 . S
C610 C322 2.288 . S
C605 C81 2.006 . S
C620 C406 2.307 . S
C615 C48 2.025 . S
C625 C15 2.094 . S
C630 C155 2.208 . S
C640 C239 2.190 . S
C635 C26 2.076 . S
C650 C331 2.289 . S
C645 C37 1.998 . S
C655 C4 2.016 . S
C660 C415 2.307 . S
