# Generated by pormake.
# Topology pth, (4,4)-cn, num edge types: 1
# Building blocks:
#     Node 0, Type 0, BuildingBlock: AZAVOO_clean_sbu_0, # of connection points: 4
#     Node 1, Type 0, BuildingBlock: AZAVOO_clean_sbu_0, # of connection points: 4
#     Node 2, Type 0, BuildingBlock: AZAVOO_clean_sbu_0, # of connection points: 4
#     Node 3, Type 1, BuildingBlock: NAWXER_clean_linker_0, # of connection points: 4
#     Node 4, Type 1, BuildingBlock: NAWXER_clean_linker_0, # of connection points: 4
#     Node 5, Type 1, BuildingBlock: NAWXER_clean_linker_0, # of connection points: 4
#     Edge 6, Type (0, 1), BuildingBlock: OJICUG_clean_linker_0, # of connection points: 2
#     Edge 7, Type (0, 1), BuildingBlock: OJICUG_clean_linker_0, # of connection points: 2
#     Edge 8, Type (0, 1), BuildingBlock: OJICUG_clean_linker_0, # of connection points: 2
#     Edge 9, Type (0, 1), BuildingBlock: OJICUG_clean_linker_0, # of connection points: 2
#     Edge 10, Type (0, 1), BuildingBlock: OJICUG_clean_linker_0, # of connection points: 2
#     Edge 11, Type (0, 1), BuildingBlock: OJICUG_clean_linker_0, # of connection points: 2
#     Edge 12, Type (0, 1), BuildingBlock: OJICUG_clean_linker_0, # of connection points: 2
#     Edge 13, Type (0, 1), BuildingBlock: OJICUG_clean_linker_0, # of connection points: 2
#     Edge 14, Type (0, 1), BuildingBlock: OJICUG_clean_linker_0, # of connection points: 2
#     Edge 15, Type (0, 1), BuildingBlock: OJICUG_clean_linker_0, # of connection points: 2
#     Edge 16, Type (0, 1), BuildingBlock: OJICUG_clean_linker_0, # of connection points: 2
#     Edge 17, Type (0, 1), BuildingBlock: OJICUG_clean_linker_0, # of connection points: 2
# Relax obj value: 0.065
# Max RMSD: 0.213
# Mean RMSD: 0.105
data_MOF--net-pth--node1-AZAVOO_clean_sbu_0--node2-NAWXER_clean_linker_0--edge1-OJICUG_clean_linker_0
_symmetry_space_group_name_H-M    P1
_symmetry_Int_Tables_number       1
_symmetry_cell_setting            triclinic
loop_
_symmetry_equiv_pos_as_xyz
'x, y, z'
_cell_length_a     22.390059
_cell_length_b     22.877972
_cell_length_c     50.484673
_cell_angle_alpha  91.382887
_cell_angle_beta   93.08101
_cell_angle_gamma 122.0883
loop_
_atom_site_label
_atom_site_type_symbol
_atom_site_fract_x
_atom_site_fract_y
_atom_site_fract_z
_atom_type_partial_charge
Mg0 Mg 0.11783 0.06466 0.02966 0.0
O1 O 0.02245 0.98878 0.00104 0.0
O2 O 0.00571 0.04992 0.97104 0.0
Mg3 Mg 0.09027 0.16441 0.98016 0.0
C4 C 0.9888 0.99228 0.98054 0.0
C5 C 0.0712 0.92052 0.05064 0.0
O6 O 0.07235 0.90741 0.02526 0.0
O7 O 0.05361 0.10065 0.04986 0.0
O8 O 0.04532 0.16678 0.01987 0.0
O9 O 0.19221 0.0589 0.00326 0.0
O10 O 0.15788 0.13319 0.0 0.0
C11 C 0.03457 0.14194 0.04278 0.0
C12 C 0.19244 0.10786 0.99083 0.0
O13 O 0.0877 0.9807 0.05869 0.0
Mg14 Mg 0.92061 0.98639 0.34903 0.0
O15 O 0.01601 0.01247 0.37775 0.0
O16 O 0.04317 0.10592 0.40334 0.0
Mg17 Mg 0.96078 0.13391 0.39393 0.0
C18 C 0.05488 0.05931 0.39603 0.0
C19 C 0.95675 0.87647 0.33035 0.0
O20 O 0.96013 0.86954 0.35605 0.0
O21 O 0.98868 0.08119 0.32574 0.0
O22 O 0.00268 0.1667 0.35309 0.0
O23 O 0.84338 0.91608 0.37764 0.0
O24 O 0.8877 0.02828 0.37702 0.0
C25 C 0.01107 0.14485 0.33092 0.0
C26 C 0.84865 0.97122 0.38789 0.0
O27 O 0.94175 0.91934 0.3218 0.0
Mg28 Mg 0.97125 0.99141 0.68312 0.0
O29 O 0.0535 0.08213 0.71143 0.0
O30 O -0.0042 0.10932 0.7389 0.0
Mg31 Mg 0.87709 0.03365 0.72917 0.0
C32 C 0.0532 0.11899 0.73074 0.0
C33 C 0.11616 0.02476 0.66272 0.0
O34 O 0.13227 0.02568 0.6882 0.0
O35 O 0.94426 0.05972 0.66042 0.0
O36 O 0.87989 0.0768 0.6882 0.0
O37 O 0.96897 0.91708 0.71141 0.0
O38 O 0.89917 0.95811 0.71188 0.0
C39 C 0.90595 0.08372 0.66573 0.0
C40 C 0.91999 0.92067 0.72247 0.0
O41 O 0.05522 0.01196 0.65498 0.0
C42 C 0.99114 0.30162 0.23148 0.0
C43 C 0.05179 0.3282 0.24923 0.0
C44 C 0.98171 0.3454 0.21543 0.0
C45 C 0.03292 0.41644 0.21672 0.0
C46 C 0.104 0.39908 0.24977 0.0
C47 C 0.09432 0.44284 0.23383 0.0
C48 C 0.02117 0.46431 0.20162 0.0
C49 C 0.04676 0.33265 0.14107 0.0
C50 C 0.98953 0.29653 0.12174 0.0
C51 C 0.05148 0.38386 0.1583 0.0
C52 C -0.00163 0.39907 0.15688 0.0
C53 C 0.93637 0.31171 0.12039 0.0
C54 C 0.94087 0.3626 0.13777 0.0
C55 C 0.00436 0.45581 0.17389 0.0
C56 C 0.05968 0.7323 0.14844 0.0
C57 C 0.01275 0.71289 0.12564 0.0
C58 C 0.05442 0.68257 0.1653 0.0
C59 C 0.0015 0.6125 0.1599 0.0
C60 C 0.95888 0.64298 0.12058 0.0
C61 C 0.95353 0.59325 0.13749 0.0
C62 C 0.00144 0.5586 0.17553 0.0
C63 C 0.95014 0.67366 0.23367 0.0
C64 C -0.00186 0.70606 0.25617 0.0
C65 C 0.95581 0.62873 0.21627 0.0
C66 C 0.01024 0.61592 0.22077 0.0
C67 C 0.05252 0.69312 0.26069 0.0
C68 C 0.05831 0.64832 0.24321 0.0
C69 C 0.0136 0.5645 0.20351 0.0
H70 H 0.9492 0.2476 0.23094 0.0
H71 H 0.93332 0.32417 0.2027 0.0
H72 H 0.15157 0.42106 0.26302 0.0
H73 H 0.13447 0.49758 0.23506 0.0
H74 H 0.08943 0.3233 0.14216 0.0
H75 H 0.09768 0.41285 0.17219 0.0
H76 H 0.89167 0.28469 0.10572 0.0
H77 H 0.89957 0.37387 0.13617 0.0
H78 H 0.10255 0.78554 0.15261 0.0
H79 H 0.09371 0.69867 0.18188 0.0
H80 H 0.92156 0.62656 0.10329 0.0
H81 H 0.91267 0.53946 0.13279 0.0
H82 H 0.90679 0.68138 0.22992 0.0
H83 H 0.91634 0.60254 0.19972 0.0
H84 H 0.09065 0.71767 0.27773 0.0
H85 H 0.10034 0.6388 0.24727 0.0
N86 N 0.02434 0.5178 0.21538 0.0
N87 N -0.00406 0.50376 0.16192 0.0
C88 C 0.70781 0.07663 0.46916 0.0
C89 C 0.68243 0.00733 0.46102 0.0
C90 C 0.66639 0.09347 0.48324 0.0
C91 C 0.5983 0.04164 0.48898 0.0
C92 C 0.61412 0.95558 0.4672 0.0
C93 C 0.57215 0.97277 0.4807 0.0
C94 C 0.55435 0.05846 0.50405 0.0
C95 C 0.71125 0.05804 0.56456 0.0
C96 C 0.75043 0.11903 0.58111 0.0
C97 C 0.65435 0.04678 0.54757 0.0
C98 C 0.63637 0.09688 0.54641 0.0
C99 C 0.73335 0.16976 0.5795 0.0
C100 C 0.67675 0.15868 0.56233 0.0
C101 C 0.57153 0.08277 0.53099 0.0
C102 C 0.29208 0.01789 0.56396 0.0
C103 C 0.3149 0.06698 0.58548 0.0
C104 C 0.3397 0.02265 0.54609 0.0
C105 C 0.41087 0.07734 0.54908 0.0
C106 C 0.38602 0.12181 0.58842 0.0
C107 C 0.43357 0.12683 0.57042 0.0
C108 C 0.46312 0.0788 0.53188 0.0
C109 C 0.3182 0.10711 0.47775 0.0
C110 C 0.28292 0.05898 0.45585 0.0
C111 C 0.37232 0.10827 0.49326 0.0
C112 C 0.39091 0.05957 0.48802 0.0
C113 C 0.30288 0.01136 0.45019 0.0
C114 C 0.35615 0.01162 0.46613 0.0
C115 C 0.44954 0.06153 0.50417 0.0
H116 H 0.75914 0.11837 0.46424 0.0
H117 H 0.68712 0.14701 0.48938 0.0
H118 H 0.59293 0.90163 0.46178 0.0
H119 H 0.51974 0.93207 0.48522 0.0
H120 H 0.72199 0.01723 0.56584 0.0
H121 H 0.62249 -0.00249 0.53637 0.0
H122 H 0.76262 0.2172 0.59201 0.0
H123 H 0.66341 0.19778 0.56193 0.0
H124 H 0.23791 0.97433 0.56147 0.0
H125 H 0.32122 0.98224 0.53045 0.0
H126 H 0.40496 0.16062 0.60473 0.0
H127 H 0.48836 0.16902 0.57333 0.0
H128 H 0.30406 0.14408 0.4831 0.0
H129 H 0.39998 0.14796 0.50922 0.0
H130 H 0.27818 0.97443 0.43322 0.0
H131 H 0.37027 0.97431 0.46127 0.0
N132 N 0.49482 0.05005 0.49147 0.0
N133 N 0.52458 0.09073 0.54397 0.0
C134 C 0.35444 0.28896 0.80544 0.0
C135 C 0.31459 0.31281 0.7927 0.0
C136 C 0.41608 0.33453 0.8215 0.0
C137 C 0.4389 0.40465 0.82494 0.0
C138 C 0.33798 0.3831 0.79605 0.0
C139 C 0.39981 0.42861 0.81185 0.0
C140 C 0.50407 0.45439 0.84153 0.0
C141 C 0.3529 0.32364 0.90251 0.0
C142 C 0.368 0.27434 0.91111 0.0
C143 C 0.40027 0.3783 0.88801 0.0
C144 C 0.46408 0.38544 0.88213 0.0
C145 C 0.43146 0.28086 0.90439 0.0
C146 C 0.47948 0.33649 0.89029 0.0
C147 C 0.51579 0.44586 0.86849 0.0
C148 C 0.71596 0.73813 0.90655 0.0
C149 C 0.76951 0.73868 0.92266 0.0
C150 C 0.66685 0.67942 0.89066 0.0
C151 C 0.6697 0.61963 0.89058 0.0
C152 C 0.77073 0.67774 0.92325 0.0
C153 C 0.72076 0.61845 0.90747 0.0
C154 C 0.61902 0.55923 0.8726 0.0
C155 C 0.78207 0.70916 0.82078 0.0
C156 C 0.75703 0.73562 0.80134 0.0
C157 C 0.73474 0.6547 0.83547 0.0
C158 C 0.66158 0.62624 0.83115 0.0
C159 C 0.68382 0.7073 0.79724 0.0
C160 C 0.63664 0.6531 0.81195 0.0
C161 C 0.61046 0.56541 0.84511 0.0
H162 H 0.33743 0.23495 0.80325 0.0
H163 H 0.44616 0.31516 0.831 0.0
H164 H 0.30878 0.40303 0.78624 0.0
H165 H 0.41676 0.48263 0.81409 0.0
H166 H 0.30572 0.32177 0.90777 0.0
H167 H 0.38803 0.4162 0.88201 0.0
H168 H 0.44453 0.24352 0.91026 0.0
H169 H 0.52866 0.34141 0.88577 0.0
H170 H 0.71196 0.78324 0.90613 0.0
H171 H 0.62666 0.68081 0.87824 0.0
H172 H 0.81141 0.67636 0.93529 0.0
H173 H 0.72337 0.57253 0.90782 0.0
H174 H 0.83815 0.72996 0.82442 0.0
H175 H 0.75529 0.63368 0.84965 0.0
H176 H 0.66263 0.72549 0.78204 0.0
H177 H 0.58045 0.63159 0.8081 0.0
N178 N 0.55244 0.51346 0.83077 0.0
N179 N 0.5721 0.49908 0.88327 0.0
C180 C 0.01812 0.16237 0.0901 0.0
C181 C 0.00918 0.17025 0.06289 0.0
H182 H 0.01859 0.19609 0.13013 0.0
C183 C 0.98493 0.2134 0.0554 0.0
H184 H 0.03655 0.12944 0.09661 0.0
C185 C 0.97472 0.25152 0.07462 0.0
C186 C 0.98884 0.24755 0.10175 0.0
H187 H 0.97713 0.22041 0.03463 0.0
H188 H 0.95982 0.28717 0.06816 0.0
C189 C 0.00841 0.20094 0.10933 0.0
C190 C 0.73432 0.92523 0.40788 0.0
C191 C 0.80799 0.96967 0.40999 0.0
H192 H 0.63652 0.90373 0.42154 0.0
C193 C 0.84077 0.02109 0.43075 0.0
H194 H 0.70802 0.88591 0.39169 0.0
C195 C 0.80019 0.0304 0.44841 0.0
C196 C 0.7258 0.98992 0.44507 0.0
H197 H 0.89775 0.05566 0.43278 0.0
H198 H 0.82733 0.07099 0.46409 0.0
C199 C 0.69346 0.93569 0.42507 0.0
C200 C 0.83405 0.88637 0.75728 0.0
C201 C 0.88613 0.88037 0.74549 0.0
H202 H 0.75388 0.84669 0.78475 0.0
C203 C 0.9006 0.83106 0.75431 0.0
H204 H 0.82165 0.92389 0.75107 0.0
C205 C 0.86079 0.78589 0.7734 0.0
C206 C 0.80605 0.78952 0.78411 0.0
H207 H 0.94041 0.82516 0.74559 0.0
H208 H 0.87054 0.74595 0.77874 0.0
C209 C 0.79471 0.84168 0.77647 0.0
C210 C 0.0555 0.88157 0.0971 0.0
C211 C 0.05273 0.86649 0.06973 0.0
H212 H 0.04401 0.84454 0.13621 0.0
C213 C 0.03344 0.79961 0.06083 0.0
H214 H 0.0698 0.9325 0.10461 0.0
C215 C 0.01875 0.74932 0.07895 0.0
C216 C 0.0231 0.76483 0.10637 0.0
H217 H 0.03067 0.78627 0.03988 0.0
H218 H 0.00602 0.69885 0.07152 0.0
C219 C 0.04096 0.83129 0.11523 0.0
C220 C 0.11241 -0.00286 0.41274 0.0
C221 C 0.11474 0.05917 0.40975 0.0
H222 H 0.16201 0.94781 0.43034 0.0
C223 C 0.17383 0.12122 0.42091 0.0
H224 H 0.06723 0.94846 0.40446 0.0
C225 C 0.22909 0.12127 0.43509 0.0
C226 C 0.22592 0.059 0.4391 0.0
H227 H 0.1775 0.16996 0.4186 0.0
H228 H 0.27429 0.17042 0.44293 0.0
C229 C 0.16705 -0.00307 0.42748 0.0
C230 C 0.12408 0.21959 0.76403 0.0
C231 C 0.12119 0.17136 0.74537 0.0
H232 H 0.1874 0.30184 0.79363 0.0
C233 C 0.18304 0.17114 0.74196 0.0
H234 H 0.07749 0.22119 0.76718 0.0
C235 C 0.24585 0.21699 0.75732 0.0
C236 C 0.24836 0.26461 0.77614 0.0
H237 H 0.18269 0.13456 0.72785 0.0
H238 H 0.29255 0.21539 0.7544 0.0
C239 C 0.18706 0.26592 0.77915 0.0
C240 C 0.88837 0.09635 0.61729 0.0
C241 C 0.88067 0.10926 0.64389 0.0
H242 H 0.85324 0.08981 0.57638 0.0
C243 C 0.83877 0.13647 0.64914 0.0
H244 H 0.92055 0.07577 0.61248 0.0
C245 C 0.80034 0.14451 0.62842 0.0
C246 C 0.80286 0.12529 0.60205 0.0
H247 H 0.8321 0.14751 0.66937 0.0
H248 H 0.76475 0.16099 0.63328 0.0
C249 C 0.84949 0.10392 0.59658 0.0
C250 C 0.9048 0.86312 0.97754 0.0
C251 C 0.93086 0.92737 0.96641 0.0
H252 H 0.83268 0.75336 0.97279 0.0
C253 C 0.903 0.92888 0.941 0.0
H254 H 0.92503 0.86007 -0.0029 0.0
C255 C 0.85106 0.86779 0.92694 0.0
C256 C 0.82482 0.80343 0.93799 0.0
H257 H 0.92229 0.97724 0.93165 0.0
H258 H 0.83247 0.87109 0.90712 0.0
C259 C 0.85221 0.80186 0.96352 0.0
C260 C 0.96241 0.83941 0.28388 0.0
C261 C 0.96925 0.8342 0.31144 0.0
H262 H 0.96702 0.80378 0.24489 0.0
C263 C 0.98747 0.7878 0.3207 0.0
H264 H 0.94874 0.87485 0.27606 0.0
C265 C -0.00216 0.74696 0.30279 0.0
C266 C 0.99003 0.75148 0.27523 0.0
H267 H -0.00679 0.78253 0.3418 0.0
H268 H 0.01045 0.71072 0.31055 0.0
C269 C 0.97258 0.79845 0.266 0.0
C270 C 0.14804 0.03045 0.61569 0.0
C271 C 0.16784 0.03766 0.64306 0.0
H272 H 0.17923 0.03476 0.57609 0.0
C273 C 0.23712 0.05673 0.65135 0.0
H274 H 0.09514 0.01608 0.60862 0.0
C275 C 0.28532 0.06757 0.63265 0.0
C276 C 0.26506 0.05919 0.60531 0.0
H277 H 0.25406 0.06286 0.67228 0.0
H278 H 0.33795 0.08092 0.63961 0.0
C279 C 0.19607 0.04091 0.59703 0.0
C280 C 0.30469 0.15783 0.96886 0.0
C281 C 0.23329 0.13678 0.96767 0.0
H282 H 0.40407 0.21969 0.95241 0.0
C283 C 0.20423 0.15285 0.94591 0.0
H284 H 0.32815 0.14629 0.98565 0.0
C285 C 0.247 0.19318 0.92639 0.0
C286 C 0.3202 0.2201 0.92873 0.0
H287 H 0.14884 0.13597 0.94441 0.0
H288 H 0.22304 0.20548 0.91005 0.0
C289 C 0.34804 0.19979 0.94971 0.0
C290 C 0.06893 0.26467 0.31576 0.0
C291 C 0.03764 0.1936 0.30952 0.0
H292 H 0.09737 0.36262 0.30167 0.0
C293 C 0.02177 0.16915 0.28268 0.0
H294 H 0.08243 0.28533 0.33623 0.0
C295 C 0.03073 0.21386 0.2627 0.0
C296 C 0.05606 0.28377 0.26923 0.0
H297 H -0.0021 0.11472 0.27719 0.0
H298 H 0.0147 0.19304 0.24228 0.0
C299 C 0.07795 0.30921 0.29586 0.0
loop_
_geom_bond_atom_site_label_1
_geom_bond_atom_site_label_2
_geom_bond_distance
_geom_bond_site_symmetry_2
_ccdc_geom_bond_type
Mg0 O1 2.028 1_445 S
Mg0 O7 1.986 . S
Mg0 O9 2.114 . S
Mg0 O10 2.251 . S
Mg0 O13 2.010 1_545 S
O1 Mg0 2.028 1_665 S
O1 C4 1.225 1_554 S
O2 Mg3 2.028 1_655 S
O2 C4 1.264 1_545 S
Mg3 O2 2.028 1_455 S
Mg3 O8 2.032 1_556 S
Mg3 O10 2.079 1_556 S
C4 O1 1.225 1_556 S
C4 O2 1.264 1_565 S
C5 O6 1.264 . S
C5 O13 1.250 . S
O6 C5 1.264 . S
O7 Mg0 1.986 . S
O7 C11 1.246 . S
O8 Mg3 2.032 1_554 S
O8 C11 1.259 . S
O9 Mg0 2.114 . S
O9 C12 1.252 1_554 S
O10 Mg0 2.251 . S
O10 Mg3 2.079 1_554 S
O10 C12 1.273 1_554 S
C11 O7 1.246 . S
C11 O8 1.259 . S
C12 O9 1.252 1_556 S
C12 O10 1.273 1_556 S
O13 Mg0 2.010 1_565 S
O13 C5 1.250 . S
Mg14 O15 2.028 1_655 S
Mg14 O21 1.986 1_655 S
Mg14 O23 2.114 1_545 S
Mg14 O24 2.251 . S
Mg14 O27 2.010 1_545 S
O15 Mg14 2.028 1_455 S
O15 C18 1.250 . S
O16 Mg17 2.028 . S
O16 C18 1.248 . S
Mg17 O16 2.028 . S
Mg17 O22 2.032 . S
Mg17 O24 2.079 1_455 S
C18 O15 1.250 . S
C18 O16 1.248 . S
C19 O20 1.264 . S
C19 O27 1.249 . S
O20 C19 1.264 . S
O21 Mg14 1.986 1_455 S
O21 C25 1.246 . S
O22 Mg17 2.032 . S
O22 C25 1.259 . S
O23 Mg14 2.114 1_565 S
O23 C26 1.252 . S
O24 Mg14 2.251 . S
O24 Mg17 2.079 1_655 S
O24 C26 1.273 1_545 S
C25 O21 1.246 . S
C25 O22 1.259 . S
C26 O23 1.252 . S
C26 O24 1.273 1_565 S
O27 Mg14 2.010 1_565 S
O27 C19 1.249 . S
Mg28 O29 2.028 1_565 S
Mg28 O35 1.986 1_465 S
Mg28 O37 2.114 1_455 S
Mg28 O38 2.251 1_455 S
Mg28 O41 2.010 . S
O29 Mg28 2.028 1_545 S
O29 C32 1.250 . S
O30 Mg31 2.028 1_455 S
O30 C32 1.248 . S
Mg31 O30 2.028 1_655 S
Mg31 O36 2.032 . S
Mg31 O38 2.079 1_545 S
C32 O29 1.250 . S
C32 O30 1.248 . S
C33 O34 1.264 . S
C33 O41 1.249 . S
O34 C33 1.264 . S
O35 Mg28 1.986 1_645 S
O35 C39 1.246 . S
O36 Mg31 2.032 . S
O36 C39 1.259 . S
O37 Mg28 2.114 1_655 S
O37 C40 1.252 . S
O38 Mg28 2.251 1_655 S
O38 Mg31 2.079 1_565 S
O38 C40 1.273 . S
C39 O35 1.246 . S
C39 O36 1.259 . S
C40 O37 1.252 . S
C40 O38 1.273 . S
O41 Mg28 2.010 . S
O41 C33 1.249 . S
C42 C43 1.384 1_655 S
C42 C44 1.384 . S
C42 H70 0.931 . S
C43 C42 1.384 1_455 S
C43 C46 1.382 . S
C44 C42 1.384 . S
C44 C45 1.381 1_655 S
C44 H71 0.930 . S
C45 C44 1.381 1_455 S
C45 C47 1.381 . S
C45 C48 1.487 . S
C46 C43 1.382 . S
C46 C47 1.387 . S
C46 H72 0.930 . S
C47 C45 1.381 . S
C47 C46 1.387 . S
C47 H73 0.931 . S
C48 C45 1.487 . S
C48 C55 1.399 . S
C48 N86 1.343 . S
C49 C50 1.384 . S
C49 C51 1.384 . S
C49 H74 0.931 . S
C50 C49 1.384 . S
C50 C53 1.382 1_455 S
C51 C49 1.384 . S
C51 C52 1.381 . S
C51 H75 0.930 . S
C52 C51 1.381 . S
C52 C54 1.381 1_455 S
C52 C55 1.487 . S
C53 C50 1.382 1_655 S
C53 C54 1.387 . S
C53 H76 0.930 . S
C54 C52 1.381 1_655 S
C54 C53 1.387 . S
C54 H77 0.931 . S
C55 C48 1.399 . S
C55 C52 1.487 . S
C55 N87 1.343 . S
C56 C57 1.384 . S
C56 C58 1.384 . S
C56 H78 0.931 . S
C57 C56 1.384 . S
C57 C60 1.382 1_455 S
C58 C56 1.384 . S
C58 C59 1.381 . S
C58 H79 0.930 . S
C59 C58 1.381 . S
C59 C61 1.381 1_455 S
C59 C62 1.487 . S
C60 C57 1.382 1_655 S
C60 C61 1.387 . S
C60 H80 0.930 . S
C61 C59 1.381 1_655 S
C61 C60 1.387 . S
C61 H81 0.931 . S
C62 C59 1.487 . S
C62 C69 1.399 . S
C62 N87 1.343 . S
C63 C64 1.384 1_655 S
C63 C65 1.384 . S
C63 H82 0.931 . S
C64 C63 1.384 1_455 S
C64 C67 1.382 . S
C65 C63 1.384 . S
C65 C66 1.381 1_655 S
C65 H83 0.930 . S
C66 C65 1.381 1_455 S
C66 C68 1.381 . S
C66 C69 1.487 . S
C67 C64 1.382 . S
C67 C68 1.387 . S
C67 H84 0.930 . S
C68 C66 1.381 . S
C68 C67 1.387 . S
C68 H85 0.931 . S
C69 C62 1.399 . S
C69 C66 1.487 . S
C69 N86 1.343 . S
H70 C42 0.931 . S
H71 C44 0.930 . S
H72 C46 0.930 . S
H73 C47 0.931 . S
H74 C49 0.931 . S
H75 C51 0.930 . S
H76 C53 0.930 . S
H77 C54 0.931 . S
H78 C56 0.931 . S
H79 C58 0.930 . S
H80 C60 0.930 . S
H81 C61 0.931 . S
H82 C63 0.931 . S
H83 C65 0.930 . S
H84 C67 0.930 . S
H85 C68 0.931 . S
N86 C48 1.343 . S
N86 C69 1.343 . S
N87 C55 1.343 . S
N87 C62 1.343 . S
C88 C89 1.384 . S
C88 C90 1.384 . S
C88 H116 0.931 . S
C89 C88 1.384 . S
C89 C92 1.382 . S
C90 C88 1.384 . S
C90 C91 1.381 . S
C90 H117 0.930 . S
C91 C90 1.381 . S
C91 C93 1.381 . S
C91 C94 1.487 . S
C92 C89 1.382 . S
C92 C93 1.387 . S
C92 H118 0.930 1_545 S
C93 C91 1.381 . S
C93 C92 1.387 . S
C93 H119 0.931 1_545 S
C94 C91 1.487 . S
C94 C101 1.399 . S
C94 N132 1.343 . S
C95 C96 1.384 . S
C95 C97 1.384 . S
C95 H120 0.931 1_545 S
C96 C95 1.384 . S
C96 C99 1.382 . S
C97 C95 1.384 . S
C97 C98 1.381 . S
C97 H121 0.930 1_545 S
C98 C97 1.381 . S
C98 C100 1.381 . S
C98 C101 1.487 . S
C99 C96 1.382 . S
C99 C100 1.387 . S
C99 H122 0.930 . S
C100 C98 1.381 . S
C100 C99 1.387 . S
C100 H123 0.931 . S
C101 C94 1.399 . S
C101 C98 1.487 . S
C101 N133 1.343 . S
C102 C103 1.384 . S
C102 C104 1.384 . S
C102 H124 0.931 1_545 S
C103 C102 1.384 . S
C103 C106 1.382 . S
C104 C102 1.384 . S
C104 C105 1.381 . S
C104 H125 0.930 1_545 S
C105 C104 1.381 . S
C105 C107 1.381 . S
C105 C108 1.487 . S
C106 C103 1.382 . S
C106 C107 1.387 . S
C106 H126 0.930 . S
C107 C105 1.381 . S
C107 C106 1.387 . S
C107 H127 0.931 . S
C108 C105 1.487 . S
C108 C115 1.399 . S
C108 N133 1.343 . S
C109 C110 1.384 . S
C109 C111 1.384 . S
C109 H128 0.931 . S
C110 C109 1.384 . S
C110 C113 1.382 . S
C111 C109 1.384 . S
C111 C112 1.381 . S
C111 H129 0.930 . S
C112 C111 1.381 . S
C112 C114 1.381 . S
C112 C115 1.487 . S
C113 C110 1.382 . S
C113 C114 1.387 . S
C113 H130 0.930 1_545 S
C114 C112 1.381 . S
C114 C113 1.387 . S
C114 H131 0.931 1_545 S
C115 C108 1.399 . S
C115 C112 1.487 . S
C115 N132 1.343 . S
H116 C88 0.931 . S
H117 C90 0.930 . S
H118 C92 0.930 1_565 S
H119 C93 0.931 1_565 S
H120 C95 0.931 1_565 S
H121 C97 0.930 1_565 S
H122 C99 0.930 . S
H123 C100 0.931 . S
H124 C102 0.931 1_565 S
H125 C104 0.930 1_565 S
H126 C106 0.930 . S
H127 C107 0.931 . S
H128 C109 0.931 . S
H129 C111 0.930 . S
H130 C113 0.930 1_565 S
H131 C114 0.931 1_565 S
N132 C94 1.343 . S
N132 C115 1.343 . S
N133 C101 1.343 . S
N133 C108 1.343 . S
C134 C135 1.384 . S
C134 C136 1.384 . S
C134 H162 0.931 . S
C135 C134 1.384 . S
C135 C138 1.382 . S
C136 C134 1.384 . S
C136 C137 1.381 . S
C136 H163 0.930 . S
C137 C136 1.381 . S
C137 C139 1.381 . S
C137 C140 1.487 . S
C138 C135 1.382 . S
C138 C139 1.387 . S
C138 H164 0.930 . S
C139 C137 1.381 . S
C139 C138 1.387 . S
C139 H165 0.931 . S
C140 C137 1.487 . S
C140 C147 1.399 . S
C140 N178 1.343 . S
C141 C142 1.384 . S
C141 C143 1.384 . S
C141 H166 0.931 . S
C142 C141 1.384 . S
C142 C145 1.382 . S
C143 C141 1.384 . S
C143 C144 1.381 . S
C143 H167 0.930 . S
C144 C143 1.381 . S
C144 C146 1.381 . S
C144 C147 1.487 . S
C145 C142 1.382 . S
C145 C146 1.387 . S
C145 H168 0.930 . S
C146 C144 1.381 . S
C146 C145 1.387 . S
C146 H169 0.931 . S
C147 C140 1.399 . S
C147 C144 1.487 . S
C147 N179 1.343 . S
C148 C149 1.384 . S
C148 C150 1.384 . S
C148 H170 0.931 . S
C149 C148 1.384 . S
C149 C152 1.382 . S
C150 C148 1.384 . S
C150 C151 1.381 . S
C150 H171 0.930 . S
C151 C150 1.381 . S
C151 C153 1.381 . S
C151 C154 1.487 . S
C152 C149 1.382 . S
C152 C153 1.387 . S
C152 H172 0.930 . S
C153 C151 1.381 . S
C153 C152 1.387 . S
C153 H173 0.931 . S
C154 C151 1.487 . S
C154 C161 1.399 . S
C154 N179 1.343 . S
C155 C156 1.384 . S
C155 C157 1.384 . S
C155 H174 0.931 . S
C156 C155 1.384 . S
C156 C159 1.382 . S
C157 C155 1.384 . S
C157 C158 1.381 . S
C157 H175 0.930 . S
C158 C157 1.381 . S
C158 C160 1.381 . S
C158 C161 1.487 . S
C159 C156 1.382 . S
C159 C160 1.387 . S
C159 H176 0.930 . S
C160 C158 1.381 . S
C160 C159 1.387 . S
C160 H177 0.931 . S
C161 C154 1.399 . S
C161 C158 1.487 . S
C161 N178 1.343 . S
H162 C134 0.931 . S
H163 C136 0.930 . S
H164 C138 0.930 . S
H165 C139 0.931 . S
H166 C141 0.931 . S
H167 C143 0.930 . S
H168 C145 0.930 . S
H169 C146 0.931 . S
H170 C148 0.931 . S
H171 C150 0.930 . S
H172 C152 0.930 . S
H173 C153 0.931 . S
H174 C155 0.931 . S
H175 C157 0.930 . S
H176 C159 0.930 . S
H177 C160 0.931 . S
N178 C140 1.343 . S
N178 C161 1.343 . S
N179 C147 1.343 . S
N179 C154 1.343 . S
C180 C181 1.387 . S
C180 H184 0.950 . S
C180 C189 1.390 . S
C181 C180 1.387 . S
C181 C183 1.387 . S
H182 C189 0.950 . S
C183 C181 1.387 . S
C183 C185 1.390 . S
C183 H187 0.950 . S
H184 C180 0.950 . S
C185 C183 1.390 . S
C185 C186 1.387 . S
C185 H188 0.950 . S
C186 C185 1.387 . S
C186 C189 1.387 . S
H187 C183 0.950 . S
H188 C185 0.950 . S
C189 C180 1.390 . S
C189 H182 0.950 . S
C189 C186 1.387 . S
C190 C191 1.387 . S
C190 H194 0.950 . S
C190 C199 1.390 . S
C191 C190 1.387 . S
C191 C193 1.387 1_545 S
H192 C199 0.950 . S
C193 C191 1.387 1_565 S
C193 C195 1.390 1_565 S
C193 H197 0.950 . S
H194 C190 0.950 . S
C195 C193 1.390 1_545 S
C195 C196 1.387 . S
C195 H198 0.950 1_545 S
C196 C195 1.387 . S
C196 C199 1.387 . S
H197 C193 0.950 . S
H198 C195 0.950 1_565 S
C199 C190 1.390 . S
C199 H192 0.950 . S
C199 C196 1.387 . S
C200 C201 1.387 . S
C200 H204 0.950 . S
C200 C209 1.390 . S
C201 C200 1.387 . S
C201 C203 1.387 . S
H202 C209 0.950 . S
C203 C201 1.387 . S
C203 C205 1.390 . S
C203 H207 0.950 . S
H204 C200 0.950 . S
C205 C203 1.390 . S
C205 C206 1.387 . S
C205 H208 0.950 . S
C206 C205 1.387 . S
C206 C209 1.387 . S
H207 C203 0.950 . S
H208 C205 0.950 . S
C209 C200 1.390 . S
C209 H202 0.950 . S
C209 C206 1.387 . S
C210 C211 1.387 . S
C210 H214 0.950 . S
C210 C219 1.390 . S
C211 C210 1.387 . S
C211 C213 1.387 . S
H212 C219 0.950 . S
C213 C211 1.387 . S
C213 C215 1.390 . S
C213 H217 0.950 . S
H214 C210 0.950 . S
C215 C213 1.390 . S
C215 C216 1.387 . S
C215 H218 0.950 1_455 S
C216 C215 1.387 . S
C216 C219 1.387 . S
H217 C213 0.950 . S
H218 C215 0.950 1_655 S
C219 C210 1.390 . S
C219 H212 0.950 . S
C219 C216 1.387 . S
C220 C221 1.387 1_565 S
C220 H224 0.950 . S
C220 C229 1.390 . S
C221 C220 1.387 1_545 S
C221 C223 1.387 . S
H222 C229 0.950 . S
C223 C221 1.387 . S
C223 C225 1.390 . S
C223 H227 0.950 . S
H224 C220 0.950 . S
C225 C223 1.390 . S
C225 C226 1.387 . S
C225 H228 0.950 . S
C226 C225 1.387 . S
C226 C229 1.387 1_545 S
H227 C223 0.950 . S
H228 C225 0.950 . S
C229 C220 1.390 . S
C229 H222 0.950 . S
C229 C226 1.387 1_565 S
C230 C231 1.387 . S
C230 H234 0.950 . S
C230 C239 1.390 . S
C231 C230 1.387 . S
C231 C233 1.387 . S
H232 C239 0.950 . S
C233 C231 1.387 . S
C233 C235 1.390 . S
C233 H237 0.950 . S
H234 C230 0.950 . S
C235 C233 1.390 . S
C235 C236 1.387 . S
C235 H238 0.950 . S
C236 C235 1.387 . S
C236 C239 1.387 . S
H237 C233 0.950 . S
H238 C235 0.950 . S
C239 C230 1.390 . S
C239 H232 0.950 . S
C239 C236 1.387 . S
C240 C241 1.387 . S
C240 H244 0.950 . S
C240 C249 1.390 . S
C241 C240 1.387 . S
C241 C243 1.387 1_545 S
H242 C249 0.950 . S
C243 C241 1.387 1_565 S
C243 C245 1.390 . S
C243 H247 0.950 . S
H244 C240 0.950 . S
C245 C243 1.390 . S
C245 C246 1.387 1_565 S
C245 H248 0.950 . S
C246 C245 1.387 1_545 S
C246 C249 1.387 . S
H247 C243 0.950 . S
H248 C245 0.950 . S
C249 C240 1.390 . S
C249 H242 0.950 . S
C249 C246 1.387 . S
C250 C251 1.387 . S
C250 H254 0.950 1_556 S
C250 C259 1.390 . S
C251 C250 1.387 . S
C251 C253 1.387 . S
H252 C259 0.950 . S
C253 C251 1.387 . S
C253 C255 1.390 . S
C253 H257 0.950 . S
H254 C250 0.950 1_554 S
C255 C253 1.390 . S
C255 C256 1.387 . S
C255 H258 0.950 . S
C256 C255 1.387 . S
C256 C259 1.387 . S
H257 C253 0.950 . S
H258 C255 0.950 . S
C259 C250 1.390 . S
C259 H252 0.950 . S
C259 C256 1.387 . S
C260 C261 1.387 1_455 S
C260 H264 0.950 . S
C260 C269 1.390 . S
C261 C260 1.387 1_655 S
C261 C263 1.387 . S
H262 C269 0.950 . S
C263 C261 1.387 . S
C263 C265 1.390 . S
C263 H267 0.950 . S
H264 C260 0.950 . S
C265 C263 1.390 . S
C265 C266 1.387 1_655 S
C265 H268 0.950 . S
C266 C265 1.387 1_455 S
C266 C269 1.387 . S
H267 C263 0.950 . S
H268 C265 0.950 . S
C269 C260 1.390 . S
C269 H262 0.950 . S
C269 C266 1.387 . S
C270 C271 1.387 . S
C270 H274 0.950 1_545 S
C270 C279 1.390 . S
C271 C270 1.387 . S
C271 C273 1.387 . S
H272 C279 0.950 . S
C273 C271 1.387 . S
C273 C275 1.390 . S
C273 H277 0.950 . S
H274 C270 0.950 1_565 S
C275 C273 1.390 . S
C275 C276 1.387 . S
C275 H278 0.950 . S
C276 C275 1.387 . S
C276 C279 1.387 . S
H277 C273 0.950 . S
H278 C275 0.950 . S
C279 C270 1.390 . S
C279 H272 0.950 . S
C279 C276 1.387 . S
C280 C281 1.387 . S
C280 H284 0.950 1_556 S
C280 C289 1.390 . S
C281 C280 1.387 . S
C281 C283 1.387 . S
H282 C289 0.950 . S
C283 C281 1.387 . S
C283 C285 1.390 . S
C283 H287 0.950 . S
H284 C280 0.950 1_554 S
C285 C283 1.390 . S
C285 C286 1.387 . S
C285 H288 0.950 . S
C286 C285 1.387 . S
C286 C289 1.387 . S
H287 C283 0.950 . S
H288 C285 0.950 . S
C289 C280 1.390 . S
C289 H282 0.950 . S
C289 C286 1.387 . S
C290 C291 1.387 . S
C290 H294 0.950 . S
C290 C299 1.390 . S
C291 C290 1.387 . S
C291 C293 1.387 . S
H292 C299 0.950 . S
C293 C291 1.387 . S
C293 C295 1.390 1_455 S
C293 H297 0.950 1_455 S
H294 C290 0.950 . S
C295 C293 1.390 1_655 S
C295 C296 1.387 1_655 S
C295 H298 0.950 . S
C296 C295 1.387 1_455 S
C296 C299 1.387 . S
H297 C293 0.950 1_655 S
H298 C295 0.950 . S
C299 C290 1.390 . S
C299 H292 0.950 . S
C299 C296 1.387 . S
C186 C50 1.430 . S
C181 C11 1.411 . S
C191 C26 1.554 1_545 S
C196 C89 1.570 . S
C201 C40 1.446 . S
C206 C156 1.462 . S
C211 C5 1.289 . S
C216 C57 1.435 . S
C226 C110 1.548 . S
C221 C18 1.534 . S
C231 C32 1.425 . S
C236 C135 1.438 . S
C246 C96 1.323 . S
C241 C39 1.309 . S
C251 C4 1.453 . S
C256 C149 1.451 . S
C266 C64 1.448 . S
C261 C19 1.305 . S
C276 C103 1.384 . S
C271 C33 1.241 1_545 S
C286 C142 1.469 . S
C281 C12 1.455 . S
C291 C25 1.419 . S
C296 C43 1.441 . S
