# Generated by pormake.
# Topology nom, (4,4)-cn, num edge types: 1
# Building blocks:
#     Node 0, Type 0, BuildingBlock: KUFVIS_clean_linker_0, # of connection points: 4
#     Node 1, Type 0, BuildingBlock: KUFVIS_clean_linker_0, # of connection points: 4
#     Node 2, Type 0, BuildingBlock: KUFVIS_clean_linker_0, # of connection points: 4
#     Node 3, Type 0, BuildingBlock: KUFVIS_clean_linker_0, # of connection points: 4
#     Node 4, Type 0, BuildingBlock: KUFVIS_clean_linker_0, # of connection points: 4
#     Node 5, Type 0, BuildingBlock: KUFVIS_clean_linker_0, # of connection points: 4
#     Node 6, Type 1, BuildingBlock: QUQFOY_clean_sbu_3, # of connection points: 4
#     Node 7, Type 1, BuildingBlock: QUQFOY_clean_sbu_3, # of connection points: 4
#     Node 8, Type 1, BuildingBlock: QUQFOY_clean_sbu_3, # of connection points: 4
#     Node 9, Type 1, BuildingBlock: QUQFOY_clean_sbu_3, # of connection points: 4
#     Node 10, Type 1, BuildingBlock: QUQFOY_clean_sbu_3, # of connection points: 4
#     Node 11, Type 1, BuildingBlock: QUQFOY_clean_sbu_3, # of connection points: 4
#     Edge 12, Type (0, 1), BuildingBlock: EZIPEK_clean_linker_0, # of connection points: 2
#     Edge 13, Type (0, 1), BuildingBlock: EZIPEK_clean_linker_0, # of connection points: 2
#     Edge 14, Type (0, 1), BuildingBlock: EZIPEK_clean_linker_0, # of connection points: 2
#     Edge 15, Type (0, 1), BuildingBlock: EZIPEK_clean_linker_0, # of connection points: 2
#     Edge 16, Type (0, 1), BuildingBlock: EZIPEK_clean_linker_0, # of connection points: 2
#     Edge 17, Type (0, 1), BuildingBlock: EZIPEK_clean_linker_0, # of connection points: 2
#     Edge 18, Type (0, 1), BuildingBlock: EZIPEK_clean_linker_0, # of connection points: 2
#     Edge 19, Type (0, 1), BuildingBlock: EZIPEK_clean_linker_0, # of connection points: 2
#     Edge 20, Type (0, 1), BuildingBlock: EZIPEK_clean_linker_0, # of connection points: 2
#     Edge 21, Type (0, 1), BuildingBlock: EZIPEK_clean_linker_0, # of connection points: 2
#     Edge 22, Type (0, 1), BuildingBlock: EZIPEK_clean_linker_0, # of connection points: 2
#     Edge 23, Type (0, 1), BuildingBlock: EZIPEK_clean_linker_0, # of connection points: 2
#     Edge 24, Type (0, 1), BuildingBlock: EZIPEK_clean_linker_0, # of connection points: 2
#     Edge 25, Type (0, 1), BuildingBlock: EZIPEK_clean_linker_0, # of connection points: 2
#     Edge 26, Type (0, 1), BuildingBlock: EZIPEK_clean_linker_0, # of connection points: 2
#     Edge 27, Type (0, 1), BuildingBlock: EZIPEK_clean_linker_0, # of connection points: 2
#     Edge 28, Type (0, 1), BuildingBlock: EZIPEK_clean_linker_0, # of connection points: 2
#     Edge 29, Type (0, 1), BuildingBlock: EZIPEK_clean_linker_0, # of connection points: 2
#     Edge 30, Type (0, 1), BuildingBlock: EZIPEK_clean_linker_0, # of connection points: 2
#     Edge 31, Type (0, 1), BuildingBlock: EZIPEK_clean_linker_0, # of connection points: 2
#     Edge 32, Type (0, 1), BuildingBlock: EZIPEK_clean_linker_0, # of connection points: 2
#     Edge 33, Type (0, 1), BuildingBlock: EZIPEK_clean_linker_0, # of connection points: 2
#     Edge 34, Type (0, 1), BuildingBlock: EZIPEK_clean_linker_0, # of connection points: 2
#     Edge 35, Type (0, 1), BuildingBlock: EZIPEK_clean_linker_0, # of connection points: 2
# Relax obj value: 0.003
# Max RMSD: 0.049
# Mean RMSD: 0.035
data_MOF--net-nom--node1-QUQFOY_clean_sbu_3--node2-KUFVIS_clean_linker_0--edge1-EZIPEK_clean_linker_0
_symmetry_space_group_name_H-M    P1
_symmetry_Int_Tables_number       1
_symmetry_cell_setting            triclinic
loop_
_symmetry_equiv_pos_as_xyz
'x, y, z'
_cell_length_a     34.11517
_cell_length_b     34.884134
_cell_length_c     35.400069
_cell_angle_alpha  89.958732
_cell_angle_beta   90.100903
_cell_angle_gamma 119.89186
loop_
_atom_site_label
_atom_site_type_symbol
_atom_site_fract_x
_atom_site_fract_y
_atom_site_fract_z
_atom_type_partial_charge
H0 H 0.15919 0.61049 0.33364 0.0
H1 H 0.05378 0.56234 0.25137 0.0
H2 H 0.02381 0.51879 0.36793 0.0
H3 H 0.95656 0.5097 0.35336 0.0
H4 H 0.85583 0.44753 0.26761 0.0
H5 H 0.99452 0.49846 0.23871 0.0
C6 C 0.12392 0.58875 0.32637 0.0
C7 C 0.09279 0.56523 0.35473 0.0
C8 C 0.10976 0.58719 0.28925 0.0
C9 C 0.06398 0.56066 0.27998 0.0
C10 C 0.03188 0.53453 0.30785 0.0
C11 C 0.04706 0.53746 0.3455 0.0
C12 C 0.98272 0.50664 0.29789 0.0
C13 C 0.94831 0.49737 0.32473 0.0
C14 C 0.90253 0.47475 0.314 0.0
C15 C 0.89088 0.46215 0.27643 0.0
C16 C 0.92426 0.47201 0.24944 0.0
C17 C 0.96966 0.49215 0.26033 0.0
H18 H 0.55011 0.15741 0.49042 0.0
H19 H 0.47397 0.04944 0.41533 0.0
H20 H 0.50938 0.02578 0.52736 0.0
H21 H 0.44182 0.96235 0.5226 0.0
H22 H 0.38127 0.85682 0.44239 0.0
H23 H 0.47626 0.98709 0.40395 0.0
C24 C 0.53266 0.12208 0.48495 0.0
C25 C 0.5308 0.09316 0.51306 0.0
C26 C 0.51382 0.10653 0.44948 0.0
C27 C 0.49018 0.06088 0.44253 0.0
C28 C 0.48724 0.03065 0.47078 0.0
C29 C 0.50913 0.0476 0.50572 0.0
C30 C 0.46086 0.98185 0.46386 0.0
C31 C 0.43857 0.95137 0.4936 0.0
C32 C 0.41135 0.90604 0.48573 0.0
C33 C 0.40383 0.89161 0.44836 0.0
C34 C 0.42729 0.92059 0.41883 0.0
C35 C 0.45694 0.9653 0.42687 0.0
H36 H 0.56576 0.40525 0.61684 0.0
H37 H 0.51627 0.45839 0.7005 0.0
H38 H 0.50712 0.48185 0.58079 0.0
H39 H 0.45617 0.49648 0.59477 0.0
H40 H 0.41791 0.56194 0.67549 0.0
H41 H 0.50141 0.50978 0.7115 0.0
C42 C 0.55021 0.42492 0.62397 0.0
C43 C 0.53577 0.44213 0.59525 0.0
C44 C 0.54368 0.4314 0.66168 0.0
C45 C 0.52236 0.45579 0.67097 0.0
C46 C 0.50821 0.47483 0.6422 0.0
C47 C 0.51596 0.46776 0.60416 0.0
C48 C 0.48451 0.50063 0.6513 0.0
C49 C 0.46006 0.50918 0.62313 0.0
C50 C 0.4374 0.53235 0.63171 0.0
C51 C 0.43744 0.54607 0.66855 0.0
C52 C 0.45934 0.53656 0.69712 0.0
C53 C 0.48401 0.51536 0.68854 0.0
H54 H 0.17712 0.56267 0.77863 0.0
H55 H 0.06748 0.51217 0.85765 0.0
H56 H 0.04182 0.50909 0.73753 0.0
H57 H 0.98147 0.4445 0.75249 0.0
H58 H 0.86947 0.40669 0.82633 0.0
H59 H 1.00028 0.51062 0.86037 0.0
C60 C 0.14124 0.548 0.78433 0.0
C61 C 0.11086 0.53649 0.75434 0.0
C62 C 0.12568 0.54004 0.82155 0.0
C63 C 0.07901 0.51977 0.8287 0.0
C64 C 0.04773 0.50726 0.79855 0.0
C65 C 0.06451 0.51707 0.76137 0.0
C66 C 0.9979 0.48147 0.80546 0.0
C67 C 0.96863 0.45013 0.77858 0.0
C68 C 0.92227 0.42445 0.78581 0.0
C69 C 0.90517 0.42809 0.82037 0.0
C70 C 0.9332 0.45842 0.84749 0.0
C71 C 0.97925 0.48625 0.83955 0.0
H72 H 0.47052 0.86798 -0.00576 0.0
H73 H 0.53265 0.97207 0.91319 0.0
H74 H 0.52213 1.00144 0.03076 0.0
H75 H 0.58088 0.06617 0.01832 0.0
H76 H 0.62824 0.16654 0.93373 0.0
H77 H 0.53112 0.03368 0.90326 0.0
C78 C 0.48689 0.90299 -0.01245 0.0
C79 C 0.49591 0.93352 0.01632 0.0
C80 C 0.49954 0.91688 0.95048 0.0
C81 C 0.52153 0.96218 0.94195 0.0
C82 C 0.53008 0.99395 0.97059 0.0
C83 C 0.51675 0.97874 0.00793 0.0
C84 C 0.5541 0.04249 0.96162 0.0
C85 C 0.57951 0.07502 -0.01072 0.0
C86 C 0.60437 0.11992 0.97929 0.0
C87 C 0.60692 0.1321 0.94151 0.0
C88 C 0.58099 0.101 0.91394 0.0
C89 C 0.55282 0.05682 0.92455 0.0
H90 H 0.4769 0.63301 0.11266 0.0
H91 H 0.52794 0.58338 0.19847 0.0
H92 H 0.53234 0.55207 0.08023 0.0
H93 H 0.58792 0.54283 0.09714 0.0
H94 H 0.61512 0.47024 0.17991 0.0
H95 H 0.5314 0.52427 0.21001 0.0
C96 C 0.49245 0.61354 0.12058 0.0
C97 C 0.50518 0.59392 0.09261 0.0
C98 C 0.50006 0.60907 0.15854 0.0
C99 C 0.52088 0.58459 0.16887 0.0
C100 C 0.53301 0.56312 0.14099 0.0
C101 C 0.52461 0.56822 0.10268 0.0
C102 C 0.55463 0.53606 0.15147 0.0
C103 C 0.58112 0.52829 0.12501 0.0
C104 C 0.6015 0.50335 0.13498 0.0
C105 C 0.59718 0.48734 0.17165 0.0
C106 C 0.57332 0.49641 0.19867 0.0
C107 C 0.55069 0.51911 0.18846 0.0
C108 C 0.73919 0.4413 0.38961 0.0
O109 O 0.73747 0.47117 0.40874 0.0
Cd110 Cd 0.66953 0.46966 0.42709 0.0
O111 O 0.70323 0.40526 0.38137 0.0
Cd112 Cd 0.61986 0.37006 0.39464 0.0
C113 C 0.61525 0.44721 0.34095 0.0
O114 O 0.62142 0.40096 0.45659 0.0
O115 O 0.55788 0.37343 0.42643 0.0
O116 O 0.61239 0.29957 0.4136 0.0
C117 C 0.58011 0.39053 0.45638 0.0
O118 O 0.63344 0.47372 0.36857 0.0
C119 C 0.58009 0.27609 0.3912 0.0
O120 O 0.60919 0.4081 0.34165 0.0
O121 O 0.56775 0.29627 0.36847 0.0
C122 C 0.31335 0.56804 0.55012 0.0
O123 O 0.28082 0.5382 0.53129 0.0
Cd124 Cd 0.21288 0.5392 0.51964 0.0
O125 O 0.31429 0.60412 0.55852 0.0
Cd126 Cd 0.26691 0.63964 0.54509 0.0
C127 C 0.19288 0.56861 0.60731 0.0
O128 O 0.22908 0.60426 0.48602 0.0
O129 O 0.19588 0.63116 0.51999 0.0
O130 O 0.32729 0.71042 0.52098 0.0
C131 C 0.19772 0.61353 0.48928 0.0
O132 O 0.18068 0.53919 0.58167 0.0
C133 C 0.32074 0.73414 0.54452 0.0
O134 O 0.22551 0.60768 0.60231 0.0
O135 O 0.29116 0.71406 0.56986 0.0
C136 C 0.76186 0.29403 0.71322 0.0
O137 O 0.75662 0.25802 0.69968 0.0
Cd138 Cd 0.68693 0.19389 0.68366 0.0
O139 O 0.72855 0.3009 0.71715 0.0
Cd140 Cd 0.64497 0.26334 0.70405 0.0
C141 C 0.62623 0.18022 0.7657 0.0
O142 O 0.6516 0.2266 0.64988 0.0
O143 O 0.58432 0.21419 0.65983 0.0
O144 O 0.64294 0.32977 0.68472 0.0
C145 C 0.61046 0.206 0.64043 0.0
O146 O 0.65047 0.17001 0.74537 0.0
C147 C 0.61443 0.32591 0.70971 0.0
O148 O 0.6183 0.21067 0.75555 0.0
O149 O 0.60237 0.29472 0.73344 0.0
C150 C 0.28362 0.58223 0.90378 0.0
O151 O 0.28877 0.5506 0.91533 0.0
Cd152 Cd 0.3592 0.5534 0.92609 0.0
O153 O 0.31837 0.61882 0.89469 0.0
Cd154 Cd 0.4028 0.65328 0.89674 0.0
C155 C 0.40797 0.57925 0.83851 0.0
O156 O 0.40741 0.62174 0.95673 0.0
O157 O 0.46942 0.65447 0.92458 0.0
O158 O 0.40937 0.72224 0.91897 0.0
C159 C 0.44934 0.6351 0.95469 0.0
O160 O 0.39236 0.55178 0.8657 0.0
C161 C 0.43735 0.74665 0.89402 0.0
O162 O 0.41162 0.61735 0.84085 0.0
O163 O 0.44818 0.72769 0.86886 0.0
C164 C 0.72644 0.46554 0.05736 0.0
O165 O 0.76286 0.4969 0.04377 0.0
Cd166 Cd 0.82815 0.49569 0.02071 0.0
O167 O 0.71943 0.42597 0.05918 0.0
Cd168 Cd 0.76129 0.38633 0.04153 0.0
C169 C 0.84829 0.45225 0.10094 0.0
O170 O 0.79432 0.43003 -0.01404 0.0
O171 O 0.81744 0.38451 -0.00144 0.0
O172 O 0.69505 0.31801 0.01977 0.0
C173 C 0.81934 0.41441 0.97706 0.0
O174 O 0.86187 0.48389 0.07727 0.0
C175 C 0.7031 0.29251 0.03993 0.0
O176 O 0.81233 0.41538 0.09546 0.0
O177 O 0.73587 0.31067 0.06307 0.0
C178 C 0.26688 0.71811 0.21144 0.0
O179 O 0.26732 0.74907 0.19235 0.0
Cd180 Cd 0.33585 0.81642 0.18379 0.0
O181 O 0.30368 0.71933 0.22069 0.0
Cd182 Cd 0.38693 0.76658 0.20813 0.0
C183 C 0.3863 0.83736 0.27141 0.0
O184 O 0.38759 0.80248 0.14882 0.0
O185 O 0.44968 0.8332 0.18134 0.0
O186 O 0.39699 0.70627 0.18483 0.0
C187 C 0.42901 0.83188 0.1512 0.0
O188 O 0.36188 0.84404 0.24805 0.0
C189 C 0.42569 0.71059 0.2098 0.0
O190 O 0.40051 0.81095 0.26333 0.0
O191 O 0.43526 0.73983 0.235 0.0
C192 C 0.16953 0.60531 0.24007 0.0
C193 C 0.14333 0.61834 0.26187 0.0
C194 C 0.19768 0.69614 0.25032 0.0
C195 C 0.22338 0.68342 0.22727 0.0
N196 N 0.22939 0.62635 0.19387 0.0
N197 N 0.12558 0.6745 0.27974 0.0
C198 C 0.20794 0.63804 0.22015 0.0
C199 C 0.15504 0.66328 0.264 0.0
N200 N 0.15859 0.56193 0.23957 0.0
N201 N 0.2154 0.73915 0.26165 0.0
H202 H 0.09414 0.65104 0.29042 0.0
H203 H 0.13033 0.70639 0.27878 0.0
H204 H 0.24762 0.76427 0.25423 0.0
H205 H 0.2001 0.74921 0.28173 0.0
H206 H 0.17928 0.55093 0.22802 0.0
H207 H 0.12956 0.53705 0.25255 0.0
H208 H 0.21729 0.59397 0.18485 0.0
H209 H 0.25739 0.64958 0.17866 0.0
C210 C 0.56429 0.16173 0.40181 0.0
C211 C 0.52176 0.14015 0.42021 0.0
C212 C 0.51179 0.20402 0.4093 0.0
C213 C 0.55615 0.22717 0.39392 0.0
N214 N 0.61889 0.22503 0.36536 0.0
N215 N 0.44949 0.13385 0.43117 0.0
C216 C 0.58041 0.20479 0.38663 0.0
C217 C 0.49345 0.15897 0.42 0.0
N218 N 0.59022 0.14197 0.40111 0.0
N219 N 0.4887 0.22594 0.41643 0.0
H220 H 0.43598 0.10089 0.43937 0.0
H221 H 0.42563 0.14404 0.42901 0.0
H222 H 0.50067 0.25877 0.4088 0.0
H223 H 0.45873 0.21245 0.43175 0.0
H224 H 0.62382 0.15777 0.39246 0.0
H225 H 0.57814 0.10963 0.4105 0.0
H226 H 0.63658 0.20952 0.35645 0.0
H227 H 0.63096 0.25649 0.35383 0.0
C228 C 0.42444 0.57701 0.58256 0.0
C229 C 0.40779 0.53754 0.60393 0.0
C230 C 0.33007 0.51876 0.59032 0.0
C231 C 0.34636 0.5573 0.56744 0.0
N232 N 0.4086 0.6185 0.53576 0.0
N233 N 0.34606 0.4658 0.62059 0.0
C234 C 0.39352 0.58513 0.56171 0.0
C235 C 0.36099 0.50662 0.60498 0.0
N236 N 0.46959 0.60727 0.58322 0.0
N237 N 0.28551 0.49548 0.60054 0.0
H238 H 0.36787 0.45608 0.63223 0.0
H239 H 0.31267 0.44021 0.61866 0.0
H240 H 0.2616 0.50403 0.59216 0.0
H241 H 0.27299 0.47032 0.62062 0.0
H242 H 0.48333 0.63898 0.57201 0.0
H243 H 0.49318 0.60128 0.59683 0.0
H244 H 0.44232 0.63733 0.52769 0.0
H245 H 0.38677 0.625 0.51989 0.0
C246 C 0.86794 0.40445 0.73183 0.0
C247 C 0.89005 0.39153 0.75865 0.0
C248 C 0.82946 0.31474 0.75441 0.0
C249 C 0.80725 0.32727 0.72714 0.0
N250 N 0.81071 0.38152 0.6829 0.0
N251 N 0.89941 0.33413 0.78716 0.0
C252 C 0.82822 0.37142 0.71359 0.0
C253 C 0.87342 0.34639 0.76676 0.0
N254 N 0.88376 0.44832 0.72516 0.0
N255 N 0.80736 0.2738 0.77081 0.0
H256 H 0.93175 0.35706 0.79669 0.0
H257 H 0.89093 0.3013 0.79121 0.0
H258 H 0.77409 0.25016 0.76443 0.0
H259 H 0.82035 0.26478 0.79361 0.0
H260 H 0.86603 0.46011 0.70961 0.0
H261 H 0.91383 0.47318 0.73688 0.0
H262 H 0.82684 0.41222 0.66959 0.0
H263 H 0.78203 0.35793 0.66856 0.0
C264 C 0.44456 0.85709 0.90792 0.0
C265 C 0.4894 0.88217 0.92172 0.0
C266 C 0.50399 0.82192 0.90682 0.0
C267 C 0.45793 0.79536 0.89605 0.0
N268 N 0.38822 0.79047 0.87599 0.0
N269 N 0.56528 0.89492 0.92402 0.0
C270 C 0.42952 0.8141 0.89301 0.0
C271 C 0.52041 0.86678 0.91723 0.0
N272 N 0.41589 0.87365 0.91117 0.0
N273 N 0.531 0.80342 0.90996 0.0
H274 H 0.57765 0.92774 0.93211 0.0
H275 H 0.59051 0.88725 0.91836 0.0
H276 H 0.5205 0.77088 0.90226 0.0
H277 H 0.56307 0.81941 0.92209 0.0
H278 H 0.38128 0.85537 0.90603 0.0
H279 H 0.42694 0.90591 0.92029 0.0
H280 H 0.36695 0.80314 0.87022 0.0
H281 H 0.37685 0.75903 0.86467 0.0
C282 C 0.67988 0.52438 0.11675 0.0
C283 C 0.63304 0.49849 0.10932 0.0
C284 C 0.64791 0.45506 0.06298 0.0
C285 C 0.69385 0.47671 0.07474 0.0
N286 N 0.75153 0.5264 0.1184 0.0
N287 N 0.57107 0.43718 0.07753 0.0
C288 C 0.70946 0.5102 0.1029 0.0
C289 C 0.61659 0.46339 0.0828 0.0
N290 N 0.69601 0.56242 0.13738 0.0
N291 N 0.63454 0.42767 0.03228 0.0
H292 H 0.54744 0.44346 0.09058 0.0
H293 H 0.5567 0.40794 0.062 0.0
H294 H 0.65669 0.4213 0.01685 0.0
H295 H 0.60255 0.41433 0.02014 0.0
H296 H 0.73036 0.58491 0.14063 0.0
H297 H 0.67505 0.57369 0.14802 0.0
H298 H 0.7627 0.54734 0.14176 0.0
H299 H 0.77359 0.51526 0.11072 0.0
C300 C 0.41654 0.85017 0.52631 0.0
C301 C 0.39199 0.87134 0.5154 0.0
C302 C 0.32072 0.80541 0.53225 0.0
C303 C 0.34501 0.78308 0.54084 0.0
N304 N 0.41564 0.78742 0.55703 0.0
N305 N 0.32409 0.87543 0.51878 0.0
C306 C 0.39293 0.80669 0.5416 0.0
C307 C 0.34514 0.85105 0.52255 0.0
N308 N 0.46201 0.87064 0.51973 0.0
N309 N 0.27455 0.78239 0.53031 0.0
H310 H 0.34185 0.90883 0.51135 0.0
H311 H 0.29063 0.86402 0.52646 0.0
H312 H 0.25515 0.74888 0.53667 0.0
H313 H 0.25537 0.79574 0.51989 0.0
H314 H 0.48109 0.855 0.52229 0.0
H315 H 0.48042 0.90321 0.51017 0.0
H316 H 0.45045 0.80405 0.56139 0.0
H317 H 0.39896 0.75573 0.56872 0.0
C318 C 0.52857 0.36476 0.698 0.0
C319 C 0.55841 0.40985 0.69011 0.0
C320 C 0.62258 0.40143 0.70997 0.0
C321 C 0.59397 0.35484 0.70927 0.0
N322 N 0.51896 0.29136 0.70171 0.0
N323 N 0.6331 0.47306 0.69138 0.0
C324 C 0.54648 0.33619 0.70414 0.0
C325 C 0.6052 0.42897 0.69785 0.0
N326 N 0.48307 0.34921 0.69806 0.0
N327 N 0.66618 0.41907 0.72228 0.0
H328 H 0.62054 0.49399 0.68426 0.0
H329 H 0.66823 0.48847 0.69179 0.0
H330 H 0.67938 0.39946 0.73178 0.0
H331 H 0.68789 0.45278 0.72628 0.0
H332 H 0.45931 0.31745 0.70676 0.0
H333 H 0.46958 0.3698 0.69301 0.0
H334 H 0.48518 0.27631 0.69352 0.0
H335 H 0.53032 0.26885 0.70496 0.0
C336 C 0.16272 0.5186 0.87246 0.0
C337 C 0.15932 0.55211 0.85251 0.0
C338 C 0.22994 0.60868 0.88202 0.0
C339 C 0.23678 0.57438 0.89612 0.0
N340 N 0.19688 0.50243 0.92538 0.0
N341 N 0.18538 0.62941 0.84203 0.0
C342 C 0.19916 0.53092 0.89789 0.0
C343 C 0.19135 0.59745 0.85898 0.0
N344 N 0.13318 0.47494 0.86541 0.0
N345 N 0.25849 0.65129 0.893 0.0
H346 H 0.15594 0.62214 0.8273 0.0
H347 H 0.20965 0.6628 0.84161 0.0
H348 H 0.28301 0.65908 0.91382 0.0
H349 H 0.25481 0.6781 0.88531 0.0
H350 H 0.13775 0.44957 0.87606 0.0
H351 H 0.10617 0.46402 0.84661 0.0
H352 H 0.16857 0.47135 0.9295 0.0
H353 H 0.22009 0.51261 0.94757 0.0
C354 C 0.60442 0.17771 0.02121 0.0
C355 C 0.62739 0.15609 0.0074 0.0
C356 C 0.70043 0.22134 0.02157 0.0
C357 C 0.67758 0.24381 0.03411 0.0
N358 N 0.60884 0.23989 0.05578 0.0
N359 N 0.69501 0.1513 0.00463 0.0
C360 C 0.62978 0.22072 0.03723 0.0
C361 C 0.67474 0.1759 0.01146 0.0
N362 N 0.55859 0.15802 0.01704 0.0
N363 N 0.74622 0.24406 0.01623 0.0
H364 H 0.67651 0.11804 -0.00315 0.0
H365 H 0.72896 0.16234 0.01026 0.0
H366 H 0.7666 0.27756 0.02223 0.0
H367 H 0.76382 0.23059 0.00299 0.0
H368 H 0.54032 0.17413 0.02192 0.0
H369 H 0.53895 0.12576 0.00703 0.0
H370 H 0.57444 0.22344 0.06195 0.0
H371 H 0.62676 0.27115 0.06813 0.0
C372 C 0.43952 0.6106 0.19677 0.0
C373 C 0.48569 0.63137 0.18635 0.0
C374 C 0.49526 0.70413 0.20053 0.0
C375 C 0.44818 0.68365 0.20826 0.0
N376 N 0.37864 0.61809 0.22466 0.0
N377 N 0.5602 0.69461 0.18927 0.0
C378 C 0.42135 0.63695 0.2101 0.0
C379 C 0.51453 0.67712 0.19244 0.0
N380 N 0.41274 0.56605 0.19174 0.0
N381 N 0.52075 0.74915 0.19792 0.0
H382 H 0.57462 0.67509 0.18294 0.0
H383 H 0.58369 0.72708 0.19636 0.0
H384 H 0.5081 0.77028 0.20339 0.0
H385 H 0.55384 0.76569 0.18796 0.0
H386 H 0.37768 0.54932 0.1942 0.0
H387 H 0.4259 0.54592 0.18374 0.0
H388 H 0.35844 0.58434 0.22963 0.0
H389 H 0.36487 0.63687 0.23493 0.0
C390 C 0.85094 0.50082 0.33684 0.0
C391 C 0.86611 0.46986 0.33985 0.0
C392 C 0.8016 0.42317 0.38074 0.0
C393 C 0.78326 0.4511 0.37322 0.0
N394 N 0.7869 0.51248 0.33835 0.0
N395 N 0.85549 0.40026 0.36249 0.0
C396 C 0.80718 0.48915 0.35003 0.0
C397 C 0.84148 0.43074 0.36145 0.0
N398 N 0.87832 0.54132 0.32097 0.0
N399 N 0.78164 0.39029 0.40703 0.0
H400 H 0.88559 0.40581 0.35003 0.0
H401 H 0.83627 0.36873 0.37389 0.0
H402 H 0.75265 0.38412 0.42183 0.0
H403 H 0.79578 0.37157 0.41647 0.0
H404 H 0.87101 0.56697 0.32142 0.0
H405 H 0.9105 0.55078 0.31063 0.0
H406 H 0.8008 0.53743 0.31811 0.0
H407 H 0.75405 0.50409 0.34577 0.0
C408 C 0.11315 0.54202 0.41565 0.0
C409 C 0.10897 0.57415 0.39434 0.0
C410 C 0.15734 0.63186 0.43934 0.0
C411 C 0.16208 0.59975 0.4602 0.0
N412 N 0.1302 0.52309 0.4769 0.0
N413 N 0.11445 0.64574 0.392 0.0
C414 C 0.13546 0.55433 0.45107 0.0
C415 C 0.12675 0.61783 0.40843 0.0
N416 N 0.09798 0.50057 0.40144 0.0
N417 N 0.18369 0.67578 0.44764 0.0
H418 H 0.09152 0.63594 0.36959 0.0
H419 H 0.12332 0.67675 0.4029 0.0
H420 H 0.2062 0.68735 0.47033 0.0
H421 H 0.18542 0.7009 0.43055 0.0
H422 H 0.10485 0.47761 0.41416 0.0
H423 H 0.08131 0.49019 0.37557 0.0
H424 H 0.10858 0.48933 0.47284 0.0
H425 H 0.14273 0.53163 0.50433 0.0
C426 C 0.60011 0.14531 0.54822 0.0
C427 C 0.55376 0.11272 0.54941 0.0
C428 C 0.55091 0.13257 0.61504 0.0
C429 C 0.59317 0.17195 0.61025 0.0
N430 N 0.65544 0.2185 0.5685 0.0
N431 N 0.48313 0.07746 0.58377 0.0
C432 C 0.61766 0.17887 0.57607 0.0
C433 C 0.52859 0.1064 0.58293 0.0
N434 N 0.6268 0.14489 0.5197 0.0
N435 N 0.53268 0.11941 0.65023 0.0
H436 H 0.46514 0.05778 0.56086 0.0
H437 H 0.46276 0.07562 0.60641 0.0
H438 H 0.54955 0.13602 0.67476 0.0
H439 H 0.50363 0.08913 0.65527 0.0
H440 H 0.66172 0.16594 0.5191 0.0
H441 H 0.61449 0.12031 0.49898 0.0
H442 H 0.67151 0.22594 0.54233 0.0
H443 H 0.66786 0.24581 0.58632 0.0
C444 C 0.48102 0.583 0.75593 0.0
C445 C 0.45032 0.54388 0.73656 0.0
C446 C 0.39168 0.52848 0.78345 0.0
C447 C 0.42285 0.56668 0.80379 0.0
N448 N 0.49994 0.62445 0.81448 0.0
N449 N 0.38074 0.47402 0.73599 0.0
C450 C 0.46842 0.5923 0.79154 0.0
C451 C 0.40707 0.51477 0.75185 0.0
N452 N 0.52148 0.61191 0.73969 0.0
N453 N 0.34684 0.50679 0.79288 0.0
H454 H 0.39105 0.463 0.71267 0.0
H455 H 0.35077 0.44964 0.74803 0.0
H456 H 0.33379 0.51652 0.81515 0.0
H457 H 0.32185 0.48171 0.77649 0.0
H458 H 0.54298 0.64349 0.75023 0.0
H459 H 0.53234 0.60525 0.71427 0.0
H460 H 0.53445 0.64118 0.80869 0.0
H461 H 0.49222 0.63166 0.8411 0.0
C462 C 0.87448 0.46503 0.88271 0.0
C463 C 0.91232 0.45901 0.88406 0.0
C464 C 0.89651 0.43856 0.95052 0.0
C465 C 0.85284 0.43373 0.94604 0.0
N466 N 0.79785 0.43659 0.90419 0.0
N467 N 0.95742 0.43516 0.919 0.0
C468 C 0.84124 0.4463 0.91138 0.0
C469 C 0.92334 0.44494 0.91802 0.0
N470 N 0.87052 0.4873 0.85267 0.0
N471 N 0.91302 0.43846 -0.01432 0.0
H472 H 0.97755 0.43853 0.89575 0.0
H473 H 0.96315 0.42021 0.94223 0.0
H474 H 0.89587 0.43734 0.01039 0.0
H475 H 0.94606 0.44522 -0.00972 0.0
H476 H 0.84528 0.49573 0.85003 0.0
H477 H 0.84528 0.49573 0.85003 0.0
H478 H 0.78711 0.4408 0.87774 0.0
H479 H 0.77114 0.4194 0.92284 0.0
C480 C 0.50901 0.89714 0.07148 0.0
C481 C 0.48507 0.91676 0.05549 0.0
C482 C 0.43358 0.89159 0.10927 0.0
C483 C 0.45158 0.86454 0.12077 0.0
N484 N 0.50513 0.83914 0.11152 0.0
N485 N 0.42247 0.9306 0.0576 0.0
C486 C 0.48948 0.86711 0.10194 0.0
C487 C 0.44702 0.91392 0.07414 0.0
N488 N 0.55026 0.90717 0.05727 0.0
N489 N 0.40488 0.89707 0.13254 0.0
H490 H 0.43148 0.94762 0.03199 0.0
H491 H 0.39144 0.92482 0.06801 0.0
H492 H 0.39699 0.88346 0.15956 0.0
H493 H 0.39353 0.91926 0.12697 0.0
H494 H 0.57119 0.89699 0.06983 0.0
H495 H 0.56548 0.92941 0.03503 0.0
H496 H 0.5293 0.8362 0.09583 0.0
H497 H 0.4915 0.81618 0.1334 0.0
C498 C 0.62137 0.51641 0.25595 0.0
C499 C 0.57915 0.48808 0.23867 0.0
C500 C 0.55705 0.43825 0.29293 0.0
C501 C 0.60206 0.46263 0.30688 0.0
N502 N 0.67921 0.52167 0.29847 0.0
N503 N 0.50707 0.42096 0.23893 0.0
C504 C 0.63475 0.50123 0.28785 0.0
C505 C 0.54679 0.44881 0.2568 0.0
N506 N 0.64886 0.55771 0.24152 0.0
N507 N 0.52398 0.40595 0.31465 0.0
H508 H 0.498 0.42866 0.21304 0.0
H509 H 0.48442 0.38932 0.24866 0.0
H510 H 0.53008 0.39812 0.34167 0.0
H511 H 0.48983 0.38987 0.30745 0.0
H512 H 0.67811 0.58141 0.25504 0.0
H513 H 0.64003 0.56981 0.21798 0.0
H514 H 0.70509 0.54687 0.28286 0.0
H515 H 0.69112 0.51077 0.32074 0.0
C516 C 0.42431 0.86422 0.37344 0.0
C517 C 0.42128 0.90276 0.37978 0.0
C518 C 0.40509 0.90372 0.31267 0.0
C519 C 0.39834 0.86023 0.3086 0.0
N520 N 0.3887 0.79457 0.34098 0.0
N521 N 0.39788 0.95338 0.35572 0.0
C522 C 0.40443 0.83906 0.34059 0.0
C523 C 0.4086 0.92107 0.34951 0.0
N524 N 0.44623 0.85162 0.39851 0.0
N525 N 0.41034 0.92944 0.28187 0.0
H526 H 0.39707 0.96524 0.38254 0.0
H527 H 0.3849 0.96471 0.33453 0.0
H528 H 0.41269 0.92013 0.25439 0.0
H529 H 0.41849 0.9624 0.28425 0.0
H530 H 0.45151 0.8251 0.39333 0.0
H531 H 0.46346 0.87065 0.42203 0.0
H532 H 0.39023 0.77811 0.36507 0.0
H533 H 0.36859 0.77334 0.31959 0.0
C534 C 0.57165 0.4627 0.53093 0.0
C535 C 0.53969 0.43044 0.55576 0.0
C536 C 0.52861 0.37133 0.51217 0.0
C537 C 0.56084 0.40371 0.48765 0.0
N538 N 0.59899 0.47934 0.46666 0.0
N539 N 0.47822 0.35611 0.56534 0.0
C540 C 0.57799 0.44924 0.49482 0.0
C541 C 0.51489 0.38532 0.54471 0.0
N542 N 0.59758 0.5056 0.54238 0.0
N543 N 0.51273 0.32746 0.50534 0.0
H544 H 0.46702 0.36569 0.58903 0.0
H545 H 0.45647 0.32362 0.55697 0.0
H546 H 0.5213 0.31603 0.48126 0.0
H547 H 0.49328 0.30257 0.52459 0.0
H548 H 0.62479 0.52922 0.52674 0.0
H549 H 0.59424 0.51689 0.56877 0.0
H550 H 0.60921 0.51277 0.46937 0.0
H551 H 0.60072 0.46964 0.43915 0.0
C552 C 0.13142 0.57755 0.69285 0.0
C553 C 0.12788 0.54229 0.71522 0.0
C554 C 0.16707 0.52404 0.6669 0.0
C555 C 0.16833 0.55768 0.64353 0.0
N556 N 0.14269 0.60954 0.63033 0.0
N557 N 0.13279 0.47587 0.72069 0.0
C558 C 0.14781 0.58245 0.65534 0.0
C559 C 0.14267 0.51354 0.70129 0.0
N560 N 0.12065 0.60722 0.70785 0.0
N561 N 0.19117 0.5038 0.65735 0.0
H562 H 0.11488 0.46706 0.74606 0.0
H563 H 0.13864 0.45138 0.70994 0.0
H564 H 0.21017 0.51108 0.63269 0.0
H565 H 0.19564 0.48271 0.67542 0.0
H566 H 0.12745 0.63642 0.69433 0.0
H567 H 0.10804 0.60442 0.73516 0.0
H568 H 0.12401 0.625 0.63625 0.0
H569 H 0.15335 0.61319 0.6023 0.0
C570 C 0.58122 0.15444 0.86667 0.0
C571 C 0.58398 0.11596 0.8741 0.0
C572 C 0.59871 0.11276 0.80707 0.0
C573 C 0.60815 0.15706 0.80236 0.0
N574 N 0.61841 0.22368 0.83381 0.0
N575 N 0.60478 0.06306 0.85075 0.0
C576 C 0.60173 0.17902 0.83365 0.0
C577 C 0.59502 0.09597 0.84413 0.0
N578 N 0.55992 0.16803 0.89138 0.0
N579 N 0.59198 0.08621 0.77659 0.0
H580 H 0.60616 0.05176 0.87767 0.0
H581 H 0.61653 0.05057 0.82957 0.0
H582 H 0.58999 0.0957 0.74904 0.0
H583 H 0.58222 0.05285 0.77936 0.0
H584 H 0.55481 0.19455 0.88559 0.0
H585 H 0.54313 0.14973 0.91532 0.0
H586 H 0.61655 0.24039 0.85755 0.0
H587 H 0.63965 0.24492 0.813 0.0
C588 C 0.52304 0.64656 0.03912 0.0
C589 C 0.49898 0.60241 0.05267 0.0
C590 C 0.45591 0.57939 -0.00607 0.0
C591 C 0.4723 0.62433 -0.01526 0.0
N592 N 0.52158 0.70171 -0.00155 0.0
N593 N 0.44 0.5265 0.04394 0.0
C594 C 0.50659 0.65834 0.00688 0.0
C595 C 0.46512 0.56847 0.03014 0.0
N596 N 0.56139 0.67703 0.0573 0.0
N597 N 0.43261 0.54738 0.9676 0.0
H598 H 0.44534 0.51705 0.07053 0.0
H599 H 0.4116 0.5019 0.03009 0.0
H600 H 0.42859 0.55518 0.93994 0.0
H601 H 0.42266 0.51419 0.97172 0.0
H602 H 0.58252 0.70879 0.04698 0.0
H603 H 0.5744 0.66901 0.0808 0.0
H604 H 0.54258 0.72774 0.01623 0.0
H605 H 0.51071 0.71166 0.97477 0.0
C606 C 0.90356 0.50303 0.19487 0.0
C607 C 0.91185 0.46978 0.20914 0.0
C608 C 0.88762 0.43016 0.14901 0.0
C609 C 0.87274 0.45975 0.13715 0.0
N610 N 0.85972 0.52029 0.15187 0.0
N611 N 0.90985 0.40028 0.20154 0.0
C612 C 0.8793 0.49544 0.16068 0.0
C613 C 0.90363 0.43299 0.18662 0.0
N614 N 0.91886 0.54193 0.21411 0.0
N615 N 0.88766 0.40034 0.12402 0.0
H616 H 0.92292 0.40224 0.2286 0.0
H617 H 0.89958 0.37021 0.18808 0.0
H618 H 0.87715 0.39814 0.09601 0.0
H619 H 0.90194 0.38067 0.12993 0.0
H620 H 0.91787 0.56911 0.20302 0.0
H621 H 0.9366 0.54869 0.23953 0.0
H622 H 0.85901 0.54317 0.17034 0.0
H623 H 0.84021 0.51521 0.12778 0.0
loop_
_geom_bond_atom_site_label_1
_geom_bond_atom_site_label_2
_geom_bond_distance
_geom_bond_site_symmetry_2
_ccdc_geom_bond_type
H0 C6 0.930 . S
H1 C9 0.931 . S
H2 C11 0.931 . S
H3 C13 0.930 . S
H4 C15 0.930 . S
H5 C17 0.931 . S
C6 H0 0.930 . S
C6 C7 1.380 . S
C6 C8 1.394 . S
C7 C6 1.380 . S
C7 C11 1.382 . S
C8 C6 1.394 . S
C8 C9 1.400 . S
C9 H1 0.931 . S
C9 C8 1.400 . S
C9 C10 1.375 . S
C10 C9 1.375 . S
C10 C11 1.415 . S
C10 C12 1.501 1_455 S
C11 H2 0.931 . S
C11 C7 1.382 . S
C11 C10 1.415 . S
C12 C10 1.501 1_655 S
C12 C13 1.384 . S
C12 C17 1.408 . S
C13 H3 0.930 . S
C13 C12 1.384 . S
C13 C14 1.389 . S
C14 C13 1.389 . S
C14 C15 1.405 . S
C15 H4 0.930 . S
C15 C14 1.405 . S
C15 C16 1.364 . S
C16 C15 1.364 . S
C16 C17 1.400 . S
C17 H5 0.931 . S
C17 C12 1.408 . S
C17 C16 1.400 . S
H18 C24 0.930 . S
H19 C27 0.931 . S
H20 C29 0.931 . S
H21 C31 0.930 . S
H22 C33 0.930 . S
H23 C35 0.931 . S
C24 H18 0.930 . S
C24 C25 1.380 . S
C24 C26 1.394 . S
C25 C24 1.380 . S
C25 C29 1.382 . S
C26 C24 1.394 . S
C26 C27 1.400 . S
C27 H19 0.931 . S
C27 C26 1.400 . S
C27 C28 1.375 . S
C28 C27 1.375 . S
C28 C29 1.415 . S
C28 C30 1.501 1_545 S
C29 H20 0.931 . S
C29 C25 1.382 . S
C29 C28 1.415 . S
C30 C28 1.501 1_565 S
C30 C31 1.384 . S
C30 C35 1.408 . S
C31 H21 0.930 . S
C31 C30 1.384 . S
C31 C32 1.389 . S
C32 C31 1.389 . S
C32 C33 1.405 . S
C33 H22 0.930 . S
C33 C32 1.405 . S
C33 C34 1.364 . S
C34 C33 1.364 . S
C34 C35 1.400 . S
C35 H23 0.931 . S
C35 C30 1.408 . S
C35 C34 1.400 . S
H36 C42 0.930 . S
H37 C45 0.931 . S
H38 C47 0.931 . S
H39 C49 0.930 . S
H40 C51 0.930 . S
H41 C53 0.931 . S
C42 H36 0.930 . S
C42 C43 1.380 . S
C42 C44 1.394 . S
C43 C42 1.380 . S
C43 C47 1.382 . S
C44 C42 1.394 . S
C44 C45 1.400 . S
C45 H37 0.931 . S
C45 C44 1.400 . S
C45 C46 1.375 . S
C46 C45 1.375 . S
C46 C47 1.415 . S
C46 C48 1.501 . S
C47 H38 0.931 . S
C47 C43 1.382 . S
C47 C46 1.415 . S
C48 C46 1.501 . S
C48 C49 1.384 . S
C48 C53 1.408 . S
C49 H39 0.930 . S
C49 C48 1.384 . S
C49 C50 1.389 . S
C50 C49 1.389 . S
C50 C51 1.405 . S
C51 H40 0.930 . S
C51 C50 1.405 . S
C51 C52 1.364 . S
C52 C51 1.364 . S
C52 C53 1.400 . S
C53 H41 0.931 . S
C53 C48 1.408 . S
C53 C52 1.400 . S
H54 C60 0.930 . S
H55 C63 0.931 . S
H56 C65 0.931 . S
H57 C67 0.930 . S
H58 C69 0.930 . S
H59 C71 0.931 . S
C60 H54 0.930 . S
C60 C61 1.380 . S
C60 C62 1.394 . S
C61 C60 1.380 . S
C61 C65 1.382 . S
C62 C60 1.394 . S
C62 C63 1.400 . S
C63 H55 0.931 . S
C63 C62 1.400 . S
C63 C64 1.375 . S
C64 C63 1.375 . S
C64 C65 1.415 . S
C64 C66 1.501 1_455 S
C65 H56 0.931 . S
C65 C61 1.382 . S
C65 C64 1.415 . S
C66 C64 1.501 1_655 S
C66 C67 1.384 . S
C66 C71 1.408 . S
C67 H57 0.930 . S
C67 C66 1.384 . S
C67 C68 1.389 . S
C68 C67 1.389 . S
C68 C69 1.405 . S
C69 H58 0.930 . S
C69 C68 1.405 . S
C69 C70 1.364 . S
C70 C69 1.364 . S
C70 C71 1.400 . S
C71 H59 0.931 . S
C71 C66 1.408 . S
C71 C70 1.400 . S
H72 C78 0.930 . S
H73 C81 0.931 . S
H74 C83 0.931 . S
H75 C85 0.930 . S
H76 C87 0.930 . S
H77 C89 0.931 . S
C78 H72 0.930 . S
C78 C79 1.380 . S
C78 C80 1.394 1_554 S
C79 C78 1.380 . S
C79 C83 1.382 . S
C80 C78 1.394 1_556 S
C80 C81 1.400 . S
C81 H73 0.931 . S
C81 C80 1.400 . S
C81 C82 1.375 . S
C82 C81 1.375 . S
C82 C83 1.415 1_556 S
C82 C84 1.501 1_565 S
C83 H74 0.931 . S
C83 C79 1.382 . S
C83 C82 1.415 1_554 S
C84 C82 1.501 1_545 S
C84 C85 1.384 1_556 S
C84 C89 1.408 . S
C85 H75 0.930 . S
C85 C84 1.384 1_554 S
C85 C86 1.389 . S
C86 C85 1.389 . S
C86 C87 1.405 1_554 S
C87 H76 0.930 . S
C87 C86 1.405 1_556 S
C87 C88 1.364 . S
C88 C87 1.364 . S
C88 C89 1.400 . S
C89 H77 0.931 . S
C89 C84 1.408 . S
C89 C88 1.400 . S
H90 C96 0.930 . S
H91 C99 0.931 . S
H92 C101 0.931 . S
H93 C103 0.930 . S
H94 C105 0.930 . S
H95 C107 0.931 . S
C96 H90 0.930 . S
C96 C97 1.380 . S
C96 C98 1.394 . S
C97 C96 1.380 . S
C97 C101 1.382 . S
C98 C96 1.394 . S
C98 C99 1.400 . S
C99 H91 0.931 . S
C99 C98 1.400 . S
C99 C100 1.375 . S
C100 C99 1.375 . S
C100 C101 1.415 . S
C100 C102 1.501 . S
C101 H92 0.931 . S
C101 C97 1.382 . S
C101 C100 1.415 . S
C102 C100 1.501 . S
C102 C103 1.384 . S
C102 C107 1.408 . S
C103 H93 0.930 . S
C103 C102 1.384 . S
C103 C104 1.389 . S
C104 C103 1.389 . S
C104 C105 1.405 . S
C105 H94 0.930 . S
C105 C104 1.405 . S
C105 C106 1.364 . S
C106 C105 1.364 . S
C106 C107 1.400 . S
C107 H95 0.931 . S
C107 C102 1.408 . S
C107 C106 1.400 . S
C108 O109 1.306 . S
C108 O111 1.160 . S
O109 C108 1.306 . S
O109 Cd110 2.228 . S
Cd110 O109 2.228 . S
Cd110 O114 2.273 . S
Cd110 O118 2.277 . S
O111 C108 1.160 . S
O111 Cd112 2.203 . S
Cd112 O111 2.203 . S
Cd112 O114 2.411 . S
Cd112 O115 2.333 . S
Cd112 O116 2.352 . S
Cd112 O120 2.277 . S
Cd112 O121 2.356 . S
C113 O118 1.209 . S
C113 O120 1.226 . S
O114 Cd110 2.273 . S
O114 Cd112 2.411 . S
O114 C117 1.320 . S
O115 Cd112 2.333 . S
O115 C117 1.214 . S
O116 Cd112 2.352 . S
O116 C119 1.258 . S
C117 O114 1.320 . S
C117 O115 1.214 . S
O118 Cd110 2.277 . S
O118 C113 1.209 . S
C119 O116 1.258 . S
C119 O121 1.282 . S
O120 Cd112 2.277 . S
O120 C113 1.226 . S
O121 Cd112 2.356 . S
O121 C119 1.282 . S
C122 O123 1.306 . S
C122 O125 1.160 . S
O123 C122 1.306 . S
O123 Cd124 2.228 . S
Cd124 O123 2.228 . S
Cd124 O128 2.273 . S
Cd124 O132 2.277 . S
O125 C122 1.160 . S
O125 Cd126 2.203 . S
Cd126 O125 2.203 . S
Cd126 O128 2.411 . S
Cd126 O129 2.333 . S
Cd126 O130 2.352 . S
Cd126 O134 2.277 . S
Cd126 O135 2.356 . S
C127 O132 1.209 . S
C127 O134 1.226 . S
O128 Cd124 2.273 . S
O128 Cd126 2.411 . S
O128 C131 1.320 . S
O129 Cd126 2.333 . S
O129 C131 1.214 . S
O130 Cd126 2.352 . S
O130 C133 1.258 . S
C131 O128 1.320 . S
C131 O129 1.214 . S
O132 Cd124 2.277 . S
O132 C127 1.209 . S
C133 O130 1.258 . S
C133 O135 1.282 . S
O134 Cd126 2.277 . S
O134 C127 1.226 . S
O135 Cd126 2.356 . S
O135 C133 1.282 . S
C136 O137 1.306 . S
C136 O139 1.160 . S
O137 C136 1.306 . S
O137 Cd138 2.228 . S
Cd138 O137 2.228 . S
Cd138 O142 2.273 . S
Cd138 O146 2.277 . S
O139 C136 1.160 . S
O139 Cd140 2.203 . S
Cd140 O139 2.203 . S
Cd140 O142 2.411 . S
Cd140 O143 2.333 . S
Cd140 O144 2.352 . S
Cd140 O148 2.277 . S
Cd140 O149 2.356 . S
C141 O146 1.209 . S
C141 O148 1.226 . S
O142 Cd138 2.273 . S
O142 Cd140 2.411 . S
O142 C145 1.320 . S
O143 Cd140 2.333 . S
O143 C145 1.214 . S
O144 Cd140 2.352 . S
O144 C147 1.258 . S
C145 O142 1.320 . S
C145 O143 1.214 . S
O146 Cd138 2.277 . S
O146 C141 1.209 . S
C147 O144 1.258 . S
C147 O149 1.282 . S
O148 Cd140 2.277 . S
O148 C141 1.226 . S
O149 Cd140 2.356 . S
O149 C147 1.282 . S
C150 O151 1.306 . S
C150 O153 1.160 . S
O151 C150 1.306 . S
O151 Cd152 2.228 . S
Cd152 O151 2.228 . S
Cd152 O156 2.273 . S
Cd152 O160 2.277 . S
O153 C150 1.160 . S
O153 Cd154 2.203 . S
Cd154 O153 2.203 . S
Cd154 O156 2.411 . S
Cd154 O157 2.333 . S
Cd154 O158 2.352 . S
Cd154 O162 2.277 . S
Cd154 O163 2.356 . S
C155 O160 1.209 . S
C155 O162 1.226 . S
O156 Cd152 2.273 . S
O156 Cd154 2.411 . S
O156 C159 1.320 . S
O157 Cd154 2.333 . S
O157 C159 1.214 . S
O158 Cd154 2.352 . S
O158 C161 1.258 . S
C159 O156 1.320 . S
C159 O157 1.214 . S
O160 Cd152 2.277 . S
O160 C155 1.209 . S
C161 O158 1.258 . S
C161 O163 1.282 . S
O162 Cd154 2.277 . S
O162 C155 1.226 . S
O163 Cd154 2.356 . S
O163 C161 1.282 . S
C164 O165 1.306 . S
C164 O167 1.160 . S
O165 C164 1.306 . S
O165 Cd166 2.228 . S
Cd166 O165 2.228 . S
Cd166 O170 2.273 . S
Cd166 O174 2.277 . S
O167 C164 1.160 . S
O167 Cd168 2.203 . S
Cd168 O167 2.203 . S
Cd168 O170 2.411 . S
Cd168 O171 2.333 . S
Cd168 O172 2.352 . S
Cd168 O176 2.277 . S
Cd168 O177 2.356 . S
C169 O174 1.209 . S
C169 O176 1.226 . S
O170 Cd166 2.273 . S
O170 Cd168 2.411 . S
O170 C173 1.320 . S
O171 Cd168 2.333 . S
O171 C173 1.214 . S
O172 Cd168 2.352 . S
O172 C175 1.258 . S
C173 O170 1.320 . S
C173 O171 1.214 . S
O174 Cd166 2.277 . S
O174 C169 1.209 . S
C175 O172 1.258 . S
C175 O177 1.282 . S
O176 Cd168 2.277 . S
O176 C169 1.226 . S
O177 Cd168 2.356 . S
O177 C175 1.282 . S
C178 O179 1.306 . S
C178 O181 1.160 . S
O179 C178 1.306 . S
O179 Cd180 2.228 . S
Cd180 O179 2.228 . S
Cd180 O184 2.273 . S
Cd180 O188 2.277 . S
O181 C178 1.160 . S
O181 Cd182 2.203 . S
Cd182 O181 2.203 . S
Cd182 O184 2.411 . S
Cd182 O185 2.333 . S
Cd182 O186 2.352 . S
Cd182 O190 2.277 . S
Cd182 O191 2.356 . S
C183 O188 1.209 . S
C183 O190 1.226 . S
O184 Cd180 2.273 . S
O184 Cd182 2.411 . S
O184 C187 1.320 . S
O185 Cd182 2.333 . S
O185 C187 1.214 . S
O186 Cd182 2.352 . S
O186 C189 1.258 . S
C187 O184 1.320 . S
C187 O185 1.214 . S
O188 Cd180 2.277 . S
O188 C183 1.209 . S
C189 O186 1.258 . S
C189 O191 1.282 . S
O190 Cd182 2.277 . S
O190 C183 1.226 . S
O191 Cd182 2.356 . S
O191 C189 1.282 . S
C192 C193 1.363 . S
C192 C198 1.379 . S
C192 N200 1.356 . S
C193 C192 1.363 . S
C193 C199 1.363 . S
C194 C195 1.363 . S
C194 C199 1.379 . S
C194 N201 1.356 . S
C195 C194 1.363 . S
C195 C198 1.363 . S
N196 C198 1.356 . S
N196 H208 0.984 . S
N196 H209 0.985 . S
N197 C199 1.356 . S
N197 H202 0.984 . S
N197 H203 0.985 . S
C198 C192 1.379 . S
C198 C195 1.363 . S
C198 N196 1.356 . S
C199 C193 1.363 . S
C199 C194 1.379 . S
C199 N197 1.356 . S
N200 C192 1.356 . S
N200 H206 0.984 . S
N200 H207 0.984 . S
N201 C194 1.356 . S
N201 H204 0.984 . S
N201 H205 0.985 . S
H202 N197 0.984 . S
H203 N197 0.985 . S
H204 N201 0.984 . S
H205 N201 0.985 . S
H206 N200 0.984 . S
H207 N200 0.984 . S
H208 N196 0.984 . S
H209 N196 0.985 . S
C210 C211 1.363 . S
C210 C216 1.379 . S
C210 N218 1.356 . S
C211 C210 1.363 . S
C211 C217 1.363 . S
C212 C213 1.363 . S
C212 C217 1.379 . S
C212 N219 1.356 . S
C213 C212 1.363 . S
C213 C216 1.363 . S
N214 C216 1.356 . S
N214 H226 0.984 . S
N214 H227 0.985 . S
N215 C217 1.356 . S
N215 H220 0.984 . S
N215 H221 0.985 . S
C216 C210 1.379 . S
C216 C213 1.363 . S
C216 N214 1.356 . S
C217 C211 1.363 . S
C217 C212 1.379 . S
C217 N215 1.356 . S
N218 C210 1.356 . S
N218 H224 0.984 . S
N218 H225 0.984 . S
N219 C212 1.356 . S
N219 H222 0.984 . S
N219 H223 0.985 . S
H220 N215 0.984 . S
H221 N215 0.985 . S
H222 N219 0.984 . S
H223 N219 0.985 . S
H224 N218 0.984 . S
H225 N218 0.984 . S
H226 N214 0.984 . S
H227 N214 0.985 . S
C228 C229 1.363 . S
C228 C234 1.379 . S
C228 N236 1.356 . S
C229 C228 1.363 . S
C229 C235 1.363 . S
C230 C231 1.363 . S
C230 C235 1.379 . S
C230 N237 1.356 . S
C231 C230 1.363 . S
C231 C234 1.363 . S
N232 C234 1.356 . S
N232 H244 0.984 . S
N232 H245 0.985 . S
N233 C235 1.356 . S
N233 H238 0.984 . S
N233 H239 0.985 . S
C234 C228 1.379 . S
C234 C231 1.363 . S
C234 N232 1.356 . S
C235 C229 1.363 . S
C235 C230 1.379 . S
C235 N233 1.356 . S
N236 C228 1.356 . S
N236 H242 0.984 . S
N236 H243 0.984 . S
N237 C230 1.356 . S
N237 H240 0.984 . S
N237 H241 0.985 . S
H238 N233 0.984 . S
H239 N233 0.985 . S
H240 N237 0.984 . S
H241 N237 0.985 . S
H242 N236 0.984 . S
H243 N236 0.984 . S
H244 N232 0.984 . S
H245 N232 0.985 . S
C246 C247 1.363 . S
C246 C252 1.379 . S
C246 N254 1.356 . S
C247 C246 1.363 . S
C247 C253 1.363 . S
C248 C249 1.363 . S
C248 C253 1.379 . S
C248 N255 1.356 . S
C249 C248 1.363 . S
C249 C252 1.363 . S
N250 C252 1.356 . S
N250 H262 0.984 . S
N250 H263 0.985 . S
N251 C253 1.356 . S
N251 H256 0.984 . S
N251 H257 0.985 . S
C252 C246 1.379 . S
C252 C249 1.363 . S
C252 N250 1.356 . S
C253 C247 1.363 . S
C253 C248 1.379 . S
C253 N251 1.356 . S
N254 C246 1.356 . S
N254 H260 0.984 . S
N254 H261 0.984 . S
N255 C248 1.356 . S
N255 H258 0.984 . S
N255 H259 0.985 . S
H256 N251 0.984 . S
H257 N251 0.985 . S
H258 N255 0.984 . S
H259 N255 0.985 . S
H260 N254 0.984 . S
H261 N254 0.984 . S
H262 N250 0.984 . S
H263 N250 0.985 . S
C264 C265 1.363 . S
C264 C270 1.379 . S
C264 N272 1.356 . S
C265 C264 1.363 . S
C265 C271 1.363 . S
C266 C267 1.363 . S
C266 C271 1.379 . S
C266 N273 1.356 . S
C267 C266 1.363 . S
C267 C270 1.363 . S
N268 C270 1.356 . S
N268 H280 0.984 . S
N268 H281 0.985 . S
N269 C271 1.356 1_554 S
N269 H274 0.984 . S
N269 H275 0.985 . S
C270 C264 1.379 . S
C270 C267 1.363 . S
C270 N268 1.356 . S
C271 C265 1.363 . S
C271 C266 1.379 . S
C271 N269 1.356 1_556 S
N272 C264 1.356 . S
N272 H278 0.984 . S
N272 H279 0.984 . S
N273 C266 1.356 . S
N273 H276 0.984 . S
N273 H277 0.985 1_556 S
H274 N269 0.984 . S
H275 N269 0.985 . S
H276 N273 0.984 . S
H277 N273 0.985 1_554 S
H278 N272 0.984 . S
H279 N272 0.984 . S
H280 N268 0.984 . S
H281 N268 0.985 . S
C282 C283 1.363 . S
C282 C288 1.379 . S
C282 N290 1.356 . S
C283 C282 1.363 . S
C283 C289 1.363 . S
C284 C285 1.363 . S
C284 C289 1.379 . S
C284 N291 1.356 . S
C285 C284 1.363 . S
C285 C288 1.363 . S
N286 C288 1.356 . S
N286 H298 0.984 . S
N286 H299 0.985 . S
N287 C289 1.356 . S
N287 H292 0.984 . S
N287 H293 0.985 . S
C288 C282 1.379 . S
C288 C285 1.363 . S
C288 N286 1.356 . S
C289 C283 1.363 . S
C289 C284 1.379 . S
C289 N287 1.356 . S
N290 C282 1.356 . S
N290 H296 0.984 . S
N290 H297 0.984 . S
N291 C284 1.356 . S
N291 H294 0.984 . S
N291 H295 0.985 . S
H292 N287 0.984 . S
H293 N287 0.985 . S
H294 N291 0.984 . S
H295 N291 0.985 . S
H296 N290 0.984 . S
H297 N290 0.984 . S
H298 N286 0.984 . S
H299 N286 0.985 . S
C300 C301 1.363 . S
C300 C306 1.379 . S
C300 N308 1.356 . S
C301 C300 1.363 . S
C301 C307 1.363 . S
C302 C303 1.363 . S
C302 C307 1.379 . S
C302 N309 1.356 . S
C303 C302 1.363 . S
C303 C306 1.363 . S
N304 C306 1.356 . S
N304 H316 0.984 . S
N304 H317 0.985 . S
N305 C307 1.356 . S
N305 H310 0.984 . S
N305 H311 0.985 . S
C306 C300 1.379 . S
C306 C303 1.363 . S
C306 N304 1.356 . S
C307 C301 1.363 . S
C307 C302 1.379 . S
C307 N305 1.356 . S
N308 C300 1.356 . S
N308 H314 0.984 . S
N308 H315 0.984 . S
N309 C302 1.356 . S
N309 H312 0.984 . S
N309 H313 0.985 . S
H310 N305 0.984 . S
H311 N305 0.985 . S
H312 N309 0.984 . S
H313 N309 0.985 . S
H314 N308 0.984 . S
H315 N308 0.984 . S
H316 N304 0.984 . S
H317 N304 0.985 . S
C318 C319 1.363 . S
C318 C324 1.379 . S
C318 N326 1.356 . S
C319 C318 1.363 . S
C319 C325 1.363 . S
C320 C321 1.363 . S
C320 C325 1.379 . S
C320 N327 1.356 . S
C321 C320 1.363 . S
C321 C324 1.363 . S
N322 C324 1.356 . S
N322 H334 0.984 . S
N322 H335 0.985 . S
N323 C325 1.356 . S
N323 H328 0.984 . S
N323 H329 0.985 . S
C324 C318 1.379 . S
C324 C321 1.363 . S
C324 N322 1.356 . S
C325 C319 1.363 . S
C325 C320 1.379 . S
C325 N323 1.356 . S
N326 C318 1.356 . S
N326 H332 0.984 . S
N326 H333 0.984 . S
N327 C320 1.356 . S
N327 H330 0.984 . S
N327 H331 0.985 . S
H328 N323 0.984 . S
H329 N323 0.985 . S
H330 N327 0.984 . S
H331 N327 0.985 . S
H332 N326 0.984 . S
H333 N326 0.984 . S
H334 N322 0.984 . S
H335 N322 0.985 . S
C336 C337 1.363 . S
C336 C342 1.379 . S
C336 N344 1.356 . S
C337 C336 1.363 . S
C337 C343 1.363 . S
C338 C339 1.363 . S
C338 C343 1.379 . S
C338 N345 1.356 . S
C339 C338 1.363 . S
C339 C342 1.363 . S
N340 C342 1.356 . S
N340 H352 0.984 . S
N340 H353 0.985 . S
N341 C343 1.356 . S
N341 H346 0.984 . S
N341 H347 0.985 . S
C342 C336 1.379 . S
C342 C339 1.363 . S
C342 N340 1.356 . S
C343 C337 1.363 . S
C343 C338 1.379 . S
C343 N341 1.356 . S
N344 C336 1.356 . S
N344 H350 0.984 . S
N344 H351 0.984 . S
N345 C338 1.356 . S
N345 H348 0.984 . S
N345 H349 0.985 . S
H346 N341 0.984 . S
H347 N341 0.985 . S
H348 N345 0.984 . S
H349 N345 0.985 . S
H350 N344 0.984 . S
H351 N344 0.984 . S
H352 N340 0.984 . S
H353 N340 0.985 . S
C354 C355 1.363 . S
C354 C360 1.379 . S
C354 N362 1.356 . S
C355 C354 1.363 . S
C355 C361 1.363 1_554 S
C356 C357 1.363 . S
C356 C361 1.379 1_554 S
C356 N363 1.356 1_554 S
C357 C356 1.363 . S
C357 C360 1.363 . S
N358 C360 1.356 . S
N358 H370 0.984 . S
N358 H371 0.985 . S
N359 C361 1.356 . S
N359 H364 0.984 . S
N359 H365 0.985 . S
C360 C354 1.379 . S
C360 C357 1.363 . S
C360 N358 1.356 . S
C361 C355 1.363 1_556 S
C361 C356 1.379 1_556 S
C361 N359 1.356 . S
N362 C354 1.356 . S
N362 H368 0.984 . S
N362 H369 0.984 . S
N363 C356 1.356 1_556 S
N363 H366 0.984 1_556 S
N363 H367 0.985 . S
H364 N359 0.984 . S
H365 N359 0.985 . S
H366 N363 0.984 1_554 S
H367 N363 0.985 . S
H368 N362 0.984 . S
H369 N362 0.984 . S
H370 N358 0.984 . S
H371 N358 0.985 . S
C372 C373 1.363 . S
C372 C378 1.379 . S
C372 N380 1.356 . S
C373 C372 1.363 . S
C373 C379 1.363 . S
C374 C375 1.363 . S
C374 C379 1.379 . S
C374 N381 1.356 . S
C375 C374 1.363 . S
C375 C378 1.363 . S
N376 C378 1.356 . S
N376 H388 0.984 . S
N376 H389 0.985 . S
N377 C379 1.356 . S
N377 H382 0.984 . S
N377 H383 0.985 . S
C378 C372 1.379 . S
C378 C375 1.363 . S
C378 N376 1.356 . S
C379 C373 1.363 . S
C379 C374 1.379 . S
C379 N377 1.356 . S
N380 C372 1.356 . S
N380 H386 0.984 . S
N380 H387 0.984 . S
N381 C374 1.356 . S
N381 H384 0.984 . S
N381 H385 0.985 . S
H382 N377 0.984 . S
H383 N377 0.985 . S
H384 N381 0.984 . S
H385 N381 0.985 . S
H386 N380 0.984 . S
H387 N380 0.984 . S
H388 N376 0.984 . S
H389 N376 0.985 . S
C390 C391 1.363 . S
C390 C396 1.379 . S
C390 N398 1.356 . S
C391 C390 1.363 . S
C391 C397 1.363 . S
C392 C393 1.363 . S
C392 C397 1.379 . S
C392 N399 1.356 . S
C393 C392 1.363 . S
C393 C396 1.363 . S
N394 C396 1.356 . S
N394 H406 0.984 . S
N394 H407 0.985 . S
N395 C397 1.356 . S
N395 H400 0.984 . S
N395 H401 0.985 . S
C396 C390 1.379 . S
C396 C393 1.363 . S
C396 N394 1.356 . S
C397 C391 1.363 . S
C397 C392 1.379 . S
C397 N395 1.356 . S
N398 C390 1.356 . S
N398 H404 0.984 . S
N398 H405 0.984 . S
N399 C392 1.356 . S
N399 H402 0.984 . S
N399 H403 0.985 . S
H400 N395 0.984 . S
H401 N395 0.985 . S
H402 N399 0.984 . S
H403 N399 0.985 . S
H404 N398 0.984 . S
H405 N398 0.984 . S
H406 N394 0.984 . S
H407 N394 0.985 . S
C408 C409 1.363 . S
C408 C414 1.379 . S
C408 N416 1.356 . S
C409 C408 1.363 . S
C409 C415 1.363 . S
C410 C411 1.363 . S
C410 C415 1.379 . S
C410 N417 1.356 . S
C411 C410 1.363 . S
C411 C414 1.363 . S
N412 C414 1.356 . S
N412 H424 0.984 . S
N412 H425 0.985 . S
N413 C415 1.356 . S
N413 H418 0.984 . S
N413 H419 0.985 . S
C414 C408 1.379 . S
C414 C411 1.363 . S
C414 N412 1.356 . S
C415 C409 1.363 . S
C415 C410 1.379 . S
C415 N413 1.356 . S
N416 C408 1.356 . S
N416 H422 0.984 . S
N416 H423 0.984 . S
N417 C410 1.356 . S
N417 H420 0.984 . S
N417 H421 0.985 . S
H418 N413 0.984 . S
H419 N413 0.985 . S
H420 N417 0.984 . S
H421 N417 0.985 . S
H422 N416 0.984 . S
H423 N416 0.984 . S
H424 N412 0.984 . S
H425 N412 0.985 . S
C426 C427 1.363 . S
C426 C432 1.379 . S
C426 N434 1.356 . S
C427 C426 1.363 . S
C427 C433 1.363 . S
C428 C429 1.363 . S
C428 C433 1.379 . S
C428 N435 1.356 . S
C429 C428 1.363 . S
C429 C432 1.363 . S
N430 C432 1.356 . S
N430 H442 0.984 . S
N430 H443 0.985 . S
N431 C433 1.356 . S
N431 H436 0.984 . S
N431 H437 0.985 . S
C432 C426 1.379 . S
C432 C429 1.363 . S
C432 N430 1.356 . S
C433 C427 1.363 . S
C433 C428 1.379 . S
C433 N431 1.356 . S
N434 C426 1.356 . S
N434 H440 0.984 . S
N434 H441 0.984 . S
N435 C428 1.356 . S
N435 H438 0.984 . S
N435 H439 0.985 . S
H436 N431 0.984 . S
H437 N431 0.985 . S
H438 N435 0.984 . S
H439 N435 0.985 . S
H440 N434 0.984 . S
H441 N434 0.984 . S
H442 N430 0.984 . S
H443 N430 0.985 . S
C444 C445 1.363 . S
C444 C450 1.379 . S
C444 N452 1.356 . S
C445 C444 1.363 . S
C445 C451 1.363 . S
C446 C447 1.363 . S
C446 C451 1.379 . S
C446 N453 1.356 . S
C447 C446 1.363 . S
C447 C450 1.363 . S
N448 C450 1.356 . S
N448 H460 0.984 . S
N448 H461 0.985 . S
N449 C451 1.356 . S
N449 H454 0.984 . S
N449 H455 0.985 . S
C450 C444 1.379 . S
C450 C447 1.363 . S
C450 N448 1.356 . S
C451 C445 1.363 . S
C451 C446 1.379 . S
C451 N449 1.356 . S
N452 C444 1.356 . S
N452 H458 0.984 . S
N452 H459 0.984 . S
N453 C446 1.356 . S
N453 H456 0.984 . S
N453 H457 0.985 . S
H454 N449 0.984 . S
H455 N449 0.985 . S
H456 N453 0.984 . S
H457 N453 0.985 . S
H458 N452 0.984 . S
H459 N452 0.984 . S
H460 N448 0.984 . S
H461 N448 0.985 . S
C462 C463 1.363 . S
C462 C468 1.379 . S
C462 N470 1.356 . S
C463 C462 1.363 . S
C463 C469 1.363 . S
C464 C465 1.363 . S
C464 C469 1.379 . S
C464 N471 1.356 1_556 S
C465 C464 1.363 . S
C465 C468 1.363 . S
N466 C468 1.356 . S
N466 H478 0.984 . S
N466 H479 0.985 . S
N467 C469 1.356 . S
N467 H472 0.984 . S
N467 H473 0.985 . S
C468 C462 1.379 . S
C468 C465 1.363 . S
C468 N466 1.356 . S
C469 C463 1.363 . S
C469 C464 1.379 . S
C469 N467 1.356 . S
N470 C462 1.356 . S
N470 H476 0.984 . S
N470 H477 0.984 . S
N471 C464 1.356 1_554 S
N471 H474 0.984 . S
N471 H475 0.985 . S
H472 N467 0.984 . S
H473 N467 0.985 . S
H474 N471 0.984 . S
H475 N471 0.985 . S
H476 N470 0.984 . S
H477 N470 0.984 . S
H478 N466 0.984 . S
H479 N466 0.985 . S
C480 C481 1.363 . S
C480 C486 1.379 . S
C480 N488 1.356 . S
C481 C480 1.363 . S
C481 C487 1.363 . S
C482 C483 1.363 . S
C482 C487 1.379 . S
C482 N489 1.356 . S
C483 C482 1.363 . S
C483 C486 1.363 . S
N484 C486 1.356 . S
N484 H496 0.984 . S
N484 H497 0.985 . S
N485 C487 1.356 . S
N485 H490 0.984 . S
N485 H491 0.985 . S
C486 C480 1.379 . S
C486 C483 1.363 . S
C486 N484 1.356 . S
C487 C481 1.363 . S
C487 C482 1.379 . S
C487 N485 1.356 . S
N488 C480 1.356 . S
N488 H494 0.984 . S
N488 H495 0.984 . S
N489 C482 1.356 . S
N489 H492 0.984 . S
N489 H493 0.985 . S
H490 N485 0.984 . S
H491 N485 0.985 . S
H492 N489 0.984 . S
H493 N489 0.985 . S
H494 N488 0.984 . S
H495 N488 0.984 . S
H496 N484 0.984 . S
H497 N484 0.985 . S
C498 C499 1.363 . S
C498 C504 1.379 . S
C498 N506 1.356 . S
C499 C498 1.363 . S
C499 C505 1.363 . S
C500 C501 1.363 . S
C500 C505 1.379 . S
C500 N507 1.356 . S
C501 C500 1.363 . S
C501 C504 1.363 . S
N502 C504 1.356 . S
N502 H514 0.984 . S
N502 H515 0.985 . S
N503 C505 1.356 . S
N503 H508 0.984 . S
N503 H509 0.985 . S
C504 C498 1.379 . S
C504 C501 1.363 . S
C504 N502 1.356 . S
C505 C499 1.363 . S
C505 C500 1.379 . S
C505 N503 1.356 . S
N506 C498 1.356 . S
N506 H512 0.984 . S
N506 H513 0.984 . S
N507 C500 1.356 . S
N507 H510 0.984 . S
N507 H511 0.985 . S
H508 N503 0.984 . S
H509 N503 0.985 . S
H510 N507 0.984 . S
H511 N507 0.985 . S
H512 N506 0.984 . S
H513 N506 0.984 . S
H514 N502 0.984 . S
H515 N502 0.985 . S
C516 C517 1.363 . S
C516 C522 1.379 . S
C516 N524 1.356 . S
C517 C516 1.363 . S
C517 C523 1.363 . S
C518 C519 1.363 . S
C518 C523 1.379 . S
C518 N525 1.356 . S
C519 C518 1.363 . S
C519 C522 1.363 . S
N520 C522 1.356 . S
N520 H532 0.984 . S
N520 H533 0.985 . S
N521 C523 1.356 . S
N521 H526 0.984 . S
N521 H527 0.985 . S
C522 C516 1.379 . S
C522 C519 1.363 . S
C522 N520 1.356 . S
C523 C517 1.363 . S
C523 C518 1.379 . S
C523 N521 1.356 . S
N524 C516 1.356 . S
N524 H530 0.984 . S
N524 H531 0.984 . S
N525 C518 1.356 . S
N525 H528 0.984 . S
N525 H529 0.985 . S
H526 N521 0.984 . S
H527 N521 0.985 . S
H528 N525 0.984 . S
H529 N525 0.985 . S
H530 N524 0.984 . S
H531 N524 0.984 . S
H532 N520 0.984 . S
H533 N520 0.985 . S
C534 C535 1.363 . S
C534 C540 1.379 . S
C534 N542 1.356 . S
C535 C534 1.363 . S
C535 C541 1.363 . S
C536 C537 1.363 . S
C536 C541 1.379 . S
C536 N543 1.356 . S
C537 C536 1.363 . S
C537 C540 1.363 . S
N538 C540 1.356 . S
N538 H550 0.984 . S
N538 H551 0.985 . S
N539 C541 1.356 . S
N539 H544 0.984 . S
N539 H545 0.985 . S
C540 C534 1.379 . S
C540 C537 1.363 . S
C540 N538 1.356 . S
C541 C535 1.363 . S
C541 C536 1.379 . S
C541 N539 1.356 . S
N542 C534 1.356 . S
N542 H548 0.984 . S
N542 H549 0.984 . S
N543 C536 1.356 . S
N543 H546 0.984 . S
N543 H547 0.985 . S
H544 N539 0.984 . S
H545 N539 0.985 . S
H546 N543 0.984 . S
H547 N543 0.985 . S
H548 N542 0.984 . S
H549 N542 0.984 . S
H550 N538 0.984 . S
H551 N538 0.985 . S
C552 C553 1.363 . S
C552 C558 1.379 . S
C552 N560 1.356 . S
C553 C552 1.363 . S
C553 C559 1.363 . S
C554 C555 1.363 . S
C554 C559 1.379 . S
C554 N561 1.356 . S
C555 C554 1.363 . S
C555 C558 1.363 . S
N556 C558 1.356 . S
N556 H568 0.984 . S
N556 H569 0.985 . S
N557 C559 1.356 . S
N557 H562 0.984 . S
N557 H563 0.985 . S
C558 C552 1.379 . S
C558 C555 1.363 . S
C558 N556 1.356 . S
C559 C553 1.363 . S
C559 C554 1.379 . S
C559 N557 1.356 . S
N560 C552 1.356 . S
N560 H566 0.984 . S
N560 H567 0.984 . S
N561 C554 1.356 . S
N561 H564 0.984 . S
N561 H565 0.985 . S
H562 N557 0.984 . S
H563 N557 0.985 . S
H564 N561 0.984 . S
H565 N561 0.985 . S
H566 N560 0.984 . S
H567 N560 0.984 . S
H568 N556 0.984 . S
H569 N556 0.985 . S
C570 C571 1.363 . S
C570 C576 1.379 . S
C570 N578 1.356 . S
C571 C570 1.363 . S
C571 C577 1.363 . S
C572 C573 1.363 . S
C572 C577 1.379 . S
C572 N579 1.356 . S
C573 C572 1.363 . S
C573 C576 1.363 . S
N574 C576 1.356 . S
N574 H586 0.984 . S
N574 H587 0.985 . S
N575 C577 1.356 . S
N575 H580 0.984 . S
N575 H581 0.985 . S
C576 C570 1.379 . S
C576 C573 1.363 . S
C576 N574 1.356 . S
C577 C571 1.363 . S
C577 C572 1.379 . S
C577 N575 1.356 . S
N578 C570 1.356 . S
N578 H584 0.984 . S
N578 H585 0.984 . S
N579 C572 1.356 . S
N579 H582 0.984 . S
N579 H583 0.985 . S
H580 N575 0.984 . S
H581 N575 0.985 . S
H582 N579 0.984 . S
H583 N579 0.985 . S
H584 N578 0.984 . S
H585 N578 0.984 . S
H586 N574 0.984 . S
H587 N574 0.985 . S
C588 C589 1.363 . S
C588 C594 1.379 . S
C588 N596 1.356 . S
C589 C588 1.363 . S
C589 C595 1.363 . S
C590 C591 1.363 . S
C590 C595 1.379 1_556 S
C590 N597 1.356 . S
C591 C590 1.363 . S
C591 C594 1.363 1_556 S
N592 C594 1.356 . S
N592 H604 0.984 . S
N592 H605 0.985 . S
N593 C595 1.356 . S
N593 H598 0.984 . S
N593 H599 0.970 1_554 S
C594 C588 1.379 . S
C594 C591 1.363 1_554 S
C594 N592 1.356 . S
C595 C589 1.363 . S
C595 C590 1.379 1_554 S
C595 N593 1.356 . S
N596 C588 1.356 . S
N596 H602 0.984 . S
N596 H603 0.984 . S
N597 C590 1.356 . S
N597 H600 0.984 . S
N597 H601 0.985 . S
H598 N593 0.984 . S
H599 N593 0.970 1_556 S
H600 N597 0.984 . S
H601 N597 0.985 . S
H602 N596 0.984 . S
H603 N596 0.984 . S
H604 N592 0.984 . S
H605 N592 0.985 . S
C606 C607 1.363 . S
C606 C612 1.379 . S
C606 N614 1.356 . S
C607 C606 1.363 . S
C607 C613 1.363 . S
C608 C609 1.363 . S
C608 C613 1.379 . S
C608 N615 1.356 . S
C609 C608 1.363 . S
C609 C612 1.363 . S
N610 C612 1.356 . S
N610 H622 0.984 . S
N610 H623 0.985 . S
N611 C613 1.356 . S
N611 H616 0.984 . S
N611 H617 0.985 . S
C612 C606 1.379 . S
C612 C609 1.363 . S
C612 N610 1.356 . S
C613 C607 1.363 . S
C613 C608 1.379 . S
C613 N611 1.356 . S
N614 C606 1.356 . S
N614 H620 0.984 . S
N614 H621 0.984 . S
N615 C608 1.356 . S
N615 H618 0.984 . S
N615 H619 0.985 . S
H616 N611 0.984 . S
H617 N611 0.985 . S
H618 N615 0.984 . S
H619 N615 0.985 . S
H620 N614 0.984 . S
H621 N614 0.984 . S
H622 N610 0.984 . S
H623 N610 0.985 . S
C195 C178 1.566 . S
C193 C8 1.522 . S
C211 C26 1.515 . S
C213 C119 1.565 . S
C229 C50 1.508 . S
C231 C122 1.562 . S
C247 C68 1.521 . S
C249 C136 1.570 . S
C267 C161 1.564 . S
C265 C80 1.514 . S
C283 C104 1.504 . S
C285 C164 1.557 . S
C301 C32 1.495 . S
C303 C133 1.551 . S
C319 C44 1.508 . S
C321 C147 1.554 . S
C337 C62 1.498 . S
C339 C150 1.543 . S
C357 C175 1.546 . S
C355 C86 1.491 . S
C375 C189 1.553 . S
C373 C98 1.507 . S
C393 C108 1.546 . S
C391 C14 1.497 . S
C409 C7 1.456 . S
C411 C131 1.501 . S
C427 C25 1.458 . S
C429 C145 1.511 . S
C447 C155 1.509 . S
C445 C52 1.460 . S
C463 C70 1.458 . S
C465 C173 1.501 1_556 S
C483 C187 1.510 . S
C481 C79 1.457 . S
C501 C113 1.509 . S
C499 C106 1.461 . S
C519 C183 1.527 . S
C517 C34 1.471 . S
C535 C43 1.461 . S
C537 C117 1.516 . S
C555 C127 1.521 . S
C553 C61 1.469 . S
C571 C88 1.472 . S
C573 C141 1.528 . S
C589 C97 1.461 . S
C591 C159 1.516 . S
C607 C16 1.470 . S
C609 C169 1.521 . S
