# Generated by pormake.
# Topology llk, (3,12)-cn, num edge types: 1
# Building blocks:
#     Node 0, Type 0, BuildingBlock: BETDAH_clean_linker_0, # of connection points: 3
#     Node 1, Type 0, BuildingBlock: BETDAH_clean_linker_0, # of connection points: 3
#     Node 2, Type 0, BuildingBlock: BETDAH_clean_linker_0, # of connection points: 3
#     Node 3, Type 0, BuildingBlock: BETDAH_clean_linker_0, # of connection points: 3
#     Node 4, Type 0, BuildingBlock: BETDAH_clean_linker_0, # of connection points: 3
#     Node 5, Type 0, BuildingBlock: BETDAH_clean_linker_0, # of connection points: 3
#     Node 6, Type 0, BuildingBlock: BETDAH_clean_linker_0, # of connection points: 3
#     Node 7, Type 0, BuildingBlock: BETDAH_clean_linker_0, # of connection points: 3
#     Node 8, Type 0, BuildingBlock: BETDAH_clean_linker_0, # of connection points: 3
#     Node 9, Type 0, BuildingBlock: BETDAH_clean_linker_0, # of connection points: 3
#     Node 10, Type 0, BuildingBlock: BETDAH_clean_linker_0, # of connection points: 3
#     Node 11, Type 0, BuildingBlock: BETDAH_clean_linker_0, # of connection points: 3
#     Node 12, Type 0, BuildingBlock: BETDAH_clean_linker_0, # of connection points: 3
#     Node 13, Type 0, BuildingBlock: BETDAH_clean_linker_0, # of connection points: 3
#     Node 14, Type 0, BuildingBlock: BETDAH_clean_linker_0, # of connection points: 3
#     Node 15, Type 0, BuildingBlock: BETDAH_clean_linker_0, # of connection points: 3
#     Node 16, Type 0, BuildingBlock: BETDAH_clean_linker_0, # of connection points: 3
#     Node 17, Type 0, BuildingBlock: BETDAH_clean_linker_0, # of connection points: 3
#     Node 18, Type 0, BuildingBlock: BETDAH_clean_linker_0, # of connection points: 3
#     Node 19, Type 0, BuildingBlock: BETDAH_clean_linker_0, # of connection points: 3
#     Node 20, Type 0, BuildingBlock: BETDAH_clean_linker_0, # of connection points: 3
#     Node 21, Type 0, BuildingBlock: BETDAH_clean_linker_0, # of connection points: 3
#     Node 22, Type 0, BuildingBlock: BETDAH_clean_linker_0, # of connection points: 3
#     Node 23, Type 0, BuildingBlock: BETDAH_clean_linker_0, # of connection points: 3
#     Node 24, Type 1, BuildingBlock: EZIPEK_clean_sbu_0, # of connection points: 12
#     Node 25, Type 1, BuildingBlock: EZIPEK_clean_sbu_0, # of connection points: 12
#     Node 26, Type 1, BuildingBlock: EZIPEK_clean_sbu_0, # of connection points: 12
#     Node 27, Type 1, BuildingBlock: EZIPEK_clean_sbu_0, # of connection points: 12
#     Node 28, Type 1, BuildingBlock: EZIPEK_clean_sbu_0, # of connection points: 12
#     Node 29, Type 1, BuildingBlock: EZIPEK_clean_sbu_0, # of connection points: 12
#     Edge 30, Type (0, 1), BuildingBlock: ZUJKAS_clean_linker_0, # of connection points: 2
#     Edge 31, Type (0, 1), BuildingBlock: ZUJKAS_clean_linker_0, # of connection points: 2
#     Edge 32, Type (0, 1), BuildingBlock: ZUJKAS_clean_linker_0, # of connection points: 2
#     Edge 33, Type (0, 1), BuildingBlock: ZUJKAS_clean_linker_0, # of connection points: 2
#     Edge 34, Type (0, 1), BuildingBlock: ZUJKAS_clean_linker_0, # of connection points: 2
#     Edge 35, Type (0, 1), BuildingBlock: ZUJKAS_clean_linker_0, # of connection points: 2
#     Edge 36, Type (0, 1), BuildingBlock: ZUJKAS_clean_linker_0, # of connection points: 2
#     Edge 37, Type (0, 1), BuildingBlock: ZUJKAS_clean_linker_0, # of connection points: 2
#     Edge 38, Type (0, 1), BuildingBlock: ZUJKAS_clean_linker_0, # of connection points: 2
#     Edge 39, Type (0, 1), BuildingBlock: ZUJKAS_clean_linker_0, # of connection points: 2
#     Edge 40, Type (0, 1), BuildingBlock: ZUJKAS_clean_linker_0, # of connection points: 2
#     Edge 41, Type (0, 1), BuildingBlock: ZUJKAS_clean_linker_0, # of connection points: 2
#     Edge 42, Type (0, 1), BuildingBlock: ZUJKAS_clean_linker_0, # of connection points: 2
#     Edge 43, Type (0, 1), BuildingBlock: ZUJKAS_clean_linker_0, # of connection points: 2
#     Edge 44, Type (0, 1), BuildingBlock: ZUJKAS_clean_linker_0, # of connection points: 2
#     Edge 45, Type (0, 1), BuildingBlock: ZUJKAS_clean_linker_0, # of connection points: 2
#     Edge 46, Type (0, 1), BuildingBlock: ZUJKAS_clean_linker_0, # of connection points: 2
#     Edge 47, Type (0, 1), BuildingBlock: ZUJKAS_clean_linker_0, # of connection points: 2
#     Edge 48, Type (0, 1), BuildingBlock: ZUJKAS_clean_linker_0, # of connection points: 2
#     Edge 49, Type (0, 1), BuildingBlock: ZUJKAS_clean_linker_0, # of connection points: 2
#     Edge 50, Type (0, 1), BuildingBlock: ZUJKAS_clean_linker_0, # of connection points: 2
#     Edge 51, Type (0, 1), BuildingBlock: ZUJKAS_clean_linker_0, # of connection points: 2
#     Edge 52, Type (0, 1), BuildingBlock: ZUJKAS_clean_linker_0, # of connection points: 2
#     Edge 53, Type (0, 1), BuildingBlock: ZUJKAS_clean_linker_0, # of connection points: 2
#     Edge 54, Type (0, 1), BuildingBlock: ZUJKAS_clean_linker_0, # of connection points: 2
#     Edge 55, Type (0, 1), BuildingBlock: ZUJKAS_clean_linker_0, # of connection points: 2
#     Edge 56, Type (0, 1), BuildingBlock: ZUJKAS_clean_linker_0, # of connection points: 2
#     Edge 57, Type (0, 1), BuildingBlock: ZUJKAS_clean_linker_0, # of connection points: 2
#     Edge 58, Type (0, 1), BuildingBlock: ZUJKAS_clean_linker_0, # of connection points: 2
#     Edge 59, Type (0, 1), BuildingBlock: ZUJKAS_clean_linker_0, # of connection points: 2
#     Edge 60, Type (0, 1), BuildingBlock: ZUJKAS_clean_linker_0, # of connection points: 2
#     Edge 61, Type (0, 1), BuildingBlock: ZUJKAS_clean_linker_0, # of connection points: 2
#     Edge 62, Type (0, 1), BuildingBlock: ZUJKAS_clean_linker_0, # of connection points: 2
#     Edge 63, Type (0, 1), BuildingBlock: ZUJKAS_clean_linker_0, # of connection points: 2
#     Edge 64, Type (0, 1), BuildingBlock: ZUJKAS_clean_linker_0, # of connection points: 2
#     Edge 65, Type (0, 1), BuildingBlock: ZUJKAS_clean_linker_0, # of connection points: 2
#     Edge 66, Type (0, 1), BuildingBlock: ZUJKAS_clean_linker_0, # of connection points: 2
#     Edge 67, Type (0, 1), BuildingBlock: ZUJKAS_clean_linker_0, # of connection points: 2
#     Edge 68, Type (0, 1), BuildingBlock: ZUJKAS_clean_linker_0, # of connection points: 2
#     Edge 69, Type (0, 1), BuildingBlock: ZUJKAS_clean_linker_0, # of connection points: 2
#     Edge 70, Type (0, 1), BuildingBlock: ZUJKAS_clean_linker_0, # of connection points: 2
#     Edge 71, Type (0, 1), BuildingBlock: ZUJKAS_clean_linker_0, # of connection points: 2
#     Edge 72, Type (0, 1), BuildingBlock: ZUJKAS_clean_linker_0, # of connection points: 2
#     Edge 73, Type (0, 1), BuildingBlock: ZUJKAS_clean_linker_0, # of connection points: 2
#     Edge 74, Type (0, 1), BuildingBlock: ZUJKAS_clean_linker_0, # of connection points: 2
#     Edge 75, Type (0, 1), BuildingBlock: ZUJKAS_clean_linker_0, # of connection points: 2
#     Edge 76, Type (0, 1), BuildingBlock: ZUJKAS_clean_linker_0, # of connection points: 2
#     Edge 77, Type (0, 1), BuildingBlock: ZUJKAS_clean_linker_0, # of connection points: 2
#     Edge 78, Type (0, 1), BuildingBlock: ZUJKAS_clean_linker_0, # of connection points: 2
#     Edge 79, Type (0, 1), BuildingBlock: ZUJKAS_clean_linker_0, # of connection points: 2
#     Edge 80, Type (0, 1), BuildingBlock: ZUJKAS_clean_linker_0, # of connection points: 2
#     Edge 81, Type (0, 1), BuildingBlock: ZUJKAS_clean_linker_0, # of connection points: 2
#     Edge 82, Type (0, 1), BuildingBlock: ZUJKAS_clean_linker_0, # of connection points: 2
#     Edge 83, Type (0, 1), BuildingBlock: ZUJKAS_clean_linker_0, # of connection points: 2
#     Edge 84, Type (0, 1), BuildingBlock: ZUJKAS_clean_linker_0, # of connection points: 2
#     Edge 85, Type (0, 1), BuildingBlock: ZUJKAS_clean_linker_0, # of connection points: 2
#     Edge 86, Type (0, 1), BuildingBlock: ZUJKAS_clean_linker_0, # of connection points: 2
#     Edge 87, Type (0, 1), BuildingBlock: ZUJKAS_clean_linker_0, # of connection points: 2
#     Edge 88, Type (0, 1), BuildingBlock: ZUJKAS_clean_linker_0, # of connection points: 2
#     Edge 89, Type (0, 1), BuildingBlock: ZUJKAS_clean_linker_0, # of connection points: 2
#     Edge 90, Type (0, 1), BuildingBlock: ZUJKAS_clean_linker_0, # of connection points: 2
#     Edge 91, Type (0, 1), BuildingBlock: ZUJKAS_clean_linker_0, # of connection points: 2
#     Edge 92, Type (0, 1), BuildingBlock: ZUJKAS_clean_linker_0, # of connection points: 2
#     Edge 93, Type (0, 1), BuildingBlock: ZUJKAS_clean_linker_0, # of connection points: 2
#     Edge 94, Type (0, 1), BuildingBlock: ZUJKAS_clean_linker_0, # of connection points: 2
#     Edge 95, Type (0, 1), BuildingBlock: ZUJKAS_clean_linker_0, # of connection points: 2
#     Edge 96, Type (0, 1), BuildingBlock: ZUJKAS_clean_linker_0, # of connection points: 2
#     Edge 97, Type (0, 1), BuildingBlock: ZUJKAS_clean_linker_0, # of connection points: 2
#     Edge 98, Type (0, 1), BuildingBlock: ZUJKAS_clean_linker_0, # of connection points: 2
#     Edge 99, Type (0, 1), BuildingBlock: ZUJKAS_clean_linker_0, # of connection points: 2
#     Edge 100, Type (0, 1), BuildingBlock: ZUJKAS_clean_linker_0, # of connection points: 2
#     Edge 101, Type (0, 1), BuildingBlock: ZUJKAS_clean_linker_0, # of connection points: 2
# Relax obj value: 0.068
# Max RMSD: 0.164
# Mean RMSD: 0.121
data_MOF--net-llk--node1-EZIPEK_clean_sbu_0--node2-BETDAH_clean_linker_0--edge1-ZUJKAS_clean_linker_0
_symmetry_space_group_name_H-M    P1
_symmetry_Int_Tables_number       1
_symmetry_cell_setting            triclinic
loop_
_symmetry_equiv_pos_as_xyz
'x, y, z'
_cell_length_a     59.713445
_cell_length_b     60.107331
_cell_length_c     60.494465
_cell_angle_alpha  90.012413
_cell_angle_beta   90.000233
_cell_angle_gamma 89.998325
loop_
_atom_site_label
_atom_site_type_symbol
_atom_site_fract_x
_atom_site_fract_y
_atom_site_fract_z
_atom_type_partial_charge
H0 H 0.0136 0.25262 0.3218 0.0
H1 H 0.01082 0.28829 0.26038 0.0
H2 H 0.01444 0.21668 0.26031 0.0
C3 C 0.01332 0.25254 0.30387 0.0
C4 C 0.0143 0.23219 0.29256 0.0
C5 C 0.01196 0.27278 0.29241 0.0
C6 C 0.01188 0.27266 0.2692 0.0
C7 C 0.01269 0.25241 0.25751 0.0
C8 C 0.01371 0.23226 0.2693 0.0
N9 N 0.01252 0.25176 0.23398 0.0
C10 C 0.01219 0.27062 0.22057 0.0
H11 H 0.6989 0.00685 0.25767 0.0
H12 H 0.76156 0.00205 0.29198 0.0
H13 H 0.76036 0.00212 0.22086 0.0
C14 C 0.71702 0.00594 0.25728 0.0
C15 C 0.72811 0.00489 0.23685 0.0
C16 C 0.72898 0.00492 0.27721 0.0
C17 C 0.75237 0.00282 0.27661 0.0
C18 C 0.76379 0.00193 0.25626 0.0
C19 C 0.75154 0.00279 0.2365 0.0
N20 N 0.78751 1.00025 0.25508 0.0
C21 C 0.80146 1.0005 0.2735 0.0
H22 H 0.02078 0.68561 0.25784 0.0
H23 H 0.01578 0.74707 0.29358 0.0
H24 H 0.01418 0.74733 0.22244 0.0
C25 C 0.01957 0.7036 0.25785 0.0
C26 C 0.01802 0.71499 0.23765 0.0
C27 C 0.01867 0.71503 0.27806 0.0
C28 C 0.01625 0.73826 0.27801 0.0
C29 C 0.01462 0.75003 0.25797 0.0
C30 C 0.01536 0.73826 0.23788 0.0
N31 N 0.01227 0.77359 0.25744 0.0
C32 C 0.01204 0.78715 0.27615 0.0
H33 H 0.26623 1.00027 0.32291 0.0
H34 H 0.30165 0.00133 0.26117 0.0
H35 H 0.22968 0.99628 0.26177 0.0
C36 C 0.26603 0.99987 0.30499 0.0
C37 C 0.24551 0.99805 0.29385 0.0
C38 C 0.28629 0.00112 0.29332 0.0
C39 C 0.286 1.00032 0.27013 0.0
C40 C 0.26556 0.99865 0.25864 0.0
C41 C 0.24541 0.9977 0.27061 0.0
N42 N 0.26464 0.99781 0.23515 0.0
C43 C 0.28335 0.99828 0.22138 0.0
H44 H 0.00796 0.7489 0.69063 0.0
H45 H 0.01377 0.71363 0.75206 0.0
H46 H 0.01463 0.78529 0.75152 0.0
C47 C 0.0093 0.74913 0.7085 0.0
C48 C 0.01076 0.7696 0.71956 0.0
C49 C 0.01047 0.72892 0.72006 0.0
C50 C 0.01305 0.72922 0.74313 0.0
C51 C 0.0145 0.74955 0.7546 0.0
C52 C 0.01354 0.76965 0.74268 0.0
N53 N 0.01685 0.75034 0.77801 0.0
C54 C 0.01693 0.73163 0.79165 0.0
H55 H 0.26366 0.99224 0.69127 0.0
H56 H 0.30083 0.00142 0.75132 0.0
H57 H 0.22874 0.00444 0.7522 0.0
C58 C 0.26395 0.99477 0.70902 0.0
C59 C 0.24372 0.99772 0.72038 0.0
C60 C 0.28457 0.99616 0.72001 0.0
C61 C 0.28492 1.00039 0.74284 0.0
C62 C 0.26473 0.00325 0.75458 0.0
C63 C 0.24425 0.00213 0.74319 0.0
N64 N 0.26436 0.00738 0.77772 0.0
C65 C 0.28318 0.00707 0.79132 0.0
H66 H 0.01706 0.31835 0.75518 0.0
H67 H 0.01383 0.25676 0.71944 0.0
H68 H 0.01694 0.25623 0.79055 0.0
C69 C 0.01659 0.30032 0.75518 0.0
C70 C 0.01728 0.2888 0.77535 0.0
C71 C 0.01528 0.28888 0.735 0.0
C72 C 0.0149 0.26553 0.73501 0.0
C73 C 0.01541 0.25363 0.75503 0.0
C74 C 0.01643 0.26539 0.77513 0.0
N75 N 0.01493 0.22994 0.7555 0.0
C76 C 0.01456 0.21643 0.73674 0.0
H77 H 0.7629 0.00235 0.69303 0.0
H78 H 0.72838 0.00434 0.75518 0.0
H79 H 0.80019 0.99759 0.75365 0.0
C80 C 0.76332 0.00198 0.71095 0.0
C81 C 0.7839 0.99971 0.72184 0.0
C82 C 0.74328 0.0037 0.72287 0.0
C83 C 0.74387 0.00294 0.74605 0.0
C84 C 0.76446 0.00079 0.75725 0.0
C85 C 0.78437 0.99937 0.74503 0.0
N86 N 0.76577 0.99993 0.78068 0.0
C87 C 0.74722 0.00059 0.79455 0.0
H88 H 0.32698 0.25071 0.99887 0.0
H89 H 0.26517 0.28574 0.00896 0.0
H90 H 0.26634 0.21415 0.01094 0.0
C91 C 0.30902 0.25047 1.00149 0.0
C92 C 0.29807 0.23004 0.00431 0.0
C93 C 0.2973 0.27061 0.00317 0.0
C94 C 0.27422 0.27019 0.00763 0.0
C95 C 0.26299 0.24972 0.01034 0.0
C96 C 0.27503 0.22983 0.00879 0.0
N97 N 0.23969 0.24853 0.01481 0.0
C98 C 0.22582 0.26703 0.01515 0.0
H99 H 0.32873 0.75141 0.0068 0.0
H100 H 0.26567 0.71727 0.00923 0.0
H101 H 0.26737 0.78848 1.00161 0.0
C102 C 0.31058 0.75184 0.00645 0.0
C103 C 0.29955 0.77227 0.00398 0.0
C104 C 0.29847 0.73196 0.00837 0.0
C105 C 0.27498 0.73262 0.00763 0.0
C106 C 0.26369 0.75309 0.00522 0.0
C107 C 0.27608 0.77278 0.0036 0.0
N108 N 0.23998 0.75447 0.00425 0.0
C109 C 0.22604 0.736 0.00446 0.0
H110 H 0.76377 0.31626 0.99498 0.0
H111 H 0.72825 0.25491 0.00435 0.0
H112 H 0.80034 0.25563 0.00576 0.0
C113 C 0.76395 0.29837 0.99732 0.0
C114 C 0.78449 0.28735 0.9997 0.0
C115 C 0.74361 0.28683 0.99905 0.0
C116 C 0.74393 0.26383 0.0031 0.0
C117 C 0.76445 0.25249 0.00547 0.0
C118 C 0.78459 0.26438 0.00389 0.0
N119 N 0.76551 0.22925 0.00958 0.0
C120 C 0.74689 0.2154 0.01038 0.0
H121 H 0.76313 0.68563 0.00472 0.0
H122 H 0.72782 0.74777 0.00338 0.0
H123 H 0.79983 0.7471 0.00766 0.0
C124 C 0.76336 0.70367 0.00495 0.0
C125 C 0.78387 0.71488 0.00652 0.0
C126 C 0.74313 0.71541 0.00369 0.0
C127 C 0.74347 0.73876 0.00425 0.0
C128 C 0.76399 0.75028 0.00549 0.0
C129 C 0.78407 0.73823 0.00651 0.0
N130 N 0.76509 0.77389 0.00573 0.0
C131 C 0.74645 0.78773 0.00499 0.0
H132 H 0.51353 0.75372 0.82265 0.0
H133 H 0.51165 0.78878 0.7609 0.0
H134 H 0.51533 0.71722 0.76149 0.0
C135 C 0.51352 0.75346 0.80473 0.0
C136 C 0.51464 0.73301 0.7936 0.0
C137 C 0.5124 0.7736 0.79305 0.0
C138 C 0.51261 0.77324 0.76985 0.0
C139 C 0.51362 0.75291 0.75835 0.0
C140 C 0.51444 0.73287 0.77034 0.0
N141 N 0.51388 0.75203 0.73483 0.0
C142 C 0.51372 0.77067 0.72112 0.0
H143 H 0.19872 0.49722 0.7569 0.0
H144 H 0.26127 0.5006 0.79158 0.0
H145 H 0.26063 0.49656 0.72054 0.0
C146 C 0.21687 0.49759 0.75664 0.0
C147 C 0.22816 0.49656 0.73633 0.0
C148 C 0.2287 0.49915 0.7766 0.0
C149 C 0.25219 0.49941 0.77618 0.0
C150 C 0.2638 0.49863 0.75592 0.0
C151 C 0.25167 0.49732 0.73611 0.0
N152 N 0.28757 0.49918 0.75487 0.0
C153 C 0.30138 0.50001 0.77337 0.0
H154 H 0.50788 0.18558 0.75887 0.0
H155 H 0.51257 0.2477 0.79359 0.0
H156 H 0.51351 0.24678 0.7224 0.0
C157 C 0.50893 0.20359 0.75856 0.0
C158 C 0.5102 0.21465 0.73816 0.0
C159 C 0.50987 0.21536 0.77858 0.0
C160 C 0.51205 0.23861 0.77814 0.0
C161 C 0.51332 0.25006 0.75788 0.0
C162 C 0.51257 0.23795 0.73799 0.0
N163 N 0.51526 0.27365 0.75699 0.0
C164 C 0.51513 0.28736 0.77558 0.0
H165 H 0.76649 0.49973 0.82303 0.0
H166 H 0.80185 0.50068 0.7613 0.0
H167 H 0.72987 0.49588 0.76192 0.0
C168 C 0.76626 0.49932 0.80512 0.0
C169 C 0.74573 0.49756 0.794 0.0
C170 C 0.78652 0.50051 0.79344 0.0
C171 C 0.78621 0.49973 0.77025 0.0
C172 C 0.76576 0.49815 0.75877 0.0
C173 C 0.74561 0.49724 0.77075 0.0
N174 N 0.76484 0.4974 0.73528 0.0
C175 C 0.78355 0.49766 0.72152 0.0
H176 H 0.51566 0.24939 0.19063 0.0
H177 H 0.51424 0.21394 0.25217 0.0
H178 H 0.51765 0.28552 0.25201 0.0
C179 C 0.51574 0.24954 0.20856 0.0
C180 C 0.51691 0.26993 0.21979 0.0
C181 C 0.5147 0.22933 0.22011 0.0
C182 C 0.51507 0.22953 0.24331 0.0
C183 C 0.51605 0.24979 0.25494 0.0
C184 C 0.51677 0.26992 0.24307 0.0
N185 N 0.51634 0.25049 0.27847 0.0
C186 C 0.51635 0.23175 0.29209 0.0
H187 H 0.76366 0.49081 0.19116 0.0
H188 H 0.80074 0.49993 0.25125 0.0
H189 H 0.7286 0.50187 0.25223 0.0
C190 C 0.76391 0.49316 0.20893 0.0
C191 C 0.74365 0.4957 0.22033 0.0
C192 C 0.78452 0.49472 0.21992 0.0
C193 C 0.78483 0.49875 0.24278 0.0
C194 C 0.76461 0.50119 0.25457 0.0
C195 C 0.74414 0.49988 0.24318 0.0
N196 N 0.76422 0.50508 0.27775 0.0
C197 C 0.7831 0.50521 0.29126 0.0
H198 H 0.52194 0.81754 0.25424 0.0
H199 H 0.51644 0.75584 0.21888 0.0
H200 H 0.51582 0.75603 0.29009 0.0
C201 C 0.52073 0.79955 0.25436 0.0
C202 C 0.51945 0.7883 0.27466 0.0
C203 C 0.51955 0.788 0.23422 0.0
C204 C 0.51713 0.76477 0.23442 0.0
C205 C 0.51579 0.75312 0.25456 0.0
C206 C 0.51679 0.76501 0.27459 0.0
N207 N 0.51349 0.72954 0.25521 0.0
C208 C 0.51304 0.71599 0.23649 0.0
H209 H 0.26311 0.50082 0.19314 0.0
H210 H 0.22843 0.5033 0.2552 0.0
H211 H 0.30044 0.49884 0.25387 0.0
C212 C 0.2635 0.50088 0.21106 0.0
C213 C 0.28411 0.49946 0.22203 0.0
C214 C 0.24341 0.50245 0.22292 0.0
C215 C 0.24398 0.50221 0.24611 0.0
C216 C 0.26462 0.50107 0.25737 0.0
C217 C 0.28457 0.49984 0.24521 0.0
N218 N 0.26596 0.50116 0.28081 0.0
C219 C 0.24742 0.50201 0.29469 0.0
H220 H 0.82868 0.75149 0.50701 0.0
H221 H 0.76572 0.78584 0.50802 0.0
H222 H 0.76723 0.71428 0.50463 0.0
C223 C 0.81052 0.75107 0.5068 0.0
C224 C 0.79945 0.73057 0.50551 0.0
C225 C 0.79846 0.77103 0.50786 0.0
C226 C 0.77497 0.7704 0.50734 0.0
C227 C 0.76363 0.74983 0.50639 0.0
C228 C 0.77598 0.73006 0.50554 0.0
N229 N 0.7399 0.74839 0.50633 0.0
C230 C 0.72591 0.76679 0.50736 0.0
H231 H 0.82787 0.25211 0.50421 0.0
H232 H 0.76513 0.21723 0.50365 0.0
H233 H 0.76619 0.2888 0.50778 0.0
C234 C 0.80971 0.25237 0.50462 0.0
C235 C 0.7985 0.27277 0.50622 0.0
C236 C 0.7978 0.23231 0.50357 0.0
C237 C 0.77431 0.23275 0.50442 0.0
C238 C 0.76284 0.25323 0.50581 0.0
C239 C 0.77504 0.2731 0.50655 0.0
N240 N 0.73912 0.25449 0.5065 0.0
C241 C 0.72539 0.23588 0.50665 0.0
H242 H 0.26345 0.81718 0.50483 0.0
H243 H 0.22803 0.75505 0.50592 0.0
H244 H 0.30001 0.75569 0.50106 0.0
C245 C 0.26362 0.79914 0.50445 0.0
C246 C 0.28408 0.7879 0.50266 0.0
C247 C 0.24338 0.78741 0.50581 0.0
C248 C 0.24367 0.76406 0.50498 0.0
C249 C 0.26416 0.75252 0.50338 0.0
C250 C 0.28426 0.76456 0.50239 0.0
N251 N 0.26525 0.72892 0.50276 0.0
C252 C 0.24665 0.71504 0.50356 0.0
H253 H 0.26428 0.18569 0.50562 0.0
H254 H 0.22847 0.24761 0.50448 0.0
H255 H 0.3004 0.2474 0.51005 0.0
C256 C 0.26434 0.20373 0.50607 0.0
C257 C 0.28473 0.21508 0.50805 0.0
C258 C 0.24402 0.21534 0.50471 0.0
C259 C 0.24417 0.23868 0.50556 0.0
C260 C 0.26457 0.25034 0.50742 0.0
C261 C 0.28473 0.23843 0.5085 0.0
N262 N 0.26546 0.27394 0.50829 0.0
C263 C 0.24673 0.28763 0.50731 0.0
C264 C 0.01255 0.94807 0.56063 0.0
C265 C 0.012 0.94715 0.45304 0.0
C266 C 0.01272 0.05609 0.5598 0.0
C267 C 0.0124 0.05509 0.45209 0.0
C268 C 0.9579 0.05547 0.50604 0.0
C269 C 0.95769 0.94812 0.50684 0.0
C270 C 0.06659 0.05574 0.50577 0.0
C271 C 0.06634 0.94728 0.50661 0.0
C272 C 0.06666 0.00103 0.45242 0.0
C273 C 0.95815 0.00117 0.45295 0.0
C274 C 0.06703 0.002 0.55996 0.0
C275 C 0.9588 0.00192 0.56042 0.0
Eu276 Eu 0.0122 0.95942 0.50672 0.0
O277 O 0.99243 0.98175 0.48698 0.0
O278 O 0.03247 0.98191 0.526 0.0
Eu279 Eu 0.97015 0.00177 0.5066 0.0
Eu280 Eu 0.05505 0.00154 0.50623 0.0
O281 O 0.99259 0.98204 0.52631 0.0
O282 O 0.03231 0.98158 0.48693 0.0
Eu283 Eu 0.0128 0.00196 0.54808 0.0
Eu284 Eu 0.01244 0.00124 0.46468 0.0
O285 O 0.99268 0.02171 0.52603 0.0
O286 O 0.99254 0.02133 0.48664 0.0
O287 O 0.03232 0.02125 0.48667 0.0
O288 O 0.0325 0.0216 0.52564 0.0
Eu289 Eu 0.01236 0.04392 0.50606 0.0
O290 O 0.01227 0.94107 0.53964 0.0
O291 O 0.01202 0.94046 0.47413 0.0
O292 O 0.01244 0.06282 0.53872 0.0
O293 O 0.01219 0.06217 0.47306 0.0
O294 O 0.9513 0.03428 0.50631 0.0
O295 O 0.95118 0.96934 0.50685 0.0
O296 O 0.07359 0.0346 0.50602 0.0
O297 O 0.07345 0.96839 0.50631 0.0
O298 O 0.04529 0.00082 0.44595 0.0
O299 O 0.97946 0.00095 0.44631 0.0
O300 O 0.0457 0.00209 0.56652 0.0
O301 O 0.98016 0.0019 0.56681 0.0
O302 O 0.04527 0.06238 0.5057 0.0
O303 O 0.97917 0.06243 0.50595 0.0
O304 O 0.04498 0.94077 0.50682 0.0
O305 O 0.97892 0.94106 0.50678 0.0
O306 O 0.01217 0.96833 0.44635 0.0
O307 O 0.01258 0.0338 0.44575 0.0
O308 O 0.01281 0.96935 0.56703 0.0
O309 O 0.01292 0.03489 0.56645 0.0
O310 O 0.95166 0.002 0.53947 0.0
O311 O 0.95127 0.00161 0.47397 0.0
O312 O 0.07394 0.00178 0.53893 0.0
O313 O 0.07367 0.00142 0.47341 0.0
C314 C 0.51486 0.94479 0.05658 0.0
C315 C 0.51465 0.05244 0.06292 0.0
C316 C 0.51452 0.95113 0.94948 0.0
C317 C 0.51422 0.05888 0.95585 0.0
C318 C 0.56854 0.00466 0.95252 0.0
C319 C 0.56893 0.99958 0.05942 0.0
C320 C 0.45984 0.00446 0.95274 0.0
C321 C 0.46014 0.99906 0.05992 0.0
C322 C 0.45986 0.05526 0.00912 0.0
C323 C 0.56855 0.05586 0.00877 0.0
C324 C 0.4602 0.94804 0.00342 0.0
C325 C 0.56891 0.94815 0.0033 0.0
Eu326 Eu 0.51449 0.99936 0.04796 0.0
O327 O 0.5342 0.0205 0.02687 0.0
O328 O 0.49464 0.98076 0.02474 0.0
Eu329 Eu 0.55661 0.00197 0.00604 0.0
Eu330 Eu 0.47222 0.00168 0.00629 0.0
O331 O 0.53438 0.98094 0.02461 0.0
O332 O 0.49453 0.02043 0.02703 0.0
Eu333 Eu 0.51454 0.95967 0.00376 0.0
Eu334 Eu 0.51426 0.04395 0.00864 0.0
O335 O 0.53421 0.98326 0.98533 0.0
O336 O 0.53408 0.02282 0.9876 0.0
O337 O 0.49444 0.0227 0.98771 0.0
O338 O 0.49459 0.98311 0.98544 0.0
Eu339 Eu 0.51424 0.00427 0.96433 0.0
O340 O 0.51471 0.96555 0.06444 0.0
O341 O 0.5145 0.03092 0.06837 0.0
O342 O 0.51423 0.97265 0.944 0.0
O343 O 0.51432 0.03814 0.94791 0.0
O344 O 0.5753 0.00363 0.97353 0.0
O345 O 0.57555 0.00078 0.03839 0.0
O346 O 0.45322 0.00326 0.97381 0.0
O347 O 0.45341 1.00019 0.03888 0.0
O348 O 0.48107 0.0623 0.00968 0.0
O349 O 0.54726 0.06264 0.00951 0.0
O350 O 0.48146 0.94112 0.00297 0.0
O351 O 0.54767 0.94123 0.00267 0.0
O352 O 0.48111 0.00507 0.94593 0.0
O353 O 0.54725 0.00504 0.94576 0.0
O354 O 0.48146 0.99846 0.06661 0.0
O355 O 0.54767 0.99876 0.06627 0.0
O356 O 0.51461 0.06048 0.04233 0.0
O357 O 0.51411 0.06444 0.97722 0.0
O358 O 0.51486 0.93918 0.03521 0.0
O359 O 0.5147 0.94312 0.97008 0.0
O360 O 0.57552 0.96934 0.00458 0.0
O361 O 0.5753 0.03473 0.00743 0.0
O362 O 0.45352 0.96916 0.00458 0.0
O363 O 0.45333 0.03409 0.00789 0.0
C364 C 0.01459 0.44801 0.0611 0.0
C365 C 0.01768 0.44688 0.95384 0.0
C366 C 0.01451 0.55628 0.05994 0.0
C367 C 0.01798 0.55514 0.9527 0.0
C368 C 0.96214 0.55564 0.00506 0.0
C369 C 0.96212 0.4475 0.00522 0.0
C370 C 0.07046 0.55547 0.00795 0.0
C371 C 0.0704 0.44764 0.00955 0.0
C372 C 0.07274 0.50076 0.95561 0.0
C373 C 0.96415 0.50116 0.95131 0.0
C374 C 0.06826 0.50206 0.06278 0.0
C375 C 0.96018 0.50141 0.05881 0.0
Eu376 Eu 0.01624 0.4596 0.00734 0.0
O377 O 0.99711 0.48174 0.9868 0.0
O378 O 0.03541 0.48203 0.02757 0.0
Eu379 Eu 0.97376 0.50155 0.00546 0.0
Eu380 Eu 0.05868 0.50156 0.00864 0.0
O381 O 0.99556 0.48203 0.02609 0.0
O382 O 0.03698 0.48163 0.98821 0.0
Eu383 Eu 0.01467 0.502 0.04877 0.0
Eu384 Eu 0.01792 0.50114 0.96508 0.0
O385 O 0.99558 0.52153 0.02568 0.0
O386 O 0.9971 0.52104 0.9864 0.0
O387 O 0.03695 0.52108 0.98787 0.0
O388 O 0.03545 0.52157 0.02719 0.0
Eu389 Eu 0.01628 0.54356 0.0065 0.0
O390 O 0.01525 0.44117 0.04009 0.0
O391 O 0.01724 0.44046 0.97498 0.0
O392 O 0.01545 0.56268 0.03882 0.0
O393 O 0.01716 0.56197 0.97371 0.0
O394 O 0.95515 0.53451 0.00485 0.0
O395 O 0.95516 0.46862 0.00475 0.0
O396 O 0.07743 0.53437 0.00853 0.0
O397 O 0.07736 0.46875 0.00974 0.0
O398 O 0.05172 0.50069 0.94805 0.0
O399 O 0.9857 0.50115 0.94545 0.0
O400 O 0.0467 0.50223 0.06853 0.0
O401 O 0.98126 0.5018 0.06605 0.0
O402 O 0.04916 0.56211 0.00726 0.0
O403 O 0.98347 0.56223 0.0056 0.0
O404 O 0.04909 0.44102 0.00865 0.0
O405 O 0.98343 0.4409 0.00625 0.0
O406 O 0.01796 0.46799 0.94688 0.0
O407 O 0.01847 0.53389 0.94616 0.0
O408 O 0.01424 0.46926 0.06765 0.0
O409 O 0.01394 0.53517 0.06692 0.0
O410 O 0.9539 0.50127 0.03759 0.0
O411 O 0.95643 0.50128 0.97205 0.0
O412 O 0.07605 0.50182 0.04207 0.0
O413 O 0.07871 0.50108 0.97688 0.0
C414 C 0.51293 0.44776 0.06063 0.0
C415 C 0.5125 0.55574 0.05961 0.0
C416 C 0.51279 0.44664 0.95299 0.0
C417 C 0.512 0.55465 0.952 0.0
C418 C 0.56649 0.50083 0.95233 0.0
C419 C 0.56684 0.50147 0.05987 0.0
C420 C 0.45796 0.50054 0.95285 0.0
C421 C 0.45864 0.50133 0.06029 0.0
C422 C 0.4574 0.55463 0.00643 0.0
C423 C 0.56604 0.55568 0.00575 0.0
C424 C 0.45792 0.44722 0.00636 0.0
C425 C 0.56659 0.44724 0.00596 0.0
Eu426 Eu 0.51264 0.50159 0.04794 0.0
O427 O 0.53226 0.52136 0.02554 0.0
O428 O 0.49254 0.48141 0.02624 0.0
Eu429 Eu 0.55488 0.50141 0.00615 0.0
Eu430 Eu 0.46998 0.50099 0.00649 0.0
O431 O 0.53245 0.48159 0.02588 0.0
O432 O 0.49238 0.52111 0.02585 0.0
Eu433 Eu 0.51234 0.45893 0.00668 0.0
Eu434 Eu 0.51192 0.54343 0.00592 0.0
O435 O 0.53218 0.48134 0.98693 0.0
O436 O 0.53203 0.52092 0.9865 0.0
O437 O 0.49222 0.52072 0.98649 0.0
O438 O 0.49243 0.4811 0.98688 0.0
Eu439 Eu 0.51226 0.50078 0.96453 0.0
O440 O 0.51305 0.46906 0.06695 0.0
O441 O 0.51278 0.53456 0.06632 0.0
O442 O 0.51264 0.46781 0.94625 0.0
O443 O 0.51227 0.53337 0.94561 0.0
O444 O 0.57348 0.50133 0.97333 0.0
O445 O 0.57375 0.50133 0.03884 0.0
O446 O 0.4511 0.50098 0.97388 0.0
O447 O 0.4515 0.50104 0.03934 0.0
O448 O 0.47861 0.56172 0.00601 0.0
O449 O 0.54467 0.56215 0.00557 0.0
O450 O 0.47921 0.44034 0.00651 0.0
O451 O 0.5453 0.44054 0.00643 0.0
O452 O 0.47927 0.50029 0.9462 0.0
O453 O 0.54513 0.50052 0.94584 0.0
O454 O 0.48 0.5016 0.06668 0.0
O455 O 0.54551 0.50169 0.06643 0.0
O456 O 0.51209 0.5624 0.03852 0.0
O457 O 0.51172 0.56168 0.97297 0.0
O458 O 0.51257 0.44068 0.03966 0.0
O459 O 0.51264 0.43998 0.97409 0.0
O460 O 0.57351 0.46841 0.00581 0.0
O461 O 0.5732 0.53459 0.00605 0.0
O462 O 0.45124 0.46839 0.00641 0.0
O463 O 0.45093 0.5334 0.00669 0.0
C464 C 0.01459 0.44433 0.55671 0.0
C465 C 0.01384 0.45014 0.44962 0.0
C466 C 0.01491 0.55207 0.56255 0.0
C467 C 0.01463 0.5579 0.45542 0.0
C468 C 0.96032 0.55505 0.50889 0.0
C469 C 0.95954 0.44792 0.50364 0.0
C470 C 0.06903 0.5546 0.50787 0.0
C471 C 0.06821 0.44682 0.50361 0.0
C472 C 0.06837 0.50296 0.45226 0.0
C473 C 0.95968 0.50376 0.45273 0.0
C474 C 0.06899 0.49832 0.55917 0.0
C475 C 0.96016 0.49906 0.5599 0.0
Eu476 Eu 0.01399 0.459 0.50385 0.0
O477 O 0.99426 0.48251 0.48543 0.0
O478 O 0.03407 0.4802 0.52455 0.0
Eu479 Eu 0.9722 0.50139 0.50626 0.0
Eu480 Eu 0.05653 0.50078 0.5058 0.0
O481 O 0.9944 0.48037 0.52486 0.0
O482 O 0.03391 0.48222 0.48522 0.0
Eu483 Eu 0.01451 0.49888 0.54793 0.0
Eu484 Eu 0.01411 0.50333 0.46419 0.0
O485 O 0.99477 0.52 0.52686 0.0
O486 O 0.99455 0.52213 0.48752 0.0
O487 O 0.03417 0.52179 0.48736 0.0
O488 O 0.03441 0.51972 0.52666 0.0
Eu489 Eu 0.01463 0.54326 0.5083 0.0
O490 O 0.01405 0.43866 0.53537 0.0
O491 O 0.01397 0.44226 0.47027 0.0
O492 O 0.01501 0.55998 0.54191 0.0
O493 O 0.01476 0.56359 0.47676 0.0
O494 O 0.95362 0.53394 0.50775 0.0
O495 O 0.95313 0.46911 0.50492 0.0
O496 O 0.07556 0.53338 0.50667 0.0
O497 O 0.07508 0.46794 0.50443 0.0
O498 O 0.04708 0.50394 0.44555 0.0
O499 O 0.98094 0.50416 0.44585 0.0
O500 O 0.04775 0.49805 0.56611 0.0
O501 O 0.98148 0.49832 0.5666 0.0
O502 O 0.04782 0.56158 0.50882 0.0
O503 O 0.9816 0.56193 0.50936 0.0
O504 O 0.04688 0.44013 0.50326 0.0
O505 O 0.98071 0.44077 0.50297 0.0
O506 O 0.0138 0.47162 0.44402 0.0
O507 O 0.01432 0.53711 0.44762 0.0
O508 O 0.01485 0.46511 0.56453 0.0
O509 O 0.01469 0.53058 0.56812 0.0
O510 O 0.95344 0.50018 0.53886 0.0
O511 O 0.95313 0.50284 0.47383 0.0
O512 O 0.07556 0.49926 0.5381 0.0
O513 O 0.07514 0.50166 0.47325 0.0
C514 C 0.51417 0.94729 0.56059 0.0
C515 C 0.51751 0.94686 0.45333 0.0
C516 C 0.51452 0.05556 0.56023 0.0
C517 C 0.51785 0.05514 0.45298 0.0
C518 C 0.46234 0.05561 0.50511 0.0
C519 C 0.46168 0.94745 0.5054 0.0
C520 C 0.57067 0.05477 0.50843 0.0
C521 C 0.56994 0.94695 0.50888 0.0
C522 C 0.57259 0.00064 0.4555 0.0
C523 C 0.46397 0.00125 0.45123 0.0
C524 C 0.5682 0.00136 0.56267 0.0
C525 C 0.46011 0.00105 0.55874 0.0
Eu526 Eu 0.51587 0.95925 0.50692 0.0
O527 O 0.4968 0.98158 0.4865 0.0
O528 O 0.53521 0.98136 0.52736 0.0
Eu529 Eu 0.47362 0.00144 0.50537 0.0
Eu530 Eu 0.55855 0.00093 0.50855 0.0
O531 O 0.49539 0.98171 0.52581 0.0
O532 O 0.53672 0.98132 0.48798 0.0
Eu533 Eu 0.51461 0.00136 0.54867 0.0
Eu534 Eu 0.51776 0.00105 0.46496 0.0
O535 O 0.49558 0.02115 0.52573 0.0
O536 O 0.49709 0.02092 0.48645 0.0
O537 O 0.53693 0.02073 0.48789 0.0
O538 O 0.53545 0.02097 0.52722 0.0
Eu539 Eu 0.51639 0.0432 0.5067 0.0
O540 O 0.51474 0.94061 0.53953 0.0
O541 O 0.51675 0.94031 0.47443 0.0
O542 O 0.5154 0.06212 0.53915 0.0
O543 O 0.51729 0.06181 0.47405 0.0
O544 O 0.4552 0.03453 0.50477 0.0
O545 O 0.45481 0.96861 0.5049 0.0
O546 O 0.57747 0.03362 0.50895 0.0
O547 O 0.57704 0.96801 0.50949 0.0
O548 O 0.55157 0.00075 0.44791 0.0
O549 O 0.48552 0.00119 0.44535 0.0
O550 O 0.54665 0.00153 0.56843 0.0
O551 O 0.4812 0.00117 0.56596 0.0
O552 O 0.5494 0.06154 0.50759 0.0
O553 O 0.4837 0.06205 0.5058 0.0
O554 O 0.54861 0.94045 0.50782 0.0
O555 O 0.48296 0.94076 0.50615 0.0
O556 O 0.51799 0.96803 0.44653 0.0
O557 O 0.51818 0.03393 0.44627 0.0
O558 O 0.51408 0.96848 0.56731 0.0
O559 O 0.51406 0.0344 0.56705 0.0
O560 O 0.4538 0.00119 0.53752 0.0
O561 O 0.45627 0.0013 0.47198 0.0
O562 O 0.57596 0.00106 0.54195 0.0
O563 O 0.57854 0.00069 0.47677 0.0
H564 H 0.23495 0.18127 0.47647 0.0
H565 H 0.20193 0.15725 0.47621 0.0
H566 H 0.17232 0.19656 0.52821 0.0
H567 H 0.20559 0.2206 0.52875 0.0
H568 H 0.17397 0.14997 0.5366 0.0
H569 H 0.13748 0.16834 0.45428 0.0
H570 H 0.16695 0.16233 0.45365 0.0
H571 H 0.1571 0.18673 0.46783 0.0
C572 C 0.22128 0.18494 0.48768 0.0
C573 C 0.22283 0.20271 0.50271 0.0
C574 C 0.20238 0.17132 0.48738 0.0
C575 C 0.18465 0.17526 0.50205 0.0
C576 C 0.18582 0.19337 0.51667 0.0
H577 H 0.05999 0.10061 0.50141 0.0
H578 H 0.08813 0.12996 0.50143 0.0
C579 C 0.20473 0.20712 0.51689 0.0
C580 C 0.16581 0.15935 0.50321 0.0
H581 H 0.12468 0.13527 0.4722 0.0
C582 C 0.16302 0.14689 0.52263 0.0
C583 C 0.15153 0.1555 0.48497 0.0
C584 C 0.15322 0.16907 0.46406 0.0
C585 C 0.14671 0.13015 0.52406 0.0
C586 C 0.13308 0.12565 0.50548 0.0
C587 C 0.13538 0.1386 0.48631 0.0
C588 C 0.1162 0.10766 0.50566 0.0
C589 C 0.14417 0.11744 0.54541 0.0
C590 C 0.12274 0.08534 0.50779 0.0
C591 C 0.10669 0.0684 0.50778 0.0
C592 C 0.08381 0.07352 0.50559 0.0
C593 C 0.07742 0.09596 0.50326 0.0
C594 C 0.09347 0.11283 0.50322 0.0
H595 H 0.15199 0.12637 0.55953 0.0
H596 H 0.12623 0.1145 0.54925 0.0
H597 H 0.15251 0.10102 0.54377 0.0
H598 H 0.14029 0.08102 0.50932 0.0
H599 H 0.11225 0.05134 0.50954 0.0
H600 H 0.79217 0.19439 0.52802 0.0
H601 H 0.81642 0.16135 0.52812 0.0
H602 H 0.85609 0.18987 0.47572 0.0
H603 H 0.83183 0.22262 0.47531 0.0
H604 H 0.84685 0.1434 0.47085 0.0
H605 H 0.88111 0.16558 0.55358 0.0
H606 H 0.85116 0.16313 0.55164 0.0
H607 H 0.86528 0.185 0.53702 0.0
C608 C 0.80582 0.19336 0.51627 0.0
C609 C 0.81033 0.21112 0.50183 0.0
C610 C 0.81973 0.17462 0.51646 0.0
C611 C 0.83822 0.17342 0.50218 0.0
C612 C 0.84198 0.19059 0.48696 0.0
H613 H 0.96243 0.10093 0.5077 0.0
H614 H 0.93258 0.12879 0.50675 0.0
C615 C 0.82819 0.20929 0.48681 0.0
C616 C 0.85449 0.15494 0.50368 0.0
H617 H 0.89552 0.13335 0.5366 0.0
C618 C 0.85738 0.14104 0.48528 0.0
C619 C 0.8684 0.15224 0.52241 0.0
C620 C 0.86656 0.16734 0.54226 0.0
C621 C 0.87394 0.12448 0.48507 0.0
C622 C 0.88776 0.1217 0.50385 0.0
C623 C 0.8848 0.13553 0.52229 0.0
C624 C 0.9057 0.10477 0.50452 0.0
C625 C 0.87696 0.11051 0.46455 0.0
C626 C 0.90038 0.08209 0.50383 0.0
C627 C 0.91734 0.06613 0.50437 0.0
C628 C 0.93999 0.07255 0.50568 0.0
C629 C 0.94522 0.09535 0.5066 0.0
C630 C 0.9282 0.11131 0.5061 0.0
H631 H 0.8684 0.11792 0.45 0.0
H632 H 0.89501 0.10844 0.46061 0.0
H633 H 0.86976 0.09374 0.46744 0.0
H634 H 0.88308 0.07673 0.50297 0.0
H635 H 0.91259 0.04875 0.5037 0.0
H636 H 0.83246 0.78112 0.53598 0.0
H637 H 0.85592 0.81442 0.53591 0.0
H638 H 0.81599 0.84228 0.48334 0.0
H639 H 0.79249 0.8087 0.48316 0.0
H640 H 0.86293 0.84159 0.4752 0.0
H641 H 0.8433 0.87841 0.55698 0.0
H642 H 0.84989 0.84928 0.55811 0.0
H643 H 0.82527 0.85838 0.54359 0.0
C644 C 0.82854 0.79446 0.52457 0.0
C645 C 0.81076 0.79234 0.5095 0.0
C646 C 0.84182 0.81352 0.52468 0.0
C647 C 0.83754 0.83085 0.50977 0.0
C648 C 0.81943 0.82909 0.49507 0.0
H649 H 0.91254 0.95499 0.51072 0.0
H650 H 0.88279 0.92725 0.51029 0.0
C651 C 0.80599 0.81002 0.49505 0.0
C652 C 0.85317 0.84987 0.50848 0.0
H653 H 0.87687 0.89109 0.53939 0.0
C654 C 0.86581 0.85261 0.48912 0.0
C655 C 0.85676 0.86424 0.52662 0.0
C656 C 0.84295 0.86262 0.54744 0.0
C657 C 0.88257 0.8689 0.48771 0.0
C658 C 0.8869 0.88255 0.50626 0.0
C659 C 0.87368 0.88037 0.52531 0.0
C660 C 0.9051 0.89922 0.50623 0.0
C661 C 0.89553 0.87136 0.46644 0.0
C662 C 0.92754 0.89257 0.50434 0.0
C663 C 0.94471 0.90839 0.5046 0.0
C664 C 0.93968 0.93115 0.5068 0.0
C665 C 0.91711 0.93765 0.50888 0.0
C666 C 0.90002 0.92183 0.50868 0.0
H667 H 0.88659 0.86363 0.45228 0.0
H668 H 0.89861 0.88917 0.46262 0.0
H669 H 0.91199 0.86299 0.46819 0.0
H670 H 0.93179 0.87511 0.50283 0.0
H671 H 0.96186 0.90275 0.50302 0.0
H672 H 0.23423 0.82113 0.53438 0.0
H673 H 0.20111 0.84499 0.535 0.0
H674 H 0.17151 0.80609 0.48269 0.0
H675 H 0.2049 0.7822 0.4818 0.0
H676 H 0.17295 0.85265 0.47468 0.0
H677 H 0.13679 0.83373 0.55699 0.0
H678 H 0.16624 0.83981 0.55765 0.0
H679 H 0.15644 0.81548 0.5433 0.0
C680 C 0.22054 0.81751 0.52318 0.0
C681 C 0.22213 0.79991 0.50796 0.0
C682 C 0.20158 0.83103 0.52368 0.0
C683 C 0.18382 0.82716 0.50903 0.0
C684 C 0.18503 0.80922 0.49422 0.0
H685 H 0.05948 0.90246 0.51092 0.0
H686 H 0.0874 0.87291 0.51061 0.0
C687 C 0.204 0.79555 0.4938 0.0
C688 C 0.16495 0.84306 0.50806 0.0
H689 H 0.1241 0.86709 0.53946 0.0
C690 C 0.16209 0.85566 0.48873 0.0
C691 C 0.15078 0.84683 0.52639 0.0
C692 C 0.15253 0.83311 0.5472 0.0
C693 C 0.14585 0.87247 0.48751 0.0
C694 C 0.13236 0.87692 0.5062 0.0
C695 C 0.1347 0.86381 0.52526 0.0
C696 C 0.1156 0.89503 0.50626 0.0
C697 C 0.14323 0.88533 0.46625 0.0
C698 C 0.12228 0.91732 0.50417 0.0
C699 C 0.10635 0.93437 0.50435 0.0
C700 C 0.08344 0.9294 0.50666 0.0
C701 C 0.07692 0.90699 0.50898 0.0
C702 C 0.09285 0.89001 0.50885 0.0
H703 H 0.15086 0.87642 0.45203 0.0
H704 H 0.12528 0.88845 0.46257 0.0
H705 H 0.15173 0.90167 0.46792 0.0
H706 H 0.13984 0.92153 0.50254 0.0
H707 H 0.11201 0.95139 0.5026 0.0
H708 H 0.48754 0.21963 0.18523 0.0
H709 H 0.48757 0.18597 0.16257 0.0
H710 H 0.5387 0.15741 0.20417 0.0
H711 H 0.53902 0.19132 0.2268 0.0
H712 H 0.54847 0.15638 0.15845 0.0
H713 H 0.46368 0.12308 0.17567 0.0
H714 H 0.46374 0.15202 0.1683 0.0
H715 H 0.47725 0.1432 0.19337 0.0
C716 C 0.49869 0.20612 0.18964 0.0
C717 C 0.51336 0.20811 0.20771 0.0
C718 C 0.49853 0.18683 0.17682 0.0
C719 C 0.51295 0.16914 0.18187 0.0
C720 C 0.52733 0.17086 0.20014 0.0
H721 H 0.50964 0.04436 0.10728 0.0
H722 H 0.51047 0.0714 0.13745 0.0
C723 C 0.52742 0.19015 0.21308 0.0
C724 C 0.5141 0.14966 0.16697 0.0
H725 H 0.48208 0.10912 0.14328 0.0
C726 C 0.53406 0.14584 0.15534 0.0
C727 C 0.49534 0.13585 0.16311 0.0
C728 C 0.47384 0.13857 0.17592 0.0
C729 C 0.53545 0.12914 0.1392 0.0
C730 C 0.5163 0.11616 0.13447 0.0
C731 C 0.49665 0.1193 0.1468 0.0
C732 C 0.5161 0.09979 0.11623 0.0
C733 C 0.55732 0.12566 0.12719 0.0
C734 C 0.51871 0.1069 0.09431 0.0
C735 C 0.5182 0.09155 0.07699 0.0
C736 C 0.51501 0.06876 0.08128 0.0
C737 C 0.51224 0.06174 0.10333 0.0
C738 C 0.51267 0.07715 0.12062 0.0
H739 H 0.57167 0.13267 0.13658 0.0
H740 H 0.56043 0.10769 0.1242 0.0
H741 H 0.55658 0.13417 0.11093 0.0
H742 H 0.52098 0.12438 0.09057 0.0
H743 H 0.52036 0.0976 0.06026 0.0
H744 H 0.82087 0.52238 0.22138 0.0
H745 H 0.85273 0.52286 0.19575 0.0
H746 H 0.82676 0.46455 0.16306 0.0
H747 H 0.79519 0.46372 0.1888 0.0
H748 H 0.87391 0.46423 0.16931 0.0
H749 H 0.84318 0.54244 0.13064 0.0
H750 H 0.84737 0.54354 0.16005 0.0
H751 H 0.82604 0.52577 0.1488 0.0
C752 C 0.82225 0.5094 0.20903 0.0
C753 C 0.80547 0.49315 0.2069 0.0
C754 C 0.8403 0.50983 0.19429 0.0
C755 C 0.84179 0.49401 0.17728 0.0
C756 C 0.82578 0.47701 0.17597 0.0
H757 H 0.91448 0.49954 0.05312 0.0
H758 H 0.88578 0.49742 0.08197 0.0
C759 C 0.80775 0.4766 0.19062 0.0
C760 C 0.85934 0.49564 0.16012 0.0
H761 H 0.87733 0.5279 0.11719 0.0
C762 C 0.87475 0.47817 0.15795 0.0
C763 C 0.86004 0.51367 0.14509 0.0
C764 C 0.84319 0.53236 0.14604 0.0
C765 C 0.89106 0.47836 0.14126 0.0
C766 C 0.89208 0.49663 0.12656 0.0
C767 C 0.87653 0.51399 0.12858 0.0
C768 C 0.90935 0.49813 0.10912 0.0
C769 C 0.90681 0.45883 0.13924 0.0
C770 C 0.932 0.49962 0.11491 0.0
C771 C 0.9484 0.50084 0.09855 0.0
C772 C 0.94249 0.50072 0.076 0.0
C773 C 0.91967 0.49962 0.07027 0.0
C774 C 0.90324 0.49841 0.08672 0.0
H775 H 0.90035 0.44393 0.14803 0.0
H776 H 0.90965 0.45445 0.12162 0.0
H777 H 0.92321 0.4633 0.14664 0.0
H778 H 0.93701 0.49987 0.13212 0.0
H779 H 0.96574 0.50182 0.1037 0.0
H780 H 0.54774 0.82193 0.223 0.0
H781 H 0.54648 0.84507 0.18978 0.0
H782 H 0.49225 0.80528 0.16421 0.0
H783 H 0.49301 0.78235 0.19771 0.0
H784 H 0.55035 0.83426 0.14405 0.0
H785 H 0.46698 0.86939 0.16585 0.0
H786 H 0.48389 0.85422 0.18545 0.0
H787 H 0.46862 0.83956 0.16443 0.0
C788 C 0.53554 0.8181 0.2103 0.0
C789 C 0.52029 0.8005 0.21307 0.0
C790 C 0.53495 0.83122 0.19128 0.0
C791 C 0.51907 0.82705 0.17473 0.0
C792 C 0.50443 0.80893 0.17697 0.0
H793 H 0.51707 0.89977 0.04885 0.0
H794 H 0.51766 0.86985 0.07624 0.0
C795 C 0.50502 0.79575 0.19601 0.0
C796 C 0.51729 0.84239 0.1557 0.0
H797 H 0.4836 0.88213 0.13293 0.0
C798 C 0.5357 0.8446 0.14145 0.0
C799 C 0.49823 0.856 0.15259 0.0
C800 C 0.47833 0.8549 0.16795 0.0
C801 C 0.53567 0.86032 0.12428 0.0
C802 C 0.51662 0.87395 0.12123 0.0
C803 C 0.4981 0.87151 0.13528 0.0
C804 C 0.51611 0.89187 0.10448 0.0
C805 C 0.55628 0.86279 0.11006 0.0
C806 C 0.51461 0.9141 0.11132 0.0
C807 C 0.51419 0.93124 0.09578 0.0
C808 C 0.51514 0.92648 0.07301 0.0
C809 C 0.5164 0.9041 0.06622 0.0
C810 C 0.51685 0.88695 0.08183 0.0
H811 H 0.57097 0.85404 0.11722 0.0
H812 H 0.55292 0.85563 0.09348 0.0
H813 H 0.56058 0.88063 0.10785 0.0
H814 H 0.51395 0.9182 0.12875 0.0
H815 H 0.51313 0.94821 0.10169 0.0
H816 H 0.23377 0.5306 0.1891 0.0
H817 H 0.2004 0.53072 0.16575 0.0
H818 H 0.17147 0.47853 0.20548 0.0
H819 H 0.20512 0.47817 0.22888 0.0
H820 H 0.1725 0.46978 0.15931 0.0
H821 H 0.13609 0.55268 0.17721 0.0
H822 H 0.1655 0.55351 0.17103 0.0
H823 H 0.15593 0.53925 0.1954 0.0
C824 C 0.22018 0.51934 0.19301 0.0
C825 C 0.22202 0.5043 0.2107 0.0
C826 C 0.20107 0.51955 0.17979 0.0
C827 C 0.18342 0.50478 0.18404 0.0
C828 C 0.1849 0.49015 0.20206 0.0
H829 H 0.06005 0.5066 0.10709 0.0
H830 H 0.08708 0.50607 0.13728 0.0
C831 C 0.20402 0.49003 0.21544 0.0
C832 C 0.16443 0.50348 0.16842 0.0
H833 H 0.12378 0.53483 0.14394 0.0
C834 C 0.16163 0.48388 0.15613 0.0
C835 C 0.15024 0.52186 0.16444 0.0
C836 C 0.1519 0.54296 0.17786 0.0
C837 C 0.14553 0.48248 0.13931 0.0
C838 C 0.13213 0.50127 0.13456 0.0
C839 C 0.13431 0.52056 0.14745 0.0
C840 C 0.11587 0.50132 0.11613 0.0
C841 C 0.14304 0.46096 0.12669 0.0
C842 C 0.12319 0.49909 0.0942 0.0
C843 C 0.10779 0.4994 0.07681 0.0
C844 C 0.08478 0.50201 0.08107 0.0
C845 C 0.0776 0.50444 0.10312 0.0
C846 C 0.09301 0.50418 0.12045 0.0
H847 H 0.15033 0.44669 0.13589 0.0
H848 H 0.12515 0.45736 0.1232 0.0
H849 H 0.15196 0.46238 0.11066 0.0
H850 H 0.14086 0.49726 0.09054 0.0
H851 H 0.11395 0.49754 0.06007 0.0
H852 H 0.48562 0.78359 0.82816 0.0
H853 H 0.48601 0.81737 0.85063 0.0
H854 H 0.53673 0.84555 0.80831 0.0
H855 H 0.53669 0.81152 0.78586 0.0
H856 H 0.54706 0.8468 0.85386 0.0
H857 H 0.46216 0.88026 0.83757 0.0
H858 H 0.46222 0.85136 0.84509 0.0
H859 H 0.47543 0.86001 0.81979 0.0
C860 C 0.49675 0.79704 0.82355 0.0
C861 C 0.5112 0.79491 0.80533 0.0
C862 C 0.49679 0.8164 0.83626 0.0
C863 C 0.5112 0.83403 0.83096 0.0
C864 C 0.52536 0.83217 0.81253 0.0
H865 H 0.50901 0.9591 0.90515 0.0
H866 H 0.50948 0.93199 0.87504 0.0
C867 C 0.52525 0.8128 0.7997 0.0
C868 C 0.51261 0.85357 0.84575 0.0
H869 H 0.48102 0.89432 0.86966 0.0
C870 C 0.53273 0.8574 0.85711 0.0
C871 C 0.49394 0.86746 0.84979 0.0
C872 C 0.47227 0.86475 0.83726 0.0
C873 C 0.53438 0.87416 0.87315 0.0
C874 C 0.51533 0.88722 0.87807 0.0
C875 C 0.49552 0.88408 0.86601 0.0
C876 C 0.5154 0.90365 0.89626 0.0
C877 C 0.55642 0.87764 0.88486 0.0
C878 C 0.51831 0.89661 0.91817 0.0
C879 C 0.51801 0.912 0.93545 0.0
C880 C 0.51474 0.93478 0.93115 0.0
C881 C 0.51169 0.94173 0.90912 0.0
C882 C 0.51191 0.92628 0.89186 0.0
H883 H 0.57063 0.87059 0.8753 0.0
H884 H 0.5596 0.89561 0.88777 0.0
H885 H 0.55589 0.86916 0.90115 0.0
H886 H 0.52063 0.87913 0.92192 0.0
H887 H 0.52038 0.90599 0.95217 0.0
H888 H 0.23667 0.47616 0.81491 0.0
H889 H 0.21397 0.47648 0.84876 0.0
H890 H 0.16993 0.52519 0.81962 0.0
H891 H 0.19268 0.52528 0.78602 0.0
H892 H 0.18196 0.53348 0.865 0.0
H893 H 0.15052 0.44755 0.85 0.0
H894 H 0.18041 0.45119 0.85034 0.0
H895 H 0.16413 0.46373 0.82875 0.0
C896 C 0.22233 0.48716 0.81589 0.0
C897 C 0.21626 0.50051 0.79776 0.0
C898 C 0.20933 0.4872 0.83512 0.0
C899 C 0.19015 0.50063 0.83649 0.0
C900 C 0.18462 0.51463 0.8188 0.0
H901 H 0.06894 0.49624 0.9107 0.0
H902 H 0.09897 0.49603 0.88337 0.0
C903 C 0.19752 0.51455 0.79959 0.0
C904 C 0.17512 0.49955 0.85588 0.0
H905 H 0.1366 0.46628 0.88125 0.0
C906 C 0.1722 0.51874 0.86876 0.0
C907 C 0.16228 0.48033 0.86046 0.0
C908 C 0.16427 0.45953 0.84662 0.0
C909 C 0.15645 0.51934 0.88597 0.0
C910 C 0.1435 0.50018 0.89044 0.0
C911 C 0.14669 0.48088 0.87779 0.0
C912 C 0.12557 0.50023 0.90728 0.0
C913 C 0.15318 0.54068 0.89871 0.0
C914 C 0.13066 0.50248 0.92979 0.0
C915 C 0.11352 0.50262 0.94552 0.0
C916 C 0.09098 0.50047 0.939 0.0
C917 C 0.08604 0.49804 0.91638 0.0
C918 C 0.10319 0.49785 0.9007 0.0
H919 H 0.16156 0.55503 0.89061 0.0
H920 H 0.13507 0.5445 0.90051 0.0
H921 H 0.16033 0.53876 0.91554 0.0
H922 H 0.14788 0.50405 0.93518 0.0
H923 H 0.11799 0.50449 0.96277 0.0
H924 H 0.48172 0.18151 0.79006 0.0
H925 H 0.48266 0.159 0.82367 0.0
H926 H 0.53697 0.19895 0.84885 0.0
H927 H 0.53646 0.22131 0.81495 0.0
H928 H 0.54522 0.15331 0.85023 0.0
H929 H 0.46254 0.17294 0.88694 0.0
H930 H 0.46087 0.16491 0.8584 0.0
H931 H 0.47537 0.19004 0.86589 0.0
C932 C 0.49377 0.18559 0.80281 0.0
C933 C 0.50907 0.20312 0.79985 0.0
C934 C 0.49412 0.17287 0.8221 0.0
C935 C 0.50969 0.17751 0.83885 0.0
C936 C 0.52471 0.19526 0.83617 0.0
H937 H 0.51015 0.1037 0.96373 0.0
H938 H 0.51034 0.13385 0.9366 0.0
C939 C 0.52432 0.20805 0.81687 0.0
C940 C 0.51136 0.16265 0.85828 0.0
H941 H 0.48078 0.14 0.90029 0.0
C942 C 0.53125 0.15061 0.86137 0.0
C943 C 0.49319 0.15934 0.8729 0.0
C944 C 0.47186 0.17265 0.87104 0.0
C945 C 0.5331 0.1346 0.87813 0.0
C946 C 0.51447 0.13038 0.89192 0.0
C947 C 0.49494 0.14312 0.88949 0.0
C948 C 0.51464 0.11219 0.90838 0.0
C949 C 0.5549 0.12219 0.88081 0.0
C950 C 0.51671 0.09003 0.90141 0.0
C951 C 0.51658 0.07275 0.9168 0.0
C952 C 0.51429 0.07728 0.93952 0.0
C953 C 0.51205 0.09955 0.94641 0.0
C954 C 0.51212 0.11683 0.93095 0.0
H955 H 0.5691 0.13139 0.87325 0.0
H956 H 0.55869 0.11923 0.89854 0.0
H957 H 0.55358 0.10581 0.87246 0.0
H958 H 0.51826 0.0861 0.884 0.0
H959 H 0.51829 0.05584 0.91083 0.0
H960 H 0.7961 0.52843 0.82762 0.0
H961 H 0.8297 0.52874 0.85067 0.0
H962 H 0.85875 0.47703 0.8104 0.0
H963 H 0.8249 0.47641 0.78736 0.0
H964 H 0.85872 0.4681 0.85639 0.0
H965 H 0.8935 0.55166 0.83832 0.0
H966 H 0.86422 0.55197 0.84512 0.0
H967 H 0.8735 0.53805 0.82045 0.0
C968 C 0.80973 0.51726 0.82356 0.0
C969 C 0.80788 0.50232 0.80578 0.0
C970 C 0.82898 0.5176 0.83661 0.0
C971 C 0.84677 0.50307 0.83209 0.0
C972 C 0.84523 0.48848 0.81403 0.0
H973 H 0.97183 0.50566 0.90685 0.0
H974 H 0.94436 0.50501 0.87698 0.0
C975 C 0.82598 0.48822 0.80085 0.0
C976 C 0.86606 0.50199 0.84737 0.0
H977 H 0.90696 0.53368 0.87106 0.0
C978 C 0.86946 0.48233 0.85942 0.0
C979 C 0.88012 0.52053 0.85113 0.0
C980 C 0.87784 0.54169 0.83793 0.0
C981 C 0.88603 0.48102 0.8758 0.0
C982 C 0.89931 0.49994 0.88036 0.0
C983 C 0.89653 0.5193 0.86769 0.0
C984 C 0.91588 0.50011 0.89851 0.0
C985 C 0.88912 0.45945 0.88819 0.0
C986 C 0.90888 0.49783 0.92053 0.0
C987 C 0.92451 0.49823 0.93771 0.0
C988 C 0.94746 0.50095 0.93317 0.0
C989 C 0.95434 0.5034 0.91102 0.0
C990 C 0.93868 0.50308 0.89389 0.0
H991 H 0.88179 0.44515 0.87907 0.0
H992 H 0.90715 0.45607 0.89122 0.0
H993 H 0.8806 0.46064 0.90445 0.0
H994 H 0.89129 0.4959 0.92444 0.0
H995 H 0.91857 0.49633 0.95452 0.0
H996 H 0.73346 0.68149 0.97554 0.0
H997 H 0.7003 0.65767 0.97566 0.0
H998 H 0.67169 0.69697 0.02822 0.0
H999 H 0.70511 0.72084 0.02833 0.0
H1000 H 0.67332 0.65019 0.03636 0.0
H1001 H 0.6355 0.66932 0.9548 0.0
H1002 H 0.66495 0.66331 0.95364 0.0
H1003 H 0.65534 0.68758 0.9682 0.0
C1004 C 0.71998 0.68521 0.98694 0.0
C1005 C 0.72184 0.70292 1.002 0.0
C1006 C 0.70099 0.67171 0.98688 0.0
C1007 C 0.68351 0.6757 1.00181 0.0
C1008 C 0.685 0.69375 0.01648 0.0
H1009 H 0.55905 0.60055 0.002 0.0
H1010 H 0.58696 0.63011 0.0021 0.0
C1011 C 0.70398 0.7074 0.01645 0.0
C1012 C 0.66461 0.65987 0.00318 0.0
H1013 H 0.62304 0.63603 0.97258 0.0
C1014 C 0.66214 0.64724 0.02253 0.0
C1015 C 0.65004 0.65619 0.98514 0.0
C1016 C 0.6514 0.66995 0.96433 0.0
C1017 C 0.64589 0.63046 0.02405 0.0
C1018 C 0.63199 0.6261 0.00563 0.0
C1019 C 0.63395 0.63925 0.98657 0.0
C1020 C 0.61524 0.60799 0.00584 0.0
C1021 C 0.64371 0.61754 0.04532 0.0
C1022 C 0.62197 0.58569 0.00767 0.0
C1023 C 0.60605 0.56863 0.00761 0.0
C1024 C 0.58311 0.5736 0.00565 0.0
C1025 C 0.57653 0.59601 0.00364 0.0
C1026 C 0.59245 0.613 0.00365 0.0
H1027 H 0.65164 0.6264 0.05941 0.0
H1028 H 0.62584 0.61441 0.04935 0.0
H1029 H 0.65217 0.6012 0.04343 0.0
H1030 H 0.63956 0.58149 0.00898 0.0
H1031 H 0.61177 0.5516 0.00912 0.0
H1032 H 0.29176 0.69341 0.9853 0.0
H1033 H 0.31522 0.65987 0.98598 0.0
H1034 H 0.35656 0.68941 0.03655 0.0
H1035 H 0.33308 0.72271 0.03618 0.0
H1036 H 0.36162 0.66056 0.97628 0.0
H1037 H 0.34536 0.62597 0.05973 0.0
H1038 H 0.32674 0.64558 0.04652 0.0
H1039 H 0.35192 0.65513 0.05978 0.0
C1040 C 0.30554 0.69249 0.99691 0.0
C1041 C 0.3107 0.71065 0.01063 0.0
C1042 C 0.31896 0.67341 0.9972 0.0
C1043 C 0.33749 0.67214 0.01144 0.0
C1044 C 0.34214 0.68993 0.0257 0.0
H1045 H 0.46148 0.5999 1.00175 0.0
H1046 H 0.43149 0.6276 0.00228 0.0
C1047 C 0.32885 0.709 0.02533 0.0
C1048 C 0.35319 0.65317 0.01011 0.0
H1049 H 0.37809 0.6127 0.04109 0.0
C1050 C 0.36505 0.64991 0.99035 0.0
C1051 C 0.35752 0.63928 0.02847 0.0
C1052 C 0.34457 0.64148 0.04977 0.0
C1053 C 0.38171 0.63355 0.9887 0.0
C1054 C 0.38675 0.62034 0.00738 0.0
C1055 C 0.37435 0.62307 0.02689 0.0
C1056 C 0.4049 0.60362 0.007 0.0
C1057 C 0.39381 0.63053 0.967 0.0
C1058 C 0.39986 0.58105 0.00991 0.0
C1059 C 0.41692 0.56518 0.00968 0.0
C1060 C 0.4394 0.5716 0.0067 0.0
C1061 C 0.44439 0.59432 0.00402 0.0
C1062 C 0.42727 0.61018 0.0042 0.0
H1063 H 0.38439 0.63802 0.95303 0.0
H1064 H 0.4104 0.63879 0.96795 0.0
H1065 H 0.39661 0.61261 0.96345 0.0
H1066 H 0.38269 0.57571 0.01222 0.0
H1067 H 0.41239 0.54788 0.01192 0.0
H1068 H 0.3285 0.28196 0.97225 0.0
H1069 H 0.35321 0.3144 0.97256 0.0
H1070 H 0.31894 0.33982 0.03001 0.0
H1071 H 0.29442 0.30708 0.03012 0.0
H1072 H 0.34524 0.36096 0.97146 0.0
H1073 H 0.38495 0.3331 0.04992 0.0
H1074 H 0.36719 0.31519 0.0336 0.0
H1075 H 0.35504 0.33638 0.05076 0.0
C1076 C 0.32612 0.29455 0.98486 0.0
C1077 C 0.30974 0.29188 1.00134 0.0
C1078 C 0.34017 0.3131 0.98494 0.0
C1079 C 0.33813 0.32925 1.00153 0.0
C1080 C 0.32097 0.32731 0.01727 0.0
H1081 H 0.4125 0.45369 0.00597 0.0
H1082 H 0.38316 0.42555 0.00477 0.0
C1083 C 0.30686 0.30874 0.01719 0.0
C1084 C 0.35486 0.34734 0.00296 0.0
H1085 H 0.39788 0.36684 0.03467 0.0
C1086 C 0.35668 0.36237 0.98532 0.0
C1087 C 0.36998 0.34881 0.02091 0.0
C1088 C 0.36942 0.33243 0.03982 0.0
C1089 C 0.37324 0.37894 0.98517 0.0
C1090 C 0.38814 0.3806 0.00327 0.0
C1091 C 0.38633 0.36555 0.02089 0.0
C1092 C 0.40599 0.39763 0.00411 0.0
C1093 C 0.37503 0.39415 0.96541 0.0
C1094 C 0.42857 0.39121 0.00468 0.0
C1095 C 0.44549 0.40726 0.00549 0.0
C1096 C 0.4401 0.43005 0.00587 0.0
C1097 C 0.41737 0.43634 0.00558 0.0
C1098 C 0.40051 0.42028 0.00477 0.0
H1099 H 0.36598 0.38739 0.95083 0.0
H1100 H 0.36756 0.41053 0.96958 0.0
H1101 H 0.39282 0.39691 0.96081 0.0
H1102 H 0.4331 0.37376 0.00431 0.0
H1103 H 0.46276 0.40176 0.00574 0.0
H1104 H 0.73204 0.31833 0.9687 0.0
H1105 H 0.69961 0.34315 0.96976 0.0
H1106 H 0.67448 0.30853 0.02706 0.0
H1107 H 0.70722 0.28388 0.0264 0.0
H1108 H 0.65271 0.33554 0.9691 0.0
H1109 H 0.68189 0.37383 0.04773 0.0
H1110 H 0.69963 0.3563 0.03098 0.0
H1111 H 0.67843 0.34413 0.04822 0.0
C1112 C 0.71951 0.3159 0.98143 0.0
C1113 C 0.72228 0.29937 0.99765 0.0
C1114 C 0.70097 0.33001 0.98195 0.0
C1115 C 0.68492 0.3279 0.99872 0.0
C1116 C 0.68693 0.31062 0.0142 0.0
H1117 H 0.56008 0.40212 0.00552 0.0
H1118 H 0.58836 0.37297 0.0038 0.0
C1119 C 0.70549 0.29643 0.01367 0.0
C1120 C 0.66684 0.34462 1.00056 0.0
H1121 H 0.64783 0.3871 0.03301 0.0
C1122 C 0.65152 0.34674 0.98311 0.0
C1123 C 0.66566 0.35943 0.01871 0.0
C1124 C 0.68236 0.35854 0.03742 0.0
C1125 C 0.63494 0.36329 0.98336 0.0
C1126 C 0.63356 0.37788 1.00166 0.0
C1127 C 0.64891 0.37578 0.01908 0.0
C1128 C 0.61646 0.39564 0.00292 0.0
C1129 C 0.61939 0.3654 0.9638 0.0
C1130 C 0.62295 0.41806 0.00356 0.0
C1131 C 0.60682 0.43488 0.00465 0.0
C1132 C 0.58388 0.42954 0.00526 0.0
C1133 C 0.57754 0.40696 0.00496 0.0
C1134 C 0.59367 0.3902 0.00385 0.0
H1135 H 0.62597 0.35654 0.94904 0.0
H1136 H 0.60292 0.35802 0.96807 0.0
H1137 H 0.61668 0.38314 0.95945 0.0
H1138 H 0.64052 0.42255 0.00298 0.0
H1139 H 0.61236 0.45204 0.00492 0.0
H1140 H 0.98171 0.71752 0.68689 0.0
H1141 H 0.98263 0.68408 0.66393 0.0
H1142 H 0.03786 0.65867 0.70232 0.0
H1143 H 0.03737 0.69241 0.72511 0.0
H1144 H 0.04546 0.65828 0.65685 0.0
H1145 H 0.96352 0.61993 0.67671 0.0
H1146 H 0.96138 0.64877 0.66928 0.0
H1147 H 0.97629 0.64096 0.69392 0.0
C1148 C 0.99395 0.70473 0.69054 0.0
C1149 C 0.00953 0.7076 0.70773 0.0
C1150 C 0.9943 0.68554 0.67757 0.0
C1151 C 0.01014 0.6688 0.68161 0.0
C1152 C 0.0254 0.67135 0.69907 0.0
H1153 H 0.01126 0.54408 0.60707 0.0
H1154 H 0.01137 0.57131 0.63705 0.0
C1155 C 0.02502 0.69055 0.71212 0.0
C1156 C 0.01184 0.64957 0.66642 0.0
H1157 H 0.98154 0.60726 0.64358 0.0
C1158 C 0.0316 0.64694 0.65414 0.0
C1159 C 0.99381 0.63469 0.66308 0.0
C1160 C 0.97263 0.63605 0.6766 0.0
C1161 C 0.03348 0.63036 0.63793 0.0
C1162 C 0.01499 0.61628 0.63374 0.0
C1163 C 0.99558 0.61828 0.64666 0.0
C1164 C 0.01526 0.5998 0.61558 0.0
C1165 C 0.05517 0.62813 0.62533 0.0
C1166 C 0.01715 0.60687 0.59357 0.0
C1167 C 0.01708 0.5914 0.57635 0.0
C1168 C 0.01503 0.56851 0.58082 0.0
C1169 C 0.01298 0.56153 0.60296 0.0
C1170 C 0.013 0.57705 0.62016 0.0
H1171 H 0.06937 0.63586 0.63438 0.0
H1172 H 0.0592 0.61038 0.62214 0.0
H1173 H 0.05353 0.63669 0.60915 0.0
H1174 H 0.01849 0.62442 0.58969 0.0
H1175 H 0.01862 0.59744 0.55956 0.0
H1176 H 0.32129 0.02334 0.72136 0.0
H1177 H 0.35312 0.02333 0.69571 0.0
H1178 H 0.3264 0.96521 0.66326 0.0
H1179 H 0.29486 0.96486 0.68905 0.0
H1180 H 0.3735 0.96434 0.66925 0.0
H1181 H 0.34362 0.0429 0.63066 0.0
H1182 H 0.34797 0.04403 0.66004 0.0
H1183 H 0.32637 0.02649 0.64895 0.0
C1184 C 0.3225 0.01029 0.70907 0.0
C1185 C 0.30551 0.99424 0.70701 0.0
C1186 C 0.34053 0.01044 0.69431 0.0
C1187 C 0.3418 0.99454 0.67734 0.0
C1188 C 0.32559 0.97773 0.67613 0.0
H1189 H 0.41439 0.99965 0.55306 0.0
H1190 H 0.38568 0.99764 0.58191 0.0
C1191 C 0.30758 0.97759 0.6908 0.0
C1192 C 0.35931 0.99595 0.66012 0.0
H1193 H 0.37761 0.02802 0.61718 0.0
C1194 C 0.37448 0.97828 0.6579 0.0
C1195 C 0.36019 0.01397 0.6451 0.0
C1196 C 0.34358 0.03287 0.64609 0.0
C1197 C 0.39076 0.97828 0.64117 0.0
C1198 C 0.39199 0.99656 0.6265 0.0
C1199 C 0.37665 0.01411 0.62856 0.0
C1200 C 0.40927 0.9979 0.60905 0.0
C1201 C 0.40626 0.95856 0.63909 0.0
C1202 C 0.43194 0.99908 0.61484 0.0
C1203 C 0.44835 1.00025 0.59848 0.0
C1204 C 0.44242 1.00037 0.57594 0.0
C1205 C 0.4196 0.99954 0.57021 0.0
C1206 C 0.40316 0.99839 0.58666 0.0
H1207 H 0.39959 0.94371 0.64783 0.0
H1208 H 0.40905 0.95419 0.62146 0.0
H1209 H 0.42271 0.96279 0.64652 0.0
H1210 H 0.43696 0.99917 0.63205 0.0
H1211 H 0.4657 0.00101 0.60363 0.0
H1212 H 0.98934 0.32496 0.72555 0.0
H1213 H 0.98943 0.34734 0.69182 0.0
H1214 H 0.0389 0.30375 0.66314 0.0
H1215 H 0.03916 0.28139 0.69709 0.0
H1216 H 0.04955 0.34976 0.66098 0.0
H1217 H 0.9638 0.33285 0.63008 0.0
H1218 H 0.96471 0.34083 0.65868 0.0
H1219 H 0.97762 0.31524 0.65007 0.0
C1220 C 0.00019 0.3201 0.71203 0.0
C1221 C 0.01431 0.30149 0.71396 0.0
C1222 C 5e-05 0.33275 0.6927 0.0
C1223 C 0.01396 0.32701 0.67492 0.0
C1224 C 0.02791 0.30831 0.67665 0.0
H1225 H 0.00922 0.39956 0.54934 0.0
H1226 H 0.01033 0.36956 0.57663 0.0
C1227 C 0.02798 0.29553 0.69598 0.0
C1228 C 0.01494 0.34151 0.6552 0.0
H1229 H 0.98244 0.36468 0.61491 0.0
C1230 C 0.03498 0.35281 0.6507 0.0
C1231 C 0.99597 0.34526 0.64173 0.0
C1232 C 0.97435 0.33275 0.64521 0.0
C1233 C 0.03625 0.36858 0.63366 0.0
C1234 C 0.01691 0.37325 0.62101 0.0
C1235 C 0.99717 0.3612 0.62482 0.0
C1236 C 0.01656 0.39131 0.60443 0.0
C1237 C 0.05819 0.38029 0.62948 0.0
C1238 C 0.01941 0.41346 0.61114 0.0
C1239 C 0.01872 0.43066 0.59566 0.0
C1240 C 0.01512 0.42603 0.57313 0.0
C1241 C 0.01213 0.40376 0.56651 0.0
C1242 C 0.01273 0.38657 0.58206 0.0
H1243 H 0.07256 0.37083 0.63638 0.0
H1244 H 0.06097 0.38283 0.6115 0.0
H1245 H 0.05783 0.39687 0.63755 0.0
H1246 H 0.02201 0.41746 0.62841 0.0
H1247 H 0.02108 0.44756 0.60141 0.0
H1248 H 0.73378 0.03202 0.68907 0.0
H1249 H 0.70048 0.03214 0.66559 0.0
H1250 H 0.67123 0.98024 0.70546 0.0
H1251 H 0.70479 0.97984 0.72894 0.0
H1252 H 0.67265 0.97101 0.6596 0.0
H1253 H 0.63607 0.05416 0.67604 0.0
H1254 H 0.66551 0.05488 0.67 0.0
H1255 H 0.65581 0.04103 0.69454 0.0
C1256 C 0.72011 0.02084 0.693 0.0
C1257 C 0.72186 0.00584 0.71073 0.0
C1258 C 0.70104 0.02106 0.6797 0.0
C1259 C 0.68335 0.00634 0.68393 0.0
C1260 C 0.68469 0.99182 0.70206 0.0
H1261 H 0.56004 0.00631 0.60694 0.0
H1262 H 0.58717 0.00646 0.63706 0.0
C1263 C 0.70377 0.99168 0.71548 0.0
C1264 C 0.6645 0.00484 0.66816 0.0
H1265 H 0.62381 0.0357 0.6431 0.0
C1266 C 0.66177 0.98504 0.65616 0.0
C1267 C 0.65029 0.02314 0.66384 0.0
C1268 C 0.65188 0.04445 0.67693 0.0
C1269 C 0.6457 0.98333 0.63934 0.0
C1270 C 0.63225 0.002 0.63429 0.0
C1271 C 0.63438 0.02151 0.64686 0.0
C1272 C 0.61594 0.00166 0.61591 0.0
C1273 C 0.64328 0.96161 0.62707 0.0
C1274 C 0.62322 0.99914 0.594 0.0
C1275 C 0.60777 0.99906 0.57664 0.0
C1276 C 0.58475 0.00154 0.58093 0.0
C1277 C 0.5776 0.00423 0.60296 0.0
C1278 C 0.59307 0.00437 0.62025 0.0
H1279 H 0.65069 0.94752 0.63645 0.0
H1280 H 0.62539 0.95786 0.62372 0.0
H1281 H 0.65211 0.96283 0.61098 0.0
H1282 H 0.64089 0.99741 0.59031 0.0
H1283 H 0.6139 0.99702 0.55992 0.0
H1284 H 0.0358 0.31107 0.28537 0.0
H1285 H 0.03601 0.34467 0.30847 0.0
H1286 H 0.986 0.31549 0.35093 0.0
H1287 H 0.9854 0.28215 0.3278 0.0
H1288 H 0.97882 0.3616 0.34017 0.0
H1289 H 0.06474 0.34373 0.37127 0.0
H1290 H 0.06131 0.34489 0.34175 0.0
H1291 H 0.04804 0.32308 0.3572 0.0
C1292 C 0.02462 0.312 0.29944 0.0
C1293 C 0.01076 0.29393 0.30496 0.0
C1294 C 0.02488 0.3311 0.31267 0.0
C1295 C 0.01125 0.33236 0.33154 0.0
C1296 C 0.99671 0.31475 0.3365 0.0
H1297 H 0.01718 0.40477 0.45272 0.0
H1298 H 0.01671 0.37771 0.42266 0.0
C1299 C 0.9965 0.29568 0.32336 0.0
C1300 C 0.01272 0.35148 0.34684 0.0
H1301 H 0.04665 0.37539 0.38554 0.0
C1302 C 0.9937 0.36482 0.34995 0.0
C1303 C 0.0321 0.35534 0.35971 0.0
C1304 C 0.05271 0.34096 0.35753 0.0
C1305 C 0.99344 0.38182 0.36586 0.0
C1306 C 0.01279 0.38559 0.3788 0.0
C1307 C 0.03191 0.37246 0.37547 0.0
C1308 C 0.01312 0.40225 0.39677 0.0
C1309 C 0.97226 0.39507 0.36928 0.0
C1310 C 0.01144 0.42502 0.39208 0.0
C1311 C 0.0117 0.44061 0.40923 0.0
C1312 C 0.01369 0.43366 0.43139 0.0
C1313 C 0.01553 0.41078 0.43592 0.0
C1314 C 0.01532 0.39525 0.41876 0.0
H1315 H 0.95765 0.38738 0.36086 0.0
H1316 H 0.96844 0.39667 0.38718 0.0
H1317 H 0.9746 0.41207 0.36251 0.0
H1318 H 0.01003 0.43074 0.37516 0.0
H1319 H 0.01029 0.45807 0.40506 0.0
H1320 H 0.69506 0.03292 0.28894 0.0
H1321 H 0.6725 0.0319 0.32261 0.0
H1322 H 0.71264 0.97771 0.3474 0.0
H1323 H 0.73505 0.97831 0.31344 0.0
H1324 H 0.66652 0.96971 0.34879 0.0
H1325 H 0.68695 0.0515 0.38595 0.0
H1326 H 0.67884 0.05336 0.35743 0.0
H1327 H 0.70404 0.03874 0.36482 0.0
C1328 C 0.69917 0.02087 0.30162 0.0
C1329 C 0.71676 0.00564 0.29854 0.0
C1330 C 0.68643 0.02047 0.32094 0.0
C1331 C 0.6911 0.00492 0.33759 0.0
C1332 C 0.70891 0.98995 0.33479 0.0
H1333 H 0.61778 0.00446 0.46281 0.0
H1334 H 0.64777 0.00415 0.43534 0.0
C1335 C 0.72175 0.99039 0.31546 0.0
C1336 C 0.67619 0.00323 0.35704 0.0
H1337 H 0.65373 0.03352 0.3993 0.0
C1338 C 0.66392 0.98354 0.36003 0.0
C1339 C 0.67302 0.02122 0.37177 0.0
C1340 C 0.68657 0.04232 0.37001 0.0
C1341 C 0.64784 0.98172 0.37682 0.0
C1342 C 0.64377 1.00017 0.39075 0.0
C1343 C 0.65672 0.0195 0.3884 0.0
C1344 C 0.62562 0.99998 0.40737 0.0
C1345 C 0.63522 0.96013 0.37941 0.0
C1346 C 0.60323 0.99801 0.40066 0.0
C1347 C 0.58601 0.9982 0.41627 0.0
C1348 C 0.59086 1.00045 0.43892 0.0
C1349 C 0.61338 0.00258 0.44554 0.0
C1350 C 0.63058 0.00244 0.42989 0.0
H1351 H 0.64434 0.946 0.37171 0.0
H1352 H 0.63229 0.95626 0.39713 0.0
H1353 H 0.61869 0.9616 0.37115 0.0
H1354 H 0.59906 0.99651 0.3833 0.0
H1355 H 0.56892 0.99657 0.41051 0.0
H1356 H 0.04685 0.68092 0.28876 0.0
H1357 H 0.0459 0.65763 0.32188 0.0
H1358 H 0.99221 0.69756 0.34833 0.0
H1359 H 0.99265 0.72064 0.31494 0.0
H1360 H 0.05032 0.66822 0.36772 0.0
H1361 H 0.96663 0.63351 0.34643 0.0
H1362 H 0.98344 0.6487 0.32676 0.0
H1363 H 0.96841 0.66333 0.34797 0.0
C1364 C 0.03484 0.68475 0.30163 0.0
C1365 C 0.01964 0.70243 0.29913 0.0
C1366 C 0.03444 0.67154 0.32059 0.0
C1367 C 0.01879 0.67572 0.33736 0.0
C1368 C 0.00421 0.69392 0.3354 0.0
H1369 H 0.01724 0.6029 0.46305 0.0
H1370 H 0.01795 0.63275 0.43562 0.0
C1371 C 0.00462 0.70718 0.31642 0.0
C1372 C 0.01714 0.66027 0.35631 0.0
H1373 H 0.98346 0.6206 0.37919 0.0
C1374 C 0.03566 0.65793 0.3704 0.0
C1375 C 0.99805 0.64672 0.3595 0.0
C1376 C 0.97803 0.64797 0.34431 0.0
C1377 C 0.03569 0.64215 0.38752 0.0
C1378 C 0.0166 0.6286 0.39066 0.0
C1379 C 0.99799 0.63115 0.37676 0.0
C1380 C 0.01609 0.6107 0.40742 0.0
C1381 C 0.05639 0.63956 0.40159 0.0
C1382 C 0.01439 0.58847 0.40062 0.0
C1383 C 0.01389 0.57136 0.41619 0.0
C1384 C 0.01496 0.57615 0.43894 0.0
C1385 C 0.01645 0.59854 0.44569 0.0
C1386 C 0.01698 0.61565 0.43005 0.0
H1387 H 0.07108 0.64821 0.39431 0.0
H1388 H 0.0532 0.64675 0.41819 0.0
H1389 H 0.0606 0.6217 0.40377 0.0
H1390 H 0.01361 0.58435 0.3832 0.0
H1391 H 0.01268 0.55438 0.41031 0.0
H1392 H 0.29578 0.029 0.32756 0.0
H1393 H 0.32934 0.02931 0.35067 0.0
H1394 H 0.35854 0.97773 0.31034 0.0
H1395 H 0.32473 0.97711 0.28724 0.0
H1396 H 0.35841 0.96868 0.3563 0.0
H1397 H 0.39315 0.05233 0.33854 0.0
H1398 H 0.36386 0.05257 0.34529 0.0
H1399 H 0.37319 0.03875 0.32058 0.0
C1400 C 0.30944 0.01787 0.3235 0.0
C1401 C 0.30764 0.00295 0.30568 0.0
C1402 C 0.32867 0.0182 0.33658 0.0
C1403 C 0.34648 0.0037 0.33206 0.0
C1404 C 0.345 0.98915 0.31397 0.0
H1405 H 0.47159 0.00593 0.40678 0.0
H1406 H 0.44405 0.00548 0.37695 0.0
C1407 C 0.32577 0.98889 0.30076 0.0
C1408 C 0.36575 0.0026 0.34738 0.0
H1409 H 0.40663 0.03423 0.37119 0.0
C1410 C 0.36915 0.98291 0.35938 0.0
C1411 C 0.37979 0.02113 0.35122 0.0
C1412 C 0.3775 0.04234 0.33809 0.0
C1413 C 0.38572 0.98155 0.37576 0.0
C1414 C 0.399 1.00045 0.38037 0.0
C1415 C 0.39621 0.01985 0.36777 0.0
C1416 C 0.41561 1.00054 0.3985 0.0
C1417 C 0.38881 0.95994 0.38808 0.0
C1418 C 0.40864 0.99819 0.42052 0.0
C1419 C 0.4243 0.99848 0.43768 0.0
C1420 C 0.44725 0.00116 0.43311 0.0
C1421 C 0.4541 0.0037 0.41096 0.0
C1422 C 0.4384 0.00349 0.39385 0.0
H1423 H 0.38145 0.94567 0.37893 0.0
H1424 H 0.40683 0.95654 0.39108 0.0
H1425 H 0.3803 0.96109 0.40435 0.0
H1426 H 0.39105 0.99628 0.42445 0.0
H1427 H 0.41838 0.99652 0.45449 0.0
H1428 H 0.04239 0.22302 0.32688 0.0
H1429 H 0.04214 0.19044 0.35104 0.0
H1430 H 0.98935 0.16129 0.31197 0.0
H1431 H 0.98936 0.19414 0.28775 0.0
H1432 H 0.98077 0.1622 0.35825 0.0
H1433 H 0.06442 0.12653 0.3402 0.0
H1434 H 0.06495 0.15573 0.34651 0.0
H1435 H 0.05079 0.14619 0.32205 0.0
C1436 C 0.03088 0.20957 0.32329 0.0
C1437 C 0.01585 0.21116 0.30544 0.0
C1438 C 0.03087 0.19089 0.33702 0.0
C1439 C 0.01587 0.17333 0.33322 0.0
C1440 C 0.00115 0.1746 0.31513 0.0
H1441 H 0.01735 0.04865 0.40743 0.0
H1442 H 0.01724 0.07664 0.37819 0.0
C1443 C 0.00126 0.19329 0.30123 0.0
C1444 C 0.01471 0.15445 0.34904 0.0
H1445 H 0.04616 0.11344 0.37284 0.0
C1446 C 0.99498 0.15139 0.3613 0.0
C1447 C 0.03321 0.14027 0.3529 0.0
C1448 C 0.05449 0.14215 0.33959 0.0
C1449 C 0.99351 0.13499 0.3778 0.0
C1450 C 0.01234 0.12144 0.38231 0.0
C1451 C 0.03182 0.12401 0.36955 0.0
C1452 C 0.01219 0.10451 0.40023 0.0
C1453 C 0.97179 0.13224 0.39024 0.0
C1454 C 0.00964 0.1109 0.42242 0.0
C1455 C 0.00974 0.09492 0.43927 0.0
C1456 C 0.01241 0.07219 0.43428 0.0
C1457 C 0.01512 0.06593 0.41199 0.0
C1458 C 0.01511 0.08193 0.39519 0.0
H1459 H 0.9575 0.13987 0.38124 0.0
H1460 H 0.96805 0.11438 0.39314 0.0
H1461 H 0.97322 0.14055 0.40656 0.0
H1462 H 0.00776 0.12829 0.42673 0.0
H1463 H 0.00767 0.10044 0.4562 0.0
H1464 H 0.79155 0.01286 0.31536 0.0
H1465 H 0.81725 0.01348 0.34705 0.0
H1466 H 0.87067 0.98965 0.30526 0.0
H1467 H 0.84492 0.98893 0.27357 0.0
H1468 H 0.84363 0.97655 0.36461 0.0
H1469 H 0.89574 0.04712 0.33504 0.0
H1470 H 0.86807 0.04151 0.32432 0.0
H1471 H 0.89152 0.02512 0.31535 0.0
C1472 C 0.80875 0.00769 0.31302 0.0
C1473 C 0.81641 0.00082 0.2922 0.0
C1474 C 0.82339 0.00807 0.33107 0.0
C1475 C 0.84587 0.00183 0.32841 0.0
C1476 C 0.85344 0.99482 0.30756 0.0
H1477 H 0.96405 0.99295 0.40887 0.0
H1478 H 0.93584 0.99299 0.37979 0.0
C1479 C 0.83878 0.99433 0.28955 0.0
C1480 C 0.86143 0.00245 0.34745 0.0
H1481 H 0.90904 0.02743 0.36633 0.0
C1482 C 0.85787 0.98776 0.36512 0.0
C1483 C 0.87992 0.01711 0.34798 0.0
C1484 C 0.88403 0.03377 0.32977 0.0
C1485 C 0.87278 0.98683 0.38306 0.0
C1486 C 0.89144 0.00135 0.38349 0.0
C1487 C 0.89475 0.01629 0.36595 0.0
C1488 C 0.90821 0.00087 0.40156 0.0
C1489 C 0.86885 0.96983 0.40099 0.0
C1490 C 0.90207 0.0054 0.42351 0.0
C1491 C 0.9182 0.0053 0.44031 0.0
C1492 C 0.94082 0.00092 0.43538 0.0
C1493 C 0.94685 0.99649 0.41332 0.0
C1494 C 0.93073 0.99649 0.39663 0.0
H1495 H 0.85726 0.95647 0.39551 0.0
H1496 H 0.88486 0.96209 0.40631 0.0
H1497 H 0.86125 0.97815 0.41555 0.0
H1498 H 0.88487 0.00931 0.42762 0.0
H1499 H 0.91297 0.00897 0.45706 0.0
H1500 H 0.01142 0.83183 0.27433 0.0
H1501 H 0.01122 0.85788 0.30564 0.0
H1502 H 0.01162 0.80255 0.35105 0.0
H1503 H 0.012 0.77654 0.31975 0.0
H1504 H 0.97963 0.86173 0.3398 0.0
H1505 H 0.06382 0.84105 0.37308 0.0
H1506 H 0.05494 0.8329 0.34573 0.0
H1507 H 0.0454 0.8177 0.3695 0.0
C1508 C 0.01155 0.82532 0.29103 0.0
C1509 C 0.01185 0.8023 0.29475 0.0
C1510 C 0.01141 0.84015 0.30887 0.0
C1511 C 0.01173 0.83218 0.33071 0.0
C1512 C 0.01182 0.80909 0.33437 0.0
H1513 H 0.01239 0.90159 0.45801 0.0
H1514 H 0.0115 0.87329 0.4289 0.0
C1515 C 0.01193 0.79425 0.31651 0.0
C1516 C 0.01147 0.8481 0.34954 0.0
H1517 H 0.04178 0.86603 0.39407 0.0
C1518 C 0.99323 0.86268 0.35165 0.0
C1519 C 0.02917 0.84925 0.36507 0.0
C1520 C 0.04955 0.83454 0.36322 0.0
C1521 C 0.99215 0.87832 0.3689 0.0
C1522 C 0.01 0.87973 0.38423 0.0
C1523 C 0.0281 0.86493 0.38231 0.0
C1524 C 0.01051 0.8969 0.40193 0.0
C1525 C 0.97174 0.89301 0.37071 0.0
C1526 C 0.01059 0.91958 0.39646 0.0
C1527 C 0.01109 0.93581 0.41302 0.0
C1528 C 0.01167 0.92975 0.43551 0.0
C1529 C 0.01188 0.90695 0.44093 0.0
C1530 C 0.01139 0.89071 0.4243 0.0
H1531 H 0.95715 0.88577 0.36187 0.0
H1532 H 0.96704 0.89576 0.38827 0.0
H1533 H 0.97546 0.90942 0.36316 0.0
H1534 H 0.01041 0.92476 0.37931 0.0
H1535 H 0.01104 0.95312 0.40809 0.0
H1536 H 0.23699 0.97134 0.32925 0.0
H1537 H 0.20409 0.97162 0.35329 0.0
H1538 H 0.17357 0.02185 0.31227 0.0
H1539 H 0.20672 0.02179 0.28816 0.0
H1540 H 0.17437 0.03191 0.35852 0.0
H1541 H 0.1402 0.94762 0.34249 0.0
H1542 H 0.16961 0.948 0.34875 0.0
H1543 H 0.15962 0.96117 0.32396 0.0
C1544 C 0.22319 0.9823 0.32523 0.0
C1545 C 0.22444 0.99659 0.30686 0.0
C1546 C 0.20433 0.98233 0.33889 0.0
C1547 C 0.18631 0.99661 0.33447 0.0
C1548 C 0.18727 0.0106 0.31589 0.0
H1549 H 0.06043 0.99533 0.40784 0.0
H1550 H 0.08877 0.99517 0.37876 0.0
C1551 C 0.20612 0.01047 0.30208 0.0
C1552 C 0.16721 0.99783 0.35012 0.0
H1553 H 0.12635 0.96647 0.37443 0.0
C1554 C 0.16371 0.01768 0.36186 0.0
C1555 C 0.15326 0.97929 0.35435 0.0
C1556 C 0.15567 0.95786 0.34159 0.0
C1557 C 0.14708 0.01926 0.37821 0.0
C1558 C 0.13376 1.00043 0.38309 0.0
C1559 C 0.13676 0.98081 0.37084 0.0
C1560 C 0.11664 0.00074 0.40088 0.0
C1561 C 0.14386 0.04108 0.39014 0.0
C1562 C 0.12295 0.00368 0.42304 0.0
C1563 C 0.10678 0.00373 0.43981 0.0
C1564 C 0.08396 0.00083 0.43472 0.0
C1565 C 0.07778 0.99774 0.41245 0.0
C1566 C 0.09397 0.99759 0.39575 0.0
H1567 H 0.15146 0.05517 0.38092 0.0
H1568 H 0.12579 0.0446 0.39272 0.0
H1569 H 0.15201 0.04014 0.40659 0.0
H1570 H 0.14041 0.00576 0.4274 0.0
H1571 H 0.11222 0.00611 0.45672 0.0
H1572 H 0.98142 0.78016 0.68659 0.0
H1573 H 0.98223 0.81248 0.6621 0.0
H1574 H 0.03825 0.83915 0.69842 0.0
H1575 H 0.03779 0.8065 0.72286 0.0
H1576 H 0.97884 0.85854 0.67047 0.0
H1577 H 0.06123 0.83584 0.63402 0.0
H1578 H 0.04498 0.81665 0.65043 0.0
H1579 H 0.06062 0.83844 0.66362 0.0
C1580 C 0.99389 0.79293 0.68942 0.0
C1581 C 0.00971 0.79063 0.70653 0.0
C1582 C 0.99427 0.81145 0.67546 0.0
C1583 C 0.01053 0.82806 0.67817 0.0
C1584 C 0.02578 0.82634 0.6958 0.0
H1585 H 0.01009 0.95431 0.60559 0.0
H1586 H 0.00989 0.92603 0.63457 0.0
C1587 C 0.02536 0.8078 0.70988 0.0
C1588 C 0.01176 0.84672 0.66204 0.0
H1589 H 0.04438 0.86887 0.62112 0.0
C1590 C 0.99322 0.86091 0.65978 0.0
C1591 C 0.0304 0.84957 0.64786 0.0
C1592 C 0.0504 0.83425 0.64888 0.0
C1593 C 0.99281 0.87785 0.64373 0.0
C1594 C 0.01154 0.88083 0.62969 0.0
C1595 C 0.03009 0.86665 0.63198 0.0
C1596 C 0.01194 0.89812 0.61209 0.0
C1597 C 0.97206 0.89201 0.64151 0.0
C1598 C 0.01365 0.8919 0.58978 0.0
C1599 C 0.01384 0.90805 0.57309 0.0
C1600 C 0.01249 0.93083 0.57835 0.0
C1601 C 0.01107 0.93698 0.6008 0.0
C1602 C 0.01083 0.9208 0.61746 0.0
H1603 H 0.95741 0.8844 0.64993 0.0
H1604 H 0.97518 0.90851 0.64914 0.0
H1605 H 0.9678 0.89469 0.62384 0.0
H1606 H 0.01462 0.87448 0.58525 0.0
H1607 H 0.01505 0.9026 0.55606 0.0
H1608 H 0.20866 0.02711 0.72183 0.0
H1609 H 0.17577 0.02794 0.69744 0.0
H1610 H 0.19838 0.96775 0.66569 0.0
H1611 H 0.2309 0.96662 0.69016 0.0
H1612 H 0.17784 0.03088 0.65121 0.0
H1613 H 0.13208 0.95501 0.67705 0.0
H1614 H 0.1535 0.96774 0.69392 0.0
H1615 H 0.16112 0.95005 0.67114 0.0
C1616 C 0.20628 0.01378 0.71001 0.0
C1617 C 0.22234 0.99681 0.70787 0.0
C1618 C 0.1876 0.01435 0.696 0.0
C1619 C 0.18455 0.99781 0.67987 0.0
C1620 C 0.20019 0.98048 0.67823 0.0
H1621 H 0.11291 0.0023 0.55549 0.0
H1622 H 0.14095 0.00216 0.58497 0.0
C1623 C 0.21885 0.97995 0.69212 0.0
C1624 C 0.16603 0.99941 0.66361 0.0
H1625 H 0.1217 0.97073 0.64221 0.0
C1626 C 0.16542 0.01785 0.64937 0.0
C1627 C 0.14977 0.98246 0.66133 0.0
C1628 C 0.14896 0.9628 0.67681 0.0
C1629 C 0.14935 0.01947 0.63249 0.0
C1630 C 0.1337 0.00204 0.62961 0.0
C1631 C 0.1339 0.98394 0.64427 0.0
C1632 C 0.1168 0.00236 0.61164 0.0
C1633 C 0.14918 0.03988 0.61797 0.0
C1634 C 0.09393 0.00206 0.61684 0.0
C1635 C 0.07786 0.00202 0.60007 0.0
C1636 C 0.0843 0.00214 0.57766 0.0
C1637 C 0.10729 0.0023 0.57251 0.0
C1638 C 0.12337 0.00236 0.58935 0.0
H1639 H 0.15824 0.05399 0.62578 0.0
H1640 H 0.15761 0.03597 0.60209 0.0
H1641 H 0.13178 0.04521 0.61427 0.0
H1642 H 0.0885 0.00196 0.63393 0.0
H1643 H 0.06036 0.00184 0.60478 0.0
H1644 H 0.01865 0.17191 0.73839 0.0
H1645 H 0.01815 0.14581 0.70713 0.0
H1646 H 0.00893 0.20068 0.66208 0.0
H1647 H 0.00962 0.22677 0.69333 0.0
H1648 H 0.98403 0.13872 0.67608 0.0
H1649 H 0.06213 0.16719 0.63497 0.0
H1650 H 0.05521 0.17466 0.66306 0.0
H1651 H 0.04192 0.18867 0.64034 0.0
C1652 C 0.01662 0.17833 0.72177 0.0
C1653 C 0.01429 0.20125 0.71815 0.0
C1654 C 0.01631 0.16345 0.70395 0.0
C1655 C 0.01382 0.17128 0.6822 0.0
C1656 C 0.01132 0.19427 0.67864 0.0
H1657 H 0.00952 0.10158 0.55503 0.0
H1658 H 0.00897 0.12979 0.58423 0.0
C1659 C 0.0116 0.20915 0.69649 0.0
C1660 C 0.01329 0.15529 0.66341 0.0
H1661 H 0.04072 0.14003 0.61615 0.0
C1662 C 0.99644 0.139 0.66299 0.0
C1663 C 0.02941 0.15572 0.64625 0.0
C1664 C 0.04833 0.17236 0.64616 0.0
C1665 C 0.99519 0.12322 0.64587 0.0
C1666 C 0.01154 0.12339 0.6289 0.0
C1667 C 0.02821 0.13988 0.62914 0.0
C1668 C 0.01195 0.10625 0.61112 0.0
C1669 C 0.97615 0.10671 0.64595 0.0
C1670 C 0.01418 0.08363 0.61644 0.0
C1671 C 0.01445 0.06744 0.59982 0.0
C1672 C 0.01269 0.07348 0.57738 0.0
C1673 C 0.01085 0.09623 0.57207 0.0
C1674 C 0.01054 0.11242 0.58876 0.0
H1675 H 0.96178 0.11277 0.65596 0.0
H1676 H 0.97019 0.10324 0.62891 0.0
H1677 H 0.98201 0.09085 0.65334 0.0
H1678 H 0.01585 0.07846 0.63351 0.0
H1679 H 0.01611 0.05018 0.60466 0.0
H1680 H 0.79148 0.97249 0.68671 0.0
H1681 H 0.82393 0.97236 0.66209 0.0
H1682 H 0.85561 0.02259 0.70228 0.0
H1683 H 0.82292 0.02298 0.72694 0.0
H1684 H 0.85318 0.03258 0.65617 0.0
H1685 H 0.88809 0.94842 0.67136 0.0
H1686 H 0.8585 0.9487 0.66598 0.0
H1687 H 0.86921 0.96198 0.69042 0.0
C1688 C 0.80547 0.98334 0.69042 0.0
C1689 C 0.8047 0.99782 0.70866 0.0
C1690 C 0.82405 0.98312 0.67646 0.0
C1691 C 0.84221 0.99732 0.6805 0.0
C1692 C 0.84177 0.01142 0.69901 0.0
H1693 H 0.96578 0.99665 0.60481 0.0
H1694 H 0.93795 0.99645 0.63425 0.0
C1695 C 0.8232 0.01154 0.71311 0.0
C1696 C 0.86077 0.99855 0.66439 0.0
H1697 H 0.90087 0.96723 0.63896 0.0
C1698 C 0.86378 0.01839 0.65253 0.0
C1699 C 0.87458 0.98002 0.65981 0.0
C1700 C 0.87263 0.95862 0.67269 0.0
C1701 C 0.87986 0.01998 0.6357 0.0
C1702 C 0.89303 0.00115 0.63051 0.0
C1703 C 0.89051 0.98153 0.64283 0.0
C1704 C 0.90972 0.00154 0.61247 0.0
C1705 C 0.88267 0.04176 0.62364 0.0
C1706 C 0.90298 0.00425 0.59041 0.0
C1707 C 0.91886 0.00436 0.57341 0.0
C1708 C 0.94176 0.00173 0.57823 0.0
C1709 C 0.94834 0.99887 0.60041 0.0
C1710 C 0.93247 0.99869 0.61732 0.0
H1711 H 0.8751 0.05584 0.63291 0.0
H1712 H 0.90067 0.04542 0.62075 0.0
H1713 H 0.87428 0.04067 0.60731 0.0
H1714 H 0.88542 0.00612 0.58633 0.0
H1715 H 0.91317 0.00654 0.55655 0.0
H1716 H 0.32756 0.99376 0.2305 0.0
H1717 H 0.3586 0.99461 0.20381 0.0
H1718 H 0.31132 0.00392 0.15066 0.0
H1719 H 0.2804 0.00347 0.17738 0.0
H1720 H 0.36686 0.96705 0.16806 0.0
H1721 H 0.35567 0.05405 0.13974 0.0
H1722 H 0.34231 0.04337 0.16431 0.0
H1723 H 0.33069 0.03761 0.13748 0.0
C1724 C 0.3239 0.99615 0.21313 0.0
C1725 C 0.30176 0.99875 0.20587 0.0
C1726 C 0.34159 0.99658 0.1979 0.0
C1727 C 0.33734 0.99972 0.17526 0.0
C1728 C 0.31508 0.00202 0.16807 0.0
H1729 H 0.41458 0.00182 0.05436 0.0
H1730 H 0.38562 0.00151 0.08284 0.0
C1731 C 0.29743 0.00163 0.18329 0.0
C1732 C 0.35607 1.00001 0.15905 0.0
H1733 H 0.38021 0.03137 0.1184 0.0
C1734 C 0.36991 0.98118 0.15732 0.0
C1735 C 0.36005 0.01846 0.14504 0.0
C1736 C 0.34654 0.0396 0.14683 0.0
C1737 C 0.38718 0.98006 0.14155 0.0
C1738 C 0.39092 0.99839 0.12734 0.0
C1739 C 0.37726 0.0173 0.12923 0.0
C1740 C 0.40872 0.9982 0.11017 0.0
C1741 C 0.40086 0.95903 0.13979 0.0
C1742 C 0.4314 0.99663 0.11607 0.0
C1743 C 0.44809 0.99679 0.0998 0.0
C1744 C 0.44244 0.99862 0.07726 0.0
C1745 C 0.41965 1.0003 0.07148 0.0
C1746 C 0.40301 1.00017 0.08776 0.0
H1747 H 0.39256 0.94478 0.14814 0.0
H1748 H 0.40386 0.95458 0.12222 0.0
H1749 H 0.41736 0.96171 0.1478 0.0
H1750 H 0.43623 0.99551 0.13329 0.0
H1751 H 0.46541 0.99558 0.10496 0.0
H1752 H 0.04146 0.30484 0.22046 0.0
H1753 H 0.04177 0.33676 0.19499 0.0
H1754 H 0.98302 0.31086 0.1624 0.0
H1755 H 0.98265 0.27912 0.18798 0.0
H1756 H 0.04565 0.33622 0.14925 0.0
H1757 H 0.96562 0.37558 0.17433 0.0
H1758 H 0.97945 0.35473 0.19092 0.0
H1759 H 0.96297 0.34666 0.16737 0.0
C1760 C 0.02856 0.30616 0.20793 0.0
C1761 C 0.01198 0.28975 0.20609 0.0
C1762 C 0.02874 0.32432 0.19341 0.0
C1763 C 0.01223 0.32639 0.17696 0.0
C1764 C 0.99564 0.30989 0.17522 0.0
H1765 H 0.01692 0.4027 0.05568 0.0
H1766 H 0.01681 0.37404 0.08422 0.0
C1767 C 0.99549 0.29173 0.18972 0.0
C1768 C 0.01288 0.34528 0.16106 0.0
H1769 H 0.98217 0.38882 0.14096 0.0
C1770 C 0.03183 0.3478 0.14753 0.0
C1771 C 0.99497 0.36057 0.15899 0.0
C1772 C 0.97468 0.35945 0.17381 0.0
C1773 C 0.03309 0.3648 0.13162 0.0
C1774 C 0.01478 0.37952 0.12893 0.0
C1775 C 0.9961 0.37739 0.14286 0.0
C1776 C 0.01464 0.39709 0.1116 0.0
C1777 C 0.05412 0.36697 0.11795 0.0
C1778 C 0.01287 0.41963 0.11742 0.0
C1779 C 0.01283 0.43617 0.10109 0.0
C1780 C 0.01438 0.4305 0.07854 0.0
C1781 C 0.01581 0.40782 0.07281 0.0
C1782 C 0.01589 0.39134 0.08914 0.0
H1783 H 0.06859 0.35858 0.12594 0.0
H1784 H 0.05138 0.35904 0.10161 0.0
H1785 H 0.05844 0.38472 0.11517 0.0
H1786 H 0.01175 0.42446 0.13464 0.0
H1787 H 0.0116 0.4534 0.1062 0.0
H1788 H 0.69367 0.03286 0.22663 0.0
H1789 H 0.66913 0.0314 0.19432 0.0
H1790 H 0.70813 0.9773 0.16765 0.0
H1791 H 0.73255 0.97834 0.20027 0.0
H1792 H 0.67838 0.03519 0.1485 0.0
H1793 H 0.64356 0.95239 0.17106 0.0
H1794 H 0.65948 0.96911 0.19023 0.0
H1795 H 0.67354 0.95388 0.16879 0.0
C1796 C 0.69704 0.02066 0.21387 0.0
C1797 C 0.71487 0.00554 0.21609 0.0
C1798 C 0.68309 0.01993 0.19539 0.0
C1799 C 0.68662 0.00402 0.17881 0.0
C1800 C 0.70495 0.98949 0.18047 0.0
H1801 H 0.6144 0.00185 0.05329 0.0
H1802 H 0.64357 0.00252 0.08153 0.0
C1803 C 0.71899 0.99024 0.19898 0.0
C1804 C 0.67056 0.0023 0.16025 0.0
H1805 H 0.63029 0.96868 0.13811 0.0
C1806 C 0.66795 0.02061 0.14609 0.0
C1807 C 0.65679 0.98336 0.15743 0.0
C1808 C 0.65826 0.9636 0.17275 0.0
C1809 C 0.65186 0.02051 0.12918 0.0
C1810 C 0.63822 0.00149 0.12625 0.0
C1811 C 0.64088 0.98316 0.14036 0.0
C1812 C 0.62058 0.00059 0.10909 0.0
C1813 C 0.64911 0.04099 0.115 0.0
C1814 C 0.59801 0.99872 0.11523 0.0
C1815 C 0.58122 0.99824 0.09914 0.0
C1816 C 0.58672 0.99949 0.07655 0.0
C1817 C 0.60946 0.00097 0.07049 0.0
C1818 C 0.6262 0.00147 0.08661 0.0
H1819 H 0.65733 0.05578 0.12247 0.0
H1820 H 0.65687 0.03796 0.09861 0.0
H1821 H 0.63111 0.0448 0.11236 0.0
H1822 H 0.59337 0.99792 0.13253 0.0
H1823 H 0.56395 0.99703 0.10448 0.0
H1824 H 0.04701 0.68172 0.22652 0.0
H1825 H 0.04597 0.65779 0.19391 0.0
H1826 H 0.98986 0.69499 0.16848 0.0
H1827 H 0.99056 0.71888 0.20144 0.0
H1828 H 0.9832 0.64872 0.16841 0.0
H1829 H 0.06459 0.67016 0.12994 0.0
H1830 H 0.06688 0.66298 0.15866 0.0
H1831 H 0.05148 0.68742 0.15069 0.0
C1832 C 0.03454 0.68494 0.21391 0.0
C1833 C 0.01882 0.70217 0.2166 0.0
C1834 C 0.0341 0.67135 0.19518 0.0
C1835 C 0.018 0.67472 0.17862 0.0
C1836 C 0.00252 0.69218 0.181 0.0
H1837 H 0.01814 0.6014 0.05372 0.0
H1838 H 0.01779 0.63065 0.08174 0.0
C1839 C 0.00303 0.7059 0.19975 0.0
C1840 C 0.01655 0.65908 0.15963 0.0
H1841 H 0.04706 0.63671 0.11731 0.0
C1842 C 0.99707 0.64625 0.15709 0.0
C1843 C 0.03457 0.65599 0.14475 0.0
C1844 C 0.05549 0.67001 0.14596 0.0
C1845 C 0.99542 0.6299 0.14055 0.0
C1846 C 0.01385 0.62609 0.12634 0.0
C1847 C 0.03303 0.63945 0.12838 0.0
C1848 C 0.01365 0.6082 0.10936 0.0
C1849 C 0.97393 0.61688 0.13839 0.0
C1850 C 0.01167 0.58578 0.11558 0.0
C1851 C 0.01188 0.56893 0.09959 0.0
C1852 C 0.01416 0.57414 0.07701 0.0
C1853 C 0.01626 0.59667 0.07089 0.0
C1854 C 0.0161 0.61347 0.0869 0.0
H1855 H 0.95966 0.62564 0.14633 0.0
H1856 H 0.96976 0.61385 0.12075 0.0
H1857 H 0.97594 0.60052 0.14664 0.0
H1858 H 0.0102 0.58128 0.13285 0.0
H1859 H 0.01032 0.55182 0.105 0.0
H1860 H 0.3276 0.0065 0.78206 0.0
H1861 H 0.35849 0.00548 0.80895 0.0
H1862 H 0.31065 0.0063 0.8624 0.0
H1863 H 0.27985 0.007 0.83555 0.0
H1864 H 0.36913 0.03589 0.84239 0.0
H1865 H 0.35 0.95296 0.87787 0.0
H1866 H 0.33796 0.96254 0.85221 0.0
H1867 H 0.32667 0.97179 0.8782 0.0
C1868 C 0.32378 0.00635 0.79956 0.0
C1869 C 0.30151 0.00667 0.80689 0.0
C1870 C 0.34137 0.0058 0.81488 0.0
C1871 C 0.33687 0.00543 0.83769 0.0
C1872 C 0.31452 0.00607 0.84491 0.0
H1873 H 0.41424 0.00527 0.95864 0.0
H1874 H 0.38517 0.00597 0.93027 0.0
C1875 C 0.29697 0.0066 0.82961 0.0
C1876 C 0.35549 0.00487 0.85398 0.0
H1877 H 0.37679 0.97491 0.89713 0.0
C1878 C 0.37093 0.02248 0.85426 0.0
C1879 C 0.35779 0.98736 0.86947 0.0
C1880 C 0.34236 0.96748 0.86936 0.0
C1881 C 0.38824 0.02338 0.87 0.0
C1882 C 0.39038 0.00599 0.88563 0.0
C1883 C 0.37507 0.98827 0.8852 0.0
C1884 C 0.40826 0.00592 0.90272 0.0
C1885 C 0.40367 0.04326 0.87015 0.0
C1886 C 0.43095 0.00544 0.89668 0.0
C1887 C 0.44768 0.00509 0.91287 0.0
C1888 C 0.44208 0.00504 0.93549 0.0
C1889 C 0.41927 0.00534 0.94144 0.0
C1890 C 0.40258 0.00572 0.92523 0.0
H1891 H 0.39641 0.05757 0.86099 0.0
H1892 H 0.40741 0.04862 0.88733 0.0
H1893 H 0.4197 0.0387 0.86206 0.0
H1894 H 0.43573 0.0051 0.87941 0.0
H1895 H 0.46501 0.00469 0.90759 0.0
H1896 H 0.04545 0.32322 0.78486 0.0
H1897 H 0.04554 0.34697 0.81766 0.0
H1898 H 0.99264 0.30751 0.8462 0.0
H1899 H 0.99232 0.28369 0.81314 0.0
H1900 H 0.98451 0.3543 0.84637 0.0
H1901 H 0.06818 0.33435 0.88084 0.0
H1902 H 0.06853 0.34125 0.85195 0.0
H1903 H 0.05415 0.31664 0.86107 0.0
C1904 C 0.03396 0.31947 0.7982 0.0
C1905 C 0.01883 0.3016 0.79639 0.0
C1906 C 0.03414 0.33297 0.81702 0.0
C1907 C 0.01924 0.32892 0.83449 0.0
C1908 C 0.00437 0.31085 0.83296 0.0
H1909 H 0.02209 0.40177 0.95987 0.0
H1910 H 0.02156 0.37256 0.93174 0.0
C1911 C 0.00429 0.29719 0.81414 0.0
C1912 C 0.01838 0.34444 0.85363 0.0
H1913 H 0.05038 0.36709 0.89473 0.0
C1914 C 0.99883 0.35694 0.85709 0.0
C1915 C 0.03701 0.34777 0.86771 0.0
C1916 C 0.0581 0.33416 0.86539 0.0
C1917 C 0.99768 0.37321 0.87377 0.0
C1918 C 0.01665 0.37723 0.88721 0.0
C1919 C 0.03593 0.36418 0.88426 0.0
C1920 C 0.0169 0.39507 0.90425 0.0
C1921 C 0.97615 0.38597 0.87688 0.0
C1922 C 0.01475 0.4175 0.89813 0.0
C1923 C 0.01512 0.43431 0.91416 0.0
C1924 C 0.01765 0.42905 0.93671 0.0
C1925 C 0.01999 0.40652 0.94273 0.0
C1926 C 0.01973 0.38975 0.92666 0.0
H1927 H 0.96169 0.37724 0.86924 0.0
H1928 H 0.97258 0.38861 0.89471 0.0
H1929 H 0.97774 0.40252 0.86891 0.0
H1930 H 0.01293 0.42203 0.8809 0.0
H1931 H 0.0133 0.45141 0.90883 0.0
H1932 H 0.74889 0.00892 0.83812 0.0
H1933 H 0.71719 0.00987 0.86399 0.0
H1934 H 0.67187 0.99529 0.81032 0.0
H1935 H 0.70361 0.9938 0.78461 0.0
H1936 H 0.68001 0.03707 0.86377 0.0
H1937 H 0.65487 0.94846 0.85584 0.0
H1938 H 0.68131 0.95879 0.84566 0.0
H1939 H 0.65606 0.96326 0.83009 0.0
C1940 C 0.73212 0.00584 0.83197 0.0
C1941 C 0.72851 0.00127 0.80956 0.0
C1942 C 0.71408 0.00641 0.84668 0.0
C1943 C 0.69221 0.00234 0.83913 0.0
C1944 C 0.68864 0.99802 0.81658 0.0
H1945 H 0.56359 0.00089 0.90753 0.0
H1946 H 0.59306 0.00134 0.87944 0.0
C1947 C 0.70671 0.99735 0.80189 0.0
C1948 C 0.67318 0.00305 0.85485 0.0
H1949 H 0.63098 0.97175 0.87688 0.0
C1950 C 0.66931 0.02278 0.86666 0.0
C1951 C 0.65921 0.98439 0.85854 0.0
C1952 C 0.66314 0.96245 0.84703 0.0
C1953 C 0.65178 0.0244 0.88203 0.0
C1954 C 0.63796 0.0057 0.88584 0.0
C1955 C 0.64161 0.98606 0.87383 0.0
C1956 C 0.62009 0.00594 0.90279 0.0
C1957 C 0.64805 0.04614 0.89395 0.0
C1958 C 0.62561 0.00817 0.9252 0.0
C1959 C 0.60887 0.00788 0.94131 0.0
C1960 C 0.58623 0.00529 0.93531 0.0
C1961 C 0.58079 0.00303 0.91278 0.0
C1962 C 0.5976 0.00324 0.89668 0.0
H1963 H 0.65631 0.06025 0.88532 0.0
H1964 H 0.6299 0.04981 0.89553 0.0
H1965 H 0.65522 0.04498 0.91083 0.0
H1966 H 0.64292 0.00991 0.93026 0.0
H1967 H 0.61374 0.00965 0.95846 0.0
H1968 H 0.98667 0.7229 0.82353 0.0
H1969 H 0.98732 0.69186 0.84998 0.0
H1970 H 0.04773 0.66698 0.81965 0.0
H1971 H 0.04715 0.69819 0.79333 0.0
H1972 H 0.98656 0.64583 0.84292 0.0
H1973 H 0.0649 0.67174 0.88517 0.0
H1974 H 0.04961 0.68998 0.86689 0.0
H1975 H 0.06733 0.66857 0.85574 0.0
C1976 C 3e-05 0.71074 0.82256 0.0
C1977 C 0.01692 0.71283 0.8066 0.0
C1978 C 0.0004 0.69303 0.83762 0.0
C1979 C 0.01775 0.67724 0.83703 0.0
C1980 C 0.03442 0.67917 0.82071 0.0
H1981 H 0.01756 0.54976 0.90748 0.0
H1982 H 0.01764 0.57874 0.8791 0.0
C1983 C 0.03403 0.69688 0.80563 0.0
C1984 C 0.01836 0.65887 0.85354 0.0
H1985 H 0.04942 0.63713 0.89583 0.0
C1986 C 0.00032 0.64389 0.85447 0.0
C1987 C 0.03619 0.6565 0.8688 0.0
C1988 C 0.05553 0.67264 0.86932 0.0
C1989 C -0.00031 0.62657 0.8701 0.0
C1990 C 0.01773 0.62395 0.88507 0.0
C1991 C 0.03569 0.63901 0.88423 0.0
C1992 C 0.01793 0.60619 0.90224 0.0
C1993 C 0.97945 0.61155 0.87082 0.0
C1994 C 0.0186 0.6119 0.92473 0.0
C1995 C 0.01866 0.59538 0.94104 0.0
C1996 C 0.0182 0.57268 0.93525 0.0
C1997 C 0.01783 0.56701 0.91265 0.0
C1998 C 0.01774 0.58358 0.89634 0.0
H1999 H 0.96493 0.61893 0.86198 0.0
H2000 H 0.98359 0.5955 0.86272 0.0
H2001 H 0.97445 0.60802 0.88815 0.0
H2002 H 0.01886 0.62922 0.9297 0.0
H2003 H 0.01904 0.6005 0.9582 0.0
H2004 H 0.19123 0.2752 0.04241 0.0
H2005 H 0.1662 0.30766 0.04136 0.0
H2006 H 0.20388 0.3345 0.98663 0.0
H2007 H 0.22874 0.30191 0.98756 0.0
H2008 H 0.17678 0.35379 0.04514 0.0
H2009 H 0.13858 0.33247 0.96401 0.0
H2010 H 0.15459 0.31271 0.97998 0.0
H2011 H 0.16865 0.33387 0.96426 0.0
C2012 C 0.19407 0.28811 0.03022 0.0
C2013 C 0.21161 0.28628 0.01498 0.0
C2014 C 0.17989 0.30657 0.02966 0.0
C2015 C 0.18309 0.32329 0.01376 0.0
C2016 C 0.20097 0.32159 0.99879 0.0
H2017 H 0.11608 0.45252 0.01209 0.0
H2018 H 0.14429 0.42305 0.0132 0.0
C2019 C 0.21514 0.30312 0.99937 0.0
C2020 C 0.16748 0.34231 0.0127 0.0
H2021 H 0.12779 0.36663 0.98013 0.0
C2022 C 0.1661 0.35668 0.03093 0.0
C2023 C 0.15347 0.34582 0.99419 0.0
C2024 C 0.15367 0.33033 0.97454 0.0
C2025 C 0.15098 0.37456 0.03114 0.0
C2026 C 0.13716 0.37819 0.01252 0.0
C2027 C 0.13858 0.36384 0.99429 0.0
C2028 C 0.12028 0.39614 0.01201 0.0
C2029 C 0.14948 0.38904 0.05146 0.0
C2030 C 0.09751 0.39069 0.01058 0.0
C2031 C 0.08135 0.40742 0.00984 0.0
C2032 C 0.08767 0.42997 0.01039 0.0
C2033 C 0.11058 0.43536 0.01171 0.0
C2034 C 0.12675 0.41856 0.01246 0.0
H2035 H 0.15785 0.38129 0.06595 0.0
H2036 H 0.15777 0.40521 0.0481 0.0
H2037 H 0.13173 0.39243 0.05577 0.0
H2038 H 0.09223 0.37345 0.01015 0.0
H2039 H 0.06392 0.40257 0.0088 0.0
H2040 H 0.1827 0.73543 0.01622 0.0
H2041 H 0.15763 0.70298 0.01634 0.0
H2042 H 0.21175 0.6616 0.993 0.0
H2043 H 0.23677 0.69405 0.99276 0.0
H2044 H 0.14836 0.67414 0.97791 0.0
H2045 H 0.18615 0.62948 0.04943 0.0
H2046 H 0.19018 0.65892 0.04492 0.0
H2047 H 0.20496 0.63909 0.02824 0.0
C2048 C 0.18915 0.71935 0.0112 0.0
C2049 C 0.2115 0.71697 0.00462 0.0
C2050 C 0.17491 0.70092 0.01126 0.0
C2051 C 0.18298 0.67993 0.00492 0.0
C2052 C 0.20536 0.67762 0.99826 0.0
H2053 H 0.11566 0.55104 1.00088 0.0
H2054 H 0.14365 0.58074 0.99917 0.0
C2055 C 0.21957 0.69609 0.99809 0.0
C2056 C 0.16773 0.66062 0.00474 0.0
H2057 H 0.15632 0.61168 0.03098 0.0
C2058 C 0.15007 0.66045 0.98947 0.0
C2059 C 0.17025 0.64277 0.01972 0.0
C2060 C 0.1888 0.64248 0.03664 0.0
C2061 C 0.13471 0.64284 0.98883 0.0
C2062 C 0.1368 0.62527 0.00426 0.0
C2063 C 0.15475 0.62523 0.01923 0.0
C2064 C 0.12002 0.60724 0.00563 0.0
C2065 C 0.11652 0.64311 0.97151 0.0
C2066 C 0.0976 0.61231 0.01031 0.0
C2067 C 0.08158 0.59546 0.01123 0.0
C2068 C 0.08772 0.57314 0.00773 0.0
C2069 C 0.11035 0.56804 0.00364 0.0
C2070 C 0.12636 0.58497 0.00262 0.0
H2071 H 0.12115 0.65376 0.95721 0.0
H2072 H 0.11289 0.62607 0.96538 0.0
H2073 H 0.10096 0.64999 0.97885 0.0
H2074 H 0.09248 0.62934 0.01326 0.0
H2075 H 0.06439 0.60001 0.01472 0.0
H2076 H 0.32971 0.21819 0.97404 0.0
H2077 H 0.3544 0.18578 0.97517 0.0
H2078 H 0.32067 0.1623 0.03375 0.0
H2079 H 0.29621 0.19504 0.03303 0.0
H2080 H 0.36726 0.16468 0.03781 0.0
H2081 H 0.34268 0.12003 0.96133 0.0
H2082 H 0.34879 0.14895 0.95699 0.0
H2083 H 0.32531 0.14113 0.97391 0.0
C2084 C 0.32743 0.20601 0.98704 0.0
C2085 C 0.31111 0.20913 0.00349 0.0
C2086 C 0.34139 0.18742 0.98754 0.0
C2087 C 0.33916 0.17159 0.00441 0.0
C2088 C 0.32249 0.17432 0.02053 0.0
H2089 H 0.41457 0.04829 0.00951 0.0
H2090 H 0.38496 0.07615 0.00962 0.0
C2091 C 0.30848 0.19291 0.02002 0.0
C2092 C 0.35543 0.15319 0.00616 0.0
H2093 H 0.37741 0.10927 0.97785 0.0
C2094 C 0.36935 0.1524 0.02483 0.0
C2095 C 0.35796 0.13718 0.98924 0.0
C2096 C 0.34275 0.13667 0.96933 0.0
C2097 C 0.38625 0.13634 0.02673 0.0
C2098 C 0.38941 0.12095 0.00936 0.0
C2099 C 0.37506 0.12131 0.99101 0.0
C2100 C 0.40753 0.10427 0.00991 0.0
C2101 C 0.40051 0.13593 0.04732 0.0
C2102 C 0.43004 0.11094 0.00991 0.0
C2103 C 0.44712 0.09506 0.00986 0.0
C2104 C 0.44192 0.07223 0.00967 0.0
C2105 C 0.41927 0.06569 0.00966 0.0
C2106 C 0.40227 0.08157 0.00971 0.0
H2107 H 0.39241 0.14496 0.06121 0.0
H2108 H 0.40395 0.11857 0.05261 0.0
H2109 H 0.41677 0.14413 0.04381 0.0
H2110 H 0.43439 0.12843 0.00967 0.0
H2111 H 0.46434 0.10072 0.00975 0.0
H2112 H 0.82049 0.28524 0.02768 0.0
H2113 H 0.85318 0.30994 0.02823 0.0
H2114 H 0.82836 0.34381 0.97036 0.0
H2115 H 0.79598 0.31893 0.96941 0.0
H2116 H 0.87518 0.33566 0.96979 0.0
H2117 H 0.84662 0.37564 0.0478 0.0
H2118 H 0.84972 0.34591 0.04879 0.0
H2119 H 0.82864 0.35804 0.03138 0.0
C2120 C 0.82225 0.29767 0.01484 0.0
C2121 C 0.80559 0.30032 0.99863 0.0
C2122 C 0.84079 0.31189 0.0153 0.0
C2123 C 0.84292 0.32893 0.99957 0.0
C2124 C 0.82692 0.33086 0.98274 0.0
H2125 H 0.91641 0.45236 0.00373 0.0
H2126 H 0.88819 0.42296 0.00213 0.0
C2127 C 0.8084 0.31672 0.98228 0.0
C2128 C 0.8612 0.34546 1.00111 0.0
H2129 H 0.88082 0.38822 0.03282 0.0
C2130 C 0.87653 0.34709 0.98361 0.0
C2131 C 0.86261 0.36055 0.01901 0.0
C2132 C 0.84595 0.36018 0.03776 0.0
C2133 C 0.89334 0.36342 0.98356 0.0
C2134 C 0.89493 0.37829 1.00161 0.0
C2135 C 0.87959 0.37668 0.01909 0.0
C2136 C 0.91214 0.39597 0.00248 0.0
C2137 C 0.90887 0.365 0.96394 0.0
C2138 C 0.93492 0.39047 0.00345 0.0
C2139 C 0.95112 0.4072 0.00436 0.0
C2140 C 0.94484 0.42979 0.00442 0.0
C2141 C 0.92192 0.43519 0.00365 0.0
C2142 C 0.90573 0.41842 0.00276 0.0
H2143 H 0.90222 0.35589 0.94937 0.0
H2144 H 0.9117 0.38263 0.95923 0.0
H2145 H 0.9253 0.35761 0.96836 0.0
H2146 H 0.94017 0.37323 0.00365 0.0
H2147 H 0.96857 0.40233 0.00503 0.0
H2148 H 0.74794 0.8315 0.01358 0.0
H2149 H 0.71649 0.85785 0.01257 0.0
H2150 H 0.67193 0.8046 0.99377 0.0
H2151 H 0.70336 0.77827 0.99482 0.0
H2152 H 0.68778 0.86721 0.97556 0.0
H2153 H 0.64096 0.83397 0.04787 0.0
H2154 H 0.6701 0.82759 0.04296 0.0
H2155 H 0.64868 0.81397 0.02712 0.0
C2156 C 0.73138 0.82551 0.00932 0.0
C2157 C 0.72786 0.803 0.00441 0.0
C2158 C 0.7135 0.8405 0.00872 0.0
C2159 C 0.69187 0.8331 0.00336 0.0
C2160 C 0.68842 0.81055 0.99831 0.0
H2161 H 0.5642 0.90323 0.99629 0.0
H2162 H 0.59373 0.87508 0.99517 0.0
C2163 C 0.70634 0.79557 0.99884 0.0
C2164 C 0.67307 0.84913 0.00262 0.0
H2165 H 0.62382 0.86301 0.02775 0.0
C2166 C 0.67378 0.86632 0.98695 0.0
C2167 C 0.6548 0.84779 0.01743 0.0
C2168 C 0.65354 0.82996 0.03494 0.0
C2169 C 0.65664 0.88224 0.98564 0.0
C2170 C 0.63857 0.88118 1.00075 0.0
C2171 C 0.63771 0.86379 0.01621 0.0
C2172 C 0.62072 0.89831 1.00117 0.0
C2173 C 0.65788 0.89983 0.96789 0.0
C2174 C 0.62608 0.92067 0.00522 0.0
C2175 C 0.60929 0.93682 0.00581 0.0
C2176 C 0.58671 0.93093 0.00259 0.0
C2177 C 0.58137 0.90843 0.99882 0.0
C2178 C 0.59823 0.89228 0.99816 0.0
H2179 H 0.66882 0.89456 0.95398 0.0
H2180 H 0.641 0.90376 0.96126 0.0
H2181 H 0.66506 0.91527 0.97503 0.0
H2182 H 0.64327 0.92561 0.00813 0.0
H2183 H 0.61407 0.95391 0.00898 0.0
H2184 H 0.82251 0.72052 0.98279 0.0
H2185 H 0.85552 0.69611 0.98265 0.0
H2186 H 0.8252 0.6553 0.03307 0.0
H2187 H 0.79245 0.67971 0.03352 0.0
H2188 H 0.872 0.66469 0.0395 0.0
H2189 H 0.85209 0.63231 0.95553 0.0
H2190 H 0.85418 0.66204 0.95824 0.0
H2191 H 0.83197 0.64743 0.97197 0.0
C2192 C 0.82311 0.70655 0.99408 0.0
C2193 C 0.80487 0.70184 0.008 0.0
C2194 C 0.84183 0.69256 0.99386 0.0
C2195 C 0.84257 0.67376 0.00761 0.0
C2196 C 0.82485 0.66966 0.02225 0.0
H2197 H 0.91649 0.551 1.0019 0.0
H2198 H 0.88829 0.58049 0.00242 0.0
C2199 C 0.80615 0.68354 0.02241 0.0
C2200 C 0.86126 0.65769 0.00626 0.0
H2201 H 0.88421 0.61785 0.97301 0.0
C2202 C 0.87483 0.65455 0.02493 0.0
C2203 C 0.86459 0.64431 0.98731 0.0
C2204 C 0.84988 0.64647 0.96713 0.0
C2205 C 0.89167 0.63827 0.02518 0.0
C2206 C 0.89507 0.62498 0.00618 0.0
C2207 C 0.88156 0.62818 0.98749 0.0
C2208 C 0.91225 0.60728 0.00559 0.0
C2209 C 0.90527 0.63498 0.04595 0.0
C2210 C 0.93503 0.61268 0.00692 0.0
C2211 C 0.9512 0.59591 0.00662 0.0
C2212 C 0.94489 0.57339 0.00493 0.0
C2213 C 0.92199 0.5681 0.00331 0.0
C2214 C 0.90583 0.58493 0.00356 0.0
H2215 H 0.89744 0.64319 0.06048 0.0
H2216 H 0.90735 0.617 0.04961 0.0
H2217 H 0.92217 0.64226 0.04356 0.0
H2218 H 0.9403 0.62988 0.00814 0.0
H2219 H 0.96864 0.60069 0.00782 0.0
H2220 H 0.29383 0.8114 0.02623 0.0
H2221 H 0.31816 0.84432 0.02495 0.0
H2222 H 0.35967 0.81214 0.97612 0.0
H2223 H 0.33535 0.77944 0.9771 0.0
H2224 H 0.36485 0.84294 0.03502 0.0
H2225 H 0.34882 0.87501 0.95047 0.0
H2226 H 0.32984 0.85632 0.96448 0.0
H2227 H 0.35478 0.84573 0.95159 0.0
C2228 C 0.3079 0.81159 0.01493 0.0
C2229 C 0.3128 0.79292 1.00182 0.0
C2230 C 0.32178 0.83029 0.01428 0.0
C2231 C 0.34053 0.83065 1.0003 0.0
C2232 C 0.34508 0.81228 0.98677 0.0
H2233 H 0.46466 0.90281 0.00762 0.0
H2234 H 0.4348 0.87496 0.00727 0.0
C2235 C 0.33131 0.79357 0.98749 0.0
C2236 C 0.35641 0.84943 1.00101 0.0
H2237 H 0.38137 0.88887 0.96884 0.0
C2238 C 0.36832 0.85316 0.02065 0.0
C2239 C 0.36075 0.86273 0.98224 0.0
C2240 C 0.34774 0.85993 0.96104 0.0
C2241 C 0.38505 0.86948 0.0218 0.0
C2242 C 0.39005 0.88212 0.00274 0.0
C2243 C 0.37763 0.8789 0.98332 0.0
C2244 C 0.4081 0.89885 0.00267 0.0
C2245 C 0.39724 0.87307 0.04335 0.0
C2246 C 0.40291 0.92136 0.99972 0.0
C2247 C 0.41987 0.9373 0.99985 0.0
C2248 C 0.44238 0.93097 0.00278 0.0
C2249 C 0.44754 0.90828 0.00535 0.0
C2250 C 0.43051 0.89235 0.0053 0.0
H2251 H 0.38802 0.86574 0.05754 0.0
H2252 H 0.41394 0.86503 0.04245 0.0
H2253 H 0.39982 0.89109 0.04652 0.0
H2254 H 0.3857 0.92661 0.99753 0.0
H2255 H 0.41526 0.95459 0.99765 0.0
H2256 H 0.70352 0.22524 0.0187 0.0
H2257 H 0.672 0.1989 0.01964 0.0
H2258 H 0.71721 0.14506 0.00428 0.0
H2259 H 0.74866 0.17136 0.0034 0.0
H2260 H 0.65722 0.16987 0.98509 0.0
H2261 H 0.68364 0.12329 0.05991 0.0
H2262 H 0.69484 0.15031 0.05294 0.0
H2263 H 0.70492 0.12583 0.03908 0.0
C2264 C 0.70662 0.20776 0.01556 0.0
C2265 C 0.72831 0.20013 0.01102 0.0
C2266 C 0.68869 0.19278 0.0161 0.0
C2267 C 0.69235 0.17001 0.01232 0.0
C2268 C 0.7141 0.16249 0.00763 0.0
H2269 H 0.61382 0.05031 0.00372 0.0
H2270 H 0.64286 0.07881 0.00463 0.0
C2271 C 0.73199 0.17747 0.00703 0.0
C2272 C 0.6734 0.15412 0.01276 0.0
H2273 H 0.65404 0.10757 0.03881 0.0
C2274 C 0.65637 0.15634 0.99693 0.0
C2275 C 0.67243 0.13652 0.02823 0.0
C2276 C 0.68981 0.13388 0.04615 0.0
C2277 C 0.63871 0.14096 0.99571 0.0
C2278 C 0.63788 0.12318 0.01102 0.0
C2279 C 0.65475 0.12119 0.02706 0.0
C2280 C 0.61998 0.10611 0.01037 0.0
C2281 C 0.62151 0.14345 0.9776 0.0
C2282 C 0.59747 0.11198 0.01353 0.0
C2283 C 0.58073 0.09571 0.01297 0.0
C2284 C 0.58623 0.07321 0.00942 0.0
C2285 C 0.60889 0.06742 0.0065 0.0
C2286 C 0.62556 0.0837 0.00702 0.0
H2287 H 0.62752 0.15451 0.96413 0.0
H2288 H 0.61712 0.12703 0.97039 0.0
H2289 H 0.60605 0.15087 0.9846 0.0
H2290 H 0.59285 0.12912 0.01662 0.0
H2291 H 0.56351 0.1008 0.01546 0.0
H2292 H 0.4901 0.69475 0.78827 0.0
H2293 H 0.48967 0.662 0.81261 0.0
H2294 H 0.54126 0.69158 0.85289 0.0
H2295 H 0.54196 0.72409 0.8286 0.0
H2296 H 0.54749 0.64512 0.84378 0.0
H2297 H 0.46247 0.66471 0.87606 0.0
H2298 H 0.46514 0.66276 0.8465 0.0
H2299 H 0.4791 0.68476 0.86108 0.0
C2300 C 0.50157 0.69408 0.80212 0.0
C2301 C 0.51591 0.71207 0.80665 0.0
C2302 C 0.50118 0.67547 0.81611 0.0
C2303 C 0.51519 0.67454 0.83476 0.0
C2304 C 0.5302 0.69203 0.83869 0.0
H2305 H 0.50846 0.60003 0.95648 0.0
H2306 H 0.50917 0.62812 0.92727 0.0
C2307 C 0.53052 0.71062 0.82485 0.0
C2308 C 0.51382 0.65581 0.85072 0.0
H2309 H 0.48008 0.63259 0.89009 0.0
C2310 C 0.5327 0.64224 0.85379 0.0
C2311 C 0.49462 0.65233 0.86399 0.0
C2312 C 0.47419 0.66696 0.86197 0.0
C2313 C 0.53291 0.6253 0.86982 0.0
C2314 C 0.51366 0.62174 0.883 0.0
C2315 C 0.49477 0.63528 0.87988 0.0
C2316 C 0.51305 0.60449 0.90058 0.0
C2317 C 0.55395 0.61176 0.87297 0.0
C2318 C 0.51473 0.58184 0.89525 0.0
C2319 C 0.51431 0.56569 0.9119 0.0
C2320 C 0.51216 0.57184 0.93428 0.0
C2321 C 0.51024 0.5946 0.9395 0.0
C2322 C 0.51059 0.61072 0.92281 0.0
H2323 H 0.56869 0.61966 0.86497 0.0
H2324 H 0.55761 0.60944 0.89082 0.0
H2325 H 0.55156 0.59507 0.86549 0.0
H2326 H 0.51628 0.57664 0.87817 0.0
H2327 H 0.51577 0.54837 0.90716 0.0
H2328 H 0.29086 0.51077 0.81555 0.0
H2329 H 0.31647 0.51161 0.8473 0.0
H2330 H 0.37099 0.4916 0.80494 0.0
H2331 H 0.34536 0.49069 0.77318 0.0
H2332 H 0.34412 0.47551 0.86381 0.0
H2333 H 0.39382 0.54869 0.83667 0.0
H2334 H 0.3665 0.54235 0.82551 0.0
H2335 H 0.39066 0.52718 0.81627 0.0
C2336 C 0.3083 0.50653 0.81308 0.0
C2337 C 0.3163 0.50066 0.79209 0.0
C2338 C 0.32288 0.50703 0.83118 0.0
C2339 C 0.34563 0.5019 0.82838 0.0
C2340 C 0.35355 0.49593 0.80735 0.0
H2341 H 0.46397 0.49379 0.90851 0.0
H2342 H 0.43571 0.49401 0.8795 0.0
C2343 C 0.33895 0.49533 0.78929 0.0
C2344 C 0.3611 0.50248 0.8475 0.0
H2345 H 0.40791 0.52828 0.8672 0.0
C2346 C 0.35799 0.48713 0.8647 0.0
C2347 C 0.37911 0.51769 0.84852 0.0
C2348 C 0.3827 0.53507 0.83088 0.0
C2349 C 0.37292 0.48609 0.88262 0.0
C2350 C 0.39113 0.50114 0.88351 0.0
C2351 C 0.39397 0.51674 0.86646 0.0
C2352 C 0.40795 0.50054 0.90153 0.0
C2353 C 0.36952 0.46842 0.90001 0.0
C2354 C 0.40173 0.50425 0.92361 0.0
C2355 C 0.41789 0.50405 0.94037 0.0
C2356 C 0.4406 0.50037 0.9353 0.0
C2357 C 0.4467 0.49675 0.91311 0.0
C2358 C 0.43055 0.49686 0.89644 0.0
H2359 H 0.35827 0.45493 0.89414 0.0
H2360 H 0.38576 0.46095 0.90502 0.0
H2361 H 0.36177 0.47606 0.91485 0.0
H2362 H 0.38444 0.50758 0.92785 0.0
H2363 H 0.41259 0.50706 0.95723 0.0
H2364 H 0.54576 0.28929 0.80836 0.0
H2365 H 0.54564 0.3147 0.84027 0.0
H2366 H 0.48395 0.34384 0.81701 0.0
H2367 H 0.48401 0.31831 0.78529 0.0
H2368 H 0.54648 0.36087 0.84029 0.0
H2369 H 0.4697 0.32999 0.88168 0.0
H2370 H 0.48385 0.31449 0.86025 0.0
H2371 H 0.46555 0.33715 0.85316 0.0
C2372 C 0.53215 0.30107 0.81024 0.0
C2373 C 0.51485 0.30194 0.79459 0.0
C2374 C 0.53208 0.31555 0.8284 0.0
C2375 C 0.51462 0.33098 0.83123 0.0
C2376 C 0.49734 0.3318 0.81546 0.0
H2377 H 0.51369 0.4524 0.90797 0.0
H2378 H 0.51477 0.42388 0.87934 0.0
C2379 C 0.49744 0.31734 0.7973 0.0
C2380 C 0.51488 0.34678 0.85018 0.0
H2381 H 0.48437 0.36452 0.89465 0.0
C2382 C 0.53296 0.36157 0.85225 0.0
C2383 C 0.4974 0.34752 0.86598 0.0
C2384 C 0.47812 0.3313 0.86535 0.0
C2385 C 0.53374 0.37746 0.8693 0.0
C2386 C 0.51578 0.37883 0.88452 0.0
C2387 C 0.49801 0.36362 0.88284 0.0
C2388 C 0.515 0.39614 0.90211 0.0
C2389 C 0.55388 0.39253 0.87095 0.0
C2390 C 0.51416 0.39008 0.92451 0.0
C2391 C 0.51342 0.4064 0.94104 0.0
C2392 C 0.51333 0.42916 0.93551 0.0
C2393 C 0.51386 0.43511 0.91299 0.0
C2394 C 0.51462 0.41879 0.89651 0.0
H2395 H 0.5686 0.38545 0.86218 0.0
H2396 H 0.54986 0.40879 0.86323 0.0
H2397 H 0.55852 0.39555 0.88847 0.0
H2398 H 0.51429 0.37269 0.92921 0.0
H2399 H 0.51296 0.40111 0.95815 0.0
H2400 H 0.70678 0.52105 0.78812 0.0
H2401 H 0.6738 0.52137 0.81245 0.0
H2402 H 0.70457 0.47158 0.85379 0.0
H2403 H 0.73729 0.47096 0.8295 0.0
H2404 H 0.65796 0.46436 0.84494 0.0
H2405 H 0.67628 0.54989 0.8752 0.0
H2406 H 0.67422 0.54654 0.84572 0.0
H2407 H 0.69669 0.53341 0.86048 0.0
C2408 C 0.70631 0.50994 0.8022 0.0
C2409 C 0.72469 0.49615 0.80704 0.0
C2410 C 0.68758 0.51027 0.81617 0.0
C2411 C 0.68693 0.49675 0.83511 0.0
C2412 C 0.7048 0.48224 0.83936 0.0
H2413 H 0.61212 0.50484 0.95683 0.0
H2414 H 0.64043 0.50382 0.92764 0.0
C2415 C 0.72351 0.48199 0.82552 0.0
C2416 C 0.66812 0.49815 0.85107 0.0
H2417 H 0.64431 0.53217 0.88976 0.0
C2418 C 0.65483 0.47922 0.85463 0.0
C2419 C 0.66435 0.51747 0.86391 0.0
C2420 C 0.67869 0.53798 0.86136 0.0
C2421 C 0.63786 0.47909 0.87073 0.0
C2422 C 0.63401 0.49846 0.88347 0.0
C2423 C 0.64726 0.5174 0.87988 0.0
C2424 C 0.61668 0.49919 0.90104 0.0
C2425 C 0.62461 0.45804 0.87442 0.0
C2426 C 0.59392 0.49718 0.89573 0.0
C2427 C 0.57766 0.49779 0.91235 0.0
C2428 C 0.58382 0.50045 0.93468 0.0
C2429 C 0.6067 0.50267 0.93988 0.0
C2430 C 0.62293 0.50214 0.92321 0.0
H2431 H 0.63276 0.44336 0.8667 0.0
H2432 H 0.62244 0.45477 0.89236 0.0
H2433 H 0.60773 0.45996 0.867 0.0
H2434 H 0.58871 0.49524 0.87868 0.0
H2435 H 0.56025 0.49607 0.90763 0.0
H2436 H 0.49229 0.30817 0.22516 0.0
H2437 H 0.49169 0.34089 0.20075 0.0
H2438 H 0.54338 0.31144 0.16049 0.0
H2439 H 0.54424 0.279 0.18485 0.0
H2440 H 0.54944 0.35786 0.16918 0.0
H2441 H 0.46427 0.33798 0.13752 0.0
H2442 H 0.46706 0.34018 0.16705 0.0
H2443 H 0.48097 0.31806 0.15259 0.0
C2444 C 0.50376 0.30888 0.21131 0.0
C2445 C 0.51816 0.29093 0.2068 0.0
C2446 C 0.50326 0.32746 0.19727 0.0
C2447 C 0.51724 0.32843 0.17859 0.0
C2448 C 0.53234 0.311 0.1747 0.0
H2449 H 0.50937 0.40233 0.05642 0.0
H2450 H 0.51039 0.37438 0.08577 0.0
C2451 C 0.53275 0.29243 0.18859 0.0
C2452 C 0.51574 0.34709 0.16253 0.0
H2453 H 0.48174 0.37004 0.1232 0.0
C2454 C 0.53459 0.36066 0.15924 0.0
C2455 C 0.49646 0.35047 0.14935 0.0
C2456 C 0.47605 0.33585 0.15158 0.0
C2457 C 0.53469 0.3775 0.14309 0.0
C2458 C 0.51535 0.38096 0.13 0.0
C2459 C 0.49649 0.36743 0.13333 0.0
C2460 C 0.5146 0.39813 0.11231 0.0
C2461 C 0.5557 0.39103 0.13973 0.0
C2462 C 0.51637 0.42081 0.11749 0.0
C2463 C 0.51577 0.43688 0.10075 0.0
C2464 C 0.51334 0.43063 0.07842 0.0
C2465 C 0.51136 0.40784 0.07335 0.0
C2466 C 0.51189 0.3918 0.09013 0.0
H2467 H 0.5705 0.38316 0.14764 0.0
H2468 H 0.55922 0.3933 0.12185 0.0
H2469 H 0.55337 0.40774 0.14719 0.0
H2470 H 0.51812 0.4261 0.13452 0.0
H2471 H 0.51729 0.45422 0.10539 0.0
H2472 H 0.73125 0.46485 0.18969 0.0
H2473 H 0.69899 0.46621 0.16485 0.0
H2474 H 0.67542 0.52546 0.19764 0.0
H2475 H 0.70804 0.52446 0.22235 0.0
H2476 H 0.65249 0.46656 0.17206 0.0
H2477 H 0.68244 0.54457 0.13244 0.0
H2478 H 0.69996 0.528 0.15031 0.0
H2479 H 0.67886 0.5458 0.16192 0.0
C2480 C 0.7191 0.47809 0.19171 0.0
C2481 C 0.72229 0.49471 0.20778 0.0
C2482 C 0.70065 0.47879 0.17757 0.0
C2483 C 0.68506 0.49616 0.17913 0.0
C2484 C 0.6875 0.51213 0.19593 0.0
H2485 H 0.56021 0.50167 0.10471 0.0
H2486 H 0.58838 0.50062 0.13382 0.0
C2487 C 0.70599 0.51141 0.21017 0.0
C2488 C 0.66694 0.49791 0.16247 0.0
H2489 H 0.64826 0.5298 0.11951 0.0
C2490 C 0.65145 0.48044 0.16065 0.0
C2491 C 0.66591 0.51586 0.14736 0.0
C2492 C 0.68276 0.53457 0.14788 0.0
C2493 C 0.63491 0.48045 0.14414 0.0
C2494 C 0.63369 0.49856 0.12924 0.0
C2495 C 0.64918 0.51601 0.13104 0.0
C2496 C 0.61662 0.49955 0.11147 0.0
C2497 C 0.61926 0.46081 0.14241 0.0
C2498 C 0.62317 0.4999 0.08918 0.0
C2499 C 0.60708 0.50061 0.07237 0.0
C2500 C 0.5841 0.50113 0.07756 0.0
C2501 C 0.57769 0.50114 0.09998 0.0
C2502 C 0.59378 0.50042 0.11672 0.0
H2503 H 0.62581 0.44607 0.15141 0.0
H2504 H 0.60284 0.4653 0.14975 0.0
H2505 H 0.61645 0.45615 0.12486 0.0
H2506 H 0.64075 0.49936 0.08479 0.0
H2507 H 0.61268 0.50065 0.05534 0.0
H2508 H 0.5428 0.71484 0.20289 0.0
H2509 H 0.54272 0.68919 0.17118 0.0
H2510 H 0.48258 0.65831 0.1961 0.0
H2511 H 0.48259 0.68408 0.22763 0.0
H2512 H 0.54515 0.64315 0.1715 0.0
H2513 H 0.46632 0.6708 0.13167 0.0
H2514 H 0.48037 0.68701 0.15263 0.0
H2515 H 0.46312 0.66374 0.16034 0.0
C2516 C 0.52951 0.70265 0.20141 0.0
C2517 C 0.51265 0.70137 0.21748 0.0
C2518 C 0.52948 0.68801 0.18336 0.0
C2519 C 0.51247 0.672 0.18106 0.0
C2520 C 0.4956 0.67079 0.19724 0.0
H2521 H 0.51453 0.55006 0.10463 0.0
H2522 H 0.51502 0.57863 0.13326 0.0
C2523 C 0.49567 0.68541 0.21528 0.0
C2524 C 0.51283 0.65599 0.16224 0.0
H2525 H 0.48202 0.63679 0.11857 0.0
C2526 C 0.5314 0.64185 0.15986 0.0
C2527 C 0.49503 0.65446 0.14685 0.0
C2528 C 0.47517 0.66995 0.14781 0.0
C2529 C 0.53239 0.62586 0.1429 0.0
C2530 C 0.51417 0.62372 0.12806 0.0
C2531 C 0.49587 0.63827 0.13007 0.0
C2532 C 0.51372 0.60636 0.1105 0.0
C2533 C 0.55304 0.61154 0.14089 0.0
C2534 C 0.51225 0.61235 0.08811 0.0
C2535 C 0.51187 0.596 0.07158 0.0
C2536 C 0.51276 0.57324 0.0771 0.0
C2537 C 0.51393 0.56734 0.09962 0.0
C2538 C 0.51435 0.5837 0.11609 0.0
H2539 H 0.56765 0.61917 0.14938 0.0
H2540 H 0.54977 0.59516 0.1487 0.0
H2541 H 0.55746 0.60867 0.12329 0.0
H2542 H 0.51161 0.62973 0.0834 0.0
H2543 H 0.51087 0.60125 0.05449 0.0
H2544 H 0.29277 0.47097 0.1882 0.0
H2545 H 0.32519 0.47109 0.16348 0.0
H2546 H 0.35462 0.52458 0.2011 0.0
H2547 H 0.32202 0.52461 0.22593 0.0
H2548 H 0.35084 0.5318 0.15382 0.0
H2549 H 0.39103 0.45111 0.17438 0.0
H2550 H 0.36134 0.44964 0.16971 0.0
H2551 H 0.37189 0.46509 0.1929 0.0
C2552 C 0.3063 0.48256 0.19135 0.0
C2553 C 0.30494 0.49782 0.2089 0.0
C2554 C 0.32483 0.48252 0.17733 0.0
C2555 C 0.3423 0.49772 0.18061 0.0
C2556 C 0.3413 0.51263 0.19844 0.0
H2557 H 0.46576 0.49944 0.10495 0.0
H2558 H 0.43789 0.49958 0.13433 0.0
C2559 C 0.3228 0.51256 0.21263 0.0
C2560 C 0.36072 0.49903 0.16436 0.0
H2561 H 0.40286 0.46872 0.14108 0.0
C2562 C 0.36238 0.51813 0.15114 0.0
C2563 C 0.37573 0.48117 0.16104 0.0
C2564 C 0.37511 0.46064 0.17536 0.0
C2565 C 0.37834 0.51959 0.13419 0.0
C2566 C 0.39279 0.50137 0.13031 0.0
C2567 C 0.39156 0.48254 0.14397 0.0
C2568 C 0.40949 0.5016 0.11227 0.0
C2569 C 0.37967 0.54061 0.12062 0.0
C2570 C 0.40268 0.50249 0.09009 0.0
C2571 C 0.41858 0.50241 0.07312 0.0
C2572 C 0.44158 0.50136 0.07809 0.0
C2573 C 0.44824 0.50034 0.10041 0.0
C2574 C 0.43234 0.50038 0.1173 0.0
H2575 H 0.37123 0.55479 0.12896 0.0
H2576 H 0.39737 0.54521 0.11732 0.0
H2577 H 0.37127 0.53783 0.10449 0.0
H2578 H 0.38505 0.50306 0.08589 0.0
H2579 H 0.41282 0.50315 0.05616 0.0
H2580 H 0.78059 0.49725 0.67722 0.0
H2581 H 0.81165 0.49738 0.65059 0.0
H2582 H 0.85899 0.499 0.70446 0.0
H2583 H 0.82792 0.49854 0.73106 0.0
H2584 H 0.84522 0.52907 0.64502 0.0
H2585 H 0.88165 0.44698 0.66705 0.0
H2586 H 0.85403 0.45543 0.67582 0.0
H2587 H 0.8784 0.46583 0.68986 0.0
C2588 C 0.79766 0.49754 0.68329 0.0
C2589 C 0.802 0.4978 0.70605 0.0
C2590 C 0.81536 0.49764 0.66812 0.0
C2591 C 0.83766 0.49788 0.67552 0.0
C2592 C 0.84195 0.49835 0.69837 0.0
H2593 H 0.96534 0.49932 0.60509 0.0
H2594 H 0.93598 0.49968 0.63328 0.0
C2595 C 0.82422 0.49823 0.71354 0.0
C2596 C 0.85632 0.49816 0.65926 0.0
H2597 H 0.90194 0.46886 0.6414 0.0
C2598 C 0.8576 0.51589 0.6442 0.0
C2599 C 0.87253 0.48099 0.65826 0.0
C2600 C 0.87157 0.46111 0.67346 0.0
C2601 C 0.8747 0.51701 0.62829 0.0
C2602 C 0.89075 0.49971 0.62711 0.0
C2603 C 0.88963 0.4821 0.64232 0.0
C2604 C 0.90855 0.49939 0.60994 0.0
C2605 C 0.87564 0.53691 0.6131 0.0
C2606 C 0.9029 0.49874 0.58743 0.0
C2607 C 0.91962 0.49856 0.57124 0.0
C2608 C 0.94242 0.49885 0.57719 0.0
C2609 C 0.94801 0.49912 0.59982 0.0
C2610 C 0.93124 0.49933 0.616 0.0
H2611 H 0.86629 0.5513 0.62002 0.0
H2612 H 0.89321 0.54208 0.60999 0.0
H2613 H 0.86789 0.53249 0.59702 0.0
H2614 H 0.88551 0.49826 0.58236 0.0
H2615 H 0.91458 0.49816 0.55405 0.0
H2616 H 0.50908 0.76836 0.67698 0.0
H2617 H 0.50911 0.79946 0.65065 0.0
H2618 H 0.51759 0.84566 0.70461 0.0
H2619 H 0.518 0.81451 0.73086 0.0
H2620 H 0.48052 0.83535 0.64782 0.0
H2621 H 0.56754 0.8642 0.66275 0.0
H2622 H 0.55743 0.83764 0.67244 0.0
H2623 H 0.55053 0.8627 0.68718 0.0
C2624 C 0.51103 0.78518 0.68313 0.0
C2625 C 0.5136 0.78916 0.70582 0.0
C2626 C 0.51102 0.80291 0.66813 0.0
C2627 C 0.51368 0.8249 0.67559 0.0
C2628 C 0.516 0.82884 0.69839 0.0
H2629 H 0.51618 0.95228 0.60578 0.0
H2630 H 0.51529 0.92308 0.63395 0.0
C2631 C 0.51606 0.81108 0.71339 0.0
C2632 C 0.51355 0.84363 0.65949 0.0
H2633 H 0.54505 0.88665 0.63944 0.0
C2634 C 0.49465 0.84654 0.64597 0.0
C2635 C 0.53197 0.85829 0.65711 0.0
C2636 C 0.55311 0.8555 0.67048 0.0
C2637 C 0.4936 0.86373 0.63025 0.0
C2638 C 0.51209 0.87824 0.62773 0.0
C2639 C 0.53088 0.87553 0.64142 0.0
C2640 C 0.51246 0.89597 0.6106 0.0
C2641 C 0.47258 0.8664 0.61667 0.0
C2642 C 0.51144 0.89043 0.58809 0.0
C2643 C 0.51197 0.90705 0.57192 0.0
C2644 C 0.51361 0.92965 0.57788 0.0
C2645 C 0.5148 0.93512 0.6005 0.0
C2646 C 0.51434 0.91844 0.61667 0.0
H2647 H 0.45803 0.85797 0.62447 0.0
H2648 H 0.46844 0.88426 0.61431 0.0
H2649 H 0.47523 0.85885 0.60013 0.0
H2650 H 0.51041 0.87318 0.583 0.0
H2651 H 0.51109 0.9021 0.55472 0.0
H2652 H 0.23364 0.5206 0.69825 0.0
H2653 H 0.20936 0.52037 0.66549 0.0
H2654 H 0.16873 0.46909 0.6951 0.0
H2655 H 0.19306 0.46896 0.72761 0.0
H2656 H 0.17846 0.46268 0.649 0.0
H2657 H 0.14496 0.54693 0.66817 0.0
H2658 H 0.17492 0.54457 0.66628 0.0
H2659 H 0.16026 0.53062 0.68816 0.0
C2660 C 0.21975 0.50904 0.69758 0.0
C2661 C 0.21508 0.49496 0.71555 0.0
C2662 C 0.20581 0.50905 0.67897 0.0
C2663 C 0.18709 0.49495 0.67808 0.0
C2664 C 0.18303 0.48019 0.69556 0.0
H2665 H 0.06421 0.50039 0.60423 0.0
H2666 H 0.09375 0.49935 0.63216 0.0
C2667 C 0.19685 0.48022 0.71414 0.0
C2668 C 0.17106 0.4961 0.65947 0.0
H2669 H 0.13103 0.52924 0.63625 0.0
C2670 C 0.16819 0.47726 0.64606 0.0
C2671 C 0.15751 0.51507 0.65597 0.0
C2672 C 0.15934 0.53543 0.67046 0.0
C2673 C 0.15202 0.47687 0.62922 0.0
C2674 C 0.13855 0.49589 0.62566 0.0
C2675 C 0.14149 0.51475 0.639 0.0
C2676 C 0.12082 0.49631 0.60859 0.0
C2677 C 0.14901 0.45594 0.61578 0.0
C2678 C 0.12632 0.49513 0.5861 0.0
C2679 C 0.1095 0.49573 0.57006 0.0
C2680 C 0.08682 0.49758 0.57622 0.0
C2681 C 0.08143 0.49886 0.59884 0.0
C2682 C 0.09829 0.49832 0.61485 0.0
H2683 H 0.15742 0.44141 0.62352 0.0
H2684 H 0.13096 0.45204 0.61366 0.0
H2685 H 0.15635 0.45844 0.59911 0.0
H2686 H 0.14365 0.4939 0.58096 0.0
H2687 H 0.11434 0.49475 0.55284 0.0
H2688 H 0.4815 0.18088 0.7278 0.0
H2689 H 0.48263 0.15631 0.6956 0.0
H2690 H 0.5379 0.1939 0.669 0.0
H2691 H 0.53712 0.21841 0.7015 0.0
H2692 H 0.479 0.16511 0.64972 0.0
H2693 H 0.56182 0.12929 0.67217 0.0
H2694 H 0.5453 0.14542 0.69135 0.0
H2695 H 0.56078 0.15909 0.66983 0.0
C2696 C 0.49388 0.18396 0.71508 0.0
C2697 C 0.50939 0.20145 0.71732 0.0
C2698 C 0.49443 0.16996 0.69664 0.0
C2699 C 0.51057 0.17304 0.68007 0.0
C2700 C 0.52552 0.19101 0.68177 0.0
H2701 H 0.5117 0.1008 0.55426 0.0
H2702 H 0.51096 0.12978 0.58255 0.0
C2703 C 0.52492 0.20513 0.70023 0.0
C2704 C 0.512 0.15691 0.66148 0.0
H2705 H 0.54513 0.11624 0.6393 0.0
C2706 C 0.49351 0.15452 0.64733 0.0
C2707 C 0.53082 0.14288 0.6586 0.0
C2708 C 0.55078 0.14407 0.67386 0.0
C2709 C 0.49332 0.13848 0.6304 0.0
C2710 C 0.51222 0.12459 0.62741 0.0
C2711 C 0.53072 0.127 0.64154 0.0
C2712 C 0.51286 0.10699 0.61014 0.0
C2713 C 0.47266 0.1361 0.61624 0.0
C2714 C 0.51463 0.08452 0.61621 0.0
C2715 C 0.51512 0.06783 0.60007 0.0
C2716 C 0.51402 0.07327 0.57745 0.0
C2717 C 0.51251 0.09588 0.57146 0.0
C2718 C 0.51196 0.11254 0.58763 0.0
H2719 H 0.45791 0.14447 0.62375 0.0
H2720 H 0.47579 0.1438 0.59986 0.0
H2721 H 0.46855 0.11829 0.61355 0.0
H2722 H 0.51545 0.07987 0.6335 0.0
H2723 H 0.5164 0.05067 0.60538 0.0
H2724 H 0.78015 0.50741 0.33547 0.0
H2725 H 0.81117 0.5074 0.36211 0.0
H2726 H 0.85848 0.50275 0.30839 0.0
H2727 H 0.82742 0.50305 0.28174 0.0
H2728 H 0.84386 0.47481 0.36852 0.0
H2729 H 0.88245 0.55534 0.34442 0.0
H2730 H 0.85459 0.54742 0.33592 0.0
H2731 H 0.87861 0.53596 0.32213 0.0
C2732 C 0.79721 0.5065 0.32943 0.0
C2733 C 0.80155 0.50532 0.3067 0.0
C2734 C 0.81488 0.50647 0.34461 0.0
C2735 C 0.83716 0.50538 0.33724 0.0
C2736 C 0.84146 0.50405 0.31443 0.0
H2737 H 0.96465 0.50253 0.40757 0.0
H2738 H 0.9352 0.50234 0.37951 0.0
C2739 C 0.82375 0.50409 0.29924 0.0
C2740 C 0.85577 0.50507 0.35354 0.0
H2741 H 0.90204 0.53369 0.37078 0.0
C2742 C 0.85656 0.48771 0.36905 0.0
C2743 C 0.87238 0.52185 0.35414 0.0
C2744 C 0.87196 0.54132 0.33841 0.0
C2745 C 0.87359 0.48657 0.38503 0.0
C2746 C 0.89004 0.50351 0.38582 0.0
C2747 C 0.8894 0.52075 0.37017 0.0
C2748 C 0.90788 0.50377 0.40294 0.0
C2749 C 0.87401 0.46704 0.4007 0.0
C2750 C 0.90233 0.50501 0.42545 0.0
C2751 C 0.91911 0.50508 0.44158 0.0
C2752 C 0.94187 0.50411 0.43555 0.0
C2753 C 0.94736 0.50327 0.41291 0.0
C2754 C 0.93053 0.50316 0.3968 0.0
H2755 H 0.86431 0.45272 0.39413 0.0
H2756 H 0.89145 0.4615 0.40395 0.0
H2757 H 0.86637 0.47204 0.41666 0.0
H2758 H 0.88498 0.50601 0.43057 0.0
H2759 H 0.91417 0.50594 0.45879 0.0
H2760 H 0.49269 0.78458 0.31148 0.0
H2761 H 0.49231 0.80891 0.34412 0.0
H2762 H 0.54788 0.84604 0.3175 0.0
H2763 H 0.54861 0.82165 0.28517 0.0
H2764 H 0.55166 0.83717 0.36325 0.0
H2765 H 0.46896 0.87367 0.34153 0.0
H2766 H 0.46976 0.84386 0.34379 0.0
H2767 H 0.48519 0.85745 0.32219 0.0
C2768 C 0.50504 0.79771 0.31277 0.0
C2769 C 0.52053 0.80131 0.29562 0.0
C2770 C 0.50466 0.81174 0.33132 0.0
C2771 C 0.51982 0.82956 0.33307 0.0
C2772 C 0.53592 0.83252 0.31645 0.0
H2773 H 0.51534 0.95179 0.40819 0.0
H2774 H 0.5159 0.92263 0.38002 0.0
C2775 C 0.53625 0.81862 0.29793 0.0
C2776 C 0.51863 0.84563 0.35176 0.0
H2777 H 0.48597 0.88647 0.37434 0.0
C2778 C 0.53724 0.84785 0.36579 0.0
C2779 C 0.49994 0.85979 0.35484 0.0
C2780 C 0.47986 0.8588 0.33973 0.0
C2781 C 0.53767 0.86384 0.38278 0.0
C2782 C 0.5189 0.87786 0.38597 0.0
C2783 C 0.50028 0.87562 0.37196 0.0
C2784 C 0.51853 0.89545 0.40329 0.0
C2785 C 0.55847 0.86603 0.39678 0.0
C2786 C 0.51961 0.88988 0.4258 0.0
C2787 C 0.51928 0.90652 0.44201 0.0
C2788 C 0.51782 0.92915 0.43608 0.0
C2789 C 0.51658 0.93462 0.41347 0.0
C2790 C 0.51684 0.91795 0.39729 0.0
H2791 H 0.57309 0.85757 0.38914 0.0
H2792 H 0.56273 0.88381 0.39948 0.0
H2793 H 0.5554 0.85832 0.41317 0.0
H2794 H 0.52055 0.87261 0.43085 0.0
H2795 H 0.5202 0.90157 0.4592 0.0
H2796 H 0.20477 0.51392 0.28544 0.0
H2797 H 0.1732 0.51499 0.31148 0.0
H2798 H 0.21681 0.49269 0.36385 0.0
H2799 H 0.24837 0.49158 0.33781 0.0
H2800 H 0.15616 0.47881 0.33826 0.0
H2801 H 0.18682 0.54993 0.3885 0.0
H2802 H 0.19739 0.54393 0.36117 0.0
H2803 H 0.20677 0.52792 0.38446 0.0
C2804 C 0.20753 0.50924 0.30251 0.0
C2805 C 0.22881 0.50268 0.3098 0.0
C2806 C 0.18956 0.50987 0.31732 0.0
C2807 C 0.19278 0.50417 0.3396 0.0
C2808 C 0.21409 0.49747 0.34679 0.0
H2809 H 0.11322 0.49527 0.45767 0.0
H2810 H 0.14236 0.49557 0.42947 0.0
C2811 C 0.23202 0.49676 0.33196 0.0
C2812 C 0.17381 0.50488 0.35531 0.0
H2813 H 0.1556 0.53006 0.40256 0.0
C2814 C 0.15589 0.4901 0.35224 0.0
C2815 C 0.17361 0.51965 0.3735 0.0
C2816 C 0.19207 0.53641 0.37709 0.0
C2817 C 0.13804 0.4892 0.36733 0.0
C2818 C 0.13795 0.50383 0.38567 0.0
C2819 C 0.15573 0.51884 0.38851 0.0
C2820 C 0.11993 0.50344 0.4025 0.0
C2821 C 0.11985 0.47212 0.36391 0.0
C2822 C 0.09763 0.50796 0.39672 0.0
C2823 C 0.08082 0.50772 0.41282 0.0
C2824 C 0.08606 0.50319 0.43506 0.0
C2825 C 0.1085 0.49889 0.44076 0.0
C2826 C 0.12523 0.49904 0.42465 0.0
H2827 H 0.12523 0.45869 0.35246 0.0
H2828 H 0.1148 0.46448 0.37986 0.0
H2829 H 0.10494 0.48034 0.35664 0.0
H2830 H 0.09325 0.51189 0.3798 0.0
H2831 H 0.06377 0.5113 0.40784 0.0
H2832 H 0.52068 0.23413 0.33627 0.0
H2833 H 0.52097 0.20305 0.36263 0.0
H2834 H 0.51222 0.15676 0.30881 0.0
H2835 H 0.51216 0.18784 0.28244 0.0
H2836 H 0.48757 0.17131 0.37043 0.0
H2837 H 0.56613 0.13092 0.34198 0.0
H2838 H 0.5586 0.15893 0.33418 0.0
H2839 H 0.54564 0.13559 0.32074 0.0
C2840 C 0.51892 0.21728 0.33013 0.0
C2841 C 0.51651 0.21326 0.30743 0.0
C2842 C 0.51906 0.19956 0.34516 0.0
C2843 C 0.51693 0.17752 0.3377 0.0
C2844 C 0.51434 0.17356 0.31493 0.0
H2845 H 0.5149 0.05019 0.40781 0.0
H2846 H 0.51401 0.07947 0.37972 0.0
C2847 C 0.51419 0.19131 0.29989 0.0
C2848 C 0.51689 0.15883 0.35385 0.0
H2849 H 0.54521 0.11188 0.36929 0.0
C2850 C 0.5002 0.15834 0.3702 0.0
C2851 C 0.53329 0.14182 0.35348 0.0
C2852 C 0.55206 0.14184 0.33679 0.0
C2853 C 0.49936 0.14128 0.38607 0.0
C2854 C 0.51597 0.12445 0.38593 0.0
C2855 C 0.53251 0.12478 0.36942 0.0
C2856 C 0.5167 0.10663 0.40304 0.0
C2857 C 0.48045 0.14124 0.40262 0.0
C2858 C 0.51892 0.11209 0.4255 0.0
C2859 C 0.51938 0.09541 0.44163 0.0
C2860 C 0.51785 0.0728 0.43568 0.0
C2861 C 0.51609 0.06737 0.41309 0.0
C2862 C 0.51557 0.08411 0.39696 0.0
H2863 H 0.46591 0.15109 0.39666 0.0
H2864 H 0.47474 0.12404 0.40622 0.0
H2865 H 0.48635 0.14885 0.41829 0.0
H2866 H 0.52039 0.1293 0.43058 0.0
H2867 H 0.52098 0.10033 0.45878 0.0
H2868 H 0.6832 0.76822 0.49362 0.0
H2869 H 0.6579 0.80046 0.49504 0.0
H2870 H 0.71038 0.83981 0.52462 0.0
H2871 H 0.73561 0.80755 0.52336 0.0
H2872 H 0.64658 0.82621 0.5355 0.0
H2873 H 0.68753 0.87615 0.4693 0.0
H2874 H 0.69128 0.84642 0.47164 0.0
H2875 H 0.70531 0.86475 0.49049 0.0
C2876 C 0.68923 0.78381 0.50037 0.0
C2877 C 0.71119 0.78568 0.50826 0.0
C2878 C 0.67487 0.80212 0.50118 0.0
C2879 C 0.68243 0.82248 0.50971 0.0
C2880 C 0.70441 0.82428 0.51771 0.0
H2881 H 0.61462 0.95081 0.51885 0.0
H2882 H 0.64249 0.921 0.52039 0.0
C2883 C 0.71873 0.80592 0.51701 0.0
C2884 C 0.6671 0.8417 0.51063 0.0
H2885 H 0.65668 0.89239 0.48748 0.0
C2886 C 0.64876 0.84073 0.52506 0.0
C2887 C 0.67023 0.8606 0.49711 0.0
C2888 C 0.68955 0.86215 0.48112 0.0
C2889 C 0.6333 0.85823 0.52627 0.0
C2890 C 0.63602 0.87688 0.51226 0.0
C2891 C 0.65464 0.87803 0.49815 0.0
C2892 C 0.61923 0.89493 0.51137 0.0
C2893 C 0.61434 0.85666 0.5427 0.0
C2894 C 0.59706 0.89016 0.5054 0.0
C2895 C 0.5811 0.90707 0.50459 0.0
C2896 C 0.58707 0.92917 0.50947 0.0
C2897 C 0.60944 0.93398 0.515 0.0
C2898 C 0.62539 0.91698 0.51592 0.0
H2899 H 0.61843 0.8451 0.55644 0.0
H2900 H 0.61026 0.87322 0.54978 0.0
H2901 H 0.59921 0.85018 0.53422 0.0
H2902 H 0.59211 0.87334 0.50124 0.0
H2903 H 0.56412 0.90277 0.49997 0.0
H2904 H 0.69149 0.22678 0.47889 0.0
H2905 H 0.66694 0.19397 0.47994 0.0
H2906 H 0.70367 0.16868 0.53601 0.0
H2907 H 0.72813 0.2016 0.53502 0.0
H2908 H 0.67885 0.14775 0.47737 0.0
H2909 H 0.63738 0.17016 0.55668 0.0
H2910 H 0.65333 0.18995 0.54068 0.0
H2911 H 0.66748 0.16949 0.55718 0.0
C2912 C 0.69422 0.21414 0.49139 0.0
C2913 C 0.71137 0.21649 0.50698 0.0
C2914 C 0.68031 0.19548 0.49195 0.0
C2915 C 0.68339 0.17909 0.5082 0.0
C2916 C 0.70086 0.18133 0.52357 0.0
H2917 H 0.61639 0.04956 0.50893 0.0
H2918 H 0.64484 0.07884 0.50924 0.0
C2919 C 0.71479 0.2 0.52297 0.0
C2920 C 0.66809 0.15982 0.50914 0.0
H2921 H 0.62717 0.13591 0.54051 0.0
C2922 C 0.66761 0.14505 0.49119 0.0
C2923 C 0.65337 0.15656 0.52715 0.0
C2924 C 0.65269 0.17244 0.54647 0.0
C2925 C 0.65262 0.12708 0.49071 0.0
C2926 C 0.63798 0.12377 0.50878 0.0
C2927 C 0.63858 0.13846 0.52678 0.0
C2928 C 0.62098 0.10592 0.50877 0.0
C2929 C 0.65209 0.11218 0.47064 0.0
C2930 C 0.59821 0.11152 0.50883 0.0
C2931 C 0.58192 0.09492 0.50875 0.0
C2932 C 0.58809 0.07231 0.50871 0.0
C2933 C 0.611 0.06677 0.50888 0.0
C2934 C 0.62731 0.08345 0.50894 0.0
H2935 H 0.66123 0.11958 0.45643 0.0
H2936 H 0.66009 0.09604 0.47474 0.0
H2937 H 0.63456 0.10878 0.46552 0.0
H2938 H 0.59304 0.1288 0.50876 0.0
H2939 H 0.56449 0.09989 0.50868 0.0
H2940 H 0.83478 0.72178 0.47855 0.0
H2941 H 0.85924 0.68917 0.4793 0.0
H2942 H 0.81866 0.6601 0.53073 0.0
H2943 H 0.79418 0.69293 0.53026 0.0
H2944 H 0.86579 0.66229 0.53979 0.0
H2945 H 0.84771 0.62472 0.45789 0.0
H2946 H 0.85357 0.65403 0.45704 0.0
H2947 H 0.82901 0.64421 0.47117 0.0
C2948 C 0.83097 0.70833 0.48988 0.0
C2949 C 0.81268 0.70983 0.5044 0.0
C2950 C 0.84482 0.68969 0.49016 0.0
C2951 C 0.84058 0.67223 0.50492 0.0
C2952 C 0.82205 0.67342 0.51913 0.0
H2953 H 0.91509 0.54844 0.5061 0.0
H2954 H 0.88562 0.5764 0.50648 0.0
C2955 C 0.80807 0.69205 0.51877 0.0
C2956 C 0.85651 0.65356 0.5065 0.0
H2957 H 0.88068 0.6121 0.47634 0.0
C2958 C 0.86892 0.65114 0.52604 0.0
C2959 C 0.86038 0.63905 0.48853 0.0
C2960 C 0.84684 0.64044 0.46752 0.0
C2961 C 0.88569 0.63492 0.52784 0.0
C2962 C 0.8902 0.62104 0.50953 0.0
C2963 C 0.87729 0.62299 0.49025 0.0
C2964 C 0.90822 0.60427 0.51002 0.0
C2965 C 0.89842 0.63274 0.54927 0.0
C2966 C 0.93071 0.61079 0.51177 0.0
C2967 C 0.94772 0.59484 0.51154 0.0
C2968 C 0.94248 0.57212 0.50949 0.0
C2969 C 0.91984 0.56575 0.50776 0.0
C2970 C 0.90291 0.58169 0.50795 0.0
H2971 H 0.88948 0.64089 0.5632 0.0
H2972 H 0.90121 0.61497 0.55347 0.0
H2973 H 0.91503 0.64083 0.54749 0.0
H2974 H 0.9351 0.62823 0.51302 0.0
H2975 H 0.96494 0.60035 0.51285 0.0
H2976 H 0.29328 0.82228 0.47493 0.0
H2977 H 0.32621 0.84657 0.47535 0.0
H2978 H 0.35484 0.8076 0.52808 0.0
H2979 H 0.32188 0.78306 0.52766 0.0
H2980 H 0.34846 0.85917 0.53314 0.0
H2981 H 0.39516 0.83022 0.45884 0.0
H2982 H 0.36516 0.83266 0.45664 0.0
H2983 H 0.37704 0.81208 0.4746 0.0
C2984 C 0.30673 0.81874 0.48642 0.0
C2985 C 0.30508 0.80087 0.5013 0.0
C2986 C 0.32551 0.83255 0.48659 0.0
C2987 C 0.34286 0.82876 0.5017 0.0
C2988 C 0.34158 0.81063 0.51624 0.0
H2989 H 0.46787 0.9024 0.50866 0.0
H2990 H 0.43936 0.87337 0.50869 0.0
C2991 C 0.32287 0.79662 0.51591 0.0
C2992 C 0.36151 0.84478 0.50322 0.0
H2993 H 0.40752 0.86364 0.4756 0.0
C2994 C 0.36152 0.86009 0.5207 0.0
C2995 C 0.37841 0.84577 0.48696 0.0
C2996 C 0.37918 0.82927 0.4682 0.0
C2997 C 0.37783 0.87682 0.52207 0.0
C2998 C 0.39436 0.8783 0.50539 0.0
C2999 C 0.39469 0.86256 0.48824 0.0
C3000 C 0.41148 0.89608 0.50544 0.0
C3001 C 0.37729 0.89273 0.54136 0.0
C3002 C 0.40522 0.91848 0.50336 0.0
C3003 C 0.42147 0.93522 0.50333 0.0
C3004 C 0.44432 0.92981 0.50527 0.0
C3005 C 0.45047 0.90727 0.50713 0.0
C3006 C 0.43421 0.89059 0.50716 0.0
H3007 H 0.36722 0.88607 0.55532 0.0
H3008 H 0.39448 0.89636 0.54737 0.0
H3009 H 0.36957 0.90864 0.53599 0.0
H3010 H 0.38775 0.92301 0.50159 0.0
H3011 H 0.41609 0.95234 0.50172 0.0
H3012 H 0.20338 0.27807 0.51598 0.0
H3013 H 0.17153 0.3039 0.51402 0.0
H3014 H 0.21639 0.35685 0.495 0.0
H3015 H 0.24809 0.33091 0.49652 0.0
H3016 H 0.16438 0.34253 0.53748 0.0
H3017 H 0.16821 0.36073 0.44774 0.0
H3018 H 0.1831 0.33776 0.46012 0.0
H3019 H 0.1943 0.3655 0.46167 0.0
C3020 C 0.2063 0.29519 0.5112 0.0
C3021 C 0.22795 0.30263 0.50619 0.0
C3022 C 0.18818 0.30991 0.51013 0.0
C3023 C 0.19154 0.3322 0.50397 0.0
C3024 C 0.21333 0.33961 0.49925 0.0
H3025 H 0.11338 0.4523 0.49781 0.0
H3026 H 0.14237 0.42365 0.498 0.0
C3027 C 0.23141 0.32488 0.50026 0.0
C3028 C 0.17241 0.34792 0.50319 0.0
H3029 H 0.14514 0.38463 0.46953 0.0
C3030 C 0.16001 0.35157 0.52258 0.0
C3031 C 0.16674 0.35967 0.4837 0.0
C3032 C 0.17863 0.35558 0.46207 0.0
C3033 C 0.14253 0.36719 0.52318 0.0
C3034 C 0.13721 0.37926 0.50382 0.0
C3035 C 0.14937 0.37538 0.48436 0.0
C3036 C 0.11942 0.3964 0.50358 0.0
C3037 C 0.1303 0.37117 0.54464 0.0
C3038 C 0.09689 0.39048 0.50638 0.0
C3039 C 0.0802 0.4068 0.50623 0.0
C3040 C 0.08578 0.42937 0.50329 0.0
C3041 C 0.10843 0.43514 0.50026 0.0
C3042 C 0.12505 0.41879 0.5003 0.0
H3043 H 0.1392 0.36369 0.55896 0.0
H3044 H 0.1282 0.38927 0.54768 0.0
H3045 H 0.11337 0.36362 0.54365 0.0
H3046 H 0.0922 0.37321 0.50864 0.0
H3047 H 0.06297 0.40171 0.50861 0.0
H3048 H 0.2936 0.17982 0.53483 0.0
H3049 H 0.32669 0.15587 0.53441 0.0
H3050 H 0.35646 0.19705 0.48397 0.0
H3051 H 0.32315 0.22107 0.48418 0.0
H3052 H 0.35496 0.15025 0.47428 0.0
H3053 H 0.39117 0.16737 0.55704 0.0
H3054 H 0.36169 0.16138 0.5573 0.0
H3055 H 0.37168 0.18601 0.54366 0.0
C3056 C 0.30731 0.18389 0.52381 0.0
C3057 C 0.30584 0.20224 0.50948 0.0
C3058 C 0.32624 0.17031 0.52371 0.0
C3059 C 0.34405 0.17483 0.5093 0.0
C3060 C 0.34289 0.19342 0.4953 0.0
H3061 H 0.46911 0.10048 0.50932 0.0
H3062 H 0.44107 0.12995 0.50916 0.0
C3063 C 0.32397 0.20715 0.49552 0.0
C3064 C 0.36305 0.15912 0.50784 0.0
H3065 H 0.4044 0.13489 0.53842 0.0
C3066 C 0.36595 0.14703 0.4882 0.0
C3067 C 0.37737 0.1551 0.52599 0.0
C3068 C 0.37552 0.16827 0.54714 0.0
C3069 C 0.3824 0.13045 0.48649 0.0
C3070 C 0.39608 0.12576 0.50498 0.0
C3071 C 0.39368 0.13838 0.52436 0.0
C3072 C 0.41296 0.10776 0.5046 0.0
C3073 C 0.38502 0.11809 0.46494 0.0
C3074 C 0.40637 0.08548 0.50226 0.0
C3075 C 0.42236 0.06848 0.50237 0.0
C3076 C 0.44524 0.0735 0.50486 0.0
C3077 C 0.45169 0.09591 0.50727 0.0
C3078 C 0.43569 0.11284 0.50722 0.0
H3079 H 0.3772 0.12722 0.45096 0.0
H3080 H 0.40298 0.11526 0.46109 0.0
H3081 H 0.37673 0.10162 0.4663 0.0
H3082 H 0.38882 0.08121 0.50059 0.0
H3083 H 0.41674 0.05145 0.50054 0.0
H3084 H 0.83403 0.28154 0.53291 0.0
H3085 H 0.8582 0.31436 0.53234 0.0
H3086 H 0.81686 0.34371 0.48166 0.0
H3087 H 0.79267 0.31066 0.48196 0.0
H3088 H 0.86379 0.34207 0.47205 0.0
H3089 H 0.84657 0.3784 0.55465 0.0
H3090 H 0.85264 0.34913 0.55514 0.0
H3091 H 0.82785 0.35892 0.54138 0.0
C3092 C 0.83 0.29508 0.52179 0.0
C3093 C 0.81158 0.2936 0.50742 0.0
C3094 C 0.84367 0.31386 0.52161 0.0
C3095 C 0.83913 0.33146 0.50711 0.0
C3096 C 0.82047 0.33029 0.49306 0.0
H3097 H 0.91443 0.45502 0.50721 0.0
H3098 H 0.88461 0.4274 0.50668 0.0
C3099 C 0.80667 0.31152 0.49332 0.0
C3100 C 0.85491 0.35026 0.50559 0.0
H3101 H 0.8795 0.39119 0.53614 0.0
C3102 C 0.86708 0.35301 0.48595 0.0
C3103 C 0.85899 0.36449 0.52373 0.0
C3104 C 0.84569 0.36278 0.54487 0.0
C3105 C 0.88385 0.36922 0.48422 0.0
C3106 C 0.88863 0.38277 0.50272 0.0
C3107 C 0.87592 0.38054 0.52209 0.0
C3108 C 0.90683 0.39935 0.50236 0.0
C3109 C 0.89635 0.37173 0.46269 0.0
C3110 C 0.92922 0.3926 0.50026 0.0
C3111 C 0.94642 0.40834 0.50058 0.0
C3112 C 0.94148 0.43108 0.50307 0.0
C3113 C 0.91894 0.43768 0.50519 0.0
C3114 C 0.90182 0.42194 0.50492 0.0
H3115 H 0.88715 0.36396 0.44871 0.0
H3116 H 0.89928 0.38955 0.45881 0.0
H3117 H 0.91289 0.36343 0.4641 0.0
H3118 H 0.93338 0.37513 0.49864 0.0
H3119 H 0.96355 0.40264 0.49896 0.0
H3120 H 0.20309 0.72433 0.51184 0.0
H3121 H 0.17204 0.69754 0.51334 0.0
H3122 H 0.21795 0.64423 0.49825 0.0
H3123 H 0.24899 0.67099 0.49685 0.0
H3124 H 0.15721 0.66776 0.47955 0.0
H3125 H 0.18563 0.62284 0.55469 0.0
H3126 H 0.19633 0.64987 0.54706 0.0
H3127 H 0.20644 0.6253 0.53338 0.0
C3128 C 0.20647 0.70689 0.50887 0.0
C3129 C 0.22826 0.69954 0.5043 0.0
C3130 C 0.18879 0.69164 0.50973 0.0
C3131 C 0.19278 0.66889 0.50621 0.0
C3132 C 0.2146 0.66165 0.5014 0.0
H3133 H 0.11419 0.54861 0.50225 0.0
H3134 H 0.14339 0.57699 0.50173 0.0
C3135 C 0.23225 0.67689 0.50051 0.0
C3136 C 0.1741 0.65272 0.5072 0.0
H3137 H 0.1556 0.60664 0.53465 0.0
C3138 C 0.15673 0.65448 0.49167 0.0
C3139 C 0.1736 0.63543 0.52303 0.0
C3140 C 0.19138 0.63328 0.54063 0.0
C3141 C 0.13913 0.63898 0.49117 0.0
C3142 C 0.13872 0.62157 0.50691 0.0
C3143 C 0.15598 0.61999 0.52258 0.0
C3144 C 0.12077 0.60455 0.50719 0.0
C3145 C 0.12152 0.641 0.47339 0.0
C3146 C 0.09836 0.61062 0.51071 0.0
C3147 C 0.08154 0.59443 0.51097 0.0
C3148 C 0.08685 0.57182 0.5079 0.0
C3149 C 0.10941 0.56582 0.50468 0.0
C3150 C 0.12617 0.58202 0.50437 0.0
H3151 H 0.12726 0.65161 0.45946 0.0
H3152 H 0.11688 0.62439 0.46678 0.0
H3153 H 0.10626 0.64872 0.48051 0.0
H3154 H 0.09389 0.62787 0.51341 0.0
H3155 H 0.06441 0.59969 0.51366 0.0
loop_
_geom_bond_atom_site_label_1
_geom_bond_atom_site_label_2
_geom_bond_distance
_geom_bond_site_symmetry_2
_ccdc_geom_bond_type
H0 C3 0.929 . S
H1 C6 0.929 . S
H2 C8 0.930 . S
C3 H0 0.929 . S
C3 C4 1.398 . S
C3 C5 1.396 . S
C4 C3 1.398 . S
C4 C8 1.407 . S
C5 C3 1.396 . S
C5 C6 1.394 . S
C6 H1 0.929 . S
C6 C5 1.394 . S
C6 C7 1.382 . S
C7 C6 1.382 . S
C7 C8 1.392 . S
C7 N9 1.420 . S
C8 H2 0.930 . S
C8 C4 1.407 . S
C8 C7 1.392 . S
N9 C7 1.420 . S
N9 C10 1.244 . S
C10 N9 1.244 . S
H11 C14 0.929 . S
H12 C17 0.929 . S
H13 C19 0.930 . S
C14 H11 0.929 . S
C14 C15 1.395 1_545 S
C14 C16 1.395 1_545 S
C15 C14 1.395 1_565 S
C15 C19 1.413 . S
C16 C14 1.395 1_565 S
C16 C17 1.396 . S
C17 H12 0.929 . S
C17 C16 1.396 . S
C17 C18 1.382 . S
C18 C17 1.382 . S
C18 C19 1.392 . S
C18 N20 1.420 . S
C19 H13 0.930 . S
C19 C15 1.413 . S
C19 C18 1.392 . S
N20 C18 1.420 . S
N20 C21 1.232 1_565 S
C21 N20 1.232 1_545 S
H22 C25 0.929 . S
H23 C28 0.929 . S
H24 C30 0.930 . S
C25 H22 0.929 . S
C25 C26 1.398 . S
C25 C27 1.396 . S
C26 C25 1.398 . S
C26 C30 1.407 . S
C27 C25 1.396 . S
C27 C28 1.394 . S
C28 H23 0.929 . S
C28 C27 1.394 . S
C28 C29 1.382 . S
C29 C28 1.382 . S
C29 C30 1.392 . S
C29 N31 1.420 . S
C30 H24 0.930 . S
C30 C26 1.407 . S
C30 C29 1.392 . S
N31 C29 1.420 . S
N31 C32 1.244 . S
C32 N31 1.244 . S
H33 C36 0.929 . S
H34 C39 0.929 . S
H35 C41 0.930 . S
C36 H33 0.929 . S
C36 C37 1.395 1_545 S
C36 C38 1.395 1_545 S
C37 C36 1.395 1_565 S
C37 C41 1.413 . S
C38 C36 1.395 1_565 S
C38 C39 1.396 . S
C39 H34 0.929 . S
C39 C38 1.396 . S
C39 C40 1.382 . S
C40 C39 1.382 . S
C40 C41 1.392 . S
C40 N42 1.420 . S
C41 H35 0.930 . S
C41 C37 1.413 . S
C41 C40 1.392 . S
N42 C40 1.420 . S
N42 C43 1.232 1_565 S
C43 N42 1.232 1_545 S
H44 C47 0.929 . S
H45 C50 0.929 . S
H46 C52 0.930 . S
C47 H44 0.929 . S
C47 C48 1.398 . S
C47 C49 1.396 . S
C48 C47 1.398 . S
C48 C52 1.407 . S
C49 C47 1.396 . S
C49 C50 1.394 . S
C50 H45 0.929 . S
C50 C49 1.394 . S
C50 C51 1.382 . S
C51 C50 1.382 . S
C51 C52 1.392 . S
C51 N53 1.420 . S
C52 H46 0.930 . S
C52 C48 1.407 . S
C52 C51 1.392 . S
N53 C51 1.420 . S
N53 C54 1.244 . S
C54 N53 1.244 . S
H55 C58 0.935 . S
H56 C61 0.929 . S
H57 C63 0.930 . S
C58 H55 0.935 . S
C58 C59 1.395 1_565 S
C58 C60 1.393 1_565 S
C59 C58 1.395 1_545 S
C59 C63 1.407 . S
C60 C58 1.393 1_545 S
C60 C61 1.394 . S
C61 H56 0.929 . S
C61 C60 1.394 . S
C61 C62 1.382 . S
C62 C61 1.382 . S
C62 C63 1.392 . S
C62 N64 1.420 . S
C63 H57 0.930 . S
C63 C59 1.407 . S
C63 C62 1.392 . S
N64 C62 1.420 . S
N64 C65 1.258 . S
C65 N64 1.258 . S
H66 C69 0.929 . S
H67 C72 0.929 . S
H68 C74 0.930 . S
C69 H66 0.929 . S
C69 C70 1.398 . S
C69 C71 1.396 . S
C70 C69 1.398 . S
C70 C74 1.407 . S
C71 C69 1.396 . S
C71 C72 1.394 . S
C72 H67 0.929 . S
C72 C71 1.394 . S
C72 C73 1.382 . S
C73 C72 1.382 . S
C73 C74 1.392 . S
C73 N75 1.420 . S
C74 H68 0.930 . S
C74 C70 1.407 . S
C74 C73 1.392 . S
N75 C73 1.420 . S
N75 C76 1.244 . S
C76 N75 1.244 . S
H77 C80 0.929 . S
H78 C83 0.929 . S
H79 C85 0.930 . S
C80 H77 0.929 . S
C80 C81 1.400 . S
C80 C82 1.399 . S
C81 C80 1.400 . S
C81 C85 1.405 1_545 S
C82 C80 1.399 . S
C82 C83 1.389 1_545 S
C83 H78 0.929 . S
C83 C82 1.389 1_565 S
C83 C84 1.382 . S
C84 C83 1.382 . S
C84 C85 1.392 . S
C84 N86 1.420 . S
C85 H79 0.930 . S
C85 C81 1.405 1_565 S
C85 C84 1.392 . S
N86 C84 1.420 . S
N86 C87 1.244 1_565 S
C87 N86 1.244 1_545 S
H88 C91 0.929 . S
H89 C94 0.923 1_556 S
H90 C96 0.930 1_556 S
C91 H88 0.929 . S
C91 C92 1.398 . S
C91 C93 1.396 . S
C92 C91 1.398 . S
C92 C96 1.407 . S
C93 C91 1.396 . S
C93 C94 1.401 . S
C94 H89 0.923 1_554 S
C94 C93 1.401 . S
C94 C95 1.379 1_554 S
C95 C94 1.379 1_556 S
C95 C96 1.391 1_556 S
C95 N97 1.426 . S
C96 H90 0.930 1_554 S
C96 C92 1.407 . S
C96 C95 1.391 1_554 S
N97 C95 1.426 . S
N97 C98 1.244 1_556 S
C98 N97 1.244 1_554 S
H99 C102 0.927 1_556 S
H100 C105 0.929 . S
H101 C107 0.930 . S
C102 H99 0.927 1_554 S
C102 C103 1.398 . S
C102 C104 1.396 . S
C103 C102 1.398 . S
C103 C107 1.407 . S
C104 C102 1.396 . S
C104 C105 1.394 . S
C105 H100 0.929 . S
C105 C104 1.394 . S
C105 C106 1.382 . S
C106 C105 1.382 . S
C106 C107 1.392 . S
C106 N108 1.420 . S
C107 H101 0.930 . S
C107 C103 1.407 . S
C107 C106 1.392 . S
N108 C106 1.420 . S
N108 C109 1.244 . S
C109 N108 1.244 . S
H110 C113 0.929 . S
H111 C116 0.925 1_556 S
H112 C118 0.935 . S
C113 H110 0.929 . S
C113 C114 1.398 . S
C113 C115 1.396 . S
C114 C113 1.398 . S
C114 C118 1.403 1_554 S
C115 C113 1.396 . S
C115 C116 1.398 . S
C116 H111 0.925 1_554 S
C116 C115 1.398 . S
C116 C117 1.379 1_554 S
C117 C116 1.379 1_556 S
C117 C118 1.392 . S
C117 N119 1.427 . S
C118 H112 0.935 . S
C118 C114 1.403 1_556 S
C118 C117 1.392 . S
N119 C117 1.427 . S
N119 C120 1.244 1_556 S
C120 N119 1.244 1_554 S
H121 C124 0.929 1_556 S
H122 C127 0.929 . S
H123 C129 0.930 . S
C124 H121 0.929 1_554 S
C124 C125 1.398 . S
C124 C126 1.396 . S
C125 C124 1.398 . S
C125 C129 1.407 . S
C126 C124 1.396 . S
C126 C127 1.394 . S
C127 H122 0.929 . S
C127 C126 1.394 . S
C127 C128 1.382 . S
C128 C127 1.382 . S
C128 C129 1.392 . S
C128 N130 1.420 . S
C129 H123 0.930 . S
C129 C125 1.407 . S
C129 C128 1.392 . S
N130 C128 1.420 . S
N130 C131 1.244 . S
C131 N130 1.244 . S
H132 C135 0.929 . S
H133 C138 0.929 . S
H134 C140 0.930 . S
C135 H132 0.929 . S
C135 C136 1.398 . S
C135 C137 1.396 . S
C136 C135 1.398 . S
C136 C140 1.407 . S
C137 C135 1.396 . S
C137 C138 1.394 . S
C138 H133 0.929 . S
C138 C137 1.394 . S
C138 C139 1.382 . S
C139 C138 1.382 . S
C139 C140 1.392 . S
C139 N141 1.420 . S
C140 H134 0.930 . S
C140 C136 1.407 . S
C140 C139 1.392 . S
N141 C139 1.420 . S
N141 C142 1.244 . S
C142 N141 1.244 . S
H143 C146 0.929 . S
H144 C149 0.929 . S
H145 C151 0.930 . S
C146 H143 0.929 . S
C146 C147 1.398 . S
C146 C148 1.396 . S
C147 C146 1.398 . S
C147 C151 1.407 . S
C148 C146 1.396 . S
C148 C149 1.394 . S
C149 H144 0.929 . S
C149 C148 1.394 . S
C149 C150 1.382 . S
C150 C149 1.382 . S
C150 C151 1.392 . S
C150 N152 1.420 . S
C151 H145 0.930 . S
C151 C147 1.407 . S
C151 C150 1.392 . S
N152 C150 1.420 . S
N152 C153 1.244 . S
C153 N152 1.244 . S
H154 C157 0.929 . S
H155 C160 0.929 . S
H156 C162 0.930 . S
C157 H154 0.929 . S
C157 C158 1.398 . S
C157 C159 1.396 . S
C158 C157 1.398 . S
C158 C162 1.407 . S
C159 C157 1.396 . S
C159 C160 1.394 . S
C160 H155 0.929 . S
C160 C159 1.394 . S
C160 C161 1.382 . S
C161 C160 1.382 . S
C161 C162 1.392 . S
C161 N163 1.420 . S
C162 H156 0.930 . S
C162 C158 1.407 . S
C162 C161 1.392 . S
N163 C161 1.420 . S
N163 C164 1.244 . S
C164 N163 1.244 . S
H165 C168 0.929 . S
H166 C171 0.929 . S
H167 C173 0.930 . S
C168 H165 0.929 . S
C168 C169 1.398 . S
C168 C170 1.396 . S
C169 C168 1.398 . S
C169 C173 1.407 . S
C170 C168 1.396 . S
C170 C171 1.394 . S
C171 H166 0.929 . S
C171 C170 1.394 . S
C171 C172 1.382 . S
C172 C171 1.382 . S
C172 C173 1.392 . S
C172 N174 1.420 . S
C173 H167 0.930 . S
C173 C169 1.407 . S
C173 C172 1.392 . S
N174 C172 1.420 . S
N174 C175 1.244 . S
C175 N174 1.244 . S
H176 C179 0.929 . S
H177 C182 0.929 . S
H178 C184 0.930 . S
C179 H176 0.929 . S
C179 C180 1.398 . S
C179 C181 1.396 . S
C180 C179 1.398 . S
C180 C184 1.407 . S
C181 C179 1.396 . S
C181 C182 1.394 . S
C182 H177 0.929 . S
C182 C181 1.394 . S
C182 C183 1.382 . S
C183 C182 1.382 . S
C183 C184 1.392 . S
C183 N185 1.420 . S
C184 H178 0.930 . S
C184 C180 1.407 . S
C184 C183 1.392 . S
N185 C183 1.420 . S
N185 C186 1.244 . S
C186 N185 1.244 . S
H187 C190 0.929 . S
H188 C193 0.929 . S
H189 C195 0.930 . S
C190 H187 0.929 . S
C190 C191 1.398 . S
C190 C192 1.396 . S
C191 C190 1.398 . S
C191 C195 1.407 . S
C192 C190 1.396 . S
C192 C193 1.394 . S
C193 H188 0.929 . S
C193 C192 1.394 . S
C193 C194 1.382 . S
C194 C193 1.382 . S
C194 C195 1.392 . S
C194 N196 1.420 . S
C195 H189 0.930 . S
C195 C191 1.407 . S
C195 C194 1.392 . S
N196 C194 1.420 . S
N196 C197 1.244 . S
C197 N196 1.244 . S
H198 C201 0.929 . S
H199 C204 0.929 . S
H200 C206 0.930 . S
C201 H198 0.929 . S
C201 C202 1.398 . S
C201 C203 1.396 . S
C202 C201 1.398 . S
C202 C206 1.407 . S
C203 C201 1.396 . S
C203 C204 1.394 . S
C204 H199 0.929 . S
C204 C203 1.394 . S
C204 C205 1.382 . S
C205 C204 1.382 . S
C205 C206 1.392 . S
C205 N207 1.420 . S
C206 H200 0.930 . S
C206 C202 1.407 . S
C206 C205 1.392 . S
N207 C205 1.420 . S
N207 C208 1.244 . S
C208 N207 1.244 . S
H209 C212 0.929 . S
H210 C215 0.929 . S
H211 C217 0.930 . S
C212 H209 0.929 . S
C212 C213 1.398 . S
C212 C214 1.396 . S
C213 C212 1.398 . S
C213 C217 1.407 . S
C214 C212 1.396 . S
C214 C215 1.394 . S
C215 H210 0.929 . S
C215 C214 1.394 . S
C215 C216 1.382 . S
C216 C215 1.382 . S
C216 C217 1.392 . S
C216 N218 1.420 . S
C217 H211 0.930 . S
C217 C213 1.407 . S
C217 C216 1.392 . S
N218 C216 1.420 . S
N218 C219 1.244 . S
C219 N218 1.244 . S
H220 C223 0.929 . S
H221 C226 0.929 . S
H222 C228 0.930 . S
C223 H220 0.929 . S
C223 C224 1.398 . S
C223 C225 1.396 . S
C224 C223 1.398 . S
C224 C228 1.407 . S
C225 C223 1.396 . S
C225 C226 1.394 . S
C226 H221 0.929 . S
C226 C225 1.394 . S
C226 C227 1.382 . S
C227 C226 1.382 . S
C227 C228 1.392 . S
C227 N229 1.420 . S
C228 H222 0.930 . S
C228 C224 1.407 . S
C228 C227 1.392 . S
N229 C227 1.420 . S
N229 C230 1.244 . S
C230 N229 1.244 . S
H231 C234 0.929 . S
H232 C237 0.929 . S
H233 C239 0.930 . S
C234 H231 0.929 . S
C234 C235 1.398 . S
C234 C236 1.396 . S
C235 C234 1.398 . S
C235 C239 1.407 . S
C236 C234 1.396 . S
C236 C237 1.394 . S
C237 H232 0.929 . S
C237 C236 1.394 . S
C237 C238 1.382 . S
C238 C237 1.382 . S
C238 C239 1.392 . S
C238 N240 1.420 . S
C239 H233 0.930 . S
C239 C235 1.407 . S
C239 C238 1.392 . S
N240 C238 1.420 . S
N240 C241 1.244 . S
C241 N240 1.244 . S
H242 C245 0.929 . S
H243 C248 0.929 . S
H244 C250 0.930 . S
C245 H242 0.929 . S
C245 C246 1.398 . S
C245 C247 1.396 . S
C246 C245 1.398 . S
C246 C250 1.407 . S
C247 C245 1.396 . S
C247 C248 1.394 . S
C248 H243 0.929 . S
C248 C247 1.394 . S
C248 C249 1.382 . S
C249 C248 1.382 . S
C249 C250 1.392 . S
C249 N251 1.420 . S
C250 H244 0.930 . S
C250 C246 1.407 . S
C250 C249 1.392 . S
N251 C249 1.420 . S
N251 C252 1.244 . S
C252 N251 1.244 . S
H253 C256 0.929 . S
H254 C259 0.929 . S
H255 C261 0.930 . S
C256 H253 0.929 . S
C256 C257 1.398 . S
C256 C258 1.396 . S
C257 C256 1.398 . S
C257 C261 1.407 . S
C258 C256 1.396 . S
C258 C259 1.394 . S
C259 H254 0.929 . S
C259 C258 1.394 . S
C259 C260 1.382 . S
C260 C259 1.382 . S
C260 C261 1.392 . S
C260 N262 1.420 . S
C261 H255 0.930 . S
C261 C257 1.407 . S
C261 C260 1.392 . S
N262 C260 1.420 . S
N262 C263 1.244 . S
C263 N262 1.244 . S
C264 O290 1.283 . S
C264 O308 1.283 . S
C265 O291 1.283 . S
C265 O306 1.283 . S
C266 O292 1.283 . S
C266 O309 1.283 . S
C267 O293 1.283 . S
C267 O307 1.283 . S
C268 O294 1.283 . S
C268 O303 1.283 . S
C269 O295 1.283 . S
C269 O305 1.283 . S
C270 O296 1.283 . S
C270 O302 1.283 . S
C271 O297 1.283 . S
C271 O304 1.283 . S
C272 O298 1.283 . S
C272 O313 1.283 . S
C273 O299 1.283 . S
C273 O311 1.283 . S
C274 O300 1.283 . S
C274 O312 1.283 . S
C275 O301 1.283 . S
C275 O310 1.283 . S
Eu276 O277 2.370 . S
Eu276 O278 2.370 . S
Eu276 O281 2.370 . S
Eu276 O282 2.370 . S
Eu276 O290 2.363 . S
Eu276 O291 2.363 . S
Eu276 O304 2.363 . S
Eu276 O305 2.363 1_455 S
O277 Eu276 2.370 . S
O277 Eu279 2.356 1_465 S
O277 Eu284 2.358 1_565 S
O278 Eu276 2.370 . S
O278 Eu280 2.356 1_565 S
O278 Eu283 2.355 1_565 S
Eu279 O277 2.356 1_645 S
Eu279 O281 2.356 1_645 S
Eu279 O285 2.384 1_655 S
Eu279 O286 2.384 1_655 S
Eu279 O294 2.386 . S
Eu279 O295 2.340 1_545 S
Eu279 O310 2.363 . S
Eu279 O311 2.363 . S
Eu280 O278 2.356 1_545 S
Eu280 O282 2.356 1_545 S
Eu280 O287 2.384 . S
Eu280 O288 2.384 . S
Eu280 O296 2.386 . S
Eu280 O297 2.340 1_545 S
Eu280 O312 2.363 . S
Eu280 O313 2.363 . S
O281 Eu276 2.370 . S
O281 Eu279 2.356 1_465 S
O281 Eu283 2.355 1_565 S
O282 Eu276 2.370 . S
O282 Eu280 2.356 1_565 S
O282 Eu284 2.358 1_565 S
Eu283 O278 2.355 1_545 S
Eu283 O281 2.355 1_545 S
Eu283 O285 2.386 . S
Eu283 O288 2.386 . S
Eu283 O300 2.363 . S
Eu283 O301 2.363 1_455 S
Eu283 O308 2.337 1_545 S
Eu283 O309 2.389 . S
Eu284 O277 2.358 1_545 S
Eu284 O282 2.358 1_545 S
Eu284 O286 2.382 . S
Eu284 O287 2.382 . S
Eu284 O298 2.363 . S
Eu284 O299 2.363 1_455 S
Eu284 O306 2.343 1_545 S
Eu284 O307 2.383 . S
O285 Eu279 2.384 1_455 S
O285 Eu283 2.386 . S
O285 Eu289 2.370 . S
O286 Eu279 2.384 1_455 S
O286 Eu284 2.382 . S
O286 Eu289 2.370 . S
O287 Eu280 2.384 . S
O287 Eu284 2.382 . S
O287 Eu289 2.370 . S
O288 Eu280 2.384 . S
O288 Eu283 2.386 . S
O288 Eu289 2.370 . S
Eu289 O285 2.370 . S
Eu289 O286 2.370 . S
Eu289 O287 2.370 . S
Eu289 O288 2.370 . S
Eu289 O292 2.363 . S
Eu289 O293 2.363 . S
Eu289 O302 2.363 . S
Eu289 O303 2.363 1_455 S
O290 C264 1.283 . S
O290 Eu276 2.363 . S
O291 C265 1.283 . S
O291 Eu276 2.363 . S
O292 C266 1.283 . S
O292 Eu289 2.363 . S
O293 C267 1.283 . S
O293 Eu289 2.363 . S
O294 C268 1.283 . S
O294 Eu279 2.386 . S
O295 C269 1.283 . S
O295 Eu279 2.340 1_565 S
O296 C270 1.283 . S
O296 Eu280 2.386 . S
O297 C271 1.283 . S
O297 Eu280 2.340 1_565 S
O298 C272 1.283 . S
O298 Eu284 2.363 . S
O299 C273 1.283 . S
O299 Eu284 2.363 1_655 S
O300 C274 1.283 . S
O300 Eu283 2.363 . S
O301 C275 1.283 . S
O301 Eu283 2.363 1_655 S
O302 C270 1.283 . S
O302 Eu289 2.363 . S
O303 C268 1.283 . S
O303 Eu289 2.363 1_655 S
O304 C271 1.283 . S
O304 Eu276 2.363 . S
O305 C269 1.283 . S
O305 Eu276 2.363 1_655 S
O306 C265 1.283 . S
O306 Eu284 2.343 1_565 S
O307 C267 1.283 . S
O307 Eu284 2.383 . S
O308 C264 1.283 . S
O308 Eu283 2.337 1_565 S
O309 C266 1.283 . S
O309 Eu283 2.389 . S
O310 C275 1.283 . S
O310 Eu279 2.363 . S
O311 C273 1.283 . S
O311 Eu279 2.363 . S
O312 C274 1.283 . S
O312 Eu280 2.363 . S
O313 C272 1.283 . S
O313 Eu280 2.363 . S
C314 O340 1.283 . S
C314 O358 1.283 . S
C315 O341 1.283 . S
C315 O356 1.283 . S
C316 O342 1.283 . S
C316 O359 1.283 . S
C317 O343 1.283 . S
C317 O357 1.283 . S
C318 O344 1.283 . S
C318 O353 1.283 . S
C319 O345 1.283 . S
C319 O355 1.283 . S
C320 O346 1.283 . S
C320 O352 1.283 . S
C321 O347 1.283 . S
C321 O354 1.283 . S
C322 O348 1.283 . S
C322 O363 1.283 . S
C323 O349 1.283 . S
C323 O361 1.283 . S
C324 O350 1.283 . S
C324 O362 1.283 . S
C325 O351 1.283 . S
C325 O360 1.283 . S
Eu326 O327 2.378 . S
Eu326 O328 2.362 1_545 S
Eu326 O331 2.362 1_545 S
Eu326 O332 2.378 . S
Eu326 O340 2.349 1_545 S
Eu326 O341 2.377 . S
Eu326 O354 2.363 . S
Eu326 O355 2.363 . S
O327 Eu326 2.378 . S
O327 Eu329 2.384 . S
O327 Eu334 2.370 . S
O328 Eu326 2.362 1_565 S
O328 Eu330 2.356 1_565 S
O328 Eu333 2.370 . S
Eu329 O327 2.384 . S
Eu329 O331 2.356 1_545 S
Eu329 O335 2.356 1_544 S
Eu329 O336 2.384 1_554 S
Eu329 O344 2.363 1_554 S
Eu329 O345 2.363 . S
Eu329 O360 2.340 1_545 S
Eu329 O361 2.386 . S
Eu330 O328 2.356 1_545 S
Eu330 O332 2.384 . S
Eu330 O337 2.384 1_554 S
Eu330 O338 2.356 1_544 S
Eu330 O346 2.363 1_554 S
Eu330 O347 2.363 . S
Eu330 O362 2.340 1_545 S
Eu330 O363 2.386 . S
O331 Eu326 2.362 1_565 S
O331 Eu329 2.356 1_565 S
O331 Eu333 2.370 . S
O332 Eu326 2.378 . S
O332 Eu330 2.384 . S
O332 Eu334 2.370 . S
Eu333 O328 2.370 . S
Eu333 O331 2.370 . S
Eu333 O335 2.370 1_554 S
Eu333 O338 2.370 1_554 S
Eu333 O350 2.363 . S
Eu333 O351 2.363 . S
Eu333 O358 2.363 . S
Eu333 O359 2.363 1_554 S
Eu334 O327 2.370 . S
Eu334 O332 2.370 . S
Eu334 O336 2.370 1_554 S
Eu334 O337 2.370 1_554 S
Eu334 O348 2.363 . S
Eu334 O349 2.363 . S
Eu334 O356 2.363 . S
Eu334 O357 2.363 1_554 S
O335 Eu329 2.356 1_566 S
O335 Eu333 2.370 1_556 S
O335 Eu339 2.351 1_565 S
O336 Eu329 2.384 1_556 S
O336 Eu334 2.370 1_556 S
O336 Eu339 2.389 . S
O337 Eu330 2.384 1_556 S
O337 Eu334 2.370 1_556 S
O337 Eu339 2.389 . S
O338 Eu330 2.356 1_566 S
O338 Eu333 2.370 1_556 S
O338 Eu339 2.351 1_565 S
Eu339 O335 2.351 1_545 S
Eu339 O336 2.389 . S
Eu339 O337 2.389 . S
Eu339 O338 2.351 1_545 S
Eu339 O342 2.331 1_545 S
Eu339 O343 2.395 . S
Eu339 O352 2.363 . S
Eu339 O353 2.363 . S
O340 C314 1.283 . S
O340 Eu326 2.349 1_565 S
O341 C315 1.283 . S
O341 Eu326 2.377 . S
O342 C316 1.283 . S
O342 Eu339 2.331 1_565 S
O343 C317 1.283 . S
O343 Eu339 2.395 . S
O344 C318 1.283 . S
O344 Eu329 2.363 1_556 S
O345 C319 1.283 . S
O345 Eu329 2.363 . S
O346 C320 1.283 . S
O346 Eu330 2.363 1_556 S
O347 C321 1.283 . S
O347 Eu330 2.363 . S
O348 C322 1.283 . S
O348 Eu334 2.363 . S
O349 C323 1.283 . S
O349 Eu334 2.363 . S
O350 C324 1.283 . S
O350 Eu333 2.363 . S
O351 C325 1.283 . S
O351 Eu333 2.363 . S
O352 C320 1.283 . S
O352 Eu339 2.363 . S
O353 C318 1.283 . S
O353 Eu339 2.363 . S
O354 C321 1.283 . S
O354 Eu326 2.363 . S
O355 C319 1.283 . S
O355 Eu326 2.363 . S
O356 C315 1.283 . S
O356 Eu334 2.363 . S
O357 C317 1.283 . S
O357 Eu334 2.363 1_556 S
O358 C314 1.283 . S
O358 Eu333 2.363 . S
O359 C316 1.283 . S
O359 Eu333 2.363 1_556 S
O360 C325 1.283 . S
O360 Eu329 2.340 1_565 S
O361 C323 1.283 . S
O361 Eu329 2.386 . S
O362 C324 1.283 . S
O362 Eu330 2.340 1_565 S
O363 C322 1.283 . S
O363 Eu330 2.386 . S
C364 O390 1.283 . S
C364 O408 1.283 . S
C365 O391 1.283 . S
C365 O406 1.283 . S
C366 O392 1.283 . S
C366 O409 1.283 . S
C367 O393 1.283 . S
C367 O407 1.283 . S
C368 O394 1.283 . S
C368 O403 1.283 . S
C369 O395 1.283 . S
C369 O405 1.283 . S
C370 O396 1.283 . S
C370 O402 1.283 . S
C371 O397 1.283 . S
C371 O404 1.283 . S
C372 O398 1.283 . S
C372 O413 1.283 . S
C373 O399 1.283 . S
C373 O411 1.283 . S
C374 O400 1.283 . S
C374 O412 1.283 . S
C375 O401 1.283 . S
C375 O410 1.283 . S
Eu376 O377 2.345 1_454 S
Eu376 O378 2.396 . S
Eu376 O381 2.396 1_455 S
Eu376 O382 2.345 1_554 S
Eu376 O390 2.406 . S
Eu376 O391 2.320 1_554 S
Eu376 O404 2.363 . S
Eu376 O405 2.363 1_455 S
O377 Eu376 2.345 1_656 S
O377 Eu379 2.349 1_556 S
O377 Eu384 2.370 1_655 S
O378 Eu376 2.396 . S
O378 Eu380 2.397 . S
O378 Eu383 2.370 . S
Eu379 O377 2.349 1_554 S
Eu379 O381 2.392 . S
Eu379 O385 2.392 . S
Eu379 O386 2.349 1_554 S
Eu379 O394 2.363 . S
Eu379 O395 2.363 . S
Eu379 O410 2.399 . S
Eu379 O411 2.327 1_554 S
Eu380 O378 2.397 . S
Eu380 O382 2.344 1_554 S
Eu380 O387 2.344 1_554 S
Eu380 O388 2.397 . S
Eu380 O396 2.363 . S
Eu380 O397 2.363 . S
Eu380 O412 2.408 . S
Eu380 O413 2.318 1_554 S
O381 Eu376 2.396 1_655 S
O381 Eu379 2.392 . S
O381 Eu383 2.370 1_655 S
O382 Eu376 2.345 1_556 S
O382 Eu380 2.344 1_556 S
O382 Eu384 2.370 . S
Eu383 O378 2.370 . S
Eu383 O381 2.370 1_455 S
Eu383 O385 2.370 1_455 S
Eu383 O388 2.370 . S
Eu383 O400 2.363 . S
Eu383 O401 2.363 1_455 S
Eu383 O408 2.363 . S
Eu383 O409 2.363 . S
Eu384 O377 2.370 1_455 S
Eu384 O382 2.370 . S
Eu384 O386 2.370 1_455 S
Eu384 O387 2.370 . S
Eu384 O398 2.363 . S
Eu384 O399 2.363 1_455 S
Eu384 O406 2.363 . S
Eu384 O407 2.363 . S
O385 Eu379 2.392 . S
O385 Eu383 2.370 1_655 S
O385 Eu389 2.392 1_655 S
O386 Eu379 2.349 1_556 S
O386 Eu384 2.370 1_655 S
O386 Eu389 2.348 1_656 S
O387 Eu380 2.344 1_556 S
O387 Eu384 2.370 . S
O387 Eu389 2.348 1_556 S
O388 Eu380 2.397 . S
O388 Eu383 2.370 . S
O388 Eu389 2.392 . S
Eu389 O385 2.392 1_455 S
Eu389 O386 2.348 1_454 S
Eu389 O387 2.348 1_554 S
Eu389 O388 2.392 . S
Eu389 O392 2.400 . S
Eu389 O393 2.326 1_554 S
Eu389 O402 2.363 . S
Eu389 O403 2.363 1_455 S
O390 C364 1.283 . S
O390 Eu376 2.406 . S
O391 C365 1.283 . S
O391 Eu376 2.320 1_556 S
O392 C366 1.283 . S
O392 Eu389 2.400 . S
O393 C367 1.283 . S
O393 Eu389 2.326 1_556 S
O394 C368 1.283 . S
O394 Eu379 2.363 . S
O395 C369 1.283 . S
O395 Eu379 2.363 . S
O396 C370 1.283 . S
O396 Eu380 2.363 . S
O397 C371 1.283 . S
O397 Eu380 2.363 . S
O398 C372 1.283 . S
O398 Eu384 2.363 . S
O399 C373 1.283 . S
O399 Eu384 2.363 1_655 S
O400 C374 1.283 . S
O400 Eu383 2.363 . S
O401 C375 1.283 . S
O401 Eu383 2.363 1_655 S
O402 C370 1.283 . S
O402 Eu389 2.363 . S
O403 C368 1.283 . S
O403 Eu389 2.363 1_655 S
O404 C371 1.283 . S
O404 Eu376 2.363 . S
O405 C369 1.283 . S
O405 Eu376 2.363 1_655 S
O406 C365 1.283 . S
O406 Eu384 2.363 . S
O407 C367 1.283 . S
O407 Eu384 2.363 . S
O408 C364 1.283 . S
O408 Eu383 2.363 . S
O409 C366 1.283 . S
O409 Eu383 2.363 . S
O410 C375 1.283 . S
O410 Eu379 2.399 . S
O411 C373 1.283 . S
O411 Eu379 2.327 1_556 S
O412 C374 1.283 . S
O412 Eu380 2.408 . S
O413 C372 1.283 . S
O413 Eu380 2.318 1_556 S
C414 O440 1.283 . S
C414 O458 1.283 . S
C415 O441 1.283 . S
C415 O456 1.283 . S
C416 O442 1.283 . S
C416 O459 1.283 . S
C417 O443 1.283 . S
C417 O457 1.283 . S
C418 O444 1.283 . S
C418 O453 1.283 . S
C419 O445 1.283 . S
C419 O455 1.283 . S
C420 O446 1.283 . S
C420 O452 1.283 . S
C421 O447 1.283 . S
C421 O454 1.283 . S
C422 O448 1.283 . S
C422 O463 1.283 . S
C423 O449 1.283 . S
C423 O461 1.283 . S
C424 O450 1.283 . S
C424 O462 1.283 . S
C425 O451 1.283 . S
C425 O460 1.283 . S
Eu426 O427 2.370 . S
Eu426 O428 2.370 . S
Eu426 O431 2.370 . S
Eu426 O432 2.370 . S
Eu426 O440 2.363 . S
Eu426 O441 2.363 . S
Eu426 O454 2.363 . S
Eu426 O455 2.363 . S
O427 Eu426 2.370 . S
O427 Eu429 2.370 . S
O427 Eu434 2.370 . S
O428 Eu426 2.370 . S
O428 Eu430 2.370 . S
O428 Eu433 2.370 . S
Eu429 O427 2.370 . S
Eu429 O431 2.370 . S
Eu429 O435 2.370 1_554 S
Eu429 O436 2.370 1_554 S
Eu429 O444 2.363 1_554 S
Eu429 O445 2.363 . S
Eu429 O460 2.363 . S
Eu429 O461 2.363 . S
Eu430 O428 2.370 . S
Eu430 O432 2.370 . S
Eu430 O437 2.370 1_554 S
Eu430 O438 2.370 1_554 S
Eu430 O446 2.363 1_554 S
Eu430 O447 2.363 . S
Eu430 O462 2.363 . S
Eu430 O463 2.363 . S
O431 Eu426 2.370 . S
O431 Eu429 2.370 . S
O431 Eu433 2.370 . S
O432 Eu426 2.370 . S
O432 Eu430 2.370 . S
O432 Eu434 2.370 . S
Eu433 O428 2.370 . S
Eu433 O431 2.370 . S
Eu433 O435 2.370 1_554 S
Eu433 O438 2.370 1_554 S
Eu433 O450 2.363 . S
Eu433 O451 2.363 . S
Eu433 O458 2.363 . S
Eu433 O459 2.363 1_554 S
Eu434 O427 2.370 . S
Eu434 O432 2.370 . S
Eu434 O436 2.370 1_554 S
Eu434 O437 2.370 1_554 S
Eu434 O448 2.363 . S
Eu434 O449 2.363 . S
Eu434 O456 2.363 . S
Eu434 O457 2.363 1_554 S
O435 Eu429 2.370 1_556 S
O435 Eu433 2.370 1_556 S
O435 Eu439 2.370 . S
O436 Eu429 2.370 1_556 S
O436 Eu434 2.370 1_556 S
O436 Eu439 2.370 . S
O437 Eu430 2.370 1_556 S
O437 Eu434 2.370 1_556 S
O437 Eu439 2.370 . S
O438 Eu430 2.370 1_556 S
O438 Eu433 2.370 1_556 S
O438 Eu439 2.370 . S
Eu439 O435 2.370 . S
Eu439 O436 2.370 . S
Eu439 O437 2.370 . S
Eu439 O438 2.370 . S
Eu439 O442 2.363 . S
Eu439 O443 2.363 . S
Eu439 O452 2.363 . S
Eu439 O453 2.363 . S
O440 C414 1.283 . S
O440 Eu426 2.363 . S
O441 C415 1.283 . S
O441 Eu426 2.363 . S
O442 C416 1.283 . S
O442 Eu439 2.363 . S
O443 C417 1.283 . S
O443 Eu439 2.363 . S
O444 C418 1.283 . S
O444 Eu429 2.363 1_556 S
O445 C419 1.283 . S
O445 Eu429 2.363 . S
O446 C420 1.283 . S
O446 Eu430 2.363 1_556 S
O447 C421 1.283 . S
O447 Eu430 2.363 . S
O448 C422 1.283 . S
O448 Eu434 2.363 . S
O449 C423 1.283 . S
O449 Eu434 2.363 . S
O450 C424 1.283 . S
O450 Eu433 2.363 . S
O451 C425 1.283 . S
O451 Eu433 2.363 . S
O452 C420 1.283 . S
O452 Eu439 2.363 . S
O453 C418 1.283 . S
O453 Eu439 2.363 . S
O454 C421 1.283 . S
O454 Eu426 2.363 . S
O455 C419 1.283 . S
O455 Eu426 2.363 . S
O456 C415 1.283 . S
O456 Eu434 2.363 . S
O457 C417 1.283 . S
O457 Eu434 2.363 1_556 S
O458 C414 1.283 . S
O458 Eu433 2.363 . S
O459 C416 1.283 . S
O459 Eu433 2.363 1_556 S
O460 C425 1.283 . S
O460 Eu429 2.363 . S
O461 C423 1.283 . S
O461 Eu429 2.363 . S
O462 C424 1.283 . S
O462 Eu430 2.363 . S
O463 C422 1.283 . S
O463 Eu430 2.363 . S
C464 O490 1.283 . S
C464 O508 1.283 . S
C465 O491 1.283 . S
C465 O506 1.283 . S
C466 O492 1.283 . S
C466 O509 1.283 . S
C467 O493 1.283 . S
C467 O507 1.283 . S
C468 O494 1.283 . S
C468 O503 1.283 . S
C469 O495 1.283 . S
C469 O505 1.283 . S
C470 O496 1.283 . S
C470 O502 1.283 . S
C471 O497 1.283 . S
C471 O504 1.283 . S
C472 O498 1.283 . S
C472 O513 1.283 . S
C473 O499 1.283 . S
C473 O511 1.283 . S
C474 O500 1.283 . S
C474 O512 1.283 . S
C475 O501 1.283 . S
C475 O510 1.283 . S
Eu476 O477 2.370 1_455 S
Eu476 O478 2.370 . S
Eu476 O481 2.370 1_455 S
Eu476 O482 2.370 . S
Eu476 O490 2.363 . S
Eu476 O491 2.363 . S
Eu476 O504 2.363 . S
Eu476 O505 2.363 1_455 S
O477 Eu476 2.370 1_655 S
O477 Eu479 2.370 . S
O477 Eu484 2.370 1_655 S
O478 Eu476 2.370 . S
O478 Eu480 2.370 . S
O478 Eu483 2.370 . S
Eu479 O477 2.370 . S
Eu479 O481 2.370 . S
Eu479 O485 2.370 . S
Eu479 O486 2.370 . S
Eu479 O494 2.363 . S
Eu479 O495 2.363 . S
Eu479 O510 2.363 . S
Eu479 O511 2.363 . S
Eu480 O478 2.370 . S
Eu480 O482 2.370 . S
Eu480 O487 2.370 . S
Eu480 O488 2.370 . S
Eu480 O496 2.363 . S
Eu480 O497 2.363 . S
Eu480 O512 2.363 . S
Eu480 O513 2.363 . S
O481 Eu476 2.370 1_655 S
O481 Eu479 2.370 . S
O481 Eu483 2.370 1_655 S
O482 Eu476 2.370 . S
O482 Eu480 2.370 . S
O482 Eu484 2.370 . S
Eu483 O478 2.370 . S
Eu483 O481 2.370 1_455 S
Eu483 O485 2.370 1_455 S
Eu483 O488 2.370 . S
Eu483 O500 2.363 . S
Eu483 O501 2.363 1_455 S
Eu483 O508 2.363 . S
Eu483 O509 2.363 . S
Eu484 O477 2.370 1_455 S
Eu484 O482 2.370 . S
Eu484 O486 2.370 1_455 S
Eu484 O487 2.370 . S
Eu484 O498 2.363 . S
Eu484 O499 2.363 1_455 S
Eu484 O506 2.363 . S
Eu484 O507 2.363 . S
O485 Eu479 2.370 . S
O485 Eu483 2.370 1_655 S
O485 Eu489 2.370 1_655 S
O486 Eu479 2.370 . S
O486 Eu484 2.370 1_655 S
O486 Eu489 2.370 1_655 S
O487 Eu480 2.370 . S
O487 Eu484 2.370 . S
O487 Eu489 2.370 . S
O488 Eu480 2.370 . S
O488 Eu483 2.370 . S
O488 Eu489 2.370 . S
Eu489 O485 2.370 1_455 S
Eu489 O486 2.370 1_455 S
Eu489 O487 2.370 . S
Eu489 O488 2.370 . S
Eu489 O492 2.363 . S
Eu489 O493 2.363 . S
Eu489 O502 2.363 . S
Eu489 O503 2.363 1_455 S
O490 C464 1.283 . S
O490 Eu476 2.363 . S
O491 C465 1.283 . S
O491 Eu476 2.363 . S
O492 C466 1.283 . S
O492 Eu489 2.363 . S
O493 C467 1.283 . S
O493 Eu489 2.363 . S
O494 C468 1.283 . S
O494 Eu479 2.363 . S
O495 C469 1.283 . S
O495 Eu479 2.363 . S
O496 C470 1.283 . S
O496 Eu480 2.363 . S
O497 C471 1.283 . S
O497 Eu480 2.363 . S
O498 C472 1.283 . S
O498 Eu484 2.363 . S
O499 C473 1.283 . S
O499 Eu484 2.363 1_655 S
O500 C474 1.283 . S
O500 Eu483 2.363 . S
O501 C475 1.283 . S
O501 Eu483 2.363 1_655 S
O502 C470 1.283 . S
O502 Eu489 2.363 . S
O503 C468 1.283 . S
O503 Eu489 2.363 1_655 S
O504 C471 1.283 . S
O504 Eu476 2.363 . S
O505 C469 1.283 . S
O505 Eu476 2.363 1_655 S
O506 C465 1.283 . S
O506 Eu484 2.363 . S
O507 C467 1.283 . S
O507 Eu484 2.363 . S
O508 C464 1.283 . S
O508 Eu483 2.363 . S
O509 C466 1.283 . S
O509 Eu483 2.363 . S
O510 C475 1.283 . S
O510 Eu479 2.363 . S
O511 C473 1.283 . S
O511 Eu479 2.363 . S
O512 C474 1.283 . S
O512 Eu480 2.363 . S
O513 C472 1.283 . S
O513 Eu480 2.363 . S
C514 O540 1.283 . S
C514 O558 1.283 . S
C515 O541 1.283 . S
C515 O556 1.283 . S
C516 O542 1.283 . S
C516 O559 1.283 . S
C517 O543 1.283 . S
C517 O557 1.283 . S
C518 O544 1.283 . S
C518 O553 1.283 . S
C519 O545 1.283 . S
C519 O555 1.283 . S
C520 O546 1.283 . S
C520 O552 1.283 . S
C521 O547 1.283 . S
C521 O554 1.283 . S
C522 O548 1.283 . S
C522 O563 1.283 . S
C523 O549 1.283 . S
C523 O561 1.283 . S
C524 O550 1.283 . S
C524 O562 1.283 . S
C525 O551 1.283 . S
C525 O560 1.283 . S
Eu526 O527 2.370 . S
Eu526 O528 2.370 . S
Eu526 O531 2.370 . S
Eu526 O532 2.370 . S
Eu526 O540 2.363 . S
Eu526 O541 2.363 . S
Eu526 O554 2.363 . S
Eu526 O555 2.363 . S
O527 Eu526 2.370 . S
O527 Eu529 2.356 1_565 S
O527 Eu534 2.357 1_565 S
O528 Eu526 2.370 . S
O528 Eu530 2.356 1_565 S
O528 Eu533 2.354 1_565 S
Eu529 O527 2.356 1_545 S
Eu529 O531 2.356 1_545 S
Eu529 O535 2.385 . S
Eu529 O536 2.385 . S
Eu529 O544 2.388 . S
Eu529 O545 2.338 1_545 S
Eu529 O560 2.363 . S
Eu529 O561 2.363 . S
Eu530 O528 2.356 1_545 S
Eu530 O532 2.356 1_545 S
Eu530 O537 2.385 . S
Eu530 O538 2.385 . S
Eu530 O546 2.388 . S
Eu530 O547 2.338 1_545 S
Eu530 O562 2.363 . S
Eu530 O563 2.363 . S
O531 Eu526 2.370 . S
O531 Eu529 2.356 1_565 S
O531 Eu533 2.354 1_565 S
O532 Eu526 2.370 . S
O532 Eu530 2.356 1_565 S
O532 Eu534 2.357 1_565 S
Eu533 O528 2.354 1_545 S
Eu533 O531 2.354 1_545 S
Eu533 O535 2.387 . S
Eu533 O538 2.387 . S
Eu533 O550 2.363 . S
Eu533 O551 2.363 . S
Eu533 O558 2.335 1_545 S
Eu533 O559 2.391 . S
Eu534 O527 2.357 1_545 S
Eu534 O532 2.357 1_545 S
Eu534 O536 2.383 . S
Eu534 O537 2.383 . S
Eu534 O548 2.363 . S
Eu534 O549 2.363 . S
Eu534 O556 2.341 1_545 S
Eu534 O557 2.385 . S
O535 Eu529 2.385 . S
O535 Eu533 2.387 . S
O535 Eu539 2.370 . S
O536 Eu529 2.385 . S
O536 Eu534 2.383 . S
O536 Eu539 2.370 . S
O537 Eu530 2.385 . S
O537 Eu534 2.383 . S
O537 Eu539 2.370 . S
O538 Eu530 2.385 . S
O538 Eu533 2.387 . S
O538 Eu539 2.370 . S
Eu539 O535 2.370 . S
Eu539 O536 2.370 . S
Eu539 O537 2.370 . S
Eu539 O538 2.370 . S
Eu539 O542 2.363 . S
Eu539 O543 2.363 . S
Eu539 O552 2.363 . S
Eu539 O553 2.363 . S
O540 C514 1.283 . S
O540 Eu526 2.363 . S
O541 C515 1.283 . S
O541 Eu526 2.363 . S
O542 C516 1.283 . S
O542 Eu539 2.363 . S
O543 C517 1.283 . S
O543 Eu539 2.363 . S
O544 C518 1.283 . S
O544 Eu529 2.388 . S
O545 C519 1.283 . S
O545 Eu529 2.338 1_565 S
O546 C520 1.283 . S
O546 Eu530 2.388 . S
O547 C521 1.283 . S
O547 Eu530 2.338 1_565 S
O548 C522 1.283 . S
O548 Eu534 2.363 . S
O549 C523 1.283 . S
O549 Eu534 2.363 . S
O550 C524 1.283 . S
O550 Eu533 2.363 . S
O551 C525 1.283 . S
O551 Eu533 2.363 . S
O552 C520 1.283 . S
O552 Eu539 2.363 . S
O553 C518 1.283 . S
O553 Eu539 2.363 . S
O554 C521 1.283 . S
O554 Eu526 2.363 . S
O555 C519 1.283 . S
O555 Eu526 2.363 . S
O556 C515 1.283 . S
O556 Eu534 2.341 1_565 S
O557 C517 1.283 . S
O557 Eu534 2.385 . S
O558 C514 1.283 . S
O558 Eu533 2.335 1_565 S
O559 C516 1.283 . S
O559 Eu533 2.391 . S
O560 C525 1.283 . S
O560 Eu529 2.363 . S
O561 C523 1.283 . S
O561 Eu529 2.363 . S
O562 C524 1.283 . S
O562 Eu530 2.363 . S
O563 C522 1.283 . S
O563 Eu530 2.363 . S
H564 C572 0.929 . S
H565 C574 0.930 . S
H566 C576 0.930 . S
H567 C579 0.929 . S
H568 C582 0.930 . S
H569 C584 0.960 . S
H570 C584 0.960 . S
H571 C584 0.960 . S
C572 H564 0.929 . S
C572 C573 1.377 . S
C572 C574 1.384 . S
C573 C572 1.377 . S
C573 C579 1.390 . S
C574 H565 0.930 . S
C574 C572 1.384 . S
C574 C575 1.372 . S
C575 C574 1.372 . S
C575 C576 1.400 . S
C575 C580 1.490 . S
C576 H566 0.930 . S
C576 C575 1.400 . S
C576 C579 1.386 . S
H577 C593 0.930 . S
H578 C594 0.931 . S
C579 H567 0.929 . S
C579 C573 1.390 . S
C579 C576 1.386 . S
C580 C575 1.490 . S
C580 C582 1.395 . S
C580 C583 1.403 . S
H581 C587 0.930 . S
C582 H568 0.930 . S
C582 C580 1.395 . S
C582 C585 1.403 . S
C583 C580 1.403 . S
C583 C584 1.524 . S
C583 C587 1.400 . S
C584 H569 0.960 . S
C584 H570 0.960 . S
C584 H571 0.960 . S
C584 C583 1.524 . S
C585 C582 1.403 . S
C585 C586 1.392 . S
C585 C589 1.495 . S
C586 C585 1.392 . S
C586 C587 1.385 . S
C586 C588 1.478 . S
C587 H581 0.930 . S
C587 C583 1.400 . S
C587 C586 1.385 . S
C588 C586 1.478 . S
C588 C590 1.381 . S
C588 C594 1.383 . S
C589 C585 1.495 . S
C589 H595 0.959 . S
C589 H596 0.961 . S
C589 H597 0.960 . S
C590 C588 1.381 . S
C590 C591 1.394 . S
C590 H598 0.930 . S
C591 C590 1.394 . S
C591 C592 1.383 . S
C591 H599 0.929 . S
C592 C591 1.383 . S
C592 C593 1.377 . S
C593 H577 0.930 . S
C593 C592 1.377 . S
C593 C594 1.379 . S
C594 H578 0.931 . S
C594 C588 1.383 . S
C594 C593 1.379 . S
H595 C589 0.959 . S
H596 C589 0.961 . S
H597 C589 0.960 . S
H598 C590 0.930 . S
H599 C591 0.929 . S
H600 C608 0.929 . S
H601 C610 0.930 . S
H602 C612 0.930 . S
H603 C615 0.929 . S
H604 C618 0.930 . S
H605 C620 0.960 . S
H606 C620 0.960 . S
H607 C620 0.960 . S
C608 H600 0.929 . S
C608 C609 1.377 . S
C608 C610 1.384 . S
C609 C608 1.377 . S
C609 C615 1.390 . S
C610 H601 0.930 . S
C610 C608 1.384 . S
C610 C611 1.372 . S
C611 C610 1.372 . S
C611 C612 1.400 . S
C611 C616 1.490 . S
C612 H602 0.930 . S
C612 C611 1.400 . S
C612 C615 1.386 . S
H613 C629 0.930 . S
H614 C630 0.931 . S
C615 H603 0.929 . S
C615 C609 1.390 . S
C615 C612 1.386 . S
C616 C611 1.490 . S
C616 C618 1.395 . S
C616 C619 1.403 . S
H617 C623 0.930 . S
C618 H604 0.930 . S
C618 C616 1.395 . S
C618 C621 1.403 . S
C619 C616 1.403 . S
C619 C620 1.524 . S
C619 C623 1.400 . S
C620 H605 0.960 . S
C620 H606 0.960 . S
C620 H607 0.960 . S
C620 C619 1.524 . S
C621 C618 1.403 . S
C621 C622 1.392 . S
C621 C625 1.495 . S
C622 C621 1.392 . S
C622 C623 1.385 . S
C622 C624 1.478 . S
C623 H617 0.930 . S
C623 C619 1.400 . S
C623 C622 1.385 . S
C624 C622 1.478 . S
C624 C626 1.381 . S
C624 C630 1.383 . S
C625 C621 1.495 . S
C625 H631 0.959 . S
C625 H632 0.961 . S
C625 H633 0.960 . S
C626 C624 1.381 . S
C626 C627 1.394 . S
C626 H634 0.930 . S
C627 C626 1.394 . S
C627 C628 1.383 . S
C627 H635 0.929 . S
C628 C627 1.383 . S
C628 C629 1.377 . S
C629 H613 0.930 . S
C629 C628 1.377 . S
C629 C630 1.379 . S
C630 H614 0.931 . S
C630 C624 1.383 . S
C630 C629 1.379 . S
H631 C625 0.959 . S
H632 C625 0.961 . S
H633 C625 0.960 . S
H634 C626 0.930 . S
H635 C627 0.929 . S
H636 C644 0.929 . S
H637 C646 0.930 . S
H638 C648 0.930 . S
H639 C651 0.929 . S
H640 C654 0.930 . S
H641 C656 0.960 . S
H642 C656 0.960 . S
H643 C656 0.960 . S
C644 H636 0.929 . S
C644 C645 1.377 . S
C644 C646 1.384 . S
C645 C644 1.377 . S
C645 C651 1.390 . S
C646 H637 0.930 . S
C646 C644 1.384 . S
C646 C647 1.372 . S
C647 C646 1.372 . S
C647 C648 1.400 . S
C647 C652 1.490 . S
C648 H638 0.930 . S
C648 C647 1.400 . S
C648 C651 1.386 . S
H649 C665 0.930 . S
H650 C666 0.931 . S
C651 H639 0.929 . S
C651 C645 1.390 . S
C651 C648 1.386 . S
C652 C647 1.490 . S
C652 C654 1.395 . S
C652 C655 1.403 . S
H653 C659 0.930 . S
C654 H640 0.930 . S
C654 C652 1.395 . S
C654 C657 1.403 . S
C655 C652 1.403 . S
C655 C656 1.524 . S
C655 C659 1.400 . S
C656 H641 0.960 . S
C656 H642 0.960 . S
C656 H643 0.960 . S
C656 C655 1.524 . S
C657 C654 1.403 . S
C657 C658 1.392 . S
C657 C661 1.495 . S
C658 C657 1.392 . S
C658 C659 1.385 . S
C658 C660 1.478 . S
C659 H653 0.930 . S
C659 C655 1.400 . S
C659 C658 1.385 . S
C660 C658 1.478 . S
C660 C662 1.381 . S
C660 C666 1.383 . S
C661 C657 1.495 . S
C661 H667 0.959 . S
C661 H668 0.961 . S
C661 H669 0.960 . S
C662 C660 1.381 . S
C662 C663 1.394 . S
C662 H670 0.930 . S
C663 C662 1.394 . S
C663 C664 1.383 . S
C663 H671 0.929 . S
C664 C663 1.383 . S
C664 C665 1.377 . S
C665 H649 0.930 . S
C665 C664 1.377 . S
C665 C666 1.379 . S
C666 H650 0.931 . S
C666 C660 1.383 . S
C666 C665 1.379 . S
H667 C661 0.959 . S
H668 C661 0.961 . S
H669 C661 0.960 . S
H670 C662 0.930 . S
H671 C663 0.929 . S
H672 C680 0.929 . S
H673 C682 0.930 . S
H674 C684 0.930 . S
H675 C687 0.929 . S
H676 C690 0.930 . S
H677 C692 0.960 . S
H678 C692 0.960 . S
H679 C692 0.960 . S
C680 H672 0.929 . S
C680 C681 1.377 . S
C680 C682 1.384 . S
C681 C680 1.377 . S
C681 C687 1.390 . S
C682 H673 0.930 . S
C682 C680 1.384 . S
C682 C683 1.372 . S
C683 C682 1.372 . S
C683 C684 1.400 . S
C683 C688 1.490 . S
C684 H674 0.930 . S
C684 C683 1.400 . S
C684 C687 1.386 . S
H685 C701 0.930 . S
H686 C702 0.931 . S
C687 H675 0.929 . S
C687 C681 1.390 . S
C687 C684 1.386 . S
C688 C683 1.490 . S
C688 C690 1.395 . S
C688 C691 1.403 . S
H689 C695 0.930 . S
C690 H676 0.930 . S
C690 C688 1.395 . S
C690 C693 1.403 . S
C691 C688 1.403 . S
C691 C692 1.524 . S
C691 C695 1.400 . S
C692 H677 0.960 . S
C692 H678 0.960 . S
C692 H679 0.960 . S
C692 C691 1.524 . S
C693 C690 1.403 . S
C693 C694 1.392 . S
C693 C697 1.495 . S
C694 C693 1.392 . S
C694 C695 1.385 . S
C694 C696 1.478 . S
C695 H689 0.930 . S
C695 C691 1.400 . S
C695 C694 1.385 . S
C696 C694 1.478 . S
C696 C698 1.381 . S
C696 C702 1.383 . S
C697 C693 1.495 . S
C697 H703 0.959 . S
C697 H704 0.961 . S
C697 H705 0.960 . S
C698 C696 1.381 . S
C698 C699 1.394 . S
C698 H706 0.930 . S
C699 C698 1.394 . S
C699 C700 1.383 . S
C699 H707 0.929 . S
C700 C699 1.383 . S
C700 C701 1.377 . S
C701 H685 0.930 . S
C701 C700 1.377 . S
C701 C702 1.379 . S
C702 H686 0.931 . S
C702 C696 1.383 . S
C702 C701 1.379 . S
H703 C697 0.959 . S
H704 C697 0.961 . S
H705 C697 0.960 . S
H706 C698 0.930 . S
H707 C699 0.929 . S
H708 C716 0.929 . S
H709 C718 0.930 . S
H710 C720 0.930 . S
H711 C723 0.929 . S
H712 C726 0.930 . S
H713 C728 0.960 . S
H714 C728 0.960 . S
H715 C728 0.960 . S
C716 H708 0.929 . S
C716 C717 1.377 . S
C716 C718 1.384 . S
C717 C716 1.377 . S
C717 C723 1.390 . S
C718 H709 0.930 . S
C718 C716 1.384 . S
C718 C719 1.372 . S
C719 C718 1.372 . S
C719 C720 1.400 . S
C719 C724 1.490 . S
C720 H710 0.930 . S
C720 C719 1.400 . S
C720 C723 1.386 . S
H721 C737 0.930 . S
H722 C738 0.931 . S
C723 H711 0.929 . S
C723 C717 1.390 . S
C723 C720 1.386 . S
C724 C719 1.490 . S
C724 C726 1.395 . S
C724 C727 1.403 . S
H725 C731 0.930 . S
C726 H712 0.930 . S
C726 C724 1.395 . S
C726 C729 1.403 . S
C727 C724 1.403 . S
C727 C728 1.524 . S
C727 C731 1.400 . S
C728 H713 0.960 . S
C728 H714 0.960 . S
C728 H715 0.960 . S
C728 C727 1.524 . S
C729 C726 1.403 . S
C729 C730 1.392 . S
C729 C733 1.495 . S
C730 C729 1.392 . S
C730 C731 1.385 . S
C730 C732 1.478 . S
C731 H725 0.930 . S
C731 C727 1.400 . S
C731 C730 1.385 . S
C732 C730 1.478 . S
C732 C734 1.381 . S
C732 C738 1.383 . S
C733 C729 1.495 . S
C733 H739 0.959 . S
C733 H740 0.961 . S
C733 H741 0.960 . S
C734 C732 1.381 . S
C734 C735 1.394 . S
C734 H742 0.930 . S
C735 C734 1.394 . S
C735 C736 1.383 . S
C735 H743 0.929 . S
C736 C735 1.383 . S
C736 C737 1.377 . S
C737 H721 0.930 . S
C737 C736 1.377 . S
C737 C738 1.379 . S
C738 H722 0.931 . S
C738 C732 1.383 . S
C738 C737 1.379 . S
H739 C733 0.959 . S
H740 C733 0.961 . S
H741 C733 0.960 . S
H742 C734 0.930 . S
H743 C735 0.929 . S
H744 C752 0.929 . S
H745 C754 0.930 . S
H746 C756 0.930 . S
H747 C759 0.929 . S
H748 C762 0.930 . S
H749 C764 0.960 . S
H750 C764 0.960 . S
H751 C764 0.960 . S
C752 H744 0.929 . S
C752 C753 1.377 . S
C752 C754 1.384 . S
C753 C752 1.377 . S
C753 C759 1.390 . S
C754 H745 0.930 . S
C754 C752 1.384 . S
C754 C755 1.372 . S
C755 C754 1.372 . S
C755 C756 1.400 . S
C755 C760 1.490 . S
C756 H746 0.930 . S
C756 C755 1.400 . S
C756 C759 1.386 . S
H757 C773 0.930 . S
H758 C774 0.931 . S
C759 H747 0.929 . S
C759 C753 1.390 . S
C759 C756 1.386 . S
C760 C755 1.490 . S
C760 C762 1.395 . S
C760 C763 1.403 . S
H761 C767 0.930 . S
C762 H748 0.930 . S
C762 C760 1.395 . S
C762 C765 1.403 . S
C763 C760 1.403 . S
C763 C764 1.524 . S
C763 C767 1.400 . S
C764 H749 0.960 . S
C764 H750 0.960 . S
C764 H751 0.960 . S
C764 C763 1.524 . S
C765 C762 1.403 . S
C765 C766 1.392 . S
C765 C769 1.495 . S
C766 C765 1.392 . S
C766 C767 1.385 . S
C766 C768 1.478 . S
C767 H761 0.930 . S
C767 C763 1.400 . S
C767 C766 1.385 . S
C768 C766 1.478 . S
C768 C770 1.381 . S
C768 C774 1.383 . S
C769 C765 1.495 . S
C769 H775 0.959 . S
C769 H776 0.961 . S
C769 H777 0.960 . S
C770 C768 1.381 . S
C770 C771 1.394 . S
C770 H778 0.930 . S
C771 C770 1.394 . S
C771 C772 1.383 . S
C771 H779 0.929 . S
C772 C771 1.383 . S
C772 C773 1.377 . S
C773 H757 0.930 . S
C773 C772 1.377 . S
C773 C774 1.379 . S
C774 H758 0.931 . S
C774 C768 1.383 . S
C774 C773 1.379 . S
H775 C769 0.959 . S
H776 C769 0.961 . S
H777 C769 0.960 . S
H778 C770 0.930 . S
H779 C771 0.929 . S
H780 C788 0.929 . S
H781 C790 0.930 . S
H782 C792 0.930 . S
H783 C795 0.929 . S
H784 C798 0.930 . S
H785 C800 0.960 . S
H786 C800 0.960 . S
H787 C800 0.960 . S
C788 H780 0.929 . S
C788 C789 1.377 . S
C788 C790 1.384 . S
C789 C788 1.377 . S
C789 C795 1.390 . S
C790 H781 0.930 . S
C790 C788 1.384 . S
C790 C791 1.372 . S
C791 C790 1.372 . S
C791 C792 1.400 . S
C791 C796 1.490 . S
C792 H782 0.930 . S
C792 C791 1.400 . S
C792 C795 1.386 . S
H793 C809 0.930 . S
H794 C810 0.931 . S
C795 H783 0.929 . S
C795 C789 1.390 . S
C795 C792 1.386 . S
C796 C791 1.490 . S
C796 C798 1.395 . S
C796 C799 1.403 . S
H797 C803 0.930 . S
C798 H784 0.930 . S
C798 C796 1.395 . S
C798 C801 1.403 . S
C799 C796 1.403 . S
C799 C800 1.524 . S
C799 C803 1.400 . S
C800 H785 0.960 . S
C800 H786 0.960 . S
C800 H787 0.960 . S
C800 C799 1.524 . S
C801 C798 1.403 . S
C801 C802 1.392 . S
C801 C805 1.495 . S
C802 C801 1.392 . S
C802 C803 1.385 . S
C802 C804 1.478 . S
C803 H797 0.930 . S
C803 C799 1.400 . S
C803 C802 1.385 . S
C804 C802 1.478 . S
C804 C806 1.381 . S
C804 C810 1.383 . S
C805 C801 1.495 . S
C805 H811 0.959 . S
C805 H812 0.961 . S
C805 H813 0.960 . S
C806 C804 1.381 . S
C806 C807 1.394 . S
C806 H814 0.930 . S
C807 C806 1.394 . S
C807 C808 1.383 . S
C807 H815 0.929 . S
C808 C807 1.383 . S
C808 C809 1.377 . S
C809 H793 0.930 . S
C809 C808 1.377 . S
C809 C810 1.379 . S
C810 H794 0.931 . S
C810 C804 1.383 . S
C810 C809 1.379 . S
H811 C805 0.959 . S
H812 C805 0.961 . S
H813 C805 0.960 . S
H814 C806 0.930 . S
H815 C807 0.929 . S
H816 C824 0.929 . S
H817 C826 0.930 . S
H818 C828 0.930 . S
H819 C831 0.929 . S
H820 C834 0.930 . S
H821 C836 0.960 . S
H822 C836 0.960 . S
H823 C836 0.960 . S
C824 H816 0.929 . S
C824 C825 1.377 . S
C824 C826 1.384 . S
C825 C824 1.377 . S
C825 C831 1.390 . S
C826 H817 0.930 . S
C826 C824 1.384 . S
C826 C827 1.372 . S
C827 C826 1.372 . S
C827 C828 1.400 . S
C827 C832 1.490 . S
C828 H818 0.930 . S
C828 C827 1.400 . S
C828 C831 1.386 . S
H829 C845 0.930 . S
H830 C846 0.931 . S
C831 H819 0.929 . S
C831 C825 1.390 . S
C831 C828 1.386 . S
C832 C827 1.490 . S
C832 C834 1.395 . S
C832 C835 1.403 . S
H833 C839 0.930 . S
C834 H820 0.930 . S
C834 C832 1.395 . S
C834 C837 1.403 . S
C835 C832 1.403 . S
C835 C836 1.524 . S
C835 C839 1.400 . S
C836 H821 0.960 . S
C836 H822 0.960 . S
C836 H823 0.960 . S
C836 C835 1.524 . S
C837 C834 1.403 . S
C837 C838 1.392 . S
C837 C841 1.495 . S
C838 C837 1.392 . S
C838 C839 1.385 . S
C838 C840 1.478 . S
C839 H833 0.930 . S
C839 C835 1.400 . S
C839 C838 1.385 . S
C840 C838 1.478 . S
C840 C842 1.381 . S
C840 C846 1.383 . S
C841 C837 1.495 . S
C841 H847 0.959 . S
C841 H848 0.961 . S
C841 H849 0.960 . S
C842 C840 1.381 . S
C842 C843 1.394 . S
C842 H850 0.930 . S
C843 C842 1.394 . S
C843 C844 1.383 . S
C843 H851 0.929 . S
C844 C843 1.383 . S
C844 C845 1.377 . S
C845 H829 0.930 . S
C845 C844 1.377 . S
C845 C846 1.379 . S
C846 H830 0.931 . S
C846 C840 1.383 . S
C846 C845 1.379 . S
H847 C841 0.959 . S
H848 C841 0.961 . S
H849 C841 0.960 . S
H850 C842 0.930 . S
H851 C843 0.929 . S
H852 C860 0.929 . S
H853 C862 0.930 . S
H854 C864 0.930 . S
H855 C867 0.929 . S
H856 C870 0.930 . S
H857 C872 0.960 . S
H858 C872 0.960 . S
H859 C872 0.960 . S
C860 H852 0.929 . S
C860 C861 1.377 . S
C860 C862 1.384 . S
C861 C860 1.377 . S
C861 C867 1.390 . S
C862 H853 0.930 . S
C862 C860 1.384 . S
C862 C863 1.372 . S
C863 C862 1.372 . S
C863 C864 1.400 . S
C863 C868 1.490 . S
C864 H854 0.930 . S
C864 C863 1.400 . S
C864 C867 1.386 . S
H865 C881 0.930 . S
H866 C882 0.931 . S
C867 H855 0.929 . S
C867 C861 1.390 . S
C867 C864 1.386 . S
C868 C863 1.490 . S
C868 C870 1.395 . S
C868 C871 1.403 . S
H869 C875 0.930 . S
C870 H856 0.930 . S
C870 C868 1.395 . S
C870 C873 1.403 . S
C871 C868 1.403 . S
C871 C872 1.524 . S
C871 C875 1.400 . S
C872 H857 0.960 . S
C872 H858 0.960 . S
C872 H859 0.960 . S
C872 C871 1.524 . S
C873 C870 1.403 . S
C873 C874 1.392 . S
C873 C877 1.495 . S
C874 C873 1.392 . S
C874 C875 1.385 . S
C874 C876 1.478 . S
C875 H869 0.930 . S
C875 C871 1.400 . S
C875 C874 1.385 . S
C876 C874 1.478 . S
C876 C878 1.381 . S
C876 C882 1.383 . S
C877 C873 1.495 . S
C877 H883 0.959 . S
C877 H884 0.961 . S
C877 H885 0.960 . S
C878 C876 1.381 . S
C878 C879 1.394 . S
C878 H886 0.930 . S
C879 C878 1.394 . S
C879 C880 1.383 . S
C879 H887 0.929 . S
C880 C879 1.383 . S
C880 C881 1.377 . S
C881 H865 0.930 . S
C881 C880 1.377 . S
C881 C882 1.379 . S
C882 H866 0.931 . S
C882 C876 1.383 . S
C882 C881 1.379 . S
H883 C877 0.959 . S
H884 C877 0.961 . S
H885 C877 0.960 . S
H886 C878 0.930 . S
H887 C879 0.929 . S
H888 C896 0.929 . S
H889 C898 0.930 . S
H890 C900 0.930 . S
H891 C903 0.929 . S
H892 C906 0.930 . S
H893 C908 0.960 . S
H894 C908 0.960 . S
H895 C908 0.960 . S
C896 H888 0.929 . S
C896 C897 1.377 . S
C896 C898 1.384 . S
C897 C896 1.377 . S
C897 C903 1.390 . S
C898 H889 0.930 . S
C898 C896 1.384 . S
C898 C899 1.372 . S
C899 C898 1.372 . S
C899 C900 1.400 . S
C899 C904 1.490 . S
C900 H890 0.930 . S
C900 C899 1.400 . S
C900 C903 1.386 . S
H901 C917 0.930 . S
H902 C918 0.931 . S
C903 H891 0.929 . S
C903 C897 1.390 . S
C903 C900 1.386 . S
C904 C899 1.490 . S
C904 C906 1.395 . S
C904 C907 1.403 . S
H905 C911 0.930 . S
C906 H892 0.930 . S
C906 C904 1.395 . S
C906 C909 1.403 . S
C907 C904 1.403 . S
C907 C908 1.524 . S
C907 C911 1.400 . S
C908 H893 0.960 . S
C908 H894 0.960 . S
C908 H895 0.960 . S
C908 C907 1.524 . S
C909 C906 1.403 . S
C909 C910 1.392 . S
C909 C913 1.495 . S
C910 C909 1.392 . S
C910 C911 1.385 . S
C910 C912 1.478 . S
C911 H905 0.930 . S
C911 C907 1.400 . S
C911 C910 1.385 . S
C912 C910 1.478 . S
C912 C914 1.381 . S
C912 C918 1.383 . S
C913 C909 1.495 . S
C913 H919 0.959 . S
C913 H920 0.961 . S
C913 H921 0.960 . S
C914 C912 1.381 . S
C914 C915 1.394 . S
C914 H922 0.930 . S
C915 C914 1.394 . S
C915 C916 1.383 . S
C915 H923 0.929 . S
C916 C915 1.383 . S
C916 C917 1.377 . S
C917 H901 0.930 . S
C917 C916 1.377 . S
C917 C918 1.379 . S
C918 H902 0.931 . S
C918 C912 1.383 . S
C918 C917 1.379 . S
H919 C913 0.959 . S
H920 C913 0.961 . S
H921 C913 0.960 . S
H922 C914 0.930 . S
H923 C915 0.929 . S
H924 C932 0.929 . S
H925 C934 0.930 . S
H926 C936 0.930 . S
H927 C939 0.929 . S
H928 C942 0.930 . S
H929 C944 0.960 . S
H930 C944 0.960 . S
H931 C944 0.960 . S
C932 H924 0.929 . S
C932 C933 1.377 . S
C932 C934 1.384 . S
C933 C932 1.377 . S
C933 C939 1.390 . S
C934 H925 0.930 . S
C934 C932 1.384 . S
C934 C935 1.372 . S
C935 C934 1.372 . S
C935 C936 1.400 . S
C935 C940 1.490 . S
C936 H926 0.930 . S
C936 C935 1.400 . S
C936 C939 1.386 . S
H937 C953 0.930 . S
H938 C954 0.931 . S
C939 H927 0.929 . S
C939 C933 1.390 . S
C939 C936 1.386 . S
C940 C935 1.490 . S
C940 C942 1.395 . S
C940 C943 1.403 . S
H941 C947 0.930 . S
C942 H928 0.930 . S
C942 C940 1.395 . S
C942 C945 1.403 . S
C943 C940 1.403 . S
C943 C944 1.524 . S
C943 C947 1.400 . S
C944 H929 0.960 . S
C944 H930 0.960 . S
C944 H931 0.960 . S
C944 C943 1.524 . S
C945 C942 1.403 . S
C945 C946 1.392 . S
C945 C949 1.495 . S
C946 C945 1.392 . S
C946 C947 1.385 . S
C946 C948 1.478 . S
C947 H941 0.930 . S
C947 C943 1.400 . S
C947 C946 1.385 . S
C948 C946 1.478 . S
C948 C950 1.381 . S
C948 C954 1.383 . S
C949 C945 1.495 . S
C949 H955 0.959 . S
C949 H956 0.961 . S
C949 H957 0.960 . S
C950 C948 1.381 . S
C950 C951 1.394 . S
C950 H958 0.930 . S
C951 C950 1.394 . S
C951 C952 1.383 . S
C951 H959 0.929 . S
C952 C951 1.383 . S
C952 C953 1.377 . S
C953 H937 0.930 . S
C953 C952 1.377 . S
C953 C954 1.379 . S
C954 H938 0.931 . S
C954 C948 1.383 . S
C954 C953 1.379 . S
H955 C949 0.959 . S
H956 C949 0.961 . S
H957 C949 0.960 . S
H958 C950 0.930 . S
H959 C951 0.929 . S
H960 C968 0.929 . S
H961 C970 0.930 . S
H962 C972 0.930 . S
H963 C975 0.929 . S
H964 C978 0.930 . S
H965 C980 0.960 . S
H966 C980 0.960 . S
H967 C980 0.960 . S
C968 H960 0.929 . S
C968 C969 1.377 . S
C968 C970 1.384 . S
C969 C968 1.377 . S
C969 C975 1.390 . S
C970 H961 0.930 . S
C970 C968 1.384 . S
C970 C971 1.372 . S
C971 C970 1.372 . S
C971 C972 1.400 . S
C971 C976 1.490 . S
C972 H962 0.930 . S
C972 C971 1.400 . S
C972 C975 1.386 . S
H973 C989 0.930 . S
H974 C990 0.931 . S
C975 H963 0.929 . S
C975 C969 1.390 . S
C975 C972 1.386 . S
C976 C971 1.490 . S
C976 C978 1.395 . S
C976 C979 1.403 . S
H977 C983 0.930 . S
C978 H964 0.930 . S
C978 C976 1.395 . S
C978 C981 1.403 . S
C979 C976 1.403 . S
C979 C980 1.524 . S
C979 C983 1.400 . S
C980 H965 0.960 . S
C980 H966 0.960 . S
C980 H967 0.960 . S
C980 C979 1.524 . S
C981 C978 1.403 . S
C981 C982 1.392 . S
C981 C985 1.495 . S
C982 C981 1.392 . S
C982 C983 1.385 . S
C982 C984 1.478 . S
C983 H977 0.930 . S
C983 C979 1.400 . S
C983 C982 1.385 . S
C984 C982 1.478 . S
C984 C986 1.381 . S
C984 C990 1.383 . S
C985 C981 1.495 . S
C985 H991 0.959 . S
C985 H992 0.961 . S
C985 H993 0.960 . S
C986 C984 1.381 . S
C986 C987 1.394 . S
C986 H994 0.930 . S
C987 C986 1.394 . S
C987 C988 1.383 . S
C987 H995 0.929 . S
C988 C987 1.383 . S
C988 C989 1.377 . S
C989 H973 0.930 . S
C989 C988 1.377 . S
C989 C990 1.379 . S
C990 H974 0.931 . S
C990 C984 1.383 . S
C990 C989 1.379 . S
H991 C985 0.959 . S
H992 C985 0.961 . S
H993 C985 0.960 . S
H994 C986 0.930 . S
H995 C987 0.929 . S
H996 C1004 0.929 . S
H997 C1006 0.930 . S
H998 C1008 0.930 . S
H999 C1011 0.929 . S
H1000 C1014 0.930 . S
H1001 C1016 0.960 . S
H1002 C1016 0.960 . S
H1003 C1016 0.960 . S
C1004 H996 0.929 . S
C1004 C1005 1.377 1_556 S
C1004 C1006 1.384 . S
C1005 C1004 1.377 1_554 S
C1005 C1011 1.390 . S
C1006 H997 0.930 . S
C1006 C1004 1.384 . S
C1006 C1007 1.372 1_556 S
C1007 C1006 1.372 1_554 S
C1007 C1008 1.400 . S
C1007 C1012 1.490 . S
C1008 H998 0.930 . S
C1008 C1007 1.400 . S
C1008 C1011 1.386 . S
H1009 C1025 0.930 . S
H1010 C1026 0.931 . S
C1011 H999 0.929 . S
C1011 C1005 1.390 . S
C1011 C1008 1.386 . S
C1012 C1007 1.490 . S
C1012 C1014 1.395 1_554 S
C1012 C1015 1.403 . S
H1013 C1019 0.930 . S
C1014 H1000 0.930 . S
C1014 C1012 1.395 1_556 S
C1014 C1017 1.403 . S
C1015 C1012 1.403 . S
C1015 C1016 1.524 . S
C1015 C1019 1.400 . S
C1016 H1001 0.960 . S
C1016 H1002 0.960 . S
C1016 H1003 0.960 . S
C1016 C1015 1.524 . S
C1017 C1014 1.403 . S
C1017 C1018 1.392 1_556 S
C1017 C1021 1.495 . S
C1018 C1017 1.392 1_554 S
C1018 C1019 1.385 . S
C1018 C1020 1.478 . S
C1019 H1013 0.930 . S
C1019 C1015 1.400 . S
C1019 C1018 1.385 . S
C1020 C1018 1.478 . S
C1020 C1022 1.381 1_554 S
C1020 C1026 1.383 . S
C1021 C1017 1.495 . S
C1021 H1027 0.959 . S
C1021 H1028 0.961 . S
C1021 H1029 0.960 . S
C1022 C1020 1.381 1_556 S
C1022 C1023 1.394 . S
C1022 H1030 0.930 . S
C1023 C1022 1.394 . S
C1023 C1024 1.383 1_556 S
C1023 H1031 0.929 . S
C1024 C1023 1.383 1_554 S
C1024 C1025 1.377 . S
C1025 H1009 0.930 . S
C1025 C1024 1.377 . S
C1025 C1026 1.379 . S
C1026 H1010 0.931 . S
C1026 C1020 1.383 . S
C1026 C1025 1.379 . S
H1027 C1021 0.959 . S
H1028 C1021 0.961 . S
H1029 C1021 0.960 . S
H1030 C1022 0.930 . S
H1031 C1023 0.929 . S
H1032 C1040 0.929 . S
H1033 C1042 0.930 . S
H1034 C1044 0.930 . S
H1035 C1047 0.929 . S
H1036 C1050 0.930 . S
H1037 C1052 0.960 . S
H1038 C1052 0.960 . S
H1039 C1052 0.960 . S
C1040 H1032 0.929 . S
C1040 C1041 1.377 1_556 S
C1040 C1042 1.384 . S
C1041 C1040 1.377 1_554 S
C1041 C1047 1.390 . S
C1042 H1033 0.930 . S
C1042 C1040 1.384 . S
C1042 C1043 1.372 1_556 S
C1043 C1042 1.372 1_554 S
C1043 C1044 1.400 . S
C1043 C1048 1.490 . S
C1044 H1034 0.930 . S
C1044 C1043 1.400 . S
C1044 C1047 1.386 . S
H1045 C1061 0.930 . S
H1046 C1062 0.931 . S
C1047 H1035 0.929 . S
C1047 C1041 1.390 . S
C1047 C1044 1.386 . S
C1048 C1043 1.490 . S
C1048 C1050 1.395 1_554 S
C1048 C1051 1.403 . S
H1049 C1055 0.930 . S
C1050 H1036 0.930 . S
C1050 C1048 1.395 1_556 S
C1050 C1053 1.403 . S
C1051 C1048 1.403 . S
C1051 C1052 1.524 . S
C1051 C1055 1.400 . S
C1052 H1037 0.960 . S
C1052 H1038 0.960 . S
C1052 H1039 0.960 . S
C1052 C1051 1.524 . S
C1053 C1050 1.403 . S
C1053 C1054 1.411 . S
C1053 C1057 1.495 . S
C1054 C1053 1.411 . S
C1054 C1055 1.365 1_556 S
C1054 C1056 1.478 . S
C1055 H1049 0.930 . S
C1055 C1051 1.400 . S
C1055 C1054 1.365 1_554 S
C1056 C1054 1.478 . S
C1056 C1058 1.391 . S
C1056 C1062 1.372 1_556 S
C1057 C1053 1.495 . S
C1057 H1063 0.959 . S
C1057 H1064 0.961 . S
C1057 H1065 0.960 . S
C1058 C1056 1.391 . S
C1058 C1059 1.394 . S
C1058 H1066 0.930 . S
C1059 C1058 1.394 . S
C1059 C1060 1.383 1_556 S
C1059 H1067 0.929 . S
C1060 C1059 1.383 1_554 S
C1060 C1061 1.377 . S
C1061 H1045 0.930 . S
C1061 C1060 1.377 . S
C1061 C1062 1.379 . S
C1062 H1046 0.931 . S
C1062 C1056 1.372 1_554 S
C1062 C1061 1.379 . S
H1063 C1057 0.959 . S
H1064 C1057 0.961 . S
H1065 C1057 0.960 . S
H1066 C1058 0.930 . S
H1067 C1059 0.929 . S
H1068 C1076 0.924 1_556 S
H1069 C1078 0.930 1_556 S
H1070 C1080 0.930 . S
H1071 C1083 0.929 . S
H1072 C1086 0.930 . S
H1073 C1088 0.960 . S
H1074 C1088 0.960 . S
H1075 C1088 0.960 . S
C1076 H1068 0.924 1_554 S
C1076 C1077 1.377 . S
C1076 C1078 1.384 . S
C1077 C1076 1.377 . S
C1077 C1083 1.390 . S
C1078 H1069 0.930 1_554 S
C1078 C1076 1.384 . S
C1078 C1079 1.372 . S
C1079 C1078 1.372 . S
C1079 C1080 1.400 . S
C1079 C1084 1.490 . S
C1080 H1070 0.930 . S
C1080 C1079 1.400 . S
C1080 C1083 1.386 . S
H1081 C1097 0.930 . S
H1082 C1098 0.931 . S
C1083 H1071 0.929 . S
C1083 C1077 1.390 . S
C1083 C1080 1.386 . S
C1084 C1079 1.490 . S
C1084 C1086 1.395 1_554 S
C1084 C1087 1.403 . S
H1085 C1091 0.930 . S
C1086 H1072 0.930 . S
C1086 C1084 1.395 1_556 S
C1086 C1089 1.403 . S
C1087 C1084 1.403 . S
C1087 C1088 1.524 . S
C1087 C1091 1.400 . S
C1088 H1073 0.960 . S
C1088 H1074 0.960 . S
C1088 H1075 0.960 . S
C1088 C1087 1.524 . S
C1089 C1086 1.403 . S
C1089 C1090 1.373 1_556 S
C1089 C1093 1.495 . S
C1090 C1089 1.373 1_554 S
C1090 C1091 1.406 . S
C1090 C1092 1.477 . S
C1091 H1085 0.930 . S
C1091 C1087 1.400 . S
C1091 C1090 1.406 . S
C1092 C1090 1.477 . S
C1092 C1094 1.380 1_554 S
C1092 C1098 1.383 . S
C1093 C1089 1.495 . S
C1093 H1099 0.959 . S
C1093 H1100 0.961 . S
C1093 H1101 0.960 . S
C1094 C1092 1.380 1_556 S
C1094 C1095 1.392 1_556 S
C1094 H1102 0.937 . S
C1095 C1094 1.392 1_554 S
C1095 C1096 1.386 . S
C1095 H1103 0.929 1_554 S
C1096 C1095 1.386 . S
C1096 C1097 1.377 . S
C1097 H1081 0.930 . S
C1097 C1096 1.377 . S
C1097 C1098 1.379 . S
C1098 H1082 0.931 . S
C1098 C1092 1.383 . S
C1098 C1097 1.379 . S
H1099 C1093 0.959 . S
H1100 C1093 0.961 . S
H1101 C1093 0.960 . S
H1102 C1094 0.937 . S
H1103 C1095 0.929 1_556 S
H1104 C1112 0.929 . S
H1105 C1114 0.930 . S
H1106 C1116 0.930 . S
H1107 C1119 0.929 . S
H1108 C1122 0.930 . S
H1109 C1124 0.960 . S
H1110 C1124 0.960 . S
H1111 C1124 0.960 . S
C1112 H1104 0.929 . S
C1112 C1113 1.377 1_556 S
C1112 C1114 1.384 . S
C1113 C1112 1.377 1_554 S
C1113 C1119 1.390 . S
C1114 H1105 0.930 . S
C1114 C1112 1.384 . S
C1114 C1115 1.372 1_556 S
C1115 C1114 1.372 1_554 S
C1115 C1116 1.400 . S
C1115 C1120 1.490 . S
C1116 H1106 0.930 . S
C1116 C1115 1.400 . S
C1116 C1119 1.386 . S
H1117 C1133 0.930 . S
H1118 C1134 0.931 . S
C1119 H1107 0.929 . S
C1119 C1113 1.390 . S
C1119 C1116 1.386 . S
C1120 C1115 1.490 . S
C1120 C1122 1.395 1_554 S
C1120 C1123 1.403 . S
H1121 C1127 0.930 . S
C1122 H1108 0.930 . S
C1122 C1120 1.395 1_556 S
C1122 C1125 1.403 . S
C1123 C1120 1.403 . S
C1123 C1124 1.524 . S
C1123 C1127 1.400 . S
C1124 H1109 0.960 . S
C1124 H1110 0.960 . S
C1124 H1111 0.960 . S
C1124 C1123 1.524 . S
C1125 C1122 1.403 . S
C1125 C1126 1.396 . S
C1125 C1129 1.495 . S
C1126 C1125 1.396 . S
C1126 C1127 1.381 1_556 S
C1126 C1128 1.478 . S
C1127 H1121 0.930 . S
C1127 C1123 1.400 . S
C1127 C1126 1.381 1_554 S
C1128 C1126 1.478 . S
C1128 C1130 1.385 . S
C1128 C1134 1.378 1_556 S
C1129 C1125 1.495 . S
C1129 H1135 0.959 . S
C1129 H1136 0.961 . S
C1129 H1137 0.960 . S
C1130 C1128 1.385 . S
C1130 C1131 1.394 . S
C1130 H1138 0.930 . S
C1131 C1130 1.394 . S
C1131 C1132 1.383 1_556 S
C1131 H1139 0.929 . S
C1132 C1131 1.383 1_554 S
C1132 C1133 1.377 . S
C1133 H1117 0.930 . S
C1133 C1132 1.377 . S
C1133 C1134 1.379 . S
C1134 H1118 0.931 . S
C1134 C1128 1.378 1_554 S
C1134 C1133 1.379 . S
H1135 C1129 0.959 . S
H1136 C1129 0.961 . S
H1137 C1129 0.960 . S
H1138 C1130 0.930 . S
H1139 C1131 0.929 . S
H1140 C1148 0.929 . S
H1141 C1150 0.930 . S
H1142 C1152 0.930 . S
H1143 C1155 0.929 . S
H1144 C1158 0.930 . S
H1145 C1160 0.960 . S
H1146 C1160 0.960 . S
H1147 C1160 0.960 . S
C1148 H1140 0.929 . S
C1148 C1149 1.377 . S
C1148 C1150 1.384 . S
C1149 C1148 1.377 . S
C1149 C1155 1.390 . S
C1150 H1141 0.930 . S
C1150 C1148 1.384 . S
C1150 C1151 1.372 . S
C1151 C1150 1.372 . S
C1151 C1152 1.400 . S
C1151 C1156 1.490 . S
C1152 H1142 0.930 . S
C1152 C1151 1.400 . S
C1152 C1155 1.386 . S
H1153 C1169 0.930 . S
H1154 C1170 0.931 . S
C1155 H1143 0.929 . S
C1155 C1149 1.390 . S
C1155 C1152 1.386 . S
C1156 C1151 1.490 . S
C1156 C1158 1.395 . S
C1156 C1159 1.406 1_455 S
H1157 C1163 0.930 1_655 S
C1158 H1144 0.930 . S
C1158 C1156 1.395 . S
C1158 C1161 1.403 . S
C1159 C1156 1.406 1_655 S
C1159 C1160 1.519 . S
C1159 C1163 1.400 1_655 S
C1160 H1145 0.960 . S
C1160 H1146 0.960 . S
C1160 H1147 0.960 . S
C1160 C1159 1.519 . S
C1161 C1158 1.403 . S
C1161 C1162 1.392 . S
C1161 C1165 1.495 . S
C1162 C1161 1.392 . S
C1162 C1163 1.385 . S
C1162 C1164 1.478 . S
C1163 H1157 0.930 1_455 S
C1163 C1159 1.400 1_455 S
C1163 C1162 1.385 . S
C1164 C1162 1.478 . S
C1164 C1166 1.381 . S
C1164 C1170 1.383 . S
C1165 C1161 1.495 . S
C1165 H1171 0.959 . S
C1165 H1172 0.961 . S
C1165 H1173 0.960 . S
C1166 C1164 1.381 . S
C1166 C1167 1.394 . S
C1166 H1174 0.930 . S
C1167 C1166 1.394 . S
C1167 C1168 1.383 . S
C1167 H1175 0.929 . S
C1168 C1167 1.383 . S
C1168 C1169 1.377 . S
C1169 H1153 0.930 . S
C1169 C1168 1.377 . S
C1169 C1170 1.379 . S
C1170 H1154 0.931 . S
C1170 C1164 1.383 . S
C1170 C1169 1.379 . S
H1171 C1165 0.959 . S
H1172 C1165 0.961 . S
H1173 C1165 0.960 . S
H1174 C1166 0.930 . S
H1175 C1167 0.929 . S
H1176 C1184 0.929 . S
H1177 C1186 0.930 . S
H1178 C1188 0.930 . S
H1179 C1191 0.929 . S
H1180 C1194 0.930 . S
H1181 C1196 0.960 . S
H1182 C1196 0.960 1_545 S
H1183 C1196 0.960 . S
C1184 H1176 0.929 . S
C1184 C1185 1.377 . S
C1184 C1186 1.384 . S
C1185 C1184 1.377 . S
C1185 C1191 1.390 1_545 S
C1186 H1177 0.930 . S
C1186 C1184 1.384 . S
C1186 C1187 1.372 . S
C1187 C1186 1.372 . S
C1187 C1188 1.400 1_545 S
C1187 C1192 1.490 . S
C1188 H1178 0.930 . S
C1188 C1187 1.400 1_565 S
C1188 C1191 1.386 . S
H1189 C1205 0.930 . S
H1190 C1206 0.931 . S
C1191 H1179 0.929 . S
C1191 C1185 1.390 1_565 S
C1191 C1188 1.386 . S
C1192 C1187 1.490 . S
C1192 C1194 1.395 . S
C1192 C1195 1.403 1_545 S
H1193 C1199 0.930 . S
C1194 H1180 0.930 . S
C1194 C1192 1.395 . S
C1194 C1197 1.403 . S
C1195 C1192 1.403 1_565 S
C1195 C1196 1.524 . S
C1195 C1199 1.400 . S
C1196 H1181 0.960 . S
C1196 H1182 0.960 1_565 S
C1196 H1183 0.960 . S
C1196 C1195 1.524 . S
C1197 C1194 1.403 . S
C1197 C1198 1.392 . S
C1197 C1201 1.495 . S
C1198 C1197 1.392 . S
C1198 C1199 1.385 1_545 S
C1198 C1200 1.478 . S
C1199 H1193 0.930 . S
C1199 C1195 1.400 . S
C1199 C1198 1.385 1_565 S
C1200 C1198 1.478 . S
C1200 C1202 1.381 . S
C1200 C1206 1.383 1_545 S
C1201 C1197 1.495 . S
C1201 H1207 0.959 . S
C1201 H1208 0.958 1_545 S
C1201 H1209 0.960 . S
C1202 C1200 1.381 . S
C1202 C1203 1.394 . S
C1202 H1210 0.930 . S
C1203 C1202 1.394 . S
C1203 C1204 1.425 . S
C1203 H1211 0.929 . S
C1204 C1203 1.425 . S
C1204 C1205 1.337 1_545 S
C1205 H1189 0.930 . S
C1205 C1204 1.337 1_565 S
C1205 C1206 1.379 . S
C1206 H1190 0.931 . S
C1206 C1200 1.383 1_565 S
C1206 C1205 1.379 . S
H1207 C1201 0.959 . S
H1208 C1201 0.958 1_565 S
H1209 C1201 0.960 . S
H1210 C1202 0.930 . S
H1211 C1203 0.929 . S
H1212 C1220 0.929 . S
H1213 C1222 0.930 . S
H1214 C1224 0.930 . S
H1215 C1227 0.929 . S
H1216 C1230 0.930 . S
H1217 C1232 0.960 . S
H1218 C1232 0.960 . S
H1219 C1232 0.960 . S
C1220 H1212 0.929 . S
C1220 C1221 1.377 1_655 S
C1220 C1222 1.384 . S
C1221 C1220 1.377 1_455 S
C1221 C1227 1.390 . S
C1222 H1213 0.930 . S
C1222 C1220 1.384 . S
C1222 C1223 1.372 1_655 S
C1223 C1222 1.372 1_455 S
C1223 C1224 1.400 . S
C1223 C1228 1.490 . S
C1224 H1214 0.930 . S
C1224 C1223 1.400 . S
C1224 C1227 1.386 . S
H1225 C1241 0.930 . S
H1226 C1242 0.931 . S
C1227 H1215 0.929 . S
C1227 C1221 1.390 . S
C1227 C1224 1.386 . S
C1228 C1223 1.490 . S
C1228 C1230 1.395 . S
C1228 C1231 1.403 . S
H1229 C1235 0.930 . S
C1230 H1216 0.930 . S
C1230 C1228 1.395 . S
C1230 C1233 1.403 . S
C1231 C1228 1.403 . S
C1231 C1232 1.524 . S
C1231 C1235 1.400 . S
C1232 H1217 0.960 . S
C1232 H1218 0.960 . S
C1232 H1219 0.960 . S
C1232 C1231 1.524 . S
C1233 C1230 1.403 . S
C1233 C1234 1.392 . S
C1233 C1237 1.495 1_455 S
C1234 C1233 1.392 . S
C1234 C1235 1.385 . S
C1234 C1236 1.478 . S
C1235 H1229 0.930 . S
C1235 C1231 1.400 . S
C1235 C1234 1.385 . S
C1236 C1234 1.478 . S
C1236 C1238 1.381 1_455 S
C1236 C1242 1.383 . S
C1237 C1233 1.495 1_655 S
C1237 H1243 0.959 . S
C1237 H1244 0.961 1_655 S
C1237 H1245 0.960 . S
C1238 C1236 1.381 1_655 S
C1238 C1239 1.394 . S
C1238 H1246 0.930 . S
C1239 C1238 1.394 . S
C1239 C1240 1.383 1_655 S
C1239 H1247 0.929 . S
C1240 C1239 1.383 1_455 S
C1240 C1241 1.377 . S
C1241 H1225 0.930 . S
C1241 C1240 1.377 . S
C1241 C1242 1.379 . S
C1242 H1226 0.931 . S
C1242 C1236 1.383 . S
C1242 C1241 1.379 . S
H1243 C1237 0.959 . S
H1244 C1237 0.961 1_455 S
H1245 C1237 0.960 . S
H1246 C1238 0.930 . S
H1247 C1239 0.929 . S
H1248 C1256 0.929 . S
H1249 C1258 0.930 . S
H1250 C1260 0.930 . S
H1251 C1263 0.929 . S
H1252 C1266 0.930 . S
H1253 C1268 0.960 . S
H1254 C1268 0.960 1_545 S
H1255 C1268 0.960 . S
C1256 H1248 0.929 . S
C1256 C1257 1.377 . S
C1256 C1258 1.384 . S
C1257 C1256 1.377 . S
C1257 C1263 1.390 1_545 S
C1258 H1249 0.930 . S
C1258 C1256 1.384 . S
C1258 C1259 1.372 . S
C1259 C1258 1.372 . S
C1259 C1260 1.400 1_545 S
C1259 C1264 1.490 . S
C1260 H1250 0.930 . S
C1260 C1259 1.400 1_565 S
C1260 C1263 1.386 . S
H1261 C1277 0.930 . S
H1262 C1278 0.931 . S
C1263 H1251 0.929 . S
C1263 C1257 1.390 1_565 S
C1263 C1260 1.386 . S
C1264 C1259 1.490 . S
C1264 C1266 1.395 . S
C1264 C1267 1.402 . S
H1265 C1271 0.931 . S
C1266 H1252 0.930 . S
C1266 C1264 1.395 . S
C1266 C1269 1.403 . S
C1267 C1264 1.402 . S
C1267 C1268 1.524 1_545 S
C1267 C1271 1.400 1_545 S
C1268 H1253 0.960 . S
C1268 H1254 0.960 1_565 S
C1268 H1255 0.960 . S
C1268 C1267 1.524 1_565 S
C1269 C1266 1.403 . S
C1269 C1270 1.392 . S
C1269 C1273 1.495 . S
C1270 C1269 1.392 . S
C1270 C1271 1.384 1_545 S
C1270 C1272 1.478 . S
C1271 H1265 0.931 . S
C1271 C1267 1.400 1_565 S
C1271 C1270 1.384 1_565 S
C1272 C1270 1.478 . S
C1272 C1274 1.381 . S
C1272 C1278 1.383 1_545 S
C1273 C1269 1.495 . S
C1273 H1279 0.959 . S
C1273 H1280 0.961 1_545 S
C1273 H1281 0.960 . S
C1274 C1272 1.381 . S
C1274 C1275 1.394 . S
C1274 H1282 0.930 . S
C1275 C1274 1.394 . S
C1275 C1276 1.413 . S
C1275 H1283 0.929 . S
C1276 C1275 1.413 . S
C1276 C1277 1.348 1_545 S
C1277 H1261 0.930 . S
C1277 C1276 1.348 1_565 S
C1277 C1278 1.379 . S
C1278 H1262 0.931 . S
C1278 C1272 1.383 1_565 S
C1278 C1277 1.379 . S
H1279 C1273 0.959 . S
H1280 C1273 0.961 1_565 S
H1281 C1273 0.960 . S
H1282 C1274 0.930 . S
H1283 C1275 0.929 . S
H1284 C1292 0.929 . S
H1285 C1294 0.930 . S
H1286 C1296 0.930 1_655 S
H1287 C1299 0.909 1_655 S
H1288 C1302 0.930 . S
H1289 C1304 0.960 . S
H1290 C1304 0.960 . S
H1291 C1304 0.960 . S
C1292 H1284 0.929 . S
C1292 C1293 1.377 . S
C1292 C1294 1.384 . S
C1293 C1292 1.377 . S
C1293 C1299 1.410 . S
C1294 H1285 0.930 . S
C1294 C1292 1.384 . S
C1294 C1295 1.372 . S
C1295 C1294 1.372 . S
C1295 C1296 1.400 . S
C1295 C1300 1.490 . S
C1296 H1286 0.930 1_455 S
C1296 C1295 1.400 . S
C1296 C1299 1.387 . S
H1297 C1313 0.930 . S
H1298 C1314 0.931 . S
C1299 H1287 0.909 1_455 S
C1299 C1293 1.410 . S
C1299 C1296 1.387 . S
C1300 C1295 1.490 . S
C1300 C1302 1.395 . S
C1300 C1303 1.403 . S
H1301 C1307 0.930 . S
C1302 H1288 0.930 . S
C1302 C1300 1.395 . S
C1302 C1305 1.403 . S
C1303 C1300 1.403 . S
C1303 C1304 1.524 . S
C1303 C1307 1.400 . S
C1304 H1289 0.960 . S
C1304 H1290 0.960 . S
C1304 H1291 0.960 . S
C1304 C1303 1.524 . S
C1305 C1302 1.403 . S
C1305 C1306 1.392 . S
C1305 C1309 1.495 . S
C1306 C1305 1.392 . S
C1306 C1307 1.385 . S
C1306 C1308 1.478 . S
C1307 H1301 0.930 . S
C1307 C1303 1.400 . S
C1307 C1306 1.385 . S
C1308 C1306 1.478 . S
C1308 C1310 1.381 . S
C1308 C1314 1.383 1_455 S
C1309 C1305 1.495 . S
C1309 H1315 0.959 . S
C1309 H1316 0.961 1_455 S
C1309 H1317 0.960 . S
C1310 C1308 1.381 . S
C1310 C1311 1.394 . S
C1310 H1318 0.930 . S
C1311 C1310 1.394 . S
C1311 C1312 1.383 . S
C1311 H1319 0.929 . S
C1312 C1311 1.383 . S
C1312 C1313 1.377 1_455 S
C1313 H1297 0.930 . S
C1313 C1312 1.377 1_655 S
C1313 C1314 1.379 . S
C1314 H1298 0.931 . S
C1314 C1308 1.383 1_655 S
C1314 C1313 1.379 . S
H1315 C1309 0.959 . S
H1316 C1309 0.961 1_655 S
H1317 C1309 0.960 . S
H1318 C1310 0.930 . S
H1319 C1311 0.929 . S
H1320 C1328 0.929 . S
H1321 C1330 0.930 . S
H1322 C1332 0.930 . S
H1323 C1335 0.929 . S
H1324 C1338 0.930 . S
H1325 C1340 0.960 . S
H1326 C1340 0.960 . S
H1327 C1340 0.960 . S
C1328 H1320 0.929 . S
C1328 C1329 1.386 . S
C1328 C1330 1.384 . S
C1329 C1328 1.386 . S
C1329 C1335 1.382 1_545 S
C1330 H1321 0.930 . S
C1330 C1328 1.384 . S
C1330 C1331 1.372 . S
C1331 C1330 1.372 . S
C1331 C1332 1.400 1_545 S
C1331 C1336 1.491 . S
C1332 H1322 0.930 . S
C1332 C1331 1.400 1_565 S
C1332 C1335 1.386 . S
H1333 C1349 0.930 . S
H1334 C1350 0.931 . S
C1335 H1323 0.929 . S
C1335 C1329 1.382 1_565 S
C1335 C1332 1.386 . S
C1336 C1331 1.491 . S
C1336 C1338 1.381 1_545 S
C1336 C1339 1.417 . S
H1337 C1343 0.930 . S
C1338 H1324 0.930 . S
C1338 C1336 1.381 1_565 S
C1338 C1341 1.403 . S
C1339 C1336 1.417 . S
C1339 C1340 1.524 . S
C1339 C1343 1.400 . S
C1340 H1325 0.960 . S
C1340 H1326 0.960 . S
C1340 H1327 0.960 . S
C1340 C1339 1.524 . S
C1341 C1338 1.403 . S
C1341 C1342 1.392 . S
C1341 C1345 1.495 . S
C1342 C1341 1.392 . S
C1342 C1343 1.385 1_565 S
C1342 C1344 1.478 . S
C1343 H1337 0.930 . S
C1343 C1339 1.400 . S
C1343 C1342 1.385 1_545 S
C1344 C1342 1.478 . S
C1344 C1346 1.381 1_565 S
C1344 C1350 1.383 . S
C1345 C1341 1.495 . S
C1345 H1351 0.959 . S
C1345 H1352 0.961 . S
C1345 H1353 0.960 . S
C1346 C1344 1.381 1_545 S
C1346 C1347 1.394 . S
C1346 H1354 0.930 . S
C1347 C1346 1.394 . S
C1347 C1348 1.372 1_545 S
C1347 H1355 0.929 . S
C1348 C1347 1.372 1_565 S
C1348 C1349 1.389 . S
C1349 H1333 0.930 . S
C1349 C1348 1.389 . S
C1349 C1350 1.379 . S
C1350 H1334 0.931 . S
C1350 C1344 1.383 . S
C1350 C1349 1.379 . S
H1351 C1345 0.959 . S
H1352 C1345 0.961 . S
H1353 C1345 0.960 . S
H1354 C1346 0.930 . S
H1355 C1347 0.929 . S
H1356 C1364 0.929 . S
H1357 C1366 0.930 . S
H1358 C1368 0.930 . S
H1359 C1371 0.929 . S
H1360 C1374 0.930 . S
H1361 C1376 0.960 . S
H1362 C1376 0.960 . S
H1363 C1376 0.960 . S
C1364 H1356 0.929 . S
C1364 C1365 1.377 . S
C1364 C1366 1.384 . S
C1365 C1364 1.377 . S
C1365 C1371 1.390 . S
C1366 H1357 0.930 . S
C1366 C1364 1.384 . S
C1366 C1367 1.372 . S
C1367 C1366 1.372 . S
C1367 C1368 1.400 . S
C1367 C1372 1.490 . S
C1368 H1358 0.930 . S
C1368 C1367 1.400 . S
C1368 C1371 1.386 . S
H1369 C1385 0.930 . S
H1370 C1386 0.931 . S
C1371 H1359 0.929 . S
C1371 C1365 1.390 . S
C1371 C1368 1.386 . S
C1372 C1367 1.490 . S
C1372 C1374 1.395 . S
C1372 C1375 1.400 . S
H1373 C1379 0.930 1_655 S
C1374 H1360 0.930 . S
C1374 C1372 1.395 . S
C1374 C1377 1.403 . S
C1375 C1372 1.400 . S
C1375 C1376 1.527 1_455 S
C1375 C1379 1.399 . S
C1376 H1361 0.960 . S
C1376 H1362 0.960 . S
C1376 H1363 0.960 . S
C1376 C1375 1.527 1_655 S
C1377 C1374 1.403 . S
C1377 C1378 1.392 . S
C1377 C1381 1.495 . S
C1378 C1377 1.392 . S
C1378 C1379 1.385 . S
C1378 C1380 1.478 . S
C1379 H1373 0.930 1_455 S
C1379 C1375 1.399 . S
C1379 C1378 1.385 . S
C1380 C1378 1.478 . S
C1380 C1382 1.381 . S
C1380 C1386 1.383 . S
C1381 C1377 1.495 . S
C1381 H1387 0.959 . S
C1381 H1388 0.961 . S
C1381 H1389 0.960 . S
C1382 C1380 1.381 . S
C1382 C1383 1.394 . S
C1382 H1390 0.930 . S
C1383 C1382 1.394 . S
C1383 C1384 1.383 . S
C1383 H1391 0.929 . S
C1384 C1383 1.383 . S
C1384 C1385 1.377 . S
C1385 H1369 0.930 . S
C1385 C1384 1.377 . S
C1385 C1386 1.379 . S
C1386 H1370 0.931 . S
C1386 C1380 1.383 . S
C1386 C1385 1.379 . S
H1387 C1381 0.959 . S
H1388 C1381 0.961 . S
H1389 C1381 0.960 . S
H1390 C1382 0.930 . S
H1391 C1383 0.929 . S
H1392 C1400 0.929 . S
H1393 C1402 0.930 . S
H1394 C1404 0.930 . S
H1395 C1407 0.929 . S
H1396 C1410 0.930 . S
H1397 C1412 0.960 . S
H1398 C1412 0.960 . S
H1399 C1412 0.967 . S
C1400 H1392 0.929 . S
C1400 C1401 1.388 . S
C1400 C1402 1.384 . S
C1401 C1400 1.388 . S
C1401 C1407 1.380 1_545 S
C1402 H1393 0.930 . S
C1402 C1400 1.384 . S
C1402 C1403 1.372 . S
C1403 C1402 1.372 . S
C1403 C1404 1.400 1_545 S
C1403 C1408 1.490 . S
C1404 H1394 0.930 . S
C1404 C1403 1.400 1_565 S
C1404 C1407 1.386 . S
H1405 C1421 0.930 . S
H1406 C1422 0.931 . S
C1407 H1395 0.929 . S
C1407 C1401 1.380 1_565 S
C1407 C1404 1.386 . S
C1408 C1403 1.490 . S
C1408 C1410 1.395 1_545 S
C1408 C1411 1.403 . S
H1409 C1415 0.930 . S
C1410 H1396 0.930 . S
C1410 C1408 1.395 1_565 S
C1410 C1413 1.403 . S
C1411 C1408 1.403 . S
C1411 C1412 1.524 . S
C1411 C1415 1.400 . S
C1412 H1397 0.960 . S
C1412 H1398 0.960 . S
C1412 H1399 0.967 . S
C1412 C1411 1.524 . S
C1413 C1410 1.403 . S
C1413 C1414 1.392 . S
C1413 C1417 1.495 . S
C1414 C1413 1.392 . S
C1414 C1415 1.385 1_565 S
C1414 C1416 1.477 . S
C1415 H1409 0.930 . S
C1415 C1411 1.400 . S
C1415 C1414 1.385 1_545 S
C1416 C1414 1.477 . S
C1416 C1418 1.359 1_565 S
C1416 C1422 1.404 . S
C1417 C1413 1.495 . S
C1417 H1423 0.959 . S
C1417 H1424 0.961 . S
C1417 H1425 0.960 1_565 S
C1418 C1416 1.359 1_545 S
C1418 C1419 1.394 . S
C1418 H1426 0.930 . S
C1419 C1418 1.394 . S
C1419 C1420 1.385 1_545 S
C1419 H1427 0.929 . S
C1420 C1419 1.385 1_565 S
C1420 C1421 1.376 . S
C1421 H1405 0.930 . S
C1421 C1420 1.376 . S
C1421 C1422 1.379 . S
C1422 H1406 0.931 . S
C1422 C1416 1.404 . S
C1422 C1421 1.379 . S
H1423 C1417 0.959 . S
H1424 C1417 0.961 . S
H1425 C1417 0.960 1_545 S
H1426 C1418 0.930 . S
H1427 C1419 0.929 . S
H1428 C1436 0.929 . S
H1429 C1438 0.930 . S
H1430 C1440 0.930 . S
H1431 C1443 0.929 . S
H1432 C1446 0.930 1_655 S
H1433 C1448 0.960 . S
H1434 C1448 0.960 . S
H1435 C1448 0.960 . S
C1436 H1428 0.929 . S
C1436 C1437 1.377 . S
C1436 C1438 1.384 . S
C1437 C1436 1.377 . S
C1437 C1443 1.390 . S
C1438 H1429 0.930 . S
C1438 C1436 1.384 . S
C1438 C1439 1.372 . S
C1439 C1438 1.372 . S
C1439 C1440 1.400 . S
C1439 C1444 1.490 . S
C1440 H1430 0.930 . S
C1440 C1439 1.400 . S
C1440 C1443 1.386 . S
H1441 C1457 0.930 . S
H1442 C1458 0.931 . S
C1443 H1431 0.929 . S
C1443 C1437 1.390 . S
C1443 C1440 1.386 . S
C1444 C1439 1.490 . S
C1444 C1446 1.395 . S
C1444 C1447 1.403 . S
H1445 C1451 0.930 . S
C1446 H1432 0.930 1_455 S
C1446 C1444 1.395 . S
C1446 C1449 1.403 . S
C1447 C1444 1.403 . S
C1447 C1448 1.524 . S
C1447 C1451 1.400 . S
C1448 H1433 0.960 . S
C1448 H1434 0.960 . S
C1448 H1435 0.960 . S
C1448 C1447 1.524 . S
C1449 C1446 1.403 . S
C1449 C1450 1.392 . S
C1449 C1453 1.495 1_455 S
C1450 C1449 1.392 . S
C1450 C1451 1.385 . S
C1450 C1452 1.478 . S
C1451 H1445 0.930 . S
C1451 C1447 1.400 . S
C1451 C1450 1.385 . S
C1452 C1450 1.478 . S
C1452 C1454 1.381 . S
C1452 C1458 1.383 . S
C1453 C1449 1.495 1_655 S
C1453 H1459 0.959 . S
C1453 H1460 0.961 . S
C1453 H1461 0.960 . S
C1454 C1452 1.381 . S
C1454 C1455 1.394 . S
C1454 H1462 0.930 . S
C1455 C1454 1.394 . S
C1455 C1456 1.383 . S
C1455 H1463 0.929 . S
C1456 C1455 1.383 . S
C1456 C1457 1.377 . S
C1457 H1441 0.930 . S
C1457 C1456 1.377 . S
C1457 C1458 1.379 . S
C1458 H1442 0.931 . S
C1458 C1452 1.383 . S
C1458 C1457 1.379 . S
H1459 C1453 0.959 . S
H1460 C1453 0.961 . S
H1461 C1453 0.960 . S
H1462 C1454 0.930 . S
H1463 C1455 0.929 . S
H1464 C1472 0.929 . S
H1465 C1474 0.930 . S
H1466 C1476 0.930 . S
H1467 C1479 0.929 . S
H1468 C1482 0.930 . S
H1469 C1484 0.960 . S
H1470 C1484 0.960 . S
H1471 C1484 0.960 1_565 S
C1472 H1464 0.929 . S
C1472 C1473 1.392 . S
C1472 C1474 1.384 . S
C1473 C1472 1.392 . S
C1473 C1479 1.376 1_545 S
C1474 H1465 0.930 . S
C1474 C1472 1.384 . S
C1474 C1475 1.372 . S
C1475 C1474 1.372 . S
C1475 C1476 1.400 1_545 S
C1475 C1480 1.490 . S
C1476 H1466 0.930 . S
C1476 C1475 1.400 1_565 S
C1476 C1479 1.386 . S
H1477 C1493 0.930 . S
H1478 C1494 0.931 . S
C1479 H1467 0.929 . S
C1479 C1473 1.376 1_565 S
C1479 C1476 1.386 . S
C1480 C1475 1.490 . S
C1480 C1482 1.395 1_545 S
C1480 C1483 1.403 . S
H1481 C1487 0.930 . S
C1482 H1468 0.930 . S
C1482 C1480 1.395 1_565 S
C1482 C1485 1.403 . S
C1483 C1480 1.403 . S
C1483 C1484 1.524 . S
C1483 C1487 1.400 . S
C1484 H1469 0.960 . S
C1484 H1470 0.960 . S
C1484 H1471 0.960 1_545 S
C1484 C1483 1.524 . S
C1485 C1482 1.403 . S
C1485 C1486 1.392 1_565 S
C1485 C1489 1.495 . S
C1486 C1485 1.392 1_545 S
C1486 C1487 1.386 . S
C1486 C1488 1.477 1_545 S
C1487 H1481 0.930 . S
C1487 C1483 1.400 . S
C1487 C1486 1.386 . S
C1488 C1486 1.477 1_565 S
C1488 C1490 1.368 1_565 S
C1488 C1494 1.395 . S
C1489 C1485 1.495 . S
C1489 H1495 0.959 . S
C1489 H1496 0.961 . S
C1489 H1497 0.960 1_565 S
C1490 C1488 1.368 1_545 S
C1490 C1491 1.394 . S
C1490 H1498 0.930 . S
C1491 C1490 1.394 . S
C1491 C1492 1.381 . S
C1491 H1499 0.929 . S
C1492 C1491 1.381 . S
C1492 C1493 1.379 1_545 S
C1493 H1477 0.930 . S
C1493 C1492 1.379 1_565 S
C1493 C1494 1.379 . S
C1494 H1478 0.931 . S
C1494 C1488 1.395 . S
C1494 C1493 1.379 . S
H1495 C1489 0.959 . S
H1496 C1489 0.961 . S
H1497 C1489 0.960 1_545 S
H1498 C1490 0.930 . S
H1499 C1491 0.929 . S
H1500 C1508 0.929 . S
H1501 C1510 0.930 . S
H1502 C1512 0.930 . S
H1503 C1515 0.929 . S
H1504 C1518 0.945 . S
H1505 C1520 0.960 . S
H1506 C1520 0.960 . S
H1507 C1520 0.960 . S
C1508 H1500 0.929 . S
C1508 C1509 1.377 . S
C1508 C1510 1.384 . S
C1509 C1508 1.377 . S
C1509 C1515 1.390 . S
C1510 H1501 0.930 . S
C1510 C1508 1.384 . S
C1510 C1511 1.372 . S
C1511 C1510 1.372 . S
C1511 C1512 1.400 . S
C1511 C1516 1.490 . S
C1512 H1502 0.930 . S
C1512 C1511 1.400 . S
C1512 C1515 1.386 . S
H1513 C1529 0.930 . S
H1514 C1530 0.931 . S
C1515 H1503 0.929 . S
C1515 C1509 1.390 . S
C1515 C1512 1.386 . S
C1516 C1511 1.490 . S
C1516 C1518 1.379 1_455 S
C1516 C1519 1.403 . S
H1517 C1523 0.930 . S
C1518 H1504 0.945 . S
C1518 C1516 1.379 1_655 S
C1518 C1521 1.404 . S
C1519 C1516 1.403 . S
C1519 C1520 1.524 . S
C1519 C1523 1.400 . S
C1520 H1505 0.960 . S
C1520 H1506 0.960 . S
C1520 H1507 0.960 . S
C1520 C1519 1.524 . S
C1521 C1518 1.404 . S
C1521 C1522 1.392 1_655 S
C1521 C1525 1.495 . S
C1522 C1521 1.392 1_455 S
C1522 C1523 1.385 . S
C1522 C1524 1.478 . S
C1523 H1517 0.930 . S
C1523 C1519 1.400 . S
C1523 C1522 1.385 . S
C1524 C1522 1.478 . S
C1524 C1526 1.381 . S
C1524 C1530 1.383 . S
C1525 C1521 1.495 . S
C1525 H1531 0.959 . S
C1525 H1532 0.961 . S
C1525 H1533 0.960 . S
C1526 C1524 1.381 . S
C1526 C1527 1.394 . S
C1526 H1534 0.930 . S
C1527 C1526 1.394 . S
C1527 C1528 1.383 . S
C1527 H1535 0.929 . S
C1528 C1527 1.383 . S
C1528 C1529 1.377 . S
C1529 H1513 0.930 . S
C1529 C1528 1.377 . S
C1529 C1530 1.379 . S
C1530 H1514 0.931 . S
C1530 C1524 1.383 . S
C1530 C1529 1.379 . S
H1531 C1525 0.959 . S
H1532 C1525 0.961 . S
H1533 C1525 0.960 . S
H1534 C1526 0.930 . S
H1535 C1527 0.929 . S
H1536 C1544 0.929 . S
H1537 C1546 0.930 . S
H1538 C1548 0.930 . S
H1539 C1551 0.929 . S
H1540 C1554 0.930 . S
H1541 C1556 0.960 . S
H1542 C1556 0.960 . S
H1543 C1556 0.960 . S
C1544 H1536 0.929 . S
C1544 C1545 1.380 . S
C1544 C1546 1.384 . S
C1545 C1544 1.380 . S
C1545 C1551 1.387 1_565 S
C1546 H1537 0.930 . S
C1546 C1544 1.384 . S
C1546 C1547 1.380 . S
C1547 C1546 1.380 . S
C1547 C1548 1.392 1_565 S
C1547 C1552 1.490 1_565 S
C1548 H1538 0.930 . S
C1548 C1547 1.392 1_545 S
C1548 C1551 1.386 . S
H1549 C1565 0.930 . S
H1550 C1566 0.931 . S
C1551 H1539 0.929 . S
C1551 C1545 1.387 1_545 S
C1551 C1548 1.386 . S
C1552 C1547 1.490 1_545 S
C1552 C1554 1.393 . S
C1552 C1555 1.404 1_545 S
H1553 C1559 0.930 . S
C1554 H1540 0.930 . S
C1554 C1552 1.393 . S
C1554 C1557 1.403 . S
C1555 C1552 1.404 1_565 S
C1555 C1556 1.524 . S
C1555 C1559 1.400 . S
C1556 H1541 0.960 . S
C1556 H1542 0.960 . S
C1556 H1543 0.960 . S
C1556 C1555 1.524 . S
C1557 C1554 1.403 . S
C1557 C1558 1.392 . S
C1557 C1561 1.495 . S
C1558 C1557 1.392 . S
C1558 C1559 1.385 1_545 S
C1558 C1560 1.478 . S
C1559 H1553 0.930 . S
C1559 C1555 1.400 . S
C1559 C1558 1.385 1_565 S
C1560 C1558 1.478 . S
C1560 C1562 1.381 1_545 S
C1560 C1566 1.383 . S
C1561 C1557 1.495 . S
C1561 H1567 0.959 . S
C1561 H1568 0.961 . S
C1561 H1569 0.960 . S
C1562 C1560 1.381 1_565 S
C1562 C1563 1.394 . S
C1562 H1570 0.930 . S
C1563 C1562 1.394 . S
C1563 C1564 1.383 1_565 S
C1563 H1571 0.929 . S
C1564 C1563 1.383 1_545 S
C1564 C1565 1.377 . S
C1565 H1549 0.930 . S
C1565 C1564 1.377 . S
C1565 C1566 1.379 . S
C1566 H1550 0.931 . S
C1566 C1560 1.383 . S
C1566 C1565 1.379 . S
H1567 C1561 0.959 . S
H1568 C1561 0.961 . S
H1569 C1561 0.960 . S
H1570 C1562 0.930 . S
H1571 C1563 0.929 . S
H1572 C1580 0.929 . S
H1573 C1582 0.930 . S
H1574 C1584 0.930 . S
H1575 C1587 0.929 . S
H1576 C1590 0.930 1_655 S
H1577 C1592 0.960 . S
H1578 C1592 0.960 . S
H1579 C1592 0.960 . S
C1580 H1572 0.929 . S
C1580 C1581 1.377 1_655 S
C1580 C1582 1.384 . S
C1581 C1580 1.377 1_455 S
C1581 C1587 1.390 . S
C1582 H1573 0.930 . S
C1582 C1580 1.384 . S
C1582 C1583 1.372 1_655 S
C1583 C1582 1.372 1_455 S
C1583 C1584 1.400 . S
C1583 C1588 1.490 . S
C1584 H1574 0.930 . S
C1584 C1583 1.400 . S
C1584 C1587 1.386 . S
H1585 C1601 0.930 . S
H1586 C1602 0.931 . S
C1587 H1575 0.929 . S
C1587 C1581 1.390 . S
C1587 C1584 1.386 . S
C1588 C1583 1.490 . S
C1588 C1590 1.395 . S
C1588 C1591 1.403 . S
H1589 C1595 0.930 . S
C1590 H1576 0.930 1_455 S
C1590 C1588 1.395 . S
C1590 C1593 1.403 . S
C1591 C1588 1.403 . S
C1591 C1592 1.524 . S
C1591 C1595 1.400 . S
C1592 H1577 0.960 . S
C1592 H1578 0.960 . S
C1592 H1579 0.960 . S
C1592 C1591 1.524 . S
C1593 C1590 1.403 . S
C1593 C1594 1.392 . S
C1593 C1597 1.495 1_455 S
C1594 C1593 1.392 . S
C1594 C1595 1.385 . S
C1594 C1596 1.478 . S
C1595 H1589 0.930 . S
C1595 C1591 1.400 . S
C1595 C1594 1.385 . S
C1596 C1594 1.478 . S
C1596 C1598 1.381 . S
C1596 C1602 1.383 . S
C1597 C1593 1.495 1_655 S
C1597 H1603 0.959 . S
C1597 H1604 0.961 . S
C1597 H1605 0.960 . S
C1598 C1596 1.381 . S
C1598 C1599 1.394 . S
C1598 H1606 0.930 1_455 S
C1599 C1598 1.394 . S
C1599 C1600 1.383 . S
C1599 H1607 0.929 1_455 S
C1600 C1599 1.383 . S
C1600 C1601 1.377 . S
C1601 H1585 0.930 . S
C1601 C1600 1.377 . S
C1601 C1602 1.379 . S
C1602 H1586 0.931 . S
C1602 C1596 1.383 . S
C1602 C1601 1.379 . S
H1603 C1597 0.959 . S
H1604 C1597 0.961 . S
H1605 C1597 0.960 . S
H1606 C1598 0.930 1_655 S
H1607 C1599 0.929 1_655 S
H1608 C1616 0.929 . S
H1609 C1618 0.930 . S
H1610 C1620 0.930 . S
H1611 C1623 0.929 . S
H1612 C1626 0.930 . S
H1613 C1628 0.960 . S
H1614 C1628 0.960 . S
H1615 C1628 0.960 . S
C1616 H1608 0.929 . S
C1616 C1617 1.377 . S
C1616 C1618 1.384 . S
C1617 C1616 1.377 . S
C1617 C1623 1.390 1_545 S
C1618 H1609 0.930 . S
C1618 C1616 1.384 . S
C1618 C1619 1.372 . S
C1619 C1618 1.372 . S
C1619 C1620 1.400 1_545 S
C1619 C1624 1.490 . S
C1620 H1610 0.930 . S
C1620 C1619 1.400 1_565 S
C1620 C1623 1.386 . S
H1621 C1637 0.930 . S
H1622 C1638 0.931 . S
C1623 H1611 0.929 . S
C1623 C1617 1.390 1_565 S
C1623 C1620 1.386 . S
C1624 C1619 1.490 . S
C1624 C1626 1.395 . S
C1624 C1627 1.403 1_545 S
H1625 C1631 0.930 . S
C1626 H1612 0.930 . S
C1626 C1624 1.395 . S
C1626 C1629 1.403 . S
C1627 C1624 1.403 1_565 S
C1627 C1628 1.524 . S
C1627 C1631 1.400 . S
C1628 H1613 0.960 . S
C1628 H1614 0.960 . S
C1628 H1615 0.960 . S
C1628 C1627 1.524 . S
C1629 C1626 1.403 . S
C1629 C1630 1.392 . S
C1629 C1633 1.495 . S
C1630 C1629 1.392 . S
C1630 C1631 1.385 1_545 S
C1630 C1632 1.478 . S
C1631 H1625 0.930 . S
C1631 C1627 1.400 . S
C1631 C1630 1.385 1_565 S
C1632 C1630 1.478 . S
C1632 C1634 1.381 . S
C1632 C1638 1.383 1_545 S
C1633 C1629 1.495 . S
C1633 H1639 0.959 . S
C1633 H1640 0.961 . S
C1633 H1641 0.960 . S
C1634 C1632 1.381 . S
C1634 C1635 1.394 . S
C1634 H1642 0.930 . S
C1635 C1634 1.394 . S
C1635 C1636 1.383 . S
C1635 H1643 0.929 . S
C1636 C1635 1.383 . S
C1636 C1637 1.377 1_545 S
C1637 H1621 0.930 . S
C1637 C1636 1.377 1_565 S
C1637 C1638 1.379 . S
C1638 H1622 0.931 . S
C1638 C1632 1.383 1_565 S
C1638 C1637 1.379 . S
H1639 C1633 0.959 . S
H1640 C1633 0.961 . S
H1641 C1633 0.960 . S
H1642 C1634 0.930 . S
H1643 C1635 0.929 . S
H1644 C1652 0.929 . S
H1645 C1654 0.930 . S
H1646 C1656 0.930 1_655 S
H1647 C1659 0.894 1_655 S
H1648 C1662 0.930 . S
H1649 C1664 0.960 . S
H1650 C1664 0.960 . S
H1651 C1664 0.960 . S
C1652 H1644 0.929 . S
C1652 C1653 1.377 . S
C1652 C1654 1.384 . S
C1653 C1652 1.377 . S
C1653 C1659 1.423 . S
C1654 H1645 0.930 . S
C1654 C1652 1.384 . S
C1654 C1655 1.372 . S
C1655 C1654 1.372 . S
C1655 C1656 1.400 . S
C1655 C1660 1.490 . S
C1656 H1646 0.930 1_455 S
C1656 C1655 1.400 . S
C1656 C1659 1.389 . S
H1657 C1673 0.930 1_655 S
H1658 C1674 0.931 1_655 S
C1659 H1647 0.894 1_455 S
C1659 C1653 1.423 . S
C1659 C1656 1.389 . S
C1660 C1655 1.490 . S
C1660 C1662 1.395 . S
C1660 C1663 1.403 . S
H1661 C1667 0.930 . S
C1662 H1648 0.930 . S
C1662 C1660 1.395 . S
C1662 C1665 1.403 . S
C1663 C1660 1.403 . S
C1663 C1664 1.524 . S
C1663 C1667 1.400 . S
C1664 H1649 0.960 . S
C1664 H1650 0.960 . S
C1664 H1651 0.960 . S
C1664 C1663 1.524 . S
C1665 C1662 1.403 . S
C1665 C1666 1.392 . S
C1665 C1669 1.495 . S
C1666 C1665 1.392 . S
C1666 C1667 1.385 . S
C1666 C1668 1.478 . S
C1667 H1661 0.930 . S
C1667 C1663 1.400 . S
C1667 C1666 1.385 . S
C1668 C1666 1.478 . S
C1668 C1670 1.381 . S
C1668 C1674 1.383 . S
C1669 C1665 1.495 . S
C1669 H1675 0.959 . S
C1669 H1676 0.961 . S
C1669 H1677 0.960 . S
C1670 C1668 1.381 . S
C1670 C1671 1.394 . S
C1670 H1678 0.930 . S
C1671 C1670 1.394 . S
C1671 C1672 1.383 . S
C1671 H1679 0.929 . S
C1672 C1671 1.383 . S
C1672 C1673 1.377 . S
C1673 H1657 0.930 1_455 S
C1673 C1672 1.377 . S
C1673 C1674 1.379 . S
C1674 H1658 0.931 1_455 S
C1674 C1668 1.383 . S
C1674 C1673 1.379 . S
H1675 C1669 0.959 . S
H1676 C1669 0.961 . S
H1677 C1669 0.960 . S
H1678 C1670 0.930 . S
H1679 C1671 0.929 . S
H1680 C1688 0.929 . S
H1681 C1690 0.930 . S
H1682 C1692 0.930 . S
H1683 C1695 0.929 . S
H1684 C1698 0.930 . S
H1685 C1700 0.960 . S
H1686 C1700 0.960 . S
H1687 C1700 0.960 . S
C1688 H1680 0.929 . S
C1688 C1689 1.373 1_565 S
C1688 C1690 1.384 . S
C1689 C1688 1.373 1_545 S
C1689 C1695 1.395 . S
C1690 H1681 0.930 . S
C1690 C1688 1.384 . S
C1690 C1691 1.369 1_565 S
C1691 C1690 1.369 1_545 S
C1691 C1692 1.403 . S
C1691 C1696 1.491 . S
C1692 H1682 0.930 . S
C1692 C1691 1.403 . S
C1692 C1695 1.386 . S
H1693 C1709 0.930 . S
H1694 C1710 0.931 . S
C1695 H1683 0.929 . S
C1695 C1689 1.395 . S
C1695 C1692 1.386 . S
C1696 C1691 1.491 . S
C1696 C1698 1.395 . S
C1696 C1699 1.403 1_545 S
H1697 C1703 0.930 . S
C1698 H1684 0.930 . S
C1698 C1696 1.395 . S
C1698 C1701 1.403 . S
C1699 C1696 1.403 1_565 S
C1699 C1700 1.524 . S
C1699 C1703 1.400 . S
C1700 H1685 0.960 . S
C1700 H1686 0.960 . S
C1700 H1687 0.960 . S
C1700 C1699 1.524 . S
C1701 C1698 1.403 . S
C1701 C1702 1.392 . S
C1701 C1705 1.495 . S
C1702 C1701 1.392 . S
C1702 C1703 1.385 1_545 S
C1702 C1704 1.478 . S
C1703 H1697 0.930 . S
C1703 C1699 1.400 . S
C1703 C1702 1.385 1_565 S
C1704 C1702 1.478 . S
C1704 C1706 1.381 1_545 S
C1704 C1710 1.383 . S
C1705 C1701 1.495 . S
C1705 H1711 0.959 . S
C1705 H1712 0.961 . S
C1705 H1713 0.960 . S
C1706 C1704 1.381 1_565 S
C1706 C1707 1.394 . S
C1706 H1714 0.930 . S
C1707 C1706 1.394 . S
C1707 C1708 1.383 1_565 S
C1707 H1715 0.929 . S
C1708 C1707 1.383 1_545 S
C1708 C1709 1.377 . S
C1709 H1693 0.930 . S
C1709 C1708 1.377 . S
C1709 C1710 1.379 . S
C1710 H1694 0.931 . S
C1710 C1704 1.383 . S
C1710 C1709 1.379 . S
H1711 C1705 0.959 . S
H1712 C1705 0.961 . S
H1713 C1705 0.960 . S
H1714 C1706 0.930 . S
H1715 C1707 0.929 . S
H1716 C1724 0.929 . S
H1717 C1726 0.930 . S
H1718 C1728 0.930 . S
H1719 C1731 0.929 . S
H1720 C1734 0.930 . S
H1721 C1736 0.960 . S
H1722 C1736 0.960 . S
H1723 C1736 0.960 . S
C1724 H1716 0.929 . S
C1724 C1725 1.379 . S
C1724 C1726 1.384 . S
C1725 C1724 1.379 . S
C1725 C1731 1.388 1_545 S
C1726 H1717 0.930 . S
C1726 C1724 1.384 . S
C1726 C1727 1.374 . S
C1727 C1726 1.374 . S
C1727 C1728 1.398 1_545 S
C1727 C1732 1.490 1_545 S
C1728 H1718 0.930 . S
C1728 C1727 1.398 1_565 S
C1728 C1731 1.386 . S
H1729 C1745 0.930 . S
H1730 C1746 0.931 . S
C1731 H1719 0.929 . S
C1731 C1725 1.388 1_565 S
C1731 C1728 1.386 . S
C1732 C1727 1.490 1_565 S
C1732 C1734 1.397 . S
C1732 C1735 1.400 1_565 S
H1733 C1739 0.930 . S
C1734 H1720 0.930 . S
C1734 C1732 1.397 . S
C1734 C1737 1.403 . S
C1735 C1732 1.400 1_545 S
C1735 C1736 1.524 . S
C1735 C1739 1.400 . S
C1736 H1721 0.960 . S
C1736 H1722 0.960 . S
C1736 H1723 0.960 . S
C1736 C1735 1.524 . S
C1737 C1734 1.403 . S
C1737 C1738 1.392 . S
C1737 C1741 1.495 . S
C1738 C1737 1.392 . S
C1738 C1739 1.385 1_565 S
C1738 C1740 1.478 . S
C1739 H1733 0.930 . S
C1739 C1735 1.400 . S
C1739 C1738 1.385 1_545 S
C1740 C1738 1.478 . S
C1740 C1742 1.381 1_565 S
C1740 C1746 1.383 . S
C1741 C1737 1.495 . S
C1741 H1747 0.959 . S
C1741 H1748 0.961 . S
C1741 H1749 0.960 . S
C1742 C1740 1.381 1_545 S
C1742 C1743 1.394 . S
C1742 H1750 0.930 . S
C1743 C1742 1.394 . S
C1743 C1744 1.383 1_545 S
C1743 H1751 0.929 . S
C1744 C1743 1.383 1_565 S
C1744 C1745 1.377 . S
C1745 H1729 0.930 . S
C1745 C1744 1.377 . S
C1745 C1746 1.379 . S
C1746 H1730 0.931 . S
C1746 C1740 1.383 . S
C1746 C1745 1.379 . S
H1747 C1741 0.959 . S
H1748 C1741 0.961 . S
H1749 C1741 0.960 . S
H1750 C1742 0.930 . S
H1751 C1743 0.929 . S
H1752 C1760 0.929 . S
H1753 C1762 0.930 . S
H1754 C1764 0.930 . S
H1755 C1767 0.929 . S
H1756 C1770 0.930 . S
H1757 C1772 0.960 . S
H1758 C1772 0.960 . S
H1759 C1772 0.960 . S
C1760 H1752 0.929 . S
C1760 C1761 1.377 . S
C1760 C1762 1.384 . S
C1761 C1760 1.377 . S
C1761 C1767 1.390 1_455 S
C1762 H1753 0.930 . S
C1762 C1760 1.384 . S
C1762 C1763 1.372 . S
C1763 C1762 1.372 . S
C1763 C1764 1.400 1_455 S
C1763 C1768 1.490 . S
C1764 H1754 0.930 . S
C1764 C1763 1.400 1_655 S
C1764 C1767 1.386 . S
H1765 C1781 0.930 . S
H1766 C1782 0.931 . S
C1767 H1755 0.929 . S
C1767 C1761 1.390 1_655 S
C1767 C1764 1.386 . S
C1768 C1763 1.490 . S
C1768 C1770 1.395 . S
C1768 C1771 1.403 1_455 S
H1769 C1775 0.930 . S
C1770 H1756 0.930 . S
C1770 C1768 1.395 . S
C1770 C1773 1.403 . S
C1771 C1768 1.403 1_655 S
C1771 C1772 1.524 . S
C1771 C1775 1.400 . S
C1772 H1757 0.960 . S
C1772 H1758 0.960 . S
C1772 H1759 0.960 . S
C1772 C1771 1.524 . S
C1773 C1770 1.403 . S
C1773 C1774 1.392 . S
C1773 C1777 1.495 . S
C1774 C1773 1.392 . S
C1774 C1775 1.385 1_455 S
C1774 C1776 1.478 . S
C1775 H1769 0.930 . S
C1775 C1771 1.400 . S
C1775 C1774 1.385 1_655 S
C1776 C1774 1.478 . S
C1776 C1778 1.381 . S
C1776 C1782 1.383 1_455 S
C1777 C1773 1.495 . S
C1777 H1783 0.959 . S
C1777 H1784 0.961 . S
C1777 H1785 0.960 . S
C1778 C1776 1.381 . S
C1778 C1779 1.394 . S
C1778 H1786 0.930 . S
C1779 C1778 1.394 . S
C1779 C1780 1.383 . S
C1779 H1787 0.929 . S
C1780 C1779 1.383 . S
C1780 C1781 1.377 1_455 S
C1781 H1765 0.930 . S
C1781 C1780 1.377 1_655 S
C1781 C1782 1.379 . S
C1782 H1766 0.931 . S
C1782 C1776 1.383 1_655 S
C1782 C1781 1.379 . S
H1783 C1777 0.959 . S
H1784 C1777 0.961 . S
H1785 C1777 0.960 . S
H1786 C1778 0.930 . S
H1787 C1779 0.929 . S
H1788 C1796 0.929 . S
H1789 C1798 0.930 . S
H1790 C1800 0.930 . S
H1791 C1803 0.929 . S
H1792 C1806 0.930 . S
H1793 C1808 0.960 . S
H1794 C1808 0.960 . S
H1795 C1808 0.960 . S
C1796 H1788 0.929 . S
C1796 C1797 1.376 1_545 S
C1796 C1798 1.384 . S
C1797 C1796 1.376 1_565 S
C1797 C1803 1.391 . S
C1798 H1789 0.930 . S
C1798 C1796 1.384 . S
C1798 C1799 1.373 . S
C1799 C1798 1.373 . S
C1799 C1800 1.398 1_545 S
C1799 C1804 1.490 . S
C1800 H1790 0.930 . S
C1800 C1799 1.398 1_565 S
C1800 C1803 1.386 . S
H1801 C1817 0.935 . S
H1802 C1818 0.926 1_565 S
C1803 H1791 0.929 . S
C1803 C1797 1.391 . S
C1803 C1800 1.386 . S
C1804 C1799 1.490 . S
C1804 C1806 1.395 . S
C1804 C1807 1.403 1_545 S
H1805 C1811 0.930 . S
C1806 H1792 0.930 . S
C1806 C1804 1.395 . S
C1806 C1809 1.403 . S
C1807 C1804 1.403 1_565 S
C1807 C1808 1.524 . S
C1807 C1811 1.400 . S
C1808 H1793 0.960 . S
C1808 H1794 0.960 . S
C1808 H1795 0.960 . S
C1808 C1807 1.524 . S
C1809 C1806 1.403 . S
C1809 C1810 1.392 . S
C1809 C1813 1.495 . S
C1810 C1809 1.392 . S
C1810 C1811 1.385 1_545 S
C1810 C1812 1.478 . S
C1811 H1805 0.930 . S
C1811 C1807 1.400 . S
C1811 C1810 1.385 1_565 S
C1812 C1810 1.478 . S
C1812 C1814 1.381 . S
C1812 C1818 1.390 . S
C1813 C1809 1.495 . S
C1813 H1819 0.959 . S
C1813 H1820 0.961 . S
C1813 H1821 0.960 . S
C1814 C1812 1.381 . S
C1814 C1815 1.394 . S
C1814 H1822 0.930 . S
C1815 C1814 1.394 . S
C1815 C1816 1.383 . S
C1815 H1823 0.929 . S
C1816 C1815 1.383 . S
C1816 C1817 1.374 1_545 S
C1817 H1801 0.935 . S
C1817 C1816 1.374 1_565 S
C1817 C1818 1.377 1_565 S
C1818 H1802 0.926 1_545 S
C1818 C1812 1.390 . S
C1818 C1817 1.377 1_545 S
H1819 C1813 0.959 . S
H1820 C1813 0.961 . S
H1821 C1813 0.960 . S
H1822 C1814 0.930 . S
H1823 C1815 0.929 . S
H1824 C1832 0.929 . S
H1825 C1834 0.930 . S
H1826 C1836 0.930 . S
H1827 C1839 0.929 . S
H1828 C1842 0.930 . S
H1829 C1844 0.960 . S
H1830 C1844 0.960 . S
H1831 C1844 0.960 . S
C1832 H1824 0.929 . S
C1832 C1833 1.377 . S
C1832 C1834 1.384 . S
C1833 C1832 1.377 . S
C1833 C1839 1.390 . S
C1834 H1825 0.930 . S
C1834 C1832 1.384 . S
C1834 C1835 1.372 . S
C1835 C1834 1.372 . S
C1835 C1836 1.400 . S
C1835 C1840 1.490 . S
C1836 H1826 0.930 . S
C1836 C1835 1.400 . S
C1836 C1839 1.386 . S
H1837 C1853 0.930 . S
H1838 C1854 0.931 . S
C1839 H1827 0.929 . S
C1839 C1833 1.390 . S
C1839 C1836 1.386 . S
C1840 C1835 1.490 . S
C1840 C1842 1.395 1_455 S
C1840 C1843 1.403 . S
H1841 C1847 0.930 . S
C1842 H1828 0.930 . S
C1842 C1840 1.395 1_655 S
C1842 C1845 1.403 . S
C1843 C1840 1.403 . S
C1843 C1844 1.524 . S
C1843 C1847 1.400 . S
C1844 H1829 0.960 . S
C1844 H1830 0.960 . S
C1844 H1831 0.960 . S
C1844 C1843 1.524 . S
C1845 C1842 1.403 . S
C1845 C1846 1.392 1_655 S
C1845 C1849 1.495 . S
C1846 C1845 1.392 1_455 S
C1846 C1847 1.385 . S
C1846 C1848 1.478 . S
C1847 H1841 0.930 . S
C1847 C1843 1.400 . S
C1847 C1846 1.385 . S
C1848 C1846 1.478 . S
C1848 C1850 1.381 . S
C1848 C1854 1.383 1_455 S
C1849 C1845 1.495 . S
C1849 H1855 0.959 . S
C1849 H1856 0.961 . S
C1849 H1857 0.960 . S
C1850 C1848 1.381 . S
C1850 C1851 1.394 . S
C1850 H1858 0.930 . S
C1851 C1850 1.394 . S
C1851 C1852 1.383 . S
C1851 H1859 0.929 . S
C1852 C1851 1.383 . S
C1852 C1853 1.377 1_455 S
C1853 H1837 0.930 . S
C1853 C1852 1.377 1_655 S
C1853 C1854 1.379 . S
C1854 H1838 0.931 . S
C1854 C1848 1.383 1_655 S
C1854 C1853 1.379 . S
H1855 C1849 0.959 . S
H1856 C1849 0.961 . S
H1857 C1849 0.960 . S
H1858 C1850 0.930 . S
H1859 C1851 0.929 . S
H1860 C1868 0.929 . S
H1861 C1870 0.930 . S
H1862 C1872 0.930 . S
H1863 C1875 0.929 . S
H1864 C1878 0.933 . S
H1865 C1880 0.960 . S
H1866 C1880 0.960 . S
H1867 C1880 0.960 1_545 S
C1868 H1860 0.929 . S
C1868 C1869 1.350 1_565 S
C1868 C1870 1.384 . S
C1869 C1868 1.350 1_545 S
C1869 C1875 1.416 . S
C1870 H1861 0.930 . S
C1870 C1868 1.384 . S
C1870 C1871 1.375 . S
C1871 C1870 1.375 . S
C1871 C1872 1.396 1_565 S
C1871 C1876 1.490 . S
C1872 H1862 0.930 . S
C1872 C1871 1.396 1_545 S
C1872 C1875 1.386 . S
H1873 C1889 0.930 . S
H1874 C1890 0.931 . S
C1875 H1863 0.929 . S
C1875 C1869 1.416 . S
C1875 C1872 1.386 . S
C1876 C1871 1.490 . S
C1876 C1878 1.393 1_565 S
C1876 C1879 1.403 . S
H1877 C1883 0.933 . S
C1878 H1864 0.933 . S
C1878 C1876 1.393 1_545 S
C1878 C1881 1.405 . S
C1879 C1876 1.403 . S
C1879 C1880 1.524 . S
C1879 C1883 1.402 . S
C1880 H1865 0.960 . S
C1880 H1866 0.960 . S
C1880 H1867 0.960 1_565 S
C1880 C1879 1.524 . S
C1881 C1878 1.405 . S
C1881 C1882 1.393 . S
C1881 C1885 1.495 . S
C1882 C1881 1.393 . S
C1882 C1883 1.383 1_545 S
C1882 C1884 1.478 . S
C1883 H1877 0.933 . S
C1883 C1879 1.402 . S
C1883 C1882 1.383 1_565 S
C1884 C1882 1.478 . S
C1884 C1886 1.381 1_545 S
C1884 C1890 1.383 . S
C1885 C1881 1.495 . S
C1885 H1891 0.959 . S
C1885 H1892 0.961 . S
C1885 H1893 0.960 1_545 S
C1886 C1884 1.381 1_565 S
C1886 C1887 1.394 . S
C1886 H1894 0.930 . S
C1887 C1886 1.394 . S
C1887 C1888 1.383 1_565 S
C1887 H1895 0.929 . S
C1888 C1887 1.383 1_545 S
C1888 C1889 1.377 . S
C1889 H1873 0.930 . S
C1889 C1888 1.377 . S
C1889 C1890 1.379 . S
C1890 H1874 0.931 . S
C1890 C1884 1.383 . S
C1890 C1889 1.379 . S
H1891 C1885 0.959 . S
H1892 C1885 0.961 . S
H1893 C1885 0.960 1_565 S
H1894 C1886 0.930 . S
H1895 C1887 0.929 . S
H1896 C1904 0.929 . S
H1897 C1906 0.930 . S
H1898 C1908 0.930 . S
H1899 C1911 0.918 1_655 S
H1900 C1914 0.941 . S
H1901 C1916 0.960 . S
H1902 C1916 0.960 . S
H1903 C1916 0.960 . S
C1904 H1896 0.929 . S
C1904 C1905 1.377 . S
C1904 C1906 1.384 . S
C1905 C1904 1.377 . S
C1905 C1911 1.402 . S
C1906 H1897 0.930 . S
C1906 C1904 1.384 . S
C1906 C1907 1.372 . S
C1907 C1906 1.372 . S
C1907 C1908 1.399 1_455 S
C1907 C1912 1.490 . S
C1908 H1898 0.930 . S
C1908 C1907 1.399 1_655 S
C1908 C1911 1.385 1_655 S
H1909 C1925 0.930 . S
H1910 C1926 0.931 . S
C1911 H1899 0.918 1_455 S
C1911 C1905 1.402 . S
C1911 C1908 1.385 1_455 S
C1912 C1907 1.490 . S
C1912 C1914 1.395 . S
C1912 C1915 1.403 . S
H1913 C1919 0.930 . S
C1914 H1900 0.941 . S
C1914 C1912 1.395 . S
C1914 C1917 1.403 . S
C1915 C1912 1.403 . S
C1915 C1916 1.524 . S
C1915 C1919 1.400 . S
C1916 H1901 0.960 . S
C1916 H1902 0.960 . S
C1916 H1903 0.960 . S
C1916 C1915 1.524 . S
C1917 C1914 1.403 . S
C1917 C1918 1.392 . S
C1917 C1921 1.495 1_455 S
C1918 C1917 1.392 . S
C1918 C1919 1.385 . S
C1918 C1920 1.478 . S
C1919 H1913 0.930 . S
C1919 C1915 1.400 . S
C1919 C1918 1.385 . S
C1920 C1918 1.478 . S
C1920 C1922 1.381 . S
C1920 C1926 1.383 1_455 S
C1921 C1917 1.495 1_655 S
C1921 H1927 0.959 . S
C1921 H1928 0.961 . S
C1921 H1929 0.960 1_655 S
C1922 C1920 1.381 . S
C1922 C1923 1.394 . S
C1922 H1930 0.930 . S
C1923 C1922 1.394 . S
C1923 C1924 1.383 . S
C1923 H1931 0.929 . S
C1924 C1923 1.383 . S
C1924 C1925 1.377 1_455 S
C1925 H1909 0.930 . S
C1925 C1924 1.377 1_655 S
C1925 C1926 1.379 . S
C1926 H1910 0.931 . S
C1926 C1920 1.383 1_655 S
C1926 C1925 1.379 . S
H1927 C1921 0.959 . S
H1928 C1921 0.961 . S
H1929 C1921 0.960 1_455 S
H1930 C1922 0.930 . S
H1931 C1923 0.929 . S
H1932 C1940 0.929 . S
H1933 C1942 0.930 . S
H1934 C1944 0.929 1_565 S
H1935 C1947 0.929 . S
H1936 C1950 0.930 . S
H1937 C1952 0.960 . S
H1938 C1952 0.960 . S
H1939 C1952 0.960 . S
C1940 H1932 0.929 . S
C1940 C1941 1.377 . S
C1940 C1942 1.385 . S
C1941 C1940 1.377 . S
C1941 C1947 1.390 . S
C1942 H1933 0.930 . S
C1942 C1940 1.385 . S
C1942 C1943 1.373 . S
C1943 C1942 1.373 . S
C1943 C1944 1.399 . S
C1943 C1948 1.492 . S
C1944 H1934 0.929 1_545 S
C1944 C1943 1.399 . S
C1944 C1947 1.386 . S
H1945 C1961 0.930 . S
H1946 C1962 0.931 . S
C1947 H1935 0.929 . S
C1947 C1941 1.390 . S
C1947 C1944 1.386 . S
C1948 C1943 1.492 . S
C1948 C1950 1.395 . S
C1948 C1951 1.403 1_545 S
H1949 C1955 0.930 . S
C1950 H1936 0.930 . S
C1950 C1948 1.395 . S
C1950 C1953 1.403 . S
C1951 C1948 1.403 1_565 S
C1951 C1952 1.524 . S
C1951 C1955 1.400 . S
C1952 H1937 0.960 . S
C1952 H1938 0.960 . S
C1952 H1939 0.960 . S
C1952 C1951 1.524 . S
C1953 C1950 1.403 . S
C1953 C1954 1.392 . S
C1953 C1957 1.495 . S
C1954 C1953 1.392 . S
C1954 C1955 1.385 1_545 S
C1954 C1956 1.478 . S
C1955 H1949 0.930 . S
C1955 C1951 1.400 . S
C1955 C1954 1.385 1_565 S
C1956 C1954 1.478 . S
C1956 C1958 1.381 . S
C1956 C1962 1.383 . S
C1957 C1953 1.495 . S
C1957 H1963 0.959 . S
C1957 H1964 0.961 . S
C1957 H1965 0.960 . S
C1958 C1956 1.381 . S
C1958 C1959 1.398 . S
C1958 H1966 0.930 . S
C1959 C1958 1.398 . S
C1959 C1960 1.387 . S
C1959 H1967 0.923 1_545 S
C1960 C1959 1.387 . S
C1960 C1961 1.377 . S
C1961 H1945 0.930 . S
C1961 C1960 1.377 . S
C1961 C1962 1.379 . S
C1962 H1946 0.931 . S
C1962 C1956 1.383 . S
C1962 C1961 1.379 . S
H1963 C1957 0.959 . S
H1964 C1957 0.961 . S
H1965 C1957 0.960 . S
H1966 C1958 0.930 . S
H1967 C1959 0.923 1_565 S
H1968 C1976 0.929 . S
H1969 C1978 0.930 . S
H1970 C1980 0.930 . S
H1971 C1983 0.929 . S
H1972 C1986 0.930 . S
H1973 C1988 0.960 . S
H1974 C1988 0.960 . S
H1975 C1988 0.960 . S
C1976 H1968 0.929 . S
C1976 C1977 1.377 1_655 S
C1976 C1978 1.384 . S
C1977 C1976 1.377 1_455 S
C1977 C1983 1.390 . S
C1978 H1969 0.930 . S
C1978 C1976 1.384 . S
C1978 C1979 1.372 1_655 S
C1979 C1978 1.372 1_455 S
C1979 C1980 1.400 . S
C1979 C1984 1.490 . S
C1980 H1970 0.930 . S
C1980 C1979 1.400 . S
C1980 C1983 1.386 . S
H1981 C1997 0.930 . S
H1982 C1998 0.931 . S
C1983 H1971 0.929 . S
C1983 C1977 1.390 . S
C1983 C1980 1.386 . S
C1984 C1979 1.490 . S
C1984 C1986 1.395 1_455 S
C1984 C1987 1.403 . S
H1985 C1991 0.930 . S
C1986 H1972 0.930 . S
C1986 C1984 1.395 1_655 S
C1986 C1989 1.403 . S
C1987 C1984 1.403 . S
C1987 C1988 1.524 . S
C1987 C1991 1.400 . S
C1988 H1973 0.960 . S
C1988 H1974 0.960 . S
C1988 H1975 0.960 . S
C1988 C1987 1.524 . S
C1989 C1986 1.403 . S
C1989 C1990 1.392 1_655 S
C1989 C1993 1.495 . S
C1990 C1989 1.392 1_455 S
C1990 C1991 1.385 . S
C1990 C1992 1.478 . S
C1991 H1985 0.930 . S
C1991 C1987 1.400 . S
C1991 C1990 1.385 . S
C1992 C1990 1.478 . S
C1992 C1994 1.381 1_455 S
C1992 C1998 1.383 . S
C1993 C1989 1.495 . S
C1993 H1999 0.959 . S
C1993 H2000 0.961 . S
C1993 H2001 0.960 . S
C1994 C1992 1.381 1_655 S
C1994 C1995 1.394 . S
C1994 H2002 0.930 . S
C1995 C1994 1.394 . S
C1995 C1996 1.383 1_655 S
C1995 H2003 0.929 . S
C1996 C1995 1.383 1_455 S
C1996 C1997 1.377 . S
C1997 H1981 0.930 . S
C1997 C1996 1.377 . S
C1997 C1998 1.379 . S
C1998 H1982 0.931 . S
C1998 C1992 1.383 . S
C1998 C1997 1.379 . S
H1999 C1993 0.959 . S
H2000 C1993 0.961 . S
H2001 C1993 0.960 . S
H2002 C1994 0.930 . S
H2003 C1995 0.929 . S
H2004 C2012 0.929 . S
H2005 C2014 0.930 . S
H2006 C2016 0.930 . S
H2007 C2019 0.929 . S
H2008 C2022 0.930 . S
H2009 C2024 0.960 . S
H2010 C2024 0.960 . S
H2011 C2024 0.960 . S
C2012 H2004 0.929 . S
C2012 C2013 1.377 . S
C2012 C2014 1.384 . S
C2013 C2012 1.377 . S
C2013 C2019 1.390 1_554 S
C2014 H2005 0.930 . S
C2014 C2012 1.384 . S
C2014 C2015 1.372 . S
C2015 C2014 1.372 . S
C2015 C2016 1.400 1_554 S
C2015 C2020 1.490 . S
C2016 H2006 0.930 . S
C2016 C2015 1.400 1_556 S
C2016 C2019 1.386 . S
H2017 C2033 0.930 . S
H2018 C2034 0.931 . S
C2019 H2007 0.929 . S
C2019 C2013 1.390 1_556 S
C2019 C2016 1.386 . S
C2020 C2015 1.490 . S
C2020 C2022 1.395 . S
C2020 C2023 1.403 1_554 S
H2021 C2027 0.930 . S
C2022 H2008 0.930 . S
C2022 C2020 1.395 . S
C2022 C2025 1.403 . S
C2023 C2020 1.403 1_556 S
C2023 C2024 1.524 . S
C2023 C2027 1.400 . S
C2024 H2009 0.960 . S
C2024 H2010 0.960 . S
C2024 H2011 0.960 . S
C2024 C2023 1.524 . S
C2025 C2022 1.403 . S
C2025 C2026 1.392 . S
C2025 C2029 1.495 . S
C2026 C2025 1.392 . S
C2026 C2027 1.385 1_554 S
C2026 C2028 1.478 . S
C2027 H2021 0.930 . S
C2027 C2023 1.400 . S
C2027 C2026 1.385 1_556 S
C2028 C2026 1.478 . S
C2028 C2030 1.381 . S
C2028 C2034 1.383 1_554 S
C2029 C2025 1.495 . S
C2029 H2035 0.959 . S
C2029 H2036 0.961 . S
C2029 H2037 0.960 . S
C2030 C2028 1.381 . S
C2030 C2031 1.394 . S
C2030 H2038 0.930 . S
C2031 C2030 1.394 . S
C2031 C2032 1.383 . S
C2031 H2039 0.929 . S
C2032 C2031 1.383 . S
C2032 C2033 1.377 1_554 S
C2033 H2017 0.930 . S
C2033 C2032 1.377 1_556 S
C2033 C2034 1.379 . S
C2034 H2018 0.931 . S
C2034 C2028 1.383 1_556 S
C2034 C2033 1.379 . S
H2035 C2029 0.959 . S
H2036 C2029 0.961 . S
H2037 C2029 0.960 . S
H2038 C2030 0.930 . S
H2039 C2031 0.929 . S
H2040 C2048 0.929 . S
H2041 C2050 0.930 . S
H2042 C2052 0.930 . S
H2043 C2055 0.929 . S
H2044 C2058 0.930 . S
H2045 C2060 0.960 . S
H2046 C2060 0.960 . S
H2047 C2060 0.960 . S
C2048 H2040 0.929 . S
C2048 C2049 1.377 . S
C2048 C2050 1.384 . S
C2049 C2048 1.377 . S
C2049 C2055 1.390 1_554 S
C2050 H2041 0.930 . S
C2050 C2048 1.384 . S
C2050 C2051 1.372 . S
C2051 C2050 1.372 . S
C2051 C2052 1.400 1_554 S
C2051 C2056 1.490 . S
C2052 H2042 0.930 . S
C2052 C2051 1.400 1_556 S
C2052 C2055 1.386 . S
H2053 C2069 0.930 . S
H2054 C2070 0.931 . S
C2055 H2043 0.929 . S
C2055 C2049 1.390 1_556 S
C2055 C2052 1.386 . S
C2056 C2051 1.490 . S
C2056 C2058 1.395 1_554 S
C2056 C2059 1.403 . S
H2057 C2063 0.930 . S
C2058 H2044 0.930 . S
C2058 C2056 1.395 1_556 S
C2058 C2061 1.403 . S
C2059 C2056 1.403 . S
C2059 C2060 1.524 . S
C2059 C2063 1.400 . S
C2060 H2045 0.960 . S
C2060 H2046 0.960 . S
C2060 H2047 0.960 . S
C2060 C2059 1.524 . S
C2061 C2058 1.403 . S
C2061 C2062 1.392 1_556 S
C2061 C2065 1.495 . S
C2062 C2061 1.392 1_554 S
C2062 C2063 1.386 . S
C2062 C2064 1.477 1_554 S
C2063 H2057 0.930 . S
C2063 C2059 1.400 . S
C2063 C2062 1.386 . S
C2064 C2062 1.477 1_556 S
C2064 C2066 1.362 1_556 S
C2064 C2070 1.402 . S
C2065 C2061 1.495 . S
C2065 H2071 0.959 . S
C2065 H2072 0.961 . S
C2065 H2073 0.960 . S
C2066 C2064 1.362 1_554 S
C2066 C2067 1.394 . S
C2066 H2074 0.930 . S
C2067 C2066 1.394 . S
C2067 C2068 1.381 . S
C2067 H2075 0.929 . S
C2068 C2067 1.381 . S
C2068 C2069 1.380 1_554 S
C2069 H2053 0.930 . S
C2069 C2068 1.380 1_556 S
C2069 C2070 1.379 . S
C2070 H2054 0.931 . S
C2070 C2064 1.402 . S
C2070 C2069 1.379 . S
H2071 C2065 0.959 . S
H2072 C2065 0.961 . S
H2073 C2065 0.960 . S
H2074 C2066 0.930 . S
H2075 C2067 0.929 . S
H2076 C2084 0.929 . S
H2077 C2086 0.930 . S
H2078 C2088 0.930 . S
H2079 C2091 0.929 . S
H2080 C2094 0.930 . S
H2081 C2096 0.960 . S
H2082 C2096 0.960 . S
H2083 C2096 0.960 1_554 S
C2084 H2076 0.929 . S
C2084 C2085 1.377 1_556 S
C2084 C2086 1.384 . S
C2085 C2084 1.377 1_554 S
C2085 C2091 1.390 . S
C2086 H2077 0.930 . S
C2086 C2084 1.384 . S
C2086 C2087 1.372 1_556 S
C2087 C2086 1.372 1_554 S
C2087 C2088 1.400 . S
C2087 C2092 1.490 . S
C2088 H2078 0.930 . S
C2088 C2087 1.400 . S
C2088 C2091 1.386 . S
H2089 C2105 0.930 . S
H2090 C2106 0.931 . S
C2091 H2079 0.929 . S
C2091 C2085 1.390 . S
C2091 C2088 1.386 . S
C2092 C2087 1.490 . S
C2092 C2094 1.395 . S
C2092 C2095 1.403 . S
H2093 C2099 0.930 . S
C2094 H2080 0.930 . S
C2094 C2092 1.395 . S
C2094 C2097 1.403 . S
C2095 C2092 1.403 . S
C2095 C2096 1.524 1_554 S
C2095 C2099 1.400 . S
C2096 H2081 0.960 . S
C2096 H2082 0.960 . S
C2096 H2083 0.960 1_556 S
C2096 C2095 1.524 1_556 S
C2097 C2094 1.403 . S
C2097 C2098 1.392 . S
C2097 C2101 1.495 . S
C2098 C2097 1.392 . S
C2098 C2099 1.385 . S
C2098 C2100 1.478 . S
C2099 H2093 0.930 . S
C2099 C2095 1.400 . S
C2099 C2098 1.385 . S
C2100 C2098 1.478 . S
C2100 C2102 1.381 1_554 S
C2100 C2106 1.383 . S
C2101 C2097 1.495 . S
C2101 H2107 0.959 . S
C2101 H2108 0.961 . S
C2101 H2109 0.960 . S
C2102 C2100 1.381 1_556 S
C2102 C2103 1.394 . S
C2102 H2110 0.930 . S
C2103 C2102 1.394 . S
C2103 C2104 1.383 1_556 S
C2103 H2111 0.929 . S
C2104 C2103 1.383 1_554 S
C2104 C2105 1.377 . S
C2105 H2089 0.930 . S
C2105 C2104 1.377 . S
C2105 C2106 1.379 . S
C2106 H2090 0.931 . S
C2106 C2100 1.383 . S
C2106 C2105 1.379 . S
H2107 C2101 0.959 . S
H2108 C2101 0.961 . S
H2109 C2101 0.960 . S
H2110 C2102 0.930 . S
H2111 C2103 0.929 . S
H2112 C2120 0.929 . S
H2113 C2122 0.930 . S
H2114 C2124 0.930 . S
H2115 C2127 0.929 . S
H2116 C2130 0.930 . S
H2117 C2132 0.960 . S
H2118 C2132 0.960 1_554 S
H2119 C2132 0.960 . S
C2120 H2112 0.929 . S
C2120 C2121 1.377 . S
C2120 C2122 1.384 . S
C2121 C2120 1.377 . S
C2121 C2127 1.390 1_554 S
C2122 H2113 0.930 . S
C2122 C2120 1.384 . S
C2122 C2123 1.372 . S
C2123 C2122 1.372 . S
C2123 C2124 1.400 1_554 S
C2123 C2128 1.490 . S
C2124 H2114 0.930 . S
C2124 C2123 1.400 1_556 S
C2124 C2127 1.386 . S
H2125 C2141 0.930 . S
H2126 C2142 0.931 . S
C2127 H2115 0.929 . S
C2127 C2121 1.390 1_556 S
C2127 C2124 1.386 . S
C2128 C2123 1.490 . S
C2128 C2130 1.395 . S
C2128 C2131 1.405 . S
H2129 C2135 0.930 . S
C2130 H2116 0.930 . S
C2130 C2128 1.395 . S
C2130 C2133 1.403 . S
C2131 C2128 1.405 . S
C2131 C2132 1.522 1_554 S
C2131 C2135 1.400 1_554 S
C2132 H2117 0.960 . S
C2132 H2118 0.960 1_556 S
C2132 H2119 0.960 . S
C2132 C2131 1.522 1_556 S
C2133 C2130 1.403 . S
C2133 C2134 1.392 . S
C2133 C2137 1.495 . S
C2134 C2133 1.392 . S
C2134 C2135 1.385 1_554 S
C2134 C2136 1.478 . S
C2135 H2129 0.930 . S
C2135 C2131 1.400 1_556 S
C2135 C2134 1.385 1_556 S
C2136 C2134 1.478 . S
C2136 C2138 1.381 . S
C2136 C2142 1.383 1_554 S
C2137 C2133 1.495 . S
C2137 H2143 0.959 . S
C2137 H2144 0.919 1_554 S
C2137 H2145 0.960 . S
C2138 C2136 1.381 . S
C2138 C2139 1.394 . S
C2138 H2146 0.930 . S
C2139 C2138 1.394 . S
C2139 C2140 1.383 . S
C2139 H2147 0.929 . S
C2140 C2139 1.383 . S
C2140 C2141 1.377 1_554 S
C2141 H2125 0.930 . S
C2141 C2140 1.377 1_556 S
C2141 C2142 1.379 . S
C2142 H2126 0.931 . S
C2142 C2136 1.383 1_556 S
C2142 C2141 1.379 . S
H2143 C2137 0.959 . S
H2144 C2137 0.919 1_556 S
H2145 C2137 0.960 . S
H2146 C2138 0.930 . S
H2147 C2139 0.929 . S
H2148 C2156 0.929 . S
H2149 C2158 0.930 . S
H2150 C2160 0.930 . S
H2151 C2163 0.929 . S
H2152 C2166 0.930 . S
H2153 C2168 0.960 . S
H2154 C2168 0.960 . S
H2155 C2168 0.960 1_556 S
C2156 H2148 0.929 . S
C2156 C2157 1.377 . S
C2156 C2158 1.384 . S
C2157 C2156 1.377 . S
C2157 C2163 1.390 1_554 S
C2158 H2149 0.930 . S
C2158 C2156 1.384 . S
C2158 C2159 1.372 . S
C2159 C2158 1.372 . S
C2159 C2160 1.400 1_554 S
C2159 C2164 1.490 . S
C2160 H2150 0.930 . S
C2160 C2159 1.400 1_556 S
C2160 C2163 1.386 . S
H2161 C2177 0.930 . S
H2162 C2178 0.931 . S
C2163 H2151 0.929 . S
C2163 C2157 1.390 1_556 S
C2163 C2160 1.386 . S
C2164 C2159 1.490 . S
C2164 C2166 1.395 . S
C2164 C2167 1.403 . S
H2165 C2171 0.930 . S
C2166 H2152 0.930 . S
C2166 C2164 1.395 . S
C2166 C2169 1.403 . S
C2167 C2164 1.403 . S
C2167 C2168 1.524 . S
C2167 C2171 1.400 . S
C2168 H2153 0.960 . S
C2168 H2154 0.960 . S
C2168 H2155 0.960 1_554 S
C2168 C2167 1.524 . S
C2169 C2166 1.403 . S
C2169 C2170 1.392 . S
C2169 C2173 1.495 . S
C2170 C2169 1.392 . S
C2170 C2171 1.385 . S
C2170 C2172 1.478 . S
C2171 H2165 0.930 . S
C2171 C2167 1.400 . S
C2171 C2170 1.385 . S
C2172 C2170 1.478 . S
C2172 C2174 1.381 . S
C2172 C2178 1.383 1_554 S
C2173 C2169 1.495 . S
C2173 H2179 0.959 . S
C2173 H2180 0.961 1_554 S
C2173 H2181 0.960 . S
C2174 C2172 1.381 . S
C2174 C2175 1.394 . S
C2174 H2182 0.930 . S
C2175 C2174 1.394 . S
C2175 C2176 1.383 . S
C2175 H2183 0.929 . S
C2176 C2175 1.383 . S
C2176 C2177 1.377 1_554 S
C2177 H2161 0.930 . S
C2177 C2176 1.377 1_556 S
C2177 C2178 1.379 . S
C2178 H2162 0.931 . S
C2178 C2172 1.383 1_556 S
C2178 C2177 1.379 . S
H2179 C2173 0.959 . S
H2180 C2173 0.961 1_556 S
H2181 C2173 0.960 . S
H2182 C2174 0.930 . S
H2183 C2175 0.929 . S
H2184 C2192 0.929 . S
H2185 C2194 0.930 . S
H2186 C2196 0.930 . S
H2187 C2199 0.929 . S
H2188 C2202 0.930 . S
H2189 C2204 0.960 . S
H2190 C2204 0.960 . S
H2191 C2204 0.960 1_554 S
C2192 H2184 0.929 . S
C2192 C2193 1.377 1_556 S
C2192 C2194 1.384 . S
C2193 C2192 1.377 1_554 S
C2193 C2199 1.390 . S
C2194 H2185 0.930 . S
C2194 C2192 1.384 . S
C2194 C2195 1.372 1_556 S
C2195 C2194 1.372 1_554 S
C2195 C2196 1.400 . S
C2195 C2200 1.490 . S
C2196 H2186 0.930 . S
C2196 C2195 1.400 . S
C2196 C2199 1.386 . S
H2197 C2213 0.930 . S
H2198 C2214 0.931 . S
C2199 H2187 0.929 . S
C2199 C2193 1.390 . S
C2199 C2196 1.386 . S
C2200 C2195 1.490 . S
C2200 C2202 1.395 . S
C2200 C2203 1.403 1_554 S
H2201 C2207 0.936 . S
C2202 H2188 0.930 . S
C2202 C2200 1.395 . S
C2202 C2205 1.403 . S
C2203 C2200 1.403 1_556 S
C2203 C2204 1.524 . S
C2203 C2207 1.402 . S
C2204 H2189 0.960 . S
C2204 H2190 0.960 . S
C2204 H2191 0.960 1_556 S
C2204 C2203 1.524 . S
C2205 C2202 1.403 . S
C2205 C2206 1.392 . S
C2205 C2209 1.495 . S
C2206 C2205 1.392 . S
C2206 C2207 1.381 1_554 S
C2206 C2208 1.478 . S
C2207 H2201 0.936 . S
C2207 C2203 1.402 . S
C2207 C2206 1.381 1_556 S
C2208 C2206 1.478 . S
C2208 C2210 1.381 1_554 S
C2208 C2214 1.383 . S
C2209 C2205 1.495 . S
C2209 H2215 0.959 . S
C2209 H2216 0.961 . S
C2209 H2217 0.960 1_554 S
C2210 C2208 1.381 1_556 S
C2210 C2211 1.394 . S
C2210 H2218 0.930 . S
C2211 C2210 1.394 . S
C2211 C2212 1.383 1_556 S
C2211 H2219 0.929 . S
C2212 C2211 1.383 1_554 S
C2212 C2213 1.377 . S
C2213 H2197 0.930 . S
C2213 C2212 1.377 . S
C2213 C2214 1.379 . S
C2214 H2198 0.931 . S
C2214 C2208 1.383 . S
C2214 C2213 1.379 . S
H2215 C2209 0.959 . S
H2216 C2209 0.961 . S
H2217 C2209 0.960 1_556 S
H2218 C2210 0.930 . S
H2219 C2211 0.929 . S
H2220 C2228 0.929 . S
H2221 C2230 0.930 . S
H2222 C2232 0.930 . S
H2223 C2235 0.929 . S
H2224 C2238 0.930 . S
H2225 C2240 0.960 . S
H2226 C2240 0.960 . S
H2227 C2240 0.960 . S
C2228 H2220 0.929 . S
C2228 C2229 1.377 . S
C2228 C2230 1.384 . S
C2229 C2228 1.377 . S
C2229 C2235 1.390 1_554 S
C2230 H2221 0.930 . S
C2230 C2228 1.384 . S
C2230 C2231 1.372 . S
C2231 C2230 1.372 . S
C2231 C2232 1.400 1_554 S
C2231 C2236 1.490 . S
C2232 H2222 0.930 . S
C2232 C2231 1.400 1_556 S
C2232 C2235 1.386 . S
H2233 C2249 0.930 . S
H2234 C2250 0.931 . S
C2235 H2223 0.929 . S
C2235 C2229 1.390 1_556 S
C2235 C2232 1.386 . S
C2236 C2231 1.490 . S
C2236 C2238 1.395 . S
C2236 C2239 1.403 1_554 S
H2237 C2243 0.930 . S
C2238 H2224 0.930 . S
C2238 C2236 1.395 . S
C2238 C2241 1.403 . S
C2239 C2236 1.403 1_556 S
C2239 C2240 1.524 . S
C2239 C2243 1.400 . S
C2240 H2225 0.960 . S
C2240 H2226 0.960 . S
C2240 H2227 0.960 . S
C2240 C2239 1.524 . S
C2241 C2238 1.403 . S
C2241 C2242 1.392 . S
C2241 C2245 1.495 . S
C2242 C2241 1.392 . S
C2242 C2243 1.385 1_554 S
C2242 C2244 1.478 . S
C2243 H2237 0.930 . S
C2243 C2239 1.400 . S
C2243 C2242 1.385 1_556 S
C2244 C2242 1.478 . S
C2244 C2246 1.381 . S
C2244 C2250 1.383 1_554 S
C2245 C2241 1.495 . S
C2245 H2251 0.959 . S
C2245 H2252 0.961 . S
C2245 H2253 0.960 . S
C2246 C2244 1.381 . S
C2246 C2247 1.394 . S
C2246 H2254 0.930 . S
C2247 C2246 1.394 . S
C2247 C2248 1.383 . S
C2247 H2255 0.929 . S
C2248 C2247 1.383 . S
C2248 C2249 1.377 1_554 S
C2249 H2233 0.930 . S
C2249 C2248 1.377 1_556 S
C2249 C2250 1.379 . S
C2250 H2234 0.931 . S
C2250 C2244 1.383 1_556 S
C2250 C2249 1.379 . S
H2251 C2245 0.959 . S
H2252 C2245 0.961 . S
H2253 C2245 0.960 . S
H2254 C2246 0.930 . S
H2255 C2247 0.929 . S
H2256 C2264 0.929 . S
H2257 C2266 0.930 . S
H2258 C2268 0.930 . S
H2259 C2271 0.929 . S
H2260 C2274 0.930 . S
H2261 C2276 0.960 . S
H2262 C2276 0.960 . S
H2263 C2276 0.941 1_556 S
C2264 H2256 0.929 . S
C2264 C2265 1.377 . S
C2264 C2266 1.384 . S
C2265 C2264 1.377 . S
C2265 C2271 1.390 1_554 S
C2266 H2257 0.930 . S
C2266 C2264 1.384 . S
C2266 C2267 1.372 . S
C2267 C2266 1.372 . S
C2267 C2268 1.400 1_554 S
C2267 C2272 1.490 . S
C2268 H2258 0.930 . S
C2268 C2267 1.400 1_556 S
C2268 C2271 1.386 . S
H2269 C2285 0.930 . S
H2270 C2286 0.931 . S
C2271 H2259 0.929 . S
C2271 C2265 1.390 1_556 S
C2271 C2268 1.386 . S
C2272 C2267 1.490 . S
C2272 C2274 1.395 . S
C2272 C2275 1.403 . S
H2273 C2279 0.930 . S
C2274 H2260 0.930 . S
C2274 C2272 1.395 . S
C2274 C2277 1.403 . S
C2275 C2272 1.403 . S
C2275 C2276 1.524 . S
C2275 C2279 1.400 . S
C2276 H2261 0.960 . S
C2276 H2262 0.960 . S
C2276 H2263 0.941 1_554 S
C2276 C2275 1.524 . S
C2277 C2274 1.403 . S
C2277 C2278 1.392 . S
C2277 C2281 1.495 . S
C2278 C2277 1.392 . S
C2278 C2279 1.385 . S
C2278 C2280 1.478 . S
C2279 H2273 0.930 . S
C2279 C2275 1.400 . S
C2279 C2278 1.385 . S
C2280 C2278 1.478 . S
C2280 C2282 1.381 . S
C2280 C2286 1.383 1_554 S
C2281 C2277 1.495 . S
C2281 H2287 0.959 . S
C2281 H2288 0.961 1_554 S
C2281 H2289 0.960 . S
C2282 C2280 1.381 . S
C2282 C2283 1.394 . S
C2282 H2290 0.930 . S
C2283 C2282 1.394 . S
C2283 C2284 1.383 . S
C2283 H2291 0.929 . S
C2284 C2283 1.383 . S
C2284 C2285 1.377 1_554 S
C2285 H2269 0.930 . S
C2285 C2284 1.377 1_556 S
C2285 C2286 1.379 . S
C2286 H2270 0.931 . S
C2286 C2280 1.383 1_556 S
C2286 C2285 1.379 . S
H2287 C2281 0.959 . S
H2288 C2281 0.961 1_556 S
H2289 C2281 0.960 . S
H2290 C2282 0.930 . S
H2291 C2283 0.929 . S
H2292 C2300 0.929 . S
H2293 C2302 0.930 . S
H2294 C2304 0.930 . S
H2295 C2307 0.929 . S
H2296 C2310 0.930 . S
H2297 C2312 0.960 . S
H2298 C2312 0.960 . S
H2299 C2312 0.960 . S
C2300 H2292 0.929 . S
C2300 C2301 1.377 . S
C2300 C2302 1.384 . S
C2301 C2300 1.377 . S
C2301 C2307 1.390 . S
C2302 H2293 0.930 . S
C2302 C2300 1.384 . S
C2302 C2303 1.372 . S
C2303 C2302 1.372 . S
C2303 C2304 1.400 . S
C2303 C2308 1.490 . S
C2304 H2294 0.930 . S
C2304 C2303 1.400 . S
C2304 C2307 1.386 . S
H2305 C2321 0.930 . S
H2306 C2322 0.931 . S
C2307 H2295 0.929 . S
C2307 C2301 1.390 . S
C2307 C2304 1.386 . S
C2308 C2303 1.490 . S
C2308 C2310 1.395 . S
C2308 C2311 1.403 . S
H2309 C2315 0.930 . S
C2310 H2296 0.930 . S
C2310 C2308 1.395 . S
C2310 C2313 1.403 . S
C2311 C2308 1.403 . S
C2311 C2312 1.524 . S
C2311 C2315 1.400 . S
C2312 H2297 0.960 . S
C2312 H2298 0.960 . S
C2312 H2299 0.960 . S
C2312 C2311 1.524 . S
C2313 C2310 1.403 . S
C2313 C2314 1.392 . S
C2313 C2317 1.495 . S
C2314 C2313 1.392 . S
C2314 C2315 1.385 . S
C2314 C2316 1.478 . S
C2315 H2309 0.930 . S
C2315 C2311 1.400 . S
C2315 C2314 1.385 . S
C2316 C2314 1.478 . S
C2316 C2318 1.381 . S
C2316 C2322 1.383 . S
C2317 C2313 1.495 . S
C2317 H2323 0.959 . S
C2317 H2324 0.961 . S
C2317 H2325 0.960 . S
C2318 C2316 1.381 . S
C2318 C2319 1.394 . S
C2318 H2326 0.930 . S
C2319 C2318 1.394 . S
C2319 C2320 1.383 . S
C2319 H2327 0.929 . S
C2320 C2319 1.383 . S
C2320 C2321 1.377 . S
C2321 H2305 0.930 . S
C2321 C2320 1.377 . S
C2321 C2322 1.379 . S
C2322 H2306 0.931 . S
C2322 C2316 1.383 . S
C2322 C2321 1.379 . S
H2323 C2317 0.959 . S
H2324 C2317 0.961 . S
H2325 C2317 0.960 . S
H2326 C2318 0.930 . S
H2327 C2319 0.929 . S
H2328 C2336 0.929 . S
H2329 C2338 0.930 . S
H2330 C2340 0.930 . S
H2331 C2343 0.929 . S
H2332 C2346 0.930 . S
H2333 C2348 0.960 . S
H2334 C2348 0.960 . S
H2335 C2348 0.960 . S
C2336 H2328 0.929 . S
C2336 C2337 1.377 . S
C2336 C2338 1.384 . S
C2337 C2336 1.377 . S
C2337 C2343 1.390 . S
C2338 H2329 0.930 . S
C2338 C2336 1.384 . S
C2338 C2339 1.372 . S
C2339 C2338 1.372 . S
C2339 C2340 1.400 . S
C2339 C2344 1.490 . S
C2340 H2330 0.930 . S
C2340 C2339 1.400 . S
C2340 C2343 1.386 . S
H2341 C2357 0.930 . S
H2342 C2358 0.931 . S
C2343 H2331 0.929 . S
C2343 C2337 1.390 . S
C2343 C2340 1.386 . S
C2344 C2339 1.490 . S
C2344 C2346 1.395 . S
C2344 C2347 1.403 . S
H2345 C2351 0.930 . S
C2346 H2332 0.930 . S
C2346 C2344 1.395 . S
C2346 C2349 1.403 . S
C2347 C2344 1.403 . S
C2347 C2348 1.524 . S
C2347 C2351 1.400 . S
C2348 H2333 0.960 . S
C2348 H2334 0.960 . S
C2348 H2335 0.960 . S
C2348 C2347 1.524 . S
C2349 C2346 1.403 . S
C2349 C2350 1.392 . S
C2349 C2353 1.495 . S
C2350 C2349 1.392 . S
C2350 C2351 1.385 . S
C2350 C2352 1.478 . S
C2351 H2345 0.930 . S
C2351 C2347 1.400 . S
C2351 C2350 1.385 . S
C2352 C2350 1.478 . S
C2352 C2354 1.381 . S
C2352 C2358 1.383 . S
C2353 C2349 1.495 . S
C2353 H2359 0.959 . S
C2353 H2360 0.961 . S
C2353 H2361 0.960 . S
C2354 C2352 1.381 . S
C2354 C2355 1.394 . S
C2354 H2362 0.930 . S
C2355 C2354 1.394 . S
C2355 C2356 1.383 . S
C2355 H2363 0.929 . S
C2356 C2355 1.383 . S
C2356 C2357 1.377 . S
C2357 H2341 0.930 . S
C2357 C2356 1.377 . S
C2357 C2358 1.379 . S
C2358 H2342 0.931 . S
C2358 C2352 1.383 . S
C2358 C2357 1.379 . S
H2359 C2353 0.959 . S
H2360 C2353 0.961 . S
H2361 C2353 0.960 . S
H2362 C2354 0.930 . S
H2363 C2355 0.929 . S
H2364 C2372 0.929 . S
H2365 C2374 0.930 . S
H2366 C2376 0.930 . S
H2367 C2379 0.929 . S
H2368 C2382 0.930 . S
H2369 C2384 0.960 . S
H2370 C2384 0.960 . S
H2371 C2384 0.960 . S
C2372 H2364 0.929 . S
C2372 C2373 1.377 . S
C2372 C2374 1.384 . S
C2373 C2372 1.377 . S
C2373 C2379 1.390 . S
C2374 H2365 0.930 . S
C2374 C2372 1.384 . S
C2374 C2375 1.372 . S
C2375 C2374 1.372 . S
C2375 C2376 1.400 . S
C2375 C2380 1.490 . S
C2376 H2366 0.930 . S
C2376 C2375 1.400 . S
C2376 C2379 1.386 . S
H2377 C2393 0.930 . S
H2378 C2394 0.931 . S
C2379 H2367 0.929 . S
C2379 C2373 1.390 . S
C2379 C2376 1.386 . S
C2380 C2375 1.490 . S
C2380 C2382 1.395 . S
C2380 C2383 1.403 . S
H2381 C2387 0.930 . S
C2382 H2368 0.930 . S
C2382 C2380 1.395 . S
C2382 C2385 1.403 . S
C2383 C2380 1.403 . S
C2383 C2384 1.524 . S
C2383 C2387 1.400 . S
C2384 H2369 0.960 . S
C2384 H2370 0.960 . S
C2384 H2371 0.960 . S
C2384 C2383 1.524 . S
C2385 C2382 1.403 . S
C2385 C2386 1.392 . S
C2385 C2389 1.495 . S
C2386 C2385 1.392 . S
C2386 C2387 1.385 . S
C2386 C2388 1.478 . S
C2387 H2381 0.930 . S
C2387 C2383 1.400 . S
C2387 C2386 1.385 . S
C2388 C2386 1.478 . S
C2388 C2390 1.381 . S
C2388 C2394 1.383 . S
C2389 C2385 1.495 . S
C2389 H2395 0.959 . S
C2389 H2396 0.961 . S
C2389 H2397 0.960 . S
C2390 C2388 1.381 . S
C2390 C2391 1.394 . S
C2390 H2398 0.930 . S
C2391 C2390 1.394 . S
C2391 C2392 1.383 . S
C2391 H2399 0.929 . S
C2392 C2391 1.383 . S
C2392 C2393 1.377 . S
C2393 H2377 0.930 . S
C2393 C2392 1.377 . S
C2393 C2394 1.379 . S
C2394 H2378 0.931 . S
C2394 C2388 1.383 . S
C2394 C2393 1.379 . S
H2395 C2389 0.959 . S
H2396 C2389 0.961 . S
H2397 C2389 0.960 . S
H2398 C2390 0.930 . S
H2399 C2391 0.929 . S
H2400 C2408 0.929 . S
H2401 C2410 0.930 . S
H2402 C2412 0.930 . S
H2403 C2415 0.929 . S
H2404 C2418 0.930 . S
H2405 C2420 0.960 . S
H2406 C2420 0.960 . S
H2407 C2420 0.960 . S
C2408 H2400 0.929 . S
C2408 C2409 1.377 . S
C2408 C2410 1.384 . S
C2409 C2408 1.377 . S
C2409 C2415 1.390 . S
C2410 H2401 0.930 . S
C2410 C2408 1.384 . S
C2410 C2411 1.372 . S
C2411 C2410 1.372 . S
C2411 C2412 1.400 . S
C2411 C2416 1.490 . S
C2412 H2402 0.930 . S
C2412 C2411 1.400 . S
C2412 C2415 1.386 . S
H2413 C2429 0.930 . S
H2414 C2430 0.931 . S
C2415 H2403 0.929 . S
C2415 C2409 1.390 . S
C2415 C2412 1.386 . S
C2416 C2411 1.490 . S
C2416 C2418 1.395 . S
C2416 C2419 1.403 . S
H2417 C2423 0.930 . S
C2418 H2404 0.930 . S
C2418 C2416 1.395 . S
C2418 C2421 1.403 . S
C2419 C2416 1.403 . S
C2419 C2420 1.524 . S
C2419 C2423 1.400 . S
C2420 H2405 0.960 . S
C2420 H2406 0.960 . S
C2420 H2407 0.960 . S
C2420 C2419 1.524 . S
C2421 C2418 1.403 . S
C2421 C2422 1.392 . S
C2421 C2425 1.495 . S
C2422 C2421 1.392 . S
C2422 C2423 1.385 . S
C2422 C2424 1.478 . S
C2423 H2417 0.930 . S
C2423 C2419 1.400 . S
C2423 C2422 1.385 . S
C2424 C2422 1.478 . S
C2424 C2426 1.381 . S
C2424 C2430 1.383 . S
C2425 C2421 1.495 . S
C2425 H2431 0.959 . S
C2425 H2432 0.961 . S
C2425 H2433 0.960 . S
C2426 C2424 1.381 . S
C2426 C2427 1.394 . S
C2426 H2434 0.930 . S
C2427 C2426 1.394 . S
C2427 C2428 1.383 . S
C2427 H2435 0.929 . S
C2428 C2427 1.383 . S
C2428 C2429 1.377 . S
C2429 H2413 0.930 . S
C2429 C2428 1.377 . S
C2429 C2430 1.379 . S
C2430 H2414 0.931 . S
C2430 C2424 1.383 . S
C2430 C2429 1.379 . S
H2431 C2425 0.959 . S
H2432 C2425 0.961 . S
H2433 C2425 0.960 . S
H2434 C2426 0.930 . S
H2435 C2427 0.929 . S
H2436 C2444 0.929 . S
H2437 C2446 0.930 . S
H2438 C2448 0.930 . S
H2439 C2451 0.929 . S
H2440 C2454 0.930 . S
H2441 C2456 0.960 . S
H2442 C2456 0.960 . S
H2443 C2456 0.960 . S
C2444 H2436 0.929 . S
C2444 C2445 1.377 . S
C2444 C2446 1.384 . S
C2445 C2444 1.377 . S
C2445 C2451 1.390 . S
C2446 H2437 0.930 . S
C2446 C2444 1.384 . S
C2446 C2447 1.372 . S
C2447 C2446 1.372 . S
C2447 C2448 1.400 . S
C2447 C2452 1.490 . S
C2448 H2438 0.930 . S
C2448 C2447 1.400 . S
C2448 C2451 1.386 . S
H2449 C2465 0.930 . S
H2450 C2466 0.931 . S
C2451 H2439 0.929 . S
C2451 C2445 1.390 . S
C2451 C2448 1.386 . S
C2452 C2447 1.490 . S
C2452 C2454 1.395 . S
C2452 C2455 1.403 . S
H2453 C2459 0.930 . S
C2454 H2440 0.930 . S
C2454 C2452 1.395 . S
C2454 C2457 1.403 . S
C2455 C2452 1.403 . S
C2455 C2456 1.524 . S
C2455 C2459 1.400 . S
C2456 H2441 0.960 . S
C2456 H2442 0.960 . S
C2456 H2443 0.960 . S
C2456 C2455 1.524 . S
C2457 C2454 1.403 . S
C2457 C2458 1.392 . S
C2457 C2461 1.495 . S
C2458 C2457 1.392 . S
C2458 C2459 1.385 . S
C2458 C2460 1.478 . S
C2459 H2453 0.930 . S
C2459 C2455 1.400 . S
C2459 C2458 1.385 . S
C2460 C2458 1.478 . S
C2460 C2462 1.381 . S
C2460 C2466 1.383 . S
C2461 C2457 1.495 . S
C2461 H2467 0.959 . S
C2461 H2468 0.961 . S
C2461 H2469 0.960 . S
C2462 C2460 1.381 . S
C2462 C2463 1.394 . S
C2462 H2470 0.930 . S
C2463 C2462 1.394 . S
C2463 C2464 1.383 . S
C2463 H2471 0.929 . S
C2464 C2463 1.383 . S
C2464 C2465 1.377 . S
C2465 H2449 0.930 . S
C2465 C2464 1.377 . S
C2465 C2466 1.379 . S
C2466 H2450 0.931 . S
C2466 C2460 1.383 . S
C2466 C2465 1.379 . S
H2467 C2461 0.959 . S
H2468 C2461 0.961 . S
H2469 C2461 0.960 . S
H2470 C2462 0.930 . S
H2471 C2463 0.929 . S
H2472 C2480 0.929 . S
H2473 C2482 0.930 . S
H2474 C2484 0.930 . S
H2475 C2487 0.929 . S
H2476 C2490 0.930 . S
H2477 C2492 0.960 . S
H2478 C2492 0.960 . S
H2479 C2492 0.960 . S
C2480 H2472 0.929 . S
C2480 C2481 1.377 . S
C2480 C2482 1.384 . S
C2481 C2480 1.377 . S
C2481 C2487 1.390 . S
C2482 H2473 0.930 . S
C2482 C2480 1.384 . S
C2482 C2483 1.372 . S
C2483 C2482 1.372 . S
C2483 C2484 1.400 . S
C2483 C2488 1.490 . S
C2484 H2474 0.930 . S
C2484 C2483 1.400 . S
C2484 C2487 1.386 . S
H2485 C2501 0.930 . S
H2486 C2502 0.931 . S
C2487 H2475 0.929 . S
C2487 C2481 1.390 . S
C2487 C2484 1.386 . S
C2488 C2483 1.490 . S
C2488 C2490 1.395 . S
C2488 C2491 1.403 . S
H2489 C2495 0.930 . S
C2490 H2476 0.930 . S
C2490 C2488 1.395 . S
C2490 C2493 1.403 . S
C2491 C2488 1.403 . S
C2491 C2492 1.524 . S
C2491 C2495 1.400 . S
C2492 H2477 0.960 . S
C2492 H2478 0.960 . S
C2492 H2479 0.960 . S
C2492 C2491 1.524 . S
C2493 C2490 1.403 . S
C2493 C2494 1.392 . S
C2493 C2497 1.495 . S
C2494 C2493 1.392 . S
C2494 C2495 1.385 . S
C2494 C2496 1.478 . S
C2495 H2489 0.930 . S
C2495 C2491 1.400 . S
C2495 C2494 1.385 . S
C2496 C2494 1.478 . S
C2496 C2498 1.381 . S
C2496 C2502 1.383 . S
C2497 C2493 1.495 . S
C2497 H2503 0.959 . S
C2497 H2504 0.961 . S
C2497 H2505 0.960 . S
C2498 C2496 1.381 . S
C2498 C2499 1.394 . S
C2498 H2506 0.930 . S
C2499 C2498 1.394 . S
C2499 C2500 1.383 . S
C2499 H2507 0.929 . S
C2500 C2499 1.383 . S
C2500 C2501 1.377 . S
C2501 H2485 0.930 . S
C2501 C2500 1.377 . S
C2501 C2502 1.379 . S
C2502 H2486 0.931 . S
C2502 C2496 1.383 . S
C2502 C2501 1.379 . S
H2503 C2497 0.959 . S
H2504 C2497 0.961 . S
H2505 C2497 0.960 . S
H2506 C2498 0.930 . S
H2507 C2499 0.929 . S
H2508 C2516 0.929 . S
H2509 C2518 0.930 . S
H2510 C2520 0.930 . S
H2511 C2523 0.929 . S
H2512 C2526 0.930 . S
H2513 C2528 0.960 . S
H2514 C2528 0.960 . S
H2515 C2528 0.960 . S
C2516 H2508 0.929 . S
C2516 C2517 1.377 . S
C2516 C2518 1.384 . S
C2517 C2516 1.377 . S
C2517 C2523 1.390 . S
C2518 H2509 0.930 . S
C2518 C2516 1.384 . S
C2518 C2519 1.372 . S
C2519 C2518 1.372 . S
C2519 C2520 1.400 . S
C2519 C2524 1.490 . S
C2520 H2510 0.930 . S
C2520 C2519 1.400 . S
C2520 C2523 1.386 . S
H2521 C2537 0.930 . S
H2522 C2538 0.931 . S
C2523 H2511 0.929 . S
C2523 C2517 1.390 . S
C2523 C2520 1.386 . S
C2524 C2519 1.490 . S
C2524 C2526 1.395 . S
C2524 C2527 1.403 . S
H2525 C2531 0.930 . S
C2526 H2512 0.930 . S
C2526 C2524 1.395 . S
C2526 C2529 1.403 . S
C2527 C2524 1.403 . S
C2527 C2528 1.524 . S
C2527 C2531 1.400 . S
C2528 H2513 0.960 . S
C2528 H2514 0.960 . S
C2528 H2515 0.960 . S
C2528 C2527 1.524 . S
C2529 C2526 1.403 . S
C2529 C2530 1.392 . S
C2529 C2533 1.495 . S
C2530 C2529 1.392 . S
C2530 C2531 1.385 . S
C2530 C2532 1.478 . S
C2531 H2525 0.930 . S
C2531 C2527 1.400 . S
C2531 C2530 1.385 . S
C2532 C2530 1.478 . S
C2532 C2534 1.381 . S
C2532 C2538 1.383 . S
C2533 C2529 1.495 . S
C2533 H2539 0.959 . S
C2533 H2540 0.961 . S
C2533 H2541 0.960 . S
C2534 C2532 1.381 . S
C2534 C2535 1.394 . S
C2534 H2542 0.930 . S
C2535 C2534 1.394 . S
C2535 C2536 1.383 . S
C2535 H2543 0.929 . S
C2536 C2535 1.383 . S
C2536 C2537 1.377 . S
C2537 H2521 0.930 . S
C2537 C2536 1.377 . S
C2537 C2538 1.379 . S
C2538 H2522 0.931 . S
C2538 C2532 1.383 . S
C2538 C2537 1.379 . S
H2539 C2533 0.959 . S
H2540 C2533 0.961 . S
H2541 C2533 0.960 . S
H2542 C2534 0.930 . S
H2543 C2535 0.929 . S
H2544 C2552 0.929 . S
H2545 C2554 0.930 . S
H2546 C2556 0.930 . S
H2547 C2559 0.929 . S
H2548 C2562 0.930 . S
H2549 C2564 0.960 . S
H2550 C2564 0.960 . S
H2551 C2564 0.960 . S
C2552 H2544 0.929 . S
C2552 C2553 1.377 . S
C2552 C2554 1.384 . S
C2553 C2552 1.377 . S
C2553 C2559 1.390 . S
C2554 H2545 0.930 . S
C2554 C2552 1.384 . S
C2554 C2555 1.372 . S
C2555 C2554 1.372 . S
C2555 C2556 1.400 . S
C2555 C2560 1.490 . S
C2556 H2546 0.930 . S
C2556 C2555 1.400 . S
C2556 C2559 1.386 . S
H2557 C2573 0.930 . S
H2558 C2574 0.931 . S
C2559 H2547 0.929 . S
C2559 C2553 1.390 . S
C2559 C2556 1.386 . S
C2560 C2555 1.490 . S
C2560 C2562 1.395 . S
C2560 C2563 1.403 . S
H2561 C2567 0.930 . S
C2562 H2548 0.930 . S
C2562 C2560 1.395 . S
C2562 C2565 1.403 . S
C2563 C2560 1.403 . S
C2563 C2564 1.524 . S
C2563 C2567 1.400 . S
C2564 H2549 0.960 . S
C2564 H2550 0.960 . S
C2564 H2551 0.960 . S
C2564 C2563 1.524 . S
C2565 C2562 1.403 . S
C2565 C2566 1.392 . S
C2565 C2569 1.495 . S
C2566 C2565 1.392 . S
C2566 C2567 1.385 . S
C2566 C2568 1.478 . S
C2567 H2561 0.930 . S
C2567 C2563 1.400 . S
C2567 C2566 1.385 . S
C2568 C2566 1.478 . S
C2568 C2570 1.381 . S
C2568 C2574 1.383 . S
C2569 C2565 1.495 . S
C2569 H2575 0.959 . S
C2569 H2576 0.961 . S
C2569 H2577 0.960 . S
C2570 C2568 1.381 . S
C2570 C2571 1.394 . S
C2570 H2578 0.930 . S
C2571 C2570 1.394 . S
C2571 C2572 1.383 . S
C2571 H2579 0.929 . S
C2572 C2571 1.383 . S
C2572 C2573 1.377 . S
C2573 H2557 0.930 . S
C2573 C2572 1.377 . S
C2573 C2574 1.379 . S
C2574 H2558 0.931 . S
C2574 C2568 1.383 . S
C2574 C2573 1.379 . S
H2575 C2569 0.959 . S
H2576 C2569 0.961 . S
H2577 C2569 0.960 . S
H2578 C2570 0.930 . S
H2579 C2571 0.929 . S
H2580 C2588 0.929 . S
H2581 C2590 0.930 . S
H2582 C2592 0.930 . S
H2583 C2595 0.929 . S
H2584 C2598 0.930 . S
H2585 C2600 0.960 . S
H2586 C2600 0.960 . S
H2587 C2600 0.960 . S
C2588 H2580 0.929 . S
C2588 C2589 1.377 . S
C2588 C2590 1.384 . S
C2589 C2588 1.377 . S
C2589 C2595 1.390 . S
C2590 H2581 0.930 . S
C2590 C2588 1.384 . S
C2590 C2591 1.372 . S
C2591 C2590 1.372 . S
C2591 C2592 1.400 . S
C2591 C2596 1.490 . S
C2592 H2582 0.930 . S
C2592 C2591 1.400 . S
C2592 C2595 1.386 . S
H2593 C2609 0.930 . S
H2594 C2610 0.931 . S
C2595 H2583 0.929 . S
C2595 C2589 1.390 . S
C2595 C2592 1.386 . S
C2596 C2591 1.490 . S
C2596 C2598 1.395 . S
C2596 C2599 1.403 . S
H2597 C2603 0.930 . S
C2598 H2584 0.930 . S
C2598 C2596 1.395 . S
C2598 C2601 1.403 . S
C2599 C2596 1.403 . S
C2599 C2600 1.524 . S
C2599 C2603 1.400 . S
C2600 H2585 0.960 . S
C2600 H2586 0.960 . S
C2600 H2587 0.960 . S
C2600 C2599 1.524 . S
C2601 C2598 1.403 . S
C2601 C2602 1.392 . S
C2601 C2605 1.495 . S
C2602 C2601 1.392 . S
C2602 C2603 1.385 . S
C2602 C2604 1.478 . S
C2603 H2597 0.930 . S
C2603 C2599 1.400 . S
C2603 C2602 1.385 . S
C2604 C2602 1.478 . S
C2604 C2606 1.381 . S
C2604 C2610 1.383 . S
C2605 C2601 1.495 . S
C2605 H2611 0.959 . S
C2605 H2612 0.961 . S
C2605 H2613 0.960 . S
C2606 C2604 1.381 . S
C2606 C2607 1.394 . S
C2606 H2614 0.930 . S
C2607 C2606 1.394 . S
C2607 C2608 1.383 . S
C2607 H2615 0.929 . S
C2608 C2607 1.383 . S
C2608 C2609 1.377 . S
C2609 H2593 0.930 . S
C2609 C2608 1.377 . S
C2609 C2610 1.379 . S
C2610 H2594 0.931 . S
C2610 C2604 1.383 . S
C2610 C2609 1.379 . S
H2611 C2605 0.959 . S
H2612 C2605 0.961 . S
H2613 C2605 0.960 . S
H2614 C2606 0.930 . S
H2615 C2607 0.929 . S
H2616 C2624 0.929 . S
H2617 C2626 0.930 . S
H2618 C2628 0.930 . S
H2619 C2631 0.929 . S
H2620 C2634 0.930 . S
H2621 C2636 0.960 . S
H2622 C2636 0.960 . S
H2623 C2636 0.960 . S
C2624 H2616 0.929 . S
C2624 C2625 1.377 . S
C2624 C2626 1.384 . S
C2625 C2624 1.377 . S
C2625 C2631 1.390 . S
C2626 H2617 0.930 . S
C2626 C2624 1.384 . S
C2626 C2627 1.372 . S
C2627 C2626 1.372 . S
C2627 C2628 1.400 . S
C2627 C2632 1.490 . S
C2628 H2618 0.930 . S
C2628 C2627 1.400 . S
C2628 C2631 1.386 . S
H2629 C2645 0.930 . S
H2630 C2646 0.931 . S
C2631 H2619 0.929 . S
C2631 C2625 1.390 . S
C2631 C2628 1.386 . S
C2632 C2627 1.490 . S
C2632 C2634 1.395 . S
C2632 C2635 1.403 . S
H2633 C2639 0.930 . S
C2634 H2620 0.930 . S
C2634 C2632 1.395 . S
C2634 C2637 1.403 . S
C2635 C2632 1.403 . S
C2635 C2636 1.524 . S
C2635 C2639 1.400 . S
C2636 H2621 0.960 . S
C2636 H2622 0.960 . S
C2636 H2623 0.960 . S
C2636 C2635 1.524 . S
C2637 C2634 1.403 . S
C2637 C2638 1.392 . S
C2637 C2641 1.495 . S
C2638 C2637 1.392 . S
C2638 C2639 1.385 . S
C2638 C2640 1.478 . S
C2639 H2633 0.930 . S
C2639 C2635 1.400 . S
C2639 C2638 1.385 . S
C2640 C2638 1.478 . S
C2640 C2642 1.381 . S
C2640 C2646 1.383 . S
C2641 C2637 1.495 . S
C2641 H2647 0.959 . S
C2641 H2648 0.961 . S
C2641 H2649 0.960 . S
C2642 C2640 1.381 . S
C2642 C2643 1.394 . S
C2642 H2650 0.930 . S
C2643 C2642 1.394 . S
C2643 C2644 1.383 . S
C2643 H2651 0.929 . S
C2644 C2643 1.383 . S
C2644 C2645 1.377 . S
C2645 H2629 0.930 . S
C2645 C2644 1.377 . S
C2645 C2646 1.379 . S
C2646 H2630 0.931 . S
C2646 C2640 1.383 . S
C2646 C2645 1.379 . S
H2647 C2641 0.959 . S
H2648 C2641 0.961 . S
H2649 C2641 0.960 . S
H2650 C2642 0.930 . S
H2651 C2643 0.929 . S
H2652 C2660 0.929 . S
H2653 C2662 0.930 . S
H2654 C2664 0.930 . S
H2655 C2667 0.929 . S
H2656 C2670 0.930 . S
H2657 C2672 0.960 . S
H2658 C2672 0.960 . S
H2659 C2672 0.960 . S
C2660 H2652 0.929 . S
C2660 C2661 1.377 . S
C2660 C2662 1.384 . S
C2661 C2660 1.377 . S
C2661 C2667 1.390 . S
C2662 H2653 0.930 . S
C2662 C2660 1.384 . S
C2662 C2663 1.372 . S
C2663 C2662 1.372 . S
C2663 C2664 1.400 . S
C2663 C2668 1.490 . S
C2664 H2654 0.930 . S
C2664 C2663 1.400 . S
C2664 C2667 1.386 . S
H2665 C2681 0.930 . S
H2666 C2682 0.931 . S
C2667 H2655 0.929 . S
C2667 C2661 1.390 . S
C2667 C2664 1.386 . S
C2668 C2663 1.490 . S
C2668 C2670 1.395 . S
C2668 C2671 1.403 . S
H2669 C2675 0.930 . S
C2670 H2656 0.930 . S
C2670 C2668 1.395 . S
C2670 C2673 1.403 . S
C2671 C2668 1.403 . S
C2671 C2672 1.524 . S
C2671 C2675 1.400 . S
C2672 H2657 0.960 . S
C2672 H2658 0.960 . S
C2672 H2659 0.960 . S
C2672 C2671 1.524 . S
C2673 C2670 1.403 . S
C2673 C2674 1.392 . S
C2673 C2677 1.495 . S
C2674 C2673 1.392 . S
C2674 C2675 1.385 . S
C2674 C2676 1.478 . S
C2675 H2669 0.930 . S
C2675 C2671 1.400 . S
C2675 C2674 1.385 . S
C2676 C2674 1.478 . S
C2676 C2678 1.381 . S
C2676 C2682 1.383 . S
C2677 C2673 1.495 . S
C2677 H2683 0.959 . S
C2677 H2684 0.961 . S
C2677 H2685 0.960 . S
C2678 C2676 1.381 . S
C2678 C2679 1.394 . S
C2678 H2686 0.930 . S
C2679 C2678 1.394 . S
C2679 C2680 1.383 . S
C2679 H2687 0.929 . S
C2680 C2679 1.383 . S
C2680 C2681 1.377 . S
C2681 H2665 0.930 . S
C2681 C2680 1.377 . S
C2681 C2682 1.379 . S
C2682 H2666 0.931 . S
C2682 C2676 1.383 . S
C2682 C2681 1.379 . S
H2683 C2677 0.959 . S
H2684 C2677 0.961 . S
H2685 C2677 0.960 . S
H2686 C2678 0.930 . S
H2687 C2679 0.929 . S
H2688 C2696 0.929 . S
H2689 C2698 0.930 . S
H2690 C2700 0.930 . S
H2691 C2703 0.929 . S
H2692 C2706 0.930 . S
H2693 C2708 0.960 . S
H2694 C2708 0.960 . S
H2695 C2708 0.960 . S
C2696 H2688 0.929 . S
C2696 C2697 1.377 . S
C2696 C2698 1.384 . S
C2697 C2696 1.377 . S
C2697 C2703 1.390 . S
C2698 H2689 0.930 . S
C2698 C2696 1.384 . S
C2698 C2699 1.372 . S
C2699 C2698 1.372 . S
C2699 C2700 1.400 . S
C2699 C2704 1.490 . S
C2700 H2690 0.930 . S
C2700 C2699 1.400 . S
C2700 C2703 1.386 . S
H2701 C2717 0.930 . S
H2702 C2718 0.931 . S
C2703 H2691 0.929 . S
C2703 C2697 1.390 . S
C2703 C2700 1.386 . S
C2704 C2699 1.490 . S
C2704 C2706 1.395 . S
C2704 C2707 1.403 . S
H2705 C2711 0.930 . S
C2706 H2692 0.930 . S
C2706 C2704 1.395 . S
C2706 C2709 1.403 . S
C2707 C2704 1.403 . S
C2707 C2708 1.524 . S
C2707 C2711 1.400 . S
C2708 H2693 0.960 . S
C2708 H2694 0.960 . S
C2708 H2695 0.960 . S
C2708 C2707 1.524 . S
C2709 C2706 1.403 . S
C2709 C2710 1.392 . S
C2709 C2713 1.495 . S
C2710 C2709 1.392 . S
C2710 C2711 1.385 . S
C2710 C2712 1.478 . S
C2711 H2705 0.930 . S
C2711 C2707 1.400 . S
C2711 C2710 1.385 . S
C2712 C2710 1.478 . S
C2712 C2714 1.381 . S
C2712 C2718 1.383 . S
C2713 C2709 1.495 . S
C2713 H2719 0.959 . S
C2713 H2720 0.961 . S
C2713 H2721 0.960 . S
C2714 C2712 1.381 . S
C2714 C2715 1.394 . S
C2714 H2722 0.930 . S
C2715 C2714 1.394 . S
C2715 C2716 1.383 . S
C2715 H2723 0.929 . S
C2716 C2715 1.383 . S
C2716 C2717 1.377 . S
C2717 H2701 0.930 . S
C2717 C2716 1.377 . S
C2717 C2718 1.379 . S
C2718 H2702 0.931 . S
C2718 C2712 1.383 . S
C2718 C2717 1.379 . S
H2719 C2713 0.959 . S
H2720 C2713 0.961 . S
H2721 C2713 0.960 . S
H2722 C2714 0.930 . S
H2723 C2715 0.929 . S
H2724 C2732 0.929 . S
H2725 C2734 0.930 . S
H2726 C2736 0.930 . S
H2727 C2739 0.929 . S
H2728 C2742 0.930 . S
H2729 C2744 0.960 . S
H2730 C2744 0.960 . S
H2731 C2744 0.960 . S
C2732 H2724 0.929 . S
C2732 C2733 1.377 . S
C2732 C2734 1.384 . S
C2733 C2732 1.377 . S
C2733 C2739 1.390 . S
C2734 H2725 0.930 . S
C2734 C2732 1.384 . S
C2734 C2735 1.372 . S
C2735 C2734 1.372 . S
C2735 C2736 1.400 . S
C2735 C2740 1.490 . S
C2736 H2726 0.930 . S
C2736 C2735 1.400 . S
C2736 C2739 1.386 . S
H2737 C2753 0.930 . S
H2738 C2754 0.931 . S
C2739 H2727 0.929 . S
C2739 C2733 1.390 . S
C2739 C2736 1.386 . S
C2740 C2735 1.490 . S
C2740 C2742 1.395 . S
C2740 C2743 1.403 . S
H2741 C2747 0.930 . S
C2742 H2728 0.930 . S
C2742 C2740 1.395 . S
C2742 C2745 1.403 . S
C2743 C2740 1.403 . S
C2743 C2744 1.524 . S
C2743 C2747 1.400 . S
C2744 H2729 0.960 . S
C2744 H2730 0.960 . S
C2744 H2731 0.960 . S
C2744 C2743 1.524 . S
C2745 C2742 1.403 . S
C2745 C2746 1.392 . S
C2745 C2749 1.495 . S
C2746 C2745 1.392 . S
C2746 C2747 1.385 . S
C2746 C2748 1.478 . S
C2747 H2741 0.930 . S
C2747 C2743 1.400 . S
C2747 C2746 1.385 . S
C2748 C2746 1.478 . S
C2748 C2750 1.381 . S
C2748 C2754 1.383 . S
C2749 C2745 1.495 . S
C2749 H2755 0.959 . S
C2749 H2756 0.961 . S
C2749 H2757 0.960 . S
C2750 C2748 1.381 . S
C2750 C2751 1.394 . S
C2750 H2758 0.930 . S
C2751 C2750 1.394 . S
C2751 C2752 1.383 . S
C2751 H2759 0.929 . S
C2752 C2751 1.383 . S
C2752 C2753 1.377 . S
C2753 H2737 0.930 . S
C2753 C2752 1.377 . S
C2753 C2754 1.379 . S
C2754 H2738 0.931 . S
C2754 C2748 1.383 . S
C2754 C2753 1.379 . S
H2755 C2749 0.959 . S
H2756 C2749 0.961 . S
H2757 C2749 0.960 . S
H2758 C2750 0.930 . S
H2759 C2751 0.929 . S
H2760 C2768 0.929 . S
H2761 C2770 0.930 . S
H2762 C2772 0.930 . S
H2763 C2775 0.929 . S
H2764 C2778 0.930 . S
H2765 C2780 0.960 . S
H2766 C2780 0.960 . S
H2767 C2780 0.960 . S
C2768 H2760 0.929 . S
C2768 C2769 1.377 . S
C2768 C2770 1.384 . S
C2769 C2768 1.377 . S
C2769 C2775 1.390 . S
C2770 H2761 0.930 . S
C2770 C2768 1.384 . S
C2770 C2771 1.372 . S
C2771 C2770 1.372 . S
C2771 C2772 1.400 . S
C2771 C2776 1.490 . S
C2772 H2762 0.930 . S
C2772 C2771 1.400 . S
C2772 C2775 1.386 . S
H2773 C2789 0.930 . S
H2774 C2790 0.931 . S
C2775 H2763 0.929 . S
C2775 C2769 1.390 . S
C2775 C2772 1.386 . S
C2776 C2771 1.490 . S
C2776 C2778 1.395 . S
C2776 C2779 1.403 . S
H2777 C2783 0.930 . S
C2778 H2764 0.930 . S
C2778 C2776 1.395 . S
C2778 C2781 1.403 . S
C2779 C2776 1.403 . S
C2779 C2780 1.524 . S
C2779 C2783 1.400 . S
C2780 H2765 0.960 . S
C2780 H2766 0.960 . S
C2780 H2767 0.960 . S
C2780 C2779 1.524 . S
C2781 C2778 1.403 . S
C2781 C2782 1.392 . S
C2781 C2785 1.495 . S
C2782 C2781 1.392 . S
C2782 C2783 1.385 . S
C2782 C2784 1.478 . S
C2783 H2777 0.930 . S
C2783 C2779 1.400 . S
C2783 C2782 1.385 . S
C2784 C2782 1.478 . S
C2784 C2786 1.381 . S
C2784 C2790 1.383 . S
C2785 C2781 1.495 . S
C2785 H2791 0.959 . S
C2785 H2792 0.961 . S
C2785 H2793 0.960 . S
C2786 C2784 1.381 . S
C2786 C2787 1.394 . S
C2786 H2794 0.930 . S
C2787 C2786 1.394 . S
C2787 C2788 1.383 . S
C2787 H2795 0.929 . S
C2788 C2787 1.383 . S
C2788 C2789 1.377 . S
C2789 H2773 0.930 . S
C2789 C2788 1.377 . S
C2789 C2790 1.379 . S
C2790 H2774 0.931 . S
C2790 C2784 1.383 . S
C2790 C2789 1.379 . S
H2791 C2785 0.959 . S
H2792 C2785 0.961 . S
H2793 C2785 0.960 . S
H2794 C2786 0.930 . S
H2795 C2787 0.929 . S
H2796 C2804 0.929 . S
H2797 C2806 0.930 . S
H2798 C2808 0.930 . S
H2799 C2811 0.929 . S
H2800 C2814 0.930 . S
H2801 C2816 0.960 . S
H2802 C2816 0.960 . S
H2803 C2816 0.960 . S
C2804 H2796 0.929 . S
C2804 C2805 1.377 . S
C2804 C2806 1.384 . S
C2805 C2804 1.377 . S
C2805 C2811 1.390 . S
C2806 H2797 0.930 . S
C2806 C2804 1.384 . S
C2806 C2807 1.372 . S
C2807 C2806 1.372 . S
C2807 C2808 1.400 . S
C2807 C2812 1.490 . S
C2808 H2798 0.930 . S
C2808 C2807 1.400 . S
C2808 C2811 1.386 . S
H2809 C2825 0.930 . S
H2810 C2826 0.931 . S
C2811 H2799 0.929 . S
C2811 C2805 1.390 . S
C2811 C2808 1.386 . S
C2812 C2807 1.490 . S
C2812 C2814 1.395 . S
C2812 C2815 1.403 . S
H2813 C2819 0.930 . S
C2814 H2800 0.930 . S
C2814 C2812 1.395 . S
C2814 C2817 1.403 . S
C2815 C2812 1.403 . S
C2815 C2816 1.524 . S
C2815 C2819 1.400 . S
C2816 H2801 0.960 . S
C2816 H2802 0.960 . S
C2816 H2803 0.960 . S
C2816 C2815 1.524 . S
C2817 C2814 1.403 . S
C2817 C2818 1.392 . S
C2817 C2821 1.495 . S
C2818 C2817 1.392 . S
C2818 C2819 1.385 . S
C2818 C2820 1.478 . S
C2819 H2813 0.930 . S
C2819 C2815 1.400 . S
C2819 C2818 1.385 . S
C2820 C2818 1.478 . S
C2820 C2822 1.381 . S
C2820 C2826 1.383 . S
C2821 C2817 1.495 . S
C2821 H2827 0.959 . S
C2821 H2828 0.961 . S
C2821 H2829 0.960 . S
C2822 C2820 1.381 . S
C2822 C2823 1.394 . S
C2822 H2830 0.930 . S
C2823 C2822 1.394 . S
C2823 C2824 1.383 . S
C2823 H2831 0.929 . S
C2824 C2823 1.383 . S
C2824 C2825 1.377 . S
C2825 H2809 0.930 . S
C2825 C2824 1.377 . S
C2825 C2826 1.379 . S
C2826 H2810 0.931 . S
C2826 C2820 1.383 . S
C2826 C2825 1.379 . S
H2827 C2821 0.959 . S
H2828 C2821 0.961 . S
H2829 C2821 0.960 . S
H2830 C2822 0.930 . S
H2831 C2823 0.929 . S
H2832 C2840 0.929 . S
H2833 C2842 0.930 . S
H2834 C2844 0.930 . S
H2835 C2847 0.929 . S
H2836 C2850 0.930 . S
H2837 C2852 0.960 . S
H2838 C2852 0.960 . S
H2839 C2852 0.960 . S
C2840 H2832 0.929 . S
C2840 C2841 1.377 . S
C2840 C2842 1.384 . S
C2841 C2840 1.377 . S
C2841 C2847 1.390 . S
C2842 H2833 0.930 . S
C2842 C2840 1.384 . S
C2842 C2843 1.372 . S
C2843 C2842 1.372 . S
C2843 C2844 1.400 . S
C2843 C2848 1.490 . S
C2844 H2834 0.930 . S
C2844 C2843 1.400 . S
C2844 C2847 1.386 . S
H2845 C2861 0.930 . S
H2846 C2862 0.931 . S
C2847 H2835 0.929 . S
C2847 C2841 1.390 . S
C2847 C2844 1.386 . S
C2848 C2843 1.490 . S
C2848 C2850 1.395 . S
C2848 C2851 1.403 . S
H2849 C2855 0.930 . S
C2850 H2836 0.930 . S
C2850 C2848 1.395 . S
C2850 C2853 1.403 . S
C2851 C2848 1.403 . S
C2851 C2852 1.524 . S
C2851 C2855 1.400 . S
C2852 H2837 0.960 . S
C2852 H2838 0.960 . S
C2852 H2839 0.960 . S
C2852 C2851 1.524 . S
C2853 C2850 1.403 . S
C2853 C2854 1.392 . S
C2853 C2857 1.495 . S
C2854 C2853 1.392 . S
C2854 C2855 1.385 . S
C2854 C2856 1.478 . S
C2855 H2849 0.930 . S
C2855 C2851 1.400 . S
C2855 C2854 1.385 . S
C2856 C2854 1.478 . S
C2856 C2858 1.381 . S
C2856 C2862 1.383 . S
C2857 C2853 1.495 . S
C2857 H2863 0.959 . S
C2857 H2864 0.961 . S
C2857 H2865 0.960 . S
C2858 C2856 1.381 . S
C2858 C2859 1.394 . S
C2858 H2866 0.930 . S
C2859 C2858 1.394 . S
C2859 C2860 1.383 . S
C2859 H2867 0.929 . S
C2860 C2859 1.383 . S
C2860 C2861 1.377 . S
C2861 H2845 0.930 . S
C2861 C2860 1.377 . S
C2861 C2862 1.379 . S
C2862 H2846 0.931 . S
C2862 C2856 1.383 . S
C2862 C2861 1.379 . S
H2863 C2857 0.959 . S
H2864 C2857 0.961 . S
H2865 C2857 0.960 . S
H2866 C2858 0.930 . S
H2867 C2859 0.929 . S
H2868 C2876 0.929 . S
H2869 C2878 0.930 . S
H2870 C2880 0.930 . S
H2871 C2883 0.929 . S
H2872 C2886 0.930 . S
H2873 C2888 0.960 . S
H2874 C2888 0.960 . S
H2875 C2888 0.960 . S
C2876 H2868 0.929 . S
C2876 C2877 1.377 . S
C2876 C2878 1.384 . S
C2877 C2876 1.377 . S
C2877 C2883 1.390 . S
C2878 H2869 0.930 . S
C2878 C2876 1.384 . S
C2878 C2879 1.372 . S
C2879 C2878 1.372 . S
C2879 C2880 1.400 . S
C2879 C2884 1.490 . S
C2880 H2870 0.930 . S
C2880 C2879 1.400 . S
C2880 C2883 1.386 . S
H2881 C2897 0.930 . S
H2882 C2898 0.931 . S
C2883 H2871 0.929 . S
C2883 C2877 1.390 . S
C2883 C2880 1.386 . S
C2884 C2879 1.490 . S
C2884 C2886 1.395 . S
C2884 C2887 1.403 . S
H2885 C2891 0.930 . S
C2886 H2872 0.930 . S
C2886 C2884 1.395 . S
C2886 C2889 1.403 . S
C2887 C2884 1.403 . S
C2887 C2888 1.524 . S
C2887 C2891 1.400 . S
C2888 H2873 0.960 . S
C2888 H2874 0.960 . S
C2888 H2875 0.960 . S
C2888 C2887 1.524 . S
C2889 C2886 1.403 . S
C2889 C2890 1.392 . S
C2889 C2893 1.495 . S
C2890 C2889 1.392 . S
C2890 C2891 1.385 . S
C2890 C2892 1.478 . S
C2891 H2885 0.930 . S
C2891 C2887 1.400 . S
C2891 C2890 1.385 . S
C2892 C2890 1.478 . S
C2892 C2894 1.381 . S
C2892 C2898 1.383 . S
C2893 C2889 1.495 . S
C2893 H2899 0.959 . S
C2893 H2900 0.961 . S
C2893 H2901 0.960 . S
C2894 C2892 1.381 . S
C2894 C2895 1.394 . S
C2894 H2902 0.930 . S
C2895 C2894 1.394 . S
C2895 C2896 1.383 . S
C2895 H2903 0.929 . S
C2896 C2895 1.383 . S
C2896 C2897 1.377 . S
C2897 H2881 0.930 . S
C2897 C2896 1.377 . S
C2897 C2898 1.379 . S
C2898 H2882 0.931 . S
C2898 C2892 1.383 . S
C2898 C2897 1.379 . S
H2899 C2893 0.959 . S
H2900 C2893 0.961 . S
H2901 C2893 0.960 . S
H2902 C2894 0.930 . S
H2903 C2895 0.929 . S
H2904 C2912 0.929 . S
H2905 C2914 0.930 . S
H2906 C2916 0.930 . S
H2907 C2919 0.929 . S
H2908 C2922 0.930 . S
H2909 C2924 0.960 . S
H2910 C2924 0.960 . S
H2911 C2924 0.960 . S
C2912 H2904 0.929 . S
C2912 C2913 1.377 . S
C2912 C2914 1.384 . S
C2913 C2912 1.377 . S
C2913 C2919 1.390 . S
C2914 H2905 0.930 . S
C2914 C2912 1.384 . S
C2914 C2915 1.372 . S
C2915 C2914 1.372 . S
C2915 C2916 1.400 . S
C2915 C2920 1.490 . S
C2916 H2906 0.930 . S
C2916 C2915 1.400 . S
C2916 C2919 1.386 . S
H2917 C2933 0.930 . S
H2918 C2934 0.931 . S
C2919 H2907 0.929 . S
C2919 C2913 1.390 . S
C2919 C2916 1.386 . S
C2920 C2915 1.490 . S
C2920 C2922 1.395 . S
C2920 C2923 1.403 . S
H2921 C2927 0.930 . S
C2922 H2908 0.930 . S
C2922 C2920 1.395 . S
C2922 C2925 1.403 . S
C2923 C2920 1.403 . S
C2923 C2924 1.524 . S
C2923 C2927 1.400 . S
C2924 H2909 0.960 . S
C2924 H2910 0.960 . S
C2924 H2911 0.960 . S
C2924 C2923 1.524 . S
C2925 C2922 1.403 . S
C2925 C2926 1.392 . S
C2925 C2929 1.495 . S
C2926 C2925 1.392 . S
C2926 C2927 1.385 . S
C2926 C2928 1.478 . S
C2927 H2921 0.930 . S
C2927 C2923 1.400 . S
C2927 C2926 1.385 . S
C2928 C2926 1.478 . S
C2928 C2930 1.381 . S
C2928 C2934 1.383 . S
C2929 C2925 1.495 . S
C2929 H2935 0.959 . S
C2929 H2936 0.961 . S
C2929 H2937 0.960 . S
C2930 C2928 1.381 . S
C2930 C2931 1.394 . S
C2930 H2938 0.930 . S
C2931 C2930 1.394 . S
C2931 C2932 1.383 . S
C2931 H2939 0.929 . S
C2932 C2931 1.383 . S
C2932 C2933 1.377 . S
C2933 H2917 0.930 . S
C2933 C2932 1.377 . S
C2933 C2934 1.379 . S
C2934 H2918 0.931 . S
C2934 C2928 1.383 . S
C2934 C2933 1.379 . S
H2935 C2929 0.959 . S
H2936 C2929 0.961 . S
H2937 C2929 0.960 . S
H2938 C2930 0.930 . S
H2939 C2931 0.929 . S
H2940 C2948 0.929 . S
H2941 C2950 0.930 . S
H2942 C2952 0.930 . S
H2943 C2955 0.929 . S
H2944 C2958 0.930 . S
H2945 C2960 0.960 . S
H2946 C2960 0.960 . S
H2947 C2960 0.960 . S
C2948 H2940 0.929 . S
C2948 C2949 1.377 . S
C2948 C2950 1.384 . S
C2949 C2948 1.377 . S
C2949 C2955 1.390 . S
C2950 H2941 0.930 . S
C2950 C2948 1.384 . S
C2950 C2951 1.372 . S
C2951 C2950 1.372 . S
C2951 C2952 1.400 . S
C2951 C2956 1.490 . S
C2952 H2942 0.930 . S
C2952 C2951 1.400 . S
C2952 C2955 1.386 . S
H2953 C2969 0.930 . S
H2954 C2970 0.931 . S
C2955 H2943 0.929 . S
C2955 C2949 1.390 . S
C2955 C2952 1.386 . S
C2956 C2951 1.490 . S
C2956 C2958 1.395 . S
C2956 C2959 1.403 . S
H2957 C2963 0.930 . S
C2958 H2944 0.930 . S
C2958 C2956 1.395 . S
C2958 C2961 1.403 . S
C2959 C2956 1.403 . S
C2959 C2960 1.524 . S
C2959 C2963 1.400 . S
C2960 H2945 0.960 . S
C2960 H2946 0.960 . S
C2960 H2947 0.960 . S
C2960 C2959 1.524 . S
C2961 C2958 1.403 . S
C2961 C2962 1.392 . S
C2961 C2965 1.495 . S
C2962 C2961 1.392 . S
C2962 C2963 1.385 . S
C2962 C2964 1.478 . S
C2963 H2957 0.930 . S
C2963 C2959 1.400 . S
C2963 C2962 1.385 . S
C2964 C2962 1.478 . S
C2964 C2966 1.381 . S
C2964 C2970 1.383 . S
C2965 C2961 1.495 . S
C2965 H2971 0.959 . S
C2965 H2972 0.961 . S
C2965 H2973 0.960 . S
C2966 C2964 1.381 . S
C2966 C2967 1.394 . S
C2966 H2974 0.930 . S
C2967 C2966 1.394 . S
C2967 C2968 1.383 . S
C2967 H2975 0.929 . S
C2968 C2967 1.383 . S
C2968 C2969 1.377 . S
C2969 H2953 0.930 . S
C2969 C2968 1.377 . S
C2969 C2970 1.379 . S
C2970 H2954 0.931 . S
C2970 C2964 1.383 . S
C2970 C2969 1.379 . S
H2971 C2965 0.959 . S
H2972 C2965 0.961 . S
H2973 C2965 0.960 . S
H2974 C2966 0.930 . S
H2975 C2967 0.929 . S
H2976 C2984 0.929 . S
H2977 C2986 0.930 . S
H2978 C2988 0.930 . S
H2979 C2991 0.929 . S
H2980 C2994 0.930 . S
H2981 C2996 0.960 . S
H2982 C2996 0.960 . S
H2983 C2996 0.960 . S
C2984 H2976 0.929 . S
C2984 C2985 1.377 . S
C2984 C2986 1.384 . S
C2985 C2984 1.377 . S
C2985 C2991 1.390 . S
C2986 H2977 0.930 . S
C2986 C2984 1.384 . S
C2986 C2987 1.372 . S
C2987 C2986 1.372 . S
C2987 C2988 1.400 . S
C2987 C2992 1.490 . S
C2988 H2978 0.930 . S
C2988 C2987 1.400 . S
C2988 C2991 1.386 . S
H2989 C3005 0.930 . S
H2990 C3006 0.931 . S
C2991 H2979 0.929 . S
C2991 C2985 1.390 . S
C2991 C2988 1.386 . S
C2992 C2987 1.490 . S
C2992 C2994 1.395 . S
C2992 C2995 1.403 . S
H2993 C2999 0.930 . S
C2994 H2980 0.930 . S
C2994 C2992 1.395 . S
C2994 C2997 1.403 . S
C2995 C2992 1.403 . S
C2995 C2996 1.524 . S
C2995 C2999 1.400 . S
C2996 H2981 0.960 . S
C2996 H2982 0.960 . S
C2996 H2983 0.960 . S
C2996 C2995 1.524 . S
C2997 C2994 1.403 . S
C2997 C2998 1.392 . S
C2997 C3001 1.495 . S
C2998 C2997 1.392 . S
C2998 C2999 1.385 . S
C2998 C3000 1.478 . S
C2999 H2993 0.930 . S
C2999 C2995 1.400 . S
C2999 C2998 1.385 . S
C3000 C2998 1.478 . S
C3000 C3002 1.381 . S
C3000 C3006 1.383 . S
C3001 C2997 1.495 . S
C3001 H3007 0.959 . S
C3001 H3008 0.961 . S
C3001 H3009 0.960 . S
C3002 C3000 1.381 . S
C3002 C3003 1.394 . S
C3002 H3010 0.930 . S
C3003 C3002 1.394 . S
C3003 C3004 1.383 . S
C3003 H3011 0.929 . S
C3004 C3003 1.383 . S
C3004 C3005 1.377 . S
C3005 H2989 0.930 . S
C3005 C3004 1.377 . S
C3005 C3006 1.379 . S
C3006 H2990 0.931 . S
C3006 C3000 1.383 . S
C3006 C3005 1.379 . S
H3007 C3001 0.959 . S
H3008 C3001 0.961 . S
H3009 C3001 0.960 . S
H3010 C3002 0.930 . S
H3011 C3003 0.929 . S
H3012 C3020 0.929 . S
H3013 C3022 0.930 . S
H3014 C3024 0.930 . S
H3015 C3027 0.929 . S
H3016 C3030 0.930 . S
H3017 C3032 0.960 . S
H3018 C3032 0.960 . S
H3019 C3032 0.960 . S
C3020 H3012 0.929 . S
C3020 C3021 1.377 . S
C3020 C3022 1.384 . S
C3021 C3020 1.377 . S
C3021 C3027 1.390 . S
C3022 H3013 0.930 . S
C3022 C3020 1.384 . S
C3022 C3023 1.372 . S
C3023 C3022 1.372 . S
C3023 C3024 1.400 . S
C3023 C3028 1.490 . S
C3024 H3014 0.930 . S
C3024 C3023 1.400 . S
C3024 C3027 1.386 . S
H3025 C3041 0.930 . S
H3026 C3042 0.931 . S
C3027 H3015 0.929 . S
C3027 C3021 1.390 . S
C3027 C3024 1.386 . S
C3028 C3023 1.490 . S
C3028 C3030 1.395 . S
C3028 C3031 1.403 . S
H3029 C3035 0.930 . S
C3030 H3016 0.930 . S
C3030 C3028 1.395 . S
C3030 C3033 1.403 . S
C3031 C3028 1.403 . S
C3031 C3032 1.524 . S
C3031 C3035 1.400 . S
C3032 H3017 0.960 . S
C3032 H3018 0.960 . S
C3032 H3019 0.960 . S
C3032 C3031 1.524 . S
C3033 C3030 1.403 . S
C3033 C3034 1.392 . S
C3033 C3037 1.495 . S
C3034 C3033 1.392 . S
C3034 C3035 1.385 . S
C3034 C3036 1.478 . S
C3035 H3029 0.930 . S
C3035 C3031 1.400 . S
C3035 C3034 1.385 . S
C3036 C3034 1.478 . S
C3036 C3038 1.381 . S
C3036 C3042 1.383 . S
C3037 C3033 1.495 . S
C3037 H3043 0.959 . S
C3037 H3044 0.961 . S
C3037 H3045 0.960 . S
C3038 C3036 1.381 . S
C3038 C3039 1.394 . S
C3038 H3046 0.930 . S
C3039 C3038 1.394 . S
C3039 C3040 1.383 . S
C3039 H3047 0.929 . S
C3040 C3039 1.383 . S
C3040 C3041 1.377 . S
C3041 H3025 0.930 . S
C3041 C3040 1.377 . S
C3041 C3042 1.379 . S
C3042 H3026 0.931 . S
C3042 C3036 1.383 . S
C3042 C3041 1.379 . S
H3043 C3037 0.959 . S
H3044 C3037 0.961 . S
H3045 C3037 0.960 . S
H3046 C3038 0.930 . S
H3047 C3039 0.929 . S
H3048 C3056 0.929 . S
H3049 C3058 0.930 . S
H3050 C3060 0.930 . S
H3051 C3063 0.929 . S
H3052 C3066 0.930 . S
H3053 C3068 0.960 . S
H3054 C3068 0.960 . S
H3055 C3068 0.960 . S
C3056 H3048 0.929 . S
C3056 C3057 1.377 . S
C3056 C3058 1.384 . S
C3057 C3056 1.377 . S
C3057 C3063 1.390 . S
C3058 H3049 0.930 . S
C3058 C3056 1.384 . S
C3058 C3059 1.372 . S
C3059 C3058 1.372 . S
C3059 C3060 1.400 . S
C3059 C3064 1.490 . S
C3060 H3050 0.930 . S
C3060 C3059 1.400 . S
C3060 C3063 1.386 . S
H3061 C3077 0.930 . S
H3062 C3078 0.931 . S
C3063 H3051 0.929 . S
C3063 C3057 1.390 . S
C3063 C3060 1.386 . S
C3064 C3059 1.490 . S
C3064 C3066 1.395 . S
C3064 C3067 1.403 . S
H3065 C3071 0.930 . S
C3066 H3052 0.930 . S
C3066 C3064 1.395 . S
C3066 C3069 1.403 . S
C3067 C3064 1.403 . S
C3067 C3068 1.524 . S
C3067 C3071 1.400 . S
C3068 H3053 0.960 . S
C3068 H3054 0.960 . S
C3068 H3055 0.960 . S
C3068 C3067 1.524 . S
C3069 C3066 1.403 . S
C3069 C3070 1.392 . S
C3069 C3073 1.495 . S
C3070 C3069 1.392 . S
C3070 C3071 1.385 . S
C3070 C3072 1.478 . S
C3071 H3065 0.930 . S
C3071 C3067 1.400 . S
C3071 C3070 1.385 . S
C3072 C3070 1.478 . S
C3072 C3074 1.381 . S
C3072 C3078 1.383 . S
C3073 C3069 1.495 . S
C3073 H3079 0.959 . S
C3073 H3080 0.961 . S
C3073 H3081 0.960 . S
C3074 C3072 1.381 . S
C3074 C3075 1.394 . S
C3074 H3082 0.930 . S
C3075 C3074 1.394 . S
C3075 C3076 1.383 . S
C3075 H3083 0.929 . S
C3076 C3075 1.383 . S
C3076 C3077 1.377 . S
C3077 H3061 0.930 . S
C3077 C3076 1.377 . S
C3077 C3078 1.379 . S
C3078 H3062 0.931 . S
C3078 C3072 1.383 . S
C3078 C3077 1.379 . S
H3079 C3073 0.959 . S
H3080 C3073 0.961 . S
H3081 C3073 0.960 . S
H3082 C3074 0.930 . S
H3083 C3075 0.929 . S
H3084 C3092 0.929 . S
H3085 C3094 0.930 . S
H3086 C3096 0.930 . S
H3087 C3099 0.929 . S
H3088 C3102 0.930 . S
H3089 C3104 0.960 . S
H3090 C3104 0.960 . S
H3091 C3104 0.960 . S
C3092 H3084 0.929 . S
C3092 C3093 1.377 . S
C3092 C3094 1.384 . S
C3093 C3092 1.377 . S
C3093 C3099 1.390 . S
C3094 H3085 0.930 . S
C3094 C3092 1.384 . S
C3094 C3095 1.372 . S
C3095 C3094 1.372 . S
C3095 C3096 1.400 . S
C3095 C3100 1.490 . S
C3096 H3086 0.930 . S
C3096 C3095 1.400 . S
C3096 C3099 1.386 . S
H3097 C3113 0.930 . S
H3098 C3114 0.931 . S
C3099 H3087 0.929 . S
C3099 C3093 1.390 . S
C3099 C3096 1.386 . S
C3100 C3095 1.490 . S
C3100 C3102 1.395 . S
C3100 C3103 1.403 . S
H3101 C3107 0.930 . S
C3102 H3088 0.930 . S
C3102 C3100 1.395 . S
C3102 C3105 1.403 . S
C3103 C3100 1.403 . S
C3103 C3104 1.524 . S
C3103 C3107 1.400 . S
C3104 H3089 0.960 . S
C3104 H3090 0.960 . S
C3104 H3091 0.960 . S
C3104 C3103 1.524 . S
C3105 C3102 1.403 . S
C3105 C3106 1.392 . S
C3105 C3109 1.495 . S
C3106 C3105 1.392 . S
C3106 C3107 1.385 . S
C3106 C3108 1.478 . S
C3107 H3101 0.930 . S
C3107 C3103 1.400 . S
C3107 C3106 1.385 . S
C3108 C3106 1.478 . S
C3108 C3110 1.381 . S
C3108 C3114 1.383 . S
C3109 C3105 1.495 . S
C3109 H3115 0.959 . S
C3109 H3116 0.961 . S
C3109 H3117 0.960 . S
C3110 C3108 1.381 . S
C3110 C3111 1.394 . S
C3110 H3118 0.930 . S
C3111 C3110 1.394 . S
C3111 C3112 1.383 . S
C3111 H3119 0.929 . S
C3112 C3111 1.383 . S
C3112 C3113 1.377 . S
C3113 H3097 0.930 . S
C3113 C3112 1.377 . S
C3113 C3114 1.379 . S
C3114 H3098 0.931 . S
C3114 C3108 1.383 . S
C3114 C3113 1.379 . S
H3115 C3109 0.959 . S
H3116 C3109 0.961 . S
H3117 C3109 0.960 . S
H3118 C3110 0.930 . S
H3119 C3111 0.929 . S
H3120 C3128 0.929 . S
H3121 C3130 0.930 . S
H3122 C3132 0.930 . S
H3123 C3135 0.929 . S
H3124 C3138 0.930 . S
H3125 C3140 0.960 . S
H3126 C3140 0.960 . S
H3127 C3140 0.960 . S
C3128 H3120 0.929 . S
C3128 C3129 1.377 . S
C3128 C3130 1.384 . S
C3129 C3128 1.377 . S
C3129 C3135 1.390 . S
C3130 H3121 0.930 . S
C3130 C3128 1.384 . S
C3130 C3131 1.372 . S
C3131 C3130 1.372 . S
C3131 C3132 1.400 . S
C3131 C3136 1.490 . S
C3132 H3122 0.930 . S
C3132 C3131 1.400 . S
C3132 C3135 1.386 . S
H3133 C3149 0.930 . S
H3134 C3150 0.931 . S
C3135 H3123 0.929 . S
C3135 C3129 1.390 . S
C3135 C3132 1.386 . S
C3136 C3131 1.490 . S
C3136 C3138 1.395 . S
C3136 C3139 1.403 . S
H3137 C3143 0.930 . S
C3138 H3124 0.930 . S
C3138 C3136 1.395 . S
C3138 C3141 1.403 . S
C3139 C3136 1.403 . S
C3139 C3140 1.524 . S
C3139 C3143 1.400 . S
C3140 H3125 0.960 . S
C3140 H3126 0.960 . S
C3140 H3127 0.960 . S
C3140 C3139 1.524 . S
C3141 C3138 1.403 . S
C3141 C3142 1.392 . S
C3141 C3145 1.495 . S
C3142 C3141 1.392 . S
C3142 C3143 1.385 . S
C3142 C3144 1.478 . S
C3143 H3137 0.930 . S
C3143 C3139 1.400 . S
C3143 C3142 1.385 . S
C3144 C3142 1.478 . S
C3144 C3146 1.381 . S
C3144 C3150 1.383 . S
C3145 C3141 1.495 . S
C3145 H3151 0.959 . S
C3145 H3152 0.961 . S
C3145 H3153 0.960 . S
C3146 C3144 1.381 . S
C3146 C3147 1.394 . S
C3146 H3154 0.930 . S
C3147 C3146 1.394 . S
C3147 C3148 1.383 . S
C3147 H3155 0.929 . S
C3148 C3147 1.383 . S
C3148 C3149 1.377 . S
C3149 H3133 0.930 . S
C3149 C3148 1.377 . S
C3149 C3150 1.379 . S
C3150 H3134 0.931 . S
C3150 C3144 1.383 . S
C3150 C3149 1.379 . S
H3151 C3145 0.959 . S
H3152 C3145 0.961 . S
H3153 C3145 0.960 . S
H3154 C3146 0.930 . S
H3155 C3147 0.929 . S
C592 C270 1.214 . S
C573 C258 1.214 . S
C609 C236 1.541 . S
C628 C268 1.540 . S
C664 C269 1.541 . S
C645 C225 1.542 . S
C681 C247 1.213 . S
C700 C271 1.214 . S
C736 C315 1.371 . S
C717 C181 1.376 . S
C772 C375 1.291 . S
C753 C192 1.292 . S
C789 C203 1.373 . S
C808 C314 1.372 . S
C844 C374 1.622 . S
C825 C214 1.627 . S
C861 C137 1.485 . S
C880 C316 1.482 . S
C916 C372 1.518 . S
C897 C148 1.519 . S
C933 C159 1.492 . S
C952 C317 1.486 . S
C969 C170 1.180 . S
C988 C373 1.179 . S
C1024 C423 1.214 . S
C1005 C126 1.215 . S
C1041 C104 1.542 . S
C1060 C422 1.540 . S
C1077 C93 1.540 . S
C1096 C424 1.540 . S
C1132 C425 1.213 . S
C1113 C115 1.212 . S
C1149 C49 1.375 . S
C1168 C466 1.372 . S
C1185 C60 1.292 . S
C1204 C525 1.291 . S
C1221 C71 1.375 . S
C1240 C464 1.371 . S
C1257 C82 1.629 . S
C1276 C524 1.622 . S
C1312 C465 1.483 . S
C1293 C5 1.484 . S
C1348 C522 1.518 1_565 S
C1329 C16 1.519 1_545 S
C1365 C27 1.491 . S
C1384 C467 1.487 . S
C1420 C523 1.178 1_565 S
C1401 C38 1.179 1_545 S
C1456 C267 1.717 . S
C1437 C4 1.678 . S
C1473 C21 1.350 . S
C1492 C273 1.424 . S
C1509 C32 1.300 . S
C1528 C265 1.370 . S
C1545 C37 1.387 . S
C1564 C272 1.435 . S
C1581 C48 1.663 . S
C1600 C264 1.703 . S
C1636 C274 1.491 . S
C1617 C59 1.448 . S
C1653 C76 1.278 . S
C1672 C266 1.356 . S
C1708 C275 1.842 . S
C1689 C81 1.806 . S
C1744 C321 1.284 1_565 S
C1725 C43 1.205 . S
C1761 C10 1.369 . S
C1780 C364 1.451 . S
C1816 C319 1.702 . S
C1797 C15 1.660 . S
C1852 C366 1.812 . S
C1833 C26 1.776 . S
C1869 C65 1.299 . S
C1888 C320 1.372 . S
C1924 C365 1.682 . S
C1905 C70 1.644 . S
C1960 C318 1.448 . S
C1941 C87 1.376 . S
C1996 C367 1.343 . S
C1977 C54 1.269 . S
C2032 C371 1.417 . S
C2013 C98 1.347 . S
C2049 C109 1.340 . S
C2068 C370 1.409 . S
C2104 C322 1.703 . S
C2085 C92 1.667 . S
C2140 C369 1.444 . S
C2121 C114 1.401 . S
C2157 C131 1.162 . S
C2176 C325 1.229 . S
C2193 C125 1.401 . S
C2212 C368 1.443 . S
C2248 C324 1.703 . S
C2229 C103 1.670 . S
C2284 C323 1.237 . S
C2265 C120 1.168 . S
C2320 C417 1.719 . S
C2301 C136 1.678 . S
C2356 C420 1.424 . S
C2337 C153 1.348 . S
C2373 C164 1.286 . S
C2392 C416 1.371 . S
C2428 C418 1.429 . S
C2409 C169 1.391 . S
C2464 C414 1.704 . S
C2445 C180 1.664 . S
C2481 C191 1.438 . S
C2500 C419 1.487 . S
C2517 C208 1.274 . S
C2536 C415 1.360 . S
C2572 C421 1.840 . S
C2553 C213 1.810 . S
C2608 C475 1.279 . S
C2589 C175 1.210 . S
C2625 C142 1.381 . S
C2644 C514 1.455 . S
C2680 C474 1.702 . S
C2661 C147 1.665 . S
C2716 C516 1.814 . S
C2697 C158 1.774 . S
C2752 C473 1.367 . S
C2733 C197 1.294 . S
C2769 C202 1.647 . S
C2788 C515 1.680 . S
C2824 C472 1.447 . S
C2805 C219 1.374 . S
C2860 C517 1.334 . S
C2841 C186 1.255 . S
C2896 C521 1.410 . S
C2877 C230 1.335 . S
C2913 C241 1.345 . S
C2932 C520 1.413 . S
C2968 C468 1.703 . S
C2949 C224 1.668 . S
C2985 C246 1.407 . S
C3004 C519 1.449 . S
C3040 C471 1.233 . S
C3021 C263 1.157 . S
C3076 C518 1.447 . S
C3057 C257 1.405 . S
C3112 C469 1.703 . S
C3093 C235 1.668 . S
C3129 C252 1.166 . S
C3148 C470 1.237 . S
