# Generated by pormake.
# Topology dag, (6,3)-cn, num edge types: 1
# Building blocks:
#     Node 0, Type 0, BuildingBlock: OJICUG_clean_sbu_0, # of connection points: 6
#     Node 1, Type 0, BuildingBlock: OJICUG_clean_sbu_0, # of connection points: 6
#     Node 2, Type 0, BuildingBlock: OJICUG_clean_sbu_0, # of connection points: 6
#     Node 3, Type 0, BuildingBlock: OJICUG_clean_sbu_0, # of connection points: 6
#     Node 4, Type 1, BuildingBlock: ESEHIV_clean_linker_0, # of connection points: 3
#     Node 5, Type 1, BuildingBlock: ESEHIV_clean_linker_0, # of connection points: 3
#     Node 6, Type 1, BuildingBlock: ESEHIV_clean_linker_0, # of connection points: 3
#     Node 7, Type 1, BuildingBlock: ESEHIV_clean_linker_0, # of connection points: 3
#     Node 8, Type 1, BuildingBlock: ESEHIV_clean_linker_0, # of connection points: 3
#     Node 9, Type 1, BuildingBlock: ESEHIV_clean_linker_0, # of connection points: 3
#     Node 10, Type 1, BuildingBlock: ESEHIV_clean_linker_0, # of connection points: 3
#     Node 11, Type 1, BuildingBlock: ESEHIV_clean_linker_0, # of connection points: 3
#     Edge 12, Type (0, 1), BuildingBlock: KIFKEQ_clean_linker_1, # of connection points: 2
#     Edge 13, Type (0, 1), BuildingBlock: KIFKEQ_clean_linker_1, # of connection points: 2
#     Edge 14, Type (0, 1), BuildingBlock: KIFKEQ_clean_linker_1, # of connection points: 2
#     Edge 15, Type (0, 1), BuildingBlock: KIFKEQ_clean_linker_1, # of connection points: 2
#     Edge 16, Type (0, 1), BuildingBlock: KIFKEQ_clean_linker_1, # of connection points: 2
#     Edge 17, Type (0, 1), BuildingBlock: KIFKEQ_clean_linker_1, # of connection points: 2
#     Edge 18, Type (0, 1), BuildingBlock: KIFKEQ_clean_linker_1, # of connection points: 2
#     Edge 19, Type (0, 1), BuildingBlock: KIFKEQ_clean_linker_1, # of connection points: 2
#     Edge 20, Type (0, 1), BuildingBlock: KIFKEQ_clean_linker_1, # of connection points: 2
#     Edge 21, Type (0, 1), BuildingBlock: KIFKEQ_clean_linker_1, # of connection points: 2
#     Edge 22, Type (0, 1), BuildingBlock: KIFKEQ_clean_linker_1, # of connection points: 2
#     Edge 23, Type (0, 1), BuildingBlock: KIFKEQ_clean_linker_1, # of connection points: 2
#     Edge 24, Type (0, 1), BuildingBlock: KIFKEQ_clean_linker_1, # of connection points: 2
#     Edge 25, Type (0, 1), BuildingBlock: KIFKEQ_clean_linker_1, # of connection points: 2
#     Edge 26, Type (0, 1), BuildingBlock: KIFKEQ_clean_linker_1, # of connection points: 2
#     Edge 27, Type (0, 1), BuildingBlock: KIFKEQ_clean_linker_1, # of connection points: 2
#     Edge 28, Type (0, 1), BuildingBlock: KIFKEQ_clean_linker_1, # of connection points: 2
#     Edge 29, Type (0, 1), BuildingBlock: KIFKEQ_clean_linker_1, # of connection points: 2
#     Edge 30, Type (0, 1), BuildingBlock: KIFKEQ_clean_linker_1, # of connection points: 2
#     Edge 31, Type (0, 1), BuildingBlock: KIFKEQ_clean_linker_1, # of connection points: 2
#     Edge 32, Type (0, 1), BuildingBlock: KIFKEQ_clean_linker_1, # of connection points: 2
#     Edge 33, Type (0, 1), BuildingBlock: KIFKEQ_clean_linker_1, # of connection points: 2
#     Edge 34, Type (0, 1), BuildingBlock: KIFKEQ_clean_linker_1, # of connection points: 2
#     Edge 35, Type (0, 1), BuildingBlock: KIFKEQ_clean_linker_1, # of connection points: 2
# Relax obj value: 0.253
# Max RMSD: 0.198
# Mean RMSD: 0.163
data_MOF--net-dag--node1-OJICUG_clean_sbu_0--node2-ESEHIV_clean_linker_0--edge1-KIFKEQ_clean_linker_1
_symmetry_space_group_name_H-M    P1
_symmetry_Int_Tables_number       1
_symmetry_cell_setting            triclinic
loop_
_symmetry_equiv_pos_as_xyz
'x, y, z'
_cell_length_a     34.621209
_cell_length_b     36.293117
_cell_length_c     35.56594
_cell_angle_alpha  95.323507
_cell_angle_beta   89.989774
_cell_angle_gamma 90.072551
loop_
_atom_site_label
_atom_site_type_symbol
_atom_site_fract_x
_atom_site_fract_y
_atom_site_fract_z
_atom_type_partial_charge
Sc0 Sc 0.11514 0.85967 0.0364 0.0
Sc1 Sc 0.13775 0.76506 0.0352 0.0
Sc2 Sc 0.20119 0.83351 0.07807 0.0
O3 O 0.15137 0.81932 0.04989 0.0
C4 C 0.1964 0.89684 0.02189 0.0
C5 C 0.11327 0.80332 0.96178 0.0
C6 C 0.22895 0.76778 0.01919 0.0
C7 C 0.05547 0.79871 0.0594 0.0
C8 C 0.14083 0.88906 0.12019 0.0
C9 C 0.17378 0.76162 0.11686 0.0
O10 O 0.16068 0.89209 0.01497 0.0
O11 O 0.1242 0.7749 0.97736 0.0
O12 O 0.2352 0.79832 0.03882 0.0
O13 O 0.06544 0.83196 0.05632 0.0
O14 O 0.17169 0.87003 0.12032 0.0
O15 O 0.14992 0.74957 0.09138 0.0
O16 O 0.11886 0.88872 0.09155 0.0
O17 O 0.07781 0.77132 0.05152 0.0
O18 O 0.19446 0.79021 0.11437 0.0
O19 O 0.108 0.83469 0.98 0.0
O20 O 0.21459 0.87876 0.04512 0.0
O21 O 0.19594 0.75226 0.01691 0.0
Sc22 Sc 0.69716 0.66071 0.46782 0.0
Sc23 Sc 0.63631 0.73434 0.50404 0.0
Sc24 Sc 0.61613 0.64231 0.52191 0.0
O25 O 0.64986 0.67922 0.49791 0.0
C26 C 0.63463 0.59947 0.44115 0.0
C27 C 0.66584 0.72406 0.41886 0.0
C28 C 0.55348 0.69694 0.49143 0.0
C29 C 0.72827 0.7338 0.51481 0.0
C30 C 0.69919 0.60855 0.53524 0.0
C31 C 0.61771 0.70995 0.58587 0.0
O32 O 0.66503 0.61784 0.43527 0.0
O33 O 0.64584 0.74096 0.44502 0.0
O34 O 0.56429 0.66611 0.50199 0.0
O35 O 0.73326 0.70179 0.49773 0.0
O36 O 0.66408 0.61404 0.54429 0.0
O37 O 0.62483 0.73474 0.56385 0.0
O38 O 0.71489 0.62275 0.50771 0.0
O39 O 0.69531 0.74935 0.51828 0.0
O40 O 0.61394 0.67588 0.57478 0.0
O41 O 0.68592 0.69567 0.42378 0.0
O42 O 0.61494 0.60481 0.47136 0.0
O43 O 0.57583 0.72474 0.49078 0.0
Sc44 Sc 0.86616 0.23213 0.00784 0.0
Sc45 Sc 0.80358 0.16038 0.97073 0.0
Sc46 Sc 0.8899 0.13839 0.0147 0.0
O47 O 0.85323 0.17706 0.9978 0.0
C48 C 0.94867 0.19769 0.986 0.0
C49 C 0.8298 0.22846 0.92547 0.0
C50 C 0.86453 0.10273 0.9328 0.0
C51 C 0.77534 0.22946 0.02533 0.0
C52 C 0.89199 0.20033 0.0845 0.0
C53 C 0.80897 0.10161 0.03176 0.0
O54 O 0.9258 0.22511 0.99067 0.0
O55 O 0.81005 0.19979 0.93023 0.0
O56 O 0.88689 0.10551 0.96128 0.0
O57 O 0.80816 0.24539 0.02666 0.0
O58 O 0.89656 0.16746 0.06962 0.0
O59 O 0.79061 0.11832 0.00757 0.0
O60 O 0.8813 0.22705 0.06624 0.0
O61 O 0.76939 0.19809 0.0072 0.0
O62 O 0.84473 0.10682 0.03825 0.0
O63 O 0.85258 0.2434 0.95052 0.0
O64 O 0.93935 0.16516 0.99294 0.0
O65 O 0.83336 0.12113 0.93158 0.0
Sc66 Sc 0.3756 0.35556 0.52506 0.0
Sc67 Sc 0.29625 0.33464 0.58039 0.0
Sc68 Sc 0.35621 0.26258 0.53898 0.0
O69 O 0.34267 0.31751 0.54818 0.0
C70 C 0.37048 0.29179 0.45777 0.0
C71 C 0.29198 0.39122 0.51756 0.0
C72 C 0.26395 0.26305 0.53159 0.0
C73 C 0.36091 0.39375 0.6083 0.0
C74 C 0.43995 0.29819 0.54769 0.0
C75 C 0.32974 0.26916 0.6252 0.0
O76 O 0.37319 0.32553 0.4706 0.0
O77 O 0.27639 0.37422 0.54322 0.0
O78 O 0.29697 0.2481 0.52597 0.0
O79 O 0.38059 0.38887 0.57802 0.0
O80 O 0.41692 0.27136 0.55102 0.0
O81 O 0.3097 0.29797 0.62219 0.0
O82 O 0.42882 0.32923 0.53795 0.0
O83 O 0.32947 0.37659 0.61327 0.0
O84 O 0.34853 0.25298 0.59771 0.0
O85 O 0.32717 0.38698 0.50829 0.0
O86 O 0.36598 0.26557 0.47887 0.0
O87 O 0.25916 0.29433 0.55032 0.0
H88 H 0.01237 0.08935 0.27445 0.0
H89 H 0.09909 0.08926 0.36024 0.0
H90 H 0.02394 0.18356 0.35628 0.0
C91 C 0.02537 0.10247 0.30003 0.0
C92 C 0.0139 0.13832 0.31375 0.0
C93 C 0.05588 0.08463 0.31676 0.0
C94 C 0.07463 0.1026 0.34818 0.0
C95 C 0.06322 0.13827 0.36291 0.0
C96 C 0.0327 0.15592 0.34551 0.0
H97 H 0.50028 0.61167 0.76307 0.0
H98 H 0.39817 0.60332 0.82984 0.0
H99 H 0.4717 0.69922 0.84829 0.0
C100 C 0.48202 0.62267 0.7862 0.0
C101 C 0.49075 0.65724 0.80542 0.0
C102 C 0.44846 0.60334 0.79434 0.0
C103 C 0.42437 0.61797 0.82364 0.0
C104 C 0.43259 0.65248 0.84343 0.0
C105 C 0.46596 0.67197 0.83424 0.0
H106 H 0.78785 0.85672 0.093 0.0
H107 H 0.76613 0.77478 0.16995 0.0
H108 H 0.69234 0.87028 0.17019 0.0
C109 C 0.76944 0.84563 0.11393 0.0
C110 C 0.73802 0.8666 0.12876 0.0
C111 C 0.78004 0.81275 0.12895 0.0
C112 C 0.75743 0.7997 0.15759 0.0
C113 C 0.72538 0.82001 0.17227 0.0
C114 C 0.71606 0.85373 0.15803 0.0
H115 H 0.71351 0.36825 0.5937 0.0
H116 H 0.71899 0.28633 0.67303 0.0
H117 H 0.7971 0.37916 0.68328 0.0
C118 C 0.72786 0.35672 0.61703 0.0
C119 C 0.75841 0.37641 0.63556 0.0
C120 C 0.71299 0.32454 0.63067 0.0
C121 C 0.73012 0.31134 0.6625 0.0
C122 C 0.76029 0.33096 0.68186 0.0
C123 C 0.77465 0.36327 0.66795 0.0
H124 H 0.50314 0.37283 0.28758 0.0
H125 H 0.60433 0.38834 0.22083 0.0
H126 H 0.53683 0.28842 0.20146 0.0
C127 C 0.52236 0.36343 0.26458 0.0
C128 C 0.51583 0.32885 0.24468 0.0
C129 C 0.5546 0.38484 0.25673 0.0
C130 C 0.57925 0.37206 0.22702 0.0
C131 C 0.57288 0.3375 0.2065 0.0
C132 C 0.54109 0.31584 0.2157 0.0
H133 H 0.21746 0.13908 0.954 0.0
H134 H 0.23749 0.2173 0.87279 0.0
H135 H 0.31331 0.12385 0.87724 0.0
C136 C 0.23566 0.14945 0.93248 0.0
C137 C 0.2676 0.12853 0.91873 0.0
C138 C 0.22431 0.18116 0.91572 0.0
C139 C 0.24666 0.19325 0.88641 0.0
C140 C 0.27917 0.17303 0.87278 0.0
C141 C 0.28923 0.14036 0.88868 0.0
H142 H 0.2773 0.63251 0.45402 0.0
H143 H 0.27429 0.70219 0.36316 0.0
H144 H 0.18844 0.6174 0.36915 0.0
C145 C 0.26231 0.642 0.42996 0.0
C146 C 0.22983 0.62237 0.41494 0.0
C147 C 0.27866 0.67067 0.41135 0.0
C148 C 0.26124 0.68073 0.37829 0.0
C149 C 0.22873 0.66167 0.36306 0.0
C150 C 0.2126 0.63303 0.38181 0.0
H151 H 0.99066 0.896 0.77251 0.0
H152 H 0.9696 0.8043 0.69012 0.0
H153 H 0.89745 0.9015 0.69369 0.0
C154 C 0.97496 0.88424 0.74784 0.0
C155 C 0.94354 0.90344 0.73433 0.0
C156 C 0.9842 0.84851 0.73216 0.0
C157 C 0.96253 0.8321 0.70182 0.0
C158 C 0.93157 0.8514 0.68706 0.0
C159 C 0.92223 0.88702 0.70367 0.0
H160 H 0.18253 0.90641 0.18553 0.0
H161 H 0.07263 0.9253 0.13283 0.0
H162 H 0.16313 0.94779 0.24063 0.0
H163 H 0.05391 0.96664 0.18689 0.0
H164 H 0.13017 0.06738 0.2967 0.0
H165 H 0.15196 0.01461 0.25452 0.0
H166 H 0.03638 0.96934 0.25263 0.0
H167 H 0.01456 0.02261 0.2941 0.0
C168 C 0.15426 0.91916 0.18572 0.0
C169 C 0.1293 0.91272 0.15458 0.0
C170 C 0.1432 0.9429 0.21722 0.0
C171 C 0.10689 0.96034 0.21825 0.0
C172 C 0.08177 0.95315 0.18744 0.0
C173 C 0.09278 0.92969 0.15612 0.0
C174 C 0.10973 0.04559 0.28809 0.0
C175 C 0.0706 0.0492 0.29822 0.0
C176 C 0.1222 0.01533 0.26396 0.0
C177 C 0.09575 0.98811 0.2497 0.0
C178 C 0.05728 0.9903 0.26244 0.0
C179 C 0.04478 0.02065 0.28627 0.0
H180 H 0.55459 0.74436 0.61626 0.0
H181 H 0.66382 0.69771 0.64498 0.0
H182 H 0.53354 0.74476 0.68141 0.0
H183 H 0.64433 0.70042 0.71119 0.0
H184 H 0.56366 0.63477 0.78567 0.0
H185 H 0.60406 0.66157 0.74 0.0
H186 H 0.53051 0.75829 0.74617 0.0
H187 H 0.48838 0.72974 0.79005 0.0
C188 C 0.57475 0.73589 0.63712 0.0
C189 C 0.61055 0.72078 0.62595 0.0
C190 C 0.56287 0.73626 0.67469 0.0
C191 C 0.58687 0.72185 0.70183 0.0
C192 C 0.62456 0.71069 0.69103 0.0
C193 C 0.636 0.70947 0.65324 0.0
C194 C 0.55672 0.66221 0.77802 0.0
C195 C 0.52218 0.67953 0.79039 0.0
C196 C 0.58018 0.67793 0.75193 0.0
C197 C 0.56994 0.71173 0.73811 0.0
C198 C 0.53853 0.73159 0.75502 0.0
C199 C 0.51464 0.71549 0.78072 0.0
H200 H 0.83159 0.07039 0.09523 0.0
H201 H 0.74034 0.06772 0.01202 0.0
H202 H 0.80264 0.01742 0.12193 0.0
H203 H 0.71151 0.01457 0.03885 0.0
H204 H 0.73562 0.93108 0.17414 0.0
H205 H 0.74336 0.99352 0.15442 0.0
H206 H 0.73808 0.94911 0.03759 0.0
H207 H 0.73044 0.88684 0.05736 0.0
C208 C 0.80504 0.0589 0.08302 0.0
C209 C 0.78857 0.07298 0.05121 0.0
C210 C 0.78825 0.02877 0.09854 0.0
C211 C 0.75489 0.01187 0.08236 0.0
C212 C 0.73733 0.02702 0.05173 0.0
C213 C 0.75384 0.05747 0.03647 0.0
C214 C 0.73473 0.93493 0.14431 0.0
C215 C 0.73259 0.9043 0.11719 0.0
C216 C 0.73948 0.97054 0.13305 0.0
C217 C 0.74166 0.97604 0.09452 0.0
C218 C 0.73623 0.94572 0.06748 0.0
C219 C 0.73198 0.91011 0.07873 0.0
H220 H 0.4992 0.33991 0.52471 0.0
H221 H 0.47504 0.24655 0.58818 0.0
H222 H 0.56704 0.33662 0.54104 0.0
H223 H 0.54368 0.2432 0.6045 0.0
H224 H 0.65136 0.30032 0.66973 0.0
H225 H 0.58701 0.28521 0.64563 0.0
H226 H 0.62612 0.29823 0.53233 0.0
H227 H 0.69094 0.31299 0.55639 0.0
C228 C 0.50843 0.31841 0.54191 0.0
C229 C 0.48161 0.29373 0.55549 0.0
C230 C 0.54747 0.31628 0.5509 0.0
C231 C 0.56074 0.28957 0.57395 0.0
C232 C 0.5342 0.26414 0.58676 0.0
C233 C 0.49499 0.26602 0.57736 0.0
C234 C 0.64671 0.29873 0.63951 0.0
C235 C 0.67626 0.30828 0.61501 0.0
C236 C 0.6097 0.29009 0.62571 0.0
C237 C 0.60141 0.29099 0.58717 0.0
C238 C 0.63157 0.29792 0.56229 0.0
C239 C 0.66864 0.30641 0.57606 0.0
H240 H 0.56821 0.55873 0.44084 0.0
H241 H 0.67093 0.57443 0.37491 0.0
H242 H 0.54745 0.50937 0.39445 0.0
H243 H 0.65023 0.52434 0.32868 0.0
H244 H 0.58199 0.45185 0.2376 0.0
H245 H 0.60039 0.50575 0.28048 0.0
H246 H 0.56905 0.44657 0.37593 0.0
H247 H 0.55102 0.39311 0.33351 0.0
C248 C 0.58646 0.55167 0.41649 0.0
C249 C 0.62151 0.57037 0.41189 0.0
C250 C 0.57454 0.52326 0.38992 0.0
C251 C 0.59736 0.5127 0.35808 0.0
C252 C 0.63188 0.53201 0.35281 0.0
C253 C 0.64384 0.56055 0.37944 0.0
C254 C 0.57907 0.45046 0.26775 0.0
C255 C 0.5646 0.41835 0.2821 0.0
C256 C 0.58964 0.48126 0.29228 0.0
C257 C 0.58588 0.48052 0.33158 0.0
C258 C 0.57149 0.44837 0.34579 0.0
C259 C 0.56105 0.41771 0.32141 0.0
H260 H 0.99646 0.257 0.00325 0.0
H261 H 0.98983 0.15081 0.93786 0.0
H262 H 0.06454 0.26264 0.98462 0.0
H263 H 0.05699 0.157 0.91849 0.0
H264 H 0.16718 0.19285 0.86603 0.0
H265 H 0.09911 0.20497 0.88059 0.0
H266 H 0.12559 0.21613 -0.00037 0.0
H267 H 0.19384 0.20341 0.98512 0.0
C268 C 0.00935 0.23531 0.98435 0.0
C269 C 0.98811 0.20341 0.97206 0.0
C270 C 0.04813 0.2385 0.97384 0.0
C271 C 0.06568 0.21034 0.95001 0.0
C272 C 0.04391 0.17923 0.93658 0.0
C273 C 0.00564 0.1756 0.94782 0.0
C274 C 0.15871 0.19916 0.89524 0.0
C275 C 0.18567 0.19716 0.9245 0.0
C276 C 0.11979 0.20588 0.90352 0.0
C277 C 0.10732 0.21134 0.94116 0.0
C278 C 0.13468 0.21227 0.97038 0.0
C279 C 0.17356 0.20489 0.96212 0.0
H280 H 0.30505 0.41603 0.44893 0.0
H281 H 0.22841 0.42981 0.5451 0.0
H282 H 0.27537 0.46874 0.42308 0.0
H283 H 0.1984 0.48295 0.51894 0.0
H284 H 0.22315 0.60712 0.48872 0.0
H285 H 0.22585 0.54593 0.51178 0.0
H286 H 0.21653 0.49543 0.39733 0.0
H287 H 0.21514 0.5564 0.37418 0.0
C288 C 0.28131 0.42992 0.46419 0.0
C289 C 0.26939 0.41908 0.49925 0.0
C290 C 0.264 0.45994 0.44918 0.0
C291 C 0.23456 0.48004 0.46903 0.0
C292 C 0.22114 0.46803 0.50315 0.0
C293 C 0.23821 0.43756 0.518 0.0
C294 C 0.22061 0.58292 0.46861 0.0
C295 C 0.21962 0.58663 0.42963 0.0
C296 C 0.22184 0.54786 0.48183 0.0
C297 C 0.2221 0.51592 0.45625 0.0
C298 C 0.21695 0.51962 0.41761 0.0
C299 C 0.21575 0.55463 0.40441 0.0
H300 H 0.11861 0.85876 0.91635 0.0
H301 H 0.09102 0.7425 0.91443 0.0
H302 H 0.09681 0.85906 0.85198 0.0
H303 H 0.06956 0.74249 0.84861 0.0
H304 H 0.06116 0.86215 0.73862 0.0
H305 H 0.10382 0.84054 0.78665 0.0
H306 H 0.01301 0.76874 0.8206 0.0
H307 H 0.97141 0.78913 0.77123 0.0
C308 C 0.1085 0.83298 0.90182 0.0
C309 C 0.10583 0.80077 0.92069 0.0
C310 C 0.09646 0.833 0.86453 0.0
C311 C 0.08134 0.80077 0.84492 0.0
C312 C 0.08081 0.76784 0.86302 0.0
C313 C 0.09321 0.76778 0.90059 0.0
C314 C 0.05117 0.8405 0.75529 0.0
C315 C 0.01315 0.82736 0.7516 0.0
C316 C 0.07534 0.82835 0.78301 0.0
C317 C 0.06146 0.8037 0.80823 0.0
C318 C 0.02476 0.78764 0.8017 0.0
C319 C 0.00083 0.79933 0.77347 0.0
H320 H 0.93075 0.06214 0.92342 0.0
H321 H 0.82396 0.0852 0.86705 0.0
H322 H 0.94888 0.01877 0.87044 0.0
H323 H 0.84269 0.04193 0.8134 0.0
H324 H 0.87021 0.92268 0.75642 0.0
H325 H 0.85065 0.97481 0.8004 0.0
H326 H 0.96822 0.01507 0.80459 0.0
H327 H 0.98781 0.96264 0.76078 0.0
C328 C 0.91118 0.05819 0.89963 0.0
C329 C 0.87572 0.07705 0.89971 0.0
C330 C 0.92182 0.03353 0.869 0.0
C331 C 0.89734 0.02705 0.83757 0.0
C332 C 0.86206 0.04618 0.83732 0.0
C333 C 0.85139 0.07101 0.86804 0.0
C334 C 0.89167 0.94321 0.76592 0.0
C335 C 0.93061 0.93844 0.75542 0.0
C336 C 0.88046 0.97309 0.79118 0.0
C337 C 0.90799 -0.0012 0.8064 0.0
C338 C 0.94649 0.99527 0.79397 0.0
C339 C 0.95769 0.96537 0.76882 0.0
H340 H 0.39926 0.22824 0.41971 0.0
H341 H 0.35575 0.33697 0.40309 0.0
H342 H 0.4243 0.2223 0.35506 0.0
H343 H 0.38154 0.33192 0.33989 0.0
H344 H 0.43806 0.33334 0.23549 0.0
H345 H 0.38965 0.30941 0.27698 0.0
H346 H 0.47949 0.25071 0.33127 0.0
H347 H 0.52681 0.27292 0.28823 0.0
C348 C 0.39406 0.25038 0.40192 0.0
C349 C 0.37644 0.28345 0.4167 0.0
C350 C 0.40865 0.24714 0.36497 0.0
C351 C 0.40578 0.2769 0.34231 0.0
C352 C 0.38433 0.3082 0.35604 0.0
C353 C 0.36984 0.31138 0.39269 0.0
C354 C 0.44681 0.31375 0.25506 0.0
C355 C 0.48589 0.30494 0.25898 0.0
C356 C 0.41929 0.30035 0.27915 0.0
C357 C 0.43075 0.27908 0.30841 0.0
C358 C 0.46933 0.26689 0.30919 0.0
C359 C 0.49664 0.27968 0.28456 0.0
H360 H 0.17622 0.92638 0.95703 0.0
H361 H 0.26321 0.93278 0.04457 0.0
H362 H 0.20593 0.97865 0.92989 0.0
H363 H 0.29291 0.98543 0.01726 0.0
H364 H 0.27347 0.06242 0.87641 0.0
H365 H 0.26639 0.00111 0.89891 0.0
H366 H 0.26661 0.05062 0.01411 0.0
H367 H 0.27382 0.11181 0.99158 0.0
C368 C 0.20198 0.93865 0.97019 0.0
C369 C 0.2171 0.92574 0.00318 0.0
C370 C 0.21925 0.96834 0.9544 0.0
C371 C 0.25176 0.98604 0.97148 0.0
C372 C 0.26783 0.97228 0.00362 0.0
C373 C 0.25085 0.94216 0.01916 0.0
C374 C 0.27348 0.06 0.90654 0.0
C375 C 0.27391 0.09174 0.93232 0.0
C376 C 0.26911 0.025 0.91938 0.0
C377 C 0.2655 0.02123 0.95819 0.0
C378 C 0.26952 0.05269 0.98405 0.0
C379 C 0.27349 0.08769 0.9712 0.0
H380 H 0.51231 0.64263 0.45289 0.0
H381 H 0.50414 0.7564 0.5001 0.0
H382 H 0.44512 0.6443 0.43263 0.0
H383 H 0.43585 0.75759 0.48049 0.0
H384 H 0.30493 0.69547 0.48206 0.0
H385 H 0.37226 0.7091 0.50055 0.0
H386 H 0.4074 0.68971 0.38407 0.0
H387 H 0.34064 0.67647 0.36548 0.0
C388 C 0.49608 0.66801 0.45892 0.0
C389 C 0.51332 0.69939 0.47808 0.0
C390 C 0.45777 0.66897 0.44722 0.0
C391 C 0.43562 0.70106 0.45506 0.0
C392 C 0.45259 0.73259 0.4742 0.0
C393 C 0.49149 0.73193 0.4852 0.0
C394 C 0.32697 0.69505 0.4604 0.0
C395 C 0.31758 0.68499 0.42237 0.0
C396 C 0.36528 0.70304 0.47092 0.0
C397 C 0.39467 0.70047 0.44361 0.0
C398 C 0.38505 0.69208 0.4055 0.0
C399 C 0.34685 0.68466 0.39493 0.0
H400 H 0.32459 0.41895 0.6745 0.0
H401 H 0.42977 0.43059 0.61096 0.0
H402 H 0.34675 0.46756 0.72178 0.0
H403 H 0.45186 0.47842 0.65831 0.0
H404 H 0.45096 0.59504 0.71767 0.0
H405 H 0.43103 0.54215 0.67546 0.0
H406 H 0.39713 0.4844 0.77111 0.0
H407 H 0.41757 0.53781 0.81388 0.0
C408 C 0.35254 0.43154 0.67077 0.0
C409 C 0.37512 0.42121 0.6386 0.0
C410 C 0.3653 0.45922 0.69798 0.0
C411 C 0.40084 0.47706 0.6935 0.0
C412 C 0.424 0.46568 0.66215 0.0
C413 C 0.41131 0.43816 0.63503 0.0
C414 C 0.43995 0.57086 0.72986 0.0
C415 C 0.43648 0.57037 0.76918 0.0
C416 C 0.42842 0.54055 0.70562 0.0
C417 C 0.41295 0.50895 0.71997 0.0
C418 C 0.40888 0.50847 0.75927 0.0
C419 C 0.42058 0.53895 0.7837 0.0
H420 H 0.01455 0.84188 0.1112 0.0
H421 H 0.00724 0.741 0.0369 0.0
H422 H 0.94733 0.83445 0.1297 0.0
H423 H 0.93912 0.73415 0.05479 0.0
H424 H 0.81049 0.79393 0.05879 0.0
H425 H 0.87863 0.7813 0.04386 0.0
H426 H 0.90447 0.78465 0.16279 0.0
H427 H 0.83654 0.79681 0.17775 0.0
C428 C 0.99858 0.81796 0.09908 0.0
C429 C 0.01593 0.79206 0.07258 0.0
C430 C 0.96027 0.81359 0.10984 0.0
C431 C 0.93829 0.78366 0.09374 0.0
C432 C 0.95568 0.75735 0.06764 0.0
C433 C 0.99449 0.76123 0.05754 0.0
C434 C 0.83058 0.79074 0.08161 0.0
C435 C 0.81836 0.79641 0.11938 0.0
C436 C 0.86941 0.7834 0.07309 0.0
C437 C 0.8966 0.78225 0.10225 0.0
C438 C 0.88394 0.78542 0.13989 0.0
C439 C 0.84508 0.79215 0.14839 0.0
H440 H 0.68181 0.58339 0.6031 0.0
H441 H 0.76656 0.57297 0.51348 0.0
H442 H 0.71063 0.53136 0.63079 0.0
H443 H 0.79587 0.52086 0.54171 0.0
H444 H 0.76619 0.44094 0.68083 0.0
H445 H 0.76553 0.50338 0.66069 0.0
H446 H 0.77006 0.45788 0.54413 0.0
H447 H 0.77187 0.39561 0.56435 0.0
C448 C 0.70715 0.57051 0.58975 0.0
C449 C 0.72141 0.58187 0.55568 0.0
C450 C 0.72399 0.54086 0.60589 0.0
C451 C 0.7554 0.52178 0.58828 0.0
C452 C 0.77144 0.53481 0.55569 0.0
C453 C 0.75471 0.56472 0.53963 0.0
C454 C 0.76866 0.44434 0.65099 0.0
C455 C 0.76851 0.41344 0.62408 0.0
C456 C 0.76791 0.4801 0.63945 0.0
C457 C 0.76701 0.48554 0.60083 0.0
C458 C 0.77084 0.45471 0.5741 0.0
C459 C 0.77156 0.41899 0.58563 0.0
H460 H 0.95779 0.22903 0.11567 0.0
H461 H 0.84707 0.18425 0.143 0.0
H462 H 0.97996 0.22365 0.17995 0.0
H463 H 0.86815 0.18042 0.20815 0.0
H464 H 0.94629 0.11195 0.28219 0.0
H465 H 0.90989 0.13795 0.23283 0.0
H466 H 0.98035 0.23678 0.24636 0.0
H467 H 0.01827 0.20956 0.2945 0.0
C468 C 0.9377 0.2196 0.13611 0.0
C469 C 0.90086 0.20713 0.12481 0.0
C470 C 0.95025 0.21658 0.17304 0.0
C471 C 0.92603 0.20109 0.1993 0.0
C472 C 0.88785 0.19173 0.18854 0.0
C473 C 0.87557 0.19427 0.15144 0.0
C474 C 0.95357 0.13951 0.27508 0.0
C475 C 0.98567 0.15831 0.29165 0.0
C476 C 0.93237 0.15472 0.24699 0.0
C477 C 0.94251 0.18934 0.23501 0.0
C478 C 0.97226 0.20972 0.25428 0.0
C479 C 0.99371 0.19431 0.28225 0.0
H480 H 0.12517 0.71082 0.14583 0.0
H481 H 0.23401 0.76802 0.16556 0.0
H482 H 0.13475 0.68022 0.20407 0.0
H483 H 0.2431 0.73808 0.22277 0.0
H484 H 0.27227 0.65531 0.30015 0.0
H485 H 0.25551 0.6732 0.23789 0.0
H486 H 0.14004 0.70074 0.27692 0.0
H487 H 0.1569 0.68193 0.33966 0.0
C488 C 0.15109 0.71669 0.16236 0.0
C489 C 0.17882 0.74182 0.15104 0.0
C490 C 0.15642 0.69938 0.19567 0.0
C491 C 0.18983 0.70656 0.21761 0.0
C492 C 0.21738 0.73153 0.20609 0.0
C493 C 0.21196 0.74893 0.17335 0.0
C494 C 0.24317 0.66475 0.29525 0.0
C495 C 0.21605 0.66811 0.32464 0.0
C496 C 0.23356 0.6749 0.2597 0.0
C497 C 0.19671 0.68893 0.25286 0.0
C498 C 0.16863 0.68993 0.28152 0.0
C499 C 0.17826 0.67944 0.31731 0.0
H500 H 0.7325 0.80488 0.54814 0.0
H501 H 0.80028 0.70531 0.52484 0.0
H502 H 0.7857 0.8333 0.58524 0.0
H503 H 0.85339 0.73399 0.56181 0.0
H504 H 0.90643 0.77959 0.678 0.0
H505 H 0.86112 0.75198 0.63117 0.0
H506 H 0.85428 0.85543 0.58059 0.0
H507 H 0.90038 0.88301 0.62699 0.0
C508 C 0.75887 0.78921 0.55048 0.0
C509 C 0.76194 0.75268 0.53373 0.0
C510 C 0.78942 0.80561 0.57156 0.0
C511 C 0.82356 0.78574 0.57655 0.0
C512 C 0.82721 0.74976 0.55873 0.0
C513 C 0.79682 0.73345 0.5374 0.0
C514 C 0.89607 0.79624 0.65637 0.0
C515 C 0.90693 0.83358 0.65636 0.0
C516 C 0.87002 0.78042 0.62958 0.0
C517 C 0.85408 0.80163 0.60237 0.0
C518 C 0.86578 0.8386 0.60157 0.0
C519 C 0.89208 0.85436 0.62817 0.0
H520 H 0.70377 0.2009 0.03855 0.0
H521 H 0.77412 0.2988 0.06274 0.0
H522 H 0.65356 0.22833 0.08016 0.0
H523 H 0.72355 0.3264 0.10359 0.0
H524 H 0.65138 0.33936 0.21167 0.0
H525 H 0.69831 0.31511 0.16498 0.0
H526 H 0.60564 0.27781 0.08936 0.0
H527 H 0.55841 0.30212 0.13648 0.0
C528 C 0.70834 0.22846 0.05227 0.0
C529 C 0.74321 0.24746 0.04757 0.0
C530 C 0.67943 0.24424 0.076 0.0
C531 C 0.68473 0.27938 0.09545 0.0
C532 C 0.71892 0.29896 0.08957 0.0
C533 C 0.74784 0.28318 0.06598 0.0
C534 C 0.64098 0.32646 0.18488 0.0
C535 C 0.6012 0.32292 0.1776 0.0
C536 C 0.66789 0.31258 0.15808 0.0
C537 C 0.65572 0.29481 0.12332 0.0
C538 C 0.61591 0.29113 0.11601 0.0
C539 C 0.5889 0.30503 0.14293 0.0
H540 H 0.36342 0.20477 0.64492 0.0
H541 H 0.29785 0.30002 0.69056 0.0
H542 H 0.36156 0.18021 0.7068 0.0
H543 H 0.29528 0.27532 0.75114 0.0
H544 H 0.29228 0.13153 0.80625 0.0
H545 H 0.31302 0.15406 0.74679 0.0
H546 H 0.33282 0.26251 0.80467 0.0
H547 H 0.31067 0.24014 0.86362 0.0
C548 C 0.34883 0.22053 0.66805 0.0
C549 C 0.33061 0.25426 0.66262 0.0
C550 C 0.34768 0.20643 0.70344 0.0
C551 C 0.32852 0.22593 0.734 0.0
C552 C 0.31104 0.25991 0.72856 0.0
C553 C 0.31214 0.2739 0.69348 0.0
C554 C 0.30205 0.15991 0.80628 0.0
C555 C 0.2995 0.18432 0.83921 0.0
C556 C 0.31402 0.17281 0.7723 0.0
C557 C 0.32388 0.21026 0.77086 0.0
C558 C 0.32447 0.23374 0.80465 0.0
C559 C 0.31203 0.22097 0.83841 0.0
H560 H 0.6317 0.78676 0.39599 0.0
H561 H 0.7019 0.69275 0.35573 0.0
H562 H 0.63651 0.81042 0.33396 0.0
H563 H 0.70735 0.71667 0.29477 0.0
H564 H 0.69623 0.75157 0.18058 0.0
H565 H 0.67282 0.72841 0.23871 0.0
H566 H 0.68694 0.83743 0.29719 0.0
H567 H 0.70932 0.86063 0.23874 0.0
C568 C 0.64794 0.77106 0.37397 0.0
C569 C 0.66662 0.73798 0.381 0.0
C570 C 0.65078 0.78467 0.33849 0.0
C571 C 0.67218 0.76538 0.30937 0.0
C572 C 0.69 0.73191 0.31626 0.0
C573 C 0.6872 0.71838 0.35151 0.0
C574 C 0.69353 0.77064 0.20574 0.0
C575 C 0.70486 0.80773 0.20537 0.0
C576 C 0.68032 0.75743 0.23903 0.0
C577 C 0.67868 0.78094 0.27273 0.0
C578 C 0.68758 0.81865 0.27169 0.0
C579 C 0.70047 0.83195 0.23825 0.0
H580 H 0.86023 0.29354 0.90328 0.0
H581 H 0.78842 0.19985 0.86472 0.0
H582 H 0.84684 0.32124 0.8441 0.0
H583 H 0.77541 0.22741 0.80672 0.0
H584 H 0.71584 0.30927 0.7387 0.0
H585 H 0.73678 0.28666 0.79754 0.0
H586 H 0.85575 0.30571 0.76857 0.0
H587 H 0.83476 0.32801 0.70863 0.0
C588 C 0.84195 0.27877 0.88226 0.0
C589 C 0.82491 0.24477 0.8891 0.0
C590 C 0.83445 0.29454 0.84845 0.0
C591 C 0.80967 0.27661 0.8213 0.0
C592 C 0.79406 0.24207 0.82754 0.0
C593 C 0.8016 0.22634 0.8609 0.0
C594 C 0.74651 0.30839 0.74458 0.0
C595 C 0.77373 0.31951 0.7186 0.0
C596 C 0.75844 0.2957 0.77839 0.0
C597 C 0.79785 0.29405 0.78723 0.0
C598 C 0.82518 0.3068 0.76228 0.0
C599 C 0.81319 0.31942 0.72808 0.0
H600 H 0.19212 0.29191 0.52103 0.0
H601 H 0.25873 0.19125 0.50118 0.0
H602 H 0.13821 0.26217 0.48582 0.0
H603 H 0.20492 0.16181 0.46599 0.0
H604 H 0.09186 0.1103 0.42617 0.0
H605 H 0.13639 0.14045 0.47261 0.0
H606 H 0.12977 0.24099 0.41685 0.0
H607 H 0.08601 0.2108 0.37003 0.0
C608 C 0.19511 0.26332 0.50964 0.0
C609 C 0.22987 0.24403 0.51368 0.0
C610 C 0.16429 0.24641 0.48936 0.0
C611 C 0.16744 0.20976 0.47313 0.0
C612 C 0.20153 0.18998 0.47852 0.0
C613 C 0.23247 0.20696 0.49844 0.0
C614 C 0.09974 0.1389 0.42396 0.0
C615 C 0.08565 0.15802 0.39418 0.0
C616 C 0.12514 0.15614 0.45058 0.0
C617 C 0.13668 0.19295 0.44817 0.0
C618 C 0.12103 0.2127 0.41964 0.0
C619 C 0.09587 0.19539 0.39285 0.0
H620 H 0.22947 0.69914 0.98063 0.0
H621 H 0.30126 0.79566 0.00728 0.0
H622 H 0.28034 0.67098 0.94073 0.0
H623 H 0.35202 0.76753 0.96652 0.0
H624 H 0.44656 0.68865 0.91333 0.0
H625 H 0.39889 0.716 0.95859 0.0
H626 H 0.30738 0.68277 0.88 0.0
H627 H 0.35463 0.6556 0.83523 0.0
C628 C 0.2561 0.71439 0.97804 0.0
C629 C 0.26108 0.74986 0.99692 0.0
C630 C 0.28522 0.69827 0.95501 0.0
C631 C 0.32 0.71722 0.95012 0.0
C632 C 0.32561 0.75215 0.96992 0.0
C633 C 0.29644 0.76832 0.99312 0.0
C634 C 0.41623 0.68735 0.90584 0.0
C635 C 0.40426 0.66953 0.87102 0.0
C636 C 0.389 0.703 0.93167 0.0
C637 C 0.34936 0.70113 0.92303 0.0
C638 C 0.3376 0.68385 0.88791 0.0
C639 C 0.36469 0.66827 0.86225 0.0
loop_
_geom_bond_atom_site_label_1
_geom_bond_atom_site_label_2
_geom_bond_distance
_geom_bond_site_symmetry_2
_ccdc_geom_bond_type
Sc0 O3 2.025 . S
Sc0 O10 2.105 . S
Sc0 O13 2.105 . S
Sc0 O16 2.105 . S
Sc0 O19 2.105 1_554 S
Sc1 O3 2.025 . S
Sc1 O11 2.105 1_554 S
Sc1 O15 2.105 . S
Sc1 O17 2.105 . S
Sc1 O21 2.105 . S
Sc2 O3 2.025 . S
Sc2 O12 2.105 . S
Sc2 O14 2.105 . S
Sc2 O18 2.105 . S
Sc2 O20 2.105 . S
O3 Sc0 2.025 . S
O3 Sc1 2.025 . S
O3 Sc2 2.025 . S
C4 O10 1.268 . S
C4 O20 1.268 . S
C5 O11 1.268 . S
C5 O19 1.268 . S
C6 O12 1.268 . S
C6 O21 1.268 . S
C7 O13 1.268 . S
C7 O17 1.268 . S
C8 O14 1.268 . S
C8 O16 1.268 . S
C9 O15 1.268 . S
C9 O18 1.268 . S
O10 Sc0 2.105 . S
O10 C4 1.268 . S
O11 Sc1 2.105 1_556 S
O11 C5 1.268 . S
O12 Sc2 2.105 . S
O12 C6 1.268 . S
O13 Sc0 2.105 . S
O13 C7 1.268 . S
O14 Sc2 2.105 . S
O14 C8 1.268 . S
O15 Sc1 2.105 . S
O15 C9 1.268 . S
O16 Sc0 2.105 . S
O16 C8 1.268 . S
O17 Sc1 2.105 . S
O17 C7 1.268 . S
O18 Sc2 2.105 . S
O18 C9 1.268 . S
O19 Sc0 2.105 1_556 S
O19 C5 1.268 . S
O20 Sc2 2.105 . S
O20 C4 1.268 . S
O21 Sc1 2.105 . S
O21 C6 1.268 . S
Sc22 O25 2.025 . S
Sc22 O32 2.105 . S
Sc22 O35 2.105 . S
Sc22 O38 2.105 . S
Sc22 O41 2.105 . S
Sc23 O25 2.025 . S
Sc23 O33 2.105 . S
Sc23 O37 2.105 . S
Sc23 O39 2.105 . S
Sc23 O43 2.105 . S
Sc24 O25 2.025 . S
Sc24 O34 2.105 . S
Sc24 O36 2.105 . S
Sc24 O40 2.105 . S
Sc24 O42 2.105 . S
O25 Sc22 2.025 . S
O25 Sc23 2.025 . S
O25 Sc24 2.025 . S
C26 O32 1.268 . S
C26 O42 1.268 . S
C27 O33 1.268 . S
C27 O41 1.268 . S
C28 O34 1.268 . S
C28 O43 1.268 . S
C29 O35 1.268 . S
C29 O39 1.268 . S
C30 O36 1.268 . S
C30 O38 1.268 . S
C31 O37 1.268 . S
C31 O40 1.268 . S
O32 Sc22 2.105 . S
O32 C26 1.268 . S
O33 Sc23 2.105 . S
O33 C27 1.268 . S
O34 Sc24 2.105 . S
O34 C28 1.268 . S
O35 Sc22 2.105 . S
O35 C29 1.268 . S
O36 Sc24 2.105 . S
O36 C30 1.268 . S
O37 Sc23 2.105 . S
O37 C31 1.268 . S
O38 Sc22 2.105 . S
O38 C30 1.268 . S
O39 Sc23 2.105 . S
O39 C29 1.268 . S
O40 Sc24 2.105 . S
O40 C31 1.268 . S
O41 Sc22 2.105 . S
O41 C27 1.268 . S
O42 Sc24 2.105 . S
O42 C26 1.268 . S
O43 Sc23 2.105 . S
O43 C28 1.268 . S
Sc44 O47 2.025 . S
Sc44 O54 2.105 1_554 S
Sc44 O57 2.105 . S
Sc44 O60 2.105 . S
Sc44 O63 2.105 1_554 S
Sc45 O47 2.025 1_556 S
Sc45 O55 2.105 . S
Sc45 O59 2.105 1_556 S
Sc45 O61 2.105 1_556 S
Sc45 O65 2.105 . S
Sc46 O47 2.025 . S
Sc46 O56 2.105 1_554 S
Sc46 O58 2.105 . S
Sc46 O62 2.105 . S
Sc46 O64 2.105 1_554 S
O47 Sc44 2.025 . S
O47 Sc45 2.025 1_554 S
O47 Sc46 2.025 . S
C48 O54 1.268 . S
C48 O64 1.268 . S
C49 O55 1.268 . S
C49 O63 1.268 . S
C50 O56 1.268 . S
C50 O65 1.268 . S
C51 O57 1.268 . S
C51 O61 1.268 . S
C52 O58 1.268 . S
C52 O60 1.268 . S
C53 O59 1.268 . S
C53 O62 1.268 . S
O54 Sc44 2.105 1_556 S
O54 C48 1.268 . S
O55 Sc45 2.105 . S
O55 C49 1.268 . S
O56 Sc46 2.105 1_556 S
O56 C50 1.268 . S
O57 Sc44 2.105 . S
O57 C51 1.268 . S
O58 Sc46 2.105 . S
O58 C52 1.268 . S
O59 Sc45 2.105 1_554 S
O59 C53 1.268 . S
O60 Sc44 2.105 . S
O60 C52 1.268 . S
O61 Sc45 2.105 1_554 S
O61 C51 1.268 . S
O62 Sc46 2.105 . S
O62 C53 1.268 . S
O63 Sc44 2.105 1_556 S
O63 C49 1.268 . S
O64 Sc46 2.105 1_556 S
O64 C48 1.268 . S
O65 Sc45 2.105 . S
O65 C50 1.268 . S
Sc66 O69 2.025 . S
Sc66 O76 2.105 . S
Sc66 O79 2.105 . S
Sc66 O82 2.105 . S
Sc66 O85 2.105 . S
Sc67 O69 2.025 . S
Sc67 O77 2.105 . S
Sc67 O81 2.105 . S
Sc67 O83 2.105 . S
Sc67 O87 2.105 . S
Sc68 O69 2.025 . S
Sc68 O78 2.105 . S
Sc68 O80 2.105 . S
Sc68 O84 2.105 . S
Sc68 O86 2.105 . S
O69 Sc66 2.025 . S
O69 Sc67 2.025 . S
O69 Sc68 2.025 . S
C70 O76 1.268 . S
C70 O86 1.268 . S
C71 O77 1.268 . S
C71 O85 1.268 . S
C72 O78 1.268 . S
C72 O87 1.268 . S
C73 O79 1.268 . S
C73 O83 1.268 . S
C74 O80 1.268 . S
C74 O82 1.268 . S
C75 O81 1.268 . S
C75 O84 1.268 . S
O76 Sc66 2.105 . S
O76 C70 1.268 . S
O77 Sc67 2.105 . S
O77 C71 1.268 . S
O78 Sc68 2.105 . S
O78 C72 1.268 . S
O79 Sc66 2.105 . S
O79 C73 1.268 . S
O80 Sc68 2.105 . S
O80 C74 1.268 . S
O81 Sc67 2.105 . S
O81 C75 1.268 . S
O82 Sc66 2.105 . S
O82 C74 1.268 . S
O83 Sc67 2.105 . S
O83 C73 1.268 . S
O84 Sc68 2.105 . S
O84 C75 1.268 . S
O85 Sc66 2.105 . S
O85 C71 1.268 . S
O86 Sc68 2.105 . S
O86 C70 1.268 . S
O87 Sc67 2.105 . S
O87 C72 1.268 . S
H88 C91 0.931 . S
H89 C94 0.928 . S
H90 C96 0.930 . S
C91 H88 0.931 . S
C91 C92 1.413 . S
C91 C93 1.360 . S
C92 C91 1.413 . S
C92 C96 1.429 . S
C93 C91 1.360 . S
C93 C94 1.372 . S
C94 H89 0.928 . S
C94 C93 1.372 . S
C94 C95 1.404 . S
C95 C94 1.404 . S
C95 C96 1.391 . S
C96 H90 0.930 . S
C96 C92 1.429 . S
C96 C95 1.391 . S
H97 C100 0.931 . S
H98 C103 0.928 . S
H99 C105 0.930 . S
C100 H97 0.931 . S
C100 C101 1.413 . S
C100 C102 1.360 . S
C101 C100 1.413 . S
C101 C105 1.429 . S
C102 C100 1.360 . S
C102 C103 1.372 . S
C103 H98 0.928 . S
C103 C102 1.372 . S
C103 C104 1.404 . S
C104 C103 1.404 . S
C104 C105 1.391 . S
C105 H99 0.930 . S
C105 C101 1.429 . S
C105 C104 1.391 . S
H106 C109 0.931 . S
H107 C112 0.928 . S
H108 C114 0.930 . S
C109 H106 0.931 . S
C109 C110 1.413 . S
C109 C111 1.360 . S
C110 C109 1.413 . S
C110 C114 1.429 . S
C111 C109 1.360 . S
C111 C112 1.372 . S
C112 H107 0.928 . S
C112 C111 1.372 . S
C112 C113 1.404 . S
C113 C112 1.404 . S
C113 C114 1.391 . S
C114 H108 0.930 . S
C114 C110 1.429 . S
C114 C113 1.391 . S
H115 C118 0.931 . S
H116 C121 0.928 . S
H117 C123 0.930 . S
C118 H115 0.931 . S
C118 C119 1.413 . S
C118 C120 1.360 . S
C119 C118 1.413 . S
C119 C123 1.429 . S
C120 C118 1.360 . S
C120 C121 1.372 . S
C121 H116 0.928 . S
C121 C120 1.372 . S
C121 C122 1.404 . S
C122 C121 1.404 . S
C122 C123 1.391 . S
C123 H117 0.930 . S
C123 C119 1.429 . S
C123 C122 1.391 . S
H124 C127 0.931 . S
H125 C130 0.928 . S
H126 C132 0.930 . S
C127 H124 0.931 . S
C127 C128 1.413 . S
C127 C129 1.360 . S
C128 C127 1.413 . S
C128 C132 1.429 . S
C129 C127 1.360 . S
C129 C130 1.372 . S
C130 H125 0.928 . S
C130 C129 1.372 . S
C130 C131 1.404 . S
C131 C130 1.404 . S
C131 C132 1.391 . S
C132 H126 0.930 . S
C132 C128 1.429 . S
C132 C131 1.391 . S
H133 C136 0.931 . S
H134 C139 0.928 . S
H135 C141 0.930 . S
C136 H133 0.931 . S
C136 C137 1.413 . S
C136 C138 1.360 . S
C137 C136 1.413 . S
C137 C141 1.429 . S
C138 C136 1.360 . S
C138 C139 1.372 . S
C139 H134 0.928 . S
C139 C138 1.372 . S
C139 C140 1.404 . S
C140 C139 1.404 . S
C140 C141 1.391 . S
C141 H135 0.930 . S
C141 C137 1.429 . S
C141 C140 1.391 . S
H142 C145 0.931 . S
H143 C148 0.928 . S
H144 C150 0.930 . S
C145 H142 0.931 . S
C145 C146 1.413 . S
C145 C147 1.360 . S
C146 C145 1.413 . S
C146 C150 1.429 . S
C147 C145 1.360 . S
C147 C148 1.372 . S
C148 H143 0.928 . S
C148 C147 1.372 . S
C148 C149 1.404 . S
C149 C148 1.404 . S
C149 C150 1.391 . S
C150 H144 0.930 . S
C150 C146 1.429 . S
C150 C149 1.391 . S
H151 C154 0.931 . S
H152 C157 0.928 . S
H153 C159 0.930 . S
C154 H151 0.931 . S
C154 C155 1.413 . S
C154 C156 1.360 . S
C155 C154 1.413 . S
C155 C159 1.429 . S
C156 C154 1.360 . S
C156 C157 1.372 . S
C157 H152 0.928 . S
C157 C156 1.372 . S
C157 C158 1.404 . S
C158 C157 1.404 . S
C158 C159 1.391 . S
C159 H153 0.930 . S
C159 C155 1.429 . S
C159 C158 1.391 . S
H160 C168 0.950 . S
H161 C173 0.950 . S
H162 C170 0.950 . S
H163 C172 0.950 1_545 S
H164 C174 0.950 . S
H165 C176 0.950 . S
H166 C178 0.950 . S
H167 C179 0.950 . S
C168 H160 0.950 . S
C168 C169 1.386 . S
C168 C170 1.391 . S
C169 C168 1.386 . S
C169 C173 1.393 . S
C170 H162 0.950 . S
C170 C168 1.391 . S
C170 C171 1.400 . S
C171 C170 1.400 . S
C171 C172 1.398 . S
C171 C177 1.509 . S
C172 H163 0.950 1_565 S
C172 C171 1.398 . S
C172 C173 1.391 . S
C173 H161 0.950 . S
C173 C169 1.393 . S
C173 C172 1.391 . S
C174 H164 0.950 . S
C174 C175 1.386 . S
C174 C176 1.391 . S
C175 C174 1.386 . S
C175 C179 1.393 . S
C176 H165 0.950 . S
C176 C174 1.391 . S
C176 C177 1.373 1_545 S
C177 C171 1.509 . S
C177 C176 1.373 1_565 S
C177 C178 1.407 . S
C178 H166 0.950 . S
C178 C177 1.407 . S
C178 C179 1.391 1_565 S
C179 H167 0.950 . S
C179 C175 1.393 . S
C179 C178 1.391 1_545 S
H180 C188 0.950 . S
H181 C193 0.950 . S
H182 C190 0.950 . S
H183 C192 0.950 . S
H184 C194 0.950 . S
H185 C196 0.950 . S
H186 C198 0.950 . S
H187 C199 0.950 . S
C188 H180 0.950 . S
C188 C189 1.386 . S
C188 C190 1.391 . S
C189 C188 1.386 . S
C189 C193 1.393 . S
C190 H182 0.950 . S
C190 C188 1.391 . S
C190 C191 1.400 . S
C191 C190 1.400 . S
C191 C192 1.398 . S
C191 C197 1.491 . S
C192 H183 0.950 . S
C192 C191 1.398 . S
C192 C193 1.391 . S
C193 H181 0.950 . S
C193 C189 1.393 . S
C193 C192 1.391 . S
C194 H184 0.950 . S
C194 C195 1.386 . S
C194 C196 1.391 . S
C195 C194 1.386 . S
C195 C199 1.393 . S
C196 H185 0.950 . S
C196 C194 1.391 . S
C196 C197 1.400 . S
C197 C191 1.491 . S
C197 C196 1.400 . S
C197 C198 1.398 . S
C198 H186 0.950 . S
C198 C197 1.398 . S
C198 C199 1.391 . S
C199 H187 0.950 . S
C199 C195 1.393 . S
C199 C198 1.391 . S
H200 C208 0.950 . S
H201 C213 0.950 . S
H202 C210 0.950 1_565 S
H203 C212 0.950 . S
H204 C214 0.950 . S
H205 C216 0.950 . S
H206 C218 0.950 . S
H207 C219 0.950 . S
C208 H200 0.950 . S
C208 C209 1.386 . S
C208 C210 1.391 . S
C209 C208 1.386 . S
C209 C213 1.393 . S
C210 H202 0.950 1_545 S
C210 C208 1.391 . S
C210 C211 1.400 . S
C211 C210 1.400 . S
C211 C212 1.398 . S
C211 C217 1.491 1_545 S
C212 H203 0.950 . S
C212 C211 1.398 . S
C212 C213 1.391 . S
C213 H201 0.950 . S
C213 C209 1.393 . S
C213 C212 1.391 . S
C214 H204 0.950 . S
C214 C215 1.386 . S
C214 C216 1.391 . S
C215 C214 1.386 . S
C215 C219 1.393 . S
C216 H205 0.950 . S
C216 C214 1.391 . S
C216 C217 1.400 . S
C217 C211 1.491 1_565 S
C217 C216 1.400 . S
C217 C218 1.398 . S
C218 H206 0.950 . S
C218 C217 1.398 . S
C218 C219 1.391 . S
C219 H207 0.950 . S
C219 C215 1.393 . S
C219 C218 1.391 . S
H220 C228 0.950 . S
H221 C233 0.950 . S
H222 C230 0.950 . S
H223 C232 0.950 . S
H224 C234 0.950 . S
H225 C236 0.950 . S
H226 C238 0.950 . S
H227 C239 0.950 . S
C228 H220 0.950 . S
C228 C229 1.386 . S
C228 C230 1.391 . S
C229 C228 1.386 . S
C229 C233 1.393 . S
C230 H222 0.950 . S
C230 C228 1.391 . S
C230 C231 1.400 . S
C231 C230 1.400 . S
C231 C232 1.398 . S
C231 C237 1.491 . S
C232 H223 0.950 . S
C232 C231 1.398 . S
C232 C233 1.391 . S
C233 H221 0.950 . S
C233 C229 1.393 . S
C233 C232 1.391 . S
C234 H224 0.950 . S
C234 C235 1.386 . S
C234 C236 1.391 . S
C235 C234 1.386 . S
C235 C239 1.393 . S
C236 H225 0.950 . S
C236 C234 1.391 . S
C236 C237 1.400 . S
C237 C231 1.491 . S
C237 C236 1.400 . S
C237 C238 1.398 . S
C238 H226 0.950 . S
C238 C237 1.398 . S
C238 C239 1.391 . S
C239 H227 0.950 . S
C239 C235 1.393 . S
C239 C238 1.391 . S
H240 C248 0.950 . S
H241 C253 0.950 . S
H242 C250 0.950 . S
H243 C252 0.950 . S
H244 C254 0.950 . S
H245 C256 0.950 . S
H246 C258 0.950 . S
H247 C259 0.950 . S
C248 H240 0.950 . S
C248 C249 1.386 . S
C248 C250 1.391 . S
C249 C248 1.386 . S
C249 C253 1.393 . S
C250 H242 0.950 . S
C250 C248 1.391 . S
C250 C251 1.400 . S
C251 C250 1.400 . S
C251 C252 1.398 . S
C251 C257 1.491 . S
C252 H243 0.950 . S
C252 C251 1.398 . S
C252 C253 1.391 . S
C253 H241 0.950 . S
C253 C249 1.393 . S
C253 C252 1.391 . S
C254 H244 0.950 . S
C254 C255 1.386 . S
C254 C256 1.391 . S
C255 C254 1.386 . S
C255 C259 1.393 . S
C256 H245 0.950 . S
C256 C254 1.391 . S
C256 C257 1.400 . S
C257 C251 1.491 . S
C257 C256 1.400 . S
C257 C258 1.398 . S
C258 H246 0.950 . S
C258 C257 1.398 . S
C258 C259 1.391 . S
C259 H247 0.950 . S
C259 C255 1.393 . S
C259 C258 1.391 . S
H260 C268 0.950 . S
H261 C273 0.950 . S
H262 C270 0.950 . S
H263 C272 0.950 . S
H264 C274 0.950 . S
H265 C276 0.950 . S
H266 C278 0.950 . S
H267 C279 0.950 . S
C268 H260 0.950 . S
C268 C269 1.386 . S
C268 C270 1.391 1_655 S
C269 C268 1.386 . S
C269 C273 1.393 . S
C270 H262 0.950 . S
C270 C268 1.391 1_455 S
C270 C271 1.400 . S
C271 C270 1.400 . S
C271 C272 1.398 . S
C271 C277 1.491 . S
C272 H263 0.950 . S
C272 C271 1.398 . S
C272 C273 1.391 1_455 S
C273 H261 0.950 . S
C273 C269 1.393 . S
C273 C272 1.391 1_655 S
C274 H264 0.950 . S
C274 C275 1.386 . S
C274 C276 1.391 . S
C275 C274 1.386 . S
C275 C279 1.393 . S
C276 H265 0.950 . S
C276 C274 1.391 . S
C276 C277 1.400 . S
C277 C271 1.491 . S
C277 C276 1.400 . S
C277 C278 1.398 . S
C278 H266 0.950 . S
C278 C277 1.398 . S
C278 C279 1.391 . S
C279 H267 0.950 . S
C279 C275 1.393 . S
C279 C278 1.391 . S
H280 C288 0.950 . S
H281 C293 0.950 . S
H282 C290 0.950 . S
H283 C292 0.950 . S
H284 C294 0.950 . S
H285 C296 0.950 . S
H286 C298 0.950 . S
H287 C299 0.950 . S
C288 H280 0.950 . S
C288 C289 1.386 . S
C288 C290 1.391 . S
C289 C288 1.386 . S
C289 C293 1.393 . S
C290 H282 0.950 . S
C290 C288 1.391 . S
C290 C291 1.400 . S
C291 C290 1.400 . S
C291 C292 1.398 . S
C291 C297 1.491 . S
C292 H283 0.950 . S
C292 C291 1.398 . S
C292 C293 1.391 . S
C293 H281 0.950 . S
C293 C289 1.393 . S
C293 C292 1.391 . S
C294 H284 0.950 . S
C294 C295 1.386 . S
C294 C296 1.391 . S
C295 C294 1.386 . S
C295 C299 1.393 . S
C296 H285 0.950 . S
C296 C294 1.391 . S
C296 C297 1.400 . S
C297 C291 1.491 . S
C297 C296 1.400 . S
C297 C298 1.398 . S
C298 H286 0.950 . S
C298 C297 1.398 . S
C298 C299 1.391 . S
C299 H287 0.950 . S
C299 C295 1.393 . S
C299 C298 1.391 . S
H300 C308 0.950 . S
H301 C313 0.950 . S
H302 C310 0.950 . S
H303 C312 0.950 . S
H304 C314 0.950 . S
H305 C316 0.950 . S
H306 C318 0.950 1_655 S
H307 C319 0.950 . S
C308 H300 0.950 . S
C308 C309 1.386 . S
C308 C310 1.391 . S
C309 C308 1.386 . S
C309 C313 1.393 . S
C310 H302 0.950 . S
C310 C308 1.391 . S
C310 C311 1.400 . S
C311 C310 1.400 . S
C311 C312 1.398 . S
C311 C317 1.491 . S
C312 H303 0.950 . S
C312 C311 1.398 . S
C312 C313 1.391 . S
C313 H301 0.950 . S
C313 C309 1.393 . S
C313 C312 1.391 . S
C314 H304 0.950 . S
C314 C315 1.386 1_455 S
C314 C316 1.391 . S
C315 C314 1.386 1_655 S
C315 C319 1.393 . S
C316 H305 0.950 . S
C316 C314 1.391 . S
C316 C317 1.400 . S
C317 C311 1.491 . S
C317 C316 1.400 . S
C317 C318 1.398 . S
C318 H306 0.950 1_455 S
C318 C317 1.398 . S
C318 C319 1.391 1_455 S
C319 H307 0.950 . S
C319 C315 1.393 . S
C319 C318 1.391 1_655 S
H320 C328 0.950 . S
H321 C333 0.950 . S
H322 C330 0.950 . S
H323 C332 0.950 . S
H324 C334 0.950 . S
H325 C336 0.950 . S
H326 C338 0.950 1_545 S
H327 C339 0.950 . S
C328 H320 0.950 . S
C328 C329 1.386 . S
C328 C330 1.391 . S
C329 C328 1.386 . S
C329 C333 1.393 . S
C330 H322 0.950 . S
C330 C328 1.391 . S
C330 C331 1.400 . S
C331 C330 1.400 . S
C331 C332 1.398 . S
C331 C337 1.491 . S
C332 H323 0.950 . S
C332 C331 1.398 . S
C332 C333 1.391 . S
C333 H321 0.950 . S
C333 C329 1.393 . S
C333 C332 1.391 . S
C334 H324 0.950 . S
C334 C335 1.386 . S
C334 C336 1.391 . S
C335 C334 1.386 . S
C335 C339 1.393 . S
C336 H325 0.950 . S
C336 C334 1.391 . S
C336 C337 1.400 1_565 S
C337 C331 1.491 . S
C337 C336 1.400 1_545 S
C337 C338 1.398 1_545 S
C338 H326 0.950 1_565 S
C338 C337 1.398 1_565 S
C338 C339 1.391 . S
C339 H327 0.950 . S
C339 C335 1.393 . S
C339 C338 1.391 . S
H340 C348 0.950 . S
H341 C353 0.950 . S
H342 C350 0.950 . S
H343 C352 0.950 . S
H344 C354 0.950 . S
H345 C356 0.950 . S
H346 C358 0.950 . S
H347 C359 0.950 . S
C348 H340 0.950 . S
C348 C349 1.386 . S
C348 C350 1.391 . S
C349 C348 1.386 . S
C349 C353 1.393 . S
C350 H342 0.950 . S
C350 C348 1.391 . S
C350 C351 1.400 . S
C351 C350 1.400 . S
C351 C352 1.398 . S
C351 C357 1.491 . S
C352 H343 0.950 . S
C352 C351 1.398 . S
C352 C353 1.391 . S
C353 H341 0.950 . S
C353 C349 1.393 . S
C353 C352 1.391 . S
C354 H344 0.950 . S
C354 C355 1.386 . S
C354 C356 1.391 . S
C355 C354 1.386 . S
C355 C359 1.393 . S
C356 H345 0.950 . S
C356 C354 1.391 . S
C356 C357 1.400 . S
C357 C351 1.491 . S
C357 C356 1.400 . S
C357 C358 1.398 . S
C358 H346 0.950 . S
C358 C357 1.398 . S
C358 C359 1.391 . S
C359 H347 0.950 . S
C359 C355 1.393 . S
C359 C358 1.391 . S
H360 C368 0.950 . S
H361 C373 0.950 . S
H362 C370 0.950 1_544 S
H363 C372 0.950 . S
H364 C374 0.950 . S
H365 C376 0.950 . S
H366 C378 0.950 . S
H367 C379 0.950 . S
C368 H360 0.950 . S
C368 C369 1.386 1_554 S
C368 C370 1.391 1_554 S
C369 C368 1.386 1_556 S
C369 C373 1.393 . S
C370 H362 0.950 1_566 S
C370 C368 1.391 1_556 S
C370 C371 1.400 . S
C371 C370 1.400 . S
C371 C372 1.398 . S
C371 C377 1.491 1_565 S
C372 H363 0.950 . S
C372 C371 1.398 . S
C372 C373 1.391 . S
C373 H361 0.950 . S
C373 C369 1.393 . S
C373 C372 1.391 . S
C374 H364 0.950 . S
C374 C375 1.386 . S
C374 C376 1.391 . S
C375 C374 1.386 . S
C375 C379 1.393 . S
C376 H365 0.950 . S
C376 C374 1.391 . S
C376 C377 1.400 . S
C377 C371 1.491 1_545 S
C377 C376 1.400 . S
C377 C378 1.398 . S
C378 H366 0.950 . S
C378 C377 1.398 . S
C378 C379 1.391 . S
C379 H367 0.950 . S
C379 C375 1.393 . S
C379 C378 1.391 . S
H380 C388 0.950 . S
H381 C393 0.950 . S
H382 C390 0.950 . S
H383 C392 0.950 . S
H384 C394 0.950 . S
H385 C396 0.950 . S
H386 C398 0.950 . S
H387 C399 0.950 . S
C388 H380 0.950 . S
C388 C389 1.386 . S
C388 C390 1.391 . S
C389 C388 1.386 . S
C389 C393 1.393 . S
C390 H382 0.950 . S
C390 C388 1.391 . S
C390 C391 1.400 . S
C391 C390 1.400 . S
C391 C392 1.398 . S
C391 C397 1.491 . S
C392 H383 0.950 . S
C392 C391 1.398 . S
C392 C393 1.391 . S
C393 H381 0.950 . S
C393 C389 1.393 . S
C393 C392 1.391 . S
C394 H384 0.950 . S
C394 C395 1.386 . S
C394 C396 1.391 . S
C395 C394 1.386 . S
C395 C399 1.393 . S
C396 H385 0.950 . S
C396 C394 1.391 . S
C396 C397 1.400 . S
C397 C391 1.491 . S
C397 C396 1.400 . S
C397 C398 1.398 . S
C398 H386 0.950 . S
C398 C397 1.398 . S
C398 C399 1.391 . S
C399 H387 0.950 . S
C399 C395 1.393 . S
C399 C398 1.391 . S
H400 C408 0.950 . S
H401 C413 0.950 . S
H402 C410 0.950 . S
H403 C412 0.950 . S
H404 C414 0.950 . S
H405 C416 0.950 . S
H406 C418 0.950 . S
H407 C419 0.950 . S
C408 H400 0.950 . S
C408 C409 1.386 . S
C408 C410 1.391 . S
C409 C408 1.386 . S
C409 C413 1.393 . S
C410 H402 0.950 . S
C410 C408 1.391 . S
C410 C411 1.400 . S
C411 C410 1.400 . S
C411 C412 1.398 . S
C411 C417 1.491 . S
C412 H403 0.950 . S
C412 C411 1.398 . S
C412 C413 1.391 . S
C413 H401 0.950 . S
C413 C409 1.393 . S
C413 C412 1.391 . S
C414 H404 0.950 . S
C414 C415 1.386 . S
C414 C416 1.391 . S
C415 C414 1.386 . S
C415 C419 1.393 . S
C416 H405 0.950 . S
C416 C414 1.391 . S
C416 C417 1.400 . S
C417 C411 1.491 . S
C417 C416 1.400 . S
C417 C418 1.398 . S
C418 H406 0.950 . S
C418 C417 1.398 . S
C418 C419 1.391 . S
C419 H407 0.950 . S
C419 C415 1.393 . S
C419 C418 1.391 . S
H420 C428 0.950 . S
H421 C433 0.950 . S
H422 C430 0.950 . S
H423 C432 0.950 . S
H424 C434 0.950 . S
H425 C436 0.950 . S
H426 C438 0.950 . S
H427 C439 0.950 . S
C428 H420 0.950 . S
C428 C429 1.386 . S
C428 C430 1.391 1_455 S
C429 C428 1.386 . S
C429 C433 1.393 . S
C430 H422 0.950 . S
C430 C428 1.391 1_655 S
C430 C431 1.400 . S
C431 C430 1.400 . S
C431 C432 1.398 . S
C431 C437 1.491 . S
C432 H423 0.950 . S
C432 C431 1.398 . S
C432 C433 1.391 1_655 S
C433 H421 0.950 . S
C433 C429 1.393 . S
C433 C432 1.391 1_455 S
C434 H424 0.950 . S
C434 C435 1.386 . S
C434 C436 1.391 . S
C435 C434 1.386 . S
C435 C439 1.393 . S
C436 H425 0.950 . S
C436 C434 1.391 . S
C436 C437 1.400 . S
C437 C431 1.491 . S
C437 C436 1.400 . S
C437 C438 1.398 . S
C438 H426 0.950 . S
C438 C437 1.398 . S
C438 C439 1.391 . S
C439 H427 0.950 . S
C439 C435 1.393 . S
C439 C438 1.391 . S
H440 C448 0.950 . S
H441 C453 0.950 . S
H442 C450 0.950 . S
H443 C452 0.950 . S
H444 C454 0.950 . S
H445 C456 0.950 . S
H446 C458 0.950 . S
H447 C459 0.950 . S
C448 H440 0.950 . S
C448 C449 1.386 . S
C448 C450 1.391 . S
C449 C448 1.386 . S
C449 C453 1.393 . S
C450 H442 0.950 . S
C450 C448 1.391 . S
C450 C451 1.400 . S
C451 C450 1.400 . S
C451 C452 1.398 . S
C451 C457 1.491 . S
C452 H443 0.950 . S
C452 C451 1.398 . S
C452 C453 1.391 . S
C453 H441 0.950 . S
C453 C449 1.393 . S
C453 C452 1.391 . S
C454 H444 0.950 . S
C454 C455 1.386 . S
C454 C456 1.391 . S
C455 C454 1.386 . S
C455 C459 1.393 . S
C456 H445 0.950 . S
C456 C454 1.391 . S
C456 C457 1.400 . S
C457 C451 1.491 . S
C457 C456 1.400 . S
C457 C458 1.398 . S
C458 H446 0.950 . S
C458 C457 1.398 . S
C458 C459 1.391 . S
C459 H447 0.950 . S
C459 C455 1.393 . S
C459 C458 1.391 . S
H460 C468 0.950 . S
H461 C473 0.950 . S
H462 C470 0.950 . S
H463 C472 0.950 . S
H464 C474 0.950 . S
H465 C476 0.950 . S
H466 C478 0.950 . S
H467 C479 0.950 . S
C468 H460 0.950 . S
C468 C469 1.386 . S
C468 C470 1.391 . S
C469 C468 1.386 . S
C469 C473 1.393 . S
C470 H462 0.950 . S
C470 C468 1.391 . S
C470 C471 1.400 . S
C471 C470 1.400 . S
C471 C472 1.398 . S
C471 C477 1.491 . S
C472 H463 0.950 . S
C472 C471 1.398 . S
C472 C473 1.391 . S
C473 H461 0.950 . S
C473 C469 1.393 . S
C473 C472 1.391 . S
C474 H464 0.950 . S
C474 C475 1.386 1_655 S
C474 C476 1.391 . S
C475 C474 1.386 1_455 S
C475 C479 1.393 . S
C476 H465 0.950 . S
C476 C474 1.391 . S
C476 C477 1.400 . S
C477 C471 1.491 . S
C477 C476 1.400 . S
C477 C478 1.398 1_655 S
C478 H466 0.950 . S
C478 C477 1.398 1_455 S
C478 C479 1.391 . S
C479 H467 0.950 . S
C479 C475 1.393 . S
C479 C478 1.391 . S
H480 C488 0.950 . S
H481 C493 0.950 . S
H482 C490 0.950 . S
H483 C492 0.950 . S
H484 C494 0.950 . S
H485 C496 0.950 . S
H486 C498 0.950 . S
H487 C499 0.950 . S
C488 H480 0.950 . S
C488 C489 1.386 . S
C488 C490 1.391 . S
C489 C488 1.386 . S
C489 C493 1.393 . S
C490 H482 0.950 . S
C490 C488 1.391 . S
C490 C491 1.400 . S
C491 C490 1.400 . S
C491 C492 1.398 . S
C491 C497 1.491 . S
C492 H483 0.950 . S
C492 C491 1.398 . S
C492 C493 1.391 . S
C493 H481 0.950 . S
C493 C489 1.393 . S
C493 C492 1.391 . S
C494 H484 0.950 . S
C494 C495 1.386 . S
C494 C496 1.391 . S
C495 C494 1.386 . S
C495 C499 1.393 . S
C496 H485 0.950 . S
C496 C494 1.391 . S
C496 C497 1.400 . S
C497 C491 1.491 . S
C497 C496 1.400 . S
C497 C498 1.398 . S
C498 H486 0.950 . S
C498 C497 1.398 . S
C498 C499 1.391 . S
C499 H487 0.950 . S
C499 C495 1.393 . S
C499 C498 1.391 . S
H500 C508 0.950 . S
H501 C513 0.950 . S
H502 C510 0.950 . S
H503 C512 0.950 . S
H504 C514 0.950 . S
H505 C516 0.950 . S
H506 C518 0.950 . S
H507 C519 0.950 . S
C508 H500 0.950 . S
C508 C509 1.386 . S
C508 C510 1.391 . S
C509 C508 1.386 . S
C509 C513 1.393 . S
C510 H502 0.950 . S
C510 C508 1.391 . S
C510 C511 1.400 . S
C511 C510 1.400 . S
C511 C512 1.398 . S
C511 C517 1.491 . S
C512 H503 0.950 . S
C512 C511 1.398 . S
C512 C513 1.391 . S
C513 H501 0.950 . S
C513 C509 1.393 . S
C513 C512 1.391 . S
C514 H504 0.950 . S
C514 C515 1.386 . S
C514 C516 1.391 . S
C515 C514 1.386 . S
C515 C519 1.393 . S
C516 H505 0.950 . S
C516 C514 1.391 . S
C516 C517 1.400 . S
C517 C511 1.491 . S
C517 C516 1.400 . S
C517 C518 1.398 . S
C518 H506 0.950 . S
C518 C517 1.398 . S
C518 C519 1.391 . S
C519 H507 0.950 . S
C519 C515 1.393 . S
C519 C518 1.391 . S
H520 C528 0.950 . S
H521 C533 0.950 . S
H522 C530 0.950 . S
H523 C532 0.950 . S
H524 C534 0.950 . S
H525 C536 0.950 . S
H526 C538 0.950 . S
H527 C539 0.950 . S
C528 H520 0.950 . S
C528 C529 1.386 . S
C528 C530 1.391 . S
C529 C528 1.386 . S
C529 C533 1.393 . S
C530 H522 0.950 . S
C530 C528 1.391 . S
C530 C531 1.400 . S
C531 C530 1.400 . S
C531 C532 1.398 . S
C531 C537 1.491 . S
C532 H523 0.950 . S
C532 C531 1.398 . S
C532 C533 1.391 . S
C533 H521 0.950 . S
C533 C529 1.393 . S
C533 C532 1.391 . S
C534 H524 0.950 . S
C534 C535 1.386 . S
C534 C536 1.391 . S
C535 C534 1.386 . S
C535 C539 1.393 . S
C536 H525 0.950 . S
C536 C534 1.391 . S
C536 C537 1.400 . S
C537 C531 1.491 . S
C537 C536 1.400 . S
C537 C538 1.398 . S
C538 H526 0.950 . S
C538 C537 1.398 . S
C538 C539 1.391 . S
C539 H527 0.950 . S
C539 C535 1.393 . S
C539 C538 1.391 . S
H540 C548 0.950 . S
H541 C553 0.950 . S
H542 C550 0.950 . S
H543 C552 0.950 . S
H544 C554 0.950 . S
H545 C556 0.950 . S
H546 C558 0.950 . S
H547 C559 0.950 . S
C548 H540 0.950 . S
C548 C549 1.386 . S
C548 C550 1.391 . S
C549 C548 1.386 . S
C549 C553 1.393 . S
C550 H542 0.950 . S
C550 C548 1.391 . S
C550 C551 1.400 . S
C551 C550 1.400 . S
C551 C552 1.398 . S
C551 C557 1.491 . S
C552 H543 0.950 . S
C552 C551 1.398 . S
C552 C553 1.391 . S
C553 H541 0.950 . S
C553 C549 1.393 . S
C553 C552 1.391 . S
C554 H544 0.950 . S
C554 C555 1.386 . S
C554 C556 1.391 . S
C555 C554 1.386 . S
C555 C559 1.393 . S
C556 H545 0.950 . S
C556 C554 1.391 . S
C556 C557 1.400 . S
C557 C551 1.491 . S
C557 C556 1.400 . S
C557 C558 1.398 . S
C558 H546 0.950 . S
C558 C557 1.398 . S
C558 C559 1.391 . S
C559 H547 0.950 . S
C559 C555 1.393 . S
C559 C558 1.391 . S
H560 C568 0.950 . S
H561 C573 0.950 . S
H562 C570 0.950 . S
H563 C572 0.950 . S
H564 C574 0.950 . S
H565 C576 0.950 . S
H566 C578 0.950 . S
H567 C579 0.950 . S
C568 H560 0.950 . S
C568 C569 1.386 . S
C568 C570 1.391 . S
C569 C568 1.386 . S
C569 C573 1.393 . S
C570 H562 0.950 . S
C570 C568 1.391 . S
C570 C571 1.400 . S
C571 C570 1.400 . S
C571 C572 1.398 . S
C571 C577 1.491 . S
C572 H563 0.950 . S
C572 C571 1.398 . S
C572 C573 1.391 . S
C573 H561 0.950 . S
C573 C569 1.393 . S
C573 C572 1.391 . S
C574 H564 0.950 . S
C574 C575 1.386 . S
C574 C576 1.391 . S
C575 C574 1.386 . S
C575 C579 1.393 . S
C576 H565 0.950 . S
C576 C574 1.391 . S
C576 C577 1.400 . S
C577 C571 1.491 . S
C577 C576 1.400 . S
C577 C578 1.398 . S
C578 H566 0.950 . S
C578 C577 1.398 . S
C578 C579 1.391 . S
C579 H567 0.950 . S
C579 C575 1.393 . S
C579 C578 1.391 . S
H580 C588 0.950 . S
H581 C593 0.950 . S
H582 C590 0.950 . S
H583 C592 0.950 . S
H584 C594 0.950 . S
H585 C596 0.950 . S
H586 C598 0.950 . S
H587 C599 0.950 . S
C588 H580 0.950 . S
C588 C589 1.386 . S
C588 C590 1.391 . S
C589 C588 1.386 . S
C589 C593 1.393 . S
C590 H582 0.950 . S
C590 C588 1.391 . S
C590 C591 1.400 . S
C591 C590 1.400 . S
C591 C592 1.398 . S
C591 C597 1.491 . S
C592 H583 0.950 . S
C592 C591 1.398 . S
C592 C593 1.391 . S
C593 H581 0.950 . S
C593 C589 1.393 . S
C593 C592 1.391 . S
C594 H584 0.950 . S
C594 C595 1.386 . S
C594 C596 1.391 . S
C595 C594 1.386 . S
C595 C599 1.393 . S
C596 H585 0.950 . S
C596 C594 1.391 . S
C596 C597 1.400 . S
C597 C591 1.491 . S
C597 C596 1.400 . S
C597 C598 1.398 . S
C598 H586 0.950 . S
C598 C597 1.398 . S
C598 C599 1.391 . S
C599 H587 0.950 . S
C599 C595 1.393 . S
C599 C598 1.391 . S
H600 C608 0.950 . S
H601 C613 0.950 . S
H602 C610 0.950 . S
H603 C612 0.950 . S
H604 C614 0.950 . S
H605 C616 0.950 . S
H606 C618 0.950 . S
H607 C619 0.950 . S
C608 H600 0.950 . S
C608 C609 1.386 . S
C608 C610 1.391 . S
C609 C608 1.386 . S
C609 C613 1.393 . S
C610 H602 0.950 . S
C610 C608 1.391 . S
C610 C611 1.400 . S
C611 C610 1.400 . S
C611 C612 1.398 . S
C611 C617 1.491 . S
C612 H603 0.950 . S
C612 C611 1.398 . S
C612 C613 1.391 . S
C613 H601 0.950 . S
C613 C609 1.393 . S
C613 C612 1.391 . S
C614 H604 0.950 . S
C614 C615 1.386 . S
C614 C616 1.391 . S
C615 C614 1.386 . S
C615 C619 1.393 . S
C616 H605 0.950 . S
C616 C614 1.391 . S
C616 C617 1.400 . S
C617 C611 1.491 . S
C617 C616 1.400 . S
C617 C618 1.398 . S
C618 H606 0.950 . S
C618 C617 1.398 . S
C618 C619 1.391 . S
C619 H607 0.950 . S
C619 C615 1.393 . S
C619 C618 1.391 . S
H620 C628 0.950 . S
H621 C633 0.950 . S
H622 C630 0.950 . S
H623 C632 0.950 . S
H624 C634 0.950 . S
H625 C636 0.950 . S
H626 C638 0.950 . S
H627 C639 0.950 . S
C628 H620 0.950 . S
C628 C629 1.386 . S
C628 C630 1.391 . S
C629 C628 1.386 . S
C629 C633 1.393 1_556 S
C630 H622 0.950 . S
C630 C628 1.391 . S
C630 C631 1.400 . S
C631 C630 1.400 . S
C631 C632 1.398 . S
C631 C637 1.491 . S
C632 H623 0.950 . S
C632 C631 1.398 . S
C632 C633 1.391 1_556 S
C633 H621 0.950 . S
C633 C629 1.393 1_554 S
C633 C632 1.391 1_554 S
C634 H624 0.950 . S
C634 C635 1.386 . S
C634 C636 1.391 . S
C635 C634 1.386 . S
C635 C639 1.393 . S
C636 H625 0.950 . S
C636 C634 1.391 . S
C636 C637 1.400 . S
C637 C631 1.491 . S
C637 C636 1.400 . S
C637 C638 1.398 . S
C638 H626 0.950 . S
C638 C637 1.398 . S
C638 C639 1.391 . S
C639 H627 0.950 . S
C639 C635 1.393 . S
C639 C638 1.391 . S
C169 C8 1.382 . S
C175 C93 1.375 . S
C189 C31 1.219 . S
C195 C101 1.225 . S
C209 C53 1.387 . S
C215 C110 1.387 . S
C235 C120 1.362 . S
C229 C74 1.333 . S
C255 C129 1.366 . S
C249 C26 1.382 . S
C269 C48 1.317 . S
C275 C138 1.351 . S
C289 C71 1.390 . S
C295 C146 1.358 . S
C309 C5 1.232 . S
C315 C156 1.219 . S
C329 C50 1.364 . S
C335 C155 1.383 . S
C355 C128 1.207 . S
C349 C70 1.237 . S
C375 C137 1.359 . S
C369 C4 1.383 1_556 S
C389 C28 1.316 . S
C395 C147 1.360 . S
C415 C102 1.368 . S
C409 C73 1.374 . S
C429 C7 1.321 . S
C435 C111 1.352 . S
C455 C119 1.359 . S
C449 C30 1.377 . S
C475 C92 1.211 . S
C469 C52 1.234 . S
C495 C149 1.373 . S
C489 C9 1.388 . S
C515 C158 1.303 . S
C509 C29 1.304 . S
C529 C51 1.303 . S
C535 C131 1.296 . S
C555 C140 1.364 . S
C549 C75 1.385 . S
C575 C113 1.375 . S
C569 C27 1.388 . S
C589 C49 1.387 . S
C595 C122 1.349 . S
C615 C95 1.297 . S
C609 C72 1.296 . S
C635 C104 1.284 . S
C629 C6 1.300 1_556 S
