# Generated by pormake.
# Topology tbo, (3,4)-cn, num edge types: 1
# Building blocks:
#     Node 0, Type 0, BuildingBlock: QEWDON_clean_linker_0, # of connection points: 3
#     Node 1, Type 0, BuildingBlock: QEWDON_clean_linker_0, # of connection points: 3
#     Node 2, Type 0, BuildingBlock: QEWDON_clean_linker_0, # of connection points: 3
#     Node 3, Type 0, BuildingBlock: QEWDON_clean_linker_0, # of connection points: 3
#     Node 4, Type 0, BuildingBlock: QEWDON_clean_linker_0, # of connection points: 3
#     Node 5, Type 0, BuildingBlock: QEWDON_clean_linker_0, # of connection points: 3
#     Node 6, Type 0, BuildingBlock: QEWDON_clean_linker_0, # of connection points: 3
#     Node 7, Type 0, BuildingBlock: QEWDON_clean_linker_0, # of connection points: 3
#     Node 8, Type 0, BuildingBlock: QEWDON_clean_linker_0, # of connection points: 3
#     Node 9, Type 0, BuildingBlock: QEWDON_clean_linker_0, # of connection points: 3
#     Node 10, Type 0, BuildingBlock: QEWDON_clean_linker_0, # of connection points: 3
#     Node 11, Type 0, BuildingBlock: QEWDON_clean_linker_0, # of connection points: 3
#     Node 12, Type 0, BuildingBlock: QEWDON_clean_linker_0, # of connection points: 3
#     Node 13, Type 0, BuildingBlock: QEWDON_clean_linker_0, # of connection points: 3
#     Node 14, Type 0, BuildingBlock: QEWDON_clean_linker_0, # of connection points: 3
#     Node 15, Type 0, BuildingBlock: QEWDON_clean_linker_0, # of connection points: 3
#     Node 16, Type 0, BuildingBlock: QEWDON_clean_linker_0, # of connection points: 3
#     Node 17, Type 0, BuildingBlock: QEWDON_clean_linker_0, # of connection points: 3
#     Node 18, Type 0, BuildingBlock: QEWDON_clean_linker_0, # of connection points: 3
#     Node 19, Type 0, BuildingBlock: QEWDON_clean_linker_0, # of connection points: 3
#     Node 20, Type 0, BuildingBlock: QEWDON_clean_linker_0, # of connection points: 3
#     Node 21, Type 0, BuildingBlock: QEWDON_clean_linker_0, # of connection points: 3
#     Node 22, Type 0, BuildingBlock: QEWDON_clean_linker_0, # of connection points: 3
#     Node 23, Type 0, BuildingBlock: QEWDON_clean_linker_0, # of connection points: 3
#     Node 24, Type 0, BuildingBlock: QEWDON_clean_linker_0, # of connection points: 3
#     Node 25, Type 0, BuildingBlock: QEWDON_clean_linker_0, # of connection points: 3
#     Node 26, Type 0, BuildingBlock: QEWDON_clean_linker_0, # of connection points: 3
#     Node 27, Type 0, BuildingBlock: QEWDON_clean_linker_0, # of connection points: 3
#     Node 28, Type 0, BuildingBlock: QEWDON_clean_linker_0, # of connection points: 3
#     Node 29, Type 0, BuildingBlock: QEWDON_clean_linker_0, # of connection points: 3
#     Node 30, Type 0, BuildingBlock: QEWDON_clean_linker_0, # of connection points: 3
#     Node 31, Type 0, BuildingBlock: QEWDON_clean_linker_0, # of connection points: 3
#     Node 32, Type 1, BuildingBlock: ESEHIV_clean_sbu_0, # of connection points: 4
#     Node 33, Type 1, BuildingBlock: ESEHIV_clean_sbu_0, # of connection points: 4
#     Node 34, Type 1, BuildingBlock: ESEHIV_clean_sbu_0, # of connection points: 4
#     Node 35, Type 1, BuildingBlock: ESEHIV_clean_sbu_0, # of connection points: 4
#     Node 36, Type 1, BuildingBlock: ESEHIV_clean_sbu_0, # of connection points: 4
#     Node 37, Type 1, BuildingBlock: ESEHIV_clean_sbu_0, # of connection points: 4
#     Node 38, Type 1, BuildingBlock: ESEHIV_clean_sbu_0, # of connection points: 4
#     Node 39, Type 1, BuildingBlock: ESEHIV_clean_sbu_0, # of connection points: 4
#     Node 40, Type 1, BuildingBlock: ESEHIV_clean_sbu_0, # of connection points: 4
#     Node 41, Type 1, BuildingBlock: ESEHIV_clean_sbu_0, # of connection points: 4
#     Node 42, Type 1, BuildingBlock: ESEHIV_clean_sbu_0, # of connection points: 4
#     Node 43, Type 1, BuildingBlock: ESEHIV_clean_sbu_0, # of connection points: 4
#     Node 44, Type 1, BuildingBlock: ESEHIV_clean_sbu_0, # of connection points: 4
#     Node 45, Type 1, BuildingBlock: ESEHIV_clean_sbu_0, # of connection points: 4
#     Node 46, Type 1, BuildingBlock: ESEHIV_clean_sbu_0, # of connection points: 4
#     Node 47, Type 1, BuildingBlock: ESEHIV_clean_sbu_0, # of connection points: 4
#     Node 48, Type 1, BuildingBlock: ESEHIV_clean_sbu_0, # of connection points: 4
#     Node 49, Type 1, BuildingBlock: ESEHIV_clean_sbu_0, # of connection points: 4
#     Node 50, Type 1, BuildingBlock: ESEHIV_clean_sbu_0, # of connection points: 4
#     Node 51, Type 1, BuildingBlock: ESEHIV_clean_sbu_0, # of connection points: 4
#     Node 52, Type 1, BuildingBlock: ESEHIV_clean_sbu_0, # of connection points: 4
#     Node 53, Type 1, BuildingBlock: ESEHIV_clean_sbu_0, # of connection points: 4
#     Node 54, Type 1, BuildingBlock: ESEHIV_clean_sbu_0, # of connection points: 4
#     Node 55, Type 1, BuildingBlock: ESEHIV_clean_sbu_0, # of connection points: 4
#     Edge 56, Type (0, 1), BuildingBlock: UVAHIK_clean_linker_0, # of connection points: 2
#     Edge 57, Type (0, 1), BuildingBlock: UVAHIK_clean_linker_0, # of connection points: 2
#     Edge 58, Type (0, 1), BuildingBlock: UVAHIK_clean_linker_0, # of connection points: 2
#     Edge 59, Type (0, 1), BuildingBlock: UVAHIK_clean_linker_0, # of connection points: 2
#     Edge 60, Type (0, 1), BuildingBlock: UVAHIK_clean_linker_0, # of connection points: 2
#     Edge 61, Type (0, 1), BuildingBlock: UVAHIK_clean_linker_0, # of connection points: 2
#     Edge 62, Type (0, 1), BuildingBlock: UVAHIK_clean_linker_0, # of connection points: 2
#     Edge 63, Type (0, 1), BuildingBlock: UVAHIK_clean_linker_0, # of connection points: 2
#     Edge 64, Type (0, 1), BuildingBlock: UVAHIK_clean_linker_0, # of connection points: 2
#     Edge 65, Type (0, 1), BuildingBlock: UVAHIK_clean_linker_0, # of connection points: 2
#     Edge 66, Type (0, 1), BuildingBlock: UVAHIK_clean_linker_0, # of connection points: 2
#     Edge 67, Type (0, 1), BuildingBlock: UVAHIK_clean_linker_0, # of connection points: 2
#     Edge 68, Type (0, 1), BuildingBlock: UVAHIK_clean_linker_0, # of connection points: 2
#     Edge 69, Type (0, 1), BuildingBlock: UVAHIK_clean_linker_0, # of connection points: 2
#     Edge 70, Type (0, 1), BuildingBlock: UVAHIK_clean_linker_0, # of connection points: 2
#     Edge 71, Type (0, 1), BuildingBlock: UVAHIK_clean_linker_0, # of connection points: 2
#     Edge 72, Type (0, 1), BuildingBlock: UVAHIK_clean_linker_0, # of connection points: 2
#     Edge 73, Type (0, 1), BuildingBlock: UVAHIK_clean_linker_0, # of connection points: 2
#     Edge 74, Type (0, 1), BuildingBlock: UVAHIK_clean_linker_0, # of connection points: 2
#     Edge 75, Type (0, 1), BuildingBlock: UVAHIK_clean_linker_0, # of connection points: 2
#     Edge 76, Type (0, 1), BuildingBlock: UVAHIK_clean_linker_0, # of connection points: 2
#     Edge 77, Type (0, 1), BuildingBlock: UVAHIK_clean_linker_0, # of connection points: 2
#     Edge 78, Type (0, 1), BuildingBlock: UVAHIK_clean_linker_0, # of connection points: 2
#     Edge 79, Type (0, 1), BuildingBlock: UVAHIK_clean_linker_0, # of connection points: 2
#     Edge 80, Type (0, 1), BuildingBlock: UVAHIK_clean_linker_0, # of connection points: 2
#     Edge 81, Type (0, 1), BuildingBlock: UVAHIK_clean_linker_0, # of connection points: 2
#     Edge 82, Type (0, 1), BuildingBlock: UVAHIK_clean_linker_0, # of connection points: 2
#     Edge 83, Type (0, 1), BuildingBlock: UVAHIK_clean_linker_0, # of connection points: 2
#     Edge 84, Type (0, 1), BuildingBlock: UVAHIK_clean_linker_0, # of connection points: 2
#     Edge 85, Type (0, 1), BuildingBlock: UVAHIK_clean_linker_0, # of connection points: 2
#     Edge 86, Type (0, 1), BuildingBlock: UVAHIK_clean_linker_0, # of connection points: 2
#     Edge 87, Type (0, 1), BuildingBlock: UVAHIK_clean_linker_0, # of connection points: 2
#     Edge 88, Type (0, 1), BuildingBlock: UVAHIK_clean_linker_0, # of connection points: 2
#     Edge 89, Type (0, 1), BuildingBlock: UVAHIK_clean_linker_0, # of connection points: 2
#     Edge 90, Type (0, 1), BuildingBlock: UVAHIK_clean_linker_0, # of connection points: 2
#     Edge 91, Type (0, 1), BuildingBlock: UVAHIK_clean_linker_0, # of connection points: 2
#     Edge 92, Type (0, 1), BuildingBlock: UVAHIK_clean_linker_0, # of connection points: 2
#     Edge 93, Type (0, 1), BuildingBlock: UVAHIK_clean_linker_0, # of connection points: 2
#     Edge 94, Type (0, 1), BuildingBlock: UVAHIK_clean_linker_0, # of connection points: 2
#     Edge 95, Type (0, 1), BuildingBlock: UVAHIK_clean_linker_0, # of connection points: 2
#     Edge 96, Type (0, 1), BuildingBlock: UVAHIK_clean_linker_0, # of connection points: 2
#     Edge 97, Type (0, 1), BuildingBlock: UVAHIK_clean_linker_0, # of connection points: 2
#     Edge 98, Type (0, 1), BuildingBlock: UVAHIK_clean_linker_0, # of connection points: 2
#     Edge 99, Type (0, 1), BuildingBlock: UVAHIK_clean_linker_0, # of connection points: 2
#     Edge 100, Type (0, 1), BuildingBlock: UVAHIK_clean_linker_0, # of connection points: 2
#     Edge 101, Type (0, 1), BuildingBlock: UVAHIK_clean_linker_0, # of connection points: 2
#     Edge 102, Type (0, 1), BuildingBlock: UVAHIK_clean_linker_0, # of connection points: 2
#     Edge 103, Type (0, 1), BuildingBlock: UVAHIK_clean_linker_0, # of connection points: 2
#     Edge 104, Type (0, 1), BuildingBlock: UVAHIK_clean_linker_0, # of connection points: 2
#     Edge 105, Type (0, 1), BuildingBlock: UVAHIK_clean_linker_0, # of connection points: 2
#     Edge 106, Type (0, 1), BuildingBlock: UVAHIK_clean_linker_0, # of connection points: 2
#     Edge 107, Type (0, 1), BuildingBlock: UVAHIK_clean_linker_0, # of connection points: 2
#     Edge 108, Type (0, 1), BuildingBlock: UVAHIK_clean_linker_0, # of connection points: 2
#     Edge 109, Type (0, 1), BuildingBlock: UVAHIK_clean_linker_0, # of connection points: 2
#     Edge 110, Type (0, 1), BuildingBlock: UVAHIK_clean_linker_0, # of connection points: 2
#     Edge 111, Type (0, 1), BuildingBlock: UVAHIK_clean_linker_0, # of connection points: 2
#     Edge 112, Type (0, 1), BuildingBlock: UVAHIK_clean_linker_0, # of connection points: 2
#     Edge 113, Type (0, 1), BuildingBlock: UVAHIK_clean_linker_0, # of connection points: 2
#     Edge 114, Type (0, 1), BuildingBlock: UVAHIK_clean_linker_0, # of connection points: 2
#     Edge 115, Type (0, 1), BuildingBlock: UVAHIK_clean_linker_0, # of connection points: 2
#     Edge 116, Type (0, 1), BuildingBlock: UVAHIK_clean_linker_0, # of connection points: 2
#     Edge 117, Type (0, 1), BuildingBlock: UVAHIK_clean_linker_0, # of connection points: 2
#     Edge 118, Type (0, 1), BuildingBlock: UVAHIK_clean_linker_0, # of connection points: 2
#     Edge 119, Type (0, 1), BuildingBlock: UVAHIK_clean_linker_0, # of connection points: 2
#     Edge 120, Type (0, 1), BuildingBlock: UVAHIK_clean_linker_0, # of connection points: 2
#     Edge 121, Type (0, 1), BuildingBlock: UVAHIK_clean_linker_0, # of connection points: 2
#     Edge 122, Type (0, 1), BuildingBlock: UVAHIK_clean_linker_0, # of connection points: 2
#     Edge 123, Type (0, 1), BuildingBlock: UVAHIK_clean_linker_0, # of connection points: 2
#     Edge 124, Type (0, 1), BuildingBlock: UVAHIK_clean_linker_0, # of connection points: 2
#     Edge 125, Type (0, 1), BuildingBlock: UVAHIK_clean_linker_0, # of connection points: 2
#     Edge 126, Type (0, 1), BuildingBlock: UVAHIK_clean_linker_0, # of connection points: 2
#     Edge 127, Type (0, 1), BuildingBlock: UVAHIK_clean_linker_0, # of connection points: 2
#     Edge 128, Type (0, 1), BuildingBlock: UVAHIK_clean_linker_0, # of connection points: 2
#     Edge 129, Type (0, 1), BuildingBlock: UVAHIK_clean_linker_0, # of connection points: 2
#     Edge 130, Type (0, 1), BuildingBlock: UVAHIK_clean_linker_0, # of connection points: 2
#     Edge 131, Type (0, 1), BuildingBlock: UVAHIK_clean_linker_0, # of connection points: 2
#     Edge 132, Type (0, 1), BuildingBlock: UVAHIK_clean_linker_0, # of connection points: 2
#     Edge 133, Type (0, 1), BuildingBlock: UVAHIK_clean_linker_0, # of connection points: 2
#     Edge 134, Type (0, 1), BuildingBlock: UVAHIK_clean_linker_0, # of connection points: 2
#     Edge 135, Type (0, 1), BuildingBlock: UVAHIK_clean_linker_0, # of connection points: 2
#     Edge 136, Type (0, 1), BuildingBlock: UVAHIK_clean_linker_0, # of connection points: 2
#     Edge 137, Type (0, 1), BuildingBlock: UVAHIK_clean_linker_0, # of connection points: 2
#     Edge 138, Type (0, 1), BuildingBlock: UVAHIK_clean_linker_0, # of connection points: 2
#     Edge 139, Type (0, 1), BuildingBlock: UVAHIK_clean_linker_0, # of connection points: 2
#     Edge 140, Type (0, 1), BuildingBlock: UVAHIK_clean_linker_0, # of connection points: 2
#     Edge 141, Type (0, 1), BuildingBlock: UVAHIK_clean_linker_0, # of connection points: 2
#     Edge 142, Type (0, 1), BuildingBlock: UVAHIK_clean_linker_0, # of connection points: 2
#     Edge 143, Type (0, 1), BuildingBlock: UVAHIK_clean_linker_0, # of connection points: 2
#     Edge 144, Type (0, 1), BuildingBlock: UVAHIK_clean_linker_0, # of connection points: 2
#     Edge 145, Type (0, 1), BuildingBlock: UVAHIK_clean_linker_0, # of connection points: 2
#     Edge 146, Type (0, 1), BuildingBlock: UVAHIK_clean_linker_0, # of connection points: 2
#     Edge 147, Type (0, 1), BuildingBlock: UVAHIK_clean_linker_0, # of connection points: 2
#     Edge 148, Type (0, 1), BuildingBlock: UVAHIK_clean_linker_0, # of connection points: 2
#     Edge 149, Type (0, 1), BuildingBlock: UVAHIK_clean_linker_0, # of connection points: 2
#     Edge 150, Type (0, 1), BuildingBlock: UVAHIK_clean_linker_0, # of connection points: 2
#     Edge 151, Type (0, 1), BuildingBlock: UVAHIK_clean_linker_0, # of connection points: 2
# Relax obj value: 0.044
# Max RMSD: 0.209
# Mean RMSD: 0.139
data_MOF--net-tbo--node1-ESEHIV_clean_sbu_0--node2-QEWDON_clean_linker_0--edge1-UVAHIK_clean_linker_0
_symmetry_space_group_name_H-M    P1
_symmetry_Int_Tables_number       1
_symmetry_cell_setting            triclinic
loop_
_symmetry_equiv_pos_as_xyz
'x, y, z'
_cell_length_a     89.564201
_cell_length_b     91.276649
_cell_length_c     100.60385
_cell_angle_alpha  89.883339
_cell_angle_beta   92.680123
_cell_angle_gamma 106.48455
loop_
_atom_site_label
_atom_site_type_symbol
_atom_site_fract_x
_atom_site_fract_y
_atom_site_fract_z
_atom_type_partial_charge
H0 H 0.19149 0.12453 0.21064 0.0
C1 C 0.19912 0.13065 0.20316 0.0
C2 C 0.21331 0.12732 0.20109 0.0
C3 C 0.19432 0.14127 0.19512 0.0
H4 H 0.23339 0.13213 0.18898 0.0
C5 C 0.22283 0.13509 0.19104 0.0
C6 C 0.21828 0.14579 0.18292 0.0
C7 C 0.20407 0.14887 0.18515 0.0
C8 C 0.17831 0.14303 0.19572 0.0
H9 H 0.20039 0.15703 0.17892 0.0
C10 C 0.17228 0.14664 0.20766 0.0
C11 C 0.15718 0.14865 0.2075 0.0
C12 C 0.16893 0.14113 0.18388 0.0
H13 H 0.17315 0.13817 0.17463 0.0
C14 C 0.15398 0.14291 0.18381 0.0
H15 H 0.17935 0.14822 0.21686 0.0
C16 C 0.14816 0.1467 0.1955 0.0
H17 H 0.13657 0.14818 0.1952 0.0
H18 H 0.1469 0.14141 0.17462 0.0
H19 H 0.87896 0.22855 0.18664 0.0
C20 C 0.87236 0.21676 0.1881 0.0
C21 C 0.88009 0.20616 0.19264 0.0
C22 C 0.85612 0.21225 0.18558 0.0
H23 H 0.87729 0.18268 0.19816 0.0
C24 C 0.87146 0.19088 0.19441 0.0
C25 C 0.85522 0.18632 0.19216 0.0
C26 C 0.84762 0.19706 0.1878 0.0
C27 C 0.84802 0.22326 0.18034 0.0
H28 H 0.83509 0.19348 0.18586 0.0
C29 C 0.85354 0.23214 0.16923 0.0
C30 C 0.84536 0.24189 0.16357 0.0
C31 C 0.83438 0.22445 0.18603 0.0
H32 H 0.82994 0.21775 0.19463 0.0
C33 C 0.82639 0.23434 0.18066 0.0
H34 H 0.86408 0.23123 0.16486 0.0
C35 C 0.83176 0.24295 0.16947 0.0
H36 H 0.82506 0.25017 0.16527 0.0
H37 H 0.81587 0.23518 0.18508 0.0
H38 H 0.88714 0.83616 0.21385 0.0
C39 C 0.88265 0.83386 0.20363 0.0
C40 C 0.89018 0.82667 0.19485 0.0
C41 C 0.86902 0.83765 0.19958 0.0
H42 H 0.8893 0.81728 0.1751 0.0
C43 C 0.8839 0.82338 0.18172 0.0
C44 C 0.87001 0.82684 0.17747 0.0
C45 C 0.86283 0.83424 0.18649 0.0
C46 C 0.85985 0.84237 0.2098 0.0
H47 H 0.85206 0.83681 0.18355 0.0
C48 C 0.85882 0.85749 0.21094 0.0
C49 C 0.85083 0.86159 0.22151 0.0
C50 C 0.85254 0.83141 0.21901 0.0
H51 H 0.85321 0.81977 0.2183 0.0
C52 C 0.84437 0.83532 0.22922 0.0
H53 H 0.86459 0.86604 0.20395 0.0
C54 C 0.84354 0.85025 0.2305 0.0
H55 H 0.83705 0.85292 0.23852 0.0
H56 H 0.83872 0.82674 0.23622 0.0
H57 H 0.18364 0.84238 0.13222 0.0
C58 C 0.17485 0.83359 0.13706 0.0
C59 C 0.17449 0.83347 0.15103 0.0
C60 C 0.1636 0.82265 0.12929 0.0
H61 H 0.16245 0.82202 0.16783 0.0
C62 C 0.16288 0.82211 0.15709 0.0
C63 C 0.15146 0.8112 0.14952 0.0
C64 C 0.15198 0.81149 0.1356 0.0
C65 C 0.16336 0.82326 0.11456 0.0
H66 H 0.14314 0.80323 0.12963 0.0
C67 C 0.17683 0.82397 0.10762 0.0
C68 C 0.17626 0.8238 0.09359 0.0
C69 C 0.14939 0.82275 0.10735 0.0
H70 H 0.1389 0.82235 0.11246 0.0
C71 C 0.14884 0.82287 0.09348 0.0
H72 H 0.18757 0.8241 0.11312 0.0
C73 C 0.16214 0.82334 0.08662 0.0
H74 H 0.1614 0.82344 0.07585 0.0
H75 H 0.13805 0.82255 0.08802 0.0
H76 H 0.24615 0.84035 0.87015 0.0
C77 C 0.2339 0.83505 0.86765 0.0
C78 C 0.2255 0.84288 0.85964 0.0
C79 C 0.22673 0.82001 0.87172 0.0
H80 H 0.20314 0.84203 0.85036 0.0
C81 C 0.20977 0.8358 0.85618 0.0
C82 C 0.20249 0.82079 0.85993 0.0
C83 C 0.21099 0.81299 0.86784 0.0
C84 C 0.23586 0.81121 0.87927 0.0
H85 H 0.20547 0.80134 0.87073 0.0
C86 C 0.24587 0.8178 0.89022 0.0
C87 C 0.25453 0.80937 0.89729 0.0
C88 C 0.23465 0.79608 0.87545 0.0
H89 H 0.22721 0.79078 0.86695 0.0
C90 C 0.24319 0.7877 0.88242 0.0
H91 H 0.24691 0.82946 0.89322 0.0
C92 C 0.25306 0.79426 0.89326 0.0
H93 H 0.25942 0.78743 0.89861 0.0
H94 H 0.24216 0.77607 0.8794 0.0
H95 H 0.21946 0.18698 0.88985 0.0
C96 C 0.22583 0.18025 0.88491 0.0
C97 C 0.23989 0.17877 0.89084 0.0
C98 C 0.21924 0.17208 0.87325 0.0
H99 H 0.25854 0.16828 0.88906 0.0
C100 C 0.24763 0.16931 0.88463 0.0
C101 C 0.24145 0.16137 0.87267 0.0
C102 C 0.22717 0.16279 0.86719 0.0
C103 C 0.20308 0.17138 0.86845 0.0
H104 H 0.22183 0.15622 0.85838 0.0
C105 C 0.19851 0.18463 0.86524 0.0
C106 C 0.18288 0.18338 0.86115 0.0
C107 C 0.19191 0.15702 0.86743 0.0
H108 H 0.19507 0.1467 0.86993 0.0
C109 C 0.17649 0.15581 0.86347 0.0
H110 H 0.20701 0.19578 0.86593 0.0
C111 C 0.17197 0.16887 0.8604 0.0
H112 H 0.15993 0.16763 0.85725 0.0
H113 H 0.16798 0.14469 0.8628 0.0
H114 H 0.92342 0.19199 0.88999 0.0
C115 C 0.91317 0.18353 0.88585 0.0
C116 C 0.91186 0.18012 0.87216 0.0
C117 C 0.9015 0.17579 0.89428 0.0
H118 H 0.89782 0.16608 0.85642 0.0
C119 C 0.89861 0.16905 0.8669 0.0
C120 C 0.88688 0.16114 0.87521 0.0
C121 C 0.88842 0.16461 0.88889 0.0
C122 C 0.90316 0.17899 0.90879 0.0
H123 H 0.87934 0.15867 0.89536 0.0
C124 C 0.90686 0.19409 0.91371 0.0
C125 C 0.90773 0.19701 0.92751 0.0
C126 C 0.9007 0.16685 0.9178 0.0
H127 H 0.89798 0.15515 0.91426 0.0
C128 C 0.90188 0.16972 0.93148 0.0
H129 H 0.90844 0.20348 0.90681 0.0
C130 C 0.9053 0.18467 0.93632 0.0
H131 H 0.90607 0.1866 0.94699 0.0
H132 H 0.90003 0.1603 0.93835 0.0
H133 H 0.89893 0.8522 0.84973 0.0
C134 C 0.89349 0.84613 0.85832 0.0
C135 C 0.89407 0.83106 0.8607 0.0
C136 C 0.88664 0.8537 0.86738 0.0
H137 H 0.88843 0.81227 0.87437 0.0
C138 C 0.88739 0.82358 0.87217 0.0
C139 C 0.88042 0.83089 0.88133 0.0
C140 C 0.88007 0.84596 0.87878 0.0
C141 C 0.88843 0.87036 0.86619 0.0
H142 H 0.87493 0.85186 0.88581 0.0
C143 C 0.88241 0.87671 0.85504 0.0
C144 C 0.88448 0.89268 0.85442 0.0
C145 C 0.89651 0.88007 0.87658 0.0
H146 H 0.90131 0.87549 0.88519 0.0
C147 C 0.89866 0.89576 0.87597 0.0
H148 H 0.87612 0.8693 0.84699 0.0
C149 C 0.8927 0.90202 0.86503 0.0
H150 H 0.89428 0.91424 0.865 0.0
H151 H 0.9049 0.90311 0.88406 0.0
H152 H 0.18279 0.63209 0.69472 0.0
C153 C 0.18926 0.63901 0.68697 0.0
C154 C 0.20411 0.63778 0.68408 0.0
C155 C 0.18208 0.64808 0.67914 0.0
H156 H 0.22335 0.64545 0.67115 0.0
C157 C 0.21188 0.6462 0.67339 0.0
C158 C 0.2049 0.65552 0.66552 0.0
C159 C 0.18998 0.65633 0.66854 0.0
C160 C 0.1653 0.64665 0.68032 0.0
H161 H 0.18408 0.66277 0.66219 0.0
C162 C 0.15964 0.65296 0.69115 0.0
C163 C 0.14347 0.65108 0.69188 0.0
C164 C 0.15476 0.63861 0.67028 0.0
H165 H 0.15889 0.63369 0.6619 0.0
C166 C 0.13884 0.6367 0.67101 0.0
H167 H 0.16772 0.65922 0.69891 0.0
C168 C 0.13321 0.64284 0.68171 0.0
H169 H 0.12079 0.64137 0.68191 0.0
H170 H 0.13081 0.63046 0.66322 0.0
H171 H 0.88194 0.73594 0.67373 0.0
C172 C 0.8787 0.72439 0.67748 0.0
C173 C 0.89035 0.71854 0.68316 0.0
C174 C 0.863 0.71549 0.67683 0.0
H175 H 0.89537 0.69989 0.69364 0.0
C176 C 0.88632 0.70393 0.68867 0.0
C177 C 0.87072 0.69498 0.68854 0.0
C178 C 0.85916 0.70073 0.68235 0.0
C179 C 0.85065 0.72174 0.67065 0.0
H180 H 0.84719 0.69365 0.68178 0.0
C181 C 0.85377 0.73154 0.65963 0.0
C182 C 0.84235 0.73785 0.654 0.0
C183 C 0.83573 0.71821 0.67584 0.0
H184 H 0.83295 0.71103 0.68447 0.0
C185 C 0.82425 0.72421 0.67011 0.0
H186 H 0.86505 0.73412 0.65527 0.0
C187 C 0.8275 0.73397 0.65927 0.0
H188 H 0.81852 0.73874 0.6552 0.0
H189 H 0.81284 0.72144 0.67422 0.0
H190 H 0.89271 0.35463 0.72339 0.0
C191 C 0.89034 0.35097 0.71307 0.0
C192 C 0.901 0.34505 0.70653 0.0
C193 C 0.87626 0.35143 0.70655 0.0
H194 H 0.90535 0.33469 0.68842 0.0
C195 C 0.89746 0.33979 0.69328 0.0
C196 C 0.8833 0.33992 0.68665 0.0
C197 C 0.87285 0.3459 0.69339 0.0
C198 C 0.86384 0.35498 0.71411 0.0
H199 H 0.86179 0.34591 0.68853 0.0
C200 C 0.86484 0.3699 0.71867 0.0
C201 C 0.85266 0.37259 0.72591 0.0
C202 C 0.85063 0.34293 0.71676 0.0
H203 H 0.84962 0.33143 0.71334 0.0
C204 C 0.83867 0.34554 0.72391 0.0
H205 H 0.87497 0.37928 0.71663 0.0
C206 C 0.83966 0.3602 0.72847 0.0
H207 H 0.83007 0.3619 0.73384 0.0
H208 H 0.82855 0.33614 0.7259 0.0
H209 H 0.20646 0.36931 0.63556 0.0
C210 C 0.19863 0.36211 0.64237 0.0
C211 C 0.20119 0.36483 0.65616 0.0
C212 C 0.18579 0.35038 0.6373 0.0
H213 H 0.19269 0.3576 0.6755 0.0
C214 C 0.19084 0.35549 0.66487 0.0
C215 C 0.17791 0.34374 0.66 0.0
C216 C 0.17554 0.34125 0.64619 0.0
C217 C 0.18267 0.34799 0.62272 0.0
H218 H 0.16551 0.33235 0.64231 0.0
C219 C 0.1947 0.34765 0.61429 0.0
C220 C 0.19157 0.34499 0.60051 0.0
C221 C 0.16749 0.34586 0.61716 0.0
H222 H 0.15805 0.34628 0.62336 0.0
C223 C 0.16437 0.34338 0.60351 0.0
H224 H 0.20637 0.349 0.61853 0.0
C225 C 0.17628 0.3429 0.59523 0.0
H226 H 0.17356 0.34106 0.58465 0.0
H227 H 0.15266 0.34183 0.59933 0.0
H228 H 0.24124 0.34295 0.38082 0.0
C229 C 0.22911 0.33707 0.37835 0.0
C230 C 0.21988 0.34471 0.37107 0.0
C231 C 0.22289 0.32173 0.38204 0.0
H232 H 0.19726 0.3426 0.36164 0.0
C233 C 0.20433 0.33687 0.3675 0.0
C234 C 0.19799 0.32151 0.37085 0.0
C235 C 0.20725 0.31411 0.37833 0.0
C236 C 0.23292 0.31333 0.38901 0.0
H237 H 0.2024 0.30223 0.38094 0.0
C238 C 0.24383 0.32037 0.39928 0.0
C239 C 0.25348 0.31243 0.40566 0.0
C240 C 0.23179 0.29821 0.38521 0.0
H241 H 0.22378 0.29256 0.37717 0.0
C242 C 0.2412 0.29026 0.39158 0.0
H243 H 0.24487 0.33203 0.40226 0.0
C244 C 0.25196 0.29727 0.40173 0.0
H245 H 0.25902 0.29077 0.40659 0.0
H246 H 0.24019 0.27862 0.3886 0.0
H247 H 0.21641 0.66606 0.36803 0.0
C248 C 0.22285 0.66002 0.36238 0.0
C249 C 0.23742 0.65885 0.36748 0.0
C250 C 0.21589 0.65218 0.35061 0.0
H251 H 0.25646 0.64932 0.36409 0.0
C252 C 0.24528 0.65033 0.36026 0.0
C253 C 0.23852 0.64242 0.34852 0.0
C254 C 0.22383 0.64344 0.34378 0.0
C255 C 0.19935 0.65092 0.34658 0.0
H256 H 0.21837 0.6371 0.33488 0.0
C257 C 0.19393 0.66384 0.34397 0.0
C258 C 0.17801 0.66193 0.34031 0.0
C259 C 0.18874 0.63626 0.34548 0.0
H260 H 0.19256 0.62619 0.34752 0.0
C261 C 0.1731 0.63438 0.34193 0.0
H262 H 0.20198 0.67521 0.34475 0.0
C263 C 0.16776 0.64706 0.33937 0.0
H264 H 0.15557 0.64521 0.33644 0.0
H265 H 0.16507 0.62301 0.34114 0.0
H266 H 0.8991 0.67295 0.37925 0.0
C267 C 0.8906 0.66468 0.37301 0.0
C268 C 0.89376 0.66254 0.35971 0.0
C269 C 0.8769 0.65553 0.37846 0.0
H270 H 0.88536 0.64973 0.34157 0.0
C271 C 0.88292 0.65147 0.35181 0.0
C272 C 0.86919 0.64232 0.35703 0.0
C273 C 0.86622 0.64449 0.37034 0.0
C274 C 0.87397 0.65685 0.39277 0.0
H275 H 0.85553 0.63756 0.37439 0.0
C276 C 0.87659 0.67123 0.39902 0.0
C277 C 0.87307 0.67223 0.41243 0.0
C278 C 0.86824 0.64354 0.40023 0.0
H279 H 0.86641 0.63233 0.39579 0.0
C280 C 0.86492 0.64452 0.41353 0.0
H281 H 0.88085 0.68158 0.39337 0.0
C282 C 0.86723 0.65875 0.4196 0.0
H283 H 0.86461 0.65922 0.42996 0.0
H284 H 0.86053 0.6342 0.41917 0.0
H285 H 0.89028 0.31962 0.35285 0.0
C286 C 0.88401 0.31665 0.36189 0.0
C287 C 0.88495 0.30359 0.36895 0.0
C288 C 0.87533 0.32613 0.3664 0.0
H289 H 0.87744 0.29003 0.38633 0.0
C290 C 0.87649 0.29978 0.38055 0.0
C291 C 0.86767 0.30913 0.38525 0.0
C292 C 0.86706 0.32221 0.37802 0.0
C293 C 0.87642 0.34092 0.35967 0.0
H294 H 0.86059 0.32964 0.38167 0.0
C295 C 0.86308 0.34561 0.35588 0.0
C296 C 0.86466 0.35937 0.34886 0.0
C297 C 0.89124 0.35043 0.35682 0.0
H298 H 0.90168 0.34727 0.35981 0.0
C299 C 0.89282 0.36415 0.35019 0.0
H300 H 0.85157 0.33836 0.35792 0.0
C301 C 0.87967 0.36856 0.34617 0.0
H302 H 0.88124 0.37926 0.34098 0.0
H303 H 0.90431 0.37137 0.3481 0.0
H304 H 0.70613 0.13496 0.70252 0.0
C305 C 0.71187 0.14196 0.6945 0.0
C306 C 0.72696 0.14177 0.69125 0.0
C307 C 0.70359 0.15018 0.68681 0.0
H308 H 0.74541 0.15038 0.67775 0.0
C309 C 0.73374 0.15026 0.68023 0.0
C310 C 0.72556 0.15853 0.67235 0.0
C311 C 0.71047 0.15841 0.6758 0.0
C312 C 0.68675 0.14768 0.68865 0.0
H313 H 0.70368 0.16405 0.66952 0.0
C314 C 0.6812 0.15594 0.69818 0.0
C315 C 0.66499 0.15279 0.69981 0.0
C316 C 0.67609 0.13652 0.68072 0.0
H317 H 0.68017 0.13009 0.67335 0.0
C318 C 0.66013 0.13345 0.68226 0.0
H319 H 0.68939 0.16456 0.70434 0.0
C320 C 0.65461 0.14147 0.69174 0.0
H321 H 0.64213 0.13894 0.69264 0.0
H322 H 0.652 0.12481 0.67609 0.0
H323 H 0.38503 0.2426 0.68586 0.0
C324 C 0.3794 0.23097 0.68875 0.0
C325 C 0.38855 0.22138 0.6927 0.0
C326 C 0.36305 0.22573 0.68876 0.0
H327 H 0.38819 0.19897 0.69985 0.0
C328 C 0.38121 0.20633 0.69648 0.0
C329 C 0.36491 0.20104 0.69679 0.0
C330 C 0.3559 0.21079 0.69295 0.0
C331 C 0.35348 0.23591 0.68449 0.0
H332 H 0.3433 0.20664 0.69304 0.0
C333 C 0.35686 0.24463 0.67289 0.0
C334 C 0.34773 0.25415 0.66863 0.0
C335 C 0.34086 0.23689 0.69188 0.0
H336 H 0.33809 0.23042 0.70093 0.0
C337 C 0.33182 0.2464 0.68776 0.0
H338 H 0.36632 0.24362 0.66696 0.0
C339 C 0.33518 0.25497 0.67621 0.0
H340 H 0.32804 0.26232 0.67325 0.0
H341 H 0.32217 0.24714 0.69355 0.0
H342 H 0.38566 0.85226 0.72495 0.0
C343 C 0.38254 0.84893 0.71463 0.0
C344 C 0.39135 0.8411 0.70771 0.0
C345 C 0.36917 0.85171 0.70849 0.0
H346 H 0.39297 0.82974 0.68929 0.0
C347 C 0.38674 0.83641 0.69445 0.0
C348 C 0.37352 0.83916 0.68808 0.0
C349 C 0.36477 0.84681 0.69522 0.0
C350 C 0.35824 0.85722 0.7165 0.0
H351 H 0.35432 0.84869 0.69058 0.0
C352 C 0.36234 0.87191 0.72257 0.0
C353 C 0.35149 0.8764 0.73029 0.0
C354 C 0.34333 0.84724 0.71818 0.0
H355 H 0.33995 0.83594 0.71366 0.0
C356 C 0.33271 0.8516 0.7258 0.0
H357 H 0.37378 0.87973 0.72129 0.0
C358 C 0.33672 0.86601 0.73181 0.0
H359 H 0.32809 0.86915 0.73749 0.0
H360 H 0.32126 0.84378 0.72702 0.0
H361 H 0.70721 0.84587 0.65168 0.0
C362 C 0.69709 0.84129 0.65751 0.0
C363 C 0.69626 0.848 0.6699 0.0
C364 C 0.68486 0.82867 0.65271 0.0
H365 H 0.68211 0.84783 0.68668 0.0
C366 C 0.68295 0.84247 0.67723 0.0
C367 C 0.67074 0.83005 0.67264 0.0
C368 C 0.67181 0.82298 0.66053 0.0
C369 C 0.68555 0.82144 0.63959 0.0
H370 H 0.66242 0.81313 0.65719 0.0
C371 C 0.69962 0.81939 0.63534 0.0
C372 C 0.7 0.81199 0.62315 0.0
C373 C 0.67197 0.81628 0.63128 0.0
H374 H 0.66104 0.81797 0.63407 0.0
C375 C 0.67233 0.80897 0.61919 0.0
H376 H 0.71017 0.82312 0.64165 0.0
C377 C 0.68622 0.80675 0.61516 0.0
H378 H 0.68625 0.80113 0.60569 0.0
H379 H 0.6618 0.80504 0.61289 0.0
H380 H 0.73064 0.83811 0.3695 0.0
C381 C 0.71826 0.83285 0.36762 0.0
C382 C 0.70889 0.84149 0.36196 0.0
C383 C 0.71178 0.81728 0.37035 0.0
H384 H 0.6857 0.84091 0.35464 0.0
C385 C 0.69294 0.83442 0.35925 0.0
C386 C 0.68632 0.81889 0.36182 0.0
C387 C 0.6958 0.81043 0.36751 0.0
C388 C 0.7218 0.80778 0.37526 0.0
H389 H 0.69083 0.79836 0.36935 0.0
C390 C 0.73251 0.81257 0.38618 0.0
C391 C 0.74168 0.80324 0.39096 0.0
C392 C 0.72053 0.79369 0.36902 0.0
H393 H 0.71253 0.78982 0.36049 0.0
C394 C 0.72964 0.78447 0.37363 0.0
H395 H 0.73358 0.82345 0.391 0.0
C396 C 0.74008 0.78914 0.38455 0.0
H397 H 0.74671 0.78155 0.3881 0.0
H398 H 0.72851 0.77361 0.36879 0.0
H399 H 0.70689 0.16737 0.3726 0.0
C400 C 0.71281 0.16122 0.36648 0.0
C401 C 0.72748 0.15967 0.37086 0.0
C402 C 0.70508 0.15367 0.35485 0.0
H403 H 0.74601 0.15001 0.3662 0.0
C404 C 0.73457 0.15093 0.36309 0.0
C405 C 0.72702 0.14317 0.35149 0.0
C406 C 0.71228 0.14472 0.34744 0.0
C407 C 0.68834 0.15243 0.35186 0.0
H408 H 0.70595 0.1383 0.33887 0.0
C409 C 0.68299 0.16502 0.34782 0.0
C410 C 0.66686 0.16304 0.34499 0.0
C411 C 0.67751 0.13803 0.35307 0.0
H412 H 0.68133 0.12825 0.35619 0.0
C413 C 0.66169 0.13606 0.35036 0.0
H414 H 0.69128 0.17616 0.34683 0.0
C415 C 0.6564 0.14839 0.34633 0.0
H416 H 0.64404 0.14633 0.34398 0.0
H417 H 0.65348 0.12488 0.35129 0.0
H418 H 0.39083 0.17162 0.38259 0.0
C419 C 0.38156 0.16167 0.37925 0.0
C420 C 0.38062 0.15645 0.36598 0.0
C421 C 0.37092 0.15371 0.3884 0.0
H422 H 0.36812 0.1389 0.35194 0.0
C423 C 0.36857 0.14338 0.36196 0.0
C424 C 0.35765 0.13546 0.37096 0.0
C425 C 0.35898 0.14072 0.38419 0.0
C426 C 0.37307 0.15796 0.40267 0.0
H427 H 0.35077 0.13469 0.39131 0.0
C428 C 0.37197 0.17219 0.40719 0.0
C429 C 0.37355 0.17578 0.42092 0.0
C430 C 0.37602 0.14745 0.41189 0.0
H431 H 0.37693 0.13646 0.40859 0.0
C432 C 0.37798 0.15108 0.42542 0.0
H433 H 0.36937 0.18016 0.40007 0.0
C434 C 0.37677 0.16511 0.42993 0.0
H435 H 0.37846 0.16763 0.4405 0.0
H436 H 0.38042 0.14297 0.43246 0.0
H437 H 0.38678 0.82841 0.35307 0.0
C438 C 0.37953 0.82451 0.36143 0.0
C439 C 0.3788 0.81027 0.36713 0.0
C440 C 0.37133 0.83409 0.36657 0.0
H441 H 0.36937 0.79495 0.38289 0.0
C442 C 0.36939 0.80557 0.37806 0.0
C443 C 0.36086 0.8149 0.38334 0.0
C444 C 0.36181 0.82914 0.37735 0.0
C445 C 0.37476 0.85004 0.36177 0.0
H446 H 0.35563 0.83665 0.38133 0.0
C447 C 0.36328 0.85584 0.35538 0.0
C448 C 0.36752 0.87065 0.34988 0.0
C449 C 0.39023 0.85936 0.36306 0.0
H450 H 0.39921 0.85517 0.36797 0.0
C451 C 0.39432 0.87408 0.35796 0.0
H452 H 0.35135 0.8487 0.3542 0.0
C453 C 0.38311 0.87966 0.35133 0.0
H454 H 0.38661 0.89109 0.34733 0.0
H455 H 0.40628 0.88114 0.35901 0.0
H456 H 0.67497 0.62737 0.20241 0.0
C457 C 0.68296 0.63266 0.19486 0.0
C458 C 0.69613 0.62755 0.19284 0.0
C459 C 0.67942 0.64366 0.18643 0.0
H460 H 0.71589 0.62959 0.18077 0.0
C461 C 0.70601 0.63384 0.18252 0.0
C462 C 0.70292 0.64517 0.17421 0.0
C463 C 0.68971 0.65009 0.17641 0.0
C464 C 0.66418 0.64725 0.1868 0.0
H465 H 0.68721 0.65884 0.17012 0.0
C466 C 0.65813 0.6508 0.19876 0.0
C467 C 0.64404 0.65493 0.19837 0.0
C468 C 0.6556 0.64727 0.17472 0.0
H469 H 0.6597 0.64425 0.16543 0.0
C470 C 0.6416 0.65108 0.1744 0.0
H471 H 0.66454 0.65086 0.20817 0.0
C472 C 0.63592 0.655 0.1861 0.0
H473 H 0.62505 0.65804 0.18558 0.0
H474 H 0.63517 0.65107 0.16501 0.0
H475 H 0.35681 0.72929 0.18482 0.0
C476 C 0.35075 0.71762 0.1873 0.0
C477 C 0.35905 0.70841 0.19362 0.0
C478 C 0.33463 0.71191 0.18434 0.0
H479 H 0.35736 0.6863 0.20206 0.0
C480 C 0.35106 0.6934 0.19702 0.0
C481 C 0.33497 0.68755 0.19419 0.0
C482 C 0.32685 0.69682 0.18775 0.0
C483 C 0.32585 0.72183 0.17799 0.0
H484 H 0.31441 0.69234 0.18556 0.0
C485 C 0.33181 0.73101 0.16712 0.0
C486 C 0.3236 0.74057 0.16117 0.0
C487 C 0.31153 0.72228 0.18285 0.0
H488 H 0.30675 0.71546 0.1913 0.0
C489 C 0.30337 0.73177 0.17702 0.0
H490 H 0.34283 0.73071 0.16329 0.0
C491 C 0.30934 0.74089 0.16626 0.0
H492 H 0.30269 0.74801 0.16179 0.0
H493 H 0.29236 0.73207 0.18085 0.0
H494 H 0.40096 0.33756 0.22416 0.0
C495 C 0.39685 0.3351 0.21387 0.0
C496 C 0.40419 0.32705 0.20565 0.0
C497 C 0.38367 0.33935 0.20923 0.0
H498 H 0.40335 0.31687 0.18616 0.0
C499 C 0.39825 0.32364 0.1924 0.0
C500 C 0.38498 0.32781 0.18753 0.0
C501 C 0.37792 0.33585 0.19606 0.0
C502 C 0.37399 0.34407 0.219 0.0
H503 H 0.36749 0.33882 0.19269 0.0
C504 C 0.37429 0.35948 0.22107 0.0
C505 C 0.36548 0.36328 0.23116 0.0
C506 C 0.36459 0.33263 0.22677 0.0
H507 H 0.36421 0.32076 0.22531 0.0
C508 C 0.3557 0.33633 0.23652 0.0
H509 H 0.38161 0.3684 0.21519 0.0
C510 C 0.35618 0.35151 0.23875 0.0
H511 H 0.34919 0.35408 0.24644 0.0
H512 H 0.34848 0.3274 0.24244 0.0
H513 H 0.72658 0.3622 0.1385 0.0
C514 C 0.71757 0.35384 0.14351 0.0
C515 C 0.71547 0.3561 0.15699 0.0
C516 C 0.70806 0.34105 0.13643 0.0
H517 H 0.70186 0.34733 0.17382 0.0
C518 C 0.70356 0.34551 0.16343 0.0
C519 C 0.69357 0.33286 0.1565 0.0
C520 C 0.69607 0.3306 0.14304 0.0
C521 C 0.71037 0.33898 0.12204 0.0
H522 H 0.68851 0.32083 0.13766 0.0
C523 C 0.72549 0.34303 0.11714 0.0
C524 C 0.72773 0.34194 0.10346 0.0
C525 C 0.6975 0.33348 0.11303 0.0
H526 H 0.68571 0.33053 0.11636 0.0
C527 C 0.69967 0.33211 0.09949 0.0
H528 H 0.73553 0.34725 0.12394 0.0
C529 C 0.71465 0.33635 0.0947 0.0
H530 H 0.716 0.33515 0.08415 0.0
H531 H 0.68967 0.32787 0.09265 0.0
H532 H 0.76878 0.34475 0.86263 0.0
C533 C 0.75705 0.34176 0.85814 0.0
C534 C 0.75096 0.3533 0.85301 0.0
C535 C 0.74813 0.3264 0.8574 0.0
H536 H 0.7312 0.3583 0.84294 0.0
C537 C 0.73579 0.34942 0.84713 0.0
C538 C 0.72686 0.33405 0.84606 0.0
C539 C 0.7331 0.32265 0.85132 0.0
C540 C 0.75441 0.3142 0.86301 0.0
H541 H 0.72611 0.31082 0.85092 0.0
C542 C 0.76156 0.3158 0.87587 0.0
C543 C 0.76713 0.30407 0.88141 0.0
C544 C 0.75297 0.30076 0.85565 0.0
H545 H 0.74758 0.29929 0.84569 0.0
C546 C 0.7586 0.28915 0.86104 0.0
H547 H 0.76269 0.32614 0.88159 0.0
C548 C 0.76563 0.29076 0.87383 0.0
H549 H 0.76968 0.28148 0.87788 0.0
H550 H 0.75745 0.27884 0.8553 0.0
H551 H 0.69884 0.66451 0.88597 0.0
C552 C 0.70605 0.65889 0.88078 0.0
C553 C 0.72136 0.66017 0.88575 0.0
C554 C 0.69954 0.64927 0.86986 0.0
H555 H 0.74211 0.65316 0.883 0.0
C556 C 0.7303 0.65208 0.87927 0.0
C557 C 0.72409 0.64267 0.86806 0.0
C558 C 0.70867 0.64138 0.86353 0.0
C559 C 0.68256 0.64536 0.8663 0.0
H560 H 0.70338 0.63362 0.85538 0.0
C561 C 0.67503 0.65651 0.86247 0.0
C562 C 0.65884 0.65212 0.85908 0.0
C563 C 0.67378 0.62996 0.86676 0.0
H564 H 0.67926 0.62123 0.86976 0.0
C565 C 0.65787 0.62562 0.86346 0.0
H566 H 0.68171 0.66842 0.86209 0.0
C567 C 0.65046 0.63656 0.85961 0.0
H568 H 0.63812 0.63275 0.85684 0.0
H569 H 0.65125 0.6137 0.86381 0.0
H570 H 0.39198 0.68414 0.88206 0.0
C571 C 0.387 0.67524 0.87469 0.0
C572 C 0.39327 0.67651 0.86209 0.0
C573 C 0.37448 0.66262 0.87781 0.0
H574 H 0.39241 0.66566 0.84296 0.0
C575 C 0.38724 0.66489 0.85257 0.0
C576 C 0.37523 0.65188 0.85564 0.0
C577 C 0.36876 0.65092 0.86819 0.0
C578 C 0.3675 0.66166 0.89109 0.0
H579 H 0.35911 0.6411 0.87033 0.0
C580 C 0.36645 0.67497 0.89762 0.0
C581 C 0.36013 0.67422 0.91022 0.0
C582 C 0.36193 0.6475 0.89739 0.0
H583 H 0.36283 0.63705 0.89287 0.0
C584 C 0.35537 0.64667 0.90979 0.0
H585 H 0.37032 0.68595 0.89283 0.0
C586 C 0.35445 0.65992 0.91619 0.0
H587 H 0.34963 0.65901 0.92593 0.0
H588 H 0.35116 0.63571 0.91455 0.0
H589 H 0.40602 0.34186 0.85245 0.0
C590 C 0.3996 0.33535 0.86043 0.0
C591 C 0.40178 0.32111 0.86391 0.0
C592 C 0.39026 0.34193 0.86797 0.0
H593 H 0.39584 0.3025 0.87775 0.0
C594 C 0.39408 0.31336 0.87489 0.0
C595 C 0.38493 0.31985 0.88271 0.0
C596 C 0.38299 0.33413 0.87905 0.0
C597 C 0.39121 0.35831 0.86634 0.0
H598 H 0.37635 0.33954 0.88514 0.0
C599 C 0.38126 0.36348 0.85732 0.0
C600 C 0.38282 0.37933 0.8562 0.0
C601 C 0.40248 0.36895 0.87424 0.0
H602 H 0.41017 0.36517 0.88123 0.0
C603 C 0.40396 0.38449 0.87325 0.0
H604 H 0.37254 0.35531 0.85118 0.0
C605 C 0.39424 0.38965 0.86436 0.0
H606 H 0.39556 0.40182 0.86399 0.0
H607 H 0.41265 0.39259 0.87945 0.0
Cu608 Cu 0.31548 0.24188 0.0407 0.0
N609 N 0.33158 0.24395 0.02886 0.0
N610 N 0.34481 0.25017 1.01027 0.0
C611 C 0.33144 0.24924 1.01634 0.0
C612 C 0.35379 0.24526 0.0194 0.0
C613 C 0.3456 0.24142 0.03084 0.0
O614 O 0.29634 0.23754 0.02941 0.0
C615 C 0.31249 0.26329 0.06091 0.0
O616 O 0.29749 0.25621 0.06027 0.0
H617 H 0.3219 0.25279 1.01186 0.0
H618 H 0.34966 0.23727 0.03999 0.0
N619 N 0.31348 0.22492 0.05178 0.0
N620 N 0.3055 0.20891 0.06865 0.0
C621 C 0.30568 0.22245 0.0631 0.0
C622 C 0.31841 0.21247 0.05006 0.0
C623 C 0.31351 0.20257 0.06044 0.0
C624 C 0.29276 0.24642 0.02083 0.0
O625 O 0.29999 0.26111 0.02156 0.0
H626 H 0.2998 0.23021 0.06698 0.0
H627 H 0.32492 0.21061 0.04174 0.0
O628 O 0.32118 0.25985 0.0525 0.0
H629 H 0.36544 0.24449 0.01796 0.0
H630 H 0.31569 0.19158 0.0618 0.0
Cu631 Cu 0.88396 0.33861 0.01967 0.0
N632 N 0.88232 0.35683 0.02684 0.0
N633 N 0.87084 0.37039 0.03921 0.0
C634 C 0.87483 0.35731 0.03801 0.0
C635 C 0.87627 0.37862 0.02839 0.0
C636 C 0.88339 0.3702 0.02076 0.0
O637 O 0.88106 0.32374 0.03371 0.0
C638 C 0.85374 0.33231 1.00661 0.0
O639 O 0.8496 0.33826 1.01722 0.0
H640 H 0.87065 0.34746 0.04427 0.0
H641 H 0.88764 0.37298 1.01091 0.0
N642 N 0.9026 0.3403 1.0115 0.0
N643 N 0.91764 0.33336 0.99709 0.0
C644 C 0.90303 0.3331 0.99996 0.0
C645 C 0.91754 0.34552 1.01611 0.0
C646 C 0.92687 0.34112 1.00725 0.0
C647 C 0.89032 0.32593 0.04395 0.0
O648 O 0.90244 0.3381 0.04461 0.0
H649 H 0.89266 0.32663 0.99434 0.0
H650 H 0.9213 0.35127 0.02558 0.0
O651 O 0.86759 0.33139 1.00605 0.0
H652 H 0.87419 0.38938 0.02567 0.0
H653 H 0.93932 0.34283 1.00849 0.0
Cu654 Cu 0.80176 0.73787 0.0321 0.0
N655 N 0.81858 0.74135 0.02085 0.0
N656 N 0.83294 0.75091 1.00344 0.0
C657 C 0.82189 0.75241 1.01163 0.0
C658 C 0.83699 0.73855 1.00794 0.0
C659 C 0.82813 0.73268 0.01863 0.0
O660 O 0.78316 0.73206 0.02004 0.0
C661 C 0.79674 0.75844 0.05236 0.0
O662 O 0.78213 0.75006 0.05209 0.0
H663 H 0.81607 0.76126 1.01081 0.0
H664 H 0.82826 0.72247 0.02403 0.0
N665 N 0.80027 0.72088 0.04316 0.0
N666 N 0.79241 0.7047 0.06 0.0
C667 C 0.79488 0.71916 0.05556 0.0
C668 C 0.80129 0.70701 0.03963 0.0
C669 C 0.79658 0.69706 0.04998 0.0
C670 C 0.77982 0.73977 1.01034 0.0
O671 O 0.78685 0.75447 1.00982 0.0
H672 H 0.79189 0.72808 0.0609 0.0
H673 H 0.80437 0.70407 0.02993 0.0
O674 O 0.80575 0.75586 0.04379 0.0
H675 H 0.84522 0.7336 1.00345 0.0
H676 H 0.79578 0.68502 0.04988 0.0
Cu677 Cu 0.35514 0.83296 1.01593 0.0
N678 N 0.33358 0.8283 1.01292 0.0
N679 N 0.30876 0.8261 1.01715 0.0
C680 C 0.32376 0.83075 0.0218 0.0
C681 C 0.30919 0.82047 1.00481 0.0
C682 C 0.32453 0.82183 1.00224 0.0
O683 O 0.35872 0.82357 0.03257 0.0
C684 C 0.35958 0.86468 1.01031 0.0
O685 O 0.36521 0.87932 1.01306 0.0
H686 H 0.32757 0.83557 0.0316 0.0
H687 H 0.32875 0.81841 0.99319 0.0
N688 N 0.36436 0.82494 1.00258 0.0
N689 N 0.3689 0.80897 0.98745 0.0
C690 C 0.3589 0.81129 0.99635 0.0
C691 C 0.37838 0.83141 0.99766 0.0
C692 C 0.38115 0.82168 0.98827 0.0
C693 C 0.35826 0.83003 0.04367 0.0
O694 O 0.35618 0.8437 0.04379 0.0
H695 H 0.34798 0.80312 0.99859 0.0
H696 H 0.386 0.84248 1.00068 0.0
O697 O 0.36398 0.85503 1.01751 0.0
H698 H 0.29919 0.8158 0.99808 0.0
H699 H 0.39141 0.82394 0.98247 0.0
Cu700 Cu 0.02492 0.22201 0.29636 0.0
N701 N 0.03118 0.2045 0.29267 0.0
N702 N 0.04609 0.19039 0.28539 0.0
C703 C 0.04547 0.2045 0.28894 0.0
C704 C 0.03159 0.18115 0.28713 0.0
C705 C 0.02243 0.18988 0.29154 0.0
O706 O 0.04296 0.23718 0.30398 0.0
C707 C 0.01964 0.22579 0.26844 0.0
O708 O 0.02977 0.21809 0.26679 0.0
H709 H 0.05508 0.2148 0.28845 0.0
H710 H 1.01011 0.18593 0.29327 0.0
N711 N 1.0089 0.21866 0.3084 0.0
N712 N 0.98989 0.22329 0.32004 0.0
C713 C 1.00073 0.22862 0.31093 0.0
C714 C 1.00308 0.20658 0.31618 0.0
C715 C 0.99135 0.20938 0.32334 0.0
C716 C 0.04798 0.23462 0.31554 0.0
O717 O 0.0405 0.2222 0.32173 0.0
H718 H 1.00264 0.23951 0.30603 0.0
H719 H 1.00715 0.19651 0.3167 0.0
O720 O 0.01684 0.22917 0.28015 0.0
H721 H 0.02762 0.16906 0.28477 0.0
H722 H 0.98463 0.20183 0.33058 0.0
Cu723 Cu 0.77811 0.00661 0.26271 0.0
N724 N 0.77515 0.01571 0.24651 0.0
N725 N 0.77805 0.03434 0.23169 0.0
C726 C 0.78209 0.03045 0.24394 0.0
C727 C 0.76821 0.02158 0.22619 0.0
C728 C 0.76628 0.01007 0.23546 0.0
O729 O 0.78071 0.02273 0.27633 0.0
C730 C 0.79281 0.98758 0.25125 0.0
O731 O 0.77984 0.98513 0.24388 0.0
H732 H 0.78999 0.03822 0.25097 0.0
H733 H 0.75886 0.99847 0.23426 0.0
N734 N 0.76069 0.99088 0.26684 0.0
N735 N 0.74688 0.97059 0.27768 0.0
C736 C 0.7612 0.97975 0.27545 0.0
C737 C 0.74551 0.98868 0.26339 0.0
C738 C 0.73691 0.97615 0.27014 0.0
C739 C 0.76988 0.02934 0.27566 0.0
O740 O 0.75838 0.02446 0.26671 0.0
H741 H 0.77188 0.97882 0.28042 0.0
H742 H 0.74099 0.9959 0.25673 0.0
O743 O 0.79514 0.99716 0.26092 0.0
H744 H 0.76259 0.02077 0.21635 0.0
H745 H 0.72434 0.97159 0.26966 0.0
Cu746 Cu 0.04387 0.75225 0.26487 0.0
N747 N 0.0385 0.76975 0.25897 0.0
N748 N 0.02398 0.78391 0.24986 0.0
C749 C 0.02393 0.77069 0.256 0.0
C750 C 0.0392 0.79161 0.24905 0.0
C751 C 0.0481 0.78286 0.25465 0.0
O752 O 0.02689 0.73975 0.27465 0.0
C753 C 0.04124 0.74139 0.23814 0.0
O754 O 0.02867 0.74608 0.2371 0.0
H755 H 1.01354 0.76144 0.25756 0.0
H756 H 0.06067 0.78556 0.25501 0.0
N757 N 0.06201 0.7567 0.27604 0.0
N758 N 0.08271 0.753 0.28756 0.0
C759 C 0.07025 0.74677 0.27919 0.0
C760 C 0.06947 0.76971 0.28263 0.0
C761 C 0.08221 0.76747 0.28974 0.0
C762 C 0.0227 0.74605 0.28453 0.0
O763 O 0.02998 0.76042 0.2874 0.0
H764 H 0.06694 0.7351 0.27554 0.0
H765 H 0.06588 0.78007 0.28231 0.0
O766 O 0.04836 0.74189 0.24945 0.0
H767 H 0.04362 0.80264 0.24447 0.0
H768 H 0.09053 0.77594 0.29591 0.0
Cu769 Cu 0.25498 0.97548 0.27805 0.0
N770 N 0.25112 0.98296 0.29437 0.0
N771 N 0.25647 0.99866 0.31208 0.0
C772 C 0.2623 0.9929 0.30183 0.0
C773 C 0.24093 0.99199 0.31103 0.0
C774 C 0.23765 0.98232 0.30006 0.0
O775 O 0.25745 0.99262 0.26579 0.0
C776 C 0.26964 0.95528 0.2885 0.0
O777 O 0.25566 0.95036 0.29314 0.0
H778 H 0.27435 0.99662 0.29917 0.0
H779 H 0.22621 0.976 0.29611 0.0
N780 N 0.23846 0.95936 0.27115 0.0
N781 N 0.22557 0.94097 0.2568 0.0
C782 C 0.23754 0.95376 0.25868 0.0
C783 C 0.22655 0.94987 0.27736 0.0
C784 C 0.21862 0.93845 0.26853 0.0
C785 C 0.24476 0.99604 0.26315 0.0
O786 O 0.23197 0.98772 0.26838 0.0
H787 H 0.24601 0.95851 0.25135 0.0
H788 H 0.22425 0.95071 0.28774 0.0
O789 O 0.27276 0.96717 0.28124 0.0
H790 H 0.23246 0.99431 0.31741 0.0
H791 H 0.20875 0.92885 0.27065 0.0
Cu792 Cu 0.02756 0.74816 0.77921 0.0
N793 N 0.031 0.72978 0.77384 0.0
N794 N 0.04349 0.71384 0.76582 0.0
C795 C 0.0449 0.72787 0.77099 0.0
C796 C 0.02803 0.70665 0.76554 0.0
C797 C 0.02038 0.71651 0.77043 0.0
O798 O 0.04617 0.76003 0.78886 0.0
C799 C 0.02809 0.75816 0.75232 0.0
O800 O 0.03932 0.75169 0.75112 0.0
H801 H 0.05577 0.73682 0.77235 0.0
H802 H 1.00791 0.71438 0.77095 0.0
N803 N 1.01062 0.74522 0.79013 0.0
N804 N 0.99145 0.75054 0.80098 0.0
C805 C 1.00353 0.75594 0.79303 0.0
C806 C 1.00282 0.73256 0.79646 0.0
C807 C 0.99098 0.7358 0.80315 0.0
C808 C 0.04944 0.75522 0.80019 0.0
O809 O 0.03988 0.7428 0.80489 0.0
H810 H 1.00706 0.76743 0.78918 0.0
H811 H 1.00556 0.72177 0.79627 0.0
O812 O 0.02249 0.75861 0.76365 0.0
H813 H 0.02251 0.69532 0.76151 0.0
H814 H 0.98281 0.72794 0.80926 0.0
Cu815 Cu 0.30105 0.027 0.78688 0.0
N816 N 0.2994 0.03587 0.77027 0.0
N817 N 0.30311 0.05377 0.75466 0.0
C818 C 0.30629 0.05056 0.76738 0.0
C819 C 0.29389 0.04061 0.74928 0.0
C820 C 0.2915 0.02959 0.75898 0.0
O821 O 0.30216 0.04295 0.80041 0.0
C822 C 0.31662 0.00749 0.77719 0.0
O823 O 0.30424 0.00466 0.76905 0.0
H824 H 0.31357 0.05873 0.77447 0.0
H825 H 0.28444 0.01786 0.75786 0.0
N826 N 0.28331 0.01107 0.78984 0.0
N827 N 0.26886 0.98924 0.79811 0.0
C828 C 0.283 0.99959 0.79829 0.0
C829 C 0.26886 0.00799 0.78412 0.0
C830 C 0.2599 0.99444 0.78918 0.0
C831 C 0.29133 0.04951 0.79887 0.0
O832 O 0.28086 0.04483 0.78905 0.0
H833 H 0.29312 0.99864 0.80416 0.0
H834 H 0.26514 0.01499 0.77672 0.0
O835 O 0.31823 0.01747 0.78647 0.0
H836 H 0.28901 0.03917 0.73915 0.0
H837 H 0.24776 0.98887 0.78651 0.0
Cu838 Cu 0.0563 0.27684 0.77955 0.0
N839 N 0.04953 0.29425 0.77649 0.0
N840 N 0.03435 0.3086 0.76912 0.0
C841 C 0.03493 0.29446 0.77268 0.0
C842 C 0.04914 0.31761 0.77086 0.0
C843 C 0.05846 0.30875 0.77541 0.0
O844 O 0.03809 0.26013 0.78313 0.0
C845 C 0.06276 0.27554 0.75231 0.0
O846 O 0.04932 0.27847 0.75011 0.0
H847 H 0.02514 0.28429 0.77174 0.0
H848 H 0.07097 0.31246 0.77722 0.0
N849 N 0.07045 0.27936 0.7943 0.0
N850 N 0.08873 0.2747 0.80833 0.0
C851 C 0.08226 0.27292 0.7958 0.0
C852 C 0.06953 0.2856 0.80622 0.0
C853 C 0.08077 0.28275 0.81489 0.0
C854 C 0.03904 0.24832 0.78943 0.0
O855 O 0.05283 0.24638 0.79218 0.0
H856 H 0.08531 0.26617 0.78811 0.0
H857 H 0.06082 0.29119 0.8086 0.0
O858 O 0.06715 0.27339 0.76417 0.0
H859 H 0.05302 0.32969 0.76869 0.0
H860 H 0.08264 0.28599 0.82531 0.0
Cu861 Cu 0.78716 0.00491 0.77662 0.0
N862 N 0.78459 0.01192 0.79357 0.0
N863 N 0.78806 0.02841 0.81057 0.0
C864 C 0.7906 0.02649 0.79768 0.0
C865 C 0.78023 0.01443 0.81482 0.0
C866 C 0.77806 1.00425 0.80427 0.0
O867 O 0.78995 0.02254 0.76475 0.0
C868 C 0.79971 0.98166 0.78417 0.0
O869 O 0.78526 0.97645 0.78774 0.0
H870 H 0.79726 0.03542 0.79144 0.0
H871 H 0.77246 0.99209 0.80449 0.0
N872 N 0.76931 0.9904 0.76989 0.0
N873 N 0.755 0.97182 0.75645 0.0
C874 C 0.76856 0.98286 0.75831 0.0
C875 C 0.75565 0.98407 0.77551 0.0
C876 C 0.74681 0.97246 0.76725 0.0
C877 C 0.77878 0.02865 0.76521 0.0
O878 O 0.76729 0.02256 0.77297 0.0
H879 H 0.77816 0.98488 0.75174 0.0
H880 H 0.75257 0.98727 0.78512 0.0
O881 O 0.80381 0.9947 0.77857 0.0
H882 H 0.77651 0.01173 0.82484 0.0
H883 H 0.73543 0.96487 0.76915 0.0
Cu884 Cu 0.29957 0.74245 0.53076 0.0
N885 N 0.31644 0.74865 0.54334 0.0
N886 N 0.32994 0.75978 0.56178 0.0
C887 C 0.3164 0.757 0.55439 0.0
C888 C 0.33883 0.75284 0.55509 0.0
C889 C 0.33046 0.74595 0.54377 0.0
O890 O 0.28127 0.73489 0.54151 0.0
C891 C 0.31302 0.76426 0.51296 0.0
O892 O 0.32477 0.75948 0.51754 0.0
H893 H 0.30664 0.76108 0.55686 0.0
H894 H 0.33438 0.7395 0.53637 0.0
N895 N 0.30073 0.72677 0.51914 0.0
N896 N 0.29663 0.71335 0.49998 0.0
C897 C 0.29342 0.72462 0.50698 0.0
C898 C 0.30889 0.71646 0.51995 0.0
C899 C 0.30633 0.70813 0.50817 0.0
C900 C 0.28138 0.72289 0.54803 0.0
O901 O 0.29271 0.7167 0.54623 0.0
H902 H 0.28591 0.73133 0.50336 0.0
H903 H 0.31631 0.71519 0.5284 0.0
O904 O 0.29993 0.75917 0.51835 0.0
H905 H 0.35047 0.75258 0.55821 0.0
H906 H 0.31155 0.69919 0.50575 0.0
Cu907 Cu 0.86261 0.8135 0.52714 0.0
N908 N 0.87612 0.80261 0.52166 0.0
N909 N 0.88602 0.78863 0.50817 0.0
C910 C 0.87649 0.79768 0.50911 0.0
C911 C 0.89192 0.78794 0.52068 0.0
C912 C 0.88573 0.79645 0.52896 0.0
O913 O 0.84885 0.81381 0.51182 0.0
C914 C 0.87702 0.84061 0.54357 0.0
O915 O 0.88303 0.85546 0.54484 0.0
H916 H 0.86918 0.8 0.50099 0.0
H917 H 0.88745 0.79724 0.53964 0.0
N918 N 0.85052 0.80325 0.54078 0.0
N919 N 0.83264 0.79752 0.55618 0.0
C920 C 0.83942 0.80763 0.5469 0.0
C921 C 0.85065 0.78982 0.54625 0.0
C922 C 0.83965 0.78627 0.55578 0.0
C923 C 0.83971 0.82221 0.5108 0.0
O924 O 0.83912 0.83134 0.52071 0.0
H925 H 0.83633 0.818 0.54455 0.0
H926 H 0.85819 0.78306 0.54352 0.0
O927 O 0.87368 0.8347 0.53194 0.0
H928 H 0.89975 0.78135 0.52379 0.0
H929 H 0.83715 0.77628 0.56203 0.0
Cu930 Cu 0.80493 0.24432 0.5308 0.0
N931 N 0.80573 0.22903 0.51866 0.0
N932 N 0.80007 0.2156 0.49952 0.0
C933 C 0.79658 0.226 0.50741 0.0
C934 C 0.81189 0.21182 0.50619 0.0
C935 C 0.81541 0.22019 0.51796 0.0
O936 O 0.80142 0.25998 0.51877 0.0
C937 C 0.79029 0.22405 0.54948 0.0
O938 O 0.80157 0.21839 0.54617 0.0
H939 H 0.7876 0.23152 0.50503 0.0
H940 H 0.82461 0.22011 0.52529 0.0
N941 N 0.8233 0.25189 0.54144 0.0
N942 N 0.83855 0.26315 0.55903 0.0
C943 C 0.82388 0.25843 0.55353 0.0
C944 C 0.83812 0.25241 0.53914 0.0
C945 C 0.84755 0.25938 0.54996 0.0
C946 C 0.81216 0.27209 0.51629 0.0
O947 O 0.82416 0.27677 0.52479 0.0
H948 H 0.81368 0.25993 0.55805 0.0
H949 H 0.84182 0.24817 0.53021 0.0
O950 O 0.7887 0.2358 0.54334 0.0
H951 H 0.81792 0.20398 0.50263 0.0
H952 H 0.86004 0.26137 0.55107 0.0
Cu953 Cu 0.3594 0.33716 0.51771 0.0
N954 N 0.33829 0.33429 0.51347 0.0
N955 N 0.31399 0.33487 0.51685 0.0
C956 C 0.32895 0.33887 0.52157 0.0
C957 C 0.3139 0.32737 0.50527 0.0
C958 C 0.32895 0.32703 0.50321 0.0
O959 O 0.36008 0.3271 0.5345 0.0
C960 C 0.36654 0.36931 0.51309 0.0
O961 O 0.37297 0.38371 0.51636 0.0
H962 H 0.33305 0.34462 0.53101 0.0
H963 H 0.33275 0.32179 0.49487 0.0
N964 N 0.36937 0.32874 0.50517 0.0
N965 N 0.37512 0.31286 0.49068 0.0
C966 C 0.36398 0.3156 0.49811 0.0
C967 C 0.38437 0.33442 0.50215 0.0
C968 C 0.38794 0.3247 0.4932 0.0
C969 C 0.37221 0.32885 0.5421 0.0
O970 O 0.38563 0.3377 0.5384 0.0
H971 H 0.35236 0.30794 0.4988 0.0
H972 H 0.3922 0.34486 0.50632 0.0
O973 O 0.36971 0.3589 0.52019 0.0
H974 H 0.30372 0.32245 0.49879 0.0
H975 H 0.39913 0.32622 0.4889 0.0
Cu976 Cu 0.82646 0.53239 0.79688 0.0
N977 N 0.84155 0.54951 0.79107 0.0
N978 N 0.85186 0.57033 0.77923 0.0
C979 C 0.83878 0.55933 0.78196 0.0
C980 C 0.86335 0.56732 0.78695 0.0
C981 C 0.85692 0.55448 0.79432 0.0
O982 O 0.80836 0.53938 0.80125 0.0
C983 C 0.83589 0.51267 0.78092 0.0
O984 O 0.84898 0.52068 0.78693 0.0
H985 H 0.8274 0.5582 0.77721 0.0
H986 H 0.86304 0.54905 0.8014 0.0
N987 N 0.83313 0.52421 0.81233 0.0
N988 N 0.83325 0.50622 0.8273 0.0
C989 C 0.82843 0.50922 0.81501 0.0
C990 C 0.84142 0.53095 0.82331 0.0
C991 C 0.84134 0.51982 0.83269 0.0
C992 C 0.81144 0.54997 0.81012 0.0
O993 O 0.82585 0.55519 0.81494 0.0
H994 H 0.8209 0.50073 0.8083 0.0
H995 H 0.84675 0.5431 0.82461 0.0
O996 O 0.82337 0.51607 0.78337 0.0
H997 H 0.87548 0.57395 0.78728 0.0
H998 H 0.84652 0.52158 0.84271 0.0
Cu999 Cu 0.28881 0.499 0.76283 0.0
N1000 N 0.28731 0.48615 0.77762 0.0
N1001 N 0.29289 0.46926 0.79186 0.0
C1002 C 0.29442 0.47502 0.77943 0.0
C1003 C 0.28428 0.47697 0.79802 0.0
C1004 C 0.28086 0.48734 0.78923 0.0
O1005 O 0.29052 0.48701 0.74737 0.0
C1006 C 0.31764 0.5178 0.77412 0.0
O1007 O 0.31923 0.50507 0.77925 0.0
H1008 H 0.30142 0.47192 0.77204 0.0
H1009 H 0.27466 0.49559 0.79131 0.0
N1010 N 0.271 0.50578 0.76009 0.0
N1011 N 0.25586 0.52021 0.75271 0.0
C1012 C 0.2706 0.51922 0.75468 0.0
C1013 C 0.25603 0.49801 0.7617 0.0
C1014 C 0.24668 0.50686 0.75717 0.0
C1015 C 0.2879 0.49076 0.73549 0.0
O1016 O 0.28587 0.50426 0.73327 0.0
H1017 H 0.28091 0.52781 0.75169 0.0
H1018 H 0.25218 0.48655 0.76557 0.0
O1019 O 0.30617 0.51727 0.766 0.0
H1020 H 0.28099 0.4755 0.80826 0.0
H1021 H 0.23408 0.5036 0.75706 0.0
Cu1022 Cu 0.29363 0.50714 0.26871 0.0
N1023 N 0.27658 0.49093 0.27267 0.0
N1024 N 0.26227 0.47086 0.2835 0.0
C1025 C 0.2767 0.48009 0.2817 0.0
C1026 C 0.25265 0.47611 0.27527 0.0
C1027 C 0.26155 0.48851 0.26857 0.0
O1028 O 0.31067 0.49854 0.26494 0.0
C1029 C 0.30445 0.53561 0.28371 0.0
O1030 O 0.31432 0.54061 0.27434 0.0
H1031 H 0.28705 0.47944 0.28734 0.0
H1032 H 0.25733 0.49557 0.26153 0.0
N1033 N 0.28881 0.51644 0.25322 0.0
N1034 N 0.28598 0.53478 0.23942 0.0
C1035 C 0.28687 0.53049 0.25222 0.0
C1036 C 0.28875 0.51146 0.24065 0.0
C1037 C 0.28699 0.52275 0.2321 0.0
C1038 C 0.31824 0.49254 0.2733 0.0
O1039 O 0.31636 0.49386 0.28607 0.0
H1040 H 0.28667 0.53763 0.26072 0.0
H1041 H 0.29071 0.50072 0.23792 0.0
O1042 O 0.29639 0.52164 0.28352 0.0
H1043 H 0.24011 0.47147 0.27431 0.0
H1044 H 0.28747 0.52249 0.22137 0.0
Cu1045 Cu 0.76453 0.48258 0.27479 0.0
N1046 N 0.76128 0.46685 0.28722 0.0
N1047 N 0.76605 0.44793 0.29941 0.0
C1048 C 0.77096 0.45813 0.28964 0.0
C1049 C 0.75271 0.45041 0.30327 0.0
C1050 C 0.74979 0.46206 0.29572 0.0
O1051 O 0.77165 0.47477 0.25913 0.0
C1052 C 0.78658 0.51215 0.27655 0.0
O1053 O 0.78413 0.51278 0.26362 0.0
H1054 H 0.78161 0.45952 0.28449 0.0
H1055 H 0.74005 0.46678 0.29643 0.0
N1056 N 0.74621 0.4878 0.27004 0.0
N1057 N 0.73108 0.50154 0.26139 0.0
C1058 C 0.74497 0.50195 0.26746 0.0
C1059 C 0.73255 0.47815 0.26562 0.0
C1060 C 0.72321 0.48658 0.26025 0.0
C1061 C 0.76934 0.47895 0.24733 0.0
O1062 O 0.76347 0.49048 0.24545 0.0
H1063 H 0.75448 0.51227 0.26902 0.0
H1064 H 0.72998 0.46583 0.26551 0.0
O1065 O 0.77973 0.50016 0.28275 0.0
H1066 H 0.74548 0.44419 0.31093 0.0
H1067 H 0.71179 0.48204 0.25539 0.0
Cu1068 Cu 0.54531 0.25325 0.77926 0.0
N1069 N 0.53038 0.25057 0.7922 0.0
N1070 N 0.51198 0.25506 0.80463 0.0
C1071 C 0.52125 0.25975 0.79429 0.0
C1072 C 0.51543 0.2424 0.80916 0.0
C1073 C 0.52672 0.23964 0.80146 0.0
O1074 O 0.536 0.25944 0.76323 0.0
C1075 C 0.57 0.2661 0.7968 0.0
O1076 O 0.56283 0.25392 0.80343 0.0
H1077 H 0.52167 0.26986 0.78851 0.0
H1078 H 0.53201 0.23041 0.80263 0.0
N1079 N 0.55061 0.23518 0.77592 0.0
N1080 N 0.56429 0.21961 0.76925 0.0
C1081 C 0.56455 0.23417 0.77213 0.0
C1082 C 0.54119 0.22079 0.77549 0.0
C1083 C 0.54957 0.21118 0.77143 0.0
C1084 C 0.53795 0.25525 0.75154 0.0
O1085 O 0.54814 0.24764 0.74975 0.0
H1086 H 0.57457 0.24402 0.77123 0.0
H1087 H 0.52895 0.21759 0.77757 0.0
O1088 O 0.56412 0.26851 0.78554 0.0
H1089 H 0.51011 0.23555 0.8174 0.0
H1090 H 0.54495 0.199 0.76971 0.0
Cu1091 Cu 0.53741 0.76192 0.78441 0.0
N1092 N 0.54075 0.74304 0.78847 0.0
N1093 N 0.55249 0.72611 0.7967 0.0
C1094 C 0.55432 0.74073 0.79298 0.0
C1095 C 0.53718 0.71895 0.79431 0.0
C1096 C 0.52998 0.72942 0.78923 0.0
O1097 O 0.55678 0.77518 0.77856 0.0
C1098 C 0.531 0.7652 0.81149 0.0
O1099 O 0.54173 0.75825 0.81429 0.0
H1100 H 0.56513 0.74979 0.7942 0.0
H1101 H 0.51768 0.7274 0.78674 0.0
N1102 N 0.52237 0.76024 0.77053 0.0
N1103 N 0.50386 0.76635 0.75783 0.0
C1104 C 0.51138 0.76775 0.76992 0.0
C1105 C 0.52173 0.75375 0.75845 0.0
C1106 C 0.51032 0.75751 0.75059 0.0
C1107 C 0.55742 0.78727 0.77206 0.0
O1108 O 0.54506 0.79231 0.77105 0.0
H1109 H 0.50964 0.77491 0.77793 0.0
H1110 H 0.5295 0.74736 0.7554 0.0
O1111 O 0.52915 0.76936 0.7996 0.0
H1112 H 0.53151 0.70707 0.79631 0.0
H1113 H 0.50731 0.7543 0.74024 0.0
Cu1114 Cu 0.51142 0.72351 0.29008 0.0
N1115 N 0.49535 0.72003 0.30206 0.0
N1116 N 0.47684 0.72513 0.314 0.0
C1117 C 0.48765 0.7303 0.30485 0.0
C1118 C 0.47781 0.711 0.31706 0.0
C1119 C 0.48927 0.70791 0.30973 0.0
O1120 O 0.50348 0.73113 0.27398 0.0
C1121 C 0.53419 0.73563 0.30948 0.0
O1122 O 0.52675 0.72288 0.31523 0.0
H1123 H 0.48993 0.74134 0.30016 0.0
H1124 H 0.49305 0.69767 0.31017 0.0
N1125 N 0.51807 0.70625 0.28636 0.0
N1126 N 0.53341 0.69268 0.27896 0.0
C1127 C 0.53211 0.70675 0.28173 0.0
C1128 C 0.51017 0.69133 0.28656 0.0
C1129 C 0.51961 0.68294 0.28206 0.0
C1130 C 0.50104 0.72401 0.26286 0.0
O1131 O 0.50554 0.71161 0.26156 0.0
H1132 H 0.54108 0.71733 0.28024 0.0
H1133 H 0.49822 0.68687 0.28931 0.0
O1134 O 0.52926 0.73863 0.29802 0.0
H1135 H 0.47099 0.70354 0.32431 0.0
H1136 H 0.5163 0.67067 0.28068 0.0
Cu1137 Cu 0.539 0.23604 0.25918 0.0
N1138 N 0.5233 0.21849 0.26348 0.0
N1139 N 0.50252 0.20438 0.27379 0.0
C1140 C 0.51267 0.21837 0.27252 0.0
C1141 C 0.50707 0.19531 0.26519 0.0
C1142 C 0.51989 0.20404 0.25886 0.0
O1143 O 0.52877 0.25253 0.25817 0.0
C1144 C 0.5626 0.22642 0.27086 0.0
O1145 O 0.55649 0.21611 0.26155 0.0
H1146 H 0.5126 0.22842 0.27816 0.0
H1147 H 0.52628 0.20007 0.25148 0.0
N1148 N 0.54672 0.23488 0.24237 0.0
N1149 N 0.56288 0.24158 0.22571 0.0
C1150 C 0.55979 0.24479 0.23819 0.0
C1151 C 0.54124 0.22503 0.23214 0.0
C1152 C 0.55126 0.2291 0.22186 0.0
C1153 C 0.51692 0.24925 0.24995 0.0
O1154 O 0.51365 0.23622 0.24337 0.0
H1155 H 0.56698 0.2541 0.24432 0.0
H1156 H 0.53065 0.21569 0.23206 0.0
O1157 O 0.5566 0.23747 0.27214 0.0
H1158 H 0.50149 0.18326 0.26346 0.0
H1159 H 0.54992 0.2235 0.21222 0.0
C1160 C 0.22051 0.15418 0.15903 0.0
C1161 C 0.22778 0.15284 0.1715 0.0
C1162 C 0.22936 0.16022 0.14815 0.0
C1163 C 0.2684 0.18406 0.1391 0.0
H1164 H 0.25572 0.16522 0.10432 0.0
C1165 C 0.29501 0.21203 0.09054 0.0
C1166 C 0.29779 0.20248 0.08055 0.0
C1167 C 0.28707 0.20585 0.10184 0.0
C1168 C 0.25952 0.17055 0.11397 0.0
H1169 H 0.25015 0.15706 0.18227 0.0
H1170 H 0.26561 0.16748 0.16325 0.0
H1171 H 0.24085 0.15472 0.12355 0.0
H1172 H 0.2944 0.17884 0.07479 0.0
H1173 H 0.28071 0.16808 0.09455 0.0
H1174 H 0.28716 0.19981 0.12952 0.0
C1175 C 0.25302 0.16394 0.16192 0.0
C1176 C 0.25087 0.16464 0.12499 0.0
C1177 C 0.24416 0.15784 0.1728 0.0
C1178 C 0.29258 0.18656 0.08228 0.0
C1179 C 0.28457 0.18038 0.09357 0.0
C1180 C 0.27702 0.19003 0.12806 0.0
C1181 C 0.24574 0.16512 0.14941 0.0
C1182 C 0.25514 0.17134 0.13771 0.0
C1183 C 0.28163 0.18994 0.10348 0.0
C1184 C 0.27268 0.18338 0.11533 0.0
H1185 H 0.20794 0.15027 0.15757 0.0
H1186 H 0.22332 0.16111 0.13873 0.0
H1187 H 0.27198 0.1896 0.1487 0.0
H1188 H 0.29901 0.22433 0.08967 0.0
H1189 H 0.28492 0.21359 0.10918 0.0
C1190 C 0.84956 0.26543 0.14954 0.0
C1191 C 0.85072 0.25049 0.15128 0.0
C1192 C 0.85423 0.27331 0.13783 0.0
C1193 C 0.85517 0.28222 0.10853 0.0
H1194 H 0.89464 0.28283 0.09387 0.0
C1195 C 0.87173 0.30533 0.05631 0.0
C1196 C 0.88654 0.31589 0.05559 0.0
C1197 C 0.86767 0.29682 0.0678 0.0
C1198 C 0.88361 0.28276 0.09787 0.0
H1199 H 0.85757 0.2321 0.14195 0.0
H1200 H 0.86605 0.24603 0.12169 0.0
H1201 H 0.88705 0.26939 0.11466 0.0
H1202 H 0.90888 0.32539 0.06616 0.0
H1203 H 0.90179 0.31035 0.0862 0.0
H1204 H 0.85171 0.29559 0.09178 0.0
C1205 C 0.86161 0.25164 0.12944 0.0
C1206 C 0.87922 0.27501 0.1097 0.0
C1207 C 0.8568 0.2437 0.14108 0.0
C1208 C 0.89737 0.31737 0.06643 0.0
C1209 C 0.89335 0.30872 0.07787 0.0
C1210 C 0.85946 0.28982 0.09664 0.0
C1211 C 0.86029 0.26648 0.12767 0.0
C1212 C 0.86499 0.27472 0.11516 0.0
C1213 C 0.87837 0.29856 0.07875 0.0
C1214 C 0.87374 0.29019 0.09121 0.0
H1215 H 0.84516 0.27109 0.15726 0.0
H1216 H 0.85326 0.28482 0.13677 0.0
H1217 H 0.84407 0.28206 0.11247 0.0
H1218 H 0.86312 0.30393 0.04813 0.0
H1219 H 0.8561 0.28892 0.06817 0.0
C1220 C 0.84601 0.81542 0.16258 0.0
C1221 C 0.86231 0.82156 0.16407 0.0
C1222 C 0.83876 0.80985 0.15023 0.0
C1223 C 0.84482 0.81073 0.11376 0.0
H1224 H 0.8105 0.77356 0.1133 0.0
C1225 C 0.81961 0.77612 0.06523 0.0
C1226 C 0.80354 0.76852 0.0641 0.0
C1227 C 0.82645 0.78378 0.07704 0.0
C1228 C 0.8199 0.78408 0.11321 0.0
H1229 H 0.88368 0.8268 0.15345 0.0
H1230 H 0.87106 0.81686 0.13196 0.0
H1231 H 0.8231 0.78434 0.13443 0.0
H1232 H 0.78201 0.76366 0.07446 0.0
H1233 H 0.79386 0.7772 0.09491 0.0
H1234 H 0.84167 0.81035 0.09248 0.0
C1235 C 0.86385 0.81651 0.14036 0.0
C1236 C 0.82717 0.79029 0.12538 0.0
C1237 C 0.87112 0.82208 0.15275 0.0
C1238 C 0.79441 0.76934 0.07493 0.0
C1239 C 0.80126 0.777 0.08674 0.0
C1240 C 0.83753 0.80451 0.10156 0.0
C1241 C 0.84755 0.81019 0.13894 0.0
C1242 C 0.83976 0.8037 0.12587 0.0
C1243 C 0.81744 0.78407 0.08808 0.0
C1244 C 0.82496 0.79107 0.10109 0.0
H1245 H 0.8388 0.81457 0.17105 0.0
H1246 H 0.82619 0.80527 0.14955 0.0
H1247 H 0.85431 0.82117 0.1137 0.0
H1248 H 0.82706 0.77572 0.05714 0.0
H1249 H 0.83894 0.78896 0.07767 0.0
C1250 C 0.20494 0.83365 0.08981 0.0
C1251 C 0.19018 0.8238 0.08612 0.0
C1252 C 0.21785 0.83402 0.08236 0.0
C1253 C 0.2281 0.82391 0.04896 0.0
H1254 H 0.26874 0.82832 0.06629 0.0
C1255 C 0.28055 0.81622 0.02106 0.0
C1256 C 0.29524 0.82654 0.02424 0.0
C1257 C 0.26767 0.81616 0.02843 0.0
C1258 C 0.2575 0.82725 0.06129 0.0
H1259 H 0.17754 0.80617 0.07204 0.0
H1260 H 0.20002 0.80668 0.05917 0.0
H1261 H 0.24655 0.82748 0.07972 0.0
H1262 H 0.30764 0.84534 0.03737 0.0
H1263 H 0.28526 0.84512 0.05025 0.0
H1264 H 0.23906 0.82355 0.03053 0.0
C1265 C 0.20159 0.81442 0.06759 0.0
C1266 C 0.24478 0.82678 0.06899 0.0
C1267 C 0.18869 0.8141 0.07499 0.0
C1268 C 0.29662 0.837 0.0348 0.0
C1269 C 0.28377 0.83689 0.0422 0.0
C1270 C 0.24081 0.82432 0.04127 0.0
C1271 C 0.21631 0.82449 0.07109 0.0
C1272 C 0.22991 0.82509 0.06292 0.0
C1273 C 0.26918 0.82639 0.03918 0.0
C1274 C 0.25566 0.82599 0.04734 0.0
H1275 H 0.20642 0.84135 0.09826 0.0
H1276 H 0.22898 0.84203 0.08526 0.0
H1277 H 0.21689 0.82288 0.04393 0.0
H1278 H 0.27908 0.80791 1.0131 0.0
H1279 H 0.25661 0.80782 0.02593 0.0
C1280 C 0.27986 0.81385 0.91049 0.0
C1281 C 0.26502 0.81616 0.90891 0.0
C1282 C 0.28948 0.81948 0.92174 0.0
C1283 C 0.29606 0.84743 0.9495 0.0
H1284 H 0.31974 0.82167 0.96528 0.0
C1285 C 0.33351 0.86219 0.99914 0.0
C1286 C 0.34824 0.85966 0.99906 0.0
C1287 C 0.32268 0.85711 0.98845 0.0
C1288 C 0.31328 0.82903 0.96093 0.0
H1289 H 0.24872 0.82635 0.91783 0.0
H1290 H 0.26555 0.83616 0.93757 0.0
H1291 H 0.30207 0.81239 0.94603 0.0
H1292 H 0.36381 0.85125 0.98746 0.0
H1293 H 0.3449 0.84201 0.96893 0.0
H1294 H 0.30735 0.86407 0.9645 0.0
C1295 C 0.26979 0.83012 0.93002 0.0
C1296 C 0.30318 0.82374 0.94988 0.0
C1297 C 0.26016 0.82452 0.91871 0.0
C1298 C 0.35225 0.85258 0.98799 0.0
C1299 C 0.34147 0.84746 0.97736 0.0
C1300 C 0.30615 0.85271 0.96062 0.0
C1301 C 0.2845 0.82751 0.93173 0.0
C1302 C 0.29462 0.83295 0.9439 0.0
C1303 C 0.32651 0.84951 0.97753 0.0
C1304 C 0.31503 0.84364 0.96631 0.0
H1305 H 0.28405 0.80769 0.903 0.0
H1306 H 0.30089 0.81757 0.92258 0.0
H1307 H 0.28973 0.85486 0.94508 0.0
H1308 H 0.33029 0.8678 1.00757 0.0
H1309 H 0.31123 0.85882 0.98886 0.0
C1310 C 0.25055 0.1781 0.91438 0.0
C1311 C 0.24584 0.18633 0.90397 0.0
C1312 C 0.2551 0.18483 0.927 0.0
C1313 C 0.25283 0.21787 0.94815 0.0
H1314 H 0.28422 0.20616 0.97004 0.0
C1315 C 0.2818 0.24899 0.99764 0.0
C1316 C 0.28411 0.23964 1.00824 0.0
C1317 C 0.27611 0.24263 0.98506 0.0
C1318 C 0.27533 0.20946 0.9641 0.0
H1319 H 0.24263 0.20825 0.89857 0.0
H1320 H 0.25104 0.22018 0.92037 0.0
H1321 H 0.27726 0.19525 0.94779 0.0
H1322 H 0.28151 0.21612 1.01393 0.0
H1323 H 0.27171 0.20516 0.99208 0.0
H1324 H 0.25132 0.23244 0.96448 0.0
C1325 C 0.2508 0.20836 0.91899 0.0
C1326 C 0.27127 0.20315 0.9513 0.0
C1327 C 0.24607 0.20156 0.90642 0.0
C1328 C 0.27992 0.22372 1.00605 0.0
C1329 C 0.27442 0.21741 0.99347 0.0
C1330 C 0.25706 0.22434 0.96091 0.0
C1331 C 0.25525 0.20006 0.92954 0.0
C1332 C 0.25986 0.20715 0.94313 0.0
C1333 C 0.27276 0.2268 0.98274 0.0
C1334 C 0.26827 0.22012 0.96909 0.0
H1335 H 0.25027 0.16627 0.91291 0.0
H1336 H 0.25812 0.17789 0.93484 0.0
H1337 H 0.24382 0.22111 0.94233 0.0
H1338 H 0.28495 0.26128 0.9989 0.0
H1339 H 0.27499 0.25019 0.97699 0.0
C1340 C 0.92226 0.22502 0.92787 0.0
C1341 C 0.91049 0.21279 0.93275 0.0
C1342 C 0.92481 0.23983 0.93301 0.0
C1343 C 0.90497 0.26374 0.95049 0.0
H1344 H 0.94642 0.28835 0.96201 0.0
C1345 C 0.91298 0.32197 0.97462 0.0
C1346 C 0.92146 0.32416 0.98691 0.0
C1347 C 0.91396 0.31055 0.9658 0.0
C1348 C 0.9348 0.28163 0.95879 0.0
H1349 H 0.89198 0.20651 0.94662 0.0
H1350 H 0.8964 0.23224 0.95557 0.0
H1351 H 0.94301 0.26358 0.95104 0.0
H1352 H 0.93849 0.31691 0.99918 0.0
H1353 H 0.94014 0.29677 0.98382 0.0
H1354 H 0.8966 0.28134 0.95858 0.0
C1355 C 0.90368 0.23043 0.94779 0.0
C1356 C 0.93286 0.26752 0.95243 0.0
C1357 C 0.90124 0.21567 0.94276 0.0
C1358 C 0.93191 0.31553 0.98974 0.0
C1359 C 0.93283 0.30399 0.98093 0.0
C1360 C 0.9069 0.27782 0.95675 0.0
C1361 C 0.91547 0.24268 0.94298 0.0
C1362 C 0.91787 0.2583 0.94848 0.0
C1363 C 0.92336 0.30096 0.96912 0.0
C1364 C 0.9218 0.28684 0.96117 0.0
H1365 H 0.92962 0.2231 0.92019 0.0
H1366 H 0.93394 0.24907 0.92909 0.0
H1367 H 0.8933 0.25696 0.94743 0.0
H1368 H 0.905 0.32864 0.97215 0.0
H1369 H 0.9068 0.30876 0.95664 0.0
C1370 C 0.8772 0.83115 0.90615 0.0
C1371 C 0.87454 0.82308 0.89395 0.0
C1372 C 0.87253 0.82363 0.91807 0.0
C1373 C 0.86285 0.78521 0.93318 0.0
H1374 H 0.84501 0.80415 0.96039 0.0
C1375 C 0.85217 0.75973 0.98598 0.0
C1376 C 0.83803 0.75964 0.99159 0.0
C1377 C 0.85678 0.76772 0.97424 0.0
C1378 C 0.84991 0.79865 0.95287 0.0
H1379 H 0.86436 0.80076 0.8848 0.0
H1380 H 0.85629 0.78767 0.90555 0.0
H1381 H 0.85213 0.81738 0.9395 0.0
H1382 H 0.81762 0.76792 0.98893 0.0
H1383 H 0.82572 0.78187 0.96869 0.0
H1384 H 0.86045 0.7664 0.94648 0.0
C1385 C 0.86222 0.7998 0.90592 0.0
C1386 C 0.85414 0.80632 0.94093 0.0
C1387 C 0.86684 0.80732 0.894 0.0
C1388 C 0.82872 0.7679 0.98516 0.0
C1389 C 0.83336 0.77592 0.97347 0.0
C1390 C 0.85871 0.77759 0.94515 0.0
C1391 C 0.86511 0.80782 0.91814 0.0
C1392 C 0.86062 0.79968 0.9309 0.0
C1393 C 0.84741 0.77589 0.96781 0.0
C1394 C 0.85213 0.78418 0.95515 0.0
H1395 H 0.88333 0.84323 0.90657 0.0
H1396 H 0.87512 0.83015 0.92729 0.0
H1397 H 0.86798 0.77982 0.92576 0.0
H1398 H 0.85975 0.7537 0.99068 0.0
H1399 H 0.86778 0.76761 0.97028 0.0
C1400 C 0.14114 0.14197 0.2275 0.0
C1401 C 0.15043 0.15318 0.21946 0.0
C1402 C 0.1315 0.14586 0.23666 0.0
C1403 C 0.12264 0.17884 0.25345 0.0
H1404 H 0.0807 0.15146 0.25323 0.0
C1405 C 0.07068 0.19715 0.27326 0.0
C1406 C 0.05897 0.18625 0.27975 0.0
C1407 C 0.08271 0.19297 0.26726 0.0
C1408 C 0.0924 0.15915 0.25362 0.0
H1409 H 0.1572 0.17722 0.21481 0.0
H1410 H 0.14057 0.18413 0.23082 0.0
H1411 H 0.10049 0.14445 0.241 0.0
H1412 H 0.05124 0.16242 0.2853 0.0
H1413 H 0.07217 0.15516 0.27491 0.0
H1414 H 0.11444 0.19365 0.26592 0.0
C1415 C 0.14083 0.17236 0.2303 0.0
C1416 C 0.10382 0.15511 0.24658 0.0
C1417 C 0.15043 0.16844 0.22114 0.0
C1418 C 0.05985 0.1711 0.28024 0.0
C1419 C 0.07189 0.16692 0.27424 0.0
C1420 C 0.11122 0.18289 0.2605 0.0
C1421 C 0.13087 0.16106 0.23791 0.0
C1422 C 0.11908 0.16494 0.24629 0.0
C1423 C 0.08344 0.17777 0.26756 0.0
C1424 C 0.09588 0.17317 0.26059 0.0
H1425 H 0.14071 0.13007 0.22619 0.0
H1426 H 0.12419 0.13688 0.24246 0.0
H1427 H 0.1343 0.18663 0.25362 0.0
H1428 H 0.07034 0.20888 0.27247 0.0
H1429 H 0.09121 0.20162 0.26205 0.0
C1430 C 0.83367 0.1678 0.20346 0.0
C1431 C 0.84608 0.17049 0.19491 0.0
C1432 C 0.82539 0.15288 0.20656 0.0
C1433 C 0.81359 0.11359 0.19516 0.0
H1434 H 0.81268 0.10331 0.23257 0.0
C1435 C 0.7896 0.0514 0.21358 0.0
C1436 C 0.7831 0.04928 0.22609 0.0
C1437 C 0.79639 0.06617 0.20898 0.0
C1438 C 0.81247 0.10599 0.22209 0.0
H1439 H 0.85939 0.15985 0.18262 0.0
H1440 H 0.84455 0.13359 0.18782 0.0
H1441 H 0.82599 0.12914 0.2259 0.0
H1442 H 0.77756 0.06056 0.24325 0.0
H1443 H 0.78847 0.08631 0.235 0.0
H1444 H 0.79965 0.09061 0.1913 0.0
C1445 C 0.84137 0.14307 0.19217 0.0
C1446 C 0.82024 0.12079 0.21829 0.0
C1447 C 0.84988 0.15802 0.18927 0.0
C1448 C 0.78271 0.06203 0.23363 0.0
C1449 C 0.78912 0.07675 0.22893 0.0
C1450 C 0.80551 0.09881 0.19897 0.0
C1451 C 0.8292 0.14041 0.20097 0.0
C1452 C 0.82089 0.1247 0.20482 0.0
C1453 C 0.7965 0.07906 0.21673 0.0
C1454 C 0.80484 0.09481 0.21251 0.0
H1455 H 0.8306 0.17725 0.20798 0.0
H1456 H 0.81602 0.15107 0.21336 0.0
H1457 H 0.8139 0.11642 0.18469 0.0
H1458 H 0.79009 0.04164 0.2077 0.0
H1459 H 0.80207 0.06743 0.19962 0.0
C1460 C 0.91751 0.82451 0.19265 0.0
C1461 C 0.90392 0.82166 0.19985 0.0
C1462 C 0.93058 0.82036 0.19779 0.0
C1463 C 0.94773 0.80964 0.22983 0.0
H1464 H 0.97486 0.79641 0.20663 0.0
C1465 C 0.99604 0.78314 0.24991 0.0
C1466 C 1.01066 0.78821 0.24424 0.0
C1467 C 0.98313 0.78724 0.24441 0.0
C1468 C 0.96747 0.80019 0.21325 0.0
H1469 H 0.89317 0.81153 0.2178 0.0
H1470 H 0.9156 0.80396 0.22656 0.0
H1471 H 0.95221 0.80323 0.19709 0.0
H1472 H 0.02299 0.80139 0.22812 0.0
H1473 H 1.00051 0.80849 0.21853 0.0
H1474 H 0.96287 0.80631 0.24599 0.0
C1475 C 0.91651 0.8099 0.21718 0.0
C1476 C 0.95446 0.80417 0.20777 0.0
C1477 C 0.90356 0.81418 0.21211 0.0
C1478 C 1.01198 0.79741 0.23285 0.0
C1479 C 0.99904 0.80136 0.22726 0.0
C1480 C 0.96062 0.80551 0.2353 0.0
C1481 C 0.93033 0.81309 0.21021 0.0
C1482 C 0.94436 0.80894 0.21598 0.0
C1483 C 0.98444 0.79637 0.23298 0.0
C1484 C 0.97067 0.80073 0.2271 0.0
H1485 H 0.91818 0.83031 0.18319 0.0
H1486 H 0.941 0.82319 0.19215 0.0
H1487 H 0.94052 0.81358 0.23652 0.0
H1488 H 0.99462 0.77612 0.2587 0.0
H1489 H 0.97204 0.7831 0.24902 0.0
C1490 C 0.191 0.84223 0.17192 0.0
C1491 C 0.18516 0.84576 0.15948 0.0
C1492 C 0.19826 0.85377 0.18112 0.0
C1493 C 0.19924 0.89361 0.18931 0.0
H1494 H 0.22851 0.88855 0.21735 0.0
C1495 C 0.22394 0.9376 0.23237 0.0
C1496 C 0.22213 0.93126 0.24514 0.0
C1497 C 0.221 0.92814 0.22105 0.0
C1498 C 0.22034 0.89009 0.20956 0.0
H1499 H 0.18357 0.86434 0.14655 0.0
H1500 H 0.19694 0.88457 0.16236 0.0
H1501 H 0.22219 0.87081 0.19845 0.0
H1502 H 0.21608 0.91012 0.25612 0.0
H1503 H 0.21118 0.89357 0.23633 0.0
H1504 H 0.19764 0.91306 0.20047 0.0
C1505 C 0.19538 0.8728 0.16521 0.0
C1506 C 0.21665 0.87991 0.19875 0.0
C1507 C 0.18793 0.8612 0.15604 0.0
C1508 C 0.2174 0.91529 0.24639 0.0
C1509 C 0.21476 0.90585 0.23509 0.0
C1510 C 0.20317 0.90395 0.20002 0.0
C1511 C 0.20012 0.86922 0.17806 0.0
C1512 C 0.20574 0.88127 0.18862 0.0
C1513 C 0.21652 0.91218 0.22232 0.0
C1514 C 0.21347 0.90208 0.21039 0.0
H1515 H 0.18932 0.83045 0.1748 0.0
H1516 H 0.20161 0.85044 0.19089 0.0
H1517 H 0.19061 0.89495 0.18187 0.0
H1518 H 0.22752 0.94987 0.23117 0.0
H1519 H 0.22244 0.9333 0.21131 0.0
C1520 C 0.1817 0.81554 0.84168 0.0
C1521 C 0.18628 0.81322 0.85489 0.0
C1522 C 0.16633 0.80937 0.83697 0.0
C1523 C 0.13061 0.77909 0.84187 0.0
H1524 H 0.11127 0.80577 0.82179 0.0
C1525 C 0.06702 0.75827 0.82066 0.0
C1526 C 0.06418 0.76284 0.80767 0.0
C1527 C 0.08128 0.76485 0.82752 0.0
C1528 C 0.11653 0.79813 0.82726 0.0
H1529 H 0.17839 0.80209 0.87339 0.0
H1530 H 0.15137 0.79096 0.86499 0.0
H1531 H 0.1375 0.816 0.83177 0.0
H1532 H 0.07399 0.77804 0.79171 0.0
H1533 H 0.09896 0.78931 0.80354 0.0
H1534 H 0.10985 0.76109 0.83703 0.0
C1535 C 0.15978 0.79772 0.85838 0.0
C1536 C 0.13152 0.804 0.83302 0.0
C1537 C 0.17522 0.80405 0.86316 0.0
C1538 C 0.07579 0.77432 0.80174 0.0
C1539 C 0.09008 0.78084 0.80856 0.0
C1540 C 0.11563 0.77316 0.83602 0.0
C1541 C 0.15517 0.80056 0.8453 0.0
C1542 C 0.1388 0.7945 0.8402 0.0
C1543 C 0.09304 0.7761 0.8215 0.0
C1544 C 0.10851 0.78258 0.82848 0.0
H1545 H 0.19003 0.82219 0.83494 0.0
H1546 H 0.16318 0.81143 0.82676 0.0
H1547 H 0.13601 0.7715 0.84727 0.0
H1548 H 0.05827 0.74951 0.82554 0.0
H1549 H 0.08307 0.76111 0.83754 0.0
C1550 C 0.25646 0.14152 0.87345 0.0
C1551 C 0.24939 0.1511 0.86603 0.0
C1552 C 0.26267 0.13103 0.86704 0.0
C1553 C 0.25817 0.10965 0.83524 0.0
H1554 H 0.29741 0.10183 0.84567 0.0
C1555 C 0.2834 0.07325 0.80166 0.0
C1556 C 0.29018 0.06244 0.80735 0.0
C1557 C 0.27996 0.08437 0.80948 0.0
C1558 C 0.28634 0.10374 0.84272 0.0
H1559 H 0.24429 0.15766 0.84597 0.0
H1560 H 0.25488 0.13942 0.83491 0.0
H1561 H 0.28854 0.12064 0.85815 0.0
H1562 H 0.29932 0.0553 0.82577 0.0
H1563 H 0.29302 0.07474 0.83966 0.0
H1564 H 0.2557 0.09277 0.82002 0.0
C1565 C 0.25536 0.13977 0.84569 0.0
C1566 C 0.28126 0.11455 0.84987 0.0
C1567 C 0.24925 0.15025 0.85206 0.0
C1568 C 0.29414 0.0635 0.82108 0.0
C1569 C 0.2905 0.07464 0.82902 0.0
C1570 C 0.26316 0.09886 0.8282 0.0
C1571 C 0.2619 0.1298 0.85306 0.0
C1572 C 0.26722 0.11783 0.84606 0.0
C1573 C 0.28294 0.08496 0.82334 0.0
C1574 C 0.27746 0.09592 0.83163 0.0
H1575 H 0.2567 0.14173 0.88422 0.0
H1576 H 0.26756 0.12351 0.87304 0.0
H1577 H 0.2471 0.11154 0.83222 0.0
H1578 H 0.28042 0.07293 0.79107 0.0
H1579 H 0.27467 0.09238 0.80461 0.0
C1580 C 0.9401 0.18762 0.86715 0.0
C1581 C 0.92473 0.18735 0.86343 0.0
C1582 C 0.95215 0.19353 0.8586 0.0
C1583 C 0.95947 0.20371 0.82313 0.0
H1584 H 1.00061 0.22527 0.83786 0.0
C1585 C 1.01025 0.24022 0.79263 0.0
C1586 C 0.02515 0.23856 0.79578 0.0
C1587 C 0.99754 0.23271 0.80005 0.0
C1588 C 0.98921 0.21913 0.83361 0.0
H1589 H 0.9099 0.19334 0.848 0.0
H1590 H 0.931 0.2042 0.83321 0.0
H1591 H 0.97943 0.21563 0.85271 0.0
H1592 H 0.03821 0.22713 0.80878 0.0
H1593 H 1.01606 0.21418 0.82178 0.0
H1594 H 0.96933 0.20777 0.80396 0.0
C1595 C 0.93374 0.19945 0.84256 0.0
C1596 C 0.97705 0.21356 0.84212 0.0
C1597 C 0.92166 0.19333 0.85106 0.0
C1598 C 0.02691 0.22868 0.80609 0.0
C1599 C 1.01426 0.22134 0.8136 0.0
C1600 C 0.97161 0.20949 0.8146 0.0
C1601 C 0.94915 0.19951 0.84617 0.0
C1602 C 0.96202 0.20569 0.83702 0.0
C1603 C 0.99954 0.22355 0.81085 0.0
C1604 C 0.98662 0.21717 0.81977 0.0
H1605 H 0.94275 0.18284 0.87654 0.0
H1606 H 0.96377 0.19309 0.86163 0.0
H1607 H 0.94814 0.1975 0.81882 0.0
H1608 H 1.00851 0.24773 0.78473 0.0
H1609 H 0.98632 0.23463 0.79774 0.0
C1610 C 0.88655 0.91392 0.83804 0.0
C1611 C 0.87776 0.89995 0.84322 0.0
C1612 C 0.87965 0.92228 0.82925 0.0
C1613 C 0.84447 0.92032 0.80725 0.0
H1614 H 0.85451 0.96364 0.81544 0.0
C1615 C 0.80434 0.95683 0.79043 0.0
C1616 C 0.8106 0.97236 0.78741 0.0
C1617 C 0.81389 0.94803 0.79508 0.0
C1618 C 0.85176 0.95164 0.8128 0.0
H1619 H 0.85495 0.88347 0.8426 0.0
H1620 H 0.84285 0.89802 0.82719 0.0
H1621 H 0.86837 0.94789 0.82745 0.0
H1622 H 0.83204 0.99068 0.78648 0.0
H1623 H 0.84894 0.9752 0.7946 0.0
H1624 H 0.82767 0.92402 0.79275 0.0
C1625 C 0.85515 0.9025 0.82991 0.0
C1626 C 0.85971 0.94256 0.81974 0.0
C1627 C 0.86208 0.89411 0.83873 0.0
C1628 C 0.82685 0.97875 0.78869 0.0
C1629 C 0.83649 0.96989 0.79346 0.0
C1630 C 0.83655 0.92941 0.80029 0.0
C1631 C 0.86375 0.91692 0.82535 0.0
C1632 C 0.85601 0.92671 0.81722 0.0
C1633 C 0.83009 0.95444 0.7969 0.0
C1634 C 0.83987 0.94516 0.80314 0.0
H1635 H 0.89873 0.91864 0.84111 0.0
H1636 H 0.88675 0.93312 0.82572 0.0
H1637 H 0.84148 0.90824 0.80486 0.0
H1638 H 0.79188 0.95146 0.78952 0.0
H1639 H 0.80843 0.9363 0.79777 0.0
C1640 C 0.20633 0.10071 0.21036 0.0
C1641 C 0.2176 0.11471 0.2084 0.0
C1642 C 0.2106 0.08832 0.21593 0.0
C1643 C 0.24182 0.07738 0.23562 0.0
H1644 H 0.22205 0.03758 0.21962 0.0
C1645 C 0.25699 0.02192 0.2531 0.0
C1646 C 0.2439 0.00938 0.25498 0.0
C1647 C 0.25529 0.03505 0.24658 0.0
C1648 C 0.22764 0.04859 0.22426 0.0
H1649 H 0.24216 0.12679 0.21131 0.0
H1650 H 0.24961 0.10512 0.22094 0.0
H1651 H 0.21581 0.06003 0.21065 0.0
H1652 H 0.21891 1.00063 0.25105 0.0
H1653 H 0.21601 0.02319 0.2398 0.0
H1654 H 0.2535 0.0658 0.24936 0.0
C1655 C 0.23745 0.10374 0.21818 0.0
C1656 C 0.22401 0.06148 0.21914 0.0
C1657 C 0.23319 0.11613 0.21257 0.0
C1658 C 0.22926 0.01006 0.24981 0.0
C1659 C 0.22759 0.02302 0.24325 0.0
C1660 C 0.24545 0.06443 0.24078 0.0
C1661 C 0.22625 0.08958 0.21971 0.0
C1662 C 0.23082 0.07602 0.22488 0.0
C1663 C 0.24051 0.03578 0.24166 0.0
C1664 C 0.23817 0.04983 0.23531 0.0
H1665 H 0.19426 0.09911 0.20716 0.0
H1666 H 0.2016 0.07768 0.21716 0.0
H1667 H 0.24725 0.08839 0.24032 0.0
H1668 H 0.26841 0.02177 0.25703 0.0
H1669 H 0.26551 0.04465 0.24544 0.0
C1670 C 0.22986 0.86091 0.84064 0.0
C1671 C 0.23298 0.85813 0.85408 0.0
C1672 C 0.23482 0.87559 0.83558 0.0
C1673 C 0.26199 0.91346 0.83957 0.0
H1674 H 0.22892 0.92622 0.82098 0.0
C1675 C 0.27192 0.97417 0.81795 0.0
C1676 C 0.26463 0.97522 0.80544 0.0
C1677 C 0.26828 0.9604 0.82486 0.0
C1678 C 0.23834 0.92281 0.826 0.0
H1679 H 0.24471 0.86836 0.87254 0.0
H1680 H 0.25373 0.89431 0.86352 0.0
H1681 H 0.2231 0.90115 0.83115 0.0
H1682 H 0.24794 0.96264 0.79032 0.0
H1683 H 0.24175 0.93856 0.8022 0.0
H1684 H 0.27737 0.93494 0.83405 0.0
C1685 C 0.24723 0.88501 0.85702 0.0
C1686 C 0.23498 0.90847 0.83188 0.0
C1687 C 0.24213 0.87021 0.86215 0.0
C1688 C 0.25355 0.96224 0.80003 0.0
C1689 C 0.25001 0.94845 0.80687 0.0
C1690 C 0.26542 0.9278 0.83354 0.0
C1691 C 0.24317 0.88786 0.84379 0.0
C1692 C 0.2468 0.90356 0.83854 0.0
C1693 C 0.25733 0.94734 0.81937 0.0
C1694 C 0.25365 0.93254 0.82651 0.0
H1695 H 0.22317 0.85174 0.83408 0.0
H1696 H 0.23185 0.87743 0.82526 0.0
H1697 H 0.27131 0.90989 0.84462 0.0
H1698 H 0.28035 0.98404 0.82245 0.0
H1699 H 0.27395 0.96004 0.83455 0.0
C1700 C 0.18258 0.20501 0.84579 0.0
C1701 C 0.17748 0.19683 0.85735 0.0
C1702 C 0.17511 0.21559 0.84071 0.0
C1703 C 0.14868 0.23868 0.84908 0.0
H1704 H 0.1347 0.23293 0.81191 0.0
C1705 C 0.10013 0.26337 0.82727 0.0
C1706 C 0.10034 0.26786 0.81388 0.0
C1707 C 0.11093 0.25614 0.83252 0.0
C1708 C 0.13871 0.23497 0.82224 0.0
H1709 H 0.16109 0.19369 0.87296 0.0
H1710 H 0.14837 0.21243 0.86438 0.0
H1711 H 0.15179 0.21864 0.82133 0.0
H1712 H 0.11241 0.2686 0.79564 0.0
H1713 H 0.13152 0.25639 0.80484 0.0
H1714 H 0.13574 0.25504 0.85005 0.0
C1715 C 0.15807 0.2107 0.85918 0.0
C1716 C 0.14853 0.22671 0.82765 0.0
C1717 C 0.16535 0.19998 0.86411 0.0
C1718 C 0.11181 0.26514 0.80594 0.0
C1719 C 0.12275 0.25806 0.81124 0.0
C1720 C 0.13902 0.24707 0.84364 0.0
C1721 C 0.16256 0.21834 0.84722 0.0
C1722 C 0.15343 0.22828 0.84119 0.0
C1723 C 0.12241 0.25333 0.8246 0.0
C1724 C 0.13364 0.24516 0.83018 0.0
H1725 H 0.19176 0.20262 0.8403 0.0
H1726 H 0.17892 0.22137 0.83152 0.0
H1727 H 0.15239 0.24029 0.85951 0.0
H1728 H 0.09131 0.26503 0.83362 0.0
H1729 H 0.10997 0.25242 0.84275 0.0
C1730 C 0.86611 0.15038 0.85736 0.0
C1731 C 0.8735 0.14868 0.86966 0.0
C1732 C 0.8544 0.13821 0.85163 0.0
C1733 C 0.82731 0.10011 0.85851 0.0
H1734 H 0.83121 0.09289 0.82104 0.0
C1735 C 0.79889 0.04209 0.83162 0.0
C1736 C 0.79388 0.04235 0.81821 0.0
C1737 C 0.8064 0.05572 0.83846 0.0
C1738 C 0.82974 0.09486 0.83145 0.0
H1739 H 0.87414 0.13295 0.88573 0.0
H1740 H 0.85377 0.1117 0.87569 0.0
H1741 H 0.84831 0.11561 0.83192 0.0
H1742 H 0.79165 0.05706 0.80176 0.0
H1743 H 0.80454 0.08082 0.8137 0.0
H1744 H 0.8089 0.0791 0.85803 0.0
C1745 C 0.85685 0.12251 0.87056 0.0
C1746 C 0.83956 0.10791 0.8377 0.0
C1747 C 0.86855 0.13469 0.87631 0.0
C1748 C 0.79571 0.05652 0.81201 0.0
C1749 C 0.80311 0.07011 0.81884 0.0
C1750 C 0.81745 0.08702 0.85224 0.0
C1751 C 0.84984 0.12404 0.85804 0.0
C1752 C 0.83858 0.11064 0.85132 0.0
C1753 C 0.80895 0.06986 0.83203 0.0
C1754 C 0.81864 0.08418 0.83865 0.0
H1755 H 0.8695 0.1611 0.85211 0.0
H1756 H 0.84903 0.13986 0.84208 0.0
H1757 H 0.82614 0.10198 0.86899 0.0
H1758 H 0.79771 0.03134 0.83662 0.0
H1759 H 0.81085 0.05511 0.84858 0.0
C1760 C 0.91759 0.83138 0.84773 0.0
C1761 C 0.90279 0.82343 0.85204 0.0
C1762 C 0.92661 0.82369 0.84107 0.0
C1763 C 0.93136 0.78496 0.83743 0.0
H1764 H 0.95763 0.80278 0.80863 0.0
C1765 C 0.96604 0.75094 0.80958 0.0
C1766 C 0.98122 0.75876 0.80603 0.0
C1767 C 0.95616 0.75888 0.81452 0.0
C1768 C 0.95049 0.79769 0.81676 0.0
H1769 H 0.88551 0.80129 0.85199 0.0
H1770 H 0.90114 0.78794 0.84035 0.0
H1771 H 0.94083 0.8166 0.81803 0.0
H1772 H 0.99788 0.78118 0.80508 0.0
H1773 H 0.98074 0.79499 0.81377 0.0
H1774 H 0.9411 0.76616 0.83632 0.0
C1775 C 0.90596 0.80006 0.84237 0.0
C1776 C 0.94083 0.80562 0.82214 0.0
C1777 C 0.89696 0.80773 0.84901 0.0
C1778 C 0.98621 0.77477 0.80752 0.0
C1779 C 0.97635 0.78271 0.8125 0.0
C1780 C 0.94103 0.77706 0.83208 0.0
C1781 C 0.92104 0.80786 0.83856 0.0
C1782 C 0.93113 0.79936 0.83255 0.0
C1783 C 0.96119 0.77488 0.81611 0.0
C1784 C 0.95075 0.7833 0.82168 0.0
H1785 H 0.92254 0.84342 0.85003 0.0
H1786 H 0.9382 0.83006 0.83838 0.0
H1787 H 0.9243 0.7799 0.84561 0.0
H1788 H 0.96168 0.73866 0.80837 0.0
H1789 H 0.94449 0.75245 0.81696 0.0
C1790 C 0.84517 0.88559 0.21295 0.0
C1791 C 0.84978 0.87747 0.22348 0.0
C1792 C 0.84183 0.89946 0.21539 0.0
C1793 C 0.84568 0.93026 0.24102 0.0
H1794 H 0.80748 0.93382 0.22346 0.0
C1795 C 0.81196 0.97288 0.25807 0.0
C1796 C 0.80377 0.97869 0.24811 0.0
C1797 C 0.8198 0.96208 0.25481 0.0
C1798 C 0.81833 0.93322 0.22832 0.0
H1799 H 0.8556 0.87811 0.24468 0.0
H1800 H 0.8497 0.90207 0.24893 0.0
H1801 H 0.81742 0.91265 0.21778 0.0
H1802 H 0.79835 0.9787 0.2269 0.0
H1803 H 0.81232 0.96054 0.22121 0.0
H1804 H 0.84638 0.95081 0.25173 0.0
C1805 C 0.84862 0.89783 0.23878 0.0
C1806 C 0.82406 0.92102 0.22502 0.0
C1807 C 0.85188 0.88399 0.23635 0.0
C1808 C 0.8044 0.97429 0.23483 0.0
C1809 C 0.81232 0.96374 0.23157 0.0
C1810 C 0.83995 0.94254 0.24432 0.0
C1811 C 0.84314 0.90557 0.2284 0.0
C1812 C 0.83777 0.91929 0.23135 0.0
C1813 C 0.81965 0.95702 0.24154 0.0
C1814 C 0.82616 0.94418 0.23802 0.0
H1815 H 0.84342 0.88088 0.20293 0.0
H1816 H 0.83789 0.90523 0.2071 0.0
H1817 H 0.85635 0.92939 0.24604 0.0
H1818 H 0.81156 0.97597 0.26841 0.0
H1819 H 0.82529 0.95716 0.26277 0.0
C1820 C 0.13327 0.78464 0.15206 0.0
C1821 C 0.13871 0.80003 0.15628 0.0
C1822 C 0.12193 0.77411 0.1591 0.0
C1823 C 0.10842 0.76726 0.19247 0.0
H1824 H 0.06784 0.74428 0.17754 0.0
C1825 C 0.04523 0.74487 0.21375 0.0
C1826 C 0.04944 0.73955 0.22609 0.0
C1827 C 0.05539 0.74717 0.2033 0.0
C1828 C 0.0792 0.75048 0.1818 0.0
H1829 H 0.13566 0.81655 0.17065 0.0
H1830 H 0.11644 0.79814 0.18309 0.0
H1831 H 0.0876 0.75923 0.16285 0.0
H1832 H 0.06658 0.73054 0.23656 0.0
H1833 H 0.08415 0.73434 0.21829 0.0
H1834 H 0.10009 0.75928 0.21142 0.0
C1835 C 0.12107 0.79421 0.17445 0.0
C1836 C 0.09048 0.75895 0.1734 0.0
C1837 C 0.13216 0.80472 0.16737 0.0
C1838 C 0.06312 0.73492 0.22726 0.0
C1839 C 0.07322 0.73714 0.2168 0.0
C1840 C 0.09729 0.75873 0.20081 0.0
C1841 C 0.11603 0.77879 0.17052 0.0
C1842 C 0.10498 0.7678 0.17877 0.0
C1843 C 0.06988 0.74411 0.205 0.0
C1844 C 0.08238 0.7506 0.19565 0.0
H1845 H 0.1381 0.78065 0.14358 0.0
H1846 H 0.11816 0.76225 0.1559 0.0
H1847 H 0.11957 0.77394 0.19681 0.0
H1848 H 0.03472 0.74846 0.21248 0.0
H1849 H 0.05245 0.75257 0.19434 0.0
C1850 C 0.90688 0.20276 0.19228 0.0
C1851 C 0.89697 0.21116 0.19642 0.0
C1852 C 0.92245 0.20658 0.19699 0.0
C1853 C 0.95332 0.23643 0.21623 0.0
H1854 H 0.96795 0.20169 0.22638 0.0
C1855 C 0.99908 0.2369 0.25866 0.0
C1856 C 1.00954 0.22817 0.25705 0.0
C1857 C 0.98773 0.23705 0.24869 0.0
C1858 C 0.96419 0.21155 0.22339 0.0
H1859 H 0.89561 0.23034 0.20846 0.0
H1860 H 0.92257 0.23675 0.21702 0.0
H1861 H 0.94339 0.19754 0.21366 0.0
H1862 H 0.01694 0.21357 0.24334 0.0
H1863 H 0.99699 0.21374 0.226 0.0
H1864 H 0.97385 0.2503 0.22674 0.0
C1865 C 0.91855 0.22747 0.20986 0.0
C1866 C 0.95008 0.20918 0.21604 0.0
C1867 C 0.90305 0.22377 0.205 0.0
C1868 C 1.00902 0.22037 0.24493 0.0
C1869 C 0.99756 0.2204 0.23501 0.0
C1870 C 0.96736 0.23877 0.22374 0.0
C1871 C 0.92839 0.21875 0.20612 0.0
C1872 C 0.94429 0.22155 0.21257 0.0
C1873 C 0.98652 0.22838 0.23696 0.0
C1874 C 0.97279 0.22632 0.22758 0.0
H1875 H 0.9025 0.19308 0.18555 0.0
H1876 H 0.92974 0.19981 0.19365 0.0
H1877 H 0.9494 0.24626 0.21352 0.0
H1878 H 0.99922 0.2431 0.26786 0.0
H1879 H 0.97932 0.24324 0.25051 0.0
C1880 C 0.21181 0.67829 0.65032 0.0
C1881 C 0.21255 0.66349 0.65355 0.0
C1882 C 0.21806 0.68534 0.63861 0.0
C1883 C 0.22908 0.67609 0.60524 0.0
H1884 H 0.25269 0.71885 0.60462 0.0
C1885 C 0.26845 0.70129 0.56251 0.0
C1886 C 0.27013 0.71638 0.5584 0.0
C1887 C 0.25971 0.69532 0.57341 0.0
C1888 C 0.24589 0.70697 0.60455 0.0
H1889 H 0.22061 0.64458 0.64692 0.0
H1890 H 0.23168 0.65692 0.62668 0.0
H1891 H 0.2415 0.70766 0.6253 0.0
H1892 H 0.26353 0.73694 0.56237 0.0
H1893 H 0.24804 0.72644 0.58155 0.0
H1894 H 0.23352 0.6753 0.58458 0.0
C1895 C 0.22612 0.66305 0.63313 0.0
C1896 C 0.23951 0.70052 0.61644 0.0
C1897 C 0.21995 0.65604 0.64486 0.0
C1898 C 0.26236 0.72524 0.56523 0.0
C1899 C 0.25364 0.71927 0.5763 0.0
C1900 C 0.23539 0.68252 0.59339 0.0
C1901 C 0.22513 0.67774 0.62977 0.0
C1902 C 0.23126 0.68492 0.617 0.0
C1903 C 0.25237 0.70426 0.58063 0.0
C1904 C 0.24415 0.69798 0.59291 0.0
H1905 H 0.2063 0.68443 0.65682 0.0
H1906 H 0.21701 0.69662 0.63634 0.0
H1907 H 0.22247 0.66414 0.60519 0.0
H1908 H 0.27427 0.69412 0.5575 0.0
H1909 H 0.25923 0.68383 0.5765 0.0
C1910 C 0.83552 0.74766 0.63185 0.0
C1911 C 0.84606 0.74878 0.64285 0.0
C1912 C 0.83905 0.75804 0.62142 0.0
C1913 C 0.87233 0.78604 0.60643 0.0
H1914 H 0.83976 0.80037 0.58886 0.0
C1915 C 0.86412 0.83356 0.56503 0.0
C1916 C 0.8742 0.83121 0.55554 0.0
C1917 C 0.86105 0.82412 0.57614 0.0
C1918 C 0.84904 0.7966 0.59372 0.0
H1919 H 0.86838 0.76185 0.6517 0.0
H1920 H 0.87446 0.78008 0.63364 0.0
H1921 H 0.8335 0.78276 0.60731 0.0
H1922 H 0.89049 0.81885 0.55088 0.0
H1923 H 0.88461 0.80163 0.56981 0.0
H1924 H 0.88795 0.80018 0.59311 0.0
C1925 C 0.86363 0.77098 0.63287 0.0
C1926 C 0.84539 0.78633 0.60421 0.0
C1927 C 0.86015 0.76055 0.64324 0.0
C1928 C 0.88195 0.82006 0.55771 0.0
C1929 C 0.87885 0.81054 0.56873 0.0
C1930 C 0.87597 0.79635 0.59599 0.0
C1931 C 0.85315 0.76985 0.6218 0.0
C1932 C 0.85699 0.78087 0.61068 0.0
C1933 C 0.86817 0.81229 0.578 0.0
C1934 C 0.86436 0.80171 0.58944 0.0
H1935 H 0.82465 0.73861 0.63121 0.0
H1936 H 0.83082 0.75666 0.61296 0.0
H1937 H 0.88153 0.78196 0.61107 0.0
H1938 H 0.85832 0.84241 0.56366 0.0
H1939 H 0.85307 0.82606 0.58324 0.0
C1940 C 0.88996 0.33447 0.66334 0.0
C1941 C 0.87889 0.33268 0.67315 0.0
C1942 C 0.8859 0.32714 0.6509 0.0
C1943 C 0.85643 0.29454 0.63407 0.0
H1944 H 0.87209 0.31508 0.60166 0.0
C1945 C 0.83287 0.26922 0.58198 0.0
C1946 C 0.84345 0.27076 0.5718 0.0
C1947 C 0.83749 0.27673 0.59426 0.0
C1948 C 0.86775 0.30909 0.61062 0.0
H1949 H 0.85482 0.32157 0.67745 0.0
H1950 H 0.84769 0.30913 0.65577 0.0
H1951 H 0.87953 0.32835 0.62305 0.0
H1952 H 0.8673 0.28159 0.56672 0.0
H1953 H 0.87543 0.29445 0.58818 0.0
H1954 H 0.84466 0.2753 0.62169 0.0
C1955 C 0.85958 0.31609 0.65771 0.0
C1956 C 0.87202 0.31672 0.62291 0.0
C1957 C 0.86362 0.32343 0.67012 0.0
C1958 C 0.85884 0.27999 0.57431 0.0
C1959 C 0.86346 0.28754 0.5866 0.0
C1960 C 0.85217 0.28692 0.6218 0.0
C1961 C 0.87067 0.31775 0.64794 0.0
C1962 C 0.86636 0.30958 0.63481 0.0
C1963 C 0.85285 0.28602 0.59676 0.0
C1964 C 0.8577 0.2941 0.60988 0.0
H1965 H 0.9018 0.34156 0.66528 0.0
H1966 H 0.8948 0.3286 0.64369 0.0
H1967 H 0.85206 0.28855 0.64302 0.0
H1968 H 0.82098 0.26209 0.58054 0.0
H1969 H 0.82892 0.27539 0.60175 0.0
C1970 C 0.21894 0.35491 0.59294 0.0
C1971 C 0.20413 0.34425 0.59161 0.0
C1972 C 0.23061 0.35436 0.58435 0.0
C1973 C 0.23663 0.33895 0.55153 0.0
H1974 H 0.2792 0.34654 0.5656 0.0
C1975 C 0.28605 0.32671 0.52194 0.0
C1976 C 0.30094 0.33719 0.52354 0.0
C1977 C 0.27386 0.32816 0.52958 0.0
C1978 C 0.2674 0.34458 0.56148 0.0
H1979 H 0.1901 0.32443 0.58043 0.0
H1980 H 0.21048 0.32338 0.56555 0.0
H1981 H 0.25887 0.34774 0.58045 0.0
H1982 H 0.31439 0.358 0.53372 0.0
H1983 H 0.2932 0.36051 0.54701 0.0
H1984 H 0.24521 0.3356 0.53257 0.0
C1985 C 0.21299 0.33238 0.57302 0.0
C1986 C 0.25574 0.34527 0.56999 0.0
C1987 C 0.20131 0.33296 0.58158 0.0
C1988 C 0.30317 0.34952 0.53249 0.0
C1989 C 0.29102 0.35096 0.54011 0.0
C1990 C 0.2483 0.3382 0.54301 0.0
C1991 C 0.22777 0.3431 0.57427 0.0
C1992 C 0.2402 0.34247 0.56514 0.0
C1993 C 0.27631 0.34013 0.53895 0.0
C1994 C 0.26383 0.34103 0.54789 0.0
H1995 H 0.22141 0.36386 0.60046 0.0
H1996 H 0.24179 0.36293 0.58547 0.0
H1997 H 0.22482 0.33694 0.54742 0.0
H1998 H 0.28398 0.31704 0.5152 0.0
H1999 H 0.26268 0.31958 0.5285 0.0
C2000 C 0.28009 0.31757 0.41683 0.0
C2001 C 0.26519 0.31983 0.41635 0.0
C2002 C 0.29092 0.32381 0.42719 0.0
C2003 C 0.30098 0.35343 0.4536 0.0
H2004 H 0.32457 0.32747 0.46914 0.0
C2005 C 0.34143 0.36953 0.50144 0.0
C2006 C 0.35535 0.36536 0.50162 0.0
C2007 C 0.33031 0.36479 0.49091 0.0
C2008 C 0.31822 0.33493 0.46481 0.0
H2009 H 0.25009 0.33066 0.42631 0.0
H2010 H 0.26909 0.34165 0.44445 0.0
H2011 H 0.3053 0.31761 0.45108 0.0
H2012 H 0.36937 0.3544 0.49056 0.0
H2013 H 0.35007 0.34609 0.47214 0.0
H2014 H 0.31399 0.37078 0.46738 0.0
C2015 C 0.27238 0.33511 0.43672 0.0
C2016 C 0.30716 0.32928 0.45447 0.0
C2017 C 0.26151 0.32882 0.42633 0.0
C2018 C 0.35843 0.35717 0.49084 0.0
C2019 C 0.34741 0.35251 0.48029 0.0
C2020 C 0.31209 0.35912 0.46397 0.0
C2021 C 0.28714 0.3325 0.43735 0.0
C2022 C 0.29851 0.33849 0.44865 0.0
C2023 C 0.33308 0.35598 0.48034 0.0
C2024 C 0.32095 0.34997 0.46958 0.0
H2025 H 0.28342 0.31098 0.40915 0.0
H2026 H 0.3023 0.32187 0.42723 0.0
H2027 H 0.29457 0.36084 0.44926 0.0
H2028 H 0.33892 0.37595 0.50967 0.0
H2029 H 0.31937 0.36759 0.49128 0.0
C2030 C 0.25024 0.65649 0.38985 0.0
C2031 C 0.2438 0.66521 0.38093 0.0
C2032 C 0.25615 0.66219 0.40251 0.0
C2033 C 0.25482 0.69136 0.42781 0.0
H2034 H 0.29182 0.68215 0.44269 0.0
C2035 C 0.28582 0.71798 0.47766 0.0
C2036 C 0.29111 0.70832 0.48651 0.0
C2037 C 0.28027 0.71308 0.46471 0.0
C2038 C 0.28139 0.6847 0.43875 0.0
H2039 H 0.23847 0.6868 0.37845 0.0
H2040 H 0.24895 0.69686 0.40055 0.0
H2041 H 0.2819 0.6733 0.42029 0.0
H2042 H 0.29459 0.68584 0.48845 0.0
H2043 H 0.28501 0.67736 0.46587 0.0
H2044 H 0.2544 0.70284 0.4463 0.0
C2045 C 0.24927 0.6855 0.39778 0.0
C2046 C 0.27567 0.67962 0.42587 0.0
C2047 C 0.24329 0.67976 0.38508 0.0
C2048 C 0.29081 0.69368 0.48194 0.0
C2049 C 0.2853 0.6888 0.46895 0.0
C2050 C 0.26059 0.69651 0.44068 0.0
C2051 C 0.25583 0.6768 0.40666 0.0
C2052 C 0.26223 0.68277 0.42024 0.0
C2053 C 0.2799 0.69841 0.46017 0.0
C2054 C 0.27389 0.69317 0.44636 0.0
H2055 H 0.25047 0.64508 0.38715 0.0
H2056 H 0.26073 0.65497 0.40913 0.0
H2057 H 0.24433 0.69384 0.42392 0.0
H2058 H 0.28614 0.72944 0.48065 0.0
H2059 H 0.27646 0.72089 0.45817 0.0
C2060 C 0.8635 0.68976 0.42665 0.0
C2061 C 0.87534 0.68723 0.41909 0.0
C2062 C 0.86602 0.70325 0.43401 0.0
C2063 C 0.89724 0.7323 0.45128 0.0
H2064 H 0.86493 0.75243 0.4553 0.0
C2065 C 0.88378 0.78413 0.48375 0.0
C2066 C 0.88779 0.77997 0.49662 0.0
C2067 C 0.88412 0.77496 0.4727 0.0
C2068 C 0.87418 0.7471 0.45417 0.0
H2069 H 0.89892 0.69699 0.41293 0.0
H2070 H 0.90341 0.72068 0.42595 0.0
H2071 H 0.86156 0.73271 0.43817 0.0
H2072 H 0.89581 0.76299 0.50775 0.0
H2073 H 0.89655 0.74722 0.48857 0.0
H2074 H 0.90967 0.74641 0.46753 0.0
C2075 C 0.89219 0.71217 0.42616 0.0
C2076 C 0.87219 0.73572 0.44443 0.0
C2077 C 0.88959 0.69869 0.41865 0.0
C2078 C 0.89278 0.76673 0.49806 0.0
C2079 C 0.89322 0.75764 0.48701 0.0
C2080 C 0.89919 0.74361 0.46109 0.0
C2081 C 0.88048 0.71448 0.43406 0.0
C2082 C 0.88354 0.72796 0.44308 0.0
C2083 C 0.88863 0.7615 0.47425 0.0
C2084 C 0.88753 0.7509 0.46282 0.0
H2085 H 0.85236 0.68115 0.42706 0.0
H2086 H 0.85682 0.70461 0.44009 0.0
H2087 H 0.90615 0.72646 0.45055 0.0
H2088 H 0.8802 0.79439 0.48217 0.0
H2089 H 0.88071 0.77834 0.46296 0.0
C2090 C 0.86221 0.31768 0.40778 0.0
C2091 C 0.86009 0.30593 0.39824 0.0
C2092 C 0.85564 0.3147 0.4202 0.0
C2093 C 0.82447 0.2883 0.43822 0.0
H2094 H 0.85154 0.30287 0.46949 0.0
C2095 C 0.80673 0.26848 0.49161 0.0
C2096 C 0.8136 0.27805 0.5025 0.0
C2097 C 0.81095 0.27272 0.47861 0.0
C2098 C 0.84364 0.29897 0.46092 0.0
H2099 H 0.84916 0.28187 0.39421 0.0
H2100 H 0.83742 0.27668 0.41591 0.0
H2101 H 0.86168 0.30846 0.44749 0.0
H2102 H 0.82935 0.30011 0.50816 0.0
H2103 H 0.836 0.30795 0.48552 0.0
H2104 H 0.80632 0.27904 0.45159 0.0
C2105 C 0.84424 0.2882 0.41374 0.0
C2106 C 0.84955 0.30211 0.44827 0.0
C2107 C 0.85103 0.29114 0.40137 0.0
C2108 C 0.82391 0.29243 0.5 0.0
C2109 C 0.8279 0.29682 0.48699 0.0
C2110 C 0.81847 0.28535 0.4509 0.0
C2111 C 0.8466 0.29993 0.42335 0.0
C2112 C 0.84008 0.29674 0.43677 0.0
C2113 C 0.82196 0.28679 0.47612 0.0
C2114 C 0.82799 0.29057 0.46248 0.0
H2115 H 0.86926 0.32915 0.40574 0.0
H2116 H 0.8576 0.32398 0.42735 0.0
H2117 H 0.81685 0.28413 0.42954 0.0
H2118 H 0.79886 0.25725 0.49317 0.0
H2119 H 0.80616 0.26457 0.47063 0.0
C2120 C 0.14257 0.6735 0.70608 0.0
C2121 C 0.13692 0.65786 0.70286 0.0
C2122 C 0.1346 0.68028 0.71479 0.0
C2123 C 0.10402 0.67157 0.73994 0.0
H2124 H 0.09598 0.709 0.72763 0.0
C2125 C 0.05354 0.6924 0.75905 0.0
C2126 C 0.05563 0.70819 0.76055 0.0
C2127 C 0.06493 0.68692 0.75338 0.0
C2128 C 0.09829 0.69869 0.73137 0.0
H2129 H 0.11909 0.63691 0.70686 0.0
H2130 H 0.10529 0.64864 0.72201 0.0
H2131 H 0.1138 0.69843 0.71584 0.0
H2132 H 0.07163 0.73056 0.75727 0.0
H2133 H 0.09156 0.72101 0.74769 0.0
H2134 H 0.08834 0.67169 0.75535 0.0
C2135 C 0.11582 0.65573 0.71786 0.0
C2136 C 0.10855 0.69262 0.7246 0.0
C2137 C 0.12368 0.64901 0.70911 0.0
C2138 C 0.06959 0.71833 0.75642 0.0
C2139 C 0.08099 0.71285 0.75075 0.0
C2140 C 0.09379 0.67765 0.74673 0.0
C2141 C 0.12092 0.67153 0.72057 0.0
C2142 C 0.11135 0.67884 0.72865 0.0
C2143 C 0.07878 0.69706 0.74905 0.0
C2144 C 0.09057 0.69117 0.74241 0.0
H2145 H 0.15268 0.68061 0.70136 0.0
H2146 H 0.13896 0.69245 0.71678 0.0
H2147 H 0.10608 0.66106 0.74347 0.0
H2148 H 0.04306 0.68422 0.76223 0.0
H2149 H 0.06269 0.67469 0.75211 0.0
C2150 C 0.87649 0.67066 0.69584 0.0
C2151 C 0.86657 0.68017 0.69573 0.0
C2152 C 0.87376 0.65787 0.70402 0.0
C2153 C 0.85344 0.64269 0.73457 0.0
H2154 H 0.86491 0.60624 0.72527 0.0
C2155 C 0.84079 0.58886 0.76739 0.0
C2156 C 0.85318 0.58244 0.76977 0.0
C2157 C 0.84187 0.60039 0.75802 0.0
C2158 C 0.86175 0.6164 0.72801 0.0
H2159 H 0.84551 0.68315 0.70372 0.0
H2160 H 0.84036 0.66048 0.71748 0.0
H2161 H 0.86686 0.6264 0.70891 0.0
H2162 H 0.87637 0.583 0.76412 0.0
H2163 H 0.87826 0.60315 0.74764 0.0
H2164 H 0.84814 0.63253 0.75362 0.0
C2165 C 0.85055 0.66318 0.71155 0.0
C2166 C 0.86289 0.62798 0.71866 0.0
C2167 C 0.85337 0.67607 0.70347 0.0
C2168 C 0.8667 0.58782 0.76257 0.0
C2169 C 0.86771 0.59923 0.75306 0.0
C2170 C 0.85214 0.63104 0.74385 0.0
C2171 C 0.86093 0.65413 0.7122 0.0
C2172 C 0.85887 0.64135 0.72184 0.0
C2173 C 0.85531 0.60564 0.75071 0.0
C2174 C 0.8564 0.61783 0.74072 0.0
H2175 H 0.88662 0.6733 0.68984 0.0
H2176 H 0.88209 0.65128 0.70428 0.0
H2177 H 0.85056 0.65292 0.73752 0.0
H2178 H 0.83029 0.58503 0.77287 0.0
H2179 H 0.83211 0.60507 0.75637 0.0
C2180 C 0.91395 0.33563 0.72616 0.0
C2181 C 0.91514 0.34298 0.71381 0.0
C2182 C 0.92695 0.33242 0.73246 0.0
C2183 C 0.96676 0.32938 0.72543 0.0
H2184 H 0.97112 0.32773 0.76389 0.0
C2185 C 0.02305 0.32405 0.75349 0.0
C2186 C 0.02108 0.31283 0.76337 0.0
C2187 C 1.01018 0.3279 0.74764 0.0
C2188 C 0.97 0.32806 0.75313 0.0
H2189 H 0.93103 0.35321 0.6986 0.0
H2190 H 0.95385 0.34831 0.70979 0.0
H2191 H 0.94902 0.33481 0.75352 0.0
H2192 H 1.00405 0.29706 0.77502 0.0
H2193 H 0.98153 0.30401 0.76498 0.0
H2194 H 0.98805 0.32306 0.72516 0.0
C2195 C 0.9428 0.34447 0.71447 0.0
C2196 C 0.95727 0.33206 0.74714 0.0
C2197 C 0.92973 0.34743 0.70808 0.0
C2198 C 1.00592 0.30568 0.76739 0.0
C2199 C 0.99306 0.30974 0.7617 0.0
C2200 C 0.97961 0.32564 0.73144 0.0
C2201 C 0.94159 0.33669 0.72668 0.0
C2202 C 0.95539 0.33274 0.73317 0.0
C2203 C 0.99503 0.32081 0.75169 0.0
C2204 C 0.98136 0.32487 0.74535 0.0
H2205 H 0.90281 0.33184 0.73073 0.0
H2206 H 0.92534 0.32619 0.74169 0.0
H2207 H 0.96566 0.32938 0.71467 0.0
H2208 H 0.03453 0.32965 0.75007 0.0
H2209 H 1.01209 0.33653 0.74 0.0
C2210 C 0.22277 0.37646 0.67317 0.0
C2211 C 0.21402 0.37798 0.66155 0.0
C2212 C 0.23363 0.38918 0.67907 0.0
C2213 C 0.24138 0.43083 0.68159 0.0
H2214 H 0.27989 0.42901 0.69986 0.0
C2215 C 0.27937 0.48239 0.71192 0.0
C2216 C 0.28427 0.47899 0.72474 0.0
C2217 C 0.27349 0.47076 0.70242 0.0
C2218 C 0.26916 0.42969 0.69484 0.0
H2219 H 0.21025 0.39403 0.64674 0.0
H2220 H 0.22939 0.41619 0.6569 0.0
H2221 H 0.26452 0.4072 0.68642 0.0
H2222 H 0.28773 0.4608 0.73735 0.0
H2223 H 0.27735 0.44056 0.72089 0.0
H2224 H 0.24569 0.45307 0.69028 0.0
C2225 C 0.22771 0.40517 0.66155 0.0
C2226 C 0.26035 0.4172 0.68714 0.0
C2227 C 0.21686 0.39243 0.65564 0.0
C2228 C 0.28403 0.46383 0.72758 0.0
C2229 C 0.27813 0.45221 0.7181 0.0
C2230 C 0.25016 0.4433 0.68929 0.0
C2231 C 0.236 0.40376 0.67348 0.0
C2232 C 0.24622 0.41752 0.68059 0.0
C2233 C 0.27237 0.45545 0.70552 0.0
C2234 C 0.26403 0.4428 0.6962 0.0
H2235 H 0.22099 0.36545 0.67788 0.0
H2236 H 0.23971 0.38768 0.6883 0.0
H2237 H 0.23044 0.4314 0.67688 0.0
H2238 H 0.27949 0.49395 0.70936 0.0
H2239 H 0.26943 0.4737 0.69274 0.0
C2240 C 0.17728 0.31519 0.35246 0.0
C2241 C 0.18209 0.31301 0.36564 0.0
C2242 C 0.16247 0.3072 0.34736 0.0
C2243 C 0.12323 0.28536 0.3573 0.0
H2244 H 0.11899 0.27013 0.32094 0.0
C2245 C 0.06726 0.24244 0.33481 0.0
C2246 C 0.06253 0.24484 0.32166 0.0
C2247 C 0.08144 0.25143 0.34043 0.0
C2248 C 0.11995 0.27448 0.33105 0.0
H2249 H 0.17506 0.30069 0.3838 0.0
H2250 H 0.14923 0.28638 0.37478 0.0
H2251 H 0.14461 0.28403 0.33037 0.0
H2252 H 0.06881 0.25879 0.30419 0.0
H2253 H 0.09363 0.2745 0.31402 0.0
H2254 H 0.09853 0.27555 0.35798 0.0
C2255 C 0.15688 0.2945 0.36846 0.0
C2256 C 0.13464 0.28244 0.33646 0.0
C2257 C 0.17173 0.30256 0.37359 0.0
C2258 C 0.07214 0.25664 0.31434 0.0
C2259 C 0.08638 0.26557 0.31993 0.0
C2260 C 0.10853 0.27731 0.35189 0.0
C2261 C 0.1521 0.2967 0.35527 0.0
C2262 C 0.13646 0.28802 0.34964 0.0
C2263 C 0.09125 0.26296 0.333 0.0
C2264 C 0.10674 0.27182 0.3387 0.0
H2265 H 0.18505 0.32295 0.34597 0.0
H2266 H 0.15912 0.30933 0.33722 0.0
H2267 H 0.12419 0.28969 0.36741 0.0
H2268 H 0.06011 0.23346 0.34074 0.0
H2269 H 0.08493 0.24905 0.35047 0.0
C2270 C 0.26209 0.63707 0.3391 0.0
C2271 C 0.2462 0.63208 0.34188 0.0
C2272 C 0.26938 0.62708 0.33331 0.0
C2273 C 0.26674 0.58637 0.33004 0.0
H2274 H 0.29136 0.59802 0.29904 0.0
C2275 C 0.28638 0.54202 0.29964 0.0
C2276 C 0.30009 0.54666 0.29257 0.0
C2277 C 0.28093 0.5527 0.30644 0.0
C2278 C 0.28481 0.59461 0.30786 0.0
H2279 H 0.22558 0.61264 0.34089 0.0
H2280 H 0.23834 0.59517 0.331 0.0
H2281 H 0.27978 0.6162 0.30917 0.0
H2282 H 0.31918 0.5662 0.28765 0.0
H2283 H 0.31009 0.58475 0.29999 0.0
H2284 H 0.27197 0.56497 0.32905 0.0
C2285 C 0.24513 0.60683 0.3332 0.0
C2286 C 0.27808 0.60506 0.31361 0.0
C2287 C 0.23779 0.61688 0.33875 0.0
C2288 C 0.30856 0.56221 0.29296 0.0
C2289 C 0.30321 0.57289 0.29993 0.0
C2290 C 0.27367 0.57601 0.32444 0.0
C2291 C 0.26101 0.6118 0.33043 0.0
C2292 C 0.26879 0.60099 0.32465 0.0
C2293 C 0.28912 0.56836 0.30656 0.0
C2294 C 0.28264 0.57986 0.31313 0.0
H2295 H 0.26888 0.64871 0.34139 0.0
H2296 H 0.28164 0.63123 0.33135 0.0
H2297 H 0.25984 0.58297 0.33868 0.0
H2298 H 0.27943 0.53018 0.29948 0.0
H2299 H 0.26992 0.54866 0.31117 0.0
C2300 C 0.91424 0.68726 0.35568 0.0
C2301 C 0.90857 0.67134 0.35396 0.0
C2302 C 0.92731 0.69556 0.34901 0.0
C2303 C 0.948 0.69311 0.3189 0.0
H2304 H 0.98166 0.72556 0.33514 0.0
C2305 C 1.00338 0.72167 0.29102 0.0
C2306 C 1.00987 0.7375 0.29273 0.0
C2307 C 0.99135 0.71368 0.29891 0.0
C2308 C 0.97225 0.71665 0.33041 0.0
H2309 H 0.91279 0.65151 0.34474 0.0
H2310 H 0.93542 0.66596 0.33309 0.0
H2311 H 0.96019 0.71168 0.34854 0.0
H2312 H 1.00876 0.75741 0.30396 0.0
H2313 H 0.98758 0.74357 0.31747 0.0
H2314 H 0.95979 0.69815 0.30074 0.0
C2315 C 0.92961 0.67208 0.33932 0.0
C2316 C 0.95999 0.7087 0.3381 0.0
C2317 C 0.91665 0.66382 0.34599 0.0
C2318 C 1.00406 0.74519 0.30244 0.0
C2319 C 0.99198 0.73723 0.31026 0.0
C2320 C 0.96017 0.70111 0.3112 0.0
C2321 C 0.93488 0.68806 0.34052 0.0
C2322 C 0.9478 0.69678 0.33244 0.0
C2323 C 0.98547 0.72137 0.30861 0.0
C2324 C 0.9725 0.71293 0.31686 0.0
H2325 H 0.90822 0.69335 0.36174 0.0
H2326 H 0.93112 0.70789 0.35009 0.0
H2327 H 0.93861 0.68415 0.3142 0.0
H2328 H 1.00767 0.71541 0.28367 0.0
H2329 H 0.98677 0.70143 0.2975 0.0
C2330 C 0.85016 0.36915 0.3307 0.0
C2331 C 0.85097 0.36436 0.34393 0.0
C2332 C 0.83866 0.37588 0.32629 0.0
C2333 C 0.81352 0.39796 0.33867 0.0
H2334 H 0.79535 0.39182 0.30264 0.0
C2335 C 0.77131 0.43148 0.31773 0.0
C2336 C 0.77368 0.43698 0.30469 0.0
C2337 C 0.77906 0.42119 0.32291 0.0
C2338 C 0.8004 0.39377 0.3127 0.0
H2339 H 0.83998 0.36237 0.36281 0.0
H2340 H 0.81969 0.37417 0.35509 0.0
H2341 H 0.81127 0.37582 0.311 0.0
H2342 H 0.78584 0.43556 0.2868 0.0
H2343 H 0.79947 0.41795 0.29585 0.0
H2344 H 0.8029 0.41614 0.34027 0.0
C2345 C 0.82809 0.37279 0.34815 0.0
C2346 C 0.80951 0.38455 0.31751 0.0
C2347 C 0.83958 0.36589 0.35255 0.0
C2348 C 0.78384 0.43176 0.29693 0.0
C2349 C 0.79153 0.42146 0.30208 0.0
C2350 C 0.80439 0.4072 0.33385 0.0
C2351 C 0.82765 0.3781 0.33501 0.0
C2352 C 0.81645 0.3867 0.33047 0.0
C2353 C 0.78931 0.41606 0.31516 0.0
C2354 C 0.79795 0.40542 0.32071 0.0
H2355 H 0.85874 0.36806 0.32381 0.0
H2356 H 0.83883 0.37995 0.31616 0.0
H2357 H 0.81881 0.40007 0.34864 0.0
H2358 H 0.76369 0.43531 0.32405 0.0
H2359 H 0.77695 0.41719 0.33298 0.0
C2360 C 0.20962 0.62508 0.70538 0.0
C2361 C 0.21087 0.62675 0.69153 0.0
C2362 C 0.21515 0.61408 0.7122 0.0
C2363 C 0.22424 0.57749 0.70673 0.0
H2364 H 0.24562 0.58589 0.74148 0.0
C2365 C 0.23626 0.5295 0.73958 0.0
C2366 C 0.25096 0.53244 0.7463 0.0
C2367 C 0.23166 0.54122 0.73308 0.0
C2368 C 0.23975 0.58337 0.73175 0.0
H2369 H 0.21898 0.61807 0.67404 0.0
H2370 H 0.22874 0.59908 0.68591 0.0
H2371 H 0.23755 0.60609 0.72977 0.0
H2372 H 0.27221 0.55023 0.75162 0.0
H2373 H 0.26422 0.57065 0.74024 0.0
H2374 H 0.2265 0.55483 0.70864 0.0
C2375 C 0.2234 0.60622 0.69151 0.0
C2376 C 0.23498 0.59492 0.72508 0.0
C2377 C 0.21798 0.61726 0.68472 0.0
C2378 C 0.26087 0.54749 0.74646 0.0
C2379 C 0.25622 0.55925 0.74003 0.0
C2380 C 0.2289 0.56593 0.71342 0.0
C2381 C 0.22196 0.60438 0.70533 0.0
C2382 C 0.22717 0.59215 0.71246 0.0
C2383 C 0.24158 0.55626 0.73317 0.0
C2384 C 0.23671 0.56868 0.72604 0.0
H2385 H 0.20431 0.63224 0.71097 0.0
H2386 H 0.21373 0.61294 0.72282 0.0
H2387 H 0.21812 0.57486 0.6971 0.0
H2388 H 0.22835 0.51807 0.73912 0.0
H2389 H 0.22024 0.5385 0.72804 0.0
C2390 C 0.24078 0.36407 0.35955 0.0
C2391 C 0.22658 0.36034 0.36592 0.0
C2392 C 0.24559 0.37766 0.35244 0.0
C2393 C 0.22821 0.40323 0.33356 0.0
H2394 H 0.27065 0.42912 0.33188 0.0
C2395 C 0.24398 0.4558 0.29945 0.0
C2396 C 0.25813 0.45882 0.29307 0.0
C2397 C 0.24041 0.44465 0.30927 0.0
C2398 C 0.25876 0.4219 0.33213 0.0
H2399 H 0.20698 0.36849 0.37084 0.0
H2400 H 0.21534 0.39214 0.35836 0.0
H2401 H 0.26452 0.40863 0.34815 0.0
H2402 H 0.27942 0.45225 0.29167 0.0
H2403 H 0.27308 0.43254 0.30853 0.0
H2404 H 0.22246 0.41604 0.3173 0.0
C2405 C 0.22261 0.38445 0.35867 0.0
C2406 C 0.25526 0.41023 0.3415 0.0
C2407 C 0.21785 0.37094 0.36582 0.0
C2408 C 0.26853 0.4503 0.29656 0.0
C2409 C 0.26491 0.43907 0.30628 0.0
C2410 C 0.23172 0.41479 0.32412 0.0
C2411 C 0.23626 0.3877 0.35154 0.0
C2412 C 0.23996 0.40074 0.34226 0.0
C2413 C 0.25086 0.43617 0.31284 0.0
C2414 C 0.24706 0.42422 0.32322 0.0
H2415 H 0.2477 0.35608 0.35934 0.0
H2416 H 0.25614 0.37983 0.34699 0.0
H2417 H 0.21635 0.39592 0.33374 0.0
H2418 H 0.23586 0.46234 0.29711 0.0
H2419 H 0.22959 0.44289 0.31424 0.0
C2420 C 0.17824 0.68577 0.32743 0.0
C2421 C 0.17164 0.67503 0.33709 0.0
C2422 C 0.17046 0.69628 0.32269 0.0
C2423 C 0.13796 0.71304 0.32977 0.0
H2424 H 0.13555 0.71795 0.29152 0.0
C2425 C 0.10286 0.75125 0.30492 0.0
C2426 C 0.09401 0.74569 0.29311 0.0
C2427 C 0.11358 0.74403 0.31039 0.0
C2428 C 0.13602 0.71666 0.30222 0.0
H2429 H 0.15222 0.66753 0.34992 0.0
H2430 H 0.13875 0.6857 0.34177 0.0
H2431 H 0.15225 0.70341 0.3013 0.0
H2432 H 0.08995 0.72821 0.27771 0.0
H2433 H 0.1083 0.71549 0.28735 0.0
H2434 H 0.12132 0.72581 0.33068 0.0
C2435 C 0.14989 0.68613 0.33779 0.0
C2436 C 0.1458 0.70848 0.30786 0.0
C2437 C 0.15759 0.67562 0.34244 0.0
C2438 C 0.09635 0.73277 0.28688 0.0
C2439 C 0.10708 0.72556 0.29234 0.0
C2440 C 0.1282 0.72123 0.32414 0.0
C2441 C 0.15599 0.69637 0.32761 0.0
C2442 C 0.14675 0.70636 0.32171 0.0
C2443 C 0.11582 0.73103 0.30421 0.0
C2444 C 0.12692 0.723 0.31026 0.0
H2445 H 0.18899 0.68553 0.32305 0.0
H2446 H 0.17563 0.70413 0.31498 0.0
H2447 H 0.13848 0.71182 0.34048 0.0
H2448 H 0.10137 0.76107 0.3101 0.0
H2449 H 0.12019 0.7487 0.31946 0.0
C2450 C 0.85256 0.61524 0.3541 0.0
C2451 C 0.85857 0.62986 0.34877 0.0
C2452 C 0.84388 0.60311 0.346 0.0
C2453 C 0.83843 0.59039 0.31106 0.0
H2454 H 0.80246 0.55979 0.32359 0.0
C2455 C 0.80108 0.54005 0.278 0.0
C2456 C 0.79583 0.52581 0.28419 0.0
C2457 C 0.8086 0.55316 0.28553 0.0
C2458 C 0.81259 0.56816 0.32 0.0
H2459 H 0.85953 0.64337 0.3309 0.0
H2460 H 0.8444 0.62214 0.31674 0.0
H2461 H 0.81505 0.58213 0.33748 0.0
H2462 H 0.79488 0.51407 0.30305 0.0
H2463 H 0.80818 0.53681 0.31608 0.0
H2464 H 0.83608 0.57632 0.29365 0.0
C2465 C 0.84662 0.62003 0.32714 0.0
C2466 C 0.81977 0.58097 0.32795 0.0
C2467 C 0.85527 0.63218 0.33525 0.0
C2468 C 0.79867 0.52488 0.29798 0.0
C2469 C 0.80619 0.53794 0.30548 0.0
C2470 C 0.83126 0.57755 0.30312 0.0
C2471 C 0.84104 0.60531 0.33239 0.0
C2472 C 0.83285 0.59216 0.32362 0.0
C2473 C 0.81103 0.55227 0.29939 0.0
C2474 C 0.81836 0.56621 0.30756 0.0
H2475 H 0.85508 0.61302 0.36442 0.0
H2476 H 0.8399 0.59186 0.35031 0.0
H2477 H 0.84863 0.59871 0.30753 0.0
H2478 H 0.79902 0.54117 0.2674 0.0
H2479 H 0.81211 0.56405 0.28055 0.0
C2480 C 0.89116 0.27854 0.36496 0.0
C2481 C 0.89552 0.29461 0.36452 0.0
C2482 C 0.90103 0.27031 0.36036 0.0
C2483 C 0.93418 0.2743 0.33834 0.0
H2484 H 0.93985 0.2389 0.35695 0.0
C2485 C 0.98243 0.2469 0.32488 0.0
C2486 C 0.97911 0.23088 0.32517 0.0
C2487 C 0.972 0.25425 0.32975 0.0
C2488 C 0.93827 0.24865 0.35152 0.0
H2489 H 0.91415 0.31456 0.35946 0.0
H2490 H 0.93116 0.30033 0.35144 0.0
H2491 H 0.92205 0.25225 0.36531 0.0
H2492 H 0.96196 0.2101 0.33081 0.0
H2493 H 0.94377 0.22288 0.33923 0.0
H2494 H 0.95031 0.27073 0.32454 0.0
C2495 C 0.91996 0.29401 0.35503 0.0
C2496 C 0.92804 0.25632 0.35634 0.0
C2497 C 0.91016 0.3022 0.35964 0.0
C2498 C 0.96505 0.22244 0.33055 0.0
C2499 C 0.95459 0.2298 0.33541 0.0
C2500 C 0.94436 0.26662 0.33352 0.0
C2501 C 0.91551 0.27795 0.35519 0.0
C2502 C 0.92596 0.26934 0.34988 0.0
C2503 C 0.95788 0.24583 0.33505 0.0
C2504 C 0.94667 0.25375 0.34008 0.0
H2505 H 0.87996 0.2723 0.36859 0.0
H2506 H 0.89715 0.25795 0.36057 0.0
H2507 H 0.93266 0.28408 0.33293 0.0
H2508 H 0.99323 0.25384 0.32105 0.0
H2509 H 0.97514 0.26661 0.32952 0.0
C2510 C 0.84892 0.39011 0.74383 0.0
C2511 C 0.85289 0.38811 0.73073 0.0
C2512 C 0.84679 0.40396 0.748 0.0
C2513 C 0.85411 0.44506 0.73924 0.0
H2514 H 0.8217 0.44296 0.76404 0.0
C2515 C 0.85067 0.49779 0.76892 0.0
C2516 C 0.83618 0.49933 0.77252 0.0
C2517 C 0.85174 0.48469 0.76235 0.0
C2518 C 0.83065 0.44381 0.75696 0.0
H2519 H 0.85815 0.39929 0.71184 0.0
H2520 H 0.85432 0.42354 0.71904 0.0
H2521 H 0.8258 0.41949 0.75561 0.0
H2522 H 0.81132 0.48832 0.77158 0.0
H2523 H 0.81312 0.46534 0.75984 0.0
H2524 H 0.85875 0.46937 0.74039 0.0
C2525 C 0.85301 0.41442 0.72618 0.0
C2526 C 0.8332 0.43029 0.75228 0.0
C2527 C 0.85527 0.40053 0.72203 0.0
C2528 C 0.82265 0.48754 0.76893 0.0
C2529 C 0.82373 0.47431 0.76231 0.0
C2530 C 0.85151 0.45857 0.74387 0.0
C2531 C 0.84843 0.41624 0.73917 0.0
C2532 C 0.84517 0.4307 0.74353 0.0
C2533 C 0.83834 0.47262 0.75908 0.0
C2534 C 0.83993 0.45817 0.75301 0.0
H2535 H 0.84716 0.3808 0.75082 0.0
H2536 H 0.84375 0.40498 0.75818 0.0
H2537 H 0.86345 0.44593 0.73256 0.0
H2538 H 0.86137 0.50661 0.77147 0.0
H2539 H 0.86322 0.48384 0.76028 0.0
C2540 C 0.16213 0.34156 0.68031 0.0
C2541 C 0.16651 0.33454 0.6693 0.0
C2542 C 0.15126 0.33307 0.68894 0.0
C2543 C 0.13513 0.31073 0.70971 0.0
H2544 H 0.09642 0.28312 0.69535 0.0
C2545 C 0.08913 0.27649 0.74438 0.0
C2546 C 0.07394 0.27757 0.74158 0.0
C2547 C 0.1005 0.28091 0.73497 0.0
C2548 C 0.10719 0.29076 0.6995 0.0
H2549 H 0.1629 0.31295 0.65884 0.0
H2550 H 0.14369 0.29816 0.67384 0.0
H2551 H 0.11641 0.29633 0.68024 0.0
H2552 H 0.05857 0.28317 0.72634 0.0
H2553 H 0.07844 0.2909 0.70994 0.0
H2554 H 0.12584 0.30555 0.7289 0.0
C2555 C 0.14868 0.31028 0.67572 0.0
C2556 C 0.11868 0.29823 0.69086 0.0
C2557 C 0.15967 0.31877 0.66712 0.0
C2558 C 0.07015 0.28224 0.72885 0.0
C2559 C 0.08154 0.28662 0.71941 0.0
C2560 C 0.12373 0.3032 0.71832 0.0
C2561 C 0.1444 0.31734 0.68674 0.0
C2562 C 0.13267 0.30849 0.69588 0.0
C2563 C 0.09696 0.28645 0.72252 0.0
C2564 C 0.10953 0.29329 0.71332 0.0
H2565 H 0.16686 0.35373 0.68214 0.0
H2566 H 0.14799 0.33889 0.69721 0.0
H2567 H 0.14586 0.31844 0.71388 0.0
H2568 H 0.09243 0.27284 0.75405 0.0
H2569 H 0.11221 0.28039 0.73758 0.0
C2570 C 0.91825 0.72273 0.67828 0.0
C2571 C 0.90677 0.72788 0.68418 0.0
C2572 C 0.93402 0.73012 0.68102 0.0
C2573 C 0.96161 0.76371 0.69918 0.0
H2574 H 0.98444 0.73416 0.7068 0.0
C2575 C 1.00756 0.76866 0.74174 0.0
C2576 C 0.0195 0.76164 0.74037 0.0
C2577 C 0.9969 0.76862 0.73114 0.0
C2578 C 0.97845 0.74268 0.70444 0.0
H2579 H 0.90248 0.74507 0.69701 0.0
H2580 H 0.92998 0.75766 0.70234 0.0
H2581 H 0.95936 0.72604 0.69491 0.0
H2582 H 0.03063 0.75054 0.7264 0.0
H2583 H 1.01194 0.75041 0.70791 0.0
H2584 H 0.98044 0.78006 0.70972 0.0
C2585 C 0.92699 0.74824 0.69527 0.0
C2586 C 0.96398 0.73802 0.69756 0.0
C2587 C 0.91121 0.741 0.6923 0.0
C2588 C 0.02148 0.75592 0.72781 0.0
C2589 C 1.01075 0.75579 0.71723 0.0
C2590 C 0.97605 0.76833 0.70622 0.0
C2591 C 0.93861 0.74258 0.69001 0.0
C2592 C 0.95512 0.74834 0.69519 0.0
C2593 C 0.99794 0.76149 0.71899 0.0
C2594 C 0.9844 0.75774 0.70926 0.0
H2595 H 0.915 0.71265 0.67191 0.0
H2596 H 0.9426 0.72567 0.67651 0.0
H2597 H 0.95528 0.77206 0.69729 0.0
H2598 H 1.00581 0.77332 0.75125 0.0
H2599 H 0.98714 0.77306 0.73284 0.0
C2600 C 0.7405 0.15951 0.65159 0.0
C2601 C 0.73226 0.16639 0.66001 0.0
C2602 C 0.7463 0.16652 0.63977 0.0
C2603 C 0.74154 0.19527 0.61497 0.0
H2604 H 0.78187 0.1929 0.60444 0.0
C2605 C 0.77299 0.22584 0.56827 0.0
C2606 C 0.78107 0.21754 0.5611 0.0
C2607 C 0.76624 0.22017 0.58028 0.0
C2608 C 0.77051 0.19355 0.60714 0.0
H2609 H 0.72385 0.18623 0.66253 0.0
H2610 H 0.734 0.19847 0.6419 0.0
H2611 H 0.77212 0.18224 0.62556 0.0
H2612 H 0.78754 0.19638 0.56053 0.0
H2613 H 0.77568 0.18651 0.58111 0.0
H2614 H 0.74002 0.20661 0.59643 0.0
C2615 C 0.73581 0.18754 0.64439 0.0
C2616 C 0.76491 0.18742 0.61929 0.0
C2617 C 0.73001 0.18052 0.65625 0.0
C2618 C 0.78159 0.20319 0.56586 0.0
C2619 C 0.77487 0.19755 0.57775 0.0
C2620 C 0.74718 0.20145 0.60277 0.0
C2621 C 0.74403 0.18063 0.63599 0.0
C2622 C 0.75025 0.18798 0.62331 0.0
C2623 C 0.76746 0.20611 0.58532 0.0
C2624 C 0.76164 0.20044 0.5986 0.0
H2625 H 0.74217 0.14849 0.65396 0.0
H2626 H 0.7523 0.1607 0.63345 0.0
H2627 H 0.73016 0.19583 0.61769 0.0
H2628 H 0.77244 0.23696 0.5649 0.0
H2629 H 0.76062 0.22706 0.58586 0.0
C2630 C 0.33886 0.26361 0.64711 0.0
C2631 C 0.35108 0.26292 0.65614 0.0
C2632 C 0.34199 0.27154 0.6352 0.0
C2633 C 0.37319 0.28622 0.61177 0.0
H2634 H 0.34564 0.30942 0.59837 0.0
C2635 C 0.38399 0.32291 0.56392 0.0
C2636 C 0.37083 0.3215 0.5553 0.0
C2637 C 0.3824 0.31633 0.57655 0.0
C2638 C 0.35338 0.30291 0.60194 0.0
H2639 H 0.37616 0.27026 0.65988 0.0
H2640 H 0.38162 0.2842 0.63909 0.0
H2641 H 0.34135 0.29716 0.61993 0.0
H2642 H 0.3457 0.31188 0.55314 0.0
H2643 H 0.34298 0.30043 0.57504 0.0
H2644 H 0.38517 0.29199 0.59369 0.0
C2645 C 0.36963 0.27839 0.64113 0.0
C2646 C 0.35091 0.29586 0.61429 0.0
C2647 C 0.3665 0.27042 0.65304 0.0
C2648 C 0.35609 0.31325 0.55953 0.0
C2649 C 0.3545 0.30676 0.57213 0.0
C2650 C 0.37569 0.29333 0.59941 0.0
C2651 C 0.35741 0.27902 0.63206 0.0
C2652 C 0.36064 0.28724 0.61927 0.0
C2653 C 0.3676 0.30831 0.58082 0.0
C2654 C 0.36566 0.30156 0.59429 0.0
H2655 H 0.32688 0.25774 0.6491 0.0
H2656 H 0.33231 0.27154 0.62833 0.0
H2657 H 0.38081 0.27954 0.61525 0.0
H2658 H 0.3955 0.3292 0.56096 0.0
H2659 H 0.39269 0.31776 0.58307 0.0
C2660 C 0.37953 0.83337 0.66476 0.0
C2661 C 0.36843 0.83297 0.67432 0.0
C2662 C 0.37508 0.8262 0.65233 0.0
C2663 C 0.34126 0.81023 0.62869 0.0
H2664 H 0.36734 0.78647 0.61574 0.0
C2665 C 0.32245 0.76949 0.58278 0.0
C2666 C 0.33403 0.76833 0.57418 0.0
C2667 C 0.32644 0.77766 0.59483 0.0
C2668 C 0.36001 0.79321 0.61907 0.0
H2669 H 0.34379 0.82495 0.67801 0.0
H2670 H 0.336 0.81257 0.65626 0.0
H2671 H 0.37457 0.80053 0.63669 0.0
H2672 H 0.35892 0.77524 0.5715 0.0
H2673 H 0.36587 0.7896 0.59234 0.0
H2674 H 0.32673 0.80297 0.61101 0.0
C2675 C 0.34818 0.81852 0.6584 0.0
C2676 C 0.36417 0.80129 0.63113 0.0
C2677 C 0.35265 0.82567 0.67088 0.0
C2678 C 0.3497 0.77566 0.57794 0.0
C2679 C 0.35369 0.7839 0.58995 0.0
C2680 C 0.33713 0.80221 0.61656 0.0
C2681 C 0.35938 0.81845 0.64905 0.0
C2682 C 0.35487 0.80993 0.63611 0.0
C2683 C 0.34213 0.78498 0.59861 0.0
C2684 C 0.34646 0.79358 0.61156 0.0
H2685 H 0.39175 0.83912 0.66694 0.0
H2686 H 0.38399 0.82667 0.6453 0.0
H2687 H 0.3339 0.81689 0.63214 0.0
H2688 H 0.31029 0.76382 0.58033 0.0
H2689 H 0.31721 0.778 0.6013 0.0
C2690 C 0.7282 0.82215 0.61817 0.0
C2691 C 0.71471 0.80977 0.61861 0.0
C2692 C 0.74166 0.82028 0.61274 0.0
C2693 C 0.75401 0.79427 0.59005 0.0
H2694 H 0.79555 0.81784 0.60233 0.0
C2695 C 0.80947 0.78515 0.5688 0.0
C2696 C 0.82034 0.79848 0.56456 0.0
C2697 C 0.79717 0.78609 0.57649 0.0
C2698 C 0.784 0.81121 0.59879 0.0
H2699 H 0.70488 0.78559 0.61445 0.0
H2700 H 0.72846 0.78214 0.60545 0.0
H2701 H 0.77301 0.82001 0.6141 0.0
H2702 H 0.8272 0.82323 0.56554 0.0
H2703 H 0.80575 0.82487 0.57905 0.0
H2704 H 0.76506 0.78537 0.57485 0.0
C2705 C 0.72858 0.79344 0.60881 0.0
C2706 C 0.77107 0.81249 0.60549 0.0
C2707 C 0.71508 0.79537 0.61404 0.0
C2708 C 0.8189 0.81277 0.5685 0.0
C2709 C 0.80672 0.8137 0.57635 0.0
C2710 C 0.76693 0.79285 0.58349 0.0
C2711 C 0.74196 0.80594 0.60781 0.0
C2712 C 0.75587 0.80413 0.60114 0.0
C2713 C 0.79561 0.80038 0.58026 0.0
C2714 C 0.78204 0.80139 0.58772 0.0
H2715 H 0.72816 0.8334 0.62154 0.0
H2716 H 0.75163 0.83022 0.612 0.0
H2717 H 0.74252 0.78789 0.58619 0.0
H2718 H 0.81023 0.77399 0.56589 0.0
H2719 H 0.78882 0.77563 0.57945 0.0
C2720 C 0.76706 0.80461 0.40329 0.0
C2721 C 0.75258 0.8078 0.40283 0.0
C2722 C 0.77667 0.80739 0.41487 0.0
C2723 C 0.78526 0.82869 0.44656 0.0
H2724 H 0.80073 0.79492 0.45815 0.0
C2725 C 0.81756 0.82832 0.49793 0.0
C2726 C 0.82987 0.8216 0.49846 0.0
C2727 C 0.80808 0.82731 0.48629 0.0
C2728 C 0.79673 0.80457 0.45499 0.0
H2729 H 0.73716 0.81702 0.41409 0.0
H2730 H 0.75416 0.82215 0.4343 0.0
H2731 H 0.78475 0.79253 0.43762 0.0
H2732 H 0.8422 0.80894 0.4871 0.0
H2733 H 0.82606 0.80756 0.46681 0.0
H2734 H 0.79747 0.84083 0.46384 0.0
C2735 C 0.75799 0.81744 0.42565 0.0
C2736 C 0.78752 0.80317 0.44323 0.0
C2737 C 0.74829 0.81454 0.41406 0.0
C2738 C 0.8327 0.8141 0.48707 0.0
C2739 C 0.82336 0.81323 0.47544 0.0
C2740 C 0.79463 0.83016 0.4583 0.0
C2741 C 0.77211 0.81357 0.42625 0.0
C2742 C 0.78176 0.81522 0.43884 0.0
C2743 C 0.81082 0.81967 0.47493 0.0
C2744 C 0.80056 0.81814 0.46261 0.0
H2745 H 0.77091 0.79975 0.39472 0.0
H2746 H 0.78763 0.80457 0.41497 0.0
H2747 H 0.78101 0.83818 0.44337 0.0
H2748 H 0.81506 0.83414 0.50655 0.0
H2749 H 0.79844 0.83226 0.48631 0.0
C2750 C 0.73476 0.18055 0.38856 0.0
C2751 C 0.73492 0.16601 0.38405 0.0
C2752 C 0.7419 0.18633 0.40093 0.0
C2753 C 0.7713 0.18109 0.42655 0.0
H2754 H 0.75168 0.20332 0.44962 0.0
C2755 C 0.79327 0.19603 0.48139 0.0
C2756 C 0.79309 0.21032 0.48647 0.0
C2757 C 0.78632 0.1909 0.46882 0.0
C2758 C 0.75743 0.19729 0.44325 0.0
H2759 H 0.74222 0.14595 0.38939 0.0
H2760 H 0.75461 0.15599 0.41076 0.0
H2761 H 0.73934 0.19416 0.4279 0.0
H2762 H 0.78581 0.2306 0.48197 0.0
H2763 H 0.77381 0.22172 0.46018 0.0
H2764 H 0.78937 0.18418 0.44188 0.0
C2765 C 0.74932 0.16312 0.40464 0.0
C2766 C 0.75034 0.19204 0.43076 0.0
C2767 C 0.7422 0.15736 0.39233 0.0
C2768 C 0.78592 0.2194 0.47856 0.0
C2769 C 0.779 0.21429 0.46601 0.0
C2770 C 0.77839 0.18634 0.43902 0.0
C2771 C 0.74936 0.17772 0.40911 0.0
C2772 C 0.75713 0.18378 0.42226 0.0
C2773 C 0.77905 0.19995 0.46096 0.0
C2774 C 0.77154 0.19446 0.44759 0.0
H2775 H 0.72933 0.18756 0.38243 0.0
H2776 H 0.7418 0.19767 0.40398 0.0
H2777 H 0.77704 0.17502 0.4202 0.0
H2778 H 0.79853 0.18866 0.48722 0.0
H2779 H 0.78642 0.1797 0.46537 0.0
C2780 C 0.36403 0.1907 0.43789 0.0
C2781 C 0.37167 0.19043 0.42603 0.0
C2782 C 0.36312 0.20447 0.4433 0.0
C2783 C 0.3568 0.23418 0.45045 0.0
H2784 H 0.39354 0.26896 0.4495 0.0
C2785 C 0.3597 0.29201 0.47568 0.0
C2786 C 0.37391 0.29974 0.4823 0.0
C2787 C 0.35865 0.27931 0.46751 0.0
C2788 C 0.3832 0.25934 0.44994 0.0
H2789 H 0.38387 0.2045 0.41031 0.0
H2790 H 0.38187 0.22856 0.41955 0.0
H2791 H 0.39284 0.24555 0.43769 0.0
H2792 H 0.39805 0.30002 0.48576 0.0
H2793 H 0.39619 0.27781 0.47183 0.0
H2794 H 0.3475 0.2477 0.46328 0.0
C2795 C 0.37688 0.21809 0.42483 0.0
C2796 C 0.38271 0.24596 0.44297 0.0
C2797 C 0.37787 0.20428 0.41944 0.0
C2798 C 0.38701 0.29448 0.48062 0.0
C2799 C 0.38593 0.28175 0.47257 0.0
C2800 C 0.35735 0.24753 0.45751 0.0
C2801 C 0.36967 0.21839 0.43694 0.0
C2802 C 0.3696 0.2331 0.44331 0.0
C2803 C 0.37176 0.27399 0.46587 0.0
C2804 C 0.37066 0.2602 0.45753 0.0
H2805 H 0.35885 0.18024 0.44311 0.0
H2806 H 0.35764 0.2042 0.4527 0.0
H2807 H 0.34639 0.22462 0.45076 0.0
H2808 H 0.34947 0.29591 0.47666 0.0
H2809 H 0.34759 0.27377 0.46238 0.0
C2810 C 0.35181 0.82106 0.4056 0.0
C2811 C 0.35202 0.81022 0.3957 0.0
C2812 C 0.34472 0.81649 0.41766 0.0
C2813 C 0.3364 0.78397 0.44001 0.0
H2814 H 0.31128 0.80507 0.45844 0.0
C2815 C 0.33005 0.77961 0.4961 0.0
C2816 C 0.31488 0.77289 0.5003 0.0
C2817 C 0.33254 0.78487 0.48314 0.0
C2818 C 0.31817 0.79902 0.45334 0.0
H2819 H 0.34402 0.78605 0.39062 0.0
H2820 H 0.33214 0.77811 0.41177 0.0
H2821 H 0.3191 0.81254 0.43569 0.0
H2822 H 0.29034 0.7674 0.49432 0.0
H2823 H 0.29477 0.77712 0.47151 0.0
H2824 H 0.33603 0.77089 0.45777 0.0
C2825 C 0.33755 0.79016 0.41018 0.0
C2826 C 0.32273 0.80334 0.44038 0.0
C2827 C 0.34445 0.79473 0.39807 0.0
C2828 C 0.30216 0.77261 0.49144 0.0
C2829 C 0.30468 0.77809 0.47838 0.0
C2830 C 0.3321 0.77987 0.45298 0.0
C2831 C 0.33781 0.80095 0.42021 0.0
C2832 C 0.332 0.79591 0.43361 0.0
C2833 C 0.31994 0.78377 0.47402 0.0
C2834 C 0.32309 0.78744 0.45984 0.0
H2835 H 0.35768 0.83306 0.40432 0.0
H2836 H 0.34528 0.82507 0.42523 0.0
H2837 H 0.34366 0.77812 0.43516 0.0
H2838 H 0.34014 0.78014 0.50266 0.0
H2839 H 0.34441 0.78937 0.48008 0.0
C2840 C 0.64682 0.15302 0.71795 0.0
C2841 C 0.6585 0.16117 0.70969 0.0
C2842 C 0.63896 0.16065 0.7259 0.0
C2843 C 0.62771 0.19634 0.72727 0.0
H2844 H 0.61395 0.18187 0.76214 0.0
C2845 C 0.5889 0.22423 0.75732 0.0
C2846 C 0.57664 0.21427 0.764 0.0
C2847 C 0.60044 0.21886 0.75174 0.0
C2848 C 0.61757 0.186 0.75237 0.0
H2849 H 0.67151 0.1838 0.70367 0.0
H2850 H 0.65776 0.19726 0.71764 0.0
H2851 H 0.63175 0.17076 0.75089 0.0
H2852 H 0.56734 0.19083 0.7703 0.0
H2853 H 0.58713 0.18144 0.76036 0.0
H2854 H 0.61323 0.2113 0.72857 0.0
C2855 C 0.65462 0.1849 0.71788 0.0
C2856 C 0.62784 0.17964 0.74593 0.0
C2857 C 0.66262 0.17722 0.70999 0.0
C2858 C 0.57644 0.19884 0.76512 0.0
C2859 C 0.58796 0.19347 0.75954 0.0
C2860 C 0.61739 0.20267 0.73369 0.0
C2861 C 0.64249 0.17668 0.72576 0.0
C2862 C 0.63286 0.18455 0.7332 0.0
C2863 C 0.60008 0.20337 0.75268 0.0
C2864 C 0.61197 0.19742 0.74625 0.0
H2865 H 0.64344 0.14064 0.71798 0.0
H2866 H 0.62962 0.15392 0.73172 0.0
H2867 H 0.63116 0.20028 0.71741 0.0
H2868 H 0.58946 0.23615 0.75612 0.0
H2869 H 0.60967 0.22688 0.74668 0.0
C2870 C 0.34719 0.18374 0.71228 0.0
C2871 C 0.35738 0.1856 0.70181 0.0
C2872 C 0.34077 0.1693 0.7176 0.0
C2873 C 0.32959 0.12866 0.71046 0.0
H2874 H 0.3367 0.12391 0.74833 0.0
C2875 C 0.31297 0.06928 0.73515 0.0
C2876 C 0.30833 0.06833 0.74832 0.0
C2877 C 0.31864 0.08352 0.72918 0.0
C2878 C 0.3343 0.12502 0.73779 0.0
H2879 H 0.36857 0.1739 0.68845 0.0
H2880 H 0.35692 0.14845 0.69755 0.0
H2881 H 0.34662 0.14888 0.73832 0.0
H2882 H 0.3053 0.08131 0.76543 0.0
H2883 H 0.31445 0.10611 0.75493 0.0
H2884 H 0.3168 0.105 0.7099 0.0
C2885 C 0.35407 0.15822 0.70168 0.0
C2886 C 0.3401 0.13934 0.73206 0.0
C2887 C 0.36076 0.17272 0.69653 0.0
C2888 C 0.30906 0.0818 0.75532 0.0
C2889 C 0.31441 0.096 0.7493 0.0
C2890 C 0.32349 0.11437 0.71623 0.0
C2891 C 0.34419 0.15643 0.71237 0.0
C2892 C 0.33784 0.14126 0.71836 0.0
C2893 C 0.31948 0.0971 0.73619 0.0
C2894 C 0.3258 0.11234 0.72998 0.0
H2895 H 0.34451 0.19352 0.71656 0.0
H2896 H 0.33313 0.16816 0.72581 0.0
H2897 H 0.32762 0.12992 0.69987 0.0
H2898 H 0.31263 0.05902 0.7296 0.0
H2899 H 0.32266 0.08383 0.71918 0.0
C2900 C 0.41769 0.83636 0.70734 0.0
C2901 C 0.40451 0.83639 0.71441 0.0
C2902 C 0.42888 0.82971 0.7127 0.0
C2903 C 0.44478 0.81668 0.74353 0.0
H2904 H 0.45564 0.78821 0.71988 0.0
C2905 C 0.48222 0.77741 0.76207 0.0
C2906 C 0.49258 0.77409 0.75326 0.0
C2907 C 0.4715 0.7852 0.7577 0.0
C2908 C 0.453 0.79629 0.7266 0.0
H2909 H 0.39329 0.83009 0.73306 0.0
H2910 H 0.41309 0.81883 0.74256 0.0
H2911 H 0.43772 0.80228 0.71191 0.0
H2912 H 0.50004 0.77671 0.73301 0.0
H2913 H 0.48175 0.79056 0.72544 0.0
H2914 H 0.4603 0.81095 0.75815 0.0
C2915 C 0.41465 0.82388 0.73279 0.0
C2916 C 0.44264 0.80433 0.72201 0.0
C2917 C 0.40333 0.83042 0.72736 0.0
C2918 C 0.49203 0.77882 0.73999 0.0
C2919 C 0.48147 0.78676 0.73565 0.0
C2920 C 0.45532 0.80876 0.74809 0.0
C2921 C 0.42731 0.82307 0.72535 0.0
C2922 C 0.43843 0.81465 0.73039 0.0
C2923 C 0.47099 0.79005 0.74442 0.0
C2924 C 0.45962 0.79845 0.73968 0.0
H2925 H 0.41918 0.84113 0.69746 0.0
H2926 H 0.43867 0.82956 0.70682 0.0
H2927 H 0.44183 0.82462 0.75021 0.0
H2928 H 0.48226 0.77381 0.77233 0.0
H2929 H 0.46349 0.78723 0.76472 0.0
C2930 C 0.71405 0.87467 0.6687 0.0
C2931 C 0.70899 0.86087 0.67555 0.0
C2932 C 0.72331 0.88782 0.67537 0.0
C2933 C 0.74498 0.90153 0.70795 0.0
H2934 H 0.72919 0.93655 0.70211 0.0
C2935 C 0.74417 0.94515 0.74876 0.0
C2936 C 0.75118 0.96056 0.74594 0.0
C2937 C 0.74166 0.93403 0.73874 0.0
C2938 C 0.73385 0.92692 0.70372 0.0
H2939 H 0.71067 0.84954 0.69425 0.0
H2940 H 0.72642 0.87225 0.70591 0.0
H2941 H 0.72148 0.91502 0.68647 0.0
H2942 H 0.76066 0.97657 0.73047 0.0
H2943 H 0.75571 0.95707 0.71274 0.0
H2944 H 0.75643 0.9131 0.72575 0.0
C2945 C 0.72353 0.87315 0.69543 0.0
C2946 C 0.72956 0.91462 0.69472 0.0
C2947 C 0.71437 0.8601 0.68878 0.0
C2948 C 0.75527 0.96473 0.73285 0.0
C2949 C 0.75245 0.95363 0.72276 0.0
C2950 C 0.74901 0.91369 0.71706 0.0
C2951 C 0.72764 0.88732 0.68898 0.0
C2952 C 0.73468 0.90155 0.69695 0.0
C2953 C 0.74584 0.93818 0.72568 0.0
C2954 C 0.74315 0.92628 0.7152 0.0
H2955 H 0.71002 0.87552 0.65848 0.0
H2956 H 0.72651 0.89848 0.67003 0.0
H2957 H 0.74947 0.89185 0.70982 0.0
H2958 H 0.74108 0.94166 0.7588 0.0
H2959 H 0.73642 0.92217 0.74118 0.0
C2960 C 0.66013 0.80052 0.3658 0.0
C2961 C 0.66982 0.8113 0.35763 0.0
C2962 C 0.64474 0.79312 0.36157 0.0
C2963 C 0.61315 0.79589 0.33749 0.0
H2964 H 0.59811 0.75204 0.34196 0.0
C2965 C 0.55809 0.75806 0.30915 0.0
C2966 C 0.54859 0.7457 0.31596 0.0
C2967 C 0.57224 0.76684 0.31505 0.0
C2968 C 0.60203 0.76432 0.34081 0.0
H2969 H 0.671 0.82257 0.33853 0.0
H2970 H 0.6442 0.80976 0.33122 0.0
H2971 H 0.62395 0.76591 0.35099 0.0
H2972 H 0.54618 0.73321 0.33449 0.0
H2973 H 0.57069 0.74862 0.34481 0.0
H2974 H 0.59127 0.79427 0.32718 0.0
C2975 C 0.64839 0.80722 0.34099 0.0
C2976 C 0.61684 0.77226 0.34599 0.0
C2977 C 0.66375 0.81457 0.34519 0.0
C2978 C 0.5533 0.74258 0.32892 0.0
C2979 C 0.56739 0.75136 0.33482 0.0
C2980 C 0.59831 0.78795 0.33233 0.0
C2981 C 0.63873 0.79637 0.34909 0.0
C2982 C 0.62262 0.78811 0.34429 0.0
C2983 C 0.57715 0.76344 0.32789 0.0
C2984 C 0.59263 0.77205 0.33384 0.0
H2985 H 0.66443 0.79787 0.37548 0.0
H2986 H 0.63751 0.78491 0.36809 0.0
H2987 H 0.61721 0.80814 0.33618 0.0
H2988 H 0.5548 0.76074 0.29914 0.0
H2989 H 0.57956 0.77598 0.30939 0.0
C2990 C 0.74184 0.12338 0.35114 0.0
C2991 C 0.73401 0.13264 0.34416 0.0
C2992 C 0.74802 0.1132 0.34437 0.0
C2993 C 0.7594 0.1044 0.31072 0.0
H2994 H 0.75527 0.06413 0.32527 0.0
C2995 C 0.76275 0.05347 0.27875 0.0
C2996 C 0.77001 0.04279 0.284 0.0
C2997 C 0.76094 0.06536 0.28662 0.0
C2998 C 0.75678 0.07541 0.32117 0.0
H2999 H 0.72678 0.13842 0.32445 0.0
H3000 H 0.73719 0.12045 0.31268 0.0
H3001 H 0.74664 0.08284 0.33783 0.0
H3002 H 0.78143 0.03645 0.30161 0.0
H3003 H 0.77808 0.05734 0.3156 0.0
H3004 H 0.76912 0.0968 0.29389 0.0
C3005 C 0.73878 0.12123 0.32342 0.0
C3006 C 0.7518 0.08618 0.32837 0.0
C3007 C 0.73262 0.13143 0.33019 0.0
C3008 C 0.77587 0.04456 0.29728 0.0
C3009 C 0.77383 0.05643 0.30529 0.0
C3010 C 0.76431 0.09363 0.30351 0.0
C3011 C 0.74655 0.11191 0.3304 0.0
C3012 C 0.75279 0.10075 0.32315 0.0
C3013 C 0.76618 0.06688 0.30006 0.0
C3014 C 0.76281 0.0789 0.30852 0.0
H3015 H 0.74296 0.12376 0.36191 0.0
H3016 H 0.75403 0.10636 0.35011 0.0
H3017 H 0.76073 0.11558 0.30648 0.0
H3018 H 0.75817 0.05248 0.26853 0.0
H3019 H 0.75486 0.07304 0.28226 0.0
C3020 C 0.40865 0.16866 0.36081 0.0
C3021 C 0.39281 0.16379 0.35653 0.0
C3022 C 0.4202 0.17417 0.35169 0.0
C3023 C 0.44157 0.19226 0.33079 0.0
H3024 H 0.4383 0.1684 0.29835 0.0
C3025 C 0.48363 0.21133 0.28805 0.0
C3026 C 0.4897 0.20014 0.2826 0.0
C3027 C 0.47156 0.20733 0.29687 0.0
C3028 C 0.43939 0.17514 0.30738 0.0
H3029 H 0.37674 0.16167 0.33935 0.0
H3030 H 0.39694 0.17107 0.32344 0.0
H3031 H 0.41773 0.16117 0.31425 0.0
H3032 H 0.48755 0.17584 0.28225 0.0
H3033 H 0.46633 0.16888 0.29744 0.0
H3034 H 0.46331 0.20615 0.32396 0.0
C3035 C 0.40038 0.17043 0.33384 0.0
C3036 C 0.42754 0.1711 0.31642 0.0
C3037 C 0.38882 0.16504 0.34296 0.0
C3038 C 0.48313 0.18478 0.28607 0.0
C3039 C 0.47096 0.18077 0.29482 0.0
C3040 C 0.45335 0.19639 0.32168 0.0
C3041 C 0.41621 0.17485 0.33807 0.0
C3042 C 0.42854 0.17956 0.32826 0.0
C3043 C 0.46512 0.19202 0.30038 0.0
C3044 C 0.45244 0.18782 0.30992 0.0
H3045 H 0.41219 0.16766 0.37113 0.0
H3046 H 0.43231 0.17737 0.35525 0.0
H3047 H 0.44262 0.19904 0.33979 0.0
H3048 H 0.48808 0.22323 0.28545 0.0
H3049 H 0.46714 0.21623 0.30083 0.0
C3050 C 0.34284 0.87866 0.34818 0.0
C3051 C 0.35616 0.87696 0.3423 0.0
C3052 C 0.3335 0.88672 0.34164 0.0
C3053 C 0.33493 0.91509 0.31438 0.0
H3054 H 0.29049 0.90467 0.31894 0.0
C3055 C 0.29658 0.95383 0.29559 0.0
C3056 C 0.28094 0.94658 0.29182 0.0
C3057 C 0.3062 0.94529 0.30099 0.0
C3058 C 0.30286 0.90768 0.31736 0.0
H3059 H 0.36972 0.8816 0.32473 0.0
H3060 H 0.35316 0.89501 0.31307 0.0
H3061 H 0.30558 0.88922 0.32945 0.0
H3062 H 0.26339 0.92471 0.28984 0.0
H3063 H 0.28017 0.90983 0.29847 0.0
H3064 H 0.33206 0.93322 0.30188 0.0
C3065 C 0.35015 0.8907 0.32292 0.0
C3066 C 0.3116 0.8989 0.32362 0.0
C3067 C 0.35956 0.88285 0.32953 0.0
C3068 C 0.27537 0.93062 0.2928 0.0
C3069 C 0.28498 0.92211 0.29792 0.0
C3070 C 0.32614 0.92378 0.308 0.0
C3071 C 0.33717 0.8931 0.32898 0.0
C3072 C 0.32778 0.90245 0.32224 0.0
C3073 C 0.30038 0.92932 0.30253 0.0
C3074 C 0.30995 0.92018 0.30935 0.0
H3075 H 0.34007 0.87438 0.35808 0.0
H3076 H 0.32373 0.88841 0.34673 0.0
H3077 H 0.3474 0.91843 0.31324 0.0
H3078 H 0.30111 0.96615 0.29506 0.0
H3079 H 0.31796 0.95131 0.30446 0.0
C3080 C 0.73399 0.13031 0.71267 0.0
C3081 C 0.73508 0.13187 0.69881 0.0
C3082 C 0.74057 0.12017 0.71963 0.0
C3083 C 0.76888 0.09727 0.71764 0.0
H3084 H 0.74346 0.07302 0.74439 0.0
C3085 C 0.78244 0.04478 0.74445 0.0
C3086 C 0.77826 0.04254 0.75775 0.0
C3087 C 0.77888 0.05655 0.73699 0.0
C3088 C 0.75087 0.07983 0.73711 0.0
H3089 H 0.74429 0.12401 0.68148 0.0
H3090 H 0.75584 0.10641 0.69363 0.0
H3091 H 0.7341 0.09183 0.73213 0.0
H3092 H 0.76828 0.05154 0.77396 0.0
H3093 H 0.76265 0.07215 0.76128 0.0
H3094 H 0.78565 0.08509 0.72269 0.0
C3095 C 0.74999 0.11316 0.69914 0.0
C3096 C 0.74547 0.09065 0.73004 0.0
C3097 C 0.74337 0.1233 0.69217 0.0
C3098 C 0.77145 0.05285 0.76367 0.0
C3099 C 0.76809 0.0646 0.75634 0.0
C3100 C 0.77434 0.0864 0.72478 0.0
C3101 C 0.74846 0.11127 0.71294 0.0
C3102 C 0.75442 0.09964 0.72029 0.0
C3103 C 0.77118 0.0663 0.74277 0.0
C3104 C 0.76547 0.07764 0.73472 0.0
H3105 H 0.72796 0.13689 0.71818 0.0
H3106 H 0.73943 0.11927 0.73029 0.0
H3107 H 0.77612 0.10401 0.71023 0.0
H3108 H 0.7876 0.03693 0.73962 0.0
H3109 H 0.78146 0.05752 0.72657 0.0
C3110 C 0.72919 0.86102 0.35 0.0
C3111 C 0.71572 0.85737 0.35741 0.0
C3112 C 0.73376 0.87493 0.34334 0.0
C3113 C 0.71576 0.90188 0.32746 0.0
H3114 H 0.75815 0.92695 0.32349 0.0
C3115 C 0.7297 0.95529 0.29425 0.0
C3116 C 0.74322 0.95823 0.28698 0.0
C3117 C 0.72672 0.94389 0.30388 0.0
C3118 C 0.74626 0.91996 0.32437 0.0
H3119 H 0.69738 0.86599 0.36468 0.0
H3120 H 0.7053 0.8902 0.35295 0.0
H3121 H 0.75303 0.90594 0.33927 0.0
H3122 H 0.76394 0.95124 0.28374 0.0
H3123 H 0.75858 0.93105 0.30021 0.0
H3124 H 0.70896 0.9154 0.31227 0.0
C3125 C 0.71214 0.88221 0.35212 0.0
C3126 C 0.74334 0.908 0.33347 0.0
C3127 C 0.70763 0.86837 0.35884 0.0
C3128 C 0.75354 0.94935 0.28934 0.0
C3129 C 0.7505 0.93785 0.29884 0.0
C3130 C 0.71868 0.91371 0.31827 0.0
C3131 C 0.72492 0.88539 0.34393 0.0
C3132 C 0.72807 0.89879 0.33505 0.0
C3133 C 0.73712 0.93505 0.30633 0.0
C3134 C 0.73397 0.92284 0.31652 0.0
H3135 H 0.73559 0.85274 0.3486 0.0
H3136 H 0.74363 0.87706 0.33705 0.0
H3137 H 0.70389 0.89479 0.32829 0.0
H3138 H 0.72167 0.96212 0.29276 0.0
H3139 H 0.71642 0.94222 0.30957 0.0
C3140 C 0.64624 0.1769 0.34462 0.0
C3141 C 0.66049 0.17569 0.3401 0.0
C3142 C 0.63845 0.1865 0.33834 0.0
C3143 C 0.63568 0.20429 0.30544 0.0
H3144 H 0.60503 0.2194 0.32267 0.0
C3145 C 0.58259 0.21273 0.27612 0.0
C3146 C 0.57606 0.22452 0.27934 0.0
C3147 C 0.59477 0.20999 0.28392 0.0
C3148 C 0.61368 0.21549 0.31768 0.0
H3149 H 0.67829 0.18467 0.32602 0.0
H3150 H 0.665 0.20188 0.3153 0.0
H3151 H 0.6236 0.2099 0.33613 0.0
H3152 H 0.57754 0.24284 0.29343 0.0
H3153 H 0.59913 0.23809 0.30721 0.0
H3154 H 0.6259 0.21 0.28703 0.0
C3155 C 0.65956 0.195 0.32349 0.0
C3156 C 0.62425 0.20982 0.32541 0.0
C3157 C 0.66734 0.18528 0.32976 0.0
C3158 C 0.58228 0.23368 0.29063 0.0
C3159 C 0.5946 0.23089 0.29856 0.0
C3160 C 0.62523 0.21006 0.29775 0.0
C3161 C 0.64471 0.19536 0.32738 0.0
C3162 C 0.6351 0.20367 0.31939 0.0
C3163 C 0.60102 0.21897 0.29528 0.0
C3164 C 0.61371 0.21525 0.3037 0.0
H3165 H 0.64072 0.16987 0.35271 0.0
H3166 H 0.62706 0.18626 0.34166 0.0
H3167 H 0.6437 0.19963 0.30031 0.0
H3168 H 0.57818 0.20535 0.26754 0.0
H3169 H 0.59904 0.20049 0.28118 0.0
C3170 C 0.34156 0.1085 0.37501 0.0
C3171 C 0.3454 0.12127 0.36666 0.0
C3172 C 0.33054 0.09496 0.37073 0.0
C3173 C 0.29876 0.07905 0.34507 0.0
H3174 H 0.30804 0.0409 0.35309 0.0
C3175 C 0.25769 0.02116 0.32634 0.0
C3176 C 0.26502 0.01097 0.32089 0.0
C3177 C 0.26641 0.03403 0.33364 0.0
C3178 C 0.30528 0.05145 0.35072 0.0
H3179 H 0.34031 0.12992 0.34739 0.0
H3180 H 0.32149 0.10621 0.33978 0.0
H3181 H 0.3253 0.06478 0.36205 0.0
H3182 H 0.28713 0.00589 0.31956 0.0
H3183 H 0.30234 0.02843 0.33192 0.0
H3184 H 0.27915 0.06578 0.33322 0.0
C3185 C 0.3268 0.1067 0.34972 0.0
C3186 C 0.31509 0.06515 0.356 0.0
C3187 C 0.33776 0.12025 0.35402 0.0
C3188 C 0.28114 0.01362 0.32341 0.0
C3189 C 0.28985 0.02648 0.33067 0.0
C3190 C 0.28899 0.06535 0.33974 0.0
C3191 C 0.32313 0.09383 0.35798 0.0
C3192 C 0.31208 0.07916 0.3531 0.0
C3193 C 0.28266 0.03701 0.33568 0.0
C3194 C 0.29225 0.05139 0.34234 0.0
H3195 H 0.34732 0.1088 0.38475 0.0
H3196 H 0.32788 0.08536 0.37742 0.0
H3197 H 0.29595 0.08959 0.34278 0.0
H3198 H 0.24532 0.01953 0.32456 0.0
H3199 H 0.26045 0.04177 0.33753 0.0
C3200 C 0.38288 0.78478 0.36109 0.0
C3201 C 0.38858 0.80082 0.36206 0.0
C3202 C 0.39204 0.77609 0.35602 0.0
C3203 C 0.42559 0.77945 0.33483 0.0
H3204 H 0.42781 0.74168 0.35137 0.0
C3205 C 0.47102 0.74924 0.31993 0.0
C3206 C 0.46668 0.73317 0.31948 0.0
C3207 C 0.4612 0.75706 0.32515 0.0
C3208 C 0.42718 0.7521 0.34649 0.0
H3209 H 0.40877 0.82011 0.35894 0.0
H3210 H 0.42452 0.80505 0.34999 0.0
H3211 H 0.41113 0.7559 0.36036 0.0
H3212 H 0.44844 0.71278 0.32414 0.0
H3213 H 0.43121 0.7264 0.3331 0.0
H3214 H 0.44148 0.77567 0.3209 0.0
C3215 C 0.41286 0.79919 0.35291 0.0
C3216 C 0.41761 0.76027 0.35168 0.0
C3217 C 0.40378 0.80785 0.35803 0.0
C3218 C 0.45225 0.72514 0.32446 0.0
C3219 C 0.44237 0.73298 0.32963 0.0
C3220 C 0.43508 0.77126 0.32961 0.0
C3221 C 0.4071 0.78321 0.35174 0.0
C3222 C 0.41681 0.77413 0.34599 0.0
C3223 C 0.44668 0.74907 0.33002 0.0
C3224 C 0.43614 0.75753 0.33542 0.0
H3225 H 0.37122 0.77896 0.364 0.0
H3226 H 0.38718 0.76381 0.35518 0.0
H3227 H 0.42504 0.78993 0.33003 0.0
H3228 H 0.48215 0.75582 0.31643 0.0
H3229 H 0.46513 0.76942 0.32552 0.0
C3230 C 0.35971 0.90518 0.72885 0.0
C3231 C 0.35482 0.89192 0.73649 0.0
C3232 C 0.3597 0.91947 0.73404 0.0
C3233 C 0.35638 0.94029 0.76542 0.0
H3234 H 0.33693 0.96367 0.74168 0.0
C3235 C 0.3285 0.98667 0.78386 0.0
C3236 C 0.32781 0.99858 0.77522 0.0
C3237 C 0.33514 0.97523 0.77986 0.0
C3238 C 0.34269 0.95755 0.74844 0.0
H3239 H 0.34714 0.88345 0.75588 0.0
H3240 H 0.34719 0.90821 0.76492 0.0
H3241 H 0.34287 0.94117 0.7333 0.0
H3242 H 0.33409 0.00831 0.75596 0.0
H3243 H 0.34639 0.98901 0.74927 0.0
H3244 H 0.35593 0.95659 0.78064 0.0
C3245 C 0.35102 0.90769 0.75492 0.0
C3246 C 0.34611 0.94454 0.74359 0.0
C3247 C 0.35092 0.89345 0.74971 0.0
C3248 C 0.3347 0.99937 0.7629 0.0
C3249 C 0.3415 0.98812 0.75898 0.0
C3250 C 0.35303 0.95338 0.77028 0.0
C3251 C 0.35494 0.92086 0.74704 0.0
C3252 C 0.35281 0.93558 0.75203 0.0
C3253 C 0.34123 0.97549 0.76714 0.0
C3254 C 0.34596 0.96213 0.7619 0.0
H3255 H 0.36268 0.90438 0.71861 0.0
H3256 H 0.36302 0.92938 0.72773 0.0
H3257 H 0.36171 0.9338 0.7722 0.0
H3258 H 0.32286 0.98554 0.79325 0.0
H3259 H 0.33455 0.96569 0.78642 0.0
C3260 C 0.64851 0.8347 0.68415 0.0
C3261 C 0.65705 0.82463 0.68083 0.0
C3262 C 0.63713 0.83062 0.69357 0.0
C3263 C 0.61406 0.79786 0.71305 0.0
H3264 H 0.61219 0.83012 0.73743 0.0
C3265 C 0.58161 0.78539 0.76162 0.0
C3266 C 0.57063 0.79351 0.76343 0.0
C3267 C 0.5925 0.78971 0.75183 0.0
C3268 C 0.61254 0.82104 0.73065 0.0
H3269 H 0.66032 0.80235 0.68435 0.0
H3270 H 0.6407 0.79525 0.70111 0.0
H3271 H 0.62976 0.83604 0.71913 0.0
H3272 H 0.56313 0.81308 0.75694 0.0
H3273 H 0.58247 0.82081 0.73999 0.0
H3274 H 0.59711 0.78281 0.72489 0.0
C3275 C 0.64245 0.80617 0.69626 0.0
C3276 C 0.62252 0.82441 0.72009 0.0
C3277 C 0.65369 0.81019 0.68668 0.0
C3278 C 0.57141 0.80658 0.75577 0.0
C3279 C 0.58247 0.81101 0.74608 0.0
C3280 C 0.60424 0.79446 0.72371 0.0
C3281 C 0.63427 0.81649 0.70005 0.0
C3282 C 0.62339 0.81287 0.71112 0.0
C3283 C 0.59281 0.80235 0.74377 0.0
C3284 C 0.6034 0.80602 0.7326 0.0
H3285 H 0.65094 0.8459 0.67971 0.0
H3286 H 0.6308 0.83869 0.69594 0.0
H3287 H 0.61421 0.78873 0.70625 0.0
H3288 H 0.58137 0.77527 0.76735 0.0
H3289 H 0.60051 0.78298 0.75038 0.0
C3290 C 0.41526 0.21893 0.68906 0.0
C3291 C 0.40576 0.22738 0.69392 0.0
C3292 C 0.43143 0.22392 0.69141 0.0
C3293 C 0.46408 0.25702 0.70454 0.0
H3294 H 0.48245 0.22499 0.71553 0.0
C3295 C 0.516 0.26477 0.74238 0.0
C3296 C 0.5266 0.25623 0.74064 0.0
C3297 C 0.50338 0.26336 0.73331 0.0
C3298 C 0.47762 0.23407 0.71223 0.0
H3299 H 0.4057 0.24782 0.7048 0.0
H3300 H 0.43376 0.25631 0.70928 0.0
H3301 H 0.45602 0.2182 0.7059 0.0
H3302 H 0.53293 0.24041 0.72744 0.0
H3303 H 0.51076 0.23786 0.71167 0.0
H3304 H 0.48553 0.27285 0.71173 0.0
C3305 C 0.42889 0.24606 0.70331 0.0
C3306 C 0.46243 0.23019 0.70667 0.0
C3307 C 0.41277 0.24117 0.7008 0.0
C3308 C 0.52494 0.2471 0.72912 0.0
C3309 C 0.51221 0.24557 0.72011 0.0
C3310 C 0.47924 0.2609 0.71026 0.0
C3311 C 0.43842 0.23736 0.69887 0.0
C3312 C 0.4553 0.2416 0.70304 0.0
C3313 C 0.50103 0.2533 0.72236 0.0
C3314 C 0.48603 0.24945 0.71443 0.0
H3315 H 0.41014 0.20834 0.68359 0.0
H3316 H 0.4384 0.21708 0.68761 0.0
H3317 H 0.4591 0.26611 0.7016 0.0
H3318 H 0.51701 0.27197 0.75112 0.0
H3319 H 0.4949 0.2694 0.73535 0.0
C3320 C 0.7061 0.65386 0.15043 0.0
C3321 C 0.71291 0.65125 0.16277 0.0
C3322 C 0.71531 0.65946 0.13965 0.0
C3323 C 0.75581 0.67973 0.1309 0.0
H3324 H 0.74045 0.66438 0.09547 0.0
C3325 C 0.78457 0.70794 0.08298 0.0
C3326 C 0.78495 0.69841 0.07208 0.0
C3327 C 0.77654 0.702 0.09433 0.0
C3328 C 0.74504 0.66871 0.10529 0.0
H3329 H 0.73492 0.6526 0.17335 0.0
H3330 H 0.75099 0.66212 0.15447 0.0
H3331 H 0.72524 0.6542 0.11453 0.0
H3332 H 0.77723 0.67492 0.0649 0.0
H3333 H 0.76367 0.66459 0.08469 0.0
H3334 H 0.77576 0.69407 0.12163 0.0
C3335 C 0.73848 0.66 0.15319 0.0
C3336 C 0.73618 0.663 0.11625 0.0
C3337 C 0.72924 0.65437 0.164 0.0
C3338 C 0.77736 0.68268 0.07304 0.0
C3339 C 0.76936 0.67674 0.08438 0.0
C3340 C 0.76469 0.68546 0.11992 0.0
C3341 C 0.73163 0.66259 0.14084 0.0
C3342 C 0.74137 0.66847 0.12921 0.0
C3343 C 0.76866 0.68633 0.09513 0.0
C3344 C 0.75941 0.68006 0.10694 0.0
H3345 H 0.69357 0.65138 0.149 0.0
H3346 H 0.70959 0.66148 0.13039 0.0
H3347 H 0.76016 0.68434 0.14069 0.0
H3348 H 0.7904 0.72006 0.08275 0.0
H3349 H 0.7762 0.70979 0.10234 0.0
C3350 C 0.32932 0.76531 0.14885 0.0
C3351 C 0.3298 0.75008 0.14959 0.0
C3352 C 0.33468 0.77412 0.13775 0.0
C3353 C 0.34081 0.77039 0.10231 0.0
H3354 H 0.36446 0.81308 0.10574 0.0
C3355 C 0.3606 0.80693 0.05618 0.0
C3356 C 0.3584 0.82158 0.05623 0.0
C3357 C 0.35928 0.7984 0.06784 0.0
C3358 C 0.35778 0.8012 0.10461 0.0
H3359 H 0.33637 0.73215 0.13931 0.0
H3360 H 0.34581 0.74758 0.11993 0.0
H3361 H 0.35794 0.79774 0.12568 0.0
H3362 H 0.35359 0.83895 0.06866 0.0
H3363 H 0.35105 0.824 0.0889 0.0
H3364 H 0.34025 0.77389 0.0813 0.0
C3365 C 0.34123 0.75268 0.12793 0.0
C3366 C 0.35406 0.79242 0.11603 0.0
C3367 C 0.33595 0.7439 0.13907 0.0
C3368 C 0.35538 0.82771 0.06827 0.0
C3369 C 0.35401 0.81916 0.07992 0.0
C3370 C 0.34446 0.77918 0.0909 0.0
C3371 C 0.34056 0.76786 0.12711 0.0
C3372 C 0.34539 0.77696 0.115 0.0
C3373 C 0.35569 0.8043 0.0798 0.0
C3374 C 0.35284 0.79474 0.09191 0.0
H3375 H 0.32479 0.77043 0.15686 0.0
H3376 H 0.33387 0.78573 0.13736 0.0
H3377 H 0.33393 0.75857 0.10119 0.0
H3378 H 0.36304 0.80192 0.04708 0.0
H3379 H 0.36092 0.7871 0.06745 0.0
C3380 C 0.38682 0.32249 0.16301 0.0
C3381 C 0.37766 0.32259 0.174 0.0
C3382 C 0.37985 0.31718 0.15047 0.0
C3383 C 0.34267 0.2929 0.1345 0.0
H3384 H 0.35955 0.31235 0.10202 0.0
C3385 C 0.31059 0.2746 0.08338 0.0
C3386 C 0.31971 0.27291 0.07279 0.0
C3387 C 0.31758 0.28178 0.09533 0.0
C3388 C 0.35474 0.30669 0.11098 0.0
H3389 H 0.35384 0.31688 0.18025 0.0
H3390 H 0.34178 0.30809 0.15848 0.0
H3391 H 0.37197 0.32241 0.12353 0.0
H3392 H 0.34344 0.27807 0.06641 0.0
H3393 H 0.35558 0.29053 0.08719 0.0
H3394 H 0.32551 0.27715 0.122 0.0
C3395 C 0.35438 0.31197 0.15954 0.0
C3396 C 0.3619 0.31246 0.12335 0.0
C3397 C 0.36133 0.31726 0.17204 0.0
C3398 C 0.336 0.27918 0.0743 0.0
C3399 C 0.34299 0.28638 0.08625 0.0
C3400 C 0.33552 0.28716 0.12216 0.0
C3401 C 0.36351 0.31175 0.14857 0.0
C3402 C 0.35596 0.30565 0.13531 0.0
C3403 C 0.33391 0.2875 0.09705 0.0
C3404 C 0.34143 0.29396 0.11021 0.0
H3405 H 0.39941 0.32658 0.16409 0.0
H3406 H 0.3873 0.31706 0.14233 0.0
H3407 H 0.33791 0.28712 0.14342 0.0
H3408 H 0.29802 0.26996 0.08261 0.0
H3409 H 0.31016 0.28267 0.10331 0.0
C3410 C 0.75619 0.34319 0.1051 0.0
C3411 C 0.74367 0.34686 0.0983 0.0
C3412 C 0.77113 0.34775 0.10016 0.0
C3413 C 0.79575 0.37473 0.07692 0.0
H3414 H 0.81896 0.34479 0.07662 0.0
C3415 C 0.84755 0.3788 0.04341 0.0
C3416 C 0.85944 0.37255 0.04806 0.0
C3417 C 0.83469 0.37792 0.05108 0.0
C3418 C 0.81281 0.35342 0.07684 0.0
H3419 H 0.73716 0.35853 0.08115 0.0
H3420 H 0.76313 0.3662 0.0724 0.0
H3421 H 0.79397 0.33858 0.08694 0.0
H3422 H 0.86787 0.3617 0.06478 0.0
H3423 H 0.84563 0.36043 0.07832 0.0
H3424 H 0.81452 0.38946 0.06657 0.0
C3425 C 0.76143 0.35992 0.08162 0.0
C3426 C 0.79843 0.34983 0.08275 0.0
C3427 C 0.7465 0.35534 0.08654 0.0
C3428 C 0.85877 0.36643 0.06091 0.0
C3429 C 0.84598 0.36562 0.0686 0.0
C3430 C 0.81017 0.37834 0.07101 0.0
C3431 C 0.77392 0.35611 0.08833 0.0
C3432 C 0.78964 0.36037 0.08273 0.0
C3433 C 0.83351 0.37084 0.06358 0.0
C3434 C 0.8188 0.36766 0.07078 0.0
H3435 H 0.75439 0.33658 0.11414 0.0
H3436 H 0.78051 0.34473 0.10564 0.0
H3437 H 0.78936 0.38318 0.07691 0.0
H3438 H 0.84765 0.38343 0.03349 0.0
H3439 H 0.82526 0.38196 0.04686 0.0
C3440 C 0.78797 0.3012 0.89789 0.0
C3441 C 0.77442 0.3057 0.89508 0.0
C3442 C 0.79493 0.30288 0.91072 0.0
C3443 C 0.79769 0.32476 0.9419 0.0
H3444 H 0.81581 0.29388 0.95631 0.0
C3445 C 0.82815 0.3304 0.9944 0.0
C3446 C 0.84272 0.32741 0.99498 0.0
C3447 C 0.81825 0.32657 0.98298 0.0
C3448 C 0.81084 0.30262 0.9524 0.0
H3449 H 0.75733 0.31518 0.90361 0.0
H3450 H 0.7695 0.31813 0.92603 0.0
H3451 H 0.80145 0.28948 0.9348 0.0
H3452 H 0.85814 0.31768 0.98418 0.0
H3453 H 0.84095 0.31108 0.96436 0.0
H3454 H 0.80729 0.33798 0.95942 0.0
C3455 C 0.77487 0.3135 0.91826 0.0
C3456 C 0.80265 0.30012 0.94007 0.0
C3457 C 0.76791 0.31183 0.90542 0.0
C3458 C 0.847 0.32016 0.98407 0.0
C3459 C 0.8371 0.31627 0.97272 0.0
C3460 C 0.80586 0.32724 0.95424 0.0
C3461 C 0.78849 0.30909 0.92105 0.0
C3462 C 0.7962 0.31127 0.93458 0.0
C3463 C 0.82269 0.31957 0.97199 0.0
C3464 C 0.81275 0.31631 0.95952 0.0
H3465 H 0.79338 0.29664 0.89011 0.0
H3466 H 0.80557 0.29962 0.91248 0.0
H3467 H 0.79301 0.33364 0.93788 0.0
H3468 H 0.82451 0.33596 1.00265 0.0
H3469 H 0.80715 0.32913 0.98274 0.0
C3470 C 0.73454 0.66245 0.90861 0.0
C3471 C 0.72749 0.66897 0.89832 0.0
C3472 C 0.73955 0.67027 0.92072 0.0
C3473 C 0.73536 0.70324 0.94111 0.0
H3474 H 0.77092 0.69674 0.96113 0.0
C3475 C 0.76684 0.7397 0.98751 0.0
C3476 C 0.77086 0.73158 0.99836 0.0
C3477 C 0.76051 0.73214 0.9755 0.0
C3478 C 0.76089 0.69859 0.95571 0.0
H3479 H 0.72045 0.689 0.89262 0.0
H3480 H 0.72972 0.70294 0.91347 0.0
H3481 H 0.76281 0.68401 0.93969 0.0
H3482 H 0.77086 0.70897 1.00512 0.0
H3483 H 0.76003 0.69593 0.98421 0.0
H3484 H 0.73392 0.71829 0.9571 0.0
C3485 C 0.73099 0.69156 0.91242 0.0
C3486 C 0.75615 0.69121 0.94338 0.0
C3487 C 0.72576 0.68362 0.90038 0.0
C3488 C 0.76788 0.71564 0.99703 0.0
C3489 C 0.76178 0.70815 0.98499 0.0
C3490 C 0.74029 0.71082 0.95336 0.0
C3491 C 0.73788 0.68498 0.92285 0.0
C3492 C 0.74321 0.69329 0.9359 0.0
C3493 C 0.75828 0.71633 0.97399 0.0
C3494 C 0.75303 0.70847 0.96087 0.0
H3495 H 0.7358 0.65107 0.90745 0.0
H3496 H 0.74443 0.66456 0.9285 0.0
H3497 H 0.7252 0.70501 0.93585 0.0
H3498 H 0.76902 0.75197 0.98814 0.0
H3499 H 0.75796 0.73878 0.96721 0.0
C3500 C 0.37319 0.7011 0.91788 0.0
C3501 C 0.35991 0.6884 0.91731 0.0
C3502 C 0.37327 0.7143 0.92492 0.0
C3503 C 0.36838 0.74376 0.93474 0.0
H3504 H 0.34807 0.73988 0.96831 0.0
C3505 C 0.35239 0.78494 0.97675 0.0
C3506 C 0.36709 0.79563 0.97909 0.0
C3507 C 0.35074 0.77197 0.9688 0.0
C3508 C 0.35364 0.74115 0.95888 0.0
H3509 H 0.33616 0.6797 0.9234 0.0
H3510 H 0.33613 0.70288 0.93547 0.0
H3511 H 0.34667 0.71703 0.95522 0.0
H3512 H 0.3916 0.80075 0.97482 0.0
H3513 H 0.38859 0.77839 0.96081 0.0
H3514 H 0.37572 0.76787 0.93866 0.0
C3515 C 0.34664 0.70253 0.93074 0.0
C3516 C 0.35282 0.72806 0.95134 0.0
C3517 C 0.34662 0.68926 0.9238 0.0
C3518 C 0.38004 0.79302 0.97314 0.0
C3519 C 0.37835 0.78014 0.96509 0.0
C3520 C 0.36933 0.75682 0.94234 0.0
C3521 C 0.36 0.7152 0.93146 0.0
C3522 C 0.36028 0.72918 0.93922 0.0
C3523 C 0.3637 0.76945 0.96287 0.0
C3524 C 0.36207 0.75564 0.95453 0.0
H3525 H 0.38369 0.70069 0.91315 0.0
H3526 H 0.38388 0.72367 0.92546 0.0
H3527 H 0.37399 0.74512 0.92534 0.0
H3528 H 0.34208 0.7866 0.98093 0.0
H3529 H 0.33927 0.76398 0.96714 0.0
C3530 C 0.37312 0.2964 0.89623 0.0
C3531 C 0.37888 0.31241 0.89541 0.0
C3532 C 0.36894 0.28936 0.90844 0.0
C3533 C 0.37573 0.29655 0.94493 0.0
H3534 H 0.34119 0.25985 0.94711 0.0
C3535 C 0.36428 0.26197 0.99366 0.0
C3536 C 0.34867 0.25597 0.99705 0.0
C3537 C 0.36791 0.26833 0.9811 0.0
C3538 C 0.35081 0.27016 0.94674 0.0
H3539 H 0.38443 0.3335 0.90693 0.0
H3540 H 0.37663 0.32129 0.92803 0.0
H3541 H 0.34679 0.27235 0.92577 0.0
H3542 H 0.32466 0.25148 0.98949 0.0
H3543 H 0.33095 0.26288 0.96792 0.0
H3544 H 0.37948 0.29462 0.96595 0.0
C3545 C 0.37564 0.31413 0.91928 0.0
C3546 C 0.35415 0.27725 0.93442 0.0
C3547 C 0.37988 0.32117 0.90709 0.0
C3548 C 0.33682 0.2562 0.98741 0.0
C3549 C 0.34044 0.26259 0.97489 0.0
C3550 C 0.37236 0.28949 0.95725 0.0
C3551 C 0.37034 0.29811 0.92018 0.0
C3552 C 0.36665 0.29057 0.93333 0.0
C3553 C 0.35604 0.26887 0.97157 0.0
C3554 C 0.35984 0.2762 0.95835 0.0
H3555 H 0.37204 0.28927 0.88745 0.0
H3556 H 0.36503 0.277 0.9087 0.0
H3557 H 0.3856 0.30664 0.94451 0.0
H3558 H 0.37373 0.26208 1.00079 0.0
H3559 H 0.38006 0.27282 0.97886 0.0
C3560 C 0.63104 0.6488 0.22011 0.0
C3561 C 0.63745 0.65954 0.21042 0.0
C3562 C 0.62169 0.6523 0.22976 0.0
C3563 C 0.60987 0.68438 0.24497 0.0
H3564 H 0.57029 0.65381 0.24894 0.0
C3565 C 0.55668 0.69959 0.26521 0.0
C3566 C 0.54633 0.68892 0.27304 0.0
C3567 C 0.56886 0.6958 0.25913 0.0
C3568 C 0.58137 0.66242 0.24816 0.0
H3569 H 0.63975 0.6825 0.20352 0.0
H3570 H 0.62376 0.68873 0.22039 0.0
H3571 H 0.5903 0.64765 0.23629 0.0
H3572 H 0.54109 0.66595 0.28083 0.0
H3573 H 0.56237 0.65938 0.27032 0.0
H3574 H 0.60088 0.69922 0.25669 0.0
C3575 C 0.62591 0.67764 0.22067 0.0
C3576 C 0.59289 0.65886 0.24089 0.0
C3577 C 0.63508 0.67409 0.21099 0.0
C3578 C 0.54866 0.6744 0.27473 0.0
C3579 C 0.56089 0.67062 0.26868 0.0
C3580 C 0.59838 0.68792 0.25228 0.0
C3581 C 0.6187 0.66665 0.22995 0.0
C3582 C 0.60719 0.66988 0.239 0.0
C3583 C 0.57113 0.68124 0.26072 0.0
C3584 C 0.58384 0.67709 0.25379 0.0
H3585 H 0.63253 0.63744 0.21975 0.0
H3586 H 0.61645 0.64362 0.23684 0.0
H3587 H 0.62082 0.69308 0.24389 0.0
H3588 H 0.55515 0.71078 0.26346 0.0
H3589 H 0.57628 0.70421 0.25289 0.0
C3590 C 0.31625 0.66163 0.18945 0.0
C3591 C 0.32664 0.67188 0.19836 0.0
C3592 C 0.30889 0.64669 0.19334 0.0
C3593 C 0.29829 0.62271 0.22294 0.0
H3594 H 0.30089 0.58941 0.20014 0.0
C3595 C 0.29356 0.56279 0.24284 0.0
C3596 C 0.2867 0.5499 0.23471 0.0
C3597 C 0.29556 0.57749 0.23795 0.0
C3598 C 0.29975 0.59854 0.20652 0.0
H3599 H 0.3371 0.67475 0.2184 0.0
H3600 H 0.32429 0.64872 0.22518 0.0
H3601 H 0.30966 0.61564 0.19231 0.0
H3602 H 0.27595 0.54242 0.21521 0.0
H3603 H 0.27939 0.5682 0.20664 0.0
H3604 H 0.28862 0.60571 0.23724 0.0
C3605 C 0.3218 0.65219 0.21521 0.0
C3606 C 0.30481 0.61357 0.20204 0.0
C3607 C 0.32926 0.66704 0.21129 0.0
C3608 C 0.28146 0.5521 0.22166 0.0
C3609 C 0.28344 0.56687 0.21676 0.0
C3610 C 0.29315 0.6077 0.2274 0.0
C3611 C 0.31163 0.64182 0.20626 0.0
C3612 C 0.3045 0.62583 0.21034 0.0
C3613 C 0.29072 0.57973 0.2248 0.0
C3614 C 0.29419 0.59545 0.21938 0.0
H3615 H 0.31408 0.66507 0.17941 0.0
H3616 H 0.30106 0.63895 0.18626 0.0
H3617 H 0.29766 0.63193 0.22946 0.0
H3618 H 0.29802 0.5616 0.25284 0.0
H3619 H 0.30149 0.58711 0.24435 0.0
C3620 C 0.41634 0.3151 0.2243 0.0
C3621 C 0.41704 0.321 0.21132 0.0
C3622 C 0.42801 0.30903 0.22961 0.0
C3623 C 0.46858 0.30704 0.22528 0.0
H3624 H 0.45455 0.26985 0.24548 0.0
C3625 C 0.51099 0.27494 0.25016 0.0
C3626 C 0.50631 0.25907 0.24774 0.0
C3627 C 0.5008 0.28382 0.24681 0.0
C3628 C 0.45871 0.28025 0.23988 0.0
H3629 H 0.43087 0.32522 0.19386 0.0
H3630 H 0.4511 0.3143 0.20305 0.0
H3631 H 0.43572 0.2826 0.23701 0.0
H3632 H 0.4871 0.24012 0.24026 0.0
H3633 H 0.46963 0.25534 0.23463 0.0
H3634 H 0.4916 0.30427 0.22787 0.0
C3635 C 0.44158 0.3146 0.20919 0.0
C3636 C 0.44789 0.28767 0.23511 0.0
C3637 C 0.42987 0.32071 0.20385 0.0
C3638 C 0.49118 0.2523 0.24225 0.0
C3639 C 0.48105 0.26105 0.23908 0.0
C3640 C 0.47947 0.2996 0.23012 0.0
C3641 C 0.44073 0.30854 0.22211 0.0
C3642 C 0.4526 0.30109 0.2276 0.0
C3643 C 0.48568 0.27693 0.24121 0.0
C3644 C 0.47462 0.28595 0.2373 0.0
H3645 H 0.40657 0.31484 0.23033 0.0
H3646 H 0.42699 0.30466 0.23964 0.0
H3647 H 0.47268 0.31744 0.21968 0.0
H3648 H 0.52259 0.28051 0.25431 0.0
H3649 H 0.50471 0.29603 0.24863 0.0
C3650 C 0.72785 0.3844 0.15851 0.0
C3651 C 0.72524 0.36989 0.16424 0.0
C3652 C 0.73612 0.39751 0.16569 0.0
C3653 C 0.76287 0.41135 0.19502 0.0
H3654 H 0.74213 0.44323 0.19627 0.0
C3655 C 0.77264 0.45462 0.23825 0.0
C3656 C 0.77029 0.46903 0.23597 0.0
C3657 C 0.77058 0.44402 0.22785 0.0
C3658 C 0.74834 0.43467 0.19583 0.0
H3659 H 0.72978 0.35766 0.18175 0.0
H3660 H 0.74415 0.38058 0.19435 0.0
H3661 H 0.73199 0.42169 0.18108 0.0
H3662 H 0.76533 0.48409 0.22077 0.0
H3663 H 0.76216 0.46574 0.20254 0.0
H3664 H 0.77909 0.42421 0.20996 0.0
C3665 C 0.73986 0.38182 0.18428 0.0
C3666 C 0.74246 0.42226 0.18713 0.0
C3667 C 0.7315 0.36872 0.17714 0.0
C3668 C 0.76704 0.47302 0.22288 0.0
C3669 C 0.76511 0.46245 0.21245 0.0
C3670 C 0.76884 0.42384 0.20367 0.0
C3671 C 0.74204 0.39637 0.17872 0.0
C3672 C 0.74944 0.41031 0.18685 0.0
C3673 C 0.76627 0.44762 0.21489 0.0
C3674 C 0.76143 0.43548 0.20441 0.0
H3675 H 0.72308 0.38567 0.14862 0.0
H3676 H 0.7377 0.40857 0.16112 0.0
H3677 H 0.76861 0.40239 0.19488 0.0
H3678 H 0.7752 0.45117 0.2482 0.0
H3679 H 0.77146 0.4327 0.23017 0.0
C3680 C 0.70663 0.31693 0.83071 0.0
C3681 C 0.71109 0.32966 0.83935 0.0
C3682 C 0.69141 0.31179 0.82531 0.0
C3683 C 0.65474 0.32183 0.81857 0.0
H3684 H 0.63633 0.27811 0.82163 0.0
C3685 C 0.59451 0.28756 0.79422 0.0
C3686 C 0.58528 0.27593 0.80198 0.0
C3687 C 0.6096 0.29569 0.79879 0.0
C3688 C 0.64125 0.29035 0.82078 0.0
H3689 H 0.70327 0.34743 0.8486 0.0
H3690 H 0.67652 0.33839 0.8391 0.0
H3691 H 0.66335 0.28946 0.82907 0.0
H3692 H 0.58431 0.26433 0.82092 0.0
H3693 H 0.61046 0.27849 0.82884 0.0
H3694 H 0.63241 0.32259 0.81032 0.0
C3695 C 0.68488 0.33245 0.83651 0.0
C3696 C 0.6568 0.29683 0.8249 0.0
C3697 C 0.70017 0.33761 0.84195 0.0
C3698 C 0.59117 0.27308 0.81461 0.0
C3699 C 0.60618 0.28116 0.81915 0.0
C3700 C 0.63913 0.31528 0.81433 0.0
C3701 C 0.68027 0.31926 0.82839 0.0
C3702 C 0.66373 0.31262 0.82384 0.0
C3703 C 0.6157 0.29229 0.81117 0.0
C3704 C 0.63223 0.29948 0.81548 0.0
H3705 H 0.71487 0.31078 0.82826 0.0
H3706 H 0.68828 0.30178 0.81886 0.0
H3707 H 0.65982 0.33403 0.8176 0.0
H3708 H 0.59028 0.29004 0.78445 0.0
H3709 H 0.61671 0.30418 0.79242 0.0
C3710 C 0.73144 0.63057 0.84767 0.0
C3711 C 0.73312 0.63334 0.86152 0.0
C3712 C 0.73879 0.62082 0.84165 0.0
C3713 C 0.75744 0.58985 0.84978 0.0
H3714 H 0.77288 0.59756 0.81431 0.0
C3715 C 0.80138 0.56157 0.82881 0.0
C3716 C 0.79951 0.5565 0.81548 0.0
C3717 C 0.79167 0.56953 0.83392 0.0
C3718 C 0.76841 0.59512 0.82414 0.0
H3719 H 0.74433 0.62809 0.87976 0.0
H3720 H 0.75765 0.6117 0.86924 0.0
H3721 H 0.76016 0.61497 0.82427 0.0
H3722 H 0.78576 0.55563 0.79708 0.0
H3723 H 0.76876 0.56991 0.80601 0.0
H3724 H 0.76619 0.57029 0.84977 0.0
C3725 C 0.75027 0.61674 0.86304 0.0
C3726 C 0.76111 0.60512 0.8299 0.0
C3727 C 0.74281 0.62641 0.86908 0.0
C3728 C 0.78737 0.55927 0.80742 0.0
C3729 C 0.77777 0.56755 0.8125 0.0
C3730 C 0.76486 0.57996 0.84407 0.0
C3731 C 0.7482 0.6136 0.84924 0.0
C3732 C 0.75566 0.60274 0.84288 0.0
C3733 C 0.77992 0.5729 0.8258 0.0
C3734 C 0.7706 0.58255 0.83124 0.0
H3735 H 0.72429 0.63586 0.84144 0.0
H3736 H 0.73676 0.61869 0.83104 0.0
H3737 H 0.75307 0.58732 0.85962 0.0
H3738 H 0.81063 0.55963 0.83528 0.0
H3739 H 0.79379 0.57356 0.84414 0.0
C3740 C 0.40558 0.69869 0.84783 0.0
C3741 C 0.40653 0.68973 0.859 0.0
C3742 C 0.4184 0.71069 0.84451 0.0
C3743 C 0.45836 0.73377 0.85691 0.0
H3744 H 0.465 0.73807 0.81914 0.0
C3745 C 0.51783 0.75575 0.83256 0.0
C3746 C 0.51824 0.76394 0.82066 0.0
C3747 C 0.50398 0.75073 0.83926 0.0
C3748 C 0.4632 0.73724 0.82972 0.0
H3749 H 0.42139 0.68628 0.87558 0.0
H3750 H 0.44408 0.70672 0.86947 0.0
H3751 H 0.44101 0.72092 0.82655 0.0
H3752 H 0.50495 0.7749 0.80739 0.0
H3753 H 0.48085 0.76606 0.81904 0.0
H3754 H 0.48123 0.74946 0.8599 0.0
C3755 C 0.43334 0.70493 0.86348 0.0
C3756 C 0.44937 0.72741 0.83401 0.0
C3757 C 0.4204 0.69313 0.86695 0.0
C3758 C 0.50501 0.76842 0.81642 0.0
C3759 C 0.49117 0.76333 0.82306 0.0
C3760 C 0.47236 0.74346 0.85259 0.0
C3761 C 0.43259 0.71376 0.8521 0.0
C3762 C 0.44681 0.72535 0.84766 0.0
C3763 C 0.49032 0.7538 0.83414 0.0
C3764 C 0.47495 0.74515 0.83895 0.0
H3765 H 0.39491 0.69636 0.84166 0.0
H3766 H 0.4172 0.71744 0.83588 0.0
H3767 H 0.45672 0.73273 0.8675 0.0
H3768 H 0.52784 0.7522 0.83616 0.0
H3769 H 0.50365 0.74341 0.84779 0.0
C3770 C 0.35638 0.37945 0.8461 0.0
C3771 C 0.37271 0.38557 0.84687 0.0
C3772 C 0.34694 0.38709 0.83905 0.0
C3773 C 0.34788 0.42618 0.82928 0.0
H3774 H 0.31164 0.40748 0.80615 0.0
C3775 C 0.30482 0.45947 0.81143 0.0
C3776 C 0.30042 0.45855 0.79778 0.0
C3777 C 0.31281 0.44966 0.81707 0.0
C3778 C 0.32175 0.41286 0.81257 0.0
H3779 H 0.39188 0.4038 0.83986 0.0
H3780 H 0.37553 0.41705 0.82775 0.0
H3781 H 0.3272 0.39164 0.81608 0.0
H3782 H 0.30062 0.44618 0.77947 0.0
H3783 H 0.31454 0.42893 0.78936 0.0
H3784 H 0.34253 0.44733 0.82588 0.0
C3785 C 0.36997 0.40656 0.8328 0.0
C3786 C 0.33059 0.40377 0.81832 0.0
C3787 C 0.37935 0.39893 0.83974 0.0
C3788 C 0.30394 0.44728 0.78998 0.0
C3789 C 0.3118 0.43732 0.79567 0.0
C3790 C 0.33897 0.43518 0.8237 0.0
C3791 C 0.35364 0.40102 0.83269 0.0
C3792 C 0.34385 0.41036 0.82667 0.0
C3793 C 0.31652 0.43852 0.80926 0.0
C3794 C 0.32582 0.42868 0.81523 0.0
H3795 H 0.35089 0.36922 0.85152 0.0
H3796 H 0.33439 0.3825 0.83915 0.0
H3797 H 0.35791 0.43161 0.83578 0.0
H3798 H 0.30246 0.46807 0.81773 0.0
H3799 H 0.31615 0.45082 0.82759 0.0
C3800 C 0.70004 0.60149 0.19429 0.0
C3801 C 0.69898 0.61476 0.20076 0.0
C3802 C 0.70275 0.58936 0.20161 0.0
C3803 C 0.72105 0.58 0.23203 0.0
H3804 H 0.69337 0.53909 0.22655 0.0
C3805 C 0.73084 0.52861 0.26178 0.0
C3806 C 0.72666 0.51422 0.25546 0.0
C3807 C 0.72682 0.54098 0.25585 0.0
C3808 C 0.70143 0.55035 0.22809 0.0
H3809 H 0.7 0.62584 0.21991 0.0
H3810 H 0.7053 0.60473 0.23277 0.0
H3811 H 0.68788 0.5604 0.21468 0.0
H3812 H 0.71539 0.50161 0.2378 0.0
H3813 H 0.70897 0.52312 0.22718 0.0
H3814 H 0.73509 0.57004 0.24489 0.0
C3815 C 0.70383 0.6037 0.22203 0.0
C3816 C 0.69816 0.5626 0.22133 0.0
C3817 C 0.70075 0.61571 0.21471 0.0
C3818 C 0.71849 0.51249 0.24304 0.0
C3819 C 0.71475 0.52489 0.23698 0.0
C3820 C 0.72454 0.56771 0.23859 0.0
C3821 C 0.70478 0.59037 0.21555 0.0
C3822 C 0.70795 0.57753 0.2232 0.0
C3823 C 0.71879 0.53936 0.24329 0.0
C3824 C 0.71482 0.55264 0.23667 0.0
H3825 H 0.69864 0.60044 0.18355 0.0
H3826 H 0.7035 0.57926 0.19636 0.0
H3827 H 0.72888 0.59139 0.23356 0.0
H3828 H 0.73706 0.53023 0.2714 0.0
H3829 H 0.72992 0.55177 0.26121 0.0
C3830 C 0.75561 0.38089 0.85904 0.0
C3831 C 0.76076 0.36934 0.85325 0.0
C3832 C 0.76486 0.39608 0.85903 0.0
C3833 C 0.80516 0.42032 0.85197 0.0
H3834 H 0.78422 0.45186 0.84693 0.0
C3835 C 0.82991 0.47861 0.82683 0.0
C3836 C 0.82872 0.49162 0.8336 0.0
C3837 C 0.82342 0.46407 0.83191 0.0
C3838 C 0.79021 0.44318 0.84854 0.0
H3839 H 0.7794 0.36445 0.84281 0.0
H3840 H 0.79519 0.39093 0.84211 0.0
H3841 H 0.76887 0.42559 0.8503 0.0
H3842 H 0.82018 0.49986 0.85101 0.0
H3843 H 0.80824 0.4742 0.85976 0.0
H3844 H 0.82642 0.43798 0.84917 0.0
C3845 C 0.78438 0.38838 0.84718 0.0
C3846 C 0.78144 0.4281 0.85054 0.0
C3847 C 0.77527 0.37318 0.84745 0.0
C3848 C 0.82137 0.48994 0.84576 0.0
C3849 C 0.81451 0.47534 0.85068 0.0
C3850 C 0.81388 0.43536 0.84968 0.0
C3851 C 0.77931 0.40008 0.85295 0.0
C3852 C 0.78877 0.41638 0.85206 0.0
C3853 C 0.8153 0.4623 0.84368 0.0
C3854 C 0.80644 0.44685 0.84778 0.0
H3855 H 0.74448 0.37813 0.86367 0.0
H3856 H 0.76066 0.40465 0.86381 0.0
H3857 H 0.81131 0.41177 0.85346 0.0
H3858 H 0.83547 0.47973 0.8174 0.0
H3859 H 0.82404 0.45417 0.82628 0.0
C3860 C 0.63541 0.66195 0.85909 0.0
C3861 C 0.65035 0.66327 0.85455 0.0
C3862 C 0.62598 0.67022 0.8532 0.0
C3863 C 0.62462 0.70288 0.83213 0.0
H3864 H 0.58302 0.67739 0.82215 0.0
C3865 C 0.57992 0.72543 0.80019 0.0
C3866 C 0.56409 0.71981 0.80304 0.0
C3867 C 0.59111 0.71924 0.80635 0.0
C3868 C 0.59448 0.68479 0.82503 0.0
H3869 H 0.6675 0.67521 0.84084 0.0
H3870 H 0.65101 0.68999 0.83061 0.0
H3871 H 0.60151 0.66621 0.83364 0.0
H3872 H 0.54776 0.70366 0.81499 0.0
H3873 H 0.56714 0.69315 0.82591 0.0
H3874 H 0.61745 0.72157 0.82373 0.0
C3875 C 0.64661 0.68238 0.83871 0.0
C3876 C 0.60513 0.67833 0.83159 0.0
C3877 C 0.65607 0.67397 0.84459 0.0
C3878 C 0.55978 0.70803 0.81234 0.0
C3879 C 0.57095 0.70198 0.81859 0.0
C3880 C 0.61386 0.70943 0.82567 0.0
C3881 C 0.63125 0.68017 0.84265 0.0
C3882 C 0.62028 0.68729 0.83533 0.0
C3883 C 0.58678 0.70737 0.81562 0.0
C3884 C 0.59857 0.70049 0.82213 0.0
H3885 H 0.63076 0.65404 0.86693 0.0
H3886 H 0.61435 0.66853 0.85667 0.0
H3887 H 0.6362 0.71008 0.83491 0.0
H3888 H 0.5836 0.73442 0.793 0.0
H3889 H 0.60312 0.7236 0.80365 0.0
C3890 C 0.3692 0.62404 0.8501 0.0
C3891 C 0.37002 0.63895 0.846 0.0
C3892 C 0.36507 0.6119 0.84095 0.0
C3893 C 0.34344 0.59891 0.80964 0.0
H3894 H 0.3685 0.5706 0.80868 0.0
C3895 C 0.3257 0.54651 0.77435 0.0
C3896 C 0.32714 0.53272 0.77973 0.0
C3897 C 0.33281 0.56043 0.78089 0.0
C3898 C 0.36126 0.57828 0.80888 0.0
H3899 H 0.36695 0.65286 0.82918 0.0
H3900 H 0.35934 0.63148 0.81318 0.0
H3901 H 0.3766 0.59285 0.82349 0.0
H3902 H 0.33777 0.52286 0.79593 0.0
H3903 H 0.34971 0.5469 0.80748 0.0
H3904 H 0.32769 0.58409 0.79556 0.0
C3905 C 0.36204 0.62926 0.82347 0.0
C3906 C 0.36596 0.59106 0.81735 0.0
C3907 C 0.36643 0.64147 0.83259 0.0
C3908 C 0.33645 0.53325 0.79146 0.0
C3909 C 0.3434 0.54713 0.79807 0.0
C3910 C 0.3386 0.586 0.80132 0.0
C3911 C 0.36146 0.61438 0.82754 0.0
C3912 C 0.35699 0.60139 0.81793 0.0
C3913 C 0.34139 0.56089 0.79305 0.0
C3914 C 0.34733 0.57538 0.80095 0.0
H3915 H 0.37205 0.62181 0.86035 0.0
H3916 H 0.36458 0.60052 0.84438 0.0
H3917 H 0.33626 0.60665 0.80997 0.0
H3918 H 0.31868 0.54651 0.76528 0.0
H3919 H 0.33129 0.57081 0.77654 0.0
C3920 C 0.41468 0.31612 0.84315 0.0
C3921 C 0.41322 0.31494 0.85702 0.0
C3922 C 0.42555 0.31035 0.83687 0.0
C3923 C 0.46149 0.29812 0.84425 0.0
H3924 H 0.45105 0.27731 0.81006 0.0
C3925 C 0.4977 0.26089 0.8235 0.0
C3926 C 0.50104 0.26225 0.80996 0.0
C3927 C 0.48722 0.26793 0.82873 0.0
C3928 C 0.45421 0.28323 0.81955 0.0
H3929 H 0.42253 0.3071 0.87512 0.0
H3930 H 0.44085 0.29664 0.86423 0.0
H3931 H 0.43239 0.28851 0.82003 0.0
H3932 H 0.4957 0.27193 0.79126 0.0
H3933 H 0.47735 0.28421 0.80039 0.0
H3934 H 0.48316 0.29259 0.84389 0.0
C3935 C 0.43378 0.30217 0.85815 0.0
C3936 C 0.44351 0.28969 0.82527 0.0
C3937 C 0.42301 0.30796 0.8644 0.0
C3938 C 0.49352 0.27076 0.80175 0.0
C3939 C 0.48289 0.27768 0.80696 0.0
C3940 C 0.4721 0.29158 0.83859 0.0
C3941 C 0.43528 0.30331 0.8443 0.0
C3942 C 0.44694 0.29709 0.83778 0.0
C3943 C 0.47967 0.27642 0.82054 0.0
C3944 C 0.46855 0.28391 0.82623 0.0
H3945 H 0.40733 0.32138 0.83713 0.0
H3946 H 0.42645 0.3116 0.82621 0.0
H3947 H 0.46476 0.30403 0.85372 0.0
H3948 H 0.50337 0.25456 0.83014 0.0
H3949 H 0.48491 0.26658 0.8392 0.0
C3950 C 0.36868 0.38464 0.24751 0.0
C3951 C 0.36579 0.3793 0.23428 0.0
C3952 C 0.36614 0.39844 0.25124 0.0
C3953 C 0.35842 0.43425 0.23876 0.0
H3954 H 0.33721 0.43181 0.27177 0.0
C3955 C 0.32713 0.47883 0.25487 0.0
C3956 C 0.32708 0.48214 0.26853 0.0
C3957 C 0.33371 0.46758 0.25047 0.0
C3958 C 0.34336 0.43285 0.26264 0.0
H3959 H 0.35871 0.38464 0.21444 0.0
H3960 H 0.35411 0.40885 0.22095 0.0
H3961 H 0.34546 0.41018 0.26435 0.0
H3962 H 0.33467 0.47662 0.28821 0.0
H3963 H 0.34636 0.45726 0.28057 0.0
H3964 H 0.35607 0.45694 0.23702 0.0
C3965 C 0.35849 0.40239 0.22845 0.0
C3966 C 0.34811 0.42038 0.25836 0.0
C3967 C 0.36115 0.38854 0.22468 0.0
C3968 C 0.3344 0.47435 0.27763 0.0
C3969 C 0.341 0.46313 0.27323 0.0
C3970 C 0.35366 0.44678 0.24307 0.0
C3971 C 0.36048 0.40727 0.24188 0.0
C3972 C 0.35574 0.42087 0.24637 0.0
C3973 C 0.34044 0.45932 0.25962 0.0
C3974 C 0.34606 0.44626 0.25509 0.0
H3975 H 0.3724 0.37781 0.2551 0.0
H3976 H 0.36823 0.40199 0.2616 0.0
H3977 H 0.36436 0.4351 0.22953 0.0
H3978 H 0.32158 0.48455 0.24755 0.0
H3979 H 0.33293 0.46493 0.23993 0.0
C3980 C 0.67582 0.30657 0.16098 0.0
C3981 C 0.68019 0.32247 0.16324 0.0
C3982 C 0.66326 0.29696 0.16746 0.0
C3983 C 0.64043 0.2954 0.19717 0.0
H3984 H 0.6085 0.2639 0.17792 0.0
C3985 C 0.58248 0.26569 0.22046 0.0
C3986 C 0.57581 0.24996 0.21816 0.0
C3987 C 0.5953 0.27382 0.21351 0.0
C3988 C 0.61743 0.27249 0.18349 0.0
H3989 H 0.67434 0.34071 0.17374 0.0
H3990 H 0.65277 0.32398 0.18515 0.0
H3991 H 0.63094 0.27922 0.16629 0.0
H3992 H 0.57733 0.23045 0.20665 0.0
H3993 H 0.59993 0.24462 0.19458 0.0
H3994 H 0.62712 0.28872 0.21437 0.0
C3995 C 0.65918 0.31892 0.17853 0.0
C3996 C 0.63026 0.28127 0.17682 0.0
C3997 C 0.6716 0.32851 0.17201 0.0
C3998 C 0.58214 0.24259 0.20857 0.0
C3999 C 0.59508 0.25072 0.20165 0.0
C4000 C 0.62769 0.28658 0.20385 0.0
C4001 C 0.6549 0.30304 0.17639 0.0
C4002 C 0.64177 0.29298 0.18355 0.0
C4003 C 0.6019 0.26643 0.20412 0.0
C4004 C 0.61588 0.27517 0.19707 0.0
H4005 H 0.68225 0.30152 0.15439 0.0
H4006 H 0.66029 0.28475 0.16567 0.0
H4007 H 0.64926 0.30414 0.2027 0.0
H4008 H 0.57768 0.27179 0.22757 0.0
H4009 H 0.59997 0.28597 0.21545 0.0
C4010 C 0.38176 0.72877 0.20374 0.0
C4011 C 0.37593 0.71454 0.19723 0.0
C4012 C 0.39733 0.73374 0.20846 0.0
C4013 C 0.43596 0.72661 0.20651 0.0
H4014 H 0.44098 0.73844 0.2438 0.0
C4015 C 0.48559 0.71837 0.24118 0.0
C4016 C 0.49074 0.72798 0.25237 0.0
C4017 C 0.47374 0.7204 0.23249 0.0
C4018 C 0.43996 0.73554 0.2333 0.0
H4019 H 0.382 0.69478 0.18987 0.0
H4020 H 0.40913 0.70339 0.19817 0.0
H4021 H 0.416 0.73532 0.23196 0.0
H4022 H 0.48841 0.74808 0.26256 0.0
H4023 H 0.46796 0.75184 0.24721 0.0
H4024 H 0.45984 0.72644 0.20796 0.0
C4025 C 0.40172 0.71074 0.19961 0.0
C4026 C 0.42558 0.73372 0.22651 0.0
C4027 C 0.38615 0.70573 0.19497 0.0
C4028 C 0.48459 0.74037 0.25411 0.0
C4029 C 0.47279 0.74246 0.24536 0.0
C4030 C 0.4504 0.72853 0.21329 0.0
C4031 C 0.4074 0.72463 0.20667 0.0
C4032 C 0.42329 0.72881 0.21315 0.0
C4033 C 0.46683 0.73217 0.23472 0.0
C4034 C 0.45244 0.73259 0.22688 0.0
H4035 H 0.37413 0.73577 0.20567 0.0
H4036 H 0.40141 0.74455 0.21379 0.0
H4037 H 0.4346 0.72303 0.19616 0.0
H4038 H 0.49011 0.70874 0.2395 0.0
H4039 H 0.46939 0.71216 0.22449 0.0
loop_
_geom_bond_atom_site_label_1
_geom_bond_atom_site_label_2
_geom_bond_distance
_geom_bond_site_symmetry_2
_ccdc_geom_bond_type
H0 C1 0.949 . S
C1 H0 0.949 . S
C1 C2 1.395 . S
C1 C3 1.391 . S
C2 C1 1.395 . S
C2 C5 1.390 . S
C3 C1 1.391 . S
C3 C7 1.387 . S
C3 C8 1.491 . S
H4 C5 0.950 . S
C5 C2 1.390 . S
C5 H4 0.950 . S
C5 C6 1.378 . S
C6 C5 1.378 . S
C6 C7 1.409 . S
C7 C3 1.387 . S
C7 C6 1.409 . S
C7 H9 0.951 . S
C8 C3 1.491 . S
C8 C10 1.382 . S
C8 C12 1.404 . S
H9 C7 0.951 . S
C10 C8 1.382 . S
C10 C11 1.390 . S
C10 H15 0.949 . S
C11 C10 1.390 . S
C11 C16 1.399 . S
C12 C8 1.404 . S
C12 H13 0.950 . S
C12 C14 1.375 . S
H13 C12 0.950 . S
C14 C12 1.375 . S
C14 C16 1.382 . S
C14 H18 0.950 . S
H15 C10 0.949 . S
C16 C11 1.399 . S
C16 C14 1.382 . S
C16 H17 0.952 . S
H17 C16 0.952 . S
H18 C14 0.950 . S
H19 C20 0.949 . S
C20 H19 0.949 . S
C20 C21 1.395 . S
C20 C22 1.391 . S
C21 C20 1.395 . S
C21 C24 1.390 . S
C22 C20 1.391 . S
C22 C26 1.387 . S
C22 C27 1.491 . S
H23 C24 0.950 . S
C24 C21 1.390 . S
C24 H23 0.950 . S
C24 C25 1.378 . S
C25 C24 1.378 . S
C25 C26 1.409 . S
C26 C22 1.387 . S
C26 C25 1.409 . S
C26 H28 0.951 . S
C27 C22 1.491 . S
C27 C29 1.382 . S
C27 C31 1.404 . S
H28 C26 0.951 . S
C29 C27 1.382 . S
C29 C30 1.390 . S
C29 H34 0.949 . S
C30 C29 1.390 . S
C30 C35 1.399 . S
C31 C27 1.404 . S
C31 H32 0.950 . S
C31 C33 1.375 . S
H32 C31 0.950 . S
C33 C31 1.375 . S
C33 C35 1.382 . S
C33 H37 0.950 . S
H34 C29 0.949 . S
C35 C30 1.399 . S
C35 C33 1.382 . S
C35 H36 0.952 . S
H36 C35 0.952 . S
H37 C33 0.950 . S
H38 C39 0.949 . S
C39 H38 0.949 . S
C39 C40 1.395 . S
C39 C41 1.391 . S
C40 C39 1.395 . S
C40 C43 1.390 . S
C41 C39 1.391 . S
C41 C45 1.387 . S
C41 C46 1.491 . S
H42 C43 0.950 . S
C43 C40 1.390 . S
C43 H42 0.950 . S
C43 C44 1.378 . S
C44 C43 1.378 . S
C44 C45 1.409 . S
C45 C41 1.387 . S
C45 C44 1.409 . S
C45 H47 0.951 . S
C46 C41 1.491 . S
C46 C48 1.382 . S
C46 C50 1.404 . S
H47 C45 0.951 . S
C48 C46 1.382 . S
C48 C49 1.390 . S
C48 H53 0.949 . S
C49 C48 1.390 . S
C49 C54 1.399 . S
C50 C46 1.404 . S
C50 H51 0.950 . S
C50 C52 1.375 . S
H51 C50 0.950 . S
C52 C50 1.375 . S
C52 C54 1.382 . S
C52 H56 0.950 . S
H53 C48 0.949 . S
C54 C49 1.399 . S
C54 C52 1.382 . S
C54 H55 0.952 . S
H55 C54 0.952 . S
H56 C52 0.950 . S
H57 C58 0.949 . S
C58 H57 0.949 . S
C58 C59 1.395 . S
C58 C60 1.391 . S
C59 C58 1.395 . S
C59 C62 1.390 . S
C60 C58 1.391 . S
C60 C64 1.387 . S
C60 C65 1.491 . S
H61 C62 0.950 . S
C62 C59 1.390 . S
C62 H61 0.950 . S
C62 C63 1.378 . S
C63 C62 1.378 . S
C63 C64 1.409 . S
C64 C60 1.387 . S
C64 C63 1.409 . S
C64 H66 0.951 . S
C65 C60 1.491 . S
C65 C67 1.382 . S
C65 C69 1.404 . S
H66 C64 0.951 . S
C67 C65 1.382 . S
C67 C68 1.390 . S
C67 H72 0.949 . S
C68 C67 1.390 . S
C68 C73 1.399 . S
C69 C65 1.404 . S
C69 H70 0.950 . S
C69 C71 1.375 . S
H70 C69 0.950 . S
C71 C69 1.375 . S
C71 C73 1.382 . S
C71 H75 0.950 . S
H72 C67 0.949 . S
C73 C68 1.399 . S
C73 C71 1.382 . S
C73 H74 0.952 . S
H74 C73 0.952 . S
H75 C71 0.950 . S
H76 C77 0.949 . S
C77 H76 0.949 . S
C77 C78 1.395 . S
C77 C79 1.391 . S
C78 C77 1.395 . S
C78 C81 1.390 . S
C79 C77 1.391 . S
C79 C83 1.387 . S
C79 C84 1.491 . S
H80 C81 0.950 . S
C81 C78 1.390 . S
C81 H80 0.950 . S
C81 C82 1.378 . S
C82 C81 1.378 . S
C82 C83 1.409 . S
C83 C79 1.387 . S
C83 C82 1.409 . S
C83 H85 0.951 . S
C84 C79 1.491 . S
C84 C86 1.382 . S
C84 C88 1.404 . S
H85 C83 0.951 . S
C86 C84 1.382 . S
C86 C87 1.390 . S
C86 H91 0.949 . S
C87 C86 1.390 . S
C87 C92 1.399 . S
C88 C84 1.404 . S
C88 H89 0.950 . S
C88 C90 1.375 . S
H89 C88 0.950 . S
C90 C88 1.375 . S
C90 C92 1.382 . S
C90 H94 0.950 . S
H91 C86 0.949 . S
C92 C87 1.399 . S
C92 C90 1.382 . S
C92 H93 0.952 . S
H93 C92 0.952 . S
H94 C90 0.950 . S
H95 C96 0.949 . S
C96 H95 0.949 . S
C96 C97 1.395 . S
C96 C98 1.391 . S
C97 C96 1.395 . S
C97 C100 1.390 . S
C98 C96 1.391 . S
C98 C102 1.387 . S
C98 C103 1.491 . S
H99 C100 0.950 . S
C100 C97 1.390 . S
C100 H99 0.950 . S
C100 C101 1.378 . S
C101 C100 1.378 . S
C101 C102 1.409 . S
C102 C98 1.387 . S
C102 C101 1.409 . S
C102 H104 0.951 . S
C103 C98 1.491 . S
C103 C105 1.382 . S
C103 C107 1.404 . S
H104 C102 0.951 . S
C105 C103 1.382 . S
C105 C106 1.390 . S
C105 H110 0.949 . S
C106 C105 1.390 . S
C106 C111 1.399 . S
C107 C103 1.404 . S
C107 H108 0.950 . S
C107 C109 1.375 . S
H108 C107 0.950 . S
C109 C107 1.375 . S
C109 C111 1.382 . S
C109 H113 0.950 . S
H110 C105 0.949 . S
C111 C106 1.399 . S
C111 C109 1.382 . S
C111 H112 0.952 . S
H112 C111 0.952 . S
H113 C109 0.950 . S
H114 C115 0.949 . S
C115 H114 0.949 . S
C115 C116 1.395 . S
C115 C117 1.391 . S
C116 C115 1.395 . S
C116 C119 1.390 . S
C117 C115 1.391 . S
C117 C121 1.387 . S
C117 C122 1.491 . S
H118 C119 0.950 . S
C119 C116 1.390 . S
C119 H118 0.950 . S
C119 C120 1.378 . S
C120 C119 1.378 . S
C120 C121 1.409 . S
C121 C117 1.387 . S
C121 C120 1.409 . S
C121 H123 0.951 . S
C122 C117 1.491 . S
C122 C124 1.382 . S
C122 C126 1.404 . S
H123 C121 0.951 . S
C124 C122 1.382 . S
C124 C125 1.390 . S
C124 H129 0.949 . S
C125 C124 1.390 . S
C125 C130 1.399 . S
C126 C122 1.404 . S
C126 H127 0.950 . S
C126 C128 1.375 . S
H127 C126 0.950 . S
C128 C126 1.375 . S
C128 C130 1.382 . S
C128 H132 0.950 . S
H129 C124 0.949 . S
C130 C125 1.399 . S
C130 C128 1.382 . S
C130 H131 0.952 . S
H131 C130 0.952 . S
H132 C128 0.950 . S
H133 C134 0.949 . S
C134 H133 0.949 . S
C134 C135 1.395 . S
C134 C136 1.391 . S
C135 C134 1.395 . S
C135 C138 1.390 . S
C136 C134 1.391 . S
C136 C140 1.387 . S
C136 C141 1.491 . S
H137 C138 0.950 . S
C138 C135 1.390 . S
C138 H137 0.950 . S
C138 C139 1.378 . S
C139 C138 1.378 . S
C139 C140 1.409 . S
C140 C136 1.387 . S
C140 C139 1.409 . S
C140 H142 0.951 . S
C141 C136 1.491 . S
C141 C143 1.382 . S
C141 C145 1.404 . S
H142 C140 0.951 . S
C143 C141 1.382 . S
C143 C144 1.390 . S
C143 H148 0.949 . S
C144 C143 1.390 . S
C144 C149 1.399 . S
C145 C141 1.404 . S
C145 H146 0.950 . S
C145 C147 1.375 . S
H146 C145 0.950 . S
C147 C145 1.375 . S
C147 C149 1.382 . S
C147 H151 0.950 . S
H148 C143 0.949 . S
C149 C144 1.399 . S
C149 C147 1.382 . S
C149 H150 0.952 . S
H150 C149 0.952 . S
H151 C147 0.950 . S
H152 C153 0.949 . S
C153 H152 0.949 . S
C153 C154 1.395 . S
C153 C155 1.391 . S
C154 C153 1.395 . S
C154 C157 1.390 . S
C155 C153 1.391 . S
C155 C159 1.387 . S
C155 C160 1.491 . S
H156 C157 0.950 . S
C157 C154 1.390 . S
C157 H156 0.950 . S
C157 C158 1.378 . S
C158 C157 1.378 . S
C158 C159 1.409 . S
C159 C155 1.387 . S
C159 C158 1.409 . S
C159 H161 0.951 . S
C160 C155 1.491 . S
C160 C162 1.382 . S
C160 C164 1.404 . S
H161 C159 0.951 . S
C162 C160 1.382 . S
C162 C163 1.390 . S
C162 H167 0.949 . S
C163 C162 1.390 . S
C163 C168 1.399 . S
C164 C160 1.404 . S
C164 H165 0.950 . S
C164 C166 1.375 . S
H165 C164 0.950 . S
C166 C164 1.375 . S
C166 C168 1.382 . S
C166 H170 0.950 . S
H167 C162 0.949 . S
C168 C163 1.399 . S
C168 C166 1.382 . S
C168 H169 0.952 . S
H169 C168 0.952 . S
H170 C166 0.950 . S
H171 C172 0.949 . S
C172 H171 0.949 . S
C172 C173 1.395 . S
C172 C174 1.391 . S
C173 C172 1.395 . S
C173 C176 1.390 . S
C174 C172 1.391 . S
C174 C178 1.387 . S
C174 C179 1.491 . S
H175 C176 0.950 . S
C176 C173 1.390 . S
C176 H175 0.950 . S
C176 C177 1.378 . S
C177 C176 1.378 . S
C177 C178 1.409 . S
C178 C174 1.387 . S
C178 C177 1.409 . S
C178 H180 0.951 . S
C179 C174 1.491 . S
C179 C181 1.382 . S
C179 C183 1.404 . S
H180 C178 0.951 . S
C181 C179 1.382 . S
C181 C182 1.390 . S
C181 H186 0.949 . S
C182 C181 1.390 . S
C182 C187 1.399 . S
C183 C179 1.404 . S
C183 H184 0.950 . S
C183 C185 1.375 . S
H184 C183 0.950 . S
C185 C183 1.375 . S
C185 C187 1.382 . S
C185 H189 0.950 . S
H186 C181 0.949 . S
C187 C182 1.399 . S
C187 C185 1.382 . S
C187 H188 0.952 . S
H188 C187 0.952 . S
H189 C185 0.950 . S
H190 C191 0.949 . S
C191 H190 0.949 . S
C191 C192 1.395 . S
C191 C193 1.391 . S
C192 C191 1.395 . S
C192 C195 1.390 . S
C193 C191 1.391 . S
C193 C197 1.387 . S
C193 C198 1.491 . S
H194 C195 0.950 . S
C195 C192 1.390 . S
C195 H194 0.950 . S
C195 C196 1.378 . S
C196 C195 1.378 . S
C196 C197 1.409 . S
C197 C193 1.387 . S
C197 C196 1.409 . S
C197 H199 0.951 . S
C198 C193 1.491 . S
C198 C200 1.382 . S
C198 C202 1.404 . S
H199 C197 0.951 . S
C200 C198 1.382 . S
C200 C201 1.390 . S
C200 H205 0.949 . S
C201 C200 1.390 . S
C201 C206 1.399 . S
C202 C198 1.404 . S
C202 H203 0.950 . S
C202 C204 1.375 . S
H203 C202 0.950 . S
C204 C202 1.375 . S
C204 C206 1.382 . S
C204 H208 0.950 . S
H205 C200 0.949 . S
C206 C201 1.399 . S
C206 C204 1.382 . S
C206 H207 0.952 . S
H207 C206 0.952 . S
H208 C204 0.950 . S
H209 C210 0.949 . S
C210 H209 0.949 . S
C210 C211 1.395 . S
C210 C212 1.391 . S
C211 C210 1.395 . S
C211 C214 1.390 . S
C212 C210 1.391 . S
C212 C216 1.387 . S
C212 C217 1.491 . S
H213 C214 0.950 . S
C214 C211 1.390 . S
C214 H213 0.950 . S
C214 C215 1.378 . S
C215 C214 1.378 . S
C215 C216 1.409 . S
C216 C212 1.387 . S
C216 C215 1.409 . S
C216 H218 0.951 . S
C217 C212 1.491 . S
C217 C219 1.382 . S
C217 C221 1.404 . S
H218 C216 0.951 . S
C219 C217 1.382 . S
C219 C220 1.390 . S
C219 H224 0.949 . S
C220 C219 1.390 . S
C220 C225 1.399 . S
C221 C217 1.404 . S
C221 H222 0.950 . S
C221 C223 1.375 . S
H222 C221 0.950 . S
C223 C221 1.375 . S
C223 C225 1.382 . S
C223 H227 0.950 . S
H224 C219 0.949 . S
C225 C220 1.399 . S
C225 C223 1.382 . S
C225 H226 0.952 . S
H226 C225 0.952 . S
H227 C223 0.950 . S
H228 C229 0.949 . S
C229 H228 0.949 . S
C229 C230 1.395 . S
C229 C231 1.391 . S
C230 C229 1.395 . S
C230 C233 1.390 . S
C231 C229 1.391 . S
C231 C235 1.387 . S
C231 C236 1.491 . S
H232 C233 0.950 . S
C233 C230 1.390 . S
C233 H232 0.950 . S
C233 C234 1.378 . S
C234 C233 1.378 . S
C234 C235 1.409 . S
C235 C231 1.387 . S
C235 C234 1.409 . S
C235 H237 0.951 . S
C236 C231 1.491 . S
C236 C238 1.382 . S
C236 C240 1.404 . S
H237 C235 0.951 . S
C238 C236 1.382 . S
C238 C239 1.390 . S
C238 H243 0.949 . S
C239 C238 1.390 . S
C239 C244 1.399 . S
C240 C236 1.404 . S
C240 H241 0.950 . S
C240 C242 1.375 . S
H241 C240 0.950 . S
C242 C240 1.375 . S
C242 C244 1.382 . S
C242 H246 0.950 . S
H243 C238 0.949 . S
C244 C239 1.399 . S
C244 C242 1.382 . S
C244 H245 0.952 . S
H245 C244 0.952 . S
H246 C242 0.950 . S
H247 C248 0.949 . S
C248 H247 0.949 . S
C248 C249 1.395 . S
C248 C250 1.391 . S
C249 C248 1.395 . S
C249 C252 1.390 . S
C250 C248 1.391 . S
C250 C254 1.387 . S
C250 C255 1.491 . S
H251 C252 0.950 . S
C252 C249 1.390 . S
C252 H251 0.950 . S
C252 C253 1.378 . S
C253 C252 1.378 . S
C253 C254 1.409 . S
C254 C250 1.387 . S
C254 C253 1.409 . S
C254 H256 0.951 . S
C255 C250 1.491 . S
C255 C257 1.382 . S
C255 C259 1.404 . S
H256 C254 0.951 . S
C257 C255 1.382 . S
C257 C258 1.390 . S
C257 H262 0.949 . S
C258 C257 1.390 . S
C258 C263 1.399 . S
C259 C255 1.404 . S
C259 H260 0.950 . S
C259 C261 1.375 . S
H260 C259 0.950 . S
C261 C259 1.375 . S
C261 C263 1.382 . S
C261 H265 0.950 . S
H262 C257 0.949 . S
C263 C258 1.399 . S
C263 C261 1.382 . S
C263 H264 0.952 . S
H264 C263 0.952 . S
H265 C261 0.950 . S
H266 C267 0.949 . S
C267 H266 0.949 . S
C267 C268 1.395 . S
C267 C269 1.391 . S
C268 C267 1.395 . S
C268 C271 1.390 . S
C269 C267 1.391 . S
C269 C273 1.387 . S
C269 C274 1.491 . S
H270 C271 0.950 . S
C271 C268 1.390 . S
C271 H270 0.950 . S
C271 C272 1.378 . S
C272 C271 1.378 . S
C272 C273 1.409 . S
C273 C269 1.387 . S
C273 C272 1.409 . S
C273 H275 0.951 . S
C274 C269 1.491 . S
C274 C276 1.382 . S
C274 C278 1.404 . S
H275 C273 0.951 . S
C276 C274 1.382 . S
C276 C277 1.390 . S
C276 H281 0.949 . S
C277 C276 1.390 . S
C277 C282 1.399 . S
C278 C274 1.404 . S
C278 H279 0.950 . S
C278 C280 1.375 . S
H279 C278 0.950 . S
C280 C278 1.375 . S
C280 C282 1.382 . S
C280 H284 0.950 . S
H281 C276 0.949 . S
C282 C277 1.399 . S
C282 C280 1.382 . S
C282 H283 0.952 . S
H283 C282 0.952 . S
H284 C280 0.950 . S
H285 C286 0.949 . S
C286 H285 0.949 . S
C286 C287 1.395 . S
C286 C288 1.391 . S
C287 C286 1.395 . S
C287 C290 1.390 . S
C288 C286 1.391 . S
C288 C292 1.387 . S
C288 C293 1.491 . S
H289 C290 0.950 . S
C290 C287 1.390 . S
C290 H289 0.950 . S
C290 C291 1.378 . S
C291 C290 1.378 . S
C291 C292 1.409 . S
C292 C288 1.387 . S
C292 C291 1.409 . S
C292 H294 0.951 . S
C293 C288 1.491 . S
C293 C295 1.382 . S
C293 C297 1.404 . S
H294 C292 0.951 . S
C295 C293 1.382 . S
C295 C296 1.390 . S
C295 H300 0.949 . S
C296 C295 1.390 . S
C296 C301 1.399 . S
C297 C293 1.404 . S
C297 H298 0.950 . S
C297 C299 1.375 . S
H298 C297 0.950 . S
C299 C297 1.375 . S
C299 C301 1.382 . S
C299 H303 0.950 . S
H300 C295 0.949 . S
C301 C296 1.399 . S
C301 C299 1.382 . S
C301 H302 0.952 . S
H302 C301 0.952 . S
H303 C299 0.950 . S
H304 C305 0.949 . S
C305 H304 0.949 . S
C305 C306 1.395 . S
C305 C307 1.391 . S
C306 C305 1.395 . S
C306 C309 1.390 . S
C307 C305 1.391 . S
C307 C311 1.387 . S
C307 C312 1.491 . S
H308 C309 0.950 . S
C309 C306 1.390 . S
C309 H308 0.950 . S
C309 C310 1.378 . S
C310 C309 1.378 . S
C310 C311 1.409 . S
C311 C307 1.387 . S
C311 C310 1.409 . S
C311 H313 0.951 . S
C312 C307 1.491 . S
C312 C314 1.382 . S
C312 C316 1.404 . S
H313 C311 0.951 . S
C314 C312 1.382 . S
C314 C315 1.390 . S
C314 H319 0.949 . S
C315 C314 1.390 . S
C315 C320 1.399 . S
C316 C312 1.404 . S
C316 H317 0.950 . S
C316 C318 1.375 . S
H317 C316 0.950 . S
C318 C316 1.375 . S
C318 C320 1.382 . S
C318 H322 0.950 . S
H319 C314 0.949 . S
C320 C315 1.399 . S
C320 C318 1.382 . S
C320 H321 0.952 . S
H321 C320 0.952 . S
H322 C318 0.950 . S
H323 C324 0.949 . S
C324 H323 0.949 . S
C324 C325 1.395 . S
C324 C326 1.391 . S
C325 C324 1.395 . S
C325 C328 1.390 . S
C326 C324 1.391 . S
C326 C330 1.387 . S
C326 C331 1.491 . S
H327 C328 0.950 . S
C328 C325 1.390 . S
C328 H327 0.950 . S
C328 C329 1.378 . S
C329 C328 1.378 . S
C329 C330 1.409 . S
C330 C326 1.387 . S
C330 C329 1.409 . S
C330 H332 0.951 . S
C331 C326 1.491 . S
C331 C333 1.382 . S
C331 C335 1.404 . S
H332 C330 0.951 . S
C333 C331 1.382 . S
C333 C334 1.390 . S
C333 H338 0.949 . S
C334 C333 1.390 . S
C334 C339 1.399 . S
C335 C331 1.404 . S
C335 H336 0.950 . S
C335 C337 1.375 . S
H336 C335 0.950 . S
C337 C335 1.375 . S
C337 C339 1.382 . S
C337 H341 0.950 . S
H338 C333 0.949 . S
C339 C334 1.399 . S
C339 C337 1.382 . S
C339 H340 0.952 . S
H340 C339 0.952 . S
H341 C337 0.950 . S
H342 C343 0.949 . S
C343 H342 0.949 . S
C343 C344 1.395 . S
C343 C345 1.391 . S
C344 C343 1.395 . S
C344 C347 1.390 . S
C345 C343 1.391 . S
C345 C349 1.387 . S
C345 C350 1.491 . S
H346 C347 0.950 . S
C347 C344 1.390 . S
C347 H346 0.950 . S
C347 C348 1.378 . S
C348 C347 1.378 . S
C348 C349 1.409 . S
C349 C345 1.387 . S
C349 C348 1.409 . S
C349 H351 0.951 . S
C350 C345 1.491 . S
C350 C352 1.382 . S
C350 C354 1.404 . S
H351 C349 0.951 . S
C352 C350 1.382 . S
C352 C353 1.390 . S
C352 H357 0.949 . S
C353 C352 1.390 . S
C353 C358 1.399 . S
C354 C350 1.404 . S
C354 H355 0.950 . S
C354 C356 1.375 . S
H355 C354 0.950 . S
C356 C354 1.375 . S
C356 C358 1.382 . S
C356 H360 0.950 . S
H357 C352 0.949 . S
C358 C353 1.399 . S
C358 C356 1.382 . S
C358 H359 0.952 . S
H359 C358 0.952 . S
H360 C356 0.950 . S
H361 C362 0.949 . S
C362 H361 0.949 . S
C362 C363 1.395 . S
C362 C364 1.391 . S
C363 C362 1.395 . S
C363 C366 1.390 . S
C364 C362 1.391 . S
C364 C368 1.387 . S
C364 C369 1.491 . S
H365 C366 0.950 . S
C366 C363 1.390 . S
C366 H365 0.950 . S
C366 C367 1.378 . S
C367 C366 1.378 . S
C367 C368 1.409 . S
C368 C364 1.387 . S
C368 C367 1.409 . S
C368 H370 0.951 . S
C369 C364 1.491 . S
C369 C371 1.382 . S
C369 C373 1.404 . S
H370 C368 0.951 . S
C371 C369 1.382 . S
C371 C372 1.390 . S
C371 H376 0.949 . S
C372 C371 1.390 . S
C372 C377 1.399 . S
C373 C369 1.404 . S
C373 H374 0.950 . S
C373 C375 1.375 . S
H374 C373 0.950 . S
C375 C373 1.375 . S
C375 C377 1.382 . S
C375 H379 0.950 . S
H376 C371 0.949 . S
C377 C372 1.399 . S
C377 C375 1.382 . S
C377 H378 0.952 . S
H378 C377 0.952 . S
H379 C375 0.950 . S
H380 C381 0.949 . S
C381 H380 0.949 . S
C381 C382 1.395 . S
C381 C383 1.391 . S
C382 C381 1.395 . S
C382 C385 1.390 . S
C383 C381 1.391 . S
C383 C387 1.387 . S
C383 C388 1.491 . S
H384 C385 0.950 . S
C385 C382 1.390 . S
C385 H384 0.950 . S
C385 C386 1.378 . S
C386 C385 1.378 . S
C386 C387 1.409 . S
C387 C383 1.387 . S
C387 C386 1.409 . S
C387 H389 0.951 . S
C388 C383 1.491 . S
C388 C390 1.382 . S
C388 C392 1.404 . S
H389 C387 0.951 . S
C390 C388 1.382 . S
C390 C391 1.390 . S
C390 H395 0.949 . S
C391 C390 1.390 . S
C391 C396 1.399 . S
C392 C388 1.404 . S
C392 H393 0.950 . S
C392 C394 1.375 . S
H393 C392 0.950 . S
C394 C392 1.375 . S
C394 C396 1.382 . S
C394 H398 0.950 . S
H395 C390 0.949 . S
C396 C391 1.399 . S
C396 C394 1.382 . S
C396 H397 0.952 . S
H397 C396 0.952 . S
H398 C394 0.950 . S
H399 C400 0.949 . S
C400 H399 0.949 . S
C400 C401 1.395 . S
C400 C402 1.391 . S
C401 C400 1.395 . S
C401 C404 1.390 . S
C402 C400 1.391 . S
C402 C406 1.387 . S
C402 C407 1.491 . S
H403 C404 0.950 . S
C404 C401 1.390 . S
C404 H403 0.950 . S
C404 C405 1.378 . S
C405 C404 1.378 . S
C405 C406 1.409 . S
C406 C402 1.387 . S
C406 C405 1.409 . S
C406 H408 0.951 . S
C407 C402 1.491 . S
C407 C409 1.382 . S
C407 C411 1.404 . S
H408 C406 0.951 . S
C409 C407 1.382 . S
C409 C410 1.390 . S
C409 H414 0.949 . S
C410 C409 1.390 . S
C410 C415 1.399 . S
C411 C407 1.404 . S
C411 H412 0.950 . S
C411 C413 1.375 . S
H412 C411 0.950 . S
C413 C411 1.375 . S
C413 C415 1.382 . S
C413 H417 0.950 . S
H414 C409 0.949 . S
C415 C410 1.399 . S
C415 C413 1.382 . S
C415 H416 0.952 . S
H416 C415 0.952 . S
H417 C413 0.950 . S
H418 C419 0.949 . S
C419 H418 0.949 . S
C419 C420 1.395 . S
C419 C421 1.391 . S
C420 C419 1.395 . S
C420 C423 1.390 . S
C421 C419 1.391 . S
C421 C425 1.387 . S
C421 C426 1.491 . S
H422 C423 0.950 . S
C423 C420 1.390 . S
C423 H422 0.950 . S
C423 C424 1.378 . S
C424 C423 1.378 . S
C424 C425 1.409 . S
C425 C421 1.387 . S
C425 C424 1.409 . S
C425 H427 0.951 . S
C426 C421 1.491 . S
C426 C428 1.382 . S
C426 C430 1.404 . S
H427 C425 0.951 . S
C428 C426 1.382 . S
C428 C429 1.390 . S
C428 H433 0.949 . S
C429 C428 1.390 . S
C429 C434 1.399 . S
C430 C426 1.404 . S
C430 H431 0.950 . S
C430 C432 1.375 . S
H431 C430 0.950 . S
C432 C430 1.375 . S
C432 C434 1.382 . S
C432 H436 0.950 . S
H433 C428 0.949 . S
C434 C429 1.399 . S
C434 C432 1.382 . S
C434 H435 0.952 . S
H435 C434 0.952 . S
H436 C432 0.950 . S
H437 C438 0.949 . S
C438 H437 0.949 . S
C438 C439 1.395 . S
C438 C440 1.391 . S
C439 C438 1.395 . S
C439 C442 1.390 . S
C440 C438 1.391 . S
C440 C444 1.387 . S
C440 C445 1.491 . S
H441 C442 0.950 . S
C442 C439 1.390 . S
C442 H441 0.950 . S
C442 C443 1.378 . S
C443 C442 1.378 . S
C443 C444 1.409 . S
C444 C440 1.387 . S
C444 C443 1.409 . S
C444 H446 0.951 . S
C445 C440 1.491 . S
C445 C447 1.382 . S
C445 C449 1.404 . S
H446 C444 0.951 . S
C447 C445 1.382 . S
C447 C448 1.390 . S
C447 H452 0.949 . S
C448 C447 1.390 . S
C448 C453 1.399 . S
C449 C445 1.404 . S
C449 H450 0.950 . S
C449 C451 1.375 . S
H450 C449 0.950 . S
C451 C449 1.375 . S
C451 C453 1.382 . S
C451 H455 0.950 . S
H452 C447 0.949 . S
C453 C448 1.399 . S
C453 C451 1.382 . S
C453 H454 0.952 . S
H454 C453 0.952 . S
H455 C451 0.950 . S
H456 C457 0.949 . S
C457 H456 0.949 . S
C457 C458 1.395 . S
C457 C459 1.391 . S
C458 C457 1.395 . S
C458 C461 1.390 . S
C459 C457 1.391 . S
C459 C463 1.387 . S
C459 C464 1.491 . S
H460 C461 0.950 . S
C461 C458 1.390 . S
C461 H460 0.950 . S
C461 C462 1.378 . S
C462 C461 1.378 . S
C462 C463 1.409 . S
C463 C459 1.387 . S
C463 C462 1.409 . S
C463 H465 0.951 . S
C464 C459 1.491 . S
C464 C466 1.382 . S
C464 C468 1.404 . S
H465 C463 0.951 . S
C466 C464 1.382 . S
C466 C467 1.390 . S
C466 H471 0.949 . S
C467 C466 1.390 . S
C467 C472 1.399 . S
C468 C464 1.404 . S
C468 H469 0.950 . S
C468 C470 1.375 . S
H469 C468 0.950 . S
C470 C468 1.375 . S
C470 C472 1.382 . S
C470 H474 0.950 . S
H471 C466 0.949 . S
C472 C467 1.399 . S
C472 C470 1.382 . S
C472 H473 0.952 . S
H473 C472 0.952 . S
H474 C470 0.950 . S
H475 C476 0.949 . S
C476 H475 0.949 . S
C476 C477 1.395 . S
C476 C478 1.391 . S
C477 C476 1.395 . S
C477 C480 1.390 . S
C478 C476 1.391 . S
C478 C482 1.387 . S
C478 C483 1.491 . S
H479 C480 0.950 . S
C480 C477 1.390 . S
C480 H479 0.950 . S
C480 C481 1.378 . S
C481 C480 1.378 . S
C481 C482 1.409 . S
C482 C478 1.387 . S
C482 C481 1.409 . S
C482 H484 0.951 . S
C483 C478 1.491 . S
C483 C485 1.382 . S
C483 C487 1.404 . S
H484 C482 0.951 . S
C485 C483 1.382 . S
C485 C486 1.390 . S
C485 H490 0.949 . S
C486 C485 1.390 . S
C486 C491 1.399 . S
C487 C483 1.404 . S
C487 H488 0.950 . S
C487 C489 1.375 . S
H488 C487 0.950 . S
C489 C487 1.375 . S
C489 C491 1.382 . S
C489 H493 0.950 . S
H490 C485 0.949 . S
C491 C486 1.399 . S
C491 C489 1.382 . S
C491 H492 0.952 . S
H492 C491 0.952 . S
H493 C489 0.950 . S
H494 C495 0.949 . S
C495 H494 0.949 . S
C495 C496 1.395 . S
C495 C497 1.391 . S
C496 C495 1.395 . S
C496 C499 1.390 . S
C497 C495 1.391 . S
C497 C501 1.387 . S
C497 C502 1.491 . S
H498 C499 0.950 . S
C499 C496 1.390 . S
C499 H498 0.950 . S
C499 C500 1.378 . S
C500 C499 1.378 . S
C500 C501 1.409 . S
C501 C497 1.387 . S
C501 C500 1.409 . S
C501 H503 0.951 . S
C502 C497 1.491 . S
C502 C504 1.382 . S
C502 C506 1.404 . S
H503 C501 0.951 . S
C504 C502 1.382 . S
C504 C505 1.390 . S
C504 H509 0.949 . S
C505 C504 1.390 . S
C505 C510 1.399 . S
C506 C502 1.404 . S
C506 H507 0.950 . S
C506 C508 1.375 . S
H507 C506 0.950 . S
C508 C506 1.375 . S
C508 C510 1.382 . S
C508 H512 0.950 . S
H509 C504 0.949 . S
C510 C505 1.399 . S
C510 C508 1.382 . S
C510 H511 0.952 . S
H511 C510 0.952 . S
H512 C508 0.950 . S
H513 C514 0.949 . S
C514 H513 0.949 . S
C514 C515 1.395 . S
C514 C516 1.391 . S
C515 C514 1.395 . S
C515 C518 1.390 . S
C516 C514 1.391 . S
C516 C520 1.387 . S
C516 C521 1.491 . S
H517 C518 0.950 . S
C518 C515 1.390 . S
C518 H517 0.950 . S
C518 C519 1.378 . S
C519 C518 1.378 . S
C519 C520 1.409 . S
C520 C516 1.387 . S
C520 C519 1.409 . S
C520 H522 0.951 . S
C521 C516 1.491 . S
C521 C523 1.382 . S
C521 C525 1.404 . S
H522 C520 0.951 . S
C523 C521 1.382 . S
C523 C524 1.390 . S
C523 H528 0.949 . S
C524 C523 1.390 . S
C524 C529 1.399 . S
C525 C521 1.404 . S
C525 H526 0.950 . S
C525 C527 1.375 . S
H526 C525 0.950 . S
C527 C525 1.375 . S
C527 C529 1.382 . S
C527 H531 0.950 . S
H528 C523 0.949 . S
C529 C524 1.399 . S
C529 C527 1.382 . S
C529 H530 0.952 . S
H530 C529 0.952 . S
H531 C527 0.950 . S
H532 C533 0.949 . S
C533 H532 0.949 . S
C533 C534 1.395 . S
C533 C535 1.391 . S
C534 C533 1.395 . S
C534 C537 1.390 . S
C535 C533 1.391 . S
C535 C539 1.387 . S
C535 C540 1.491 . S
H536 C537 0.950 . S
C537 C534 1.390 . S
C537 H536 0.950 . S
C537 C538 1.378 . S
C538 C537 1.378 . S
C538 C539 1.409 . S
C539 C535 1.387 . S
C539 C538 1.409 . S
C539 H541 0.951 . S
C540 C535 1.491 . S
C540 C542 1.382 . S
C540 C544 1.404 . S
H541 C539 0.951 . S
C542 C540 1.382 . S
C542 C543 1.390 . S
C542 H547 0.949 . S
C543 C542 1.390 . S
C543 C548 1.399 . S
C544 C540 1.404 . S
C544 H545 0.950 . S
C544 C546 1.375 . S
H545 C544 0.950 . S
C546 C544 1.375 . S
C546 C548 1.382 . S
C546 H550 0.950 . S
H547 C542 0.949 . S
C548 C543 1.399 . S
C548 C546 1.382 . S
C548 H549 0.952 . S
H549 C548 0.952 . S
H550 C546 0.950 . S
H551 C552 0.949 . S
C552 H551 0.949 . S
C552 C553 1.395 . S
C552 C554 1.391 . S
C553 C552 1.395 . S
C553 C556 1.390 . S
C554 C552 1.391 . S
C554 C558 1.387 . S
C554 C559 1.491 . S
H555 C556 0.950 . S
C556 C553 1.390 . S
C556 H555 0.950 . S
C556 C557 1.378 . S
C557 C556 1.378 . S
C557 C558 1.409 . S
C558 C554 1.387 . S
C558 C557 1.409 . S
C558 H560 0.951 . S
C559 C554 1.491 . S
C559 C561 1.382 . S
C559 C563 1.404 . S
H560 C558 0.951 . S
C561 C559 1.382 . S
C561 C562 1.390 . S
C561 H566 0.949 . S
C562 C561 1.390 . S
C562 C567 1.399 . S
C563 C559 1.404 . S
C563 H564 0.950 . S
C563 C565 1.375 . S
H564 C563 0.950 . S
C565 C563 1.375 . S
C565 C567 1.382 . S
C565 H569 0.950 . S
H566 C561 0.949 . S
C567 C562 1.399 . S
C567 C565 1.382 . S
C567 H568 0.952 . S
H568 C567 0.952 . S
H569 C565 0.950 . S
H570 C571 0.949 . S
C571 H570 0.949 . S
C571 C572 1.395 . S
C571 C573 1.391 . S
C572 C571 1.395 . S
C572 C575 1.390 . S
C573 C571 1.391 . S
C573 C577 1.387 . S
C573 C578 1.491 . S
H574 C575 0.950 . S
C575 C572 1.390 . S
C575 H574 0.950 . S
C575 C576 1.378 . S
C576 C575 1.378 . S
C576 C577 1.409 . S
C577 C573 1.387 . S
C577 C576 1.409 . S
C577 H579 0.951 . S
C578 C573 1.491 . S
C578 C580 1.382 . S
C578 C582 1.404 . S
H579 C577 0.951 . S
C580 C578 1.382 . S
C580 C581 1.390 . S
C580 H585 0.949 . S
C581 C580 1.390 . S
C581 C586 1.399 . S
C582 C578 1.404 . S
C582 H583 0.950 . S
C582 C584 1.375 . S
H583 C582 0.950 . S
C584 C582 1.375 . S
C584 C586 1.382 . S
C584 H588 0.950 . S
H585 C580 0.949 . S
C586 C581 1.399 . S
C586 C584 1.382 . S
C586 H587 0.952 . S
H587 C586 0.952 . S
H588 C584 0.950 . S
H589 C590 0.949 . S
C590 H589 0.949 . S
C590 C591 1.395 . S
C590 C592 1.391 . S
C591 C590 1.395 . S
C591 C594 1.390 . S
C592 C590 1.391 . S
C592 C596 1.387 . S
C592 C597 1.491 . S
H593 C594 0.950 . S
C594 C591 1.390 . S
C594 H593 0.950 . S
C594 C595 1.378 . S
C595 C594 1.378 . S
C595 C596 1.409 . S
C596 C592 1.387 . S
C596 C595 1.409 . S
C596 H598 0.951 . S
C597 C592 1.491 . S
C597 C599 1.382 . S
C597 C601 1.404 . S
H598 C596 0.951 . S
C599 C597 1.382 . S
C599 C600 1.390 . S
C599 H604 0.949 . S
C600 C599 1.390 . S
C600 C605 1.399 . S
C601 C597 1.404 . S
C601 H602 0.950 . S
C601 C603 1.375 . S
H602 C601 0.950 . S
C603 C601 1.375 . S
C603 C605 1.382 . S
C603 H607 0.950 . S
H604 C599 0.949 . S
C605 C600 1.399 . S
C605 C603 1.382 . S
C605 H606 0.952 . S
H606 C605 0.952 . S
H607 C603 0.950 . S
Cu608 N609 1.999 . S
Cu608 O614 1.974 1_554 S
Cu608 N619 1.985 . S
Cu608 O628 1.959 . S
N609 Cu608 1.999 . S
N609 C611 1.263 1_554 S
N609 C613 1.389 . S
N610 C611 1.358 . S
N610 C612 1.400 . S
C611 N609 1.263 1_556 S
C611 N610 1.358 . S
C611 H617 0.930 . S
C612 N610 1.400 . S
C612 C613 1.351 1_556 S
C612 H629 0.930 . S
C613 N609 1.389 . S
C613 C612 1.351 1_554 S
C613 H618 0.930 . S
O614 Cu608 1.974 1_556 S
O614 C624 1.282 . S
C615 O616 1.261 . S
C615 O628 1.251 . S
O616 C615 1.261 . S
H617 C611 0.930 . S
H618 C613 0.930 . S
N619 Cu608 1.985 . S
N619 C621 1.335 . S
N619 C622 1.390 . S
N620 C621 1.345 . S
N620 C623 1.336 . S
C621 N619 1.335 . S
C621 N620 1.345 . S
C621 H626 0.930 . S
C622 N619 1.390 . S
C622 C623 1.346 . S
C622 H627 0.930 . S
C623 N620 1.336 . S
C623 C622 1.346 . S
C623 H630 0.929 . S
C624 O614 1.282 . S
C624 O625 1.216 . S
O625 C624 1.216 . S
H626 C621 0.930 . S
H627 C622 0.930 . S
O628 Cu608 1.959 . S
O628 C615 1.251 . S
H629 C612 0.930 . S
H630 C623 0.929 . S
Cu631 N632 1.999 . S
Cu631 O637 1.974 . S
Cu631 N642 1.985 . S
Cu631 O651 1.957 . S
N632 Cu631 1.999 . S
N632 C634 1.263 . S
N632 C636 1.389 . S
N633 C634 1.358 . S
N633 C635 1.400 . S
C634 N632 1.263 . S
C634 N633 1.358 . S
C634 H640 0.930 . S
C635 N633 1.400 . S
C635 C636 1.351 . S
C635 H652 0.930 . S
C636 N632 1.389 . S
C636 C635 1.351 . S
C636 H641 0.930 . S
O637 Cu631 1.974 . S
O637 C647 1.282 . S
C638 O639 1.261 1_556 S
C638 O651 1.252 1_556 S
O639 C638 1.261 1_554 S
H640 C634 0.930 . S
H641 C636 0.930 . S
N642 Cu631 1.985 . S
N642 C644 1.335 1_554 S
N642 C645 1.390 . S
N643 C644 1.345 . S
N643 C646 1.336 . S
C644 N642 1.335 1_556 S
C644 N643 1.345 . S
C644 H649 0.930 . S
C645 N642 1.390 . S
C645 C646 1.346 1_554 S
C645 H650 0.930 . S
C646 N643 1.336 . S
C646 C645 1.346 1_556 S
C646 H653 0.929 . S
C647 O637 1.282 . S
C647 O648 1.216 . S
O648 C647 1.216 . S
H649 C644 0.930 . S
H650 C645 0.930 . S
O651 Cu631 1.957 . S
O651 C638 1.252 1_554 S
H652 C635 0.930 . S
H653 C646 0.929 . S
Cu654 N655 1.999 1_554 S
Cu654 O660 1.974 1_554 S
Cu654 N665 1.985 . S
Cu654 O674 1.959 . S
N655 Cu654 1.999 1_556 S
N655 C657 1.263 . S
N655 C659 1.389 . S
N656 C657 1.358 . S
N656 C658 1.400 . S
C657 N655 1.263 . S
C657 N656 1.358 . S
C657 H663 0.930 . S
C658 N656 1.400 . S
C658 C659 1.351 . S
C658 H675 0.930 . S
C659 N655 1.389 . S
C659 C658 1.351 . S
C659 H664 0.930 1_556 S
O660 Cu654 1.974 1_556 S
O660 C670 1.282 . S
C661 O662 1.261 . S
C661 O674 1.251 . S
O662 C661 1.261 . S
H663 C657 0.930 . S
H664 C659 0.930 1_554 S
N665 Cu654 1.985 . S
N665 C667 1.335 . S
N665 C668 1.390 . S
N666 C667 1.345 . S
N666 C669 1.336 . S
C667 N665 1.335 . S
C667 N666 1.345 . S
C667 H672 0.930 . S
C668 N665 1.390 . S
C668 C669 1.346 . S
C668 H673 0.930 . S
C669 N666 1.336 . S
C669 C668 1.346 . S
C669 H676 0.929 . S
C670 O660 1.282 . S
C670 O671 1.216 . S
O671 C670 1.216 . S
H672 C667 0.930 . S
H673 C668 0.930 . S
O674 Cu654 1.959 . S
O674 C661 1.251 . S
H675 C658 0.930 . S
H676 C669 0.929 . S
Cu677 N678 1.999 . S
Cu677 O683 1.974 . S
Cu677 N688 1.985 1_554 S
Cu677 O697 1.959 1_554 S
N678 Cu677 1.999 . S
N678 C680 1.263 . S
N678 C682 1.389 . S
N679 C680 1.358 . S
N679 C681 1.400 . S
C680 N678 1.263 . S
C680 N679 1.358 . S
C680 H686 0.930 . S
C681 N679 1.400 . S
C681 C682 1.351 . S
C681 H698 0.930 . S
C682 N678 1.389 . S
C682 C681 1.351 . S
C682 H687 0.930 . S
O683 Cu677 1.974 . S
O683 C693 1.282 . S
C684 O685 1.261 . S
C684 O697 1.251 . S
O685 C684 1.261 . S
H686 C680 0.930 . S
H687 C682 0.930 . S
N688 Cu677 1.985 1_556 S
N688 C690 1.335 . S
N688 C691 1.379 1_556 S
N689 C690 1.345 . S
N689 C692 1.336 . S
C690 N688 1.335 . S
C690 N689 1.345 . S
C690 H695 0.930 . S
C691 N688 1.379 1_554 S
C691 C692 1.303 1_554 S
C691 H696 0.978 . S
C692 N689 1.336 . S
C692 C691 1.303 1_556 S
C692 H699 0.929 . S
C693 O683 1.282 . S
C693 O694 1.216 . S
O694 C693 1.216 . S
H695 C690 0.930 . S
H696 C691 0.978 . S
O697 Cu677 1.959 1_556 S
O697 C684 1.251 . S
H698 C681 0.930 . S
H699 C692 0.929 . S
Cu700 N701 1.999 . S
Cu700 O706 1.974 . S
Cu700 N711 1.985 . S
Cu700 O720 1.959 1_455 S
N701 Cu700 1.999 . S
N701 C703 1.263 . S
N701 C705 1.389 . S
N702 C703 1.358 . S
N702 C704 1.400 . S
C703 N701 1.263 . S
C703 N702 1.358 . S
C703 H709 0.930 . S
C704 N702 1.400 . S
C704 C705 1.351 . S
C704 H721 0.930 . S
C705 N701 1.389 . S
C705 C704 1.351 . S
C705 H710 0.930 . S
O706 Cu700 1.974 . S
O706 C716 1.282 . S
C707 O708 1.261 . S
C707 O720 1.251 . S
O708 C707 1.261 . S
H709 C703 0.930 . S
H710 C705 0.930 . S
N711 Cu700 1.985 . S
N711 C713 1.335 1_455 S
N711 C714 1.390 . S
N712 C713 1.345 . S
N712 C715 1.336 . S
C713 N711 1.335 1_655 S
C713 N712 1.345 . S
C713 H718 0.930 . S
C714 N711 1.390 . S
C714 C715 1.346 1_455 S
C714 H719 0.930 . S
C715 N712 1.336 . S
C715 C714 1.346 1_655 S
C715 H722 0.929 . S
C716 O706 1.282 . S
C716 O717 1.216 . S
O717 C716 1.216 . S
H718 C713 0.930 . S
H719 C714 0.930 . S
O720 Cu700 1.959 1_655 S
O720 C707 1.251 . S
H721 C704 0.930 . S
H722 C715 0.929 . S
Cu723 N724 1.957 1_565 S
Cu723 O729 1.923 1_565 S
Cu723 N734 2.026 . S
Cu723 O743 2.010 . S
N724 Cu723 1.957 1_545 S
N724 C726 1.263 . S
N724 C728 1.389 . S
N725 C726 1.358 . S
N725 C727 1.400 . S
C726 N724 1.263 . S
C726 N725 1.358 . S
C726 H732 0.930 . S
C727 N725 1.400 . S
C727 C728 1.351 . S
C727 H744 0.930 . S
C728 N724 1.389 . S
C728 C727 1.351 . S
C728 H733 0.930 . S
O729 Cu723 1.923 1_545 S
O729 C739 1.282 . S
C730 O731 1.261 . S
C730 O743 1.251 . S
O731 C730 1.261 . S
H732 C726 0.930 . S
H733 C728 0.930 . S
N734 Cu723 2.026 . S
N734 C736 1.335 . S
N734 C737 1.390 . S
N735 C736 1.345 . S
N735 C738 1.336 . S
C736 N734 1.335 . S
C736 N735 1.345 . S
C736 H741 0.930 . S
C737 N734 1.390 . S
C737 C738 1.346 . S
C737 H742 0.930 . S
C738 N735 1.336 . S
C738 C737 1.346 . S
C738 H745 0.929 . S
C739 O729 1.282 . S
C739 O740 1.216 . S
O740 C739 1.216 . S
H741 C736 0.930 . S
H742 C737 0.930 . S
O743 Cu723 2.010 . S
O743 C730 1.251 . S
H744 C727 0.930 . S
H745 C738 0.929 . S
Cu746 N747 1.999 . S
Cu746 O752 1.974 . S
Cu746 N757 1.985 1_655 S
Cu746 O766 1.959 1_655 S
N747 Cu746 1.999 . S
N747 C749 1.263 . S
N747 C751 1.389 . S
N748 C749 1.358 . S
N748 C750 1.400 . S
C749 N747 1.263 . S
C749 N748 1.358 . S
C749 H755 0.930 . S
C750 N748 1.400 . S
C750 C751 1.351 . S
C750 H767 0.930 . S
C751 N747 1.389 . S
C751 C750 1.351 . S
C751 H756 0.930 . S
O752 Cu746 1.974 . S
O752 C762 1.282 . S
C753 O754 1.261 . S
C753 O766 1.251 . S
O754 C753 1.261 . S
H755 C749 0.930 . S
H756 C751 0.930 . S
N757 Cu746 1.985 1_455 S
N757 C759 1.335 . S
N757 C760 1.390 . S
N758 C759 1.345 . S
N758 C761 1.336 . S
C759 N757 1.335 . S
C759 N758 1.345 . S
C759 H764 0.930 . S
C760 N757 1.390 . S
C760 C761 1.346 . S
C760 H765 0.930 1_455 S
C761 N758 1.336 . S
C761 C760 1.346 . S
C761 H768 0.929 . S
C762 O752 1.282 . S
C762 O763 1.216 . S
O763 C762 1.216 . S
H764 C759 0.930 . S
H765 C760 0.930 1_655 S
O766 Cu746 1.959 1_455 S
O766 C753 1.251 . S
H767 C750 0.930 . S
H768 C761 0.929 . S
Cu769 N770 1.999 . S
Cu769 O775 1.974 . S
Cu769 N780 1.985 1_545 S
Cu769 O789 1.959 1_545 S
N770 Cu769 1.999 . S
N770 C772 1.263 . S
N770 C774 1.389 . S
N771 C772 1.358 . S
N771 C773 1.400 . S
C772 N770 1.263 . S
C772 N771 1.358 . S
C772 H778 0.930 . S
C773 N771 1.400 . S
C773 C774 1.351 . S
C773 H790 0.930 . S
C774 N770 1.389 . S
C774 C773 1.351 . S
C774 H779 0.930 . S
O775 Cu769 1.974 . S
O775 C785 1.282 . S
C776 O777 1.261 . S
C776 O789 1.251 . S
O777 C776 1.261 . S
H778 C772 0.930 . S
H779 C774 0.930 . S
N780 Cu769 1.985 1_565 S
N780 C782 1.335 . S
N780 C783 1.390 . S
N781 C782 1.345 . S
N781 C784 1.336 . S
C782 N780 1.335 . S
C782 N781 1.345 . S
C782 H787 0.930 . S
C783 N780 1.390 . S
C783 C784 1.346 . S
C783 H788 0.930 . S
C784 N781 1.336 . S
C784 C783 1.346 . S
C784 H791 0.929 . S
C785 O775 1.282 . S
C785 O786 1.216 . S
O786 C785 1.216 . S
H787 C782 0.930 . S
H788 C783 0.930 . S
O789 Cu769 1.959 1_565 S
O789 C776 1.251 . S
H790 C773 0.930 . S
H791 C784 0.929 . S
Cu792 N793 1.999 . S
Cu792 O798 1.974 . S
Cu792 N803 1.985 . S
Cu792 O812 1.959 1_455 S
N793 Cu792 1.999 . S
N793 C795 1.263 . S
N793 C797 1.389 . S
N794 C795 1.358 . S
N794 C796 1.400 . S
C795 N793 1.263 . S
C795 N794 1.358 . S
C795 H801 0.930 . S
C796 N794 1.400 . S
C796 C797 1.351 . S
C796 H813 0.930 . S
C797 N793 1.389 . S
C797 C796 1.351 . S
C797 H802 0.930 . S
O798 Cu792 1.974 . S
O798 C808 1.282 . S
C799 O800 1.261 . S
C799 O812 1.251 . S
O800 C799 1.261 . S
H801 C795 0.930 . S
H802 C797 0.930 . S
N803 Cu792 1.985 . S
N803 C805 1.335 1_455 S
N803 C806 1.390 . S
N804 C805 1.345 . S
N804 C807 1.348 . S
C805 N803 1.335 1_655 S
C805 N804 1.345 . S
C805 H810 0.930 . S
C806 N803 1.390 . S
C806 C807 1.332 1_455 S
C806 H811 0.930 . S
C807 N804 1.348 . S
C807 C806 1.332 1_655 S
C807 H814 0.928 . S
C808 O798 1.282 . S
C808 O809 1.216 . S
O809 C808 1.216 . S
H810 C805 0.930 . S
H811 C806 0.930 . S
O812 Cu792 1.959 1_655 S
O812 C799 1.251 . S
H813 C796 0.930 . S
H814 C807 0.928 . S
Cu815 N816 1.999 . S
Cu815 O821 1.974 . S
Cu815 N826 1.985 1_545 S
Cu815 O835 1.959 1_545 S
N816 Cu815 1.999 . S
N816 C818 1.263 . S
N816 C820 1.389 . S
N817 C818 1.358 . S
N817 C819 1.400 . S
C818 N816 1.263 . S
C818 N817 1.358 . S
C818 H824 0.930 . S
C819 N817 1.400 . S
C819 C820 1.351 . S
C819 H836 0.930 . S
C820 N816 1.389 . S
C820 C819 1.351 . S
C820 H825 0.930 . S
O821 Cu815 1.974 . S
O821 C831 1.282 . S
C822 O823 1.261 1_565 S
C822 O835 1.251 . S
O823 C822 1.261 1_545 S
H824 C818 0.930 . S
H825 C820 0.930 . S
N826 Cu815 1.985 1_565 S
N826 C828 1.335 . S
N826 C829 1.390 . S
N827 C828 1.345 . S
N827 C830 1.336 . S
C828 N826 1.335 . S
C828 N827 1.345 . S
C828 H833 0.930 . S
C829 N826 1.390 . S
C829 C830 1.346 . S
C829 H834 0.930 1_565 S
C830 N827 1.336 . S
C830 C829 1.346 . S
C830 H837 0.929 . S
C831 O821 1.282 . S
C831 O832 1.216 . S
O832 C831 1.216 . S
H833 C828 0.930 . S
H834 C829 0.930 1_545 S
O835 Cu815 1.959 1_565 S
O835 C822 1.251 . S
H836 C819 0.930 . S
H837 C830 0.929 . S
Cu838 N839 1.999 . S
Cu838 O844 2.021 . S
Cu838 N849 1.985 . S
Cu838 O858 1.959 . S
N839 Cu838 1.999 . S
N839 C841 1.263 1_455 S
N839 C843 1.389 . S
N840 C841 1.358 . S
N840 C842 1.393 1_655 S
C841 N839 1.263 1_655 S
C841 N840 1.358 . S
C841 H847 0.930 . S
C842 N840 1.393 1_455 S
C842 C843 1.362 . S
C842 H859 0.928 1_455 S
C843 N839 1.389 . S
C843 C842 1.362 . S
C843 H848 0.930 . S
O844 Cu838 2.021 . S
O844 C854 1.260 1_455 S
C845 O846 1.261 . S
C845 O858 1.251 . S
O846 C845 1.261 . S
H847 C841 0.930 . S
H848 C843 0.930 . S
N849 Cu838 1.985 . S
N849 C851 1.335 . S
N849 C852 1.390 . S
N850 C851 1.345 . S
N850 C853 1.336 . S
C851 N849 1.335 . S
C851 N850 1.345 . S
C851 H856 0.930 . S
C852 N849 1.390 . S
C852 C853 1.346 . S
C852 H857 0.930 . S
C853 N850 1.336 . S
C853 C852 1.346 . S
C853 H860 0.929 . S
C854 O844 1.260 1_655 S
C854 O855 1.216 1_655 S
O855 C854 1.216 1_455 S
H856 C851 0.930 . S
H857 C852 0.930 . S
O858 Cu838 1.959 . S
O858 C845 1.251 . S
H859 C842 0.928 1_655 S
H860 C853 0.929 . S
Cu861 N862 1.999 . S
Cu861 O867 1.974 . S
Cu861 N872 1.985 . S
Cu861 O881 1.959 . S
N862 Cu861 1.999 . S
N862 C864 1.263 . S
N862 C866 1.389 . S
N863 C864 1.358 . S
N863 C865 1.400 . S
C864 N862 1.263 . S
C864 N863 1.358 . S
C864 H870 0.930 . S
C865 N863 1.400 . S
C865 C866 1.351 . S
C865 H882 0.930 . S
C866 N862 1.389 . S
C866 C865 1.351 . S
C866 H871 0.930 . S
O867 Cu861 1.974 . S
O867 C877 1.282 . S
C868 O869 1.285 . S
C868 O881 1.275 . S
O869 C868 1.285 . S
H870 C864 0.930 . S
H871 C866 0.930 . S
N872 Cu861 1.985 . S
N872 C874 1.335 1_545 S
N872 C875 1.386 . S
N873 C874 1.345 . S
N873 C876 1.336 . S
C874 N872 1.335 1_565 S
C874 N873 1.345 . S
C874 H879 0.930 . S
C875 N872 1.386 . S
C875 C876 1.326 1_545 S
C875 H880 0.952 . S
C876 N873 1.336 . S
C876 C875 1.326 1_565 S
C876 H883 0.929 . S
C877 O867 1.282 . S
C877 O878 1.216 . S
O878 C877 1.216 . S
H879 C874 0.930 . S
H880 C875 0.952 . S
O881 Cu861 1.959 . S
O881 C868 1.275 . S
H882 C865 0.930 . S
H883 C876 0.929 . S
Cu884 N885 1.999 . S
Cu884 O890 1.974 . S
Cu884 N895 1.985 . S
Cu884 O904 1.959 . S
N885 Cu884 1.999 . S
N885 C887 1.263 . S
N885 C889 1.389 . S
N886 C887 1.358 . S
N886 C888 1.400 . S
C887 N885 1.263 . S
C887 N886 1.358 . S
C887 H893 0.930 . S
C888 N886 1.400 . S
C888 C889 1.351 . S
C888 H905 0.930 . S
C889 N885 1.389 . S
C889 C888 1.351 . S
C889 H894 0.930 . S
O890 Cu884 1.974 . S
O890 C900 1.282 . S
C891 O892 1.261 . S
C891 O904 1.251 . S
O892 C891 1.261 . S
H893 C887 0.930 . S
H894 C889 0.930 . S
N895 Cu884 1.985 . S
N895 C897 1.335 . S
N895 C898 1.390 . S
N896 C897 1.345 . S
N896 C899 1.336 . S
C897 N895 1.335 . S
C897 N896 1.345 . S
C897 H902 0.930 . S
C898 N895 1.390 . S
C898 C899 1.346 . S
C898 H903 0.930 . S
C899 N896 1.336 . S
C899 C898 1.346 . S
C899 H906 0.929 . S
C900 O890 1.282 . S
C900 O901 1.216 . S
O901 C900 1.216 . S
H902 C897 0.930 . S
H903 C898 0.930 . S
O904 Cu884 1.959 . S
O904 C891 1.251 . S
H905 C888 0.930 . S
H906 C899 0.929 . S
Cu907 N908 1.999 . S
Cu907 O913 1.974 . S
Cu907 N918 1.985 . S
Cu907 O927 1.959 . S
N908 Cu907 1.999 . S
N908 C910 1.263 . S
N908 C912 1.389 . S
N909 C910 1.358 . S
N909 C911 1.400 . S
C910 N908 1.263 . S
C910 N909 1.358 . S
C910 H916 0.930 . S
C911 N909 1.400 . S
C911 C912 1.351 . S
C911 H928 0.930 . S
C912 N908 1.389 . S
C912 C911 1.351 . S
C912 H917 0.930 . S
O913 Cu907 1.974 . S
O913 C923 1.282 . S
C914 O915 1.261 . S
C914 O927 1.251 . S
O915 C914 1.261 . S
H916 C910 0.930 . S
H917 C912 0.930 . S
N918 Cu907 1.985 . S
N918 C920 1.335 . S
N918 C921 1.390 . S
N919 C920 1.345 . S
N919 C922 1.336 . S
C920 N918 1.335 . S
C920 N919 1.345 . S
C920 H925 0.930 . S
C921 N918 1.390 . S
C921 C922 1.346 . S
C921 H926 0.930 . S
C922 N919 1.336 . S
C922 C921 1.346 . S
C922 H929 0.929 . S
C923 O913 1.282 . S
C923 O924 1.216 . S
O924 C923 1.216 . S
H925 C920 0.930 . S
H926 C921 0.930 . S
O927 Cu907 1.959 . S
O927 C914 1.251 . S
H928 C911 0.930 . S
H929 C922 0.929 . S
Cu930 N931 1.999 . S
Cu930 O936 1.974 . S
Cu930 N941 1.985 . S
Cu930 O950 1.959 . S
N931 Cu930 1.999 . S
N931 C933 1.263 . S
N931 C935 1.389 . S
N932 C933 1.358 . S
N932 C934 1.400 . S
C933 N931 1.263 . S
C933 N932 1.358 . S
C933 H939 0.930 . S
C934 N932 1.400 . S
C934 C935 1.351 . S
C934 H951 0.930 . S
C935 N931 1.389 . S
C935 C934 1.351 . S
C935 H940 0.930 . S
O936 Cu930 1.974 . S
O936 C946 1.282 . S
C937 O938 1.261 . S
C937 O950 1.251 . S
O938 C937 1.261 . S
H939 C933 0.930 . S
H940 C935 0.930 . S
N941 Cu930 1.985 . S
N941 C943 1.335 . S
N941 C944 1.390 . S
N942 C943 1.345 . S
N942 C945 1.336 . S
C943 N941 1.335 . S
C943 N942 1.345 . S
C943 H948 0.930 . S
C944 N941 1.390 . S
C944 C945 1.346 . S
C944 H949 0.930 . S
C945 N942 1.336 . S
C945 C944 1.346 . S
C945 H952 0.929 . S
C946 O936 1.282 . S
C946 O947 1.216 . S
O947 C946 1.216 . S
H948 C943 0.930 . S
H949 C944 0.930 . S
O950 Cu930 1.959 . S
O950 C937 1.251 . S
H951 C934 0.930 . S
H952 C945 0.929 . S
Cu953 N954 1.999 . S
Cu953 O959 1.974 . S
Cu953 N964 1.985 . S
Cu953 O973 1.959 . S
N954 Cu953 1.999 . S
N954 C956 1.263 . S
N954 C958 1.389 . S
N955 C956 1.358 . S
N955 C957 1.400 . S
C956 N954 1.263 . S
C956 N955 1.358 . S
C956 H962 0.930 . S
C957 N955 1.400 . S
C957 C958 1.351 . S
C957 H974 0.930 . S
C958 N954 1.389 . S
C958 C957 1.351 . S
C958 H963 0.930 . S
O959 Cu953 1.974 . S
O959 C969 1.282 . S
C960 O961 1.261 . S
C960 O973 1.251 . S
O961 C960 1.261 . S
H962 C956 0.930 . S
H963 C958 0.930 . S
N964 Cu953 1.985 . S
N964 C966 1.335 . S
N964 C967 1.390 . S
N965 C966 1.345 . S
N965 C968 1.336 . S
C966 N964 1.335 . S
C966 N965 1.345 . S
C966 H971 0.930 . S
C967 N964 1.390 . S
C967 C968 1.346 . S
C967 H972 0.930 . S
C968 N965 1.336 . S
C968 C967 1.346 . S
C968 H975 0.929 . S
C969 O959 1.282 . S
C969 O970 1.216 . S
O970 C969 1.216 . S
H971 C966 0.930 . S
H972 C967 0.930 . S
O973 Cu953 1.959 . S
O973 C960 1.251 . S
H974 C957 0.930 . S
H975 C968 0.929 . S
Cu976 N977 1.999 . S
Cu976 O982 1.974 . S
Cu976 N987 1.985 . S
Cu976 O996 1.959 . S
N977 Cu976 1.999 . S
N977 C979 1.263 . S
N977 C981 1.389 . S
N978 C979 1.358 . S
N978 C980 1.400 . S
C979 N977 1.263 . S
C979 N978 1.358 . S
C979 H985 0.930 . S
C980 N978 1.400 . S
C980 C981 1.351 . S
C980 H997 0.930 . S
C981 N977 1.389 . S
C981 C980 1.351 . S
C981 H986 0.930 . S
O982 Cu976 1.974 . S
O982 C992 1.282 . S
C983 O984 1.261 . S
C983 O996 1.251 . S
O984 C983 1.261 . S
H985 C979 0.930 . S
H986 C981 0.930 . S
N987 Cu976 1.985 . S
N987 C989 1.335 . S
N987 C990 1.390 . S
N988 C989 1.345 . S
N988 C991 1.336 . S
C989 N987 1.335 . S
C989 N988 1.345 . S
C989 H994 0.930 . S
C990 N987 1.390 . S
C990 C991 1.346 . S
C990 H995 0.930 . S
C991 N988 1.336 . S
C991 C990 1.346 . S
C991 H998 0.929 . S
C992 O982 1.282 . S
C992 O993 1.216 . S
O993 C992 1.216 . S
H994 C989 0.930 . S
H995 C990 0.930 . S
O996 Cu976 1.959 . S
O996 C983 1.251 . S
H997 C980 0.930 . S
H998 C991 0.929 . S
Cu999 N1000 1.999 . S
Cu999 O1005 1.974 . S
Cu999 N1010 1.985 . S
Cu999 O1019 1.959 . S
N1000 Cu999 1.999 . S
N1000 C1002 1.263 . S
N1000 C1004 1.389 . S
N1001 C1002 1.358 . S
N1001 C1003 1.400 . S
C1002 N1000 1.263 . S
C1002 N1001 1.358 . S
C1002 H1008 0.930 . S
C1003 N1001 1.400 . S
C1003 C1004 1.351 . S
C1003 H1020 0.930 . S
C1004 N1000 1.389 . S
C1004 C1003 1.351 . S
C1004 H1009 0.930 . S
O1005 Cu999 1.974 . S
O1005 C1015 1.282 . S
C1006 O1007 1.261 . S
C1006 O1019 1.251 . S
O1007 C1006 1.261 . S
H1008 C1002 0.930 . S
H1009 C1004 0.930 . S
N1010 Cu999 1.985 . S
N1010 C1012 1.335 . S
N1010 C1013 1.390 . S
N1011 C1012 1.345 . S
N1011 C1014 1.336 . S
C1012 N1010 1.335 . S
C1012 N1011 1.345 . S
C1012 H1017 0.930 . S
C1013 N1010 1.390 . S
C1013 C1014 1.346 . S
C1013 H1018 0.930 . S
C1014 N1011 1.336 . S
C1014 C1013 1.346 . S
C1014 H1021 0.929 . S
C1015 O1005 1.282 . S
C1015 O1016 1.216 . S
O1016 C1015 1.216 . S
H1017 C1012 0.930 . S
H1018 C1013 0.930 . S
O1019 Cu999 1.959 . S
O1019 C1006 1.251 . S
H1020 C1003 0.930 . S
H1021 C1014 0.929 . S
Cu1022 N1023 1.999 . S
Cu1022 O1028 1.974 . S
Cu1022 N1033 1.985 . S
Cu1022 O1042 1.959 . S
N1023 Cu1022 1.999 . S
N1023 C1025 1.263 . S
N1023 C1027 1.389 . S
N1024 C1025 1.358 . S
N1024 C1026 1.400 . S
C1025 N1023 1.263 . S
C1025 N1024 1.358 . S
C1025 H1031 0.930 . S
C1026 N1024 1.400 . S
C1026 C1027 1.351 . S
C1026 H1043 0.930 . S
C1027 N1023 1.389 . S
C1027 C1026 1.351 . S
C1027 H1032 0.930 . S
O1028 Cu1022 1.974 . S
O1028 C1038 1.282 . S
C1029 O1030 1.261 . S
C1029 O1042 1.251 . S
O1030 C1029 1.261 . S
H1031 C1025 0.930 . S
H1032 C1027 0.930 . S
N1033 Cu1022 1.985 . S
N1033 C1035 1.335 . S
N1033 C1036 1.390 . S
N1034 C1035 1.345 . S
N1034 C1037 1.336 . S
C1035 N1033 1.335 . S
C1035 N1034 1.345 . S
C1035 H1040 0.930 . S
C1036 N1033 1.390 . S
C1036 C1037 1.346 . S
C1036 H1041 0.930 . S
C1037 N1034 1.336 . S
C1037 C1036 1.346 . S
C1037 H1044 0.929 . S
C1038 O1028 1.282 . S
C1038 O1039 1.216 . S
O1039 C1038 1.216 . S
H1040 C1035 0.930 . S
H1041 C1036 0.930 . S
O1042 Cu1022 1.959 . S
O1042 C1029 1.251 . S
H1043 C1026 0.930 . S
H1044 C1037 0.929 . S
Cu1045 N1046 1.999 . S
Cu1045 O1051 1.974 . S
Cu1045 N1056 1.985 . S
Cu1045 O1065 1.959 . S
N1046 Cu1045 1.999 . S
N1046 C1048 1.263 . S
N1046 C1050 1.389 . S
N1047 C1048 1.358 . S
N1047 C1049 1.400 . S
C1048 N1046 1.263 . S
C1048 N1047 1.358 . S
C1048 H1054 0.930 . S
C1049 N1047 1.400 . S
C1049 C1050 1.351 . S
C1049 H1066 0.930 . S
C1050 N1046 1.389 . S
C1050 C1049 1.351 . S
C1050 H1055 0.930 . S
O1051 Cu1045 1.974 . S
O1051 C1061 1.282 . S
C1052 O1053 1.261 . S
C1052 O1065 1.251 . S
O1053 C1052 1.261 . S
H1054 C1048 0.930 . S
H1055 C1050 0.930 . S
N1056 Cu1045 1.985 . S
N1056 C1058 1.335 . S
N1056 C1059 1.390 . S
N1057 C1058 1.345 . S
N1057 C1060 1.336 . S
C1058 N1056 1.335 . S
C1058 N1057 1.345 . S
C1058 H1063 0.930 . S
C1059 N1056 1.390 . S
C1059 C1060 1.346 . S
C1059 H1064 0.930 . S
C1060 N1057 1.336 . S
C1060 C1059 1.346 . S
C1060 H1067 0.929 . S
C1061 O1051 1.282 . S
C1061 O1062 1.216 . S
O1062 C1061 1.216 . S
H1063 C1058 0.930 . S
H1064 C1059 0.930 . S
O1065 Cu1045 1.959 . S
O1065 C1052 1.251 . S
H1066 C1049 0.930 . S
H1067 C1060 0.929 . S
Cu1068 N1069 1.999 . S
Cu1068 O1074 1.974 . S
Cu1068 N1079 1.985 . S
Cu1068 O1088 1.959 . S
N1069 Cu1068 1.999 . S
N1069 C1071 1.263 . S
N1069 C1073 1.389 . S
N1070 C1071 1.358 . S
N1070 C1072 1.400 . S
C1071 N1069 1.263 . S
C1071 N1070 1.358 . S
C1071 H1077 0.930 . S
C1072 N1070 1.400 . S
C1072 C1073 1.351 . S
C1072 H1089 0.930 . S
C1073 N1069 1.389 . S
C1073 C1072 1.351 . S
C1073 H1078 0.930 . S
O1074 Cu1068 1.974 . S
O1074 C1084 1.282 . S
C1075 O1076 1.261 . S
C1075 O1088 1.251 . S
O1076 C1075 1.261 . S
H1077 C1071 0.930 . S
H1078 C1073 0.930 . S
N1079 Cu1068 1.985 . S
N1079 C1081 1.335 . S
N1079 C1082 1.390 . S
N1080 C1081 1.345 . S
N1080 C1083 1.336 . S
C1081 N1079 1.335 . S
C1081 N1080 1.345 . S
C1081 H1086 0.930 . S
C1082 N1079 1.390 . S
C1082 C1083 1.346 . S
C1082 H1087 0.930 . S
C1083 N1080 1.336 . S
C1083 C1082 1.346 . S
C1083 H1090 0.929 . S
C1084 O1074 1.282 . S
C1084 O1085 1.216 . S
O1085 C1084 1.216 . S
H1086 C1081 0.930 . S
H1087 C1082 0.930 . S
O1088 Cu1068 1.959 . S
O1088 C1075 1.251 . S
H1089 C1072 0.930 . S
H1090 C1083 0.929 . S
Cu1091 N1092 1.999 . S
Cu1091 O1097 1.974 . S
Cu1091 N1102 1.985 . S
Cu1091 O1111 1.959 . S
N1092 Cu1091 1.999 . S
N1092 C1094 1.263 . S
N1092 C1096 1.389 . S
N1093 C1094 1.358 . S
N1093 C1095 1.400 . S
C1094 N1092 1.263 . S
C1094 N1093 1.358 . S
C1094 H1100 0.930 . S
C1095 N1093 1.400 . S
C1095 C1096 1.351 . S
C1095 H1112 0.930 . S
C1096 N1092 1.389 . S
C1096 C1095 1.351 . S
C1096 H1101 0.930 . S
O1097 Cu1091 1.974 . S
O1097 C1107 1.282 . S
C1098 O1099 1.261 . S
C1098 O1111 1.251 . S
O1099 C1098 1.261 . S
H1100 C1094 0.930 . S
H1101 C1096 0.930 . S
N1102 Cu1091 1.985 . S
N1102 C1104 1.335 . S
N1102 C1105 1.390 . S
N1103 C1104 1.345 . S
N1103 C1106 1.336 . S
C1104 N1102 1.335 . S
C1104 N1103 1.345 . S
C1104 H1109 0.930 . S
C1105 N1102 1.390 . S
C1105 C1106 1.346 . S
C1105 H1110 0.930 . S
C1106 N1103 1.336 . S
C1106 C1105 1.346 . S
C1106 H1113 0.929 . S
C1107 O1097 1.282 . S
C1107 O1108 1.216 . S
O1108 C1107 1.216 . S
H1109 C1104 0.930 . S
H1110 C1105 0.930 . S
O1111 Cu1091 1.959 . S
O1111 C1098 1.251 . S
H1112 C1095 0.930 . S
H1113 C1106 0.929 . S
Cu1114 N1115 1.999 . S
Cu1114 O1120 1.974 . S
Cu1114 N1125 1.985 . S
Cu1114 O1134 1.959 . S
N1115 Cu1114 1.999 . S
N1115 C1117 1.263 . S
N1115 C1119 1.389 . S
N1116 C1117 1.358 . S
N1116 C1118 1.400 . S
C1117 N1115 1.263 . S
C1117 N1116 1.358 . S
C1117 H1123 0.930 . S
C1118 N1116 1.400 . S
C1118 C1119 1.351 . S
C1118 H1135 0.930 . S
C1119 N1115 1.389 . S
C1119 C1118 1.351 . S
C1119 H1124 0.930 . S
O1120 Cu1114 1.974 . S
O1120 C1130 1.282 . S
C1121 O1122 1.261 . S
C1121 O1134 1.251 . S
O1122 C1121 1.261 . S
H1123 C1117 0.930 . S
H1124 C1119 0.930 . S
N1125 Cu1114 1.985 . S
N1125 C1127 1.335 . S
N1125 C1128 1.390 . S
N1126 C1127 1.345 . S
N1126 C1129 1.336 . S
C1127 N1125 1.335 . S
C1127 N1126 1.345 . S
C1127 H1132 0.930 . S
C1128 N1125 1.390 . S
C1128 C1129 1.346 . S
C1128 H1133 0.930 . S
C1129 N1126 1.336 . S
C1129 C1128 1.346 . S
C1129 H1136 0.929 . S
C1130 O1120 1.282 . S
C1130 O1131 1.216 . S
O1131 C1130 1.216 . S
H1132 C1127 0.930 . S
H1133 C1128 0.930 . S
O1134 Cu1114 1.959 . S
O1134 C1121 1.251 . S
H1135 C1118 0.930 . S
H1136 C1129 0.929 . S
Cu1137 N1138 1.999 . S
Cu1137 O1143 1.974 . S
Cu1137 N1148 1.985 . S
Cu1137 O1157 1.959 . S
N1138 Cu1137 1.999 . S
N1138 C1140 1.263 . S
N1138 C1142 1.389 . S
N1139 C1140 1.358 . S
N1139 C1141 1.400 . S
C1140 N1138 1.263 . S
C1140 N1139 1.358 . S
C1140 H1146 0.930 . S
C1141 N1139 1.400 . S
C1141 C1142 1.351 . S
C1141 H1158 0.930 . S
C1142 N1138 1.389 . S
C1142 C1141 1.351 . S
C1142 H1147 0.930 . S
O1143 Cu1137 1.974 . S
O1143 C1153 1.282 . S
C1144 O1145 1.261 . S
C1144 O1157 1.251 . S
O1145 C1144 1.261 . S
H1146 C1140 0.930 . S
H1147 C1142 0.930 . S
N1148 Cu1137 1.985 . S
N1148 C1150 1.335 . S
N1148 C1151 1.390 . S
N1149 C1150 1.345 . S
N1149 C1152 1.336 . S
C1150 N1148 1.335 . S
C1150 N1149 1.345 . S
C1150 H1155 0.930 . S
C1151 N1148 1.390 . S
C1151 C1152 1.346 . S
C1151 H1156 0.930 . S
C1152 N1149 1.336 . S
C1152 C1151 1.346 . S
C1152 H1159 0.929 . S
C1153 O1143 1.282 . S
C1153 O1154 1.216 . S
O1154 C1153 1.216 . S
H1155 C1150 0.930 . S
H1156 C1151 0.930 . S
O1157 Cu1137 1.959 . S
O1157 C1144 1.251 . S
H1158 C1141 0.930 . S
H1159 C1152 0.929 . S
C1160 C1161 1.349 . S
C1160 C1162 1.327 . S
C1160 H1185 0.950 . S
C1161 C1160 1.349 . S
C1161 C1177 1.349 . S
C1162 C1160 1.327 . S
C1162 C1181 1.429 . S
C1162 H1186 0.950 . S
C1163 C1180 1.574 . S
C1163 C1182 1.368 . S
C1163 H1187 0.949 . S
H1164 C1168 0.949 . S
C1165 C1166 1.349 . S
C1165 C1167 1.327 . S
C1165 H1188 0.950 . S
C1166 C1165 1.349 . S
C1166 C1178 1.349 . S
C1167 C1165 1.327 . S
C1167 C1183 1.429 . S
C1167 H1189 0.950 . S
C1168 H1164 0.949 . S
C1168 C1176 1.574 . S
C1168 C1184 1.368 . S
H1169 C1177 0.950 . S
H1170 C1175 0.950 . S
H1171 C1176 0.949 . S
H1172 C1178 0.950 . S
H1173 C1179 0.950 . S
H1174 C1180 0.949 . S
C1175 H1170 0.950 . S
C1175 C1177 1.327 . S
C1175 C1181 1.429 . S
C1176 C1168 1.574 . S
C1176 H1171 0.949 . S
C1176 C1182 1.368 . S
C1177 C1161 1.349 . S
C1177 H1169 0.950 . S
C1177 C1175 1.327 . S
C1178 C1166 1.349 . S
C1178 H1172 0.950 . S
C1178 C1179 1.327 . S
C1179 H1173 0.950 . S
C1179 C1178 1.327 . S
C1179 C1183 1.429 . S
C1180 C1163 1.574 . S
C1180 H1174 0.949 . S
C1180 C1184 1.368 . S
C1181 C1162 1.429 . S
C1181 C1175 1.429 . S
C1181 C1182 1.523 . S
C1182 C1163 1.368 . S
C1182 C1176 1.368 . S
C1182 C1181 1.523 . S
C1183 C1167 1.429 . S
C1183 C1179 1.429 . S
C1183 C1184 1.523 . S
C1184 C1168 1.368 . S
C1184 C1180 1.368 . S
C1184 C1183 1.523 . S
H1185 C1160 0.950 . S
H1186 C1162 0.950 . S
H1187 C1163 0.949 . S
H1188 C1165 0.950 . S
H1189 C1167 0.950 . S
C1190 C1191 1.349 . S
C1190 C1192 1.327 . S
C1190 H1215 0.950 . S
C1191 C1190 1.349 . S
C1191 C1207 1.349 . S
C1192 C1190 1.327 . S
C1192 C1211 1.429 . S
C1192 H1216 0.950 . S
C1193 C1210 1.574 . S
C1193 C1212 1.368 . S
C1193 H1217 0.949 . S
H1194 C1198 0.949 . S
C1195 C1196 1.349 . S
C1195 C1197 1.327 . S
C1195 H1218 0.950 . S
C1196 C1195 1.349 . S
C1196 C1208 1.349 . S
C1197 C1195 1.327 . S
C1197 C1213 1.429 . S
C1197 H1219 0.950 . S
C1198 H1194 0.949 . S
C1198 C1206 1.574 . S
C1198 C1214 1.368 . S
H1199 C1207 0.950 . S
H1200 C1205 0.950 . S
H1201 C1206 0.949 . S
H1202 C1208 0.950 . S
H1203 C1209 0.950 . S
H1204 C1210 0.949 . S
C1205 H1200 0.950 . S
C1205 C1207 1.327 . S
C1205 C1211 1.429 . S
C1206 C1198 1.574 . S
C1206 H1201 0.949 . S
C1206 C1212 1.368 . S
C1207 C1191 1.349 . S
C1207 H1199 0.950 . S
C1207 C1205 1.327 . S
C1208 C1196 1.349 . S
C1208 H1202 0.950 . S
C1208 C1209 1.327 . S
C1209 H1203 0.950 . S
C1209 C1208 1.327 . S
C1209 C1213 1.429 . S
C1210 C1193 1.574 . S
C1210 H1204 0.949 . S
C1210 C1214 1.368 . S
C1211 C1192 1.429 . S
C1211 C1205 1.429 . S
C1211 C1212 1.523 . S
C1212 C1193 1.368 . S
C1212 C1206 1.368 . S
C1212 C1211 1.523 . S
C1213 C1197 1.429 . S
C1213 C1209 1.429 . S
C1213 C1214 1.523 . S
C1214 C1198 1.368 . S
C1214 C1210 1.368 . S
C1214 C1213 1.523 . S
H1215 C1190 0.950 . S
H1216 C1192 0.950 . S
H1217 C1193 0.949 . S
H1218 C1195 0.950 . S
H1219 C1197 0.950 . S
C1220 C1221 1.349 . S
C1220 C1222 1.327 . S
C1220 H1245 0.950 . S
C1221 C1220 1.349 . S
C1221 C1237 1.349 . S
C1222 C1220 1.327 . S
C1222 C1241 1.429 . S
C1222 H1246 0.950 . S
C1223 C1240 1.574 . S
C1223 C1242 1.368 . S
C1223 H1247 0.949 . S
H1224 C1228 0.949 . S
C1225 C1226 1.349 . S
C1225 C1227 1.327 . S
C1225 H1248 0.950 . S
C1226 C1225 1.349 . S
C1226 C1238 1.349 . S
C1227 C1225 1.327 . S
C1227 C1243 1.429 . S
C1227 H1249 0.950 . S
C1228 H1224 0.949 . S
C1228 C1236 1.574 . S
C1228 C1244 1.368 . S
H1229 C1237 0.950 . S
H1230 C1235 0.950 . S
H1231 C1236 0.949 . S
H1232 C1238 0.950 . S
H1233 C1239 0.950 . S
H1234 C1240 0.949 . S
C1235 H1230 0.950 . S
C1235 C1237 1.327 . S
C1235 C1241 1.429 . S
C1236 C1228 1.574 . S
C1236 H1231 0.949 . S
C1236 C1242 1.368 . S
C1237 C1221 1.349 . S
C1237 H1229 0.950 . S
C1237 C1235 1.327 . S
C1238 C1226 1.349 . S
C1238 H1232 0.950 . S
C1238 C1239 1.327 . S
C1239 H1233 0.950 . S
C1239 C1238 1.327 . S
C1239 C1243 1.429 . S
C1240 C1223 1.574 . S
C1240 H1234 0.949 . S
C1240 C1244 1.368 . S
C1241 C1222 1.429 . S
C1241 C1235 1.429 . S
C1241 C1242 1.523 . S
C1242 C1223 1.368 . S
C1242 C1236 1.368 . S
C1242 C1241 1.523 . S
C1243 C1227 1.429 . S
C1243 C1239 1.429 . S
C1243 C1244 1.523 . S
C1244 C1228 1.368 . S
C1244 C1240 1.368 . S
C1244 C1243 1.523 . S
H1245 C1220 0.950 . S
H1246 C1222 0.950 . S
H1247 C1223 0.949 . S
H1248 C1225 0.950 . S
H1249 C1227 0.950 . S
C1250 C1251 1.349 . S
C1250 C1252 1.327 . S
C1250 H1275 0.950 . S
C1251 C1250 1.349 . S
C1251 C1267 1.349 . S
C1252 C1250 1.327 . S
C1252 C1271 1.429 . S
C1252 H1276 0.950 . S
C1253 C1270 1.574 . S
C1253 C1272 1.368 . S
C1253 H1277 0.949 . S
H1254 C1258 0.949 . S
C1255 C1256 1.349 . S
C1255 C1257 1.327 . S
C1255 H1278 0.950 . S
C1256 C1255 1.349 . S
C1256 C1268 1.349 . S
C1257 C1255 1.327 . S
C1257 C1273 1.429 . S
C1257 H1279 0.950 . S
C1258 H1254 0.949 . S
C1258 C1266 1.574 . S
C1258 C1274 1.368 . S
H1259 C1267 0.950 . S
H1260 C1265 0.950 . S
H1261 C1266 0.949 . S
H1262 C1268 0.950 . S
H1263 C1269 0.950 . S
H1264 C1270 0.949 . S
C1265 H1260 0.950 . S
C1265 C1267 1.327 . S
C1265 C1271 1.429 . S
C1266 C1258 1.574 . S
C1266 H1261 0.949 . S
C1266 C1272 1.368 . S
C1267 C1251 1.349 . S
C1267 H1259 0.950 . S
C1267 C1265 1.327 . S
C1268 C1256 1.349 . S
C1268 H1262 0.950 . S
C1268 C1269 1.327 . S
C1269 H1263 0.950 . S
C1269 C1268 1.327 . S
C1269 C1273 1.429 . S
C1270 C1253 1.574 . S
C1270 H1264 0.949 . S
C1270 C1274 1.368 . S
C1271 C1252 1.429 . S
C1271 C1265 1.429 . S
C1271 C1272 1.523 . S
C1272 C1253 1.368 . S
C1272 C1266 1.368 . S
C1272 C1271 1.523 . S
C1273 C1257 1.429 . S
C1273 C1269 1.429 . S
C1273 C1274 1.523 . S
C1274 C1258 1.368 . S
C1274 C1270 1.368 . S
C1274 C1273 1.523 . S
H1275 C1250 0.950 . S
H1276 C1252 0.950 . S
H1277 C1253 0.949 . S
H1278 C1255 0.950 . S
H1279 C1257 0.950 . S
C1280 C1281 1.349 . S
C1280 C1282 1.327 . S
C1280 H1305 0.950 . S
C1281 C1280 1.349 . S
C1281 C1297 1.349 . S
C1282 C1280 1.327 . S
C1282 C1301 1.429 . S
C1282 H1306 0.950 . S
C1283 C1300 1.574 . S
C1283 C1302 1.368 . S
C1283 H1307 0.949 . S
H1284 C1288 0.949 . S
C1285 C1286 1.349 . S
C1285 C1287 1.327 . S
C1285 H1308 0.950 . S
C1286 C1285 1.349 . S
C1286 C1298 1.349 . S
C1287 C1285 1.327 . S
C1287 C1303 1.429 . S
C1287 H1309 0.950 . S
C1288 H1284 0.949 . S
C1288 C1296 1.574 . S
C1288 C1304 1.368 . S
H1289 C1297 0.950 . S
H1290 C1295 0.950 . S
H1291 C1296 0.949 . S
H1292 C1298 0.950 . S
H1293 C1299 0.950 . S
H1294 C1300 0.949 . S
C1295 H1290 0.950 . S
C1295 C1297 1.327 . S
C1295 C1301 1.429 . S
C1296 C1288 1.574 . S
C1296 H1291 0.949 . S
C1296 C1302 1.368 . S
C1297 C1281 1.349 . S
C1297 H1289 0.950 . S
C1297 C1295 1.327 . S
C1298 C1286 1.349 . S
C1298 H1292 0.950 . S
C1298 C1299 1.327 . S
C1299 H1293 0.950 . S
C1299 C1298 1.327 . S
C1299 C1303 1.429 . S
C1300 C1283 1.574 . S
C1300 H1294 0.949 . S
C1300 C1304 1.368 . S
C1301 C1282 1.429 . S
C1301 C1295 1.429 . S
C1301 C1302 1.523 . S
C1302 C1283 1.368 . S
C1302 C1296 1.368 . S
C1302 C1301 1.523 . S
C1303 C1287 1.429 . S
C1303 C1299 1.429 . S
C1303 C1304 1.523 . S
C1304 C1288 1.368 . S
C1304 C1300 1.368 . S
C1304 C1303 1.523 . S
H1305 C1280 0.950 . S
H1306 C1282 0.950 . S
H1307 C1283 0.949 . S
H1308 C1285 0.950 . S
H1309 C1287 0.950 . S
C1310 C1311 1.349 . S
C1310 C1312 1.327 . S
C1310 H1335 0.950 . S
C1311 C1310 1.349 . S
C1311 C1327 1.349 . S
C1312 C1310 1.327 . S
C1312 C1331 1.429 . S
C1312 H1336 0.950 . S
C1313 C1330 1.574 . S
C1313 C1332 1.368 . S
C1313 H1337 0.949 . S
H1314 C1318 0.949 . S
C1315 C1316 1.349 . S
C1315 C1317 1.327 . S
C1315 H1338 0.950 . S
C1316 C1315 1.349 . S
C1316 C1328 1.349 . S
C1317 C1315 1.327 . S
C1317 C1333 1.429 . S
C1317 H1339 0.950 . S
C1318 H1314 0.949 . S
C1318 C1326 1.574 . S
C1318 C1334 1.368 . S
H1319 C1327 0.950 . S
H1320 C1325 0.950 . S
H1321 C1326 0.949 . S
H1322 C1328 0.950 . S
H1323 C1329 0.950 . S
H1324 C1330 0.949 . S
C1325 H1320 0.950 . S
C1325 C1327 1.327 . S
C1325 C1331 1.429 . S
C1326 C1318 1.574 . S
C1326 H1321 0.949 . S
C1326 C1332 1.368 . S
C1327 C1311 1.349 . S
C1327 H1319 0.950 . S
C1327 C1325 1.327 . S
C1328 C1316 1.349 . S
C1328 H1322 0.950 . S
C1328 C1329 1.327 . S
C1329 H1323 0.950 . S
C1329 C1328 1.327 . S
C1329 C1333 1.429 . S
C1330 C1313 1.574 . S
C1330 H1324 0.949 . S
C1330 C1334 1.368 . S
C1331 C1312 1.429 . S
C1331 C1325 1.429 . S
C1331 C1332 1.523 . S
C1332 C1313 1.368 . S
C1332 C1326 1.368 . S
C1332 C1331 1.523 . S
C1333 C1317 1.429 . S
C1333 C1329 1.429 . S
C1333 C1334 1.523 . S
C1334 C1318 1.368 . S
C1334 C1330 1.368 . S
C1334 C1333 1.523 . S
H1335 C1310 0.950 . S
H1336 C1312 0.950 . S
H1337 C1313 0.949 . S
H1338 C1315 0.950 . S
H1339 C1317 0.950 . S
C1340 C1341 1.349 . S
C1340 C1342 1.327 . S
C1340 H1365 0.950 . S
C1341 C1340 1.349 . S
C1341 C1357 1.349 . S
C1342 C1340 1.327 . S
C1342 C1361 1.429 . S
C1342 H1366 0.950 . S
C1343 C1360 1.574 . S
C1343 C1362 1.368 . S
C1343 H1367 0.949 . S
H1344 C1348 0.949 . S
C1345 C1346 1.349 . S
C1345 C1347 1.327 . S
C1345 H1368 0.950 . S
C1346 C1345 1.349 . S
C1346 C1358 1.349 . S
C1347 C1345 1.327 . S
C1347 C1363 1.429 . S
C1347 H1369 0.950 . S
C1348 H1344 0.949 . S
C1348 C1356 1.574 . S
C1348 C1364 1.368 . S
H1349 C1357 0.950 . S
H1350 C1355 0.950 . S
H1351 C1356 0.949 . S
H1352 C1358 0.950 . S
H1353 C1359 0.950 . S
H1354 C1360 0.949 . S
C1355 H1350 0.950 . S
C1355 C1357 1.327 . S
C1355 C1361 1.429 . S
C1356 C1348 1.574 . S
C1356 H1351 0.949 . S
C1356 C1362 1.368 . S
C1357 C1341 1.349 . S
C1357 H1349 0.950 . S
C1357 C1355 1.327 . S
C1358 C1346 1.349 . S
C1358 H1352 0.950 . S
C1358 C1359 1.327 . S
C1359 H1353 0.950 . S
C1359 C1358 1.327 . S
C1359 C1363 1.429 . S
C1360 C1343 1.574 . S
C1360 H1354 0.949 . S
C1360 C1364 1.368 . S
C1361 C1342 1.429 . S
C1361 C1355 1.429 . S
C1361 C1362 1.523 . S
C1362 C1343 1.368 . S
C1362 C1356 1.368 . S
C1362 C1361 1.523 . S
C1363 C1347 1.429 . S
C1363 C1359 1.429 . S
C1363 C1364 1.523 . S
C1364 C1348 1.368 . S
C1364 C1360 1.368 . S
C1364 C1363 1.523 . S
H1365 C1340 0.950 . S
H1366 C1342 0.950 . S
H1367 C1343 0.949 . S
H1368 C1345 0.950 . S
H1369 C1347 0.950 . S
C1370 C1371 1.349 . S
C1370 C1372 1.327 . S
C1370 H1395 0.950 . S
C1371 C1370 1.349 . S
C1371 C1387 1.349 . S
C1372 C1370 1.327 . S
C1372 C1391 1.429 . S
C1372 H1396 0.950 . S
C1373 C1390 1.574 . S
C1373 C1392 1.368 . S
C1373 H1397 0.949 . S
H1374 C1378 0.949 . S
C1375 C1376 1.349 . S
C1375 C1377 1.327 . S
C1375 H1398 0.950 . S
C1376 C1375 1.349 . S
C1376 C1388 1.349 . S
C1377 C1375 1.327 . S
C1377 C1393 1.429 . S
C1377 H1399 0.950 . S
C1378 H1374 0.949 . S
C1378 C1386 1.574 . S
C1378 C1394 1.368 . S
H1379 C1387 0.950 . S
H1380 C1385 0.950 . S
H1381 C1386 0.949 . S
H1382 C1388 0.950 . S
H1383 C1389 0.950 . S
H1384 C1390 0.949 . S
C1385 H1380 0.950 . S
C1385 C1387 1.327 . S
C1385 C1391 1.429 . S
C1386 C1378 1.574 . S
C1386 H1381 0.949 . S
C1386 C1392 1.368 . S
C1387 C1371 1.349 . S
C1387 H1379 0.950 . S
C1387 C1385 1.327 . S
C1388 C1376 1.349 . S
C1388 H1382 0.950 . S
C1388 C1389 1.327 . S
C1389 H1383 0.950 . S
C1389 C1388 1.327 . S
C1389 C1393 1.429 . S
C1390 C1373 1.574 . S
C1390 H1384 0.949 . S
C1390 C1394 1.368 . S
C1391 C1372 1.429 . S
C1391 C1385 1.429 . S
C1391 C1392 1.523 . S
C1392 C1373 1.368 . S
C1392 C1386 1.368 . S
C1392 C1391 1.523 . S
C1393 C1377 1.429 . S
C1393 C1389 1.429 . S
C1393 C1394 1.523 . S
C1394 C1378 1.368 . S
C1394 C1390 1.368 . S
C1394 C1393 1.523 . S
H1395 C1370 0.950 . S
H1396 C1372 0.950 . S
H1397 C1373 0.949 . S
H1398 C1375 0.950 . S
H1399 C1377 0.950 . S
C1400 C1401 1.349 . S
C1400 C1402 1.327 . S
C1400 H1425 0.950 . S
C1401 C1400 1.349 . S
C1401 C1417 1.349 . S
C1402 C1400 1.327 . S
C1402 C1421 1.429 . S
C1402 H1426 0.950 . S
C1403 C1420 1.574 . S
C1403 C1422 1.368 . S
C1403 H1427 0.949 . S
H1404 C1408 0.949 . S
C1405 C1406 1.349 . S
C1405 C1407 1.327 . S
C1405 H1428 0.950 . S
C1406 C1405 1.349 . S
C1406 C1418 1.349 . S
C1407 C1405 1.327 . S
C1407 C1423 1.429 . S
C1407 H1429 0.950 . S
C1408 H1404 0.949 . S
C1408 C1416 1.574 . S
C1408 C1424 1.368 . S
H1409 C1417 0.950 . S
H1410 C1415 0.950 . S
H1411 C1416 0.949 . S
H1412 C1418 0.950 . S
H1413 C1419 0.950 . S
H1414 C1420 0.949 . S
C1415 H1410 0.950 . S
C1415 C1417 1.327 . S
C1415 C1421 1.429 . S
C1416 C1408 1.574 . S
C1416 H1411 0.949 . S
C1416 C1422 1.368 . S
C1417 C1401 1.349 . S
C1417 H1409 0.950 . S
C1417 C1415 1.327 . S
C1418 C1406 1.349 . S
C1418 H1412 0.950 . S
C1418 C1419 1.327 . S
C1419 H1413 0.950 . S
C1419 C1418 1.327 . S
C1419 C1423 1.429 . S
C1420 C1403 1.574 . S
C1420 H1414 0.949 . S
C1420 C1424 1.368 . S
C1421 C1402 1.429 . S
C1421 C1415 1.429 . S
C1421 C1422 1.523 . S
C1422 C1403 1.368 . S
C1422 C1416 1.368 . S
C1422 C1421 1.523 . S
C1423 C1407 1.429 . S
C1423 C1419 1.429 . S
C1423 C1424 1.523 . S
C1424 C1408 1.368 . S
C1424 C1420 1.368 . S
C1424 C1423 1.523 . S
H1425 C1400 0.950 . S
H1426 C1402 0.950 . S
H1427 C1403 0.949 . S
H1428 C1405 0.950 . S
H1429 C1407 0.950 . S
C1430 C1431 1.349 . S
C1430 C1432 1.327 . S
C1430 H1455 0.950 . S
C1431 C1430 1.349 . S
C1431 C1447 1.349 . S
C1432 C1430 1.327 . S
C1432 C1451 1.429 . S
C1432 H1456 0.950 . S
C1433 C1450 1.574 . S
C1433 C1452 1.368 . S
C1433 H1457 0.949 . S
H1434 C1438 0.949 . S
C1435 C1436 1.349 . S
C1435 C1437 1.327 . S
C1435 H1458 0.950 . S
C1436 C1435 1.349 . S
C1436 C1448 1.349 . S
C1437 C1435 1.327 . S
C1437 C1453 1.429 . S
C1437 H1459 0.950 . S
C1438 H1434 0.949 . S
C1438 C1446 1.574 . S
C1438 C1454 1.368 . S
H1439 C1447 0.950 . S
H1440 C1445 0.950 . S
H1441 C1446 0.949 . S
H1442 C1448 0.950 . S
H1443 C1449 0.950 . S
H1444 C1450 0.949 . S
C1445 H1440 0.950 . S
C1445 C1447 1.327 . S
C1445 C1451 1.429 . S
C1446 C1438 1.574 . S
C1446 H1441 0.949 . S
C1446 C1452 1.368 . S
C1447 C1431 1.349 . S
C1447 H1439 0.950 . S
C1447 C1445 1.327 . S
C1448 C1436 1.349 . S
C1448 H1442 0.950 . S
C1448 C1449 1.327 . S
C1449 H1443 0.950 . S
C1449 C1448 1.327 . S
C1449 C1453 1.429 . S
C1450 C1433 1.574 . S
C1450 H1444 0.949 . S
C1450 C1454 1.368 . S
C1451 C1432 1.429 . S
C1451 C1445 1.429 . S
C1451 C1452 1.523 . S
C1452 C1433 1.368 . S
C1452 C1446 1.368 . S
C1452 C1451 1.523 . S
C1453 C1437 1.429 . S
C1453 C1449 1.429 . S
C1453 C1454 1.523 . S
C1454 C1438 1.368 . S
C1454 C1450 1.368 . S
C1454 C1453 1.523 . S
H1455 C1430 0.950 . S
H1456 C1432 0.950 . S
H1457 C1433 0.949 . S
H1458 C1435 0.950 . S
H1459 C1437 0.950 . S
C1460 C1461 1.349 . S
C1460 C1462 1.327 . S
C1460 H1485 0.950 . S
C1461 C1460 1.349 . S
C1461 C1477 1.349 . S
C1462 C1460 1.327 . S
C1462 C1481 1.429 . S
C1462 H1486 0.950 . S
C1463 C1480 1.574 . S
C1463 C1482 1.368 . S
C1463 H1487 0.949 . S
H1464 C1468 0.949 . S
C1465 C1466 1.349 . S
C1465 C1467 1.327 . S
C1465 H1488 0.950 . S
C1466 C1465 1.349 . S
C1466 C1478 1.349 . S
C1467 C1465 1.327 . S
C1467 C1483 1.429 . S
C1467 H1489 0.950 . S
C1468 H1464 0.949 . S
C1468 C1476 1.574 . S
C1468 C1484 1.368 . S
H1469 C1477 0.950 . S
H1470 C1475 0.950 . S
H1471 C1476 0.949 . S
H1472 C1478 0.950 . S
H1473 C1479 0.950 . S
H1474 C1480 0.949 . S
C1475 H1470 0.950 . S
C1475 C1477 1.327 . S
C1475 C1481 1.429 . S
C1476 C1468 1.574 . S
C1476 H1471 0.949 . S
C1476 C1482 1.368 . S
C1477 C1461 1.349 . S
C1477 H1469 0.950 . S
C1477 C1475 1.327 . S
C1478 C1466 1.349 . S
C1478 H1472 0.950 . S
C1478 C1479 1.327 . S
C1479 H1473 0.950 . S
C1479 C1478 1.327 . S
C1479 C1483 1.429 . S
C1480 C1463 1.574 . S
C1480 H1474 0.949 . S
C1480 C1484 1.368 . S
C1481 C1462 1.429 . S
C1481 C1475 1.429 . S
C1481 C1482 1.523 . S
C1482 C1463 1.368 . S
C1482 C1476 1.368 . S
C1482 C1481 1.523 . S
C1483 C1467 1.429 . S
C1483 C1479 1.429 . S
C1483 C1484 1.523 . S
C1484 C1468 1.368 . S
C1484 C1480 1.368 . S
C1484 C1483 1.523 . S
H1485 C1460 0.950 . S
H1486 C1462 0.950 . S
H1487 C1463 0.949 . S
H1488 C1465 0.950 . S
H1489 C1467 0.950 . S
C1490 C1491 1.349 . S
C1490 C1492 1.327 . S
C1490 H1515 0.950 . S
C1491 C1490 1.349 . S
C1491 C1507 1.349 . S
C1492 C1490 1.327 . S
C1492 C1511 1.429 . S
C1492 H1516 0.950 . S
C1493 C1510 1.574 . S
C1493 C1512 1.368 . S
C1493 H1517 0.949 . S
H1494 C1498 0.949 . S
C1495 C1496 1.349 . S
C1495 C1497 1.327 . S
C1495 H1518 0.950 . S
C1496 C1495 1.349 . S
C1496 C1508 1.349 . S
C1497 C1495 1.327 . S
C1497 C1513 1.429 . S
C1497 H1519 0.950 . S
C1498 H1494 0.949 . S
C1498 C1506 1.574 . S
C1498 C1514 1.368 . S
H1499 C1507 0.950 . S
H1500 C1505 0.950 . S
H1501 C1506 0.949 . S
H1502 C1508 0.950 . S
H1503 C1509 0.950 . S
H1504 C1510 0.949 . S
C1505 H1500 0.950 . S
C1505 C1507 1.327 . S
C1505 C1511 1.429 . S
C1506 C1498 1.574 . S
C1506 H1501 0.949 . S
C1506 C1512 1.368 . S
C1507 C1491 1.349 . S
C1507 H1499 0.950 . S
C1507 C1505 1.327 . S
C1508 C1496 1.349 . S
C1508 H1502 0.950 . S
C1508 C1509 1.327 . S
C1509 H1503 0.950 . S
C1509 C1508 1.327 . S
C1509 C1513 1.429 . S
C1510 C1493 1.574 . S
C1510 H1504 0.949 . S
C1510 C1514 1.368 . S
C1511 C1492 1.429 . S
C1511 C1505 1.429 . S
C1511 C1512 1.523 . S
C1512 C1493 1.368 . S
C1512 C1506 1.368 . S
C1512 C1511 1.523 . S
C1513 C1497 1.429 . S
C1513 C1509 1.429 . S
C1513 C1514 1.523 . S
C1514 C1498 1.368 . S
C1514 C1510 1.368 . S
C1514 C1513 1.523 . S
H1515 C1490 0.950 . S
H1516 C1492 0.950 . S
H1517 C1493 0.949 . S
H1518 C1495 0.950 . S
H1519 C1497 0.950 . S
C1520 C1521 1.349 . S
C1520 C1522 1.327 . S
C1520 H1545 0.950 . S
C1521 C1520 1.349 . S
C1521 C1537 1.349 . S
C1522 C1520 1.327 . S
C1522 C1541 1.429 . S
C1522 H1546 0.950 . S
C1523 C1540 1.574 . S
C1523 C1542 1.368 . S
C1523 H1547 0.949 . S
H1524 C1528 0.949 . S
C1525 C1526 1.349 . S
C1525 C1527 1.327 . S
C1525 H1548 0.950 . S
C1526 C1525 1.349 . S
C1526 C1538 1.349 . S
C1527 C1525 1.327 . S
C1527 C1543 1.429 . S
C1527 H1549 0.950 . S
C1528 H1524 0.949 . S
C1528 C1536 1.574 . S
C1528 C1544 1.368 . S
H1529 C1537 0.950 . S
H1530 C1535 0.950 . S
H1531 C1536 0.949 . S
H1532 C1538 0.950 . S
H1533 C1539 0.950 . S
H1534 C1540 0.949 . S
C1535 H1530 0.950 . S
C1535 C1537 1.327 . S
C1535 C1541 1.429 . S
C1536 C1528 1.574 . S
C1536 H1531 0.949 . S
C1536 C1542 1.368 . S
C1537 C1521 1.349 . S
C1537 H1529 0.950 . S
C1537 C1535 1.327 . S
C1538 C1526 1.349 . S
C1538 H1532 0.950 . S
C1538 C1539 1.327 . S
C1539 H1533 0.950 . S
C1539 C1538 1.327 . S
C1539 C1543 1.429 . S
C1540 C1523 1.574 . S
C1540 H1534 0.949 . S
C1540 C1544 1.368 . S
C1541 C1522 1.429 . S
C1541 C1535 1.429 . S
C1541 C1542 1.523 . S
C1542 C1523 1.368 . S
C1542 C1536 1.368 . S
C1542 C1541 1.523 . S
C1543 C1527 1.429 . S
C1543 C1539 1.429 . S
C1543 C1544 1.523 . S
C1544 C1528 1.368 . S
C1544 C1540 1.368 . S
C1544 C1543 1.523 . S
H1545 C1520 0.950 . S
H1546 C1522 0.950 . S
H1547 C1523 0.949 . S
H1548 C1525 0.950 . S
H1549 C1527 0.950 . S
C1550 C1551 1.349 . S
C1550 C1552 1.327 . S
C1550 H1575 0.950 . S
C1551 C1550 1.349 . S
C1551 C1567 1.349 . S
C1552 C1550 1.327 . S
C1552 C1571 1.429 . S
C1552 H1576 0.950 . S
C1553 C1570 1.574 . S
C1553 C1572 1.368 . S
C1553 H1577 0.949 . S
H1554 C1558 0.949 . S
C1555 C1556 1.349 . S
C1555 C1557 1.327 . S
C1555 H1578 0.950 . S
C1556 C1555 1.349 . S
C1556 C1568 1.349 . S
C1557 C1555 1.327 . S
C1557 C1573 1.429 . S
C1557 H1579 0.950 . S
C1558 H1554 0.949 . S
C1558 C1566 1.574 . S
C1558 C1574 1.368 . S
H1559 C1567 0.950 . S
H1560 C1565 0.950 . S
H1561 C1566 0.949 . S
H1562 C1568 0.950 . S
H1563 C1569 0.950 . S
H1564 C1570 0.949 . S
C1565 H1560 0.950 . S
C1565 C1567 1.327 . S
C1565 C1571 1.429 . S
C1566 C1558 1.574 . S
C1566 H1561 0.949 . S
C1566 C1572 1.368 . S
C1567 C1551 1.349 . S
C1567 H1559 0.950 . S
C1567 C1565 1.327 . S
C1568 C1556 1.349 . S
C1568 H1562 0.950 . S
C1568 C1569 1.327 . S
C1569 H1563 0.950 . S
C1569 C1568 1.327 . S
C1569 C1573 1.429 . S
C1570 C1553 1.574 . S
C1570 H1564 0.949 . S
C1570 C1574 1.368 . S
C1571 C1552 1.429 . S
C1571 C1565 1.429 . S
C1571 C1572 1.523 . S
C1572 C1553 1.368 . S
C1572 C1566 1.368 . S
C1572 C1571 1.523 . S
C1573 C1557 1.429 . S
C1573 C1569 1.429 . S
C1573 C1574 1.523 . S
C1574 C1558 1.368 . S
C1574 C1570 1.368 . S
C1574 C1573 1.523 . S
H1575 C1550 0.950 . S
H1576 C1552 0.950 . S
H1577 C1553 0.949 . S
H1578 C1555 0.950 . S
H1579 C1557 0.950 . S
C1580 C1581 1.349 . S
C1580 C1582 1.327 . S
C1580 H1605 0.950 . S
C1581 C1580 1.349 . S
C1581 C1597 1.349 . S
C1582 C1580 1.327 . S
C1582 C1601 1.429 . S
C1582 H1606 0.950 . S
C1583 C1600 1.574 . S
C1583 C1602 1.368 . S
C1583 H1607 0.949 . S
H1584 C1588 0.949 . S
C1585 C1586 1.349 . S
C1585 C1587 1.327 . S
C1585 H1608 0.950 . S
C1586 C1585 1.349 . S
C1586 C1598 1.349 . S
C1587 C1585 1.327 . S
C1587 C1603 1.429 . S
C1587 H1609 0.950 . S
C1588 H1584 0.949 . S
C1588 C1596 1.574 . S
C1588 C1604 1.368 . S
H1589 C1597 0.950 . S
H1590 C1595 0.950 . S
H1591 C1596 0.949 . S
H1592 C1598 0.899 1_455 S
H1593 C1599 0.950 . S
H1594 C1600 0.949 . S
C1595 H1590 0.950 . S
C1595 C1597 1.327 . S
C1595 C1601 1.429 . S
C1596 C1588 1.574 . S
C1596 H1591 0.949 . S
C1596 C1602 1.368 . S
C1597 C1581 1.349 . S
C1597 H1589 0.950 . S
C1597 C1595 1.327 . S
C1598 C1586 1.349 . S
C1598 H1592 0.899 1_655 S
C1598 C1599 1.327 . S
C1599 H1593 0.950 . S
C1599 C1598 1.327 . S
C1599 C1603 1.429 . S
C1600 C1583 1.574 . S
C1600 H1594 0.949 . S
C1600 C1604 1.368 . S
C1601 C1582 1.429 . S
C1601 C1595 1.429 . S
C1601 C1602 1.523 . S
C1602 C1583 1.368 . S
C1602 C1596 1.368 . S
C1602 C1601 1.523 . S
C1603 C1587 1.429 . S
C1603 C1599 1.429 . S
C1603 C1604 1.523 . S
C1604 C1588 1.368 . S
C1604 C1600 1.368 . S
C1604 C1603 1.523 . S
H1605 C1580 0.950 . S
H1606 C1582 0.950 . S
H1607 C1583 0.949 . S
H1608 C1585 0.950 . S
H1609 C1587 0.950 . S
C1610 C1611 1.349 . S
C1610 C1612 1.327 . S
C1610 H1635 0.950 . S
C1611 C1610 1.349 . S
C1611 C1627 1.349 . S
C1612 C1610 1.327 . S
C1612 C1631 1.429 . S
C1612 H1636 0.950 . S
C1613 C1630 1.574 . S
C1613 C1632 1.368 . S
C1613 H1637 0.949 . S
H1614 C1618 0.949 . S
C1615 C1616 1.349 . S
C1615 C1617 1.327 . S
C1615 H1638 0.950 . S
C1616 C1615 1.349 . S
C1616 C1628 1.349 . S
C1617 C1615 1.327 . S
C1617 C1633 1.429 . S
C1617 H1639 0.950 . S
C1618 H1614 0.949 . S
C1618 C1626 1.574 . S
C1618 C1634 1.368 . S
H1619 C1627 0.950 . S
H1620 C1625 0.950 . S
H1621 C1626 0.949 . S
H1622 C1628 0.950 1_545 S
H1623 C1629 0.950 . S
H1624 C1630 0.949 . S
C1625 H1620 0.950 . S
C1625 C1627 1.327 . S
C1625 C1631 1.429 . S
C1626 C1618 1.574 . S
C1626 H1621 0.949 . S
C1626 C1632 1.368 . S
C1627 C1611 1.349 . S
C1627 H1619 0.950 . S
C1627 C1625 1.327 . S
C1628 C1616 1.349 . S
C1628 H1622 0.950 1_565 S
C1628 C1629 1.327 . S
C1629 H1623 0.950 . S
C1629 C1628 1.327 . S
C1629 C1633 1.429 . S
C1630 C1613 1.574 . S
C1630 H1624 0.949 . S
C1630 C1634 1.368 . S
C1631 C1612 1.429 . S
C1631 C1625 1.429 . S
C1631 C1632 1.523 . S
C1632 C1613 1.368 . S
C1632 C1626 1.368 . S
C1632 C1631 1.523 . S
C1633 C1617 1.429 . S
C1633 C1629 1.429 . S
C1633 C1634 1.523 . S
C1634 C1618 1.368 . S
C1634 C1630 1.368 . S
C1634 C1633 1.523 . S
H1635 C1610 0.950 . S
H1636 C1612 0.950 . S
H1637 C1613 0.949 . S
H1638 C1615 0.950 . S
H1639 C1617 0.950 . S
C1640 C1641 1.349 . S
C1640 C1642 1.327 . S
C1640 H1665 0.950 . S
C1641 C1640 1.349 . S
C1641 C1657 1.349 . S
C1642 C1640 1.327 . S
C1642 C1661 1.429 . S
C1642 H1666 0.950 . S
C1643 C1660 1.574 . S
C1643 C1662 1.368 . S
C1643 H1667 0.949 . S
H1644 C1648 0.949 . S
C1645 C1646 1.349 . S
C1645 C1647 1.327 . S
C1645 H1668 0.950 . S
C1646 C1645 1.349 . S
C1646 C1658 1.349 . S
C1647 C1645 1.327 . S
C1647 C1663 1.429 . S
C1647 H1669 0.950 . S
C1648 H1644 0.949 . S
C1648 C1656 1.574 . S
C1648 C1664 1.368 . S
H1649 C1657 0.950 . S
H1650 C1655 0.950 . S
H1651 C1656 0.949 . S
H1652 C1658 0.950 . S
H1653 C1659 0.950 . S
H1654 C1660 0.949 . S
C1655 H1650 0.950 . S
C1655 C1657 1.327 . S
C1655 C1661 1.429 . S
C1656 C1648 1.574 . S
C1656 H1651 0.949 . S
C1656 C1662 1.368 . S
C1657 C1641 1.349 . S
C1657 H1649 0.950 . S
C1657 C1655 1.327 . S
C1658 C1646 1.349 . S
C1658 H1652 0.950 . S
C1658 C1659 1.327 . S
C1659 H1653 0.950 . S
C1659 C1658 1.327 . S
C1659 C1663 1.429 . S
C1660 C1643 1.574 . S
C1660 H1654 0.949 . S
C1660 C1664 1.368 . S
C1661 C1642 1.429 . S
C1661 C1655 1.429 . S
C1661 C1662 1.523 . S
C1662 C1643 1.368 . S
C1662 C1656 1.368 . S
C1662 C1661 1.523 . S
C1663 C1647 1.429 . S
C1663 C1659 1.429 . S
C1663 C1664 1.523 . S
C1664 C1648 1.368 . S
C1664 C1660 1.368 . S
C1664 C1663 1.523 . S
H1665 C1640 0.950 . S
H1666 C1642 0.950 . S
H1667 C1643 0.949 . S
H1668 C1645 0.950 . S
H1669 C1647 0.950 . S
C1670 C1671 1.349 . S
C1670 C1672 1.327 . S
C1670 H1695 0.950 . S
C1671 C1670 1.349 . S
C1671 C1687 1.349 . S
C1672 C1670 1.327 . S
C1672 C1691 1.429 . S
C1672 H1696 0.950 . S
C1673 C1690 1.574 . S
C1673 C1692 1.368 . S
C1673 H1697 0.949 . S
H1674 C1678 0.949 . S
C1675 C1676 1.349 . S
C1675 C1677 1.327 . S
C1675 H1698 0.950 . S
C1676 C1675 1.349 . S
C1676 C1688 1.349 . S
C1677 C1675 1.327 . S
C1677 C1693 1.429 . S
C1677 H1699 0.950 . S
C1678 H1674 0.949 . S
C1678 C1686 1.574 . S
C1678 C1694 1.368 . S
H1679 C1687 0.950 . S
H1680 C1685 0.950 . S
H1681 C1686 0.949 . S
H1682 C1688 0.950 . S
H1683 C1689 0.950 . S
H1684 C1690 0.949 . S
C1685 H1680 0.950 . S
C1685 C1687 1.327 . S
C1685 C1691 1.429 . S
C1686 C1678 1.574 . S
C1686 H1681 0.949 . S
C1686 C1692 1.368 . S
C1687 C1671 1.349 . S
C1687 H1679 0.950 . S
C1687 C1685 1.327 . S
C1688 C1676 1.349 . S
C1688 H1682 0.950 . S
C1688 C1689 1.327 . S
C1689 H1683 0.950 . S
C1689 C1688 1.327 . S
C1689 C1693 1.429 . S
C1690 C1673 1.574 . S
C1690 H1684 0.949 . S
C1690 C1694 1.368 . S
C1691 C1672 1.429 . S
C1691 C1685 1.429 . S
C1691 C1692 1.523 . S
C1692 C1673 1.368 . S
C1692 C1686 1.368 . S
C1692 C1691 1.523 . S
C1693 C1677 1.429 . S
C1693 C1689 1.429 . S
C1693 C1694 1.523 . S
C1694 C1678 1.368 . S
C1694 C1690 1.368 . S
C1694 C1693 1.523 . S
H1695 C1670 0.950 . S
H1696 C1672 0.950 . S
H1697 C1673 0.949 . S
H1698 C1675 0.950 . S
H1699 C1677 0.950 . S
C1700 C1701 1.349 . S
C1700 C1702 1.327 . S
C1700 H1725 0.950 . S
C1701 C1700 1.349 . S
C1701 C1717 1.349 . S
C1702 C1700 1.327 . S
C1702 C1721 1.429 . S
C1702 H1726 0.950 . S
C1703 C1720 1.574 . S
C1703 C1722 1.368 . S
C1703 H1727 0.949 . S
H1704 C1708 0.949 . S
C1705 C1706 1.349 . S
C1705 C1707 1.327 . S
C1705 H1728 0.950 . S
C1706 C1705 1.349 . S
C1706 C1718 1.349 . S
C1707 C1705 1.327 . S
C1707 C1723 1.429 . S
C1707 H1729 0.950 . S
C1708 H1704 0.949 . S
C1708 C1716 1.574 . S
C1708 C1724 1.368 . S
H1709 C1717 0.950 . S
H1710 C1715 0.950 . S
H1711 C1716 0.949 . S
H1712 C1718 0.950 . S
H1713 C1719 0.950 . S
H1714 C1720 0.949 . S
C1715 H1710 0.950 . S
C1715 C1717 1.327 . S
C1715 C1721 1.429 . S
C1716 C1708 1.574 . S
C1716 H1711 0.949 . S
C1716 C1722 1.368 . S
C1717 C1701 1.349 . S
C1717 H1709 0.950 . S
C1717 C1715 1.327 . S
C1718 C1706 1.349 . S
C1718 H1712 0.950 . S
C1718 C1719 1.327 . S
C1719 H1713 0.950 . S
C1719 C1718 1.327 . S
C1719 C1723 1.429 . S
C1720 C1703 1.574 . S
C1720 H1714 0.949 . S
C1720 C1724 1.368 . S
C1721 C1702 1.429 . S
C1721 C1715 1.429 . S
C1721 C1722 1.523 . S
C1722 C1703 1.368 . S
C1722 C1716 1.368 . S
C1722 C1721 1.523 . S
C1723 C1707 1.429 . S
C1723 C1719 1.429 . S
C1723 C1724 1.523 . S
C1724 C1708 1.368 . S
C1724 C1720 1.368 . S
C1724 C1723 1.523 . S
H1725 C1700 0.950 . S
H1726 C1702 0.950 . S
H1727 C1703 0.949 . S
H1728 C1705 0.950 . S
H1729 C1707 0.950 . S
C1730 C1731 1.349 . S
C1730 C1732 1.327 . S
C1730 H1755 0.950 . S
C1731 C1730 1.349 . S
C1731 C1747 1.349 . S
C1732 C1730 1.327 . S
C1732 C1751 1.429 . S
C1732 H1756 0.950 . S
C1733 C1750 1.574 . S
C1733 C1752 1.368 . S
C1733 H1757 0.949 . S
H1734 C1738 0.949 . S
C1735 C1736 1.349 . S
C1735 C1737 1.327 . S
C1735 H1758 0.950 . S
C1736 C1735 1.349 . S
C1736 C1748 1.349 . S
C1737 C1735 1.327 . S
C1737 C1753 1.429 . S
C1737 H1759 0.950 . S
C1738 H1734 0.949 . S
C1738 C1746 1.574 . S
C1738 C1754 1.368 . S
H1739 C1747 0.950 . S
H1740 C1745 0.950 . S
H1741 C1746 0.949 . S
H1742 C1748 0.950 . S
H1743 C1749 0.950 . S
H1744 C1750 0.949 . S
C1745 H1740 0.950 . S
C1745 C1747 1.327 . S
C1745 C1751 1.429 . S
C1746 C1738 1.574 . S
C1746 H1741 0.949 . S
C1746 C1752 1.368 . S
C1747 C1731 1.349 . S
C1747 H1739 0.950 . S
C1747 C1745 1.327 . S
C1748 C1736 1.349 . S
C1748 H1742 0.950 . S
C1748 C1749 1.327 . S
C1749 H1743 0.950 . S
C1749 C1748 1.327 . S
C1749 C1753 1.429 . S
C1750 C1733 1.574 . S
C1750 H1744 0.949 . S
C1750 C1754 1.368 . S
C1751 C1732 1.429 . S
C1751 C1745 1.429 . S
C1751 C1752 1.523 . S
C1752 C1733 1.368 . S
C1752 C1746 1.368 . S
C1752 C1751 1.523 . S
C1753 C1737 1.429 . S
C1753 C1749 1.429 . S
C1753 C1754 1.523 . S
C1754 C1738 1.368 . S
C1754 C1750 1.368 . S
C1754 C1753 1.523 . S
H1755 C1730 0.950 . S
H1756 C1732 0.950 . S
H1757 C1733 0.949 . S
H1758 C1735 0.950 . S
H1759 C1737 0.950 . S
C1760 C1761 1.349 . S
C1760 C1762 1.327 . S
C1760 H1785 0.950 . S
C1761 C1760 1.349 . S
C1761 C1777 1.349 . S
C1762 C1760 1.327 . S
C1762 C1781 1.429 . S
C1762 H1786 0.950 . S
C1763 C1780 1.574 . S
C1763 C1782 1.368 . S
C1763 H1787 0.949 . S
H1764 C1768 0.949 . S
C1765 C1766 1.349 . S
C1765 C1767 1.327 . S
C1765 H1788 0.950 . S
C1766 C1765 1.349 . S
C1766 C1778 1.349 . S
C1767 C1765 1.327 . S
C1767 C1783 1.429 . S
C1767 H1789 0.950 . S
C1768 H1764 0.949 . S
C1768 C1776 1.574 . S
C1768 C1784 1.368 . S
H1769 C1777 0.950 . S
H1770 C1775 0.950 . S
H1771 C1776 0.949 . S
H1772 C1778 0.950 . S
H1773 C1779 0.950 . S
H1774 C1780 0.949 . S
C1775 H1770 0.950 . S
C1775 C1777 1.327 . S
C1775 C1781 1.429 . S
C1776 C1768 1.574 . S
C1776 H1771 0.949 . S
C1776 C1782 1.368 . S
C1777 C1761 1.349 . S
C1777 H1769 0.950 . S
C1777 C1775 1.327 . S
C1778 C1766 1.349 . S
C1778 H1772 0.950 . S
C1778 C1779 1.327 . S
C1779 H1773 0.950 . S
C1779 C1778 1.327 . S
C1779 C1783 1.429 . S
C1780 C1763 1.574 . S
C1780 H1774 0.949 . S
C1780 C1784 1.368 . S
C1781 C1762 1.429 . S
C1781 C1775 1.429 . S
C1781 C1782 1.523 . S
C1782 C1763 1.368 . S
C1782 C1776 1.368 . S
C1782 C1781 1.523 . S
C1783 C1767 1.429 . S
C1783 C1779 1.429 . S
C1783 C1784 1.523 . S
C1784 C1768 1.368 . S
C1784 C1780 1.368 . S
C1784 C1783 1.523 . S
H1785 C1760 0.950 . S
H1786 C1762 0.950 . S
H1787 C1763 0.949 . S
H1788 C1765 0.950 . S
H1789 C1767 0.950 . S
C1790 C1791 1.349 . S
C1790 C1792 1.327 . S
C1790 H1815 0.950 . S
C1791 C1790 1.349 . S
C1791 C1807 1.349 . S
C1792 C1790 1.327 . S
C1792 C1811 1.429 . S
C1792 H1816 0.950 . S
C1793 C1810 1.574 . S
C1793 C1812 1.368 . S
C1793 H1817 0.949 . S
H1794 C1798 0.949 . S
C1795 C1796 1.349 . S
C1795 C1797 1.327 . S
C1795 H1818 0.950 . S
C1796 C1795 1.349 . S
C1796 C1808 1.349 . S
C1797 C1795 1.327 . S
C1797 C1813 1.429 . S
C1797 H1819 0.950 . S
C1798 H1794 0.949 . S
C1798 C1806 1.574 . S
C1798 C1814 1.368 . S
H1799 C1807 0.950 . S
H1800 C1805 0.950 . S
H1801 C1806 0.949 . S
H1802 C1808 0.950 . S
H1803 C1809 0.950 . S
H1804 C1810 0.949 . S
C1805 H1800 0.950 . S
C1805 C1807 1.327 . S
C1805 C1811 1.429 . S
C1806 C1798 1.574 . S
C1806 H1801 0.949 . S
C1806 C1812 1.368 . S
C1807 C1791 1.349 . S
C1807 H1799 0.950 . S
C1807 C1805 1.327 . S
C1808 C1796 1.349 . S
C1808 H1802 0.950 . S
C1808 C1809 1.327 . S
C1809 H1803 0.950 . S
C1809 C1808 1.327 . S
C1809 C1813 1.429 . S
C1810 C1793 1.574 . S
C1810 H1804 0.949 . S
C1810 C1814 1.368 . S
C1811 C1792 1.429 . S
C1811 C1805 1.429 . S
C1811 C1812 1.523 . S
C1812 C1793 1.368 . S
C1812 C1806 1.368 . S
C1812 C1811 1.523 . S
C1813 C1797 1.429 . S
C1813 C1809 1.429 . S
C1813 C1814 1.523 . S
C1814 C1798 1.368 . S
C1814 C1810 1.368 . S
C1814 C1813 1.523 . S
H1815 C1790 0.950 . S
H1816 C1792 0.950 . S
H1817 C1793 0.949 . S
H1818 C1795 0.950 . S
H1819 C1797 0.950 . S
C1820 C1821 1.349 . S
C1820 C1822 1.327 . S
C1820 H1845 0.950 . S
C1821 C1820 1.349 . S
C1821 C1837 1.349 . S
C1822 C1820 1.327 . S
C1822 C1841 1.429 . S
C1822 H1846 0.950 . S
C1823 C1840 1.574 . S
C1823 C1842 1.368 . S
C1823 H1847 0.949 . S
H1824 C1828 0.949 . S
C1825 C1826 1.349 . S
C1825 C1827 1.327 . S
C1825 H1848 0.950 . S
C1826 C1825 1.349 . S
C1826 C1838 1.349 . S
C1827 C1825 1.327 . S
C1827 C1843 1.429 . S
C1827 H1849 0.950 . S
C1828 H1824 0.949 . S
C1828 C1836 1.574 . S
C1828 C1844 1.368 . S
H1829 C1837 0.950 . S
H1830 C1835 0.950 . S
H1831 C1836 0.949 . S
H1832 C1838 0.950 . S
H1833 C1839 0.950 . S
H1834 C1840 0.949 . S
C1835 H1830 0.950 . S
C1835 C1837 1.327 . S
C1835 C1841 1.429 . S
C1836 C1828 1.574 . S
C1836 H1831 0.949 . S
C1836 C1842 1.368 . S
C1837 C1821 1.349 . S
C1837 H1829 0.950 . S
C1837 C1835 1.327 . S
C1838 C1826 1.349 . S
C1838 H1832 0.950 . S
C1838 C1839 1.327 . S
C1839 H1833 0.950 . S
C1839 C1838 1.327 . S
C1839 C1843 1.429 . S
C1840 C1823 1.574 . S
C1840 H1834 0.949 . S
C1840 C1844 1.368 . S
C1841 C1822 1.429 . S
C1841 C1835 1.429 . S
C1841 C1842 1.523 . S
C1842 C1823 1.368 . S
C1842 C1836 1.368 . S
C1842 C1841 1.523 . S
C1843 C1827 1.429 . S
C1843 C1839 1.429 . S
C1843 C1844 1.523 . S
C1844 C1828 1.368 . S
C1844 C1840 1.368 . S
C1844 C1843 1.523 . S
H1845 C1820 0.950 . S
H1846 C1822 0.950 . S
H1847 C1823 0.949 . S
H1848 C1825 0.950 . S
H1849 C1827 0.950 . S
C1850 C1851 1.349 . S
C1850 C1852 1.327 . S
C1850 H1875 0.950 . S
C1851 C1850 1.349 . S
C1851 C1867 1.349 . S
C1852 C1850 1.327 . S
C1852 C1871 1.429 . S
C1852 H1876 0.950 . S
C1853 C1870 1.574 . S
C1853 C1872 1.368 . S
C1853 H1877 0.949 . S
H1854 C1858 0.949 . S
C1855 C1856 1.349 . S
C1855 C1857 1.327 . S
C1855 H1878 0.950 . S
C1856 C1855 1.349 . S
C1856 C1868 1.349 . S
C1857 C1855 1.327 . S
C1857 C1873 1.429 . S
C1857 H1879 0.950 . S
C1858 H1854 0.949 . S
C1858 C1866 1.574 . S
C1858 C1874 1.368 . S
H1859 C1867 0.950 . S
H1860 C1865 0.950 . S
H1861 C1866 0.949 . S
H1862 C1868 0.950 . S
H1863 C1869 0.950 . S
H1864 C1870 0.949 . S
C1865 H1860 0.950 . S
C1865 C1867 1.327 . S
C1865 C1871 1.429 . S
C1866 C1858 1.574 . S
C1866 H1861 0.949 . S
C1866 C1872 1.368 . S
C1867 C1851 1.349 . S
C1867 H1859 0.950 . S
C1867 C1865 1.327 . S
C1868 C1856 1.349 . S
C1868 H1862 0.950 . S
C1868 C1869 1.327 . S
C1869 H1863 0.950 . S
C1869 C1868 1.327 . S
C1869 C1873 1.429 . S
C1870 C1853 1.574 . S
C1870 H1864 0.949 . S
C1870 C1874 1.368 . S
C1871 C1852 1.429 . S
C1871 C1865 1.429 . S
C1871 C1872 1.523 . S
C1872 C1853 1.368 . S
C1872 C1866 1.368 . S
C1872 C1871 1.523 . S
C1873 C1857 1.429 . S
C1873 C1869 1.429 . S
C1873 C1874 1.523 . S
C1874 C1858 1.368 . S
C1874 C1870 1.368 . S
C1874 C1873 1.523 . S
H1875 C1850 0.950 . S
H1876 C1852 0.950 . S
H1877 C1853 0.949 . S
H1878 C1855 0.950 . S
H1879 C1857 0.950 . S
C1880 C1881 1.349 . S
C1880 C1882 1.327 . S
C1880 H1905 0.950 . S
C1881 C1880 1.349 . S
C1881 C1897 1.349 . S
C1882 C1880 1.327 . S
C1882 C1901 1.429 . S
C1882 H1906 0.950 . S
C1883 C1900 1.574 . S
C1883 C1902 1.368 . S
C1883 H1907 0.949 . S
H1884 C1888 0.949 . S
C1885 C1886 1.349 . S
C1885 C1887 1.327 . S
C1885 H1908 0.950 . S
C1886 C1885 1.349 . S
C1886 C1898 1.349 . S
C1887 C1885 1.327 . S
C1887 C1903 1.429 . S
C1887 H1909 0.950 . S
C1888 H1884 0.949 . S
C1888 C1896 1.574 . S
C1888 C1904 1.368 . S
H1889 C1897 0.950 . S
H1890 C1895 0.950 . S
H1891 C1896 0.949 . S
H1892 C1898 0.950 . S
H1893 C1899 0.950 . S
H1894 C1900 0.949 . S
C1895 H1890 0.950 . S
C1895 C1897 1.327 . S
C1895 C1901 1.429 . S
C1896 C1888 1.574 . S
C1896 H1891 0.949 . S
C1896 C1902 1.368 . S
C1897 C1881 1.349 . S
C1897 H1889 0.950 . S
C1897 C1895 1.327 . S
C1898 C1886 1.349 . S
C1898 H1892 0.950 . S
C1898 C1899 1.327 . S
C1899 H1893 0.950 . S
C1899 C1898 1.327 . S
C1899 C1903 1.429 . S
C1900 C1883 1.574 . S
C1900 H1894 0.949 . S
C1900 C1904 1.368 . S
C1901 C1882 1.429 . S
C1901 C1895 1.429 . S
C1901 C1902 1.523 . S
C1902 C1883 1.368 . S
C1902 C1896 1.368 . S
C1902 C1901 1.523 . S
C1903 C1887 1.429 . S
C1903 C1899 1.429 . S
C1903 C1904 1.523 . S
C1904 C1888 1.368 . S
C1904 C1900 1.368 . S
C1904 C1903 1.523 . S
H1905 C1880 0.950 . S
H1906 C1882 0.950 . S
H1907 C1883 0.949 . S
H1908 C1885 0.950 . S
H1909 C1887 0.950 . S
C1910 C1911 1.349 . S
C1910 C1912 1.327 . S
C1910 H1935 0.950 . S
C1911 C1910 1.349 . S
C1911 C1927 1.349 . S
C1912 C1910 1.327 . S
C1912 C1931 1.429 . S
C1912 H1936 0.950 . S
C1913 C1930 1.574 . S
C1913 C1932 1.368 . S
C1913 H1937 0.949 . S
H1914 C1918 0.949 . S
C1915 C1916 1.349 . S
C1915 C1917 1.327 . S
C1915 H1938 0.950 . S
C1916 C1915 1.349 . S
C1916 C1928 1.349 . S
C1917 C1915 1.327 . S
C1917 C1933 1.429 . S
C1917 H1939 0.950 . S
C1918 H1914 0.949 . S
C1918 C1926 1.574 . S
C1918 C1934 1.368 . S
H1919 C1927 0.950 . S
H1920 C1925 0.950 . S
H1921 C1926 0.949 . S
H1922 C1928 0.950 . S
H1923 C1929 0.950 . S
H1924 C1930 0.949 . S
C1925 H1920 0.950 . S
C1925 C1927 1.327 . S
C1925 C1931 1.429 . S
C1926 C1918 1.574 . S
C1926 H1921 0.949 . S
C1926 C1932 1.368 . S
C1927 C1911 1.349 . S
C1927 H1919 0.950 . S
C1927 C1925 1.327 . S
C1928 C1916 1.349 . S
C1928 H1922 0.950 . S
C1928 C1929 1.327 . S
C1929 H1923 0.950 . S
C1929 C1928 1.327 . S
C1929 C1933 1.429 . S
C1930 C1913 1.574 . S
C1930 H1924 0.949 . S
C1930 C1934 1.368 . S
C1931 C1912 1.429 . S
C1931 C1925 1.429 . S
C1931 C1932 1.523 . S
C1932 C1913 1.368 . S
C1932 C1926 1.368 . S
C1932 C1931 1.523 . S
C1933 C1917 1.429 . S
C1933 C1929 1.429 . S
C1933 C1934 1.523 . S
C1934 C1918 1.368 . S
C1934 C1930 1.368 . S
C1934 C1933 1.523 . S
H1935 C1910 0.950 . S
H1936 C1912 0.950 . S
H1937 C1913 0.949 . S
H1938 C1915 0.950 . S
H1939 C1917 0.950 . S
C1940 C1941 1.349 . S
C1940 C1942 1.327 . S
C1940 H1965 0.950 . S
C1941 C1940 1.349 . S
C1941 C1957 1.349 . S
C1942 C1940 1.327 . S
C1942 C1961 1.429 . S
C1942 H1966 0.950 . S
C1943 C1960 1.574 . S
C1943 C1962 1.368 . S
C1943 H1967 0.949 . S
H1944 C1948 0.949 . S
C1945 C1946 1.349 . S
C1945 C1947 1.327 . S
C1945 H1968 0.950 . S
C1946 C1945 1.349 . S
C1946 C1958 1.349 . S
C1947 C1945 1.327 . S
C1947 C1963 1.429 . S
C1947 H1969 0.950 . S
C1948 H1944 0.949 . S
C1948 C1956 1.574 . S
C1948 C1964 1.368 . S
H1949 C1957 0.950 . S
H1950 C1955 0.950 . S
H1951 C1956 0.949 . S
H1952 C1958 0.950 . S
H1953 C1959 0.950 . S
H1954 C1960 0.949 . S
C1955 H1950 0.950 . S
C1955 C1957 1.327 . S
C1955 C1961 1.429 . S
C1956 C1948 1.574 . S
C1956 H1951 0.949 . S
C1956 C1962 1.368 . S
C1957 C1941 1.349 . S
C1957 H1949 0.950 . S
C1957 C1955 1.327 . S
C1958 C1946 1.349 . S
C1958 H1952 0.950 . S
C1958 C1959 1.327 . S
C1959 H1953 0.950 . S
C1959 C1958 1.327 . S
C1959 C1963 1.429 . S
C1960 C1943 1.574 . S
C1960 H1954 0.949 . S
C1960 C1964 1.368 . S
C1961 C1942 1.429 . S
C1961 C1955 1.429 . S
C1961 C1962 1.523 . S
C1962 C1943 1.368 . S
C1962 C1956 1.368 . S
C1962 C1961 1.523 . S
C1963 C1947 1.429 . S
C1963 C1959 1.429 . S
C1963 C1964 1.523 . S
C1964 C1948 1.368 . S
C1964 C1960 1.368 . S
C1964 C1963 1.523 . S
H1965 C1940 0.950 . S
H1966 C1942 0.950 . S
H1967 C1943 0.949 . S
H1968 C1945 0.950 . S
H1969 C1947 0.950 . S
C1970 C1971 1.349 . S
C1970 C1972 1.327 . S
C1970 H1995 0.950 . S
C1971 C1970 1.349 . S
C1971 C1987 1.349 . S
C1972 C1970 1.327 . S
C1972 C1991 1.429 . S
C1972 H1996 0.950 . S
C1973 C1990 1.574 . S
C1973 C1992 1.368 . S
C1973 H1997 0.949 . S
H1974 C1978 0.949 . S
C1975 C1976 1.349 . S
C1975 C1977 1.327 . S
C1975 H1998 0.950 . S
C1976 C1975 1.349 . S
C1976 C1988 1.349 . S
C1977 C1975 1.327 . S
C1977 C1993 1.429 . S
C1977 H1999 0.950 . S
C1978 H1974 0.949 . S
C1978 C1986 1.574 . S
C1978 C1994 1.368 . S
H1979 C1987 0.950 . S
H1980 C1985 0.950 . S
H1981 C1986 0.949 . S
H1982 C1988 0.950 . S
H1983 C1989 0.950 . S
H1984 C1990 0.949 . S
C1985 H1980 0.950 . S
C1985 C1987 1.327 . S
C1985 C1991 1.429 . S
C1986 C1978 1.574 . S
C1986 H1981 0.949 . S
C1986 C1992 1.368 . S
C1987 C1971 1.349 . S
C1987 H1979 0.950 . S
C1987 C1985 1.327 . S
C1988 C1976 1.349 . S
C1988 H1982 0.950 . S
C1988 C1989 1.327 . S
C1989 H1983 0.950 . S
C1989 C1988 1.327 . S
C1989 C1993 1.429 . S
C1990 C1973 1.574 . S
C1990 H1984 0.949 . S
C1990 C1994 1.368 . S
C1991 C1972 1.429 . S
C1991 C1985 1.429 . S
C1991 C1992 1.523 . S
C1992 C1973 1.368 . S
C1992 C1986 1.368 . S
C1992 C1991 1.523 . S
C1993 C1977 1.429 . S
C1993 C1989 1.429 . S
C1993 C1994 1.523 . S
C1994 C1978 1.368 . S
C1994 C1990 1.368 . S
C1994 C1993 1.523 . S
H1995 C1970 0.950 . S
H1996 C1972 0.950 . S
H1997 C1973 0.949 . S
H1998 C1975 0.950 . S
H1999 C1977 0.950 . S
C2000 C2001 1.349 . S
C2000 C2002 1.327 . S
C2000 H2025 0.950 . S
C2001 C2000 1.349 . S
C2001 C2017 1.349 . S
C2002 C2000 1.327 . S
C2002 C2021 1.429 . S
C2002 H2026 0.950 . S
C2003 C2020 1.574 . S
C2003 C2022 1.368 . S
C2003 H2027 0.949 . S
H2004 C2008 0.949 . S
C2005 C2006 1.349 . S
C2005 C2007 1.327 . S
C2005 H2028 0.950 . S
C2006 C2005 1.349 . S
C2006 C2018 1.349 . S
C2007 C2005 1.327 . S
C2007 C2023 1.429 . S
C2007 H2029 0.950 . S
C2008 H2004 0.949 . S
C2008 C2016 1.574 . S
C2008 C2024 1.368 . S
H2009 C2017 0.950 . S
H2010 C2015 0.950 . S
H2011 C2016 0.949 . S
H2012 C2018 0.950 . S
H2013 C2019 0.950 . S
H2014 C2020 0.949 . S
C2015 H2010 0.950 . S
C2015 C2017 1.327 . S
C2015 C2021 1.429 . S
C2016 C2008 1.574 . S
C2016 H2011 0.949 . S
C2016 C2022 1.368 . S
C2017 C2001 1.349 . S
C2017 H2009 0.950 . S
C2017 C2015 1.327 . S
C2018 C2006 1.349 . S
C2018 H2012 0.950 . S
C2018 C2019 1.327 . S
C2019 H2013 0.950 . S
C2019 C2018 1.327 . S
C2019 C2023 1.429 . S
C2020 C2003 1.574 . S
C2020 H2014 0.949 . S
C2020 C2024 1.368 . S
C2021 C2002 1.429 . S
C2021 C2015 1.429 . S
C2021 C2022 1.523 . S
C2022 C2003 1.368 . S
C2022 C2016 1.368 . S
C2022 C2021 1.523 . S
C2023 C2007 1.429 . S
C2023 C2019 1.429 . S
C2023 C2024 1.523 . S
C2024 C2008 1.368 . S
C2024 C2020 1.368 . S
C2024 C2023 1.523 . S
H2025 C2000 0.950 . S
H2026 C2002 0.950 . S
H2027 C2003 0.949 . S
H2028 C2005 0.950 . S
H2029 C2007 0.950 . S
C2030 C2031 1.349 . S
C2030 C2032 1.327 . S
C2030 H2055 0.950 . S
C2031 C2030 1.349 . S
C2031 C2047 1.349 . S
C2032 C2030 1.327 . S
C2032 C2051 1.429 . S
C2032 H2056 0.950 . S
C2033 C2050 1.574 . S
C2033 C2052 1.368 . S
C2033 H2057 0.949 . S
H2034 C2038 0.949 . S
C2035 C2036 1.349 . S
C2035 C2037 1.327 . S
C2035 H2058 0.950 . S
C2036 C2035 1.349 . S
C2036 C2048 1.349 . S
C2037 C2035 1.327 . S
C2037 C2053 1.429 . S
C2037 H2059 0.950 . S
C2038 H2034 0.949 . S
C2038 C2046 1.574 . S
C2038 C2054 1.368 . S
H2039 C2047 0.950 . S
H2040 C2045 0.950 . S
H2041 C2046 0.949 . S
H2042 C2048 0.950 . S
H2043 C2049 0.950 . S
H2044 C2050 0.949 . S
C2045 H2040 0.950 . S
C2045 C2047 1.327 . S
C2045 C2051 1.429 . S
C2046 C2038 1.574 . S
C2046 H2041 0.949 . S
C2046 C2052 1.368 . S
C2047 C2031 1.349 . S
C2047 H2039 0.950 . S
C2047 C2045 1.327 . S
C2048 C2036 1.349 . S
C2048 H2042 0.950 . S
C2048 C2049 1.327 . S
C2049 H2043 0.950 . S
C2049 C2048 1.327 . S
C2049 C2053 1.429 . S
C2050 C2033 1.574 . S
C2050 H2044 0.949 . S
C2050 C2054 1.368 . S
C2051 C2032 1.429 . S
C2051 C2045 1.429 . S
C2051 C2052 1.523 . S
C2052 C2033 1.368 . S
C2052 C2046 1.368 . S
C2052 C2051 1.523 . S
C2053 C2037 1.429 . S
C2053 C2049 1.429 . S
C2053 C2054 1.523 . S
C2054 C2038 1.368 . S
C2054 C2050 1.368 . S
C2054 C2053 1.523 . S
H2055 C2030 0.950 . S
H2056 C2032 0.950 . S
H2057 C2033 0.949 . S
H2058 C2035 0.950 . S
H2059 C2037 0.950 . S
C2060 C2061 1.349 . S
C2060 C2062 1.327 . S
C2060 H2085 0.950 . S
C2061 C2060 1.349 . S
C2061 C2077 1.349 . S
C2062 C2060 1.327 . S
C2062 C2081 1.429 . S
C2062 H2086 0.950 . S
C2063 C2080 1.574 . S
C2063 C2082 1.368 . S
C2063 H2087 0.949 . S
H2064 C2068 0.949 . S
C2065 C2066 1.349 . S
C2065 C2067 1.327 . S
C2065 H2088 0.950 . S
C2066 C2065 1.349 . S
C2066 C2078 1.349 . S
C2067 C2065 1.327 . S
C2067 C2083 1.429 . S
C2067 H2089 0.950 . S
C2068 H2064 0.949 . S
C2068 C2076 1.574 . S
C2068 C2084 1.368 . S
H2069 C2077 0.950 . S
H2070 C2075 0.950 . S
H2071 C2076 0.949 . S
H2072 C2078 0.950 . S
H2073 C2079 0.950 . S
H2074 C2080 0.949 . S
C2075 H2070 0.950 . S
C2075 C2077 1.327 . S
C2075 C2081 1.429 . S
C2076 C2068 1.574 . S
C2076 H2071 0.949 . S
C2076 C2082 1.368 . S
C2077 C2061 1.349 . S
C2077 H2069 0.950 . S
C2077 C2075 1.327 . S
C2078 C2066 1.349 . S
C2078 H2072 0.950 . S
C2078 C2079 1.327 . S
C2079 H2073 0.950 . S
C2079 C2078 1.327 . S
C2079 C2083 1.429 . S
C2080 C2063 1.574 . S
C2080 H2074 0.949 . S
C2080 C2084 1.368 . S
C2081 C2062 1.429 . S
C2081 C2075 1.429 . S
C2081 C2082 1.523 . S
C2082 C2063 1.368 . S
C2082 C2076 1.368 . S
C2082 C2081 1.523 . S
C2083 C2067 1.429 . S
C2083 C2079 1.429 . S
C2083 C2084 1.523 . S
C2084 C2068 1.368 . S
C2084 C2080 1.368 . S
C2084 C2083 1.523 . S
H2085 C2060 0.950 . S
H2086 C2062 0.950 . S
H2087 C2063 0.949 . S
H2088 C2065 0.950 . S
H2089 C2067 0.950 . S
C2090 C2091 1.349 . S
C2090 C2092 1.327 . S
C2090 H2115 0.950 . S
C2091 C2090 1.349 . S
C2091 C2107 1.349 . S
C2092 C2090 1.327 . S
C2092 C2111 1.429 . S
C2092 H2116 0.950 . S
C2093 C2110 1.574 . S
C2093 C2112 1.368 . S
C2093 H2117 0.949 . S
H2094 C2098 0.949 . S
C2095 C2096 1.349 . S
C2095 C2097 1.327 . S
C2095 H2118 0.950 . S
C2096 C2095 1.349 . S
C2096 C2108 1.349 . S
C2097 C2095 1.327 . S
C2097 C2113 1.429 . S
C2097 H2119 0.950 . S
C2098 H2094 0.949 . S
C2098 C2106 1.574 . S
C2098 C2114 1.368 . S
H2099 C2107 0.950 . S
H2100 C2105 0.950 . S
H2101 C2106 0.949 . S
H2102 C2108 0.950 . S
H2103 C2109 0.950 . S
H2104 C2110 0.949 . S
C2105 H2100 0.950 . S
C2105 C2107 1.327 . S
C2105 C2111 1.429 . S
C2106 C2098 1.574 . S
C2106 H2101 0.949 . S
C2106 C2112 1.368 . S
C2107 C2091 1.349 . S
C2107 H2099 0.950 . S
C2107 C2105 1.327 . S
C2108 C2096 1.349 . S
C2108 H2102 0.950 . S
C2108 C2109 1.327 . S
C2109 H2103 0.950 . S
C2109 C2108 1.327 . S
C2109 C2113 1.429 . S
C2110 C2093 1.574 . S
C2110 H2104 0.949 . S
C2110 C2114 1.368 . S
C2111 C2092 1.429 . S
C2111 C2105 1.429 . S
C2111 C2112 1.523 . S
C2112 C2093 1.368 . S
C2112 C2106 1.368 . S
C2112 C2111 1.523 . S
C2113 C2097 1.429 . S
C2113 C2109 1.429 . S
C2113 C2114 1.523 . S
C2114 C2098 1.368 . S
C2114 C2110 1.368 . S
C2114 C2113 1.523 . S
H2115 C2090 0.950 . S
H2116 C2092 0.950 . S
H2117 C2093 0.949 . S
H2118 C2095 0.950 . S
H2119 C2097 0.950 . S
C2120 C2121 1.349 . S
C2120 C2122 1.327 . S
C2120 H2145 0.950 . S
C2121 C2120 1.349 . S
C2121 C2137 1.349 . S
C2122 C2120 1.327 . S
C2122 C2141 1.429 . S
C2122 H2146 0.950 . S
C2123 C2140 1.574 . S
C2123 C2142 1.368 . S
C2123 H2147 0.949 . S
H2124 C2128 0.949 . S
C2125 C2126 1.349 . S
C2125 C2127 1.327 . S
C2125 H2148 0.950 . S
C2126 C2125 1.349 . S
C2126 C2138 1.349 . S
C2127 C2125 1.327 . S
C2127 C2143 1.429 . S
C2127 H2149 0.950 . S
C2128 H2124 0.949 . S
C2128 C2136 1.574 . S
C2128 C2144 1.368 . S
H2129 C2137 0.950 . S
H2130 C2135 0.950 . S
H2131 C2136 0.949 . S
H2132 C2138 0.950 . S
H2133 C2139 0.950 . S
H2134 C2140 0.949 . S
C2135 H2130 0.950 . S
C2135 C2137 1.327 . S
C2135 C2141 1.429 . S
C2136 C2128 1.574 . S
C2136 H2131 0.949 . S
C2136 C2142 1.368 . S
C2137 C2121 1.349 . S
C2137 H2129 0.950 . S
C2137 C2135 1.327 . S
C2138 C2126 1.349 . S
C2138 H2132 0.950 . S
C2138 C2139 1.327 . S
C2139 H2133 0.950 . S
C2139 C2138 1.327 . S
C2139 C2143 1.429 . S
C2140 C2123 1.574 . S
C2140 H2134 0.949 . S
C2140 C2144 1.368 . S
C2141 C2122 1.429 . S
C2141 C2135 1.429 . S
C2141 C2142 1.523 . S
C2142 C2123 1.368 . S
C2142 C2136 1.368 . S
C2142 C2141 1.523 . S
C2143 C2127 1.429 . S
C2143 C2139 1.429 . S
C2143 C2144 1.523 . S
C2144 C2128 1.368 . S
C2144 C2140 1.368 . S
C2144 C2143 1.523 . S
H2145 C2120 0.950 . S
H2146 C2122 0.950 . S
H2147 C2123 0.949 . S
H2148 C2125 0.950 . S
H2149 C2127 0.950 . S
C2150 C2151 1.349 . S
C2150 C2152 1.327 . S
C2150 H2175 0.950 . S
C2151 C2150 1.349 . S
C2151 C2167 1.349 . S
C2152 C2150 1.327 . S
C2152 C2171 1.429 . S
C2152 H2176 0.950 . S
C2153 C2170 1.574 . S
C2153 C2172 1.368 . S
C2153 H2177 0.949 . S
H2154 C2158 0.949 . S
C2155 C2156 1.349 . S
C2155 C2157 1.327 . S
C2155 H2178 0.950 . S
C2156 C2155 1.349 . S
C2156 C2168 1.349 . S
C2157 C2155 1.327 . S
C2157 C2173 1.429 . S
C2157 H2179 0.950 . S
C2158 H2154 0.949 . S
C2158 C2166 1.574 . S
C2158 C2174 1.368 . S
H2159 C2167 0.950 . S
H2160 C2165 0.950 . S
H2161 C2166 0.949 . S
H2162 C2168 0.950 . S
H2163 C2169 0.950 . S
H2164 C2170 0.949 . S
C2165 H2160 0.950 . S
C2165 C2167 1.327 . S
C2165 C2171 1.429 . S
C2166 C2158 1.574 . S
C2166 H2161 0.949 . S
C2166 C2172 1.368 . S
C2167 C2151 1.349 . S
C2167 H2159 0.950 . S
C2167 C2165 1.327 . S
C2168 C2156 1.349 . S
C2168 H2162 0.950 . S
C2168 C2169 1.327 . S
C2169 H2163 0.950 . S
C2169 C2168 1.327 . S
C2169 C2173 1.429 . S
C2170 C2153 1.574 . S
C2170 H2164 0.949 . S
C2170 C2174 1.368 . S
C2171 C2152 1.429 . S
C2171 C2165 1.429 . S
C2171 C2172 1.523 . S
C2172 C2153 1.368 . S
C2172 C2166 1.368 . S
C2172 C2171 1.523 . S
C2173 C2157 1.429 . S
C2173 C2169 1.429 . S
C2173 C2174 1.523 . S
C2174 C2158 1.368 . S
C2174 C2170 1.368 . S
C2174 C2173 1.523 . S
H2175 C2150 0.950 . S
H2176 C2152 0.950 . S
H2177 C2153 0.949 . S
H2178 C2155 0.950 . S
H2179 C2157 0.950 . S
C2180 C2181 1.349 . S
C2180 C2182 1.327 . S
C2180 H2205 0.950 . S
C2181 C2180 1.349 . S
C2181 C2197 1.349 . S
C2182 C2180 1.327 . S
C2182 C2201 1.429 . S
C2182 H2206 0.950 . S
C2183 C2200 1.574 . S
C2183 C2202 1.368 . S
C2183 H2207 0.949 . S
H2184 C2188 0.949 . S
C2185 C2186 1.349 . S
C2185 C2187 1.327 . S
C2185 H2208 0.950 . S
C2186 C2185 1.349 . S
C2186 C2198 1.349 . S
C2187 C2185 1.327 . S
C2187 C2203 1.429 . S
C2187 H2209 0.950 . S
C2188 H2184 0.949 . S
C2188 C2196 1.574 . S
C2188 C2204 1.368 . S
H2189 C2197 0.950 . S
H2190 C2195 0.950 . S
H2191 C2196 0.949 . S
H2192 C2198 0.950 . S
H2193 C2199 0.950 . S
H2194 C2200 0.949 . S
C2195 H2190 0.950 . S
C2195 C2197 1.327 . S
C2195 C2201 1.429 . S
C2196 C2188 1.574 . S
C2196 H2191 0.949 . S
C2196 C2202 1.368 . S
C2197 C2181 1.349 . S
C2197 H2189 0.950 . S
C2197 C2195 1.327 . S
C2198 C2186 1.349 . S
C2198 H2192 0.950 . S
C2198 C2199 1.327 . S
C2199 H2193 0.950 . S
C2199 C2198 1.327 . S
C2199 C2203 1.429 . S
C2200 C2183 1.574 . S
C2200 H2194 0.949 . S
C2200 C2204 1.368 . S
C2201 C2182 1.429 . S
C2201 C2195 1.429 . S
C2201 C2202 1.523 . S
C2202 C2183 1.368 . S
C2202 C2196 1.368 . S
C2202 C2201 1.523 . S
C2203 C2187 1.429 . S
C2203 C2199 1.429 . S
C2203 C2204 1.523 . S
C2204 C2188 1.368 . S
C2204 C2200 1.368 . S
C2204 C2203 1.523 . S
H2205 C2180 0.950 . S
H2206 C2182 0.950 . S
H2207 C2183 0.949 . S
H2208 C2185 0.950 . S
H2209 C2187 0.950 . S
C2210 C2211 1.349 . S
C2210 C2212 1.327 . S
C2210 H2235 0.950 . S
C2211 C2210 1.349 . S
C2211 C2227 1.349 . S
C2212 C2210 1.327 . S
C2212 C2231 1.429 . S
C2212 H2236 0.950 . S
C2213 C2230 1.574 . S
C2213 C2232 1.368 . S
C2213 H2237 0.949 . S
H2214 C2218 0.949 . S
C2215 C2216 1.349 . S
C2215 C2217 1.327 . S
C2215 H2238 0.950 . S
C2216 C2215 1.349 . S
C2216 C2228 1.349 . S
C2217 C2215 1.327 . S
C2217 C2233 1.429 . S
C2217 H2239 0.950 . S
C2218 H2214 0.949 . S
C2218 C2226 1.574 . S
C2218 C2234 1.368 . S
H2219 C2227 0.950 . S
H2220 C2225 0.950 . S
H2221 C2226 0.949 . S
H2222 C2228 0.950 . S
H2223 C2229 0.950 . S
H2224 C2230 0.949 . S
C2225 H2220 0.950 . S
C2225 C2227 1.327 . S
C2225 C2231 1.429 . S
C2226 C2218 1.574 . S
C2226 H2221 0.949 . S
C2226 C2232 1.368 . S
C2227 C2211 1.349 . S
C2227 H2219 0.950 . S
C2227 C2225 1.327 . S
C2228 C2216 1.349 . S
C2228 H2222 0.950 . S
C2228 C2229 1.327 . S
C2229 H2223 0.950 . S
C2229 C2228 1.327 . S
C2229 C2233 1.429 . S
C2230 C2213 1.574 . S
C2230 H2224 0.949 . S
C2230 C2234 1.368 . S
C2231 C2212 1.429 . S
C2231 C2225 1.429 . S
C2231 C2232 1.523 . S
C2232 C2213 1.368 . S
C2232 C2226 1.368 . S
C2232 C2231 1.523 . S
C2233 C2217 1.429 . S
C2233 C2229 1.429 . S
C2233 C2234 1.523 . S
C2234 C2218 1.368 . S
C2234 C2230 1.368 . S
C2234 C2233 1.523 . S
H2235 C2210 0.950 . S
H2236 C2212 0.950 . S
H2237 C2213 0.949 . S
H2238 C2215 0.950 . S
H2239 C2217 0.950 . S
C2240 C2241 1.349 . S
C2240 C2242 1.327 . S
C2240 H2265 0.950 . S
C2241 C2240 1.349 . S
C2241 C2257 1.349 . S
C2242 C2240 1.327 . S
C2242 C2261 1.429 . S
C2242 H2266 0.950 . S
C2243 C2260 1.574 . S
C2243 C2262 1.368 . S
C2243 H2267 0.949 . S
H2244 C2248 0.949 . S
C2245 C2246 1.349 . S
C2245 C2247 1.327 . S
C2245 H2268 0.950 . S
C2246 C2245 1.349 . S
C2246 C2258 1.349 . S
C2247 C2245 1.327 . S
C2247 C2263 1.429 . S
C2247 H2269 0.950 . S
C2248 H2244 0.949 . S
C2248 C2256 1.574 . S
C2248 C2264 1.368 . S
H2249 C2257 0.950 . S
H2250 C2255 0.950 . S
H2251 C2256 0.949 . S
H2252 C2258 0.950 . S
H2253 C2259 0.950 . S
H2254 C2260 0.949 . S
C2255 H2250 0.950 . S
C2255 C2257 1.327 . S
C2255 C2261 1.429 . S
C2256 C2248 1.574 . S
C2256 H2251 0.949 . S
C2256 C2262 1.368 . S
C2257 C2241 1.349 . S
C2257 H2249 0.950 . S
C2257 C2255 1.327 . S
C2258 C2246 1.349 . S
C2258 H2252 0.950 . S
C2258 C2259 1.327 . S
C2259 H2253 0.950 . S
C2259 C2258 1.327 . S
C2259 C2263 1.429 . S
C2260 C2243 1.574 . S
C2260 H2254 0.949 . S
C2260 C2264 1.368 . S
C2261 C2242 1.429 . S
C2261 C2255 1.429 . S
C2261 C2262 1.523 . S
C2262 C2243 1.368 . S
C2262 C2256 1.368 . S
C2262 C2261 1.523 . S
C2263 C2247 1.429 . S
C2263 C2259 1.429 . S
C2263 C2264 1.523 . S
C2264 C2248 1.368 . S
C2264 C2260 1.368 . S
C2264 C2263 1.523 . S
H2265 C2240 0.950 . S
H2266 C2242 0.950 . S
H2267 C2243 0.949 . S
H2268 C2245 0.950 . S
H2269 C2247 0.950 . S
C2270 C2271 1.349 . S
C2270 C2272 1.327 . S
C2270 H2295 0.950 . S
C2271 C2270 1.349 . S
C2271 C2287 1.349 . S
C2272 C2270 1.327 . S
C2272 C2291 1.429 . S
C2272 H2296 0.950 . S
C2273 C2290 1.574 . S
C2273 C2292 1.368 . S
C2273 H2297 0.949 . S
H2274 C2278 0.949 . S
C2275 C2276 1.349 . S
C2275 C2277 1.327 . S
C2275 H2298 0.950 . S
C2276 C2275 1.349 . S
C2276 C2288 1.349 . S
C2277 C2275 1.327 . S
C2277 C2293 1.429 . S
C2277 H2299 0.950 . S
C2278 H2274 0.949 . S
C2278 C2286 1.574 . S
C2278 C2294 1.368 . S
H2279 C2287 0.950 . S
H2280 C2285 0.950 . S
H2281 C2286 0.949 . S
H2282 C2288 0.950 . S
H2283 C2289 0.950 . S
H2284 C2290 0.949 . S
C2285 H2280 0.950 . S
C2285 C2287 1.327 . S
C2285 C2291 1.429 . S
C2286 C2278 1.574 . S
C2286 H2281 0.949 . S
C2286 C2292 1.368 . S
C2287 C2271 1.349 . S
C2287 H2279 0.950 . S
C2287 C2285 1.327 . S
C2288 C2276 1.349 . S
C2288 H2282 0.950 . S
C2288 C2289 1.327 . S
C2289 H2283 0.950 . S
C2289 C2288 1.327 . S
C2289 C2293 1.429 . S
C2290 C2273 1.574 . S
C2290 H2284 0.949 . S
C2290 C2294 1.368 . S
C2291 C2272 1.429 . S
C2291 C2285 1.429 . S
C2291 C2292 1.523 . S
C2292 C2273 1.368 . S
C2292 C2286 1.368 . S
C2292 C2291 1.523 . S
C2293 C2277 1.429 . S
C2293 C2289 1.429 . S
C2293 C2294 1.523 . S
C2294 C2278 1.368 . S
C2294 C2290 1.368 . S
C2294 C2293 1.523 . S
H2295 C2270 0.950 . S
H2296 C2272 0.950 . S
H2297 C2273 0.949 . S
H2298 C2275 0.950 . S
H2299 C2277 0.950 . S
C2300 C2301 1.349 . S
C2300 C2302 1.327 . S
C2300 H2325 0.950 . S
C2301 C2300 1.349 . S
C2301 C2317 1.349 . S
C2302 C2300 1.327 . S
C2302 C2321 1.429 . S
C2302 H2326 0.950 . S
C2303 C2320 1.574 . S
C2303 C2322 1.368 . S
C2303 H2327 0.949 . S
H2304 C2308 0.949 . S
C2305 C2306 1.349 . S
C2305 C2307 1.327 . S
C2305 H2328 0.950 . S
C2306 C2305 1.349 . S
C2306 C2318 1.349 . S
C2307 C2305 1.327 . S
C2307 C2323 1.429 . S
C2307 H2329 0.950 . S
C2308 H2304 0.949 . S
C2308 C2316 1.574 . S
C2308 C2324 1.368 . S
H2309 C2317 0.950 . S
H2310 C2315 0.950 . S
H2311 C2316 0.949 . S
H2312 C2318 0.950 . S
H2313 C2319 0.950 . S
H2314 C2320 0.949 . S
C2315 H2310 0.950 . S
C2315 C2317 1.327 . S
C2315 C2321 1.429 . S
C2316 C2308 1.574 . S
C2316 H2311 0.949 . S
C2316 C2322 1.368 . S
C2317 C2301 1.349 . S
C2317 H2309 0.950 . S
C2317 C2315 1.327 . S
C2318 C2306 1.349 . S
C2318 H2312 0.950 . S
C2318 C2319 1.327 . S
C2319 H2313 0.950 . S
C2319 C2318 1.327 . S
C2319 C2323 1.429 . S
C2320 C2303 1.574 . S
C2320 H2314 0.949 . S
C2320 C2324 1.368 . S
C2321 C2302 1.429 . S
C2321 C2315 1.429 . S
C2321 C2322 1.523 . S
C2322 C2303 1.368 . S
C2322 C2316 1.368 . S
C2322 C2321 1.523 . S
C2323 C2307 1.429 . S
C2323 C2319 1.429 . S
C2323 C2324 1.523 . S
C2324 C2308 1.368 . S
C2324 C2320 1.368 . S
C2324 C2323 1.523 . S
H2325 C2300 0.950 . S
H2326 C2302 0.950 . S
H2327 C2303 0.949 . S
H2328 C2305 0.950 . S
H2329 C2307 0.950 . S
C2330 C2331 1.349 . S
C2330 C2332 1.327 . S
C2330 H2355 0.950 . S
C2331 C2330 1.349 . S
C2331 C2347 1.349 . S
C2332 C2330 1.327 . S
C2332 C2351 1.429 . S
C2332 H2356 0.950 . S
C2333 C2350 1.574 . S
C2333 C2352 1.368 . S
C2333 H2357 0.949 . S
H2334 C2338 0.949 . S
C2335 C2336 1.349 . S
C2335 C2337 1.327 . S
C2335 H2358 0.950 . S
C2336 C2335 1.349 . S
C2336 C2348 1.349 . S
C2337 C2335 1.327 . S
C2337 C2353 1.429 . S
C2337 H2359 0.950 . S
C2338 H2334 0.949 . S
C2338 C2346 1.574 . S
C2338 C2354 1.368 . S
H2339 C2347 0.950 . S
H2340 C2345 0.950 . S
H2341 C2346 0.949 . S
H2342 C2348 0.950 . S
H2343 C2349 0.950 . S
H2344 C2350 0.949 . S
C2345 H2340 0.950 . S
C2345 C2347 1.327 . S
C2345 C2351 1.429 . S
C2346 C2338 1.574 . S
C2346 H2341 0.949 . S
C2346 C2352 1.368 . S
C2347 C2331 1.349 . S
C2347 H2339 0.950 . S
C2347 C2345 1.327 . S
C2348 C2336 1.349 . S
C2348 H2342 0.950 . S
C2348 C2349 1.327 . S
C2349 H2343 0.950 . S
C2349 C2348 1.327 . S
C2349 C2353 1.429 . S
C2350 C2333 1.574 . S
C2350 H2344 0.949 . S
C2350 C2354 1.368 . S
C2351 C2332 1.429 . S
C2351 C2345 1.429 . S
C2351 C2352 1.523 . S
C2352 C2333 1.368 . S
C2352 C2346 1.368 . S
C2352 C2351 1.523 . S
C2353 C2337 1.429 . S
C2353 C2349 1.429 . S
C2353 C2354 1.523 . S
C2354 C2338 1.368 . S
C2354 C2350 1.368 . S
C2354 C2353 1.523 . S
H2355 C2330 0.950 . S
H2356 C2332 0.950 . S
H2357 C2333 0.949 . S
H2358 C2335 0.950 . S
H2359 C2337 0.950 . S
C2360 C2361 1.349 . S
C2360 C2362 1.327 . S
C2360 H2385 0.950 . S
C2361 C2360 1.349 . S
C2361 C2377 1.349 . S
C2362 C2360 1.327 . S
C2362 C2381 1.429 . S
C2362 H2386 0.950 . S
C2363 C2380 1.574 . S
C2363 C2382 1.368 . S
C2363 H2387 0.949 . S
H2364 C2368 0.949 . S
C2365 C2366 1.349 . S
C2365 C2367 1.327 . S
C2365 H2388 0.950 . S
C2366 C2365 1.349 . S
C2366 C2378 1.349 . S
C2367 C2365 1.327 . S
C2367 C2383 1.429 . S
C2367 H2389 0.950 . S
C2368 H2364 0.949 . S
C2368 C2376 1.574 . S
C2368 C2384 1.368 . S
H2369 C2377 0.950 . S
H2370 C2375 0.950 . S
H2371 C2376 0.949 . S
H2372 C2378 0.950 . S
H2373 C2379 0.950 . S
H2374 C2380 0.949 . S
C2375 H2370 0.950 . S
C2375 C2377 1.327 . S
C2375 C2381 1.429 . S
C2376 C2368 1.574 . S
C2376 H2371 0.949 . S
C2376 C2382 1.368 . S
C2377 C2361 1.349 . S
C2377 H2369 0.950 . S
C2377 C2375 1.327 . S
C2378 C2366 1.349 . S
C2378 H2372 0.950 . S
C2378 C2379 1.327 . S
C2379 H2373 0.950 . S
C2379 C2378 1.327 . S
C2379 C2383 1.429 . S
C2380 C2363 1.574 . S
C2380 H2374 0.949 . S
C2380 C2384 1.368 . S
C2381 C2362 1.429 . S
C2381 C2375 1.429 . S
C2381 C2382 1.523 . S
C2382 C2363 1.368 . S
C2382 C2376 1.368 . S
C2382 C2381 1.523 . S
C2383 C2367 1.429 . S
C2383 C2379 1.429 . S
C2383 C2384 1.523 . S
C2384 C2368 1.368 . S
C2384 C2380 1.368 . S
C2384 C2383 1.523 . S
H2385 C2360 0.950 . S
H2386 C2362 0.950 . S
H2387 C2363 0.949 . S
H2388 C2365 0.950 . S
H2389 C2367 0.950 . S
C2390 C2391 1.349 . S
C2390 C2392 1.327 . S
C2390 H2415 0.950 . S
C2391 C2390 1.349 . S
C2391 C2407 1.349 . S
C2392 C2390 1.327 . S
C2392 C2411 1.429 . S
C2392 H2416 0.950 . S
C2393 C2410 1.574 . S
C2393 C2412 1.368 . S
C2393 H2417 0.949 . S
H2394 C2398 0.949 . S
C2395 C2396 1.349 . S
C2395 C2397 1.327 . S
C2395 H2418 0.950 . S
C2396 C2395 1.349 . S
C2396 C2408 1.349 . S
C2397 C2395 1.327 . S
C2397 C2413 1.429 . S
C2397 H2419 0.950 . S
C2398 H2394 0.949 . S
C2398 C2406 1.574 . S
C2398 C2414 1.368 . S
H2399 C2407 0.950 . S
H2400 C2405 0.950 . S
H2401 C2406 0.949 . S
H2402 C2408 0.950 . S
H2403 C2409 0.950 . S
H2404 C2410 0.949 . S
C2405 H2400 0.950 . S
C2405 C2407 1.327 . S
C2405 C2411 1.429 . S
C2406 C2398 1.574 . S
C2406 H2401 0.949 . S
C2406 C2412 1.368 . S
C2407 C2391 1.349 . S
C2407 H2399 0.950 . S
C2407 C2405 1.327 . S
C2408 C2396 1.349 . S
C2408 H2402 0.950 . S
C2408 C2409 1.327 . S
C2409 H2403 0.950 . S
C2409 C2408 1.327 . S
C2409 C2413 1.429 . S
C2410 C2393 1.574 . S
C2410 H2404 0.949 . S
C2410 C2414 1.368 . S
C2411 C2392 1.429 . S
C2411 C2405 1.429 . S
C2411 C2412 1.523 . S
C2412 C2393 1.368 . S
C2412 C2406 1.368 . S
C2412 C2411 1.523 . S
C2413 C2397 1.429 . S
C2413 C2409 1.429 . S
C2413 C2414 1.523 . S
C2414 C2398 1.368 . S
C2414 C2410 1.368 . S
C2414 C2413 1.523 . S
H2415 C2390 0.950 . S
H2416 C2392 0.950 . S
H2417 C2393 0.949 . S
H2418 C2395 0.950 . S
H2419 C2397 0.950 . S
C2420 C2421 1.349 . S
C2420 C2422 1.327 . S
C2420 H2445 0.950 . S
C2421 C2420 1.349 . S
C2421 C2437 1.349 . S
C2422 C2420 1.327 . S
C2422 C2441 1.429 . S
C2422 H2446 0.950 . S
C2423 C2440 1.574 . S
C2423 C2442 1.368 . S
C2423 H2447 0.949 . S
H2424 C2428 0.949 . S
C2425 C2426 1.349 . S
C2425 C2427 1.327 . S
C2425 H2448 0.950 . S
C2426 C2425 1.349 . S
C2426 C2438 1.349 . S
C2427 C2425 1.327 . S
C2427 C2443 1.429 . S
C2427 H2449 0.950 . S
C2428 H2424 0.949 . S
C2428 C2436 1.574 . S
C2428 C2444 1.368 . S
H2429 C2437 0.950 . S
H2430 C2435 0.950 . S
H2431 C2436 0.949 . S
H2432 C2438 0.950 . S
H2433 C2439 0.950 . S
H2434 C2440 0.949 . S
C2435 H2430 0.950 . S
C2435 C2437 1.327 . S
C2435 C2441 1.429 . S
C2436 C2428 1.574 . S
C2436 H2431 0.949 . S
C2436 C2442 1.368 . S
C2437 C2421 1.349 . S
C2437 H2429 0.950 . S
C2437 C2435 1.327 . S
C2438 C2426 1.349 . S
C2438 H2432 0.950 . S
C2438 C2439 1.327 . S
C2439 H2433 0.950 . S
C2439 C2438 1.327 . S
C2439 C2443 1.429 . S
C2440 C2423 1.574 . S
C2440 H2434 0.949 . S
C2440 C2444 1.368 . S
C2441 C2422 1.429 . S
C2441 C2435 1.429 . S
C2441 C2442 1.523 . S
C2442 C2423 1.368 . S
C2442 C2436 1.368 . S
C2442 C2441 1.523 . S
C2443 C2427 1.429 . S
C2443 C2439 1.429 . S
C2443 C2444 1.523 . S
C2444 C2428 1.368 . S
C2444 C2440 1.368 . S
C2444 C2443 1.523 . S
H2445 C2420 0.950 . S
H2446 C2422 0.950 . S
H2447 C2423 0.949 . S
H2448 C2425 0.950 . S
H2449 C2427 0.950 . S
C2450 C2451 1.349 . S
C2450 C2452 1.327 . S
C2450 H2475 0.950 . S
C2451 C2450 1.349 . S
C2451 C2467 1.349 . S
C2452 C2450 1.327 . S
C2452 C2471 1.429 . S
C2452 H2476 0.950 . S
C2453 C2470 1.574 . S
C2453 C2472 1.368 . S
C2453 H2477 0.949 . S
H2454 C2458 0.949 . S
C2455 C2456 1.349 . S
C2455 C2457 1.327 . S
C2455 H2478 0.950 . S
C2456 C2455 1.349 . S
C2456 C2468 1.349 . S
C2457 C2455 1.327 . S
C2457 C2473 1.429 . S
C2457 H2479 0.950 . S
C2458 H2454 0.949 . S
C2458 C2466 1.574 . S
C2458 C2474 1.368 . S
H2459 C2467 0.950 . S
H2460 C2465 0.950 . S
H2461 C2466 0.949 . S
H2462 C2468 0.950 . S
H2463 C2469 0.950 . S
H2464 C2470 0.949 . S
C2465 H2460 0.950 . S
C2465 C2467 1.327 . S
C2465 C2471 1.429 . S
C2466 C2458 1.574 . S
C2466 H2461 0.949 . S
C2466 C2472 1.368 . S
C2467 C2451 1.349 . S
C2467 H2459 0.950 . S
C2467 C2465 1.327 . S
C2468 C2456 1.349 . S
C2468 H2462 0.950 . S
C2468 C2469 1.327 . S
C2469 H2463 0.950 . S
C2469 C2468 1.327 . S
C2469 C2473 1.429 . S
C2470 C2453 1.574 . S
C2470 H2464 0.949 . S
C2470 C2474 1.368 . S
C2471 C2452 1.429 . S
C2471 C2465 1.429 . S
C2471 C2472 1.523 . S
C2472 C2453 1.368 . S
C2472 C2466 1.368 . S
C2472 C2471 1.523 . S
C2473 C2457 1.429 . S
C2473 C2469 1.429 . S
C2473 C2474 1.523 . S
C2474 C2458 1.368 . S
C2474 C2470 1.368 . S
C2474 C2473 1.523 . S
H2475 C2450 0.950 . S
H2476 C2452 0.950 . S
H2477 C2453 0.949 . S
H2478 C2455 0.950 . S
H2479 C2457 0.950 . S
C2480 C2481 1.349 . S
C2480 C2482 1.327 . S
C2480 H2505 0.950 . S
C2481 C2480 1.349 . S
C2481 C2497 1.349 . S
C2482 C2480 1.327 . S
C2482 C2501 1.429 . S
C2482 H2506 0.950 . S
C2483 C2500 1.574 . S
C2483 C2502 1.368 . S
C2483 H2507 0.949 . S
H2484 C2488 0.949 . S
C2485 C2486 1.349 . S
C2485 C2487 1.327 . S
C2485 H2508 0.950 . S
C2486 C2485 1.349 . S
C2486 C2498 1.349 . S
C2487 C2485 1.327 . S
C2487 C2503 1.429 . S
C2487 H2509 0.950 . S
C2488 H2484 0.949 . S
C2488 C2496 1.574 . S
C2488 C2504 1.368 . S
H2489 C2497 0.950 . S
H2490 C2495 0.950 . S
H2491 C2496 0.949 . S
H2492 C2498 0.950 . S
H2493 C2499 0.950 . S
H2494 C2500 0.949 . S
C2495 H2490 0.950 . S
C2495 C2497 1.327 . S
C2495 C2501 1.429 . S
C2496 C2488 1.574 . S
C2496 H2491 0.949 . S
C2496 C2502 1.368 . S
C2497 C2481 1.349 . S
C2497 H2489 0.950 . S
C2497 C2495 1.327 . S
C2498 C2486 1.349 . S
C2498 H2492 0.950 . S
C2498 C2499 1.327 . S
C2499 H2493 0.950 . S
C2499 C2498 1.327 . S
C2499 C2503 1.429 . S
C2500 C2483 1.574 . S
C2500 H2494 0.949 . S
C2500 C2504 1.368 . S
C2501 C2482 1.429 . S
C2501 C2495 1.429 . S
C2501 C2502 1.523 . S
C2502 C2483 1.368 . S
C2502 C2496 1.368 . S
C2502 C2501 1.523 . S
C2503 C2487 1.429 . S
C2503 C2499 1.429 . S
C2503 C2504 1.523 . S
C2504 C2488 1.368 . S
C2504 C2500 1.368 . S
C2504 C2503 1.523 . S
H2505 C2480 0.950 . S
H2506 C2482 0.950 . S
H2507 C2483 0.949 . S
H2508 C2485 0.950 . S
H2509 C2487 0.950 . S
C2510 C2511 1.349 . S
C2510 C2512 1.327 . S
C2510 H2535 0.950 . S
C2511 C2510 1.349 . S
C2511 C2527 1.349 . S
C2512 C2510 1.327 . S
C2512 C2531 1.429 . S
C2512 H2536 0.950 . S
C2513 C2530 1.574 . S
C2513 C2532 1.368 . S
C2513 H2537 0.949 . S
H2514 C2518 0.949 . S
C2515 C2516 1.349 . S
C2515 C2517 1.327 . S
C2515 H2538 0.950 . S
C2516 C2515 1.349 . S
C2516 C2528 1.349 . S
C2517 C2515 1.327 . S
C2517 C2533 1.429 . S
C2517 H2539 0.950 . S
C2518 H2514 0.949 . S
C2518 C2526 1.574 . S
C2518 C2534 1.368 . S
H2519 C2527 0.950 . S
H2520 C2525 0.950 . S
H2521 C2526 0.949 . S
H2522 C2528 0.950 . S
H2523 C2529 0.950 . S
H2524 C2530 0.949 . S
C2525 H2520 0.950 . S
C2525 C2527 1.327 . S
C2525 C2531 1.429 . S
C2526 C2518 1.574 . S
C2526 H2521 0.949 . S
C2526 C2532 1.368 . S
C2527 C2511 1.349 . S
C2527 H2519 0.950 . S
C2527 C2525 1.327 . S
C2528 C2516 1.349 . S
C2528 H2522 0.950 . S
C2528 C2529 1.327 . S
C2529 H2523 0.950 . S
C2529 C2528 1.327 . S
C2529 C2533 1.429 . S
C2530 C2513 1.574 . S
C2530 H2524 0.949 . S
C2530 C2534 1.368 . S
C2531 C2512 1.429 . S
C2531 C2525 1.429 . S
C2531 C2532 1.523 . S
C2532 C2513 1.368 . S
C2532 C2526 1.368 . S
C2532 C2531 1.523 . S
C2533 C2517 1.429 . S
C2533 C2529 1.429 . S
C2533 C2534 1.523 . S
C2534 C2518 1.368 . S
C2534 C2530 1.368 . S
C2534 C2533 1.523 . S
H2535 C2510 0.950 . S
H2536 C2512 0.950 . S
H2537 C2513 0.949 . S
H2538 C2515 0.950 . S
H2539 C2517 0.950 . S
C2540 C2541 1.349 . S
C2540 C2542 1.327 . S
C2540 H2565 0.950 . S
C2541 C2540 1.349 . S
C2541 C2557 1.349 . S
C2542 C2540 1.327 . S
C2542 C2561 1.429 . S
C2542 H2566 0.950 . S
C2543 C2560 1.574 . S
C2543 C2562 1.368 . S
C2543 H2567 0.949 . S
H2544 C2548 0.949 . S
C2545 C2546 1.349 . S
C2545 C2547 1.327 . S
C2545 H2568 0.950 . S
C2546 C2545 1.349 . S
C2546 C2558 1.349 . S
C2547 C2545 1.327 . S
C2547 C2563 1.429 . S
C2547 H2569 0.950 . S
C2548 H2544 0.949 . S
C2548 C2556 1.574 . S
C2548 C2564 1.368 . S
H2549 C2557 0.950 . S
H2550 C2555 0.950 . S
H2551 C2556 0.949 . S
H2552 C2558 0.950 . S
H2553 C2559 0.950 . S
H2554 C2560 0.949 . S
C2555 H2550 0.950 . S
C2555 C2557 1.327 . S
C2555 C2561 1.429 . S
C2556 C2548 1.574 . S
C2556 H2551 0.949 . S
C2556 C2562 1.368 . S
C2557 C2541 1.349 . S
C2557 H2549 0.950 . S
C2557 C2555 1.327 . S
C2558 C2546 1.349 . S
C2558 H2552 0.950 . S
C2558 C2559 1.327 . S
C2559 H2553 0.950 . S
C2559 C2558 1.327 . S
C2559 C2563 1.429 . S
C2560 C2543 1.574 . S
C2560 H2554 0.949 . S
C2560 C2564 1.368 . S
C2561 C2542 1.429 . S
C2561 C2555 1.429 . S
C2561 C2562 1.523 . S
C2562 C2543 1.368 . S
C2562 C2556 1.368 . S
C2562 C2561 1.523 . S
C2563 C2547 1.429 . S
C2563 C2559 1.429 . S
C2563 C2564 1.523 . S
C2564 C2548 1.368 . S
C2564 C2560 1.368 . S
C2564 C2563 1.523 . S
H2565 C2540 0.950 . S
H2566 C2542 0.950 . S
H2567 C2543 0.949 . S
H2568 C2545 0.950 . S
H2569 C2547 0.950 . S
C2570 C2571 1.349 . S
C2570 C2572 1.327 . S
C2570 H2595 0.950 . S
C2571 C2570 1.349 . S
C2571 C2587 1.349 . S
C2572 C2570 1.327 . S
C2572 C2591 1.429 . S
C2572 H2596 0.950 . S
C2573 C2590 1.574 . S
C2573 C2592 1.368 . S
C2573 H2597 0.949 . S
H2574 C2578 0.949 . S
C2575 C2576 1.349 . S
C2575 C2577 1.327 . S
C2575 H2598 0.950 . S
C2576 C2575 1.349 . S
C2576 C2588 1.349 . S
C2577 C2575 1.327 . S
C2577 C2593 1.429 . S
C2577 H2599 0.950 . S
C2578 H2574 0.949 . S
C2578 C2586 1.574 . S
C2578 C2594 1.368 . S
H2579 C2587 0.950 . S
H2580 C2585 0.950 . S
H2581 C2586 0.949 . S
H2582 C2588 0.950 . S
H2583 C2589 0.950 . S
H2584 C2590 0.949 . S
C2585 H2580 0.950 . S
C2585 C2587 1.327 . S
C2585 C2591 1.429 . S
C2586 C2578 1.574 . S
C2586 H2581 0.949 . S
C2586 C2592 1.368 . S
C2587 C2571 1.349 . S
C2587 H2579 0.950 . S
C2587 C2585 1.327 . S
C2588 C2576 1.349 . S
C2588 H2582 0.950 . S
C2588 C2589 1.327 . S
C2589 H2583 0.950 . S
C2589 C2588 1.327 . S
C2589 C2593 1.429 . S
C2590 C2573 1.574 . S
C2590 H2584 0.949 . S
C2590 C2594 1.368 . S
C2591 C2572 1.429 . S
C2591 C2585 1.429 . S
C2591 C2592 1.523 . S
C2592 C2573 1.368 . S
C2592 C2586 1.368 . S
C2592 C2591 1.523 . S
C2593 C2577 1.429 . S
C2593 C2589 1.429 . S
C2593 C2594 1.523 . S
C2594 C2578 1.368 . S
C2594 C2590 1.368 . S
C2594 C2593 1.523 . S
H2595 C2570 0.950 . S
H2596 C2572 0.950 . S
H2597 C2573 0.949 . S
H2598 C2575 0.950 . S
H2599 C2577 0.950 . S
C2600 C2601 1.349 . S
C2600 C2602 1.327 . S
C2600 H2625 0.950 . S
C2601 C2600 1.349 . S
C2601 C2617 1.349 . S
C2602 C2600 1.327 . S
C2602 C2621 1.429 . S
C2602 H2626 0.950 . S
C2603 C2620 1.574 . S
C2603 C2622 1.368 . S
C2603 H2627 0.949 . S
H2604 C2608 0.949 . S
C2605 C2606 1.349 . S
C2605 C2607 1.327 . S
C2605 H2628 0.950 . S
C2606 C2605 1.349 . S
C2606 C2618 1.349 . S
C2607 C2605 1.327 . S
C2607 C2623 1.429 . S
C2607 H2629 0.950 . S
C2608 H2604 0.949 . S
C2608 C2616 1.574 . S
C2608 C2624 1.368 . S
H2609 C2617 0.950 . S
H2610 C2615 0.950 . S
H2611 C2616 0.949 . S
H2612 C2618 0.950 . S
H2613 C2619 0.950 . S
H2614 C2620 0.949 . S
C2615 H2610 0.950 . S
C2615 C2617 1.327 . S
C2615 C2621 1.429 . S
C2616 C2608 1.574 . S
C2616 H2611 0.949 . S
C2616 C2622 1.368 . S
C2617 C2601 1.349 . S
C2617 H2609 0.950 . S
C2617 C2615 1.327 . S
C2618 C2606 1.349 . S
C2618 H2612 0.950 . S
C2618 C2619 1.327 . S
C2619 H2613 0.950 . S
C2619 C2618 1.327 . S
C2619 C2623 1.429 . S
C2620 C2603 1.574 . S
C2620 H2614 0.949 . S
C2620 C2624 1.368 . S
C2621 C2602 1.429 . S
C2621 C2615 1.429 . S
C2621 C2622 1.523 . S
C2622 C2603 1.368 . S
C2622 C2616 1.368 . S
C2622 C2621 1.523 . S
C2623 C2607 1.429 . S
C2623 C2619 1.429 . S
C2623 C2624 1.523 . S
C2624 C2608 1.368 . S
C2624 C2620 1.368 . S
C2624 C2623 1.523 . S
H2625 C2600 0.950 . S
H2626 C2602 0.950 . S
H2627 C2603 0.949 . S
H2628 C2605 0.950 . S
H2629 C2607 0.950 . S
C2630 C2631 1.349 . S
C2630 C2632 1.327 . S
C2630 H2655 0.950 . S
C2631 C2630 1.349 . S
C2631 C2647 1.349 . S
C2632 C2630 1.327 . S
C2632 C2651 1.429 . S
C2632 H2656 0.950 . S
C2633 C2650 1.574 . S
C2633 C2652 1.368 . S
C2633 H2657 0.949 . S
H2634 C2638 0.949 . S
C2635 C2636 1.349 . S
C2635 C2637 1.327 . S
C2635 H2658 0.950 . S
C2636 C2635 1.349 . S
C2636 C2648 1.349 . S
C2637 C2635 1.327 . S
C2637 C2653 1.429 . S
C2637 H2659 0.950 . S
C2638 H2634 0.949 . S
C2638 C2646 1.574 . S
C2638 C2654 1.368 . S
H2639 C2647 0.950 . S
H2640 C2645 0.950 . S
H2641 C2646 0.949 . S
H2642 C2648 0.950 . S
H2643 C2649 0.950 . S
H2644 C2650 0.949 . S
C2645 H2640 0.950 . S
C2645 C2647 1.327 . S
C2645 C2651 1.429 . S
C2646 C2638 1.574 . S
C2646 H2641 0.949 . S
C2646 C2652 1.368 . S
C2647 C2631 1.349 . S
C2647 H2639 0.950 . S
C2647 C2645 1.327 . S
C2648 C2636 1.349 . S
C2648 H2642 0.950 . S
C2648 C2649 1.327 . S
C2649 H2643 0.950 . S
C2649 C2648 1.327 . S
C2649 C2653 1.429 . S
C2650 C2633 1.574 . S
C2650 H2644 0.949 . S
C2650 C2654 1.368 . S
C2651 C2632 1.429 . S
C2651 C2645 1.429 . S
C2651 C2652 1.523 . S
C2652 C2633 1.368 . S
C2652 C2646 1.368 . S
C2652 C2651 1.523 . S
C2653 C2637 1.429 . S
C2653 C2649 1.429 . S
C2653 C2654 1.523 . S
C2654 C2638 1.368 . S
C2654 C2650 1.368 . S
C2654 C2653 1.523 . S
H2655 C2630 0.950 . S
H2656 C2632 0.950 . S
H2657 C2633 0.949 . S
H2658 C2635 0.950 . S
H2659 C2637 0.950 . S
C2660 C2661 1.349 . S
C2660 C2662 1.327 . S
C2660 H2685 0.950 . S
C2661 C2660 1.349 . S
C2661 C2677 1.349 . S
C2662 C2660 1.327 . S
C2662 C2681 1.429 . S
C2662 H2686 0.950 . S
C2663 C2680 1.574 . S
C2663 C2682 1.368 . S
C2663 H2687 0.949 . S
H2664 C2668 0.949 . S
C2665 C2666 1.349 . S
C2665 C2667 1.327 . S
C2665 H2688 0.950 . S
C2666 C2665 1.349 . S
C2666 C2678 1.349 . S
C2667 C2665 1.327 . S
C2667 C2683 1.429 . S
C2667 H2689 0.950 . S
C2668 H2664 0.949 . S
C2668 C2676 1.574 . S
C2668 C2684 1.368 . S
H2669 C2677 0.950 . S
H2670 C2675 0.950 . S
H2671 C2676 0.949 . S
H2672 C2678 0.950 . S
H2673 C2679 0.950 . S
H2674 C2680 0.949 . S
C2675 H2670 0.950 . S
C2675 C2677 1.327 . S
C2675 C2681 1.429 . S
C2676 C2668 1.574 . S
C2676 H2671 0.949 . S
C2676 C2682 1.368 . S
C2677 C2661 1.349 . S
C2677 H2669 0.950 . S
C2677 C2675 1.327 . S
C2678 C2666 1.349 . S
C2678 H2672 0.950 . S
C2678 C2679 1.327 . S
C2679 H2673 0.950 . S
C2679 C2678 1.327 . S
C2679 C2683 1.429 . S
C2680 C2663 1.574 . S
C2680 H2674 0.949 . S
C2680 C2684 1.368 . S
C2681 C2662 1.429 . S
C2681 C2675 1.429 . S
C2681 C2682 1.523 . S
C2682 C2663 1.368 . S
C2682 C2676 1.368 . S
C2682 C2681 1.523 . S
C2683 C2667 1.429 . S
C2683 C2679 1.429 . S
C2683 C2684 1.523 . S
C2684 C2668 1.368 . S
C2684 C2680 1.368 . S
C2684 C2683 1.523 . S
H2685 C2660 0.950 . S
H2686 C2662 0.950 . S
H2687 C2663 0.949 . S
H2688 C2665 0.950 . S
H2689 C2667 0.950 . S
C2690 C2691 1.349 . S
C2690 C2692 1.327 . S
C2690 H2715 0.950 . S
C2691 C2690 1.349 . S
C2691 C2707 1.349 . S
C2692 C2690 1.327 . S
C2692 C2711 1.429 . S
C2692 H2716 0.950 . S
C2693 C2710 1.574 . S
C2693 C2712 1.368 . S
C2693 H2717 0.949 . S
H2694 C2698 0.949 . S
C2695 C2696 1.349 . S
C2695 C2697 1.327 . S
C2695 H2718 0.950 . S
C2696 C2695 1.349 . S
C2696 C2708 1.349 . S
C2697 C2695 1.327 . S
C2697 C2713 1.429 . S
C2697 H2719 0.950 . S
C2698 H2694 0.949 . S
C2698 C2706 1.574 . S
C2698 C2714 1.368 . S
H2699 C2707 0.950 . S
H2700 C2705 0.950 . S
H2701 C2706 0.949 . S
H2702 C2708 0.950 . S
H2703 C2709 0.950 . S
H2704 C2710 0.949 . S
C2705 H2700 0.950 . S
C2705 C2707 1.327 . S
C2705 C2711 1.429 . S
C2706 C2698 1.574 . S
C2706 H2701 0.949 . S
C2706 C2712 1.368 . S
C2707 C2691 1.349 . S
C2707 H2699 0.950 . S
C2707 C2705 1.327 . S
C2708 C2696 1.349 . S
C2708 H2702 0.950 . S
C2708 C2709 1.327 . S
C2709 H2703 0.950 . S
C2709 C2708 1.327 . S
C2709 C2713 1.429 . S
C2710 C2693 1.574 . S
C2710 H2704 0.949 . S
C2710 C2714 1.368 . S
C2711 C2692 1.429 . S
C2711 C2705 1.429 . S
C2711 C2712 1.523 . S
C2712 C2693 1.368 . S
C2712 C2706 1.368 . S
C2712 C2711 1.523 . S
C2713 C2697 1.429 . S
C2713 C2709 1.429 . S
C2713 C2714 1.523 . S
C2714 C2698 1.368 . S
C2714 C2710 1.368 . S
C2714 C2713 1.523 . S
H2715 C2690 0.950 . S
H2716 C2692 0.950 . S
H2717 C2693 0.949 . S
H2718 C2695 0.950 . S
H2719 C2697 0.950 . S
C2720 C2721 1.349 . S
C2720 C2722 1.327 . S
C2720 H2745 0.950 . S
C2721 C2720 1.349 . S
C2721 C2737 1.349 . S
C2722 C2720 1.327 . S
C2722 C2741 1.429 . S
C2722 H2746 0.950 . S
C2723 C2740 1.574 . S
C2723 C2742 1.368 . S
C2723 H2747 0.949 . S
H2724 C2728 0.949 . S
C2725 C2726 1.349 . S
C2725 C2727 1.327 . S
C2725 H2748 0.950 . S
C2726 C2725 1.349 . S
C2726 C2738 1.349 . S
C2727 C2725 1.327 . S
C2727 C2743 1.429 . S
C2727 H2749 0.950 . S
C2728 H2724 0.949 . S
C2728 C2736 1.574 . S
C2728 C2744 1.368 . S
H2729 C2737 0.950 . S
H2730 C2735 0.950 . S
H2731 C2736 0.949 . S
H2732 C2738 0.950 . S
H2733 C2739 0.950 . S
H2734 C2740 0.949 . S
C2735 H2730 0.950 . S
C2735 C2737 1.327 . S
C2735 C2741 1.429 . S
C2736 C2728 1.574 . S
C2736 H2731 0.949 . S
C2736 C2742 1.368 . S
C2737 C2721 1.349 . S
C2737 H2729 0.950 . S
C2737 C2735 1.327 . S
C2738 C2726 1.349 . S
C2738 H2732 0.950 . S
C2738 C2739 1.327 . S
C2739 H2733 0.950 . S
C2739 C2738 1.327 . S
C2739 C2743 1.429 . S
C2740 C2723 1.574 . S
C2740 H2734 0.949 . S
C2740 C2744 1.368 . S
C2741 C2722 1.429 . S
C2741 C2735 1.429 . S
C2741 C2742 1.523 . S
C2742 C2723 1.368 . S
C2742 C2736 1.368 . S
C2742 C2741 1.523 . S
C2743 C2727 1.429 . S
C2743 C2739 1.429 . S
C2743 C2744 1.523 . S
C2744 C2728 1.368 . S
C2744 C2740 1.368 . S
C2744 C2743 1.523 . S
H2745 C2720 0.950 . S
H2746 C2722 0.950 . S
H2747 C2723 0.949 . S
H2748 C2725 0.950 . S
H2749 C2727 0.950 . S
C2750 C2751 1.349 . S
C2750 C2752 1.327 . S
C2750 H2775 0.950 . S
C2751 C2750 1.349 . S
C2751 C2767 1.349 . S
C2752 C2750 1.327 . S
C2752 C2771 1.429 . S
C2752 H2776 0.950 . S
C2753 C2770 1.574 . S
C2753 C2772 1.368 . S
C2753 H2777 0.949 . S
H2754 C2758 0.949 . S
C2755 C2756 1.349 . S
C2755 C2757 1.327 . S
C2755 H2778 0.950 . S
C2756 C2755 1.349 . S
C2756 C2768 1.349 . S
C2757 C2755 1.327 . S
C2757 C2773 1.429 . S
C2757 H2779 0.950 . S
C2758 H2754 0.949 . S
C2758 C2766 1.574 . S
C2758 C2774 1.368 . S
H2759 C2767 0.950 . S
H2760 C2765 0.950 . S
H2761 C2766 0.949 . S
H2762 C2768 0.950 . S
H2763 C2769 0.950 . S
H2764 C2770 0.949 . S
C2765 H2760 0.950 . S
C2765 C2767 1.327 . S
C2765 C2771 1.429 . S
C2766 C2758 1.574 . S
C2766 H2761 0.949 . S
C2766 C2772 1.368 . S
C2767 C2751 1.349 . S
C2767 H2759 0.950 . S
C2767 C2765 1.327 . S
C2768 C2756 1.349 . S
C2768 H2762 0.950 . S
C2768 C2769 1.327 . S
C2769 H2763 0.950 . S
C2769 C2768 1.327 . S
C2769 C2773 1.429 . S
C2770 C2753 1.574 . S
C2770 H2764 0.949 . S
C2770 C2774 1.368 . S
C2771 C2752 1.429 . S
C2771 C2765 1.429 . S
C2771 C2772 1.523 . S
C2772 C2753 1.368 . S
C2772 C2766 1.368 . S
C2772 C2771 1.523 . S
C2773 C2757 1.429 . S
C2773 C2769 1.429 . S
C2773 C2774 1.523 . S
C2774 C2758 1.368 . S
C2774 C2770 1.368 . S
C2774 C2773 1.523 . S
H2775 C2750 0.950 . S
H2776 C2752 0.950 . S
H2777 C2753 0.949 . S
H2778 C2755 0.950 . S
H2779 C2757 0.950 . S
C2780 C2781 1.349 . S
C2780 C2782 1.327 . S
C2780 H2805 0.950 . S
C2781 C2780 1.349 . S
C2781 C2797 1.349 . S
C2782 C2780 1.327 . S
C2782 C2801 1.429 . S
C2782 H2806 0.950 . S
C2783 C2800 1.574 . S
C2783 C2802 1.368 . S
C2783 H2807 0.949 . S
H2784 C2788 0.949 . S
C2785 C2786 1.349 . S
C2785 C2787 1.327 . S
C2785 H2808 0.950 . S
C2786 C2785 1.349 . S
C2786 C2798 1.349 . S
C2787 C2785 1.327 . S
C2787 C2803 1.429 . S
C2787 H2809 0.950 . S
C2788 H2784 0.949 . S
C2788 C2796 1.574 . S
C2788 C2804 1.368 . S
H2789 C2797 0.950 . S
H2790 C2795 0.950 . S
H2791 C2796 0.949 . S
H2792 C2798 0.950 . S
H2793 C2799 0.950 . S
H2794 C2800 0.949 . S
C2795 H2790 0.950 . S
C2795 C2797 1.327 . S
C2795 C2801 1.429 . S
C2796 C2788 1.574 . S
C2796 H2791 0.949 . S
C2796 C2802 1.368 . S
C2797 C2781 1.349 . S
C2797 H2789 0.950 . S
C2797 C2795 1.327 . S
C2798 C2786 1.349 . S
C2798 H2792 0.950 . S
C2798 C2799 1.327 . S
C2799 H2793 0.950 . S
C2799 C2798 1.327 . S
C2799 C2803 1.429 . S
C2800 C2783 1.574 . S
C2800 H2794 0.949 . S
C2800 C2804 1.368 . S
C2801 C2782 1.429 . S
C2801 C2795 1.429 . S
C2801 C2802 1.523 . S
C2802 C2783 1.368 . S
C2802 C2796 1.368 . S
C2802 C2801 1.523 . S
C2803 C2787 1.429 . S
C2803 C2799 1.429 . S
C2803 C2804 1.523 . S
C2804 C2788 1.368 . S
C2804 C2800 1.368 . S
C2804 C2803 1.523 . S
H2805 C2780 0.950 . S
H2806 C2782 0.950 . S
H2807 C2783 0.949 . S
H2808 C2785 0.950 . S
H2809 C2787 0.950 . S
C2810 C2811 1.349 . S
C2810 C2812 1.327 . S
C2810 H2835 0.950 . S
C2811 C2810 1.349 . S
C2811 C2827 1.349 . S
C2812 C2810 1.327 . S
C2812 C2831 1.429 . S
C2812 H2836 0.950 . S
C2813 C2830 1.574 . S
C2813 C2832 1.368 . S
C2813 H2837 0.949 . S
H2814 C2818 0.949 . S
C2815 C2816 1.349 . S
C2815 C2817 1.327 . S
C2815 H2838 0.950 . S
C2816 C2815 1.349 . S
C2816 C2828 1.349 . S
C2817 C2815 1.327 . S
C2817 C2833 1.429 . S
C2817 H2839 0.950 . S
C2818 H2814 0.949 . S
C2818 C2826 1.574 . S
C2818 C2834 1.368 . S
H2819 C2827 0.950 . S
H2820 C2825 0.950 . S
H2821 C2826 0.949 . S
H2822 C2828 0.950 . S
H2823 C2829 0.950 . S
H2824 C2830 0.949 . S
C2825 H2820 0.950 . S
C2825 C2827 1.327 . S
C2825 C2831 1.429 . S
C2826 C2818 1.574 . S
C2826 H2821 0.949 . S
C2826 C2832 1.368 . S
C2827 C2811 1.349 . S
C2827 H2819 0.950 . S
C2827 C2825 1.327 . S
C2828 C2816 1.349 . S
C2828 H2822 0.950 . S
C2828 C2829 1.327 . S
C2829 H2823 0.950 . S
C2829 C2828 1.327 . S
C2829 C2833 1.429 . S
C2830 C2813 1.574 . S
C2830 H2824 0.949 . S
C2830 C2834 1.368 . S
C2831 C2812 1.429 . S
C2831 C2825 1.429 . S
C2831 C2832 1.523 . S
C2832 C2813 1.368 . S
C2832 C2826 1.368 . S
C2832 C2831 1.523 . S
C2833 C2817 1.429 . S
C2833 C2829 1.429 . S
C2833 C2834 1.523 . S
C2834 C2818 1.368 . S
C2834 C2830 1.368 . S
C2834 C2833 1.523 . S
H2835 C2810 0.950 . S
H2836 C2812 0.950 . S
H2837 C2813 0.949 . S
H2838 C2815 0.950 . S
H2839 C2817 0.950 . S
C2840 C2841 1.349 . S
C2840 C2842 1.327 . S
C2840 H2865 0.950 . S
C2841 C2840 1.349 . S
C2841 C2857 1.349 . S
C2842 C2840 1.327 . S
C2842 C2861 1.429 . S
C2842 H2866 0.950 . S
C2843 C2860 1.574 . S
C2843 C2862 1.368 . S
C2843 H2867 0.949 . S
H2844 C2848 0.949 . S
C2845 C2846 1.349 . S
C2845 C2847 1.327 . S
C2845 H2868 0.950 . S
C2846 C2845 1.349 . S
C2846 C2858 1.349 . S
C2847 C2845 1.327 . S
C2847 C2863 1.429 . S
C2847 H2869 0.950 . S
C2848 H2844 0.949 . S
C2848 C2856 1.574 . S
C2848 C2864 1.368 . S
H2849 C2857 0.950 . S
H2850 C2855 0.950 . S
H2851 C2856 0.949 . S
H2852 C2858 0.950 . S
H2853 C2859 0.950 . S
H2854 C2860 0.949 . S
C2855 H2850 0.950 . S
C2855 C2857 1.327 . S
C2855 C2861 1.429 . S
C2856 C2848 1.574 . S
C2856 H2851 0.949 . S
C2856 C2862 1.368 . S
C2857 C2841 1.349 . S
C2857 H2849 0.950 . S
C2857 C2855 1.327 . S
C2858 C2846 1.349 . S
C2858 H2852 0.950 . S
C2858 C2859 1.327 . S
C2859 H2853 0.950 . S
C2859 C2858 1.327 . S
C2859 C2863 1.429 . S
C2860 C2843 1.574 . S
C2860 H2854 0.949 . S
C2860 C2864 1.368 . S
C2861 C2842 1.429 . S
C2861 C2855 1.429 . S
C2861 C2862 1.523 . S
C2862 C2843 1.368 . S
C2862 C2856 1.368 . S
C2862 C2861 1.523 . S
C2863 C2847 1.429 . S
C2863 C2859 1.429 . S
C2863 C2864 1.523 . S
C2864 C2848 1.368 . S
C2864 C2860 1.368 . S
C2864 C2863 1.523 . S
H2865 C2840 0.950 . S
H2866 C2842 0.950 . S
H2867 C2843 0.949 . S
H2868 C2845 0.950 . S
H2869 C2847 0.950 . S
C2870 C2871 1.349 . S
C2870 C2872 1.327 . S
C2870 H2895 0.950 . S
C2871 C2870 1.349 . S
C2871 C2887 1.349 . S
C2872 C2870 1.327 . S
C2872 C2891 1.429 . S
C2872 H2896 0.950 . S
C2873 C2890 1.574 . S
C2873 C2892 1.368 . S
C2873 H2897 0.949 . S
H2874 C2878 0.949 . S
C2875 C2876 1.349 . S
C2875 C2877 1.327 . S
C2875 H2898 0.950 . S
C2876 C2875 1.349 . S
C2876 C2888 1.349 . S
C2877 C2875 1.327 . S
C2877 C2893 1.429 . S
C2877 H2899 0.950 . S
C2878 H2874 0.949 . S
C2878 C2886 1.574 . S
C2878 C2894 1.368 . S
H2879 C2887 0.950 . S
H2880 C2885 0.950 . S
H2881 C2886 0.949 . S
H2882 C2888 0.950 . S
H2883 C2889 0.950 . S
H2884 C2890 0.949 . S
C2885 H2880 0.950 . S
C2885 C2887 1.327 . S
C2885 C2891 1.429 . S
C2886 C2878 1.574 . S
C2886 H2881 0.949 . S
C2886 C2892 1.368 . S
C2887 C2871 1.349 . S
C2887 H2879 0.950 . S
C2887 C2885 1.327 . S
C2888 C2876 1.349 . S
C2888 H2882 0.950 . S
C2888 C2889 1.327 . S
C2889 H2883 0.950 . S
C2889 C2888 1.327 . S
C2889 C2893 1.429 . S
C2890 C2873 1.574 . S
C2890 H2884 0.949 . S
C2890 C2894 1.368 . S
C2891 C2872 1.429 . S
C2891 C2885 1.429 . S
C2891 C2892 1.523 . S
C2892 C2873 1.368 . S
C2892 C2886 1.368 . S
C2892 C2891 1.523 . S
C2893 C2877 1.429 . S
C2893 C2889 1.429 . S
C2893 C2894 1.523 . S
C2894 C2878 1.368 . S
C2894 C2890 1.368 . S
C2894 C2893 1.523 . S
H2895 C2870 0.950 . S
H2896 C2872 0.950 . S
H2897 C2873 0.949 . S
H2898 C2875 0.950 . S
H2899 C2877 0.950 . S
C2900 C2901 1.349 . S
C2900 C2902 1.327 . S
C2900 H2925 0.950 . S
C2901 C2900 1.349 . S
C2901 C2917 1.349 . S
C2902 C2900 1.327 . S
C2902 C2921 1.429 . S
C2902 H2926 0.950 . S
C2903 C2920 1.574 . S
C2903 C2922 1.368 . S
C2903 H2927 0.949 . S
H2904 C2908 0.949 . S
C2905 C2906 1.349 . S
C2905 C2907 1.327 . S
C2905 H2928 0.950 . S
C2906 C2905 1.349 . S
C2906 C2918 1.349 . S
C2907 C2905 1.327 . S
C2907 C2923 1.429 . S
C2907 H2929 0.950 . S
C2908 H2904 0.949 . S
C2908 C2916 1.574 . S
C2908 C2924 1.368 . S
H2909 C2917 0.950 . S
H2910 C2915 0.950 . S
H2911 C2916 0.949 . S
H2912 C2918 0.950 . S
H2913 C2919 0.950 . S
H2914 C2920 0.949 . S
C2915 H2910 0.950 . S
C2915 C2917 1.327 . S
C2915 C2921 1.429 . S
C2916 C2908 1.574 . S
C2916 H2911 0.949 . S
C2916 C2922 1.368 . S
C2917 C2901 1.349 . S
C2917 H2909 0.950 . S
C2917 C2915 1.327 . S
C2918 C2906 1.349 . S
C2918 H2912 0.950 . S
C2918 C2919 1.327 . S
C2919 H2913 0.950 . S
C2919 C2918 1.327 . S
C2919 C2923 1.429 . S
C2920 C2903 1.574 . S
C2920 H2914 0.949 . S
C2920 C2924 1.368 . S
C2921 C2902 1.429 . S
C2921 C2915 1.429 . S
C2921 C2922 1.523 . S
C2922 C2903 1.368 . S
C2922 C2916 1.368 . S
C2922 C2921 1.523 . S
C2923 C2907 1.429 . S
C2923 C2919 1.429 . S
C2923 C2924 1.523 . S
C2924 C2908 1.368 . S
C2924 C2920 1.368 . S
C2924 C2923 1.523 . S
H2925 C2900 0.950 . S
H2926 C2902 0.950 . S
H2927 C2903 0.949 . S
H2928 C2905 0.950 . S
H2929 C2907 0.950 . S
C2930 C2931 1.349 . S
C2930 C2932 1.327 . S
C2930 H2955 0.950 . S
C2931 C2930 1.349 . S
C2931 C2947 1.349 . S
C2932 C2930 1.327 . S
C2932 C2951 1.429 . S
C2932 H2956 0.950 . S
C2933 C2950 1.574 . S
C2933 C2952 1.368 . S
C2933 H2957 0.949 . S
H2934 C2938 0.949 . S
C2935 C2936 1.349 . S
C2935 C2937 1.327 . S
C2935 H2958 0.950 . S
C2936 C2935 1.349 . S
C2936 C2948 1.349 . S
C2937 C2935 1.327 . S
C2937 C2953 1.429 . S
C2937 H2959 0.950 . S
C2938 H2934 0.949 . S
C2938 C2946 1.574 . S
C2938 C2954 1.368 . S
H2939 C2947 0.950 . S
H2940 C2945 0.950 . S
H2941 C2946 0.949 . S
H2942 C2948 0.950 . S
H2943 C2949 0.950 . S
H2944 C2950 0.949 . S
C2945 H2940 0.950 . S
C2945 C2947 1.327 . S
C2945 C2951 1.429 . S
C2946 C2938 1.574 . S
C2946 H2941 0.949 . S
C2946 C2952 1.368 . S
C2947 C2931 1.349 . S
C2947 H2939 0.950 . S
C2947 C2945 1.327 . S
C2948 C2936 1.349 . S
C2948 H2942 0.950 . S
C2948 C2949 1.327 . S
C2949 H2943 0.950 . S
C2949 C2948 1.327 . S
C2949 C2953 1.429 . S
C2950 C2933 1.574 . S
C2950 H2944 0.949 . S
C2950 C2954 1.368 . S
C2951 C2932 1.429 . S
C2951 C2945 1.429 . S
C2951 C2952 1.523 . S
C2952 C2933 1.368 . S
C2952 C2946 1.368 . S
C2952 C2951 1.523 . S
C2953 C2937 1.429 . S
C2953 C2949 1.429 . S
C2953 C2954 1.523 . S
C2954 C2938 1.368 . S
C2954 C2950 1.368 . S
C2954 C2953 1.523 . S
H2955 C2930 0.950 . S
H2956 C2932 0.950 . S
H2957 C2933 0.949 . S
H2958 C2935 0.950 . S
H2959 C2937 0.950 . S
C2960 C2961 1.349 . S
C2960 C2962 1.327 . S
C2960 H2985 0.950 . S
C2961 C2960 1.349 . S
C2961 C2977 1.349 . S
C2962 C2960 1.327 . S
C2962 C2981 1.429 . S
C2962 H2986 0.950 . S
C2963 C2980 1.574 . S
C2963 C2982 1.368 . S
C2963 H2987 0.949 . S
H2964 C2968 0.949 . S
C2965 C2966 1.349 . S
C2965 C2967 1.327 . S
C2965 H2988 0.950 . S
C2966 C2965 1.349 . S
C2966 C2978 1.349 . S
C2967 C2965 1.327 . S
C2967 C2983 1.429 . S
C2967 H2989 0.950 . S
C2968 H2964 0.949 . S
C2968 C2976 1.574 . S
C2968 C2984 1.368 . S
H2969 C2977 0.950 . S
H2970 C2975 0.950 . S
H2971 C2976 0.949 . S
H2972 C2978 0.950 . S
H2973 C2979 0.950 . S
H2974 C2980 0.949 . S
C2975 H2970 0.950 . S
C2975 C2977 1.327 . S
C2975 C2981 1.429 . S
C2976 C2968 1.574 . S
C2976 H2971 0.949 . S
C2976 C2982 1.368 . S
C2977 C2961 1.349 . S
C2977 H2969 0.950 . S
C2977 C2975 1.327 . S
C2978 C2966 1.349 . S
C2978 H2972 0.950 . S
C2978 C2979 1.327 . S
C2979 H2973 0.950 . S
C2979 C2978 1.327 . S
C2979 C2983 1.429 . S
C2980 C2963 1.574 . S
C2980 H2974 0.949 . S
C2980 C2984 1.368 . S
C2981 C2962 1.429 . S
C2981 C2975 1.429 . S
C2981 C2982 1.523 . S
C2982 C2963 1.368 . S
C2982 C2976 1.368 . S
C2982 C2981 1.523 . S
C2983 C2967 1.429 . S
C2983 C2979 1.429 . S
C2983 C2984 1.523 . S
C2984 C2968 1.368 . S
C2984 C2980 1.368 . S
C2984 C2983 1.523 . S
H2985 C2960 0.950 . S
H2986 C2962 0.950 . S
H2987 C2963 0.949 . S
H2988 C2965 0.950 . S
H2989 C2967 0.950 . S
C2990 C2991 1.349 . S
C2990 C2992 1.327 . S
C2990 H3015 0.950 . S
C2991 C2990 1.349 . S
C2991 C3007 1.349 . S
C2992 C2990 1.327 . S
C2992 C3011 1.429 . S
C2992 H3016 0.950 . S
C2993 C3010 1.574 . S
C2993 C3012 1.368 . S
C2993 H3017 0.949 . S
H2994 C2998 0.949 . S
C2995 C2996 1.349 . S
C2995 C2997 1.327 . S
C2995 H3018 0.950 . S
C2996 C2995 1.349 . S
C2996 C3008 1.349 . S
C2997 C2995 1.327 . S
C2997 C3013 1.429 . S
C2997 H3019 0.950 . S
C2998 H2994 0.949 . S
C2998 C3006 1.574 . S
C2998 C3014 1.368 . S
H2999 C3007 0.950 . S
H3000 C3005 0.950 . S
H3001 C3006 0.949 . S
H3002 C3008 0.950 . S
H3003 C3009 0.950 . S
H3004 C3010 0.949 . S
C3005 H3000 0.950 . S
C3005 C3007 1.327 . S
C3005 C3011 1.429 . S
C3006 C2998 1.574 . S
C3006 H3001 0.949 . S
C3006 C3012 1.368 . S
C3007 C2991 1.349 . S
C3007 H2999 0.950 . S
C3007 C3005 1.327 . S
C3008 C2996 1.349 . S
C3008 H3002 0.950 . S
C3008 C3009 1.327 . S
C3009 H3003 0.950 . S
C3009 C3008 1.327 . S
C3009 C3013 1.429 . S
C3010 C2993 1.574 . S
C3010 H3004 0.949 . S
C3010 C3014 1.368 . S
C3011 C2992 1.429 . S
C3011 C3005 1.429 . S
C3011 C3012 1.523 . S
C3012 C2993 1.368 . S
C3012 C3006 1.368 . S
C3012 C3011 1.523 . S
C3013 C2997 1.429 . S
C3013 C3009 1.429 . S
C3013 C3014 1.523 . S
C3014 C2998 1.368 . S
C3014 C3010 1.368 . S
C3014 C3013 1.523 . S
H3015 C2990 0.950 . S
H3016 C2992 0.950 . S
H3017 C2993 0.949 . S
H3018 C2995 0.950 . S
H3019 C2997 0.950 . S
C3020 C3021 1.349 . S
C3020 C3022 1.327 . S
C3020 H3045 0.950 . S
C3021 C3020 1.349 . S
C3021 C3037 1.349 . S
C3022 C3020 1.327 . S
C3022 C3041 1.429 . S
C3022 H3046 0.950 . S
C3023 C3040 1.574 . S
C3023 C3042 1.368 . S
C3023 H3047 0.949 . S
H3024 C3028 0.949 . S
C3025 C3026 1.349 . S
C3025 C3027 1.327 . S
C3025 H3048 0.950 . S
C3026 C3025 1.349 . S
C3026 C3038 1.349 . S
C3027 C3025 1.327 . S
C3027 C3043 1.429 . S
C3027 H3049 0.950 . S
C3028 H3024 0.949 . S
C3028 C3036 1.574 . S
C3028 C3044 1.368 . S
H3029 C3037 0.950 . S
H3030 C3035 0.950 . S
H3031 C3036 0.949 . S
H3032 C3038 0.950 . S
H3033 C3039 0.950 . S
H3034 C3040 0.949 . S
C3035 H3030 0.950 . S
C3035 C3037 1.327 . S
C3035 C3041 1.429 . S
C3036 C3028 1.574 . S
C3036 H3031 0.949 . S
C3036 C3042 1.368 . S
C3037 C3021 1.349 . S
C3037 H3029 0.950 . S
C3037 C3035 1.327 . S
C3038 C3026 1.349 . S
C3038 H3032 0.950 . S
C3038 C3039 1.327 . S
C3039 H3033 0.950 . S
C3039 C3038 1.327 . S
C3039 C3043 1.429 . S
C3040 C3023 1.574 . S
C3040 H3034 0.949 . S
C3040 C3044 1.368 . S
C3041 C3022 1.429 . S
C3041 C3035 1.429 . S
C3041 C3042 1.523 . S
C3042 C3023 1.368 . S
C3042 C3036 1.368 . S
C3042 C3041 1.523 . S
C3043 C3027 1.429 . S
C3043 C3039 1.429 . S
C3043 C3044 1.523 . S
C3044 C3028 1.368 . S
C3044 C3040 1.368 . S
C3044 C3043 1.523 . S
H3045 C3020 0.950 . S
H3046 C3022 0.950 . S
H3047 C3023 0.949 . S
H3048 C3025 0.950 . S
H3049 C3027 0.950 . S
C3050 C3051 1.349 . S
C3050 C3052 1.327 . S
C3050 H3075 0.950 . S
C3051 C3050 1.349 . S
C3051 C3067 1.349 . S
C3052 C3050 1.327 . S
C3052 C3071 1.429 . S
C3052 H3076 0.950 . S
C3053 C3070 1.574 . S
C3053 C3072 1.368 . S
C3053 H3077 0.949 . S
H3054 C3058 0.949 . S
C3055 C3056 1.349 . S
C3055 C3057 1.327 . S
C3055 H3078 0.950 . S
C3056 C3055 1.349 . S
C3056 C3068 1.349 . S
C3057 C3055 1.327 . S
C3057 C3073 1.429 . S
C3057 H3079 0.950 . S
C3058 H3054 0.949 . S
C3058 C3066 1.574 . S
C3058 C3074 1.368 . S
H3059 C3067 0.950 . S
H3060 C3065 0.950 . S
H3061 C3066 0.949 . S
H3062 C3068 0.950 . S
H3063 C3069 0.950 . S
H3064 C3070 0.949 . S
C3065 H3060 0.950 . S
C3065 C3067 1.327 . S
C3065 C3071 1.429 . S
C3066 C3058 1.574 . S
C3066 H3061 0.949 . S
C3066 C3072 1.368 . S
C3067 C3051 1.349 . S
C3067 H3059 0.950 . S
C3067 C3065 1.327 . S
C3068 C3056 1.349 . S
C3068 H3062 0.950 . S
C3068 C3069 1.327 . S
C3069 H3063 0.950 . S
C3069 C3068 1.327 . S
C3069 C3073 1.429 . S
C3070 C3053 1.574 . S
C3070 H3064 0.949 . S
C3070 C3074 1.368 . S
C3071 C3052 1.429 . S
C3071 C3065 1.429 . S
C3071 C3072 1.523 . S
C3072 C3053 1.368 . S
C3072 C3066 1.368 . S
C3072 C3071 1.523 . S
C3073 C3057 1.429 . S
C3073 C3069 1.429 . S
C3073 C3074 1.523 . S
C3074 C3058 1.368 . S
C3074 C3070 1.368 . S
C3074 C3073 1.523 . S
H3075 C3050 0.950 . S
H3076 C3052 0.950 . S
H3077 C3053 0.949 . S
H3078 C3055 0.950 . S
H3079 C3057 0.950 . S
C3080 C3081 1.349 . S
C3080 C3082 1.327 . S
C3080 H3105 0.950 . S
C3081 C3080 1.349 . S
C3081 C3097 1.349 . S
C3082 C3080 1.327 . S
C3082 C3101 1.429 . S
C3082 H3106 0.950 . S
C3083 C3100 1.574 . S
C3083 C3102 1.368 . S
C3083 H3107 0.949 . S
H3084 C3088 0.949 . S
C3085 C3086 1.349 . S
C3085 C3087 1.327 . S
C3085 H3108 0.950 . S
C3086 C3085 1.349 . S
C3086 C3098 1.349 . S
C3087 C3085 1.327 . S
C3087 C3103 1.429 . S
C3087 H3109 0.950 . S
C3088 H3084 0.949 . S
C3088 C3096 1.574 . S
C3088 C3104 1.368 . S
H3089 C3097 0.950 . S
H3090 C3095 0.950 . S
H3091 C3096 0.949 . S
H3092 C3098 0.950 . S
H3093 C3099 0.950 . S
H3094 C3100 0.949 . S
C3095 H3090 0.950 . S
C3095 C3097 1.327 . S
C3095 C3101 1.429 . S
C3096 C3088 1.574 . S
C3096 H3091 0.949 . S
C3096 C3102 1.368 . S
C3097 C3081 1.349 . S
C3097 H3089 0.950 . S
C3097 C3095 1.327 . S
C3098 C3086 1.349 . S
C3098 H3092 0.950 . S
C3098 C3099 1.327 . S
C3099 H3093 0.950 . S
C3099 C3098 1.327 . S
C3099 C3103 1.429 . S
C3100 C3083 1.574 . S
C3100 H3094 0.949 . S
C3100 C3104 1.368 . S
C3101 C3082 1.429 . S
C3101 C3095 1.429 . S
C3101 C3102 1.523 . S
C3102 C3083 1.368 . S
C3102 C3096 1.368 . S
C3102 C3101 1.523 . S
C3103 C3087 1.429 . S
C3103 C3099 1.429 . S
C3103 C3104 1.523 . S
C3104 C3088 1.368 . S
C3104 C3100 1.368 . S
C3104 C3103 1.523 . S
H3105 C3080 0.950 . S
H3106 C3082 0.950 . S
H3107 C3083 0.949 . S
H3108 C3085 0.950 . S
H3109 C3087 0.950 . S
C3110 C3111 1.349 . S
C3110 C3112 1.327 . S
C3110 H3135 0.950 . S
C3111 C3110 1.349 . S
C3111 C3127 1.349 . S
C3112 C3110 1.327 . S
C3112 C3131 1.429 . S
C3112 H3136 0.950 . S
C3113 C3130 1.574 . S
C3113 C3132 1.368 . S
C3113 H3137 0.949 . S
H3114 C3118 0.949 . S
C3115 C3116 1.349 . S
C3115 C3117 1.327 . S
C3115 H3138 0.950 . S
C3116 C3115 1.349 . S
C3116 C3128 1.349 . S
C3117 C3115 1.327 . S
C3117 C3133 1.429 . S
C3117 H3139 0.950 . S
C3118 H3114 0.949 . S
C3118 C3126 1.574 . S
C3118 C3134 1.368 . S
H3119 C3127 0.950 . S
H3120 C3125 0.950 . S
H3121 C3126 0.949 . S
H3122 C3128 0.950 . S
H3123 C3129 0.950 . S
H3124 C3130 0.949 . S
C3125 H3120 0.950 . S
C3125 C3127 1.327 . S
C3125 C3131 1.429 . S
C3126 C3118 1.574 . S
C3126 H3121 0.949 . S
C3126 C3132 1.368 . S
C3127 C3111 1.349 . S
C3127 H3119 0.950 . S
C3127 C3125 1.327 . S
C3128 C3116 1.349 . S
C3128 H3122 0.950 . S
C3128 C3129 1.327 . S
C3129 H3123 0.950 . S
C3129 C3128 1.327 . S
C3129 C3133 1.429 . S
C3130 C3113 1.574 . S
C3130 H3124 0.949 . S
C3130 C3134 1.368 . S
C3131 C3112 1.429 . S
C3131 C3125 1.429 . S
C3131 C3132 1.523 . S
C3132 C3113 1.368 . S
C3132 C3126 1.368 . S
C3132 C3131 1.523 . S
C3133 C3117 1.429 . S
C3133 C3129 1.429 . S
C3133 C3134 1.523 . S
C3134 C3118 1.368 . S
C3134 C3130 1.368 . S
C3134 C3133 1.523 . S
H3135 C3110 0.950 . S
H3136 C3112 0.950 . S
H3137 C3113 0.949 . S
H3138 C3115 0.950 . S
H3139 C3117 0.950 . S
C3140 C3141 1.349 . S
C3140 C3142 1.327 . S
C3140 H3165 0.950 . S
C3141 C3140 1.349 . S
C3141 C3157 1.349 . S
C3142 C3140 1.327 . S
C3142 C3161 1.429 . S
C3142 H3166 0.950 . S
C3143 C3160 1.574 . S
C3143 C3162 1.368 . S
C3143 H3167 0.949 . S
H3144 C3148 0.949 . S
C3145 C3146 1.349 . S
C3145 C3147 1.327 . S
C3145 H3168 0.950 . S
C3146 C3145 1.349 . S
C3146 C3158 1.349 . S
C3147 C3145 1.327 . S
C3147 C3163 1.429 . S
C3147 H3169 0.950 . S
C3148 H3144 0.949 . S
C3148 C3156 1.574 . S
C3148 C3164 1.368 . S
H3149 C3157 0.950 . S
H3150 C3155 0.950 . S
H3151 C3156 0.949 . S
H3152 C3158 0.950 . S
H3153 C3159 0.950 . S
H3154 C3160 0.949 . S
C3155 H3150 0.950 . S
C3155 C3157 1.327 . S
C3155 C3161 1.429 . S
C3156 C3148 1.574 . S
C3156 H3151 0.949 . S
C3156 C3162 1.368 . S
C3157 C3141 1.349 . S
C3157 H3149 0.950 . S
C3157 C3155 1.327 . S
C3158 C3146 1.349 . S
C3158 H3152 0.950 . S
C3158 C3159 1.327 . S
C3159 H3153 0.950 . S
C3159 C3158 1.327 . S
C3159 C3163 1.429 . S
C3160 C3143 1.574 . S
C3160 H3154 0.949 . S
C3160 C3164 1.368 . S
C3161 C3142 1.429 . S
C3161 C3155 1.429 . S
C3161 C3162 1.523 . S
C3162 C3143 1.368 . S
C3162 C3156 1.368 . S
C3162 C3161 1.523 . S
C3163 C3147 1.429 . S
C3163 C3159 1.429 . S
C3163 C3164 1.523 . S
C3164 C3148 1.368 . S
C3164 C3160 1.368 . S
C3164 C3163 1.523 . S
H3165 C3140 0.950 . S
H3166 C3142 0.950 . S
H3167 C3143 0.949 . S
H3168 C3145 0.950 . S
H3169 C3147 0.950 . S
C3170 C3171 1.349 . S
C3170 C3172 1.327 . S
C3170 H3195 0.950 . S
C3171 C3170 1.349 . S
C3171 C3187 1.349 . S
C3172 C3170 1.327 . S
C3172 C3191 1.429 . S
C3172 H3196 0.950 . S
C3173 C3190 1.574 . S
C3173 C3192 1.368 . S
C3173 H3197 0.949 . S
H3174 C3178 0.949 . S
C3175 C3176 1.349 . S
C3175 C3177 1.327 . S
C3175 H3198 0.950 . S
C3176 C3175 1.349 . S
C3176 C3188 1.349 . S
C3177 C3175 1.327 . S
C3177 C3193 1.429 . S
C3177 H3199 0.950 . S
C3178 H3174 0.949 . S
C3178 C3186 1.574 . S
C3178 C3194 1.368 . S
H3179 C3187 0.950 . S
H3180 C3185 0.950 . S
H3181 C3186 0.949 . S
H3182 C3188 0.950 . S
H3183 C3189 0.950 . S
H3184 C3190 0.949 . S
C3185 H3180 0.950 . S
C3185 C3187 1.327 . S
C3185 C3191 1.429 . S
C3186 C3178 1.574 . S
C3186 H3181 0.949 . S
C3186 C3192 1.368 . S
C3187 C3171 1.349 . S
C3187 H3179 0.950 . S
C3187 C3185 1.327 . S
C3188 C3176 1.349 . S
C3188 H3182 0.950 . S
C3188 C3189 1.327 . S
C3189 H3183 0.950 . S
C3189 C3188 1.327 . S
C3189 C3193 1.429 . S
C3190 C3173 1.574 . S
C3190 H3184 0.949 . S
C3190 C3194 1.368 . S
C3191 C3172 1.429 . S
C3191 C3185 1.429 . S
C3191 C3192 1.523 . S
C3192 C3173 1.368 . S
C3192 C3186 1.368 . S
C3192 C3191 1.523 . S
C3193 C3177 1.429 . S
C3193 C3189 1.429 . S
C3193 C3194 1.523 . S
C3194 C3178 1.368 . S
C3194 C3190 1.368 . S
C3194 C3193 1.523 . S
H3195 C3170 0.950 . S
H3196 C3172 0.950 . S
H3197 C3173 0.949 . S
H3198 C3175 0.950 . S
H3199 C3177 0.950 . S
C3200 C3201 1.349 . S
C3200 C3202 1.327 . S
C3200 H3225 0.950 . S
C3201 C3200 1.349 . S
C3201 C3217 1.349 . S
C3202 C3200 1.327 . S
C3202 C3221 1.429 . S
C3202 H3226 0.950 . S
C3203 C3220 1.574 . S
C3203 C3222 1.368 . S
C3203 H3227 0.949 . S
H3204 C3208 0.949 . S
C3205 C3206 1.349 . S
C3205 C3207 1.327 . S
C3205 H3228 0.950 . S
C3206 C3205 1.349 . S
C3206 C3218 1.349 . S
C3207 C3205 1.327 . S
C3207 C3223 1.429 . S
C3207 H3229 0.950 . S
C3208 H3204 0.949 . S
C3208 C3216 1.574 . S
C3208 C3224 1.368 . S
H3209 C3217 0.950 . S
H3210 C3215 0.950 . S
H3211 C3216 0.949 . S
H3212 C3218 0.950 . S
H3213 C3219 0.950 . S
H3214 C3220 0.949 . S
C3215 H3210 0.950 . S
C3215 C3217 1.327 . S
C3215 C3221 1.429 . S
C3216 C3208 1.574 . S
C3216 H3211 0.949 . S
C3216 C3222 1.368 . S
C3217 C3201 1.349 . S
C3217 H3209 0.950 . S
C3217 C3215 1.327 . S
C3218 C3206 1.349 . S
C3218 H3212 0.950 . S
C3218 C3219 1.327 . S
C3219 H3213 0.950 . S
C3219 C3218 1.327 . S
C3219 C3223 1.429 . S
C3220 C3203 1.574 . S
C3220 H3214 0.949 . S
C3220 C3224 1.368 . S
C3221 C3202 1.429 . S
C3221 C3215 1.429 . S
C3221 C3222 1.523 . S
C3222 C3203 1.368 . S
C3222 C3216 1.368 . S
C3222 C3221 1.523 . S
C3223 C3207 1.429 . S
C3223 C3219 1.429 . S
C3223 C3224 1.523 . S
C3224 C3208 1.368 . S
C3224 C3220 1.368 . S
C3224 C3223 1.523 . S
H3225 C3200 0.950 . S
H3226 C3202 0.950 . S
H3227 C3203 0.949 . S
H3228 C3205 0.950 . S
H3229 C3207 0.950 . S
C3230 C3231 1.349 . S
C3230 C3232 1.327 . S
C3230 H3255 0.950 . S
C3231 C3230 1.349 . S
C3231 C3247 1.349 . S
C3232 C3230 1.327 . S
C3232 C3251 1.429 . S
C3232 H3256 0.950 . S
C3233 C3250 1.574 . S
C3233 C3252 1.368 . S
C3233 H3257 0.949 . S
H3234 C3238 0.949 . S
C3235 C3236 1.349 . S
C3235 C3237 1.327 . S
C3235 H3258 0.950 . S
C3236 C3235 1.349 . S
C3236 C3248 1.349 . S
C3237 C3235 1.327 . S
C3237 C3253 1.429 . S
C3237 H3259 0.950 . S
C3238 H3234 0.949 . S
C3238 C3246 1.574 . S
C3238 C3254 1.368 . S
H3239 C3247 0.950 . S
H3240 C3245 0.950 . S
H3241 C3246 0.949 . S
H3242 C3248 0.950 . S
H3243 C3249 0.950 . S
H3244 C3250 0.949 . S
C3245 H3240 0.950 . S
C3245 C3247 1.327 . S
C3245 C3251 1.429 . S
C3246 C3238 1.574 . S
C3246 H3241 0.949 . S
C3246 C3252 1.368 . S
C3247 C3231 1.349 . S
C3247 H3239 0.950 . S
C3247 C3245 1.327 . S
C3248 C3236 1.349 . S
C3248 H3242 0.950 . S
C3248 C3249 1.327 . S
C3249 H3243 0.950 . S
C3249 C3248 1.327 . S
C3249 C3253 1.429 . S
C3250 C3233 1.574 . S
C3250 H3244 0.949 . S
C3250 C3254 1.368 . S
C3251 C3232 1.429 . S
C3251 C3245 1.429 . S
C3251 C3252 1.523 . S
C3252 C3233 1.368 . S
C3252 C3246 1.368 . S
C3252 C3251 1.523 . S
C3253 C3237 1.429 . S
C3253 C3249 1.429 . S
C3253 C3254 1.523 . S
C3254 C3238 1.368 . S
C3254 C3250 1.368 . S
C3254 C3253 1.523 . S
H3255 C3230 0.950 . S
H3256 C3232 0.950 . S
H3257 C3233 0.949 . S
H3258 C3235 0.950 . S
H3259 C3237 0.950 . S
C3260 C3261 1.349 . S
C3260 C3262 1.327 . S
C3260 H3285 0.950 . S
C3261 C3260 1.349 . S
C3261 C3277 1.349 . S
C3262 C3260 1.327 . S
C3262 C3281 1.429 . S
C3262 H3286 0.950 . S
C3263 C3280 1.574 . S
C3263 C3282 1.368 . S
C3263 H3287 0.949 . S
H3264 C3268 0.949 . S
C3265 C3266 1.349 . S
C3265 C3267 1.327 . S
C3265 H3288 0.950 . S
C3266 C3265 1.349 . S
C3266 C3278 1.349 . S
C3267 C3265 1.327 . S
C3267 C3283 1.429 . S
C3267 H3289 0.950 . S
C3268 H3264 0.949 . S
C3268 C3276 1.574 . S
C3268 C3284 1.368 . S
H3269 C3277 0.950 . S
H3270 C3275 0.950 . S
H3271 C3276 0.949 . S
H3272 C3278 0.950 . S
H3273 C3279 0.950 . S
H3274 C3280 0.949 . S
C3275 H3270 0.950 . S
C3275 C3277 1.327 . S
C3275 C3281 1.429 . S
C3276 C3268 1.574 . S
C3276 H3271 0.949 . S
C3276 C3282 1.368 . S
C3277 C3261 1.349 . S
C3277 H3269 0.950 . S
C3277 C3275 1.327 . S
C3278 C3266 1.349 . S
C3278 H3272 0.950 . S
C3278 C3279 1.327 . S
C3279 H3273 0.950 . S
C3279 C3278 1.327 . S
C3279 C3283 1.429 . S
C3280 C3263 1.574 . S
C3280 H3274 0.949 . S
C3280 C3284 1.368 . S
C3281 C3262 1.429 . S
C3281 C3275 1.429 . S
C3281 C3282 1.523 . S
C3282 C3263 1.368 . S
C3282 C3276 1.368 . S
C3282 C3281 1.523 . S
C3283 C3267 1.429 . S
C3283 C3279 1.429 . S
C3283 C3284 1.523 . S
C3284 C3268 1.368 . S
C3284 C3280 1.368 . S
C3284 C3283 1.523 . S
H3285 C3260 0.950 . S
H3286 C3262 0.950 . S
H3287 C3263 0.949 . S
H3288 C3265 0.950 . S
H3289 C3267 0.950 . S
C3290 C3291 1.349 . S
C3290 C3292 1.327 . S
C3290 H3315 0.950 . S
C3291 C3290 1.349 . S
C3291 C3307 1.349 . S
C3292 C3290 1.327 . S
C3292 C3311 1.429 . S
C3292 H3316 0.950 . S
C3293 C3310 1.574 . S
C3293 C3312 1.368 . S
C3293 H3317 0.949 . S
H3294 C3298 0.949 . S
C3295 C3296 1.349 . S
C3295 C3297 1.327 . S
C3295 H3318 0.950 . S
C3296 C3295 1.349 . S
C3296 C3308 1.349 . S
C3297 C3295 1.327 . S
C3297 C3313 1.429 . S
C3297 H3319 0.950 . S
C3298 H3294 0.949 . S
C3298 C3306 1.574 . S
C3298 C3314 1.368 . S
H3299 C3307 0.950 . S
H3300 C3305 0.950 . S
H3301 C3306 0.949 . S
H3302 C3308 0.950 . S
H3303 C3309 0.950 . S
H3304 C3310 0.949 . S
C3305 H3300 0.950 . S
C3305 C3307 1.327 . S
C3305 C3311 1.429 . S
C3306 C3298 1.574 . S
C3306 H3301 0.949 . S
C3306 C3312 1.368 . S
C3307 C3291 1.349 . S
C3307 H3299 0.950 . S
C3307 C3305 1.327 . S
C3308 C3296 1.349 . S
C3308 H3302 0.950 . S
C3308 C3309 1.327 . S
C3309 H3303 0.950 . S
C3309 C3308 1.327 . S
C3309 C3313 1.429 . S
C3310 C3293 1.574 . S
C3310 H3304 0.949 . S
C3310 C3314 1.368 . S
C3311 C3292 1.429 . S
C3311 C3305 1.429 . S
C3311 C3312 1.523 . S
C3312 C3293 1.368 . S
C3312 C3306 1.368 . S
C3312 C3311 1.523 . S
C3313 C3297 1.429 . S
C3313 C3309 1.429 . S
C3313 C3314 1.523 . S
C3314 C3298 1.368 . S
C3314 C3310 1.368 . S
C3314 C3313 1.523 . S
H3315 C3290 0.950 . S
H3316 C3292 0.950 . S
H3317 C3293 0.949 . S
H3318 C3295 0.950 . S
H3319 C3297 0.950 . S
C3320 C3321 1.349 . S
C3320 C3322 1.327 . S
C3320 H3345 0.950 . S
C3321 C3320 1.349 . S
C3321 C3337 1.349 . S
C3322 C3320 1.327 . S
C3322 C3341 1.429 . S
C3322 H3346 0.950 . S
C3323 C3340 1.574 . S
C3323 C3342 1.368 . S
C3323 H3347 0.949 . S
H3324 C3328 0.949 . S
C3325 C3326 1.349 . S
C3325 C3327 1.327 . S
C3325 H3348 0.950 . S
C3326 C3325 1.349 . S
C3326 C3338 1.349 . S
C3327 C3325 1.327 . S
C3327 C3343 1.429 . S
C3327 H3349 0.950 . S
C3328 H3324 0.949 . S
C3328 C3336 1.574 . S
C3328 C3344 1.368 . S
H3329 C3337 0.950 . S
H3330 C3335 0.950 . S
H3331 C3336 0.949 . S
H3332 C3338 0.950 . S
H3333 C3339 0.950 . S
H3334 C3340 0.949 . S
C3335 H3330 0.950 . S
C3335 C3337 1.327 . S
C3335 C3341 1.429 . S
C3336 C3328 1.574 . S
C3336 H3331 0.949 . S
C3336 C3342 1.368 . S
C3337 C3321 1.349 . S
C3337 H3329 0.950 . S
C3337 C3335 1.327 . S
C3338 C3326 1.349 . S
C3338 H3332 0.950 . S
C3338 C3339 1.327 . S
C3339 H3333 0.950 . S
C3339 C3338 1.327 . S
C3339 C3343 1.429 . S
C3340 C3323 1.574 . S
C3340 H3334 0.949 . S
C3340 C3344 1.368 . S
C3341 C3322 1.429 . S
C3341 C3335 1.429 . S
C3341 C3342 1.523 . S
C3342 C3323 1.368 . S
C3342 C3336 1.368 . S
C3342 C3341 1.523 . S
C3343 C3327 1.429 . S
C3343 C3339 1.429 . S
C3343 C3344 1.523 . S
C3344 C3328 1.368 . S
C3344 C3340 1.368 . S
C3344 C3343 1.523 . S
H3345 C3320 0.950 . S
H3346 C3322 0.950 . S
H3347 C3323 0.949 . S
H3348 C3325 0.950 . S
H3349 C3327 0.950 . S
C3350 C3351 1.349 . S
C3350 C3352 1.327 . S
C3350 H3375 0.950 . S
C3351 C3350 1.349 . S
C3351 C3367 1.349 . S
C3352 C3350 1.327 . S
C3352 C3371 1.429 . S
C3352 H3376 0.950 . S
C3353 C3370 1.574 . S
C3353 C3372 1.368 . S
C3353 H3377 0.949 . S
H3354 C3358 0.949 . S
C3355 C3356 1.349 . S
C3355 C3357 1.327 . S
C3355 H3378 0.950 . S
C3356 C3355 1.349 . S
C3356 C3368 1.349 . S
C3357 C3355 1.327 . S
C3357 C3373 1.429 . S
C3357 H3379 0.950 . S
C3358 H3354 0.949 . S
C3358 C3366 1.574 . S
C3358 C3374 1.368 . S
H3359 C3367 0.950 . S
H3360 C3365 0.950 . S
H3361 C3366 0.949 . S
H3362 C3368 0.950 . S
H3363 C3369 0.950 . S
H3364 C3370 0.949 . S
C3365 H3360 0.950 . S
C3365 C3367 1.327 . S
C3365 C3371 1.429 . S
C3366 C3358 1.574 . S
C3366 H3361 0.949 . S
C3366 C3372 1.368 . S
C3367 C3351 1.349 . S
C3367 H3359 0.950 . S
C3367 C3365 1.327 . S
C3368 C3356 1.349 . S
C3368 H3362 0.950 . S
C3368 C3369 1.327 . S
C3369 H3363 0.950 . S
C3369 C3368 1.327 . S
C3369 C3373 1.429 . S
C3370 C3353 1.574 . S
C3370 H3364 0.949 . S
C3370 C3374 1.368 . S
C3371 C3352 1.429 . S
C3371 C3365 1.429 . S
C3371 C3372 1.523 . S
C3372 C3353 1.368 . S
C3372 C3366 1.368 . S
C3372 C3371 1.523 . S
C3373 C3357 1.429 . S
C3373 C3369 1.429 . S
C3373 C3374 1.523 . S
C3374 C3358 1.368 . S
C3374 C3370 1.368 . S
C3374 C3373 1.523 . S
H3375 C3350 0.950 . S
H3376 C3352 0.950 . S
H3377 C3353 0.949 . S
H3378 C3355 0.950 . S
H3379 C3357 0.950 . S
C3380 C3381 1.349 . S
C3380 C3382 1.327 . S
C3380 H3405 0.950 . S
C3381 C3380 1.349 . S
C3381 C3397 1.349 . S
C3382 C3380 1.327 . S
C3382 C3401 1.429 . S
C3382 H3406 0.950 . S
C3383 C3400 1.574 . S
C3383 C3402 1.368 . S
C3383 H3407 0.949 . S
H3384 C3388 0.949 . S
C3385 C3386 1.349 . S
C3385 C3387 1.327 . S
C3385 H3408 0.950 . S
C3386 C3385 1.349 . S
C3386 C3398 1.349 . S
C3387 C3385 1.327 . S
C3387 C3403 1.429 . S
C3387 H3409 0.950 . S
C3388 H3384 0.949 . S
C3388 C3396 1.574 . S
C3388 C3404 1.368 . S
H3389 C3397 0.950 . S
H3390 C3395 0.950 . S
H3391 C3396 0.949 . S
H3392 C3398 0.950 . S
H3393 C3399 0.950 . S
H3394 C3400 0.949 . S
C3395 H3390 0.950 . S
C3395 C3397 1.327 . S
C3395 C3401 1.429 . S
C3396 C3388 1.574 . S
C3396 H3391 0.949 . S
C3396 C3402 1.368 . S
C3397 C3381 1.349 . S
C3397 H3389 0.950 . S
C3397 C3395 1.327 . S
C3398 C3386 1.349 . S
C3398 H3392 0.950 . S
C3398 C3399 1.327 . S
C3399 H3393 0.950 . S
C3399 C3398 1.327 . S
C3399 C3403 1.429 . S
C3400 C3383 1.574 . S
C3400 H3394 0.949 . S
C3400 C3404 1.368 . S
C3401 C3382 1.429 . S
C3401 C3395 1.429 . S
C3401 C3402 1.523 . S
C3402 C3383 1.368 . S
C3402 C3396 1.368 . S
C3402 C3401 1.523 . S
C3403 C3387 1.429 . S
C3403 C3399 1.429 . S
C3403 C3404 1.523 . S
C3404 C3388 1.368 . S
C3404 C3400 1.368 . S
C3404 C3403 1.523 . S
H3405 C3380 0.950 . S
H3406 C3382 0.950 . S
H3407 C3383 0.949 . S
H3408 C3385 0.950 . S
H3409 C3387 0.950 . S
C3410 C3411 1.349 . S
C3410 C3412 1.327 . S
C3410 H3435 0.950 . S
C3411 C3410 1.349 . S
C3411 C3427 1.349 . S
C3412 C3410 1.327 . S
C3412 C3431 1.429 . S
C3412 H3436 0.950 . S
C3413 C3430 1.574 . S
C3413 C3432 1.368 . S
C3413 H3437 0.949 . S
H3414 C3418 0.949 . S
C3415 C3416 1.349 . S
C3415 C3417 1.327 . S
C3415 H3438 0.950 . S
C3416 C3415 1.349 . S
C3416 C3428 1.349 . S
C3417 C3415 1.327 . S
C3417 C3433 1.429 . S
C3417 H3439 0.950 . S
C3418 H3414 0.949 . S
C3418 C3426 1.574 . S
C3418 C3434 1.368 . S
H3419 C3427 0.950 . S
H3420 C3425 0.950 . S
H3421 C3426 0.949 . S
H3422 C3428 0.950 . S
H3423 C3429 0.950 . S
H3424 C3430 0.949 . S
C3425 H3420 0.950 . S
C3425 C3427 1.327 . S
C3425 C3431 1.429 . S
C3426 C3418 1.574 . S
C3426 H3421 0.949 . S
C3426 C3432 1.368 . S
C3427 C3411 1.349 . S
C3427 H3419 0.950 . S
C3427 C3425 1.327 . S
C3428 C3416 1.349 . S
C3428 H3422 0.950 . S
C3428 C3429 1.327 . S
C3429 H3423 0.950 . S
C3429 C3428 1.327 . S
C3429 C3433 1.429 . S
C3430 C3413 1.574 . S
C3430 H3424 0.949 . S
C3430 C3434 1.368 . S
C3431 C3412 1.429 . S
C3431 C3425 1.429 . S
C3431 C3432 1.523 . S
C3432 C3413 1.368 . S
C3432 C3426 1.368 . S
C3432 C3431 1.523 . S
C3433 C3417 1.429 . S
C3433 C3429 1.429 . S
C3433 C3434 1.523 . S
C3434 C3418 1.368 . S
C3434 C3430 1.368 . S
C3434 C3433 1.523 . S
H3435 C3410 0.950 . S
H3436 C3412 0.950 . S
H3437 C3413 0.949 . S
H3438 C3415 0.950 . S
H3439 C3417 0.950 . S
C3440 C3441 1.349 . S
C3440 C3442 1.327 . S
C3440 H3465 0.950 . S
C3441 C3440 1.349 . S
C3441 C3457 1.349 . S
C3442 C3440 1.327 . S
C3442 C3461 1.429 . S
C3442 H3466 0.950 . S
C3443 C3460 1.574 . S
C3443 C3462 1.368 . S
C3443 H3467 0.949 . S
H3444 C3448 0.949 . S
C3445 C3446 1.349 . S
C3445 C3447 1.327 . S
C3445 H3468 0.950 . S
C3446 C3445 1.349 . S
C3446 C3458 1.349 . S
C3447 C3445 1.327 . S
C3447 C3463 1.429 . S
C3447 H3469 0.950 . S
C3448 H3444 0.949 . S
C3448 C3456 1.574 . S
C3448 C3464 1.368 . S
H3449 C3457 0.950 . S
H3450 C3455 0.950 . S
H3451 C3456 0.949 . S
H3452 C3458 0.950 . S
H3453 C3459 0.950 . S
H3454 C3460 0.949 . S
C3455 H3450 0.950 . S
C3455 C3457 1.327 . S
C3455 C3461 1.429 . S
C3456 C3448 1.574 . S
C3456 H3451 0.949 . S
C3456 C3462 1.368 . S
C3457 C3441 1.349 . S
C3457 H3449 0.950 . S
C3457 C3455 1.327 . S
C3458 C3446 1.349 . S
C3458 H3452 0.950 . S
C3458 C3459 1.327 . S
C3459 H3453 0.950 . S
C3459 C3458 1.327 . S
C3459 C3463 1.429 . S
C3460 C3443 1.574 . S
C3460 H3454 0.949 . S
C3460 C3464 1.368 . S
C3461 C3442 1.429 . S
C3461 C3455 1.429 . S
C3461 C3462 1.523 . S
C3462 C3443 1.368 . S
C3462 C3456 1.368 . S
C3462 C3461 1.523 . S
C3463 C3447 1.429 . S
C3463 C3459 1.429 . S
C3463 C3464 1.523 . S
C3464 C3448 1.368 . S
C3464 C3460 1.368 . S
C3464 C3463 1.523 . S
H3465 C3440 0.950 . S
H3466 C3442 0.950 . S
H3467 C3443 0.949 . S
H3468 C3445 0.950 . S
H3469 C3447 0.950 . S
C3470 C3471 1.349 . S
C3470 C3472 1.327 . S
C3470 H3495 0.950 . S
C3471 C3470 1.349 . S
C3471 C3487 1.349 . S
C3472 C3470 1.327 . S
C3472 C3491 1.429 . S
C3472 H3496 0.950 . S
C3473 C3490 1.574 . S
C3473 C3492 1.368 . S
C3473 H3497 0.949 . S
H3474 C3478 0.949 . S
C3475 C3476 1.349 . S
C3475 C3477 1.327 . S
C3475 H3498 0.950 . S
C3476 C3475 1.349 . S
C3476 C3488 1.349 . S
C3477 C3475 1.327 . S
C3477 C3493 1.429 . S
C3477 H3499 0.950 . S
C3478 H3474 0.949 . S
C3478 C3486 1.574 . S
C3478 C3494 1.368 . S
H3479 C3487 0.950 . S
H3480 C3485 0.950 . S
H3481 C3486 0.949 . S
H3482 C3488 0.950 . S
H3483 C3489 0.950 . S
H3484 C3490 0.949 . S
C3485 H3480 0.950 . S
C3485 C3487 1.327 . S
C3485 C3491 1.429 . S
C3486 C3478 1.574 . S
C3486 H3481 0.949 . S
C3486 C3492 1.368 . S
C3487 C3471 1.349 . S
C3487 H3479 0.950 . S
C3487 C3485 1.327 . S
C3488 C3476 1.349 . S
C3488 H3482 0.950 . S
C3488 C3489 1.327 . S
C3489 H3483 0.950 . S
C3489 C3488 1.327 . S
C3489 C3493 1.429 . S
C3490 C3473 1.574 . S
C3490 H3484 0.949 . S
C3490 C3494 1.368 . S
C3491 C3472 1.429 . S
C3491 C3485 1.429 . S
C3491 C3492 1.523 . S
C3492 C3473 1.368 . S
C3492 C3486 1.368 . S
C3492 C3491 1.523 . S
C3493 C3477 1.429 . S
C3493 C3489 1.429 . S
C3493 C3494 1.523 . S
C3494 C3478 1.368 . S
C3494 C3490 1.368 . S
C3494 C3493 1.523 . S
H3495 C3470 0.950 . S
H3496 C3472 0.950 . S
H3497 C3473 0.949 . S
H3498 C3475 0.950 . S
H3499 C3477 0.950 . S
C3500 C3501 1.349 . S
C3500 C3502 1.327 . S
C3500 H3525 0.950 . S
C3501 C3500 1.349 . S
C3501 C3517 1.349 . S
C3502 C3500 1.327 . S
C3502 C3521 1.429 . S
C3502 H3526 0.950 . S
C3503 C3520 1.574 . S
C3503 C3522 1.368 . S
C3503 H3527 0.949 . S
H3504 C3508 0.949 . S
C3505 C3506 1.349 . S
C3505 C3507 1.327 . S
C3505 H3528 0.950 . S
C3506 C3505 1.349 . S
C3506 C3518 1.349 . S
C3507 C3505 1.327 . S
C3507 C3523 1.429 . S
C3507 H3529 0.950 . S
C3508 H3504 0.949 . S
C3508 C3516 1.574 . S
C3508 C3524 1.368 . S
H3509 C3517 0.950 . S
H3510 C3515 0.950 . S
H3511 C3516 0.949 . S
H3512 C3518 0.950 . S
H3513 C3519 0.950 . S
H3514 C3520 0.949 . S
C3515 H3510 0.950 . S
C3515 C3517 1.327 . S
C3515 C3521 1.429 . S
C3516 C3508 1.574 . S
C3516 H3511 0.949 . S
C3516 C3522 1.368 . S
C3517 C3501 1.349 . S
C3517 H3509 0.950 . S
C3517 C3515 1.327 . S
C3518 C3506 1.349 . S
C3518 H3512 0.950 . S
C3518 C3519 1.327 . S
C3519 H3513 0.950 . S
C3519 C3518 1.327 . S
C3519 C3523 1.429 . S
C3520 C3503 1.574 . S
C3520 H3514 0.949 . S
C3520 C3524 1.368 . S
C3521 C3502 1.429 . S
C3521 C3515 1.429 . S
C3521 C3522 1.523 . S
C3522 C3503 1.368 . S
C3522 C3516 1.368 . S
C3522 C3521 1.523 . S
C3523 C3507 1.429 . S
C3523 C3519 1.429 . S
C3523 C3524 1.523 . S
C3524 C3508 1.368 . S
C3524 C3520 1.368 . S
C3524 C3523 1.523 . S
H3525 C3500 0.950 . S
H3526 C3502 0.950 . S
H3527 C3503 0.949 . S
H3528 C3505 0.950 . S
H3529 C3507 0.950 . S
C3530 C3531 1.349 . S
C3530 C3532 1.327 . S
C3530 H3555 0.950 . S
C3531 C3530 1.349 . S
C3531 C3547 1.349 . S
C3532 C3530 1.327 . S
C3532 C3551 1.429 . S
C3532 H3556 0.950 . S
C3533 C3550 1.574 . S
C3533 C3552 1.368 . S
C3533 H3557 0.949 . S
H3534 C3538 0.949 . S
C3535 C3536 1.349 . S
C3535 C3537 1.327 . S
C3535 H3558 0.950 . S
C3536 C3535 1.349 . S
C3536 C3548 1.349 . S
C3537 C3535 1.327 . S
C3537 C3553 1.429 . S
C3537 H3559 0.950 . S
C3538 H3534 0.949 . S
C3538 C3546 1.574 . S
C3538 C3554 1.368 . S
H3539 C3547 0.950 . S
H3540 C3545 0.950 . S
H3541 C3546 0.949 . S
H3542 C3548 0.950 . S
H3543 C3549 0.950 . S
H3544 C3550 0.949 . S
C3545 H3540 0.950 . S
C3545 C3547 1.327 . S
C3545 C3551 1.429 . S
C3546 C3538 1.574 . S
C3546 H3541 0.949 . S
C3546 C3552 1.368 . S
C3547 C3531 1.349 . S
C3547 H3539 0.950 . S
C3547 C3545 1.327 . S
C3548 C3536 1.349 . S
C3548 H3542 0.950 . S
C3548 C3549 1.327 . S
C3549 H3543 0.950 . S
C3549 C3548 1.327 . S
C3549 C3553 1.429 . S
C3550 C3533 1.574 . S
C3550 H3544 0.949 . S
C3550 C3554 1.368 . S
C3551 C3532 1.429 . S
C3551 C3545 1.429 . S
C3551 C3552 1.523 . S
C3552 C3533 1.368 . S
C3552 C3546 1.368 . S
C3552 C3551 1.523 . S
C3553 C3537 1.429 . S
C3553 C3549 1.429 . S
C3553 C3554 1.523 . S
C3554 C3538 1.368 . S
C3554 C3550 1.368 . S
C3554 C3553 1.523 . S
H3555 C3530 0.950 . S
H3556 C3532 0.950 . S
H3557 C3533 0.949 . S
H3558 C3535 0.950 . S
H3559 C3537 0.950 . S
C3560 C3561 1.349 . S
C3560 C3562 1.327 . S
C3560 H3585 0.950 . S
C3561 C3560 1.349 . S
C3561 C3577 1.349 . S
C3562 C3560 1.327 . S
C3562 C3581 1.429 . S
C3562 H3586 0.950 . S
C3563 C3580 1.574 . S
C3563 C3582 1.368 . S
C3563 H3587 0.949 . S
H3564 C3568 0.949 . S
C3565 C3566 1.349 . S
C3565 C3567 1.327 . S
C3565 H3588 0.950 . S
C3566 C3565 1.349 . S
C3566 C3578 1.349 . S
C3567 C3565 1.327 . S
C3567 C3583 1.429 . S
C3567 H3589 0.950 . S
C3568 H3564 0.949 . S
C3568 C3576 1.574 . S
C3568 C3584 1.368 . S
H3569 C3577 0.950 . S
H3570 C3575 0.950 . S
H3571 C3576 0.949 . S
H3572 C3578 0.950 . S
H3573 C3579 0.950 . S
H3574 C3580 0.949 . S
C3575 H3570 0.950 . S
C3575 C3577 1.327 . S
C3575 C3581 1.429 . S
C3576 C3568 1.574 . S
C3576 H3571 0.949 . S
C3576 C3582 1.368 . S
C3577 C3561 1.349 . S
C3577 H3569 0.950 . S
C3577 C3575 1.327 . S
C3578 C3566 1.349 . S
C3578 H3572 0.950 . S
C3578 C3579 1.327 . S
C3579 H3573 0.950 . S
C3579 C3578 1.327 . S
C3579 C3583 1.429 . S
C3580 C3563 1.574 . S
C3580 H3574 0.949 . S
C3580 C3584 1.368 . S
C3581 C3562 1.429 . S
C3581 C3575 1.429 . S
C3581 C3582 1.523 . S
C3582 C3563 1.368 . S
C3582 C3576 1.368 . S
C3582 C3581 1.523 . S
C3583 C3567 1.429 . S
C3583 C3579 1.429 . S
C3583 C3584 1.523 . S
C3584 C3568 1.368 . S
C3584 C3580 1.368 . S
C3584 C3583 1.523 . S
H3585 C3560 0.950 . S
H3586 C3562 0.950 . S
H3587 C3563 0.949 . S
H3588 C3565 0.950 . S
H3589 C3567 0.950 . S
C3590 C3591 1.349 . S
C3590 C3592 1.327 . S
C3590 H3615 0.950 . S
C3591 C3590 1.349 . S
C3591 C3607 1.349 . S
C3592 C3590 1.327 . S
C3592 C3611 1.429 . S
C3592 H3616 0.950 . S
C3593 C3610 1.574 . S
C3593 C3612 1.368 . S
C3593 H3617 0.949 . S
H3594 C3598 0.949 . S
C3595 C3596 1.349 . S
C3595 C3597 1.327 . S
C3595 H3618 0.950 . S
C3596 C3595 1.349 . S
C3596 C3608 1.349 . S
C3597 C3595 1.327 . S
C3597 C3613 1.429 . S
C3597 H3619 0.950 . S
C3598 H3594 0.949 . S
C3598 C3606 1.574 . S
C3598 C3614 1.368 . S
H3599 C3607 0.950 . S
H3600 C3605 0.950 . S
H3601 C3606 0.949 . S
H3602 C3608 0.950 . S
H3603 C3609 0.950 . S
H3604 C3610 0.949 . S
C3605 H3600 0.950 . S
C3605 C3607 1.327 . S
C3605 C3611 1.429 . S
C3606 C3598 1.574 . S
C3606 H3601 0.949 . S
C3606 C3612 1.368 . S
C3607 C3591 1.349 . S
C3607 H3599 0.950 . S
C3607 C3605 1.327 . S
C3608 C3596 1.349 . S
C3608 H3602 0.950 . S
C3608 C3609 1.327 . S
C3609 H3603 0.950 . S
C3609 C3608 1.327 . S
C3609 C3613 1.429 . S
C3610 C3593 1.574 . S
C3610 H3604 0.949 . S
C3610 C3614 1.368 . S
C3611 C3592 1.429 . S
C3611 C3605 1.429 . S
C3611 C3612 1.523 . S
C3612 C3593 1.368 . S
C3612 C3606 1.368 . S
C3612 C3611 1.523 . S
C3613 C3597 1.429 . S
C3613 C3609 1.429 . S
C3613 C3614 1.523 . S
C3614 C3598 1.368 . S
C3614 C3610 1.368 . S
C3614 C3613 1.523 . S
H3615 C3590 0.950 . S
H3616 C3592 0.950 . S
H3617 C3593 0.949 . S
H3618 C3595 0.950 . S
H3619 C3597 0.950 . S
C3620 C3621 1.349 . S
C3620 C3622 1.327 . S
C3620 H3645 0.950 . S
C3621 C3620 1.349 . S
C3621 C3637 1.349 . S
C3622 C3620 1.327 . S
C3622 C3641 1.429 . S
C3622 H3646 0.950 . S
C3623 C3640 1.574 . S
C3623 C3642 1.368 . S
C3623 H3647 0.949 . S
H3624 C3628 0.949 . S
C3625 C3626 1.349 . S
C3625 C3627 1.327 . S
C3625 H3648 0.950 . S
C3626 C3625 1.349 . S
C3626 C3638 1.349 . S
C3627 C3625 1.327 . S
C3627 C3643 1.429 . S
C3627 H3649 0.950 . S
C3628 H3624 0.949 . S
C3628 C3636 1.574 . S
C3628 C3644 1.368 . S
H3629 C3637 0.950 . S
H3630 C3635 0.950 . S
H3631 C3636 0.949 . S
H3632 C3638 0.950 . S
H3633 C3639 0.950 . S
H3634 C3640 0.949 . S
C3635 H3630 0.950 . S
C3635 C3637 1.327 . S
C3635 C3641 1.429 . S
C3636 C3628 1.574 . S
C3636 H3631 0.949 . S
C3636 C3642 1.368 . S
C3637 C3621 1.349 . S
C3637 H3629 0.950 . S
C3637 C3635 1.327 . S
C3638 C3626 1.349 . S
C3638 H3632 0.950 . S
C3638 C3639 1.327 . S
C3639 H3633 0.950 . S
C3639 C3638 1.327 . S
C3639 C3643 1.429 . S
C3640 C3623 1.574 . S
C3640 H3634 0.949 . S
C3640 C3644 1.368 . S
C3641 C3622 1.429 . S
C3641 C3635 1.429 . S
C3641 C3642 1.523 . S
C3642 C3623 1.368 . S
C3642 C3636 1.368 . S
C3642 C3641 1.523 . S
C3643 C3627 1.429 . S
C3643 C3639 1.429 . S
C3643 C3644 1.523 . S
C3644 C3628 1.368 . S
C3644 C3640 1.368 . S
C3644 C3643 1.523 . S
H3645 C3620 0.950 . S
H3646 C3622 0.950 . S
H3647 C3623 0.949 . S
H3648 C3625 0.950 . S
H3649 C3627 0.950 . S
C3650 C3651 1.349 . S
C3650 C3652 1.327 . S
C3650 H3675 0.950 . S
C3651 C3650 1.349 . S
C3651 C3667 1.349 . S
C3652 C3650 1.327 . S
C3652 C3671 1.429 . S
C3652 H3676 0.950 . S
C3653 C3670 1.574 . S
C3653 C3672 1.368 . S
C3653 H3677 0.949 . S
H3654 C3658 0.949 . S
C3655 C3656 1.349 . S
C3655 C3657 1.327 . S
C3655 H3678 0.950 . S
C3656 C3655 1.349 . S
C3656 C3668 1.349 . S
C3657 C3655 1.327 . S
C3657 C3673 1.429 . S
C3657 H3679 0.950 . S
C3658 H3654 0.949 . S
C3658 C3666 1.574 . S
C3658 C3674 1.368 . S
H3659 C3667 0.950 . S
H3660 C3665 0.950 . S
H3661 C3666 0.949 . S
H3662 C3668 0.950 . S
H3663 C3669 0.950 . S
H3664 C3670 0.949 . S
C3665 H3660 0.950 . S
C3665 C3667 1.327 . S
C3665 C3671 1.429 . S
C3666 C3658 1.574 . S
C3666 H3661 0.949 . S
C3666 C3672 1.368 . S
C3667 C3651 1.349 . S
C3667 H3659 0.950 . S
C3667 C3665 1.327 . S
C3668 C3656 1.349 . S
C3668 H3662 0.950 . S
C3668 C3669 1.327 . S
C3669 H3663 0.950 . S
C3669 C3668 1.327 . S
C3669 C3673 1.429 . S
C3670 C3653 1.574 . S
C3670 H3664 0.949 . S
C3670 C3674 1.368 . S
C3671 C3652 1.429 . S
C3671 C3665 1.429 . S
C3671 C3672 1.523 . S
C3672 C3653 1.368 . S
C3672 C3666 1.368 . S
C3672 C3671 1.523 . S
C3673 C3657 1.429 . S
C3673 C3669 1.429 . S
C3673 C3674 1.523 . S
C3674 C3658 1.368 . S
C3674 C3670 1.368 . S
C3674 C3673 1.523 . S
H3675 C3650 0.950 . S
H3676 C3652 0.950 . S
H3677 C3653 0.949 . S
H3678 C3655 0.950 . S
H3679 C3657 0.950 . S
C3680 C3681 1.349 . S
C3680 C3682 1.327 . S
C3680 H3705 0.950 . S
C3681 C3680 1.349 . S
C3681 C3697 1.349 . S
C3682 C3680 1.327 . S
C3682 C3701 1.429 . S
C3682 H3706 0.950 . S
C3683 C3700 1.574 . S
C3683 C3702 1.368 . S
C3683 H3707 0.949 . S
H3684 C3688 0.949 . S
C3685 C3686 1.349 . S
C3685 C3687 1.327 . S
C3685 H3708 0.950 . S
C3686 C3685 1.349 . S
C3686 C3698 1.349 . S
C3687 C3685 1.327 . S
C3687 C3703 1.429 . S
C3687 H3709 0.950 . S
C3688 H3684 0.949 . S
C3688 C3696 1.574 . S
C3688 C3704 1.368 . S
H3689 C3697 0.950 . S
H3690 C3695 0.950 . S
H3691 C3696 0.949 . S
H3692 C3698 0.950 . S
H3693 C3699 0.950 . S
H3694 C3700 0.949 . S
C3695 H3690 0.950 . S
C3695 C3697 1.327 . S
C3695 C3701 1.429 . S
C3696 C3688 1.574 . S
C3696 H3691 0.949 . S
C3696 C3702 1.368 . S
C3697 C3681 1.349 . S
C3697 H3689 0.950 . S
C3697 C3695 1.327 . S
C3698 C3686 1.349 . S
C3698 H3692 0.950 . S
C3698 C3699 1.327 . S
C3699 H3693 0.950 . S
C3699 C3698 1.327 . S
C3699 C3703 1.429 . S
C3700 C3683 1.574 . S
C3700 H3694 0.949 . S
C3700 C3704 1.368 . S
C3701 C3682 1.429 . S
C3701 C3695 1.429 . S
C3701 C3702 1.523 . S
C3702 C3683 1.368 . S
C3702 C3696 1.368 . S
C3702 C3701 1.523 . S
C3703 C3687 1.429 . S
C3703 C3699 1.429 . S
C3703 C3704 1.523 . S
C3704 C3688 1.368 . S
C3704 C3700 1.368 . S
C3704 C3703 1.523 . S
H3705 C3680 0.950 . S
H3706 C3682 0.950 . S
H3707 C3683 0.949 . S
H3708 C3685 0.950 . S
H3709 C3687 0.950 . S
C3710 C3711 1.349 . S
C3710 C3712 1.327 . S
C3710 H3735 0.950 . S
C3711 C3710 1.349 . S
C3711 C3727 1.349 . S
C3712 C3710 1.327 . S
C3712 C3731 1.429 . S
C3712 H3736 0.950 . S
C3713 C3730 1.574 . S
C3713 C3732 1.368 . S
C3713 H3737 0.949 . S
H3714 C3718 0.949 . S
C3715 C3716 1.349 . S
C3715 C3717 1.327 . S
C3715 H3738 0.950 . S
C3716 C3715 1.349 . S
C3716 C3728 1.349 . S
C3717 C3715 1.327 . S
C3717 C3733 1.429 . S
C3717 H3739 0.950 . S
C3718 H3714 0.949 . S
C3718 C3726 1.574 . S
C3718 C3734 1.368 . S
H3719 C3727 0.950 . S
H3720 C3725 0.950 . S
H3721 C3726 0.949 . S
H3722 C3728 0.950 . S
H3723 C3729 0.950 . S
H3724 C3730 0.949 . S
C3725 H3720 0.950 . S
C3725 C3727 1.327 . S
C3725 C3731 1.429 . S
C3726 C3718 1.574 . S
C3726 H3721 0.949 . S
C3726 C3732 1.368 . S
C3727 C3711 1.349 . S
C3727 H3719 0.950 . S
C3727 C3725 1.327 . S
C3728 C3716 1.349 . S
C3728 H3722 0.950 . S
C3728 C3729 1.327 . S
C3729 H3723 0.950 . S
C3729 C3728 1.327 . S
C3729 C3733 1.429 . S
C3730 C3713 1.574 . S
C3730 H3724 0.949 . S
C3730 C3734 1.368 . S
C3731 C3712 1.429 . S
C3731 C3725 1.429 . S
C3731 C3732 1.523 . S
C3732 C3713 1.368 . S
C3732 C3726 1.368 . S
C3732 C3731 1.523 . S
C3733 C3717 1.429 . S
C3733 C3729 1.429 . S
C3733 C3734 1.523 . S
C3734 C3718 1.368 . S
C3734 C3730 1.368 . S
C3734 C3733 1.523 . S
H3735 C3710 0.950 . S
H3736 C3712 0.950 . S
H3737 C3713 0.949 . S
H3738 C3715 0.950 . S
H3739 C3717 0.950 . S
C3740 C3741 1.349 . S
C3740 C3742 1.327 . S
C3740 H3765 0.950 . S
C3741 C3740 1.349 . S
C3741 C3757 1.349 . S
C3742 C3740 1.327 . S
C3742 C3761 1.429 . S
C3742 H3766 0.950 . S
C3743 C3760 1.574 . S
C3743 C3762 1.368 . S
C3743 H3767 0.949 . S
H3744 C3748 0.949 . S
C3745 C3746 1.349 . S
C3745 C3747 1.327 . S
C3745 H3768 0.950 . S
C3746 C3745 1.349 . S
C3746 C3758 1.349 . S
C3747 C3745 1.327 . S
C3747 C3763 1.429 . S
C3747 H3769 0.950 . S
C3748 H3744 0.949 . S
C3748 C3756 1.574 . S
C3748 C3764 1.368 . S
H3749 C3757 0.950 . S
H3750 C3755 0.950 . S
H3751 C3756 0.949 . S
H3752 C3758 0.950 . S
H3753 C3759 0.950 . S
H3754 C3760 0.949 . S
C3755 H3750 0.950 . S
C3755 C3757 1.327 . S
C3755 C3761 1.429 . S
C3756 C3748 1.574 . S
C3756 H3751 0.949 . S
C3756 C3762 1.368 . S
C3757 C3741 1.349 . S
C3757 H3749 0.950 . S
C3757 C3755 1.327 . S
C3758 C3746 1.349 . S
C3758 H3752 0.950 . S
C3758 C3759 1.327 . S
C3759 H3753 0.950 . S
C3759 C3758 1.327 . S
C3759 C3763 1.429 . S
C3760 C3743 1.574 . S
C3760 H3754 0.949 . S
C3760 C3764 1.368 . S
C3761 C3742 1.429 . S
C3761 C3755 1.429 . S
C3761 C3762 1.523 . S
C3762 C3743 1.368 . S
C3762 C3756 1.368 . S
C3762 C3761 1.523 . S
C3763 C3747 1.429 . S
C3763 C3759 1.429 . S
C3763 C3764 1.523 . S
C3764 C3748 1.368 . S
C3764 C3760 1.368 . S
C3764 C3763 1.523 . S
H3765 C3740 0.950 . S
H3766 C3742 0.950 . S
H3767 C3743 0.949 . S
H3768 C3745 0.950 . S
H3769 C3747 0.950 . S
C3770 C3771 1.349 . S
C3770 C3772 1.327 . S
C3770 H3795 0.950 . S
C3771 C3770 1.349 . S
C3771 C3787 1.349 . S
C3772 C3770 1.327 . S
C3772 C3791 1.429 . S
C3772 H3796 0.950 . S
C3773 C3790 1.574 . S
C3773 C3792 1.368 . S
C3773 H3797 0.949 . S
H3774 C3778 0.949 . S
C3775 C3776 1.349 . S
C3775 C3777 1.327 . S
C3775 H3798 0.950 . S
C3776 C3775 1.349 . S
C3776 C3788 1.349 . S
C3777 C3775 1.327 . S
C3777 C3793 1.429 . S
C3777 H3799 0.950 . S
C3778 H3774 0.949 . S
C3778 C3786 1.574 . S
C3778 C3794 1.368 . S
H3779 C3787 0.950 . S
H3780 C3785 0.950 . S
H3781 C3786 0.949 . S
H3782 C3788 0.950 . S
H3783 C3789 0.950 . S
H3784 C3790 0.949 . S
C3785 H3780 0.950 . S
C3785 C3787 1.327 . S
C3785 C3791 1.429 . S
C3786 C3778 1.574 . S
C3786 H3781 0.949 . S
C3786 C3792 1.368 . S
C3787 C3771 1.349 . S
C3787 H3779 0.950 . S
C3787 C3785 1.327 . S
C3788 C3776 1.349 . S
C3788 H3782 0.950 . S
C3788 C3789 1.327 . S
C3789 H3783 0.950 . S
C3789 C3788 1.327 . S
C3789 C3793 1.429 . S
C3790 C3773 1.574 . S
C3790 H3784 0.949 . S
C3790 C3794 1.368 . S
C3791 C3772 1.429 . S
C3791 C3785 1.429 . S
C3791 C3792 1.523 . S
C3792 C3773 1.368 . S
C3792 C3786 1.368 . S
C3792 C3791 1.523 . S
C3793 C3777 1.429 . S
C3793 C3789 1.429 . S
C3793 C3794 1.523 . S
C3794 C3778 1.368 . S
C3794 C3790 1.368 . S
C3794 C3793 1.523 . S
H3795 C3770 0.950 . S
H3796 C3772 0.950 . S
H3797 C3773 0.949 . S
H3798 C3775 0.950 . S
H3799 C3777 0.950 . S
C3800 C3801 1.349 . S
C3800 C3802 1.327 . S
C3800 H3825 0.950 . S
C3801 C3800 1.349 . S
C3801 C3817 1.349 . S
C3802 C3800 1.327 . S
C3802 C3821 1.429 . S
C3802 H3826 0.950 . S
C3803 C3820 1.574 . S
C3803 C3822 1.368 . S
C3803 H3827 0.949 . S
H3804 C3808 0.949 . S
C3805 C3806 1.349 . S
C3805 C3807 1.327 . S
C3805 H3828 0.950 . S
C3806 C3805 1.349 . S
C3806 C3818 1.349 . S
C3807 C3805 1.327 . S
C3807 C3823 1.429 . S
C3807 H3829 0.950 . S
C3808 H3804 0.949 . S
C3808 C3816 1.574 . S
C3808 C3824 1.368 . S
H3809 C3817 0.950 . S
H3810 C3815 0.950 . S
H3811 C3816 0.949 . S
H3812 C3818 0.950 . S
H3813 C3819 0.950 . S
H3814 C3820 0.949 . S
C3815 H3810 0.950 . S
C3815 C3817 1.327 . S
C3815 C3821 1.429 . S
C3816 C3808 1.574 . S
C3816 H3811 0.949 . S
C3816 C3822 1.368 . S
C3817 C3801 1.349 . S
C3817 H3809 0.950 . S
C3817 C3815 1.327 . S
C3818 C3806 1.349 . S
C3818 H3812 0.950 . S
C3818 C3819 1.327 . S
C3819 H3813 0.950 . S
C3819 C3818 1.327 . S
C3819 C3823 1.429 . S
C3820 C3803 1.574 . S
C3820 H3814 0.949 . S
C3820 C3824 1.368 . S
C3821 C3802 1.429 . S
C3821 C3815 1.429 . S
C3821 C3822 1.523 . S
C3822 C3803 1.368 . S
C3822 C3816 1.368 . S
C3822 C3821 1.523 . S
C3823 C3807 1.429 . S
C3823 C3819 1.429 . S
C3823 C3824 1.523 . S
C3824 C3808 1.368 . S
C3824 C3820 1.368 . S
C3824 C3823 1.523 . S
H3825 C3800 0.950 . S
H3826 C3802 0.950 . S
H3827 C3803 0.949 . S
H3828 C3805 0.950 . S
H3829 C3807 0.950 . S
C3830 C3831 1.349 . S
C3830 C3832 1.327 . S
C3830 H3855 0.950 . S
C3831 C3830 1.349 . S
C3831 C3847 1.349 . S
C3832 C3830 1.327 . S
C3832 C3851 1.429 . S
C3832 H3856 0.950 . S
C3833 C3850 1.574 . S
C3833 C3852 1.368 . S
C3833 H3857 0.949 . S
H3834 C3838 0.949 . S
C3835 C3836 1.349 . S
C3835 C3837 1.327 . S
C3835 H3858 0.950 . S
C3836 C3835 1.349 . S
C3836 C3848 1.349 . S
C3837 C3835 1.327 . S
C3837 C3853 1.429 . S
C3837 H3859 0.950 . S
C3838 H3834 0.949 . S
C3838 C3846 1.574 . S
C3838 C3854 1.368 . S
H3839 C3847 0.950 . S
H3840 C3845 0.950 . S
H3841 C3846 0.949 . S
H3842 C3848 0.950 . S
H3843 C3849 0.950 . S
H3844 C3850 0.949 . S
C3845 H3840 0.950 . S
C3845 C3847 1.327 . S
C3845 C3851 1.429 . S
C3846 C3838 1.574 . S
C3846 H3841 0.949 . S
C3846 C3852 1.368 . S
C3847 C3831 1.349 . S
C3847 H3839 0.950 . S
C3847 C3845 1.327 . S
C3848 C3836 1.349 . S
C3848 H3842 0.950 . S
C3848 C3849 1.327 . S
C3849 H3843 0.950 . S
C3849 C3848 1.327 . S
C3849 C3853 1.429 . S
C3850 C3833 1.574 . S
C3850 H3844 0.949 . S
C3850 C3854 1.368 . S
C3851 C3832 1.429 . S
C3851 C3845 1.429 . S
C3851 C3852 1.523 . S
C3852 C3833 1.368 . S
C3852 C3846 1.368 . S
C3852 C3851 1.523 . S
C3853 C3837 1.429 . S
C3853 C3849 1.429 . S
C3853 C3854 1.523 . S
C3854 C3838 1.368 . S
C3854 C3850 1.368 . S
C3854 C3853 1.523 . S
H3855 C3830 0.950 . S
H3856 C3832 0.950 . S
H3857 C3833 0.949 . S
H3858 C3835 0.950 . S
H3859 C3837 0.950 . S
C3860 C3861 1.349 . S
C3860 C3862 1.327 . S
C3860 H3885 0.950 . S
C3861 C3860 1.349 . S
C3861 C3877 1.349 . S
C3862 C3860 1.327 . S
C3862 C3881 1.429 . S
C3862 H3886 0.950 . S
C3863 C3880 1.574 . S
C3863 C3882 1.368 . S
C3863 H3887 0.949 . S
H3864 C3868 0.949 . S
C3865 C3866 1.349 . S
C3865 C3867 1.327 . S
C3865 H3888 0.950 . S
C3866 C3865 1.349 . S
C3866 C3878 1.349 . S
C3867 C3865 1.327 . S
C3867 C3883 1.429 . S
C3867 H3889 0.950 . S
C3868 H3864 0.949 . S
C3868 C3876 1.574 . S
C3868 C3884 1.368 . S
H3869 C3877 0.950 . S
H3870 C3875 0.950 . S
H3871 C3876 0.949 . S
H3872 C3878 0.950 . S
H3873 C3879 0.950 . S
H3874 C3880 0.949 . S
C3875 H3870 0.950 . S
C3875 C3877 1.327 . S
C3875 C3881 1.429 . S
C3876 C3868 1.574 . S
C3876 H3871 0.949 . S
C3876 C3882 1.368 . S
C3877 C3861 1.349 . S
C3877 H3869 0.950 . S
C3877 C3875 1.327 . S
C3878 C3866 1.349 . S
C3878 H3872 0.950 . S
C3878 C3879 1.327 . S
C3879 H3873 0.950 . S
C3879 C3878 1.327 . S
C3879 C3883 1.429 . S
C3880 C3863 1.574 . S
C3880 H3874 0.949 . S
C3880 C3884 1.368 . S
C3881 C3862 1.429 . S
C3881 C3875 1.429 . S
C3881 C3882 1.523 . S
C3882 C3863 1.368 . S
C3882 C3876 1.368 . S
C3882 C3881 1.523 . S
C3883 C3867 1.429 . S
C3883 C3879 1.429 . S
C3883 C3884 1.523 . S
C3884 C3868 1.368 . S
C3884 C3880 1.368 . S
C3884 C3883 1.523 . S
H3885 C3860 0.950 . S
H3886 C3862 0.950 . S
H3887 C3863 0.949 . S
H3888 C3865 0.950 . S
H3889 C3867 0.950 . S
C3890 C3891 1.349 . S
C3890 C3892 1.327 . S
C3890 H3915 0.950 . S
C3891 C3890 1.349 . S
C3891 C3907 1.349 . S
C3892 C3890 1.327 . S
C3892 C3911 1.429 . S
C3892 H3916 0.950 . S
C3893 C3910 1.574 . S
C3893 C3912 1.368 . S
C3893 H3917 0.949 . S
H3894 C3898 0.949 . S
C3895 C3896 1.349 . S
C3895 C3897 1.327 . S
C3895 H3918 0.950 . S
C3896 C3895 1.349 . S
C3896 C3908 1.349 . S
C3897 C3895 1.327 . S
C3897 C3913 1.429 . S
C3897 H3919 0.950 . S
C3898 H3894 0.949 . S
C3898 C3906 1.574 . S
C3898 C3914 1.368 . S
H3899 C3907 0.950 . S
H3900 C3905 0.950 . S
H3901 C3906 0.949 . S
H3902 C3908 0.950 . S
H3903 C3909 0.950 . S
H3904 C3910 0.949 . S
C3905 H3900 0.950 . S
C3905 C3907 1.327 . S
C3905 C3911 1.429 . S
C3906 C3898 1.574 . S
C3906 H3901 0.949 . S
C3906 C3912 1.368 . S
C3907 C3891 1.349 . S
C3907 H3899 0.950 . S
C3907 C3905 1.327 . S
C3908 C3896 1.349 . S
C3908 H3902 0.950 . S
C3908 C3909 1.327 . S
C3909 H3903 0.950 . S
C3909 C3908 1.327 . S
C3909 C3913 1.429 . S
C3910 C3893 1.574 . S
C3910 H3904 0.949 . S
C3910 C3914 1.368 . S
C3911 C3892 1.429 . S
C3911 C3905 1.429 . S
C3911 C3912 1.523 . S
C3912 C3893 1.368 . S
C3912 C3906 1.368 . S
C3912 C3911 1.523 . S
C3913 C3897 1.429 . S
C3913 C3909 1.429 . S
C3913 C3914 1.523 . S
C3914 C3898 1.368 . S
C3914 C3910 1.368 . S
C3914 C3913 1.523 . S
H3915 C3890 0.950 . S
H3916 C3892 0.950 . S
H3917 C3893 0.949 . S
H3918 C3895 0.950 . S
H3919 C3897 0.950 . S
C3920 C3921 1.349 . S
C3920 C3922 1.327 . S
C3920 H3945 0.950 . S
C3921 C3920 1.349 . S
C3921 C3937 1.349 . S
C3922 C3920 1.327 . S
C3922 C3941 1.429 . S
C3922 H3946 0.950 . S
C3923 C3940 1.574 . S
C3923 C3942 1.368 . S
C3923 H3947 0.949 . S
H3924 C3928 0.949 . S
C3925 C3926 1.349 . S
C3925 C3927 1.327 . S
C3925 H3948 0.950 . S
C3926 C3925 1.349 . S
C3926 C3938 1.349 . S
C3927 C3925 1.327 . S
C3927 C3943 1.429 . S
C3927 H3949 0.950 . S
C3928 H3924 0.949 . S
C3928 C3936 1.574 . S
C3928 C3944 1.368 . S
H3929 C3937 0.950 . S
H3930 C3935 0.950 . S
H3931 C3936 0.949 . S
H3932 C3938 0.950 . S
H3933 C3939 0.950 . S
H3934 C3940 0.949 . S
C3935 H3930 0.950 . S
C3935 C3937 1.327 . S
C3935 C3941 1.429 . S
C3936 C3928 1.574 . S
C3936 H3931 0.949 . S
C3936 C3942 1.368 . S
C3937 C3921 1.349 . S
C3937 H3929 0.950 . S
C3937 C3935 1.327 . S
C3938 C3926 1.349 . S
C3938 H3932 0.950 . S
C3938 C3939 1.327 . S
C3939 H3933 0.950 . S
C3939 C3938 1.327 . S
C3939 C3943 1.429 . S
C3940 C3923 1.574 . S
C3940 H3934 0.949 . S
C3940 C3944 1.368 . S
C3941 C3922 1.429 . S
C3941 C3935 1.429 . S
C3941 C3942 1.523 . S
C3942 C3923 1.368 . S
C3942 C3936 1.368 . S
C3942 C3941 1.523 . S
C3943 C3927 1.429 . S
C3943 C3939 1.429 . S
C3943 C3944 1.523 . S
C3944 C3928 1.368 . S
C3944 C3940 1.368 . S
C3944 C3943 1.523 . S
H3945 C3920 0.950 . S
H3946 C3922 0.950 . S
H3947 C3923 0.949 . S
H3948 C3925 0.950 . S
H3949 C3927 0.950 . S
C3950 C3951 1.349 . S
C3950 C3952 1.327 . S
C3950 H3975 0.950 . S
C3951 C3950 1.349 . S
C3951 C3967 1.349 . S
C3952 C3950 1.327 . S
C3952 C3971 1.429 . S
C3952 H3976 0.950 . S
C3953 C3970 1.574 . S
C3953 C3972 1.368 . S
C3953 H3977 0.949 . S
H3954 C3958 0.949 . S
C3955 C3956 1.349 . S
C3955 C3957 1.327 . S
C3955 H3978 0.950 . S
C3956 C3955 1.349 . S
C3956 C3968 1.349 . S
C3957 C3955 1.327 . S
C3957 C3973 1.429 . S
C3957 H3979 0.950 . S
C3958 H3954 0.949 . S
C3958 C3966 1.574 . S
C3958 C3974 1.368 . S
H3959 C3967 0.950 . S
H3960 C3965 0.950 . S
H3961 C3966 0.949 . S
H3962 C3968 0.950 . S
H3963 C3969 0.950 . S
H3964 C3970 0.949 . S
C3965 H3960 0.950 . S
C3965 C3967 1.327 . S
C3965 C3971 1.429 . S
C3966 C3958 1.574 . S
C3966 H3961 0.949 . S
C3966 C3972 1.368 . S
C3967 C3951 1.349 . S
C3967 H3959 0.950 . S
C3967 C3965 1.327 . S
C3968 C3956 1.349 . S
C3968 H3962 0.950 . S
C3968 C3969 1.327 . S
C3969 H3963 0.950 . S
C3969 C3968 1.327 . S
C3969 C3973 1.429 . S
C3970 C3953 1.574 . S
C3970 H3964 0.949 . S
C3970 C3974 1.368 . S
C3971 C3952 1.429 . S
C3971 C3965 1.429 . S
C3971 C3972 1.523 . S
C3972 C3953 1.368 . S
C3972 C3966 1.368 . S
C3972 C3971 1.523 . S
C3973 C3957 1.429 . S
C3973 C3969 1.429 . S
C3973 C3974 1.523 . S
C3974 C3958 1.368 . S
C3974 C3970 1.368 . S
C3974 C3973 1.523 . S
H3975 C3950 0.950 . S
H3976 C3952 0.950 . S
H3977 C3953 0.949 . S
H3978 C3955 0.950 . S
H3979 C3957 0.950 . S
C3980 C3981 1.349 . S
C3980 C3982 1.327 . S
C3980 H4005 0.950 . S
C3981 C3980 1.349 . S
C3981 C3997 1.349 . S
C3982 C3980 1.327 . S
C3982 C4001 1.429 . S
C3982 H4006 0.950 . S
C3983 C4000 1.574 . S
C3983 C4002 1.368 . S
C3983 H4007 0.949 . S
H3984 C3988 0.949 . S
C3985 C3986 1.349 . S
C3985 C3987 1.327 . S
C3985 H4008 0.950 . S
C3986 C3985 1.349 . S
C3986 C3998 1.349 . S
C3987 C3985 1.327 . S
C3987 C4003 1.429 . S
C3987 H4009 0.950 . S
C3988 H3984 0.949 . S
C3988 C3996 1.574 . S
C3988 C4004 1.368 . S
H3989 C3997 0.950 . S
H3990 C3995 0.950 . S
H3991 C3996 0.949 . S
H3992 C3998 0.950 . S
H3993 C3999 0.950 . S
H3994 C4000 0.949 . S
C3995 H3990 0.950 . S
C3995 C3997 1.327 . S
C3995 C4001 1.429 . S
C3996 C3988 1.574 . S
C3996 H3991 0.949 . S
C3996 C4002 1.368 . S
C3997 C3981 1.349 . S
C3997 H3989 0.950 . S
C3997 C3995 1.327 . S
C3998 C3986 1.349 . S
C3998 H3992 0.950 . S
C3998 C3999 1.327 . S
C3999 H3993 0.950 . S
C3999 C3998 1.327 . S
C3999 C4003 1.429 . S
C4000 C3983 1.574 . S
C4000 H3994 0.949 . S
C4000 C4004 1.368 . S
C4001 C3982 1.429 . S
C4001 C3995 1.429 . S
C4001 C4002 1.523 . S
C4002 C3983 1.368 . S
C4002 C3996 1.368 . S
C4002 C4001 1.523 . S
C4003 C3987 1.429 . S
C4003 C3999 1.429 . S
C4003 C4004 1.523 . S
C4004 C3988 1.368 . S
C4004 C4000 1.368 . S
C4004 C4003 1.523 . S
H4005 C3980 0.950 . S
H4006 C3982 0.950 . S
H4007 C3983 0.949 . S
H4008 C3985 0.950 . S
H4009 C3987 0.950 . S
C4010 C4011 1.349 . S
C4010 C4012 1.327 . S
C4010 H4035 0.950 . S
C4011 C4010 1.349 . S
C4011 C4027 1.349 . S
C4012 C4010 1.327 . S
C4012 C4031 1.429 . S
C4012 H4036 0.950 . S
C4013 C4030 1.574 . S
C4013 C4032 1.368 . S
C4013 H4037 0.949 . S
H4014 C4018 0.949 . S
C4015 C4016 1.349 . S
C4015 C4017 1.327 . S
C4015 H4038 0.950 . S
C4016 C4015 1.349 . S
C4016 C4028 1.349 . S
C4017 C4015 1.327 . S
C4017 C4033 1.429 . S
C4017 H4039 0.950 . S
C4018 H4014 0.949 . S
C4018 C4026 1.574 . S
C4018 C4034 1.368 . S
H4019 C4027 0.950 . S
H4020 C4025 0.950 . S
H4021 C4026 0.949 . S
H4022 C4028 0.950 . S
H4023 C4029 0.950 . S
H4024 C4030 0.949 . S
C4025 H4020 0.950 . S
C4025 C4027 1.327 . S
C4025 C4031 1.429 . S
C4026 C4018 1.574 . S
C4026 H4021 0.949 . S
C4026 C4032 1.368 . S
C4027 C4011 1.349 . S
C4027 H4019 0.950 . S
C4027 C4025 1.327 . S
C4028 C4016 1.349 . S
C4028 H4022 0.950 . S
C4028 C4029 1.327 . S
C4029 H4023 0.950 . S
C4029 C4028 1.327 . S
C4029 C4033 1.429 . S
C4030 C4013 1.574 . S
C4030 H4024 0.949 . S
C4030 C4034 1.368 . S
C4031 C4012 1.429 . S
C4031 C4025 1.429 . S
C4031 C4032 1.523 . S
C4032 C4013 1.368 . S
C4032 C4026 1.368 . S
C4032 C4031 1.523 . S
C4033 C4017 1.429 . S
C4033 C4029 1.429 . S
C4033 C4034 1.523 . S
C4034 C4018 1.368 . S
C4034 C4030 1.368 . S
C4034 C4033 1.523 . S
H4035 C4010 0.950 . S
H4036 C4012 0.950 . S
H4037 C4013 0.949 . S
H4038 C4015 0.950 . S
H4039 C4017 0.950 . S
C1166 N620 2.349 . S
C1161 C6 2.428 . S
C1196 C647 1.093 . S
C1191 C30 1.065 . S
C1221 C44 2.187 . S
C1226 C661 2.178 . S
C1256 N679 0.731 . S
C1251 C68 0.731 . S
C1281 C87 0.769 . S
C1286 C684 0.771 . S
C1311 C97 2.373 . S
C1316 C624 2.350 . S
C1341 C125 0.836 . S
C1346 N643 0.865 . S
C1376 N656 2.334 . S
C1371 C139 2.346 . S
C1406 N702 1.834 . S
C1401 C11 1.832 . S
C1431 C25 1.290 . S
C1436 N725 1.271 . S
C1461 C40 1.977 . S
C1466 N748 2.004 . S
C1496 N781 1.053 . S
C1491 C59 1.069 . S
C1521 C82 1.386 . S
C1526 C808 1.387 . S
C1556 C831 2.051 . S
C1551 C101 2.051 . S
C1581 C116 0.895 . S
C1586 C854 0.899 . S
C1616 C868 1.949 1_565 S
C1611 C144 1.884 . S
C1641 C2 1.989 . S
C1646 C785 2.001 . S
C1671 C78 1.108 . S
C1676 N827 1.099 . S
C1706 N850 1.847 . S
C1701 C106 1.783 . S
C1731 C120 1.178 . S
C1736 N863 1.156 . S
C1766 N804 2.028 . S
C1761 C135 2.029 . S
C1796 C730 2.136 . S
C1791 C49 1.969 . S
C1821 C63 1.297 . S
C1826 C753 1.289 . S
C1856 C707 1.149 . S
C1851 C21 1.127 . S
C1886 C900 2.460 . S
C1881 C158 2.457 . S
C1911 C182 0.903 . S
C1916 C914 0.915 . S
C1941 C196 2.147 . S
C1946 N942 2.112 . S
C1976 N955 0.741 . S
C1971 C220 0.741 . S
C2001 C239 0.867 . S
C2006 C960 0.875 . S
C2031 C249 2.279 . S
C2036 N896 2.281 . S
C2061 C277 0.817 . S
C2066 N909 0.829 . S
C2091 C291 2.250 . S
C2096 C946 2.251 . S
C2126 N794 1.859 . S
C2121 C163 1.845 . S
C2151 C177 1.204 . S
C2156 N978 1.182 . S
C2186 N840 1.937 . S
C2181 C192 1.918 . S
C2211 C211 0.952 . S
C2216 C1015 0.954 . S
C2241 C234 1.561 . S
C2246 C716 1.560 . S
C2276 C1029 2.139 . S
C2271 C253 2.137 . S
C2301 C268 1.015 . S
C2306 C762 1.029 . S
C2336 N1047 1.860 . S
C2331 C296 1.808 . S
C2361 C154 1.938 . S
C2366 N1011 1.920 . S
C2396 N1024 1.119 . S
C2391 C230 1.131 . S
C2421 C258 1.800 . S
C2426 N758 1.846 . S
C2456 C1052 1.092 . S
C2451 C272 1.087 . S
C2481 C287 1.988 . S
C2486 N712 1.993 . S
C2511 C201 1.868 . S
C2516 C983 2.030 . S
C2541 C215 1.364 . S
C2546 C845 1.360 . S
C2571 C173 1.074 . S
C2576 C799 1.098 . S
C2601 C310 2.486 . S
C2606 C937 2.465 . S
C2636 C969 0.982 . S
C2631 C334 0.959 . S
C2661 C348 2.131 . S
C2666 N886 2.028 . S
C2691 C372 0.716 . S
C2696 N919 0.709 . S
C2721 C391 0.811 . S
C2726 C923 0.820 . S
C2751 C401 2.418 . S
C2756 N932 2.336 . S
C2786 N965 0.810 . S
C2781 C429 0.797 . S
C2811 C443 2.381 . S
C2816 C891 2.353 . S
C2846 N1080 1.923 . S
C2841 C315 1.908 . S
C2871 C329 1.190 . S
C2876 N817 1.170 . S
C2906 N1103 1.877 . S
C2901 C344 1.880 . S
C2931 C363 1.030 . S
C2936 N873 1.017 . S
C2961 C386 1.447 . S
C2966 C1121 1.439 . S
C2991 C405 2.154 . S
C2996 C739 2.152 . S
C3026 N1139 0.989 . S
C3021 C420 1.011 . S
C3051 C448 1.909 . S
C3056 C776 2.019 . S
C3086 C877 2.031 . S
C3081 C306 2.024 . S
C3116 N735 1.139 . S
C3111 C382 1.153 . S
C3141 C410 1.893 . S
C3146 C1144 2.024 . S
C3171 C424 1.118 . S
C3176 N771 1.098 . S
C3206 N1116 1.990 . S
C3201 C439 2.018 . S
C3236 C822 2.039 . S
C3231 C353 1.884 . S
C3266 C1107 1.279 . S
C3261 C367 1.290 . S
C3296 C1084 1.081 . S
C3291 C325 1.052 . S
C3321 C462 2.402 . S
C3326 N666 2.321 . S
C3351 C486 0.878 . S
C3356 C693 0.892 . S
C3386 C615 2.190 . S
C3381 C500 2.204 . S
C3416 N633 0.740 . S
C3411 C524 0.739 . S
C3446 C638 0.959 . S
C3441 C543 0.951 . S
C3476 C670 2.279 . S
C3471 C553 2.303 . S
C3506 N689 0.831 . S
C3501 C581 0.807 . S
C3531 C595 2.324 . S
C3536 N610 2.312 . S
C3561 C467 1.790 . S
C3566 N1126 1.814 . S
C3596 N1034 1.136 . S
C3591 C481 1.154 . S
C3626 C1153 2.116 . S
C3621 C496 2.070 . S
C3656 C1061 0.847 . S
C3651 C515 0.845 . S
C3681 C538 1.586 . S
C3686 C1075 1.575 . S
C3716 C992 2.073 . S
C3711 C557 2.074 . S
C3746 C1098 1.051 . S
C3741 C572 1.036 . S
C3771 C600 1.862 . S
C3776 N1001 1.906 . S
C3806 N1057 1.874 . S
C3801 C458 1.887 . S
C3836 N988 1.066 . S
C3831 C534 1.073 . S
C3866 N1093 1.826 . S
C3861 C562 1.740 . S
C3891 C576 1.122 . S
C3896 C1006 1.125 . S
C3921 C591 2.030 . S
C3926 N1070 2.007 . S
C3951 C505 1.987 . S
C3956 C1038 2.150 . S
C3981 C519 1.387 . S
C3986 N1149 1.364 . S
C4016 C1130 1.098 . S
C4011 C477 1.072 . S
