# Generated by pormake.
# Topology tbo, (3,4)-cn, num edge types: 1
# Building blocks:
#     Node 0, Type 0, BuildingBlock: WUSLED_clean_sbu_0, # of connection points: 3
#     Node 1, Type 0, BuildingBlock: WUSLED_clean_sbu_0, # of connection points: 3
#     Node 2, Type 0, BuildingBlock: WUSLED_clean_sbu_0, # of connection points: 3
#     Node 3, Type 0, BuildingBlock: WUSLED_clean_sbu_0, # of connection points: 3
#     Node 4, Type 0, BuildingBlock: WUSLED_clean_sbu_0, # of connection points: 3
#     Node 5, Type 0, BuildingBlock: WUSLED_clean_sbu_0, # of connection points: 3
#     Node 6, Type 0, BuildingBlock: WUSLED_clean_sbu_0, # of connection points: 3
#     Node 7, Type 0, BuildingBlock: WUSLED_clean_sbu_0, # of connection points: 3
#     Node 8, Type 0, BuildingBlock: WUSLED_clean_sbu_0, # of connection points: 3
#     Node 9, Type 0, BuildingBlock: WUSLED_clean_sbu_0, # of connection points: 3
#     Node 10, Type 0, BuildingBlock: WUSLED_clean_sbu_0, # of connection points: 3
#     Node 11, Type 0, BuildingBlock: WUSLED_clean_sbu_0, # of connection points: 3
#     Node 12, Type 0, BuildingBlock: WUSLED_clean_sbu_0, # of connection points: 3
#     Node 13, Type 0, BuildingBlock: WUSLED_clean_sbu_0, # of connection points: 3
#     Node 14, Type 0, BuildingBlock: WUSLED_clean_sbu_0, # of connection points: 3
#     Node 15, Type 0, BuildingBlock: WUSLED_clean_sbu_0, # of connection points: 3
#     Node 16, Type 0, BuildingBlock: WUSLED_clean_sbu_0, # of connection points: 3
#     Node 17, Type 0, BuildingBlock: WUSLED_clean_sbu_0, # of connection points: 3
#     Node 18, Type 0, BuildingBlock: WUSLED_clean_sbu_0, # of connection points: 3
#     Node 19, Type 0, BuildingBlock: WUSLED_clean_sbu_0, # of connection points: 3
#     Node 20, Type 0, BuildingBlock: WUSLED_clean_sbu_0, # of connection points: 3
#     Node 21, Type 0, BuildingBlock: WUSLED_clean_sbu_0, # of connection points: 3
#     Node 22, Type 0, BuildingBlock: WUSLED_clean_sbu_0, # of connection points: 3
#     Node 23, Type 0, BuildingBlock: WUSLED_clean_sbu_0, # of connection points: 3
#     Node 24, Type 0, BuildingBlock: WUSLED_clean_sbu_0, # of connection points: 3
#     Node 25, Type 0, BuildingBlock: WUSLED_clean_sbu_0, # of connection points: 3
#     Node 26, Type 0, BuildingBlock: WUSLED_clean_sbu_0, # of connection points: 3
#     Node 27, Type 0, BuildingBlock: WUSLED_clean_sbu_0, # of connection points: 3
#     Node 28, Type 0, BuildingBlock: WUSLED_clean_sbu_0, # of connection points: 3
#     Node 29, Type 0, BuildingBlock: WUSLED_clean_sbu_0, # of connection points: 3
#     Node 30, Type 0, BuildingBlock: WUSLED_clean_sbu_0, # of connection points: 3
#     Node 31, Type 0, BuildingBlock: WUSLED_clean_sbu_0, # of connection points: 3
#     Node 32, Type 1, BuildingBlock: MIFKUJ_clean_linker_1, # of connection points: 4
#     Node 33, Type 1, BuildingBlock: MIFKUJ_clean_linker_1, # of connection points: 4
#     Node 34, Type 1, BuildingBlock: MIFKUJ_clean_linker_1, # of connection points: 4
#     Node 35, Type 1, BuildingBlock: MIFKUJ_clean_linker_1, # of connection points: 4
#     Node 36, Type 1, BuildingBlock: MIFKUJ_clean_linker_1, # of connection points: 4
#     Node 37, Type 1, BuildingBlock: MIFKUJ_clean_linker_1, # of connection points: 4
#     Node 38, Type 1, BuildingBlock: MIFKUJ_clean_linker_1, # of connection points: 4
#     Node 39, Type 1, BuildingBlock: MIFKUJ_clean_linker_1, # of connection points: 4
#     Node 40, Type 1, BuildingBlock: MIFKUJ_clean_linker_1, # of connection points: 4
#     Node 41, Type 1, BuildingBlock: MIFKUJ_clean_linker_1, # of connection points: 4
#     Node 42, Type 1, BuildingBlock: MIFKUJ_clean_linker_1, # of connection points: 4
#     Node 43, Type 1, BuildingBlock: MIFKUJ_clean_linker_1, # of connection points: 4
#     Node 44, Type 1, BuildingBlock: MIFKUJ_clean_linker_1, # of connection points: 4
#     Node 45, Type 1, BuildingBlock: MIFKUJ_clean_linker_1, # of connection points: 4
#     Node 46, Type 1, BuildingBlock: MIFKUJ_clean_linker_1, # of connection points: 4
#     Node 47, Type 1, BuildingBlock: MIFKUJ_clean_linker_1, # of connection points: 4
#     Node 48, Type 1, BuildingBlock: MIFKUJ_clean_linker_1, # of connection points: 4
#     Node 49, Type 1, BuildingBlock: MIFKUJ_clean_linker_1, # of connection points: 4
#     Node 50, Type 1, BuildingBlock: MIFKUJ_clean_linker_1, # of connection points: 4
#     Node 51, Type 1, BuildingBlock: MIFKUJ_clean_linker_1, # of connection points: 4
#     Node 52, Type 1, BuildingBlock: MIFKUJ_clean_linker_1, # of connection points: 4
#     Node 53, Type 1, BuildingBlock: MIFKUJ_clean_linker_1, # of connection points: 4
#     Node 54, Type 1, BuildingBlock: MIFKUJ_clean_linker_1, # of connection points: 4
#     Node 55, Type 1, BuildingBlock: MIFKUJ_clean_linker_1, # of connection points: 4
#     Edge 56, Type (0, 1), BuildingBlock: OJICUG_clean_linker_0, # of connection points: 2
#     Edge 57, Type (0, 1), BuildingBlock: OJICUG_clean_linker_0, # of connection points: 2
#     Edge 58, Type (0, 1), BuildingBlock: OJICUG_clean_linker_0, # of connection points: 2
#     Edge 59, Type (0, 1), BuildingBlock: OJICUG_clean_linker_0, # of connection points: 2
#     Edge 60, Type (0, 1), BuildingBlock: OJICUG_clean_linker_0, # of connection points: 2
#     Edge 61, Type (0, 1), BuildingBlock: OJICUG_clean_linker_0, # of connection points: 2
#     Edge 62, Type (0, 1), BuildingBlock: OJICUG_clean_linker_0, # of connection points: 2
#     Edge 63, Type (0, 1), BuildingBlock: OJICUG_clean_linker_0, # of connection points: 2
#     Edge 64, Type (0, 1), BuildingBlock: OJICUG_clean_linker_0, # of connection points: 2
#     Edge 65, Type (0, 1), BuildingBlock: OJICUG_clean_linker_0, # of connection points: 2
#     Edge 66, Type (0, 1), BuildingBlock: OJICUG_clean_linker_0, # of connection points: 2
#     Edge 67, Type (0, 1), BuildingBlock: OJICUG_clean_linker_0, # of connection points: 2
#     Edge 68, Type (0, 1), BuildingBlock: OJICUG_clean_linker_0, # of connection points: 2
#     Edge 69, Type (0, 1), BuildingBlock: OJICUG_clean_linker_0, # of connection points: 2
#     Edge 70, Type (0, 1), BuildingBlock: OJICUG_clean_linker_0, # of connection points: 2
#     Edge 71, Type (0, 1), BuildingBlock: OJICUG_clean_linker_0, # of connection points: 2
#     Edge 72, Type (0, 1), BuildingBlock: OJICUG_clean_linker_0, # of connection points: 2
#     Edge 73, Type (0, 1), BuildingBlock: OJICUG_clean_linker_0, # of connection points: 2
#     Edge 74, Type (0, 1), BuildingBlock: OJICUG_clean_linker_0, # of connection points: 2
#     Edge 75, Type (0, 1), BuildingBlock: OJICUG_clean_linker_0, # of connection points: 2
#     Edge 76, Type (0, 1), BuildingBlock: OJICUG_clean_linker_0, # of connection points: 2
#     Edge 77, Type (0, 1), BuildingBlock: OJICUG_clean_linker_0, # of connection points: 2
#     Edge 78, Type (0, 1), BuildingBlock: OJICUG_clean_linker_0, # of connection points: 2
#     Edge 79, Type (0, 1), BuildingBlock: OJICUG_clean_linker_0, # of connection points: 2
#     Edge 80, Type (0, 1), BuildingBlock: OJICUG_clean_linker_0, # of connection points: 2
#     Edge 81, Type (0, 1), BuildingBlock: OJICUG_clean_linker_0, # of connection points: 2
#     Edge 82, Type (0, 1), BuildingBlock: OJICUG_clean_linker_0, # of connection points: 2
#     Edge 83, Type (0, 1), BuildingBlock: OJICUG_clean_linker_0, # of connection points: 2
#     Edge 84, Type (0, 1), BuildingBlock: OJICUG_clean_linker_0, # of connection points: 2
#     Edge 85, Type (0, 1), BuildingBlock: OJICUG_clean_linker_0, # of connection points: 2
#     Edge 86, Type (0, 1), BuildingBlock: OJICUG_clean_linker_0, # of connection points: 2
#     Edge 87, Type (0, 1), BuildingBlock: OJICUG_clean_linker_0, # of connection points: 2
#     Edge 88, Type (0, 1), BuildingBlock: OJICUG_clean_linker_0, # of connection points: 2
#     Edge 89, Type (0, 1), BuildingBlock: OJICUG_clean_linker_0, # of connection points: 2
#     Edge 90, Type (0, 1), BuildingBlock: OJICUG_clean_linker_0, # of connection points: 2
#     Edge 91, Type (0, 1), BuildingBlock: OJICUG_clean_linker_0, # of connection points: 2
#     Edge 92, Type (0, 1), BuildingBlock: OJICUG_clean_linker_0, # of connection points: 2
#     Edge 93, Type (0, 1), BuildingBlock: OJICUG_clean_linker_0, # of connection points: 2
#     Edge 94, Type (0, 1), BuildingBlock: OJICUG_clean_linker_0, # of connection points: 2
#     Edge 95, Type (0, 1), BuildingBlock: OJICUG_clean_linker_0, # of connection points: 2
#     Edge 96, Type (0, 1), BuildingBlock: OJICUG_clean_linker_0, # of connection points: 2
#     Edge 97, Type (0, 1), BuildingBlock: OJICUG_clean_linker_0, # of connection points: 2
#     Edge 98, Type (0, 1), BuildingBlock: OJICUG_clean_linker_0, # of connection points: 2
#     Edge 99, Type (0, 1), BuildingBlock: OJICUG_clean_linker_0, # of connection points: 2
#     Edge 100, Type (0, 1), BuildingBlock: OJICUG_clean_linker_0, # of connection points: 2
#     Edge 101, Type (0, 1), BuildingBlock: OJICUG_clean_linker_0, # of connection points: 2
#     Edge 102, Type (0, 1), BuildingBlock: OJICUG_clean_linker_0, # of connection points: 2
#     Edge 103, Type (0, 1), BuildingBlock: OJICUG_clean_linker_0, # of connection points: 2
#     Edge 104, Type (0, 1), BuildingBlock: OJICUG_clean_linker_0, # of connection points: 2
#     Edge 105, Type (0, 1), BuildingBlock: OJICUG_clean_linker_0, # of connection points: 2
#     Edge 106, Type (0, 1), BuildingBlock: OJICUG_clean_linker_0, # of connection points: 2
#     Edge 107, Type (0, 1), BuildingBlock: OJICUG_clean_linker_0, # of connection points: 2
#     Edge 108, Type (0, 1), BuildingBlock: OJICUG_clean_linker_0, # of connection points: 2
#     Edge 109, Type (0, 1), BuildingBlock: OJICUG_clean_linker_0, # of connection points: 2
#     Edge 110, Type (0, 1), BuildingBlock: OJICUG_clean_linker_0, # of connection points: 2
#     Edge 111, Type (0, 1), BuildingBlock: OJICUG_clean_linker_0, # of connection points: 2
#     Edge 112, Type (0, 1), BuildingBlock: OJICUG_clean_linker_0, # of connection points: 2
#     Edge 113, Type (0, 1), BuildingBlock: OJICUG_clean_linker_0, # of connection points: 2
#     Edge 114, Type (0, 1), BuildingBlock: OJICUG_clean_linker_0, # of connection points: 2
#     Edge 115, Type (0, 1), BuildingBlock: OJICUG_clean_linker_0, # of connection points: 2
#     Edge 116, Type (0, 1), BuildingBlock: OJICUG_clean_linker_0, # of connection points: 2
#     Edge 117, Type (0, 1), BuildingBlock: OJICUG_clean_linker_0, # of connection points: 2
#     Edge 118, Type (0, 1), BuildingBlock: OJICUG_clean_linker_0, # of connection points: 2
#     Edge 119, Type (0, 1), BuildingBlock: OJICUG_clean_linker_0, # of connection points: 2
#     Edge 120, Type (0, 1), BuildingBlock: OJICUG_clean_linker_0, # of connection points: 2
#     Edge 121, Type (0, 1), BuildingBlock: OJICUG_clean_linker_0, # of connection points: 2
#     Edge 122, Type (0, 1), BuildingBlock: OJICUG_clean_linker_0, # of connection points: 2
#     Edge 123, Type (0, 1), BuildingBlock: OJICUG_clean_linker_0, # of connection points: 2
#     Edge 124, Type (0, 1), BuildingBlock: OJICUG_clean_linker_0, # of connection points: 2
#     Edge 125, Type (0, 1), BuildingBlock: OJICUG_clean_linker_0, # of connection points: 2
#     Edge 126, Type (0, 1), BuildingBlock: OJICUG_clean_linker_0, # of connection points: 2
#     Edge 127, Type (0, 1), BuildingBlock: OJICUG_clean_linker_0, # of connection points: 2
#     Edge 128, Type (0, 1), BuildingBlock: OJICUG_clean_linker_0, # of connection points: 2
#     Edge 129, Type (0, 1), BuildingBlock: OJICUG_clean_linker_0, # of connection points: 2
#     Edge 130, Type (0, 1), BuildingBlock: OJICUG_clean_linker_0, # of connection points: 2
#     Edge 131, Type (0, 1), BuildingBlock: OJICUG_clean_linker_0, # of connection points: 2
#     Edge 132, Type (0, 1), BuildingBlock: OJICUG_clean_linker_0, # of connection points: 2
#     Edge 133, Type (0, 1), BuildingBlock: OJICUG_clean_linker_0, # of connection points: 2
#     Edge 134, Type (0, 1), BuildingBlock: OJICUG_clean_linker_0, # of connection points: 2
#     Edge 135, Type (0, 1), BuildingBlock: OJICUG_clean_linker_0, # of connection points: 2
#     Edge 136, Type (0, 1), BuildingBlock: OJICUG_clean_linker_0, # of connection points: 2
#     Edge 137, Type (0, 1), BuildingBlock: OJICUG_clean_linker_0, # of connection points: 2
#     Edge 138, Type (0, 1), BuildingBlock: OJICUG_clean_linker_0, # of connection points: 2
#     Edge 139, Type (0, 1), BuildingBlock: OJICUG_clean_linker_0, # of connection points: 2
#     Edge 140, Type (0, 1), BuildingBlock: OJICUG_clean_linker_0, # of connection points: 2
#     Edge 141, Type (0, 1), BuildingBlock: OJICUG_clean_linker_0, # of connection points: 2
#     Edge 142, Type (0, 1), BuildingBlock: OJICUG_clean_linker_0, # of connection points: 2
#     Edge 143, Type (0, 1), BuildingBlock: OJICUG_clean_linker_0, # of connection points: 2
#     Edge 144, Type (0, 1), BuildingBlock: OJICUG_clean_linker_0, # of connection points: 2
#     Edge 145, Type (0, 1), BuildingBlock: OJICUG_clean_linker_0, # of connection points: 2
#     Edge 146, Type (0, 1), BuildingBlock: OJICUG_clean_linker_0, # of connection points: 2
#     Edge 147, Type (0, 1), BuildingBlock: OJICUG_clean_linker_0, # of connection points: 2
#     Edge 148, Type (0, 1), BuildingBlock: OJICUG_clean_linker_0, # of connection points: 2
#     Edge 149, Type (0, 1), BuildingBlock: OJICUG_clean_linker_0, # of connection points: 2
#     Edge 150, Type (0, 1), BuildingBlock: OJICUG_clean_linker_0, # of connection points: 2
#     Edge 151, Type (0, 1), BuildingBlock: OJICUG_clean_linker_0, # of connection points: 2
# Relax obj value: 0.000
# Max RMSD: 0.011
# Mean RMSD: 0.006
data_MOF--net-tbo--node1-WUSLED_clean_sbu_0--node2-MIFKUJ_clean_linker_1--edge1-OJICUG_clean_linker_0
_symmetry_space_group_name_H-M    P1
_symmetry_Int_Tables_number       1
_symmetry_cell_setting            triclinic
loop_
_symmetry_equiv_pos_as_xyz
'x, y, z'
_cell_length_a     87.955911
_cell_length_b     88.278248
_cell_length_c     88.139711
_cell_angle_alpha  89.661104
_cell_angle_beta   90.314289
_cell_angle_gamma 90.680585
loop_
_atom_site_label
_atom_site_type_symbol
_atom_site_fract_x
_atom_site_fract_y
_atom_site_fract_z
_atom_type_partial_charge
C0 C 0.19033 0.1496 0.21249 0.0
C1 C 0.20592 0.14803 0.20961 0.0
C2 C 0.206 0.12371 0.223 0.0
C3 C 0.21369 0.13521 0.21483 0.0
C4 C 0.19032 0.12529 0.2256 0.0
C5 C 0.1826 0.13809 0.22043 0.0
U6 U 0.18363 0.18413 0.18638 0.0
O7 O 0.16203 0.1928 0.17721 0.0
O8 O 0.17605 0.207 0.19225 0.0
C9 C 0.16308 0.20549 0.1849 0.0
C10 C 0.18188 0.16314 0.20761 0.0
C11 C 0.14931 0.20996 0.19315 0.0
C12 C 0.13409 0.211 0.21612 0.0
C13 C 0.14711 0.20617 0.20849 0.0
C14 C 0.12524 0.22323 0.1931 0.0
C15 C 0.12299 0.21961 0.20851 0.0
C16 C 0.13825 0.21846 0.18553 0.0
C17 C 0.21095 0.19261 0.15324 0.0
C18 C 0.20584 0.20798 0.13078 0.0
C19 C 0.23166 0.20081 0.13684 0.0
C20 C 0.22648 0.19308 0.14975 0.0
C21 C 0.22141 0.20823 0.12707 0.0
C22 C 0.20066 0.20026 0.14375 0.0
C23 C 0.20581 0.1837 0.16652 0.0
O24 O 0.1888 0.17628 0.20955 0.0
O25 O 0.17475 0.16211 0.19451 0.0
O26 O 0.193 0.17604 0.16487 0.0
O27 O 0.20703 0.19041 0.17975 0.0
H28 H 0.2121 0.15677 0.20345 0.0
H29 H 0.22577 0.13446 0.21271 0.0
H30 H 0.18394 0.11656 0.23157 0.0
H31 H 0.17055 0.13904 0.22269 0.0
H32 H 0.13265 0.20787 0.22793 0.0
H33 H 0.15548 0.19954 0.21458 0.0
H34 H 0.11706 0.23 0.18693 0.0
H35 H 0.13976 0.22154 0.17371 0.0
H36 H 0.19759 0.21344 0.12348 0.0
H37 H 0.24375 0.20099 0.13455 0.0
H38 H 0.23461 0.18732 0.15696 0.0
H39 H 0.18862 0.20009 0.14625 0.0
C40 C 0.81763 0.19136 0.15269 0.0
C41 C 0.82175 0.20661 0.15039 0.0
C42 C 0.80812 0.20683 0.12622 0.0
C43 C 0.81698 0.21431 0.13729 0.0
C44 C 0.80415 0.19151 0.12856 0.0
C45 C 0.80885 0.18387 0.14167 0.0
U46 U 0.84417 0.1852 0.18675 0.0
O47 O 0.83866 0.1785 0.21023 0.0
O48 O 0.85312 0.16405 0.19633 0.0
C49 C 0.84561 0.16546 0.2091 0.0
C50 C 0.82229 0.18305 0.16645 0.0
C51 C 0.83677 0.15204 0.21399 0.0
C52 C 0.8199 0.13072 0.2085 0.0
C53 C 0.82783 0.14371 0.20368 0.0
C54 C 0.82946 0.13445 0.23405 0.0
C55 C 0.82067 0.1259 0.22374 0.0
C56 C 0.83745 0.14737 0.2292 0.0
C57 C 0.8784 0.21189 0.1928 0.0
C58 C 0.89389 0.21279 0.21573 0.0
C59 C 0.90254 0.22554 0.19289 0.0
C60 C 0.88938 0.22072 0.18529 0.0
C61 C 0.90497 0.22164 0.20821 0.0
C62 C 0.88074 0.20789 0.20807 0.0
C63 C 0.8647 0.20693 0.18444 0.0
O64 O 0.83512 0.17565 0.16546 0.0
O65 O 0.82088 0.19032 0.17933 0.0
O66 O 0.85168 0.20857 0.19147 0.0
O67 O 0.86577 0.1939 0.17743 0.0
H68 H 0.82863 0.21256 0.15873 0.0
H69 H 0.82037 0.22605 0.13575 0.0
H70 H 0.7972 0.18548 0.12035 0.0
H71 H 0.80556 0.1721 0.14326 0.0
H72 H 0.81308 0.12449 0.20032 0.0
H73 H 0.82706 0.1472 0.1919 0.0
H74 H 0.83043 0.13097 0.24581 0.0
H75 H 0.8443 0.15366 0.23732 0.0
H76 H 0.8955 0.20946 0.22748 0.0
H77 H 0.91073 0.2325 0.18681 0.0
H78 H 0.88776 0.22391 0.1735 0.0
H79 H 0.87243 0.20098 0.21404 0.0
C80 C 0.8198 0.83885 0.1515 0.0
C81 C 0.82325 0.82345 0.14982 0.0
C82 C 0.80943 0.82274 0.12569 0.0
C83 C 0.81811 0.81547 0.13703 0.0
C84 C 0.80631 0.83824 0.12737 0.0
C85 C 0.81141 0.84617 0.14013 0.0
U86 U 0.84556 0.84644 0.18628 0.0
O87 O 0.8539 0.86819 0.19533 0.0
O88 O 0.83909 0.85363 0.20925 0.0
C89 C 0.846 0.86684 0.2079 0.0
C90 C 0.82442 0.84744 0.1651 0.0
C91 C 0.83705 0.88013 0.21234 0.0
C92 C 0.82123 0.90179 0.20614 0.0
C93 C 0.82931 0.889 0.20157 0.0
C94 C 0.82829 0.89679 0.23227 0.0
C95 C 0.82064 0.90585 0.22155 0.0
C96 C 0.83641 0.88409 0.22769 0.0
C97 C 0.87935 0.8201 0.19484 0.0
C98 C 0.90132 0.82543 0.21097 0.0
C99 C 0.89629 0.79983 0.20244 0.0
C100 C 0.88336 0.80479 0.19466 0.0
C101 C 0.90557 0.81009 0.21056 0.0
C102 C 0.88832 0.83039 0.20318 0.0
C103 C 0.86605 0.825 0.18587 0.0
O104 O 0.82257 0.84051 0.17821 0.0
O105 O 0.83736 0.85498 0.16418 0.0
O106 O 0.86752 0.83789 0.17844 0.0
O107 O 0.85273 0.82334 0.19241 0.0
H108 H 0.82975 0.81758 0.15846 0.0
H109 H 0.82065 0.80353 0.13618 0.0
H110 H 0.79995 0.84431 0.11876 0.0
H111 H 0.8087 0.85807 0.14118 0.0
H112 H 0.81533 0.90841 0.19761 0.0
H113 H 0.82956 0.88609 0.18965 0.0
H114 H 0.82825 0.89967 0.24419 0.0
H115 H 0.84232 0.87741 0.23617 0.0
H116 H 0.90823 0.83368 0.217 0.0
H117 H 0.899 0.7879 0.2021 0.0
H118 H 0.87654 0.79665 0.18836 0.0
H119 H 0.8854 0.84227 0.20351 0.0
C120 C 0.15154 0.81763 0.19445 0.0
C121 C 0.14326 0.82792 0.20315 0.0
C122 C 0.12518 0.80789 0.21015 0.0
C123 C 0.13019 0.82309 0.21092 0.0
C124 C 0.13375 0.79762 0.20165 0.0
C125 C 0.14676 0.80245 0.19387 0.0
U126 U 0.1852 0.84461 0.18634 0.0
O127 O 0.20835 0.83944 0.17878 0.0
O128 O 0.19354 0.85343 0.16445 0.0
C129 C 0.20653 0.8463 0.16562 0.0
C130 C 0.16495 0.82249 0.18562 0.0
C131 C 0.21117 0.8378 0.1521 0.0
C132 C 0.21199 0.81467 0.13723 0.0
C133 C 0.20729 0.82245 0.15019 0.0
C134 C 0.22431 0.83756 0.12793 0.0
C135 C 0.22054 0.82216 0.12592 0.0
C136 C 0.21968 0.84527 0.14088 0.0
C137 C 0.19232 0.87907 0.21209 0.0
C138 C 0.21546 0.89446 0.21302 0.0
C139 C 0.1925 0.90336 0.22492 0.0
C140 C 0.1848 0.8902 0.22034 0.0
C141 C 0.20793 0.90566 0.22135 0.0
C142 C 0.2077 0.8813 0.20837 0.0
C143 C 0.18388 0.86525 0.20764 0.0
O144 O 0.16355 0.83517 0.17787 0.0
O145 O 0.17815 0.82134 0.19255 0.0
O146 O 0.19111 0.85238 0.20931 0.0
O147 O 0.17619 0.86611 0.19486 0.0
H148 H 0.14679 0.8397 0.20377 0.0
H149 H 0.12383 0.83135 0.21723 0.0
H150 H 0.13044 0.78578 0.20103 0.0
H151 H 0.15305 0.79433 0.1873 0.0
H152 H 0.20876 0.80287 0.13597 0.0
H153 H 0.20063 0.81649 0.1587 0.0
H154 H 0.23105 0.84362 0.11957 0.0
H155 H 0.2228 0.85711 0.14216 0.0
H156 H 0.22729 0.89595 0.20996 0.0
H157 H 0.1864 0.91163 0.23149 0.0
H158 H 0.17294 0.88868 0.22334 0.0
H159 H 0.2137 0.87287 0.20192 0.0
C160 C 0.15135 0.81767 0.8404 0.0
C161 C 0.1491 0.82172 0.82513 0.0
C162 C 0.12488 0.80796 0.8248 0.0
C163 C 0.136 0.81684 0.81737 0.0
C164 C 0.12723 0.804 0.84011 0.0
C165 C 0.14033 0.80881 0.84782 0.0
U166 U 0.18555 0.84433 0.84651 0.0
O167 O 0.19439 0.85417 0.86776 0.0
O168 O 0.20876 0.8393 0.85424 0.0
C169 C 0.20722 0.84675 0.867 0.0
C170 C 0.16496 0.82267 0.84887 0.0
C171 C 0.21177 0.83865 0.88093 0.0
C172 C 0.2127 0.81581 0.89647 0.0
C173 C 0.20799 0.82331 0.88324 0.0
C174 C 0.22477 0.83896 0.90532 0.0
C175 C 0.22116 0.82356 0.90767 0.0
C176 C 0.22014 0.84641 0.89207 0.0
C177 C 0.19331 0.87713 0.81893 0.0
C178 C 0.20976 0.89877 0.82444 0.0
C179 C 0.20125 0.89419 0.79866 0.0
C180 C 0.19319 0.88134 0.80358 0.0
C181 C 0.20954 0.90313 0.80905 0.0
C182 C 0.20177 0.88584 0.82933 0.0
C183 C 0.1844 0.86378 0.82389 0.0
O184 O 0.17806 0.82092 0.84201 0.0
O185 O 0.16385 0.83579 0.85571 0.0
O186 O 0.17673 0.86535 0.83653 0.0
O187 O 0.19133 0.85071 0.823 0.0
H188 H 0.15745 0.82867 0.81924 0.0
H189 H 0.13447 0.82022 0.80563 0.0
H190 H 0.119 0.79702 0.84611 0.0
H191 H 0.14188 0.80558 0.8596 0.0
H192 H 0.20959 0.804 0.89802 0.0
H193 H 0.20143 0.81714 0.87482 0.0
H194 H 0.23142 0.84521 0.91361 0.0
H195 H 0.22317 0.85824 0.89047 0.0
H196 H 0.21619 0.9053 0.83269 0.0
H197 H 0.20072 0.89732 0.78677 0.0
H198 H 0.18673 0.87475 0.79539 0.0
H199 H 0.20211 0.8827 0.84123 0.0
C200 C 0.15023 0.19164 0.82016 0.0
C201 C 0.14206 0.20018 0.83067 0.0
C202 C 0.12455 0.20829 0.8107 0.0
C203 C 0.12929 0.20839 0.82599 0.0
C204 C 0.13294 0.19986 0.80022 0.0
C205 C 0.14563 0.19161 0.80492 0.0
U206 U 0.18382 0.18244 0.84669 0.0
O207 O 0.19158 0.16028 0.85516 0.0
O208 O 0.20669 0.17441 0.84112 0.0
C209 C 0.20454 0.16123 0.84785 0.0
C210 C 0.16337 0.18243 0.82483 0.0
C211 C 0.20884 0.14767 0.83921 0.0
C212 C 0.21123 0.13376 0.81557 0.0
C213 C 0.20661 0.14667 0.82345 0.0
C214 C 0.2201 0.12264 0.83914 0.0
C215 C 0.21805 0.12158 0.82333 0.0
C216 C 0.21557 0.13554 0.84697 0.0
C217 C 0.19179 0.2081 0.88132 0.0
C218 C 0.2153 0.21076 0.89586 0.0
C219 C 0.1918 0.22051 0.90587 0.0
C220 C 0.18403 0.21544 0.89295 0.0
C221 C 0.20757 0.21841 0.90745 0.0
C222 C 0.20748 0.20565 0.88292 0.0
C223 C 0.18329 0.20362 0.86753 0.0
O224 O 0.17679 0.18899 0.82354 0.0
O225 O 0.16182 0.17464 0.8375 0.0
O226 O 0.17531 0.19097 0.86849 0.0
O227 O 0.19047 0.20518 0.85456 0.0
H228 H 0.14548 0.20043 0.8425 0.0
H229 H 0.1232 0.2149 0.83432 0.0
H230 H 0.12952 0.19936 0.78841 0.0
H231 H 0.15177 0.18507 0.79664 0.0
H232 H 0.20933 0.13325 0.80343 0.0
H233 H 0.20136 0.15586 0.81724 0.0
H234 H 0.22549 0.1136 0.84546 0.0
H235 H 0.21743 0.1361 0.85912 0.0
H236 H 0.22744 0.20903 0.89662 0.0
H237 H 0.18539 0.22605 0.91467 0.0
H238 H 0.17192 0.21738 0.89198 0.0
H239 H 0.21371 0.19997 0.87409 0.0
C240 C 0.81755 0.15111 0.83937 0.0
C241 C 0.8279 0.14292 0.83064 0.0
C242 C 0.80781 0.12498 0.82345 0.0
C243 C 0.82307 0.12996 0.82276 0.0
C244 C 0.79747 0.13346 0.83197 0.0
C245 C 0.80231 0.14636 0.83985 0.0
U246 U 0.8441 0.18506 0.84793 0.0
O247 O 0.83841 0.2079 0.85575 0.0
O248 O 0.85259 0.19324 0.87003 0.0
C249 C 0.84494 0.20592 0.86907 0.0
C250 C 0.82237 0.16437 0.84836 0.0
C251 C 0.83601 0.21007 0.88263 0.0
C252 C 0.81295 0.21954 0.89433 0.0
C253 C 0.82083 0.21484 0.88145 0.0
C254 C 0.83513 0.21456 0.90986 0.0
C255 C 0.82003 0.21953 0.90868 0.0
C256 C 0.84303 0.20996 0.89698 0.0
C257 C 0.8781 0.19379 0.82177 0.0
C258 C 0.89978 0.2102 0.82757 0.0
C259 C 0.89528 0.20198 0.80175 0.0
C260 C 0.8824 0.19386 0.80649 0.0
C261 C 0.90418 0.21022 0.81222 0.0
C262 C 0.88682 0.20211 0.8323 0.0
C263 C 0.86464 0.18482 0.82639 0.0
O264 O 0.83521 0.16306 0.85593 0.0
O265 O 0.82088 0.17763 0.84171 0.0
O266 O 0.85149 0.1916 0.82494 0.0
O267 O 0.86589 0.17703 0.83909 0.0
H268 H 0.83973 0.14643 0.83008 0.0
H269 H 0.83137 0.12366 0.81642 0.0
H270 H 0.78559 0.13017 0.83254 0.0
H271 H 0.79413 0.15257 0.84645 0.0
H272 H 0.80129 0.22316 0.89305 0.0
H273 H 0.81505 0.21508 0.87057 0.0
H274 H 0.84098 0.21459 0.9207 0.0
H275 H 0.85475 0.20649 0.89821 0.0
H276 H 0.90628 0.21655 0.8359 0.0
H277 H 0.89843 0.20156 0.7899 0.0
H278 H 0.87584 0.18749 0.7982 0.0
H279 H 0.88364 0.20229 0.84415 0.0
C280 C 0.83872 0.88068 0.81995 0.0
C281 C 0.82326 0.88253 0.82329 0.0
C282 C 0.82318 0.90679 0.80978 0.0
C283 C 0.81556 0.89546 0.81824 0.0
C284 C 0.83875 0.90495 0.80675 0.0
C285 C 0.8464 0.89204 0.81176 0.0
U286 U 0.8461 0.84613 0.84594 0.0
O287 O 0.8526 0.82295 0.83961 0.0
O288 O 0.86786 0.83682 0.85378 0.0
C289 C 0.86606 0.8242 0.84608 0.0
C290 C 0.84703 0.86692 0.82446 0.0
C291 C 0.87916 0.81921 0.83698 0.0
C292 C 0.90348 0.82406 0.82464 0.0
C293 C 0.89071 0.82934 0.83234 0.0
C294 C 0.89317 0.79854 0.82569 0.0
C295 C 0.90497 0.80855 0.82135 0.0
C296 C 0.88046 0.80382 0.83344 0.0
C297 C 0.8209 0.83891 0.88102 0.0
C298 C 0.81889 0.81552 0.89571 0.0
C299 C 0.80891 0.83881 0.90582 0.0
C300 C 0.81357 0.84656 0.89273 0.0
C301 C 0.81147 0.82317 0.90748 0.0
C302 C 0.82362 0.82333 0.88261 0.0
C303 C 0.8254 0.84746 0.86729 0.0
O304 O 0.85506 0.86785 0.83705 0.0
O305 O 0.83961 0.85398 0.82311 0.0
O306 O 0.82311 0.84067 0.85422 0.0
O307 O 0.83853 0.85468 0.86806 0.0
H308 H 0.8171 0.87391 0.82964 0.0
H309 H 0.80356 0.89642 0.8207 0.0
H310 H 0.84509 0.91354 0.80055 0.0
H311 H 0.85835 0.89087 0.80913 0.0
H312 H 0.91237 0.8321 0.82163 0.0
H313 H 0.89001 0.8413 0.83489 0.0
H314 H 0.89373 0.78658 0.82311 0.0
H315 H 0.87169 0.79579 0.83686 0.0
H316 H 0.82118 0.80352 0.89668 0.0
H317 H 0.80306 0.84503 0.91453 0.0
H318 H 0.81134 0.85857 0.89172 0.0
H319 H 0.82935 0.81721 0.87374 0.0
C320 C 0.19253 0.65197 0.71298 0.0
C321 C 0.19815 0.64144 0.70258 0.0
C322 C 0.20807 0.62592 0.72334 0.0
C323 C 0.20581 0.62854 0.70771 0.0
C324 C 0.20272 0.63672 0.73366 0.0
C325 C 0.19501 0.64955 0.72853 0.0
U326 U 0.18449 0.68575 0.68631 0.0
O327 O 0.16262 0.69388 0.67727 0.0
O328 O 0.17662 0.70862 0.69181 0.0
C329 C 0.16357 0.70673 0.68467 0.0
C330 C 0.18361 0.66523 0.70803 0.0
C331 C 0.14984 0.71115 0.69301 0.0
C332 C 0.13477 0.71214 0.71607 0.0
C333 C 0.14779 0.70742 0.70839 0.0
C334 C 0.12562 0.72415 0.69305 0.0
C335 C 0.12351 0.72058 0.70849 0.0
C336 C 0.13864 0.71949 0.68542 0.0
C337 C 0.21143 0.6939 0.65272 0.0
C338 C 0.20611 0.70907 0.63019 0.0
C339 C 0.23198 0.70185 0.63602 0.0
C340 C 0.22691 0.69426 0.64905 0.0
C341 C 0.22164 0.70924 0.62631 0.0
C342 C 0.20106 0.70149 0.64329 0.0
C343 C 0.20646 0.68523 0.66622 0.0
O344 O 0.19028 0.67854 0.70963 0.0
O345 O 0.17609 0.6639 0.69516 0.0
O346 O 0.19372 0.67739 0.66483 0.0
O347 O 0.2077 0.69225 0.67927 0.0
H348 H 0.19643 0.64306 0.6905 0.0
H349 H 0.20962 0.62043 0.69942 0.0
H350 H 0.20449 0.63528 0.74575 0.0
H351 H 0.19083 0.65755 0.73676 0.0
H352 H 0.13343 0.70905 0.7279 0.0
H353 H 0.15627 0.70091 0.71444 0.0
H354 H 0.11733 0.7308 0.6869 0.0
H355 H 0.14003 0.72252 0.67357 0.0
H356 H 0.19781 0.71451 0.62294 0.0
H357 H 0.24403 0.70197 0.6336 0.0
H358 H 0.23511 0.68855 0.65622 0.0
H359 H 0.18904 0.70139 0.64593 0.0
C360 C 0.81643 0.69374 0.65376 0.0
C361 C 0.82686 0.69903 0.64287 0.0
C362 C 0.80621 0.70965 0.62774 0.0
C363 C 0.8218 0.70685 0.62998 0.0
C364 C 0.79587 0.70464 0.63889 0.0
C365 C 0.80094 0.69673 0.65172 0.0
U366 U 0.84391 0.68541 0.68666 0.0
O367 O 0.83923 0.67775 0.70999 0.0
O368 O 0.85268 0.66355 0.69486 0.0
C369 C 0.84563 0.66453 0.70793 0.0
C370 C 0.82134 0.68476 0.66706 0.0
C371 C 0.83684 0.65092 0.71265 0.0
C372 C 0.81344 0.63859 0.72115 0.0
C373 C 0.82131 0.6516 0.71629 0.0
C374 C 0.83638 0.62396 0.71858 0.0
C375 C 0.8209 0.62462 0.72236 0.0
C376 C 0.84427 0.63697 0.71384 0.0
C377 C 0.87879 0.71125 0.69282 0.0
C378 C 0.89445 0.71186 0.71565 0.0
C379 C 0.90311 0.72457 0.69279 0.0
C380 C 0.88985 0.71993 0.68525 0.0
C381 C 0.90556 0.72065 0.7081 0.0
C382 C 0.8812 0.70715 0.70805 0.0
C383 C 0.8648 0.70682 0.68465 0.0
O384 O 0.83384 0.67692 0.66545 0.0
O385 O 0.82049 0.69154 0.68026 0.0
O386 O 0.85202 0.70839 0.69212 0.0
O387 O 0.86542 0.69407 0.67706 0.0
H388 H 0.83891 0.69694 0.64421 0.0
H389 H 0.83008 0.71038 0.62159 0.0
H390 H 0.78383 0.70682 0.63773 0.0
H391 H 0.79271 0.69283 0.66001 0.0
H392 H 0.80148 0.63943 0.72384 0.0
H393 H 0.81523 0.66217 0.71543 0.0
H394 H 0.8425 0.61341 0.71956 0.0
H395 H 0.85625 0.63617 0.71119 0.0
H396 H 0.89607 0.70851 0.72738 0.0
H397 H 0.91133 0.73148 0.68669 0.0
H398 H 0.88817 0.72323 0.6735 0.0
H399 H 0.87282 0.70036 0.71407 0.0
C400 C 0.81953 0.33849 0.65138 0.0
C401 C 0.82295 0.32308 0.64979 0.0
C402 C 0.81047 0.32264 0.62496 0.0
C403 C 0.8184 0.3152 0.63671 0.0
C404 C 0.80722 0.33811 0.62663 0.0
C405 C 0.8117 0.34593 0.63969 0.0
U406 U 0.84444 0.34592 0.68675 0.0
O407 O 0.85271 0.36761 0.69601 0.0
O408 O 0.83755 0.35307 0.7096 0.0
C409 C 0.8446 0.36624 0.70844 0.0
C410 C 0.82376 0.34703 0.66514 0.0
C411 C 0.83572 0.37958 0.71286 0.0
C412 C 0.82014 0.4014 0.70663 0.0
C413 C 0.8281 0.38854 0.70208 0.0
C414 C 0.82708 0.3963 0.73278 0.0
C415 C 0.81955 0.40545 0.72206 0.0
C416 C 0.83508 0.38353 0.72821 0.0
C417 C 0.87805 0.31957 0.69606 0.0
C418 C 0.90194 0.32474 0.70928 0.0
C419 C 0.89267 0.29893 0.70697 0.0
C420 C 0.87989 0.30409 0.69906 0.0
C421 C 0.904 0.30915 0.712 0.0
C422 C 0.88909 0.3299 0.70141 0.0
C423 C 0.86492 0.32447 0.68677 0.0
O424 O 0.82161 0.34003 0.67817 0.0
O425 O 0.8367 0.3546 0.66455 0.0
O426 O 0.86649 0.3373 0.67925 0.0
O427 O 0.85145 0.32278 0.69299 0.0
H428 H 0.82907 0.31713 0.65866 0.0
H429 H 0.82123 0.30334 0.63574 0.0
H430 H 0.80095 0.34416 0.61793 0.0
H431 H 0.80892 0.3578 0.64072 0.0
H432 H 0.81433 0.40809 0.6981 0.0
H433 H 0.82837 0.38564 0.69016 0.0
H434 H 0.82705 0.39918 0.74471 0.0
H435 H 0.84091 0.37679 0.7367 0.0
H436 H 0.91047 0.33294 0.71284 0.0
H437 H 0.89367 0.28689 0.7091 0.0
H438 H 0.8715 0.29592 0.6951 0.0
H439 H 0.88795 0.34194 0.69928 0.0
C440 C 0.15273 0.31709 0.69536 0.0
C441 C 0.14229 0.32762 0.70086 0.0
C442 C 0.1264 0.30711 0.71101 0.0
C443 C 0.12924 0.32268 0.70857 0.0
C444 C 0.13712 0.29667 0.70577 0.0
C445 C 0.1501 0.30161 0.698 0.0
U446 U 0.18646 0.34397 0.68695 0.0
O447 O 0.20982 0.33842 0.68008 0.0
O448 O 0.19539 0.35217 0.66512 0.0
C449 C 0.20822 0.3448 0.66666 0.0
C450 C 0.16623 0.32185 0.68655 0.0
C451 C 0.2131 0.33573 0.65353 0.0
C452 C 0.20787 0.32308 0.62954 0.0
C453 C 0.20275 0.33085 0.64231 0.0
C454 C 0.23365 0.32453 0.63921 0.0
C455 C 0.22342 0.31994 0.62773 0.0
C456 C 0.22854 0.33237 0.65191 0.0
C457 C 0.19309 0.37895 0.71226 0.0
C458 C 0.21624 0.39426 0.71384 0.0
C459 C 0.19308 0.40304 0.72544 0.0
C460 C 0.18543 0.39001 0.72048 0.0
C461 C 0.20864 0.40529 0.72234 0.0
C462 C 0.20853 0.3812 0.70883 0.0
C463 C 0.18477 0.36509 0.70775 0.0
O464 O 0.16495 0.33429 0.67839 0.0
O465 O 0.17936 0.32086 0.69365 0.0
O466 O 0.19192 0.35224 0.70985 0.0
O467 O 0.17743 0.36575 0.69474 0.0
H468 H 0.1441 0.33965 0.69902 0.0
H469 H 0.1212 0.33105 0.71231 0.0
H470 H 0.13551 0.28463 0.70768 0.0
H471 H 0.15805 0.2933 0.69394 0.0
H472 H 0.19966 0.31988 0.6209 0.0
H473 H 0.19075 0.33324 0.64327 0.0
H474 H 0.24565 0.32208 0.63839 0.0
H475 H 0.23672 0.33597 0.66044 0.0
H476 H 0.22822 0.39555 0.71132 0.0
H477 H 0.18677 0.4114 0.73167 0.0
H478 H 0.17349 0.38852 0.72316 0.0
H479 H 0.21465 0.3728 0.70245 0.0
C480 C 0.15137 0.31767 0.34014 0.0
C481 C 0.14906 0.32174 0.32489 0.0
C482 C 0.12537 0.30705 0.32429 0.0
C483 C 0.13619 0.31646 0.31702 0.0
C484 C 0.12773 0.30318 0.33964 0.0
C485 C 0.1406 0.30842 0.34745 0.0
U486 U 0.18525 0.34479 0.34641 0.0
O487 O 0.19387 0.35466 0.36774 0.0
O488 O 0.20846 0.33996 0.35426 0.0
C489 C 0.20678 0.34736 0.36703 0.0
C490 C 0.16485 0.32292 0.34867 0.0
C491 C 0.21133 0.33925 0.38096 0.0
C492 C 0.21236 0.31637 0.39643 0.0
C493 C 0.2076 0.32389 0.38323 0.0
C494 C 0.22435 0.33953 0.40533 0.0
C495 C 0.22081 0.32411 0.40763 0.0
C496 C 0.21967 0.34701 0.39211 0.0
C497 C 0.19298 0.37759 0.31881 0.0
C498 C 0.20948 0.39919 0.32432 0.0
C499 C 0.20081 0.39474 0.29857 0.0
C500 C 0.19277 0.38187 0.30348 0.0
C501 C 0.20919 0.40361 0.30895 0.0
C502 C 0.2015 0.38625 0.3292 0.0
C503 C 0.18411 0.3642 0.32375 0.0
O504 O 0.17802 0.3213 0.34192 0.0
O505 O 0.16353 0.33606 0.35543 0.0
O506 O 0.17636 0.36575 0.33635 0.0
O507 O 0.19112 0.35117 0.32293 0.0
H508 H 0.15725 0.32893 0.31907 0.0
H509 H 0.13482 0.31956 0.3052 0.0
H510 H 0.11953 0.29622 0.3457 0.0
H511 H 0.14214 0.30525 0.35925 0.0
H512 H 0.2093 0.30454 0.39794 0.0
H513 H 0.20106 0.31772 0.37478 0.0
H514 H 0.23099 0.34578 0.41364 0.0
H515 H 0.22267 0.35886 0.39055 0.0
H516 H 0.21597 0.40567 0.33256 0.0
H517 H 0.20021 0.39791 0.2867 0.0
H518 H 0.18625 0.37532 0.2953 0.0
H519 H 0.20191 0.38306 0.34108 0.0
C520 C 0.14994 0.69043 0.32035 0.0
C521 C 0.1485 0.70596 0.32334 0.0
C522 C 0.12388 0.70624 0.31037 0.0
C523 C 0.1356 0.7138 0.31838 0.0
C524 C 0.1253 0.69061 0.30772 0.0
C525 C 0.1382 0.68282 0.31263 0.0
U526 U 0.18459 0.68299 0.34618 0.0
O527 O 0.19388 0.66135 0.3542 0.0
O528 O 0.20783 0.6764 0.33989 0.0
C529 C 0.20655 0.66306 0.34649 0.0
C530 C 0.16366 0.68198 0.32478 0.0
C531 C 0.21145 0.64994 0.33746 0.0
C532 C 0.20605 0.62658 0.32376 0.0
C533 C 0.20097 0.63938 0.33149 0.0
C534 C 0.23211 0.63493 0.32749 0.0
C535 C 0.22171 0.62409 0.32181 0.0
C536 C 0.22702 0.64767 0.33525 0.0
C537 C 0.19188 0.70871 0.38086 0.0
C538 C 0.21546 0.71189 0.39517 0.0
C539 C 0.19185 0.72116 0.40539 0.0
C540 C 0.18407 0.71591 0.39255 0.0
C541 C 0.20768 0.71938 0.40682 0.0
C542 C 0.20762 0.70659 0.3823 0.0
C543 C 0.18332 0.7039 0.36723 0.0
O544 O 0.17673 0.6892 0.32327 0.0
O545 O 0.16273 0.67409 0.33744 0.0
O546 O 0.17612 0.69081 0.36824 0.0
O547 O 0.1901 0.706 0.35411 0.0
H548 H 0.15742 0.71207 0.32933 0.0
H549 H 0.13497 0.72584 0.32053 0.0
H550 H 0.11641 0.68433 0.30189 0.0
H551 H 0.13905 0.67083 0.31029 0.0
H552 H 0.19771 0.61844 0.31968 0.0
H553 H 0.18887 0.6409 0.333 0.0
H554 H 0.24422 0.63359 0.32595 0.0
H555 H 0.23531 0.65569 0.3397 0.0
H556 H 0.22765 0.7104 0.39582 0.0
H557 H 0.18542 0.72657 0.41424 0.0
H558 H 0.17191 0.71758 0.3917 0.0
H559 H 0.21388 0.70101 0.37342 0.0
C560 C 0.81747 0.65122 0.33952 0.0
C561 C 0.82785 0.64345 0.33047 0.0
C562 C 0.8079 0.62561 0.32272 0.0
C563 C 0.82312 0.63071 0.32219 0.0
C564 C 0.79754 0.6336 0.33168 0.0
C565 C 0.80229 0.64626 0.34 0.0
U566 U 0.84441 0.68458 0.34823 0.0
O567 O 0.83936 0.70758 0.35604 0.0
O568 O 0.85328 0.69258 0.37024 0.0
C569 C 0.84611 0.70553 0.36924 0.0
C570 C 0.82223 0.66437 0.34871 0.0
C571 C 0.8376 0.71008 0.38286 0.0
C572 C 0.814 0.71591 0.39582 0.0
C573 C 0.82164 0.71082 0.38293 0.0
C574 C 0.8381 0.71921 0.40885 0.0
C575 C 0.82214 0.7203 0.40891 0.0
C576 C 0.84571 0.71421 0.39596 0.0
C577 C 0.87873 0.69202 0.32208 0.0
C578 C 0.89358 0.71537 0.31989 0.0
C579 C 0.90295 0.6922 0.30896 0.0
C580 C 0.89003 0.68442 0.31411 0.0
C581 C 0.90484 0.70782 0.31162 0.0
C582 C 0.88064 0.70754 0.32509 0.0
C583 C 0.86495 0.68356 0.32674 0.0
O584 O 0.83498 0.66286 0.3564 0.0
O585 O 0.82102 0.67767 0.34207 0.0
O586 O 0.85199 0.69071 0.32526 0.0
O587 O 0.86601 0.67582 0.33947 0.0
H588 H 0.83962 0.64717 0.32987 0.0
H589 H 0.83136 0.62493 0.31528 0.0
H590 H 0.78579 0.62989 0.33251 0.0
H591 H 0.79411 0.6521 0.34693 0.0
H592 H 0.80173 0.71671 0.39537 0.0
H593 H 0.81509 0.70766 0.37298 0.0
H594 H 0.84475 0.72218 0.41879 0.0
H595 H 0.85802 0.71367 0.39619 0.0
H596 H 0.89459 0.7274 0.32207 0.0
H597 H 0.9115 0.68593 0.30293 0.0
H598 H 0.8888 0.67243 0.31175 0.0
H599 H 0.87206 0.71362 0.33128 0.0
C600 C 0.83877 0.38133 0.32029 0.0
C601 C 0.82331 0.38306 0.3237 0.0
C602 C 0.82322 0.4077 0.31094 0.0
C603 C 0.81559 0.39611 0.31902 0.0
C604 C 0.83875 0.40593 0.30773 0.0
C605 C 0.84642 0.39288 0.31234 0.0
U606 U 0.84601 0.3465 0.34581 0.0
O607 O 0.85248 0.32336 0.33931 0.0
O608 O 0.86767 0.33703 0.35373 0.0
C609 C 0.86588 0.32449 0.3459 0.0
C610 C 0.84713 0.36752 0.32458 0.0
C611 C 0.87905 0.31954 0.33686 0.0
C612 C 0.90344 0.32443 0.32468 0.0
C613 C 0.89062 0.32969 0.33232 0.0
C614 C 0.89313 0.29891 0.32559 0.0
C615 C 0.90496 0.30893 0.32135 0.0
C616 C 0.88037 0.30415 0.33328 0.0
C617 C 0.82028 0.33917 0.38057 0.0
C618 C 0.81797 0.31577 0.39519 0.0
C619 C 0.80719 0.33891 0.40479 0.0
C620 C 0.81236 0.34673 0.39194 0.0
C621 C 0.80979 0.32329 0.40655 0.0
C622 C 0.82317 0.32365 0.38231 0.0
C623 C 0.8251 0.34775 0.36697 0.0
O624 O 0.8551 0.36827 0.33721 0.0
O625 O 0.83973 0.35459 0.32301 0.0
O626 O 0.82292 0.34107 0.35382 0.0
O627 O 0.83829 0.35484 0.36796 0.0
H628 H 0.81719 0.37431 0.32991 0.0
H629 H 0.80368 0.39718 0.32184 0.0
H630 H 0.84494 0.41451 0.30138 0.0
H631 H 0.85833 0.39175 0.30956 0.0
H632 H 0.91235 0.33248 0.32175 0.0
H633 H 0.88989 0.34164 0.3349 0.0
H634 H 0.89372 0.28696 0.32298 0.0
H635 H 0.87159 0.29612 0.33662 0.0
H636 H 0.82009 0.30374 0.39609 0.0
H637 H 0.80122 0.34516 0.4134 0.0
H638 H 0.81009 0.35873 0.39085 0.0
H639 H 0.82931 0.3176 0.37367 0.0
C640 C 0.69067 0.14979 0.71145 0.0
C641 C 0.70629 0.14827 0.70864 0.0
C642 C 0.70617 0.12353 0.7212 0.0
C643 C 0.71398 0.13528 0.71353 0.0
C644 C 0.69051 0.1251 0.72385 0.0
C645 C 0.68287 0.13809 0.71904 0.0
U646 U 0.68353 0.18403 0.68512 0.0
O647 O 0.66177 0.19282 0.67649 0.0
O648 O 0.67645 0.20712 0.69079 0.0
C649 C 0.66325 0.20565 0.68385 0.0
C650 C 0.68226 0.16343 0.70676 0.0
C651 C 0.64979 0.21055 0.69236 0.0
C652 C 0.6349 0.21187 0.71552 0.0
C653 C 0.64765 0.20666 0.70768 0.0
C654 C 0.62623 0.22467 0.69275 0.0
C655 C 0.62407 0.22105 0.70817 0.0
C656 C 0.63895 0.21949 0.68496 0.0
C657 C 0.70967 0.19114 0.65071 0.0
C658 C 0.71148 0.21431 0.63566 0.0
C659 C 0.72268 0.19121 0.62645 0.0
C660 C 0.71775 0.18354 0.63948 0.0
C661 C 0.71965 0.20671 0.62436 0.0
C662 C 0.70648 0.20658 0.6487 0.0
C663 C 0.70488 0.1827 0.66441 0.0
O664 O 0.68946 0.17649 0.70822 0.0
O665 O 0.67455 0.16233 0.69399 0.0
O666 O 0.69188 0.17529 0.66336 0.0
O667 O 0.70669 0.18969 0.67744 0.0
H668 H 0.71253 0.15712 0.70271 0.0
H669 H 0.726 0.13436 0.71116 0.0
H670 H 0.68417 0.11639 0.72988 0.0
H671 H 0.67083 0.13905 0.72134 0.0
H672 H 0.63369 0.20894 0.7274 0.0
H673 H 0.65587 0.19972 0.7136 0.0
H674 H 0.61802 0.23143 0.68662 0.0
H675 H 0.64035 0.22254 0.67312 0.0
H676 H 0.7088 0.22619 0.63435 0.0
H677 H 0.72911 0.18504 0.61811 0.0
H678 H 0.72036 0.17164 0.64083 0.0
H679 H 0.70017 0.21265 0.65721 0.0
C680 C 0.31811 0.19141 0.65184 0.0
C681 C 0.32219 0.20669 0.64964 0.0
C682 C 0.30874 0.20696 0.62536 0.0
C683 C 0.31748 0.21442 0.63653 0.0
C684 C 0.30476 0.19163 0.62765 0.0
C685 C 0.30939 0.18396 0.64076 0.0
U686 U 0.34451 0.18515 0.68606 0.0
O687 O 0.33918 0.17757 0.70924 0.0
O688 O 0.35391 0.16379 0.69494 0.0
C689 C 0.34633 0.16468 0.70771 0.0
C690 C 0.32291 0.18297 0.66547 0.0
C691 C 0.33793 0.15084 0.71236 0.0
C692 C 0.31432 0.13701 0.71714 0.0
C693 C 0.32197 0.15008 0.71209 0.0
C694 C 0.33848 0.12515 0.72242 0.0
C695 C 0.32248 0.12439 0.72248 0.0
C696 C 0.3461 0.13825 0.71747 0.0
C697 C 0.37783 0.21259 0.69379 0.0
C698 C 0.40184 0.20758 0.70663 0.0
C699 C 0.39268 0.23327 0.7047 0.0
C700 C 0.37979 0.22805 0.69687 0.0
C701 C 0.40397 0.22313 0.70955 0.0
C702 C 0.38888 0.20235 0.69889 0.0
C703 C 0.36441 0.20752 0.68494 0.0
O704 O 0.33597 0.17601 0.6644 0.0
O705 O 0.32115 0.18987 0.67851 0.0
O706 O 0.35123 0.20858 0.69179 0.0
O707 O 0.36584 0.19489 0.67728 0.0
H708 H 0.32903 0.21262 0.65803 0.0
H709 H 0.32087 0.22617 0.63504 0.0
H710 H 0.29788 0.1856 0.61938 0.0
H711 H 0.30614 0.17217 0.64227 0.0
H712 H 0.30201 0.13692 0.71715 0.0
H713 H 0.31539 0.15963 0.70813 0.0
H714 H 0.34516 0.11559 0.72615 0.0
H715 H 0.35842 0.13856 0.71769 0.0
H716 H 0.41034 0.19944 0.71002 0.0
H717 H 0.39375 0.24528 0.70698 0.0
H718 H 0.37137 0.23614 0.69312 0.0
H719 H 0.38762 0.19034 0.69672 0.0
C720 C 0.31966 0.83789 0.65133 0.0
C721 C 0.33036 0.8302 0.64255 0.0
C722 C 0.31026 0.82144 0.62539 0.0
C723 C 0.32571 0.8221 0.62966 0.0
C724 C 0.2996 0.82904 0.63435 0.0
C725 C 0.30427 0.83718 0.64716 0.0
U726 U 0.34556 0.84624 0.68571 0.0
O727 O 0.35397 0.86806 0.69452 0.0
O728 O 0.33932 0.85357 0.70869 0.0
C729 C 0.34627 0.86675 0.70722 0.0
C730 C 0.32421 0.84686 0.66473 0.0
C731 C 0.33755 0.88011 0.71191 0.0
C732 C 0.32225 0.90226 0.70617 0.0
C733 C 0.3299 0.8893 0.70135 0.0
C734 C 0.32953 0.89678 0.73214 0.0
C735 C 0.32209 0.90625 0.72163 0.0
C736 C 0.33718 0.88389 0.72732 0.0
C737 C 0.37932 0.81987 0.69425 0.0
C738 C 0.40125 0.8252 0.71043 0.0
C739 C 0.39616 0.79957 0.702 0.0
C740 C 0.38329 0.80455 0.69414 0.0
C741 C 0.40543 0.80984 0.71013 0.0
C742 C 0.38831 0.83017 0.70257 0.0
C743 C 0.366 0.82476 0.68531 0.0
O744 O 0.32244 0.84012 0.67794 0.0
O745 O 0.33708 0.85454 0.66369 0.0
O746 O 0.36746 0.83759 0.67778 0.0
O747 O 0.35273 0.82318 0.69195 0.0
H748 H 0.34231 0.8305 0.64562 0.0
H749 H 0.33418 0.81625 0.62311 0.0
H750 H 0.28766 0.82893 0.63131 0.0
H751 H 0.29584 0.84305 0.65376 0.0
H752 H 0.31676 0.90932 0.69774 0.0
H753 H 0.32999 0.88657 0.68939 0.0
H754 H 0.3294 0.89927 0.74415 0.0
H755 H 0.34293 0.8769 0.73566 0.0
H756 H 0.40816 0.83344 0.71647 0.0
H757 H 0.39882 0.78763 0.70174 0.0
H758 H 0.37646 0.79641 0.68787 0.0
H759 H 0.38542 0.84206 0.70285 0.0
C760 C 0.65101 0.81753 0.69474 0.0
C761 C 0.64262 0.8279 0.70323 0.0
C762 C 0.6245 0.80791 0.71024 0.0
C763 C 0.62946 0.82313 0.7109 0.0
C764 C 0.63316 0.79757 0.70193 0.0
C765 C 0.64625 0.80234 0.69425 0.0
U766 U 0.68499 0.84423 0.68681 0.0
O767 O 0.70828 0.83852 0.67988 0.0
O768 O 0.69398 0.85251 0.66504 0.0
C769 C 0.70674 0.84501 0.66651 0.0
C770 C 0.66458 0.82226 0.68611 0.0
C771 C 0.71149 0.83597 0.65332 0.0
C772 C 0.70602 0.82329 0.62939 0.0
C773 C 0.70103 0.83104 0.64223 0.0
C774 C 0.73191 0.82484 0.63876 0.0
C775 C 0.72157 0.82022 0.6274 0.0
C776 C 0.72693 0.83267 0.65152 0.0
C777 C 0.69201 0.87909 0.71208 0.0
C778 C 0.71524 0.89432 0.71308 0.0
C779 C 0.69223 0.90351 0.72465 0.0
C780 C 0.68449 0.89036 0.72014 0.0
C781 C 0.70771 0.90567 0.7212 0.0
C782 C 0.70744 0.88116 0.7085 0.0
C783 C 0.68352 0.86528 0.7077 0.0
O784 O 0.66339 0.83484 0.67815 0.0
O785 O 0.67764 0.82116 0.69332 0.0
O786 O 0.69056 0.85237 0.70974 0.0
O787 O 0.67609 0.86601 0.69474 0.0
H788 H 0.64614 0.83968 0.70378 0.0
H789 H 0.62303 0.83144 0.71707 0.0
H790 H 0.62988 0.78572 0.7014 0.0
H791 H 0.65263 0.79416 0.68784 0.0
H792 H 0.69773 0.82006 0.62085 0.0
H793 H 0.68903 0.83339 0.64334 0.0
H794 H 0.74391 0.82244 0.6378 0.0
H795 H 0.73519 0.8363 0.65996 0.0
H796 H 0.72711 0.8957 0.71011 0.0
H797 H 0.68612 0.91189 0.73106 0.0
H798 H 0.67259 0.88895 0.72303 0.0
H799 H 0.71344 0.87262 0.7022 0.0
C800 C 0.65124 0.81742 0.33944 0.0
C801 C 0.64878 0.82158 0.32423 0.0
C802 C 0.62506 0.80695 0.3238 0.0
C803 C 0.63581 0.81637 0.31647 0.0
C804 C 0.62753 0.80303 0.33911 0.0
C805 C 0.6405 0.8082 0.34682 0.0
U806 U 0.68551 0.84408 0.3454 0.0
O807 O 0.695 0.85345 0.36652 0.0
O808 O 0.7089 0.83862 0.35245 0.0
C809 C 0.7077 0.84582 0.36539 0.0
C810 C 0.66494 0.8224 0.34777 0.0
C811 C 0.7126 0.83736 0.37902 0.0
C812 C 0.70712 0.82423 0.40276 0.0
C813 C 0.70208 0.83176 0.38967 0.0
C814 C 0.73318 0.82746 0.39453 0.0
C815 C 0.72275 0.82207 0.40542 0.0
C816 C 0.72815 0.83505 0.38152 0.0
C817 C 0.69294 0.87733 0.31829 0.0
C818 C 0.70957 0.8988 0.32391 0.0
C819 C 0.70068 0.89467 0.29818 0.0
C820 C 0.69262 0.88178 0.30301 0.0
C821 C 0.70916 0.9034 0.30859 0.0
C822 C 0.70159 0.88584 0.3287 0.0
C823 C 0.68402 0.86395 0.32317 0.0
O824 O 0.67792 0.82077 0.34067 0.0
O825 O 0.66392 0.83543 0.35481 0.0
O826 O 0.67662 0.86533 0.336 0.0
O827 O 0.69084 0.85085 0.32189 0.0
H828 H 0.65694 0.82874 0.31834 0.0
H829 H 0.63436 0.81952 0.30466 0.0
H830 H 0.61938 0.79605 0.34521 0.0
H831 H 0.64216 0.80495 0.35859 0.0
H832 H 0.69876 0.8204 0.41094 0.0
H833 H 0.69 0.83333 0.38797 0.0
H834 H 0.74527 0.82576 0.39602 0.0
H835 H 0.73644 0.8392 0.3734 0.0
H836 H 0.71614 0.90518 0.33216 0.0
H837 H 0.69999 0.89798 0.28635 0.0
H838 H 0.68601 0.87535 0.29481 0.0
H839 H 0.70208 0.88252 0.34055 0.0
C840 C 0.64985 0.19069 0.32096 0.0
C841 C 0.64847 0.20627 0.32375 0.0
C842 C 0.62376 0.20644 0.31096 0.0
C843 C 0.63555 0.21407 0.31878 0.0
C844 C 0.62511 0.19077 0.30852 0.0
C845 C 0.63802 0.18301 0.31344 0.0
U846 U 0.68505 0.18359 0.34619 0.0
O847 O 0.69443 0.16203 0.35437 0.0
O848 O 0.70807 0.17677 0.33945 0.0
C849 C 0.70693 0.16357 0.34635 0.0
C850 C 0.6636 0.18226 0.32533 0.0
C851 C 0.71164 0.15027 0.33748 0.0
C852 C 0.70601 0.1267 0.32424 0.0
C853 C 0.70106 0.13961 0.33189 0.0
C854 C 0.73212 0.13516 0.3273 0.0
C855 C 0.72164 0.12422 0.32199 0.0
C856 C 0.72717 0.148 0.33498 0.0
C857 C 0.69394 0.20982 0.37995 0.0
C858 C 0.71099 0.20436 0.40109 0.0
C859 C 0.70193 0.22988 0.39713 0.0
C860 C 0.69367 0.22502 0.38442 0.0
C861 C 0.71064 0.21961 0.40569 0.0
C862 C 0.70276 0.19952 0.3883 0.0
C863 C 0.68469 0.205 0.36678 0.0
O864 O 0.67668 0.18936 0.32336 0.0
O865 O 0.66289 0.1747 0.33821 0.0
O866 O 0.67731 0.19204 0.36822 0.0
O867 O 0.69105 0.20678 0.35342 0.0
H868 H 0.65746 0.21243 0.32958 0.0
H869 H 0.63497 0.22614 0.32078 0.0
H870 H 0.61616 0.18443 0.30283 0.0
H871 H 0.63882 0.17098 0.31125 0.0
H872 H 0.69761 0.11848 0.32043 0.0
H873 H 0.68899 0.14113 0.33362 0.0
H874 H 0.7442 0.13383 0.32553 0.0
H875 H 0.73553 0.15611 0.33913 0.0
H876 H 0.7177 0.19618 0.40732 0.0
H877 H 0.70122 0.24165 0.40044 0.0
H878 H 0.68691 0.23314 0.37815 0.0
H879 H 0.7032 0.18773 0.385 0.0
C880 C 0.3171 0.15134 0.33937 0.0
C881 C 0.32761 0.14351 0.33051 0.0
C882 C 0.30786 0.12539 0.32292 0.0
C883 C 0.32305 0.13061 0.3224 0.0
C884 C 0.29738 0.13339 0.33173 0.0
C885 C 0.30197 0.14621 0.33988 0.0
U886 U 0.34359 0.18522 0.34754 0.0
O887 O 0.33786 0.20845 0.35433 0.0
O888 O 0.35178 0.19426 0.36933 0.0
C889 C 0.34442 0.20705 0.36769 0.0
C890 C 0.32162 0.1648 0.34821 0.0
C891 C 0.33534 0.21184 0.38079 0.0
C892 C 0.31813 0.20631 0.40169 0.0
C893 C 0.32625 0.20152 0.38897 0.0
C894 C 0.32787 0.23183 0.39797 0.0
C895 C 0.31888 0.22153 0.40637 0.0
C896 C 0.33602 0.22702 0.38533 0.0
C897 C 0.3784 0.1922 0.32189 0.0
C898 C 0.39319 0.21558 0.31955 0.0
C899 C 0.40272 0.19232 0.30895 0.0
C900 C 0.38979 0.18455 0.31409 0.0
C901 C 0.40454 0.20798 0.31146 0.0
C902 C 0.38023 0.20776 0.32474 0.0
C903 C 0.36464 0.18374 0.32657 0.0
O904 O 0.33423 0.16366 0.35619 0.0
O905 O 0.32043 0.17786 0.34111 0.0
O906 O 0.35162 0.19065 0.32454 0.0
O907 O 0.36551 0.17649 0.3396 0.0
H908 H 0.33934 0.14736 0.3299 0.0
H909 H 0.33136 0.12482 0.3156 0.0
H910 H 0.28566 0.12959 0.33256 0.0
H911 H 0.2937 0.1521 0.34666 0.0
H912 H 0.31119 0.19812 0.40779 0.0
H913 H 0.32549 0.18975 0.38559 0.0
H914 H 0.32887 0.24358 0.40135 0.0
H915 H 0.34299 0.23515 0.37918 0.0
H916 H 0.39414 0.22764 0.32161 0.0
H917 H 0.41134 0.18602 0.30305 0.0
H918 H 0.38863 0.17253 0.31186 0.0
H919 H 0.37158 0.21388 0.33079 0.0
C920 C 0.33965 0.88083 0.32003 0.0
C921 C 0.32418 0.88257 0.32339 0.0
C922 C 0.32387 0.90672 0.30969 0.0
C923 C 0.31636 0.8954 0.31826 0.0
C924 C 0.33944 0.90496 0.3066 0.0
C925 C 0.34721 0.89216 0.3117 0.0
U926 U 0.34646 0.84628 0.34608 0.0
O927 O 0.35392 0.82338 0.34019 0.0
O928 O 0.3681 0.83754 0.35511 0.0
C929 C 0.36692 0.82483 0.34749 0.0
C930 C 0.34813 0.86728 0.32485 0.0
C931 C 0.38062 0.82014 0.33923 0.0
C932 C 0.39578 0.81876 0.31625 0.0
C933 C 0.38293 0.82396 0.32392 0.0
C934 C 0.40426 0.80613 0.33919 0.0
C935 C 0.40655 0.80965 0.32376 0.0
C936 C 0.39143 0.8113 0.34681 0.0
C937 C 0.31928 0.83781 0.37933 0.0
C938 C 0.32442 0.82181 0.40133 0.0
C939 C 0.29875 0.83004 0.39613 0.0
C940 C 0.30386 0.83784 0.38324 0.0
C941 C 0.30897 0.82204 0.40546 0.0
C942 C 0.32953 0.8296 0.38838 0.0
C943 C 0.32438 0.84675 0.36606 0.0
O944 O 0.35534 0.8683 0.33791 0.0
O945 O 0.34119 0.85415 0.32294 0.0
O946 O 0.32308 0.84007 0.35282 0.0
O947 O 0.33722 0.85436 0.36767 0.0
H948 H 0.31813 0.87397 0.32986 0.0
H949 H 0.30437 0.89629 0.32076 0.0
H950 H 0.3457 0.91355 0.30031 0.0
H951 H 0.35917 0.89107 0.30907 0.0
H952 H 0.39709 0.82161 0.30436 0.0
H953 H 0.37472 0.83081 0.31786 0.0
H954 H 0.41242 0.79942 0.34544 0.0
H955 H 0.3899 0.80829 0.35864 0.0
H956 H 0.33265 0.81589 0.40828 0.0
H957 H 0.28674 0.83024 0.39875 0.0
H958 H 0.29576 0.84403 0.37637 0.0
H959 H 0.34149 0.82939 0.38554 0.0
C960 C 0.68997 0.65001 0.21183 0.0
C961 C 0.70554 0.64839 0.20887 0.0
C962 C 0.70565 0.62415 0.22242 0.0
C963 C 0.71331 0.63559 0.21413 0.0
C964 C 0.68999 0.62579 0.2251 0.0
C965 C 0.68227 0.63858 0.21989 0.0
U966 U 0.6828 0.68404 0.18515 0.0
O967 O 0.66102 0.69256 0.17629 0.0
O968 O 0.67539 0.70707 0.19069 0.0
C969 C 0.66226 0.70541 0.18365 0.0
C970 C 0.68151 0.66354 0.20689 0.0
C971 C 0.64865 0.7101 0.19205 0.0
C972 C 0.63355 0.71115 0.21509 0.0
C973 C 0.64651 0.70628 0.20739 0.0
C974 C 0.62468 0.72353 0.19216 0.0
C975 C 0.62245 0.71984 0.20756 0.0
C976 C 0.63763 0.71872 0.18452 0.0
C977 C 0.70914 0.69129 0.15092 0.0
C978 C 0.71091 0.71441 0.1358 0.0
C979 C 0.72223 0.69133 0.12669 0.0
C980 C 0.71729 0.68368 0.13974 0.0
C981 C 0.71914 0.70681 0.12455 0.0
C982 C 0.70591 0.70671 0.14885 0.0
C983 C 0.70434 0.68286 0.16464 0.0
O984 O 0.68859 0.67666 0.20834 0.0
O985 O 0.67398 0.66228 0.19403 0.0
O986 O 0.69143 0.6753 0.16352 0.0
O987 O 0.70595 0.68994 0.17764 0.0
H988 H 0.71171 0.65707 0.20262 0.0
H989 H 0.72538 0.63479 0.21195 0.0
H990 H 0.68362 0.61712 0.23115 0.0
H991 H 0.67024 0.63957 0.22221 0.0
H992 H 0.63212 0.70796 0.22689 0.0
H993 H 0.65485 0.69955 0.2134 0.0
H994 H 0.61651 0.73037 0.18605 0.0
H995 H 0.63909 0.72182 0.1727 0.0
H996 H 0.7082 0.72628 0.13444 0.0
H997 H 0.72871 0.68516 0.1184 0.0
H998 H 0.71994 0.6718 0.14114 0.0
H999 H 0.69955 0.71278 0.15731 0.0
C1000 C 0.31772 0.69068 0.15208 0.0
C1001 C 0.32182 0.70593 0.14972 0.0
C1002 C 0.30799 0.70609 0.12565 0.0
C1003 C 0.31694 0.71359 0.13664 0.0
C1004 C 0.30405 0.69077 0.12806 0.0
C1005 C 0.30886 0.68316 0.14115 0.0
U1006 U 0.34426 0.68502 0.18621 0.0
O1007 O 0.3388 0.67837 0.20971 0.0
O1008 O 0.35351 0.66407 0.19594 0.0
C1009 C 0.34599 0.66545 0.20869 0.0
C1010 C 0.32248 0.68243 0.16585 0.0
C1011 C 0.33745 0.65191 0.21379 0.0
C1012 C 0.32107 0.63012 0.20865 0.0
C1013 C 0.32868 0.64323 0.20363 0.0
C1014 C 0.33065 0.63443 0.2341 0.0
C1015 C 0.32205 0.62548 0.22395 0.0
C1016 C 0.33828 0.64748 0.22905 0.0
C1017 C 0.37791 0.71243 0.19232 0.0
C1018 C 0.39331 0.71358 0.2153 0.0
C1019 C 0.40144 0.72711 0.19271 0.0
C1020 C 0.38853 0.72183 0.18498 0.0
C1021 C 0.40398 0.72313 0.208 0.0
C1022 C 0.3804 0.70825 0.20751 0.0
C1023 C 0.36439 0.70713 0.18388 0.0
O1024 O 0.33544 0.67526 0.16491 0.0
O1025 O 0.32089 0.68968 0.17872 0.0
O1026 O 0.35128 0.70855 0.19082 0.0
O1027 O 0.36576 0.69407 0.17698 0.0
H1028 H 0.32876 0.71191 0.15799 0.0
H1029 H 0.32031 0.72533 0.13504 0.0
H1030 H 0.29704 0.68471 0.11992 0.0
H1031 H 0.30558 0.6714 0.14279 0.0
H1032 H 0.31469 0.62345 0.20048 0.0
H1033 H 0.32786 0.6465 0.19178 0.0
H1034 H 0.33143 0.6314 0.246 0.0
H1035 H 0.34492 0.6541 0.23708 0.0
H1036 H 0.39481 0.71039 0.22709 0.0
H1037 H 0.40952 0.73419 0.18663 0.0
H1038 H 0.38685 0.72507 0.17322 0.0
H1039 H 0.37234 0.70095 0.21336 0.0
C1040 C 0.31954 0.33801 0.1515 0.0
C1041 C 0.33011 0.33033 0.14255 0.0
C1042 C 0.30983 0.3222 0.12524 0.0
C1043 C 0.3253 0.32252 0.12953 0.0
C1044 C 0.29931 0.32968 0.13447 0.0
C1045 C 0.30413 0.33751 0.14741 0.0
U1046 U 0.34568 0.3463 0.18583 0.0
O1047 O 0.35393 0.36818 0.19463 0.0
O1048 O 0.33941 0.35359 0.20882 0.0
C1049 C 0.34619 0.36685 0.2073 0.0
C1050 C 0.32424 0.34684 0.16493 0.0
C1051 C 0.3372 0.38009 0.2118 0.0
C1052 C 0.32137 0.40177 0.2057 0.0
C1053 C 0.32945 0.38901 0.20108 0.0
C1054 C 0.32844 0.39667 0.23181 0.0
C1055 C 0.32079 0.40577 0.22114 0.0
C1056 C 0.33657 0.38399 0.22717 0.0
C1057 C 0.37964 0.32011 0.19428 0.0
C1058 C 0.40161 0.3255 0.21038 0.0
C1059 C 0.39661 0.29987 0.2019 0.0
C1060 C 0.38368 0.30481 0.19412 0.0
C1061 C 0.40587 0.31016 0.21001 0.0
C1062 C 0.38861 0.33043 0.20259 0.0
C1063 C 0.36626 0.32495 0.18539 0.0
O1064 O 0.32258 0.34002 0.17812 0.0
O1065 O 0.33709 0.35454 0.16384 0.0
O1066 O 0.36763 0.3378 0.17787 0.0
O1067 O 0.35302 0.32328 0.19206 0.0
H1068 H 0.34207 0.33052 0.14552 0.0
H1069 H 0.33374 0.317 0.12266 0.0
H1070 H 0.28729 0.32945 0.13174 0.0
H1071 H 0.29578 0.34327 0.15421 0.0
H1072 H 0.31547 0.40843 0.19721 0.0
H1073 H 0.3297 0.38615 0.18915 0.0
H1074 H 0.32842 0.3995 0.24374 0.0
H1075 H 0.34249 0.37728 0.23562 0.0
H1076 H 0.40851 0.33376 0.21641 0.0
H1077 H 0.39932 0.28795 0.20159 0.0
H1078 H 0.37686 0.29665 0.18785 0.0
H1079 H 0.38567 0.34231 0.2029 0.0
C1080 C 0.65149 0.31769 0.19458 0.0
C1081 C 0.64315 0.32797 0.20324 0.0
C1082 C 0.62516 0.30788 0.21031 0.0
C1083 C 0.63009 0.32311 0.21101 0.0
C1084 C 0.6338 0.29762 0.20185 0.0
C1085 C 0.64679 0.30249 0.19406 0.0
U1086 U 0.68508 0.34475 0.18642 0.0
O1087 O 0.70823 0.33963 0.17881 0.0
O1088 O 0.69336 0.35359 0.16451 0.0
C1089 C 0.70637 0.3465 0.16566 0.0
C1090 C 0.66487 0.32259 0.18573 0.0
C1091 C 0.71103 0.33804 0.15212 0.0
C1092 C 0.71199 0.31493 0.13723 0.0
C1093 C 0.70725 0.32267 0.1502 0.0
C1094 C 0.72417 0.33789 0.12794 0.0
C1095 C 0.72049 0.32247 0.12592 0.0
C1096 C 0.71949 0.34557 0.1409 0.0
C1097 C 0.69218 0.37923 0.21215 0.0
C1098 C 0.71533 0.39461 0.2132 0.0
C1099 C 0.69227 0.40359 0.22485 0.0
C1100 C 0.6846 0.39042 0.22028 0.0
C1101 C 0.70774 0.40586 0.2214 0.0
C1102 C 0.7076 0.38143 0.20856 0.0
C1103 C 0.68377 0.36539 0.20772 0.0
O1104 O 0.66343 0.33527 0.17799 0.0
O1105 O 0.67809 0.32147 0.19264 0.0
O1106 O 0.69103 0.35254 0.20937 0.0
O1107 O 0.67604 0.36624 0.19495 0.0
H1108 H 0.64662 0.33977 0.20382 0.0
H1109 H 0.62368 0.33136 0.2173 0.0
H1110 H 0.63055 0.28576 0.20127 0.0
H1111 H 0.65312 0.29437 0.18752 0.0
H1112 H 0.70884 0.30311 0.13597 0.0
H1113 H 0.70063 0.31667 0.1587 0.0
H1114 H 0.73087 0.344 0.11959 0.0
H1115 H 0.72255 0.35742 0.14218 0.0
H1116 H 0.72719 0.39607 0.21023 0.0
H1117 H 0.68613 0.4119 0.23132 0.0
H1118 H 0.67272 0.38892 0.22319 0.0
H1119 H 0.71365 0.37296 0.2022 0.0
C1120 C 0.65188 0.31704 0.84048 0.0
C1121 C 0.6496 0.32123 0.82525 0.0
C1122 C 0.62595 0.3065 0.82448 0.0
C1123 C 0.63676 0.31598 0.81731 0.0
C1124 C 0.62827 0.3025 0.8398 0.0
C1125 C 0.64112 0.30771 0.84769 0.0
U1126 U 0.68556 0.34429 0.84686 0.0
O1127 O 0.69414 0.35418 0.86819 0.0
O1128 O 0.70882 0.33961 0.85467 0.0
C1129 C 0.7071 0.34698 0.86746 0.0
C1130 C 0.66531 0.3223 0.84907 0.0
C1131 C 0.7117 0.33886 0.88136 0.0
C1132 C 0.71278 0.31598 0.89682 0.0
C1133 C 0.708 0.3235 0.88363 0.0
C1134 C 0.72476 0.33915 0.90571 0.0
C1135 C 0.72123 0.32373 0.90801 0.0
C1136 C 0.72006 0.34663 0.8925 0.0
C1137 C 0.69306 0.37719 0.81936 0.0
C1138 C 0.70953 0.39878 0.82494 0.0
C1139 C 0.70078 0.39448 0.7992 0.0
C1140 C 0.69278 0.38156 0.80405 0.0
C1141 C 0.70918 0.4033 0.8096 0.0
C1142 C 0.7016 0.3858 0.82977 0.0
C1143 C 0.68426 0.36374 0.82425 0.0
O1144 O 0.6785 0.32076 0.84233 0.0
O1145 O 0.66391 0.3354 0.85588 0.0
O1146 O 0.67651 0.36521 0.83685 0.0
O1147 O 0.69136 0.35076 0.82339 0.0
H1148 H 0.65778 0.32849 0.8195 0.0
H1149 H 0.63542 0.31917 0.8055 0.0
H1150 H 0.62007 0.29548 0.84578 0.0
H1151 H 0.64263 0.30446 0.85947 0.0
H1152 H 0.70973 0.30414 0.89833 0.0
H1153 H 0.70145 0.31733 0.87519 0.0
H1154 H 0.7314 0.34541 0.91401 0.0
H1155 H 0.72303 0.35848 0.89093 0.0
H1156 H 0.71604 0.40523 0.8332 0.0
H1157 H 0.70014 0.39773 0.78735 0.0
H1158 H 0.68625 0.37505 0.79586 0.0
H1159 H 0.70206 0.38253 0.84163 0.0
C1160 C 0.65121 0.69262 0.81989 0.0
C1161 C 0.64084 0.69839 0.8304 0.0
C1162 C 0.62524 0.70856 0.80979 0.0
C1163 C 0.62797 0.70625 0.8254 0.0
C1164 C 0.6359 0.70307 0.79937 0.0
C1165 C 0.64869 0.69516 0.80437 0.0
U1166 U 0.68516 0.68383 0.84624 0.0
O1167 O 0.69293 0.66183 0.85513 0.0
O1168 O 0.70789 0.67554 0.84052 0.0
C1169 C 0.70577 0.66253 0.84759 0.0
C1170 C 0.66437 0.68345 0.8247 0.0
C1171 C 0.70984 0.64877 0.83916 0.0
C1172 C 0.71172 0.63441 0.81574 0.0
C1173 C 0.70725 0.64746 0.82347 0.0
C1174 C 0.72114 0.62376 0.83931 0.0
C1175 C 0.71874 0.6224 0.82357 0.0
C1176 C 0.71675 0.6368 0.84699 0.0
C1177 C 0.69403 0.71046 0.87985 0.0
C1178 C 0.71008 0.70503 0.90176 0.0
C1179 C 0.70159 0.73063 0.89707 0.0
C1180 C 0.69384 0.72573 0.88407 0.0
C1181 C 0.70969 0.72033 0.9062 0.0
C1182 C 0.70232 0.70013 0.88869 0.0
C1183 C 0.68519 0.70566 0.86641 0.0
O1184 O 0.67784 0.68983 0.82301 0.0
O1185 O 0.66299 0.67593 0.83756 0.0
O1186 O 0.67714 0.69309 0.86784 0.0
O1187 O 0.69219 0.70678 0.85331 0.0
H1188 H 0.64253 0.69663 0.84246 0.0
H1189 H 0.61998 0.71017 0.83376 0.0
H1190 H 0.63437 0.70487 0.78729 0.0
H1191 H 0.65657 0.69088 0.79606 0.0
H1192 H 0.70956 0.63367 0.80366 0.0
H1193 H 0.70185 0.65653 0.8172 0.0
H1194 H 0.72669 0.61485 0.84568 0.0
H1195 H 0.71888 0.6376 0.85908 0.0
H1196 H 0.7161 0.69676 0.90856 0.0
H1197 H 0.70126 0.74253 0.89993 0.0
H1198 H 0.68758 0.7339 0.87734 0.0
H1199 H 0.70265 0.68828 0.8856 0.0
C1200 C 0.31667 0.65157 0.83991 0.0
C1201 C 0.3272 0.64366 0.83114 0.0
C1202 C 0.30737 0.62571 0.82337 0.0
C1203 C 0.3226 0.6308 0.82299 0.0
C1204 C 0.29687 0.6338 0.83207 0.0
C1205 C 0.3015 0.64658 0.84026 0.0
U1206 U 0.34329 0.68531 0.8482 0.0
O1207 O 0.33767 0.70853 0.8551 0.0
O1208 O 0.35155 0.6942 0.87001 0.0
C1209 C 0.34423 0.70702 0.86845 0.0
C1210 C 0.32123 0.66497 0.84881 0.0
C1211 C 0.33517 0.71176 0.88158 0.0
C1212 C 0.31786 0.70614 0.90238 0.0
C1213 C 0.32599 0.70141 0.88965 0.0
C1214 C 0.32776 0.73164 0.89892 0.0
C1215 C 0.31868 0.72132 0.90719 0.0
C1216 C 0.33592 0.72689 0.88626 0.0
C1217 C 0.37809 0.69224 0.82254 0.0
C1218 C 0.39292 0.71559 0.82015 0.0
C1219 C 0.40245 0.69228 0.80967 0.0
C1220 C 0.38949 0.68455 0.81479 0.0
C1221 C 0.40428 0.70794 0.81212 0.0
C1222 C 0.37994 0.70781 0.82533 0.0
C1223 C 0.3643 0.68382 0.82719 0.0
O1224 O 0.33384 0.66375 0.85678 0.0
O1225 O 0.32009 0.67807 0.84176 0.0
O1226 O 0.35131 0.6908 0.82521 0.0
O1227 O 0.36516 0.6765 0.84019 0.0
H1228 H 0.33896 0.6474 0.83063 0.0
H1229 H 0.33093 0.62493 0.81627 0.0
H1230 H 0.28511 0.63009 0.83278 0.0
H1231 H 0.29321 0.65254 0.84697 0.0
H1232 H 0.31085 0.69794 0.90839 0.0
H1233 H 0.32517 0.68968 0.88616 0.0
H1234 H 0.32882 0.74335 0.9024 0.0
H1235 H 0.34296 0.73503 0.8802 0.0
H1236 H 0.39388 0.72766 0.82216 0.0
H1237 H 0.41108 0.68594 0.80382 0.0
H1238 H 0.38832 0.67252 0.81261 0.0
H1239 H 0.37128 0.71396 0.83133 0.0
C1240 C 0.33624 0.38018 0.82082 0.0
C1241 C 0.33532 0.39285 0.83037 0.0
C1242 C 0.32049 0.40644 0.81129 0.0
C1243 C 0.32755 0.40583 0.82565 0.0
C1244 C 0.3212 0.39366 0.80188 0.0
C1245 C 0.32904 0.38073 0.80656 0.0
U1246 U 0.34532 0.3451 0.84563 0.0
O1247 O 0.35305 0.32256 0.83855 0.0
O1248 O 0.36737 0.33652 0.85354 0.0
C1249 C 0.36636 0.3242 0.84525 0.0
C1250 C 0.34536 0.36673 0.82499 0.0
C1251 C 0.37987 0.32016 0.83616 0.0
C1252 C 0.406 0.3248 0.82807 0.0
C1253 C 0.39297 0.32946 0.83576 0.0
C1254 C 0.39301 0.30164 0.82074 0.0
C1255 C 0.40623 0.31077 0.82058 0.0
C1256 C 0.38003 0.30626 0.8285 0.0
C1257 C 0.31933 0.33518 0.87961 0.0
C1258 C 0.32518 0.31902 0.9013 0.0
C1259 C 0.29919 0.32649 0.89645 0.0
C1260 C 0.30395 0.33467 0.88367 0.0
C1261 C 0.30975 0.31863 0.90551 0.0
C1262 C 0.32993 0.32719 0.88844 0.0
C1263 C 0.32397 0.34449 0.86642 0.0
O1264 O 0.35333 0.36745 0.83765 0.0
O1265 O 0.33879 0.35344 0.82292 0.0
O1266 O 0.32236 0.33812 0.85305 0.0
O1267 O 0.33675 0.35226 0.86783 0.0
H1268 H 0.34075 0.39284 0.84143 0.0
H1269 H 0.32708 0.41541 0.83325 0.0
H1270 H 0.31606 0.39381 0.79069 0.0
H1271 H 0.32969 0.37122 0.79889 0.0
H1272 H 0.41592 0.33218 0.82802 0.0
H1273 H 0.39328 0.34025 0.84154 0.0
H1274 H 0.39284 0.29069 0.81526 0.0
H1275 H 0.37017 0.29878 0.82875 0.0
H1276 H 0.33358 0.31296 0.90791 0.0
H1277 H 0.28727 0.32662 0.89944 0.0
H1278 H 0.2956 0.3408 0.87703 0.0
H1279 H 0.34187 0.32736 0.88546 0.0
H1280 H 0.22914 0.25862 0.99479 0.0
H1281 H 0.21715 0.24886 0.97171 0.0
H1282 H 0.26104 0.23501 0.95536 0.0
H1283 H 0.27294 0.24449 0.97871 0.0
H1284 H 0.24477 0.2445 0.01687 0.0
H1285 H 0.25499 0.28397 0.98012 0.0
H1286 H 0.26461 0.29517 0.9566 0.0
H1287 H 0.31004 0.28112 0.96863 0.0
H1288 H 0.30031 0.27005 0.99222 0.0
H1289 H 0.30107 0.27201 0.03996 0.0
H1290 H 0.31066 0.28462 0.06286 0.0
H1291 H 0.26466 0.29579 0.07513 0.0
H1292 H 0.25522 0.28354 0.0521 0.0
H1293 H 0.28605 0.28325 0.01593 0.0
H1294 H 0.27645 0.24493 0.05305 0.0
H1295 H 0.2672 0.23345 0.0766 0.0
H1296 H 0.22111 0.24426 0.06369 0.0
H1297 H 0.2305 0.2561 0.04031 0.0
C1298 C 0.25196 0.25242 0.98847 0.0
C1299 C 0.23619 0.25343 0.98627 0.0
C1300 C 0.22936 0.24796 0.97299 0.0
C1301 C 0.23814 0.24123 0.96161 0.0
C1302 C 0.25393 0.24004 0.96392 0.0
C1303 C 0.26077 0.24557 0.97721 0.0
C1304 C 0.25907 0.25846 1.00261 0.0
C1305 C 0.25368 0.2531 0.01667 0.0
C1306 C 0.27107 0.26933 1.00233 0.0
C1307 C 0.27689 0.27599 0.98789 0.0
C1308 C 0.267 0.28316 0.97763 0.0
C1309 C 0.27253 0.28954 0.96414 0.0
C1310 C 0.28811 0.28901 0.96064 0.0
C1311 C 0.298 0.2819 0.971 0.0
C1312 C 0.29245 0.2755 0.98449 0.0
C1313 C 0.27741 0.27669 0.04434 0.0
C1314 C 0.29306 0.27718 0.04759 0.0
C1315 C 0.29852 0.28429 0.06075 0.0
C1316 C 0.28843 0.29123 0.07085 0.0
C1317 C 0.27276 0.29071 0.06754 0.0
C1318 C 0.26733 0.28356 0.05444 0.0
C1319 C 0.27158 0.26945 0.0302 0.0
C1320 C 0.27721 0.27457 0.01613 0.0
C1321 C 0.25985 0.25832 0.03047 0.0
C1322 C 0.2542 0.25151 0.04492 0.0
C1323 C 0.26437 0.24499 0.05535 0.0
C1324 C 0.25904 0.23829 0.06876 0.0
C1325 C 0.2434 0.2379 0.07205 0.0
C1326 C 0.23324 0.2445 0.06162 0.0
C1327 C 0.23858 0.25117 0.04818 0.0
H1328 H 0.76991 0.23063 0.99345 0.0
H1329 H 0.78132 0.22056 0.97038 0.0
H1330 H 0.79687 0.26556 0.95811 0.0
H1331 H 0.78567 0.27552 0.98125 0.0
H1332 H 0.78188 0.24356 0.01722 0.0
H1333 H 0.74512 0.25921 0.97996 0.0
H1334 H 0.73531 0.27122 0.95688 0.0
H1335 H 0.75344 0.31435 0.9719 0.0
H1336 H 0.763 0.30231 0.99501 0.0
H1337 H 0.76333 0.30128 0.04031 0.0
H1338 H 0.75359 0.31298 0.06325 0.0
H1339 H 0.73416 0.26995 0.0772 0.0
H1340 H 0.74408 0.25826 0.05421 0.0
H1341 H 0.74833 0.28829 0.0174 0.0
H1342 H 0.78568 0.27208 0.05446 0.0
H1343 H 0.79526 0.25977 0.07748 0.0
H1344 H 0.77534 0.2173 0.06276 0.0
H1345 H 0.76601 0.22964 0.03972 0.0
C1346 C 0.77672 0.25389 0.98904 0.0
C1347 C 0.77578 0.23834 0.9858 0.0
C1348 C 0.78233 0.23259 0.97262 0.0
C1349 C 0.78995 0.24227 0.96237 0.0
C1350 C 0.79086 0.25783 0.96562 0.0
C1351 C 0.78442 0.26355 0.97886 0.0
C1352 C 0.77017 0.25992 1.00333 0.0
C1353 C 0.77434 0.25319 0.01722 0.0
C1354 C 0.76054 0.27268 1.00342 0.0
C1355 C 0.75487 0.27984 0.98919 0.0
C1356 C 0.74707 0.27124 0.97821 0.0
C1357 C 0.74149 0.27812 0.965 0.0
C1358 C 0.74354 0.29378 0.96251 0.0
C1359 C 0.75141 0.30233 0.97353 0.0
C1360 C 0.75695 0.29545 0.98674 0.0
C1361 C 0.75454 0.27886 0.04554 0.0
C1362 C 0.75698 0.29435 0.04831 0.0
C1363 C 0.75133 0.30105 0.06142 0.0
C1364 C 0.743 0.29244 0.07207 0.0
C1365 C 0.74067 0.27688 0.06934 0.0
C1366 C 0.74633 0.27018 0.05619 0.0
C1367 C 0.76018 0.27204 0.03126 0.0
C1368 C 0.75582 0.27861 0.01736 0.0
C1369 C 0.76955 0.2591 0.03118 0.0
C1370 C 0.77503 0.25181 0.0454 0.0
C1371 C 0.78327 0.26015 0.05627 0.0
C1372 C 0.78873 0.25309 0.06945 0.0
C1373 C 0.78611 0.23751 0.07199 0.0
C1374 C 0.77779 0.22924 0.06108 0.0
C1375 C 0.77237 0.23629 0.04792 0.0
H1376 H 0.76801 0.8004 0.03901 0.0
H1377 H 0.77729 0.81229 0.06228 0.0
H1378 H 0.79506 0.76934 0.07746 0.0
H1379 H 0.78604 0.75756 0.0539 0.0
H1380 H 0.78334 0.78719 0.01671 0.0
H1381 H 0.74507 0.77159 0.05297 0.0
H1382 H 0.73469 0.75957 0.07582 0.0
H1383 H 0.75268 0.71662 0.06159 0.0
H1384 H 0.7629 0.72869 0.03875 0.0
H1385 H 0.76063 0.72997 0.9915 0.0
H1386 H 0.7485 0.7203 0.96836 0.0
H1387 H 0.73349 0.76548 0.95728 0.0
H1388 H 0.74518 0.77494 0.9806 0.0
H1389 H 0.74834 0.74276 0.01576 0.0
H1390 H 0.78532 0.75805 0.97874 0.0
H1391 H 0.79552 0.77003 0.95579 0.0
H1392 H 0.78006 0.8135 0.9714 0.0
H1393 H 0.77002 0.80149 0.99432 0.0
C1394 C 0.7762 0.77805 0.04472 0.0
C1395 C 0.77391 0.79353 0.04734 0.0
C1396 C 0.77913 0.80029 0.06072 0.0
C1397 C 0.78686 0.79176 0.0718 0.0
C1398 C 0.78924 0.77626 0.06913 0.0
C1399 C 0.78396 0.76948 0.05572 0.0
C1400 C 0.77073 0.77109 0.03031 0.0
C1401 C 0.77556 0.77756 0.0165 0.0
C1402 C 0.76094 0.75823 0.03004 0.0
C1403 C 0.75491 0.75108 0.04418 0.0
C1404 C 0.74691 0.75961 0.05485 0.0
C1405 C 0.74098 0.75271 0.06793 0.0
C1406 C 0.74281 0.73709 0.07058 0.0
C1407 C 0.75084 0.72861 0.05985 0.0
C1408 C 0.75676 0.73551 0.04679 0.0
C1409 C 0.75396 0.75322 0.98776 0.0
C1410 C 0.75474 0.73778 0.98407 0.0
C1411 C 0.74789 0.73229 0.97077 0.0
C1412 C 0.73999 0.7421 0.96094 0.0
C1413 C 0.73931 0.75756 0.96466 0.0
C1414 C 0.74616 0.76304 0.97792 0.0
C1415 C 0.76077 0.759 1.00216 0.0
C1416 C 0.75621 0.75231 0.01596 0.0
C1417 C 0.77083 0.77167 1.00243 0.0
C1418 C 0.7768 0.77884 0.98827 0.0
C1419 C 0.78401 0.77015 0.97716 0.0
C1420 C 0.78984 0.77702 0.96401 0.0
C1421 C 0.78867 0.79276 0.96172 0.0
C1422 C 0.78141 0.8014 0.97287 0.0
C1423 C 0.7756 0.79453 0.98598 0.0
H1424 H 0.26795 0.73061 0.99213 0.0
H1425 H 0.27898 0.721 0.96867 0.0
H1426 H 0.29699 0.76569 0.95863 0.0
H1427 H 0.28586 0.77519 0.98196 0.0
H1428 H 0.28095 0.74293 0.01678 0.0
H1429 H 0.24433 0.75901 0.97976 0.0
H1430 H 0.2347 0.7711 0.95666 0.0
H1431 H 0.25304 0.81411 0.9718 0.0
H1432 H 0.26242 0.80198 0.99494 0.0
H1433 H 0.26299 0.80071 0.0402 0.0
H1434 H 0.25344 0.81246 0.06319 0.0
H1435 H 0.23377 0.76954 0.07717 0.0
H1436 H 0.24351 0.75781 0.05413 0.0
H1437 H 0.24776 0.78793 0.01736 0.0
H1438 H 0.28518 0.77137 0.05408 0.0
H1439 H 0.29488 0.759 0.07701 0.0
H1440 H 0.27469 0.71662 0.06239 0.0
H1441 H 0.26523 0.72903 0.03943 0.0
C1442 C 0.27589 0.75366 0.98874 0.0
C1443 C 0.27427 0.73832 0.98485 0.0
C1444 C 0.28062 0.73284 0.97145 0.0
C1445 C 0.28883 0.74257 0.96168 0.0
C1446 C 0.2905 0.75792 0.96569 0.0
C1447 C 0.28415 0.76338 0.97907 0.0
C1448 C 0.26933 0.75949 1.00308 0.0
C1449 C 0.27348 0.75262 0.0169 0.0
C1450 C 0.2598 0.77231 1.00326 0.0
C1451 C 0.25418 0.77957 0.98906 0.0
C1452 C 0.24636 0.77103 0.97804 0.0
C1453 C 0.24089 0.77796 0.96481 0.0
C1454 C 0.24306 0.7936 0.96234 0.0
C1455 C 0.25093 0.8021 0.97341 0.0
C1456 C 0.25636 0.79517 0.98664 0.0
C1457 C 0.25406 0.77835 0.04543 0.0
C1458 C 0.25663 0.79381 0.04821 0.0
C1459 C 0.25109 0.80054 0.06135 0.0
C1460 C 0.24274 0.79198 0.07203 0.0
C1461 C 0.24029 0.77644 0.0693 0.0
C1462 C 0.24585 0.76971 0.05611 0.0
C1463 C 0.25955 0.77152 0.03109 0.0
C1464 C 0.25516 0.77819 0.01725 0.0
C1465 C 0.26882 0.7585 0.03091 0.0
C1466 C 0.27437 0.75116 0.04508 0.0
C1467 C 0.28273 0.75945 0.05589 0.0
C1468 C 0.28826 0.75235 0.06902 0.0
C1469 C 0.2856 0.73679 0.07157 0.0
C1470 C 0.27717 0.72855 0.06071 0.0
C1471 C 0.27168 0.73565 0.04759 0.0
H1472 H 0.03788 0.26352 0.23018 0.0
H1473 H 0.06065 0.25361 0.21823 0.0
H1474 H 0.07439 0.23377 0.26102 0.0
H1475 H 0.0516 0.24384 0.27294 0.0
H1476 H 0.01463 0.24895 0.24309 0.0
H1477 H 0.05224 0.28561 0.25961 0.0
H1478 H 0.07595 0.29441 0.27151 0.0
H1479 H 0.06171 0.2744 0.31405 0.0
H1480 H 0.03821 0.26537 0.30201 0.0
H1481 H 0.99237 0.26753 0.30217 0.0
H1482 H 0.96935 0.27722 0.31381 0.0
H1483 H 0.9546 0.2944 0.27019 0.0
H1484 H 0.97802 0.28532 0.25879 0.0
H1485 H 0.01541 0.28104 0.28907 0.0
H1486 H 0.97785 0.24435 0.27269 0.0
H1487 H 0.95457 0.23467 0.26068 0.0
H1488 H 0.96858 0.25472 0.21806 0.0
H1489 H 0.99186 0.26418 0.2301 0.0
C1490 C 0.04304 0.25456 0.2525 0.0
C1491 C 0.0458 0.25705 0.237 0.0
C1492 C 0.05881 0.2513 0.23016 0.0
C1493 C 0.06937 0.24282 0.23863 0.0
C1494 C 0.06663 0.24041 0.25419 0.0
C1495 C 0.05358 0.24616 0.26103 0.0
C1496 C 0.02887 0.26029 0.25953 0.0
C1497 C 0.01481 0.25614 0.25303 0.0
C1498 C 0.02907 0.26935 0.27274 0.0
C1499 C 0.04351 0.27469 0.27988 0.0
C1500 C 0.05429 0.28301 0.27146 0.0
C1501 C 0.06778 0.28814 0.27831 0.0
C1502 C 0.07075 0.28507 0.29372 0.0
C1503 C 0.05988 0.27678 0.30211 0.0
C1504 C 0.04639 0.27171 0.29528 0.0
C1505 C 0.98691 0.2755 0.27954 0.0
C1506 C 0.98422 0.27344 0.29511 0.0
C1507 C 0.97094 0.27887 0.30173 0.0
C1508 C 0.96 0.28653 0.29295 0.0
C1509 C 0.96279 0.28869 0.27736 0.0
C1510 C 0.97612 0.28332 0.27077 0.0
C1511 C 1.00114 0.26973 0.2726 0.0
C1512 C 0.01522 0.27385 0.27913 0.0
C1513 C 1.00096 0.26061 0.25942 0.0
C1514 C 0.98657 0.25508 0.25232 0.0
C1515 C 0.97583 0.24677 0.26079 0.0
C1516 C 0.96251 0.24126 0.25391 0.0
C1517 C 0.9597 0.24387 0.23838 0.0
C1518 C 0.97047 0.25226 0.22997 0.0
C1519 C 0.98377 0.25775 0.23685 0.0
H1520 H 0.7709 0.03975 0.23189 0.0
H1521 H 0.78224 0.06349 0.22269 0.0
H1522 H 0.7978 0.07359 0.26817 0.0
H1523 H 0.7862 0.04999 0.27728 0.0
H1524 H 0.78432 0.01536 0.24583 0.0
H1525 H 0.74678 0.05282 0.25846 0.0
H1526 H 0.73773 0.07608 0.27013 0.0
H1527 H 0.74943 0.05827 0.3144 0.0
H1528 H 0.75905 0.03537 0.30261 0.0
H1529 H 0.75823 0.98994 0.3007 0.0
H1530 H 0.74691 0.9662 0.30988 0.0
H1531 H 0.73317 0.95513 0.26405 0.0
H1532 H 0.74477 0.97873 0.25497 0.0
H1533 H 0.74567 0.01389 0.28661 0.0
H1534 H 0.78444 0.97854 0.27603 0.0
H1535 H 0.7959 0.95552 0.26637 0.0
H1536 H 0.78344 0.96863 0.22068 0.0
H1537 H 0.77212 0.99179 0.23047 0.0
C1538 C 0.77757 0.04316 0.25529 0.0
C1539 C 0.77675 0.0471 0.23986 0.0
C1540 C 0.7833 0.06066 0.23462 0.0
C1541 C 0.79093 0.07051 0.24468 0.0
C1542 C 0.79179 0.06645 0.26013 0.0
C1543 C 0.78521 0.05291 0.26536 0.0
C1544 C 0.77064 0.02872 0.2608 0.0
C1545 C 0.77568 0.01504 0.25457 0.0
C1546 C 0.75976 0.02833 0.2726 0.0
C1547 C 0.75382 0.04238 0.27962 0.0
C1548 C 0.74754 0.05399 0.27067 0.0
C1549 C 0.7422 0.06724 0.27738 0.0
C1550 C 0.74289 0.06913 0.29323 0.0
C1551 C 0.74895 0.05736 0.30216 0.0
C1552 C 0.75433 0.04416 0.29544 0.0
C1553 C 0.75246 0.98608 0.27713 0.0
C1554 C 0.75278 0.98238 0.29264 0.0
C1555 C 0.74624 0.96882 0.29788 0.0
C1556 C 0.73912 0.9587 0.28772 0.0
C1557 C 0.73879 0.96248 0.27218 0.0
C1558 C 0.74537 0.97602 0.26696 0.0
C1559 C 0.75931 1.00055 0.27161 0.0
C1560 C 0.75425 0.01422 0.27782 0.0
C1561 C 0.77037 1.00094 0.25999 0.0
C1562 C 0.77724 0.98685 0.25401 0.0
C1563 C 0.78403 0.9764 0.26394 0.0
C1564 C 0.79057 0.96319 0.25838 0.0
C1565 C 0.79054 0.96011 0.24273 0.0
C1566 C 0.78382 0.97067 0.23278 0.0
C1567 C 0.77729 0.98391 0.23836 0.0
H1568 H 0.03615 0.72845 0.27096 0.0
H1569 H 0.05927 0.71635 0.28023 0.0
H1570 H 0.0766 0.75978 0.2952 0.0
H1571 H 0.05323 0.7718 0.28617 0.0
H1572 H 0.01457 0.74317 0.28535 0.0
H1573 H 0.0496 0.7543 0.24581 0.0
H1574 H 0.07299 0.76345 0.2339 0.0
H1575 H 0.06358 0.8088 0.24912 0.0
H1576 H 0.04032 0.79946 0.2614 0.0
H1577 H 0.99102 0.80004 0.26133 0.0
H1578 H 0.96803 0.8099 0.24913 0.0
H1579 H 0.95603 0.76469 0.23443 0.0
H1580 H 0.97917 0.75503 0.24622 0.0
H1581 H 0.0152 0.78598 0.24866 0.0
H1582 H 0.97726 0.77255 0.28651 0.0
H1583 H 0.95358 0.76094 0.29578 0.0
H1584 H 0.9687 0.71725 0.28047 0.0
H1585 H 0.99211 0.72893 0.27098 0.0
C1586 C 0.04296 0.75106 0.27777 0.0
C1587 C 0.0449 0.73537 0.27628 0.0
C1588 C 0.05819 0.72848 0.28147 0.0
C1589 C 0.06984 0.7371 0.28839 0.0
C1590 C 0.06782 0.7528 0.29002 0.0
C1591 C 0.05452 0.75971 0.28474 0.0
C1592 C 0.02874 0.75824 0.27213 0.0
C1593 C 0.0147 0.75248 0.27725 0.0
C1594 C 0.02892 0.77053 0.26172 0.0
C1595 C 0.04327 0.77615 0.25467 0.0
C1596 C 0.05265 0.76619 0.24675 0.0
C1597 C 0.06595 0.77147 0.2398 0.0
C1598 C 0.07016 0.78688 0.24052 0.0
C1599 C 0.06077 0.79685 0.24849 0.0
C1600 C 0.04742 0.79154 0.25542 0.0
C1601 C 0.98678 0.77677 0.25485 0.0
C1602 C 0.98342 0.79227 0.25549 0.0
C1603 C 0.97021 0.79787 0.2486 0.0
C1604 C 0.96016 0.78809 0.24078 0.0
C1605 C 0.96357 0.77257 0.2402 0.0
C1606 C 0.97674 0.767 0.24709 0.0
C1607 C 1.001 0.77083 0.2618 0.0
C1608 C 0.01506 0.77684 0.25694 0.0
C1609 C 1.00084 0.75853 0.27221 0.0
C1610 C 0.98644 0.75164 0.27794 0.0
C1611 C 0.97541 0.76049 0.28506 0.0
C1612 C 0.96194 0.75382 0.29046 0.0
C1613 C 0.95922 0.73817 0.28881 0.0
C1614 C 0.97032 0.72936 0.28174 0.0
C1615 C 0.98378 0.73601 0.27641 0.0
H1616 H 0.22791 0.03655 0.26365 0.0
H1617 H 0.21577 0.05955 0.25422 0.0
H1618 H 0.25925 0.07631 0.23836 0.0
H1619 H 0.27127 0.05308 0.24749 0.0
H1620 H 0.24226 0.01473 0.24939 0.0
H1621 H 0.25456 0.04967 0.2883 0.0
H1622 H 0.26386 0.07303 0.29993 0.0
H1623 H 0.30892 0.06425 0.28301 0.0
H1624 H 0.29951 0.04074 0.2715 0.0
H1625 H 0.30121 0.99349 0.26847 0.0
H1626 H 0.31351 0.97053 0.2778 0.0
H1627 H 0.27057 0.95446 0.29566 0.0
H1628 H 0.25841 0.97765 0.28663 0.0
H1629 H 0.28702 0.01564 0.28384 0.0
H1630 H 0.2724 0.97854 0.24557 0.0
H1631 H 0.26067 0.95539 0.23545 0.0
H1632 H 0.21751 0.96847 0.25421 0.0
H1633 H 0.22925 0.99157 0.26414 0.0
C1634 C 0.25054 0.04309 0.2564 0.0
C1635 C 0.23483 0.04515 0.25811 0.0
C1636 C 0.22793 0.05838 0.25282 0.0
C1637 C 0.23654 0.06983 0.24559 0.0
C1638 C 0.25225 0.06769 0.24377 0.0
C1639 C 0.25917 0.05446 0.24912 0.0
C1640 C 0.2578 0.02894 0.26201 0.0
C1641 C 0.25195 0.01492 0.25706 0.0
C1642 C 0.27054 0.02919 0.27192 0.0
C1643 C 0.27628 0.04351 0.27885 0.0
C1644 C 0.26641 0.05284 0.28695 0.0
C1645 C 0.27176 0.06624 0.29358 0.0
C1646 C 0.28715 0.07062 0.29235 0.0
C1647 C 0.29704 0.06118 0.28432 0.0
C1648 C 0.29167 0.04775 0.27768 0.0
C1649 C 0.27884 0.98726 0.27669 0.0
C1650 C 0.29444 0.98503 0.27441 0.0
C1651 C 0.30144 0.97183 0.27966 0.0
C1652 C 0.29303 0.96058 0.28742 0.0
C1653 C 0.27742 0.96291 0.28982 0.0
C1654 C 0.27041 0.97612 0.28453 0.0
C1655 C 0.27153 1.0014 0.27114 0.0
C1656 C 0.27738 0.01544 0.27611 0.0
C1657 C 0.25857 1.00115 0.2615 0.0
C1658 C 0.25173 0.98679 0.2557 0.0
C1659 C 0.26044 0.97634 0.24762 0.0
C1660 C 0.25372 0.96309 0.24184 0.0
C1661 C 0.23811 0.96007 0.24394 0.0
C1662 C 0.22948 0.97053 0.25213 0.0
C1663 C 0.2362 0.98373 0.25789 0.0
H1664 H 0.03802 0.76571 0.80217 0.0
H1665 H 0.06125 0.77505 0.8144 0.0
H1666 H 0.07556 0.79531 0.77198 0.0
H1667 H 0.05235 0.78576 0.75978 0.0
H1668 H 0.01529 0.78101 0.78905 0.0
H1669 H 0.05201 0.74423 0.77305 0.0
H1670 H 0.0749 0.73437 0.76114 0.0
H1671 H 0.06092 0.75395 0.7183 0.0
H1672 H 0.03806 0.76366 0.73025 0.0
H1673 H 0.99212 0.76378 0.73003 0.0
H1674 H 0.96896 0.75406 0.71796 0.0
H1675 H 0.95503 0.73401 0.76061 0.0
H1676 H 0.97818 0.74394 0.77265 0.0
H1677 H 0.015 0.74887 0.74312 0.0
H1678 H 0.97794 0.78486 0.75867 0.0
H1679 H 0.95447 0.79385 0.77005 0.0
H1680 H 0.96933 0.77691 0.81372 0.0
H1681 H 0.9924 0.76731 0.80211 0.0
C1682 C 0.04347 0.77492 0.78003 0.0
C1683 C 0.04617 0.77216 0.7955 0.0
C1684 C 0.05944 0.77758 0.8025 0.0
C1685 C 0.07029 0.78599 0.7942 0.0
C1686 C 0.06757 0.78871 0.77867 0.0
C1687 C 0.05428 0.78326 0.77167 0.0
C1688 C 0.02913 0.76943 0.7728 0.0
C1689 C 0.01521 0.77381 0.77912 0.0
C1690 C 0.02907 0.76038 0.75959 0.0
C1691 C 0.04332 0.7548 0.75258 0.0
C1692 C 0.05396 0.74655 0.76113 0.0
C1693 C 0.06707 0.74091 0.7543 0.0
C1694 C 0.06977 0.7433 0.73873 0.0
C1695 C 0.05912 0.75165 0.73025 0.0
C1696 C 0.04605 0.75729 0.73708 0.0
C1697 C 0.98685 0.7547 0.75227 0.0
C1698 C 0.98407 0.7573 0.73678 0.0
C1699 C 0.97084 0.75166 0.72988 0.0
C1700 C 0.96013 0.74319 0.73829 0.0
C1701 C 0.96292 0.74064 0.75383 0.0
C1702 C 0.97617 0.7463 0.76073 0.0
C1703 C 1.00116 0.7604 0.75939 0.0
C1704 C 0.01508 0.75608 0.75305 0.0
C1705 C 1.0012 0.76954 0.77256 0.0
C1706 C 0.9869 0.77517 0.77946 0.0
C1707 C 0.97605 0.78288 0.77066 0.0
C1708 C 0.96269 0.78821 0.77724 0.0
C1709 C 0.95992 0.7861 0.79283 0.0
C1710 C 0.9709 0.77852 0.80164 0.0
C1711 C 0.98421 0.77314 0.79504 0.0
H1712 H 0.27295 0.03858 0.73167 0.0
H1713 H 0.28526 0.06178 0.72244 0.0
H1714 H 0.29568 0.07454 0.76866 0.0
H1715 H 0.2841 0.05095 0.77772 0.0
H1716 H 0.28464 0.01527 0.74619 0.0
H1717 H 0.24589 0.05213 0.75825 0.0
H1718 H 0.23533 0.07476 0.76996 0.0
H1719 H 0.24832 0.05774 0.81419 0.0
H1720 H 0.25867 0.03516 0.80244 0.0
H1721 H 0.25815 0.98984 0.80073 0.0
H1722 H 0.24693 0.9661 0.81001 0.0
H1723 H 0.23392 0.95442 0.76413 0.0
H1724 H 0.24543 0.97804 0.75495 0.0
H1725 H 0.24537 0.01341 0.78633 0.0
H1726 H 0.2848 0.97855 0.77637 0.0
H1727 H 0.29675 0.95568 0.76687 0.0
H1728 H 0.28515 0.96883 0.72099 0.0
H1729 H 0.27284 0.99157 0.73065 0.0
C1730 C 0.27742 0.04305 0.75541 0.0
C1731 C 0.27791 0.04638 0.73981 0.0
C1732 C 0.28483 0.05974 0.73456 0.0
C1733 C 0.29146 0.07011 0.74479 0.0
C1734 C 0.29088 0.06677 0.76042 0.0
C1735 C 0.28405 0.05335 0.76565 0.0
C1736 C 0.27054 0.02854 0.76087 0.0
C1737 C 0.27584 0.01489 0.75477 0.0
C1738 C 0.25946 0.02801 0.7725 0.0
C1739 C 0.25316 0.04194 0.77944 0.0
C1740 C 0.24654 0.05333 0.77046 0.0
C1741 C 0.24053 0.06629 0.77718 0.0
C1742 C 0.24091 0.06809 0.79305 0.0
C1743 C 0.24756 0.05665 0.80197 0.0
C1744 C 0.25356 0.04373 0.79526 0.0
C1745 C 0.25273 0.98568 0.77714 0.0
C1746 C 0.25289 0.98214 0.79268 0.0
C1747 C 0.2464 0.96858 0.79797 0.0
C1748 C 0.23949 0.9583 0.78783 0.0
C1749 C 0.23936 0.96191 0.77225 0.0
C1750 C 0.2459 0.97545 0.76697 0.0
C1751 C 0.25941 1.00023 0.77159 0.0
C1752 C 0.25407 0.01384 0.77766 0.0
C1753 C 0.27062 1.00074 0.76012 0.0
C1754 C 0.27776 0.98673 0.75425 0.0
C1755 C 0.28467 0.97644 0.76428 0.0
C1756 C 0.29165 0.96343 0.7588 0.0
C1757 C 0.29195 0.96041 0.74315 0.0
C1758 C 0.28499 0.97071 0.73312 0.0
C1759 C 0.27804 0.98378 0.73861 0.0
H1760 H 0.9928 0.27053 0.73101 0.0
H1761 H 0.96957 0.28021 0.71948 0.0
H1762 H 0.95341 0.29299 0.76377 0.0
H1763 H 0.97703 0.28386 0.77517 0.0
H1764 H 0.01504 0.28359 0.74573 0.0
H1765 H 0.97874 0.24453 0.75733 0.0
H1766 H 0.95527 0.23328 0.76715 0.0
H1767 H 0.96731 0.24843 0.81222 0.0
H1768 H 0.9909 0.25956 0.8023 0.0
H1769 H 0.03955 0.25892 0.80193 0.0
H1770 H 0.06291 0.24733 0.81146 0.0
H1771 H 0.07305 0.232 0.76619 0.0
H1772 H 0.04982 0.24374 0.75677 0.0
H1773 H 0.01472 0.24636 0.78809 0.0
H1774 H 0.05373 0.28293 0.77474 0.0
H1775 H 0.07748 0.29161 0.7631 0.0
H1776 H 0.05967 0.27953 0.71894 0.0
H1777 H 0.03631 0.27024 0.73071 0.0
C1778 C 0.98667 0.27631 0.75399 0.0
C1779 C 0.98431 0.2755 0.73825 0.0
C1780 C 0.97091 0.28091 0.73168 0.0
C1781 C 0.9595 0.28729 0.74068 0.0
C1782 C 0.96196 0.28826 0.75645 0.0
C1783 C 0.97542 0.28289 0.76302 0.0
C1784 C 1.00096 0.27035 0.76084 0.0
C1785 C 0.01497 0.27534 0.7549 0.0
C1786 C 1.00088 0.25979 0.77303 0.0
C1787 C 0.98652 0.25306 0.77904 0.0
C1788 C 0.97626 0.24556 0.76931 0.0
C1789 C 0.9628 0.23915 0.77495 0.0
C1790 C 0.95931 0.24001 0.79048 0.0
C1791 C 0.96968 0.24742 0.80023 0.0
C1792 C 0.98316 0.25384 0.79457 0.0
C1793 C 0.043 0.25239 0.7786 0.0
C1794 C 0.04682 0.25306 0.79407 0.0
C1795 C 0.06017 0.24638 0.79951 0.0
C1796 C 0.06995 0.23877 0.7896 0.0
C1797 C 0.06599 0.23801 0.77412 0.0
C1798 C 0.05266 0.24469 0.7687 0.0
C1799 C 0.02879 0.25946 0.77282 0.0
C1800 C 0.0148 0.25471 0.77901 0.0
C1801 C 0.02888 0.27003 0.76065 0.0
C1802 C 0.04326 0.27573 0.75365 0.0
C1803 C 0.05501 0.282 0.76257 0.0
C1804 C 0.06854 0.28713 0.75586 0.0
C1805 C 0.07056 0.28623 0.74006 0.0
C1806 C 0.05866 0.28016 0.73115 0.0
C1807 C 0.04519 0.27498 0.73787 0.0
H1808 H 0.72769 0.03656 0.76252 0.0
H1809 H 0.71562 0.05942 0.75274 0.0
H1810 H 0.75926 0.0761 0.7372 0.0
H1811 H 0.77129 0.05325 0.74719 0.0
H1812 H 0.74223 0.0148 0.74871 0.0
H1813 H 0.75401 0.04983 0.78755 0.0
H1814 H 0.76319 0.0731 0.79952 0.0
H1815 H 0.80865 0.06395 0.78396 0.0
H1816 H 0.79928 0.04083 0.77161 0.0
H1817 H 0.80095 0.99359 0.76838 0.0
H1818 H 0.81318 0.97065 0.77785 0.0
H1819 H 0.7701 0.95466 0.79545 0.0
H1820 H 0.75802 0.97785 0.78628 0.0
H1821 H 0.78663 0.01579 0.78361 0.0
H1822 H 0.77229 0.9785 0.74537 0.0
H1823 H 0.76058 0.95531 0.73531 0.0
H1824 H 0.71729 0.96866 0.7536 0.0
H1825 H 0.72903 0.99178 0.76349 0.0
C1826 C 0.75043 0.04318 0.7557 0.0
C1827 C 0.73467 0.04513 0.757 0.0
C1828 C 0.72777 0.05821 0.75132 0.0
C1829 C 0.73644 0.06963 0.74411 0.0
C1830 C 0.75224 0.06767 0.74286 0.0
C1831 C 0.75915 0.05458 0.74856 0.0
C1832 C 0.75764 0.02905 0.76145 0.0
C1833 C 0.75184 0.01501 0.75648 0.0
C1834 C 0.77028 0.02933 0.77149 0.0
C1835 C 0.77591 0.04364 0.77852 0.0
C1836 C 0.76592 0.05292 0.78654 0.0
C1837 C 0.77123 0.06615 0.79352 0.0
C1838 C 0.78668 0.07039 0.79274 0.0
C1839 C 0.79666 0.06111 0.78465 0.0
C1840 C 0.79134 0.04784 0.77768 0.0
C1841 C 0.77853 0.98741 0.77645 0.0
C1842 C 0.79414 0.98516 0.77429 0.0
C1843 C 0.80109 0.97197 0.77962 0.0
C1844 C 0.79261 0.96074 0.78735 0.0
C1845 C 0.77699 0.96309 0.78964 0.0
C1846 C 0.77004 0.97629 0.78427 0.0
C1847 C 0.77126 1.00153 0.77079 0.0
C1848 C 0.77708 0.01558 0.77577 0.0
C1849 C 0.7584 1.00125 0.76104 0.0
C1850 C 0.75156 0.98688 0.75526 0.0
C1851 C 0.76031 0.97635 0.74733 0.0
C1852 C 0.75359 0.96308 0.74158 0.0
C1853 C 0.73796 0.96013 0.74357 0.0
C1854 C 0.72929 0.97067 0.75161 0.0
C1855 C 0.736 0.98389 0.75734 0.0
H1856 H 0.3 0.77217 0.49118 0.0
H1857 H 0.30935 0.7843 0.46792 0.0
H1858 H 0.26352 0.79748 0.4565 0.0
H1859 H 0.25434 0.78572 0.47994 0.0
H1860 H 0.28589 0.78468 0.51536 0.0
H1861 H 0.27298 0.74644 0.47776 0.0
H1862 H 0.26114 0.73688 0.45442 0.0
H1863 H 0.21708 0.74985 0.47107 0.0
H1864 H 0.22901 0.75968 0.49414 0.0
H1865 H 0.23056 0.75731 0.53962 0.0
H1866 H 0.22118 0.74537 0.56295 0.0
H1867 H 0.26724 0.73411 0.57559 0.0
H1868 H 0.27648 0.74569 0.55208 0.0
H1869 H 0.24482 0.7457 0.51601 0.0
H1870 H 0.25551 0.78444 0.5518 0.0
H1871 H 0.26519 0.79609 0.575 0.0
H1872 H 0.31095 0.78425 0.56244 0.0
H1873 H 0.30115 0.77276 0.53908 0.0
C1874 C 0.27644 0.7779 0.48727 0.0
C1875 C 0.29197 0.77768 0.48365 0.0
C1876 C 0.29728 0.78452 0.47028 0.0
C1877 C 0.28719 0.79187 0.4603 0.0
C1878 C 0.27164 0.79207 0.46398 0.0
C1879 C 0.26634 0.7852 0.47732 0.0
C1880 C 0.27088 0.77088 0.50165 0.0
C1881 C 0.2771 0.77596 0.51549 0.0
C1882 C 0.25898 0.75991 0.50185 0.0
C1883 C 0.25191 0.75393 0.48767 0.0
C1884 C 0.26079 0.74732 0.47632 0.0
C1885 C 0.25398 0.74174 0.46304 0.0
C1886 C 0.23816 0.74265 0.46082 0.0
C1887 C 0.22932 0.74916 0.47228 0.0
C1888 C 0.23611 0.75468 0.48555 0.0
C1889 C 0.25425 0.7525 0.5441 0.0
C1890 C 0.23864 0.75225 0.54741 0.0
C1891 C 0.2333 0.74553 0.56082 0.0
C1892 C 0.24345 0.73878 0.57117 0.0
C1893 C 0.25908 0.73906 0.56782 0.0
C1894 C 0.26441 0.74581 0.55443 0.0
C1895 C 0.25988 0.75943 0.5297 0.0
C1896 C 0.25368 0.75435 0.51587 0.0
C1897 C 0.27159 0.7706 0.52952 0.0
C1898 C 0.27757 0.77755 0.54374 0.0
C1899 C 0.26762 0.78422 0.55409 0.0
C1900 C 0.27319 0.79086 0.56741 0.0
C1901 C 0.28887 0.79106 0.5707 0.0
C1902 C 0.29883 0.78446 0.56024 0.0
C1903 C 0.29324 0.77783 0.54689 0.0
H1904 H 0.77102 0.73112 0.49289 0.0
H1905 H 0.78337 0.72144 0.4702 0.0
H1906 H 0.7973 0.76702 0.45805 0.0
H1907 H 0.78561 0.77648 0.4811 0.0
H1908 H 0.78244 0.74458 0.51689 0.0
H1909 H 0.7467 0.75859 0.4782 0.0
H1910 H 0.73808 0.77022 0.4545 0.0
H1911 H 0.75095 0.81433 0.4717 0.0
H1912 H 0.76024 0.80255 0.49502 0.0
H1913 H 0.76057 0.80155 0.539 0.0
H1914 H 0.75114 0.81295 0.5622 0.0
H1915 H 0.7353 0.76897 0.5776 0.0
H1916 H 0.74412 0.75776 0.55397 0.0
H1917 H 0.74674 0.78762 0.51648 0.0
H1918 H 0.78364 0.77335 0.55462 0.0
H1919 H 0.79215 0.76169 0.57835 0.0
H1920 H 0.77691 0.71794 0.56207 0.0
H1921 H 0.76773 0.7298 0.53874 0.0
C1922 C 0.77722 0.75456 0.48867 0.0
C1923 C 0.77677 0.73902 0.48534 0.0
C1924 C 0.78372 0.73351 0.47227 0.0
C1925 C 0.79133 0.74343 0.46221 0.0
C1926 C 0.79172 0.759 0.46558 0.0
C1927 C 0.78485 0.76448 0.4787 0.0
C1928 C 0.77016 0.76034 0.50281 0.0
C1929 C 0.77444 0.75384 0.51678 0.0
C1930 C 0.75992 0.77262 0.5027 0.0
C1931 C 0.75433 0.77965 0.48835 0.0
C1932 C 0.74783 0.77075 0.47679 0.0
C1933 C 0.74273 0.77745 0.4633 0.0
C1934 C 0.74385 0.79324 0.46112 0.0
C1935 C 0.75015 0.80213 0.47283 0.0
C1936 C 0.75533 0.79541 0.48627 0.0
C1937 C 0.75323 0.77876 0.54476 0.0
C1938 C 0.75497 0.79437 0.54732 0.0
C1939 C 0.74971 0.80085 0.5607 0.0
C1940 C 0.74257 0.79188 0.57191 0.0
C1941 C 0.74063 0.77626 0.56922 0.0
C1942 C 0.74583 0.76979 0.55575 0.0
C1943 C 0.75918 0.77201 0.53055 0.0
C1944 C 0.75467 0.77831 0.51657 0.0
C1945 C 0.76921 0.75955 0.53065 0.0
C1946 C 0.7748 0.7525 0.54497 0.0
C1947 C 0.78196 0.76127 0.55625 0.0
C1948 C 0.78699 0.75454 0.56976 0.0
C1949 C 0.78517 0.73885 0.57221 0.0
C1950 C 0.77825 0.73008 0.56075 0.0
C1951 C 0.77312 0.73683 0.54731 0.0
H1952 H 0.76842 0.30053 0.5385 0.0
H1953 H 0.77824 0.31246 0.56151 0.0
H1954 H 0.79612 0.26948 0.57649 0.0
H1955 H 0.78615 0.25756 0.55341 0.0
H1956 H 0.78311 0.28731 0.5161 0.0
H1957 H 0.74542 0.27159 0.55282 0.0
H1958 H 0.73517 0.25956 0.57572 0.0
H1959 H 0.75302 0.2166 0.56134 0.0
H1960 H 0.76311 0.22867 0.53845 0.0
H1961 H 0.76129 0.22984 0.4913 0.0
H1962 H 0.75007 0.21995 0.46782 0.0
H1963 H 0.73329 0.26456 0.45695 0.0
H1964 H 0.7446 0.27433 0.48031 0.0
H1965 H 0.7485 0.24257 0.5156 0.0
H1966 H 0.7854 0.2582 0.47842 0.0
H1967 H 0.79458 0.27011 0.45499 0.0
H1968 H 0.77845 0.31337 0.47047 0.0
H1969 H 0.76895 0.30133 0.49364 0.0
C1970 C 0.77645 0.27812 0.54422 0.0
C1971 C 0.77446 0.29366 0.54673 0.0
C1972 C 0.78015 0.30049 0.55989 0.0
C1973 C 0.78807 0.29197 0.57086 0.0
C1974 C 0.78995 0.27636 0.56838 0.0
C1975 C 0.78425 0.26952 0.55518 0.0
C1976 C 0.77076 0.27115 0.52988 0.0
C1977 C 0.7754 0.27762 0.51601 0.0
C1978 C 0.76106 0.25821 0.52974 0.0
C1979 C 0.75517 0.25107 0.54394 0.0
C1980 C 0.74726 0.25961 0.55468 0.0
C1981 C 0.74141 0.2527 0.56779 0.0
C1982 C 0.74322 0.23707 0.5704 0.0
C1983 C 0.75118 0.22859 0.55962 0.0
C1984 C 0.75703 0.2355 0.54654 0.0
C1985 C 0.75398 0.25288 0.48751 0.0
C1986 C 0.7552 0.23748 0.48384 0.0
C1987 C 0.74873 0.23183 0.47042 0.0
C1988 C 0.74082 0.24146 0.46041 0.0
C1989 C 0.73955 0.25686 0.4642 0.0
C1990 C 0.746 0.26248 0.4776 0.0
C1991 C 0.76068 0.25887 0.50186 0.0
C1992 C 0.75627 0.2522 0.51572 0.0
C1993 C 0.7706 0.27163 0.502 0.0
C1994 C 0.77633 0.27883 0.48776 0.0
C1995 C 0.78373 0.27023 0.47671 0.0
C1996 C 0.7891 0.27708 0.46337 0.0
C1997 C 0.78722 0.2927 0.4608 0.0
C1998 C 0.7799 0.30128 0.47195 0.0
C1999 C 0.77457 0.29444 0.48529 0.0
H2000 H 0.26867 0.23107 0.49154 0.0
H2001 H 0.27952 0.22143 0.46803 0.0
H2002 H 0.29711 0.26619 0.45759 0.0
H2003 H 0.28613 0.27573 0.48098 0.0
H2004 H 0.28208 0.24354 0.51591 0.0
H2005 H 0.24474 0.25939 0.47935 0.0
H2006 H 0.23484 0.27151 0.45638 0.0
H2007 H 0.25304 0.31456 0.47155 0.0
H2008 H 0.2627 0.3024 0.49456 0.0
H2009 H 0.26276 0.30121 0.53948 0.0
H2010 H 0.25367 0.31254 0.56285 0.0
H2011 H 0.23724 0.26866 0.57796 0.0
H2012 H 0.2457 0.25755 0.55416 0.0
H2013 H 0.24829 0.28809 0.51706 0.0
H2014 H 0.28651 0.27195 0.55323 0.0
H2015 H 0.29629 0.25972 0.57621 0.0
H2016 H 0.27638 0.21716 0.56174 0.0
H2017 H 0.26683 0.22943 0.53874 0.0
C2018 C 0.27641 0.25417 0.48797 0.0
C2019 C 0.27484 0.2388 0.48416 0.0
C2020 C 0.2811 0.2333 0.47073 0.0
C2021 C 0.28916 0.24303 0.46084 0.0
C2022 C 0.29074 0.25841 0.46474 0.0
C2023 C 0.28448 0.2639 0.47816 0.0
C2024 C 0.27004 0.25997 0.50241 0.0
C2025 C 0.2745 0.25314 0.51615 0.0
C2026 C 0.26038 0.27269 0.50276 0.0
C2027 C 0.25455 0.27996 0.48865 0.0
C2028 C 0.24668 0.27142 0.47767 0.0
C2029 C 0.24105 0.27837 0.46452 0.0
C2030 C 0.24311 0.29404 0.46209 0.0
C2031 C 0.25102 0.30254 0.47313 0.0
C2032 C 0.25661 0.29558 0.48628 0.0
C2033 C 0.25509 0.27848 0.54507 0.0
C2034 C 0.25714 0.29403 0.54779 0.0
C2035 C 0.25206 0.30047 0.56127 0.0
C2036 C 0.2448 0.29152 0.57241 0.0
C2037 C 0.24266 0.27595 0.56962 0.0
C2038 C 0.24767 0.26952 0.55607 0.0
C2039 C 0.26049 0.2718 0.5306 0.0
C2040 C 0.25583 0.27846 0.51683 0.0
C2041 C 0.26997 0.25894 0.53024 0.0
C2042 C 0.27583 0.25163 0.54431 0.0
C2043 C 0.28417 0.26 0.55507 0.0
C2044 C 0.28973 0.253 0.56823 0.0
C2045 C 0.28714 0.23743 0.57085 0.0
C2046 C 0.2788 0.2291 0.56 0.0
C2047 C 0.27327 0.23611 0.54686 0.0
H2048 H 0.75906 0.53571 0.80297 0.0
H2049 H 0.74895 0.55842 0.81469 0.0
H2050 H 0.73498 0.57492 0.77056 0.0
H2051 H 0.74529 0.55217 0.75888 0.0
H2052 H 0.74528 0.51376 0.78721 0.0
H2053 H 0.78402 0.55127 0.77762 0.0
H2054 H 0.79547 0.57479 0.76802 0.0
H2055 H 0.78338 0.56191 0.72228 0.0
H2056 H 0.77173 0.53849 0.73195 0.0
H2057 H 0.7717 0.49176 0.7311 0.0
H2058 H 0.7829 0.46854 0.72127 0.0
H2059 H 0.79549 0.45539 0.76691 0.0
H2060 H 0.78418 0.47847 0.77661 0.0
H2061 H 0.78389 0.5153 0.74642 0.0
H2062 H 0.74452 0.47853 0.75571 0.0
H2063 H 0.73303 0.45491 0.76489 0.0
H2064 H 0.74678 0.4662 0.81066 0.0
H2065 H 0.75801 0.48994 0.80138 0.0
C2066 C 0.75305 0.54223 0.78003 0.0
C2067 C 0.75379 0.54419 0.79581 0.0
C2068 C 0.74793 0.55719 0.80251 0.0
C2069 C 0.74108 0.56853 0.7936 0.0
C2070 C 0.74034 0.56654 0.77777 0.0
C2071 C 0.74622 0.55351 0.77106 0.0
C2072 C 0.75921 0.52824 0.77309 0.0
C2073 C 0.75385 0.51412 0.7784 0.0
C2074 C 0.77009 0.52869 0.76127 0.0
C2075 C 0.77681 0.54316 0.75554 0.0
C2076 C 0.7836 0.5536 0.76555 0.0
C2077 C 0.79017 0.56705 0.76004 0.0
C2078 C 0.7903 0.57023 0.74439 0.0
C2079 C 0.78357 0.55973 0.73439 0.0
C2080 C 0.77689 0.54635 0.73991 0.0
C2081 C 0.77691 0.4868 0.75462 0.0
C2082 C 0.77689 0.48386 0.73897 0.0
C2083 C 0.78334 0.47059 0.73337 0.0
C2084 C 0.79004 0.46 0.74329 0.0
C2085 C 0.79017 0.46309 0.75895 0.0
C2086 C 0.78372 0.47633 0.76453 0.0
C2087 C 0.77003 0.50088 0.76063 0.0
C2088 C 0.77525 0.51499 0.75515 0.0
C2089 C 0.75899 0.50046 0.77226 0.0
C2090 C 0.75222 0.48597 0.77784 0.0
C2091 C 0.74516 0.47586 0.76771 0.0
C2092 C 0.73863 0.46232 0.77298 0.0
C2093 C 0.73899 0.45859 0.78853 0.0
C2094 C 0.74609 0.46877 0.79865 0.0
C2095 C 0.75258 0.48234 0.79336 0.0
H2096 H 0.29921 0.54112 0.77197 0.0
H2097 H 0.30855 0.56457 0.78364 0.0
H2098 H 0.26323 0.57366 0.79968 0.0
H2099 H 0.25399 0.55035 0.78785 0.0
H2100 H 0.28618 0.51618 0.78436 0.0
H2101 H 0.27176 0.55421 0.7483 0.0
H2102 H 0.26006 0.57763 0.73941 0.0
H2103 H 0.21585 0.55979 0.75186 0.0
H2104 H 0.22771 0.53674 0.76139 0.0
H2105 H 0.22905 0.49234 0.76317 0.0
H2106 H 0.21755 0.46889 0.75373 0.0
H2107 H 0.26114 0.45522 0.73647 0.0
H2108 H 0.27254 0.47896 0.74566 0.0
H2109 H 0.24263 0.51534 0.74839 0.0
H2110 H 0.25705 0.47806 0.78571 0.0
H2111 H 0.26871 0.45495 0.79553 0.0
H2112 H 0.31267 0.47116 0.7805 0.0
H2113 H 0.30094 0.49418 0.77055 0.0
C2114 C 0.27586 0.54404 0.77887 0.0
C2115 C 0.2913 0.54818 0.778 0.0
C2116 C 0.29663 0.56158 0.78473 0.0
C2117 C 0.28664 0.57107 0.79257 0.0
C2118 C 0.2712 0.56681 0.7935 0.0
C2119 C 0.26589 0.55344 0.78676 0.0
C2120 C 0.2702 0.52976 0.77182 0.0
C2121 C 0.27682 0.516 0.77629 0.0
C2122 C 0.25778 0.52955 0.7615 0.0
C2123 C 0.25067 0.54374 0.75573 0.0
C2124 C 0.25956 0.55541 0.74929 0.0
C2125 C 0.25282 0.56875 0.74403 0.0
C2126 C 0.23698 0.57068 0.74494 0.0
C2127 C 0.22809 0.55886 0.7512 0.0
C2128 C 0.23485 0.54557 0.75653 0.0
C2129 C 0.25168 0.48739 0.75524 0.0
C2130 C 0.23613 0.48433 0.75731 0.0
C2131 C 0.2296 0.47084 0.75202 0.0
C2132 C 0.23844 0.46011 0.74443 0.0
C2133 C 0.25399 0.46328 0.74219 0.0
C2134 C 0.26055 0.47678 0.74754 0.0
C2135 C 0.25847 0.50175 0.76109 0.0
C2136 C 0.25206 0.51553 0.75637 0.0
C2137 C 0.27106 0.50196 0.7712 0.0
C2138 C 0.27806 0.48781 0.77716 0.0
C2139 C 0.26917 0.47657 0.78434 0.0
C2140 C 0.27586 0.46335 0.78998 0.0
C2141 C 0.29163 0.46118 0.78879 0.0
C2142 C 0.30052 0.47253 0.78176 0.0
C2143 C 0.29382 0.48569 0.77602 0.0
H2144 H 0.27193 0.53975 0.23183 0.0
H2145 H 0.28406 0.56324 0.22285 0.0
H2146 H 0.29844 0.57331 0.26868 0.0
H2147 H 0.28659 0.54968 0.27752 0.0
H2148 H 0.28477 0.51519 0.2458 0.0
H2149 H 0.24753 0.55292 0.25822 0.0
H2150 H 0.23847 0.5762 0.26985 0.0
H2151 H 0.24943 0.55813 0.31421 0.0
H2152 H 0.25907 0.53522 0.30247 0.0
H2153 H 0.25836 0.49004 0.30057 0.0
H2154 H 0.24697 0.46638 0.30986 0.0
H2155 H 0.2334 0.45502 0.26406 0.0
H2156 H 0.24506 0.47855 0.25486 0.0
H2157 H 0.24588 0.51388 0.28635 0.0
H2158 H 0.2846 0.47833 0.27586 0.0
H2159 H 0.29604 0.45531 0.26615 0.0
H2160 H 0.28367 0.46858 0.22048 0.0
H2161 H 0.27239 0.49174 0.23032 0.0
C2162 C 0.27824 0.54301 0.25536 0.0
C2163 C 0.27771 0.54703 0.23993 0.0
C2164 C 0.28454 0.56051 0.23483 0.0
C2165 C 0.2922 0.57017 0.24505 0.0
C2166 C 0.29276 0.56607 0.26049 0.0
C2167 C 0.28587 0.55262 0.26559 0.0
C2168 C 0.2711 0.52861 0.26072 0.0
C2169 C 0.27607 0.51491 0.25448 0.0
C2170 C 0.26012 0.52827 0.27244 0.0
C2171 C 0.2542 0.54235 0.27943 0.0
C2172 C 0.24813 0.55404 0.27044 0.0
C2173 C 0.24278 0.5673 0.27713 0.0
C2174 C 0.24326 0.56912 0.29299 0.0
C2175 C 0.24912 0.55727 0.30196 0.0
C2176 C 0.25451 0.54407 0.29526 0.0
C2177 C 0.25267 0.48603 0.27701 0.0
C2178 C 0.25293 0.48243 0.29254 0.0
C2179 C 0.24635 0.46891 0.29783 0.0
C2180 C 0.23925 0.45874 0.28772 0.0
C2181 C 0.23899 0.46242 0.27215 0.0
C2182 C 0.24561 0.47592 0.26687 0.0
C2183 C 0.25955 0.50049 0.27144 0.0
C2184 C 0.25452 0.51418 0.27761 0.0
C2185 C 0.27065 0.50083 0.25985 0.0
C2186 C 0.27746 0.48671 0.25385 0.0
C2187 C 0.28421 0.47622 0.26376 0.0
C2188 C 0.29073 0.46301 0.25818 0.0
C2189 C 0.29072 0.45998 0.24251 0.0
C2190 C 0.28403 0.47058 0.23259 0.0
C2191 C 0.27752 0.48382 0.2382 0.0
H2192 H 0.72747 0.53704 0.26324 0.0
H2193 H 0.71536 0.56004 0.25376 0.0
H2194 H 0.75884 0.57666 0.23777 0.0
H2195 H 0.77084 0.55344 0.24697 0.0
H2196 H 0.74185 0.5151 0.24906 0.0
H2197 H 0.75412 0.55031 0.28784 0.0
H2198 H 0.76352 0.57364 0.29946 0.0
H2199 H 0.80854 0.56469 0.28254 0.0
H2200 H 0.79904 0.54121 0.27104 0.0
H2201 H 0.80078 0.49405 0.26877 0.0
H2202 H 0.81306 0.47129 0.27853 0.0
H2203 H 0.77003 0.45547 0.29643 0.0
H2204 H 0.7578 0.47823 0.28649 0.0
H2205 H 0.78649 0.51624 0.28365 0.0
H2206 H 0.77207 0.47885 0.24567 0.0
H2207 H 0.76041 0.45563 0.23564 0.0
H2208 H 0.71709 0.46889 0.25393 0.0
H2209 H 0.72877 0.49205 0.26378 0.0
C2210 C 0.7501 0.54352 0.25594 0.0
C2211 C 0.7344 0.54561 0.25766 0.0
C2212 C 0.72751 0.55884 0.25234 0.0
C2213 C 0.73613 0.57025 0.24506 0.0
C2214 C 0.75184 0.56807 0.24322 0.0
C2215 C 0.75874 0.55485 0.24861 0.0
C2216 C 0.75735 0.52939 0.26163 0.0
C2217 C 0.75152 0.51534 0.25675 0.0
C2218 C 0.77007 0.52971 0.27156 0.0
C2219 C 0.77583 0.54407 0.2784 0.0
C2220 C 0.76598 0.55344 0.28648 0.0
C2221 C 0.77138 0.56683 0.29311 0.0
C2222 C 0.78679 0.57114 0.29189 0.0
C2223 C 0.79665 0.56167 0.28385 0.0
C2224 C 0.79123 0.54826 0.27721 0.0
C2225 C 0.77833 0.48783 0.27674 0.0
C2226 C 0.79398 0.48568 0.27479 0.0
C2227 C 0.80101 0.47266 0.28046 0.0
C2228 C 0.79256 0.4615 0.28832 0.0
C2229 C 0.77686 0.46369 0.29025 0.0
C2230 C 0.76984 0.47672 0.28458 0.0
C2231 C 0.77105 0.50191 0.27099 0.0
C2232 C 0.77689 0.51599 0.27588 0.0
C2233 C 0.75813 0.50159 0.26131 0.0
C2234 C 0.75132 0.48719 0.25556 0.0
C2235 C 0.76009 0.47667 0.24764 0.0
C2236 C 0.7534 0.46339 0.24191 0.0
C2237 C 0.73777 0.46039 0.2439 0.0
C2238 C 0.72908 0.47092 0.25193 0.0
C2239 C 0.73577 0.48417 0.25765 0.0
H2240 H 0.53842 0.26364 0.73015 0.0
H2241 H 0.56142 0.25417 0.71821 0.0
H2242 H 0.57536 0.23434 0.76093 0.0
H2243 H 0.55209 0.24352 0.77272 0.0
H2244 H 0.51508 0.24871 0.74316 0.0
H2245 H 0.55294 0.28551 0.75951 0.0
H2246 H 0.57667 0.29417 0.77147 0.0
H2247 H 0.56233 0.27398 0.8139 0.0
H2248 H 0.53881 0.2651 0.8018 0.0
H2249 H 0.49294 0.26851 0.80197 0.0
H2250 H 0.46997 0.2787 0.81337 0.0
H2251 H 0.45588 0.2959 0.76959 0.0
H2252 H 0.47898 0.28584 0.75826 0.0
H2253 H 0.51618 0.28137 0.78873 0.0
H2254 H 0.47753 0.2461 0.77311 0.0
H2255 H 0.45367 0.23755 0.76152 0.0
H2256 H 0.46952 0.25345 0.71783 0.0
H2257 H 0.49297 0.26269 0.72965 0.0
C2258 C 0.54356 0.25443 0.75237 0.0
C2259 C 0.54641 0.25723 0.73695 0.0
C2260 C 0.55965 0.2519 0.73016 0.0
C2261 C 0.57031 0.24356 0.73862 0.0
C2262 C 0.56736 0.24064 0.75405 0.0
C2263 C 0.55412 0.24601 0.76085 0.0
C2264 C 0.5294 0.26014 0.75946 0.0
C2265 C 0.5153 0.25602 0.75302 0.0
C2266 C 0.52969 0.26931 0.77258 0.0
C2267 C 0.54416 0.27452 0.77972 0.0
C2268 C 0.55498 0.28284 0.77135 0.0
C2269 C 0.56847 0.28789 0.77824 0.0
C2270 C 0.57141 0.28473 0.79364 0.0
C2271 C 0.56052 0.27643 0.80198 0.0
C2272 C 0.54702 0.27144 0.79511 0.0
C2273 C 0.48767 0.27622 0.7792 0.0
C2274 C 0.48495 0.27453 0.79482 0.0
C2275 C 0.47181 0.28039 0.80133 0.0
C2276 C 0.46106 0.2881 0.79239 0.0
C2277 C 0.46382 0.28984 0.77676 0.0
C2278 C 0.47703 0.28407 0.77027 0.0
C2279 C 0.50178 0.27005 0.77238 0.0
C2280 C 0.5159 0.27405 0.77889 0.0
C2281 C 0.50148 0.2607 0.75935 0.0
C2282 C 0.487 0.25526 0.75231 0.0
C2283 C 0.47578 0.24794 0.76107 0.0
C2284 C 0.46219 0.24287 0.75437 0.0
C2285 C 0.4596 0.24483 0.73871 0.0
C2286 C 0.47096 0.25199 0.72995 0.0
C2287 C 0.48448 0.25714 0.73668 0.0
H2288 H 0.53546 0.72839 0.77295 0.0
H2289 H 0.55867 0.71661 0.78226 0.0
H2290 H 0.57686 0.76073 0.79404 0.0
H2291 H 0.55326 0.77237 0.78534 0.0
H2292 H 0.5142 0.7434 0.78603 0.0
H2293 H 0.54914 0.75421 0.74616 0.0
H2294 H 0.57246 0.7634 0.73414 0.0
H2295 H 0.56274 0.80883 0.74893 0.0
H2296 H 0.53955 0.79945 0.76129 0.0
H2297 H 0.4905 0.79985 0.76143 0.0
H2298 H 0.46756 0.80964 0.74909 0.0
H2299 H 0.45549 0.76432 0.73479 0.0
H2300 H 0.47859 0.75471 0.74675 0.0
H2301 H 0.51456 0.78568 0.74874 0.0
H2302 H 0.47671 0.77256 0.78679 0.0
H2303 H 0.45305 0.76096 0.79608 0.0
H2304 H 0.46841 0.71716 0.78136 0.0
H2305 H 0.49182 0.72883 0.77183 0.0
C2306 C 0.5426 0.75131 0.77829 0.0
C2307 C 0.54439 0.73554 0.77763 0.0
C2308 C 0.55778 0.72882 0.78283 0.0
C2309 C 0.56976 0.7377 0.78881 0.0
C2310 C 0.56787 0.7535 0.78962 0.0
C2311 C 0.55442 0.76021 0.78448 0.0
C2312 C 0.52831 0.75832 0.77256 0.0
C2313 C 0.51429 0.75257 0.77779 0.0
C2314 C 0.52839 0.77046 0.76196 0.0
C2315 C 0.54266 0.7761 0.75479 0.0
C2316 C 0.5521 0.76612 0.74696 0.0
C2317 C 0.56537 0.77143 0.73996 0.0
C2318 C 0.56948 0.78687 0.74054 0.0
C2319 C 0.56001 0.79685 0.74841 0.0
C2320 C 0.5467 0.79153 0.75539 0.0
C2321 C 0.48622 0.77652 0.75517 0.0
C2322 C 0.48288 0.79203 0.75566 0.0
C2323 C 0.46971 0.79759 0.74869 0.0
C2324 C 0.45966 0.78777 0.74093 0.0
C2325 C 0.46304 0.77223 0.74051 0.0
C2326 C 0.47617 0.76669 0.7475 0.0
C2327 C 0.50047 0.77066 0.76213 0.0
C2328 C 0.51449 0.77665 0.75714 0.0
C2329 C 0.50039 0.75849 0.77269 0.0
C2330 C 0.48601 0.75159 0.77849 0.0
C2331 C 0.47493 0.76047 0.78548 0.0
C2332 C 0.46146 0.75381 0.7909 0.0
C2333 C 0.4588 0.73813 0.78941 0.0
C2334 C 0.46998 0.72929 0.78249 0.0
C2335 C 0.48344 0.73593 0.77715 0.0
H2336 H 0.53734 0.76364 0.22962 0.0
H2337 H 0.56008 0.75376 0.21755 0.0
H2338 H 0.57381 0.73355 0.26017 0.0
H2339 H 0.55107 0.74357 0.27219 0.0
H2340 H 0.51395 0.74937 0.24244 0.0
H2341 H 0.55191 0.78543 0.25921 0.0
H2342 H 0.57562 0.79422 0.2711 0.0
H2343 H 0.56158 0.77389 0.31355 0.0
H2344 H 0.53809 0.76485 0.30153 0.0
H2345 H 0.49187 0.76616 0.30175 0.0
H2346 H 0.46903 0.77585 0.31381 0.0
H2347 H 0.45514 0.79592 0.27118 0.0
H2348 H 0.47826 0.78655 0.25929 0.0
H2349 H 0.51531 0.78065 0.28898 0.0
H2350 H 0.47748 0.74448 0.27225 0.0
H2351 H 0.45371 0.73571 0.26047 0.0
H2352 H 0.46749 0.75621 0.21801 0.0
H2353 H 0.49105 0.76522 0.22993 0.0
C2354 C 0.54251 0.75448 0.25185 0.0
C2355 C 0.54525 0.75708 0.23637 0.0
C2356 C 0.55824 0.75136 0.22947 0.0
C2357 C 0.56881 0.7428 0.23786 0.0
C2358 C 0.56606 0.74025 0.25339 0.0
C2359 C 0.55303 0.74598 0.26029 0.0
C2360 C 0.52841 0.76028 0.259 0.0
C2361 C 0.51427 0.75639 0.2525 0.0
C2362 C 0.52877 0.76914 0.27235 0.0
C2363 C 0.54328 0.77435 0.27944 0.0
C2364 C 0.55402 0.78274 0.27104 0.0
C2365 C 0.5675 0.78788 0.27788 0.0
C2366 C 0.57051 0.78473 0.29327 0.0
C2367 C 0.55972 0.77633 0.30164 0.0
C2368 C 0.54623 0.77125 0.29481 0.0
C2369 C 0.48676 0.77548 0.27957 0.0
C2370 C 0.48392 0.77267 0.295 0.0
C2371 C 0.47078 0.77812 0.30185 0.0
C2372 C 0.46017 0.78661 0.29345 0.0
C2373 C 0.4631 0.78952 0.27802 0.0
C2374 C 0.47625 0.78403 0.27116 0.0
C2375 C 0.50087 0.76974 0.27241 0.0
C2376 C 0.515 0.77364 0.27891 0.0
C2377 C 0.50051 0.76088 0.25907 0.0
C2378 C 0.48599 0.75565 0.25202 0.0
C2379 C 0.47531 0.74721 0.26044 0.0
C2380 C 0.46179 0.74208 0.25366 0.0
C2381 C 0.45868 0.74528 0.2383 0.0
C2382 C 0.46943 0.75372 0.2299 0.0
C2383 C 0.48296 0.75879 0.23667 0.0
H2384 H 0.53605 0.22839 0.27134 0.0
H2385 H 0.55913 0.21634 0.28074 0.0
H2386 H 0.57647 0.25988 0.29541 0.0
H2387 H 0.55312 0.27185 0.28627 0.0
H2388 H 0.51442 0.24318 0.28548 0.0
H2389 H 0.54965 0.25419 0.24606 0.0
H2390 H 0.57306 0.26333 0.23418 0.0
H2391 H 0.56351 0.30873 0.24916 0.0
H2392 H 0.54024 0.2994 0.26141 0.0
H2393 H 0.49105 0.30001 0.26123 0.0
H2394 H 0.46814 0.3099 0.2489 0.0
H2395 H 0.45608 0.26469 0.23425 0.0
H2396 H 0.47913 0.25499 0.24619 0.0
H2397 H 0.51521 0.28588 0.24866 0.0
H2398 H 0.47709 0.27259 0.28635 0.0
H2399 H 0.45337 0.26103 0.29556 0.0
H2400 H 0.46858 0.21726 0.28059 0.0
H2401 H 0.49203 0.22889 0.27114 0.0
C2402 C 0.54285 0.25105 0.27799 0.0
C2403 C 0.54479 0.23535 0.27662 0.0
C2404 C 0.55807 0.22849 0.2819 0.0
C2405 C 0.56972 0.23715 0.28876 0.0
C2406 C 0.5677 0.25286 0.29027 0.0
C2407 C 0.55441 0.25974 0.28493 0.0
C2408 C 0.52865 0.2582 0.27227 0.0
C2409 C 0.51459 0.25246 0.27735 0.0
C2410 C 0.52888 0.27046 0.26181 0.0
C2411 C 0.54325 0.27607 0.2548 0.0
C2412 C 0.55268 0.26608 0.24696 0.0
C2413 C 0.56599 0.27136 0.24002 0.0
C2414 C 0.57017 0.28678 0.24068 0.0
C2415 C 0.56073 0.29677 0.24858 0.0
C2416 C 0.54737 0.29147 0.25549 0.0
C2417 C 0.48676 0.27673 0.25479 0.0
C2418 C 0.48344 0.29224 0.25537 0.0
C2419 C 0.47029 0.29786 0.24841 0.0
C2420 C 0.46025 0.2881 0.24057 0.0
C2421 C 0.46362 0.27256 0.24004 0.0
C2422 C 0.47673 0.26696 0.24702 0.0
C2423 C 0.50096 0.27078 0.2618 0.0
C2424 C 0.51504 0.27676 0.25697 0.0
C2425 C 0.50075 0.25851 0.27224 0.0
C2426 C 0.48631 0.25164 0.27794 0.0
C2427 C 0.47525 0.26052 0.28496 0.0
C2428 C 0.46175 0.25388 0.29033 0.0
C2429 C 0.45904 0.23822 0.28876 0.0
C2430 C 0.47019 0.22937 0.28179 0.0
C2431 C 0.48367 0.236 0.27649 0.0
C2432 C 0.22071 0.22968 0.10797 0.0
C2433 C 0.22696 0.2159 0.11295 0.0
H2434 H 0.22109 0.24751 0.09134 0.0
C2435 C 0.23859 0.20944 0.1043 0.0
H2436 H 0.21189 0.2351 0.11442 0.0
C2437 C 0.2439 0.21658 0.09112 0.0
C2438 C 0.23771 0.23037 0.08616 0.0
H2439 H 0.24347 0.19869 0.10758 0.0
H2440 H 0.25272 0.21114 0.08466 0.0
C2441 C 0.22601 0.23681 0.09473 0.0
C2442 C 0.79727 0.22974 0.1131 0.0
C2443 C 0.80294 0.21493 0.11229 0.0
H2444 H 0.78726 0.24835 0.10115 0.0
C2445 C 0.80333 0.20778 0.0981 0.0
H2446 H 0.79664 0.2355 0.12389 0.0
C2447 C 0.79803 0.21515 0.08506 0.0
C2448 C 0.79212 0.22986 0.08587 0.0
H2449 H 0.80787 0.19648 0.09703 0.0
H2450 H 0.79869 0.20934 0.0743 0.0
C2451 C 0.7919 0.2371 0.10005 0.0
C2452 C 0.7889 0.81722 0.10642 0.0
C2453 C 0.80351 0.81427 0.11224 0.0
H2454 H 0.77215 0.81233 0.08938 0.0
C2455 C 0.8124 0.80338 0.10493 0.0
H2456 H 0.78157 0.82527 0.11192 0.0
C2457 C 0.80694 0.79588 0.09198 0.0
C2458 C 0.79246 0.79912 0.086 0.0
H2459 H 0.82376 0.80091 0.10898 0.0
H2460 H 0.81423 0.78785 0.08642 0.0
C2461 C 0.78347 0.80978 0.09349 0.0
C2462 C 0.22501 0.82124 0.0978 0.0
C2463 C 0.22558 0.81405 0.11207 0.0
H2464 H 0.22964 0.81986 0.07406 0.0
C2465 C 0.23137 0.79929 0.113 0.0
H2466 H 0.22035 0.83248 0.0966 0.0
C2467 C 0.23678 0.79203 0.10003 0.0
C2468 C 0.23649 0.79937 0.08581 0.0
H2469 H 0.23212 0.79348 0.12383 0.0
H2470 H 0.24154 0.78083 0.10122 0.0
C2471 C 0.23037 0.814 0.08486 0.0
C2472 C 0.23244 0.80102 0.92103 0.0
C2473 C 0.22633 0.81565 0.9217 0.0
H2474 H 0.24277 0.78273 0.9332 0.0
C2475 C 0.22549 0.82282 0.93587 0.0
H2476 H 0.23343 0.79526 0.91027 0.0
C2477 C 0.23076 0.81562 0.94901 0.0
C2478 C 0.2371 0.80108 0.94834 0.0
H2479 H 0.22061 0.83398 0.93682 0.0
H2480 H 0.22975 0.82142 0.95974 0.0
C2481 C 0.23779 0.79383 0.93419 0.0
C2482 C 0.21192 0.23845 0.92727 0.0
C2483 C 0.21584 0.22439 0.92105 0.0
H2484 H 0.21595 0.25483 0.94468 0.0
C2485 C 0.22755 0.2161 0.92805 0.0
H2486 H 0.20322 0.24533 0.92201 0.0
C2487 C 0.23493 0.22162 0.94107 0.0
C2488 C 0.23076 0.23554 0.94743 0.0
H2489 H 0.23078 0.20517 0.92368 0.0
H2490 H 0.24365 0.2148 0.94636 0.0
C2491 C 0.21925 0.24393 0.94028 0.0
C2492 C 0.80315 0.23829 0.92157 0.0
C2493 C 0.81187 0.22504 0.92232 0.0
H2494 H 0.78939 0.25407 0.93356 0.0
C2495 C 0.81301 0.21732 0.93627 0.0
H2496 H 0.80215 0.24459 0.91104 0.0
C2497 C 0.80572 0.22277 0.94919 0.0
C2498 C 0.79721 0.23615 0.94849 0.0
H2499 H 0.81952 0.20701 0.93721 0.0
H2500 H 0.80701 0.21666 0.9598 0.0
C2501 C 0.79597 0.2438 0.93451 0.0
C2502 C 0.79926 0.80061 0.92048 0.0
C2503 C 0.80626 0.81499 0.92141 0.0
H2504 H 0.78801 0.78244 0.93233 0.0
C2505 C 0.80785 0.82173 0.93576 0.0
H2506 H 0.79769 0.79515 0.9096 0.0
C2507 C 0.80234 0.81445 0.94878 0.0
C2508 C 0.79504 0.80021 0.94784 0.0
H2509 H 0.81344 0.83266 0.93695 0.0
H2510 H 0.80388 0.81997 0.95963 0.0
C2511 C 0.7937 0.79332 0.93353 0.0
C2512 C 0.09492 0.22476 0.20924 0.0
C2513 C 0.10918 0.22499 0.21654 0.0
H2514 H 0.07125 0.22989 0.21052 0.0
C2515 C 0.11018 0.23075 0.23136 0.0
H2516 H 0.09366 0.22015 0.19794 0.0
C2517 C 0.09729 0.23641 0.23859 0.0
C2518 C 0.08307 0.23642 0.23118 0.0
H2519 H 0.12101 0.23126 0.23726 0.0
H2520 H 0.09855 0.24111 0.24985 0.0
C2521 C 0.08205 0.23038 0.21646 0.0
C2522 C 0.81281 0.09869 0.21999 0.0
C2523 C 0.81258 0.11188 0.22884 0.0
H2524 H 0.80648 0.07529 0.21813 0.0
C2525 C 0.80488 0.11146 0.24278 0.0
H2526 H 0.81881 0.09857 0.2093 0.0
C2527 C 0.79772 0.09813 0.24782 0.0
C2528 C 0.79814 0.08485 0.23909 0.0
H2529 H 0.8043 0.12149 0.24977 0.0
H2530 H 0.79176 0.09828 0.25854 0.0
C2531 C 0.80571 0.08534 0.22506 0.0
C2532 C 0.92891 0.79388 0.21138 0.0
C2533 C 0.91971 0.80477 0.21828 0.0
H2534 H 0.94886 0.7803 0.21289 0.0
C2535 C 0.92411 0.81038 0.23258 0.0
H2536 H 0.92611 0.78953 0.20024 0.0
C2537 C 0.93726 0.80509 0.23985 0.0
C2538 C 0.94631 0.79403 0.23301 0.0
H2539 H 0.91724 0.81865 0.23832 0.0
H2540 H 0.94015 0.80943 0.25097 0.0
C2541 C 0.942 0.78857 0.21864 0.0
C2542 C 0.20883 0.93377 0.2257 0.0
C2543 C 0.21606 0.91967 0.22644 0.0
H2544 H 0.21017 0.95751 0.2303 0.0
C2545 C 0.23088 0.91903 0.23249 0.0
H2546 H 0.19754 0.93474 0.22084 0.0
C2547 C 0.23813 0.93213 0.23799 0.0
C2548 C 0.23074 0.94618 0.23754 0.0
H2549 H 0.23671 0.90832 0.23337 0.0
H2550 H 0.24937 0.93116 0.24295 0.0
C2551 C 0.21607 0.94684 0.23115 0.0
C2552 C 0.11157 0.79723 0.8018 0.0
C2553 C 0.11087 0.8028 0.81669 0.0
H2554 H 0.09943 0.78731 0.78313 0.0
C2555 C 0.09669 0.80314 0.82395 0.0
H2556 H 0.12234 0.79666 0.79595 0.0
C2557 C 0.08356 0.79785 0.8166 0.0
C2558 C 0.08426 0.79202 0.80181 0.0
H2559 H 0.0957 0.80762 0.83531 0.0
H2560 H 0.07282 0.79844 0.8225 0.0
C2561 C 0.09842 0.79187 0.79445 0.0
C2562 C 0.23079 0.10916 0.80112 0.0
C2563 C 0.22319 0.10786 0.81508 0.0
H2564 H 0.24253 0.09775 0.78335 0.0
C2565 C 0.22096 0.09334 0.82139 0.0
H2566 H 0.23284 0.12018 0.79601 0.0
C2567 C 0.22647 0.08049 0.81412 0.0
C2568 C 0.23441 0.08179 0.80035 0.0
H2569 H 0.2149 0.09188 0.83197 0.0
H2570 H 0.22445 0.0695 0.81931 0.0
C2571 C 0.23635 0.09628 0.79385 0.0
C2572 C 0.93162 0.21804 0.81568 0.0
C2573 C 0.9181 0.21853 0.8071 0.0
H2574 H 0.95522 0.22417 0.81711 0.0
C2575 C 0.91813 0.22661 0.7933 0.0
H2576 H 0.93206 0.21177 0.82627 0.0
C2577 C 0.93139 0.23376 0.78806 0.0
C2578 C 0.94501 0.23299 0.79646 0.0
H2579 H 0.90786 0.22745 0.78653 0.0
H2580 H 0.93095 0.23994 0.77742 0.0
C2581 C 0.94491 0.22516 0.81042 0.0
C2582 C 0.81829 0.92639 0.78949 0.0
C2583 C 0.815 0.9204 0.80395 0.0
H2584 H 0.81373 0.94355 0.77287 0.0
C2585 C 0.80398 0.92763 0.81279 0.0
H2586 H 0.82645 0.92098 0.78221 0.0
C2587 C 0.79661 0.94059 0.80738 0.0
C2588 C 0.8001 0.94669 0.793 0.0
H2589 H 0.80127 0.92346 0.82405 0.0
H2590 H 0.78843 0.94604 0.81461 0.0
C2591 C 0.81097 0.93935 0.78411 0.0
C2592 C 0.22557 0.10318 0.2203 0.0
C2593 C 0.21421 0.11016 0.22891 0.0
H2594 H 0.24138 0.08496 0.21868 0.0
C2595 C 0.21059 0.10395 0.2432 0.0
H2596 H 0.22854 0.10751 0.20917 0.0
C2597 C 0.2179 0.09099 0.24862 0.0
C2598 C 0.22909 0.08389 0.23993 0.0
H2599 H 0.20216 0.10917 0.25032 0.0
H2600 H 0.21486 0.0866 0.25971 0.0
C2601 C 0.23293 0.09023 0.22575 0.0
C2602 C 0.21683 0.93054 0.81229 0.0
C2603 C 0.21765 0.91711 0.80387 0.0
H2604 H 0.22274 0.95407 0.81373 0.0
C2605 C 0.22597 0.91723 0.79029 0.0
H2606 H 0.21033 0.93089 0.82268 0.0
C2607 C 0.23319 0.9305 0.78519 0.0
C2608 C 0.2322 0.94402 0.7935 0.0
H2609 H 0.227 0.90701 0.78366 0.0
H2610 H 0.23965 0.93013 0.77478 0.0
C2611 C 0.22398 0.94384 0.80715 0.0
C2612 C 0.09747 0.21648 0.81446 0.0
C2613 C 0.11077 0.21669 0.80566 0.0
H2614 H 0.07417 0.22299 0.81624 0.0
C2615 C 0.11065 0.22463 0.79177 0.0
H2616 H 0.09709 0.21033 0.82512 0.0
C2617 C 0.09753 0.23194 0.7867 0.0
C2618 C 0.08412 0.23148 0.79534 0.0
H2619 H 0.12076 0.22525 0.78483 0.0
H2620 H 0.09792 0.23802 0.776 0.0
C2621 C 0.08431 0.22376 0.80936 0.0
C2622 C 0.79215 0.10095 0.82255 0.0
C2623 C 0.80266 0.11088 0.81558 0.0
H2624 H 0.77908 0.08043 0.82097 0.0
C2625 C 0.80808 0.10723 0.80107 0.0
H2626 H 0.78797 0.10319 0.83384 0.0
C2627 C 0.803 0.09408 0.79369 0.0
C2628 C 0.79234 0.08428 0.80061 0.0
H2629 H 0.81605 0.11468 0.79528 0.0
H2630 H 0.80719 0.09174 0.78242 0.0
C2631 C 0.78705 0.08786 0.81516 0.0
C2632 C 0.92515 0.78877 0.81823 0.0
C2633 C 0.91892 0.80274 0.81381 0.0
H2634 H 0.94263 0.77248 0.81499 0.0
C2635 C 0.92624 0.81114 0.80229 0.0
H2636 H 0.91999 0.78205 0.82718 0.0
C2637 C 0.93945 0.80574 0.79546 0.0
C2638 C 0.9457 0.79179 0.79993 0.0
H2639 H 0.92171 0.82186 0.79846 0.0
H2640 H 0.94488 0.81265 0.78681 0.0
C2641 C 0.93831 0.78336 0.81136 0.0
C2642 C 0.80356 0.91924 0.23983 0.0
C2643 C 0.81231 0.91957 0.22651 0.0
H2644 H 0.78962 0.93155 0.25517 0.0
C2645 C 0.81338 0.93323 0.21826 0.0
H2646 H 0.80226 0.90886 0.24632 0.0
C2647 C 0.80619 0.9463 0.22338 0.0
C2648 C 0.79768 0.94605 0.23687 0.0
H2649 H 0.82016 0.93393 0.20805 0.0
H2650 H 0.80765 0.95671 0.21697 0.0
C2651 C 0.79633 0.93228 0.24492 0.0
C2652 C 0.1072 0.80818 0.2324 0.0
C2653 C 0.11098 0.80275 0.21794 0.0
H2654 H 0.09151 0.80734 0.25094 0.0
C2655 C 0.10107 0.79227 0.21092 0.0
H2656 H 0.11463 0.81612 0.23824 0.0
C2657 C 0.08787 0.7872 0.21822 0.0
C2658 C 0.08416 0.79251 0.23273 0.0
H2659 H 0.1034 0.78808 0.19966 0.0
H2660 H 0.08045 0.77925 0.21239 0.0
C2661 C 0.09394 0.80313 0.2397 0.0
C2662 C 0.93317 0.22649 0.20887 0.0
C2663 C 0.91902 0.22685 0.21621 0.0
H2664 H 0.95703 0.23125 0.21016 0.0
C2665 C 0.9184 0.2325 0.23107 0.0
H2666 H 0.9341 0.22196 0.19753 0.0
C2667 C 0.93157 0.23792 0.23832 0.0
C2668 C 0.94569 0.23777 0.23089 0.0
H2669 H 0.90766 0.23308 0.23698 0.0
H2670 H 0.93062 0.24254 0.24962 0.0
C2671 C 0.94632 0.23185 0.21612 0.0
C2672 C 0.2386 0.71028 0.60338 0.0
C2673 C 0.22708 0.71683 0.61212 0.0
H2674 H 0.25261 0.71191 0.58365 0.0
C2675 C 0.2209 0.73066 0.60719 0.0
H2676 H 0.24342 0.6995 0.60662 0.0
C2677 C 0.22616 0.73777 0.59393 0.0
C2678 C 0.23776 0.73125 0.58527 0.0
H2679 H 0.21217 0.73614 0.61371 0.0
H2680 H 0.22132 0.74851 0.59059 0.0
C2681 C 0.24388 0.7174 0.59017 0.0
C2682 C 0.78705 0.71274 0.60665 0.0
C2683 C 0.8007 0.7174 0.61369 0.0
H2684 H 0.77134 0.71596 0.58836 0.0
C2685 C 0.80911 0.72936 0.60706 0.0
H2686 H 0.78036 0.70345 0.61127 0.0
C2687 C 0.80407 0.73635 0.59369 0.0
C2688 C 0.79046 0.73162 0.58661 0.0
H2689 H 0.81958 0.73339 0.61224 0.0
H2690 H 0.81099 0.74532 0.58878 0.0
C2691 C 0.78198 0.71978 0.59333 0.0
C2692 C 0.80649 0.32135 0.59671 0.0
C2693 C 0.80543 0.31438 0.61106 0.0
H2694 H 0.80219 0.3197 0.57287 0.0
C2695 C 0.79909 0.29969 0.61202 0.0
H2696 H 0.81158 0.33252 0.5955 0.0
C2697 C 0.79364 0.29232 0.599 0.0
C2698 C 0.79441 0.29946 0.5847 0.0
H2699 H 0.79795 0.29405 0.62291 0.0
H2700 H 0.78845 0.2812 0.60021 0.0
C2701 C 0.80108 0.31399 0.58372 0.0
C2702 C 0.2429 0.31682 0.60716 0.0
C2703 C 0.22902 0.31233 0.61377 0.0
H2704 H 0.25887 0.31367 0.58929 0.0
C2705 C 0.22048 0.3007 0.60677 0.0
H2706 H 0.24972 0.32586 0.61207 0.0
C2707 C 0.22562 0.29388 0.59346 0.0
C2708 C 0.23945 0.29848 0.58681 0.0
H2709 H 0.20983 0.2968 0.6116 0.0
H2710 H 0.2186 0.28518 0.58825 0.0
C2711 C 0.24806 0.30997 0.59392 0.0
C2712 C 0.23223 0.30156 0.42087 0.0
C2713 C 0.22606 0.31616 0.42162 0.0
H2714 H 0.2427 0.28327 0.43291 0.0
C2715 C 0.22525 0.32327 0.43582 0.0
H2716 H 0.23319 0.29584 0.41008 0.0
C2717 C 0.23063 0.31604 0.44891 0.0
C2718 C 0.23702 0.30153 0.44815 0.0
H2719 H 0.22034 0.33441 0.43684 0.0
H2720 H 0.22964 0.3218 0.45967 0.0
C2721 C 0.23767 0.29435 0.43397 0.0
C2722 C 0.22785 0.71742 0.42727 0.0
C2723 C 0.21594 0.7255 0.42036 0.0
H2724 H 0.24407 0.71637 0.44549 0.0
C2725 C 0.2118 0.73947 0.42663 0.0
H2726 H 0.23125 0.70655 0.42286 0.0
C2727 C 0.2191 0.74506 0.4396 0.0
C2728 C 0.23081 0.73687 0.44667 0.0
H2729 H 0.20293 0.7462 0.42144 0.0
H2730 H 0.21563 0.75588 0.44405 0.0
C2731 C 0.2352 0.72304 0.44025 0.0
C2732 C 0.8205 0.73821 0.43098 0.0
C2733 C 0.81412 0.72623 0.4225 0.0
H2734 H 0.81856 0.75279 0.45013 0.0
C2735 C 0.80007 0.72003 0.42715 0.0
H2736 H 0.83117 0.74344 0.42765 0.0
C2737 C 0.79265 0.72562 0.43994 0.0
C2738 C 0.7991 0.73754 0.44846 0.0
H2739 H 0.79486 0.71072 0.42101 0.0
H2740 H 0.78179 0.72066 0.44308 0.0
C2741 C 0.81312 0.74374 0.44378 0.0
C2742 C 0.81251 0.30375 0.42743 0.0
C2743 C 0.80386 0.31498 0.42014 0.0
H2744 H 0.81418 0.28805 0.44601 0.0
C2745 C 0.78951 0.31845 0.42611 0.0
H2746 H 0.82367 0.30089 0.42327 0.0
C2747 C 0.7841 0.31113 0.43915 0.0
C2748 C 0.79285 0.30009 0.44659 0.0
H2749 H 0.78236 0.32678 0.42063 0.0
H2750 H 0.77297 0.31405 0.44335 0.0
C2751 C 0.80707 0.29638 0.44048 0.0
C2752 C 0.09538 0.72537 0.70935 0.0
C2753 C 0.10968 0.72581 0.71657 0.0
H2754 H 0.07166 0.73023 0.7107 0.0
C2755 C 0.11067 0.73165 0.73137 0.0
H2756 H 0.09413 0.72069 0.69807 0.0
C2757 C 0.09775 0.73719 0.73862 0.0
C2758 C 0.0835 0.737 0.73127 0.0
H2759 H 0.12152 0.73232 0.7372 0.0
H2760 H 0.099 0.74196 0.74985 0.0
C2761 C 0.08248 0.73088 0.71659 0.0
C2762 C 0.80294 0.61138 0.74032 0.0
C2763 C 0.81265 0.61079 0.72772 0.0
H2764 H 0.78827 0.59906 0.75545 0.0
C2765 C 0.81469 0.59683 0.72047 0.0
H2766 H 0.80122 0.62195 0.74623 0.0
C2767 C 0.80729 0.58373 0.72576 0.0
C2768 C 0.79776 0.58427 0.7385 0.0
H2769 H 0.82199 0.59602 0.71066 0.0
H2770 H 0.80927 0.57312 0.72004 0.0
C2771 C 0.79564 0.59825 0.74569 0.0
C2772 C 0.92488 0.31145 0.73172 0.0
C2773 C 0.91807 0.30349 0.71962 0.0
H2774 H 0.94325 0.31273 0.74775 0.0
C2775 C 0.92494 0.29009 0.71467 0.0
H2776 H 0.91985 0.32173 0.73595 0.0
C2777 C 0.93823 0.28482 0.72158 0.0
C2778 C 0.94511 0.29282 0.7336 0.0
H2779 H 0.92019 0.28374 0.70527 0.0
H2780 H 0.94307 0.27438 0.71752 0.0
C2781 C 0.93822 0.30618 0.73862 0.0
C2782 C 0.21361 0.42464 0.74266 0.0
C2783 C 0.2168 0.41901 0.72813 0.0
H2784 H 0.21804 0.44178 0.75923 0.0
C2785 C 0.22764 0.42675 0.71919 0.0
H2786 H 0.20561 0.41882 0.75001 0.0
C2787 C 0.23484 0.43994 0.72454 0.0
C2788 C 0.23136 0.44572 0.73893 0.0
H2789 H 0.23028 0.42283 0.7079 0.0
H2790 H 0.24285 0.44582 0.71723 0.0
C2791 C 0.22077 0.43782 0.74797 0.0
C2792 C 0.10379 0.31061 0.30568 0.0
C2793 C 0.11166 0.3013 0.316 0.0
H2794 H 0.08468 0.31287 0.29069 0.0
C2795 C 0.10617 0.28647 0.31857 0.0
H2796 H 0.10757 0.32214 0.30356 0.0
C2797 C 0.09301 0.28119 0.31125 0.0
C2798 C 0.08503 0.29057 0.30111 0.0
H2799 H 0.11209 0.27886 0.32619 0.0
H2800 H 0.08915 0.2697 0.31346 0.0
C2801 C 0.09065 0.3053 0.2983 0.0
C2802 C 0.21954 0.60391 0.30164 0.0
C2803 C 0.22725 0.61009 0.31424 0.0
H2804 H 0.21838 0.58617 0.28516 0.0
C2805 C 0.2403 0.60271 0.31969 0.0
H2806 H 0.20954 0.60935 0.29702 0.0
C2807 C 0.24549 0.58955 0.31275 0.0
C2808 C 0.23776 0.58331 0.3002 0.0
H2809 H 0.24644 0.60697 0.32948 0.0
H2810 H 0.25568 0.58432 0.3172 0.0
C2811 C 0.22473 0.5907 0.29471 0.0
C2812 C 0.92587 0.72739 0.31423 0.0
C2813 C 0.91844 0.71611 0.30562 0.0
H2814 H 0.9446 0.7431 0.31576 0.0
C2815 C 0.92425 0.71261 0.29123 0.0
H2816 H 0.92182 0.73028 0.32541 0.0
C2817 C 0.93732 0.7199 0.28575 0.0
C2818 C 0.94492 0.73095 0.29446 0.0
H2819 H 0.91865 0.70426 0.28412 0.0
H2820 H 0.94144 0.71693 0.27461 0.0
C2821 C 0.93894 0.73474 0.3087 0.0
C2822 C 0.80034 0.42048 0.29943 0.0
C2823 C 0.81506 0.42153 0.30569 0.0
H2824 H 0.78183 0.43211 0.28881 0.0
C2825 C 0.82213 0.43588 0.30654 0.0
H2826 H 0.79464 0.40959 0.29842 0.0
C2827 C 0.81478 0.4488 0.30107 0.0
C2828 C 0.80017 0.44774 0.29455 0.0
H2829 H 0.83334 0.43716 0.31154 0.0
H2830 H 0.82054 0.45966 0.30206 0.0
C2831 C 0.793 0.43341 0.29391 0.0
C2832 C 0.22798 0.60566 0.72106 0.0
C2833 C 0.21565 0.61186 0.72891 0.0
H2834 H 0.24422 0.58783 0.71977 0.0
C2835 C 0.2105 0.60442 0.74211 0.0
H2836 H 0.23238 0.61113 0.71094 0.0
C2837 C 0.21746 0.59119 0.74732 0.0
C2838 C 0.22973 0.58493 0.73944 0.0
H2839 H 0.20092 0.6087 0.74837 0.0
H2840 H 0.21325 0.58593 0.75763 0.0
C2841 C 0.23492 0.59237 0.72624 0.0
C2842 C 0.22552 0.41773 0.29011 0.0
C2843 C 0.21732 0.41758 0.30376 0.0
H2844 H 0.23913 0.43063 0.27453 0.0
C2845 C 0.21665 0.43099 0.31225 0.0
H2846 H 0.22644 0.40754 0.28341 0.0
C2847 C 0.22383 0.44427 0.30711 0.0
C2848 C 0.23193 0.44447 0.29338 0.0
H2849 H 0.21026 0.43132 0.32271 0.0
H2850 H 0.22272 0.45447 0.31376 0.0
C2851 C 0.23277 0.43099 0.28501 0.0
C2852 C 0.10353 0.72598 0.31328 0.0
C2853 C 0.1103 0.71456 0.30462 0.0
H2854 H 0.08543 0.74194 0.31505 0.0
C2855 C 0.10388 0.711 0.2904 0.0
H2856 H 0.10804 0.72893 0.32435 0.0
C2857 C 0.0909 0.7184 0.28513 0.0
C2858 C 0.08399 0.72964 0.29387 0.0
H2859 H 0.10895 0.70253 0.28325 0.0
H2860 H 0.08633 0.71539 0.2741 0.0
C2861 C 0.09055 0.73345 0.30796 0.0
C2862 C 0.81188 0.59884 0.31396 0.0
C2863 C 0.80284 0.61188 0.31422 0.0
H2864 H 0.81384 0.57576 0.30699 0.0
C2865 C 0.78873 0.61156 0.30665 0.0
H2866 H 0.82272 0.59864 0.31983 0.0
C2867 C 0.78366 0.59846 0.29923 0.0
C2868 C 0.79254 0.58531 0.29922 0.0
H2869 H 0.7816 0.62148 0.30641 0.0
H2870 H 0.77277 0.59867 0.29344 0.0
C2871 C 0.80678 0.58572 0.30657 0.0
C2872 C 0.92516 0.28916 0.31826 0.0
C2873 C 0.91895 0.30315 0.31386 0.0
H2874 H 0.94263 0.27287 0.31503 0.0
C2875 C 0.92632 0.31159 0.30241 0.0
H2876 H 0.91996 0.28242 0.32717 0.0
C2877 C 0.93956 0.30621 0.2956 0.0
C2878 C 0.94578 0.29223 0.30004 0.0
H2879 H 0.92182 0.32233 0.29859 0.0
H2880 H 0.94503 0.31314 0.287 0.0
C2881 C 0.93834 0.28377 0.31143 0.0
C2882 C 0.81256 0.4329 0.71877 0.0
C2883 C 0.81135 0.41925 0.72702 0.0
H2884 H 0.80707 0.45646 0.71751 0.0
C2885 C 0.80262 0.41901 0.74034 0.0
H2886 H 0.81934 0.43355 0.70856 0.0
C2887 C 0.79554 0.43212 0.74545 0.0
C2888 C 0.79703 0.44587 0.73741 0.0
H2889 H 0.80121 0.40863 0.74683 0.0
H2890 H 0.78884 0.43146 0.75571 0.0
C2891 C 0.80551 0.44605 0.72391 0.0
C2892 C 0.10607 0.30969 0.73094 0.0
C2893 C 0.11221 0.30173 0.71866 0.0
H2894 H 0.08814 0.3112 0.7472 0.0
C2895 C 0.10458 0.28857 0.71362 0.0
H2896 H 0.11169 0.31977 0.73525 0.0
C2897 C 0.09122 0.28352 0.72062 0.0
C2898 C 0.08501 0.29152 0.73283 0.0
H2899 H 0.10881 0.28224 0.70408 0.0
H2900 H 0.0858 0.27326 0.7165 0.0
C2901 C 0.09265 0.30465 0.73793 0.0
C2902 C 0.91892 0.73156 0.73096 0.0
C2903 C 0.91959 0.72588 0.71611 0.0
H2904 H 0.93106 0.74172 0.74949 0.0
C2905 C 0.93375 0.72557 0.7088 0.0
H2906 H 0.90816 0.73212 0.73685 0.0
C2907 C 0.94687 0.73101 0.71605 0.0
C2908 C 0.94618 0.73697 0.7308 0.0
H2909 H 0.93471 0.72102 0.69746 0.0
H2910 H 0.95759 0.73046 0.71011 0.0
C2911 C 0.93205 0.73707 0.73821 0.0
C2912 C 0.72436 0.20776 0.59623 0.0
C2913 C 0.72512 0.21482 0.61048 0.0
H2914 H 0.72914 0.20928 0.57249 0.0
C2915 C 0.73152 0.22947 0.61139 0.0
H2916 H 0.71925 0.1966 0.59504 0.0
C2917 C 0.73727 0.23675 0.59842 0.0
C2918 C 0.73673 0.22957 0.5842 0.0
H2919 H 0.73246 0.23517 0.62221 0.0
H2920 H 0.74246 0.24786 0.59961 0.0
C2921 C 0.73007 0.21503 0.58328 0.0
C2922 C 0.29806 0.22985 0.61206 0.0
C2923 C 0.30372 0.21504 0.61136 0.0
H2924 H 0.28815 0.24842 0.59995 0.0
C2925 C 0.30424 0.20784 0.59719 0.0
H2926 H 0.29734 0.23566 0.62282 0.0
C2927 C 0.29904 0.21516 0.58408 0.0
C2928 C 0.29312 0.22987 0.58479 0.0
H2929 H 0.30878 0.19654 0.5962 0.0
H2930 H 0.29977 0.2093 0.57336 0.0
C2931 C 0.2928 0.23717 0.59894 0.0
C2932 C 0.29178 0.80427 0.61169 0.0
C2933 C 0.30521 0.81308 0.61156 0.0
H2934 H 0.27632 0.79019 0.59913 0.0
C2935 C 0.31351 0.81418 0.59799 0.0
H2936 H 0.28525 0.80295 0.622 0.0
C2937 C 0.30834 0.80692 0.58481 0.0
C2938 C 0.29475 0.79832 0.58487 0.0
H2939 H 0.3238 0.82102 0.59743 0.0
H2940 H 0.31479 0.8084 0.57447 0.0
C2941 C 0.28665 0.79696 0.59854 0.0
C2942 C 0.74081 0.81723 0.60661 0.0
C2943 C 0.72704 0.81265 0.61337 0.0
H2944 H 0.75662 0.81417 0.58858 0.0
C2945 C 0.7185 0.80097 0.60646 0.0
H2946 H 0.74762 0.82631 0.61145 0.0
C2947 C 0.72354 0.79416 0.59311 0.0
C2948 C 0.73728 0.79884 0.58632 0.0
H2949 H 0.70793 0.797 0.61141 0.0
H2950 H 0.71654 0.7854 0.58798 0.0
C2951 C 0.74588 0.8104 0.59333 0.0
C2952 C 0.72017 0.80215 0.42593 0.0
C2953 C 0.72821 0.81451 0.41959 0.0
H2954 H 0.71862 0.78591 0.44401 0.0
C2955 C 0.74149 0.81968 0.42698 0.0
H2956 H 0.70999 0.79773 0.42049 0.0
C2957 C 0.74659 0.81272 0.44032 0.0
C2958 C 0.7385 0.80044 0.44673 0.0
H2959 H 0.74788 0.82928 0.42257 0.0
H2960 H 0.75696 0.81693 0.44555 0.0
C2961 C 0.72524 0.79523 0.43934 0.0
C2962 C 0.71906 0.216 0.43285 0.0
C2963 C 0.71904 0.22481 0.4195 0.0
H2964 H 0.72567 0.21439 0.45622 0.0
C2965 C 0.72671 0.23888 0.41958 0.0
H2966 H 0.7131 0.20519 0.43325 0.0
C2967 C 0.73396 0.24414 0.43274 0.0
C2968 C 0.7337 0.23549 0.4462 0.0
H2969 H 0.72716 0.24584 0.40943 0.0
H2970 H 0.73981 0.25499 0.43233 0.0
C2971 C 0.72628 0.22128 0.44603 0.0
C2972 C 0.30324 0.24072 0.42016 0.0
C2973 C 0.31061 0.22667 0.4201 0.0
H2974 H 0.29046 0.25673 0.43285 0.0
C2975 C 0.31041 0.21779 0.4334 0.0
H2976 H 0.30294 0.24773 0.41004 0.0
C2977 C 0.30329 0.22298 0.44653 0.0
C2978 C 0.29616 0.23717 0.44668 0.0
H2979 H 0.31613 0.207 0.43382 0.0
H2980 H 0.30376 0.21604 0.45669 0.0
C2981 C 0.29609 0.24589 0.43326 0.0
C2982 C 0.29238 0.82096 0.42867 0.0
C2983 C 0.30351 0.81426 0.41955 0.0
H2984 H 0.2787 0.81931 0.44863 0.0
C2985 C 0.30932 0.80012 0.42404 0.0
H2986 H 0.28786 0.83196 0.42578 0.0
C2987 C 0.30407 0.79287 0.43723 0.0
C2988 C 0.29286 0.79954 0.44626 0.0
H2989 H 0.31775 0.79452 0.41723 0.0
H2990 H 0.30862 0.7819 0.44022 0.0
C2991 C 0.28712 0.8137 0.44181 0.0
C2992 C 0.60272 0.21782 0.72704 0.0
C2993 C 0.61061 0.22692 0.71646 0.0
H2994 H 0.58379 0.21582 0.74218 0.0
C2995 C 0.60537 0.24168 0.71363 0.0
H2996 H 0.60631 0.20635 0.7294 0.0
C2997 C 0.59244 0.24708 0.72092 0.0
C2998 C 0.5844 0.23791 0.73129 0.0
H2999 H 0.61132 0.24915 0.70582 0.0
H3000 H 0.58881 0.25852 0.71849 0.0
C3001 C 0.58979 0.22325 0.73438 0.0
C3002 C 0.30093 0.10529 0.72126 0.0
C3003 C 0.31439 0.11057 0.72824 0.0
H3004 H 0.28303 0.08865 0.72109 0.0
C3005 C 0.3201 0.10252 0.74082 0.0
H3006 H 0.29626 0.11109 0.71146 0.0
C3007 C 0.31267 0.08948 0.74617 0.0
C3008 C 0.29924 0.08416 0.73917 0.0
H3009 H 0.3303 0.10634 0.74665 0.0
H3010 H 0.31761 0.08345 0.75569 0.0
C3011 C 0.29344 0.09228 0.72667 0.0
C3012 C 0.42867 0.79348 0.71126 0.0
C3013 C 0.41948 0.80448 0.718 0.0
H3014 H 0.44852 0.77979 0.71303 0.0
C3015 C 0.42379 0.81016 0.7323 0.0
H3016 H 0.42593 0.78907 0.70012 0.0
C3017 C 0.43684 0.80484 0.73972 0.0
C3018 C 0.44589 0.79368 0.73303 0.0
H3019 H 0.41691 0.81851 0.73792 0.0
H3020 H 0.43967 0.80925 0.75083 0.0
C3021 C 0.44166 0.78815 0.71867 0.0
C3022 C 0.73063 0.91902 0.7324 0.0
C3023 C 0.71587 0.91968 0.72622 0.0
H3024 H 0.74909 0.93116 0.74293 0.0
C3025 C 0.70873 0.93382 0.72526 0.0
H3026 H 0.73641 0.90829 0.73345 0.0
C3027 C 0.71599 0.94691 0.73066 0.0
C3028 C 0.7306 0.94622 0.73721 0.0
H3029 H 0.6975 0.9348 0.72029 0.0
H3030 H 0.71015 0.9576 0.72966 0.0
C3031 C 0.73791 0.93214 0.73785 0.0
C3032 C 0.60338 0.81046 0.3053 0.0
C3033 C 0.61133 0.80116 0.31557 0.0
H3034 H 0.58423 0.81265 0.29034 0.0
C3035 C 0.60594 0.78629 0.31809 0.0
H3036 H 0.60707 0.82203 0.30322 0.0
C3037 C 0.59282 0.78095 0.31077 0.0
C3038 C 0.58476 0.79031 0.30067 0.0
H3039 H 0.61193 0.7787 0.32567 0.0
H3040 H 0.58904 0.76942 0.31293 0.0
C3041 C 0.59027 0.80509 0.29792 0.0
C3042 C 0.74022 0.10287 0.31975 0.0
C3043 C 0.72705 0.11016 0.31447 0.0
H3044 H 0.75564 0.08453 0.31712 0.0
C3045 C 0.71914 0.10385 0.30206 0.0
H3046 H 0.74652 0.10724 0.3294 0.0
C3047 C 0.72427 0.09061 0.29514 0.0
C3048 C 0.73743 0.08332 0.30045 0.0
H3049 H 0.70904 0.1092 0.29758 0.0
H3050 H 0.71778 0.08598 0.28574 0.0
C3051 C 0.74535 0.08968 0.31282 0.0
C3052 C 0.42551 0.22762 0.31403 0.0
C3053 C 0.41817 0.21625 0.30547 0.0
H3054 H 0.44421 0.24337 0.31555 0.0
C3055 C 0.42409 0.21263 0.29117 0.0
H3056 H 0.42137 0.23061 0.32515 0.0
C3057 C 0.43718 0.21989 0.28571 0.0
C3058 C 0.44471 0.23103 0.29437 0.0
H3059 H 0.41856 0.2042 0.28409 0.0
H3060 H 0.44138 0.21681 0.27463 0.0
C3061 C 0.43862 0.23494 0.30853 0.0
C3062 C 0.31878 0.92628 0.2894 0.0
C3063 C 0.31559 0.92028 0.30388 0.0
H3064 H 0.31409 0.94343 0.27281 0.0
C3065 C 0.3046 0.92748 0.31278 0.0
H3066 H 0.32692 0.92089 0.28207 0.0
C3067 C 0.29718 0.94043 0.30741 0.0
C3068 C 0.30057 0.94654 0.29302 0.0
H3069 H 0.30197 0.92332 0.32406 0.0
H3070 H 0.28902 0.94586 0.31469 0.0
C3071 C 0.3114 0.93923 0.28406 0.0
C3072 C 0.70739 0.09531 0.72515 0.0
C3073 C 0.71425 0.1097 0.72655 0.0
H3074 H 0.70905 0.07147 0.72923 0.0
C3075 C 0.72869 0.11078 0.73344 0.0
H3076 H 0.6964 0.09401 0.71966 0.0
C3077 C 0.73594 0.09783 0.73903 0.0
C3078 C 0.72895 0.08345 0.73783 0.0
H3079 H 0.73423 0.12171 0.73487 0.0
H3080 H 0.74687 0.09914 0.74462 0.0
C3081 C 0.71464 0.08237 0.73068 0.0
C3082 C 0.72542 0.91767 0.28982 0.0
C3083 C 0.71728 0.91741 0.3035 0.0
H3084 H 0.73896 0.9307 0.2743 0.0
C3085 C 0.71666 0.93073 0.31213 0.0
H3086 H 0.72631 0.90754 0.28303 0.0
C3087 C 0.72381 0.94406 0.30707 0.0
C3088 C 0.73184 0.94438 0.29331 0.0
H3089 H 0.71031 0.93096 0.32261 0.0
H3090 H 0.72273 0.9542 0.31381 0.0
C3091 C 0.73265 0.93097 0.28481 0.0
C3092 C 0.60371 0.21101 0.291 0.0
C3093 C 0.61017 0.21472 0.30515 0.0
H3094 H 0.58614 0.21525 0.27468 0.0
C3095 C 0.60345 0.22625 0.3137 0.0
H3096 H 0.60875 0.20245 0.28392 0.0
C3097 C 0.59046 0.23367 0.30833 0.0
C3098 C 0.58386 0.22972 0.2943 0.0
H3099 H 0.608 0.22932 0.32472 0.0
H3100 H 0.58538 0.24226 0.31534 0.0
C3101 C 0.59073 0.21838 0.28566 0.0
C3102 C 0.28883 0.11112 0.30687 0.0
C3103 C 0.30292 0.11157 0.31449 0.0
H3104 H 0.27299 0.09808 0.29369 0.0
C3105 C 0.31203 0.09859 0.31432 0.0
H3106 H 0.28165 0.121 0.30653 0.0
C3107 C 0.30703 0.08539 0.307 0.0
C3108 C 0.29281 0.08485 0.29961 0.0
H3109 H 0.32287 0.09848 0.32023 0.0
H3110 H 0.31415 0.07547 0.30748 0.0
C3111 C 0.28386 0.09796 0.29951 0.0
C3112 C 0.42802 0.81268 0.305 0.0
C3113 C 0.42005 0.80368 0.31561 0.0
H3114 H 0.44696 0.81447 0.28986 0.0
C3115 C 0.42521 0.78891 0.31854 0.0
H3116 H 0.4245 0.82416 0.30258 0.0
C3117 C 0.43809 0.78338 0.31128 0.0
C3118 C 0.44618 0.79243 0.30084 0.0
H3119 H 0.4192 0.78152 0.32638 0.0
H3120 H 0.44163 0.77191 0.31376 0.0
C3121 C 0.44091 0.80712 0.2977 0.0
C3122 C 0.3005 0.9249 0.72045 0.0
C3123 C 0.31442 0.92029 0.72685 0.0
H3124 H 0.28243 0.941 0.72065 0.0
C3125 C 0.32096 0.92919 0.73842 0.0
H3126 H 0.29503 0.91825 0.71164 0.0
C3127 C 0.31371 0.94217 0.74362 0.0
C3128 C 0.29972 0.94668 0.73736 0.0
H3129 H 0.33181 0.92623 0.7434 0.0
H3130 H 0.31917 0.94879 0.75245 0.0
C3131 C 0.29326 0.93794 0.72563 0.0
C3132 C 0.60043 0.79222 0.711 0.0
C3133 C 0.61026 0.8028 0.71798 0.0
H3134 H 0.57988 0.77909 0.7125 0.0
C3135 C 0.60641 0.80832 0.73239 0.0
H3136 H 0.60283 0.78796 0.69978 0.0
C3137 C 0.59315 0.80325 0.73968 0.0
C3138 C 0.58346 0.79252 0.73276 0.0
H3139 H 0.61378 0.81634 0.73819 0.0
H3140 H 0.59066 0.80752 0.75088 0.0
C3141 C 0.58724 0.78714 0.7183 0.0
C3142 C 0.42484 0.22048 0.72912 0.0
C3143 C 0.41805 0.2288 0.71728 0.0
H3144 H 0.44327 0.21881 0.74498 0.0
C3145 C 0.42495 0.24254 0.71273 0.0
H3146 H 0.41978 0.20995 0.73308 0.0
C3147 C 0.43828 0.24778 0.71976 0.0
C3148 C 0.44517 0.23939 0.73149 0.0
H3149 H 0.42021 0.24919 0.70353 0.0
H3150 H 0.44314 0.25849 0.71603 0.0
C3151 C 0.43823 0.22568 0.73611 0.0
C3152 C 0.72395 0.70779 0.09642 0.0
C3153 C 0.72464 0.71489 0.11066 0.0
H3154 H 0.72881 0.70925 0.0727 0.0
C3155 C 0.73098 0.72957 0.11154 0.0
H3156 H 0.71889 0.69661 0.09526 0.0
C3157 C 0.73675 0.73683 0.09857 0.0
C3158 C 0.73629 0.7296 0.08437 0.0
H3159 H 0.73186 0.73531 0.12234 0.0
H3160 H 0.7419 0.74796 0.09974 0.0
C3161 C 0.72968 0.71504 0.08347 0.0
C3162 C 0.30291 0.707 0.09757 0.0
C3163 C 0.30267 0.71417 0.11176 0.0
H3164 H 0.29806 0.70855 0.07381 0.0
C3165 C 0.29705 0.72899 0.1126 0.0
H3166 H 0.30741 0.69569 0.09647 0.0
C3167 C 0.29159 0.73636 0.09959 0.0
C3168 C 0.29167 0.72911 0.08541 0.0
H3169 H 0.29653 0.73477 0.12338 0.0
H3170 H 0.287 0.74762 0.10072 0.0
C3171 C 0.29751 0.71437 0.08457 0.0
C3172 C 0.31096 0.30044 0.10677 0.0
C3173 C 0.30464 0.31431 0.11115 0.0
H3174 H 0.31074 0.28221 0.09078 0.0
C3175 C 0.29315 0.3206 0.10197 0.0
H3176 H 0.31969 0.29516 0.11363 0.0
C3177 C 0.28798 0.31314 0.08894 0.0
C3178 C 0.29418 0.29921 0.08465 0.0
H3179 H 0.28823 0.33141 0.10476 0.0
H3180 H 0.27922 0.31841 0.0821 0.0
C3181 C 0.30582 0.29299 0.09367 0.0
C3182 C 0.73149 0.29967 0.11302 0.0
C3183 C 0.72561 0.3144 0.11208 0.0
H3184 H 0.7418 0.28128 0.10125 0.0
C3185 C 0.72503 0.32158 0.09781 0.0
H3186 H 0.73225 0.29386 0.12385 0.0
C3187 C 0.73046 0.31438 0.08487 0.0
C3188 C 0.73667 0.29979 0.08584 0.0
H3189 H 0.7203 0.3328 0.0966 0.0
H3190 H 0.72972 0.32025 0.07407 0.0
C3191 C 0.73697 0.29245 0.10006 0.0
C3192 C 0.73267 0.3012 0.92127 0.0
C3193 C 0.72648 0.31579 0.92201 0.0
H3194 H 0.74316 0.28294 0.93335 0.0
C3195 C 0.72563 0.32292 0.9362 0.0
H3196 H 0.73365 0.29548 0.91049 0.0
C3197 C 0.731 0.31572 0.9493 0.0
C3198 C 0.73744 0.30122 0.94856 0.0
H3199 H 0.72069 0.33405 0.9372 0.0
H3200 H 0.72999 0.32149 0.96005 0.0
C3201 C 0.73811 0.29402 0.93439 0.0
C3202 C 0.73178 0.72007 0.92465 0.0
C3203 C 0.71743 0.72559 0.92038 0.0
H3204 H 0.75025 0.72106 0.94062 0.0
C3205 C 0.7105 0.73635 0.92972 0.0
H3206 H 0.73754 0.71191 0.91766 0.0
C3207 C 0.71779 0.74161 0.94284 0.0
C3208 C 0.73222 0.73625 0.94703 0.0
H3209 H 0.69931 0.74062 0.927 0.0
H3210 H 0.71201 0.74977 0.94981 0.0
C3211 C 0.73909 0.72533 0.93782 0.0
C3212 C 0.30308 0.74047 0.92106 0.0
C3213 C 0.31037 0.72638 0.92093 0.0
H3214 H 0.29033 0.75646 0.9338 0.0
C3215 C 0.31006 0.71741 0.93416 0.0
H3216 H 0.30287 0.74756 0.91099 0.0
C3217 C 0.30291 0.72254 0.94729 0.0
C3218 C 0.29585 0.73677 0.94751 0.0
H3219 H 0.31572 0.70658 0.93452 0.0
H3220 H 0.30328 0.71552 0.9574 0.0
C3221 C 0.2959 0.74558 0.93416 0.0
C3222 C 0.31315 0.3112 0.93297 0.0
C3223 C 0.30463 0.31039 0.91944 0.0
H3224 H 0.31456 0.30537 0.95656 0.0
C3225 C 0.29088 0.30207 0.91947 0.0
H3226 H 0.32368 0.31767 0.93342 0.0
C3227 C 0.28565 0.29499 0.93274 0.0
C3228 C 0.29401 0.29605 0.94635 0.0
H3229 H 0.28415 0.30098 0.9092 0.0
H3230 H 0.27507 0.28862 0.93229 0.0
C3231 C 0.3079 0.30414 0.94626 0.0
C3232 C 0.59438 0.72501 0.20833 0.0
C3233 C 0.60864 0.72516 0.21563 0.0
H3234 H 0.57071 0.73012 0.20963 0.0
C3235 C 0.60963 0.7308 0.23051 0.0
H3236 H 0.59313 0.72048 0.19699 0.0
C3237 C 0.59673 0.7364 0.23777 0.0
C3238 C 0.58251 0.73647 0.23035 0.0
H3239 H 0.62045 0.73125 0.23641 0.0
H3240 H 0.59799 0.741 0.24908 0.0
C3241 C 0.58151 0.73057 0.21558 0.0
C3242 C 0.29984 0.60711 0.2238 0.0
C3243 C 0.31434 0.6113 0.2293 0.0
H3244 H 0.28144 0.59099 0.22455 0.0
C3245 C 0.32146 0.60178 0.23998 0.0
H3246 H 0.29391 0.61425 0.21574 0.0
C3247 C 0.31427 0.58851 0.24508 0.0
C3248 C 0.29979 0.58434 0.2396 0.0
H3249 H 0.33274 0.60446 0.24425 0.0
H3250 H 0.32018 0.58137 0.25316 0.0
C3251 C 0.29267 0.59378 0.22887 0.0
C3252 C 0.42432 0.31048 0.23212 0.0
C3253 C 0.41998 0.30485 0.2178 0.0
H3254 H 0.44025 0.30952 0.2506 0.0
C3255 C 0.42919 0.29392 0.21097 0.0
H3256 H 0.41743 0.31878 0.2378 0.0
C3257 C 0.44222 0.28859 0.21832 0.0
C3258 C 0.44646 0.29406 0.23271 0.0
H3259 H 0.42643 0.28955 0.19983 0.0
H3260 H 0.44909 0.28028 0.21262 0.0
C3261 C 0.43741 0.30516 0.23947 0.0
C3262 C 0.7306 0.41928 0.23266 0.0
C3263 C 0.71583 0.41989 0.22648 0.0
H3264 H 0.74901 0.43146 0.2432 0.0
C3265 C 0.70862 0.434 0.22559 0.0
H3266 H 0.73642 0.40857 0.23365 0.0
C3267 C 0.71583 0.4471 0.23102 0.0
C3268 C 0.73045 0.44646 0.23754 0.0
H3269 H 0.69737 0.43494 0.22063 0.0
H3270 H 0.70994 0.45777 0.23005 0.0
C3271 C 0.73782 0.43241 0.23813 0.0
C3272 C 0.60442 0.31018 0.80584 0.0
C3273 C 0.61227 0.30079 0.81611 0.0
H3274 H 0.58534 0.31255 0.79082 0.0
C3275 C 0.60678 0.28594 0.81855 0.0
H3276 H 0.60819 0.32174 0.80383 0.0
C3277 C 0.59365 0.28072 0.81115 0.0
C3278 C 0.58569 0.29017 0.80107 0.0
H3279 H 0.61269 0.27828 0.82612 0.0
H3280 H 0.58978 0.2692 0.81327 0.0
C3281 C 0.5913 0.30492 0.79839 0.0
C3282 C 0.72174 0.59414 0.82203 0.0
C3283 C 0.72378 0.60857 0.81545 0.0
H3284 H 0.72524 0.57029 0.82022 0.0
C3285 C 0.73108 0.60968 0.80132 0.0
H3286 H 0.71591 0.59283 0.83276 0.0
C3287 C 0.73652 0.59672 0.79412 0.0
C3288 C 0.73475 0.58231 0.80087 0.0
H3289 H 0.73299 0.62063 0.796 0.0
H3290 H 0.74247 0.59804 0.78347 0.0
C3291 C 0.72712 0.5812 0.81483 0.0
C3292 C 0.42389 0.71249 0.79187 0.0
C3293 C 0.41793 0.71618 0.80614 0.0
H3294 H 0.44122 0.71663 0.77535 0.0
C3295 C 0.42525 0.72759 0.81467 0.0
H3296 H 0.41838 0.70403 0.78482 0.0
C3297 C 0.43836 0.73489 0.80917 0.0
C3298 C 0.44448 0.73093 0.79504 0.0
H3299 H 0.42109 0.73062 0.82576 0.0
H3300 H 0.44393 0.74336 0.81616 0.0
C3301 C 0.43699 0.71974 0.78641 0.0
C3302 C 0.31955 0.4348 0.80839 0.0
C3303 C 0.31281 0.42049 0.80595 0.0
H3304 H 0.31817 0.45879 0.80498 0.0
C3305 C 0.2989 0.4197 0.79802 0.0
H3306 H 0.33033 0.43582 0.81432 0.0
C3307 C 0.29195 0.43288 0.79261 0.0
C3308 C 0.2988 0.44717 0.79488 0.0
H3309 H 0.29333 0.40887 0.79605 0.0
H3310 H 0.28133 0.43185 0.7864 0.0
C3311 C 0.31266 0.44796 0.80289 0.0
C3312 C 0.71028 0.60444 0.24267 0.0
C3313 C 0.71386 0.6106 0.22835 0.0
H3314 H 0.71456 0.58713 0.25921 0.0
C3315 C 0.72516 0.60356 0.21971 0.0
H3316 H 0.70189 0.60971 0.2498 0.0
C3317 C 0.73251 0.5906 0.22518 0.0
C3318 C 0.72871 0.58432 0.23939 0.0
H3319 H 0.72811 0.60785 0.20856 0.0
H3320 H 0.74092 0.58529 0.2181 0.0
C3321 C 0.71757 0.59148 0.2481 0.0
C3322 C 0.72545 0.41753 0.79081 0.0
C3323 C 0.71727 0.41731 0.80448 0.0
H3324 H 0.73898 0.43053 0.77526 0.0
C3325 C 0.71658 0.43067 0.81303 0.0
H3326 H 0.72638 0.40737 0.78407 0.0
C3327 C 0.72371 0.44399 0.80793 0.0
C3328 C 0.73177 0.44428 0.79418 0.0
H3329 H 0.71021 0.43093 0.8235 0.0
H3330 H 0.72258 0.45417 0.81462 0.0
C3331 C 0.73264 0.43083 0.78575 0.0
C3332 C 0.60351 0.71116 0.79125 0.0
C3333 C 0.61116 0.71627 0.80435 0.0
H3334 H 0.58478 0.714 0.77596 0.0
C3335 C 0.60514 0.72863 0.81223 0.0
H3336 H 0.60764 0.70156 0.78497 0.0
C3337 C 0.59181 0.73564 0.80719 0.0
C3338 C 0.58413 0.73047 0.79412 0.0
H3339 H 0.61079 0.733 0.82227 0.0
H3340 H 0.5874 0.74497 0.81368 0.0
C3341 C 0.59023 0.71818 0.78619 0.0
C3342 C 0.31141 0.59886 0.8149 0.0
C3343 C 0.30241 0.61192 0.81491 0.0
H3344 H 0.31343 0.57572 0.80812 0.0
C3345 C 0.28841 0.61157 0.80712 0.0
H3346 H 0.32216 0.59867 0.82094 0.0
C3347 C 0.28343 0.59844 0.79971 0.0
C3348 C 0.29228 0.58526 0.79994 0.0
H3349 H 0.28132 0.62151 0.80667 0.0
H3350 H 0.27265 0.59864 0.79373 0.0
C3351 C 0.3064 0.58569 0.80753 0.0
C3352 C 0.43458 0.30725 0.82017 0.0
C3353 C 0.42032 0.30543 0.81306 0.0
H3354 H 0.45854 0.3033 0.81924 0.0
C3355 C 0.41962 0.2981 0.79893 0.0
H3356 H 0.43552 0.3127 0.83112 0.0
C3357 C 0.43283 0.29266 0.79214 0.0
C3358 C 0.44705 0.29429 0.79937 0.0
H3359 H 0.40885 0.29661 0.79308 0.0
H3360 H 0.43186 0.28691 0.78135 0.0
C3361 C 0.44776 0.30171 0.81344 0.0
C3362 C 0.30374 0.41912 0.23948 0.0
C3363 C 0.31247 0.41948 0.22615 0.0
H3364 H 0.28981 0.43138 0.25486 0.0
C3365 C 0.31356 0.43317 0.21795 0.0
H3366 H 0.30243 0.40871 0.24593 0.0
C3367 C 0.30637 0.44623 0.22312 0.0
C3368 C 0.29786 0.44593 0.23661 0.0
H3369 H 0.32033 0.4339 0.20774 0.0
H3370 H 0.30783 0.45666 0.21675 0.0
C3371 C 0.29651 0.43214 0.24461 0.0
C3372 C 0.60113 0.29213 0.21112 0.0
C3373 C 0.61098 0.3027 0.2181 0.0
H3374 H 0.58056 0.27903 0.21262 0.0
C3375 C 0.60715 0.30817 0.23254 0.0
H3376 H 0.6035 0.2879 0.19989 0.0
C3377 C 0.5939 0.30311 0.23984 0.0
C3378 C 0.58417 0.29241 0.2329 0.0
H3379 H 0.61454 0.31618 0.23834 0.0
H3380 H 0.59143 0.30736 0.25105 0.0
C3381 C 0.58794 0.28705 0.21843 0.0
C3382 C 0.42308 0.74381 0.21371 0.0
C3383 C 0.41772 0.72892 0.2162 0.0
H3384 H 0.44001 0.76067 0.21883 0.0
C3385 C 0.42575 0.71959 0.22638 0.0
H3386 H 0.41703 0.75143 0.2062 0.0
C3387 C 0.43891 0.72494 0.23369 0.0
C3388 C 0.44439 0.73974 0.23097 0.0
H3389 H 0.42209 0.70801 0.22843 0.0
H3390 H 0.445 0.71735 0.2412 0.0
C3391 C 0.43625 0.74913 0.22097 0.0
loop_
_geom_bond_atom_site_label_1
_geom_bond_atom_site_label_2
_geom_bond_distance
_geom_bond_site_symmetry_2
_ccdc_geom_bond_type
C0 C1 1.264 . S
C0 C5 1.479 . S
C0 C10 1.465 . S
C1 C0 1.264 . S
C1 C3 1.339 . S
C1 H28 0.931 . S
C2 C3 1.395 . S
C2 C4 1.320 . S
C3 C1 1.339 . S
C3 C2 1.395 . S
C3 H29 0.929 . S
C4 C2 1.320 . S
C4 C5 1.405 . S
C4 H30 0.930 . S
C5 C0 1.479 . S
C5 C4 1.405 . S
C5 H31 0.931 . S
U6 O7 2.454 . S
U6 O8 2.458 . S
U6 C9 2.984 . S
U6 C10 2.847 . S
U6 C23 2.882 . S
U6 O24 2.441 . S
U6 O25 2.420 . S
U6 O26 2.455 . S
U6 O27 2.449 . S
O7 U6 2.454 . S
O7 C9 1.353 . S
O8 U6 2.458 . S
O8 C9 1.286 . S
C9 U6 2.984 . S
C9 O7 1.353 . S
C9 O8 1.286 . S
C9 C11 1.363 . S
C10 C0 1.465 . S
C10 U6 2.847 . S
C10 O24 1.249 . S
C10 O25 1.202 . S
C11 C9 1.363 . S
C11 C13 1.408 . S
C11 C16 1.342 . S
C12 C13 1.310 . S
C12 C15 1.461 . S
C12 H32 0.932 . S
C13 C11 1.408 . S
C13 C12 1.310 . S
C13 H33 0.930 . S
C14 C15 1.474 . S
C14 C16 1.285 . S
C14 H34 0.929 . S
C15 C12 1.461 . S
C15 C14 1.474 . S
C16 C11 1.342 . S
C16 C14 1.285 . S
C16 H35 0.930 . S
C17 C20 1.424 . S
C17 C22 1.245 . S
C17 C23 1.428 . S
C18 C21 1.260 . S
C18 C22 1.477 . S
C18 H36 0.932 . S
C19 C20 1.384 . S
C19 C21 1.479 . S
C19 H37 0.929 . S
C20 C17 1.424 . S
C20 C19 1.384 . S
C20 H38 0.928 . S
C21 C18 1.260 . S
C21 C19 1.479 . S
C22 C17 1.245 . S
C22 C18 1.477 . S
C22 H39 0.932 . S
C23 U6 2.882 . S
C23 C17 1.428 . S
C23 O26 1.301 . S
C23 O27 1.282 . S
O24 U6 2.441 . S
O24 C10 1.249 . S
O25 U6 2.420 . S
O25 C10 1.202 . S
O26 U6 2.455 . S
O26 C23 1.301 . S
O27 U6 2.449 . S
O27 C23 1.282 . S
H28 C1 0.931 . S
H29 C3 0.929 . S
H30 C4 0.930 . S
H31 C5 0.931 . S
H32 C12 0.932 . S
H33 C13 0.930 . S
H34 C14 0.929 . S
H35 C16 0.930 . S
H36 C18 0.932 . S
H37 C19 0.929 . S
H38 C20 0.928 . S
H39 C22 0.932 . S
C40 C41 1.264 . S
C40 C45 1.479 . S
C40 C50 1.465 . S
C41 C40 1.264 . S
C41 C43 1.339 . S
C41 H68 0.931 . S
C42 C43 1.395 . S
C42 C44 1.320 . S
C43 C41 1.339 . S
C43 C42 1.395 . S
C43 H69 0.929 . S
C44 C42 1.320 . S
C44 C45 1.405 . S
C44 H70 0.930 . S
C45 C40 1.479 . S
C45 C44 1.405 . S
C45 H71 0.931 . S
U46 O47 2.454 . S
U46 O48 2.458 . S
U46 C49 2.984 . S
U46 C50 2.847 . S
U46 C63 2.882 . S
U46 O64 2.441 . S
U46 O65 2.420 . S
U46 O66 2.455 . S
U46 O67 2.449 . S
O47 U46 2.454 . S
O47 C49 1.353 . S
O48 U46 2.458 . S
O48 C49 1.286 . S
C49 U46 2.984 . S
C49 O47 1.353 . S
C49 O48 1.286 . S
C49 C51 1.363 . S
C50 C40 1.465 . S
C50 U46 2.847 . S
C50 O64 1.249 . S
C50 O65 1.202 . S
C51 C49 1.363 . S
C51 C53 1.408 . S
C51 C56 1.342 . S
C52 C53 1.310 . S
C52 C55 1.461 . S
C52 H72 0.932 . S
C53 C51 1.408 . S
C53 C52 1.310 . S
C53 H73 0.930 . S
C54 C55 1.474 . S
C54 C56 1.285 . S
C54 H74 0.929 . S
C55 C52 1.461 . S
C55 C54 1.474 . S
C56 C51 1.342 . S
C56 C54 1.285 . S
C56 H75 0.930 . S
C57 C60 1.424 . S
C57 C62 1.245 . S
C57 C63 1.428 . S
C58 C61 1.260 . S
C58 C62 1.477 . S
C58 H76 0.932 . S
C59 C60 1.384 . S
C59 C61 1.479 . S
C59 H77 0.929 . S
C60 C57 1.424 . S
C60 C59 1.384 . S
C60 H78 0.928 . S
C61 C58 1.260 . S
C61 C59 1.479 . S
C62 C57 1.245 . S
C62 C58 1.477 . S
C62 H79 0.932 . S
C63 U46 2.882 . S
C63 C57 1.428 . S
C63 O66 1.301 . S
C63 O67 1.282 . S
O64 U46 2.441 . S
O64 C50 1.249 . S
O65 U46 2.420 . S
O65 C50 1.202 . S
O66 U46 2.455 . S
O66 C63 1.301 . S
O67 U46 2.449 . S
O67 C63 1.282 . S
H68 C41 0.931 . S
H69 C43 0.929 . S
H70 C44 0.930 . S
H71 C45 0.931 . S
H72 C52 0.932 . S
H73 C53 0.930 . S
H74 C54 0.929 . S
H75 C56 0.930 . S
H76 C58 0.932 . S
H77 C59 0.929 . S
H78 C60 0.928 . S
H79 C62 0.932 . S
C80 C81 1.264 . S
C80 C85 1.479 . S
C80 C90 1.465 . S
C81 C80 1.264 . S
C81 C83 1.339 . S
C81 H108 0.931 . S
C82 C83 1.395 . S
C82 C84 1.320 . S
C83 C81 1.339 . S
C83 C82 1.395 . S
C83 H109 0.929 . S
C84 C82 1.320 . S
C84 C85 1.405 . S
C84 H110 0.930 . S
C85 C80 1.479 . S
C85 C84 1.405 . S
C85 H111 0.931 . S
U86 O87 2.454 . S
U86 O88 2.458 . S
U86 C89 2.984 . S
U86 C90 2.847 . S
U86 C103 2.882 . S
U86 O104 2.441 . S
U86 O105 2.420 . S
U86 O106 2.455 . S
U86 O107 2.449 . S
O87 U86 2.454 . S
O87 C89 1.353 . S
O88 U86 2.458 . S
O88 C89 1.286 . S
C89 U86 2.984 . S
C89 O87 1.353 . S
C89 O88 1.286 . S
C89 C91 1.363 . S
C90 C80 1.465 . S
C90 U86 2.847 . S
C90 O104 1.249 . S
C90 O105 1.202 . S
C91 C89 1.363 . S
C91 C93 1.408 . S
C91 C96 1.342 . S
C92 C93 1.310 . S
C92 C95 1.461 . S
C92 H112 0.932 . S
C93 C91 1.408 . S
C93 C92 1.310 . S
C93 H113 0.930 . S
C94 C95 1.474 . S
C94 C96 1.285 . S
C94 H114 0.929 . S
C95 C92 1.461 . S
C95 C94 1.474 . S
C96 C91 1.342 . S
C96 C94 1.285 . S
C96 H115 0.930 . S
C97 C100 1.424 . S
C97 C102 1.245 . S
C97 C103 1.428 . S
C98 C101 1.260 . S
C98 C102 1.477 . S
C98 H116 0.932 . S
C99 C100 1.384 . S
C99 C101 1.479 . S
C99 H117 0.929 . S
C100 C97 1.424 . S
C100 C99 1.384 . S
C100 H118 0.928 . S
C101 C98 1.260 . S
C101 C99 1.479 . S
C102 C97 1.245 . S
C102 C98 1.477 . S
C102 H119 0.932 . S
C103 U86 2.882 . S
C103 C97 1.428 . S
C103 O106 1.301 . S
C103 O107 1.282 . S
O104 U86 2.441 . S
O104 C90 1.249 . S
O105 U86 2.420 . S
O105 C90 1.202 . S
O106 U86 2.455 . S
O106 C103 1.301 . S
O107 U86 2.449 . S
O107 C103 1.282 . S
H108 C81 0.931 . S
H109 C83 0.929 . S
H110 C84 0.930 . S
H111 C85 0.931 . S
H112 C92 0.932 . S
H113 C93 0.930 . S
H114 C94 0.929 . S
H115 C96 0.930 . S
H116 C98 0.932 . S
H117 C99 0.929 . S
H118 C100 0.928 . S
H119 C102 0.932 . S
C120 C121 1.264 . S
C120 C125 1.479 . S
C120 C130 1.465 . S
C121 C120 1.264 . S
C121 C123 1.339 . S
C121 H148 0.931 . S
C122 C123 1.395 . S
C122 C124 1.320 . S
C123 C121 1.339 . S
C123 C122 1.395 . S
C123 H149 0.929 . S
C124 C122 1.320 . S
C124 C125 1.405 . S
C124 H150 0.930 . S
C125 C120 1.479 . S
C125 C124 1.405 . S
C125 H151 0.931 . S
U126 O127 2.454 . S
U126 O128 2.458 . S
U126 C129 2.984 . S
U126 C130 2.847 . S
U126 C143 2.882 . S
U126 O144 2.441 . S
U126 O145 2.420 . S
U126 O146 2.455 . S
U126 O147 2.449 . S
O127 U126 2.454 . S
O127 C129 1.353 . S
O128 U126 2.458 . S
O128 C129 1.286 . S
C129 U126 2.984 . S
C129 O127 1.353 . S
C129 O128 1.286 . S
C129 C131 1.363 . S
C130 C120 1.465 . S
C130 U126 2.847 . S
C130 O144 1.249 . S
C130 O145 1.202 . S
C131 C129 1.363 . S
C131 C133 1.408 . S
C131 C136 1.342 . S
C132 C133 1.310 . S
C132 C135 1.461 . S
C132 H152 0.932 . S
C133 C131 1.408 . S
C133 C132 1.310 . S
C133 H153 0.930 . S
C134 C135 1.474 . S
C134 C136 1.285 . S
C134 H154 0.929 . S
C135 C132 1.461 . S
C135 C134 1.474 . S
C136 C131 1.342 . S
C136 C134 1.285 . S
C136 H155 0.930 . S
C137 C140 1.424 . S
C137 C142 1.245 . S
C137 C143 1.428 . S
C138 C141 1.260 . S
C138 C142 1.477 . S
C138 H156 0.932 . S
C139 C140 1.384 . S
C139 C141 1.479 . S
C139 H157 0.929 . S
C140 C137 1.424 . S
C140 C139 1.384 . S
C140 H158 0.928 . S
C141 C138 1.260 . S
C141 C139 1.479 . S
C142 C137 1.245 . S
C142 C138 1.477 . S
C142 H159 0.932 . S
C143 U126 2.882 . S
C143 C137 1.428 . S
C143 O146 1.301 . S
C143 O147 1.282 . S
O144 U126 2.441 . S
O144 C130 1.249 . S
O145 U126 2.420 . S
O145 C130 1.202 . S
O146 U126 2.455 . S
O146 C143 1.301 . S
O147 U126 2.449 . S
O147 C143 1.282 . S
H148 C121 0.931 . S
H149 C123 0.929 . S
H150 C124 0.930 . S
H151 C125 0.931 . S
H152 C132 0.932 . S
H153 C133 0.930 . S
H154 C134 0.929 . S
H155 C136 0.930 . S
H156 C138 0.932 . S
H157 C139 0.929 . S
H158 C140 0.928 . S
H159 C142 0.932 . S
C160 C161 1.264 . S
C160 C165 1.479 . S
C160 C170 1.465 . S
C161 C160 1.264 . S
C161 C163 1.339 . S
C161 H188 0.931 . S
C162 C163 1.395 . S
C162 C164 1.320 . S
C163 C161 1.339 . S
C163 C162 1.395 . S
C163 H189 0.929 . S
C164 C162 1.320 . S
C164 C165 1.405 . S
C164 H190 0.930 . S
C165 C160 1.479 . S
C165 C164 1.405 . S
C165 H191 0.931 . S
U166 O167 2.454 . S
U166 O168 2.458 . S
U166 C169 2.984 . S
U166 C170 2.847 . S
U166 C183 2.882 . S
U166 O184 2.441 . S
U166 O185 2.420 . S
U166 O186 2.455 . S
U166 O187 2.449 . S
O167 U166 2.454 . S
O167 C169 1.353 . S
O168 U166 2.458 . S
O168 C169 1.286 . S
C169 U166 2.984 . S
C169 O167 1.353 . S
C169 O168 1.286 . S
C169 C171 1.363 . S
C170 C160 1.465 . S
C170 U166 2.847 . S
C170 O184 1.249 . S
C170 O185 1.202 . S
C171 C169 1.363 . S
C171 C173 1.408 . S
C171 C176 1.342 . S
C172 C173 1.310 . S
C172 C175 1.461 . S
C172 H192 0.932 . S
C173 C171 1.408 . S
C173 C172 1.310 . S
C173 H193 0.930 . S
C174 C175 1.474 . S
C174 C176 1.285 . S
C174 H194 0.929 . S
C175 C172 1.461 . S
C175 C174 1.474 . S
C176 C171 1.342 . S
C176 C174 1.285 . S
C176 H195 0.930 . S
C177 C180 1.424 . S
C177 C182 1.245 . S
C177 C183 1.428 . S
C178 C181 1.260 . S
C178 C182 1.477 . S
C178 H196 0.932 . S
C179 C180 1.384 . S
C179 C181 1.479 . S
C179 H197 0.929 . S
C180 C177 1.424 . S
C180 C179 1.384 . S
C180 H198 0.928 . S
C181 C178 1.260 . S
C181 C179 1.479 . S
C182 C177 1.245 . S
C182 C178 1.477 . S
C182 H199 0.932 . S
C183 U166 2.882 . S
C183 C177 1.428 . S
C183 O186 1.301 . S
C183 O187 1.282 . S
O184 U166 2.441 . S
O184 C170 1.249 . S
O185 U166 2.420 . S
O185 C170 1.202 . S
O186 U166 2.455 . S
O186 C183 1.301 . S
O187 U166 2.449 . S
O187 C183 1.282 . S
H188 C161 0.931 . S
H189 C163 0.929 . S
H190 C164 0.930 . S
H191 C165 0.931 . S
H192 C172 0.932 . S
H193 C173 0.930 . S
H194 C174 0.929 . S
H195 C176 0.930 . S
H196 C178 0.932 . S
H197 C179 0.929 . S
H198 C180 0.928 . S
H199 C182 0.932 . S
C200 C201 1.264 . S
C200 C205 1.479 . S
C200 C210 1.465 . S
C201 C200 1.264 . S
C201 C203 1.339 . S
C201 H228 0.931 . S
C202 C203 1.395 . S
C202 C204 1.320 . S
C203 C201 1.339 . S
C203 C202 1.395 . S
C203 H229 0.929 . S
C204 C202 1.320 . S
C204 C205 1.405 . S
C204 H230 0.930 . S
C205 C200 1.479 . S
C205 C204 1.405 . S
C205 H231 0.931 . S
U206 O207 2.454 . S
U206 O208 2.458 . S
U206 C209 2.984 . S
U206 C210 2.847 . S
U206 C223 2.882 . S
U206 O224 2.441 . S
U206 O225 2.420 . S
U206 O226 2.455 . S
U206 O227 2.449 . S
O207 U206 2.454 . S
O207 C209 1.353 . S
O208 U206 2.458 . S
O208 C209 1.286 . S
C209 U206 2.984 . S
C209 O207 1.353 . S
C209 O208 1.286 . S
C209 C211 1.363 . S
C210 C200 1.465 . S
C210 U206 2.847 . S
C210 O224 1.249 . S
C210 O225 1.202 . S
C211 C209 1.363 . S
C211 C213 1.408 . S
C211 C216 1.342 . S
C212 C213 1.310 . S
C212 C215 1.461 . S
C212 H232 0.932 . S
C213 C211 1.408 . S
C213 C212 1.310 . S
C213 H233 0.930 . S
C214 C215 1.474 . S
C214 C216 1.285 . S
C214 H234 0.929 . S
C215 C212 1.461 . S
C215 C214 1.474 . S
C216 C211 1.342 . S
C216 C214 1.285 . S
C216 H235 0.930 . S
C217 C220 1.424 . S
C217 C222 1.245 . S
C217 C223 1.428 . S
C218 C221 1.260 . S
C218 C222 1.477 . S
C218 H236 0.932 . S
C219 C220 1.384 . S
C219 C221 1.479 . S
C219 H237 0.929 . S
C220 C217 1.424 . S
C220 C219 1.384 . S
C220 H238 0.928 . S
C221 C218 1.260 . S
C221 C219 1.479 . S
C222 C217 1.245 . S
C222 C218 1.477 . S
C222 H239 0.932 . S
C223 U206 2.882 . S
C223 C217 1.428 . S
C223 O226 1.301 . S
C223 O227 1.282 . S
O224 U206 2.441 . S
O224 C210 1.249 . S
O225 U206 2.420 . S
O225 C210 1.202 . S
O226 U206 2.455 . S
O226 C223 1.301 . S
O227 U206 2.449 . S
O227 C223 1.282 . S
H228 C201 0.931 . S
H229 C203 0.929 . S
H230 C204 0.930 . S
H231 C205 0.931 . S
H232 C212 0.932 . S
H233 C213 0.930 . S
H234 C214 0.929 . S
H235 C216 0.930 . S
H236 C218 0.932 . S
H237 C219 0.929 . S
H238 C220 0.928 . S
H239 C222 0.932 . S
C240 C241 1.264 . S
C240 C245 1.479 . S
C240 C250 1.465 . S
C241 C240 1.264 . S
C241 C243 1.339 . S
C241 H268 0.931 . S
C242 C243 1.395 . S
C242 C244 1.320 . S
C243 C241 1.339 . S
C243 C242 1.395 . S
C243 H269 0.929 . S
C244 C242 1.320 . S
C244 C245 1.405 . S
C244 H270 0.930 . S
C245 C240 1.479 . S
C245 C244 1.405 . S
C245 H271 0.931 . S
U246 O247 2.454 . S
U246 O248 2.458 . S
U246 C249 2.984 . S
U246 C250 2.847 . S
U246 C263 2.882 . S
U246 O264 2.441 . S
U246 O265 2.420 . S
U246 O266 2.455 . S
U246 O267 2.449 . S
O247 U246 2.454 . S
O247 C249 1.353 . S
O248 U246 2.458 . S
O248 C249 1.286 . S
C249 U246 2.984 . S
C249 O247 1.353 . S
C249 O248 1.286 . S
C249 C251 1.363 . S
C250 C240 1.465 . S
C250 U246 2.847 . S
C250 O264 1.249 . S
C250 O265 1.202 . S
C251 C249 1.363 . S
C251 C253 1.408 . S
C251 C256 1.342 . S
C252 C253 1.310 . S
C252 C255 1.461 . S
C252 H272 0.932 . S
C253 C251 1.408 . S
C253 C252 1.310 . S
C253 H273 0.930 . S
C254 C255 1.474 . S
C254 C256 1.285 . S
C254 H274 0.929 . S
C255 C252 1.461 . S
C255 C254 1.474 . S
C256 C251 1.342 . S
C256 C254 1.285 . S
C256 H275 0.930 . S
C257 C260 1.424 . S
C257 C262 1.245 . S
C257 C263 1.428 . S
C258 C261 1.260 . S
C258 C262 1.477 . S
C258 H276 0.932 . S
C259 C260 1.384 . S
C259 C261 1.479 . S
C259 H277 0.929 . S
C260 C257 1.424 . S
C260 C259 1.384 . S
C260 H278 0.928 . S
C261 C258 1.260 . S
C261 C259 1.479 . S
C262 C257 1.245 . S
C262 C258 1.477 . S
C262 H279 0.932 . S
C263 U246 2.882 . S
C263 C257 1.428 . S
C263 O266 1.301 . S
C263 O267 1.282 . S
O264 U246 2.441 . S
O264 C250 1.249 . S
O265 U246 2.420 . S
O265 C250 1.202 . S
O266 U246 2.455 . S
O266 C263 1.301 . S
O267 U246 2.449 . S
O267 C263 1.282 . S
H268 C241 0.931 . S
H269 C243 0.929 . S
H270 C244 0.930 . S
H271 C245 0.931 . S
H272 C252 0.932 . S
H273 C253 0.930 . S
H274 C254 0.929 . S
H275 C256 0.930 . S
H276 C258 0.932 . S
H277 C259 0.929 . S
H278 C260 0.928 . S
H279 C262 0.932 . S
C280 C281 1.264 . S
C280 C285 1.479 . S
C280 C290 1.465 . S
C281 C280 1.264 . S
C281 C283 1.339 . S
C281 H308 0.931 . S
C282 C283 1.395 . S
C282 C284 1.320 . S
C283 C281 1.339 . S
C283 C282 1.395 . S
C283 H309 0.929 . S
C284 C282 1.320 . S
C284 C285 1.405 . S
C284 H310 0.930 . S
C285 C280 1.479 . S
C285 C284 1.405 . S
C285 H311 0.931 . S
U286 O287 2.454 . S
U286 O288 2.458 . S
U286 C289 2.984 . S
U286 C290 2.847 . S
U286 C303 2.882 . S
U286 O304 2.441 . S
U286 O305 2.420 . S
U286 O306 2.455 . S
U286 O307 2.449 . S
O287 U286 2.454 . S
O287 C289 1.353 . S
O288 U286 2.458 . S
O288 C289 1.286 . S
C289 U286 2.984 . S
C289 O287 1.353 . S
C289 O288 1.286 . S
C289 C291 1.363 . S
C290 C280 1.465 . S
C290 U286 2.847 . S
C290 O304 1.249 . S
C290 O305 1.202 . S
C291 C289 1.363 . S
C291 C293 1.408 . S
C291 C296 1.342 . S
C292 C293 1.310 . S
C292 C295 1.461 . S
C292 H312 0.932 . S
C293 C291 1.408 . S
C293 C292 1.310 . S
C293 H313 0.930 . S
C294 C295 1.474 . S
C294 C296 1.285 . S
C294 H314 0.929 . S
C295 C292 1.461 . S
C295 C294 1.474 . S
C296 C291 1.342 . S
C296 C294 1.285 . S
C296 H315 0.930 . S
C297 C300 1.424 . S
C297 C302 1.245 . S
C297 C303 1.428 . S
C298 C301 1.260 . S
C298 C302 1.477 . S
C298 H316 0.932 . S
C299 C300 1.384 . S
C299 C301 1.479 . S
C299 H317 0.929 . S
C300 C297 1.424 . S
C300 C299 1.384 . S
C300 H318 0.928 . S
C301 C298 1.260 . S
C301 C299 1.479 . S
C302 C297 1.245 . S
C302 C298 1.477 . S
C302 H319 0.932 . S
C303 U286 2.882 . S
C303 C297 1.428 . S
C303 O306 1.301 . S
C303 O307 1.282 . S
O304 U286 2.441 . S
O304 C290 1.249 . S
O305 U286 2.420 . S
O305 C290 1.202 . S
O306 U286 2.455 . S
O306 C303 1.301 . S
O307 U286 2.449 . S
O307 C303 1.282 . S
H308 C281 0.931 . S
H309 C283 0.929 . S
H310 C284 0.930 . S
H311 C285 0.931 . S
H312 C292 0.932 . S
H313 C293 0.930 . S
H314 C294 0.929 . S
H315 C296 0.930 . S
H316 C298 0.932 . S
H317 C299 0.929 . S
H318 C300 0.928 . S
H319 C302 0.932 . S
C320 C321 1.264 . S
C320 C325 1.479 . S
C320 C330 1.465 . S
C321 C320 1.264 . S
C321 C323 1.339 . S
C321 H348 0.931 . S
C322 C323 1.395 . S
C322 C324 1.320 . S
C323 C321 1.339 . S
C323 C322 1.395 . S
C323 H349 0.929 . S
C324 C322 1.320 . S
C324 C325 1.405 . S
C324 H350 0.930 . S
C325 C320 1.479 . S
C325 C324 1.405 . S
C325 H351 0.931 . S
U326 O327 2.454 . S
U326 O328 2.458 . S
U326 C329 2.984 . S
U326 C330 2.847 . S
U326 C343 2.882 . S
U326 O344 2.441 . S
U326 O345 2.420 . S
U326 O346 2.455 . S
U326 O347 2.449 . S
O327 U326 2.454 . S
O327 C329 1.353 . S
O328 U326 2.458 . S
O328 C329 1.286 . S
C329 U326 2.984 . S
C329 O327 1.353 . S
C329 O328 1.286 . S
C329 C331 1.363 . S
C330 C320 1.465 . S
C330 U326 2.847 . S
C330 O344 1.249 . S
C330 O345 1.202 . S
C331 C329 1.363 . S
C331 C333 1.408 . S
C331 C336 1.342 . S
C332 C333 1.310 . S
C332 C335 1.461 . S
C332 H352 0.932 . S
C333 C331 1.408 . S
C333 C332 1.310 . S
C333 H353 0.930 . S
C334 C335 1.474 . S
C334 C336 1.285 . S
C334 H354 0.929 . S
C335 C332 1.461 . S
C335 C334 1.474 . S
C336 C331 1.342 . S
C336 C334 1.285 . S
C336 H355 0.930 . S
C337 C340 1.424 . S
C337 C342 1.245 . S
C337 C343 1.428 . S
C338 C341 1.260 . S
C338 C342 1.477 . S
C338 H356 0.932 . S
C339 C340 1.384 . S
C339 C341 1.479 . S
C339 H357 0.929 . S
C340 C337 1.424 . S
C340 C339 1.384 . S
C340 H358 0.928 . S
C341 C338 1.260 . S
C341 C339 1.479 . S
C342 C337 1.245 . S
C342 C338 1.477 . S
C342 H359 0.932 . S
C343 U326 2.882 . S
C343 C337 1.428 . S
C343 O346 1.301 . S
C343 O347 1.282 . S
O344 U326 2.441 . S
O344 C330 1.249 . S
O345 U326 2.420 . S
O345 C330 1.202 . S
O346 U326 2.455 . S
O346 C343 1.301 . S
O347 U326 2.449 . S
O347 C343 1.282 . S
H348 C321 0.931 . S
H349 C323 0.929 . S
H350 C324 0.930 . S
H351 C325 0.931 . S
H352 C332 0.932 . S
H353 C333 0.930 . S
H354 C334 0.929 . S
H355 C336 0.930 . S
H356 C338 0.932 . S
H357 C339 0.929 . S
H358 C340 0.928 . S
H359 C342 0.932 . S
C360 C361 1.264 . S
C360 C365 1.479 . S
C360 C370 1.465 . S
C361 C360 1.264 . S
C361 C363 1.339 . S
C361 H388 0.931 . S
C362 C363 1.395 . S
C362 C364 1.320 . S
C363 C361 1.339 . S
C363 C362 1.395 . S
C363 H389 0.929 . S
C364 C362 1.320 . S
C364 C365 1.405 . S
C364 H390 0.930 . S
C365 C360 1.479 . S
C365 C364 1.405 . S
C365 H391 0.931 . S
U366 O367 2.454 . S
U366 O368 2.458 . S
U366 C369 2.984 . S
U366 C370 2.847 . S
U366 C383 2.882 . S
U366 O384 2.441 . S
U366 O385 2.420 . S
U366 O386 2.455 . S
U366 O387 2.449 . S
O367 U366 2.454 . S
O367 C369 1.353 . S
O368 U366 2.458 . S
O368 C369 1.286 . S
C369 U366 2.984 . S
C369 O367 1.353 . S
C369 O368 1.286 . S
C369 C371 1.363 . S
C370 C360 1.465 . S
C370 U366 2.847 . S
C370 O384 1.249 . S
C370 O385 1.202 . S
C371 C369 1.363 . S
C371 C373 1.408 . S
C371 C376 1.342 . S
C372 C373 1.310 . S
C372 C375 1.461 . S
C372 H392 0.932 . S
C373 C371 1.408 . S
C373 C372 1.310 . S
C373 H393 0.930 . S
C374 C375 1.474 . S
C374 C376 1.285 . S
C374 H394 0.929 . S
C375 C372 1.461 . S
C375 C374 1.474 . S
C376 C371 1.342 . S
C376 C374 1.285 . S
C376 H395 0.930 . S
C377 C380 1.424 . S
C377 C382 1.245 . S
C377 C383 1.428 . S
C378 C381 1.260 . S
C378 C382 1.477 . S
C378 H396 0.932 . S
C379 C380 1.384 . S
C379 C381 1.479 . S
C379 H397 0.929 . S
C380 C377 1.424 . S
C380 C379 1.384 . S
C380 H398 0.928 . S
C381 C378 1.260 . S
C381 C379 1.479 . S
C382 C377 1.245 . S
C382 C378 1.477 . S
C382 H399 0.932 . S
C383 U366 2.882 . S
C383 C377 1.428 . S
C383 O386 1.301 . S
C383 O387 1.282 . S
O384 U366 2.441 . S
O384 C370 1.249 . S
O385 U366 2.420 . S
O385 C370 1.202 . S
O386 U366 2.455 . S
O386 C383 1.301 . S
O387 U366 2.449 . S
O387 C383 1.282 . S
H388 C361 0.931 . S
H389 C363 0.929 . S
H390 C364 0.930 . S
H391 C365 0.931 . S
H392 C372 0.932 . S
H393 C373 0.930 . S
H394 C374 0.929 . S
H395 C376 0.930 . S
H396 C378 0.932 . S
H397 C379 0.929 . S
H398 C380 0.928 . S
H399 C382 0.932 . S
C400 C401 1.264 . S
C400 C405 1.479 . S
C400 C410 1.465 . S
C401 C400 1.264 . S
C401 C403 1.339 . S
C401 H428 0.931 . S
C402 C403 1.395 . S
C402 C404 1.320 . S
C403 C401 1.339 . S
C403 C402 1.395 . S
C403 H429 0.929 . S
C404 C402 1.320 . S
C404 C405 1.405 . S
C404 H430 0.930 . S
C405 C400 1.479 . S
C405 C404 1.405 . S
C405 H431 0.931 . S
U406 O407 2.454 . S
U406 O408 2.458 . S
U406 C409 2.984 . S
U406 C410 2.847 . S
U406 C423 2.882 . S
U406 O424 2.441 . S
U406 O425 2.420 . S
U406 O426 2.455 . S
U406 O427 2.449 . S
O407 U406 2.454 . S
O407 C409 1.353 . S
O408 U406 2.458 . S
O408 C409 1.286 . S
C409 U406 2.984 . S
C409 O407 1.353 . S
C409 O408 1.286 . S
C409 C411 1.363 . S
C410 C400 1.465 . S
C410 U406 2.847 . S
C410 O424 1.249 . S
C410 O425 1.202 . S
C411 C409 1.363 . S
C411 C413 1.408 . S
C411 C416 1.342 . S
C412 C413 1.310 . S
C412 C415 1.461 . S
C412 H432 0.932 . S
C413 C411 1.408 . S
C413 C412 1.310 . S
C413 H433 0.930 . S
C414 C415 1.474 . S
C414 C416 1.285 . S
C414 H434 0.929 . S
C415 C412 1.461 . S
C415 C414 1.474 . S
C416 C411 1.342 . S
C416 C414 1.285 . S
C416 H435 0.930 . S
C417 C420 1.424 . S
C417 C422 1.245 . S
C417 C423 1.428 . S
C418 C421 1.260 . S
C418 C422 1.477 . S
C418 H436 0.932 . S
C419 C420 1.384 . S
C419 C421 1.479 . S
C419 H437 0.929 . S
C420 C417 1.424 . S
C420 C419 1.384 . S
C420 H438 0.928 . S
C421 C418 1.260 . S
C421 C419 1.479 . S
C422 C417 1.245 . S
C422 C418 1.477 . S
C422 H439 0.932 . S
C423 U406 2.882 . S
C423 C417 1.428 . S
C423 O426 1.301 . S
C423 O427 1.282 . S
O424 U406 2.441 . S
O424 C410 1.249 . S
O425 U406 2.420 . S
O425 C410 1.202 . S
O426 U406 2.455 . S
O426 C423 1.301 . S
O427 U406 2.449 . S
O427 C423 1.282 . S
H428 C401 0.931 . S
H429 C403 0.929 . S
H430 C404 0.930 . S
H431 C405 0.931 . S
H432 C412 0.932 . S
H433 C413 0.930 . S
H434 C414 0.929 . S
H435 C416 0.930 . S
H436 C418 0.932 . S
H437 C419 0.929 . S
H438 C420 0.928 . S
H439 C422 0.932 . S
C440 C441 1.264 . S
C440 C445 1.479 . S
C440 C450 1.465 . S
C441 C440 1.264 . S
C441 C443 1.339 . S
C441 H468 0.931 . S
C442 C443 1.395 . S
C442 C444 1.320 . S
C443 C441 1.339 . S
C443 C442 1.395 . S
C443 H469 0.929 . S
C444 C442 1.320 . S
C444 C445 1.405 . S
C444 H470 0.930 . S
C445 C440 1.479 . S
C445 C444 1.405 . S
C445 H471 0.931 . S
U446 O447 2.454 . S
U446 O448 2.458 . S
U446 C449 2.984 . S
U446 C450 2.847 . S
U446 C463 2.882 . S
U446 O464 2.441 . S
U446 O465 2.420 . S
U446 O466 2.455 . S
U446 O467 2.449 . S
O447 U446 2.454 . S
O447 C449 1.353 . S
O448 U446 2.458 . S
O448 C449 1.286 . S
C449 U446 2.984 . S
C449 O447 1.353 . S
C449 O448 1.286 . S
C449 C451 1.363 . S
C450 C440 1.465 . S
C450 U446 2.847 . S
C450 O464 1.249 . S
C450 O465 1.202 . S
C451 C449 1.363 . S
C451 C453 1.408 . S
C451 C456 1.342 . S
C452 C453 1.310 . S
C452 C455 1.461 . S
C452 H472 0.932 . S
C453 C451 1.408 . S
C453 C452 1.310 . S
C453 H473 0.930 . S
C454 C455 1.474 . S
C454 C456 1.285 . S
C454 H474 0.929 . S
C455 C452 1.461 . S
C455 C454 1.474 . S
C456 C451 1.342 . S
C456 C454 1.285 . S
C456 H475 0.930 . S
C457 C460 1.424 . S
C457 C462 1.245 . S
C457 C463 1.428 . S
C458 C461 1.260 . S
C458 C462 1.477 . S
C458 H476 0.932 . S
C459 C460 1.384 . S
C459 C461 1.479 . S
C459 H477 0.929 . S
C460 C457 1.424 . S
C460 C459 1.384 . S
C460 H478 0.928 . S
C461 C458 1.260 . S
C461 C459 1.479 . S
C462 C457 1.245 . S
C462 C458 1.477 . S
C462 H479 0.932 . S
C463 U446 2.882 . S
C463 C457 1.428 . S
C463 O466 1.301 . S
C463 O467 1.282 . S
O464 U446 2.441 . S
O464 C450 1.249 . S
O465 U446 2.420 . S
O465 C450 1.202 . S
O466 U446 2.455 . S
O466 C463 1.301 . S
O467 U446 2.449 . S
O467 C463 1.282 . S
H468 C441 0.931 . S
H469 C443 0.929 . S
H470 C444 0.930 . S
H471 C445 0.931 . S
H472 C452 0.932 . S
H473 C453 0.930 . S
H474 C454 0.929 . S
H475 C456 0.930 . S
H476 C458 0.932 . S
H477 C459 0.929 . S
H478 C460 0.928 . S
H479 C462 0.932 . S
C480 C481 1.264 . S
C480 C485 1.479 . S
C480 C490 1.465 . S
C481 C480 1.264 . S
C481 C483 1.339 . S
C481 H508 0.931 . S
C482 C483 1.395 . S
C482 C484 1.320 . S
C483 C481 1.339 . S
C483 C482 1.395 . S
C483 H509 0.929 . S
C484 C482 1.320 . S
C484 C485 1.405 . S
C484 H510 0.930 . S
C485 C480 1.479 . S
C485 C484 1.405 . S
C485 H511 0.931 . S
U486 O487 2.454 . S
U486 O488 2.458 . S
U486 C489 2.984 . S
U486 C490 2.847 . S
U486 C503 2.882 . S
U486 O504 2.441 . S
U486 O505 2.420 . S
U486 O506 2.455 . S
U486 O507 2.449 . S
O487 U486 2.454 . S
O487 C489 1.353 . S
O488 U486 2.458 . S
O488 C489 1.286 . S
C489 U486 2.984 . S
C489 O487 1.353 . S
C489 O488 1.286 . S
C489 C491 1.363 . S
C490 C480 1.465 . S
C490 U486 2.847 . S
C490 O504 1.249 . S
C490 O505 1.202 . S
C491 C489 1.363 . S
C491 C493 1.408 . S
C491 C496 1.342 . S
C492 C493 1.310 . S
C492 C495 1.461 . S
C492 H512 0.932 . S
C493 C491 1.408 . S
C493 C492 1.310 . S
C493 H513 0.930 . S
C494 C495 1.474 . S
C494 C496 1.285 . S
C494 H514 0.929 . S
C495 C492 1.461 . S
C495 C494 1.474 . S
C496 C491 1.342 . S
C496 C494 1.285 . S
C496 H515 0.930 . S
C497 C500 1.424 . S
C497 C502 1.245 . S
C497 C503 1.428 . S
C498 C501 1.260 . S
C498 C502 1.477 . S
C498 H516 0.932 . S
C499 C500 1.384 . S
C499 C501 1.479 . S
C499 H517 0.929 . S
C500 C497 1.424 . S
C500 C499 1.384 . S
C500 H518 0.928 . S
C501 C498 1.260 . S
C501 C499 1.479 . S
C502 C497 1.245 . S
C502 C498 1.477 . S
C502 H519 0.932 . S
C503 U486 2.882 . S
C503 C497 1.428 . S
C503 O506 1.301 . S
C503 O507 1.282 . S
O504 U486 2.441 . S
O504 C490 1.249 . S
O505 U486 2.420 . S
O505 C490 1.202 . S
O506 U486 2.455 . S
O506 C503 1.301 . S
O507 U486 2.449 . S
O507 C503 1.282 . S
H508 C481 0.931 . S
H509 C483 0.929 . S
H510 C484 0.930 . S
H511 C485 0.931 . S
H512 C492 0.932 . S
H513 C493 0.930 . S
H514 C494 0.929 . S
H515 C496 0.930 . S
H516 C498 0.932 . S
H517 C499 0.929 . S
H518 C500 0.928 . S
H519 C502 0.932 . S
C520 C521 1.264 . S
C520 C525 1.479 . S
C520 C530 1.465 . S
C521 C520 1.264 . S
C521 C523 1.339 . S
C521 H548 0.931 . S
C522 C523 1.395 . S
C522 C524 1.320 . S
C523 C521 1.339 . S
C523 C522 1.395 . S
C523 H549 0.929 . S
C524 C522 1.320 . S
C524 C525 1.405 . S
C524 H550 0.930 . S
C525 C520 1.479 . S
C525 C524 1.405 . S
C525 H551 0.931 . S
U526 O527 2.454 . S
U526 O528 2.458 . S
U526 C529 2.984 . S
U526 C530 2.847 . S
U526 C543 2.882 . S
U526 O544 2.441 . S
U526 O545 2.420 . S
U526 O546 2.455 . S
U526 O547 2.449 . S
O527 U526 2.454 . S
O527 C529 1.353 . S
O528 U526 2.458 . S
O528 C529 1.286 . S
C529 U526 2.984 . S
C529 O527 1.353 . S
C529 O528 1.286 . S
C529 C531 1.363 . S
C530 C520 1.465 . S
C530 U526 2.847 . S
C530 O544 1.249 . S
C530 O545 1.202 . S
C531 C529 1.363 . S
C531 C533 1.408 . S
C531 C536 1.342 . S
C532 C533 1.310 . S
C532 C535 1.461 . S
C532 H552 0.932 . S
C533 C531 1.408 . S
C533 C532 1.310 . S
C533 H553 0.930 . S
C534 C535 1.474 . S
C534 C536 1.285 . S
C534 H554 0.929 . S
C535 C532 1.461 . S
C535 C534 1.474 . S
C536 C531 1.342 . S
C536 C534 1.285 . S
C536 H555 0.930 . S
C537 C540 1.424 . S
C537 C542 1.245 . S
C537 C543 1.428 . S
C538 C541 1.260 . S
C538 C542 1.477 . S
C538 H556 0.932 . S
C539 C540 1.384 . S
C539 C541 1.479 . S
C539 H557 0.929 . S
C540 C537 1.424 . S
C540 C539 1.384 . S
C540 H558 0.928 . S
C541 C538 1.260 . S
C541 C539 1.479 . S
C542 C537 1.245 . S
C542 C538 1.477 . S
C542 H559 0.932 . S
C543 U526 2.882 . S
C543 C537 1.428 . S
C543 O546 1.301 . S
C543 O547 1.282 . S
O544 U526 2.441 . S
O544 C530 1.249 . S
O545 U526 2.420 . S
O545 C530 1.202 . S
O546 U526 2.455 . S
O546 C543 1.301 . S
O547 U526 2.449 . S
O547 C543 1.282 . S
H548 C521 0.931 . S
H549 C523 0.929 . S
H550 C524 0.930 . S
H551 C525 0.931 . S
H552 C532 0.932 . S
H553 C533 0.930 . S
H554 C534 0.929 . S
H555 C536 0.930 . S
H556 C538 0.932 . S
H557 C539 0.929 . S
H558 C540 0.928 . S
H559 C542 0.932 . S
C560 C561 1.264 . S
C560 C565 1.479 . S
C560 C570 1.465 . S
C561 C560 1.264 . S
C561 C563 1.339 . S
C561 H588 0.931 . S
C562 C563 1.395 . S
C562 C564 1.320 . S
C563 C561 1.339 . S
C563 C562 1.395 . S
C563 H589 0.929 . S
C564 C562 1.320 . S
C564 C565 1.405 . S
C564 H590 0.930 . S
C565 C560 1.479 . S
C565 C564 1.405 . S
C565 H591 0.931 . S
U566 O567 2.454 . S
U566 O568 2.458 . S
U566 C569 2.984 . S
U566 C570 2.847 . S
U566 C583 2.882 . S
U566 O584 2.441 . S
U566 O585 2.420 . S
U566 O586 2.455 . S
U566 O587 2.449 . S
O567 U566 2.454 . S
O567 C569 1.353 . S
O568 U566 2.458 . S
O568 C569 1.286 . S
C569 U566 2.984 . S
C569 O567 1.353 . S
C569 O568 1.286 . S
C569 C571 1.363 . S
C570 C560 1.465 . S
C570 U566 2.847 . S
C570 O584 1.249 . S
C570 O585 1.202 . S
C571 C569 1.363 . S
C571 C573 1.408 . S
C571 C576 1.342 . S
C572 C573 1.310 . S
C572 C575 1.461 . S
C572 H592 0.932 . S
C573 C571 1.408 . S
C573 C572 1.310 . S
C573 H593 0.930 . S
C574 C575 1.474 . S
C574 C576 1.285 . S
C574 H594 0.929 . S
C575 C572 1.461 . S
C575 C574 1.474 . S
C576 C571 1.342 . S
C576 C574 1.285 . S
C576 H595 0.930 . S
C577 C580 1.424 . S
C577 C582 1.245 . S
C577 C583 1.428 . S
C578 C581 1.260 . S
C578 C582 1.477 . S
C578 H596 0.932 . S
C579 C580 1.384 . S
C579 C581 1.479 . S
C579 H597 0.929 . S
C580 C577 1.424 . S
C580 C579 1.384 . S
C580 H598 0.928 . S
C581 C578 1.260 . S
C581 C579 1.479 . S
C582 C577 1.245 . S
C582 C578 1.477 . S
C582 H599 0.932 . S
C583 U566 2.882 . S
C583 C577 1.428 . S
C583 O586 1.301 . S
C583 O587 1.282 . S
O584 U566 2.441 . S
O584 C570 1.249 . S
O585 U566 2.420 . S
O585 C570 1.202 . S
O586 U566 2.455 . S
O586 C583 1.301 . S
O587 U566 2.449 . S
O587 C583 1.282 . S
H588 C561 0.931 . S
H589 C563 0.929 . S
H590 C564 0.930 . S
H591 C565 0.931 . S
H592 C572 0.932 . S
H593 C573 0.930 . S
H594 C574 0.929 . S
H595 C576 0.930 . S
H596 C578 0.932 . S
H597 C579 0.929 . S
H598 C580 0.928 . S
H599 C582 0.932 . S
C600 C601 1.264 . S
C600 C605 1.479 . S
C600 C610 1.465 . S
C601 C600 1.264 . S
C601 C603 1.339 . S
C601 H628 0.931 . S
C602 C603 1.395 . S
C602 C604 1.320 . S
C603 C601 1.339 . S
C603 C602 1.395 . S
C603 H629 0.929 . S
C604 C602 1.320 . S
C604 C605 1.405 . S
C604 H630 0.930 . S
C605 C600 1.479 . S
C605 C604 1.405 . S
C605 H631 0.931 . S
U606 O607 2.454 . S
U606 O608 2.458 . S
U606 C609 2.984 . S
U606 C610 2.847 . S
U606 C623 2.882 . S
U606 O624 2.441 . S
U606 O625 2.420 . S
U606 O626 2.455 . S
U606 O627 2.449 . S
O607 U606 2.454 . S
O607 C609 1.353 . S
O608 U606 2.458 . S
O608 C609 1.286 . S
C609 U606 2.984 . S
C609 O607 1.353 . S
C609 O608 1.286 . S
C609 C611 1.363 . S
C610 C600 1.465 . S
C610 U606 2.847 . S
C610 O624 1.249 . S
C610 O625 1.202 . S
C611 C609 1.363 . S
C611 C613 1.408 . S
C611 C616 1.342 . S
C612 C613 1.310 . S
C612 C615 1.461 . S
C612 H632 0.932 . S
C613 C611 1.408 . S
C613 C612 1.310 . S
C613 H633 0.930 . S
C614 C615 1.474 . S
C614 C616 1.285 . S
C614 H634 0.929 . S
C615 C612 1.461 . S
C615 C614 1.474 . S
C616 C611 1.342 . S
C616 C614 1.285 . S
C616 H635 0.930 . S
C617 C620 1.424 . S
C617 C622 1.245 . S
C617 C623 1.428 . S
C618 C621 1.260 . S
C618 C622 1.477 . S
C618 H636 0.932 . S
C619 C620 1.384 . S
C619 C621 1.479 . S
C619 H637 0.929 . S
C620 C617 1.424 . S
C620 C619 1.384 . S
C620 H638 0.928 . S
C621 C618 1.260 . S
C621 C619 1.479 . S
C622 C617 1.245 . S
C622 C618 1.477 . S
C622 H639 0.932 . S
C623 U606 2.882 . S
C623 C617 1.428 . S
C623 O626 1.301 . S
C623 O627 1.282 . S
O624 U606 2.441 . S
O624 C610 1.249 . S
O625 U606 2.420 . S
O625 C610 1.202 . S
O626 U606 2.455 . S
O626 C623 1.301 . S
O627 U606 2.449 . S
O627 C623 1.282 . S
H628 C601 0.931 . S
H629 C603 0.929 . S
H630 C604 0.930 . S
H631 C605 0.931 . S
H632 C612 0.932 . S
H633 C613 0.930 . S
H634 C614 0.929 . S
H635 C616 0.930 . S
H636 C618 0.932 . S
H637 C619 0.929 . S
H638 C620 0.928 . S
H639 C622 0.932 . S
C640 C641 1.264 . S
C640 C645 1.479 . S
C640 C650 1.465 . S
C641 C640 1.264 . S
C641 C643 1.339 . S
C641 H668 0.931 . S
C642 C643 1.395 . S
C642 C644 1.320 . S
C643 C641 1.339 . S
C643 C642 1.395 . S
C643 H669 0.929 . S
C644 C642 1.320 . S
C644 C645 1.405 . S
C644 H670 0.930 . S
C645 C640 1.479 . S
C645 C644 1.405 . S
C645 H671 0.931 . S
U646 O647 2.454 . S
U646 O648 2.458 . S
U646 C649 2.984 . S
U646 C650 2.847 . S
U646 C663 2.882 . S
U646 O664 2.441 . S
U646 O665 2.420 . S
U646 O666 2.455 . S
U646 O667 2.449 . S
O647 U646 2.454 . S
O647 C649 1.353 . S
O648 U646 2.458 . S
O648 C649 1.286 . S
C649 U646 2.984 . S
C649 O647 1.353 . S
C649 O648 1.286 . S
C649 C651 1.363 . S
C650 C640 1.465 . S
C650 U646 2.847 . S
C650 O664 1.249 . S
C650 O665 1.202 . S
C651 C649 1.363 . S
C651 C653 1.408 . S
C651 C656 1.342 . S
C652 C653 1.310 . S
C652 C655 1.461 . S
C652 H672 0.932 . S
C653 C651 1.408 . S
C653 C652 1.310 . S
C653 H673 0.930 . S
C654 C655 1.474 . S
C654 C656 1.285 . S
C654 H674 0.929 . S
C655 C652 1.461 . S
C655 C654 1.474 . S
C656 C651 1.342 . S
C656 C654 1.285 . S
C656 H675 0.930 . S
C657 C660 1.424 . S
C657 C662 1.245 . S
C657 C663 1.428 . S
C658 C661 1.260 . S
C658 C662 1.477 . S
C658 H676 0.932 . S
C659 C660 1.384 . S
C659 C661 1.479 . S
C659 H677 0.929 . S
C660 C657 1.424 . S
C660 C659 1.384 . S
C660 H678 0.928 . S
C661 C658 1.260 . S
C661 C659 1.479 . S
C662 C657 1.245 . S
C662 C658 1.477 . S
C662 H679 0.932 . S
C663 U646 2.882 . S
C663 C657 1.428 . S
C663 O666 1.301 . S
C663 O667 1.282 . S
O664 U646 2.441 . S
O664 C650 1.249 . S
O665 U646 2.420 . S
O665 C650 1.202 . S
O666 U646 2.455 . S
O666 C663 1.301 . S
O667 U646 2.449 . S
O667 C663 1.282 . S
H668 C641 0.931 . S
H669 C643 0.929 . S
H670 C644 0.930 . S
H671 C645 0.931 . S
H672 C652 0.932 . S
H673 C653 0.930 . S
H674 C654 0.929 . S
H675 C656 0.930 . S
H676 C658 0.932 . S
H677 C659 0.929 . S
H678 C660 0.928 . S
H679 C662 0.932 . S
C680 C681 1.264 . S
C680 C685 1.479 . S
C680 C690 1.465 . S
C681 C680 1.264 . S
C681 C683 1.339 . S
C681 H708 0.931 . S
C682 C683 1.395 . S
C682 C684 1.320 . S
C683 C681 1.339 . S
C683 C682 1.395 . S
C683 H709 0.929 . S
C684 C682 1.320 . S
C684 C685 1.405 . S
C684 H710 0.930 . S
C685 C680 1.479 . S
C685 C684 1.405 . S
C685 H711 0.931 . S
U686 O687 2.454 . S
U686 O688 2.458 . S
U686 C689 2.984 . S
U686 C690 2.847 . S
U686 C703 2.882 . S
U686 O704 2.441 . S
U686 O705 2.420 . S
U686 O706 2.455 . S
U686 O707 2.449 . S
O687 U686 2.454 . S
O687 C689 1.353 . S
O688 U686 2.458 . S
O688 C689 1.286 . S
C689 U686 2.984 . S
C689 O687 1.353 . S
C689 O688 1.286 . S
C689 C691 1.363 . S
C690 C680 1.465 . S
C690 U686 2.847 . S
C690 O704 1.249 . S
C690 O705 1.202 . S
C691 C689 1.363 . S
C691 C693 1.408 . S
C691 C696 1.342 . S
C692 C693 1.310 . S
C692 C695 1.461 . S
C692 H712 0.932 . S
C693 C691 1.408 . S
C693 C692 1.310 . S
C693 H713 0.930 . S
C694 C695 1.474 . S
C694 C696 1.285 . S
C694 H714 0.929 . S
C695 C692 1.461 . S
C695 C694 1.474 . S
C696 C691 1.342 . S
C696 C694 1.285 . S
C696 H715 0.930 . S
C697 C700 1.424 . S
C697 C702 1.245 . S
C697 C703 1.428 . S
C698 C701 1.260 . S
C698 C702 1.477 . S
C698 H716 0.932 . S
C699 C700 1.384 . S
C699 C701 1.479 . S
C699 H717 0.929 . S
C700 C697 1.424 . S
C700 C699 1.384 . S
C700 H718 0.928 . S
C701 C698 1.260 . S
C701 C699 1.479 . S
C702 C697 1.245 . S
C702 C698 1.477 . S
C702 H719 0.932 . S
C703 U686 2.882 . S
C703 C697 1.428 . S
C703 O706 1.301 . S
C703 O707 1.282 . S
O704 U686 2.441 . S
O704 C690 1.249 . S
O705 U686 2.420 . S
O705 C690 1.202 . S
O706 U686 2.455 . S
O706 C703 1.301 . S
O707 U686 2.449 . S
O707 C703 1.282 . S
H708 C681 0.931 . S
H709 C683 0.929 . S
H710 C684 0.930 . S
H711 C685 0.931 . S
H712 C692 0.932 . S
H713 C693 0.930 . S
H714 C694 0.929 . S
H715 C696 0.930 . S
H716 C698 0.932 . S
H717 C699 0.929 . S
H718 C700 0.928 . S
H719 C702 0.932 . S
C720 C721 1.264 . S
C720 C725 1.479 . S
C720 C730 1.465 . S
C721 C720 1.264 . S
C721 C723 1.339 . S
C721 H748 0.931 . S
C722 C723 1.395 . S
C722 C724 1.320 . S
C723 C721 1.339 . S
C723 C722 1.395 . S
C723 H749 0.929 . S
C724 C722 1.320 . S
C724 C725 1.405 . S
C724 H750 0.930 . S
C725 C720 1.479 . S
C725 C724 1.405 . S
C725 H751 0.931 . S
U726 O727 2.454 . S
U726 O728 2.458 . S
U726 C729 2.984 . S
U726 C730 2.847 . S
U726 C743 2.882 . S
U726 O744 2.441 . S
U726 O745 2.420 . S
U726 O746 2.455 . S
U726 O747 2.449 . S
O727 U726 2.454 . S
O727 C729 1.353 . S
O728 U726 2.458 . S
O728 C729 1.286 . S
C729 U726 2.984 . S
C729 O727 1.353 . S
C729 O728 1.286 . S
C729 C731 1.363 . S
C730 C720 1.465 . S
C730 U726 2.847 . S
C730 O744 1.249 . S
C730 O745 1.202 . S
C731 C729 1.363 . S
C731 C733 1.408 . S
C731 C736 1.342 . S
C732 C733 1.310 . S
C732 C735 1.461 . S
C732 H752 0.932 . S
C733 C731 1.408 . S
C733 C732 1.310 . S
C733 H753 0.930 . S
C734 C735 1.474 . S
C734 C736 1.285 . S
C734 H754 0.929 . S
C735 C732 1.461 . S
C735 C734 1.474 . S
C736 C731 1.342 . S
C736 C734 1.285 . S
C736 H755 0.930 . S
C737 C740 1.424 . S
C737 C742 1.245 . S
C737 C743 1.428 . S
C738 C741 1.260 . S
C738 C742 1.477 . S
C738 H756 0.932 . S
C739 C740 1.384 . S
C739 C741 1.479 . S
C739 H757 0.929 . S
C740 C737 1.424 . S
C740 C739 1.384 . S
C740 H758 0.928 . S
C741 C738 1.260 . S
C741 C739 1.479 . S
C742 C737 1.245 . S
C742 C738 1.477 . S
C742 H759 0.932 . S
C743 U726 2.882 . S
C743 C737 1.428 . S
C743 O746 1.301 . S
C743 O747 1.282 . S
O744 U726 2.441 . S
O744 C730 1.249 . S
O745 U726 2.420 . S
O745 C730 1.202 . S
O746 U726 2.455 . S
O746 C743 1.301 . S
O747 U726 2.449 . S
O747 C743 1.282 . S
H748 C721 0.931 . S
H749 C723 0.929 . S
H750 C724 0.930 . S
H751 C725 0.931 . S
H752 C732 0.932 . S
H753 C733 0.930 . S
H754 C734 0.929 . S
H755 C736 0.930 . S
H756 C738 0.932 . S
H757 C739 0.929 . S
H758 C740 0.928 . S
H759 C742 0.932 . S
C760 C761 1.264 . S
C760 C765 1.479 . S
C760 C770 1.465 . S
C761 C760 1.264 . S
C761 C763 1.339 . S
C761 H788 0.931 . S
C762 C763 1.395 . S
C762 C764 1.320 . S
C763 C761 1.339 . S
C763 C762 1.395 . S
C763 H789 0.929 . S
C764 C762 1.320 . S
C764 C765 1.405 . S
C764 H790 0.930 . S
C765 C760 1.479 . S
C765 C764 1.405 . S
C765 H791 0.931 . S
U766 O767 2.454 . S
U766 O768 2.458 . S
U766 C769 2.984 . S
U766 C770 2.847 . S
U766 C783 2.882 . S
U766 O784 2.441 . S
U766 O785 2.420 . S
U766 O786 2.455 . S
U766 O787 2.449 . S
O767 U766 2.454 . S
O767 C769 1.353 . S
O768 U766 2.458 . S
O768 C769 1.286 . S
C769 U766 2.984 . S
C769 O767 1.353 . S
C769 O768 1.286 . S
C769 C771 1.363 . S
C770 C760 1.465 . S
C770 U766 2.847 . S
C770 O784 1.249 . S
C770 O785 1.202 . S
C771 C769 1.363 . S
C771 C773 1.408 . S
C771 C776 1.342 . S
C772 C773 1.310 . S
C772 C775 1.461 . S
C772 H792 0.932 . S
C773 C771 1.408 . S
C773 C772 1.310 . S
C773 H793 0.930 . S
C774 C775 1.474 . S
C774 C776 1.285 . S
C774 H794 0.929 . S
C775 C772 1.461 . S
C775 C774 1.474 . S
C776 C771 1.342 . S
C776 C774 1.285 . S
C776 H795 0.930 . S
C777 C780 1.424 . S
C777 C782 1.245 . S
C777 C783 1.428 . S
C778 C781 1.260 . S
C778 C782 1.477 . S
C778 H796 0.932 . S
C779 C780 1.384 . S
C779 C781 1.479 . S
C779 H797 0.929 . S
C780 C777 1.424 . S
C780 C779 1.384 . S
C780 H798 0.928 . S
C781 C778 1.260 . S
C781 C779 1.479 . S
C782 C777 1.245 . S
C782 C778 1.477 . S
C782 H799 0.932 . S
C783 U766 2.882 . S
C783 C777 1.428 . S
C783 O786 1.301 . S
C783 O787 1.282 . S
O784 U766 2.441 . S
O784 C770 1.249 . S
O785 U766 2.420 . S
O785 C770 1.202 . S
O786 U766 2.455 . S
O786 C783 1.301 . S
O787 U766 2.449 . S
O787 C783 1.282 . S
H788 C761 0.931 . S
H789 C763 0.929 . S
H790 C764 0.930 . S
H791 C765 0.931 . S
H792 C772 0.932 . S
H793 C773 0.930 . S
H794 C774 0.929 . S
H795 C776 0.930 . S
H796 C778 0.932 . S
H797 C779 0.929 . S
H798 C780 0.928 . S
H799 C782 0.932 . S
C800 C801 1.264 . S
C800 C805 1.479 . S
C800 C810 1.465 . S
C801 C800 1.264 . S
C801 C803 1.339 . S
C801 H828 0.931 . S
C802 C803 1.395 . S
C802 C804 1.320 . S
C803 C801 1.339 . S
C803 C802 1.395 . S
C803 H829 0.929 . S
C804 C802 1.320 . S
C804 C805 1.405 . S
C804 H830 0.930 . S
C805 C800 1.479 . S
C805 C804 1.405 . S
C805 H831 0.931 . S
U806 O807 2.454 . S
U806 O808 2.458 . S
U806 C809 2.984 . S
U806 C810 2.847 . S
U806 C823 2.882 . S
U806 O824 2.441 . S
U806 O825 2.420 . S
U806 O826 2.455 . S
U806 O827 2.449 . S
O807 U806 2.454 . S
O807 C809 1.353 . S
O808 U806 2.458 . S
O808 C809 1.286 . S
C809 U806 2.984 . S
C809 O807 1.353 . S
C809 O808 1.286 . S
C809 C811 1.363 . S
C810 C800 1.465 . S
C810 U806 2.847 . S
C810 O824 1.249 . S
C810 O825 1.202 . S
C811 C809 1.363 . S
C811 C813 1.408 . S
C811 C816 1.342 . S
C812 C813 1.310 . S
C812 C815 1.461 . S
C812 H832 0.932 . S
C813 C811 1.408 . S
C813 C812 1.310 . S
C813 H833 0.930 . S
C814 C815 1.474 . S
C814 C816 1.285 . S
C814 H834 0.929 . S
C815 C812 1.461 . S
C815 C814 1.474 . S
C816 C811 1.342 . S
C816 C814 1.285 . S
C816 H835 0.930 . S
C817 C820 1.424 . S
C817 C822 1.245 . S
C817 C823 1.428 . S
C818 C821 1.260 . S
C818 C822 1.477 . S
C818 H836 0.932 . S
C819 C820 1.384 . S
C819 C821 1.479 . S
C819 H837 0.929 . S
C820 C817 1.424 . S
C820 C819 1.384 . S
C820 H838 0.928 . S
C821 C818 1.260 . S
C821 C819 1.479 . S
C822 C817 1.245 . S
C822 C818 1.477 . S
C822 H839 0.932 . S
C823 U806 2.882 . S
C823 C817 1.428 . S
C823 O826 1.301 . S
C823 O827 1.282 . S
O824 U806 2.441 . S
O824 C810 1.249 . S
O825 U806 2.420 . S
O825 C810 1.202 . S
O826 U806 2.455 . S
O826 C823 1.301 . S
O827 U806 2.449 . S
O827 C823 1.282 . S
H828 C801 0.931 . S
H829 C803 0.929 . S
H830 C804 0.930 . S
H831 C805 0.931 . S
H832 C812 0.932 . S
H833 C813 0.930 . S
H834 C814 0.929 . S
H835 C816 0.930 . S
H836 C818 0.932 . S
H837 C819 0.929 . S
H838 C820 0.928 . S
H839 C822 0.932 . S
C840 C841 1.264 . S
C840 C845 1.479 . S
C840 C850 1.465 . S
C841 C840 1.264 . S
C841 C843 1.339 . S
C841 H868 0.931 . S
C842 C843 1.395 . S
C842 C844 1.320 . S
C843 C841 1.339 . S
C843 C842 1.395 . S
C843 H869 0.929 . S
C844 C842 1.320 . S
C844 C845 1.405 . S
C844 H870 0.930 . S
C845 C840 1.479 . S
C845 C844 1.405 . S
C845 H871 0.931 . S
U846 O847 2.454 . S
U846 O848 2.458 . S
U846 C849 2.984 . S
U846 C850 2.847 . S
U846 C863 2.882 . S
U846 O864 2.441 . S
U846 O865 2.420 . S
U846 O866 2.455 . S
U846 O867 2.449 . S
O847 U846 2.454 . S
O847 C849 1.353 . S
O848 U846 2.458 . S
O848 C849 1.286 . S
C849 U846 2.984 . S
C849 O847 1.353 . S
C849 O848 1.286 . S
C849 C851 1.363 . S
C850 C840 1.465 . S
C850 U846 2.847 . S
C850 O864 1.249 . S
C850 O865 1.202 . S
C851 C849 1.363 . S
C851 C853 1.408 . S
C851 C856 1.342 . S
C852 C853 1.310 . S
C852 C855 1.461 . S
C852 H872 0.932 . S
C853 C851 1.408 . S
C853 C852 1.310 . S
C853 H873 0.930 . S
C854 C855 1.474 . S
C854 C856 1.285 . S
C854 H874 0.929 . S
C855 C852 1.461 . S
C855 C854 1.474 . S
C856 C851 1.342 . S
C856 C854 1.285 . S
C856 H875 0.930 . S
C857 C860 1.424 . S
C857 C862 1.245 . S
C857 C863 1.428 . S
C858 C861 1.260 . S
C858 C862 1.477 . S
C858 H876 0.932 . S
C859 C860 1.384 . S
C859 C861 1.479 . S
C859 H877 0.929 . S
C860 C857 1.424 . S
C860 C859 1.384 . S
C860 H878 0.928 . S
C861 C858 1.260 . S
C861 C859 1.479 . S
C862 C857 1.245 . S
C862 C858 1.477 . S
C862 H879 0.932 . S
C863 U846 2.882 . S
C863 C857 1.428 . S
C863 O866 1.301 . S
C863 O867 1.282 . S
O864 U846 2.441 . S
O864 C850 1.249 . S
O865 U846 2.420 . S
O865 C850 1.202 . S
O866 U846 2.455 . S
O866 C863 1.301 . S
O867 U846 2.449 . S
O867 C863 1.282 . S
H868 C841 0.931 . S
H869 C843 0.929 . S
H870 C844 0.930 . S
H871 C845 0.931 . S
H872 C852 0.932 . S
H873 C853 0.930 . S
H874 C854 0.929 . S
H875 C856 0.930 . S
H876 C858 0.932 . S
H877 C859 0.929 . S
H878 C860 0.928 . S
H879 C862 0.932 . S
C880 C881 1.264 . S
C880 C885 1.479 . S
C880 C890 1.465 . S
C881 C880 1.264 . S
C881 C883 1.339 . S
C881 H908 0.931 . S
C882 C883 1.395 . S
C882 C884 1.320 . S
C883 C881 1.339 . S
C883 C882 1.395 . S
C883 H909 0.929 . S
C884 C882 1.320 . S
C884 C885 1.405 . S
C884 H910 0.930 . S
C885 C880 1.479 . S
C885 C884 1.405 . S
C885 H911 0.931 . S
U886 O887 2.454 . S
U886 O888 2.458 . S
U886 C889 2.984 . S
U886 C890 2.847 . S
U886 C903 2.882 . S
U886 O904 2.441 . S
U886 O905 2.420 . S
U886 O906 2.455 . S
U886 O907 2.449 . S
O887 U886 2.454 . S
O887 C889 1.353 . S
O888 U886 2.458 . S
O888 C889 1.286 . S
C889 U886 2.984 . S
C889 O887 1.353 . S
C889 O888 1.286 . S
C889 C891 1.363 . S
C890 C880 1.465 . S
C890 U886 2.847 . S
C890 O904 1.249 . S
C890 O905 1.202 . S
C891 C889 1.363 . S
C891 C893 1.408 . S
C891 C896 1.342 . S
C892 C893 1.310 . S
C892 C895 1.461 . S
C892 H912 0.932 . S
C893 C891 1.408 . S
C893 C892 1.310 . S
C893 H913 0.930 . S
C894 C895 1.474 . S
C894 C896 1.285 . S
C894 H914 0.929 . S
C895 C892 1.461 . S
C895 C894 1.474 . S
C896 C891 1.342 . S
C896 C894 1.285 . S
C896 H915 0.930 . S
C897 C900 1.424 . S
C897 C902 1.245 . S
C897 C903 1.428 . S
C898 C901 1.260 . S
C898 C902 1.477 . S
C898 H916 0.932 . S
C899 C900 1.384 . S
C899 C901 1.479 . S
C899 H917 0.929 . S
C900 C897 1.424 . S
C900 C899 1.384 . S
C900 H918 0.928 . S
C901 C898 1.260 . S
C901 C899 1.479 . S
C902 C897 1.245 . S
C902 C898 1.477 . S
C902 H919 0.932 . S
C903 U886 2.882 . S
C903 C897 1.428 . S
C903 O906 1.301 . S
C903 O907 1.282 . S
O904 U886 2.441 . S
O904 C890 1.249 . S
O905 U886 2.420 . S
O905 C890 1.202 . S
O906 U886 2.455 . S
O906 C903 1.301 . S
O907 U886 2.449 . S
O907 C903 1.282 . S
H908 C881 0.931 . S
H909 C883 0.929 . S
H910 C884 0.930 . S
H911 C885 0.931 . S
H912 C892 0.932 . S
H913 C893 0.930 . S
H914 C894 0.929 . S
H915 C896 0.930 . S
H916 C898 0.932 . S
H917 C899 0.929 . S
H918 C900 0.928 . S
H919 C902 0.932 . S
C920 C921 1.264 . S
C920 C925 1.479 . S
C920 C930 1.465 . S
C921 C920 1.264 . S
C921 C923 1.339 . S
C921 H948 0.931 . S
C922 C923 1.395 . S
C922 C924 1.320 . S
C923 C921 1.339 . S
C923 C922 1.395 . S
C923 H949 0.929 . S
C924 C922 1.320 . S
C924 C925 1.405 . S
C924 H950 0.930 . S
C925 C920 1.479 . S
C925 C924 1.405 . S
C925 H951 0.931 . S
U926 O927 2.454 . S
U926 O928 2.458 . S
U926 C929 2.984 . S
U926 C930 2.847 . S
U926 C943 2.882 . S
U926 O944 2.441 . S
U926 O945 2.420 . S
U926 O946 2.455 . S
U926 O947 2.449 . S
O927 U926 2.454 . S
O927 C929 1.353 . S
O928 U926 2.458 . S
O928 C929 1.286 . S
C929 U926 2.984 . S
C929 O927 1.353 . S
C929 O928 1.286 . S
C929 C931 1.363 . S
C930 C920 1.465 . S
C930 U926 2.847 . S
C930 O944 1.249 . S
C930 O945 1.202 . S
C931 C929 1.363 . S
C931 C933 1.408 . S
C931 C936 1.342 . S
C932 C933 1.310 . S
C932 C935 1.461 . S
C932 H952 0.932 . S
C933 C931 1.408 . S
C933 C932 1.310 . S
C933 H953 0.930 . S
C934 C935 1.474 . S
C934 C936 1.285 . S
C934 H954 0.929 . S
C935 C932 1.461 . S
C935 C934 1.474 . S
C936 C931 1.342 . S
C936 C934 1.285 . S
C936 H955 0.930 . S
C937 C940 1.424 . S
C937 C942 1.245 . S
C937 C943 1.428 . S
C938 C941 1.260 . S
C938 C942 1.477 . S
C938 H956 0.932 . S
C939 C940 1.384 . S
C939 C941 1.479 . S
C939 H957 0.929 . S
C940 C937 1.424 . S
C940 C939 1.384 . S
C940 H958 0.928 . S
C941 C938 1.260 . S
C941 C939 1.479 . S
C942 C937 1.245 . S
C942 C938 1.477 . S
C942 H959 0.932 . S
C943 U926 2.882 . S
C943 C937 1.428 . S
C943 O946 1.301 . S
C943 O947 1.282 . S
O944 U926 2.441 . S
O944 C930 1.249 . S
O945 U926 2.420 . S
O945 C930 1.202 . S
O946 U926 2.455 . S
O946 C943 1.301 . S
O947 U926 2.449 . S
O947 C943 1.282 . S
H948 C921 0.931 . S
H949 C923 0.929 . S
H950 C924 0.930 . S
H951 C925 0.931 . S
H952 C932 0.932 . S
H953 C933 0.930 . S
H954 C934 0.929 . S
H955 C936 0.930 . S
H956 C938 0.932 . S
H957 C939 0.929 . S
H958 C940 0.928 . S
H959 C942 0.932 . S
C960 C961 1.264 . S
C960 C965 1.479 . S
C960 C970 1.465 . S
C961 C960 1.264 . S
C961 C963 1.339 . S
C961 H988 0.931 . S
C962 C963 1.395 . S
C962 C964 1.320 . S
C963 C961 1.339 . S
C963 C962 1.395 . S
C963 H989 0.929 . S
C964 C962 1.320 . S
C964 C965 1.405 . S
C964 H990 0.930 . S
C965 C960 1.479 . S
C965 C964 1.405 . S
C965 H991 0.931 . S
U966 O967 2.454 . S
U966 O968 2.458 . S
U966 C969 2.984 . S
U966 C970 2.847 . S
U966 C983 2.882 . S
U966 O984 2.441 . S
U966 O985 2.420 . S
U966 O986 2.455 . S
U966 O987 2.449 . S
O967 U966 2.454 . S
O967 C969 1.353 . S
O968 U966 2.458 . S
O968 C969 1.286 . S
C969 U966 2.984 . S
C969 O967 1.353 . S
C969 O968 1.286 . S
C969 C971 1.363 . S
C970 C960 1.465 . S
C970 U966 2.847 . S
C970 O984 1.249 . S
C970 O985 1.202 . S
C971 C969 1.363 . S
C971 C973 1.408 . S
C971 C976 1.342 . S
C972 C973 1.310 . S
C972 C975 1.461 . S
C972 H992 0.932 . S
C973 C971 1.408 . S
C973 C972 1.310 . S
C973 H993 0.930 . S
C974 C975 1.474 . S
C974 C976 1.285 . S
C974 H994 0.929 . S
C975 C972 1.461 . S
C975 C974 1.474 . S
C976 C971 1.342 . S
C976 C974 1.285 . S
C976 H995 0.930 . S
C977 C980 1.424 . S
C977 C982 1.245 . S
C977 C983 1.428 . S
C978 C981 1.260 . S
C978 C982 1.477 . S
C978 H996 0.932 . S
C979 C980 1.384 . S
C979 C981 1.479 . S
C979 H997 0.929 . S
C980 C977 1.424 . S
C980 C979 1.384 . S
C980 H998 0.928 . S
C981 C978 1.260 . S
C981 C979 1.479 . S
C982 C977 1.245 . S
C982 C978 1.477 . S
C982 H999 0.932 . S
C983 U966 2.882 . S
C983 C977 1.428 . S
C983 O986 1.301 . S
C983 O987 1.282 . S
O984 U966 2.441 . S
O984 C970 1.249 . S
O985 U966 2.420 . S
O985 C970 1.202 . S
O986 U966 2.455 . S
O986 C983 1.301 . S
O987 U966 2.449 . S
O987 C983 1.282 . S
H988 C961 0.931 . S
H989 C963 0.929 . S
H990 C964 0.930 . S
H991 C965 0.931 . S
H992 C972 0.932 . S
H993 C973 0.930 . S
H994 C974 0.929 . S
H995 C976 0.930 . S
H996 C978 0.932 . S
H997 C979 0.929 . S
H998 C980 0.928 . S
H999 C982 0.932 . S
C1000 C1001 1.264 . S
C1000 C1005 1.479 . S
C1000 C1010 1.465 . S
C1001 C1000 1.264 . S
C1001 C1003 1.339 . S
C1001 H1028 0.931 . S
C1002 C1003 1.395 . S
C1002 C1004 1.320 . S
C1003 C1001 1.339 . S
C1003 C1002 1.395 . S
C1003 H1029 0.929 . S
C1004 C1002 1.320 . S
C1004 C1005 1.405 . S
C1004 H1030 0.930 . S
C1005 C1000 1.479 . S
C1005 C1004 1.405 . S
C1005 H1031 0.931 . S
U1006 O1007 2.454 . S
U1006 O1008 2.458 . S
U1006 C1009 2.984 . S
U1006 C1010 2.847 . S
U1006 C1023 2.882 . S
U1006 O1024 2.441 . S
U1006 O1025 2.420 . S
U1006 O1026 2.455 . S
U1006 O1027 2.449 . S
O1007 U1006 2.454 . S
O1007 C1009 1.353 . S
O1008 U1006 2.458 . S
O1008 C1009 1.286 . S
C1009 U1006 2.984 . S
C1009 O1007 1.353 . S
C1009 O1008 1.286 . S
C1009 C1011 1.363 . S
C1010 C1000 1.465 . S
C1010 U1006 2.847 . S
C1010 O1024 1.249 . S
C1010 O1025 1.202 . S
C1011 C1009 1.363 . S
C1011 C1013 1.408 . S
C1011 C1016 1.342 . S
C1012 C1013 1.310 . S
C1012 C1015 1.461 . S
C1012 H1032 0.932 . S
C1013 C1011 1.408 . S
C1013 C1012 1.310 . S
C1013 H1033 0.930 . S
C1014 C1015 1.474 . S
C1014 C1016 1.285 . S
C1014 H1034 0.929 . S
C1015 C1012 1.461 . S
C1015 C1014 1.474 . S
C1016 C1011 1.342 . S
C1016 C1014 1.285 . S
C1016 H1035 0.930 . S
C1017 C1020 1.424 . S
C1017 C1022 1.245 . S
C1017 C1023 1.428 . S
C1018 C1021 1.260 . S
C1018 C1022 1.477 . S
C1018 H1036 0.932 . S
C1019 C1020 1.384 . S
C1019 C1021 1.479 . S
C1019 H1037 0.929 . S
C1020 C1017 1.424 . S
C1020 C1019 1.384 . S
C1020 H1038 0.928 . S
C1021 C1018 1.260 . S
C1021 C1019 1.479 . S
C1022 C1017 1.245 . S
C1022 C1018 1.477 . S
C1022 H1039 0.932 . S
C1023 U1006 2.882 . S
C1023 C1017 1.428 . S
C1023 O1026 1.301 . S
C1023 O1027 1.282 . S
O1024 U1006 2.441 . S
O1024 C1010 1.249 . S
O1025 U1006 2.420 . S
O1025 C1010 1.202 . S
O1026 U1006 2.455 . S
O1026 C1023 1.301 . S
O1027 U1006 2.449 . S
O1027 C1023 1.282 . S
H1028 C1001 0.931 . S
H1029 C1003 0.929 . S
H1030 C1004 0.930 . S
H1031 C1005 0.931 . S
H1032 C1012 0.932 . S
H1033 C1013 0.930 . S
H1034 C1014 0.929 . S
H1035 C1016 0.930 . S
H1036 C1018 0.932 . S
H1037 C1019 0.929 . S
H1038 C1020 0.928 . S
H1039 C1022 0.932 . S
C1040 C1041 1.264 . S
C1040 C1045 1.479 . S
C1040 C1050 1.465 . S
C1041 C1040 1.264 . S
C1041 C1043 1.339 . S
C1041 H1068 0.931 . S
C1042 C1043 1.395 . S
C1042 C1044 1.320 . S
C1043 C1041 1.339 . S
C1043 C1042 1.395 . S
C1043 H1069 0.929 . S
C1044 C1042 1.320 . S
C1044 C1045 1.405 . S
C1044 H1070 0.930 . S
C1045 C1040 1.479 . S
C1045 C1044 1.405 . S
C1045 H1071 0.931 . S
U1046 O1047 2.454 . S
U1046 O1048 2.458 . S
U1046 C1049 2.984 . S
U1046 C1050 2.847 . S
U1046 C1063 2.882 . S
U1046 O1064 2.441 . S
U1046 O1065 2.420 . S
U1046 O1066 2.455 . S
U1046 O1067 2.449 . S
O1047 U1046 2.454 . S
O1047 C1049 1.353 . S
O1048 U1046 2.458 . S
O1048 C1049 1.286 . S
C1049 U1046 2.984 . S
C1049 O1047 1.353 . S
C1049 O1048 1.286 . S
C1049 C1051 1.363 . S
C1050 C1040 1.465 . S
C1050 U1046 2.847 . S
C1050 O1064 1.249 . S
C1050 O1065 1.202 . S
C1051 C1049 1.363 . S
C1051 C1053 1.408 . S
C1051 C1056 1.342 . S
C1052 C1053 1.310 . S
C1052 C1055 1.461 . S
C1052 H1072 0.932 . S
C1053 C1051 1.408 . S
C1053 C1052 1.310 . S
C1053 H1073 0.930 . S
C1054 C1055 1.474 . S
C1054 C1056 1.285 . S
C1054 H1074 0.929 . S
C1055 C1052 1.461 . S
C1055 C1054 1.474 . S
C1056 C1051 1.342 . S
C1056 C1054 1.285 . S
C1056 H1075 0.930 . S
C1057 C1060 1.424 . S
C1057 C1062 1.245 . S
C1057 C1063 1.428 . S
C1058 C1061 1.260 . S
C1058 C1062 1.477 . S
C1058 H1076 0.932 . S
C1059 C1060 1.384 . S
C1059 C1061 1.479 . S
C1059 H1077 0.929 . S
C1060 C1057 1.424 . S
C1060 C1059 1.384 . S
C1060 H1078 0.928 . S
C1061 C1058 1.260 . S
C1061 C1059 1.479 . S
C1062 C1057 1.245 . S
C1062 C1058 1.477 . S
C1062 H1079 0.932 . S
C1063 U1046 2.882 . S
C1063 C1057 1.428 . S
C1063 O1066 1.301 . S
C1063 O1067 1.282 . S
O1064 U1046 2.441 . S
O1064 C1050 1.249 . S
O1065 U1046 2.420 . S
O1065 C1050 1.202 . S
O1066 U1046 2.455 . S
O1066 C1063 1.301 . S
O1067 U1046 2.449 . S
O1067 C1063 1.282 . S
H1068 C1041 0.931 . S
H1069 C1043 0.929 . S
H1070 C1044 0.930 . S
H1071 C1045 0.931 . S
H1072 C1052 0.932 . S
H1073 C1053 0.930 . S
H1074 C1054 0.929 . S
H1075 C1056 0.930 . S
H1076 C1058 0.932 . S
H1077 C1059 0.929 . S
H1078 C1060 0.928 . S
H1079 C1062 0.932 . S
C1080 C1081 1.264 . S
C1080 C1085 1.479 . S
C1080 C1090 1.465 . S
C1081 C1080 1.264 . S
C1081 C1083 1.339 . S
C1081 H1108 0.931 . S
C1082 C1083 1.395 . S
C1082 C1084 1.320 . S
C1083 C1081 1.339 . S
C1083 C1082 1.395 . S
C1083 H1109 0.929 . S
C1084 C1082 1.320 . S
C1084 C1085 1.405 . S
C1084 H1110 0.930 . S
C1085 C1080 1.479 . S
C1085 C1084 1.405 . S
C1085 H1111 0.931 . S
U1086 O1087 2.454 . S
U1086 O1088 2.458 . S
U1086 C1089 2.984 . S
U1086 C1090 2.847 . S
U1086 C1103 2.882 . S
U1086 O1104 2.441 . S
U1086 O1105 2.420 . S
U1086 O1106 2.455 . S
U1086 O1107 2.449 . S
O1087 U1086 2.454 . S
O1087 C1089 1.353 . S
O1088 U1086 2.458 . S
O1088 C1089 1.286 . S
C1089 U1086 2.984 . S
C1089 O1087 1.353 . S
C1089 O1088 1.286 . S
C1089 C1091 1.363 . S
C1090 C1080 1.465 . S
C1090 U1086 2.847 . S
C1090 O1104 1.249 . S
C1090 O1105 1.202 . S
C1091 C1089 1.363 . S
C1091 C1093 1.408 . S
C1091 C1096 1.342 . S
C1092 C1093 1.310 . S
C1092 C1095 1.461 . S
C1092 H1112 0.932 . S
C1093 C1091 1.408 . S
C1093 C1092 1.310 . S
C1093 H1113 0.930 . S
C1094 C1095 1.474 . S
C1094 C1096 1.285 . S
C1094 H1114 0.929 . S
C1095 C1092 1.461 . S
C1095 C1094 1.474 . S
C1096 C1091 1.342 . S
C1096 C1094 1.285 . S
C1096 H1115 0.930 . S
C1097 C1100 1.424 . S
C1097 C1102 1.245 . S
C1097 C1103 1.428 . S
C1098 C1101 1.260 . S
C1098 C1102 1.477 . S
C1098 H1116 0.932 . S
C1099 C1100 1.384 . S
C1099 C1101 1.479 . S
C1099 H1117 0.929 . S
C1100 C1097 1.424 . S
C1100 C1099 1.384 . S
C1100 H1118 0.928 . S
C1101 C1098 1.260 . S
C1101 C1099 1.479 . S
C1102 C1097 1.245 . S
C1102 C1098 1.477 . S
C1102 H1119 0.932 . S
C1103 U1086 2.882 . S
C1103 C1097 1.428 . S
C1103 O1106 1.301 . S
C1103 O1107 1.282 . S
O1104 U1086 2.441 . S
O1104 C1090 1.249 . S
O1105 U1086 2.420 . S
O1105 C1090 1.202 . S
O1106 U1086 2.455 . S
O1106 C1103 1.301 . S
O1107 U1086 2.449 . S
O1107 C1103 1.282 . S
H1108 C1081 0.931 . S
H1109 C1083 0.929 . S
H1110 C1084 0.930 . S
H1111 C1085 0.931 . S
H1112 C1092 0.932 . S
H1113 C1093 0.930 . S
H1114 C1094 0.929 . S
H1115 C1096 0.930 . S
H1116 C1098 0.932 . S
H1117 C1099 0.929 . S
H1118 C1100 0.928 . S
H1119 C1102 0.932 . S
C1120 C1121 1.264 . S
C1120 C1125 1.479 . S
C1120 C1130 1.465 . S
C1121 C1120 1.264 . S
C1121 C1123 1.339 . S
C1121 H1148 0.931 . S
C1122 C1123 1.395 . S
C1122 C1124 1.320 . S
C1123 C1121 1.339 . S
C1123 C1122 1.395 . S
C1123 H1149 0.929 . S
C1124 C1122 1.320 . S
C1124 C1125 1.405 . S
C1124 H1150 0.930 . S
C1125 C1120 1.479 . S
C1125 C1124 1.405 . S
C1125 H1151 0.931 . S
U1126 O1127 2.454 . S
U1126 O1128 2.458 . S
U1126 C1129 2.984 . S
U1126 C1130 2.847 . S
U1126 C1143 2.882 . S
U1126 O1144 2.441 . S
U1126 O1145 2.420 . S
U1126 O1146 2.455 . S
U1126 O1147 2.449 . S
O1127 U1126 2.454 . S
O1127 C1129 1.353 . S
O1128 U1126 2.458 . S
O1128 C1129 1.286 . S
C1129 U1126 2.984 . S
C1129 O1127 1.353 . S
C1129 O1128 1.286 . S
C1129 C1131 1.363 . S
C1130 C1120 1.465 . S
C1130 U1126 2.847 . S
C1130 O1144 1.249 . S
C1130 O1145 1.202 . S
C1131 C1129 1.363 . S
C1131 C1133 1.408 . S
C1131 C1136 1.342 . S
C1132 C1133 1.310 . S
C1132 C1135 1.461 . S
C1132 H1152 0.932 . S
C1133 C1131 1.408 . S
C1133 C1132 1.310 . S
C1133 H1153 0.930 . S
C1134 C1135 1.474 . S
C1134 C1136 1.285 . S
C1134 H1154 0.929 . S
C1135 C1132 1.461 . S
C1135 C1134 1.474 . S
C1136 C1131 1.342 . S
C1136 C1134 1.285 . S
C1136 H1155 0.930 . S
C1137 C1140 1.424 . S
C1137 C1142 1.245 . S
C1137 C1143 1.428 . S
C1138 C1141 1.260 . S
C1138 C1142 1.477 . S
C1138 H1156 0.932 . S
C1139 C1140 1.384 . S
C1139 C1141 1.479 . S
C1139 H1157 0.929 . S
C1140 C1137 1.424 . S
C1140 C1139 1.384 . S
C1140 H1158 0.928 . S
C1141 C1138 1.260 . S
C1141 C1139 1.479 . S
C1142 C1137 1.245 . S
C1142 C1138 1.477 . S
C1142 H1159 0.932 . S
C1143 U1126 2.882 . S
C1143 C1137 1.428 . S
C1143 O1146 1.301 . S
C1143 O1147 1.282 . S
O1144 U1126 2.441 . S
O1144 C1130 1.249 . S
O1145 U1126 2.420 . S
O1145 C1130 1.202 . S
O1146 U1126 2.455 . S
O1146 C1143 1.301 . S
O1147 U1126 2.449 . S
O1147 C1143 1.282 . S
H1148 C1121 0.931 . S
H1149 C1123 0.929 . S
H1150 C1124 0.930 . S
H1151 C1125 0.931 . S
H1152 C1132 0.932 . S
H1153 C1133 0.930 . S
H1154 C1134 0.929 . S
H1155 C1136 0.930 . S
H1156 C1138 0.932 . S
H1157 C1139 0.929 . S
H1158 C1140 0.928 . S
H1159 C1142 0.932 . S
C1160 C1161 1.264 . S
C1160 C1165 1.479 . S
C1160 C1170 1.465 . S
C1161 C1160 1.264 . S
C1161 C1163 1.339 . S
C1161 H1188 0.931 . S
C1162 C1163 1.395 . S
C1162 C1164 1.320 . S
C1163 C1161 1.339 . S
C1163 C1162 1.395 . S
C1163 H1189 0.929 . S
C1164 C1162 1.320 . S
C1164 C1165 1.405 . S
C1164 H1190 0.930 . S
C1165 C1160 1.479 . S
C1165 C1164 1.405 . S
C1165 H1191 0.931 . S
U1166 O1167 2.454 . S
U1166 O1168 2.458 . S
U1166 C1169 2.984 . S
U1166 C1170 2.847 . S
U1166 C1183 2.882 . S
U1166 O1184 2.441 . S
U1166 O1185 2.420 . S
U1166 O1186 2.455 . S
U1166 O1187 2.449 . S
O1167 U1166 2.454 . S
O1167 C1169 1.353 . S
O1168 U1166 2.458 . S
O1168 C1169 1.286 . S
C1169 U1166 2.984 . S
C1169 O1167 1.353 . S
C1169 O1168 1.286 . S
C1169 C1171 1.363 . S
C1170 C1160 1.465 . S
C1170 U1166 2.847 . S
C1170 O1184 1.249 . S
C1170 O1185 1.202 . S
C1171 C1169 1.363 . S
C1171 C1173 1.408 . S
C1171 C1176 1.342 . S
C1172 C1173 1.310 . S
C1172 C1175 1.461 . S
C1172 H1192 0.932 . S
C1173 C1171 1.408 . S
C1173 C1172 1.310 . S
C1173 H1193 0.930 . S
C1174 C1175 1.474 . S
C1174 C1176 1.285 . S
C1174 H1194 0.929 . S
C1175 C1172 1.461 . S
C1175 C1174 1.474 . S
C1176 C1171 1.342 . S
C1176 C1174 1.285 . S
C1176 H1195 0.930 . S
C1177 C1180 1.424 . S
C1177 C1182 1.245 . S
C1177 C1183 1.428 . S
C1178 C1181 1.260 . S
C1178 C1182 1.477 . S
C1178 H1196 0.932 . S
C1179 C1180 1.384 . S
C1179 C1181 1.479 . S
C1179 H1197 0.929 . S
C1180 C1177 1.424 . S
C1180 C1179 1.384 . S
C1180 H1198 0.928 . S
C1181 C1178 1.260 . S
C1181 C1179 1.479 . S
C1182 C1177 1.245 . S
C1182 C1178 1.477 . S
C1182 H1199 0.932 . S
C1183 U1166 2.882 . S
C1183 C1177 1.428 . S
C1183 O1186 1.301 . S
C1183 O1187 1.282 . S
O1184 U1166 2.441 . S
O1184 C1170 1.249 . S
O1185 U1166 2.420 . S
O1185 C1170 1.202 . S
O1186 U1166 2.455 . S
O1186 C1183 1.301 . S
O1187 U1166 2.449 . S
O1187 C1183 1.282 . S
H1188 C1161 0.931 . S
H1189 C1163 0.929 . S
H1190 C1164 0.930 . S
H1191 C1165 0.931 . S
H1192 C1172 0.932 . S
H1193 C1173 0.930 . S
H1194 C1174 0.929 . S
H1195 C1176 0.930 . S
H1196 C1178 0.932 . S
H1197 C1179 0.929 . S
H1198 C1180 0.928 . S
H1199 C1182 0.932 . S
C1200 C1201 1.264 . S
C1200 C1205 1.479 . S
C1200 C1210 1.465 . S
C1201 C1200 1.264 . S
C1201 C1203 1.339 . S
C1201 H1228 0.931 . S
C1202 C1203 1.395 . S
C1202 C1204 1.320 . S
C1203 C1201 1.339 . S
C1203 C1202 1.395 . S
C1203 H1229 0.929 . S
C1204 C1202 1.320 . S
C1204 C1205 1.405 . S
C1204 H1230 0.930 . S
C1205 C1200 1.479 . S
C1205 C1204 1.405 . S
C1205 H1231 0.931 . S
U1206 O1207 2.454 . S
U1206 O1208 2.458 . S
U1206 C1209 2.984 . S
U1206 C1210 2.847 . S
U1206 C1223 2.882 . S
U1206 O1224 2.441 . S
U1206 O1225 2.420 . S
U1206 O1226 2.455 . S
U1206 O1227 2.449 . S
O1207 U1206 2.454 . S
O1207 C1209 1.353 . S
O1208 U1206 2.458 . S
O1208 C1209 1.286 . S
C1209 U1206 2.984 . S
C1209 O1207 1.353 . S
C1209 O1208 1.286 . S
C1209 C1211 1.363 . S
C1210 C1200 1.465 . S
C1210 U1206 2.847 . S
C1210 O1224 1.249 . S
C1210 O1225 1.202 . S
C1211 C1209 1.363 . S
C1211 C1213 1.408 . S
C1211 C1216 1.342 . S
C1212 C1213 1.310 . S
C1212 C1215 1.461 . S
C1212 H1232 0.932 . S
C1213 C1211 1.408 . S
C1213 C1212 1.310 . S
C1213 H1233 0.930 . S
C1214 C1215 1.474 . S
C1214 C1216 1.285 . S
C1214 H1234 0.929 . S
C1215 C1212 1.461 . S
C1215 C1214 1.474 . S
C1216 C1211 1.342 . S
C1216 C1214 1.285 . S
C1216 H1235 0.930 . S
C1217 C1220 1.424 . S
C1217 C1222 1.245 . S
C1217 C1223 1.428 . S
C1218 C1221 1.260 . S
C1218 C1222 1.477 . S
C1218 H1236 0.932 . S
C1219 C1220 1.384 . S
C1219 C1221 1.479 . S
C1219 H1237 0.929 . S
C1220 C1217 1.424 . S
C1220 C1219 1.384 . S
C1220 H1238 0.928 . S
C1221 C1218 1.260 . S
C1221 C1219 1.479 . S
C1222 C1217 1.245 . S
C1222 C1218 1.477 . S
C1222 H1239 0.932 . S
C1223 U1206 2.882 . S
C1223 C1217 1.428 . S
C1223 O1226 1.301 . S
C1223 O1227 1.282 . S
O1224 U1206 2.441 . S
O1224 C1210 1.249 . S
O1225 U1206 2.420 . S
O1225 C1210 1.202 . S
O1226 U1206 2.455 . S
O1226 C1223 1.301 . S
O1227 U1206 2.449 . S
O1227 C1223 1.282 . S
H1228 C1201 0.931 . S
H1229 C1203 0.929 . S
H1230 C1204 0.930 . S
H1231 C1205 0.931 . S
H1232 C1212 0.932 . S
H1233 C1213 0.930 . S
H1234 C1214 0.929 . S
H1235 C1216 0.930 . S
H1236 C1218 0.932 . S
H1237 C1219 0.929 . S
H1238 C1220 0.928 . S
H1239 C1222 0.932 . S
C1240 C1241 1.264 . S
C1240 C1245 1.479 . S
C1240 C1250 1.465 . S
C1241 C1240 1.264 . S
C1241 C1243 1.339 . S
C1241 H1268 0.931 . S
C1242 C1243 1.395 . S
C1242 C1244 1.320 . S
C1243 C1241 1.339 . S
C1243 C1242 1.395 . S
C1243 H1269 0.929 . S
C1244 C1242 1.320 . S
C1244 C1245 1.405 . S
C1244 H1270 0.930 . S
C1245 C1240 1.479 . S
C1245 C1244 1.405 . S
C1245 H1271 0.931 . S
U1246 O1247 2.454 . S
U1246 O1248 2.458 . S
U1246 C1249 2.984 . S
U1246 C1250 2.847 . S
U1246 C1263 2.882 . S
U1246 O1264 2.441 . S
U1246 O1265 2.420 . S
U1246 O1266 2.455 . S
U1246 O1267 2.449 . S
O1247 U1246 2.454 . S
O1247 C1249 1.353 . S
O1248 U1246 2.458 . S
O1248 C1249 1.286 . S
C1249 U1246 2.984 . S
C1249 O1247 1.353 . S
C1249 O1248 1.286 . S
C1249 C1251 1.363 . S
C1250 C1240 1.465 . S
C1250 U1246 2.847 . S
C1250 O1264 1.249 . S
C1250 O1265 1.202 . S
C1251 C1249 1.363 . S
C1251 C1253 1.408 . S
C1251 C1256 1.342 . S
C1252 C1253 1.310 . S
C1252 C1255 1.461 . S
C1252 H1272 0.932 . S
C1253 C1251 1.408 . S
C1253 C1252 1.310 . S
C1253 H1273 0.930 . S
C1254 C1255 1.474 . S
C1254 C1256 1.285 . S
C1254 H1274 0.929 . S
C1255 C1252 1.461 . S
C1255 C1254 1.474 . S
C1256 C1251 1.342 . S
C1256 C1254 1.285 . S
C1256 H1275 0.930 . S
C1257 C1260 1.424 . S
C1257 C1262 1.245 . S
C1257 C1263 1.428 . S
C1258 C1261 1.260 . S
C1258 C1262 1.477 . S
C1258 H1276 0.932 . S
C1259 C1260 1.384 . S
C1259 C1261 1.479 . S
C1259 H1277 0.929 . S
C1260 C1257 1.424 . S
C1260 C1259 1.384 . S
C1260 H1278 0.928 . S
C1261 C1258 1.260 . S
C1261 C1259 1.479 . S
C1262 C1257 1.245 . S
C1262 C1258 1.477 . S
C1262 H1279 0.932 . S
C1263 U1246 2.882 . S
C1263 C1257 1.428 . S
C1263 O1266 1.301 . S
C1263 O1267 1.282 . S
O1264 U1246 2.441 . S
O1264 C1250 1.249 . S
O1265 U1246 2.420 . S
O1265 C1250 1.202 . S
O1266 U1246 2.455 . S
O1266 C1263 1.301 . S
O1267 U1246 2.449 . S
O1267 C1263 1.282 . S
H1268 C1241 0.931 . S
H1269 C1243 0.929 . S
H1270 C1244 0.930 . S
H1271 C1245 0.931 . S
H1272 C1252 0.932 . S
H1273 C1253 0.930 . S
H1274 C1254 0.929 . S
H1275 C1256 0.930 . S
H1276 C1258 0.932 . S
H1277 C1259 0.929 . S
H1278 C1260 0.928 . S
H1279 C1262 0.932 . S
H1280 C1299 0.949 . S
H1281 C1300 0.950 . S
H1282 C1302 0.950 . S
H1283 C1303 0.950 . S
H1284 C1305 0.950 . S
H1285 C1308 0.950 . S
H1286 C1309 0.950 . S
H1287 C1311 0.951 . S
H1288 C1312 0.949 . S
H1289 C1314 0.949 . S
H1290 C1315 0.950 . S
H1291 C1317 0.950 . S
H1292 C1318 0.950 . S
H1293 C1320 0.950 . S
H1294 C1323 0.950 . S
H1295 C1324 0.950 . S
H1296 C1326 0.951 . S
H1297 C1327 0.949 . S
C1298 C1299 1.376 . S
C1298 C1303 1.386 . S
C1298 C1304 1.483 . S
C1299 H1280 0.949 . S
C1299 C1298 1.376 . S
C1299 C1300 1.397 . S
C1300 H1281 0.950 . S
C1300 C1299 1.397 . S
C1300 C1301 1.391 . S
C1301 C1300 1.391 . S
C1301 C1302 1.405 . S
C1302 H1282 0.950 . S
C1302 C1301 1.405 . S
C1302 C1303 1.367 . S
C1303 H1283 0.950 . S
C1303 C1298 1.386 . S
C1303 C1302 1.367 . S
C1304 C1298 1.483 . S
C1304 C1305 1.382 1_556 S
C1304 C1306 1.403 . S
C1305 H1284 0.950 . S
C1305 C1304 1.382 1_554 S
C1305 C1321 1.411 . S
C1306 C1304 1.403 . S
C1306 C1307 1.489 . S
C1306 C1320 1.411 1_556 S
C1307 C1306 1.489 . S
C1307 C1308 1.383 . S
C1307 C1312 1.382 . S
C1308 H1285 0.950 . S
C1308 C1307 1.383 . S
C1308 C1309 1.395 . S
C1309 H1286 0.950 . S
C1309 C1308 1.395 . S
C1309 C1310 1.288 . S
C1310 C1309 1.288 . S
C1310 C1311 1.392 . S
C1311 H1287 0.951 . S
C1311 C1310 1.392 . S
C1311 C1312 1.392 . S
C1312 H1288 0.949 . S
C1312 C1307 1.382 . S
C1312 C1311 1.392 . S
C1313 C1314 1.376 . S
C1313 C1318 1.386 . S
C1313 C1319 1.483 . S
C1314 H1289 0.949 . S
C1314 C1313 1.376 . S
C1314 C1315 1.397 . S
C1315 H1290 0.950 . S
C1315 C1314 1.397 . S
C1315 C1316 1.391 . S
C1316 C1315 1.391 . S
C1316 C1317 1.405 . S
C1317 H1291 0.950 . S
C1317 C1316 1.405 . S
C1317 C1318 1.367 . S
C1318 H1292 0.950 . S
C1318 C1313 1.386 . S
C1318 C1317 1.367 . S
C1319 C1313 1.483 . S
C1319 C1320 1.382 . S
C1319 C1321 1.403 . S
C1320 H1293 0.950 . S
C1320 C1306 1.411 1_554 S
C1320 C1319 1.382 . S
C1321 C1305 1.411 . S
C1321 C1319 1.403 . S
C1321 C1322 1.489 . S
C1322 C1321 1.489 . S
C1322 C1323 1.383 . S
C1322 C1327 1.382 . S
C1323 H1294 0.950 . S
C1323 C1322 1.383 . S
C1323 C1324 1.395 . S
C1324 H1295 0.950 . S
C1324 C1323 1.395 . S
C1324 C1325 1.288 . S
C1325 C1324 1.288 . S
C1325 C1326 1.392 . S
C1326 H1296 0.951 . S
C1326 C1325 1.392 . S
C1326 C1327 1.392 . S
C1327 H1297 0.949 . S
C1327 C1322 1.382 . S
C1327 C1326 1.392 . S
H1328 C1347 0.949 . S
H1329 C1348 0.950 . S
H1330 C1350 0.950 . S
H1331 C1351 0.950 . S
H1332 C1353 0.950 . S
H1333 C1356 0.950 . S
H1334 C1357 0.950 . S
H1335 C1359 0.951 . S
H1336 C1360 0.949 . S
H1337 C1362 0.949 . S
H1338 C1363 0.950 . S
H1339 C1365 0.950 . S
H1340 C1366 0.950 . S
H1341 C1368 0.950 . S
H1342 C1371 0.950 . S
H1343 C1372 0.950 . S
H1344 C1374 0.951 . S
H1345 C1375 0.949 . S
C1346 C1347 1.376 . S
C1346 C1351 1.386 . S
C1346 C1352 1.483 . S
C1347 H1328 0.949 . S
C1347 C1346 1.376 . S
C1347 C1348 1.397 . S
C1348 H1329 0.950 . S
C1348 C1347 1.397 . S
C1348 C1349 1.391 . S
C1349 C1348 1.391 . S
C1349 C1350 1.405 . S
C1350 H1330 0.950 . S
C1350 C1349 1.405 . S
C1350 C1351 1.367 . S
C1351 H1331 0.950 . S
C1351 C1346 1.386 . S
C1351 C1350 1.367 . S
C1352 C1346 1.483 . S
C1352 C1353 1.382 1_556 S
C1352 C1354 1.403 . S
C1353 H1332 0.950 . S
C1353 C1352 1.382 1_554 S
C1353 C1369 1.411 . S
C1354 C1352 1.403 . S
C1354 C1355 1.489 . S
C1354 C1368 1.411 1_556 S
C1355 C1354 1.489 . S
C1355 C1356 1.383 . S
C1355 C1360 1.382 . S
C1356 H1333 0.950 . S
C1356 C1355 1.383 . S
C1356 C1357 1.395 . S
C1357 H1334 0.950 . S
C1357 C1356 1.395 . S
C1357 C1358 1.288 . S
C1358 C1357 1.288 . S
C1358 C1359 1.392 . S
C1359 H1335 0.951 . S
C1359 C1358 1.392 . S
C1359 C1360 1.392 . S
C1360 H1336 0.949 . S
C1360 C1355 1.382 . S
C1360 C1359 1.392 . S
C1361 C1362 1.376 . S
C1361 C1366 1.386 . S
C1361 C1367 1.483 . S
C1362 H1337 0.949 . S
C1362 C1361 1.376 . S
C1362 C1363 1.397 . S
C1363 H1338 0.950 . S
C1363 C1362 1.397 . S
C1363 C1364 1.391 . S
C1364 C1363 1.391 . S
C1364 C1365 1.405 . S
C1365 H1339 0.950 . S
C1365 C1364 1.405 . S
C1365 C1366 1.367 . S
C1366 H1340 0.950 . S
C1366 C1361 1.386 . S
C1366 C1365 1.367 . S
C1367 C1361 1.483 . S
C1367 C1368 1.382 . S
C1367 C1369 1.403 . S
C1368 H1341 0.950 . S
C1368 C1354 1.411 1_554 S
C1368 C1367 1.382 . S
C1369 C1353 1.411 . S
C1369 C1367 1.403 . S
C1369 C1370 1.489 . S
C1370 C1369 1.489 . S
C1370 C1371 1.383 . S
C1370 C1375 1.382 . S
C1371 H1342 0.950 . S
C1371 C1370 1.383 . S
C1371 C1372 1.395 . S
C1372 H1343 0.950 . S
C1372 C1371 1.395 . S
C1372 C1373 1.288 . S
C1373 C1372 1.288 . S
C1373 C1374 1.392 . S
C1374 H1344 0.951 . S
C1374 C1373 1.392 . S
C1374 C1375 1.392 . S
C1375 H1345 0.949 . S
C1375 C1370 1.382 . S
C1375 C1374 1.392 . S
H1376 C1395 0.949 . S
H1377 C1396 0.950 . S
H1378 C1398 0.950 . S
H1379 C1399 0.950 . S
H1380 C1401 0.950 . S
H1381 C1404 0.950 . S
H1382 C1405 0.950 . S
H1383 C1407 0.951 . S
H1384 C1408 0.949 . S
H1385 C1410 0.949 . S
H1386 C1411 0.950 . S
H1387 C1413 0.950 . S
H1388 C1414 0.950 . S
H1389 C1416 0.950 . S
H1390 C1419 0.950 . S
H1391 C1420 0.950 . S
H1392 C1422 0.951 . S
H1393 C1423 0.949 . S
C1394 C1395 1.376 . S
C1394 C1399 1.386 . S
C1394 C1400 1.483 . S
C1395 H1376 0.949 . S
C1395 C1394 1.376 . S
C1395 C1396 1.397 . S
C1396 H1377 0.950 . S
C1396 C1395 1.397 . S
C1396 C1397 1.391 . S
C1397 C1396 1.391 . S
C1397 C1398 1.405 . S
C1398 H1378 0.950 . S
C1398 C1397 1.405 . S
C1398 C1399 1.367 . S
C1399 H1379 0.950 . S
C1399 C1394 1.386 . S
C1399 C1398 1.367 . S
C1400 C1394 1.483 . S
C1400 C1401 1.382 . S
C1400 C1402 1.403 . S
C1401 H1380 0.950 . S
C1401 C1400 1.382 . S
C1401 C1417 1.411 1_554 S
C1402 C1400 1.403 . S
C1402 C1403 1.489 . S
C1402 C1416 1.411 . S
C1403 C1402 1.489 . S
C1403 C1404 1.383 . S
C1403 C1408 1.382 . S
C1404 H1381 0.950 . S
C1404 C1403 1.383 . S
C1404 C1405 1.395 . S
C1405 H1382 0.950 . S
C1405 C1404 1.395 . S
C1405 C1406 1.288 . S
C1406 C1405 1.288 . S
C1406 C1407 1.392 . S
C1407 H1383 0.951 . S
C1407 C1406 1.392 . S
C1407 C1408 1.392 . S
C1408 H1384 0.949 . S
C1408 C1403 1.382 . S
C1408 C1407 1.392 . S
C1409 C1410 1.376 . S
C1409 C1414 1.386 . S
C1409 C1415 1.483 . S
C1410 H1385 0.949 . S
C1410 C1409 1.376 . S
C1410 C1411 1.397 . S
C1411 H1386 0.950 . S
C1411 C1410 1.397 . S
C1411 C1412 1.391 . S
C1412 C1411 1.391 . S
C1412 C1413 1.405 . S
C1413 H1387 0.950 . S
C1413 C1412 1.405 . S
C1413 C1414 1.367 . S
C1414 H1388 0.950 . S
C1414 C1409 1.386 . S
C1414 C1413 1.367 . S
C1415 C1409 1.483 . S
C1415 C1416 1.382 1_556 S
C1415 C1417 1.403 . S
C1416 H1389 0.950 . S
C1416 C1402 1.411 . S
C1416 C1415 1.382 1_554 S
C1417 C1401 1.411 1_556 S
C1417 C1415 1.403 . S
C1417 C1418 1.489 . S
C1418 C1417 1.489 . S
C1418 C1419 1.383 . S
C1418 C1423 1.382 . S
C1419 H1390 0.950 . S
C1419 C1418 1.383 . S
C1419 C1420 1.395 . S
C1420 H1391 0.950 . S
C1420 C1419 1.395 . S
C1420 C1421 1.288 . S
C1421 C1420 1.288 . S
C1421 C1422 1.392 . S
C1422 H1392 0.951 . S
C1422 C1421 1.392 . S
C1422 C1423 1.392 . S
C1423 H1393 0.949 . S
C1423 C1418 1.382 . S
C1423 C1422 1.392 . S
H1424 C1443 0.949 . S
H1425 C1444 0.950 . S
H1426 C1446 0.950 . S
H1427 C1447 0.950 . S
H1428 C1449 0.950 . S
H1429 C1452 0.950 . S
H1430 C1453 0.950 . S
H1431 C1455 0.951 . S
H1432 C1456 0.949 . S
H1433 C1458 0.949 . S
H1434 C1459 0.950 . S
H1435 C1461 0.950 . S
H1436 C1462 0.950 . S
H1437 C1464 0.950 . S
H1438 C1467 0.950 . S
H1439 C1468 0.950 . S
H1440 C1470 0.951 . S
H1441 C1471 0.949 . S
C1442 C1443 1.376 . S
C1442 C1447 1.386 . S
C1442 C1448 1.483 . S
C1443 H1424 0.949 . S
C1443 C1442 1.376 . S
C1443 C1444 1.397 . S
C1444 H1425 0.950 . S
C1444 C1443 1.397 . S
C1444 C1445 1.391 . S
C1445 C1444 1.391 . S
C1445 C1446 1.405 . S
C1446 H1426 0.950 . S
C1446 C1445 1.405 . S
C1446 C1447 1.367 . S
C1447 H1427 0.950 . S
C1447 C1442 1.386 . S
C1447 C1446 1.367 . S
C1448 C1442 1.483 . S
C1448 C1449 1.382 1_556 S
C1448 C1450 1.403 . S
C1449 H1428 0.950 . S
C1449 C1448 1.382 1_554 S
C1449 C1465 1.411 . S
C1450 C1448 1.403 . S
C1450 C1451 1.489 . S
C1450 C1464 1.411 1_556 S
C1451 C1450 1.489 . S
C1451 C1452 1.383 . S
C1451 C1456 1.382 . S
C1452 H1429 0.950 . S
C1452 C1451 1.383 . S
C1452 C1453 1.395 . S
C1453 H1430 0.950 . S
C1453 C1452 1.395 . S
C1453 C1454 1.288 . S
C1454 C1453 1.288 . S
C1454 C1455 1.392 . S
C1455 H1431 0.951 . S
C1455 C1454 1.392 . S
C1455 C1456 1.392 . S
C1456 H1432 0.949 . S
C1456 C1451 1.382 . S
C1456 C1455 1.392 . S
C1457 C1458 1.376 . S
C1457 C1462 1.386 . S
C1457 C1463 1.483 . S
C1458 H1433 0.949 . S
C1458 C1457 1.376 . S
C1458 C1459 1.397 . S
C1459 H1434 0.950 . S
C1459 C1458 1.397 . S
C1459 C1460 1.391 . S
C1460 C1459 1.391 . S
C1460 C1461 1.405 . S
C1461 H1435 0.950 . S
C1461 C1460 1.405 . S
C1461 C1462 1.367 . S
C1462 H1436 0.950 . S
C1462 C1457 1.386 . S
C1462 C1461 1.367 . S
C1463 C1457 1.483 . S
C1463 C1464 1.382 . S
C1463 C1465 1.403 . S
C1464 H1437 0.950 . S
C1464 C1450 1.411 1_554 S
C1464 C1463 1.382 . S
C1465 C1449 1.411 . S
C1465 C1463 1.403 . S
C1465 C1466 1.489 . S
C1466 C1465 1.489 . S
C1466 C1467 1.383 . S
C1466 C1471 1.382 . S
C1467 H1438 0.950 . S
C1467 C1466 1.383 . S
C1467 C1468 1.395 . S
C1468 H1439 0.950 . S
C1468 C1467 1.395 . S
C1468 C1469 1.288 . S
C1469 C1468 1.288 . S
C1469 C1470 1.392 . S
C1470 H1440 0.951 . S
C1470 C1469 1.392 . S
C1470 C1471 1.392 . S
C1471 H1441 0.949 . S
C1471 C1466 1.382 . S
C1471 C1470 1.392 . S
H1472 C1491 0.949 . S
H1473 C1492 0.950 . S
H1474 C1494 0.950 . S
H1475 C1495 0.950 . S
H1476 C1497 0.950 . S
H1477 C1500 0.950 . S
H1478 C1501 0.950 . S
H1479 C1503 0.951 . S
H1480 C1504 0.949 . S
H1481 C1506 0.949 . S
H1482 C1507 0.950 . S
H1483 C1509 0.950 . S
H1484 C1510 0.950 . S
H1485 C1512 0.950 . S
H1486 C1515 0.950 . S
H1487 C1516 0.950 . S
H1488 C1518 0.951 . S
H1489 C1519 0.949 . S
C1490 C1491 1.376 . S
C1490 C1495 1.386 . S
C1490 C1496 1.483 . S
C1491 H1472 0.949 . S
C1491 C1490 1.376 . S
C1491 C1492 1.397 . S
C1492 H1473 0.950 . S
C1492 C1491 1.397 . S
C1492 C1493 1.391 . S
C1493 C1492 1.391 . S
C1493 C1494 1.405 . S
C1494 H1474 0.950 . S
C1494 C1493 1.405 . S
C1494 C1495 1.367 . S
C1495 H1475 0.950 . S
C1495 C1490 1.386 . S
C1495 C1494 1.367 . S
C1496 C1490 1.483 . S
C1496 C1497 1.382 . S
C1496 C1498 1.403 . S
C1497 H1476 0.950 . S
C1497 C1496 1.382 . S
C1497 C1513 1.411 1_455 S
C1498 C1496 1.403 . S
C1498 C1499 1.489 . S
C1498 C1512 1.411 . S
C1499 C1498 1.489 . S
C1499 C1500 1.383 . S
C1499 C1504 1.382 . S
C1500 H1477 0.950 . S
C1500 C1499 1.383 . S
C1500 C1501 1.395 . S
C1501 H1478 0.950 . S
C1501 C1500 1.395 . S
C1501 C1502 1.288 . S
C1502 C1501 1.288 . S
C1502 C1503 1.392 . S
C1503 H1479 0.951 . S
C1503 C1502 1.392 . S
C1503 C1504 1.392 . S
C1504 H1480 0.949 . S
C1504 C1499 1.382 . S
C1504 C1503 1.392 . S
C1505 C1506 1.376 . S
C1505 C1510 1.386 . S
C1505 C1511 1.483 . S
C1506 H1481 0.949 . S
C1506 C1505 1.376 . S
C1506 C1507 1.397 . S
C1507 H1482 0.950 . S
C1507 C1506 1.397 . S
C1507 C1508 1.391 . S
C1508 C1507 1.391 . S
C1508 C1509 1.405 . S
C1509 H1483 0.950 . S
C1509 C1508 1.405 . S
C1509 C1510 1.367 . S
C1510 H1484 0.950 . S
C1510 C1505 1.386 . S
C1510 C1509 1.367 . S
C1511 C1505 1.483 . S
C1511 C1512 1.382 1_655 S
C1511 C1513 1.403 . S
C1512 H1485 0.950 . S
C1512 C1498 1.411 . S
C1512 C1511 1.382 1_455 S
C1513 C1497 1.411 1_655 S
C1513 C1511 1.403 . S
C1513 C1514 1.489 . S
C1514 C1513 1.489 . S
C1514 C1515 1.383 . S
C1514 C1519 1.382 . S
C1515 H1486 0.950 . S
C1515 C1514 1.383 . S
C1515 C1516 1.395 . S
C1516 H1487 0.950 . S
C1516 C1515 1.395 . S
C1516 C1517 1.288 . S
C1517 C1516 1.288 . S
C1517 C1518 1.392 . S
C1518 H1488 0.951 . S
C1518 C1517 1.392 . S
C1518 C1519 1.392 . S
C1519 H1489 0.949 . S
C1519 C1514 1.382 . S
C1519 C1518 1.392 . S
H1520 C1539 0.949 . S
H1521 C1540 0.950 . S
H1522 C1542 0.950 . S
H1523 C1543 0.950 . S
H1524 C1545 0.950 . S
H1525 C1548 0.950 . S
H1526 C1549 0.950 . S
H1527 C1551 0.951 . S
H1528 C1552 0.949 . S
H1529 C1554 0.949 . S
H1530 C1555 0.950 . S
H1531 C1557 0.950 . S
H1532 C1558 0.950 . S
H1533 C1560 0.950 . S
H1534 C1563 0.950 . S
H1535 C1564 0.950 . S
H1536 C1566 0.951 . S
H1537 C1567 0.949 . S
C1538 C1539 1.376 . S
C1538 C1543 1.386 . S
C1538 C1544 1.483 . S
C1539 H1520 0.949 . S
C1539 C1538 1.376 . S
C1539 C1540 1.397 . S
C1540 H1521 0.950 . S
C1540 C1539 1.397 . S
C1540 C1541 1.391 . S
C1541 C1540 1.391 . S
C1541 C1542 1.405 . S
C1542 H1522 0.950 . S
C1542 C1541 1.405 . S
C1542 C1543 1.367 . S
C1543 H1523 0.950 . S
C1543 C1538 1.386 . S
C1543 C1542 1.367 . S
C1544 C1538 1.483 . S
C1544 C1545 1.382 . S
C1544 C1546 1.403 . S
C1545 H1524 0.950 . S
C1545 C1544 1.382 . S
C1545 C1561 1.411 1_545 S
C1546 C1544 1.403 . S
C1546 C1547 1.489 . S
C1546 C1560 1.405 1_545 S
C1547 C1546 1.489 . S
C1547 C1548 1.383 . S
C1547 C1552 1.382 . S
C1548 H1525 0.950 . S
C1548 C1547 1.383 . S
C1548 C1549 1.395 . S
C1549 H1526 0.950 . S
C1549 C1548 1.395 . S
C1549 C1550 1.288 . S
C1550 C1549 1.288 . S
C1550 C1551 1.392 . S
C1551 H1527 0.951 . S
C1551 C1550 1.392 . S
C1551 C1552 1.392 . S
C1552 H1528 0.949 . S
C1552 C1547 1.382 . S
C1552 C1551 1.392 . S
C1553 C1554 1.376 . S
C1553 C1558 1.386 . S
C1553 C1559 1.483 . S
C1554 H1529 0.949 . S
C1554 C1553 1.376 . S
C1554 C1555 1.397 . S
C1555 H1530 0.950 . S
C1555 C1554 1.397 . S
C1555 C1556 1.391 . S
C1556 C1555 1.391 . S
C1556 C1557 1.405 . S
C1557 H1531 0.950 . S
C1557 C1556 1.405 . S
C1557 C1558 1.367 . S
C1558 H1532 0.950 . S
C1558 C1553 1.386 . S
C1558 C1557 1.367 . S
C1559 C1553 1.483 . S
C1559 C1560 1.388 . S
C1559 C1561 1.403 . S
C1560 H1533 0.950 . S
C1560 C1546 1.405 1_565 S
C1560 C1559 1.388 . S
C1561 C1545 1.411 1_565 S
C1561 C1559 1.403 . S
C1561 C1562 1.489 . S
C1562 C1561 1.489 . S
C1562 C1563 1.383 . S
C1562 C1567 1.382 . S
C1563 H1534 0.950 . S
C1563 C1562 1.383 . S
C1563 C1564 1.395 . S
C1564 H1535 0.950 . S
C1564 C1563 1.395 . S
C1564 C1565 1.288 . S
C1565 C1564 1.288 . S
C1565 C1566 1.392 . S
C1566 H1536 0.951 . S
C1566 C1565 1.392 . S
C1566 C1567 1.392 . S
C1567 H1537 0.949 . S
C1567 C1562 1.382 . S
C1567 C1566 1.392 . S
H1568 C1587 0.949 . S
H1569 C1588 0.950 . S
H1570 C1590 0.950 . S
H1571 C1591 0.950 . S
H1572 C1593 0.955 . S
H1573 C1596 0.950 . S
H1574 C1597 0.950 . S
H1575 C1599 0.951 . S
H1576 C1600 0.949 . S
H1577 C1602 0.949 . S
H1578 C1603 0.950 . S
H1579 C1605 0.950 . S
H1580 C1606 0.950 . S
H1581 C1608 0.950 . S
H1582 C1611 0.950 . S
H1583 C1612 0.950 . S
H1584 C1614 0.951 . S
H1585 C1615 0.949 . S
C1586 C1587 1.376 . S
C1586 C1591 1.386 . S
C1586 C1592 1.483 . S
C1587 H1568 0.949 . S
C1587 C1586 1.376 . S
C1587 C1588 1.397 . S
C1588 H1569 0.950 . S
C1588 C1587 1.397 . S
C1588 C1589 1.391 . S
C1589 C1588 1.391 . S
C1589 C1590 1.405 . S
C1590 H1570 0.950 . S
C1590 C1589 1.405 . S
C1590 C1591 1.367 . S
C1591 H1571 0.950 . S
C1591 C1586 1.386 . S
C1591 C1590 1.367 . S
C1592 C1586 1.483 . S
C1592 C1593 1.451 . S
C1592 C1594 1.403 . S
C1593 H1572 0.955 . S
C1593 C1592 1.451 . S
C1593 C1609 1.341 1_455 S
C1594 C1592 1.403 . S
C1594 C1595 1.489 . S
C1594 C1608 1.430 . S
C1595 C1594 1.489 . S
C1595 C1596 1.383 . S
C1595 C1600 1.382 . S
C1596 H1573 0.950 . S
C1596 C1595 1.383 . S
C1596 C1597 1.395 . S
C1597 H1574 0.950 . S
C1597 C1596 1.395 . S
C1597 C1598 1.288 . S
C1598 C1597 1.288 . S
C1598 C1599 1.392 . S
C1599 H1575 0.951 . S
C1599 C1598 1.392 . S
C1599 C1600 1.392 . S
C1600 H1576 0.949 . S
C1600 C1595 1.382 . S
C1600 C1599 1.392 . S
C1601 C1602 1.376 . S
C1601 C1606 1.386 . S
C1601 C1607 1.483 . S
C1602 H1577 0.949 . S
C1602 C1601 1.376 . S
C1602 C1603 1.397 . S
C1603 H1578 0.950 . S
C1603 C1602 1.397 . S
C1603 C1604 1.391 . S
C1604 C1603 1.391 . S
C1604 C1605 1.405 . S
C1605 H1579 0.950 . S
C1605 C1604 1.405 . S
C1605 C1606 1.367 . S
C1606 H1580 0.950 . S
C1606 C1601 1.386 . S
C1606 C1605 1.367 . S
C1607 C1601 1.483 . S
C1607 C1608 1.364 1_655 S
C1607 C1609 1.403 . S
C1608 H1581 0.950 . S
C1608 C1594 1.430 . S
C1608 C1607 1.364 1_455 S
C1609 C1593 1.341 1_655 S
C1609 C1607 1.403 . S
C1609 C1610 1.489 . S
C1610 C1609 1.489 . S
C1610 C1611 1.383 . S
C1610 C1615 1.382 . S
C1611 H1582 0.950 . S
C1611 C1610 1.383 . S
C1611 C1612 1.395 . S
C1612 H1583 0.950 . S
C1612 C1611 1.395 . S
C1612 C1613 1.288 . S
C1613 C1612 1.288 . S
C1613 C1614 1.392 . S
C1614 H1584 0.951 . S
C1614 C1613 1.392 . S
C1614 C1615 1.392 . S
C1615 H1585 0.949 . S
C1615 C1610 1.382 . S
C1615 C1614 1.392 . S
H1616 C1635 0.949 . S
H1617 C1636 0.950 . S
H1618 C1638 0.950 . S
H1619 C1639 0.950 . S
H1620 C1641 0.950 . S
H1621 C1644 0.950 . S
H1622 C1645 0.950 . S
H1623 C1647 0.951 . S
H1624 C1648 0.949 . S
H1625 C1650 0.949 . S
H1626 C1651 0.950 . S
H1627 C1653 0.950 . S
H1628 C1654 0.950 . S
H1629 C1656 0.950 . S
H1630 C1659 0.950 . S
H1631 C1660 0.950 . S
H1632 C1662 0.951 . S
H1633 C1663 0.949 . S
C1634 C1635 1.376 . S
C1634 C1639 1.386 . S
C1634 C1640 1.483 . S
C1635 H1616 0.949 . S
C1635 C1634 1.376 . S
C1635 C1636 1.397 . S
C1636 H1617 0.950 . S
C1636 C1635 1.397 . S
C1636 C1637 1.391 . S
C1637 C1636 1.391 . S
C1637 C1638 1.405 . S
C1638 H1618 0.950 . S
C1638 C1637 1.405 . S
C1638 C1639 1.367 . S
C1639 H1619 0.950 . S
C1639 C1634 1.386 . S
C1639 C1638 1.367 . S
C1640 C1634 1.483 . S
C1640 C1641 1.382 . S
C1640 C1642 1.403 . S
C1641 H1620 0.950 . S
C1641 C1640 1.382 . S
C1641 C1657 1.411 1_545 S
C1642 C1640 1.403 . S
C1642 C1643 1.489 . S
C1642 C1656 1.411 . S
C1643 C1642 1.489 . S
C1643 C1644 1.383 . S
C1643 C1648 1.382 . S
C1644 H1621 0.950 . S
C1644 C1643 1.383 . S
C1644 C1645 1.395 . S
C1645 H1622 0.950 . S
C1645 C1644 1.395 . S
C1645 C1646 1.288 . S
C1646 C1645 1.288 . S
C1646 C1647 1.392 . S
C1647 H1623 0.951 . S
C1647 C1646 1.392 . S
C1647 C1648 1.392 . S
C1648 H1624 0.949 . S
C1648 C1643 1.382 . S
C1648 C1647 1.392 . S
C1649 C1650 1.376 . S
C1649 C1654 1.386 . S
C1649 C1655 1.483 . S
C1650 H1625 0.949 . S
C1650 C1649 1.376 . S
C1650 C1651 1.397 . S
C1651 H1626 0.950 . S
C1651 C1650 1.397 . S
C1651 C1652 1.391 . S
C1652 C1651 1.391 . S
C1652 C1653 1.405 . S
C1653 H1627 0.950 . S
C1653 C1652 1.405 . S
C1653 C1654 1.367 . S
C1654 H1628 0.950 . S
C1654 C1649 1.386 . S
C1654 C1653 1.367 . S
C1655 C1649 1.483 . S
C1655 C1656 1.382 1_565 S
C1655 C1657 1.403 . S
C1656 H1629 0.950 . S
C1656 C1642 1.411 . S
C1656 C1655 1.382 1_545 S
C1657 C1641 1.411 1_565 S
C1657 C1655 1.403 . S
C1657 C1658 1.489 . S
C1658 C1657 1.489 . S
C1658 C1659 1.383 . S
C1658 C1663 1.382 . S
C1659 H1630 0.950 . S
C1659 C1658 1.383 . S
C1659 C1660 1.395 . S
C1660 H1631 0.950 . S
C1660 C1659 1.395 . S
C1660 C1661 1.288 . S
C1661 C1660 1.288 . S
C1661 C1662 1.392 . S
C1662 H1632 0.951 . S
C1662 C1661 1.392 . S
C1662 C1663 1.392 . S
C1663 H1633 0.949 . S
C1663 C1658 1.382 . S
C1663 C1662 1.392 . S
H1664 C1683 0.949 . S
H1665 C1684 0.950 . S
H1666 C1686 0.950 . S
H1667 C1687 0.950 . S
H1668 C1689 0.950 . S
H1669 C1692 0.950 . S
H1670 C1693 0.950 . S
H1671 C1695 0.951 . S
H1672 C1696 0.949 . S
H1673 C1698 0.949 . S
H1674 C1699 0.950 . S
H1675 C1701 0.950 . S
H1676 C1702 0.950 . S
H1677 C1704 0.953 . S
H1678 C1707 0.950 . S
H1679 C1708 0.950 . S
H1680 C1710 0.951 . S
H1681 C1711 0.949 . S
C1682 C1683 1.376 . S
C1682 C1687 1.386 . S
C1682 C1688 1.483 . S
C1683 H1664 0.949 . S
C1683 C1682 1.376 . S
C1683 C1684 1.397 . S
C1684 H1665 0.950 . S
C1684 C1683 1.397 . S
C1684 C1685 1.391 . S
C1685 C1684 1.391 . S
C1685 C1686 1.405 . S
C1686 H1666 0.950 . S
C1686 C1685 1.405 . S
C1686 C1687 1.367 . S
C1687 H1667 0.950 . S
C1687 C1682 1.386 . S
C1687 C1686 1.367 . S
C1688 C1682 1.483 . S
C1688 C1689 1.382 . S
C1688 C1690 1.403 . S
C1689 H1668 0.950 . S
C1689 C1688 1.382 . S
C1689 C1705 1.411 1_455 S
C1690 C1688 1.403 . S
C1690 C1691 1.489 . S
C1690 C1704 1.411 . S
C1691 C1690 1.489 . S
C1691 C1692 1.383 . S
C1691 C1696 1.382 . S
C1692 H1669 0.950 . S
C1692 C1691 1.383 . S
C1692 C1693 1.395 . S
C1693 H1670 0.950 . S
C1693 C1692 1.395 . S
C1693 C1694 1.288 . S
C1694 C1693 1.288 . S
C1694 C1695 1.392 . S
C1695 H1671 0.951 . S
C1695 C1694 1.392 . S
C1695 C1696 1.392 . S
C1696 H1672 0.949 . S
C1696 C1691 1.382 . S
C1696 C1695 1.392 . S
C1697 C1698 1.376 . S
C1697 C1702 1.386 . S
C1697 C1703 1.483 . S
C1698 H1673 0.949 . S
C1698 C1697 1.376 . S
C1698 C1699 1.397 . S
C1699 H1674 0.950 . S
C1699 C1698 1.397 . S
C1699 C1700 1.391 . S
C1700 C1699 1.391 . S
C1700 C1701 1.405 . S
C1701 H1675 0.950 . S
C1701 C1700 1.405 . S
C1701 C1702 1.367 . S
C1702 H1676 0.950 . S
C1702 C1697 1.386 . S
C1702 C1701 1.367 . S
C1703 C1697 1.483 . S
C1703 C1704 1.382 1_655 S
C1703 C1705 1.403 . S
C1704 H1677 0.953 . S
C1704 C1690 1.411 . S
C1704 C1703 1.382 1_455 S
C1705 C1689 1.411 1_655 S
C1705 C1703 1.403 . S
C1705 C1706 1.489 . S
C1706 C1705 1.489 . S
C1706 C1707 1.383 . S
C1706 C1711 1.382 . S
C1707 H1678 0.950 . S
C1707 C1706 1.383 . S
C1707 C1708 1.395 . S
C1708 H1679 0.950 . S
C1708 C1707 1.395 . S
C1708 C1709 1.288 . S
C1709 C1708 1.288 . S
C1709 C1710 1.392 . S
C1710 H1680 0.951 . S
C1710 C1709 1.392 . S
C1710 C1711 1.392 . S
C1711 H1681 0.949 . S
C1711 C1706 1.382 . S
C1711 C1710 1.392 . S
H1712 C1731 0.949 . S
H1713 C1732 0.950 . S
H1714 C1734 0.950 . S
H1715 C1735 0.950 . S
H1716 C1737 0.950 . S
H1717 C1740 0.950 . S
H1718 C1741 0.950 . S
H1719 C1743 0.951 . S
H1720 C1744 0.949 . S
H1721 C1746 0.949 . S
H1722 C1747 0.950 . S
H1723 C1749 0.950 . S
H1724 C1750 0.950 . S
H1725 C1752 0.950 . S
H1726 C1755 0.950 . S
H1727 C1756 0.950 . S
H1728 C1758 0.951 . S
H1729 C1759 0.949 . S
C1730 C1731 1.376 . S
C1730 C1735 1.386 . S
C1730 C1736 1.483 . S
C1731 H1712 0.949 . S
C1731 C1730 1.376 . S
C1731 C1732 1.397 . S
C1732 H1713 0.950 . S
C1732 C1731 1.397 . S
C1732 C1733 1.391 . S
C1733 C1732 1.391 . S
C1733 C1734 1.405 . S
C1734 H1714 0.950 . S
C1734 C1733 1.405 . S
C1734 C1735 1.367 . S
C1735 H1715 0.950 . S
C1735 C1730 1.386 . S
C1735 C1734 1.367 . S
C1736 C1730 1.483 . S
C1736 C1737 1.382 . S
C1736 C1738 1.403 . S
C1737 H1716 0.950 . S
C1737 C1736 1.382 . S
C1737 C1753 1.411 1_545 S
C1738 C1736 1.403 . S
C1738 C1739 1.489 . S
C1738 C1752 1.405 1_545 S
C1739 C1738 1.489 . S
C1739 C1740 1.383 . S
C1739 C1744 1.382 . S
C1740 H1717 0.950 . S
C1740 C1739 1.383 . S
C1740 C1741 1.395 . S
C1741 H1718 0.950 . S
C1741 C1740 1.395 . S
C1741 C1742 1.288 . S
C1742 C1741 1.288 . S
C1742 C1743 1.392 . S
C1743 H1719 0.951 . S
C1743 C1742 1.392 . S
C1743 C1744 1.392 . S
C1744 H1720 0.949 . S
C1744 C1739 1.382 . S
C1744 C1743 1.392 . S
C1745 C1746 1.376 . S
C1745 C1750 1.386 . S
C1745 C1751 1.483 . S
C1746 H1721 0.949 . S
C1746 C1745 1.376 . S
C1746 C1747 1.397 . S
C1747 H1722 0.950 . S
C1747 C1746 1.397 . S
C1747 C1748 1.391 . S
C1748 C1747 1.391 . S
C1748 C1749 1.405 . S
C1749 H1723 0.950 . S
C1749 C1748 1.405 . S
C1749 C1750 1.367 . S
C1750 H1724 0.950 . S
C1750 C1745 1.386 . S
C1750 C1749 1.367 . S
C1751 C1745 1.483 . S
C1751 C1752 1.388 . S
C1751 C1753 1.403 . S
C1752 H1725 0.950 . S
C1752 C1738 1.405 1_565 S
C1752 C1751 1.388 . S
C1753 C1737 1.411 1_565 S
C1753 C1751 1.403 . S
C1753 C1754 1.489 . S
C1754 C1753 1.489 . S
C1754 C1755 1.383 . S
C1754 C1759 1.382 . S
C1755 H1726 0.950 . S
C1755 C1754 1.383 . S
C1755 C1756 1.395 . S
C1756 H1727 0.950 . S
C1756 C1755 1.395 . S
C1756 C1757 1.288 . S
C1757 C1756 1.288 . S
C1757 C1758 1.392 . S
C1758 H1728 0.951 . S
C1758 C1757 1.392 . S
C1758 C1759 1.392 . S
C1759 H1729 0.949 . S
C1759 C1754 1.382 . S
C1759 C1758 1.392 . S
H1760 C1779 0.949 . S
H1761 C1780 0.950 . S
H1762 C1782 0.950 . S
H1763 C1783 0.950 . S
H1764 C1785 0.950 . S
H1765 C1788 0.950 . S
H1766 C1789 0.950 . S
H1767 C1791 0.951 . S
H1768 C1792 0.949 . S
H1769 C1794 0.949 . S
H1770 C1795 0.950 . S
H1771 C1797 0.950 . S
H1772 C1798 0.950 . S
H1773 C1800 0.950 . S
H1774 C1803 0.950 . S
H1775 C1804 0.950 . S
H1776 C1806 0.951 . S
H1777 C1807 0.949 . S
C1778 C1779 1.376 . S
C1778 C1783 1.386 . S
C1778 C1784 1.483 . S
C1779 H1760 0.949 . S
C1779 C1778 1.376 . S
C1779 C1780 1.397 . S
C1780 H1761 0.950 . S
C1780 C1779 1.397 . S
C1780 C1781 1.391 . S
C1781 C1780 1.391 . S
C1781 C1782 1.405 . S
C1782 H1762 0.950 . S
C1782 C1781 1.405 . S
C1782 C1783 1.367 . S
C1783 H1763 0.950 . S
C1783 C1778 1.386 . S
C1783 C1782 1.367 . S
C1784 C1778 1.483 . S
C1784 C1785 1.369 1_655 S
C1784 C1786 1.403 . S
C1785 H1764 0.950 . S
C1785 C1784 1.369 1_455 S
C1785 C1801 1.424 . S
C1786 C1784 1.403 . S
C1786 C1787 1.489 . S
C1786 C1800 1.411 1_655 S
C1787 C1786 1.489 . S
C1787 C1788 1.383 . S
C1787 C1792 1.382 . S
C1788 H1765 0.950 . S
C1788 C1787 1.383 . S
C1788 C1789 1.395 . S
C1789 H1766 0.950 . S
C1789 C1788 1.395 . S
C1789 C1790 1.288 . S
C1790 C1789 1.288 . S
C1790 C1791 1.392 . S
C1791 H1767 0.951 . S
C1791 C1790 1.392 . S
C1791 C1792 1.392 . S
C1792 H1768 0.949 . S
C1792 C1787 1.382 . S
C1792 C1791 1.392 . S
C1793 C1794 1.376 . S
C1793 C1798 1.386 . S
C1793 C1799 1.483 . S
C1794 H1769 0.949 . S
C1794 C1793 1.376 . S
C1794 C1795 1.397 . S
C1795 H1770 0.950 . S
C1795 C1794 1.397 . S
C1795 C1796 1.391 . S
C1796 C1795 1.391 . S
C1796 C1797 1.405 . S
C1797 H1771 0.950 . S
C1797 C1796 1.405 . S
C1797 C1798 1.367 . S
C1798 H1772 0.950 . S
C1798 C1793 1.386 . S
C1798 C1797 1.367 . S
C1799 C1793 1.483 . S
C1799 C1800 1.382 . S
C1799 C1801 1.403 . S
C1800 H1773 0.950 . S
C1800 C1786 1.411 1_455 S
C1800 C1799 1.382 . S
C1801 C1785 1.424 . S
C1801 C1799 1.403 . S
C1801 C1802 1.489 . S
C1802 C1801 1.489 . S
C1802 C1803 1.383 . S
C1802 C1807 1.382 . S
C1803 H1774 0.950 . S
C1803 C1802 1.383 . S
C1803 C1804 1.395 . S
C1804 H1775 0.950 . S
C1804 C1803 1.395 . S
C1804 C1805 1.288 . S
C1805 C1804 1.288 . S
C1805 C1806 1.392 . S
C1806 H1776 0.951 . S
C1806 C1805 1.392 . S
C1806 C1807 1.392 . S
C1807 H1777 0.949 . S
C1807 C1802 1.382 . S
C1807 C1806 1.392 . S
H1808 C1827 0.949 . S
H1809 C1828 0.950 . S
H1810 C1830 0.950 . S
H1811 C1831 0.950 . S
H1812 C1833 0.950 . S
H1813 C1836 0.950 . S
H1814 C1837 0.950 . S
H1815 C1839 0.951 . S
H1816 C1840 0.949 . S
H1817 C1842 0.949 . S
H1818 C1843 0.950 . S
H1819 C1845 0.950 . S
H1820 C1846 0.950 . S
H1821 C1848 0.950 . S
H1822 C1851 0.950 . S
H1823 C1852 0.950 . S
H1824 C1854 0.951 . S
H1825 C1855 0.949 . S
C1826 C1827 1.376 . S
C1826 C1831 1.386 . S
C1826 C1832 1.483 . S
C1827 H1808 0.949 . S
C1827 C1826 1.376 . S
C1827 C1828 1.397 . S
C1828 H1809 0.950 . S
C1828 C1827 1.397 . S
C1828 C1829 1.391 . S
C1829 C1828 1.391 . S
C1829 C1830 1.405 . S
C1830 H1810 0.950 . S
C1830 C1829 1.405 . S
C1830 C1831 1.367 . S
C1831 H1811 0.950 . S
C1831 C1826 1.386 . S
C1831 C1830 1.367 . S
C1832 C1826 1.483 . S
C1832 C1833 1.382 . S
C1832 C1834 1.403 . S
C1833 H1812 0.950 . S
C1833 C1832 1.382 . S
C1833 C1849 1.411 1_545 S
C1834 C1832 1.403 . S
C1834 C1835 1.489 . S
C1834 C1848 1.411 . S
C1835 C1834 1.489 . S
C1835 C1836 1.383 . S
C1835 C1840 1.382 . S
C1836 H1813 0.950 . S
C1836 C1835 1.383 . S
C1836 C1837 1.395 . S
C1837 H1814 0.950 . S
C1837 C1836 1.395 . S
C1837 C1838 1.288 . S
C1838 C1837 1.288 . S
C1838 C1839 1.392 . S
C1839 H1815 0.951 . S
C1839 C1838 1.392 . S
C1839 C1840 1.392 . S
C1840 H1816 0.949 . S
C1840 C1835 1.382 . S
C1840 C1839 1.392 . S
C1841 C1842 1.376 . S
C1841 C1846 1.386 . S
C1841 C1847 1.483 . S
C1842 H1817 0.949 . S
C1842 C1841 1.376 . S
C1842 C1843 1.397 . S
C1843 H1818 0.950 . S
C1843 C1842 1.397 . S
C1843 C1844 1.391 . S
C1844 C1843 1.391 . S
C1844 C1845 1.405 . S
C1845 H1819 0.950 . S
C1845 C1844 1.405 . S
C1845 C1846 1.367 . S
C1846 H1820 0.950 . S
C1846 C1841 1.386 . S
C1846 C1845 1.367 . S
C1847 C1841 1.483 . S
C1847 C1848 1.382 1_565 S
C1847 C1849 1.403 . S
C1848 H1821 0.950 . S
C1848 C1834 1.411 . S
C1848 C1847 1.382 1_545 S
C1849 C1833 1.411 1_565 S
C1849 C1847 1.403 . S
C1849 C1850 1.489 . S
C1850 C1849 1.489 . S
C1850 C1851 1.383 . S
C1850 C1855 1.382 . S
C1851 H1822 0.950 . S
C1851 C1850 1.383 . S
C1851 C1852 1.395 . S
C1852 H1823 0.950 . S
C1852 C1851 1.395 . S
C1852 C1853 1.288 . S
C1853 C1852 1.288 . S
C1853 C1854 1.392 . S
C1854 H1824 0.951 . S
C1854 C1853 1.392 . S
C1854 C1855 1.392 . S
C1855 H1825 0.949 . S
C1855 C1850 1.382 . S
C1855 C1854 1.392 . S
H1856 C1875 0.949 . S
H1857 C1876 0.950 . S
H1858 C1878 0.950 . S
H1859 C1879 0.950 . S
H1860 C1881 0.950 . S
H1861 C1884 0.950 . S
H1862 C1885 0.950 . S
H1863 C1887 0.951 . S
H1864 C1888 0.949 . S
H1865 C1890 0.949 . S
H1866 C1891 0.950 . S
H1867 C1893 0.950 . S
H1868 C1894 0.950 . S
H1869 C1896 0.950 . S
H1870 C1899 0.950 . S
H1871 C1900 0.950 . S
H1872 C1902 0.951 . S
H1873 C1903 0.949 . S
C1874 C1875 1.376 . S
C1874 C1879 1.386 . S
C1874 C1880 1.483 . S
C1875 H1856 0.949 . S
C1875 C1874 1.376 . S
C1875 C1876 1.397 . S
C1876 H1857 0.950 . S
C1876 C1875 1.397 . S
C1876 C1877 1.391 . S
C1877 C1876 1.391 . S
C1877 C1878 1.405 . S
C1878 H1858 0.950 . S
C1878 C1877 1.405 . S
C1878 C1879 1.367 . S
C1879 H1859 0.950 . S
C1879 C1874 1.386 . S
C1879 C1878 1.367 . S
C1880 C1874 1.483 . S
C1880 C1881 1.382 . S
C1880 C1882 1.403 . S
C1881 H1860 0.950 . S
C1881 C1880 1.382 . S
C1881 C1897 1.411 . S
C1882 C1880 1.403 . S
C1882 C1883 1.489 . S
C1882 C1896 1.411 . S
C1883 C1882 1.489 . S
C1883 C1884 1.383 . S
C1883 C1888 1.382 . S
C1884 H1861 0.950 . S
C1884 C1883 1.383 . S
C1884 C1885 1.395 . S
C1885 H1862 0.950 . S
C1885 C1884 1.395 . S
C1885 C1886 1.288 . S
C1886 C1885 1.288 . S
C1886 C1887 1.392 . S
C1887 H1863 0.951 . S
C1887 C1886 1.392 . S
C1887 C1888 1.392 . S
C1888 H1864 0.949 . S
C1888 C1883 1.382 . S
C1888 C1887 1.392 . S
C1889 C1890 1.376 . S
C1889 C1894 1.386 . S
C1889 C1895 1.483 . S
C1890 H1865 0.949 . S
C1890 C1889 1.376 . S
C1890 C1891 1.397 . S
C1891 H1866 0.950 . S
C1891 C1890 1.397 . S
C1891 C1892 1.391 . S
C1892 C1891 1.391 . S
C1892 C1893 1.405 . S
C1893 H1867 0.950 . S
C1893 C1892 1.405 . S
C1893 C1894 1.367 . S
C1894 H1868 0.950 . S
C1894 C1889 1.386 . S
C1894 C1893 1.367 . S
C1895 C1889 1.483 . S
C1895 C1896 1.382 . S
C1895 C1897 1.403 . S
C1896 H1869 0.950 . S
C1896 C1882 1.411 . S
C1896 C1895 1.382 . S
C1897 C1881 1.411 . S
C1897 C1895 1.403 . S
C1897 C1898 1.489 . S
C1898 C1897 1.489 . S
C1898 C1899 1.383 . S
C1898 C1903 1.382 . S
C1899 H1870 0.950 . S
C1899 C1898 1.383 . S
C1899 C1900 1.395 . S
C1900 H1871 0.950 . S
C1900 C1899 1.395 . S
C1900 C1901 1.288 . S
C1901 C1900 1.288 . S
C1901 C1902 1.392 . S
C1902 H1872 0.951 . S
C1902 C1901 1.392 . S
C1902 C1903 1.392 . S
C1903 H1873 0.949 . S
C1903 C1898 1.382 . S
C1903 C1902 1.392 . S
H1904 C1923 0.949 . S
H1905 C1924 0.950 . S
H1906 C1926 0.950 . S
H1907 C1927 0.950 . S
H1908 C1929 0.950 . S
H1909 C1932 0.950 . S
H1910 C1933 0.950 . S
H1911 C1935 0.951 . S
H1912 C1936 0.949 . S
H1913 C1938 0.949 . S
H1914 C1939 0.950 . S
H1915 C1941 0.950 . S
H1916 C1942 0.950 . S
H1917 C1944 0.950 . S
H1918 C1947 0.950 . S
H1919 C1948 0.950 . S
H1920 C1950 0.951 . S
H1921 C1951 0.949 . S
C1922 C1923 1.376 . S
C1922 C1927 1.386 . S
C1922 C1928 1.483 . S
C1923 H1904 0.949 . S
C1923 C1922 1.376 . S
C1923 C1924 1.397 . S
C1924 H1905 0.950 . S
C1924 C1923 1.397 . S
C1924 C1925 1.391 . S
C1925 C1924 1.391 . S
C1925 C1926 1.405 . S
C1926 H1906 0.950 . S
C1926 C1925 1.405 . S
C1926 C1927 1.367 . S
C1927 H1907 0.950 . S
C1927 C1922 1.386 . S
C1927 C1926 1.367 . S
C1928 C1922 1.483 . S
C1928 C1929 1.382 . S
C1928 C1930 1.403 . S
C1929 H1908 0.950 . S
C1929 C1928 1.382 . S
C1929 C1945 1.411 . S
C1930 C1928 1.403 . S
C1930 C1931 1.489 . S
C1930 C1944 1.411 . S
C1931 C1930 1.489 . S
C1931 C1932 1.383 . S
C1931 C1936 1.382 . S
C1932 H1909 0.950 . S
C1932 C1931 1.383 . S
C1932 C1933 1.395 . S
C1933 H1910 0.950 . S
C1933 C1932 1.395 . S
C1933 C1934 1.288 . S
C1934 C1933 1.288 . S
C1934 C1935 1.392 . S
C1935 H1911 0.951 . S
C1935 C1934 1.392 . S
C1935 C1936 1.392 . S
C1936 H1912 0.949 . S
C1936 C1931 1.382 . S
C1936 C1935 1.392 . S
C1937 C1938 1.376 . S
C1937 C1942 1.386 . S
C1937 C1943 1.483 . S
C1938 H1913 0.949 . S
C1938 C1937 1.376 . S
C1938 C1939 1.397 . S
C1939 H1914 0.950 . S
C1939 C1938 1.397 . S
C1939 C1940 1.391 . S
C1940 C1939 1.391 . S
C1940 C1941 1.405 . S
C1941 H1915 0.950 . S
C1941 C1940 1.405 . S
C1941 C1942 1.367 . S
C1942 H1916 0.950 . S
C1942 C1937 1.386 . S
C1942 C1941 1.367 . S
C1943 C1937 1.483 . S
C1943 C1944 1.382 . S
C1943 C1945 1.403 . S
C1944 H1917 0.950 . S
C1944 C1930 1.411 . S
C1944 C1943 1.382 . S
C1945 C1929 1.411 . S
C1945 C1943 1.403 . S
C1945 C1946 1.489 . S
C1946 C1945 1.489 . S
C1946 C1947 1.383 . S
C1946 C1951 1.382 . S
C1947 H1918 0.950 . S
C1947 C1946 1.383 . S
C1947 C1948 1.395 . S
C1948 H1919 0.950 . S
C1948 C1947 1.395 . S
C1948 C1949 1.288 . S
C1949 C1948 1.288 . S
C1949 C1950 1.392 . S
C1950 H1920 0.951 . S
C1950 C1949 1.392 . S
C1950 C1951 1.392 . S
C1951 H1921 0.949 . S
C1951 C1946 1.382 . S
C1951 C1950 1.392 . S
H1952 C1971 0.949 . S
H1953 C1972 0.950 . S
H1954 C1974 0.950 . S
H1955 C1975 0.950 . S
H1956 C1977 0.950 . S
H1957 C1980 0.950 . S
H1958 C1981 0.950 . S
H1959 C1983 0.951 . S
H1960 C1984 0.949 . S
H1961 C1986 0.949 . S
H1962 C1987 0.950 . S
H1963 C1989 0.950 . S
H1964 C1990 0.950 . S
H1965 C1992 0.950 . S
H1966 C1995 0.950 . S
H1967 C1996 0.950 . S
H1968 C1998 0.951 . S
H1969 C1999 0.949 . S
C1970 C1971 1.376 . S
C1970 C1975 1.386 . S
C1970 C1976 1.483 . S
C1971 H1952 0.949 . S
C1971 C1970 1.376 . S
C1971 C1972 1.397 . S
C1972 H1953 0.950 . S
C1972 C1971 1.397 . S
C1972 C1973 1.391 . S
C1973 C1972 1.391 . S
C1973 C1974 1.405 . S
C1974 H1954 0.950 . S
C1974 C1973 1.405 . S
C1974 C1975 1.367 . S
C1975 H1955 0.950 . S
C1975 C1970 1.386 . S
C1975 C1974 1.367 . S
C1976 C1970 1.483 . S
C1976 C1977 1.382 . S
C1976 C1978 1.403 . S
C1977 H1956 0.950 . S
C1977 C1976 1.382 . S
C1977 C1993 1.411 . S
C1978 C1976 1.403 . S
C1978 C1979 1.489 . S
C1978 C1992 1.411 . S
C1979 C1978 1.489 . S
C1979 C1980 1.383 . S
C1979 C1984 1.382 . S
C1980 H1957 0.950 . S
C1980 C1979 1.383 . S
C1980 C1981 1.395 . S
C1981 H1958 0.950 . S
C1981 C1980 1.395 . S
C1981 C1982 1.288 . S
C1982 C1981 1.288 . S
C1982 C1983 1.392 . S
C1983 H1959 0.951 . S
C1983 C1982 1.392 . S
C1983 C1984 1.392 . S
C1984 H1960 0.949 . S
C1984 C1979 1.382 . S
C1984 C1983 1.392 . S
C1985 C1986 1.376 . S
C1985 C1990 1.386 . S
C1985 C1991 1.483 . S
C1986 H1961 0.949 . S
C1986 C1985 1.376 . S
C1986 C1987 1.397 . S
C1987 H1962 0.950 . S
C1987 C1986 1.397 . S
C1987 C1988 1.391 . S
C1988 C1987 1.391 . S
C1988 C1989 1.405 . S
C1989 H1963 0.950 . S
C1989 C1988 1.405 . S
C1989 C1990 1.367 . S
C1990 H1964 0.950 . S
C1990 C1985 1.386 . S
C1990 C1989 1.367 . S
C1991 C1985 1.483 . S
C1991 C1992 1.382 . S
C1991 C1993 1.403 . S
C1992 H1965 0.950 . S
C1992 C1978 1.411 . S
C1992 C1991 1.382 . S
C1993 C1977 1.411 . S
C1993 C1991 1.403 . S
C1993 C1994 1.489 . S
C1994 C1993 1.489 . S
C1994 C1995 1.383 . S
C1994 C1999 1.382 . S
C1995 H1966 0.950 . S
C1995 C1994 1.383 . S
C1995 C1996 1.395 . S
C1996 H1967 0.950 . S
C1996 C1995 1.395 . S
C1996 C1997 1.288 . S
C1997 C1996 1.288 . S
C1997 C1998 1.392 . S
C1998 H1968 0.951 . S
C1998 C1997 1.392 . S
C1998 C1999 1.392 . S
C1999 H1969 0.949 . S
C1999 C1994 1.382 . S
C1999 C1998 1.392 . S
H2000 C2019 0.949 . S
H2001 C2020 0.950 . S
H2002 C2022 0.950 . S
H2003 C2023 0.950 . S
H2004 C2025 0.950 . S
H2005 C2028 0.950 . S
H2006 C2029 0.950 . S
H2007 C2031 0.951 . S
H2008 C2032 0.949 . S
H2009 C2034 0.949 . S
H2010 C2035 0.950 . S
H2011 C2037 0.950 . S
H2012 C2038 0.950 . S
H2013 C2040 0.950 . S
H2014 C2043 0.950 . S
H2015 C2044 0.950 . S
H2016 C2046 0.951 . S
H2017 C2047 0.949 . S
C2018 C2019 1.376 . S
C2018 C2023 1.386 . S
C2018 C2024 1.483 . S
C2019 H2000 0.949 . S
C2019 C2018 1.376 . S
C2019 C2020 1.397 . S
C2020 H2001 0.950 . S
C2020 C2019 1.397 . S
C2020 C2021 1.391 . S
C2021 C2020 1.391 . S
C2021 C2022 1.405 . S
C2022 H2002 0.950 . S
C2022 C2021 1.405 . S
C2022 C2023 1.367 . S
C2023 H2003 0.950 . S
C2023 C2018 1.386 . S
C2023 C2022 1.367 . S
C2024 C2018 1.483 . S
C2024 C2025 1.382 . S
C2024 C2026 1.403 . S
C2025 H2004 0.950 . S
C2025 C2024 1.382 . S
C2025 C2041 1.411 . S
C2026 C2024 1.403 . S
C2026 C2027 1.489 . S
C2026 C2040 1.411 . S
C2027 C2026 1.489 . S
C2027 C2028 1.383 . S
C2027 C2032 1.382 . S
C2028 H2005 0.950 . S
C2028 C2027 1.383 . S
C2028 C2029 1.395 . S
C2029 H2006 0.950 . S
C2029 C2028 1.395 . S
C2029 C2030 1.288 . S
C2030 C2029 1.288 . S
C2030 C2031 1.392 . S
C2031 H2007 0.951 . S
C2031 C2030 1.392 . S
C2031 C2032 1.392 . S
C2032 H2008 0.949 . S
C2032 C2027 1.382 . S
C2032 C2031 1.392 . S
C2033 C2034 1.376 . S
C2033 C2038 1.386 . S
C2033 C2039 1.483 . S
C2034 H2009 0.949 . S
C2034 C2033 1.376 . S
C2034 C2035 1.397 . S
C2035 H2010 0.950 . S
C2035 C2034 1.397 . S
C2035 C2036 1.391 . S
C2036 C2035 1.391 . S
C2036 C2037 1.405 . S
C2037 H2011 0.950 . S
C2037 C2036 1.405 . S
C2037 C2038 1.367 . S
C2038 H2012 0.950 . S
C2038 C2033 1.386 . S
C2038 C2037 1.367 . S
C2039 C2033 1.483 . S
C2039 C2040 1.382 . S
C2039 C2041 1.403 . S
C2040 H2013 0.950 . S
C2040 C2026 1.411 . S
C2040 C2039 1.382 . S
C2041 C2025 1.411 . S
C2041 C2039 1.403 . S
C2041 C2042 1.489 . S
C2042 C2041 1.489 . S
C2042 C2043 1.383 . S
C2042 C2047 1.382 . S
C2043 H2014 0.950 . S
C2043 C2042 1.383 . S
C2043 C2044 1.395 . S
C2044 H2015 0.950 . S
C2044 C2043 1.395 . S
C2044 C2045 1.288 . S
C2045 C2044 1.288 . S
C2045 C2046 1.392 . S
C2046 H2016 0.951 . S
C2046 C2045 1.392 . S
C2046 C2047 1.392 . S
C2047 H2017 0.949 . S
C2047 C2042 1.382 . S
C2047 C2046 1.392 . S
H2048 C2067 0.949 . S
H2049 C2068 0.950 . S
H2050 C2070 0.950 . S
H2051 C2071 0.950 . S
H2052 C2073 0.950 . S
H2053 C2076 0.950 . S
H2054 C2077 0.950 . S
H2055 C2079 0.951 . S
H2056 C2080 0.949 . S
H2057 C2082 0.949 . S
H2058 C2083 0.950 . S
H2059 C2085 0.950 . S
H2060 C2086 0.950 . S
H2061 C2088 0.950 . S
H2062 C2091 0.950 . S
H2063 C2092 0.950 . S
H2064 C2094 0.951 . S
H2065 C2095 0.949 . S
C2066 C2067 1.376 . S
C2066 C2071 1.386 . S
C2066 C2072 1.483 . S
C2067 H2048 0.949 . S
C2067 C2066 1.376 . S
C2067 C2068 1.397 . S
C2068 H2049 0.950 . S
C2068 C2067 1.397 . S
C2068 C2069 1.391 . S
C2069 C2068 1.391 . S
C2069 C2070 1.405 . S
C2070 H2050 0.950 . S
C2070 C2069 1.405 . S
C2070 C2071 1.367 . S
C2071 H2051 0.950 . S
C2071 C2066 1.386 . S
C2071 C2070 1.367 . S
C2072 C2066 1.483 . S
C2072 C2073 1.382 . S
C2072 C2074 1.403 . S
C2073 H2052 0.950 . S
C2073 C2072 1.382 . S
C2073 C2089 1.411 . S
C2074 C2072 1.403 . S
C2074 C2075 1.489 . S
C2074 C2088 1.411 . S
C2075 C2074 1.489 . S
C2075 C2076 1.383 . S
C2075 C2080 1.382 . S
C2076 H2053 0.950 . S
C2076 C2075 1.383 . S
C2076 C2077 1.395 . S
C2077 H2054 0.950 . S
C2077 C2076 1.395 . S
C2077 C2078 1.288 . S
C2078 C2077 1.288 . S
C2078 C2079 1.392 . S
C2079 H2055 0.951 . S
C2079 C2078 1.392 . S
C2079 C2080 1.392 . S
C2080 H2056 0.949 . S
C2080 C2075 1.382 . S
C2080 C2079 1.392 . S
C2081 C2082 1.376 . S
C2081 C2086 1.386 . S
C2081 C2087 1.483 . S
C2082 H2057 0.949 . S
C2082 C2081 1.376 . S
C2082 C2083 1.397 . S
C2083 H2058 0.950 . S
C2083 C2082 1.397 . S
C2083 C2084 1.391 . S
C2084 C2083 1.391 . S
C2084 C2085 1.405 . S
C2085 H2059 0.950 . S
C2085 C2084 1.405 . S
C2085 C2086 1.367 . S
C2086 H2060 0.950 . S
C2086 C2081 1.386 . S
C2086 C2085 1.367 . S
C2087 C2081 1.483 . S
C2087 C2088 1.382 . S
C2087 C2089 1.403 . S
C2088 H2061 0.950 . S
C2088 C2074 1.411 . S
C2088 C2087 1.382 . S
C2089 C2073 1.411 . S
C2089 C2087 1.403 . S
C2089 C2090 1.489 . S
C2090 C2089 1.489 . S
C2090 C2091 1.383 . S
C2090 C2095 1.382 . S
C2091 H2062 0.950 . S
C2091 C2090 1.383 . S
C2091 C2092 1.395 . S
C2092 H2063 0.950 . S
C2092 C2091 1.395 . S
C2092 C2093 1.288 . S
C2093 C2092 1.288 . S
C2093 C2094 1.392 . S
C2094 H2064 0.951 . S
C2094 C2093 1.392 . S
C2094 C2095 1.392 . S
C2095 H2065 0.949 . S
C2095 C2090 1.382 . S
C2095 C2094 1.392 . S
H2096 C2115 0.949 . S
H2097 C2116 0.950 . S
H2098 C2118 0.950 . S
H2099 C2119 0.950 . S
H2100 C2121 0.950 . S
H2101 C2124 0.950 . S
H2102 C2125 0.950 . S
H2103 C2127 0.951 . S
H2104 C2128 0.949 . S
H2105 C2130 0.949 . S
H2106 C2131 0.950 . S
H2107 C2133 0.950 . S
H2108 C2134 0.950 . S
H2109 C2136 0.950 . S
H2110 C2139 0.950 . S
H2111 C2140 0.950 . S
H2112 C2142 0.951 . S
H2113 C2143 0.949 . S
C2114 C2115 1.376 . S
C2114 C2119 1.386 . S
C2114 C2120 1.483 . S
C2115 H2096 0.949 . S
C2115 C2114 1.376 . S
C2115 C2116 1.397 . S
C2116 H2097 0.950 . S
C2116 C2115 1.397 . S
C2116 C2117 1.391 . S
C2117 C2116 1.391 . S
C2117 C2118 1.405 . S
C2118 H2098 0.950 . S
C2118 C2117 1.405 . S
C2118 C2119 1.367 . S
C2119 H2099 0.950 . S
C2119 C2114 1.386 . S
C2119 C2118 1.367 . S
C2120 C2114 1.483 . S
C2120 C2121 1.382 . S
C2120 C2122 1.403 . S
C2121 H2100 0.950 . S
C2121 C2120 1.382 . S
C2121 C2137 1.411 . S
C2122 C2120 1.403 . S
C2122 C2123 1.489 . S
C2122 C2136 1.411 . S
C2123 C2122 1.489 . S
C2123 C2124 1.383 . S
C2123 C2128 1.382 . S
C2124 H2101 0.950 . S
C2124 C2123 1.383 . S
C2124 C2125 1.395 . S
C2125 H2102 0.950 . S
C2125 C2124 1.395 . S
C2125 C2126 1.288 . S
C2126 C2125 1.288 . S
C2126 C2127 1.392 . S
C2127 H2103 0.951 . S
C2127 C2126 1.392 . S
C2127 C2128 1.392 . S
C2128 H2104 0.949 . S
C2128 C2123 1.382 . S
C2128 C2127 1.392 . S
C2129 C2130 1.376 . S
C2129 C2134 1.386 . S
C2129 C2135 1.483 . S
C2130 H2105 0.949 . S
C2130 C2129 1.376 . S
C2130 C2131 1.397 . S
C2131 H2106 0.950 . S
C2131 C2130 1.397 . S
C2131 C2132 1.391 . S
C2132 C2131 1.391 . S
C2132 C2133 1.405 . S
C2133 H2107 0.950 . S
C2133 C2132 1.405 . S
C2133 C2134 1.367 . S
C2134 H2108 0.950 . S
C2134 C2129 1.386 . S
C2134 C2133 1.367 . S
C2135 C2129 1.483 . S
C2135 C2136 1.382 . S
C2135 C2137 1.403 . S
C2136 H2109 0.950 . S
C2136 C2122 1.411 . S
C2136 C2135 1.382 . S
C2137 C2121 1.411 . S
C2137 C2135 1.403 . S
C2137 C2138 1.489 . S
C2138 C2137 1.489 . S
C2138 C2139 1.383 . S
C2138 C2143 1.382 . S
C2139 H2110 0.950 . S
C2139 C2138 1.383 . S
C2139 C2140 1.395 . S
C2140 H2111 0.950 . S
C2140 C2139 1.395 . S
C2140 C2141 1.288 . S
C2141 C2140 1.288 . S
C2141 C2142 1.392 . S
C2142 H2112 0.951 . S
C2142 C2141 1.392 . S
C2142 C2143 1.392 . S
C2143 H2113 0.949 . S
C2143 C2138 1.382 . S
C2143 C2142 1.392 . S
H2144 C2163 0.949 . S
H2145 C2164 0.950 . S
H2146 C2166 0.950 . S
H2147 C2167 0.950 . S
H2148 C2169 0.950 . S
H2149 C2172 0.950 . S
H2150 C2173 0.950 . S
H2151 C2175 0.951 . S
H2152 C2176 0.949 . S
H2153 C2178 0.949 . S
H2154 C2179 0.950 . S
H2155 C2181 0.950 . S
H2156 C2182 0.950 . S
H2157 C2184 0.950 . S
H2158 C2187 0.950 . S
H2159 C2188 0.950 . S
H2160 C2190 0.951 . S
H2161 C2191 0.949 . S
C2162 C2163 1.376 . S
C2162 C2167 1.386 . S
C2162 C2168 1.483 . S
C2163 H2144 0.949 . S
C2163 C2162 1.376 . S
C2163 C2164 1.397 . S
C2164 H2145 0.950 . S
C2164 C2163 1.397 . S
C2164 C2165 1.391 . S
C2165 C2164 1.391 . S
C2165 C2166 1.405 . S
C2166 H2146 0.950 . S
C2166 C2165 1.405 . S
C2166 C2167 1.367 . S
C2167 H2147 0.950 . S
C2167 C2162 1.386 . S
C2167 C2166 1.367 . S
C2168 C2162 1.483 . S
C2168 C2169 1.382 . S
C2168 C2170 1.403 . S
C2169 H2148 0.950 . S
C2169 C2168 1.382 . S
C2169 C2185 1.411 . S
C2170 C2168 1.403 . S
C2170 C2171 1.489 . S
C2170 C2184 1.411 . S
C2171 C2170 1.489 . S
C2171 C2172 1.383 . S
C2171 C2176 1.382 . S
C2172 H2149 0.950 . S
C2172 C2171 1.383 . S
C2172 C2173 1.395 . S
C2173 H2150 0.950 . S
C2173 C2172 1.395 . S
C2173 C2174 1.288 . S
C2174 C2173 1.288 . S
C2174 C2175 1.392 . S
C2175 H2151 0.951 . S
C2175 C2174 1.392 . S
C2175 C2176 1.392 . S
C2176 H2152 0.949 . S
C2176 C2171 1.382 . S
C2176 C2175 1.392 . S
C2177 C2178 1.376 . S
C2177 C2182 1.386 . S
C2177 C2183 1.483 . S
C2178 H2153 0.949 . S
C2178 C2177 1.376 . S
C2178 C2179 1.397 . S
C2179 H2154 0.950 . S
C2179 C2178 1.397 . S
C2179 C2180 1.391 . S
C2180 C2179 1.391 . S
C2180 C2181 1.405 . S
C2181 H2155 0.950 . S
C2181 C2180 1.405 . S
C2181 C2182 1.367 . S
C2182 H2156 0.950 . S
C2182 C2177 1.386 . S
C2182 C2181 1.367 . S
C2183 C2177 1.483 . S
C2183 C2184 1.382 . S
C2183 C2185 1.403 . S
C2184 H2157 0.950 . S
C2184 C2170 1.411 . S
C2184 C2183 1.382 . S
C2185 C2169 1.411 . S
C2185 C2183 1.403 . S
C2185 C2186 1.489 . S
C2186 C2185 1.489 . S
C2186 C2187 1.383 . S
C2186 C2191 1.382 . S
C2187 H2158 0.950 . S
C2187 C2186 1.383 . S
C2187 C2188 1.395 . S
C2188 H2159 0.950 . S
C2188 C2187 1.395 . S
C2188 C2189 1.288 . S
C2189 C2188 1.288 . S
C2189 C2190 1.392 . S
C2190 H2160 0.951 . S
C2190 C2189 1.392 . S
C2190 C2191 1.392 . S
C2191 H2161 0.949 . S
C2191 C2186 1.382 . S
C2191 C2190 1.392 . S
H2192 C2211 0.949 . S
H2193 C2212 0.950 . S
H2194 C2214 0.950 . S
H2195 C2215 0.950 . S
H2196 C2217 0.950 . S
H2197 C2220 0.950 . S
H2198 C2221 0.950 . S
H2199 C2223 0.951 . S
H2200 C2224 0.949 . S
H2201 C2226 0.949 . S
H2202 C2227 0.950 . S
H2203 C2229 0.950 . S
H2204 C2230 0.950 . S
H2205 C2232 0.950 . S
H2206 C2235 0.950 . S
H2207 C2236 0.950 . S
H2208 C2238 0.951 . S
H2209 C2239 0.949 . S
C2210 C2211 1.376 . S
C2210 C2215 1.386 . S
C2210 C2216 1.483 . S
C2211 H2192 0.949 . S
C2211 C2210 1.376 . S
C2211 C2212 1.397 . S
C2212 H2193 0.950 . S
C2212 C2211 1.397 . S
C2212 C2213 1.391 . S
C2213 C2212 1.391 . S
C2213 C2214 1.405 . S
C2214 H2194 0.950 . S
C2214 C2213 1.405 . S
C2214 C2215 1.367 . S
C2215 H2195 0.950 . S
C2215 C2210 1.386 . S
C2215 C2214 1.367 . S
C2216 C2210 1.483 . S
C2216 C2217 1.382 . S
C2216 C2218 1.403 . S
C2217 H2196 0.950 . S
C2217 C2216 1.382 . S
C2217 C2233 1.411 . S
C2218 C2216 1.403 . S
C2218 C2219 1.489 . S
C2218 C2232 1.411 . S
C2219 C2218 1.489 . S
C2219 C2220 1.383 . S
C2219 C2224 1.382 . S
C2220 H2197 0.950 . S
C2220 C2219 1.383 . S
C2220 C2221 1.395 . S
C2221 H2198 0.950 . S
C2221 C2220 1.395 . S
C2221 C2222 1.288 . S
C2222 C2221 1.288 . S
C2222 C2223 1.392 . S
C2223 H2199 0.951 . S
C2223 C2222 1.392 . S
C2223 C2224 1.392 . S
C2224 H2200 0.949 . S
C2224 C2219 1.382 . S
C2224 C2223 1.392 . S
C2225 C2226 1.376 . S
C2225 C2230 1.386 . S
C2225 C2231 1.483 . S
C2226 H2201 0.949 . S
C2226 C2225 1.376 . S
C2226 C2227 1.397 . S
C2227 H2202 0.950 . S
C2227 C2226 1.397 . S
C2227 C2228 1.391 . S
C2228 C2227 1.391 . S
C2228 C2229 1.405 . S
C2229 H2203 0.950 . S
C2229 C2228 1.405 . S
C2229 C2230 1.367 . S
C2230 H2204 0.950 . S
C2230 C2225 1.386 . S
C2230 C2229 1.367 . S
C2231 C2225 1.483 . S
C2231 C2232 1.382 . S
C2231 C2233 1.403 . S
C2232 H2205 0.950 . S
C2232 C2218 1.411 . S
C2232 C2231 1.382 . S
C2233 C2217 1.411 . S
C2233 C2231 1.403 . S
C2233 C2234 1.489 . S
C2234 C2233 1.489 . S
C2234 C2235 1.383 . S
C2234 C2239 1.382 . S
C2235 H2206 0.950 . S
C2235 C2234 1.383 . S
C2235 C2236 1.395 . S
C2236 H2207 0.950 . S
C2236 C2235 1.395 . S
C2236 C2237 1.288 . S
C2237 C2236 1.288 . S
C2237 C2238 1.392 . S
C2238 H2208 0.951 . S
C2238 C2237 1.392 . S
C2238 C2239 1.392 . S
C2239 H2209 0.949 . S
C2239 C2234 1.382 . S
C2239 C2238 1.392 . S
H2240 C2259 0.949 . S
H2241 C2260 0.950 . S
H2242 C2262 0.950 . S
H2243 C2263 0.950 . S
H2244 C2265 0.950 . S
H2245 C2268 0.950 . S
H2246 C2269 0.950 . S
H2247 C2271 0.951 . S
H2248 C2272 0.949 . S
H2249 C2274 0.949 . S
H2250 C2275 0.950 . S
H2251 C2277 0.950 . S
H2252 C2278 0.950 . S
H2253 C2280 0.950 . S
H2254 C2283 0.950 . S
H2255 C2284 0.950 . S
H2256 C2286 0.951 . S
H2257 C2287 0.949 . S
C2258 C2259 1.376 . S
C2258 C2263 1.386 . S
C2258 C2264 1.483 . S
C2259 H2240 0.949 . S
C2259 C2258 1.376 . S
C2259 C2260 1.397 . S
C2260 H2241 0.950 . S
C2260 C2259 1.397 . S
C2260 C2261 1.391 . S
C2261 C2260 1.391 . S
C2261 C2262 1.405 . S
C2262 H2242 0.950 . S
C2262 C2261 1.405 . S
C2262 C2263 1.367 . S
C2263 H2243 0.950 . S
C2263 C2258 1.386 . S
C2263 C2262 1.367 . S
C2264 C2258 1.483 . S
C2264 C2265 1.382 . S
C2264 C2266 1.403 . S
C2265 H2244 0.950 . S
C2265 C2264 1.382 . S
C2265 C2281 1.411 . S
C2266 C2264 1.403 . S
C2266 C2267 1.489 . S
C2266 C2280 1.411 . S
C2267 C2266 1.489 . S
C2267 C2268 1.383 . S
C2267 C2272 1.382 . S
C2268 H2245 0.950 . S
C2268 C2267 1.383 . S
C2268 C2269 1.395 . S
C2269 H2246 0.950 . S
C2269 C2268 1.395 . S
C2269 C2270 1.288 . S
C2270 C2269 1.288 . S
C2270 C2271 1.392 . S
C2271 H2247 0.951 . S
C2271 C2270 1.392 . S
C2271 C2272 1.392 . S
C2272 H2248 0.949 . S
C2272 C2267 1.382 . S
C2272 C2271 1.392 . S
C2273 C2274 1.376 . S
C2273 C2278 1.386 . S
C2273 C2279 1.483 . S
C2274 H2249 0.949 . S
C2274 C2273 1.376 . S
C2274 C2275 1.397 . S
C2275 H2250 0.950 . S
C2275 C2274 1.397 . S
C2275 C2276 1.391 . S
C2276 C2275 1.391 . S
C2276 C2277 1.405 . S
C2277 H2251 0.950 . S
C2277 C2276 1.405 . S
C2277 C2278 1.367 . S
C2278 H2252 0.950 . S
C2278 C2273 1.386 . S
C2278 C2277 1.367 . S
C2279 C2273 1.483 . S
C2279 C2280 1.382 . S
C2279 C2281 1.403 . S
C2280 H2253 0.950 . S
C2280 C2266 1.411 . S
C2280 C2279 1.382 . S
C2281 C2265 1.411 . S
C2281 C2279 1.403 . S
C2281 C2282 1.489 . S
C2282 C2281 1.489 . S
C2282 C2283 1.383 . S
C2282 C2287 1.382 . S
C2283 H2254 0.950 . S
C2283 C2282 1.383 . S
C2283 C2284 1.395 . S
C2284 H2255 0.950 . S
C2284 C2283 1.395 . S
C2284 C2285 1.288 . S
C2285 C2284 1.288 . S
C2285 C2286 1.392 . S
C2286 H2256 0.951 . S
C2286 C2285 1.392 . S
C2286 C2287 1.392 . S
C2287 H2257 0.949 . S
C2287 C2282 1.382 . S
C2287 C2286 1.392 . S
H2288 C2307 0.949 . S
H2289 C2308 0.950 . S
H2290 C2310 0.950 . S
H2291 C2311 0.950 . S
H2292 C2313 0.950 . S
H2293 C2316 0.950 . S
H2294 C2317 0.950 . S
H2295 C2319 0.951 . S
H2296 C2320 0.949 . S
H2297 C2322 0.949 . S
H2298 C2323 0.950 . S
H2299 C2325 0.950 . S
H2300 C2326 0.950 . S
H2301 C2328 0.950 . S
H2302 C2331 0.950 . S
H2303 C2332 0.950 . S
H2304 C2334 0.951 . S
H2305 C2335 0.949 . S
C2306 C2307 1.376 . S
C2306 C2311 1.386 . S
C2306 C2312 1.483 . S
C2307 H2288 0.949 . S
C2307 C2306 1.376 . S
C2307 C2308 1.397 . S
C2308 H2289 0.950 . S
C2308 C2307 1.397 . S
C2308 C2309 1.391 . S
C2309 C2308 1.391 . S
C2309 C2310 1.405 . S
C2310 H2290 0.950 . S
C2310 C2309 1.405 . S
C2310 C2311 1.367 . S
C2311 H2291 0.950 . S
C2311 C2306 1.386 . S
C2311 C2310 1.367 . S
C2312 C2306 1.483 . S
C2312 C2313 1.382 . S
C2312 C2314 1.403 . S
C2313 H2292 0.950 . S
C2313 C2312 1.382 . S
C2313 C2329 1.411 . S
C2314 C2312 1.403 . S
C2314 C2315 1.489 . S
C2314 C2328 1.411 . S
C2315 C2314 1.489 . S
C2315 C2316 1.383 . S
C2315 C2320 1.382 . S
C2316 H2293 0.950 . S
C2316 C2315 1.383 . S
C2316 C2317 1.395 . S
C2317 H2294 0.950 . S
C2317 C2316 1.395 . S
C2317 C2318 1.288 . S
C2318 C2317 1.288 . S
C2318 C2319 1.392 . S
C2319 H2295 0.951 . S
C2319 C2318 1.392 . S
C2319 C2320 1.392 . S
C2320 H2296 0.949 . S
C2320 C2315 1.382 . S
C2320 C2319 1.392 . S
C2321 C2322 1.376 . S
C2321 C2326 1.386 . S
C2321 C2327 1.483 . S
C2322 H2297 0.949 . S
C2322 C2321 1.376 . S
C2322 C2323 1.397 . S
C2323 H2298 0.950 . S
C2323 C2322 1.397 . S
C2323 C2324 1.391 . S
C2324 C2323 1.391 . S
C2324 C2325 1.405 . S
C2325 H2299 0.950 . S
C2325 C2324 1.405 . S
C2325 C2326 1.367 . S
C2326 H2300 0.950 . S
C2326 C2321 1.386 . S
C2326 C2325 1.367 . S
C2327 C2321 1.483 . S
C2327 C2328 1.382 . S
C2327 C2329 1.403 . S
C2328 H2301 0.950 . S
C2328 C2314 1.411 . S
C2328 C2327 1.382 . S
C2329 C2313 1.411 . S
C2329 C2327 1.403 . S
C2329 C2330 1.489 . S
C2330 C2329 1.489 . S
C2330 C2331 1.383 . S
C2330 C2335 1.382 . S
C2331 H2302 0.950 . S
C2331 C2330 1.383 . S
C2331 C2332 1.395 . S
C2332 H2303 0.950 . S
C2332 C2331 1.395 . S
C2332 C2333 1.288 . S
C2333 C2332 1.288 . S
C2333 C2334 1.392 . S
C2334 H2304 0.951 . S
C2334 C2333 1.392 . S
C2334 C2335 1.392 . S
C2335 H2305 0.949 . S
C2335 C2330 1.382 . S
C2335 C2334 1.392 . S
H2336 C2355 0.949 . S
H2337 C2356 0.950 . S
H2338 C2358 0.950 . S
H2339 C2359 0.950 . S
H2340 C2361 0.950 . S
H2341 C2364 0.950 . S
H2342 C2365 0.950 . S
H2343 C2367 0.951 . S
H2344 C2368 0.949 . S
H2345 C2370 0.949 . S
H2346 C2371 0.950 . S
H2347 C2373 0.950 . S
H2348 C2374 0.950 . S
H2349 C2376 0.950 . S
H2350 C2379 0.950 . S
H2351 C2380 0.950 . S
H2352 C2382 0.951 . S
H2353 C2383 0.949 . S
C2354 C2355 1.376 . S
C2354 C2359 1.386 . S
C2354 C2360 1.483 . S
C2355 H2336 0.949 . S
C2355 C2354 1.376 . S
C2355 C2356 1.397 . S
C2356 H2337 0.950 . S
C2356 C2355 1.397 . S
C2356 C2357 1.391 . S
C2357 C2356 1.391 . S
C2357 C2358 1.405 . S
C2358 H2338 0.950 . S
C2358 C2357 1.405 . S
C2358 C2359 1.367 . S
C2359 H2339 0.950 . S
C2359 C2354 1.386 . S
C2359 C2358 1.367 . S
C2360 C2354 1.483 . S
C2360 C2361 1.382 . S
C2360 C2362 1.403 . S
C2361 H2340 0.950 . S
C2361 C2360 1.382 . S
C2361 C2377 1.411 . S
C2362 C2360 1.403 . S
C2362 C2363 1.489 . S
C2362 C2376 1.411 . S
C2363 C2362 1.489 . S
C2363 C2364 1.383 . S
C2363 C2368 1.382 . S
C2364 H2341 0.950 . S
C2364 C2363 1.383 . S
C2364 C2365 1.395 . S
C2365 H2342 0.950 . S
C2365 C2364 1.395 . S
C2365 C2366 1.288 . S
C2366 C2365 1.288 . S
C2366 C2367 1.392 . S
C2367 H2343 0.951 . S
C2367 C2366 1.392 . S
C2367 C2368 1.392 . S
C2368 H2344 0.949 . S
C2368 C2363 1.382 . S
C2368 C2367 1.392 . S
C2369 C2370 1.376 . S
C2369 C2374 1.386 . S
C2369 C2375 1.483 . S
C2370 H2345 0.949 . S
C2370 C2369 1.376 . S
C2370 C2371 1.397 . S
C2371 H2346 0.950 . S
C2371 C2370 1.397 . S
C2371 C2372 1.391 . S
C2372 C2371 1.391 . S
C2372 C2373 1.405 . S
C2373 H2347 0.950 . S
C2373 C2372 1.405 . S
C2373 C2374 1.367 . S
C2374 H2348 0.950 . S
C2374 C2369 1.386 . S
C2374 C2373 1.367 . S
C2375 C2369 1.483 . S
C2375 C2376 1.382 . S
C2375 C2377 1.403 . S
C2376 H2349 0.950 . S
C2376 C2362 1.411 . S
C2376 C2375 1.382 . S
C2377 C2361 1.411 . S
C2377 C2375 1.403 . S
C2377 C2378 1.489 . S
C2378 C2377 1.489 . S
C2378 C2379 1.383 . S
C2378 C2383 1.382 . S
C2379 H2350 0.950 . S
C2379 C2378 1.383 . S
C2379 C2380 1.395 . S
C2380 H2351 0.950 . S
C2380 C2379 1.395 . S
C2380 C2381 1.288 . S
C2381 C2380 1.288 . S
C2381 C2382 1.392 . S
C2382 H2352 0.951 . S
C2382 C2381 1.392 . S
C2382 C2383 1.392 . S
C2383 H2353 0.949 . S
C2383 C2378 1.382 . S
C2383 C2382 1.392 . S
H2384 C2403 0.949 . S
H2385 C2404 0.950 . S
H2386 C2406 0.950 . S
H2387 C2407 0.950 . S
H2388 C2409 0.950 . S
H2389 C2412 0.950 . S
H2390 C2413 0.950 . S
H2391 C2415 0.951 . S
H2392 C2416 0.949 . S
H2393 C2418 0.949 . S
H2394 C2419 0.950 . S
H2395 C2421 0.950 . S
H2396 C2422 0.950 . S
H2397 C2424 0.950 . S
H2398 C2427 0.950 . S
H2399 C2428 0.950 . S
H2400 C2430 0.951 . S
H2401 C2431 0.949 . S
C2402 C2403 1.376 . S
C2402 C2407 1.386 . S
C2402 C2408 1.483 . S
C2403 H2384 0.949 . S
C2403 C2402 1.376 . S
C2403 C2404 1.397 . S
C2404 H2385 0.950 . S
C2404 C2403 1.397 . S
C2404 C2405 1.391 . S
C2405 C2404 1.391 . S
C2405 C2406 1.405 . S
C2406 H2386 0.950 . S
C2406 C2405 1.405 . S
C2406 C2407 1.367 . S
C2407 H2387 0.950 . S
C2407 C2402 1.386 . S
C2407 C2406 1.367 . S
C2408 C2402 1.483 . S
C2408 C2409 1.382 . S
C2408 C2410 1.403 . S
C2409 H2388 0.950 . S
C2409 C2408 1.382 . S
C2409 C2425 1.411 . S
C2410 C2408 1.403 . S
C2410 C2411 1.489 . S
C2410 C2424 1.411 . S
C2411 C2410 1.489 . S
C2411 C2412 1.383 . S
C2411 C2416 1.382 . S
C2412 H2389 0.950 . S
C2412 C2411 1.383 . S
C2412 C2413 1.395 . S
C2413 H2390 0.950 . S
C2413 C2412 1.395 . S
C2413 C2414 1.288 . S
C2414 C2413 1.288 . S
C2414 C2415 1.392 . S
C2415 H2391 0.951 . S
C2415 C2414 1.392 . S
C2415 C2416 1.392 . S
C2416 H2392 0.949 . S
C2416 C2411 1.382 . S
C2416 C2415 1.392 . S
C2417 C2418 1.376 . S
C2417 C2422 1.386 . S
C2417 C2423 1.483 . S
C2418 H2393 0.949 . S
C2418 C2417 1.376 . S
C2418 C2419 1.397 . S
C2419 H2394 0.950 . S
C2419 C2418 1.397 . S
C2419 C2420 1.391 . S
C2420 C2419 1.391 . S
C2420 C2421 1.405 . S
C2421 H2395 0.950 . S
C2421 C2420 1.405 . S
C2421 C2422 1.367 . S
C2422 H2396 0.950 . S
C2422 C2417 1.386 . S
C2422 C2421 1.367 . S
C2423 C2417 1.483 . S
C2423 C2424 1.382 . S
C2423 C2425 1.403 . S
C2424 H2397 0.950 . S
C2424 C2410 1.411 . S
C2424 C2423 1.382 . S
C2425 C2409 1.411 . S
C2425 C2423 1.403 . S
C2425 C2426 1.489 . S
C2426 C2425 1.489 . S
C2426 C2427 1.383 . S
C2426 C2431 1.382 . S
C2427 H2398 0.950 . S
C2427 C2426 1.383 . S
C2427 C2428 1.395 . S
C2428 H2399 0.950 . S
C2428 C2427 1.395 . S
C2428 C2429 1.288 . S
C2429 C2428 1.288 . S
C2429 C2430 1.392 . S
C2430 H2400 0.951 . S
C2430 C2429 1.392 . S
C2430 C2431 1.392 . S
C2431 H2401 0.949 . S
C2431 C2426 1.382 . S
C2431 C2430 1.392 . S
C2432 C2433 1.387 . S
C2432 H2436 0.950 . S
C2432 C2441 1.390 . S
C2433 C2432 1.387 . S
C2433 C2435 1.387 . S
H2434 C2441 0.950 . S
C2435 C2433 1.387 . S
C2435 C2437 1.390 . S
C2435 H2439 0.950 . S
H2436 C2432 0.950 . S
C2437 C2435 1.390 . S
C2437 C2438 1.387 . S
C2437 H2440 0.950 . S
C2438 C2437 1.387 . S
C2438 C2441 1.387 . S
H2439 C2435 0.950 . S
H2440 C2437 0.950 . S
C2441 C2432 1.390 . S
C2441 H2434 0.950 . S
C2441 C2438 1.387 . S
C2442 C2443 1.387 . S
C2442 H2446 0.950 . S
C2442 C2451 1.390 . S
C2443 C2442 1.387 . S
C2443 C2445 1.387 . S
H2444 C2451 0.950 . S
C2445 C2443 1.387 . S
C2445 C2447 1.390 . S
C2445 H2449 0.950 . S
H2446 C2442 0.950 . S
C2447 C2445 1.390 . S
C2447 C2448 1.387 . S
C2447 H2450 0.950 . S
C2448 C2447 1.387 . S
C2448 C2451 1.387 . S
H2449 C2445 0.950 . S
H2450 C2447 0.950 . S
C2451 C2442 1.390 . S
C2451 H2444 0.950 . S
C2451 C2448 1.387 . S
C2452 C2453 1.387 . S
C2452 H2456 0.950 . S
C2452 C2461 1.390 . S
C2453 C2452 1.387 . S
C2453 C2455 1.387 . S
H2454 C2461 0.950 . S
C2455 C2453 1.387 . S
C2455 C2457 1.390 . S
C2455 H2459 0.950 . S
H2456 C2452 0.950 . S
C2457 C2455 1.390 . S
C2457 C2458 1.387 . S
C2457 H2460 0.950 . S
C2458 C2457 1.387 . S
C2458 C2461 1.387 . S
H2459 C2455 0.950 . S
H2460 C2457 0.950 . S
C2461 C2452 1.390 . S
C2461 H2454 0.950 . S
C2461 C2458 1.387 . S
C2462 C2463 1.387 . S
C2462 H2466 0.950 . S
C2462 C2471 1.390 . S
C2463 C2462 1.387 . S
C2463 C2465 1.387 . S
H2464 C2471 0.950 . S
C2465 C2463 1.387 . S
C2465 C2467 1.390 . S
C2465 H2469 0.950 . S
H2466 C2462 0.950 . S
C2467 C2465 1.390 . S
C2467 C2468 1.387 . S
C2467 H2470 0.950 . S
C2468 C2467 1.387 . S
C2468 C2471 1.387 . S
H2469 C2465 0.950 . S
H2470 C2467 0.950 . S
C2471 C2462 1.390 . S
C2471 H2464 0.950 . S
C2471 C2468 1.387 . S
C2472 C2473 1.387 . S
C2472 H2476 0.950 . S
C2472 C2481 1.390 . S
C2473 C2472 1.387 . S
C2473 C2475 1.387 . S
H2474 C2481 0.950 . S
C2475 C2473 1.387 . S
C2475 C2477 1.390 . S
C2475 H2479 0.950 . S
H2476 C2472 0.950 . S
C2477 C2475 1.390 . S
C2477 C2478 1.387 . S
C2477 H2480 0.950 . S
C2478 C2477 1.387 . S
C2478 C2481 1.387 . S
H2479 C2475 0.950 . S
H2480 C2477 0.950 . S
C2481 C2472 1.390 . S
C2481 H2474 0.950 . S
C2481 C2478 1.387 . S
C2482 C2483 1.387 . S
C2482 H2486 0.950 . S
C2482 C2491 1.390 . S
C2483 C2482 1.387 . S
C2483 C2485 1.387 . S
H2484 C2491 0.950 . S
C2485 C2483 1.387 . S
C2485 C2487 1.390 . S
C2485 H2489 0.950 . S
H2486 C2482 0.950 . S
C2487 C2485 1.390 . S
C2487 C2488 1.387 . S
C2487 H2490 0.950 . S
C2488 C2487 1.387 . S
C2488 C2491 1.387 . S
H2489 C2485 0.950 . S
H2490 C2487 0.950 . S
C2491 C2482 1.390 . S
C2491 H2484 0.950 . S
C2491 C2488 1.387 . S
C2492 C2493 1.387 . S
C2492 H2496 0.950 . S
C2492 C2501 1.390 . S
C2493 C2492 1.387 . S
C2493 C2495 1.387 . S
H2494 C2501 0.950 . S
C2495 C2493 1.387 . S
C2495 C2497 1.390 . S
C2495 H2499 0.950 . S
H2496 C2492 0.950 . S
C2497 C2495 1.390 . S
C2497 C2498 1.387 . S
C2497 H2500 0.950 . S
C2498 C2497 1.387 . S
C2498 C2501 1.387 . S
H2499 C2495 0.950 . S
H2500 C2497 0.950 . S
C2501 C2492 1.390 . S
C2501 H2494 0.950 . S
C2501 C2498 1.387 . S
C2502 C2503 1.387 . S
C2502 H2506 0.950 . S
C2502 C2511 1.390 . S
C2503 C2502 1.387 . S
C2503 C2505 1.387 . S
H2504 C2511 0.950 . S
C2505 C2503 1.387 . S
C2505 C2507 1.390 . S
C2505 H2509 0.950 . S
H2506 C2502 0.950 . S
C2507 C2505 1.390 . S
C2507 C2508 1.387 . S
C2507 H2510 0.950 . S
C2508 C2507 1.387 . S
C2508 C2511 1.387 . S
H2509 C2505 0.950 . S
H2510 C2507 0.950 . S
C2511 C2502 1.390 . S
C2511 H2504 0.950 . S
C2511 C2508 1.387 . S
C2512 C2513 1.387 . S
C2512 H2516 0.950 . S
C2512 C2521 1.390 . S
C2513 C2512 1.387 . S
C2513 C2515 1.387 . S
H2514 C2521 0.950 . S
C2515 C2513 1.387 . S
C2515 C2517 1.390 . S
C2515 H2519 0.950 . S
H2516 C2512 0.950 . S
C2517 C2515 1.390 . S
C2517 C2518 1.387 . S
C2517 H2520 0.950 . S
C2518 C2517 1.387 . S
C2518 C2521 1.387 . S
H2519 C2515 0.950 . S
H2520 C2517 0.950 . S
C2521 C2512 1.390 . S
C2521 H2514 0.950 . S
C2521 C2518 1.387 . S
C2522 C2523 1.387 . S
C2522 H2526 0.950 . S
C2522 C2531 1.390 . S
C2523 C2522 1.387 . S
C2523 C2525 1.387 . S
H2524 C2531 0.950 . S
C2525 C2523 1.387 . S
C2525 C2527 1.390 . S
C2525 H2529 0.950 . S
H2526 C2522 0.950 . S
C2527 C2525 1.390 . S
C2527 C2528 1.387 . S
C2527 H2530 0.950 . S
C2528 C2527 1.387 . S
C2528 C2531 1.387 . S
H2529 C2525 0.950 . S
H2530 C2527 0.950 . S
C2531 C2522 1.390 . S
C2531 H2524 0.950 . S
C2531 C2528 1.387 . S
C2532 C2533 1.387 . S
C2532 H2536 0.950 . S
C2532 C2541 1.390 . S
C2533 C2532 1.387 . S
C2533 C2535 1.387 . S
H2534 C2541 0.950 . S
C2535 C2533 1.387 . S
C2535 C2537 1.390 . S
C2535 H2539 0.950 . S
H2536 C2532 0.950 . S
C2537 C2535 1.390 . S
C2537 C2538 1.387 . S
C2537 H2540 0.950 . S
C2538 C2537 1.387 . S
C2538 C2541 1.387 . S
H2539 C2535 0.950 . S
H2540 C2537 0.950 . S
C2541 C2532 1.390 . S
C2541 H2534 0.950 . S
C2541 C2538 1.387 . S
C2542 C2543 1.387 . S
C2542 H2546 0.950 . S
C2542 C2551 1.390 . S
C2543 C2542 1.387 . S
C2543 C2545 1.387 . S
H2544 C2551 0.950 . S
C2545 C2543 1.387 . S
C2545 C2547 1.390 . S
C2545 H2549 0.950 . S
H2546 C2542 0.950 . S
C2547 C2545 1.390 . S
C2547 C2548 1.387 . S
C2547 H2550 0.950 . S
C2548 C2547 1.387 . S
C2548 C2551 1.387 . S
H2549 C2545 0.950 . S
H2550 C2547 0.950 . S
C2551 C2542 1.390 . S
C2551 H2544 0.950 . S
C2551 C2548 1.387 . S
C2552 C2553 1.387 . S
C2552 H2556 0.950 . S
C2552 C2561 1.390 . S
C2553 C2552 1.387 . S
C2553 C2555 1.387 . S
H2554 C2561 0.950 . S
C2555 C2553 1.387 . S
C2555 C2557 1.390 . S
C2555 H2559 0.950 . S
H2556 C2552 0.950 . S
C2557 C2555 1.390 . S
C2557 C2558 1.387 . S
C2557 H2560 0.950 . S
C2558 C2557 1.387 . S
C2558 C2561 1.387 . S
H2559 C2555 0.950 . S
H2560 C2557 0.950 . S
C2561 C2552 1.390 . S
C2561 H2554 0.950 . S
C2561 C2558 1.387 . S
C2562 C2563 1.387 . S
C2562 H2566 0.950 . S
C2562 C2571 1.390 . S
C2563 C2562 1.387 . S
C2563 C2565 1.387 . S
H2564 C2571 0.950 . S
C2565 C2563 1.387 . S
C2565 C2567 1.390 . S
C2565 H2569 0.950 . S
H2566 C2562 0.950 . S
C2567 C2565 1.390 . S
C2567 C2568 1.387 . S
C2567 H2570 0.950 . S
C2568 C2567 1.387 . S
C2568 C2571 1.387 . S
H2569 C2565 0.950 . S
H2570 C2567 0.950 . S
C2571 C2562 1.390 . S
C2571 H2564 0.950 . S
C2571 C2568 1.387 . S
C2572 C2573 1.387 . S
C2572 H2576 0.950 . S
C2572 C2581 1.390 . S
C2573 C2572 1.387 . S
C2573 C2575 1.387 . S
H2574 C2581 0.950 . S
C2575 C2573 1.387 . S
C2575 C2577 1.390 . S
C2575 H2579 0.950 . S
H2576 C2572 0.950 . S
C2577 C2575 1.390 . S
C2577 C2578 1.387 . S
C2577 H2580 0.950 . S
C2578 C2577 1.387 . S
C2578 C2581 1.387 . S
H2579 C2575 0.950 . S
H2580 C2577 0.950 . S
C2581 C2572 1.390 . S
C2581 H2574 0.950 . S
C2581 C2578 1.387 . S
C2582 C2583 1.387 . S
C2582 H2586 0.950 . S
C2582 C2591 1.390 . S
C2583 C2582 1.387 . S
C2583 C2585 1.387 . S
H2584 C2591 0.950 . S
C2585 C2583 1.387 . S
C2585 C2587 1.390 . S
C2585 H2589 0.950 . S
H2586 C2582 0.950 . S
C2587 C2585 1.390 . S
C2587 C2588 1.387 . S
C2587 H2590 0.950 . S
C2588 C2587 1.387 . S
C2588 C2591 1.387 . S
H2589 C2585 0.950 . S
H2590 C2587 0.950 . S
C2591 C2582 1.390 . S
C2591 H2584 0.950 . S
C2591 C2588 1.387 . S
C2592 C2593 1.387 . S
C2592 H2596 0.950 . S
C2592 C2601 1.390 . S
C2593 C2592 1.387 . S
C2593 C2595 1.387 . S
H2594 C2601 0.950 . S
C2595 C2593 1.387 . S
C2595 C2597 1.390 . S
C2595 H2599 0.950 . S
H2596 C2592 0.950 . S
C2597 C2595 1.390 . S
C2597 C2598 1.387 . S
C2597 H2600 0.950 . S
C2598 C2597 1.387 . S
C2598 C2601 1.387 . S
H2599 C2595 0.950 . S
H2600 C2597 0.950 . S
C2601 C2592 1.390 . S
C2601 H2594 0.950 . S
C2601 C2598 1.387 . S
C2602 C2603 1.387 . S
C2602 H2606 0.950 . S
C2602 C2611 1.390 . S
C2603 C2602 1.387 . S
C2603 C2605 1.387 . S
H2604 C2611 0.950 . S
C2605 C2603 1.387 . S
C2605 C2607 1.390 . S
C2605 H2609 0.950 . S
H2606 C2602 0.950 . S
C2607 C2605 1.390 . S
C2607 C2608 1.387 . S
C2607 H2610 0.950 . S
C2608 C2607 1.387 . S
C2608 C2611 1.387 . S
H2609 C2605 0.950 . S
H2610 C2607 0.950 . S
C2611 C2602 1.390 . S
C2611 H2604 0.950 . S
C2611 C2608 1.387 . S
C2612 C2613 1.387 . S
C2612 H2616 0.950 . S
C2612 C2621 1.390 . S
C2613 C2612 1.387 . S
C2613 C2615 1.387 . S
H2614 C2621 0.950 . S
C2615 C2613 1.387 . S
C2615 C2617 1.390 . S
C2615 H2619 0.950 . S
H2616 C2612 0.950 . S
C2617 C2615 1.390 . S
C2617 C2618 1.387 . S
C2617 H2620 0.950 . S
C2618 C2617 1.387 . S
C2618 C2621 1.387 . S
H2619 C2615 0.950 . S
H2620 C2617 0.950 . S
C2621 C2612 1.390 . S
C2621 H2614 0.950 . S
C2621 C2618 1.387 . S
C2622 C2623 1.387 . S
C2622 H2626 0.950 . S
C2622 C2631 1.390 . S
C2623 C2622 1.387 . S
C2623 C2625 1.387 . S
H2624 C2631 0.950 . S
C2625 C2623 1.387 . S
C2625 C2627 1.390 . S
C2625 H2629 0.950 . S
H2626 C2622 0.950 . S
C2627 C2625 1.390 . S
C2627 C2628 1.387 . S
C2627 H2630 0.950 . S
C2628 C2627 1.387 . S
C2628 C2631 1.387 . S
H2629 C2625 0.950 . S
H2630 C2627 0.950 . S
C2631 C2622 1.390 . S
C2631 H2624 0.950 . S
C2631 C2628 1.387 . S
C2632 C2633 1.387 . S
C2632 H2636 0.950 . S
C2632 C2641 1.390 . S
C2633 C2632 1.387 . S
C2633 C2635 1.387 . S
H2634 C2641 0.950 . S
C2635 C2633 1.387 . S
C2635 C2637 1.390 . S
C2635 H2639 0.950 . S
H2636 C2632 0.950 . S
C2637 C2635 1.390 . S
C2637 C2638 1.387 . S
C2637 H2640 0.950 . S
C2638 C2637 1.387 . S
C2638 C2641 1.387 . S
H2639 C2635 0.950 . S
H2640 C2637 0.950 . S
C2641 C2632 1.390 . S
C2641 H2634 0.950 . S
C2641 C2638 1.387 . S
C2642 C2643 1.387 . S
C2642 H2646 0.950 . S
C2642 C2651 1.390 . S
C2643 C2642 1.387 . S
C2643 C2645 1.387 . S
H2644 C2651 0.950 . S
C2645 C2643 1.387 . S
C2645 C2647 1.390 . S
C2645 H2649 0.950 . S
H2646 C2642 0.950 . S
C2647 C2645 1.390 . S
C2647 C2648 1.387 . S
C2647 H2650 0.950 . S
C2648 C2647 1.387 . S
C2648 C2651 1.387 . S
H2649 C2645 0.950 . S
H2650 C2647 0.950 . S
C2651 C2642 1.390 . S
C2651 H2644 0.950 . S
C2651 C2648 1.387 . S
C2652 C2653 1.387 . S
C2652 H2656 0.950 . S
C2652 C2661 1.390 . S
C2653 C2652 1.387 . S
C2653 C2655 1.387 . S
H2654 C2661 0.950 . S
C2655 C2653 1.387 . S
C2655 C2657 1.390 . S
C2655 H2659 0.950 . S
H2656 C2652 0.950 . S
C2657 C2655 1.390 . S
C2657 C2658 1.387 . S
C2657 H2660 0.950 . S
C2658 C2657 1.387 . S
C2658 C2661 1.387 . S
H2659 C2655 0.950 . S
H2660 C2657 0.950 . S
C2661 C2652 1.390 . S
C2661 H2654 0.950 . S
C2661 C2658 1.387 . S
C2662 C2663 1.387 . S
C2662 H2666 0.950 . S
C2662 C2671 1.390 . S
C2663 C2662 1.387 . S
C2663 C2665 1.387 . S
H2664 C2671 0.950 . S
C2665 C2663 1.387 . S
C2665 C2667 1.390 . S
C2665 H2669 0.950 . S
H2666 C2662 0.950 . S
C2667 C2665 1.390 . S
C2667 C2668 1.387 . S
C2667 H2670 0.950 . S
C2668 C2667 1.387 . S
C2668 C2671 1.387 . S
H2669 C2665 0.950 . S
H2670 C2667 0.950 . S
C2671 C2662 1.390 . S
C2671 H2664 0.950 . S
C2671 C2668 1.387 . S
C2672 C2673 1.387 . S
C2672 H2676 0.950 . S
C2672 C2681 1.390 . S
C2673 C2672 1.387 . S
C2673 C2675 1.387 . S
H2674 C2681 0.950 . S
C2675 C2673 1.387 . S
C2675 C2677 1.390 . S
C2675 H2679 0.950 . S
H2676 C2672 0.950 . S
C2677 C2675 1.390 . S
C2677 C2678 1.387 . S
C2677 H2680 0.950 . S
C2678 C2677 1.387 . S
C2678 C2681 1.387 . S
H2679 C2675 0.950 . S
H2680 C2677 0.950 . S
C2681 C2672 1.390 . S
C2681 H2674 0.950 . S
C2681 C2678 1.387 . S
C2682 C2683 1.387 . S
C2682 H2686 0.950 . S
C2682 C2691 1.390 . S
C2683 C2682 1.387 . S
C2683 C2685 1.387 . S
H2684 C2691 0.950 . S
C2685 C2683 1.387 . S
C2685 C2687 1.390 . S
C2685 H2689 0.950 . S
H2686 C2682 0.950 . S
C2687 C2685 1.390 . S
C2687 C2688 1.387 . S
C2687 H2690 0.950 . S
C2688 C2687 1.387 . S
C2688 C2691 1.387 . S
H2689 C2685 0.950 . S
H2690 C2687 0.950 . S
C2691 C2682 1.390 . S
C2691 H2684 0.950 . S
C2691 C2688 1.387 . S
C2692 C2693 1.387 . S
C2692 H2696 0.950 . S
C2692 C2701 1.390 . S
C2693 C2692 1.387 . S
C2693 C2695 1.387 . S
H2694 C2701 0.950 . S
C2695 C2693 1.387 . S
C2695 C2697 1.390 . S
C2695 H2699 0.950 . S
H2696 C2692 0.950 . S
C2697 C2695 1.390 . S
C2697 C2698 1.387 . S
C2697 H2700 0.950 . S
C2698 C2697 1.387 . S
C2698 C2701 1.387 . S
H2699 C2695 0.950 . S
H2700 C2697 0.950 . S
C2701 C2692 1.390 . S
C2701 H2694 0.950 . S
C2701 C2698 1.387 . S
C2702 C2703 1.387 . S
C2702 H2706 0.950 . S
C2702 C2711 1.390 . S
C2703 C2702 1.387 . S
C2703 C2705 1.387 . S
H2704 C2711 0.950 . S
C2705 C2703 1.387 . S
C2705 C2707 1.390 . S
C2705 H2709 0.950 . S
H2706 C2702 0.950 . S
C2707 C2705 1.390 . S
C2707 C2708 1.387 . S
C2707 H2710 0.950 . S
C2708 C2707 1.387 . S
C2708 C2711 1.387 . S
H2709 C2705 0.950 . S
H2710 C2707 0.950 . S
C2711 C2702 1.390 . S
C2711 H2704 0.950 . S
C2711 C2708 1.387 . S
C2712 C2713 1.387 . S
C2712 H2716 0.950 . S
C2712 C2721 1.390 . S
C2713 C2712 1.387 . S
C2713 C2715 1.387 . S
H2714 C2721 0.950 . S
C2715 C2713 1.387 . S
C2715 C2717 1.390 . S
C2715 H2719 0.950 . S
H2716 C2712 0.950 . S
C2717 C2715 1.390 . S
C2717 C2718 1.387 . S
C2717 H2720 0.950 . S
C2718 C2717 1.387 . S
C2718 C2721 1.387 . S
H2719 C2715 0.950 . S
H2720 C2717 0.950 . S
C2721 C2712 1.390 . S
C2721 H2714 0.950 . S
C2721 C2718 1.387 . S
C2722 C2723 1.387 . S
C2722 H2726 0.950 . S
C2722 C2731 1.390 . S
C2723 C2722 1.387 . S
C2723 C2725 1.387 . S
H2724 C2731 0.950 . S
C2725 C2723 1.387 . S
C2725 C2727 1.390 . S
C2725 H2729 0.950 . S
H2726 C2722 0.950 . S
C2727 C2725 1.390 . S
C2727 C2728 1.387 . S
C2727 H2730 0.950 . S
C2728 C2727 1.387 . S
C2728 C2731 1.387 . S
H2729 C2725 0.950 . S
H2730 C2727 0.950 . S
C2731 C2722 1.390 . S
C2731 H2724 0.950 . S
C2731 C2728 1.387 . S
C2732 C2733 1.387 . S
C2732 H2736 0.950 . S
C2732 C2741 1.390 . S
C2733 C2732 1.387 . S
C2733 C2735 1.387 . S
H2734 C2741 0.950 . S
C2735 C2733 1.387 . S
C2735 C2737 1.390 . S
C2735 H2739 0.950 . S
H2736 C2732 0.950 . S
C2737 C2735 1.390 . S
C2737 C2738 1.387 . S
C2737 H2740 0.950 . S
C2738 C2737 1.387 . S
C2738 C2741 1.387 . S
H2739 C2735 0.950 . S
H2740 C2737 0.950 . S
C2741 C2732 1.390 . S
C2741 H2734 0.950 . S
C2741 C2738 1.387 . S
C2742 C2743 1.387 . S
C2742 H2746 0.950 . S
C2742 C2751 1.390 . S
C2743 C2742 1.387 . S
C2743 C2745 1.387 . S
H2744 C2751 0.950 . S
C2745 C2743 1.387 . S
C2745 C2747 1.390 . S
C2745 H2749 0.950 . S
H2746 C2742 0.950 . S
C2747 C2745 1.390 . S
C2747 C2748 1.387 . S
C2747 H2750 0.950 . S
C2748 C2747 1.387 . S
C2748 C2751 1.387 . S
H2749 C2745 0.950 . S
H2750 C2747 0.950 . S
C2751 C2742 1.390 . S
C2751 H2744 0.950 . S
C2751 C2748 1.387 . S
C2752 C2753 1.387 . S
C2752 H2756 0.950 . S
C2752 C2761 1.390 . S
C2753 C2752 1.387 . S
C2753 C2755 1.387 . S
H2754 C2761 0.950 . S
C2755 C2753 1.387 . S
C2755 C2757 1.390 . S
C2755 H2759 0.950 . S
H2756 C2752 0.950 . S
C2757 C2755 1.390 . S
C2757 C2758 1.387 . S
C2757 H2760 0.950 . S
C2758 C2757 1.387 . S
C2758 C2761 1.387 . S
H2759 C2755 0.950 . S
H2760 C2757 0.950 . S
C2761 C2752 1.390 . S
C2761 H2754 0.950 . S
C2761 C2758 1.387 . S
C2762 C2763 1.387 . S
C2762 H2766 0.950 . S
C2762 C2771 1.390 . S
C2763 C2762 1.387 . S
C2763 C2765 1.387 . S
H2764 C2771 0.950 . S
C2765 C2763 1.387 . S
C2765 C2767 1.390 . S
C2765 H2769 0.950 . S
H2766 C2762 0.950 . S
C2767 C2765 1.390 . S
C2767 C2768 1.387 . S
C2767 H2770 0.950 . S
C2768 C2767 1.387 . S
C2768 C2771 1.387 . S
H2769 C2765 0.950 . S
H2770 C2767 0.950 . S
C2771 C2762 1.390 . S
C2771 H2764 0.950 . S
C2771 C2768 1.387 . S
C2772 C2773 1.387 . S
C2772 H2776 0.950 . S
C2772 C2781 1.390 . S
C2773 C2772 1.387 . S
C2773 C2775 1.387 . S
H2774 C2781 0.950 . S
C2775 C2773 1.387 . S
C2775 C2777 1.390 . S
C2775 H2779 0.950 . S
H2776 C2772 0.950 . S
C2777 C2775 1.390 . S
C2777 C2778 1.387 . S
C2777 H2780 0.950 . S
C2778 C2777 1.387 . S
C2778 C2781 1.387 . S
H2779 C2775 0.950 . S
H2780 C2777 0.950 . S
C2781 C2772 1.390 . S
C2781 H2774 0.950 . S
C2781 C2778 1.387 . S
C2782 C2783 1.387 . S
C2782 H2786 0.950 . S
C2782 C2791 1.390 . S
C2783 C2782 1.387 . S
C2783 C2785 1.387 . S
H2784 C2791 0.950 . S
C2785 C2783 1.387 . S
C2785 C2787 1.390 . S
C2785 H2789 0.950 . S
H2786 C2782 0.950 . S
C2787 C2785 1.390 . S
C2787 C2788 1.387 . S
C2787 H2790 0.950 . S
C2788 C2787 1.387 . S
C2788 C2791 1.387 . S
H2789 C2785 0.950 . S
H2790 C2787 0.950 . S
C2791 C2782 1.390 . S
C2791 H2784 0.950 . S
C2791 C2788 1.387 . S
C2792 C2793 1.387 . S
C2792 H2796 0.950 . S
C2792 C2801 1.390 . S
C2793 C2792 1.387 . S
C2793 C2795 1.387 . S
H2794 C2801 0.950 . S
C2795 C2793 1.387 . S
C2795 C2797 1.390 . S
C2795 H2799 0.950 . S
H2796 C2792 0.950 . S
C2797 C2795 1.390 . S
C2797 C2798 1.387 . S
C2797 H2800 0.950 . S
C2798 C2797 1.387 . S
C2798 C2801 1.387 . S
H2799 C2795 0.950 . S
H2800 C2797 0.950 . S
C2801 C2792 1.390 . S
C2801 H2794 0.950 . S
C2801 C2798 1.387 . S
C2802 C2803 1.387 . S
C2802 H2806 0.950 . S
C2802 C2811 1.390 . S
C2803 C2802 1.387 . S
C2803 C2805 1.387 . S
H2804 C2811 0.950 . S
C2805 C2803 1.387 . S
C2805 C2807 1.390 . S
C2805 H2809 0.950 . S
H2806 C2802 0.950 . S
C2807 C2805 1.390 . S
C2807 C2808 1.387 . S
C2807 H2810 0.950 . S
C2808 C2807 1.387 . S
C2808 C2811 1.387 . S
H2809 C2805 0.950 . S
H2810 C2807 0.950 . S
C2811 C2802 1.390 . S
C2811 H2804 0.950 . S
C2811 C2808 1.387 . S
C2812 C2813 1.387 . S
C2812 H2816 0.950 . S
C2812 C2821 1.390 . S
C2813 C2812 1.387 . S
C2813 C2815 1.387 . S
H2814 C2821 0.950 . S
C2815 C2813 1.387 . S
C2815 C2817 1.390 . S
C2815 H2819 0.950 . S
H2816 C2812 0.950 . S
C2817 C2815 1.390 . S
C2817 C2818 1.387 . S
C2817 H2820 0.950 . S
C2818 C2817 1.387 . S
C2818 C2821 1.387 . S
H2819 C2815 0.950 . S
H2820 C2817 0.950 . S
C2821 C2812 1.390 . S
C2821 H2814 0.950 . S
C2821 C2818 1.387 . S
C2822 C2823 1.387 . S
C2822 H2826 0.950 . S
C2822 C2831 1.390 . S
C2823 C2822 1.387 . S
C2823 C2825 1.387 . S
H2824 C2831 0.950 . S
C2825 C2823 1.387 . S
C2825 C2827 1.390 . S
C2825 H2829 0.950 . S
H2826 C2822 0.950 . S
C2827 C2825 1.390 . S
C2827 C2828 1.387 . S
C2827 H2830 0.950 . S
C2828 C2827 1.387 . S
C2828 C2831 1.387 . S
H2829 C2825 0.950 . S
H2830 C2827 0.950 . S
C2831 C2822 1.390 . S
C2831 H2824 0.950 . S
C2831 C2828 1.387 . S
C2832 C2833 1.387 . S
C2832 H2836 0.950 . S
C2832 C2841 1.390 . S
C2833 C2832 1.387 . S
C2833 C2835 1.387 . S
H2834 C2841 0.950 . S
C2835 C2833 1.387 . S
C2835 C2837 1.390 . S
C2835 H2839 0.950 . S
H2836 C2832 0.950 . S
C2837 C2835 1.390 . S
C2837 C2838 1.387 . S
C2837 H2840 0.950 . S
C2838 C2837 1.387 . S
C2838 C2841 1.387 . S
H2839 C2835 0.950 . S
H2840 C2837 0.950 . S
C2841 C2832 1.390 . S
C2841 H2834 0.950 . S
C2841 C2838 1.387 . S
C2842 C2843 1.387 . S
C2842 H2846 0.950 . S
C2842 C2851 1.390 . S
C2843 C2842 1.387 . S
C2843 C2845 1.387 . S
H2844 C2851 0.950 . S
C2845 C2843 1.387 . S
C2845 C2847 1.390 . S
C2845 H2849 0.950 . S
H2846 C2842 0.950 . S
C2847 C2845 1.390 . S
C2847 C2848 1.387 . S
C2847 H2850 0.950 . S
C2848 C2847 1.387 . S
C2848 C2851 1.387 . S
H2849 C2845 0.950 . S
H2850 C2847 0.950 . S
C2851 C2842 1.390 . S
C2851 H2844 0.950 . S
C2851 C2848 1.387 . S
C2852 C2853 1.387 . S
C2852 H2856 0.950 . S
C2852 C2861 1.390 . S
C2853 C2852 1.387 . S
C2853 C2855 1.387 . S
H2854 C2861 0.950 . S
C2855 C2853 1.387 . S
C2855 C2857 1.390 . S
C2855 H2859 0.950 . S
H2856 C2852 0.950 . S
C2857 C2855 1.390 . S
C2857 C2858 1.387 . S
C2857 H2860 0.950 . S
C2858 C2857 1.387 . S
C2858 C2861 1.387 . S
H2859 C2855 0.950 . S
H2860 C2857 0.950 . S
C2861 C2852 1.390 . S
C2861 H2854 0.950 . S
C2861 C2858 1.387 . S
C2862 C2863 1.387 . S
C2862 H2866 0.950 . S
C2862 C2871 1.390 . S
C2863 C2862 1.387 . S
C2863 C2865 1.387 . S
H2864 C2871 0.950 . S
C2865 C2863 1.387 . S
C2865 C2867 1.390 . S
C2865 H2869 0.950 . S
H2866 C2862 0.950 . S
C2867 C2865 1.390 . S
C2867 C2868 1.387 . S
C2867 H2870 0.950 . S
C2868 C2867 1.387 . S
C2868 C2871 1.387 . S
H2869 C2865 0.950 . S
H2870 C2867 0.950 . S
C2871 C2862 1.390 . S
C2871 H2864 0.950 . S
C2871 C2868 1.387 . S
C2872 C2873 1.387 . S
C2872 H2876 0.950 . S
C2872 C2881 1.390 . S
C2873 C2872 1.387 . S
C2873 C2875 1.387 . S
H2874 C2881 0.950 . S
C2875 C2873 1.387 . S
C2875 C2877 1.390 . S
C2875 H2879 0.950 . S
H2876 C2872 0.950 . S
C2877 C2875 1.390 . S
C2877 C2878 1.387 . S
C2877 H2880 0.950 . S
C2878 C2877 1.387 . S
C2878 C2881 1.387 . S
H2879 C2875 0.950 . S
H2880 C2877 0.950 . S
C2881 C2872 1.390 . S
C2881 H2874 0.950 . S
C2881 C2878 1.387 . S
C2882 C2883 1.387 . S
C2882 H2886 0.950 . S
C2882 C2891 1.390 . S
C2883 C2882 1.387 . S
C2883 C2885 1.387 . S
H2884 C2891 0.950 . S
C2885 C2883 1.387 . S
C2885 C2887 1.390 . S
C2885 H2889 0.950 . S
H2886 C2882 0.950 . S
C2887 C2885 1.390 . S
C2887 C2888 1.387 . S
C2887 H2890 0.950 . S
C2888 C2887 1.387 . S
C2888 C2891 1.387 . S
H2889 C2885 0.950 . S
H2890 C2887 0.950 . S
C2891 C2882 1.390 . S
C2891 H2884 0.950 . S
C2891 C2888 1.387 . S
C2892 C2893 1.387 . S
C2892 H2896 0.950 . S
C2892 C2901 1.390 . S
C2893 C2892 1.387 . S
C2893 C2895 1.387 . S
H2894 C2901 0.950 . S
C2895 C2893 1.387 . S
C2895 C2897 1.390 . S
C2895 H2899 0.950 . S
H2896 C2892 0.950 . S
C2897 C2895 1.390 . S
C2897 C2898 1.387 . S
C2897 H2900 0.950 . S
C2898 C2897 1.387 . S
C2898 C2901 1.387 . S
H2899 C2895 0.950 . S
H2900 C2897 0.950 . S
C2901 C2892 1.390 . S
C2901 H2894 0.950 . S
C2901 C2898 1.387 . S
C2902 C2903 1.387 . S
C2902 H2906 0.950 . S
C2902 C2911 1.390 . S
C2903 C2902 1.387 . S
C2903 C2905 1.387 . S
H2904 C2911 0.950 . S
C2905 C2903 1.387 . S
C2905 C2907 1.390 . S
C2905 H2909 0.950 . S
H2906 C2902 0.950 . S
C2907 C2905 1.390 . S
C2907 C2908 1.387 . S
C2907 H2910 0.950 . S
C2908 C2907 1.387 . S
C2908 C2911 1.387 . S
H2909 C2905 0.950 . S
H2910 C2907 0.950 . S
C2911 C2902 1.390 . S
C2911 H2904 0.950 . S
C2911 C2908 1.387 . S
C2912 C2913 1.387 . S
C2912 H2916 0.950 . S
C2912 C2921 1.390 . S
C2913 C2912 1.387 . S
C2913 C2915 1.387 . S
H2914 C2921 0.950 . S
C2915 C2913 1.387 . S
C2915 C2917 1.390 . S
C2915 H2919 0.950 . S
H2916 C2912 0.950 . S
C2917 C2915 1.390 . S
C2917 C2918 1.387 . S
C2917 H2920 0.950 . S
C2918 C2917 1.387 . S
C2918 C2921 1.387 . S
H2919 C2915 0.950 . S
H2920 C2917 0.950 . S
C2921 C2912 1.390 . S
C2921 H2914 0.950 . S
C2921 C2918 1.387 . S
C2922 C2923 1.387 . S
C2922 H2926 0.950 . S
C2922 C2931 1.390 . S
C2923 C2922 1.387 . S
C2923 C2925 1.387 . S
H2924 C2931 0.950 . S
C2925 C2923 1.387 . S
C2925 C2927 1.390 . S
C2925 H2929 0.950 . S
H2926 C2922 0.950 . S
C2927 C2925 1.390 . S
C2927 C2928 1.387 . S
C2927 H2930 0.950 . S
C2928 C2927 1.387 . S
C2928 C2931 1.387 . S
H2929 C2925 0.950 . S
H2930 C2927 0.950 . S
C2931 C2922 1.390 . S
C2931 H2924 0.950 . S
C2931 C2928 1.387 . S
C2932 C2933 1.387 . S
C2932 H2936 0.950 . S
C2932 C2941 1.390 . S
C2933 C2932 1.387 . S
C2933 C2935 1.387 . S
H2934 C2941 0.950 . S
C2935 C2933 1.387 . S
C2935 C2937 1.390 . S
C2935 H2939 0.950 . S
H2936 C2932 0.950 . S
C2937 C2935 1.390 . S
C2937 C2938 1.387 . S
C2937 H2940 0.950 . S
C2938 C2937 1.387 . S
C2938 C2941 1.387 . S
H2939 C2935 0.950 . S
H2940 C2937 0.950 . S
C2941 C2932 1.390 . S
C2941 H2934 0.950 . S
C2941 C2938 1.387 . S
C2942 C2943 1.387 . S
C2942 H2946 0.950 . S
C2942 C2951 1.390 . S
C2943 C2942 1.387 . S
C2943 C2945 1.387 . S
H2944 C2951 0.950 . S
C2945 C2943 1.387 . S
C2945 C2947 1.390 . S
C2945 H2949 0.950 . S
H2946 C2942 0.950 . S
C2947 C2945 1.390 . S
C2947 C2948 1.387 . S
C2947 H2950 0.950 . S
C2948 C2947 1.387 . S
C2948 C2951 1.387 . S
H2949 C2945 0.950 . S
H2950 C2947 0.950 . S
C2951 C2942 1.390 . S
C2951 H2944 0.950 . S
C2951 C2948 1.387 . S
C2952 C2953 1.387 . S
C2952 H2956 0.950 . S
C2952 C2961 1.390 . S
C2953 C2952 1.387 . S
C2953 C2955 1.387 . S
H2954 C2961 0.950 . S
C2955 C2953 1.387 . S
C2955 C2957 1.390 . S
C2955 H2959 0.950 . S
H2956 C2952 0.950 . S
C2957 C2955 1.390 . S
C2957 C2958 1.387 . S
C2957 H2960 0.950 . S
C2958 C2957 1.387 . S
C2958 C2961 1.387 . S
H2959 C2955 0.950 . S
H2960 C2957 0.950 . S
C2961 C2952 1.390 . S
C2961 H2954 0.950 . S
C2961 C2958 1.387 . S
C2962 C2963 1.387 . S
C2962 H2966 0.950 . S
C2962 C2971 1.390 . S
C2963 C2962 1.387 . S
C2963 C2965 1.387 . S
H2964 C2971 0.950 . S
C2965 C2963 1.387 . S
C2965 C2967 1.390 . S
C2965 H2969 0.950 . S
H2966 C2962 0.950 . S
C2967 C2965 1.390 . S
C2967 C2968 1.387 . S
C2967 H2970 0.950 . S
C2968 C2967 1.387 . S
C2968 C2971 1.387 . S
H2969 C2965 0.950 . S
H2970 C2967 0.950 . S
C2971 C2962 1.390 . S
C2971 H2964 0.950 . S
C2971 C2968 1.387 . S
C2972 C2973 1.387 . S
C2972 H2976 0.950 . S
C2972 C2981 1.390 . S
C2973 C2972 1.387 . S
C2973 C2975 1.387 . S
H2974 C2981 0.950 . S
C2975 C2973 1.387 . S
C2975 C2977 1.390 . S
C2975 H2979 0.950 . S
H2976 C2972 0.950 . S
C2977 C2975 1.390 . S
C2977 C2978 1.387 . S
C2977 H2980 0.950 . S
C2978 C2977 1.387 . S
C2978 C2981 1.387 . S
H2979 C2975 0.950 . S
H2980 C2977 0.950 . S
C2981 C2972 1.390 . S
C2981 H2974 0.950 . S
C2981 C2978 1.387 . S
C2982 C2983 1.387 . S
C2982 H2986 0.950 . S
C2982 C2991 1.390 . S
C2983 C2982 1.387 . S
C2983 C2985 1.387 . S
H2984 C2991 0.950 . S
C2985 C2983 1.387 . S
C2985 C2987 1.390 . S
C2985 H2989 0.950 . S
H2986 C2982 0.950 . S
C2987 C2985 1.390 . S
C2987 C2988 1.387 . S
C2987 H2990 0.950 . S
C2988 C2987 1.387 . S
C2988 C2991 1.387 . S
H2989 C2985 0.950 . S
H2990 C2987 0.950 . S
C2991 C2982 1.390 . S
C2991 H2984 0.950 . S
C2991 C2988 1.387 . S
C2992 C2993 1.387 . S
C2992 H2996 0.950 . S
C2992 C3001 1.390 . S
C2993 C2992 1.387 . S
C2993 C2995 1.387 . S
H2994 C3001 0.950 . S
C2995 C2993 1.387 . S
C2995 C2997 1.390 . S
C2995 H2999 0.950 . S
H2996 C2992 0.950 . S
C2997 C2995 1.390 . S
C2997 C2998 1.387 . S
C2997 H3000 0.950 . S
C2998 C2997 1.387 . S
C2998 C3001 1.387 . S
H2999 C2995 0.950 . S
H3000 C2997 0.950 . S
C3001 C2992 1.390 . S
C3001 H2994 0.950 . S
C3001 C2998 1.387 . S
C3002 C3003 1.387 . S
C3002 H3006 0.950 . S
C3002 C3011 1.390 . S
C3003 C3002 1.387 . S
C3003 C3005 1.387 . S
H3004 C3011 0.950 . S
C3005 C3003 1.387 . S
C3005 C3007 1.390 . S
C3005 H3009 0.950 . S
H3006 C3002 0.950 . S
C3007 C3005 1.390 . S
C3007 C3008 1.387 . S
C3007 H3010 0.950 . S
C3008 C3007 1.387 . S
C3008 C3011 1.387 . S
H3009 C3005 0.950 . S
H3010 C3007 0.950 . S
C3011 C3002 1.390 . S
C3011 H3004 0.950 . S
C3011 C3008 1.387 . S
C3012 C3013 1.387 . S
C3012 H3016 0.950 . S
C3012 C3021 1.390 . S
C3013 C3012 1.387 . S
C3013 C3015 1.387 . S
H3014 C3021 0.950 . S
C3015 C3013 1.387 . S
C3015 C3017 1.390 . S
C3015 H3019 0.950 . S
H3016 C3012 0.950 . S
C3017 C3015 1.390 . S
C3017 C3018 1.387 . S
C3017 H3020 0.950 . S
C3018 C3017 1.387 . S
C3018 C3021 1.387 . S
H3019 C3015 0.950 . S
H3020 C3017 0.950 . S
C3021 C3012 1.390 . S
C3021 H3014 0.950 . S
C3021 C3018 1.387 . S
C3022 C3023 1.387 . S
C3022 H3026 0.950 . S
C3022 C3031 1.390 . S
C3023 C3022 1.387 . S
C3023 C3025 1.387 . S
H3024 C3031 0.950 . S
C3025 C3023 1.387 . S
C3025 C3027 1.390 . S
C3025 H3029 0.950 . S
H3026 C3022 0.950 . S
C3027 C3025 1.390 . S
C3027 C3028 1.387 . S
C3027 H3030 0.950 . S
C3028 C3027 1.387 . S
C3028 C3031 1.387 . S
H3029 C3025 0.950 . S
H3030 C3027 0.950 . S
C3031 C3022 1.390 . S
C3031 H3024 0.950 . S
C3031 C3028 1.387 . S
C3032 C3033 1.387 . S
C3032 H3036 0.950 . S
C3032 C3041 1.390 . S
C3033 C3032 1.387 . S
C3033 C3035 1.387 . S
H3034 C3041 0.950 . S
C3035 C3033 1.387 . S
C3035 C3037 1.390 . S
C3035 H3039 0.950 . S
H3036 C3032 0.950 . S
C3037 C3035 1.390 . S
C3037 C3038 1.387 . S
C3037 H3040 0.950 . S
C3038 C3037 1.387 . S
C3038 C3041 1.387 . S
H3039 C3035 0.950 . S
H3040 C3037 0.950 . S
C3041 C3032 1.390 . S
C3041 H3034 0.950 . S
C3041 C3038 1.387 . S
C3042 C3043 1.387 . S
C3042 H3046 0.950 . S
C3042 C3051 1.390 . S
C3043 C3042 1.387 . S
C3043 C3045 1.387 . S
H3044 C3051 0.950 . S
C3045 C3043 1.387 . S
C3045 C3047 1.390 . S
C3045 H3049 0.950 . S
H3046 C3042 0.950 . S
C3047 C3045 1.390 . S
C3047 C3048 1.387 . S
C3047 H3050 0.950 . S
C3048 C3047 1.387 . S
C3048 C3051 1.387 . S
H3049 C3045 0.950 . S
H3050 C3047 0.950 . S
C3051 C3042 1.390 . S
C3051 H3044 0.950 . S
C3051 C3048 1.387 . S
C3052 C3053 1.387 . S
C3052 H3056 0.950 . S
C3052 C3061 1.390 . S
C3053 C3052 1.387 . S
C3053 C3055 1.387 . S
H3054 C3061 0.950 . S
C3055 C3053 1.387 . S
C3055 C3057 1.390 . S
C3055 H3059 0.950 . S
H3056 C3052 0.950 . S
C3057 C3055 1.390 . S
C3057 C3058 1.387 . S
C3057 H3060 0.950 . S
C3058 C3057 1.387 . S
C3058 C3061 1.387 . S
H3059 C3055 0.950 . S
H3060 C3057 0.950 . S
C3061 C3052 1.390 . S
C3061 H3054 0.950 . S
C3061 C3058 1.387 . S
C3062 C3063 1.387 . S
C3062 H3066 0.950 . S
C3062 C3071 1.390 . S
C3063 C3062 1.387 . S
C3063 C3065 1.387 . S
H3064 C3071 0.950 . S
C3065 C3063 1.387 . S
C3065 C3067 1.390 . S
C3065 H3069 0.950 . S
H3066 C3062 0.950 . S
C3067 C3065 1.390 . S
C3067 C3068 1.387 . S
C3067 H3070 0.950 . S
C3068 C3067 1.387 . S
C3068 C3071 1.387 . S
H3069 C3065 0.950 . S
H3070 C3067 0.950 . S
C3071 C3062 1.390 . S
C3071 H3064 0.950 . S
C3071 C3068 1.387 . S
C3072 C3073 1.387 . S
C3072 H3076 0.950 . S
C3072 C3081 1.390 . S
C3073 C3072 1.387 . S
C3073 C3075 1.387 . S
H3074 C3081 0.950 . S
C3075 C3073 1.387 . S
C3075 C3077 1.390 . S
C3075 H3079 0.950 . S
H3076 C3072 0.950 . S
C3077 C3075 1.390 . S
C3077 C3078 1.387 . S
C3077 H3080 0.950 . S
C3078 C3077 1.387 . S
C3078 C3081 1.387 . S
H3079 C3075 0.950 . S
H3080 C3077 0.950 . S
C3081 C3072 1.390 . S
C3081 H3074 0.950 . S
C3081 C3078 1.387 . S
C3082 C3083 1.387 . S
C3082 H3086 0.950 . S
C3082 C3091 1.390 . S
C3083 C3082 1.387 . S
C3083 C3085 1.387 . S
H3084 C3091 0.950 . S
C3085 C3083 1.387 . S
C3085 C3087 1.390 . S
C3085 H3089 0.950 . S
H3086 C3082 0.950 . S
C3087 C3085 1.390 . S
C3087 C3088 1.387 . S
C3087 H3090 0.950 . S
C3088 C3087 1.387 . S
C3088 C3091 1.387 . S
H3089 C3085 0.950 . S
H3090 C3087 0.950 . S
C3091 C3082 1.390 . S
C3091 H3084 0.950 . S
C3091 C3088 1.387 . S
C3092 C3093 1.387 . S
C3092 H3096 0.950 . S
C3092 C3101 1.390 . S
C3093 C3092 1.387 . S
C3093 C3095 1.387 . S
H3094 C3101 0.950 . S
C3095 C3093 1.387 . S
C3095 C3097 1.390 . S
C3095 H3099 0.950 . S
H3096 C3092 0.950 . S
C3097 C3095 1.390 . S
C3097 C3098 1.387 . S
C3097 H3100 0.950 . S
C3098 C3097 1.387 . S
C3098 C3101 1.387 . S
H3099 C3095 0.950 . S
H3100 C3097 0.950 . S
C3101 C3092 1.390 . S
C3101 H3094 0.950 . S
C3101 C3098 1.387 . S
C3102 C3103 1.387 . S
C3102 H3106 0.950 . S
C3102 C3111 1.390 . S
C3103 C3102 1.387 . S
C3103 C3105 1.387 . S
H3104 C3111 0.950 . S
C3105 C3103 1.387 . S
C3105 C3107 1.390 . S
C3105 H3109 0.950 . S
H3106 C3102 0.950 . S
C3107 C3105 1.390 . S
C3107 C3108 1.387 . S
C3107 H3110 0.950 . S
C3108 C3107 1.387 . S
C3108 C3111 1.387 . S
H3109 C3105 0.950 . S
H3110 C3107 0.950 . S
C3111 C3102 1.390 . S
C3111 H3104 0.950 . S
C3111 C3108 1.387 . S
C3112 C3113 1.387 . S
C3112 H3116 0.950 . S
C3112 C3121 1.390 . S
C3113 C3112 1.387 . S
C3113 C3115 1.387 . S
H3114 C3121 0.950 . S
C3115 C3113 1.387 . S
C3115 C3117 1.390 . S
C3115 H3119 0.950 . S
H3116 C3112 0.950 . S
C3117 C3115 1.390 . S
C3117 C3118 1.387 . S
C3117 H3120 0.950 . S
C3118 C3117 1.387 . S
C3118 C3121 1.387 . S
H3119 C3115 0.950 . S
H3120 C3117 0.950 . S
C3121 C3112 1.390 . S
C3121 H3114 0.950 . S
C3121 C3118 1.387 . S
C3122 C3123 1.387 . S
C3122 H3126 0.950 . S
C3122 C3131 1.390 . S
C3123 C3122 1.387 . S
C3123 C3125 1.387 . S
H3124 C3131 0.950 . S
C3125 C3123 1.387 . S
C3125 C3127 1.390 . S
C3125 H3129 0.950 . S
H3126 C3122 0.950 . S
C3127 C3125 1.390 . S
C3127 C3128 1.387 . S
C3127 H3130 0.950 . S
C3128 C3127 1.387 . S
C3128 C3131 1.387 . S
H3129 C3125 0.950 . S
H3130 C3127 0.950 . S
C3131 C3122 1.390 . S
C3131 H3124 0.950 . S
C3131 C3128 1.387 . S
C3132 C3133 1.387 . S
C3132 H3136 0.950 . S
C3132 C3141 1.390 . S
C3133 C3132 1.387 . S
C3133 C3135 1.387 . S
H3134 C3141 0.950 . S
C3135 C3133 1.387 . S
C3135 C3137 1.390 . S
C3135 H3139 0.950 . S
H3136 C3132 0.950 . S
C3137 C3135 1.390 . S
C3137 C3138 1.387 . S
C3137 H3140 0.950 . S
C3138 C3137 1.387 . S
C3138 C3141 1.387 . S
H3139 C3135 0.950 . S
H3140 C3137 0.950 . S
C3141 C3132 1.390 . S
C3141 H3134 0.950 . S
C3141 C3138 1.387 . S
C3142 C3143 1.387 . S
C3142 H3146 0.950 . S
C3142 C3151 1.390 . S
C3143 C3142 1.387 . S
C3143 C3145 1.387 . S
H3144 C3151 0.950 . S
C3145 C3143 1.387 . S
C3145 C3147 1.390 . S
C3145 H3149 0.950 . S
H3146 C3142 0.950 . S
C3147 C3145 1.390 . S
C3147 C3148 1.387 . S
C3147 H3150 0.950 . S
C3148 C3147 1.387 . S
C3148 C3151 1.387 . S
H3149 C3145 0.950 . S
H3150 C3147 0.950 . S
C3151 C3142 1.390 . S
C3151 H3144 0.950 . S
C3151 C3148 1.387 . S
C3152 C3153 1.387 . S
C3152 H3156 0.950 . S
C3152 C3161 1.390 . S
C3153 C3152 1.387 . S
C3153 C3155 1.387 . S
H3154 C3161 0.950 . S
C3155 C3153 1.387 . S
C3155 C3157 1.390 . S
C3155 H3159 0.950 . S
H3156 C3152 0.950 . S
C3157 C3155 1.390 . S
C3157 C3158 1.387 . S
C3157 H3160 0.950 . S
C3158 C3157 1.387 . S
C3158 C3161 1.387 . S
H3159 C3155 0.950 . S
H3160 C3157 0.950 . S
C3161 C3152 1.390 . S
C3161 H3154 0.950 . S
C3161 C3158 1.387 . S
C3162 C3163 1.387 . S
C3162 H3166 0.950 . S
C3162 C3171 1.390 . S
C3163 C3162 1.387 . S
C3163 C3165 1.387 . S
H3164 C3171 0.950 . S
C3165 C3163 1.387 . S
C3165 C3167 1.390 . S
C3165 H3169 0.950 . S
H3166 C3162 0.950 . S
C3167 C3165 1.390 . S
C3167 C3168 1.387 . S
C3167 H3170 0.950 . S
C3168 C3167 1.387 . S
C3168 C3171 1.387 . S
H3169 C3165 0.950 . S
H3170 C3167 0.950 . S
C3171 C3162 1.390 . S
C3171 H3164 0.950 . S
C3171 C3168 1.387 . S
C3172 C3173 1.387 . S
C3172 H3176 0.950 . S
C3172 C3181 1.390 . S
C3173 C3172 1.387 . S
C3173 C3175 1.387 . S
H3174 C3181 0.950 . S
C3175 C3173 1.387 . S
C3175 C3177 1.390 . S
C3175 H3179 0.950 . S
H3176 C3172 0.950 . S
C3177 C3175 1.390 . S
C3177 C3178 1.387 . S
C3177 H3180 0.950 . S
C3178 C3177 1.387 . S
C3178 C3181 1.387 . S
H3179 C3175 0.950 . S
H3180 C3177 0.950 . S
C3181 C3172 1.390 . S
C3181 H3174 0.950 . S
C3181 C3178 1.387 . S
C3182 C3183 1.387 . S
C3182 H3186 0.950 . S
C3182 C3191 1.390 . S
C3183 C3182 1.387 . S
C3183 C3185 1.387 . S
H3184 C3191 0.950 . S
C3185 C3183 1.387 . S
C3185 C3187 1.390 . S
C3185 H3189 0.950 . S
H3186 C3182 0.950 . S
C3187 C3185 1.390 . S
C3187 C3188 1.387 . S
C3187 H3190 0.950 . S
C3188 C3187 1.387 . S
C3188 C3191 1.387 . S
H3189 C3185 0.950 . S
H3190 C3187 0.950 . S
C3191 C3182 1.390 . S
C3191 H3184 0.950 . S
C3191 C3188 1.387 . S
C3192 C3193 1.387 . S
C3192 H3196 0.950 . S
C3192 C3201 1.390 . S
C3193 C3192 1.387 . S
C3193 C3195 1.387 . S
H3194 C3201 0.950 . S
C3195 C3193 1.387 . S
C3195 C3197 1.390 . S
C3195 H3199 0.950 . S
H3196 C3192 0.950 . S
C3197 C3195 1.390 . S
C3197 C3198 1.387 . S
C3197 H3200 0.950 . S
C3198 C3197 1.387 . S
C3198 C3201 1.387 . S
H3199 C3195 0.950 . S
H3200 C3197 0.950 . S
C3201 C3192 1.390 . S
C3201 H3194 0.950 . S
C3201 C3198 1.387 . S
C3202 C3203 1.387 . S
C3202 H3206 0.950 . S
C3202 C3211 1.390 . S
C3203 C3202 1.387 . S
C3203 C3205 1.387 . S
H3204 C3211 0.950 . S
C3205 C3203 1.387 . S
C3205 C3207 1.390 . S
C3205 H3209 0.950 . S
H3206 C3202 0.950 . S
C3207 C3205 1.390 . S
C3207 C3208 1.387 . S
C3207 H3210 0.950 . S
C3208 C3207 1.387 . S
C3208 C3211 1.387 . S
H3209 C3205 0.950 . S
H3210 C3207 0.950 . S
C3211 C3202 1.390 . S
C3211 H3204 0.950 . S
C3211 C3208 1.387 . S
C3212 C3213 1.387 . S
C3212 H3216 0.950 . S
C3212 C3221 1.390 . S
C3213 C3212 1.387 . S
C3213 C3215 1.387 . S
H3214 C3221 0.950 . S
C3215 C3213 1.387 . S
C3215 C3217 1.390 . S
C3215 H3219 0.950 . S
H3216 C3212 0.950 . S
C3217 C3215 1.390 . S
C3217 C3218 1.387 . S
C3217 H3220 0.950 . S
C3218 C3217 1.387 . S
C3218 C3221 1.387 . S
H3219 C3215 0.950 . S
H3220 C3217 0.950 . S
C3221 C3212 1.390 . S
C3221 H3214 0.950 . S
C3221 C3218 1.387 . S
C3222 C3223 1.387 . S
C3222 H3226 0.950 . S
C3222 C3231 1.390 . S
C3223 C3222 1.387 . S
C3223 C3225 1.387 . S
H3224 C3231 0.950 . S
C3225 C3223 1.387 . S
C3225 C3227 1.390 . S
C3225 H3229 0.950 . S
H3226 C3222 0.950 . S
C3227 C3225 1.390 . S
C3227 C3228 1.387 . S
C3227 H3230 0.950 . S
C3228 C3227 1.387 . S
C3228 C3231 1.387 . S
H3229 C3225 0.950 . S
H3230 C3227 0.950 . S
C3231 C3222 1.390 . S
C3231 H3224 0.950 . S
C3231 C3228 1.387 . S
C3232 C3233 1.387 . S
C3232 H3236 0.950 . S
C3232 C3241 1.390 . S
C3233 C3232 1.387 . S
C3233 C3235 1.387 . S
H3234 C3241 0.950 . S
C3235 C3233 1.387 . S
C3235 C3237 1.390 . S
C3235 H3239 0.950 . S
H3236 C3232 0.950 . S
C3237 C3235 1.390 . S
C3237 C3238 1.387 . S
C3237 H3240 0.950 . S
C3238 C3237 1.387 . S
C3238 C3241 1.387 . S
H3239 C3235 0.950 . S
H3240 C3237 0.950 . S
C3241 C3232 1.390 . S
C3241 H3234 0.950 . S
C3241 C3238 1.387 . S
C3242 C3243 1.387 . S
C3242 H3246 0.950 . S
C3242 C3251 1.390 . S
C3243 C3242 1.387 . S
C3243 C3245 1.387 . S
H3244 C3251 0.950 . S
C3245 C3243 1.387 . S
C3245 C3247 1.390 . S
C3245 H3249 0.950 . S
H3246 C3242 0.950 . S
C3247 C3245 1.390 . S
C3247 C3248 1.387 . S
C3247 H3250 0.950 . S
C3248 C3247 1.387 . S
C3248 C3251 1.387 . S
H3249 C3245 0.950 . S
H3250 C3247 0.950 . S
C3251 C3242 1.390 . S
C3251 H3244 0.950 . S
C3251 C3248 1.387 . S
C3252 C3253 1.387 . S
C3252 H3256 0.950 . S
C3252 C3261 1.390 . S
C3253 C3252 1.387 . S
C3253 C3255 1.387 . S
H3254 C3261 0.950 . S
C3255 C3253 1.387 . S
C3255 C3257 1.390 . S
C3255 H3259 0.950 . S
H3256 C3252 0.950 . S
C3257 C3255 1.390 . S
C3257 C3258 1.387 . S
C3257 H3260 0.950 . S
C3258 C3257 1.387 . S
C3258 C3261 1.387 . S
H3259 C3255 0.950 . S
H3260 C3257 0.950 . S
C3261 C3252 1.390 . S
C3261 H3254 0.950 . S
C3261 C3258 1.387 . S
C3262 C3263 1.387 . S
C3262 H3266 0.950 . S
C3262 C3271 1.390 . S
C3263 C3262 1.387 . S
C3263 C3265 1.387 . S
H3264 C3271 0.950 . S
C3265 C3263 1.387 . S
C3265 C3267 1.390 . S
C3265 H3269 0.950 . S
H3266 C3262 0.950 . S
C3267 C3265 1.390 . S
C3267 C3268 1.387 . S
C3267 H3270 0.950 . S
C3268 C3267 1.387 . S
C3268 C3271 1.387 . S
H3269 C3265 0.950 . S
H3270 C3267 0.950 . S
C3271 C3262 1.390 . S
C3271 H3264 0.950 . S
C3271 C3268 1.387 . S
C3272 C3273 1.387 . S
C3272 H3276 0.950 . S
C3272 C3281 1.390 . S
C3273 C3272 1.387 . S
C3273 C3275 1.387 . S
H3274 C3281 0.950 . S
C3275 C3273 1.387 . S
C3275 C3277 1.390 . S
C3275 H3279 0.950 . S
H3276 C3272 0.950 . S
C3277 C3275 1.390 . S
C3277 C3278 1.387 . S
C3277 H3280 0.950 . S
C3278 C3277 1.387 . S
C3278 C3281 1.387 . S
H3279 C3275 0.950 . S
H3280 C3277 0.950 . S
C3281 C3272 1.390 . S
C3281 H3274 0.950 . S
C3281 C3278 1.387 . S
C3282 C3283 1.387 . S
C3282 H3286 0.950 . S
C3282 C3291 1.390 . S
C3283 C3282 1.387 . S
C3283 C3285 1.387 . S
H3284 C3291 0.950 . S
C3285 C3283 1.387 . S
C3285 C3287 1.390 . S
C3285 H3289 0.950 . S
H3286 C3282 0.950 . S
C3287 C3285 1.390 . S
C3287 C3288 1.387 . S
C3287 H3290 0.950 . S
C3288 C3287 1.387 . S
C3288 C3291 1.387 . S
H3289 C3285 0.950 . S
H3290 C3287 0.950 . S
C3291 C3282 1.390 . S
C3291 H3284 0.950 . S
C3291 C3288 1.387 . S
C3292 C3293 1.387 . S
C3292 H3296 0.950 . S
C3292 C3301 1.390 . S
C3293 C3292 1.387 . S
C3293 C3295 1.387 . S
H3294 C3301 0.950 . S
C3295 C3293 1.387 . S
C3295 C3297 1.390 . S
C3295 H3299 0.950 . S
H3296 C3292 0.950 . S
C3297 C3295 1.390 . S
C3297 C3298 1.387 . S
C3297 H3300 0.950 . S
C3298 C3297 1.387 . S
C3298 C3301 1.387 . S
H3299 C3295 0.950 . S
H3300 C3297 0.950 . S
C3301 C3292 1.390 . S
C3301 H3294 0.950 . S
C3301 C3298 1.387 . S
C3302 C3303 1.387 . S
C3302 H3306 0.950 . S
C3302 C3311 1.390 . S
C3303 C3302 1.387 . S
C3303 C3305 1.387 . S
H3304 C3311 0.950 . S
C3305 C3303 1.387 . S
C3305 C3307 1.390 . S
C3305 H3309 0.950 . S
H3306 C3302 0.950 . S
C3307 C3305 1.390 . S
C3307 C3308 1.387 . S
C3307 H3310 0.950 . S
C3308 C3307 1.387 . S
C3308 C3311 1.387 . S
H3309 C3305 0.950 . S
H3310 C3307 0.950 . S
C3311 C3302 1.390 . S
C3311 H3304 0.950 . S
C3311 C3308 1.387 . S
C3312 C3313 1.387 . S
C3312 H3316 0.950 . S
C3312 C3321 1.390 . S
C3313 C3312 1.387 . S
C3313 C3315 1.387 . S
H3314 C3321 0.950 . S
C3315 C3313 1.387 . S
C3315 C3317 1.390 . S
C3315 H3319 0.950 . S
H3316 C3312 0.950 . S
C3317 C3315 1.390 . S
C3317 C3318 1.387 . S
C3317 H3320 0.950 . S
C3318 C3317 1.387 . S
C3318 C3321 1.387 . S
H3319 C3315 0.950 . S
H3320 C3317 0.950 . S
C3321 C3312 1.390 . S
C3321 H3314 0.950 . S
C3321 C3318 1.387 . S
C3322 C3323 1.387 . S
C3322 H3326 0.950 . S
C3322 C3331 1.390 . S
C3323 C3322 1.387 . S
C3323 C3325 1.387 . S
H3324 C3331 0.950 . S
C3325 C3323 1.387 . S
C3325 C3327 1.390 . S
C3325 H3329 0.950 . S
H3326 C3322 0.950 . S
C3327 C3325 1.390 . S
C3327 C3328 1.387 . S
C3327 H3330 0.950 . S
C3328 C3327 1.387 . S
C3328 C3331 1.387 . S
H3329 C3325 0.950 . S
H3330 C3327 0.950 . S
C3331 C3322 1.390 . S
C3331 H3324 0.950 . S
C3331 C3328 1.387 . S
C3332 C3333 1.387 . S
C3332 H3336 0.950 . S
C3332 C3341 1.390 . S
C3333 C3332 1.387 . S
C3333 C3335 1.387 . S
H3334 C3341 0.950 . S
C3335 C3333 1.387 . S
C3335 C3337 1.390 . S
C3335 H3339 0.950 . S
H3336 C3332 0.950 . S
C3337 C3335 1.390 . S
C3337 C3338 1.387 . S
C3337 H3340 0.950 . S
C3338 C3337 1.387 . S
C3338 C3341 1.387 . S
H3339 C3335 0.950 . S
H3340 C3337 0.950 . S
C3341 C3332 1.390 . S
C3341 H3334 0.950 . S
C3341 C3338 1.387 . S
C3342 C3343 1.387 . S
C3342 H3346 0.950 . S
C3342 C3351 1.390 . S
C3343 C3342 1.387 . S
C3343 C3345 1.387 . S
H3344 C3351 0.950 . S
C3345 C3343 1.387 . S
C3345 C3347 1.390 . S
C3345 H3349 0.950 . S
H3346 C3342 0.950 . S
C3347 C3345 1.390 . S
C3347 C3348 1.387 . S
C3347 H3350 0.950 . S
C3348 C3347 1.387 . S
C3348 C3351 1.387 . S
H3349 C3345 0.950 . S
H3350 C3347 0.950 . S
C3351 C3342 1.390 . S
C3351 H3344 0.950 . S
C3351 C3348 1.387 . S
C3352 C3353 1.387 . S
C3352 H3356 0.950 . S
C3352 C3361 1.390 . S
C3353 C3352 1.387 . S
C3353 C3355 1.387 . S
H3354 C3361 0.950 . S
C3355 C3353 1.387 . S
C3355 C3357 1.390 . S
C3355 H3359 0.950 . S
H3356 C3352 0.950 . S
C3357 C3355 1.390 . S
C3357 C3358 1.387 . S
C3357 H3360 0.950 . S
C3358 C3357 1.387 . S
C3358 C3361 1.387 . S
H3359 C3355 0.950 . S
H3360 C3357 0.950 . S
C3361 C3352 1.390 . S
C3361 H3354 0.950 . S
C3361 C3358 1.387 . S
C3362 C3363 1.387 . S
C3362 H3366 0.950 . S
C3362 C3371 1.390 . S
C3363 C3362 1.387 . S
C3363 C3365 1.387 . S
H3364 C3371 0.950 . S
C3365 C3363 1.387 . S
C3365 C3367 1.390 . S
C3365 H3369 0.950 . S
H3366 C3362 0.950 . S
C3367 C3365 1.390 . S
C3367 C3368 1.387 . S
C3367 H3370 0.950 . S
C3368 C3367 1.387 . S
C3368 C3371 1.387 . S
H3369 C3365 0.950 . S
H3370 C3367 0.950 . S
C3371 C3362 1.390 . S
C3371 H3364 0.950 . S
C3371 C3368 1.387 . S
C3372 C3373 1.387 . S
C3372 H3376 0.950 . S
C3372 C3381 1.390 . S
C3373 C3372 1.387 . S
C3373 C3375 1.387 . S
H3374 C3381 0.950 . S
C3375 C3373 1.387 . S
C3375 C3377 1.390 . S
C3375 H3379 0.950 . S
H3376 C3372 0.950 . S
C3377 C3375 1.390 . S
C3377 C3378 1.387 . S
C3377 H3380 0.950 . S
C3378 C3377 1.387 . S
C3378 C3381 1.387 . S
H3379 C3375 0.950 . S
H3380 C3377 0.950 . S
C3381 C3372 1.390 . S
C3381 H3374 0.950 . S
C3381 C3378 1.387 . S
C3382 C3383 1.387 . S
C3382 H3386 0.950 . S
C3382 C3391 1.390 . S
C3383 C3382 1.387 . S
C3383 C3385 1.387 . S
H3384 C3391 0.950 . S
C3385 C3383 1.387 . S
C3385 C3387 1.390 . S
C3385 H3389 0.950 . S
H3386 C3382 0.950 . S
C3387 C3385 1.390 . S
C3387 C3388 1.387 . S
C3387 H3390 0.950 . S
C3388 C3387 1.387 . S
C3388 C3391 1.387 . S
H3389 C3385 0.950 . S
H3390 C3387 0.950 . S
C3391 C3382 1.390 . S
C3391 H3384 0.950 . S
C3391 C3388 1.387 . S
C2438 C1325 1.539 . S
C2433 C21 1.527 . S
C2448 C1373 1.445 . S
C2443 C42 1.447 . S
C2453 C82 1.510 . S
C2458 C1397 1.525 . S
C2468 C1460 1.496 . S
C2463 C135 1.499 . S
C2473 C175 1.442 . S
C2478 C1454 1.443 . S
C2483 C221 1.525 . S
C2488 C1301 1.536 . S
C2493 C255 1.490 . S
C2498 C1349 1.484 . S
C2508 C1421 1.548 . S
C2503 C301 1.547 . S
C2518 C1493 1.516 . S
C2513 C15 1.517 . S
C2523 C55 1.452 . S
C2528 C1541 1.449 . S
C2533 C101 1.532 . S
C2538 C1604 1.545 . S
C2548 C1661 1.501 . S
C2543 C141 1.501 . S
C2553 C162 1.449 . S
C2558 C1685 1.467 . S
C2568 C1742 1.512 . S
C2563 C215 1.515 . S
C2573 C261 1.502 . S
C2578 C1790 1.504 . S
C2588 C1844 1.519 . S
C2583 C282 1.512 . S
C2593 C2 1.508 . S
C2598 C1637 1.528 . S
C2603 C181 1.434 . S
C2608 C1748 1.452 . S
C2618 C1796 1.539 . S
C2613 C202 1.523 . S
C2623 C242 1.503 . S
C2628 C1838 1.505 . S
C2638 C1709 1.504 . S
C2633 C295 1.512 . S
C2648 C1565 1.515 . S
C2643 C95 1.519 . S
C2653 C122 1.493 . S
C2658 C1598 1.496 . S
C2668 C1517 1.462 . S
C2663 C61 1.462 . S
C2678 C1892 1.541 . S
C2673 C341 1.528 . S
C2683 C362 1.449 . S
C2688 C1949 1.445 . S
C2693 C402 1.510 . S
C2698 C1973 1.526 . S
C2708 C2036 1.496 . S
C2703 C455 1.499 . S
C2713 C495 1.441 . S
C2718 C2030 1.442 . S
C2723 C541 1.522 . S
C2728 C1886 1.531 . S
C2733 C575 1.490 . S
C2738 C1925 1.484 . S
C2743 C621 1.547 . S
C2748 C1997 1.547 . S
C2758 C1694 1.512 . S
C2753 C335 1.515 . S
C2763 C375 1.453 . S
C2768 C2078 1.449 . S
C2778 C1781 1.545 . S
C2773 C421 1.531 . S
C2783 C461 1.502 . S
C2788 C2132 1.503 . S
C2793 C482 1.447 . S
C2798 C1502 1.465 . S
C2808 C2174 1.511 . S
C2803 C535 1.514 . S
C2813 C581 1.501 . S
C2818 C1613 1.501 . S
C2828 C2228 1.521 . S
C2823 C602 1.513 . S
C2833 C322 1.507 . S
C2838 C2126 1.526 . S
C2848 C2180 1.453 . S
C2843 C501 1.434 . S
C2853 C522 1.521 . S
C2858 C1589 1.537 . S
C2868 C2222 1.505 . S
C2863 C562 1.502 . S
C2873 C615 1.513 . S
C2878 C1508 1.509 . S
C2883 C415 1.520 . S
C2888 C2084 1.517 . S
C2893 C442 1.495 . S
C2898 C1805 1.500 . S
C2903 C381 1.462 . S
C2908 C1700 1.463 . S
C2913 C661 1.528 . S
C2918 C1982 1.541 . S
C2928 C2045 1.446 . S
C2923 C682 1.448 . S
C2933 C722 1.508 . S
C2938 C1901 1.522 . S
C2943 C775 1.498 . S
C2948 C1940 1.496 . S
C2953 C815 1.441 . S
C2958 C1934 1.442 . S
C2963 C861 1.524 . S
C2968 C1988 1.539 . S
C2978 C2021 1.484 . S
C2973 C895 1.490 . S
C2983 C941 1.548 . S
C2988 C1877 1.554 . S
C2998 C2261 1.514 . S
C2993 C655 1.515 . S
C3003 C695 1.453 . S
C3008 C1733 1.450 . S
C3018 C2324 1.545 . S
C3013 C741 1.532 . S
C3023 C781 1.500 . S
C3028 C1853 1.502 . S
C3033 C802 1.448 . S
C3038 C2366 1.465 . S
C3043 C855 1.516 . S
C3048 C1550 1.513 . S
C3058 C2429 1.502 . S
C3053 C901 1.501 . S
C3063 C922 1.514 . S
C3068 C1652 1.521 . S
C3078 C1829 1.527 . S
C3073 C642 1.508 . S
C3088 C1556 1.452 . S
C3083 C821 1.434 . S
C3093 C842 1.524 . S
C3098 C2405 1.539 . S
C3103 C882 1.502 . S
C3108 C1646 1.505 . S
C3118 C2372 1.510 . S
C3113 C935 1.513 . S
C3128 C1757 1.513 . S
C3123 C735 1.518 . S
C3138 C2318 1.497 . S
C3133 C762 1.495 . S
C3148 C2285 1.463 . S
C3143 C701 1.462 . S
C3153 C981 1.528 . S
C3158 C1406 1.541 . S
C3163 C1002 1.449 . S
C3168 C1469 1.445 . S
C3178 C1316 1.524 . S
C3173 C1042 1.508 . S
C3188 C1364 1.496 . S
C3183 C1095 1.498 . S
C3198 C1358 1.442 . S
C3193 C1135 1.441 . S
C3208 C1412 1.538 . S
C3203 C1181 1.524 . S
C3218 C1445 1.485 . S
C3213 C1215 1.491 . S
C3223 C1261 1.547 . S
C3228 C1310 1.552 . S
C3233 C975 1.517 . S
C3238 C2357 1.515 . S
C3248 C2165 1.450 . S
C3243 C1015 1.453 . S
C3258 C2420 1.545 . S
C3253 C1061 1.530 . S
C3268 C2237 1.501 . S
C3263 C1101 1.500 . S
C3273 C1122 1.447 . S
C3278 C2270 1.464 . S
C3288 C2069 1.514 . S
C3283 C1175 1.516 . S
C3298 C2333 1.502 . S
C3293 C1221 1.503 . S
C3303 C1242 1.512 . S
C3308 C2141 1.517 . S
C3318 C2213 1.528 . S
C3313 C962 1.510 . S
C3328 C2093 1.453 . S
C3323 C1141 1.433 . S
C3338 C2309 1.539 . S
C3333 C1162 1.524 . S
C3343 C1202 1.503 . S
C3348 C2117 1.509 . S
C3353 C1255 1.512 . S
C3358 C2276 1.508 . S
C3363 C1055 1.518 . S
C3368 C2189 1.514 . S
C3373 C1082 1.494 . S
C3378 C2414 1.497 . S
C3388 C2381 1.464 . S
C3383 C1021 1.463 . S
