# Generated by pormake.
# Topology zzz, (3,6)-cn, num edge types: 1
# Building blocks:
#     Node 0, Type 0, BuildingBlock: KAKCAD_clean_linker_0, # of connection points: 3
#     Node 1, Type 0, BuildingBlock: KAKCAD_clean_linker_0, # of connection points: 3
#     Node 2, Type 0, BuildingBlock: KAKCAD_clean_linker_0, # of connection points: 3
#     Node 3, Type 0, BuildingBlock: KAKCAD_clean_linker_0, # of connection points: 3
#     Node 4, Type 0, BuildingBlock: KAKCAD_clean_linker_0, # of connection points: 3
#     Node 5, Type 0, BuildingBlock: KAKCAD_clean_linker_0, # of connection points: 3
#     Node 6, Type 0, BuildingBlock: KAKCAD_clean_linker_0, # of connection points: 3
#     Node 7, Type 0, BuildingBlock: KAKCAD_clean_linker_0, # of connection points: 3
#     Node 8, Type 1, BuildingBlock: FUNLAD_clean_sbu_0, # of connection points: 6
#     Node 9, Type 1, BuildingBlock: FUNLAD_clean_sbu_0, # of connection points: 6
#     Node 10, Type 1, BuildingBlock: FUNLAD_clean_sbu_0, # of connection points: 6
#     Node 11, Type 1, BuildingBlock: FUNLAD_clean_sbu_0, # of connection points: 6
#     Edge 12, Type (0, 1), BuildingBlock: XIVTED_clean_linker_0, # of connection points: 2
#     Edge 13, Type (0, 1), BuildingBlock: XIVTED_clean_linker_0, # of connection points: 2
#     Edge 14, Type (0, 1), BuildingBlock: XIVTED_clean_linker_0, # of connection points: 2
#     Edge 15, Type (0, 1), BuildingBlock: XIVTED_clean_linker_0, # of connection points: 2
#     Edge 16, Type (0, 1), BuildingBlock: XIVTED_clean_linker_0, # of connection points: 2
#     Edge 17, Type (0, 1), BuildingBlock: XIVTED_clean_linker_0, # of connection points: 2
#     Edge 18, Type (0, 1), BuildingBlock: XIVTED_clean_linker_0, # of connection points: 2
#     Edge 19, Type (0, 1), BuildingBlock: XIVTED_clean_linker_0, # of connection points: 2
#     Edge 20, Type (0, 1), BuildingBlock: XIVTED_clean_linker_0, # of connection points: 2
#     Edge 21, Type (0, 1), BuildingBlock: XIVTED_clean_linker_0, # of connection points: 2
#     Edge 22, Type (0, 1), BuildingBlock: XIVTED_clean_linker_0, # of connection points: 2
#     Edge 23, Type (0, 1), BuildingBlock: XIVTED_clean_linker_0, # of connection points: 2
#     Edge 24, Type (0, 1), BuildingBlock: XIVTED_clean_linker_0, # of connection points: 2
#     Edge 25, Type (0, 1), BuildingBlock: XIVTED_clean_linker_0, # of connection points: 2
#     Edge 26, Type (0, 1), BuildingBlock: XIVTED_clean_linker_0, # of connection points: 2
#     Edge 27, Type (0, 1), BuildingBlock: XIVTED_clean_linker_0, # of connection points: 2
#     Edge 28, Type (0, 1), BuildingBlock: XIVTED_clean_linker_0, # of connection points: 2
#     Edge 29, Type (0, 1), BuildingBlock: XIVTED_clean_linker_0, # of connection points: 2
#     Edge 30, Type (0, 1), BuildingBlock: XIVTED_clean_linker_0, # of connection points: 2
#     Edge 31, Type (0, 1), BuildingBlock: XIVTED_clean_linker_0, # of connection points: 2
#     Edge 32, Type (0, 1), BuildingBlock: XIVTED_clean_linker_0, # of connection points: 2
#     Edge 33, Type (0, 1), BuildingBlock: XIVTED_clean_linker_0, # of connection points: 2
#     Edge 34, Type (0, 1), BuildingBlock: XIVTED_clean_linker_0, # of connection points: 2
#     Edge 35, Type (0, 1), BuildingBlock: XIVTED_clean_linker_0, # of connection points: 2
# Relax obj value: 0.277
# Max RMSD: 0.225
# Mean RMSD: 0.191
data_MOF--net-zzz--node1-FUNLAD_clean_sbu_0--node2-KAKCAD_clean_linker_0--edge1-XIVTED_clean_linker_0
_symmetry_space_group_name_H-M    P1
_symmetry_Int_Tables_number       1
_symmetry_cell_setting            triclinic
loop_
_symmetry_equiv_pos_as_xyz
'x, y, z'
_cell_length_a     58.361531
_cell_length_b     63.122528
_cell_length_c     22.742515
_cell_angle_alpha  86.786948
_cell_angle_beta   87.224975
_cell_angle_gamma 92.301967
loop_
_atom_site_label
_atom_site_type_symbol
_atom_site_fract_x
_atom_site_fract_y
_atom_site_fract_z
_atom_type_partial_charge
C0 C 0.85776 0.40944 0.99471 0.0
C1 C 0.87712 0.39795 0.00869 0.0
C2 C 0.84014 0.41179 0.03703 0.0
C3 C 0.84138 0.40274 0.09453 0.0
C4 C 0.85995 0.39005 0.1076 0.0
C5 C 0.87766 0.38767 0.06506 0.0
C6 C 0.8249 0.40888 0.14174 0.0
C7 C 0.80173 0.4113 0.13057 0.0
C8 C 0.78697 0.42094 0.17071 0.0
C9 C 0.79552 0.42778 0.22367 0.0
C10 C 0.81854 0.42464 0.23659 0.0
C11 C 0.83301 0.41524 0.19523 0.0
C12 C 0.82859 0.43242 0.29059 0.0
C13 C 0.82523 0.45317 0.30774 0.0
C14 C 0.84409 0.41993 0.32086 0.0
C15 C 0.85722 0.42841 0.36411 0.0
C16 C 0.85501 0.44959 0.37909 0.0
C17 C 0.76342 0.42549 0.15319 0.0
C18 C 0.75541 0.44616 0.15476 0.0
C19 C 0.7502 0.40991 0.12674 0.0
C20 C 0.7303 0.41521 0.0987 0.0
C21 C 0.72313 0.43621 0.09648 0.0
C22 C 0.73543 0.45148 0.12663 0.0
C23 C 0.8383 0.46167 0.35164 0.0
H24 H 0.85685 0.41796 0.95228 0.0
H25 H 0.82632 0.42197 0.02562 0.0
H26 H 0.86122 0.38263 0.15138 0.0
H27 H 0.89218 0.37847 0.07701 0.0
H28 H 0.79545 0.40666 0.08888 0.0
H29 H 0.85111 0.41418 0.20308 0.0
H30 H 0.78434 0.43546 0.25456 0.0
H31 H 0.81345 0.46321 0.28509 0.0
H32 H 0.84686 0.4038 0.30908 0.0
H33 H 0.87001 0.41858 0.38332 0.0
H34 H 0.76536 0.45853 0.17436 0.0
H35 H 0.75583 0.39378 0.12555 0.0
H36 H 0.83578 0.47789 0.36273 0.0
H37 H 0.73039 0.46782 0.12559 0.0
H38 H 0.72089 0.40297 0.07711 0.0
C39 C 0.96103 0.83898 0.05365 0.0
C40 C 0.98177 0.8344 0.02394 0.0
C41 C 0.94729 0.8228 0.08336 0.0
C42 C 0.95398 0.80166 0.08408 0.0
C43 C 0.9744 0.79697 0.05303 0.0
C44 C 0.98814 0.81318 0.02321 0.0
C45 C 0.94083 0.78488 0.1214 0.0
C46 C 0.93724 0.76438 0.1019 0.0
C47 C 0.92749 0.74789 0.14041 0.0
C48 C 0.92111 0.752 0.19898 0.0
C49 C 0.92396 0.77265 0.21805 0.0
C50 C 0.93368 0.78892 0.17921 0.0
C51 C 0.91965 0.77756 0.27993 0.0
C52 C 0.89961 0.78763 0.29686 0.0
C53 C 0.93812 0.77751 0.31691 0.0
C54 C 0.93748 0.78911 0.36734 0.0
C55 C 0.91822 0.80091 0.38204 0.0
C56 C 0.92627 0.72613 0.1199 0.0
C57 C 0.91391 0.72167 0.07029 0.0
C58 C 0.94009 0.71062 0.14454 0.0
C59 C 0.94265 0.69142 0.11766 0.0
C60 C 0.93107 0.68732 0.0665 0.0
C61 C 0.91608 0.70228 0.04417 0.0
C62 C 0.89877 0.79899 0.34798 0.0
H63 H 0.95536 0.85511 0.05383 0.0
H64 H 0.93151 0.82686 0.1063 0.0
H65 H 0.98021 0.78088 0.05357 0.0
H66 H 0.00408 0.80915 0.00097 0.0
H67 H 0.94281 0.76102 0.05732 0.0
H68 H 0.93689 0.80455 0.19543 0.0
H69 H 0.91435 0.73922 0.22957 0.0
H70 H 0.88528 0.78804 0.2683 0.0
H71 H 0.95391 0.77018 0.30381 0.0
H72 H 0.95297 0.79026 0.39145 0.0
H73 H 0.9033 0.73353 0.05043 0.0
H74 H 0.94996 0.71388 0.18239 0.0
H75 H 0.88341 0.80736 0.35857 0.0
H76 H 0.90715 0.69952 0.00446 0.0
H77 H 0.95431 0.68008 0.13555 0.0
C78 C 0.69785 0.02214 0.00402 0.0
C79 C 0.68197 0.03755 0.01707 0.0
C80 C 0.71721 0.01989 0.03702 0.0
C81 C 0.72091 0.0329 0.08404 0.0
C82 C 0.70587 0.04932 0.09434 0.0
C83 C 0.68658 0.05171 0.06082 0.0
C84 C 0.73834 0.02726 0.12681 0.0
C85 C 0.76022 0.02147 0.10763 0.0
C86 C 0.77561 0.01302 0.14763 0.0
C87 C 0.76878 0.01057 0.20829 0.0
C88 C 0.74682 0.01671 0.22801 0.0
C89 C 0.73197 0.02513 0.18692 0.0
C90 C 0.7376 0.01317 0.28999 0.0
C91 C 0.73361 0.99248 0.3154 0.0
C92 C 0.72764 0.03009 0.31792 0.0
C93 C 0.71245 0.02631 0.3671 0.0
C94 C 0.70685 0.00546 0.39012 0.0
C95 C 0.79838 0.00656 0.12386 0.0
C96 C 0.79963 0.9952 0.07244 0.0
C97 C 0.81893 0.01372 0.14736 0.0
C98 C 0.84018 0.01067 0.11792 0.0
C99 C 0.84132 0.00032 0.06448 0.0
C100 C 0.82072 0.9922 0.04309 0.0
C101 C 0.71841 0.98866 0.36506 0.0
H102 H 0.69467 0.01114 0.97013 0.0
H103 H 0.72838 0.00701 0.02832 0.0
H104 H 0.70847 0.05966 0.13011 0.0
H105 H 0.67451 0.06367 0.07165 0.0
H106 H 0.76519 0.02339 0.06101 0.0
H107 H 0.7147 0.02885 0.20159 0.0
H108 H 0.78021 0.00369 0.23954 0.0
H109 H 0.74084 0.97912 0.29432 0.0
H110 H 0.73023 0.04618 0.29883 0.0
H111 H 0.70388 0.03974 0.38417 0.0
H112 H 0.78411 0.98928 0.0535 0.0
H113 H 0.81852 0.02256 0.18683 0.0
H114 H 0.71497 0.97243 0.38214 0.0
H115 H 0.82065 0.98436 0.00197 0.0
H116 H 0.85568 0.01682 0.13641 0.0
C117 C 0.56455 0.6819 0.42035 0.0
C118 C 0.58405 0.66963 0.4268 0.0
C119 C 0.562 0.69446 0.36875 0.0
C120 C 0.57871 0.69487 0.32238 0.0
C121 C 0.59915 0.6844 0.33066 0.0
C122 C 0.60196 0.67215 0.3828 0.0
C123 C 0.57191 0.70054 0.26219 0.0
C124 C 0.56962 0.72171 0.24141 0.0
C125 C 0.56014 0.72608 0.18645 0.0
C126 C 0.55291 0.70915 0.15322 0.0
C127 C 0.55506 0.68806 0.1739 0.0
C128 C 0.56489 0.6839 0.22798 0.0
C129 C 0.546 0.67035 0.14061 0.0
C130 C 0.52396 0.67097 0.1185 0.0
C131 C 0.55901 0.65244 0.13232 0.0
C132 C 0.55018 0.63548 0.10237 0.0
C133 C 0.52804 0.63597 0.08054 0.0
C134 C 0.55728 0.74809 0.16263 0.0
C135 C 0.53635 0.7535 0.13904 0.0
C136 C 0.57592 0.76297 0.15696 0.0
C137 C 0.57405 0.78236 0.12474 0.0
C138 C 0.55351 0.78713 0.09784 0.0
C139 C 0.53448 0.77278 0.10707 0.0
C140 C 0.51504 0.65393 0.08894 0.0
H141 H 0.55022 0.68039 0.45252 0.0
H142 H 0.54591 0.70211 0.36272 0.0
H143 H 0.61216 0.68437 0.29503 0.0
H144 H 0.61752 0.66352 0.38673 0.0
H145 H 0.5746 0.73459 0.26833 0.0
H146 H 0.56597 0.66761 0.24517 0.0
H147 H 0.54571 0.71239 0.11073 0.0
H148 H 0.51343 0.68447 0.12512 0.0
H149 H 0.57614 0.65166 0.14847 0.0
H150 H 0.56088 0.62212 0.09558 0.0
H151 H 0.5216 0.74244 0.14362 0.0
H152 H 0.59226 0.75912 0.17455 0.0
H153 H 0.49783 0.65473 0.0734 0.0
H154 H 0.51825 0.77623 0.08823 0.0
H155 H 0.58901 0.79312 0.11839 0.0
C156 C 0.17726 0.62282 0.34943 0.0
C157 C 0.15524 0.61353 0.34397 0.0
C158 C 0.1949 0.61988 0.30711 0.0
C159 C 0.19094 0.60721 0.25925 0.0
C160 C 0.16836 0.59946 0.25171 0.0
C161 C 0.15073 0.60277 0.29322 0.0
C162 C 0.21036 0.59951 0.22218 0.0
C163 C 0.23103 0.59431 0.24757 0.0
C164 C 0.24761 0.58301 0.21687 0.0
C165 C 0.2431 0.57633 0.16037 0.0
C166 C 0.22282 0.58199 0.13373 0.0
C167 C 0.20706 0.59419 0.16404 0.0
C168 C 0.2158 0.57292 0.0784 0.0
C169 C 0.20708 0.58618 0.03397 0.0
C170 C 0.21293 0.5508 0.0757 0.0
C171 C 0.19946 0.54219 0.03285 0.0
C172 C 0.18874 0.55561 0.99213 0.0
C173 C 0.26874 0.57712 0.24659 0.0
C174 C 0.28079 0.59226 0.27755 0.0
C175 C 0.27597 0.55613 0.24825 0.0
C176 C 0.29439 0.55028 0.28203 0.0
C177 C 0.30603 0.56534 0.31436 0.0
C178 C 0.29922 0.58646 0.31095 0.0
C179 C 0.19375 0.57761 0.99112 0.0
H180 H 0.18114 0.63132 0.38808 0.0
H181 H 0.21189 0.6266 0.31365 0.0
H182 H 0.16445 0.58932 0.21639 0.0
H183 H 0.13404 0.59512 0.28818 0.0
H184 H 0.23369 0.59773 0.29294 0.0
H185 H 0.19132 0.59823 0.14354 0.0
H186 H 0.25522 0.56676 0.13729 0.0
H187 H 0.20917 0.60329 0.03504 0.0
H188 H 0.21929 0.54025 0.10984 0.0
H189 H 0.19592 0.52518 0.03481 0.0
H190 H 0.27567 0.60858 0.27681 0.0
H191 H 0.26688 0.54409 0.2252 0.0
H192 H 0.18615 0.58832 0.95943 0.0
H193 H 0.30766 0.59842 0.33567 0.0
H194 H 0.29938 0.53393 0.28325 0.0
C195 C 0.03403 0.17515 0.3828 0.0
C196 C 0.04251 0.15465 0.38744 0.0
C197 C 0.04687 0.19168 0.35156 0.0
C198 C 0.06852 0.18804 0.32494 0.0
C199 C 0.07715 0.1676 0.33102 0.0
C200 C 0.06425 0.15109 0.3616 0.0
C201 C 0.0817 0.20514 0.28869 0.0
C202 C 0.08231 0.22622 0.30529 0.0
C203 C 0.09412 0.24243 0.26944 0.0
C204 C 0.10557 0.23739 0.21645 0.0
C205 C 0.10508 0.21633 0.19978 0.0
C206 C 0.09322 0.20042 0.23588 0.0
C207 C 0.11481 0.21032 0.1425 0.0
C208 C 0.10127 0.21194 0.09339 0.0
C209 C 0.1339 0.19754 0.14098 0.0
C210 C 0.13807 0.18493 0.09334 0.0
C211 C 0.12286 0.18454 0.04716 0.0
C212 C 0.0937 0.2646 0.28741 0.0
C213 C 0.07274 0.27301 0.30526 0.0
C214 C 0.11409 0.27702 0.29008 0.0
C215 C 0.11357 0.29727 0.31227 0.0
C216 C 0.0926 0.3055 0.33119 0.0
C217 C 0.07219 0.29325 0.3267 0.0
C218 C 0.10522 0.19914 0.04609 0.0
H219 H 0.01731 0.17829 0.40237 0.0
H220 H 0.03959 0.20717 0.3471 0.0
H221 H 0.09396 0.16433 0.31221 0.0
H222 H 0.07144 0.13555 0.36573 0.0
H223 H 0.07377 0.23004 0.3465 0.0
H224 H 0.09225 0.18435 0.22128 0.0
H225 H 0.11429 0.24979 0.18779 0.0
H226 H 0.0862 0.22143 0.09432 0.0
H227 H 0.1444 0.19592 0.17887 0.0
H228 H 0.15217 0.1743 0.09493 0.0
H229 H 0.05676 0.26379 0.30329 0.0
H230 H 0.13047 0.27082 0.27678 0.0
H231 H 0.09302 0.19927 0.01171 0.0
H232 H 0.05579 0.29904 0.34149 0.0
H233 H 0.12954 0.30644 0.31492 0.0
C234 C 0.33896 0.95885 0.38963 0.0
C235 C 0.3591 0.97163 0.37683 0.0
C236 C 0.31997 0.96101 0.35456 0.0
C237 C 0.32086 0.97595 0.30613 0.0
C238 C 0.34099 0.98871 0.29386 0.0
C239 C 0.35988 0.98638 0.32811 0.0
C240 C 0.30121 0.97852 0.26752 0.0
C241 C 0.2785 0.97841 0.29075 0.0
C242 C 0.26038 0.98324 0.25418 0.0
C243 C 0.26524 0.98841 0.1934 0.0
C244 C 0.28797 0.98795 0.16977 0.0
C245 C 0.30552 0.98262 0.20682 0.0
C246 C 0.29497 0.99349 0.10725 0.0
C247 C 0.29727 0.97713 0.0684 0.0
C248 C 0.30677 0.01308 0.09299 0.0
C249 C 0.32234 0.01558 0.04402 0.0
C250 C 0.3265 0.99846 0.0084 0.0
C251 C 0.23675 0.98347 0.28152 0.0
C252 C 0.22772 0.9657 0.31633 0.0
C253 C 0.22426 0.00204 0.27905 0.0
C254 C 0.20361 0.00308 0.31292 0.0
C255 C 0.1949 0.98546 0.34909 0.0
C256 C 0.20697 0.96663 0.34934 0.0
C257 C 0.31277 0.97963 0.01924 0.0
H258 H 0.33776 0.94742 0.42709 0.0
H259 H 0.30474 0.95087 0.36498 0.0
H260 H 0.34219 0.0007 0.25774 0.0
H261 H 0.37521 0.99621 0.31603 0.0
H262 H 0.27497 0.97546 0.3378 0.0
H263 H 0.32291 0.98209 0.18794 0.0
H264 H 0.25155 0.99258 0.16495 0.0
H265 H 0.28875 0.96173 0.07912 0.0
H266 H 0.30574 0.02574 0.12316 0.0
H267 H 0.33259 0.03027 0.03749 0.0
H268 H 0.23708 0.95123 0.31922 0.0
H269 H 0.23098 0.01602 0.25305 0.0
H270 H 0.31513 0.96626 0.99205 0.0
H271 H 0.20087 0.95283 0.37701 0.0
H272 H 0.19462 0.01777 0.31145 0.0
C273 C 0.43606 0.32799 0.03788 0.0
C274 C 0.45334 0.33196 0.99273 0.0
C275 C 0.44031 0.31555 0.08875 0.0
C276 C 0.46168 0.30651 0.09477 0.0
C277 C 0.47811 0.30869 0.04765 0.0
C278 C 0.47402 0.3213 0.99713 0.0
C279 C 0.4691 0.30014 0.15387 0.0
C280 C 0.46949 0.27877 0.17463 0.0
C281 C 0.47816 0.27362 0.23015 0.0
C282 C 0.48596 0.28997 0.26466 0.0
C283 C 0.48575 0.31122 0.24379 0.0
C284 C 0.47734 0.31619 0.18844 0.0
C285 C 0.49422 0.32833 0.27973 0.0
C286 C 0.48455 0.3304 0.33667 0.0
C287 C 0.51131 0.34317 0.25637 0.0
C288 C 0.51836 0.3601 0.28919 0.0
C289 C 0.50805 0.36261 0.3452 0.0
C290 C 0.47999 0.25133 0.2526 0.0
C291 C 0.46065 0.23727 0.25863 0.0
C292 C 0.50094 0.24467 0.27332 0.0
C293 C 0.50241 0.22465 0.30158 0.0
C294 C 0.48292 0.21082 0.3101 0.0
C295 C 0.46206 0.21719 0.28757 0.0
C296 C 0.49125 0.34756 0.36895 0.0
H297 H 0.41976 0.33552 0.03559 0.0
H298 H 0.42754 0.31426 0.12511 0.0
H299 H 0.49489 0.30219 0.05207 0.0
H300 H 0.48791 0.32407 0.96398 0.0
H301 H 0.46364 0.26631 0.14734 0.0
H302 H 0.4772 0.33267 0.17207 0.0
H303 H 0.4925 0.28614 0.30764 0.0
H304 H 0.47129 0.31915 0.35534 0.0
H305 H 0.51903 0.34176 0.21254 0.0
H306 H 0.53125 0.37164 0.27005 0.0
H307 H 0.44428 0.24213 0.24321 0.0
H308 H 0.51611 0.25523 0.26899 0.0
H309 H 0.48312 0.34926 0.41217 0.0
H310 H 0.4468 0.20679 0.29306 0.0
H311 H 0.51867 0.22035 0.31891 0.0
C312 C 0.0337 0.96142 0.78584 0.0
N313 N 0.99411 0.96074 0.63825 0.0
C314 C 0.00539 0.94252 0.63188 0.0
C315 C 0.99487 0.92524 0.60711 0.0
C316 C 0.97268 0.92673 0.58614 0.0
C317 C 0.96168 0.94607 0.59145 0.0
C318 C 0.97266 0.96287 0.61834 0.0
Zn319 Zn 0.01041 0.98352 0.68386 0.0
C320 C 0.98098 0.99665 0.78653 0.0
N321 N 0.0465 0.02728 0.78602 0.0
C322 C 0.06875 0.02505 0.79976 0.0
C323 C 0.03547 0.04534 0.79693 0.0
C324 C 0.04705 0.06233 0.82072 0.0
C325 C 0.07019 0.06074 0.83383 0.0
C326 C 0.08096 0.04165 0.82416 0.0
Zn327 Zn 0.02967 0.00477 0.74102 0.0
O328 O 0.02161 0.95932 0.74152 0.0
C329 C 0.05903 0.99151 0.63807 0.0
O330 O 0.04051 0.97987 0.79877 0.0
H331 H 0.01779 0.0468 0.78574 0.0
H332 H 0.02251 0.9411 0.64737 0.0
H333 H 0.07723 0.01061 0.79031 0.0
O334 O 0.04042 0.98153 0.62797 0.0
O335 O 0.05969 0.00254 0.6832 0.0
H336 H 0.96397 0.97749 0.62387 0.0
O337 O 0.01829 0.02919 0.68367 0.0
O338 O 0.99957 0.00834 0.62658 0.0
O339 O 0.99953 0.00669 0.79712 0.0
O340 O 0.98045 0.98572 0.74115 0.0
C341 C 0.00614 0.02688 0.63943 0.0
H342 H 0.00406 0.91072 0.60594 0.0
H343 H 0.94477 0.9483 0.57519 0.0
H344 H 0.03798 0.07663 0.82854 0.0
H345 H 0.09881 0.03982 0.83358 0.0
C346 C 0.49452 0.98126 0.62044 0.0
N347 N 0.51266 0.04465 0.6438 0.0
C348 C 0.51784 0.04514 0.58475 0.0
C349 C 0.51471 0.06334 0.54918 0.0
C350 C 0.5061 0.08139 0.57426 0.0
C351 C 0.50079 0.08053 0.63537 0.0
C352 C 0.50428 0.06188 0.6696 0.0
Zn353 Zn 0.51687 0.01627 0.68946 0.0
C354 C 0.47733 0.00247 0.77121 0.0
N355 N 0.52508 0.95443 0.76827 0.0
C356 C 0.53247 0.93722 0.74056 0.0
C357 C 0.52161 0.95383 0.82796 0.0
C358 C 0.52598 0.93562 0.86233 0.0
C359 C 0.53399 0.91772 0.83525 0.0
C360 C 0.53697 0.91855 0.7734 0.0
Zn361 Zn 0.5205 0.98284 0.72339 0.0
O362 O 0.49925 0.00095 0.62397 0.0
C363 C 0.56011 0.99659 0.64192 0.0
O364 O 0.50146 0.96802 0.65908 0.0
H365 H 0.51574 0.96766 0.84925 0.0
H366 H 0.52417 0.03122 0.56477 0.0
H367 H 0.53522 0.93808 0.6931 0.0
O368 O 0.54898 0.01349 0.64216 0.0
O369 O 0.55193 0.98008 0.67159 0.0
H370 H 0.50016 0.06112 0.71657 0.0
O371 O 0.53925 0.99821 0.78735 0.0
O372 O 0.53472 0.03116 0.75528 0.0
O373 O 0.48919 0.986 0.77358 0.0
O374 O 0.48474 0.01857 0.73849 0.0
C375 C 0.54292 0.01801 0.79214 0.0
H376 H 0.51862 0.06311 0.50218 0.0
H377 H 0.49421 0.09416 0.6565 0.0
H378 H 0.52304 0.93557 0.90973 0.0
H379 H 0.54322 0.90511 0.75079 0.0
C380 C 0.52533 0.47997 0.61102 0.0
N381 N 0.46855 0.51591 0.65 0.0
C382 C 0.47257 0.52382 0.59337 0.0
C383 C 0.4545 0.53001 0.55946 0.0
C384 C 0.4319 0.52799 0.58362 0.0
C385 C 0.42811 0.51971 0.64216 0.0
C386 C 0.44683 0.5138 0.67487 0.0
Zn387 Zn 0.49676 0.50653 0.6935 0.0
C388 C 0.49082 0.4646 0.75528 0.0
N389 N 0.55872 0.487 0.76835 0.0
C390 C 0.58028 0.48848 0.74239 0.0
C391 C 0.55502 0.48006 0.8259 0.0
C392 C 0.57332 0.4747 0.86005 0.0
C393 C 0.5958 0.47641 0.83498 0.0
C394 C 0.59918 0.48314 0.77505 0.0
Zn395 Zn 0.53049 0.49633 0.725 0.0
O396 O 0.507 0.48985 0.6192 0.0
C397 C 0.53666 0.53818 0.6632 0.0
O398 O 0.54019 0.47991 0.65007 0.0
H399 H 0.53778 0.47893 0.84581 0.0
H400 H 0.48989 0.52512 0.57398 0.0
H401 H 0.58285 0.4941 0.69665 0.0
O402 O 0.51525 0.53451 0.65904 0.0
O403 O 0.54854 0.52432 0.68875 0.0
H404 H 0.444 0.50741 0.71988 0.0
O405 O 0.52006 0.51298 0.79991 0.0
O406 O 0.48709 0.523 0.76762 0.0
O407 O 0.51222 0.46842 0.7591 0.0
O408 O 0.47871 0.47842 0.73022 0.0
C409 C 0.50168 0.52288 0.80727 0.0
H410 H 0.4582 0.53592 0.51423 0.0
H411 H 0.41093 0.51798 0.66254 0.0
H412 H 0.56987 0.46922 0.90573 0.0
H413 H 0.61627 0.48477 0.75408 0.0
C414 C 0.04577 0.53338 0.61622 0.0
N415 N 0.04805 0.46697 0.62187 0.0
C416 C 0.04943 0.47002 0.5621 0.0
C417 C 0.05789 0.4544 0.52709 0.0
C418 C 0.06479 0.43523 0.55358 0.0
C419 C 0.06409 0.43281 0.61552 0.0
C420 C 0.0556 0.44899 0.64903 0.0
Zn421 Zn 0.03163 0.48937 0.66784 0.0
C422 C 0.05595 0.5054 0.76487 0.0
N423 N 0.99472 0.53779 0.74952 0.0
C424 C 0.989 0.55621 0.72089 0.0
C425 C 0.99074 0.53445 0.80887 0.0
C426 C 0.981 0.55008 0.84192 0.0
C427 C 0.9758 0.56949 0.8138 0.0
C428 C 0.97969 0.57245 0.75248 0.0
Zn429 Zn 0.01153 0.51533 0.70456 0.0
O430 O 0.0493 0.51372 0.61362 0.0
C431 C 0.98692 0.49905 0.60839 0.0
O432 O 0.03003 0.53933 0.65121 0.0
H433 H 0.9957 0.51986 0.83099 0.0
H434 H 0.04323 0.48435 0.54124 0.0
H435 H 0.9922 0.55853 0.67369 0.0
O436 O 0.00414 0.48732 0.60957 0.0
O437 O 0.98552 0.514 0.64333 0.0
H438 H 0.05429 0.44686 0.69662 0.0
O439 O 0.99299 0.49079 0.75615 0.0
O440 O 0.01416 0.46547 0.72355 0.0
O441 O 0.03812 0.51639 0.76579 0.0
O442 O 0.05825 0.49158 0.7267 0.0
C443 C 0.99753 0.47127 0.75594 0.0
H444 H 0.05851 0.45715 0.4796 0.0
H445 H 0.06907 0.41823 0.63783 0.0
H446 H 0.97847 0.54737 0.8893 0.0
H447 H 0.97582 0.58726 0.72941 0.0
H448 H 0.1586 0.95649 0.36831 0.0
H449 H 0.09895 0.01639 0.63272 0.0
H450 H 0.18371 0.01737 0.42118 0.0
H451 H 0.06549 0.96496 0.548 0.0
H452 H 0.13161 0.01549 0.56102 0.0
H453 H 0.12566 0.95795 0.43863 0.0
C454 C 0.15715 0.9702 0.39463 0.0
C455 C 0.17395 0.98684 0.38873 0.0
C456 C 0.11711 0.00442 0.55815 0.0
C457 C 0.13631 0.98856 0.46987 0.0
C458 C 0.0985 0.00485 0.59927 0.0
C459 C 0.0794 0.99073 0.59648 0.0
C460 C 0.11678 0.98961 0.51423 0.0
C461 C 0.07978 0.97618 0.55189 0.0
C462 C 0.1383 0.97105 0.43467 0.0
C463 C 0.17106 0.00429 0.42377 0.0
N464 N 0.09816 0.97595 0.51277 0.0
N465 N 0.15273 0.00462 0.46309 0.0
H466 H 0.45241 0.19304 0.39647 0.0
H467 H 0.53461 0.09897 0.48416 0.0
H468 H 0.51698 0.18233 0.30462 0.0
H469 H 0.46976 0.10787 0.57699 0.0
H470 H 0.52784 0.12933 0.41739 0.0
H471 H 0.4574 0.16131 0.46093 0.0
C472 C 0.46747 0.18385 0.38931 0.0
C473 C 0.48437 0.19041 0.34527 0.0
C474 C 0.51505 0.1247 0.45231 0.0
C475 C 0.49037 0.15434 0.41945 0.0
C476 C 0.51889 0.1073 0.49043 0.0
C477 C 0.50266 0.10076 0.53608 0.0
C478 C 0.49482 0.13577 0.45967 0.0
C479 C 0.48282 0.11245 0.5427 0.0
C480 C 0.4704 0.16586 0.42646 0.0
C481 C 0.50368 0.17805 0.33852 0.0
N482 N 0.47941 0.12937 0.50477 0.0
N483 N 0.50618 0.1607 0.37532 0.0
H484 H 0.30759 0.52961 0.38852 0.0
H485 H 0.42977 0.56327 0.50895 0.0
H486 H 0.34686 0.58689 0.32942 0.0
H487 H 0.39017 0.50692 0.57438 0.0
H488 H 0.39933 0.57206 0.44319 0.0
H489 H 0.33768 0.52058 0.4558 0.0
C490 C 0.32263 0.54019 0.38927 0.0
C491 C 0.32468 0.55906 0.35324 0.0
C492 C 0.39721 0.5578 0.47199 0.0
C493 C 0.35904 0.54896 0.43078 0.0
C494 C 0.41464 0.55273 0.50948 0.0
C495 C 0.4126 0.53425 0.54699 0.0
C496 C 0.37753 0.54427 0.47166 0.0
C497 C 0.3924 0.5214 0.54649 0.0
C498 C 0.33971 0.53511 0.42807 0.0
C499 C 0.3444 0.57232 0.35683 0.0
N500 N 0.3757 0.52659 0.50915 0.0
N501 N 0.36077 0.56702 0.39485 0.0
H502 H 0.12023 0.32141 0.414 0.0
H503 H 0.04454 0.423 0.45437 0.0
H504 H 0.06282 0.33699 0.30955 0.0
H505 H 0.0989 0.40665 0.56863 0.0
H506 H 0.0538 0.39332 0.39525 0.0
H507 H 0.11561 0.35433 0.46492 0.0
C508 C 0.10688 0.33191 0.4012 0.0
C509 C 0.09176 0.3264 0.35782 0.0
C510 C 0.06383 0.39624 0.43303 0.0
C511 C 0.08623 0.36386 0.41619 0.0
C512 C 0.05865 0.41333 0.46669 0.0
C513 C 0.07103 0.41744 0.51655 0.0
C514 C 0.08146 0.38296 0.44924 0.0
C515 C 0.08877 0.40397 0.53092 0.0
C516 C 0.10415 0.3506 0.43056 0.0
C517 C 0.07463 0.34047 0.34335 0.0
N518 N 0.09343 0.38729 0.49749 0.0
N519 N 0.07227 0.35846 0.37263 0.0
H520 H 0.87761 0.02988 0.04997 0.0
H521 H 0.94151 0.97139 0.7901 0.0
H522 H 0.85569 0.968 0.99648 0.0
H523 H 0.97373 0.0228 0.87761 0.0
H524 H 0.90849 0.97161 0.86056 0.0
H525 H 0.91194 0.0288 0.98435 0.0
C526 C 0.88007 0.01592 0.0252 0.0
C527 C 0.86346 0.99905 0.02888 0.0
C528 C 0.92279 0.98283 0.86441 0.0
C529 C 0.90265 0.99804 0.95212 0.0
C530 C 0.94162 0.98279 0.82395 0.0
C531 C 0.96047 0.9971 0.82781 0.0
C532 C 0.9226 0.99745 0.90883 0.0
C533 C 0.95962 0.01145 0.87293 0.0
C534 C 0.89965 0.01542 0.98727 0.0
C535 C 0.86763 0.98161 0.99448 0.0
N536 N 0.94099 0.01132 0.91145 0.0
N537 N 0.88664 0.98165 0.95737 0.0
H538 H 0.53413 0.78972 0.99101 0.0
H539 H 0.55588 0.91541 0.93918 0.0
H540 H 0.57 0.82796 0.11159 0.0
H541 H 0.52376 0.87605 0.81473 0.0
H542 H 0.56204 0.88365 0.00191 0.0
H543 H 0.53089 0.82118 0.9253 0.0
C544 C 0.54122 0.8048 0.00385 0.0
C545 C 0.55211 0.80626 0.05729 0.0
C546 C 0.55374 0.88194 0.96078 0.0
C547 C 0.5487 0.84241 0.98164 0.0
C548 C 0.5501 0.90007 0.92506 0.0
C549 C 0.53911 0.8984 0.87179 0.0
C550 C 0.54624 0.86194 0.94334 0.0
C551 C 0.53241 0.87808 0.85521 0.0
C552 C 0.53951 0.82274 0.96604 0.0
C553 C 0.56149 0.82612 0.07083 0.0
N554 N 0.53595 0.86068 0.89103 0.0
N555 N 0.55944 0.84345 0.03341 0.0
H556 H 0.68825 0.46293 0.12118 0.0
H557 H 0.63369 0.45399 0.80594 0.0
H558 H 0.71482 0.42396 0.98582 0.0
H559 H 0.60259 0.48723 0.94793 0.0
H560 H 0.66491 0.4446 0.86927 0.0
H561 H 0.65778 0.47356 0.05668 0.0
C562 C 0.68767 0.45661 0.07794 0.0
C563 C 0.70402 0.44241 0.05909 0.0
C564 C 0.65126 0.45397 0.88656 0.0
C565 C 0.66927 0.45453 0.98498 0.0
C566 C 0.63352 0.45945 0.85027 0.0
C567 C 0.61543 0.47131 0.87176 0.0
C568 C 0.651 0.4605 0.94469 0.0
C569 C 0.616 0.47778 0.92982 0.0
C570 C 0.67025 0.46263 0.0412 0.0
C571 C 0.70236 0.43464 0.00267 0.0
N572 N 0.63346 0.47229 0.96422 0.0
N573 N 0.68536 0.44083 0.96764 0.0
H574 H 0.90159 0.65651 0.029 0.0
H575 H 0.99492 0.60945 0.81387 0.0
H576 H 0.97316 0.67656 0.02544 0.0
H577 H 0.93926 0.56919 0.89417 0.0
H578 H 0.98348 0.63782 0.87706 0.0
H579 H 0.91167 0.62722 0.96661 0.0
C580 C 0.91939 0.65462 0.01532 0.0
C581 C 0.93664 0.66874 0.03258 0.0
C582 C 0.97374 0.62279 0.88063 0.0
C583 C 0.94808 0.63598 0.96057 0.0
C584 C 0.98013 0.60672 0.84439 0.0
C585 C 0.96796 0.58706 0.84898 0.0
C586 C 0.95479 0.6193 0.92088 0.0
C587 C 0.94906 0.58417 0.88962 0.0
C588 C 0.92511 0.63799 0.97996 0.0
C589 C 0.95944 0.66581 0.01358 0.0
N590 N 0.94292 0.60021 0.9239 0.0
N591 N 0.96449 0.64988 0.97805 0.0
H592 H 0.02062 0.1549 0.49647 0.0
H593 H 0.9987 0.02884 0.52119 0.0
H594 H 0.03443 0.11424 0.3538 0.0
H595 H 0.00486 0.06782 0.67 0.0
H596 H 1.00043 0.06115 0.45556 0.0
H597 H 0.00361 0.12417 0.55595 0.0
C598 C 0.01966 0.13958 0.47731 0.0
C599 C 0.02925 0.13698 0.4206 0.0
C600 C 1.00094 0.06259 0.50271 0.0
C601 C 0.00999 0.10186 0.48821 0.0
C602 C 0.9998 0.0442 0.54012 0.0
C603 C 1.00201 0.04573 0.60086 0.0
C604 C 0.00408 0.08252 0.52651 0.0
C605 C 0.00347 0.06598 0.62323 0.0
C606 C 0.01006 0.12205 0.51129 0.0
C607 C 0.02762 0.11679 0.39787 0.0
N608 N 0.00472 0.08358 0.586 0.0
N609 N 0.0184 0.09994 0.43196 0.0
H610 H 0.37728 0.93594 0.43005 0.0
H611 H 0.488 0.00239 0.51637 0.0
H612 H 0.38699 0.00421 0.40897 0.0
H613 H 0.46477 0.94613 0.62272 0.0
H614 H 0.45579 0.9973 0.45395 0.0
H615 H 0.41273 0.93471 0.48465 0.0
C616 C 0.38672 0.95062 0.43703 0.0
C617 C 0.37933 0.97019 0.41388 0.0
C618 C 0.45788 0.98589 0.49049 0.0
C619 C 0.4199 0.96872 0.47417 0.0
C620 C 0.47633 0.98869 0.52589 0.0
C621 C 0.47878 0.97486 0.57532 0.0
C622 C 0.44166 0.96918 0.50456 0.0
C623 C 0.46335 0.9572 0.5851 0.0
C624 C 0.40696 0.94985 0.46769 0.0
C625 C 0.39231 0.98869 0.42415 0.0
N626 N 0.44509 0.955 0.55041 0.0
N627 N 0.41199 0.98746 0.45292 0.0
H628 H 0.5499 0.37674 0.3808 0.0
H629 H 0.49777 0.4791 0.51804 0.0
H630 H 0.47847 0.39168 0.38134 0.0
H631 H 0.55727 0.45012 0.58803 0.0
H632 H 0.49619 0.45236 0.44518 0.0
H633 H 0.55769 0.40828 0.43729 0.0
C634 C 0.53596 0.38678 0.39254 0.0
C635 C 0.5135 0.38167 0.37723 0.0
C636 C 0.50976 0.45201 0.47603 0.0
C637 C 0.52226 0.41758 0.43987 0.0
C638 C 0.51076 0.46732 0.51754 0.0
C639 C 0.52744 0.4666 0.55996 0.0
C640 C 0.52558 0.43589 0.47663 0.0
C641 C 0.544 0.45112 0.55647 0.0
C642 C 0.54038 0.40464 0.4246 0.0
C643 C 0.49595 0.39504 0.39306 0.0
N644 N 0.5425 0.43614 0.51586 0.0
N645 N 0.50071 0.41241 0.42343 0.0
H646 H 0.10865 0.61892 0.34684 0.0
H647 H 0.09096 0.52949 0.59019 0.0
H648 H 0.16372 0.60075 0.45646 0.0
H649 H 0.03629 0.5728 0.56794 0.0
H650 H 0.11741 0.55509 0.5352 0.0
H651 H 0.08084 0.60333 0.42336 0.0
C652 C 0.11483 0.61228 0.38778 0.0
C653 C 0.1385 0.61089 0.39513 0.0
C654 C 0.09968 0.5591 0.54277 0.0
C655 C 0.10703 0.5927 0.48137 0.0
C656 C 0.08454 0.54442 0.57346 0.0
C657 C 0.06143 0.54903 0.58292 0.0
C658 C 0.09156 0.57833 0.51991 0.0
C659 C 0.05403 0.56871 0.56116 0.0
C660 C 0.099 0.60341 0.43125 0.0
C661 C 0.14565 0.60218 0.44894 0.0
N662 N 0.06901 0.58258 0.5295 0.0
N663 N 0.13 0.5929 0.48938 0.0
H664 H 0.00456 0.83451 0.91571 0.0
H665 H 0.03613 0.95884 0.90606 0.0
H666 H 0.99258 0.87377 0.0626 0.0
H667 H 0.03703 0.92088 0.75416 0.0
H668 H 0.02999 0.92625 0.96992 0.0
H669 H 0.02571 0.86437 0.86239 0.0
C670 C 0.00666 0.84932 0.93711 0.0
C671 C 0.99646 0.85175 0.9933 0.0
C672 C 0.03207 0.92505 0.92266 0.0
C673 C 0.02047 0.88609 0.93228 0.0
C674 C 0.0358 0.94361 0.88633 0.0
C675 C 0.03676 0.94247 0.82491 0.0
C676 C 0.02941 0.90537 0.89707 0.0
C677 C 0.03606 0.9224 0.80141 0.0
C678 C 0.01868 0.8664 0.90656 0.0
C679 C 0.99968 0.87136 0.01873 0.0
N680 N 0.03211 0.90466 0.83747 0.0
N681 N 0.0112 0.88785 0.9878 0.0
H682 H 0.65259 0.0035 0.01594 0.0
H683 H 0.56802 0.05584 0.79356 0.0
H684 H 0.65996 0.0699 0.95975 0.0
H685 H 0.5543 0.99562 0.89089 0.0
H686 H 0.60018 0.06302 0.85647 0.0
H687 H 0.61563 0.00136 0.97124 0.0
C688 C 0.64636 0.01764 0.99384 0.0
C689 C 0.65939 0.03681 0.99056 0.0
C690 C 0.58981 0.04844 0.86465 0.0
C691 C 0.61696 0.03459 0.93935 0.0
C692 C 0.57141 0.04439 0.82901 0.0
C693 C 0.55876 0.02495 0.8365 0.0
C694 C 0.59547 0.03288 0.90755 0.0
C695 C 0.56387 0.01065 0.88292 0.0
C696 C 0.62516 0.01649 0.96877 0.0
C697 C 0.65038 0.0548 0.96265 0.0
N698 N 0.58198 0.01478 0.91609 0.0
N699 N 0.62975 0.05321 0.93727 0.0
H700 H 0.50206 0.6376 0.98298 0.0
H701 H 0.52278 0.51894 0.9113 0.0
H702 H 0.53303 0.5933 0.10372 0.0
H703 H 0.47535 0.55749 0.81794 0.0
H704 H 0.52447 0.54506 0.98622 0.0
H705 H 0.48992 0.60804 0.9255 0.0
C706 C 0.50602 0.62165 0.998 0.0
C707 C 0.51887 0.618 0.04795 0.0
C708 C 0.51336 0.54766 0.94996 0.0
C709 C 0.50533 0.58411 0.98163 0.0
C710 C 0.51239 0.53275 0.90719 0.0
C711 C 0.49909 0.53621 0.85811 0.0
C712 C 0.5013 0.56637 0.94297 0.0
C713 C 0.48586 0.55427 0.85507 0.0
C714 C 0.49912 0.60476 0.965 0.0
C715 C 0.52369 0.59696 0.06472 0.0
N716 N 0.48763 0.56891 0.8964 0.0
N717 N 0.51716 0.58085 0.03125 0.0
H718 H 0.92248 0.40231 0.03492 0.0
H719 H 0.95175 0.46851 0.74843 0.0
H720 H 0.87882 0.39773 0.88773 0.0
H721 H 0.00733 0.43836 0.83351 0.0
H722 H 0.92444 0.44346 0.80312 0.0
H723 H 0.9544 0.41456 0.96633 0.0
C724 C 0.91971 0.4032 0.98813 0.0
C725 C 0.89769 0.3995 0.96725 0.0
C726 C 0.94262 0.44211 0.80931 0.0
C727 C 0.93399 0.41411 0.88922 0.0
C728 C 0.95812 0.4565 0.77868 0.0
C729 C 0.98163 0.45547 0.78724 0.0
C730 C 0.95065 0.42703 0.85015 0.0
C731 C 0.98922 0.43957 0.82622 0.0
C732 C 0.93796 0.41031 0.94909 0.0
C733 C 0.89525 0.40111 0.90605 0.0
N734 N 0.97366 0.42615 0.8575 0.0
N735 N 0.91301 0.40886 0.86932 0.0
H736 H 0.13224 0.1429 0.07281 0.0
H737 H 0.06987 0.10255 0.79538 0.0
H738 H 0.11217 0.18511 0.93 0.0
H739 H 0.09944 0.06065 0.9247 0.0
H740 H 0.08819 0.13293 0.83921 0.0
H741 H 0.12446 0.11283 0.01375 0.0
C742 C 0.12678 0.14599 0.02843 0.0
C743 C 0.12266 0.16673 0.00678 0.0
C744 C 0.0909 0.1171 0.85768 0.0
C745 C 0.11289 0.13197 0.93941 0.0
C746 C 0.0803 0.09976 0.83295 0.0
C747 C 0.08287 0.07907 0.857 0.0
C748 C 0.104 0.11378 0.90728 0.0
C749 C 0.09698 0.07633 0.90484 0.0
C750 C 0.12208 0.12867 0.99487 0.0
C751 C 0.11512 0.16944 0.94918 0.0
N752 N 0.10678 0.09351 0.92887 0.0
N753 N 0.11015 0.15225 0.91788 0.0
H754 H 0.34466 0.03203 0.93446 0.0
H755 H 0.4569 0.97 0.84187 0.0
H756 H 0.3561 0.96678 0.9881 0.0
H757 H 0.44617 0.03426 0.77718 0.0
H758 H 0.41965 0.96901 0.89493 0.0
H759 H 0.38105 0.03349 0.87524 0.0
C760 C 0.35466 0.01796 0.93351 0.0
C761 C 0.3471 0.99921 0.96637 0.0
C762 C 0.42535 0.98336 0.86918 0.0
C763 C 0.38889 0.00084 0.89876 0.0
C764 C 0.44674 0.98398 0.83886 0.0
C765 C 0.45481 0.00227 0.8049 0.0
C766 C 0.4117 0.00119 0.86598 0.0
C767 C 0.44071 0.01983 0.80285 0.0
C768 C 0.37544 0.01882 0.8996 0.0
C769 C 0.36083 0.98148 0.96289 0.0
N770 N 0.41986 0.01886 0.83301 0.0
N771 N 0.38099 0.98279 0.93015 0.0
H772 H 0.43225 0.36996 0.00233 0.0
H773 H 0.51066 0.42671 0.75197 0.0
H774 H 0.47068 0.33435 0.87728 0.0
H775 H 0.44848 0.45536 0.81136 0.0
H776 H 0.49616 0.3927 0.79844 0.0
H777 H 0.43649 0.40105 0.93363 0.0
C778 C 0.44105 0.36839 0.9599 0.0
C779 C 0.45148 0.34941 0.94632 0.0
C780 C 0.48549 0.40631 0.80064 0.0
C781 C 0.45699 0.38539 0.86828 0.0
C782 C 0.49382 0.42574 0.77451 0.0
C783 C 0.48079 0.44383 0.77839 0.0
C784 C 0.46422 0.40504 0.8324 0.0
C785 C 0.45902 0.44173 0.80756 0.0
C786 C 0.44357 0.38629 0.92081 0.0
C787 C 0.46294 0.34872 0.89069 0.0
N788 N 0.45156 0.42272 0.83463 0.0
N789 N 0.46581 0.36655 0.85433 0.0
H790 H 0.18706 0.5192 0.93006 0.0
H791 H 0.05642 0.53441 0.84938 0.0
H792 H 0.14716 0.57246 0.9764 0.0
H793 H 0.09843 0.48804 0.76916 0.0
H794 H 0.08878 0.54559 0.90544 0.0
H795 H 0.15428 0.50509 0.87805 0.0
C796 C 0.17149 0.52796 0.92904 0.0
C797 C 0.16997 0.54718 0.95696 0.0
C798 C 0.09095 0.5329 0.87579 0.0
C799 C 0.13245 0.53104 0.89857 0.0
C800 C 0.0724 0.52641 0.84392 0.0
C801 C 0.07472 0.51034 0.80414 0.0
C802 C 0.11209 0.52327 0.8681 0.0
C803 C 0.09589 0.50054 0.79922 0.0
C804 C 0.15283 0.51991 0.89941 0.0
C805 C 0.14935 0.55785 0.95444 0.0
N806 N 0.11383 0.50724 0.83062 0.0
N807 N 0.13146 0.54961 0.92601 0.0
H808 H 0.9424 0.80017 0.48359 0.0
H809 H 0.92616 0.91552 0.58466 0.0
H810 H 0.89869 0.84004 0.38109 0.0
H811 H 0.99297 0.89493 0.52655 0.0
H812 H 0.90864 0.88399 0.54346 0.0
H813 H 0.95321 0.83086 0.53877 0.0
C814 C 0.93475 0.81517 0.47311 0.0
C815 C 0.92008 0.8175 0.42611 0.0
C816 C 0.92714 0.88651 0.54063 0.0
C817 C 0.93167 0.85229 0.49116 0.0
C818 C 0.93723 0.90459 0.56342 0.0
C819 C 0.96129 0.90805 0.55999 0.0
C820 C 0.94121 0.87154 0.51599 0.0
C821 C 0.97452 0.89286 0.53257 0.0
C822 C 0.94084 0.83258 0.50498 0.0
C823 C 0.91005 0.83728 0.41664 0.0
N824 N 0.96433 0.87521 0.51234 0.0
N825 N 0.91623 0.85401 0.44848 0.0
H826 H 0.67497 0.97168 0.40262 0.0
H827 H 0.58832 0.03092 0.60745 0.0
H828 H 0.69384 0.03014 0.48162 0.0
H829 H 0.58352 0.9627 0.60138 0.0
H830 H 0.62541 0.03148 0.55278 0.0
H831 H 0.64049 0.96806 0.46861 0.0
C832 C 0.67221 0.98359 0.43436 0.0
C833 C 0.68746 0.00142 0.43566 0.0
C834 C 0.61632 0.01636 0.56361 0.0
C835 C 0.64741 0.99758 0.51016 0.0
C836 C 0.59505 0.01602 0.59451 0.0
C837 C 0.58273 0.99672 0.60894 0.0
C838 C 0.62528 0.99731 0.54571 0.0
C839 C 0.59245 0.97792 0.59126 0.0
C840 C 0.65235 0.98154 0.47176 0.0
C841 C 0.68245 0.01641 0.47746 0.0
N842 N 0.61305 0.9787 0.55996 0.0
N843 N 0.66278 0.01431 0.51226 0.0
H844 H 0.60295 0.63043 0.4206 0.0
H845 H 0.51674 0.57627 0.65676 0.0
H846 H 0.56411 0.66799 0.54004 0.0
H847 H 0.58036 0.54663 0.61504 0.0
H848 H 0.53303 0.60981 0.61073 0.0
H849 H 0.59557 0.59957 0.48876 0.0
C850 C 0.5934 0.63249 0.46169 0.0
C851 C 0.58383 0.65203 0.47367 0.0
C852 C 0.54355 0.59605 0.61234 0.0
C853 C 0.57462 0.61622 0.55091 0.0
C854 C 0.53421 0.57689 0.63812 0.0
C855 C 0.5472 0.55868 0.63919 0.0
C856 C 0.56581 0.59689 0.58594 0.0
C857 C 0.56982 0.56036 0.61496 0.0
C858 C 0.58905 0.61469 0.50045 0.0
C859 C 0.57124 0.65323 0.52763 0.0
N860 N 0.5783 0.57908 0.58818 0.0
N861 N 0.56655 0.63548 0.56354 0.0
H862 H 0.87376 0.4906 0.3742 0.0
H863 H 0.97682 0.46063 0.56582 0.0
H864 H 0.8743 0.43068 0.4758 0.0
H865 H 0.95241 0.52421 0.5702 0.0
H866 H 0.94282 0.44996 0.51463 0.0
H867 H 0.90497 0.50421 0.43185 0.0
C868 C 0.88006 0.48038 0.40911 0.0
C869 C 0.87148 0.45925 0.41927 0.0
C870 C 0.94496 0.46626 0.52665 0.0
C871 C 0.90772 0.47462 0.48355 0.0
C872 C 0.96446 0.47244 0.55529 0.0
C873 C 0.96747 0.49337 0.57219 0.0
C874 C 0.92853 0.48118 0.51353 0.0
C875 C 0.95071 0.50792 0.55791 0.0
C876 C 0.89799 0.48817 0.44161 0.0
C877 C 0.88073 0.4468 0.4648 0.0
N878 N 0.93195 0.50159 0.52886 0.0
N879 N 0.89858 0.45454 0.49443 0.0
loop_
_geom_bond_atom_site_label_1
_geom_bond_atom_site_label_2
_geom_bond_distance
_geom_bond_site_symmetry_2
_ccdc_geom_bond_type
C0 C1 1.386 . S
C0 C2 1.397 . S
C0 H24 0.931 . S
C1 C0 1.386 . S
C1 C5 1.397 1_556 S
C2 C0 1.397 . S
C2 C3 1.384 1_556 S
C2 H25 0.930 . S
C3 C2 1.384 1_554 S
C3 C4 1.377 . S
C3 C6 1.481 . S
C4 C3 1.377 . S
C4 C5 1.389 . S
C4 H26 0.929 . S
C5 C1 1.397 1_554 S
C5 C4 1.389 . S
C5 H27 0.931 . S
C6 C3 1.481 . S
C6 C7 1.387 . S
C6 C11 1.390 . S
C7 C6 1.387 . S
C7 C8 1.401 . S
C7 H28 0.930 . S
C8 C7 1.401 . S
C8 C9 1.376 . S
C8 C17 1.511 . S
C9 C8 1.376 . S
C9 C10 1.392 . S
C9 H30 0.931 . S
C10 C9 1.392 . S
C10 C11 1.361 . S
C10 C12 1.500 . S
C11 C6 1.390 . S
C11 C10 1.361 . S
C11 H29 0.931 . S
C12 C10 1.500 . S
C12 C13 1.371 . S
C12 C14 1.365 . S
C13 C12 1.371 . S
C13 C23 1.386 . S
C13 H31 0.931 . S
C14 C12 1.365 . S
C14 C15 1.409 . S
C14 H32 0.929 . S
C15 C14 1.409 . S
C15 C16 1.380 . S
C15 H33 0.930 . S
C16 C15 1.380 . S
C16 C23 1.357 . S
C17 C8 1.511 . S
C17 C18 1.341 . S
C17 C19 1.371 . S
C18 C17 1.341 . S
C18 C22 1.394 . S
C18 H34 0.930 . S
C19 C17 1.371 . S
C19 C20 1.392 . S
C19 H35 0.931 . S
C20 C19 1.392 . S
C20 C21 1.331 . S
C20 H38 0.932 . S
C21 C20 1.331 . S
C21 C22 1.336 . S
C22 C18 1.394 . S
C22 C21 1.336 . S
C22 H37 0.929 . S
C23 C13 1.386 . S
C23 C16 1.357 . S
C23 H36 0.928 . S
H24 C0 0.931 . S
H25 C2 0.930 . S
H26 C4 0.929 . S
H27 C5 0.931 . S
H28 C7 0.930 . S
H29 C11 0.931 . S
H30 C9 0.931 . S
H31 C13 0.931 . S
H32 C14 0.929 . S
H33 C15 0.930 . S
H34 C18 0.930 . S
H35 C19 0.931 . S
H36 C23 0.928 . S
H37 C22 0.929 . S
H38 C20 0.932 . S
C39 C40 1.386 . S
C39 C41 1.397 . S
C39 H63 0.931 . S
C40 C39 1.386 . S
C40 C44 1.397 . S
C41 C39 1.397 . S
C41 C42 1.384 . S
C41 H64 0.930 . S
C42 C41 1.384 . S
C42 C43 1.377 . S
C42 C45 1.481 . S
C43 C42 1.377 . S
C43 C44 1.389 . S
C43 H65 0.929 . S
C44 C40 1.397 . S
C44 C43 1.389 . S
C44 H66 0.931 . S
C45 C42 1.481 . S
C45 C46 1.387 . S
C45 C50 1.390 1_556 S
C46 C45 1.387 . S
C46 C47 1.401 . S
C46 H67 0.930 . S
C47 C46 1.401 . S
C47 C48 1.376 1_556 S
C47 C56 1.511 . S
C48 C47 1.376 1_554 S
C48 C49 1.392 . S
C48 H69 0.931 . S
C49 C48 1.392 . S
C49 C50 1.361 . S
C49 C51 1.500 . S
C50 C45 1.390 1_554 S
C50 C49 1.361 . S
C50 H68 0.931 . S
C51 C49 1.500 . S
C51 C52 1.371 . S
C51 C53 1.365 . S
C52 C51 1.371 . S
C52 C62 1.386 . S
C52 H70 0.931 . S
C53 C51 1.365 . S
C53 C54 1.409 . S
C53 H71 0.929 . S
C54 C53 1.409 . S
C54 C55 1.380 . S
C54 H72 0.930 . S
C55 C54 1.380 . S
C55 C62 1.357 . S
C56 C47 1.511 . S
C56 C57 1.341 . S
C56 C58 1.371 1_556 S
C57 C56 1.341 . S
C57 C61 1.394 . S
C57 H73 0.930 . S
C58 C56 1.371 1_554 S
C58 C59 1.392 . S
C58 H74 0.931 . S
C59 C58 1.392 . S
C59 C60 1.331 1_554 S
C59 H77 0.932 . S
C60 C59 1.331 1_556 S
C60 C61 1.336 . S
C61 C57 1.394 . S
C61 C60 1.336 . S
C61 H76 0.929 . S
C62 C52 1.386 . S
C62 C55 1.357 . S
C62 H75 0.928 . S
H63 C39 0.931 . S
H64 C41 0.930 . S
H65 C43 0.929 . S
H66 C44 0.931 . S
H67 C46 0.930 . S
H68 C50 0.931 . S
H69 C48 0.931 . S
H70 C52 0.931 . S
H71 C53 0.929 . S
H72 C54 0.930 . S
H73 C57 0.930 . S
H74 C58 0.931 . S
H75 C62 0.928 . S
H76 C61 0.929 . S
H77 C59 0.932 . S
C78 C79 1.395 . S
C78 C80 1.397 . S
C78 H102 0.931 . S
C79 C78 1.395 . S
C79 C83 1.388 1_565 S
C80 C78 1.397 . S
C80 C81 1.389 . S
C80 H103 0.930 . S
C81 C80 1.389 . S
C81 C82 1.372 1_565 S
C81 C84 1.481 1_556 S
C82 C81 1.372 1_545 S
C82 C83 1.389 . S
C82 H104 0.929 1_556 S
C83 C79 1.388 1_545 S
C83 C82 1.389 . S
C83 H105 0.931 . S
C84 C81 1.481 1_554 S
C84 C85 1.390 . S
C84 C89 1.389 . S
C85 C84 1.390 . S
C85 C86 1.403 . S
C85 H106 0.930 1_554 S
C86 C85 1.403 . S
C86 C87 1.377 . S
C86 C95 1.514 . S
C87 C86 1.377 . S
C87 C88 1.389 . S
C87 H108 0.934 . S
C88 C87 1.389 . S
C88 C89 1.361 . S
C88 C90 1.497 1_565 S
C89 C84 1.389 . S
C89 C88 1.361 . S
C89 H107 0.931 . S
C90 C88 1.497 1_545 S
C90 C91 1.363 1_545 S
C90 C92 1.375 . S
C91 C90 1.363 1_565 S
C91 C101 1.386 . S
C91 H109 0.931 . S
C92 C90 1.375 . S
C92 C93 1.409 . S
C92 H110 0.929 . S
C93 C92 1.409 . S
C93 C94 1.379 . S
C93 H111 0.930 . S
C94 C93 1.379 . S
C94 C101 1.359 1_545 S
C95 C86 1.514 . S
C95 C96 1.341 . S
C95 C97 1.371 1_565 S
C96 C95 1.341 . S
C96 C100 1.394 1_554 S
C96 H112 0.930 1_554 S
C97 C95 1.371 1_545 S
C97 C98 1.392 . S
C97 H113 0.931 . S
C98 C97 1.392 . S
C98 C99 1.320 1_545 S
C98 H116 0.932 . S
C99 C98 1.320 1_565 S
C99 C100 1.345 1_554 S
C100 C96 1.394 1_556 S
C100 C99 1.345 1_556 S
C100 H115 0.929 . S
C101 C91 1.386 . S
C101 C94 1.359 1_565 S
C101 H114 0.928 . S
H102 C78 0.931 . S
H103 C80 0.930 . S
H104 C82 0.929 1_554 S
H105 C83 0.931 . S
H106 C85 0.930 1_556 S
H107 C89 0.931 . S
H108 C87 0.934 . S
H109 C91 0.931 . S
H110 C92 0.929 . S
H111 C93 0.930 . S
H112 C96 0.930 1_556 S
H113 C97 0.931 . S
H114 C101 0.928 . S
H115 C100 0.929 . S
H116 C98 0.932 . S
C117 C118 1.386 . S
C117 C119 1.397 . S
C117 H141 0.931 . S
C118 C117 1.386 . S
C118 C122 1.397 . S
C119 C117 1.397 . S
C119 C120 1.384 . S
C119 H142 0.930 . S
C120 C119 1.384 . S
C120 C121 1.377 . S
C120 C123 1.481 . S
C121 C120 1.377 . S
C121 C122 1.389 . S
C121 H143 0.929 . S
C122 C118 1.397 . S
C122 C121 1.389 . S
C122 H144 0.931 . S
C123 C120 1.481 . S
C123 C124 1.387 . S
C123 C128 1.390 . S
C124 C123 1.387 . S
C124 C125 1.401 . S
C124 H145 0.930 . S
C125 C124 1.401 . S
C125 C126 1.376 . S
C125 C134 1.511 . S
C126 C125 1.376 . S
C126 C127 1.392 . S
C126 H147 0.931 1_554 S
C127 C126 1.392 . S
C127 C128 1.361 . S
C127 C129 1.500 . S
C128 C123 1.390 . S
C128 C127 1.361 . S
C128 H146 0.931 . S
C129 C127 1.500 . S
C129 C130 1.371 1_554 S
C129 C131 1.365 . S
C130 C129 1.371 1_556 S
C130 C140 1.386 . S
C130 H148 0.931 . S
C131 C129 1.365 . S
C131 C132 1.409 1_554 S
C131 H149 0.929 . S
C132 C131 1.409 1_556 S
C132 C133 1.380 . S
C132 H150 0.930 . S
C133 C132 1.380 . S
C133 C140 1.357 . S
C134 C125 1.511 . S
C134 C135 1.341 . S
C134 C136 1.371 . S
C135 C134 1.341 . S
C135 C139 1.394 . S
C135 H151 0.930 . S
C136 C134 1.371 . S
C136 C137 1.392 1_554 S
C136 H152 0.931 1_554 S
C137 C136 1.392 1_556 S
C137 C138 1.331 1_556 S
C137 H155 0.932 . S
C138 C137 1.331 1_554 S
C138 C139 1.336 . S
C139 C135 1.394 . S
C139 C138 1.336 . S
C139 H154 0.929 . S
C140 C130 1.386 . S
C140 C133 1.357 . S
C140 H153 0.928 . S
H141 C117 0.931 . S
H142 C119 0.930 . S
H143 C121 0.929 . S
H144 C122 0.931 . S
H145 C124 0.930 . S
H146 C128 0.931 . S
H147 C126 0.931 1_556 S
H148 C130 0.931 . S
H149 C131 0.929 . S
H150 C132 0.930 . S
H151 C135 0.930 . S
H152 C136 0.931 1_556 S
H153 C140 0.928 . S
H154 C139 0.929 . S
H155 C137 0.932 . S
C156 C157 1.386 . S
C156 C158 1.397 . S
C156 H180 0.931 . S
C157 C156 1.386 . S
C157 C161 1.397 . S
C158 C156 1.397 . S
C158 C159 1.384 . S
C158 H181 0.930 . S
C159 C158 1.384 . S
C159 C160 1.377 . S
C159 C162 1.481 . S
C160 C159 1.377 . S
C160 C161 1.389 . S
C160 H182 0.929 . S
C161 C157 1.397 . S
C161 C160 1.389 . S
C161 H183 0.931 . S
C162 C159 1.481 . S
C162 C163 1.387 . S
C162 C167 1.390 . S
C163 C162 1.387 . S
C163 C164 1.401 . S
C163 H184 0.930 . S
C164 C163 1.401 . S
C164 C165 1.376 . S
C164 C173 1.511 . S
C165 C164 1.376 . S
C165 C166 1.392 . S
C165 H186 0.931 . S
C166 C165 1.392 . S
C166 C167 1.361 . S
C166 C168 1.500 . S
C167 C162 1.390 . S
C167 C166 1.361 . S
C167 H185 0.931 . S
C168 C166 1.500 . S
C168 C169 1.371 . S
C168 C170 1.365 . S
C169 C168 1.371 . S
C169 C179 1.386 . S
C169 H187 0.931 . S
C170 C168 1.365 . S
C170 C171 1.409 . S
C170 H188 0.929 . S
C171 C170 1.409 . S
C171 C172 1.380 . S
C171 H189 0.930 . S
C172 C171 1.380 . S
C172 C179 1.357 . S
C173 C164 1.511 . S
C173 C174 1.341 . S
C173 C175 1.371 . S
C174 C173 1.341 . S
C174 C178 1.394 . S
C174 H190 0.930 . S
C175 C173 1.371 . S
C175 C176 1.392 . S
C175 H191 0.931 . S
C176 C175 1.392 . S
C176 C177 1.331 . S
C176 H194 0.932 . S
C177 C176 1.331 . S
C177 C178 1.336 . S
C178 C174 1.394 . S
C178 C177 1.336 . S
C178 H193 0.929 . S
C179 C169 1.386 . S
C179 C172 1.357 . S
C179 H192 0.928 . S
H180 C156 0.931 . S
H181 C158 0.930 . S
H182 C160 0.929 . S
H183 C161 0.931 . S
H184 C163 0.930 . S
H185 C167 0.931 . S
H186 C165 0.931 . S
H187 C169 0.931 . S
H188 C170 0.929 . S
H189 C171 0.930 . S
H190 C174 0.930 . S
H191 C175 0.931 . S
H192 C179 0.928 . S
H193 C178 0.929 . S
H194 C176 0.932 . S
C195 C196 1.386 . S
C195 C197 1.397 . S
C195 H219 0.931 . S
C196 C195 1.386 . S
C196 C200 1.397 . S
C197 C195 1.397 . S
C197 C198 1.384 . S
C197 H220 0.930 . S
C198 C197 1.384 . S
C198 C199 1.377 . S
C198 C201 1.481 . S
C199 C198 1.377 . S
C199 C200 1.389 . S
C199 H221 0.929 . S
C200 C196 1.397 . S
C200 C199 1.389 . S
C200 H222 0.931 . S
C201 C198 1.481 . S
C201 C202 1.387 . S
C201 C206 1.390 . S
C202 C201 1.387 . S
C202 C203 1.401 . S
C202 H223 0.930 . S
C203 C202 1.401 . S
C203 C204 1.376 . S
C203 C212 1.511 . S
C204 C203 1.376 . S
C204 C205 1.392 . S
C204 H225 0.931 . S
C205 C204 1.392 . S
C205 C206 1.361 . S
C205 C207 1.500 . S
C206 C201 1.390 . S
C206 C205 1.361 . S
C206 H224 0.931 . S
C207 C205 1.500 . S
C207 C208 1.371 . S
C207 C209 1.365 . S
C208 C207 1.371 . S
C208 C218 1.386 . S
C208 H226 0.931 . S
C209 C207 1.365 . S
C209 C210 1.409 . S
C209 H227 0.929 . S
C210 C209 1.409 . S
C210 C211 1.380 . S
C210 H228 0.930 . S
C211 C210 1.380 . S
C211 C218 1.357 . S
C212 C203 1.511 . S
C212 C213 1.341 . S
C212 C214 1.371 . S
C213 C212 1.341 . S
C213 C217 1.394 . S
C213 H229 0.930 . S
C214 C212 1.371 . S
C214 C215 1.392 . S
C214 H230 0.931 . S
C215 C214 1.392 . S
C215 C216 1.331 . S
C215 H233 0.932 . S
C216 C215 1.331 . S
C216 C217 1.336 . S
C217 C213 1.394 . S
C217 C216 1.336 . S
C217 H232 0.929 . S
C218 C208 1.386 . S
C218 C211 1.357 . S
C218 H231 0.928 . S
H219 C195 0.931 . S
H220 C197 0.930 . S
H221 C199 0.929 . S
H222 C200 0.931 . S
H223 C202 0.930 . S
H224 C206 0.931 . S
H225 C204 0.931 . S
H226 C208 0.931 . S
H227 C209 0.929 . S
H228 C210 0.930 . S
H229 C213 0.930 . S
H230 C214 0.931 . S
H231 C218 0.928 . S
H232 C217 0.929 . S
H233 C215 0.932 . S
C234 C235 1.387 . S
C234 C236 1.397 . S
C234 H258 0.931 . S
C235 C234 1.387 . S
C235 C239 1.396 1_565 S
C236 C234 1.397 . S
C236 C237 1.382 . S
C236 H259 0.930 . S
C237 C236 1.382 . S
C237 C238 1.380 1_565 S
C237 C240 1.480 . S
C238 C237 1.380 1_545 S
C238 C239 1.389 . S
C238 H260 0.929 . S
C239 C235 1.396 1_545 S
C239 C238 1.389 . S
C239 H261 0.931 . S
C240 C237 1.480 . S
C240 C241 1.387 . S
C240 C245 1.392 . S
C241 C240 1.387 . S
C241 C242 1.401 . S
C241 H262 0.930 . S
C242 C241 1.401 . S
C242 C243 1.375 . S
C242 C251 1.511 . S
C243 C242 1.375 . S
C243 C244 1.393 1_565 S
C243 H264 0.934 . S
C244 C243 1.393 1_545 S
C244 C245 1.361 1_545 S
C244 C246 1.502 . S
C245 C240 1.392 . S
C245 C244 1.361 1_565 S
C245 H263 0.931 . S
C246 C244 1.502 . S
C246 C247 1.356 1_545 S
C246 C248 1.379 . S
C247 C246 1.356 1_565 S
C247 C257 1.386 . S
C247 H265 0.931 . S
C248 C246 1.379 . S
C248 C249 1.409 . S
C248 H266 0.929 . S
C249 C248 1.409 . S
C249 C250 1.384 . S
C249 H267 0.930 . S
C250 C249 1.384 . S
C250 C257 1.354 1_545 S
C251 C242 1.511 . S
C251 C252 1.341 . S
C251 C253 1.371 1_565 S
C252 C251 1.341 . S
C252 C256 1.394 . S
C252 H268 0.930 . S
C253 C251 1.371 1_545 S
C253 C254 1.392 . S
C253 H269 0.931 . S
C254 C253 1.392 . S
C254 C255 1.327 1_545 S
C254 H272 0.932 . S
C255 C254 1.327 1_565 S
C255 C256 1.341 . S
C256 C252 1.394 . S
C256 C255 1.341 . S
C256 H271 0.929 . S
C257 C247 1.386 . S
C257 C250 1.354 1_565 S
C257 H270 0.928 . S
H258 C234 0.931 . S
H259 C236 0.930 . S
H260 C238 0.929 . S
H261 C239 0.931 . S
H262 C241 0.930 . S
H263 C245 0.931 . S
H264 C243 0.934 . S
H265 C247 0.931 . S
H266 C248 0.929 . S
H267 C249 0.930 . S
H268 C252 0.930 . S
H269 C253 0.931 . S
H270 C257 0.928 . S
H271 C256 0.929 . S
H272 C254 0.932 . S
C273 C274 1.386 . S
C273 C275 1.397 . S
C273 H297 0.931 . S
C274 C273 1.386 . S
C274 C278 1.397 . S
C275 C273 1.397 . S
C275 C276 1.384 . S
C275 H298 0.930 . S
C276 C275 1.384 . S
C276 C277 1.377 . S
C276 C279 1.481 . S
C277 C276 1.377 . S
C277 C278 1.389 . S
C277 H299 0.929 . S
C278 C274 1.397 . S
C278 C277 1.389 . S
C278 H300 0.931 . S
C279 C276 1.481 . S
C279 C280 1.387 . S
C279 C284 1.390 . S
C280 C279 1.387 . S
C280 C281 1.401 . S
C280 H301 0.930 . S
C281 C280 1.401 . S
C281 C282 1.376 . S
C281 C290 1.511 . S
C282 C281 1.376 . S
C282 C283 1.392 . S
C282 H303 0.931 . S
C283 C282 1.392 . S
C283 C284 1.361 . S
C283 C285 1.500 . S
C284 C279 1.390 . S
C284 C283 1.361 . S
C284 H302 0.931 . S
C285 C283 1.500 . S
C285 C286 1.371 . S
C285 C287 1.365 . S
C286 C285 1.371 . S
C286 C296 1.386 . S
C286 H304 0.931 . S
C287 C285 1.365 . S
C287 C288 1.409 . S
C287 H305 0.929 . S
C288 C287 1.409 . S
C288 C289 1.380 . S
C288 H306 0.930 . S
C289 C288 1.380 . S
C289 C296 1.357 . S
C290 C281 1.511 . S
C290 C291 1.341 . S
C290 C292 1.371 . S
C291 C290 1.341 . S
C291 C295 1.394 . S
C291 H307 0.930 . S
C292 C290 1.371 . S
C292 C293 1.392 . S
C292 H308 0.931 . S
C293 C292 1.392 . S
C293 C294 1.331 . S
C293 H311 0.932 . S
C294 C293 1.331 . S
C294 C295 1.336 . S
C295 C291 1.394 . S
C295 C294 1.336 . S
C295 H310 0.929 . S
C296 C286 1.386 . S
C296 C289 1.357 . S
C296 H309 0.928 . S
H297 C273 0.931 . S
H298 C275 0.930 . S
H299 C277 0.929 . S
H300 C278 0.931 . S
H301 C280 0.930 . S
H302 C284 0.931 . S
H303 C282 0.931 . S
H304 C286 0.931 . S
H305 C287 0.929 . S
H306 C288 0.930 . S
H307 C291 0.930 . S
H308 C292 0.931 . S
H309 C296 0.928 . S
H310 C295 0.929 . S
H311 C293 0.932 . S
C312 O328 1.251 . S
C312 O330 1.254 . S
N313 C314 1.340 . S
N313 C318 1.307 . S
N313 Zn319 2.020 1_655 S
C314 N313 1.340 . S
C314 C315 1.395 . S
C314 H332 0.930 1_655 S
C315 C314 1.395 . S
C315 C316 1.390 . S
C315 H342 0.949 . S
C316 C315 1.390 . S
C316 C317 1.357 . S
C317 C316 1.357 . S
C317 C318 1.370 . S
C317 H343 0.950 . S
C318 N313 1.307 . S
C318 C317 1.370 . S
C318 H336 0.960 . S
Zn319 N313 2.020 1_455 S
Zn319 O328 2.039 . S
Zn319 O334 2.034 . S
Zn319 O338 2.025 1_565 S
Zn319 O340 2.039 1_455 S
C320 O339 1.246 . S
C320 O340 1.229 1_545 S
N321 C322 1.307 . S
N321 C323 1.333 . S
N321 Zn327 2.020 . S
C322 N321 1.307 . S
C322 C326 1.370 . S
C322 H333 0.972 . S
C323 N321 1.333 . S
C323 C324 1.379 . S
C323 H331 0.952 . S
C324 C323 1.379 . S
C324 C325 1.390 . S
C324 H344 0.949 . S
C325 C324 1.390 . S
C325 C326 1.357 . S
C326 C322 1.370 . S
C326 C325 1.357 . S
C326 H345 0.950 . S
Zn327 N321 2.020 . S
Zn327 O330 2.025 1_545 S
Zn327 O335 2.043 . S
Zn327 O337 2.039 . S
Zn327 O339 2.034 1_455 S
O328 C312 1.251 . S
O328 Zn319 2.039 . S
C329 O334 1.246 . S
C329 O335 1.224 1_565 S
O330 C312 1.254 . S
O330 Zn327 2.025 1_565 S
H331 C323 0.952 . S
H332 C314 0.930 1_455 S
H333 C322 0.972 . S
O334 Zn319 2.034 . S
O334 C329 1.246 . S
O335 Zn327 2.043 . S
O335 C329 1.224 1_545 S
H336 C318 0.960 . S
O337 Zn327 2.039 . S
O337 C341 1.251 . S
O338 Zn319 2.025 1_545 S
O338 C341 1.254 . S
O339 C320 1.246 . S
O339 Zn327 2.034 1_655 S
O340 Zn319 2.039 1_655 S
O340 C320 1.229 1_565 S
C341 O337 1.251 . S
C341 O338 1.254 . S
H342 C315 0.949 . S
H343 C317 0.950 . S
H344 C324 0.949 . S
H345 C326 0.950 . S
C346 O362 1.251 1_565 S
C346 O364 1.254 . S
N347 C348 1.333 . S
N347 C352 1.307 . S
N347 Zn353 2.020 . S
C348 N347 1.333 . S
C348 C349 1.379 . S
C348 H366 0.952 . S
C349 C348 1.379 . S
C349 C350 1.390 . S
C349 H376 0.949 . S
C350 C349 1.390 . S
C350 C351 1.357 . S
C351 C350 1.357 . S
C351 C352 1.370 . S
C351 H377 0.950 . S
C352 N347 1.307 . S
C352 C351 1.370 . S
C352 H370 0.948 . S
Zn353 N347 2.020 . S
Zn353 O362 2.039 . S
Zn353 O368 2.034 . S
Zn353 O372 2.025 . S
Zn353 O374 2.024 . S
C354 O373 1.246 1_545 S
C354 O374 1.249 . S
N355 C356 1.307 . S
N355 C357 1.333 . S
N355 Zn361 2.020 . S
C356 N355 1.307 . S
C356 C360 1.370 . S
C356 H367 0.948 . S
C357 N355 1.333 . S
C357 C358 1.379 . S
C357 H365 0.952 . S
C358 C357 1.379 . S
C358 C359 1.390 . S
C358 H378 0.949 . S
C359 C358 1.390 . S
C359 C360 1.357 . S
C360 C356 1.370 . S
C360 C359 1.357 . S
C360 H379 0.950 . S
Zn361 N355 2.020 . S
Zn361 O364 2.025 . S
Zn361 O369 2.024 . S
Zn361 O371 2.039 . S
Zn361 O373 2.034 . S
O362 C346 1.251 1_545 S
O362 Zn353 2.039 . S
C363 O368 1.246 1_565 S
C363 O369 1.249 . S
O364 C346 1.254 . S
O364 Zn361 2.025 . S
H365 C357 0.952 . S
H366 C348 0.952 . S
H367 C356 0.948 . S
O368 Zn353 2.034 . S
O368 C363 1.246 1_545 S
O369 Zn361 2.024 . S
O369 C363 1.249 . S
H370 C352 0.948 . S
O371 Zn361 2.039 . S
O371 C375 1.251 1_565 S
O372 Zn353 2.025 . S
O372 C375 1.254 . S
O373 C354 1.246 1_565 S
O373 Zn361 2.034 . S
O374 Zn353 2.024 . S
O374 C354 1.249 . S
C375 O371 1.251 1_545 S
C375 O372 1.254 . S
H376 C349 0.949 . S
H377 C351 0.950 . S
H378 C358 0.949 . S
H379 C360 0.950 . S
C380 O396 1.251 . S
C380 O398 1.254 . S
N381 C382 1.333 . S
N381 C386 1.307 . S
N381 Zn387 2.020 . S
C382 N381 1.333 . S
C382 C383 1.379 . S
C382 H400 0.952 . S
C383 C382 1.379 . S
C383 C384 1.390 . S
C383 H410 0.949 . S
C384 C383 1.390 . S
C384 C385 1.357 . S
C385 C384 1.357 . S
C385 C386 1.370 . S
C385 H411 0.950 . S
C386 N381 1.307 . S
C386 C385 1.370 . S
C386 H404 0.948 . S
Zn387 N381 2.020 . S
Zn387 O396 2.039 . S
Zn387 O402 2.034 . S
Zn387 O406 2.025 . S
Zn387 O408 2.024 . S
C388 O407 1.246 . S
C388 O408 1.249 . S
N389 C390 1.307 . S
N389 C391 1.333 . S
N389 Zn395 2.020 . S
C390 N389 1.307 . S
C390 C394 1.370 . S
C390 H401 0.948 . S
C391 N389 1.333 . S
C391 C392 1.379 . S
C391 H399 0.952 . S
C392 C391 1.379 . S
C392 C393 1.390 . S
C392 H412 0.949 . S
C393 C392 1.390 . S
C393 C394 1.357 . S
C394 C390 1.370 . S
C394 C393 1.357 . S
C394 H413 0.950 . S
Zn395 N389 2.020 . S
Zn395 O398 2.025 . S
Zn395 O403 2.024 . S
Zn395 O405 2.039 . S
Zn395 O407 2.034 . S
O396 C380 1.251 . S
O396 Zn387 2.039 . S
C397 O402 1.246 . S
C397 O403 1.249 . S
O398 C380 1.254 . S
O398 Zn395 2.025 . S
H399 C391 0.952 . S
H400 C382 0.952 . S
H401 C390 0.948 . S
O402 Zn387 2.034 . S
O402 C397 1.246 . S
O403 Zn395 2.024 . S
O403 C397 1.249 . S
H404 C386 0.948 . S
O405 Zn395 2.039 . S
O405 C409 1.251 . S
O406 Zn387 2.025 . S
O406 C409 1.254 . S
O407 C388 1.246 . S
O407 Zn395 2.034 . S
O408 Zn387 2.024 . S
O408 C388 1.249 . S
C409 O405 1.251 . S
C409 O406 1.254 . S
H410 C383 0.949 . S
H411 C385 0.950 . S
H412 C392 0.949 . S
H413 C394 0.950 . S
C414 O430 1.251 . S
C414 O432 1.254 . S
N415 C416 1.333 . S
N415 C420 1.307 . S
N415 Zn421 2.020 . S
C416 N415 1.333 . S
C416 C417 1.379 . S
C416 H434 0.952 . S
C417 C416 1.379 . S
C417 C418 1.390 . S
C417 H444 0.949 . S
C418 C417 1.390 . S
C418 C419 1.357 . S
C419 C418 1.357 . S
C419 C420 1.370 . S
C419 H445 0.950 . S
C420 N415 1.307 . S
C420 C419 1.370 . S
C420 H438 0.948 . S
Zn421 N415 2.020 . S
Zn421 O430 2.039 . S
Zn421 O436 2.000 1_455 S
Zn421 O440 2.025 1_455 S
Zn421 O442 2.024 . S
C422 O441 1.246 . S
C422 O442 1.249 . S
N423 C424 1.307 . S
N423 C425 1.333 1_455 S
N423 Zn429 2.020 . S
C424 N423 1.307 . S
C424 C428 1.370 1_455 S
C424 H435 0.948 . S
C425 N423 1.333 1_655 S
C425 C426 1.379 . S
C425 H433 0.952 . S
C426 C425 1.379 . S
C426 C427 1.390 . S
C426 H446 0.949 . S
C427 C426 1.390 . S
C427 C428 1.357 . S
C428 C424 1.370 1_655 S
C428 C427 1.357 . S
C428 H447 0.950 1_655 S
Zn429 N423 2.020 . S
Zn429 O432 2.025 . S
Zn429 O437 2.024 1_455 S
Zn429 O439 2.039 1_455 S
Zn429 O441 2.034 . S
O430 C414 1.251 . S
O430 Zn421 2.039 . S
C431 O436 1.276 . S
C431 O437 1.249 . S
O432 C414 1.254 . S
O432 Zn429 2.025 . S
H433 C425 0.952 . S
H434 C416 0.952 . S
H435 C424 0.948 . S
O436 Zn421 2.000 1_655 S
O436 C431 1.276 . S
O437 Zn429 2.024 1_655 S
O437 C431 1.249 . S
H438 C420 0.948 . S
O439 Zn429 2.039 1_655 S
O439 C443 1.251 . S
O440 Zn421 2.025 1_655 S
O440 C443 1.254 . S
O441 C422 1.246 . S
O441 Zn429 2.034 . S
O442 Zn421 2.024 . S
O442 C422 1.249 . S
C443 O439 1.251 . S
C443 O440 1.254 . S
H444 C417 0.949 . S
H445 C419 0.950 . S
H446 C426 0.949 . S
H447 C428 0.950 1_455 S
H448 C454 0.930 . S
H449 C458 0.930 . S
H450 C463 0.929 . S
H451 C461 0.929 . S
H452 C456 0.929 . S
H453 C462 0.929 . S
C454 H448 0.930 . S
C454 C455 1.367 . S
C454 C462 1.378 . S
C455 C454 1.367 . S
C455 C463 1.433 1_565 S
C456 H452 0.929 . S
C456 C458 1.378 . S
C456 C460 1.350 1_545 S
C457 C460 1.463 . S
C457 C462 1.350 . S
C457 N465 1.427 1_565 S
C458 H449 0.930 . S
C458 C456 1.378 . S
C458 C459 1.367 1_545 S
C459 C458 1.367 1_565 S
C459 C461 1.433 . S
C460 C456 1.350 1_565 S
C460 C457 1.463 . S
C460 N464 1.427 . S
C461 H451 0.929 . S
C461 C459 1.433 . S
C461 N464 1.384 . S
C462 H453 0.929 . S
C462 C454 1.378 . S
C462 C457 1.350 . S
C463 H450 0.929 . S
C463 C455 1.433 1_545 S
C463 N465 1.384 . S
N464 C460 1.427 . S
N464 C461 1.384 . S
N465 C457 1.427 1_545 S
N465 C463 1.384 . S
H466 C472 0.930 . S
H467 C476 0.930 . S
H468 C481 0.929 . S
H469 C479 0.929 . S
H470 C474 0.929 . S
H471 C480 0.929 . S
C472 H466 0.930 . S
C472 C473 1.367 . S
C472 C480 1.378 . S
C473 C472 1.367 . S
C473 C481 1.433 . S
C474 H470 0.929 . S
C474 C476 1.378 . S
C474 C478 1.350 . S
C475 C478 1.463 . S
C475 C480 1.350 . S
C475 N483 1.427 . S
C476 H467 0.930 . S
C476 C474 1.378 . S
C476 C477 1.367 . S
C477 C476 1.367 . S
C477 C479 1.433 . S
C478 C474 1.350 . S
C478 C475 1.463 . S
C478 N482 1.427 . S
C479 H469 0.929 . S
C479 C477 1.433 . S
C479 N482 1.384 . S
C480 H471 0.929 . S
C480 C472 1.378 . S
C480 C475 1.350 . S
C481 H468 0.929 . S
C481 C473 1.433 . S
C481 N483 1.384 . S
N482 C478 1.427 . S
N482 C479 1.384 . S
N483 C475 1.427 . S
N483 C481 1.384 . S
H484 C490 0.930 . S
H485 C494 0.930 . S
H486 C499 0.929 . S
H487 C497 0.929 . S
H488 C492 0.929 . S
H489 C498 0.929 . S
C490 H484 0.930 . S
C490 C491 1.367 . S
C490 C498 1.378 . S
C491 C490 1.367 . S
C491 C499 1.433 . S
C492 H488 0.929 . S
C492 C494 1.378 . S
C492 C496 1.350 . S
C493 C496 1.463 . S
C493 C498 1.350 . S
C493 N501 1.427 . S
C494 H485 0.930 . S
C494 C492 1.378 . S
C494 C495 1.367 . S
C495 C494 1.367 . S
C495 C497 1.433 . S
C496 C492 1.350 . S
C496 C493 1.463 . S
C496 N500 1.427 . S
C497 H487 0.929 . S
C497 C495 1.433 . S
C497 N500 1.384 . S
C498 H489 0.929 . S
C498 C490 1.378 . S
C498 C493 1.350 . S
C499 H486 0.929 . S
C499 C491 1.433 . S
C499 N501 1.384 . S
N500 C496 1.427 . S
N500 C497 1.384 . S
N501 C493 1.427 . S
N501 C499 1.384 . S
H502 C508 0.930 . S
H503 C512 0.930 . S
H504 C517 0.929 . S
H505 C515 0.929 . S
H506 C510 0.929 . S
H507 C516 0.929 . S
C508 H502 0.930 . S
C508 C509 1.367 . S
C508 C516 1.378 . S
C509 C508 1.367 . S
C509 C517 1.433 . S
C510 H506 0.929 . S
C510 C512 1.378 . S
C510 C514 1.350 . S
C511 C514 1.463 . S
C511 C516 1.350 . S
C511 N519 1.427 . S
C512 H503 0.930 . S
C512 C510 1.378 . S
C512 C513 1.367 . S
C513 C512 1.367 . S
C513 C515 1.433 . S
C514 C510 1.350 . S
C514 C511 1.463 . S
C514 N518 1.427 . S
C515 H505 0.929 . S
C515 C513 1.433 . S
C515 N518 1.384 . S
C516 H507 0.929 . S
C516 C508 1.378 . S
C516 C511 1.350 . S
C517 H504 0.929 . S
C517 C509 1.433 . S
C517 N519 1.384 . S
N518 C514 1.427 . S
N518 C515 1.384 . S
N519 C511 1.427 . S
N519 C517 1.384 . S
H520 C526 0.930 . S
H521 C530 0.930 . S
H522 C535 0.929 . S
H523 C533 0.929 . S
H524 C528 0.929 . S
H525 C534 0.929 . S
C526 H520 0.930 . S
C526 C527 1.367 . S
C526 C534 1.378 . S
C527 C526 1.367 . S
C527 C535 1.433 1_545 S
C528 H524 0.929 . S
C528 C530 1.378 . S
C528 C532 1.350 1_565 S
C529 C532 1.463 . S
C529 C534 1.350 . S
C529 N537 1.427 1_545 S
C530 H521 0.930 . S
C530 C528 1.378 . S
C530 C531 1.367 1_565 S
C531 C530 1.367 1_545 S
C531 C533 1.433 . S
C532 C528 1.350 1_545 S
C532 C529 1.463 . S
C532 N536 1.427 . S
C533 H523 0.929 . S
C533 C531 1.433 . S
C533 N536 1.384 . S
C534 H525 0.929 . S
C534 C526 1.378 . S
C534 C529 1.350 . S
C535 H522 0.929 . S
C535 C527 1.433 1_565 S
C535 N537 1.384 . S
N536 C532 1.427 . S
N536 C533 1.384 . S
N537 C529 1.427 1_565 S
N537 C535 1.384 . S
H538 C544 0.930 . S
H539 C548 0.930 . S
H540 C553 0.929 1_554 S
H541 C551 0.929 . S
H542 C546 0.929 . S
H543 C552 0.929 . S
C544 H538 0.930 . S
C544 C545 1.367 . S
C544 C552 1.378 . S
C545 C544 1.367 . S
C545 C553 1.433 . S
C546 H542 0.929 . S
C546 C548 1.378 . S
C546 C550 1.350 . S
C547 C550 1.463 . S
C547 C552 1.350 . S
C547 N555 1.427 . S
C548 H539 0.930 . S
C548 C546 1.378 . S
C548 C549 1.367 . S
C549 C548 1.367 . S
C549 C551 1.433 . S
C550 C546 1.350 . S
C550 C547 1.463 . S
C550 N554 1.427 . S
C551 H541 0.929 . S
C551 C549 1.433 . S
C551 N554 1.384 . S
C552 H543 0.929 . S
C552 C544 1.378 . S
C552 C547 1.350 . S
C553 H540 0.929 1_556 S
C553 C545 1.433 . S
C553 N555 1.384 . S
N554 C550 1.427 . S
N554 C551 1.384 . S
N555 C547 1.427 . S
N555 C553 1.384 . S
H556 C562 0.930 . S
H557 C566 0.930 . S
H558 C571 0.929 . S
H559 C569 0.929 . S
H560 C564 0.929 . S
H561 C570 0.929 . S
C562 H556 0.930 . S
C562 C563 1.367 . S
C562 C570 1.378 1_554 S
C563 C562 1.367 . S
C563 C571 1.433 . S
C564 H560 0.929 . S
C564 C566 1.378 . S
C564 C568 1.350 . S
C565 C568 1.463 . S
C565 C570 1.350 . S
C565 N573 1.427 . S
C566 H557 0.930 . S
C566 C564 1.378 . S
C566 C567 1.367 . S
C567 C566 1.367 . S
C567 C569 1.433 . S
C568 C564 1.350 . S
C568 C565 1.463 . S
C568 N572 1.427 . S
C569 H559 0.929 . S
C569 C567 1.433 . S
C569 N572 1.384 . S
C570 H561 0.929 . S
C570 C562 1.378 1_556 S
C570 C565 1.350 . S
C571 H558 0.929 . S
C571 C563 1.433 . S
C571 N573 1.384 1_554 S
N572 C568 1.427 . S
N572 C569 1.384 . S
N573 C565 1.427 . S
N573 C571 1.384 1_556 S
H574 C580 0.930 . S
H575 C584 0.931 1_455 S
H576 C589 0.929 . S
H577 C587 0.929 . S
H578 C582 0.929 . S
H579 C588 0.929 . S
C580 H574 0.930 . S
C580 C581 1.367 . S
C580 C588 1.378 . S
C581 C580 1.367 . S
C581 C589 1.433 . S
C582 H578 0.929 . S
C582 C584 1.378 . S
C582 C586 1.350 . S
C583 C586 1.463 . S
C583 C588 1.350 . S
C583 N591 1.427 . S
C584 H575 0.931 1_655 S
C584 C582 1.378 . S
C584 C585 1.367 . S
C585 C584 1.367 . S
C585 C587 1.433 . S
C586 C582 1.350 . S
C586 C583 1.463 . S
C586 N590 1.427 . S
C587 H577 0.929 . S
C587 C585 1.433 . S
C587 N590 1.384 . S
C588 H579 0.929 . S
C588 C580 1.378 . S
C588 C583 1.350 . S
C589 H576 0.929 . S
C589 C581 1.433 . S
C589 N591 1.384 . S
N590 C586 1.427 . S
N590 C587 1.384 . S
N591 C583 1.427 . S
N591 C589 1.384 . S
H592 C598 0.930 . S
H593 C602 0.930 . S
H594 C607 0.929 . S
H595 C605 0.929 . S
H596 C600 0.929 . S
H597 C606 0.929 . S
C598 H592 0.930 . S
C598 C599 1.367 . S
C598 C606 1.378 . S
C599 C598 1.367 . S
C599 C607 1.433 . S
C600 H596 0.929 . S
C600 C602 1.378 . S
C600 C604 1.350 . S
C601 C604 1.463 . S
C601 C606 1.350 . S
C601 N609 1.427 . S
C602 H593 0.930 . S
C602 C600 1.378 . S
C602 C603 1.367 . S
C603 C602 1.367 . S
C603 C605 1.433 . S
C604 C600 1.350 . S
C604 C601 1.463 . S
C604 N608 1.427 . S
C605 H595 0.929 . S
C605 C603 1.433 . S
C605 N608 1.384 . S
C606 H597 0.929 . S
C606 C598 1.378 . S
C606 C601 1.350 . S
C607 H594 0.929 . S
C607 C599 1.433 . S
C607 N609 1.384 . S
N608 C604 1.427 . S
N608 C605 1.384 . S
N609 C601 1.427 . S
N609 C607 1.384 . S
H610 C616 0.930 . S
H611 C620 0.930 . S
H612 C625 0.929 . S
H613 C623 0.929 . S
H614 C618 0.929 . S
H615 C624 0.929 . S
C616 H610 0.930 . S
C616 C617 1.362 1_565 S
C616 C624 1.378 . S
C617 C616 1.362 1_545 S
C617 C625 1.438 . S
C618 H614 0.929 . S
C618 C620 1.378 . S
C618 C622 1.350 1_545 S
C619 C622 1.463 . S
C619 C624 1.350 . S
C619 N627 1.427 1_565 S
C620 H611 0.930 . S
C620 C618 1.378 . S
C620 C621 1.367 1_545 S
C621 C620 1.367 1_565 S
C621 C623 1.433 . S
C622 C618 1.350 1_565 S
C622 C619 1.463 . S
C622 N626 1.427 . S
C623 H613 0.929 . S
C623 C621 1.433 . S
C623 N626 1.384 . S
C624 H615 0.929 . S
C624 C616 1.378 . S
C624 C619 1.350 . S
C625 H612 0.929 . S
C625 C617 1.438 . S
C625 N627 1.384 . S
N626 C622 1.427 . S
N626 C623 1.384 . S
N627 C619 1.427 1_545 S
N627 C625 1.384 . S
H628 C634 0.930 . S
H629 C638 0.930 . S
H630 C643 0.929 . S
H631 C641 0.929 . S
H632 C636 0.929 . S
H633 C642 0.929 . S
C634 H628 0.930 . S
C634 C635 1.367 . S
C634 C642 1.378 . S
C635 C634 1.367 . S
C635 C643 1.433 . S
C636 H632 0.929 . S
C636 C638 1.378 . S
C636 C640 1.350 . S
C637 C640 1.463 . S
C637 C642 1.350 . S
C637 N645 1.427 . S
C638 H629 0.930 . S
C638 C636 1.378 . S
C638 C639 1.367 . S
C639 C638 1.367 . S
C639 C641 1.433 . S
C640 C636 1.350 . S
C640 C637 1.463 . S
C640 N644 1.427 . S
C641 H631 0.929 . S
C641 C639 1.433 . S
C641 N644 1.384 . S
C642 H633 0.929 . S
C642 C634 1.378 . S
C642 C637 1.350 . S
C643 H630 0.929 . S
C643 C635 1.433 . S
C643 N645 1.384 . S
N644 C640 1.427 . S
N644 C641 1.384 . S
N645 C637 1.427 . S
N645 C643 1.384 . S
H646 C652 0.930 . S
H647 C656 0.930 . S
H648 C661 0.929 . S
H649 C659 0.929 . S
H650 C654 0.929 . S
H651 C660 0.929 . S
C652 H646 0.930 . S
C652 C653 1.367 . S
C652 C660 1.378 . S
C653 C652 1.367 . S
C653 C661 1.433 . S
C654 H650 0.929 . S
C654 C656 1.378 . S
C654 C658 1.350 . S
C655 C658 1.463 . S
C655 C660 1.350 . S
C655 N663 1.427 . S
C656 H647 0.930 . S
C656 C654 1.378 . S
C656 C657 1.367 . S
C657 C656 1.367 . S
C657 C659 1.433 . S
C658 C654 1.350 . S
C658 C655 1.463 . S
C658 N662 1.427 . S
C659 H649 0.929 . S
C659 C657 1.433 . S
C659 N662 1.384 . S
C660 H651 0.929 . S
C660 C652 1.378 . S
C660 C655 1.350 . S
C661 H648 0.929 . S
C661 C653 1.433 . S
C661 N663 1.384 . S
N662 C658 1.427 . S
N662 C659 1.384 . S
N663 C655 1.427 . S
N663 C661 1.384 . S
H664 C670 0.930 . S
H665 C674 0.930 . S
H666 C679 0.929 . S
H667 C677 0.929 . S
H668 C672 0.929 . S
H669 C678 0.929 . S
C670 H664 0.930 . S
C670 C671 1.367 . S
C670 C678 1.378 . S
C671 C670 1.367 . S
C671 C679 1.433 . S
C672 H668 0.929 . S
C672 C674 1.378 1_655 S
C672 C676 1.350 . S
C673 C676 1.463 . S
C673 C678 1.350 . S
C673 N681 1.427 . S
C674 H665 0.930 . S
C674 C672 1.378 1_455 S
C674 C675 1.367 . S
C675 C674 1.367 . S
C675 C677 1.433 1_455 S
C676 C672 1.350 . S
C676 C673 1.463 . S
C676 N680 1.427 . S
C677 H667 0.929 . S
C677 C675 1.433 1_655 S
C677 N680 1.384 . S
C678 H669 0.929 . S
C678 C670 1.378 . S
C678 C673 1.350 . S
C679 H666 0.929 . S
C679 C671 1.433 . S
C679 N681 1.384 . S
N680 C676 1.427 . S
N680 C677 1.384 . S
N681 C673 1.427 . S
N681 C679 1.384 . S
H682 C688 0.930 . S
H683 C692 0.930 . S
H684 C697 0.929 . S
H685 C695 0.929 . S
H686 C690 0.929 . S
H687 C696 0.929 . S
C688 H682 0.930 . S
C688 C689 1.394 . S
C688 C696 1.378 . S
C689 C688 1.394 . S
C689 C697 1.402 1_565 S
C690 H686 0.929 . S
C690 C692 1.378 . S
C690 C694 1.350 . S
C691 C694 1.463 . S
C691 C696 1.350 1_545 S
C691 N699 1.427 . S
C692 H683 0.930 . S
C692 C690 1.378 . S
C692 C693 1.367 . S
C693 C692 1.367 . S
C693 C695 1.433 1_545 S
C694 C690 1.350 . S
C694 C691 1.463 . S
C694 N698 1.427 1_545 S
C695 H685 0.929 . S
C695 C693 1.433 1_565 S
C695 N698 1.384 . S
C696 H687 0.929 . S
C696 C688 1.378 . S
C696 C691 1.350 1_565 S
C697 H684 0.929 . S
C697 C689 1.402 1_545 S
C697 N699 1.384 . S
N698 C694 1.427 1_565 S
N698 C695 1.384 . S
N699 C691 1.427 . S
N699 C697 1.384 . S
H700 C706 0.930 . S
H701 C710 0.930 . S
H702 C715 0.929 . S
H703 C713 0.929 . S
H704 C708 0.929 . S
H705 C714 0.929 . S
C706 H700 0.930 . S
C706 C707 1.367 . S
C706 C714 1.378 . S
C707 C706 1.367 . S
C707 C715 1.433 . S
C708 H704 0.929 . S
C708 C710 1.378 . S
C708 C712 1.350 . S
C709 C712 1.463 . S
C709 C714 1.350 . S
C709 N717 1.427 . S
C710 H701 0.930 . S
C710 C708 1.378 . S
C710 C711 1.367 . S
C711 C710 1.367 . S
C711 C713 1.433 . S
C712 C708 1.350 . S
C712 C709 1.463 . S
C712 N716 1.427 . S
C713 H703 0.929 . S
C713 C711 1.433 . S
C713 N716 1.384 . S
C714 H705 0.929 . S
C714 C706 1.378 . S
C714 C709 1.350 . S
C715 H702 0.929 . S
C715 C707 1.433 . S
C715 N717 1.384 . S
N716 C712 1.427 . S
N716 C713 1.384 . S
N717 C709 1.427 . S
N717 C715 1.384 . S
H718 C724 0.930 1_554 S
H719 C728 0.930 . S
H720 C733 0.929 . S
H721 C731 0.929 . S
H722 C726 0.929 . S
H723 C732 0.929 . S
C724 H718 0.930 1_556 S
C724 C725 1.367 . S
C724 C732 1.378 . S
C725 C724 1.367 . S
C725 C733 1.433 . S
C726 H722 0.929 . S
C726 C728 1.378 . S
C726 C730 1.350 . S
C727 C730 1.463 . S
C727 C732 1.350 . S
C727 N735 1.427 . S
C728 H719 0.930 . S
C728 C726 1.378 . S
C728 C729 1.367 . S
C729 C728 1.367 . S
C729 C731 1.433 . S
C730 C726 1.350 . S
C730 C727 1.463 . S
C730 N734 1.427 . S
C731 H721 0.929 . S
C731 C729 1.433 . S
C731 N734 1.384 . S
C732 H723 0.929 . S
C732 C724 1.378 . S
C732 C727 1.350 . S
C733 H720 0.929 . S
C733 C725 1.433 . S
C733 N735 1.384 . S
N734 C730 1.427 . S
N734 C731 1.384 . S
N735 C727 1.427 . S
N735 C733 1.384 . S
H736 C742 0.930 . S
H737 C746 0.930 . S
H738 C751 0.929 . S
H739 C749 0.929 . S
H740 C744 0.929 . S
H741 C750 0.929 . S
C742 H736 0.930 . S
C742 C743 1.367 . S
C742 C750 1.378 . S
C743 C742 1.367 . S
C743 C751 1.433 . S
C744 H740 0.929 . S
C744 C746 1.378 . S
C744 C748 1.350 1_556 S
C745 C748 1.463 . S
C745 C750 1.350 . S
C745 N753 1.427 . S
C746 H737 0.930 . S
C746 C744 1.378 . S
C746 C747 1.367 . S
C747 C746 1.367 . S
C747 C749 1.433 1_556 S
C748 C744 1.350 1_554 S
C748 C745 1.463 . S
C748 N752 1.427 . S
C749 H739 0.929 . S
C749 C747 1.433 1_554 S
C749 N752 1.384 . S
C750 H741 0.929 . S
C750 C742 1.378 . S
C750 C745 1.350 . S
C751 H738 0.929 . S
C751 C743 1.433 . S
C751 N753 1.384 . S
N752 C748 1.427 . S
N752 C749 1.384 . S
N753 C745 1.427 . S
N753 C751 1.384 . S
H754 C760 0.930 . S
H755 C764 0.930 . S
H756 C769 0.929 . S
H757 C767 0.929 . S
H758 C762 0.929 . S
H759 C768 0.929 . S
C760 H754 0.930 . S
C760 C761 1.397 1_556 S
C760 C768 1.378 . S
C761 C760 1.397 1_554 S
C761 C769 1.401 1_545 S
C762 H758 0.929 . S
C762 C764 1.378 . S
C762 C766 1.350 1_565 S
C763 C766 1.463 . S
C763 C768 1.350 . S
C763 N771 1.427 1_545 S
C764 H755 0.930 . S
C764 C762 1.378 . S
C764 C765 1.367 1_565 S
C765 C764 1.367 1_545 S
C765 C767 1.433 . S
C766 C762 1.350 1_545 S
C766 C763 1.463 . S
C766 N770 1.427 . S
C767 H757 0.929 . S
C767 C765 1.433 . S
C767 N770 1.384 . S
C768 H759 0.929 . S
C768 C760 1.378 . S
C768 C763 1.350 . S
C769 H756 0.929 . S
C769 C761 1.401 1_565 S
C769 N771 1.384 1_554 S
N770 C766 1.427 . S
N770 C767 1.384 . S
N771 C763 1.427 1_565 S
N771 C769 1.384 1_556 S
H772 C778 0.930 . S
H773 C782 0.930 . S
H774 C787 0.929 . S
H775 C785 0.929 . S
H776 C780 0.929 . S
H777 C786 0.929 . S
C778 H772 0.930 . S
C778 C779 1.367 . S
C778 C786 1.378 . S
C779 C778 1.367 . S
C779 C787 1.433 1_554 S
C780 H776 0.929 . S
C780 C782 1.378 . S
C780 C784 1.350 . S
C781 C784 1.463 . S
C781 C786 1.350 1_556 S
C781 N789 1.427 . S
C782 H773 0.930 . S
C782 C780 1.378 . S
C782 C783 1.367 . S
C783 C782 1.367 . S
C783 C785 1.433 . S
C784 C780 1.350 . S
C784 C781 1.463 . S
C784 N788 1.427 . S
C785 H775 0.929 . S
C785 C783 1.433 . S
C785 N788 1.384 . S
C786 H777 0.929 . S
C786 C778 1.378 . S
C786 C781 1.350 1_554 S
C787 H774 0.929 . S
C787 C779 1.433 1_556 S
C787 N789 1.384 . S
N788 C784 1.427 . S
N788 C785 1.384 . S
N789 C781 1.427 . S
N789 C787 1.384 . S
H790 C796 0.930 . S
H791 C800 0.930 . S
H792 C805 0.929 . S
H793 C803 0.929 . S
H794 C798 0.929 . S
H795 C804 0.929 . S
C796 H790 0.930 . S
C796 C797 1.367 1_554 S
C796 C804 1.378 1_554 S
C797 C796 1.367 1_556 S
C797 C805 1.433 . S
C798 H794 0.929 . S
C798 C800 1.378 . S
C798 C802 1.350 . S
C799 C802 1.463 . S
C799 C804 1.350 . S
C799 N807 1.427 . S
C800 H791 0.930 . S
C800 C798 1.378 . S
C800 C801 1.367 . S
C801 C800 1.367 . S
C801 C803 1.433 . S
C802 C798 1.350 . S
C802 C799 1.463 . S
C802 N806 1.427 . S
C803 H793 0.929 . S
C803 C801 1.433 . S
C803 N806 1.384 . S
C804 H795 0.929 . S
C804 C796 1.378 1_556 S
C804 C799 1.350 . S
C805 H792 0.929 . S
C805 C797 1.433 . S
C805 N807 1.384 . S
N806 C802 1.427 . S
N806 C803 1.384 . S
N807 C799 1.427 . S
N807 C805 1.384 . S
H808 C814 0.930 . S
H809 C818 0.930 . S
H810 C823 0.929 . S
H811 C821 0.929 . S
H812 C816 0.929 . S
H813 C822 0.929 . S
C814 H808 0.930 . S
C814 C815 1.367 . S
C814 C822 1.378 . S
C815 C814 1.367 . S
C815 C823 1.433 . S
C816 H812 0.929 . S
C816 C818 1.378 . S
C816 C820 1.350 . S
C817 C820 1.463 . S
C817 C822 1.350 . S
C817 N825 1.427 . S
C818 H809 0.930 . S
C818 C816 1.378 . S
C818 C819 1.367 . S
C819 C818 1.367 . S
C819 C821 1.433 . S
C820 C816 1.350 . S
C820 C817 1.463 . S
C820 N824 1.427 . S
C821 H811 0.929 . S
C821 C819 1.433 . S
C821 N824 1.384 . S
C822 H813 0.929 . S
C822 C814 1.378 . S
C822 C817 1.350 . S
C823 H810 0.929 . S
C823 C815 1.433 . S
C823 N825 1.384 . S
N824 C820 1.427 . S
N824 C821 1.384 . S
N825 C817 1.427 . S
N825 C823 1.384 . S
H826 C832 0.930 . S
H827 C836 0.930 . S
H828 C841 0.929 . S
H829 C839 0.929 . S
H830 C834 0.929 . S
H831 C840 0.929 . S
C832 H826 0.930 . S
C832 C833 1.392 . S
C832 C840 1.378 . S
C833 C832 1.392 . S
C833 C841 1.406 1_565 S
C834 H830 0.929 . S
C834 C836 1.378 . S
C834 C838 1.350 1_545 S
C835 C838 1.463 . S
C835 C840 1.350 . S
C835 N843 1.427 1_565 S
C836 H827 0.930 . S
C836 C834 1.378 . S
C836 C837 1.367 1_545 S
C837 C836 1.367 1_565 S
C837 C839 1.433 . S
C838 C834 1.350 1_565 S
C838 C835 1.463 . S
C838 N842 1.427 . S
C839 H829 0.929 . S
C839 C837 1.433 . S
C839 N842 1.384 . S
C840 H831 0.929 . S
C840 C832 1.378 . S
C840 C835 1.350 . S
C841 H828 0.929 . S
C841 C833 1.406 1_545 S
C841 N843 1.384 . S
N842 C838 1.427 . S
N842 C839 1.384 . S
N843 C835 1.427 1_545 S
N843 C841 1.384 . S
H844 C850 0.930 . S
H845 C854 0.930 . S
H846 C859 0.929 . S
H847 C857 0.929 . S
H848 C852 0.929 . S
H849 C858 0.929 . S
C850 H844 0.930 . S
C850 C851 1.367 . S
C850 C858 1.378 . S
C851 C850 1.367 . S
C851 C859 1.433 . S
C852 H848 0.929 . S
C852 C854 1.378 . S
C852 C856 1.350 . S
C853 C856 1.463 . S
C853 C858 1.350 . S
C853 N861 1.427 . S
C854 H845 0.930 . S
C854 C852 1.378 . S
C854 C855 1.367 . S
C855 C854 1.367 . S
C855 C857 1.433 . S
C856 C852 1.350 . S
C856 C853 1.463 . S
C856 N860 1.427 . S
C857 H847 0.929 . S
C857 C855 1.433 . S
C857 N860 1.384 . S
C858 H849 0.929 . S
C858 C850 1.378 . S
C858 C853 1.350 . S
C859 H846 0.929 . S
C859 C851 1.433 . S
C859 N861 1.384 . S
N860 C856 1.427 . S
N860 C857 1.384 . S
N861 C853 1.427 . S
N861 C859 1.384 . S
H862 C868 0.930 . S
H863 C872 0.930 . S
H864 C877 0.929 . S
H865 C875 0.929 . S
H866 C870 0.929 . S
H867 C876 0.929 . S
C868 H862 0.930 . S
C868 C869 1.367 . S
C868 C876 1.378 . S
C869 C868 1.367 . S
C869 C877 1.433 . S
C870 H866 0.929 . S
C870 C872 1.378 . S
C870 C874 1.350 . S
C871 C874 1.463 . S
C871 C876 1.350 . S
C871 N879 1.427 . S
C872 H863 0.930 . S
C872 C870 1.378 . S
C872 C873 1.367 . S
C873 C872 1.367 . S
C873 C875 1.433 . S
C874 C870 1.350 . S
C874 C871 1.463 . S
C874 N878 1.427 . S
C875 H865 0.929 . S
C875 C873 1.433 . S
C875 N878 1.384 . S
C876 H867 0.929 . S
C876 C868 1.378 . S
C876 C871 1.350 . S
C877 H864 0.929 . S
C877 C869 1.433 . S
C877 N879 1.384 . S
N878 C874 1.427 . S
N878 C875 1.384 . S
N879 C871 1.427 . S
N879 C877 1.384 . S
C455 C255 1.876 . S
C459 C329 1.896 . S
C477 C350 1.742 . S
C473 C294 1.700 . S
C495 C384 1.573 . S
C491 C177 1.553 . S
C513 C418 1.720 . S
C509 C216 1.682 . S
C531 C320 1.897 . S
C527 C99 1.881 1_546 S
C545 C138 1.689 1_556 S
C549 C359 1.745 . S
C563 C21 1.538 . S
C567 C393 1.567 . S
C581 C60 1.694 . S
C585 C427 1.720 . S
C603 C341 0.651 . S
C599 C196 0.704 . S
C621 C346 0.425 . S
C617 C235 0.443 1_545 S
C639 C380 0.590 . S
C635 C289 0.602 . S
C653 C157 0.338 . S
C657 C414 0.164 . S
C671 C40 0.705 . S
C675 C312 0.660 . S
C693 C375 0.454 . S
C689 C79 0.464 . S
C711 C409 0.606 . S
C707 C133 0.627 . S
C725 C1 0.324 . S
C729 C443 0.139 . S
C743 C211 1.658 . S
C747 C325 1.755 . S
C761 C250 2.041 . S
C765 C354 2.146 . S
C783 C388 1.893 . S
C779 C274 1.785 . S
C801 C422 1.937 . S
C797 C172 1.807 1_556 S
C815 C55 1.665 . S
C819 C316 1.770 . S
C837 C363 2.145 . S
C833 C94 2.041 1_565 S
C855 C397 1.892 . S
C851 C118 1.781 . S
C869 C16 1.817 . S
C873 C431 1.938 . S
