# Generated by pormake.
# Topology zzz, (3,6)-cn, num edge types: 1
# Building blocks:
#     Node 0, Type 0, BuildingBlock: BELTOD_clean_linker_0, # of connection points: 3
#     Node 1, Type 0, BuildingBlock: BELTOD_clean_linker_0, # of connection points: 3
#     Node 2, Type 0, BuildingBlock: BELTOD_clean_linker_0, # of connection points: 3
#     Node 3, Type 0, BuildingBlock: BELTOD_clean_linker_0, # of connection points: 3
#     Node 4, Type 0, BuildingBlock: BELTOD_clean_linker_0, # of connection points: 3
#     Node 5, Type 0, BuildingBlock: BELTOD_clean_linker_0, # of connection points: 3
#     Node 6, Type 0, BuildingBlock: BELTOD_clean_linker_0, # of connection points: 3
#     Node 7, Type 0, BuildingBlock: BELTOD_clean_linker_0, # of connection points: 3
#     Node 8, Type 1, BuildingBlock: NUHQIS_clean_sbu_0, # of connection points: 6
#     Node 9, Type 1, BuildingBlock: NUHQIS_clean_sbu_0, # of connection points: 6
#     Node 10, Type 1, BuildingBlock: NUHQIS_clean_sbu_0, # of connection points: 6
#     Node 11, Type 1, BuildingBlock: NUHQIS_clean_sbu_0, # of connection points: 6
#     Edge 12, Type (0, 1), BuildingBlock: OJICUG_clean_linker_0, # of connection points: 2
#     Edge 13, Type (0, 1), BuildingBlock: OJICUG_clean_linker_0, # of connection points: 2
#     Edge 14, Type (0, 1), BuildingBlock: OJICUG_clean_linker_0, # of connection points: 2
#     Edge 15, Type (0, 1), BuildingBlock: OJICUG_clean_linker_0, # of connection points: 2
#     Edge 16, Type (0, 1), BuildingBlock: OJICUG_clean_linker_0, # of connection points: 2
#     Edge 17, Type (0, 1), BuildingBlock: OJICUG_clean_linker_0, # of connection points: 2
#     Edge 18, Type (0, 1), BuildingBlock: OJICUG_clean_linker_0, # of connection points: 2
#     Edge 19, Type (0, 1), BuildingBlock: OJICUG_clean_linker_0, # of connection points: 2
#     Edge 20, Type (0, 1), BuildingBlock: OJICUG_clean_linker_0, # of connection points: 2
#     Edge 21, Type (0, 1), BuildingBlock: OJICUG_clean_linker_0, # of connection points: 2
#     Edge 22, Type (0, 1), BuildingBlock: OJICUG_clean_linker_0, # of connection points: 2
#     Edge 23, Type (0, 1), BuildingBlock: OJICUG_clean_linker_0, # of connection points: 2
#     Edge 24, Type (0, 1), BuildingBlock: OJICUG_clean_linker_0, # of connection points: 2
#     Edge 25, Type (0, 1), BuildingBlock: OJICUG_clean_linker_0, # of connection points: 2
#     Edge 26, Type (0, 1), BuildingBlock: OJICUG_clean_linker_0, # of connection points: 2
#     Edge 27, Type (0, 1), BuildingBlock: OJICUG_clean_linker_0, # of connection points: 2
#     Edge 28, Type (0, 1), BuildingBlock: OJICUG_clean_linker_0, # of connection points: 2
#     Edge 29, Type (0, 1), BuildingBlock: OJICUG_clean_linker_0, # of connection points: 2
#     Edge 30, Type (0, 1), BuildingBlock: OJICUG_clean_linker_0, # of connection points: 2
#     Edge 31, Type (0, 1), BuildingBlock: OJICUG_clean_linker_0, # of connection points: 2
#     Edge 32, Type (0, 1), BuildingBlock: OJICUG_clean_linker_0, # of connection points: 2
#     Edge 33, Type (0, 1), BuildingBlock: OJICUG_clean_linker_0, # of connection points: 2
#     Edge 34, Type (0, 1), BuildingBlock: OJICUG_clean_linker_0, # of connection points: 2
#     Edge 35, Type (0, 1), BuildingBlock: OJICUG_clean_linker_0, # of connection points: 2
# Relax obj value: 0.475
# Max RMSD: 0.235
# Mean RMSD: 0.224
data_MOF--net-zzz--node1-NUHQIS_clean_sbu_0--node2-BELTOD_clean_linker_0--edge1-OJICUG_clean_linker_0
_symmetry_space_group_name_H-M    P1
_symmetry_Int_Tables_number       1
_symmetry_cell_setting            triclinic
loop_
_symmetry_equiv_pos_as_xyz
'x, y, z'
_cell_length_a     42.219872
_cell_length_b     42.266063
_cell_length_c     13.744098
_cell_angle_alpha  89.988377
_cell_angle_beta   89.400156
_cell_angle_gamma 89.888505
loop_
_atom_site_label
_atom_site_type_symbol
_atom_site_fract_x
_atom_site_fract_y
_atom_site_fract_z
_atom_type_partial_charge
P0 P 0.72169 0.46096 0.4027 0.0
H1 H 0.7383 0.47984 0.60161 0.0
H2 H 0.7886 0.49607 0.67115 0.0
H3 H 0.82761 0.50765 0.3814 0.0
H4 H 0.77681 0.49257 0.31278 0.0
H5 H 0.66013 0.43783 0.35338 0.0
H6 H 0.6194 0.45463 0.24073 0.0
H7 H 0.67486 0.53716 0.16727 0.0
H8 H 0.71608 0.51969 0.28159 0.0
H9 H 0.75704 0.40442 0.45575 0.0
H10 H 0.73328 0.4545 0.19293 0.0
O11 O 0.7039 0.44239 0.49547 0.0
H12 H 0.79642 0.37336 0.36537 0.0
H13 H 0.77268 0.42422 0.10309 0.0
C14 C 0.75351 0.48492 0.45157 0.0
C15 C 0.75727 0.48696 0.5528 0.0
C16 C 0.78643 0.49574 0.59274 0.0
C17 C 0.81276 0.50251 0.53243 0.0
C18 C 0.8081 0.5028 0.43085 0.0
C19 C 0.77882 0.49425 0.39107 0.0
C20 C 0.69063 0.47801 0.32886 0.0
C21 C 0.66313 0.4601 0.31556 0.0
C22 C 0.63979 0.46976 0.25063 0.0
C23 C 0.64337 0.4976 0.1957 0.0
C24 C 0.67116 0.51566 0.20863 0.0
C25 C 0.69463 0.5059 0.27465 0.0
C26 C 0.74205 0.43158 0.33102 0.0
C27 C 0.75942 0.40788 0.37793 0.0
C28 C 0.78207 0.39031 0.32633 0.0
C29 C 0.78791 0.39647 0.22718 0.0
C30 C 0.76855 0.41846 0.17895 0.0
C31 C 0.74595 0.43598 0.23059 0.0
P32 P 0.03846 0.72439 0.41225 0.0
H33 H 0.02184 0.74264 0.61205 0.0
H34 H 1.00806 0.79402 0.68056 0.0
H35 H 0.98961 0.82958 0.39237 0.0
H36 H 1.00347 0.77774 0.32376 0.0
H37 H 0.07039 0.66981 0.33636 0.0
H38 H 0.05825 0.62986 0.21536 0.0
H39 H 0.96725 0.67376 0.16824 0.0
H40 H 0.98003 0.71445 0.29106 0.0
H41 H 0.09049 0.7606 0.49259 0.0
H42 H 0.05255 0.74036 0.20921 0.0
O43 O 0.0542 0.70451 0.50499 0.0
H44 H 0.1201 0.80518 0.42418 0.0
H45 H 0.08182 0.78449 0.14092 0.0
C46 C 0.01347 0.7558 0.46221 0.0
C47 C 0.01361 0.76093 0.56331 0.0
C48 C 1.00623 0.79072 0.60268 0.0
C49 C 0.99836 0.81636 0.54218 0.0
C50 C 0.99551 0.81049 0.44155 0.0
C51 C 1.00308 0.78059 0.40207 0.0
C52 C 0.02583 0.69466 0.32513 0.0
C53 C 0.0475 0.67059 0.30159 0.0
C54 C 0.04048 0.64762 0.23204 0.0
C55 C 0.01147 0.64797 0.18283 0.0
C56 C 0.98978 0.67257 0.20498 0.0
C57 C 0.99691 0.69575 0.27566 0.0
C58 C 0.06954 0.74701 0.35591 0.0
C59 C 0.08975 0.76476 0.41487 0.0
C60 C 0.10646 0.79037 0.37591 0.0
C61 C 0.10307 0.79851 0.27743 0.0
C62 C 0.08531 0.77864 0.21679 0.0
C63 C 0.06846 0.75326 0.25594 0.0
P64 P 0.78902 0.0337 0.43155 0.0
H65 H 0.76985 0.01976 0.63281 0.0
H66 H 0.71811 1.00772 0.70344 0.0
H67 H 0.68204 0.98846 0.41704 0.0
H68 H 0.73403 1.00088 0.3462 0.0
H69 H 0.85711 0.04282 0.40896 0.0
H70 H 0.89511 0.02925 0.28174 0.0
H71 H 0.82353 0.97482 0.13543 0.0
H72 H 0.78525 0.98828 0.26515 0.0
H73 H 0.75369 0.08699 0.50944 0.0
H74 H 0.77574 0.04862 0.22587 0.0
O75 O 0.80909 0.04955 0.52348 0.0
H76 H 0.70983 0.11691 0.44018 0.0
H77 H 0.73193 0.07767 0.1572 0.0
C78 C 0.7564 0.01085 0.48365 0.0
C79 C 0.75132 0.01179 0.58491 0.0
C80 C 0.72138 1.00537 0.62551 0.0
C81 C 0.6956 0.99763 0.56608 0.0
C82 C 0.7013 0.99421 0.46532 0.0
C83 C 0.73129 1.00092 0.42458 0.0
C84 C 0.81812 0.01637 0.348 0.0
C85 C 0.84958 0.02715 0.35142 0.0
C86 C 0.87151 0.01936 0.27804 0.0
C87 C 0.86255 1.00098 0.1977 0.0
C88 C 0.83127 0.98921 0.19582 0.0
C89 C 0.80937 0.99664 0.27058 0.0
C90 C 0.76797 0.06537 0.3732 0.0
C91 C 0.75007 0.08608 0.43158 0.0
C92 C 0.72478 0.10294 0.39212 0.0
C93 C 0.71703 0.09921 0.29362 0.0
C94 C 0.73729 0.08126 0.23329 0.0
C95 C 0.76248 0.06436 0.27289 0.0
P96 P 0.47425 0.79283 0.45464 0.0
H97 H 0.49512 0.77382 0.64947 0.0
H98 H 0.50865 0.72173 0.71294 0.0
H99 H 0.51622 0.68604 0.41902 0.0
H100 H 0.50376 0.73838 0.35646 0.0
H101 H 0.45802 0.85826 0.41791 0.0
H102 H 0.47209 0.8956 0.28941 0.0
H103 H 0.53823 0.82807 0.16882 0.0
H104 H 0.52375 0.79021 0.29804 0.0
H105 H 0.42429 0.75424 0.53811 0.0
H106 H 0.45564 0.78231 0.25115 0.0
O107 O 0.45988 0.81253 0.55074 0.0
H108 H 0.39666 0.70903 0.46827 0.0
H109 H 0.42818 0.73745 0.18146 0.0
C110 C 0.49864 0.7604 0.49777 0.0
C111 C 0.50107 0.7552 0.59837 0.0
C112 C 0.5082 0.72505 0.63486 0.0
C113 C 0.51284 0.6992 0.57158 0.0
C114 C 0.51305 0.70516 0.47058 0.0
C115 C 0.50619 0.73541 0.43426 0.0
C116 C 0.49034 0.8216 0.36947 0.0
C117 C 0.47628 0.85168 0.36583 0.0
C118 C 0.48442 0.87318 0.29248 0.0
C119 C 0.50671 0.86517 0.22011 0.0
C120 C 0.52111 0.83507 0.224 0.0
C121 C 0.51303 0.81347 0.29824 0.0
C122 C 0.44214 0.77163 0.40008 0.0
C123 C 0.42384 0.7517 0.45971 0.0
C124 C 0.40832 0.72567 0.41989 0.0
C125 C 0.41072 0.71945 0.31972 0.0
C126 C 0.42577 0.74169 0.25891 0.0
C127 C 0.44155 0.7675 0.29892 0.0
P128 P 0.26872 0.48528 0.18456 0.0
H129 H 0.24995 0.44444 0.02271 0.0
H130 H 0.20598 0.4491 0.90944 0.0
H131 H 0.19538 0.54758 0.98667 0.0
H132 H 0.23966 0.5431 0.09594 0.0
H133 H 0.30555 0.43408 0.26956 0.0
H134 H 0.35581 0.43483 0.35247 0.0
H135 H 0.37734 0.52564 0.22581 0.0
H136 H 0.32637 0.52481 0.14006 0.0
H137 H 0.22644 0.48383 0.35441 0.0
H138 H 0.28542 0.55267 0.20798 0.0
O139 O 0.25209 0.45154 0.22241 0.0
H140 H 0.20453 0.52509 0.45696 0.0
H141 H 0.26359 0.59431 0.31188 0.0
C142 C 0.24836 0.49317 0.07017 0.0
C143 C 0.23911 0.46742 0.0124 0.0
C144 C 0.21335 0.46999 0.94867 0.0
C145 C 0.19612 0.49851 0.94051 0.0
C146 C 0.20765 0.52512 0.99059 0.0
C147 C 0.2334 0.5225 0.05414 0.0
C148 C 0.31128 0.47979 0.19968 0.0
C149 C 0.32123 0.45381 0.25562 0.0
C150 C 0.35015 0.45424 0.30411 0.0
C151 C 0.37022 0.48057 0.29767 0.0
C152 C 0.36221 0.50508 0.23279 0.0
C153 C 0.33294 0.50464 0.18393 0.0
C154 C 0.25738 0.51505 0.27235 0.0
C155 C 0.2354 0.50764 0.34574 0.0
C156 C 0.22311 0.53135 0.40556 0.0
C157 C 0.23238 0.56305 0.39263 0.0
C158 C 0.25605 0.57011 0.32355 0.0
C159 C 0.26861 0.54622 0.26431 0.0
P160 P 0.04707 0.29165 0.06032 0.0
H161 H 0.04854 0.27093 0.85605 0.0
H162 H 0.0327 0.22094 0.78451 0.0
H163 H 0.97614 0.20046 0.04034 0.0
H164 H 0.99275 0.2505 0.11246 0.0
H165 H 0.07793 0.3509 0.10591 0.0
H166 H 0.06653 0.39317 0.21979 0.0
H167 H 0.97468 0.35235 0.28013 0.0
H168 H 0.98667 0.30932 0.1647 0.0
H169 H 0.09059 0.23858 0.04168 0.0
H170 H 0.03589 0.28293 0.27086 0.0
O171 O 0.07709 0.30284 0.98823 0.0
H172 H 0.0886 0.18853 0.12959 0.0
H173 H 0.03265 0.23343 0.3561 0.0
C174 C 0.02187 0.26507 0.99021 0.0
C175 C 0.0316 0.2565 0.89552 0.0
C176 C 0.02261 0.22744 0.85443 0.0
C177 C 1.00361 0.20585 0.9069 0.0
C178 C 0.99141 0.21587 0.99801 0.0
C179 C 1.00033 0.24506 0.03884 0.0
C180 C 0.03303 0.32693 0.1246 0.0
C181 C 0.05484 0.35137 0.14089 0.0
C182 C 0.04826 0.37578 0.20697 0.0
C183 C 0.01965 0.37653 0.2604 0.0
C184 C 0.99717 0.35256 0.24156 0.0
C185 C 1.00375 0.32809 0.17421 0.0
C186 C 0.06257 0.26432 0.14802 0.0
C187 C 0.0796 0.23806 0.11324 0.0
C188 C 0.07801 0.20928 0.16294 0.0
C189 C 0.05923 0.20657 0.24764 0.0
C190 C 0.04703 0.23432 0.2905 0.0
C191 C 0.04875 0.26301 0.24098 0.0
P192 P 0.2267 0.06245 0.08825 0.0
H193 H 0.24678 0.06823 0.88381 0.0
H194 H 0.29535 0.04864 0.80785 0.0
H195 H 0.30492 0.97987 0.03734 0.0
H196 H 0.25582 0.99929 0.11277 0.0
H197 H 0.18804 0.10058 0.21525 0.0
H198 H 0.14502 0.08971 0.32962 0.0
H199 H 0.14487 0.99186 0.23968 0.0
H200 H 0.18889 1.00302 0.12453 0.0
H201 H 0.28642 0.09617 0.06787 0.0
H202 H 0.23823 0.04059 0.28722 0.0
O203 O 0.21913 0.09624 0.02998 0.0
H204 H 0.33739 0.07809 0.1298 0.0
H205 H 0.28884 0.02316 0.34949 0.0
C206 C 0.24726 0.03552 1.00501 0.0
C207 C 0.25814 0.04774 0.91543 0.0
C208 C 0.2864 0.03672 0.87222 0.0
C209 C 0.30469 0.01326 0.91783 0.0
C210 C 0.29184 0.99846 1.00126 0.0
C211 C 0.26324 0.00914 0.04348 0.0
C212 C 0.19159 0.05275 0.16031 0.0
C213 C 0.17858 0.07679 0.21883 0.0
C214 C 0.15409 0.07048 0.28521 0.0
C215 C 0.14161 0.03985 0.29504 0.0
C216 C 0.15391 0.01576 0.234 0.0
C217 C 0.17901 0.02208 0.16791 0.0
C218 C 0.25845 0.06925 0.17147 0.0
C219 C 0.28671 0.08197 0.13348 0.0
C220 C 0.31588 0.07139 0.16816 0.0
C221 C 0.31667 0.0486 0.24216 0.0
C222 C 0.28856 0.04038 0.29105 0.0
C223 C 0.25953 0.05073 0.25602 0.0
P224 P 0.48162 0.24348 0.20957 0.0
H225 H 0.43627 0.26486 0.06327 0.0
H226 H 0.43942 0.30814 0.94585 0.0
H227 H 0.54066 0.31239 0.98566 0.0
H228 H 0.53757 0.26869 0.09754 0.0
H229 H 0.42899 0.2077 0.2946 0.0
H230 H 0.42865 0.15745 0.3791 0.0
H231 H 0.5203 0.13492 0.25509 0.0
H232 H 0.51989 0.18514 0.16608 0.0
H233 H 0.48593 0.2821 0.3856 0.0
H234 H 0.54979 0.22682 0.20611 0.0
O235 O 0.44977 0.26128 0.25787 0.0
H236 H 0.53063 0.30342 0.47272 0.0
H237 H 0.59481 0.24855 0.29314 0.0
C238 C 0.48649 0.26339 0.09221 0.0
C239 C 0.45936 0.27419 0.04383 0.0
C240 C 0.46114 0.29956 0.97771 0.0
C241 C 0.49019 0.31487 0.95797 0.0
C242 C 0.51773 0.30168 0.99852 0.0
C243 C 0.51591 0.27626 0.06406 0.0
C244 C 0.47508 0.20121 0.2262 0.0
C245 C 0.44872 0.19177 0.28226 0.0
C246 C 0.44868 0.16296 0.33222 0.0
C247 C 0.47507 0.14268 0.32787 0.0
C248 C 0.49978 0.15021 0.262 0.0
C249 C 0.49966 0.17917 0.21113 0.0
C250 C 0.51435 0.25341 0.28725 0.0
C251 C 0.50943 0.27385 0.36613 0.0
C252 C 0.53512 0.28575 0.41711 0.0
C253 C 0.56625 0.27768 0.3894 0.0
C254 C 0.57105 0.25508 0.316 0.0
C255 C 0.54521 0.24271 0.26616 0.0
Tb256 Tb 0.02446 1.00444 0.80481 0.0
Eu257 Eu 0.96916 0.0172 0.64829 0.0
C258 C 0.04211 0.02089 0.58905 0.0
C259 C 0.99821 0.0737 0.77501 0.0
C260 C 0.08103 0.97041 0.98644 0.0
C261 C 0.12231 0.93367 0.03489 0.0
C262 C 0.11205 0.95873 0.97682 0.0
C263 C 0.06082 0.95765 0.05797 0.0
C264 C 0.07116 0.93285 0.11658 0.0
C265 C 0.10177 0.92019 0.10427 0.0
C266 C 0.07009 0.9952 0.91955 0.0
O267 O 0.98194 0.9883 0.88323 0.0
O268 O 0.94345 0.01295 0.79262 0.0
O269 O 0.96795 0.96439 0.66808 0.0
O270 O 0.01781 0.95857 0.73105 0.0
C271 C 0.95258 0.99849 0.87248 0.0
O272 O 0.92876 0.04482 0.5979 0.0
O273 O 0.94694 1.00667 0.50916 0.0
O274 O 0.01459 0.00974 0.56321 0.0
O275 O 0.04688 0.0285 0.68042 0.0
O276 O 1.00709 0.05203 0.8375 0.0
O277 O 0.98954 0.06548 0.68694 0.0
C278 C 0.99257 0.94663 0.68849 0.0
O279 O 0.07087 0.98807 0.82743 0.0
O280 O 0.04415 0.01019 0.94321 0.0
C281 C 0.9401 0.05632 0.43379 0.0
C282 C 0.97904 0.10272 0.34915 0.0
C283 C 0.95327 0.11155 0.40867 0.0
C284 C 0.93368 0.08853 0.44977 0.0
C285 C 0.96292 0.04792 0.36264 0.0
C286 C 0.98239 0.07101 0.32096 0.0
C287 C 0.93112 0.03321 0.51003 0.0
H288 H 0.14604 0.9244 0.02425 0.0
H289 H 0.12809 0.96848 0.92257 0.0
H290 H 0.03676 0.9662 0.06702 0.0
H291 H 0.05462 0.9226 0.16843 0.0
H292 H 0.94958 0.13609 0.42863 0.0
H293 H 0.91586 0.09581 0.50252 0.0
H294 H 0.96807 0.02333 0.34681 0.0
H295 H 1.00173 0.06372 0.27357 0.0
Tb296 Tb 0.50727 0.02592 0.83155 0.0
Eu297 Eu 0.49521 0.96959 0.67559 0.0
C298 C 0.49031 0.04207 0.6153 0.0
C299 C 0.43777 1.00057 0.79859 0.0
C300 C 0.54255 0.08168 0.01224 0.0
C301 C 0.58185 0.12113 0.05511 0.0
C302 C 0.55595 0.1118 0.99957 0.0
C303 C 0.55447 0.06157 0.08449 0.0
C304 C 0.58013 0.07098 0.1405 0.0
C305 C 0.59451 0.10058 0.12501 0.0
C306 C 0.51701 0.07136 0.94734 0.0
O307 O 0.52315 0.98341 0.90871 0.0
O308 O 0.49729 0.94518 0.82068 0.0
O309 O 0.54781 0.96877 0.69981 0.0
O310 O 0.55297 0.01962 0.75508 0.0
C311 C 0.51222 0.95434 0.89918 0.0
O312 O 0.4671 0.93039 0.62021 0.0
O313 O 0.50996 0.94428 0.54443 0.0
O314 O 0.50144 0.01443 0.58897 0.0
O315 O 0.48348 0.04771 0.70725 0.0
O316 O 0.45895 0.00996 0.86164 0.0
O317 O 0.4466 0.9903 0.71203 0.0
C318 C 0.5653 0.99381 0.71602 0.0
O319 O 0.52345 0.07231 0.85455 0.0
O320 O 0.50191 0.04559 0.97097 0.0
C321 C 0.46422 0.93623 0.45085 0.0
C322 C 0.4206 0.96636 0.32878 0.0
C323 C 0.41119 0.94048 0.38667 0.0
C324 C 0.43289 0.92544 0.44685 0.0
C325 C 0.47452 0.95924 0.38352 0.0
C326 C 0.45285 0.97415 0.32284 0.0
C327 C 0.483 0.92946 0.53824 0.0
H328 H 0.59238 0.14412 0.04214 0.0
H329 H 0.54689 0.12779 0.94481 0.0
H330 H 0.54462 0.0382 0.09607 0.0
H331 H 0.58965 0.05443 0.19285 0.0
H332 H 0.38653 0.93373 0.39301 0.0
H333 H 0.42442 0.90755 0.49721 0.0
H334 H 0.49871 0.96774 0.38327 0.0
H335 H 0.46095 0.99335 0.27672 0.0
Tb336 Tb 0.47853 0.51217 0.81754 0.0
Eu337 Eu 0.53923 0.49661 0.67352 0.0
C338 C 0.46741 0.49388 0.59324 0.0
C339 C 0.50053 0.44146 0.78784 0.0
C340 C 0.4248 0.54864 1.00508 0.0
C341 C 0.38655 0.58517 0.07593 0.0
C342 C 0.39369 0.56011 0.01308 0.0
C343 C 0.44849 0.56154 0.06367 0.0
C344 C 0.44131 0.58634 0.12728 0.0
C345 C 0.41043 0.59886 0.13233 0.0
C346 C 0.43242 0.525 0.93022 0.0
O347 O 0.51942 0.50542 0.91223 0.0
O348 O 0.55781 0.52155 0.80617 0.0
O349 O 0.52566 0.54674 0.64025 0.0
O350 O 0.49912 0.55866 0.78244 0.0
C351 C 0.5486 0.5148 0.89504 0.0
O352 O 0.58964 0.48585 0.66618 0.0
O353 O 0.56356 0.49182 0.5332 0.0
O354 O 0.49685 0.48418 0.58092 0.0
O355 O 0.45752 0.50752 0.6741 0.0
O356 O 0.47639 0.46105 0.79593 0.0
O357 O 0.52824 0.45114 0.75481 0.0
C358 C 0.51298 0.56746 0.70019 0.0
O359 O 0.43553 0.53602 0.84229 0.0
O360 O 0.45451 0.50452 0.9502 0.0
C361 C 0.60408 0.4528 0.53481 0.0
C362 C 0.62078 0.3907 0.48161 0.0
C363 C 0.63299 0.40409 0.56665 0.0
C364 C 0.62494 0.43504 0.59265 0.0
C365 C 0.5943 0.44035 0.44546 0.0
C366 C 0.60255 0.40959 0.41916 0.0
C367 C 0.59012 0.48256 0.57195 0.0
H368 H 0.36257 0.5943 0.0789 0.0
H369 H 0.37511 0.55035 0.96836 0.0
H370 H 0.47272 0.55318 0.05799 0.0
H371 H 0.46027 0.59675 0.16897 0.0
H372 H 0.6471 0.38999 0.6158 0.0
H373 H 0.63344 0.4443 0.66105 0.0
H374 H 0.57877 0.45366 0.39829 0.0
H375 H 0.59254 0.39983 0.35342 0.0
Tb376 Tb 0.99835 0.48238 0.80208 0.0
Eu377 Eu 0.01282 0.5412 0.6562 0.0
C378 C 0.00937 0.46915 0.57775 0.0
C379 C 0.06896 0.50626 0.77412 0.0
C380 C 0.95989 0.41789 0.94524 0.0
C381 C 0.93495 0.38156 0.05885 0.0
C382 C 0.9622 0.39611 0.02161 0.0
C383 C 0.93061 0.42303 0.90093 0.0
C384 C 0.90334 0.40875 0.9385 0.0
C385 C 0.90499 0.389 0.0209 0.0
C386 C 0.98681 0.43846 0.9223 0.0
O387 O 0.01001 0.5239 0.89091 0.0
O388 O 0.98908 0.56074 0.79119 0.0
O389 O 0.96279 0.5277 0.62139 0.0
O390 O 0.95085 0.49842 0.75827 0.0
C391 C 0.99838 0.55242 0.87795 0.0
O392 O 0.01535 0.59236 0.63684 0.0
O393 O 0.02597 0.56158 0.51551 0.0
O394 O 0.02405 0.49655 0.57016 0.0
O395 O 0.9933 0.46176 0.65707 0.0
O396 O 0.04994 0.48182 0.78474 0.0
O397 O 0.05852 0.5332 0.73851 0.0
C398 C 0.94221 0.51295 0.67749 0.0
O399 O 1.00101 0.43404 0.83882 0.0
O400 O 0.98185 0.46839 0.93942 0.0
C401 C 0.05763 0.60684 0.53205 0.0
C402 C 0.12172 0.62257 0.50318 0.0
C403 C 0.10749 0.62632 0.59531 0.0
C404 C 0.07569 0.6184 0.6098 0.0
C405 C 0.07083 0.60658 0.43827 0.0
C406 C 0.10256 0.61444 0.42377 0.0
C407 C 0.02742 0.59033 0.54951 0.0
H408 H 0.9371 0.36603 0.1211 0.0
H409 H 0.98475 0.39181 0.05617 0.0
H410 H 0.92853 0.43977 0.84169 0.0
H411 H 0.88075 0.41533 0.90777 0.0
H412 H 0.12154 0.63287 0.65761 0.0
H413 H 0.06606 0.61912 0.68313 0.0
H414 H 0.05733 0.59777 0.37741 0.0
H415 H 0.11265 0.61102 0.35178 0.0
C416 C 0.11947 0.04612 0.46542 0.0
C417 C 0.11653 0.03357 0.37089 0.0
H418 H 0.09883 0.05189 0.60766 0.0
C419 C 0.089 0.01636 0.34926 0.0
H420 H 0.14045 0.05926 0.48511 0.0
C421 C 0.06482 0.01246 0.41958 0.0
C422 C 0.06775 0.0252 0.51401 0.0
H423 H 0.0858 1.00654 0.27722 0.0
H424 H 0.04381 0.99938 0.39981 0.0
C425 C 0.09558 0.04184 0.53599 0.0
C426 C 0.46848 0.12049 0.49701 0.0
C427 C 0.47794 0.11599 0.39928 0.0
H428 H 0.46492 0.10118 0.64075 0.0
C429 C 0.49104 0.08654 0.37282 0.0
H430 H 0.45887 0.14299 0.52093 0.0
C431 C 0.49452 0.06236 0.44227 0.0
C432 C 0.48537 0.06713 0.54024 0.0
H433 H 0.4985 0.08213 0.2984 0.0
H434 H 0.50475 0.04002 0.41924 0.0
C435 C 0.47216 0.0965 0.5663 0.0
C436 C 0.38821 0.48271 0.46993 0.0
C437 C 0.39605 0.48412 0.3704 0.0
H438 H 0.40429 0.48469 0.61677 0.0
C439 C 0.42805 0.48825 0.34347 0.0
H440 H 0.36379 0.47971 0.49307 0.0
C441 C 0.45168 0.49043 0.41519 0.0
C442 C 0.44356 0.48938 0.51495 0.0
H443 H 0.43478 0.48941 0.26729 0.0
H444 H 0.47613 0.49365 0.39272 0.0
C445 C 0.41149 0.48559 0.54092 0.0
C446 C 0.02696 0.43196 0.32876 0.0
C447 C 0.01466 0.40108 0.33897 0.0
H448 H 0.03515 0.47727 0.39444 0.0
C449 C 0.99955 0.39338 0.42777 0.0
H450 H 0.03826 0.43923 0.26133 0.0
C451 C 0.99756 0.41545 0.50431 0.0
C452 C 0.01068 0.44597 0.49488 0.0
H453 H 0.99009 0.36988 0.43963 0.0
H454 H 0.98617 0.40829 0.57174 0.0
C455 C 0.02509 0.45397 0.4054 0.0
C456 C 0.87492 1.00048 0.0173 0.0
C457 C 0.88516 0.99644 0.11364 0.0
H458 H 0.88787 1.00435 0.8665 0.0
C459 C 0.91764 0.99066 0.12896 0.0
H460 H 0.85024 1.00533 1.00246 0.0
C461 C 0.93932 0.98987 0.05057 0.0
C462 C 0.92922 0.99529 0.95467 0.0
H463 H 0.92643 0.98725 0.20198 0.0
H464 H 0.96418 0.98618 0.06569 0.0
C465 C 0.89663 1.00012 0.93915 0.0
C466 C 0.51693 0.92013 0.15491 0.0
C467 C 0.5127 0.88755 0.13773 0.0
H468 H 0.52072 0.96671 0.09343 0.0
C469 C 0.51114 0.877 0.04095 0.0
H470 H 0.51837 0.929 0.22865 0.0
C471 C 0.51212 0.89862 0.96357 0.0
C472 C 0.51521 0.93132 0.98079 0.0
H473 H 0.50759 0.85216 0.02514 0.0
H474 H 0.50967 0.88973 0.89013 0.0
C475 C 0.51844 0.94173 0.07737 0.0
C476 C 0.62748 0.51679 0.02847 0.0
C477 C 0.61878 0.50624 0.12212 0.0
H478 H 0.6124 0.52783 0.88378 0.0
C479 C 0.58634 0.50141 0.14239 0.0
H480 H 0.65216 0.52054 0.00972 0.0
C481 C 0.56349 0.50547 0.07003 0.0
C482 C 0.57235 0.51451 0.97506 0.0
H483 H 0.57861 0.49379 0.21403 0.0
H484 H 0.53895 0.50061 0.08803 0.0
C485 C 0.60459 0.52083 0.95592 0.0
C486 C 0.99134 0.63064 0.01752 0.0
C487 C 1.00492 0.62298 0.1077 0.0
H488 H 0.97874 0.61471 0.87465 0.0
C489 C 0.01431 0.59135 0.12328 0.0
H490 H 0.98403 0.65469 1.00233 0.0
C491 C 0.01134 0.56841 0.05007 0.0
C492 C 0.99892 0.5763 0.95861 0.0
H493 H 0.02439 0.58432 0.19215 0.0
H494 H 0.01946 0.54458 0.06472 0.0
C495 C 0.98848 0.60765 0.94395 0.0
C496 C 0.03705 0.16992 0.3747 0.0
C497 C 0.04582 0.17553 0.27733 0.0
H498 H 1.00866 0.14259 0.47319 0.0
C499 C 0.03575 0.15411 0.20545 0.0
H500 H 0.04501 0.18541 0.43222 0.0
C501 C 0.01495 0.12957 0.22899 0.0
C502 C 1.00378 0.12612 0.32471 0.0
H503 H 0.04201 0.15762 0.12971 0.0
H504 H 1.00621 0.11448 0.17153 0.0
C505 C 0.01605 0.1456 0.39803 0.0
C506 C 0.34205 0.99583 0.23841 0.0
C507 C 0.34481 0.02852 0.25423 0.0
H508 H 0.36452 0.9506 0.24402 0.0
C509 C 0.37402 0.0412 0.28119 0.0
H510 H 0.31983 0.98572 0.21505 0.0
C511 C 0.39955 0.02102 0.29945 0.0
C512 C 0.39626 0.98798 0.28917 0.0
H513 H 0.37663 0.06642 0.29251 0.0
H514 H 0.4212 0.03121 0.32702 0.0
C515 C 0.36761 0.97579 0.25465 0.0
C516 C 0.59351 0.30822 0.51897 0.0
C517 C 0.59241 0.29815 0.42176 0.0
H518 H 0.60452 0.3462 0.61507 0.0
C519 C 0.61026 0.31448 0.35099 0.0
H520 H 0.58025 0.29576 0.57494 0.0
C521 C 0.62418 0.3434 0.37384 0.0
C522 C 0.62049 0.35608 0.46764 0.0
H523 H 0.60994 0.30718 0.27545 0.0
H524 H 0.63443 0.35752 0.31575 0.0
C525 C 0.60758 0.33706 0.54192 0.0
C526 C 0.19979 0.61191 0.37751 0.0
C527 C 0.2128 0.58836 0.43736 0.0
H528 H 0.1604 0.6428 0.35385 0.0
C529 C 0.20066 0.58451 0.53209 0.0
H530 H 0.2088 0.6157 0.30437 0.0
C531 C 0.17265 0.5997 0.55983 0.0
C532 C 0.15656 0.61906 0.49317 0.0
H533 H 0.21073 0.56703 0.58054 0.0
H534 H 0.16176 0.59297 0.62846 0.0
C535 C 0.17187 0.6273 0.40554 0.0
C536 C 0.10296 0.85709 0.29742 0.0
C537 C 0.11188 0.83045 0.24217 0.0
H538 H 0.09322 0.9068 0.29691 0.0
C539 C 0.12322 0.83484 0.14667 0.0
H540 H 0.09386 0.85451 0.37097 0.0
C541 C 0.12257 0.86483 0.10405 0.0
C542 C 0.11046 0.89084 0.15628 0.0
H543 H 0.13047 0.81475 0.10279 0.0
H544 H 0.12906 0.86711 0.02792 0.0
C545 C 0.10222 0.88701 0.25475 0.0
C546 C 0.65828 0.10054 0.31476 0.0
C547 C 0.68516 0.10811 0.25814 0.0
H548 H 0.60821 0.09275 0.31708 0.0
C549 C 0.68099 0.11862 0.16209 0.0
H550 H 0.66061 0.09207 0.38873 0.0
C551 C 0.65088 0.11866 0.12078 0.0
C552 C 0.62449 0.10812 0.17482 0.0
H553 H 0.70123 0.12489 0.11706 0.0
H554 H 0.6487 0.12462 0.04448 0.0
C555 C 0.62825 0.10054 0.27345 0.0
C556 C 0.41602 0.6608 0.32894 0.0
C557 C 0.40368 0.68752 0.28134 0.0
H558 H 0.42762 0.61155 0.31895 0.0
C559 C 0.38954 0.68372 0.19007 0.0
H560 H 0.42748 0.66305 0.39876 0.0
C561 C 0.38968 0.65417 0.1444 0.0
C562 C 0.40429 0.62806 0.18886 0.0
H563 H 0.37987 0.70392 0.15193 0.0
H564 H 0.3803 0.65228 0.07159 0.0
C565 C 0.41643 0.63138 0.28293 0.0
C566 C 0.84625 0.38714 0.22865 0.0
C567 C 0.81742 0.38511 0.17886 0.0
H568 H 0.8965 0.38998 0.21774 0.0
C569 C 0.81803 0.3778 0.07906 0.0
H570 H 0.84674 0.39308 0.30528 0.0
C571 C 0.84686 0.37592 0.02831 0.0
C572 C 0.87557 0.38144 0.07645 0.0
H573 H 0.79618 0.37553 0.03906 0.0
H574 H 0.84654 0.37216 0.95039 0.0
C575 C 0.87498 0.38534 0.17806 0.0
C576 C 0.99952 0.14685 0.93817 0.0
C577 C 0.99947 0.1722 0.87157 0.0
H578 H 0.99962 0.09673 0.96077 0.0
C579 C 0.99766 0.16465 0.77156 0.0
H580 H 1.00092 0.15126 0.01539 0.0
C581 C 0.99655 0.1329 0.73972 0.0
C582 C 0.99777 0.10772 0.80678 0.0
H583 H 0.99715 0.18327 0.71754 0.0
H584 H 0.99541 0.1281 0.66242 0.0
C585 C 0.99897 0.11529 0.90647 0.0
C586 C 0.36272 1.00669 0.95516 0.0
C587 C 0.33839 1.0073 0.88592 0.0
H588 H 0.41253 1.0044 0.9824 0.0
C589 C 0.34704 1.00465 0.78682 0.0
H590 H 0.35718 0.00927 0.03183 0.0
C591 C 0.37909 1.00161 0.75807 0.0
C592 C 0.40341 1.00185 0.82753 0.0
H593 H 0.32901 1.00509 0.73138 0.0
H594 H 0.38485 0.99987 0.68128 0.0
C595 C 0.39464 1.00422 0.92649 0.0
C596 C 0.46689 0.36838 0.91499 0.0
C597 C 0.49151 0.346 0.90426 0.0
H598 H 0.45024 0.41538 0.88699 0.0
C599 C 0.51832 0.35489 0.84851 0.0
H600 H 0.44607 0.36301 0.95848 0.0
C601 C 0.52094 0.38543 0.80846 0.0
C602 C 0.49671 0.408 0.82211 0.0
H603 H 0.53762 0.33839 0.83668 0.0
H604 H 0.54225 0.39148 0.76811 0.0
C605 C 0.4694 0.39876 0.87434 0.0
C606 C 0.15438 0.52732 0.84044 0.0
C607 C 0.16476 0.49975 0.88868 0.0
H608 H 0.11659 0.55104 0.76609 0.0
C609 C 0.14374 0.47389 0.89334 0.0
H610 H 0.1698 0.54766 0.83388 0.0
C611 C 0.11325 0.47578 0.85383 0.0
C612 C 0.10254 0.50362 0.80833 0.0
H613 H 0.15031 0.4524 0.93103 0.0
H614 H 0.09775 0.45552 0.86149 0.0
C615 C 0.12377 0.52923 0.80093 0.0
C616 C 0.01757 0.8603 0.65215 0.0
C617 C 0.99566 0.84932 0.58315 0.0
H618 H 0.03396 0.89909 0.73897 0.0
C619 C 0.97205 0.87047 0.55191 0.0
H620 H 0.0364 0.84497 0.67711 0.0
C621 C 0.97049 0.90158 0.58825 0.0
C622 C 0.99279 0.91272 0.65587 0.0
H623 H 0.95469 0.86295 0.49932 0.0
H624 H 0.95214 0.91715 0.56145 0.0
C625 C 0.01628 0.89151 0.68746 0.0
C626 C 0.64158 0.97162 0.57937 0.0
C627 C 0.66265 0.99553 0.6082 0.0
H628 H 0.59491 0.95193 0.59171 0.0
C629 C 0.65162 0.01826 0.67566 0.0
H630 H 0.64919 0.95366 0.52797 0.0
C631 C 0.62035 0.01748 0.71175 0.0
C632 C 0.59922 0.99367 0.68258 0.0
H633 H 0.66696 0.03729 0.69872 0.0
H634 H 0.61266 0.03575 0.762 0.0
C635 C 0.61044 0.97055 0.6166 0.0
C636 C 0.53369 0.64304 0.5625 0.0
C637 C 0.51489 0.66596 0.60995 0.0
H638 H 0.54796 0.59454 0.55352 0.0
C639 C 0.49655 0.6563 0.69114 0.0
H640 H 0.54854 0.64945 0.50093 0.0
C641 C 0.49648 0.62463 0.7223 0.0
C642 C 0.51456 0.60164 0.67276 0.0
H643 H 0.48131 0.67298 0.72893 0.0
H644 H 0.48155 0.61803 0.78355 0.0
C645 C 0.53344 0.61142 0.59317 0.0
C646 C 0.86734 0.5276 0.53049 0.0
C647 C 0.84524 0.50706 0.57456 0.0
H648 H 0.91466 0.54571 0.52808 0.0
C649 C 0.85507 0.48963 0.65661 0.0
H650 H 0.86077 0.54186 0.46844 0.0
C651 C 0.8861 0.49215 0.69188 0.0
C652 C 0.90838 0.51198 0.64583 0.0
H653 H 0.83911 0.47315 0.69208 0.0
H654 H 0.89281 0.47786 0.75374 0.0
C655 C 0.89838 0.52994 0.56533 0.0
loop_
_geom_bond_atom_site_label_1
_geom_bond_atom_site_label_2
_geom_bond_distance
_geom_bond_site_symmetry_2
_ccdc_geom_bond_type
P0 O11 1.490 . S
P0 C14 1.812 . S
P0 C20 1.803 . S
P0 C26 1.819 . S
H1 C15 0.941 . S
H2 C16 0.939 . S
H3 C18 0.940 . S
H4 C19 0.940 . S
H5 C21 0.939 . S
H6 C22 0.942 . S
H7 C24 0.940 . S
H8 C25 0.939 . S
H9 C27 0.941 . S
H10 C31 0.939 . S
O11 P0 1.490 . S
H12 C28 0.939 . S
H13 C30 0.940 . S
C14 P0 1.812 . S
C14 C15 1.389 . S
C14 C19 1.391 . S
C15 H1 0.941 . S
C15 C14 1.389 . S
C15 C16 1.397 . S
C16 H2 0.939 . S
C16 C15 1.397 . S
C16 C17 1.378 . S
C17 C16 1.378 . S
C17 C18 1.378 . S
C18 H3 0.940 . S
C18 C17 1.378 . S
C18 C19 1.396 . S
C19 H4 0.940 . S
C19 C14 1.391 . S
C19 C18 1.396 . S
C20 P0 1.803 . S
C20 C21 1.378 . S
C20 C25 1.400 . S
C21 H5 0.939 . S
C21 C20 1.378 . S
C21 C22 1.361 . S
C22 H6 0.942 . S
C22 C21 1.361 . S
C22 C23 1.369 . S
C23 C22 1.369 . S
C23 C24 1.404 . S
C24 H7 0.940 . S
C24 C23 1.404 . S
C24 C25 1.389 . S
C25 H8 0.939 . S
C25 C20 1.400 . S
C25 C24 1.389 . S
C26 P0 1.819 . S
C26 C27 1.391 . S
C26 C31 1.391 . S
C27 H9 0.941 . S
C27 C26 1.391 . S
C27 C28 1.396 . S
C28 H12 0.939 . S
C28 C27 1.396 . S
C28 C29 1.397 . S
C29 C28 1.397 . S
C29 C30 1.385 . S
C30 H13 0.940 . S
C30 C29 1.385 . S
C30 C31 1.388 . S
C31 H10 0.939 . S
C31 C26 1.391 . S
C31 C30 1.388 . S
P32 O43 1.490 . S
P32 C46 1.812 . S
P32 C52 1.803 . S
P32 C58 1.819 . S
H33 C47 0.941 . S
H34 C48 0.939 . S
H35 C50 0.940 . S
H36 C51 0.950 . S
H37 C53 0.939 . S
H38 C54 0.942 . S
H39 C56 0.940 . S
H40 C57 0.959 . S
H41 C59 0.941 . S
H42 C63 0.929 1_655 S
O43 P32 1.490 . S
H44 C60 0.939 . S
H45 C62 0.940 . S
C46 P32 1.812 . S
C46 C47 1.389 . S
C46 C51 1.375 1_455 S
C47 H33 0.941 . S
C47 C46 1.389 . S
C47 C48 1.397 . S
C48 H34 0.939 . S
C48 C47 1.397 . S
C48 C49 1.378 . S
C49 C48 1.378 . S
C49 C50 1.378 1_455 S
C50 H35 0.940 . S
C50 C49 1.378 1_655 S
C50 C51 1.403 . S
C51 H36 0.950 . S
C51 C46 1.375 1_655 S
C51 C50 1.403 . S
C52 P32 1.803 . S
C52 C53 1.378 . S
C52 C57 1.368 1_455 S
C53 H37 0.939 . S
C53 C52 1.378 . S
C53 C54 1.361 . S
C54 H38 0.942 . S
C54 C53 1.361 . S
C54 C55 1.369 . S
C55 C54 1.369 . S
C55 C56 1.404 1_455 S
C56 H39 0.940 . S
C56 C55 1.404 1_655 S
C56 C57 1.402 . S
C57 H40 0.959 . S
C57 C52 1.368 1_655 S
C57 C56 1.402 . S
C58 P32 1.819 . S
C58 C59 1.391 . S
C58 C63 1.391 . S
C59 H41 0.941 . S
C59 C58 1.391 . S
C59 C60 1.396 . S
C60 H44 0.939 . S
C60 C59 1.396 . S
C60 C61 1.397 . S
C61 C60 1.397 . S
C61 C62 1.385 1_455 S
C62 H45 0.940 . S
C62 C61 1.385 1_655 S
C62 C63 1.388 1_655 S
C63 H42 0.929 1_455 S
C63 C58 1.391 . S
C63 C62 1.388 1_455 S
P64 O75 1.490 . S
P64 C78 1.812 . S
P64 C84 1.803 . S
P64 C90 1.819 . S
H65 C79 0.941 . S
H66 C80 0.939 . S
H67 C82 0.940 . S
H68 C83 0.950 . S
H69 C85 0.939 . S
H70 C86 0.942 . S
H71 C88 0.940 . S
H72 C89 0.959 . S
H73 C91 0.941 . S
H74 C95 0.929 1_565 S
O75 P64 1.490 . S
H76 C92 0.939 . S
H77 C94 0.940 . S
C78 P64 1.812 . S
C78 C79 1.389 . S
C78 C83 1.375 1_545 S
C79 H65 0.941 . S
C79 C78 1.389 . S
C79 C80 1.397 . S
C80 H66 0.939 . S
C80 C79 1.397 . S
C80 C81 1.378 . S
C81 C80 1.378 . S
C81 C82 1.378 1_545 S
C82 H67 0.940 . S
C82 C81 1.378 1_565 S
C82 C83 1.402 . S
C83 H68 0.950 . S
C83 C78 1.375 1_565 S
C83 C82 1.402 . S
C84 P64 1.803 . S
C84 C85 1.378 . S
C84 C89 1.368 1_545 S
C85 H69 0.939 . S
C85 C84 1.378 . S
C85 C86 1.361 . S
C86 H70 0.942 . S
C86 C85 1.361 . S
C86 C87 1.369 . S
C87 C86 1.369 . S
C87 C88 1.404 1_545 S
C88 H71 0.940 . S
C88 C87 1.404 1_565 S
C88 C89 1.402 . S
C89 H72 0.959 . S
C89 C84 1.368 1_565 S
C89 C88 1.402 . S
C90 P64 1.819 . S
C90 C91 1.391 . S
C90 C95 1.391 . S
C91 H73 0.941 . S
C91 C90 1.391 . S
C91 C92 1.396 . S
C92 H76 0.939 . S
C92 C91 1.396 . S
C92 C93 1.397 . S
C93 C92 1.397 . S
C93 C94 1.385 1_545 S
C94 H77 0.940 . S
C94 C93 1.385 1_565 S
C94 C95 1.388 1_565 S
C95 H74 0.929 1_545 S
C95 C90 1.391 . S
C95 C94 1.388 1_545 S
P96 O107 1.490 . S
P96 C110 1.812 . S
P96 C116 1.803 . S
P96 C122 1.819 . S
H97 C111 0.941 . S
H98 C112 0.939 . S
H99 C114 0.940 . S
H100 C115 0.940 . S
H101 C117 0.939 . S
H102 C118 0.942 . S
H103 C120 0.940 . S
H104 C121 0.939 . S
H105 C123 0.941 . S
H106 C127 0.939 . S
O107 P96 1.490 . S
H108 C124 0.939 . S
H109 C126 0.940 . S
C110 P96 1.812 . S
C110 C111 1.389 . S
C110 C115 1.391 . S
C111 H97 0.941 . S
C111 C110 1.389 . S
C111 C112 1.397 . S
C112 H98 0.939 . S
C112 C111 1.397 . S
C112 C113 1.378 . S
C113 C112 1.378 . S
C113 C114 1.378 . S
C114 H99 0.940 . S
C114 C113 1.378 . S
C114 C115 1.396 . S
C115 H100 0.940 . S
C115 C110 1.391 . S
C115 C114 1.396 . S
C116 P96 1.803 . S
C116 C117 1.378 . S
C116 C121 1.400 . S
C117 H101 0.939 . S
C117 C116 1.378 . S
C117 C118 1.361 . S
C118 H102 0.942 . S
C118 C117 1.361 . S
C118 C119 1.369 . S
C119 C118 1.369 . S
C119 C120 1.404 . S
C120 H103 0.940 . S
C120 C119 1.404 . S
C120 C121 1.389 . S
C121 H104 0.939 . S
C121 C116 1.400 . S
C121 C120 1.389 . S
C122 P96 1.819 . S
C122 C123 1.391 . S
C122 C127 1.391 . S
C123 H105 0.941 . S
C123 C122 1.391 . S
C123 C124 1.396 . S
C124 H108 0.939 . S
C124 C123 1.396 . S
C124 C125 1.397 . S
C125 C124 1.397 . S
C125 C126 1.385 . S
C126 H109 0.940 . S
C126 C125 1.385 . S
C126 C127 1.388 . S
C127 H106 0.939 . S
C127 C122 1.391 . S
C127 C126 1.388 . S
P128 O139 1.490 . S
P128 C142 1.812 1_554 S
P128 C148 1.803 . S
P128 C154 1.819 . S
H129 C143 0.941 . S
H130 C144 0.939 . S
H131 C146 0.940 . S
H132 C147 0.940 . S
H133 C149 0.939 . S
H134 C150 0.942 . S
H135 C152 0.940 . S
H136 C153 0.939 . S
H137 C155 0.941 . S
H138 C159 0.939 . S
O139 P128 1.490 . S
H140 C156 0.939 . S
H141 C158 0.940 . S
C142 P128 1.812 1_556 S
C142 C143 1.389 . S
C142 C147 1.391 . S
C143 H129 0.941 . S
C143 C142 1.389 . S
C143 C144 1.397 . S
C144 H130 0.939 . S
C144 C143 1.397 . S
C144 C145 1.378 . S
C145 C144 1.378 . S
C145 C146 1.378 . S
C146 H131 0.940 . S
C146 C145 1.378 . S
C146 C147 1.396 . S
C147 H132 0.940 . S
C147 C142 1.391 . S
C147 C146 1.396 . S
C148 P128 1.803 . S
C148 C149 1.378 . S
C148 C153 1.400 . S
C149 H133 0.939 . S
C149 C148 1.378 . S
C149 C150 1.361 . S
C150 H134 0.942 . S
C150 C149 1.361 . S
C150 C151 1.369 . S
C151 C150 1.369 . S
C151 C152 1.404 . S
C152 H135 0.940 . S
C152 C151 1.404 . S
C152 C153 1.389 . S
C153 H136 0.939 . S
C153 C148 1.400 . S
C153 C152 1.389 . S
C154 P128 1.819 . S
C154 C155 1.391 . S
C154 C159 1.391 . S
C155 H137 0.941 . S
C155 C154 1.391 . S
C155 C156 1.396 . S
C156 H140 0.939 . S
C156 C155 1.396 . S
C156 C157 1.397 . S
C157 C156 1.397 . S
C157 C158 1.385 . S
C158 H141 0.940 . S
C158 C157 1.385 . S
C158 C159 1.388 . S
C159 H138 0.939 . S
C159 C154 1.391 . S
C159 C158 1.388 . S
P160 O171 1.490 . S
P160 C174 1.812 1_554 S
P160 C180 1.803 . S
P160 C186 1.819 . S
H161 C175 0.941 . S
H162 C176 0.939 . S
H163 C178 0.940 . S
H164 C179 0.945 . S
H165 C181 0.939 . S
H166 C182 0.942 . S
H167 C184 0.940 . S
H168 C185 0.954 . S
H169 C187 0.941 . S
H170 C191 0.932 1_655 S
O171 P160 1.490 . S
H172 C188 0.939 . S
H173 C190 0.940 . S
C174 P160 1.812 1_556 S
C174 C175 1.389 . S
C174 C179 1.383 1_455 S
C175 H161 0.941 . S
C175 C174 1.389 . S
C175 C176 1.397 . S
C176 H162 0.939 . S
C176 C175 1.397 . S
C176 C177 1.378 . S
C177 C176 1.378 . S
C177 C178 1.378 1_455 S
C178 H163 0.940 . S
C178 C177 1.378 1_655 S
C178 C179 1.400 . S
C179 H164 0.945 . S
C179 C174 1.383 1_655 S
C179 C178 1.400 . S
C180 P160 1.803 . S
C180 C181 1.378 . S
C180 C185 1.376 1_455 S
C181 H165 0.939 . S
C181 C180 1.378 . S
C181 C182 1.361 . S
C182 H166 0.942 . S
C182 C181 1.361 . S
C182 C183 1.369 . S
C183 C182 1.369 . S
C183 C184 1.404 1_455 S
C184 H167 0.940 . S
C184 C183 1.404 1_655 S
C184 C185 1.399 . S
C185 H168 0.954 . S
C185 C180 1.376 1_655 S
C185 C184 1.399 . S
C186 P160 1.819 . S
C186 C187 1.391 . S
C186 C191 1.391 . S
C187 H169 0.941 . S
C187 C186 1.391 . S
C187 C188 1.396 . S
C188 H172 0.939 . S
C188 C187 1.396 . S
C188 C189 1.397 . S
C189 C188 1.397 . S
C189 C190 1.385 1_455 S
C190 H173 0.940 . S
C190 C189 1.385 1_655 S
C190 C191 1.388 1_655 S
C191 H170 0.932 1_455 S
C191 C186 1.391 . S
C191 C190 1.388 1_455 S
P192 O203 1.490 . S
P192 C206 1.812 1_554 S
P192 C212 1.803 . S
P192 C218 1.819 . S
H193 C207 0.941 . S
H194 C208 0.939 . S
H195 C210 0.940 . S
H196 C211 0.945 . S
H197 C213 0.939 . S
H198 C214 0.942 . S
H199 C216 0.940 . S
H200 C217 0.954 . S
H201 C219 0.941 . S
H202 C223 0.932 1_565 S
O203 P192 1.490 . S
H204 C220 0.939 . S
H205 C222 0.940 . S
C206 P192 1.812 1_556 S
C206 C207 1.389 . S
C206 C211 1.383 1_545 S
C207 H193 0.941 . S
C207 C206 1.389 . S
C207 C208 1.397 . S
C208 H194 0.939 . S
C208 C207 1.397 . S
C208 C209 1.378 . S
C209 C208 1.378 . S
C209 C210 1.378 1_545 S
C210 H195 0.940 . S
C210 C209 1.378 1_565 S
C210 C211 1.400 . S
C211 H196 0.945 . S
C211 C206 1.383 1_565 S
C211 C210 1.400 . S
C212 P192 1.803 . S
C212 C213 1.378 . S
C212 C217 1.376 1_545 S
C213 H197 0.939 . S
C213 C212 1.378 . S
C213 C214 1.361 . S
C214 H198 0.942 . S
C214 C213 1.361 . S
C214 C215 1.369 . S
C215 C214 1.369 . S
C215 C216 1.404 1_545 S
C216 H199 0.940 . S
C216 C215 1.404 1_565 S
C216 C217 1.399 . S
C217 H200 0.954 . S
C217 C212 1.376 1_565 S
C217 C216 1.399 . S
C218 P192 1.819 . S
C218 C219 1.391 . S
C218 C223 1.391 . S
C219 H201 0.941 . S
C219 C218 1.391 . S
C219 C220 1.396 . S
C220 H204 0.939 . S
C220 C219 1.396 . S
C220 C221 1.397 . S
C221 C220 1.397 . S
C221 C222 1.385 1_545 S
C222 H205 0.940 . S
C222 C221 1.385 1_565 S
C222 C223 1.388 1_565 S
C223 H202 0.932 1_545 S
C223 C218 1.391 . S
C223 C222 1.388 1_545 S
P224 O235 1.490 . S
P224 C238 1.812 1_554 S
P224 C244 1.803 . S
P224 C250 1.819 . S
H225 C239 0.941 . S
H226 C240 0.939 . S
H227 C242 0.940 . S
H228 C243 0.940 . S
H229 C245 0.939 . S
H230 C246 0.942 . S
H231 C248 0.940 . S
H232 C249 0.939 . S
H233 C251 0.941 . S
H234 C255 0.939 . S
O235 P224 1.490 . S
H236 C252 0.939 . S
H237 C254 0.940 . S
C238 P224 1.812 1_556 S
C238 C239 1.389 . S
C238 C243 1.391 . S
C239 H225 0.941 . S
C239 C238 1.389 . S
C239 C240 1.397 . S
C240 H226 0.939 . S
C240 C239 1.397 . S
C240 C241 1.378 . S
C241 C240 1.378 . S
C241 C242 1.378 . S
C242 H227 0.940 . S
C242 C241 1.378 . S
C242 C243 1.396 . S
C243 H228 0.940 . S
C243 C238 1.391 . S
C243 C242 1.396 . S
C244 P224 1.803 . S
C244 C245 1.378 . S
C244 C249 1.400 . S
C245 H229 0.939 . S
C245 C244 1.378 . S
C245 C246 1.361 . S
C246 H230 0.942 . S
C246 C245 1.361 . S
C246 C247 1.369 . S
C247 C246 1.369 . S
C247 C248 1.404 . S
C248 H231 0.940 . S
C248 C247 1.404 . S
C248 C249 1.389 . S
C249 H232 0.939 . S
C249 C244 1.400 . S
C249 C248 1.389 . S
C250 P224 1.819 . S
C250 C251 1.391 . S
C250 C255 1.391 . S
C251 H233 0.941 . S
C251 C250 1.391 . S
C251 C252 1.396 . S
C252 H236 0.939 . S
C252 C251 1.396 . S
C252 C253 1.397 . S
C253 C252 1.397 . S
C253 C254 1.385 . S
C254 H237 0.940 . S
C254 C253 1.385 . S
C254 C255 1.388 . S
C255 H234 0.939 . S
C255 C250 1.391 . S
C255 C254 1.388 . S
Tb256 C266 2.825 . S
Tb256 O267 2.347 1_455 S
Tb256 O270 2.366 . S
Tb256 O275 2.418 . S
Tb256 O276 2.384 1_565 S
Tb256 O279 2.479 . S
Tb256 O280 2.471 . S
Eu257 O268 2.418 . S
Eu257 O269 2.384 1_545 S
Eu257 O272 2.479 . S
Eu257 O273 2.471 . S
Eu257 O274 2.347 1_655 S
Eu257 O277 2.366 . S
Eu257 C287 2.825 . S
C258 O274 1.259 1_565 S
C258 O275 1.265 . S
C259 O276 1.255 . S
C259 O277 1.265 1_455 S
C260 C262 1.380 1_556 S
C260 C263 1.374 1_556 S
C260 C266 1.507 . S
C261 C262 1.384 . S
C261 C265 1.387 . S
C261 H288 0.930 . S
C262 C260 1.380 1_554 S
C262 C261 1.384 . S
C262 H289 0.931 1_554 S
C263 C260 1.374 1_554 S
C263 C264 1.390 . S
C263 H290 0.930 1_455 S
C264 C263 1.390 . S
C264 C265 1.391 . S
C264 H291 0.931 1_455 S
C265 C261 1.387 . S
C265 C264 1.391 . S
C266 Tb256 2.825 . S
C266 C260 1.507 . S
C266 O279 1.238 . S
C266 O280 1.247 . S
O267 Tb256 2.347 1_655 S
O267 C271 1.259 1_565 S
O268 Eu257 2.418 . S
O268 C271 1.265 . S
O269 Eu257 2.384 1_565 S
O269 C278 1.255 . S
O270 Tb256 2.366 . S
O270 C278 1.265 1_455 S
C271 O267 1.259 1_545 S
C271 O268 1.265 . S
O272 Eu257 2.479 . S
O272 C287 1.238 . S
O273 Eu257 2.471 . S
O273 C287 1.247 . S
O274 Eu257 2.347 1_455 S
O274 C258 1.259 1_545 S
O275 Tb256 2.418 . S
O275 C258 1.265 . S
O276 Tb256 2.384 1_545 S
O276 C259 1.255 . S
O277 Eu257 2.366 . S
O277 C259 1.265 1_655 S
C278 O269 1.255 . S
C278 O270 1.265 1_655 S
O279 Tb256 2.479 . S
O279 C266 1.238 . S
O280 Tb256 2.471 . S
O280 C266 1.247 . S
C281 C284 1.380 . S
C281 C285 1.374 . S
C281 C287 1.507 . S
C282 C283 1.387 . S
C282 C286 1.391 . S
C283 C282 1.387 . S
C283 C284 1.384 . S
C283 H292 0.930 . S
C284 C281 1.380 . S
C284 C283 1.384 . S
C284 H293 0.931 . S
C285 C281 1.374 . S
C285 C286 1.390 . S
C285 H294 0.930 1_655 S
C286 C282 1.391 . S
C286 C285 1.390 . S
C286 H295 0.924 1_655 S
C287 Eu257 2.825 . S
C287 O272 1.238 . S
C287 O273 1.247 . S
C287 C281 1.507 . S
H288 C261 0.930 . S
H289 C262 0.931 1_556 S
H290 C263 0.930 1_655 S
H291 C264 0.931 1_655 S
H292 C283 0.930 . S
H293 C284 0.931 . S
H294 C285 0.930 1_455 S
H295 C286 0.924 1_455 S
Tb296 C306 2.825 . S
Tb296 O307 2.347 1_545 S
Tb296 O310 2.366 . S
Tb296 O315 2.418 . S
Tb296 O316 2.384 . S
Tb296 O319 2.479 . S
Tb296 O320 2.471 . S
Eu297 O308 2.418 . S
Eu297 O309 2.384 . S
Eu297 O312 2.479 . S
Eu297 O313 2.471 . S
Eu297 O314 2.347 1_565 S
Eu297 O317 2.366 . S
Eu297 C327 2.825 . S
C298 O314 1.259 . S
C298 O315 1.265 . S
C299 O316 1.255 . S
C299 O317 1.265 1_545 S
C300 C302 1.380 . S
C300 C303 1.376 . S
C300 C306 1.504 1_554 S
C301 C302 1.384 . S
C301 C305 1.387 . S
C301 H328 0.930 . S
C302 C300 1.380 . S
C302 C301 1.384 . S
C302 H329 0.931 1_554 S
C303 C300 1.376 . S
C303 C304 1.390 . S
C303 H330 0.930 1_545 S
C304 C303 1.390 . S
C304 C305 1.391 . S
C304 H331 0.930 1_545 S
C305 C301 1.387 . S
C305 C304 1.391 . S
C306 Tb296 2.825 . S
C306 C300 1.504 1_556 S
C306 O319 1.238 . S
C306 O320 1.247 . S
O307 Tb296 2.347 1_565 S
O307 C311 1.259 . S
O308 Eu297 2.418 . S
O308 C311 1.265 . S
O309 Eu297 2.384 . S
O309 C318 1.255 . S
O310 Tb296 2.366 . S
O310 C318 1.265 1_545 S
C311 O307 1.259 . S
C311 O308 1.265 . S
O312 Eu297 2.479 . S
O312 C327 1.238 . S
O313 Eu297 2.471 . S
O313 C327 1.247 . S
O314 Eu297 2.347 1_545 S
O314 C298 1.259 . S
O315 Tb296 2.418 . S
O315 C298 1.265 . S
O316 Tb296 2.384 . S
O316 C299 1.255 . S
O317 Eu297 2.366 . S
O317 C299 1.265 1_565 S
C318 O309 1.255 . S
C318 O310 1.265 1_565 S
O319 Tb296 2.479 . S
O319 C306 1.238 . S
O320 Tb296 2.471 . S
O320 C306 1.247 . S
C321 C324 1.380 . S
C321 C325 1.374 . S
C321 C327 1.507 . S
C322 C323 1.387 . S
C322 C326 1.391 . S
C323 C322 1.387 . S
C323 C324 1.384 . S
C323 H332 0.930 . S
C324 C321 1.380 . S
C324 C323 1.384 . S
C324 H333 0.931 . S
C325 C321 1.374 . S
C325 C326 1.390 . S
C325 H334 0.930 1_565 S
C326 C322 1.391 . S
C326 C325 1.390 . S
C326 H335 0.930 1_565 S
C327 Eu297 2.825 . S
C327 O312 1.238 . S
C327 O313 1.247 . S
C327 C321 1.507 . S
H328 C301 0.930 . S
H329 C302 0.931 1_556 S
H330 C303 0.930 1_565 S
H331 C304 0.930 1_565 S
H332 C323 0.930 . S
H333 C324 0.931 . S
H334 C325 0.930 1_545 S
H335 C326 0.930 1_545 S
Tb336 C346 2.825 . S
Tb336 O347 2.347 . S
Tb336 O350 2.366 . S
Tb336 O355 2.418 . S
Tb336 O356 2.384 . S
Tb336 O359 2.479 . S
Tb336 O360 2.471 . S
Eu337 O348 2.418 . S
Eu337 O349 2.384 . S
Eu337 O352 2.479 . S
Eu337 O353 2.471 . S
Eu337 O354 2.347 . S
Eu337 O357 2.366 . S
Eu337 C367 2.825 . S
C338 O354 1.259 . S
C338 O355 1.265 . S
C339 O356 1.255 . S
C339 O357 1.265 . S
C340 C342 1.380 . S
C340 C343 1.374 . S
C340 C346 1.507 1_554 S
C341 C342 1.384 . S
C341 C345 1.387 . S
C341 H368 0.930 . S
C342 C340 1.380 . S
C342 C341 1.384 . S
C342 H369 0.931 1_554 S
C343 C340 1.374 . S
C343 C344 1.390 . S
C343 H370 0.930 . S
C344 C343 1.390 . S
C344 C345 1.391 . S
C344 H371 0.930 . S
C345 C341 1.387 . S
C345 C344 1.391 . S
C346 Tb336 2.825 . S
C346 C340 1.507 1_556 S
C346 O359 1.238 . S
C346 O360 1.247 . S
O347 Tb336 2.347 . S
O347 C351 1.259 . S
O348 Eu337 2.418 . S
O348 C351 1.265 . S
O349 Eu337 2.384 . S
O349 C358 1.255 . S
O350 Tb336 2.366 . S
O350 C358 1.265 . S
C351 O347 1.259 . S
C351 O348 1.265 . S
O352 Eu337 2.479 . S
O352 C367 1.238 . S
O353 Eu337 2.471 . S
O353 C367 1.247 . S
O354 Eu337 2.347 . S
O354 C338 1.259 . S
O355 Tb336 2.418 . S
O355 C338 1.265 . S
O356 Tb336 2.384 . S
O356 C339 1.255 . S
O357 Eu337 2.366 . S
O357 C339 1.265 . S
C358 O349 1.255 . S
C358 O350 1.265 . S
O359 Tb336 2.479 . S
O359 C346 1.238 . S
O360 Tb336 2.471 . S
O360 C346 1.247 . S
C361 C364 1.380 . S
C361 C365 1.374 . S
C361 C367 1.507 . S
C362 C363 1.387 . S
C362 C366 1.391 . S
C363 C362 1.387 . S
C363 C364 1.384 . S
C363 H372 0.930 . S
C364 C361 1.380 . S
C364 C363 1.384 . S
C364 H373 0.931 . S
C365 C361 1.374 . S
C365 C366 1.390 . S
C365 H374 0.930 . S
C366 C362 1.391 . S
C366 C365 1.390 . S
C366 H375 0.930 . S
C367 Eu337 2.825 . S
C367 O352 1.238 . S
C367 O353 1.247 . S
C367 C361 1.507 . S
H368 C341 0.930 . S
H369 C342 0.931 1_556 S
H370 C343 0.930 . S
H371 C344 0.930 . S
H372 C363 0.930 . S
H373 C364 0.931 . S
H374 C365 0.930 . S
H375 C366 0.930 . S
Tb376 C386 2.825 . S
Tb376 O387 2.347 . S
Tb376 O390 2.366 . S
Tb376 O395 2.418 . S
Tb376 O396 2.384 1_655 S
Tb376 O399 2.479 . S
Tb376 O400 2.471 . S
Eu377 O388 2.418 . S
Eu377 O389 2.384 1_455 S
Eu377 O392 2.479 . S
Eu377 O393 2.471 . S
Eu377 O394 2.347 . S
Eu377 O397 2.366 . S
Eu377 C407 2.825 . S
C378 O394 1.259 1_655 S
C378 O395 1.265 . S
C379 O396 1.255 . S
C379 O397 1.265 . S
C380 C382 1.380 . S
C380 C383 1.374 . S
C380 C386 1.507 1_554 S
C381 C382 1.384 . S
C381 C385 1.387 . S
C381 H408 0.930 . S
C382 C380 1.380 . S
C382 C381 1.384 . S
C382 H409 0.931 1_554 S
C383 C380 1.374 . S
C383 C384 1.390 . S
C383 H410 0.930 . S
C384 C383 1.390 . S
C384 C385 1.391 . S
C384 H411 0.930 . S
C385 C381 1.387 . S
C385 C384 1.391 . S
C386 Tb376 2.825 . S
C386 C380 1.507 1_556 S
C386 O399 1.238 . S
C386 O400 1.247 . S
O387 Tb376 2.347 . S
O387 C391 1.259 1_655 S
O388 Eu377 2.418 . S
O388 C391 1.265 . S
O389 Eu377 2.384 1_655 S
O389 C398 1.255 . S
O390 Tb376 2.366 . S
O390 C398 1.265 . S
C391 O387 1.259 1_455 S
C391 O388 1.265 . S
O392 Eu377 2.479 . S
O392 C407 1.238 . S
O393 Eu377 2.471 . S
O393 C407 1.247 . S
O394 Eu377 2.347 . S
O394 C378 1.259 1_455 S
O395 Tb376 2.418 . S
O395 C378 1.265 . S
O396 Tb376 2.384 1_455 S
O396 C379 1.255 . S
O397 Eu377 2.366 . S
O397 C379 1.265 . S
C398 O389 1.255 . S
C398 O390 1.265 . S
O399 Tb376 2.479 . S
O399 C386 1.238 . S
O400 Tb376 2.471 . S
O400 C386 1.247 . S
C401 C404 1.380 . S
C401 C405 1.374 . S
C401 C407 1.507 . S
C402 C403 1.387 . S
C402 C406 1.391 . S
C403 C402 1.387 . S
C403 C404 1.384 . S
C403 H412 0.930 . S
C404 C401 1.380 . S
C404 C403 1.384 . S
C404 H413 0.931 . S
C405 C401 1.374 . S
C405 C406 1.390 . S
C405 H414 0.930 . S
C406 C402 1.391 . S
C406 C405 1.390 . S
C406 H415 0.930 . S
C407 Eu377 2.825 . S
C407 O392 1.238 . S
C407 O393 1.247 . S
C407 C401 1.507 . S
H408 C381 0.930 . S
H409 C382 0.931 1_556 S
H410 C383 0.930 . S
H411 C384 0.930 . S
H412 C403 0.930 . S
H413 C404 0.931 . S
H414 C405 0.930 . S
H415 C406 0.930 . S
C416 C417 1.385 . S
C416 H420 0.950 . S
C416 C425 1.390 . S
C417 C416 1.385 . S
C417 C419 1.390 1_545 S
H418 C425 0.950 . S
C419 C417 1.390 1_565 S
C419 C421 1.390 . S
C419 H423 0.950 . S
H420 C416 0.950 . S
C421 C419 1.390 . S
C421 C422 1.386 . S
C421 H424 0.950 . S
C422 C421 1.386 . S
C422 C425 1.389 1_565 S
H423 C419 0.950 . S
H424 C421 0.950 . S
C425 C416 1.390 . S
C425 H418 0.950 . S
C425 C422 1.389 1_545 S
C426 C427 1.387 . S
C426 H430 0.950 . S
C426 C435 1.390 . S
C427 C426 1.387 . S
C427 C429 1.387 . S
H428 C435 0.950 . S
C429 C427 1.387 . S
C429 C431 1.390 . S
C429 H433 0.950 . S
H430 C426 0.950 . S
C431 C429 1.390 . S
C431 C432 1.387 . S
C431 H434 0.950 . S
C432 C431 1.387 . S
C432 C435 1.387 . S
H433 C429 0.950 . S
H434 C431 0.950 . S
C435 C426 1.390 . S
C435 H428 0.950 . S
C435 C432 1.387 . S
C436 C437 1.387 . S
C436 H440 0.950 . S
C436 C445 1.390 . S
C437 C436 1.387 . S
C437 C439 1.387 . S
H438 C445 0.950 . S
C439 C437 1.387 . S
C439 C441 1.390 . S
C439 H443 0.950 . S
H440 C436 0.950 . S
C441 C439 1.390 . S
C441 C442 1.387 . S
C441 H444 0.950 . S
C442 C441 1.387 . S
C442 C445 1.387 . S
H443 C439 0.950 . S
H444 C441 0.950 . S
C445 C436 1.390 . S
C445 H438 0.950 . S
C445 C442 1.387 . S
C446 C447 1.392 . S
C446 H450 0.950 . S
C446 C455 1.390 . S
C447 C446 1.392 . S
C447 C449 1.384 1_455 S
H448 C455 0.950 . S
C449 C447 1.384 1_655 S
C449 C451 1.390 . S
C449 H453 0.950 . S
H450 C446 0.950 . S
C451 C449 1.390 . S
C451 C452 1.387 1_655 S
C451 H454 0.950 . S
C452 C451 1.387 1_455 S
C452 C455 1.387 . S
H453 C449 0.950 . S
H454 C451 0.950 . S
C455 C446 1.390 . S
C455 H448 0.950 . S
C455 C452 1.387 . S
C456 C457 1.386 1_565 S
C456 H460 0.950 . S
C456 C465 1.390 . S
C457 C456 1.386 1_545 S
C457 C459 1.389 . S
H458 C465 0.950 . S
C459 C457 1.389 . S
C459 C461 1.390 . S
C459 H463 0.950 . S
H460 C456 0.950 . S
C461 C459 1.390 . S
C461 C462 1.395 . S
C461 H464 0.950 . S
C462 C461 1.395 . S
C462 C465 1.380 1_545 S
H463 C459 0.950 . S
H464 C461 0.950 . S
C465 C456 1.390 . S
C465 H458 0.950 . S
C465 C462 1.380 1_565 S
C466 C467 1.387 . S
C466 H470 0.950 . S
C466 C475 1.390 . S
C467 C466 1.387 . S
C467 C469 1.387 . S
H468 C475 0.950 . S
C469 C467 1.387 . S
C469 C471 1.390 . S
C469 H473 0.950 . S
H470 C466 0.950 . S
C471 C469 1.390 . S
C471 C472 1.387 . S
C471 H474 0.950 . S
C472 C471 1.387 . S
C472 C475 1.387 . S
H473 C469 0.950 . S
H474 C471 0.950 . S
C475 C466 1.390 . S
C475 H468 0.950 . S
C475 C472 1.387 . S
C476 C477 1.387 . S
C476 H480 0.950 . S
C476 C485 1.390 . S
C477 C476 1.387 . S
C477 C479 1.387 . S
H478 C485 0.950 . S
C479 C477 1.387 . S
C479 C481 1.390 . S
C479 H483 0.950 . S
H480 C476 0.950 . S
C481 C479 1.390 . S
C481 C482 1.387 . S
C481 H484 0.950 . S
C482 C481 1.387 . S
C482 C485 1.387 . S
H483 C479 0.950 . S
H484 C481 0.950 . S
C485 C476 1.390 . S
C485 H478 0.950 . S
C485 C482 1.387 . S
C486 C487 1.406 . S
C486 H490 0.950 . S
C486 C495 1.390 . S
C487 C486 1.406 . S
C487 C489 1.370 1_655 S
H488 C495 0.950 . S
C489 C487 1.370 1_455 S
C489 C491 1.390 . S
C489 H493 0.950 . S
H490 C486 0.950 . S
C491 C489 1.390 . S
C491 C492 1.387 1_455 S
C491 H494 0.950 . S
C492 C491 1.387 1_655 S
C492 C495 1.387 . S
H493 C489 0.950 . S
H494 C491 0.950 . S
C495 C486 1.390 . S
C495 H488 0.950 . S
C495 C492 1.387 . S
C496 C497 1.390 . S
C496 H500 0.942 1_655 S
C496 C505 1.390 . S
C497 C496 1.390 . S
C497 C499 1.392 . S
H498 C505 0.950 . S
C499 C497 1.392 . S
C499 C501 1.390 . S
C499 H503 0.950 . S
H500 C496 0.942 1_455 S
C501 C499 1.390 . S
C501 C502 1.387 . S
C501 H504 0.950 . S
C502 C501 1.387 . S
C502 C505 1.387 . S
H503 C499 0.950 . S
H504 C501 0.950 . S
C505 C496 1.390 . S
C505 H498 0.950 . S
C505 C502 1.387 . S
C506 C507 1.392 . S
C506 H510 0.950 . S
C506 C515 1.390 . S
C507 C506 1.392 . S
C507 C509 1.386 1_565 S
H508 C515 0.950 . S
C509 C507 1.386 1_545 S
C509 C511 1.390 1_545 S
C509 H513 0.950 . S
H510 C506 0.950 . S
C511 C509 1.390 1_565 S
C511 C512 1.387 . S
C511 H514 0.950 . S
C512 C511 1.387 . S
C512 C515 1.387 . S
H513 C509 0.950 . S
H514 C511 0.950 . S
C515 C506 1.390 . S
C515 H508 0.950 . S
C515 C512 1.387 . S
C516 C517 1.387 . S
C516 H520 0.950 . S
C516 C525 1.390 . S
C517 C516 1.387 . S
C517 C519 1.387 . S
H518 C525 0.950 . S
C519 C517 1.387 . S
C519 C521 1.390 . S
C519 H523 0.950 . S
H520 C516 0.950 . S
C521 C519 1.390 . S
C521 C522 1.387 . S
C521 H524 0.950 . S
C522 C521 1.387 . S
C522 C525 1.387 . S
H523 C519 0.950 . S
H524 C521 0.950 . S
C525 C516 1.390 . S
C525 H518 0.950 . S
C525 C522 1.387 . S
C526 C527 1.387 . S
C526 H530 0.950 . S
C526 C535 1.390 . S
C527 C526 1.387 . S
C527 C529 1.387 . S
H528 C535 0.950 . S
C529 C527 1.387 . S
C529 C531 1.390 . S
C529 H533 0.950 . S
H530 C526 0.950 . S
C531 C529 1.390 . S
C531 C532 1.387 . S
C531 H534 0.950 . S
C532 C531 1.387 . S
C532 C535 1.387 . S
H533 C529 0.950 . S
H534 C531 0.950 . S
C535 C526 1.390 . S
C535 H528 0.950 . S
C535 C532 1.387 . S
C536 C537 1.390 . S
C536 H540 0.950 1_455 S
C536 C545 1.390 . S
C537 C536 1.390 . S
C537 C539 1.393 . S
H538 C545 0.950 . S
C539 C537 1.393 . S
C539 C541 1.390 . S
C539 H543 0.950 . S
H540 C536 0.950 1_655 S
C541 C539 1.390 . S
C541 C542 1.387 . S
C541 H544 0.950 . S
C542 C541 1.387 . S
C542 C545 1.387 . S
H543 C539 0.950 . S
H544 C541 0.950 . S
C545 C536 1.390 . S
C545 H538 0.950 . S
C545 C542 1.387 . S
C546 C547 1.393 . S
C546 H550 0.950 . S
C546 C555 1.390 . S
C547 C546 1.393 . S
C547 C549 1.388 . S
H548 C555 0.950 . S
C549 C547 1.388 . S
C549 C551 1.390 . S
C549 H553 0.950 1_545 S
H550 C546 0.950 . S
C551 C549 1.390 . S
C551 C552 1.387 . S
C551 H554 0.950 1_554 S
C552 C551 1.387 . S
C552 C555 1.387 . S
H553 C549 0.950 1_565 S
H554 C551 0.950 1_556 S
C555 C546 1.390 . S
C555 H548 0.950 . S
C555 C552 1.387 . S
C556 C557 1.387 . S
C556 H560 0.950 . S
C556 C565 1.390 . S
C557 C556 1.387 . S
C557 C559 1.387 . S
H558 C565 0.950 . S
C559 C557 1.387 . S
C559 C561 1.390 . S
C559 H563 0.950 . S
H560 C556 0.950 . S
C561 C559 1.390 . S
C561 C562 1.387 . S
C561 H564 0.950 1_554 S
C562 C561 1.387 . S
C562 C565 1.387 . S
H563 C559 0.950 . S
H564 C561 0.950 1_556 S
C565 C556 1.390 . S
C565 H558 0.950 . S
C565 C562 1.387 . S
C566 C567 1.387 . S
C566 H570 0.950 . S
C566 C575 1.390 . S
C567 C566 1.387 . S
C567 C569 1.387 . S
H568 C575 0.950 . S
C569 C567 1.387 . S
C569 C571 1.390 . S
C569 H573 0.950 . S
H570 C566 0.950 . S
C571 C569 1.390 . S
C571 C572 1.387 . S
C571 H574 0.950 . S
C572 C571 1.387 . S
C572 C575 1.387 . S
H573 C569 0.950 . S
H574 C571 0.950 . S
C575 C566 1.390 . S
C575 H568 0.950 . S
C575 C572 1.387 . S
C576 C577 1.387 1_655 S
C576 H580 0.950 . S
C576 C585 1.390 . S
C577 C576 1.387 1_455 S
C577 C579 1.387 . S
H578 C585 0.950 . S
C579 C577 1.387 . S
C579 C581 1.390 . S
C579 H583 0.950 . S
H580 C576 0.950 . S
C581 C579 1.390 . S
C581 C582 1.387 . S
C581 H584 0.950 . S
C582 C581 1.387 . S
C582 C585 1.387 1_455 S
H583 C579 0.950 . S
H584 C581 0.950 . S
C585 C576 1.390 . S
C585 H578 0.950 . S
C585 C582 1.387 1_655 S
C586 C587 1.387 . S
C586 H590 0.950 . S
C586 C595 1.390 . S
C587 C586 1.387 . S
C587 C589 1.387 1_545 S
H588 C595 0.950 . S
C589 C587 1.387 1_565 S
C589 C591 1.390 . S
C589 H593 0.950 . S
H590 C586 0.950 . S
C591 C589 1.390 . S
C591 C592 1.387 1_565 S
C591 H594 0.950 . S
C592 C591 1.387 1_545 S
C592 C595 1.387 . S
H593 C589 0.950 . S
H594 C591 0.950 . S
C595 C586 1.390 . S
C595 H588 0.950 . S
C595 C592 1.387 . S
C596 C597 1.387 . S
C596 H600 0.950 . S
C596 C605 1.390 . S
C597 C596 1.387 . S
C597 C599 1.387 . S
H598 C605 0.950 . S
C599 C597 1.387 . S
C599 C601 1.390 . S
C599 H603 0.950 . S
H600 C596 0.950 . S
C601 C599 1.390 . S
C601 C602 1.387 . S
C601 H604 0.950 . S
C602 C601 1.387 . S
C602 C605 1.387 . S
H603 C599 0.950 . S
H604 C601 0.950 . S
C605 C596 1.390 . S
C605 H598 0.950 . S
C605 C602 1.387 . S
C606 C607 1.387 . S
C606 H610 0.950 . S
C606 C615 1.390 . S
C607 C606 1.387 . S
C607 C609 1.387 . S
H608 C615 0.950 . S
C609 C607 1.387 . S
C609 C611 1.390 . S
C609 H613 0.950 . S
H610 C606 0.950 . S
C611 C609 1.390 . S
C611 C612 1.387 . S
C611 H614 0.950 . S
C612 C611 1.387 . S
C612 C615 1.387 . S
H613 C609 0.950 . S
H614 C611 0.950 . S
C615 C606 1.390 . S
C615 H608 0.950 . S
C615 C612 1.387 . S
C616 C617 1.387 . S
C616 H620 0.950 . S
C616 C625 1.390 . S
C617 C616 1.387 . S
C617 C619 1.387 1_655 S
H618 C625 0.950 . S
C619 C617 1.387 1_455 S
C619 C621 1.390 . S
C619 H623 0.950 . S
H620 C616 0.950 . S
C621 C619 1.390 . S
C621 C622 1.387 1_455 S
C621 H624 0.950 . S
C622 C621 1.387 1_655 S
C622 C625 1.387 . S
H623 C619 0.950 . S
H624 C621 0.950 . S
C625 C616 1.390 . S
C625 H618 0.950 . S
C625 C622 1.387 . S
C626 C627 1.387 . S
C626 H630 0.950 . S
C626 C635 1.390 . S
C627 C626 1.387 . S
C627 C629 1.387 1_565 S
H628 C635 0.950 . S
C629 C627 1.387 1_545 S
C629 C631 1.390 . S
C629 H633 0.950 . S
H630 C626 0.950 . S
C631 C629 1.390 . S
C631 C632 1.387 1_545 S
C631 H634 0.950 . S
C632 C631 1.387 1_565 S
C632 C635 1.387 . S
H633 C629 0.950 . S
H634 C631 0.950 . S
C635 C626 1.390 . S
C635 H628 0.950 . S
C635 C632 1.387 . S
C636 C637 1.387 . S
C636 H640 0.950 . S
C636 C645 1.390 . S
C637 C636 1.387 . S
C637 C639 1.387 . S
H638 C645 0.950 . S
C639 C637 1.387 . S
C639 C641 1.390 . S
C639 H643 0.950 . S
H640 C636 0.950 . S
C641 C639 1.390 . S
C641 C642 1.387 . S
C641 H644 0.950 . S
C642 C641 1.387 . S
C642 C645 1.387 . S
H643 C639 0.950 . S
H644 C641 0.950 . S
C645 C636 1.390 . S
C645 H638 0.950 . S
C645 C642 1.387 . S
C646 C647 1.387 . S
C646 H650 0.950 . S
C646 C655 1.390 . S
C647 C646 1.387 . S
C647 C649 1.387 . S
H648 C655 0.950 . S
C649 C647 1.387 . S
C649 C651 1.390 . S
C649 H653 0.950 . S
H650 C646 0.950 . S
C651 C649 1.390 . S
C651 C652 1.387 . S
C651 H654 0.950 . S
C652 C651 1.387 . S
C652 C655 1.387 . S
H653 C649 0.950 . S
H654 C651 0.950 . S
C655 C646 1.390 . S
C655 H648 0.950 . S
C655 C652 1.387 . S
C417 C215 2.323 . S
C422 C258 2.606 . S
C432 C298 2.626 . S
C427 C247 2.325 . S
C442 C338 2.634 . S
C437 C151 2.335 . S
C452 C378 2.615 1_455 S
C447 C183 2.334 . S
C462 C271 2.609 1_554 S
C457 C87 2.327 . S
C467 C119 2.366 . S
C472 C311 2.629 1_554 S
C477 C23 2.381 . S
C482 C351 2.635 1_554 S
C487 C55 2.335 1_655 S
C492 C391 2.615 1_654 S
C502 C282 0.775 . S
C497 C189 0.774 1_655 S
C512 C322 0.762 . S
C507 C221 0.767 1_565 S
C522 C362 0.732 . S
C517 C253 0.722 . S
C527 C157 0.726 . S
C532 C402 0.726 . S
C537 C61 0.771 . S
C542 C265 0.778 . S
C552 C305 0.766 . S
C547 C93 0.761 . S
C562 C345 0.732 . S
C557 C125 0.741 . S
C567 C29 0.742 . S
C572 C385 0.739 . S
C577 C177 2.830 . S
C582 C259 3.251 . S
C587 C209 2.788 . S
C592 C299 3.216 . S
C602 C339 3.204 . S
C597 C241 2.758 . S
C612 C379 3.245 . S
C607 C145 2.797 . S
C617 C49 2.868 1_655 S
C622 C278 3.259 . S
C632 C318 3.215 . S
C627 C81 2.825 1_565 S
C642 C358 3.204 . S
C637 C113 2.829 . S
C647 C17 2.869 . S
C652 C398 3.249 . S
