# Generated by pormake.
# Topology zzz, (3,6)-cn, num edge types: 1
# Building blocks:
#     Node 0, Type 0, BuildingBlock: PAMTOO_clean_linker_0, # of connection points: 3
#     Node 1, Type 0, BuildingBlock: PAMTOO_clean_linker_0, # of connection points: 3
#     Node 2, Type 0, BuildingBlock: PAMTOO_clean_linker_0, # of connection points: 3
#     Node 3, Type 0, BuildingBlock: PAMTOO_clean_linker_0, # of connection points: 3
#     Node 4, Type 0, BuildingBlock: PAMTOO_clean_linker_0, # of connection points: 3
#     Node 5, Type 0, BuildingBlock: PAMTOO_clean_linker_0, # of connection points: 3
#     Node 6, Type 0, BuildingBlock: PAMTOO_clean_linker_0, # of connection points: 3
#     Node 7, Type 0, BuildingBlock: PAMTOO_clean_linker_0, # of connection points: 3
#     Node 8, Type 1, BuildingBlock: KUMJIN_clean_sbu_0, # of connection points: 6
#     Node 9, Type 1, BuildingBlock: KUMJIN_clean_sbu_0, # of connection points: 6
#     Node 10, Type 1, BuildingBlock: KUMJIN_clean_sbu_0, # of connection points: 6
#     Node 11, Type 1, BuildingBlock: KUMJIN_clean_sbu_0, # of connection points: 6
#     Edge 12, Type (0, 1), BuildingBlock: CIFDUS_clean_linker_0, # of connection points: 2
#     Edge 13, Type (0, 1), BuildingBlock: CIFDUS_clean_linker_0, # of connection points: 2
#     Edge 14, Type (0, 1), BuildingBlock: CIFDUS_clean_linker_0, # of connection points: 2
#     Edge 15, Type (0, 1), BuildingBlock: CIFDUS_clean_linker_0, # of connection points: 2
#     Edge 16, Type (0, 1), BuildingBlock: CIFDUS_clean_linker_0, # of connection points: 2
#     Edge 17, Type (0, 1), BuildingBlock: CIFDUS_clean_linker_0, # of connection points: 2
#     Edge 18, Type (0, 1), BuildingBlock: CIFDUS_clean_linker_0, # of connection points: 2
#     Edge 19, Type (0, 1), BuildingBlock: CIFDUS_clean_linker_0, # of connection points: 2
#     Edge 20, Type (0, 1), BuildingBlock: CIFDUS_clean_linker_0, # of connection points: 2
#     Edge 21, Type (0, 1), BuildingBlock: CIFDUS_clean_linker_0, # of connection points: 2
#     Edge 22, Type (0, 1), BuildingBlock: CIFDUS_clean_linker_0, # of connection points: 2
#     Edge 23, Type (0, 1), BuildingBlock: CIFDUS_clean_linker_0, # of connection points: 2
#     Edge 24, Type (0, 1), BuildingBlock: CIFDUS_clean_linker_0, # of connection points: 2
#     Edge 25, Type (0, 1), BuildingBlock: CIFDUS_clean_linker_0, # of connection points: 2
#     Edge 26, Type (0, 1), BuildingBlock: CIFDUS_clean_linker_0, # of connection points: 2
#     Edge 27, Type (0, 1), BuildingBlock: CIFDUS_clean_linker_0, # of connection points: 2
#     Edge 28, Type (0, 1), BuildingBlock: CIFDUS_clean_linker_0, # of connection points: 2
#     Edge 29, Type (0, 1), BuildingBlock: CIFDUS_clean_linker_0, # of connection points: 2
#     Edge 30, Type (0, 1), BuildingBlock: CIFDUS_clean_linker_0, # of connection points: 2
#     Edge 31, Type (0, 1), BuildingBlock: CIFDUS_clean_linker_0, # of connection points: 2
#     Edge 32, Type (0, 1), BuildingBlock: CIFDUS_clean_linker_0, # of connection points: 2
#     Edge 33, Type (0, 1), BuildingBlock: CIFDUS_clean_linker_0, # of connection points: 2
#     Edge 34, Type (0, 1), BuildingBlock: CIFDUS_clean_linker_0, # of connection points: 2
#     Edge 35, Type (0, 1), BuildingBlock: CIFDUS_clean_linker_0, # of connection points: 2
# Relax obj value: 0.195
# Max RMSD: 0.172
# Mean RMSD: 0.116
data_MOF--net-zzz--node1-KUMJIN_clean_sbu_0--node2-PAMTOO_clean_linker_0--edge1-CIFDUS_clean_linker_0
_symmetry_space_group_name_H-M    P1
_symmetry_Int_Tables_number       1
_symmetry_cell_setting            triclinic
loop_
_symmetry_equiv_pos_as_xyz
'x, y, z'
_cell_length_a     43.977426
_cell_length_b     43.903016
_cell_length_c     12.985605
_cell_angle_alpha  91.463102
_cell_angle_beta   89.617847
_cell_angle_gamma 90.049649
loop_
_atom_site_label
_atom_site_type_symbol
_atom_site_fract_x
_atom_site_fract_y
_atom_site_fract_z
_atom_type_partial_charge
H0 H 0.83935 0.58578 0.29314 0.0
H1 H 0.75355 0.58907 0.13823 0.0
H2 H 0.77093 0.51883 0.35771 0.0
H3 H 0.72561 0.50223 0.14814 0.0
C4 C 0.72133 0.52689 0.13751 0.0
O5 O 0.72926 0.54274 0.22811 0.0
H6 H 0.73637 0.53385 0.07286 0.0
C7 C 0.81654 0.57695 0.28216 0.0
C8 C 0.80816 0.55086 0.33503 0.0
C9 C 0.79751 0.59057 0.21011 0.0
C10 C 0.7682 0.57896 0.19476 0.0
C11 C 0.75814 0.55324 0.24743 0.0
C12 C 0.77828 0.53897 0.3181 0.0
H13 H 1.00226 0.84679 0.22542 0.0
H14 H 1.00603 0.75382 0.11537 0.0
H15 H 0.03194 0.77629 0.42735 0.0
H16 H 0.98577 0.71316 0.24081 0.0
C17 C 1.00897 0.70574 0.26307 0.0
O18 O 0.02818 0.7311 0.27693 0.0
H19 H 1.00618 0.69468 0.33854 0.0
C20 C 1.00624 0.82297 0.24064 0.0
C21 C 1.01714 0.81513 0.33805 0.0
C22 C 1.00209 0.80109 0.16056 0.0
C23 C 1.00831 0.77053 0.17777 0.0
C24 C 1.01888 0.76097 0.27232 0.0
C25 C 0.02293 0.78332 0.35435 0.0
H26 H 0.70043 0.02669 0.20469 0.0
H27 H 0.79437 0.02925 0.12015 0.0
H28 H 0.76917 1.0104 0.43368 0.0
H29 H 0.82353 0.97782 0.21439 0.0
C30 C 0.83636 0.99552 0.25909 0.0
O31 O 0.81652 1.01824 0.29699 0.0
H32 H 0.84612 0.98394 0.32636 0.0
C33 C 0.72398 0.02458 0.22765 0.0
C34 C 0.73098 1.01874 0.33078 0.0
C35 C 0.7467 0.02849 0.15302 0.0
C36 C 0.77715 0.02602 0.17878 0.0
C37 C 0.78584 1.01889 0.27798 0.0
C38 C 0.76263 1.01501 0.35542 0.0
H39 H 0.59966 0.73067 0.2744 0.0
H40 H 0.59318 0.82027 0.15316 0.0
H41 H 0.53476 0.79463 0.40453 0.0
H42 H 0.50809 0.85598 0.25944 0.0
C43 C 0.52781 0.84856 0.21123 0.0
O44 O 0.55113 0.84005 0.27693 0.0
H45 H 0.52001 0.82839 0.16468 0.0
C46 C 0.59033 0.7535 0.28082 0.0
C47 C 0.56697 0.75956 0.35286 0.0
C48 C 0.59978 0.77503 0.20897 0.0
C49 C 0.58642 0.80387 0.21001 0.0
C50 C 0.56311 0.8113 0.27973 0.0
C51 C 0.55303 0.789 0.35112 0.0
H52 H 0.21789 0.46942 0.14101 0.0
H53 H 0.3063 0.47192 0.27762 0.0
H54 H 0.28595 0.52979 0.02298 0.0
H55 H 0.32243 0.52954 0.3112 0.0
C56 C 0.33728 0.53316 0.24278 0.0
O57 O 0.32884 0.51348 0.16158 0.0
H58 H 0.3332 0.55697 0.21931 0.0
C59 C 0.24127 0.47716 0.13883 0.0
C60 C 0.24929 0.49906 0.06677 0.0
C61 C 0.26135 0.46724 0.21483 0.0
C62 C 0.29087 0.47903 0.21808 0.0
C63 C 0.29999 0.50188 0.15091 0.0
C64 C 0.27902 0.51218 0.07508 0.0
H65 H 0.0359 0.19797 0.20518 0.0
H66 H 0.03127 0.28762 0.34393 0.0
H67 H 0.037 0.27695 0.01353 0.0
H68 H 0.06974 0.34647 0.15063 0.0
C69 C 0.05621 0.33806 0.21661 0.0
O70 O 0.03393 0.31789 0.17788 0.0
H71 H 0.07243 0.32563 0.2658 0.0
C72 C 0.03694 0.22248 0.19664 0.0
C73 C 0.03753 0.23432 0.09728 0.0
C74 C 0.03443 0.24153 0.2848 0.0
C75 C 0.03389 0.27313 0.27555 0.0
C76 C 0.03613 0.28656 0.17968 0.0
C77 C 0.0374 0.26699 0.08888 0.0
H78 H 0.33676 0.07472 0.09872 0.0
H79 H 0.24506 0.07976 0.21497 0.0
H80 H 0.26537 0.0254 0.9428 0.0
H81 H 0.22792 1.01443 0.20447 0.0
C82 C 0.2103 0.02072 0.14754 0.0
O83 O 0.22155 0.04295 0.08192 0.0
H84 H 0.20601 0.99966 0.10062 0.0
C85 C 0.31279 0.06984 0.08938 0.0
C86 C 0.30401 0.05084 1.0059 0.0
C87 C 0.2921 0.07962 0.16694 0.0
C88 C 0.26132 0.07205 0.15691 0.0
C89 C 0.25148 0.05187 0.07936 0.0
C90 C 0.27291 0.04102 1.00323 0.0
H91 H 0.46178 0.34933 0.13034 0.0
H92 H 0.47018 0.26119 0.2637 0.0
H93 H 0.51923 0.2812 0.98562 0.0
H94 H 0.49941 0.20447 0.0283 0.0
C95 C 0.49313 0.21182 0.10808 0.0
O96 O 0.50806 0.23918 0.13036 0.0
H97 H 0.46803 0.21518 0.1087 0.0
C98 C 0.47059 0.32632 0.12677 0.0
C99 C 0.49124 0.31842 0.04721 0.0
C100 C 0.46322 0.30633 0.20654 0.0
C101 C 0.47512 0.27675 0.20234 0.0
C102 C 0.49479 0.26721 0.12288 0.0
C103 C 0.50288 0.28806 0.04441 0.0
Eu104 Eu 0.05792 1.01711 0.82186 0.0
C105 C 0.98311 0.97607 0.4841 0.0
C106 C 0.99901 0.98776 0.31051 0.0
C107 C 0.97569 0.93884 0.3443 0.0
C108 C 0.99626 0.99594 0.41603 0.0
C109 C 0.97181 0.94763 0.44828 0.0
C110 C 0.98963 0.95872 0.27586 0.0
C111 C 0.95406 0.93841 0.62092 0.0
N112 N 0.98109 0.98461 0.58516 0.0
C113 C 0.9664 0.9664 0.65339 0.0
C114 C 0.95704 0.92883 0.51811 0.0
Eu115 Eu 1.00163 0.033 0.6335 0.0
N116 N 1.00542 0.02366 0.45222 0.0
C117 C 1.01462 0.04544 0.38498 0.0
C118 C 1.0106 1.0092 0.24269 0.0
C119 C 1.01796 0.03834 0.28001 0.0
H120 H 0.96441 0.97295 0.7335 0.0
H121 H 0.02645 0.05527 0.22831 0.0
H122 H 0.99247 0.95167 0.19586 0.0
H123 H 0.94274 0.92401 0.6757 0.0
H124 H 0.02062 0.06802 0.41357 0.0
H125 H 1.01389 0.10242 0.10362 0.0
H126 H 1.01323 1.00377 0.16123 0.0
H127 H 0.13 1.00518 0.74284 0.0
H128 H 1.01009 0.06152 0.97436 0.0
H129 H 0.18142 0.02551 0.7773 0.0
H130 H 0.96785 0.91679 0.31598 0.0
H131 H 0.06388 0.12426 0.14894 0.0
H132 H 0.12007 0.12491 0.12181 0.0
H133 H 0.94799 0.90688 0.49359 0.0
H134 H 0.16529 0.10487 0.03119 0.0
N135 N 0.05782 0.05906 0.94304 0.0
C136 C 0.03234 0.06993 0.99287 0.0
C137 C 0.0625 0.10596 0.09157 0.0
C138 C 0.08857 0.09482 0.04152 0.0
C139 C 0.03427 0.09366 0.06631 0.0
C140 C 0.08554 0.07125 0.96598 0.0
H141 H 0.18825 0.06834 0.90219 0.0
N142 N 0.10763 0.03778 0.84116 0.0
C143 C 0.16183 0.03579 0.81518 0.0
C144 C 0.11104 0.06053 0.913 0.0
C145 C 0.13267 0.02461 0.79494 0.0
C146 C 0.16558 0.05992 0.8858 0.0
C147 C 0.14015 0.07234 0.93667 0.0
O148 O 0.09159 0.99714 0.92376 0.0
O149 O 0.02716 0.99442 0.7028 0.0
O150 O 0.97578 0.02469 0.78507 0.0
O151 O 1.01217 1.01118 0.90509 0.0
O152 O 0.07234 0.98111 0.70039 0.0
O153 O 0.0467 0.97813 0.91595 0.0
O154 O 0.95381 0.04103 0.67419 0.0
O155 O 0.0267 0.05374 0.77004 0.0
O156 O 0.08339 0.03419 0.67908 0.0
O157 O 0.04794 0.03352 0.54698 0.0
O158 O 0.02312 0.08059 0.6433 0.0
O159 O 0.97411 0.06509 0.5492 0.0
C160 C 0.04617 0.97615 0.65879 0.0
C161 C 0.08833 0.94404 0.91738 0.0
C162 C 0.08254 0.89299 0.84109 0.0
C163 C 0.0725 0.92315 0.85468 0.0
C164 C 0.11193 0.88581 0.87672 0.0
C165 C 0.11714 0.93636 0.95383 0.0
C166 C 0.12924 0.9076 0.93064 0.0
C167 C 0.98349 1.01577 0.87813 0.0
C168 C 0.07476 0.97387 0.94332 0.0
C169 C 0.14313 0.0956 1.01203 0.0
C170 C 0.11741 0.10687 0.06404 0.0
C171 C 0.03368 0.07983 0.73561 0.0
C172 C 0.94137 0.09306 0.66176 0.0
C173 C 0.95547 0.1202 0.63338 0.0
C174 C 0.94931 0.14785 0.68585 0.0
C175 C 0.92744 0.14855 0.76498 0.0
C176 C 0.91964 0.094 0.74157 0.0
C177 C 0.91267 0.12165 0.79253 0.0
C178 C 0.07636 0.03623 0.58014 0.0
C179 C 0.95126 0.06386 0.61313 0.0
H180 H 0.05119 0.93005 0.82239 0.0
H181 H 0.12105 0.863 0.86952 0.0
H182 H 0.13015 0.9525 1.00016 0.0
H183 H 0.15148 0.90164 0.95912 0.0
H184 H 0.97158 0.11988 0.56987 0.0
H185 H 0.92202 0.1697 0.80577 0.0
H186 H 0.90835 0.07336 0.76522 0.0
H187 H 0.89597 0.12218 0.85416 0.0
Eu188 Eu 0.52166 0.05427 0.74196 0.0
C189 C 0.55582 0.94953 0.48053 0.0
C190 C 0.5907 0.97054 0.35657 0.0
C191 C 0.60038 0.92055 0.42485 0.0
C192 C 0.56451 0.97322 0.41971 0.0
C193 C 0.57265 0.92216 0.47902 0.0
C194 C 0.60944 0.9448 0.36366 0.0
C195 C 0.53033 0.89819 0.56405 0.0
N196 N 0.52853 0.95166 0.52893 0.0
C197 C 0.51451 0.9258 0.5621 0.0
C198 C 0.55998 0.8966 0.52518 0.0
Eu199 Eu 0.50471 1.00056 0.53687 0.0
N200 N 0.5453 0.99724 0.41287 0.0
C201 C 0.54894 1.01713 0.33419 0.0
C202 C 0.59618 0.9928 0.2837 0.0
C203 C 0.57467 1.01564 0.27026 0.0
H204 H 0.49128 0.92687 0.58957 0.0
H205 H 0.57775 0.03201 0.21011 0.0
H206 H 0.62997 0.94265 0.31746 0.0
H207 H 0.51954 0.87814 0.59456 0.0
H208 H 0.53206 0.03411 0.31846 0.0
H209 H 0.46283 0.98626 0.0424 0.0
H210 H 0.61597 0.99156 0.23364 0.0
H211 H 0.5019 0.1268 0.69469 0.0
H212 H 0.48137 0.99551 0.87004 0.0
H213 H 0.48073 0.17156 0.78505 0.0
H214 H 0.61396 0.89997 0.42452 0.0
H215 H 0.45616 0.02917 0.1669 0.0
H216 H 0.45321 0.08556 0.19521 0.0
H217 H 0.57205 0.8751 0.52516 0.0
H218 H 0.45487 0.13633 0.12028 0.0
N219 N 0.49292 0.0424 0.89826 0.0
C220 C 0.48205 1.01422 0.92438 0.0
C221 C 0.46621 0.03316 0.09199 0.0
C222 C 0.47222 0.0626 0.05964 0.0
C223 C 0.47004 1.00893 0.02224 0.0
C224 C 0.48547 0.06651 0.96104 0.0
H225 H 0.4629 0.168 0.9651 0.0
N226 N 0.49645 0.09714 0.82152 0.0
C227 C 0.48238 0.15018 0.82434 0.0
C228 C 0.48669 0.09494 0.92011 0.0
C229 C 0.49426 0.12442 0.77311 0.0
C230 C 0.47272 0.14821 0.92623 0.0
C231 C 0.47471 0.1204 0.97547 0.0
O232 O 0.5441 0.09212 0.6689 0.0
O233 O 0.54052 0.03153 0.59738 0.0
O234 O 0.51699 0.9749 0.68427 0.0
O235 O 0.53349 1.00845 0.81553 0.0
O236 O 0.56733 0.02909 0.7258 0.0
O237 O 0.55571 0.08175 0.82545 0.0
O238 O 0.4784 0.96799 0.44323 0.0
O239 O 0.48376 0.03244 0.65568 0.0
O240 O 0.49256 0.07542 0.61549 0.0
O241 O 0.51084 0.04887 0.47465 0.0
O242 O 0.4643 0.99007 0.64463 0.0
O243 O 0.47146 1.01591 0.42537 0.0
C244 C 0.56654 0.02296 0.62768 0.0
C245 C 0.59437 0.10058 0.71268 0.0
C246 C 0.6461 0.08101 0.71129 0.0
C247 C 0.61646 0.08134 0.75193 0.0
C248 C 0.65381 0.10087 0.63219 0.0
C249 C 0.60233 0.12042 0.63363 0.0
C250 C 0.63193 0.12055 0.59378 0.0
C251 C 0.52795 0.98032 0.77857 0.0
C252 C 0.56237 0.09787 0.74483 0.0
C253 C 0.4638 0.117 0.07629 0.0
C254 C 0.46292 0.08813 0.11896 0.0
C255 C 0.46208 1.01648 0.68996 0.0
C256 C 0.42785 0.98465 0.43595 0.0
C257 C 0.41095 1.00863 0.4818 0.0
C258 C 0.37981 1.00524 0.50427 0.0
C259 C 0.36681 0.97597 0.49018 0.0
C260 C 0.41419 0.95607 0.42104 0.0
C261 C 0.384 0.95165 0.45021 0.0
C262 C 0.49964 0.07432 0.51609 0.0
C263 C 0.46027 0.9888 0.41038 0.0
H264 H 0.61057 0.06651 0.81446 0.0
H265 H 0.67661 0.10109 0.60019 0.0
H266 H 0.58545 0.1353 0.60118 0.0
H267 H 0.63783 0.13571 0.53232 0.0
H268 H 0.42202 0.03021 0.49773 0.0
H269 H 0.34292 0.97184 0.50415 0.0
H270 H 0.42697 0.93709 0.38795 0.0
H271 H 0.37355 0.92951 0.43858 0.0
Eu272 Eu 0.55906 0.52196 0.59649 0.0
C273 C 0.43255 0.53562 0.82775 0.0
C274 C 0.40006 0.55859 0.70203 0.0
C275 C 0.37777 0.52784 0.83584 0.0
C276 C 0.42932 0.5531 0.74195 0.0
C277 C 0.40677 0.52332 0.87723 0.0
C278 C 0.37443 0.5454 0.7482 0.0
C279 C 0.43987 0.50523 1.00985 0.0
N280 N 0.46078 0.53194 0.86622 0.0
C281 C 0.46461 0.51797 0.95824 0.0
C282 C 0.41082 0.50758 0.96847 0.0
Eu283 Eu 0.50254 0.55311 0.77523 0.0
N284 N 0.45463 0.56553 0.69939 0.0
C285 C 0.45167 0.58524 0.61988 0.0
C286 C 0.39731 0.57757 0.61792 0.0
C287 C 0.42321 0.59118 0.57743 0.0
H288 H 0.48693 0.51668 0.99188 0.0
H289 H 0.42134 0.60616 0.51286 0.0
H290 H 0.35187 0.54917 0.71798 0.0
H291 H 0.44321 0.49386 0.0819 0.0
H292 H 0.47101 0.5959 0.58507 0.0
H293 H 0.64538 0.46887 0.83514 0.0
H294 H 0.37531 0.58219 0.58466 0.0
H295 H 0.56869 0.56704 0.39351 0.0
H296 H 0.59401 0.47759 0.7696 0.0
H297 H 0.6102 0.59497 0.30734 0.0
H298 H 0.35775 0.5184 0.87226 0.0
H299 H 0.68892 0.49795 0.7671 0.0
H300 H 0.7087 0.53592 0.64229 0.0
H301 H 0.3916 0.49794 1.00897 0.0
H302 H 0.69919 0.57011 0.49895 0.0
N303 N 0.60765 0.51224 0.66681 0.0
C304 C 0.61257 0.49057 0.73864 0.0
C305 C 0.6663 0.50196 0.73777 0.0
C306 C 0.66143 0.52296 0.66035 0.0
C307 C 0.6418 0.48547 0.77624 0.0
C308 C 0.63149 0.5275 0.62528 0.0
H309 H 0.66266 0.59201 0.37317 0.0
N310 N 0.5973 0.54981 0.50997 0.0
C311 C 0.61497 0.58157 0.37403 0.0
C312 C 0.62615 0.54688 0.54478 0.0
C313 C 0.59158 0.56579 0.42299 0.0
C314 C 0.64454 0.57994 0.41177 0.0
C315 C 0.65055 0.56211 0.49709 0.0
O316 O 0.56196 0.50531 0.43781 0.0
O317 O 0.50884 0.52686 0.62681 0.0
O318 O 0.49998 0.50132 0.7906 0.0
O319 O 0.54382 0.48371 0.70552 0.0
O320 O 0.52323 0.53555 0.47939 0.0
O321 O 0.57007 0.4744 0.56299 0.0
O322 O 0.49936 0.5727 0.93105 0.0
O323 O 0.55237 0.54515 0.74887 0.0
O324 O 0.56605 0.57354 0.60956 0.0
O325 O 0.51765 0.58919 0.65754 0.0
O326 O 0.53631 0.5355 0.89326 0.0
O327 O 0.50692 0.60221 0.80326 0.0
C328 C 0.49959 0.53341 0.53774 0.0
C329 C 0.54667 0.45503 0.41334 0.0
C330 C 0.49833 0.42882 0.39849 0.0
C331 C 0.51726 0.4493 0.45173 0.0
C332 C 0.50911 0.41408 0.30774 0.0
C333 C 0.55706 0.44026 0.32308 0.0
C334 C 0.53834 0.41965 0.2708 0.0
C335 C 0.51979 0.47937 0.76638 0.0
C336 C 0.56644 0.47723 0.46396 0.0
C337 C 0.6802 0.55846 0.5342 0.0
C338 C 0.68562 0.53896 0.61574 0.0
C339 C 0.56055 0.53683 0.83736 0.0
C340 C 0.53828 0.60947 0.94907 0.0
C341 C 0.55561 0.63235 0.90256 0.0
C342 C 0.5835 0.64232 0.94498 0.0
C343 C 0.59491 0.62634 0.02991 0.0
C344 C 0.54992 0.59493 0.03542 0.0
C345 C 0.57838 0.60279 0.07344 0.0
C346 C 0.54487 0.59496 0.61731 0.0
C347 C 0.50939 0.59904 0.90233 0.0
H348 H 0.50933 0.46043 0.52239 0.0
H349 H 0.49507 0.39746 0.2673 0.0
H350 H 0.57967 0.44468 0.29317 0.0
H351 H 0.54658 0.40785 0.20198 0.0
H352 H 0.54676 0.64252 0.83416 0.0
H353 H 0.61586 0.63258 0.06772 0.0
H354 H 0.53741 0.57691 0.07231 0.0
H355 H 0.58738 0.59102 0.13872 0.0
Eu356 Eu 0.04226 0.55475 0.6157 0.0
C357 C 0.03106 0.43517 0.86913 0.0
C358 C 1.00739 0.39929 0.74977 0.0
C359 C 0.03919 0.38064 0.8865 0.0
C360 C 1.01272 0.42967 0.78433 0.0
C361 C 0.04403 0.41066 0.92207 0.0
C362 C 0.021 0.37498 0.80034 0.0
C363 C 0.06431 0.44694 0.04608 0.0
N364 N 0.03546 0.46435 0.90234 0.0
C365 C 0.0514 0.47049 0.99083 0.0
C366 C 0.06101 0.41692 1.01078 0.0
Eu367 Eu 1.01283 0.50348 0.80585 0.0
N368 N 0.99966 0.4537 0.73692 0.0
C369 C 0.98014 0.44816 0.65636 0.0
C370 C 0.98823 0.39401 0.666 0.0
C371 C 0.97442 0.41854 0.6197 0.0
H372 H 0.05416 0.49372 0.01858 0.0
H373 H 0.95954 0.4147 0.55455 0.0
H374 H 1.0172 0.35164 0.77432 0.0
H375 H 0.07662 0.45184 0.11623 0.0
H376 H 0.96963 0.46604 0.61471 0.0
H377 H 0.1073 0.63542 0.85991 0.0
H378 H 0.98376 0.37109 0.63699 0.0
H379 H 0.99588 0.5754 0.42034 0.0
H380 H 0.09759 0.58758 0.767 0.0
H381 H 0.96265 0.61813 0.37666 0.0
H382 H 0.04906 0.36161 0.92599 0.0
H383 H 0.0722 0.67887 0.84317 0.0
H384 H 0.0269 0.70118 0.75727 0.0
H385 H 0.07112 0.39872 0.05371 0.0
H386 H 0.98712 0.69639 0.62571 0.0
N387 N 0.05585 0.60199 0.70049 0.0
C388 C 0.08148 0.60563 0.75894 0.0
C389 C 0.06757 0.65759 0.8021 0.0
C390 C 0.04276 0.65469 0.73598 0.0
C391 C 0.0874 0.63314 0.81168 0.0
C392 C 0.03765 0.62637 0.68463 0.0
H393 H 0.96335 0.66574 0.4821 0.0
N394 N 1.01282 0.59693 0.55756 0.0
C395 C 0.97715 0.62001 0.44327 0.0
C396 C 1.01521 0.62365 0.61149 0.0
C397 C 0.99576 0.59567 0.4694 0.0
C398 C 0.97748 0.64673 0.5034 0.0
C399 C 0.99736 0.64918 0.58674 0.0
O400 O 0.05521 0.569 0.46155 0.0
O401 O 0.03666 0.50514 0.65247 0.0
O402 O 0.06458 0.49885 0.81164 0.0
O403 O 0.0826 0.53955 0.71712 0.0
O404 O 0.02804 0.51658 0.50289 0.0
O405 O 0.08929 0.55132 0.56233 0.0
O406 O 0.99309 0.4936 0.9568 0.0
O407 O 0.02052 0.55325 0.77227 0.0
O408 O 0.99169 0.5473 0.58184 0.0
O409 O 0.97294 0.51175 0.69603 0.0
O410 O 0.03637 0.53848 0.91113 0.0
O411 O 0.96885 0.52245 0.85418 0.0
C412 C 0.02964 0.49395 0.56401 0.0
C413 C 0.09186 0.53649 0.38562 0.0
C414 C 0.11752 0.48958 0.32927 0.0
C415 C 0.10712 0.50937 0.40852 0.0
C416 C 0.1109 0.49656 0.22645 0.0
C417 C 0.0853 0.54281 0.2827 0.0
C418 C 0.09448 0.5227 0.20373 0.0
C419 C 0.08705 0.51671 0.78078 0.0
C420 C 0.08256 0.55823 0.46826 0.0
C421 C 1.00094 0.67673 0.64257 0.0
C422 C 0.02362 0.67948 0.71723 0.0
C423 C 0.03212 0.56235 0.85743 0.0
C424 C 0.97067 0.53871 0.0281 0.0
C425 C 0.94735 0.56045 0.02493 0.0
C426 C 0.9483 0.58763 0.08614 0.0
C427 C 0.97354 0.59195 0.1517 0.0
C428 C 0.99443 0.54304 0.09872 0.0
C429 C 0.99581 0.56955 0.15968 0.0
C430 C 0.96943 0.53001 0.61709 0.0
C431 C 0.97176 0.51385 0.94881 0.0
H432 H 0.11193 0.50412 0.48785 0.0
H433 H 0.11974 0.48271 0.1629 0.0
H434 H 0.07334 0.56344 0.26332 0.0
H435 H 0.08981 0.52796 0.12438 0.0
H436 H 0.9286 0.55553 0.97391 0.0
H437 H 0.97664 0.61261 0.1971 0.0
H438 H 1.01266 0.52662 0.10406 0.0
H439 H 1.01474 0.57317 0.21147 0.0
H440 H 0.20368 0.04648 0.34344 0.0
H441 H 0.15034 1.01378 0.08671 0.0
H442 H 0.10401 1.017 0.19307 0.0
H443 H 0.07919 0.0236 0.3671 0.0
H444 H 0.13315 0.05866 0.6197 0.0
H445 H 0.17796 0.0594 0.50911 0.0
C446 C 0.18183 0.04069 0.30995 0.0
C447 C 0.18085 0.0297 0.20658 0.0
C448 C 0.15515 0.04217 0.37252 0.0
C449 C 0.15208 0.02231 0.16548 0.0
C450 C 0.12548 0.02387 0.22699 0.0
C451 C 0.10057 0.03191 0.39777 0.0
C452 C 0.10245 0.04021 0.50412 0.0
C453 C 0.12675 0.0329 0.33192 0.0
C454 C 0.13075 0.05096 0.54044 0.0
C455 C 0.15659 0.05173 0.4764 0.0
H456 H 0.46597 0.19825 0.29478 0.0
H457 H 0.5371 0.16743 0.08789 0.0
H458 H 0.54503 0.12242 0.1922 0.0
H459 H 0.53042 0.09032 0.33943 0.0
H460 H 0.45992 0.12164 0.54855 0.0
H461 H 0.45306 0.16732 0.4471 0.0
C462 C 0.48355 0.18193 0.27355 0.0
C463 C 0.50093 0.18645 0.18307 0.0
C464 C 0.48784 0.15574 0.33398 0.0
C465 C 0.52352 0.16483 0.157 0.0
C466 C 0.5279 0.13887 0.21645 0.0
C467 C 0.51341 0.10702 0.3626 0.0
C468 C 0.49551 0.1021 0.45172 0.0
C469 C 0.5099 0.13375 0.30434 0.0
C470 C 0.47404 0.12454 0.48084 0.0
C471 C 0.47011 0.15082 0.4226 0.0
H472 H 0.36147 0.50539 0.4144 0.0
H473 H 0.38846 0.55501 0.14675 0.0
H474 H 0.44046 0.55904 0.21269 0.0
H475 H 0.47753 0.55228 0.35363 0.0
H476 H 0.45165 0.50061 0.61776 0.0
H477 H 0.40038 0.49372 0.54711 0.0
C478 C 0.37886 0.5166 0.36951 0.0
C479 C 0.37075 0.53002 0.27524 0.0
C480 C 0.40893 0.51905 0.40877 0.0
C481 C 0.39382 0.54444 0.21888 0.0
C482 C 0.42359 0.54698 0.25727 0.0
C483 C 0.46068 0.53946 0.39587 0.0
C484 C 0.46829 0.52811 0.49357 0.0
C485 C 0.43128 0.53508 0.35336 0.0
C486 C 0.4463 0.51067 0.54479 0.0
C487 C 0.41695 0.50649 0.50368 0.0
H488 H 0.07117 0.35961 0.41402 0.0
H489 H 1.01506 0.38168 0.15578 0.0
H490 H 1.0016 0.4305 0.24039 0.0
H491 H 1.00761 0.46855 0.38456 0.0
H492 H 0.06427 0.44704 0.64201 0.0
H493 H 0.07523 0.39679 0.56262 0.0
C494 C 0.05539 0.37473 0.37706 0.0
C495 C 0.04365 0.36618 0.27842 0.0
C496 C 0.04793 0.40322 0.42649 0.0
C497 C 0.02392 0.38688 0.23184 0.0
C498 C 1.01643 0.41509 0.28023 0.0
C499 C 0.02213 0.45275 0.42411 0.0
C500 C 0.03463 0.46179 0.52094 0.0
C501 C 0.02852 0.42374 0.37708 0.0
C502 C 0.05375 0.44088 0.56922 0.0
C503 C 0.06019 0.41206 0.52307 0.0
H504 H 0.89001 0.96661 0.21435 0.0
H505 H 0.84242 0.04913 0.14388 0.0
H506 H 0.88228 0.06195 0.01927 0.0
H507 H 0.93109 0.04913 0.92568 0.0
H508 H 0.97955 0.96801 1.00671 0.0
H509 H 0.93918 0.95526 0.12901 0.0
C510 C 0.88847 0.98767 0.17287 0.0
C511 C 0.86279 1.00672 0.18986 0.0
C512 C 0.91188 0.99516 0.10186 0.0
C513 C 0.8614 0.03371 0.13343 0.0
C514 C 0.88443 0.04114 0.06173 0.0
C515 C 0.93289 0.02874 0.9705 0.0
C516 C 0.95862 1.00951 0.95593 0.0
C517 C 0.90977 0.02192 0.04431 0.0
C518 C 0.96041 0.98338 0.01605 0.0
C519 C 0.93726 0.97607 0.0865 0.0
H520 H 0.50474 0.85828 0.02205 0.0
H521 H 0.56639 0.89932 0.24049 0.0
H522 H 0.57304 0.94329 0.12795 0.0
H523 H 0.55951 0.97122 0.96542 0.0
H524 H 0.49348 0.92943 0.76226 0.0
H525 H 0.49102 0.88523 0.86771 0.0
C526 C 0.5202 0.87651 0.0444 0.0
C527 C 0.53583 0.87468 0.13854 0.0
C528 C 0.5233 0.90194 0.98041 0.0
C529 C 0.55475 0.89939 0.16739 0.0
C530 C 0.55834 0.92477 0.10299 0.0
C531 C 0.54491 0.95228 0.94357 0.0
C532 C 0.52808 0.95348 0.85043 0.0
C533 C 0.54253 0.9265 1.00886 0.0
C534 C 0.50851 0.92882 0.82734 0.0
C535 C 0.50648 0.90347 0.8897 0.0
H536 H 0.69749 0.5612 0.97997 0.0
H537 H 0.66996 0.50123 0.22099 0.0
H538 H 0.61824 0.4994 0.15145 0.0
H539 H 0.5817 0.5112 0.01269 0.0
H540 H 0.60831 0.57311 0.77644 0.0
H541 H 0.65904 0.57783 0.85263 0.0
C542 C 0.68004 0.54819 0.01854 0.0
C543 C 0.68792 0.53118 0.1059 0.0
C544 C 0.65017 0.54706 0.97724 0.0
C545 C 0.66476 0.51453 0.15422 0.0
C546 C 0.63516 0.51328 0.11371 0.0
C547 C 0.59864 0.5257 0.97773 0.0
C548 C 0.59149 0.5406 0.8855 0.0
C549 C 0.62776 0.52876 0.02357 0.0
C550 C 0.61344 0.56026 0.84424 0.0
C551 C 0.64245 0.56321 0.88871 0.0
H552 H 0.98343 0.68564 0.07689 0.0
H553 H 0.05992 0.66929 0.27324 0.0
H554 H 0.0745 0.62511 0.16426 0.0
H555 H 0.06366 0.58855 0.01906 0.0
H556 H 0.98637 0.60405 0.82547 0.0
H557 H 0.97427 0.65068 0.92548 0.0
C558 C 1.00376 0.67292 0.09459 0.0
C559 C 0.02081 0.68148 0.1835 0.0
C560 C 1.01188 0.64706 0.0314 0.0
C561 C 0.04663 0.6639 0.20525 0.0
C562 C 0.05485 0.63837 0.14296 0.0
C563 C 0.04446 0.60242 0.9975 0.0
C564 C 0.02643 0.59282 0.9123 0.0
C565 C 0.03744 0.62936 0.05662 0.0
C566 C 1.00118 0.61094 0.88817 0.0
C567 C 0.99416 0.6377 0.9461 0.0
H568 H 0.98628 0.25373 0.40792 0.0
H569 H 0.06735 0.19881 0.3838 0.0
H570 H 0.05085 0.16957 0.53226 0.0
H571 H 1.00918 0.15375 0.64309 0.0
H572 H 0.92479 0.20371 0.64847 0.0
H573 H 0.94728 0.242 0.53747 0.0
C574 C 1.00068 0.23593 0.43736 0.0
C575 C 0.0278 0.2281 0.38533 0.0
C576 C 0.99036 0.21845 0.51923 0.0
C577 C 0.04626 0.20488 0.42272 0.0
C578 C 0.03683 0.18825 0.50727 0.0
C579 C 0.99597 0.17346 0.62211 0.0
C580 C 0.96517 0.17556 0.65139 0.0
C581 C 1.00827 0.19393 0.55256 0.0
C582 C 0.94847 0.2015 0.6261 0.0
C583 C 0.9612 0.22313 0.56144 0.0
H584 H 0.27138 0.0652 0.35879 0.0
H585 H 0.34023 0.11862 0.2084 0.0
H586 H 0.37608 0.10705 0.344 0.0
H587 H 0.39109 0.06499 0.45015 0.0
H588 H 0.32277 1.01035 0.59907 0.0
H589 H 0.28306 0.04062 0.52148 0.0
C590 C 0.29361 0.07587 0.35782 0.0
C591 C 0.30416 0.09035 0.26861 0.0
C592 C 0.31445 0.06802 0.43375 0.0
C593 C 0.33233 0.10554 0.27295 0.0
C594 C 0.35293 0.09876 0.35031 0.0
C595 C 0.36775 0.06 0.4702 0.0
C596 C 0.35986 0.03271 0.51935 0.0
C597 C 0.34508 0.07704 0.42323 0.0
C598 C 0.32944 0.02919 0.55171 0.0
C599 C 0.30663 0.04665 0.50786 0.0
H600 H 0.41746 0.34857 0.2308 0.0
H601 H 0.47818 0.29328 0.40633 0.0
H602 H 0.48189 0.33313 0.53741 0.0
H603 H 0.48939 0.3882 0.54636 0.0
H604 H 0.44069 0.44534 0.34157 0.0
H605 H 0.40991 0.4022 0.2829 0.0
C606 C 0.43052 0.34485 0.29995 0.0
C607 C 0.44963 0.31918 0.30403 0.0
C608 C 0.43548 0.36936 0.36921 0.0
C609 C 0.46442 0.31346 0.39753 0.0
C610 C 0.46695 0.3366 0.47266 0.0
C611 C 0.47052 0.39144 0.49428 0.0
C612 C 0.46892 0.41874 0.44079 0.0
C613 C 0.45596 0.3657 0.45165 0.0
C614 C 0.44338 0.42375 0.37912 0.0
C615 C 0.42628 0.39881 0.34355 0.0
H616 H 0.22657 0.4154 0.21206 0.0
H617 H 0.26523 0.48229 0.41994 0.0
H618 H 0.21689 0.4877 0.5098 0.0
H619 H 0.16307 0.49208 0.46943 0.0
H620 H 0.12317 0.43249 0.23786 0.0
H621 H 0.17161 0.40596 0.21568 0.0
C622 C 0.22472 0.42969 0.28127 0.0
C623 C 0.24814 0.45074 0.3031 0.0
C624 C 0.19577 0.43554 0.32338 0.0
C625 C 0.24675 0.46732 0.397 0.0
C626 C 0.21873 0.47105 0.44698 0.0
C627 C 0.16432 0.47227 0.418 0.0
C628 C 0.14008 0.46538 0.35095 0.0
C629 C 0.19261 0.45833 0.40166 0.0
C630 C 0.14205 0.43916 0.2867 0.0
C631 C 0.16976 0.42394 0.27412 0.0
H632 H 0.03159 0.78034 0.98832 0.0
H633 H 0.96296 0.84468 0.09118 0.0
H634 H 0.97605 0.87765 0.9495 0.0
H635 H 0.01969 0.89538 0.85751 0.0
H636 H 0.09188 0.83348 0.7653 0.0
H637 H 0.06335 0.79151 0.83801 0.0
C638 C 1.01826 0.80073 0.97692 0.0
C639 C 0.99776 0.81123 0.05379 0.0
C640 C 0.02717 0.82033 0.89919 0.0
C641 C 0.97996 0.83703 0.03554 0.0
C642 C 0.98753 0.8559 0.95471 0.0
C643 C 0.0293 0.87284 0.8486 0.0
C644 C 0.05987 0.86834 0.81732 0.0
C645 C 1.01345 0.84927 0.89475 0.0
C646 C 0.0697 0.83818 0.79863 0.0
C647 C 0.05332 0.81407 0.83999 0.0
H648 H 0.70775 0.99917 0.02674 0.0
H649 H 0.76741 0.07697 0.04701 0.0
H650 H 0.74574 0.09699 0.88953 0.0
H651 H 0.7026 0.09741 0.77104 0.0
H652 H 0.63989 0.02183 0.76542 0.0
H653 H 0.67054 0.99526 0.88872 0.0
C654 C 0.71632 1.02018 0.99505 0.0
C655 C 0.73839 0.03705 0.04845 0.0
C656 C 0.70321 0.03187 0.90691 0.0
C657 C 0.75007 0.06387 1.00678 0.0
C658 C 0.73764 0.07534 0.91726 0.0
C659 C 0.69637 0.07462 0.79379 0.0
C660 C 0.66902 0.06161 0.7594 0.0
C661 C 0.71313 0.06029 0.86989 0.0
C662 C 0.66099 0.03217 0.78997 0.0
C663 C 0.67828 1.01714 0.86185 0.0
H664 H 0.58247 0.77518 1.01209 0.0
H665 H 0.65633 0.74846 0.20565 0.0
H666 H 0.66673 0.70457 0.09175 0.0
H667 H 0.64149 0.66568 0.98485 0.0
H668 H 0.55884 0.68915 0.82656 0.0
H669 H 0.56705 0.74195 0.86825 0.0
C670 C 0.60199 0.76075 0.02572 0.0
C671 C 0.6177 0.76396 0.11903 0.0
C672 C 0.6056 0.73392 0.96647 0.0
C673 C 0.64345 0.74579 0.13515 0.0
C674 C 0.64901 0.72037 0.07086 0.0
C675 C 0.62494 0.68212 0.96 0.0
C676 C 0.59726 0.67235 0.91555 0.0
C677 C 0.62791 0.71253 0.99405 0.0
C678 C 0.57901 0.69476 0.86989 0.0
C679 C 0.58358 0.72554 0.89395 0.0
H680 H 0.83034 0.64158 0.25636 0.0
H681 H 0.79815 0.5874 0.99925 0.0
H682 H 0.84702 0.5927 0.91233 0.0
H683 H 0.90172 0.59448 0.94351 0.0
H684 H 0.93407 0.63374 0.23197 0.0
H685 H 0.88431 0.65348 0.26914 0.0
C686 C 0.83367 0.63237 0.17872 0.0
C687 C 0.81181 0.61212 0.13788 0.0
C688 C 0.86317 0.63138 0.13722 0.0
C689 C 0.81525 0.60188 0.03501 0.0
C690 C 0.84361 0.6042 0.98635 0.0
C691 C 0.89819 0.60677 0.01578 0.0
C692 C 0.92173 0.60936 0.08924 0.0
C693 C 0.86848 0.61558 0.04277 0.0
C694 C 0.91677 0.62912 0.1754 0.0
C695 C 0.88787 0.64071 0.19751 0.0
H696 H 0.08026 0.19987 0.98349 0.0
H697 H 0.98387 0.21321 0.02241 0.0
H698 H 0.97396 0.16645 0.92164 0.0
H699 H 0.99245 0.1191 0.8307 0.0
H700 H 0.08826 0.10847 0.77248 0.0
H701 H 0.09854 0.15593 0.87069 0.0
C702 C 0.05705 0.19324 0.96659 0.0
C703 C 0.03283 0.21112 1.00923 0.0
C704 C 0.05137 0.16598 0.90657 0.0
C705 C 1.003 0.20094 0.98869 0.0
C706 C 0.9973 0.17374 0.93187 0.0
C707 C 1.0156 0.12716 0.83943 0.0
C708 C 0.03968 0.10909 0.79766 0.0
C709 C 0.02123 0.1556 0.89207 0.0
C710 C 0.06934 0.12092 0.80679 0.0
C711 C 0.07519 0.14841 0.86239 0.0
H712 H 0.35127 0.08405 0.92303 0.0
H713 H 0.31457 0.99296 0.92095 0.0
H714 H 0.35959 0.97446 0.82537 0.0
H715 H 0.41159 0.9835 0.75129 0.0
H716 H 0.44627 0.07517 0.74786 0.0
H717 H 0.40097 0.09363 0.83925 0.0
C718 C 0.35286 0.06008 0.90153 0.0
C719 C 0.32903 0.04004 0.93102 0.0
C720 C 0.37922 0.04946 0.84757 0.0
C721 C 0.33191 1.00919 0.89966 0.0
C722 C 0.35804 0.99849 0.84571 0.0
C723 C 0.40936 1.00753 0.77096 0.0
C724 C 0.43354 0.02769 0.74597 0.0
C725 C 0.38222 1.01827 0.82093 0.0
C726 C 0.42928 0.05881 0.76977 0.0
C727 C 0.40288 0.06948 0.82091 0.0
H728 H 0.5054 0.37729 0.09945 0.0
H729 H 0.50014 0.31723 0.83303 0.0
H730 H 0.5099 0.36077 0.72089 0.0
H731 H 0.51664 0.41785 0.6987 0.0
H732 H 0.5188 0.47571 0.9718 0.0
H733 H 0.51169 0.43192 0.07917 0.0
C734 C 0.50607 0.37348 0.01683 0.0
C735 C 0.50142 0.34363 0.97591 0.0
C736 C 0.51061 0.39875 0.95317 0.0
C737 C 0.50362 0.3396 0.868 0.0
C738 C 0.50895 0.36473 0.80354 0.0
C739 C 0.51584 0.42071 0.78181 0.0
C740 C 0.51756 0.45056 0.82673 0.0
C741 C 0.51201 0.39468 0.84505 0.0
C742 C 0.51656 0.45353 0.93459 0.0
C743 C 0.51304 0.42822 0.99662 0.0
H744 H 0.20814 0.46194 0.96681 0.0
H745 H 0.23304 0.55668 0.99799 0.0
H746 H 0.18655 0.57072 0.90574 0.0
H747 H 0.13566 0.55609 0.83043 0.0
H748 H 0.11005 0.46114 0.82159 0.0
H749 H 0.15906 0.44755 0.89332 0.0
C750 C 0.20364 0.48581 0.95385 0.0
C751 C 0.2245 0.50814 0.99151 0.0
C752 C 0.17605 0.49378 0.90584 0.0
C753 C 0.21802 0.53877 0.97022 0.0
C754 C 0.19102 0.54685 0.91838 0.0
C755 C 0.14088 0.53241 0.84293 0.0
C756 C 0.11868 0.5097 0.8193 0.0
C757 C 0.16936 0.5246 0.8879 0.0
C758 C 0.12621 0.47921 0.83843 0.0
C759 C 0.15445 0.47135 0.87955 0.0
H760 H 0.04681 0.87007 0.3094 0.0
H761 H 0.99881 0.82094 0.54306 0.0
H762 H 1.00076 0.8662 0.65796 0.0
H763 H 1.01605 0.92087 0.69346 0.0
H764 H 0.06606 0.96839 0.46106 0.0
H765 H 0.06318 0.92341 0.34587 0.0
C766 C 0.0371 0.86893 0.38614 0.0
C767 C 0.02278 0.84134 0.41643 0.0
C768 C 0.03859 0.89526 0.45284 0.0
C769 C 1.01048 0.84108 0.5169 0.0
C770 C 1.01151 0.86728 0.58296 0.0
C771 C 0.02637 0.92145 0.61776 0.0
C772 C 0.04066 0.94886 0.58607 0.0
C773 C 0.02542 0.89468 0.55207 0.0
C774 C 0.05423 0.94837 0.48755 0.0
C775 C 0.0528 0.92236 0.4216 0.0
H776 H 0.6802 0.05554 0.34295 0.0
H777 H 0.71999 0.97829 0.48965 0.0
H778 H 0.67296 0.97189 0.59097 0.0
H779 H 0.6187 0.98689 0.63228 0.0
H780 H 0.58033 0.06398 0.48088 0.0
H781 H 0.62771 0.0708 0.38488 0.0
C782 C 0.67883 0.03709 0.39671 0.0
C783 C 0.70418 1.01723 0.40661 0.0
C784 C 0.65134 0.03308 0.45281 0.0
C785 C 0.70147 0.99415 0.47964 0.0
C786 C 0.67423 0.99026 0.53696 0.0
C787 C 0.62072 1.00513 0.57797 0.0
C788 C 0.59541 0.02469 0.56354 0.0
C789 C 0.64871 1.00927 0.52314 0.0
C790 C 0.59884 0.04822 0.4929 0.0
C791 C 0.62621 0.05231 0.43839 0.0
H792 H 0.6027 0.71724 0.44769 0.0
H793 H 0.50858 0.74168 0.41061 0.0
H794 H 0.49311 0.69428 0.49332 0.0
H795 H 0.50646 0.64302 0.56369 0.0
H796 H 0.60127 0.6191 0.58888 0.0
H797 H 0.61591 0.66827 0.52203 0.0
C798 C 0.57868 0.71245 0.4575 0.0
C799 C 0.55696 0.73347 0.42097 0.0
C800 C 0.56994 0.68457 0.50204 0.0
C801 C 0.52604 0.72654 0.43779 0.0
C802 C 0.51714 0.69905 0.4843 0.0
C803 C 0.53033 0.64861 0.55519 0.0
C804 C 0.55263 0.62663 0.58084 0.0
C805 C 0.53887 0.67742 0.51479 0.0
C806 C 0.58342 0.63484 0.56895 0.0
C807 C 0.59191 0.66324 0.53085 0.0
H808 H 0.866 0.53587 0.27862 0.0
H809 H 0.80681 0.53774 0.54396 0.0
H810 H 0.85091 0.52944 0.65613 0.0
H811 H 0.90803 0.52725 0.68025 0.0
H812 H 0.96547 0.52954 0.40983 0.0
H813 H 0.92097 0.53133 0.3002 0.0
C814 C 0.86251 0.53381 0.36095 0.0
C815 C 0.83269 0.53726 0.40186 0.0
C816 C 0.88816 0.53062 0.4251 0.0
C817 C 0.82908 0.53467 0.50917 0.0
C818 C 0.85455 0.53041 0.57369 0.0
C819 C 0.91075 0.52783 0.59732 0.0
C820 C 0.94055 0.52878 0.55422 0.0
C821 C 0.88446 0.52923 0.53301 0.0
C822 C 0.94323 0.52955 0.44619 0.0
C823 C 0.91762 0.53029 0.38283 0.0
loop_
_geom_bond_atom_site_label_1
_geom_bond_atom_site_label_2
_geom_bond_distance
_geom_bond_site_symmetry_2
_ccdc_geom_bond_type
H0 C7 0.929 . S
H1 C10 0.930 . S
H2 C12 0.929 . S
H3 C4 0.969 . S
C4 H3 0.969 . S
C4 O5 1.550 . S
C4 H6 0.973 . S
O5 C4 1.550 . S
O5 C11 1.412 . S
H6 C4 0.973 . S
C7 H0 0.929 . S
C7 C8 1.400 . S
C7 C9 1.364 . S
C8 C7 1.400 . S
C8 C12 1.377 . S
C9 C7 1.364 . S
C9 C10 1.374 . S
C10 H1 0.930 . S
C10 C9 1.374 . S
C10 C11 1.383 . S
C11 O5 1.412 . S
C11 C10 1.383 . S
C11 C12 1.394 . S
C12 H2 0.929 . S
C12 C8 1.377 . S
C12 C11 1.394 . S
H13 C20 0.929 . S
H14 C23 0.930 . S
H15 C25 0.929 . S
H16 C17 0.969 . S
C17 H16 0.969 . S
C17 O18 1.550 . S
C17 H19 0.973 . S
O18 C17 1.550 . S
O18 C24 1.412 . S
H19 C17 0.973 . S
C20 H13 0.929 . S
C20 C21 1.400 . S
C20 C22 1.364 . S
C21 C20 1.400 . S
C21 C25 1.377 . S
C22 C20 1.364 . S
C22 C23 1.374 . S
C23 H14 0.930 . S
C23 C22 1.374 . S
C23 C24 1.383 . S
C24 O18 1.412 . S
C24 C23 1.383 . S
C24 C25 1.394 . S
C25 H15 0.929 . S
C25 C21 1.377 . S
C25 C24 1.394 . S
H26 C33 0.929 . S
H27 C36 0.930 . S
H28 C38 0.929 . S
H29 C30 0.969 . S
C30 H29 0.969 . S
C30 O31 1.550 . S
C30 H32 0.973 . S
O31 C30 1.550 . S
O31 C37 1.412 . S
H32 C30 0.973 . S
C33 H26 0.929 . S
C33 C34 1.400 . S
C33 C35 1.364 . S
C34 C33 1.400 . S
C34 C38 1.377 . S
C35 C33 1.364 . S
C35 C36 1.374 . S
C36 H27 0.930 . S
C36 C35 1.374 . S
C36 C37 1.383 . S
C37 O31 1.412 . S
C37 C36 1.383 . S
C37 C38 1.394 . S
C38 H28 0.929 . S
C38 C34 1.377 . S
C38 C37 1.394 . S
H39 C46 0.929 . S
H40 C49 0.930 . S
H41 C51 0.929 . S
H42 C43 0.969 . S
C43 H42 0.969 . S
C43 O44 1.550 . S
C43 H45 0.973 . S
O44 C43 1.550 . S
O44 C50 1.412 . S
H45 C43 0.973 . S
C46 H39 0.929 . S
C46 C47 1.400 . S
C46 C48 1.364 . S
C47 C46 1.400 . S
C47 C51 1.377 . S
C48 C46 1.364 . S
C48 C49 1.374 . S
C49 H40 0.930 . S
C49 C48 1.374 . S
C49 C50 1.383 . S
C50 O44 1.412 . S
C50 C49 1.383 . S
C50 C51 1.394 . S
C51 H41 0.929 . S
C51 C47 1.377 . S
C51 C50 1.394 . S
H52 C59 0.929 . S
H53 C62 0.930 . S
H54 C64 0.929 . S
H55 C56 0.969 . S
C56 H55 0.969 . S
C56 O57 1.550 . S
C56 H58 0.973 . S
O57 C56 1.550 . S
O57 C63 1.412 . S
H58 C56 0.973 . S
C59 H52 0.929 . S
C59 C60 1.400 . S
C59 C61 1.364 1_556 S
C60 C59 1.400 . S
C60 C64 1.377 . S
C61 C59 1.364 1_554 S
C61 C62 1.374 . S
C62 H53 0.930 . S
C62 C61 1.374 . S
C62 C63 1.383 . S
C63 O57 1.412 . S
C63 C62 1.383 . S
C63 C64 1.394 1_554 S
C64 H54 0.929 . S
C64 C60 1.377 . S
C64 C63 1.394 1_556 S
H65 C72 0.929 . S
H66 C75 0.930 . S
H67 C77 0.929 . S
H68 C69 0.969 . S
C69 H68 0.969 . S
C69 O70 1.550 . S
C69 H71 0.973 . S
O70 C69 1.550 . S
O70 C76 1.412 . S
H71 C69 0.973 . S
C72 H65 0.929 . S
C72 C73 1.400 . S
C72 C74 1.364 1_556 S
C73 C72 1.400 . S
C73 C77 1.377 . S
C74 C72 1.364 1_554 S
C74 C75 1.374 . S
C75 H66 0.930 . S
C75 C74 1.374 . S
C75 C76 1.383 . S
C76 O70 1.412 . S
C76 C75 1.383 . S
C76 C77 1.394 1_554 S
C77 H67 0.929 . S
C77 C73 1.377 . S
C77 C76 1.394 1_556 S
H78 C85 0.929 . S
H79 C88 0.930 . S
H80 C90 0.929 . S
H81 C82 0.969 . S
C82 H81 0.969 . S
C82 O83 1.558 . S
C82 H84 0.973 . S
O83 C82 1.558 . S
O83 C89 1.412 . S
H84 C82 0.973 . S
C85 H78 0.929 . S
C85 C86 1.400 . S
C85 C87 1.364 1_556 S
C86 C85 1.400 . S
C86 C90 1.377 . S
C87 C85 1.364 1_554 S
C87 C88 1.374 . S
C88 H79 0.930 . S
C88 C87 1.374 . S
C88 C89 1.388 . S
C89 O83 1.412 . S
C89 C88 1.388 . S
C89 C90 1.388 1_554 S
C90 H80 0.929 . S
C90 C86 1.377 . S
C90 C89 1.388 1_556 S
H91 C98 0.929 . S
H92 C101 0.930 . S
H93 C103 0.929 . S
H94 C95 0.969 . S
C95 H94 0.969 . S
C95 O96 1.550 . S
C95 H97 0.973 . S
O96 C95 1.550 . S
O96 C102 1.412 . S
H97 C95 0.973 . S
C98 H91 0.929 . S
C98 C99 1.400 . S
C98 C100 1.364 1_556 S
C99 C98 1.400 . S
C99 C103 1.377 . S
C100 C98 1.364 1_554 S
C100 C101 1.374 . S
C101 H92 0.930 . S
C101 C100 1.374 . S
C101 C102 1.383 . S
C102 O96 1.412 . S
C102 C101 1.383 . S
C102 C103 1.394 1_554 S
C103 H93 0.929 . S
C103 C99 1.377 . S
C103 C102 1.394 1_556 S
Eu104 N135 2.657 1_565 S
Eu104 N142 2.609 1_565 S
Eu104 O148 2.558 . S
Eu104 O149 2.612 1_455 S
Eu104 O151 2.339 1_455 S
Eu104 O152 2.563 . S
Eu104 O153 2.419 . S
Eu104 O155 2.380 1_565 S
Eu104 O156 2.432 . S
Eu104 C168 2.848 . S
C105 C108 1.429 1_545 S
C105 C109 1.411 1_545 S
C105 N112 1.377 . S
C106 C108 1.420 . S
C106 C110 1.423 . S
C106 C118 1.392 . S
C107 C109 1.420 . S
C107 C110 1.351 . S
C107 H130 0.931 . S
C108 C105 1.429 1_565 S
C108 C106 1.420 . S
C108 N116 1.362 . S
C109 C105 1.411 1_565 S
C109 C107 1.420 . S
C109 C114 1.395 1_565 S
C110 C106 1.423 . S
C110 C107 1.351 . S
C110 H122 0.930 . S
C111 C113 1.400 . S
C111 C114 1.386 . S
C111 H123 0.930 . S
N112 C105 1.377 . S
N112 C113 1.321 . S
N112 Eu115 2.609 . S
C113 C111 1.400 . S
C113 N112 1.321 . S
C113 H120 0.930 . S
C114 C109 1.395 1_545 S
C114 C111 1.386 . S
C114 H133 0.930 . S
Eu115 N112 2.609 . S
Eu115 N116 2.657 1_545 S
Eu115 O149 2.380 1_545 S
Eu115 O150 2.432 . S
Eu115 O154 2.558 . S
Eu115 O155 2.612 1_655 S
Eu115 O157 2.339 1_655 S
Eu115 O158 2.563 1_655 S
Eu115 O159 2.419 . S
Eu115 C179 2.848 . S
N116 C108 1.362 . S
N116 Eu115 2.657 1_565 S
N116 C117 1.334 1_655 S
C117 N116 1.334 1_455 S
C117 C119 1.413 . S
C117 H124 0.929 . S
C118 C106 1.392 . S
C118 C119 1.367 1_655 S
C118 H126 0.930 . S
C119 C117 1.413 . S
C119 C118 1.367 1_455 S
C119 H121 0.930 . S
H120 C113 0.930 . S
H121 C119 0.930 . S
H122 C110 0.930 . S
H123 C111 0.930 . S
H124 C117 0.929 . S
H125 C139 0.930 1_655 S
H126 C118 0.930 . S
H127 C145 0.930 . S
H128 C136 0.929 1_655 S
H129 C143 0.930 . S
H130 C107 0.931 . S
H131 C137 0.930 . S
H132 C170 0.930 . S
H133 C114 0.930 . S
H134 C169 0.931 . S
N135 Eu104 2.657 1_545 S
N135 C136 1.334 . S
N135 C140 1.362 . S
C136 H128 0.929 1_455 S
C136 N135 1.334 . S
C136 C139 1.413 1_556 S
C137 H131 0.930 . S
C137 C138 1.392 . S
C137 C139 1.367 . S
C138 C137 1.392 . S
C138 C140 1.420 1_554 S
C138 C170 1.423 . S
C139 H125 0.930 1_455 S
C139 C136 1.413 1_554 S
C139 C137 1.367 . S
C140 N135 1.362 . S
C140 C138 1.420 1_556 S
C140 C144 1.429 . S
H141 C146 0.930 . S
N142 Eu104 2.609 1_545 S
N142 C144 1.377 . S
N142 C145 1.321 1_545 S
C143 H129 0.930 . S
C143 C145 1.400 . S
C143 C146 1.386 1_565 S
C144 C140 1.429 . S
C144 N142 1.377 . S
C144 C147 1.411 . S
C145 H127 0.930 . S
C145 N142 1.321 1_565 S
C145 C143 1.400 . S
C146 H141 0.930 . S
C146 C143 1.386 1_545 S
C146 C147 1.395 . S
C147 C144 1.411 . S
C147 C146 1.395 . S
C147 C169 1.420 1_556 S
O148 Eu104 2.558 . S
O148 C168 1.257 . S
O149 Eu104 2.612 1_655 S
O149 Eu115 2.380 1_565 S
O149 C160 1.276 . S
O150 Eu115 2.432 . S
O150 C167 1.264 . S
O151 Eu104 2.339 1_655 S
O151 C167 1.254 1_565 S
O152 Eu104 2.563 . S
O152 C160 1.235 1_455 S
O153 Eu104 2.419 . S
O153 C168 1.249 . S
O154 Eu115 2.558 . S
O154 C179 1.257 . S
O155 Eu104 2.380 1_545 S
O155 Eu115 2.612 1_455 S
O155 C171 1.276 . S
O156 Eu104 2.432 . S
O156 C178 1.264 1_565 S
O157 Eu115 2.339 1_455 S
O157 C178 1.254 . S
O158 Eu115 2.563 1_455 S
O158 C171 1.235 . S
O159 Eu115 2.419 . S
O159 C179 1.249 . S
C160 O149 1.276 . S
C160 O152 1.235 1_655 S
C161 C163 1.393 1_556 S
C161 C165 1.395 . S
C161 C168 1.492 . S
C162 C163 1.392 . S
C162 C164 1.386 . S
C163 C161 1.393 1_554 S
C163 C162 1.392 . S
C163 H180 0.930 1_554 S
C164 C162 1.386 . S
C164 C166 1.395 . S
C164 H181 0.930 . S
C165 C161 1.395 . S
C165 C166 1.379 1_556 S
C165 H182 0.930 . S
C166 C164 1.395 . S
C166 C165 1.379 1_554 S
C166 H183 0.930 . S
C167 O150 1.264 . S
C167 O151 1.254 1_545 S
C168 Eu104 2.848 . S
C168 O148 1.257 . S
C168 O153 1.249 . S
C168 C161 1.492 . S
C169 H134 0.931 . S
C169 C147 1.420 1_554 S
C169 C170 1.351 . S
C170 H132 0.930 . S
C170 C138 1.423 . S
C170 C169 1.351 . S
C171 O155 1.276 . S
C171 O158 1.235 . S
C172 C173 1.393 . S
C172 C176 1.395 . S
C172 C179 1.492 . S
C173 C172 1.393 . S
C173 C174 1.392 . S
C173 H184 0.930 1_655 S
C174 C173 1.392 . S
C174 C175 1.386 . S
C175 C174 1.386 . S
C175 C177 1.395 . S
C175 H185 0.930 . S
C176 C172 1.395 . S
C176 C177 1.379 . S
C176 H186 0.930 . S
C177 C175 1.395 . S
C177 C176 1.379 . S
C177 H187 0.930 . S
C178 O156 1.264 1_545 S
C178 O157 1.254 . S
C179 Eu115 2.848 . S
C179 O154 1.257 . S
C179 O159 1.249 . S
C179 C172 1.492 . S
H180 C163 0.930 1_556 S
H181 C164 0.930 . S
H182 C165 0.930 . S
H183 C166 0.930 . S
H184 C173 0.930 1_455 S
H185 C175 0.930 . S
H186 C176 0.930 . S
H187 C177 0.930 . S
Eu188 N219 2.657 . S
Eu188 N226 2.609 . S
Eu188 O232 2.558 . S
Eu188 O233 2.612 1_545 S
Eu188 O235 2.339 1_545 S
Eu188 O236 2.563 . S
Eu188 O237 2.419 . S
Eu188 O239 2.380 . S
Eu188 O240 2.432 . S
Eu188 C252 2.848 . S
C189 C192 1.429 . S
C189 C193 1.411 . S
C189 N196 1.377 . S
C190 C192 1.420 . S
C190 C194 1.423 . S
C190 C202 1.392 . S
C191 C193 1.420 . S
C191 C194 1.351 . S
C191 H214 0.931 . S
C192 C189 1.429 . S
C192 C190 1.420 . S
C192 N200 1.362 . S
C193 C189 1.411 . S
C193 C191 1.420 . S
C193 C198 1.395 . S
C194 C190 1.423 . S
C194 C191 1.351 . S
C194 H206 0.930 . S
C195 C197 1.400 . S
C195 C198 1.386 . S
C195 H207 0.930 . S
N196 C189 1.377 . S
N196 C197 1.321 . S
N196 Eu199 2.609 . S
C197 C195 1.400 . S
C197 N196 1.321 . S
C197 H204 0.930 . S
C198 C193 1.395 . S
C198 C195 1.386 . S
C198 H217 0.930 . S
Eu199 N196 2.609 . S
Eu199 N200 2.657 . S
Eu199 O233 2.380 . S
Eu199 O234 2.432 . S
Eu199 O238 2.558 . S
Eu199 O239 2.612 1_565 S
Eu199 O241 2.339 1_565 S
Eu199 O242 2.563 1_565 S
Eu199 O243 2.419 . S
Eu199 C263 2.848 . S
N200 C192 1.362 . S
N200 Eu199 2.657 . S
N200 C201 1.334 1_565 S
C201 N200 1.334 1_545 S
C201 C203 1.413 . S
C201 H208 0.929 . S
C202 C190 1.392 . S
C202 C203 1.367 1_565 S
C202 H210 0.930 . S
C203 C201 1.413 . S
C203 C202 1.367 1_545 S
C203 H205 0.930 . S
H204 C197 0.930 . S
H205 C203 0.930 . S
H206 C194 0.930 . S
H207 C195 0.930 . S
H208 C201 0.929 . S
H209 C223 0.930 1_565 S
H210 C202 0.930 . S
H211 C229 0.930 . S
H212 C220 0.929 1_565 S
H213 C227 0.930 . S
H214 C191 0.931 . S
H215 C221 0.930 . S
H216 C254 0.930 . S
H217 C198 0.930 . S
H218 C253 0.931 . S
N219 Eu188 2.657 . S
N219 C220 1.334 . S
N219 C224 1.362 . S
C220 H212 0.929 1_545 S
C220 N219 1.334 . S
C220 C223 1.413 1_556 S
C221 H215 0.930 . S
C221 C222 1.392 . S
C221 C223 1.367 . S
C222 C221 1.392 . S
C222 C224 1.420 1_554 S
C222 C254 1.423 . S
C223 H209 0.930 1_545 S
C223 C220 1.413 1_554 S
C223 C221 1.367 . S
C224 N219 1.362 . S
C224 C222 1.420 1_556 S
C224 C228 1.429 . S
H225 C230 0.930 . S
N226 Eu188 2.609 . S
N226 C228 1.377 . S
N226 C229 1.321 . S
C227 H213 0.930 . S
C227 C229 1.400 . S
C227 C230 1.386 . S
C228 C224 1.429 . S
C228 N226 1.377 . S
C228 C231 1.411 . S
C229 H211 0.930 . S
C229 N226 1.321 . S
C229 C227 1.400 . S
C230 H225 0.930 . S
C230 C227 1.386 . S
C230 C231 1.395 . S
C231 C228 1.411 . S
C231 C230 1.395 . S
C231 C253 1.420 1_556 S
O232 Eu188 2.558 . S
O232 C252 1.257 . S
O233 Eu188 2.612 1_565 S
O233 Eu199 2.380 . S
O233 C244 1.276 . S
O234 Eu199 2.432 . S
O234 C251 1.264 . S
O235 Eu188 2.339 1_565 S
O235 C251 1.254 . S
O236 Eu188 2.563 . S
O236 C244 1.235 1_545 S
O237 Eu188 2.419 . S
O237 C252 1.249 . S
O238 Eu199 2.558 . S
O238 C263 1.257 . S
O239 Eu188 2.380 . S
O239 Eu199 2.612 1_545 S
O239 C255 1.276 . S
O240 Eu188 2.432 . S
O240 C262 1.264 . S
O241 Eu199 2.339 1_545 S
O241 C262 1.254 . S
O242 Eu199 2.563 1_545 S
O242 C255 1.235 . S
O243 Eu199 2.419 . S
O243 C263 1.249 . S
C244 O233 1.276 . S
C244 O236 1.235 1_565 S
C245 C247 1.393 1_556 S
C245 C249 1.395 . S
C245 C252 1.492 . S
C246 C247 1.392 . S
C246 C248 1.386 . S
C247 C245 1.393 1_554 S
C247 C246 1.392 . S
C247 H264 0.929 1_554 S
C248 C246 1.386 . S
C248 C250 1.395 . S
C248 H265 0.930 . S
C249 C245 1.395 . S
C249 C250 1.379 1_556 S
C249 H266 0.930 . S
C250 C248 1.395 . S
C250 C249 1.379 1_554 S
C250 H267 0.930 . S
C251 O234 1.264 . S
C251 O235 1.254 . S
C252 Eu188 2.848 . S
C252 O232 1.257 . S
C252 O237 1.249 . S
C252 C245 1.492 . S
C253 H218 0.931 . S
C253 C231 1.420 1_554 S
C253 C254 1.351 . S
C254 H216 0.930 . S
C254 C222 1.423 . S
C254 C253 1.351 . S
C255 O239 1.276 . S
C255 O242 1.235 . S
C256 C257 1.393 . S
C256 C260 1.395 . S
C256 C263 1.492 . S
C257 C256 1.393 . S
C257 C258 1.392 . S
C257 H268 0.930 1_565 S
C258 C257 1.392 . S
C258 C259 1.386 . S
C259 C258 1.386 . S
C259 C261 1.395 . S
C259 H269 0.930 . S
C260 C256 1.395 . S
C260 C261 1.379 . S
C260 H270 0.930 . S
C261 C259 1.395 . S
C261 C260 1.379 . S
C261 H271 0.930 . S
C262 O240 1.264 . S
C262 O241 1.254 . S
C263 Eu199 2.848 . S
C263 O238 1.257 . S
C263 O243 1.249 . S
C263 C256 1.492 . S
H264 C247 0.929 1_556 S
H265 C248 0.930 . S
H266 C249 0.930 . S
H267 C250 0.930 . S
H268 C257 0.930 1_545 S
H269 C259 0.930 . S
H270 C260 0.930 . S
H271 C261 0.930 . S
Eu272 N303 2.657 . S
Eu272 N310 2.609 . S
Eu272 O316 2.558 . S
Eu272 O317 2.612 . S
Eu272 O319 2.339 . S
Eu272 O320 2.563 . S
Eu272 O321 2.419 . S
Eu272 O323 2.380 . S
Eu272 O324 2.432 . S
Eu272 C336 2.848 . S
C273 C276 1.429 . S
C273 C277 1.411 . S
C273 N280 1.377 . S
C274 C276 1.420 . S
C274 C278 1.423 . S
C274 C286 1.392 . S
C275 C277 1.420 . S
C275 C278 1.351 . S
C275 H298 0.931 . S
C276 C273 1.429 . S
C276 C274 1.420 . S
C276 N284 1.362 . S
C277 C273 1.411 . S
C277 C275 1.420 . S
C277 C282 1.395 . S
C278 C274 1.423 . S
C278 C275 1.351 . S
C278 H290 0.930 . S
C279 C281 1.400 . S
C279 C282 1.386 . S
C279 H291 0.930 1_556 S
N280 C273 1.377 . S
N280 C281 1.321 . S
N280 Eu283 2.609 . S
C281 C279 1.400 . S
C281 N280 1.321 . S
C281 H288 0.930 . S
C282 C277 1.395 . S
C282 C279 1.386 . S
C282 H301 0.930 . S
Eu283 N280 2.609 . S
Eu283 N284 2.657 . S
Eu283 O317 2.380 . S
Eu283 O318 2.432 . S
Eu283 O322 2.558 . S
Eu283 O323 2.612 . S
Eu283 O325 2.339 . S
Eu283 O326 2.563 . S
Eu283 O327 2.419 . S
Eu283 C347 2.848 . S
N284 C276 1.362 . S
N284 Eu283 2.657 . S
N284 C285 1.334 . S
C285 N284 1.334 . S
C285 C287 1.413 . S
C285 H292 0.929 . S
C286 C274 1.392 . S
C286 C287 1.367 . S
C286 H294 0.930 . S
C287 C285 1.413 . S
C287 C286 1.367 . S
C287 H289 0.930 . S
H288 C281 0.930 . S
H289 C287 0.930 . S
H290 C278 0.930 . S
H291 C279 0.930 1_554 S
H292 C285 0.929 . S
H293 C307 0.930 . S
H294 C286 0.930 . S
H295 C313 0.930 . S
H296 C304 0.929 . S
H297 C311 0.930 . S
H298 C275 0.931 . S
H299 C305 0.930 . S
H300 C338 0.930 . S
H301 C282 0.930 . S
H302 C337 0.931 . S
N303 Eu272 2.657 . S
N303 C304 1.334 . S
N303 C308 1.362 . S
C304 H296 0.929 . S
C304 N303 1.334 . S
C304 C307 1.413 . S
C305 H299 0.930 . S
C305 C306 1.392 . S
C305 C307 1.367 . S
C306 C305 1.392 . S
C306 C308 1.420 . S
C306 C338 1.423 . S
C307 H293 0.930 . S
C307 C304 1.413 . S
C307 C305 1.367 . S
C308 N303 1.362 . S
C308 C306 1.420 . S
C308 C312 1.429 . S
H309 C314 0.930 . S
N310 Eu272 2.609 . S
N310 C312 1.377 . S
N310 C313 1.321 . S
C311 H297 0.930 . S
C311 C313 1.400 . S
C311 C314 1.386 . S
C312 C308 1.429 . S
C312 N310 1.377 . S
C312 C315 1.411 . S
C313 H295 0.930 . S
C313 N310 1.321 . S
C313 C311 1.400 . S
C314 H309 0.930 . S
C314 C311 1.386 . S
C314 C315 1.395 . S
C315 C312 1.411 . S
C315 C314 1.395 . S
C315 C337 1.420 . S
O316 Eu272 2.558 . S
O316 C336 1.257 . S
O317 Eu272 2.612 . S
O317 Eu283 2.380 . S
O317 C328 1.276 . S
O318 Eu283 2.432 . S
O318 C335 1.264 . S
O319 Eu272 2.339 . S
O319 C335 1.254 . S
O320 Eu272 2.563 . S
O320 C328 1.235 . S
O321 Eu272 2.419 . S
O321 C336 1.249 . S
O322 Eu283 2.558 . S
O322 C347 1.257 . S
O323 Eu272 2.380 . S
O323 Eu283 2.612 . S
O323 C339 1.276 . S
O324 Eu272 2.432 . S
O324 C346 1.264 . S
O325 Eu283 2.339 . S
O325 C346 1.254 . S
O326 Eu283 2.563 . S
O326 C339 1.235 . S
O327 Eu283 2.419 . S
O327 C347 1.249 . S
C328 O317 1.276 . S
C328 O320 1.235 . S
C329 C331 1.393 . S
C329 C333 1.395 . S
C329 C336 1.492 . S
C330 C331 1.392 . S
C330 C332 1.386 . S
C331 C329 1.393 . S
C331 C330 1.392 . S
C331 H348 0.930 . S
C332 C330 1.386 . S
C332 C334 1.395 . S
C332 H349 0.930 . S
C333 C329 1.395 . S
C333 C334 1.379 . S
C333 H350 0.930 . S
C334 C332 1.395 . S
C334 C333 1.379 . S
C334 H351 0.930 . S
C335 O318 1.264 . S
C335 O319 1.254 . S
C336 Eu272 2.848 . S
C336 O316 1.257 . S
C336 O321 1.249 . S
C336 C329 1.492 . S
C337 H302 0.931 . S
C337 C315 1.420 . S
C337 C338 1.351 . S
C338 H300 0.930 . S
C338 C306 1.423 . S
C338 C337 1.351 . S
C339 O323 1.276 . S
C339 O326 1.235 . S
C340 C341 1.393 . S
C340 C344 1.395 . S
C340 C347 1.492 1_554 S
C341 C340 1.393 . S
C341 C342 1.392 . S
C341 H352 0.930 1_554 S
C342 C341 1.392 . S
C342 C343 1.386 . S
C343 C342 1.386 . S
C343 C345 1.395 . S
C343 H353 0.930 . S
C344 C340 1.395 . S
C344 C345 1.379 . S
C344 H354 0.930 . S
C345 C343 1.395 . S
C345 C344 1.379 . S
C345 H355 0.930 . S
C346 O324 1.264 . S
C346 O325 1.254 . S
C347 Eu283 2.848 . S
C347 O322 1.257 . S
C347 O327 1.249 . S
C347 C340 1.492 1_556 S
H348 C331 0.930 . S
H349 C332 0.930 . S
H350 C333 0.930 . S
H351 C334 0.930 . S
H352 C341 0.930 1_556 S
H353 C343 0.930 . S
H354 C344 0.930 . S
H355 C345 0.930 . S
Eu356 N387 2.657 . S
Eu356 N394 2.609 . S
Eu356 O400 2.558 . S
Eu356 O401 2.612 . S
Eu356 O403 2.339 . S
Eu356 O404 2.563 . S
Eu356 O405 2.419 . S
Eu356 O407 2.380 . S
Eu356 O408 2.432 1_455 S
Eu356 C420 2.848 . S
C357 C360 1.429 . S
C357 C361 1.411 . S
C357 N364 1.377 . S
C358 C360 1.420 . S
C358 C362 1.423 . S
C358 C370 1.392 . S
C359 C361 1.420 . S
C359 C362 1.351 . S
C359 H382 0.931 . S
C360 C357 1.429 . S
C360 C358 1.420 . S
C360 N368 1.362 . S
C361 C357 1.411 . S
C361 C359 1.420 . S
C361 C366 1.395 1_655 S
C362 C358 1.423 . S
C362 C359 1.351 . S
C362 H374 0.930 . S
C363 C365 1.400 . S
C363 C366 1.386 . S
C363 H375 0.930 1_556 S
N364 C357 1.377 . S
N364 C365 1.321 1_655 S
N364 Eu367 2.609 . S
C365 C363 1.400 . S
C365 N364 1.321 1_455 S
C365 H372 0.930 . S
C366 C361 1.395 1_455 S
C366 C363 1.386 . S
C366 H385 0.930 . S
Eu367 N364 2.609 . S
Eu367 N368 2.657 . S
Eu367 O401 2.380 1_655 S
Eu367 O402 2.432 1_655 S
Eu367 O406 2.558 . S
Eu367 O407 2.612 1_655 S
Eu367 O409 2.339 . S
Eu367 O410 2.563 . S
Eu367 O411 2.419 . S
Eu367 C431 2.848 . S
N368 C360 1.362 . S
N368 Eu367 2.657 . S
N368 C369 1.334 . S
C369 N368 1.334 . S
C369 C371 1.413 . S
C369 H376 0.929 . S
C370 C358 1.392 . S
C370 C371 1.367 . S
C370 H378 0.930 . S
C371 C369 1.413 . S
C371 C370 1.367 . S
C371 H373 0.930 . S
H372 C365 0.930 . S
H373 C371 0.930 . S
H374 C362 0.930 . S
H375 C363 0.930 1_554 S
H376 C369 0.929 . S
H377 C391 0.930 . S
H378 C370 0.930 . S
H379 C397 0.930 . S
H380 C388 0.929 . S
H381 C395 0.930 . S
H382 C359 0.931 . S
H383 C389 0.930 . S
H384 C422 0.930 . S
H385 C366 0.930 . S
H386 C421 0.931 . S
N387 Eu356 2.657 . S
N387 C388 1.334 . S
N387 C392 1.362 . S
C388 H380 0.929 . S
C388 N387 1.334 . S
C388 C391 1.413 . S
C389 H383 0.930 . S
C389 C390 1.392 . S
C389 C391 1.367 . S
C390 C389 1.392 . S
C390 C392 1.420 . S
C390 C422 1.423 . S
C391 H377 0.930 . S
C391 C388 1.413 . S
C391 C389 1.367 . S
C392 N387 1.362 . S
C392 C390 1.420 . S
C392 C396 1.429 . S
H393 C398 0.930 . S
N394 Eu356 2.609 . S
N394 C396 1.377 . S
N394 C397 1.321 1_455 S
C395 H381 0.930 . S
C395 C397 1.400 . S
C395 C398 1.386 1_655 S
C396 C392 1.429 . S
C396 N394 1.377 . S
C396 C399 1.411 . S
C397 H379 0.930 . S
C397 N394 1.321 1_655 S
C397 C395 1.400 . S
C398 H393 0.930 . S
C398 C395 1.386 1_455 S
C398 C399 1.395 . S
C399 C396 1.411 . S
C399 C398 1.395 . S
C399 C421 1.420 . S
O400 Eu356 2.558 . S
O400 C420 1.257 . S
O401 Eu356 2.612 . S
O401 Eu367 2.380 1_455 S
O401 C412 1.276 . S
O402 Eu367 2.432 1_455 S
O402 C419 1.264 . S
O403 Eu356 2.339 . S
O403 C419 1.254 . S
O404 Eu356 2.563 . S
O404 C412 1.235 . S
O405 Eu356 2.419 . S
O405 C420 1.249 . S
O406 Eu367 2.558 . S
O406 C431 1.257 . S
O407 Eu356 2.380 . S
O407 Eu367 2.612 1_455 S
O407 C423 1.276 1_455 S
O408 Eu356 2.432 1_655 S
O408 C430 1.264 . S
O409 Eu367 2.339 . S
O409 C430 1.254 . S
O410 Eu367 2.563 . S
O410 C423 1.235 . S
O411 Eu367 2.419 . S
O411 C431 1.249 . S
C412 O401 1.276 . S
C412 O404 1.235 . S
C413 C415 1.393 . S
C413 C417 1.395 . S
C413 C420 1.492 . S
C414 C415 1.392 . S
C414 C416 1.386 . S
C415 C413 1.393 . S
C415 C414 1.392 . S
C415 H432 0.930 . S
C416 C414 1.386 . S
C416 C418 1.395 . S
C416 H433 0.930 . S
C417 C413 1.395 . S
C417 C418 1.379 . S
C417 H434 0.930 . S
C418 C416 1.395 . S
C418 C417 1.379 . S
C418 H435 0.930 . S
C419 O402 1.264 . S
C419 O403 1.254 . S
C420 Eu356 2.848 . S
C420 O400 1.257 . S
C420 O405 1.249 . S
C420 C413 1.492 . S
C421 H386 0.931 . S
C421 C399 1.420 . S
C421 C422 1.351 . S
C422 H384 0.930 . S
C422 C390 1.423 . S
C422 C421 1.351 . S
C423 O407 1.276 1_655 S
C423 O410 1.235 . S
C424 C425 1.393 . S
C424 C428 1.395 . S
C424 C431 1.492 1_554 S
C425 C424 1.393 . S
C425 C426 1.392 . S
C425 H436 0.930 1_554 S
C426 C425 1.392 . S
C426 C427 1.386 . S
C427 C426 1.386 . S
C427 C429 1.395 . S
C427 H437 0.930 . S
C428 C424 1.395 . S
C428 C429 1.379 . S
C428 H438 0.930 . S
C429 C427 1.395 . S
C429 C428 1.379 . S
C429 H439 0.930 . S
C430 O408 1.264 . S
C430 O409 1.254 . S
C431 Eu367 2.848 . S
C431 O406 1.257 . S
C431 O411 1.249 . S
C431 C424 1.492 1_556 S
H432 C415 0.930 . S
H433 C416 0.930 . S
H434 C417 0.930 . S
H435 C418 0.930 . S
H436 C425 0.930 1_556 S
H437 C427 0.930 . S
H438 C428 0.930 . S
H439 C429 0.930 . S
H440 C446 0.930 . S
H441 C449 0.930 . S
H442 C450 0.907 1_565 S
H443 C451 0.930 . S
H444 C454 0.930 . S
H445 C455 0.930 . S
C446 H440 0.930 . S
C446 C447 1.355 . S
C446 C448 1.415 . S
C447 C446 1.355 . S
C447 C449 1.419 . S
C448 C446 1.415 . S
C448 C453 1.425 . S
C448 C455 1.409 . S
C449 H441 0.930 . S
C449 C447 1.419 . S
C449 C450 1.362 . S
C450 H442 0.907 1_545 S
C450 C449 1.362 . S
C450 C453 1.409 . S
C451 H443 0.930 . S
C451 C452 1.355 . S
C451 C453 1.415 . S
C452 C451 1.355 . S
C452 C454 1.419 . S
C453 C448 1.425 . S
C453 C450 1.409 . S
C453 C451 1.415 . S
C454 H444 0.930 . S
C454 C452 1.419 . S
C454 C455 1.362 . S
C455 H445 0.930 . S
C455 C448 1.409 . S
C455 C454 1.362 . S
H456 C462 0.930 . S
H457 C465 0.930 . S
H458 C466 0.930 . S
H459 C467 0.930 . S
H460 C470 0.930 . S
H461 C471 0.930 . S
C462 H456 0.930 . S
C462 C463 1.355 . S
C462 C464 1.415 . S
C463 C462 1.355 . S
C463 C465 1.419 . S
C464 C462 1.415 . S
C464 C469 1.425 . S
C464 C471 1.409 . S
C465 H457 0.930 . S
C465 C463 1.419 . S
C465 C466 1.362 . S
C466 H458 0.930 . S
C466 C465 1.362 . S
C466 C469 1.409 . S
C467 H459 0.930 . S
C467 C468 1.355 . S
C467 C469 1.415 . S
C468 C467 1.355 . S
C468 C470 1.419 . S
C469 C464 1.425 . S
C469 C466 1.409 . S
C469 C467 1.415 . S
C470 H460 0.930 . S
C470 C468 1.419 . S
C470 C471 1.362 . S
C471 H461 0.930 . S
C471 C464 1.409 . S
C471 C470 1.362 . S
H472 C478 0.930 . S
H473 C481 0.930 . S
H474 C482 0.930 . S
H475 C483 0.930 . S
H476 C486 0.930 . S
H477 C487 0.930 . S
C478 H472 0.930 . S
C478 C479 1.355 . S
C478 C480 1.415 . S
C479 C478 1.355 . S
C479 C481 1.419 . S
C480 C478 1.415 . S
C480 C485 1.425 . S
C480 C487 1.409 . S
C481 H473 0.930 . S
C481 C479 1.419 . S
C481 C482 1.362 . S
C482 H474 0.930 . S
C482 C481 1.362 . S
C482 C485 1.409 . S
C483 H475 0.930 . S
C483 C484 1.355 . S
C483 C485 1.415 . S
C484 C483 1.355 . S
C484 C486 1.419 . S
C485 C480 1.425 . S
C485 C482 1.409 . S
C485 C483 1.415 . S
C486 H476 0.930 . S
C486 C484 1.419 . S
C486 C487 1.362 . S
C487 H477 0.930 . S
C487 C480 1.409 . S
C487 C486 1.362 . S
H488 C494 0.930 . S
H489 C497 0.930 . S
H490 C498 0.930 . S
H491 C499 0.930 . S
H492 C502 0.930 . S
H493 C503 0.930 . S
C494 H488 0.930 . S
C494 C495 1.355 . S
C494 C496 1.415 . S
C495 C494 1.355 . S
C495 C497 1.419 . S
C496 C494 1.415 . S
C496 C501 1.425 . S
C496 C503 1.409 . S
C497 H489 0.930 . S
C497 C495 1.419 . S
C497 C498 1.362 . S
C498 H490 0.930 . S
C498 C497 1.362 . S
C498 C501 1.409 . S
C499 H491 0.930 . S
C499 C500 1.355 . S
C499 C501 1.415 . S
C500 C499 1.355 . S
C500 C502 1.419 . S
C501 C496 1.425 . S
C501 C498 1.409 . S
C501 C499 1.415 . S
C502 H492 0.930 . S
C502 C500 1.419 . S
C502 C503 1.362 . S
C503 H493 0.930 . S
C503 C496 1.409 . S
C503 C502 1.362 . S
H504 C510 0.930 . S
H505 C513 0.930 . S
H506 C514 0.930 1_556 S
H507 C515 0.930 . S
H508 C518 0.930 1_545 S
H509 C519 0.930 . S
C510 H504 0.930 . S
C510 C511 1.355 . S
C510 C512 1.415 . S
C511 C510 1.355 . S
C511 C513 1.419 . S
C512 C510 1.415 . S
C512 C517 1.425 . S
C512 C519 1.409 . S
C513 H505 0.930 . S
C513 C511 1.419 . S
C513 C514 1.362 . S
C514 H506 0.930 1_554 S
C514 C513 1.362 . S
C514 C517 1.409 . S
C515 H507 0.930 . S
C515 C516 1.355 . S
C515 C517 1.415 1_556 S
C516 C515 1.355 . S
C516 C518 1.419 . S
C517 C512 1.425 . S
C517 C514 1.409 . S
C517 C515 1.415 1_554 S
C518 H508 0.930 1_565 S
C518 C516 1.419 . S
C518 C519 1.362 1_556 S
C519 H509 0.930 . S
C519 C512 1.409 . S
C519 C518 1.362 1_554 S
H520 C526 0.930 . S
H521 C529 0.930 . S
H522 C530 0.930 . S
H523 C531 0.931 . S
H524 C534 0.930 . S
H525 C535 0.930 . S
C526 H520 0.930 . S
C526 C527 1.355 . S
C526 C528 1.415 . S
C527 C526 1.355 . S
C527 C529 1.419 . S
C528 C526 1.415 . S
C528 C533 1.425 . S
C528 C535 1.409 1_554 S
C529 H521 0.930 . S
C529 C527 1.419 . S
C529 C530 1.362 . S
C530 H522 0.930 . S
C530 C529 1.362 . S
C530 C533 1.409 . S
C531 H523 0.931 . S
C531 C532 1.355 . S
C531 C533 1.415 1_556 S
C532 C531 1.355 . S
C532 C534 1.419 . S
C533 C528 1.425 . S
C533 C530 1.409 . S
C533 C531 1.415 1_554 S
C534 H524 0.930 . S
C534 C532 1.419 . S
C534 C535 1.362 . S
C535 H525 0.930 . S
C535 C528 1.409 1_556 S
C535 C534 1.362 . S
H536 C542 0.930 . S
H537 C545 0.930 . S
H538 C546 0.930 . S
H539 C547 0.930 . S
H540 C550 0.930 . S
H541 C551 0.930 1_554 S
C542 H536 0.930 . S
C542 C543 1.355 . S
C542 C544 1.415 . S
C543 C542 1.355 . S
C543 C545 1.419 . S
C544 C542 1.415 . S
C544 C549 1.425 . S
C544 C551 1.409 1_554 S
C545 H537 0.930 . S
C545 C543 1.419 . S
C545 C546 1.362 . S
C546 H538 0.930 . S
C546 C545 1.362 . S
C546 C549 1.409 . S
C547 H539 0.930 . S
C547 C548 1.355 . S
C547 C549 1.415 1_556 S
C548 C547 1.355 . S
C548 C550 1.419 . S
C549 C544 1.425 . S
C549 C546 1.409 . S
C549 C547 1.415 1_554 S
C550 H540 0.930 . S
C550 C548 1.419 . S
C550 C551 1.362 . S
C551 H541 0.930 1_556 S
C551 C544 1.409 1_556 S
C551 C550 1.362 . S
H552 C558 0.930 . S
H553 C561 0.920 1_455 S
H554 C562 0.930 . S
H555 C563 0.930 1_455 S
H556 C566 0.930 . S
H557 C567 0.930 . S
C558 H552 0.930 . S
C558 C559 1.355 . S
C558 C560 1.415 . S
C559 C558 1.355 . S
C559 C561 1.419 . S
C560 C558 1.415 . S
C560 C565 1.425 . S
C560 C567 1.409 . S
C561 H553 0.920 1_655 S
C561 C559 1.419 . S
C561 C562 1.362 1_655 S
C562 H554 0.930 . S
C562 C561 1.362 1_455 S
C562 C565 1.409 1_455 S
C563 H555 0.930 1_655 S
C563 C564 1.355 . S
C563 C565 1.415 1_556 S
C564 C563 1.355 . S
C564 C566 1.419 . S
C565 C560 1.425 . S
C565 C562 1.409 1_655 S
C565 C563 1.415 1_554 S
C566 H556 0.930 . S
C566 C564 1.419 . S
C566 C567 1.362 1_556 S
C567 H557 0.930 . S
C567 C560 1.409 . S
C567 C566 1.362 1_554 S
H568 C574 0.930 . S
H569 C577 0.930 . S
H570 C578 0.930 . S
H571 C579 0.930 . S
H572 C582 0.930 . S
H573 C583 0.930 1_655 S
C574 H568 0.930 . S
C574 C575 1.355 . S
C574 C576 1.415 . S
C575 C574 1.355 . S
C575 C577 1.419 . S
C576 C574 1.415 . S
C576 C581 1.425 . S
C576 C583 1.409 . S
C577 H569 0.930 . S
C577 C575 1.419 . S
C577 C578 1.362 . S
C578 H570 0.930 . S
C578 C577 1.362 . S
C578 C581 1.409 . S
C579 H571 0.930 . S
C579 C580 1.355 . S
C579 C581 1.415 . S
C580 C579 1.355 . S
C580 C582 1.419 1_455 S
C581 C576 1.425 . S
C581 C578 1.409 . S
C581 C579 1.415 . S
C582 H572 0.930 . S
C582 C580 1.419 1_655 S
C582 C583 1.362 1_655 S
C583 H573 0.930 1_455 S
C583 C576 1.409 . S
C583 C582 1.362 1_455 S
H584 C590 0.930 . S
H585 C593 0.930 1_556 S
H586 C594 0.930 . S
H587 C595 0.930 . S
H588 C598 0.930 . S
H589 C599 0.930 . S
C590 H584 0.930 . S
C590 C591 1.355 . S
C590 C592 1.415 . S
C591 C590 1.355 . S
C591 C593 1.419 . S
C592 C590 1.415 . S
C592 C597 1.425 . S
C592 C599 1.409 . S
C593 H585 0.930 1_554 S
C593 C591 1.419 . S
C593 C594 1.362 . S
C594 H586 0.930 . S
C594 C593 1.362 . S
C594 C597 1.409 . S
C595 H587 0.930 . S
C595 C596 1.376 . S
C595 C597 1.415 . S
C596 C595 1.376 . S
C596 C598 1.415 1_545 S
C597 C592 1.425 . S
C597 C594 1.409 . S
C597 C595 1.415 . S
C598 H588 0.930 . S
C598 C596 1.415 1_565 S
C598 C599 1.362 1_565 S
C599 H589 0.930 . S
C599 C592 1.409 . S
C599 C598 1.362 1_545 S
H600 C606 0.930 . S
H601 C609 0.930 . S
H602 C610 0.930 . S
H603 C611 0.930 . S
H604 C614 0.930 . S
H605 C615 0.930 . S
C606 H600 0.930 . S
C606 C607 1.355 . S
C606 C608 1.415 . S
C607 C606 1.355 . S
C607 C609 1.419 . S
C608 C606 1.415 . S
C608 C613 1.425 . S
C608 C615 1.409 . S
C609 H601 0.930 . S
C609 C607 1.419 . S
C609 C610 1.362 . S
C610 H602 0.930 . S
C610 C609 1.362 . S
C610 C613 1.409 . S
C611 H603 0.930 . S
C611 C612 1.355 . S
C611 C613 1.415 . S
C612 C611 1.355 . S
C612 C614 1.419 . S
C613 C608 1.425 . S
C613 C610 1.409 . S
C613 C611 1.415 . S
C614 H604 0.930 . S
C614 C612 1.419 . S
C614 C615 1.362 . S
C615 H605 0.930 . S
C615 C608 1.409 . S
C615 C614 1.362 . S
H616 C622 0.930 . S
H617 C625 0.930 . S
H618 C626 0.930 . S
H619 C627 0.930 . S
H620 C630 0.930 . S
H621 C631 0.930 . S
C622 H616 0.930 . S
C622 C623 1.355 . S
C622 C624 1.415 . S
C623 C622 1.355 . S
C623 C625 1.419 . S
C624 C622 1.415 . S
C624 C629 1.425 . S
C624 C631 1.409 . S
C625 H617 0.930 . S
C625 C623 1.419 . S
C625 C626 1.362 . S
C626 H618 0.930 . S
C626 C625 1.362 . S
C626 C629 1.409 . S
C627 H619 0.930 . S
C627 C628 1.355 . S
C627 C629 1.415 . S
C628 C627 1.355 . S
C628 C630 1.419 . S
C629 C624 1.425 . S
C629 C626 1.409 . S
C629 C627 1.415 . S
C630 H620 0.930 . S
C630 C628 1.419 . S
C630 C631 1.362 . S
C631 H621 0.930 . S
C631 C624 1.409 . S
C631 C630 1.362 . S
H632 C638 0.930 . S
H633 C641 0.930 . S
H634 C642 0.930 . S
H635 C643 0.930 . S
H636 C646 0.930 . S
H637 C647 0.930 . S
C638 H632 0.930 . S
C638 C639 1.355 . S
C638 C640 1.415 . S
C639 C638 1.355 . S
C639 C641 1.419 . S
C640 C638 1.415 . S
C640 C645 1.425 . S
C640 C647 1.409 1_655 S
C641 H633 0.930 . S
C641 C639 1.419 . S
C641 C642 1.362 . S
C642 H634 0.930 . S
C642 C641 1.362 . S
C642 C645 1.409 . S
C643 H635 0.930 . S
C643 C644 1.355 1_655 S
C643 C645 1.415 . S
C644 C643 1.355 1_455 S
C644 C646 1.419 . S
C645 C640 1.425 . S
C645 C642 1.409 . S
C645 C643 1.415 . S
C646 H636 0.930 . S
C646 C644 1.419 . S
C646 C647 1.362 . S
C647 H637 0.930 . S
C647 C640 1.409 1_455 S
C647 C646 1.362 . S
H648 C654 0.930 . S
H649 C657 0.930 . S
H650 C658 0.930 . S
H651 C659 0.930 . S
H652 C662 0.930 1_556 S
H653 C663 0.930 1_556 S
C654 H648 0.930 . S
C654 C655 1.355 . S
C654 C656 1.415 . S
C655 C654 1.355 . S
C655 C657 1.419 . S
C656 C654 1.415 . S
C656 C661 1.425 1_565 S
C656 C663 1.409 . S
C657 H649 0.930 . S
C657 C655 1.419 . S
C657 C658 1.362 1_565 S
C658 H650 0.930 . S
C658 C657 1.362 1_545 S
C658 C661 1.409 . S
C659 H651 0.930 . S
C659 C660 1.355 . S
C659 C661 1.415 . S
C660 C659 1.355 . S
C660 C662 1.419 1_545 S
C661 C656 1.425 1_545 S
C661 C658 1.409 . S
C661 C659 1.415 . S
C662 H652 0.930 1_554 S
C662 C660 1.419 1_565 S
C662 C663 1.362 . S
C663 H653 0.930 1_554 S
C663 C656 1.409 . S
C663 C662 1.362 . S
H664 C670 0.930 . S
H665 C673 0.930 . S
H666 C674 0.930 . S
H667 C675 0.930 . S
H668 C678 0.930 . S
H669 C679 0.930 . S
C670 H664 0.930 . S
C670 C671 1.355 . S
C670 C672 1.415 . S
C671 C670 1.355 . S
C671 C673 1.419 . S
C672 C670 1.415 . S
C672 C677 1.425 . S
C672 C679 1.409 . S
C673 H665 0.930 . S
C673 C671 1.419 . S
C673 C674 1.362 . S
C674 H666 0.930 . S
C674 C673 1.362 . S
C674 C677 1.409 . S
C675 H667 0.930 . S
C675 C676 1.355 . S
C675 C677 1.415 . S
C676 C675 1.355 . S
C676 C678 1.419 . S
C677 C672 1.425 . S
C677 C674 1.409 . S
C677 C675 1.415 . S
C678 H668 0.930 . S
C678 C676 1.419 . S
C678 C679 1.362 . S
C679 H669 0.930 . S
C679 C672 1.409 . S
C679 C678 1.362 . S
H680 C686 0.930 . S
H681 C689 0.930 . S
H682 C690 0.930 . S
H683 C691 0.930 . S
H684 C694 0.930 1_556 S
H685 C695 0.930 1_556 S
C686 H680 0.930 . S
C686 C687 1.355 . S
C686 C688 1.415 . S
C687 C686 1.355 . S
C687 C689 1.419 . S
C688 C686 1.415 . S
C688 C693 1.425 . S
C688 C695 1.409 . S
C689 H681 0.930 . S
C689 C687 1.419 . S
C689 C690 1.362 . S
C690 H682 0.930 . S
C690 C689 1.362 . S
C690 C693 1.409 . S
C691 H683 0.930 . S
C691 C692 1.355 . S
C691 C693 1.415 . S
C692 C691 1.355 . S
C692 C694 1.419 . S
C693 C688 1.425 . S
C693 C690 1.409 . S
C693 C691 1.415 . S
C694 H684 0.930 1_554 S
C694 C692 1.419 . S
C694 C695 1.362 . S
C695 H685 0.930 1_554 S
C695 C688 1.409 . S
C695 C694 1.362 . S
H696 C702 0.930 . S
H697 C705 0.930 . S
H698 C706 0.930 . S
H699 C707 0.930 . S
H700 C710 0.930 . S
H701 C711 0.930 . S
C702 H696 0.930 . S
C702 C703 1.355 . S
C702 C704 1.415 . S
C703 C702 1.355 . S
C703 C705 1.419 . S
C704 C702 1.415 . S
C704 C709 1.425 . S
C704 C711 1.409 . S
C705 H697 0.930 . S
C705 C703 1.419 . S
C705 C706 1.362 . S
C706 H698 0.930 . S
C706 C705 1.362 . S
C706 C709 1.409 . S
C707 H699 0.930 . S
C707 C708 1.355 . S
C707 C709 1.415 . S
C708 C707 1.355 . S
C708 C710 1.419 . S
C709 C704 1.425 . S
C709 C706 1.409 . S
C709 C707 1.415 . S
C710 H700 0.930 . S
C710 C708 1.419 . S
C710 C711 1.362 . S
C711 H701 0.930 . S
C711 C704 1.409 . S
C711 C710 1.362 . S
H712 C718 0.930 . S
H713 C721 0.930 . S
H714 C722 0.930 . S
H715 C723 0.930 . S
H716 C726 0.930 . S
H717 C727 0.930 . S
C718 H712 0.930 . S
C718 C719 1.355 . S
C718 C720 1.415 . S
C719 C718 1.355 . S
C719 C721 1.419 . S
C720 C718 1.415 . S
C720 C725 1.425 . S
C720 C727 1.409 . S
C721 H713 0.930 . S
C721 C719 1.419 . S
C721 C722 1.362 . S
C722 H714 0.930 . S
C722 C721 1.362 . S
C722 C725 1.409 . S
C723 H715 0.930 . S
C723 C724 1.355 . S
C723 C725 1.415 . S
C724 C723 1.355 . S
C724 C726 1.419 . S
C725 C720 1.425 . S
C725 C722 1.409 . S
C725 C723 1.415 . S
C726 H716 0.930 . S
C726 C724 1.419 . S
C726 C727 1.362 . S
C727 H717 0.930 . S
C727 C720 1.409 . S
C727 C726 1.362 . S
H728 C734 0.930 . S
H729 C737 0.930 . S
H730 C738 0.930 . S
H731 C739 0.930 . S
H732 C742 0.930 . S
H733 C743 0.930 . S
C734 H728 0.930 . S
C734 C735 1.355 . S
C734 C736 1.415 . S
C735 C734 1.355 . S
C735 C737 1.419 . S
C736 C734 1.415 . S
C736 C741 1.425 . S
C736 C743 1.409 . S
C737 H729 0.930 . S
C737 C735 1.419 . S
C737 C738 1.362 . S
C738 H730 0.930 . S
C738 C737 1.362 . S
C738 C741 1.409 . S
C739 H731 0.930 . S
C739 C740 1.355 . S
C739 C741 1.415 . S
C740 C739 1.355 . S
C740 C742 1.419 . S
C741 C736 1.425 . S
C741 C738 1.409 . S
C741 C739 1.415 . S
C742 H732 0.930 . S
C742 C740 1.419 . S
C742 C743 1.362 . S
C743 H733 0.930 . S
C743 C736 1.409 . S
C743 C742 1.362 . S
H744 C750 0.930 . S
H745 C753 0.930 . S
H746 C754 0.930 . S
H747 C755 0.930 . S
H748 C758 0.930 . S
H749 C759 0.930 1_554 S
C750 H744 0.930 . S
C750 C751 1.355 . S
C750 C752 1.415 . S
C751 C750 1.355 . S
C751 C753 1.419 . S
C752 C750 1.415 . S
C752 C757 1.425 . S
C752 C759 1.409 . S
C753 H745 0.930 . S
C753 C751 1.419 . S
C753 C754 1.362 . S
C754 H746 0.930 . S
C754 C753 1.362 . S
C754 C757 1.409 . S
C755 H747 0.930 . S
C755 C756 1.355 . S
C755 C757 1.415 . S
C756 C755 1.355 . S
C756 C758 1.419 . S
C757 C752 1.425 . S
C757 C754 1.409 . S
C757 C755 1.415 . S
C758 H748 0.930 . S
C758 C756 1.419 . S
C758 C759 1.362 . S
C759 H749 0.930 1_556 S
C759 C752 1.409 . S
C759 C758 1.362 . S
H760 C766 0.930 . S
H761 C769 0.930 . S
H762 C770 0.930 . S
H763 C771 0.930 . S
H764 C774 0.929 1_455 S
H765 C775 0.930 . S
C766 H760 0.930 . S
C766 C767 1.355 . S
C766 C768 1.415 . S
C767 C766 1.355 . S
C767 C769 1.419 . S
C768 C766 1.415 . S
C768 C773 1.425 . S
C768 C775 1.409 . S
C769 H761 0.930 . S
C769 C767 1.419 . S
C769 C770 1.362 . S
C770 H762 0.930 . S
C770 C769 1.362 . S
C770 C773 1.409 . S
C771 H763 0.930 . S
C771 C772 1.355 . S
C771 C773 1.415 . S
C772 C771 1.355 . S
C772 C774 1.419 . S
C773 C768 1.425 . S
C773 C770 1.409 . S
C773 C771 1.415 . S
C774 H764 0.929 1_655 S
C774 C772 1.419 . S
C774 C775 1.362 . S
C775 H765 0.930 . S
C775 C768 1.409 . S
C775 C774 1.362 . S
H776 C782 0.930 1_545 S
H777 C785 0.930 . S
H778 C786 0.930 . S
H779 C787 0.930 . S
H780 C790 0.930 . S
H781 C791 0.930 . S
C782 H776 0.930 1_565 S
C782 C783 1.355 . S
C782 C784 1.415 . S
C783 C782 1.355 . S
C783 C785 1.419 . S
C784 C782 1.415 . S
C784 C789 1.425 . S
C784 C791 1.409 1_565 S
C785 H777 0.930 . S
C785 C783 1.419 . S
C785 C786 1.362 . S
C786 H778 0.930 . S
C786 C785 1.362 . S
C786 C789 1.409 . S
C787 H779 0.930 . S
C787 C788 1.355 . S
C787 C789 1.415 . S
C788 C787 1.355 . S
C788 C790 1.419 1_565 S
C789 C784 1.425 . S
C789 C786 1.409 . S
C789 C787 1.415 . S
C790 H780 0.930 . S
C790 C788 1.419 1_545 S
C790 C791 1.362 . S
C791 H781 0.930 . S
C791 C784 1.409 1_545 S
C791 C790 1.362 . S
H792 C798 0.930 . S
H793 C801 0.930 . S
H794 C802 0.930 . S
H795 C803 0.930 . S
H796 C806 0.930 . S
H797 C807 0.930 . S
C798 H792 0.930 . S
C798 C799 1.355 . S
C798 C800 1.415 . S
C799 C798 1.355 . S
C799 C801 1.419 . S
C800 C798 1.415 . S
C800 C805 1.425 . S
C800 C807 1.409 . S
C801 H793 0.930 . S
C801 C799 1.419 . S
C801 C802 1.362 . S
C802 H794 0.930 . S
C802 C801 1.362 . S
C802 C805 1.409 . S
C803 H795 0.930 . S
C803 C804 1.355 . S
C803 C805 1.415 . S
C804 C803 1.355 . S
C804 C806 1.419 . S
C805 C800 1.425 . S
C805 C802 1.409 . S
C805 C803 1.415 . S
C806 H796 0.930 . S
C806 C804 1.419 . S
C806 C807 1.362 . S
C807 H797 0.930 . S
C807 C800 1.409 . S
C807 C806 1.362 . S
H808 C814 0.930 . S
H809 C817 0.930 . S
H810 C818 0.930 . S
H811 C819 0.930 . S
H812 C822 0.930 . S
H813 C823 0.930 . S
C814 H808 0.930 . S
C814 C815 1.355 . S
C814 C816 1.415 . S
C815 C814 1.355 . S
C815 C817 1.419 . S
C816 C814 1.415 . S
C816 C821 1.425 . S
C816 C823 1.409 . S
C817 H809 0.930 . S
C817 C815 1.419 . S
C817 C818 1.362 . S
C818 H810 0.930 . S
C818 C817 1.362 . S
C818 C821 1.409 . S
C819 H811 0.930 . S
C819 C820 1.355 . S
C819 C821 1.415 . S
C820 C819 1.355 . S
C820 C822 1.419 . S
C821 C816 1.425 . S
C821 C818 1.409 . S
C821 C819 1.415 . S
C822 H812 0.930 . S
C822 C820 1.419 . S
C822 C823 1.362 . S
C823 H813 0.930 . S
C823 C816 1.409 . S
C823 C822 1.362 . S
C447 C82 1.795 . S
C452 C178 2.007 . S
C468 C262 2.025 . S
C463 C95 1.831 . S
C484 C328 1.974 . S
C479 C56 1.908 . S
C500 C412 1.980 . S
C495 C69 1.897 . S
C516 C167 1.957 1_565 S
C511 C30 1.650 . S
C527 C43 1.773 . S
C532 C251 2.009 . S
C543 C4 1.780 . S
C548 C339 1.947 . S
C559 C17 1.753 . S
C564 C423 1.920 . S
C580 C174 0.728 1_455 S
C575 C74 0.815 . S
C596 C258 0.652 1_545 S
C591 C87 0.719 . S
C612 C330 0.710 . S
C607 C100 0.643 . S
C623 C61 0.712 . S
C628 C414 0.707 . S
C639 C22 0.752 . S
C644 C162 0.711 . S
C660 C246 0.766 . S
C655 C35 0.633 . S
C676 C342 0.687 . S
C671 C48 0.736 . S
C687 C9 0.628 . S
C692 C426 0.777 . S
C703 C73 2.012 . S
C708 C171 2.123 . S
C719 C86 2.054 . S
C724 C255 2.129 . S
C740 C335 2.121 . S
C735 C99 1.953 . S
C756 C419 2.157 . S
C751 C60 2.000 . S
C767 C21 2.081 . S
C772 C160 2.141 . S
C788 C244 2.064 . S
C783 C34 2.010 . S
C804 C346 2.160 . S
C799 C47 1.923 . S
C815 C8 1.979 . S
C820 C430 2.146 . S
