# Generated by pormake.
# Topology zzz, (3,6)-cn, num edge types: 1
# Building blocks:
#     Node 0, Type 0, BuildingBlock: PAMTOO_clean_linker_0, # of connection points: 3
#     Node 1, Type 0, BuildingBlock: PAMTOO_clean_linker_0, # of connection points: 3
#     Node 2, Type 0, BuildingBlock: PAMTOO_clean_linker_0, # of connection points: 3
#     Node 3, Type 0, BuildingBlock: PAMTOO_clean_linker_0, # of connection points: 3
#     Node 4, Type 0, BuildingBlock: PAMTOO_clean_linker_0, # of connection points: 3
#     Node 5, Type 0, BuildingBlock: PAMTOO_clean_linker_0, # of connection points: 3
#     Node 6, Type 0, BuildingBlock: PAMTOO_clean_linker_0, # of connection points: 3
#     Node 7, Type 0, BuildingBlock: PAMTOO_clean_linker_0, # of connection points: 3
#     Node 8, Type 1, BuildingBlock: MIFKUJ_clean_sbu_0, # of connection points: 6
#     Node 9, Type 1, BuildingBlock: MIFKUJ_clean_sbu_0, # of connection points: 6
#     Node 10, Type 1, BuildingBlock: MIFKUJ_clean_sbu_0, # of connection points: 6
#     Node 11, Type 1, BuildingBlock: MIFKUJ_clean_sbu_0, # of connection points: 6
#     Edge 12, Type (0, 1), BuildingBlock: XIVTED_clean_linker_0, # of connection points: 2
#     Edge 13, Type (0, 1), BuildingBlock: XIVTED_clean_linker_0, # of connection points: 2
#     Edge 14, Type (0, 1), BuildingBlock: XIVTED_clean_linker_0, # of connection points: 2
#     Edge 15, Type (0, 1), BuildingBlock: XIVTED_clean_linker_0, # of connection points: 2
#     Edge 16, Type (0, 1), BuildingBlock: XIVTED_clean_linker_0, # of connection points: 2
#     Edge 17, Type (0, 1), BuildingBlock: XIVTED_clean_linker_0, # of connection points: 2
#     Edge 18, Type (0, 1), BuildingBlock: XIVTED_clean_linker_0, # of connection points: 2
#     Edge 19, Type (0, 1), BuildingBlock: XIVTED_clean_linker_0, # of connection points: 2
#     Edge 20, Type (0, 1), BuildingBlock: XIVTED_clean_linker_0, # of connection points: 2
#     Edge 21, Type (0, 1), BuildingBlock: XIVTED_clean_linker_0, # of connection points: 2
#     Edge 22, Type (0, 1), BuildingBlock: XIVTED_clean_linker_0, # of connection points: 2
#     Edge 23, Type (0, 1), BuildingBlock: XIVTED_clean_linker_0, # of connection points: 2
#     Edge 24, Type (0, 1), BuildingBlock: XIVTED_clean_linker_0, # of connection points: 2
#     Edge 25, Type (0, 1), BuildingBlock: XIVTED_clean_linker_0, # of connection points: 2
#     Edge 26, Type (0, 1), BuildingBlock: XIVTED_clean_linker_0, # of connection points: 2
#     Edge 27, Type (0, 1), BuildingBlock: XIVTED_clean_linker_0, # of connection points: 2
#     Edge 28, Type (0, 1), BuildingBlock: XIVTED_clean_linker_0, # of connection points: 2
#     Edge 29, Type (0, 1), BuildingBlock: XIVTED_clean_linker_0, # of connection points: 2
#     Edge 30, Type (0, 1), BuildingBlock: XIVTED_clean_linker_0, # of connection points: 2
#     Edge 31, Type (0, 1), BuildingBlock: XIVTED_clean_linker_0, # of connection points: 2
#     Edge 32, Type (0, 1), BuildingBlock: XIVTED_clean_linker_0, # of connection points: 2
#     Edge 33, Type (0, 1), BuildingBlock: XIVTED_clean_linker_0, # of connection points: 2
#     Edge 34, Type (0, 1), BuildingBlock: XIVTED_clean_linker_0, # of connection points: 2
#     Edge 35, Type (0, 1), BuildingBlock: XIVTED_clean_linker_0, # of connection points: 2
# Relax obj value: 0.115
# Max RMSD: 0.119
# Mean RMSD: 0.083
data_MOF--net-zzz--node1-MIFKUJ_clean_sbu_0--node2-PAMTOO_clean_linker_0--edge1-XIVTED_clean_linker_0
_symmetry_space_group_name_H-M    P1
_symmetry_Int_Tables_number       1
_symmetry_cell_setting            triclinic
loop_
_symmetry_equiv_pos_as_xyz
'x, y, z'
_cell_length_a     50.40406
_cell_length_b     50.185448
_cell_length_c     16.21941
_cell_angle_alpha  89.89599
_cell_angle_beta   89.92371
_cell_angle_gamma 90.023059
loop_
_atom_site_label
_atom_site_type_symbol
_atom_site_fract_x
_atom_site_fract_y
_atom_site_fract_z
_atom_type_partial_charge
H0 H 0.82072 0.48325 0.11338 0.0
H1 H 0.7477 0.4917 0.97875 0.0
H2 H 0.75177 0.51507 0.23382 0.0
H3 H 0.69047 0.4987 0.17497 0.0
C4 C 0.69987 0.49415 0.1146 0.0
O5 O 0.7209 0.51138 0.10236 0.0
H6 H 0.70665 0.47302 0.11763 0.0
C7 C 0.7998 0.48832 0.11159 0.0
C8 C 0.788 0.49919 0.18187 0.0
C9 C 0.78554 0.48538 0.03812 0.0
C10 C 0.75887 0.49329 0.03555 0.0
C11 C 0.74654 0.50354 0.10634 0.0
C12 C 0.76114 0.5066 0.17975 0.0
H13 H 0.99065 0.80553 0.03335 0.0
H14 H 0.99479 0.72374 0.95971 0.0
H15 H 1.00752 0.74477 0.21395 0.0
H16 H 0.03177 0.68199 0.16005 0.0
C17 C 0.02659 0.69125 0.09991 0.0
O18 O 1.00311 0.70514 0.10876 0.0
H19 H 0.04337 0.70475 0.08345 0.0
C20 C 0.99379 0.78483 0.05 0.0
C21 C 0.99991 0.77798 0.13153 0.0
C22 C 0.99253 0.76562 0.98796 0.0
C23 C 0.99573 0.73872 0.00761 0.0
C24 C 1.00061 0.73123 0.08961 0.0
C25 C 1.00294 0.7508 0.15143 0.0
H26 H 0.70039 0.04067 0.10366 0.0
H27 H 0.7731 0.02533 0.97263 0.0
H28 H 0.76565 1.00332 0.22821 0.0
H29 H 0.8307 0.01193 0.16415 0.0
C30 C 0.8199 0.01928 0.10892 0.0
O31 O 0.7974 1.00394 0.09811 0.0
H32 H 0.8148 0.04052 0.12124 0.0
C33 C 0.72088 0.03405 0.10309 0.0
C34 C 0.73135 0.02254 0.17451 0.0
C35 C 0.73556 0.0351 0.02969 0.0
C36 C 0.76154 0.02507 0.029 0.0
C37 C 0.77257 0.0141 0.10075 0.0
C38 C 0.75737 0.01253 0.17354 0.0
H39 H 0.49819 0.70217 0.10722 0.0
H40 H 0.51587 0.77543 0.98055 0.0
H41 H 0.53492 0.76669 0.23808 0.0
H42 H 0.52663 0.83076 0.18496 0.0
C43 C 0.51956 0.8214 0.12698 0.0
O44 O 0.53526 0.79949 0.11018 0.0
H45 H 0.4985 0.81555 0.13789 0.0
C46 C 0.50532 0.72258 0.10817 0.0
C47 C 0.51622 0.73262 0.18093 0.0
C48 C 0.50511 0.7377 0.03559 0.0
C49 C 0.51551 0.76362 0.03653 0.0
C50 C 0.5257 0.7743 0.10988 0.0
C51 C 0.52646 0.75864 0.18203 0.0
H52 H 0.21528 0.53877 0.08857 0.0
H53 H 0.28929 0.53418 0.21979 0.0
H54 H 0.2835 0.50406 0.97202 0.0
H55 H 0.32772 0.47287 0.08068 0.0
C56 C 0.3225 0.48634 0.13253 0.0
O57 O 0.31514 0.51082 0.10067 0.0
H58 H 0.3058 0.47674 0.16657 0.0
C59 C 0.23624 0.53388 0.09025 0.0
C60 C 0.24765 0.52145 0.02187 0.0
C61 C 0.25094 0.53859 0.16203 0.0
C62 C 0.27773 0.5311 0.16436 0.0
C63 C 0.28951 0.5187 0.09605 0.0
C64 C 0.27447 0.5139 0.0244 0.0
H65 H 0.05368 0.20705 0.12231 0.0
H66 H 0.04775 0.28587 0.22268 0.0
H67 H 0.0495 0.27475 0.95952 0.0
H68 H 1.007 0.31052 0.09071 0.0
C69 C 0.02431 0.3241 0.0821 0.0
O70 O 0.04792 0.31014 0.07961 0.0
H71 H 0.0214 0.3343 0.02193 0.0
C72 C 0.05333 0.22846 0.11272 0.0
C73 C 0.05261 0.23868 0.03242 0.0
C74 C 0.05122 0.24524 0.18111 0.0
C75 C 0.04953 0.27279 0.16989 0.0
C76 C 0.04937 0.28346 0.08994 0.0
C77 C 0.05045 0.26642 0.02111 0.0
H78 H 0.30836 0.97228 0.10777 0.0
H79 H 0.2332 0.97003 0.23403 0.0
H80 H 0.23887 1.00409 0.99087 0.0
H81 H 0.19424 0.03244 0.10163 0.0
C82 C 0.19891 0.01822 0.1522 0.0
O83 O 0.20706 0.99437 0.11787 0.0
H84 H 0.21501 0.02747 0.18957 0.0
C85 C 0.28712 0.97578 0.10871 0.0
C86 C 0.27543 0.98834 0.04093 0.0
C87 C 0.27221 0.96893 0.17869 0.0
C88 C 0.24499 0.97469 0.18001 0.0
C89 C 0.23298 0.9875 0.11283 0.0
C90 C 0.24813 0.99407 0.04255 0.0
H91 H 0.51924 0.30397 0.09648 0.0
H92 H 0.51622 0.22845 0.22154 0.0
H93 H 0.48506 0.23606 0.97528 0.0
H94 H 0.45594 0.18808 0.082 0.0
C95 C 0.46901 0.19455 0.13335 0.0
O96 O 0.49291 0.20315 0.10081 0.0
H97 H 0.45844 0.21097 0.16591 0.0
C98 C 0.51425 0.28292 0.09663 0.0
C99 C 0.50162 0.27199 0.0279 0.0
C100 C 0.51976 0.26745 0.16636 0.0
C101 C 0.5125 0.24051 0.16731 0.0
C102 C 0.50001 0.22914 0.09854 0.0
C103 C 0.49474 0.24484 0.02827 0.0
Zn104 Zn 0.99828 0.04431 0.5818 0.0
Zn105 Zn 1.0064 0.97385 0.61827 0.0
C106 C 1.00123 0.07959 0.7078 0.0
O107 O 0.97681 0.08066 0.67973 0.0
C108 C 0.01739 0.93664 0.49972 0.0
O109 O 0.03803 0.93604 0.54905 0.0
O110 O 0.9958 0.07756 0.51249 0.0
O111 O 0.02096 0.01979 0.51184 0.0
O112 O 0.04096 0.99419 0.60234 0.0
C113 C 0.019 0.08734 0.50493 0.0
O114 O 0.03933 0.07343 0.53181 0.0
O115 O 0.0163 0.06101 0.68163 0.0
C116 C 0.98994 0.92717 0.68669 0.0
O117 O 0.96925 0.93638 0.64652 0.0
O118 O 0.01057 0.94176 0.69217 0.0
O119 O 0.9732 0.99185 0.66232 0.0
O120 O 0.9621 0.03206 0.61847 0.0
O121 O 0.99981 0.95455 0.51031 0.0
C122 C 0.0418 0.00809 0.53675 0.0
C123 C 0.95701 0.01126 0.66032 0.0
Zn124 Zn 0.4744 0.98789 0.57978 0.0
Zn125 Zn 0.53158 0.01618 0.63182 0.0
C126 C 0.43851 0.98208 0.7069 0.0
O127 O 0.44414 0.95764 0.68369 0.0
C128 C 0.56454 0.0249 0.49859 0.0
O129 O 0.55731 0.04883 0.52252 0.0
O130 O 0.44523 0.97055 0.51434 0.0
O131 O 0.48733 0.01757 0.50491 0.0
O132 O 0.50481 0.04419 0.59755 0.0
C133 C 0.42594 0.98666 0.5062 0.0
O134 O 0.42915 0.01158 0.52886 0.0
O135 O 0.45249 1.00109 0.67785 0.0
C136 C 0.5809 0.01862 0.69966 0.0
O137 O 0.57847 0.99393 0.67386 0.0
O138 O 0.56092 0.03405 0.69528 0.0
O139 O 0.52103 0.98505 0.70496 0.0
O140 O 0.49923 0.95906 0.61906 0.0
O141 O 0.55279 1.00487 0.53043 0.0
C142 C 0.49373 0.04087 0.528 0.0
C143 C 0.51227 0.96217 0.68532 0.0
Zn144 Zn 0.52627 0.47179 0.57637 0.0
Zn145 Zn 0.50498 0.53177 0.63319 0.0
C146 C 0.52751 0.43427 0.69994 0.0
O147 O 0.55232 0.43689 0.67623 0.0
C148 C 0.49833 0.56538 0.5011 0.0
O149 O 0.47422 0.56031 0.52783 0.0
O150 O 0.53939 0.44113 0.50732 0.0
O151 O 0.49841 0.4892 0.50434 0.0
O152 O 0.47414 0.50804 0.60056 0.0
C153 C 0.52128 0.42369 0.49897 0.0
O154 O 0.49715 0.42926 0.52438 0.0
O155 O 0.51051 0.45091 0.67284 0.0
C156 C 0.50908 0.58118 0.70129 0.0
O157 O 0.53293 0.57583 0.67302 0.0
O158 O 0.49137 0.5631 0.69846 0.0
O159 O 0.53515 0.51761 0.70338 0.0
O160 O 0.558 0.49236 0.61775 0.0
O161 O 0.51747 0.55189 0.53091 0.0
C162 C 0.476 0.49738 0.52975 0.0
C163 C 0.55658 0.50585 0.68384 0.0
Zn164 Zn 0.04756 0.52049 0.56675 0.0
Zn165 Zn 0.99 0.49372 0.62683 0.0
C166 C 0.08301 0.52831 0.69403 0.0
O167 O 0.07702 0.55242 0.66837 0.0
C168 C 0.95349 0.48792 0.50263 0.0
O169 O 0.95943 0.46354 0.52593 0.0
O170 O 0.07627 0.53779 0.49883 0.0
O171 O 0.03522 0.48972 0.49639 0.0
O172 O 0.01365 0.46414 0.58461 0.0
C173 C 0.09621 0.52241 0.49257 0.0
O174 O 0.09414 0.49777 0.51943 0.0
O175 O 0.06957 0.50879 0.66608 0.0
C176 C 0.94242 0.49469 0.70622 0.0
O177 O 0.94635 0.51932 0.68138 0.0
O178 O 0.96092 0.47772 0.69656 0.0
O179 O 1.00476 0.52333 0.69845 0.0
O180 O 0.02191 0.54901 0.60236 0.0
O181 O 0.96744 0.50705 0.53078 0.0
C182 C 0.02599 0.46708 0.51679 0.0
C183 C 0.01213 0.54624 0.67401 0.0
H184 H 0.14668 0.02968 0.1196 0.0
H185 H 0.09081 0.98451 0.56251 0.0
H186 H 0.19709 0.99707 0.30883 0.0
H187 H 0.04687 0.03111 0.38517 0.0
H188 H 0.12905 0.98483 0.46801 0.0
H189 H 0.10866 0.02562 0.21268 0.0
C190 C 0.14966 0.02153 0.18077 0.0
C191 C 0.17504 0.01397 0.20704 0.0
C192 C 0.11097 0.99493 0.45004 0.0
C193 C 0.13163 0.0092 0.31427 0.0
C194 C 0.08916 0.99476 0.50393 0.0
C195 C 0.06552 0.0078 0.48201 0.0
C196 C 0.10904 0.00805 0.37352 0.0
C197 C 0.06457 0.02075 0.40511 0.0
C198 C 0.128 0.01927 0.23407 0.0
C199 C 0.17781 1.00326 0.28665 0.0
N200 N 0.0859 0.02049 0.35394 0.0
N201 N 0.15639 1.0013 0.33771 0.0
H202 H 0.48465 0.1972 0.29529 0.0
H203 H 0.47368 0.03976 0.37143 0.0
H204 H 0.46426 0.14069 0.10605 0.0
H205 H 0.50534 0.09397 0.55279 0.0
H206 H 0.46848 0.0769 0.2759 0.0
H207 H 0.4912 0.16016 0.39238 0.0
C208 C 0.48162 0.17694 0.27434 0.0
C209 C 0.47364 0.17193 0.19301 0.0
C210 C 0.47659 0.08073 0.33651 0.0
C211 C 0.48101 0.12952 0.3033 0.0
C212 C 0.47952 0.05949 0.39139 0.0
C213 C 0.48999 0.06367 0.47056 0.0
C214 C 0.48403 0.10652 0.36068 0.0
C215 C 0.49717 0.08977 0.49253 0.0
C216 C 0.48533 0.15584 0.32964 0.0
C217 C 0.47013 0.14538 0.16852 0.0
N218 N 0.49402 0.1102 0.43795 0.0
N219 N 0.47368 0.1252 0.22352 0.0
H220 H 0.37539 0.47759 0.10147 0.0
H221 H 0.42465 0.51414 0.55824 0.0
H222 H 0.32214 0.50274 0.29415 0.0
H223 H 0.4745 0.47869 0.37162 0.0
H224 H 0.38729 0.51284 0.46147 0.0
H225 H 0.41256 0.48108 0.19795 0.0
C226 C 0.37159 0.48389 0.16423 0.0
C227 C 0.3457 0.48954 0.1904 0.0
C228 C 0.40643 0.50534 0.44187 0.0
C229 C 0.38808 0.49376 0.30128 0.0
C230 C 0.42776 0.50605 0.49712 0.0
C231 C 0.45281 0.49648 0.47328 0.0
C232 C 0.41017 0.4951 0.36204 0.0
C233 C 0.45561 0.4863 0.39305 0.0
C234 C 0.39277 0.48586 0.21937 0.0
C235 C 0.34184 0.49799 0.272 0.0
N236 N 0.43464 0.48592 0.34054 0.0
N237 N 0.36278 0.49975 0.32472 0.0
H238 H 1.00356 0.32052 0.23893 0.0
H239 H 0.05339 0.466 0.37137 0.0
H240 H 0.04826 0.37304 0.08086 0.0
H241 H 1.00317 0.41717 0.5258 0.0
H242 H 0.05423 0.43061 0.26898 0.0
H243 H 1.00547 0.3541 0.34881 0.0
C244 C 0.01367 0.33921 0.22748 0.0
C245 C 0.02531 0.34437 0.15045 0.0
C246 C 0.04309 0.42753 0.3253 0.0
C247 C 0.02795 0.38261 0.27569 0.0
C248 C 0.04261 0.44777 0.38408 0.0
C249 C 0.02806 0.44468 0.45741 0.0
C250 C 0.02889 0.40388 0.33945 0.0
C251 C 0.01464 0.42047 0.47025 0.0
C252 C 0.01482 0.35832 0.29009 0.0
C253 C 0.03868 0.36857 0.13904 0.0
N254 N 0.01528 0.40105 0.41168 0.0
N255 N 0.03954 0.38683 0.20078 0.0
H256 H 0.82629 0.05524 0.98185 0.0
H257 H 0.93973 0.96996 0.75736 0.0
H258 H 0.85291 0.97826 0.06534 0.0
H259 H 0.92003 0.05069 0.68827 0.0
H260 H 0.90411 0.97069 0.85906 0.0
H261 H 0.85675 0.05211 0.86394 0.0
C262 C 0.83858 0.03768 0.97511 0.0
C263 C 0.83757 0.0172 0.03403 0.0
C264 C 0.9074 0.98819 0.82124 0.0
C265 C 0.87216 0.01328 0.89915 0.0
C266 C 0.92773 0.98777 0.76269 0.0
C267 C 0.9331 0.01037 0.71413 0.0
C268 C 0.89221 0.01139 0.83186 0.0
C269 C 0.91672 0.03281 0.72423 0.0
C270 C 0.85591 0.03586 0.90788 0.0
C271 C 0.85346 0.99463 0.0218 0.0
N272 N 0.89718 0.03281 0.78234 0.0
N273 N 0.87021 0.99333 0.95609 0.0
H274 H 0.55197 0.86512 0.11028 0.0
H275 H 0.48881 0.91269 0.68045 0.0
H276 H 0.49058 0.82174 0.98369 0.0
H277 H 0.54329 0.96013 0.82369 0.0
H278 H 0.49243 0.87707 0.78318 0.0
H279 H 0.55235 0.898 -0.00171 0.0
C280 C 0.53861 0.86256 0.05864 0.0
C281 C 0.52088 0.84105 0.05664 0.0
C282 C 0.5037 0.89522 0.79187 0.0
C283 C 0.52128 0.87835 0.92798 0.0
C284 C 0.50171 0.91555 0.73305 0.0
C285 C 0.51565 0.93955 0.74352 0.0
C286 C 0.51984 0.89882 0.86159 0.0
C287 C 0.53201 0.94209 0.81317 0.0
C288 C 0.5388 0.88128 -0.00524 0.0
C289 C 0.50429 0.8383 0.98781 0.0
N290 N 0.53358 0.92205 0.86949 0.0
N291 N 0.50476 0.85683 0.92642 0.0
H292 H 0.69858 0.46847 0.96515 0.0
H293 H 0.56193 0.53614 0.82298 0.0
H294 H 0.6567 0.52746 0.10732 0.0
H295 H 0.60304 0.47696 0.67831 0.0
H296 H 0.59779 0.53487 0.92362 0.0
H297 H 0.66526 0.47287 0.8556 0.0
C298 C 0.68231 0.48233 0.97308 0.0
C299 C 0.67999 0.49724 0.04581 0.0
C300 C 0.59908 0.52224 0.86973 0.0
C301 C 0.64199 0.50261 0.92089 0.0
C302 C 0.57856 0.52294 0.81204 0.0
C303 C 0.57933 0.50653 0.742 0.0
C304 C 0.62062 0.50491 0.85789 0.0
C305 C 0.60155 0.48997 0.73125 0.0
C306 C 0.66334 0.48487 0.91066 0.0
C307 C 0.6589 0.5153 0.05268 0.0
N308 N 0.62122 0.48948 0.78878 0.0
N309 N 0.64063 0.51735 -0.00866 0.0
H310 H 1.00393 0.64197 0.11713 0.0
H311 H 0.03136 0.597 0.65027 0.0
H312 H 0.04079 0.69286 0.93606 0.0
H313 H 0.99316 0.54709 0.83221 0.0
H314 H 0.03364 0.63293 0.75185 0.0
H315 H 0.99855 0.60743 0.01179 0.0
C316 C 0.01097 0.64574 0.05507 0.0
C317 C 0.02329 0.66996 0.03537 0.0
C318 C 0.02465 0.61415 0.76939 0.0
C319 C 0.017 0.63082 0.91421 0.0
C320 C 0.02328 0.59363 0.71132 0.0
C321 C 0.01214 0.56889 0.73269 0.0
C322 C 0.01482 0.60995 0.84952 0.0
C323 C 1.00203 0.56574 0.81289 0.0
C324 C 0.00786 0.62611 -0.00509 0.0
C325 C 0.03161 0.6742 0.95383 0.0
N326 N 1.00371 0.58595 0.86831 0.0
N327 N 0.02846 0.65476 0.89628 0.0
H328 H 1.00519 0.23948 0.26517 0.0
H329 H 0.06597 0.11378 0.49661 0.0
H330 H 0.0884 0.22034 0.27389 0.0
H331 H 0.98234 0.1236 0.44744 0.0
H332 H 0.07396 0.15864 0.44612 0.0
H333 H 0.99639 0.20413 0.3662 0.0
C334 C 0.02171 0.22861 0.29151 0.0
C335 C 0.04753 0.23267 0.26201 0.0
C336 C 0.05382 0.15109 0.44671 0.0
C337 C 0.03766 0.19191 0.37434 0.0
C338 C 0.04922 0.12536 0.47506 0.0
C339 C 0.02347 0.1147 0.47464 0.0
C340 C 0.03259 0.16636 0.4171 0.0
C341 C 1.00255 0.1309 0.44748 0.0
C342 C 0.01667 0.20821 0.34801 0.0
C343 C 0.06828 0.21779 0.29596 0.0
N344 N 1.00761 0.1559 0.4189 0.0
N345 N 0.06284 0.19773 0.34952 0.0
H346 H 0.26488 0.98467 0.33883 0.0
H347 H 0.37912 0.01179 0.53147 0.0
H348 H 0.3122 0.93197 0.18888 0.0
H349 H 0.41237 0.94044 0.42533 0.0
H350 H 0.33597 0.9993 0.48048 0.0
H351 H 0.29765 0.98106 0.44808 0.0
C352 C 0.2819 0.97186 0.32947 0.0
C353 C 0.28644 0.95957 0.2532 0.0
C354 C 0.35228 0.98577 0.46988 0.0
C355 C 0.3251 0.95705 0.37536 0.0
C356 C 0.37722 0.99325 0.49786 0.0
C357 C 0.39947 0.97747 0.48062 0.0
C358 C 0.34947 0.96232 0.42348 0.0
C359 C 0.39573 0.95338 0.43867 0.0
C360 C 0.30103 0.97031 0.39132 0.0
C361 C 0.30857 0.94277 0.24552 0.0
N362 N 0.37125 0.94679 0.40997 0.0
N363 N 0.32752 0.94264 0.30481 0.0
H364 H 0.56405 0.29839 0.17805 0.0
H365 H 0.49346 0.37863 0.53121 0.0
H366 H 0.49803 0.26859 0.31989 0.0
H367 H 0.56314 0.40693 0.40338 0.0
H368 H 0.50095 0.33436 0.47516 0.0
H369 H 0.57117 0.33297 0.28155 0.0
C370 C 0.55167 0.29861 0.23272 0.0
C371 C 0.53013 0.28106 0.24008 0.0
C372 C 0.51481 0.3501 0.45982 0.0
C373 C 0.53757 0.32087 0.35706 0.0
C374 C 0.51039 0.37548 0.49118 0.0
C375 C 0.52729 0.3966 0.46977 0.0
C376 C 0.53603 0.34585 0.40534 0.0
C377 C 0.54938 0.39123 0.42004 0.0
C378 C 0.5556 0.31844 0.29146 0.0
C379 C 0.51473 0.28193 0.31187 0.0
N380 N 0.55285 0.36643 0.3881 0.0
N381 N 0.51833 0.30201 0.36673 0.0
H382 H 0.25338 0.51712 0.31641 0.0
H383 H 0.10715 0.5677 0.40291 0.0
H384 H 0.21514 0.57938 0.17673 0.0
H385 H 0.14433 0.49976 0.51831 0.0
H386 H 0.15047 0.58087 0.34672 0.0
H387 H 0.21885 0.52086 0.42113 0.0
C388 C 0.23825 0.53227 0.30924 0.0
C389 C 0.23661 0.54742 0.23678 0.0
C390 C 0.14914 0.56329 0.38532 0.0
C391 C 0.19655 0.55111 0.35451 0.0
C392 C 0.12444 0.55572 0.41693 0.0
C393 C 0.12208 0.53219 0.46307 0.0
C394 C 0.1715 0.54726 0.4006 0.0
C395 C 0.14512 0.51762 0.48086 0.0
C396 C 0.21832 0.53419 0.36857 0.0
C397 C 0.21661 0.5668 0.23082 0.0
N398 N 0.16878 0.52524 0.44888 0.0
N399 N 0.19689 0.56761 0.28783 0.0
H400 H 0.03305 0.7751 0.8834 0.0
H401 H 0.94774 0.89343 0.69431 0.0
H402 H 0.94822 0.78145 0.90668 0.0
H403 H 0.03224 0.89665 0.73664 0.0
H404 H 0.94782 0.84655 0.73411 0.0
H405 H 0.0327 0.81207 0.78483 0.0
C406 C 0.01418 0.7833 0.86389 0.0
C407 C 0.99063 0.77546 0.90296 0.0
C408 C 0.96637 0.85747 0.73415 0.0
C409 C 0.99014 0.81821 0.79384 0.0
C410 C 0.96635 0.88429 0.7121 0.0
C411 C 0.98997 0.89911 0.71379 0.0
C412 C 0.99019 0.84529 0.75784 0.0
C413 C 0.0135 0.8861 0.73619 0.0
C414 C 0.01404 0.80474 0.80909 0.0
C415 C 0.96673 0.78699 0.87733 0.0
N416 N 0.01299 0.85992 0.75786 0.0
N417 N 0.96713 0.80829 0.82567 0.0
H418 H 0.73662 0.00955 0.88123 0.0
H419 H 0.59295 0.06424 0.78592 0.0
H420 H 0.70219 0.07747 0.00389 0.0
H421 H 0.62855 0.99506 0.67324 0.0
H422 H 0.63661 0.07674 0.84043 0.0
H423 H 0.70257 0.01274 0.7754 0.0
C424 C 0.72246 0.02574 0.8844 0.0
C425 C 0.72169 0.04274 0.95279 0.0
C426 C 0.63488 0.05903 0.80275 0.0
C427 C 0.68202 0.04586 0.83381 0.0
C428 C 0.60997 0.05186 0.77207 0.0
C429 C 0.60705 0.02818 0.7273 0.0
C430 C 0.65686 0.04241 0.7881 0.0
C431 C 0.62976 0.01307 0.70969 0.0
C432 C 0.70276 0.02737 0.82441 0.0
C433 C 0.70289 0.06341 0.95338 0.0
N434 N 0.65361 0.02027 0.74093 0.0
N435 N 0.6833 0.06395 0.8961 0.0
H436 H 0.45976 0.70961 0.00545 0.0
H437 H 0.53776 0.62596 0.67162 0.0
H438 H 0.53328 0.73423 0.89261 0.0
H439 H 0.46646 0.5986 0.79278 0.0
H440 H 0.53019 0.67037 0.7265 0.0
H441 H 0.45507 0.67495 0.90076 0.0
C442 C 0.47444 0.70825 0.95676 0.0
C443 C 0.49722 0.72433 0.95839 0.0
C444 C 0.51602 0.65478 0.74061 0.0
C445 C 0.49235 0.68449 0.84005 0.0
C446 C 0.52044 0.62932 0.70984 0.0
C447 C 0.50308 0.6084 0.72969 0.0
C448 C 0.49426 0.65937 0.79264 0.0
C449 C 0.48057 0.6141 0.7773 0.0
C450 C 0.47186 0.68837 0.89744 0.0
C451 C 0.51553 0.72207 0.89379 0.0
N452 N 0.47703 0.639 0.80842 0.0
N453 N 0.51302 0.70202 0.83825 0.0
H454 H 0.78574 0.50987 0.88785 0.0
H455 H 0.92812 0.4495 0.79201 0.0
H456 H 0.81942 0.44327 0.01942 0.0
H457 H 0.89637 0.52185 0.68708 0.0
H458 H 0.8841 0.43945 0.84934 0.0
H459 H 0.82056 0.50564 0.784 0.0
C460 C 0.79992 0.49375 0.8933 0.0
C461 C 0.80018 0.47732 0.96317 0.0
C462 C 0.88677 0.45735 0.81285 0.0
C463 C 0.84054 0.47293 0.84657 0.0
C464 C 0.91187 0.46312 0.78057 0.0
C465 C 0.91601 0.48689 0.73689 0.0
C466 C 0.8658 0.47541 0.80062 0.0
C467 C 0.89424 0.50366 0.72247 0.0
C468 C 0.82002 0.49152 0.83456 0.0
C469 C 0.81902 0.45675 0.96724 0.0
N470 N 0.87017 0.49773 0.7549 0.0
N471 N 0.83888 0.45553 0.91081 0.0
H472 H 0.01539 0.23707 0.91062 0.0
H473 H 0.05204 0.08867 0.76682 0.0
H474 H 0.08452 0.19574 0.00074 0.0
H475 H 0.97422 0.12426 0.7506 0.0
H476 H 0.06841 0.12992 0.8315 0.0
H477 H 1.00524 0.19876 0.82297 0.0
C478 C 0.02888 0.22027 0.90995 0.0
C479 C 0.05069 0.21946 0.96332 0.0
C480 C 0.04777 0.12854 0.81356 0.0
C481 C 0.03885 0.17527 0.86521 0.0
C482 C 0.03839 0.10498 0.77733 0.0
C483 C 0.01167 0.10286 0.75378 0.0
C484 C 0.03036 0.15015 0.82492 0.0
C485 C 0.99494 0.12478 0.76797 0.0
C486 C 0.02289 0.19824 0.86092 0.0
C487 C 0.06736 0.19699 0.96082 0.0
N488 N 1.00457 0.14743 0.80215 0.0
N489 N 0.06093 0.17562 0.9134 0.0
H490 H 0.27965 0.96294 0.89362 0.0
H491 H 0.42168 0.02736 0.7893 0.0
H492 H 0.31262 0.02757 0.03449 0.0
H493 H 0.39659 0.94836 0.71915 0.0
H494 H 0.37823 0.03411 0.85638 0.0
H495 H 0.31812 0.96496 0.80098 0.0
C496 C 0.2945 0.97826 0.90288 0.0
C497 C 0.29294 0.99529 0.97091 0.0
C498 C 0.38235 0.01538 0.8259 0.0
C499 C 0.3374 0.99714 0.86762 0.0
C500 C 0.40712 0.01149 0.78806 0.0
C501 C 0.41299 0.9871 0.74991 0.0
C502 C 0.36322 0.99494 0.82377 0.0
C503 C 0.39324 0.96732 0.74915 0.0
C504 C 0.31665 0.97916 0.85096 0.0
C505 C 0.31307 0.01433 0.98186 0.0
N506 N 0.36935 0.97169 0.78528 0.0
N507 N 0.33465 0.01457 0.93134 0.0
H508 H 0.52679 0.27293 0.87952 0.0
H509 H 0.48071 0.42276 0.78217 0.0
H510 H 0.46678 0.31326 0.0213 0.0
H511 H 0.55523 0.388 0.70727 0.0
H512 H 0.4684 0.37988 0.8461 0.0
H513 H 0.52913 0.31151 0.7867 0.0
C514 C 0.51334 0.28948 0.88892 0.0
C515 C 0.49647 0.28997 0.95748 0.0
C516 C 0.48737 0.38175 0.81523 0.0
C517 C 0.49965 0.33446 0.85403 0.0
C518 C 0.49444 0.4062 0.77922 0.0
C519 C 0.51924 0.40915 0.74083 0.0
C520 C 0.50503 0.36007 0.81107 0.0
C521 C 0.53613 0.3869 0.73769 0.0
C522 C 0.51495 0.31167 0.8369 0.0
C523 C 0.47988 0.31217 0.96845 0.0
N524 N 0.52873 0.36341 0.77222 0.0
N525 N 0.48211 0.33373 0.91794 0.0
H526 H 0.23964 0.55327 0.88912 0.0
H527 H 0.10316 0.48194 0.76255 0.0
H528 H 0.21409 0.4796 7e-05 0.0
H529 H 0.12122 0.56518 0.7247 0.0
H530 H 0.14695 0.47627 0.82777 0.0
H531 H 0.20048 0.55243 0.79983 0.0
C532 C 0.22629 0.53636 0.89209 0.0
C533 C 0.2302 0.51626 0.95069 0.0
C534 C 0.1412 0.49572 0.80495 0.0
C535 C 0.1848 0.51568 0.85186 0.0
C536 C 0.1162 0.499 0.76827 0.0
C537 C 0.10832 0.52413 0.7389 0.0
C538 C 0.15853 0.51761 0.81077 0.0
C539 C 0.12618 0.54547 0.74711 0.0
C540 C 0.20372 0.53608 0.84229 0.0
C541 C 0.2119 0.49519 0.95433 0.0
N542 N 0.15035 0.5417 0.78185 0.0
N543 N 0.18978 0.49555 0.9062 0.0
H544 H 0.98567 0.77929 0.29665 0.0
H545 H 1.00149 0.93571 0.3381 0.0
H546 H 0.02305 0.82671 0.10651 0.0
H547 H 0.02174 0.88486 0.54308 0.0
H548 H 0.99682 0.89577 0.25083 0.0
H549 H 0.98827 0.81796 0.38972 0.0
C550 C 0.9945 0.79763 0.27447 0.0
C551 C 1.00358 0.79981 0.1928 0.0
C552 C 1.00209 0.89349 0.31519 0.0
C553 C 1.00562 0.84404 0.29747 0.0
C554 C 1.00463 0.91614 0.36467 0.0
C555 C 0.01229 0.91339 0.44707 0.0
C556 C 1.00649 0.86811 0.34943 0.0
C557 C 0.01614 0.88767 0.47922 0.0
C558 C 0.99574 0.81967 0.32729 0.0
C559 C 0.01481 0.82423 0.16769 0.0
N560 N 0.01308 0.86593 0.43041 0.0
N561 N 0.01512 0.84544 0.21925 0.0
H562 H 0.71458 0.06201 0.27511 0.0
H563 H 0.59172 0.97885 0.45674 0.0
H564 H 0.70548 0.97805 0.22913 0.0
H565 H 0.5952 0.06455 0.43538 0.0
H566 H 0.63592 0.9762 0.39219 0.0
H567 H 0.67469 0.06105 0.36089 0.0
C568 C 0.70464 0.04316 0.28579 0.0
C569 C 0.71343 0.02002 0.24625 0.0
C570 C 0.62687 0.99552 0.40166 0.0
C571 C 0.66703 0.01888 0.34094 0.0
C572 C 0.60158 0.99704 0.43779 0.0
C573 C 0.5896 0.02196 0.45122 0.0
C574 C 0.64031 0.01908 0.37995 0.0
C575 C 0.60348 0.04487 0.4263 0.0
C576 C 0.68163 0.04265 0.33353 0.0
C577 C 0.6995 0.99619 0.26001 0.0
N578 N 0.62801 0.04286 0.39244 0.0
N579 N 0.67673 0.99625 0.30553 0.0
H580 H 0.55877 0.70474 0.23904 0.0
H581 H 0.46096 0.59728 0.43219 0.0
H582 H 0.47516 0.71724 0.27712 0.0
H583 H 0.54575 0.59057 0.46315 0.0
H584 H 0.46705 0.64089 0.37046 0.0
H585 H 0.55614 0.66388 0.32291 0.0
C586 C 0.54013 0.69944 0.2681 0.0
C587 C 0.5172 0.71446 0.25251 0.0
C588 C 0.48441 0.62999 0.39063 0.0
C589 C 0.51375 0.6674 0.34452 0.0
C590 C 0.48097 0.60486 0.42532 0.0
C591 C 0.50288 0.59012 0.45298 0.0
C592 C 0.51002 0.64065 0.38245 0.0
C593 C 0.52831 0.60115 0.44216 0.0
C594 C 0.53854 0.67596 0.31481 0.0
C595 C 0.49333 0.70637 0.28892 0.0
N596 N 0.53121 0.6258 0.40755 0.0
N597 N 0.49215 0.68323 0.33223 0.0
H598 H 0.79688 0.46434 0.30656 0.0
H599 H 0.93241 0.53531 0.44419 0.0
H600 H 0.82014 0.54137 0.21437 0.0
H601 H 0.91558 0.45125 0.46672 0.0
H602 H 0.8882 0.5417 0.38249 0.0
H603 H 0.83615 0.46392 0.39531 0.0
C604 C 0.80973 0.48165 0.30779 0.0
C605 C 0.80516 0.50309 0.25446 0.0
C606 C 0.89431 0.52191 0.40121 0.0
C607 C 0.85075 0.50232 0.35241 0.0
C608 C 0.91956 0.51823 0.43583 0.0
C609 C 0.9279 0.49267 0.45988 0.0
C610 C 0.87722 0.49994 0.39201 0.0
C611 C 0.91026 0.4713 0.44851 0.0
C612 C 0.83238 0.48125 0.35722 0.0
C613 C 0.82285 0.52471 0.25604 0.0
N614 N 0.88586 0.47544 0.41577 0.0
N615 N 0.84509 0.52367 0.30349 0.0
loop_
_geom_bond_atom_site_label_1
_geom_bond_atom_site_label_2
_geom_bond_distance
_geom_bond_site_symmetry_2
_ccdc_geom_bond_type
H0 C7 0.929 . S
H1 C10 0.930 . S
H2 C12 0.929 . S
H3 C4 0.969 . S
C4 H3 0.969 . S
C4 O5 1.550 1_556 S
C4 H6 0.973 . S
O5 C4 1.550 1_554 S
O5 C11 1.412 . S
H6 C4 0.973 . S
C7 H0 0.929 . S
C7 C8 1.400 . S
C7 C9 1.364 1_554 S
C8 C7 1.400 . S
C8 C12 1.377 . S
C9 C7 1.364 1_556 S
C9 C10 1.374 . S
C10 H1 0.930 . S
C10 C9 1.374 . S
C10 C11 1.383 1_556 S
C11 O5 1.412 . S
C11 C10 1.383 1_554 S
C11 C12 1.394 . S
C12 H2 0.929 . S
C12 C8 1.377 . S
C12 C11 1.394 . S
H13 C20 0.929 . S
H14 C23 0.930 . S
H15 C25 0.929 . S
H16 C17 0.969 . S
C17 H16 0.969 . S
C17 O18 1.550 1_556 S
C17 H19 0.973 . S
O18 C17 1.550 1_554 S
O18 C24 1.412 . S
H19 C17 0.973 . S
C20 H13 0.929 . S
C20 C21 1.400 . S
C20 C22 1.364 1_554 S
C21 C20 1.400 . S
C21 C25 1.377 . S
C22 C20 1.364 1_556 S
C22 C23 1.374 . S
C23 H14 0.930 . S
C23 C22 1.374 . S
C23 C24 1.383 1_556 S
C24 O18 1.412 . S
C24 C23 1.383 1_554 S
C24 C25 1.394 . S
C25 H15 0.929 . S
C25 C21 1.377 . S
C25 C24 1.394 . S
H26 C33 0.928 1_565 S
H27 C36 0.931 . S
H28 C38 0.928 1_565 S
H29 C30 0.969 . S
C30 H29 0.969 . S
C30 O31 1.550 1_546 S
C30 H32 0.973 1_545 S
O31 C30 1.550 1_564 S
O31 C37 1.405 1_565 S
H32 C30 0.973 1_565 S
C33 H26 0.928 1_545 S
C33 C34 1.399 . S
C33 C35 1.364 1_554 S
C34 C33 1.399 . S
C34 C38 1.377 . S
C35 C33 1.364 1_556 S
C35 C36 1.374 1_545 S
C36 H27 0.931 . S
C36 C35 1.374 1_565 S
C36 C37 1.382 1_566 S
C37 O31 1.405 1_545 S
C37 C36 1.382 1_544 S
C37 C38 1.394 . S
C38 H28 0.928 1_545 S
C38 C34 1.377 . S
C38 C37 1.394 . S
H39 C46 0.929 . S
H40 C49 0.930 . S
H41 C51 0.929 . S
H42 C43 0.969 . S
C43 H42 0.969 . S
C43 O44 1.550 1_556 S
C43 H45 0.973 . S
O44 C43 1.550 1_554 S
O44 C50 1.412 . S
H45 C43 0.973 . S
C46 H39 0.929 . S
C46 C47 1.400 . S
C46 C48 1.364 1_554 S
C47 C46 1.400 . S
C47 C51 1.377 . S
C48 C46 1.364 1_556 S
C48 C49 1.374 . S
C49 H40 0.930 . S
C49 C48 1.374 . S
C49 C50 1.383 1_556 S
C50 O44 1.412 . S
C50 C49 1.383 1_554 S
C50 C51 1.394 . S
C51 H41 0.929 . S
C51 C47 1.377 . S
C51 C50 1.394 . S
H52 C59 0.929 . S
H53 C62 0.930 . S
H54 C64 0.929 . S
H55 C56 0.969 . S
C56 H55 0.969 . S
C56 O57 1.550 . S
C56 H58 0.973 . S
O57 C56 1.550 . S
O57 C63 1.412 . S
H58 C56 0.973 . S
C59 H52 0.929 . S
C59 C60 1.400 . S
C59 C61 1.364 . S
C60 C59 1.400 . S
C60 C64 1.377 . S
C61 C59 1.364 . S
C61 C62 1.374 . S
C62 H53 0.930 . S
C62 C61 1.374 . S
C62 C63 1.383 . S
C63 O57 1.412 . S
C63 C62 1.383 . S
C63 C64 1.394 . S
C64 H54 0.929 . S
C64 C60 1.377 . S
C64 C63 1.394 . S
H65 C72 0.929 . S
H66 C75 0.930 . S
H67 C77 0.929 . S
H68 C69 0.969 . S
C69 H68 0.969 . S
C69 O70 1.550 . S
C69 H71 0.973 . S
O70 C69 1.550 . S
O70 C76 1.412 . S
H71 C69 0.973 . S
C72 H65 0.929 . S
C72 C73 1.400 . S
C72 C74 1.364 . S
C73 C72 1.400 . S
C73 C77 1.377 . S
C74 C72 1.364 . S
C74 C75 1.374 . S
C75 H66 0.930 . S
C75 C74 1.374 . S
C75 C76 1.383 . S
C76 O70 1.412 . S
C76 C75 1.383 . S
C76 C77 1.394 . S
C77 H67 0.929 . S
C77 C73 1.377 . S
C77 C76 1.394 . S
H78 C85 0.928 1_565 S
H79 C88 0.930 . S
H80 C90 0.928 1_565 S
H81 C82 0.969 . S
C82 H81 0.969 . S
C82 O83 1.550 1_545 S
C82 H84 0.973 1_545 S
O83 C82 1.550 1_565 S
O83 C89 1.402 1_565 S
H84 C82 0.973 1_565 S
C85 H78 0.928 1_545 S
C85 C86 1.400 . S
C85 C87 1.364 . S
C86 C85 1.400 . S
C86 C90 1.377 . S
C87 C85 1.364 . S
C87 C88 1.374 1_545 S
C88 H79 0.930 . S
C88 C87 1.374 1_565 S
C88 C89 1.382 1_565 S
C89 O83 1.402 1_545 S
C89 C88 1.382 1_545 S
C89 C90 1.394 . S
C90 H80 0.928 1_545 S
C90 C86 1.377 . S
C90 C89 1.394 . S
H91 C98 0.929 . S
H92 C101 0.930 . S
H93 C103 0.929 . S
H94 C95 0.969 . S
C95 H94 0.969 . S
C95 O96 1.550 . S
C95 H97 0.973 . S
O96 C95 1.550 . S
O96 C102 1.412 . S
H97 C95 0.973 . S
C98 H91 0.929 . S
C98 C99 1.400 . S
C98 C100 1.364 . S
C99 C98 1.400 . S
C99 C103 1.377 . S
C100 C98 1.364 . S
C100 C101 1.374 . S
C101 H92 0.930 . S
C101 C100 1.374 . S
C101 C102 1.383 . S
C102 O96 1.412 . S
C102 C101 1.383 . S
C102 C103 1.394 . S
C103 H93 0.929 . S
C103 C99 1.377 . S
C103 C102 1.394 . S
Zn104 O110 1.969 1_455 S
Zn104 O111 1.965 . S
Zn104 O115 2.024 . S
Zn104 O120 1.969 1_455 S
Zn105 O112 1.989 . S
Zn105 O118 1.977 . S
Zn105 O119 1.955 1_455 S
Zn105 O121 2.011 1_455 S
C106 O107 1.229 . S
C106 O115 1.058 . S
O107 C106 1.229 . S
C108 O109 1.229 1_655 S
C108 O121 1.058 . S
O109 C108 1.229 1_455 S
O110 Zn104 1.969 1_655 S
O110 C113 1.267 1_655 S
O111 Zn104 1.965 . S
O111 C122 1.260 1_545 S
O112 Zn105 1.989 . S
O112 C122 1.258 . S
C113 O110 1.267 1_455 S
C113 O114 1.228 . S
O114 C113 1.228 . S
O115 Zn104 2.024 . S
O115 C106 1.058 . S
C116 O117 1.228 . S
C116 O118 1.267 1_655 S
O117 C116 1.228 . S
O118 Zn105 1.977 . S
O118 C116 1.267 1_455 S
O119 Zn105 1.955 1_655 S
O119 C123 1.260 1_565 S
O120 Zn104 1.969 1_655 S
O120 C123 1.258 . S
O121 Zn105 2.011 1_655 S
O121 C108 1.058 . S
C122 O111 1.260 1_565 S
C122 O112 1.258 . S
C123 O119 1.260 1_545 S
C123 O120 1.258 . S
Zn124 O130 1.969 . S
Zn124 O131 1.965 1_565 S
Zn124 O135 2.024 1_565 S
Zn124 O140 1.969 . S
Zn125 O132 1.969 . S
Zn125 O138 1.969 . S
Zn125 O139 1.965 1_545 S
Zn125 O141 2.024 1_545 S
C126 O127 1.229 1_545 S
C126 O135 1.058 . S
O127 C126 1.229 1_565 S
C128 O129 1.229 1_565 S
C128 O141 1.058 . S
O129 C128 1.229 1_545 S
O130 Zn124 1.969 . S
O130 C133 1.267 . S
O131 Zn124 1.965 1_545 S
O131 C142 1.260 . S
O132 Zn125 1.969 . S
O132 C142 1.258 . S
C133 O130 1.267 . S
C133 O134 1.228 1_565 S
O134 C133 1.228 1_545 S
O135 Zn124 2.024 1_545 S
O135 C126 1.058 . S
C136 O137 1.228 1_545 S
C136 O138 1.267 . S
O137 C136 1.228 1_565 S
O138 Zn125 1.969 . S
O138 C136 1.267 . S
O139 Zn125 1.965 1_565 S
O139 C143 1.260 . S
O140 Zn124 1.969 . S
O140 C143 1.258 . S
O141 Zn125 2.024 1_565 S
O141 C128 1.058 . S
C142 O131 1.260 . S
C142 O132 1.258 . S
C143 O139 1.260 . S
C143 O140 1.258 . S
Zn144 O150 1.969 . S
Zn144 O151 1.965 . S
Zn144 O155 2.024 . S
Zn144 O160 1.969 . S
Zn145 O152 1.969 . S
Zn145 O158 1.969 . S
Zn145 O159 1.965 . S
Zn145 O161 2.024 . S
C146 O147 1.229 . S
C146 O155 1.058 . S
O147 C146 1.229 . S
C148 O149 1.229 . S
C148 O161 1.058 . S
O149 C148 1.229 . S
O150 Zn144 1.969 . S
O150 C153 1.267 . S
O151 Zn144 1.965 . S
O151 C162 1.260 . S
O152 Zn145 1.969 . S
O152 C162 1.258 . S
C153 O150 1.267 . S
C153 O154 1.228 . S
O154 C153 1.228 . S
O155 Zn144 2.024 . S
O155 C146 1.058 . S
C156 O157 1.228 . S
C156 O158 1.267 . S
O157 C156 1.228 . S
O158 Zn145 1.969 . S
O158 C156 1.267 . S
O159 Zn145 1.965 . S
O159 C163 1.260 . S
O160 Zn144 1.969 . S
O160 C163 1.258 . S
O161 Zn145 2.024 . S
O161 C148 1.058 . S
C162 O151 1.260 . S
C162 O152 1.258 . S
C163 O159 1.260 . S
C163 O160 1.258 . S
Zn164 O170 1.969 . S
Zn164 O171 1.965 . S
Zn164 O175 2.024 . S
Zn164 O180 1.969 . S
Zn165 O172 1.969 . S
Zn165 O178 1.969 . S
Zn165 O179 1.965 . S
Zn165 O181 2.024 . S
C166 O167 1.229 . S
C166 O175 1.058 . S
O167 C166 1.229 . S
C168 O169 1.229 . S
C168 O181 1.058 . S
O169 C168 1.229 . S
O170 Zn164 1.969 . S
O170 C173 1.267 . S
O171 Zn164 1.965 . S
O171 C182 1.260 . S
O172 Zn165 1.969 . S
O172 C182 1.258 1_655 S
C173 O170 1.267 . S
C173 O174 1.228 . S
O174 C173 1.228 . S
O175 Zn164 2.024 . S
O175 C166 1.058 . S
C176 O177 1.228 . S
C176 O178 1.267 . S
O177 C176 1.228 . S
O178 Zn165 1.969 . S
O178 C176 1.267 . S
O179 Zn165 1.965 . S
O179 C183 1.260 1_655 S
O180 Zn164 1.969 . S
O180 C183 1.258 . S
O181 Zn165 2.024 . S
O181 C168 1.058 . S
C182 O171 1.260 . S
C182 O172 1.258 1_455 S
C183 O179 1.260 1_455 S
C183 O180 1.258 . S
H184 C190 0.930 . S
H185 C194 0.930 . S
H186 C199 0.929 . S
H187 C197 0.929 . S
H188 C192 0.929 . S
H189 C198 0.929 . S
C190 H184 0.930 . S
C190 C191 1.376 . S
C190 C198 1.378 . S
C191 C190 1.376 . S
C191 C199 1.424 1_545 S
C192 H188 0.929 . S
C192 C194 1.378 . S
C192 C196 1.350 . S
C193 C196 1.463 1_545 S
C193 C198 1.348 . S
C193 N201 1.429 1_545 S
C194 H185 0.930 . S
C194 C192 1.378 . S
C194 C195 1.367 . S
C195 C194 1.367 . S
C195 C197 1.433 1_565 S
C196 C192 1.350 . S
C196 C193 1.463 1_565 S
C196 N200 1.427 1_565 S
C197 H187 0.929 . S
C197 C195 1.433 1_545 S
C197 N200 1.384 . S
C198 H189 0.929 . S
C198 C190 1.378 . S
C198 C193 1.348 . S
C199 H186 0.929 . S
C199 C191 1.424 1_565 S
C199 N201 1.384 . S
N200 C196 1.427 1_545 S
N200 C197 1.384 . S
N201 C193 1.429 1_565 S
N201 C199 1.384 . S
H202 C208 0.930 . S
H203 C212 0.930 . S
H204 C217 0.929 . S
H205 C215 0.929 . S
H206 C210 0.929 . S
H207 C216 0.929 . S
C208 H202 0.930 . S
C208 C209 1.367 . S
C208 C216 1.378 . S
C209 C208 1.367 . S
C209 C217 1.433 . S
C210 H206 0.929 . S
C210 C212 1.378 . S
C210 C214 1.350 . S
C211 C214 1.463 . S
C211 C216 1.350 . S
C211 N219 1.427 . S
C212 H203 0.930 . S
C212 C210 1.378 . S
C212 C213 1.367 . S
C213 C212 1.367 . S
C213 C215 1.433 . S
C214 C210 1.350 . S
C214 C211 1.463 . S
C214 N218 1.427 . S
C215 H205 0.929 . S
C215 C213 1.433 . S
C215 N218 1.384 . S
C216 H207 0.929 . S
C216 C208 1.378 . S
C216 C211 1.350 . S
C217 H204 0.929 . S
C217 C209 1.433 . S
C217 N219 1.384 . S
N218 C214 1.427 . S
N218 C215 1.384 . S
N219 C211 1.427 . S
N219 C217 1.384 . S
H220 C226 0.930 . S
H221 C230 0.930 . S
H222 C235 0.929 . S
H223 C233 0.929 . S
H224 C228 0.929 . S
H225 C234 0.929 . S
C226 H220 0.930 . S
C226 C227 1.367 . S
C226 C234 1.378 . S
C227 C226 1.367 . S
C227 C235 1.433 . S
C228 H224 0.929 . S
C228 C230 1.378 . S
C228 C232 1.350 . S
C229 C232 1.463 . S
C229 C234 1.350 . S
C229 N237 1.427 . S
C230 H221 0.930 . S
C230 C228 1.378 . S
C230 C231 1.367 . S
C231 C230 1.367 . S
C231 C233 1.433 . S
C232 C228 1.350 . S
C232 C229 1.463 . S
C232 N236 1.427 . S
C233 H223 0.929 . S
C233 C231 1.433 . S
C233 N236 1.384 . S
C234 H225 0.929 . S
C234 C226 1.378 . S
C234 C229 1.350 . S
C235 H222 0.929 . S
C235 C227 1.433 . S
C235 N237 1.384 . S
N236 C232 1.427 . S
N236 C233 1.384 . S
N237 C229 1.427 . S
N237 C235 1.384 . S
H238 C244 0.930 . S
H239 C248 0.930 1_655 S
H240 C253 0.929 . S
H241 C251 0.929 . S
H242 C246 0.929 . S
H243 C252 0.929 . S
C244 H238 0.930 . S
C244 C245 1.367 . S
C244 C252 1.378 . S
C245 C244 1.367 . S
C245 C253 1.433 . S
C246 H242 0.929 . S
C246 C248 1.378 . S
C246 C250 1.350 . S
C247 C250 1.463 . S
C247 C252 1.350 . S
C247 N255 1.427 . S
C248 H239 0.930 1_455 S
C248 C246 1.378 . S
C248 C249 1.367 . S
C249 C248 1.367 . S
C249 C251 1.433 . S
C250 C246 1.350 . S
C250 C247 1.463 . S
C250 N254 1.427 . S
C251 H241 0.929 . S
C251 C249 1.433 . S
C251 N254 1.384 . S
C252 H243 0.929 . S
C252 C244 1.378 . S
C252 C247 1.350 . S
C253 H240 0.929 . S
C253 C245 1.433 . S
C253 N255 1.384 . S
N254 C250 1.427 . S
N254 C251 1.384 . S
N255 C247 1.427 . S
N255 C253 1.384 . S
H256 C262 0.930 . S
H257 C266 0.930 . S
H258 C271 0.929 . S
H259 C269 0.929 . S
H260 C264 0.929 . S
H261 C270 0.929 . S
C262 H256 0.930 . S
C262 C263 1.397 . S
C262 C270 1.378 . S
C263 C262 1.397 . S
C263 C271 1.403 1_545 S
C264 H260 0.929 . S
C264 C266 1.378 . S
C264 C268 1.343 1_565 S
C265 C268 1.463 . S
C265 C270 1.350 . S
C265 N273 1.427 1_545 S
C266 H257 0.930 . S
C266 C264 1.378 . S
C266 C267 1.367 1_565 S
C267 C266 1.367 1_545 S
C267 C269 1.433 . S
C268 C264 1.343 1_545 S
C268 C265 1.463 . S
C268 N272 1.435 . S
C269 H259 0.929 . S
C269 C267 1.433 . S
C269 N272 1.384 . S
C270 H261 0.929 . S
C270 C262 1.378 . S
C270 C265 1.350 . S
C271 H258 0.929 . S
C271 C263 1.403 1_565 S
C271 N273 1.384 . S
N272 C268 1.435 . S
N272 C269 1.384 . S
N273 C265 1.427 1_565 S
N273 C271 1.384 . S
H274 C280 0.930 . S
H275 C284 0.930 . S
H276 C289 0.929 . S
H277 C287 0.929 . S
H278 C282 0.929 . S
H279 C288 0.929 . S
C280 H274 0.930 . S
C280 C281 1.367 . S
C280 C288 1.378 . S
C281 C280 1.367 . S
C281 C289 1.433 . S
C282 H278 0.929 . S
C282 C284 1.378 . S
C282 C286 1.350 . S
C283 C286 1.463 . S
C283 C288 1.350 . S
C283 N291 1.427 . S
C284 H275 0.930 . S
C284 C282 1.378 . S
C284 C285 1.367 . S
C285 C284 1.367 . S
C285 C287 1.433 . S
C286 C282 1.350 . S
C286 C283 1.463 . S
C286 N290 1.427 . S
C287 H277 0.929 . S
C287 C285 1.433 . S
C287 N290 1.384 . S
C288 H279 0.929 . S
C288 C280 1.378 . S
C288 C283 1.350 . S
C289 H276 0.929 . S
C289 C281 1.433 . S
C289 N291 1.384 . S
N290 C286 1.427 . S
N290 C287 1.384 . S
N291 C283 1.427 . S
N291 C289 1.384 . S
H292 C298 0.930 . S
H293 C302 0.930 . S
H294 C307 0.929 . S
H295 C305 0.929 . S
H296 C300 0.929 . S
H297 C306 0.929 . S
C298 H292 0.930 . S
C298 C299 1.367 . S
C298 C306 1.378 . S
C299 C298 1.367 . S
C299 C307 1.433 . S
C300 H296 0.929 . S
C300 C302 1.378 . S
C300 C304 1.350 . S
C301 C304 1.463 . S
C301 C306 1.350 . S
C301 N309 1.427 . S
C302 H293 0.930 . S
C302 C300 1.378 . S
C302 C303 1.367 . S
C303 C302 1.367 . S
C303 C305 1.433 . S
C304 C300 1.350 . S
C304 C301 1.463 . S
C304 N308 1.427 . S
C305 H295 0.929 . S
C305 C303 1.433 . S
C305 N308 1.384 . S
C306 H297 0.929 . S
C306 C298 1.378 . S
C306 C301 1.350 . S
C307 H294 0.929 . S
C307 C299 1.433 . S
C307 N309 1.384 . S
N308 C304 1.427 . S
N308 C305 1.384 . S
N309 C301 1.427 . S
N309 C307 1.384 . S
H310 C316 0.930 . S
H311 C320 0.930 . S
H312 C325 0.929 . S
H313 C323 0.929 . S
H314 C318 0.929 . S
H315 C324 0.929 . S
C316 H310 0.930 . S
C316 C317 1.367 . S
C316 C324 1.378 . S
C317 C316 1.367 . S
C317 C325 1.433 . S
C318 H314 0.929 . S
C318 C320 1.378 . S
C318 C322 1.350 1_455 S
C319 C322 1.463 . S
C319 C324 1.350 . S
C319 N327 1.427 . S
C320 H311 0.930 . S
C320 C318 1.378 . S
C320 C321 1.367 1_455 S
C321 C320 1.367 1_655 S
C321 C323 1.433 . S
C322 C318 1.350 1_655 S
C322 C319 1.463 . S
C322 N326 1.427 . S
C323 H313 0.929 . S
C323 C321 1.433 . S
C323 N326 1.384 . S
C324 H315 0.929 . S
C324 C316 1.378 . S
C324 C319 1.350 . S
C325 H312 0.929 . S
C325 C317 1.433 . S
C325 N327 1.384 . S
N326 C322 1.427 . S
N326 C323 1.384 . S
N327 C319 1.427 . S
N327 C325 1.384 . S
H328 C334 0.930 . S
H329 C338 0.930 . S
H330 C343 0.929 . S
H331 C341 0.929 1_655 S
H332 C336 0.929 . S
H333 C342 0.929 . S
C334 H328 0.930 . S
C334 C335 1.367 . S
C334 C342 1.378 . S
C335 C334 1.367 . S
C335 C343 1.433 . S
C336 H332 0.929 . S
C336 C338 1.378 . S
C336 C340 1.350 . S
C337 C340 1.463 . S
C337 C342 1.350 . S
C337 N345 1.427 . S
C338 H329 0.930 . S
C338 C336 1.378 . S
C338 C339 1.367 . S
C339 C338 1.367 . S
C339 C341 1.433 . S
C340 C336 1.350 . S
C340 C337 1.463 . S
C340 N344 1.427 . S
C341 H331 0.929 1_455 S
C341 C339 1.433 . S
C341 N344 1.384 . S
C342 H333 0.929 . S
C342 C334 1.378 . S
C342 C337 1.350 . S
C343 H330 0.929 . S
C343 C335 1.433 . S
C343 N345 1.384 . S
N344 C340 1.427 . S
N344 C341 1.384 . S
N345 C337 1.427 . S
N345 C343 1.384 . S
H346 C352 0.928 1_545 S
H347 C356 0.930 . S
H348 C361 0.929 . S
H349 C359 0.929 . S
H350 C354 0.929 . S
H351 C360 0.929 . S
C352 H346 0.928 1_565 S
C352 C353 1.366 . S
C352 C360 1.380 . S
C353 C352 1.366 . S
C353 C361 1.433 . S
C354 H350 0.929 . S
C354 C356 1.378 . S
C354 C358 1.350 . S
C355 C358 1.463 . S
C355 C360 1.350 . S
C355 N363 1.427 . S
C356 H347 0.930 . S
C356 C354 1.378 . S
C356 C357 1.367 . S
C357 C356 1.367 . S
C357 C359 1.433 . S
C358 C354 1.350 . S
C358 C355 1.463 . S
C358 N362 1.427 . S
C359 H349 0.929 . S
C359 C357 1.433 . S
C359 N362 1.384 . S
C360 H351 0.929 . S
C360 C352 1.380 . S
C360 C355 1.350 . S
C361 H348 0.929 . S
C361 C353 1.433 . S
C361 N363 1.384 . S
N362 C358 1.427 . S
N362 C359 1.384 . S
N363 C355 1.427 . S
N363 C361 1.384 . S
H364 C370 0.930 . S
H365 C374 0.930 . S
H366 C379 0.929 . S
H367 C377 0.929 . S
H368 C372 0.929 . S
H369 C378 0.929 . S
C370 H364 0.930 . S
C370 C371 1.367 . S
C370 C378 1.378 . S
C371 C370 1.367 . S
C371 C379 1.433 . S
C372 H368 0.929 . S
C372 C374 1.378 . S
C372 C376 1.350 . S
C373 C376 1.463 . S
C373 C378 1.350 . S
C373 N381 1.427 . S
C374 H365 0.930 . S
C374 C372 1.378 . S
C374 C375 1.367 . S
C375 C374 1.367 . S
C375 C377 1.433 . S
C376 C372 1.350 . S
C376 C373 1.463 . S
C376 N380 1.427 . S
C377 H367 0.929 . S
C377 C375 1.433 . S
C377 N380 1.384 . S
C378 H369 0.929 . S
C378 C370 1.378 . S
C378 C373 1.350 . S
C379 H366 0.929 . S
C379 C371 1.433 . S
C379 N381 1.384 . S
N380 C376 1.427 . S
N380 C377 1.384 . S
N381 C373 1.427 . S
N381 C379 1.384 . S
H382 C388 0.930 . S
H383 C392 0.930 . S
H384 C397 0.929 . S
H385 C395 0.929 . S
H386 C390 0.929 . S
H387 C396 0.929 . S
C388 H382 0.930 . S
C388 C389 1.367 . S
C388 C396 1.378 . S
C389 C388 1.367 . S
C389 C397 1.433 . S
C390 H386 0.929 . S
C390 C392 1.378 . S
C390 C394 1.350 . S
C391 C394 1.463 . S
C391 C396 1.350 . S
C391 N399 1.427 . S
C392 H383 0.930 . S
C392 C390 1.378 . S
C392 C393 1.367 . S
C393 C392 1.367 . S
C393 C395 1.433 . S
C394 C390 1.350 . S
C394 C391 1.463 . S
C394 N398 1.427 . S
C395 H385 0.929 . S
C395 C393 1.433 . S
C395 N398 1.384 . S
C396 H387 0.929 . S
C396 C388 1.378 . S
C396 C391 1.350 . S
C397 H384 0.929 . S
C397 C389 1.433 . S
C397 N399 1.384 . S
N398 C394 1.427 . S
N398 C395 1.384 . S
N399 C391 1.427 . S
N399 C397 1.384 . S
H400 C406 0.930 1_554 S
H401 C410 0.930 . S
H402 C415 0.929 . S
H403 C413 0.929 . S
H404 C408 0.929 . S
H405 C414 0.929 1_455 S
C406 H400 0.930 1_556 S
C406 C407 1.367 . S
C406 C414 1.378 . S
C407 C406 1.367 . S
C407 C415 1.433 . S
C408 H404 0.929 . S
C408 C410 1.378 . S
C408 C412 1.350 . S
C409 C412 1.463 . S
C409 C414 1.350 . S
C409 N417 1.427 . S
C410 H401 0.930 . S
C410 C408 1.378 . S
C410 C411 1.390 . S
C411 C410 1.390 . S
C411 C413 1.419 1_655 S
C412 C408 1.350 . S
C412 C409 1.463 . S
C412 N416 1.427 1_655 S
C413 H403 0.929 . S
C413 C411 1.419 1_455 S
C413 N416 1.384 . S
C414 H405 0.929 1_655 S
C414 C406 1.378 . S
C414 C409 1.350 . S
C415 H402 0.929 . S
C415 C407 1.433 . S
C415 N417 1.384 . S
N416 C412 1.427 1_455 S
N416 C413 1.384 . S
N417 C409 1.427 . S
N417 C415 1.384 . S
H418 C424 0.930 . S
H419 C428 0.930 . S
H420 C433 0.929 . S
H421 C431 0.929 . S
H422 C426 0.929 . S
H423 C432 0.929 . S
C424 H418 0.930 . S
C424 C425 1.373 . S
C424 C432 1.378 . S
C425 C424 1.373 . S
C425 C433 1.426 1_565 S
C426 H422 0.929 . S
C426 C428 1.378 . S
C426 C430 1.350 . S
C427 C430 1.463 . S
C427 C432 1.350 1_545 S
C427 N435 1.427 . S
C428 H419 0.930 . S
C428 C426 1.378 . S
C428 C429 1.367 . S
C429 C428 1.367 . S
C429 C431 1.433 1_545 S
C430 C426 1.350 . S
C430 C427 1.463 . S
C430 N434 1.427 1_545 S
C431 H421 0.929 . S
C431 C429 1.433 1_565 S
C431 N434 1.384 . S
C432 H423 0.929 . S
C432 C424 1.378 . S
C432 C427 1.350 1_565 S
C433 H420 0.929 . S
C433 C425 1.426 1_545 S
C433 N435 1.384 . S
N434 C430 1.427 1_565 S
N434 C431 1.384 . S
N435 C427 1.427 . S
N435 C433 1.384 . S
H436 C442 0.930 1_554 S
H437 C446 0.930 . S
H438 C451 0.929 . S
H439 C449 0.929 . S
H440 C444 0.929 . S
H441 C450 0.929 . S
C442 H436 0.930 1_556 S
C442 C443 1.367 . S
C442 C450 1.378 . S
C443 C442 1.367 . S
C443 C451 1.433 . S
C444 H440 0.929 . S
C444 C446 1.378 . S
C444 C448 1.350 . S
C445 C448 1.463 . S
C445 C450 1.350 . S
C445 N453 1.427 . S
C446 H437 0.930 . S
C446 C444 1.378 . S
C446 C447 1.367 . S
C447 C446 1.367 . S
C447 C449 1.433 . S
C448 C444 1.350 . S
C448 C445 1.463 . S
C448 N452 1.427 . S
C449 H439 0.929 . S
C449 C447 1.433 . S
C449 N452 1.384 . S
C450 H441 0.929 . S
C450 C442 1.378 . S
C450 C445 1.350 . S
C451 H438 0.929 . S
C451 C443 1.433 . S
C451 N453 1.384 . S
N452 C448 1.427 . S
N452 C449 1.384 . S
N453 C445 1.427 . S
N453 C451 1.384 . S
H454 C460 0.930 . S
H455 C464 0.930 . S
H456 C469 0.929 . S
H457 C467 0.929 . S
H458 C462 0.929 . S
H459 C468 0.929 . S
C460 H454 0.930 . S
C460 C461 1.367 . S
C460 C468 1.378 . S
C461 C460 1.367 . S
C461 C469 1.433 . S
C462 H458 0.929 . S
C462 C464 1.378 . S
C462 C466 1.350 . S
C463 C466 1.463 . S
C463 C468 1.350 . S
C463 N471 1.427 . S
C464 H455 0.930 . S
C464 C462 1.378 . S
C464 C465 1.367 . S
C465 C464 1.367 . S
C465 C467 1.433 . S
C466 C462 1.350 . S
C466 C463 1.463 . S
C466 N470 1.427 . S
C467 H457 0.929 . S
C467 C465 1.433 . S
C467 N470 1.384 . S
C468 H459 0.929 . S
C468 C460 1.378 . S
C468 C463 1.350 . S
C469 H456 0.929 . S
C469 C461 1.433 . S
C469 N471 1.384 . S
N470 C466 1.427 . S
N470 C467 1.384 . S
N471 C463 1.427 . S
N471 C469 1.384 . S
H472 C478 0.930 . S
H473 C482 0.930 . S
H474 C487 0.929 . S
H475 C485 0.929 . S
H476 C480 0.929 . S
H477 C486 0.929 . S
C478 H472 0.930 . S
C478 C479 1.367 . S
C478 C486 1.378 . S
C479 C478 1.367 . S
C479 C487 1.433 1_554 S
C480 H476 0.929 . S
C480 C482 1.378 . S
C480 C484 1.350 . S
C481 C484 1.463 . S
C481 C486 1.350 1_556 S
C481 N489 1.427 . S
C482 H473 0.930 . S
C482 C480 1.378 . S
C482 C483 1.367 . S
C483 C482 1.367 . S
C483 C485 1.433 . S
C484 C480 1.350 . S
C484 C481 1.463 . S
C484 N488 1.427 . S
C485 H475 0.929 . S
C485 C483 1.433 . S
C485 N488 1.384 . S
C486 H477 0.929 . S
C486 C478 1.378 . S
C486 C481 1.350 1_554 S
C487 H474 0.929 . S
C487 C479 1.433 1_556 S
C487 N489 1.384 . S
N488 C484 1.427 . S
N488 C485 1.384 . S
N489 C481 1.427 . S
N489 C487 1.384 . S
H490 C496 0.930 . S
H491 C500 0.930 . S
H492 C505 0.929 . S
H493 C503 0.929 . S
H494 C498 0.929 . S
H495 C504 0.929 . S
C496 H490 0.930 . S
C496 C497 1.353 1_566 S
C496 C504 1.378 . S
C497 C496 1.353 1_544 S
C497 C505 1.450 . S
C498 H494 0.929 . S
C498 C500 1.378 . S
C498 C502 1.350 . S
C499 C502 1.463 . S
C499 C504 1.350 1_545 S
C499 N507 1.417 1_556 S
C500 H491 0.930 . S
C500 C498 1.378 . S
C500 C501 1.367 . S
C501 C500 1.367 . S
C501 C503 1.433 1_545 S
C502 C498 1.350 . S
C502 C499 1.463 . S
C502 N506 1.427 1_545 S
C503 H493 0.929 . S
C503 C501 1.433 1_565 S
C503 N506 1.384 . S
C504 H495 0.929 . S
C504 C496 1.378 . S
C504 C499 1.350 1_565 S
C505 H492 0.929 . S
C505 C497 1.450 . S
C505 N507 1.390 . S
N506 C502 1.427 1_565 S
N506 C503 1.384 . S
N507 C499 1.417 1_554 S
N507 C505 1.390 . S
H508 C514 0.930 . S
H509 C518 0.930 . S
H510 C523 0.929 . S
H511 C521 0.929 . S
H512 C516 0.929 . S
H513 C522 0.929 1_554 S
C514 H508 0.930 . S
C514 C515 1.367 . S
C514 C522 1.378 1_554 S
C515 C514 1.367 . S
C515 C523 1.433 1_554 S
C516 H512 0.929 . S
C516 C518 1.378 . S
C516 C520 1.350 . S
C517 C520 1.463 . S
C517 C522 1.350 . S
C517 N525 1.427 . S
C518 H509 0.930 . S
C518 C516 1.378 . S
C518 C519 1.367 . S
C519 C518 1.367 . S
C519 C521 1.433 . S
C520 C516 1.350 . S
C520 C517 1.463 . S
C520 N524 1.427 . S
C521 H511 0.929 . S
C521 C519 1.433 . S
C521 N524 1.384 . S
C522 H513 0.929 1_556 S
C522 C514 1.378 1_556 S
C522 C517 1.350 . S
C523 H510 0.929 . S
C523 C515 1.433 1_556 S
C523 N525 1.384 . S
N524 C520 1.427 . S
N524 C521 1.384 . S
N525 C517 1.427 . S
N525 C523 1.384 . S
H526 C532 0.930 . S
H527 C536 0.930 . S
H528 C541 0.929 . S
H529 C539 0.929 . S
H530 C534 0.929 . S
H531 C540 0.929 . S
C532 H526 0.930 . S
C532 C533 1.367 1_556 S
C532 C540 1.378 . S
C533 C532 1.367 1_554 S
C533 C541 1.433 . S
C534 H530 0.929 . S
C534 C536 1.378 . S
C534 C538 1.350 . S
C535 C538 1.463 . S
C535 C540 1.350 . S
C535 N543 1.427 . S
C536 H527 0.930 . S
C536 C534 1.378 . S
C536 C537 1.367 . S
C537 C536 1.367 . S
C537 C539 1.433 . S
C538 C534 1.350 . S
C538 C535 1.463 . S
C538 N542 1.427 . S
C539 H529 0.929 . S
C539 C537 1.433 . S
C539 N542 1.384 . S
C540 H531 0.929 . S
C540 C532 1.378 . S
C540 C535 1.350 . S
C541 H528 0.929 . S
C541 C533 1.433 . S
C541 N543 1.384 1_554 S
N542 C538 1.427 . S
N542 C539 1.384 . S
N543 C535 1.427 . S
N543 C541 1.384 1_556 S
H544 C550 0.930 . S
H545 C554 0.930 . S
H546 C559 0.929 . S
H547 C557 0.929 . S
H548 C552 0.929 . S
H549 C558 0.929 . S
C550 H544 0.930 . S
C550 C551 1.367 . S
C550 C558 1.378 . S
C551 C550 1.367 . S
C551 C559 1.433 . S
C552 H548 0.929 . S
C552 C554 1.378 . S
C552 C556 1.350 . S
C553 C556 1.463 . S
C553 C558 1.350 . S
C553 N561 1.427 . S
C554 H545 0.930 . S
C554 C552 1.378 . S
C554 C555 1.367 . S
C555 C554 1.367 . S
C555 C557 1.433 . S
C556 C552 1.350 . S
C556 C553 1.463 . S
C556 N560 1.427 . S
C557 H547 0.929 . S
C557 C555 1.433 . S
C557 N560 1.384 . S
C558 H549 0.929 . S
C558 C550 1.378 . S
C558 C553 1.350 . S
C559 H546 0.929 . S
C559 C551 1.433 . S
C559 N561 1.384 . S
N560 C556 1.427 . S
N560 C557 1.384 . S
N561 C553 1.427 . S
N561 C559 1.384 . S
H562 C568 0.930 . S
H563 C572 0.930 . S
H564 C577 0.929 . S
H565 C575 0.929 . S
H566 C570 0.929 . S
H567 C576 0.929 . S
C568 H562 0.930 . S
C568 C569 1.360 1_545 S
C568 C576 1.378 . S
C569 C568 1.360 1_565 S
C569 C577 1.440 . S
C570 H566 0.929 . S
C570 C572 1.378 . S
C570 C574 1.350 . S
C571 C574 1.463 . S
C571 C576 1.350 1_565 S
C571 N579 1.427 . S
C572 H563 0.930 . S
C572 C570 1.378 . S
C572 C573 1.367 . S
C573 C572 1.367 . S
C573 C575 1.433 1_565 S
C574 C570 1.350 . S
C574 C571 1.463 . S
C574 N578 1.427 1_565 S
C575 H565 0.929 . S
C575 C573 1.433 1_545 S
C575 N578 1.384 . S
C576 H567 0.929 . S
C576 C568 1.378 . S
C576 C571 1.350 1_545 S
C577 H564 0.929 . S
C577 C569 1.440 . S
C577 N579 1.384 . S
N578 C574 1.427 1_545 S
N578 C575 1.384 . S
N579 C571 1.427 . S
N579 C577 1.384 . S
H580 C586 0.930 . S
H581 C590 0.930 . S
H582 C595 0.929 . S
H583 C593 0.929 . S
H584 C588 0.929 . S
H585 C594 0.929 . S
C586 H580 0.930 . S
C586 C587 1.367 . S
C586 C594 1.378 . S
C587 C586 1.367 . S
C587 C595 1.433 . S
C588 H584 0.929 . S
C588 C590 1.378 . S
C588 C592 1.350 . S
C589 C592 1.463 . S
C589 C594 1.350 . S
C589 N597 1.427 . S
C590 H581 0.930 . S
C590 C588 1.378 . S
C590 C591 1.367 . S
C591 C590 1.367 . S
C591 C593 1.433 . S
C592 C588 1.350 . S
C592 C589 1.463 . S
C592 N596 1.427 . S
C593 H583 0.929 . S
C593 C591 1.433 . S
C593 N596 1.384 . S
C594 H585 0.929 . S
C594 C586 1.378 . S
C594 C589 1.350 . S
C595 H582 0.929 . S
C595 C587 1.433 . S
C595 N597 1.384 . S
N596 C592 1.427 . S
N596 C593 1.384 . S
N597 C589 1.427 . S
N597 C595 1.384 . S
H598 C604 0.930 . S
H599 C608 0.930 . S
H600 C613 0.929 . S
H601 C611 0.929 . S
H602 C606 0.929 . S
H603 C612 0.929 . S
C604 H598 0.930 . S
C604 C605 1.367 . S
C604 C612 1.378 . S
C605 C604 1.367 . S
C605 C613 1.433 . S
C606 H602 0.929 . S
C606 C608 1.378 . S
C606 C610 1.350 . S
C607 C610 1.463 . S
C607 C612 1.350 . S
C607 N615 1.427 . S
C608 H599 0.930 . S
C608 C606 1.378 . S
C608 C609 1.367 . S
C609 C608 1.367 . S
C609 C611 1.433 . S
C610 C606 1.350 . S
C610 C607 1.463 . S
C610 N614 1.427 . S
C611 H601 0.929 . S
C611 C609 1.433 . S
C611 N614 1.384 . S
C612 H603 0.929 . S
C612 C604 1.378 . S
C612 C607 1.350 . S
C613 H600 0.929 . S
C613 C605 1.433 . S
C613 N615 1.384 . S
N614 C610 1.427 . S
N614 C611 1.384 . S
N615 C607 1.427 . S
N615 C613 1.384 . S
C191 C82 1.382 . S
C195 C122 1.471 . S
C213 C142 1.547 . S
C209 C95 1.454 . S
C231 C162 1.474 . S
C227 C56 1.385 . S
C249 C182 1.544 . S
C245 C69 1.457 . S
C267 C123 1.472 . S
C263 C30 1.372 . S
C281 C43 1.424 . S
C285 C143 1.557 . S
C299 C4 1.369 . S
C303 C163 1.469 . S
C317 C17 1.423 . S
C321 C183 1.550 1_655 S
C339 C113 0.865 . S
C335 C74 0.876 . S
C357 C133 0.833 . S
C353 C87 0.840 1_565 S
C375 C153 0.851 . S
C371 C100 0.863 . S
C389 C61 0.859 . S
C393 C173 0.859 . S
C407 C22 0.857 . S
C411 C116 0.852 . S
C429 C136 0.852 . S
C425 C35 0.851 1_565 S
C447 C156 0.850 . S
C443 C48 0.864 . S
C461 C9 0.858 . S
C465 C176 0.858 . S
C479 C73 1.544 . S
C483 C106 1.490 . S
C497 C86 1.513 . S
C501 C126 1.462 . S
C519 C146 1.491 . S
C515 C99 1.541 . S
C537 C166 1.456 . S
C533 C60 1.506 . S
C551 C21 1.557 . S
C555 C108 1.510 . S
C573 C128 1.457 . S
C569 C34 1.507 1_565 S
C591 C148 1.482 . S
C587 C47 1.535 . S
C605 C8 1.509 . S
C609 C168 1.456 . S
