# Generated by pormake.
# Topology zzz, (3,6)-cn, num edge types: 1
# Building blocks:
#     Node 0, Type 0, BuildingBlock: VETTIZ_charged_linker_0, # of connection points: 3
#     Node 1, Type 0, BuildingBlock: VETTIZ_charged_linker_0, # of connection points: 3
#     Node 2, Type 0, BuildingBlock: VETTIZ_charged_linker_0, # of connection points: 3
#     Node 3, Type 0, BuildingBlock: VETTIZ_charged_linker_0, # of connection points: 3
#     Node 4, Type 0, BuildingBlock: VETTIZ_charged_linker_0, # of connection points: 3
#     Node 5, Type 0, BuildingBlock: VETTIZ_charged_linker_0, # of connection points: 3
#     Node 6, Type 0, BuildingBlock: VETTIZ_charged_linker_0, # of connection points: 3
#     Node 7, Type 0, BuildingBlock: VETTIZ_charged_linker_0, # of connection points: 3
#     Node 8, Type 1, BuildingBlock: KUMJIN_clean_sbu_0, # of connection points: 6
#     Node 9, Type 1, BuildingBlock: KUMJIN_clean_sbu_0, # of connection points: 6
#     Node 10, Type 1, BuildingBlock: KUMJIN_clean_sbu_0, # of connection points: 6
#     Node 11, Type 1, BuildingBlock: KUMJIN_clean_sbu_0, # of connection points: 6
#     Edge 12, Type (0, 1), BuildingBlock: TEMPAE_clean_linker_10, # of connection points: 2
#     Edge 13, Type (0, 1), BuildingBlock: TEMPAE_clean_linker_10, # of connection points: 2
#     Edge 14, Type (0, 1), BuildingBlock: TEMPAE_clean_linker_10, # of connection points: 2
#     Edge 15, Type (0, 1), BuildingBlock: TEMPAE_clean_linker_10, # of connection points: 2
#     Edge 16, Type (0, 1), BuildingBlock: TEMPAE_clean_linker_10, # of connection points: 2
#     Edge 17, Type (0, 1), BuildingBlock: TEMPAE_clean_linker_10, # of connection points: 2
#     Edge 18, Type (0, 1), BuildingBlock: TEMPAE_clean_linker_10, # of connection points: 2
#     Edge 19, Type (0, 1), BuildingBlock: TEMPAE_clean_linker_10, # of connection points: 2
#     Edge 20, Type (0, 1), BuildingBlock: TEMPAE_clean_linker_10, # of connection points: 2
#     Edge 21, Type (0, 1), BuildingBlock: TEMPAE_clean_linker_10, # of connection points: 2
#     Edge 22, Type (0, 1), BuildingBlock: TEMPAE_clean_linker_10, # of connection points: 2
#     Edge 23, Type (0, 1), BuildingBlock: TEMPAE_clean_linker_10, # of connection points: 2
#     Edge 24, Type (0, 1), BuildingBlock: TEMPAE_clean_linker_10, # of connection points: 2
#     Edge 25, Type (0, 1), BuildingBlock: TEMPAE_clean_linker_10, # of connection points: 2
#     Edge 26, Type (0, 1), BuildingBlock: TEMPAE_clean_linker_10, # of connection points: 2
#     Edge 27, Type (0, 1), BuildingBlock: TEMPAE_clean_linker_10, # of connection points: 2
#     Edge 28, Type (0, 1), BuildingBlock: TEMPAE_clean_linker_10, # of connection points: 2
#     Edge 29, Type (0, 1), BuildingBlock: TEMPAE_clean_linker_10, # of connection points: 2
#     Edge 30, Type (0, 1), BuildingBlock: TEMPAE_clean_linker_10, # of connection points: 2
#     Edge 31, Type (0, 1), BuildingBlock: TEMPAE_clean_linker_10, # of connection points: 2
#     Edge 32, Type (0, 1), BuildingBlock: TEMPAE_clean_linker_10, # of connection points: 2
#     Edge 33, Type (0, 1), BuildingBlock: TEMPAE_clean_linker_10, # of connection points: 2
#     Edge 34, Type (0, 1), BuildingBlock: TEMPAE_clean_linker_10, # of connection points: 2
#     Edge 35, Type (0, 1), BuildingBlock: TEMPAE_clean_linker_10, # of connection points: 2
# Relax obj value: 0.303
# Max RMSD: 0.229
# Mean RMSD: 0.215
data_MOF--net-zzz--node1-KUMJIN_clean_sbu_0--node2-VETTIZ_charged_linker_0--edge1-TEMPAE_clean_linker_10
_symmetry_space_group_name_H-M    P1
_symmetry_Int_Tables_number       1
_symmetry_cell_setting            triclinic
loop_
_symmetry_equiv_pos_as_xyz
'x, y, z'
_cell_length_a     57.025729
_cell_length_b     56.953296
_cell_length_c     20.009896
_cell_angle_alpha  90.731216
_cell_angle_beta   90.229161
_cell_angle_gamma 90.017443
loop_
_atom_site_label
_atom_site_type_symbol
_atom_site_fract_x
_atom_site_fract_y
_atom_site_fract_z
_atom_type_partial_charge
C0 C 0.8035 0.55325 0.27575 0.0
C1 C 0.82557 0.56221 0.29797 0.0
C2 C 0.83394 0.58303 0.26978 0.0
C3 C 0.80114 0.58408 0.19262 0.0
C4 C 0.79134 0.56481 0.223 0.0
C5 C 0.76766 0.55885 0.19069 0.0
H6 H 0.68734 0.58636 0.9414 0.0
C7 C 0.78624 0.59106 0.13563 0.0
C8 C 0.76586 0.57703 0.13454 0.0
H9 H 0.67954 0.53147 0.08576 0.0
H10 H 0.71748 0.54196 0.13586 0.0
H11 H 0.71235 0.62735 0.03485 0.0
H12 H 0.73481 0.57175 0.90464 0.0
H13 H 0.75846 0.59134 0.90407 0.0
H14 H 0.73013 0.60068 0.87367 0.0
H15 H 0.70799 0.62603 0.9459 0.0
H16 H 0.73432 0.63841 0.9817 0.0
C17 C 0.74833 0.56237 0.2434 0.0
C18 C 0.76859 0.53357 0.16257 0.0
C19 C 0.82406 0.63896 0.95491 0.0
C20 C 0.81723 0.64296 0.88843 0.0
C21 C 0.79319 0.64157 0.87203 0.0
C22 C 0.77691 0.63312 0.91842 0.0
C23 C 0.78485 0.62552 0.98125 0.0
C24 C 0.80782 0.6297 0.99978 0.0
C25 C 0.81358 0.61978 0.06711 0.0
C26 C 0.79086 0.60695 0.08314 0.0
C27 C 0.77411 0.61046 0.03291 0.0
C28 C 0.81829 0.6407 0.11596 0.0
C29 C 0.83458 0.60263 0.05854 0.0
C30 C 0.69348 0.57692 0.9848 0.0
C31 C 0.68012 0.5585 1.01049 0.0
C32 C 0.68936 0.54598 0.06539 0.0
C33 C 0.71134 0.5521 0.09446 0.0
C34 C 0.72461 0.5706 0.06751 0.0
C35 C 0.7155 0.58233 1.0128 0.0
C36 C 0.73255 0.59944 0.98428 0.0
C37 C 0.75274 0.59766 0.03349 0.0
C38 C 0.74841 0.58075 0.08315 0.0
C39 C 0.72128 0.62417 0.98623 0.0
C40 C 0.73933 0.59057 0.91299 0.0
H41 H 0.82966 0.60948 0.19866 0.0
H42 H 0.7963 0.53752 0.29749 0.0
H43 H 0.78449 0.53107 0.13126 0.0
H44 H 0.75334 0.52939 0.13048 0.0
H45 H 0.76924 0.52066 0.20371 0.0
H46 H 0.75003 0.57996 0.26778 0.0
H47 H 0.74969 0.54887 0.28283 0.0
H48 H 0.73059 0.5615 0.22139 0.0
H49 H 0.84234 0.63996 0.96939 0.0
H50 H 0.78734 0.64501 0.82152 0.0
H51 H 0.75907 0.63139 0.902 0.0
H52 H 0.81222 0.65775 0.09553 0.0
H53 H 0.83729 0.64263 0.12708 0.0
H54 H 0.8086 0.63881 0.1636 0.0
H55 H 0.83198 0.5912 0.01361 0.0
H56 H 0.83698 0.59055 0.10041 0.0
H57 H 0.85128 0.61238 0.05232 0.0
H58 H 0.85045 0.59054 0.28663 0.0
C59 C 0.82183 0.59403 0.21833 0.0
C60 C 0.88085 0.8045 0.93447 0.0
C61 C 0.8765 0.82884 0.93917 0.0
C62 C 0.87823 0.83975 1.00274 0.0
C63 C 0.89777 0.8054 0.0456 0.0
C64 C 0.89226 0.7933 0.9876 0.0
C65 C 0.90316 0.7692 0.9861 0.0
H66 H 0.99336 0.69906 0.06446 0.0
C67 C 0.91582 0.79187 0.08189 0.0
C68 C 0.91903 0.77054 0.04799 0.0
H69 H 0.93153 0.68406 0.9448 0.0
H70 H 0.91443 0.72019 0.98064 0.0
H71 H 0.99612 0.76073 0.04239 0.0
H72 H 0.959 0.72409 0.19972 0.0
H73 H 0.97964 0.74588 0.22636 0.0
H74 H 0.98989 0.71924 0.18737 0.0
H75 H 0.01151 0.74041 0.09509 0.0
H76 H 1.00344 0.76896 0.12642 0.0
C77 C 0.91739 0.76641 0.92058 0.0
C78 C 0.88311 0.75093 0.99345 0.0
C79 C 0.96045 0.83746 0.25801 0.0
C80 C 0.98176 0.83518 0.29225 0.0
C81 C 0.99441 0.81389 0.28245 0.0
C82 C 0.98614 0.79596 0.2374 0.0
C83 C 0.96492 0.79919 0.2018 0.0
C84 C 0.9527 0.81988 0.21354 0.0
C85 C 0.93148 0.82219 0.17058 0.0
C86 C 0.93196 0.79917 0.13211 0.0
C87 C 0.95151 0.78513 0.14932 0.0
C88 C 0.9351 0.8439 0.12481 0.0
C89 C 0.90973 0.82369 0.21681 0.0
C90 C 0.97625 0.70387 0.0455 0.0
C91 C 0.96401 0.68848 1.00019 0.0
C92 C 0.94148 0.69518 0.97893 0.0
C93 C 0.93152 0.71642 0.9993 0.0
C94 C 0.94408 0.73197 0.04076 0.0
C95 C 0.96556 0.72548 0.06649 0.0
C96 C 0.97407 0.74405 0.11749 0.0
C97 C 0.95443 0.76267 0.11527 0.0
C98 C 0.93753 0.75534 0.06749 0.0
C99 C 0.99766 0.75413 0.09428 0.0
C100 C 0.97583 0.73274 0.18674 0.0
H101 H 0.89065 0.8377 0.10196 0.0
H102 H 0.87824 0.79519 0.88756 0.0
H103 H 0.86587 0.75923 1.00459 0.0
H104 H 0.88644 0.73886 0.03561 0.0
H105 H 0.88066 0.74038 0.94685 0.0
H106 H 0.92905 0.78184 0.91353 0.0
H107 H 0.90555 0.76494 0.87653 0.0
H108 H 0.92879 0.75082 0.91965 0.0
H109 H 0.94995 0.85318 0.26432 0.0
H110 H 0.01095 0.81139 0.30811 0.0
H111 H 0.99661 0.78042 0.23075 0.0
H112 H 0.95344 0.85061 0.12612 0.0
H113 H 0.9237 0.85881 0.14006 0.0
H114 H 0.932 0.83973 0.0713 0.0
H115 H 0.91179 0.81196 0.26051 0.0
H116 H 0.89343 0.81771 0.19174 0.0
H117 H 0.90716 0.84185 0.23633 0.0
H118 H 0.87436 0.85822 1.0097 0.0
C119 C 0.88851 0.82797 0.05624 0.0
C120 C 0.82336 0.97488 0.05211 0.0
C121 C 0.84079 0.96145 0.01753 0.0
C122 C 0.83733 0.93694 1.01082 0.0
C123 C 0.79833 0.94067 0.05476 0.0
C124 C 0.8024 0.9636 0.07311 0.0
C125 C 0.7818 0.97276 0.11501 0.0
H126 H 0.66599 0.96135 0.18673 0.0
C127 C 0.77414 0.93448 0.06928 0.0
C128 C 0.76478 0.95159 0.11285 0.0
H129 H 0.71599 0.98683 0.33432 0.0
H130 H 0.74796 0.97496 0.25974 0.0
H131 H 0.69513 0.96956 0.04014 0.0
H132 H 0.68823 0.91675 0.19062 0.0
H133 H 0.69588 0.90124 0.11784 0.0
H134 H 0.6686 0.91748 0.12053 0.0
H135 H 0.66832 0.95519 0.06304 0.0
H136 H 0.6876 0.94234 1.00275 0.0
C137 C 0.77078 0.99429 0.08147 0.0
C138 C 0.79048 0.97887 0.18604 0.0
C139 C 0.7328 0.89458 0.87522 0.0
C140 C 0.70874 0.89344 0.85969 0.0
C141 C 0.69249 0.89429 0.91258 0.0
C142 C 0.69975 0.90066 0.9771 0.0
C143 C 0.72334 0.90655 0.98849 0.0
C144 C 0.73976 0.9017 0.93975 0.0
C145 C 0.76409 0.90898 0.96094 0.0
C146 C 0.75911 0.92001 0.02989 0.0
C147 C 0.73501 0.91975 0.04323 0.0
C148 C 0.7734 0.92729 0.91087 0.0
C149 C 0.77981 0.88682 0.96362 0.0
C150 C 0.68349 0.96507 0.20461 0.0
C151 C 0.68761 0.97555 0.26783 0.0
C152 C 0.71151 0.97973 0.28557 0.0
C153 C 0.73022 0.9734 0.24188 0.0
C154 C 0.72525 0.9629 0.1794 0.0
C155 C 0.70218 0.95763 0.16435 0.0
C156 C 0.7 0.93995 0.10846 0.0
C157 C 0.7256 0.93515 0.09275 0.0
C158 C 0.74043 0.95013 0.13032 0.0
C159 C 0.68704 0.95219 0.05032 0.0
C160 C 0.68741 0.91774 0.13516 0.0
H161 H 0.81457 0.90776 0.02734 0.0
H162 H 0.82598 0.99342 0.06206 0.0
H163 H 0.79321 0.96272 0.21571 0.0
H164 H 0.77801 0.99062 0.21227 0.0
H165 H 0.80737 0.98859 0.18433 0.0
H166 H 0.76528 0.98992 0.02939 0.0
H167 H 0.78352 1.00904 0.07998 0.0
H168 H 0.75507 1.00029 0.10956 0.0
H169 H 0.74567 0.89304 0.83577 0.0
H170 H 0.67383 0.89309 0.9029 0.0
H171 H 0.68631 0.9029 0.01379 0.0
H172 H 0.76147 0.94271 0.90869 0.0
H173 H 0.77489 0.91959 0.85983 0.0
H174 H 0.79109 0.93372 0.92413 0.0
H175 H 0.77263 0.87211 0.93271 0.0
H176 H 0.78159 0.88033 0.01554 0.0
H177 H 0.7975 0.89019 0.9429 0.0
H178 H 0.8505 0.92583 0.98778 0.0
C179 C 0.8164 0.9265 0.03071 0.0
C180 C 0.55409 0.71566 0.25845 0.0
C181 C 0.56215 0.69341 0.28047 0.0
C182 C 0.58304 0.68436 0.25347 0.0
C183 C 0.58577 0.71685 0.17725 0.0
C184 C 0.56646 0.72725 0.20664 0.0
C185 C 0.56141 0.75095 0.17468 0.0
H186 H 0.59183 0.82866 0.9263 0.0
C187 C 0.59379 0.73142 0.12135 0.0
C188 C 0.58024 0.7521 0.11996 0.0
H189 H 0.53695 0.83916 0.07133 0.0
H190 H 0.54626 0.80125 0.12132 0.0
H191 H 0.63134 0.80566 0.02381 0.0
H192 H 0.57809 0.78145 0.88939 0.0
H193 H 0.5976 0.75775 0.89094 0.0
H194 H 0.60743 0.78587 0.86112 0.0
H195 H 0.63189 0.80825 0.93447 0.0
H196 H 0.64353 0.7827 0.97525 0.0
C197 C 0.56482 0.77037 0.22814 0.0
C198 C 0.53646 0.75046 0.14486 0.0
C199 C 0.64235 0.69242 0.94086 0.0
C200 C 0.64753 0.69951 0.87543 0.0
C201 C 0.6476 0.72373 0.86167 0.0
C202 C 0.63908 0.74003 0.90878 0.0
C203 C 0.63014 0.73198 0.96983 0.0
C204 C 0.6332 0.70878 0.98664 0.0
C205 C 0.62241 0.70319 0.05307 0.0
C206 C 0.61022 0.72635 0.06993 0.0
C207 C 0.61475 0.74302 0.02088 0.0
C208 C 0.6426 0.69757 0.10273 0.0
C209 C 0.60463 0.68283 0.0423 0.0
C210 C 0.58208 0.82322 0.96983 0.0
C211 C 0.564 0.83732 0.99546 0.0
C212 C 0.55113 0.82879 0.05056 0.0
C213 C 0.5566 0.80682 0.07971 0.0
C214 C 0.57492 0.79299 0.05299 0.0
C215 C 0.58704 0.80145 0.99842 0.0
C216 C 0.60456 0.7843 0.97157 0.0
C217 C 0.60218 0.76451 0.02082 0.0
C218 C 0.58478 0.76927 0.06928 0.0
C219 C 0.62919 0.79575 0.9759 0.0
C220 C 0.59675 0.77697 0.89958 0.0
H221 H 0.61043 0.68781 0.18438 0.0
H222 H 0.53839 0.72339 0.27947 0.0
H223 H 0.53393 0.73444 0.11326 0.0
H224 H 0.533 0.76564 0.11262 0.0
H225 H 0.5231 0.75032 0.18511 0.0
H226 H 0.58188 0.76808 0.25442 0.0
H227 H 0.55064 0.76971 0.266 0.0
H228 H 0.56509 0.78806 0.20647 0.0
H229 H 0.64239 0.674 0.95355 0.0
H230 H 0.65209 0.72979 0.81224 0.0
H231 H 0.63827 0.75803 0.89393 0.0
H232 H 0.66013 0.70247 0.08301 0.0
H233 H 0.6433 0.67852 0.11392 0.0
H234 H 0.64088 0.70765 0.1503 0.0
H235 H 0.59316 0.68641 0.9985 0.0
H236 H 0.59272 0.68022 0.08464 0.0
H237 H 0.61381 0.66591 0.03311 0.0
H238 H 0.58998 0.66776 0.2706 0.0
C239 C 0.59492 0.69601 0.20308 0.0
C240 C 0.32916 0.48061 0.22083 0.0
C241 C 0.34331 0.46997 0.27089 0.0
C242 C 0.33516 0.44925 0.30035 0.0
C243 C 0.29916 0.45067 0.2357 0.0
C244 C 0.30723 0.47023 0.20284 0.0
C245 C 0.28981 0.47745 0.1485 0.0
H246 H 0.18389 0.45191 0.99131 0.0
C247 C 0.2758 0.44418 0.20919 0.0
C248 C 0.27017 0.45914 0.15571 0.0
H249 H 0.22931 0.50967 0.94282 0.0
H250 H 0.25697 0.49757 0.03034 0.0
H251 H 0.22301 0.4119 0.01907 0.0
H252 H 0.18329 0.46182 0.13054 0.0
H253 H 0.19078 0.44167 0.19227 0.0
H254 H 0.17324 0.43227 0.12148 0.0
H255 H 0.19211 0.41038 0.03547 0.0
H256 H 0.21329 0.39747 0.09126 0.0
C257 C 0.30191 0.47547 0.08002 0.0
C258 C 0.281 0.50246 0.16429 0.0
C259 C 0.22265 0.39383 0.34995 0.0
C260 C 0.19837 0.3895 0.34383 0.0
C261 C 0.18823 0.39021 0.27937 0.0
C262 C 0.20084 0.39901 0.22537 0.0
C263 C 0.22361 0.40769 0.23598 0.0
C264 C 0.23478 0.40353 0.29589 0.0
C265 C 0.2592 0.41366 0.29731 0.0
C266 C 0.25937 0.42734 0.23205 0.0
C267 C 0.23844 0.42375 0.19678 0.0
C268 C 0.27688 0.39291 0.29638 0.0
C269 C 0.26151 0.43008 0.35943 0.0
C270 C 0.20002 0.46175 0.99802 0.0
C271 C 0.20453 0.48139 0.95868 0.0
C272 C 0.22538 0.49426 0.97188 0.0
C273 C 0.24144 0.48721 0.02257 0.0
C274 C 0.23641 0.46736 0.06167 0.0
C275 C 0.21566 0.45539 0.04885 0.0
C276 C 0.21105 0.43646 0.09799 0.0
C277 C 0.23296 0.4378 0.14081 0.0
C278 C 0.24829 0.4558 0.12013 0.0
C279 C 0.2096 0.41274 0.05929 0.0
C280 C 0.18845 0.44316 0.13753 0.0
H281 H 0.30839 0.42402 0.3082 0.0
H282 H 0.33513 0.4963 0.19611 0.0
H283 H 0.27486 0.50376 0.2169 0.0
H284 H 0.26607 0.50744 0.13226 0.0
H285 H 0.29526 0.51551 0.15757 0.0
H286 H 0.31007 0.45786 0.07359 0.0
H287 H 0.31592 0.48893 0.07558 0.0
H288 H 0.28945 0.47768 0.03826 0.0
H289 H 0.23132 0.39227 0.39789 0.0
H290 H 0.16979 0.38656 0.27163 0.0
H291 H 0.19168 0.40038 0.17877 0.0
H292 H 0.26828 0.37574 0.28537 0.0
H293 H 0.28593 0.39115 0.34533 0.0
H294 H 0.29024 0.39491 0.25665 0.0
H295 H 0.24627 0.44222 0.36255 0.0
H296 H 0.27728 0.44123 0.35872 0.0
H297 H 0.26216 0.41978 0.40616 0.0
H298 H 0.34551 0.44064 0.33842 0.0
C299 C 0.31345 0.43961 0.28299 0.0
C300 C 0.13861 0.23427 0.35366 0.0
C301 C 0.14214 0.20977 0.35347 0.0
C302 C 0.1429 0.19789 0.2912 0.0
C303 C 0.12667 0.23204 0.23765 0.0
C304 C 0.13007 0.24494 0.29558 0.0
C305 C 0.12035 0.26944 0.29009 0.0
H306 H 0.03111 0.33548 0.20736 0.0
C307 C 0.11065 0.24531 0.19386 0.0
C308 C 0.10737 0.26753 0.22276 0.0
H309 H 0.0965 0.35643 0.30222 0.0
H310 H 0.11469 0.32109 0.26011 0.0
H311 H 0.06612 0.31205 0.06652 0.0
H312 H 0.03126 0.274 0.22533 0.0
H313 H 0.02361 0.26594 0.14115 0.0
H314 H 0.01488 0.29406 0.17419 0.0
H315 H 0.03509 0.31554 0.07959 0.0
H316 H 0.04644 0.28934 0.04077 0.0
C317 C 0.14134 0.2868 0.28953 0.0
C318 C 0.10336 0.27427 0.34887 0.0
C319 C 0.06763 0.19644 0.02068 0.0
C320 C 0.04722 0.19866 0.98217 0.0
C321 C 0.03473 0.22021 0.98749 0.0
C322 C 0.04232 0.2386 0.03188 0.0
C323 C 0.06281 0.23566 0.07092 0.0
C324 C 0.07488 0.21463 0.06393 0.0
C325 C 0.09551 0.213 0.10962 0.0
C326 C 0.09505 0.23697 0.14334 0.0
C327 C 0.07577 0.25068 0.12194 0.0
C328 C 0.11783 0.20993 0.06637 0.0
C329 C 0.09089 0.19252 0.15908 0.0
C330 C 0.04909 0.33197 0.22159 0.0
C331 C 0.06189 0.3486 0.26196 0.0
C332 C 0.0858 0.344 0.27428 0.0
C333 C 0.09627 0.32316 0.2525 0.0
C334 C 0.08278 0.30591 0.22054 0.0
C335 C 0.06037 0.31084 0.19937 0.0
C336 C 0.05222 0.29166 0.1496 0.0
C337 C 0.07263 0.27381 0.15165 0.0
C338 C 0.08962 0.28241 0.19718 0.0
C339 C 0.04974 0.30268 0.08012 0.0
C340 C 0.02914 0.28077 0.17378 0.0
H341 H 0.13535 0.19893 0.18769 0.0
H342 H 0.13953 0.2442 0.40006 0.0
H343 H 0.08933 0.26071 0.35008 0.0
H344 H 0.09485 0.29161 0.34544 0.0
H345 H 0.1128 0.27421 0.39749 0.0
H346 H 0.15801 0.27853 0.30615 0.0
H347 H 0.1386 0.30179 0.32467 0.0
H348 H 0.14451 0.29362 0.23856 0.0
H349 H 0.07784 0.18041 0.01812 0.0
H350 H 0.01881 0.22258 0.95871 0.0
H351 H 0.03191 0.25429 0.0354 0.0
H352 H 0.11682 0.22091 0.02083 0.0
H353 H 0.12004 0.19137 0.04986 0.0
H354 H 0.13395 0.21578 0.09268 0.0
H355 H 0.07309 0.18473 0.1533 0.0
H356 H 0.09157 0.19844 0.21204 0.0
H357 H 0.10344 0.17784 0.15155 0.0
H358 H 0.14638 0.17922 0.28808 0.0
C359 C 0.13559 0.20913 0.23298 0.0
C360 C 0.31784 0.04756 0.99142 0.0
C361 C 0.33694 0.05897 0.95912 0.0
C362 C 0.33865 0.08359 0.96444 0.0
C363 C 0.30802 0.0843 0.04669 0.0
C364 C 0.30301 0.06105 0.03443 0.0
C365 C 0.2805 0.05437 0.07143 0.0
H366 H 0.20008 0.09136 0.31099 0.0
C367 C 0.29297 0.09337 0.09973 0.0
C368 C 0.27533 0.07683 0.11292 0.0
H369 H 0.19625 0.02609 0.19926 0.0
H370 H 0.23185 0.03683 0.13846 0.0
H371 H 0.2458 0.08683 0.35221 0.0
H372 H 0.21727 0.12644 0.19553 0.0
H373 H 0.23876 0.1439 0.23651 0.0
H374 H 0.21513 0.13153 0.28416 0.0
H375 H 0.24475 0.11784 0.36101 0.0
H376 H 0.27079 0.10306 0.33088 0.0
C377 C 0.28527 0.03314 0.11623 0.0
C378 C 0.26119 0.04948 0.01907 0.0
C379 C 0.33205 0.14551 0.27075 0.0
C380 C 0.32451 0.15276 0.33459 0.0
C381 C 0.30022 0.15465 0.34646 0.0
C382 C 0.28404 0.14582 0.29955 0.0
C383 C 0.29233 0.13442 0.24163 0.0
C384 C 0.31574 0.13607 0.22536 0.0
C385 C 0.32127 0.12379 0.16033 0.0
C386 C 0.29755 0.11219 0.14472 0.0
C387 C 0.28117 0.11763 0.19441 0.0
C388 C 0.34082 0.10537 0.17178 0.0
C389 C 0.32865 0.14264 0.10935 0.0
C390 C 0.20663 0.07911 0.27372 0.0
C391 C 0.19505 0.05775 0.26099 0.0
C392 C 0.20449 0.04282 0.2104 0.0
C393 C 0.22516 0.04903 0.175 0.0
C394 C 0.23665 0.0704 0.19003 0.0
C395 C 0.22721 0.08477 0.23943 0.0
C396 C 0.24217 0.10571 0.25507 0.0
C397 C 0.26134 0.10288 0.20333 0.0
C398 C 0.25843 0.08212 0.16445 0.0
C399 C 0.25137 0.10344 0.32826 0.0
C400 C 0.22761 0.12818 0.24262 0.0
H401 H 0.32452 0.11509 1.00641 0.0
H402 H 0.31508 0.02887 0.98493 0.0
H403 H 0.2599 0.06427 0.98348 0.0
H404 H 0.24377 0.04751 0.04195 0.0
H405 H 0.26518 0.03322 0.98997 0.0
H406 H 0.30034 0.03682 0.15021 0.0
H407 H 0.28952 0.01734 0.08548 0.0
H408 H 0.26996 0.02899 0.14766 0.0
H409 H 0.35056 0.14442 0.25945 0.0
H410 H 0.29389 0.16092 0.39443 0.0
H411 H 0.2658 0.14682 0.31184 0.0
H412 H 0.3356 0.09281 0.21116 0.0
H413 H 0.35751 0.1139 0.18727 0.0
H414 H 0.34475 0.09517 0.12583 0.0
H415 H 0.33516 0.15897 0.13426 0.0
H416 H 0.31369 0.14773 0.07684 0.0
H417 H 0.3435 0.13658 0.07796 0.0
H418 H 0.35192 0.09298 0.9368 0.0
C419 C 0.32379 0.09631 1.00657 0.0
C420 C 0.46956 0.31072 0.9822 0.0
C421 C 0.46023 0.33278 0.96296 0.0
C422 C 0.43921 0.34049 0.99241 0.0
C423 C 0.43931 0.30744 0.06715 0.0
C424 C 0.45851 0.29812 0.03441 0.0
C425 C 0.46505 0.27438 0.0637 0.0
H426 H 0.44474 0.19482 0.31558 0.0
C427 C 0.43354 0.29256 0.12468 0.0
C428 C 0.448 0.27249 0.1227 0.0
H429 H 0.49315 0.18533 0.15282 0.0
H430 H 0.48225 0.22383 0.10877 0.0
H431 H 0.46224 0.24265 0.34753 0.0
H432 H 0.40118 0.21988 0.24028 0.0
H433 H 0.39285 0.24217 0.29778 0.0
H434 H 0.40666 0.21596 0.32794 0.0
H435 H 0.43493 0.23899 0.3895 0.0
H436 H 0.44338 0.26682 0.3543 0.0
C437 C 0.4908 0.27511 0.08725 0.0
C438 C 0.46034 0.25528 1.01004 0.0
C439 C 0.38942 0.33065 0.31561 0.0
C440 C 0.39156 0.32588 0.38432 0.0
C441 C 0.3952 0.30234 0.40299 0.0
C442 C 0.40092 0.28518 0.35487 0.0
C443 C 0.40419 0.29185 0.28812 0.0
C444 C 0.39757 0.31407 0.26888 0.0
C445 C 0.40547 0.31949 0.19901 0.0
C446 C 0.41899 0.29723 0.18088 0.0
C447 C 0.4178 0.28104 0.23278 0.0
C448 C 0.42166 0.34145 0.20326 0.0
C449 C 0.38338 0.32261 0.15449 0.0
C450 C 0.45264 0.20078 0.26962 0.0
C451 C 0.4693 0.18687 0.23681 0.0
C452 C 0.47997 0.19568 0.17855 0.0
C453 C 0.47355 0.21792 0.15295 0.0
C454 C 0.4566 0.23164 0.18663 0.0
C455 C 0.44683 0.22288 0.24459 0.0
C456 C 0.43125 0.24021 0.27916 0.0
C457 C 0.43096 0.25995 0.22918 0.0
C458 C 0.44607 0.25538 0.17477 0.0
C459 C 0.44335 0.24754 0.34616 0.0
C460 C 0.40665 0.22905 0.28724 0.0
H461 H 0.41296 0.3351 0.06448 0.0
H462 H 0.48534 0.30397 0.95904 0.0
H463 H 0.44266 0.25767 0.98741 0.0
H464 H 0.46057 0.23744 0.03068 0.0
H465 H 0.47351 0.25622 0.96939 0.0
H466 H 0.49397 0.29087 0.11939 0.0
H467 H 0.50288 0.27589 0.04389 0.0
H468 H 0.49553 0.25966 0.11719 0.0
H469 H 0.38517 0.34816 0.29898 0.0
H470 H 0.39622 0.29751 0.45505 0.0
H471 H 0.40444 0.26787 0.37253 0.0
H472 H 0.43394 0.34012 0.24642 0.0
H473 H 0.41123 0.35776 0.21007 0.0
H474 H 0.43296 0.34383 0.15956 0.0
H475 H 0.36754 0.31456 0.17706 0.0
H476 H 0.38524 0.31368 0.10521 0.0
H477 H 0.3794 0.34147 0.14658 0.0
H478 H 0.43132 0.35692 0.97734 0.0
C479 C 0.42861 0.32786 0.04331 0.0
Eu480 Eu 0.03675 1.00394 0.70084 0.0
C481 C 0.94829 1.001 0.52083 0.0
C482 C 0.95952 0.98237 0.41644 0.0
C483 C 0.91941 0.97905 0.45548 0.0
C484 C 0.96545 0.99537 0.47464 0.0
C485 C 0.92501 0.99316 0.51131 0.0
C486 C 0.93659 0.97384 0.40782 0.0
C487 C 0.91382 0.01596 0.60865 0.0
N488 N 0.95404 0.01521 0.57319 0.0
C489 C 0.93698 0.02368 0.61511 0.0
C490 C 0.90784 1.00038 0.55696 0.0
Eu491 Eu 0.99397 0.02662 0.5832 0.0
N492 N 0.9876 1.00359 0.48465 0.0
C493 C 1.00439 0.99997 0.4369 0.0
C494 C 0.97661 0.97895 0.36748 0.0
C495 C 0.99917 0.9876 0.37801 0.0
H496 H 0.94156 0.03576 0.65522 0.0
H497 H 0.01253 0.98496 0.34039 0.0
H498 H 0.93188 0.96354 0.36387 0.0
H499 H 0.90059 0.02209 0.64337 0.0
H500 H 0.02195 1.00651 0.44294 0.0
H501 H 0.02478 0.05431 0.93368 0.0
H502 H 0.97243 0.97011 0.32075 0.0
H503 H 0.08763 0.98266 0.64267 0.0
H504 H 0.01295 0.0293 0.83963 0.0
H505 H 0.12999 0.99125 0.65 0.0
H506 H 0.90168 0.97271 0.4476 0.0
H507 H 0.06588 0.06784 0.94402 0.0
H508 H 0.10675 0.06792 0.89894 0.0
H509 H 0.88982 0.9946 0.55158 0.0
H510 H 0.1355 0.05102 0.82056 0.0
N511 N 0.04669 0.02873 0.79393 0.0
C512 C 0.03086 0.03505 0.84206 0.0
C513 C 0.06062 0.05715 0.90149 0.0
C514 C 0.07699 0.05001 0.85374 0.0
C515 C 0.0375 0.0494 0.89604 0.0
C516 C 0.06948 0.03522 0.80072 0.0
H517 H 0.14441 0.02208 0.72817 0.0
N518 N 0.07795 1.00939 0.71245 0.0
C519 C 0.11772 1.00113 0.68042 0.0
C520 C 0.08563 0.02543 0.75787 0.0
C521 C 0.0937 0.99637 0.67625 0.0
C522 C 0.12577 0.01859 0.72436 0.0
C523 C 0.10974 0.03055 0.76514 0.0
O524 O 0.05218 0.96998 0.72488 0.0
O525 O 0.01187 0.99421 0.61708 0.0
O526 O 0.97566 1.00236 0.65629 0.0
O527 O 1.00007 1.00777 0.74725 0.0
O528 O 0.04433 0.97878 0.61398 0.0
O529 O 0.02202 0.98205 0.77947 0.0
O530 O 0.97181 0.05729 0.56894 0.0
O531 O 0.01988 0.03718 0.66437 0.0
O532 O 0.05838 0.02167 0.62072 0.0
O533 O 0.03085 0.02871 0.5365 0.0
O534 O 0.98656 0.05107 0.67107 0.0
O535 O 1.00193 0.05185 0.5052 0.0
C536 C 0.02432 0.97965 0.58423 0.0
C537 C 0.0214 0.94283 0.73913 0.0
C538 C 0.98427 0.92183 0.72616 0.0
C539 C 0.99766 0.93978 0.75638 0.0
C540 C 0.99481 0.90667 0.67934 0.0
C541 C 0.03174 0.92698 0.69348 0.0
C542 C 0.01848 0.90911 0.66383 0.0
C543 C 0.97927 1.00252 0.7215 0.0
C544 C 0.03452 0.96392 0.7618 0.0
C545 C 0.11711 0.04665 0.81463 0.0
C546 C 0.10075 0.05627 0.8592 0.0
C547 C 1.00723 0.05173 0.69709 0.0
C548 C 0.99501 0.09043 0.54747 0.0
C549 C 0.01797 0.09734 0.53202 0.0
C550 C 0.02748 0.118 0.55943 0.0
C551 C 0.01356 0.13241 0.60045 0.0
C552 C 0.98124 0.10516 0.58848 0.0
C553 C 0.99051 0.12603 0.61467 0.0
C554 C 0.0528 0.02757 0.55886 0.0
C555 C 0.98637 0.06688 0.52741 0.0
H556 H 0.98942 0.95157 0.7922 0.0
H557 H 0.98489 0.89244 0.65657 0.0
H558 H 0.04995 0.92874 0.67921 0.0
H559 H 0.02668 0.89714 0.62878 0.0
H560 H 0.02869 0.08644 0.49989 0.0
H561 H 0.02037 0.14886 0.61985 0.0
H562 H 0.96348 0.10031 0.60145 0.0
H563 H 0.97983 0.13723 0.64632 0.0
Eu564 Eu 0.52365 0.03582 0.6738 0.0
C565 C 0.51863 0.93888 0.51769 0.0
C566 C 0.53894 0.94372 0.41298 0.0
C567 C 0.53658 0.9051 0.46254 0.0
C568 C 0.52666 0.95333 0.46797 0.0
C569 C 0.52324 0.91453 0.51521 0.0
C570 C 0.54429 0.91966 0.41124 0.0
C571 C 0.49938 0.91025 0.61368 0.0
N572 N 0.50532 0.94845 0.56689 0.0
C573 C 0.49508 0.93441 0.61353 0.0
C574 C 0.51373 0.90028 0.5647 0.0
Eu575 Eu 0.49953 0.98976 0.56573 0.0
N576 N 0.52126 0.97653 0.47124 0.0
C577 C 0.52671 0.99084 0.41923 0.0
C578 C 0.54473 0.9584 0.36019 0.0
C579 C 0.53863 0.98208 0.36338 0.0
H580 H 0.48407 0.94188 0.65199 0.0
H581 H 0.54296 0.99359 0.32261 0.0
H582 H 0.55397 0.91207 0.36979 0.0
H583 H 0.49168 0.89935 0.65171 0.0
H584 H 0.52212 1.00912 0.42017 0.0
H585 H 0.48587 0.02159 0.92203 0.0
H586 H 0.55348 0.95151 0.31619 0.0
H587 H 0.53141 0.08692 0.59508 0.0
H588 H 0.50586 1.01043 0.81925 0.0
H589 H 0.51795 0.1281 0.6033 0.0
H590 H 0.54045 0.88648 0.46 0.0
H591 H 0.47093 0.06191 0.93755 0.0
H592 H 0.46347 0.1016 0.88984 0.0
H593 H 0.51696 0.88153 0.56472 0.0
H594 H 0.47123 0.13029 0.80186 0.0
N595 N 0.50217 0.04391 0.77344 0.0
C596 C 0.49941 0.02805 0.8236 0.0
C597 C 0.47916 0.05694 0.89083 0.0
C598 C 0.48171 0.07311 0.8395 0.0
C599 C 0.48786 0.03427 0.88261 0.0
C600 C 0.49388 0.06617 0.78118 0.0
H601 H 0.49167 0.1404 0.69534 0.0
N602 N 0.51208 0.07584 0.67982 0.0
C603 C 0.51229 0.11546 0.63982 0.0
C604 C 0.49865 0.08248 0.73243 0.0
C605 C 0.51988 0.09217 0.63537 0.0
C606 C 0.4974 0.12229 0.69166 0.0
C607 C 0.49085 0.10591 0.73968 0.0
O608 O 0.5527 0.05988 0.69216 0.0
O609 O 0.53215 1.00911 0.59443 0.0
O610 O 0.52481 0.9721 0.63711 0.0
O611 O 0.52573 0.99957 0.72423 0.0
O612 O 0.54661 0.04186 0.58231 0.0
O613 O 0.55246 0.02625 0.74072 0.0
O614 O 0.46513 0.97355 0.55344 0.0
O615 O 0.49103 0.01674 0.64545 0.0
O616 O 0.49906 0.05221 0.59741 0.0
O617 O 0.50118 0.0249 0.51102 0.0
O618 O 0.47678 0.98402 0.65737 0.0
O619 O 0.47623 1.00012 0.48418 0.0
C620 C 0.54587 0.02082 0.55812 0.0
C621 C 0.58882 0.04013 0.69792 0.0
C622 C 0.62092 0.01335 0.67103 0.0
C623 C 0.59894 0.01766 0.70018 0.0
C624 C 0.63276 0.03167 0.6393 0.0
C625 C 0.6011 0.05832 0.66642 0.0
C626 C 0.62285 0.05403 0.63699 0.0
C627 C 0.5289 0.97786 0.70044 0.0
C628 C 0.565 0.04448 0.7244 0.0
C629 C 0.47753 0.11245 0.79572 0.0
C630 C 0.47314 0.09613 0.84581 0.0
C631 C 0.47759 1.0049 0.68235 0.0
C632 C 0.43753 1.00281 0.52701 0.0
C633 C 0.43529 0.02639 0.50718 0.0
C634 C 0.41714 0.04046 0.53286 0.0
C635 C 0.40093 0.03081 0.5773 0.0
C636 C 0.42072 0.99336 0.57034 0.0
C637 C 0.40258 1.00729 0.59519 0.0
C638 C 0.49712 0.04652 0.53337 0.0
C639 C 0.45847 0.98877 0.5091 0.0
H640 H 0.58973 1.00341 0.72413 0.0
H641 H 0.64995 0.02884 0.61786 0.0
H642 H 0.59375 0.07583 0.66383 0.0
H643 H 0.63213 0.06812 0.61271 0.0
H644 H 0.44775 0.03398 0.47287 0.0
H645 H 0.38655 0.04132 0.59641 0.0
H646 H 0.42187 0.97528 0.58624 0.0
H647 H 0.38976 0.99977 0.6283 0.0
Eu648 Eu 0.53689 0.50499 0.5863 0.0
C649 C 0.43751 0.50455 0.71778 0.0
C650 C 0.40926 0.5182 0.63641 0.0
C651 C 0.39686 0.4918 0.72392 0.0
C652 C 0.43246 0.51719 0.66091 0.0
C653 C 0.41971 0.49188 0.7503 0.0
C654 C 0.3916 0.50509 0.6674 0.0
C655 C 0.44785 0.48201 0.83601 0.0
N656 N 0.45964 0.50539 0.74285 0.0
C657 C 0.46481 0.4951 0.8026 0.0
C658 C 0.42525 0.48019 0.8094 0.0
Eu659 Eu 0.48742 0.52755 0.68207 0.0
N660 N 0.44995 0.52941 0.63137 0.0
C661 C 0.44516 0.54409 0.57963 0.0
C662 C 0.40436 0.53287 0.58265 0.0
C663 C 0.42236 0.54605 0.55456 0.0
H664 H 0.48224 0.49627 0.82351 0.0
H665 H 0.41869 0.55787 0.51395 0.0
H666 H 0.37375 0.50541 0.64866 0.0
H667 H 0.45223 0.47333 0.88221 0.0
H668 H 0.45892 0.5544 0.55755 0.0
H669 H 0.60582 0.4767 0.75633 0.0
H670 H 0.38665 0.53454 0.56366 0.0
H671 H 0.54165 0.53551 0.44344 0.0
H672 H 0.5655 0.47943 0.71249 0.0
H673 H 0.57145 0.55837 0.38352 0.0
H674 H 0.38299 0.48205 0.74793 0.0
H675 H 0.63753 0.50034 0.70609 0.0
H676 H 0.65008 0.5291 0.61969 0.0
H677 H 0.41211 0.47014 0.83558 0.0
H678 H 0.64061 0.55168 0.51915 0.0
N679 N 0.5742 0.50424 0.63797 0.0
C680 C 0.57916 0.48986 0.69028 0.0
C681 C 0.61981 0.50164 0.68691 0.0
C682 C 0.61473 0.51594 0.63246 0.0
C683 C 0.60199 0.48833 0.71544 0.0
C684 C 0.59153 0.51652 0.60786 0.0
H685 H 0.61145 0.56249 0.43043 0.0
N686 N 0.56425 0.52744 0.52502 0.0
C687 C 0.57587 0.55014 0.43038 0.0
C688 C 0.58634 0.52873 0.55025 0.0
C689 C 0.55903 0.53713 0.4645 0.0
C690 C 0.5984 0.5525 0.45715 0.0
C691 C 0.60402 0.54138 0.51709 0.0
O692 O 0.54055 0.48478 0.49321 0.0
O693 O 0.49763 0.50754 0.59024 0.0
O694 O 0.48467 0.4878 0.67983 0.0
O695 O 0.52407 0.47885 0.66575 0.0
O696 O 0.51237 0.51052 0.49735 0.0
O697 O 0.55179 0.46989 0.58731 0.0
O698 O 0.48468 0.5474 0.77565 0.0
O699 O 0.52674 0.52507 0.67828 0.0
O700 O 0.53921 0.54483 0.58715 0.0
O701 O 0.49975 0.55338 0.60144 0.0
O702 O 0.51175 0.52099 0.7705 0.0
O703 O 0.47414 0.56338 0.68236 0.0
C704 C 0.49278 0.51043 0.529 0.0
C705 C 0.5395 0.44353 0.50315 0.0
C706 C 0.51205 0.41117 0.51801 0.0
C707 C 0.52051 0.43348 0.53695 0.0
C708 C 0.52287 0.39934 0.46388 0.0
C709 C 0.5501 0.43136 0.45016 0.0
C710 C 0.54178 0.40934 0.43062 0.0
C711 C 0.50249 0.473 0.68448 0.0
C712 C 0.549 0.46642 0.52333 0.0
C713 C 0.62685 0.54193 0.54363 0.0
C714 C 0.63224 0.52908 0.60087 0.0
C715 C 0.53144 0.52167 0.73942 0.0
C716 C 0.48949 0.58827 0.76527 0.0
C717 C 0.51404 0.59038 0.76179 0.0
C718 C 0.52487 0.61161 0.78059 0.0
C719 C 0.51084 0.63076 0.80081 0.0
C720 C 0.47585 0.60745 0.78583 0.0
C721 C 0.48652 0.62866 0.8033 0.0
C722 C 0.5212 0.55941 0.5822 0.0
C723 C 0.47762 0.56646 0.7462 0.0
H724 H 0.51247 0.443 0.57777 0.0
H725 H 0.51639 0.38256 0.44571 0.0
H726 H 0.56482 0.43891 0.4239 0.0
H727 H 0.54986 0.40006 0.38916 0.0
H728 H 0.52459 0.57552 0.74575 0.0
H729 H 0.51874 0.64746 0.81454 0.0
H730 H 0.45691 0.60604 0.78809 0.0
H731 H 0.47592 0.6435 0.81891 0.0
Eu732 Eu 0.02154 0.54025 0.58658 0.0
C733 C 0.02053 0.44089 0.70951 0.0
C734 C 1.00477 0.41563 0.62223 0.0
C735 C 0.03118 0.39952 0.70533 0.0
C736 C 1.0073 0.43809 0.65197 0.0
C737 C 0.03215 0.4215 0.73781 0.0
C738 C 0.01732 0.39654 0.64795 0.0
C739 C 0.04127 0.44587 0.83405 0.0
N740 N 0.02027 0.46206 0.74117 0.0
C741 C 0.02895 0.46431 0.80474 0.0
C742 C 0.04329 0.42446 0.79981 0.0
Eu743 Eu 0.99966 0.49288 0.68835 0.0
N744 N 0.99541 0.45689 0.62812 0.0
C745 C 0.97958 0.45403 0.57709 0.0
C746 C 0.98886 0.41278 0.5695 0.0
C747 C 0.97624 0.43205 0.54673 0.0
H748 H 0.02679 0.48066 0.83202 0.0
H749 H 0.96373 0.42996 0.50628 0.0
H750 H 0.01589 0.37927 0.62495 0.0
H751 H 0.04892 0.44808 0.88332 0.0
H752 H 0.9695 0.46862 0.55902 0.0
H753 H 0.05262 0.60931 0.75647 0.0
H754 H 0.98554 0.39562 0.54778 0.0
H755 H 0.99101 0.54537 0.44292 0.0
H756 H 0.04916 0.56901 0.71191 0.0
H757 H 0.96881 0.57564 0.38227 0.0
H758 H 0.04019 0.38448 0.7259 0.0
H759 H 0.02943 0.64134 0.70614 0.0
H760 H 1.00064 0.65429 0.61939 0.0
H761 H 0.05247 0.41004 0.82306 0.0
H762 H 0.97758 0.64507 0.51829 0.0
N763 N 0.02393 0.57785 0.63766 0.0
C764 C 0.03882 0.58274 0.68969 0.0
C765 C 0.02767 0.62359 0.68686 0.0
C766 C 0.01301 0.61865 0.6323 0.0
C767 C 0.04082 0.6056 0.71523 0.0
C768 C 0.01181 0.59536 0.60763 0.0
H769 H 0.96584 0.61591 0.4292 0.0
N770 N 0.99973 0.56802 0.52479 0.0
C771 C 0.97721 0.57997 0.42944 0.0
C772 C 0.99918 0.59027 0.54992 0.0
C773 C 0.98981 0.56287 0.46394 0.0
C774 C 0.97552 0.60266 0.45621 0.0
C775 C 0.98692 0.60818 0.51646 0.0
O776 O 0.04005 0.54062 0.49131 0.0
O777 O 0.01999 0.50075 0.59561 0.0
O778 O 0.03935 0.49222 0.70184 0.0
O779 O 0.0498 0.5292 0.66269 0.0
O780 O 0.01309 0.51435 0.50254 0.0
O781 O 0.05623 0.55595 0.57996 0.0
O782 O 0.98282 0.49046 0.78574 0.0
O783 O 1.00199 0.53209 0.68004 0.0
O784 O 0.98186 0.54397 0.58608 0.0
O785 O 0.97154 0.5059 0.61377 0.0
O786 O 1.0075 0.51862 0.77373 0.0
O787 O 0.96405 0.4794 0.6965 0.0
C788 C 0.01533 0.49515 0.53522 0.0
C789 C 0.08139 0.53977 0.4999 0.0
C790 C 0.10668 0.50599 0.4818 0.0
C791 C 0.08469 0.51529 0.49882 0.0
C792 C 0.12536 0.52128 0.46785 0.0
C793 C 0.10018 0.55477 0.48588 0.0
C794 C 0.12211 0.54552 0.47017 0.0
C795 C 0.05464 0.50958 0.69519 0.0
C796 C 0.05881 0.55026 0.51723 0.0
C797 C 0.98703 0.63112 0.543 0.0
C798 C 1.00016 0.63637 0.60056 0.0
C799 C 1.0062 0.53782 0.74052 0.0
C800 C 0.94167 0.49328 0.78647 0.0
C801 C 0.93778 0.51761 0.78313 0.0
C802 C 0.91685 0.5272 0.80826 0.0
C803 C 0.89981 0.51207 0.83506 0.0
C804 C 0.92464 0.47858 0.81383 0.0
C805 C 0.90375 0.48797 0.83788 0.0
C806 C 0.96634 0.52671 0.58819 0.0
C807 C 0.96314 0.48263 0.76091 0.0
H808 H 0.07023 0.50362 0.50994 0.0
H809 H 0.14251 0.51441 0.45505 0.0
H810 H 0.09787 0.57365 0.48726 0.0
H811 H 0.13659 0.55716 0.45942 0.0
H812 H 0.95104 0.52894 0.76198 0.0
H813 H 0.88326 0.51887 0.85334 0.0
H814 H 0.92749 0.45979 0.81626 0.0
H815 H 0.89054 0.47654 0.8586 0.0
C816 C 0.15433 0.03959 0.27476 0.0
C817 C 0.17379 0.05148 0.30238 0.0
C818 C 0.13393 0.03523 0.31302 0.0
C819 C 0.13267 0.04302 0.3807 0.0
C820 C 0.15229 0.05481 0.40891 0.0
C821 C 0.17251 0.05854 0.37012 0.0
C822 C 0.11356 0.0225 0.28075 0.0
C823 C 0.15195 0.0636 0.48043 0.0
C824 C 0.07335 0.05101 0.46949 0.0
C825 C 0.07251 0.03132 0.51081 0.0
C826 C 0.09251 0.05493 0.42628 0.0
C827 C 0.11122 0.03846 0.42291 0.0
C828 C 0.10999 0.01813 0.46302 0.0
C829 C 0.0908 0.01491 0.50632 0.0
C830 C 0.09309 0.07718 0.38623 0.0
C831 C 0.12911 0.99983 0.46087 0.0
H832 H 0.1548 0.03413 0.22273 0.0
H833 H 0.18746 0.0671 0.39341 0.0
H834 H 0.10922 1.00659 0.30968 0.0
H835 H 0.09782 0.03395 0.28132 0.0
H836 H 0.11727 0.01716 0.22826 0.0
H837 H 0.16799 0.07369 0.49394 0.0
H838 H 0.13646 0.07504 0.48881 0.0
H839 H 0.15038 0.04855 0.51477 0.0
H840 H 0.05935 0.06373 0.47223 0.0
H841 H 0.08994 0.99921 0.53602 0.0
H842 H 0.09827 0.07343 0.3338 0.0
H843 H 0.10638 0.08929 0.40812 0.0
H844 H 0.07587 0.0863 0.3862 0.0
H845 H 0.13183 0.99362 0.4087 0.0
H846 H 0.12503 0.98446 0.49245 0.0
H847 H 0.14588 1.00766 0.47852 0.0
C848 C 0.49695 0.16071 0.29989 0.0
C849 C 0.47552 0.16375 0.26649 0.0
C850 C 0.50105 0.14084 0.33988 0.0
C851 C 0.4834 0.12342 0.34612 0.0
C852 C 0.46218 0.12596 0.30983 0.0
C853 C 0.45839 0.14615 0.2712 0.0
C854 C 0.52379 0.13906 0.37817 0.0
C855 C 0.44295 0.10789 0.31477 0.0
C856 C 0.49873 0.06312 0.41712 0.0
C857 C 0.4922 0.06557 0.48447 0.0
C858 C 0.49603 0.08171 0.37179 0.0
C859 C 0.48638 0.1034 0.39386 0.0
C860 C 0.47925 0.10576 0.46157 0.0
C861 C 0.48215 0.08687 0.50564 0.0
C862 C 0.50401 0.0783 0.30051 0.0
C863 C 0.46947 0.12847 0.48932 0.0
H864 H 0.51003 0.17449 0.29757 0.0
H865 H 0.44166 0.14859 0.24631 0.0
H866 H 0.52023 0.14078 0.43251 0.0
H867 H 0.53194 0.1216 0.36952 0.0
H868 H 0.5365 0.1529 0.36393 0.0
H869 H 0.42791 0.11176 0.28123 0.0
H870 H 0.44979 0.09017 0.30201 0.0
H871 H 0.43663 0.10731 0.36707 0.0
H872 H 0.50657 0.04684 0.39996 0.0
H873 H 0.47667 0.08894 0.5572 0.0
H874 H 0.51798 0.09119 0.28904 0.0
H875 H 0.48925 0.08158 0.26559 0.0
H876 H 0.51089 0.06033 0.29083 0.0
H877 H 0.48404 0.13885 0.51178 0.0
H878 H 0.45656 0.12508 0.52947 0.0
H879 H 0.46103 0.13933 0.45053 0.0
C880 C 0.36744 0.50143 0.3292 0.0
C881 C 0.36632 0.47968 0.29574 0.0
C882 C 0.38762 0.5083 0.3661 0.0
C883 C 0.40735 0.49304 0.37027 0.0
C884 C 0.40672 0.47167 0.33298 0.0
C885 C 0.38629 0.4652 0.29704 0.0
C886 C 0.38683 0.53147 0.40306 0.0
C887 C 0.42762 0.45541 0.33158 0.0
C888 C 0.46721 0.51695 0.42881 0.0
C889 C 0.46983 0.50728 0.49275 0.0
C890 C 0.44705 0.51277 0.38915 0.0
C891 C 0.42847 0.49885 0.41391 0.0
C892 C 0.43081 0.48936 0.47906 0.0
C893 C 0.45165 0.49307 0.51676 0.0
C894 C 0.44583 0.52294 0.31997 0.0
C895 C 0.41118 0.47528 0.50895 0.0
H896 H 0.35205 0.5126 0.32959 0.0
H897 H 0.38563 0.44833 0.27139 0.0
H898 H 0.37707 0.52908 0.45024 0.0
H899 H 0.40451 0.53843 0.41493 0.0
H900 H 0.3772 0.54475 0.37342 0.0
H901 H 0.42448 0.4395 0.30009 0.0
H902 H 0.44311 0.46486 0.31197 0.0
H903 H 0.43205 0.44981 0.38293 0.0
H904 H 0.48129 0.52758 0.40907 0.0
H905 H 0.45371 0.48481 0.56491 0.0
H906 H 0.43049 0.53483 0.31607 0.0
H907 H 0.44335 0.50862 0.28242 0.0
H908 H 0.46189 0.53294 0.30717 0.0
H909 H 0.39448 0.48522 0.50562 0.0
H910 H 0.41456 0.47105 0.56212 0.0
H911 H 0.40878 0.45867 0.48022 0.0
C912 C 0.03117 0.36965 0.33259 0.0
C913 C 0.05151 0.37058 0.2935 0.0
C914 C 0.024 0.38901 0.37298 0.0
C915 C 0.03747 0.4101 0.37536 0.0
C916 C 0.0575 0.4114 0.33367 0.0
C917 C 0.06418 0.39186 0.29368 0.0
C918 C 1.00269 0.386 0.41599 0.0
C919 C 0.07218 0.43343 0.33196 0.0
C920 C 0.01001 0.46853 0.43508 0.0
C921 C 0.0202 0.47232 0.4985 0.0
C922 C 0.01504 0.44835 0.39573 0.0
C923 C 0.03067 0.43099 0.41973 0.0
C924 C 0.04076 0.4345 0.48438 0.0
C925 C 0.03585 0.45524 0.52217 0.0
C926 C 1.00382 0.44581 0.32762 0.0
C927 C 0.05699 0.41644 0.51349 0.0
H928 H 0.02141 0.35333 0.33428 0.0
H929 H 0.07987 0.39306 0.26353 0.0
H930 H 1.00851 0.37904 0.46483 0.0
H931 H 0.99334 0.40282 0.42456 0.0
H932 H 0.99023 0.37313 0.39345 0.0
H933 H 0.08729 0.43177 0.29735 0.0
H934 H 0.0612 0.44847 0.31619 0.0
H935 H 0.07895 0.43763 0.38274 0.0
H936 H 0.99808 0.48162 0.41568 0.0
H937 H 0.04436 0.45812 0.5701 0.0
H938 H 0.99359 0.42924 0.32473 0.0
H939 H 0.01761 0.44475 0.28871 0.0
H940 H 0.99196 0.46068 0.31596 0.0
H941 H 0.04946 0.39857 0.5071 0.0
H942 H 0.06042 0.41973 0.56748 0.0
H943 H 0.07391 0.4168 0.4865 0.0
C944 C 0.88387 0.96018 0.9889 0.0
C945 C 0.86218 0.97192 0.98541 0.0
C946 C 0.90292 0.96637 0.948 0.0
C947 C 0.90067 0.98512 0.90253 0.0
C948 C 0.87932 0.998 0.90153 0.0
C949 C 0.86037 0.99124 0.94269 0.0
C950 C 0.92525 0.95224 0.95186 0.0
C951 C 0.87618 0.01838 0.85496 0.0
C952 C 0.95817 1.00905 0.83076 0.0
C953 C 0.95908 0.99819 0.76737 0.0
C954 C 0.93904 1.00561 0.87416 0.0
C955 C 0.92037 0.9905 0.85469 0.0
C956 C 0.92121 0.97956 0.79051 0.0
C957 C 0.94037 0.98364 0.74766 0.0
C958 C 0.93881 0.0182 0.94096 0.0
C959 C 0.90224 0.96281 0.76786 0.0
H960 H 0.88571 0.94544 0.02224 0.0
H961 H 0.84374 1.00035 0.93888 0.0
H962 H 0.92991 0.94541 0.90154 0.0
H963 H 0.9399 0.96363 0.96902 0.0
H964 H 0.92377 0.93725 0.98658 0.0
H965 H 0.85946 0.02789 0.86397 0.0
H966 H 0.89096 0.03093 0.86086 0.0
H967 H 0.87634 0.01192 0.80241 0.0
H968 H 0.97227 0.02067 0.84616 0.0
H969 H 0.94092 0.97505 0.69901 0.0
H970 H 0.93962 1.00527 0.98184 0.0
H971 H 0.9222 0.02815 0.94696 0.0
H972 H 0.95376 0.03057 0.94691 0.0
H973 H 0.90313 0.94688 0.79891 0.0
H974 H 0.90412 0.95752 0.71453 0.0
H975 H 0.88466 0.97073 0.77515 0.0
C976 C 0.57698 0.87507 0.94207 0.0
C977 C 0.55861 0.86023 0.96199 0.0
C978 C 0.57282 0.89506 0.90285 0.0
C979 C 0.54966 0.90056 0.88239 0.0
C980 C 0.53093 0.88611 0.90416 0.0
C981 C 0.5356 0.86625 0.94384 0.0
C982 C 0.59336 0.90996 0.88181 0.0
C983 C 0.50599 0.89115 0.8834 0.0
C984 C 0.53576 0.96218 0.81703 0.0
C985 C 0.53586 0.95865 0.74735 0.0
C986 C 0.54032 0.9436 0.8614 0.0
C987 C 0.5452 0.92076 0.83594 0.0
C988 C 0.54602 0.91725 0.76568 0.0
C989 C 0.54158 0.93616 0.72258 0.0
C990 C 0.53962 0.94837 0.93572 0.0
C991 C 0.55129 0.89337 0.73576 0.0
H992 H 0.59482 0.87079 0.95631 0.0
H993 H 0.5213 0.85486 0.95821 0.0
H994 H 0.59466 0.90997 0.82651 0.0
H995 H 0.59068 0.92843 0.89835 0.0
H996 H 0.61026 0.90362 0.90267 0.0
H997 H 0.49326 0.879 0.90673 0.0
H998 H 0.50121 0.90945 0.89729 0.0
H999 H 0.50434 0.8895 0.82825 0.0
H1000 H 0.53179 0.97942 0.83728 0.0
H1001 H 0.54242 0.93319 0.66908 0.0
H1002 H 0.55658 0.94342 0.95889 0.0
H1003 H 0.52583 0.93744 0.95892 0.0
H1004 H 0.536 0.96712 0.94776 0.0
H1005 H 0.56849 0.88699 0.75415 0.0
H1006 H 0.55165 0.89356 0.68026 0.0
H1007 H 0.5378 0.88059 0.75176 0.0
C1008 C 0.63911 0.56826 0.97089 0.0
C1009 C 0.65745 0.55191 0.97658 0.0
C1010 C 0.6185 0.56303 0.93392 0.0
C1011 C 0.61638 0.54126 0.89887 0.0
C1012 C 0.63479 0.52455 0.90574 0.0
C1013 C 0.65489 0.53005 0.94449 0.0
C1014 C 0.59868 0.58057 0.93413 0.0
C1015 C 0.63413 0.50102 0.87057 0.0
C1016 C 0.55626 0.51752 0.84214 0.0
C1017 C 0.55393 0.52614 0.7769 0.0
C1018 C 0.5761 0.52258 0.88227 0.0
C1019 C 0.59484 0.53602 0.85633 0.0
C1020 C 0.59262 0.54476 0.79025 0.0
C1021 C 0.57193 0.54047 0.75242 0.0
C1022 C 0.57687 0.51366 0.95295 0.0
C1023 C 0.61215 0.55866 0.75931 0.0
H1024 H 0.64088 0.58519 0.99576 0.0
H1025 H 0.66908 0.51743 0.94772 0.0
H1026 H 0.59383 0.58529 0.88239 0.0
H1027 H 0.58294 0.57255 0.957 0.0
H1028 H 0.60315 0.59688 0.96242 0.0
H1029 H 0.64318 0.48746 0.90068 0.0
H1030 H 0.61607 0.49492 0.85992 0.0
H1031 H 0.6437 0.50245 0.82272 0.0
H1032 H 0.54223 0.50697 0.86247 0.0
H1033 H 0.56995 0.54817 0.70349 0.0
H1034 H 0.5809 0.5283 0.98832 0.0
H1035 H 0.59103 0.50045 0.95785 0.0
H1036 H 0.56005 0.50543 0.96792 0.0
H1037 H 0.61289 0.57628 0.78302 0.0
H1038 H 0.60953 0.56087 0.70479 0.0
H1039 H 0.6293 0.54997 0.76791 0.0
C1040 C 0.99479 0.66474 0.93703 0.0
C1041 C 0.97355 0.66561 0.97213 0.0
C1042 C 1.00135 0.64464 0.89875 0.0
C1043 C 0.9863 0.62464 0.89464 0.0
C1044 C 0.96534 0.62511 0.93272 0.0
C1045 C 0.95926 0.6454 0.9703 0.0
C1046 C 0.02397 0.64579 0.86045 0.0
C1047 C 0.94909 0.60417 0.93341 0.0
C1048 C 0.98694 0.57841 0.75072 0.0
C1049 C 1.00188 0.56097 0.77598 0.0
C1050 C 0.98263 0.59958 0.78707 0.0
C1051 C 0.99234 0.60307 0.85218 0.0
C1052 C 1.00695 0.5852 0.8782 0.0
C1053 C 0.01165 0.5647 0.83992 0.0
C1054 C 0.96766 0.61825 0.75552 0.0
C1055 C 0.01743 0.58755 0.94732 0.0
H1056 H 1.00583 0.68024 0.9367 0.0
H1057 H 0.94279 0.64571 0.99717 0.0
H1058 H 0.03081 0.62824 0.84639 0.0
H1059 H 0.02092 0.65599 0.8144 0.0
H1060 H 0.0376 0.65522 0.89016 0.0
H1061 H 0.93411 0.60675 0.96805 0.0
H1062 H 0.94201 0.60079 0.88254 0.0
H1063 H 0.95891 0.58825 0.9484 0.0
H1064 H 0.97864 0.57555 0.7025 0.0
H1065 H 0.0229 0.55127 0.86068 0.0
H1066 H 0.97588 0.63579 0.76248 0.0
H1067 H 0.95027 0.61874 0.77999 0.0
H1068 H 0.96498 0.61492 0.70123 0.0
H1069 H 0.02908 0.60315 0.94983 0.0
H1070 H 0.02775 0.57184 0.96159 0.0
H1071 H 1.00329 0.59031 0.98457 0.0
C1072 C 0.11881 0.20356 0.45648 0.0
C1073 C 0.1372 0.19603 0.41484 0.0
C1074 C 0.10646 0.18765 0.49558 0.0
C1075 C 0.11289 0.16366 0.49396 0.0
C1076 C 0.13395 0.15679 0.46202 0.0
C1077 C 0.14586 0.17309 0.42229 0.0
C1078 C 0.08448 0.19601 0.53056 0.0
C1079 C 0.14259 0.13178 0.46363 0.0
C1080 C 0.06792 0.13043 0.59297 0.0
C1081 C 0.05155 0.1252 0.54257 0.0
C1082 C 0.08973 0.14035 0.57732 0.0
C1083 C 0.09463 0.14603 0.51014 0.0
C1084 C 0.07886 0.13887 0.45871 0.0
C1085 C 0.05759 0.12829 0.47568 0.0
C1086 C 0.10666 0.14597 0.63334 0.0
C1087 C 0.08342 0.14424 0.38613 0.0
H1088 H 0.11196 0.22122 0.45252 0.0
H1089 H 0.16069 0.16726 0.39268 0.0
H1090 H 0.06882 0.18861 0.50469 0.0
H1091 H 0.08423 0.18987 0.58285 0.0
H1092 H 0.08294 0.21546 0.53121 0.0
H1093 H 0.16206 0.13132 0.46438 0.0
H1094 H 0.13587 0.12229 0.50771 0.0
H1095 H 0.13673 0.12235 0.41767 0.0
H1096 H 0.06341 0.12735 0.64467 0.0
H1097 H 0.04496 0.12389 0.43683 0.0
H1098 H 0.10149 0.16274 0.65792 0.0
H1099 H 0.12495 0.14761 0.61521 0.0
H1100 H 0.10602 0.13213 0.67193 0.0
H1101 H 0.084 0.16354 0.37912 0.0
H1102 H 0.06973 0.13678 0.35239 0.0
H1103 H 0.10064 0.13701 0.3707 0.0
C1104 C 0.33556 0.13551 0.44302 0.0
C1105 C 0.34133 0.15074 0.39106 0.0
C1106 C 0.35309 0.12361 0.4781 0.0
C1107 C 0.3769 0.1274 0.46137 0.0
C1108 C 0.38275 0.14614 0.41866 0.0
C1109 C 0.3648 0.15757 0.38348 0.0
C1110 C 0.34588 0.10435 0.52501 0.0
C1111 C 0.40777 0.15236 0.40311 0.0
C1112 C 0.41445 0.08371 0.55362 0.0
C1113 C 0.41334 0.06456 0.50906 0.0
C1114 C 0.40518 0.10563 0.53583 0.0
C1115 C 0.3938 0.10796 0.47328 0.0
C1116 C 0.3947 0.08917 0.42603 0.0
C1117 C 0.40471 0.06774 0.44442 0.0
C1118 C 0.40601 0.12564 0.58582 0.0
C1119 C 0.38301 0.09084 0.35831 0.0
H1120 H 0.31746 0.13033 0.45018 0.0
H1121 H 0.36937 0.16997 0.34492 0.0
H1122 H 0.34831 0.08704 0.49984 0.0
H1123 H 0.35692 0.1046 0.57071 0.0
H1124 H 0.32721 0.10595 0.54004 0.0
H1125 H 0.41004 0.17173 0.40474 0.0
H1126 H 0.42033 0.14433 0.43838 0.0
H1127 H 0.41188 0.14645 0.35147 0.0
H1128 H 0.42152 0.0812 0.60337 0.0
H1129 H 0.40397 0.05284 0.41014 0.0
H1130 H 0.38932 0.12631 0.61403 0.0
H1131 H 0.40822 0.14269 0.56034 0.0
H1132 H 0.42056 0.12336 0.62227 0.0
H1133 H 0.36368 0.09072 0.36457 0.0
H1134 H 0.38791 0.07599 0.32465 0.0
H1135 H 0.38779 0.1075 0.33373 0.0
C1136 C 0.39557 0.34281 0.50191 0.0
C1137 C 0.39773 0.34536 0.43231 0.0
C1138 C 0.40904 0.35667 0.54655 0.0
C1139 C 0.42513 0.37314 0.52077 0.0
C1140 C 0.42456 0.37823 0.45157 0.0
C1141 C 0.41083 0.36443 0.40866 0.0
C1142 C 0.40714 0.35221 0.62042 0.0
C1143 C 0.44079 0.3961 0.42069 0.0
C1144 C 0.47159 0.41483 0.56809 0.0
C1145 C 0.49089 0.4008 0.54974 0.0
C1146 C 0.44929 0.40467 0.57564 0.0
C1147 C 0.44627 0.38066 0.55935 0.0
C1148 C 0.46627 0.36601 0.55555 0.0
C1149 C 0.4885 0.37632 0.55203 0.0
C1150 C 0.4285 0.41994 0.59193 0.0
C1151 C 0.46412 0.3398 0.54541 0.0
H1152 H 0.38464 0.32897 0.52157 0.0
H1153 H 0.41275 0.36714 0.35558 0.0
H1154 H 0.41385 0.33438 0.63144 0.0
H1155 H 0.41687 0.36532 0.65129 0.0
H1156 H 0.3884 0.35253 0.63533 0.0
H1157 H 0.43736 0.39849 0.36651 0.0
H1158 H 0.43877 0.41342 0.44578 0.0
H1159 H 0.45929 0.39045 0.42671 0.0
H1160 H 0.4732 0.43377 0.57032 0.0
H1161 H 0.50369 0.36522 0.54394 0.0
H1162 H 0.4167 0.41075 0.62703 0.0
H1163 H 0.41829 0.42338 0.54584 0.0
H1164 H 0.43399 0.43699 0.61459 0.0
H1165 H 0.45252 0.33235 0.58406 0.0
H1166 H 0.48138 0.33081 0.54819 0.0
H1167 H 0.45617 0.33589 0.49574 0.0
C1168 C 0.1598 0.3826 0.40167 0.0
C1169 C 0.18272 0.39178 0.4033 0.0
C1170 C 0.14157 0.39415 0.43596 0.0
C1171 C 0.14658 0.41522 0.47131 0.0
C1172 C 0.17021 0.42094 0.48592 0.0
C1173 C 0.18809 0.40904 0.45182 0.0
C1174 C 0.11668 0.38591 0.42613 0.0
C1175 C 0.17657 0.44238 0.52735 0.0
C1176 C 0.11941 0.47154 0.4155 0.0
C1177 C 0.11055 0.48046 0.47558 0.0
C1178 C 0.12889 0.44897 0.41169 0.0
C1179 C 0.12944 0.43491 0.46982 0.0
C1180 C 0.11786 0.44284 0.5285 0.0
C1181 C 0.10858 0.46574 0.53084 0.0
C1182 C 0.14037 0.44129 0.34693 0.0
C1183 C 0.11665 0.42809 0.59039 0.0
H1184 H 0.1556 0.36822 0.36769 0.0
H1185 H 0.20576 0.41587 0.45623 0.0
H1186 H 0.10629 0.38907 0.47212 0.0
H1187 H 0.10837 0.39584 0.38502 0.0
H1188 H 0.11601 0.36692 0.41291 0.0
H1189 H 0.19548 0.44266 0.54097 0.0
H1190 H 0.1726 0.45846 0.49861 0.0
H1191 H 0.16614 0.44303 0.5739 0.0
H1192 H 0.12031 0.4829 0.37247 0.0
H1193 H 0.1013 0.4726 0.57711 0.0
H1194 H 0.13351 0.42396 0.3304 0.0
H1195 H 0.15959 0.43957 0.35434 0.0
H1196 H 0.1373 0.45394 0.306 0.0
H1197 H 0.09963 0.4308 0.61614 0.0
H1198 H 0.1306 0.43368 0.62592 0.0
H1199 H 0.11888 0.40911 0.57892 0.0
C1200 C 0.86914 0.86675 0.87866 0.0
C1201 C 0.87812 0.84375 0.87846 0.0
C1202 C 0.87951 0.88419 0.83938 0.0
C1203 C 0.89914 0.87832 0.79953 0.0
C1204 C 0.90501 0.85442 0.78931 0.0
C1205 C 0.89434 0.83739 0.82869 0.0
C1206 C 0.87127 0.90923 0.84644 0.0
C1207 C 0.92513 0.84711 0.74473 0.0
C1208 C 0.94179 0.91482 0.70124 0.0
C1209 C 0.96005 0.91705 0.74798 0.0
C1210 C 0.92021 0.90486 0.71925 0.0
C1211 C 0.91734 0.89621 0.78473 0.0
C1212 C 0.93507 0.90046 0.83344 0.0
C1213 C 0.9561 0.91114 0.81451 0.0
C1214 C 0.90141 0.90213 0.66655 0.0
C1215 C 0.93299 0.89146 0.90394 0.0
H1216 H 0.85566 0.87168 0.91421 0.0
H1217 H 0.9012 0.81968 0.82607 0.0
H1218 H 0.88321 0.91903 0.88066 0.0
H1219 H 0.87151 0.918 0.79726 0.0
H1220 H 0.85324 0.91022 0.86712 0.0
H1221 H 0.92576 0.82778 0.73657 0.0
H1222 H 0.92368 0.85564 0.69544 0.0
H1223 H 0.94196 0.85276 0.76792 0.0
H1224 H 0.94475 0.91986 0.64991 0.0
H1225 H 0.97026 0.91296 0.85056 0.0
H1226 H 0.88379 0.89953 0.68857 0.0
H1227 H 0.90556 0.88678 0.63402 0.0
H1228 H 0.90095 0.91783 0.63419 0.0
H1229 H 0.91602 0.89682 0.92619 0.0
H1230 H 0.94736 0.89802 0.9369 0.0
H1231 H 0.93359 0.87197 0.90316 0.0
C1232 C 0.67861 0.89226 0.76792 0.0
C1233 C 0.70044 0.90008 0.79206 0.0
C1234 C 0.66538 0.9063 0.72458 0.0
C1235 C 0.67405 0.92868 0.70733 0.0
C1236 C 0.69772 0.93442 0.72121 0.0
C1237 C 0.7108 0.91978 0.76267 0.0
C1238 C 0.64097 0.89868 0.70487 0.0
C1239 C 0.70799 0.95788 0.7024 0.0
C1240 C 0.64211 0.97862 0.62253 0.0
C1241 C 0.63224 0.99019 0.67788 0.0
C1242 C 0.65436 0.95742 0.62999 0.0
C1243 C 0.65741 0.94816 0.69476 0.0
C1244 C 0.6469 0.95958 0.75059 0.0
C1245 C 0.63417 0.98026 0.74115 0.0
C1246 C 0.66381 0.94503 0.56864 0.0
C1247 C 0.65013 0.95079 0.8211 0.0
H1248 H 0.67081 0.87657 0.78849 0.0
H1249 H 0.72785 0.92586 0.77971 0.0
H1250 H 0.62811 0.90638 0.74034 0.0
H1251 H 0.6365 0.90495 0.65406 0.0
H1252 H 0.63917 0.87927 0.70604 0.0
H1253 H 0.72735 0.95828 0.70877 0.0
H1254 H 0.70374 0.96213 0.64984 0.0
H1255 H 0.70031 0.97185 0.73475 0.0
H1256 H 0.64021 0.98617 0.57344 0.0
H1257 H 0.62667 0.98934 0.78396 0.0
H1258 H 0.65168 0.93053 0.55461 0.0
H1259 H 0.68126 0.9371 0.5779 0.0
H1260 H 0.66515 0.95707 0.52554 0.0
H1261 H 0.64269 0.93289 0.82547 0.0
H1262 H 0.64148 0.96229 0.85887 0.0
H1263 H 0.66908 0.94975 0.8336 0.0
C1264 C 0.62806 0.68643 0.77073 0.0
C1265 C 0.64484 0.68188 0.82038 0.0
C1266 C 0.61462 0.66812 0.74308 0.0
C1267 C 0.61857 0.64488 0.76489 0.0
C1268 C 0.63941 0.6399 0.80068 0.0
C1269 C 0.65226 0.6586 0.82921 0.0
C1270 C 0.59348 0.67432 0.70113 0.0
C1271 C 0.64598 0.61503 0.81733 0.0
C1272 C 0.56141 0.62478 0.83661 0.0
C1273 C 0.5507 0.61427 0.78092 0.0
C1274 C 0.58453 0.63274 0.83398 0.0
C1275 C 0.59755 0.62973 0.77407 0.0
C1276 C 0.58774 0.6164 0.72049 0.0
C1277 C 0.56424 0.60892 0.72436 0.0
C1278 C 0.59405 0.6463 0.89368 0.0
C1279 C 0.60133 0.61117 0.65758 0.0
H1280 H 0.62269 0.70434 0.76136 0.0
H1281 H 0.66608 0.65494 0.86494 0.0
H1282 H 0.59217 0.66245 0.65703 0.0
H1283 H 0.57728 0.6722 0.73106 0.0
H1284 H 0.5942 0.6927 0.68332 0.0
H1285 H 0.66407 0.61387 0.83788 0.0
H1286 H 0.63367 0.60803 0.85489 0.0
H1287 H 0.64468 0.60377 0.77182 0.0
H1288 H 0.55112 0.62808 0.88123 0.0
H1289 H 0.55611 0.60022 0.68168 0.0
H1290 H 0.59731 0.66482 0.87986 0.0
H1291 H 0.6109 0.63866 0.91055 0.0
H1292 H 0.5818 0.64626 0.9367 0.0
H1293 H 0.59701 0.62441 0.61935 0.0
H1294 H 0.59629 0.59377 0.63634 0.0
H1295 H 0.62054 0.61146 0.66662 0.0
C1296 C 0.83257 0.62272 0.78773 0.0
C1297 C 0.83546 0.64066 0.83574 0.0
C1298 C 0.85204 0.61052 0.7627 0.0
C1299 C 0.87476 0.61697 0.78524 0.0
C1300 C 0.87781 0.63864 0.81949 0.0
C1301 C 0.85799 0.65013 0.84585 0.0
C1302 C 0.84791 0.58836 0.72206 0.0
C1303 C 0.90196 0.6477 0.83663 0.0
C1304 C 0.90153 0.56348 0.86206 0.0
C1305 C 0.91208 0.55277 0.80662 0.0
C1306 C 0.89108 0.58555 0.85733 0.0
C1307 C 0.89203 0.59775 0.79585 0.0
C1308 C 0.90563 0.58841 0.74257 0.0
C1309 C 0.91533 0.56579 0.7483 0.0
C1310 C 0.87704 0.59449 0.91647 0.0
C1311 C 0.90878 0.60127 0.67782 0.0
H1312 H 0.81523 0.61571 0.77766 0.0
H1313 H 0.86035 0.66471 0.88058 0.0
H1314 H 0.8592 0.58822 0.67718 0.0
H1315 H 0.85249 0.57278 0.75224 0.0
H1316 H 0.82937 0.58661 0.70547 0.0
H1317 H 0.90172 0.66697 0.84585 0.0
H1318 H 0.90851 0.63917 0.88259 0.0
H1319 H 0.91443 0.64358 0.79566 0.0
H1320 H 0.89998 0.55377 0.90811 0.0
H1321 H 0.92405 0.55781 0.70564 0.0
H1322 H 0.85836 0.59666 0.90202 0.0
H1323 H 0.88373 0.61181 0.93358 0.0
H1324 H 0.87778 0.58242 0.95961 0.0
H1325 H 0.89741 0.59322 0.63868 0.0
H1326 H 0.92711 0.59933 0.66005 0.0
H1327 H 0.90455 0.62023 0.68269 0.0
C1328 C 0.03947 0.15518 0.96741 0.0
C1329 C 0.03939 0.17779 0.93986 0.0
C1330 C 0.03484 0.13479 0.92858 0.0
C1331 C 0.03036 0.13647 0.85889 0.0
C1332 C 0.02976 0.15936 0.83093 0.0
C1333 C 0.03415 0.17962 0.87144 0.0
C1334 C 0.03563 0.11153 0.96342 0.0
C1335 C 0.02477 0.16246 0.75768 0.0
C1336 C 0.03752 0.08142 0.74344 0.0
C1337 C 0.01454 0.07247 0.74045 0.0
C1338 C 0.04304 0.10194 0.78194 0.0
C1339 C 0.0251 0.11457 0.81647 0.0
C1340 C 1.00189 0.1057 0.81235 0.0
C1341 C 0.99702 0.08496 0.77528 0.0
C1342 C 0.0682 0.10985 0.78691 0.0
C1343 C 0.98205 0.11805 0.84794 0.0
H1344 H 0.04339 0.15333 0.02016 0.0
H1345 H 0.03424 0.19684 0.84904 0.0
H1346 H 0.02555 0.09766 0.93676 0.0
H1347 H 0.0542 0.106 0.9674 0.0
H1348 H 0.02871 0.11321 0.01509 0.0
H1349 H 0.02359 0.18124 0.74372 0.0
H1350 H 0.03896 0.15406 0.72811 0.0
H1351 H 1.00806 0.15361 0.744 0.0
H1352 H 0.05118 0.07243 0.71571 0.0
H1353 H 0.97913 0.07854 0.77312 0.0
H1354 H 0.0742 0.10859 0.8396 0.0
H1355 H 0.06976 0.12852 0.77241 0.0
H1356 H 0.08 0.09906 0.75489 0.0
H1357 H 0.98525 0.11788 0.90269 0.0
H1358 H 0.96478 0.10971 0.83749 0.0
H1359 H 0.98124 0.1367 0.83261 0.0
C1360 C 0.35343 0.03658 0.85922 0.0
C1361 C 0.35645 0.04656 0.92313 0.0
C1362 C 0.37301 0.02975 0.81991 0.0
C1363 C 0.39626 0.03311 0.84454 0.0
C1364 C 0.39911 0.04246 0.9101 0.0
C1365 C 0.37937 0.04909 0.94802 0.0
C1366 C 0.36883 0.01965 0.75106 0.0
C1367 C 0.42307 0.04696 0.93923 0.0
C1368 C 0.44745 0.99764 0.77022 0.0
C1369 C 0.45823 0.01358 0.72695 0.0
C1370 C 0.42744 1.00372 0.80792 0.0
C1371 C 0.41755 0.02647 0.80293 0.0
C1372 C 0.42858 0.04286 0.75993 0.0
C1373 C 0.4485 0.03614 0.72185 0.0
C1374 C 0.41684 0.98566 0.85336 0.0
C1375 C 0.41914 0.06743 0.75311 0.0
H1376 H 0.33585 0.03507 0.83883 0.0
H1377 H 0.38191 0.05729 0.99675 0.0
H1378 H 0.37625 0.03168 0.71351 0.0
H1379 H 0.37796 1.00253 0.74575 0.0
H1380 H 0.3499 0.01705 0.74002 0.0
H1381 H 0.42252 0.04974 0.99426 0.0
H1382 H 0.43519 0.03222 0.92798 0.0
H1383 H 0.43018 0.06309 0.91639 0.0
H1384 H 0.45462 0.98007 0.77407 0.0
H1385 H 0.45618 0.04842 0.68725 0.0
H1386 H 0.39816 0.98273 0.8399 0.0
H1387 H 0.41734 0.99221 0.90582 0.0
H1388 H 0.42619 0.96857 0.85068 0.0
H1389 H 0.40246 0.06682 0.72439 0.0
H1390 H 0.43162 0.07907 0.72683 0.0
H1391 H 0.41531 0.07526 0.80294 0.0
C1392 C 0.47352 0.34518 0.84774 0.0
C1393 C 0.47226 0.34942 0.91691 0.0
C1394 C 0.48004 0.36324 0.80333 0.0
C1395 C 0.48523 0.38612 0.8286 0.0
C1396 C 0.48488 0.39005 0.8987 0.0
C1397 C 0.47849 0.37176 0.9416 0.0
C1398 C 0.48013 0.3581 0.72921 0.0
C1399 C 0.49001 0.41403 0.92842 0.0
C1400 C 0.5168 0.43462 0.73273 0.0
C1401 C 0.49816 0.44943 0.7148 0.0
C1402 C 0.5128 0.41328 0.76616 0.0
C1403 C 0.48961 0.40651 0.78281 0.0
C1404 C 0.47068 0.4208 0.7616 0.0
C1405 C 0.47517 0.44185 0.72764 0.0
C1406 C 0.53349 0.39837 0.78584 0.0
C1407 C 0.44563 0.41435 0.77708 0.0
H1408 H 0.46827 0.32814 0.82809 0.0
H1409 H 0.47727 0.37524 0.99489 0.0
H1410 H 0.46404 0.3655 0.70636 0.0
H1411 H 0.49541 0.36646 0.70492 0.0
H1412 H 0.48047 0.33894 0.71824 0.0
H1413 H 0.48996 0.41402 0.98394 0.0
H1414 H 0.50735 0.42036 0.91132 0.0
H1415 H 0.47665 0.42677 0.91103 0.0
H1416 H 0.53463 0.43995 0.72218 0.0
H1417 H 0.46053 0.45265 0.71226 0.0
H1418 H 0.53048 0.37981 0.77051 0.0
H1419 H 0.53557 0.39879 0.84099 0.0
H1420 H 0.55008 0.40455 0.76303 0.0
H1421 H 0.44165 0.39654 0.75713 0.0
H1422 H 0.43287 0.42692 0.75552 0.0
H1423 H 0.44311 0.41398 0.83202 0.0
C1424 C 0.17687 0.47104 0.86391 0.0
C1425 C 0.18654 0.48824 0.90703 0.0
C1426 C 0.15711 0.47568 0.82342 0.0
C1427 C 0.14627 0.49809 0.82607 0.0
C1428 C 0.15667 0.51591 0.86687 0.0
C1429 C 0.17667 0.51083 0.90647 0.0
C1430 C 0.14709 0.45614 0.78034 0.0
C1431 C 0.14589 0.54005 0.87158 0.0
C1432 C 0.09896 0.51311 0.69476 0.0
C1433 C 0.07818 0.50729 0.7282 0.0
C1434 C 0.12121 0.51033 0.72554 0.0
C1435 C 0.12283 0.50194 0.79205 0.0
C1436 C 0.10178 0.49654 0.82619 0.0
C1437 C 0.07992 0.49932 0.79404 0.0
C1438 C 0.14299 0.51601 0.68641 0.0
C1439 C 0.10228 0.48769 0.89699 0.0
H1440 H 0.18437 0.45355 0.8635 0.0
H1441 H 0.18376 0.5242 0.93986 0.0
H1442 H 0.12994 0.45054 0.80078 0.0
H1443 H 0.1439 0.46236 0.72878 0.0
H1444 H 0.15886 0.44061 0.77797 0.0
H1445 H 0.15724 0.55264 0.89958 0.0
H1446 H 0.14252 0.54701 0.82092 0.0
H1447 H 0.12874 0.53895 0.89737 0.0
H1448 H 0.09786 0.5194 0.64397 0.0
H1449 H 0.06408 0.49577 0.82138 0.0
H1450 H 0.15379 0.49995 0.67997 0.0
H1451 H 0.1538 0.52906 0.7143 0.0
H1452 H 0.13883 0.52306 0.6362 0.0
H1453 H 0.11225 0.47099 0.89906 0.0
H1454 H 0.08442 0.4846 0.91703 0.0
H1455 H 0.11142 0.50055 0.93007 0.0
C1456 C 0.98781 0.87881 0.31048 0.0
C1457 C 0.99022 0.85582 0.33467 0.0
C1458 C 0.99267 0.89885 0.35051 0.0
C1459 C 1.00024 0.89644 0.4177 0.0
C1460 C 1.0034 0.87322 0.44203 0.0
C1461 C 0.99843 0.85331 0.40053 0.0
C1462 C 0.98862 0.92267 0.32102 0.0
C1463 C 0.01167 0.86934 0.51249 0.0
C1464 C 0.03367 0.94858 0.49831 0.0
C1465 C 0.01667 0.95985 0.53812 0.0
C1466 C 0.02859 0.92816 0.45991 0.0
C1467 C 1.00579 0.91816 0.46069 0.0
C1468 C 0.98836 0.92963 0.50029 0.0
C1469 C 0.99404 0.95005 0.53894 0.0
C1470 C 0.04777 0.91731 0.418 0.0
C1471 C 0.96373 0.92012 0.50287 0.0
H1472 H 0.9817 0.88123 0.25965 0.0
H1473 H 1.00026 0.8358 0.42041 0.0
H1474 H 0.97189 0.92965 0.34106 0.0
H1475 H 1.0029 0.93503 0.33506 0.0
H1476 H 0.98723 0.92191 0.26564 0.0
H1477 H 0.02884 0.8781 0.52048 0.0
H1478 H 0.99896 0.87735 0.5478 0.0
H1479 H 0.01354 0.85042 0.52419 0.0
H1480 H 0.05129 0.95572 0.49767 0.0
H1481 H 0.98088 0.95803 0.57087 0.0
H1482 H 0.04257 0.91741 0.3645 0.0
H1483 H 0.05042 0.89872 0.43215 0.0
H1484 H 0.06472 0.92678 0.42364 0.0
H1485 H 0.95694 0.91673 0.45162 0.0
H1486 H 0.95158 0.93238 0.52899 0.0
H1487 H 0.96379 0.90315 0.52949 0.0
C1488 C 0.64529 0.96902 0.30558 0.0
C1489 C 0.66705 0.98054 0.31477 0.0
C1490 C 0.62525 0.9749 0.3432 0.0
C1491 C 0.62681 0.99122 0.39703 0.0
C1492 C 0.64899 1.00198 0.40976 0.0
C1493 C 0.66848 0.99691 0.36806 0.0
C1494 C 0.60211 0.96422 0.32275 0.0
C1495 C 0.65273 0.01925 0.46654 0.0
C1496 C 0.57434 0.02653 0.46479 0.0
C1497 C 0.56475 0.01168 0.51296 0.0
C1498 C 0.59381 0.01973 0.42573 0.0
C1499 C 0.60502 0.99782 0.43673 0.0
C1500 C 0.59498 0.98248 0.48476 0.0
C1501 C 0.575 0.98955 0.52178 0.0
C1502 C 0.60233 0.03623 0.37263 0.0
C1503 C 0.60486 0.95843 0.49828 0.0
H1504 H 0.64342 0.95527 0.26833 0.0
H1505 H 0.68475 1.00621 0.37734 0.0
H1506 H 0.58844 0.97805 0.32102 0.0
H1507 H 0.6029 0.95547 0.27286 0.0
H1508 H 0.59681 0.95092 0.35961 0.0
H1509 H 0.66731 0.01306 0.49877 0.0
H1510 H 0.65819 0.03644 0.44616 0.0
H1511 H 0.637 0.02194 0.49795 0.0
H1512 H 0.56652 0.04367 0.45751 0.0
H1513 H 0.56786 0.97796 0.55913 0.0
H1514 H 0.607 0.02642 0.32626 0.0
H1515 H 0.61825 0.04551 0.39091 0.0
H1516 H 0.58893 0.04965 0.3601 0.0
H1517 H 0.59306 0.94498 0.47572 0.0
H1518 H 0.60512 0.9551 0.55283 0.0
H1519 H 0.62275 0.9559 0.47812 0.0
C1520 C 0.54289 0.65533 0.30708 0.0
C1521 C 0.54929 0.67806 0.32831 0.0
C1522 C 0.53646 0.63791 0.3528 0.0
C1523 C 0.53618 0.64318 0.42221 0.0
C1524 C 0.54126 0.66653 0.44383 0.0
C1525 C 0.54788 0.68366 0.39669 0.0
C1526 C 0.53143 0.61339 0.32688 0.0
C1527 C 0.54095 0.67309 0.51709 0.0
C1528 C 0.50593 0.59638 0.52796 0.0
C1529 C 0.52495 0.58248 0.54847 0.0
C1530 C 0.50934 0.61688 0.49012 0.0
C1531 C 0.53232 0.62369 0.47139 0.0
C1532 C 0.55162 0.61031 0.49467 0.0
C1533 C 0.54772 0.5902 0.53346 0.0
C1534 C 0.48824 0.63077 0.46795 0.0
C1535 C 0.57644 0.61658 0.47595 0.0
H1536 H 0.54421 0.6508 0.25442 0.0
H1537 H 0.55321 0.70101 0.41371 0.0
H1538 H 0.54506 0.60115 0.34541 0.0
H1539 H 0.51429 0.60716 0.3458 0.0
H1540 H 0.53114 0.61241 0.2714 0.0
H1541 H 0.54192 0.6924 0.52521 0.0
H1542 H 0.52482 0.66635 0.54106 0.0
H1543 H 0.55614 0.6649 0.54259 0.0
H1544 H 0.48824 0.59089 0.53979 0.0
H1545 H 0.56264 0.58013 0.55056 0.0
H1546 H 0.48579 0.62857 0.4132 0.0
H1547 H 0.49097 0.64976 0.47829 0.0
H1548 H 0.47193 0.62504 0.49321 0.0
H1549 H 0.57853 0.61514 0.42093 0.0
H1550 H 0.58957 0.60496 0.49989 0.0
H1551 H 0.58029 0.63502 0.49069 0.0
C1552 C 0.86321 0.54171 0.32338 0.0
C1553 C 0.8416 0.5503 0.34661 0.0
C1554 C 0.88182 0.53652 0.36745 0.0
C1555 C 0.87898 0.53985 0.43734 0.0
C1556 C 0.85675 0.54736 0.46153 0.0
C1557 C 0.83842 0.55267 0.41595 0.0
C1558 C 0.90506 0.52884 0.33865 0.0
C1559 C 0.85269 0.55099 0.5354 0.0
C1560 C 0.92711 0.5116 0.54503 0.0
C1561 C 0.94263 0.53044 0.55661 0.0
C1562 C 0.90584 0.5146 0.50945 0.0
C1563 C 0.89982 0.53694 0.48373 0.0
C1564 C 0.9149 0.55622 0.49804 0.0
C1565 C 0.9358 0.5528 0.53476 0.0
C1566 C 0.89014 0.49364 0.49752 0.0
C1567 C 0.90956 0.58039 0.47198 0.0
H1568 H 0.86602 0.54037 0.26989 0.0
H1569 H 0.82207 0.55992 0.43439 0.0
H1570 H 0.91853 0.54245 0.34949 0.0
H1571 H 0.911 0.51237 0.36237 0.0
H1572 H 0.90415 0.52591 0.28371 0.0
H1573 H 0.83387 0.55388 0.54701 0.0
H1574 H 0.85905 0.53559 0.56367 0.0
H1575 H 0.86277 0.5665 0.55341 0.0
H1576 H 0.93182 0.49427 0.56233 0.0
H1577 H 0.94709 0.56771 0.54508 0.0
H1578 H 0.89027 0.48875 0.44368 0.0
H1579 H 0.87177 0.49803 0.51095 0.0
H1580 H 0.89579 0.47817 0.52677 0.0
H1581 H 0.91076 0.58016 0.41662 0.0
H1582 H 0.92188 0.5939 0.49198 0.0
H1583 H 0.89142 0.58565 0.48519 0.0
loop_
_geom_bond_atom_site_label_1
_geom_bond_atom_site_label_2
_geom_bond_distance
_geom_bond_site_symmetry_2
_ccdc_geom_bond_type
C0 C1 1.391 . S
C0 C4 1.391 . S
C0 H42 0.948 . S
C1 C0 1.391 . S
C1 C2 1.391 . S
C2 C1 1.391 . S
C2 H58 0.947 . S
C2 C59 1.392 . S
C3 C4 1.391 . S
C3 C7 1.397 . S
C3 C59 1.419 . S
C4 C0 1.391 . S
C4 C3 1.391 . S
C4 C5 1.399 . S
C5 C4 1.399 . S
C5 C8 1.396 . S
C5 C17 1.453 . S
C5 C18 1.684 . S
H6 C30 0.948 . S
C7 C3 1.397 . S
C7 C8 1.394 . S
C7 C26 1.723 . S
C8 C5 1.396 . S
C8 C7 1.394 . S
C8 C38 1.723 . S
H9 C32 0.947 . S
H10 C33 0.948 . S
H11 C39 0.982 . S
H12 C40 0.979 . S
H13 C40 0.980 . S
H14 C40 0.983 . S
H15 C39 0.979 . S
H16 C39 0.977 . S
C17 C5 1.453 . S
C17 H46 0.982 . S
C17 H47 0.979 . S
C17 H48 0.977 . S
C18 C5 1.684 . S
C18 H43 0.979 . S
C18 H44 0.980 . S
C18 H45 0.983 . S
C19 C20 1.402 . S
C19 C24 1.391 . S
C19 H49 0.948 . S
C20 C19 1.402 . S
C20 C21 1.388 1_554 S
C21 C20 1.388 1_556 S
C21 C22 1.392 1_556 S
C21 H50 0.947 . S
C22 C21 1.392 1_554 S
C22 C23 1.419 . S
C22 H51 0.948 . S
C23 C22 1.419 . S
C23 C24 1.391 . S
C23 C27 1.397 . S
C24 C19 1.391 . S
C24 C23 1.391 . S
C24 C25 1.399 . S
C25 C24 1.399 . S
C25 C26 1.396 . S
C25 C28 1.453 . S
C25 C29 1.684 . S
C26 C7 1.723 . S
C26 C25 1.396 . S
C26 C27 1.394 . S
C27 C23 1.397 . S
C27 C26 1.394 . S
C27 C37 1.723 . S
C28 C25 1.453 . S
C28 H52 0.982 . S
C28 H53 0.979 . S
C28 H54 0.977 . S
C29 C25 1.684 . S
C29 H55 0.979 . S
C29 H56 0.980 . S
C29 H57 0.983 . S
C30 H6 0.948 . S
C30 C31 1.391 . S
C30 C35 1.391 . S
C31 C30 1.391 . S
C31 C32 1.391 . S
C32 H9 0.947 . S
C32 C31 1.391 . S
C32 C33 1.392 . S
C33 H10 0.948 . S
C33 C32 1.392 . S
C33 C34 1.419 . S
C34 C33 1.419 . S
C34 C35 1.391 . S
C34 C38 1.397 . S
C35 C30 1.391 . S
C35 C34 1.391 . S
C35 C36 1.399 . S
C36 C35 1.399 . S
C36 C37 1.396 . S
C36 C39 1.453 . S
C36 C40 1.684 . S
C37 C27 1.723 . S
C37 C36 1.396 . S
C37 C38 1.394 . S
C38 C8 1.723 . S
C38 C34 1.397 . S
C38 C37 1.394 . S
C39 H11 0.982 . S
C39 H15 0.979 . S
C39 H16 0.977 . S
C39 C36 1.453 . S
C40 H12 0.979 . S
C40 H13 0.980 . S
C40 H14 0.983 . S
C40 C36 1.684 . S
H41 C59 0.948 . S
H42 C0 0.948 . S
H43 C18 0.979 . S
H44 C18 0.980 . S
H45 C18 0.983 . S
H46 C17 0.982 . S
H47 C17 0.979 . S
H48 C17 0.977 . S
H49 C19 0.948 . S
H50 C21 0.947 . S
H51 C22 0.948 . S
H52 C28 0.982 . S
H53 C28 0.979 . S
H54 C28 0.977 . S
H55 C29 0.979 . S
H56 C29 0.980 . S
H57 C29 0.983 . S
H58 C2 0.947 . S
C59 C2 1.392 . S
C59 C3 1.419 . S
C59 H41 0.948 . S
C60 C61 1.391 . S
C60 C64 1.391 . S
C60 H102 0.948 1_554 S
C61 C60 1.391 . S
C61 C62 1.391 . S
C62 C61 1.391 . S
C62 H118 0.947 . S
C62 C119 1.392 . S
C63 C64 1.391 . S
C63 C67 1.397 . S
C63 C119 1.419 . S
C64 C60 1.391 . S
C64 C63 1.391 . S
C64 C65 1.399 . S
C65 C64 1.399 . S
C65 C68 1.396 . S
C65 C77 1.453 . S
C65 C78 1.684 . S
H66 C90 0.948 . S
C67 C63 1.397 . S
C67 C68 1.394 . S
C67 C86 1.723 . S
C68 C65 1.396 . S
C68 C67 1.394 . S
C68 C98 1.723 . S
H69 C92 0.947 . S
H70 C93 0.948 . S
H71 C99 0.982 . S
H72 C100 0.979 . S
H73 C100 0.980 . S
H74 C100 0.983 . S
H75 C99 0.979 . S
H76 C99 0.977 . S
C77 C65 1.453 . S
C77 H106 0.982 . S
C77 H107 0.979 1_554 S
C77 H108 0.977 . S
C78 C65 1.684 . S
C78 H103 0.979 . S
C78 H104 0.980 . S
C78 H105 0.983 1_554 S
C79 C80 1.391 . S
C79 C84 1.391 . S
C79 H109 0.948 . S
C80 C79 1.391 . S
C80 C81 1.391 . S
C81 C80 1.391 . S
C81 C82 1.392 . S
C81 H110 0.947 . S
C82 C81 1.392 . S
C82 C83 1.419 . S
C82 H111 0.948 . S
C83 C82 1.419 . S
C83 C84 1.391 . S
C83 C87 1.397 . S
C84 C79 1.391 . S
C84 C83 1.391 . S
C84 C85 1.399 . S
C85 C84 1.399 . S
C85 C86 1.396 . S
C85 C88 1.453 . S
C85 C89 1.684 . S
C86 C67 1.723 . S
C86 C85 1.396 . S
C86 C87 1.394 . S
C87 C83 1.397 . S
C87 C86 1.394 . S
C87 C97 1.723 . S
C88 C85 1.453 . S
C88 H112 0.982 . S
C88 H113 0.979 . S
C88 H114 0.977 . S
C89 C85 1.684 . S
C89 H115 0.979 . S
C89 H116 0.980 . S
C89 H117 0.983 . S
C90 H66 0.948 . S
C90 C91 1.391 . S
C90 C95 1.391 . S
C91 C90 1.391 . S
C91 C92 1.391 . S
C92 H69 0.947 . S
C92 C91 1.391 . S
C92 C93 1.392 . S
C93 H70 0.948 . S
C93 C92 1.392 . S
C93 C94 1.419 . S
C94 C93 1.419 . S
C94 C95 1.391 . S
C94 C98 1.397 . S
C95 C90 1.391 . S
C95 C94 1.391 . S
C95 C96 1.399 . S
C96 C95 1.399 . S
C96 C97 1.396 . S
C96 C99 1.453 . S
C96 C100 1.684 . S
C97 C87 1.723 . S
C97 C96 1.396 . S
C97 C98 1.394 . S
C98 C68 1.723 . S
C98 C94 1.397 . S
C98 C97 1.394 . S
C99 H71 0.982 . S
C99 H75 0.979 . S
C99 H76 0.977 . S
C99 C96 1.453 . S
C100 H72 0.979 . S
C100 H73 0.980 . S
C100 H74 0.983 . S
C100 C96 1.684 . S
H101 C119 0.948 . S
H102 C60 0.948 1_556 S
H103 C78 0.979 . S
H104 C78 0.980 . S
H105 C78 0.983 1_556 S
H106 C77 0.982 . S
H107 C77 0.979 1_556 S
H108 C77 0.977 . S
H109 C79 0.948 . S
H110 C81 0.947 . S
H111 C82 0.948 . S
H112 C88 0.982 . S
H113 C88 0.979 . S
H114 C88 0.977 . S
H115 C89 0.979 . S
H116 C89 0.980 . S
H117 C89 0.983 . S
H118 C62 0.947 . S
C119 C62 1.392 . S
C119 C63 1.419 . S
C119 H101 0.948 . S
C120 C121 1.391 . S
C120 C124 1.391 . S
C120 H162 0.948 . S
C121 C120 1.391 . S
C121 C122 1.391 . S
C122 C121 1.391 . S
C122 H178 0.947 . S
C122 C179 1.392 . S
C123 C124 1.391 . S
C123 C127 1.397 . S
C123 C179 1.419 . S
C124 C120 1.391 . S
C124 C123 1.391 . S
C124 C125 1.399 . S
C125 C124 1.399 . S
C125 C128 1.396 . S
C125 C137 1.453 . S
C125 C138 1.684 . S
H126 C150 0.948 . S
C127 C123 1.397 . S
C127 C128 1.394 . S
C127 C146 1.723 . S
C128 C125 1.396 . S
C128 C127 1.394 . S
C128 C158 1.723 . S
H129 C152 0.947 . S
H130 C153 0.948 . S
H131 C159 0.982 . S
H132 C160 0.979 . S
H133 C160 0.980 . S
H134 C160 0.983 . S
H135 C159 0.979 . S
H136 C159 0.977 . S
C137 C125 1.453 . S
C137 H166 0.982 . S
C137 H167 0.979 . S
C137 H168 0.977 . S
C138 C125 1.684 . S
C138 H163 0.979 . S
C138 H164 0.980 . S
C138 H165 0.983 . S
C139 C140 1.391 . S
C139 C144 1.391 . S
C139 H169 0.948 1_554 S
C140 C139 1.391 . S
C140 C141 1.391 . S
C141 C140 1.391 . S
C141 C142 1.392 . S
C141 H170 0.947 . S
C142 C141 1.392 . S
C142 C143 1.419 . S
C142 H171 0.948 . S
C143 C142 1.419 . S
C143 C144 1.391 . S
C143 C147 1.397 . S
C144 C139 1.391 . S
C144 C143 1.391 . S
C144 C145 1.399 . S
C145 C144 1.399 . S
C145 C146 1.396 . S
C145 C148 1.453 . S
C145 C149 1.684 . S
C146 C127 1.723 . S
C146 C145 1.396 . S
C146 C147 1.394 . S
C147 C143 1.397 . S
C147 C146 1.394 . S
C147 C157 1.723 . S
C148 C145 1.453 . S
C148 H172 0.982 . S
C148 H173 0.979 1_554 S
C148 H174 0.977 . S
C149 C145 1.684 . S
C149 H175 0.979 . S
C149 H176 0.980 . S
C149 H177 0.983 1_554 S
C150 H126 0.948 . S
C150 C151 1.391 . S
C150 C155 1.391 . S
C151 C150 1.391 . S
C151 C152 1.391 . S
C152 H129 0.947 . S
C152 C151 1.391 . S
C152 C153 1.392 . S
C153 H130 0.948 . S
C153 C152 1.392 . S
C153 C154 1.419 . S
C154 C153 1.419 . S
C154 C155 1.391 . S
C154 C158 1.397 . S
C155 C150 1.391 . S
C155 C154 1.391 . S
C155 C156 1.399 . S
C156 C155 1.399 . S
C156 C157 1.396 . S
C156 C159 1.453 . S
C156 C160 1.684 . S
C157 C147 1.723 . S
C157 C156 1.396 . S
C157 C158 1.394 . S
C158 C128 1.723 . S
C158 C154 1.397 . S
C158 C157 1.394 . S
C159 H131 0.982 . S
C159 H135 0.979 . S
C159 H136 0.977 . S
C159 C156 1.453 . S
C160 H132 0.979 . S
C160 H133 0.980 . S
C160 H134 0.983 . S
C160 C156 1.684 . S
H161 C179 0.948 . S
H162 C120 0.948 . S
H163 C138 0.979 . S
H164 C138 0.980 . S
H165 C138 0.983 . S
H166 C137 0.982 . S
H167 C137 0.979 . S
H168 C137 0.977 . S
H169 C139 0.948 1_556 S
H170 C141 0.947 . S
H171 C142 0.948 . S
H172 C148 0.982 . S
H173 C148 0.979 1_556 S
H174 C148 0.977 . S
H175 C149 0.979 . S
H176 C149 0.980 . S
H177 C149 0.983 1_556 S
H178 C122 0.947 . S
C179 C122 1.392 . S
C179 C123 1.419 . S
C179 H161 0.948 . S
C180 C181 1.391 . S
C180 C184 1.391 . S
C180 H222 0.948 . S
C181 C180 1.391 . S
C181 C182 1.391 . S
C182 C181 1.391 . S
C182 H238 0.947 . S
C182 C239 1.392 . S
C183 C184 1.391 . S
C183 C187 1.397 . S
C183 C239 1.419 . S
C184 C180 1.391 . S
C184 C183 1.391 . S
C184 C185 1.399 . S
C185 C184 1.399 . S
C185 C188 1.396 . S
C185 C197 1.453 . S
C185 C198 1.684 . S
H186 C210 0.948 . S
C187 C183 1.397 . S
C187 C188 1.394 . S
C187 C206 1.723 . S
C188 C185 1.396 . S
C188 C187 1.394 . S
C188 C218 1.723 . S
H189 C212 0.947 . S
H190 C213 0.948 . S
H191 C219 0.982 . S
H192 C220 0.979 . S
H193 C220 0.980 . S
H194 C220 0.983 . S
H195 C219 0.979 . S
H196 C219 0.977 . S
C197 C185 1.453 . S
C197 H226 0.982 . S
C197 H227 0.979 . S
C197 H228 0.977 . S
C198 C185 1.684 . S
C198 H223 0.979 . S
C198 H224 0.980 . S
C198 H225 0.983 . S
C199 C200 1.391 . S
C199 C204 1.391 . S
C199 H229 0.948 . S
C200 C199 1.391 . S
C200 C201 1.391 1_554 S
C201 C200 1.391 1_556 S
C201 C202 1.392 1_556 S
C201 H230 0.947 . S
C202 C201 1.392 1_554 S
C202 C203 1.419 . S
C202 H231 0.948 . S
C203 C202 1.419 . S
C203 C204 1.391 . S
C203 C207 1.397 . S
C204 C199 1.391 . S
C204 C203 1.391 . S
C204 C205 1.399 . S
C205 C204 1.399 . S
C205 C206 1.396 . S
C205 C208 1.453 . S
C205 C209 1.684 . S
C206 C187 1.723 . S
C206 C205 1.396 . S
C206 C207 1.394 . S
C207 C203 1.397 . S
C207 C206 1.394 . S
C207 C217 1.723 . S
C208 C205 1.453 . S
C208 H232 0.982 . S
C208 H233 0.979 . S
C208 H234 0.977 . S
C209 C205 1.684 . S
C209 H235 0.979 . S
C209 H236 0.980 . S
C209 H237 0.983 . S
C210 H186 0.948 . S
C210 C211 1.391 . S
C210 C215 1.391 . S
C211 C210 1.391 . S
C211 C212 1.391 . S
C212 H189 0.947 . S
C212 C211 1.391 . S
C212 C213 1.392 . S
C213 H190 0.948 . S
C213 C212 1.392 . S
C213 C214 1.419 . S
C214 C213 1.419 . S
C214 C215 1.391 . S
C214 C218 1.397 . S
C215 C210 1.391 . S
C215 C214 1.391 . S
C215 C216 1.399 . S
C216 C215 1.399 . S
C216 C217 1.396 . S
C216 C219 1.453 . S
C216 C220 1.684 . S
C217 C207 1.723 . S
C217 C216 1.396 . S
C217 C218 1.394 . S
C218 C188 1.723 . S
C218 C214 1.397 . S
C218 C217 1.394 . S
C219 H191 0.982 . S
C219 H195 0.979 . S
C219 H196 0.977 . S
C219 C216 1.453 . S
C220 H192 0.979 . S
C220 H193 0.980 . S
C220 H194 0.983 . S
C220 C216 1.684 . S
H221 C239 0.948 . S
H222 C180 0.948 . S
H223 C198 0.979 . S
H224 C198 0.980 . S
H225 C198 0.983 . S
H226 C197 0.982 . S
H227 C197 0.979 . S
H228 C197 0.977 . S
H229 C199 0.948 . S
H230 C201 0.947 . S
H231 C202 0.948 . S
H232 C208 0.982 . S
H233 C208 0.979 . S
H234 C208 0.977 . S
H235 C209 0.979 . S
H236 C209 0.980 . S
H237 C209 0.983 . S
H238 C182 0.947 . S
C239 C182 1.392 . S
C239 C183 1.419 . S
C239 H221 0.948 . S
C240 C241 1.391 . S
C240 C244 1.391 . S
C240 H282 0.948 1_554 S
C241 C240 1.391 . S
C241 C242 1.391 . S
C242 C241 1.391 . S
C242 H298 0.947 . S
C242 C299 1.392 . S
C243 C244 1.391 . S
C243 C247 1.397 . S
C243 C299 1.419 . S
C244 C240 1.391 . S
C244 C243 1.391 . S
C244 C245 1.399 1_554 S
C245 C244 1.399 1_556 S
C245 C248 1.396 . S
C245 C257 1.453 . S
C245 C258 1.684 . S
H246 C270 0.948 . S
C247 C243 1.397 . S
C247 C248 1.394 1_554 S
C247 C266 1.723 . S
C248 C245 1.396 . S
C248 C247 1.394 1_556 S
C248 C278 1.723 . S
H249 C272 0.947 . S
H250 C273 0.948 . S
H251 C279 0.982 . S
H252 C280 0.979 . S
H253 C280 0.980 . S
H254 C280 0.983 . S
H255 C279 0.979 . S
H256 C279 0.977 . S
C257 C245 1.453 . S
C257 H286 0.982 . S
C257 H287 0.979 . S
C257 H288 0.977 . S
C258 C245 1.684 . S
C258 H283 0.979 . S
C258 H284 0.980 . S
C258 H285 0.983 . S
C259 C260 1.391 . S
C259 C264 1.391 . S
C259 H289 0.948 . S
C260 C259 1.391 . S
C260 C261 1.391 . S
C261 C260 1.391 . S
C261 C262 1.392 . S
C261 H290 0.947 . S
C262 C261 1.392 . S
C262 C263 1.419 . S
C262 H291 0.948 . S
C263 C262 1.419 . S
C263 C264 1.391 . S
C263 C267 1.397 . S
C264 C259 1.391 . S
C264 C263 1.391 . S
C264 C265 1.399 . S
C265 C264 1.399 . S
C265 C266 1.396 . S
C265 C268 1.453 . S
C265 C269 1.684 . S
C266 C247 1.723 . S
C266 C265 1.396 . S
C266 C267 1.394 . S
C267 C263 1.397 . S
C267 C266 1.394 . S
C267 C277 1.723 1_554 S
C268 C265 1.453 . S
C268 H292 0.982 . S
C268 H293 0.979 . S
C268 H294 0.977 . S
C269 C265 1.684 . S
C269 H295 0.979 . S
C269 H296 0.980 . S
C269 H297 0.983 . S
C270 H246 0.948 . S
C270 C271 1.391 . S
C270 C275 1.391 . S
C271 C270 1.391 . S
C271 C272 1.391 . S
C272 H249 0.947 . S
C272 C271 1.391 . S
C272 C273 1.392 . S
C273 H250 0.948 . S
C273 C272 1.392 . S
C273 C274 1.419 . S
C274 C273 1.419 . S
C274 C275 1.391 . S
C274 C278 1.397 . S
C275 C270 1.391 . S
C275 C274 1.391 . S
C275 C276 1.399 . S
C276 C275 1.399 . S
C276 C277 1.396 . S
C276 C279 1.453 . S
C276 C280 1.684 . S
C277 C267 1.723 1_556 S
C277 C276 1.396 . S
C277 C278 1.394 . S
C278 C248 1.723 . S
C278 C274 1.397 . S
C278 C277 1.394 . S
C279 H251 0.982 . S
C279 H255 0.979 . S
C279 H256 0.977 . S
C279 C276 1.453 . S
C280 H252 0.979 . S
C280 H253 0.980 . S
C280 H254 0.983 . S
C280 C276 1.684 . S
H281 C299 0.948 . S
H282 C240 0.948 1_556 S
H283 C258 0.979 . S
H284 C258 0.980 . S
H285 C258 0.983 . S
H286 C257 0.982 . S
H287 C257 0.979 . S
H288 C257 0.977 . S
H289 C259 0.948 . S
H290 C261 0.947 . S
H291 C262 0.948 . S
H292 C268 0.982 . S
H293 C268 0.979 . S
H294 C268 0.977 . S
H295 C269 0.979 . S
H296 C269 0.980 . S
H297 C269 0.983 . S
H298 C242 0.947 . S
C299 C242 1.392 . S
C299 C243 1.419 . S
C299 H281 0.948 . S
C300 C301 1.391 . S
C300 C304 1.391 . S
C300 H342 0.948 . S
C301 C300 1.391 . S
C301 C302 1.391 . S
C302 C301 1.391 . S
C302 H358 0.947 . S
C302 C359 1.392 . S
C303 C304 1.391 . S
C303 C307 1.397 . S
C303 C359 1.419 . S
C304 C300 1.391 . S
C304 C303 1.391 . S
C304 C305 1.399 . S
C305 C304 1.399 . S
C305 C308 1.396 . S
C305 C317 1.453 . S
C305 C318 1.684 . S
H306 C330 0.948 1_556 S
C307 C303 1.397 . S
C307 C308 1.394 . S
C307 C326 1.723 1_554 S
C308 C305 1.396 . S
C308 C307 1.394 . S
C308 C338 1.723 . S
H309 C332 0.947 . S
H310 C333 0.948 . S
H311 C339 0.982 . S
H312 C340 0.979 . S
H313 C340 0.980 . S
H314 C340 0.983 . S
H315 C339 0.979 . S
H316 C339 0.977 . S
C317 C305 1.453 . S
C317 H346 0.982 . S
C317 H347 0.979 . S
C317 H348 0.977 . S
C318 C305 1.684 . S
C318 H343 0.979 . S
C318 H344 0.980 . S
C318 H345 0.983 . S
C319 C320 1.391 . S
C319 C324 1.391 . S
C319 H349 0.948 . S
C320 C319 1.391 . S
C320 C321 1.391 . S
C321 C320 1.391 . S
C321 C322 1.392 . S
C321 H350 0.947 . S
C322 C321 1.392 . S
C322 C323 1.419 . S
C322 H351 0.948 . S
C323 C322 1.419 . S
C323 C324 1.391 . S
C323 C327 1.397 . S
C324 C319 1.391 . S
C324 C323 1.391 . S
C324 C325 1.399 . S
C325 C324 1.399 . S
C325 C326 1.396 . S
C325 C328 1.453 . S
C325 C329 1.684 . S
C326 C307 1.723 1_556 S
C326 C325 1.396 . S
C326 C327 1.394 . S
C327 C323 1.397 . S
C327 C326 1.394 . S
C327 C337 1.723 . S
C328 C325 1.453 . S
C328 H352 0.982 . S
C328 H353 0.979 . S
C328 H354 0.977 . S
C329 C325 1.684 . S
C329 H355 0.979 . S
C329 H356 0.980 . S
C329 H357 0.983 . S
C330 H306 0.948 1_554 S
C330 C331 1.391 . S
C330 C335 1.391 . S
C331 C330 1.391 . S
C331 C332 1.391 . S
C332 H309 0.947 . S
C332 C331 1.391 . S
C332 C333 1.392 . S
C333 H310 0.948 . S
C333 C332 1.392 . S
C333 C334 1.419 . S
C334 C333 1.419 . S
C334 C335 1.391 . S
C334 C338 1.397 . S
C335 C330 1.391 . S
C335 C334 1.391 . S
C335 C336 1.399 1_554 S
C336 C335 1.399 1_556 S
C336 C337 1.396 . S
C336 C339 1.453 . S
C336 C340 1.684 . S
C337 C327 1.723 . S
C337 C336 1.396 . S
C337 C338 1.394 1_556 S
C338 C308 1.723 . S
C338 C334 1.397 . S
C338 C337 1.394 1_554 S
C339 H311 0.982 . S
C339 H315 0.979 . S
C339 H316 0.977 . S
C339 C336 1.453 . S
C340 H312 0.979 . S
C340 H313 0.980 . S
C340 H314 0.983 . S
C340 C336 1.684 . S
H341 C359 0.948 . S
H342 C300 0.948 . S
H343 C318 0.979 . S
H344 C318 0.980 . S
H345 C318 0.983 . S
H346 C317 0.982 . S
H347 C317 0.979 . S
H348 C317 0.977 . S
H349 C319 0.948 . S
H350 C321 0.947 . S
H351 C322 0.948 . S
H352 C328 0.982 . S
H353 C328 0.979 . S
H354 C328 0.977 . S
H355 C329 0.979 . S
H356 C329 0.980 . S
H357 C329 0.983 . S
H358 C302 0.947 . S
C359 C302 1.392 . S
C359 C303 1.419 . S
C359 H341 0.948 . S
C360 C361 1.391 . S
C360 C364 1.391 . S
C360 H402 0.948 . S
C361 C360 1.391 . S
C361 C362 1.391 . S
C362 C361 1.391 . S
C362 H418 0.947 . S
C362 C419 1.392 . S
C363 C364 1.391 . S
C363 C367 1.397 . S
C363 C419 1.419 . S
C364 C360 1.391 . S
C364 C363 1.391 . S
C364 C365 1.399 . S
C365 C364 1.399 . S
C365 C368 1.396 . S
C365 C377 1.453 . S
C365 C378 1.684 . S
H366 C390 0.948 . S
C367 C363 1.397 . S
C367 C368 1.394 . S
C367 C386 1.723 1_556 S
C368 C365 1.396 . S
C368 C367 1.394 . S
C368 C398 1.723 1_556 S
H369 C392 0.939 1_556 S
H370 C393 0.948 . S
H371 C399 0.982 . S
H372 C400 0.979 . S
H373 C400 0.980 . S
H374 C400 0.983 . S
H375 C399 0.979 . S
H376 C399 0.977 . S
C377 C365 1.453 . S
C377 H406 0.982 . S
C377 H407 0.979 . S
C377 H408 0.977 . S
C378 C365 1.684 . S
C378 H403 0.979 . S
C378 H404 0.980 . S
C378 H405 0.983 . S
C379 C380 1.391 . S
C379 C384 1.391 . S
C379 H409 0.948 . S
C380 C379 1.391 . S
C380 C381 1.391 . S
C381 C380 1.391 . S
C381 C382 1.392 . S
C381 H410 0.947 . S
C382 C381 1.392 . S
C382 C383 1.419 . S
C382 H411 0.948 . S
C383 C382 1.419 . S
C383 C384 1.391 . S
C383 C387 1.397 . S
C384 C379 1.391 . S
C384 C383 1.391 . S
C384 C385 1.399 . S
C385 C384 1.399 . S
C385 C386 1.396 . S
C385 C388 1.453 . S
C385 C389 1.684 . S
C386 C367 1.723 1_554 S
C386 C385 1.396 . S
C386 C387 1.394 . S
C387 C383 1.397 . S
C387 C386 1.394 . S
C387 C397 1.723 . S
C388 C385 1.453 . S
C388 H412 0.982 . S
C388 H413 0.979 . S
C388 H414 0.977 1_554 S
C389 C385 1.684 . S
C389 H415 0.979 . S
C389 H416 0.980 1_554 S
C389 H417 0.983 . S
C390 H366 0.948 . S
C390 C391 1.391 . S
C390 C395 1.391 . S
C391 C390 1.391 . S
C391 C392 1.402 . S
C392 H369 0.939 1_554 S
C392 C391 1.402 . S
C392 C393 1.388 1_554 S
C393 H370 0.948 . S
C393 C392 1.388 1_556 S
C393 C394 1.419 1_556 S
C394 C393 1.419 1_554 S
C394 C395 1.391 . S
C394 C398 1.397 . S
C395 C390 1.391 . S
C395 C394 1.391 . S
C395 C396 1.399 . S
C396 C395 1.399 . S
C396 C397 1.396 . S
C396 C399 1.453 . S
C396 C400 1.684 . S
C397 C387 1.723 . S
C397 C396 1.396 . S
C397 C398 1.394 . S
C398 C368 1.723 1_554 S
C398 C394 1.397 . S
C398 C397 1.394 . S
C399 H371 0.982 . S
C399 H375 0.979 . S
C399 H376 0.977 . S
C399 C396 1.453 . S
C400 H372 0.979 . S
C400 H373 0.980 . S
C400 H374 0.983 . S
C400 C396 1.684 . S
H401 C419 0.948 . S
H402 C360 0.948 . S
H403 C378 0.979 . S
H404 C378 0.980 . S
H405 C378 0.983 . S
H406 C377 0.982 . S
H407 C377 0.979 . S
H408 C377 0.977 . S
H409 C379 0.948 . S
H410 C381 0.947 . S
H411 C382 0.948 . S
H412 C388 0.982 . S
H413 C388 0.979 . S
H414 C388 0.977 1_556 S
H415 C389 0.979 . S
H416 C389 0.980 1_556 S
H417 C389 0.983 . S
H418 C362 0.947 . S
C419 C362 1.392 . S
C419 C363 1.419 . S
C419 H401 0.948 . S
C420 C421 1.391 . S
C420 C424 1.391 . S
C420 H462 0.948 . S
C421 C420 1.391 . S
C421 C422 1.391 . S
C422 C421 1.391 . S
C422 H478 0.947 . S
C422 C479 1.392 . S
C423 C424 1.391 . S
C423 C427 1.397 . S
C423 C479 1.419 . S
C424 C420 1.391 . S
C424 C423 1.391 . S
C424 C425 1.399 . S
C425 C424 1.399 . S
C425 C428 1.396 . S
C425 C437 1.453 . S
C425 C438 1.684 . S
H426 C450 0.948 . S
C427 C423 1.397 . S
C427 C428 1.394 . S
C427 C446 1.723 1_556 S
C428 C425 1.396 . S
C428 C427 1.394 . S
C428 C458 1.723 1_556 S
H429 C452 0.947 1_556 S
H430 C453 0.948 . S
H431 C459 0.982 . S
H432 C460 0.979 . S
H433 C460 0.980 . S
H434 C460 0.983 . S
H435 C459 0.979 . S
H436 C459 0.977 . S
C437 C425 1.453 . S
C437 H466 0.982 . S
C437 H467 0.979 . S
C437 H468 0.977 . S
C438 C425 1.684 . S
C438 H463 0.979 . S
C438 H464 0.980 . S
C438 H465 0.983 . S
C439 C440 1.391 . S
C439 C444 1.391 . S
C439 H469 0.948 . S
C440 C439 1.391 . S
C440 C441 1.391 . S
C441 C440 1.391 . S
C441 C442 1.392 . S
C441 H470 0.947 . S
C442 C441 1.392 . S
C442 C443 1.419 . S
C442 H471 0.948 . S
C443 C442 1.419 . S
C443 C444 1.391 . S
C443 C447 1.397 . S
C444 C439 1.391 . S
C444 C443 1.391 . S
C444 C445 1.399 . S
C445 C444 1.399 . S
C445 C446 1.396 . S
C445 C448 1.453 . S
C445 C449 1.684 . S
C446 C427 1.723 1_554 S
C446 C445 1.396 . S
C446 C447 1.394 . S
C447 C443 1.397 . S
C447 C446 1.394 . S
C447 C457 1.723 . S
C448 C445 1.453 . S
C448 H472 0.982 . S
C448 H473 0.979 . S
C448 H474 0.977 1_554 S
C449 C445 1.684 . S
C449 H475 0.979 . S
C449 H476 0.980 1_554 S
C449 H477 0.983 . S
C450 H426 0.948 . S
C450 C451 1.391 . S
C450 C455 1.391 . S
C451 C450 1.391 . S
C451 C452 1.391 . S
C452 H429 0.947 1_554 S
C452 C451 1.391 . S
C452 C453 1.392 1_554 S
C453 H430 0.948 . S
C453 C452 1.392 1_556 S
C453 C454 1.419 1_556 S
C454 C453 1.419 1_554 S
C454 C455 1.391 . S
C454 C458 1.397 . S
C455 C450 1.391 . S
C455 C454 1.391 . S
C455 C456 1.399 . S
C456 C455 1.399 . S
C456 C457 1.396 . S
C456 C459 1.453 . S
C456 C460 1.684 . S
C457 C447 1.723 . S
C457 C456 1.396 . S
C457 C458 1.394 . S
C458 C428 1.723 1_554 S
C458 C454 1.397 . S
C458 C457 1.394 . S
C459 H431 0.982 . S
C459 H435 0.979 . S
C459 H436 0.977 . S
C459 C456 1.453 . S
C460 H432 0.979 . S
C460 H433 0.980 . S
C460 H434 0.983 . S
C460 C456 1.684 . S
H461 C479 0.948 . S
H462 C420 0.948 . S
H463 C438 0.979 . S
H464 C438 0.980 . S
H465 C438 0.983 . S
H466 C437 0.982 . S
H467 C437 0.979 . S
H468 C437 0.977 . S
H469 C439 0.948 . S
H470 C441 0.947 . S
H471 C442 0.948 . S
H472 C448 0.982 . S
H473 C448 0.979 . S
H474 C448 0.977 1_556 S
H475 C449 0.979 . S
H476 C449 0.980 1_556 S
H477 C449 0.983 . S
H478 C422 0.947 . S
C479 C422 1.392 . S
C479 C423 1.419 . S
C479 H461 0.948 . S
Eu480 N511 2.657 1_565 S
Eu480 N518 2.609 . S
Eu480 O524 2.558 . S
Eu480 O525 2.612 1_455 S
Eu480 O527 2.339 1_455 S
Eu480 O528 2.563 . S
Eu480 O529 2.419 . S
Eu480 O531 2.380 1_565 S
Eu480 O532 2.432 . S
Eu480 C544 2.848 . S
C481 C484 1.429 1_545 S
C481 C485 1.411 . S
C481 N488 1.377 . S
C482 C484 1.420 . S
C482 C486 1.423 . S
C482 C494 1.392 . S
C483 C485 1.420 1_565 S
C483 C486 1.351 . S
C483 H506 0.931 . S
C484 C481 1.429 1_565 S
C484 C482 1.420 . S
C484 N492 1.364 . S
C485 C481 1.411 . S
C485 C483 1.420 1_545 S
C485 C490 1.395 . S
C486 C482 1.423 . S
C486 C483 1.351 . S
C486 H498 0.930 . S
C487 C489 1.400 . S
C487 C490 1.386 . S
C487 H499 0.930 . S
N488 C481 1.377 . S
N488 C489 1.321 . S
N488 Eu491 2.609 . S
C489 C487 1.400 . S
C489 N488 1.321 . S
C489 H496 0.930 . S
C490 C485 1.395 . S
C490 C487 1.386 . S
C490 H509 0.930 . S
Eu491 N488 2.609 . S
Eu491 N492 2.651 1_545 S
Eu491 O525 2.380 1_545 S
Eu491 O526 2.432 . S
Eu491 O530 2.558 . S
Eu491 O531 2.612 1_655 S
Eu491 O533 2.339 1_655 S
Eu491 O534 2.563 1_655 S
Eu491 O535 2.419 . S
Eu491 C555 2.848 . S
N492 C484 1.364 . S
N492 Eu491 2.651 1_565 S
N492 C493 1.338 1_655 S
C493 N492 1.338 1_455 S
C493 C495 1.412 1_455 S
C493 H500 0.929 . S
C494 C482 1.392 . S
C494 C495 1.383 . S
C494 H502 0.930 . S
C495 C493 1.412 1_655 S
C495 C494 1.383 . S
C495 H497 0.916 1_655 S
H496 C489 0.930 . S
H497 C495 0.916 1_455 S
H498 C486 0.930 . S
H499 C487 0.930 . S
H500 C493 0.929 . S
H501 C515 0.930 1_655 S
H502 C494 0.930 . S
H503 C521 0.930 . S
H504 C512 0.929 1_655 S
H505 C519 0.930 . S
H506 C483 0.931 . S
H507 C513 0.930 . S
H508 C546 0.930 . S
H509 C490 0.930 . S
H510 C545 0.931 . S
N511 Eu480 2.657 1_545 S
N511 C512 1.334 . S
N511 C516 1.362 . S
C512 H504 0.929 1_455 S
C512 N511 1.334 . S
C512 C515 1.413 . S
C513 H507 0.930 . S
C513 C514 1.392 . S
C513 C515 1.367 . S
C514 C513 1.392 . S
C514 C516 1.420 . S
C514 C546 1.423 . S
C515 H501 0.930 1_455 S
C515 C512 1.413 . S
C515 C513 1.367 . S
C516 N511 1.362 . S
C516 C514 1.420 . S
C516 C520 1.429 . S
H517 C522 0.928 . S
N518 Eu480 2.609 . S
N518 C520 1.377 1_565 S
N518 C521 1.321 . S
C519 H505 0.930 . S
C519 C521 1.400 . S
C519 C522 1.410 . S
C520 C516 1.429 . S
C520 N518 1.377 1_545 S
C520 C523 1.411 . S
C521 H503 0.930 . S
C521 N518 1.321 . S
C521 C519 1.400 . S
C522 H517 0.928 . S
C522 C519 1.410 . S
C522 C523 1.374 1_565 S
C523 C520 1.411 . S
C523 C522 1.374 1_545 S
C523 C545 1.420 . S
O524 Eu480 2.558 . S
O524 C544 1.257 . S
O525 Eu480 2.612 1_655 S
O525 Eu491 2.380 1_565 S
O525 C536 1.276 . S
O526 Eu491 2.432 . S
O526 C543 1.264 . S
O527 Eu480 2.339 1_655 S
O527 C543 1.254 1_565 S
O528 Eu480 2.563 . S
O528 C536 1.235 1_455 S
O529 Eu480 2.419 . S
O529 C544 1.249 . S
O530 Eu491 2.558 . S
O530 C555 1.257 . S
O531 Eu480 2.380 1_545 S
O531 Eu491 2.612 1_455 S
O531 C547 1.276 . S
O532 Eu480 2.432 . S
O532 C554 1.264 1_565 S
O533 Eu491 2.339 1_455 S
O533 C554 1.254 . S
O534 Eu491 2.563 1_455 S
O534 C547 1.235 . S
O535 Eu491 2.419 . S
O535 C555 1.249 . S
C536 O525 1.276 . S
C536 O528 1.235 1_655 S
C537 C539 1.393 . S
C537 C541 1.395 . S
C537 C544 1.492 . S
C538 C539 1.392 . S
C538 C540 1.386 . S
C539 C537 1.393 . S
C539 C538 1.392 . S
C539 H556 0.934 1_455 S
C540 C538 1.386 . S
C540 C542 1.395 . S
C540 H557 0.930 . S
C541 C537 1.395 . S
C541 C542 1.379 . S
C541 H558 0.930 . S
C542 C540 1.395 . S
C542 C541 1.379 . S
C542 H559 0.930 . S
C543 O526 1.264 . S
C543 O527 1.254 1_545 S
C544 Eu480 2.848 . S
C544 O524 1.257 . S
C544 O529 1.249 . S
C544 C537 1.492 . S
C545 H510 0.931 . S
C545 C523 1.420 . S
C545 C546 1.351 . S
C546 H508 0.930 . S
C546 C514 1.423 . S
C546 C545 1.351 . S
C547 O531 1.276 . S
C547 O534 1.235 . S
C548 C549 1.393 . S
C548 C552 1.395 . S
C548 C555 1.492 . S
C549 C548 1.393 . S
C549 C550 1.392 . S
C549 H560 0.930 1_655 S
C550 C549 1.392 . S
C550 C551 1.386 . S
C551 C550 1.386 . S
C551 C553 1.395 . S
C551 H561 0.930 . S
C552 C548 1.395 . S
C552 C553 1.379 . S
C552 H562 0.930 . S
C553 C551 1.395 . S
C553 C552 1.379 . S
C553 H563 0.930 . S
C554 O532 1.264 1_545 S
C554 O533 1.254 . S
C555 Eu491 2.848 . S
C555 O530 1.257 . S
C555 O535 1.249 . S
C555 C548 1.492 . S
H556 C539 0.934 1_655 S
H557 C540 0.930 . S
H558 C541 0.930 . S
H559 C542 0.930 . S
H560 C549 0.930 1_455 S
H561 C551 0.930 . S
H562 C552 0.930 . S
H563 C553 0.930 . S
Eu564 N595 2.657 . S
Eu564 N602 2.609 . S
Eu564 O608 2.558 . S
Eu564 O609 2.612 1_545 S
Eu564 O611 2.339 1_545 S
Eu564 O612 2.563 . S
Eu564 O613 2.419 . S
Eu564 O615 2.380 . S
Eu564 O616 2.432 . S
Eu564 C628 2.848 . S
C565 C568 1.429 . S
C565 C569 1.411 . S
C565 N572 1.377 . S
C566 C568 1.420 . S
C566 C570 1.423 . S
C566 C578 1.392 . S
C567 C569 1.420 . S
C567 C570 1.351 . S
C567 H590 0.931 . S
C568 C565 1.429 . S
C568 C566 1.420 . S
C568 N576 1.362 . S
C569 C565 1.411 . S
C569 C567 1.420 . S
C569 C574 1.395 . S
C570 C566 1.423 . S
C570 C567 1.351 . S
C570 H582 0.930 . S
C571 C573 1.400 . S
C571 C574 1.386 . S
C571 H583 0.930 . S
N572 C565 1.377 . S
N572 C573 1.321 . S
N572 Eu575 2.609 . S
C573 C571 1.400 . S
C573 N572 1.321 . S
C573 H580 0.930 . S
C574 C569 1.395 . S
C574 C571 1.386 . S
C574 H593 0.930 . S
Eu575 N572 2.609 . S
Eu575 N576 2.657 . S
Eu575 O609 2.380 . S
Eu575 O610 2.432 . S
Eu575 O614 2.558 . S
Eu575 O615 2.612 1_565 S
Eu575 O617 2.339 1_565 S
Eu575 O618 2.563 1_565 S
Eu575 O619 2.419 . S
Eu575 C639 2.848 . S
N576 C568 1.362 . S
N576 Eu575 2.657 . S
N576 C577 1.334 1_565 S
C577 N576 1.334 1_545 S
C577 C579 1.413 . S
C577 H584 0.929 . S
C578 C566 1.392 . S
C578 C579 1.367 1_565 S
C578 H586 0.930 . S
C579 C577 1.413 . S
C579 C578 1.367 1_545 S
C579 H581 0.930 . S
H580 C573 0.930 . S
H581 C579 0.930 . S
H582 C570 0.930 . S
H583 C571 0.930 . S
H584 C577 0.929 . S
H585 C599 0.930 1_565 S
H586 C578 0.930 . S
H587 C605 0.930 . S
H588 C596 0.929 1_565 S
H589 C603 0.930 . S
H590 C567 0.931 . S
H591 C597 0.930 . S
H592 C630 0.930 . S
H593 C574 0.930 . S
H594 C629 0.931 . S
N595 Eu564 2.657 . S
N595 C596 1.334 . S
N595 C600 1.362 . S
C596 H588 0.929 1_545 S
C596 N595 1.334 . S
C596 C599 1.413 . S
C597 H591 0.930 . S
C597 C598 1.392 . S
C597 C599 1.367 . S
C598 C597 1.392 . S
C598 C600 1.420 . S
C598 C630 1.423 . S
C599 H585 0.930 1_545 S
C599 C596 1.413 . S
C599 C597 1.367 . S
C600 N595 1.362 . S
C600 C598 1.420 . S
C600 C604 1.429 . S
H601 C606 0.930 . S
N602 Eu564 2.609 . S
N602 C604 1.377 . S
N602 C605 1.321 . S
C603 H589 0.930 . S
C603 C605 1.400 . S
C603 C606 1.386 . S
C604 C600 1.429 . S
C604 N602 1.377 . S
C604 C607 1.411 . S
C605 H587 0.930 . S
C605 N602 1.321 . S
C605 C603 1.400 . S
C606 H601 0.930 . S
C606 C603 1.386 . S
C606 C607 1.395 . S
C607 C604 1.411 . S
C607 C606 1.395 . S
C607 C629 1.420 . S
O608 Eu564 2.558 . S
O608 C628 1.257 . S
O609 Eu564 2.612 1_565 S
O609 Eu575 2.380 . S
O609 C620 1.276 . S
O610 Eu575 2.432 . S
O610 C627 1.264 . S
O611 Eu564 2.339 1_565 S
O611 C627 1.254 . S
O612 Eu564 2.563 . S
O612 C620 1.235 1_545 S
O613 Eu564 2.419 . S
O613 C628 1.249 . S
O614 Eu575 2.558 . S
O614 C639 1.257 . S
O615 Eu564 2.380 . S
O615 Eu575 2.612 1_545 S
O615 C631 1.276 . S
O616 Eu564 2.432 . S
O616 C638 1.264 . S
O617 Eu575 2.339 1_545 S
O617 C638 1.254 . S
O618 Eu575 2.563 1_545 S
O618 C631 1.235 . S
O619 Eu575 2.419 . S
O619 C639 1.249 . S
C620 O609 1.276 . S
C620 O612 1.235 1_565 S
C621 C623 1.393 . S
C621 C625 1.395 . S
C621 C628 1.492 . S
C622 C623 1.392 . S
C622 C624 1.386 . S
C623 C621 1.393 . S
C623 C622 1.392 . S
C623 H640 0.930 . S
C624 C622 1.386 . S
C624 C626 1.395 . S
C624 H641 0.930 . S
C625 C621 1.395 . S
C625 C626 1.379 . S
C625 H642 0.930 . S
C626 C624 1.395 . S
C626 C625 1.379 . S
C626 H643 0.930 . S
C627 O610 1.264 . S
C627 O611 1.254 . S
C628 Eu564 2.848 . S
C628 O608 1.257 . S
C628 O613 1.249 . S
C628 C621 1.492 . S
C629 H594 0.931 . S
C629 C607 1.420 . S
C629 C630 1.351 . S
C630 H592 0.930 . S
C630 C598 1.423 . S
C630 C629 1.351 . S
C631 O615 1.276 . S
C631 O618 1.235 . S
C632 C633 1.393 . S
C632 C636 1.395 . S
C632 C639 1.492 . S
C633 C632 1.393 . S
C633 C634 1.392 . S
C633 H644 0.930 1_565 S
C634 C633 1.392 . S
C634 C635 1.386 . S
C635 C634 1.386 . S
C635 C637 1.395 . S
C635 H645 0.930 . S
C636 C632 1.395 . S
C636 C637 1.379 . S
C636 H646 0.930 . S
C637 C635 1.395 . S
C637 C636 1.379 . S
C637 H647 0.930 . S
C638 O616 1.264 . S
C638 O617 1.254 . S
C639 Eu575 2.848 . S
C639 O614 1.257 . S
C639 O619 1.249 . S
C639 C632 1.492 . S
H640 C623 0.930 . S
H641 C624 0.930 . S
H642 C625 0.930 . S
H643 C626 0.930 . S
H644 C633 0.930 1_545 S
H645 C635 0.930 . S
H646 C636 0.930 . S
H647 C637 0.930 . S
Eu648 N679 2.657 . S
Eu648 N686 2.609 . S
Eu648 O692 2.558 . S
Eu648 O693 2.612 . S
Eu648 O695 2.339 . S
Eu648 O696 2.563 . S
Eu648 O697 2.419 . S
Eu648 O699 2.380 . S
Eu648 O700 2.432 . S
Eu648 C712 2.848 . S
C649 C652 1.429 . S
C649 C653 1.411 . S
C649 N656 1.377 . S
C650 C652 1.420 . S
C650 C654 1.423 . S
C650 C662 1.392 . S
C651 C653 1.420 . S
C651 C654 1.351 . S
C651 H674 0.931 . S
C652 C649 1.429 . S
C652 C650 1.420 . S
C652 N660 1.362 . S
C653 C649 1.411 . S
C653 C651 1.420 . S
C653 C658 1.395 . S
C654 C650 1.423 . S
C654 C651 1.351 . S
C654 H666 0.930 . S
C655 C657 1.400 . S
C655 C658 1.386 . S
C655 H667 0.930 . S
N656 C649 1.377 . S
N656 C657 1.321 . S
N656 Eu659 2.609 . S
C657 C655 1.400 . S
C657 N656 1.321 . S
C657 H664 0.930 . S
C658 C653 1.395 . S
C658 C655 1.386 . S
C658 H677 0.930 . S
Eu659 N656 2.609 . S
Eu659 N660 2.657 . S
Eu659 O693 2.380 . S
Eu659 O694 2.432 . S
Eu659 O698 2.558 . S
Eu659 O699 2.612 . S
Eu659 O701 2.339 . S
Eu659 O702 2.563 . S
Eu659 O703 2.419 . S
Eu659 C723 2.848 . S
N660 C652 1.362 . S
N660 Eu659 2.657 . S
N660 C661 1.334 . S
C661 N660 1.334 . S
C661 C663 1.413 . S
C661 H668 0.929 . S
C662 C650 1.392 . S
C662 C663 1.367 . S
C662 H670 0.930 . S
C663 C661 1.413 . S
C663 C662 1.367 . S
C663 H665 0.930 . S
H664 C657 0.930 . S
H665 C663 0.930 . S
H666 C654 0.930 . S
H667 C655 0.930 . S
H668 C661 0.929 . S
H669 C683 0.930 . S
H670 C662 0.930 . S
H671 C689 0.930 . S
H672 C680 0.929 . S
H673 C687 0.930 . S
H674 C651 0.931 . S
H675 C681 0.930 . S
H676 C714 0.930 . S
H677 C658 0.930 . S
H678 C713 0.931 . S
N679 Eu648 2.657 . S
N679 C680 1.334 . S
N679 C684 1.362 . S
C680 H672 0.929 . S
C680 N679 1.334 . S
C680 C683 1.413 . S
C681 H675 0.930 . S
C681 C682 1.392 . S
C681 C683 1.367 . S
C682 C681 1.392 . S
C682 C684 1.420 . S
C682 C714 1.423 . S
C683 H669 0.930 . S
C683 C680 1.413 . S
C683 C681 1.367 . S
C684 N679 1.362 . S
C684 C682 1.420 . S
C684 C688 1.429 . S
H685 C690 0.930 . S
N686 Eu648 2.609 . S
N686 C688 1.377 . S
N686 C689 1.321 . S
C687 H673 0.930 . S
C687 C689 1.400 . S
C687 C690 1.386 . S
C688 C684 1.429 . S
C688 N686 1.377 . S
C688 C691 1.411 . S
C689 H671 0.930 . S
C689 N686 1.321 . S
C689 C687 1.400 . S
C690 H685 0.930 . S
C690 C687 1.386 . S
C690 C691 1.395 . S
C691 C688 1.411 . S
C691 C690 1.395 . S
C691 C713 1.420 . S
O692 Eu648 2.558 . S
O692 C712 1.257 . S
O693 Eu648 2.612 . S
O693 Eu659 2.380 . S
O693 C704 1.276 . S
O694 Eu659 2.432 . S
O694 C711 1.264 . S
O695 Eu648 2.339 . S
O695 C711 1.254 . S
O696 Eu648 2.563 . S
O696 C704 1.235 . S
O697 Eu648 2.419 . S
O697 C712 1.249 . S
O698 Eu659 2.558 . S
O698 C723 1.257 . S
O699 Eu648 2.380 . S
O699 Eu659 2.612 . S
O699 C715 1.276 . S
O700 Eu648 2.432 . S
O700 C722 1.264 . S
O701 Eu659 2.339 . S
O701 C722 1.254 . S
O702 Eu659 2.563 . S
O702 C715 1.235 . S
O703 Eu659 2.419 . S
O703 C723 1.249 . S
C704 O693 1.276 . S
C704 O696 1.235 . S
C705 C707 1.393 . S
C705 C709 1.395 . S
C705 C712 1.492 . S
C706 C707 1.392 . S
C706 C708 1.386 . S
C707 C705 1.393 . S
C707 C706 1.392 . S
C707 H724 0.930 . S
C708 C706 1.386 . S
C708 C710 1.395 . S
C708 H725 0.930 . S
C709 C705 1.395 . S
C709 C710 1.379 . S
C709 H726 0.930 . S
C710 C708 1.395 . S
C710 C709 1.379 . S
C710 H727 0.930 . S
C711 O694 1.264 . S
C711 O695 1.254 . S
C712 Eu648 2.848 . S
C712 O692 1.257 . S
C712 O697 1.249 . S
C712 C705 1.492 . S
C713 H678 0.931 . S
C713 C691 1.420 . S
C713 C714 1.351 . S
C714 H676 0.930 . S
C714 C682 1.423 . S
C714 C713 1.351 . S
C715 O699 1.276 . S
C715 O702 1.235 . S
C716 C717 1.393 . S
C716 C720 1.395 . S
C716 C723 1.492 . S
C717 C716 1.393 . S
C717 C718 1.392 . S
C717 H728 0.930 . S
C718 C717 1.392 . S
C718 C719 1.386 . S
C719 C718 1.386 . S
C719 C721 1.395 . S
C719 H729 0.930 . S
C720 C716 1.395 . S
C720 C721 1.379 . S
C720 H730 0.930 . S
C721 C719 1.395 . S
C721 C720 1.379 . S
C721 H731 0.930 . S
C722 O700 1.264 . S
C722 O701 1.254 . S
C723 Eu659 2.848 . S
C723 O698 1.257 . S
C723 O703 1.249 . S
C723 C716 1.492 . S
H724 C707 0.930 . S
H725 C708 0.930 . S
H726 C709 0.930 . S
H727 C710 0.930 . S
H728 C717 0.930 . S
H729 C719 0.930 . S
H730 C720 0.930 . S
H731 C721 0.930 . S
Eu732 N763 2.657 . S
Eu732 N770 2.609 . S
Eu732 O776 2.558 . S
Eu732 O777 2.612 . S
Eu732 O779 2.339 . S
Eu732 O780 2.563 . S
Eu732 O781 2.419 . S
Eu732 O783 2.383 . S
Eu732 O784 2.432 1_455 S
Eu732 C796 2.848 . S
C733 C736 1.429 . S
C733 C737 1.411 . S
C733 N740 1.377 . S
C734 C736 1.420 . S
C734 C738 1.423 . S
C734 C746 1.392 . S
C735 C737 1.420 . S
C735 C738 1.351 . S
C735 H758 0.931 . S
C736 C733 1.429 . S
C736 C734 1.420 . S
C736 N744 1.362 . S
C737 C733 1.411 . S
C737 C735 1.420 . S
C737 C742 1.395 . S
C738 C734 1.423 . S
C738 C735 1.351 . S
C738 H750 0.930 . S
C739 C741 1.400 . S
C739 C742 1.386 1_455 S
C739 H751 0.930 . S
N740 C733 1.377 . S
N740 C741 1.321 1_655 S
N740 Eu743 2.609 . S
C741 C739 1.400 . S
C741 N740 1.321 1_455 S
C741 H748 0.930 . S
C742 C737 1.395 . S
C742 C739 1.386 1_655 S
C742 H761 0.930 . S
Eu743 N740 2.609 . S
Eu743 N744 2.657 . S
Eu743 O777 2.380 1_655 S
Eu743 O778 2.432 1_655 S
Eu743 O782 2.558 . S
Eu743 O783 2.611 1_655 S
Eu743 O785 2.339 . S
Eu743 O786 2.563 . S
Eu743 O787 2.419 . S
Eu743 C807 2.848 . S
N744 C736 1.362 . S
N744 Eu743 2.657 . S
N744 C745 1.334 . S
C745 N744 1.334 . S
C745 C747 1.413 . S
C745 H752 0.929 . S
C746 C734 1.392 . S
C746 C747 1.367 . S
C746 H754 0.930 . S
C747 C745 1.413 . S
C747 C746 1.367 . S
C747 H749 0.930 . S
H748 C741 0.930 . S
H749 C747 0.930 . S
H750 C738 0.930 . S
H751 C739 0.930 . S
H752 C745 0.929 . S
H753 C767 0.930 . S
H754 C746 0.930 . S
H755 C773 0.930 1_655 S
H756 C764 0.929 . S
H757 C771 0.928 . S
H758 C735 0.931 . S
H759 C765 0.930 . S
H760 C798 0.930 . S
H761 C742 0.930 . S
H762 C797 0.931 . S
N763 Eu732 2.657 . S
N763 C764 1.334 . S
N763 C768 1.362 . S
C764 H756 0.929 . S
C764 N763 1.334 . S
C764 C767 1.413 . S
C765 H759 0.930 . S
C765 C766 1.392 . S
C765 C767 1.367 . S
C766 C765 1.392 . S
C766 C768 1.420 . S
C766 C798 1.423 . S
C767 H753 0.930 . S
C767 C764 1.413 . S
C767 C765 1.367 . S
C768 N763 1.362 . S
C768 C766 1.420 . S
C768 C772 1.429 . S
H769 C774 0.930 . S
N770 Eu732 2.609 . S
N770 C772 1.377 . S
N770 C773 1.321 . S
C771 H757 0.928 . S
C771 C773 1.400 1_655 S
C771 C774 1.387 1_655 S
C772 C768 1.429 . S
C772 N770 1.377 . S
C772 C775 1.411 . S
C773 H755 0.930 1_455 S
C773 N770 1.321 . S
C773 C771 1.400 1_455 S
C774 H769 0.930 . S
C774 C771 1.387 1_455 S
C774 C775 1.395 . S
C775 C772 1.411 . S
C775 C774 1.395 . S
C775 C797 1.420 . S
O776 Eu732 2.558 . S
O776 C796 1.257 . S
O777 Eu732 2.612 . S
O777 Eu743 2.380 1_455 S
O777 C788 1.276 . S
O778 Eu743 2.432 1_455 S
O778 C795 1.264 . S
O779 Eu732 2.339 . S
O779 C795 1.254 . S
O780 Eu732 2.563 . S
O780 C788 1.235 . S
O781 Eu732 2.419 . S
O781 C796 1.249 . S
O782 Eu743 2.558 . S
O782 C807 1.257 . S
O783 Eu732 2.383 . S
O783 Eu743 2.611 1_455 S
O783 C799 1.274 1_455 S
O784 Eu732 2.432 1_655 S
O784 C806 1.264 . S
O785 Eu743 2.339 . S
O785 C806 1.254 . S
O786 Eu743 2.563 . S
O786 C799 1.235 . S
O787 Eu743 2.419 . S
O787 C807 1.249 . S
C788 O777 1.276 . S
C788 O780 1.235 . S
C789 C791 1.393 . S
C789 C793 1.395 . S
C789 C796 1.492 . S
C790 C791 1.392 . S
C790 C792 1.386 . S
C791 C789 1.393 . S
C791 C790 1.392 . S
C791 H808 0.930 . S
C792 C790 1.386 . S
C792 C794 1.395 . S
C792 H809 0.930 . S
C793 C789 1.395 . S
C793 C794 1.379 . S
C793 H810 0.930 . S
C794 C792 1.395 . S
C794 C793 1.379 . S
C794 H811 0.930 . S
C795 O778 1.264 . S
C795 O779 1.254 . S
C796 Eu732 2.848 . S
C796 O776 1.257 . S
C796 O781 1.249 . S
C796 C789 1.492 . S
C797 H762 0.931 . S
C797 C775 1.420 . S
C797 C798 1.351 . S
C798 H760 0.930 . S
C798 C766 1.423 . S
C798 C797 1.351 . S
C799 O783 1.274 1_655 S
C799 O786 1.235 . S
C800 C801 1.393 . S
C800 C804 1.395 . S
C800 C807 1.492 . S
C801 C800 1.393 . S
C801 C802 1.392 . S
C801 H812 0.930 . S
C802 C801 1.392 . S
C802 C803 1.386 . S
C803 C802 1.386 . S
C803 C805 1.395 . S
C803 H813 0.930 . S
C804 C800 1.395 . S
C804 C805 1.379 . S
C804 H814 0.930 . S
C805 C803 1.395 . S
C805 C804 1.379 . S
C805 H815 0.930 . S
C806 O784 1.264 . S
C806 O785 1.254 . S
C807 Eu743 2.848 . S
C807 O782 1.257 . S
C807 O787 1.249 . S
C807 C800 1.492 . S
H808 C791 0.930 . S
H809 C792 0.930 . S
H810 C793 0.930 . S
H811 C794 0.930 . S
H812 C801 0.930 . S
H813 C803 0.930 . S
H814 C804 0.930 . S
H815 C805 0.930 . S
C816 C817 1.391 . S
C816 C818 1.394 . S
C816 H832 0.931 . S
C817 C816 1.391 . S
C817 C821 1.376 . S
C818 C816 1.394 . S
C818 C819 1.369 . S
C818 C822 1.531 . S
C819 C818 1.369 . S
C819 C820 1.410 . S
C819 C827 1.503 . S
C820 C819 1.410 . S
C820 C821 1.392 . S
C820 C823 1.511 . S
C821 C817 1.376 . S
C821 C820 1.392 . S
C821 H833 0.929 . S
C822 C818 1.531 . S
C822 H834 0.960 . S
C822 H835 0.962 . S
C822 H836 0.960 . S
C823 C820 1.511 . S
C823 H837 0.961 . S
C823 H838 0.961 . S
C823 H839 0.961 . S
C824 C825 1.370 . S
C824 C826 1.363 . S
C824 H840 0.931 . S
C825 C824 1.370 . S
C825 C829 1.408 . S
C826 C824 1.363 . S
C826 C827 1.370 . S
C826 C830 1.524 . S
C827 C819 1.503 . S
C827 C826 1.370 . S
C827 C828 1.403 . S
C828 C827 1.403 . S
C828 C829 1.404 . S
C828 C831 1.539 1_545 S
C829 C825 1.408 . S
C829 C828 1.404 . S
C829 H841 0.930 1_545 S
C830 C826 1.524 . S
C830 H842 0.956 . S
C830 H843 0.961 . S
C830 H844 0.961 . S
C831 C828 1.539 1_565 S
C831 H845 0.958 . S
C831 H846 0.961 . S
C831 H847 0.960 . S
H832 C816 0.931 . S
H833 C821 0.929 . S
H834 C822 0.960 . S
H835 C822 0.962 . S
H836 C822 0.960 . S
H837 C823 0.961 . S
H838 C823 0.961 . S
H839 C823 0.961 . S
H840 C824 0.931 . S
H841 C829 0.930 1_565 S
H842 C830 0.956 . S
H843 C830 0.961 . S
H844 C830 0.961 . S
H845 C831 0.958 . S
H846 C831 0.961 . S
H847 C831 0.960 . S
C848 C849 1.391 . S
C848 C850 1.394 . S
C848 H864 0.931 . S
C849 C848 1.391 . S
C849 C853 1.376 . S
C850 C848 1.394 . S
C850 C851 1.369 . S
C850 C854 1.531 . S
C851 C850 1.369 . S
C851 C852 1.410 . S
C851 C859 1.503 . S
C852 C851 1.410 . S
C852 C853 1.392 . S
C852 C855 1.511 . S
C853 C849 1.376 . S
C853 C852 1.392 . S
C853 H865 0.929 . S
C854 C850 1.531 . S
C854 H866 0.960 . S
C854 H867 0.962 . S
C854 H868 0.960 . S
C855 C852 1.511 . S
C855 H869 0.961 . S
C855 H870 0.961 . S
C855 H871 0.961 . S
C856 C857 1.370 . S
C856 C858 1.363 . S
C856 H872 0.931 . S
C857 C856 1.370 . S
C857 C861 1.408 . S
C858 C856 1.363 . S
C858 C859 1.370 . S
C858 C862 1.524 . S
C859 C851 1.503 . S
C859 C858 1.370 . S
C859 C860 1.403 . S
C860 C859 1.403 . S
C860 C861 1.404 . S
C860 C863 1.539 . S
C861 C857 1.408 . S
C861 C860 1.404 . S
C861 H873 0.930 . S
C862 C858 1.524 . S
C862 H874 0.956 . S
C862 H875 0.961 . S
C862 H876 0.961 . S
C863 C860 1.539 . S
C863 H877 0.958 . S
C863 H878 0.961 . S
C863 H879 0.960 . S
H864 C848 0.931 . S
H865 C853 0.929 . S
H866 C854 0.960 . S
H867 C854 0.962 . S
H868 C854 0.960 . S
H869 C855 0.961 . S
H870 C855 0.961 . S
H871 C855 0.961 . S
H872 C856 0.931 . S
H873 C861 0.930 . S
H874 C862 0.956 . S
H875 C862 0.961 . S
H876 C862 0.961 . S
H877 C863 0.958 . S
H878 C863 0.961 . S
H879 C863 0.960 . S
C880 C881 1.391 . S
C880 C882 1.394 . S
C880 H896 0.931 . S
C881 C880 1.391 . S
C881 C885 1.376 . S
C882 C880 1.394 . S
C882 C883 1.369 . S
C882 C886 1.531 . S
C883 C882 1.369 . S
C883 C884 1.410 . S
C883 C891 1.503 . S
C884 C883 1.410 . S
C884 C885 1.392 . S
C884 C887 1.511 . S
C885 C881 1.376 . S
C885 C884 1.392 . S
C885 H897 0.929 . S
C886 C882 1.531 . S
C886 H898 0.960 . S
C886 H899 0.962 . S
C886 H900 0.960 . S
C887 C884 1.511 . S
C887 H901 0.961 . S
C887 H902 0.961 . S
C887 H903 0.961 . S
C888 C889 1.370 . S
C888 C890 1.363 . S
C888 H904 0.931 . S
C889 C888 1.370 . S
C889 C893 1.408 . S
C890 C888 1.363 . S
C890 C891 1.370 . S
C890 C894 1.524 . S
C891 C883 1.503 . S
C891 C890 1.370 . S
C891 C892 1.403 . S
C892 C891 1.403 . S
C892 C893 1.404 . S
C892 C895 1.539 . S
C893 C889 1.408 . S
C893 C892 1.404 . S
C893 H905 0.930 . S
C894 C890 1.524 . S
C894 H906 0.956 . S
C894 H907 0.961 . S
C894 H908 0.961 . S
C895 C892 1.539 . S
C895 H909 0.958 . S
C895 H910 0.961 . S
C895 H911 0.960 . S
H896 C880 0.931 . S
H897 C885 0.929 . S
H898 C886 0.960 . S
H899 C886 0.962 . S
H900 C886 0.960 . S
H901 C887 0.961 . S
H902 C887 0.961 . S
H903 C887 0.961 . S
H904 C888 0.931 . S
H905 C893 0.930 . S
H906 C894 0.956 . S
H907 C894 0.961 . S
H908 C894 0.961 . S
H909 C895 0.958 . S
H910 C895 0.961 . S
H911 C895 0.960 . S
C912 C913 1.391 . S
C912 C914 1.394 . S
C912 H928 0.931 . S
C913 C912 1.391 . S
C913 C917 1.376 . S
C914 C912 1.394 . S
C914 C915 1.369 . S
C914 C918 1.531 . S
C915 C914 1.369 . S
C915 C916 1.410 . S
C915 C923 1.503 . S
C916 C915 1.410 . S
C916 C917 1.392 . S
C916 C919 1.511 . S
C917 C913 1.376 . S
C917 C916 1.392 . S
C917 H929 0.929 . S
C918 C914 1.531 . S
C918 H930 0.960 . S
C918 H931 0.962 . S
C918 H932 0.960 . S
C919 C916 1.511 . S
C919 H933 0.961 . S
C919 H934 0.961 . S
C919 H935 0.961 . S
C920 C921 1.370 . S
C920 C922 1.363 . S
C920 H936 0.931 . S
C921 C920 1.370 . S
C921 C925 1.408 . S
C922 C920 1.363 . S
C922 C923 1.370 . S
C922 C926 1.524 . S
C923 C915 1.503 . S
C923 C922 1.370 . S
C923 C924 1.403 . S
C924 C923 1.403 . S
C924 C925 1.404 . S
C924 C927 1.539 . S
C925 C921 1.408 . S
C925 C924 1.404 . S
C925 H937 0.930 . S
C926 C922 1.524 . S
C926 H938 0.956 . S
C926 H939 0.961 . S
C926 H940 0.954 1_455 S
C927 C924 1.539 . S
C927 H941 0.958 . S
C927 H942 0.961 . S
C927 H943 0.960 . S
H928 C912 0.931 . S
H929 C917 0.929 . S
H930 C918 0.960 . S
H931 C918 0.962 . S
H932 C918 0.960 . S
H933 C919 0.961 . S
H934 C919 0.961 . S
H935 C919 0.961 . S
H936 C920 0.931 . S
H937 C925 0.930 . S
H938 C926 0.956 . S
H939 C926 0.961 . S
H940 C926 0.954 1_655 S
H941 C927 0.958 . S
H942 C927 0.961 . S
H943 C927 0.960 . S
C944 C945 1.391 . S
C944 C946 1.394 1_554 S
C944 H960 0.931 . S
C945 C944 1.391 . S
C945 C949 1.376 . S
C946 C944 1.394 1_556 S
C946 C947 1.369 . S
C946 C950 1.531 . S
C947 C946 1.369 . S
C947 C948 1.410 1_556 S
C947 C955 1.503 . S
C948 C947 1.410 1_554 S
C948 C949 1.392 . S
C948 C951 1.511 1_564 S
C949 C945 1.376 . S
C949 C948 1.392 . S
C949 H961 0.929 . S
C950 C946 1.531 . S
C950 H962 0.960 . S
C950 H963 0.962 . S
C950 H964 0.960 . S
C951 C948 1.511 1_546 S
C951 H965 0.961 1_556 S
C951 H966 0.961 . S
C951 H967 0.961 . S
C952 C953 1.370 . S
C952 C954 1.363 . S
C952 H968 0.931 . S
C953 C952 1.370 . S
C953 C957 1.408 . S
C954 C952 1.363 . S
C954 C955 1.370 . S
C954 C958 1.524 . S
C955 C947 1.503 . S
C955 C954 1.370 . S
C955 C956 1.403 . S
C956 C955 1.403 . S
C956 C957 1.404 . S
C956 C959 1.539 . S
C957 C953 1.408 . S
C957 C956 1.404 . S
C957 H969 0.930 . S
C958 C954 1.524 . S
C958 H970 0.956 . S
C958 H971 0.961 . S
C958 H972 0.961 . S
C959 C956 1.539 . S
C959 H973 0.958 . S
C959 H974 0.961 1_565 S
C959 H975 0.960 . S
H960 C944 0.931 . S
H961 C949 0.929 . S
H962 C950 0.960 . S
H963 C950 0.962 . S
H964 C950 0.960 . S
H965 C951 0.961 1_554 S
H966 C951 0.961 . S
H967 C951 0.961 . S
H968 C952 0.931 . S
H969 C957 0.930 . S
H970 C958 0.956 . S
H971 C958 0.961 . S
H972 C958 0.961 . S
H973 C959 0.958 . S
H974 C959 0.961 1_545 S
H975 C959 0.960 . S
C976 C977 1.391 . S
C976 C978 1.394 1_554 S
C976 H992 0.931 . S
C977 C976 1.391 . S
C977 C981 1.376 . S
C978 C976 1.394 1_556 S
C978 C979 1.369 . S
C978 C982 1.531 . S
C979 C978 1.369 . S
C979 C980 1.410 . S
C979 C987 1.503 . S
C980 C979 1.410 . S
C980 C981 1.392 1_556 S
C980 C983 1.511 . S
C981 C977 1.376 . S
C981 C980 1.392 1_554 S
C981 H993 0.929 . S
C982 C978 1.531 . S
C982 H994 0.960 . S
C982 H995 0.962 . S
C982 H996 0.960 . S
C983 C980 1.511 . S
C983 H997 0.961 1_556 S
C983 H998 0.961 . S
C983 H999 0.961 . S
C984 C985 1.370 . S
C984 C986 1.363 . S
C984 H1000 0.931 . S
C985 C984 1.370 . S
C985 C989 1.408 . S
C986 C984 1.363 . S
C986 C987 1.370 . S
C986 C990 1.524 . S
C987 C979 1.503 . S
C987 C986 1.370 . S
C987 C988 1.403 . S
C988 C987 1.403 . S
C988 C989 1.404 . S
C988 C991 1.539 . S
C989 C985 1.408 . S
C989 C988 1.404 . S
C989 H1001 0.930 . S
C990 C986 1.524 . S
C990 H1002 0.956 . S
C990 H1003 0.961 . S
C990 H1004 0.961 . S
C991 C988 1.539 . S
C991 H1005 0.958 . S
C991 H1006 0.961 . S
C991 H1007 0.960 . S
H992 C976 0.931 . S
H993 C981 0.929 . S
H994 C982 0.960 . S
H995 C982 0.962 . S
H996 C982 0.960 . S
H997 C983 0.961 1_554 S
H998 C983 0.961 . S
H999 C983 0.961 . S
H1000 C984 0.931 . S
H1001 C989 0.930 . S
H1002 C990 0.956 . S
H1003 C990 0.961 . S
H1004 C990 0.961 . S
H1005 C991 0.958 . S
H1006 C991 0.961 . S
H1007 C991 0.960 . S
C1008 C1009 1.391 . S
C1008 C1010 1.394 1_554 S
C1008 H1024 0.931 . S
C1009 C1008 1.391 . S
C1009 C1013 1.376 . S
C1010 C1008 1.394 1_556 S
C1010 C1011 1.369 . S
C1010 C1014 1.531 . S
C1011 C1010 1.369 . S
C1011 C1012 1.410 . S
C1011 C1019 1.503 . S
C1012 C1011 1.410 . S
C1012 C1013 1.392 1_556 S
C1012 C1015 1.511 . S
C1013 C1009 1.376 . S
C1013 C1012 1.392 1_554 S
C1013 H1025 0.929 . S
C1014 C1010 1.531 . S
C1014 H1026 0.960 . S
C1014 H1027 0.962 . S
C1014 H1028 0.960 1_556 S
C1015 C1012 1.511 . S
C1015 H1029 0.961 . S
C1015 H1030 0.961 . S
C1015 H1031 0.961 . S
C1016 C1017 1.370 . S
C1016 C1018 1.363 . S
C1016 H1032 0.931 . S
C1017 C1016 1.370 . S
C1017 C1021 1.408 . S
C1018 C1016 1.363 . S
C1018 C1019 1.370 . S
C1018 C1022 1.524 . S
C1019 C1011 1.503 . S
C1019 C1018 1.370 . S
C1019 C1020 1.403 . S
C1020 C1019 1.403 . S
C1020 C1021 1.404 . S
C1020 C1023 1.539 . S
C1021 C1017 1.408 . S
C1021 C1020 1.404 . S
C1021 H1033 0.930 . S
C1022 C1018 1.524 . S
C1022 H1034 0.956 . S
C1022 H1035 0.961 . S
C1022 H1036 0.961 . S
C1023 C1020 1.539 . S
C1023 H1037 0.958 . S
C1023 H1038 0.961 . S
C1023 H1039 0.960 . S
H1024 C1008 0.931 . S
H1025 C1013 0.929 . S
H1026 C1014 0.960 . S
H1027 C1014 0.962 . S
H1028 C1014 0.960 1_554 S
H1029 C1015 0.961 . S
H1030 C1015 0.961 . S
H1031 C1015 0.961 . S
H1032 C1016 0.931 . S
H1033 C1021 0.930 . S
H1034 C1022 0.956 . S
H1035 C1022 0.961 . S
H1036 C1022 0.961 . S
H1037 C1023 0.958 . S
H1038 C1023 0.961 . S
H1039 C1023 0.960 . S
C1040 C1041 1.391 . S
C1040 C1042 1.394 . S
C1040 H1056 0.931 . S
C1041 C1040 1.391 . S
C1041 C1045 1.376 . S
C1042 C1040 1.394 . S
C1042 C1043 1.369 1_554 S
C1042 C1046 1.531 . S
C1043 C1042 1.369 1_556 S
C1043 C1044 1.410 . S
C1043 C1051 1.503 . S
C1044 C1043 1.410 . S
C1044 C1045 1.392 1_556 S
C1044 C1047 1.511 . S
C1045 C1041 1.376 . S
C1045 C1044 1.392 1_554 S
C1045 H1057 0.929 . S
C1046 C1042 1.531 . S
C1046 H1058 0.960 1_554 S
C1046 H1059 0.962 1_654 S
C1046 H1060 0.964 . S
C1047 C1044 1.511 . S
C1047 H1061 0.961 . S
C1047 H1062 0.961 . S
C1047 H1063 0.961 . S
C1048 C1049 1.370 . S
C1048 C1050 1.363 . S
C1048 H1064 0.931 . S
C1049 C1048 1.370 . S
C1049 C1053 1.408 . S
C1050 C1048 1.363 . S
C1050 C1051 1.370 . S
C1050 C1054 1.524 . S
C1051 C1043 1.503 . S
C1051 C1050 1.370 . S
C1051 C1052 1.403 . S
C1052 C1051 1.403 . S
C1052 C1053 1.404 . S
C1052 C1055 1.539 . S
C1053 C1049 1.408 . S
C1053 C1052 1.404 . S
C1053 H1065 0.930 . S
C1054 C1050 1.524 . S
C1054 H1066 0.956 . S
C1054 H1067 0.961 . S
C1054 H1068 0.961 . S
C1055 C1052 1.539 . S
C1055 H1069 0.958 . S
C1055 H1070 0.961 . S
C1055 H1071 0.960 . S
H1056 C1040 0.931 . S
H1057 C1045 0.929 . S
H1058 C1046 0.960 1_556 S
H1059 C1046 0.962 1_456 S
H1060 C1046 0.964 . S
H1061 C1047 0.961 . S
H1062 C1047 0.961 . S
H1063 C1047 0.961 . S
H1064 C1048 0.931 . S
H1065 C1053 0.930 . S
H1066 C1054 0.956 . S
H1067 C1054 0.961 . S
H1068 C1054 0.961 . S
H1069 C1055 0.958 . S
H1070 C1055 0.961 . S
H1071 C1055 0.960 . S
C1072 C1073 1.391 . S
C1072 C1074 1.394 . S
C1072 H1088 0.931 . S
C1073 C1072 1.391 . S
C1073 C1077 1.376 . S
C1074 C1072 1.394 . S
C1074 C1075 1.369 . S
C1074 C1078 1.531 . S
C1075 C1074 1.369 . S
C1075 C1076 1.410 . S
C1075 C1083 1.503 . S
C1076 C1075 1.410 . S
C1076 C1077 1.392 . S
C1076 C1079 1.511 . S
C1077 C1073 1.376 . S
C1077 C1076 1.392 . S
C1077 H1089 0.929 . S
C1078 C1074 1.531 . S
C1078 H1090 0.960 . S
C1078 H1091 0.962 . S
C1078 H1092 0.960 . S
C1079 C1076 1.511 . S
C1079 H1093 0.961 . S
C1079 H1094 0.961 . S
C1079 H1095 0.961 . S
C1080 C1081 1.370 . S
C1080 C1082 1.363 . S
C1080 H1096 0.931 1_455 S
C1081 C1080 1.370 . S
C1081 C1085 1.408 . S
C1082 C1080 1.363 . S
C1082 C1083 1.370 . S
C1082 C1086 1.524 . S
C1083 C1075 1.503 . S
C1083 C1082 1.370 . S
C1083 C1084 1.403 . S
C1084 C1083 1.403 . S
C1084 C1085 1.404 . S
C1084 C1087 1.539 . S
C1085 C1081 1.408 . S
C1085 C1084 1.404 . S
C1085 H1097 0.930 . S
C1086 C1082 1.524 . S
C1086 H1098 0.956 . S
C1086 H1099 0.961 . S
C1086 H1100 0.961 . S
C1087 C1084 1.539 . S
C1087 H1101 0.958 . S
C1087 H1102 0.961 . S
C1087 H1103 0.960 . S
H1088 C1072 0.931 . S
H1089 C1077 0.929 . S
H1090 C1078 0.960 . S
H1091 C1078 0.962 . S
H1092 C1078 0.960 . S
H1093 C1079 0.961 . S
H1094 C1079 0.961 . S
H1095 C1079 0.961 . S
H1096 C1080 0.931 1_655 S
H1097 C1085 0.930 . S
H1098 C1086 0.956 . S
H1099 C1086 0.961 . S
H1100 C1086 0.961 . S
H1101 C1087 0.958 . S
H1102 C1087 0.961 . S
H1103 C1087 0.960 . S
C1104 C1105 1.391 . S
C1104 C1106 1.394 . S
C1104 H1120 0.931 . S
C1105 C1104 1.391 . S
C1105 C1109 1.376 . S
C1106 C1104 1.394 . S
C1106 C1107 1.369 . S
C1106 C1110 1.531 . S
C1107 C1106 1.369 . S
C1107 C1108 1.410 . S
C1107 C1115 1.503 . S
C1108 C1107 1.410 . S
C1108 C1109 1.392 . S
C1108 C1111 1.511 . S
C1109 C1105 1.376 . S
C1109 C1108 1.392 . S
C1109 H1121 0.929 . S
C1110 C1106 1.531 . S
C1110 H1122 0.960 . S
C1110 H1123 0.962 . S
C1110 H1124 0.960 . S
C1111 C1108 1.511 . S
C1111 H1125 0.961 . S
C1111 H1126 0.961 . S
C1111 H1127 0.961 . S
C1112 C1113 1.368 1_565 S
C1112 C1114 1.343 1_565 S
C1112 H1128 0.954 . S
C1113 C1112 1.368 1_545 S
C1113 C1117 1.433 . S
C1114 C1112 1.343 1_545 S
C1114 C1115 1.370 . S
C1114 C1118 1.524 . S
C1115 C1107 1.503 . S
C1115 C1114 1.370 . S
C1115 C1116 1.403 . S
C1116 C1115 1.403 . S
C1116 C1117 1.404 . S
C1116 C1119 1.539 . S
C1117 C1113 1.433 . S
C1117 C1116 1.404 . S
C1117 H1129 0.930 . S
C1118 C1114 1.524 . S
C1118 H1130 0.956 . S
C1118 H1131 0.961 . S
C1118 H1132 0.961 . S
C1119 C1116 1.539 . S
C1119 H1133 0.958 . S
C1119 H1134 0.961 . S
C1119 H1135 0.960 . S
H1120 C1104 0.931 . S
H1121 C1109 0.929 . S
H1122 C1110 0.960 . S
H1123 C1110 0.962 . S
H1124 C1110 0.960 . S
H1125 C1111 0.961 . S
H1126 C1111 0.961 . S
H1127 C1111 0.961 . S
H1128 C1112 0.954 . S
H1129 C1117 0.930 . S
H1130 C1118 0.956 . S
H1131 C1118 0.961 . S
H1132 C1118 0.961 . S
H1133 C1119 0.958 . S
H1134 C1119 0.961 . S
H1135 C1119 0.960 . S
C1136 C1137 1.391 . S
C1136 C1138 1.394 . S
C1136 H1152 0.931 . S
C1137 C1136 1.391 . S
C1137 C1141 1.376 . S
C1138 C1136 1.394 . S
C1138 C1139 1.369 . S
C1138 C1142 1.531 . S
C1139 C1138 1.369 . S
C1139 C1140 1.410 . S
C1139 C1147 1.503 . S
C1140 C1139 1.410 . S
C1140 C1141 1.392 . S
C1140 C1143 1.511 . S
C1141 C1137 1.376 . S
C1141 C1140 1.392 . S
C1141 H1153 0.929 . S
C1142 C1138 1.531 . S
C1142 H1154 0.960 . S
C1142 H1155 0.962 . S
C1142 H1156 0.960 . S
C1143 C1140 1.511 . S
C1143 H1157 0.961 . S
C1143 H1158 0.961 . S
C1143 H1159 0.961 . S
C1144 C1145 1.370 . S
C1144 C1146 1.363 . S
C1144 H1160 0.931 . S
C1145 C1144 1.370 . S
C1145 C1149 1.408 . S
C1146 C1144 1.363 . S
C1146 C1147 1.370 . S
C1146 C1150 1.524 . S
C1147 C1139 1.503 . S
C1147 C1146 1.370 . S
C1147 C1148 1.403 . S
C1148 C1147 1.403 . S
C1148 C1149 1.404 . S
C1148 C1151 1.539 . S
C1149 C1145 1.408 . S
C1149 C1148 1.404 . S
C1149 H1161 0.930 . S
C1150 C1146 1.524 . S
C1150 H1162 0.956 . S
C1150 H1163 0.961 . S
C1150 H1164 0.961 . S
C1151 C1148 1.539 . S
C1151 H1165 0.958 . S
C1151 H1166 0.961 . S
C1151 H1167 0.960 . S
H1152 C1136 0.931 . S
H1153 C1141 0.929 . S
H1154 C1142 0.960 . S
H1155 C1142 0.962 . S
H1156 C1142 0.960 . S
H1157 C1143 0.961 . S
H1158 C1143 0.961 . S
H1159 C1143 0.961 . S
H1160 C1144 0.931 . S
H1161 C1149 0.930 . S
H1162 C1150 0.956 . S
H1163 C1150 0.961 . S
H1164 C1150 0.961 . S
H1165 C1151 0.958 . S
H1166 C1151 0.961 . S
H1167 C1151 0.960 . S
C1168 C1169 1.391 . S
C1168 C1170 1.394 . S
C1168 H1184 0.931 . S
C1169 C1168 1.391 . S
C1169 C1173 1.376 . S
C1170 C1168 1.394 . S
C1170 C1171 1.369 . S
C1170 C1174 1.531 . S
C1171 C1170 1.369 . S
C1171 C1172 1.410 . S
C1171 C1179 1.503 . S
C1172 C1171 1.410 . S
C1172 C1173 1.392 . S
C1172 C1175 1.511 . S
C1173 C1169 1.376 . S
C1173 C1172 1.392 . S
C1173 H1185 0.929 . S
C1174 C1170 1.531 . S
C1174 H1186 0.960 . S
C1174 H1187 0.962 . S
C1174 H1188 0.960 . S
C1175 C1172 1.511 . S
C1175 H1189 0.961 . S
C1175 H1190 0.961 . S
C1175 H1191 0.961 . S
C1176 C1177 1.370 . S
C1176 C1178 1.363 . S
C1176 H1192 0.931 . S
C1177 C1176 1.370 . S
C1177 C1181 1.408 . S
C1178 C1176 1.363 . S
C1178 C1179 1.370 . S
C1178 C1182 1.524 . S
C1179 C1171 1.503 . S
C1179 C1178 1.370 . S
C1179 C1180 1.403 . S
C1180 C1179 1.403 . S
C1180 C1181 1.404 . S
C1180 C1183 1.539 . S
C1181 C1177 1.408 . S
C1181 C1180 1.404 . S
C1181 H1193 0.930 . S
C1182 C1178 1.524 . S
C1182 H1194 0.956 . S
C1182 H1195 0.961 . S
C1182 H1196 0.961 . S
C1183 C1180 1.539 . S
C1183 H1197 0.958 . S
C1183 H1198 0.961 . S
C1183 H1199 0.960 . S
H1184 C1168 0.931 . S
H1185 C1173 0.929 . S
H1186 C1174 0.960 . S
H1187 C1174 0.962 . S
H1188 C1174 0.960 . S
H1189 C1175 0.961 . S
H1190 C1175 0.961 . S
H1191 C1175 0.961 . S
H1192 C1176 0.931 . S
H1193 C1181 0.930 . S
H1194 C1182 0.956 . S
H1195 C1182 0.961 . S
H1196 C1182 0.961 . S
H1197 C1183 0.958 . S
H1198 C1183 0.961 . S
H1199 C1183 0.960 . S
C1200 C1201 1.391 . S
C1200 C1202 1.394 . S
C1200 H1216 0.931 . S
C1201 C1200 1.391 . S
C1201 C1205 1.376 . S
C1202 C1200 1.394 . S
C1202 C1203 1.369 . S
C1202 C1206 1.531 . S
C1203 C1202 1.369 . S
C1203 C1204 1.410 . S
C1203 C1211 1.503 . S
C1204 C1203 1.410 . S
C1204 C1205 1.392 . S
C1204 C1207 1.511 . S
C1205 C1201 1.376 . S
C1205 C1204 1.392 . S
C1205 H1217 0.929 1_556 S
C1206 C1202 1.531 . S
C1206 H1218 0.960 . S
C1206 H1219 0.962 . S
C1206 H1220 0.960 . S
C1207 C1204 1.511 . S
C1207 H1221 0.966 . S
C1207 H1222 0.961 1_655 S
C1207 H1223 0.962 1_656 S
C1208 C1209 1.370 1_655 S
C1208 C1210 1.363 . S
C1208 H1224 0.931 . S
C1209 C1208 1.370 1_455 S
C1209 C1213 1.408 . S
C1210 C1208 1.363 . S
C1210 C1211 1.370 . S
C1210 C1214 1.524 . S
C1211 C1203 1.503 . S
C1211 C1210 1.370 . S
C1211 C1212 1.403 . S
C1212 C1211 1.403 . S
C1212 C1213 1.404 1_655 S
C1212 C1215 1.539 1_556 S
C1213 C1209 1.408 . S
C1213 C1212 1.404 1_455 S
C1213 H1225 0.930 . S
C1214 C1210 1.524 . S
C1214 H1226 0.956 . S
C1214 H1227 0.961 . S
C1214 H1228 0.961 . S
C1215 C1212 1.539 1_554 S
C1215 H1229 0.958 . S
C1215 H1230 0.961 1_655 S
C1215 H1231 0.960 . S
H1216 C1200 0.931 . S
H1217 C1205 0.929 1_554 S
H1218 C1206 0.960 . S
H1219 C1206 0.962 . S
H1220 C1206 0.960 . S
H1221 C1207 0.966 . S
H1222 C1207 0.961 1_455 S
H1223 C1207 0.962 1_454 S
H1224 C1208 0.931 . S
H1225 C1213 0.930 . S
H1226 C1214 0.956 . S
H1227 C1214 0.961 . S
H1228 C1214 0.961 . S
H1229 C1215 0.958 . S
H1230 C1215 0.961 1_455 S
H1231 C1215 0.960 . S
C1232 C1233 1.391 . S
C1232 C1234 1.394 1_554 S
C1232 H1248 0.931 . S
C1233 C1232 1.391 . S
C1233 C1237 1.376 1_554 S
C1234 C1232 1.394 1_556 S
C1234 C1235 1.369 . S
C1234 C1238 1.531 . S
C1235 C1234 1.369 . S
C1235 C1236 1.410 . S
C1235 C1243 1.503 . S
C1236 C1235 1.410 . S
C1236 C1237 1.392 . S
C1236 C1239 1.511 . S
C1237 C1233 1.376 1_556 S
C1237 C1236 1.392 . S
C1237 H1249 0.929 . S
C1238 C1234 1.531 . S
C1238 H1250 0.960 . S
C1238 H1251 0.962 . S
C1238 H1252 0.960 1_556 S
C1239 C1236 1.511 . S
C1239 H1253 0.961 . S
C1239 H1254 0.961 1_565 S
C1239 H1255 0.961 1_565 S
C1240 C1241 1.370 1_565 S
C1240 C1242 1.363 . S
C1240 H1256 0.931 . S
C1241 C1240 1.370 1_545 S
C1241 C1245 1.408 . S
C1242 C1240 1.363 . S
C1242 C1243 1.370 . S
C1242 C1246 1.524 . S
C1243 C1235 1.503 . S
C1243 C1242 1.370 . S
C1243 C1244 1.403 1_565 S
C1244 C1243 1.403 1_545 S
C1244 C1245 1.404 . S
C1244 C1247 1.539 1_556 S
C1245 C1241 1.408 . S
C1245 C1244 1.404 . S
C1245 H1257 0.930 . S
C1246 C1242 1.524 . S
C1246 H1258 0.956 . S
C1246 H1259 0.961 . S
C1246 H1260 0.961 . S
C1247 C1244 1.539 1_554 S
C1247 H1261 0.958 . S
C1247 H1262 0.961 . S
C1247 H1263 0.960 . S
H1248 C1232 0.931 . S
H1249 C1237 0.929 . S
H1250 C1238 0.960 . S
H1251 C1238 0.962 . S
H1252 C1238 0.960 1_554 S
H1253 C1239 0.961 . S
H1254 C1239 0.961 1_545 S
H1255 C1239 0.961 1_545 S
H1256 C1240 0.931 . S
H1257 C1245 0.930 . S
H1258 C1246 0.956 . S
H1259 C1246 0.961 . S
H1260 C1246 0.961 . S
H1261 C1247 0.958 . S
H1262 C1247 0.961 . S
H1263 C1247 0.960 . S
C1264 C1265 1.391 1_554 S
C1264 C1266 1.394 1_554 S
C1264 H1280 0.931 . S
C1265 C1264 1.391 1_556 S
C1265 C1269 1.376 . S
C1266 C1264 1.394 1_556 S
C1266 C1267 1.369 . S
C1266 C1270 1.531 1_556 S
C1267 C1266 1.369 . S
C1267 C1268 1.410 . S
C1267 C1275 1.503 . S
C1268 C1267 1.410 . S
C1268 C1269 1.392 . S
C1268 C1271 1.511 . S
C1269 C1265 1.376 . S
C1269 C1268 1.392 . S
C1269 H1281 0.929 . S
C1270 C1266 1.531 1_554 S
C1270 H1282 0.960 1_554 S
C1270 H1283 0.962 . S
C1270 H1284 0.960 . S
C1271 C1268 1.511 . S
C1271 H1285 0.961 . S
C1271 H1286 0.961 . S
C1271 H1287 0.961 . S
C1272 C1273 1.370 . S
C1272 C1274 1.363 . S
C1272 H1288 0.931 . S
C1273 C1272 1.370 . S
C1273 C1277 1.408 . S
C1274 C1272 1.363 . S
C1274 C1275 1.370 . S
C1274 C1278 1.524 . S
C1275 C1267 1.503 . S
C1275 C1274 1.370 . S
C1275 C1276 1.403 . S
C1276 C1275 1.403 . S
C1276 C1277 1.404 . S
C1276 C1279 1.539 . S
C1277 C1273 1.408 . S
C1277 C1276 1.404 . S
C1277 H1289 0.930 . S
C1278 C1274 1.524 . S
C1278 H1290 0.956 1_556 S
C1278 H1291 0.961 . S
C1278 H1292 0.961 . S
C1279 C1276 1.539 . S
C1279 H1293 0.958 . S
C1279 H1294 0.961 . S
C1279 H1295 0.960 . S
H1280 C1264 0.931 . S
H1281 C1269 0.929 . S
H1282 C1270 0.960 1_556 S
H1283 C1270 0.962 . S
H1284 C1270 0.960 . S
H1285 C1271 0.961 . S
H1286 C1271 0.961 . S
H1287 C1271 0.961 . S
H1288 C1272 0.931 . S
H1289 C1277 0.930 . S
H1290 C1278 0.956 1_554 S
H1291 C1278 0.961 . S
H1292 C1278 0.961 . S
H1293 C1279 0.958 . S
H1294 C1279 0.961 . S
H1295 C1279 0.960 . S
C1296 C1297 1.391 1_554 S
C1296 C1298 1.394 1_554 S
C1296 H1312 0.931 . S
C1297 C1296 1.391 1_556 S
C1297 C1301 1.376 . S
C1298 C1296 1.394 1_556 S
C1298 C1299 1.369 . S
C1298 C1302 1.531 1_556 S
C1299 C1298 1.369 . S
C1299 C1300 1.410 . S
C1299 C1307 1.503 . S
C1300 C1299 1.410 . S
C1300 C1301 1.392 . S
C1300 C1303 1.511 . S
C1301 C1297 1.376 . S
C1301 C1300 1.392 . S
C1301 H1313 0.929 . S
C1302 C1298 1.531 1_554 S
C1302 H1314 0.960 1_554 S
C1302 H1315 0.962 . S
C1302 H1316 0.960 . S
C1303 C1300 1.511 . S
C1303 H1317 0.961 . S
C1303 H1318 0.961 . S
C1303 H1319 0.961 . S
C1304 C1305 1.370 . S
C1304 C1306 1.363 . S
C1304 H1320 0.931 . S
C1305 C1304 1.370 . S
C1305 C1309 1.408 . S
C1306 C1304 1.363 . S
C1306 C1307 1.370 . S
C1306 C1310 1.524 . S
C1307 C1299 1.503 . S
C1307 C1306 1.370 . S
C1307 C1308 1.403 . S
C1308 C1307 1.403 . S
C1308 C1309 1.404 . S
C1308 C1311 1.539 . S
C1309 C1305 1.408 . S
C1309 C1308 1.404 . S
C1309 H1321 0.930 . S
C1310 C1306 1.524 . S
C1310 H1322 0.956 1_556 S
C1310 H1323 0.961 . S
C1310 H1324 0.963 . S
C1311 C1308 1.539 . S
C1311 H1325 0.958 . S
C1311 H1326 0.961 . S
C1311 H1327 0.960 . S
H1312 C1296 0.931 . S
H1313 C1301 0.929 . S
H1314 C1302 0.960 1_556 S
H1315 C1302 0.962 . S
H1316 C1302 0.960 . S
H1317 C1303 0.961 . S
H1318 C1303 0.961 . S
H1319 C1303 0.961 . S
H1320 C1304 0.931 . S
H1321 C1309 0.930 . S
H1322 C1310 0.956 1_554 S
H1323 C1310 0.961 . S
H1324 C1310 0.963 . S
H1325 C1311 0.958 . S
H1326 C1311 0.961 . S
H1327 C1311 0.960 . S
C1328 C1329 1.391 . S
C1328 C1330 1.394 . S
C1328 H1344 0.931 . S
C1329 C1328 1.391 . S
C1329 C1333 1.376 . S
C1330 C1328 1.394 . S
C1330 C1331 1.369 . S
C1330 C1334 1.531 . S
C1331 C1330 1.369 . S
C1331 C1332 1.410 . S
C1331 C1339 1.503 . S
C1332 C1331 1.410 . S
C1332 C1333 1.392 . S
C1332 C1335 1.511 . S
C1333 C1329 1.376 . S
C1333 C1332 1.392 . S
C1333 H1345 0.929 . S
C1334 C1330 1.531 . S
C1334 H1346 0.960 . S
C1334 H1347 0.962 . S
C1334 H1348 0.960 . S
C1335 C1332 1.511 . S
C1335 H1349 0.961 . S
C1335 H1350 0.961 . S
C1335 H1351 0.961 . S
C1336 C1337 1.370 . S
C1336 C1338 1.363 . S
C1336 H1352 0.931 . S
C1337 C1336 1.370 . S
C1337 C1341 1.408 . S
C1338 C1336 1.363 . S
C1338 C1339 1.370 . S
C1338 C1342 1.524 . S
C1339 C1331 1.503 . S
C1339 C1338 1.370 . S
C1339 C1340 1.403 . S
C1340 C1339 1.403 . S
C1340 C1341 1.404 . S
C1340 C1343 1.566 . S
C1341 C1337 1.408 . S
C1341 C1340 1.404 . S
C1341 H1353 0.930 . S
C1342 C1338 1.524 . S
C1342 H1354 0.956 . S
C1342 H1355 0.961 . S
C1342 H1356 0.961 . S
C1343 C1340 1.566 . S
C1343 H1357 0.958 . S
C1343 H1358 0.931 1_455 S
C1343 H1359 0.965 . S
H1344 C1328 0.931 . S
H1345 C1333 0.929 . S
H1346 C1334 0.960 . S
H1347 C1334 0.962 . S
H1348 C1334 0.960 . S
H1349 C1335 0.961 . S
H1350 C1335 0.961 . S
H1351 C1335 0.961 . S
H1352 C1336 0.931 . S
H1353 C1341 0.930 . S
H1354 C1342 0.956 . S
H1355 C1342 0.961 . S
H1356 C1342 0.961 . S
H1357 C1343 0.958 . S
H1358 C1343 0.931 1_655 S
H1359 C1343 0.965 . S
C1360 C1361 1.391 . S
C1360 C1362 1.394 . S
C1360 H1376 0.931 . S
C1361 C1360 1.391 . S
C1361 C1365 1.376 . S
C1362 C1360 1.394 . S
C1362 C1363 1.369 . S
C1362 C1366 1.531 . S
C1363 C1362 1.369 . S
C1363 C1364 1.410 . S
C1363 C1371 1.503 . S
C1364 C1363 1.410 . S
C1364 C1365 1.392 . S
C1364 C1367 1.511 . S
C1365 C1361 1.376 . S
C1365 C1364 1.392 . S
C1365 H1377 0.929 . S
C1366 C1362 1.531 . S
C1366 H1378 0.960 . S
C1366 H1379 0.962 . S
C1366 H1380 0.960 . S
C1367 C1364 1.511 . S
C1367 H1381 0.961 . S
C1367 H1382 0.961 . S
C1367 H1383 0.961 . S
C1368 C1369 1.370 . S
C1368 C1370 1.363 . S
C1368 H1384 0.931 . S
C1369 C1368 1.370 . S
C1369 C1373 1.408 . S
C1370 C1368 1.363 . S
C1370 C1371 1.370 . S
C1370 C1374 1.524 . S
C1371 C1363 1.503 . S
C1371 C1370 1.370 . S
C1371 C1372 1.403 . S
C1372 C1371 1.403 . S
C1372 C1373 1.404 . S
C1372 C1375 1.539 . S
C1373 C1369 1.408 . S
C1373 C1372 1.404 . S
C1373 H1385 0.930 . S
C1374 C1370 1.524 . S
C1374 H1386 0.956 . S
C1374 H1387 0.961 . S
C1374 H1388 0.961 1_545 S
C1375 C1372 1.539 . S
C1375 H1389 0.958 . S
C1375 H1390 0.961 . S
C1375 H1391 0.960 . S
H1376 C1360 0.931 . S
H1377 C1365 0.929 . S
H1378 C1366 0.960 . S
H1379 C1366 0.962 . S
H1380 C1366 0.960 . S
H1381 C1367 0.961 . S
H1382 C1367 0.961 . S
H1383 C1367 0.961 . S
H1384 C1368 0.931 . S
H1385 C1373 0.930 . S
H1386 C1374 0.956 . S
H1387 C1374 0.961 . S
H1388 C1374 0.961 1_565 S
H1389 C1375 0.958 . S
H1390 C1375 0.961 . S
H1391 C1375 0.960 . S
C1392 C1393 1.391 . S
C1392 C1394 1.394 . S
C1392 H1408 0.931 . S
C1393 C1392 1.391 . S
C1393 C1397 1.376 . S
C1394 C1392 1.394 . S
C1394 C1395 1.369 . S
C1394 C1398 1.531 . S
C1395 C1394 1.369 . S
C1395 C1396 1.410 . S
C1395 C1403 1.503 . S
C1396 C1395 1.410 . S
C1396 C1397 1.392 . S
C1396 C1399 1.511 . S
C1397 C1393 1.376 . S
C1397 C1396 1.392 . S
C1397 H1409 0.929 . S
C1398 C1394 1.531 . S
C1398 H1410 0.960 . S
C1398 H1411 0.962 . S
C1398 H1412 0.960 . S
C1399 C1396 1.511 . S
C1399 H1413 0.961 . S
C1399 H1414 0.961 . S
C1399 H1415 0.961 . S
C1400 C1401 1.370 . S
C1400 C1402 1.363 . S
C1400 H1416 0.931 . S
C1401 C1400 1.370 . S
C1401 C1405 1.408 . S
C1402 C1400 1.363 . S
C1402 C1403 1.370 . S
C1402 C1406 1.524 . S
C1403 C1395 1.503 . S
C1403 C1402 1.370 . S
C1403 C1404 1.403 . S
C1404 C1403 1.403 . S
C1404 C1405 1.404 . S
C1404 C1407 1.539 . S
C1405 C1401 1.408 . S
C1405 C1404 1.404 . S
C1405 H1417 0.930 . S
C1406 C1402 1.524 . S
C1406 H1418 0.956 . S
C1406 H1419 0.961 . S
C1406 H1420 0.961 . S
C1407 C1404 1.539 . S
C1407 H1421 0.958 . S
C1407 H1422 0.961 . S
C1407 H1423 0.960 . S
H1408 C1392 0.931 . S
H1409 C1397 0.929 . S
H1410 C1398 0.960 . S
H1411 C1398 0.962 . S
H1412 C1398 0.960 . S
H1413 C1399 0.961 . S
H1414 C1399 0.961 . S
H1415 C1399 0.961 . S
H1416 C1400 0.931 . S
H1417 C1405 0.930 . S
H1418 C1406 0.956 . S
H1419 C1406 0.961 . S
H1420 C1406 0.961 . S
H1421 C1407 0.958 . S
H1422 C1407 0.961 . S
H1423 C1407 0.960 . S
C1424 C1425 1.391 . S
C1424 C1426 1.394 . S
C1424 H1440 0.931 . S
C1425 C1424 1.391 . S
C1425 C1429 1.376 . S
C1426 C1424 1.394 . S
C1426 C1427 1.369 . S
C1426 C1430 1.531 . S
C1427 C1426 1.369 . S
C1427 C1428 1.410 . S
C1427 C1435 1.503 . S
C1428 C1427 1.410 . S
C1428 C1429 1.392 . S
C1428 C1431 1.511 . S
C1429 C1425 1.376 . S
C1429 C1428 1.392 . S
C1429 H1441 0.929 . S
C1430 C1426 1.531 . S
C1430 H1442 0.960 . S
C1430 H1443 0.962 . S
C1430 H1444 0.960 . S
C1431 C1428 1.511 . S
C1431 H1445 0.961 . S
C1431 H1446 0.961 . S
C1431 H1447 0.961 . S
C1432 C1433 1.370 . S
C1432 C1434 1.363 . S
C1432 H1448 0.931 . S
C1433 C1432 1.370 . S
C1433 C1437 1.408 . S
C1434 C1432 1.363 . S
C1434 C1435 1.370 . S
C1434 C1438 1.524 . S
C1435 C1427 1.503 . S
C1435 C1434 1.370 . S
C1435 C1436 1.403 . S
C1436 C1435 1.403 . S
C1436 C1437 1.404 . S
C1436 C1439 1.539 . S
C1437 C1433 1.408 . S
C1437 C1436 1.404 . S
C1437 H1449 0.930 . S
C1438 C1434 1.524 . S
C1438 H1450 0.956 . S
C1438 H1451 0.961 . S
C1438 H1452 0.961 . S
C1439 C1436 1.539 . S
C1439 H1453 0.958 . S
C1439 H1454 0.961 . S
C1439 H1455 0.960 . S
H1440 C1424 0.931 . S
H1441 C1429 0.929 . S
H1442 C1430 0.960 . S
H1443 C1430 0.962 . S
H1444 C1430 0.960 . S
H1445 C1431 0.961 . S
H1446 C1431 0.961 . S
H1447 C1431 0.961 . S
H1448 C1432 0.931 . S
H1449 C1437 0.930 . S
H1450 C1438 0.956 . S
H1451 C1438 0.961 . S
H1452 C1438 0.961 . S
H1453 C1439 0.958 . S
H1454 C1439 0.961 . S
H1455 C1439 0.960 . S
C1456 C1457 1.391 . S
C1456 C1458 1.394 . S
C1456 H1472 0.931 . S
C1457 C1456 1.391 . S
C1457 C1461 1.376 . S
C1458 C1456 1.394 . S
C1458 C1459 1.369 . S
C1458 C1462 1.531 . S
C1459 C1458 1.369 . S
C1459 C1460 1.410 . S
C1459 C1467 1.503 . S
C1460 C1459 1.410 . S
C1460 C1461 1.392 . S
C1460 C1463 1.511 . S
C1461 C1457 1.376 . S
C1461 C1460 1.392 . S
C1461 H1473 0.929 . S
C1462 C1458 1.531 . S
C1462 H1474 0.960 . S
C1462 H1475 0.962 . S
C1462 H1476 0.960 . S
C1463 C1460 1.511 . S
C1463 H1477 0.961 . S
C1463 H1478 0.961 . S
C1463 H1479 0.961 . S
C1464 C1465 1.370 . S
C1464 C1466 1.363 . S
C1464 H1480 0.931 . S
C1465 C1464 1.370 . S
C1465 C1469 1.408 . S
C1466 C1464 1.363 . S
C1466 C1467 1.370 . S
C1466 C1470 1.524 . S
C1467 C1459 1.503 . S
C1467 C1466 1.370 . S
C1467 C1468 1.403 . S
C1468 C1467 1.403 . S
C1468 C1469 1.404 . S
C1468 C1471 1.539 . S
C1469 C1465 1.408 . S
C1469 C1468 1.404 . S
C1469 H1481 0.930 . S
C1470 C1466 1.524 . S
C1470 H1482 0.956 . S
C1470 H1483 0.961 . S
C1470 H1484 0.961 . S
C1471 C1468 1.539 . S
C1471 H1485 0.958 . S
C1471 H1486 0.961 . S
C1471 H1487 0.960 . S
H1472 C1456 0.931 . S
H1473 C1461 0.929 . S
H1474 C1462 0.960 . S
H1475 C1462 0.962 . S
H1476 C1462 0.960 . S
H1477 C1463 0.961 . S
H1478 C1463 0.961 . S
H1479 C1463 0.961 . S
H1480 C1464 0.931 . S
H1481 C1469 0.930 . S
H1482 C1470 0.956 . S
H1483 C1470 0.961 . S
H1484 C1470 0.961 . S
H1485 C1471 0.958 . S
H1486 C1471 0.961 . S
H1487 C1471 0.960 . S
C1488 C1489 1.391 . S
C1488 C1490 1.394 . S
C1488 H1504 0.931 . S
C1489 C1488 1.391 . S
C1489 C1493 1.376 . S
C1490 C1488 1.394 . S
C1490 C1491 1.369 . S
C1490 C1494 1.531 . S
C1491 C1490 1.369 . S
C1491 C1492 1.410 . S
C1491 C1499 1.503 . S
C1492 C1491 1.410 . S
C1492 C1493 1.392 . S
C1492 C1495 1.511 . S
C1493 C1489 1.376 . S
C1493 C1492 1.392 . S
C1493 H1505 0.929 . S
C1494 C1490 1.531 . S
C1494 H1506 0.960 . S
C1494 H1507 0.962 . S
C1494 H1508 0.960 . S
C1495 C1492 1.511 . S
C1495 H1509 0.961 1_565 S
C1495 H1510 0.961 . S
C1495 H1511 0.961 . S
C1496 C1497 1.370 . S
C1496 C1498 1.363 . S
C1496 H1512 0.931 . S
C1497 C1496 1.370 . S
C1497 C1501 1.408 . S
C1498 C1496 1.363 . S
C1498 C1499 1.370 . S
C1498 C1502 1.524 . S
C1499 C1491 1.503 . S
C1499 C1498 1.370 . S
C1499 C1500 1.403 . S
C1500 C1499 1.403 . S
C1500 C1501 1.404 . S
C1500 C1503 1.539 . S
C1501 C1497 1.408 . S
C1501 C1500 1.404 . S
C1501 H1513 0.930 . S
C1502 C1498 1.524 . S
C1502 H1514 0.956 . S
C1502 H1515 0.961 . S
C1502 H1516 0.961 1_565 S
C1503 C1500 1.539 . S
C1503 H1517 0.958 . S
C1503 H1518 0.961 . S
C1503 H1519 0.960 . S
H1504 C1488 0.931 . S
H1505 C1493 0.929 . S
H1506 C1494 0.960 . S
H1507 C1494 0.962 . S
H1508 C1494 0.960 . S
H1509 C1495 0.961 1_545 S
H1510 C1495 0.961 . S
H1511 C1495 0.961 . S
H1512 C1496 0.931 . S
H1513 C1501 0.930 . S
H1514 C1502 0.956 . S
H1515 C1502 0.961 . S
H1516 C1502 0.961 1_545 S
H1517 C1503 0.958 . S
H1518 C1503 0.961 . S
H1519 C1503 0.960 . S
C1520 C1521 1.391 . S
C1520 C1522 1.394 . S
C1520 H1536 0.931 . S
C1521 C1520 1.391 . S
C1521 C1525 1.376 . S
C1522 C1520 1.394 . S
C1522 C1523 1.369 . S
C1522 C1526 1.531 . S
C1523 C1522 1.369 . S
C1523 C1524 1.410 . S
C1523 C1531 1.503 . S
C1524 C1523 1.410 . S
C1524 C1525 1.392 . S
C1524 C1527 1.511 . S
C1525 C1521 1.376 . S
C1525 C1524 1.392 . S
C1525 H1537 0.929 . S
C1526 C1522 1.531 . S
C1526 H1538 0.960 . S
C1526 H1539 0.962 . S
C1526 H1540 0.960 . S
C1527 C1524 1.511 . S
C1527 H1541 0.961 . S
C1527 H1542 0.961 . S
C1527 H1543 0.961 . S
C1528 C1529 1.370 . S
C1528 C1530 1.363 . S
C1528 H1544 0.931 . S
C1529 C1528 1.370 . S
C1529 C1533 1.408 . S
C1530 C1528 1.363 . S
C1530 C1531 1.370 . S
C1530 C1534 1.524 . S
C1531 C1523 1.503 . S
C1531 C1530 1.370 . S
C1531 C1532 1.403 . S
C1532 C1531 1.403 . S
C1532 C1533 1.404 . S
C1532 C1535 1.539 . S
C1533 C1529 1.408 . S
C1533 C1532 1.404 . S
C1533 H1545 0.930 . S
C1534 C1530 1.524 . S
C1534 H1546 0.956 . S
C1534 H1547 0.961 . S
C1534 H1548 0.961 . S
C1535 C1532 1.539 . S
C1535 H1549 0.958 . S
C1535 H1550 0.961 . S
C1535 H1551 0.960 . S
H1536 C1520 0.931 . S
H1537 C1525 0.929 . S
H1538 C1526 0.960 . S
H1539 C1526 0.962 . S
H1540 C1526 0.960 . S
H1541 C1527 0.961 . S
H1542 C1527 0.961 . S
H1543 C1527 0.961 . S
H1544 C1528 0.931 . S
H1545 C1533 0.930 . S
H1546 C1534 0.956 . S
H1547 C1534 0.961 . S
H1548 C1534 0.961 . S
H1549 C1535 0.958 . S
H1550 C1535 0.961 . S
H1551 C1535 0.960 . S
C1552 C1553 1.391 . S
C1552 C1554 1.394 . S
C1552 H1568 0.931 . S
C1553 C1552 1.391 . S
C1553 C1557 1.376 . S
C1554 C1552 1.394 . S
C1554 C1555 1.369 . S
C1554 C1558 1.531 . S
C1555 C1554 1.369 . S
C1555 C1556 1.410 . S
C1555 C1563 1.503 . S
C1556 C1555 1.410 . S
C1556 C1557 1.392 . S
C1556 C1559 1.511 . S
C1557 C1553 1.376 . S
C1557 C1556 1.392 . S
C1557 H1569 0.929 . S
C1558 C1554 1.531 . S
C1558 H1570 0.960 . S
C1558 H1571 0.962 . S
C1558 H1572 0.960 . S
C1559 C1556 1.511 . S
C1559 H1573 0.961 . S
C1559 H1574 0.961 . S
C1559 H1575 0.961 . S
C1560 C1561 1.370 . S
C1560 C1562 1.363 . S
C1560 H1576 0.931 . S
C1561 C1560 1.370 . S
C1561 C1565 1.408 . S
C1562 C1560 1.363 . S
C1562 C1563 1.370 . S
C1562 C1566 1.524 . S
C1563 C1555 1.503 . S
C1563 C1562 1.370 . S
C1563 C1564 1.403 . S
C1564 C1563 1.403 . S
C1564 C1565 1.404 . S
C1564 C1567 1.539 . S
C1565 C1561 1.408 . S
C1565 C1564 1.404 . S
C1565 H1577 0.930 . S
C1566 C1562 1.524 . S
C1566 H1578 0.956 . S
C1566 H1579 0.961 . S
C1566 H1580 0.961 . S
C1567 C1564 1.539 . S
C1567 H1581 0.958 . S
C1567 H1582 0.961 . S
C1567 H1583 0.960 . S
H1568 C1552 0.931 . S
H1569 C1557 0.929 . S
H1570 C1558 0.960 . S
H1571 C1558 0.962 . S
H1572 C1558 0.960 . S
H1573 C1559 0.961 . S
H1574 C1559 0.961 . S
H1575 C1559 0.961 . S
H1576 C1560 0.931 . S
H1577 C1565 0.930 . S
H1578 C1566 0.956 . S
H1579 C1566 0.961 . S
H1580 C1566 0.961 . S
H1581 C1567 0.958 . S
H1582 C1567 0.961 . S
H1583 C1567 0.960 . S
C817 C391 2.389 . S
C825 C554 2.334 . S
C857 C638 2.371 . S
C849 C451 2.380 . S
C889 C704 2.285 . S
C881 C241 2.152 . S
C921 C788 2.267 . S
C913 C331 2.155 . S
C953 C543 2.346 1_565 S
C945 C121 2.086 . S
C977 C211 2.319 . S
C985 C627 2.370 . S
C1009 C31 2.453 . S
C1017 C715 2.279 . S
C1041 C91 2.271 . S
C1049 C799 2.250 . S
C1081 C550 0.651 1_455 S
C1073 C301 0.681 . S
C1113 C634 0.558 1_545 S
C1105 C380 0.630 . S
C1145 C706 0.560 . S
C1137 C440 0.494 . S
C1169 C260 0.732 . S
C1177 C790 0.632 . S
C1201 C61 0.581 1_556 S
C1209 C538 0.632 . S
C1241 C622 0.561 . S
C1233 C140 0.527 . S
C1273 C718 0.588 . S
C1265 C200 0.570 1_556 S
C1297 C20 0.611 1_556 S
C1305 C802 0.636 . S
C1329 C320 2.851 . S
C1337 C547 2.910 . S
C1361 C361 2.520 . S
C1369 C631 2.886 . S
C1401 C711 2.938 . S
C1393 C421 2.387 . S
C1433 C795 2.966 . S
C1425 C271 2.718 . S
C1457 C80 2.904 . S
C1465 C536 2.926 . S
C1497 C620 2.874 . S
C1489 C151 2.899 . S
C1529 C722 2.940 . S
C1521 C181 2.374 . S
C1553 C1 2.371 . S
C1561 C806 2.974 . S
