# Generated by pormake.
# Topology eea, (3,6)-cn, num edge types: 1
# Building blocks:
#     Node 0, Type 0, BuildingBlock: PAMTOO_clean_linker_0, # of connection points: 3
#     Node 1, Type 0, BuildingBlock: PAMTOO_clean_linker_0, # of connection points: 3
#     Node 2, Type 0, BuildingBlock: PAMTOO_clean_linker_0, # of connection points: 3
#     Node 3, Type 0, BuildingBlock: PAMTOO_clean_linker_0, # of connection points: 3
#     Node 4, Type 0, BuildingBlock: PAMTOO_clean_linker_0, # of connection points: 3
#     Node 5, Type 0, BuildingBlock: PAMTOO_clean_linker_0, # of connection points: 3
#     Node 6, Type 0, BuildingBlock: PAMTOO_clean_linker_0, # of connection points: 3
#     Node 7, Type 0, BuildingBlock: PAMTOO_clean_linker_0, # of connection points: 3
#     Node 8, Type 0, BuildingBlock: PAMTOO_clean_linker_0, # of connection points: 3
#     Node 9, Type 0, BuildingBlock: PAMTOO_clean_linker_0, # of connection points: 3
#     Node 10, Type 0, BuildingBlock: PAMTOO_clean_linker_0, # of connection points: 3
#     Node 11, Type 0, BuildingBlock: PAMTOO_clean_linker_0, # of connection points: 3
#     Node 12, Type 0, BuildingBlock: PAMTOO_clean_linker_0, # of connection points: 3
#     Node 13, Type 0, BuildingBlock: PAMTOO_clean_linker_0, # of connection points: 3
#     Node 14, Type 0, BuildingBlock: PAMTOO_clean_linker_0, # of connection points: 3
#     Node 15, Type 0, BuildingBlock: PAMTOO_clean_linker_0, # of connection points: 3
#     Node 16, Type 0, BuildingBlock: PAMTOO_clean_linker_0, # of connection points: 3
#     Node 17, Type 0, BuildingBlock: PAMTOO_clean_linker_0, # of connection points: 3
#     Node 18, Type 1, BuildingBlock: HISSIN_clean_sbu_0, # of connection points: 6
#     Node 19, Type 1, BuildingBlock: HISSIN_clean_sbu_0, # of connection points: 6
#     Node 20, Type 1, BuildingBlock: HISSIN_clean_sbu_0, # of connection points: 6
#     Node 21, Type 1, BuildingBlock: HISSIN_clean_sbu_0, # of connection points: 6
#     Node 22, Type 1, BuildingBlock: HISSIN_clean_sbu_0, # of connection points: 6
#     Node 23, Type 1, BuildingBlock: HISSIN_clean_sbu_0, # of connection points: 6
#     Node 24, Type 1, BuildingBlock: HISSIN_clean_sbu_0, # of connection points: 6
#     Node 25, Type 1, BuildingBlock: HISSIN_clean_sbu_0, # of connection points: 6
#     Node 26, Type 1, BuildingBlock: HISSIN_clean_sbu_0, # of connection points: 6
#     Edge 27, Type (0, 1), BuildingBlock: EZIPEK_clean_linker_0, # of connection points: 2
#     Edge 28, Type (0, 1), BuildingBlock: EZIPEK_clean_linker_0, # of connection points: 2
#     Edge 29, Type (0, 1), BuildingBlock: EZIPEK_clean_linker_0, # of connection points: 2
#     Edge 30, Type (0, 1), BuildingBlock: EZIPEK_clean_linker_0, # of connection points: 2
#     Edge 31, Type (0, 1), BuildingBlock: EZIPEK_clean_linker_0, # of connection points: 2
#     Edge 32, Type (0, 1), BuildingBlock: EZIPEK_clean_linker_0, # of connection points: 2
#     Edge 33, Type (0, 1), BuildingBlock: EZIPEK_clean_linker_0, # of connection points: 2
#     Edge 34, Type (0, 1), BuildingBlock: EZIPEK_clean_linker_0, # of connection points: 2
#     Edge 35, Type (0, 1), BuildingBlock: EZIPEK_clean_linker_0, # of connection points: 2
#     Edge 36, Type (0, 1), BuildingBlock: EZIPEK_clean_linker_0, # of connection points: 2
#     Edge 37, Type (0, 1), BuildingBlock: EZIPEK_clean_linker_0, # of connection points: 2
#     Edge 38, Type (0, 1), BuildingBlock: EZIPEK_clean_linker_0, # of connection points: 2
#     Edge 39, Type (0, 1), BuildingBlock: EZIPEK_clean_linker_0, # of connection points: 2
#     Edge 40, Type (0, 1), BuildingBlock: EZIPEK_clean_linker_0, # of connection points: 2
#     Edge 41, Type (0, 1), BuildingBlock: EZIPEK_clean_linker_0, # of connection points: 2
#     Edge 42, Type (0, 1), BuildingBlock: EZIPEK_clean_linker_0, # of connection points: 2
#     Edge 43, Type (0, 1), BuildingBlock: EZIPEK_clean_linker_0, # of connection points: 2
#     Edge 44, Type (0, 1), BuildingBlock: EZIPEK_clean_linker_0, # of connection points: 2
#     Edge 45, Type (0, 1), BuildingBlock: EZIPEK_clean_linker_0, # of connection points: 2
#     Edge 46, Type (0, 1), BuildingBlock: EZIPEK_clean_linker_0, # of connection points: 2
#     Edge 47, Type (0, 1), BuildingBlock: EZIPEK_clean_linker_0, # of connection points: 2
#     Edge 48, Type (0, 1), BuildingBlock: EZIPEK_clean_linker_0, # of connection points: 2
#     Edge 49, Type (0, 1), BuildingBlock: EZIPEK_clean_linker_0, # of connection points: 2
#     Edge 50, Type (0, 1), BuildingBlock: EZIPEK_clean_linker_0, # of connection points: 2
#     Edge 51, Type (0, 1), BuildingBlock: EZIPEK_clean_linker_0, # of connection points: 2
#     Edge 52, Type (0, 1), BuildingBlock: EZIPEK_clean_linker_0, # of connection points: 2
#     Edge 53, Type (0, 1), BuildingBlock: EZIPEK_clean_linker_0, # of connection points: 2
#     Edge 54, Type (0, 1), BuildingBlock: EZIPEK_clean_linker_0, # of connection points: 2
#     Edge 55, Type (0, 1), BuildingBlock: EZIPEK_clean_linker_0, # of connection points: 2
#     Edge 56, Type (0, 1), BuildingBlock: EZIPEK_clean_linker_0, # of connection points: 2
#     Edge 57, Type (0, 1), BuildingBlock: EZIPEK_clean_linker_0, # of connection points: 2
#     Edge 58, Type (0, 1), BuildingBlock: EZIPEK_clean_linker_0, # of connection points: 2
#     Edge 59, Type (0, 1), BuildingBlock: EZIPEK_clean_linker_0, # of connection points: 2
#     Edge 60, Type (0, 1), BuildingBlock: EZIPEK_clean_linker_0, # of connection points: 2
#     Edge 61, Type (0, 1), BuildingBlock: EZIPEK_clean_linker_0, # of connection points: 2
#     Edge 62, Type (0, 1), BuildingBlock: EZIPEK_clean_linker_0, # of connection points: 2
#     Edge 63, Type (0, 1), BuildingBlock: EZIPEK_clean_linker_0, # of connection points: 2
#     Edge 64, Type (0, 1), BuildingBlock: EZIPEK_clean_linker_0, # of connection points: 2
#     Edge 65, Type (0, 1), BuildingBlock: EZIPEK_clean_linker_0, # of connection points: 2
#     Edge 66, Type (0, 1), BuildingBlock: EZIPEK_clean_linker_0, # of connection points: 2
#     Edge 67, Type (0, 1), BuildingBlock: EZIPEK_clean_linker_0, # of connection points: 2
#     Edge 68, Type (0, 1), BuildingBlock: EZIPEK_clean_linker_0, # of connection points: 2
#     Edge 69, Type (0, 1), BuildingBlock: EZIPEK_clean_linker_0, # of connection points: 2
#     Edge 70, Type (0, 1), BuildingBlock: EZIPEK_clean_linker_0, # of connection points: 2
#     Edge 71, Type (0, 1), BuildingBlock: EZIPEK_clean_linker_0, # of connection points: 2
#     Edge 72, Type (0, 1), BuildingBlock: EZIPEK_clean_linker_0, # of connection points: 2
#     Edge 73, Type (0, 1), BuildingBlock: EZIPEK_clean_linker_0, # of connection points: 2
#     Edge 74, Type (0, 1), BuildingBlock: EZIPEK_clean_linker_0, # of connection points: 2
#     Edge 75, Type (0, 1), BuildingBlock: EZIPEK_clean_linker_0, # of connection points: 2
#     Edge 76, Type (0, 1), BuildingBlock: EZIPEK_clean_linker_0, # of connection points: 2
#     Edge 77, Type (0, 1), BuildingBlock: EZIPEK_clean_linker_0, # of connection points: 2
#     Edge 78, Type (0, 1), BuildingBlock: EZIPEK_clean_linker_0, # of connection points: 2
#     Edge 79, Type (0, 1), BuildingBlock: EZIPEK_clean_linker_0, # of connection points: 2
#     Edge 80, Type (0, 1), BuildingBlock: EZIPEK_clean_linker_0, # of connection points: 2
# Relax obj value: 0.059
# Max RMSD: 0.226
# Mean RMSD: 0.161
data_MOF--net-eea--node1-HISSIN_clean_sbu_0--node2-PAMTOO_clean_linker_0--edge1-EZIPEK_clean_linker_0
_symmetry_space_group_name_H-M    P1
_symmetry_Int_Tables_number       1
_symmetry_cell_setting            triclinic
loop_
_symmetry_equiv_pos_as_xyz
'x, y, z'
_cell_length_a     39.353373
_cell_length_b     39.911656
_cell_length_c     54.70616
_cell_angle_alpha  93.089696
_cell_angle_beta   92.877756
_cell_angle_gamma 119.98027
loop_
_atom_site_label
_atom_site_type_symbol
_atom_site_fract_x
_atom_site_fract_y
_atom_site_fract_z
_atom_type_partial_charge
H0 H 0.26568 0.06023 0.42801 0.0
H1 H 0.26356 0.16703 0.43465 0.0
H2 H 0.2237 0.09574 0.36598 0.0
H3 H 0.2728 0.18664 0.36506 0.0
C4 C 0.25891 0.19276 0.38051 0.0
O5 O 0.23226 0.15872 0.38967 0.0
H6 H 0.28403 0.21095 0.3945 0.0
C7 C 0.25946 0.08104 0.41993 0.0
C8 C 0.24399 0.07413 0.39536 0.0
C9 C 0.26715 0.11481 0.43407 0.0
C10 C 0.2583 0.1412 0.42368 0.0
C11 C 0.24269 0.13433 0.39916 0.0
C12 C 0.23609 0.10112 0.38488 0.0
H13 H 0.97609 0.22075 0.43402 0.0
H14 H 0.87622 0.10752 0.44007 0.0
H15 H 0.93963 0.12928 0.37572 0.0
H16 H 0.8445 0.08338 0.37105 0.0
C17 C 0.84244 0.06619 0.38678 0.0
O18 O 0.87959 0.07734 0.39734 0.0
H19 H 0.826 0.07367 0.39987 0.0
C20 C 0.95633 0.19106 0.42643 0.0
C21 C 0.96194 0.17792 0.40344 0.0
C22 C 0.92532 0.16569 0.43969 0.0
C23 C 0.90018 0.1272 0.42992 0.0
C24 C 0.90484 0.11427 0.40674 0.0
C25 C 0.93572 0.13959 0.3935 0.0
H26 H 0.82376 0.7594 0.43633 0.0
H27 H 0.93695 0.76691 0.44236 0.0
H28 H 0.90215 0.80631 0.37937 0.0
H29 H 0.94415 0.75308 0.37513 0.0
C30 C 0.96769 0.77238 0.38967 0.0
O31 O 0.95883 0.7986 0.40089 0.0
H32 H 0.96735 0.75229 0.40311 0.0
C33 C 0.85153 0.76713 0.42889 0.0
C34 C 0.85962 0.78355 0.40636 0.0
C35 C 0.87912 0.76071 0.44191 0.0
C36 C 0.9153 0.7714 0.43234 0.0
C37 C 0.92351 0.78753 0.4097 0.0
C38 C 0.89557 0.79341 0.39669 0.0
H39 H 0.06756 0.26081 0.58249 0.0
H40 H 0.16557 0.24215 0.57633 0.0
H41 H 0.09635 0.20401 0.63799 0.0
H42 H 0.19155 0.24996 0.64521 0.0
C43 C 0.1939 0.23295 0.62931 0.0
O44 O 0.15718 0.20851 0.61713 0.0
H45 H 0.21287 0.25534 0.61725 0.0
C46 C 0.08612 0.2501 0.58977 0.0
C47 C 0.07799 0.23188 0.61177 0.0
C48 C 0.11774 0.25397 0.57694 0.0
C49 C 0.14124 0.23945 0.58618 0.0
C50 C 0.13397 0.22203 0.60835 0.0
C51 C 0.10231 0.21815 0.62109 0.0
H52 H 0.75477 0.79931 0.59071 0.0
H53 H 0.77137 0.91224 0.57989 0.0
H54 H 0.80788 0.89096 0.64979 0.0
H55 H 0.75122 0.93551 0.63749 0.0
C56 C 0.7758 0.95553 0.62715 0.0
O57 O 0.80207 0.94245 0.62463 0.0
H58 H 0.76151 0.9543 0.6088 0.0
C59 C 0.76455 0.82891 0.59781 0.0
C60 C 0.78255 0.8424 0.62186 0.0
C61 C 0.76012 0.85402 0.58274 0.0
C62 C 0.77419 0.89261 0.59165 0.0
C63 C 0.79011 0.90556 0.61602 0.0
C64 C 0.79422 0.88044 0.63119 0.0
H65 H 0.21305 0.93914 0.58897 0.0
H66 H 0.09342 0.84747 0.57495 0.0
H67 H 0.13114 0.91181 0.6449 0.0
H68 H 0.08353 0.8216 0.64125 0.0
C69 C 0.06095 0.81985 0.62737 0.0
O70 O 0.07304 0.85567 0.61875 0.0
H71 H 0.05909 0.79906 0.61225 0.0
C72 C 0.18494 0.92132 0.59611 0.0
C73 C 0.17902 0.92762 0.62091 0.0
C74 C 0.15467 0.89224 0.57975 0.0
C75 C 0.11693 0.87018 0.58742 0.0
C76 C 0.10949 0.87723 0.61126 0.0
C77 C 0.1398 0.90632 0.62753 0.0
H78 H 0.94666 0.41259 0.76768 0.0
H79 H 0.93234 0.51242 0.76757 0.0
H80 H 0.89493 0.43276 0.7028 0.0
H81 H 0.93734 0.52301 0.69575 0.0
C82 C 0.92502 0.53018 0.71167 0.0
O83 O 0.90013 0.4969 0.72229 0.0
H84 H 0.95142 0.54968 0.7245 0.0
C85 C 0.93779 0.43042 0.75806 0.0
C86 C 0.92053 0.41881 0.73374 0.0
C87 C 0.94222 0.46439 0.77018 0.0
C88 C 0.9295 0.48661 0.75798 0.0
C89 C 0.91314 0.47567 0.73361 0.0
C90 C 0.90866 0.44178 0.72146 0.0
H91 H 0.63995 0.55122 0.76552 0.0
H92 H 0.54266 0.43695 0.77263 0.0
H93 H 0.60471 0.45934 0.70766 0.0
H94 H 0.50972 0.41106 0.70347 0.0
C95 C 0.50835 0.39489 0.71964 0.0
O96 O 0.54586 0.40677 0.72987 0.0
H97 H 0.49222 0.40298 0.73263 0.0
C98 C 0.62076 0.5213 0.75815 0.0
C99 C 0.62629 0.50823 0.73513 0.0
C100 C 0.5905 0.49557 0.77168 0.0
C101 C 0.56608 0.45684 0.76223 0.0
C102 C 0.57067 0.44392 0.73904 0.0
C103 C 0.60083 0.46957 0.72548 0.0
H104 H 0.49158 0.08604 0.77118 0.0
H105 H 0.60007 0.08419 0.77067 0.0
H106 H 0.56551 0.13141 0.712 0.0
H107 H 0.66339 0.15816 0.75445 0.0
C108 C 0.65466 0.15198 0.73436 0.0
O109 O 0.61991 0.11699 0.72939 0.0
H110 H 0.65018 0.17628 0.7295 0.0
C111 C 0.51819 0.09252 0.76259 0.0
C112 C 0.52528 0.10967 0.7403 0.0
C113 C 0.54503 0.08325 0.7737 0.0
C114 C 0.5793 0.09147 0.76235 0.0
C115 C 0.5869 0.10922 0.74026 0.0
C116 C 0.55979 0.11813 0.72921 0.0
H117 H 0.73059 0.59612 0.91737 0.0
H118 H 0.83394 0.58762 0.90739 0.0
H119 H 0.76712 0.54001 0.96905 0.0
H120 H 0.86268 0.59418 0.97461 0.0
C121 C 0.86558 0.57643 0.95941 0.0
O122 O 0.82928 0.55136 0.94689 0.0
H123 H 0.88485 0.59815 0.94712 0.0
C124 C 0.7512 0.58718 0.92362 0.0
C125 C 0.74496 0.56722 0.94484 0.0
C126 C 0.78314 0.59451 0.90997 0.0
C127 C 0.8093 0.58221 0.91785 0.0
C128 C 0.804 0.56326 0.93942 0.0
C129 C 0.77172 0.55558 0.95278 0.0
H130 H 0.40213 0.11942 0.92785 0.0
H131 H 0.40622 0.22909 0.92615 0.0
H132 H 0.45734 0.20566 0.98869 0.0
H133 H 0.41255 0.25696 0.99589 0.0
C134 C 0.41993 0.26872 0.97772 0.0
O135 O 0.44487 0.25714 0.96857 0.0
H136 H 0.39238 0.25663 0.96527 0.0
C137 C 0.40718 0.14651 0.93658 0.0
C138 C 0.4296 0.15923 0.95946 0.0
C139 C 0.39358 0.16924 0.92529 0.0
C140 C 0.41013 0.20801 0.93563 0.0
C141 C 0.43162 0.22055 0.95867 0.0
C142 C 0.44029 0.19571 0.97097 0.0
H143 H 0.87071 0.27932 0.91683 0.0
H144 H 0.75574 0.17672 0.90796 0.0
H145 H 0.79282 0.25336 0.97439 0.0
H146 H 0.75099 0.1617 0.97663 0.0
C147 C 0.72762 0.15534 0.96187 0.0
O148 O 0.73545 0.18875 0.95119 0.0
H149 H 0.72924 0.1346 0.94823 0.0
C150 C 0.84281 0.26038 0.92401 0.0
C151 C 0.83505 0.27037 0.94714 0.0
C152 C 0.81444 0.22662 0.90981 0.0
C153 C 0.77801 0.20267 0.91893 0.0
C154 C 0.77049 0.21194 0.94241 0.0
C155 C 0.79901 0.24583 0.95648 0.0
H156 H 0.6103 0.7316 0.09158 0.0
H157 H 0.60512 0.83676 0.09721 0.0
H158 H 0.56011 0.76094 0.03038 0.0
H159 H 0.60935 0.85356 0.02772 0.0
C160 C 0.59583 0.85948 0.04346 0.0
O161 O 0.57026 0.82539 0.05302 0.0
H162 H 0.62135 0.87828 0.05706 0.0
C163 C 0.60295 0.75155 0.08333 0.0
C164 C 0.58488 0.74259 0.05932 0.0
C165 C 0.61049 0.7856 0.09699 0.0
C166 C 0.59986 0.8107 0.08655 0.0
C167 C 0.58212 0.80203 0.06248 0.0
C168 C 0.57475 0.76805 0.04879 0.0
H169 H 0.32082 0.88371 0.10141 0.0
H170 H 0.21891 0.77596 0.11479 0.0
H171 H 0.26767 0.7879 0.04508 0.0
H172 H 0.17497 0.74853 0.04853 0.0
C173 C 0.17465 0.73017 0.06317 0.0
O174 O 0.21254 0.74051 0.07166 0.0
H175 H 0.1599 0.73672 0.07796 0.0
C176 C 0.29839 0.85409 0.09517 0.0
C177 C 0.29796 0.83842 0.07147 0.0
C178 C 0.26959 0.83189 0.1107 0.0
C179 C 0.24099 0.79343 0.10278 0.0
C180 C 0.24018 0.77765 0.07911 0.0
C181 C 0.2684 0.80023 0.06337 0.0
H182 H 0.15646 0.42487 0.1047 0.0
H183 H 0.27059 0.43461 0.11123 0.0
H184 H 0.23517 0.47306 0.04802 0.0
H185 H 0.2779 0.42002 0.04463 0.0
C186 C 0.30154 0.4401 0.0589 0.0
O187 O 0.29224 0.46621 0.06975 0.0
H188 H 0.302 0.42078 0.07267 0.0
C189 C 0.18442 0.43312 0.09736 0.0
C190 C 0.19251 0.44974 0.0749 0.0
C191 C 0.21228 0.42723 0.11046 0.0
C192 C 0.24873 0.43867 0.10111 0.0
C193 C 0.25685 0.45481 0.07849 0.0
C194 C 0.22864 0.46013 0.06534 0.0
H195 H 0.39321 0.92446 0.24892 0.0
H196 H 0.49456 0.91348 0.23657 0.0
H197 H 0.43281 0.87096 0.30076 0.0
H198 H 0.52746 0.92242 0.30368 0.0
C199 C 0.52928 0.90425 0.28826 0.0
O200 O 0.49228 0.87914 0.27661 0.0
H201 H 0.54776 0.92561 0.27553 0.0
C202 C 0.41383 0.91532 0.25476 0.0
C203 C 0.40927 0.89698 0.27654 0.0
C204 C 0.44462 0.92148 0.2403 0.0
C205 C 0.47086 0.90902 0.24769 0.0
C206 C 0.46695 0.89125 0.26965 0.0
C207 C 0.43614 0.88524 0.28402 0.0
H208 H 0.07314 0.453 0.26306 0.0
H209 H 0.09926 0.56829 0.25218 0.0
H210 H 0.13448 0.54662 0.3212 0.0
H211 H 0.09385 0.59521 0.32155 0.0
C212 C 0.1078 0.61066 0.30538 0.0
O213 O 0.13192 0.59789 0.29647 0.0
H214 H 0.08245 0.60266 0.29171 0.0
C215 C 0.08436 0.4824 0.27096 0.0
C216 C 0.09972 0.49393 0.29598 0.0
C217 C 0.08374 0.50891 0.25536 0.0
C218 C 0.10016 0.54782 0.26404 0.0
C219 C 0.11727 0.56041 0.28804 0.0
C220 C 0.11827 0.53417 0.30357 0.0
H221 H 0.53984 0.60736 0.25085 0.0
H222 H 0.42481 0.50635 0.245 0.0
H223 H 0.46361 0.5849 0.30942 0.0
H224 H 0.42856 0.5106 0.32143 0.0
C225 C 0.40619 0.49444 0.30558 0.0
O226 O 0.40764 0.51998 0.28895 0.0
H227 H 0.41355 0.47413 0.29569 0.0
C228 C 0.51334 0.58912 0.25952 0.0
C229 C 0.5095 0.59835 0.28421 0.0
C230 C 0.48333 0.55612 0.24544 0.0
C231 C 0.44776 0.53252 0.25545 0.0
C232 C 0.44158 0.54313 0.27884 0.0
C233 C 0.47141 0.57684 0.29246 0.0
Eu234 Eu 0.48803 0.98339 0.97934 0.0
Eu235 Eu 0.51268 0.02316 0.03706 0.0
C236 C 0.47861 0.05543 0.99586 0.0
C237 C 0.48323 0.97604 0.90971 0.0
C238 C 0.48455 0.01135 0.90631 0.0
C239 C 0.50537 0.97613 0.86897 0.0
C240 C 0.49558 0.02854 0.88427 0.0
C241 C 0.49391 0.95871 0.89092 0.0
C242 C 0.50597 0.01101 0.86541 0.0
C243 C 0.47185 0.95758 0.93291 0.0
O244 O 0.46086 0.96334 0.03817 0.0
O245 O 0.43212 0.95412 0.99898 0.0
C246 C 0.43031 0.94554 0.02194 0.0
O247 O 0.49914 0.94285 1.00064 0.0
O248 O 0.49942 0.04852 0.06885 0.0
O249 O 0.54943 0.03998 0.07196 0.0
O250 O 0.54293 0.98845 0.0308 0.0
C251 C 0.52759 0.95437 0.01822 0.0
O252 O 0.55373 0.02494 0.98321 0.0
O253 O 0.55976 0.0673 0.01565 0.0
O254 O 0.47588 0.04522 0.01842 0.0
O255 O 0.49998 0.95797 0.94682 0.0
O256 O 0.44902 0.96543 0.94559 0.0
O257 O 0.49137 0.04104 0.97906 0.0
C258 C 0.51274 0.03003 0.10656 0.0
C259 C 0.48398 0.99072 0.10581 0.0
C260 C 0.51269 0.0348 0.15097 0.0
C261 C 0.46866 0.97401 0.12742 0.0
C262 C 0.52798 0.05157 0.12935 0.0
C263 C 0.47991 0.99657 0.15042 0.0
C264 C 0.52645 0.04868 0.0837 0.0
C265 C 0.57352 0.05876 0.9963 0.0
H266 H 0.47705 0.02568 0.92066 0.0
H267 H 0.51343 0.96227 0.85466 0.0
H268 H 0.49602 0.05552 0.8819 0.0
H269 H 0.49345 0.9317 0.89325 0.0
H270 H 0.47323 0.97287 0.08846 0.0
H271 H 0.52755 0.05231 0.16797 0.0
H272 H 0.44849 0.94311 0.1256 0.0
H273 H 0.55175 0.08148 0.13049 0.0
Eu274 Eu 0.03479 0.49936 0.98545 0.0
Eu275 Eu 0.99609 0.48345 0.03858 0.0
C276 C 0.95758 0.41989 0.99226 0.0
C277 C 0.04445 0.50442 0.91731 0.0
C278 C 1.00369 0.48182 0.91185 0.0
C279 C 0.05107 0.52153 0.87532 0.0
C280 C 0.98665 0.4801 0.88848 0.0
C281 C 0.06814 0.52328 0.89873 0.0
C282 C 1.0096 0.50278 0.87017 0.0
C283 C 0.0622 0.50872 0.94234 0.0
O284 O 0.05588 0.48974 0.04589 0.0
O285 O 0.06175 0.47011 0.00701 0.0
C286 C 0.07239 0.47689 0.03073 0.0
O287 O 0.07805 0.55051 0.01129 0.0
O288 O 0.97237 0.44323 0.0668 0.0
O289 O 0.97368 0.49817 0.07071 0.0
O290 O 0.03625 0.54851 0.03985 0.0
C291 C 0.06931 0.56713 0.02933 0.0
O292 O 0.99601 0.52626 0.98536 0.0
O293 O 0.95363 0.4913 0.01366 0.0
O294 O 0.96942 0.42572 0.01572 0.0
O295 O 0.06459 0.537 0.95683 0.0
O296 O 0.04981 0.47677 0.95316 0.0
O297 O 0.97387 0.44763 0.9777 0.0
C298 C 0.98324 0.4725 0.10688 0.0
C299 C 0.01942 0.50528 0.11571 0.0
C300 C 0.97862 0.44662 0.14652 0.0
C301 C 0.03491 0.50881 0.13989 0.0
C302 C 0.96301 0.44321 0.12241 0.0
C303 C 0.01458 0.47949 0.15542 0.0
C304 C 0.96727 0.46713 0.08118 0.0
C305 C 0.9629 0.5143 0.99577 0.0
H306 H 0.98494 0.46529 0.92566 0.0
H307 H 0.07115 0.53449 0.86146 0.0
H308 H 0.95542 0.46012 0.88512 0.0
H309 H 0.09993 0.53934 0.9023 0.0
H310 H 0.03575 0.52796 0.10391 0.0
H311 H 0.96263 0.42375 0.15829 0.0
H312 H 0.06273 0.53435 0.14651 0.0
H313 H 0.93529 0.41754 0.1158 0.0
Eu314 Eu 0.54385 0.51213 0.03503 0.0
Eu315 Eu 0.51242 0.5186 0.97838 0.0
C316 C 0.5477 0.59061 0.01933 0.0
C317 C 0.55032 0.51492 0.10452 0.0
C318 C 0.51044 0.50308 0.10648 0.0
C319 C 0.56458 0.5382 0.14787 0.0
C320 C 0.49775 0.50872 0.12896 0.0
C321 C 0.57727 0.53254 0.12537 0.0
C322 C 0.52476 0.52634 0.14979 0.0
C323 C 0.56407 0.50953 0.0808 0.0
O324 O 0.5705 0.5226 0.97355 0.0
O325 O 0.59745 0.53115 0.01345 0.0
C326 C 0.6001 0.53031 0.98949 0.0
O327 O 0.52835 0.45562 0.01429 0.0
O328 O 0.51317 0.55267 0.9482 0.0
O329 O 0.47611 0.49026 0.94391 0.0
O330 O 0.48485 0.45486 0.98431 0.0
C331 C 0.49919 0.43709 0.99713 0.0
O332 O 0.47832 0.48855 0.03485 0.0
O333 O 0.4661 0.51605 1.00199 0.0
O334 O 0.54627 0.57984 0.9961 0.0
O335 O 0.53916 0.47897 0.06628 0.0
O336 O 0.58238 0.5404 0.06894 0.0
O337 O 0.54013 0.56669 0.03643 0.0
C338 C 0.50821 0.52124 0.90928 0.0
C339 C 0.51232 0.48951 0.90108 0.0
C340 C 0.53801 0.55324 0.87314 0.0
C341 C 0.52862 0.48948 0.87899 0.0
C342 C 0.52131 0.55312 0.89514 0.0
C343 C 0.54139 0.52123 0.86482 0.0
C344 C 0.49174 0.52211 0.93286 0.0
C345 C 0.45558 0.49796 0.02206 0.0
H346 H 0.48908 0.48942 0.09064 0.0
H347 H 0.58579 0.55184 0.16379 0.0
H348 H 0.46691 0.49938 0.13013 0.0
H349 H 0.60813 0.54196 0.12423 0.0
H350 H 0.50297 0.46468 0.91168 0.0
H351 H 0.54777 0.57798 0.86241 0.0
H352 H 0.53106 0.46457 0.87283 0.0
H353 H 0.51872 0.57799 0.90115 0.0
Eu354 Eu 0.15901 0.32464 0.31596 0.0
Eu355 Eu 0.18521 0.36271 0.37425 0.0
C356 C 0.14648 0.39345 0.33509 0.0
C357 C 0.15137 0.31864 0.24603 0.0
C358 C 0.14441 0.34906 0.24107 0.0
C359 C 0.1793 0.3241 0.20673 0.0
C360 C 0.15457 0.36659 0.21907 0.0
C361 C 0.16883 0.30632 0.22863 0.0
C362 C 0.17216 0.35429 0.20179 0.0
C363 C 0.14143 0.30006 0.26933 0.0
O364 O 0.13167 0.30401 0.37539 0.0
O365 O 0.10352 0.29433 0.33585 0.0
C366 C 0.10125 0.28639 0.35897 0.0
O367 O 0.16847 0.28207 0.3363 0.0
O368 O 0.17542 0.39011 0.40661 0.0
O369 O 0.22225 0.37671 0.40874 0.0
O370 O 0.21241 0.3255 0.3673 0.0
C371 C 0.19613 0.29183 0.35419 0.0
O372 O 0.22476 0.36575 0.31913 0.0
O373 O 0.23324 0.40655 0.35326 0.0
O374 O 0.14567 0.38266 0.35736 0.0
O375 O 0.17027 0.30056 0.28252 0.0
O376 O 0.11889 0.3072 0.28277 0.0
O377 O 0.16045 0.3816 0.31756 0.0
C378 C 0.18689 0.36786 0.44374 0.0
C379 C 0.14684 0.34068 0.44522 0.0
C380 C 0.2014 0.35698 0.48533 0.0
C381 C 0.13417 0.32216 0.46669 0.0
C382 C 0.21401 0.37582 0.46396 0.0
C383 C 0.16139 0.33004 0.48687 0.0
C384 C 0.20093 0.38702 0.42102 0.0
C385 C 0.24622 0.39805 0.33352 0.0
H386 H 0.13125 0.35943 0.25418 0.0
H387 H 0.19286 0.31426 0.19359 0.0
H388 H 0.14886 0.38986 0.21555 0.0
H389 H 0.17457 0.28303 0.23206 0.0
H390 H 0.12533 0.33359 0.42978 0.0
H391 H 0.22282 0.36338 0.5007 0.0
H392 H 0.1032 0.30142 0.46752 0.0
H393 H 0.24502 0.39643 0.46315 0.0
Eu394 Eu 0.70253 0.83219 0.31461 0.0
Eu395 Eu 0.66471 0.819 0.36768 0.0
C396 C 0.63052 0.75086 0.3242 0.0
C397 C 0.71301 0.83246 0.24593 0.0
C398 C 0.6811 0.79563 0.23738 0.0
C399 C 0.7118 0.85466 0.20563 0.0
C400 C 0.66496 0.78834 0.21306 0.0
C401 C 0.72826 0.86185 0.22987 0.0
C402 C 0.68013 0.81785 0.1971 0.0
C403 C 0.73002 0.84103 0.27159 0.0
O404 O 0.72423 0.82499 0.37581 0.0
O405 O 0.73152 0.80576 0.33709 0.0
C406 C 0.74122 0.81221 0.36093 0.0
O407 O 0.74647 0.88366 0.33994 0.0
O408 O 0.63911 0.78038 0.39651 0.0
O409 O 0.64355 0.83676 0.39919 0.0
O410 O 0.70393 0.88395 0.36698 0.0
C411 C 0.73748 0.90166 0.35691 0.0
O412 O 0.66241 0.85762 0.31391 0.0
O413 O 0.61977 0.82045 0.34119 0.0
O414 O 0.64321 0.76026 0.34752 0.0
O415 O 0.72777 0.86821 0.28446 0.0
O416 O 0.72227 0.81133 0.28397 0.0
O417 O 0.64374 0.77694 0.30829 0.0
C418 C 0.65245 0.81214 0.43599 0.0
C419 C 0.68782 0.84605 0.44462 0.0
C420 C 0.65058 0.78659 0.4755 0.0
C421 C 0.7043 0.85026 0.46859 0.0
C422 C 0.63395 0.7825 0.45159 0.0
C423 C 0.68579 0.82053 0.48412 0.0
C424 C 0.63587 0.80599 0.41039 0.0
C425 C 0.62851 0.84374 0.32355 0.0
H426 H 0.6685 0.77254 0.24946 0.0
H427 H 0.72371 0.87772 0.19349 0.0
H428 H 0.64044 0.75981 0.20672 0.0
H429 H 0.75271 0.89045 0.23617 0.0
H430 H 0.70286 0.86909 0.43281 0.0
H431 H 0.63601 0.76341 0.48731 0.0
H432 H 0.73152 0.87661 0.47502 0.0
H433 H 0.60689 0.75598 0.44514 0.0
Eu434 Eu 0.21247 0.84924 0.36829 0.0
Eu435 Eu 0.1822 0.85417 0.31148 0.0
C436 C 0.21375 0.92604 0.35242 0.0
C437 C 0.21947 0.85177 0.43791 0.0
C438 C 0.1796 0.83926 0.4405 0.0
C439 C 0.23538 0.87683 0.48093 0.0
C440 C 0.16774 0.84549 0.46315 0.0
C441 C 0.24724 0.87061 0.45828 0.0
C442 C 0.19558 0.8643 0.48348 0.0
C443 C 0.23258 0.84631 0.41401 0.0
O444 O 0.23953 0.85536 0.30829 0.0
O445 O 0.26781 0.87398 0.34812 0.0
C446 C 0.27016 0.86848 0.32446 0.0
O447 O 0.20455 0.79687 0.34563 0.0
O448 O 0.18312 0.88782 0.28106 0.0
O449 O 0.14937 0.82522 0.27607 0.0
O450 O 0.15562 0.79111 0.31831 0.0
C451 C 0.17444 0.77602 0.32939 0.0
O452 O 0.14609 0.8217 0.36681 0.0
O453 O 0.1336 0.84897 0.33394 0.0
O454 O 0.2139 0.91555 0.32932 0.0
O455 O 0.20745 0.81584 0.39948 0.0
O456 O 0.25076 0.87729 0.40223 0.0
O457 O 0.20606 0.90213 0.36952 0.0
C458 C 0.18485 0.85829 0.24335 0.0
C459 C 0.21107 0.84424 0.24335 0.0
C460 C 0.20146 0.8783 0.20251 0.0
C461 C 0.23283 0.8478 0.22327 0.0
C462 C 0.17952 0.87453 0.22259 0.0
C463 C 0.23095 0.86768 0.20301 0.0
C464 C 0.16437 0.85733 0.2653 0.0
C465 C 0.12287 0.83041 0.35385 0.0
H466 H 0.15764 0.82467 0.42504 0.0
H467 H 0.25719 0.89135 0.4965 0.0
H468 H 0.1369 0.83562 0.46485 0.0
H469 H 0.27811 0.8806 0.45662 0.0
H470 H 0.21476 0.83036 0.25892 0.0
H471 H 0.19408 0.88887 0.18654 0.0
H472 H 0.2502 0.83383 0.22395 0.0
H473 H 0.15833 0.88433 0.22186 0.0
Eu474 Eu 0.821 0.65831 0.64764 0.0
Eu475 Eu 0.84793 0.69711 0.70592 0.0
C476 C 0.81671 0.73399 0.66596 0.0
C477 C 0.81572 0.65317 0.57788 0.0
C478 C 0.81351 0.6866 0.57384 0.0
C479 C 0.84128 0.656 0.53797 0.0
C480 C 0.82453 0.70416 0.55191 0.0
C481 C 0.82984 0.63816 0.55979 0.0
C482 C 0.83843 0.68896 0.53379 0.0
C483 C 0.80424 0.63415 0.60094 0.0
O484 O 0.79297 0.63922 0.70684 0.0
O485 O 0.76523 0.62779 0.66704 0.0
C486 C 0.76282 0.62059 0.69028 0.0
O487 O 0.83025 0.61604 0.66831 0.0
O488 O 0.83791 0.72299 0.73888 0.0
O489 O 0.88577 0.71111 0.74011 0.0
O490 O 0.87594 0.66076 0.69805 0.0
C491 C 0.85902 0.62655 0.68551 0.0
O492 O 0.88698 0.69774 0.65116 0.0
O493 O 0.89581 0.7401 0.6844 0.0
O494 O 0.8166 0.72581 0.68889 0.0
O495 O 0.83204 0.63337 0.61449 0.0
O496 O 0.78191 0.64214 0.61406 0.0
O497 O 0.82518 0.71651 0.64839 0.0
C498 C 0.85163 0.70272 0.77579 0.0
C499 C 0.82159 0.66393 0.77526 0.0
C500 C 0.85414 0.70755 0.82034 0.0
C501 C 0.80694 0.6476 0.7971 0.0
C502 C 0.86878 0.72393 0.79851 0.0
C503 C 0.82017 0.67018 0.82015 0.0
C504 C 0.86473 0.7213 0.75283 0.0
C505 C 0.90821 0.7311 0.66454 0.0
H506 H 0.80324 0.69918 0.58759 0.0
H507 H 0.85204 0.64392 0.52423 0.0
H508 H 0.82222 0.72963 0.54904 0.0
H509 H 0.83205 0.61262 0.56256 0.0
H510 H 0.80928 0.64622 0.75793 0.0
H511 H 0.8704 0.72466 0.83719 0.0
H512 H 0.78558 0.61698 0.79543 0.0
H513 H 0.89354 0.75332 0.79942 0.0
Eu514 Eu 0.36631 0.15927 0.65162 0.0
Eu515 Eu 0.33046 0.14782 0.70553 0.0
C516 C 0.29635 0.07793 0.6633 0.0
C517 C 0.37224 0.15852 0.58244 0.0
C518 C 0.3386 0.12252 0.57455 0.0
C519 C 0.37026 0.1805 0.54214 0.0
C520 C 0.32126 0.11545 0.55052 0.0
C521 C 0.38786 0.18743 0.56608 0.0
C522 C 0.33699 0.14441 0.53419 0.0
C523 C 0.39084 0.16681 0.60774 0.0
O524 O 0.38948 0.15257 0.71328 0.0
O525 O 0.39712 0.13464 0.67412 0.0
C526 C 0.40664 0.14049 0.69801 0.0
O527 O 0.41153 0.21074 0.67637 0.0
O528 O 0.30361 0.11069 0.73483 0.0
O529 O 0.31114 0.16834 0.73678 0.0
O530 O 0.36978 0.21249 0.70351 0.0
C531 C 0.40313 0.2295 0.69317 0.0
O532 O 0.32688 0.1854 0.65182 0.0
O533 O 0.28465 0.14718 0.67878 0.0
O534 O 0.30949 0.08846 0.6865 0.0
O535 O 0.39047 0.19469 0.62106 0.0
O536 O 0.38303 0.137 0.62004 0.0
O537 O 0.30816 0.10327 0.64689 0.0
C538 C 0.31253 0.14186 0.77416 0.0
C539 C 0.35253 0.16198 0.78295 0.0
C540 C 0.29446 0.12761 0.81562 0.0
C541 C 0.3634 0.16491 0.80809 0.0
C542 C 0.28364 0.12479 0.79061 0.0
C543 C 0.33434 0.14759 0.82449 0.0
C544 C 0.30015 0.13689 0.74789 0.0
C545 C 0.29304 0.17098 0.66151 0.0
H546 H 0.32567 0.09985 0.5869 0.0
H547 H 0.38269 0.20314 0.52974 0.0
H548 H 0.29555 0.08747 0.54463 0.0
H549 H 0.41363 0.21542 0.57187 0.0
H550 H 0.37517 0.17509 0.77039 0.0
H551 H 0.27176 0.11413 0.8281 0.0
H552 H 0.3943 0.18042 0.81473 0.0
H553 H 0.25268 0.109 0.78405 0.0
Eu554 Eu 0.88402 0.19061 0.70239 0.0
Eu555 Eu 0.85388 0.20037 0.64694 0.0
C556 C 0.88598 0.26887 0.68973 0.0
C557 C 0.88966 0.18956 0.77112 0.0
C558 C 0.85143 0.18377 0.77178 0.0
C559 C 0.90064 0.20543 0.81534 0.0
C560 C 0.83779 0.18841 0.79406 0.0
C561 C 0.91419 0.20044 0.79302 0.0
C562 C 0.86235 0.19943 0.81597 0.0
C563 C 0.90395 0.18474 0.74757 0.0
O564 O 0.91971 0.22567 0.64845 0.0
O565 O 0.92806 0.19046 0.67743 0.0
C566 C 0.9396 0.2107 0.65829 0.0
O567 O 0.84686 0.13012 0.68414 0.0
O568 O 0.86311 0.23776 0.61726 0.0
O569 O 0.81589 0.17777 0.61264 0.0
O570 O 0.85263 0.14333 0.64379 0.0
C571 C 0.84332 0.11887 0.66074 0.0
O572 O 0.82658 0.18914 0.70657 0.0
O573 O 0.79844 0.171 0.66667 0.0
O574 O 0.85849 0.24967 0.67163 0.0
O575 O 0.87855 0.15528 0.73255 0.0
O576 O 0.92321 0.21606 0.73632 0.0
O577 O 0.90617 0.25429 0.6997 0.0
C578 C 0.8509 0.20458 0.57799 0.0
C579 C 0.85309 0.17128 0.5711 0.0
C580 C 0.87837 0.23126 0.54007 0.0
C581 C 0.86739 0.16787 0.54877 0.0
C582 C 0.86377 0.23456 0.56232 0.0
C583 C 0.88001 0.19777 0.53308 0.0
C584 C 0.83706 0.20926 0.60185 0.0
C585 C 0.79574 0.17519 0.6904 0.0
H586 H 0.83213 0.17569 0.75507 0.0
H587 H 0.91997 0.21402 0.83212 0.0
H588 H 0.80821 0.18373 0.79422 0.0
H589 H 0.94379 0.20519 0.79284 0.0
H590 H 0.84394 0.14793 0.58297 0.0
H591 H 0.88804 0.25462 0.52817 0.0
H592 H 0.86854 0.14187 0.54369 0.0
H593 H 0.8627 0.26062 0.56737 0.0
C594 C 0.32917 0.89549 0.0464 0.0
C595 C 0.32877 0.86259 0.05531 0.0
C596 C 0.38969 0.87943 0.03615 0.0
C597 C 0.39301 0.91515 0.03049 0.0
N598 N 0.36905 0.96011 0.0337 0.0
N599 N 0.36096 0.82525 0.06124 0.0
C600 C 0.36339 0.92388 0.03631 0.0
C601 C 0.35946 0.85482 0.05068 0.0
N602 N 0.29672 0.89946 0.04746 0.0
N603 N 0.41536 0.86897 0.0275 0.0
H604 H 0.33954 0.80663 0.07209 0.0
H605 H 0.385 0.82103 0.06089 0.0
H606 H 0.43762 0.88631 0.01669 0.0
H607 H 0.41229 0.84171 0.02899 0.0
H608 H 0.2939 0.92093 0.03916 0.0
H609 H 0.27106 0.87901 0.0546 0.0
H610 H 0.35045 0.9695 0.04009 0.0
H611 H 0.39438 0.98203 0.02717 0.0
C612 C 0.16818 0.49507 0.06432 0.0
C613 C 0.1632 0.45727 0.06194 0.0
C614 C 0.09786 0.4319 0.04015 0.0
C615 C 0.10408 0.47019 0.04082 0.0
N616 N 0.14793 0.5392 0.04975 0.0
N617 N 0.12674 0.39091 0.04418 0.0
C618 C 0.14006 0.50209 0.05184 0.0
C619 C 0.12908 0.42605 0.04873 0.0
N620 N 0.19905 0.52399 0.07922 0.0
N621 N 0.06143 0.40096 0.03264 0.0
H622 H 0.14892 0.38555 0.05042 0.0
H623 H 0.10451 0.36819 0.0325 0.0
H624 H 0.03754 0.40418 0.02723 0.0
H625 H 0.05385 0.37217 0.03406 0.0
H626 H 0.20165 0.55082 0.08407 0.0
H627 H 0.22065 0.52024 0.08836 0.0
H628 H 0.17524 0.56372 0.05506 0.0
H629 H 0.12823 0.54553 0.04067 0.0
C630 C 0.53674 0.67187 0.04959 0.0
C631 C 0.57362 0.70464 0.0462 0.0
C632 C 0.59301 0.66312 0.02353 0.0
C633 C 0.55574 0.63038 0.02654 0.0
N634 N 0.4887 0.60487 0.03652 0.0
N635 N 0.63403 0.73345 0.0265 0.0
C636 C 0.52657 0.63514 0.03786 0.0
C637 C 0.60085 0.70088 0.03197 0.0
N638 N 0.51186 0.67567 0.06461 0.0
N639 N 0.62152 0.65798 0.0137 0.0
H640 H 0.64091 0.76143 0.03288 0.0
H641 H 0.65314 0.73306 0.01417 0.0
H642 H 0.61662 0.63095 1.0068 0.0
H643 H 0.65071 0.68 0.0137 0.0
H644 H 0.48695 0.65211 0.07033 0.0
H645 H 0.51742 0.70237 0.07276 0.0
H646 H 0.46522 0.60743 0.04228 0.0
H647 H 0.47993 0.57797 0.02727 0.0
C648 C 0.86046 0.34099 0.95894 0.0
C649 C 0.8645 0.30783 0.96081 0.0
C650 C 0.93043 0.34842 0.98203 0.0
C651 C 0.92524 0.38114 0.98187 0.0
N652 N 0.88261 0.40741 0.9741 0.0
N653 N 0.89975 0.27821 0.97765 0.0
C654 C 0.88945 0.37711 0.97143 0.0
C655 C 0.89837 0.31101 0.97355 0.0
N656 N 0.82964 0.3383 0.9445 0.0
N657 N 0.96666 0.35342 0.98885 0.0
H658 H 0.87687 0.25038 0.97144 0.0
H659 H 0.9219 0.27833 0.98897 0.0
H660 H 0.99123 0.38068 0.99393 0.0
H661 H 0.97334 0.33129 0.98708 0.0
H662 H 0.82773 0.36235 0.93996 0.0
H663 H 0.80726 0.3122 0.93549 0.0
H664 H 0.8555 0.405 0.96923 0.0
H665 H 0.90297 0.43423 0.98322 0.0
C666 C 0.7102 0.57846 0.97915 0.0
C667 C 0.70863 0.55618 0.95758 0.0
C668 C 0.63738 0.51374 0.95925 0.0
C669 C 0.63803 0.53837 0.97943 0.0
N670 N 0.67486 0.59856 1.00557 0.0
N671 N 0.67052 0.50486 0.92547 0.0
C672 C 0.67447 0.5717 0.98877 0.0
C673 C 0.67215 0.52448 0.9472 0.0
N674 N 0.74591 0.60633 0.9904 0.0
N675 N 0.60388 0.47915 0.95207 0.0
H676 H 0.69549 0.50965 0.91694 0.0
H677 H 0.64431 0.48551 0.91502 0.0
H678 H 0.57739 0.46999 0.95977 0.0
H679 H 0.60299 0.45779 0.93981 0.0
H680 H 0.74935 0.62032 0.00774 0.0
H681 H 0.77255 0.61342 0.98327 0.0
H682 H 0.69972 0.62551 0.01083 0.0
H683 H 0.64964 0.59584 0.01262 0.0
C684 C 0.48292 0.14428 0.97102 0.0
C685 C 0.44287 0.13432 0.97086 0.0
C686 C 0.426 0.07202 0.98648 0.0
C687 C 0.46647 0.08338 0.98869 0.0
N688 N 0.53438 0.13285 0.98707 0.0
N689 N 0.37764 0.09251 0.9829 0.0
C690 C 0.49525 0.12034 0.9822 0.0
C691 C 0.41483 0.09937 0.98007 0.0
N692 N 0.5088 0.17553 0.9595 0.0
N693 N 0.39808 0.03442 0.98896 0.0
H694 H 0.36845 0.112 0.9784 0.0
H695 H 0.35715 0.06932 0.99179 0.0
H696 H 0.40521 0.01311 0.99226 0.0
H697 H 0.36799 0.0235 0.98518 0.0
H698 H 0.53718 0.18156 0.95658 0.0
H699 H 0.50095 0.19371 0.95094 0.0
H700 H 0.5567 0.16106 0.9851 0.0
H701 H 0.54447 0.11607 0.99521 0.0
C702 C 0.65263 0.11582 0.95394 0.0
C703 C 0.68663 0.13623 0.97095 0.0
C704 C 0.64614 0.10822 1.005 0.0
C705 C 0.61201 0.08815 0.98814 0.0
N706 N 0.5815 0.08348 0.94769 0.0
N707 N 0.71157 0.16426 0.01273 0.0
C708 C 0.61485 0.09515 0.96291 0.0
C709 C 0.68211 0.13649 0.99653 0.0
N710 N 0.65628 0.11561 0.92922 0.0
N711 N 0.64517 0.09895 0.02873 0.0
H712 H 0.737 0.18739 0.00707 0.0
H713 H 0.70834 0.16726 0.03138 0.0
H714 H 0.62014 0.07708 0.03558 0.0
H715 H 0.67041 0.11026 0.04089 0.0
H716 H 0.63321 0.09705 0.91621 0.0
H717 H 0.68279 0.13249 0.92164 0.0
H718 H 0.58187 0.09095 0.92971 0.0
H719 H 0.55342 0.07004 0.95382 0.0
C720 C 0.90278 0.54 0.95162 0.0
C721 C 0.88526 0.5541 0.96836 0.0
C722 C 0.91777 0.54124 1.00298 0.0
C723 C 0.93462 0.52625 0.9864 0.0
N724 N 0.93282 0.50039 0.94511 0.0
N725 N 0.86348 0.5521 0.00904 0.0
C726 C 0.92413 0.52242 0.96072 0.0
C727 C 0.88868 0.5496 0.99376 0.0
N728 N 0.89942 0.54362 0.92704 0.0
N729 N 0.93087 0.54961 0.02736 0.0
H730 H 0.83968 0.5549 1.00265 0.0
H731 H 0.863 0.54606 0.02737 0.0
H732 H 0.95366 0.5461 0.03485 0.0
H733 H 0.92201 0.56406 0.03963 0.0
H734 H 0.91591 0.53872 0.91452 0.0
H735 H 0.88158 0.55333 0.91922 0.0
H736 H 0.92266 0.49344 0.92656 0.0
H737 H 0.94648 0.48537 0.95119 0.0
C738 C 0.4735 0.33772 0.96984 0.0
C739 C 0.43856 0.31286 0.98081 0.0
C740 C 0.44056 0.37091 1.00037 0.0
C741 C 0.4793 0.39416 0.9933 0.0
N742 N 0.53618 0.39687 0.97675 0.0
N743 N 0.38699 0.30647 1.00583 0.0
C744 C 0.49698 0.37668 0.97986 0.0
C745 C 0.42145 0.32972 0.99584 0.0
N746 N 0.48277 0.32559 0.94872 0.0
N747 N 0.42187 0.38811 0.01119 0.0
H748 H 0.3697 0.27667 1.00101 0.0
H749 H 0.37608 0.31652 0.0196 0.0
H750 H 0.43572 0.41781 0.01621 0.0
H751 H 0.39203 0.37336 0.01392 0.0
H752 H 0.5071 0.34401 0.93962 0.0
H753 H 0.46292 0.29978 0.93825 0.0
H754 H 0.55053 0.38414 0.96811 0.0
H755 H 0.55485 0.4244 0.98566 0.0
C756 C 0.14366 0.67479 0.02909 0.0
C757 C 0.15137 0.68704 0.05458 0.0
C758 C 0.11187 0.61879 0.0634 0.0
C759 C 0.09799 0.60822 0.03814 0.0
N760 N 0.09623 0.62812 0.99733 0.0
N761 N 0.14396 0.67012 0.09657 0.0
C762 C 0.11278 0.63671 0.02104 0.0
C763 C 0.13588 0.65882 0.07193 0.0
N764 N 0.16662 0.69888 0.01255 0.0
N765 N 0.10385 0.59059 0.07899 0.0
H766 H 0.16435 0.69836 0.10377 0.0
H767 H 0.12918 0.65172 0.10992 0.0
H768 H 0.08763 0.56101 0.07327 0.0
H769 H 0.11649 0.59631 0.09701 0.0
H770 H 0.16397 0.68994 0.99395 0.0
H771 H 0.19162 0.72581 0.01783 0.0
H772 H 0.1036 0.6491 0.98489 0.0
H773 H 0.07223 0.60113 0.99083 0.0
C774 C 0.34541 0.46053 0.02337 0.0
C775 C 0.34197 0.46149 0.04907 0.0
C776 C 0.41423 0.49691 0.05599 0.0
C777 C 0.41665 0.48769 0.03092 0.0
N778 N 0.38256 0.4545 0.99136 0.0
N779 N 0.37423 0.48105 0.0904 0.0
C780 C 0.38175 0.46805 0.01468 0.0
C781 C 0.37676 0.48004 0.06557 0.0
N782 N 0.31455 0.45362 0.00721 0.0
N783 N 0.44749 0.52304 0.07042 0.0
H784 H 0.34778 0.47133 0.09839 0.0
H785 H 0.39835 0.48961 0.10312 0.0
H786 H 0.47527 0.53712 0.06387 0.0
H787 H 0.44702 0.53379 0.08811 0.0
H788 H 0.31683 0.45547 0.98837 0.0
H789 H 0.28867 0.45149 0.01286 0.0
H790 H 0.35706 0.43675 0.97979 0.0
H791 H 0.40799 0.45729 0.9845 0.0
C792 C 0.56346 0.88204 0.01194 0.0
C793 C 0.57412 0.88076 0.03691 0.0
C794 C 0.54481 0.92011 0.0493 0.0
C795 C 0.5423 0.92799 0.02451 0.0
N796 N 0.55597 0.92127 0.98248 0.0
N797 N 0.57481 0.89928 0.07996 0.0
C798 C 0.55332 0.91019 1.00583 0.0
C799 C 0.56471 0.89997 0.0558 0.0
N800 N 0.56141 0.85561 0.99412 0.0
N801 N 0.52648 0.93006 0.06644 0.0
H802 H 0.58658 0.88259 0.08597 0.0
H803 H 0.57344 0.91707 0.09406 0.0
H804 H 0.51005 0.94323 0.06222 0.0
H805 H 0.52388 0.92146 0.08422 0.0
H806 H 0.55081 0.85386 0.97596 0.0
H807 H 0.56494 0.83218 0.99798 0.0
H808 H 0.5675 0.91156 0.96889 0.0
H809 H 0.55083 0.94325 0.97739 0.0
C810 C 0.99535 0.23295 0.37671 0.0
C811 C 0.99634 0.204 0.39018 0.0
C812 C 0.06251 0.22402 0.37806 0.0
C813 C 0.06353 0.25603 0.36726 0.0
N814 N 0.03274 0.29392 0.35868 0.0
N815 N 0.03243 0.1747 0.40643 0.0
C816 C 0.03028 0.26114 0.36698 0.0
C817 C 0.03032 0.20017 0.39154 0.0
N818 N 0.96086 0.23316 0.37298 0.0
N819 N 0.09183 0.21573 0.37479 0.0
H820 H 1.00933 0.15637 0.41641 0.0
H821 H 0.05815 0.1739 0.41046 0.0
H822 H 0.11525 0.23193 0.36442 0.0
H823 H 0.09096 0.1907 0.38016 0.0
H824 H 0.95706 0.25086 0.36116 0.0
H825 H 0.93494 0.21331 0.38017 0.0
H826 H 1.01117 0.30147 0.36063 0.0
H827 H 0.05773 0.3153 0.35148 0.0
C828 C 0.7982 0.76127 0.37826 0.0
C829 C 0.83057 0.79148 0.39339 0.0
C830 C 0.807 0.83638 0.38445 0.0
C831 C 0.7725 0.8052 0.37141 0.0
N832 N 0.73235 0.73666 0.35874 0.0
N833 N 0.8636 0.85639 0.41366 0.0
C834 C 0.76739 0.76729 0.36891 0.0
C835 C 0.83438 0.82868 0.39724 0.0
N836 N 0.79718 0.72698 0.37261 0.0
N837 N 0.81443 0.87362 0.38379 0.0
H838 H 0.88489 0.85227 0.4229 0.0
H839 H 0.86506 0.88237 0.41954 0.0
H840 H 0.79557 0.88055 0.3742 0.0
H841 H 0.84092 0.89798 0.39074 0.0
H842 H 0.7767 0.70535 0.35958 0.0
H843 H 0.81885 0.72135 0.37953 0.0
H844 H 0.72519 0.70779 0.35883 0.0
H845 H 0.70887 0.73969 0.35197 0.0
C846 C 0.19616 0.00539 0.37936 0.0
C847 C 0.235 0.03767 0.381 0.0
C848 C 0.25767 0.99859 0.35862 0.0
C849 C 0.21997 0.96523 0.35953 0.0
N850 N 0.15258 0.93619 0.36949 0.0
N851 N 0.30313 0.06622 0.373 0.0
C852 C 0.18891 0.96855 0.36938 0.0
C853 C 0.26581 0.03471 0.37061 0.0
N854 N 0.16624 0.01015 0.38725 0.0
N855 N 0.28563 0.99567 0.34633 0.0
H856 H 0.30971 0.09359 0.38053 0.0
H857 H 0.32802 0.06513 0.36867 0.0
H858 H 0.2811 0.96957 0.33793 0.0
H859 H 0.31235 0.01936 0.34284 0.0
H860 H 0.13657 0.98911 0.3843 0.0
H861 H 0.17069 0.03628 0.39563 0.0
H862 H 0.13008 0.93493 0.37931 0.0
H863 H 0.14507 0.90973 0.3601 0.0
C864 C 0.54006 0.65021 0.32137 0.0
C865 C 0.54447 0.63202 0.29979 0.0
C866 C 0.61113 0.68814 0.29907 0.0
C867 C 0.60141 0.70974 0.31594 0.0
N868 N 0.55473 0.71082 0.34277 0.0
N869 N 0.59505 0.62391 0.28237 0.0
C870 C 0.5654 0.69064 0.32705 0.0
C871 C 0.58335 0.64812 0.29248 0.0
N872 N 0.51802 0.62837 0.33894 0.0
N873 N 0.64672 0.70557 0.28939 0.0
H874 H 0.57658 0.59378 0.28069 0.0
H875 H 0.62393 0.63293 0.27866 0.0
H876 H 0.66916 0.73374 0.29522 0.0
H877 H 0.65322 0.69259 0.27473 0.0
H878 H 0.51633 0.64052 0.35588 0.0
H879 H 0.50788 0.59862 0.33825 0.0
H880 H 0.5271 0.69796 0.3496 0.0
H881 H 0.5718 0.74076 0.34716 0.0
C882 C 0.33935 0.85278 0.2857 0.0
C883 C 0.37506 0.88863 0.29085 0.0
C884 C 0.34315 0.91137 0.31956 0.0
C885 C 0.30782 0.87473 0.31521 0.0
N886 N 0.27619 0.80736 0.29941 0.0
N887 N 0.41356 0.94931 0.31583 0.0
C888 C 0.3071 0.84449 0.29979 0.0
C889 C 0.37778 0.91702 0.30886 0.0
N890 N 0.33582 0.82697 0.26687 0.0
N891 N 0.34318 0.94147 0.33273 0.0
H892 H 0.43924 0.95475 0.30794 0.0
H893 H 0.41843 0.96904 0.33071 0.0
H894 H 0.31878 0.93863 0.34103 0.0
H895 H 0.3665 0.96999 0.33399 0.0
H896 H 0.30905 0.80263 0.26026 0.0
H897 H 0.35906 0.83138 0.25655 0.0
H898 H 0.27557 0.78346 0.29027 0.0
H899 H 0.25309 0.79978 0.31049 0.0
C900 C 0.12479 0.47609 0.33475 0.0
C901 C 0.09982 0.46461 0.31268 0.0
C902 C 0.09396 0.40057 0.3121 0.0
C903 C 0.12811 0.41679 0.32902 0.0
N904 N 0.17544 0.4705 0.35758 0.0
N905 N 0.04057 0.40824 0.29469 0.0
C906 C 0.14316 0.45456 0.34092 0.0
C907 C 0.07812 0.42425 0.30535 0.0
N908 N 0.12498 0.50225 0.35188 0.0
N909 N 0.07692 0.3629 0.30233 0.0
H910 H 0.02722 0.425 0.29245 0.0
H911 H 0.02157 0.37847 0.29086 0.0
H912 H 0.08563 0.34373 0.30829 0.0
H913 H 0.05512 0.35118 0.2877 0.0
H914 H 0.14038 0.50923 0.3692 0.0
H915 H 0.10462 0.51168 0.35005 0.0
H916 H 0.18905 0.49939 0.36493 0.0
H917 H 0.19021 0.45595 0.36256 0.0
C918 C 0.35383 0.43372 0.32307 0.0
C919 C 0.36584 0.47136 0.31554 0.0
C920 C 0.30124 0.46305 0.32361 0.0
C921 C 0.28785 0.42397 0.32841 0.0
N922 N 0.30108 0.37158 0.33302 0.0
N923 N 0.35743 0.52712 0.32114 0.0
C924 C 0.31412 0.40922 0.32829 0.0
C925 C 0.34146 0.48772 0.31941 0.0
N926 N 0.38127 0.4227 0.32734 0.0
N927 N 0.27516 0.47616 0.32185 0.0
H928 H 0.38758 0.54631 0.32113 0.0
H929 H 0.3419 0.5409 0.32604 0.0
H930 H 0.24546 0.45906 0.32467 0.0
H931 H 0.28219 0.50284 0.31552 0.0
H932 H 0.37548 0.39735 0.33512 0.0
H933 H 0.41129 0.44094 0.32596 0.0
H934 H 0.31636 0.35709 0.32936 0.0
H935 H 0.27393 0.35388 0.33965 0.0
C936 C 0.56712 0.86857 0.2798 0.0
C937 C 0.54923 0.88192 0.29676 0.0
C938 C 0.58206 0.86891 0.33109 0.0
C939 C 0.5996 0.85497 0.31432 0.0
N940 N 0.59961 0.83124 0.27279 0.0
N941 N 0.52712 0.87865 0.33739 0.0
C942 C 0.58946 0.85179 0.28864 0.0
C943 C 0.55261 0.87687 0.32205 0.0
N944 N 0.56313 0.87218 0.25528 0.0
N945 N 0.59496 0.87686 0.35551 0.0
H946 H 0.50329 0.88147 0.33109 0.0
H947 H 0.52653 0.87213 0.35562 0.0
H948 H 0.61808 0.87381 0.3629 0.0
H949 H 0.5856 0.89061 0.36794 0.0
H950 H 0.57978 0.86803 0.24254 0.0
H951 H 0.54429 0.88093 0.2477 0.0
H952 H 0.58988 0.8247 0.25417 0.0
H953 H 0.61444 0.81715 0.27864 0.0
C954 C 0.14333 0.67039 0.336 0.0
C955 C 0.13105 0.6544 0.31124 0.0
C956 C 0.15737 0.72022 0.29831 0.0
C957 C 0.16136 0.73455 0.32323 0.0
N958 N 0.15219 0.72154 0.3658 0.0
N959 N 0.12832 0.6645 0.26813 0.0
C960 C 0.15306 0.70928 0.34215 0.0
C961 C 0.13886 0.67948 0.29214 0.0
N962 N 0.14681 0.64896 0.35356 0.0
N963 N 0.17277 0.74559 0.28071 0.0
H964 H 0.1182 0.63548 0.26247 0.0
H965 H 0.12811 0.68062 0.25383 0.0
H966 H 0.18757 0.77564 0.28466 0.0
H967 H 0.17444 0.73714 0.26267 0.0
H968 H 0.15863 0.66056 0.37153 0.0
H969 H 0.14288 0.62135 0.34945 0.0
H970 H 0.1425 0.70287 0.37971 0.0
H971 H 0.15695 0.74916 0.37097 0.0
C972 C 0.81333 0.00841 0.35441 0.0
C973 C 0.81964 0.02261 0.37952 0.0
C974 C 0.77873 0.9555 0.39013 0.0
C975 C 0.76618 0.94311 0.36484 0.0
N976 N 0.76699 0.96002 0.32299 0.0
N977 N 0.8089 0.00907 0.42192 0.0
C978 C 0.78236 0.97012 0.34696 0.0
C979 C 0.80259 0.99593 0.39761 0.0
N980 N 0.83761 0.03086 0.33775 0.0
N981 N 0.76958 0.92864 0.40686 0.0
H982 H 0.82881 0.03772 0.42856 0.0
H983 H 0.793 0.9918 0.43546 0.0
H984 H 0.75349 0.89879 0.40198 0.0
H985 H 0.78126 0.93571 0.42514 0.0
H986 H 0.83587 0.02045 0.31957 0.0
H987 H 0.86268 0.05782 0.34281 0.0
H988 H 0.7755 0.97998 0.3098 0.0
H989 H 0.74277 0.93298 0.31685 0.0
C990 C 0.01253 0.79345 0.35455 0.0
C991 C 1.00848 0.79354 0.3802 0.0
C992 C 0.08067 0.82802 0.38769 0.0
C993 C 0.08361 0.81958 0.36256 0.0
N994 N 0.05015 0.78816 0.32256 0.0
N995 N 0.0399 0.81114 0.42173 0.0
C996 C 0.04899 0.80086 0.34603 0.0
C997 C 0.04295 0.81107 0.39695 0.0
N998 N 0.98218 0.78755 0.33827 0.0
N999 N 0.11367 0.8537 0.4025 0.0
H1000 H 0.01331 0.80138 0.42954 0.0
H1001 H 0.06372 0.81891 0.43454 0.0
H1002 H 0.14162 0.86812 0.39621 0.0
H1003 H 0.1128 0.86389 0.42026 0.0
H1004 H 0.98495 0.79011 0.31951 0.0
H1005 H 0.95633 0.78557 0.34382 0.0
H1006 H 0.02483 0.77112 0.31069 0.0
H1007 H 0.07561 0.79086 0.3158 0.0
C1008 C 0.22897 0.21697 0.34841 0.0
C1009 C 0.23833 0.21495 0.37351 0.0
C1010 C 0.20992 0.25534 0.38532 0.0
C1011 C 0.20877 0.26385 0.36053 0.0
N1012 N 0.22379 0.25731 0.31883 0.0
N1013 N 0.23749 0.23286 0.41643 0.0
C1014 C 0.21992 0.24581 0.3421 0.0
C1015 C 0.22865 0.23427 0.39216 0.0
N1016 N 0.22713 0.1906 0.33063 0.0
N1017 N 0.19149 0.26574 0.40215 0.0
H1018 H 0.2483 0.2155 0.42265 0.0
H1019 H 0.23604 0.2507 0.43047 0.0
H1020 H 0.17607 0.27984 0.39773 0.0
H1021 H 0.18776 0.25668 0.41981 0.0
H1022 H 0.21746 0.18939 0.31233 0.0
H1023 H 0.22988 0.16675 0.33456 0.0
H1024 H 0.23559 0.24749 0.30549 0.0
H1025 H 0.21927 0.27961 0.31359 0.0
C1026 C 0.6563 0.56097 0.70653 0.0
C1027 C 0.65988 0.53484 0.72157 0.0
C1028 C 0.72733 0.55897 0.71068 0.0
C1029 C 0.72575 0.58871 0.69841 0.0
N1030 N 0.68966 0.62022 0.68621 0.0
N1031 N 0.69984 0.51141 0.74036 0.0
C1032 C 0.69031 0.59008 0.69648 0.0
C1033 C 0.69567 0.53443 0.72425 0.0
N1034 N 0.62029 0.55769 0.7017 0.0
N1035 N 0.75857 0.55326 0.70858 0.0
H1036 H 0.67706 0.49231 0.75025 0.0
H1037 H 0.72672 0.51339 0.74535 0.0
H1038 H 0.78146 0.56961 0.69793 0.0
H1039 H 0.75979 0.52983 0.71513 0.0
H1040 H 0.61475 0.57304 0.68882 0.0
H1041 H 0.59502 0.53725 0.7092 0.0
H1042 H 0.66636 0.62552 0.68697 0.0
H1043 H 0.71359 0.64164 0.67827 0.0
C1044 C 0.46287 0.08833 0.71359 0.0
C1045 C 0.4959 0.11818 0.72847 0.0
C1046 C 0.4726 0.16373 0.72104 0.0
C1047 C 0.43769 0.13295 0.70811 0.0
N1048 N 0.39659 0.06461 0.69514 0.0
N1049 N 0.53031 0.18284 0.7491 0.0
C1050 C 0.43207 0.09488 0.70507 0.0
C1051 C 0.50025 0.15551 0.73296 0.0
N1052 N 0.46123 0.05389 0.70733 0.0
N1053 N 0.48013 0.20109 0.72106 0.0
H1054 H 0.55178 0.17826 0.75763 0.0
H1055 H 0.53243 0.20895 0.75542 0.0
H1056 H 0.46097 0.20836 0.7122 0.0
H1057 H 0.50684 0.22526 0.72791 0.0
H1058 H 0.44022 0.03259 0.69435 0.0
H1059 H 0.4828 0.04775 0.71367 0.0
H1060 H 0.38913 0.03562 0.6949 0.0
H1061 H 0.37309 0.06803 0.68896 0.0
C1062 C 0.93921 0.37814 0.70735 0.0
C1063 C 0.91157 0.38073 0.72182 0.0
C1064 C 0.86532 0.31099 0.71267 0.0
C1065 C 0.89409 0.3077 0.6997 0.0
N1066 N 0.95906 0.33699 0.68548 0.0
N1067 N 0.85033 0.35006 0.74069 0.0
C1068 C 0.93129 0.341 0.69728 0.0
C1069 C 0.8751 0.34728 0.72506 0.0
N1070 N 0.97259 0.41136 0.70284 0.0
N1071 N 0.8285 0.27944 0.71308 0.0
H1072 H 0.85568 0.37633 0.74945 0.0
H1073 H 0.82575 0.3262 0.74641 0.0
H1074 H 0.82077 0.2518 0.70568 0.0
H1075 H 0.80469 0.2809 0.71933 0.0
H1076 H 0.99209 0.41226 0.69038 0.0
H1077 H 0.97974 0.43884 0.71051 0.0
H1078 H 0.98828 0.35896 0.68557 0.0
H1079 H 0.9534 0.31087 0.67631 0.0
C1080 C 0.25255 0.97539 0.63207 0.0
C1081 C 0.21309 0.95901 0.63821 0.0
C1082 C 0.232 0.01664 0.66593 0.0
C1083 C 0.26861 0.03636 0.65555 0.0
N1084 N 0.31631 0.03327 0.63077 0.0
N1085 N 0.18335 0.95362 0.67626 0.0
C1086 C 0.27987 0.01529 0.63934 0.0
C1087 C 0.20704 0.97631 0.65957 0.0
N1088 N 0.2647 0.95156 0.62197 0.0
N1089 N 0.22035 0.03617 0.68145 0.0
H1090 H 0.17282 0.92377 0.67501 0.0
H1091 H 0.18034 0.96497 0.6931 0.0
H1092 H 0.23727 0.06596 0.68643 0.0
H1093 H 0.19226 0.02294 0.68764 0.0
H1094 H 0.29387 0.96067 0.619 0.0
H1095 H 0.24585 0.9215 0.61928 0.0
H1096 H 0.32421 0.02072 0.61662 0.0
H1097 H 0.33817 0.06147 0.6371 0.0
C1098 C 0.04723 0.24577 0.64762 0.0
C1099 C 0.04273 0.2257 0.62435 0.0
C1100 C 0.97124 0.1989 0.62247 0.0
C1101 C 0.97524 0.21591 0.64676 0.0
N1102 N 0.01664 0.25266 0.68355 0.0
N1103 N 0.99997 0.17674 0.59204 0.0
C1104 C 0.01313 0.23823 0.65975 0.0
C1105 C 1.00458 0.2005 0.61244 0.0
N1106 N 0.084 0.27349 0.65756 0.0
N1107 N 0.93574 0.18153 0.60871 0.0
H1108 H 0.02352 0.17632 0.58439 0.0
H1109 H 0.97262 0.15471 0.58413 0.0
H1110 H 0.90991 0.17776 0.61544 0.0
H1111 H 0.93243 0.17325 0.58996 0.0
H1112 H 0.0891 0.29213 0.67312 0.0
H1113 H 0.10955 0.2802 0.6491 0.0
H1114 H 0.04276 0.26506 0.69494 0.0
H1115 H 0.99283 0.25024 0.6925 0.0
C1116 C 0.83033 0.82175 0.6354 0.0
C1117 C 0.79253 0.8177 0.63633 0.0
C1118 C 0.77156 0.76128 0.66013 0.0
C1119 C 0.80955 0.76561 0.65933 0.0
N1120 N 0.8779 0.80602 0.6526 0.0
N1121 N 0.72973 0.78922 0.65324 0.0
C1122 C 0.83981 0.79777 0.64891 0.0
C1123 C 0.76395 0.78925 0.64996 0.0
N1124 N 0.85669 0.84752 0.62085 0.0
N1125 N 0.74231 0.72952 0.66951 0.0
H1126 H 0.72316 0.80897 0.64564 0.0
H1127 H 0.70928 0.77177 0.66496 0.0
H1128 H 0.74725 0.70934 0.67789 0.0
H1129 H 0.71283 0.72202 0.66791 0.0
H1130 H 0.8827 0.84826 0.61702 0.0
H1131 H 0.85136 0.86639 0.61107 0.0
H1132 H 0.9019 0.83105 0.64743 0.0
H1133 H 0.88591 0.78985 0.66328 0.0
C1134 C 0.98599 0.78705 0.6212 0.0
C1135 C 0.02091 0.80416 0.63746 0.0
C1136 C 0.98176 0.77718 0.67219 0.0
C1137 C 0.94677 0.75955 0.65601 0.0
N1138 N 0.91505 0.75841 0.61674 0.0
N1139 N 0.04958 0.82928 0.67907 0.0
C1140 C 0.94871 0.76777 0.63097 0.0
C1141 C 0.01803 0.80376 0.6632 0.0
N1142 N 0.98832 0.78858 0.5964 0.0
N1143 N 0.98112 0.76696 0.69568 0.0
H1144 H 0.07566 0.85103 0.67307 0.0
H1145 H 0.04797 0.83211 0.69797 0.0
H1146 H 0.95567 0.74635 0.70286 0.0
H1147 H 1.00665 0.77615 0.70723 0.0
H1148 H 0.96429 0.77209 0.58352 0.0
H1149 H 0.01465 0.80509 0.58852 0.0
H1150 H 0.91489 0.76696 0.59911 0.0
H1151 H 0.88741 0.74565 0.62347 0.0
C1152 C 0.23162 0.19768 0.61935 0.0
C1153 C 0.21364 0.21005 0.63685 0.0
C1154 C 0.24645 0.19545 0.6703 0.0
C1155 C 0.26403 0.18241 0.65298 0.0
N1156 N 0.26408 0.16068 0.61094 0.0
N1157 N 0.19129 0.20439 0.67753 0.0
C1158 C 0.2539 0.18044 0.62742 0.0
C1159 C 0.21691 0.20363 0.66188 0.0
N1160 N 0.22783 0.20272 0.59506 0.0
N1161 N 0.25947 0.20246 0.69468 0.0
H1162 H 0.16737 0.20731 0.6716 0.0
H1163 H 0.19071 0.19691 0.69553 0.0
H1164 H 0.28284 0.19947 0.70166 0.0
H1165 H 0.24998 0.2155 0.70754 0.0
H1166 H 0.24452 0.19923 0.58204 0.0
H1167 H 0.20919 0.21202 0.58798 0.0
H1168 H 0.25437 0.15507 0.59232 0.0
H1169 H 0.27888 0.1463 0.61622 0.0
C1170 C 0.78538 0.00876 0.65948 0.0
C1171 C 0.79728 0.99762 0.63791 0.0
C1172 C 0.84626 0.06609 0.6353 0.0
C1173 C 0.82817 0.07717 0.65329 0.0
N1174 N 0.77289 0.05727 0.67792 0.0
N1175 N 0.83627 0.01791 0.60285 0.0
C1176 C 0.79561 0.04805 0.66421 0.0
C1177 C 0.82694 0.02692 0.62505 0.0
N1178 N 0.76545 0.98261 0.67589 0.0
N1179 N 0.88263 0.0923 0.62879 0.0
H1180 H 0.82311 0.98981 0.59428 0.0
H1181 H 0.85484 0.03911 0.59193 0.0
H1182 H 0.89917 0.1203 0.63754 0.0
H1183 H 0.89827 0.08467 0.6171 0.0
H1184 H 0.75856 0.99072 0.69254 0.0
H1185 H 0.76106 0.95456 0.67478 0.0
H1186 H 0.74709 0.03624 0.68461 0.0
H1187 H 0.77682 0.08513 0.6798 0.0
C1188 C 0.469 0.32548 0.73206 0.0
C1189 C 0.48565 0.35108 0.71336 0.0
C1190 C 0.44776 0.29714 0.68181 0.0
C1191 C 0.43196 0.27116 0.7003 0.0
N1192 N 0.4358 0.25892 0.7428 0.0
N1193 N 0.50278 0.35706 0.67139 0.0
C1194 C 0.44491 0.28481 0.72541 0.0
C1195 C 0.47888 0.33561 0.68851 0.0
N1196 N 0.47585 0.33989 0.75614 0.0
N1197 N 0.43179 0.28595 0.65799 0.0
H1198 H 0.5279 0.38419 0.67594 0.0
H1199 H 0.50068 0.34572 0.6534 0.0
H1200 H 0.40726 0.25885 0.65242 0.0
H1201 H 0.44009 0.30517 0.64436 0.0
H1202 H 0.46024 0.3235 0.77006 0.0
H1203 H 0.49599 0.36874 0.76218 0.0
H1204 H 0.44781 0.26688 0.76099 0.0
H1205 H 0.41928 0.22892 0.7386 0.0
C1206 C 0.70989 0.13614 0.73079 0.0
C1207 C 0.68724 0.15159 0.72057 0.0
C1208 C 0.73379 0.17975 0.6893 0.0
C1209 C 0.75689 0.16482 0.69955 0.0
N1210 N 0.76123 0.12016 0.72584 0.0
N1211 N 0.66931 0.17337 0.68444 0.0
C1212 C 0.74327 0.14047 0.71911 0.0
C1213 C 0.69649 0.16863 0.69797 0.0
N1214 N 0.69973 0.11756 0.75177 0.0
N1215 N 0.7482 0.2064 0.67236 0.0
H1216 H 0.64082 0.16346 0.68946 0.0
H1217 H 0.67334 0.18257 0.6668 0.0
H1218 H 0.77594 0.2168 0.66603 0.0
H1219 H 0.73421 0.22123 0.66646 0.0
H1220 H 0.71817 0.11104 0.76221 0.0
H1221 H 0.67317 0.10958 0.75926 0.0
H1222 H 0.75031 0.09884 0.7381 0.0
H1223 H 0.7853 0.12199 0.71756 0.0
C1224 C 0.89084 0.55082 0.68003 0.0
C1225 C 0.90317 0.55132 0.70497 0.0
C1226 C 0.87567 0.59245 0.7169 0.0
C1227 C 0.87196 0.59882 0.6919 0.0
N1228 N 0.88221 0.58818 0.64961 0.0
N1229 N 0.90758 0.57395 0.74769 0.0
C1230 C 0.881 0.57898 0.67337 0.0
C1231 C 0.89555 0.57243 0.7236 0.0
N1232 N 0.88713 0.52284 0.66281 0.0
N1233 N 0.85865 0.60393 0.73414 0.0
H1234 H 0.91998 0.55798 0.75394 0.0
H1235 H 0.9074 0.59305 0.76137 0.0
H1236 H 0.84222 0.61707 0.72983 0.0
H1237 H 0.85697 0.59647 0.75218 0.0
H1238 H 0.87536 0.51984 0.64479 0.0
H1239 H 0.89059 0.49957 0.66722 0.0
H1240 H 0.89237 0.57694 0.63603 0.0
H1241 H 0.87723 0.61003 0.64403 0.0
C1242 C 0.42814 0.91995 0.19503 0.0
C1243 C 0.44938 0.94149 0.21749 0.0
C1244 C 0.47376 1.00148 0.19708 0.0
C1245 C 0.46104 0.97933 0.17386 0.0
N1246 N 0.40034 0.92414 0.15583 0.0
N1247 N 0.49174 0.00378 0.24032 0.0
C1248 C 0.43067 0.93999 0.17389 0.0
C1249 C 0.47186 0.98261 0.21869 0.0
N1250 N 0.40587 0.88041 0.19368 0.0
N1251 N 0.48102 0.03874 0.1989 0.0
H1252 H 0.49036 0.99117 0.25674 0.0
H1253 H 0.51172 0.03355 0.24141 0.0
H1254 H 0.47526 0.05072 0.18384 0.0
H1255 H 0.48693 0.05524 0.21563 0.0
H1256 H 0.39298 0.86339 0.17707 0.0
H1257 H 0.4025 0.86465 0.20889 0.0
H1258 H 0.37552 0.89672 0.15611 0.0
H1259 H 0.39753 0.94094 0.14277 0.0
C1260 C 0.02722 0.49443 0.22531 0.0
C1261 C 0.06378 0.49606 0.2301 0.0
C1262 C 0.06429 0.47988 0.18632 0.0
C1263 C 0.03066 0.48364 0.18124 0.0
N1264 N 0.98277 0.49937 0.19546 0.0
N1265 N 0.11935 0.49374 0.21536 0.0
C1266 C 0.01263 0.49198 0.20063 0.0
C1267 C 0.08286 0.48943 0.21067 0.0
N1268 N 1.00621 0.49469 0.24441 0.0
N1269 N 0.07789 0.4664 0.16795 0.0
H1270 H 0.1335 0.5 0.23303 0.0
H1271 H 0.13674 0.49372 0.20164 0.0
H1272 H 0.06494 0.45911 0.14991 0.0
H1273 H 0.09976 0.45927 0.17096 0.0
H1274 H 0.97754 0.48962 0.24204 0.0
H1275 H 0.01599 0.49629 0.26275 0.0
H1276 H 0.97152 0.50991 0.20873 0.0
H1277 H 0.97135 0.49819 0.17761 0.0
C1278 C 0.48909 0.56725 0.20071 0.0
C1279 C 0.49032 0.54596 0.22035 0.0
C1280 C 0.50815 0.50793 0.19261 0.0
C1281 C 0.51138 0.53222 0.17379 0.0
N1282 N 0.50932 0.58783 0.16041 0.0
N1283 N 0.50555 0.49924 0.23613 0.0
C1284 C 0.50283 0.56256 0.17791 0.0
C1285 C 0.5009 0.517 0.21659 0.0
N1286 N 0.47412 0.59145 0.20378 0.0
N1287 N 0.5111 0.47563 0.18738 0.0
H1288 H 0.50003 0.50469 0.25393 0.0
H1289 H 0.51768 0.4813 0.23512 0.0
H1290 H 0.51649 0.46812 0.17003 0.0
H1291 H 0.50484 0.4545 0.19954 0.0
H1292 H 0.46858 0.60475 0.18949 0.0
H1293 H 0.46399 0.59566 0.22028 0.0
H1294 H 0.50793 0.61309 0.16336 0.0
H1295 H 0.51911 0.58521 0.14343 0.0
C1296 C 0.93363 0.46509 0.81521 0.0
C1297 C 0.95907 0.4769 0.79604 0.0
C1298 C 0.01353 0.52208 0.82582 0.0
C1299 C 0.99069 0.50287 0.84517 0.0
N1300 N 0.92541 0.48381 0.85615 0.0
N1301 N 0.02373 0.5182 0.78282 0.0
C1302 C 0.94925 0.4819 0.83955 0.0
C1303 C 0.9992 0.50599 0.80123 0.0
N1304 N 0.8947 0.43782 0.81031 0.0
N1305 N 0.04492 0.55881 0.83051 0.0
H1306 H 0.01421 0.50745 0.76446 0.0
H1307 H 0.05406 0.53678 0.78623 0.0
H1308 H 0.05125 0.57406 0.84781 0.0
H1309 H 0.06055 0.57571 0.81674 0.0
H1310 H 0.87603 0.42572 0.82415 0.0
H1311 H 0.88189 0.42532 0.79261 0.0
H1312 H 0.8952 0.47208 0.85223 0.0
H1313 H 0.93706 0.50197 0.87249 0.0
C1314 C 0.60484 0.51274 0.81743 0.0
C1315 C 0.5823 0.50894 0.79532 0.0
C1316 C 0.53383 0.51492 0.81864 0.0
C1317 C 0.55694 0.52 0.8408 0.0
N1318 N 0.61846 0.53249 0.86121 0.0
N1319 N 0.53123 0.51596 0.77435 0.0
C1320 C 0.59381 0.5217 0.84016 0.0
C1321 C 0.54872 0.51325 0.7958 0.0
N1322 N 0.63567 0.50609 0.81681 0.0
N1323 N 0.49672 0.50946 0.81937 0.0
H1324 H 0.54149 0.51485 0.75727 0.0
H1325 H 0.50907 0.52302 0.7737 0.0
H1326 H 0.48432 0.50992 0.83569 0.0
H1327 H 0.47689 0.50118 0.80386 0.0
H1328 H 0.65019 0.50374 0.83249 0.0
H1329 H 0.64519 0.50042 0.80046 0.0
H1330 H 0.64728 0.53795 0.86153 0.0
H1331 H 0.61127 0.53938 0.87813 0.0
C1332 C 0.50386 0.02595 0.79714 0.0
C1333 C 0.53648 0.06411 0.79706 0.0
C1334 C 0.55227 0.06507 0.84118 0.0
C1335 C 0.51694 0.02898 0.84176 0.0
N1336 N 0.45536 0.97827 0.82102 0.0
N1337 N 0.58821 0.1227 0.81974 0.0
C1338 C 0.4917 0.01022 0.81991 0.0
C1339 C 0.55984 0.08443 0.81929 0.0
N1340 N 0.48513 0.00428 0.7754 0.0
N1341 N 0.57912 0.08033 0.86132 0.0
H1342 H 0.59439 0.13808 0.80419 0.0
H1343 H 0.60321 0.14011 0.83591 0.0
H1344 H 0.5748 0.06679 0.87759 0.0
H1345 H 0.60715 0.10446 0.86116 0.0
H1346 H 0.46381 0.97492 0.7743 0.0
H1347 H 0.49356 0.01454 0.75831 0.0
H1348 H 0.4341 0.96596 0.8061 0.0
H1349 H 0.44498 0.96616 0.83738 0.0
C1350 C 0.14303 0.31402 0.55416 0.0
C1351 C 0.12645 0.27316 0.55362 0.0
C1352 C 0.13422 0.26967 0.5095 0.0
C1353 C 0.14811 0.31008 0.50968 0.0
N1354 N 0.15764 0.36906 0.531 0.0
N1355 N 0.09832 0.211 0.53004 0.0
C1356 C 0.15011 0.33179 0.53169 0.0
C1357 C 0.11962 0.25063 0.53103 0.0
N1358 N 0.15346 0.33608 0.57618 0.0
N1359 N 0.13651 0.24975 0.48912 0.0
H1360 H 0.08689 0.19608 0.54541 0.0
H1361 H 0.08885 0.19309 0.51365 0.0
H1362 H 0.14752 0.26268 0.47308 0.0
H1363 H 0.1308 0.22127 0.48884 0.0
H1364 H 0.16967 0.36631 0.5778 0.0
H1365 H 0.14888 0.32424 0.59306 0.0
H1366 H 0.15541 0.38494 0.54595 0.0
H1367 H 0.16249 0.38291 0.51484 0.0
C1368 C 0.75813 0.83472 0.53792 0.0
C1369 C 0.73912 0.84011 0.55785 0.0
C1370 C 0.68506 0.8324 0.52951 0.0
C1371 C 0.70313 0.82533 0.50964 0.0
N1372 N 0.75208 0.81147 0.49514 0.0
N1373 N 0.68069 0.83499 0.57351 0.0
C1374 C 0.73825 0.8239 0.51392 0.0
C1375 C 0.70129 0.83599 0.55389 0.0
N1376 N 0.79574 0.84152 0.54177 0.0
N1377 N 0.65353 0.83753 0.52506 0.0
H1378 H 0.69166 0.83731 0.59167 0.0
H1379 H 0.6514 0.82816 0.57175 0.0
H1380 H 0.64083 0.83541 0.50743 0.0
H1381 H 0.64199 0.84713 0.53868 0.0
H1382 H 0.81279 0.84243 0.5276 0.0
H1383 H 0.81103 0.84898 0.55915 0.0
H1384 H 0.77525 0.80605 0.49763 0.0
H1385 H 0.73816 0.80326 0.47734 0.0
C1386 C 0.16602 0.90867 0.53601 0.0
C1387 C 0.16321 0.8842 0.55465 0.0
C1388 C 0.17773 0.84477 0.52595 0.0
C1389 C 0.18306 0.87049 0.50766 0.0
N1390 N 0.18648 0.92925 0.49565 0.0
N1391 N 0.16671 0.82896 0.56765 0.0
C1392 C 0.17815 0.90303 0.51275 0.0
C1393 C 0.16912 0.85235 0.54966 0.0
N1394 N 0.15595 0.93651 0.54038 0.0
N1395 N 0.18102 0.81265 0.52139 0.0
H1396 H 0.16111 0.83346 0.58561 0.0
H1397 H 0.17095 0.80531 0.5646 0.0
H1398 H 0.18688 0.80423 0.50446 0.0
H1399 H 0.18688 0.80423 0.50446 0.0
H1400 H 0.1533 0.95273 0.52693 0.0
H1401 H 0.14729 0.94155 0.55726 0.0
H1402 H 0.18788 0.95583 0.49907 0.0
H1403 H 0.19463 0.92564 0.47828 0.0
C1404 C 0.60557 0.79216 0.14233 0.0
C1405 C 0.62851 0.79437 0.12263 0.0
C1406 C 0.68416 0.80852 0.15185 0.0
C1407 C 0.66255 0.81018 0.17141 0.0
N1408 N 0.6056 0.81103 0.18513 0.0
N1409 N 0.6917 0.81155 0.10823 0.0
C1410 C 0.62404 0.80414 0.16662 0.0
C1411 C 0.66846 0.80454 0.12726 0.0
N1412 N 0.56588 0.77726 0.13794 0.0
N1413 N 0.71899 0.80934 0.15675 0.0
H1414 H 0.68131 0.80921 0.08994 0.0
H1415 H 0.72205 0.82304 0.11075 0.0
H1416 H 0.73132 0.81182 0.17456 0.0
H1417 H 0.73388 0.80404 0.14324 0.0
H1418 H 0.54708 0.77115 0.15188 0.0
H1419 H 0.55108 0.76761 0.1204 0.0
H1420 H 0.57926 0.81104 0.18216 0.0
H1421 H 0.61837 0.8203 0.20317 0.0
C1422 C 0.28404 0.84161 0.1567 0.0
C1423 C 0.26863 0.84936 0.13509 0.0
C1424 C 0.25134 0.89009 0.16035 0.0
C1425 C 0.25549 0.87271 0.18131 0.0
N1426 N 0.30614 0.8627 0.19969 0.0
N1427 N 0.23986 0.88394 0.11615 0.0
C1428 C 0.28079 0.85706 0.1799 0.0
C1429 C 0.25351 0.87502 0.13679 0.0
N1430 N 0.30135 0.81935 0.15516 0.0
N1431 N 0.2509 0.924 0.16322 0.0
H1432 H 0.24094 0.87362 0.09845 0.0
H1433 H 0.22499 0.89943 0.11686 0.0
H1434 H 0.25518 0.93834 0.18062 0.0
H1435 H 0.25159 0.93997 0.14859 0.0
H1436 H 0.30928 0.80962 0.17054 0.0
H1437 H 0.30591 0.80907 0.13841 0.0
H1438 H 0.32741 0.85449 0.19927 0.0
H1439 H 0.30905 0.88034 0.21539 0.0
C1440 C 0.17403 0.36849 0.13337 0.0
C1441 C 0.20282 0.40847 0.13388 0.0
C1442 C 0.21456 0.41172 0.17864 0.0
C1443 C 0.18291 0.37293 0.17836 0.0
N1444 N 0.12788 0.31652 0.15597 0.0
N1445 N 0.24593 0.46999 0.15722 0.0
C1446 C 0.16135 0.35186 0.15585 0.0
C1447 C 0.22189 0.43064 0.15659 0.0
N1448 N 0.15968 0.34612 0.11143 0.0
N1449 N 0.2384 0.43007 0.1998 0.0
H1450 H 0.25186 0.48494 0.14148 0.0
H1451 H 0.25722 0.48822 0.17347 0.0
H1452 H 0.23415 0.41708 0.21628 0.0
H1453 H 0.26438 0.45675 0.20051 0.0
H1454 H 0.14183 0.31601 0.11007 0.0
H1455 H 0.16848 0.35714 0.09457 0.0
H1456 H 0.10862 0.30175 0.14037 0.0
H1457 H 0.11737 0.30347 0.17206 0.0
C1458 C 0.8139 0.65592 0.88853 0.0
C1459 C 0.7888 0.61505 0.88729 0.0
C1460 C 0.76944 0.61527 0.84404 0.0
C1461 C 0.8018 0.65362 0.84387 0.0
N1462 N 0.82642 0.71353 0.86938 0.0
N1463 N 0.74102 0.55532 0.86363 0.0
C1464 C 0.81658 0.67548 0.86714 0.0
C1465 C 0.76586 0.59456 0.865 0.0
N1466 N 0.83526 0.67621 0.91004 0.0
N1467 N 0.73872 0.60139 0.82636 0.0
H1468 H 0.7371 0.53909 0.87864 0.0
H1469 H 0.72669 0.53876 0.84706 0.0
H1470 H 0.73715 0.61914 0.81354 0.0
H1471 H 0.71268 0.57501 0.82679 0.0
H1472 H 0.85694 0.70548 0.91107 0.0
H1473 H 0.83315 0.66323 0.92638 0.0
H1474 H 0.83397 0.73008 0.88625 0.0
H1475 H 0.82109 0.72645 0.8547 0.0
C1476 C 0.34966 0.17752 0.89303 0.0
C1477 C 0.36616 0.1554 0.9017 0.0
C1478 C 0.35227 0.12169 0.86066 0.0
C1479 C 0.34507 0.15014 0.85112 0.0
N1480 N 0.33535 0.2049 0.85831 0.0
N1481 N 0.34728 0.08788 0.89656 0.0
C1482 C 0.34282 0.17776 0.86735 0.0
C1483 C 0.35789 0.12186 0.88647 0.0
N1484 N 0.33616 0.19427 0.90933 0.0
N1485 N 0.35342 0.0943 0.84523 0.0
H1486 H 0.34123 0.0849 0.91494 0.0
H1487 H 0.3379 0.06166 0.8861 0.0
H1488 H 0.34824 0.09238 0.82617 0.0
H1489 H 0.36225 0.07534 0.85147 0.0
H1490 H 0.32053 0.20781 0.90403 0.0
H1491 H 0.33644 0.1901 0.92801 0.0
H1492 H 0.33756 0.22815 0.86934 0.0
H1493 H 0.32989 0.20585 0.83958 0.0
C1494 C 0.83106 0.18642 0.88118 0.0
C1495 C 0.82321 0.21725 0.88511 0.0
C1496 C 0.84276 0.23749 0.84417 0.0
C1497 C 0.84804 0.20511 0.8396 0.0
N1498 N 0.83944 0.14425 0.85159 0.0
N1499 N 0.81339 0.26698 0.86875 0.0
C1500 C 0.83984 0.17818 0.85748 0.0
C1501 C 0.82654 0.24122 0.86607 0.0
N1502 N 0.83179 0.16606 0.90032 0.0
N1503 N 0.85474 0.26554 0.82808 0.0
H1504 H 0.801 0.27023 0.88448 0.0
H1505 H 0.81133 0.28244 0.85456 0.0
H1506 H 0.86712 0.26411 0.81193 0.0
H1507 H 0.85562 0.29185 0.83176 0.0
H1508 H 0.84172 0.14629 0.89922 0.0
H1509 H 0.82549 0.17113 0.91796 0.0
H1510 H 0.82961 0.12167 0.86296 0.0
H1511 H 0.84557 0.13714 0.83437 0.0
C1512 C 0.2626 0.12163 0.47957 0.0
C1513 C 0.28497 0.12268 0.45977 0.0
C1514 C 0.33965 0.13374 0.48889 0.0
C1515 C 0.31892 0.13678 0.50857 0.0
N1516 N 0.26366 0.14066 0.52253 0.0
N1517 N 0.34749 0.13722 0.44535 0.0
C1518 C 0.28118 0.13271 0.5039 0.0
C1519 C 0.32432 0.13087 0.46435 0.0
N1520 N 0.22328 0.10874 0.47524 0.0
N1521 N 0.3733 0.13224 0.49361 0.0
H1522 H 0.33757 0.13599 0.4271 0.0
H1523 H 0.37759 0.1473 0.4479 0.0
H1524 H 0.38525 0.13372 0.51136 0.0
H1525 H 0.38728 0.12588 0.47997 0.0
H1526 H 0.20465 0.10348 0.4892 0.0
H1527 H 0.20847 0.09988 0.45768 0.0
H1528 H 0.2381 0.14216 0.51969 0.0
H1529 H 0.27652 0.14923 0.54058 0.0
C1530 C 0.88374 0.18364 0.46399 0.0
C1531 C 0.91729 0.17925 0.46338 0.0
C1532 C 0.93041 0.19435 0.50812 0.0
C1533 C 0.89389 0.19334 0.50897 0.0
N1534 N 0.83297 0.1818 0.48805 0.0
N1535 N 0.97112 0.17703 0.48477 0.0
C1536 C 0.86988 0.18686 0.48697 0.0
C1537 C 0.94048 0.18398 0.48542 0.0
N1538 N 0.86545 0.18528 0.44254 0.0
N1539 N 0.95572 0.20592 0.52892 0.0
H1540 H 0.97971 0.16997 0.46847 0.0
H1541 H 0.98634 0.17565 0.50045 0.0
H1542 H 0.94927 0.21377 0.54582 0.0
H1543 H 0.98437 0.21097 0.52904 0.0
H1544 H 0.84333 0.19239 0.4419 0.0
H1545 H 0.87498 0.18322 0.42535 0.0
H1546 H 0.81249 0.17261 0.4728 0.0
H1547 H 0.82139 0.18347 0.5045 0.0
C1548 C 0.83911 0.70288 0.46529 0.0
C1549 C 0.86962 0.74217 0.46547 0.0
C1550 C 0.8828 0.74497 0.5101 0.0
C1551 C 0.84944 0.70724 0.51022 0.0
N1552 N 0.79131 0.65314 0.48843 0.0
N1553 N 0.91608 0.80291 0.48856 0.0
C1554 C 0.82632 0.68694 0.48793 0.0
C1555 C 0.89032 0.76389 0.48804 0.0
N1556 N 0.82315 0.68038 0.44349 0.0
N1557 N 0.90802 0.76225 0.53087 0.0
H1558 H 0.92203 0.81794 0.47286 0.0
H1559 H 0.92882 0.82097 0.5048 0.0
H1560 H 0.90377 0.74913 0.5473 0.0
H1561 H 0.93497 0.78792 0.53119 0.0
H1562 H 0.80378 0.65052 0.44237 0.0
H1563 H 0.83212 0.69078 0.4265 0.0
H1564 H 0.77126 0.63932 0.47303 0.0
H1565 H 0.7805 0.64077 0.50466 0.0
loop_
_geom_bond_atom_site_label_1
_geom_bond_atom_site_label_2
_geom_bond_distance
_geom_bond_site_symmetry_2
_ccdc_geom_bond_type
H0 C7 0.929 . S
H1 C10 0.930 . S
H2 C12 0.929 . S
H3 C4 0.969 . S
C4 H3 0.969 . S
C4 O5 1.550 . S
C4 H6 0.973 . S
O5 C4 1.550 . S
O5 C11 1.412 . S
H6 C4 0.973 . S
C7 H0 0.929 . S
C7 C8 1.400 . S
C7 C9 1.364 . S
C8 C7 1.400 . S
C8 C12 1.377 . S
C9 C7 1.364 . S
C9 C10 1.374 . S
C10 H1 0.930 . S
C10 C9 1.374 . S
C10 C11 1.383 . S
C11 O5 1.412 . S
C11 C10 1.383 . S
C11 C12 1.394 . S
C12 H2 0.929 . S
C12 C8 1.377 . S
C12 C11 1.394 . S
H13 C20 0.929 . S
H14 C23 0.930 . S
H15 C25 0.929 . S
H16 C17 0.969 . S
C17 H16 0.969 . S
C17 O18 1.550 . S
C17 H19 0.973 . S
O18 C17 1.550 . S
O18 C24 1.412 . S
H19 C17 0.973 . S
C20 H13 0.929 . S
C20 C21 1.400 . S
C20 C22 1.364 . S
C21 C20 1.400 . S
C21 C25 1.377 . S
C22 C20 1.364 . S
C22 C23 1.374 . S
C23 H14 0.930 . S
C23 C22 1.374 . S
C23 C24 1.383 . S
C24 O18 1.412 . S
C24 C23 1.383 . S
C24 C25 1.394 . S
C25 H15 0.929 . S
C25 C21 1.377 . S
C25 C24 1.394 . S
H26 C33 0.929 . S
H27 C36 0.930 . S
H28 C38 0.929 . S
H29 C30 0.969 . S
C30 H29 0.969 . S
C30 O31 1.550 . S
C30 H32 0.973 . S
O31 C30 1.550 . S
O31 C37 1.412 . S
H32 C30 0.973 . S
C33 H26 0.929 . S
C33 C34 1.400 . S
C33 C35 1.364 . S
C34 C33 1.400 . S
C34 C38 1.377 . S
C35 C33 1.364 . S
C35 C36 1.374 . S
C36 H27 0.930 . S
C36 C35 1.374 . S
C36 C37 1.383 . S
C37 O31 1.412 . S
C37 C36 1.383 . S
C37 C38 1.394 . S
C38 H28 0.929 . S
C38 C34 1.377 . S
C38 C37 1.394 . S
H39 C46 0.929 . S
H40 C49 0.930 . S
H41 C51 0.929 . S
H42 C43 0.969 . S
C43 H42 0.969 . S
C43 O44 1.550 . S
C43 H45 0.973 . S
O44 C43 1.550 . S
O44 C50 1.412 . S
H45 C43 0.973 . S
C46 H39 0.929 . S
C46 C47 1.400 . S
C46 C48 1.364 . S
C47 C46 1.400 . S
C47 C51 1.377 . S
C48 C46 1.364 . S
C48 C49 1.374 . S
C49 H40 0.930 . S
C49 C48 1.374 . S
C49 C50 1.383 . S
C50 O44 1.412 . S
C50 C49 1.383 . S
C50 C51 1.394 . S
C51 H41 0.929 . S
C51 C47 1.377 . S
C51 C50 1.394 . S
H52 C59 0.929 . S
H53 C62 0.930 . S
H54 C64 0.929 . S
H55 C56 0.969 . S
C56 H55 0.969 . S
C56 O57 1.550 . S
C56 H58 0.973 . S
O57 C56 1.550 . S
O57 C63 1.412 . S
H58 C56 0.973 . S
C59 H52 0.929 . S
C59 C60 1.400 . S
C59 C61 1.364 . S
C60 C59 1.400 . S
C60 C64 1.377 . S
C61 C59 1.364 . S
C61 C62 1.374 . S
C62 H53 0.930 . S
C62 C61 1.374 . S
C62 C63 1.383 . S
C63 O57 1.412 . S
C63 C62 1.383 . S
C63 C64 1.394 . S
C64 H54 0.929 . S
C64 C60 1.377 . S
C64 C63 1.394 . S
H65 C72 0.929 . S
H66 C75 0.930 . S
H67 C77 0.929 . S
H68 C69 0.969 . S
C69 H68 0.969 . S
C69 O70 1.550 . S
C69 H71 0.973 . S
O70 C69 1.550 . S
O70 C76 1.412 . S
H71 C69 0.973 . S
C72 H65 0.929 . S
C72 C73 1.400 . S
C72 C74 1.364 . S
C73 C72 1.400 . S
C73 C77 1.377 . S
C74 C72 1.364 . S
C74 C75 1.374 . S
C75 H66 0.930 . S
C75 C74 1.374 . S
C75 C76 1.383 . S
C76 O70 1.412 . S
C76 C75 1.383 . S
C76 C77 1.394 . S
C77 H67 0.929 . S
C77 C73 1.377 . S
C77 C76 1.394 . S
H78 C85 0.929 . S
H79 C88 0.930 . S
H80 C90 0.929 . S
H81 C82 0.969 . S
C82 H81 0.969 . S
C82 O83 1.550 . S
C82 H84 0.973 . S
O83 C82 1.550 . S
O83 C89 1.412 . S
H84 C82 0.973 . S
C85 H78 0.929 . S
C85 C86 1.400 . S
C85 C87 1.364 . S
C86 C85 1.400 . S
C86 C90 1.377 . S
C87 C85 1.364 . S
C87 C88 1.374 . S
C88 H79 0.930 . S
C88 C87 1.374 . S
C88 C89 1.383 . S
C89 O83 1.412 . S
C89 C88 1.383 . S
C89 C90 1.394 . S
C90 H80 0.929 . S
C90 C86 1.377 . S
C90 C89 1.394 . S
H91 C98 0.929 . S
H92 C101 0.930 . S
H93 C103 0.929 . S
H94 C95 0.969 . S
C95 H94 0.969 . S
C95 O96 1.550 . S
C95 H97 0.973 . S
O96 C95 1.550 . S
O96 C102 1.412 . S
H97 C95 0.973 . S
C98 H91 0.929 . S
C98 C99 1.400 . S
C98 C100 1.364 . S
C99 C98 1.400 . S
C99 C103 1.377 . S
C100 C98 1.364 . S
C100 C101 1.374 . S
C101 H92 0.930 . S
C101 C100 1.374 . S
C101 C102 1.383 . S
C102 O96 1.412 . S
C102 C101 1.383 . S
C102 C103 1.394 . S
C103 H93 0.929 . S
C103 C99 1.377 . S
C103 C102 1.394 . S
H104 C111 0.929 . S
H105 C114 0.930 . S
H106 C116 0.929 . S
H107 C108 0.969 . S
C108 H107 0.969 . S
C108 O109 1.550 . S
C108 H110 0.973 . S
O109 C108 1.550 . S
O109 C115 1.412 . S
H110 C108 0.973 . S
C111 H104 0.929 . S
C111 C112 1.400 . S
C111 C113 1.364 . S
C112 C111 1.400 . S
C112 C116 1.377 . S
C113 C111 1.364 . S
C113 C114 1.374 . S
C114 H105 0.930 . S
C114 C113 1.374 . S
C114 C115 1.383 . S
C115 O109 1.412 . S
C115 C114 1.383 . S
C115 C116 1.394 . S
C116 H106 0.929 . S
C116 C112 1.377 . S
C116 C115 1.394 . S
H117 C124 0.929 . S
H118 C127 0.930 . S
H119 C129 0.929 . S
H120 C121 0.969 . S
C121 H120 0.969 . S
C121 O122 1.550 . S
C121 H123 0.973 . S
O122 C121 1.550 . S
O122 C128 1.412 . S
H123 C121 0.973 . S
C124 H117 0.929 . S
C124 C125 1.400 . S
C124 C126 1.364 . S
C125 C124 1.400 . S
C125 C129 1.377 . S
C126 C124 1.364 . S
C126 C127 1.374 . S
C127 H118 0.930 . S
C127 C126 1.374 . S
C127 C128 1.383 . S
C128 O122 1.412 . S
C128 C127 1.383 . S
C128 C129 1.394 . S
C129 H119 0.929 . S
C129 C125 1.377 . S
C129 C128 1.394 . S
H130 C137 0.929 . S
H131 C140 0.930 . S
H132 C142 0.929 1_554 S
H133 C134 0.969 . S
C134 H133 0.969 . S
C134 O135 1.550 . S
C134 H136 0.973 . S
O135 C134 1.550 . S
O135 C141 1.412 . S
H136 C134 0.973 . S
C137 H130 0.929 . S
C137 C138 1.400 . S
C137 C139 1.364 . S
C138 C137 1.400 . S
C138 C142 1.377 . S
C139 C137 1.364 . S
C139 C140 1.374 . S
C140 H131 0.930 . S
C140 C139 1.374 . S
C140 C141 1.383 . S
C141 O135 1.412 . S
C141 C140 1.383 . S
C141 C142 1.394 . S
C142 H132 0.929 1_556 S
C142 C138 1.377 . S
C142 C141 1.394 . S
H143 C150 0.929 . S
H144 C153 0.930 . S
H145 C155 0.929 . S
H146 C147 0.969 . S
C147 H146 0.969 . S
C147 O148 1.550 . S
C147 H149 0.973 . S
O148 C147 1.550 . S
O148 C154 1.412 . S
H149 C147 0.973 . S
C150 H143 0.929 . S
C150 C151 1.400 . S
C150 C152 1.364 . S
C151 C150 1.400 . S
C151 C155 1.377 . S
C152 C150 1.364 . S
C152 C153 1.374 . S
C153 H144 0.930 . S
C153 C152 1.374 . S
C153 C154 1.383 . S
C154 O148 1.412 . S
C154 C153 1.383 . S
C154 C155 1.394 . S
C155 H145 0.929 . S
C155 C151 1.377 . S
C155 C154 1.394 . S
H156 C163 0.929 . S
H157 C166 0.930 . S
H158 C168 0.929 . S
H159 C160 0.969 . S
C160 H159 0.969 . S
C160 O161 1.550 . S
C160 H162 0.973 . S
O161 C160 1.550 . S
O161 C167 1.412 . S
H162 C160 0.973 . S
C163 H156 0.929 . S
C163 C164 1.400 . S
C163 C165 1.364 . S
C164 C163 1.400 . S
C164 C168 1.377 . S
C165 C163 1.364 . S
C165 C166 1.374 . S
C166 H157 0.930 . S
C166 C165 1.374 . S
C166 C167 1.383 . S
C167 O161 1.412 . S
C167 C166 1.383 . S
C167 C168 1.394 . S
C168 H158 0.929 . S
C168 C164 1.377 . S
C168 C167 1.394 . S
H169 C176 0.929 . S
H170 C179 0.930 . S
H171 C181 0.929 . S
H172 C173 0.969 . S
C173 H172 0.969 . S
C173 O174 1.550 . S
C173 H175 0.973 . S
O174 C173 1.550 . S
O174 C180 1.412 . S
H175 C173 0.973 . S
C176 H169 0.929 . S
C176 C177 1.400 . S
C176 C178 1.364 . S
C177 C176 1.400 . S
C177 C181 1.377 . S
C178 C176 1.364 . S
C178 C179 1.374 . S
C179 H170 0.930 . S
C179 C178 1.374 . S
C179 C180 1.383 . S
C180 O174 1.412 . S
C180 C179 1.383 . S
C180 C181 1.394 . S
C181 H171 0.929 . S
C181 C177 1.377 . S
C181 C180 1.394 . S
H182 C189 0.929 . S
H183 C192 0.930 . S
H184 C194 0.929 . S
H185 C186 0.969 . S
C186 H185 0.969 . S
C186 O187 1.550 . S
C186 H188 0.973 . S
O187 C186 1.550 . S
O187 C193 1.412 . S
H188 C186 0.973 . S
C189 H182 0.929 . S
C189 C190 1.400 . S
C189 C191 1.364 . S
C190 C189 1.400 . S
C190 C194 1.377 . S
C191 C189 1.364 . S
C191 C192 1.374 . S
C192 H183 0.930 . S
C192 C191 1.374 . S
C192 C193 1.383 . S
C193 O187 1.412 . S
C193 C192 1.383 . S
C193 C194 1.394 . S
C194 H184 0.929 . S
C194 C190 1.377 . S
C194 C193 1.394 . S
H195 C202 0.929 . S
H196 C205 0.930 . S
H197 C207 0.929 . S
H198 C199 0.969 . S
C199 H198 0.969 . S
C199 O200 1.550 . S
C199 H201 0.973 . S
O200 C199 1.550 . S
O200 C206 1.412 . S
H201 C199 0.973 . S
C202 H195 0.929 . S
C202 C203 1.400 . S
C202 C204 1.364 . S
C203 C202 1.400 . S
C203 C207 1.377 . S
C204 C202 1.364 . S
C204 C205 1.374 . S
C205 H196 0.930 . S
C205 C204 1.374 . S
C205 C206 1.383 . S
C206 O200 1.412 . S
C206 C205 1.383 . S
C206 C207 1.394 . S
C207 H197 0.929 . S
C207 C203 1.377 . S
C207 C206 1.394 . S
H208 C215 0.929 . S
H209 C218 0.930 . S
H210 C220 0.929 . S
H211 C212 0.969 . S
C212 H211 0.969 . S
C212 O213 1.550 . S
C212 H214 0.973 . S
O213 C212 1.550 . S
O213 C219 1.412 . S
H214 C212 0.973 . S
C215 H208 0.929 . S
C215 C216 1.400 . S
C215 C217 1.364 . S
C216 C215 1.400 . S
C216 C220 1.377 . S
C217 C215 1.364 . S
C217 C218 1.374 . S
C218 H209 0.930 . S
C218 C217 1.374 . S
C218 C219 1.383 . S
C219 O213 1.412 . S
C219 C218 1.383 . S
C219 C220 1.394 . S
C220 H210 0.929 . S
C220 C216 1.377 . S
C220 C219 1.394 . S
H221 C228 0.929 . S
H222 C231 0.930 . S
H223 C233 0.929 . S
H224 C225 0.969 . S
C225 H224 0.969 . S
C225 O226 1.550 . S
C225 H227 0.973 . S
O226 C225 1.550 . S
O226 C232 1.412 . S
H227 C225 0.973 . S
C228 H221 0.929 . S
C228 C229 1.400 . S
C228 C230 1.364 . S
C229 C228 1.400 . S
C229 C233 1.377 . S
C230 C228 1.364 . S
C230 C231 1.374 . S
C231 H222 0.930 . S
C231 C230 1.374 . S
C231 C232 1.383 . S
C232 O226 1.412 . S
C232 C231 1.383 . S
C232 C233 1.394 . S
C233 H223 0.929 . S
C233 C229 1.377 . S
C233 C232 1.394 . S
Eu234 C243 2.828 1_565 S
Eu234 O245 2.392 . S
Eu234 O247 2.418 . S
Eu234 O252 2.373 1_565 S
Eu234 O255 2.488 . S
Eu234 O256 2.471 1_565 S
Eu234 O257 2.349 1_565 S
Eu235 O244 2.373 1_545 S
Eu235 O248 2.488 . S
Eu235 O249 2.471 1_545 S
Eu235 O250 2.349 1_545 S
Eu235 O253 2.392 . S
Eu235 O254 2.418 . S
Eu235 C264 2.828 . S
C236 O254 1.244 . S
C236 O257 1.265 1_554 S
C237 C238 1.379 . S
C237 C241 1.373 1_545 S
C237 C243 1.505 . S
C238 C237 1.379 . S
C238 C240 1.369 . S
C238 H266 0.930 . S
C239 C241 1.383 1_545 S
C239 C242 1.382 . S
C239 H267 0.930 1_545 S
C240 C238 1.369 . S
C240 C242 1.392 . S
C240 H268 0.930 . S
C241 C237 1.373 1_565 S
C241 C239 1.383 1_565 S
C241 H269 0.931 . S
C242 C239 1.382 . S
C242 C240 1.392 . S
C243 Eu234 2.828 1_545 S
C243 C237 1.505 . S
C243 O255 1.249 1_545 S
C243 O256 1.244 . S
O244 Eu235 2.373 1_565 S
O244 C246 1.258 . S
O245 Eu234 2.392 . S
O245 C246 1.242 1_556 S
C246 O244 1.258 . S
C246 O245 1.242 1_554 S
O247 Eu234 2.418 . S
O247 C251 1.244 1_556 S
O248 Eu235 2.488 . S
O248 C264 1.249 . S
O249 Eu235 2.471 1_565 S
O249 C264 1.244 1_565 S
O250 Eu235 2.349 1_565 S
O250 C251 1.265 . S
C251 O247 1.244 1_554 S
C251 O250 1.265 . S
O252 Eu234 2.373 1_545 S
O252 C265 1.258 . S
O253 Eu235 2.392 . S
O253 C265 1.242 1_554 S
O254 Eu235 2.418 . S
O254 C236 1.244 . S
O255 Eu234 2.488 . S
O255 C243 1.249 1_565 S
O256 Eu234 2.471 1_545 S
O256 C243 1.244 . S
O257 Eu234 2.349 1_545 S
O257 C236 1.265 1_556 S
C258 C259 1.379 . S
C258 C262 1.373 1_565 S
C258 C264 1.505 1_565 S
C259 C258 1.379 . S
C259 C261 1.369 . S
C259 H270 0.930 . S
C260 C262 1.383 . S
C260 C263 1.382 1_545 S
C260 H271 0.930 . S
C261 C259 1.369 . S
C261 C263 1.392 . S
C261 H272 0.930 . S
C262 C258 1.373 1_545 S
C262 C260 1.383 . S
C262 H273 0.931 . S
C263 C260 1.382 1_565 S
C263 C261 1.392 . S
C264 Eu235 2.828 . S
C264 O248 1.249 . S
C264 O249 1.244 1_545 S
C264 C258 1.505 1_545 S
C265 O252 1.258 . S
C265 O253 1.242 1_556 S
H266 C238 0.930 . S
H267 C239 0.930 1_565 S
H268 C240 0.930 . S
H269 C241 0.931 . S
H270 C259 0.930 . S
H271 C260 0.930 . S
H272 C261 0.930 . S
H273 C262 0.931 . S
Eu274 C283 2.827 1_455 S
Eu274 O285 2.392 1_556 S
Eu274 O287 2.418 . S
Eu274 O292 2.373 1_455 S
Eu274 O295 2.488 . S
Eu274 O296 2.471 1_455 S
Eu274 O297 2.349 1_455 S
Eu275 O284 2.373 1_655 S
Eu275 O288 2.488 . S
Eu275 O289 2.471 1_655 S
Eu275 O290 2.349 1_655 S
Eu275 O293 2.392 . S
Eu275 O294 2.418 . S
Eu275 C304 2.828 1_655 S
C276 O294 1.244 1_556 S
C276 O297 1.265 . S
C277 C278 1.379 . S
C277 C281 1.373 1_655 S
C277 C283 1.507 . S
C278 C277 1.379 . S
C278 C280 1.369 . S
C278 H306 0.930 . S
C279 C281 1.383 1_655 S
C279 C282 1.382 . S
C279 H307 0.930 1_655 S
C280 C278 1.369 . S
C280 C282 1.392 . S
C280 H308 0.930 . S
C281 C277 1.373 1_455 S
C281 C279 1.383 1_455 S
C281 H309 0.931 . S
C282 C279 1.382 . S
C282 C280 1.392 . S
C283 Eu274 2.827 1_655 S
C283 C277 1.507 . S
C283 O295 1.247 1_655 S
C283 O296 1.245 . S
O284 Eu275 2.373 1_455 S
O284 C286 1.258 . S
O285 Eu274 2.392 1_554 S
O285 C286 1.242 . S
C286 O284 1.258 . S
C286 O285 1.242 . S
O287 Eu274 2.418 . S
O287 C291 1.244 1_556 S
O288 Eu275 2.488 . S
O288 C304 1.249 1_655 S
O289 Eu275 2.471 1_455 S
O289 C304 1.244 . S
O290 Eu275 2.349 1_455 S
O290 C291 1.265 . S
C291 O287 1.244 1_554 S
C291 O290 1.265 . S
O292 Eu274 2.373 1_655 S
O292 C305 1.258 . S
O293 Eu275 2.392 . S
O293 C305 1.242 1_554 S
O294 Eu275 2.418 . S
O294 C276 1.244 1_554 S
O295 Eu274 2.488 . S
O295 C283 1.247 1_455 S
O296 Eu274 2.471 1_655 S
O296 C283 1.245 . S
O297 Eu274 2.349 1_655 S
O297 C276 1.265 . S
C298 C299 1.379 . S
C298 C302 1.373 1_455 S
C298 C304 1.505 . S
C299 C298 1.379 . S
C299 C301 1.369 . S
C299 H310 0.930 . S
C300 C302 1.383 1_455 S
C300 C303 1.382 . S
C300 H311 0.930 1_455 S
C301 C299 1.369 . S
C301 C303 1.392 . S
C301 H312 0.930 . S
C302 C298 1.373 1_655 S
C302 C300 1.383 1_655 S
C302 H313 0.931 . S
C303 C300 1.382 . S
C303 C301 1.392 . S
C304 Eu275 2.828 1_455 S
C304 O288 1.249 1_455 S
C304 O289 1.244 . S
C304 C298 1.505 . S
C305 O292 1.258 . S
C305 O293 1.242 1_556 S
H306 C278 0.930 . S
H307 C279 0.930 1_455 S
H308 C280 0.930 . S
H309 C281 0.931 . S
H310 C299 0.930 . S
H311 C300 0.930 1_655 S
H312 C301 0.930 . S
H313 C302 0.931 . S
Eu314 C323 2.828 . S
Eu314 O325 2.392 . S
Eu314 O327 2.418 . S
Eu314 O332 2.373 . S
Eu314 O335 2.488 . S
Eu314 O336 2.471 . S
Eu314 O337 2.349 . S
Eu315 O324 2.373 . S
Eu315 O328 2.488 . S
Eu315 O329 2.471 . S
Eu315 O330 2.349 . S
Eu315 O333 2.392 1_556 S
Eu315 O334 2.418 . S
Eu315 C344 2.828 . S
C316 O334 1.244 1_554 S
C316 O337 1.265 . S
C317 C318 1.379 . S
C317 C321 1.373 . S
C317 C323 1.505 . S
C318 C317 1.379 . S
C318 C320 1.369 . S
C318 H346 0.930 . S
C319 C321 1.383 . S
C319 C322 1.382 . S
C319 H347 0.930 . S
C320 C318 1.369 . S
C320 C322 1.392 . S
C320 H348 0.930 . S
C321 C317 1.373 . S
C321 C319 1.383 . S
C321 H349 0.931 . S
C322 C319 1.382 . S
C322 C320 1.392 . S
C323 Eu314 2.828 . S
C323 C317 1.505 . S
C323 O335 1.249 . S
C323 O336 1.244 . S
O324 Eu315 2.373 . S
O324 C326 1.258 . S
O325 Eu314 2.392 . S
O325 C326 1.242 1_554 S
C326 O324 1.258 . S
C326 O325 1.242 1_556 S
O327 Eu314 2.418 . S
O327 C331 1.244 . S
O328 Eu315 2.488 . S
O328 C344 1.249 . S
O329 Eu315 2.471 . S
O329 C344 1.244 . S
O330 Eu315 2.349 . S
O330 C331 1.265 1_556 S
C331 O327 1.244 . S
C331 O330 1.265 1_554 S
O332 Eu314 2.373 . S
O332 C345 1.258 . S
O333 Eu315 2.392 1_554 S
O333 C345 1.242 . S
O334 Eu315 2.418 . S
O334 C316 1.244 1_556 S
O335 Eu314 2.488 . S
O335 C323 1.249 . S
O336 Eu314 2.471 . S
O336 C323 1.244 . S
O337 Eu314 2.349 . S
O337 C316 1.265 . S
C338 C339 1.379 . S
C338 C342 1.373 . S
C338 C344 1.505 . S
C339 C338 1.379 . S
C339 C341 1.369 . S
C339 H350 0.930 . S
C340 C342 1.383 . S
C340 C343 1.382 . S
C340 H351 0.930 . S
C341 C339 1.369 . S
C341 C343 1.392 . S
C341 H352 0.930 . S
C342 C338 1.373 . S
C342 C340 1.383 . S
C342 H353 0.931 . S
C343 C340 1.382 . S
C343 C341 1.392 . S
C344 Eu315 2.828 . S
C344 O328 1.249 . S
C344 O329 1.244 . S
C344 C338 1.505 . S
C345 O332 1.258 . S
C345 O333 1.242 . S
H346 C318 0.930 . S
H347 C319 0.930 . S
H348 C320 0.930 . S
H349 C321 0.931 . S
H350 C339 0.930 . S
H351 C340 0.930 . S
H352 C341 0.930 . S
H353 C342 0.931 . S
Eu354 C363 2.828 . S
Eu354 O365 2.392 . S
Eu354 O367 2.418 . S
Eu354 O372 2.373 . S
Eu354 O375 2.488 . S
Eu354 O376 2.471 . S
Eu354 O377 2.349 . S
Eu355 O364 2.373 . S
Eu355 O368 2.488 . S
Eu355 O369 2.471 . S
Eu355 O370 2.349 . S
Eu355 O373 2.392 . S
Eu355 O374 2.418 . S
Eu355 C384 2.828 . S
C356 O374 1.244 . S
C356 O377 1.265 . S
C357 C358 1.379 . S
C357 C361 1.373 . S
C357 C363 1.505 . S
C358 C357 1.379 . S
C358 C360 1.369 . S
C358 H386 0.930 . S
C359 C361 1.383 . S
C359 C362 1.382 . S
C359 H387 0.930 . S
C360 C358 1.369 . S
C360 C362 1.392 . S
C360 H388 0.930 . S
C361 C357 1.373 . S
C361 C359 1.383 . S
C361 H389 0.931 . S
C362 C359 1.382 . S
C362 C360 1.392 . S
C363 Eu354 2.828 . S
C363 C357 1.505 . S
C363 O375 1.249 . S
C363 O376 1.244 . S
O364 Eu355 2.373 . S
O364 C366 1.258 . S
O365 Eu354 2.392 . S
O365 C366 1.242 . S
C366 O364 1.258 . S
C366 O365 1.242 . S
O367 Eu354 2.418 . S
O367 C371 1.244 . S
O368 Eu355 2.488 . S
O368 C384 1.249 . S
O369 Eu355 2.471 . S
O369 C384 1.244 . S
O370 Eu355 2.349 . S
O370 C371 1.265 . S
C371 O367 1.244 . S
C371 O370 1.265 . S
O372 Eu354 2.373 . S
O372 C385 1.258 . S
O373 Eu355 2.392 . S
O373 C385 1.242 . S
O374 Eu355 2.418 . S
O374 C356 1.244 . S
O375 Eu354 2.488 . S
O375 C363 1.249 . S
O376 Eu354 2.471 . S
O376 C363 1.244 . S
O377 Eu354 2.349 . S
O377 C356 1.265 . S
C378 C379 1.379 . S
C378 C382 1.373 . S
C378 C384 1.505 . S
C379 C378 1.379 . S
C379 C381 1.369 . S
C379 H390 0.930 . S
C380 C382 1.383 . S
C380 C383 1.382 . S
C380 H391 0.930 . S
C381 C379 1.369 . S
C381 C383 1.392 . S
C381 H392 0.930 . S
C382 C378 1.373 . S
C382 C380 1.383 . S
C382 H393 0.931 . S
C383 C380 1.382 . S
C383 C381 1.392 . S
C384 Eu355 2.828 . S
C384 O368 1.249 . S
C384 O369 1.244 . S
C384 C378 1.505 . S
C385 O372 1.258 . S
C385 O373 1.242 . S
H386 C358 0.930 . S
H387 C359 0.930 . S
H388 C360 0.930 . S
H389 C361 0.931 . S
H390 C379 0.930 . S
H391 C380 0.930 . S
H392 C381 0.930 . S
H393 C382 0.931 . S
Eu394 C403 2.828 . S
Eu394 O405 2.392 . S
Eu394 O407 2.418 . S
Eu394 O412 2.373 . S
Eu394 O415 2.488 . S
Eu394 O416 2.471 . S
Eu394 O417 2.349 . S
Eu395 O404 2.373 . S
Eu395 O408 2.488 . S
Eu395 O409 2.471 . S
Eu395 O410 2.349 . S
Eu395 O413 2.392 . S
Eu395 O414 2.418 . S
Eu395 C424 2.828 . S
C396 O414 1.244 . S
C396 O417 1.265 . S
C397 C398 1.379 . S
C397 C401 1.373 . S
C397 C403 1.505 . S
C398 C397 1.379 . S
C398 C400 1.369 . S
C398 H426 0.930 . S
C399 C401 1.383 . S
C399 C402 1.382 . S
C399 H427 0.930 . S
C400 C398 1.369 . S
C400 C402 1.392 . S
C400 H428 0.930 . S
C401 C397 1.373 . S
C401 C399 1.383 . S
C401 H429 0.931 . S
C402 C399 1.382 . S
C402 C400 1.392 . S
C403 Eu394 2.828 . S
C403 C397 1.505 . S
C403 O415 1.249 . S
C403 O416 1.244 . S
O404 Eu395 2.373 . S
O404 C406 1.258 . S
O405 Eu394 2.392 . S
O405 C406 1.242 . S
C406 O404 1.258 . S
C406 O405 1.242 . S
O407 Eu394 2.418 . S
O407 C411 1.244 . S
O408 Eu395 2.488 . S
O408 C424 1.249 . S
O409 Eu395 2.471 . S
O409 C424 1.244 . S
O410 Eu395 2.349 . S
O410 C411 1.265 . S
C411 O407 1.244 . S
C411 O410 1.265 . S
O412 Eu394 2.373 . S
O412 C425 1.258 . S
O413 Eu395 2.392 . S
O413 C425 1.242 . S
O414 Eu395 2.418 . S
O414 C396 1.244 . S
O415 Eu394 2.488 . S
O415 C403 1.249 . S
O416 Eu394 2.471 . S
O416 C403 1.244 . S
O417 Eu394 2.349 . S
O417 C396 1.265 . S
C418 C419 1.379 . S
C418 C422 1.373 . S
C418 C424 1.505 . S
C419 C418 1.379 . S
C419 C421 1.369 . S
C419 H430 0.930 . S
C420 C422 1.383 . S
C420 C423 1.382 . S
C420 H431 0.930 . S
C421 C419 1.369 . S
C421 C423 1.392 . S
C421 H432 0.930 . S
C422 C418 1.373 . S
C422 C420 1.383 . S
C422 H433 0.931 . S
C423 C420 1.382 . S
C423 C421 1.392 . S
C424 Eu395 2.828 . S
C424 O408 1.249 . S
C424 O409 1.244 . S
C424 C418 1.505 . S
C425 O412 1.258 . S
C425 O413 1.242 . S
H426 C398 0.930 . S
H427 C399 0.930 . S
H428 C400 0.930 . S
H429 C401 0.931 . S
H430 C419 0.930 . S
H431 C420 0.930 . S
H432 C421 0.930 . S
H433 C422 0.931 . S
Eu434 C443 2.828 . S
Eu434 O445 2.392 . S
Eu434 O447 2.418 . S
Eu434 O452 2.373 . S
Eu434 O455 2.488 . S
Eu434 O456 2.471 . S
Eu434 O457 2.349 . S
Eu435 O444 2.373 . S
Eu435 O448 2.488 . S
Eu435 O449 2.471 . S
Eu435 O450 2.349 . S
Eu435 O453 2.392 . S
Eu435 O454 2.418 . S
Eu435 C464 2.828 . S
C436 O454 1.244 . S
C436 O457 1.265 . S
C437 C438 1.379 . S
C437 C441 1.373 . S
C437 C443 1.505 . S
C438 C437 1.379 . S
C438 C440 1.369 . S
C438 H466 0.930 . S
C439 C441 1.383 . S
C439 C442 1.382 . S
C439 H467 0.930 . S
C440 C438 1.369 . S
C440 C442 1.392 . S
C440 H468 0.930 . S
C441 C437 1.373 . S
C441 C439 1.383 . S
C441 H469 0.931 . S
C442 C439 1.382 . S
C442 C440 1.392 . S
C443 Eu434 2.828 . S
C443 C437 1.505 . S
C443 O455 1.249 . S
C443 O456 1.244 . S
O444 Eu435 2.373 . S
O444 C446 1.258 . S
O445 Eu434 2.392 . S
O445 C446 1.242 . S
C446 O444 1.258 . S
C446 O445 1.242 . S
O447 Eu434 2.418 . S
O447 C451 1.244 . S
O448 Eu435 2.488 . S
O448 C464 1.249 . S
O449 Eu435 2.471 . S
O449 C464 1.244 . S
O450 Eu435 2.349 . S
O450 C451 1.265 . S
C451 O447 1.244 . S
C451 O450 1.265 . S
O452 Eu434 2.373 . S
O452 C465 1.258 . S
O453 Eu435 2.392 . S
O453 C465 1.242 . S
O454 Eu435 2.418 . S
O454 C436 1.244 . S
O455 Eu434 2.488 . S
O455 C443 1.249 . S
O456 Eu434 2.471 . S
O456 C443 1.244 . S
O457 Eu434 2.349 . S
O457 C436 1.265 . S
C458 C459 1.379 . S
C458 C462 1.373 . S
C458 C464 1.505 . S
C459 C458 1.379 . S
C459 C461 1.369 . S
C459 H470 0.930 . S
C460 C462 1.383 . S
C460 C463 1.382 . S
C460 H471 0.930 . S
C461 C459 1.369 . S
C461 C463 1.392 . S
C461 H472 0.930 . S
C462 C458 1.373 . S
C462 C460 1.383 . S
C462 H473 0.931 . S
C463 C460 1.382 . S
C463 C461 1.392 . S
C464 Eu435 2.828 . S
C464 O448 1.249 . S
C464 O449 1.244 . S
C464 C458 1.505 . S
C465 O452 1.258 . S
C465 O453 1.242 . S
H466 C438 0.930 . S
H467 C439 0.930 . S
H468 C440 0.930 . S
H469 C441 0.931 . S
H470 C459 0.930 . S
H471 C460 0.930 . S
H472 C461 0.930 . S
H473 C462 0.931 . S
Eu474 C483 2.828 . S
Eu474 O485 2.392 . S
Eu474 O487 2.418 . S
Eu474 O492 2.373 . S
Eu474 O495 2.488 . S
Eu474 O496 2.471 . S
Eu474 O497 2.349 . S
Eu475 O484 2.373 . S
Eu475 O488 2.488 . S
Eu475 O489 2.471 . S
Eu475 O490 2.349 . S
Eu475 O493 2.392 . S
Eu475 O494 2.418 . S
Eu475 C504 2.828 . S
C476 O494 1.244 . S
C476 O497 1.265 . S
C477 C478 1.379 . S
C477 C481 1.373 . S
C477 C483 1.505 . S
C478 C477 1.379 . S
C478 C480 1.369 . S
C478 H506 0.930 . S
C479 C481 1.383 . S
C479 C482 1.382 . S
C479 H507 0.930 . S
C480 C478 1.369 . S
C480 C482 1.392 . S
C480 H508 0.930 . S
C481 C477 1.373 . S
C481 C479 1.383 . S
C481 H509 0.931 . S
C482 C479 1.382 . S
C482 C480 1.392 . S
C483 Eu474 2.828 . S
C483 C477 1.505 . S
C483 O495 1.249 . S
C483 O496 1.244 . S
O484 Eu475 2.373 . S
O484 C486 1.258 . S
O485 Eu474 2.392 . S
O485 C486 1.242 . S
C486 O484 1.258 . S
C486 O485 1.242 . S
O487 Eu474 2.418 . S
O487 C491 1.244 . S
O488 Eu475 2.488 . S
O488 C504 1.249 . S
O489 Eu475 2.471 . S
O489 C504 1.244 . S
O490 Eu475 2.349 . S
O490 C491 1.265 . S
C491 O487 1.244 . S
C491 O490 1.265 . S
O492 Eu474 2.373 . S
O492 C505 1.258 . S
O493 Eu475 2.392 . S
O493 C505 1.242 . S
O494 Eu475 2.418 . S
O494 C476 1.244 . S
O495 Eu474 2.488 . S
O495 C483 1.249 . S
O496 Eu474 2.471 . S
O496 C483 1.244 . S
O497 Eu474 2.349 . S
O497 C476 1.265 . S
C498 C499 1.379 . S
C498 C502 1.373 . S
C498 C504 1.505 . S
C499 C498 1.379 . S
C499 C501 1.369 . S
C499 H510 0.930 . S
C500 C502 1.383 . S
C500 C503 1.382 . S
C500 H511 0.930 . S
C501 C499 1.369 . S
C501 C503 1.392 . S
C501 H512 0.930 . S
C502 C498 1.373 . S
C502 C500 1.383 . S
C502 H513 0.931 . S
C503 C500 1.382 . S
C503 C501 1.392 . S
C504 Eu475 2.828 . S
C504 O488 1.249 . S
C504 O489 1.244 . S
C504 C498 1.505 . S
C505 O492 1.258 . S
C505 O493 1.242 . S
H506 C478 0.930 . S
H507 C479 0.930 . S
H508 C480 0.930 . S
H509 C481 0.931 . S
H510 C499 0.930 . S
H511 C500 0.930 . S
H512 C501 0.930 . S
H513 C502 0.931 . S
Eu514 C523 2.828 . S
Eu514 O525 2.392 . S
Eu514 O527 2.418 . S
Eu514 O532 2.373 . S
Eu514 O535 2.488 . S
Eu514 O536 2.471 . S
Eu514 O537 2.349 . S
Eu515 O524 2.373 . S
Eu515 O528 2.488 . S
Eu515 O529 2.471 . S
Eu515 O530 2.349 . S
Eu515 O533 2.392 . S
Eu515 O534 2.418 . S
Eu515 C544 2.828 . S
C516 O534 1.244 . S
C516 O537 1.265 . S
C517 C518 1.379 . S
C517 C521 1.373 . S
C517 C523 1.505 . S
C518 C517 1.379 . S
C518 C520 1.369 . S
C518 H546 0.930 . S
C519 C521 1.383 . S
C519 C522 1.382 . S
C519 H547 0.930 . S
C520 C518 1.369 . S
C520 C522 1.392 . S
C520 H548 0.930 . S
C521 C517 1.373 . S
C521 C519 1.383 . S
C521 H549 0.931 . S
C522 C519 1.382 . S
C522 C520 1.392 . S
C523 Eu514 2.828 . S
C523 C517 1.505 . S
C523 O535 1.249 . S
C523 O536 1.244 . S
O524 Eu515 2.373 . S
O524 C526 1.258 . S
O525 Eu514 2.392 . S
O525 C526 1.242 . S
C526 O524 1.258 . S
C526 O525 1.242 . S
O527 Eu514 2.418 . S
O527 C531 1.244 . S
O528 Eu515 2.488 . S
O528 C544 1.249 . S
O529 Eu515 2.471 . S
O529 C544 1.244 . S
O530 Eu515 2.349 . S
O530 C531 1.265 . S
C531 O527 1.244 . S
C531 O530 1.265 . S
O532 Eu514 2.373 . S
O532 C545 1.258 . S
O533 Eu515 2.392 . S
O533 C545 1.242 . S
O534 Eu515 2.418 . S
O534 C516 1.244 . S
O535 Eu514 2.488 . S
O535 C523 1.249 . S
O536 Eu514 2.471 . S
O536 C523 1.244 . S
O537 Eu514 2.349 . S
O537 C516 1.265 . S
C538 C539 1.379 . S
C538 C542 1.373 . S
C538 C544 1.505 . S
C539 C538 1.379 . S
C539 C541 1.369 . S
C539 H550 0.930 . S
C540 C542 1.383 . S
C540 C543 1.382 . S
C540 H551 0.930 . S
C541 C539 1.369 . S
C541 C543 1.392 . S
C541 H552 0.930 . S
C542 C538 1.373 . S
C542 C540 1.383 . S
C542 H553 0.931 . S
C543 C540 1.382 . S
C543 C541 1.392 . S
C544 Eu515 2.828 . S
C544 O528 1.249 . S
C544 O529 1.244 . S
C544 C538 1.505 . S
C545 O532 1.258 . S
C545 O533 1.242 . S
H546 C518 0.930 . S
H547 C519 0.930 . S
H548 C520 0.930 . S
H549 C521 0.931 . S
H550 C539 0.930 . S
H551 C540 0.930 . S
H552 C541 0.930 . S
H553 C542 0.931 . S
Eu554 C563 2.828 . S
Eu554 O565 2.392 . S
Eu554 O567 2.418 . S
Eu554 O572 2.373 . S
Eu554 O575 2.488 . S
Eu554 O576 2.471 . S
Eu554 O577 2.349 . S
Eu555 O564 2.373 . S
Eu555 O568 2.488 . S
Eu555 O569 2.471 . S
Eu555 O570 2.349 . S
Eu555 O573 2.392 . S
Eu555 O574 2.418 . S
Eu555 C584 2.828 . S
C556 O574 1.244 . S
C556 O577 1.265 . S
C557 C558 1.379 . S
C557 C561 1.373 . S
C557 C563 1.505 . S
C558 C557 1.379 . S
C558 C560 1.369 . S
C558 H586 0.930 . S
C559 C561 1.383 . S
C559 C562 1.382 . S
C559 H587 0.930 . S
C560 C558 1.369 . S
C560 C562 1.392 . S
C560 H588 0.930 . S
C561 C557 1.373 . S
C561 C559 1.383 . S
C561 H589 0.931 . S
C562 C559 1.382 . S
C562 C560 1.392 . S
C563 Eu554 2.828 . S
C563 C557 1.505 . S
C563 O575 1.249 . S
C563 O576 1.244 . S
O564 Eu555 2.373 . S
O564 C566 1.258 . S
O565 Eu554 2.392 . S
O565 C566 1.242 . S
C566 O564 1.258 . S
C566 O565 1.242 . S
O567 Eu554 2.418 . S
O567 C571 1.244 . S
O568 Eu555 2.488 . S
O568 C584 1.249 . S
O569 Eu555 2.471 . S
O569 C584 1.244 . S
O570 Eu555 2.349 . S
O570 C571 1.265 . S
C571 O567 1.244 . S
C571 O570 1.265 . S
O572 Eu554 2.373 . S
O572 C585 1.258 . S
O573 Eu555 2.392 . S
O573 C585 1.242 . S
O574 Eu555 2.418 . S
O574 C556 1.244 . S
O575 Eu554 2.488 . S
O575 C563 1.249 . S
O576 Eu554 2.471 . S
O576 C563 1.244 . S
O577 Eu554 2.349 . S
O577 C556 1.265 . S
C578 C579 1.379 . S
C578 C582 1.373 . S
C578 C584 1.505 . S
C579 C578 1.379 . S
C579 C581 1.369 . S
C579 H590 0.930 . S
C580 C582 1.383 . S
C580 C583 1.382 . S
C580 H591 0.930 . S
C581 C579 1.369 . S
C581 C583 1.392 . S
C581 H592 0.930 . S
C582 C578 1.373 . S
C582 C580 1.383 . S
C582 H593 0.931 . S
C583 C580 1.382 . S
C583 C581 1.392 . S
C584 Eu555 2.828 . S
C584 O568 1.249 . S
C584 O569 1.244 . S
C584 C578 1.505 . S
C585 O572 1.258 . S
C585 O573 1.242 . S
H586 C558 0.930 . S
H587 C559 0.930 . S
H588 C560 0.930 . S
H589 C561 0.931 . S
H590 C579 0.930 . S
H591 C580 0.930 . S
H592 C581 0.930 . S
H593 C582 0.931 . S
C594 C595 1.363 . S
C594 C600 1.379 . S
C594 N602 1.356 . S
C595 C594 1.363 . S
C595 C601 1.363 . S
C596 C597 1.363 . S
C596 C601 1.379 . S
C596 N603 1.356 . S
C597 C596 1.363 . S
C597 C600 1.363 . S
N598 C600 1.356 . S
N598 H610 0.984 . S
N598 H611 0.985 . S
N599 C601 1.356 . S
N599 H604 0.984 . S
N599 H605 0.985 . S
C600 C594 1.379 . S
C600 C597 1.363 . S
C600 N598 1.356 . S
C601 C595 1.363 . S
C601 C596 1.379 . S
C601 N599 1.356 . S
N602 C594 1.356 . S
N602 H608 0.984 . S
N602 H609 0.984 . S
N603 C596 1.356 . S
N603 H606 0.996 . S
N603 H607 0.985 1_554 S
H604 N599 0.984 . S
H605 N599 0.985 . S
H606 N603 0.996 . S
H607 N603 0.985 1_556 S
H608 N602 0.984 . S
H609 N602 0.984 . S
H610 N598 0.984 . S
H611 N598 0.985 . S
C612 C613 1.363 . S
C612 C618 1.379 . S
C612 N620 1.356 . S
C613 C612 1.363 . S
C613 C619 1.363 . S
C614 C615 1.363 . S
C614 C619 1.379 . S
C614 N621 1.356 . S
C615 C614 1.363 . S
C615 C618 1.363 . S
N616 C618 1.356 . S
N616 H628 0.984 . S
N616 H629 0.985 . S
N617 C619 1.356 . S
N617 H622 0.984 . S
N617 H623 0.985 . S
C618 C612 1.379 . S
C618 C615 1.363 . S
C618 N616 1.356 . S
C619 C613 1.363 . S
C619 C614 1.379 . S
C619 N617 1.356 . S
N620 C612 1.356 . S
N620 H626 0.984 . S
N620 H627 0.984 . S
N621 C614 1.356 . S
N621 H624 0.984 . S
N621 H625 0.985 1_554 S
H622 N617 0.984 . S
H623 N617 0.985 . S
H624 N621 0.984 . S
H625 N621 0.985 1_556 S
H626 N620 0.984 . S
H627 N620 0.984 . S
H628 N616 0.984 . S
H629 N616 0.985 . S
C630 C631 1.363 . S
C630 C636 1.379 . S
C630 N638 1.356 1_554 S
C631 C630 1.363 . S
C631 C637 1.363 . S
C632 C633 1.363 . S
C632 C637 1.379 . S
C632 N639 1.356 . S
C633 C632 1.363 . S
C633 C636 1.363 . S
N634 C636 1.356 1_556 S
N634 H646 0.984 . S
N634 H647 0.985 . S
N635 C637 1.356 . S
N635 H640 0.984 . S
N635 H641 0.985 . S
C636 C630 1.379 . S
C636 C633 1.363 . S
C636 N634 1.356 1_554 S
C637 C631 1.363 . S
C637 C632 1.379 . S
C637 N635 1.356 . S
N638 C630 1.356 1_556 S
N638 H644 0.984 . S
N638 H645 0.986 1_556 S
N639 C632 1.356 . S
N639 H642 0.984 . S
N639 H643 0.985 . S
H640 N635 0.984 . S
H641 N635 0.985 . S
H642 N639 0.984 . S
H643 N639 0.985 . S
H644 N638 0.984 . S
H645 N638 0.986 1_554 S
H646 N634 0.984 . S
H647 N634 0.985 . S
C648 C649 1.363 . S
C648 C654 1.379 . S
C648 N656 1.366 . S
C649 C648 1.363 . S
C649 C655 1.363 . S
C650 C651 1.363 . S
C650 C655 1.379 . S
C650 N657 1.356 . S
C651 C650 1.363 . S
C651 C654 1.363 . S
N652 C654 1.356 1_554 S
N652 H664 0.984 . S
N652 H665 0.985 . S
N653 C655 1.356 . S
N653 H658 0.984 . S
N653 H659 0.985 . S
C654 C648 1.379 . S
C654 C651 1.363 . S
C654 N652 1.356 1_556 S
C655 C649 1.363 . S
C655 C650 1.379 . S
C655 N653 1.356 . S
N656 C648 1.366 . S
N656 H662 0.967 1_556 S
N656 H663 0.992 . S
N657 C650 1.356 . S
N657 H660 0.984 . S
N657 H661 0.985 . S
H658 N653 0.984 . S
H659 N653 0.985 . S
H660 N657 0.984 . S
H661 N657 0.985 . S
H662 N656 0.967 1_554 S
H663 N656 0.992 . S
H664 N652 0.984 . S
H665 N652 0.985 . S
C666 C667 1.363 . S
C666 C672 1.379 . S
C666 N674 1.356 . S
C667 C666 1.363 . S
C667 C673 1.363 . S
C668 C669 1.363 . S
C668 C673 1.379 . S
C668 N675 1.356 . S
C669 C668 1.363 . S
C669 C672 1.363 . S
N670 C672 1.356 1_554 S
N670 H682 0.984 . S
N670 H683 0.985 . S
N671 C673 1.356 . S
N671 H676 0.984 . S
N671 H677 0.985 . S
C672 C666 1.379 . S
C672 C669 1.363 . S
C672 N670 1.356 1_556 S
C673 C667 1.363 . S
C673 C668 1.379 . S
C673 N671 1.356 . S
N674 C666 1.356 . S
N674 H680 0.984 . S
N674 H681 0.984 . S
N675 C668 1.356 . S
N675 H678 0.984 . S
N675 H679 0.985 . S
H676 N671 0.984 . S
H677 N671 0.985 . S
H678 N675 0.984 . S
H679 N675 0.985 . S
H680 N674 0.984 . S
H681 N674 0.984 . S
H682 N670 0.984 . S
H683 N670 0.985 . S
C684 C685 1.363 . S
C684 C690 1.380 . S
C684 N692 1.356 . S
C685 C684 1.363 . S
C685 C691 1.363 . S
C686 C687 1.363 . S
C686 C691 1.379 . S
C686 N693 1.356 . S
C687 C686 1.363 . S
C687 C690 1.364 . S
N688 C690 1.353 1_554 S
N688 H700 0.984 . S
N688 H701 0.985 . S
N689 C691 1.356 . S
N689 H694 0.984 . S
N689 H695 0.985 . S
C690 C684 1.380 . S
C690 C687 1.364 . S
C690 N688 1.353 1_556 S
C691 C685 1.363 . S
C691 C686 1.379 . S
C691 N689 1.356 . S
N692 C684 1.356 . S
N692 H698 0.984 1_556 S
N692 H699 0.984 . S
N693 C686 1.356 . S
N693 H696 0.984 . S
N693 H697 0.985 . S
H694 N689 0.984 . S
H695 N689 0.985 . S
H696 N693 0.984 . S
H697 N693 0.985 . S
H698 N692 0.984 1_554 S
H699 N692 0.984 . S
H700 N688 0.984 . S
H701 N688 0.985 . S
C702 C703 1.363 . S
C702 C708 1.379 . S
C702 N710 1.356 . S
C703 C702 1.363 . S
C703 C709 1.363 . S
C704 C705 1.363 . S
C704 C709 1.379 . S
C704 N711 1.356 1_556 S
C705 C704 1.363 . S
C705 C708 1.363 . S
N706 C708 1.356 . S
N706 H718 0.984 . S
N706 H719 0.985 . S
N707 C709 1.356 1_554 S
N707 H712 0.981 1_554 S
N707 H713 0.985 . S
C708 C702 1.379 . S
C708 C705 1.363 . S
C708 N706 1.356 . S
C709 C703 1.363 . S
C709 C704 1.379 . S
C709 N707 1.356 1_556 S
N710 C702 1.356 . S
N710 H716 0.984 . S
N710 H717 0.984 . S
N711 C704 1.356 1_554 S
N711 H714 0.984 . S
N711 H715 0.985 . S
H712 N707 0.981 1_556 S
H713 N707 0.985 . S
H714 N711 0.984 . S
H715 N711 0.985 . S
H716 N710 0.984 . S
H717 N710 0.984 . S
H718 N706 0.984 . S
H719 N706 0.985 . S
C720 C721 1.363 . S
C720 C726 1.379 . S
C720 N728 1.356 . S
C721 C720 1.363 . S
C721 C727 1.363 . S
C722 C723 1.363 . S
C722 C727 1.379 . S
C722 N729 1.356 . S
C723 C722 1.363 . S
C723 C726 1.363 . S
N724 C726 1.356 . S
N724 H736 0.984 . S
N724 H737 0.985 . S
N725 C727 1.356 . S
N725 H730 0.984 . S
N725 H731 0.999 . S
C726 C720 1.379 . S
C726 C723 1.363 . S
C726 N724 1.356 . S
C727 C721 1.363 . S
C727 C722 1.379 . S
C727 N725 1.356 . S
N728 C720 1.356 . S
N728 H734 0.984 . S
N728 H735 0.984 . S
N729 C722 1.356 . S
N729 H732 0.984 . S
N729 H733 0.985 1_556 S
H730 N725 0.984 . S
H731 N725 0.999 . S
H732 N729 0.984 . S
H733 N729 0.985 1_554 S
H734 N728 0.984 . S
H735 N728 0.984 . S
H736 N724 0.984 . S
H737 N724 0.985 . S
C738 C739 1.363 . S
C738 C744 1.379 . S
C738 N746 1.356 . S
C739 C738 1.363 . S
C739 C745 1.363 1_556 S
C740 C741 1.363 1_554 S
C740 C745 1.379 . S
C740 N747 1.356 . S
C741 C740 1.363 1_556 S
C741 C744 1.363 . S
N742 C744 1.356 . S
N742 H754 0.984 . S
N742 H755 0.985 . S
N743 C745 1.356 . S
N743 H748 0.984 . S
N743 H749 0.985 . S
C744 C738 1.379 . S
C744 C741 1.363 . S
C744 N742 1.356 . S
C745 C739 1.363 1_554 S
C745 C740 1.379 . S
C745 N743 1.356 . S
N746 C738 1.356 . S
N746 H752 0.984 . S
N746 H753 0.984 . S
N747 C740 1.356 . S
N747 H750 0.984 . S
N747 H751 0.985 . S
H748 N743 0.984 . S
H749 N743 0.985 . S
H750 N747 0.984 . S
H751 N747 0.985 . S
H752 N746 0.984 . S
H753 N746 0.984 . S
H754 N742 0.984 . S
H755 N742 0.985 . S
C756 C757 1.363 . S
C756 C762 1.379 1_554 S
C756 N764 1.356 1_554 S
C757 C756 1.363 . S
C757 C763 1.363 . S
C758 C759 1.363 . S
C758 C763 1.379 . S
C758 N765 1.356 . S
C759 C758 1.363 . S
C759 C762 1.349 1_554 S
N760 C762 1.367 . S
N760 H772 0.984 . S
N760 H773 0.985 . S
N761 C763 1.356 . S
N761 H766 0.984 . S
N761 H767 0.985 . S
C762 C756 1.379 1_556 S
C762 C759 1.349 1_556 S
C762 N760 1.367 . S
C763 C757 1.363 . S
C763 C758 1.379 . S
C763 N761 1.356 . S
N764 C756 1.356 1_556 S
N764 H770 0.984 . S
N764 H771 0.984 . S
N765 C758 1.356 . S
N765 H768 0.984 . S
N765 H769 0.985 . S
H766 N761 0.984 . S
H767 N761 0.985 . S
H768 N765 0.984 . S
H769 N765 0.985 . S
H770 N764 0.984 . S
H771 N764 0.984 . S
H772 N760 0.984 . S
H773 N760 0.985 . S
C774 C775 1.363 . S
C774 C780 1.379 . S
C774 N782 1.356 . S
C775 C774 1.363 . S
C775 C781 1.363 . S
C776 C777 1.363 . S
C776 C781 1.379 . S
C776 N783 1.356 . S
C777 C776 1.363 . S
C777 C780 1.363 . S
N778 C780 1.356 . S
N778 H790 0.984 1_554 S
N778 H791 0.985 . S
N779 C781 1.356 . S
N779 H784 0.984 . S
N779 H785 0.985 . S
C780 C774 1.379 . S
C780 C777 1.363 . S
C780 N778 1.356 . S
C781 C775 1.363 . S
C781 C776 1.379 . S
C781 N779 1.356 . S
N782 C774 1.356 . S
N782 H788 0.984 . S
N782 H789 0.984 . S
N783 C776 1.356 . S
N783 H786 0.984 . S
N783 H787 0.985 . S
H784 N779 0.984 . S
H785 N779 0.985 . S
H786 N783 0.984 . S
H787 N783 0.985 . S
H788 N782 0.984 . S
H789 N782 0.984 . S
H790 N778 0.984 1_556 S
H791 N778 0.985 . S
C792 C793 1.363 1_556 S
C792 C798 1.379 . S
C792 N800 1.356 . S
C793 C792 1.363 1_554 S
C793 C799 1.363 . S
C794 C795 1.363 . S
C794 C799 1.379 . S
C794 N801 1.356 . S
C795 C794 1.363 . S
C795 C798 1.363 1_554 S
N796 C798 1.356 . S
N796 H808 0.984 . S
N796 H809 0.985 . S
N797 C799 1.356 . S
N797 H802 0.984 . S
N797 H803 0.985 . S
C798 C792 1.379 . S
C798 C795 1.363 1_556 S
C798 N796 1.356 . S
C799 C793 1.363 . S
C799 C794 1.379 . S
C799 N797 1.356 . S
N800 C792 1.356 . S
N800 H806 0.984 . S
N800 H807 0.984 . S
N801 C794 1.356 . S
N801 H804 0.984 . S
N801 H805 0.985 . S
H802 N797 0.984 . S
H803 N797 0.985 . S
H804 N801 0.984 . S
H805 N801 0.985 . S
H806 N800 0.984 . S
H807 N800 0.984 . S
H808 N796 0.984 . S
H809 N796 0.985 . S
C810 C811 1.363 . S
C810 C816 1.379 1_655 S
C810 N818 1.356 . S
C811 C810 1.363 . S
C811 C817 1.363 . S
C812 C813 1.363 . S
C812 C817 1.379 1_455 S
C812 N819 1.356 . S
C813 C812 1.363 . S
C813 C816 1.363 . S
N814 C816 1.356 . S
N814 H826 0.984 . S
N814 H827 0.985 . S
N815 C817 1.356 . S
N815 H820 0.984 . S
N815 H821 0.985 . S
C816 C810 1.379 1_455 S
C816 C813 1.363 . S
C816 N814 1.356 . S
C817 C811 1.363 . S
C817 C812 1.379 1_655 S
C817 N815 1.356 . S
N818 C810 1.356 . S
N818 H824 0.984 . S
N818 H825 0.984 . S
N819 C812 1.356 . S
N819 H822 0.984 . S
N819 H823 0.985 . S
H820 N815 0.984 . S
H821 N815 0.985 . S
H822 N819 0.984 . S
H823 N819 0.985 . S
H824 N818 0.984 . S
H825 N818 0.984 . S
H826 N814 0.984 . S
H827 N814 0.985 . S
C828 C829 1.363 . S
C828 C834 1.379 . S
C828 N836 1.356 . S
C829 C828 1.363 . S
C829 C835 1.363 . S
C830 C831 1.363 . S
C830 C835 1.379 . S
C830 N837 1.356 . S
C831 C830 1.363 . S
C831 C834 1.363 . S
N832 C834 1.356 . S
N832 H844 0.984 . S
N832 H845 0.985 . S
N833 C835 1.356 . S
N833 H838 0.984 . S
N833 H839 0.985 . S
C834 C828 1.379 . S
C834 C831 1.363 . S
C834 N832 1.356 . S
C835 C829 1.363 . S
C835 C830 1.379 . S
C835 N833 1.356 . S
N836 C828 1.356 . S
N836 H842 0.984 . S
N836 H843 0.984 . S
N837 C830 1.356 . S
N837 H840 0.984 . S
N837 H841 0.985 . S
H838 N833 0.984 . S
H839 N833 0.985 . S
H840 N837 0.984 . S
H841 N837 0.985 . S
H842 N836 0.984 . S
H843 N836 0.984 . S
H844 N832 0.984 . S
H845 N832 0.985 . S
C846 C847 1.363 . S
C846 C852 1.379 . S
C846 N854 1.356 . S
C847 C846 1.363 . S
C847 C853 1.363 . S
C848 C849 1.363 1_545 S
C848 C853 1.379 . S
C848 N855 1.356 1_545 S
C849 C848 1.363 1_565 S
C849 C852 1.363 1_565 S
N850 C852 1.356 1_565 S
N850 H862 0.984 . S
N850 H863 0.985 . S
N851 C853 1.356 . S
N851 H856 0.984 . S
N851 H857 0.985 . S
C852 C846 1.379 . S
C852 C849 1.363 1_545 S
C852 N850 1.356 1_545 S
C853 C847 1.363 . S
C853 C848 1.379 . S
C853 N851 1.356 . S
N854 C846 1.356 . S
N854 H860 0.984 . S
N854 H861 0.984 . S
N855 C848 1.356 1_565 S
N855 H858 0.984 . S
N855 H859 0.985 . S
H856 N851 0.984 . S
H857 N851 0.985 . S
H858 N855 0.984 . S
H859 N855 0.985 . S
H860 N854 0.984 . S
H861 N854 0.984 . S
H862 N850 0.984 . S
H863 N850 0.985 . S
C864 C865 1.363 . S
C864 C870 1.379 . S
C864 N872 1.356 . S
C865 C864 1.363 . S
C865 C871 1.363 . S
C866 C867 1.363 . S
C866 C871 1.379 . S
C866 N873 1.356 . S
C867 C866 1.363 . S
C867 C870 1.363 . S
N868 C870 1.356 . S
N868 H880 0.984 . S
N868 H881 0.985 . S
N869 C871 1.356 . S
N869 H874 0.984 . S
N869 H875 0.985 . S
C870 C864 1.379 . S
C870 C867 1.363 . S
C870 N868 1.356 . S
C871 C865 1.363 . S
C871 C866 1.379 . S
C871 N869 1.356 . S
N872 C864 1.356 . S
N872 H878 0.984 . S
N872 H879 0.984 . S
N873 C866 1.356 . S
N873 H876 0.984 . S
N873 H877 0.985 . S
H874 N869 0.984 . S
H875 N869 0.985 . S
H876 N873 0.984 . S
H877 N873 0.985 . S
H878 N872 0.984 . S
H879 N872 0.984 . S
H880 N868 0.984 . S
H881 N868 0.985 . S
C882 C883 1.363 . S
C882 C888 1.379 . S
C882 N890 1.356 . S
C883 C882 1.363 . S
C883 C889 1.363 . S
C884 C885 1.363 . S
C884 C889 1.379 . S
C884 N891 1.356 . S
C885 C884 1.363 . S
C885 C888 1.363 . S
N886 C888 1.356 . S
N886 H898 0.984 . S
N886 H899 0.985 . S
N887 C889 1.356 . S
N887 H892 0.984 . S
N887 H893 0.985 . S
C888 C882 1.379 . S
C888 C885 1.363 . S
C888 N886 1.356 . S
C889 C883 1.363 . S
C889 C884 1.379 . S
C889 N887 1.356 . S
N890 C882 1.356 . S
N890 H896 0.984 . S
N890 H897 0.984 . S
N891 C884 1.356 . S
N891 H894 0.984 . S
N891 H895 0.985 . S
H892 N887 0.984 . S
H893 N887 0.985 . S
H894 N891 0.984 . S
H895 N891 0.985 . S
H896 N890 0.984 . S
H897 N890 0.984 . S
H898 N886 0.984 . S
H899 N886 0.985 . S
C900 C901 1.363 . S
C900 C906 1.379 . S
C900 N908 1.356 . S
C901 C900 1.363 . S
C901 C907 1.363 . S
C902 C903 1.363 . S
C902 C907 1.379 . S
C902 N909 1.356 . S
C903 C902 1.363 . S
C903 C906 1.363 . S
N904 C906 1.356 . S
N904 H916 0.984 . S
N904 H917 0.985 . S
N905 C907 1.356 . S
N905 H910 0.984 . S
N905 H911 0.985 . S
C906 C900 1.379 . S
C906 C903 1.363 . S
C906 N904 1.356 . S
C907 C901 1.363 . S
C907 C902 1.379 . S
C907 N905 1.356 . S
N908 C900 1.356 . S
N908 H914 0.984 . S
N908 H915 0.984 . S
N909 C902 1.356 . S
N909 H912 0.984 . S
N909 H913 0.985 . S
H910 N905 0.984 . S
H911 N905 0.985 . S
H912 N909 0.984 . S
H913 N909 0.985 . S
H914 N908 0.984 . S
H915 N908 0.984 . S
H916 N904 0.984 . S
H917 N904 0.985 . S
C918 C919 1.363 . S
C918 C924 1.379 . S
C918 N926 1.356 . S
C919 C918 1.363 . S
C919 C925 1.363 . S
C920 C921 1.363 . S
C920 C925 1.379 . S
C920 N927 1.356 . S
C921 C920 1.363 . S
C921 C924 1.363 . S
N922 C924 1.356 . S
N922 H934 0.984 . S
N922 H935 0.985 . S
N923 C925 1.356 . S
N923 H928 0.984 . S
N923 H929 0.985 . S
C924 C918 1.379 . S
C924 C921 1.363 . S
C924 N922 1.356 . S
C925 C919 1.363 . S
C925 C920 1.379 . S
C925 N923 1.356 . S
N926 C918 1.356 . S
N926 H932 0.984 . S
N926 H933 0.984 . S
N927 C920 1.356 . S
N927 H930 0.984 . S
N927 H931 0.985 . S
H928 N923 0.984 . S
H929 N923 0.985 . S
H930 N927 0.984 . S
H931 N927 0.985 . S
H932 N926 0.984 . S
H933 N926 0.984 . S
H934 N922 0.984 . S
H935 N922 0.985 . S
C936 C937 1.363 . S
C936 C942 1.379 . S
C936 N944 1.356 . S
C937 C936 1.363 . S
C937 C943 1.363 . S
C938 C939 1.363 . S
C938 C943 1.379 . S
C938 N945 1.356 . S
C939 C938 1.363 . S
C939 C942 1.363 . S
N940 C942 1.356 . S
N940 H952 0.984 . S
N940 H953 0.985 . S
N941 C943 1.356 . S
N941 H946 0.984 . S
N941 H947 0.985 . S
C942 C936 1.379 . S
C942 C939 1.363 . S
C942 N940 1.356 . S
C943 C937 1.363 . S
C943 C938 1.379 . S
C943 N941 1.356 . S
N944 C936 1.356 . S
N944 H950 0.984 . S
N944 H951 0.984 . S
N945 C938 1.356 . S
N945 H948 0.984 . S
N945 H949 0.985 . S
H946 N941 0.984 . S
H947 N941 0.985 . S
H948 N945 0.984 . S
H949 N945 0.985 . S
H950 N944 0.984 . S
H951 N944 0.984 . S
H952 N940 0.984 . S
H953 N940 0.985 . S
C954 C955 1.363 . S
C954 C960 1.379 . S
C954 N962 1.356 . S
C955 C954 1.363 . S
C955 C961 1.363 . S
C956 C957 1.363 . S
C956 C961 1.379 . S
C956 N963 1.356 . S
C957 C956 1.363 . S
C957 C960 1.363 . S
N958 C960 1.356 . S
N958 H970 0.984 . S
N958 H971 0.985 . S
N959 C961 1.356 . S
N959 H964 0.984 . S
N959 H965 0.985 . S
C960 C954 1.379 . S
C960 C957 1.363 . S
C960 N958 1.356 . S
C961 C955 1.363 . S
C961 C956 1.379 . S
C961 N959 1.356 . S
N962 C954 1.356 . S
N962 H968 0.984 . S
N962 H969 0.984 . S
N963 C956 1.356 . S
N963 H966 0.984 . S
N963 H967 0.985 . S
H964 N959 0.984 . S
H965 N959 0.985 . S
H966 N963 0.984 . S
H967 N963 0.985 . S
H968 N962 0.984 . S
H969 N962 0.984 . S
H970 N958 0.984 . S
H971 N958 0.985 . S
C972 C973 1.363 1_565 S
C972 C978 1.379 . S
C972 N980 1.356 1_565 S
C973 C972 1.363 1_545 S
C973 C979 1.363 1_545 S
C974 C975 1.363 . S
C974 C979 1.379 . S
C974 N981 1.356 . S
C975 C974 1.363 . S
C975 C978 1.363 . S
N976 C978 1.356 . S
N976 H988 0.984 . S
N976 H989 0.985 . S
N977 C979 1.356 1_545 S
N977 H982 0.984 . S
N977 H983 0.985 . S
C978 C972 1.379 . S
C978 C975 1.363 . S
C978 N976 1.356 . S
C979 C973 1.363 1_565 S
C979 C974 1.379 . S
C979 N977 1.356 1_565 S
N980 C972 1.356 1_545 S
N980 H986 0.984 . S
N980 H987 0.984 . S
N981 C974 1.356 . S
N981 H984 0.984 . S
N981 H985 0.985 . S
H982 N977 0.984 . S
H983 N977 0.985 . S
H984 N981 0.984 . S
H985 N981 0.985 . S
H986 N980 0.984 . S
H987 N980 0.984 . S
H988 N976 0.984 . S
H989 N976 0.985 . S
C990 C991 1.363 . S
C990 C996 1.379 . S
C990 N998 1.356 1_455 S
C991 C990 1.363 . S
C991 C997 1.363 . S
C992 C993 1.363 . S
C992 C997 1.379 . S
C992 N999 1.356 . S
C993 C992 1.363 . S
C993 C996 1.363 . S
N994 C996 1.356 . S
N994 H1006 0.984 . S
N994 H1007 0.985 . S
N995 C997 1.356 . S
N995 H1000 1.010 . S
N995 H1001 0.985 . S
C996 C990 1.379 . S
C996 C993 1.363 . S
C996 N994 1.356 . S
C997 C991 1.363 . S
C997 C992 1.379 . S
C997 N995 1.356 . S
N998 C990 1.356 1_655 S
N998 H1004 0.984 . S
N998 H1005 0.984 . S
N999 C992 1.356 . S
N999 H1002 0.984 . S
N999 H1003 0.985 . S
H1000 N995 1.010 . S
H1001 N995 0.985 . S
H1002 N999 0.984 . S
H1003 N999 0.985 . S
H1004 N998 0.984 . S
H1005 N998 0.984 . S
H1006 N994 0.984 . S
H1007 N994 0.985 . S
C1008 C1009 1.363 . S
C1008 C1014 1.379 . S
C1008 N1016 1.356 . S
C1009 C1008 1.363 . S
C1009 C1015 1.363 . S
C1010 C1011 1.363 . S
C1010 C1015 1.379 . S
C1010 N1017 1.356 . S
C1011 C1010 1.363 . S
C1011 C1014 1.363 . S
N1012 C1014 1.356 . S
N1012 H1024 0.984 . S
N1012 H1025 0.985 . S
N1013 C1015 1.356 . S
N1013 H1018 0.984 . S
N1013 H1019 0.985 . S
C1014 C1008 1.379 . S
C1014 C1011 1.363 . S
C1014 N1012 1.356 . S
C1015 C1009 1.363 . S
C1015 C1010 1.379 . S
C1015 N1013 1.356 . S
N1016 C1008 1.356 . S
N1016 H1022 0.984 . S
N1016 H1023 0.984 . S
N1017 C1010 1.356 . S
N1017 H1020 0.984 . S
N1017 H1021 0.985 . S
H1018 N1013 0.984 . S
H1019 N1013 0.985 . S
H1020 N1017 0.984 . S
H1021 N1017 0.985 . S
H1022 N1016 0.984 . S
H1023 N1016 0.984 . S
H1024 N1012 0.984 . S
H1025 N1012 0.985 . S
C1026 C1027 1.363 . S
C1026 C1032 1.379 . S
C1026 N1034 1.356 . S
C1027 C1026 1.363 . S
C1027 C1033 1.363 . S
C1028 C1029 1.363 . S
C1028 C1033 1.379 . S
C1028 N1035 1.356 . S
C1029 C1028 1.363 . S
C1029 C1032 1.363 . S
N1030 C1032 1.356 . S
N1030 H1042 0.984 . S
N1030 H1043 0.985 . S
N1031 C1033 1.356 . S
N1031 H1036 0.984 . S
N1031 H1037 0.985 . S
C1032 C1026 1.379 . S
C1032 C1029 1.363 . S
C1032 N1030 1.356 . S
C1033 C1027 1.363 . S
C1033 C1028 1.379 . S
C1033 N1031 1.356 . S
N1034 C1026 1.356 . S
N1034 H1040 0.984 . S
N1034 H1041 0.984 . S
N1035 C1028 1.356 . S
N1035 H1038 0.984 . S
N1035 H1039 0.985 . S
H1036 N1031 0.984 . S
H1037 N1031 0.985 . S
H1038 N1035 0.984 . S
H1039 N1035 0.985 . S
H1040 N1034 0.984 . S
H1041 N1034 0.984 . S
H1042 N1030 0.984 . S
H1043 N1030 0.985 . S
C1044 C1045 1.363 . S
C1044 C1050 1.379 . S
C1044 N1052 1.356 . S
C1045 C1044 1.363 . S
C1045 C1051 1.363 . S
C1046 C1047 1.363 . S
C1046 C1051 1.379 . S
C1046 N1053 1.356 . S
C1047 C1046 1.363 . S
C1047 C1050 1.363 . S
N1048 C1050 1.356 . S
N1048 H1060 0.984 . S
N1048 H1061 0.985 . S
N1049 C1051 1.356 . S
N1049 H1054 0.984 . S
N1049 H1055 0.985 . S
C1050 C1044 1.379 . S
C1050 C1047 1.363 . S
C1050 N1048 1.356 . S
C1051 C1045 1.363 . S
C1051 C1046 1.379 . S
C1051 N1049 1.356 . S
N1052 C1044 1.356 . S
N1052 H1058 0.984 . S
N1052 H1059 0.984 . S
N1053 C1046 1.356 . S
N1053 H1056 0.984 . S
N1053 H1057 0.985 . S
H1054 N1049 0.984 . S
H1055 N1049 0.985 . S
H1056 N1053 0.984 . S
H1057 N1053 0.985 . S
H1058 N1052 0.984 . S
H1059 N1052 0.984 . S
H1060 N1048 0.984 . S
H1061 N1048 0.985 . S
C1062 C1063 1.363 . S
C1062 C1068 1.379 . S
C1062 N1070 1.356 . S
C1063 C1062 1.363 . S
C1063 C1069 1.363 . S
C1064 C1065 1.363 . S
C1064 C1069 1.379 . S
C1064 N1071 1.356 . S
C1065 C1064 1.363 . S
C1065 C1068 1.363 . S
N1066 C1068 1.356 . S
N1066 H1078 0.984 . S
N1066 H1079 0.985 . S
N1067 C1069 1.356 . S
N1067 H1072 0.984 . S
N1067 H1073 0.985 . S
C1068 C1062 1.379 . S
C1068 C1065 1.363 . S
C1068 N1066 1.356 . S
C1069 C1063 1.363 . S
C1069 C1064 1.379 . S
C1069 N1067 1.356 . S
N1070 C1062 1.356 . S
N1070 H1076 0.984 . S
N1070 H1077 0.984 . S
N1071 C1064 1.356 . S
N1071 H1074 0.984 . S
N1071 H1075 0.985 . S
H1072 N1067 0.984 . S
H1073 N1067 0.985 . S
H1074 N1071 0.984 . S
H1075 N1071 0.985 . S
H1076 N1070 0.984 . S
H1077 N1070 0.984 . S
H1078 N1066 0.984 . S
H1079 N1066 0.985 . S
C1080 C1081 1.363 . S
C1080 C1086 1.379 1_565 S
C1080 N1088 1.356 . S
C1081 C1080 1.363 . S
C1081 C1087 1.363 . S
C1082 C1083 1.363 . S
C1082 C1087 1.379 1_545 S
C1082 N1089 1.356 . S
C1083 C1082 1.363 . S
C1083 C1086 1.363 . S
N1084 C1086 1.356 . S
N1084 H1096 0.984 . S
N1084 H1097 0.985 . S
N1085 C1087 1.356 . S
N1085 H1090 0.984 . S
N1085 H1091 0.985 . S
C1086 C1080 1.379 1_545 S
C1086 C1083 1.363 . S
C1086 N1084 1.356 . S
C1087 C1081 1.363 . S
C1087 C1082 1.379 1_565 S
C1087 N1085 1.356 . S
N1088 C1080 1.356 . S
N1088 H1094 0.984 . S
N1088 H1095 0.984 . S
N1089 C1082 1.356 . S
N1089 H1092 0.984 . S
N1089 H1093 0.985 . S
H1090 N1085 0.984 . S
H1091 N1085 0.985 . S
H1092 N1089 0.984 . S
H1093 N1089 0.985 . S
H1094 N1088 0.984 . S
H1095 N1088 0.984 . S
H1096 N1084 0.984 . S
H1097 N1084 0.985 . S
C1098 C1099 1.363 . S
C1098 C1104 1.379 . S
C1098 N1106 1.356 . S
C1099 C1098 1.363 . S
C1099 C1105 1.363 . S
C1100 C1101 1.363 . S
C1100 C1105 1.379 1_655 S
C1100 N1107 1.356 . S
C1101 C1100 1.363 . S
C1101 C1104 1.363 1_655 S
N1102 C1104 1.356 . S
N1102 H1114 0.984 . S
N1102 H1115 0.985 1_455 S
N1103 C1105 1.356 . S
N1103 H1108 0.984 . S
N1103 H1109 0.985 1_455 S
C1104 C1098 1.379 . S
C1104 C1101 1.363 1_455 S
C1104 N1102 1.356 . S
C1105 C1099 1.363 . S
C1105 C1100 1.379 1_455 S
C1105 N1103 1.356 . S
N1106 C1098 1.356 . S
N1106 H1112 0.984 . S
N1106 H1113 0.984 . S
N1107 C1100 1.356 . S
N1107 H1110 0.984 . S
N1107 H1111 0.985 . S
H1108 N1103 0.984 . S
H1109 N1103 0.985 1_655 S
H1110 N1107 0.984 . S
H1111 N1107 0.985 . S
H1112 N1106 0.984 . S
H1113 N1106 0.984 . S
H1114 N1102 0.984 . S
H1115 N1102 0.985 1_655 S
C1116 C1117 1.363 . S
C1116 C1122 1.379 . S
C1116 N1124 1.356 . S
C1117 C1116 1.363 . S
C1117 C1123 1.363 . S
C1118 C1119 1.363 . S
C1118 C1123 1.379 . S
C1118 N1125 1.356 . S
C1119 C1118 1.363 . S
C1119 C1122 1.363 . S
N1120 C1122 1.356 . S
N1120 H1132 0.984 . S
N1120 H1133 0.985 . S
N1121 C1123 1.356 . S
N1121 H1126 0.984 . S
N1121 H1127 0.985 . S
C1122 C1116 1.379 . S
C1122 C1119 1.363 . S
C1122 N1120 1.356 . S
C1123 C1117 1.363 . S
C1123 C1118 1.379 . S
C1123 N1121 1.356 . S
N1124 C1116 1.356 . S
N1124 H1130 0.984 . S
N1124 H1131 0.984 . S
N1125 C1118 1.356 . S
N1125 H1128 0.984 . S
N1125 H1129 0.985 . S
H1126 N1121 0.984 . S
H1127 N1121 0.985 . S
H1128 N1125 0.984 . S
H1129 N1125 0.985 . S
H1130 N1124 0.984 . S
H1131 N1124 0.984 . S
H1132 N1120 0.984 . S
H1133 N1120 0.985 . S
C1134 C1135 1.372 . S
C1134 C1140 1.379 . S
C1134 N1142 1.356 . S
C1135 C1134 1.372 . S
C1135 C1141 1.372 . S
C1136 C1137 1.363 . S
C1136 C1141 1.379 . S
C1136 N1143 1.356 . S
C1137 C1136 1.363 . S
C1137 C1140 1.363 . S
N1138 C1140 1.356 . S
N1138 H1150 0.984 . S
N1138 H1151 0.985 . S
N1139 C1141 1.356 1_455 S
N1139 H1144 0.984 . S
N1139 H1145 0.985 . S
C1140 C1134 1.379 . S
C1140 C1137 1.363 . S
C1140 N1138 1.356 . S
C1141 C1135 1.372 . S
C1141 C1136 1.379 . S
C1141 N1139 1.356 1_655 S
N1142 C1134 1.356 . S
N1142 H1148 0.984 . S
N1142 H1149 0.984 1_655 S
N1143 C1136 1.356 . S
N1143 H1146 0.984 . S
N1143 H1147 0.985 . S
H1144 N1139 0.984 . S
H1145 N1139 0.985 . S
H1146 N1143 0.984 . S
H1147 N1143 0.985 . S
H1148 N1142 0.984 . S
H1149 N1142 0.984 1_455 S
H1150 N1138 0.984 . S
H1151 N1138 0.985 . S
C1152 C1153 1.363 . S
C1152 C1158 1.379 . S
C1152 N1160 1.356 . S
C1153 C1152 1.363 . S
C1153 C1159 1.363 . S
C1154 C1155 1.363 . S
C1154 C1159 1.379 . S
C1154 N1161 1.356 . S
C1155 C1154 1.363 . S
C1155 C1158 1.363 . S
N1156 C1158 1.356 . S
N1156 H1168 0.984 . S
N1156 H1169 0.985 . S
N1157 C1159 1.356 . S
N1157 H1162 0.984 . S
N1157 H1163 0.985 . S
C1158 C1152 1.379 . S
C1158 C1155 1.363 . S
C1158 N1156 1.356 . S
C1159 C1153 1.363 . S
C1159 C1154 1.379 . S
C1159 N1157 1.356 . S
N1160 C1152 1.356 . S
N1160 H1166 0.984 . S
N1160 H1167 0.984 . S
N1161 C1154 1.356 . S
N1161 H1164 0.984 . S
N1161 H1165 0.985 . S
H1162 N1157 0.984 . S
H1163 N1157 0.985 . S
H1164 N1161 0.984 . S
H1165 N1161 0.985 . S
H1166 N1160 0.984 . S
H1167 N1160 0.984 . S
H1168 N1156 0.984 . S
H1169 N1156 0.985 . S
C1170 C1171 1.363 . S
C1170 C1176 1.379 . S
C1170 N1178 1.356 1_545 S
C1171 C1170 1.363 . S
C1171 C1177 1.363 . S
C1172 C1173 1.363 . S
C1172 C1177 1.379 . S
C1172 N1179 1.356 . S
C1173 C1172 1.363 . S
C1173 C1176 1.363 . S
N1174 C1176 1.356 . S
N1174 H1186 0.984 . S
N1174 H1187 0.985 . S
N1175 C1177 1.356 1_565 S
N1175 H1180 0.984 . S
N1175 H1181 0.985 . S
C1176 C1170 1.379 . S
C1176 C1173 1.363 . S
C1176 N1174 1.356 . S
C1177 C1171 1.363 . S
C1177 C1172 1.379 . S
C1177 N1175 1.356 1_545 S
N1178 C1170 1.356 1_565 S
N1178 H1184 0.984 1_565 S
N1178 H1185 0.984 . S
N1179 C1172 1.356 . S
N1179 H1182 0.984 . S
N1179 H1183 0.985 . S
H1180 N1175 0.984 . S
H1181 N1175 0.985 . S
H1182 N1179 0.984 . S
H1183 N1179 0.985 . S
H1184 N1178 0.984 1_545 S
H1185 N1178 0.984 . S
H1186 N1174 0.984 . S
H1187 N1174 0.985 . S
C1188 C1189 1.363 . S
C1188 C1194 1.379 . S
C1188 N1196 1.356 . S
C1189 C1188 1.363 . S
C1189 C1195 1.363 . S
C1190 C1191 1.363 . S
C1190 C1195 1.379 . S
C1190 N1197 1.356 . S
C1191 C1190 1.363 . S
C1191 C1194 1.363 . S
N1192 C1194 1.356 . S
N1192 H1204 0.984 . S
N1192 H1205 0.985 . S
N1193 C1195 1.356 . S
N1193 H1198 0.984 . S
N1193 H1199 0.985 . S
C1194 C1188 1.379 . S
C1194 C1191 1.363 . S
C1194 N1192 1.356 . S
C1195 C1189 1.363 . S
C1195 C1190 1.379 . S
C1195 N1193 1.356 . S
N1196 C1188 1.356 . S
N1196 H1202 0.984 . S
N1196 H1203 0.984 . S
N1197 C1190 1.356 . S
N1197 H1200 0.984 . S
N1197 H1201 0.985 . S
H1198 N1193 0.984 . S
H1199 N1193 0.985 . S
H1200 N1197 0.984 . S
H1201 N1197 0.985 . S
H1202 N1196 0.984 . S
H1203 N1196 0.984 . S
H1204 N1192 0.984 . S
H1205 N1192 0.985 . S
C1206 C1207 1.363 . S
C1206 C1212 1.379 . S
C1206 N1214 1.356 . S
C1207 C1206 1.363 . S
C1207 C1213 1.363 . S
C1208 C1209 1.363 . S
C1208 C1213 1.379 . S
C1208 N1215 1.356 . S
C1209 C1208 1.363 . S
C1209 C1212 1.363 . S
N1210 C1212 1.356 . S
N1210 H1222 0.984 . S
N1210 H1223 0.985 . S
N1211 C1213 1.356 . S
N1211 H1216 0.984 . S
N1211 H1217 0.985 . S
C1212 C1206 1.379 . S
C1212 C1209 1.363 . S
C1212 N1210 1.356 . S
C1213 C1207 1.363 . S
C1213 C1208 1.379 . S
C1213 N1211 1.356 . S
N1214 C1206 1.356 . S
N1214 H1220 0.984 . S
N1214 H1221 0.984 . S
N1215 C1208 1.356 . S
N1215 H1218 0.984 . S
N1215 H1219 0.985 . S
H1216 N1211 0.984 . S
H1217 N1211 0.985 . S
H1218 N1215 0.984 . S
H1219 N1215 0.985 . S
H1220 N1214 0.984 . S
H1221 N1214 0.984 . S
H1222 N1210 0.984 . S
H1223 N1210 0.985 . S
C1224 C1225 1.363 . S
C1224 C1230 1.379 . S
C1224 N1232 1.356 . S
C1225 C1224 1.363 . S
C1225 C1231 1.363 . S
C1226 C1227 1.363 . S
C1226 C1231 1.379 . S
C1226 N1233 1.356 . S
C1227 C1226 1.363 . S
C1227 C1230 1.363 . S
N1228 C1230 1.356 . S
N1228 H1240 0.984 . S
N1228 H1241 0.985 . S
N1229 C1231 1.356 . S
N1229 H1234 0.984 . S
N1229 H1235 0.985 . S
C1230 C1224 1.379 . S
C1230 C1227 1.363 . S
C1230 N1228 1.356 . S
C1231 C1225 1.363 . S
C1231 C1226 1.379 . S
C1231 N1229 1.356 . S
N1232 C1224 1.356 . S
N1232 H1238 0.984 . S
N1232 H1239 0.984 . S
N1233 C1226 1.356 . S
N1233 H1236 0.984 . S
N1233 H1237 0.985 . S
H1234 N1229 0.984 . S
H1235 N1229 0.985 . S
H1236 N1233 0.984 . S
H1237 N1233 0.985 . S
H1238 N1232 0.984 . S
H1239 N1232 0.984 . S
H1240 N1228 0.984 . S
H1241 N1228 0.985 . S
C1242 C1243 1.363 . S
C1242 C1248 1.379 . S
C1242 N1250 1.356 . S
C1243 C1242 1.363 . S
C1243 C1249 1.363 . S
C1244 C1245 1.363 . S
C1244 C1249 1.379 . S
C1244 N1251 1.356 1_565 S
C1245 C1244 1.363 . S
C1245 C1248 1.363 . S
N1246 C1248 1.356 . S
N1246 H1258 0.984 . S
N1246 H1259 0.985 . S
N1247 C1249 1.356 . S
N1247 H1252 0.984 . S
N1247 H1253 0.989 . S
C1248 C1242 1.379 . S
C1248 C1245 1.363 . S
C1248 N1246 1.356 . S
C1249 C1243 1.363 . S
C1249 C1244 1.379 . S
C1249 N1247 1.356 . S
N1250 C1242 1.356 . S
N1250 H1256 0.984 . S
N1250 H1257 0.984 . S
N1251 C1244 1.356 1_545 S
N1251 H1254 0.984 . S
N1251 H1255 0.985 . S
H1252 N1247 0.984 . S
H1253 N1247 0.989 . S
H1254 N1251 0.984 . S
H1255 N1251 0.985 . S
H1256 N1250 0.984 . S
H1257 N1250 0.984 . S
H1258 N1246 0.984 . S
H1259 N1246 0.985 . S
C1260 C1261 1.363 . S
C1260 C1266 1.379 . S
C1260 N1268 1.356 . S
C1261 C1260 1.363 . S
C1261 C1267 1.363 . S
C1262 C1263 1.363 . S
C1262 C1267 1.379 . S
C1262 N1269 1.356 . S
C1263 C1262 1.363 . S
C1263 C1266 1.363 . S
N1264 C1266 1.356 . S
N1264 H1276 0.984 1_455 S
N1264 H1277 0.985 . S
N1265 C1267 1.356 . S
N1265 H1270 0.984 . S
N1265 H1271 0.985 . S
C1266 C1260 1.379 . S
C1266 C1263 1.363 . S
C1266 N1264 1.356 . S
C1267 C1261 1.363 . S
C1267 C1262 1.379 . S
C1267 N1265 1.356 . S
N1268 C1260 1.356 . S
N1268 H1274 0.984 1_455 S
N1268 H1275 0.984 . S
N1269 C1262 1.356 . S
N1269 H1272 0.984 . S
N1269 H1273 0.985 . S
H1270 N1265 0.984 . S
H1271 N1265 0.985 . S
H1272 N1269 0.984 . S
H1273 N1269 0.985 . S
H1274 N1268 0.984 1_655 S
H1275 N1268 0.984 . S
H1276 N1264 0.984 1_655 S
H1277 N1264 0.985 . S
C1278 C1279 1.363 . S
C1278 C1284 1.379 . S
C1278 N1286 1.356 . S
C1279 C1278 1.363 . S
C1279 C1285 1.363 . S
C1280 C1281 1.363 . S
C1280 C1285 1.379 . S
C1280 N1287 1.356 . S
C1281 C1280 1.363 . S
C1281 C1284 1.363 . S
N1282 C1284 1.356 . S
N1282 H1294 0.984 . S
N1282 H1295 0.985 . S
N1283 C1285 1.356 . S
N1283 H1288 0.984 . S
N1283 H1289 0.985 . S
C1284 C1278 1.379 . S
C1284 C1281 1.363 . S
C1284 N1282 1.356 . S
C1285 C1279 1.363 . S
C1285 C1280 1.379 . S
C1285 N1283 1.356 . S
N1286 C1278 1.356 . S
N1286 H1292 0.984 . S
N1286 H1293 0.984 . S
N1287 C1280 1.356 . S
N1287 H1290 0.984 . S
N1287 H1291 0.985 . S
H1288 N1283 0.984 . S
H1289 N1283 0.985 . S
H1290 N1287 0.984 . S
H1291 N1287 0.985 . S
H1292 N1286 0.984 . S
H1293 N1286 0.984 . S
H1294 N1282 0.984 . S
H1295 N1282 0.985 . S
C1296 C1297 1.363 . S
C1296 C1302 1.379 . S
C1296 N1304 1.356 . S
C1297 C1296 1.363 . S
C1297 C1303 1.363 . S
C1298 C1299 1.363 . S
C1298 C1303 1.379 . S
C1298 N1305 1.356 1_655 S
C1299 C1298 1.363 . S
C1299 C1302 1.363 . S
N1300 C1302 1.356 . S
N1300 H1312 0.984 . S
N1300 H1313 0.985 . S
N1301 C1303 1.356 1_455 S
N1301 H1306 0.984 . S
N1301 H1307 0.985 . S
C1302 C1296 1.379 . S
C1302 C1299 1.363 . S
C1302 N1300 1.356 . S
C1303 C1297 1.363 . S
C1303 C1298 1.379 . S
C1303 N1301 1.356 1_655 S
N1304 C1296 1.356 . S
N1304 H1310 0.984 . S
N1304 H1311 0.984 . S
N1305 C1298 1.356 1_455 S
N1305 H1308 0.984 1_455 S
N1305 H1309 0.985 . S
H1306 N1301 0.984 . S
H1307 N1301 0.985 . S
H1308 N1305 0.984 1_655 S
H1309 N1305 0.985 . S
H1310 N1304 0.984 . S
H1311 N1304 0.984 . S
H1312 N1300 0.984 . S
H1313 N1300 0.985 . S
C1314 C1315 1.363 . S
C1314 C1320 1.379 . S
C1314 N1322 1.356 . S
C1315 C1314 1.363 . S
C1315 C1321 1.363 . S
C1316 C1317 1.363 . S
C1316 C1321 1.379 . S
C1316 N1323 1.356 . S
C1317 C1316 1.363 . S
C1317 C1320 1.363 . S
N1318 C1320 1.356 . S
N1318 H1330 0.984 . S
N1318 H1331 0.985 . S
N1319 C1321 1.356 . S
N1319 H1324 0.984 . S
N1319 H1325 0.985 . S
C1320 C1314 1.379 . S
C1320 C1317 1.363 . S
C1320 N1318 1.356 . S
C1321 C1315 1.363 . S
C1321 C1316 1.379 . S
C1321 N1319 1.356 . S
N1322 C1314 1.356 . S
N1322 H1328 0.984 . S
N1322 H1329 0.984 . S
N1323 C1316 1.356 . S
N1323 H1326 0.984 . S
N1323 H1327 0.985 . S
H1324 N1319 0.984 . S
H1325 N1319 0.985 . S
H1326 N1323 0.984 . S
H1327 N1323 0.985 . S
H1328 N1322 0.984 . S
H1329 N1322 0.984 . S
H1330 N1318 0.984 . S
H1331 N1318 0.985 . S
C1332 C1333 1.363 . S
C1332 C1338 1.379 . S
C1332 N1340 1.356 . S
C1333 C1332 1.363 . S
C1333 C1339 1.363 . S
C1334 C1335 1.363 . S
C1334 C1339 1.379 . S
C1334 N1341 1.356 . S
C1335 C1334 1.363 . S
C1335 C1338 1.363 . S
N1336 C1338 1.356 . S
N1336 H1348 0.984 . S
N1336 H1349 0.985 . S
N1337 C1339 1.356 . S
N1337 H1342 0.984 . S
N1337 H1343 0.985 . S
C1338 C1332 1.379 . S
C1338 C1335 1.363 . S
C1338 N1336 1.356 . S
C1339 C1333 1.363 . S
C1339 C1334 1.379 . S
C1339 N1337 1.356 . S
N1340 C1332 1.356 . S
N1340 H1346 0.984 . S
N1340 H1347 0.984 . S
N1341 C1334 1.356 . S
N1341 H1344 0.984 . S
N1341 H1345 0.985 . S
H1342 N1337 0.984 . S
H1343 N1337 0.985 . S
H1344 N1341 0.984 . S
H1345 N1341 0.985 . S
H1346 N1340 0.984 . S
H1347 N1340 0.984 . S
H1348 N1336 0.984 . S
H1349 N1336 0.985 . S
C1350 C1351 1.363 . S
C1350 C1356 1.379 . S
C1350 N1358 1.356 . S
C1351 C1350 1.363 . S
C1351 C1357 1.363 . S
C1352 C1353 1.363 . S
C1352 C1357 1.379 . S
C1352 N1359 1.356 . S
C1353 C1352 1.363 . S
C1353 C1356 1.363 . S
N1354 C1356 1.356 . S
N1354 H1366 0.984 . S
N1354 H1367 0.985 . S
N1355 C1357 1.356 . S
N1355 H1360 0.984 . S
N1355 H1361 0.985 . S
C1356 C1350 1.379 . S
C1356 C1353 1.363 . S
C1356 N1354 1.356 . S
C1357 C1351 1.363 . S
C1357 C1352 1.379 . S
C1357 N1355 1.356 . S
N1358 C1350 1.356 . S
N1358 H1364 0.984 . S
N1358 H1365 0.984 . S
N1359 C1352 1.356 . S
N1359 H1362 0.984 . S
N1359 H1363 0.985 . S
H1360 N1355 0.984 . S
H1361 N1355 0.985 . S
H1362 N1359 0.984 . S
H1363 N1359 0.985 . S
H1364 N1358 0.984 . S
H1365 N1358 0.984 . S
H1366 N1354 0.984 . S
H1367 N1354 0.985 . S
C1368 C1369 1.363 . S
C1368 C1374 1.379 . S
C1368 N1376 1.356 . S
C1369 C1368 1.363 . S
C1369 C1375 1.363 . S
C1370 C1371 1.363 . S
C1370 C1375 1.379 . S
C1370 N1377 1.356 . S
C1371 C1370 1.363 . S
C1371 C1374 1.363 . S
N1372 C1374 1.356 . S
N1372 H1384 0.984 . S
N1372 H1385 0.985 . S
N1373 C1375 1.356 . S
N1373 H1378 0.984 . S
N1373 H1379 0.985 . S
C1374 C1368 1.379 . S
C1374 C1371 1.363 . S
C1374 N1372 1.356 . S
C1375 C1369 1.363 . S
C1375 C1370 1.379 . S
C1375 N1373 1.356 . S
N1376 C1368 1.356 . S
N1376 H1382 0.984 . S
N1376 H1383 0.984 . S
N1377 C1370 1.356 . S
N1377 H1380 0.984 . S
N1377 H1381 0.985 . S
H1378 N1373 0.984 . S
H1379 N1373 0.985 . S
H1380 N1377 0.984 . S
H1381 N1377 0.985 . S
H1382 N1376 0.984 . S
H1383 N1376 0.984 . S
H1384 N1372 0.984 . S
H1385 N1372 0.985 . S
C1386 C1387 1.363 . S
C1386 C1392 1.379 . S
C1386 N1394 1.356 . S
C1387 C1386 1.363 . S
C1387 C1393 1.363 . S
C1388 C1389 1.363 . S
C1388 C1393 1.379 . S
C1388 N1395 1.356 . S
C1389 C1388 1.363 . S
C1389 C1392 1.363 . S
N1390 C1392 1.356 . S
N1390 H1402 0.984 . S
N1390 H1403 0.985 . S
N1391 C1393 1.356 . S
N1391 H1396 0.984 . S
N1391 H1397 0.985 . S
C1392 C1386 1.379 . S
C1392 C1389 1.363 . S
C1392 N1390 1.356 . S
C1393 C1387 1.363 . S
C1393 C1388 1.379 . S
C1393 N1391 1.356 . S
N1394 C1386 1.356 . S
N1394 H1400 0.984 . S
N1394 H1401 0.984 . S
N1395 C1388 1.356 . S
N1395 H1398 0.984 . S
N1395 H1399 0.985 . S
H1396 N1391 0.984 . S
H1397 N1391 0.985 . S
H1398 N1395 0.984 . S
H1399 N1395 0.985 . S
H1400 N1394 0.984 . S
H1401 N1394 0.984 . S
H1402 N1390 0.984 . S
H1403 N1390 0.985 . S
C1404 C1405 1.363 . S
C1404 C1410 1.379 . S
C1404 N1412 1.356 . S
C1405 C1404 1.363 . S
C1405 C1411 1.363 . S
C1406 C1407 1.363 . S
C1406 C1411 1.379 . S
C1406 N1413 1.356 . S
C1407 C1406 1.363 . S
C1407 C1410 1.363 . S
N1408 C1410 1.356 . S
N1408 H1420 0.984 . S
N1408 H1421 0.985 . S
N1409 C1411 1.356 . S
N1409 H1414 0.984 . S
N1409 H1415 0.985 . S
C1410 C1404 1.379 . S
C1410 C1407 1.363 . S
C1410 N1408 1.356 . S
C1411 C1405 1.363 . S
C1411 C1406 1.379 . S
C1411 N1409 1.356 . S
N1412 C1404 1.356 . S
N1412 H1418 0.984 . S
N1412 H1419 0.984 . S
N1413 C1406 1.356 . S
N1413 H1416 0.984 . S
N1413 H1417 0.985 . S
H1414 N1409 0.984 . S
H1415 N1409 0.985 . S
H1416 N1413 0.984 . S
H1417 N1413 0.985 . S
H1418 N1412 0.984 . S
H1419 N1412 0.984 . S
H1420 N1408 0.984 . S
H1421 N1408 0.985 . S
C1422 C1423 1.363 . S
C1422 C1428 1.379 . S
C1422 N1430 1.356 . S
C1423 C1422 1.363 . S
C1423 C1429 1.363 . S
C1424 C1425 1.363 . S
C1424 C1429 1.379 . S
C1424 N1431 1.356 . S
C1425 C1424 1.363 . S
C1425 C1428 1.363 . S
N1426 C1428 1.356 . S
N1426 H1438 0.984 . S
N1426 H1439 0.985 . S
N1427 C1429 1.356 . S
N1427 H1432 0.984 . S
N1427 H1433 0.985 . S
C1428 C1422 1.379 . S
C1428 C1425 1.363 . S
C1428 N1426 1.356 . S
C1429 C1423 1.363 . S
C1429 C1424 1.379 . S
C1429 N1427 1.356 . S
N1430 C1422 1.356 . S
N1430 H1436 0.984 . S
N1430 H1437 0.984 . S
N1431 C1424 1.356 . S
N1431 H1434 0.984 . S
N1431 H1435 0.985 . S
H1432 N1427 0.984 . S
H1433 N1427 0.985 . S
H1434 N1431 0.984 . S
H1435 N1431 0.985 . S
H1436 N1430 0.984 . S
H1437 N1430 0.984 . S
H1438 N1426 0.984 . S
H1439 N1426 0.985 . S
C1440 C1441 1.363 . S
C1440 C1446 1.379 . S
C1440 N1448 1.356 . S
C1441 C1440 1.363 . S
C1441 C1447 1.363 . S
C1442 C1443 1.363 . S
C1442 C1447 1.379 . S
C1442 N1449 1.356 . S
C1443 C1442 1.363 . S
C1443 C1446 1.363 . S
N1444 C1446 1.356 . S
N1444 H1456 0.984 . S
N1444 H1457 0.985 . S
N1445 C1447 1.356 . S
N1445 H1450 0.984 . S
N1445 H1451 0.985 . S
C1446 C1440 1.379 . S
C1446 C1443 1.363 . S
C1446 N1444 1.356 . S
C1447 C1441 1.363 . S
C1447 C1442 1.379 . S
C1447 N1445 1.356 . S
N1448 C1440 1.356 . S
N1448 H1454 0.984 . S
N1448 H1455 0.984 . S
N1449 C1442 1.356 . S
N1449 H1452 0.984 . S
N1449 H1453 0.985 . S
H1450 N1445 0.984 . S
H1451 N1445 0.985 . S
H1452 N1449 0.984 . S
H1453 N1449 0.985 . S
H1454 N1448 0.984 . S
H1455 N1448 0.984 . S
H1456 N1444 0.984 . S
H1457 N1444 0.985 . S
C1458 C1459 1.363 . S
C1458 C1464 1.379 . S
C1458 N1466 1.356 . S
C1459 C1458 1.363 . S
C1459 C1465 1.363 . S
C1460 C1461 1.363 . S
C1460 C1465 1.379 . S
C1460 N1467 1.356 . S
C1461 C1460 1.363 . S
C1461 C1464 1.363 . S
N1462 C1464 1.356 . S
N1462 H1474 0.984 . S
N1462 H1475 0.985 . S
N1463 C1465 1.356 . S
N1463 H1468 0.984 . S
N1463 H1469 0.985 . S
C1464 C1458 1.379 . S
C1464 C1461 1.363 . S
C1464 N1462 1.356 . S
C1465 C1459 1.363 . S
C1465 C1460 1.379 . S
C1465 N1463 1.356 . S
N1466 C1458 1.356 . S
N1466 H1472 0.984 . S
N1466 H1473 0.984 . S
N1467 C1460 1.356 . S
N1467 H1470 0.984 . S
N1467 H1471 0.985 . S
H1468 N1463 0.984 . S
H1469 N1463 0.985 . S
H1470 N1467 0.984 . S
H1471 N1467 0.985 . S
H1472 N1466 0.984 . S
H1473 N1466 0.984 . S
H1474 N1462 0.984 . S
H1475 N1462 0.985 . S
C1476 C1477 1.363 . S
C1476 C1482 1.379 . S
C1476 N1484 1.356 . S
C1477 C1476 1.363 . S
C1477 C1483 1.363 . S
C1478 C1479 1.363 . S
C1478 C1483 1.379 . S
C1478 N1485 1.356 . S
C1479 C1478 1.363 . S
C1479 C1482 1.363 . S
N1480 C1482 1.356 . S
N1480 H1492 0.984 . S
N1480 H1493 0.985 . S
N1481 C1483 1.356 . S
N1481 H1486 0.984 . S
N1481 H1487 0.985 . S
C1482 C1476 1.379 . S
C1482 C1479 1.363 . S
C1482 N1480 1.356 . S
C1483 C1477 1.363 . S
C1483 C1478 1.379 . S
C1483 N1481 1.356 . S
N1484 C1476 1.356 . S
N1484 H1490 0.984 . S
N1484 H1491 0.984 . S
N1485 C1478 1.356 . S
N1485 H1488 0.984 . S
N1485 H1489 0.985 . S
H1486 N1481 0.984 . S
H1487 N1481 0.985 . S
H1488 N1485 0.984 . S
H1489 N1485 0.985 . S
H1490 N1484 0.984 . S
H1491 N1484 0.984 . S
H1492 N1480 0.984 . S
H1493 N1480 0.985 . S
C1494 C1495 1.363 . S
C1494 C1500 1.379 . S
C1494 N1502 1.356 . S
C1495 C1494 1.363 . S
C1495 C1501 1.363 . S
C1496 C1497 1.363 . S
C1496 C1501 1.379 . S
C1496 N1503 1.356 . S
C1497 C1496 1.363 . S
C1497 C1500 1.363 . S
N1498 C1500 1.356 . S
N1498 H1510 0.984 . S
N1498 H1511 0.985 . S
N1499 C1501 1.356 . S
N1499 H1504 0.984 . S
N1499 H1505 0.985 . S
C1500 C1494 1.379 . S
C1500 C1497 1.363 . S
C1500 N1498 1.356 . S
C1501 C1495 1.363 . S
C1501 C1496 1.379 . S
C1501 N1499 1.356 . S
N1502 C1494 1.356 . S
N1502 H1508 0.984 . S
N1502 H1509 0.984 . S
N1503 C1496 1.356 . S
N1503 H1506 0.984 . S
N1503 H1507 0.985 . S
H1504 N1499 0.984 . S
H1505 N1499 0.985 . S
H1506 N1503 0.984 . S
H1507 N1503 0.985 . S
H1508 N1502 0.984 . S
H1509 N1502 0.984 . S
H1510 N1498 0.984 . S
H1511 N1498 0.985 . S
C1512 C1513 1.363 . S
C1512 C1518 1.379 . S
C1512 N1520 1.356 . S
C1513 C1512 1.363 . S
C1513 C1519 1.363 . S
C1514 C1515 1.363 . S
C1514 C1519 1.379 . S
C1514 N1521 1.356 . S
C1515 C1514 1.363 . S
C1515 C1518 1.363 . S
N1516 C1518 1.356 . S
N1516 H1528 0.984 . S
N1516 H1529 0.985 . S
N1517 C1519 1.356 . S
N1517 H1522 0.984 . S
N1517 H1523 0.985 . S
C1518 C1512 1.379 . S
C1518 C1515 1.363 . S
C1518 N1516 1.356 . S
C1519 C1513 1.363 . S
C1519 C1514 1.379 . S
C1519 N1517 1.356 . S
N1520 C1512 1.356 . S
N1520 H1526 0.984 . S
N1520 H1527 0.984 . S
N1521 C1514 1.356 . S
N1521 H1524 0.984 . S
N1521 H1525 0.985 . S
H1522 N1517 0.984 . S
H1523 N1517 0.985 . S
H1524 N1521 0.984 . S
H1525 N1521 0.985 . S
H1526 N1520 0.984 . S
H1527 N1520 0.984 . S
H1528 N1516 0.984 . S
H1529 N1516 0.985 . S
C1530 C1531 1.363 . S
C1530 C1536 1.379 . S
C1530 N1538 1.356 . S
C1531 C1530 1.363 . S
C1531 C1537 1.363 . S
C1532 C1533 1.363 . S
C1532 C1537 1.379 . S
C1532 N1539 1.356 . S
C1533 C1532 1.363 . S
C1533 C1536 1.363 . S
N1534 C1536 1.356 . S
N1534 H1546 0.984 . S
N1534 H1547 0.985 . S
N1535 C1537 1.356 . S
N1535 H1540 0.984 . S
N1535 H1541 0.985 . S
C1536 C1530 1.379 . S
C1536 C1533 1.363 . S
C1536 N1534 1.356 . S
C1537 C1531 1.363 . S
C1537 C1532 1.379 . S
C1537 N1535 1.356 . S
N1538 C1530 1.356 . S
N1538 H1544 0.984 . S
N1538 H1545 0.984 . S
N1539 C1532 1.356 . S
N1539 H1542 0.984 . S
N1539 H1543 0.985 . S
H1540 N1535 0.984 . S
H1541 N1535 0.985 . S
H1542 N1539 0.984 . S
H1543 N1539 0.985 . S
H1544 N1538 0.984 . S
H1545 N1538 0.984 . S
H1546 N1534 0.984 . S
H1547 N1534 0.985 . S
C1548 C1549 1.363 . S
C1548 C1554 1.379 . S
C1548 N1556 1.356 . S
C1549 C1548 1.363 . S
C1549 C1555 1.363 . S
C1550 C1551 1.363 . S
C1550 C1555 1.379 . S
C1550 N1557 1.356 . S
C1551 C1550 1.363 . S
C1551 C1554 1.363 . S
N1552 C1554 1.356 . S
N1552 H1564 0.984 . S
N1552 H1565 0.985 . S
N1553 C1555 1.356 . S
N1553 H1558 0.984 . S
N1553 H1559 0.985 . S
C1554 C1548 1.379 . S
C1554 C1551 1.363 . S
C1554 N1552 1.356 . S
C1555 C1549 1.363 . S
C1555 C1550 1.379 . S
C1555 N1553 1.356 . S
N1556 C1548 1.356 . S
N1556 H1562 0.984 . S
N1556 H1563 0.984 . S
N1557 C1550 1.356 . S
N1557 H1560 0.984 . S
N1557 H1561 0.985 . S
H1558 N1553 0.984 . S
H1559 N1553 0.985 . S
H1560 N1557 0.984 . S
H1561 N1557 0.985 . S
H1562 N1556 0.984 . S
H1563 N1556 0.984 . S
H1564 N1552 0.984 . S
H1565 N1552 0.985 . S
C595 C177 1.651 . S
C597 C246 1.664 . S
C613 C190 1.746 . S
C615 C286 1.743 . S
C631 C164 1.586 . S
C633 C316 1.576 . S
C649 C151 1.493 . S
C651 C276 1.470 . S
C669 C326 1.518 . S
C667 C125 1.521 . S
C685 C138 1.403 . S
C687 C236 1.402 1_556 S
C705 C265 1.671 . S
C703 C147 1.650 . S
C723 C305 1.646 . S
C721 C121 1.591 . S
C739 C134 1.611 . S
C741 C331 1.667 1_556 S
C757 C173 1.492 . S
C759 C291 1.529 . S
C775 C186 1.477 . S
C777 C345 1.490 . S
C795 C251 1.525 . S
C793 C160 1.496 . S
C813 C366 1.664 . S
C811 C21 1.651 . S
C829 C34 1.745 . S
C831 C406 1.743 . S
C847 C8 1.587 . S
C849 C436 1.576 . S
C865 C229 1.493 . S
C867 C396 1.470 . S
C883 C203 1.521 . S
C885 C446 1.518 . S
C901 C216 1.404 . S
C903 C356 1.403 . S
C919 C225 1.650 . S
C921 C385 1.671 . S
C937 C199 1.591 . S
C939 C425 1.646 . S
C957 C451 1.667 . S
C955 C212 1.611 . S
C973 C17 1.492 . S
C975 C411 1.529 . S
C993 C465 1.489 . S
C991 C30 1.476 1_455 S
C1009 C4 1.496 . S
C1011 C371 1.525 . S
C1029 C486 1.664 . S
C1027 C99 1.650 . S
C1045 C112 1.746 . S
C1047 C526 1.743 . S
C1065 C556 1.576 . S
C1063 C86 1.587 . S
C1083 C516 1.471 . S
C1081 C73 1.493 . S
C1101 C566 1.518 . S
C1099 C47 1.521 . S
C1117 C60 1.403 . S
C1119 C476 1.403 . S
C1135 C69 1.635 1_655 S
C1137 C505 1.671 . S
C1153 C43 1.591 . S
C1155 C545 1.646 . S
C1173 C571 1.667 . S
C1171 C56 1.611 1_545 S
C1189 C95 1.492 . S
C1191 C531 1.529 . S
C1207 C108 1.476 . S
C1209 C585 1.489 . S
C1225 C82 1.496 . S
C1227 C491 1.525 . S
C1243 C204 1.597 . S
C1245 C263 1.557 . S
C1263 C303 1.859 . S
C1261 C217 1.909 . S
C1279 C230 1.553 . S
C1281 C322 1.570 . S
C1297 C87 1.726 . S
C1299 C282 1.720 . S
C1315 C100 1.677 . S
C1317 C343 1.650 . S
C1335 C242 1.372 . S
C1333 C113 1.365 . S
C1351 C48 1.597 . S
C1353 C383 1.557 . S
C1369 C61 1.909 . S
C1371 C423 1.859 . S
C1387 C74 1.553 . S
C1389 C442 1.570 . S
C1405 C165 1.726 . S
C1407 C402 1.720 . S
C1425 C463 1.650 . S
C1423 C178 1.677 . S
C1441 C191 1.365 . S
C1443 C362 1.372 . S
C1459 C126 1.597 . S
C1461 C503 1.557 . S
C1477 C139 1.909 . S
C1479 C543 1.859 . S
C1497 C562 1.570 . S
C1495 C152 1.553 . S
C1513 C9 1.726 . S
C1515 C522 1.720 . S
C1531 C22 1.677 . S
C1533 C583 1.650 . S
C1549 C35 1.365 . S
C1551 C482 1.372 . S
