# Generated by pormake.
# Topology ctn, (3,4)-cn, num edge types: 1
# Building blocks:
#     Node 0, Type 0, BuildingBlock: MIDCAF_clean_linker_0, # of connection points: 3
#     Node 1, Type 0, BuildingBlock: MIDCAF_clean_linker_0, # of connection points: 3
#     Node 2, Type 0, BuildingBlock: MIDCAF_clean_linker_0, # of connection points: 3
#     Node 3, Type 0, BuildingBlock: MIDCAF_clean_linker_0, # of connection points: 3
#     Node 4, Type 0, BuildingBlock: MIDCAF_clean_linker_0, # of connection points: 3
#     Node 5, Type 0, BuildingBlock: MIDCAF_clean_linker_0, # of connection points: 3
#     Node 6, Type 0, BuildingBlock: MIDCAF_clean_linker_0, # of connection points: 3
#     Node 7, Type 0, BuildingBlock: MIDCAF_clean_linker_0, # of connection points: 3
#     Node 8, Type 0, BuildingBlock: MIDCAF_clean_linker_0, # of connection points: 3
#     Node 9, Type 0, BuildingBlock: MIDCAF_clean_linker_0, # of connection points: 3
#     Node 10, Type 0, BuildingBlock: MIDCAF_clean_linker_0, # of connection points: 3
#     Node 11, Type 0, BuildingBlock: MIDCAF_clean_linker_0, # of connection points: 3
#     Node 12, Type 0, BuildingBlock: MIDCAF_clean_linker_0, # of connection points: 3
#     Node 13, Type 0, BuildingBlock: MIDCAF_clean_linker_0, # of connection points: 3
#     Node 14, Type 0, BuildingBlock: MIDCAF_clean_linker_0, # of connection points: 3
#     Node 15, Type 0, BuildingBlock: MIDCAF_clean_linker_0, # of connection points: 3
#     Node 16, Type 1, BuildingBlock: UXUYUI_clean_sbu_0, # of connection points: 4
#     Node 17, Type 1, BuildingBlock: UXUYUI_clean_sbu_0, # of connection points: 4
#     Node 18, Type 1, BuildingBlock: UXUYUI_clean_sbu_0, # of connection points: 4
#     Node 19, Type 1, BuildingBlock: UXUYUI_clean_sbu_0, # of connection points: 4
#     Node 20, Type 1, BuildingBlock: UXUYUI_clean_sbu_0, # of connection points: 4
#     Node 21, Type 1, BuildingBlock: UXUYUI_clean_sbu_0, # of connection points: 4
#     Node 22, Type 1, BuildingBlock: UXUYUI_clean_sbu_0, # of connection points: 4
#     Node 23, Type 1, BuildingBlock: UXUYUI_clean_sbu_0, # of connection points: 4
#     Node 24, Type 1, BuildingBlock: UXUYUI_clean_sbu_0, # of connection points: 4
#     Node 25, Type 1, BuildingBlock: UXUYUI_clean_sbu_0, # of connection points: 4
#     Node 26, Type 1, BuildingBlock: UXUYUI_clean_sbu_0, # of connection points: 4
#     Node 27, Type 1, BuildingBlock: UXUYUI_clean_sbu_0, # of connection points: 4
#     Edge 28, Type (0, 1), BuildingBlock: AJUNOK_clean_linker_0, # of connection points: 2
#     Edge 29, Type (0, 1), BuildingBlock: AJUNOK_clean_linker_0, # of connection points: 2
#     Edge 30, Type (0, 1), BuildingBlock: AJUNOK_clean_linker_0, # of connection points: 2
#     Edge 31, Type (0, 1), BuildingBlock: AJUNOK_clean_linker_0, # of connection points: 2
#     Edge 32, Type (0, 1), BuildingBlock: AJUNOK_clean_linker_0, # of connection points: 2
#     Edge 33, Type (0, 1), BuildingBlock: AJUNOK_clean_linker_0, # of connection points: 2
#     Edge 34, Type (0, 1), BuildingBlock: AJUNOK_clean_linker_0, # of connection points: 2
#     Edge 35, Type (0, 1), BuildingBlock: AJUNOK_clean_linker_0, # of connection points: 2
#     Edge 36, Type (0, 1), BuildingBlock: AJUNOK_clean_linker_0, # of connection points: 2
#     Edge 37, Type (0, 1), BuildingBlock: AJUNOK_clean_linker_0, # of connection points: 2
#     Edge 38, Type (0, 1), BuildingBlock: AJUNOK_clean_linker_0, # of connection points: 2
#     Edge 39, Type (0, 1), BuildingBlock: AJUNOK_clean_linker_0, # of connection points: 2
#     Edge 40, Type (0, 1), BuildingBlock: AJUNOK_clean_linker_0, # of connection points: 2
#     Edge 41, Type (0, 1), BuildingBlock: AJUNOK_clean_linker_0, # of connection points: 2
#     Edge 42, Type (0, 1), BuildingBlock: AJUNOK_clean_linker_0, # of connection points: 2
#     Edge 43, Type (0, 1), BuildingBlock: AJUNOK_clean_linker_0, # of connection points: 2
#     Edge 44, Type (0, 1), BuildingBlock: AJUNOK_clean_linker_0, # of connection points: 2
#     Edge 45, Type (0, 1), BuildingBlock: AJUNOK_clean_linker_0, # of connection points: 2
#     Edge 46, Type (0, 1), BuildingBlock: AJUNOK_clean_linker_0, # of connection points: 2
#     Edge 47, Type (0, 1), BuildingBlock: AJUNOK_clean_linker_0, # of connection points: 2
#     Edge 48, Type (0, 1), BuildingBlock: AJUNOK_clean_linker_0, # of connection points: 2
#     Edge 49, Type (0, 1), BuildingBlock: AJUNOK_clean_linker_0, # of connection points: 2
#     Edge 50, Type (0, 1), BuildingBlock: AJUNOK_clean_linker_0, # of connection points: 2
#     Edge 51, Type (0, 1), BuildingBlock: AJUNOK_clean_linker_0, # of connection points: 2
#     Edge 52, Type (0, 1), BuildingBlock: AJUNOK_clean_linker_0, # of connection points: 2
#     Edge 53, Type (0, 1), BuildingBlock: AJUNOK_clean_linker_0, # of connection points: 2
#     Edge 54, Type (0, 1), BuildingBlock: AJUNOK_clean_linker_0, # of connection points: 2
#     Edge 55, Type (0, 1), BuildingBlock: AJUNOK_clean_linker_0, # of connection points: 2
#     Edge 56, Type (0, 1), BuildingBlock: AJUNOK_clean_linker_0, # of connection points: 2
#     Edge 57, Type (0, 1), BuildingBlock: AJUNOK_clean_linker_0, # of connection points: 2
#     Edge 58, Type (0, 1), BuildingBlock: AJUNOK_clean_linker_0, # of connection points: 2
#     Edge 59, Type (0, 1), BuildingBlock: AJUNOK_clean_linker_0, # of connection points: 2
#     Edge 60, Type (0, 1), BuildingBlock: AJUNOK_clean_linker_0, # of connection points: 2
#     Edge 61, Type (0, 1), BuildingBlock: AJUNOK_clean_linker_0, # of connection points: 2
#     Edge 62, Type (0, 1), BuildingBlock: AJUNOK_clean_linker_0, # of connection points: 2
#     Edge 63, Type (0, 1), BuildingBlock: AJUNOK_clean_linker_0, # of connection points: 2
#     Edge 64, Type (0, 1), BuildingBlock: AJUNOK_clean_linker_0, # of connection points: 2
#     Edge 65, Type (0, 1), BuildingBlock: AJUNOK_clean_linker_0, # of connection points: 2
#     Edge 66, Type (0, 1), BuildingBlock: AJUNOK_clean_linker_0, # of connection points: 2
#     Edge 67, Type (0, 1), BuildingBlock: AJUNOK_clean_linker_0, # of connection points: 2
#     Edge 68, Type (0, 1), BuildingBlock: AJUNOK_clean_linker_0, # of connection points: 2
#     Edge 69, Type (0, 1), BuildingBlock: AJUNOK_clean_linker_0, # of connection points: 2
#     Edge 70, Type (0, 1), BuildingBlock: AJUNOK_clean_linker_0, # of connection points: 2
#     Edge 71, Type (0, 1), BuildingBlock: AJUNOK_clean_linker_0, # of connection points: 2
#     Edge 72, Type (0, 1), BuildingBlock: AJUNOK_clean_linker_0, # of connection points: 2
#     Edge 73, Type (0, 1), BuildingBlock: AJUNOK_clean_linker_0, # of connection points: 2
#     Edge 74, Type (0, 1), BuildingBlock: AJUNOK_clean_linker_0, # of connection points: 2
#     Edge 75, Type (0, 1), BuildingBlock: AJUNOK_clean_linker_0, # of connection points: 2
# Relax obj value: 0.000
# Max RMSD: 0.004
# Mean RMSD: 0.003
data_MOF--net-ctn--node1-UXUYUI_clean_sbu_0--node2-MIDCAF_clean_linker_0--edge1-AJUNOK_clean_linker_0
_symmetry_space_group_name_H-M    P1
_symmetry_Int_Tables_number       1
_symmetry_cell_setting            triclinic
loop_
_symmetry_equiv_pos_as_xyz
'x, y, z'
_cell_length_a     65.817087
_cell_length_b     65.802772
_cell_length_c     65.772036
_cell_angle_alpha  90.03266
_cell_angle_beta   90.026493
_cell_angle_gamma 90.094702
loop_
_atom_site_label
_atom_site_type_symbol
_atom_site_fract_x
_atom_site_fract_y
_atom_site_fract_z
_atom_type_partial_charge
C0 C 0.98864 0.04766 0.09931 0.0
C1 C 0.98878 0.029 0.10973 0.0
C2 C 1.00171 0.01351 0.10272 0.0
C3 C 0.01462 0.0168 0.08613 0.0
H4 H 0.06864 0.99605 0.06182 0.0
H5 H 0.09769 0.97367 0.05655 0.0
H6 H 0.11545 0.00884 0.00413 0.0
H7 H 0.08668 0.0315 0.00947 0.0
H8 H 0.06517 0.07416 1.00166 0.0
H9 H 0.05993 0.1028 0.97884 0.0
H10 H 0.99985 0.11159 0.00359 0.0
H11 H 0.00528 0.08333 0.02698 0.0
H12 H 1.00101 0.06553 0.07507 0.0
H13 H 0.97888 0.05992 0.10432 0.0
H14 H 1.00177 0.99873 0.10995 0.0
H15 H 0.02444 0.00453 0.08128 0.0
N16 N 0.04463 0.0264 0.05516 0.0
N17 N 0.05473 0.04587 0.02707 0.0
N18 N 0.02591 0.05526 0.04584 0.0
C19 C 0.05775 0.02965 0.03952 0.0
C20 C 0.03884 0.05873 0.03006 0.0
C21 C 0.0287 0.03913 0.05848 0.0
C22 C 0.07528 0.01574 0.03616 0.0
C23 C 0.07872 0.99911 0.04917 0.0
C24 C 0.09535 0.9862 0.04614 0.0
C25 C 0.10901 0.98963 0.03009 0.0
C26 C 0.10546 0.00606 0.01691 0.0
C27 C 0.08885 0.01898 0.01992 0.0
C28 C 0.03562 0.07629 0.01616 0.0
C29 C 0.05079 0.08212 1.00225 0.0
C30 C 0.04773 0.09848 0.98901 0.0
C31 C 0.02931 0.10928 0.9891 0.0
C32 C 0.01422 0.10361 0.00313 0.0
C33 C 0.01734 0.08736 0.01652 0.0
C34 C 0.01469 0.03556 0.07587 0.0
C35 C 1.00138 0.05088 0.08256 0.0
C36 C 0.25517 0.65196 0.24144 0.0
C37 C 0.23944 0.64803 0.22752 0.0
C38 C 0.2369 0.66121 0.21091 0.0
C39 C 0.24994 0.6778 0.20814 0.0
H40 H 0.25805 0.72825 0.17256 0.0
H41 H 0.25227 0.75169 0.14445 0.0
H42 H 0.30721 0.78405 0.15997 0.0
H43 H 0.31289 0.76095 0.18836 0.0
H44 H 0.3364 0.74953 0.2285 0.0
H45 H 0.36551 0.75448 0.25084 0.0
H46 H 0.35129 0.69852 0.28195 0.0
H47 H 0.32183 0.69366 0.25992 0.0
H48 H 0.28031 0.67096 0.24961 0.0
H49 H 0.2575 0.64204 0.25437 0.0
H50 H 0.22468 0.6588 0.20014 0.0
H51 H 0.2475 0.68757 0.19512 0.0
N52 N 0.27676 0.71237 0.20318 0.0
N53 N 0.30554 0.73108 0.21282 0.0
N54 N 0.29605 0.70213 0.23137 0.0
C55 C 0.28948 0.72838 0.20007 0.0
C56 C 0.30896 0.71806 0.22852 0.0
C57 C 0.27989 0.69917 0.21878 0.0
C58 C 0.28592 0.74268 0.18288 0.0
C59 C 0.2689 0.74039 0.17009 0.0
C60 C 0.26559 0.75379 0.15391 0.0
C61 C 0.27915 0.76986 0.1501 0.0
C62 C 0.29622 0.77211 0.16277 0.0
C63 C 0.29954 0.75873 0.17898 0.0
C64 C 0.32671 0.72112 0.24226 0.0
C65 C 0.33942 0.73821 0.24005 0.0
C66 C 0.35624 0.741 0.25278 0.0
C67 C 0.3609 0.72673 0.26797 0.0
C68 C 0.3481 0.70979 0.27039 0.0
C69 C 0.33123 0.707 0.25769 0.0
C70 C 0.26588 0.68164 0.22191 0.0
C71 C 0.26828 0.66851 0.23864 0.0
C72 C 0.98997 0.40062 0.00583 0.0
C73 C 0.97573 0.39613 0.99055 0.0
C74 C 0.95866 0.40875 0.98839 0.0
C75 C 0.95576 0.42535 1.00138 0.0
H76 H 0.91583 0.47199 0.01401 0.0
H77 H 0.88697 0.49475 0.00926 0.0
H78 H 0.91122 0.53511 0.05501 0.0
H79 H 0.93978 0.51222 0.06022 0.0
H80 H 0.97526 0.49666 0.08841 0.0
H81 H 0.99851 0.50244 0.11666 0.0
H82 H 0.03492 0.45154 0.09725 0.0
H83 H 0.0115 0.44539 0.06911 0.0
H84 H 0.99831 0.42008 0.03054 0.0
H85 H 0.00326 0.39115 0.00785 0.0
H86 H 0.94762 0.4059 0.9765 0.0
H87 H 0.9424 0.4347 0.99925 0.0
N88 N 0.95069 0.4601 0.02808 0.0
N89 N 0.96102 0.47949 0.05618 0.0
N90 N 0.97987 0.4509 0.04638 0.0
C91 C 0.94772 0.47623 0.04068 0.0
C92 C 0.97712 0.4669 0.05919 0.0
C93 C 0.96674 0.44737 0.03077 0.0
C94 C 0.93016 0.49014 0.0376 0.0
C95 C 0.91502 0.48567 0.02314 0.0
C96 C 0.89847 0.49874 0.02036 0.0
C97 C 0.89664 0.5166 0.03195 0.0
C98 C 0.91188 0.52121 0.04621 0.0
C99 C 0.92836 0.50811 0.04908 0.0
C100 C 0.99147 0.47057 0.07633 0.0
C101 C 0.98824 0.48669 0.09004 0.0
C102 C 1.00165 0.49012 0.1062 0.0
C103 C 0.01871 0.47762 0.10903 0.0
C104 C 0.0219 0.46143 0.09546 0.0
C105 C 0.00848 0.45796 0.07929 0.0
C106 C 0.96988 0.42977 0.01686 0.0
C107 C 0.98705 0.41719 0.01887 0.0
C108 C 0.74233 0.75291 0.15273 0.0
C109 C 0.72795 0.73784 0.14793 0.0
C110 C 0.71009 0.73659 0.15954 0.0
C111 C 0.70681 0.74991 0.17583 0.0
H112 H 0.67164 0.75705 0.22713 0.0
H113 H 0.64352 0.75112 0.25053 0.0
H114 H 0.658 0.80676 0.28216 0.0
H115 H 0.68643 0.81258 0.25913 0.0
H116 H 0.72837 0.83483 0.24926 0.0
H117 H 0.7516 0.86322 0.25476 0.0
H118 H 0.78155 0.84979 0.19797 0.0
H119 H 0.75873 0.82108 0.19263 0.0
H120 H 0.75045 0.77773 0.17215 0.0
H121 H 0.75608 0.75445 0.14382 0.0
H122 H 0.69876 0.72511 0.15618 0.0
H123 H 0.69292 0.7484 0.18451 0.0
N124 N 0.70199 0.77608 0.21108 0.0
N125 N 0.7117 0.80474 0.23 0.0
N126 N 0.73054 0.79509 0.20132 0.0
C127 C 0.6988 0.78881 0.22707 0.0
C128 C 0.7276 0.80802 0.2172 0.0
C129 C 0.71781 0.77909 0.19812 0.0
C130 C 0.68147 0.78527 0.24123 0.0
C131 C 0.66893 0.76803 0.23909 0.0
C132 C 0.65274 0.76463 0.25247 0.0
C133 C 0.64867 0.77832 0.26836 0.0
C134 C 0.66103 0.79565 0.27039 0.0
C135 C 0.67726 0.79905 0.25705 0.0
C136 C 0.74166 0.8255 0.22053 0.0
C137 C 0.73993 0.83783 0.23794 0.0
C138 C 0.75322 0.85418 0.24109 0.0
C139 C 0.7686 0.85864 0.22694 0.0
C140 C 0.77021 0.84647 0.20943 0.0
C141 C 0.75698 0.83007 0.20631 0.0
C142 C 0.72124 0.76497 0.18075 0.0
C143 C 0.739 0.76634 0.16891 0.0
C144 C 0.04638 0.91146 0.5224 0.0
C145 C 0.03193 0.89631 0.51806 0.0
C146 C 0.02004 0.89823 0.5004 0.0
C147 C 0.02274 0.91474 0.48724 0.0
H148 H 0.99335 0.94814 0.44204 0.0
H149 H 0.97009 0.95332 0.41372 0.0
H150 H 0.01185 0.99643 0.38718 0.0
H151 H 0.0349 0.99183 0.41588 0.0
H152 H 0.06551 0.01414 0.45104 0.0
H153 H 0.09381 0.03737 0.45734 0.0
H154 H 0.12151 0.99291 0.49679 0.0
H155 H 0.09296 0.97004 0.49119 0.0
H156 H 0.06049 0.93923 0.51307 0.0
H157 H 0.05541 0.91074 0.53615 0.0
H158 H 0.00879 0.8868 0.49662 0.0
H159 H 0.0134 0.91561 0.47371 0.0
N160 N 0.02756 0.9504 0.46154 0.0
N161 N 0.04628 0.97915 0.45166 0.0
N162 N 0.05638 0.96018 0.48011 0.0
C163 C 0.03032 0.96631 0.44861 0.0
C164 C 0.05939 0.97619 0.46739 0.0
C165 C 0.04051 0.94722 0.47734 0.0
C166 C 0.01611 0.96949 0.43128 0.0
C167 C 0.99766 0.9587 0.43017 0.0
C168 C 0.98436 0.96153 0.41381 0.0
C169 C 0.98926 0.97501 0.39796 0.0
C170 C 0.0076 0.98595 0.39914 0.0
C171 C 0.02084 0.98326 0.4156 0.0
C172 C 0.07681 0.99024 0.47074 0.0
C173 C 0.07759 0.00933 0.46113 0.0
C174 C 0.09384 0.02265 0.4647 0.0
C175 C 0.10978 0.01718 0.47786 0.0
C176 C 0.1092 0.99792 0.4871 0.0
C177 C 0.09286 0.98471 0.48373 0.0
C178 C 0.03743 0.92976 0.49141 0.0
C179 C 0.04918 0.9279 0.5092 0.0
C180 C 0.23856 0.75124 0.85684 0.0
C181 C 0.22576 0.76811 0.8595 0.0
C182 C 0.21043 0.77169 0.84506 0.0
C183 C 0.2077 0.75849 0.82857 0.0
H184 H 0.17057 0.74819 0.77956 0.0
H185 H 0.14242 0.75352 0.75605 0.0
H186 H 0.15771 0.69795 0.72478 0.0
H187 H 0.18614 0.69272 0.74795 0.0
H188 H 0.22179 0.66493 0.76514 0.0
H189 H 0.24504 0.63652 0.75983 0.0
H190 H 0.28728 0.66298 0.80248 0.0
H191 H 0.26412 0.69146 0.80793 0.0
H192 H 0.24592 0.72512 0.83892 0.0
H193 H 0.25049 0.74806 0.86772 0.0
H194 H 0.20061 0.78481 0.84639 0.0
H195 H 0.19566 0.76174 0.81783 0.0
N196 N 0.20134 0.7299 0.79563 0.0
N197 N 0.211 0.70093 0.77728 0.0
N198 N 0.22994 0.71122 0.80572 0.0
C199 C 0.19812 0.71687 0.77989 0.0
C200 C 0.22698 0.698 0.79008 0.0
C201 C 0.21717 0.7272 0.80866 0.0
C202 C 0.18078 0.72005 0.76568 0.0
C203 C 0.16803 0.73709 0.76766 0.0
C204 C 0.15182 0.74015 0.75422 0.0
C205 C 0.14796 0.72629 0.73841 0.0
C206 C 0.16056 0.70916 0.73651 0.0
C207 C 0.17679 0.7061 0.74992 0.0
C208 C 0.24106 0.68059 0.78694 0.0
C209 C 0.23603 0.66478 0.7734 0.0
C210 C 0.2493 0.64844 0.77039 0.0
C211 C 0.26801 0.64764 0.78063 0.0
C212 C 0.27306 0.66336 0.79419 0.0
C213 C 0.25971 0.6796 0.79738 0.0
C214 C 0.22032 0.74143 0.82602 0.0
C215 C 0.23587 0.73805 0.84033 0.0
C216 C 0.98917 0.60605 0.50027 0.0
C217 C 0.9768 0.60879 0.51747 0.0
C218 C 0.96069 0.59515 0.52079 0.0
C219 C 0.95719 0.57898 0.50738 0.0
H220 H 0.91701 0.53266 0.49532 0.0
H221 H 0.88791 0.51025 0.50026 0.0
H222 H 0.90612 0.47475 0.44822 0.0
H223 H 0.93547 0.49692 0.44333 0.0
H224 H 0.97381 0.50986 0.41796 0.0
H225 H 0.99677 0.50435 0.38942 0.0
H226 H 0.03237 0.55632 0.40781 0.0
H227 H 0.00966 0.56178 0.43661 0.0
H228 H 0.99559 0.58829 0.47381 0.0
H229 H 1.0014 0.61658 0.49701 0.0
H230 H 0.9509 0.59685 0.53392 0.0
H231 H 0.9447 0.56872 0.51053 0.0
N232 N 0.94991 0.54618 0.47874 0.0
N233 N 0.95944 0.52733 0.45002 0.0
N234 N 0.97885 0.5555 0.46013 0.0
C235 C 0.94646 0.53039 0.46582 0.0
C236 C 0.97569 0.53979 0.44705 0.0
C237 C 0.96606 0.55882 0.47603 0.0
C238 C 0.92866 0.51671 0.46887 0.0
C239 C 0.91487 0.52012 0.48487 0.0
C240 C 0.89807 0.50735 0.48764 0.0
C241 C 0.89458 0.49088 0.47448 0.0
C242 C 0.90842 0.48732 0.45862 0.0
C243 C 0.92522 0.5001 0.4558 0.0
C244 C 0.98975 0.53635 0.42964 0.0
C245 C 0.98649 0.52018 0.41598 0.0
C246 C 0.99958 0.51707 0.3995 0.0
C247 C 0.01622 0.53007 0.39621 0.0
C248 C 0.01967 0.54605 0.40996 0.0
C249 C 0.00658 0.5492 0.42644 0.0
C250 C 0.9697 0.57608 0.49026 0.0
C251 C 0.98571 0.58987 0.48688 0.0
C252 C 0.85475 0.76696 0.75463 0.0
C253 C 0.85742 0.7795 0.73755 0.0
C254 C 0.84361 0.79544 0.73426 0.0
C255 C 0.82738 0.79864 0.74764 0.0
H256 H 0.77886 0.83646 0.75799 0.0
H257 H 0.75537 0.86457 0.75246 0.0
H258 H 0.72225 0.84763 0.80647 0.0
H259 H 0.74542 0.8193 0.81193 0.0
H260 H 0.75853 0.78105 0.83702 0.0
H261 H 0.7538 0.75853 0.8661 0.0
H262 H 0.80682 0.72437 0.84838 0.0
H263 H 0.81187 0.74698 0.81946 0.0
H264 H 0.83692 0.76007 0.78093 0.0
H265 H 0.86513 0.75454 0.75754 0.0
H266 H 0.84549 0.80561 0.72146 0.0
H267 H 0.81708 0.81109 0.74459 0.0
N268 N 0.79416 0.80504 0.77588 0.0
N269 N 0.77573 0.79552 0.80487 0.0
N270 N 0.80442 0.77684 0.79509 0.0
C271 C 0.77833 0.80825 0.78879 0.0
C272 C 0.78867 0.77977 0.80816 0.0
C273 C 0.80729 0.78938 0.7789 0.0
C274 C 0.76406 0.82546 0.78538 0.0
C275 C 0.76655 0.83862 0.76868 0.0
C276 C 0.75312 0.8548 0.76552 0.0
C277 C 0.73683 0.85819 0.7789 0.0
C278 C 0.7344 0.84516 0.79565 0.0
C279 C 0.7478 0.82898 0.79883 0.0
C280 C 0.78566 0.76596 0.82585 0.0
C281 C 0.76926 0.7688 0.8393 0.0
C282 C 0.76648 0.75586 0.85595 0.0
C283 C 0.78006 0.73983 0.85967 0.0
C284 C 0.79634 0.73685 0.84617 0.0
C285 C 0.79913 0.74977 0.8295 0.0
C286 C 0.82458 0.786 0.76468 0.0
C287 C 0.83851 0.77013 0.768 0.0
C288 C 0.35456 0.26524 0.25528 0.0
C289 C 0.3582 0.27848 0.23891 0.0
C290 C 0.34532 0.29528 0.23625 0.0
C291 C 0.32899 0.29861 0.24947 0.0
H292 H 0.28233 0.33824 0.26094 0.0
H293 H 0.25992 0.36724 0.25575 0.0
H294 H 0.22157 0.34658 0.30476 0.0
H295 H 0.24379 0.31737 0.30995 0.0
H296 H 0.25493 0.27676 0.33339 0.0
H297 H 0.24922 0.25375 0.36194 0.0
H298 H 0.30753 0.22589 0.35128 0.0
H299 H 0.31342 0.24887 0.32274 0.0
H300 H 0.33594 0.25801 0.28094 0.0
H301 H 0.36446 0.25239 0.25797 0.0
H302 H 0.34773 0.30573 0.22376 0.0
H303 H 0.31933 0.31166 0.24683 0.0
N304 N 0.29491 0.30463 0.27674 0.0
N305 N 0.27555 0.29476 0.305 0.0
N306 N 0.30426 0.27589 0.29559 0.0
C307 C 0.27879 0.3078 0.28928 0.0
C308 C 0.28822 0.27878 0.30831 0.0
C309 C 0.30771 0.2887 0.27973 0.0
C310 C 0.26499 0.32541 0.28595 0.0
C311 C 0.26915 0.3398 0.27066 0.0
C312 C 0.25637 0.35653 0.26774 0.0
C313 C 0.23912 0.35931 0.28 0.0
C314 C 0.23476 0.34482 0.29507 0.0
C315 C 0.24757 0.32812 0.29807 0.0
C316 C 0.28464 0.2647 0.32565 0.0
C317 C 0.26656 0.26573 0.33705 0.0
C318 C 0.2632 0.25247 0.35335 0.0
C319 C 0.27787 0.23793 0.35872 0.0
C320 C 0.29598 0.23697 0.34748 0.0
C321 C 0.29929 0.25011 0.33108 0.0
C322 C 0.32519 0.28527 0.26577 0.0
C323 C 0.33826 0.26857 0.26853 0.0
C324 C 0.48667 0.89769 0.50871 0.0
C325 C 0.47663 0.89648 0.48988 0.0
C326 C 0.46249 0.91167 0.48485 0.0
C327 C 0.45875 0.92786 0.49817 0.0
H328 H 0.41711 0.97336 0.51096 0.0
H329 H 0.38837 0.99609 0.50566 0.0
H330 H 0.40669 0.03162 0.5577 0.0
H331 H 0.43566 0.00912 0.56297 0.0
H332 H 0.47201 0.9937 0.59079 0.0
H333 H 0.49493 0.99861 0.61959 0.0
H334 H 0.5332 0.95028 0.59737 0.0
H335 H 0.51018 0.94495 0.56888 0.0
H336 H 0.49118 0.91433 0.53628 0.0
H337 H 0.4972 0.88594 0.51336 0.0
H338 H 0.4545 0.91119 0.47045 0.0
H339 H 0.4479 0.93937 0.4937 0.0
N340 N 0.44966 0.95953 0.52789 0.0
N341 N 0.4591 0.97827 0.55678 0.0
N342 N 0.47812 0.9498 0.54699 0.0
C343 C 0.4463 0.97537 0.54077 0.0
C344 C 0.47508 0.96557 0.56 0.0
C345 C 0.46552 0.94664 0.53091 0.0
C346 C 0.42877 0.98929 0.53746 0.0
C347 C 0.41507 0.98598 0.52133 0.0
C348 C 0.39848 0.99893 0.51835 0.0
C349 C 0.39513 0.0155 0.53141 0.0
C350 C 0.4089 0.01898 0.54737 0.0
C351 C 0.42547 0.00601 0.55041 0.0
C352 C 0.4891 0.96882 0.57749 0.0
C353 C 0.48526 0.98404 0.59204 0.0
C354 C 0.49842 0.98692 0.60854 0.0
C355 C 0.51572 0.97465 0.61093 0.0
C356 C 0.51972 0.95964 0.59627 0.0
C357 C 0.50655 0.9567 0.57982 0.0
C358 C 0.46912 0.92929 0.51684 0.0
C359 C 0.48308 0.91394 0.52195 0.0
C360 C 0.24122 0.25211 0.65423 0.0
C361 C 0.22567 0.2391 0.64751 0.0
C362 C 0.20703 0.23906 0.6579 0.0
C363 C 0.20395 0.25185 0.67462 0.0
H364 H 0.17231 0.2548 0.73014 0.0
H365 H 0.14353 0.24906 0.75268 0.0
H366 H 0.15139 0.30905 0.77812 0.0
H367 H 0.18069 0.31461 0.75608 0.0
H368 H 0.22615 0.33408 0.75063 0.0
H369 H 0.249 0.36268 0.75643 0.0
H370 H 0.2794 0.35002 0.69971 0.0
H371 H 0.25695 0.32105 0.69406 0.0
H372 H 0.25034 0.27505 0.67549 0.0
H373 H 0.25573 0.25242 0.64648 0.0
H374 H 0.19488 0.22898 0.65318 0.0
H375 H 0.18937 0.25143 0.68224 0.0
N376 N 0.19989 0.27601 0.71145 0.0
N377 N 0.20941 0.30451 0.73069 0.0
N378 N 0.22875 0.29487 0.70232 0.0
C379 C 0.1965 0.28866 0.72745 0.0
C380 C 0.2256 0.30773 0.71822 0.0
C381 C 0.21597 0.27898 0.6988 0.0
C382 C 0.17884 0.28522 0.74117 0.0
C383 C 0.1679 0.26684 0.74047 0.0
C384 C 0.15126 0.26358 0.75331 0.0
C385 C 0.14489 0.27874 0.76697 0.0
C386 C 0.15591 0.29705 0.7678 0.0
C387 C 0.17269 0.30024 0.7551 0.0
C388 C 0.23958 0.3252 0.72182 0.0
C389 C 0.23766 0.33736 0.73933 0.0
C390 C 0.25068 0.35388 0.74262 0.0
C391 C 0.26585 0.35883 0.72839 0.0
C392 C 0.26791 0.34659 0.71099 0.0
C393 C 0.25496 0.33 0.70774 0.0
C394 C 0.21939 0.26515 0.68123 0.0
C395 C 0.23807 0.26512 0.6708 0.0
C396 C 0.75382 0.15184 0.74109 0.0
C397 C 0.73714 0.14881 0.72807 0.0
C398 C 0.73435 0.16223 0.7117 0.0
C399 C 0.74776 0.17844 0.70854 0.0
H400 H 0.75544 0.22973 0.67399 0.0
H401 H 0.75001 0.25238 0.64525 0.0
H402 H 0.80835 0.28041 0.6561 0.0
H403 H 0.81365 0.25814 0.68528 0.0
H404 H 0.83211 0.2515 0.73164 0.0
H405 H 0.86029 0.25686 0.75516 0.0
H406 H 0.85169 0.19642 0.77918 0.0
H407 H 0.82309 0.19125 0.75623 0.0
H408 H 0.77986 0.16996 0.74837 0.0
H409 H 0.75635 0.14177 0.75386 0.0
H410 H 0.72189 0.16004 0.70114 0.0
H411 H 0.74507 0.18844 0.69575 0.0
N412 N 0.7756 0.21205 0.70262 0.0
N413 N 0.80443 0.23073 0.71224 0.0
N414 N 0.79471 0.20194 0.73094 0.0
C415 C 0.78843 0.22795 0.69942 0.0
C416 C 0.80769 0.2178 0.72805 0.0
C417 C 0.7786 0.19895 0.71832 0.0
C418 C 0.78505 0.24197 0.68198 0.0
C419 C 0.76717 0.24068 0.67029 0.0
C420 C 0.76409 0.25358 0.65368 0.0
C421 C 0.77889 0.26798 0.64815 0.0
C422 C 0.79664 0.26949 0.65997 0.0
C423 C 0.79969 0.25666 0.67668 0.0
C424 C 0.82516 0.22098 0.74209 0.0
C425 C 0.83615 0.23935 0.74197 0.0
C426 C 0.85236 0.24243 0.75543 0.0
C427 C 0.85807 0.2272 0.7693 0.0
C428 C 0.84733 0.20871 0.76915 0.0
C429 C 0.831 0.20569 0.75584 0.0
C430 C 0.76439 0.18163 0.72165 0.0
C431 C 0.76726 0.16806 0.73795 0.0
C432 C 0.48619 0.54509 0.59684 0.0
C433 C 0.48931 0.52886 0.61035 0.0
C434 C 0.50612 0.51608 0.60728 0.0
C435 C 0.51935 0.51929 0.59093 0.0
H436 H 0.56815 0.49383 0.56154 0.0
H437 H 0.59649 0.47067 0.5559 0.0
H438 H 0.61847 0.50904 0.50749 0.0
H439 H 0.59027 0.53242 0.51313 0.0
H440 H 0.56711 0.57372 0.50323 0.0
H441 H 0.56191 0.60219 0.48019 0.0
H442 H 0.50114 0.61006 0.50355 0.0
H443 H 0.50654 0.582 0.52719 0.0
H444 H 0.49644 0.56094 0.57033 0.0
H445 H 0.47334 0.55518 0.59879 0.0
H446 H 0.5092 0.5037 0.61767 0.0
H447 H 0.53213 0.5091 0.58911 0.0
N448 N 0.54632 0.52615 0.5568 0.0
N449 N 0.55641 0.54523 0.52844 0.0
N450 N 0.52747 0.55473 0.54695 0.0
C451 C 0.55944 0.52919 0.54112 0.0
C452 C 0.54046 0.55806 0.53119 0.0
C453 C 0.53032 0.53885 0.55989 0.0
C454 C 0.57679 0.51505 0.53777 0.0
C455 C 0.57896 0.4974 0.54966 0.0
C456 C 0.59514 0.484 0.54635 0.0
C457 C 0.60957 0.48792 0.5311 0.0
C458 C 0.60757 0.50563 0.51935 0.0
C459 C 0.59135 0.51899 0.52258 0.0
C460 C 0.53722 0.57543 0.51707 0.0
C461 C 0.55259 0.58144 0.50346 0.0
C462 C 0.54955 0.5977 0.49009 0.0
C463 C 0.53096 0.6082 0.48972 0.0
C464 C 0.51565 0.60232 0.50344 0.0
C465 C 0.51875 0.58618 0.51697 0.0
C466 C 0.51618 0.53544 0.57726 0.0
C467 C 0.49942 0.54833 0.58047 0.0
C468 C 0.54449 0.41321 0.02209 0.0
C469 C 0.52914 0.39883 0.01832 0.0
C470 C 0.51637 0.40162 1.00142 0.0
C471 C 0.51917 0.41818 0.98832 0.0
H472 H 0.49209 0.45057 0.94084 0.0
H473 H 0.46925 0.45651 0.91223 0.0
H474 H 0.51246 0.49867 0.8865 0.0
H475 H 0.53502 0.49331 0.91536 0.0
H476 H 0.57449 0.50596 0.94123 0.0
H477 H 0.60383 0.52803 0.9469 0.0
H478 H 0.60975 0.50455 0.00789 0.0
H479 H 0.58096 0.48202 1.00207 0.0
H480 H 0.5594 0.44041 0.0124 0.0
H481 H 0.55426 0.41177 0.03526 0.0
H482 H 0.5044 0.39079 0.99813 0.0
H483 H 0.50918 0.41969 0.97532 0.0
N484 N 0.52578 0.45273 0.96144 0.0
N485 N 0.54532 0.48088 0.95139 0.0
N486 N 0.55416 0.46258 0.98066 0.0
C487 C 0.52919 0.46828 0.94822 0.0
C488 C 0.55784 0.47818 0.96763 0.0
C489 C 0.53824 0.44972 0.97769 0.0
C490 C 0.5154 0.47155 0.93056 0.0
C491 C 0.49674 0.46116 0.92914 0.0
C492 C 0.48363 0.46453 0.9127 0.0
C493 C 0.48886 0.4783 0.89721 0.0
C494 C 0.50767 0.48841 0.89844 0.0
C495 C 0.5207 0.48519 0.91496 0.0
C496 C 0.57541 0.49203 0.97112 0.0
C497 C 0.58207 0.50544 0.95584 0.0
C498 C 0.59887 0.51814 0.9591 0.0
C499 C 0.60937 0.51782 0.97773 0.0
C500 C 0.60243 0.50475 0.99314 0.0
C501 C 0.58578 0.49192 0.98983 0.0
C502 C 0.53479 0.4324 0.99186 0.0
C503 C 0.54732 0.42974 0.00901 0.0
C504 C 0.73498 0.24831 0.35869 0.0
C505 C 0.72493 0.26715 0.35949 0.0
C506 C 0.71229 0.27264 0.34314 0.0
C507 C 0.70945 0.25948 0.32665 0.0
H508 H 0.66895 0.2471 0.28025 0.0
H509 H 0.64092 0.25276 0.25666 0.0
H510 H 0.66003 0.20107 0.22115 0.0
H511 H 0.68827 0.19545 0.24448 0.0
H512 H 0.72635 0.17013 0.25799 0.0
H513 H 0.74961 0.14183 0.25253 0.0
H514 H 0.78111 0.15692 0.30808 0.0
H515 H 0.75818 0.18548 0.31347 0.0
H516 H 0.74021 0.22081 0.3421 0.0
H517 H 0.74477 0.24357 0.37105 0.0
H518 H 0.70478 0.28727 0.34294 0.0
H519 H 0.69959 0.26427 0.31437 0.0
N520 N 0.70101 0.2299 0.2949 0.0
N521 N 0.71086 0.20126 0.27611 0.0
N522 N 0.72898 0.2105 0.30544 0.0
C523 C 0.69807 0.21726 0.27878 0.0
C524 C 0.72637 0.19775 0.28934 0.0
C525 C 0.7164 0.22664 0.30831 0.0
C526 C 0.68101 0.22083 0.26432 0.0
C527 C 0.6673 0.23695 0.26739 0.0
C528 C 0.65116 0.24019 0.25391 0.0
C529 C 0.64837 0.22749 0.23695 0.0
C530 C 0.662 0.21136 0.23386 0.0
C531 C 0.67813 0.20808 0.24736 0.0
C532 C 0.74037 0.18026 0.28614 0.0
C533 C 0.73824 0.16751 0.26906 0.0
C534 C 0.75154 0.15122 0.26592 0.0
C535 C 0.76736 0.14728 0.27972 0.0
C536 C 0.76938 0.15984 0.29691 0.0
C537 C 0.7561 0.17614 0.30006 0.0
C538 C 0.71942 0.24059 0.32589 0.0
C539 C 0.73231 0.23523 0.34209 0.0
C540 C 0.48949 0.10636 1.00095 0.0
C541 C 0.47615 0.11019 0.01718 0.0
C542 C 0.45986 0.09676 0.02046 0.0
C543 C 0.45676 0.08008 0.0076 0.0
H544 H 0.4176 0.03264 0.99687 0.0
H545 H 0.38904 0.00973 1.00259 0.0
H546 H 0.40884 0.97221 0.95258 0.0
H547 H 0.43725 0.99528 0.94648 0.0
H548 H 0.47287 0.01104 0.91812 0.0
H549 H 0.49582 0.00534 0.88963 0.0
H550 H 0.53498 0.05331 0.91141 0.0
H551 H 0.51183 0.05945 0.9397 0.0
H552 H 0.49702 0.08729 0.97573 0.0
H553 H 0.50244 0.11618 0.9983 0.0
H554 H 0.44932 0.09933 0.03284 0.0
H555 H 0.44394 0.07017 0.01053 0.0
N556 N 0.45061 0.04592 0.98034 0.0
N557 N 0.46031 0.02666 0.95194 0.0
N558 N 0.47938 0.05526 0.96147 0.0
C559 C 0.44735 0.02984 0.96774 0.0
C560 C 0.47636 0.03929 0.94868 0.0
C561 C 0.46658 0.05872 0.97734 0.0
C562 C 0.42988 0.01585 0.97124 0.0
C563 C 0.41596 0.01951 0.98708 0.0
C564 C 0.39964 0.00628 0.99047 0.0
C565 C 0.39685 0.98899 0.97822 0.0
C566 C 0.41059 0.98541 0.96227 0.0
C567 C 0.42691 0.99865 0.95883 0.0
C568 C 0.49046 0.03568 0.93134 0.0
C569 C 0.48638 0.02037 0.91694 0.0
C570 C 0.49963 0.01698 0.90065 0.0
C571 C 0.51739 0.02867 0.89842 0.0
C572 C 0.52141 0.04406 0.9127 0.0
C573 C 0.50813 0.04753 0.92895 0.0
C574 C 0.46997 0.07634 0.99117 0.0
C575 C 0.48643 0.08968 0.98809 0.0
Li576 Li 0.27166 0.89107 1.00088 0.0
Li577 Li 0.2557 0.86545 0.0234 0.0
Li578 Li 0.24884 0.86529 0.9853 0.0
Li579 Li 0.23362 0.89116 0.00797 0.0
C580 C 0.29411 0.85569 0.99461 0.0
N581 N 0.33313 0.84538 0.98305 0.0
C582 C 0.30786 0.84816 0.00895 0.0
C583 C 0.30012 0.85763 0.97433 0.0
C584 C 0.32754 0.84312 1.00282 0.0
C585 C 0.31992 0.85243 0.9688 0.0
C586 C 0.26115 0.89868 0.04708 0.0
C587 C 0.25084 0.89878 0.08227 0.0
N588 N 0.26998 0.90432 0.08778 0.0
C589 C 0.28066 0.9046 0.05307 0.0
C590 C 0.24605 0.89595 0.06176 0.0
C591 C 0.28484 0.9073 0.07373 0.0
C592 C 0.29271 0.9256 0.98588 0.0
N593 N 0.29511 0.90809 0.9966 0.0
C594 C 0.33032 0.91566 1.00192 0.0
C595 C 0.31345 0.90302 0.00468 0.0
C596 C 0.32828 0.93387 0.99096 0.0
C597 C 0.30918 0.93869 0.98276 0.0
H598 H 0.27792 0.92952 0.9799 0.0
H599 H 0.31496 0.88932 0.01356 0.0
C600 C 0.24623 0.83368 0.05118 0.0
N601 N 0.25998 0.84853 0.0469 0.0
C602 C 0.2489 0.82107 0.06809 0.0
C603 C 0.27996 0.83907 0.07583 0.0
C604 C 0.27673 0.85127 0.05873 0.0
C605 C 0.26588 0.82378 0.08075 0.0
H606 H 0.2332 0.83154 0.0414 0.0
H607 H 0.28774 0.86281 0.0548 0.0
C608 C 0.24688 0.90039 0.96173 0.0
N609 N 0.24374 0.91028 0.92101 0.0
C610 C 0.22831 0.90684 0.9537 0.0
C611 C 0.26393 0.89934 0.94912 0.0
C612 C 0.227 0.91167 0.93306 0.0
C613 C 0.26201 0.90431 0.92856 0.0
C614 C 0.20937 0.85826 0.01205 0.0
C615 C 0.19643 0.85222 0.9963 0.0
C616 C 0.20147 0.86142 0.03151 0.0
C617 C 0.1757 0.84981 1.00022 0.0
C618 C 0.18065 0.85887 0.03481 0.0
N619 N 0.1683 0.85319 0.01922 0.0
C620 C 0.25617 0.8313 0.95964 0.0
C621 C 0.22964 0.85271 0.94819 0.0
C622 C 0.25332 0.81833 0.94302 0.0
N623 N 0.24449 0.8482 0.96187 0.0
C624 C 0.22622 0.84011 0.9314 0.0
C625 C 0.23808 0.82259 0.92869 0.0
H626 H 0.26759 0.82776 0.97089 0.0
H627 H 0.22021 0.86592 0.95046 0.0
C628 C 0.21205 0.92364 0.02629 0.0
N629 N 0.21046 0.90853 0.01225 0.0
C630 C 0.19587 0.93697 0.02963 0.0
C631 C 0.1766 0.91903 0.00402 0.0
C632 C 0.19318 0.90606 1.00115 0.0
C633 C 0.17789 0.93488 0.01829 0.0
H634 H 0.22597 0.92547 0.03481 0.0
H635 H 0.19232 0.89417 0.98985 0.0
O636 O 0.27482 0.86084 1.00039 0.0
O637 O 0.25684 0.89573 0.02693 0.0
O638 O 0.2484 0.89551 0.9819 0.0
O639 O 0.22968 0.86089 0.00846 0.0
H640 H 0.30343 0.84632 0.02466 0.0
H641 H 0.28954 0.8629 0.96294 0.0
H642 H 0.33837 0.83742 0.01379 0.0
H643 H 0.32478 0.85393 0.95316 0.0
H644 H 0.23932 0.8966 0.09379 0.0
H645 H 0.29248 0.90695 0.04193 0.0
H646 H 0.23081 0.89172 0.05738 0.0
H647 H 0.29991 0.91174 0.07859 0.0
H648 H 0.34483 0.9112 0.00827 0.0
H649 H 0.30692 0.95264 0.97433 0.0
H650 H 0.23773 0.80941 0.07131 0.0
H651 H 0.29351 0.84135 0.0849 0.0
H652 H 0.21501 0.90797 0.96325 0.0
H653 H 0.27853 0.89495 0.95517 0.0
H654 H 0.21269 0.91652 0.92662 0.0
H655 H 0.27508 0.90349 0.91863 0.0
H656 H 0.2023 0.84951 0.98121 0.0
H657 H 0.21129 0.86576 0.04393 0.0
H658 H 0.1655 0.84526 0.98814 0.0
H659 H 0.17433 0.86138 0.04978 0.0
H660 H 0.26268 0.80488 0.94158 0.0
H661 H 0.21445 0.84408 0.9206 0.0
H662 H 0.19738 0.94875 0.04103 0.0
H663 H 0.16305 0.91695 0.99489 0.0
Li664 Li 0.1159 0.50738 0.27258 0.0
Li665 Li 0.14178 0.48472 0.25753 0.0
Li666 Li 0.14175 0.52275 0.25072 0.0
Li667 Li 0.11614 0.50027 0.23457 0.0
C668 C 0.1484 0.51105 0.29718 0.0
N669 N 0.15269 0.5174 0.33849 0.0
C670 C 0.15403 0.49502 0.30991 0.0
C671 C 0.14523 0.53036 0.30541 0.0
C672 C 0.15605 0.49853 0.33077 0.0
C673 C 0.14738 0.53325 0.32634 0.0
C674 C 0.1065 0.46114 0.25902 0.0
C675 C 0.10226 0.42825 0.24335 0.0
N676 N 0.09614 0.42049 0.26151 0.0
C677 C 0.09989 0.4529 0.27746 0.0
C678 C 0.10747 0.44877 0.24177 0.0
C679 C 0.09483 0.4323 0.27843 0.0
C680 C 0.08359 0.52606 0.29402 0.0
N681 N 0.09836 0.51171 0.29562 0.0
C682 C 0.08722 0.50331 0.32927 0.0
C683 C 0.10036 0.50037 0.3128 0.0
C684 C 0.07171 0.51789 0.32795 0.0
C685 C 0.07011 0.52947 0.31008 0.0
H686 H 0.08214 0.53477 0.28018 0.0
H687 H 0.11199 0.48885 0.31368 0.0
C688 C 0.17632 0.46009 0.2506 0.0
N689 N 0.15899 0.46144 0.26179 0.0
C690 C 0.18956 0.44371 0.2532 0.0
C691 C 0.16717 0.43048 0.27909 0.0
C692 C 0.1543 0.4471 0.27593 0.0
C693 C 0.18515 0.42869 0.26773 0.0
H694 H 0.17993 0.47181 0.23968 0.0
H695 H 0.14079 0.44872 0.28507 0.0
C696 C 0.10884 0.54646 0.24487 0.0
N697 N 0.10372 0.5871 0.23568 0.0
C698 C 0.10293 0.55231 0.22532 0.0
C699 C 0.11186 0.56125 0.25981 0.0
C700 C 0.10049 0.57294 0.22095 0.0
C701 C 0.10928 0.58173 0.25485 0.0
C702 C 0.15187 0.49368 0.21246 0.0
C703 C 0.15967 0.50777 0.1986 0.0
C704 C 0.15007 0.47329 0.20678 0.0
C705 C 0.16512 0.50129 0.17912 0.0
C706 C 0.15569 0.4674 0.18717 0.0
N707 N 0.16301 0.48141 0.17385 0.0
C708 C 0.17361 0.55038 0.26035 0.0
C709 C 0.15658 0.55769 0.2295 0.0
C710 C 0.18669 0.56691 0.25747 0.0
N711 N 0.15891 0.54609 0.24645 0.0
C712 C 0.16927 0.5744 0.22605 0.0
C713 C 0.18473 0.57909 0.24004 0.0
H714 H 0.17537 0.5408 0.27358 0.0
H715 H 0.14497 0.55388 0.21852 0.0
C716 C 0.08153 0.48563 0.21342 0.0
N717 N 0.09927 0.49599 0.21102 0.0
C718 C 0.06854 0.48249 0.19686 0.0
C719 C 0.09216 0.50092 0.17565 0.0
C720 C 0.10469 0.5037 0.19261 0.0
C721 C 0.07373 0.49032 0.17768 0.0
H722 H 0.07736 0.47994 0.22826 0.0
H723 H 0.11857 0.51231 0.1911 0.0
O724 O 0.14614 0.50785 0.27674 0.0
O725 O 0.11158 0.48128 0.25781 0.0
O726 O 0.1115 0.52634 0.24937 0.0
O727 O 0.14634 0.49979 0.23156 0.0
H728 H 0.1567 0.48002 0.30379 0.0
H729 H 0.14116 0.54299 0.29574 0.0
H730 H 0.16029 0.48623 0.34082 0.0
H731 H 0.14487 0.54811 0.33293 0.0
H732 H 0.10301 0.4185 0.23012 0.0
H733 H 0.09883 0.46227 0.29091 0.0
H734 H 0.11197 0.45498 0.22725 0.0
H735 H 0.08986 0.4257 0.29265 0.0
H736 H 0.08892 0.494 0.34274 0.0
H737 H 0.0586 0.54111 0.30856 0.0
H738 H 0.20306 0.44277 0.24385 0.0
H739 H 0.16328 0.41936 0.29059 0.0
H740 H 0.10036 0.54107 0.21361 0.0
H741 H 0.11614 0.55698 0.27508 0.0
H742 H 0.09603 0.57768 0.20585 0.0
H743 H 0.11168 0.59334 0.26625 0.0
H744 H 0.16138 0.52356 0.20278 0.0
H745 H 0.14461 0.46208 0.21746 0.0
H746 H 0.17103 0.51207 0.16821 0.0
H747 H 0.15432 0.45167 0.18257 0.0
H748 H 0.19848 0.56991 0.26858 0.0
H749 H 0.16694 0.58359 0.2126 0.0
H750 H 0.05441 0.47435 0.19911 0.0
H751 H 0.09689 0.50697 0.16109 0.0
Li752 Li 0.73503 0.61536 0.99987 0.0
Li753 Li 0.75142 0.64146 0.02171 0.0
Li754 Li 0.75721 0.64174 0.98457 0.0
Li755 Li 0.77321 0.61605 0.00611 0.0
C756 C 0.71607 0.65145 0.98645 0.0
N757 N 0.68639 0.66407 0.95959 0.0
C758 C 0.7052 0.66926 0.99024 0.0
C759 C 0.71187 0.64005 0.969 0.0
C760 C 0.69024 0.67539 0.97647 0.0
C761 C 0.69681 0.64668 0.95561 0.0
C762 C 0.74563 0.60931 0.04569 0.0
C763 C 0.75528 0.6094 0.08107 0.0
N764 N 0.73559 0.60592 0.08633 0.0
C765 C 0.72554 0.60553 0.05143 0.0
C766 C 0.76067 0.61107 0.0606 0.0
C767 C 0.72076 0.60393 0.07206 0.0
C768 C 0.71517 0.57913 0.98822 0.0
N769 N 0.71193 0.59792 0.99616 0.0
C770 C 0.67625 0.59125 0.99866 0.0
C771 C 0.69295 0.60418 1.00138 0.0
C772 C 0.67911 0.57171 0.9905 0.0
C773 C 0.6989 0.56581 0.98507 0.0
H774 H 0.73043 0.5745 0.98428 0.0
H775 H 0.69079 0.61917 0.00778 0.0
C776 C 0.76208 0.67152 0.051 0.0
N777 N 0.74712 0.65849 0.04514 0.0
C778 C 0.7594 0.68414 0.06789 0.0
C779 C 0.72578 0.67008 0.07226 0.0
C780 C 0.72907 0.65781 0.05518 0.0
C781 C 0.74114 0.68338 0.07893 0.0
H782 H 0.77603 0.67235 0.04242 0.0
H783 H 0.71717 0.64776 0.04991 0.0
C784 C 0.76517 0.60762 0.96127 0.0
N785 N 0.77969 0.60004 0.92259 0.0
C786 C 0.78426 0.61484 0.95544 0.0
C787 C 0.75337 0.59666 0.94737 0.0
C788 C 0.79135 0.61083 0.93584 0.0
C789 C 0.76101 0.59294 0.92791 0.0
C790 C 0.79758 0.64838 0.01013 0.0
C791 C 0.81041 0.65477 0.99443 0.0
C792 C 0.80574 0.64418 0.02929 0.0
C793 C 0.83122 0.65671 0.99815 0.0
C794 C 0.82664 0.64627 0.03239 0.0
N795 N 0.83884 0.65243 0.01688 0.0
C796 C 0.76931 0.67777 0.96474 0.0
C797 C 0.75394 0.65401 0.94247 0.0
C798 C 0.7727 0.69122 0.94864 0.0
N799 N 0.76043 0.6594 0.96138 0.0
C800 C 0.75698 0.66701 0.92593 0.0
C801 C 0.76673 0.68578 0.92886 0.0
H802 H 0.77389 0.68195 0.97998 0.0
H803 H 0.74646 0.63959 0.94012 0.0
C804 C 0.79363 0.5826 0.02359 0.0
N805 N 0.79625 0.59828 0.01036 0.0
C806 C 0.80953 0.5691 0.02762 0.0
C807 C 0.83059 0.58788 0.0042 0.0
C808 C 0.81426 0.60095 1.00054 0.0
C809 C 0.82841 0.57176 0.01801 0.0
H810 H 0.77911 0.58048 0.03096 0.0
H811 H 0.81613 0.61326 0.98991 0.0
O812 O 0.73086 0.64536 0.99971 0.0
O813 O 0.75055 0.61122 0.02558 0.0
O814 O 0.7578 0.61171 0.98027 0.0
O815 O 0.77715 0.6463 0.00678 0.0
H816 H 0.70832 0.67826 0.00367 0.0
H817 H 0.72021 0.62627 0.96579 0.0
H818 H 0.6817 0.68916 0.9792 0.0
H819 H 0.69342 0.63802 0.94204 0.0
H820 H 0.76674 0.61085 0.09277 0.0
H821 H 0.71373 0.60405 0.0401 0.0
H822 H 0.77633 0.61368 0.05641 0.0
H823 H 0.70524 0.60115 0.07673 0.0
H824 H 0.66128 0.59641 0.00312 0.0
H825 H 0.7018 0.55112 0.97825 0.0
H826 H 0.77139 0.69465 0.07204 0.0
H827 H 0.71142 0.66909 0.08022 0.0
H828 H 0.79326 0.62388 0.96577 0.0
H829 H 0.73842 0.59123 0.95149 0.0
H830 H 0.80608 0.61643 0.93111 0.0
H831 H 0.75206 0.58448 0.917 0.0
H832 H 0.80444 0.65799 0.97947 0.0
H833 H 0.79605 0.63933 0.04162 0.0
H834 H 0.84133 0.66154 0.98611 0.0
H835 H 0.83316 0.64298 0.04713 0.0
H836 H 0.77976 0.70579 0.95166 0.0
H837 H 0.75202 0.6623 0.91094 0.0
H838 H 0.80695 0.55655 0.03795 0.0
H839 H 0.84487 0.59049 0.99643 0.0
Li840 Li 0.86497 0.02168 0.25779 0.0
Li841 Li 0.89008 1.0006 0.27391 0.0
Li842 Li 0.89132 0.00778 0.23549 0.0
Li843 Li 0.86437 0.9852 0.25197 0.0
C844 C 0.89673 0.04678 0.26338 0.0
N845 N 0.89986 0.08775 0.27209 0.0
C846 C 0.89021 0.05424 0.28217 0.0
C847 C 0.90492 0.06015 0.24904 0.0
C848 C 0.89187 0.075 0.28627 0.0
C849 C 0.90637 0.08082 0.25374 0.0
C850 C 0.85859 0.99547 0.2981 0.0
C851 C 0.86058 0.97141 0.3257 0.0
N852 N 0.85651 0.98658 0.33913 0.0
C853 C 0.85436 0.01081 0.31219 0.0
C854 C 0.86164 0.97559 0.30491 0.0
C855 C 0.85338 0.00602 0.33285 0.0
C856 C 0.83065 0.04318 0.27296 0.0
N857 N 0.84723 0.04504 0.26076 0.0
C858 C 0.83827 0.07946 0.25304 0.0
C859 C 0.85092 0.0626 0.25046 0.0
C860 C 0.82151 0.07822 0.2662 0.0
C861 C 0.81759 0.05966 0.27597 0.0
H862 H 0.82752 0.02886 0.28036 0.0
H863 H 0.86363 0.06354 0.24013 0.0
C864 C 0.92215 0.98131 0.29524 0.0
N865 N 0.90773 0.996 0.297 0.0
C866 C 0.9355 0.97731 0.31131 0.0
C867 C 0.91911 0.00369 0.33077 0.0
C868 C 0.90622 0.00733 0.31426 0.0
C869 C 0.93395 0.98841 0.3295 0.0
H870 H 0.92348 0.97282 0.28124 0.0
H871 H 0.89505 0.01923 0.3153 0.0
C872 C 0.84671 0.01797 0.22222 0.0
N873 N 0.81624 0.04128 0.20532 0.0
C874 C 0.82643 0.01426 0.2273 0.0
C875 C 0.85152 0.0334 0.20845 0.0
C876 C 0.81124 0.02626 0.21862 0.0
C877 C 0.83588 0.04505 0.20008 0.0
C878 C 0.89712 0.96161 0.2452 0.0
C879 C 0.90201 0.95674 0.22511 0.0
C880 C 0.89455 0.94607 0.25945 0.0
C881 C 0.90392 0.93634 0.21952 0.0
C882 C 0.89656 0.92586 0.25327 0.0
N883 N 0.90114 0.92145 0.23359 0.0
C884 C 0.92779 0.01905 0.21577 0.0
C885 C 0.90213 0.00714 0.19346 0.0
C886 C 0.94109 0.02203 0.19947 0.0
N887 N 0.90873 0.01176 0.21252 0.0
C888 C 0.91503 0.00965 0.17673 0.0
C889 C 0.93489 0.01706 0.17961 0.0
H890 H 0.93264 0.02264 0.23108 0.0
H891 H 0.88691 1.00129 0.19131 0.0
C892 C 0.83311 0.95667 0.26135 0.0
N893 N 0.84724 0.9619 0.24718 0.0
C894 C 0.82045 0.93985 0.25826 0.0
C895 C 0.83669 0.93433 0.22582 0.0
C896 C 0.84895 0.95134 0.22948 0.0
C897 C 0.82229 0.92831 0.24039 0.0
H898 H 0.83155 0.96562 0.27503 0.0
H899 H 0.85976 0.9562 0.2181 0.0
O900 O 0.89505 0.02652 0.259 0.0
O901 O 0.85979 0.99987 0.27779 0.0
O902 O 0.86181 0.00678 0.23097 0.0
O903 O 0.89486 0.98149 0.25087 0.0
H904 H 0.88352 0.04418 0.29328 0.0
H905 H 0.9099 0.05469 0.23436 0.0
H906 H 0.88671 0.081 0.30069 0.0
H907 H 0.91261 0.09135 0.24276 0.0
H908 H 0.86298 0.95609 0.33115 0.0
H909 H 0.8522 0.02634 0.3073 0.0
H910 H 0.86482 0.96351 0.29425 0.0
H911 H 0.85025 0.01777 0.34392 0.0
H912 H 0.84147 0.09326 0.24466 0.0
H913 H 0.80469 0.05797 0.28606 0.0
H914 H 0.94712 0.96585 0.30934 0.0
H915 H 0.91739 0.01269 0.34446 0.0
H916 H 0.82252 1.00238 0.238 0.0
H917 H 0.86718 0.03652 0.20448 0.0
H918 H 0.79548 0.02367 0.22251 0.0
H919 H 0.83936 0.05714 0.1895 0.0
H920 H 0.90414 0.96855 0.2139 0.0
H921 H 0.89106 0.94957 0.27511 0.0
H922 H 0.90757 0.93234 0.204 0.0
H923 H 0.8945 0.91368 0.26412 0.0
H924 H 0.95601 0.02834 0.2024 0.0
H925 H 0.90961 0.00557 0.16172 0.0
H926 H 0.80943 0.93582 0.2698 0.0
H927 H 0.83823 0.92617 0.2116 0.0
Li928 Li 0.25093 0.14148 0.52318 0.0
Li929 Li 0.23568 0.11475 0.49977 0.0
Li930 Li 0.27208 0.11562 0.50674 0.0
Li931 Li 0.25732 0.14065 0.48484 0.0
C932 C 0.2555 0.09431 0.5362 0.0
N933 N 0.26972 0.05919 0.55426 0.0
C934 C 0.25154 0.07539 0.52734 0.0
C935 C 0.26666 0.09536 0.55426 0.0
C936 C 0.25887 0.05782 0.5367 0.0
C937 C 0.27371 0.07743 0.56315 0.0
C938 C 0.21077 0.14701 0.49914 0.0
C939 C 0.17915 0.1453 0.48065 0.0
N940 N 0.16894 0.15045 0.49787 0.0
C941 C 0.19997 0.15238 0.51663 0.0
C942 C 0.20029 0.14355 0.48096 0.0
C943 C 0.17883 0.15402 0.51568 0.0
C944 C 0.24517 0.17921 0.54266 0.0
N945 N 0.24646 0.15887 0.54609 0.0
C946 C 0.2411 0.16397 0.58173 0.0
C947 C 0.24441 0.15108 0.56513 0.0
C948 C 0.23951 0.18501 0.57861 0.0
C949 C 0.24161 0.19262 0.55878 0.0
H950 H 0.24682 0.18499 0.52736 0.0
H951 H 0.24517 0.13485 0.56743 0.0
C952 C 0.21226 0.08369 0.48061 0.0
N953 N 0.21227 0.09754 0.49596 0.0
C954 C 0.19562 0.07075 0.47773 0.0
C955 C 0.17922 0.08652 0.50652 0.0
C956 C 0.1963 0.09895 0.50901 0.0
C957 C 0.17878 0.072 0.49082 0.0
H958 H 0.22532 0.08245 0.47075 0.0
H959 H 0.19681 0.10975 0.52138 0.0
C960 C 0.29643 0.14811 0.51307 0.0
N961 N 0.33665 0.15308 0.52406 0.0
C962 C 0.3119 0.14263 0.4996 0.0
C963 C 0.3014 0.15624 0.53208 0.0
C964 C 0.33215 0.1452 0.50547 0.0
C965 C 0.32183 0.15862 0.53735 0.0
C966 C 0.26185 0.11051 0.46001 0.0
C967 C 0.28159 0.108 0.45257 0.0
C968 C 0.2458 0.11337 0.44638 0.0
C969 C 0.28494 0.10847 0.4316 0.0
C970 C 0.24978 0.11379 0.42553 0.0
N971 N 0.2691 0.11135 0.41863 0.0
C972 C 0.29729 0.08146 0.49927 0.0
C973 C 0.3081 0.10109 0.52745 0.0
C974 C 0.31321 0.06775 0.50228 0.0
N975 N 0.29514 0.09791 0.51162 0.0
C976 C 0.32426 0.08777 0.531 0.0
C977 C 0.32694 0.07079 0.51835 0.0
H978 H 0.28648 0.07884 0.48717 0.0
H979 H 0.30573 0.11377 0.5376 0.0
C980 C 0.24534 0.17027 0.45563 0.0
N981 N 0.26105 0.15827 0.46164 0.0
C982 C 0.24742 0.18318 0.43886 0.0
C983 C 0.28188 0.17137 0.43479 0.0
C984 C 0.27919 0.15883 0.45173 0.0
C985 C 0.26583 0.18371 0.42805 0.0
H986 H 0.23122 0.16999 0.46398 0.0
H987 H 0.29159 0.14945 0.45688 0.0
O988 O 0.24904 0.11171 0.52685 0.0
O989 O 0.23146 0.14515 0.49982 0.0
O990 O 0.27651 0.14574 0.50767 0.0
O991 O 0.25828 0.11045 0.48051 0.0
H992 H 0.24317 0.07431 0.51323 0.0
H993 H 0.27024 0.10987 0.56111 0.0
H994 H 0.25602 0.04309 0.52995 0.0
H995 H 0.28249 0.07802 0.57705 0.0
H996 H 0.17085 0.14255 0.46671 0.0
H997 H 0.20778 0.15507 0.53085 0.0
H998 H 0.20839 0.13943 0.46728 0.0
H999 H 0.17028 0.15807 0.52912 0.0
H1000 H 0.23945 0.15755 0.5968 0.0
H1001 H 0.24068 0.20878 0.55581 0.0
H1002 H 0.19606 0.05965 0.46558 0.0
H1003 H 0.16646 0.08837 0.51673 0.0
H1004 H 0.30834 0.13605 0.48497 0.0
H1005 H 0.28961 0.1606 0.54267 0.0
H1006 H 0.34428 0.14086 0.49527 0.0
H1007 H 0.32591 0.16484 0.55203 0.0
H1008 H 0.29425 0.10608 0.46286 0.0
H1009 H 0.23046 0.11537 0.45185 0.0
H1010 H 0.30014 0.10667 0.42565 0.0
H1011 H 0.23752 0.11609 0.41483 0.0
H1012 H 0.31482 0.05496 0.49203 0.0
H1013 H 0.33434 0.09053 0.54373 0.0
H1014 H 0.23483 0.19286 0.43462 0.0
H1015 H 0.29634 0.17129 0.42695 0.0
Li1016 Li 0.39102 0.49854 0.77133 0.0
Li1017 Li 0.3642 0.52196 0.75592 0.0
Li1018 Li 0.36524 0.48349 0.74924 0.0
Li1019 Li 0.39045 0.50575 0.73503 0.0
C1020 C 0.35798 0.49682 0.79579 0.0
N1021 N 0.35318 0.49371 0.83741 0.0
C1022 C 0.35191 0.51371 0.80714 0.0
C1023 C 0.36137 0.47828 0.80558 0.0
C1024 C 0.34962 0.51185 0.82817 0.0
C1025 C 0.35894 0.47704 0.82665 0.0
C1026 C 0.4089 0.53776 0.75088 0.0
C1027 C 0.41984 0.56792 0.73321 0.0
N1028 N 0.43946 0.56169 0.73494 0.0
C1029 C 0.42916 0.53169 0.75262 0.0
C1030 C 0.40415 0.55604 0.7412 0.0
C1031 C 0.4444 0.54399 0.7444 0.0
C1032 C 0.42322 0.48074 0.79408 0.0
N1033 N 0.40827 0.49498 0.79472 0.0
C1034 C 0.41853 0.50491 0.82825 0.0
C1035 C 0.40593 0.50717 0.81126 0.0
C1036 C 0.43411 0.49031 0.82804 0.0
C1037 C 0.43629 0.47809 0.81064 0.0
H1038 H 0.42518 0.47158 0.78058 0.0
H1039 H 0.3943 0.51875 0.81127 0.0
C1040 C 0.32792 0.54499 0.75296 0.0
N1041 N 0.34719 0.54509 0.76044 0.0
C1042 C 0.31518 0.56171 0.75599 0.0
C1043 C 0.34211 0.5781 0.77485 0.0
C1044 C 0.35442 0.56116 0.77126 0.0
C1045 C 0.32223 0.57865 0.76699 0.0
H1046 H 0.32251 0.53194 0.74453 0.0
H1047 H 0.36971 0.56071 0.77729 0.0
C1048 C 0.39636 0.45888 0.74559 0.0
N1049 N 0.39773 0.41734 0.73948 0.0
C1050 C 0.3994 0.45102 0.72607 0.0
C1051 C 0.39416 0.44558 0.76201 0.0
C1052 C 0.40003 0.42998 0.72329 0.0
C1053 C 0.39485 0.42464 0.75861 0.0
C1054 C 0.35885 0.51059 0.70976 0.0
C1055 C 0.36489 0.49609 0.69546 0.0
C1056 C 0.35124 0.52928 0.70316 0.0
C1057 C 0.3633 0.50057 0.67476 0.0
C1058 C 0.34984 0.53316 0.68232 0.0
N1059 N 0.35586 0.51885 0.66867 0.0
C1060 C 0.3341 0.45567 0.76046 0.0
C1061 C 0.34814 0.44911 0.72798 0.0
C1062 C 0.32066 0.43931 0.75833 0.0
N1063 N 0.34756 0.46025 0.74543 0.0
C1064 C 0.33509 0.43252 0.72529 0.0
C1065 C 0.321 0.42754 0.74051 0.0
H1066 H 0.33365 0.46483 0.77407 0.0
H1067 H 0.35863 0.4531 0.71605 0.0
C1068 C 0.42458 0.49822 0.70971 0.0
N1069 N 0.4084 0.51083 0.71214 0.0
C1070 C 0.43792 0.50081 0.69337 0.0
C1071 C 0.41836 0.52992 0.68274 0.0
C1072 C 0.40539 0.52677 0.69929 0.0
C1073 C 0.43472 0.51665 0.67943 0.0
H1074 H 0.42722 0.48618 0.72055 0.0
H1075 H 0.39293 0.5371 0.70187 0.0
O1076 O 0.36051 0.49841 0.7752 0.0
O1077 O 0.39375 0.52566 0.75832 0.0
O1078 O 0.39547 0.47944 0.74861 0.0
O1079 O 0.36034 0.50653 0.7301 0.0
H1080 H 0.34911 0.52814 0.79982 0.0
H1081 H 0.36584 0.465 0.79703 0.0
H1082 H 0.34503 0.52483 0.83716 0.0
H1083 H 0.36162 0.46282 0.83443 0.0
H1084 H 0.41641 0.58205 0.72556 0.0
H1085 H 0.43302 0.51752 0.76002 0.0
H1086 H 0.38851 0.56084 0.73963 0.0
H1087 H 0.46015 0.53944 0.7455 0.0
H1088 H 0.41599 0.51442 0.84143 0.0
H1089 H 0.44822 0.4668 0.80971 0.0
H1090 H 0.3 0.56146 0.74962 0.0
H1091 H 0.34802 0.59051 0.78392 0.0
H1092 H 0.40094 0.46103 0.71312 0.0
H1093 H 0.39194 0.45137 0.77722 0.0
H1094 H 0.40224 0.42371 0.70825 0.0
H1095 H 0.39309 0.41419 0.77118 0.0
H1096 H 0.37115 0.48173 0.70028 0.0
H1097 H 0.34666 0.54076 0.71398 0.0
H1098 H 0.36807 0.48954 0.66354 0.0
H1099 H 0.34403 0.54758 0.677 0.0
H1100 H 0.31018 0.43584 0.77053 0.0
H1101 H 0.33574 0.42391 0.71126 0.0
H1102 H 0.45074 0.49063 0.69179 0.0
H1103 H 0.41547 0.54246 0.67249 0.0
Li1104 Li 0.77142 0.39088 0.5002 0.0
Li1105 Li 0.7575 0.36578 0.52263 0.0
Li1106 Li 0.75025 0.36454 0.48436 0.0
Li1107 Li 0.73537 0.39137 0.50804 0.0
C1108 C 0.7965 0.35923 0.49468 0.0
N1109 N 0.83727 0.35601 0.48519 0.0
C1110 C 0.81125 0.36541 0.50867 0.0
C1111 C 0.80248 0.35137 0.47587 0.0
C1112 C 0.83178 0.3637 0.50358 0.0
C1113 C 0.82317 0.34985 0.47136 0.0
C1114 C 0.76248 0.3963 0.54718 0.0
C1115 C 0.75144 0.39315 0.58202 0.0
N1116 N 0.77085 0.3963 0.58838 0.0
C1117 C 0.78232 0.39955 0.55408 0.0
C1118 C 0.7469 0.39314 0.56127 0.0
C1119 C 0.78624 0.3995 0.57496 0.0
C1120 C 0.79637 0.42548 0.50679 0.0
N1121 N 0.79406 0.40896 0.49455 0.0
C1122 C 0.82282 0.41917 0.47467 0.0
C1123 C 0.80669 0.40584 0.47847 0.0
C1124 C 0.82577 0.43614 0.48729 0.0
C1125 C 0.81226 0.43922 0.50352 0.0
H1126 H 0.78578 0.42808 0.51906 0.0
H1127 H 0.80417 0.39311 0.46842 0.0
C1128 C 0.74627 0.33556 0.55137 0.0
N1129 N 0.76167 0.34821 0.54583 0.0
C1130 C 0.74855 0.32235 0.56787 0.0
C1131 C 0.78249 0.33541 0.57284 0.0
C1132 C 0.77962 0.34823 0.55613 0.0
C1133 C 0.76688 0.32213 0.57879 0.0
H1134 H 0.73221 0.33559 0.54289 0.0
H1135 H 0.79178 0.35815 0.55142 0.0
C1136 C 0.75481 0.40962 0.46883 0.0
N1137 N 0.77 0.44101 0.44549 0.0
C1138 C 0.75288 0.42971 0.47545 0.0
C1139 C 0.7643 0.40547 0.45029 0.0
C1140 C 0.76072 0.44537 0.46345 0.0
C1141 C 0.7719 0.42157 0.43871 0.0
C1142 C 0.71056 0.35932 0.50948 0.0
C1143 C 0.69917 0.35408 0.49232 0.0
C1144 C 0.70068 0.36306 0.52791 0.0
C1145 C 0.67802 0.35295 0.49382 0.0
C1146 C 0.67951 0.36182 0.52879 0.0
N1147 N 0.66871 0.35684 0.51186 0.0
C1148 C 0.75244 0.32784 0.46196 0.0
C1149 C 0.73516 0.35447 0.44499 0.0
C1150 C 0.74919 0.31477 0.44549 0.0
N1151 N 0.74552 0.34729 0.46137 0.0
C1152 C 0.73135 0.34183 0.42829 0.0
C1153 C 0.73839 0.32169 0.42844 0.0
H1154 H 0.76054 0.3225 0.47523 0.0
H1155 H 0.72975 0.36999 0.44495 0.0
C1156 C 0.71209 0.42206 0.52774 0.0
N1157 N 0.71208 0.40859 0.51205 0.0
C1158 C 0.69542 0.43482 0.53097 0.0
C1159 C 0.67913 0.41994 0.5016 0.0
C1160 C 0.69619 0.40757 0.49885 0.0
C1161 C 0.67856 0.43371 0.51793 0.0
H1162 H 0.72512 0.42305 0.5377 0.0
H1163 H 0.69678 0.3972 0.48611 0.0
O1164 O 0.7763 0.3608 0.49936 0.0
O1165 O 0.75835 0.39602 0.52677 0.0
O1166 O 0.74781 0.39407 0.48067 0.0
O1167 O 0.73127 0.36087 0.50822 0.0
H1168 H 0.80692 0.37188 0.52312 0.0
H1169 H 0.7913 0.34666 0.46477 0.0
H1170 H 0.84335 0.36858 0.51421 0.0
H1171 H 0.82801 0.34385 0.45684 0.0
H1172 H 0.73952 0.39063 0.59306 0.0
H1173 H 0.79466 0.40178 0.54346 0.0
H1174 H 0.73148 0.3906 0.55624 0.0
H1175 H 0.80154 0.40188 0.58049 0.0
H1176 H 0.83272 0.4164 0.46181 0.0
H1177 H 0.81407 0.45201 0.51373 0.0
H1178 H 0.73606 0.31249 0.57212 0.0
H1179 H 0.79689 0.33562 0.5808 0.0
H1180 H 0.74564 0.43311 0.48983 0.0
H1181 H 0.76602 0.38997 0.44506 0.0
H1182 H 0.7595 0.46099 0.46843 0.0
H1183 H 0.77941 0.4186 0.42439 0.0
H1184 H 0.70653 0.35106 0.47796 0.0
H1185 H 0.70924 0.367 0.54138 0.0
H1186 H 0.66901 0.34902 0.48063 0.0
H1187 H 0.67166 0.36482 0.54292 0.0
H1188 H 0.75479 0.29931 0.44619 0.0
H1189 H 0.72314 0.34778 0.41532 0.0
H1190 H 0.69564 0.44534 0.54364 0.0
H1191 H 0.66667 0.41898 0.49089 0.0
Li1192 Li 0.64066 0.98449 0.75697 0.0
Li1193 Li 0.61507 0.00689 0.77302 0.0
Li1194 Li 0.61461 1.0 0.7349 0.0
Li1195 Li 0.6405 0.02257 0.75035 0.0
C1196 C 0.60665 0.9607 0.76105 0.0
N1197 N 0.59913 0.91981 0.7671 0.0
C1198 C 0.60122 0.95357 0.78032 0.0
C1199 C 0.6079 0.94708 0.7448 0.0
C1200 C 0.59757 0.93284 0.78309 0.0
C1201 C 0.60414 0.92645 0.74818 0.0
C1202 C 0.64951 0.01231 0.796 0.0
C1203 C 0.65062 0.03673 0.82335 0.0
N1204 N 0.65777 0.02207 0.83604 0.0
C1205 C 0.65708 0.99755 0.80925 0.0
C1206 C 0.64645 0.03211 0.80304 0.0
C1207 C 0.66108 1.00276 0.82946 0.0
C1208 C 0.67313 0.95758 0.74771 0.0
N1209 N 0.65766 0.96105 0.76096 0.0
C1210 C 0.66673 0.93147 0.78011 0.0
C1211 C 0.65443 0.94851 0.77708 0.0
C1212 C 0.6826 0.92732 0.76646 0.0
C1213 C 0.68582 0.94073 0.75016 0.0
H1214 H 0.67572 0.96797 0.73525 0.0
H1215 H 0.64247 0.95187 0.7878 0.0
C1216 C 0.58149 0.02294 0.79465 0.0
N1217 N 0.59818 0.01092 0.79654 0.0
C1218 C 0.56844 0.02592 0.81116 0.0
C1219 C 0.58993 0.0041 0.83134 0.0
C1220 C 0.60251 1.00149 0.81442 0.0
C1221 C 0.57249 0.01631 0.8298 0.0
H1222 H 0.57816 0.03005 0.78022 0.0
H1223 H 0.61561 0.99169 0.81552 0.0
C1224 C 0.64855 0.9951 0.71105 0.0
N1225 N 0.65593 0.98603 0.67069 0.0
C1226 C 0.65545 0.0102 0.69779 0.0
C1227 C 0.64572 0.97531 0.70384 0.0
C1228 C 0.65902 0.00533 0.67743 0.0
C1229 C 0.64944 0.97105 0.68337 0.0
C1230 C 0.60626 0.04607 0.74663 0.0
C1231 C 0.60053 0.05274 0.72729 0.0
C1232 C 0.60762 0.06003 0.76259 0.0
C1233 C 0.59669 0.07337 0.72414 0.0
C1234 C 0.60368 0.08054 0.75883 0.0
N1235 N 0.59837 0.08674 0.73983 0.0
C1236 C 0.58043 0.98355 0.7147 0.0
C1237 C 0.60085 0.00432 0.69356 0.0
C1238 C 0.56707 0.97968 0.69862 0.0
N1239 N 0.59706 0.99551 0.71189 0.0
C1240 C 0.58791 1.00082 0.67704 0.0
C1241 C 0.57083 0.9882 0.6794 0.0
H1242 H 0.57744 0.9771 0.72951 0.0
H1243 H 0.61381 0.01423 0.69176 0.0
C1244 C 0.67341 0.04917 0.75899 0.0
N1245 N 0.65749 0.04607 0.74616 0.0
C1246 C 0.68619 0.06599 0.75648 0.0
C1247 C 0.66626 0.07598 0.72734 0.0
C1248 C 0.65388 0.05896 0.7304 0.0
C1249 C 0.68261 0.07975 0.74057 0.0
H1250 H 0.6763 0.03852 0.77114 0.0
H1251 H 0.64157 0.05589 0.71998 0.0
O1252 O 0.61046 0.98093 0.7581 0.0
O1253 O 0.64533 0.00743 0.77621 0.0
O1254 O 0.64482 0.99963 0.731 0.0
O1255 O 0.61023 0.02594 0.74995 0.0
H1256 H 0.6 0.96391 0.79303 0.0
H1257 H 0.6116 0.95237 0.7297 0.0
H1258 H 0.59352 0.9271 0.79796 0.0
H1259 H 0.60515 0.91574 0.73574 0.0
H1260 H 0.64823 0.05197 0.82901 0.0
H1261 H 0.65975 0.98221 0.80403 0.0
H1262 H 0.64101 0.0438 0.7929 0.0
H1263 H 0.66682 0.99145 0.83991 0.0
H1264 H 0.66406 0.92185 0.79319 0.0
H1265 H 0.69795 0.93814 0.73935 0.0
H1266 H 0.5551 0.03535 0.80927 0.0
H1267 H 0.59386 0.9967 0.8455 0.0
H1268 H 0.65793 0.02554 0.70314 0.0
H1269 H 0.64081 0.96336 0.71396 0.0
H1270 H 0.66424 0.01691 0.66698 0.0
H1271 H 0.64722 0.95581 0.67758 0.0
H1272 H 0.59922 0.04213 0.71481 0.0
H1273 H 0.61155 0.05508 0.77774 0.0
H1274 H 0.59241 0.07876 0.70921 0.0
H1275 H 0.60477 0.09152 0.77103 0.0
H1276 H 0.55377 0.97036 0.70129 0.0
H1277 H 0.59131 0.0078 0.66252 0.0
H1278 H 0.69869 0.06828 0.76696 0.0
H1279 H 0.66328 0.08588 0.71454 0.0
Li1280 Li 0.02049 0.25636 0.86606 0.0
Li1281 Li 0.99969 0.27157 0.89242 0.0
Li1282 Li 0.0054 0.23499 0.89209 0.0
Li1283 Li 0.98392 0.25055 0.86639 0.0
C1284 C 0.04092 0.27064 0.90037 0.0
N1285 N 0.07119 0.29834 0.90948 0.0
C1286 C 0.04305 0.28833 0.8888 0.0
C1287 C 0.05421 0.26701 0.91653 0.0
C1288 C 0.05844 0.30215 0.89366 0.0
C1289 C 0.06941 0.28121 0.9209 0.0
C1290 C 0.98476 0.29172 0.85812 0.0
C1291 C 0.9536 0.30956 0.86538 0.0
N1292 N 0.95698 0.32186 0.84911 0.0
C1293 C 0.98794 0.30456 0.8415 0.0
C1294 C 0.96747 0.29425 0.87019 0.0
C1295 C 0.97371 0.3197 0.83719 0.0
C1296 C 0.03997 0.2687 0.82986 0.0
N1297 N 0.04345 0.26017 0.84835 0.0
C1298 C 0.07896 0.25736 0.84092 0.0
C1299 C 0.06251 0.25461 0.85411 0.0
C1300 C 0.07581 0.266 0.82163 0.0
C1301 C 0.05599 0.27191 0.81628 0.0
H1302 H 0.0247 0.27307 0.82569 0.0
H1303 H 0.06498 0.248 0.86895 0.0
C1304 C 0.98863 0.29102 0.92901 0.0
N1305 N 0.99614 0.29459 0.9101 0.0
C1306 C 0.98512 0.30714 0.94242 0.0
C1307 C 0.99749 0.33035 0.9168 0.0
C1308 C 1.0007 0.31378 0.90385 0.0
C1309 C 0.98939 0.32714 0.93629 0.0
H1310 H 0.9853 0.2756 0.93366 0.0
H1311 H 0.00665 0.31629 0.88874 0.0
C1312 C 0.0194 0.21525 0.85724 0.0
N1313 N 0.04688 0.18513 0.84728 0.0
C1314 C 0.01576 0.20254 0.8406 0.0
C1315 C 0.037 0.2126 0.86885 0.0
C1316 C 0.02984 0.18741 0.8358 0.0
C1317 C 0.05071 0.1973 0.86356 0.0
C1318 C 0.96435 0.23598 0.90123 0.0
C1319 C 0.96134 0.21863 0.88933 0.0
C1320 C 0.95196 0.23939 0.91813 0.0
C1321 C 0.94599 0.20492 0.89458 0.0
C1322 C 0.93677 0.22531 0.92289 0.0
N1323 N 0.93413 0.20851 0.91112 0.0
C1324 C 0.01802 0.21442 0.92774 0.0
C1325 C 0.00338 0.19278 0.90293 0.0
C1326 C 0.02145 0.19788 0.94065 0.0
N1327 N 0.00922 0.2116 0.90924 0.0
C1328 C 0.00635 0.17585 0.91543 0.0
C1329 C 0.01571 0.17822 0.93451 0.0
H1330 H 0.02248 0.22954 0.93242 0.0
H1331 H 0.99642 0.19087 0.88816 0.0
C1332 C 0.96327 0.23849 0.83061 0.0
N1333 N 0.96047 0.24692 0.84927 0.0
C1334 C 0.9467 0.23514 0.81768 0.0
C1335 C 0.92469 0.24959 0.84323 0.0
C1336 C 0.94165 0.25248 0.85574 0.0
C1337 C 0.92704 0.24059 0.82398 0.0
H1338 H 0.97839 0.23427 0.8258 0.0
H1339 H 0.93975 0.25914 0.87064 0.0
O1340 O 0.02599 0.25681 0.89596 0.0
O1341 O 0.99862 0.27687 0.86249 0.0
O1342 O 0.00568 0.23008 0.8621 0.0
O1343 O 0.97921 0.24972 0.8964 0.0
H1344 H 0.03301 0.29138 0.87618 0.0
H1345 H 0.05281 0.25336 0.92559 0.0
H1346 H 0.06025 0.31591 0.88484 0.0
H1347 H 0.0798 0.2786 0.93338 0.0
H1348 H 0.94015 0.31167 0.87459 0.0
H1349 H 1.00129 0.30287 0.83205 0.0
H1350 H 0.96476 0.28456 0.88317 0.0
H1351 H 0.97599 0.32973 0.82436 0.0
H1352 H 0.09396 0.25259 0.84569 0.0
H1353 H 0.0529 0.27915 0.80183 0.0
H1354 H 0.97926 0.30397 0.95747 0.0
H1355 H 1.00098 0.34554 0.9115 0.0
H1356 H 1.00218 0.20433 0.8315 0.0
H1357 H 0.04007 0.2222 0.88183 0.0
H1358 H 0.02722 0.17748 0.82295 0.0
H1359 H 0.06438 0.1951 0.87241 0.0
H1360 H 0.97069 0.21576 0.87613 0.0
H1361 H 0.95403 0.25279 0.92746 0.0
H1362 H 0.94351 0.19143 0.8855 0.0
H1363 H 0.92708 0.22775 0.93594 0.0
H1364 H 0.02873 0.20042 0.9552 0.0
H1365 H 1.00118 0.1611 0.91025 0.0
H1366 H 0.94923 0.22814 0.803 0.0
H1367 H 0.90994 0.25453 0.84854 0.0
Li1368 Li 0.52298 0.75582 0.36597 0.0
Li1369 Li 0.50189 0.77232 0.39091 0.0
Li1370 Li 0.50861 0.73384 0.39245 0.0
Li1371 Li 0.48643 0.75034 0.36524 0.0
C1372 C 0.54786 0.76161 0.39794 0.0
N1373 N 0.58877 0.77044 0.40142 0.0
C1374 C 0.55538 0.7803 0.39123 0.0
C1375 C 0.56114 0.74741 0.40647 0.0
C1376 C 0.57612 0.78447 0.39308 0.0
C1377 C 0.58177 0.75217 0.4081 0.0
C1378 C 0.49707 0.79621 0.35881 0.0
C1379 C 0.47306 0.82386 0.3599 0.0
N1380 N 0.48827 0.83713 0.35542 0.0
C1381 C 0.51245 0.81013 0.35415 0.0
C1382 C 0.4772 0.80312 0.36163 0.0
C1383 C 0.50769 0.83075 0.35251 0.0
C1384 C 0.54445 0.77042 0.33141 0.0
N1385 N 0.54641 0.75859 0.34825 0.0
C1386 C 0.58098 0.75125 0.33953 0.0
C1387 C 0.56411 0.74865 0.35219 0.0
C1388 C 0.57963 0.76409 0.32252 0.0
C1389 C 0.56094 0.77346 0.31835 0.0
H1390 H 0.53004 0.77753 0.3281 0.0
H1391 H 0.56516 0.7386 0.36511 0.0
C1392 C 0.48312 0.79429 0.42301 0.0
N1393 N 0.49755 0.79566 0.40826 0.0
C1394 C 0.47962 0.81058 0.43624 0.0
C1395 C 0.50576 0.82954 0.41884 0.0
C1396 C 0.50891 0.81282 0.40612 0.0
C1397 C 0.49112 0.8285 0.43435 0.0
H1398 H 0.47446 0.78043 0.4247 0.0
H1399 H 0.52047 0.81364 0.39457 0.0
C1400 C 0.51961 0.71984 0.34862 0.0
N1401 N 0.5441 0.70181 0.31974 0.0
C1402 C 0.51655 0.72391 0.328 0.0
C1403 C 0.535 0.70651 0.35458 0.0
C1404 C 0.52914 0.71468 0.31362 0.0
C1405 C 0.54724 0.69755 0.33973 0.0
C1406 C 0.4625 0.74435 0.39815 0.0
C1407 C 0.45714 0.72441 0.40315 0.0
C1408 C 0.44733 0.75898 0.39569 0.0
C1409 C 0.43663 0.71936 0.40528 0.0
C1410 C 0.42698 0.75332 0.39793 0.0
N1411 N 0.4221 0.73379 0.40262 0.0
C1412 C 0.51998 0.71355 0.42879 0.0
C1413 C 0.50699 0.69197 0.40303 0.0
C1414 C 0.52309 0.69691 0.44166 0.0
N1415 N 0.51225 0.71078 0.40982 0.0
C1416 C 0.50963 0.67494 0.41548 0.0
C1417 C 0.51804 0.67722 0.43502 0.0
H1418 H 0.52388 0.7287 0.43388 0.0
H1419 H 0.50063 0.69023 0.38796 0.0
C1420 C 0.45897 0.75972 0.33327 0.0
N1421 N 0.4633 0.74575 0.34788 0.0
C1422 C 0.44255 0.7568 0.3201 0.0
C1423 C 0.43542 0.72498 0.33694 0.0
C1424 C 0.45207 0.72847 0.34974 0.0
C1425 C 0.43056 0.73921 0.32179 0.0
H1426 H 0.46839 0.77307 0.33167 0.0
H1427 H 0.45615 0.71727 0.36102 0.0
O1428 O 0.52763 0.75717 0.3961 0.0
O1429 O 0.50142 0.77594 0.36061 0.0
O1430 O 0.50782 0.72915 0.36293 0.0
O1431 O 0.4825 0.74952 0.39576 0.0
H1432 H 0.54541 0.79128 0.38425 0.0
H1433 H 0.55563 0.73278 0.41158 0.0
H1434 H 0.58216 0.79882 0.3878 0.0
H1435 H 0.59224 0.7413 0.41461 0.0
H1436 H 0.45775 0.8294 0.3621 0.0
H1437 H 0.52797 0.80517 0.35216 0.0
H1438 H 0.46509 0.79258 0.3651 0.0
H1439 H 0.51947 0.84169 0.34904 0.0
H1440 H 0.59488 0.74316 0.34293 0.0
H1441 H 0.55915 0.78328 0.30526 0.0
H1442 H 0.46825 0.80905 0.44805 0.0
H1443 H 0.51466 0.84318 0.41647 0.0
H1444 H 0.50472 0.73427 0.32319 0.0
H1445 H 0.53763 0.70334 0.37051 0.0
H1446 H 0.52706 0.71778 0.29761 0.0
H1447 H 0.5593 0.6873 0.34411 0.0
H1448 H 0.46868 0.71292 0.4052 0.0
H1449 H 0.4512 0.77454 0.39215 0.0
H1450 H 0.43226 0.70395 0.40902 0.0
H1451 H 0.41508 0.76447 0.39598 0.0
H1452 H 0.52962 0.69941 0.45657 0.0
H1453 H 0.5049 0.66018 0.40991 0.0
H1454 H 0.43921 0.76824 0.30876 0.0
H1455 H 0.42668 0.71112 0.3386 0.0
Li1456 Li 0.00677 0.77155 0.61594 0.0
Li1457 Li 0.98389 0.7563 0.64162 0.0
Li1458 Li 0.0219 0.74935 0.64185 0.0
Li1459 Li 0.99953 0.73351 0.61601 0.0
C1460 C 0.01093 0.79558 0.6494 0.0
N1461 N 0.01868 0.83641 0.65556 0.0
C1462 C 0.99546 0.80848 0.65609 0.0
C1463 C 0.03041 0.80339 0.64613 0.0
C1464 C 0.99967 0.82909 0.65905 0.0
C1465 C 0.03401 0.82409 0.64924 0.0
C1466 C 0.96067 0.75923 0.60643 0.0
C1467 C 0.92694 0.74552 0.60209 0.0
N1468 N 0.92018 0.76422 0.59649 0.0
C1469 C 0.95346 0.77825 0.60037 0.0
C1470 C 0.94737 0.74267 0.60707 0.0
C1471 C 0.93291 0.78049 0.59551 0.0
C1472 C 0.02448 0.79244 0.58276 0.0
N1473 N 0.0114 0.79468 0.5986 0.0
C1474 C 0.00509 0.82924 0.58911 0.0
C1475 C 1.00157 0.81257 0.60182 0.0
C1476 C 0.01876 0.82747 0.5728 0.0
C1477 C 0.02836 0.80868 0.5696 0.0
H1478 H 0.03177 0.77796 0.5802 0.0
H1479 H 0.99087 0.81391 0.61419 0.0
C1480 C 0.95773 0.74866 0.67511 0.0
N1481 N 0.96035 0.76066 0.65848 0.0
C1482 C 0.94088 0.75131 0.6878 0.0
C1483 C 0.92992 0.77897 0.66635 0.0
C1484 C 0.94696 0.77577 0.65407 0.0
C1485 C 0.92662 0.76655 0.68341 0.0
H1486 H 0.96878 0.73705 0.67862 0.0
H1487 H 0.94968 0.78561 0.64124 0.0
C1488 C 0.04583 0.74426 0.60867 0.0
N1489 N 0.08661 0.73606 0.60307 0.0
C1490 C 0.05212 0.72468 0.60342 0.0
C1491 C 0.06024 0.75974 0.61074 0.0
C1492 C 0.07282 0.72081 0.60073 0.0
C1493 C 0.08079 0.75527 0.60795 0.0
C1494 C 0.99277 0.71094 0.65105 0.0
C1495 C 0.00679 0.69708 0.65892 0.0
C1496 C 0.97255 0.70501 0.64835 0.0
C1497 C 1.00041 0.67737 0.66358 0.0
C1498 C 0.96676 0.68517 0.6532 0.0
N1499 N 0.9807 0.67186 0.66062 0.0
C1500 C 0.04956 0.75886 0.67374 0.0
C1501 C 0.05692 0.72817 0.65646 0.0
C1502 C 0.06637 0.75618 0.68648 0.0
N1503 N 0.04524 0.74503 0.65897 0.0
C1504 C 0.07392 0.72492 0.6688 0.0
C1505 C 0.07889 0.7391 0.684 0.0
H1506 H 0.03988 0.77196 0.67573 0.0
H1507 H 0.05294 0.71709 0.645 0.0
C1508 C 0.98448 0.71256 0.58146 0.0
N1509 N 0.99527 0.71011 0.59893 0.0
C1510 C 0.98136 0.69614 0.56829 0.0
C1511 C 1.00061 0.67495 0.59122 0.0
C1512 C 0.00338 0.69178 0.60392 0.0
C1513 C 0.98961 0.67704 0.57303 0.0
H1514 H 0.97845 0.72734 0.57762 0.0
H1515 H 0.01228 0.69023 0.61762 0.0
O1516 O 0.00704 0.77539 0.64623 0.0
O1517 O 0.98073 0.7568 0.61135 0.0
O1518 O 0.02565 0.74828 0.61161 0.0
O1519 O 0.9988 0.73026 0.64625 0.0
H1520 H 0.98035 0.80267 0.65889 0.0
H1521 H 0.04262 0.79358 0.64129 0.0
H1522 H 0.98781 0.83926 0.66411 0.0
H1523 H 0.049 0.83035 0.64667 0.0
H1524 H 0.91647 0.73284 0.6026 0.0
H1525 H 0.96356 0.79119 0.59959 0.0
H1526 H 0.95278 0.72774 0.61117 0.0
H1527 H 0.92709 0.79517 0.59096 0.0
H1528 H 0.99728 0.84341 0.59207 0.0
H1529 H 0.03853 0.80642 0.55686 0.0
H1530 H 0.93898 0.74146 0.70085 0.0
H1531 H 0.91965 0.79129 0.66275 0.0
H1532 H 0.04118 0.71255 0.60159 0.0
H1533 H 0.05561 0.77505 0.61441 0.0
H1534 H 0.07791 0.70569 0.59681 0.0
H1535 H 0.09211 0.76709 0.60961 0.0
H1536 H 0.02244 0.70145 0.66132 0.0
H1537 H 0.96142 0.71567 0.64276 0.0
H1538 H 0.01112 0.66645 0.66956 0.0
H1539 H 0.95117 0.68037 0.65112 0.0
H1540 H 0.06963 0.76743 0.69806 0.0
H1541 H 0.08287 0.71128 0.66671 0.0
H1542 H 0.9729 0.69844 0.55436 0.0
H1543 H 0.00696 0.66044 0.59564 0.0
Li1544 Li 0.50589 0.27317 0.11545 0.0
Li1545 Li 0.48369 0.25713 0.1413 0.0
Li1546 Li 0.52177 0.25048 0.14101 0.0
Li1547 Li 0.49894 0.2351 0.11537 0.0
C1548 C 0.51193 0.29596 0.15048 0.0
N1549 N 0.52244 0.33552 0.16001 0.0
C1550 C 0.49725 0.30944 0.15778 0.0
C1551 C 0.53202 0.30252 0.14835 0.0
C1552 C 0.50284 0.3294 0.16243 0.0
C1553 C 0.53702 0.32259 0.15316 0.0
C1554 C 0.45971 0.26241 0.10811 0.0
C1555 C 0.42461 0.25182 0.10768 0.0
N1556 N 0.41902 0.27098 0.10236 0.0
C1557 C 0.45364 0.28195 0.10243 0.0
C1558 C 0.44511 0.24717 0.11056 0.0
C1559 C 0.43299 0.286 0.09967 0.0
C1560 C 0.52096 0.29381 0.08088 0.0
N1561 N 0.51013 0.29652 0.09827 0.0
C1562 C 0.50533 0.33172 0.09032 0.0
C1563 C 0.50214 0.31498 0.10304 0.0
C1564 C 0.51681 0.32945 0.07246 0.0
C1565 C 0.52453 0.31012 0.06772 0.0
H1566 H 0.52674 0.27891 0.07712 0.0
H1567 H 0.49306 0.31672 0.11659 0.0
C1568 C 0.45694 0.24735 0.17368 0.0
N1569 N 0.4604 0.26105 0.1586 0.0
C1570 C 0.44026 0.24956 0.18666 0.0
C1571 C 0.4311 0.28015 0.16861 0.0
C1572 C 0.44798 0.27736 0.156 0.0
C1573 C 0.42698 0.26606 0.18412 0.0
H1574 H 0.46725 0.23476 0.17579 0.0
H1575 H 0.45123 0.28831 0.14422 0.0
C1576 C 0.54508 0.24836 0.10606 0.0
N1577 N 0.58586 0.24494 0.09667 0.0
C1578 C 0.55302 0.22973 0.09969 0.0
C1579 C 0.55781 0.26533 0.10728 0.0
C1580 C 0.5737 0.22828 0.09512 0.0
C1581 C 0.57839 0.26328 0.10257 0.0
C1582 C 0.49493 0.21094 0.14838 0.0
C1583 C 0.51051 0.19787 0.15444 0.0
C1584 C 0.47537 0.20323 0.14533 0.0
C1585 C 0.50633 0.1772 0.15698 0.0
C1586 C 0.4718 0.18248 0.14801 0.0
N1587 N 0.48723 0.16999 0.1537 0.0
C1588 C 0.54811 0.25836 0.17436 0.0
C1589 C 0.55876 0.23112 0.15341 0.0
C1590 C 0.56499 0.25575 0.18701 0.0
N1591 N 0.5454 0.24626 0.15779 0.0
C1592 C 0.57583 0.22794 0.16568 0.0
C1593 C 0.57921 0.24045 0.18268 0.0
H1594 H 0.53709 0.27001 0.17784 0.0
H1595 H 0.556 0.22123 0.1406 0.0
C1596 C 0.48061 0.21353 0.08287 0.0
N1597 N 0.49457 0.21192 0.09803 0.0
C1598 C 0.47718 0.1973 0.06956 0.0
C1599 C 0.50255 0.17795 0.08764 0.0
C1600 C 0.50552 0.19458 0.10058 0.0
C1601 C 0.48834 0.17926 0.07175 0.0
H1602 H 0.47222 0.22751 0.08097 0.0
H1603 H 0.51678 0.19371 0.1125 0.0
O1604 O 0.50668 0.27639 0.14572 0.0
O1605 O 0.47985 0.25821 0.11105 0.0
O1606 O 0.52489 0.25001 0.11076 0.0
O1607 O 0.49879 0.23119 0.14561 0.0
H1608 H 0.48168 0.30459 0.15974 0.0
H1609 H 0.54367 0.29218 0.14324 0.0
H1610 H 0.4916 0.34002 0.16796 0.0
H1611 H 0.5525 0.32787 0.15151 0.0
H1612 H 0.41315 0.24018 0.10963 0.0
H1613 H 0.46472 0.29388 0.1003 0.0
H1614 H 0.44955 0.2319 0.11458 0.0
H1615 H 0.42807 0.30108 0.0954 0.0
H1616 H 0.49899 0.34632 0.09446 0.0
H1617 H 0.53297 0.30755 0.05383 0.0
H1618 H 0.43797 0.23864 0.19876 0.0
H1619 H 0.42131 0.29313 0.16617 0.0
H1620 H 0.54338 0.21648 0.09845 0.0
H1621 H 0.55183 0.27997 0.11164 0.0
H1622 H 0.58008 0.21391 0.09033 0.0
H1623 H 0.58842 0.27629 0.10353 0.0
H1624 H 0.52569 0.20359 0.15707 0.0
H1625 H 0.46308 0.21317 0.14099 0.0
H1626 H 0.51828 0.16689 0.16155 0.0
H1627 H 0.45675 0.1763 0.14559 0.0
H1628 H 0.56696 0.26568 0.20001 0.0
H1629 H 0.58606 0.21557 0.1621 0.0
H1630 H 0.46583 0.19883 0.05773 0.0
H1631 H 0.51155 0.16436 0.08979 0.0
C1632 C 0.248 0.78921 0.8824 0.0
C1633 C 0.22851 0.78198 0.87724 0.0
C1634 C 0.25096 0.8023 0.89902 0.0
C1635 C 0.23455 0.80873 0.91113 0.0
H1636 H 0.26106 0.7849 0.87336 0.0
H1637 H 0.2662 0.80762 0.90228 0.0
S1638 S 0.18076 0.79281 0.90522 0.0
N1639 N 0.19272 0.78131 0.88639 0.0
N1640 N 0.19829 0.80596 0.9175 0.0
C1641 C 0.21503 0.80141 0.90632 0.0
C1642 C 0.21202 0.78805 0.88943 0.0
C1643 C 0.05125 0.5265 0.38145 0.0
C1644 C 0.03006 0.52693 0.37856 0.0
C1645 C 0.06459 0.52343 0.36507 0.0
C1646 C 0.05726 0.52092 0.34511 0.0
H1647 H 0.05758 0.52834 0.39655 0.0
H1648 H 0.08078 0.52326 0.36802 0.0
S1649 S 0.00311 0.52089 0.32935 0.0
N1650 N 1.0024 0.52478 0.35414 0.0
N1651 N 0.0274 0.51877 0.32344 0.0
C1652 C 0.03611 0.52134 0.34201 0.0
C1653 C 0.02254 0.52437 0.35869 0.0
C1654 C 0.75788 0.71738 0.88116 0.0
C1655 C 0.77705 0.72615 0.87745 0.0
C1656 C 0.75471 0.70428 0.89771 0.0
C1657 C 0.77051 0.69963 0.91136 0.0
H1658 H 0.74527 0.72048 0.87104 0.0
H1659 H 0.73969 0.69791 0.89997 0.0
S1660 S 0.82352 0.71873 0.90854 0.0
N1661 N 0.81201 0.72942 0.88897 0.0
N1662 N 0.80611 0.70466 0.9199 0.0
C1663 C 0.78974 0.70834 0.90786 0.0
C1664 C 0.793 0.72159 0.89095 0.0
C1665 C 0.97054 0.99768 0.37355 0.0
C1666 C 0.97518 0.97795 0.38039 0.0
C1667 C 0.95721 1.00089 0.35719 0.0
C1668 C 0.94798 0.98451 0.34691 0.0
H1669 H 0.97711 0.0108 0.38104 0.0
H1670 H 0.95427 0.01637 0.35244 0.0
S1671 S 0.95511 0.92981 0.35872 0.0
N1672 N 0.96976 0.94173 0.37527 0.0
N1673 N 0.94423 0.94778 0.34503 0.0
C1674 C 0.95248 0.96469 0.35359 0.0
C1675 C 0.96612 0.96141 0.37021 0.0
C1676 C 0.24547 0.21194 0.62951 0.0
C1677 C 0.22895 0.2255 0.62975 0.0
C1678 C 0.24867 0.19876 0.61301 0.0
C1679 C 0.2357 0.19894 0.59599 0.0
H1680 H 0.25584 0.21135 0.64229 0.0
H1681 H 0.26152 0.1885 0.61346 0.0
S1682 S 0.19046 0.23173 0.58904 0.0
N1683 N 0.19956 0.23835 0.6115 0.0
N1684 N 0.20571 0.21376 0.58043 0.0
C1685 C 0.21924 0.21252 0.59599 0.0
C1686 C 0.21582 0.22573 0.61289 0.0
C1687 C 0.46957 0.54169 0.64046 0.0
C1688 C 0.47518 0.52542 0.62774 0.0
C1689 C 0.45647 0.53876 0.65707 0.0
C1690 C 0.44846 0.51944 0.66163 0.0
H1691 H 0.47559 0.55678 0.63774 0.0
H1692 H 0.45282 0.55168 0.6666 0.0
S1693 S 0.45688 0.47221 0.63196 0.0
N1694 N 0.47067 0.48954 0.62014 0.0
N1695 N 0.44611 0.48404 0.65129 0.0
C1696 C 0.45367 0.50312 0.64883 0.0
C1697 C 0.46699 0.5061 0.63192 0.0
C1698 C 0.77974 0.30248 0.6317 0.0
C1699 C 0.7758 0.28148 0.6302 0.0
C1700 C 0.77686 0.3155 0.61504 0.0
C1701 C 0.76983 0.30806 0.59624 0.0
H1702 H 0.78486 0.30897 0.64596 0.0
H1703 H 0.77991 0.33157 0.61695 0.0
S1704 S 0.75899 0.25416 0.58373 0.0
N1705 N 0.76574 0.25373 0.60791 0.0
N1706 N 0.76008 0.27823 0.57675 0.0
C1707 C 0.76608 0.2871 0.59443 0.0
C1708 C 0.76912 0.27382 0.61135 0.0
C1709 C 0.53649 0.99735 0.63363 0.0
C1710 C 0.52968 0.9777 0.62854 0.0
C1711 C 0.54986 1.00058 0.64997 0.0
C1712 C 0.55683 0.98432 0.66199 0.0
H1713 H 0.53164 0.01033 0.62477 0.0
H1714 H 0.55461 0.01599 0.65335 0.0
S1715 S 0.54345 0.92992 0.65514 0.0
N1716 N 0.53069 0.94177 0.63708 0.0
N1717 N 0.5561 0.94779 0.66746 0.0
C1718 C 0.55012 0.9646 0.65708 0.0
C1719 C 0.53653 0.9613 0.64044 0.0
C1720 C 0.8937 0.23904 0.77656 0.0
C1721 C 0.87536 0.23057 0.78363 0.0
C1722 C 0.91027 0.24218 0.78966 0.0
C1723 C 0.90919 0.23704 0.81042 0.0
H1724 H 0.89537 0.2431 0.76069 0.0
H1725 H 0.92399 0.24886 0.78348 0.0
S1726 S 0.86461 0.21447 0.83665 0.0
N1727 N 0.857 0.21748 0.81293 0.0
N1728 N 0.8883 0.22271 0.83734 0.0
C1729 C 0.89094 0.22854 0.8177 0.0
C1730 C 0.87404 0.22542 0.80437 0.0
C1731 C 0.46452 0.86885 0.46633 0.0
C1732 C 0.48074 0.87934 0.47559 0.0
C1733 C 0.468 0.85245 0.45311 0.0
C1734 C 0.48784 0.84592 0.4485 0.0
H1735 H 0.44898 0.87318 0.46952 0.0
H1736 H 0.45502 0.84494 0.44629 0.0
S1737 S 0.53561 0.86835 0.46862 0.0
N1738 N 0.51744 0.88227 0.47883 0.0
N1739 N 0.52394 0.85111 0.45458 0.0
C1740 C 0.5042 0.8563 0.45765 0.0
C1741 C 0.50066 0.87303 0.47105 0.0
C1742 C 0.12816 0.28045 0.80131 0.0
C1743 C 0.12699 0.2754 0.78053 0.0
C1744 C 0.11163 0.2773 0.81444 0.0
C1745 C 0.09318 0.26905 0.80734 0.0
H1746 H 0.14206 0.2867 0.80757 0.0
H1747 H 0.11326 0.28157 0.83027 0.0
S1748 S 0.08217 0.2533 0.75424 0.0
N1749 N 0.10566 0.26208 0.7534 0.0
N1750 N 0.0749 0.25553 0.77815 0.0
C1751 C 0.09181 0.2639 0.7866 0.0
C1752 C 0.10862 0.26718 0.77321 0.0
C1753 C 0.51884 0.64368 0.48232 0.0
C1754 C 0.5276 0.62545 0.47535 0.0
C1755 C 0.51581 0.66025 0.46922 0.0
C1756 C 0.52134 0.6593 0.44856 0.0
H1757 H 0.51451 0.64528 0.49813 0.0
H1758 H 0.50892 0.67388 0.47534 0.0
S1759 S 0.54467 0.61498 0.42257 0.0
N1760 N 0.54129 0.60729 0.44622 0.0
N1761 N 0.53628 0.6386 0.42182 0.0
C1762 C 0.53008 0.64114 0.44137 0.0
C1763 C 0.53309 0.62423 0.45469 0.0
C1764 C 0.89456 0.77362 0.73112 0.0
C1765 C 0.87476 0.77611 0.7234 0.0
C1766 C 0.91118 0.77051 0.71811 0.0
C1767 C 0.90868 0.76974 0.69686 0.0
H1768 H 0.89728 0.77435 0.74735 0.0
H1769 H 0.92616 0.76897 0.72476 0.0
S1770 S 0.85976 0.77363 0.66906 0.0
N1771 N 0.85347 0.77647 0.6932 0.0
N1772 N 0.88466 0.77058 0.66879 0.0
C1773 C 0.88892 0.77191 0.68896 0.0
C1774 C 0.872 0.77509 0.70221 0.0
C1775 C 0.00933 0.87282 0.53801 0.0
C1776 C 0.02902 0.87867 0.53202 0.0
C1777 C 0.00618 0.85638 0.55126 0.0
C1778 C 0.02258 0.84502 0.55896 0.0
H1779 H 0.99622 0.88114 0.53259 0.0
H1780 H 0.99073 0.8524 0.55531 0.0
S1781 S 0.07717 0.85402 0.54793 0.0
N1782 N 0.06518 0.87155 0.53459 0.0
N1783 N 0.05929 0.84105 0.55985 0.0
C1784 C 0.04236 0.85072 0.5531 0.0
C1785 C 0.04556 0.86745 0.5396 0.0
C1786 C 0.11131 0.73465 0.73179 0.0
C1787 C 0.13064 0.7296 0.72416 0.0
C1788 C 0.09472 0.73775 0.71872 0.0
C1789 C 0.09678 0.7359 0.6975 0.0
H1790 H 0.10889 0.73596 0.74803 0.0
H1791 H 0.08008 0.74136 0.72532 0.0
S1792 S 0.14449 0.72468 0.66969 0.0
N1793 N 0.15111 0.72406 0.6939 0.0
N1794 N 0.11994 0.7298 0.6694 0.0
C1795 C 0.11608 0.73113 0.68965 0.0
C1796 C 0.13298 0.72801 0.70295 0.0
C1797 C 0.96424 0.6385 0.53793 0.0
C1798 C 0.98046 0.62599 0.5318 0.0
C1799 C 0.96734 0.65496 0.55118 0.0
C1800 C 0.98675 0.65947 0.55899 0.0
H1801 H 0.94904 0.63569 0.53224 0.0
H1802 H 0.95438 0.66413 0.55548 0.0
S1803 S 0.03429 0.63133 0.54782 0.0
N1804 N 0.01661 0.61908 0.53484 0.0
N1805 N 0.02249 0.65019 0.5594 0.0
C1806 C 0.00309 0.64705 0.55303 0.0
C1807 C 0.99995 0.63032 0.53951 0.0
C1808 C 0.77493 0.89516 0.23639 0.0
C1809 C 0.78266 0.87615 0.23032 0.0
C1810 C 0.78781 0.91189 0.23962 0.0
C1811 C 0.80896 0.91032 0.23686 0.0
H1812 H 0.75873 0.89721 0.23841 0.0
H1813 H 0.78112 0.92625 0.24408 0.0
S1814 S 0.83712 0.86362 0.22274 0.0
N1815 N 0.81304 0.85652 0.22285 0.0
N1816 N 0.83717 0.88799 0.22875 0.0
C1817 C 0.81694 0.89138 0.23104 0.0
C1818 C 0.80383 0.87431 0.22781 0.0
C1819 C 0.7738 0.11055 0.27147 0.0
C1820 C 0.78152 0.12995 0.27626 0.0
C1821 C 0.7868 0.09394 0.26831 0.0
C1822 C 0.80805 0.09609 0.2696 0.0
H1823 H 0.75756 0.10813 0.27039 0.0
H1824 H 0.78015 0.07932 0.26464 0.0
S1825 S 0.83599 0.14366 0.28153 0.0
N1826 N 0.81183 0.15038 0.28183 0.0
N1827 N 0.8362 0.11913 0.27622 0.0
C1828 C 0.81597 0.11541 0.27431 0.0
C1829 C 0.80274 0.1323 0.2776 0.0
C1830 C 0.36705 0.96865 0.9656 0.0
C1831 C 0.37954 0.97482 0.98187 0.0
C1832 C 0.35051 0.95551 0.96868 0.0
C1833 C 0.34591 0.94783 0.98812 0.0
H1834 H 0.36994 0.97423 0.95038 0.0
H1835 H 0.34135 0.95117 0.95569 0.0
S1836 S 0.37395 0.95915 0.03578 0.0
N1837 N 0.38631 0.97197 0.0181 0.0
N1838 N 0.35507 0.94758 0.02393 0.0
C1839 C 0.3583 0.95382 0.00451 0.0
C1840 C 0.3751 0.96726 1.00138 0.0
C1841 C 0.2045 0.37462 0.27521 0.0
C1842 C 0.22565 0.37723 0.27706 0.0
C1843 C 0.19154 0.39129 0.27224 0.0
C1844 C 0.19921 0.41125 0.27106 0.0
H1845 H 0.19794 0.35952 0.27576 0.0
H1846 H 0.1754 0.3885 0.27058 0.0
S1847 S 0.25323 0.42644 0.27697 0.0
N1848 N 0.25354 0.40141 0.27873 0.0
N1849 N 0.22923 0.43273 0.27333 0.0
C1850 C 0.2203 0.41409 0.27329 0.0
C1851 C 0.23349 0.39711 0.27624 0.0
C1852 C 0.13643 0.0416 0.46533 0.0
C1853 C 0.12708 0.0314 0.48167 0.0
C1854 C 0.15302 0.05468 0.46844 0.0
C1855 C 0.16097 0.05818 0.48802 0.0
H1856 H 0.13106 0.03924 0.44994 0.0
H1857 H 0.15961 0.06221 0.45536 0.0
S1858 S 0.14186 0.03542 0.53602 0.0
N1859 N 0.12668 0.0262 0.51827 0.0
N1860 N 0.15829 0.05011 0.52401 0.0
C1861 C 0.15173 0.04813 0.50451 0.0
C1862 C 0.13475 0.0349 0.50136 0.0
C1863 C 0.73051 0.11181 0.73479 0.0
C1864 C 0.7229 0.13151 0.73144 0.0
C1865 C 0.71741 0.09522 0.73779 0.0
C1866 C 0.69616 0.09765 0.73754 0.0
H1867 H 0.74675 0.10914 0.73481 0.0
H1868 H 0.72399 0.0803 0.74001 0.0
S1869 S 0.66852 0.14633 0.73117 0.0
N1870 N 0.69273 0.15266 0.72924 0.0
N1871 N 0.66814 0.12151 0.73485 0.0
C1872 C 0.68835 0.11731 0.73452 0.0
C1873 C 0.70169 0.13421 0.73148 0.0
C1874 C 0.38027 0.0505 0.52805 0.0
C1875 C 0.37745 0.02928 0.52828 0.0
C1876 C 0.36388 0.06378 0.52492 0.0
C1877 C 0.34402 0.05638 0.52192 0.0
H1878 H 0.39532 0.05688 0.52999 0.0
H1879 H 0.36684 0.07997 0.52455 0.0
S1880 S 0.32819 1.00224 0.52313 0.0
N1881 N 0.35305 1.00157 0.52652 0.0
N1882 N 0.32229 0.0265 0.5207 0.0
C1883 C 0.34093 0.03522 0.5225 0.0
C1884 C 0.35762 0.0217 0.52567 0.0
C1885 C 0.64689 0.48129 0.52683 0.0
C1886 C 0.62687 0.47376 0.5276 0.0
C1887 C 0.66348 0.46824 0.52381 0.0
C1888 C 0.6607 0.44719 0.52116 0.0
H1889 H 0.64978 0.49738 0.52883 0.0
H1890 H 0.67862 0.47472 0.52333 0.0
S1891 S 0.61136 0.41984 0.52167 0.0
N1892 N 0.6052 0.4439 0.52524 0.0
N1893 N 0.63637 0.4194 0.51966 0.0
C1894 C 0.64076 0.43948 0.52179 0.0
C1895 C 0.62387 0.45273 0.52503 0.0
C1896 C 0.74755 0.2845 0.38504 0.0
C1897 C 0.72792 0.2811 0.37717 0.0
C1898 C 0.7508 0.29758 0.40162 0.0
C1899 C 0.73457 0.30791 0.4109 0.0
H1900 H 0.76059 0.27718 0.37819 0.0
H1901 H 0.76618 0.29983 0.40706 0.0
S1902 S 0.68008 0.30314 0.39736 0.0
N1903 N 0.69185 0.28829 0.38092 0.0
N1904 N 0.69807 0.31315 0.41174 0.0
C1905 C 0.71486 0.30455 0.40337 0.0
C1906 C 0.71151 0.2911 0.38661 0.0
C1907 C 0.53863 0.04156 0.8694 0.0
C1908 C 0.53156 0.02509 0.8811 0.0
C1909 C 0.55178 0.03858 0.85287 0.0
C1910 C 0.55855 0.01903 0.84745 0.0
H1911 H 0.53376 0.05688 0.8729 0.0
H1912 H 0.55684 0.05174 0.84436 0.0
S1913 S 0.54465 0.9708 0.87323 0.0
N1914 N 0.53262 0.98852 0.88629 0.0
N1915 N 0.55693 0.98288 0.85498 0.0
C1916 C 0.55163 1.00242 0.85904 0.0
C1917 C 0.53823 0.00545 0.87587 0.0
C1918 C 0.28922 0.22214 0.39151 0.0
C1919 C 0.27444 0.22395 0.37617 0.0
C1920 C 0.2863 0.20914 0.40818 0.0
C1921 C 0.26852 0.19735 0.41014 0.0
H1922 H 0.30306 0.23105 0.39076 0.0
H1923 H 0.29798 0.20854 0.41978 0.0
S1924 S 0.22597 0.19529 0.37311 0.0
N1925 N 0.24185 0.21215 0.36342 0.0
N1926 N 0.23646 0.18751 0.39454 0.0
C1927 C 0.25377 0.19879 0.39469 0.0
C1928 C 0.2567 0.21213 0.37778 0.0
C1929 C 0.46568 0.46526 0.8697 0.0
C1930 C 0.47482 0.48184 0.87972 0.0
C1931 C 0.4526 0.46814 0.85307 0.0
C1932 C 0.44802 0.48774 0.84579 0.0
H1933 H 0.46883 0.44987 0.8746 0.0
H1934 H 0.44589 0.45489 0.84596 0.0
S1935 S 0.46787 0.5363 0.86672 0.0
N1936 N 0.47799 0.51864 0.88136 0.0
N1937 N 0.45399 0.52401 0.84977 0.0
C1938 C 0.45705 0.50446 0.85568 0.0
C1939 C 0.47032 0.50153 0.87266 0.0
C1940 C 0.7165 0.72081 0.1157 0.0
C1941 C 0.73149 0.72356 0.13072 0.0
C1942 C 0.71967 0.70771 0.09913 0.0
C1943 C 0.73792 0.69677 0.09696 0.0
H1944 H 0.70233 0.72912 0.11657 0.0
H1945 H 0.70785 0.70643 0.08773 0.0
S1946 S 0.78111 0.69705 0.1333 0.0
N1947 N 0.76471 0.71331 0.14307 0.0
N1948 N 0.7706 0.68854 0.11214 0.0
C1949 C 0.75283 0.69904 0.11217 0.0
C1950 C 0.74963 0.71245 0.12897 0.0
C1951 C 0.95485 0.03179 0.12717 0.0
C1952 C 0.97536 0.02572 0.12776 0.0
C1953 C 0.94191 0.02884 0.14389 0.0
C1954 C 0.94892 0.01976 0.16196 0.0
H1955 H 0.94867 0.03874 0.11359 0.0
H1956 H 0.92632 0.03396 0.14272 0.0
S1957 S 1.0013 1.00107 0.17139 0.0
N1958 N 1.00214 0.01048 0.14815 0.0
N1959 N 0.97769 0.00426 0.17921 0.0
C1960 C 0.96937 0.01352 0.16273 0.0
C1961 C 0.98258 0.01662 0.14574 0.0
C1962 C 0.27078 0.77621 0.11337 0.0
C1963 C 0.27564 0.78399 0.13273 0.0
C1964 C 0.26756 0.78916 0.09671 0.0
C1965 C 0.2691 0.8104 0.09873 0.0
H1966 H 0.26974 0.75995 0.11098 0.0
H1967 H 0.26414 0.78245 0.08206 0.0
S1968 S 0.27966 0.83856 0.14647 0.0
N1969 N 0.28061 0.8144 0.15316 0.0
N1970 N 0.27466 0.83868 0.12187 0.0
C1971 C 0.27364 0.8184 0.11805 0.0
C1972 C 0.27688 0.80523 0.13502 0.0
C1973 C 0.03875 0.46503 0.13899 0.0
C1974 C 0.03298 0.48123 0.12626 0.0
C1975 C 0.05186 0.46811 0.15557 0.0
C1976 C 0.05989 0.48746 0.15997 0.0
H1977 H 0.03286 0.44988 0.13628 0.0
H1978 H 0.05586 0.45518 0.16494 0.0
S1979 S 0.04971 0.53489 0.13122 0.0
N1980 N 0.03661 0.51727 0.11902 0.0
N1981 N 0.06093 0.52311 0.15032 0.0
C1982 C 0.05432 0.50377 0.14731 0.0
C1983 C 0.04093 0.50065 0.13047 0.0
C1984 C 0.37718 0.72736 0.3026 0.0
C1985 C 0.37898 0.72958 0.28138 0.0
C1986 C 0.39392 0.73032 0.31553 0.0
C1987 C 0.41312 0.73568 0.30776 0.0
H1988 H 0.36262 0.72361 0.30931 0.0
H1989 H 0.39174 0.72875 0.33178 0.0
S1990 S 0.42644 0.74135 0.25325 0.0
N1991 N 0.4019 0.73607 0.25313 0.0
N1992 N 0.43327 0.74174 0.2774 0.0
C1993 C 0.41524 0.73754 0.28656 0.0
C1994 C 0.39822 0.73448 0.27339 0.0
C1995 C 0.99757 0.37569 0.96684 0.0
C1996 C 0.97883 0.37841 0.97679 0.0
C1997 C 1.00081 0.35919 0.95368 0.0
C1998 C 0.98553 0.34461 0.95017 0.0
H1999 H 0.00977 0.38654 0.96907 0.0
H2000 H 0.01548 0.35771 0.94637 0.0
S2001 S 0.9338 0.34466 0.97258 0.0
N2002 N 0.94485 0.36499 0.98235 0.0
N2003 N 0.95087 0.33412 0.95753 0.0
C2004 C 0.96674 0.34712 0.96006 0.0
C2005 C 0.9634 0.36398 0.97334 0.0
C2006 C 0.61207 0.76944 0.27482 0.0
C2007 C 0.63137 0.77461 0.28254 0.0
C2008 C 0.59547 0.76609 0.28781 0.0
C2009 C 0.59752 0.7676 0.30907 0.0
H2010 H 0.60971 0.76821 0.25857 0.0
H2011 H 0.58094 0.76213 0.28115 0.0
S2012 S 0.64479 0.78053 0.33705 0.0
N2013 N 0.65159 0.78074 0.31288 0.0
N2014 N 0.62036 0.77482 0.33723 0.0
C2015 C 0.61673 0.77269 0.317 0.0
C2016 C 0.63363 0.77614 0.30377 0.0
C2017 C 0.01767 0.14497 0.98197 0.0
C2018 C 0.02589 0.12657 0.9748 0.0
C2019 C 0.01449 0.16154 0.96889 0.0
C2020 C 0.01932 0.16039 0.94806 0.0
H2021 H 0.01384 0.14669 0.99789 0.0
H2022 H 0.00801 0.17531 0.97514 0.0
S2023 S 0.04115 0.11563 0.92156 0.0
N2024 N 0.03842 0.10808 0.94534 0.0
N2025 N 0.03309 0.13936 0.92096 0.0
C2026 C 0.02756 0.14208 0.94069 0.0
C2027 C 0.03073 0.12518 0.95399 0.0
C2028 C 0.38888 0.29095 0.21991 0.0
C2029 C 0.37551 0.27495 0.22475 0.0
C2030 C 0.40539 0.28797 0.20673 0.0
C2031 C 0.40919 0.26887 0.19785 0.0
H2032 H 0.38674 0.30584 0.22659 0.0
H2033 H 0.41544 0.30066 0.20372 0.0
S2034 S 0.37766 0.22249 0.20413 0.0
N2035 N 0.3665 0.23963 0.21867 0.0
N2036 N 0.39746 0.23404 0.1939 0.0
C2037 C 0.39574 0.25284 0.2023 0.0
C2038 C 0.37894 0.25587 0.21573 0.0
C2039 C 0.50697 0.37611 0.0396 0.0
C2040 C 0.52638 0.381 0.03203 0.0
C2041 C 0.50404 0.35955 0.05275 0.0
C2042 C 0.52037 0.34708 0.05869 0.0
H2043 H 0.49396 0.3853 0.0355 0.0
H2044 H 0.48881 0.35634 0.05812 0.0
S2045 S 0.57419 0.35324 0.04302 0.0
N2046 N 0.56214 0.37182 0.03124 0.0
N2047 N 0.55669 0.34095 0.05616 0.0
C2048 C 0.53984 0.35177 0.0512 0.0
C2049 C 0.54283 0.36867 0.03787 0.0
C2050 C 0.61128 0.23363 0.23045 0.0
C2051 C 0.63105 0.23089 0.22276 0.0
C2052 C 0.59468 0.23673 0.21741 0.0
C2053 C 0.59715 0.23726 0.19615 0.0
H2054 H 0.60857 0.23308 0.24668 0.0
H2055 H 0.57972 0.23845 0.22405 0.0
S2056 S 0.64602 0.23265 0.1684 0.0
N2057 N 0.65231 0.23001 0.19257 0.0
N2058 N 0.62115 0.23592 0.16809 0.0
C2059 C 0.61689 0.23485 0.18828 0.0
C2060 C 0.63379 0.23165 0.20156 0.0
C2061 C 0.47914 0.12557 0.05204 0.0
C2062 C 0.47926 0.12805 0.03078 0.0
C2063 C 0.48221 0.14214 0.06515 0.0
C2064 C 0.48528 0.1619 0.05753 0.0
H2065 H 0.47688 0.11064 0.0586 0.0
H2066 H 0.48197 0.13951 0.08141 0.0
S2067 S 0.48684 0.17659 1.00308 0.0
N2068 N 0.4825 0.15187 1.00272 0.0
N2069 N 0.48852 0.18293 0.02732 0.0
C2070 C 0.4854 0.16459 0.03631 0.0
C2071 C 0.48236 0.14771 0.02296 0.0
C2072 C 0.30071 0.37458 0.72872 0.0
C2073 C 0.2796 0.37658 0.73169 0.0
C2074 C 0.31396 0.39108 0.73161 0.0
C2075 C 0.30666 0.41024 0.73768 0.0
H2076 H 0.30707 0.36006 0.72431 0.0
H2077 H 0.33009 0.38877 0.72929 0.0
S2078 S 0.25266 0.42404 0.74589 0.0
N2079 N 0.25198 0.39967 0.73992 0.0
N2080 N 0.2769 0.43055 0.74556 0.0
C2081 C 0.28561 0.41253 0.74052 0.0
C2082 C 0.2721 0.39576 0.73749 0.0
C2083 C 0.27524 0.61023 0.77929 0.0
C2084 C 0.28216 0.63035 0.77719 0.0
C2085 C 0.28829 0.59367 0.77607 0.0
C2086 C 0.30876 0.59657 0.77046 0.0
H2087 H 0.25965 0.60726 0.78369 0.0
H2088 H 0.28232 0.57848 0.7782 0.0
S2089 S 0.33381 0.64634 0.76132 0.0
N2090 N 0.31047 0.6523 0.7683 0.0
N2091 N 0.33491 0.62128 0.76182 0.0
C2092 C 0.31575 0.61667 0.76802 0.0
C2093 C 0.30249 0.63351 0.77147 0.0
C2094 C 0.87929 0.456 0.47757 0.0
C2095 C 0.87672 0.47724 0.47743 0.0
C2096 C 0.86274 0.44285 0.48062 0.0
C2097 C 0.84297 0.45041 0.48364 0.0
H2098 H 0.89427 0.44949 0.47564 0.0
H2099 H 0.86551 0.42663 0.48096 0.0
S2100 S 0.82779 0.50468 0.48262 0.0
N2101 N 0.85265 0.50516 0.47925 0.0
N2102 N 0.82159 0.48047 0.48495 0.0
C2103 C 0.84013 0.4716 0.48312 0.0
C2104 C 0.85698 0.48498 0.48003 0.0
C2105 C 0.73035 0.89507 0.77155 0.0
C2106 C 0.72265 0.8755 0.77554 0.0
C2107 C 0.71733 0.91168 0.76856 0.0
C2108 C 0.69607 0.90939 0.76945 0.0
H2109 H 0.74661 0.89764 0.77103 0.0
H2110 H 0.72397 0.9265 0.76584 0.0
S2111 S 0.66817 0.86104 0.77761 0.0
N2112 N 0.69237 0.85459 0.77902 0.0
N2113 N 0.66792 0.88578 0.77342 0.0
C2114 C 0.68816 0.88985 0.7731 0.0
C2115 C 0.70143 0.87294 0.77614 0.0
C2116 C 0.62671 0.55186 0.97547 0.0
C2117 C 0.6274 0.53122 0.98109 0.0
C2118 C 0.6434 0.56482 0.97867 0.0
C2119 C 0.66151 0.55767 0.98752 0.0
H2120 H 0.61308 0.55813 0.96873 0.0
H2121 H 0.64216 0.58054 0.97394 0.0
S2122 S 0.6712 0.50489 0.00493 0.0
N2123 N 0.64792 0.50417 0.99563 0.0
N2124 N 0.67894 0.52861 1.00224 0.0
C2125 C 0.66239 0.53707 0.99326 0.0
C2126 C 0.64543 0.52386 0.98994 0.0
C2127 C 0.2163 0.62685 0.24931 0.0
C2128 C 0.22566 0.63028 0.23038 0.0
C2129 C 0.20311 0.61031 0.2523 0.0
C2130 C 0.1988 0.59652 0.23649 0.0
H2131 H 0.21897 0.6372 0.26185 0.0
H2132 H 0.19603 0.60847 0.26705 0.0
S2133 S 0.22093 0.59765 0.1846 0.0
N2134 N 0.23063 0.61784 0.19596 0.0
N2135 N 0.20602 0.58673 0.20158 0.0
C2136 C 0.20836 0.59958 0.21759 0.0
C2137 C 0.22173 0.61645 0.21455 0.0
C2138 C 0.87321 0.53623 0.00906 0.0
C2139 C 0.87904 0.53054 0.02885 0.0
C2140 C 0.85691 0.54956 0.00572 0.0
C2141 C 0.84566 0.55765 0.02203 0.0
H2142 H 0.88148 0.53053 0.99602 0.0
H2143 H 0.85298 0.55342 0.99021 0.0
S2144 S 0.85459 0.54743 0.07681 0.0
N2145 N 0.87198 0.53376 0.065 0.0
N2146 N 0.8417 0.55915 0.05875 0.0
C2147 C 0.85129 0.55205 0.0419 0.0
C2148 C 0.8679 0.53847 0.0453 0.0
C2149 C 0.12422 0.95474 0.02699 0.0
C2150 C 0.12682 0.97599 0.02706 0.0
C2151 C 0.14075 0.94159 0.02402 0.0
C2152 C 0.16058 0.94915 0.02124 0.0
H2153 H 0.10924 0.94822 0.02904 0.0
H2154 H 0.13801 0.92535 0.02413 0.0
S2155 S 0.1756 0.00353 0.02023 0.0
N2156 N 0.15085 0.00395 0.0243 0.0
N2157 N 0.1818 0.97929 0.01845 0.0
C2158 C 0.16339 0.97036 0.0213 0.0
C2159 C 0.14656 0.98374 0.02424 0.0
loop_
_geom_bond_atom_site_label_1
_geom_bond_atom_site_label_2
_geom_bond_distance
_geom_bond_site_symmetry_2
_ccdc_geom_bond_type
C0 C1 1.384 . S
C0 H13 0.947 . S
C0 C35 1.382 . S
C1 C0 1.384 . S
C1 C2 1.378 . S
C2 C1 1.378 . S
C2 C3 1.378 1_655 S
C2 H14 0.949 1_645 S
C3 C2 1.378 1_455 S
C3 H15 0.950 . S
C3 C34 1.383 . S
H4 C23 0.947 . S
H5 C24 0.946 . S
H6 C26 0.946 1_546 S
H7 C27 0.945 . S
H8 C29 0.952 . S
H9 C30 0.949 . S
H10 C32 0.942 1_654 S
H11 C33 0.948 . S
H12 C35 0.951 . S
H13 C0 0.947 . S
H14 C2 0.949 1_465 S
H15 C3 0.950 . S
N16 C19 1.382 . S
N16 C21 1.363 . S
N17 C19 1.371 . S
N17 C20 1.372 . S
N18 C20 1.361 . S
N18 C21 1.377 . S
C19 N16 1.382 . S
C19 N17 1.371 . S
C19 C22 1.480 . S
C20 N17 1.372 . S
C20 N18 1.361 . S
C20 C28 1.457 . S
C21 N16 1.363 . S
C21 N18 1.377 . S
C21 C34 1.479 . S
C22 C19 1.480 . S
C22 C23 1.383 1_545 S
C22 C27 1.385 . S
C23 H4 0.947 . S
C23 C22 1.383 1_565 S
C23 C24 1.388 . S
C24 H5 0.946 . S
C24 C23 1.388 . S
C24 C25 1.384 . S
C25 C24 1.384 . S
C25 C26 1.377 . S
C26 H6 0.946 1_564 S
C26 C25 1.377 . S
C26 C27 1.369 1_565 S
C27 H7 0.945 . S
C27 C22 1.385 . S
C27 C26 1.369 1_545 S
C28 C20 1.457 . S
C28 C29 1.372 1_554 S
C28 C33 1.364 . S
C29 H8 0.952 . S
C29 C28 1.372 1_556 S
C29 C30 1.389 . S
C30 H9 0.949 . S
C30 C29 1.389 . S
C30 C31 1.387 . S
C31 C30 1.387 . S
C31 C32 1.411 . S
C32 H10 0.942 1_456 S
C32 C31 1.411 . S
C32 C33 1.349 1_556 S
C33 H11 0.948 . S
C33 C28 1.364 . S
C33 C32 1.349 1_554 S
C34 C3 1.383 . S
C34 C21 1.479 . S
C34 C35 1.398 1_455 S
C35 C0 1.382 . S
C35 H12 0.951 . S
C35 C34 1.398 1_655 S
C36 C37 1.384 . S
C36 H49 0.947 . S
C36 C71 1.382 . S
C37 C36 1.384 . S
C37 C38 1.378 . S
C38 C37 1.378 . S
C38 C39 1.378 . S
C38 H50 0.952 . S
C39 C38 1.378 . S
C39 H51 0.950 . S
C39 C70 1.383 . S
H40 C59 0.947 . S
H41 C60 0.946 . S
H42 C62 0.953 . S
H43 C63 0.945 . S
H44 C65 0.952 . S
H45 C66 0.949 . S
H46 C68 0.950 . S
H47 C69 0.948 . S
H48 C71 0.951 . S
H49 C36 0.947 . S
H50 C38 0.952 . S
H51 C39 0.950 . S
N52 C55 1.382 . S
N52 C57 1.363 . S
N53 C55 1.371 . S
N53 C56 1.372 . S
N54 C56 1.361 . S
N54 C57 1.377 . S
C55 N52 1.382 . S
C55 N53 1.371 . S
C55 C58 1.480 . S
C56 N53 1.372 . S
C56 N54 1.361 . S
C56 C64 1.457 . S
C57 N52 1.363 . S
C57 N54 1.377 . S
C57 C70 1.479 . S
C58 C55 1.480 . S
C58 C59 1.383 . S
C58 C63 1.385 . S
C59 H40 0.947 . S
C59 C58 1.383 . S
C59 C60 1.388 . S
C60 H41 0.946 . S
C60 C59 1.388 . S
C60 C61 1.384 . S
C61 C60 1.384 . S
C61 C62 1.377 . S
C62 H42 0.953 . S
C62 C61 1.377 . S
C62 C63 1.369 . S
C63 H43 0.945 . S
C63 C58 1.385 . S
C63 C62 1.369 . S
C64 C56 1.457 . S
C64 C65 1.372 . S
C64 C69 1.364 . S
C65 H44 0.952 . S
C65 C64 1.372 . S
C65 C66 1.389 . S
C66 H45 0.949 . S
C66 C65 1.389 . S
C66 C67 1.387 . S
C67 C66 1.387 . S
C67 C68 1.372 . S
C68 H46 0.950 . S
C68 C67 1.372 . S
C68 C69 1.379 . S
C69 H47 0.948 . S
C69 C64 1.364 . S
C69 C68 1.379 . S
C70 C39 1.383 . S
C70 C57 1.479 . S
C70 C71 1.398 . S
C71 C36 1.382 . S
C71 H48 0.951 . S
C71 C70 1.398 . S
C72 C73 1.384 . S
C72 H85 0.949 1_655 S
C72 C107 1.382 1_556 S
C73 C72 1.384 . S
C73 C74 1.378 . S
C74 C73 1.378 . S
C74 C75 1.378 . S
C74 H86 0.952 . S
C75 C74 1.378 . S
C75 H87 0.950 . S
C75 C106 1.383 1_556 S
H76 C95 0.957 . S
H77 C96 0.946 1_556 S
H78 C98 0.953 . S
H79 C99 0.945 . S
H80 C101 0.952 . S
H81 C102 0.958 . S
H82 C104 0.950 . S
H83 C105 0.948 . S
H84 C107 0.951 . S
H85 C72 0.949 1_455 S
H86 C74 0.952 . S
H87 C75 0.950 . S
N88 C91 1.382 . S
N88 C93 1.363 . S
N89 C91 1.371 . S
N89 C92 1.372 . S
N90 C92 1.361 . S
N90 C93 1.377 . S
C91 N88 1.382 . S
C91 N89 1.371 . S
C91 C94 1.480 . S
C92 N89 1.372 . S
C92 N90 1.361 . S
C92 C100 1.457 . S
C93 N88 1.363 . S
C93 N90 1.377 . S
C93 C106 1.479 . S
C94 C91 1.480 . S
C94 C95 1.383 . S
C94 C99 1.385 . S
C95 H76 0.957 . S
C95 C94 1.383 . S
C95 C96 1.388 . S
C96 H77 0.946 1_554 S
C96 C95 1.388 . S
C96 C97 1.384 . S
C97 C96 1.384 . S
C97 C98 1.377 . S
C98 H78 0.953 . S
C98 C97 1.377 . S
C98 C99 1.369 . S
C99 H79 0.945 . S
C99 C94 1.385 . S
C99 C98 1.369 . S
C100 C92 1.457 . S
C100 C101 1.372 . S
C100 C105 1.364 1_655 S
C101 H80 0.952 . S
C101 C100 1.372 . S
C101 C102 1.389 1_655 S
C102 H81 0.958 . S
C102 C101 1.389 1_455 S
C102 C103 1.387 . S
C103 C102 1.387 . S
C103 C104 1.372 . S
C104 H82 0.950 . S
C104 C103 1.372 . S
C104 C105 1.379 . S
C105 H83 0.948 . S
C105 C100 1.364 1_455 S
C105 C104 1.379 . S
C106 C75 1.383 1_554 S
C106 C93 1.479 . S
C106 C107 1.398 . S
C107 C72 1.382 1_554 S
C107 H84 0.951 . S
C107 C106 1.398 . S
C108 C109 1.384 . S
C108 H121 0.947 . S
C108 C143 1.382 . S
C109 C108 1.384 . S
C109 C110 1.378 . S
C110 C109 1.378 . S
C110 C111 1.378 . S
C110 H122 0.952 . S
C111 C110 1.378 . S
C111 H123 0.950 . S
C111 C142 1.383 . S
H112 C131 0.947 . S
H113 C132 0.946 . S
H114 C134 0.953 . S
H115 C135 0.945 . S
H116 C137 0.952 . S
H117 C138 0.949 . S
H118 C140 0.950 . S
H119 C141 0.948 . S
H120 C143 0.951 . S
H121 C108 0.947 . S
H122 C110 0.952 . S
H123 C111 0.950 . S
N124 C127 1.382 . S
N124 C129 1.363 . S
N125 C127 1.371 . S
N125 C128 1.372 . S
N126 C128 1.361 . S
N126 C129 1.377 . S
C127 N124 1.382 . S
C127 N125 1.371 . S
C127 C130 1.480 . S
C128 N125 1.372 . S
C128 N126 1.361 . S
C128 C136 1.457 . S
C129 N124 1.363 . S
C129 N126 1.377 . S
C129 C142 1.479 . S
C130 C127 1.480 . S
C130 C131 1.383 . S
C130 C135 1.385 . S
C131 H112 0.947 . S
C131 C130 1.383 . S
C131 C132 1.388 . S
C132 H113 0.946 . S
C132 C131 1.388 . S
C132 C133 1.384 . S
C133 C132 1.384 . S
C133 C134 1.377 . S
C134 H114 0.953 . S
C134 C133 1.377 . S
C134 C135 1.369 . S
C135 H115 0.945 . S
C135 C130 1.385 . S
C135 C134 1.369 . S
C136 C128 1.457 . S
C136 C137 1.372 . S
C136 C141 1.364 . S
C137 H116 0.952 . S
C137 C136 1.372 . S
C137 C138 1.389 . S
C138 H117 0.949 . S
C138 C137 1.389 . S
C138 C139 1.387 . S
C139 C138 1.387 . S
C139 C140 1.372 . S
C140 H118 0.950 . S
C140 C139 1.372 . S
C140 C141 1.379 . S
C141 H119 0.948 . S
C141 C136 1.364 . S
C141 C140 1.379 . S
C142 C111 1.383 . S
C142 C129 1.479 . S
C142 C143 1.398 . S
C143 C108 1.382 . S
C143 H120 0.951 . S
C143 C142 1.398 . S
C144 C145 1.384 . S
C144 H157 0.947 . S
C144 C179 1.382 . S
C145 C144 1.384 . S
C145 C146 1.378 . S
C146 C145 1.378 . S
C146 C147 1.378 . S
C146 H158 0.952 1_455 S
C147 C146 1.378 . S
C147 H159 0.950 . S
C147 C178 1.383 . S
H148 C167 0.947 . S
H149 C168 0.946 . S
H150 C170 0.945 1_445 S
H151 C171 0.945 . S
H152 C173 0.952 . S
H153 C174 0.949 . S
H154 C176 0.950 1_565 S
H155 C177 0.948 . S
H156 C179 0.951 . S
H157 C144 0.947 . S
H158 C146 0.952 1_655 S
H159 C147 0.950 . S
N160 C163 1.382 . S
N160 C165 1.363 . S
N161 C163 1.371 . S
N161 C164 1.372 . S
N162 C164 1.361 . S
N162 C165 1.377 . S
C163 N160 1.382 . S
C163 N161 1.371 . S
C163 C166 1.480 . S
C164 N161 1.372 . S
C164 N162 1.361 . S
C164 C172 1.457 . S
C165 N160 1.363 . S
C165 N162 1.377 . S
C165 C178 1.479 . S
C166 C163 1.480 . S
C166 C167 1.383 1_455 S
C166 C171 1.385 . S
C167 H148 0.947 . S
C167 C166 1.383 1_655 S
C167 C168 1.388 . S
C168 H149 0.946 . S
C168 C167 1.388 . S
C168 C169 1.384 . S
C169 C168 1.384 . S
C169 C170 1.377 . S
C170 H150 0.945 1_665 S
C170 C169 1.377 . S
C170 C171 1.369 1_655 S
C171 H151 0.945 . S
C171 C166 1.385 . S
C171 C170 1.369 1_455 S
C172 C164 1.457 . S
C172 C173 1.372 1_565 S
C172 C177 1.364 . S
C173 H152 0.952 . S
C173 C172 1.372 1_545 S
C173 C174 1.389 . S
C174 H153 0.949 . S
C174 C173 1.389 . S
C174 C175 1.387 . S
C175 C174 1.387 . S
C175 C176 1.372 . S
C176 H154 0.950 1_545 S
C176 C175 1.372 . S
C176 C177 1.379 1_545 S
C177 H155 0.948 . S
C177 C172 1.364 . S
C177 C176 1.379 1_565 S
C178 C147 1.383 . S
C178 C165 1.479 . S
C178 C179 1.398 . S
C179 C144 1.382 . S
C179 H156 0.951 . S
C179 C178 1.398 . S
C180 C181 1.384 . S
C180 H193 0.947 . S
C180 C215 1.382 . S
C181 C180 1.384 . S
C181 C182 1.378 . S
C182 C181 1.378 . S
C182 C183 1.378 . S
C182 H194 0.952 . S
C183 C182 1.378 . S
C183 H195 0.950 . S
C183 C214 1.383 . S
H184 C203 0.947 . S
H185 C204 0.946 . S
H186 C206 0.953 . S
H187 C207 0.945 . S
H188 C209 0.952 . S
H189 C210 0.949 . S
H190 C212 0.950 . S
H191 C213 0.948 . S
H192 C215 0.951 . S
H193 C180 0.947 . S
H194 C182 0.952 . S
H195 C183 0.950 . S
N196 C199 1.382 . S
N196 C201 1.363 . S
N197 C199 1.371 . S
N197 C200 1.372 . S
N198 C200 1.361 . S
N198 C201 1.377 . S
C199 N196 1.382 . S
C199 N197 1.371 . S
C199 C202 1.480 . S
C200 N197 1.372 . S
C200 N198 1.361 . S
C200 C208 1.457 . S
C201 N196 1.363 . S
C201 N198 1.377 . S
C201 C214 1.479 . S
C202 C199 1.480 . S
C202 C203 1.383 . S
C202 C207 1.385 . S
C203 H184 0.947 . S
C203 C202 1.383 . S
C203 C204 1.388 . S
C204 H185 0.946 . S
C204 C203 1.388 . S
C204 C205 1.384 . S
C205 C204 1.384 . S
C205 C206 1.377 . S
C206 H186 0.953 . S
C206 C205 1.377 . S
C206 C207 1.369 . S
C207 H187 0.945 . S
C207 C202 1.385 . S
C207 C206 1.369 . S
C208 C200 1.457 . S
C208 C209 1.372 . S
C208 C213 1.364 . S
C209 H188 0.952 . S
C209 C208 1.372 . S
C209 C210 1.389 . S
C210 H189 0.949 . S
C210 C209 1.389 . S
C210 C211 1.387 . S
C211 C210 1.387 . S
C211 C212 1.372 . S
C212 H190 0.950 . S
C212 C211 1.372 . S
C212 C213 1.379 . S
C213 H191 0.948 . S
C213 C208 1.364 . S
C213 C212 1.379 . S
C214 C183 1.383 . S
C214 C201 1.479 . S
C214 C215 1.398 . S
C215 C180 1.382 . S
C215 H192 0.951 . S
C215 C214 1.398 . S
C216 C217 1.384 . S
C216 H229 0.947 1_655 S
C216 C251 1.382 . S
C217 C216 1.384 . S
C217 C218 1.378 . S
C218 C217 1.378 . S
C218 C219 1.378 . S
C218 H230 0.952 . S
C219 C218 1.378 . S
C219 H231 0.950 . S
C219 C250 1.383 . S
H220 C239 0.947 . S
H221 C240 0.946 . S
H222 C242 0.953 . S
H223 C243 0.945 . S
H224 C245 0.952 . S
H225 C246 0.949 . S
H226 C248 0.950 . S
H227 C249 0.948 . S
H228 C251 0.951 . S
H229 C216 0.947 1_455 S
H230 C218 0.952 . S
H231 C219 0.950 . S
N232 C235 1.382 . S
N232 C237 1.363 . S
N233 C235 1.371 . S
N233 C236 1.372 . S
N234 C236 1.361 . S
N234 C237 1.377 . S
C235 N232 1.382 . S
C235 N233 1.371 . S
C235 C238 1.480 . S
C236 N233 1.372 . S
C236 N234 1.361 . S
C236 C244 1.457 . S
C237 N232 1.363 . S
C237 N234 1.377 . S
C237 C250 1.479 . S
C238 C235 1.480 . S
C238 C239 1.383 . S
C238 C243 1.385 . S
C239 H220 0.947 . S
C239 C238 1.383 . S
C239 C240 1.388 . S
C240 H221 0.946 . S
C240 C239 1.388 . S
C240 C241 1.384 . S
C241 C240 1.384 . S
C241 C242 1.377 . S
C242 H222 0.953 . S
C242 C241 1.377 . S
C242 C243 1.369 . S
C243 H223 0.945 . S
C243 C238 1.385 . S
C243 C242 1.369 . S
C244 C236 1.457 . S
C244 C245 1.372 . S
C244 C249 1.364 1_655 S
C245 H224 0.952 . S
C245 C244 1.372 . S
C245 C246 1.389 1_655 S
C246 H225 0.949 . S
C246 C245 1.389 1_455 S
C246 C247 1.387 . S
C247 C246 1.387 . S
C247 C248 1.372 . S
C248 H226 0.950 . S
C248 C247 1.372 . S
C248 C249 1.379 . S
C249 H227 0.948 . S
C249 C244 1.364 1_455 S
C249 C248 1.379 . S
C250 C219 1.383 . S
C250 C237 1.479 . S
C250 C251 1.398 . S
C251 C216 1.382 . S
C251 H228 0.951 . S
C251 C250 1.398 . S
C252 C253 1.384 . S
C252 H265 0.947 . S
C252 C287 1.382 . S
C253 C252 1.384 . S
C253 C254 1.378 . S
C254 C253 1.378 . S
C254 C255 1.378 . S
C254 H266 0.952 . S
C255 C254 1.378 . S
C255 H267 0.950 . S
C255 C286 1.383 . S
H256 C275 0.947 . S
H257 C276 0.946 . S
H258 C278 0.953 . S
H259 C279 0.945 . S
H260 C281 0.952 . S
H261 C282 0.949 . S
H262 C284 0.950 . S
H263 C285 0.948 . S
H264 C287 0.951 . S
H265 C252 0.947 . S
H266 C254 0.952 . S
H267 C255 0.950 . S
N268 C271 1.382 . S
N268 C273 1.363 . S
N269 C271 1.371 . S
N269 C272 1.372 . S
N270 C272 1.361 . S
N270 C273 1.377 . S
C271 N268 1.382 . S
C271 N269 1.371 . S
C271 C274 1.480 . S
C272 N269 1.372 . S
C272 N270 1.361 . S
C272 C280 1.457 . S
C273 N268 1.363 . S
C273 N270 1.377 . S
C273 C286 1.479 . S
C274 C271 1.480 . S
C274 C275 1.383 . S
C274 C279 1.385 . S
C275 H256 0.947 . S
C275 C274 1.383 . S
C275 C276 1.388 . S
C276 H257 0.946 . S
C276 C275 1.388 . S
C276 C277 1.384 . S
C277 C276 1.384 . S
C277 C278 1.377 . S
C278 H258 0.953 . S
C278 C277 1.377 . S
C278 C279 1.369 . S
C279 H259 0.945 . S
C279 C274 1.385 . S
C279 C278 1.369 . S
C280 C272 1.457 . S
C280 C281 1.372 . S
C280 C285 1.364 . S
C281 H260 0.952 . S
C281 C280 1.372 . S
C281 C282 1.389 . S
C282 H261 0.949 . S
C282 C281 1.389 . S
C282 C283 1.387 . S
C283 C282 1.387 . S
C283 C284 1.372 . S
C284 H262 0.950 . S
C284 C283 1.372 . S
C284 C285 1.379 . S
C285 H263 0.948 . S
C285 C280 1.364 . S
C285 C284 1.379 . S
C286 C255 1.383 . S
C286 C273 1.479 . S
C286 C287 1.398 . S
C287 C252 1.382 . S
C287 H264 0.951 . S
C287 C286 1.398 . S
C288 C289 1.384 . S
C288 H301 0.947 . S
C288 C323 1.382 . S
C289 C288 1.384 . S
C289 C290 1.378 . S
C290 C289 1.378 . S
C290 C291 1.378 . S
C290 H302 0.952 . S
C291 C290 1.378 . S
C291 H303 0.950 . S
C291 C322 1.383 . S
H292 C311 0.947 . S
H293 C312 0.946 . S
H294 C314 0.953 . S
H295 C315 0.945 . S
H296 C317 0.952 . S
H297 C318 0.949 . S
H298 C320 0.950 . S
H299 C321 0.948 . S
H300 C323 0.951 . S
H301 C288 0.947 . S
H302 C290 0.952 . S
H303 C291 0.950 . S
N304 C307 1.382 . S
N304 C309 1.363 . S
N305 C307 1.371 . S
N305 C308 1.372 . S
N306 C308 1.361 . S
N306 C309 1.377 . S
C307 N304 1.382 . S
C307 N305 1.371 . S
C307 C310 1.480 . S
C308 N305 1.372 . S
C308 N306 1.361 . S
C308 C316 1.457 . S
C309 N304 1.363 . S
C309 N306 1.377 . S
C309 C322 1.479 . S
C310 C307 1.480 . S
C310 C311 1.383 . S
C310 C315 1.385 . S
C311 H292 0.947 . S
C311 C310 1.383 . S
C311 C312 1.388 . S
C312 H293 0.946 . S
C312 C311 1.388 . S
C312 C313 1.384 . S
C313 C312 1.384 . S
C313 C314 1.377 . S
C314 H294 0.953 . S
C314 C313 1.377 . S
C314 C315 1.369 . S
C315 H295 0.945 . S
C315 C310 1.385 . S
C315 C314 1.369 . S
C316 C308 1.457 . S
C316 C317 1.372 . S
C316 C321 1.364 . S
C317 H296 0.952 . S
C317 C316 1.372 . S
C317 C318 1.389 . S
C318 H297 0.949 . S
C318 C317 1.389 . S
C318 C319 1.387 . S
C319 C318 1.387 . S
C319 C320 1.372 . S
C320 H298 0.950 . S
C320 C319 1.372 . S
C320 C321 1.379 . S
C321 H299 0.948 . S
C321 C316 1.364 . S
C321 C320 1.379 . S
C322 C291 1.383 . S
C322 C309 1.479 . S
C322 C323 1.398 . S
C323 C288 1.382 . S
C323 H300 0.951 . S
C323 C322 1.398 . S
C324 C325 1.384 . S
C324 H337 0.947 . S
C324 C359 1.382 . S
C325 C324 1.384 . S
C325 C326 1.378 . S
C326 C325 1.378 . S
C326 C327 1.378 . S
C326 H338 0.952 . S
C327 C326 1.378 . S
C327 H339 0.950 . S
C327 C358 1.383 . S
H328 C347 0.947 . S
H329 C348 0.962 . S
H330 C350 0.953 . S
H331 C351 0.945 . S
H332 C353 0.952 . S
H333 C354 0.949 1_545 S
H334 C356 0.950 . S
H335 C357 0.948 . S
H336 C359 0.951 . S
H337 C324 0.947 . S
H338 C326 0.952 . S
H339 C327 0.950 . S
N340 C343 1.382 . S
N340 C345 1.363 . S
N341 C343 1.371 . S
N341 C344 1.372 . S
N342 C344 1.361 . S
N342 C345 1.377 . S
C343 N340 1.382 . S
C343 N341 1.371 . S
C343 C346 1.480 . S
C344 N341 1.372 . S
C344 N342 1.361 . S
C344 C352 1.457 . S
C345 N340 1.363 . S
C345 N342 1.377 . S
C345 C358 1.479 . S
C346 C343 1.480 . S
C346 C347 1.383 . S
C346 C351 1.385 1_565 S
C347 H328 0.947 . S
C347 C346 1.383 . S
C347 C348 1.388 1_565 S
C348 H329 0.962 . S
C348 C347 1.388 1_545 S
C348 C349 1.384 . S
C349 C348 1.384 . S
C349 C350 1.377 . S
C350 H330 0.953 . S
C350 C349 1.377 . S
C350 C351 1.369 . S
C351 H331 0.945 . S
C351 C346 1.385 1_545 S
C351 C350 1.369 . S
C352 C344 1.457 . S
C352 C353 1.372 . S
C352 C357 1.364 . S
C353 H332 0.952 . S
C353 C352 1.372 . S
C353 C354 1.389 . S
C354 H333 0.949 1_565 S
C354 C353 1.389 . S
C354 C355 1.387 . S
C355 C354 1.387 . S
C355 C356 1.372 . S
C356 H334 0.950 . S
C356 C355 1.372 . S
C356 C357 1.379 . S
C357 H335 0.948 . S
C357 C352 1.364 . S
C357 C356 1.379 . S
C358 C327 1.383 . S
C358 C345 1.479 . S
C358 C359 1.398 . S
C359 C324 1.382 . S
C359 H336 0.951 . S
C359 C358 1.398 . S
C360 C361 1.384 . S
C360 H373 0.947 . S
C360 C395 1.382 . S
C361 C360 1.384 . S
C361 C362 1.378 . S
C362 C361 1.378 . S
C362 C363 1.378 . S
C362 H374 0.952 . S
C363 C362 1.378 . S
C363 H375 0.950 . S
C363 C394 1.383 . S
H364 C383 0.947 . S
H365 C384 0.946 . S
H366 C386 0.953 . S
H367 C387 0.945 . S
H368 C389 0.952 . S
H369 C390 0.949 . S
H370 C392 0.950 . S
H371 C393 0.948 . S
H372 C395 0.951 . S
H373 C360 0.947 . S
H374 C362 0.952 . S
H375 C363 0.950 . S
N376 C379 1.382 . S
N376 C381 1.363 . S
N377 C379 1.371 . S
N377 C380 1.372 . S
N378 C380 1.361 . S
N378 C381 1.377 . S
C379 N376 1.382 . S
C379 N377 1.371 . S
C379 C382 1.480 . S
C380 N377 1.372 . S
C380 N378 1.361 . S
C380 C388 1.457 . S
C381 N376 1.363 . S
C381 N378 1.377 . S
C381 C394 1.479 . S
C382 C379 1.480 . S
C382 C383 1.383 . S
C382 C387 1.385 . S
C383 H364 0.947 . S
C383 C382 1.383 . S
C383 C384 1.388 . S
C384 H365 0.946 . S
C384 C383 1.388 . S
C384 C385 1.384 . S
C385 C384 1.384 . S
C385 C386 1.377 . S
C386 H366 0.953 . S
C386 C385 1.377 . S
C386 C387 1.369 . S
C387 H367 0.945 . S
C387 C382 1.385 . S
C387 C386 1.369 . S
C388 C380 1.457 . S
C388 C389 1.372 . S
C388 C393 1.364 . S
C389 H368 0.952 . S
C389 C388 1.372 . S
C389 C390 1.389 . S
C390 H369 0.949 . S
C390 C389 1.389 . S
C390 C391 1.387 . S
C391 C390 1.387 . S
C391 C392 1.372 . S
C392 H370 0.950 . S
C392 C391 1.372 . S
C392 C393 1.379 . S
C393 H371 0.948 . S
C393 C388 1.364 . S
C393 C392 1.379 . S
C394 C363 1.383 . S
C394 C381 1.479 . S
C394 C395 1.398 . S
C395 C360 1.382 . S
C395 H372 0.951 . S
C395 C394 1.398 . S
C396 C397 1.384 . S
C396 H409 0.947 . S
C396 C431 1.382 . S
C397 C396 1.384 . S
C397 C398 1.378 . S
C398 C397 1.378 . S
C398 C399 1.378 . S
C398 H410 0.952 . S
C399 C398 1.378 . S
C399 H411 0.950 . S
C399 C430 1.383 . S
H400 C419 0.947 . S
H401 C420 0.946 . S
H402 C422 0.953 . S
H403 C423 0.945 . S
H404 C425 0.952 . S
H405 C426 0.949 . S
H406 C428 0.950 . S
H407 C429 0.948 . S
H408 C431 0.951 . S
H409 C396 0.947 . S
H410 C398 0.952 . S
H411 C399 0.950 . S
N412 C415 1.382 . S
N412 C417 1.363 . S
N413 C415 1.371 . S
N413 C416 1.372 . S
N414 C416 1.361 . S
N414 C417 1.377 . S
C415 N412 1.382 . S
C415 N413 1.371 . S
C415 C418 1.480 . S
C416 N413 1.372 . S
C416 N414 1.361 . S
C416 C424 1.457 . S
C417 N412 1.363 . S
C417 N414 1.377 . S
C417 C430 1.479 . S
C418 C415 1.480 . S
C418 C419 1.383 . S
C418 C423 1.385 . S
C419 H400 0.947 . S
C419 C418 1.383 . S
C419 C420 1.388 . S
C420 H401 0.946 . S
C420 C419 1.388 . S
C420 C421 1.384 . S
C421 C420 1.384 . S
C421 C422 1.377 . S
C422 H402 0.953 . S
C422 C421 1.377 . S
C422 C423 1.369 . S
C423 H403 0.945 . S
C423 C418 1.385 . S
C423 C422 1.369 . S
C424 C416 1.457 . S
C424 C425 1.372 . S
C424 C429 1.364 . S
C425 H404 0.952 . S
C425 C424 1.372 . S
C425 C426 1.389 . S
C426 H405 0.949 . S
C426 C425 1.389 . S
C426 C427 1.387 . S
C427 C426 1.387 . S
C427 C428 1.372 . S
C428 H406 0.950 . S
C428 C427 1.372 . S
C428 C429 1.379 . S
C429 H407 0.948 . S
C429 C424 1.364 . S
C429 C428 1.379 . S
C430 C399 1.383 . S
C430 C417 1.479 . S
C430 C431 1.398 . S
C431 C396 1.382 . S
C431 H408 0.951 . S
C431 C430 1.398 . S
C432 C433 1.384 . S
C432 H445 0.947 . S
C432 C467 1.382 . S
C433 C432 1.384 . S
C433 C434 1.378 . S
C434 C433 1.378 . S
C434 C435 1.378 . S
C434 H446 0.952 . S
C435 C434 1.378 . S
C435 H447 0.950 . S
C435 C466 1.383 . S
H436 C455 0.947 . S
H437 C456 0.946 . S
H438 C458 0.953 . S
H439 C459 0.945 . S
H440 C461 0.952 . S
H441 C462 0.949 . S
H442 C464 0.950 . S
H443 C465 0.948 . S
H444 C467 0.951 . S
H445 C432 0.947 . S
H446 C434 0.952 . S
H447 C435 0.950 . S
N448 C451 1.382 . S
N448 C453 1.363 . S
N449 C451 1.371 . S
N449 C452 1.372 . S
N450 C452 1.361 . S
N450 C453 1.377 . S
C451 N448 1.382 . S
C451 N449 1.371 . S
C451 C454 1.480 . S
C452 N449 1.372 . S
C452 N450 1.361 . S
C452 C460 1.457 . S
C453 N448 1.363 . S
C453 N450 1.377 . S
C453 C466 1.479 . S
C454 C451 1.480 . S
C454 C455 1.383 . S
C454 C459 1.385 . S
C455 H436 0.947 . S
C455 C454 1.383 . S
C455 C456 1.388 . S
C456 H437 0.946 . S
C456 C455 1.388 . S
C456 C457 1.384 . S
C457 C456 1.384 . S
C457 C458 1.377 . S
C458 H438 0.953 . S
C458 C457 1.377 . S
C458 C459 1.369 . S
C459 H439 0.945 . S
C459 C454 1.385 . S
C459 C458 1.369 . S
C460 C452 1.457 . S
C460 C461 1.372 . S
C460 C465 1.364 . S
C461 H440 0.952 . S
C461 C460 1.372 . S
C461 C462 1.389 . S
C462 H441 0.949 . S
C462 C461 1.389 . S
C462 C463 1.387 . S
C463 C462 1.387 . S
C463 C464 1.372 . S
C464 H442 0.950 . S
C464 C463 1.372 . S
C464 C465 1.379 . S
C465 H443 0.948 . S
C465 C460 1.364 . S
C465 C464 1.379 . S
C466 C435 1.383 . S
C466 C453 1.479 . S
C466 C467 1.398 . S
C467 C432 1.382 . S
C467 H444 0.951 . S
C467 C466 1.398 . S
C468 C469 1.384 . S
C468 H481 0.947 . S
C468 C503 1.382 . S
C469 C468 1.384 . S
C469 C470 1.378 . S
C470 C469 1.378 . S
C470 C471 1.378 1_554 S
C470 H482 0.951 1_554 S
C471 C470 1.378 1_556 S
C471 H483 0.950 . S
C471 C502 1.383 . S
H472 C491 0.947 . S
H473 C492 0.946 . S
H474 C494 0.953 . S
H475 C495 0.945 . S
H476 C497 0.952 . S
H477 C498 0.949 . S
H478 C500 0.950 1_554 S
H479 C501 0.948 . S
H480 C503 0.951 . S
H481 C468 0.947 . S
H482 C470 0.951 1_556 S
H483 C471 0.950 . S
N484 C487 1.382 . S
N484 C489 1.363 . S
N485 C487 1.371 . S
N485 C488 1.372 . S
N486 C488 1.361 . S
N486 C489 1.377 . S
C487 N484 1.382 . S
C487 N485 1.371 . S
C487 C490 1.480 . S
C488 N485 1.372 . S
C488 N486 1.361 . S
C488 C496 1.457 . S
C489 N484 1.363 . S
C489 N486 1.377 . S
C489 C502 1.479 . S
C490 C487 1.480 . S
C490 C491 1.383 . S
C490 C495 1.385 . S
C491 H472 0.947 . S
C491 C490 1.383 . S
C491 C492 1.388 . S
C492 H473 0.946 . S
C492 C491 1.388 . S
C492 C493 1.384 . S
C493 C492 1.384 . S
C493 C494 1.377 . S
C494 H474 0.953 . S
C494 C493 1.377 . S
C494 C495 1.369 . S
C495 H475 0.945 . S
C495 C490 1.385 . S
C495 C494 1.369 . S
C496 C488 1.457 . S
C496 C497 1.372 . S
C496 C501 1.364 . S
C497 H476 0.952 . S
C497 C496 1.372 . S
C497 C498 1.389 . S
C498 H477 0.949 . S
C498 C497 1.389 . S
C498 C499 1.387 . S
C499 C498 1.387 . S
C499 C500 1.372 . S
C500 H478 0.950 1_556 S
C500 C499 1.372 . S
C500 C501 1.379 . S
C501 H479 0.948 . S
C501 C496 1.364 . S
C501 C500 1.379 . S
C502 C471 1.383 . S
C502 C489 1.479 . S
C502 C503 1.398 1_556 S
C503 C468 1.382 . S
C503 H480 0.951 . S
C503 C502 1.398 1_554 S
C504 C505 1.384 . S
C504 H517 0.947 . S
C504 C539 1.382 . S
C505 C504 1.384 . S
C505 C506 1.378 . S
C506 C505 1.378 . S
C506 C507 1.378 . S
C506 H518 0.952 . S
C507 C506 1.378 . S
C507 H519 0.950 . S
C507 C538 1.383 . S
H508 C527 0.947 . S
H509 C528 0.946 . S
H510 C530 0.953 . S
H511 C531 0.945 . S
H512 C533 0.952 . S
H513 C534 0.949 . S
H514 C536 0.950 . S
H515 C537 0.948 . S
H516 C539 0.951 . S
H517 C504 0.947 . S
H518 C506 0.952 . S
H519 C507 0.950 . S
N520 C523 1.382 . S
N520 C525 1.363 . S
N521 C523 1.371 . S
N521 C524 1.372 . S
N522 C524 1.361 . S
N522 C525 1.377 . S
C523 N520 1.382 . S
C523 N521 1.371 . S
C523 C526 1.480 . S
C524 N521 1.372 . S
C524 N522 1.361 . S
C524 C532 1.457 . S
C525 N520 1.363 . S
C525 N522 1.377 . S
C525 C538 1.479 . S
C526 C523 1.480 . S
C526 C527 1.383 . S
C526 C531 1.385 . S
C527 H508 0.947 . S
C527 C526 1.383 . S
C527 C528 1.388 . S
C528 H509 0.946 . S
C528 C527 1.388 . S
C528 C529 1.384 . S
C529 C528 1.384 . S
C529 C530 1.377 . S
C530 H510 0.953 . S
C530 C529 1.377 . S
C530 C531 1.369 . S
C531 H511 0.945 . S
C531 C526 1.385 . S
C531 C530 1.369 . S
C532 C524 1.457 . S
C532 C533 1.372 . S
C532 C537 1.364 . S
C533 H512 0.952 . S
C533 C532 1.372 . S
C533 C534 1.389 . S
C534 H513 0.949 . S
C534 C533 1.389 . S
C534 C535 1.387 . S
C535 C534 1.387 . S
C535 C536 1.372 . S
C536 H514 0.950 . S
C536 C535 1.372 . S
C536 C537 1.379 . S
C537 H515 0.948 . S
C537 C532 1.364 . S
C537 C536 1.379 . S
C538 C507 1.383 . S
C538 C525 1.479 . S
C538 C539 1.398 . S
C539 C504 1.382 . S
C539 H516 0.951 . S
C539 C538 1.398 . S
C540 C541 1.384 . S
C540 H553 0.947 . S
C540 C575 1.382 1_554 S
C541 C540 1.384 . S
C541 C542 1.378 . S
C542 C541 1.378 . S
C542 C543 1.378 . S
C542 H554 0.952 . S
C543 C542 1.378 . S
C543 H555 0.950 . S
C543 C574 1.383 1_554 S
H544 C563 0.947 1_554 S
H545 C564 0.959 1_554 S
H546 C566 0.953 . S
H547 C567 0.945 . S
H548 C569 0.952 . S
H549 C570 0.949 1_565 S
H550 C572 0.950 . S
H551 C573 0.948 . S
H552 C575 0.951 . S
H553 C540 0.947 . S
H554 C542 0.952 . S
H555 C543 0.950 . S
N556 C559 1.382 . S
N556 C561 1.363 . S
N557 C559 1.371 . S
N557 C560 1.372 . S
N558 C560 1.361 . S
N558 C561 1.377 . S
C559 N556 1.382 . S
C559 N557 1.371 . S
C559 C562 1.480 . S
C560 N557 1.372 . S
C560 N558 1.361 . S
C560 C568 1.457 . S
C561 N556 1.363 . S
C561 N558 1.377 . S
C561 C574 1.479 . S
C562 C559 1.480 . S
C562 C563 1.383 . S
C562 C567 1.385 1_545 S
C563 H544 0.947 1_556 S
C563 C562 1.383 . S
C563 C564 1.388 1_545 S
C564 H545 0.959 1_556 S
C564 C563 1.388 1_565 S
C564 C565 1.384 . S
C565 C564 1.384 . S
C565 C566 1.377 . S
C566 H546 0.953 . S
C566 C565 1.377 . S
C566 C567 1.369 . S
C567 H547 0.945 . S
C567 C562 1.385 1_565 S
C567 C566 1.369 . S
C568 C560 1.457 . S
C568 C569 1.372 . S
C568 C573 1.364 . S
C569 H548 0.952 . S
C569 C568 1.372 . S
C569 C570 1.389 . S
C570 H549 0.949 1_545 S
C570 C569 1.389 . S
C570 C571 1.387 . S
C571 C570 1.387 . S
C571 C572 1.372 . S
C572 H550 0.950 . S
C572 C571 1.372 . S
C572 C573 1.379 . S
C573 H551 0.948 . S
C573 C568 1.364 . S
C573 C572 1.379 . S
C574 C543 1.383 1_556 S
C574 C561 1.479 . S
C574 C575 1.398 . S
C575 C540 1.382 1_556 S
C575 H552 0.951 . S
C575 C574 1.398 . S
Li576 N593 1.990 . S
Li576 O636 1.956 . S
Li576 O637 1.970 1_556 S
Li576 O638 1.961 . S
Li577 N601 1.990 . S
Li577 O636 1.970 1_554 S
Li577 O637 1.956 . S
Li577 O639 1.961 . S
Li578 N623 1.990 . S
Li578 O636 1.961 . S
Li578 O638 1.956 . S
Li578 O639 1.970 1_556 S
Li579 N629 1.990 . S
Li579 O637 1.961 . S
Li579 O638 1.970 1_554 S
Li579 O639 1.956 . S
C580 C582 1.348 1_556 S
C580 C583 1.356 . S
C580 O636 1.325 . S
N581 C584 1.314 1_556 S
N581 C585 1.279 . S
C582 C580 1.348 1_554 S
C582 C584 1.353 . S
C582 H640 0.929 . S
C583 C580 1.356 . S
C583 C585 1.358 . S
C583 H641 0.930 . S
C584 N581 1.314 1_554 S
C584 C582 1.353 . S
C584 H642 0.930 . S
C585 N581 1.279 . S
C585 C583 1.358 . S
C585 H643 0.930 . S
C586 C589 1.348 . S
C586 C590 1.356 . S
C586 O637 1.325 . S
C587 N588 1.279 . S
C587 C590 1.358 . S
C587 H644 0.930 . S
N588 C587 1.279 . S
N588 C591 1.314 . S
C589 C586 1.348 . S
C589 C591 1.353 . S
C589 H645 0.929 . S
C590 C586 1.356 . S
C590 C587 1.358 . S
C590 H646 0.930 . S
C591 N588 1.314 . S
C591 C589 1.353 . S
C591 H647 0.930 . S
C592 N593 1.314 . S
C592 C597 1.353 . S
C592 H598 0.930 . S
N593 Li576 1.990 . S
N593 C592 1.314 . S
N593 C595 1.279 . S
C594 C595 1.358 . S
C594 C596 1.356 . S
C594 H648 0.930 . S
C595 N593 1.279 . S
C595 C594 1.358 . S
C595 H599 0.930 . S
C596 C594 1.356 . S
C596 C597 1.348 . S
C597 C592 1.353 . S
C597 C596 1.348 . S
C597 H649 0.929 . S
H598 C592 0.930 . S
H599 C595 0.930 . S
C600 N601 1.314 . S
C600 C602 1.353 . S
C600 H606 0.930 . S
N601 Li577 1.990 . S
N601 C600 1.314 . S
N601 C604 1.279 . S
C602 C600 1.353 . S
C602 C605 1.348 . S
C602 H650 0.929 . S
C603 C604 1.358 . S
C603 C605 1.356 . S
C603 H651 0.930 . S
C604 N601 1.279 . S
C604 C603 1.358 . S
C604 H607 0.930 . S
C605 C602 1.348 . S
C605 C603 1.356 . S
H606 C600 0.930 . S
H607 C604 0.930 . S
C608 C610 1.348 . S
C608 C611 1.356 . S
C608 O638 1.325 . S
N609 C612 1.314 . S
N609 C613 1.279 . S
C610 C608 1.348 . S
C610 C612 1.353 . S
C610 H652 0.929 . S
C611 C608 1.356 . S
C611 C613 1.358 . S
C611 H653 0.930 . S
C612 N609 1.314 . S
C612 C610 1.353 . S
C612 H654 0.930 . S
C613 N609 1.279 . S
C613 C611 1.358 . S
C613 H655 0.930 . S
C614 C615 1.348 1_554 S
C614 C616 1.356 . S
C614 O639 1.325 . S
C615 C614 1.348 1_556 S
C615 C617 1.353 . S
C615 H656 0.929 . S
C616 C614 1.356 . S
C616 C618 1.358 . S
C616 H657 0.930 . S
C617 C615 1.353 . S
C617 N619 1.314 1_556 S
C617 H658 0.930 . S
C618 C616 1.358 . S
C618 N619 1.279 . S
C618 H659 0.930 . S
N619 C617 1.314 1_554 S
N619 C618 1.279 . S
C620 C622 1.353 . S
C620 N623 1.314 . S
C620 H626 0.930 . S
C621 N623 1.279 . S
C621 C624 1.358 . S
C621 H627 0.930 . S
C622 C620 1.353 . S
C622 C625 1.348 . S
C622 H660 0.929 . S
N623 Li578 1.990 . S
N623 C620 1.314 . S
N623 C621 1.279 . S
C624 C621 1.358 . S
C624 C625 1.356 . S
C624 H661 0.930 . S
C625 C622 1.348 . S
C625 C624 1.356 . S
H626 C620 0.930 . S
H627 C621 0.930 . S
C628 N629 1.314 . S
C628 C630 1.353 . S
C628 H634 0.930 . S
N629 Li579 1.990 . S
N629 C628 1.314 . S
N629 C632 1.279 . S
C630 C628 1.353 . S
C630 C633 1.348 . S
C630 H662 0.929 . S
C631 C632 1.358 . S
C631 C633 1.356 . S
C631 H663 0.930 . S
C632 N629 1.279 . S
C632 C631 1.358 . S
C632 H635 0.930 . S
C633 C630 1.348 . S
C633 C631 1.356 . S
H634 C628 0.930 . S
H635 C632 0.930 . S
O636 Li576 1.956 . S
O636 Li577 1.970 1_556 S
O636 Li578 1.961 . S
O636 C580 1.325 . S
O637 Li576 1.970 1_554 S
O637 Li577 1.956 . S
O637 Li579 1.961 . S
O637 C586 1.325 . S
O638 Li576 1.961 . S
O638 Li578 1.956 . S
O638 Li579 1.970 1_556 S
O638 C608 1.325 . S
O639 Li577 1.961 . S
O639 Li578 1.970 1_554 S
O639 Li579 1.956 . S
O639 C614 1.325 . S
H640 C582 0.929 . S
H641 C583 0.930 . S
H642 C584 0.930 . S
H643 C585 0.930 . S
H644 C587 0.930 . S
H645 C589 0.929 . S
H646 C590 0.930 . S
H647 C591 0.930 . S
H648 C594 0.930 . S
H649 C597 0.929 . S
H650 C602 0.929 . S
H651 C603 0.930 . S
H652 C610 0.929 . S
H653 C611 0.930 . S
H654 C612 0.930 . S
H655 C613 0.930 . S
H656 C615 0.929 . S
H657 C616 0.930 . S
H658 C617 0.930 . S
H659 C618 0.930 . S
H660 C622 0.929 . S
H661 C624 0.930 . S
H662 C630 0.929 . S
H663 C631 0.930 . S
Li664 N681 1.990 . S
Li664 O724 1.956 . S
Li664 O725 1.970 . S
Li664 O726 1.961 . S
Li665 N689 1.990 . S
Li665 O724 1.970 . S
Li665 O725 1.956 . S
Li665 O727 1.961 . S
Li666 N711 1.990 . S
Li666 O724 1.961 . S
Li666 O726 1.956 . S
Li666 O727 1.970 . S
Li667 N717 1.990 . S
Li667 O725 1.961 . S
Li667 O726 1.970 . S
Li667 O727 1.956 . S
C668 C670 1.348 . S
C668 C671 1.356 . S
C668 O724 1.325 . S
N669 C672 1.314 . S
N669 C673 1.279 . S
C670 C668 1.348 . S
C670 C672 1.353 . S
C670 H728 0.929 . S
C671 C668 1.356 . S
C671 C673 1.358 . S
C671 H729 0.930 . S
C672 N669 1.314 . S
C672 C670 1.353 . S
C672 H730 0.930 . S
C673 N669 1.279 . S
C673 C671 1.358 . S
C673 H731 0.930 . S
C674 C677 1.348 . S
C674 C678 1.356 . S
C674 O725 1.325 . S
C675 N676 1.279 . S
C675 C678 1.358 . S
C675 H732 0.930 . S
N676 C675 1.279 . S
N676 C679 1.314 . S
C677 C674 1.348 . S
C677 C679 1.353 . S
C677 H733 0.929 . S
C678 C674 1.356 . S
C678 C675 1.358 . S
C678 H734 0.930 . S
C679 N676 1.314 . S
C679 C677 1.353 . S
C679 H735 0.930 . S
C680 N681 1.314 . S
C680 C685 1.353 . S
C680 H686 0.930 . S
N681 Li664 1.990 . S
N681 C680 1.314 . S
N681 C683 1.279 . S
C682 C683 1.358 . S
C682 C684 1.356 . S
C682 H736 0.930 . S
C683 N681 1.279 . S
C683 C682 1.358 . S
C683 H687 0.930 . S
C684 C682 1.356 . S
C684 C685 1.348 . S
C685 C680 1.353 . S
C685 C684 1.348 . S
C685 H737 0.929 . S
H686 C680 0.930 . S
H687 C683 0.930 . S
C688 N689 1.314 . S
C688 C690 1.353 . S
C688 H694 0.930 . S
N689 Li665 1.990 . S
N689 C688 1.314 . S
N689 C692 1.279 . S
C690 C688 1.353 . S
C690 C693 1.348 . S
C690 H738 0.929 . S
C691 C692 1.358 . S
C691 C693 1.356 . S
C691 H739 0.930 . S
C692 N689 1.279 . S
C692 C691 1.358 . S
C692 H695 0.930 . S
C693 C690 1.348 . S
C693 C691 1.356 . S
H694 C688 0.930 . S
H695 C692 0.930 . S
C696 C698 1.348 . S
C696 C699 1.356 . S
C696 O726 1.325 . S
N697 C700 1.314 . S
N697 C701 1.279 . S
C698 C696 1.348 . S
C698 C700 1.353 . S
C698 H740 0.929 . S
C699 C696 1.356 . S
C699 C701 1.358 . S
C699 H741 0.930 . S
C700 N697 1.314 . S
C700 C698 1.353 . S
C700 H742 0.930 . S
C701 N697 1.279 . S
C701 C699 1.358 . S
C701 H743 0.930 . S
C702 C703 1.348 . S
C702 C704 1.356 . S
C702 O727 1.325 . S
C703 C702 1.348 . S
C703 C705 1.353 . S
C703 H744 0.929 . S
C704 C702 1.356 . S
C704 C706 1.358 . S
C704 H745 0.930 . S
C705 C703 1.353 . S
C705 N707 1.314 . S
C705 H746 0.930 . S
C706 C704 1.358 . S
C706 N707 1.279 . S
C706 H747 0.930 . S
N707 C705 1.314 . S
N707 C706 1.279 . S
C708 C710 1.353 . S
C708 N711 1.314 . S
C708 H714 0.930 . S
C709 N711 1.279 . S
C709 C712 1.358 . S
C709 H715 0.930 . S
C710 C708 1.353 . S
C710 C713 1.348 . S
C710 H748 0.929 . S
N711 Li666 1.990 . S
N711 C708 1.314 . S
N711 C709 1.279 . S
C712 C709 1.358 . S
C712 C713 1.356 . S
C712 H749 0.930 . S
C713 C710 1.348 . S
C713 C712 1.356 . S
H714 C708 0.930 . S
H715 C709 0.930 . S
C716 N717 1.314 . S
C716 C718 1.353 . S
C716 H722 0.930 . S
N717 Li667 1.990 . S
N717 C716 1.314 . S
N717 C720 1.279 . S
C718 C716 1.353 . S
C718 C721 1.348 . S
C718 H750 0.929 . S
C719 C720 1.358 . S
C719 C721 1.356 . S
C719 H751 0.930 . S
C720 N717 1.279 . S
C720 C719 1.358 . S
C720 H723 0.930 . S
C721 C718 1.348 . S
C721 C719 1.356 . S
H722 C716 0.930 . S
H723 C720 0.930 . S
O724 Li664 1.956 . S
O724 Li665 1.970 . S
O724 Li666 1.961 . S
O724 C668 1.325 . S
O725 Li664 1.970 . S
O725 Li665 1.956 . S
O725 Li667 1.961 . S
O725 C674 1.325 . S
O726 Li664 1.961 . S
O726 Li666 1.956 . S
O726 Li667 1.970 . S
O726 C696 1.325 . S
O727 Li665 1.961 . S
O727 Li666 1.970 . S
O727 Li667 1.956 . S
O727 C702 1.325 . S
H728 C670 0.929 . S
H729 C671 0.930 . S
H730 C672 0.930 . S
H731 C673 0.930 . S
H732 C675 0.930 . S
H733 C677 0.929 . S
H734 C678 0.930 . S
H735 C679 0.930 . S
H736 C682 0.930 . S
H737 C685 0.929 . S
H738 C690 0.929 . S
H739 C691 0.930 . S
H740 C698 0.929 . S
H741 C699 0.930 . S
H742 C700 0.930 . S
H743 C701 0.930 . S
H744 C703 0.929 . S
H745 C704 0.930 . S
H746 C705 0.930 . S
H747 C706 0.930 . S
H748 C710 0.929 . S
H749 C712 0.930 . S
H750 C718 0.929 . S
H751 C719 0.930 . S
Li752 N769 1.990 . S
Li752 O812 1.956 . S
Li752 O813 1.970 1_556 S
Li752 O814 1.961 . S
Li753 N777 1.990 . S
Li753 O812 1.970 1_554 S
Li753 O813 1.956 . S
Li753 O815 1.961 . S
Li754 N799 1.990 . S
Li754 O812 1.961 . S
Li754 O814 1.956 . S
Li754 O815 1.970 1_556 S
Li755 N805 1.990 . S
Li755 O813 1.961 . S
Li755 O814 1.970 1_554 S
Li755 O815 1.956 . S
C756 C758 1.348 1_556 S
C756 C759 1.356 . S
C756 O812 1.325 . S
N757 C760 1.314 1_556 S
N757 C761 1.279 . S
C758 C756 1.348 1_554 S
C758 C760 1.353 . S
C758 H816 0.929 . S
C759 C756 1.356 . S
C759 C761 1.358 . S
C759 H817 0.930 . S
C760 N757 1.314 1_554 S
C760 C758 1.353 . S
C760 H818 0.930 . S
C761 N757 1.279 . S
C761 C759 1.358 . S
C761 H819 0.930 . S
C762 C765 1.348 . S
C762 C766 1.356 . S
C762 O813 1.325 . S
C763 N764 1.279 . S
C763 C766 1.358 . S
C763 H820 0.930 . S
N764 C763 1.279 . S
N764 C767 1.314 . S
C765 C762 1.348 . S
C765 C767 1.353 . S
C765 H821 0.929 . S
C766 C762 1.356 . S
C766 C763 1.358 . S
C766 H822 0.930 . S
C767 N764 1.314 . S
C767 C765 1.353 . S
C767 H823 0.930 . S
C768 N769 1.314 . S
C768 C773 1.353 . S
C768 H774 0.930 . S
N769 Li752 1.990 . S
N769 C768 1.314 . S
N769 C771 1.279 . S
C770 C771 1.358 . S
C770 C772 1.356 . S
C770 H824 0.930 . S
C771 N769 1.279 . S
C771 C770 1.358 . S
C771 H775 0.930 . S
C772 C770 1.356 . S
C772 C773 1.348 . S
C773 C768 1.353 . S
C773 C772 1.348 . S
C773 H825 0.929 . S
H774 C768 0.930 . S
H775 C771 0.930 . S
C776 N777 1.314 . S
C776 C778 1.353 . S
C776 H782 0.930 . S
N777 Li753 1.990 . S
N777 C776 1.314 . S
N777 C780 1.279 . S
C778 C776 1.353 . S
C778 C781 1.348 . S
C778 H826 0.929 . S
C779 C780 1.358 . S
C779 C781 1.356 . S
C779 H827 0.930 . S
C780 N777 1.279 . S
C780 C779 1.358 . S
C780 H783 0.930 . S
C781 C778 1.348 . S
C781 C779 1.356 . S
H782 C776 0.930 . S
H783 C780 0.930 . S
C784 C786 1.348 . S
C784 C787 1.356 . S
C784 O814 1.325 . S
N785 C788 1.314 . S
N785 C789 1.279 . S
C786 C784 1.348 . S
C786 C788 1.353 . S
C786 H828 0.929 . S
C787 C784 1.356 . S
C787 C789 1.358 . S
C787 H829 0.930 . S
C788 N785 1.314 . S
C788 C786 1.353 . S
C788 H830 0.930 . S
C789 N785 1.279 . S
C789 C787 1.358 . S
C789 H831 0.930 . S
C790 C791 1.348 1_554 S
C790 C792 1.356 . S
C790 O815 1.325 . S
C791 C790 1.348 1_556 S
C791 C793 1.353 . S
C791 H832 0.929 . S
C792 C790 1.356 . S
C792 C794 1.358 . S
C792 H833 0.930 . S
C793 C791 1.353 . S
C793 N795 1.314 1_556 S
C793 H834 0.930 . S
C794 C792 1.358 . S
C794 N795 1.279 . S
C794 H835 0.930 . S
N795 C793 1.314 1_554 S
N795 C794 1.279 . S
C796 C798 1.353 . S
C796 N799 1.314 . S
C796 H802 0.930 . S
C797 N799 1.279 . S
C797 C800 1.358 . S
C797 H803 0.930 . S
C798 C796 1.353 . S
C798 C801 1.348 . S
C798 H836 0.929 . S
N799 Li754 1.990 . S
N799 C796 1.314 . S
N799 C797 1.279 . S
C800 C797 1.358 . S
C800 C801 1.356 . S
C800 H837 0.930 . S
C801 C798 1.348 . S
C801 C800 1.356 . S
H802 C796 0.930 . S
H803 C797 0.930 . S
C804 N805 1.314 . S
C804 C806 1.353 . S
C804 H810 0.930 . S
N805 Li755 1.990 . S
N805 C804 1.314 . S
N805 C808 1.279 . S
C806 C804 1.353 . S
C806 C809 1.348 . S
C806 H838 0.929 . S
C807 C808 1.358 . S
C807 C809 1.356 . S
C807 H839 0.930 . S
C808 N805 1.279 . S
C808 C807 1.358 . S
C808 H811 0.930 . S
C809 C806 1.348 . S
C809 C807 1.356 . S
H810 C804 0.930 . S
H811 C808 0.930 . S
O812 Li752 1.956 . S
O812 Li753 1.970 1_556 S
O812 Li754 1.961 . S
O812 C756 1.325 . S
O813 Li752 1.970 1_554 S
O813 Li753 1.956 . S
O813 Li755 1.961 . S
O813 C762 1.325 . S
O814 Li752 1.961 . S
O814 Li754 1.956 . S
O814 Li755 1.970 1_556 S
O814 C784 1.325 . S
O815 Li753 1.961 . S
O815 Li754 1.970 1_554 S
O815 Li755 1.956 . S
O815 C790 1.325 . S
H816 C758 0.929 . S
H817 C759 0.930 . S
H818 C760 0.930 . S
H819 C761 0.930 . S
H820 C763 0.930 . S
H821 C765 0.929 . S
H822 C766 0.930 . S
H823 C767 0.930 . S
H824 C770 0.930 . S
H825 C773 0.929 . S
H826 C778 0.929 . S
H827 C779 0.930 . S
H828 C786 0.929 . S
H829 C787 0.930 . S
H830 C788 0.930 . S
H831 C789 0.930 . S
H832 C791 0.929 . S
H833 C792 0.930 . S
H834 C793 0.930 . S
H835 C794 0.930 . S
H836 C798 0.929 . S
H837 C800 0.930 . S
H838 C806 0.929 . S
H839 C807 0.930 . S
Li840 N857 1.990 . S
Li840 O900 1.956 . S
Li840 O901 1.970 1_545 S
Li840 O902 1.961 . S
Li841 N865 1.990 . S
Li841 O900 1.970 1_565 S
Li841 O901 1.956 . S
Li841 O903 1.961 . S
Li842 N887 1.990 . S
Li842 O900 1.961 . S
Li842 O902 1.956 . S
Li842 O903 1.970 1_545 S
Li843 N893 1.990 . S
Li843 O901 1.961 . S
Li843 O902 1.970 1_565 S
Li843 O903 1.956 . S
C844 C846 1.348 . S
C844 C847 1.356 . S
C844 O900 1.325 . S
N845 C848 1.314 . S
N845 C849 1.279 . S
C846 C844 1.348 . S
C846 C848 1.353 . S
C846 H904 0.929 . S
C847 C844 1.356 . S
C847 C849 1.358 . S
C847 H905 0.930 . S
C848 N845 1.314 . S
C848 C846 1.353 . S
C848 H906 0.930 . S
C849 N845 1.279 . S
C849 C847 1.358 . S
C849 H907 0.930 . S
C850 C853 1.348 1_565 S
C850 C854 1.356 . S
C850 O901 1.325 . S
C851 N852 1.279 . S
C851 C854 1.358 . S
C851 H908 0.930 . S
N852 C851 1.279 . S
N852 C855 1.314 1_565 S
C853 C850 1.348 1_545 S
C853 C855 1.353 . S
C853 H909 0.929 . S
C854 C850 1.356 . S
C854 C851 1.358 . S
C854 H910 0.930 . S
C855 N852 1.314 1_545 S
C855 C853 1.353 . S
C855 H911 0.930 . S
C856 N857 1.314 . S
C856 C861 1.353 . S
C856 H862 0.930 . S
N857 Li840 1.990 . S
N857 C856 1.314 . S
N857 C859 1.279 . S
C858 C859 1.358 . S
C858 C860 1.356 . S
C858 H912 0.930 . S
C859 N857 1.279 . S
C859 C858 1.358 . S
C859 H863 0.930 . S
C860 C858 1.356 . S
C860 C861 1.348 . S
C861 C856 1.353 . S
C861 C860 1.348 . S
C861 H913 0.929 . S
H862 C856 0.930 . S
H863 C859 0.930 . S
C864 N865 1.314 . S
C864 C866 1.353 . S
C864 H870 0.930 . S
N865 Li841 1.990 . S
N865 C864 1.314 . S
N865 C868 1.279 . S
C866 C864 1.353 . S
C866 C869 1.348 . S
C866 H914 0.929 . S
C867 C868 1.358 . S
C867 C869 1.356 . S
C867 H915 0.930 . S
C868 N865 1.279 . S
C868 C867 1.358 . S
C868 H871 0.930 . S
C869 C866 1.348 . S
C869 C867 1.356 . S
H870 C864 0.930 . S
H871 C868 0.930 . S
C872 C874 1.348 1_545 S
C872 C875 1.356 . S
C872 O902 1.325 . S
N873 C876 1.314 1_545 S
N873 C877 1.279 . S
C874 C872 1.348 1_565 S
C874 C876 1.353 . S
C874 H916 0.929 . S
C875 C872 1.356 . S
C875 C877 1.358 . S
C875 H917 0.930 . S
C876 N873 1.314 1_565 S
C876 C874 1.353 . S
C876 H918 0.930 . S
C877 N873 1.279 . S
C877 C875 1.358 . S
C877 H919 0.930 . S
C878 C879 1.348 . S
C878 C880 1.356 . S
C878 O903 1.325 . S
C879 C878 1.348 . S
C879 C881 1.353 . S
C879 H920 0.929 . S
C880 C878 1.356 . S
C880 C882 1.358 . S
C880 H921 0.930 . S
C881 C879 1.353 . S
C881 N883 1.314 . S
C881 H922 0.930 . S
C882 C880 1.358 . S
C882 N883 1.279 . S
C882 H923 0.930 . S
N883 C881 1.314 . S
N883 C882 1.279 . S
C884 C886 1.353 . S
C884 N887 1.314 . S
C884 H890 0.930 . S
C885 N887 1.279 . S
C885 C888 1.358 . S
C885 H891 0.930 . S
C886 C884 1.353 . S
C886 C889 1.348 . S
C886 H924 0.929 . S
N887 Li842 1.990 . S
N887 C884 1.314 . S
N887 C885 1.279 . S
C888 C885 1.358 . S
C888 C889 1.356 . S
C888 H925 0.930 . S
C889 C886 1.348 . S
C889 C888 1.356 . S
H890 C884 0.930 . S
H891 C885 0.930 . S
C892 N893 1.314 . S
C892 C894 1.353 . S
C892 H898 0.930 . S
N893 Li843 1.990 . S
N893 C892 1.314 . S
N893 C896 1.279 . S
C894 C892 1.353 . S
C894 C897 1.348 . S
C894 H926 0.929 . S
C895 C896 1.358 . S
C895 C897 1.356 . S
C895 H927 0.930 . S
C896 N893 1.279 . S
C896 C895 1.358 . S
C896 H899 0.930 . S
C897 C894 1.348 . S
C897 C895 1.356 . S
H898 C892 0.930 . S
H899 C896 0.930 . S
O900 Li840 1.956 . S
O900 Li841 1.970 1_545 S
O900 Li842 1.961 . S
O900 C844 1.325 . S
O901 Li840 1.970 1_565 S
O901 Li841 1.956 . S
O901 Li843 1.961 . S
O901 C850 1.325 . S
O902 Li840 1.961 . S
O902 Li842 1.956 . S
O902 Li843 1.970 1_545 S
O902 C872 1.325 . S
O903 Li841 1.961 . S
O903 Li842 1.970 1_565 S
O903 Li843 1.956 . S
O903 C878 1.325 . S
H904 C846 0.929 . S
H905 C847 0.930 . S
H906 C848 0.930 . S
H907 C849 0.930 . S
H908 C851 0.930 . S
H909 C853 0.929 . S
H910 C854 0.930 . S
H911 C855 0.930 . S
H912 C858 0.930 . S
H913 C861 0.929 . S
H914 C866 0.929 . S
H915 C867 0.930 . S
H916 C874 0.929 . S
H917 C875 0.930 . S
H918 C876 0.930 . S
H919 C877 0.930 . S
H920 C879 0.929 . S
H921 C880 0.930 . S
H922 C881 0.930 . S
H923 C882 0.930 . S
H924 C886 0.929 . S
H925 C888 0.930 . S
H926 C894 0.929 . S
H927 C895 0.930 . S
Li928 N945 1.990 . S
Li928 O988 1.956 . S
Li928 O989 1.970 . S
Li928 O990 1.961 . S
Li929 N953 1.990 . S
Li929 O988 1.970 . S
Li929 O989 1.956 . S
Li929 O991 1.961 . S
Li930 N975 1.990 . S
Li930 O988 1.961 . S
Li930 O990 1.956 . S
Li930 O991 1.970 . S
Li931 N981 1.990 . S
Li931 O989 1.961 . S
Li931 O990 1.970 . S
Li931 O991 1.956 . S
C932 C934 1.348 . S
C932 C935 1.356 . S
C932 O988 1.325 . S
N933 C936 1.314 . S
N933 C937 1.279 . S
C934 C932 1.348 . S
C934 C936 1.353 . S
C934 H992 0.929 . S
C935 C932 1.356 . S
C935 C937 1.358 . S
C935 H993 0.930 . S
C936 N933 1.314 . S
C936 C934 1.353 . S
C936 H994 0.930 . S
C937 N933 1.279 . S
C937 C935 1.358 . S
C937 H995 0.930 . S
C938 C941 1.348 . S
C938 C942 1.356 . S
C938 O989 1.325 . S
C939 N940 1.279 . S
C939 C942 1.358 . S
C939 H996 0.930 . S
N940 C939 1.279 . S
N940 C943 1.314 . S
C941 C938 1.348 . S
C941 C943 1.353 . S
C941 H997 0.929 . S
C942 C938 1.356 . S
C942 C939 1.358 . S
C942 H998 0.930 . S
C943 N940 1.314 . S
C943 C941 1.353 . S
C943 H999 0.930 . S
C944 N945 1.314 . S
C944 C949 1.353 . S
C944 H950 0.930 . S
N945 Li928 1.990 . S
N945 C944 1.314 . S
N945 C947 1.279 . S
C946 C947 1.358 . S
C946 C948 1.356 . S
C946 H1000 0.930 . S
C947 N945 1.279 . S
C947 C946 1.358 . S
C947 H951 0.930 . S
C948 C946 1.356 . S
C948 C949 1.348 . S
C949 C944 1.353 . S
C949 C948 1.348 . S
C949 H1001 0.929 . S
H950 C944 0.930 . S
H951 C947 0.930 . S
C952 N953 1.314 . S
C952 C954 1.353 . S
C952 H958 0.930 . S
N953 Li929 1.990 . S
N953 C952 1.314 . S
N953 C956 1.279 . S
C954 C952 1.353 . S
C954 C957 1.348 . S
C954 H1002 0.929 . S
C955 C956 1.358 . S
C955 C957 1.356 . S
C955 H1003 0.930 . S
C956 N953 1.279 . S
C956 C955 1.358 . S
C956 H959 0.930 . S
C957 C954 1.348 . S
C957 C955 1.356 . S
H958 C952 0.930 . S
H959 C956 0.930 . S
C960 C962 1.348 . S
C960 C963 1.356 . S
C960 O990 1.325 . S
N961 C964 1.314 . S
N961 C965 1.279 . S
C962 C960 1.348 . S
C962 C964 1.353 . S
C962 H1004 0.929 . S
C963 C960 1.356 . S
C963 C965 1.358 . S
C963 H1005 0.930 . S
C964 N961 1.314 . S
C964 C962 1.353 . S
C964 H1006 0.930 . S
C965 N961 1.279 . S
C965 C963 1.358 . S
C965 H1007 0.930 . S
C966 C967 1.348 . S
C966 C968 1.356 . S
C966 O991 1.325 . S
C967 C966 1.348 . S
C967 C969 1.353 . S
C967 H1008 0.929 . S
C968 C966 1.356 . S
C968 C970 1.358 . S
C968 H1009 0.930 . S
C969 C967 1.353 . S
C969 N971 1.314 . S
C969 H1010 0.930 . S
C970 C968 1.358 . S
C970 N971 1.279 . S
C970 H1011 0.930 . S
N971 C969 1.314 . S
N971 C970 1.279 . S
C972 C974 1.353 . S
C972 N975 1.314 . S
C972 H978 0.930 . S
C973 N975 1.279 . S
C973 C976 1.358 . S
C973 H979 0.930 . S
C974 C972 1.353 . S
C974 C977 1.348 . S
C974 H1012 0.929 . S
N975 Li930 1.990 . S
N975 C972 1.314 . S
N975 C973 1.279 . S
C976 C973 1.358 . S
C976 C977 1.356 . S
C976 H1013 0.930 . S
C977 C974 1.348 . S
C977 C976 1.356 . S
H978 C972 0.930 . S
H979 C973 0.930 . S
C980 N981 1.314 . S
C980 C982 1.353 . S
C980 H986 0.930 . S
N981 Li931 1.990 . S
N981 C980 1.314 . S
N981 C984 1.279 . S
C982 C980 1.353 . S
C982 C985 1.348 . S
C982 H1014 0.929 . S
C983 C984 1.358 . S
C983 C985 1.356 . S
C983 H1015 0.930 . S
C984 N981 1.279 . S
C984 C983 1.358 . S
C984 H987 0.930 . S
C985 C982 1.348 . S
C985 C983 1.356 . S
H986 C980 0.930 . S
H987 C984 0.930 . S
O988 Li928 1.956 . S
O988 Li929 1.970 . S
O988 Li930 1.961 . S
O988 C932 1.325 . S
O989 Li928 1.970 . S
O989 Li929 1.956 . S
O989 Li931 1.961 . S
O989 C938 1.325 . S
O990 Li928 1.961 . S
O990 Li930 1.956 . S
O990 Li931 1.970 . S
O990 C960 1.325 . S
O991 Li929 1.961 . S
O991 Li930 1.970 . S
O991 Li931 1.956 . S
O991 C966 1.325 . S
H992 C934 0.929 . S
H993 C935 0.930 . S
H994 C936 0.930 . S
H995 C937 0.930 . S
H996 C939 0.930 . S
H997 C941 0.929 . S
H998 C942 0.930 . S
H999 C943 0.930 . S
H1000 C946 0.930 . S
H1001 C949 0.929 . S
H1002 C954 0.929 . S
H1003 C955 0.930 . S
H1004 C962 0.929 . S
H1005 C963 0.930 . S
H1006 C964 0.930 . S
H1007 C965 0.930 . S
H1008 C967 0.929 . S
H1009 C968 0.930 . S
H1010 C969 0.930 . S
H1011 C970 0.930 . S
H1012 C974 0.929 . S
H1013 C976 0.930 . S
H1014 C982 0.929 . S
H1015 C983 0.930 . S
Li1016 N1033 1.990 . S
Li1016 O1076 1.956 . S
Li1016 O1077 1.970 . S
Li1016 O1078 1.961 . S
Li1017 N1041 1.990 . S
Li1017 O1076 1.970 . S
Li1017 O1077 1.956 . S
Li1017 O1079 1.961 . S
Li1018 N1063 1.990 . S
Li1018 O1076 1.961 . S
Li1018 O1078 1.956 . S
Li1018 O1079 1.970 . S
Li1019 N1069 1.990 . S
Li1019 O1077 1.961 . S
Li1019 O1078 1.970 . S
Li1019 O1079 1.956 . S
C1020 C1022 1.348 . S
C1020 C1023 1.356 . S
C1020 O1076 1.325 . S
N1021 C1024 1.314 . S
N1021 C1025 1.279 . S
C1022 C1020 1.348 . S
C1022 C1024 1.353 . S
C1022 H1080 0.929 . S
C1023 C1020 1.356 . S
C1023 C1025 1.358 . S
C1023 H1081 0.930 . S
C1024 N1021 1.314 . S
C1024 C1022 1.353 . S
C1024 H1082 0.930 . S
C1025 N1021 1.279 . S
C1025 C1023 1.358 . S
C1025 H1083 0.930 . S
C1026 C1029 1.348 . S
C1026 C1030 1.356 . S
C1026 O1077 1.325 . S
C1027 N1028 1.279 . S
C1027 C1030 1.358 . S
C1027 H1084 0.930 . S
N1028 C1027 1.279 . S
N1028 C1031 1.314 . S
C1029 C1026 1.348 . S
C1029 C1031 1.353 . S
C1029 H1085 0.929 . S
C1030 C1026 1.356 . S
C1030 C1027 1.358 . S
C1030 H1086 0.930 . S
C1031 N1028 1.314 . S
C1031 C1029 1.353 . S
C1031 H1087 0.930 . S
C1032 N1033 1.314 . S
C1032 C1037 1.353 . S
C1032 H1038 0.930 . S
N1033 Li1016 1.990 . S
N1033 C1032 1.314 . S
N1033 C1035 1.279 . S
C1034 C1035 1.358 . S
C1034 C1036 1.356 . S
C1034 H1088 0.930 . S
C1035 N1033 1.279 . S
C1035 C1034 1.358 . S
C1035 H1039 0.930 . S
C1036 C1034 1.356 . S
C1036 C1037 1.348 . S
C1037 C1032 1.353 . S
C1037 C1036 1.348 . S
C1037 H1089 0.929 . S
H1038 C1032 0.930 . S
H1039 C1035 0.930 . S
C1040 N1041 1.314 . S
C1040 C1042 1.353 . S
C1040 H1046 0.930 . S
N1041 Li1017 1.990 . S
N1041 C1040 1.314 . S
N1041 C1044 1.279 . S
C1042 C1040 1.353 . S
C1042 C1045 1.348 . S
C1042 H1090 0.929 . S
C1043 C1044 1.358 . S
C1043 C1045 1.356 . S
C1043 H1091 0.930 . S
C1044 N1041 1.279 . S
C1044 C1043 1.358 . S
C1044 H1047 0.930 . S
C1045 C1042 1.348 . S
C1045 C1043 1.356 . S
H1046 C1040 0.930 . S
H1047 C1044 0.930 . S
C1048 C1050 1.348 . S
C1048 C1051 1.356 . S
C1048 O1078 1.325 . S
N1049 C1052 1.314 . S
N1049 C1053 1.279 . S
C1050 C1048 1.348 . S
C1050 C1052 1.353 . S
C1050 H1092 0.929 . S
C1051 C1048 1.356 . S
C1051 C1053 1.358 . S
C1051 H1093 0.930 . S
C1052 N1049 1.314 . S
C1052 C1050 1.353 . S
C1052 H1094 0.930 . S
C1053 N1049 1.279 . S
C1053 C1051 1.358 . S
C1053 H1095 0.930 . S
C1054 C1055 1.348 . S
C1054 C1056 1.356 . S
C1054 O1079 1.325 . S
C1055 C1054 1.348 . S
C1055 C1057 1.353 . S
C1055 H1096 0.929 . S
C1056 C1054 1.356 . S
C1056 C1058 1.358 . S
C1056 H1097 0.930 . S
C1057 C1055 1.353 . S
C1057 N1059 1.314 . S
C1057 H1098 0.930 . S
C1058 C1056 1.358 . S
C1058 N1059 1.279 . S
C1058 H1099 0.930 . S
N1059 C1057 1.314 . S
N1059 C1058 1.279 . S
C1060 C1062 1.353 . S
C1060 N1063 1.314 . S
C1060 H1066 0.930 . S
C1061 N1063 1.279 . S
C1061 C1064 1.358 . S
C1061 H1067 0.930 . S
C1062 C1060 1.353 . S
C1062 C1065 1.348 . S
C1062 H1100 0.929 . S
N1063 Li1018 1.990 . S
N1063 C1060 1.314 . S
N1063 C1061 1.279 . S
C1064 C1061 1.358 . S
C1064 C1065 1.356 . S
C1064 H1101 0.930 . S
C1065 C1062 1.348 . S
C1065 C1064 1.356 . S
H1066 C1060 0.930 . S
H1067 C1061 0.930 . S
C1068 N1069 1.314 . S
C1068 C1070 1.353 . S
C1068 H1074 0.930 . S
N1069 Li1019 1.990 . S
N1069 C1068 1.314 . S
N1069 C1072 1.279 . S
C1070 C1068 1.353 . S
C1070 C1073 1.348 . S
C1070 H1102 0.929 . S
C1071 C1072 1.358 . S
C1071 C1073 1.356 . S
C1071 H1103 0.930 . S
C1072 N1069 1.279 . S
C1072 C1071 1.358 . S
C1072 H1075 0.930 . S
C1073 C1070 1.348 . S
C1073 C1071 1.356 . S
H1074 C1068 0.930 . S
H1075 C1072 0.930 . S
O1076 Li1016 1.956 . S
O1076 Li1017 1.970 . S
O1076 Li1018 1.961 . S
O1076 C1020 1.325 . S
O1077 Li1016 1.970 . S
O1077 Li1017 1.956 . S
O1077 Li1019 1.961 . S
O1077 C1026 1.325 . S
O1078 Li1016 1.961 . S
O1078 Li1018 1.956 . S
O1078 Li1019 1.970 . S
O1078 C1048 1.325 . S
O1079 Li1017 1.961 . S
O1079 Li1018 1.970 . S
O1079 Li1019 1.956 . S
O1079 C1054 1.325 . S
H1080 C1022 0.929 . S
H1081 C1023 0.930 . S
H1082 C1024 0.930 . S
H1083 C1025 0.930 . S
H1084 C1027 0.930 . S
H1085 C1029 0.929 . S
H1086 C1030 0.930 . S
H1087 C1031 0.930 . S
H1088 C1034 0.930 . S
H1089 C1037 0.929 . S
H1090 C1042 0.929 . S
H1091 C1043 0.930 . S
H1092 C1050 0.929 . S
H1093 C1051 0.930 . S
H1094 C1052 0.930 . S
H1095 C1053 0.930 . S
H1096 C1055 0.929 . S
H1097 C1056 0.930 . S
H1098 C1057 0.930 . S
H1099 C1058 0.930 . S
H1100 C1062 0.929 . S
H1101 C1064 0.930 . S
H1102 C1070 0.929 . S
H1103 C1071 0.930 . S
Li1104 N1121 1.990 . S
Li1104 O1164 1.956 . S
Li1104 O1165 1.970 . S
Li1104 O1166 1.961 . S
Li1105 N1129 1.990 . S
Li1105 O1164 1.970 . S
Li1105 O1165 1.956 . S
Li1105 O1167 1.961 . S
Li1106 N1151 1.990 . S
Li1106 O1164 1.961 . S
Li1106 O1166 1.956 . S
Li1106 O1167 1.970 . S
Li1107 N1157 1.990 . S
Li1107 O1165 1.961 . S
Li1107 O1166 1.970 . S
Li1107 O1167 1.956 . S
C1108 C1110 1.348 . S
C1108 C1111 1.356 . S
C1108 O1164 1.325 . S
N1109 C1112 1.314 . S
N1109 C1113 1.279 . S
C1110 C1108 1.348 . S
C1110 C1112 1.353 . S
C1110 H1168 0.929 . S
C1111 C1108 1.356 . S
C1111 C1113 1.358 . S
C1111 H1169 0.930 . S
C1112 N1109 1.314 . S
C1112 C1110 1.353 . S
C1112 H1170 0.930 . S
C1113 N1109 1.279 . S
C1113 C1111 1.358 . S
C1113 H1171 0.930 . S
C1114 C1117 1.348 . S
C1114 C1118 1.356 . S
C1114 O1165 1.325 . S
C1115 N1116 1.279 . S
C1115 C1118 1.358 . S
C1115 H1172 0.930 . S
N1116 C1115 1.279 . S
N1116 C1119 1.314 . S
C1117 C1114 1.348 . S
C1117 C1119 1.353 . S
C1117 H1173 0.929 . S
C1118 C1114 1.356 . S
C1118 C1115 1.358 . S
C1118 H1174 0.930 . S
C1119 N1116 1.314 . S
C1119 C1117 1.353 . S
C1119 H1175 0.930 . S
C1120 N1121 1.314 . S
C1120 C1125 1.353 . S
C1120 H1126 0.930 . S
N1121 Li1104 1.990 . S
N1121 C1120 1.314 . S
N1121 C1123 1.279 . S
C1122 C1123 1.358 . S
C1122 C1124 1.356 . S
C1122 H1176 0.930 . S
C1123 N1121 1.279 . S
C1123 C1122 1.358 . S
C1123 H1127 0.930 . S
C1124 C1122 1.356 . S
C1124 C1125 1.348 . S
C1125 C1120 1.353 . S
C1125 C1124 1.348 . S
C1125 H1177 0.929 . S
H1126 C1120 0.930 . S
H1127 C1123 0.930 . S
C1128 N1129 1.314 . S
C1128 C1130 1.353 . S
C1128 H1134 0.930 . S
N1129 Li1105 1.990 . S
N1129 C1128 1.314 . S
N1129 C1132 1.279 . S
C1130 C1128 1.353 . S
C1130 C1133 1.348 . S
C1130 H1178 0.929 . S
C1131 C1132 1.358 . S
C1131 C1133 1.356 . S
C1131 H1179 0.930 . S
C1132 N1129 1.279 . S
C1132 C1131 1.358 . S
C1132 H1135 0.930 . S
C1133 C1130 1.348 . S
C1133 C1131 1.356 . S
H1134 C1128 0.930 . S
H1135 C1132 0.930 . S
C1136 C1138 1.348 . S
C1136 C1139 1.356 . S
C1136 O1166 1.325 . S
N1137 C1140 1.314 . S
N1137 C1141 1.279 . S
C1138 C1136 1.348 . S
C1138 C1140 1.353 . S
C1138 H1180 0.929 . S
C1139 C1136 1.356 . S
C1139 C1141 1.358 . S
C1139 H1181 0.930 . S
C1140 N1137 1.314 . S
C1140 C1138 1.353 . S
C1140 H1182 0.930 . S
C1141 N1137 1.279 . S
C1141 C1139 1.358 . S
C1141 H1183 0.930 . S
C1142 C1143 1.348 . S
C1142 C1144 1.356 . S
C1142 O1167 1.325 . S
C1143 C1142 1.348 . S
C1143 C1145 1.353 . S
C1143 H1184 0.929 . S
C1144 C1142 1.356 . S
C1144 C1146 1.358 . S
C1144 H1185 0.930 . S
C1145 C1143 1.353 . S
C1145 N1147 1.314 . S
C1145 H1186 0.930 . S
C1146 C1144 1.358 . S
C1146 N1147 1.279 . S
C1146 H1187 0.930 . S
N1147 C1145 1.314 . S
N1147 C1146 1.279 . S
C1148 C1150 1.353 . S
C1148 N1151 1.314 . S
C1148 H1154 0.930 . S
C1149 N1151 1.279 . S
C1149 C1152 1.358 . S
C1149 H1155 0.930 . S
C1150 C1148 1.353 . S
C1150 C1153 1.348 . S
C1150 H1188 0.929 . S
N1151 Li1106 1.990 . S
N1151 C1148 1.314 . S
N1151 C1149 1.279 . S
C1152 C1149 1.358 . S
C1152 C1153 1.356 . S
C1152 H1189 0.930 . S
C1153 C1150 1.348 . S
C1153 C1152 1.356 . S
H1154 C1148 0.930 . S
H1155 C1149 0.930 . S
C1156 N1157 1.314 . S
C1156 C1158 1.353 . S
C1156 H1162 0.930 . S
N1157 Li1107 1.990 . S
N1157 C1156 1.314 . S
N1157 C1160 1.279 . S
C1158 C1156 1.353 . S
C1158 C1161 1.348 . S
C1158 H1190 0.929 . S
C1159 C1160 1.358 . S
C1159 C1161 1.356 . S
C1159 H1191 0.930 . S
C1160 N1157 1.279 . S
C1160 C1159 1.358 . S
C1160 H1163 0.930 . S
C1161 C1158 1.348 . S
C1161 C1159 1.356 . S
H1162 C1156 0.930 . S
H1163 C1160 0.930 . S
O1164 Li1104 1.956 . S
O1164 Li1105 1.970 . S
O1164 Li1106 1.961 . S
O1164 C1108 1.325 . S
O1165 Li1104 1.970 . S
O1165 Li1105 1.956 . S
O1165 Li1107 1.961 . S
O1165 C1114 1.325 . S
O1166 Li1104 1.961 . S
O1166 Li1106 1.956 . S
O1166 Li1107 1.970 . S
O1166 C1136 1.325 . S
O1167 Li1105 1.961 . S
O1167 Li1106 1.970 . S
O1167 Li1107 1.956 . S
O1167 C1142 1.325 . S
H1168 C1110 0.929 . S
H1169 C1111 0.930 . S
H1170 C1112 0.930 . S
H1171 C1113 0.930 . S
H1172 C1115 0.930 . S
H1173 C1117 0.929 . S
H1174 C1118 0.930 . S
H1175 C1119 0.930 . S
H1176 C1122 0.930 . S
H1177 C1125 0.929 . S
H1178 C1130 0.929 . S
H1179 C1131 0.930 . S
H1180 C1138 0.929 . S
H1181 C1139 0.930 . S
H1182 C1140 0.930 . S
H1183 C1141 0.930 . S
H1184 C1143 0.929 . S
H1185 C1144 0.930 . S
H1186 C1145 0.930 . S
H1187 C1146 0.930 . S
H1188 C1150 0.929 . S
H1189 C1152 0.930 . S
H1190 C1158 0.929 . S
H1191 C1159 0.930 . S
Li1192 N1209 1.990 . S
Li1192 O1252 1.956 . S
Li1192 O1253 1.970 1_565 S
Li1192 O1254 1.961 . S
Li1193 N1217 1.990 . S
Li1193 O1252 1.970 1_545 S
Li1193 O1253 1.956 . S
Li1193 O1255 1.961 . S
Li1194 N1239 1.990 . S
Li1194 O1252 1.961 . S
Li1194 O1254 1.956 . S
Li1194 O1255 1.970 1_565 S
Li1195 N1245 1.990 . S
Li1195 O1253 1.961 . S
Li1195 O1254 1.970 1_545 S
Li1195 O1255 1.956 . S
C1196 C1198 1.348 . S
C1196 C1199 1.356 . S
C1196 O1252 1.325 . S
N1197 C1200 1.314 . S
N1197 C1201 1.279 . S
C1198 C1196 1.348 . S
C1198 C1200 1.353 . S
C1198 H1256 0.929 . S
C1199 C1196 1.356 . S
C1199 C1201 1.358 . S
C1199 H1257 0.930 . S
C1200 N1197 1.314 . S
C1200 C1198 1.353 . S
C1200 H1258 0.930 . S
C1201 N1197 1.279 . S
C1201 C1199 1.358 . S
C1201 H1259 0.930 . S
C1202 C1205 1.348 1_545 S
C1202 C1206 1.356 . S
C1202 O1253 1.325 . S
C1203 N1204 1.279 . S
C1203 C1206 1.358 . S
C1203 H1260 0.930 . S
N1204 C1203 1.279 . S
N1204 C1207 1.314 1_545 S
C1205 C1202 1.348 1_565 S
C1205 C1207 1.353 . S
C1205 H1261 0.929 . S
C1206 C1202 1.356 . S
C1206 C1203 1.358 . S
C1206 H1262 0.930 . S
C1207 N1204 1.314 1_565 S
C1207 C1205 1.353 . S
C1207 H1263 0.930 . S
C1208 N1209 1.314 . S
C1208 C1213 1.353 . S
C1208 H1214 0.930 . S
N1209 Li1192 1.990 . S
N1209 C1208 1.314 . S
N1209 C1211 1.279 . S
C1210 C1211 1.358 . S
C1210 C1212 1.356 . S
C1210 H1264 0.930 . S
C1211 N1209 1.279 . S
C1211 C1210 1.358 . S
C1211 H1215 0.930 . S
C1212 C1210 1.356 . S
C1212 C1213 1.348 . S
C1213 C1208 1.353 . S
C1213 C1212 1.348 . S
C1213 H1265 0.929 . S
H1214 C1208 0.930 . S
H1215 C1211 0.930 . S
C1216 N1217 1.314 . S
C1216 C1218 1.353 . S
C1216 H1222 0.930 . S
N1217 Li1193 1.990 . S
N1217 C1216 1.314 . S
N1217 C1220 1.279 . S
C1218 C1216 1.353 . S
C1218 C1221 1.348 . S
C1218 H1266 0.929 . S
C1219 C1220 1.358 . S
C1219 C1221 1.356 . S
C1219 H1267 0.930 . S
C1220 N1217 1.279 . S
C1220 C1219 1.358 . S
C1220 H1223 0.930 . S
C1221 C1218 1.348 . S
C1221 C1219 1.356 . S
H1222 C1216 0.930 . S
H1223 C1220 0.930 . S
C1224 C1226 1.348 1_565 S
C1224 C1227 1.356 . S
C1224 O1254 1.325 . S
N1225 C1228 1.314 1_565 S
N1225 C1229 1.279 . S
C1226 C1224 1.348 1_545 S
C1226 C1228 1.353 . S
C1226 H1268 0.929 . S
C1227 C1224 1.356 . S
C1227 C1229 1.358 . S
C1227 H1269 0.930 . S
C1228 N1225 1.314 1_545 S
C1228 C1226 1.353 . S
C1228 H1270 0.930 . S
C1229 N1225 1.279 . S
C1229 C1227 1.358 . S
C1229 H1271 0.930 . S
C1230 C1231 1.348 . S
C1230 C1232 1.356 . S
C1230 O1255 1.325 . S
C1231 C1230 1.348 . S
C1231 C1233 1.353 . S
C1231 H1272 0.929 . S
C1232 C1230 1.356 . S
C1232 C1234 1.358 . S
C1232 H1273 0.930 . S
C1233 C1231 1.353 . S
C1233 N1235 1.314 . S
C1233 H1274 0.930 . S
C1234 C1232 1.358 . S
C1234 N1235 1.279 . S
C1234 H1275 0.930 . S
N1235 C1233 1.314 . S
N1235 C1234 1.279 . S
C1236 C1238 1.353 . S
C1236 N1239 1.314 . S
C1236 H1242 0.930 . S
C1237 N1239 1.279 . S
C1237 C1240 1.358 . S
C1237 H1243 0.930 . S
C1238 C1236 1.353 . S
C1238 C1241 1.348 . S
C1238 H1276 0.929 . S
N1239 Li1194 1.990 . S
N1239 C1236 1.314 . S
N1239 C1237 1.279 . S
C1240 C1237 1.358 . S
C1240 C1241 1.356 . S
C1240 H1277 0.930 . S
C1241 C1238 1.348 . S
C1241 C1240 1.356 . S
H1242 C1236 0.930 . S
H1243 C1237 0.930 . S
C1244 N1245 1.314 . S
C1244 C1246 1.353 . S
C1244 H1250 0.930 . S
N1245 Li1195 1.990 . S
N1245 C1244 1.314 . S
N1245 C1248 1.279 . S
C1246 C1244 1.353 . S
C1246 C1249 1.348 . S
C1246 H1278 0.929 . S
C1247 C1248 1.358 . S
C1247 C1249 1.356 . S
C1247 H1279 0.930 . S
C1248 N1245 1.279 . S
C1248 C1247 1.358 . S
C1248 H1251 0.930 . S
C1249 C1246 1.348 . S
C1249 C1247 1.356 . S
H1250 C1244 0.930 . S
H1251 C1248 0.930 . S
O1252 Li1192 1.956 . S
O1252 Li1193 1.970 1_565 S
O1252 Li1194 1.961 . S
O1252 C1196 1.325 . S
O1253 Li1192 1.970 1_545 S
O1253 Li1193 1.956 . S
O1253 Li1195 1.961 . S
O1253 C1202 1.325 . S
O1254 Li1192 1.961 . S
O1254 Li1194 1.956 . S
O1254 Li1195 1.970 1_565 S
O1254 C1224 1.325 . S
O1255 Li1193 1.961 . S
O1255 Li1194 1.970 1_545 S
O1255 Li1195 1.956 . S
O1255 C1230 1.325 . S
H1256 C1198 0.929 . S
H1257 C1199 0.930 . S
H1258 C1200 0.930 . S
H1259 C1201 0.930 . S
H1260 C1203 0.930 . S
H1261 C1205 0.929 . S
H1262 C1206 0.930 . S
H1263 C1207 0.930 . S
H1264 C1210 0.930 . S
H1265 C1213 0.929 . S
H1266 C1218 0.929 . S
H1267 C1219 0.930 . S
H1268 C1226 0.929 . S
H1269 C1227 0.930 . S
H1270 C1228 0.930 . S
H1271 C1229 0.930 . S
H1272 C1231 0.929 . S
H1273 C1232 0.930 . S
H1274 C1233 0.930 . S
H1275 C1234 0.930 . S
H1276 C1238 0.929 . S
H1277 C1240 0.930 . S
H1278 C1246 0.929 . S
H1279 C1247 0.930 . S
Li1280 N1297 1.990 . S
Li1280 O1340 1.956 . S
Li1280 O1341 1.970 1_455 S
Li1280 O1342 1.961 . S
Li1281 N1305 1.990 . S
Li1281 O1340 1.970 1_655 S
Li1281 O1341 1.956 . S
Li1281 O1343 1.961 . S
Li1282 N1327 1.990 . S
Li1282 O1340 1.961 . S
Li1282 O1342 1.956 . S
Li1282 O1343 1.970 1_455 S
Li1283 N1333 1.990 . S
Li1283 O1341 1.961 . S
Li1283 O1342 1.970 1_655 S
Li1283 O1343 1.956 . S
C1284 C1286 1.348 . S
C1284 C1287 1.356 . S
C1284 O1340 1.325 . S
N1285 C1288 1.314 . S
N1285 C1289 1.279 . S
C1286 C1284 1.348 . S
C1286 C1288 1.353 . S
C1286 H1344 0.929 . S
C1287 C1284 1.356 . S
C1287 C1289 1.358 . S
C1287 H1345 0.930 . S
C1288 N1285 1.314 . S
C1288 C1286 1.353 . S
C1288 H1346 0.930 . S
C1289 N1285 1.279 . S
C1289 C1287 1.358 . S
C1289 H1347 0.930 . S
C1290 C1293 1.348 1_655 S
C1290 C1294 1.356 . S
C1290 O1341 1.325 . S
C1291 N1292 1.279 . S
C1291 C1294 1.358 . S
C1291 H1348 0.930 . S
N1292 C1291 1.279 . S
N1292 C1295 1.314 1_655 S
C1293 C1290 1.348 1_455 S
C1293 C1295 1.353 . S
C1293 H1349 0.929 . S
C1294 C1290 1.356 . S
C1294 C1291 1.358 . S
C1294 H1350 0.930 . S
C1295 N1292 1.314 1_455 S
C1295 C1293 1.353 . S
C1295 H1351 0.930 . S
C1296 N1297 1.314 . S
C1296 C1301 1.353 . S
C1296 H1302 0.930 . S
N1297 Li1280 1.990 . S
N1297 C1296 1.314 . S
N1297 C1299 1.279 . S
C1298 C1299 1.358 . S
C1298 C1300 1.356 . S
C1298 H1352 0.930 . S
C1299 N1297 1.279 . S
C1299 C1298 1.358 . S
C1299 H1303 0.930 . S
C1300 C1298 1.356 . S
C1300 C1301 1.348 . S
C1301 C1296 1.353 . S
C1301 C1300 1.348 . S
C1301 H1353 0.929 . S
H1302 C1296 0.930 . S
H1303 C1299 0.930 . S
C1304 N1305 1.314 . S
C1304 C1306 1.353 . S
C1304 H1310 0.930 . S
N1305 Li1281 1.990 . S
N1305 C1304 1.314 . S
N1305 C1308 1.279 . S
C1306 C1304 1.353 . S
C1306 C1309 1.348 . S
C1306 H1354 0.929 . S
C1307 C1308 1.358 . S
C1307 C1309 1.356 . S
C1307 H1355 0.930 . S
C1308 N1305 1.279 . S
C1308 C1307 1.358 . S
C1308 H1311 0.930 . S
C1309 C1306 1.348 . S
C1309 C1307 1.356 . S
H1310 C1304 0.930 . S
H1311 C1308 0.930 . S
C1312 C1314 1.348 1_455 S
C1312 C1315 1.356 . S
C1312 O1342 1.325 . S
N1313 C1316 1.314 1_455 S
N1313 C1317 1.279 . S
C1314 C1312 1.348 1_655 S
C1314 C1316 1.353 . S
C1314 H1356 0.929 . S
C1315 C1312 1.356 . S
C1315 C1317 1.358 . S
C1315 H1357 0.930 . S
C1316 N1313 1.314 1_655 S
C1316 C1314 1.353 . S
C1316 H1358 0.930 . S
C1317 N1313 1.279 . S
C1317 C1315 1.358 . S
C1317 H1359 0.930 . S
C1318 C1319 1.348 . S
C1318 C1320 1.356 . S
C1318 O1343 1.325 . S
C1319 C1318 1.348 . S
C1319 C1321 1.353 . S
C1319 H1360 0.929 . S
C1320 C1318 1.356 . S
C1320 C1322 1.358 . S
C1320 H1361 0.930 . S
C1321 C1319 1.353 . S
C1321 N1323 1.314 . S
C1321 H1362 0.930 . S
C1322 C1320 1.358 . S
C1322 N1323 1.279 . S
C1322 H1363 0.930 . S
N1323 C1321 1.314 . S
N1323 C1322 1.279 . S
C1324 C1326 1.353 . S
C1324 N1327 1.314 . S
C1324 H1330 0.930 . S
C1325 N1327 1.279 . S
C1325 C1328 1.358 . S
C1325 H1331 0.930 . S
C1326 C1324 1.353 . S
C1326 C1329 1.348 . S
C1326 H1364 0.929 . S
N1327 Li1282 1.990 . S
N1327 C1324 1.314 . S
N1327 C1325 1.279 . S
C1328 C1325 1.358 . S
C1328 C1329 1.356 . S
C1328 H1365 0.930 . S
C1329 C1326 1.348 . S
C1329 C1328 1.356 . S
H1330 C1324 0.930 . S
H1331 C1325 0.930 . S
C1332 N1333 1.314 . S
C1332 C1334 1.353 . S
C1332 H1338 0.930 . S
N1333 Li1283 1.990 . S
N1333 C1332 1.314 . S
N1333 C1336 1.279 . S
C1334 C1332 1.353 . S
C1334 C1337 1.348 . S
C1334 H1366 0.929 . S
C1335 C1336 1.358 . S
C1335 C1337 1.356 . S
C1335 H1367 0.930 . S
C1336 N1333 1.279 . S
C1336 C1335 1.358 . S
C1336 H1339 0.930 . S
C1337 C1334 1.348 . S
C1337 C1335 1.356 . S
H1338 C1332 0.930 . S
H1339 C1336 0.930 . S
O1340 Li1280 1.956 . S
O1340 Li1281 1.970 1_455 S
O1340 Li1282 1.961 . S
O1340 C1284 1.325 . S
O1341 Li1280 1.970 1_655 S
O1341 Li1281 1.956 . S
O1341 Li1283 1.961 . S
O1341 C1290 1.325 . S
O1342 Li1280 1.961 . S
O1342 Li1282 1.956 . S
O1342 Li1283 1.970 1_455 S
O1342 C1312 1.325 . S
O1343 Li1281 1.961 . S
O1343 Li1282 1.970 1_655 S
O1343 Li1283 1.956 . S
O1343 C1318 1.325 . S
H1344 C1286 0.929 . S
H1345 C1287 0.930 . S
H1346 C1288 0.930 . S
H1347 C1289 0.930 . S
H1348 C1291 0.930 . S
H1349 C1293 0.929 . S
H1350 C1294 0.930 . S
H1351 C1295 0.930 . S
H1352 C1298 0.930 . S
H1353 C1301 0.929 . S
H1354 C1306 0.929 . S
H1355 C1307 0.930 . S
H1356 C1314 0.929 . S
H1357 C1315 0.930 . S
H1358 C1316 0.930 . S
H1359 C1317 0.930 . S
H1360 C1319 0.929 . S
H1361 C1320 0.930 . S
H1362 C1321 0.930 . S
H1363 C1322 0.930 . S
H1364 C1326 0.929 . S
H1365 C1328 0.930 . S
H1366 C1334 0.929 . S
H1367 C1335 0.930 . S
Li1368 N1385 1.990 . S
Li1368 O1428 1.956 . S
Li1368 O1429 1.970 . S
Li1368 O1430 1.961 . S
Li1369 N1393 1.990 . S
Li1369 O1428 1.970 . S
Li1369 O1429 1.956 . S
Li1369 O1431 1.961 . S
Li1370 N1415 1.990 . S
Li1370 O1428 1.961 . S
Li1370 O1430 1.956 . S
Li1370 O1431 1.970 . S
Li1371 N1421 1.990 . S
Li1371 O1429 1.961 . S
Li1371 O1430 1.970 . S
Li1371 O1431 1.956 . S
C1372 C1374 1.348 . S
C1372 C1375 1.356 . S
C1372 O1428 1.325 . S
N1373 C1376 1.314 . S
N1373 C1377 1.279 . S
C1374 C1372 1.348 . S
C1374 C1376 1.353 . S
C1374 H1432 0.929 . S
C1375 C1372 1.356 . S
C1375 C1377 1.358 . S
C1375 H1433 0.930 . S
C1376 N1373 1.314 . S
C1376 C1374 1.353 . S
C1376 H1434 0.930 . S
C1377 N1373 1.279 . S
C1377 C1375 1.358 . S
C1377 H1435 0.930 . S
C1378 C1381 1.348 . S
C1378 C1382 1.356 . S
C1378 O1429 1.325 . S
C1379 N1380 1.279 . S
C1379 C1382 1.358 . S
C1379 H1436 0.930 . S
N1380 C1379 1.279 . S
N1380 C1383 1.314 . S
C1381 C1378 1.348 . S
C1381 C1383 1.353 . S
C1381 H1437 0.929 . S
C1382 C1378 1.356 . S
C1382 C1379 1.358 . S
C1382 H1438 0.930 . S
C1383 N1380 1.314 . S
C1383 C1381 1.353 . S
C1383 H1439 0.930 . S
C1384 N1385 1.314 . S
C1384 C1389 1.353 . S
C1384 H1390 0.930 . S
N1385 Li1368 1.990 . S
N1385 C1384 1.314 . S
N1385 C1387 1.279 . S
C1386 C1387 1.358 . S
C1386 C1388 1.356 . S
C1386 H1440 0.930 . S
C1387 N1385 1.279 . S
C1387 C1386 1.358 . S
C1387 H1391 0.930 . S
C1388 C1386 1.356 . S
C1388 C1389 1.348 . S
C1389 C1384 1.353 . S
C1389 C1388 1.348 . S
C1389 H1441 0.929 . S
H1390 C1384 0.930 . S
H1391 C1387 0.930 . S
C1392 N1393 1.314 . S
C1392 C1394 1.353 . S
C1392 H1398 0.930 . S
N1393 Li1369 1.990 . S
N1393 C1392 1.314 . S
N1393 C1396 1.279 . S
C1394 C1392 1.353 . S
C1394 C1397 1.348 . S
C1394 H1442 0.929 . S
C1395 C1396 1.358 . S
C1395 C1397 1.356 . S
C1395 H1443 0.930 . S
C1396 N1393 1.279 . S
C1396 C1395 1.358 . S
C1396 H1399 0.930 . S
C1397 C1394 1.348 . S
C1397 C1395 1.356 . S
H1398 C1392 0.930 . S
H1399 C1396 0.930 . S
C1400 C1402 1.348 . S
C1400 C1403 1.356 . S
C1400 O1430 1.325 . S
N1401 C1404 1.314 . S
N1401 C1405 1.279 . S
C1402 C1400 1.348 . S
C1402 C1404 1.353 . S
C1402 H1444 0.929 . S
C1403 C1400 1.356 . S
C1403 C1405 1.358 . S
C1403 H1445 0.930 . S
C1404 N1401 1.314 . S
C1404 C1402 1.353 . S
C1404 H1446 0.930 . S
C1405 N1401 1.279 . S
C1405 C1403 1.358 . S
C1405 H1447 0.930 . S
C1406 C1407 1.348 . S
C1406 C1408 1.356 . S
C1406 O1431 1.325 . S
C1407 C1406 1.348 . S
C1407 C1409 1.353 . S
C1407 H1448 0.929 . S
C1408 C1406 1.356 . S
C1408 C1410 1.358 . S
C1408 H1449 0.930 . S
C1409 C1407 1.353 . S
C1409 N1411 1.314 . S
C1409 H1450 0.930 . S
C1410 C1408 1.358 . S
C1410 N1411 1.279 . S
C1410 H1451 0.930 . S
N1411 C1409 1.314 . S
N1411 C1410 1.279 . S
C1412 C1414 1.353 . S
C1412 N1415 1.314 . S
C1412 H1418 0.930 . S
C1413 N1415 1.279 . S
C1413 C1416 1.358 . S
C1413 H1419 0.930 . S
C1414 C1412 1.353 . S
C1414 C1417 1.348 . S
C1414 H1452 0.929 . S
N1415 Li1370 1.990 . S
N1415 C1412 1.314 . S
N1415 C1413 1.279 . S
C1416 C1413 1.358 . S
C1416 C1417 1.356 . S
C1416 H1453 0.930 . S
C1417 C1414 1.348 . S
C1417 C1416 1.356 . S
H1418 C1412 0.930 . S
H1419 C1413 0.930 . S
C1420 N1421 1.314 . S
C1420 C1422 1.353 . S
C1420 H1426 0.930 . S
N1421 Li1371 1.990 . S
N1421 C1420 1.314 . S
N1421 C1424 1.279 . S
C1422 C1420 1.353 . S
C1422 C1425 1.348 . S
C1422 H1454 0.929 . S
C1423 C1424 1.358 . S
C1423 C1425 1.356 . S
C1423 H1455 0.930 . S
C1424 N1421 1.279 . S
C1424 C1423 1.358 . S
C1424 H1427 0.930 . S
C1425 C1422 1.348 . S
C1425 C1423 1.356 . S
H1426 C1420 0.930 . S
H1427 C1424 0.930 . S
O1428 Li1368 1.956 . S
O1428 Li1369 1.970 . S
O1428 Li1370 1.961 . S
O1428 C1372 1.325 . S
O1429 Li1368 1.970 . S
O1429 Li1369 1.956 . S
O1429 Li1371 1.961 . S
O1429 C1378 1.325 . S
O1430 Li1368 1.961 . S
O1430 Li1370 1.956 . S
O1430 Li1371 1.970 . S
O1430 C1400 1.325 . S
O1431 Li1369 1.961 . S
O1431 Li1370 1.970 . S
O1431 Li1371 1.956 . S
O1431 C1406 1.325 . S
H1432 C1374 0.929 . S
H1433 C1375 0.930 . S
H1434 C1376 0.930 . S
H1435 C1377 0.930 . S
H1436 C1379 0.930 . S
H1437 C1381 0.929 . S
H1438 C1382 0.930 . S
H1439 C1383 0.930 . S
H1440 C1386 0.930 . S
H1441 C1389 0.929 . S
H1442 C1394 0.929 . S
H1443 C1395 0.930 . S
H1444 C1402 0.929 . S
H1445 C1403 0.930 . S
H1446 C1404 0.930 . S
H1447 C1405 0.930 . S
H1448 C1407 0.929 . S
H1449 C1408 0.930 . S
H1450 C1409 0.930 . S
H1451 C1410 0.930 . S
H1452 C1414 0.929 . S
H1453 C1416 0.930 . S
H1454 C1422 0.929 . S
H1455 C1423 0.930 . S
Li1456 N1473 1.990 . S
Li1456 O1516 1.956 . S
Li1456 O1517 1.970 1_455 S
Li1456 O1518 1.961 . S
Li1457 N1481 1.990 . S
Li1457 O1516 1.970 1_655 S
Li1457 O1517 1.956 . S
Li1457 O1519 1.961 . S
Li1458 N1503 1.990 . S
Li1458 O1516 1.961 . S
Li1458 O1518 1.956 . S
Li1458 O1519 1.970 1_455 S
Li1459 N1509 1.990 . S
Li1459 O1517 1.961 . S
Li1459 O1518 1.970 1_655 S
Li1459 O1519 1.956 . S
C1460 C1462 1.348 1_455 S
C1460 C1463 1.356 . S
C1460 O1516 1.325 . S
N1461 C1464 1.314 1_455 S
N1461 C1465 1.279 . S
C1462 C1460 1.348 1_655 S
C1462 C1464 1.353 . S
C1462 H1520 0.929 . S
C1463 C1460 1.356 . S
C1463 C1465 1.358 . S
C1463 H1521 0.930 . S
C1464 N1461 1.314 1_655 S
C1464 C1462 1.353 . S
C1464 H1522 0.930 . S
C1465 N1461 1.279 . S
C1465 C1463 1.358 . S
C1465 H1523 0.930 . S
C1466 C1469 1.348 . S
C1466 C1470 1.356 . S
C1466 O1517 1.325 . S
C1467 N1468 1.279 . S
C1467 C1470 1.358 . S
C1467 H1524 0.930 . S
N1468 C1467 1.279 . S
N1468 C1471 1.314 . S
C1469 C1466 1.348 . S
C1469 C1471 1.353 . S
C1469 H1525 0.929 . S
C1470 C1466 1.356 . S
C1470 C1467 1.358 . S
C1470 H1526 0.930 . S
C1471 N1468 1.314 . S
C1471 C1469 1.353 . S
C1471 H1527 0.930 . S
C1472 N1473 1.314 . S
C1472 C1477 1.353 . S
C1472 H1478 0.930 . S
N1473 Li1456 1.990 . S
N1473 C1472 1.314 . S
N1473 C1475 1.279 . S
C1474 C1475 1.358 . S
C1474 C1476 1.356 . S
C1474 H1528 0.930 . S
C1475 N1473 1.279 . S
C1475 C1474 1.358 . S
C1475 H1479 0.930 . S
C1476 C1474 1.356 . S
C1476 C1477 1.348 . S
C1477 C1472 1.353 . S
C1477 C1476 1.348 . S
C1477 H1529 0.929 . S
H1478 C1472 0.930 . S
H1479 C1475 0.930 . S
C1480 N1481 1.314 . S
C1480 C1482 1.353 . S
C1480 H1486 0.930 . S
N1481 Li1457 1.990 . S
N1481 C1480 1.314 . S
N1481 C1484 1.279 . S
C1482 C1480 1.353 . S
C1482 C1485 1.348 . S
C1482 H1530 0.929 . S
C1483 C1484 1.358 . S
C1483 C1485 1.356 . S
C1483 H1531 0.930 . S
C1484 N1481 1.279 . S
C1484 C1483 1.358 . S
C1484 H1487 0.930 . S
C1485 C1482 1.348 . S
C1485 C1483 1.356 . S
H1486 C1480 0.930 . S
H1487 C1484 0.930 . S
C1488 C1490 1.348 . S
C1488 C1491 1.356 . S
C1488 O1518 1.325 . S
N1489 C1492 1.314 . S
N1489 C1493 1.279 . S
C1490 C1488 1.348 . S
C1490 C1492 1.353 . S
C1490 H1532 0.929 . S
C1491 C1488 1.356 . S
C1491 C1493 1.358 . S
C1491 H1533 0.930 . S
C1492 N1489 1.314 . S
C1492 C1490 1.353 . S
C1492 H1534 0.930 . S
C1493 N1489 1.279 . S
C1493 C1491 1.358 . S
C1493 H1535 0.930 . S
C1494 C1495 1.348 1_655 S
C1494 C1496 1.356 . S
C1494 O1519 1.325 . S
C1495 C1494 1.348 1_455 S
C1495 C1497 1.353 . S
C1495 H1536 0.929 . S
C1496 C1494 1.356 . S
C1496 C1498 1.358 . S
C1496 H1537 0.930 . S
C1497 C1495 1.353 . S
C1497 N1499 1.314 1_455 S
C1497 H1538 0.930 . S
C1498 C1496 1.358 . S
C1498 N1499 1.279 . S
C1498 H1539 0.930 . S
N1499 C1497 1.314 1_655 S
N1499 C1498 1.279 . S
C1500 C1502 1.353 . S
C1500 N1503 1.314 . S
C1500 H1506 0.930 . S
C1501 N1503 1.279 . S
C1501 C1504 1.358 . S
C1501 H1507 0.930 . S
C1502 C1500 1.353 . S
C1502 C1505 1.348 . S
C1502 H1540 0.929 . S
N1503 Li1458 1.990 . S
N1503 C1500 1.314 . S
N1503 C1501 1.279 . S
C1504 C1501 1.358 . S
C1504 C1505 1.356 . S
C1504 H1541 0.930 . S
C1505 C1502 1.348 . S
C1505 C1504 1.356 . S
H1506 C1500 0.930 . S
H1507 C1501 0.930 . S
C1508 N1509 1.314 . S
C1508 C1510 1.353 . S
C1508 H1514 0.930 . S
N1509 Li1459 1.990 . S
N1509 C1508 1.314 . S
N1509 C1512 1.279 . S
C1510 C1508 1.353 . S
C1510 C1513 1.348 . S
C1510 H1542 0.929 . S
C1511 C1512 1.358 . S
C1511 C1513 1.356 . S
C1511 H1543 0.930 . S
C1512 N1509 1.279 . S
C1512 C1511 1.358 . S
C1512 H1515 0.930 . S
C1513 C1510 1.348 . S
C1513 C1511 1.356 . S
H1514 C1508 0.930 . S
H1515 C1512 0.930 . S
O1516 Li1456 1.956 . S
O1516 Li1457 1.970 1_455 S
O1516 Li1458 1.961 . S
O1516 C1460 1.325 . S
O1517 Li1456 1.970 1_655 S
O1517 Li1457 1.956 . S
O1517 Li1459 1.961 . S
O1517 C1466 1.325 . S
O1518 Li1456 1.961 . S
O1518 Li1458 1.956 . S
O1518 Li1459 1.970 1_455 S
O1518 C1488 1.325 . S
O1519 Li1457 1.961 . S
O1519 Li1458 1.970 1_655 S
O1519 Li1459 1.956 . S
O1519 C1494 1.325 . S
H1520 C1462 0.929 . S
H1521 C1463 0.930 . S
H1522 C1464 0.930 . S
H1523 C1465 0.930 . S
H1524 C1467 0.930 . S
H1525 C1469 0.929 . S
H1526 C1470 0.930 . S
H1527 C1471 0.930 . S
H1528 C1474 0.930 . S
H1529 C1477 0.929 . S
H1530 C1482 0.929 . S
H1531 C1483 0.930 . S
H1532 C1490 0.929 . S
H1533 C1491 0.930 . S
H1534 C1492 0.930 . S
H1535 C1493 0.930 . S
H1536 C1495 0.929 . S
H1537 C1496 0.930 . S
H1538 C1497 0.930 . S
H1539 C1498 0.930 . S
H1540 C1502 0.929 . S
H1541 C1504 0.930 . S
H1542 C1510 0.929 . S
H1543 C1511 0.930 . S
Li1544 N1561 1.990 . S
Li1544 O1604 1.956 . S
Li1544 O1605 1.970 . S
Li1544 O1606 1.961 . S
Li1545 N1569 1.990 . S
Li1545 O1604 1.970 . S
Li1545 O1605 1.956 . S
Li1545 O1607 1.961 . S
Li1546 N1591 1.990 . S
Li1546 O1604 1.961 . S
Li1546 O1606 1.956 . S
Li1546 O1607 1.970 . S
Li1547 N1597 1.990 . S
Li1547 O1605 1.961 . S
Li1547 O1606 1.970 . S
Li1547 O1607 1.956 . S
C1548 C1550 1.348 . S
C1548 C1551 1.356 . S
C1548 O1604 1.325 . S
N1549 C1552 1.314 . S
N1549 C1553 1.279 . S
C1550 C1548 1.348 . S
C1550 C1552 1.353 . S
C1550 H1608 0.929 . S
C1551 C1548 1.356 . S
C1551 C1553 1.358 . S
C1551 H1609 0.930 . S
C1552 N1549 1.314 . S
C1552 C1550 1.353 . S
C1552 H1610 0.930 . S
C1553 N1549 1.279 . S
C1553 C1551 1.358 . S
C1553 H1611 0.930 . S
C1554 C1557 1.348 . S
C1554 C1558 1.356 . S
C1554 O1605 1.325 . S
C1555 N1556 1.279 . S
C1555 C1558 1.358 . S
C1555 H1612 0.930 . S
N1556 C1555 1.279 . S
N1556 C1559 1.314 . S
C1557 C1554 1.348 . S
C1557 C1559 1.353 . S
C1557 H1613 0.929 . S
C1558 C1554 1.356 . S
C1558 C1555 1.358 . S
C1558 H1614 0.930 . S
C1559 N1556 1.314 . S
C1559 C1557 1.353 . S
C1559 H1615 0.930 . S
C1560 N1561 1.314 . S
C1560 C1565 1.353 . S
C1560 H1566 0.930 . S
N1561 Li1544 1.990 . S
N1561 C1560 1.314 . S
N1561 C1563 1.279 . S
C1562 C1563 1.358 . S
C1562 C1564 1.356 . S
C1562 H1616 0.930 . S
C1563 N1561 1.279 . S
C1563 C1562 1.358 . S
C1563 H1567 0.930 . S
C1564 C1562 1.356 . S
C1564 C1565 1.348 . S
C1565 C1560 1.353 . S
C1565 C1564 1.348 . S
C1565 H1617 0.929 . S
H1566 C1560 0.930 . S
H1567 C1563 0.930 . S
C1568 N1569 1.314 . S
C1568 C1570 1.353 . S
C1568 H1574 0.930 . S
N1569 Li1545 1.990 . S
N1569 C1568 1.314 . S
N1569 C1572 1.279 . S
C1570 C1568 1.353 . S
C1570 C1573 1.348 . S
C1570 H1618 0.929 . S
C1571 C1572 1.358 . S
C1571 C1573 1.356 . S
C1571 H1619 0.930 . S
C1572 N1569 1.279 . S
C1572 C1571 1.358 . S
C1572 H1575 0.930 . S
C1573 C1570 1.348 . S
C1573 C1571 1.356 . S
H1574 C1568 0.930 . S
H1575 C1572 0.930 . S
C1576 C1578 1.348 . S
C1576 C1579 1.356 . S
C1576 O1606 1.325 . S
N1577 C1580 1.314 . S
N1577 C1581 1.279 . S
C1578 C1576 1.348 . S
C1578 C1580 1.353 . S
C1578 H1620 0.929 . S
C1579 C1576 1.356 . S
C1579 C1581 1.358 . S
C1579 H1621 0.930 . S
C1580 N1577 1.314 . S
C1580 C1578 1.353 . S
C1580 H1622 0.930 . S
C1581 N1577 1.279 . S
C1581 C1579 1.358 . S
C1581 H1623 0.930 . S
C1582 C1583 1.348 . S
C1582 C1584 1.356 . S
C1582 O1607 1.325 . S
C1583 C1582 1.348 . S
C1583 C1585 1.353 . S
C1583 H1624 0.929 . S
C1584 C1582 1.356 . S
C1584 C1586 1.358 . S
C1584 H1625 0.930 . S
C1585 C1583 1.353 . S
C1585 N1587 1.314 . S
C1585 H1626 0.930 . S
C1586 C1584 1.358 . S
C1586 N1587 1.279 . S
C1586 H1627 0.930 . S
N1587 C1585 1.314 . S
N1587 C1586 1.279 . S
C1588 C1590 1.353 . S
C1588 N1591 1.314 . S
C1588 H1594 0.930 . S
C1589 N1591 1.279 . S
C1589 C1592 1.358 . S
C1589 H1595 0.930 . S
C1590 C1588 1.353 . S
C1590 C1593 1.348 . S
C1590 H1628 0.929 . S
N1591 Li1546 1.990 . S
N1591 C1588 1.314 . S
N1591 C1589 1.279 . S
C1592 C1589 1.358 . S
C1592 C1593 1.356 . S
C1592 H1629 0.930 . S
C1593 C1590 1.348 . S
C1593 C1592 1.356 . S
H1594 C1588 0.930 . S
H1595 C1589 0.930 . S
C1596 N1597 1.314 . S
C1596 C1598 1.353 . S
C1596 H1602 0.930 . S
N1597 Li1547 1.990 . S
N1597 C1596 1.314 . S
N1597 C1600 1.279 . S
C1598 C1596 1.353 . S
C1598 C1601 1.348 . S
C1598 H1630 0.929 . S
C1599 C1600 1.358 . S
C1599 C1601 1.356 . S
C1599 H1631 0.930 . S
C1600 N1597 1.279 . S
C1600 C1599 1.358 . S
C1600 H1603 0.930 . S
C1601 C1598 1.348 . S
C1601 C1599 1.356 . S
H1602 C1596 0.930 . S
H1603 C1600 0.930 . S
O1604 Li1544 1.956 . S
O1604 Li1545 1.970 . S
O1604 Li1546 1.961 . S
O1604 C1548 1.325 . S
O1605 Li1544 1.970 . S
O1605 Li1545 1.956 . S
O1605 Li1547 1.961 . S
O1605 C1554 1.325 . S
O1606 Li1544 1.961 . S
O1606 Li1546 1.956 . S
O1606 Li1547 1.970 . S
O1606 C1576 1.325 . S
O1607 Li1545 1.961 . S
O1607 Li1546 1.970 . S
O1607 Li1547 1.956 . S
O1607 C1582 1.325 . S
H1608 C1550 0.929 . S
H1609 C1551 0.930 . S
H1610 C1552 0.930 . S
H1611 C1553 0.930 . S
H1612 C1555 0.930 . S
H1613 C1557 0.929 . S
H1614 C1558 0.930 . S
H1615 C1559 0.930 . S
H1616 C1562 0.930 . S
H1617 C1565 0.929 . S
H1618 C1570 0.929 . S
H1619 C1571 0.930 . S
H1620 C1578 0.929 . S
H1621 C1579 0.930 . S
H1622 C1580 0.930 . S
H1623 C1581 0.930 . S
H1624 C1583 0.929 . S
H1625 C1584 0.930 . S
H1626 C1585 0.930 . S
H1627 C1586 0.930 . S
H1628 C1590 0.929 . S
H1629 C1592 0.930 . S
H1630 C1598 0.929 . S
H1631 C1599 0.930 . S
C1632 C1633 1.369 . S
C1632 C1634 1.419 . S
C1632 H1636 0.930 . S
C1633 C1632 1.369 . S
C1633 C1642 1.429 . S
C1634 C1632 1.419 . S
C1634 C1635 1.363 . S
C1634 H1637 0.929 . S
C1635 C1634 1.363 . S
C1635 C1641 1.428 . S
H1636 C1632 0.930 . S
H1637 C1634 0.929 . S
S1638 N1639 1.613 . S
S1638 N1640 1.610 . S
N1639 S1638 1.613 . S
N1639 C1642 1.350 . S
N1640 S1638 1.610 . S
N1640 C1641 1.351 . S
C1641 C1635 1.428 . S
C1641 N1640 1.351 . S
C1641 C1642 1.434 . S
C1642 C1633 1.429 . S
C1642 N1639 1.350 . S
C1642 C1641 1.434 . S
C1643 C1644 1.369 . S
C1643 C1645 1.419 . S
C1643 H1647 0.930 . S
C1644 C1643 1.369 . S
C1644 C1653 1.429 . S
C1645 C1643 1.419 . S
C1645 C1646 1.363 . S
C1645 H1648 0.929 . S
C1646 C1645 1.363 . S
C1646 C1652 1.428 . S
H1647 C1643 0.930 . S
H1648 C1645 0.929 . S
S1649 N1650 1.613 . S
S1649 N1651 1.610 . S
N1650 S1649 1.613 . S
N1650 C1653 1.350 . S
N1651 S1649 1.610 . S
N1651 C1652 1.351 . S
C1652 C1646 1.428 . S
C1652 N1651 1.351 . S
C1652 C1653 1.434 . S
C1653 C1644 1.429 . S
C1653 N1650 1.350 . S
C1653 C1652 1.434 . S
C1654 C1655 1.369 . S
C1654 C1656 1.419 . S
C1654 H1658 0.930 . S
C1655 C1654 1.369 . S
C1655 C1664 1.429 . S
C1656 C1654 1.419 . S
C1656 C1657 1.363 . S
C1656 H1659 0.929 . S
C1657 C1656 1.363 . S
C1657 C1663 1.428 . S
H1658 C1654 0.930 . S
H1659 C1656 0.929 . S
S1660 N1661 1.613 . S
S1660 N1662 1.610 . S
N1661 S1660 1.613 . S
N1661 C1664 1.350 . S
N1662 S1660 1.610 . S
N1662 C1663 1.351 . S
C1663 C1657 1.428 . S
C1663 N1662 1.351 . S
C1663 C1664 1.434 . S
C1664 C1655 1.429 . S
C1664 N1661 1.350 . S
C1664 C1663 1.434 . S
C1665 C1666 1.390 . S
C1665 C1667 1.416 1_565 S
C1665 H1669 0.910 1_565 S
C1666 C1665 1.390 . S
C1666 C1675 1.429 . S
C1667 C1665 1.416 1_545 S
C1667 C1668 1.337 1_545 S
C1667 H1670 0.960 . S
C1668 C1667 1.337 1_565 S
C1668 C1674 1.428 . S
H1669 C1665 0.910 1_545 S
H1670 C1667 0.960 . S
S1671 N1672 1.613 . S
S1671 N1673 1.610 . S
N1672 S1671 1.613 . S
N1672 C1675 1.350 . S
N1673 S1671 1.610 . S
N1673 C1674 1.351 . S
C1674 C1668 1.428 . S
C1674 N1673 1.351 . S
C1674 C1675 1.434 . S
C1675 C1666 1.429 . S
C1675 N1672 1.350 . S
C1675 C1674 1.434 . S
C1676 C1677 1.369 . S
C1676 C1678 1.419 . S
C1676 H1680 0.930 . S
C1677 C1676 1.369 . S
C1677 C1686 1.429 . S
C1678 C1676 1.419 . S
C1678 C1679 1.363 . S
C1678 H1681 0.929 . S
C1679 C1678 1.363 . S
C1679 C1685 1.428 . S
H1680 C1676 0.930 . S
H1681 C1678 0.929 . S
S1682 N1683 1.613 . S
S1682 N1684 1.610 . S
N1683 S1682 1.613 . S
N1683 C1686 1.350 . S
N1684 S1682 1.610 . S
N1684 C1685 1.351 . S
C1685 C1679 1.428 . S
C1685 N1684 1.351 . S
C1685 C1686 1.434 . S
C1686 C1677 1.429 . S
C1686 N1683 1.350 . S
C1686 C1685 1.434 . S
C1687 C1688 1.369 . S
C1687 C1689 1.419 . S
C1687 H1691 0.930 . S
C1688 C1687 1.369 . S
C1688 C1697 1.429 . S
C1689 C1687 1.419 . S
C1689 C1690 1.363 . S
C1689 H1692 0.929 . S
C1690 C1689 1.363 . S
C1690 C1696 1.428 . S
H1691 C1687 0.930 . S
H1692 C1689 0.929 . S
S1693 N1694 1.613 . S
S1693 N1695 1.610 . S
N1694 S1693 1.613 . S
N1694 C1697 1.350 . S
N1695 S1693 1.610 . S
N1695 C1696 1.351 . S
C1696 C1690 1.428 . S
C1696 N1695 1.351 . S
C1696 C1697 1.434 . S
C1697 C1688 1.429 . S
C1697 N1694 1.350 . S
C1697 C1696 1.434 . S
C1698 C1699 1.369 . S
C1698 C1700 1.419 . S
C1698 H1702 0.930 . S
C1699 C1698 1.369 . S
C1699 C1708 1.429 . S
C1700 C1698 1.419 . S
C1700 C1701 1.363 . S
C1700 H1703 0.929 . S
C1701 C1700 1.363 . S
C1701 C1707 1.428 . S
H1702 C1698 0.930 . S
H1703 C1700 0.929 . S
S1704 N1705 1.613 . S
S1704 N1706 1.610 . S
N1705 S1704 1.613 . S
N1705 C1708 1.350 . S
N1706 S1704 1.610 . S
N1706 C1707 1.351 . S
C1707 C1701 1.428 . S
C1707 N1706 1.351 . S
C1707 C1708 1.434 . S
C1708 C1699 1.429 . S
C1708 N1705 1.350 . S
C1708 C1707 1.434 . S
C1709 C1710 1.369 . S
C1709 C1711 1.418 1_565 S
C1709 H1713 0.930 1_565 S
C1710 C1709 1.369 . S
C1710 C1719 1.429 . S
C1711 C1709 1.418 1_545 S
C1711 C1712 1.354 1_545 S
C1711 H1714 0.939 . S
C1712 C1711 1.354 1_565 S
C1712 C1718 1.428 . S
H1713 C1709 0.930 1_545 S
H1714 C1711 0.939 . S
S1715 N1716 1.613 . S
S1715 N1717 1.610 . S
N1716 S1715 1.613 . S
N1716 C1719 1.350 . S
N1717 S1715 1.610 . S
N1717 C1718 1.351 . S
C1718 C1712 1.428 . S
C1718 N1717 1.351 . S
C1718 C1719 1.434 . S
C1719 C1710 1.429 . S
C1719 N1716 1.350 . S
C1719 C1718 1.434 . S
C1720 C1721 1.369 . S
C1720 C1722 1.419 . S
C1720 H1724 0.930 . S
C1721 C1720 1.369 . S
C1721 C1730 1.429 . S
C1722 C1720 1.419 . S
C1722 C1723 1.363 . S
C1722 H1725 0.929 . S
C1723 C1722 1.363 . S
C1723 C1729 1.428 . S
H1724 C1720 0.930 . S
H1725 C1722 0.929 . S
S1726 N1727 1.613 . S
S1726 N1728 1.610 . S
N1727 S1726 1.613 . S
N1727 C1730 1.350 . S
N1728 S1726 1.610 . S
N1728 C1729 1.351 . S
C1729 C1723 1.428 . S
C1729 N1728 1.351 . S
C1729 C1730 1.434 . S
C1730 C1721 1.429 . S
C1730 N1727 1.350 . S
C1730 C1729 1.434 . S
C1731 C1732 1.369 . S
C1731 C1733 1.419 . S
C1731 H1735 0.930 . S
C1732 C1731 1.369 . S
C1732 C1741 1.429 . S
C1733 C1731 1.419 . S
C1733 C1734 1.363 . S
C1733 H1736 0.929 . S
C1734 C1733 1.363 . S
C1734 C1740 1.428 . S
H1735 C1731 0.930 . S
H1736 C1733 0.929 . S
S1737 N1738 1.613 . S
S1737 N1739 1.610 . S
N1738 S1737 1.613 . S
N1738 C1741 1.350 . S
N1739 S1737 1.610 . S
N1739 C1740 1.351 . S
C1740 C1734 1.428 . S
C1740 N1739 1.351 . S
C1740 C1741 1.434 . S
C1741 C1732 1.429 . S
C1741 N1738 1.350 . S
C1741 C1740 1.434 . S
C1742 C1743 1.369 . S
C1742 C1744 1.419 . S
C1742 H1746 0.930 . S
C1743 C1742 1.369 . S
C1743 C1752 1.429 . S
C1744 C1742 1.419 . S
C1744 C1745 1.363 . S
C1744 H1747 0.929 . S
C1745 C1744 1.363 . S
C1745 C1751 1.428 . S
H1746 C1742 0.930 . S
H1747 C1744 0.929 . S
S1748 N1749 1.613 . S
S1748 N1750 1.610 . S
N1749 S1748 1.613 . S
N1749 C1752 1.350 . S
N1750 S1748 1.610 . S
N1750 C1751 1.351 . S
C1751 C1745 1.428 . S
C1751 N1750 1.351 . S
C1751 C1752 1.434 . S
C1752 C1743 1.429 . S
C1752 N1749 1.350 . S
C1752 C1751 1.434 . S
C1753 C1754 1.369 . S
C1753 C1755 1.419 . S
C1753 H1757 0.930 . S
C1754 C1753 1.369 . S
C1754 C1763 1.429 . S
C1755 C1753 1.419 . S
C1755 C1756 1.363 . S
C1755 H1758 0.929 . S
C1756 C1755 1.363 . S
C1756 C1762 1.428 . S
H1757 C1753 0.930 . S
H1758 C1755 0.929 . S
S1759 N1760 1.613 . S
S1759 N1761 1.610 . S
N1760 S1759 1.613 . S
N1760 C1763 1.350 . S
N1761 S1759 1.610 . S
N1761 C1762 1.351 . S
C1762 C1756 1.428 . S
C1762 N1761 1.351 . S
C1762 C1763 1.434 . S
C1763 C1754 1.429 . S
C1763 N1760 1.350 . S
C1763 C1762 1.434 . S
C1764 C1765 1.369 . S
C1764 C1766 1.419 . S
C1764 H1768 0.930 . S
C1765 C1764 1.369 . S
C1765 C1774 1.429 . S
C1766 C1764 1.419 . S
C1766 C1767 1.363 . S
C1766 H1769 0.929 . S
C1767 C1766 1.363 . S
C1767 C1773 1.428 . S
H1768 C1764 0.930 . S
H1769 C1766 0.929 . S
S1770 N1771 1.613 . S
S1770 N1772 1.610 . S
N1771 S1770 1.613 . S
N1771 C1774 1.350 . S
N1772 S1770 1.610 . S
N1772 C1773 1.351 . S
C1773 C1767 1.428 . S
C1773 N1772 1.351 . S
C1773 C1774 1.434 . S
C1774 C1765 1.429 . S
C1774 N1771 1.350 . S
C1774 C1773 1.434 . S
C1775 C1776 1.369 . S
C1775 C1777 1.421 . S
C1775 H1779 0.930 1_455 S
C1776 C1775 1.369 . S
C1776 C1785 1.429 . S
C1777 C1775 1.421 . S
C1777 C1778 1.381 . S
C1777 H1780 0.909 1_455 S
C1778 C1777 1.381 . S
C1778 C1784 1.428 . S
H1779 C1775 0.930 1_655 S
H1780 C1777 0.909 1_655 S
S1781 N1782 1.613 . S
S1781 N1783 1.610 . S
N1782 S1781 1.613 . S
N1782 C1785 1.350 . S
N1783 S1781 1.610 . S
N1783 C1784 1.351 . S
C1784 C1778 1.428 . S
C1784 N1783 1.351 . S
C1784 C1785 1.434 . S
C1785 C1776 1.429 . S
C1785 N1782 1.350 . S
C1785 C1784 1.434 . S
C1786 C1787 1.369 . S
C1786 C1788 1.419 . S
C1786 H1790 0.930 . S
C1787 C1786 1.369 . S
C1787 C1796 1.429 . S
C1788 C1786 1.419 . S
C1788 C1789 1.363 . S
C1788 H1791 0.929 . S
C1789 C1788 1.363 . S
C1789 C1795 1.428 . S
H1790 C1786 0.930 . S
H1791 C1788 0.929 . S
S1792 N1793 1.613 . S
S1792 N1794 1.610 . S
N1793 S1792 1.613 . S
N1793 C1796 1.350 . S
N1794 S1792 1.610 . S
N1794 C1795 1.351 . S
C1795 C1789 1.428 . S
C1795 N1794 1.351 . S
C1795 C1796 1.434 . S
C1796 C1787 1.429 . S
C1796 N1793 1.350 . S
C1796 C1795 1.434 . S
C1797 C1798 1.369 . S
C1797 C1799 1.419 . S
C1797 H1801 0.930 . S
C1798 C1797 1.369 . S
C1798 C1807 1.429 . S
C1799 C1797 1.419 . S
C1799 C1800 1.363 . S
C1799 H1802 0.929 . S
C1800 C1799 1.363 . S
C1800 C1806 1.428 . S
H1801 C1797 0.930 . S
H1802 C1799 0.929 . S
S1803 N1804 1.613 . S
S1803 N1805 1.610 . S
N1804 S1803 1.613 . S
N1804 C1807 1.350 1_455 S
N1805 S1803 1.610 . S
N1805 C1806 1.351 1_455 S
C1806 C1800 1.428 . S
C1806 N1805 1.351 1_655 S
C1806 C1807 1.434 . S
C1807 C1798 1.429 . S
C1807 N1804 1.350 1_655 S
C1807 C1806 1.434 . S
C1808 C1809 1.369 . S
C1808 C1810 1.419 . S
C1808 H1812 0.930 . S
C1809 C1808 1.369 . S
C1809 C1818 1.429 . S
C1810 C1808 1.419 . S
C1810 C1811 1.363 . S
C1810 H1813 0.929 . S
C1811 C1810 1.363 . S
C1811 C1817 1.428 . S
H1812 C1808 0.930 . S
H1813 C1810 0.929 . S
S1814 N1815 1.613 . S
S1814 N1816 1.610 . S
N1815 S1814 1.613 . S
N1815 C1818 1.350 . S
N1816 S1814 1.610 . S
N1816 C1817 1.351 . S
C1817 C1811 1.428 . S
C1817 N1816 1.351 . S
C1817 C1818 1.434 . S
C1818 C1809 1.429 . S
C1818 N1815 1.350 . S
C1818 C1817 1.434 . S
C1819 C1820 1.369 . S
C1819 C1821 1.419 . S
C1819 H1823 0.930 . S
C1820 C1819 1.369 . S
C1820 C1829 1.429 . S
C1821 C1819 1.419 . S
C1821 C1822 1.363 . S
C1821 H1824 0.929 . S
C1822 C1821 1.363 . S
C1822 C1828 1.428 . S
H1823 C1819 0.930 . S
H1824 C1821 0.929 . S
S1825 N1826 1.613 . S
S1825 N1827 1.610 . S
N1826 S1825 1.613 . S
N1826 C1829 1.350 . S
N1827 S1825 1.610 . S
N1827 C1828 1.351 . S
C1828 C1822 1.428 . S
C1828 N1827 1.351 . S
C1828 C1829 1.434 . S
C1829 C1820 1.429 . S
C1829 N1826 1.350 . S
C1829 C1828 1.434 . S
C1830 C1831 1.369 . S
C1830 C1832 1.419 . S
C1830 H1834 0.930 . S
C1831 C1830 1.369 . S
C1831 C1840 1.429 1_556 S
C1832 C1830 1.419 . S
C1832 C1833 1.363 . S
C1832 H1835 0.929 . S
C1833 C1832 1.363 . S
C1833 C1839 1.428 1_556 S
H1834 C1830 0.930 . S
H1835 C1832 0.929 . S
S1836 N1837 1.613 . S
S1836 N1838 1.610 . S
N1837 S1836 1.613 . S
N1837 C1840 1.350 . S
N1838 S1836 1.610 . S
N1838 C1839 1.351 . S
C1839 C1833 1.428 1_554 S
C1839 N1838 1.351 . S
C1839 C1840 1.434 . S
C1840 C1831 1.429 1_554 S
C1840 N1837 1.350 . S
C1840 C1839 1.434 . S
C1841 C1842 1.369 . S
C1841 C1843 1.419 . S
C1841 H1845 0.930 . S
C1842 C1841 1.369 . S
C1842 C1851 1.429 . S
C1843 C1841 1.419 . S
C1843 C1844 1.363 . S
C1843 H1846 0.929 . S
C1844 C1843 1.363 . S
C1844 C1850 1.428 . S
H1845 C1841 0.930 . S
H1846 C1843 0.929 . S
S1847 N1848 1.613 . S
S1847 N1849 1.610 . S
N1848 S1847 1.613 . S
N1848 C1851 1.350 . S
N1849 S1847 1.610 . S
N1849 C1850 1.351 . S
C1850 C1844 1.428 . S
C1850 N1849 1.351 . S
C1850 C1851 1.434 . S
C1851 C1842 1.429 . S
C1851 N1848 1.350 . S
C1851 C1850 1.434 . S
C1852 C1853 1.369 . S
C1852 C1854 1.419 . S
C1852 H1856 0.930 . S
C1853 C1852 1.369 . S
C1853 C1862 1.429 . S
C1854 C1852 1.419 . S
C1854 C1855 1.363 . S
C1854 H1857 0.929 . S
C1855 C1854 1.363 . S
C1855 C1861 1.428 . S
H1856 C1852 0.930 . S
H1857 C1854 0.929 . S
S1858 N1859 1.613 . S
S1858 N1860 1.610 . S
N1859 S1858 1.613 . S
N1859 C1862 1.350 . S
N1860 S1858 1.610 . S
N1860 C1861 1.351 . S
C1861 C1855 1.428 . S
C1861 N1860 1.351 . S
C1861 C1862 1.434 . S
C1862 C1853 1.429 . S
C1862 N1859 1.350 . S
C1862 C1861 1.434 . S
C1863 C1864 1.369 . S
C1863 C1865 1.419 . S
C1863 H1867 0.930 . S
C1864 C1863 1.369 . S
C1864 C1873 1.429 . S
C1865 C1863 1.419 . S
C1865 C1866 1.363 . S
C1865 H1868 0.929 . S
C1866 C1865 1.363 . S
C1866 C1872 1.428 . S
H1867 C1863 0.930 . S
H1868 C1865 0.929 . S
S1869 N1870 1.613 . S
S1869 N1871 1.610 . S
N1870 S1869 1.613 . S
N1870 C1873 1.350 . S
N1871 S1869 1.610 . S
N1871 C1872 1.351 . S
C1872 C1866 1.428 . S
C1872 N1871 1.351 . S
C1872 C1873 1.434 . S
C1873 C1864 1.429 . S
C1873 N1870 1.350 . S
C1873 C1872 1.434 . S
C1874 C1875 1.369 . S
C1874 C1876 1.419 . S
C1874 H1878 0.930 . S
C1875 C1874 1.369 . S
C1875 C1884 1.429 . S
C1876 C1874 1.419 . S
C1876 C1877 1.363 . S
C1876 H1879 0.929 . S
C1877 C1876 1.363 . S
C1877 C1883 1.428 . S
H1878 C1874 0.930 . S
H1879 C1876 0.929 . S
S1880 N1881 1.613 . S
S1880 N1882 1.610 . S
N1881 S1880 1.613 . S
N1881 C1884 1.350 . S
N1882 S1880 1.610 . S
N1882 C1883 1.351 . S
C1883 C1877 1.428 . S
C1883 N1882 1.351 . S
C1883 C1884 1.434 . S
C1884 C1875 1.429 . S
C1884 N1881 1.350 . S
C1884 C1883 1.434 . S
C1885 C1886 1.369 . S
C1885 C1887 1.419 . S
C1885 H1889 0.930 . S
C1886 C1885 1.369 . S
C1886 C1895 1.429 . S
C1887 C1885 1.419 . S
C1887 C1888 1.363 . S
C1887 H1890 0.929 . S
C1888 C1887 1.363 . S
C1888 C1894 1.428 . S
H1889 C1885 0.930 . S
H1890 C1887 0.929 . S
S1891 N1892 1.613 . S
S1891 N1893 1.610 . S
N1892 S1891 1.613 . S
N1892 C1895 1.350 . S
N1893 S1891 1.610 . S
N1893 C1894 1.351 . S
C1894 C1888 1.428 . S
C1894 N1893 1.351 . S
C1894 C1895 1.434 . S
C1895 C1886 1.429 . S
C1895 N1892 1.350 . S
C1895 C1894 1.434 . S
C1896 C1897 1.369 . S
C1896 C1898 1.419 . S
C1896 H1900 0.930 . S
C1897 C1896 1.369 . S
C1897 C1906 1.429 . S
C1898 C1896 1.419 . S
C1898 C1899 1.363 . S
C1898 H1901 0.929 . S
C1899 C1898 1.363 . S
C1899 C1905 1.428 . S
H1900 C1896 0.930 . S
H1901 C1898 0.929 . S
S1902 N1903 1.613 . S
S1902 N1904 1.610 . S
N1903 S1902 1.613 . S
N1903 C1906 1.350 . S
N1904 S1902 1.610 . S
N1904 C1905 1.351 . S
C1905 C1899 1.428 . S
C1905 N1904 1.351 . S
C1905 C1906 1.434 . S
C1906 C1897 1.429 . S
C1906 N1903 1.350 . S
C1906 C1905 1.434 . S
C1907 C1908 1.369 . S
C1907 C1909 1.419 . S
C1907 H1911 0.930 . S
C1908 C1907 1.369 . S
C1908 C1917 1.429 . S
C1909 C1907 1.419 . S
C1909 C1910 1.363 . S
C1909 H1912 0.929 . S
C1910 C1909 1.363 . S
C1910 C1916 1.428 . S
H1911 C1907 0.930 . S
H1912 C1909 0.929 . S
S1913 N1914 1.613 . S
S1913 N1915 1.610 . S
N1914 S1913 1.613 . S
N1914 C1917 1.350 1_565 S
N1915 S1913 1.610 . S
N1915 C1916 1.351 1_565 S
C1916 C1910 1.428 . S
C1916 N1915 1.351 1_545 S
C1916 C1917 1.434 . S
C1917 C1908 1.429 . S
C1917 N1914 1.350 1_545 S
C1917 C1916 1.434 . S
C1918 C1919 1.369 . S
C1918 C1920 1.419 . S
C1918 H1922 0.930 . S
C1919 C1918 1.369 . S
C1919 C1928 1.429 . S
C1920 C1918 1.419 . S
C1920 C1921 1.363 . S
C1920 H1923 0.929 . S
C1921 C1920 1.363 . S
C1921 C1927 1.428 . S
H1922 C1918 0.930 . S
H1923 C1920 0.929 . S
S1924 N1925 1.613 . S
S1924 N1926 1.610 . S
N1925 S1924 1.613 . S
N1925 C1928 1.350 . S
N1926 S1924 1.610 . S
N1926 C1927 1.351 . S
C1927 C1921 1.428 . S
C1927 N1926 1.351 . S
C1927 C1928 1.434 . S
C1928 C1919 1.429 . S
C1928 N1925 1.350 . S
C1928 C1927 1.434 . S
C1929 C1930 1.369 . S
C1929 C1931 1.419 . S
C1929 H1933 0.930 . S
C1930 C1929 1.369 . S
C1930 C1939 1.429 . S
C1931 C1929 1.419 . S
C1931 C1932 1.363 . S
C1931 H1934 0.929 . S
C1932 C1931 1.363 . S
C1932 C1938 1.428 . S
H1933 C1929 0.930 . S
H1934 C1931 0.929 . S
S1935 N1936 1.613 . S
S1935 N1937 1.610 . S
N1936 S1935 1.613 . S
N1936 C1939 1.350 . S
N1937 S1935 1.610 . S
N1937 C1938 1.351 . S
C1938 C1932 1.428 . S
C1938 N1937 1.351 . S
C1938 C1939 1.434 . S
C1939 C1930 1.429 . S
C1939 N1936 1.350 . S
C1939 C1938 1.434 . S
C1940 C1941 1.369 . S
C1940 C1942 1.419 . S
C1940 H1944 0.930 . S
C1941 C1940 1.369 . S
C1941 C1950 1.429 . S
C1942 C1940 1.419 . S
C1942 C1943 1.363 . S
C1942 H1945 0.929 . S
C1943 C1942 1.363 . S
C1943 C1949 1.428 . S
H1944 C1940 0.930 . S
H1945 C1942 0.929 . S
S1946 N1947 1.613 . S
S1946 N1948 1.610 . S
N1947 S1946 1.613 . S
N1947 C1950 1.350 . S
N1948 S1946 1.610 . S
N1948 C1949 1.351 . S
C1949 C1943 1.428 . S
C1949 N1948 1.351 . S
C1949 C1950 1.434 . S
C1950 C1941 1.429 . S
C1950 N1947 1.350 . S
C1950 C1949 1.434 . S
C1951 C1952 1.369 . S
C1951 C1953 1.419 . S
C1951 H1955 0.930 . S
C1952 C1951 1.369 . S
C1952 C1961 1.429 . S
C1953 C1951 1.419 . S
C1953 C1954 1.363 . S
C1953 H1956 0.929 . S
C1954 C1953 1.363 . S
C1954 C1960 1.428 . S
H1955 C1951 0.930 . S
H1956 C1953 0.929 . S
S1957 N1958 1.614 1_455 S
S1957 N1959 1.615 1_455 S
N1958 S1957 1.614 1_655 S
N1958 C1961 1.350 . S
N1959 S1957 1.615 1_655 S
N1959 C1960 1.351 . S
C1960 C1954 1.428 . S
C1960 N1959 1.351 . S
C1960 C1961 1.434 . S
C1961 C1952 1.429 . S
C1961 N1958 1.350 . S
C1961 C1960 1.434 . S
C1962 C1963 1.369 . S
C1962 C1964 1.419 . S
C1962 H1966 0.930 . S
C1963 C1962 1.369 . S
C1963 C1972 1.429 . S
C1964 C1962 1.419 . S
C1964 C1965 1.363 . S
C1964 H1967 0.929 . S
C1965 C1964 1.363 . S
C1965 C1971 1.428 . S
H1966 C1962 0.930 . S
H1967 C1964 0.929 . S
S1968 N1969 1.613 . S
S1968 N1970 1.610 . S
N1969 S1968 1.613 . S
N1969 C1972 1.350 . S
N1970 S1968 1.610 . S
N1970 C1971 1.351 . S
C1971 C1965 1.428 . S
C1971 N1970 1.351 . S
C1971 C1972 1.434 . S
C1972 C1963 1.429 . S
C1972 N1969 1.350 . S
C1972 C1971 1.434 . S
C1973 C1974 1.369 . S
C1973 C1975 1.419 . S
C1973 H1977 0.930 . S
C1974 C1973 1.369 . S
C1974 C1983 1.429 . S
C1975 C1973 1.419 . S
C1975 C1976 1.363 . S
C1975 H1978 0.929 . S
C1976 C1975 1.363 . S
C1976 C1982 1.428 . S
H1977 C1973 0.930 . S
H1978 C1975 0.929 . S
S1979 N1980 1.613 . S
S1979 N1981 1.610 . S
N1980 S1979 1.613 . S
N1980 C1983 1.350 . S
N1981 S1979 1.610 . S
N1981 C1982 1.351 . S
C1982 C1976 1.428 . S
C1982 N1981 1.351 . S
C1982 C1983 1.434 . S
C1983 C1974 1.429 . S
C1983 N1980 1.350 . S
C1983 C1982 1.434 . S
C1984 C1985 1.369 . S
C1984 C1986 1.419 . S
C1984 H1988 0.930 . S
C1985 C1984 1.369 . S
C1985 C1994 1.429 . S
C1986 C1984 1.419 . S
C1986 C1987 1.363 . S
C1986 H1989 0.929 . S
C1987 C1986 1.363 . S
C1987 C1993 1.428 . S
H1988 C1984 0.930 . S
H1989 C1986 0.929 . S
S1990 N1991 1.613 . S
S1990 N1992 1.610 . S
N1991 S1990 1.613 . S
N1991 C1994 1.350 . S
N1992 S1990 1.610 . S
N1992 C1993 1.351 . S
C1993 C1987 1.428 . S
C1993 N1992 1.351 . S
C1993 C1994 1.434 . S
C1994 C1985 1.429 . S
C1994 N1991 1.350 . S
C1994 C1993 1.434 . S
C1995 C1996 1.369 . S
C1995 C1997 1.421 . S
C1995 H1999 0.930 1_655 S
C1996 C1995 1.369 . S
C1996 C2005 1.429 . S
C1997 C1995 1.421 . S
C1997 C1998 1.385 . S
C1997 H2000 0.904 1_655 S
C1998 C1997 1.385 . S
C1998 C2004 1.428 . S
H1999 C1995 0.930 1_455 S
H2000 C1997 0.904 1_455 S
S2001 N2002 1.613 . S
S2001 N2003 1.610 . S
N2002 S2001 1.613 . S
N2002 C2005 1.350 . S
N2003 S2001 1.610 . S
N2003 C2004 1.351 . S
C2004 C1998 1.428 . S
C2004 N2003 1.351 . S
C2004 C2005 1.434 . S
C2005 C1996 1.429 . S
C2005 N2002 1.350 . S
C2005 C2004 1.434 . S
C2006 C2007 1.369 . S
C2006 C2008 1.419 . S
C2006 H2010 0.930 . S
C2007 C2006 1.369 . S
C2007 C2016 1.429 . S
C2008 C2006 1.419 . S
C2008 C2009 1.363 . S
C2008 H2011 0.929 . S
C2009 C2008 1.363 . S
C2009 C2015 1.428 . S
H2010 C2006 0.930 . S
H2011 C2008 0.929 . S
S2012 N2013 1.613 . S
S2012 N2014 1.610 . S
N2013 S2012 1.613 . S
N2013 C2016 1.350 . S
N2014 S2012 1.610 . S
N2014 C2015 1.351 . S
C2015 C2009 1.428 . S
C2015 N2014 1.351 . S
C2015 C2016 1.434 . S
C2016 C2007 1.429 . S
C2016 N2013 1.350 . S
C2016 C2015 1.434 . S
C2017 C2018 1.369 . S
C2017 C2019 1.419 . S
C2017 H2021 0.930 . S
C2018 C2017 1.369 . S
C2018 C2027 1.429 . S
C2019 C2017 1.419 . S
C2019 C2020 1.363 . S
C2019 H2022 0.929 . S
C2020 C2019 1.363 . S
C2020 C2026 1.428 . S
H2021 C2017 0.930 . S
H2022 C2019 0.929 . S
S2023 N2024 1.613 . S
S2023 N2025 1.610 . S
N2024 S2023 1.613 . S
N2024 C2027 1.350 . S
N2025 S2023 1.610 . S
N2025 C2026 1.351 . S
C2026 C2020 1.428 . S
C2026 N2025 1.351 . S
C2026 C2027 1.434 . S
C2027 C2018 1.429 . S
C2027 N2024 1.350 . S
C2027 C2026 1.434 . S
C2028 C2029 1.369 . S
C2028 C2030 1.419 . S
C2028 H2032 0.930 . S
C2029 C2028 1.369 . S
C2029 C2038 1.429 . S
C2030 C2028 1.419 . S
C2030 C2031 1.363 . S
C2030 H2033 0.929 . S
C2031 C2030 1.363 . S
C2031 C2037 1.428 . S
H2032 C2028 0.930 . S
H2033 C2030 0.929 . S
S2034 N2035 1.613 . S
S2034 N2036 1.610 . S
N2035 S2034 1.613 . S
N2035 C2038 1.350 . S
N2036 S2034 1.610 . S
N2036 C2037 1.351 . S
C2037 C2031 1.428 . S
C2037 N2036 1.351 . S
C2037 C2038 1.434 . S
C2038 C2029 1.429 . S
C2038 N2035 1.350 . S
C2038 C2037 1.434 . S
C2039 C2040 1.369 . S
C2039 C2041 1.419 . S
C2039 H2043 0.930 . S
C2040 C2039 1.369 . S
C2040 C2049 1.429 . S
C2041 C2039 1.419 . S
C2041 C2042 1.363 . S
C2041 H2044 0.929 . S
C2042 C2041 1.363 . S
C2042 C2048 1.428 . S
H2043 C2039 0.930 . S
H2044 C2041 0.929 . S
S2045 N2046 1.613 . S
S2045 N2047 1.610 . S
N2046 S2045 1.613 . S
N2046 C2049 1.350 . S
N2047 S2045 1.610 . S
N2047 C2048 1.351 . S
C2048 C2042 1.428 . S
C2048 N2047 1.351 . S
C2048 C2049 1.434 . S
C2049 C2040 1.429 . S
C2049 N2046 1.350 . S
C2049 C2048 1.434 . S
C2050 C2051 1.369 . S
C2050 C2052 1.419 . S
C2050 H2054 0.930 . S
C2051 C2050 1.369 . S
C2051 C2060 1.429 . S
C2052 C2050 1.419 . S
C2052 C2053 1.363 . S
C2052 H2055 0.929 . S
C2053 C2052 1.363 . S
C2053 C2059 1.428 . S
H2054 C2050 0.930 . S
H2055 C2052 0.929 . S
S2056 N2057 1.613 . S
S2056 N2058 1.610 . S
N2057 S2056 1.613 . S
N2057 C2060 1.350 . S
N2058 S2056 1.610 . S
N2058 C2059 1.351 . S
C2059 C2053 1.428 . S
C2059 N2058 1.351 . S
C2059 C2060 1.434 . S
C2060 C2051 1.429 . S
C2060 N2057 1.350 . S
C2060 C2059 1.434 . S
C2061 C2062 1.369 . S
C2061 C2063 1.419 . S
C2061 H2065 0.930 . S
C2062 C2061 1.369 . S
C2062 C2071 1.429 . S
C2063 C2061 1.419 . S
C2063 C2064 1.363 . S
C2063 H2066 0.929 . S
C2064 C2063 1.363 . S
C2064 C2070 1.428 . S
H2065 C2061 0.930 . S
H2066 C2063 0.929 . S
S2067 N2068 1.611 1_556 S
S2067 N2069 1.598 1_556 S
N2068 S2067 1.611 1_554 S
N2068 C2071 1.350 . S
N2069 S2067 1.598 1_554 S
N2069 C2070 1.351 . S
C2070 C2064 1.428 . S
C2070 N2069 1.351 . S
C2070 C2071 1.434 . S
C2071 C2062 1.429 . S
C2071 N2068 1.350 . S
C2071 C2070 1.434 . S
C2072 C2073 1.369 . S
C2072 C2074 1.419 . S
C2072 H2076 0.930 . S
C2073 C2072 1.369 . S
C2073 C2082 1.429 . S
C2074 C2072 1.419 . S
C2074 C2075 1.363 . S
C2074 H2077 0.929 . S
C2075 C2074 1.363 . S
C2075 C2081 1.428 . S
H2076 C2072 0.930 . S
H2077 C2074 0.929 . S
S2078 N2079 1.613 . S
S2078 N2080 1.610 . S
N2079 S2078 1.613 . S
N2079 C2082 1.350 . S
N2080 S2078 1.610 . S
N2080 C2081 1.351 . S
C2081 C2075 1.428 . S
C2081 N2080 1.351 . S
C2081 C2082 1.434 . S
C2082 C2073 1.429 . S
C2082 N2079 1.350 . S
C2082 C2081 1.434 . S
C2083 C2084 1.369 . S
C2083 C2085 1.419 . S
C2083 H2087 0.930 . S
C2084 C2083 1.369 . S
C2084 C2093 1.429 . S
C2085 C2083 1.419 . S
C2085 C2086 1.363 . S
C2085 H2088 0.929 . S
C2086 C2085 1.363 . S
C2086 C2092 1.428 . S
H2087 C2083 0.930 . S
H2088 C2085 0.929 . S
S2089 N2090 1.613 . S
S2089 N2091 1.610 . S
N2090 S2089 1.613 . S
N2090 C2093 1.350 . S
N2091 S2089 1.610 . S
N2091 C2092 1.351 . S
C2092 C2086 1.428 . S
C2092 N2091 1.351 . S
C2092 C2093 1.434 . S
C2093 C2084 1.429 . S
C2093 N2090 1.350 . S
C2093 C2092 1.434 . S
C2094 C2095 1.369 . S
C2094 C2096 1.419 . S
C2094 H2098 0.930 . S
C2095 C2094 1.369 . S
C2095 C2104 1.429 . S
C2096 C2094 1.419 . S
C2096 C2097 1.363 . S
C2096 H2099 0.929 . S
C2097 C2096 1.363 . S
C2097 C2103 1.428 . S
H2098 C2094 0.930 . S
H2099 C2096 0.929 . S
S2100 N2101 1.613 . S
S2100 N2102 1.610 . S
N2101 S2100 1.613 . S
N2101 C2104 1.350 . S
N2102 S2100 1.610 . S
N2102 C2103 1.351 . S
C2103 C2097 1.428 . S
C2103 N2102 1.351 . S
C2103 C2104 1.434 . S
C2104 C2095 1.429 . S
C2104 N2101 1.350 . S
C2104 C2103 1.434 . S
C2105 C2106 1.369 . S
C2105 C2107 1.419 . S
C2105 H2109 0.930 . S
C2106 C2105 1.369 . S
C2106 C2115 1.429 . S
C2107 C2105 1.419 . S
C2107 C2108 1.363 . S
C2107 H2110 0.929 . S
C2108 C2107 1.363 . S
C2108 C2114 1.428 . S
H2109 C2105 0.930 . S
H2110 C2107 0.929 . S
S2111 N2112 1.613 . S
S2111 N2113 1.610 . S
N2112 S2111 1.613 . S
N2112 C2115 1.350 . S
N2113 S2111 1.610 . S
N2113 C2114 1.351 . S
C2114 C2108 1.428 . S
C2114 N2113 1.351 . S
C2114 C2115 1.434 . S
C2115 C2106 1.429 . S
C2115 N2112 1.350 . S
C2115 C2114 1.434 . S
C2116 C2117 1.369 . S
C2116 C2118 1.419 . S
C2116 H2120 0.930 . S
C2117 C2116 1.369 . S
C2117 C2126 1.429 . S
C2118 C2116 1.419 . S
C2118 C2119 1.363 . S
C2118 H2121 0.929 . S
C2119 C2118 1.363 . S
C2119 C2125 1.428 . S
H2120 C2116 0.930 . S
H2121 C2118 0.929 . S
S2122 N2123 1.613 . S
S2122 N2124 1.610 . S
N2123 S2122 1.613 . S
N2123 C2126 1.350 1_554 S
N2124 S2122 1.610 . S
N2124 C2125 1.351 1_554 S
C2125 C2119 1.428 . S
C2125 N2124 1.351 1_556 S
C2125 C2126 1.434 . S
C2126 C2117 1.429 . S
C2126 N2123 1.350 1_556 S
C2126 C2125 1.434 . S
C2127 C2128 1.369 . S
C2127 C2129 1.419 . S
C2127 H2131 0.930 . S
C2128 C2127 1.369 . S
C2128 C2137 1.429 . S
C2129 C2127 1.419 . S
C2129 C2130 1.363 . S
C2129 H2132 0.929 . S
C2130 C2129 1.363 . S
C2130 C2136 1.428 . S
H2131 C2127 0.930 . S
H2132 C2129 0.929 . S
S2133 N2134 1.613 . S
S2133 N2135 1.610 . S
N2134 S2133 1.613 . S
N2134 C2137 1.350 . S
N2135 S2133 1.610 . S
N2135 C2136 1.351 . S
C2136 C2130 1.428 . S
C2136 N2135 1.351 . S
C2136 C2137 1.434 . S
C2137 C2128 1.429 . S
C2137 N2134 1.350 . S
C2137 C2136 1.434 . S
C2138 C2139 1.347 1_556 S
C2138 C2140 1.421 . S
C2138 H2142 0.951 . S
C2139 C2138 1.347 1_554 S
C2139 C2148 1.429 . S
C2140 C2138 1.421 . S
C2140 C2141 1.363 1_556 S
C2140 H2143 0.929 . S
C2141 C2140 1.363 1_554 S
C2141 C2147 1.428 . S
H2142 C2138 0.951 . S
H2143 C2140 0.929 . S
S2144 N2145 1.613 . S
S2144 N2146 1.610 . S
N2145 S2144 1.613 . S
N2145 C2148 1.350 . S
N2146 S2144 1.610 . S
N2146 C2147 1.351 . S
C2147 C2141 1.428 . S
C2147 N2146 1.351 . S
C2147 C2148 1.434 . S
C2148 C2139 1.429 . S
C2148 N2145 1.350 . S
C2148 C2147 1.434 . S
C2149 C2150 1.369 . S
C2149 C2151 1.419 . S
C2149 H2153 0.930 . S
C2150 C2149 1.369 . S
C2150 C2159 1.429 . S
C2151 C2149 1.419 . S
C2151 C2152 1.363 . S
C2151 H2154 0.929 . S
C2152 C2151 1.363 . S
C2152 C2158 1.428 . S
H2153 C2149 0.930 . S
H2154 C2151 0.929 . S
S2155 N2156 1.613 . S
S2155 N2157 1.610 . S
N2156 S2155 1.613 . S
N2156 C2159 1.350 1_556 S
N2157 S2155 1.610 . S
N2157 C2158 1.351 1_556 S
C2158 C2152 1.428 . S
C2158 N2157 1.351 1_554 S
C2158 C2159 1.434 . S
C2159 C2150 1.429 . S
C2159 N2156 1.350 1_554 S
C2159 C2158 1.434 . S
C1635 C625 1.503 . S
C1633 C181 1.490 . S
C1646 C684 1.521 . S
C1644 C247 1.522 . S
C1655 C283 1.504 . S
C1657 C801 1.523 . S
C1668 C869 1.521 . S
C1666 C169 1.505 . S
C1679 C948 1.514 . S
C1677 C361 1.501 . S
C1690 C1073 1.522 . S
C1688 C433 1.510 . S
C1699 C421 1.493 . S
C1701 C1133 1.510 . S
C1712 C1241 1.533 . S
C1710 C355 1.534 . S
C1721 C427 1.513 . S
C1723 C1337 1.524 . S
C1734 C1397 1.523 . S
C1732 C325 1.524 . S
C1743 C385 1.496 . S
C1745 C1300 1.510 . S
C1756 C1417 1.526 . S
C1754 C463 1.512 . S
C1765 C253 1.514 . S
C1767 C1485 1.521 . S
C1776 C145 1.510 . S
C1778 C1476 1.525 . S
C1787 C205 1.484 . S
C1789 C1505 1.494 . S
C1798 C217 1.514 . S
C1800 C1513 1.513 . S
C1809 C139 1.510 . S
C1811 C897 1.520 . S
C1820 C535 1.500 . S
C1822 C860 1.511 . S
C1833 C596 1.504 . S
C1831 C565 1.506 . S
C1844 C693 1.512 . S
C1842 C313 1.495 . S
C1853 C175 1.522 . S
C1855 C957 1.534 . S
C1866 C1249 1.508 . S
C1864 C397 1.497 . S
C1877 C977 1.521 . S
C1875 C349 1.522 . S
C1888 C1161 1.529 . S
C1886 C457 1.515 . S
C1899 C1153 1.503 . S
C1897 C505 1.492 . S
C1908 C571 1.522 . S
C1910 C1221 1.519 . S
C1919 C319 1.507 . S
C1921 C985 1.518 . S
C1932 C1036 1.521 . S
C1930 C493 1.506 . S
C1941 C109 1.504 . S
C1943 C781 1.510 . S
C1954 C889 1.522 . S
C1952 C1 1.508 . S
C1965 C605 1.509 . S
C1963 C61 1.498 . S
C1976 C721 1.532 . S
C1974 C103 1.534 . S
C1985 C67 1.509 . S
C1987 C1425 1.524 . S
C1996 C73 1.524 . S
C1998 C1309 1.524 . S
C2007 C133 1.498 . S
C2009 C1388 1.511 . S
C2018 C31 1.513 . S
C2020 C1329 1.525 . S
C2031 C1573 1.522 . S
C2029 C289 1.512 . S
C2042 C1564 1.525 . S
C2040 C469 1.511 . S
C2053 C1593 1.494 . S
C2051 C529 1.484 . S
C2062 C541 1.515 . S
C2064 C1601 1.514 . S
C2073 C391 1.506 . S
C2075 C1065 1.521 . S
C2086 C1045 1.511 . S
C2084 C211 1.501 . S
C2097 C1124 1.505 . S
C2095 C241 1.506 . S
C2108 C1212 1.511 . S
C2106 C277 1.503 . S
C2117 C499 1.520 . S
C2119 C772 1.535 . S
C2130 C713 1.509 . S
C2128 C37 1.497 . S
C2139 C97 1.521 . S
C2141 C809 1.520 . S
C2152 C633 1.530 . S
C2150 C25 1.514 . S
