# Generated by pormake.
# Topology pyr, (3,6)-cn, num edge types: 1
# Building blocks:
#     Node 0, Type 0, BuildingBlock: MIDCAF_clean_linker_0, # of connection points: 3
#     Node 1, Type 0, BuildingBlock: MIDCAF_clean_linker_0, # of connection points: 3
#     Node 2, Type 0, BuildingBlock: MIDCAF_clean_linker_0, # of connection points: 3
#     Node 3, Type 0, BuildingBlock: MIDCAF_clean_linker_0, # of connection points: 3
#     Node 4, Type 0, BuildingBlock: MIDCAF_clean_linker_0, # of connection points: 3
#     Node 5, Type 0, BuildingBlock: MIDCAF_clean_linker_0, # of connection points: 3
#     Node 6, Type 0, BuildingBlock: MIDCAF_clean_linker_0, # of connection points: 3
#     Node 7, Type 0, BuildingBlock: MIDCAF_clean_linker_0, # of connection points: 3
#     Node 8, Type 1, BuildingBlock: PAMTOO_clean_sbu_0, # of connection points: 6
#     Node 9, Type 1, BuildingBlock: PAMTOO_clean_sbu_0, # of connection points: 6
#     Node 10, Type 1, BuildingBlock: PAMTOO_clean_sbu_0, # of connection points: 6
#     Node 11, Type 1, BuildingBlock: PAMTOO_clean_sbu_0, # of connection points: 6
#     Edge 12, Type (0, 1), BuildingBlock: UVAHIK_clean_linker_0, # of connection points: 2
#     Edge 13, Type (0, 1), BuildingBlock: UVAHIK_clean_linker_0, # of connection points: 2
#     Edge 14, Type (0, 1), BuildingBlock: UVAHIK_clean_linker_0, # of connection points: 2
#     Edge 15, Type (0, 1), BuildingBlock: UVAHIK_clean_linker_0, # of connection points: 2
#     Edge 16, Type (0, 1), BuildingBlock: UVAHIK_clean_linker_0, # of connection points: 2
#     Edge 17, Type (0, 1), BuildingBlock: UVAHIK_clean_linker_0, # of connection points: 2
#     Edge 18, Type (0, 1), BuildingBlock: UVAHIK_clean_linker_0, # of connection points: 2
#     Edge 19, Type (0, 1), BuildingBlock: UVAHIK_clean_linker_0, # of connection points: 2
#     Edge 20, Type (0, 1), BuildingBlock: UVAHIK_clean_linker_0, # of connection points: 2
#     Edge 21, Type (0, 1), BuildingBlock: UVAHIK_clean_linker_0, # of connection points: 2
#     Edge 22, Type (0, 1), BuildingBlock: UVAHIK_clean_linker_0, # of connection points: 2
#     Edge 23, Type (0, 1), BuildingBlock: UVAHIK_clean_linker_0, # of connection points: 2
#     Edge 24, Type (0, 1), BuildingBlock: UVAHIK_clean_linker_0, # of connection points: 2
#     Edge 25, Type (0, 1), BuildingBlock: UVAHIK_clean_linker_0, # of connection points: 2
#     Edge 26, Type (0, 1), BuildingBlock: UVAHIK_clean_linker_0, # of connection points: 2
#     Edge 27, Type (0, 1), BuildingBlock: UVAHIK_clean_linker_0, # of connection points: 2
#     Edge 28, Type (0, 1), BuildingBlock: UVAHIK_clean_linker_0, # of connection points: 2
#     Edge 29, Type (0, 1), BuildingBlock: UVAHIK_clean_linker_0, # of connection points: 2
#     Edge 30, Type (0, 1), BuildingBlock: UVAHIK_clean_linker_0, # of connection points: 2
#     Edge 31, Type (0, 1), BuildingBlock: UVAHIK_clean_linker_0, # of connection points: 2
#     Edge 32, Type (0, 1), BuildingBlock: UVAHIK_clean_linker_0, # of connection points: 2
#     Edge 33, Type (0, 1), BuildingBlock: UVAHIK_clean_linker_0, # of connection points: 2
#     Edge 34, Type (0, 1), BuildingBlock: UVAHIK_clean_linker_0, # of connection points: 2
#     Edge 35, Type (0, 1), BuildingBlock: UVAHIK_clean_linker_0, # of connection points: 2
# Relax obj value: 0.071
# Max RMSD: 0.146
# Mean RMSD: 0.064
data_MOF--net-pyr--node1-PAMTOO_clean_sbu_0--node2-MIDCAF_clean_linker_0--edge1-UVAHIK_clean_linker_0
_symmetry_space_group_name_H-M    P1
_symmetry_Int_Tables_number       1
_symmetry_cell_setting            triclinic
loop_
_symmetry_equiv_pos_as_xyz
'x, y, z'
_cell_length_a     55.495955
_cell_length_b     58.357018
_cell_length_c     59.196649
_cell_angle_alpha  89.960375
_cell_angle_beta   90.012376
_cell_angle_gamma 100.82688
loop_
_atom_site_label
_atom_site_type_symbol
_atom_site_fract_x
_atom_site_fract_y
_atom_site_fract_z
_atom_type_partial_charge
C0 C 0.27375 0.23978 0.28859 0.0
C1 C 0.2858 0.22467 0.3009 0.0
C2 C 0.30795 0.21973 0.29242 0.0
C3 C 0.31726 0.22889 0.27168 0.0
H4 H 0.35996 0.21351 0.21963 0.0
H5 H 0.386 0.19175 0.19894 0.0
H6 H 0.38059 0.23372 0.13966 0.0
H7 H 0.35397 0.25523 0.16018 0.0
H8 H 0.31266 0.28697 0.15883 0.0
H9 H 0.28847 0.31149 0.13885 0.0
H10 H 0.25013 0.32052 0.20077 0.0
H11 H 0.27445 0.29671 0.22075 0.0
H12 H 0.27294 0.26014 0.25873 0.0
H13 H 0.25647 0.24372 0.29436 0.0
H14 H 0.31797 0.2085 0.30165 0.0
H15 H 0.33406 0.2243 0.26542 0.0
N16 N 0.33043 0.24179 0.22528 0.0
N17 N 0.32589 0.26368 0.19279 0.0
N18 N 0.30239 0.26713 0.22505 0.0
C19 C 0.33696 0.24786 0.20364 0.0
C20 C 0.30865 0.27348 0.20347 0.0
C21 C 0.31319 0.25138 0.23612 0.0
C22 C 0.35462 0.23605 0.19155 0.0
C23 C 0.36442 0.21829 0.20223 0.0
C24 C 0.37953 0.20586 0.1904 0.0
C25 C 0.38531 0.2109 0.1676 0.0
C26 C 0.37617 0.22915 0.15711 0.0
C27 C 0.361 0.24157 0.16894 0.0
C28 C 0.29547 0.28972 0.19141 0.0
C29 C 0.29927 0.29442 0.16823 0.0
C30 C 0.28532 0.30837 0.15674 0.0
C31 C 0.26735 0.31797 0.16819 0.0
C32 C 0.26406 0.31374 0.19146 0.0
C33 C 0.27793 0.29986 0.20291 0.0
C34 C 0.30473 0.24337 0.25904 0.0
C35 C 0.28315 0.2491 0.26799 0.0
C36 C 0.15571 0.82445 0.68061 0.0
C37 C 0.14176 0.81497 0.66197 0.0
C38 C 0.14107 0.79157 0.65606 0.0
C39 C 0.1548 0.77799 0.66836 0.0
H40 H 0.20359 0.73038 0.65664 0.0
H41 H 0.2262 0.70422 0.63715 0.0
H42 H 0.26279 0.69331 0.69959 0.0
H43 H 0.23996 0.71876 0.71911 0.0
H44 H 0.24621 0.75841 0.75583 0.0
H45 H 0.26451 0.77641 0.79039 0.0
H46 H 0.20727 0.81721 0.79494 0.0
H47 H 0.18935 0.79976 0.76006 0.0
H48 H 0.17974 0.81878 0.70731 0.0
H49 H 0.15641 0.84247 0.68543 0.0
H50 H 0.13042 0.78401 0.64166 0.0
H51 H 0.15437 0.76009 0.66328 0.0
N52 N 0.19295 0.75606 0.68968 0.0
N53 N 0.21578 0.75163 0.72224 0.0
N54 N 0.19155 0.78034 0.72104 0.0
C55 C 0.20871 0.74481 0.70091 0.0
C56 C 0.20717 0.76926 0.73248 0.0
C57 C 0.18428 0.77384 0.69972 0.0
C58 C 0.22009 0.72691 0.68943 0.0
C59 C 0.21617 0.72211 0.66629 0.0
C60 C 0.22924 0.70722 0.65507 0.0
C61 C 0.24642 0.69677 0.66676 0.0
C62 C 0.2495 0.7008 0.69008 0.0
C63 C 0.23649 0.71562 0.70126 0.0
C64 C 0.21648 0.77786 0.75497 0.0
C65 C 0.23732 0.771 0.76433 0.0
C66 C 0.24778 0.78125 0.78424 0.0
C67 C 0.23752 0.79846 0.79531 0.0
C68 C 0.21595 0.80439 0.78657 0.0
C69 C 0.2056 0.79428 0.7666 0.0
C70 C 0.16891 0.78753 0.68701 0.0
C71 C 0.16895 0.81082 0.69314 0.0
C72 C 0.63748 0.27867 0.87383 0.0
C73 C 0.61362 0.2675 0.868 0.0
C74 C 0.60116 0.27757 0.851 0.0
C75 C 0.61212 0.29865 0.8406 0.0
H76 H 0.60741 0.34668 0.78633 0.0
H77 H 0.59159 0.36389 0.75319 0.0
H78 H 0.6541 0.42051 0.7546 0.0
H79 H 0.66958 0.40373 0.78789 0.0
H80 H 0.70987 0.40752 0.82723 0.0
H81 H 0.74755 0.42669 0.84613 0.0
H82 H 0.73804 0.37178 0.89608 0.0
H83 H 0.70104 0.35253 0.87726 0.0
H84 H 0.6667 0.30754 0.86881 0.0
H85 H 0.64794 0.27119 0.88637 0.0
H86 H 0.58272 0.26947 0.84612 0.0
H87 H 0.6019 0.30618 0.8279 0.0
N88 N 0.63822 0.34241 0.81883 0.0
N89 N 0.67041 0.37507 0.82061 0.0
N90 N 0.66817 0.34503 0.84711 0.0
C91 C 0.64964 0.36346 0.81034 0.0
C92 C 0.67975 0.36596 0.83908 0.0
C93 C 0.64753 0.33306 0.83726 0.0
C94 C 0.63981 0.37376 0.78997 0.0
C95 C 0.61779 0.36283 0.77962 0.0
C96 C 0.60876 0.37266 0.76047 0.0
C97 C 0.62149 0.39369 0.75112 0.0
C98 C 0.64351 0.40455 0.76146 0.0
C99 C 0.65251 0.39477 0.78058 0.0
C100 C 0.70238 0.37834 0.85055 0.0
C101 C 0.71583 0.39955 0.84225 0.0
C102 C 0.73738 0.41061 0.85314 0.0
C103 C 0.74598 0.40068 0.87253 0.0
C104 C 0.7323 0.3797 0.88095 0.0
C105 C 0.71089 0.3687 0.87014 0.0
C106 C 0.63577 0.31009 0.847 0.0
C107 C 0.64833 0.29959 0.86357 0.0
C108 C 0.78554 0.64156 0.38098 0.0
C109 C 0.77178 0.62054 0.37274 0.0
C110 C 0.78018 0.61058 0.35328 0.0
C111 C 0.80162 0.62163 0.34218 0.0
H112 H 0.84807 0.61698 0.28786 0.0
H113 H 0.86358 0.60012 0.25463 0.0
H114 H 0.92565 0.65717 0.25266 0.0
H115 H 0.90981 0.67443 0.28571 0.0
H116 H 0.91553 0.71494 0.32697 0.0
H117 H 0.93489 0.75168 0.34497 0.0
H118 H 0.87015 0.74995 0.38588 0.0
H119 H 0.85122 0.71356 0.36853 0.0
H120 H 0.81674 0.66873 0.37698 0.0
H121 H 0.77998 0.64951 0.39616 0.0
H122 H 0.76996 0.59446 0.3464 0.0
H123 H 0.80744 0.61362 0.32715 0.0
N124 N 0.84703 0.64599 0.32029 0.0
N125 N 0.87926 0.67861 0.31835 0.0
N126 N 0.84938 0.67613 0.34667 0.0
C127 C 0.86779 0.65754 0.30995 0.0
C128 C 0.87001 0.68804 0.33675 0.0
C129 C 0.83775 0.65518 0.33873 0.0
C130 C 0.87762 0.64717 0.28964 0.0
C131 C 0.86505 0.62602 0.28043 0.0
C132 C 0.87406 0.6162 0.26135 0.0
C133 C 0.89597 0.62716 0.25086 0.0
C134 C 0.90856 0.64832 0.26005 0.0
C135 C 0.89952 0.65819 0.27915 0.0
C136 C 0.88188 0.71102 0.3464 0.0
C137 C 0.90545 0.72247 0.33976 0.0
C138 C 0.91651 0.74358 0.35004 0.0
C139 C 0.90424 0.75367 0.36716 0.0
C140 C 0.88047 0.74248 0.37324 0.0
C141 C 0.86952 0.72153 0.3631 0.0
C142 C 0.81515 0.64286 0.35034 0.0
C143 C 0.80682 0.65255 0.36996 0.0
C144 C 0.63877 0.81004 0.85225 0.0
C145 C 0.6368 0.80906 0.8759 0.0
C146 C 0.64914 0.79398 0.8879 0.0
C147 C 0.66376 0.78067 0.87655 0.0
H148 H 0.70394 0.72844 0.88584 0.0
H149 H 0.72696 0.70372 0.90687 0.0
H150 H 0.77027 0.69714 0.8474 0.0
H151 H 0.74705 0.72115 0.82629 0.0
H152 H 0.74158 0.74886 0.78315 0.0
H153 H 0.76144 0.76546 0.74869 0.0
H154 H 0.7187 0.82012 0.75057 0.0
H155 H 0.69841 0.80333 0.78482 0.0
H156 H 0.65522 0.79855 0.82272 0.0
H157 H 0.62958 0.82163 0.84259 0.0
H158 H 0.64772 0.79272 0.90613 0.0
H159 H 0.67344 0.76962 0.8864 0.0
N160 N 0.69417 0.75377 0.85219 0.0
N161 N 0.71851 0.75007 0.82057 0.0
N162 N 0.6915 0.77642 0.81983 0.0
C163 C 0.71134 0.74356 0.84191 0.0
C164 C 0.70871 0.76644 0.80938 0.0
C165 C 0.68403 0.77011 0.84119 0.0
C166 C 0.72369 0.72696 0.85437 0.0
C167 C 0.71817 0.72148 0.87716 0.0
C168 C 0.73145 0.70741 0.88928 0.0
C169 C 0.75051 0.6985 0.87886 0.0
C170 C 0.75549 0.7034 0.8559 0.0
C171 C 0.74223 0.71738 0.84381 0.0
C172 C 0.71856 0.7749 0.78697 0.0
C173 C 0.73616 0.76427 0.77613 0.0
C174 C 0.74766 0.77384 0.7564 0.0
C175 C 0.74188 0.79427 0.74704 0.0
C176 C 0.72346 0.80427 0.75725 0.0
C177 C 0.7119 0.79468 0.77699 0.0
C178 C 0.66658 0.78235 0.85296 0.0
C179 C 0.6536 0.79692 0.84091 0.0
C180 C 0.80167 0.2194 0.25444 0.0
C181 C 0.78011 0.22527 0.24558 0.0
C182 C 0.77034 0.24314 0.25599 0.0
C183 C 0.78117 0.25408 0.27543 0.0
H184 H 0.77007 0.29958 0.32344 0.0
H185 H 0.74599 0.32323 0.34398 0.0
H186 H 0.79143 0.32119 0.40297 0.0
H187 H 0.81531 0.29684 0.38255 0.0
H188 H 0.84424 0.25373 0.38506 0.0
H189 H 0.8691 0.23025 0.40549 0.0
H190 H 0.89172 0.20412 0.34226 0.0
H191 H 0.86694 0.22755 0.32174 0.0
H192 H 0.82864 0.2248 0.28064 0.0
H193 H 0.80993 0.20601 0.24656 0.0
H194 H 0.75364 0.24797 0.24973 0.0
H195 H 0.77258 0.26718 0.28342 0.0
N196 N 0.80083 0.27272 0.31804 0.0
N197 N 0.82511 0.27028 0.35003 0.0
N198 N 0.82896 0.24745 0.3181 0.0
C199 C 0.80764 0.27977 0.33934 0.0
C200 C 0.83597 0.25421 0.33945 0.0
C201 C 0.81141 0.25663 0.30726 0.0
C202 C 0.79457 0.29609 0.35135 0.0
C203 C 0.77516 0.30428 0.34073 0.0
C204 C 0.7614 0.31804 0.35249 0.0
C205 C 0.76674 0.32411 0.37515 0.0
C206 C 0.78663 0.31656 0.38561 0.0
C207 C 0.80041 0.3027 0.37384 0.0
C208 C 0.8534 0.24236 0.35175 0.0
C209 C 0.85479 0.24328 0.37546 0.0
C210 C 0.86892 0.22974 0.38719 0.0
C211 C 0.88218 0.21526 0.37546 0.0
C212 C 0.88179 0.21524 0.35174 0.0
C213 C 0.86746 0.22856 0.34 0.0
C214 C 0.80198 0.24733 0.285 0.0
C215 C 0.81247 0.23028 0.27393 0.0
C216 C 0.28012 0.62098 0.18044 0.0
C217 C 0.27523 0.62802 0.15838 0.0
C218 C 0.29194 0.64633 0.1484 0.0
C219 C 0.31248 0.65771 0.16026 0.0
H220 H 0.34593 0.72864 0.17778 0.0
H221 H 0.36338 0.76541 0.15996 0.0
H222 H 0.43599 0.75636 0.17988 0.0
H223 H 0.41805 0.71979 0.19887 0.0
H224 H 0.40276 0.68789 0.25491 0.0
H225 H 0.4178 0.67088 0.28862 0.0
H226 H 0.36931 0.60546 0.27479 0.0
H227 H 0.35436 0.62227 0.24113 0.0
H228 H 0.30398 0.62663 0.20929 0.0
H229 H 0.26761 0.6071 0.1888 0.0
H230 H 0.28928 0.6519 0.13127 0.0
H231 H 0.32475 0.67182 0.15192 0.0
N232 N 0.34969 0.6854 0.18766 0.0
N233 N 0.37866 0.68835 0.21689 0.0
N234 N 0.34779 0.65477 0.21353 0.0
C235 C 0.36953 0.69775 0.19841 0.0
C236 C 0.36776 0.66682 0.22465 0.0
C237 C 0.33874 0.66394 0.19493 0.0
C238 C 0.38062 0.72119 0.18959 0.0
C239 C 0.36563 0.73457 0.17853 0.0
C240 C 0.37573 0.75563 0.16808 0.0
C241 C 0.40125 0.76381 0.16791 0.0
C242 C 0.41625 0.75079 0.17968 0.0
C243 C 0.40601 0.72978 0.19056 0.0
C244 C 0.3773 0.65653 0.24515 0.0
C245 C 0.39531 0.66986 0.25899 0.0
C246 C 0.40385 0.66014 0.27844 0.0
C247 C 0.3948 0.63677 0.28446 0.0
C248 C 0.37691 0.62343 0.27056 0.0
C249 C 0.36823 0.63317 0.25127 0.0
C250 C 0.31721 0.65096 0.18239 0.0
C251 C 0.30094 0.63225 0.19226 0.0
C252 C 0.12777 0.27689 0.6519 0.0
C253 C 0.10931 0.26109 0.66295 0.0
C254 C 0.10211 0.2668 0.68476 0.0
C255 C 0.11308 0.28789 0.69512 0.0
H256 H 0.10984 0.33441 0.75092 0.0
H257 H 0.09566 0.35003 0.78567 0.0
H258 H 0.15281 0.41113 0.77954 0.0
H259 H 0.16733 0.39537 0.74527 0.0
H260 H 0.21344 0.39304 0.70936 0.0
H261 H 0.25039 0.41222 0.68942 0.0
H262 H 0.2249 0.37373 0.62894 0.0
H263 H 0.18877 0.35416 0.64891 0.0
H264 H 0.15293 0.30924 0.65294 0.0
H265 H 0.13415 0.27297 0.63531 0.0
H266 H 0.08785 0.25507 0.69372 0.0
H267 H 0.10716 0.29176 0.71189 0.0
N268 N 0.13646 0.33382 0.71448 0.0
N269 N 0.16858 0.36655 0.71282 0.0
N270 N 0.1641 0.33853 0.68415 0.0
C271 C 0.14853 0.35428 0.72368 0.0
C272 C 0.17643 0.35877 0.693 0.0
C273 C 0.14424 0.32584 0.69462 0.0
C274 C 0.13981 0.36353 0.74513 0.0
C275 C 0.11947 0.35114 0.75699 0.0
C276 C 0.11121 0.3602 0.77692 0.0
C277 C 0.12305 0.3819 0.78557 0.0
C278 C 0.14342 0.39421 0.77372 0.0
C279 C 0.15168 0.38517 0.75386 0.0
C280 C 0.19822 0.37185 0.68086 0.0
C281 C 0.21574 0.38877 0.69178 0.0
C282 C 0.2369 0.39983 0.6803 0.0
C283 C 0.2409 0.39436 0.65757 0.0
C284 C 0.22291 0.37798 0.64656 0.0
C285 C 0.202 0.36682 0.65804 0.0
C286 C 0.13164 0.30361 0.68397 0.0
C287 C 0.13873 0.29774 0.6622 0.0
Dy288 Dy 0.03261 0.01319 0.49812 0.0
Dy289 Dy 0.98154 1.00304 0.52829 0.0
C290 C 0.02428 0.04712 0.53908 0.0
O291 O 0.03526 0.98245 0.5196 0.0
O292 O 0.00812 0.98662 0.548 0.0
O293 O 0.07185 0.01649 0.49541 0.0
O294 O 0.04992 0.01857 0.46537 0.0
O295 O 0.98228 0.97002 0.50945 0.0
O296 O 0.00563 0.98619 0.47961 0.0
O297 O 0.97408 0.02233 0.49723 0.0
O298 O 0.01292 0.04184 0.48929 0.0
O299 O 0.94218 0.9921 0.5291 0.0
O300 O 0.96203 1.00433 0.55965 0.0
C301 C 0.02635 0.97764 0.53995 0.0
O302 O 0.04016 0.03743 0.52776 0.0
O303 O 1.00056 0.03887 0.53816 0.0
C304 C 0.0906 0.03952 0.46504 0.0
C305 C 0.12739 0.07518 0.44781 0.0
C306 C 0.11533 0.07843 0.46816 0.0
C307 C 0.09702 0.06072 0.47671 0.0
C308 C 0.10233 0.03634 0.44467 0.0
C309 C 0.12049 0.05399 0.4361 0.0
C310 C 0.07195 0.02032 0.47369 0.0
C311 C 0.99022 0.96876 0.48869 0.0
C312 C 0.98906 0.03959 0.48748 0.0
C313 C 0.92594 0.97525 0.56377 0.0
C314 C 0.89526 0.94009 0.58876 0.0
C315 C 0.89089 0.94322 0.56568 0.0
C316 C 0.90602 0.96065 0.55334 0.0
C317 C 0.93044 0.972 0.58681 0.0
C318 C 0.9153 0.95457 0.59915 0.0
C319 C 0.94097 0.99459 0.55096 0.0
H320 H 0.12028 0.09449 0.47764 0.0
H321 H 0.08804 0.06351 0.49245 0.0
H322 H 0.09744 0.02014 0.43538 0.0
H323 H 0.12898 0.05108 0.42015 0.0
H324 H 0.87574 0.93221 0.55714 0.0
H325 H 0.90191 0.96286 0.53567 0.0
H326 H 0.94541 0.98315 0.59546 0.0
H327 H 0.91893 0.95287 0.61699 0.0
Dy328 Dy 0.48494 0.00953 1.00032 0.0
Dy329 Dy 0.53622 0.01799 0.03007 0.0
C330 C 0.49269 0.97469 0.04077 0.0
O331 O 0.48439 0.04098 0.02148 0.0
O332 O 0.51023 0.03477 0.05017 0.0
O333 O 0.44551 1.0064 0.9986 0.0
O334 O 0.46693 1.00597 0.96796 0.0
O335 O 0.53661 0.05121 1.01112 0.0
O336 O 0.5126 0.03557 0.98147 0.0
O337 O 0.54272 0.9984 0.99895 0.0
O338 O 0.50343 0.98031 0.99062 0.0
O339 O 0.57573 0.02787 0.03066 0.0
O340 O 0.55576 0.01579 0.06124 0.0
C341 C 0.4931 0.04519 0.04199 0.0
O342 O 0.47708 0.9849 0.02964 0.0
O343 O 0.51647 0.98243 0.03987 0.0
C344 C 0.42661 0.98402 0.96802 0.0
C345 C 0.39127 0.94866 0.94838 0.0
C346 C 0.41545 0.94525 0.9518 0.0
C347 C 0.43298 0.96278 0.96159 0.0
C348 C 0.4024 0.9872 0.96532 0.0
C349 C 0.38485 0.96967 0.95566 0.0
C350 C 0.44502 1.00338 0.97676 0.0
C351 C 0.52856 0.05267 0.9904 0.0
C352 C 0.52721 0.98172 0.98896 0.0
C353 C 0.59314 0.04232 0.0653 0.0
C354 C 0.62444 0.07565 0.0914 0.0
C355 C 0.6007 0.07901 0.08577 0.0
C356 C 0.58513 0.06243 0.07279 0.0
C357 C 0.61686 0.03911 0.07053 0.0
C358 C 0.6324 0.05562 0.08344 0.0
C359 C 0.57707 0.02425 0.05232 0.0
H360 H 0.42105 0.92937 0.94623 0.0
H361 H 0.4516 0.95995 0.96367 0.0
H362 H 0.39714 1.00342 0.97036 0.0
H363 H 0.3663 0.97269 0.95369 0.0
H364 H 0.59399 0.09418 0.09178 0.0
H365 H 0.56681 0.06514 0.06882 0.0
H366 H 0.62333 0.02373 0.06474 0.0
H367 H 0.65071 0.05272 0.08712 0.0
Dy368 Dy 0.50457 0.48708 0.50289 0.0
Dy369 Dy 0.50804 0.53658 0.53029 0.0
C370 C 0.52971 0.49467 0.55188 0.0
O371 O 0.46633 0.48601 0.51529 0.0
O372 O 0.4753 0.51249 0.54419 0.0
O373 O 0.4979 0.44938 0.50187 0.0
O374 O 0.50838 0.46934 0.47148 0.0
O375 O 0.48109 0.53816 0.50243 0.0
O376 O 0.49421 0.51258 0.47814 0.0
O377 O 0.53881 0.54241 0.50533 0.0
O378 O 0.54398 0.50464 0.50118 0.0
O379 O 0.51216 0.57412 0.53046 0.0
O380 O 0.50818 0.55494 0.56199 0.0
C381 C 0.4603 0.49547 0.53411 0.0
O382 O 0.51551 0.48029 0.53828 0.0
O383 O 0.53356 0.51735 0.54858 0.0
C384 C 0.52509 0.4359 0.47668 0.0
C385 C 0.56599 0.41615 0.4653 0.0
C386 C 0.56518 0.42759 0.48609 0.0
C387 C 0.54496 0.43754 0.49167 0.0
C388 C 0.52547 0.42384 0.45628 0.0
C389 C 0.54579 0.41406 0.4506 0.0
C390 C 0.50535 0.4489 0.48102 0.0
C391 C 0.48245 0.52973 0.482 0.0
C392 C 0.5519 0.52714 0.49856 0.0
C393 C 0.48798 0.58669 0.55916 0.0
C394 C 0.4474 0.60482 0.57474 0.0
C395 C 0.44803 0.59677 0.55243 0.0
C396 C 0.46806 0.58763 0.54475 0.0
C397 C 0.4877 0.5953 0.58124 0.0
C398 C 0.46754 0.60423 0.589 0.0
C399 C 0.50796 0.57487 0.55211 0.0
H400 H 0.58061 0.42969 0.49761 0.0
H401 H 0.54519 0.44715 0.50735 0.0
H402 H 0.5104 0.42262 0.44443 0.0
H403 H 0.54587 0.40516 0.43455 0.0
H404 H 0.43264 0.59678 0.54116 0.0
H405 H 0.46765 0.58075 0.52773 0.0
H406 H 0.5028 0.59457 0.59266 0.0
H407 H 0.4676 0.6105 0.60623 0.0
Dy408 Dy 0.01283 0.53327 1.0028 0.0
Dy409 Dy 0.00965 0.48389 0.0304 0.0
C410 C 0.98805 0.52588 0.05198 0.0
O411 O 0.05115 0.53461 0.01517 0.0
O412 O 0.04254 0.50793 0.04402 0.0
O413 O 0.01969 0.57096 1.00139 0.0
O414 O 0.00827 0.55072 0.97136 0.0
O415 O 0.03669 0.48248 1.0026 0.0
O416 O 0.02301 0.50757 0.97814 0.0
O417 O 0.97896 0.47799 1.00534 0.0
O418 O 0.97344 0.51567 1.00161 0.0
O419 O 0.00542 0.44634 0.03054 0.0
O420 O 0.0097 0.46546 0.06207 0.0
C421 C 0.05737 0.52507 0.0339 0.0
O422 O 1.00201 0.54023 0.03817 0.0
O423 O 0.98432 0.50317 0.04889 0.0
C424 C 0.99184 0.58433 0.97674 0.0
C425 C 0.95073 0.60422 0.96636 0.0
C426 C 0.95248 0.59355 0.98742 0.0
C427 C 0.9728 0.58353 0.99252 0.0
C428 C 0.99053 0.59562 0.95602 0.0
C429 C 0.97011 0.60547 0.95083 0.0
C430 C 0.01163 0.57126 0.98071 0.0
C431 C 0.03501 0.4906 0.98208 0.0
C432 C 0.9657 0.49319 0.99876 0.0
C433 C 0.02943 0.4334 0.05917 0.0
C434 C 0.06934 0.41414 0.07462 0.0
C435 C 0.06929 0.42306 0.05258 0.0
C436 C 0.04959 0.43277 0.04496 0.0
C437 C 0.02917 0.42399 0.08098 0.0
C438 C 0.04899 0.41449 0.08868 0.0
C439 C 0.00966 0.44551 0.05218 0.0
H440 H 0.93769 0.59211 0.99959 0.0
H441 H 0.97325 0.57451 1.00848 0.0
H442 H 1.00495 0.59619 0.94357 0.0
H443 H 0.96931 0.61377 0.93454 0.0
H444 H 0.08485 0.42323 0.04149 0.0
H445 H 0.0504 0.44025 0.02816 0.0
H446 H 0.01387 0.42447 0.09223 0.0
H447 H 0.04848 0.40756 0.10569 0.0
C448 C 0.26102 0.22457 0.33657 0.0
C449 C 0.27433 0.21291 0.32162 0.0
C450 C 0.24793 0.21265 0.35455 0.0
C451 C 0.24103 0.15928 0.3893 0.0
H452 H 0.17227 0.16389 0.39154 0.0
C453 C 0.16777 0.08774 0.42826 0.0
C454 C 0.14698 0.0937 0.43857 0.0
C455 C 0.18529 0.10475 0.41788 0.0
C456 C 0.19152 0.16272 0.39157 0.0
H457 H 0.28481 0.17963 0.31442 0.0
H458 H 0.26246 0.15909 0.346 0.0
H459 H 0.20001 0.18959 0.36662 0.0
H460 H 0.12882 0.12245 0.44679 0.0
H461 H 0.15982 0.15232 0.42918 0.0
H462 H 0.23254 0.1322 0.414 0.0
C463 C 0.26225 0.17749 0.34384 0.0
C464 C 0.20741 0.17745 0.37723 0.0
C465 C 0.27513 0.18932 0.32574 0.0
C466 C 0.14466 0.11727 0.43907 0.0
C467 C 0.16229 0.13435 0.42876 0.0
C468 C 0.2252 0.14469 0.4038 0.0
C469 C 0.24811 0.18889 0.35813 0.0
C470 C 0.23218 0.17547 0.37554 0.0
C471 C 0.18261 0.12823 0.41769 0.0
C472 C 0.2001 0.1458 0.40467 0.0
H473 H 0.26038 0.24284 0.33418 0.0
H474 H 0.23738 0.22192 0.36548 0.0
H475 H 0.26013 0.15761 0.38855 0.0
H476 H 0.17037 0.0698 0.42792 0.0
H477 H 0.2005 0.09929 0.40932 0.0
C478 C 0.2618 0.7999 0.83143 0.0
C479 C 0.25019 0.81135 0.81491 0.0
C480 C 0.27495 0.81252 0.84903 0.0
C481 C 0.28332 0.8692 0.8789 0.0
H482 H 0.34879 0.85819 0.89146 0.0
C483 C 0.3572 0.93807 0.92035 0.0
C484 C 0.3731 0.93096 0.93626 0.0
C485 C 0.34057 0.92164 0.90835 0.0
C486 C 0.33039 0.86122 0.88845 0.0
H487 H 0.24349 0.84509 0.8039 0.0
H488 H 0.26612 0.86692 0.83454 0.0
H489 H 0.32222 0.83244 0.86551 0.0
H490 H 0.38371 0.9009 0.95227 0.0
H491 H 0.35468 0.87209 0.93104 0.0
H492 H 0.29168 0.89831 0.90136 0.0
C493 C 0.26474 0.84816 0.83417 0.0
C494 C 0.31517 0.84646 0.8736 0.0
C495 C 0.25171 0.83561 0.81659 0.0
C496 C 0.37189 0.90695 0.93995 0.0
C497 C 0.35526 0.89046 0.92784 0.0
C498 C 0.29851 0.88392 0.89372 0.0
C499 C 0.27666 0.83681 0.85049 0.0
C500 C 0.29168 0.85064 0.86827 0.0
C501 C 0.33946 0.89766 0.91188 0.0
C502 C 0.32242 0.88043 0.89824 0.0
H503 H 0.26076 0.7812 0.83076 0.0
H504 H 0.28378 0.80327 0.86149 0.0
H505 H 0.26514 0.87259 0.87547 0.0
H506 H 0.35799 0.95639 0.9167 0.0
H507 H 0.32901 0.92776 0.89583 0.0
C508 C 0.61434 0.42864 0.7286 0.0
C509 C 0.612 0.40427 0.73065 0.0
C510 C 0.60596 0.43862 0.70928 0.0
C511 C 0.58883 0.42581 0.64909 0.0
H512 H 0.55817 0.48001 0.65461 0.0
C513 C 0.53845 0.46058 0.5744 0.0
C514 C 0.5409 0.48488 0.57173 0.0
C515 C 0.54791 0.45115 0.59348 0.0
C516 C 0.56697 0.46506 0.6527 0.0
H517 H 0.59887 0.3714 0.71362 0.0
H518 H 0.58375 0.38872 0.68026 0.0
H519 H 0.57246 0.4627 0.68838 0.0
H520 H 0.55561 0.51829 0.58713 0.0
H521 H 0.57223 0.50182 0.62037 0.0
H522 H 0.58315 0.42808 0.61342 0.0
C523 C 0.59242 0.40018 0.6935 0.0
C524 C 0.57518 0.45509 0.67212 0.0
C525 C 0.60082 0.39019 0.71283 0.0
C526 C 0.55336 0.4995 0.58858 0.0
C527 C 0.56274 0.49004 0.60775 0.0
C528 C 0.58056 0.43575 0.62969 0.0
C529 C 0.59493 0.42456 0.69139 0.0
C530 C 0.5862 0.43528 0.67063 0.0
C531 C 0.56004 0.46571 0.61053 0.0
C532 C 0.56945 0.45548 0.6312 0.0
H533 H 0.62253 0.44009 0.74204 0.0
H534 H 0.60849 0.45745 0.70826 0.0
H535 H 0.59762 0.41086 0.64714 0.0
H536 H 0.52899 0.44872 0.56183 0.0
H537 H 0.5452 0.43235 0.5951 0.0
C538 C 0.91655 0.63065 0.21254 0.0
C539 C 0.90549 0.61657 0.23043 0.0
C540 C 0.92514 0.62068 0.1933 0.0
C541 C 0.91865 0.56497 0.16134 0.0
H542 H 0.97994 0.59463 0.13377 0.0
C543 C 0.96489 0.52126 0.08897 0.0
C544 C 0.977 0.53577 0.07185 0.0
C545 C 0.9557 0.53085 0.10816 0.0
C546 C 0.96262 0.58623 0.14103 0.0
H547 H 0.89539 0.58077 0.24203 0.0
H548 H 0.91022 0.56347 0.20856 0.0
H549 H 0.96513 0.61184 0.16727 0.0
H550 H 0.98826 0.57184 0.06139 0.0
H551 H 0.97198 0.58841 0.09445 0.0
H552 H 0.9161 0.5394 0.13503 0.0
C553 C 0.91191 0.58225 0.20925 0.0
C554 C 0.95411 0.59613 0.16032 0.0
C555 C 0.90338 0.59221 0.2285 0.0
C556 C 0.97924 0.56007 0.07426 0.0
C557 C 0.97002 0.56963 0.09337 0.0
C558 C 0.92713 0.55509 0.14199 0.0
C559 C 0.9229 0.59633 0.19135 0.0
C560 C 0.93199 0.58568 0.17076 0.0
C561 C 0.95832 0.5552 0.11074 0.0
C562 C 0.94923 0.5656 0.1315 0.0
H563 H 0.91818 0.64942 0.21317 0.0
H564 H 0.93316 0.6321 0.17976 0.0
H565 H 0.90137 0.55657 0.16869 0.0
H566 H 0.96289 0.50248 0.08777 0.0
H567 H 0.94704 0.51914 0.12123 0.0
C568 C 0.39295 0.18945 0.13239 0.0
C569 C 0.39977 0.1964 0.15458 0.0
C570 C 0.40551 0.17466 0.12056 0.0
C571 C 0.4434 0.13013 0.12944 0.0
H572 H 0.45665 0.139 0.06541 0.0
C573 C 0.49393 0.06951 0.07714 0.0
C574 C 0.484 0.063 0.05572 0.0
C575 C 0.48554 0.08677 0.0897 0.0
C576 C 0.45292 0.13619 0.08326 0.0
H577 H 0.4257 0.19378 0.18146 0.0
H578 H 0.44758 0.16782 0.16079 0.0
H579 H 0.43898 0.16783 0.08626 0.0
H580 H 0.45727 0.06941 0.03083 0.0
H581 H 0.44257 0.09913 0.05274 0.0
H582 H 0.45701 0.09827 0.12634 0.0
C583 C 0.43229 0.17363 0.15268 0.0
C584 C 0.44282 0.15272 0.0952 0.0
C585 C 0.41975 0.1885 0.16452 0.0
C586 C 0.46544 0.07403 0.04721 0.0
C587 C 0.45711 0.09122 0.05972 0.0
C588 C 0.45351 0.11356 0.11748 0.0
C589 C 0.42518 0.1664 0.13063 0.0
C590 C 0.43761 0.14972 0.11835 0.0
C591 C 0.46711 0.09789 0.08105 0.0
C592 C 0.45803 0.11623 0.09417 0.0
H593 H 0.37738 0.19485 0.12437 0.0
H594 H 0.39932 0.16912 0.10373 0.0
H595 H 0.43936 0.12718 0.14722 0.0
H596 H 0.50832 0.06144 0.08417 0.0
H597 H 0.49373 0.09164 0.10602 0.0
C598 C 0.10301 0.82548 0.64726 0.0
C599 C 0.1287 0.82999 0.64845 0.0
C600 C 0.09075 0.84111 0.63614 0.0
C601 C 0.1014 0.9026 0.61541 0.0
H602 H 0.0406 0.88173 0.58286 0.0
C603 C 0.06135 0.95852 0.5503 0.0
C604 C 0.03697 0.96106 0.55387 0.0
C605 C 0.0715 0.9426 0.56304 0.0
C606 C 0.05746 0.88774 0.59208 0.0
H607 H 0.16188 0.85348 0.6384 0.0
H608 H 0.14077 0.88011 0.61799 0.0
H609 H 0.06064 0.85312 0.6018 0.0
H610 H 1.00398 0.94883 0.57337 0.0
H611 H 0.0217 0.92032 0.59531 0.0
H612 H 0.09866 0.9371 0.60471 0.0
C613 C 0.12984 0.86517 0.62632 0.0
C614 C 0.06894 0.87141 0.603 0.0
C615 C 0.14201 0.84982 0.63778 0.0
C616 C 0.02287 0.9473 0.57038 0.0
C617 C 0.03291 0.93095 0.58281 0.0
C618 C 0.09019 0.9188 0.60415 0.0
C619 C 0.10403 0.86133 0.62574 0.0
C620 C 0.09121 0.87861 0.61465 0.0
C621 C 0.05733 0.92858 0.57927 0.0
C622 C 0.06823 0.91149 0.59229 0.0
H623 H 0.09245 0.81032 0.65557 0.0
H624 H 0.0709 0.83765 0.63629 0.0
H625 H 0.11811 0.90897 0.62472 0.0
H626 H 0.07266 0.96895 0.53774 0.0
H627 H 0.09036 0.94096 0.55997 0.0
C628 C 0.77516 0.43605 0.88726 0.0
C629 C 0.76922 0.41176 0.88397 0.0
C630 C 0.79651 0.4461 0.89897 0.0
C631 C 0.85687 0.4339 0.91769 0.0
H632 H 0.85443 0.48263 0.96166 0.0
C633 C 0.93415 0.46085 0.98264 0.0
C634 C 0.94214 0.48479 0.98679 0.0
C635 C 0.91295 0.45293 0.96999 0.0
C636 C 0.8555 0.46921 0.94928 0.0
H637 H 0.78163 0.37916 0.88983 0.0
H638 H 0.81835 0.3965 0.9105 0.0
H639 H 0.8181 0.46732 0.93909 0.0
H640 H 0.93363 0.51917 0.9812 0.0
H641 H 0.89658 0.50529 0.95909 0.0
H642 H 0.89412 0.43558 0.92798 0.0
C643 C 0.80668 0.40789 0.90394 0.0
C644 C 0.83467 0.46045 0.93629 0.0
C645 C 0.7854 0.39788 0.8923 0.0
C646 C 0.92802 0.50059 0.97839 0.0
C647 C 0.90672 0.49264 0.96576 0.0
C648 C 0.87761 0.44259 0.93068 0.0
C649 C 0.8125 0.43211 0.90755 0.0
C650 C 0.83501 0.44249 0.9205 0.0
C651 C 0.89911 0.46872 0.96114 0.0
C652 C 0.87714 0.46017 0.94682 0.0
H653 H 0.76304 0.44725 0.8812 0.0
H654 H 0.80054 0.46484 0.90123 0.0
H655 H 0.85801 0.42044 0.90537 0.0
H656 H 0.94446 0.44814 0.98889 0.0
H657 H 0.90739 0.43436 0.96712 0.0
C658 C 0.73283 0.62323 0.3934 0.0
C659 C 0.74878 0.60938 0.38456 0.0
C660 C 0.71209 0.61321 0.40579 0.0
C661 C 0.66944 0.55777 0.41749 0.0
H662 H 0.65512 0.59039 0.47146 0.0
C663 C 0.58975 0.51974 0.47847 0.0
C664 C 0.57569 0.53554 0.48695 0.0
C665 C 0.61154 0.52778 0.46657 0.0
C666 C 0.65867 0.58115 0.45633 0.0
H667 H 0.75491 0.5739 0.38146 0.0
H668 H 0.71847 0.55633 0.40302 0.0
H669 H 0.69128 0.60601 0.44909 0.0
H670 H 0.57378 0.57225 0.48961 0.0
H671 H 0.61143 0.58613 0.46881 0.0
H672 H 0.6366 0.53303 0.42464 0.0
C673 C 0.72208 0.57501 0.40026 0.0
C674 C 0.67945 0.59012 0.44348 0.0
C675 C 0.74296 0.58508 0.38787 0.0
C676 C 0.58413 0.55954 0.48345 0.0
C677 C 0.60587 0.56755 0.47158 0.0
C678 C 0.64855 0.54881 0.43034 0.0
C679 C 0.70659 0.58902 0.40966 0.0
C680 C 0.68497 0.57871 0.42375 0.0
C681 C 0.61985 0.5518 0.46289 0.0
C682 C 0.64275 0.56053 0.4498 0.0
H683 H 0.73637 0.64192 0.39075 0.0
H684 H 0.70027 0.62447 0.4123 0.0
H685 H 0.67303 0.54863 0.40231 0.0
H686 H 0.58383 0.50113 0.48082 0.0
H687 H 0.62196 0.51515 0.46035 0.0
C688 C 0.24382 0.35067 0.16616 0.0
C689 C 0.25105 0.33129 0.15596 0.0
C690 C 0.22604 0.36136 0.1561 0.0
C691 C 0.19324 0.36796 0.10313 0.0
H692 H 0.14037 0.3764 0.14325 0.0
C693 C 0.10214 0.39017 0.07017 0.0
C694 C 0.09096 0.40532 0.08324 0.0
C695 C 0.1226 0.38199 0.07838 0.0
C696 C 0.15513 0.37455 0.13184 0.0
H697 H 0.24604 0.30864 0.12661 0.0
H698 H 0.21522 0.3276 0.10886 0.0
H699 H 0.17537 0.36178 0.15825 0.0
H700 H 0.0928 0.42439 0.11477 0.0
H701 H 0.12871 0.41056 0.12894 0.0
H702 H 0.17309 0.38094 0.07672 0.0
C703 C 0.22336 0.33447 0.12467 0.0
C704 C 0.17518 0.36612 0.14046 0.0
C705 C 0.24106 0.32366 0.13482 0.0
C706 C 0.10079 0.41238 0.10452 0.0
C707 C 0.12135 0.4044 0.11263 0.0
C708 C 0.17324 0.37663 0.09451 0.0
C709 C 0.21522 0.35303 0.13552 0.0
C710 C 0.19443 0.3627 0.12621 0.0
C711 C 0.13244 0.38898 0.09974 0.0
C712 C 0.15391 0.37998 0.10877 0.0
H713 H 0.25154 0.35731 0.1822 0.0
H714 H 0.22043 0.37592 0.16462 0.0
H715 H 0.20791 0.36562 0.0918 0.0
H716 H 0.09482 0.38434 0.05376 0.0
H717 H 0.13041 0.36986 0.06813 0.0
C718 C 0.60581 0.24332 0.90337 0.0
C719 C 0.60205 0.24565 0.88003 0.0
C720 C 0.59642 0.22252 0.91465 0.0
C721 C 0.57404 0.1593 0.90478 0.0
H722 H 0.55144 0.16078 0.96665 0.0
C723 C 0.5299 0.0758 0.95433 0.0
C724 C 0.53695 0.07433 0.97706 0.0
C725 C 0.53714 0.09646 0.94201 0.0
C726 C 0.5579 0.16004 0.94945 0.0
H727 H 0.58483 0.22783 0.85041 0.0
H728 H 0.56787 0.19159 0.87024 0.0
H729 H 0.56408 0.19718 0.94603 0.0
H730 H 0.55735 0.09356 1.00451 0.0
H731 H 0.56995 0.12949 0.98303 0.0
H732 H 0.5677 0.12206 0.90828 0.0
C733 C 0.57854 0.20582 0.87974 0.0
C734 C 0.56518 0.18095 0.93758 0.0
C735 C 0.58801 0.22672 0.8684 0.0
C736 C 0.55156 0.09401 0.98707 0.0
C737 C 0.55865 0.11471 0.97479 0.0
C738 C 0.56663 0.13835 0.91663 0.0
C739 C 0.58279 0.20338 0.90301 0.0
C740 C 0.57362 0.18093 0.91515 0.0
C741 C 0.55145 0.11624 0.95212 0.0
C742 C 0.5587 0.13846 0.9392 0.0
H743 H 0.61618 0.25762 0.91301 0.0
H744 H 0.60037 0.22132 0.93248 0.0
H745 H 0.58073 0.15853 0.88767 0.0
H746 H 0.51864 0.06102 0.94605 0.0
H747 H 0.53109 0.09707 0.92466 0.0
C748 C 0.91247 0.77797 0.4024 0.0
C749 C 0.91595 0.77556 0.37903 0.0
C750 C 0.92204 0.79879 0.41356 0.0
C751 C 0.94452 0.86198 0.4034 0.0
H752 H 0.96784 0.8605 0.46504 0.0
C753 C 0.98899 0.94559 0.45265 0.0
C754 C 0.9821 0.94701 0.47541 0.0
C755 C 0.98178 0.92491 0.44035 0.0
C756 C 0.96119 0.86125 0.4479 0.0
H757 H 0.93285 0.79329 0.34922 0.0
H758 H 0.95011 0.82957 0.36882 0.0
H759 H 0.95485 0.8241 0.44456 0.0
H760 H 0.96202 0.92764 0.50299 0.0
H761 H 0.94949 0.89171 0.48159 0.0
H762 H 0.951 0.89922 0.40682 0.0
C763 C 0.93953 0.81537 0.37844 0.0
C764 C 0.95371 0.84033 0.43612 0.0
C765 C 0.92988 0.79445 0.36723 0.0
C766 C 0.96772 0.92724 0.48552 0.0
C767 C 0.96065 0.90653 0.47327 0.0
C768 C 0.95213 0.88294 0.41517 0.0
C769 C 0.93558 0.81788 0.40176 0.0
C770 C 0.94498 0.84035 0.41378 0.0
C771 C 0.96765 0.90505 0.45055 0.0
C772 C 0.96032 0.88283 0.43767 0.0
H773 H 0.90219 0.76371 0.41217 0.0
H774 H 0.91832 0.80004 0.43142 0.0
H775 H 0.93762 0.86274 0.38635 0.0
H776 H 1.00007 0.96044 0.44429 0.0
H777 H 0.98768 0.92434 0.42296 0.0
C778 C 0.27299 0.69094 0.63371 0.0
C779 C 0.26251 0.68316 0.65464 0.0
C780 C 0.29072 0.68005 0.62377 0.0
C781 C 0.33831 0.648 0.64018 0.0
H782 H 0.34242 0.63522 0.57617 0.0
C783 C 0.41518 0.60483 0.60428 0.0
C784 C 0.42536 0.61287 0.58338 0.0
C785 C 0.39411 0.61195 0.61231 0.0
C786 C 0.34169 0.63894 0.59405 0.0
H787 H 0.26119 0.65677 0.68068 0.0
H788 H 0.29238 0.638 0.66346 0.0
H789 H 0.30687 0.64955 0.59089 0.0
H790 H 0.42164 0.63478 0.55452 0.0
H791 H 0.38517 0.64777 0.56876 0.0
H792 H 0.37331 0.63817 0.64341 0.0
C793 C 0.2871 0.65274 0.65494 0.0
C794 C 0.32127 0.64703 0.60247 0.0
C795 C 0.26927 0.66351 0.6648 0.0
C796 C 0.41405 0.62819 0.57063 0.0
C797 C 0.39309 0.63551 0.57875 0.0
C798 C 0.35878 0.64013 0.63177 0.0
C799 C 0.29842 0.66125 0.63461 0.0
C800 C 0.31941 0.65166 0.62562 0.0
C801 C 0.38285 0.62748 0.5997 0.0
C802 C 0.36078 0.63553 0.60859 0.0
H803 H 0.26843 0.70617 0.62553 0.0
H804 H 0.29927 0.68708 0.60817 0.0
H805 H 0.3376 0.65184 0.65804 0.0
H806 H 0.42327 0.59267 0.61427 0.0
H807 H 0.38649 0.60504 0.62829 0.0
C808 C 0.78178 0.80784 0.72703 0.0
C809 C 0.75616 0.80597 0.72767 0.0
C810 C 0.79559 0.82015 0.70971 0.0
C811 C 0.79368 0.86696 0.66867 0.0
H812 H 0.85044 0.8464 0.64329 0.0
C813 C 0.85296 0.91928 0.59923 0.0
C814 C 0.8785 0.92235 0.60218 0.0
C815 C 0.83711 0.90341 0.61261 0.0
C816 C 0.83473 0.85243 0.65032 0.0
H817 H 0.72487 0.81492 0.71017 0.0
H818 H 0.74904 0.83646 0.67982 0.0
H819 H 0.82409 0.82133 0.66991 0.0
H820 H 0.90745 0.91066 0.62105 0.0
H821 H 0.87978 0.88327 0.64468 0.0
H822 H 0.80452 0.89821 0.6494 0.0
C823 C 0.75844 0.82864 0.69294 0.0
C824 C 0.81963 0.83807 0.66555 0.0
C825 C 0.74461 0.8163 0.7103 0.0
C826 C 0.88785 0.90887 0.61852 0.0
C827 C 0.87201 0.89298 0.63188 0.0
C828 C 0.80876 0.8813 0.65344 0.0
C829 C 0.78412 0.8309 0.69259 0.0
C830 C 0.7991 0.8453 0.67511 0.0
C831 C 0.84645 0.89023 0.62922 0.0
C832 C 0.82962 0.87432 0.6443 0.0
H833 H 0.79132 0.80047 0.74036 0.0
H834 H 0.81536 0.8219 0.71017 0.0
H835 H 0.77823 0.87321 0.67598 0.0
H836 H 0.84515 0.92955 0.58694 0.0
H837 H 0.81752 0.90152 0.60999 0.0
C838 C 0.76447 0.18726 0.22619 0.0
C839 C 0.76685 0.21166 0.22667 0.0
C840 C 0.75052 0.17411 0.20947 0.0
C841 C 0.69952 0.17573 0.17039 0.0
H842 H 0.72017 0.12156 0.14442 0.0
C843 C 0.64273 0.11679 0.10275 0.0
C844 C 0.64084 0.09263 0.10585 0.0
C845 C 0.65881 0.13261 0.11605 0.0
C846 C 0.71408 0.13656 0.15163 0.0
H847 H 0.757 0.24144 0.2095 0.0
H848 H 0.73251 0.21837 0.18023 0.0
H849 H 0.74773 0.14709 0.16966 0.0
H850 H 0.65363 0.06616 0.1259 0.0
H851 H 0.68159 0.09365 0.14897 0.0
H852 H 0.66569 0.16495 0.15257 0.0
C853 C 0.74126 0.20945 0.19301 0.0
C854 C 0.72987 0.15118 0.16607 0.0
C855 C 0.75529 0.22265 0.20975 0.0
C856 C 0.65505 0.08465 0.12274 0.0
C857 C 0.67109 0.10041 0.13596 0.0
C858 C 0.68369 0.16108 0.15591 0.0
C859 C 0.73856 0.18501 0.19281 0.0
C860 C 0.72262 0.17071 0.17591 0.0
C861 C 0.67331 0.12456 0.13266 0.0
C862 C 0.69066 0.14112 0.14669 0.0
H863 H 0.77269 0.17818 0.23921 0.0
H864 H 0.74846 0.15529 0.21004 0.0
H865 H 0.69329 0.19051 0.1779 0.0
H866 H 0.63218 0.12348 0.08975 0.0
H867 H 0.66023 0.15112 0.11303 0.0
C868 C 0.40891 0.60351 0.30455 0.0
C869 C 0.4039 0.62626 0.30509 0.0
C870 C 0.4172 0.5935 0.32389 0.0
C871 C 0.41876 0.59739 0.38632 0.0
H872 H 0.47104 0.56208 0.38078 0.0
C873 C 0.46371 0.56186 0.46468 0.0
C874 C 0.47154 0.54039 0.46252 0.0
C875 C 0.45504 0.57252 0.44584 0.0
C876 C 0.45616 0.57156 0.38268 0.0
H877 H 0.40356 0.65621 0.32665 0.0
H878 H 0.41806 0.63875 0.36041 0.0
H879 H 0.45699 0.5802 0.34746 0.0
H880 H 0.47555 0.51298 0.43887 0.0
H881 H 0.45991 0.5311 0.40641 0.0
H882 H 0.41766 0.58849 0.42148 0.0
C883 C 0.4155 0.62863 0.34498 0.0
C884 C 0.44815 0.58204 0.3635 0.0
C885 C 0.40741 0.63873 0.32555 0.0
C886 C 0.4699 0.52961 0.44119 0.0
C887 C 0.46108 0.54014 0.42245 0.0
C888 C 0.42665 0.58674 0.40551 0.0
C889 C 0.42055 0.60588 0.3444 0.0
C890 C 0.42929 0.59505 0.36501 0.0
C891 C 0.45382 0.56193 0.42437 0.0
C892 C 0.44543 0.57357 0.40398 0.0
H893 H 0.40663 0.59345 0.28907 0.0
H894 H 0.42068 0.57588 0.32284 0.0
H895 H 0.40401 0.60706 0.38808 0.0
H896 H 0.46482 0.57075 0.4808 0.0
H897 H 0.4499 0.58938 0.44805 0.0
C898 C 0.13084 0.40439 0.82221 0.0
C899 C 0.11415 0.39186 0.80667 0.0
C900 C 0.12255 0.41439 0.84156 0.0
C901 C 0.06747 0.43369 0.8652 0.0
H902 H 0.10332 0.4358 0.92162 0.0
C903 C 0.04503 0.48891 0.94072 0.0
C904 C 0.04576 0.47971 0.96264 0.0
C905 C 0.05379 0.47806 0.92215 0.0
C906 C 0.09294 0.43522 0.90608 0.0
H907 H 0.07544 0.38007 0.79968 0.0
H908 H 0.06104 0.39694 0.8336 0.0
H909 H 0.11706 0.41636 0.88891 0.0
H910 H 0.05668 0.45185 0.98209 0.0
H911 H 0.0717 0.43278 0.9497 0.0
H912 H 0.04304 0.45207 0.88246 0.0
C913 C 0.08061 0.39935 0.83065 0.0
C914 C 0.10101 0.42429 0.88717 0.0
C915 C 0.0889 0.38938 0.81128 0.0
C916 C 0.05589 0.45952 0.9655 0.0
C917 C 0.06461 0.44861 0.94688 0.0
C918 C 0.05939 0.44459 0.8841 0.0
C919 C 0.0973 0.41214 0.84604 0.0
C920 C 0.08845 0.42341 0.86641 0.0
C921 C 0.06349 0.4576 0.92488 0.0
C922 C 0.07205 0.44564 0.90481 0.0
H923 H 0.15042 0.40646 0.81948 0.0
H924 H 0.13602 0.42426 0.8528 0.0
H925 H 0.05742 0.43366 0.84952 0.0
H926 H 0.0375 0.50449 0.9378 0.0
H927 H 0.05303 0.48583 0.90561 0.0
C928 C 0.63384 0.83762 0.90673 0.0
C929 C 0.62311 0.82473 0.88809 0.0
C930 C 0.62168 0.85333 0.91764 0.0
C931 C 0.57237 0.88742 0.90912 0.0
H932 H 0.58008 0.89693 0.97375 0.0
C933 C 0.52174 0.94808 0.96184 0.0
C934 C 0.53693 0.96357 0.97634 0.0
C935 C 0.53088 0.93038 0.95068 0.0
C936 C 0.57785 0.89449 0.95567 0.0
H937 H 0.59104 0.81776 0.86651 0.0
H938 H 0.56941 0.84482 0.88594 0.0
H939 H 0.5978 0.86657 0.95549 0.0
H940 H 0.57361 0.97267 0.99042 0.0
H941 H 0.58935 0.94165 0.97117 0.0
H942 H 0.55206 0.91528 0.90956 0.0
C943 C 0.58749 0.8432 0.89183 0.0
C944 C 0.58807 0.87717 0.94517 0.0
C945 C 0.5998 0.82763 0.88075 0.0
C946 C 0.56143 0.96109 0.97933 0.0
C947 C 0.57042 0.94323 0.96844 0.0
C948 C 0.56186 0.90458 0.91971 0.0
C949 C 0.59836 0.85638 0.91033 0.0
C950 C 0.58585 0.87366 0.92169 0.0
C951 C 0.55522 0.92765 0.95411 0.0
C952 C 0.56487 0.90851 0.94302 0.0
H953 H 0.65198 0.83604 0.9125 0.0
H954 H 0.6309 0.86351 0.93148 0.0
H955 H 0.57053 0.88545 0.89098 0.0
H956 H 0.50278 0.94957 0.95917 0.0
H957 H 0.51878 0.91853 0.93975 0.0
C958 C 0.91862 0.19619 0.38163 0.0
C959 C 0.89488 0.19892 0.38784 0.0
C960 C 0.92975 0.17953 0.39237 0.0
C961 C 0.91443 0.12378 0.42181 0.0
H962 H 0.98099 0.13793 0.44479 0.0
C963 C 0.95378 0.05859 0.47713 0.0
C964 C 0.97869 0.05733 0.47483 0.0
C965 C 0.94411 0.07592 0.46599 0.0
C966 C 0.96252 0.13356 0.43814 0.0
H967 H 0.86422 0.18648 0.41015 0.0
H968 H 0.88363 0.15733 0.42881 0.0
H969 H 0.9634 0.16853 0.4265 0.0
H970 H 0.0129 0.07301 0.45867 0.0
H971 H 0.99586 0.10283 0.43865 0.0
H972 H 0.91351 0.0888 0.43291 0.0
C973 C 0.89362 0.1681 0.4157 0.0
C974 C 0.95244 0.15114 0.42777 0.0
C975 C 0.88263 0.18492 0.40518 0.0
C976 C 0.99365 0.07359 0.46088 0.0
C977 C 0.9839 0.09079 0.44952 0.0
C978 C 0.92456 0.10616 0.43191 0.0
C979 C 0.91718 0.16509 0.40925 0.0
C980 C 0.92822 0.14645 0.41972 0.0
C981 C 0.95903 0.09226 0.45204 0.0
C982 C 0.94865 0.11086 0.44043 0.0
H983 H 0.92848 0.20683 0.36837 0.0
H984 H 0.9479 0.17748 0.38704 0.0
H985 H 0.89583 0.11961 0.4154 0.0
H986 H 0.94179 0.04648 0.48792 0.0
H987 H 0.92499 0.07674 0.4687 0.0
C988 C 0.24059 0.62986 0.13125 0.0
C989 C 0.25279 0.61664 0.14575 0.0
C990 C 0.22014 0.61926 0.11875 0.0
C991 C 0.17013 0.56829 0.11722 0.0
H992 H 0.16639 0.58355 0.0537 0.0
C993 C 0.09087 0.52126 0.06127 0.0
C994 C 0.08132 0.53442 0.04476 0.0
C995 C 0.11251 0.53054 0.07278 0.0
C996 C 0.16691 0.57929 0.07147 0.0
H997 H 0.25254 0.58169 0.15847 0.0
H998 H 0.21639 0.56335 0.13705 0.0
H999 H 0.20218 0.60126 0.07574 0.0
H1000 H 0.08726 0.56761 0.02722 0.0
H1001 H 0.12462 0.5841 0.04771 0.0
H1002 H 0.13465 0.54688 0.11328 0.0
C1003 C 0.22286 0.58198 0.13538 0.0
C1004 C 0.18752 0.5894 0.08409 0.0
C1005 C 0.24354 0.59254 0.14773 0.0
C1006 C 0.09421 0.55694 0.03972 0.0
C1007 C 0.11573 0.56636 0.05146 0.0
C1008 C 0.14939 0.55838 0.10468 0.0
C1009 C 0.21107 0.5952 0.12059 0.0
C1010 C 0.18936 0.58405 0.10711 0.0
C1011 C 0.12508 0.55338 0.06834 0.0
C1012 C 0.14744 0.56373 0.08161 0.0
H1013 H 0.24668 0.64853 0.12965 0.0
H1014 H 0.2112 0.63 0.10782 0.0
H1015 H 0.17087 0.56404 0.13499 0.0
H1016 H 0.08155 0.50375 0.06541 0.0
H1017 H 0.11935 0.51974 0.08521 0.0
C1018 C 0.27475 0.42874 0.64876 0.0
C1019 C 0.26379 0.40522 0.64533 0.0
C1020 C 0.29585 0.43886 0.63674 0.0
C1021 C 0.34689 0.42344 0.6022 0.0
H1022 H 0.35453 0.48755 0.58183 0.0
C1023 C 0.4229 0.46404 0.53927 0.0
C1024 C 0.43642 0.4861 0.54511 0.0
C1025 C 0.40142 0.45452 0.55102 0.0
C1026 C 0.35272 0.46966 0.58752 0.0
H1027 H 0.26716 0.37383 0.62689 0.0
H1028 H 0.30304 0.39158 0.60544 0.0
H1029 H 0.31836 0.47032 0.6037 0.0
H1030 H 0.43741 0.51578 0.56741 0.0
H1031 H 0.39987 0.49929 0.58763 0.0
H1032 H 0.38109 0.42274 0.58567 0.0
C1033 C 0.29564 0.40222 0.61764 0.0
C1034 C 0.33203 0.45978 0.60017 0.0
C1035 C 0.27472 0.39209 0.62975 0.0
C1036 C 0.42753 0.4987 0.5625 0.0
C1037 C 0.40592 0.48931 0.57404 0.0
C1038 C 0.36743 0.43324 0.58937 0.0
C1039 C 0.30653 0.42576 0.62091 0.0
C1040 C 0.3288 0.43651 0.60771 0.0
C1041 C 0.39279 0.46698 0.56867 0.0
C1042 C 0.37061 0.45647 0.58188 0.0
H1043 H 0.26681 0.43948 0.66048 0.0
H1044 H 0.30386 0.45694 0.63999 0.0
H1045 H 0.3454 0.40564 0.60805 0.0
H1046 H 0.42923 0.45384 0.52602 0.0
H1047 H 0.39157 0.43737 0.54632 0.0
C1048 C 0.77481 0.66644 0.8821 0.0
C1049 C 0.76621 0.68527 0.89198 0.0
C1050 C 0.79198 0.65585 0.89328 0.0
C1051 C 0.84031 0.66896 0.93657 0.0
H1052 H 0.84323 0.60355 0.9289 0.0
C1053 C 0.91728 0.6264 0.97527 0.0
C1054 C 0.92818 0.61288 0.96011 0.0
C1055 C 0.8958 0.63422 0.96933 0.0
C1056 C 0.84264 0.62186 0.93115 0.0
H1057 H 0.76811 0.707 0.9219 0.0
H1058 H 0.79744 0.68799 0.94174 0.0
H1059 H 0.80759 0.61829 0.91511 0.0
H1060 H 0.92493 0.5965 0.92712 0.0
H1061 H 0.88749 0.61017 0.91674 0.0
H1062 H 0.87548 0.67247 0.9525 0.0
C1063 C 0.79132 0.68176 0.92509 0.0
C1064 C 0.82227 0.63032 0.92322 0.0
C1065 C 0.77423 0.69246 0.91383 0.0
C1066 C 0.91709 0.60714 0.93902 0.0
C1067 C 0.89551 0.61472 0.93319 0.0
C1068 C 0.86058 0.66043 0.94467 0.0
C1069 C 0.80084 0.66369 0.91472 0.0
C1070 C 0.82109 0.65409 0.92541 0.0
C1071 C 0.88467 0.62837 0.94826 0.0
C1072 C 0.86217 0.63691 0.94162 0.0
H1073 H 0.76872 0.66022 0.86544 0.0
H1074 H 0.79901 0.64212 0.88466 0.0
H1075 H 0.84023 0.68742 0.93827 0.0
H1076 H 0.9255 0.63112 0.99162 0.0
H1077 H 0.88776 0.64466 0.98129 0.0
C1078 C 0.43292 0.80087 0.16243 0.0
C1079 C 0.41189 0.78539 0.15488 0.0
C1080 C 0.44241 0.82118 0.15018 0.0
C1081 C 0.43883 0.84908 0.09338 0.0
H1082 H 0.46787 0.90553 0.12526 0.0
C1083 C 0.45983 0.94012 0.05046 0.0
C1084 C 0.48337 0.9534 0.05431 0.0
C1085 C 0.4515 0.91965 0.06279 0.0
C1086 C 0.45993 0.88985 0.11612 0.0
H1087 H 0.38497 0.77913 0.12784 0.0
H1088 H 0.4005 0.81474 0.10745 0.0
H1089 H 0.4529 0.86987 0.14653 0.0
H1090 H 0.51638 0.95575 0.07449 0.0
H1091 H 0.5016 0.92031 0.09627 0.0
H1092 H 0.44526 0.86941 0.06304 0.0
C1093 C 0.4101 0.81112 0.12257 0.0
C1094 C 0.45145 0.86931 0.1283 0.0
C1095 C 0.40084 0.79075 0.13461 0.0
C1096 C 0.49819 0.94591 0.07103 0.0
C1097 C 0.48969 0.92567 0.08361 0.0
C1098 C 0.44696 0.8697 0.08127 0.0
C1099 C 0.43105 0.82669 0.13011 0.0
C1100 C 0.44071 0.84857 0.11713 0.0
C1101 C 0.46632 0.9122 0.07952 0.0
C1102 C 0.45759 0.89033 0.09249 0.0
H1103 H 0.44192 0.79753 0.17799 0.0
H1104 H 0.45878 0.83246 0.15644 0.0
H1105 H 0.43127 0.83346 0.084 0.0
H1106 H 0.44798 0.94533 0.03767 0.0
H1107 H 0.43334 0.90971 0.05937 0.0
C1108 C 0.09311 0.23841 0.62826 0.0
C1109 C 0.09814 0.23875 0.65157 0.0
C1110 C 0.08474 0.21738 0.61697 0.0
C1111 C 0.05599 0.15524 0.62538 0.0
H1112 H 0.08352 0.14787 0.5662 0.0
C1113 C 0.01661 0.07854 0.56574 0.0
C1114 C 0.03317 0.0684 0.55286 0.0
C1115 C 0.02475 0.09873 0.57848 0.0
C1116 C 0.07578 0.1495 0.58278 0.0
H1117 H 0.09758 0.21704 0.68136 0.0
H1118 H 0.08282 0.18024 0.66165 0.0
H1119 H 0.09691 0.18386 0.58724 0.0
H1120 H 0.07146 0.07166 0.54351 0.0
H1121 H 0.08566 0.10677 0.56582 0.0
H1122 H 0.03507 0.12072 0.62099 0.0
C1123 C 0.08529 0.19636 0.65212 0.0
C1124 C 0.08324 0.17031 0.59476 0.0
C1125 C 0.09372 0.21748 0.66345 0.0
C1126 C 0.05815 0.07895 0.55317 0.0
C1127 C 0.06628 0.0992 0.56588 0.0
C1128 C 0.04846 0.13443 0.61335 0.0
C1129 C 0.08108 0.19601 0.62864 0.0
C1130 C 0.07336 0.17354 0.61617 0.0
C1131 C 0.04968 0.1094 0.57868 0.0
C1132 C 0.05818 0.13131 0.59183 0.0
H1133 H 0.09579 0.25448 0.61862 0.0
H1134 H 0.08113 0.21789 0.59901 0.0
H1135 H 0.04788 0.15713 0.64175 0.0
H1136 H 0.99724 0.07098 0.56594 0.0
H1137 H 0.01137 0.10622 0.58785 0.0
C1138 C 0.74089 0.355 0.37755 0.0
C1139 C 0.75067 0.33714 0.388 0.0
C1140 C 0.72355 0.36541 0.38867 0.0
C1141 C 0.67703 0.35291 0.43365 0.0
H1142 H 0.67171 0.41748 0.4238 0.0
C1143 C 0.60042 0.39497 0.47357 0.0
C1144 C 0.5884 0.40761 0.45843 0.0
C1145 C 0.62184 0.38739 0.46706 0.0
C1146 C 0.67297 0.3994 0.42664 0.0
H1147 H 0.75062 0.31692 0.41879 0.0
H1148 H 0.72098 0.33564 0.43848 0.0
H1149 H 0.70738 0.40321 0.40944 0.0
H1150 H 0.58958 0.42262 0.42485 0.0
H1151 H 0.62692 0.40933 0.41348 0.0
H1152 H 0.64251 0.34916 0.45077 0.0
C1153 C 0.72633 0.34124 0.42146 0.0
C1154 C 0.69335 0.3912 0.4184 0.0
C1155 C 0.74358 0.33072 0.41027 0.0
C1156 C 0.59829 0.41266 0.43676 0.0
C1157 C 0.61981 0.40531 0.43035 0.0
C1158 C 0.65674 0.36118 0.44205 0.0
C1159 C 0.71569 0.35834 0.4106 0.0
C1160 C 0.6954 0.36774 0.42141 0.0
C1161 C 0.63179 0.39258 0.44542 0.0
C1162 C 0.65429 0.38437 0.43825 0.0
H1163 H 0.74624 0.36063 0.36054 0.0
H1164 H 0.71563 0.37837 0.37968 0.0
H1165 H 0.67778 0.33466 0.436 0.0
H1166 H 0.59313 0.3908 0.49035 0.0
H1167 H 0.63077 0.37767 0.47903 0.0
loop_
_geom_bond_atom_site_label_1
_geom_bond_atom_site_label_2
_geom_bond_distance
_geom_bond_site_symmetry_2
_ccdc_geom_bond_type
C0 C1 1.384 . S
C0 H13 0.947 . S
C0 C35 1.382 . S
C1 C0 1.384 . S
C1 C2 1.378 . S
C2 C1 1.378 . S
C2 C3 1.378 . S
C2 H14 0.952 . S
C3 C2 1.378 . S
C3 H15 0.950 . S
C3 C34 1.383 . S
H4 C23 0.947 . S
H5 C24 0.946 . S
H6 C26 0.953 . S
H7 C27 0.945 . S
H8 C29 0.952 . S
H9 C30 0.949 . S
H10 C32 0.950 . S
H11 C33 0.948 . S
H12 C35 0.951 . S
H13 C0 0.947 . S
H14 C2 0.952 . S
H15 C3 0.950 . S
N16 C19 1.382 . S
N16 C21 1.363 . S
N17 C19 1.371 . S
N17 C20 1.372 . S
N18 C20 1.361 . S
N18 C21 1.377 . S
C19 N16 1.382 . S
C19 N17 1.371 . S
C19 C22 1.480 . S
C20 N17 1.372 . S
C20 N18 1.361 . S
C20 C28 1.457 . S
C21 N16 1.363 . S
C21 N18 1.377 . S
C21 C34 1.479 . S
C22 C19 1.480 . S
C22 C23 1.383 . S
C22 C27 1.385 . S
C23 H4 0.947 . S
C23 C22 1.383 . S
C23 C24 1.388 . S
C24 H5 0.946 . S
C24 C23 1.388 . S
C24 C25 1.384 . S
C25 C24 1.384 . S
C25 C26 1.377 . S
C26 H6 0.953 . S
C26 C25 1.377 . S
C26 C27 1.369 . S
C27 H7 0.945 . S
C27 C22 1.385 . S
C27 C26 1.369 . S
C28 C20 1.457 . S
C28 C29 1.372 . S
C28 C33 1.364 . S
C29 H8 0.952 . S
C29 C28 1.372 . S
C29 C30 1.389 . S
C30 H9 0.949 . S
C30 C29 1.389 . S
C30 C31 1.387 . S
C31 C30 1.387 . S
C31 C32 1.372 . S
C32 H10 0.950 . S
C32 C31 1.372 . S
C32 C33 1.379 . S
C33 H11 0.948 . S
C33 C28 1.364 . S
C33 C32 1.379 . S
C34 C3 1.383 . S
C34 C21 1.479 . S
C34 C35 1.398 . S
C35 C0 1.382 . S
C35 H12 0.951 . S
C35 C34 1.398 . S
C36 C37 1.384 . S
C36 H49 0.947 . S
C36 C71 1.382 . S
C37 C36 1.384 . S
C37 C38 1.378 . S
C38 C37 1.378 . S
C38 C39 1.378 . S
C38 H50 0.952 . S
C39 C38 1.378 . S
C39 H51 0.950 . S
C39 C70 1.383 . S
H40 C59 0.947 . S
H41 C60 0.946 . S
H42 C62 0.953 . S
H43 C63 0.945 . S
H44 C65 0.952 . S
H45 C66 0.949 . S
H46 C68 0.950 . S
H47 C69 0.948 . S
H48 C71 0.951 . S
H49 C36 0.947 . S
H50 C38 0.952 . S
H51 C39 0.950 . S
N52 C55 1.382 . S
N52 C57 1.363 . S
N53 C55 1.371 . S
N53 C56 1.372 . S
N54 C56 1.361 . S
N54 C57 1.377 . S
C55 N52 1.382 . S
C55 N53 1.371 . S
C55 C58 1.480 . S
C56 N53 1.372 . S
C56 N54 1.361 . S
C56 C64 1.457 . S
C57 N52 1.363 . S
C57 N54 1.377 . S
C57 C70 1.479 . S
C58 C55 1.480 . S
C58 C59 1.383 . S
C58 C63 1.385 . S
C59 H40 0.947 . S
C59 C58 1.383 . S
C59 C60 1.388 . S
C60 H41 0.946 . S
C60 C59 1.388 . S
C60 C61 1.384 . S
C61 C60 1.384 . S
C61 C62 1.377 . S
C62 H42 0.953 . S
C62 C61 1.377 . S
C62 C63 1.369 . S
C63 H43 0.945 . S
C63 C58 1.385 . S
C63 C62 1.369 . S
C64 C56 1.457 . S
C64 C65 1.372 . S
C64 C69 1.364 . S
C65 H44 0.952 . S
C65 C64 1.372 . S
C65 C66 1.389 . S
C66 H45 0.949 . S
C66 C65 1.389 . S
C66 C67 1.387 . S
C67 C66 1.387 . S
C67 C68 1.372 . S
C68 H46 0.950 . S
C68 C67 1.372 . S
C68 C69 1.379 . S
C69 H47 0.948 . S
C69 C64 1.364 . S
C69 C68 1.379 . S
C70 C39 1.383 . S
C70 C57 1.479 . S
C70 C71 1.398 . S
C71 C36 1.382 . S
C71 H48 0.951 . S
C71 C70 1.398 . S
C72 C73 1.384 . S
C72 H85 0.947 . S
C72 C107 1.382 . S
C73 C72 1.384 . S
C73 C74 1.378 . S
C74 C73 1.378 . S
C74 C75 1.378 . S
C74 H86 0.952 . S
C75 C74 1.378 . S
C75 H87 0.950 . S
C75 C106 1.383 . S
H76 C95 0.947 . S
H77 C96 0.946 . S
H78 C98 0.953 . S
H79 C99 0.945 . S
H80 C101 0.952 . S
H81 C102 0.949 . S
H82 C104 0.950 . S
H83 C105 0.948 . S
H84 C107 0.951 . S
H85 C72 0.947 . S
H86 C74 0.952 . S
H87 C75 0.950 . S
N88 C91 1.382 . S
N88 C93 1.363 . S
N89 C91 1.371 . S
N89 C92 1.372 . S
N90 C92 1.361 . S
N90 C93 1.377 . S
C91 N88 1.382 . S
C91 N89 1.371 . S
C91 C94 1.480 . S
C92 N89 1.372 . S
C92 N90 1.361 . S
C92 C100 1.457 . S
C93 N88 1.363 . S
C93 N90 1.377 . S
C93 C106 1.479 . S
C94 C91 1.480 . S
C94 C95 1.383 . S
C94 C99 1.385 . S
C95 H76 0.947 . S
C95 C94 1.383 . S
C95 C96 1.388 . S
C96 H77 0.946 . S
C96 C95 1.388 . S
C96 C97 1.384 . S
C97 C96 1.384 . S
C97 C98 1.377 . S
C98 H78 0.953 . S
C98 C97 1.377 . S
C98 C99 1.369 . S
C99 H79 0.945 . S
C99 C94 1.385 . S
C99 C98 1.369 . S
C100 C92 1.457 . S
C100 C101 1.372 . S
C100 C105 1.364 . S
C101 H80 0.952 . S
C101 C100 1.372 . S
C101 C102 1.389 . S
C102 H81 0.949 . S
C102 C101 1.389 . S
C102 C103 1.387 . S
C103 C102 1.387 . S
C103 C104 1.372 . S
C104 H82 0.950 . S
C104 C103 1.372 . S
C104 C105 1.379 . S
C105 H83 0.948 . S
C105 C100 1.364 . S
C105 C104 1.379 . S
C106 C75 1.383 . S
C106 C93 1.479 . S
C106 C107 1.398 . S
C107 C72 1.382 . S
C107 H84 0.951 . S
C107 C106 1.398 . S
C108 C109 1.384 . S
C108 H121 0.947 . S
C108 C143 1.382 . S
C109 C108 1.384 . S
C109 C110 1.378 . S
C110 C109 1.378 . S
C110 C111 1.378 . S
C110 H122 0.952 . S
C111 C110 1.378 . S
C111 H123 0.950 . S
C111 C142 1.383 . S
H112 C131 0.947 . S
H113 C132 0.946 . S
H114 C134 0.953 . S
H115 C135 0.945 . S
H116 C137 0.952 . S
H117 C138 0.949 . S
H118 C140 0.950 . S
H119 C141 0.948 . S
H120 C143 0.951 . S
H121 C108 0.947 . S
H122 C110 0.952 . S
H123 C111 0.950 . S
N124 C127 1.382 . S
N124 C129 1.363 . S
N125 C127 1.371 . S
N125 C128 1.372 . S
N126 C128 1.361 . S
N126 C129 1.377 . S
C127 N124 1.382 . S
C127 N125 1.371 . S
C127 C130 1.480 . S
C128 N125 1.372 . S
C128 N126 1.361 . S
C128 C136 1.457 . S
C129 N124 1.363 . S
C129 N126 1.377 . S
C129 C142 1.479 . S
C130 C127 1.480 . S
C130 C131 1.383 . S
C130 C135 1.385 . S
C131 H112 0.947 . S
C131 C130 1.383 . S
C131 C132 1.388 . S
C132 H113 0.946 . S
C132 C131 1.388 . S
C132 C133 1.384 . S
C133 C132 1.384 . S
C133 C134 1.377 . S
C134 H114 0.953 . S
C134 C133 1.377 . S
C134 C135 1.369 . S
C135 H115 0.945 . S
C135 C130 1.385 . S
C135 C134 1.369 . S
C136 C128 1.457 . S
C136 C137 1.372 . S
C136 C141 1.364 . S
C137 H116 0.952 . S
C137 C136 1.372 . S
C137 C138 1.389 . S
C138 H117 0.949 . S
C138 C137 1.389 . S
C138 C139 1.387 . S
C139 C138 1.387 . S
C139 C140 1.372 . S
C140 H118 0.950 . S
C140 C139 1.372 . S
C140 C141 1.379 . S
C141 H119 0.948 . S
C141 C136 1.364 . S
C141 C140 1.379 . S
C142 C111 1.383 . S
C142 C129 1.479 . S
C142 C143 1.398 . S
C143 C108 1.382 . S
C143 H120 0.951 . S
C143 C142 1.398 . S
C144 C145 1.384 . S
C144 H157 0.947 . S
C144 C179 1.382 . S
C145 C144 1.384 . S
C145 C146 1.378 . S
C146 C145 1.378 . S
C146 C147 1.378 . S
C146 H158 0.952 . S
C147 C146 1.378 . S
C147 H159 0.950 . S
C147 C178 1.383 . S
H148 C167 0.947 . S
H149 C168 0.946 . S
H150 C170 0.953 . S
H151 C171 0.945 . S
H152 C173 0.952 . S
H153 C174 0.949 . S
H154 C176 0.950 . S
H155 C177 0.948 . S
H156 C179 0.951 . S
H157 C144 0.947 . S
H158 C146 0.952 . S
H159 C147 0.950 . S
N160 C163 1.382 . S
N160 C165 1.363 . S
N161 C163 1.371 . S
N161 C164 1.372 . S
N162 C164 1.361 . S
N162 C165 1.377 . S
C163 N160 1.382 . S
C163 N161 1.371 . S
C163 C166 1.480 . S
C164 N161 1.372 . S
C164 N162 1.361 . S
C164 C172 1.457 . S
C165 N160 1.363 . S
C165 N162 1.377 . S
C165 C178 1.479 . S
C166 C163 1.480 . S
C166 C167 1.383 . S
C166 C171 1.385 . S
C167 H148 0.947 . S
C167 C166 1.383 . S
C167 C168 1.388 . S
C168 H149 0.946 . S
C168 C167 1.388 . S
C168 C169 1.384 . S
C169 C168 1.384 . S
C169 C170 1.377 . S
C170 H150 0.953 . S
C170 C169 1.377 . S
C170 C171 1.369 . S
C171 H151 0.945 . S
C171 C166 1.385 . S
C171 C170 1.369 . S
C172 C164 1.457 . S
C172 C173 1.372 . S
C172 C177 1.364 . S
C173 H152 0.952 . S
C173 C172 1.372 . S
C173 C174 1.389 . S
C174 H153 0.949 . S
C174 C173 1.389 . S
C174 C175 1.387 . S
C175 C174 1.387 . S
C175 C176 1.372 . S
C176 H154 0.950 . S
C176 C175 1.372 . S
C176 C177 1.379 . S
C177 H155 0.948 . S
C177 C172 1.364 . S
C177 C176 1.379 . S
C178 C147 1.383 . S
C178 C165 1.479 . S
C178 C179 1.398 . S
C179 C144 1.382 . S
C179 H156 0.951 . S
C179 C178 1.398 . S
C180 C181 1.384 . S
C180 H193 0.947 . S
C180 C215 1.382 . S
C181 C180 1.384 . S
C181 C182 1.378 . S
C182 C181 1.378 . S
C182 C183 1.378 . S
C182 H194 0.952 . S
C183 C182 1.378 . S
C183 H195 0.950 . S
C183 C214 1.383 . S
H184 C203 0.947 . S
H185 C204 0.946 . S
H186 C206 0.953 . S
H187 C207 0.945 . S
H188 C209 0.952 . S
H189 C210 0.949 . S
H190 C212 0.950 . S
H191 C213 0.948 . S
H192 C215 0.951 . S
H193 C180 0.947 . S
H194 C182 0.952 . S
H195 C183 0.950 . S
N196 C199 1.382 . S
N196 C201 1.363 . S
N197 C199 1.371 . S
N197 C200 1.372 . S
N198 C200 1.361 . S
N198 C201 1.377 . S
C199 N196 1.382 . S
C199 N197 1.371 . S
C199 C202 1.480 . S
C200 N197 1.372 . S
C200 N198 1.361 . S
C200 C208 1.457 . S
C201 N196 1.363 . S
C201 N198 1.377 . S
C201 C214 1.479 . S
C202 C199 1.480 . S
C202 C203 1.383 . S
C202 C207 1.385 . S
C203 H184 0.947 . S
C203 C202 1.383 . S
C203 C204 1.388 . S
C204 H185 0.946 . S
C204 C203 1.388 . S
C204 C205 1.384 . S
C205 C204 1.384 . S
C205 C206 1.377 . S
C206 H186 0.953 . S
C206 C205 1.377 . S
C206 C207 1.369 . S
C207 H187 0.945 . S
C207 C202 1.385 . S
C207 C206 1.369 . S
C208 C200 1.457 . S
C208 C209 1.372 . S
C208 C213 1.364 . S
C209 H188 0.952 . S
C209 C208 1.372 . S
C209 C210 1.389 . S
C210 H189 0.949 . S
C210 C209 1.389 . S
C210 C211 1.387 . S
C211 C210 1.387 . S
C211 C212 1.372 . S
C212 H190 0.950 . S
C212 C211 1.372 . S
C212 C213 1.379 . S
C213 H191 0.948 . S
C213 C208 1.364 . S
C213 C212 1.379 . S
C214 C183 1.383 . S
C214 C201 1.479 . S
C214 C215 1.398 . S
C215 C180 1.382 . S
C215 H192 0.951 . S
C215 C214 1.398 . S
C216 C217 1.384 . S
C216 H229 0.947 . S
C216 C251 1.382 . S
C217 C216 1.384 . S
C217 C218 1.378 . S
C218 C217 1.378 . S
C218 C219 1.378 . S
C218 H230 0.952 . S
C219 C218 1.378 . S
C219 H231 0.950 . S
C219 C250 1.383 . S
H220 C239 0.947 . S
H221 C240 0.946 . S
H222 C242 0.953 . S
H223 C243 0.945 . S
H224 C245 0.952 . S
H225 C246 0.949 . S
H226 C248 0.950 . S
H227 C249 0.948 . S
H228 C251 0.951 . S
H229 C216 0.947 . S
H230 C218 0.952 . S
H231 C219 0.950 . S
N232 C235 1.382 . S
N232 C237 1.363 . S
N233 C235 1.371 . S
N233 C236 1.372 . S
N234 C236 1.361 . S
N234 C237 1.377 . S
C235 N232 1.382 . S
C235 N233 1.371 . S
C235 C238 1.480 . S
C236 N233 1.372 . S
C236 N234 1.361 . S
C236 C244 1.457 . S
C237 N232 1.363 . S
C237 N234 1.377 . S
C237 C250 1.479 . S
C238 C235 1.480 . S
C238 C239 1.383 . S
C238 C243 1.385 . S
C239 H220 0.947 . S
C239 C238 1.383 . S
C239 C240 1.388 . S
C240 H221 0.946 . S
C240 C239 1.388 . S
C240 C241 1.384 . S
C241 C240 1.384 . S
C241 C242 1.377 . S
C242 H222 0.953 . S
C242 C241 1.377 . S
C242 C243 1.369 . S
C243 H223 0.945 . S
C243 C238 1.385 . S
C243 C242 1.369 . S
C244 C236 1.457 . S
C244 C245 1.372 . S
C244 C249 1.364 . S
C245 H224 0.952 . S
C245 C244 1.372 . S
C245 C246 1.389 . S
C246 H225 0.949 . S
C246 C245 1.389 . S
C246 C247 1.387 . S
C247 C246 1.387 . S
C247 C248 1.372 . S
C248 H226 0.950 . S
C248 C247 1.372 . S
C248 C249 1.379 . S
C249 H227 0.948 . S
C249 C244 1.364 . S
C249 C248 1.379 . S
C250 C219 1.383 . S
C250 C237 1.479 . S
C250 C251 1.398 . S
C251 C216 1.382 . S
C251 H228 0.951 . S
C251 C250 1.398 . S
C252 C253 1.384 . S
C252 H265 0.947 . S
C252 C287 1.382 . S
C253 C252 1.384 . S
C253 C254 1.378 . S
C254 C253 1.378 . S
C254 C255 1.378 . S
C254 H266 0.952 . S
C255 C254 1.378 . S
C255 H267 0.950 . S
C255 C286 1.383 . S
H256 C275 0.947 . S
H257 C276 0.946 . S
H258 C278 0.953 . S
H259 C279 0.945 . S
H260 C281 0.952 . S
H261 C282 0.949 . S
H262 C284 0.950 . S
H263 C285 0.948 . S
H264 C287 0.951 . S
H265 C252 0.947 . S
H266 C254 0.952 . S
H267 C255 0.950 . S
N268 C271 1.382 . S
N268 C273 1.363 . S
N269 C271 1.371 . S
N269 C272 1.372 . S
N270 C272 1.361 . S
N270 C273 1.377 . S
C271 N268 1.382 . S
C271 N269 1.371 . S
C271 C274 1.480 . S
C272 N269 1.372 . S
C272 N270 1.361 . S
C272 C280 1.457 . S
C273 N268 1.363 . S
C273 N270 1.377 . S
C273 C286 1.479 . S
C274 C271 1.480 . S
C274 C275 1.383 . S
C274 C279 1.385 . S
C275 H256 0.947 . S
C275 C274 1.383 . S
C275 C276 1.388 . S
C276 H257 0.946 . S
C276 C275 1.388 . S
C276 C277 1.384 . S
C277 C276 1.384 . S
C277 C278 1.377 . S
C278 H258 0.953 . S
C278 C277 1.377 . S
C278 C279 1.369 . S
C279 H259 0.945 . S
C279 C274 1.385 . S
C279 C278 1.369 . S
C280 C272 1.457 . S
C280 C281 1.372 . S
C280 C285 1.364 . S
C281 H260 0.952 . S
C281 C280 1.372 . S
C281 C282 1.389 . S
C282 H261 0.949 . S
C282 C281 1.389 . S
C282 C283 1.387 . S
C283 C282 1.387 . S
C283 C284 1.372 . S
C284 H262 0.950 . S
C284 C283 1.372 . S
C284 C285 1.379 . S
C285 H263 0.948 . S
C285 C280 1.364 . S
C285 C284 1.379 . S
C286 C255 1.383 . S
C286 C273 1.479 . S
C286 C287 1.398 . S
C287 C252 1.382 . S
C287 H264 0.951 . S
C287 C286 1.398 . S
Dy288 O291 2.307 1_545 S
Dy288 O293 2.395 . S
Dy288 O294 2.379 . S
Dy288 O296 2.339 1_545 S
Dy288 O298 2.298 1_455 S
Dy288 O302 2.275 . S
Dy288 C310 2.738 . S
Dy289 O292 2.298 1_655 S
Dy289 O295 2.275 . S
Dy289 O297 2.307 1_565 S
Dy289 O299 2.395 . S
Dy289 O300 2.379 . S
Dy289 O303 2.339 1_565 S
Dy289 C319 2.738 . S
C290 O302 1.254 . S
C290 O303 1.257 1_455 S
O291 Dy288 2.307 1_565 S
O291 C301 1.266 . S
O292 Dy289 2.298 1_455 S
O292 C301 1.236 . S
O293 Dy288 2.395 . S
O293 C310 1.255 . S
O294 Dy288 2.379 . S
O294 C310 1.249 . S
O295 Dy289 2.275 . S
O295 C311 1.254 . S
O296 Dy288 2.339 1_565 S
O296 C311 1.257 1_455 S
O297 Dy289 2.307 1_545 S
O297 C312 1.266 . S
O298 Dy288 2.298 1_655 S
O298 C312 1.236 . S
O299 Dy289 2.395 . S
O299 C319 1.255 . S
O300 Dy289 2.379 . S
O300 C319 1.249 . S
C301 O291 1.266 . S
C301 O292 1.236 . S
O302 Dy288 2.275 . S
O302 C290 1.254 . S
O303 Dy289 2.339 1_545 S
O303 C290 1.257 1_655 S
C304 C307 1.344 . S
C304 C308 1.328 . S
C304 C310 1.516 . S
C305 C306 1.304 . S
C305 C309 1.323 . S
C306 C305 1.304 . S
C306 C307 1.371 . S
C306 H320 0.930 . S
C307 C304 1.344 . S
C307 C306 1.371 . S
C307 H321 0.931 . S
C308 C304 1.328 . S
C308 C309 1.433 . S
C308 H322 0.931 . S
C309 C305 1.323 . S
C309 C308 1.433 . S
C309 H323 0.933 . S
C310 Dy288 2.738 . S
C310 O293 1.255 . S
C310 O294 1.249 . S
C310 C304 1.516 . S
C311 O295 1.254 . S
C311 O296 1.257 1_655 S
C312 O297 1.266 . S
C312 O298 1.236 . S
C313 C316 1.344 . S
C313 C317 1.328 . S
C313 C319 1.516 . S
C314 C315 1.304 . S
C314 C318 1.323 . S
C315 C314 1.304 . S
C315 C316 1.371 . S
C315 H324 0.930 . S
C316 C313 1.344 . S
C316 C315 1.371 . S
C316 H325 0.931 . S
C317 C313 1.328 . S
C317 C318 1.433 . S
C317 H326 0.931 . S
C318 C314 1.323 . S
C318 C317 1.433 . S
C318 H327 0.933 . S
C319 Dy289 2.738 . S
C319 O299 1.255 . S
C319 O300 1.249 . S
C319 C313 1.516 . S
H320 C306 0.930 . S
H321 C307 0.931 . S
H322 C308 0.931 . S
H323 C309 0.933 . S
H324 C315 0.930 . S
H325 C316 0.931 . S
H326 C317 0.931 . S
H327 C318 0.933 . S
Dy328 O331 2.307 1_566 S
Dy328 O333 2.395 . S
Dy328 O334 2.379 . S
Dy328 O336 2.339 1_565 S
Dy328 O338 2.298 . S
Dy328 O342 2.275 1_556 S
Dy328 C350 2.738 . S
Dy329 O332 2.298 . S
Dy329 O335 2.275 1_554 S
Dy329 O337 2.307 1_544 S
Dy329 O339 2.395 . S
Dy329 O340 2.379 . S
Dy329 O343 2.339 1_545 S
Dy329 C359 2.738 . S
C330 O342 1.254 . S
C330 O343 1.257 . S
O331 Dy328 2.307 1_544 S
O331 C341 1.266 . S
O332 Dy329 2.298 . S
O332 C341 1.236 . S
O333 Dy328 2.395 . S
O333 C350 1.255 . S
O334 Dy328 2.379 . S
O334 C350 1.249 . S
O335 Dy329 2.275 1_556 S
O335 C351 1.254 . S
O336 Dy328 2.339 1_545 S
O336 C351 1.257 . S
O337 Dy329 2.307 1_566 S
O337 C352 1.266 . S
O338 Dy328 2.298 . S
O338 C352 1.236 . S
O339 Dy329 2.395 . S
O339 C359 1.255 . S
O340 Dy329 2.379 . S
O340 C359 1.249 . S
C341 O331 1.266 . S
C341 O332 1.236 . S
O342 Dy328 2.275 1_554 S
O342 C330 1.254 . S
O343 Dy329 2.339 1_565 S
O343 C330 1.257 . S
C344 C347 1.344 . S
C344 C348 1.328 . S
C344 C350 1.516 . S
C345 C346 1.304 . S
C345 C349 1.323 . S
C346 C345 1.304 . S
C346 C347 1.371 . S
C346 H360 0.930 . S
C347 C344 1.344 . S
C347 C346 1.371 . S
C347 H361 0.931 . S
C348 C344 1.328 . S
C348 C349 1.433 . S
C348 H362 0.931 . S
C349 C345 1.323 . S
C349 C348 1.433 . S
C349 H363 0.933 . S
C350 Dy328 2.738 . S
C350 O333 1.255 . S
C350 O334 1.249 . S
C350 C344 1.516 . S
C351 O335 1.254 . S
C351 O336 1.257 . S
C352 O337 1.266 . S
C352 O338 1.236 . S
C353 C356 1.344 . S
C353 C357 1.328 . S
C353 C359 1.516 . S
C354 C355 1.304 . S
C354 C358 1.323 . S
C355 C354 1.304 . S
C355 C356 1.371 . S
C355 H364 0.930 . S
C356 C353 1.344 . S
C356 C355 1.371 . S
C356 H365 0.931 . S
C357 C353 1.328 . S
C357 C358 1.433 . S
C357 H366 0.931 . S
C358 C354 1.323 . S
C358 C357 1.433 . S
C358 H367 0.933 . S
C359 Dy329 2.738 . S
C359 O339 1.255 . S
C359 O340 1.249 . S
C359 C353 1.516 . S
H360 C346 0.930 . S
H361 C347 0.931 . S
H362 C348 0.931 . S
H363 C349 0.933 . S
H364 C355 0.930 . S
H365 C356 0.931 . S
H366 C357 0.931 . S
H367 C358 0.933 . S
Dy368 O371 2.307 . S
Dy368 O373 2.395 . S
Dy368 O374 2.379 . S
Dy368 O376 2.339 . S
Dy368 O378 2.298 . S
Dy368 O382 2.275 . S
Dy368 C390 2.738 . S
Dy369 O372 2.298 . S
Dy369 O375 2.275 . S
Dy369 O377 2.307 . S
Dy369 O379 2.395 . S
Dy369 O380 2.379 . S
Dy369 O383 2.339 . S
Dy369 C399 2.738 . S
C370 O382 1.254 . S
C370 O383 1.257 . S
O371 Dy368 2.307 . S
O371 C381 1.266 . S
O372 Dy369 2.298 . S
O372 C381 1.236 . S
O373 Dy368 2.395 . S
O373 C390 1.255 . S
O374 Dy368 2.379 . S
O374 C390 1.249 . S
O375 Dy369 2.275 . S
O375 C391 1.254 . S
O376 Dy368 2.339 . S
O376 C391 1.257 . S
O377 Dy369 2.307 . S
O377 C392 1.266 . S
O378 Dy368 2.298 . S
O378 C392 1.236 . S
O379 Dy369 2.395 . S
O379 C399 1.255 . S
O380 Dy369 2.379 . S
O380 C399 1.249 . S
C381 O371 1.266 . S
C381 O372 1.236 . S
O382 Dy368 2.275 . S
O382 C370 1.254 . S
O383 Dy369 2.339 . S
O383 C370 1.257 . S
C384 C387 1.344 . S
C384 C388 1.328 . S
C384 C390 1.516 . S
C385 C386 1.304 . S
C385 C389 1.323 . S
C386 C385 1.304 . S
C386 C387 1.371 . S
C386 H400 0.930 . S
C387 C384 1.344 . S
C387 C386 1.371 . S
C387 H401 0.931 . S
C388 C384 1.328 . S
C388 C389 1.433 . S
C388 H402 0.931 . S
C389 C385 1.323 . S
C389 C388 1.433 . S
C389 H403 0.933 . S
C390 Dy368 2.738 . S
C390 O373 1.255 . S
C390 O374 1.249 . S
C390 C384 1.516 . S
C391 O375 1.254 . S
C391 O376 1.257 . S
C392 O377 1.266 . S
C392 O378 1.236 . S
C393 C396 1.344 . S
C393 C397 1.328 . S
C393 C399 1.516 . S
C394 C395 1.304 . S
C394 C398 1.323 . S
C395 C394 1.304 . S
C395 C396 1.371 . S
C395 H404 0.930 . S
C396 C393 1.344 . S
C396 C395 1.371 . S
C396 H405 0.931 . S
C397 C393 1.328 . S
C397 C398 1.433 . S
C397 H406 0.931 . S
C398 C394 1.323 . S
C398 C397 1.433 . S
C398 H407 0.933 . S
C399 Dy369 2.738 . S
C399 O379 1.255 . S
C399 O380 1.249 . S
C399 C393 1.516 . S
H400 C386 0.930 . S
H401 C387 0.931 . S
H402 C388 0.931 . S
H403 C389 0.933 . S
H404 C395 0.930 . S
H405 C396 0.931 . S
H406 C397 0.931 . S
H407 C398 0.933 . S
Dy408 O411 2.307 1_556 S
Dy408 O413 2.395 1_455 S
Dy408 O414 2.379 1_455 S
Dy408 O416 2.339 . S
Dy408 O418 2.298 1_455 S
Dy408 O422 2.275 1_456 S
Dy408 C430 2.738 1_455 S
Dy409 O412 2.298 . S
Dy409 O415 2.275 1_554 S
Dy409 O417 2.307 1_455 S
Dy409 O419 2.395 . S
Dy409 O420 2.379 . S
Dy409 O423 2.339 1_455 S
Dy409 C439 2.738 . S
C410 O422 1.254 . S
C410 O423 1.257 . S
O411 Dy408 2.307 1_554 S
O411 C421 1.266 . S
O412 Dy409 2.298 . S
O412 C421 1.236 . S
O413 Dy408 2.395 1_655 S
O413 C430 1.255 . S
O414 Dy408 2.379 1_655 S
O414 C430 1.249 . S
O415 Dy409 2.275 1_556 S
O415 C431 1.254 . S
O416 Dy408 2.339 . S
O416 C431 1.257 . S
O417 Dy409 2.307 1_655 S
O417 C432 1.266 1_554 S
O418 Dy408 2.298 1_655 S
O418 C432 1.236 . S
O419 Dy409 2.395 . S
O419 C439 1.255 . S
O420 Dy409 2.379 . S
O420 C439 1.249 . S
C421 O411 1.266 . S
C421 O412 1.236 . S
O422 Dy408 2.275 1_654 S
O422 C410 1.254 . S
O423 Dy409 2.339 1_655 S
O423 C410 1.257 . S
C424 C427 1.344 . S
C424 C428 1.328 . S
C424 C430 1.516 . S
C425 C426 1.304 . S
C425 C429 1.323 . S
C426 C425 1.304 . S
C426 C427 1.371 . S
C426 H440 0.930 . S
C427 C424 1.344 . S
C427 C426 1.371 . S
C427 H441 0.931 . S
C428 C424 1.328 . S
C428 C429 1.433 . S
C428 H442 0.931 . S
C429 C425 1.323 . S
C429 C428 1.433 . S
C429 H443 0.933 . S
C430 Dy408 2.738 1_655 S
C430 O413 1.255 . S
C430 O414 1.249 . S
C430 C424 1.516 . S
C431 O415 1.254 . S
C431 O416 1.257 . S
C432 O417 1.266 1_556 S
C432 O418 1.236 . S
C433 C436 1.344 . S
C433 C437 1.328 . S
C433 C439 1.516 . S
C434 C435 1.304 . S
C434 C438 1.323 . S
C435 C434 1.304 . S
C435 C436 1.371 . S
C435 H444 0.930 . S
C436 C433 1.344 . S
C436 C435 1.371 . S
C436 H445 0.931 . S
C437 C433 1.328 . S
C437 C438 1.433 . S
C437 H446 0.931 . S
C438 C434 1.323 . S
C438 C437 1.433 . S
C438 H447 0.933 . S
C439 Dy409 2.738 . S
C439 O419 1.255 . S
C439 O420 1.249 . S
C439 C433 1.516 . S
H440 C426 0.930 . S
H441 C427 0.931 . S
H442 C428 0.931 . S
H443 C429 0.933 . S
H444 C435 0.930 . S
H445 C436 0.931 . S
H446 C437 0.931 . S
H447 C438 0.933 . S
C448 C449 1.349 . S
C448 C450 1.327 . S
C448 H473 0.950 . S
C449 C448 1.349 . S
C449 C465 1.349 . S
C450 C448 1.327 . S
C450 C469 1.429 . S
C450 H474 0.950 . S
C451 C468 1.574 . S
C451 C470 1.368 . S
C451 H475 0.949 . S
H452 C456 0.949 . S
C453 C454 1.349 . S
C453 C455 1.327 . S
C453 H476 0.950 . S
C454 C453 1.349 . S
C454 C466 1.349 . S
C455 C453 1.327 . S
C455 C471 1.429 . S
C455 H477 0.950 . S
C456 H452 0.949 . S
C456 C464 1.574 . S
C456 C472 1.368 . S
H457 C465 0.950 . S
H458 C463 0.950 . S
H459 C464 0.949 . S
H460 C466 0.950 . S
H461 C467 0.950 . S
H462 C468 0.949 . S
C463 H458 0.950 . S
C463 C465 1.327 . S
C463 C469 1.429 . S
C464 C456 1.574 . S
C464 H459 0.949 . S
C464 C470 1.368 . S
C465 C449 1.349 . S
C465 H457 0.950 . S
C465 C463 1.327 . S
C466 C454 1.349 . S
C466 H460 0.950 . S
C466 C467 1.327 . S
C467 H461 0.950 . S
C467 C466 1.327 . S
C467 C471 1.429 . S
C468 C451 1.574 . S
C468 H462 0.949 . S
C468 C472 1.368 . S
C469 C450 1.429 . S
C469 C463 1.429 . S
C469 C470 1.523 . S
C470 C451 1.368 . S
C470 C464 1.368 . S
C470 C469 1.523 . S
C471 C455 1.429 . S
C471 C467 1.429 . S
C471 C472 1.523 . S
C472 C456 1.368 . S
C472 C468 1.368 . S
C472 C471 1.523 . S
H473 C448 0.950 . S
H474 C450 0.950 . S
H475 C451 0.949 . S
H476 C453 0.950 . S
H477 C455 0.950 . S
C478 C479 1.349 . S
C478 C480 1.327 . S
C478 H503 0.950 . S
C479 C478 1.349 . S
C479 C495 1.349 . S
C480 C478 1.327 . S
C480 C499 1.429 . S
C480 H504 0.950 . S
C481 C498 1.574 . S
C481 C500 1.368 . S
C481 H505 0.949 . S
H482 C486 0.949 . S
C483 C484 1.349 . S
C483 C485 1.327 . S
C483 H506 0.950 . S
C484 C483 1.349 . S
C484 C496 1.349 . S
C485 C483 1.327 . S
C485 C501 1.429 . S
C485 H507 0.950 . S
C486 H482 0.949 . S
C486 C494 1.574 . S
C486 C502 1.368 . S
H487 C495 0.950 . S
H488 C493 0.950 . S
H489 C494 0.949 . S
H490 C496 0.950 . S
H491 C497 0.950 . S
H492 C498 0.949 . S
C493 H488 0.950 . S
C493 C495 1.327 . S
C493 C499 1.429 . S
C494 C486 1.574 . S
C494 H489 0.949 . S
C494 C500 1.368 . S
C495 C479 1.349 . S
C495 H487 0.950 . S
C495 C493 1.327 . S
C496 C484 1.349 . S
C496 H490 0.950 . S
C496 C497 1.327 . S
C497 H491 0.950 . S
C497 C496 1.327 . S
C497 C501 1.429 . S
C498 C481 1.574 . S
C498 H492 0.949 . S
C498 C502 1.368 . S
C499 C480 1.429 . S
C499 C493 1.429 . S
C499 C500 1.523 . S
C500 C481 1.368 . S
C500 C494 1.368 . S
C500 C499 1.523 . S
C501 C485 1.429 . S
C501 C497 1.429 . S
C501 C502 1.523 . S
C502 C486 1.368 . S
C502 C498 1.368 . S
C502 C501 1.523 . S
H503 C478 0.950 . S
H504 C480 0.950 . S
H505 C481 0.949 . S
H506 C483 0.950 . S
H507 C485 0.950 . S
C508 C509 1.349 . S
C508 C510 1.327 . S
C508 H533 0.950 . S
C509 C508 1.349 . S
C509 C525 1.349 . S
C510 C508 1.327 . S
C510 C529 1.429 . S
C510 H534 0.950 . S
C511 C528 1.574 . S
C511 C530 1.368 . S
C511 H535 0.949 . S
H512 C516 0.949 . S
C513 C514 1.349 . S
C513 C515 1.327 . S
C513 H536 0.950 . S
C514 C513 1.349 . S
C514 C526 1.349 . S
C515 C513 1.327 . S
C515 C531 1.429 . S
C515 H537 0.950 . S
C516 H512 0.949 . S
C516 C524 1.574 . S
C516 C532 1.368 . S
H517 C525 0.950 . S
H518 C523 0.950 . S
H519 C524 0.949 . S
H520 C526 0.950 . S
H521 C527 0.950 . S
H522 C528 0.949 . S
C523 H518 0.950 . S
C523 C525 1.327 . S
C523 C529 1.429 . S
C524 C516 1.574 . S
C524 H519 0.949 . S
C524 C530 1.368 . S
C525 C509 1.349 . S
C525 H517 0.950 . S
C525 C523 1.327 . S
C526 C514 1.349 . S
C526 H520 0.950 . S
C526 C527 1.327 . S
C527 H521 0.950 . S
C527 C526 1.327 . S
C527 C531 1.429 . S
C528 C511 1.574 . S
C528 H522 0.949 . S
C528 C532 1.368 . S
C529 C510 1.429 . S
C529 C523 1.429 . S
C529 C530 1.523 . S
C530 C511 1.368 . S
C530 C524 1.368 . S
C530 C529 1.523 . S
C531 C515 1.429 . S
C531 C527 1.429 . S
C531 C532 1.523 . S
C532 C516 1.368 . S
C532 C528 1.368 . S
C532 C531 1.523 . S
H533 C508 0.950 . S
H534 C510 0.950 . S
H535 C511 0.949 . S
H536 C513 0.950 . S
H537 C515 0.950 . S
C538 C539 1.349 . S
C538 C540 1.327 . S
C538 H563 0.950 . S
C539 C538 1.349 . S
C539 C555 1.349 . S
C540 C538 1.327 . S
C540 C559 1.429 . S
C540 H564 0.950 . S
C541 C558 1.574 . S
C541 C560 1.368 . S
C541 H565 0.949 . S
H542 C546 0.949 . S
C543 C544 1.349 . S
C543 C545 1.327 . S
C543 H566 0.950 . S
C544 C543 1.349 . S
C544 C556 1.349 . S
C545 C543 1.327 . S
C545 C561 1.429 . S
C545 H567 0.950 . S
C546 H542 0.949 . S
C546 C554 1.574 . S
C546 C562 1.368 . S
H547 C555 0.950 . S
H548 C553 0.950 . S
H549 C554 0.949 . S
H550 C556 0.950 . S
H551 C557 0.950 . S
H552 C558 0.949 . S
C553 H548 0.950 . S
C553 C555 1.327 . S
C553 C559 1.429 . S
C554 C546 1.574 . S
C554 H549 0.949 . S
C554 C560 1.368 . S
C555 C539 1.349 . S
C555 H547 0.950 . S
C555 C553 1.327 . S
C556 C544 1.349 . S
C556 H550 0.950 . S
C556 C557 1.327 . S
C557 H551 0.950 . S
C557 C556 1.327 . S
C557 C561 1.429 . S
C558 C541 1.574 . S
C558 H552 0.949 . S
C558 C562 1.368 . S
C559 C540 1.429 . S
C559 C553 1.429 . S
C559 C560 1.523 . S
C560 C541 1.368 . S
C560 C554 1.368 . S
C560 C559 1.523 . S
C561 C545 1.429 . S
C561 C557 1.429 . S
C561 C562 1.523 . S
C562 C546 1.368 . S
C562 C558 1.368 . S
C562 C561 1.523 . S
H563 C538 0.950 . S
H564 C540 0.950 . S
H565 C541 0.949 . S
H566 C543 0.950 . S
H567 C545 0.950 . S
C568 C569 1.349 . S
C568 C570 1.327 . S
C568 H593 0.950 . S
C569 C568 1.349 . S
C569 C585 1.349 . S
C570 C568 1.327 . S
C570 C589 1.429 . S
C570 H594 0.950 . S
C571 C588 1.574 . S
C571 C590 1.368 . S
C571 H595 0.949 . S
H572 C576 0.949 . S
C573 C574 1.349 . S
C573 C575 1.327 . S
C573 H596 0.950 . S
C574 C573 1.349 . S
C574 C586 1.349 . S
C575 C573 1.327 . S
C575 C591 1.429 . S
C575 H597 0.950 . S
C576 H572 0.949 . S
C576 C584 1.574 . S
C576 C592 1.368 . S
H577 C585 0.950 . S
H578 C583 0.950 . S
H579 C584 0.949 . S
H580 C586 0.950 . S
H581 C587 0.950 . S
H582 C588 0.949 . S
C583 H578 0.950 . S
C583 C585 1.327 . S
C583 C589 1.429 . S
C584 C576 1.574 . S
C584 H579 0.949 . S
C584 C590 1.368 . S
C585 C569 1.349 . S
C585 H577 0.950 . S
C585 C583 1.327 . S
C586 C574 1.349 . S
C586 H580 0.950 . S
C586 C587 1.327 . S
C587 H581 0.950 . S
C587 C586 1.327 . S
C587 C591 1.429 . S
C588 C571 1.574 . S
C588 H582 0.949 . S
C588 C592 1.368 . S
C589 C570 1.429 . S
C589 C583 1.429 . S
C589 C590 1.523 . S
C590 C571 1.368 . S
C590 C584 1.368 . S
C590 C589 1.523 . S
C591 C575 1.429 . S
C591 C587 1.429 . S
C591 C592 1.523 . S
C592 C576 1.368 . S
C592 C588 1.368 . S
C592 C591 1.523 . S
H593 C568 0.950 . S
H594 C570 0.950 . S
H595 C571 0.949 . S
H596 C573 0.950 . S
H597 C575 0.950 . S
C598 C599 1.349 . S
C598 C600 1.327 . S
C598 H623 0.950 . S
C599 C598 1.349 . S
C599 C615 1.349 . S
C600 C598 1.327 . S
C600 C619 1.429 . S
C600 H624 0.950 . S
C601 C618 1.574 . S
C601 C620 1.368 . S
C601 H625 0.949 . S
H602 C606 0.949 . S
C603 C604 1.349 . S
C603 C605 1.327 . S
C603 H626 0.950 . S
C604 C603 1.349 . S
C604 C616 1.349 . S
C605 C603 1.327 . S
C605 C621 1.429 . S
C605 H627 0.950 . S
C606 H602 0.949 . S
C606 C614 1.574 . S
C606 C622 1.368 . S
H607 C615 0.950 . S
H608 C613 0.950 . S
H609 C614 0.949 . S
H610 C616 0.950 . S
H611 C617 0.950 . S
H612 C618 0.949 . S
C613 H608 0.950 . S
C613 C615 1.327 . S
C613 C619 1.429 . S
C614 C606 1.574 . S
C614 H609 0.949 . S
C614 C620 1.368 . S
C615 C599 1.349 . S
C615 H607 0.950 . S
C615 C613 1.327 . S
C616 C604 1.349 . S
C616 H610 0.950 . S
C616 C617 1.327 . S
C617 H611 0.950 . S
C617 C616 1.327 . S
C617 C621 1.429 . S
C618 C601 1.574 . S
C618 H612 0.949 . S
C618 C622 1.368 . S
C619 C600 1.429 . S
C619 C613 1.429 . S
C619 C620 1.523 . S
C620 C601 1.368 . S
C620 C614 1.368 . S
C620 C619 1.523 . S
C621 C605 1.429 . S
C621 C617 1.429 . S
C621 C622 1.523 . S
C622 C606 1.368 . S
C622 C618 1.368 . S
C622 C621 1.523 . S
H623 C598 0.950 . S
H624 C600 0.950 . S
H625 C601 0.949 . S
H626 C603 0.950 . S
H627 C605 0.950 . S
C628 C629 1.349 . S
C628 C630 1.327 . S
C628 H653 0.950 . S
C629 C628 1.349 . S
C629 C645 1.349 . S
C630 C628 1.327 . S
C630 C649 1.429 . S
C630 H654 0.950 . S
C631 C648 1.574 . S
C631 C650 1.368 . S
C631 H655 0.949 . S
H632 C636 0.949 . S
C633 C634 1.349 . S
C633 C635 1.327 . S
C633 H656 0.950 . S
C634 C633 1.349 . S
C634 C646 1.349 . S
C635 C633 1.327 . S
C635 C651 1.429 . S
C635 H657 0.950 . S
C636 H632 0.949 . S
C636 C644 1.574 . S
C636 C652 1.368 . S
H637 C645 0.950 . S
H638 C643 0.950 . S
H639 C644 0.949 . S
H640 C646 0.950 . S
H641 C647 0.950 . S
H642 C648 0.949 . S
C643 H638 0.950 . S
C643 C645 1.327 . S
C643 C649 1.429 . S
C644 C636 1.574 . S
C644 H639 0.949 . S
C644 C650 1.368 . S
C645 C629 1.349 . S
C645 H637 0.950 . S
C645 C643 1.327 . S
C646 C634 1.349 . S
C646 H640 0.950 . S
C646 C647 1.327 . S
C647 H641 0.950 . S
C647 C646 1.327 . S
C647 C651 1.429 . S
C648 C631 1.574 . S
C648 H642 0.949 . S
C648 C652 1.368 . S
C649 C630 1.429 . S
C649 C643 1.429 . S
C649 C650 1.523 . S
C650 C631 1.368 . S
C650 C644 1.368 . S
C650 C649 1.523 . S
C651 C635 1.429 . S
C651 C647 1.429 . S
C651 C652 1.523 . S
C652 C636 1.368 . S
C652 C648 1.368 . S
C652 C651 1.523 . S
H653 C628 0.950 . S
H654 C630 0.950 . S
H655 C631 0.949 . S
H656 C633 0.950 . S
H657 C635 0.950 . S
C658 C659 1.349 . S
C658 C660 1.327 . S
C658 H683 0.950 . S
C659 C658 1.349 . S
C659 C675 1.349 . S
C660 C658 1.327 . S
C660 C679 1.429 . S
C660 H684 0.950 . S
C661 C678 1.574 . S
C661 C680 1.368 . S
C661 H685 0.949 . S
H662 C666 0.949 . S
C663 C664 1.349 . S
C663 C665 1.327 . S
C663 H686 0.950 . S
C664 C663 1.349 . S
C664 C676 1.349 . S
C665 C663 1.327 . S
C665 C681 1.429 . S
C665 H687 0.950 . S
C666 H662 0.949 . S
C666 C674 1.574 . S
C666 C682 1.368 . S
H667 C675 0.950 . S
H668 C673 0.950 . S
H669 C674 0.949 . S
H670 C676 0.950 . S
H671 C677 0.950 . S
H672 C678 0.949 . S
C673 H668 0.950 . S
C673 C675 1.327 . S
C673 C679 1.429 . S
C674 C666 1.574 . S
C674 H669 0.949 . S
C674 C680 1.368 . S
C675 C659 1.349 . S
C675 H667 0.950 . S
C675 C673 1.327 . S
C676 C664 1.349 . S
C676 H670 0.950 . S
C676 C677 1.327 . S
C677 H671 0.950 . S
C677 C676 1.327 . S
C677 C681 1.429 . S
C678 C661 1.574 . S
C678 H672 0.949 . S
C678 C682 1.368 . S
C679 C660 1.429 . S
C679 C673 1.429 . S
C679 C680 1.523 . S
C680 C661 1.368 . S
C680 C674 1.368 . S
C680 C679 1.523 . S
C681 C665 1.429 . S
C681 C677 1.429 . S
C681 C682 1.523 . S
C682 C666 1.368 . S
C682 C678 1.368 . S
C682 C681 1.523 . S
H683 C658 0.950 . S
H684 C660 0.950 . S
H685 C661 0.949 . S
H686 C663 0.950 . S
H687 C665 0.950 . S
C688 C689 1.349 . S
C688 C690 1.327 . S
C688 H713 0.950 . S
C689 C688 1.349 . S
C689 C705 1.349 . S
C690 C688 1.327 . S
C690 C709 1.429 . S
C690 H714 0.950 . S
C691 C708 1.574 . S
C691 C710 1.368 . S
C691 H715 0.949 . S
H692 C696 0.949 . S
C693 C694 1.349 . S
C693 C695 1.327 . S
C693 H716 0.950 . S
C694 C693 1.349 . S
C694 C706 1.349 . S
C695 C693 1.327 . S
C695 C711 1.429 . S
C695 H717 0.950 . S
C696 H692 0.949 . S
C696 C704 1.574 . S
C696 C712 1.368 . S
H697 C705 0.950 . S
H698 C703 0.950 . S
H699 C704 0.949 . S
H700 C706 0.950 . S
H701 C707 0.950 . S
H702 C708 0.949 . S
C703 H698 0.950 . S
C703 C705 1.327 . S
C703 C709 1.429 . S
C704 C696 1.574 . S
C704 H699 0.949 . S
C704 C710 1.368 . S
C705 C689 1.349 . S
C705 H697 0.950 . S
C705 C703 1.327 . S
C706 C694 1.349 . S
C706 H700 0.950 . S
C706 C707 1.327 . S
C707 H701 0.950 . S
C707 C706 1.327 . S
C707 C711 1.429 . S
C708 C691 1.574 . S
C708 H702 0.949 . S
C708 C712 1.368 . S
C709 C690 1.429 . S
C709 C703 1.429 . S
C709 C710 1.523 . S
C710 C691 1.368 . S
C710 C704 1.368 . S
C710 C709 1.523 . S
C711 C695 1.429 . S
C711 C707 1.429 . S
C711 C712 1.523 . S
C712 C696 1.368 . S
C712 C708 1.368 . S
C712 C711 1.523 . S
H713 C688 0.950 . S
H714 C690 0.950 . S
H715 C691 0.949 . S
H716 C693 0.950 . S
H717 C695 0.950 . S
C718 C719 1.349 . S
C718 C720 1.327 . S
C718 H743 0.950 . S
C719 C718 1.349 . S
C719 C735 1.349 . S
C720 C718 1.327 . S
C720 C739 1.429 . S
C720 H744 0.950 . S
C721 C738 1.574 . S
C721 C740 1.368 . S
C721 H745 0.949 . S
H722 C726 0.949 . S
C723 C724 1.349 . S
C723 C725 1.327 . S
C723 H746 0.950 . S
C724 C723 1.349 . S
C724 C736 1.349 . S
C725 C723 1.327 . S
C725 C741 1.429 . S
C725 H747 0.950 . S
C726 H722 0.949 . S
C726 C734 1.574 . S
C726 C742 1.368 . S
H727 C735 0.950 . S
H728 C733 0.950 . S
H729 C734 0.949 . S
H730 C736 0.950 . S
H731 C737 0.950 . S
H732 C738 0.949 . S
C733 H728 0.950 . S
C733 C735 1.327 . S
C733 C739 1.429 . S
C734 C726 1.574 . S
C734 H729 0.949 . S
C734 C740 1.368 . S
C735 C719 1.349 . S
C735 H727 0.950 . S
C735 C733 1.327 . S
C736 C724 1.349 . S
C736 H730 0.950 . S
C736 C737 1.327 . S
C737 H731 0.950 . S
C737 C736 1.327 . S
C737 C741 1.429 . S
C738 C721 1.574 . S
C738 H732 0.949 . S
C738 C742 1.368 . S
C739 C720 1.429 . S
C739 C733 1.429 . S
C739 C740 1.523 . S
C740 C721 1.368 . S
C740 C734 1.368 . S
C740 C739 1.523 . S
C741 C725 1.429 . S
C741 C737 1.429 . S
C741 C742 1.523 . S
C742 C726 1.368 . S
C742 C738 1.368 . S
C742 C741 1.523 . S
H743 C718 0.950 . S
H744 C720 0.950 . S
H745 C721 0.949 . S
H746 C723 0.950 . S
H747 C725 0.950 . S
C748 C749 1.349 . S
C748 C750 1.327 . S
C748 H773 0.950 . S
C749 C748 1.349 . S
C749 C765 1.349 . S
C750 C748 1.327 . S
C750 C769 1.429 . S
C750 H774 0.950 . S
C751 C768 1.574 . S
C751 C770 1.368 . S
C751 H775 0.949 . S
H752 C756 0.949 . S
C753 C754 1.349 . S
C753 C755 1.327 . S
C753 H776 0.950 . S
C754 C753 1.349 . S
C754 C766 1.349 . S
C755 C753 1.327 . S
C755 C771 1.429 . S
C755 H777 0.950 . S
C756 H752 0.949 . S
C756 C764 1.574 . S
C756 C772 1.368 . S
H757 C765 0.950 . S
H758 C763 0.950 . S
H759 C764 0.949 . S
H760 C766 0.950 . S
H761 C767 0.950 . S
H762 C768 0.949 . S
C763 H758 0.950 . S
C763 C765 1.327 . S
C763 C769 1.429 . S
C764 C756 1.574 . S
C764 H759 0.949 . S
C764 C770 1.368 . S
C765 C749 1.349 . S
C765 H757 0.950 . S
C765 C763 1.327 . S
C766 C754 1.349 . S
C766 H760 0.950 . S
C766 C767 1.327 . S
C767 H761 0.950 . S
C767 C766 1.327 . S
C767 C771 1.429 . S
C768 C751 1.574 . S
C768 H762 0.949 . S
C768 C772 1.368 . S
C769 C750 1.429 . S
C769 C763 1.429 . S
C769 C770 1.523 . S
C770 C751 1.368 . S
C770 C764 1.368 . S
C770 C769 1.523 . S
C771 C755 1.429 . S
C771 C767 1.429 . S
C771 C772 1.523 . S
C772 C756 1.368 . S
C772 C768 1.368 . S
C772 C771 1.523 . S
H773 C748 0.950 . S
H774 C750 0.950 . S
H775 C751 0.949 . S
H776 C753 0.950 . S
H777 C755 0.950 . S
C778 C779 1.349 . S
C778 C780 1.327 . S
C778 H803 0.950 . S
C779 C778 1.349 . S
C779 C795 1.349 . S
C780 C778 1.327 . S
C780 C799 1.429 . S
C780 H804 0.950 . S
C781 C798 1.574 . S
C781 C800 1.368 . S
C781 H805 0.949 . S
H782 C786 0.949 . S
C783 C784 1.349 . S
C783 C785 1.327 . S
C783 H806 0.950 . S
C784 C783 1.349 . S
C784 C796 1.349 . S
C785 C783 1.327 . S
C785 C801 1.429 . S
C785 H807 0.950 . S
C786 H782 0.949 . S
C786 C794 1.574 . S
C786 C802 1.368 . S
H787 C795 0.950 . S
H788 C793 0.950 . S
H789 C794 0.949 . S
H790 C796 0.950 . S
H791 C797 0.950 . S
H792 C798 0.949 . S
C793 H788 0.950 . S
C793 C795 1.327 . S
C793 C799 1.429 . S
C794 C786 1.574 . S
C794 H789 0.949 . S
C794 C800 1.368 . S
C795 C779 1.349 . S
C795 H787 0.950 . S
C795 C793 1.327 . S
C796 C784 1.349 . S
C796 H790 0.950 . S
C796 C797 1.327 . S
C797 H791 0.950 . S
C797 C796 1.327 . S
C797 C801 1.429 . S
C798 C781 1.574 . S
C798 H792 0.949 . S
C798 C802 1.368 . S
C799 C780 1.429 . S
C799 C793 1.429 . S
C799 C800 1.523 . S
C800 C781 1.368 . S
C800 C794 1.368 . S
C800 C799 1.523 . S
C801 C785 1.429 . S
C801 C797 1.429 . S
C801 C802 1.523 . S
C802 C786 1.368 . S
C802 C798 1.368 . S
C802 C801 1.523 . S
H803 C778 0.950 . S
H804 C780 0.950 . S
H805 C781 0.949 . S
H806 C783 0.950 . S
H807 C785 0.950 . S
C808 C809 1.349 . S
C808 C810 1.327 . S
C808 H833 0.950 . S
C809 C808 1.349 . S
C809 C825 1.349 . S
C810 C808 1.327 . S
C810 C829 1.429 . S
C810 H834 0.950 . S
C811 C828 1.574 . S
C811 C830 1.368 . S
C811 H835 0.949 . S
H812 C816 0.949 . S
C813 C814 1.349 . S
C813 C815 1.327 . S
C813 H836 0.950 . S
C814 C813 1.349 . S
C814 C826 1.349 . S
C815 C813 1.327 . S
C815 C831 1.429 . S
C815 H837 0.950 . S
C816 H812 0.949 . S
C816 C824 1.574 . S
C816 C832 1.368 . S
H817 C825 0.950 . S
H818 C823 0.950 . S
H819 C824 0.949 . S
H820 C826 0.950 . S
H821 C827 0.950 . S
H822 C828 0.949 . S
C823 H818 0.950 . S
C823 C825 1.327 . S
C823 C829 1.429 . S
C824 C816 1.574 . S
C824 H819 0.949 . S
C824 C830 1.368 . S
C825 C809 1.349 . S
C825 H817 0.950 . S
C825 C823 1.327 . S
C826 C814 1.349 . S
C826 H820 0.950 . S
C826 C827 1.327 . S
C827 H821 0.950 . S
C827 C826 1.327 . S
C827 C831 1.429 . S
C828 C811 1.574 . S
C828 H822 0.949 . S
C828 C832 1.368 . S
C829 C810 1.429 . S
C829 C823 1.429 . S
C829 C830 1.523 . S
C830 C811 1.368 . S
C830 C824 1.368 . S
C830 C829 1.523 . S
C831 C815 1.429 . S
C831 C827 1.429 . S
C831 C832 1.523 . S
C832 C816 1.368 . S
C832 C828 1.368 . S
C832 C831 1.523 . S
H833 C808 0.950 . S
H834 C810 0.950 . S
H835 C811 0.949 . S
H836 C813 0.950 . S
H837 C815 0.950 . S
C838 C839 1.349 . S
C838 C840 1.327 . S
C838 H863 0.950 . S
C839 C838 1.349 . S
C839 C855 1.349 . S
C840 C838 1.327 . S
C840 C859 1.429 . S
C840 H864 0.950 . S
C841 C858 1.574 . S
C841 C860 1.368 . S
C841 H865 0.949 . S
H842 C846 0.949 . S
C843 C844 1.349 . S
C843 C845 1.327 . S
C843 H866 0.950 . S
C844 C843 1.349 . S
C844 C856 1.349 . S
C845 C843 1.327 . S
C845 C861 1.429 . S
C845 H867 0.950 . S
C846 H842 0.949 . S
C846 C854 1.574 . S
C846 C862 1.368 . S
H847 C855 0.950 . S
H848 C853 0.950 . S
H849 C854 0.949 . S
H850 C856 0.950 . S
H851 C857 0.950 . S
H852 C858 0.949 . S
C853 H848 0.950 . S
C853 C855 1.327 . S
C853 C859 1.429 . S
C854 C846 1.574 . S
C854 H849 0.949 . S
C854 C860 1.368 . S
C855 C839 1.349 . S
C855 H847 0.950 . S
C855 C853 1.327 . S
C856 C844 1.349 . S
C856 H850 0.950 . S
C856 C857 1.327 . S
C857 H851 0.950 . S
C857 C856 1.327 . S
C857 C861 1.429 . S
C858 C841 1.574 . S
C858 H852 0.949 . S
C858 C862 1.368 . S
C859 C840 1.429 . S
C859 C853 1.429 . S
C859 C860 1.523 . S
C860 C841 1.368 . S
C860 C854 1.368 . S
C860 C859 1.523 . S
C861 C845 1.429 . S
C861 C857 1.429 . S
C861 C862 1.523 . S
C862 C846 1.368 . S
C862 C858 1.368 . S
C862 C861 1.523 . S
H863 C838 0.950 . S
H864 C840 0.950 . S
H865 C841 0.949 . S
H866 C843 0.950 . S
H867 C845 0.950 . S
C868 C869 1.349 . S
C868 C870 1.327 . S
C868 H893 0.950 . S
C869 C868 1.349 . S
C869 C885 1.349 . S
C870 C868 1.327 . S
C870 C889 1.429 . S
C870 H894 0.950 . S
C871 C888 1.574 . S
C871 C890 1.368 . S
C871 H895 0.949 . S
H872 C876 0.949 . S
C873 C874 1.349 . S
C873 C875 1.327 . S
C873 H896 0.950 . S
C874 C873 1.349 . S
C874 C886 1.349 . S
C875 C873 1.327 . S
C875 C891 1.429 . S
C875 H897 0.950 . S
C876 H872 0.949 . S
C876 C884 1.574 . S
C876 C892 1.368 . S
H877 C885 0.950 . S
H878 C883 0.950 . S
H879 C884 0.949 . S
H880 C886 0.950 . S
H881 C887 0.950 . S
H882 C888 0.949 . S
C883 H878 0.950 . S
C883 C885 1.327 . S
C883 C889 1.429 . S
C884 C876 1.574 . S
C884 H879 0.949 . S
C884 C890 1.368 . S
C885 C869 1.349 . S
C885 H877 0.950 . S
C885 C883 1.327 . S
C886 C874 1.349 . S
C886 H880 0.950 . S
C886 C887 1.327 . S
C887 H881 0.950 . S
C887 C886 1.327 . S
C887 C891 1.429 . S
C888 C871 1.574 . S
C888 H882 0.949 . S
C888 C892 1.368 . S
C889 C870 1.429 . S
C889 C883 1.429 . S
C889 C890 1.523 . S
C890 C871 1.368 . S
C890 C884 1.368 . S
C890 C889 1.523 . S
C891 C875 1.429 . S
C891 C887 1.429 . S
C891 C892 1.523 . S
C892 C876 1.368 . S
C892 C888 1.368 . S
C892 C891 1.523 . S
H893 C868 0.950 . S
H894 C870 0.950 . S
H895 C871 0.949 . S
H896 C873 0.950 . S
H897 C875 0.950 . S
C898 C899 1.349 . S
C898 C900 1.327 . S
C898 H923 0.950 . S
C899 C898 1.349 . S
C899 C915 1.349 . S
C900 C898 1.327 . S
C900 C919 1.429 . S
C900 H924 0.950 . S
C901 C918 1.574 . S
C901 C920 1.368 . S
C901 H925 0.949 . S
H902 C906 0.949 . S
C903 C904 1.349 . S
C903 C905 1.327 . S
C903 H926 0.950 . S
C904 C903 1.349 . S
C904 C916 1.349 . S
C905 C903 1.327 . S
C905 C921 1.429 . S
C905 H927 0.950 . S
C906 H902 0.949 . S
C906 C914 1.574 . S
C906 C922 1.368 . S
H907 C915 0.950 . S
H908 C913 0.950 . S
H909 C914 0.949 . S
H910 C916 0.950 . S
H911 C917 0.950 . S
H912 C918 0.949 . S
C913 H908 0.950 . S
C913 C915 1.327 . S
C913 C919 1.429 . S
C914 C906 1.574 . S
C914 H909 0.949 . S
C914 C920 1.368 . S
C915 C899 1.349 . S
C915 H907 0.950 . S
C915 C913 1.327 . S
C916 C904 1.349 . S
C916 H910 0.950 . S
C916 C917 1.327 . S
C917 H911 0.950 . S
C917 C916 1.327 . S
C917 C921 1.429 . S
C918 C901 1.574 . S
C918 H912 0.949 . S
C918 C922 1.368 . S
C919 C900 1.429 . S
C919 C913 1.429 . S
C919 C920 1.523 . S
C920 C901 1.368 . S
C920 C914 1.368 . S
C920 C919 1.523 . S
C921 C905 1.429 . S
C921 C917 1.429 . S
C921 C922 1.523 . S
C922 C906 1.368 . S
C922 C918 1.368 . S
C922 C921 1.523 . S
H923 C898 0.950 . S
H924 C900 0.950 . S
H925 C901 0.949 . S
H926 C903 0.950 . S
H927 C905 0.950 . S
C928 C929 1.349 . S
C928 C930 1.327 . S
C928 H953 0.950 . S
C929 C928 1.349 . S
C929 C945 1.349 . S
C930 C928 1.327 . S
C930 C949 1.429 . S
C930 H954 0.950 . S
C931 C948 1.574 . S
C931 C950 1.368 . S
C931 H955 0.949 . S
H932 C936 0.949 . S
C933 C934 1.349 . S
C933 C935 1.327 . S
C933 H956 0.950 . S
C934 C933 1.349 . S
C934 C946 1.349 . S
C935 C933 1.327 . S
C935 C951 1.429 . S
C935 H957 0.950 . S
C936 H932 0.949 . S
C936 C944 1.574 . S
C936 C952 1.368 . S
H937 C945 0.950 . S
H938 C943 0.950 . S
H939 C944 0.949 . S
H940 C946 0.950 . S
H941 C947 0.950 . S
H942 C948 0.949 . S
C943 H938 0.950 . S
C943 C945 1.327 . S
C943 C949 1.429 . S
C944 C936 1.574 . S
C944 H939 0.949 . S
C944 C950 1.368 . S
C945 C929 1.349 . S
C945 H937 0.950 . S
C945 C943 1.327 . S
C946 C934 1.349 . S
C946 H940 0.950 . S
C946 C947 1.327 . S
C947 H941 0.950 . S
C947 C946 1.327 . S
C947 C951 1.429 . S
C948 C931 1.574 . S
C948 H942 0.949 . S
C948 C952 1.368 . S
C949 C930 1.429 . S
C949 C943 1.429 . S
C949 C950 1.523 . S
C950 C931 1.368 . S
C950 C944 1.368 . S
C950 C949 1.523 . S
C951 C935 1.429 . S
C951 C947 1.429 . S
C951 C952 1.523 . S
C952 C936 1.368 . S
C952 C948 1.368 . S
C952 C951 1.523 . S
H953 C928 0.950 . S
H954 C930 0.950 . S
H955 C931 0.949 . S
H956 C933 0.950 . S
H957 C935 0.950 . S
C958 C959 1.349 . S
C958 C960 1.327 . S
C958 H983 0.950 . S
C959 C958 1.349 . S
C959 C975 1.349 . S
C960 C958 1.327 . S
C960 C979 1.429 . S
C960 H984 0.950 . S
C961 C978 1.574 . S
C961 C980 1.368 . S
C961 H985 0.949 . S
H962 C966 0.949 . S
C963 C964 1.349 . S
C963 C965 1.327 . S
C963 H986 0.950 . S
C964 C963 1.349 . S
C964 C976 1.349 . S
C965 C963 1.327 . S
C965 C981 1.429 . S
C965 H987 0.950 . S
C966 H962 0.949 . S
C966 C974 1.574 . S
C966 C982 1.368 . S
H967 C975 0.950 . S
H968 C973 0.950 . S
H969 C974 0.949 . S
H970 C976 0.950 1_455 S
H971 C977 0.950 . S
H972 C978 0.949 . S
C973 H968 0.950 . S
C973 C975 1.327 . S
C973 C979 1.429 . S
C974 C966 1.574 . S
C974 H969 0.949 . S
C974 C980 1.368 . S
C975 C959 1.349 . S
C975 H967 0.950 . S
C975 C973 1.327 . S
C976 C964 1.349 . S
C976 H970 0.950 1_655 S
C976 C977 1.327 . S
C977 H971 0.950 . S
C977 C976 1.327 . S
C977 C981 1.429 . S
C978 C961 1.574 . S
C978 H972 0.949 . S
C978 C982 1.368 . S
C979 C960 1.429 . S
C979 C973 1.429 . S
C979 C980 1.523 . S
C980 C961 1.368 . S
C980 C974 1.368 . S
C980 C979 1.523 . S
C981 C965 1.429 . S
C981 C977 1.429 . S
C981 C982 1.523 . S
C982 C966 1.368 . S
C982 C978 1.368 . S
C982 C981 1.523 . S
H983 C958 0.950 . S
H984 C960 0.950 . S
H985 C961 0.949 . S
H986 C963 0.950 . S
H987 C965 0.950 . S
C988 C989 1.349 . S
C988 C990 1.327 . S
C988 H1013 0.950 . S
C989 C988 1.349 . S
C989 C1005 1.349 . S
C990 C988 1.327 . S
C990 C1009 1.429 . S
C990 H1014 0.950 . S
C991 C1008 1.574 . S
C991 C1010 1.368 . S
C991 H1015 0.949 . S
H992 C996 0.949 . S
C993 C994 1.349 . S
C993 C995 1.327 . S
C993 H1016 0.950 . S
C994 C993 1.349 . S
C994 C1006 1.349 . S
C995 C993 1.327 . S
C995 C1011 1.429 . S
C995 H1017 0.950 . S
C996 H992 0.949 . S
C996 C1004 1.574 . S
C996 C1012 1.368 . S
H997 C1005 0.950 . S
H998 C1003 0.950 . S
H999 C1004 0.949 . S
H1000 C1006 0.950 . S
H1001 C1007 0.950 . S
H1002 C1008 0.949 . S
C1003 H998 0.950 . S
C1003 C1005 1.327 . S
C1003 C1009 1.429 . S
C1004 C996 1.574 . S
C1004 H999 0.949 . S
C1004 C1010 1.368 . S
C1005 C989 1.349 . S
C1005 H997 0.950 . S
C1005 C1003 1.327 . S
C1006 C994 1.349 . S
C1006 H1000 0.950 . S
C1006 C1007 1.327 . S
C1007 H1001 0.950 . S
C1007 C1006 1.327 . S
C1007 C1011 1.429 . S
C1008 C991 1.574 . S
C1008 H1002 0.949 . S
C1008 C1012 1.368 . S
C1009 C990 1.429 . S
C1009 C1003 1.429 . S
C1009 C1010 1.523 . S
C1010 C991 1.368 . S
C1010 C1004 1.368 . S
C1010 C1009 1.523 . S
C1011 C995 1.429 . S
C1011 C1007 1.429 . S
C1011 C1012 1.523 . S
C1012 C996 1.368 . S
C1012 C1008 1.368 . S
C1012 C1011 1.523 . S
H1013 C988 0.950 . S
H1014 C990 0.950 . S
H1015 C991 0.949 . S
H1016 C993 0.950 . S
H1017 C995 0.950 . S
C1018 C1019 1.349 . S
C1018 C1020 1.327 . S
C1018 H1043 0.950 . S
C1019 C1018 1.349 . S
C1019 C1035 1.349 . S
C1020 C1018 1.327 . S
C1020 C1039 1.429 . S
C1020 H1044 0.950 . S
C1021 C1038 1.574 . S
C1021 C1040 1.368 . S
C1021 H1045 0.949 . S
H1022 C1026 0.949 . S
C1023 C1024 1.349 . S
C1023 C1025 1.327 . S
C1023 H1046 0.950 . S
C1024 C1023 1.349 . S
C1024 C1036 1.349 . S
C1025 C1023 1.327 . S
C1025 C1041 1.429 . S
C1025 H1047 0.950 . S
C1026 H1022 0.949 . S
C1026 C1034 1.574 . S
C1026 C1042 1.368 . S
H1027 C1035 0.950 . S
H1028 C1033 0.950 . S
H1029 C1034 0.949 . S
H1030 C1036 0.950 . S
H1031 C1037 0.950 . S
H1032 C1038 0.949 . S
C1033 H1028 0.950 . S
C1033 C1035 1.327 . S
C1033 C1039 1.429 . S
C1034 C1026 1.574 . S
C1034 H1029 0.949 . S
C1034 C1040 1.368 . S
C1035 C1019 1.349 . S
C1035 H1027 0.950 . S
C1035 C1033 1.327 . S
C1036 C1024 1.349 . S
C1036 H1030 0.950 . S
C1036 C1037 1.327 . S
C1037 H1031 0.950 . S
C1037 C1036 1.327 . S
C1037 C1041 1.429 . S
C1038 C1021 1.574 . S
C1038 H1032 0.949 . S
C1038 C1042 1.368 . S
C1039 C1020 1.429 . S
C1039 C1033 1.429 . S
C1039 C1040 1.523 . S
C1040 C1021 1.368 . S
C1040 C1034 1.368 . S
C1040 C1039 1.523 . S
C1041 C1025 1.429 . S
C1041 C1037 1.429 . S
C1041 C1042 1.523 . S
C1042 C1026 1.368 . S
C1042 C1038 1.368 . S
C1042 C1041 1.523 . S
H1043 C1018 0.950 . S
H1044 C1020 0.950 . S
H1045 C1021 0.949 . S
H1046 C1023 0.950 . S
H1047 C1025 0.950 . S
C1048 C1049 1.349 . S
C1048 C1050 1.327 . S
C1048 H1073 0.950 . S
C1049 C1048 1.349 . S
C1049 C1065 1.349 . S
C1050 C1048 1.327 . S
C1050 C1069 1.429 . S
C1050 H1074 0.950 . S
C1051 C1068 1.574 . S
C1051 C1070 1.368 . S
C1051 H1075 0.949 . S
H1052 C1056 0.949 . S
C1053 C1054 1.349 . S
C1053 C1055 1.327 . S
C1053 H1076 0.950 . S
C1054 C1053 1.349 . S
C1054 C1066 1.349 . S
C1055 C1053 1.327 . S
C1055 C1071 1.429 . S
C1055 H1077 0.950 . S
C1056 H1052 0.949 . S
C1056 C1064 1.574 . S
C1056 C1072 1.368 . S
H1057 C1065 0.950 . S
H1058 C1063 0.950 . S
H1059 C1064 0.949 . S
H1060 C1066 0.950 . S
H1061 C1067 0.950 . S
H1062 C1068 0.949 . S
C1063 H1058 0.950 . S
C1063 C1065 1.327 . S
C1063 C1069 1.429 . S
C1064 C1056 1.574 . S
C1064 H1059 0.949 . S
C1064 C1070 1.368 . S
C1065 C1049 1.349 . S
C1065 H1057 0.950 . S
C1065 C1063 1.327 . S
C1066 C1054 1.349 . S
C1066 H1060 0.950 . S
C1066 C1067 1.327 . S
C1067 H1061 0.950 . S
C1067 C1066 1.327 . S
C1067 C1071 1.429 . S
C1068 C1051 1.574 . S
C1068 H1062 0.949 . S
C1068 C1072 1.368 . S
C1069 C1050 1.429 . S
C1069 C1063 1.429 . S
C1069 C1070 1.523 . S
C1070 C1051 1.368 . S
C1070 C1064 1.368 . S
C1070 C1069 1.523 . S
C1071 C1055 1.429 . S
C1071 C1067 1.429 . S
C1071 C1072 1.523 . S
C1072 C1056 1.368 . S
C1072 C1068 1.368 . S
C1072 C1071 1.523 . S
H1073 C1048 0.950 . S
H1074 C1050 0.950 . S
H1075 C1051 0.949 . S
H1076 C1053 0.950 . S
H1077 C1055 0.950 . S
C1078 C1079 1.349 . S
C1078 C1080 1.327 . S
C1078 H1103 0.950 . S
C1079 C1078 1.349 . S
C1079 C1095 1.349 . S
C1080 C1078 1.327 . S
C1080 C1099 1.429 . S
C1080 H1104 0.950 . S
C1081 C1098 1.574 . S
C1081 C1100 1.368 . S
C1081 H1105 0.949 . S
H1082 C1086 0.949 . S
C1083 C1084 1.349 . S
C1083 C1085 1.327 . S
C1083 H1106 0.950 . S
C1084 C1083 1.349 . S
C1084 C1096 1.349 . S
C1085 C1083 1.327 . S
C1085 C1101 1.429 . S
C1085 H1107 0.950 . S
C1086 H1082 0.949 . S
C1086 C1094 1.574 . S
C1086 C1102 1.368 . S
H1087 C1095 0.950 . S
H1088 C1093 0.950 . S
H1089 C1094 0.949 . S
H1090 C1096 0.950 . S
H1091 C1097 0.950 . S
H1092 C1098 0.949 . S
C1093 H1088 0.950 . S
C1093 C1095 1.327 . S
C1093 C1099 1.429 . S
C1094 C1086 1.574 . S
C1094 H1089 0.949 . S
C1094 C1100 1.368 . S
C1095 C1079 1.349 . S
C1095 H1087 0.950 . S
C1095 C1093 1.327 . S
C1096 C1084 1.349 . S
C1096 H1090 0.950 . S
C1096 C1097 1.327 . S
C1097 H1091 0.950 . S
C1097 C1096 1.327 . S
C1097 C1101 1.429 . S
C1098 C1081 1.574 . S
C1098 H1092 0.949 . S
C1098 C1102 1.368 . S
C1099 C1080 1.429 . S
C1099 C1093 1.429 . S
C1099 C1100 1.523 . S
C1100 C1081 1.368 . S
C1100 C1094 1.368 . S
C1100 C1099 1.523 . S
C1101 C1085 1.429 . S
C1101 C1097 1.429 . S
C1101 C1102 1.523 . S
C1102 C1086 1.368 . S
C1102 C1098 1.368 . S
C1102 C1101 1.523 . S
H1103 C1078 0.950 . S
H1104 C1080 0.950 . S
H1105 C1081 0.949 . S
H1106 C1083 0.950 . S
H1107 C1085 0.950 . S
C1108 C1109 1.349 . S
C1108 C1110 1.327 . S
C1108 H1133 0.950 . S
C1109 C1108 1.349 . S
C1109 C1125 1.349 . S
C1110 C1108 1.327 . S
C1110 C1129 1.429 . S
C1110 H1134 0.950 . S
C1111 C1128 1.574 . S
C1111 C1130 1.368 . S
C1111 H1135 0.949 . S
H1112 C1116 0.949 . S
C1113 C1114 1.349 . S
C1113 C1115 1.327 . S
C1113 H1136 0.950 . S
C1114 C1113 1.349 . S
C1114 C1126 1.349 . S
C1115 C1113 1.327 . S
C1115 C1131 1.429 . S
C1115 H1137 0.950 . S
C1116 H1112 0.949 . S
C1116 C1124 1.574 . S
C1116 C1132 1.368 . S
H1117 C1125 0.950 . S
H1118 C1123 0.950 . S
H1119 C1124 0.949 . S
H1120 C1126 0.950 . S
H1121 C1127 0.950 . S
H1122 C1128 0.949 . S
C1123 H1118 0.950 . S
C1123 C1125 1.327 . S
C1123 C1129 1.429 . S
C1124 C1116 1.574 . S
C1124 H1119 0.949 . S
C1124 C1130 1.368 . S
C1125 C1109 1.349 . S
C1125 H1117 0.950 . S
C1125 C1123 1.327 . S
C1126 C1114 1.349 . S
C1126 H1120 0.950 . S
C1126 C1127 1.327 . S
C1127 H1121 0.950 . S
C1127 C1126 1.327 . S
C1127 C1131 1.429 . S
C1128 C1111 1.574 . S
C1128 H1122 0.949 . S
C1128 C1132 1.368 . S
C1129 C1110 1.429 . S
C1129 C1123 1.429 . S
C1129 C1130 1.523 . S
C1130 C1111 1.368 . S
C1130 C1124 1.368 . S
C1130 C1129 1.523 . S
C1131 C1115 1.429 . S
C1131 C1127 1.429 . S
C1131 C1132 1.523 . S
C1132 C1116 1.368 . S
C1132 C1128 1.368 . S
C1132 C1131 1.523 . S
H1133 C1108 0.950 . S
H1134 C1110 0.950 . S
H1135 C1111 0.949 . S
H1136 C1113 0.950 . S
H1137 C1115 0.950 . S
C1138 C1139 1.349 . S
C1138 C1140 1.327 . S
C1138 H1163 0.950 . S
C1139 C1138 1.349 . S
C1139 C1155 1.349 . S
C1140 C1138 1.327 . S
C1140 C1159 1.429 . S
C1140 H1164 0.950 . S
C1141 C1158 1.574 . S
C1141 C1160 1.368 . S
C1141 H1165 0.949 . S
H1142 C1146 0.949 . S
C1143 C1144 1.349 . S
C1143 C1145 1.327 . S
C1143 H1166 0.950 . S
C1144 C1143 1.349 . S
C1144 C1156 1.349 . S
C1145 C1143 1.327 . S
C1145 C1161 1.429 . S
C1145 H1167 0.950 . S
C1146 H1142 0.949 . S
C1146 C1154 1.574 . S
C1146 C1162 1.368 . S
H1147 C1155 0.950 . S
H1148 C1153 0.950 . S
H1149 C1154 0.949 . S
H1150 C1156 0.950 . S
H1151 C1157 0.950 . S
H1152 C1158 0.949 . S
C1153 H1148 0.950 . S
C1153 C1155 1.327 . S
C1153 C1159 1.429 . S
C1154 C1146 1.574 . S
C1154 H1149 0.949 . S
C1154 C1160 1.368 . S
C1155 C1139 1.349 . S
C1155 H1147 0.950 . S
C1155 C1153 1.327 . S
C1156 C1144 1.349 . S
C1156 H1150 0.950 . S
C1156 C1157 1.327 . S
C1157 H1151 0.950 . S
C1157 C1156 1.327 . S
C1157 C1161 1.429 . S
C1158 C1141 1.574 . S
C1158 H1152 0.949 . S
C1158 C1162 1.368 . S
C1159 C1140 1.429 . S
C1159 C1153 1.429 . S
C1159 C1160 1.523 . S
C1160 C1141 1.368 . S
C1160 C1154 1.368 . S
C1160 C1159 1.523 . S
C1161 C1145 1.429 . S
C1161 C1157 1.429 . S
C1161 C1162 1.523 . S
C1162 C1146 1.368 . S
C1162 C1158 1.368 . S
C1162 C1161 1.523 . S
H1163 C1138 0.950 . S
H1164 C1140 0.950 . S
H1165 C1141 0.949 . S
H1166 C1143 0.950 . S
H1167 C1145 0.950 . S
C449 C1 1.184 . S
C454 C305 1.188 . S
C479 C67 1.192 . S
C484 C345 1.193 . S
C514 C370 2.315 . S
C509 C97 2.361 . S
C539 C133 2.400 . S
C544 C410 2.341 . S
C574 C341 1.794 . S
C569 C25 1.772 . S
C604 C301 1.784 . S
C599 C37 1.757 . S
C634 C432 1.592 . S
C629 C103 1.601 . S
C664 C392 1.582 . S
C659 C109 1.602 . S
C689 C31 1.282 . S
C694 C434 1.292 . S
C724 C351 2.091 . S
C719 C73 2.124 . S
C749 C139 2.153 . S
C754 C311 2.121 . S
C779 C61 1.273 . S
C784 C394 1.284 . S
C814 C314 1.190 . S
C809 C175 1.154 . S
C839 C181 1.164 . S
C844 C354 1.174 . S
C869 C247 2.397 . S
C874 C391 2.339 . S
C899 C277 2.386 . S
C904 C431 2.330 . S
C929 C145 1.713 . S
C934 C352 1.782 . S
C964 C312 1.789 . S
C959 C211 1.760 . S
C994 C421 1.580 . S
C989 C217 1.589 . S
C1024 C381 1.605 . S
C1019 C283 1.616 . S
C1049 C169 1.236 . S
C1054 C425 1.285 . S
C1084 C330 2.102 . S
C1079 C241 2.142 . S
C1114 C290 2.105 . S
C1109 C253 2.145 . S
C1139 C205 1.291 . S
C1144 C385 1.291 . S
