# Generated by pormake.
# Topology pyr, (3,6)-cn, num edge types: 1
# Building blocks:
#     Node 0, Type 0, BuildingBlock: QEWDON_clean_linker_0, # of connection points: 3
#     Node 1, Type 0, BuildingBlock: QEWDON_clean_linker_0, # of connection points: 3
#     Node 2, Type 0, BuildingBlock: QEWDON_clean_linker_0, # of connection points: 3
#     Node 3, Type 0, BuildingBlock: QEWDON_clean_linker_0, # of connection points: 3
#     Node 4, Type 0, BuildingBlock: QEWDON_clean_linker_0, # of connection points: 3
#     Node 5, Type 0, BuildingBlock: QEWDON_clean_linker_0, # of connection points: 3
#     Node 6, Type 0, BuildingBlock: QEWDON_clean_linker_0, # of connection points: 3
#     Node 7, Type 0, BuildingBlock: QEWDON_clean_linker_0, # of connection points: 3
#     Node 8, Type 1, BuildingBlock: INOVEN_clean_sbu_0, # of connection points: 6
#     Node 9, Type 1, BuildingBlock: INOVEN_clean_sbu_0, # of connection points: 6
#     Node 10, Type 1, BuildingBlock: INOVEN_clean_sbu_0, # of connection points: 6
#     Node 11, Type 1, BuildingBlock: INOVEN_clean_sbu_0, # of connection points: 6
#     Edge 12, Type (0, 1), BuildingBlock: ZUJKAS_clean_linker_0, # of connection points: 2
#     Edge 13, Type (0, 1), BuildingBlock: ZUJKAS_clean_linker_0, # of connection points: 2
#     Edge 14, Type (0, 1), BuildingBlock: ZUJKAS_clean_linker_0, # of connection points: 2
#     Edge 15, Type (0, 1), BuildingBlock: ZUJKAS_clean_linker_0, # of connection points: 2
#     Edge 16, Type (0, 1), BuildingBlock: ZUJKAS_clean_linker_0, # of connection points: 2
#     Edge 17, Type (0, 1), BuildingBlock: ZUJKAS_clean_linker_0, # of connection points: 2
#     Edge 18, Type (0, 1), BuildingBlock: ZUJKAS_clean_linker_0, # of connection points: 2
#     Edge 19, Type (0, 1), BuildingBlock: ZUJKAS_clean_linker_0, # of connection points: 2
#     Edge 20, Type (0, 1), BuildingBlock: ZUJKAS_clean_linker_0, # of connection points: 2
#     Edge 21, Type (0, 1), BuildingBlock: ZUJKAS_clean_linker_0, # of connection points: 2
#     Edge 22, Type (0, 1), BuildingBlock: ZUJKAS_clean_linker_0, # of connection points: 2
#     Edge 23, Type (0, 1), BuildingBlock: ZUJKAS_clean_linker_0, # of connection points: 2
#     Edge 24, Type (0, 1), BuildingBlock: ZUJKAS_clean_linker_0, # of connection points: 2
#     Edge 25, Type (0, 1), BuildingBlock: ZUJKAS_clean_linker_0, # of connection points: 2
#     Edge 26, Type (0, 1), BuildingBlock: ZUJKAS_clean_linker_0, # of connection points: 2
#     Edge 27, Type (0, 1), BuildingBlock: ZUJKAS_clean_linker_0, # of connection points: 2
#     Edge 28, Type (0, 1), BuildingBlock: ZUJKAS_clean_linker_0, # of connection points: 2
#     Edge 29, Type (0, 1), BuildingBlock: ZUJKAS_clean_linker_0, # of connection points: 2
#     Edge 30, Type (0, 1), BuildingBlock: ZUJKAS_clean_linker_0, # of connection points: 2
#     Edge 31, Type (0, 1), BuildingBlock: ZUJKAS_clean_linker_0, # of connection points: 2
#     Edge 32, Type (0, 1), BuildingBlock: ZUJKAS_clean_linker_0, # of connection points: 2
#     Edge 33, Type (0, 1), BuildingBlock: ZUJKAS_clean_linker_0, # of connection points: 2
#     Edge 34, Type (0, 1), BuildingBlock: ZUJKAS_clean_linker_0, # of connection points: 2
#     Edge 35, Type (0, 1), BuildingBlock: ZUJKAS_clean_linker_0, # of connection points: 2
# Relax obj value: 0.140
# Max RMSD: 0.267
# Mean RMSD: 0.197
data_MOF--net-pyr--node1-INOVEN_clean_sbu_0--node2-QEWDON_clean_linker_0--edge1-ZUJKAS_clean_linker_0
_symmetry_space_group_name_H-M    P1
_symmetry_Int_Tables_number       1
_symmetry_cell_setting            triclinic
loop_
_symmetry_equiv_pos_as_xyz
'x, y, z'
_cell_length_a     49.121489
_cell_length_b     52.397475
_cell_length_c     49.986176
_cell_angle_alpha  91.848468
_cell_angle_beta   89.467178
_cell_angle_gamma 107.36457
loop_
_atom_site_label
_atom_site_type_symbol
_atom_site_fract_x
_atom_site_fract_y
_atom_site_fract_z
_atom_type_partial_charge
H0 H 0.39275 0.32899 0.20347 0.0
C1 C 0.37729 0.32238 0.21933 0.0
C2 C 0.37354 0.29724 0.23039 0.0
C3 C 0.36098 0.33889 0.22835 0.0
H4 H 0.34955 0.26896 0.25867 0.0
C5 C 0.35323 0.28872 0.25074 0.0
C6 C 0.33671 0.30493 0.26002 0.0
C7 C 0.34086 0.33005 0.24879 0.0
C8 C 0.36457 0.36518 0.21614 0.0
H9 H 0.32867 0.34294 0.25623 0.0
C10 C 0.34055 0.37322 0.20979 0.0
C11 C 0.34367 0.39791 0.1979 0.0
C12 C 0.39191 0.38226 0.21053 0.0
H13 H 0.4108 0.37676 0.21546 0.0
C14 C 0.39516 0.40681 0.19881 0.0
H15 H 0.31935 0.35988 0.21337 0.0
C16 C 0.37125 0.41463 0.19248 0.0
H17 H 0.37436 0.43387 0.1836 0.0
H18 H 0.41631 0.41988 0.19467 0.0
H19 H 0.23813 0.87931 0.73379 0.0
C20 C 0.25186 0.87083 0.72164 0.0
C21 C 0.28076 0.87613 0.72843 0.0
C22 C 0.24028 0.8537 0.69977 0.0
H23 H 0.32046 0.86899 0.71737 0.0
C24 C 0.29809 0.86483 0.71242 0.0
C25 C 0.28678 0.84785 0.69033 0.0
C26 C 0.25769 0.8421 0.68433 0.0
C27 C 0.20999 0.84817 0.69274 0.0
H28 H 0.24867 0.8291 0.66728 0.0
C29 C 0.2002 0.8687 0.68317 0.0
C30 C 0.17159 0.86353 0.67526 0.0
C31 C 0.19109 0.8223 0.69467 0.0
H32 H 0.19842 0.80622 0.7019 0.0
C33 C 0.16253 0.81711 0.6874 0.0
H34 H 0.21522 0.88842 0.68095 0.0
C35 C 0.15278 0.83754 0.67772 0.0
H36 H 0.13055 0.83299 0.67218 0.0
H37 H 0.14794 0.79716 0.68911 0.0
H38 H 0.69799 0.44717 0.8933 0.0
C39 C 0.69024 0.42622 0.89811 0.0
C40 C 0.70692 0.41496 0.91419 0.0
C41 C 0.66243 0.41119 0.89036 0.0
H42 H 0.70829 0.37926 0.93389 0.0
C43 C 0.69573 0.38803 0.92143 0.0
C44 C 0.66801 0.37267 0.91394 0.0
C45 C 0.65165 0.38446 0.89828 0.0
C46 C 0.6425 0.42445 0.87873 0.0
H47 H 0.63004 0.37307 0.8928 0.0
C48 C 0.64712 0.43698 0.85365 0.0
C49 C 0.6273 0.44937 0.84387 0.0
C50 C 0.61811 0.42449 0.89361 0.0
H51 H 0.61416 0.41518 0.91289 0.0
C52 C 0.59871 0.43667 0.88407 0.0
H53 H 0.6658 0.43704 0.84193 0.0
C54 C 0.6032 0.44898 0.85948 0.0
H55 H 0.58746 0.45793 0.85244 0.0
H56 H 0.58001 0.43651 0.89578 0.0
H57 H 0.8993 0.77925 0.36699 0.0
C58 C 0.88249 0.76527 0.37798 0.0
C59 C 0.87712 0.77136 0.40473 0.0
C60 C 0.86479 0.74238 0.36458 0.0
H61 H 0.85014 0.7584 0.43888 0.0
C62 C 0.85415 0.75386 0.41817 0.0
C63 C 0.83579 0.73112 0.40506 0.0
C64 C 0.84159 0.7253 0.37825 0.0
C65 C 0.86654 0.73996 0.33504 0.0
H66 H 0.82695 0.70865 0.36741 0.0
C67 C 0.87892 0.72183 0.32194 0.0
C68 C 0.87977 0.72025 0.29362 0.0
C69 C 0.85533 0.75646 0.31978 0.0
H70 H 0.84579 0.7705 0.3295 0.0
C71 C 0.8562 0.75501 0.29195 0.0
H72 H 0.88759 0.70904 0.33364 0.0
C73 C 0.86828 0.73711 0.27895 0.0
H74 H 0.86902 0.73675 0.25728 0.0
H75 H 0.84753 0.76788 0.28038 0.0
H76 H 0.72592 0.80309 0.92709 0.0
C77 C 0.73743 0.81521 0.91105 0.0
C78 C 0.76568 0.81584 0.90554 0.0
C79 C 0.72422 0.83076 0.89654 0.0
H80 H 0.80224 0.8322 0.88055 0.0
C81 C 0.78046 0.8318 0.8849 0.0
C82 C 0.76738 0.84698 0.86969 0.0
C83 C 0.73931 0.84668 0.87597 0.0
C84 C 0.6944 0.82987 0.90265 0.0
H85 H 0.72879 0.85806 0.86429 0.0
C86 C 0.68716 0.85359 0.90794 0.0
C87 C 0.65896 0.8526 0.91476 0.0
C88 C 0.67316 0.80512 0.90381 0.0
H89 H 0.67824 0.78662 0.89972 0.0
C90 C 0.64513 0.80402 0.9101 0.0
H91 H 0.70356 0.87271 0.90711 0.0
C92 C 0.63804 0.82752 0.91564 0.0
H93 H 0.61626 0.82597 0.92123 0.0
H94 H 0.62888 0.78485 0.91099 0.0
H95 H 0.77552 0.20441 0.52207 0.0
C96 C 0.76585 0.20398 0.50259 0.0
C97 C 0.77784 0.19495 0.47999 0.0
C98 C 0.74116 0.21198 0.50036 0.0
H99 H 0.77439 0.18733 0.43741 0.0
C100 C 0.76496 0.19404 0.45493 0.0
C101 C 0.74021 0.20195 0.45226 0.0
C102 C 0.72858 0.21117 0.47507 0.0
C103 C 0.72817 0.22044 0.52465 0.0
H104 H 0.70911 0.21671 0.47333 0.0
C105 C 0.71929 0.24355 0.52469 0.0
C106 C 0.70711 0.25181 0.54773 0.0
C107 C 0.72482 0.20555 0.54799 0.0
H108 H 0.73124 0.1875 0.54843 0.0
C109 C 0.71274 0.2136 0.5709 0.0
H110 H 0.72254 0.25545 0.50694 0.0
C111 C 0.70391 0.23655 0.57083 0.0
H112 H 0.69419 0.24212 0.58874 0.0
H113 H 0.71008 0.20191 0.58873 0.0
H114 H 0.4257 0.79424 0.2408 0.0
C115 C 0.40429 0.78305 0.23451 0.0
C116 C 0.38887 0.79495 0.21785 0.0
C117 C 0.39288 0.75639 0.24238 0.0
H118 H 0.34958 0.78844 0.19612 0.0
C119 C 0.36143 0.77968 0.20935 0.0
C120 C 0.34965 0.75282 0.21661 0.0
C121 C 0.36543 0.74148 0.23358 0.0
C122 C 0.41211 0.74294 0.25484 0.0
H123 H 0.3573 0.72054 0.23839 0.0
C124 C 0.40898 0.7343 0.28158 0.0
C125 C 0.42906 0.72297 0.29254 0.0
C126 C 0.43484 0.73953 0.23935 0.0
H127 H 0.43761 0.74594 0.21884 0.0
C128 C 0.45425 0.72794 0.25004 0.0
H129 H 0.3917 0.73703 0.29384 0.0
C130 C 0.4515 0.71985 0.27645 0.0
H131 H 0.46706 0.71118 0.28444 0.0
H132 H 0.47167 0.72544 0.23787 0.0
H133 H 0.23062 0.44882 0.75943 0.0
C134 C 0.21924 0.43156 0.7472 0.0
C135 C 0.22765 0.42887 0.72039 0.0
C136 C 0.19706 0.41129 0.75868 0.0
H137 H 0.22038 0.40274 0.68511 0.0
C138 C 0.21317 0.40571 0.7052 0.0
C139 C 0.19084 0.38538 0.71627 0.0
C140 C 0.18271 0.38864 0.74286 0.0
C141 C 0.19114 0.41138 0.78797 0.0
H142 H 0.16553 0.37307 0.75164 0.0
C143 C 0.18518 0.4331 0.80184 0.0
C144 C 0.17854 0.43159 0.82955 0.0
C145 C 0.191 0.38861 0.80216 0.0
H146 H 0.1959 0.37185 0.79217 0.0
C147 C 0.1845 0.38704 0.82928 0.0
H148 H 0.18543 0.45079 0.7911 0.0
C149 C 0.17808 0.40813 0.84281 0.0
H150 H 0.17226 0.40576 0.86373 0.0
H151 H 0.18415 0.36923 0.83985 0.0
Gd152 Gd 0.04875 0.09012 0.52736 0.0
Gd153 Gd 0.03675 0.06817 0.58364 0.0
C154 C 0.07119 0.12972 0.57937 0.0
C155 C 0.0527 0.11593 0.48357 0.0
C156 C 0.07394 0.13782 0.47059 0.0
C157 C 0.0993 0.15194 0.48375 0.0
C158 C 0.06964 0.14345 0.44406 0.0
C159 C 0.11667 0.17627 0.44326 0.0
C160 C 0.0908 0.16251 0.43049 0.0
C161 C 0.12052 0.17106 0.47019 0.0
C162 C 0.08844 0.06937 0.54733 0.0
C163 C 0.01638 0.02858 0.53145 0.0
C164 C 0.03111 0.04173 0.62722 0.0
C165 C 1.00716 0.02495 0.6427 0.0
C166 C 0.98098 0.03061 0.64417 0.0
C167 C 1.01069 1.00347 0.65676 0.0
C168 C 0.9626 0.99432 0.67495 0.0
C169 C 0.9886 0.98822 0.67268 0.0
C170 C 0.95898 1.01553 0.66024 0.0
C171 C 0.99637 0.08789 0.5638 0.0
O172 O 0.06256 0.12764 0.55414 0.0
O173 O 0.06835 0.10817 0.59353 0.0
O174 O 0.05968 0.09385 0.48542 0.0
O175 O 0.04091 0.12223 0.5054 0.0
O176 O 0.08221 0.0684 0.52212 0.0
O177 O 0.07538 0.08317 0.55988 0.0
O178 O 0.02627 0.03093 0.55627 0.0
O179 O 0.01748 0.04999 0.5177 0.0
O180 O 0.03302 0.06713 0.62668 0.0
O181 O 0.03616 0.03191 0.60397 0.0
O182 O 1.00194 0.08813 0.58905 0.0
O183 O 1.00985 0.07466 0.55099 0.0
H184 H 0.10292 0.14774 0.50429 0.0
H185 H 0.05022 0.13255 0.43359 0.0
H186 H 0.08729 0.16572 0.40967 0.0
H187 H 0.14006 0.18151 0.48067 0.0
H188 H 0.97771 0.04702 0.63332 0.0
H189 H 0.03066 0.99867 0.65569 0.0
H190 H 0.99196 0.97172 0.68328 0.0
H191 H 0.93943 0.02103 0.66168 0.0
Gd192 Gd 0.56236 0.09797 0.08407 0.0
Gd193 Gd 0.50181 0.07307 0.05693 0.0
C194 C 0.50767 0.11584 0.10624 0.0
C195 C 0.60961 0.12829 0.10444 0.0
C196 C 0.61937 0.13957 0.13121 0.0
C197 C 0.64745 0.14239 0.13904 0.0
C198 C 0.60058 0.14623 0.14955 0.0
C199 C 0.63769 0.15774 0.18357 0.0
C200 C 0.60971 0.15542 0.17546 0.0
C201 C 0.65654 0.15134 0.16503 0.0
C202 C 0.53059 0.04994 0.10214 0.0
C203 C 0.55719 0.05842 0.0337 0.0
C204 C 0.45263 0.04087 0.0437 0.0
C205 C 0.43817 0.02985 0.01854 0.0
C206 C 0.45273 0.0349 0.9941 0.0
C207 C 0.40941 1.01466 0.01883 0.0
C208 C 0.40965 1.00961 0.97024 0.0
C209 C 0.39523 1.00459 0.99488 0.0
C210 C 0.43859 0.02485 0.97013 0.0
C211 C 0.53389 0.11597 0.02906 0.0
O212 O 0.53553 0.11944 0.10716 0.0
O213 O 0.49037 0.09783 0.09008 0.0
O214 O 0.60369 0.1023 0.10168 0.0
O215 O 0.59096 0.13761 0.09275 0.0
O216 O 0.55821 0.05766 0.1012 0.0
O217 O 0.52122 0.06882 0.0956 0.0
O218 O 0.52934 0.0499 0.03809 0.0
O219 O 0.57396 0.0803 0.04572 0.0
O220 O 0.45732 0.06666 0.04782 0.0
O221 O 0.47445 0.03265 0.04995 0.0
O222 O 0.5081 0.10211 0.02241 0.0
O223 O 0.54036 0.10563 0.04939 0.0
H224 H 0.66221 0.13722 0.12519 0.0
H225 H 0.57871 0.14384 0.14402 0.0
H226 H 0.59461 0.15987 0.18941 0.0
H227 H 0.67829 0.15312 0.17068 0.0
H228 H 0.47501 0.04663 0.9936 0.0
H229 H 0.39786 1.01075 0.03757 0.0
H230 H 0.37288 0.99319 0.99562 0.0
H231 H 0.4504 0.02876 0.95154 0.0
Gd232 Gd 0.52969 0.56224 0.5486 0.0
Gd233 Gd 0.53391 0.60965 0.58428 0.0
C234 C 0.55732 0.56512 0.60854 0.0
C235 C 0.53928 0.52371 0.52027 0.0
C236 C 0.55516 0.50443 0.5241 0.0
C237 C 0.54545 0.47897 0.51182 0.0
C238 C 0.57969 0.51102 0.54021 0.0
C239 C 0.58493 0.46682 0.53129 0.0
C240 C 0.5945 0.49239 0.54372 0.0
C241 C 0.56015 0.46028 0.5154 0.0
C242 C 0.4813 0.55975 0.57601 0.0
C243 C 0.50601 0.60657 0.52456 0.0
C244 C 0.52493 0.64848 0.61263 0.0
C245 C 0.50776 0.66686 0.61007 0.0
C246 C 0.5158 0.69147 0.62417 0.0
C247 C 0.48319 0.65994 0.59402 0.0
C248 C 0.47405 0.70168 0.60732 0.0
C249 C 0.46642 0.67721 0.5927 0.0
C250 C 0.49911 0.70878 0.62281 0.0
C251 C 0.58224 0.61191 0.55678 0.0
O252 O 0.55537 0.55484 0.5838 0.0
O253 O 0.54769 0.58555 0.61463 0.0
O254 O 0.51654 0.52061 0.5351 0.0
O255 O 0.55459 0.54875 0.51855 0.0
O256 O 0.48178 0.55168 0.55123 0.0
O257 O 0.50633 0.56807 0.58523 0.0
O258 O 0.50731 0.61635 0.54947 0.0
O259 O 0.51641 0.58668 0.5183 0.0
O260 O 0.54629 0.65176 0.596 0.0
O261 O 0.51068 0.62333 0.61572 0.0
O262 O 0.58186 0.62013 0.58151 0.0
O263 O 0.55717 0.60378 0.54768 0.0
H264 H 0.5264 0.4735 0.49952 0.0
H265 H 0.58748 0.5306 0.54998 0.0
H266 H 0.61363 0.49817 0.55587 0.0
H267 H 0.55191 0.44061 0.50595 0.0
H268 H 0.53475 0.6971 0.63661 0.0
H269 H 0.47674 0.64104 0.58285 0.0
H270 H 0.44739 0.67134 0.5804 0.0
H271 H 0.50533 0.72733 0.63457 0.0
Gd272 Gd 0.03506 0.55525 0.06616 0.0
Gd273 Gd 0.03189 0.61191 0.04735 0.0
C274 C 0.08476 0.61017 0.08413 0.0
C275 C 0.04964 0.51186 0.06618 0.0
C276 C 0.06714 0.49966 0.08204 0.0
C277 C 0.08239 0.51316 0.10449 0.0
C278 C 0.0709 0.4754 0.07294 0.0
C279 C 0.10655 0.47895 0.10748 0.0
C280 C 0.09042 0.4651 0.08554 0.0
C281 C 0.10189 0.5028 0.11721 0.0
C282 C 1.01238 0.58017 0.1054 0.0
C283 C 0.97837 0.55793 0.03557 0.0
C284 C 0.01991 0.65515 0.03619 0.0
C285 C 0.9953 0.66475 0.03122 0.0
C286 C 0.99987 0.6891 0.0186 0.0
C287 C 0.96748 0.64985 0.03816 0.0
C288 C 0.94896 0.68395 0.01982 0.0
C289 C 0.94444 0.65939 0.03249 0.0
C290 C 0.97697 0.69862 1.01291 0.0
C291 C 0.06188 0.58675 0.01605 0.0
O292 O 0.07734 0.58382 0.07997 0.0
O293 O 0.06908 0.62501 0.07573 0.0
O294 O 0.02583 0.51375 0.07702 0.0
O295 O 0.06397 0.53336 0.0537 0.0
O296 O 0.01644 0.55696 0.10814 0.0
O297 O 0.0209 0.588 0.08248 0.0
O298 O 0.98739 0.58445 0.03826 0.0
O299 O 0.99414 0.54264 0.04263 0.0
O300 O 0.02502 0.63871 0.01792 0.0
O301 O 0.02339 0.6485 0.06069 0.0
O302 O 0.06905 0.61252 0.02 0.0
O303 O 0.03881 0.57595 0.028 0.0
H304 H 0.07991 0.53211 0.11157 0.0
H305 H 0.05939 0.46483 0.05554 0.0
H306 H 0.09327 0.44651 0.07781 0.0
H307 H 0.11416 0.51402 0.13392 0.0
H308 H 0.02121 0.70071 1.0129 0.0
H309 H 0.96361 0.63089 0.04784 0.0
H310 H 0.92317 0.64769 0.0382 0.0
H311 H 0.98121 0.71728 1.00262 0.0
H312 H 0.34024 0.27779 0.30519 0.0
H313 H 0.30262 0.25964 0.33791 0.0
H314 H 0.24585 0.29289 0.2953 0.0
H315 H 0.2829 0.31019 0.26194 0.0
H316 H 0.27192 0.28512 0.37147 0.0
H317 H 0.20076 0.21372 0.29904 0.0
H318 H 0.23768 0.23066 0.29179 0.0
H319 H 0.21128 0.24795 0.28921 0.0
C320 C 0.31967 0.28106 0.30266 0.0
C321 C 0.3145 0.29524 0.28081 0.0
C322 C 0.2983 0.27087 0.32148 0.0
C323 C 0.27135 0.27459 0.31878 0.0
C324 C 0.26636 0.28941 0.29748 0.0
H325 H 0.11268 0.21285 0.40665 0.0
H326 H 0.15058 0.23936 0.37794 0.0
C327 C 0.28768 0.29954 0.2786 0.0
C328 C 0.24833 0.26252 0.33798 0.0
H329 H 0.1824 0.21692 0.34245 0.0
C330 C 0.25232 0.27022 0.36517 0.0
C331 C 0.22282 0.24307 0.32964 0.0
C332 C 0.21788 0.23313 0.30088 0.0
C333 C 0.23135 0.25908 0.38427 0.0
C334 C 0.20596 0.23953 0.37593 0.0
C335 C 0.20185 0.23205 0.34872 0.0
C336 C 0.18377 0.22564 0.39513 0.0
C337 C 0.2364 0.26848 0.41314 0.0
C338 C 0.18995 0.20928 0.41439 0.0
C339 C 0.16833 0.19398 0.43069 0.0
C340 C 0.14008 0.19465 0.42792 0.0
C341 C 0.13414 0.21165 0.40907 0.0
C342 C 0.15577 0.2269 0.39276 0.0
H343 H 0.25294 0.28824 0.41512 0.0
H344 H 0.21641 0.26999 0.4227 0.0
H345 H 0.24388 0.25383 0.42424 0.0
H346 H 0.21129 0.20756 0.41614 0.0
H347 H 0.17356 0.18077 0.44466 0.0
H348 H 0.2717 0.92298 0.74661 0.0
H349 H 0.2925 0.95021 0.78643 0.0
H350 H 0.33758 0.89378 0.8046 0.0
H351 H 0.31671 0.86638 0.76529 0.0
H352 H 0.28904 0.93505 0.841 0.0
H353 H 0.40057 0.96648 0.80422 0.0
H354 H 0.37038 0.95273 0.78228 0.0
H355 H 0.38396 0.93096 0.80178 0.0
C356 C 0.28593 0.91633 0.75919 0.0
C357 C 0.29282 0.89268 0.75263 0.0
C358 C 0.29787 0.93195 0.78181 0.0
C359 C 0.31697 0.92423 0.7981 0.0
C360 C 0.32342 0.90041 0.7919 0.0
H361 H 0.37235 0.9599 0.96019 0.0
H362 H 0.34838 0.94188 0.91805 0.0
C363 C 0.31151 0.8848 0.7694 0.0
C364 C 0.32984 0.94059 0.82201 0.0
H365 H 0.39397 0.97261 0.85118 0.0
C366 C 0.31195 0.94357 0.84316 0.0
C367 C 0.35969 0.95199 0.82456 0.0
C368 C 0.37979 0.95065 0.8019 0.0
C369 C 0.32328 0.95663 0.86734 0.0
C370 C 0.35323 0.96658 0.87046 0.0
C371 C 0.37102 0.96469 0.84884 0.0
C372 C 0.36665 0.97807 0.89628 0.0
C373 C 0.3031 0.95951 0.88937 0.0
C374 C 0.3853 1.00422 0.89787 0.0
C375 C 0.3991 1.01456 0.92192 0.0
C376 C 0.39461 0.99886 0.94479 0.0
C377 C 0.37587 0.97266 0.94309 0.0
C378 C 0.36212 0.96235 0.91904 0.0
H379 H 0.28169 0.95819 0.88134 0.0
H380 H 0.30048 0.94309 0.90356 0.0
H381 H 0.31153 0.97886 0.90064 0.0
H382 H 0.38919 1.01661 0.88047 0.0
H383 H 0.41316 0.0349 0.92266 0.0
H384 H 0.62363 0.49893 0.83348 0.0
H385 H 0.61839 0.51693 0.79002 0.0
H386 H 0.63202 0.44741 0.75046 0.0
H387 H 0.6367 0.42896 0.79429 0.0
H388 H 0.65179 0.53019 0.74522 0.0
H389 H 0.55441 0.44608 0.72116 0.0
H390 H 0.57021 0.45152 0.75409 0.0
H391 H 0.58603 0.43675 0.72762 0.0
C392 C 0.62592 0.48761 0.81552 0.0
C393 C 0.63035 0.46238 0.81737 0.0
C394 C 0.6229 0.49794 0.79063 0.0
C395 C 0.6241 0.48332 0.76684 0.0
C396 C 0.63032 0.45885 0.7685 0.0
H397 H 0.57588 0.52031 0.60563 0.0
H398 H 0.59474 0.5001 0.642 0.0
C399 C 0.63342 0.44846 0.79355 0.0
C400 C 0.6175 0.49347 0.74076 0.0
H401 H 0.56835 0.48024 0.69004 0.0
C402 C 0.63369 0.51913 0.73306 0.0
C403 C 0.59386 0.47914 0.72473 0.0
C404 C 0.57492 0.45194 0.73231 0.0
C405 C 0.62666 0.53095 0.71022 0.0
C406 C 0.60246 0.51701 0.69475 0.0
C407 C 0.58687 0.49098 0.70186 0.0
C408 C 0.59194 0.52971 0.67224 0.0
C409 C 0.64526 0.55836 0.70292 0.0
C410 C 0.58378 0.55296 0.67702 0.0
C411 C 0.57295 0.56453 0.65632 0.0
C412 C 0.56984 0.5531 0.6302 0.0
C413 C 0.57806 0.52978 0.6254 0.0
C414 C 0.58882 0.51814 0.64622 0.0
H415 H 0.66712 0.56265 0.71125 0.0
H416 H 0.6468 0.56041 0.68087 0.0
H417 H 0.63585 0.57366 0.7114 0.0
H418 H 0.58532 0.56199 0.69696 0.0
H419 H 0.56676 0.58235 0.66093 0.0
H420 H 0.93128 0.71119 0.30272 0.0
H421 H 0.9552 0.68563 0.27379 0.0
H422 H 0.88217 0.66295 0.22132 0.0
H423 H 0.85805 0.68775 0.25033 0.0
H424 H 0.90385 0.6213 0.22902 0.0
H425 H 0.99019 0.71233 0.20153 0.0
H426 H 0.98659 0.70642 0.23678 0.0
H427 H 0.95841 0.71393 0.21901 0.0
C428 C 0.92016 0.70032 0.28529 0.0
C429 C 0.89289 0.70176 0.27868 0.0
C430 C 0.93398 0.686 0.26857 0.0
C431 C 0.92078 0.67287 0.24497 0.0
C432 C 0.89296 0.67311 0.23921 0.0
H433 H 0.99357 0.62407 0.09984 0.0
H434 H 0.97208 0.64641 0.13433 0.0
C435 C 0.87921 0.68738 0.25581 0.0
C436 C 0.93588 0.65941 0.22572 0.0
H437 H 0.99293 0.67109 0.1831 0.0
C438 C 0.92342 0.63216 0.2191 0.0
C439 C 0.96115 0.67366 0.21236 0.0
C440 C 0.97482 0.70325 0.21752 0.0
C441 C 0.93546 0.61882 0.1996 0.0
C442 C 0.96102 0.63295 0.18659 0.0
C443 C 0.97347 0.6602 0.19317 0.0
C444 C 0.97486 0.61988 0.16582 0.0
C445 C 0.92018 0.58988 0.19255 0.0
C446 C 0.98404 0.59782 0.17204 0.0
C447 C 0.99632 0.58512 0.15236 0.0
C448 C 1.00005 0.59439 0.12609 0.0
C449 C 0.99135 0.61674 0.11995 0.0
C450 C 0.97895 0.62942 0.13965 0.0
H451 H 0.89745 0.58418 0.19882 0.0
H452 H 0.92111 0.58575 0.17068 0.0
H453 H 0.93062 0.57695 0.20303 0.0
H454 H 0.98171 0.59039 0.19216 0.0
H455 H 1.00294 0.56801 0.15775 0.0
H456 H 0.39937 0.26748 0.25936 0.0
H457 H 0.42544 0.23715 0.24228 0.0
H458 H 0.41067 0.25606 0.16137 0.0
H459 H 0.38471 0.28641 0.17827 0.0
H460 H 0.40639 0.19246 0.20991 0.0
H461 H 0.496 0.26675 0.16116 0.0
H462 H 0.47222 0.27629 0.18449 0.0
H463 H 0.46185 0.26814 0.15008 0.0
C464 C 0.40174 0.2652 0.23793 0.0
C465 C 0.39013 0.27946 0.22016 0.0
C466 C 0.41671 0.24794 0.22822 0.0
C467 C 0.42042 0.24469 0.20058 0.0
C468 C 0.40873 0.2588 0.1828 0.0
H469 H 0.45178 0.11498 0.10963 0.0
H470 H 0.4319 0.1455 0.1353 0.0
C471 C 0.39387 0.27612 0.19248 0.0
C472 C 0.43543 0.22571 0.19021 0.0
H473 H 0.48933 0.22077 0.14873 0.0
C474 C 0.42472 0.19868 0.19676 0.0
C475 C 0.45964 0.23391 0.17344 0.0
C476 C 0.4733 0.2629 0.16709 0.0
C477 C 0.43686 0.17946 0.18612 0.0
C478 C 0.45998 0.18743 0.16804 0.0
C479 C 0.47141 0.21462 0.16236 0.0
C480 C 0.47189 0.16783 0.1539 0.0
C481 C 0.42482 0.15083 0.19438 0.0
C482 C 0.50113 0.17047 0.15543 0.0
C483 C 0.51269 0.15318 0.1405 0.0
C484 C 0.49524 0.13296 0.12365 0.0
C485 C 0.46588 0.13017 0.1225 0.0
C486 C 0.45438 0.14751 0.13734 0.0
H487 H 0.41404 0.14959 0.21414 0.0
H488 H 0.40873 0.1397 0.17943 0.0
H489 H 0.44176 0.14082 0.19546 0.0
H490 H 0.51507 0.18614 0.16795 0.0
H491 H 0.53539 0.15607 0.14178 0.0
H492 H 0.13563 0.85916 0.63268 0.0
H493 H 0.12208 0.89504 0.61152 0.0
H494 H 0.17274 0.95233 0.66899 0.0
H495 H 0.18581 0.91653 0.69084 0.0
H496 H 0.0959 0.93474 0.63748 0.0
H497 H 0.20266 0.97877 0.59148 0.0
H498 H 0.19067 0.94471 0.6025 0.0
H499 H 0.20197 0.97192 0.62658 0.0
C500 C 0.1435 0.87929 0.64116 0.0
C501 C 0.16191 0.88498 0.66341 0.0
C502 C 0.13589 0.89976 0.62891 0.0
C503 C 0.14673 0.92625 0.63855 0.0
C504 C 0.16452 0.93199 0.66109 0.0
H505 H 0.09731 0.06607 0.60046 0.0
H506 H 0.11229 0.03146 0.62255 0.0
C507 C 0.17202 0.91153 0.67346 0.0
C508 C 0.13973 0.94798 0.62478 0.0
H509 H 0.16856 1.00193 0.58607 0.0
C510 C 0.11172 0.94945 0.62624 0.0
C511 C 0.16046 0.96689 0.60997 0.0
C512 C 0.19063 0.96555 0.60727 0.0
C513 C 0.10398 0.96973 0.61353 0.0
C514 C 0.12485 0.98893 0.59912 0.0
C515 C 0.15274 0.98721 0.59731 0.0
C516 C 0.11792 1.01086 0.58568 0.0
C517 C 0.07351 0.97042 0.61533 0.0
C518 C 0.11706 1.01108 0.55766 0.0
C519 C 0.10848 0.0308 0.54498 0.0
C520 C 0.10085 0.05058 0.56023 0.0
C521 C 0.10297 0.05096 0.58825 0.0
C522 C 0.11139 0.03119 0.60089 0.0
H523 H 0.05897 0.95152 0.62299 0.0
H524 H 0.07241 0.98709 0.62915 0.0
H525 H 0.06576 0.97406 0.59543 0.0
H526 H 0.12218 0.99554 0.54566 0.0
H527 H 0.107 0.03008 0.52334 0.0
H528 H 0.75012 0.45301 0.88919 0.0
H529 H 0.79599 0.47991 0.9083 0.0
H530 H 0.77297 0.44162 0.98375 0.0
H531 H 0.72701 0.41544 0.96519 0.0
H532 H 0.79663 0.49612 0.99006 0.0
H533 H 0.8643 0.45322 0.92378 0.0
H534 H 0.84047 0.46736 0.90667 0.0
H535 H 0.82621 0.43828 0.92637 0.0
C536 C 0.75479 0.45041 0.90988 0.0
C537 C 0.73494 0.43171 0.92547 0.0
C538 C 0.78115 0.46564 0.92072 0.0
C539 C 0.78822 0.4625 0.94738 0.0
C540 C 0.76819 0.44429 0.96309 0.0
H541 H 0.95221 0.50429 0.02644 0.0
H542 H 0.90624 0.48279 1.00503 0.0
C543 C 0.74195 0.4291 0.95232 0.0
C544 C 0.81631 0.47809 0.95919 0.0
H545 H 0.88821 0.48802 0.9541 0.0
C546 C 0.81667 0.49445 0.98211 0.0
C547 C 0.84248 0.47568 0.94906 0.0
C548 C 0.84351 0.45753 0.92526 0.0
C549 C 0.84234 0.50833 0.9952 0.0
C550 C 0.86854 0.50615 0.9849 0.0
C551 C 0.86819 0.48986 0.96192 0.0
C552 C 0.89643 0.51966 0.99826 0.0
C553 C 0.84106 0.5245 0.02045 0.0
C554 C 0.90645 0.54765 1.0016 0.0
C555 C 0.93281 0.56009 1.014 0.0
C556 C 0.94987 0.54481 0.0232 0.0
C557 C 0.93975 0.51678 0.01974 0.0
C558 C 0.91342 0.5044 1.00738 0.0
H559 H 0.8193 0.51883 0.02927 0.0
H560 H 0.85626 0.52191 0.03567 0.0
H561 H 0.84698 0.54602 1.01572 0.0
H562 H 0.89406 0.55995 0.99431 0.0
H563 H 0.93991 0.58171 0.0161 0.0
H564 H 0.79999 0.75007 0.43671 0.0
H565 H 0.75723 0.72482 0.46009 0.0
H566 H 0.76695 0.65112 0.42676 0.0
H567 H 0.81075 0.67637 0.4039 0.0
H568 H 0.70734 0.692 0.43997 0.0
H569 H 0.75748 0.63581 0.50645 0.0
H570 H 0.77813 0.66402 0.48782 0.0
H571 H 0.76358 0.63193 0.47126 0.0
C572 C 0.79344 0.72845 0.43465 0.0
C573 C 0.80923 0.71526 0.41875 0.0
C574 C 0.76874 0.71403 0.44788 0.0
C575 C 0.75902 0.68602 0.44557 0.0
C576 C 0.77432 0.67269 0.4293 0.0
H577 H 0.58614 0.60225 0.50296 0.0
H578 H 0.62859 0.61701 0.47457 0.0
C579 C 0.7992 0.68717 0.41603 0.0
C580 C 0.73262 0.67122 0.46 0.0
H581 H 0.70756 0.62685 0.5097 0.0
C582 C 0.70734 0.6776 0.45507 0.0
C583 C 0.73268 0.65264 0.47993 0.0
C584 C 0.75943 0.64578 0.48694 0.0
C585 C 0.68233 0.66635 0.46978 0.0
C586 C 0.68233 0.64768 0.48966 0.0
C587 C 0.70749 0.64097 0.49432 0.0
C588 C 0.657 0.63634 0.50697 0.0
C589 C 0.6565 0.67546 0.46465 0.0
C590 C 0.65903 0.64119 0.53479 0.0
C591 C 0.63488 0.6325 0.55107 0.0
C592 C 0.60819 0.61876 0.53985 0.0
C593 C 0.60638 0.61295 0.51215 0.0
C594 C 0.63059 0.62154 0.49588 0.0
H595 H 0.66208 0.69436 0.45353 0.0
H596 H 0.64088 0.65988 0.45244 0.0
H597 H 0.64601 0.6786 0.48373 0.0
H598 H 0.67917 0.65243 0.54385 0.0
H599 H 0.63698 0.63716 0.57236 0.0
H600 H 0.3341 0.42073 0.15187 0.0
H601 H 0.29185 0.43365 0.14005 0.0
H602 H 0.25322 0.40602 0.21568 0.0
H603 H 0.29556 0.39326 0.22789 0.0
H604 H 0.22568 0.39058 0.1484 0.0
H605 H 0.25726 0.49205 0.19791 0.0
H606 H 0.2839 0.47813 0.18373 0.0
H607 H 0.2651 0.46431 0.21329 0.0
C608 C 0.31676 0.41764 0.16612 0.0
C609 C 0.31818 0.40601 0.19083 0.0
C610 C 0.29263 0.4249 0.15927 0.0
C611 C 0.26961 0.4208 0.17705 0.0
C612 C 0.27088 0.4093 0.20175 0.0
H613 H 0.11893 0.47573 0.16048 0.0
H614 H 0.157 0.46005 0.179 0.0
C615 C 0.29498 0.40193 0.2086 0.0
C616 C 0.24405 0.42817 0.16946 0.0
H617 H 0.21475 0.47957 0.17279 0.0
C618 C 0.22311 0.40994 0.15382 0.0
C619 C 0.2408 0.4533 0.17689 0.0
C620 C 0.26286 0.47325 0.1939 0.0
C621 C 0.19903 0.41643 0.14495 0.0
C622 C 0.19629 0.44207 0.15141 0.0
C623 C 0.21693 0.45999 0.16775 0.0
C624 C 0.17291 0.45112 0.14039 0.0
C625 C 0.17672 0.39568 0.12889 0.0
C626 C 0.16953 0.45169 0.1126 0.0
C627 C 0.14784 0.46049 0.10204 0.0
C628 C 0.12925 0.46925 0.11904 0.0
C629 C 0.13295 0.46913 0.1469 0.0
C630 C 0.15461 0.46013 0.15748 0.0
H631 H 0.17719 0.37511 0.13302 0.0
H632 H 0.15498 0.39704 0.13325 0.0
H633 H 0.18105 0.39895 0.10724 0.0
H634 H 0.18394 0.44564 0.09902 0.0
H635 H 0.14597 0.46095 0.08049 0.0
H636 H 0.61443 0.35057 0.93453 0.0
H637 H 0.59457 0.30644 0.95359 0.0
H638 H 0.67322 0.28839 0.93705 0.0
H639 H 0.69314 0.33243 0.91746 0.0
H640 H 0.62326 0.24599 0.92283 0.0
H641 H 0.6171 0.28428 0.02679 0.0
H642 H 0.6002 0.29881 1.00227 0.0
H643 H 0.63815 0.30469 1.00113 0.0
C644 C 0.62744 0.33714 0.93462 0.0
C645 C 0.65544 0.34515 0.9244 0.0
C646 C 0.61614 0.31199 0.94584 0.0
C647 C 0.63253 0.2942 0.94717 0.0
C648 C 0.66023 0.30183 0.93645 0.0
H649 H 0.587 0.1493 0.04294 0.0
H650 H 0.61286 0.19202 0.02292 0.0
C651 C 0.67163 0.32707 0.92534 0.0
C652 C 0.62065 0.26763 0.95962 0.0
H653 H 0.59371 0.23802 0.01815 0.0
C654 C 0.61694 0.24425 0.9437 0.0
C655 C 0.61277 0.26527 0.98697 0.0
C656 C 0.61746 0.28956 1.00541 0.0
C657 C 0.60475 0.2187 0.95416 0.0
C658 C 0.59581 0.21639 0.98123 0.0
C659 C 0.60036 0.23974 0.99736 0.0
C660 C 0.58076 0.19003 0.99291 0.0
C661 C 0.60162 0.19434 0.93614 0.0
C662 C 0.55408 0.17473 0.98286 0.0
C663 C 0.53925 0.15051 0.99441 0.0
C664 C 0.55071 0.14102 0.01633 0.0
C665 C 0.57756 0.15616 0.02622 0.0
C666 C 0.59235 0.18054 1.01475 0.0
H667 H 0.61613 0.19897 0.9186 0.0
H668 H 0.60608 0.17799 0.94722 0.0
H669 H 0.57939 0.18699 0.92857 0.0
H670 H 0.54442 0.18177 0.96636 0.0
H671 H 0.51857 0.13937 0.98637 0.0
H672 H 0.85575 0.80649 0.43288 0.0
H673 H 0.88179 0.84924 0.45422 0.0
H674 H 0.9614 0.8377 0.42825 0.0
H675 H 0.93521 0.79496 0.4062 0.0
H676 H 0.91913 0.86125 0.49391 0.0
H677 H 0.97129 0.91183 0.40298 0.0
H678 H 0.94343 0.88032 0.40137 0.0
H679 H 0.97945 0.88137 0.40914 0.0
C680 C 0.87882 0.81298 0.43178 0.0
C681 C 0.89343 0.79727 0.4179 0.0
C682 C 0.89371 0.8375 0.44395 0.0
C683 C 0.9236 0.84699 0.44263 0.0
C684 C 0.93833 0.83121 0.42903 0.0
H685 H 0.01959 0.98034 0.54851 0.0
H686 H 0.99865 0.93604 0.52743 0.0
C687 C 0.92337 0.80671 0.41655 0.0
C688 C 0.939 0.8732 0.45587 0.0
H689 H 0.98501 0.93515 0.44441 0.0
C690 C 0.93356 0.8774 0.48307 0.0
C691 C 0.95758 0.89445 0.44171 0.0
C692 C 0.96311 0.89194 0.41214 0.0
C693 C 0.94591 0.90217 0.4964 0.0
C694 C 0.96499 0.92323 0.4824 0.0
C695 C 0.97059 0.91899 0.45525 0.0
C696 C 0.9784 0.95017 0.49514 0.0
C697 C 0.93751 0.90574 0.52508 0.0
C698 C 0.97488 0.97309 0.48361 0.0
C699 C 0.98721 0.99848 0.49538 0.0
C700 C 1.00328 1.00157 0.51906 0.0
C701 C 1.00701 0.97865 0.53049 0.0
C702 C 0.99492 0.95326 0.51851 0.0
H703 H 0.91704 0.89071 0.53028 0.0
H704 H 0.95421 0.9031 0.53858 0.0
H705 H 0.93536 0.92603 0.52898 0.0
H706 H 0.96232 0.97132 0.46556 0.0
H707 H 0.98393 1.01568 0.48601 0.0
H708 H 0.34063 0.87216 0.67213 0.0
H709 H 0.37308 0.85092 0.64964 0.0
H710 H 0.30756 0.77481 0.64991 0.0
H711 H 0.27503 0.79587 0.67245 0.0
H712 H 0.39019 0.81107 0.67221 0.0
H713 H 0.33918 0.77599 0.57392 0.0
H714 H 0.32997 0.801 0.59475 0.0
H715 H 0.3153 0.76609 0.60168 0.0
C716 C 0.33307 0.85094 0.66715 0.0
C717 C 0.30535 0.83562 0.67417 0.0
C718 C 0.35155 0.8389 0.65417 0.0
C719 C 0.3426 0.81138 0.64782 0.0
C720 C 0.31466 0.7962 0.65404 0.0
H721 H 0.41609 0.68637 0.61212 0.0
H722 H 0.38542 0.71523 0.61836 0.0
C723 C 0.29613 0.80823 0.66699 0.0
C724 C 0.36336 0.79802 0.63755 0.0
H725 H 0.3748 0.75624 0.58779 0.0
C726 C 0.38711 0.79943 0.65354 0.0
C727 C 0.35914 0.78279 0.61325 0.0
C728 C 0.33466 0.78154 0.59476 0.0
C729 C 0.40615 0.78507 0.64649 0.0
C730 C 0.40156 0.76929 0.62251 0.0
C731 C 0.37823 0.76841 0.60613 0.0
C732 C 0.41973 0.75218 0.61521 0.0
C733 C 0.43024 0.78595 0.66539 0.0
C734 C 0.44901 0.76345 0.61052 0.0
C735 C 0.4666 0.74702 0.607 0.0
C736 C 0.45512 0.71905 0.60788 0.0
C737 C 0.42553 0.70783 0.61114 0.0
C738 C 0.40799 0.72427 0.61477 0.0
H739 H 0.4272 0.79445 0.68545 0.0
H740 H 0.43227 0.76561 0.66787 0.0
H741 H 0.45058 0.79868 0.65701 0.0
H742 H 0.45834 0.78496 0.61031 0.0
H743 H 0.48926 0.75619 0.60407 0.0
H744 H 0.76849 0.89736 0.85492 0.0
H745 H 0.79596 0.92339 0.81855 0.0
H746 H 0.8302 0.85851 0.79786 0.0
H747 H 0.80183 0.83198 0.83307 0.0
H748 H 0.85239 0.94102 0.81323 0.0
H749 H 0.80797 0.87592 0.7253 0.0
H750 H 0.79096 0.87125 0.75769 0.0
H751 H 0.81993 0.85772 0.75008 0.0
C752 C 0.78139 0.88843 0.84225 0.0
C753 C 0.78302 0.86261 0.84701 0.0
C754 C 0.79721 0.90339 0.82157 0.0
C755 C 0.81482 0.89276 0.80519 0.0
C756 C 0.81627 0.86693 0.80978 0.0
H757 H 0.96881 0.97568 0.72442 0.0
H758 H 0.93147 0.95194 0.75489 0.0
C759 C 0.80037 0.85193 0.83026 0.0
C760 C 0.83332 0.90923 0.78459 0.0
H761 H 0.85447 0.90772 0.71944 0.0
C762 C 0.85256 0.93391 0.79263 0.0
C763 C 0.83324 0.90023 0.75757 0.0
C764 C 0.81168 0.87497 0.74709 0.0
C765 C 0.87258 0.9492 0.77474 0.0
C766 C 0.87393 0.93919 0.74827 0.0
C767 C 0.8538 0.91516 0.73986 0.0
C768 C 0.89655 0.95297 0.72928 0.0
C769 C 0.89205 0.97595 0.78442 0.0
C770 C 0.88939 0.96042 0.7042 0.0
C771 C 0.91076 0.97347 0.68638 0.0
C772 C 0.93976 0.97931 0.69329 0.0
C773 C 0.94678 0.97132 0.71826 0.0
C774 C 0.92542 0.95812 0.73594 0.0
H775 H 0.88238 0.98444 0.80135 0.0
H776 H 0.9123 0.97332 0.79167 0.0
H777 H 0.89708 0.99054 0.76813 0.0
H778 H 0.86724 0.95635 0.6985 0.0
H779 H 0.90454 0.97888 0.66715 0.0
H780 H 0.71791 0.23799 0.42885 0.0
H781 H 0.69553 0.23384 0.38453 0.0
H782 H 0.70913 0.15678 0.37157 0.0
H783 H 0.73066 0.16041 0.41583 0.0
H784 H 0.72009 0.22772 0.3348 0.0
H785 H 0.62497 0.14159 0.35294 0.0
H786 H 0.64647 0.16115 0.37981 0.0
H787 H 0.65744 0.13525 0.3624 0.0
C788 C 0.71574 0.22002 0.41666 0.0
C789 C 0.72608 0.19954 0.42579 0.0
C790 C 0.7031 0.21774 0.39135 0.0
C791 C 0.70031 0.19484 0.37498 0.0
C792 C 0.71057 0.1744 0.3841 0.0
H793 H 0.66674 0.1342 0.21606 0.0
H794 H 0.68053 0.14602 0.2628 0.0
C795 C 0.72319 0.17666 0.40927 0.0
C796 C 0.68793 0.19252 0.34779 0.0
H797 H 0.63805 0.15032 0.30684 0.0
C798 C 0.70182 0.21111 0.32875 0.0
C799 C 0.66401 0.17089 0.34004 0.0
C800 C 0.64717 0.15124 0.35995 0.0
C801 C 0.69336 0.20774 0.30178 0.0
C802 C 0.67045 0.1853 0.29385 0.0
C803 C 0.65579 0.16738 0.31306 0.0
C804 C 0.66261 0.17903 0.26543 0.0
C805 C 0.70972 0.22738 0.28166 0.0
C806 C 0.64797 0.19374 0.25157 0.0
C807 C 0.64001 0.18701 0.22486 0.0
C808 C 0.64676 0.16557 0.21162 0.0
C809 C 0.66162 0.15105 0.22561 0.0
C810 C 0.66934 0.15765 0.25231 0.0
H811 H 0.72853 0.24251 0.2907 0.0
H812 H 0.71705 0.21659 0.26493 0.0
H813 H 0.69548 0.23794 0.27308 0.0
H814 H 0.64248 0.21022 0.2615 0.0
H815 H 0.62869 0.1986 0.21451 0.0
H816 H 0.4624 0.74987 0.33341 0.0
H817 H 0.47079 0.73175 0.37616 0.0
H818 H 0.40469 0.65841 0.35714 0.0
H819 H 0.39605 0.67678 0.31441 0.0
H820 H 0.40727 0.67477 0.41333 0.0
H821 H 0.5127 0.67422 0.37275 0.0
H822 H 0.50649 0.70631 0.373 0.0
H823 H 0.48507 0.67943 0.35202 0.0
C824 C 0.44898 0.73026 0.33884 0.0
C825 C 0.4283 0.71486 0.32082 0.0
C826 C 0.454 0.71978 0.36311 0.0
C827 C 0.43874 0.69351 0.36972 0.0
C828 C 0.41677 0.67871 0.35252 0.0
H829 H 0.49896 0.59085 0.47165 0.0
H830 H 0.48087 0.61161 0.43562 0.0
C831 C 0.41168 0.68926 0.3282 0.0
C832 C 0.44749 0.68076 0.39318 0.0
H833 H 0.50314 0.66186 0.41765 0.0
C834 C 0.42823 0.67196 0.41432 0.0
C835 C 0.47471 0.6767 0.39435 0.0
C836 C 0.4959 0.68441 0.37175 0.0
C837 C 0.43561 0.65957 0.43666 0.0
C838 C 0.46309 0.65607 0.43806 0.0
C839 C 0.48217 0.66467 0.41678 0.0
C840 C 0.47236 0.6427 0.46081 0.0
C841 C 0.41368 0.64977 0.45826 0.0
C842 C 0.47364 0.65312 0.48723 0.0
C843 C 0.48401 0.64118 0.50807 0.0
C844 C 0.49351 0.61863 0.50293 0.0
C845 C 0.49189 0.60814 0.4765 0.0
C846 C 0.48153 0.62004 0.45576 0.0
H847 H 0.39177 0.64783 0.45116 0.0
H848 H 0.41424 0.63009 0.46544 0.0
H849 H 0.41844 0.6643 0.47549 0.0
H850 H 0.46728 0.67088 0.49167 0.0
H851 H 0.48505 0.64993 0.5281 0.0
H852 H 0.19351 0.44908 0.88106 0.0
H853 H 0.17444 0.47818 0.90934 0.0
H854 H 0.12956 0.49524 0.84167 0.0
H855 H 0.14678 0.46407 0.81354 0.0
H856 H 0.17754 0.52714 0.91281 0.0
H857 H 0.06429 0.47225 0.89127 0.0
H858 H 0.0931 0.46026 0.87937 0.0
H859 H 0.08387 0.48616 0.86206 0.0
C860 C 0.17932 0.45874 0.87211 0.0
C861 C 0.17104 0.45348 0.84509 0.0
C862 C 0.16861 0.47569 0.88836 0.0
C863 C 0.14971 0.4884 0.87803 0.0
C864 C 0.14318 0.48493 0.85051 0.0
H865 H 0.10569 0.60938 0.98218 0.0
H866 H 0.12664 0.58711 0.94753 0.0
C867 C 0.15351 0.46745 0.83425 0.0
C868 C 0.1367 0.50458 0.89652 0.0
H869 H 0.07306 0.51102 0.91917 0.0
C870 C 0.15466 0.52357 0.91415 0.0
C871 C 0.10678 0.49975 0.89876 0.0
C872 C 0.08586 0.47833 0.88207 0.0
C873 C 0.14373 0.53735 0.93411 0.0
C874 C 0.11388 0.53311 0.93582 0.0
C875 C 0.09592 0.51449 0.91789 0.0
C876 C 0.1007 0.54701 0.95655 0.0
C877 C 0.16437 0.55531 0.95389 0.0
C878 C 0.07807 0.53222 0.97252 0.0
C879 C 0.0654 0.54507 0.99178 0.0
C880 C 0.07541 0.57297 0.99591 0.0
C881 C 0.09785 0.5878 0.97984 0.0
C882 C 0.11005 0.57502 0.96013 0.0
H883 H 0.18433 0.54958 0.95532 0.0
H884 H 0.17029 0.57621 0.9471 0.0
H885 H 0.15486 0.55465 0.97418 0.0
H886 H 0.07018 0.51064 0.97013 0.0
H887 H 0.0477 0.53313 1.00337 0.0
H888 H 0.6898 0.8958 0.94536 0.0
H889 H 0.67491 0.9343 0.96126 0.0
H890 H 0.59599 0.9037 0.91764 0.0
H891 H 0.61087 0.86546 0.90118 0.0
H892 H 0.6537 0.97392 0.93102 0.0
H893 H 0.57476 0.90899 0.9995 0.0
H894 H 0.60426 0.8993 0.98524 0.0
H895 H 0.57359 0.89742 0.96514 0.0
C896 C 0.66955 0.89753 0.93866 0.0
C897 C 0.6514 0.87738 0.92219 0.0
C898 C 0.66104 0.91949 0.94786 0.0
C899 C 0.63424 0.92161 0.94085 0.0
C900 C 0.61662 0.90221 0.92351 0.0
H901 H 0.52964 1.01785 0.99901 0.0
H902 H 0.5497 0.98682 0.9742 0.0
C903 C 0.62511 0.88032 0.91425 0.0
C904 C 0.62386 0.94312 0.95296 0.0
H905 H 0.57473 0.95379 0.9971 0.0
C906 C 0.63647 0.96963 0.9455 0.0
C907 C 0.60143 0.93735 0.97185 0.0
C908 C 0.58777 0.90928 0.98115 0.0
C909 C 0.62674 0.99056 0.95606 0.0
C910 C 0.60424 0.98476 0.97497 0.0
C911 C 0.59185 0.95821 0.9825 0.0
C912 C 0.59307 1.00573 0.98745 0.0
C913 C 0.64015 0.0185 0.9464 0.0
C914 C 0.61085 0.02699 1.00285 0.0
C915 C 0.59945 0.04496 0.01694 0.0
C916 C 0.56999 0.04172 0.0162 0.0
C917 C 0.5524 0.02086 1.00014 0.0
C918 C 0.56383 1.00309 0.98592 0.0
H919 H 0.65095 0.01833 0.92679 0.0
H920 H 0.62397 0.02928 0.94441 0.0
H921 H 0.65642 0.02981 0.96111 0.0
H922 H 0.63335 0.0291 1.00484 0.0
H923 H 0.61355 0.06067 0.0293 0.0
H924 H 0.82645 0.21861 0.50857 0.0
H925 H 0.8658 0.20024 0.517 0.0
H926 H 0.82541 0.13117 0.46661 0.0
H927 H 0.78572 0.14919 0.45844 0.0
H928 H 0.83984 0.11959 0.5185 0.0
H929 H 0.93136 0.19112 0.46862 0.0
H930 H 0.91098 0.20658 0.49019 0.0
H931 H 0.89468 0.18804 0.46067 0.0
C932 C 0.82611 0.19963 0.49911 0.0
C933 C 0.80303 0.18528 0.48292 0.0
C934 C 0.84871 0.18931 0.50371 0.0
C935 C 0.84859 0.16453 0.49216 0.0
C936 C 0.82593 0.15045 0.47548 0.0
H937 H 0.98271 0.08807 0.51113 0.0
H938 H 0.94675 0.10611 0.49193 0.0
C939 C 0.80339 0.16081 0.47076 0.0
C940 C 0.8707 0.15219 0.49961 0.0
H941 H 0.94254 0.16177 0.49949 0.0
C942 C 0.86226 0.12863 0.5141 0.0
C943 C 0.89986 0.16399 0.49366 0.0
C944 C 0.90983 0.1887 0.47721 0.0
C945 C 0.88239 0.11703 0.52366 0.0
C946 C 0.91163 0.12948 0.51873 0.0
C947 C 0.92005 0.15248 0.5034 0.0
C948 C 0.93377 0.11926 0.53011 0.0
C949 C 0.87232 0.0917 0.53919 0.0
C950 C 0.93846 0.12109 0.55783 0.0
C951 C 0.95899 0.11097 0.56879 0.0
C952 C 0.97504 0.09884 0.55216 0.0
C953 C 0.97052 0.09728 0.52436 0.0
C954 C 0.9501 0.10757 0.51339 0.0
H955 H 0.84916 0.08159 0.53632 0.0
H956 H 0.88431 0.07753 0.53308 0.0
H957 H 0.87623 0.09666 0.56084 0.0
H958 H 0.92619 0.13032 0.57095 0.0
H959 H 0.96219 0.11252 0.59027 0.0
H960 H 0.30507 0.71543 0.24061 0.0
H961 H 0.25997 0.68847 0.22005 0.0
H962 H 0.28648 0.72611 0.14483 0.0
H963 H 0.33164 0.75232 0.16482 0.0
H964 H 0.21733 0.7048 0.19589 0.0
H965 H 0.26297 0.6471 0.12294 0.0
H966 H 0.28322 0.66607 0.15077 0.0
H967 H 0.27882 0.68258 0.12081 0.0
C968 C 0.3014 0.71775 0.21962 0.0
C969 C 0.32203 0.7362 0.20447 0.0
C970 C 0.27554 0.70243 0.20793 0.0
C971 C 0.26991 0.70496 0.18076 0.0
C972 C 0.29044 0.72339 0.16567 0.0
H973 H 0.10868 0.66381 0.09572 0.0
H974 H 0.15273 0.68558 0.12022 0.0
C975 C 0.31617 0.73869 0.1773 0.0
C976 C 0.24242 0.68894 0.16817 0.0
H977 H 0.21463 0.64601 0.11552 0.0
C978 C 0.21673 0.69177 0.17845 0.0
C979 C 0.24148 0.67161 0.14562 0.0
C980 C 0.26806 0.6664 0.13453 0.0
C981 C 0.19032 0.6785 0.16629 0.0
C982 C 0.18955 0.66225 0.14291 0.0
C983 C 0.21515 0.65871 0.1332 0.0
C984 C 0.1625 0.6489 0.12811 0.0
C985 C 0.16346 0.68184 0.17877 0.0
C986 C 0.15356 0.62102 0.12362 0.0
C987 C 0.12842 0.60847 0.10935 0.0
C988 C 0.11166 0.62352 0.09908 0.0
C989 C 0.12085 0.65149 0.10341 0.0
C990 C 0.146 0.664 0.11764 0.0
H991 H 0.16665 0.68806 0.20026 0.0
H992 H 0.1573 0.69763 0.16828 0.0
H993 H 0.14557 0.663 0.17702 0.0
H994 H 0.16597 0.6089 0.13131 0.0
H995 H 0.12214 0.58692 0.10646 0.0
H996 H 0.2344 0.44737 0.66925 0.0
H997 H 0.2781 0.47449 0.64823 0.0
H998 H 0.32209 0.48356 0.7238 0.0
H999 H 0.27884 0.45528 0.74471 0.0
H1000 H 0.31313 0.52506 0.65598 0.0
H1001 H 0.37206 0.4524 0.67671 0.0
H1002 H 0.33412 0.4448 0.68178 0.0
H1003 H 0.3586 0.46508 0.70612 0.0
C1004 C 0.25337 0.45506 0.68144 0.0
C1005 C 0.25309 0.44872 0.70864 0.0
C1006 C 0.27833 0.47075 0.6694 0.0
C1007 C 0.30364 0.48057 0.68423 0.0
C1008 C 0.30305 0.47564 0.71174 0.0
H1009 H 0.47766 0.56263 0.63065 0.0
H1010 H 0.43475 0.54632 0.65828 0.0
C1011 C 0.27811 0.45977 0.72379 0.0
C1012 C 0.3307 0.49507 0.67055 0.0
H1013 H 0.3979 0.49213 0.65592 0.0
C1014 C 0.33168 0.51789 0.65606 0.0
C1015 C 0.35497 0.48571 0.67051 0.0
C1016 C 0.35492 0.46053 0.68438 0.0
C1017 C 0.35613 0.53149 0.64156 0.0
C1018 C 0.3802 0.52195 0.64135 0.0
C1019 C 0.37947 0.4995 0.65623 0.0
C1020 C 0.40582 0.53401 0.62471 0.0
C1021 C 0.35606 0.55601 0.6266 0.0
C1022 C 0.40381 0.53262 0.59666 0.0
C1023 C 0.42827 0.54174 0.58086 0.0
C1024 C 0.45525 0.55246 0.59279 0.0
C1025 C 0.45716 0.55452 0.62088 0.0
C1026 C 0.43268 0.54518 0.63669 0.0
H1027 H 0.33925 0.56465 0.63413 0.0
H1028 H 0.37709 0.57159 0.62826 0.0
H1029 H 0.35185 0.55046 0.60509 0.0
H1030 H 0.3834 0.52369 0.58696 0.0
H1031 H 0.42614 0.53986 0.55928 0.0
H1032 H 0.81899 0.83213 0.92739 0.0
H1033 H 0.84356 0.80503 0.95079 0.0
H1034 H 0.76919 0.73627 0.9423 0.0
H1035 H 0.74442 0.76326 0.91868 0.0
H1036 H 0.82183 0.77055 0.99982 0.0
H1037 H 0.84052 0.71624 0.90699 0.0
H1038 H 0.83409 0.74838 0.90592 0.0
H1039 H 0.80536 0.71912 0.91324 0.0
C1040 C 0.80787 0.81124 0.93051 0.0
C1041 C 0.77986 0.79975 0.92108 0.0
C1042 C 0.82185 0.79586 0.94399 0.0
C1043 C 0.8082 0.76869 0.94808 0.0
C1044 C 0.78006 0.75722 0.93919 0.0
H1045 H 0.89607 0.65576 1.00029 0.0
H1046 H 0.85794 0.67367 0.98619 0.0
C1047 C 0.76593 0.77266 0.92586 0.0
C1048 C 0.82396 0.75237 0.96095 0.0
H1049 H 0.86096 0.70791 0.94674 0.0
C1050 C 0.83016 0.75661 0.98834 0.0
C1051 C 0.8345 0.73408 0.9459 0.0
C1052 C 0.82849 0.7291 0.91634 0.0
C1053 C 0.84728 0.74343 1.00103 0.0
C1054 C 0.85912 0.72617 0.98569 0.0
C1055 C 0.85194 0.72116 0.95849 0.0
C1056 C 0.88079 0.71483 0.9968 0.0
C1057 C 0.85254 0.74822 0.03072 0.0
C1058 C 0.90623 0.73196 1.00758 0.0
C1059 C 0.92785 0.72178 0.01591 0.0
C1060 C 0.92476 0.69425 1.01325 0.0
C1061 C 0.89903 0.67702 1.00291 0.0
C1062 C 0.87729 0.68724 0.99468 0.0
H1063 H 0.83464 0.75357 0.04079 0.0
H1064 H 0.8554 0.73035 0.04025 0.0
H1065 H 0.87216 0.76523 0.03406 0.0
H1066 H 0.90976 0.75338 1.00884 0.0
H1067 H 0.94722 0.7356 0.02407 0.0
H1068 H 0.44408 0.81742 0.20113 0.0
H1069 H 0.46521 0.86129 0.18208 0.0
H1070 H 0.38478 0.87816 0.19003 0.0
H1071 H 0.36373 0.83469 0.21013 0.0
H1072 H 0.45029 0.88047 0.13613 0.0
H1073 H 0.439 0.94607 0.22227 0.0
H1074 H 0.43443 0.91084 0.22553 0.0
H1075 H 0.40623 0.92185 0.21192 0.0
C1076 C 0.43098 0.83065 0.19945 0.0
C1077 C 0.40217 0.82243 0.20745 0.0
C1078 C 0.44306 0.8557 0.18827 0.0
C1079 C 0.42676 0.8733 0.18485 0.0
C1080 C 0.39803 0.86526 0.19289 0.0
H1081 H 0.47291 0.03239 0.11276 0.0
H1082 H 0.44579 0.98933 0.13162 0.0
C1083 C 0.38592 0.84019 0.20413 0.0
C1084 C 0.43963 0.89949 0.17186 0.0
H1085 H 0.45529 0.96735 0.18152 0.0
C1086 C 0.45137 0.89944 0.14611 0.0
C1087 C 0.44092 0.92435 0.18471 0.0
C1088 C 0.42972 0.92593 0.21272 0.0
C1089 C 0.46437 0.92338 0.13297 0.0
C1090 C 0.46612 0.94822 0.14599 0.0
C1091 C 0.45388 0.94833 0.17149 0.0
C1092 C 0.48213 0.97421 0.13413 0.0
C1093 C 0.47602 0.92187 0.10512 0.0
C1094 C 0.51155 0.98015 0.12946 0.0
C1095 C 0.52699 1.00462 0.11882 0.0
C1096 C 0.51342 0.02383 0.11264 0.0
C1097 C 0.48393 1.01795 0.11725 0.0
C1098 C 0.46845 0.9934 0.12807 0.0
H1099 H 0.46605 0.90205 0.09514 0.0
H1100 H 0.47253 0.93766 0.0925 0.0
H1101 H 0.49932 0.92488 0.10635 0.0
H1102 H 0.52272 0.96595 0.13437 0.0
H1103 H 0.54969 1.00855 0.11561 0.0
H1104 H 0.1769 0.33425 0.73429 0.0
H1105 H 0.15629 0.29233 0.70902 0.0
H1106 H 0.15445 0.33631 0.63798 0.0
H1107 H 0.17501 0.37851 0.66322 0.0
H1108 H 0.1049 0.27402 0.6818 0.0
H1109 H 0.19583 0.28309 0.61209 0.0
H1110 H 0.19867 0.30403 0.64195 0.0
H1111 H 0.18148 0.31087 0.61261 0.0
C1112 C 0.17185 0.3351 0.71335 0.0
C1113 C 0.17758 0.35984 0.70083 0.0
C1114 C 0.16022 0.31106 0.69888 0.0
C1115 C 0.15418 0.31109 0.67149 0.0
C1116 C 0.15951 0.33572 0.65894 0.0
H1117 H 0.08265 0.17872 0.55635 0.0
H1118 H 0.10222 0.22299 0.57804 0.0
C1119 C 0.17121 0.35984 0.67342 0.0
C1120 C 0.14192 0.28528 0.65638 0.0
H1121 H 0.15481 0.24604 0.60472 0.0
C1122 C 0.11583 0.26792 0.66495 0.0
C1123 C 0.15612 0.27733 0.63431 0.0
C1124 C 0.18469 0.29465 0.62476 0.0
C1125 C 0.10355 0.2429 0.65208 0.0
C1126 C 0.11797 0.23476 0.63031 0.0
C1127 C 0.14381 0.25228 0.62143 0.0
C1128 C 0.10683 0.20787 0.61696 0.0
C1129 C 0.07504 0.22553 0.66173 0.0
C1130 C 0.10349 0.18463 0.63146 0.0
C1131 C 0.09235 0.15931 0.61915 0.0
C1132 C 0.08441 0.15664 0.59198 0.0
C1133 C 0.08842 0.17998 0.57732 0.0
C1134 C 0.09963 0.20533 0.58967 0.0
H1135 H 0.06337 0.23737 0.67338 0.0
H1136 H 0.06148 0.21508 0.64468 0.0
H1137 H 0.07846 0.21017 0.67498 0.0
H1138 H 0.10945 0.18607 0.65239 0.0
H1139 H 0.08971 0.14183 0.63107 0.0
H1140 H 0.67996 0.26858 0.50739 0.0
H1141 H 0.6641 0.30853 0.50714 0.0
H1142 H 0.69582 0.3297 0.58748 0.0
H1143 H 0.71254 0.2901 0.58773 0.0
H1144 H 0.63678 0.32908 0.57716 0.0
H1145 H 0.715 0.38857 0.50488 0.0
H1146 H 0.69788 0.35439 0.49451 0.0
H1147 H 0.72116 0.36155 0.52306 0.0
C1148 C 0.68403 0.28194 0.52486 0.0
C1149 C 0.69762 0.27618 0.54755 0.0
C1150 C 0.6749 0.30471 0.52469 0.0
C1151 C 0.67913 0.32212 0.54717 0.0
C1152 C 0.69251 0.31648 0.56992 0.0
H1153 H 0.61002 0.45668 0.57693 0.0
H1154 H 0.63535 0.42348 0.5825 0.0
C1155 C 0.70184 0.29377 0.57007 0.0
C1156 C 0.66832 0.34554 0.54721 0.0
H1157 H 0.67484 0.40358 0.51526 0.0
C1158 C 0.64525 0.34559 0.56391 0.0
C1159 C 0.67952 0.36688 0.52984 0.0
C1160 C 0.70492 0.36809 0.51218 0.0
C1161 C 0.63216 0.36594 0.56282 0.0
C1162 C 0.64295 0.38704 0.54498 0.0
C1163 C 0.66661 0.38735 0.52887 0.0
C1164 C 0.62901 0.40814 0.54158 0.0
C1165 C 0.60613 0.36401 0.57986 0.0
C1166 C 0.61799 0.41114 0.5165 0.0
C1167 C 0.60398 0.43038 0.51311 0.0
C1168 C 0.60068 0.44698 0.53479 0.0
C1169 C 0.61231 0.4443 0.5598 0.0
C1170 C 0.62649 0.42513 0.56311 0.0
H1171 H 0.59671 0.34357 0.58753 0.0
H1172 H 0.61224 0.37811 0.59735 0.0
H1173 H 0.58954 0.36946 0.56839 0.0
H1174 H 0.61991 0.39835 0.49957 0.0
H1175 H 0.59581 0.43228 0.49347 0.0
loop_
_geom_bond_atom_site_label_1
_geom_bond_atom_site_label_2
_geom_bond_distance
_geom_bond_site_symmetry_2
_ccdc_geom_bond_type
H0 C1 0.949 . S
C1 H0 0.949 . S
C1 C2 1.395 . S
C1 C3 1.391 . S
C2 C1 1.395 . S
C2 C5 1.390 . S
C3 C1 1.391 . S
C3 C7 1.387 . S
C3 C8 1.491 . S
H4 C5 0.950 . S
C5 C2 1.390 . S
C5 H4 0.950 . S
C5 C6 1.378 . S
C6 C5 1.378 . S
C6 C7 1.409 . S
C7 C3 1.387 . S
C7 C6 1.409 . S
C7 H9 0.951 . S
C8 C3 1.491 . S
C8 C10 1.382 . S
C8 C12 1.404 . S
H9 C7 0.951 . S
C10 C8 1.382 . S
C10 C11 1.390 . S
C10 H15 0.949 . S
C11 C10 1.390 . S
C11 C16 1.399 . S
C12 C8 1.404 . S
C12 H13 0.950 . S
C12 C14 1.375 . S
H13 C12 0.950 . S
C14 C12 1.375 . S
C14 C16 1.382 . S
C14 H18 0.950 . S
H15 C10 0.949 . S
C16 C11 1.399 . S
C16 C14 1.382 . S
C16 H17 0.952 . S
H17 C16 0.952 . S
H18 C14 0.950 . S
H19 C20 0.949 . S
C20 H19 0.949 . S
C20 C21 1.395 . S
C20 C22 1.391 . S
C21 C20 1.395 . S
C21 C24 1.390 . S
C22 C20 1.391 . S
C22 C26 1.387 . S
C22 C27 1.491 . S
H23 C24 0.950 . S
C24 C21 1.390 . S
C24 H23 0.950 . S
C24 C25 1.378 . S
C25 C24 1.378 . S
C25 C26 1.409 . S
C26 C22 1.387 . S
C26 C25 1.409 . S
C26 H28 0.951 . S
C27 C22 1.491 . S
C27 C29 1.382 . S
C27 C31 1.404 . S
H28 C26 0.951 . S
C29 C27 1.382 . S
C29 C30 1.390 . S
C29 H34 0.949 . S
C30 C29 1.390 . S
C30 C35 1.399 . S
C31 C27 1.404 . S
C31 H32 0.950 . S
C31 C33 1.375 . S
H32 C31 0.950 . S
C33 C31 1.375 . S
C33 C35 1.382 . S
C33 H37 0.950 . S
H34 C29 0.949 . S
C35 C30 1.399 . S
C35 C33 1.382 . S
C35 H36 0.952 . S
H36 C35 0.952 . S
H37 C33 0.950 . S
H38 C39 0.949 . S
C39 H38 0.949 . S
C39 C40 1.395 . S
C39 C41 1.391 . S
C40 C39 1.395 . S
C40 C43 1.390 . S
C41 C39 1.391 . S
C41 C45 1.387 . S
C41 C46 1.491 . S
H42 C43 0.950 . S
C43 C40 1.390 . S
C43 H42 0.950 . S
C43 C44 1.378 . S
C44 C43 1.378 . S
C44 C45 1.409 . S
C45 C41 1.387 . S
C45 C44 1.409 . S
C45 H47 0.951 . S
C46 C41 1.491 . S
C46 C48 1.382 . S
C46 C50 1.404 . S
H47 C45 0.951 . S
C48 C46 1.382 . S
C48 C49 1.390 . S
C48 H53 0.949 . S
C49 C48 1.390 . S
C49 C54 1.399 . S
C50 C46 1.404 . S
C50 H51 0.950 . S
C50 C52 1.375 . S
H51 C50 0.950 . S
C52 C50 1.375 . S
C52 C54 1.382 . S
C52 H56 0.950 . S
H53 C48 0.949 . S
C54 C49 1.399 . S
C54 C52 1.382 . S
C54 H55 0.952 . S
H55 C54 0.952 . S
H56 C52 0.950 . S
H57 C58 0.949 . S
C58 H57 0.949 . S
C58 C59 1.395 . S
C58 C60 1.391 . S
C59 C58 1.395 . S
C59 C62 1.390 . S
C60 C58 1.391 . S
C60 C64 1.387 . S
C60 C65 1.491 . S
H61 C62 0.950 . S
C62 C59 1.390 . S
C62 H61 0.950 . S
C62 C63 1.378 . S
C63 C62 1.378 . S
C63 C64 1.409 . S
C64 C60 1.387 . S
C64 C63 1.409 . S
C64 H66 0.951 . S
C65 C60 1.491 . S
C65 C67 1.382 . S
C65 C69 1.404 . S
H66 C64 0.951 . S
C67 C65 1.382 . S
C67 C68 1.390 . S
C67 H72 0.949 . S
C68 C67 1.390 . S
C68 C73 1.399 . S
C69 C65 1.404 . S
C69 H70 0.950 . S
C69 C71 1.375 . S
H70 C69 0.950 . S
C71 C69 1.375 . S
C71 C73 1.382 . S
C71 H75 0.950 . S
H72 C67 0.949 . S
C73 C68 1.399 . S
C73 C71 1.382 . S
C73 H74 0.952 . S
H74 C73 0.952 . S
H75 C71 0.950 . S
H76 C77 0.949 . S
C77 H76 0.949 . S
C77 C78 1.395 . S
C77 C79 1.391 . S
C78 C77 1.395 . S
C78 C81 1.390 . S
C79 C77 1.391 . S
C79 C83 1.387 . S
C79 C84 1.491 . S
H80 C81 0.950 . S
C81 C78 1.390 . S
C81 H80 0.950 . S
C81 C82 1.378 . S
C82 C81 1.378 . S
C82 C83 1.409 . S
C83 C79 1.387 . S
C83 C82 1.409 . S
C83 H85 0.951 . S
C84 C79 1.491 . S
C84 C86 1.382 . S
C84 C88 1.404 . S
H85 C83 0.951 . S
C86 C84 1.382 . S
C86 C87 1.390 . S
C86 H91 0.949 . S
C87 C86 1.390 . S
C87 C92 1.399 . S
C88 C84 1.404 . S
C88 H89 0.950 . S
C88 C90 1.375 . S
H89 C88 0.950 . S
C90 C88 1.375 . S
C90 C92 1.382 . S
C90 H94 0.950 . S
H91 C86 0.949 . S
C92 C87 1.399 . S
C92 C90 1.382 . S
C92 H93 0.952 . S
H93 C92 0.952 . S
H94 C90 0.950 . S
H95 C96 0.949 . S
C96 H95 0.949 . S
C96 C97 1.395 . S
C96 C98 1.391 . S
C97 C96 1.395 . S
C97 C100 1.390 . S
C98 C96 1.391 . S
C98 C102 1.387 . S
C98 C103 1.491 . S
H99 C100 0.950 . S
C100 C97 1.390 . S
C100 H99 0.950 . S
C100 C101 1.378 . S
C101 C100 1.378 . S
C101 C102 1.409 . S
C102 C98 1.387 . S
C102 C101 1.409 . S
C102 H104 0.951 . S
C103 C98 1.491 . S
C103 C105 1.382 . S
C103 C107 1.404 . S
H104 C102 0.951 . S
C105 C103 1.382 . S
C105 C106 1.390 . S
C105 H110 0.949 . S
C106 C105 1.390 . S
C106 C111 1.399 . S
C107 C103 1.404 . S
C107 H108 0.950 . S
C107 C109 1.375 . S
H108 C107 0.950 . S
C109 C107 1.375 . S
C109 C111 1.382 . S
C109 H113 0.950 . S
H110 C105 0.949 . S
C111 C106 1.399 . S
C111 C109 1.382 . S
C111 H112 0.952 . S
H112 C111 0.952 . S
H113 C109 0.950 . S
H114 C115 0.949 . S
C115 H114 0.949 . S
C115 C116 1.395 . S
C115 C117 1.391 . S
C116 C115 1.395 . S
C116 C119 1.390 . S
C117 C115 1.391 . S
C117 C121 1.387 . S
C117 C122 1.491 . S
H118 C119 0.950 . S
C119 C116 1.390 . S
C119 H118 0.950 . S
C119 C120 1.378 . S
C120 C119 1.378 . S
C120 C121 1.409 . S
C121 C117 1.387 . S
C121 C120 1.409 . S
C121 H123 0.951 . S
C122 C117 1.491 . S
C122 C124 1.382 . S
C122 C126 1.404 . S
H123 C121 0.951 . S
C124 C122 1.382 . S
C124 C125 1.390 . S
C124 H129 0.949 . S
C125 C124 1.390 . S
C125 C130 1.399 . S
C126 C122 1.404 . S
C126 H127 0.950 . S
C126 C128 1.375 . S
H127 C126 0.950 . S
C128 C126 1.375 . S
C128 C130 1.382 . S
C128 H132 0.950 . S
H129 C124 0.949 . S
C130 C125 1.399 . S
C130 C128 1.382 . S
C130 H131 0.952 . S
H131 C130 0.952 . S
H132 C128 0.950 . S
H133 C134 0.949 . S
C134 H133 0.949 . S
C134 C135 1.395 . S
C134 C136 1.391 . S
C135 C134 1.395 . S
C135 C138 1.390 . S
C136 C134 1.391 . S
C136 C140 1.387 . S
C136 C141 1.491 . S
H137 C138 0.950 . S
C138 C135 1.390 . S
C138 H137 0.950 . S
C138 C139 1.378 . S
C139 C138 1.378 . S
C139 C140 1.409 . S
C140 C136 1.387 . S
C140 C139 1.409 . S
C140 H142 0.951 . S
C141 C136 1.491 . S
C141 C143 1.382 . S
C141 C145 1.404 . S
H142 C140 0.951 . S
C143 C141 1.382 . S
C143 C144 1.390 . S
C143 H148 0.949 . S
C144 C143 1.390 . S
C144 C149 1.399 . S
C145 C141 1.404 . S
C145 H146 0.950 . S
C145 C147 1.375 . S
H146 C145 0.950 . S
C147 C145 1.375 . S
C147 C149 1.382 . S
C147 H151 0.950 . S
H148 C143 0.949 . S
C149 C144 1.399 . S
C149 C147 1.382 . S
C149 H150 0.952 . S
H150 C149 0.952 . S
H151 C147 0.950 . S
Gd152 C155 2.818 . S
Gd152 O172 2.377 . S
Gd152 O174 2.448 . S
Gd152 O175 2.506 . S
Gd152 O176 2.435 . S
Gd152 O177 2.717 . S
Gd152 O179 2.395 . S
Gd152 O183 2.294 1_455 S
Gd153 C164 2.818 1_545 S
Gd153 O173 2.395 1_655 S
Gd153 O177 2.327 1_655 S
Gd153 O178 2.389 . S
Gd153 O180 2.448 . S
Gd153 O181 2.506 1_545 S
Gd153 O182 2.435 . S
Gd153 O183 2.718 . S
C154 O172 1.240 . S
C154 O173 1.240 . S
C155 Gd152 2.818 . S
C155 C156 1.510 . S
C155 O174 1.249 . S
C155 O175 1.252 . S
C156 C155 1.510 . S
C156 C157 1.404 . S
C156 C158 1.352 . S
C157 C156 1.404 . S
C157 C161 1.389 . S
C157 H184 0.930 . S
C158 C156 1.352 . S
C158 C160 1.374 . S
C158 H185 0.931 . S
C159 C160 1.359 . S
C159 C161 1.364 . S
C160 C158 1.374 . S
C160 C159 1.359 . S
C160 H186 0.931 . S
C161 C157 1.389 . S
C161 C159 1.364 . S
C161 H187 0.931 . S
C162 O176 1.256 . S
C162 O177 1.257 . S
C163 O178 1.229 1_565 S
C163 O179 1.240 1_665 S
C164 Gd153 2.818 1_565 S
C164 C165 1.510 . S
C164 O180 1.249 1_565 S
C164 O181 1.252 . S
C165 C164 1.510 . S
C165 C166 1.404 . S
C165 C167 1.352 . S
C166 C165 1.404 . S
C166 C170 1.389 . S
C166 H188 0.930 . S
C167 C165 1.352 . S
C167 C169 1.374 . S
C167 H189 0.931 . S
C168 C169 1.359 . S
C168 C170 1.364 . S
C169 C167 1.374 . S
C169 C168 1.359 . S
C169 H190 0.931 . S
C170 C166 1.389 . S
C170 C168 1.364 . S
C170 H191 0.931 . S
C171 O182 1.256 . S
C171 O183 1.294 . S
O172 Gd152 2.377 . S
O172 C154 1.240 . S
O173 Gd153 2.395 1_455 S
O173 C154 1.240 . S
O174 Gd152 2.448 . S
O174 C155 1.249 . S
O175 Gd152 2.506 . S
O175 C155 1.252 . S
O176 Gd152 2.435 . S
O176 C162 1.256 . S
O177 Gd152 2.717 . S
O177 Gd153 2.327 1_455 S
O177 C162 1.257 . S
O178 Gd153 2.389 . S
O178 C163 1.229 1_545 S
O179 Gd152 2.395 . S
O179 C163 1.240 1_445 S
O180 Gd153 2.448 . S
O180 C164 1.249 1_545 S
O181 Gd153 2.506 1_565 S
O181 C164 1.252 . S
O182 Gd153 2.435 . S
O182 C171 1.256 . S
O183 Gd152 2.294 1_655 S
O183 Gd153 2.718 . S
O183 C171 1.294 . S
H184 C157 0.930 . S
H185 C158 0.931 . S
H186 C160 0.931 . S
H187 C161 0.931 . S
H188 C166 0.930 . S
H189 C167 0.931 . S
H190 C169 0.931 . S
H191 C170 0.931 . S
Gd192 C195 2.818 . S
Gd192 O212 2.377 . S
Gd192 O214 2.448 . S
Gd192 O215 2.506 . S
Gd192 O216 2.435 . S
Gd192 O217 2.717 . S
Gd192 O219 2.395 . S
Gd192 O223 2.327 . S
Gd193 C204 2.818 1_545 S
Gd193 O213 2.395 . S
Gd193 O217 2.327 . S
Gd193 O218 2.377 . S
Gd193 O220 2.450 . S
Gd193 O221 2.506 1_545 S
Gd193 O222 2.435 . S
Gd193 O223 2.717 . S
C194 O212 1.240 . S
C194 O213 1.240 . S
C195 Gd192 2.818 . S
C195 C196 1.510 . S
C195 O214 1.249 . S
C195 O215 1.252 . S
C196 C195 1.510 . S
C196 C197 1.404 . S
C196 C198 1.352 . S
C197 C196 1.404 . S
C197 C201 1.389 . S
C197 H224 0.930 . S
C198 C196 1.352 . S
C198 C200 1.374 . S
C198 H225 0.931 . S
C199 C200 1.359 . S
C199 C201 1.364 . S
C200 C198 1.374 . S
C200 C199 1.359 . S
C200 H226 0.931 . S
C201 C197 1.389 . S
C201 C199 1.364 . S
C201 H227 0.931 . S
C202 O216 1.256 1_565 S
C202 O217 1.257 1_565 S
C203 O218 1.240 . S
C203 O219 1.240 . S
C204 Gd193 2.818 1_565 S
C204 C205 1.510 1_554 S
C204 O220 1.249 1_565 S
C204 O221 1.252 . S
C205 C204 1.510 1_556 S
C205 C206 1.404 . S
C205 C207 1.352 . S
C206 C205 1.404 . S
C206 C210 1.389 . S
C206 H228 0.930 1_565 S
C207 C205 1.352 . S
C207 C209 1.374 . S
C207 H229 0.931 . S
C208 C209 1.359 . S
C208 C210 1.364 . S
C209 C207 1.374 . S
C209 C208 1.359 . S
C209 H230 0.931 . S
C210 C206 1.389 . S
C210 C208 1.364 . S
C210 H231 0.931 . S
C211 O222 1.256 . S
C211 O223 1.257 . S
O212 Gd192 2.377 . S
O212 C194 1.240 . S
O213 Gd193 2.395 . S
O213 C194 1.240 . S
O214 Gd192 2.448 . S
O214 C195 1.249 . S
O215 Gd192 2.506 . S
O215 C195 1.252 . S
O216 Gd192 2.435 . S
O216 C202 1.256 1_545 S
O217 Gd192 2.717 . S
O217 Gd193 2.327 . S
O217 C202 1.257 1_545 S
O218 Gd193 2.377 . S
O218 C203 1.240 . S
O219 Gd192 2.395 . S
O219 C203 1.240 . S
O220 Gd193 2.450 . S
O220 C204 1.249 1_545 S
O221 Gd193 2.506 1_565 S
O221 C204 1.252 . S
O222 Gd193 2.435 . S
O222 C211 1.256 . S
O223 Gd192 2.327 . S
O223 Gd193 2.717 . S
O223 C211 1.257 . S
H224 C197 0.930 . S
H225 C198 0.931 . S
H226 C200 0.931 . S
H227 C201 0.931 . S
H228 C206 0.930 1_545 S
H229 C207 0.931 . S
H230 C209 0.931 . S
H231 C210 0.931 . S
Gd232 C235 2.818 . S
Gd232 O252 2.377 . S
Gd232 O254 2.448 . S
Gd232 O255 2.506 . S
Gd232 O256 2.435 . S
Gd232 O257 2.717 . S
Gd232 O259 2.395 . S
Gd232 O263 2.327 . S
Gd233 C244 2.818 . S
Gd233 O253 2.395 . S
Gd233 O257 2.327 . S
Gd233 O258 2.377 . S
Gd233 O260 2.448 . S
Gd233 O261 2.506 . S
Gd233 O262 2.435 . S
Gd233 O263 2.717 . S
C234 O252 1.240 . S
C234 O253 1.240 . S
C235 Gd232 2.818 . S
C235 C236 1.510 . S
C235 O254 1.249 . S
C235 O255 1.252 . S
C236 C235 1.510 . S
C236 C237 1.404 . S
C236 C238 1.352 . S
C237 C236 1.404 . S
C237 C241 1.389 . S
C237 H264 0.930 . S
C238 C236 1.352 . S
C238 C240 1.374 . S
C238 H265 0.931 . S
C239 C240 1.359 . S
C239 C241 1.364 . S
C240 C238 1.374 . S
C240 C239 1.359 . S
C240 H266 0.931 . S
C241 C237 1.389 . S
C241 C239 1.364 . S
C241 H267 0.931 . S
C242 O256 1.256 . S
C242 O257 1.257 . S
C243 O258 1.240 . S
C243 O259 1.240 . S
C244 Gd233 2.818 . S
C244 C245 1.510 . S
C244 O260 1.249 . S
C244 O261 1.252 . S
C245 C244 1.510 . S
C245 C246 1.404 . S
C245 C247 1.352 . S
C246 C245 1.404 . S
C246 C250 1.389 . S
C246 H268 0.930 . S
C247 C245 1.352 . S
C247 C249 1.374 . S
C247 H269 0.931 . S
C248 C249 1.359 . S
C248 C250 1.364 . S
C249 C247 1.374 . S
C249 C248 1.359 . S
C249 H270 0.931 . S
C250 C246 1.389 . S
C250 C248 1.364 . S
C250 H271 0.931 . S
C251 O262 1.256 . S
C251 O263 1.257 . S
O252 Gd232 2.377 . S
O252 C234 1.240 . S
O253 Gd233 2.395 . S
O253 C234 1.240 . S
O254 Gd232 2.448 . S
O254 C235 1.249 . S
O255 Gd232 2.506 . S
O255 C235 1.252 . S
O256 Gd232 2.435 . S
O256 C242 1.256 . S
O257 Gd232 2.717 . S
O257 Gd233 2.327 . S
O257 C242 1.257 . S
O258 Gd233 2.377 . S
O258 C243 1.240 . S
O259 Gd232 2.395 . S
O259 C243 1.240 . S
O260 Gd233 2.448 . S
O260 C244 1.249 . S
O261 Gd233 2.506 . S
O261 C244 1.252 . S
O262 Gd233 2.435 . S
O262 C251 1.256 . S
O263 Gd232 2.327 . S
O263 Gd233 2.717 . S
O263 C251 1.257 . S
H264 C237 0.930 . S
H265 C238 0.931 . S
H266 C240 0.931 . S
H267 C241 0.931 . S
H268 C246 0.930 . S
H269 C247 0.931 . S
H270 C249 0.931 . S
H271 C250 0.931 . S
Gd272 C275 2.818 . S
Gd272 O292 2.377 . S
Gd272 O294 2.448 . S
Gd272 O295 2.506 . S
Gd272 O296 2.435 . S
Gd272 O297 2.717 . S
Gd272 O299 2.395 1_455 S
Gd272 O303 2.327 1_554 S
Gd273 C284 2.818 1_455 S
Gd273 O293 2.395 1_556 S
Gd273 O297 2.327 1_556 S
Gd273 O298 2.371 1_455 S
Gd273 O300 2.448 . S
Gd273 O301 2.506 1_455 S
Gd273 O302 2.435 . S
Gd273 O303 2.717 . S
C274 O292 1.240 . S
C274 O293 1.240 . S
C275 Gd272 2.818 . S
C275 C276 1.510 . S
C275 O294 1.249 . S
C275 O295 1.252 . S
C276 C275 1.510 . S
C276 C277 1.404 . S
C276 C278 1.352 . S
C277 C276 1.404 . S
C277 C281 1.389 . S
C277 H304 0.930 . S
C278 C276 1.352 . S
C278 C280 1.374 . S
C278 H305 0.931 . S
C279 C280 1.359 . S
C279 C281 1.364 . S
C280 C278 1.374 . S
C280 C279 1.359 . S
C280 H306 0.931 . S
C281 C277 1.389 . S
C281 C279 1.364 . S
C281 H307 0.931 . S
C282 O296 1.256 . S
C282 O297 1.257 . S
C283 O298 1.244 . S
C283 O299 1.240 1_556 S
C284 Gd273 2.818 1_655 S
C284 C285 1.510 . S
C284 O300 1.249 1_655 S
C284 O301 1.252 . S
C285 C284 1.510 . S
C285 C286 1.404 . S
C285 C287 1.352 . S
C286 C285 1.404 . S
C286 C290 1.389 . S
C286 H308 0.930 . S
C287 C285 1.352 . S
C287 C289 1.374 . S
C287 H309 0.931 . S
C288 C289 1.359 . S
C288 C290 1.364 . S
C289 C287 1.374 . S
C289 C288 1.359 . S
C289 H310 0.931 . S
C290 C286 1.389 . S
C290 C288 1.364 . S
C290 H311 0.931 . S
C291 O302 1.256 . S
C291 O303 1.257 . S
O292 Gd272 2.377 . S
O292 C274 1.240 . S
O293 Gd273 2.395 1_554 S
O293 C274 1.240 . S
O294 Gd272 2.448 . S
O294 C275 1.249 . S
O295 Gd272 2.506 . S
O295 C275 1.252 . S
O296 Gd272 2.435 . S
O296 C282 1.256 . S
O297 Gd272 2.717 . S
O297 Gd273 2.327 1_554 S
O297 C282 1.257 . S
O298 Gd273 2.371 1_655 S
O298 C283 1.244 . S
O299 Gd272 2.395 1_655 S
O299 C283 1.240 1_554 S
O300 Gd273 2.448 . S
O300 C284 1.249 1_455 S
O301 Gd273 2.506 1_655 S
O301 C284 1.252 . S
O302 Gd273 2.435 . S
O302 C291 1.256 . S
O303 Gd272 2.327 1_556 S
O303 Gd273 2.717 . S
O303 C291 1.257 . S
H304 C277 0.930 . S
H305 C278 0.931 . S
H306 C280 0.931 . S
H307 C281 0.931 . S
H308 C286 0.930 . S
H309 C287 0.931 . S
H310 C289 0.931 . S
H311 C290 0.931 . S
H312 C320 0.929 . S
H313 C322 0.930 . S
H314 C324 0.930 . S
H315 C327 0.929 . S
H316 C330 0.930 . S
H317 C332 0.960 . S
H318 C332 0.960 . S
H319 C332 0.960 . S
C320 H312 0.929 . S
C320 C321 1.377 . S
C320 C322 1.384 . S
C321 C320 1.377 . S
C321 C327 1.390 . S
C322 H313 0.930 . S
C322 C320 1.384 . S
C322 C323 1.372 . S
C323 C322 1.372 . S
C323 C324 1.400 . S
C323 C328 1.490 . S
C324 H314 0.930 . S
C324 C323 1.400 . S
C324 C327 1.386 . S
H325 C341 0.930 . S
H326 C342 0.931 . S
C327 H315 0.929 . S
C327 C321 1.390 . S
C327 C324 1.386 . S
C328 C323 1.490 . S
C328 C330 1.395 . S
C328 C331 1.403 . S
H329 C335 0.930 . S
C330 H316 0.930 . S
C330 C328 1.395 . S
C330 C333 1.403 . S
C331 C328 1.403 . S
C331 C332 1.524 . S
C331 C335 1.400 . S
C332 H317 0.960 . S
C332 H318 0.960 . S
C332 H319 0.960 . S
C332 C331 1.524 . S
C333 C330 1.403 . S
C333 C334 1.392 . S
C333 C337 1.495 . S
C334 C333 1.392 . S
C334 C335 1.385 . S
C334 C336 1.478 . S
C335 H329 0.930 . S
C335 C331 1.400 . S
C335 C334 1.385 . S
C336 C334 1.478 . S
C336 C338 1.381 . S
C336 C342 1.383 . S
C337 C333 1.495 . S
C337 H343 0.959 . S
C337 H344 0.961 . S
C337 H345 0.960 . S
C338 C336 1.381 . S
C338 C339 1.394 . S
C338 H346 0.930 . S
C339 C338 1.394 . S
C339 C340 1.383 . S
C339 H347 0.929 . S
C340 C339 1.383 . S
C340 C341 1.377 . S
C341 H325 0.930 . S
C341 C340 1.377 . S
C341 C342 1.379 . S
C342 H326 0.931 . S
C342 C336 1.383 . S
C342 C341 1.379 . S
H343 C337 0.959 . S
H344 C337 0.961 . S
H345 C337 0.960 . S
H346 C338 0.930 . S
H347 C339 0.929 . S
H348 C356 0.929 . S
H349 C358 0.930 . S
H350 C360 0.930 . S
H351 C363 0.929 . S
H352 C366 0.930 . S
H353 C368 0.960 . S
H354 C368 0.960 . S
H355 C368 0.960 . S
C356 H348 0.929 . S
C356 C357 1.377 . S
C356 C358 1.384 . S
C357 C356 1.377 . S
C357 C363 1.390 . S
C358 H349 0.930 . S
C358 C356 1.384 . S
C358 C359 1.372 . S
C359 C358 1.372 . S
C359 C360 1.400 . S
C359 C364 1.490 . S
C360 H350 0.930 . S
C360 C359 1.400 . S
C360 C363 1.386 . S
H361 C377 0.930 . S
H362 C378 0.931 . S
C363 H351 0.929 . S
C363 C357 1.390 . S
C363 C360 1.386 . S
C364 C359 1.490 . S
C364 C366 1.395 . S
C364 C367 1.403 . S
H365 C371 0.930 . S
C366 H352 0.930 . S
C366 C364 1.395 . S
C366 C369 1.403 . S
C367 C364 1.403 . S
C367 C368 1.524 . S
C367 C371 1.400 . S
C368 H353 0.960 . S
C368 H354 0.960 . S
C368 H355 0.960 . S
C368 C367 1.524 . S
C369 C366 1.403 . S
C369 C370 1.392 . S
C369 C373 1.495 . S
C370 C369 1.392 . S
C370 C371 1.385 . S
C370 C372 1.478 . S
C371 H365 0.930 . S
C371 C367 1.400 . S
C371 C370 1.385 . S
C372 C370 1.478 . S
C372 C374 1.381 . S
C372 C378 1.383 . S
C373 C369 1.495 . S
C373 H379 0.959 . S
C373 H380 0.961 . S
C373 H381 0.960 . S
C374 C372 1.381 . S
C374 C375 1.394 . S
C374 H382 0.930 . S
C375 C374 1.394 . S
C375 C376 1.383 . S
C375 H383 0.929 . S
C376 C375 1.383 . S
C376 C377 1.377 . S
C377 H361 0.930 . S
C377 C376 1.377 . S
C377 C378 1.379 . S
C378 H362 0.931 . S
C378 C372 1.383 . S
C378 C377 1.379 . S
H379 C373 0.959 . S
H380 C373 0.961 . S
H381 C373 0.960 . S
H382 C374 0.930 . S
H383 C375 0.929 . S
H384 C392 0.929 . S
H385 C394 0.930 . S
H386 C396 0.930 . S
H387 C399 0.929 . S
H388 C402 0.930 . S
H389 C404 0.960 . S
H390 C404 0.960 . S
H391 C404 0.960 . S
C392 H384 0.929 . S
C392 C393 1.377 . S
C392 C394 1.384 . S
C393 C392 1.377 . S
C393 C399 1.390 . S
C394 H385 0.930 . S
C394 C392 1.384 . S
C394 C395 1.372 . S
C395 C394 1.372 . S
C395 C396 1.400 . S
C395 C400 1.490 . S
C396 H386 0.930 . S
C396 C395 1.400 . S
C396 C399 1.386 . S
H397 C413 0.930 . S
H398 C414 0.931 . S
C399 H387 0.929 . S
C399 C393 1.390 . S
C399 C396 1.386 . S
C400 C395 1.490 . S
C400 C402 1.395 . S
C400 C403 1.403 . S
H401 C407 0.930 . S
C402 H388 0.930 . S
C402 C400 1.395 . S
C402 C405 1.403 . S
C403 C400 1.403 . S
C403 C404 1.524 . S
C403 C407 1.400 . S
C404 H389 0.960 . S
C404 H390 0.960 . S
C404 H391 0.960 . S
C404 C403 1.524 . S
C405 C402 1.403 . S
C405 C406 1.392 . S
C405 C409 1.495 . S
C406 C405 1.392 . S
C406 C407 1.385 . S
C406 C408 1.478 . S
C407 H401 0.930 . S
C407 C403 1.400 . S
C407 C406 1.385 . S
C408 C406 1.478 . S
C408 C410 1.381 . S
C408 C414 1.383 . S
C409 C405 1.495 . S
C409 H415 0.959 . S
C409 H416 0.961 . S
C409 H417 0.960 . S
C410 C408 1.381 . S
C410 C411 1.394 . S
C410 H418 0.930 . S
C411 C410 1.394 . S
C411 C412 1.383 . S
C411 H419 0.929 . S
C412 C411 1.383 . S
C412 C413 1.377 . S
C413 H397 0.930 . S
C413 C412 1.377 . S
C413 C414 1.379 . S
C414 H398 0.931 . S
C414 C408 1.383 . S
C414 C413 1.379 . S
H415 C409 0.959 . S
H416 C409 0.961 . S
H417 C409 0.960 . S
H418 C410 0.930 . S
H419 C411 0.929 . S
H420 C428 0.929 . S
H421 C430 0.930 . S
H422 C432 0.930 . S
H423 C435 0.929 . S
H424 C438 0.930 . S
H425 C440 0.960 . S
H426 C440 0.960 . S
H427 C440 0.960 . S
C428 H420 0.929 . S
C428 C429 1.377 . S
C428 C430 1.384 . S
C429 C428 1.377 . S
C429 C435 1.390 . S
C430 H421 0.930 . S
C430 C428 1.384 . S
C430 C431 1.372 . S
C431 C430 1.372 . S
C431 C432 1.400 . S
C431 C436 1.490 . S
C432 H422 0.930 . S
C432 C431 1.400 . S
C432 C435 1.386 . S
H433 C449 0.930 . S
H434 C450 0.931 . S
C435 H423 0.929 . S
C435 C429 1.390 . S
C435 C432 1.386 . S
C436 C431 1.490 . S
C436 C438 1.395 . S
C436 C439 1.403 . S
H437 C443 0.930 . S
C438 H424 0.930 . S
C438 C436 1.395 . S
C438 C441 1.403 . S
C439 C436 1.403 . S
C439 C440 1.524 . S
C439 C443 1.400 . S
C440 H425 0.960 . S
C440 H426 0.960 . S
C440 H427 0.960 . S
C440 C439 1.524 . S
C441 C438 1.403 . S
C441 C442 1.392 . S
C441 C445 1.495 . S
C442 C441 1.392 . S
C442 C443 1.385 . S
C442 C444 1.478 . S
C443 H437 0.930 . S
C443 C439 1.400 . S
C443 C442 1.385 . S
C444 C442 1.478 . S
C444 C446 1.381 . S
C444 C450 1.383 . S
C445 C441 1.495 . S
C445 H451 0.959 . S
C445 H452 0.961 . S
C445 H453 0.960 . S
C446 C444 1.381 . S
C446 C447 1.394 1_655 S
C446 H454 0.930 1_655 S
C447 C446 1.394 1_455 S
C447 C448 1.383 1_455 S
C447 H455 0.929 . S
C448 C447 1.383 1_655 S
C448 C449 1.377 . S
C449 H433 0.930 . S
C449 C448 1.377 . S
C449 C450 1.379 . S
C450 H434 0.931 . S
C450 C444 1.383 . S
C450 C449 1.379 . S
H451 C445 0.959 . S
H452 C445 0.961 . S
H453 C445 0.960 . S
H454 C446 0.930 1_455 S
H455 C447 0.929 . S
H456 C464 0.929 . S
H457 C466 0.930 . S
H458 C468 0.930 . S
H459 C471 0.929 . S
H460 C474 0.930 . S
H461 C476 0.960 . S
H462 C476 0.960 . S
H463 C476 0.960 . S
C464 H456 0.929 . S
C464 C465 1.377 . S
C464 C466 1.384 . S
C465 C464 1.377 . S
C465 C471 1.390 . S
C466 H457 0.930 . S
C466 C464 1.384 . S
C466 C467 1.372 . S
C467 C466 1.372 . S
C467 C468 1.400 . S
C467 C472 1.490 . S
C468 H458 0.930 . S
C468 C467 1.400 . S
C468 C471 1.386 . S
H469 C485 0.930 . S
H470 C486 0.931 . S
C471 H459 0.929 . S
C471 C465 1.390 . S
C471 C468 1.386 . S
C472 C467 1.490 . S
C472 C474 1.395 . S
C472 C475 1.403 . S
H473 C479 0.930 . S
C474 H460 0.930 . S
C474 C472 1.395 . S
C474 C477 1.403 . S
C475 C472 1.403 . S
C475 C476 1.524 . S
C475 C479 1.400 . S
C476 H461 0.960 . S
C476 H462 0.960 . S
C476 H463 0.960 . S
C476 C475 1.524 . S
C477 C474 1.403 . S
C477 C478 1.392 . S
C477 C481 1.495 . S
C478 C477 1.392 . S
C478 C479 1.385 . S
C478 C480 1.478 . S
C479 H473 0.930 . S
C479 C475 1.400 . S
C479 C478 1.385 . S
C480 C478 1.478 . S
C480 C482 1.381 . S
C480 C486 1.383 . S
C481 C477 1.495 . S
C481 H487 0.959 . S
C481 H488 0.961 . S
C481 H489 0.960 . S
C482 C480 1.381 . S
C482 C483 1.394 . S
C482 H490 0.930 . S
C483 C482 1.394 . S
C483 C484 1.383 . S
C483 H491 0.929 . S
C484 C483 1.383 . S
C484 C485 1.377 . S
C485 H469 0.930 . S
C485 C484 1.377 . S
C485 C486 1.379 . S
C486 H470 0.931 . S
C486 C480 1.383 . S
C486 C485 1.379 . S
H487 C481 0.959 . S
H488 C481 0.961 . S
H489 C481 0.960 . S
H490 C482 0.930 . S
H491 C483 0.929 . S
H492 C500 0.929 . S
H493 C502 0.930 . S
H494 C504 0.930 . S
H495 C507 0.929 . S
H496 C510 0.930 . S
H497 C512 0.960 . S
H498 C512 0.960 . S
H499 C512 0.960 . S
C500 H492 0.929 . S
C500 C501 1.377 . S
C500 C502 1.384 . S
C501 C500 1.377 . S
C501 C507 1.390 . S
C502 H493 0.930 . S
C502 C500 1.384 . S
C502 C503 1.372 . S
C503 C502 1.372 . S
C503 C504 1.400 . S
C503 C508 1.490 . S
C504 H494 0.930 . S
C504 C503 1.400 . S
C504 C507 1.386 . S
H505 C521 0.930 . S
H506 C522 0.931 . S
C507 H495 0.929 . S
C507 C501 1.390 . S
C507 C504 1.386 . S
C508 C503 1.490 . S
C508 C510 1.395 . S
C508 C511 1.403 . S
H509 C515 0.930 . S
C510 H496 0.930 . S
C510 C508 1.395 . S
C510 C513 1.403 . S
C511 C508 1.403 . S
C511 C512 1.524 . S
C511 C515 1.400 . S
C512 H497 0.960 . S
C512 H498 0.960 . S
C512 H499 0.960 . S
C512 C511 1.524 . S
C513 C510 1.403 . S
C513 C514 1.392 . S
C513 C517 1.495 . S
C514 C513 1.392 . S
C514 C515 1.385 . S
C514 C516 1.478 . S
C515 H509 0.930 . S
C515 C511 1.400 . S
C515 C514 1.385 . S
C516 C514 1.478 . S
C516 C518 1.381 . S
C516 C522 1.383 1_565 S
C517 C513 1.495 . S
C517 H523 0.959 . S
C517 H524 0.961 . S
C517 H525 0.960 . S
C518 C516 1.381 . S
C518 C519 1.394 . S
C518 H526 0.930 . S
C519 C518 1.394 . S
C519 C520 1.383 1_565 S
C519 H527 0.929 . S
C520 C519 1.383 1_545 S
C520 C521 1.377 . S
C521 H505 0.930 . S
C521 C520 1.377 . S
C521 C522 1.379 . S
C522 H506 0.931 . S
C522 C516 1.383 1_545 S
C522 C521 1.379 . S
H523 C517 0.959 . S
H524 C517 0.961 . S
H525 C517 0.960 . S
H526 C518 0.930 . S
H527 C519 0.929 . S
H528 C536 0.929 . S
H529 C538 0.930 . S
H530 C540 0.930 . S
H531 C543 0.929 . S
H532 C546 0.930 . S
H533 C548 0.960 . S
H534 C548 0.960 . S
H535 C548 0.960 . S
C536 H528 0.929 . S
C536 C537 1.377 . S
C536 C538 1.384 . S
C537 C536 1.377 . S
C537 C543 1.390 . S
C538 H529 0.930 . S
C538 C536 1.384 . S
C538 C539 1.372 . S
C539 C538 1.372 . S
C539 C540 1.400 . S
C539 C544 1.490 . S
C540 H530 0.930 . S
C540 C539 1.400 . S
C540 C543 1.386 . S
H541 C557 0.930 1_554 S
H542 C558 0.931 . S
C543 H531 0.929 . S
C543 C537 1.390 . S
C543 C540 1.386 . S
C544 C539 1.490 . S
C544 C546 1.395 . S
C544 C547 1.403 . S
H545 C551 0.930 . S
C546 H532 0.930 . S
C546 C544 1.395 . S
C546 C549 1.403 . S
C547 C544 1.403 . S
C547 C548 1.524 . S
C547 C551 1.400 . S
C548 H533 0.960 . S
C548 H534 0.960 . S
C548 H535 0.960 . S
C548 C547 1.524 . S
C549 C546 1.403 . S
C549 C550 1.392 . S
C549 C553 1.495 . S
C550 C549 1.392 . S
C550 C551 1.385 . S
C550 C552 1.478 . S
C551 H545 0.930 . S
C551 C547 1.400 . S
C551 C550 1.385 . S
C552 C550 1.478 . S
C552 C554 1.381 . S
C552 C558 1.383 . S
C553 C549 1.495 . S
C553 H559 0.959 . S
C553 H560 0.961 . S
C553 H561 0.960 . S
C554 C552 1.381 . S
C554 C555 1.394 . S
C554 H562 0.930 . S
C555 C554 1.394 . S
C555 C556 1.383 . S
C555 H563 0.929 . S
C556 C555 1.383 . S
C556 C557 1.377 . S
C557 H541 0.930 1_556 S
C557 C556 1.377 . S
C557 C558 1.379 . S
C558 H542 0.931 . S
C558 C552 1.383 . S
C558 C557 1.379 . S
H559 C553 0.959 . S
H560 C553 0.961 . S
H561 C553 0.960 . S
H562 C554 0.930 . S
H563 C555 0.929 . S
H564 C572 0.929 . S
H565 C574 0.930 . S
H566 C576 0.930 . S
H567 C579 0.929 . S
H568 C582 0.930 . S
H569 C584 0.960 . S
H570 C584 0.960 . S
H571 C584 0.960 . S
C572 H564 0.929 . S
C572 C573 1.377 . S
C572 C574 1.384 . S
C573 C572 1.377 . S
C573 C579 1.390 . S
C574 H565 0.930 . S
C574 C572 1.384 . S
C574 C575 1.372 . S
C575 C574 1.372 . S
C575 C576 1.400 . S
C575 C580 1.490 . S
C576 H566 0.930 . S
C576 C575 1.400 . S
C576 C579 1.386 . S
H577 C593 0.930 . S
H578 C594 0.931 . S
C579 H567 0.929 . S
C579 C573 1.390 . S
C579 C576 1.386 . S
C580 C575 1.490 . S
C580 C582 1.395 . S
C580 C583 1.403 . S
H581 C587 0.930 . S
C582 H568 0.930 . S
C582 C580 1.395 . S
C582 C585 1.403 . S
C583 C580 1.403 . S
C583 C584 1.524 . S
C583 C587 1.400 . S
C584 H569 0.960 . S
C584 H570 0.960 . S
C584 H571 0.960 . S
C584 C583 1.524 . S
C585 C582 1.403 . S
C585 C586 1.392 . S
C585 C589 1.495 . S
C586 C585 1.392 . S
C586 C587 1.385 . S
C586 C588 1.478 . S
C587 H581 0.930 . S
C587 C583 1.400 . S
C587 C586 1.385 . S
C588 C586 1.478 . S
C588 C590 1.381 . S
C588 C594 1.383 . S
C589 C585 1.495 . S
C589 H595 0.959 . S
C589 H596 0.961 . S
C589 H597 0.960 . S
C590 C588 1.381 . S
C590 C591 1.394 . S
C590 H598 0.930 . S
C591 C590 1.394 . S
C591 C592 1.383 . S
C591 H599 0.929 . S
C592 C591 1.383 . S
C592 C593 1.377 . S
C593 H577 0.930 . S
C593 C592 1.377 . S
C593 C594 1.379 . S
C594 H578 0.931 . S
C594 C588 1.383 . S
C594 C593 1.379 . S
H595 C589 0.959 . S
H596 C589 0.961 . S
H597 C589 0.960 . S
H598 C590 0.930 . S
H599 C591 0.929 . S
H600 C608 0.929 . S
H601 C610 0.930 . S
H602 C612 0.930 . S
H603 C615 0.929 . S
H604 C618 0.930 . S
H605 C620 0.960 . S
H606 C620 0.960 . S
H607 C620 0.960 . S
C608 H600 0.929 . S
C608 C609 1.377 . S
C608 C610 1.384 . S
C609 C608 1.377 . S
C609 C615 1.390 . S
C610 H601 0.930 . S
C610 C608 1.384 . S
C610 C611 1.372 . S
C611 C610 1.372 . S
C611 C612 1.400 . S
C611 C616 1.490 . S
C612 H602 0.930 . S
C612 C611 1.400 . S
C612 C615 1.386 . S
H613 C629 0.930 . S
H614 C630 0.931 . S
C615 H603 0.929 . S
C615 C609 1.390 . S
C615 C612 1.386 . S
C616 C611 1.490 . S
C616 C618 1.395 . S
C616 C619 1.403 . S
H617 C623 0.930 . S
C618 H604 0.930 . S
C618 C616 1.395 . S
C618 C621 1.403 . S
C619 C616 1.403 . S
C619 C620 1.524 . S
C619 C623 1.400 . S
C620 H605 0.960 . S
C620 H606 0.960 . S
C620 H607 0.960 . S
C620 C619 1.524 . S
C621 C618 1.403 . S
C621 C622 1.392 . S
C621 C625 1.495 . S
C622 C621 1.392 . S
C622 C623 1.385 . S
C622 C624 1.478 . S
C623 H617 0.930 . S
C623 C619 1.400 . S
C623 C622 1.385 . S
C624 C622 1.478 . S
C624 C626 1.381 . S
C624 C630 1.383 . S
C625 C621 1.495 . S
C625 H631 0.959 . S
C625 H632 0.961 . S
C625 H633 0.960 . S
C626 C624 1.381 . S
C626 C627 1.394 . S
C626 H634 0.930 . S
C627 C626 1.394 . S
C627 C628 1.383 . S
C627 H635 0.929 . S
C628 C627 1.383 . S
C628 C629 1.377 . S
C629 H613 0.930 . S
C629 C628 1.377 . S
C629 C630 1.379 . S
C630 H614 0.931 . S
C630 C624 1.383 . S
C630 C629 1.379 . S
H631 C625 0.959 . S
H632 C625 0.961 . S
H633 C625 0.960 . S
H634 C626 0.930 . S
H635 C627 0.929 . S
H636 C644 0.929 . S
H637 C646 0.930 . S
H638 C648 0.930 . S
H639 C651 0.929 . S
H640 C654 0.930 . S
H641 C656 0.960 . S
H642 C656 0.958 1_556 S
H643 C656 0.960 . S
C644 H636 0.929 . S
C644 C645 1.377 . S
C644 C646 1.384 . S
C645 C644 1.377 . S
C645 C651 1.390 . S
C646 H637 0.930 . S
C646 C644 1.384 . S
C646 C647 1.372 . S
C647 C646 1.372 . S
C647 C648 1.400 . S
C647 C652 1.490 . S
C648 H638 0.930 . S
C648 C647 1.400 . S
C648 C651 1.386 . S
H649 C665 0.930 . S
H650 C666 0.931 . S
C651 H639 0.929 . S
C651 C645 1.390 . S
C651 C648 1.386 . S
C652 C647 1.490 . S
C652 C654 1.395 . S
C652 C655 1.403 . S
H653 C659 0.930 1_554 S
C654 H640 0.930 . S
C654 C652 1.395 . S
C654 C657 1.403 . S
C655 C652 1.403 . S
C655 C656 1.524 1_556 S
C655 C659 1.400 . S
C656 H641 0.960 . S
C656 H642 0.958 1_554 S
C656 H643 0.960 . S
C656 C655 1.524 1_554 S
C657 C654 1.403 . S
C657 C658 1.392 . S
C657 C661 1.495 . S
C658 C657 1.392 . S
C658 C659 1.385 . S
C658 C660 1.478 . S
C659 H653 0.930 1_556 S
C659 C655 1.400 . S
C659 C658 1.385 . S
C660 C658 1.478 . S
C660 C662 1.381 . S
C660 C666 1.383 1_556 S
C661 C657 1.495 . S
C661 H667 0.959 . S
C661 H668 0.961 . S
C661 H669 0.960 . S
C662 C660 1.381 . S
C662 C663 1.394 1_556 S
C662 H670 0.930 . S
C663 C662 1.394 1_554 S
C663 C664 1.383 . S
C663 H671 0.929 . S
C664 C663 1.383 . S
C664 C665 1.377 . S
C665 H649 0.930 . S
C665 C664 1.377 . S
C665 C666 1.379 . S
C666 H650 0.931 . S
C666 C660 1.383 1_554 S
C666 C665 1.379 . S
H667 C661 0.959 . S
H668 C661 0.961 . S
H669 C661 0.960 . S
H670 C662 0.930 . S
H671 C663 0.929 . S
H672 C680 0.929 . S
H673 C682 0.930 . S
H674 C684 0.930 . S
H675 C687 0.929 . S
H676 C690 0.930 . S
H677 C692 0.960 . S
H678 C692 0.960 . S
H679 C692 0.960 . S
C680 H672 0.929 . S
C680 C681 1.377 . S
C680 C682 1.384 . S
C681 C680 1.377 . S
C681 C687 1.390 . S
C682 H673 0.930 . S
C682 C680 1.384 . S
C682 C683 1.372 . S
C683 C682 1.372 . S
C683 C684 1.400 . S
C683 C688 1.490 . S
C684 H674 0.930 . S
C684 C683 1.400 . S
C684 C687 1.386 . S
H685 C701 0.930 . S
H686 C702 0.931 . S
C687 H675 0.929 . S
C687 C681 1.390 . S
C687 C684 1.386 . S
C688 C683 1.490 . S
C688 C690 1.395 . S
C688 C691 1.403 . S
H689 C695 0.930 . S
C690 H676 0.930 . S
C690 C688 1.395 . S
C690 C693 1.403 . S
C691 C688 1.403 . S
C691 C692 1.524 . S
C691 C695 1.400 . S
C692 H677 0.960 . S
C692 H678 0.960 . S
C692 H679 0.960 . S
C692 C691 1.524 . S
C693 C690 1.403 . S
C693 C694 1.392 . S
C693 C697 1.495 . S
C694 C693 1.392 . S
C694 C695 1.385 . S
C694 C696 1.478 . S
C695 H689 0.930 . S
C695 C691 1.400 . S
C695 C694 1.385 . S
C696 C694 1.478 . S
C696 C698 1.381 . S
C696 C702 1.383 . S
C697 C693 1.495 . S
C697 H703 0.959 . S
C697 H704 0.961 . S
C697 H705 0.960 . S
C698 C696 1.381 . S
C698 C699 1.394 . S
C698 H706 0.930 . S
C699 C698 1.394 . S
C699 C700 1.383 . S
C699 H707 0.929 . S
C700 C699 1.383 . S
C700 C701 1.377 . S
C701 H685 0.930 . S
C701 C700 1.377 . S
C701 C702 1.379 . S
C702 H686 0.931 . S
C702 C696 1.383 . S
C702 C701 1.379 . S
H703 C697 0.959 . S
H704 C697 0.961 . S
H705 C697 0.960 . S
H706 C698 0.930 . S
H707 C699 0.929 . S
H708 C716 0.929 . S
H709 C718 0.930 . S
H710 C720 0.930 . S
H711 C723 0.929 . S
H712 C726 0.930 . S
H713 C728 0.960 . S
H714 C728 0.960 . S
H715 C728 0.960 . S
C716 H708 0.929 . S
C716 C717 1.377 . S
C716 C718 1.384 . S
C717 C716 1.377 . S
C717 C723 1.390 . S
C718 H709 0.930 . S
C718 C716 1.384 . S
C718 C719 1.372 . S
C719 C718 1.372 . S
C719 C720 1.400 . S
C719 C724 1.490 . S
C720 H710 0.930 . S
C720 C719 1.400 . S
C720 C723 1.386 . S
H721 C737 0.930 . S
H722 C738 0.931 . S
C723 H711 0.929 . S
C723 C717 1.390 . S
C723 C720 1.386 . S
C724 C719 1.490 . S
C724 C726 1.395 . S
C724 C727 1.403 . S
H725 C731 0.930 . S
C726 H712 0.930 . S
C726 C724 1.395 . S
C726 C729 1.403 . S
C727 C724 1.403 . S
C727 C728 1.524 . S
C727 C731 1.400 . S
C728 H713 0.960 . S
C728 H714 0.960 . S
C728 H715 0.960 . S
C728 C727 1.524 . S
C729 C726 1.403 . S
C729 C730 1.392 . S
C729 C733 1.495 . S
C730 C729 1.392 . S
C730 C731 1.385 . S
C730 C732 1.478 . S
C731 H725 0.930 . S
C731 C727 1.400 . S
C731 C730 1.385 . S
C732 C730 1.478 . S
C732 C734 1.381 . S
C732 C738 1.383 . S
C733 C729 1.495 . S
C733 H739 0.959 . S
C733 H740 0.961 . S
C733 H741 0.960 . S
C734 C732 1.381 . S
C734 C735 1.394 . S
C734 H742 0.930 . S
C735 C734 1.394 . S
C735 C736 1.383 . S
C735 H743 0.929 . S
C736 C735 1.383 . S
C736 C737 1.377 . S
C737 H721 0.930 . S
C737 C736 1.377 . S
C737 C738 1.379 . S
C738 H722 0.931 . S
C738 C732 1.383 . S
C738 C737 1.379 . S
H739 C733 0.959 . S
H740 C733 0.961 . S
H741 C733 0.960 . S
H742 C734 0.930 . S
H743 C735 0.929 . S
H744 C752 0.929 . S
H745 C754 0.930 . S
H746 C756 0.930 . S
H747 C759 0.929 . S
H748 C762 0.930 . S
H749 C764 0.960 . S
H750 C764 0.960 . S
H751 C764 0.960 . S
C752 H744 0.929 . S
C752 C753 1.377 . S
C752 C754 1.384 . S
C753 C752 1.377 . S
C753 C759 1.390 . S
C754 H745 0.930 . S
C754 C752 1.384 . S
C754 C755 1.372 . S
C755 C754 1.372 . S
C755 C756 1.400 . S
C755 C760 1.490 . S
C756 H746 0.930 . S
C756 C755 1.400 . S
C756 C759 1.386 . S
H757 C773 0.930 . S
H758 C774 0.931 . S
C759 H747 0.929 . S
C759 C753 1.390 . S
C759 C756 1.386 . S
C760 C755 1.490 . S
C760 C762 1.395 . S
C760 C763 1.403 . S
H761 C767 0.930 . S
C762 H748 0.930 . S
C762 C760 1.395 . S
C762 C765 1.403 . S
C763 C760 1.403 . S
C763 C764 1.524 . S
C763 C767 1.400 . S
C764 H749 0.960 . S
C764 H750 0.960 . S
C764 H751 0.960 . S
C764 C763 1.524 . S
C765 C762 1.403 . S
C765 C766 1.392 . S
C765 C769 1.495 . S
C766 C765 1.392 . S
C766 C767 1.385 . S
C766 C768 1.478 . S
C767 H761 0.930 . S
C767 C763 1.400 . S
C767 C766 1.385 . S
C768 C766 1.478 . S
C768 C770 1.381 . S
C768 C774 1.383 . S
C769 C765 1.495 . S
C769 H775 0.959 . S
C769 H776 0.961 . S
C769 H777 0.960 . S
C770 C768 1.381 . S
C770 C771 1.394 . S
C770 H778 0.930 . S
C771 C770 1.394 . S
C771 C772 1.383 . S
C771 H779 0.929 . S
C772 C771 1.383 . S
C772 C773 1.377 . S
C773 H757 0.930 . S
C773 C772 1.377 . S
C773 C774 1.379 . S
C774 H758 0.931 . S
C774 C768 1.383 . S
C774 C773 1.379 . S
H775 C769 0.959 . S
H776 C769 0.961 . S
H777 C769 0.960 . S
H778 C770 0.930 . S
H779 C771 0.929 . S
H780 C788 0.929 . S
H781 C790 0.930 . S
H782 C792 0.930 . S
H783 C795 0.929 . S
H784 C798 0.930 . S
H785 C800 0.960 . S
H786 C800 0.960 . S
H787 C800 0.960 . S
C788 H780 0.929 . S
C788 C789 1.377 . S
C788 C790 1.384 . S
C789 C788 1.377 . S
C789 C795 1.390 . S
C790 H781 0.930 . S
C790 C788 1.384 . S
C790 C791 1.372 . S
C791 C790 1.372 . S
C791 C792 1.400 . S
C791 C796 1.490 . S
C792 H782 0.930 . S
C792 C791 1.400 . S
C792 C795 1.386 . S
H793 C809 0.930 . S
H794 C810 0.931 . S
C795 H783 0.929 . S
C795 C789 1.390 . S
C795 C792 1.386 . S
C796 C791 1.490 . S
C796 C798 1.395 . S
C796 C799 1.403 . S
H797 C803 0.930 . S
C798 H784 0.930 . S
C798 C796 1.395 . S
C798 C801 1.403 . S
C799 C796 1.403 . S
C799 C800 1.524 . S
C799 C803 1.400 . S
C800 H785 0.960 . S
C800 H786 0.960 . S
C800 H787 0.960 . S
C800 C799 1.524 . S
C801 C798 1.403 . S
C801 C802 1.392 . S
C801 C805 1.495 . S
C802 C801 1.392 . S
C802 C803 1.385 . S
C802 C804 1.478 . S
C803 H797 0.930 . S
C803 C799 1.400 . S
C803 C802 1.385 . S
C804 C802 1.478 . S
C804 C806 1.381 . S
C804 C810 1.383 . S
C805 C801 1.495 . S
C805 H811 0.959 . S
C805 H812 0.961 . S
C805 H813 0.960 . S
C806 C804 1.381 . S
C806 C807 1.394 . S
C806 H814 0.930 . S
C807 C806 1.394 . S
C807 C808 1.383 . S
C807 H815 0.929 . S
C808 C807 1.383 . S
C808 C809 1.377 . S
C809 H793 0.930 . S
C809 C808 1.377 . S
C809 C810 1.379 . S
C810 H794 0.931 . S
C810 C804 1.383 . S
C810 C809 1.379 . S
H811 C805 0.959 . S
H812 C805 0.961 . S
H813 C805 0.960 . S
H814 C806 0.930 . S
H815 C807 0.929 . S
H816 C824 0.929 . S
H817 C826 0.930 . S
H818 C828 0.930 . S
H819 C831 0.929 . S
H820 C834 0.930 . S
H821 C836 0.960 . S
H822 C836 0.960 . S
H823 C836 0.960 . S
C824 H816 0.929 . S
C824 C825 1.377 . S
C824 C826 1.384 . S
C825 C824 1.377 . S
C825 C831 1.390 . S
C826 H817 0.930 . S
C826 C824 1.384 . S
C826 C827 1.372 . S
C827 C826 1.372 . S
C827 C828 1.400 . S
C827 C832 1.490 . S
C828 H818 0.930 . S
C828 C827 1.400 . S
C828 C831 1.386 . S
H829 C845 0.930 . S
H830 C846 0.931 . S
C831 H819 0.929 . S
C831 C825 1.390 . S
C831 C828 1.386 . S
C832 C827 1.490 . S
C832 C834 1.395 . S
C832 C835 1.403 . S
H833 C839 0.930 . S
C834 H820 0.930 . S
C834 C832 1.395 . S
C834 C837 1.403 . S
C835 C832 1.403 . S
C835 C836 1.524 . S
C835 C839 1.400 . S
C836 H821 0.960 . S
C836 H822 0.960 . S
C836 H823 0.960 . S
C836 C835 1.524 . S
C837 C834 1.403 . S
C837 C838 1.392 . S
C837 C841 1.495 . S
C838 C837 1.392 . S
C838 C839 1.385 . S
C838 C840 1.478 . S
C839 H833 0.930 . S
C839 C835 1.400 . S
C839 C838 1.385 . S
C840 C838 1.478 . S
C840 C842 1.381 . S
C840 C846 1.383 . S
C841 C837 1.495 . S
C841 H847 0.959 . S
C841 H848 0.961 . S
C841 H849 0.960 . S
C842 C840 1.381 . S
C842 C843 1.394 . S
C842 H850 0.930 . S
C843 C842 1.394 . S
C843 C844 1.383 . S
C843 H851 0.929 . S
C844 C843 1.383 . S
C844 C845 1.377 . S
C845 H829 0.930 . S
C845 C844 1.377 . S
C845 C846 1.379 . S
C846 H830 0.931 . S
C846 C840 1.383 . S
C846 C845 1.379 . S
H847 C841 0.959 . S
H848 C841 0.961 . S
H849 C841 0.960 . S
H850 C842 0.930 . S
H851 C843 0.929 . S
H852 C860 0.929 . S
H853 C862 0.930 . S
H854 C864 0.930 . S
H855 C867 0.929 . S
H856 C870 0.930 . S
H857 C872 0.960 . S
H858 C872 0.960 . S
H859 C872 0.960 . S
C860 H852 0.929 . S
C860 C861 1.377 . S
C860 C862 1.384 . S
C861 C860 1.377 . S
C861 C867 1.390 . S
C862 H853 0.930 . S
C862 C860 1.384 . S
C862 C863 1.372 . S
C863 C862 1.372 . S
C863 C864 1.400 . S
C863 C868 1.490 . S
C864 H854 0.930 . S
C864 C863 1.400 . S
C864 C867 1.386 . S
H865 C881 0.930 . S
H866 C882 0.931 . S
C867 H855 0.929 . S
C867 C861 1.390 . S
C867 C864 1.386 . S
C868 C863 1.490 . S
C868 C870 1.395 . S
C868 C871 1.403 . S
H869 C875 0.930 . S
C870 H856 0.930 . S
C870 C868 1.395 . S
C870 C873 1.403 . S
C871 C868 1.403 . S
C871 C872 1.524 . S
C871 C875 1.400 . S
C872 H857 0.960 . S
C872 H858 0.960 . S
C872 H859 0.960 . S
C872 C871 1.524 . S
C873 C870 1.403 . S
C873 C874 1.392 . S
C873 C877 1.495 . S
C874 C873 1.392 . S
C874 C875 1.385 . S
C874 C876 1.478 . S
C875 H869 0.930 . S
C875 C871 1.400 . S
C875 C874 1.385 . S
C876 C874 1.478 . S
C876 C878 1.381 . S
C876 C882 1.383 . S
C877 C873 1.495 . S
C877 H883 0.959 . S
C877 H884 0.961 . S
C877 H885 0.960 . S
C878 C876 1.381 . S
C878 C879 1.394 . S
C878 H886 0.930 . S
C879 C878 1.394 . S
C879 C880 1.383 . S
C879 H887 0.929 . S
C880 C879 1.383 . S
C880 C881 1.377 . S
C881 H865 0.930 . S
C881 C880 1.377 . S
C881 C882 1.379 . S
C882 H866 0.931 . S
C882 C876 1.383 . S
C882 C881 1.379 . S
H883 C877 0.959 . S
H884 C877 0.961 . S
H885 C877 0.960 . S
H886 C878 0.930 . S
H887 C879 0.929 . S
H888 C896 0.929 . S
H889 C898 0.930 . S
H890 C900 0.930 . S
H891 C903 0.929 . S
H892 C906 0.930 . S
H893 C908 0.960 . S
H894 C908 0.960 . S
H895 C908 0.960 . S
C896 H888 0.929 . S
C896 C897 1.377 . S
C896 C898 1.384 . S
C897 C896 1.377 . S
C897 C903 1.390 . S
C898 H889 0.930 . S
C898 C896 1.384 . S
C898 C899 1.372 . S
C899 C898 1.372 . S
C899 C900 1.400 . S
C899 C904 1.490 . S
C900 H890 0.930 . S
C900 C899 1.400 . S
C900 C903 1.386 . S
H901 C917 0.930 . S
H902 C918 0.931 . S
C903 H891 0.929 . S
C903 C897 1.390 . S
C903 C900 1.386 . S
C904 C899 1.490 . S
C904 C906 1.395 . S
C904 C907 1.403 . S
H905 C911 0.930 . S
C906 H892 0.930 . S
C906 C904 1.395 . S
C906 C909 1.403 . S
C907 C904 1.403 . S
C907 C908 1.524 . S
C907 C911 1.400 . S
C908 H893 0.960 . S
C908 H894 0.960 . S
C908 H895 0.960 . S
C908 C907 1.524 . S
C909 C906 1.403 . S
C909 C910 1.392 . S
C909 C913 1.495 . S
C910 C909 1.392 . S
C910 C911 1.385 . S
C910 C912 1.478 . S
C911 H905 0.930 . S
C911 C907 1.400 . S
C911 C910 1.385 . S
C912 C910 1.478 . S
C912 C914 1.381 1_556 S
C912 C918 1.383 . S
C913 C909 1.495 . S
C913 H919 0.959 . S
C913 H920 0.961 . S
C913 H921 0.960 . S
C914 C912 1.381 1_554 S
C914 C915 1.394 . S
C914 H922 0.930 . S
C915 C914 1.394 . S
C915 C916 1.383 . S
C915 H923 0.929 . S
C916 C915 1.383 . S
C916 C917 1.377 1_554 S
C917 H901 0.930 . S
C917 C916 1.377 1_556 S
C917 C918 1.379 . S
C918 H902 0.931 . S
C918 C912 1.383 . S
C918 C917 1.379 . S
H919 C913 0.959 . S
H920 C913 0.961 . S
H921 C913 0.960 . S
H922 C914 0.930 . S
H923 C915 0.929 . S
H924 C932 0.929 . S
H925 C934 0.930 . S
H926 C936 0.930 . S
H927 C939 0.929 . S
H928 C942 0.930 . S
H929 C944 0.960 . S
H930 C944 0.960 . S
H931 C944 0.960 . S
C932 H924 0.929 . S
C932 C933 1.377 . S
C932 C934 1.384 . S
C933 C932 1.377 . S
C933 C939 1.390 . S
C934 H925 0.930 . S
C934 C932 1.384 . S
C934 C935 1.372 . S
C935 C934 1.372 . S
C935 C936 1.400 . S
C935 C940 1.490 . S
C936 H926 0.930 . S
C936 C935 1.400 . S
C936 C939 1.386 . S
H937 C953 0.930 . S
H938 C954 0.931 . S
C939 H927 0.929 . S
C939 C933 1.390 . S
C939 C936 1.386 . S
C940 C935 1.490 . S
C940 C942 1.395 . S
C940 C943 1.403 . S
H941 C947 0.930 . S
C942 H928 0.930 . S
C942 C940 1.395 . S
C942 C945 1.403 . S
C943 C940 1.403 . S
C943 C944 1.524 . S
C943 C947 1.400 . S
C944 H929 0.960 . S
C944 H930 0.960 . S
C944 H931 0.960 . S
C944 C943 1.524 . S
C945 C942 1.403 . S
C945 C946 1.392 . S
C945 C949 1.495 . S
C946 C945 1.392 . S
C946 C947 1.385 . S
C946 C948 1.478 . S
C947 H941 0.930 . S
C947 C943 1.400 . S
C947 C946 1.385 . S
C948 C946 1.478 . S
C948 C950 1.381 . S
C948 C954 1.383 . S
C949 C945 1.495 . S
C949 H955 0.959 . S
C949 H956 0.961 . S
C949 H957 0.960 . S
C950 C948 1.381 . S
C950 C951 1.394 . S
C950 H958 0.930 . S
C951 C950 1.394 . S
C951 C952 1.383 . S
C951 H959 0.929 . S
C952 C951 1.383 . S
C952 C953 1.377 . S
C953 H937 0.930 . S
C953 C952 1.377 . S
C953 C954 1.379 . S
C954 H938 0.931 . S
C954 C948 1.383 . S
C954 C953 1.379 . S
H955 C949 0.959 . S
H956 C949 0.961 . S
H957 C949 0.960 . S
H958 C950 0.930 . S
H959 C951 0.929 . S
H960 C968 0.929 . S
H961 C970 0.930 . S
H962 C972 0.930 . S
H963 C975 0.929 . S
H964 C978 0.930 . S
H965 C980 0.960 . S
H966 C980 0.960 . S
H967 C980 0.960 . S
C968 H960 0.929 . S
C968 C969 1.377 . S
C968 C970 1.384 . S
C969 C968 1.377 . S
C969 C975 1.390 . S
C970 H961 0.930 . S
C970 C968 1.384 . S
C970 C971 1.372 . S
C971 C970 1.372 . S
C971 C972 1.400 . S
C971 C976 1.490 . S
C972 H962 0.930 . S
C972 C971 1.400 . S
C972 C975 1.386 . S
H973 C989 0.930 . S
H974 C990 0.931 . S
C975 H963 0.929 . S
C975 C969 1.390 . S
C975 C972 1.386 . S
C976 C971 1.490 . S
C976 C978 1.395 . S
C976 C979 1.403 . S
H977 C983 0.930 . S
C978 H964 0.930 . S
C978 C976 1.395 . S
C978 C981 1.403 . S
C979 C976 1.403 . S
C979 C980 1.524 . S
C979 C983 1.400 . S
C980 H965 0.960 . S
C980 H966 0.960 . S
C980 H967 0.960 . S
C980 C979 1.524 . S
C981 C978 1.403 . S
C981 C982 1.392 . S
C981 C985 1.495 . S
C982 C981 1.392 . S
C982 C983 1.385 . S
C982 C984 1.478 . S
C983 H977 0.930 . S
C983 C979 1.400 . S
C983 C982 1.385 . S
C984 C982 1.478 . S
C984 C986 1.381 . S
C984 C990 1.383 . S
C985 C981 1.495 . S
C985 H991 0.959 . S
C985 H992 0.961 . S
C985 H993 0.960 . S
C986 C984 1.381 . S
C986 C987 1.394 . S
C986 H994 0.930 . S
C987 C986 1.394 . S
C987 C988 1.383 . S
C987 H995 0.929 . S
C988 C987 1.383 . S
C988 C989 1.377 . S
C989 H973 0.930 . S
C989 C988 1.377 . S
C989 C990 1.379 . S
C990 H974 0.931 . S
C990 C984 1.383 . S
C990 C989 1.379 . S
H991 C985 0.959 . S
H992 C985 0.961 . S
H993 C985 0.960 . S
H994 C986 0.930 . S
H995 C987 0.929 . S
H996 C1004 0.929 . S
H997 C1006 0.930 . S
H998 C1008 0.930 . S
H999 C1011 0.929 . S
H1000 C1014 0.930 . S
H1001 C1016 0.960 . S
H1002 C1016 0.960 . S
H1003 C1016 0.960 . S
C1004 H996 0.929 . S
C1004 C1005 1.377 . S
C1004 C1006 1.384 . S
C1005 C1004 1.377 . S
C1005 C1011 1.390 . S
C1006 H997 0.930 . S
C1006 C1004 1.384 . S
C1006 C1007 1.372 . S
C1007 C1006 1.372 . S
C1007 C1008 1.400 . S
C1007 C1012 1.490 . S
C1008 H998 0.930 . S
C1008 C1007 1.400 . S
C1008 C1011 1.386 . S
H1009 C1025 0.930 . S
H1010 C1026 0.931 . S
C1011 H999 0.929 . S
C1011 C1005 1.390 . S
C1011 C1008 1.386 . S
C1012 C1007 1.490 . S
C1012 C1014 1.395 . S
C1012 C1015 1.403 . S
H1013 C1019 0.930 . S
C1014 H1000 0.930 . S
C1014 C1012 1.395 . S
C1014 C1017 1.403 . S
C1015 C1012 1.403 . S
C1015 C1016 1.524 . S
C1015 C1019 1.400 . S
C1016 H1001 0.960 . S
C1016 H1002 0.960 . S
C1016 H1003 0.960 . S
C1016 C1015 1.524 . S
C1017 C1014 1.403 . S
C1017 C1018 1.392 . S
C1017 C1021 1.495 . S
C1018 C1017 1.392 . S
C1018 C1019 1.385 . S
C1018 C1020 1.478 . S
C1019 H1013 0.930 . S
C1019 C1015 1.400 . S
C1019 C1018 1.385 . S
C1020 C1018 1.478 . S
C1020 C1022 1.381 . S
C1020 C1026 1.383 . S
C1021 C1017 1.495 . S
C1021 H1027 0.959 . S
C1021 H1028 0.961 . S
C1021 H1029 0.960 . S
C1022 C1020 1.381 . S
C1022 C1023 1.394 . S
C1022 H1030 0.930 . S
C1023 C1022 1.394 . S
C1023 C1024 1.383 . S
C1023 H1031 0.929 . S
C1024 C1023 1.383 . S
C1024 C1025 1.377 . S
C1025 H1009 0.930 . S
C1025 C1024 1.377 . S
C1025 C1026 1.379 . S
C1026 H1010 0.931 . S
C1026 C1020 1.383 . S
C1026 C1025 1.379 . S
H1027 C1021 0.959 . S
H1028 C1021 0.961 . S
H1029 C1021 0.960 . S
H1030 C1022 0.930 . S
H1031 C1023 0.929 . S
H1032 C1040 0.929 . S
H1033 C1042 0.930 . S
H1034 C1044 0.930 . S
H1035 C1047 0.929 . S
H1036 C1050 0.930 . S
H1037 C1052 0.960 . S
H1038 C1052 0.960 . S
H1039 C1052 0.960 . S
C1040 H1032 0.929 . S
C1040 C1041 1.377 . S
C1040 C1042 1.384 . S
C1041 C1040 1.377 . S
C1041 C1047 1.390 . S
C1042 H1033 0.930 . S
C1042 C1040 1.384 . S
C1042 C1043 1.372 . S
C1043 C1042 1.372 . S
C1043 C1044 1.400 . S
C1043 C1048 1.490 . S
C1044 H1034 0.930 . S
C1044 C1043 1.400 . S
C1044 C1047 1.386 . S
H1045 C1061 0.930 . S
H1046 C1062 0.931 . S
C1047 H1035 0.929 . S
C1047 C1041 1.390 . S
C1047 C1044 1.386 . S
C1048 C1043 1.490 . S
C1048 C1050 1.395 . S
C1048 C1051 1.403 . S
H1049 C1055 0.930 . S
C1050 H1036 0.930 . S
C1050 C1048 1.395 . S
C1050 C1053 1.403 . S
C1051 C1048 1.403 . S
C1051 C1052 1.524 . S
C1051 C1055 1.400 . S
C1052 H1037 0.960 . S
C1052 H1038 0.960 . S
C1052 H1039 0.960 . S
C1052 C1051 1.524 . S
C1053 C1050 1.403 . S
C1053 C1054 1.392 . S
C1053 C1057 1.495 . S
C1054 C1053 1.392 . S
C1054 C1055 1.385 . S
C1054 C1056 1.478 . S
C1055 H1049 0.930 . S
C1055 C1051 1.400 . S
C1055 C1054 1.385 . S
C1056 C1054 1.478 . S
C1056 C1058 1.381 . S
C1056 C1062 1.383 . S
C1057 C1053 1.495 . S
C1057 H1063 0.959 . S
C1057 H1064 0.961 . S
C1057 H1065 0.960 . S
C1058 C1056 1.381 . S
C1058 C1059 1.394 . S
C1058 H1066 0.930 . S
C1059 C1058 1.394 . S
C1059 C1060 1.383 . S
C1059 H1067 0.929 . S
C1060 C1059 1.383 . S
C1060 C1061 1.377 . S
C1061 H1045 0.930 . S
C1061 C1060 1.377 . S
C1061 C1062 1.379 . S
C1062 H1046 0.931 . S
C1062 C1056 1.383 . S
C1062 C1061 1.379 . S
H1063 C1057 0.959 . S
H1064 C1057 0.961 . S
H1065 C1057 0.960 . S
H1066 C1058 0.930 . S
H1067 C1059 0.929 . S
H1068 C1076 0.929 . S
H1069 C1078 0.930 . S
H1070 C1080 0.930 . S
H1071 C1083 0.929 . S
H1072 C1086 0.930 . S
H1073 C1088 0.960 . S
H1074 C1088 0.960 . S
H1075 C1088 0.960 . S
C1076 H1068 0.929 . S
C1076 C1077 1.377 . S
C1076 C1078 1.384 . S
C1077 C1076 1.377 . S
C1077 C1083 1.390 . S
C1078 H1069 0.930 . S
C1078 C1076 1.384 . S
C1078 C1079 1.372 . S
C1079 C1078 1.372 . S
C1079 C1080 1.400 . S
C1079 C1084 1.490 . S
C1080 H1070 0.930 . S
C1080 C1079 1.400 . S
C1080 C1083 1.386 . S
H1081 C1097 0.930 . S
H1082 C1098 0.931 . S
C1083 H1071 0.929 . S
C1083 C1077 1.390 . S
C1083 C1080 1.386 . S
C1084 C1079 1.490 . S
C1084 C1086 1.395 . S
C1084 C1087 1.403 . S
H1085 C1091 0.930 . S
C1086 H1072 0.930 . S
C1086 C1084 1.395 . S
C1086 C1089 1.403 . S
C1087 C1084 1.403 . S
C1087 C1088 1.524 . S
C1087 C1091 1.400 . S
C1088 H1073 0.960 . S
C1088 H1074 0.960 . S
C1088 H1075 0.960 . S
C1088 C1087 1.524 . S
C1089 C1086 1.403 . S
C1089 C1090 1.392 . S
C1089 C1093 1.495 . S
C1090 C1089 1.392 . S
C1090 C1091 1.385 . S
C1090 C1092 1.478 . S
C1091 H1085 0.930 . S
C1091 C1087 1.400 . S
C1091 C1090 1.385 . S
C1092 C1090 1.478 . S
C1092 C1094 1.381 . S
C1092 C1098 1.383 . S
C1093 C1089 1.495 . S
C1093 H1099 0.959 . S
C1093 H1100 0.961 . S
C1093 H1101 0.960 . S
C1094 C1092 1.381 . S
C1094 C1095 1.394 . S
C1094 H1102 0.930 . S
C1095 C1094 1.394 . S
C1095 C1096 1.383 . S
C1095 H1103 0.929 . S
C1096 C1095 1.383 . S
C1096 C1097 1.377 . S
C1097 H1081 0.930 . S
C1097 C1096 1.377 . S
C1097 C1098 1.379 . S
C1098 H1082 0.931 . S
C1098 C1092 1.383 . S
C1098 C1097 1.379 . S
H1099 C1093 0.959 . S
H1100 C1093 0.961 . S
H1101 C1093 0.960 . S
H1102 C1094 0.930 . S
H1103 C1095 0.929 . S
H1104 C1112 0.929 . S
H1105 C1114 0.930 . S
H1106 C1116 0.930 . S
H1107 C1119 0.929 . S
H1108 C1122 0.930 . S
H1109 C1124 0.960 . S
H1110 C1124 0.960 . S
H1111 C1124 0.960 . S
C1112 H1104 0.929 . S
C1112 C1113 1.377 . S
C1112 C1114 1.384 . S
C1113 C1112 1.377 . S
C1113 C1119 1.390 . S
C1114 H1105 0.930 . S
C1114 C1112 1.384 . S
C1114 C1115 1.372 . S
C1115 C1114 1.372 . S
C1115 C1116 1.400 . S
C1115 C1120 1.490 . S
C1116 H1106 0.930 . S
C1116 C1115 1.400 . S
C1116 C1119 1.386 . S
H1117 C1133 0.930 . S
H1118 C1134 0.931 . S
C1119 H1107 0.929 . S
C1119 C1113 1.390 . S
C1119 C1116 1.386 . S
C1120 C1115 1.490 . S
C1120 C1122 1.395 . S
C1120 C1123 1.403 . S
H1121 C1127 0.930 . S
C1122 H1108 0.930 . S
C1122 C1120 1.395 . S
C1122 C1125 1.403 . S
C1123 C1120 1.403 . S
C1123 C1124 1.524 . S
C1123 C1127 1.400 . S
C1124 H1109 0.960 . S
C1124 H1110 0.960 . S
C1124 H1111 0.960 . S
C1124 C1123 1.524 . S
C1125 C1122 1.403 . S
C1125 C1126 1.392 . S
C1125 C1129 1.495 . S
C1126 C1125 1.392 . S
C1126 C1127 1.385 . S
C1126 C1128 1.478 . S
C1127 H1121 0.930 . S
C1127 C1123 1.400 . S
C1127 C1126 1.385 . S
C1128 C1126 1.478 . S
C1128 C1130 1.381 . S
C1128 C1134 1.383 . S
C1129 C1125 1.495 . S
C1129 H1135 0.959 . S
C1129 H1136 0.961 . S
C1129 H1137 0.960 . S
C1130 C1128 1.381 . S
C1130 C1131 1.394 . S
C1130 H1138 0.930 . S
C1131 C1130 1.394 . S
C1131 C1132 1.383 . S
C1131 H1139 0.929 . S
C1132 C1131 1.383 . S
C1132 C1133 1.377 . S
C1133 H1117 0.930 . S
C1133 C1132 1.377 . S
C1133 C1134 1.379 . S
C1134 H1118 0.931 . S
C1134 C1128 1.383 . S
C1134 C1133 1.379 . S
H1135 C1129 0.959 . S
H1136 C1129 0.961 . S
H1137 C1129 0.960 . S
H1138 C1130 0.930 . S
H1139 C1131 0.929 . S
H1140 C1148 0.929 . S
H1141 C1150 0.930 . S
H1142 C1152 0.930 . S
H1143 C1155 0.929 . S
H1144 C1158 0.930 . S
H1145 C1160 0.960 . S
H1146 C1160 0.960 . S
H1147 C1160 0.960 . S
C1148 H1140 0.929 . S
C1148 C1149 1.377 . S
C1148 C1150 1.384 . S
C1149 C1148 1.377 . S
C1149 C1155 1.390 . S
C1150 H1141 0.930 . S
C1150 C1148 1.384 . S
C1150 C1151 1.372 . S
C1151 C1150 1.372 . S
C1151 C1152 1.400 . S
C1151 C1156 1.490 . S
C1152 H1142 0.930 . S
C1152 C1151 1.400 . S
C1152 C1155 1.386 . S
H1153 C1169 0.930 . S
H1154 C1170 0.931 . S
C1155 H1143 0.929 . S
C1155 C1149 1.390 . S
C1155 C1152 1.386 . S
C1156 C1151 1.490 . S
C1156 C1158 1.395 . S
C1156 C1159 1.403 . S
H1157 C1163 0.930 . S
C1158 H1144 0.930 . S
C1158 C1156 1.395 . S
C1158 C1161 1.403 . S
C1159 C1156 1.403 . S
C1159 C1160 1.524 . S
C1159 C1163 1.400 . S
C1160 H1145 0.960 . S
C1160 H1146 0.960 . S
C1160 H1147 0.960 . S
C1160 C1159 1.524 . S
C1161 C1158 1.403 . S
C1161 C1162 1.392 . S
C1161 C1165 1.495 . S
C1162 C1161 1.392 . S
C1162 C1163 1.385 . S
C1162 C1164 1.478 . S
C1163 H1157 0.930 . S
C1163 C1159 1.400 . S
C1163 C1162 1.385 . S
C1164 C1162 1.478 . S
C1164 C1166 1.381 . S
C1164 C1170 1.383 . S
C1165 C1161 1.495 . S
C1165 H1171 0.959 . S
C1165 H1172 0.961 . S
C1165 H1173 0.960 . S
C1166 C1164 1.381 . S
C1166 C1167 1.394 . S
C1166 H1174 0.930 . S
C1167 C1166 1.394 . S
C1167 C1168 1.383 . S
C1167 H1175 0.929 . S
C1168 C1167 1.383 . S
C1168 C1169 1.377 . S
C1169 H1153 0.930 . S
C1169 C1168 1.377 . S
C1169 C1170 1.379 . S
C1170 H1154 0.931 . S
C1170 C1164 1.383 . S
C1170 C1169 1.379 . S
H1171 C1165 0.959 . S
H1172 C1165 0.961 . S
H1173 C1165 0.960 . S
H1174 C1166 0.930 . S
H1175 C1167 0.929 . S
C321 C6 1.227 . S
C340 C159 1.248 . S
C357 C21 1.550 . S
C376 C208 1.554 . S
C412 C234 1.670 . S
C393 C49 1.587 . S
C429 C68 1.942 . S
C448 C282 1.969 1_655 S
C484 C194 3.229 . S
C465 C2 3.147 . S
C520 C162 0.496 . S
C501 C30 0.492 . S
C556 C283 1.758 . S
C537 C40 1.775 . S
C592 C251 1.274 . S
C573 C63 1.294 . S
C609 C11 1.503 . S
C628 C279 1.634 . S
C664 C211 2.597 . S
C645 C44 2.680 . S
C681 C59 1.903 . S
C700 C163 1.909 . S
C717 C25 1.141 . S
C736 C248 1.129 . S
C772 C168 1.560 . S
C753 C82 1.573 . S
C789 C101 1.218 . S
C808 C199 1.213 . S
C825 C125 2.154 . S
C844 C243 2.283 . S
C861 C144 1.601 . S
C880 C291 1.702 . S
C897 C87 1.928 . S
C916 C203 2.045 1_565 S
C952 C171 1.963 . S
C933 C97 2.021 . S
C988 C274 1.527 . S
C969 C120 1.590 . S
C1024 C242 1.338 . S
C1005 C135 1.371 . S
C1041 C78 2.036 . S
C1060 C288 2.115 . S
C1096 C202 1.816 . S
C1077 C116 1.854 . S
C1132 C154 2.650 . S
C1113 C139 2.661 . S
C1149 C106 0.786 . S
C1168 C239 0.864 . S
