# Generated by pormake.
# Topology eea, (3,6)-cn, num edge types: 1
# Building blocks:
#     Node 0, Type 0, BuildingBlock: ESEHIV_clean_linker_0, # of connection points: 3
#     Node 1, Type 0, BuildingBlock: ESEHIV_clean_linker_0, # of connection points: 3
#     Node 2, Type 0, BuildingBlock: ESEHIV_clean_linker_0, # of connection points: 3
#     Node 3, Type 0, BuildingBlock: ESEHIV_clean_linker_0, # of connection points: 3
#     Node 4, Type 0, BuildingBlock: ESEHIV_clean_linker_0, # of connection points: 3
#     Node 5, Type 0, BuildingBlock: ESEHIV_clean_linker_0, # of connection points: 3
#     Node 6, Type 0, BuildingBlock: ESEHIV_clean_linker_0, # of connection points: 3
#     Node 7, Type 0, BuildingBlock: ESEHIV_clean_linker_0, # of connection points: 3
#     Node 8, Type 0, BuildingBlock: ESEHIV_clean_linker_0, # of connection points: 3
#     Node 9, Type 0, BuildingBlock: ESEHIV_clean_linker_0, # of connection points: 3
#     Node 10, Type 0, BuildingBlock: ESEHIV_clean_linker_0, # of connection points: 3
#     Node 11, Type 0, BuildingBlock: ESEHIV_clean_linker_0, # of connection points: 3
#     Node 12, Type 0, BuildingBlock: ESEHIV_clean_linker_0, # of connection points: 3
#     Node 13, Type 0, BuildingBlock: ESEHIV_clean_linker_0, # of connection points: 3
#     Node 14, Type 0, BuildingBlock: ESEHIV_clean_linker_0, # of connection points: 3
#     Node 15, Type 0, BuildingBlock: ESEHIV_clean_linker_0, # of connection points: 3
#     Node 16, Type 0, BuildingBlock: ESEHIV_clean_linker_0, # of connection points: 3
#     Node 17, Type 0, BuildingBlock: ESEHIV_clean_linker_0, # of connection points: 3
#     Node 18, Type 1, BuildingBlock: CIFDUS_clean_sbu_1, # of connection points: 6
#     Node 19, Type 1, BuildingBlock: CIFDUS_clean_sbu_1, # of connection points: 6
#     Node 20, Type 1, BuildingBlock: CIFDUS_clean_sbu_1, # of connection points: 6
#     Node 21, Type 1, BuildingBlock: CIFDUS_clean_sbu_1, # of connection points: 6
#     Node 22, Type 1, BuildingBlock: CIFDUS_clean_sbu_1, # of connection points: 6
#     Node 23, Type 1, BuildingBlock: CIFDUS_clean_sbu_1, # of connection points: 6
#     Node 24, Type 1, BuildingBlock: CIFDUS_clean_sbu_1, # of connection points: 6
#     Node 25, Type 1, BuildingBlock: CIFDUS_clean_sbu_1, # of connection points: 6
#     Node 26, Type 1, BuildingBlock: CIFDUS_clean_sbu_1, # of connection points: 6
#     Edge 27, Type (0, 1), BuildingBlock: KIFKEQ_clean_linker_1, # of connection points: 2
#     Edge 28, Type (0, 1), BuildingBlock: KIFKEQ_clean_linker_1, # of connection points: 2
#     Edge 29, Type (0, 1), BuildingBlock: KIFKEQ_clean_linker_1, # of connection points: 2
#     Edge 30, Type (0, 1), BuildingBlock: KIFKEQ_clean_linker_1, # of connection points: 2
#     Edge 31, Type (0, 1), BuildingBlock: KIFKEQ_clean_linker_1, # of connection points: 2
#     Edge 32, Type (0, 1), BuildingBlock: KIFKEQ_clean_linker_1, # of connection points: 2
#     Edge 33, Type (0, 1), BuildingBlock: KIFKEQ_clean_linker_1, # of connection points: 2
#     Edge 34, Type (0, 1), BuildingBlock: KIFKEQ_clean_linker_1, # of connection points: 2
#     Edge 35, Type (0, 1), BuildingBlock: KIFKEQ_clean_linker_1, # of connection points: 2
#     Edge 36, Type (0, 1), BuildingBlock: KIFKEQ_clean_linker_1, # of connection points: 2
#     Edge 37, Type (0, 1), BuildingBlock: KIFKEQ_clean_linker_1, # of connection points: 2
#     Edge 38, Type (0, 1), BuildingBlock: KIFKEQ_clean_linker_1, # of connection points: 2
#     Edge 39, Type (0, 1), BuildingBlock: KIFKEQ_clean_linker_1, # of connection points: 2
#     Edge 40, Type (0, 1), BuildingBlock: KIFKEQ_clean_linker_1, # of connection points: 2
#     Edge 41, Type (0, 1), BuildingBlock: KIFKEQ_clean_linker_1, # of connection points: 2
#     Edge 42, Type (0, 1), BuildingBlock: KIFKEQ_clean_linker_1, # of connection points: 2
#     Edge 43, Type (0, 1), BuildingBlock: KIFKEQ_clean_linker_1, # of connection points: 2
#     Edge 44, Type (0, 1), BuildingBlock: KIFKEQ_clean_linker_1, # of connection points: 2
#     Edge 45, Type (0, 1), BuildingBlock: KIFKEQ_clean_linker_1, # of connection points: 2
#     Edge 46, Type (0, 1), BuildingBlock: KIFKEQ_clean_linker_1, # of connection points: 2
#     Edge 47, Type (0, 1), BuildingBlock: KIFKEQ_clean_linker_1, # of connection points: 2
#     Edge 48, Type (0, 1), BuildingBlock: KIFKEQ_clean_linker_1, # of connection points: 2
#     Edge 49, Type (0, 1), BuildingBlock: KIFKEQ_clean_linker_1, # of connection points: 2
#     Edge 50, Type (0, 1), BuildingBlock: KIFKEQ_clean_linker_1, # of connection points: 2
#     Edge 51, Type (0, 1), BuildingBlock: KIFKEQ_clean_linker_1, # of connection points: 2
#     Edge 52, Type (0, 1), BuildingBlock: KIFKEQ_clean_linker_1, # of connection points: 2
#     Edge 53, Type (0, 1), BuildingBlock: KIFKEQ_clean_linker_1, # of connection points: 2
#     Edge 54, Type (0, 1), BuildingBlock: KIFKEQ_clean_linker_1, # of connection points: 2
#     Edge 55, Type (0, 1), BuildingBlock: KIFKEQ_clean_linker_1, # of connection points: 2
#     Edge 56, Type (0, 1), BuildingBlock: KIFKEQ_clean_linker_1, # of connection points: 2
#     Edge 57, Type (0, 1), BuildingBlock: KIFKEQ_clean_linker_1, # of connection points: 2
#     Edge 58, Type (0, 1), BuildingBlock: KIFKEQ_clean_linker_1, # of connection points: 2
#     Edge 59, Type (0, 1), BuildingBlock: KIFKEQ_clean_linker_1, # of connection points: 2
#     Edge 60, Type (0, 1), BuildingBlock: KIFKEQ_clean_linker_1, # of connection points: 2
#     Edge 61, Type (0, 1), BuildingBlock: KIFKEQ_clean_linker_1, # of connection points: 2
#     Edge 62, Type (0, 1), BuildingBlock: KIFKEQ_clean_linker_1, # of connection points: 2
#     Edge 63, Type (0, 1), BuildingBlock: KIFKEQ_clean_linker_1, # of connection points: 2
#     Edge 64, Type (0, 1), BuildingBlock: KIFKEQ_clean_linker_1, # of connection points: 2
#     Edge 65, Type (0, 1), BuildingBlock: KIFKEQ_clean_linker_1, # of connection points: 2
#     Edge 66, Type (0, 1), BuildingBlock: KIFKEQ_clean_linker_1, # of connection points: 2
#     Edge 67, Type (0, 1), BuildingBlock: KIFKEQ_clean_linker_1, # of connection points: 2
#     Edge 68, Type (0, 1), BuildingBlock: KIFKEQ_clean_linker_1, # of connection points: 2
#     Edge 69, Type (0, 1), BuildingBlock: KIFKEQ_clean_linker_1, # of connection points: 2
#     Edge 70, Type (0, 1), BuildingBlock: KIFKEQ_clean_linker_1, # of connection points: 2
#     Edge 71, Type (0, 1), BuildingBlock: KIFKEQ_clean_linker_1, # of connection points: 2
#     Edge 72, Type (0, 1), BuildingBlock: KIFKEQ_clean_linker_1, # of connection points: 2
#     Edge 73, Type (0, 1), BuildingBlock: KIFKEQ_clean_linker_1, # of connection points: 2
#     Edge 74, Type (0, 1), BuildingBlock: KIFKEQ_clean_linker_1, # of connection points: 2
#     Edge 75, Type (0, 1), BuildingBlock: KIFKEQ_clean_linker_1, # of connection points: 2
#     Edge 76, Type (0, 1), BuildingBlock: KIFKEQ_clean_linker_1, # of connection points: 2
#     Edge 77, Type (0, 1), BuildingBlock: KIFKEQ_clean_linker_1, # of connection points: 2
#     Edge 78, Type (0, 1), BuildingBlock: KIFKEQ_clean_linker_1, # of connection points: 2
#     Edge 79, Type (0, 1), BuildingBlock: KIFKEQ_clean_linker_1, # of connection points: 2
#     Edge 80, Type (0, 1), BuildingBlock: KIFKEQ_clean_linker_1, # of connection points: 2
# Relax obj value: 0.100
# Max RMSD: 0.184
# Mean RMSD: 0.093
data_MOF--net-eea--node1-CIFDUS_clean_sbu_1--node2-ESEHIV_clean_linker_0--edge1-KIFKEQ_clean_linker_1
_symmetry_space_group_name_H-M    P1
_symmetry_Int_Tables_number       1
_symmetry_cell_setting            triclinic
loop_
_symmetry_equiv_pos_as_xyz
'x, y, z'
_cell_length_a     52.323363
_cell_length_b     51.553526
_cell_length_c     53.23018
_cell_angle_alpha  89.760655
_cell_angle_beta   89.897627
_cell_angle_gamma 120.04496
loop_
_atom_site_label
_atom_site_type_symbol
_atom_site_fract_x
_atom_site_fract_y
_atom_site_fract_z
_atom_type_partial_charge
H0 H 0.24465 0.1602 0.44561 0.0
H1 H 0.24179 0.07596 0.43816 0.0
H2 H 0.19199 0.09859 0.38746 0.0
C3 C 0.23707 0.13931 0.43566 0.0
C4 C 0.21765 0.13223 0.41525 0.0
C5 C 0.24591 0.1191 0.44394 0.0
C6 C 0.2358 0.09202 0.43126 0.0
C7 C 0.21625 0.0843 0.41103 0.0
C8 C 0.20703 0.10441 0.40315 0.0
H9 H 0.83186 0.07283 0.43742 0.0
H10 H 0.90818 0.16034 0.43046 0.0
H11 H 0.89125 0.09269 0.37509 0.0
C12 C 0.85114 0.08881 0.42681 0.0
C13 C 0.85936 0.07947 0.40514 0.0
C14 C 0.86866 0.11776 0.43609 0.0
C15 C 0.89435 0.13805 0.42297 0.0
C16 C 0.90266 0.12941 0.40071 0.0
C17 C 0.88513 0.09982 0.39207 0.0
H18 H 0.82525 0.74474 0.42783 0.0
H19 H 0.90779 0.74716 0.43862 0.0
H20 H 0.889 0.77486 0.36789 0.0
C21 C 0.8466 0.74953 0.4207 0.0
C22 C 0.8551 0.76069 0.39615 0.0
C23 C 0.86537 0.74438 0.43609 0.0
C24 C 0.89299 0.75058 0.42665 0.0
C25 C 0.90193 0.76199 0.40213 0.0
C26 C 0.88276 0.76692 0.38704 0.0
H27 H 0.09539 0.26298 0.56763 0.0
H28 H 0.1783 0.26655 0.57711 0.0
H29 H 0.11447 0.23335 0.63736 0.0
C30 C 0.11023 0.25943 0.57943 0.0
C31 C 0.10151 0.24744 0.6038 0.0
C32 C 0.138 0.26657 0.57002 0.0
C33 C 0.15711 0.26156 0.58483 0.0
C34 C 0.14866 0.24927 0.60907 0.0
C35 C 0.12083 0.24228 0.61847 0.0
H36 H 0.75204 0.92286 0.57111 0.0
H37 H 0.74948 0.83874 0.56396 0.0
H38 H 0.80522 0.90238 0.61968 0.0
C39 C 0.75895 0.90735 0.57758 0.0
C40 C 0.77962 0.91578 0.597 0.0
C41 C 0.74811 0.8798 0.5655 0.0
C42 C 0.75726 0.85978 0.57371 0.0
C43 C 0.77801 0.86767 0.59318 0.0
C44 C 0.78925 0.89593 0.60466 0.0
H45 H 0.09423 0.83513 0.56707 0.0
H46 H 0.17399 0.92067 0.56705 0.0
H47 H 0.10895 0.8988 0.62522 0.0
C48 C 0.10816 0.85672 0.57574 0.0
C49 C 0.09887 0.86421 0.59799 0.0
C50 C 0.13538 0.877 0.56463 0.0
C51 C 0.15315 0.90493 0.57583 0.0
C52 C 0.14371 0.91336 0.5974 0.0
C53 C 0.11677 0.89253 0.60875 0.0
H54 H 0.91254 0.49541 0.77859 0.0
H55 H 0.90994 0.4118 0.76598 0.0
H56 H 0.86204 0.43861 0.71716 0.0
C57 C 0.90556 0.47545 0.76742 0.0
C58 C 0.88711 0.47015 0.74651 0.0
C59 C 0.91326 0.45404 0.77495 0.0
C60 C 0.90343 0.42801 0.76071 0.0
C61 C 0.88457 0.42196 0.74027 0.0
C62 C 0.87671 0.44326 0.73297 0.0
H63 H 0.49648 0.40741 0.76849 0.0
H64 H 0.57306 0.4957 0.76929 0.0
H65 H 0.56109 0.43424 0.70963 0.0
C66 C 0.51678 0.42458 0.75983 0.0
C67 C 0.52681 0.41792 0.73781 0.0
C68 C 0.53316 0.45257 0.77131 0.0
C69 C 0.5601 0.47406 0.76042 0.0
C70 C 0.57025 0.46778 0.73798 0.0
C71 C 0.55327 0.43963 0.72661 0.0
H72 H 0.49113 0.0699 0.76132 0.0
H73 H 0.57431 0.07319 0.76993 0.0
H74 H 0.55504 0.10492 0.7015 0.0
C75 C 0.51234 0.07487 0.75364 0.0
C76 C 0.52092 0.08799 0.72972 0.0
C77 C 0.53151 0.06962 0.76828 0.0
C78 C 0.55937 0.07712 0.7586 0.0
C79 C 0.56805 0.0898 0.73444 0.0
C80 C 0.54873 0.09536 0.72021 0.0
H81 H 0.76091 0.59593 0.89854 0.0
H82 H 0.84137 0.59465 0.9108 0.0
H83 H 0.77516 0.56365 0.96891 0.0
C84 C 0.77476 0.59122 0.91064 0.0
C85 C 0.76474 0.57926 0.93483 0.0
C86 C 0.80245 0.59695 0.90188 0.0
C87 C 0.82024 0.59089 0.91766 0.0
C88 C 0.81048 0.57871 0.94177 0.0
C89 C 0.78261 0.57273 0.9502 0.0
H90 H 0.42203 0.25725 0.89841 0.0
H91 H 0.41714 0.1719 0.893 0.0
H92 H 0.47642 0.23732 0.94596 0.0
C93 C 0.42881 0.2417 0.90501 0.0
C94 C 0.45075 0.25084 0.92343 0.0
C95 C 0.41695 0.21358 0.89372 0.0
C96 C 0.42587 0.19346 0.90209 0.0
C97 C 0.44713 0.20164 0.92115 0.0
C98 C 0.45951 0.23048 0.93173 0.0
H99 H 0.75965 0.16837 0.90053 0.0
H100 H 0.8389 0.25446 0.89948 0.0
H101 H 0.77542 0.23257 0.95874 0.0
C102 C 0.77362 0.19003 0.90906 0.0
C103 C 0.76455 0.19769 0.93141 0.0
C104 C 0.80075 0.21029 0.89771 0.0
C105 C 0.81859 0.23827 0.90876 0.0
C106 C 0.80948 0.2466 0.9305 0.0
C107 C 0.7826 0.22612 0.94196 0.0
H108 H 0.57642 0.82473 0.10967 0.0
H109 H 0.57747 0.74273 0.09905 0.0
H110 H 0.52436 0.76377 0.05102 0.0
C111 C 0.56971 0.80439 0.09915 0.0
C112 C 0.55004 0.79731 0.0789 0.0
C113 C 0.57932 0.78457 0.10684 0.0
C114 C 0.56995 0.75802 0.09341 0.0
C115 C 0.54985 0.7501 0.07359 0.0
C116 C 0.53975 0.76973 0.06645 0.0
H117 H 0.16323 0.74026 0.10081 0.0
H118 H 0.24164 0.82688 0.1023 0.0
H119 H 0.22702 0.76576 0.04154 0.0
C120 C 0.18401 0.75679 0.09242 0.0
C121 C 0.19341 0.74981 0.07017 0.0
C122 C 0.2013 0.78429 0.10436 0.0
C123 C 0.2279 0.80573 0.09296 0.0
C124 C 0.23746 0.79942 0.07015 0.0
C125 C 0.22015 0.77109 0.05906 0.0
H126 H 0.16035 0.41219 0.09767 0.0
H127 H 0.23713 0.40272 0.10191 0.0
H128 H 0.21997 0.43877 0.03483 0.0
C129 C 0.18017 0.41447 0.08902 0.0
C130 C 0.18857 0.42704 0.06492 0.0
C131 C 0.19742 0.40534 0.10225 0.0
C132 C 0.22342 0.409 0.09125 0.0
C133 C 0.23183 0.42093 0.0668 0.0
C134 C 0.21396 0.42958 0.05367 0.0
H135 H 0.42633 0.92209 0.23328 0.0
H136 H 0.50862 0.92345 0.24298 0.0
H137 H 0.44612 0.89553 0.30389 0.0
C138 C 0.44116 0.91818 0.24479 0.0
C139 C 0.4329 0.90782 0.26959 0.0
C140 C 0.46865 0.92427 0.23504 0.0
C141 C 0.48781 0.91979 0.25053 0.0
C142 C 0.47985 0.90941 0.27537 0.0
C143 C 0.45243 0.90363 0.28478 0.0
H144 H 0.0865 0.58838 0.23353 0.0
H145 H 0.08722 0.50573 0.22903 0.0
H146 H 0.142 0.57267 0.28317 0.0
C147 C 0.09382 0.57351 0.2408 0.0
C148 C 0.1146 0.58337 0.26021 0.0
C149 C 0.08433 0.54591 0.22918 0.0
C150 C 0.09498 0.52731 0.23782 0.0
C151 C 0.1157 0.53653 0.25746 0.0
C152 C 0.12552 0.56482 0.26848 0.0
H153 H 0.42532 0.50579 0.2309 0.0
H154 H 0.50004 0.59521 0.23099 0.0
H155 H 0.4345 0.56755 0.28919 0.0
C156 C 0.43786 0.52758 0.2396 0.0
C157 C 0.42756 0.53359 0.26212 0.0
C158 C 0.46379 0.55001 0.22794 0.0
C159 C 0.47951 0.57815 0.23936 0.0
C160 C 0.46883 0.58501 0.26098 0.0
C161 C 0.44319 0.56238 0.27264 0.0
O162 O 0.45572 0.96862 0.00585 0.0
Mn163 Mn 0.50016 0.00233 0.00274 0.0
O164 O 0.43166 0.98991 0.02361 0.0
Mn165 Mn 0.46511 0.02522 0.03229 0.0
O166 O 0.54464 0.03598 -0.00057 0.0
O167 O 0.51078 0.96943 -0.0017 0.0
Mn168 Mn 0.53335 0.9795 0.97115 0.0
O169 O 0.49461 0.00557 0.96393 0.0
O170 O 0.56722 0.01534 0.97814 0.0
O171 O 0.50506 0.99933 0.04203 0.0
O172 O 0.48442 0.02354 0.06042 0.0
O173 O 0.53069 0.94464 0.98134 0.0
O174 O 0.51185 0.97944 0.94383 0.0
C175 C 0.48605 0.05819 0.00426 0.0
C176 C 0.43192 0.96772 0.01344 0.0
C177 C 0.56778 0.03714 0.98981 0.0
C178 C 0.515 0.94656 -0.00069 0.0
C179 C 0.4985 0.99427 0.94381 0.0
C180 C 0.49828 0.00919 0.06174 0.0
O181 O 0.48954 0.03504 0.00671 0.0
O182 O 0.46969 0.06077 0.02122 0.0
O183 O 0.02915 0.48749 0.00615 0.0
Mn184 Mn 0.99648 0.49904 0.00305 0.0
O185 O 0.01029 0.44637 0.03102 0.0
Mn186 Mn 0.97563 0.4457 0.04005 0.0
O187 O 0.96362 0.51048 0.0003 0.0
O188 O 0.02789 0.5407 0.99309 0.0
Mn189 Mn 0.01648 0.55294 0.9668 0.0
O190 O 0.98984 0.48512 0.96533 0.0
O191 O 0.9828 0.55314 0.97746 0.0
O192 O 0.00325 0.51314 0.04075 0.0
O193 O 0.97856 0.47189 0.06483 0.0
O194 O 0.05335 0.58403 0.97459 0.0
O195 O 0.01195 0.52686 0.9414 0.0
C196 C 0.94175 0.43124 0.01251 0.0
C197 C 0.03074 0.46608 0.01704 0.0
C198 C 0.96231 0.53272 0.99087 0.0
C199 C 0.0518 0.56648 0.99269 0.0
C200 C -0.00136 0.49851 0.94393 0.0
C201 C 0.99323 0.50022 0.06216 0.0
O202 O 0.96521 0.45734 0.01283 0.0
O203 O 0.93948 0.41403 0.03115 0.0
O204 O 0.54154 0.51596 0.99102 0.0
Mn205 Mn 0.49673 0.49761 -0.00092 0.0
O206 O 0.54955 0.54879 0.95962 0.0
Mn207 Mn 0.51247 0.54547 0.95886 0.0
O208 O 0.45193 0.47997 0.00628 0.0
O209 O 0.49416 0.4582 0.00843 0.0
Mn210 Mn 0.47495 0.44572 0.03717 0.0
O211 O 0.50626 0.51334 0.0364 0.0
O212 O 0.43734 0.43956 0.03122 0.0
O213 O 0.48705 0.48111 0.962 0.0
O214 O 0.48511 0.51593 0.93858 0.0
O215 O 0.48402 0.41701 0.02851 0.0
O216 O 0.49693 0.47394 0.06091 0.0
C217 C 0.49938 0.56234 0.98936 0.0
C218 C 0.55831 0.5351 0.97429 0.0
C219 C 0.43194 0.45713 0.01827 0.0
C220 C 0.49524 0.43359 0.00869 0.0
C221 C 0.50649 0.50178 0.05787 0.0
C222 C 0.48085 0.48965 0.94129 0.0
O223 O 0.49923 0.53707 0.98995 0.0
O224 O 0.50747 0.57669 0.96818 0.0
O225 O 0.12131 0.29839 0.33822 0.0
Mn226 Mn 0.16523 0.33373 0.33541 0.0
O227 O 0.09483 0.31761 0.3548 0.0
Mn228 Mn 0.12711 0.35328 0.36462 0.0
O229 O 0.20922 0.36867 0.33207 0.0
O230 O 0.17772 0.3024 0.33091 0.0
Mn231 Mn 0.20023 0.31264 0.3038 0.0
O232 O 0.15963 0.33673 0.29664 0.0
O233 O 0.2331 0.34928 0.31085 0.0
O234 O 0.17059 0.3314 0.37452 0.0
O235 O 0.14631 0.35194 0.39307 0.0
O236 O 0.1987 0.27842 0.31477 0.0
O237 O 0.17816 0.31171 0.27653 0.0
C238 C 0.14859 0.38771 0.33769 0.0
C239 C 0.09664 0.29617 0.34488 0.0
C240 C 0.23277 0.37068 0.32248 0.0
C241 C 0.18276 0.28017 0.33259 0.0
C242 C 0.16413 0.3259 0.27651 0.0
C243 C 0.16281 0.34038 0.39417 0.0
O244 O 0.15273 0.36496 0.33969 0.0
O245 O 0.13074 0.38865 0.35405 0.0
O246 O 0.69712 0.81735 0.33417 0.0
Mn247 Mn 0.6649 0.82996 0.33571 0.0
O248 O 0.67578 0.76931 0.34659 0.0
Mn249 Mn 0.64438 0.76959 0.36221 0.0
O250 O 0.63336 0.84348 0.33681 0.0
O251 O 0.69752 0.87237 0.33008 0.0
Mn252 Mn 0.68786 0.88897 0.30574 0.0
O253 O 0.65831 0.82237 0.29687 0.0
O254 O 0.65437 0.88869 0.31757 0.0
O255 O 0.67125 0.83681 0.37482 0.0
O256 O 0.65299 0.79069 0.39173 0.0
O257 O 0.72468 0.91792 0.31608 0.0
O258 O 0.68346 0.8669 0.27721 0.0
C259 C 0.60777 0.76199 0.34002 0.0
C260 C 0.69742 0.7928 0.3372 0.0
C261 C 0.63323 0.8673 0.32975 0.0
C262 C 0.72179 0.89763 0.33206 0.0
C263 C 0.66829 0.83844 0.27681 0.0
C264 C 0.66528 0.81905 0.39384 0.0
O265 O 0.63218 0.78737 0.34116 0.0
O266 O 0.60649 0.74112 0.35448 0.0
O267 O 0.21186 0.85047 0.32753 0.0
Mn268 Mn 0.16716 0.83604 0.33287 0.0
O269 O 0.23074 0.89272 0.3042 0.0
Mn270 Mn 0.19497 0.89047 0.29699 0.0
O271 O 0.12241 0.82144 0.33831 0.0
O272 O 0.16045 0.79467 0.34082 0.0
Mn273 Mn 0.14045 0.78209 0.36911 0.0
O274 O 0.17531 0.84927 0.37081 0.0
O275 O 0.10468 0.7802 0.3629 0.0
O276 O 0.15919 0.82299 0.29495 0.0
O277 O 0.17302 0.86451 0.27179 0.0
O278 O 0.14633 0.75156 0.35914 0.0
O279 O 0.16363 0.80815 0.39373 0.0
C280 C 0.17458 0.90281 0.32534 0.0
C281 C 0.23358 0.87312 0.31667 0.0
C282 C 0.10121 0.79911 0.34996 0.0
C283 C 0.15919 0.76894 0.34005 0.0
C284 C 0.17463 0.83632 0.39174 0.0
C285 C 0.16125 0.83623 0.27385 0.0
O286 O 0.17383 0.87732 0.32473 0.0
O287 O 0.18812 0.92052 0.30658 0.0
O288 O 0.78951 0.6362 0.67396 0.0
Mn289 Mn 0.83381 0.66941 0.66904 0.0
O290 O 0.76883 0.65652 0.69831 0.0
Mn291 Mn 0.80336 0.69204 0.70509 0.0
O292 O 0.87813 0.70247 0.66408 0.0
O293 O 0.84352 0.63687 0.66114 0.0
Mn294 Mn 0.86387 0.64625 0.63294 0.0
O295 O 0.82584 0.67459 0.63102 0.0
O296 O 0.8984 0.68179 0.63958 0.0
O297 O 0.84189 0.66432 0.707 0.0
O298 O 0.82679 0.69045 0.73014 0.0
O299 O 0.86041 0.61058 0.64278 0.0
O300 O 0.84027 0.64778 0.60803 0.0
C301 C 0.82069 0.72527 0.67658 0.0
C302 C 0.7672 0.63501 0.68531 0.0
C303 C 0.90026 0.70337 0.65264 0.0
C304 C 0.84688 0.6136 0.66196 0.0
C305 C 0.828 0.66361 0.60997 0.0
C306 C 0.83953 0.67508 0.7281 0.0
O307 O 0.82405 0.70197 0.67699 0.0
O308 O 0.8068 0.72779 0.69572 0.0
O309 O 0.36524 0.15483 0.67362 0.0
Mn310 Mn 0.33324 0.16681 0.66897 0.0
O311 O 0.34686 0.11679 0.70172 0.0
Mn312 Mn 0.31215 0.11693 0.70899 0.0
O313 O 0.30152 0.17922 0.66426 0.0
O314 O 0.36505 0.20737 0.65761 0.0
Mn315 Mn 0.35572 0.21813 0.6294 0.0
O316 O 0.32617 0.15026 0.63203 0.0
O317 O 0.32155 0.21893 0.63767 0.0
O318 O 0.34036 0.1839 0.70575 0.0
O319 O 0.31455 0.14485 0.73169 0.0
O320 O 0.39216 0.24963 0.63848 0.0
O321 O 0.35199 0.18983 0.60636 0.0
C322 C 0.27808 0.09946 0.6817 0.0
C323 C 0.36692 0.13474 0.68654 0.0
C324 C 0.30094 0.20056 0.6523 0.0
C325 C 0.38877 0.23316 0.65798 0.0
C326 C 0.33651 0.16171 0.61023 0.0
C327 C 0.32963 0.17287 0.72753 0.0
O328 O 0.30141 0.12574 0.68035 0.0
O329 O 0.2762 0.08426 0.70171 0.0
O330 O 0.8784 0.18362 0.66077 0.0
Mn331 Mn 0.83379 0.16818 0.66619 0.0
O332 O 0.88672 0.21121 0.62579 0.0
Mn333 Mn 0.85151 0.21189 0.6257 0.0
O334 O 0.78899 0.15285 0.67111 0.0
O335 O 0.82817 0.12774 0.67602 0.0
Mn336 Mn 0.80764 0.11573 0.70407 0.0
O337 O 0.84171 0.18345 0.70367 0.0
O338 O 0.77148 0.11249 0.69668 0.0
O339 O 0.8264 0.15122 0.62911 0.0
O340 O 0.82107 0.18377 0.60682 0.0
O341 O 0.81491 0.08562 0.69566 0.0
O342 O 0.83012 0.14329 0.72803 0.0
C343 C 0.84322 0.23639 0.65135 0.0
C344 C 0.89498 0.19898 0.64234 0.0
C345 C 0.76788 0.13073 0.68293 0.0
C346 C 0.82782 0.10244 0.67629 0.0
C347 C 0.84104 0.17136 0.72509 0.0
C348 C 0.81899 0.15848 0.6085 0.0
O349 O 0.83955 0.20993 0.65713 0.0
O350 O 0.85275 0.24692 0.62898 0.0
H351 H 0.27944 0.79099 0.0464 0.0
H352 H 0.25907 0.85979 0.0665 0.0
H353 H 0.32535 0.82878 0.02671 0.0
H354 H 0.30552 0.89759 0.04823 0.0
H355 H 0.37873 0.9601 0.00026 0.0
H356 H 0.33056 0.91689 0.00971 0.0
H357 H 0.37313 0.8692 0.03779 0.0
H358 H 0.42131 0.91215 0.02704 0.0
C359 C 0.28466 0.81414 0.04653 0.0
C360 C 0.26551 0.82233 0.05807 0.0
C361 C 0.31116 0.83585 0.03546 0.0
C362 C 0.31915 0.86626 0.03571 0.0
C363 C 0.2999 0.87435 0.04718 0.0
C364 C 0.27341 0.85269 0.05809 0.0
C365 C 0.37764 0.93997 0.00771 0.0
C366 C 0.40359 0.93937 0.01302 0.0
C367 C 0.35011 0.91536 0.01345 0.0
C368 C 0.34794 0.88984 0.02518 0.0
C369 C 0.37391 0.88842 0.02872 0.0
C370 C 0.40154 0.91297 0.02251 0.0
H371 H 0.16542 0.41353 0.01767 0.0
H372 H 0.1724 0.46571 0.08318 0.0
H373 H 0.13167 0.42794 -0.00154 0.0
H374 H 0.13901 0.48021 0.06406 0.0
H375 H 0.08742 0.51216 0.02034 0.0
H376 H 0.13155 0.50755 0.02602 0.0
H377 H 0.07894 0.41206 0.01446 0.0
H378 H 0.03501 0.4166 0.0094 0.0
C379 C 0.16017 0.42854 0.02767 0.0
C380 C 0.17106 0.43824 0.05197 0.0
C381 C 0.14098 0.43677 0.01673 0.0
C382 C 0.13289 0.45523 0.02978 0.0
C383 C 0.14521 0.46629 0.05346 0.0
C384 C 0.16398 0.45772 0.06452 0.0
C385 C 0.0856 0.49039 0.01829 0.0
C386 C 0.05797 0.46465 0.01471 0.0
C387 C 0.11072 0.48775 0.0216 0.0
C388 C 0.10852 0.45944 0.02077 0.0
C389 C 0.08128 0.43415 0.015 0.0
C390 C 0.05615 0.4367 0.01227 0.0
H391 H 0.49234 0.70663 0.06647 0.0
H392 H 0.58186 0.72597 0.05518 0.0
H393 H 0.47397 0.65484 0.05317 0.0
H394 H 0.56378 0.67469 0.04149 0.0
H395 H 0.53146 0.57954 0.03238 0.0
H396 H 0.54046 0.62358 0.05658 0.0
H397 H 0.47022 0.62648 0.0164 0.0
H398 H 0.46094 0.58221 0.99303 0.0
C399 C 0.50802 0.69991 0.0607 0.0
C400 C 0.53849 0.72026 0.06186 0.0
C401 C 0.49757 0.6702 0.05331 0.0
C402 C 0.51739 0.66032 0.04681 0.0
C403 C 0.54786 0.68112 0.04719 0.0
C404 C 0.55825 0.71066 0.05466 0.0
C405 C 0.51686 0.58859 0.02989 0.0
C406 C 0.49536 0.57743 0.01105 0.0
C407 C 0.52243 0.61424 0.04329 0.0
C408 C 0.50668 0.62918 0.03785 0.0
C409 C 0.48284 0.61573 0.02111 0.0
C410 C 0.47731 0.59014 0.00782 0.0
H411 H 0.791 0.28626 0.94136 0.0
H412 H 0.86846 0.27694 0.93958 0.0
H413 H 0.82154 0.33892 0.95317 0.0
H414 H 0.89889 0.32905 0.95189 0.0
H415 H 0.95413 0.42223 0.96513 0.0
H416 H 0.91934 0.38053 0.93916 0.0
H417 H 0.8484 0.36627 0.98941 0.0
H418 H 0.88306 0.40862 0.01445 0.0
C419 C 0.81452 0.29546 0.94381 0.0
C420 C 0.82741 0.2776 0.93977 0.0
C421 C 0.83204 0.32562 0.95032 0.0
C422 C 0.86276 0.33842 0.95308 0.0
C423 C 0.87548 0.32031 0.94917 0.0
C424 C 0.85803 0.29031 0.9425 0.0
C425 C 0.93078 0.41144 0.96953 0.0
C426 C 0.92111 0.41864 0.99158 0.0
C427 C 0.91092 0.38709 0.95504 0.0
C428 C 0.88128 0.36938 0.96275 0.0
C429 C 0.87103 0.37925 0.98292 0.0
C430 C 0.89086 0.40369 0.99724 0.0
H431 H 0.72146 0.52902 0.95835 0.0
H432 H 0.74239 0.61681 0.93195 0.0
H433 H 0.67202 0.51851 0.97044 0.0
H434 H 0.69342 0.60669 0.94443 0.0
H435 H 0.59496 0.56441 0.93511 0.0
H436 H 0.64488 0.57505 0.9282 0.0
H437 H 0.64221 0.53115 -0.00172 0.0
H438 H 0.59115 0.51961 0.00507 0.0
C439 C 0.71561 0.54621 0.9555 0.0
C440 C 0.73557 0.57357 0.94389 0.0
C441 C 0.68736 0.54025 0.9625 0.0
C442 C 0.67864 0.56161 0.95811 0.0
C443 C 0.69918 0.58946 0.94752 0.0
C444 C 0.72723 0.5953 0.94037 0.0
C445 C 0.60489 0.55711 0.94926 0.0
C446 C 0.58903 0.54139 0.97082 0.0
C447 C 0.63372 0.56341 0.94531 0.0
C448 C 0.64777 0.55441 0.96286 0.0
C449 C 0.63194 0.53834 0.98437 0.0
C450 C 0.60278 0.53184 0.9883 0.0
H451 H 0.50397 0.21425 0.9292 0.0
H452 H 0.4138 0.14129 0.93005 0.0
H453 H 0.52089 0.17977 0.9417 0.0
H454 H 0.43055 0.10689 0.94287 0.0
H455 H 0.46223 0.045 0.95786 0.0
H456 H 0.45646 0.08098 0.93196 0.0
H457 H 0.51966 0.15297 0.97857 0.0
H458 H 0.5258 0.11702 0.00365 0.0
C459 C 0.48773 0.19087 0.9322 0.0
C460 C 0.4575 0.18059 0.92881 0.0
C461 C 0.49745 0.17105 0.93923 0.0
C462 C 0.47718 0.14043 0.94317 0.0
C463 C 0.44695 0.13012 0.93943 0.0
C464 C 0.43726 0.14991 0.93228 0.0
C465 C 0.47631 0.06873 0.96142 0.0
C466 C 0.49484 0.07834 0.98246 0.0
C467 C 0.47246 0.08932 0.94702 0.0
C468 C 0.48694 0.11986 0.95359 0.0
C469 C 0.50815 0.12974 0.97281 0.0
C470 C 0.51202 0.10915 0.98709 0.0
H471 H 0.71092 0.16762 0.90857 0.0
H472 H 0.75308 0.18046 0.9807 0.0
H473 H 0.6632 0.13292 0.92778 0.0
H474 H 0.70523 0.14542 -9e-05 0.0
H475 H 0.62091 0.04531 0.00414 0.0
H476 H 0.66931 0.08786 0.99322 0.0
H477 H 0.62706 0.13402 0.96157 0.0
H478 H 0.57856 0.09162 0.97318 0.0
C479 C 0.70994 0.16298 0.92853 0.0
C480 C 0.73566 0.17663 0.94314 0.0
C481 C 0.68262 0.14344 0.93956 0.0
C482 C 0.68053 0.13678 0.96537 0.0
C483 C 0.70625 0.15033 0.98001 0.0
C484 C 0.73354 0.17032 0.96904 0.0
C485 C 0.62211 0.06507 0.99574 0.0
C486 C 0.59618 0.06543 0.98967 0.0
C487 C 0.64974 0.08935 0.98944 0.0
C488 C 0.65185 0.11405 0.97635 0.0
C489 C 0.62596 0.11514 0.97157 0.0
C490 C 0.59831 0.09111 0.97844 0.0
H491 H 0.79486 0.52678 0.96751 0.0
H492 H 0.86881 0.61464 0.95135 0.0
H493 H 0.82802 0.51299 0.98854 0.0
H494 H 0.9019 0.60085 0.97145 0.0
H495 H 0.95926 0.5786 0.01178 0.0
H496 H 0.91819 0.58821 0.00879 0.0
H497 H 0.86539 0.5022 0.97317 0.0
H498 H 0.90616 0.49215 0.97758 0.0
C499 C 0.81811 0.54329 0.96892 0.0
C500 C 0.82941 0.57165 0.95762 0.0
C501 C 0.83709 0.53535 0.98077 0.0
C502 C 0.86763 0.55574 0.98163 0.0
C503 C 0.87849 0.58467 0.97152 0.0
C504 C 0.85961 0.59252 0.95969 0.0
C505 C 0.93845 0.56142 0.00414 0.0
C506 C 0.9357 0.53483 0.99468 0.0
C507 C 0.91503 0.56694 0.00225 0.0
C508 C 0.88878 0.54632 0.99015 0.0
C509 C 0.88523 0.51852 0.9827 0.0
C510 C 0.90854 0.51274 0.98511 0.0
H511 H 0.46661 0.27112 0.97173 0.0
H512 H 0.46802 0.30187 0.89581 0.0
H513 H 0.48656 0.32237 0.98679 0.0
H514 H 0.48707 0.35281 0.91102 0.0
H515 H 0.46867 0.41839 0.9633 0.0
H516 H 0.46427 0.37653 0.93855 0.0
H517 H 0.53159 0.37458 0.98392 0.0
H518 H 0.53616 0.41668 0.00831 0.0
C519 C 0.47158 0.28882 0.95822 0.0
C520 C 0.46529 0.28226 0.93264 0.0
C521 C 0.48305 0.31819 0.96682 0.0
C522 C 0.48839 0.3416 0.95003 0.0
C523 C 0.48298 0.33522 0.92438 0.0
C524 C 0.47185 0.30597 0.91576 0.0
C525 C 0.48392 0.41035 0.96681 0.0
C526 C 0.50311 0.42103 0.98738 0.0
C527 C 0.48109 0.38603 0.95292 0.0
C528 C 0.49712 0.37187 0.95975 0.0
C529 C 0.51864 0.38477 0.97853 0.0
C530 C 0.52164 0.40919 0.99219 0.0
H531 H 0.21047 0.70932 0.05765 0.0
H532 H 0.13508 0.72214 0.05951 0.0
H533 H 0.1782 0.65671 0.04585 0.0
H534 H 0.10306 0.6702 0.04758 0.0
H535 H 0.0444 0.57757 0.04073 0.0
H536 H 0.08263 0.61941 0.06439 0.0
H537 H 0.14778 0.62812 0.00987 0.0
H538 H 0.10964 0.58547 0.98706 0.0
C539 C 0.18708 0.70093 0.05517 0.0
C540 C 0.17514 0.71959 0.05951 0.0
C541 C 0.16861 0.67084 0.04872 0.0
C542 C 0.13796 0.65904 0.04654 0.0
C543 C 0.12637 0.67819 0.05007 0.0
C544 C 0.14473 0.70807 0.05649 0.0
C545 C 0.06723 0.58701 0.03494 0.0
C546 C 0.07425 0.57827 0.0123 0.0
C547 C 0.08905 0.61145 0.0481 0.0
C548 C 0.11799 0.62773 0.03842 0.0
C549 C 0.12571 0.6162 0.01775 0.0
C550 C 0.1039 0.59161 0.00476 0.0
H551 H 0.27136 0.46727 0.0368 0.0
H552 H 0.25553 0.38423 0.07093 0.0
H553 H 0.31748 0.47485 0.01927 0.0
H554 H 0.3028 0.39317 0.05545 0.0
H555 H 0.38101 0.4038 0.015 0.0
H556 H 0.33093 0.39427 0.02159 0.0
H557 H 0.36523 0.48935 0.03158 0.0
H558 H 0.41491 0.49871 0.02311 0.0
C559 C 0.27758 0.4505 0.04047 0.0
C560 C 0.25965 0.42515 0.05539 0.0
C561 C 0.30435 0.45512 0.03071 0.0
C562 C 0.31416 0.43477 0.03598 0.0
C563 C 0.29594 0.40917 0.05056 0.0
C564 C 0.26896 0.40429 0.05992 0.0
C565 C 0.37759 0.4226 0.01812 0.0
C566 C 0.40164 0.45191 0.01875 0.0
C567 C 0.34897 0.4172 0.02215 0.0
C568 C 0.34391 0.44094 0.0277 0.0
C569 C 0.36804 0.47046 0.02712 0.0
C570 C 0.39659 0.4759 0.02239 0.0
H571 H 0.49389 0.78498 0.0674 0.0
H572 H 0.5836 0.858 0.07337 0.0
H573 H 0.47782 0.82033 0.05535 0.0
H574 H 0.56793 0.89318 0.06073 0.0
H575 H 0.53909 0.95657 0.04538 0.0
H576 H 0.5427 0.91883 0.07045 0.0
H577 H 0.48049 0.85002 0.02084 0.0
H578 H 0.47557 0.88772 0.99731 0.0
C579 C 0.5102 0.80857 0.066 0.0
C580 C 0.54003 0.81865 0.07131 0.0
C581 C 0.50099 0.8289 0.05917 0.0
C582 C 0.52144 0.8598 0.05722 0.0
C583 C 0.55127 0.86977 0.06268 0.0
C584 C 0.56039 0.84952 0.06972 0.0
C585 C 0.52438 0.93314 0.04128 0.0
C586 C 0.50625 0.92494 0.02005 0.0
C587 C 0.52722 0.91149 0.05502 0.0
C588 C 0.51253 0.88131 0.04732 0.0
C589 C 0.49206 0.87286 0.02757 0.0
C590 C 0.48895 0.89447 0.01414 0.0
H591 H 0.94488 0.11957 0.37927 0.0
H592 H 0.92244 0.18859 0.39134 0.0
H593 H 0.99105 0.15627 0.359 0.0
H594 H 0.96886 0.22534 0.37229 0.0
H595 H 0.08643 0.24173 0.36156 0.0
H596 H 0.03798 0.19829 0.3708 0.0
H597 H 0.99606 0.24233 0.33434 0.0
H598 H 0.0444 0.2861 0.3264 0.0
C599 C 0.94965 0.1425 0.37738 0.0
C600 C 0.93002 0.15118 0.38706 0.0
C601 C 0.97625 0.16359 0.36598 0.0
C602 C 0.98376 0.1938 0.36392 0.0
C603 C 0.96371 0.20222 0.37309 0.0
C604 C 0.93721 0.1812 0.38441 0.0
C605 C 0.06682 0.24158 0.35485 0.0
C606 C 0.06899 0.2672 0.34346 0.0
C607 C 0.03902 0.21675 0.36017 0.0
C608 C 0.01303 0.21708 0.35386 0.0
C609 C 0.01554 0.24166 0.34018 0.0
C610 C 0.0432 0.26659 0.33532 0.0
H611 H 0.86846 0.80978 0.36706 0.0
H612 H 0.79635 0.72302 0.38898 0.0
H613 H 0.83418 0.81959 0.34326 0.0
H614 H 0.76211 0.73301 0.36602 0.0
H615 H 0.70357 0.7471 0.31923 0.0
H616 H 0.74603 0.74036 0.3256 0.0
H617 H 0.79529 0.83006 0.35542 0.0
H618 H 0.75316 0.8371 0.34802 0.0
C619 C 0.84535 0.79267 0.36648 0.0
C620 C 0.83495 0.76577 0.38007 0.0
C621 C 0.82574 0.79834 0.35298 0.0
C622 C 0.79544 0.7771 0.35269 0.0
C623 C 0.78536 0.7497 0.36546 0.0
C624 C 0.80489 0.74411 0.37898 0.0
C625 C 0.7239 0.76571 0.32626 0.0
C626 C 0.72507 0.7924 0.33353 0.0
C627 C 0.74811 0.76181 0.33008 0.0
C628 C 0.77367 0.78433 0.34172 0.0
C629 C 0.77593 0.81225 0.34641 0.0
C630 C 0.7518 0.81632 0.34219 0.0
H631 H 0.15878 0.04243 0.4005 0.0
H632 H 0.24791 0.05842 0.39608 0.0
H633 H 0.13999 0.99066 0.38664 0.0
H634 H 0.22942 0.00722 0.38229 0.0
H635 H 0.19715 0.91381 0.37226 0.0
H636 H 0.20213 0.9555 0.39757 0.0
H637 H 0.14058 0.96383 0.34893 0.0
H638 H 0.13509 0.92165 0.32435 0.0
C639 C 0.17432 0.03497 0.39626 0.0
C640 C 0.20478 0.05436 0.39947 0.0
C641 C 0.16359 0.0053 0.3886 0.0
C642 C 0.18314 0.99453 0.38406 0.0
C643 C 0.21363 0.01436 0.38653 0.0
C644 C 0.22429 0.04385 0.3941 0.0
C645 C 0.18319 0.92324 0.36811 0.0
C646 C 0.16557 0.91447 0.34654 0.0
C647 C 0.18654 0.9476 0.3822 0.0
C648 C 0.17253 0.96364 0.3747 0.0
C649 C 0.1518 0.95213 0.35519 0.0
C650 C 0.14841 0.92774 0.3412 0.0
H651 H 0.49123 0.63635 0.23298 0.0
H652 H 0.4801 0.60468 0.30973 0.0
H653 H 0.52021 0.68796 0.24741 0.0
H654 H 0.50843 0.65638 0.32414 0.0
H655 H 0.5514 0.74723 0.34902 0.0
H656 H 0.51051 0.70675 0.32623 0.0
H657 H 0.57097 0.71425 0.26757 0.0
H658 H 0.61165 0.75411 0.29071 0.0
C659 C 0.49482 0.6404 0.25296 0.0
C660 C 0.48382 0.61636 0.27021 0.0
C661 C 0.51114 0.66998 0.26117 0.0
C662 C 0.51641 0.67621 0.28685 0.0
C663 C 0.50421 0.65229 0.30422 0.0
C664 C 0.48811 0.62265 0.29599 0.0
C665 C 0.55551 0.74156 0.33044 0.0
C666 C 0.58453 0.75391 0.32142 0.0
C667 C 0.53222 0.71805 0.31762 0.0
C668 C 0.53774 0.70686 0.29551 0.0
C669 C 0.56603 0.7224 0.28457 0.0
C670 C 0.58934 0.7457 0.29758 0.0
H671 H 0.4208 0.92535 0.31428 0.0
H672 H 0.37925 0.87476 0.24735 0.0
H673 H 0.37248 0.91438 0.33042 0.0
H674 H 0.33103 0.86376 0.26352 0.0
H675 H 0.24666 0.82873 0.30976 0.0
H676 H 0.29563 0.8352 0.30116 0.0
H677 H 0.33531 0.93018 0.31445 0.0
H678 H 0.28646 0.92381 0.32242 0.0
C679 C 0.4013 0.91168 0.30316 0.0
C680 C 0.4037 0.90096 0.27955 0.0
C681 C 0.37375 0.90547 0.31236 0.0
C682 C 0.34808 0.88804 0.29829 0.0
C683 C 0.35044 0.8769 0.27489 0.0
C684 C 0.37801 0.88347 0.26553 0.0
C685 C 0.26597 0.85082 0.31144 0.0
C686 C 0.26294 0.87582 0.31664 0.0
C687 C 0.29387 0.85455 0.30634 0.0
C688 C 0.31913 0.88321 0.30699 0.0
C689 C 0.31621 0.90785 0.31392 0.0
C690 C 0.28831 0.90423 0.31841 0.0
H691 H 0.12786 0.52678 0.30553 0.0
H692 H 0.1302 0.50157 0.2286 0.0
H693 H 0.14537 0.49344 0.31952 0.0
H694 H 0.14727 0.46772 0.24274 0.0
H695 H 0.12852 0.38043 0.29009 0.0
H696 H 0.12606 0.42005 0.26684 0.0
H697 H 0.18799 0.48557 0.31862 0.0
H698 H 0.19002 0.44575 0.34183 0.0
C699 C 0.13254 0.51451 0.29154 0.0
C700 C 0.12749 0.5169 0.26593 0.0
C701 C 0.14269 0.49541 0.29955 0.0
C702 C 0.14803 0.4781 0.2822 0.0
C703 C 0.1433 0.48066 0.25658 0.0
C704 C 0.13331 0.49994 0.24852 0.0
C705 C 0.14307 0.40353 0.29545 0.0
C706 C 0.15978 0.41015 0.31751 0.0
C707 C 0.14135 0.42625 0.28236 0.0
C708 C 0.15621 0.45587 0.29133 0.0
C709 C 0.17578 0.46288 0.31156 0.0
C710 C 0.1775 0.44019 0.32454 0.0
H711 H 0.3745 0.49966 0.23909 0.0
H712 H 0.41675 0.5166 0.31151 0.0
H713 H 0.32724 0.4642 0.25857 0.0
H714 H 0.36938 0.4809 0.33102 0.0
H715 H 0.28593 0.38121 0.33912 0.0
H716 H 0.33405 0.42359 0.32725 0.0
H717 H 0.29063 0.46586 0.29067 0.0
H718 H 0.24244 0.42364 0.30314 0.0
C719 C 0.37369 0.49562 0.25914 0.0
C720 C 0.39928 0.51079 0.27377 0.0
C721 C 0.3466 0.47567 0.27034 0.0
C722 C 0.3446 0.47016 0.29635 0.0
C723 C 0.37029 0.4849 0.31096 0.0
C724 C 0.39732 0.50524 0.2998 0.0
C725 C 0.28681 0.40019 0.32946 0.0
C726 C 0.26065 0.39945 0.32224 0.0
C727 C 0.31428 0.42433 0.32256 0.0
C728 C 0.31601 0.44777 0.30776 0.0
C729 C 0.28986 0.44792 0.30192 0.0
C730 C 0.26236 0.42404 0.30932 0.0
H731 H 0.4656 0.86046 0.30499 0.0
H732 H 0.53925 0.94518 0.28093 0.0
H733 H 0.49945 0.84881 0.32734 0.0
H734 H 0.57304 0.93325 0.30237 0.0
H735 H 0.63125 0.91554 0.34684 0.0
H736 H 0.59058 0.92537 0.34158 0.0
H737 H 0.53567 0.83533 0.31388 0.0
H738 H 0.57614 0.82526 0.32028 0.0
C739 C 0.48897 0.87678 0.30482 0.0
C740 C 0.49986 0.90361 0.29103 0.0
C741 C 0.50835 0.87002 0.31746 0.0
C742 C 0.53895 0.89003 0.31664 0.0
C743 C 0.54959 0.91746 0.30376 0.0
C744 C 0.53028 0.92417 0.29113 0.0
C745 C 0.61009 0.89757 0.34051 0.0
C746 C 0.60676 0.86979 0.33369 0.0
C747 C 0.5869 0.90323 0.33729 0.0
C748 C 0.56017 0.88143 0.32664 0.0
C749 C 0.55594 0.85262 0.32217 0.0
C750 C 0.57908 0.84679 0.32583 0.0
H751 H 0.08271 0.60916 0.27496 0.0
H752 H 0.17222 0.62704 0.26711 0.0
H753 H 0.10095 0.66101 0.28676 0.0
H754 H 0.19073 0.67939 0.27874 0.0
H755 H 0.19977 0.75161 0.33867 0.0
H756 H 0.19277 0.70818 0.3152 0.0
H757 H 0.12578 0.71183 0.2705 0.0
H758 H 0.13231 0.75481 0.29482 0.0
C759 C 0.10634 0.62429 0.27573 0.0
C760 C 0.12604 0.61407 0.27012 0.0
C761 C 0.11685 0.65414 0.28214 0.0
C762 C 0.14736 0.67464 0.28311 0.0
C763 C 0.16711 0.66424 0.27806 0.0
C764 C 0.15654 0.63423 0.27165 0.0
C765 C 0.18483 0.74419 0.32282 0.0
C766 C 0.16671 0.75659 0.31841 0.0
C767 C 0.18056 0.71905 0.30949 0.0
C768 C 0.15802 0.70591 0.29152 0.0
C769 C 0.14277 0.72095 0.28474 0.0
C770 C 0.14698 0.74603 0.29822 0.0
H771 H 0.87809 0.03995 0.39384 0.0
H772 H 0.79988 0.04765 0.39965 0.0
H773 H 0.84729 0.98636 0.38481 0.0
H774 H 0.76926 0.99467 0.39042 0.0
H775 H 0.71363 0.90252 0.38162 0.0
H776 H 0.75135 0.94396 0.40603 0.0
H777 H 0.81676 0.95666 0.35022 0.0
H778 H 0.77918 0.91488 0.32651 0.0
C779 C 0.85434 0.03019 0.39294 0.0
C780 C 0.8413 0.04784 0.39734 0.0
C781 C 0.83672 0.99951 0.38808 0.0
C782 C 0.80575 0.98602 0.38748 0.0
C783 C 0.79292 0.00397 0.39163 0.0
C784 C 0.81046 0.03446 0.39652 0.0
C785 C 0.73646 0.91273 0.37564 0.0
C786 C 0.74356 0.90592 0.35211 0.0
C787 C 0.75799 0.93696 0.38927 0.0
C788 C 0.78674 0.95444 0.37942 0.0
C789 C 0.7948 0.94397 0.35823 0.0
C790 C 0.77329 0.91976 0.3447 0.0
H791 H 0.94081 0.80988 0.37332 0.0
H792 H 0.92891 0.72865 0.40809 0.0
H793 H 0.98776 0.81943 0.35554 0.0
H794 H 0.97642 0.73899 0.39155 0.0
H795 H 0.0493 0.74768 0.34422 0.0
H796 H 0.00012 0.73938 0.35338 0.0
H797 H 0.03736 0.83405 0.36758 0.0
H798 H 0.08648 0.84237 0.35711 0.0
C799 C 0.9482 0.79404 0.37714 0.0
C800 C 0.93105 0.76842 0.39206 0.0
C801 C 0.97525 0.79968 0.36715 0.0
C802 C 0.98581 0.77988 0.3719 0.0
C803 C 0.96873 0.75442 0.38702 0.0
C804 C 0.94167 0.74872 0.39689 0.0
C805 C 0.04677 0.76676 0.3487 0.0
C806 C 0.07153 0.79559 0.35015 0.0
C807 C 0.01869 0.76201 0.35422 0.0
C808 C 0.01486 0.78591 0.3619 0.0
C809 C 0.03947 0.81514 0.36169 0.0
C810 C 0.0676 0.81996 0.35567 0.0
H811 H 0.16168 0.12039 0.40428 0.0
H812 H 0.25195 0.19267 0.40818 0.0
H813 H 0.14603 0.15584 0.39151 0.0
H814 H 0.23667 0.22798 0.39474 0.0
H815 H 0.20751 0.29156 0.37863 0.0
H816 H 0.21186 0.25445 0.40411 0.0
H817 H 0.14858 0.18426 0.35609 0.0
H818 H 0.14338 0.22132 0.33181 0.0
C819 C 0.1782 0.14385 0.40225 0.0
C820 C 0.20806 0.15371 0.40717 0.0
C821 C 0.16924 0.16423 0.395 0.0
C822 C 0.18997 0.19494 0.39221 0.0
C823 C 0.21985 0.20472 0.39731 0.0
C824 C 0.22872 0.18441 0.40479 0.0
C825 C 0.19304 0.26798 0.37474 0.0
C826 C 0.17452 0.25916 0.35372 0.0
C827 C 0.19614 0.24672 0.38885 0.0
C828 C 0.18119 0.21631 0.3818 0.0
C829 C 0.16037 0.20731 0.3623 0.0
C830 C 0.1571 0.22854 0.34844 0.0
H831 H 0.62309 0.49734 0.76193 0.0
H832 H 0.58255 0.48847 0.68953 0.0
H833 H 0.67093 0.5345 0.74432 0.0
H834 H 0.6305 0.5262 0.67198 0.0
H835 H 0.71369 0.62823 0.67413 0.0
H836 H 0.66534 0.58451 0.68344 0.0
H837 H 0.70799 0.53593 0.70863 0.0
H838 H 0.75639 0.57943 0.69846 0.0
C839 C 0.62447 0.50338 0.74225 0.0
C840 C 0.59918 0.49013 0.72709 0.0
C841 C 0.65184 0.52437 0.73214 0.0
C842 C 0.65437 0.53294 0.70676 0.0
C843 C 0.62909 0.51981 0.69157 0.0
C844 C 0.60177 0.4983 0.70158 0.0
C845 C 0.71258 0.60782 0.68084 0.0
C846 C 0.73858 0.60697 0.68543 0.0
C847 C 0.68501 0.58288 0.68618 0.0
C848 C 0.68304 0.55701 0.69689 0.0
C849 C 0.709 0.55568 0.7004 0.0
C850 C 0.73658 0.58038 0.69441 0.0
H851 H 0.53482 0.1409 0.70686 0.0
H852 H 0.46252 0.05134 0.72065 0.0
H853 H 0.50054 0.15477 0.68832 0.0
H854 H 0.42824 0.06519 0.70285 0.0
H855 H 0.37034 0.08986 0.66415 0.0
H856 H 0.41147 0.08012 0.66643 0.0
H857 H 0.46256 0.16282 0.70718 0.0
H858 H 0.42176 0.17297 0.70371 0.0
C859 C 0.51168 0.12406 0.70542 0.0
C860 C 0.50114 0.09515 0.71534 0.0
C861 C 0.49208 0.13203 0.695 0.0
C862 C 0.46169 0.11114 0.69422 0.0
C863 C 0.45154 0.08174 0.70286 0.0
C864 C 0.47108 0.07385 0.71333 0.0
C865 C 0.39077 0.10622 0.67293 0.0
C866 C 0.39317 0.13195 0.68393 0.0
C867 C 0.41418 0.10066 0.67435 0.0
C868 C 0.44005 0.12045 0.68734 0.0
C869 C 0.44306 0.14728 0.69683 0.0
C870 C 0.41974 0.15305 0.69503 0.0
H871 H 0.85774 0.36739 0.76296 0.0
H872 H 0.88389 0.40989 0.6901 0.0
H873 H 0.84207 0.31867 0.744 0.0
H874 H 0.86838 0.3611 0.67102 0.0
H875 H 0.81813 0.26918 0.64017 0.0
H876 H 0.82391 0.31268 0.66274 0.0
H877 H 0.86608 0.29289 0.72363 0.0
H878 H 0.86006 0.24888 0.70076 0.0
C879 C 0.85996 0.3662 0.74281 0.0
C880 C 0.8721 0.39236 0.72796 0.0
C881 C 0.85111 0.33835 0.73202 0.0
C882 C 0.85404 0.336 0.70607 0.0
C883 C 0.86543 0.36211 0.69107 0.0
C884 C 0.8743 0.39004 0.7019 0.0
C885 C 0.82778 0.27358 0.65876 0.0
C886 C 0.83861 0.25572 0.6688 0.0
C887 C 0.83145 0.29873 0.67151 0.0
C888 C 0.84607 0.30665 0.69465 0.0
C889 C 0.85473 0.28734 0.70577 0.0
C890 C 0.85104 0.26199 0.69287 0.0
H891 H 0.17285 0.96542 0.57003 0.0
H892 H 0.15429 0.932 0.64643 0.0
H893 H 0.20345 0.01636 0.58557 0.0
H894 H 0.184 0.98311 0.66181 0.0
H895 H 0.21945 0.07614 0.68498 0.0
H896 H 0.18352 0.03283 0.66114 0.0
H897 H 0.25278 0.04299 0.61081 0.0
H898 H 0.28876 0.08616 0.63503 0.0
C899 C 0.17533 0.96887 0.59014 0.0
C900 C 0.16132 0.94449 0.607 0.0
C901 C 0.19264 0.9981 0.59895 0.0
C902 C 0.19583 0.00368 0.62482 0.0
C903 C 0.18141 0.97948 0.64172 0.0
C904 C 0.16442 0.95019 0.63292 0.0
C905 C 0.22664 0.07007 0.66801 0.0
C906 C 0.25668 0.08464 0.66155 0.0
C907 C 0.2062 0.04505 0.65462 0.0
C908 C 0.21553 0.03424 0.63452 0.0
C909 C 0.24502 0.0509 0.62625 0.0
C910 C 0.26556 0.07587 0.63986 0.0
H911 H 0.06202 0.19776 0.63073 0.0
H912 H 0.07485 0.281 0.59947 0.0
H913 H 0.01174 0.18421 0.64345 0.0
H914 H 0.02475 0.26717 0.61175 0.0
H915 H 0.92641 0.21228 0.59922 0.0
H916 H 0.97666 0.22295 0.59336 0.0
H917 H 0.98139 0.20391 0.6717 0.0
H918 H 0.93023 0.19301 0.67783 0.0
C919 C 0.0543 0.21334 0.62694 0.0
C920 C 0.07217 0.24022 0.6137 0.0
C921 C 0.0256 0.20557 0.63424 0.0
C922 C 0.01442 0.22451 0.62826 0.0
C923 C 0.0328 0.252 0.6162 0.0
C924 C 0.06137 0.25981 0.60905 0.0
C925 C 0.93802 0.21039 0.61532 0.0
C926 C 0.92462 0.20257 0.63916 0.0
C927 C 0.9668 0.21648 0.61191 0.0
C928 C 0.98298 0.2149 0.6322 0.0
C929 C 0.96928 0.20545 0.65583 0.0
C930 C 0.94016 0.19929 0.65932 0.0
H931 H 0.74543 0.80686 0.60014 0.0
H932 H 0.8348 0.88119 0.60288 0.0
H933 H 0.7626 0.77289 0.61331 0.0
H934 H 0.85216 0.84717 0.61564 0.0
H935 H 0.85668 0.78475 0.67748 0.0
H936 H 0.84966 0.8201 0.65245 0.0
H937 H 0.79 0.74803 0.60401 0.0
H938 H 0.79668 0.7125 0.62991 0.0
C939 C 0.76883 0.81589 0.6032 0.0
C940 C 0.78868 0.84682 0.6007 0.0
C941 C 0.77876 0.79634 0.61055 0.0
C942 C 0.80887 0.80718 0.61548 0.0
C943 C 0.8288 0.83803 0.61232 0.0
C944 C 0.81883 0.85759 0.60512 0.0
C945 C 0.84337 0.77678 0.66065 0.0
C946 C 0.82759 0.74605 0.65538 0.0
C947 C 0.83908 0.79703 0.64634 0.0
C948 C 0.81874 0.78692 0.62644 0.0
C949 C 0.80535 0.75651 0.61953 0.0
C950 C 0.8097 0.73622 0.63396 0.0
H951 H 0.04564 0.83594 0.57448 0.0
H952 H 0.08648 0.84512 0.64678 0.0
H953 H -0.00254 0.80079 0.59274 0.0
H954 H 0.03817 0.80946 0.66501 0.0
H955 H 0.95294 0.7092 0.66523 0.0
H956 H 0.00183 0.75175 0.65541 0.0
H957 H 0.9613 0.80134 0.6276 0.0
H958 H 0.91234 0.75896 0.63819 0.0
C959 C 0.04425 0.83042 0.59428 0.0
C960 C 0.06972 0.84312 0.60923 0.0
C961 C 0.0167 0.8106 0.60477 0.0
C962 C 0.01414 0.80271 0.63032 0.0
C963 C 0.0396 0.81535 0.6453 0.0
C964 C 0.06713 0.83567 0.6349 0.0
C965 C 0.95465 0.72965 0.65787 0.0
C966 C 0.9291 0.73107 0.65262 0.0
C967 C 0.98253 0.75391 0.65223 0.0
C968 C 0.98523 0.77966 0.64061 0.0
C969 C 0.95972 0.78166 0.63652 0.0
C970 C 0.93182 0.75762 0.64277 0.0
H971 H 0.20784 0.28528 0.61506 0.0
H972 H 0.13476 0.19887 0.63654 0.0
H973 H 0.24211 0.2719 0.63314 0.0
H974 H 0.16914 0.18585 0.65602 0.0
H975 H 0.2434 0.16101 0.64227 0.0
H976 H 0.2036 0.17267 0.63937 0.0
H977 H 0.26211 0.26131 0.66853 0.0
H978 H 0.30212 0.24999 0.66978 0.0
C979 C 0.1991 0.2636 0.62412 0.0
C980 C 0.16873 0.24292 0.62399 0.0
C981 C 0.21872 0.25604 0.63487 0.0
C982 C 0.20841 0.22769 0.64598 0.0
C983 C 0.17781 0.20771 0.64732 0.0
C984 C 0.15812 0.21526 0.63638 0.0
C985 C 0.24734 0.18268 0.64852 0.0
C986 C 0.27563 0.20488 0.65577 0.0
C987 C 0.22458 0.18936 0.64706 0.0
C988 C 0.22986 0.21818 0.65324 0.0
C989 C 0.25757 0.23923 0.66293 0.0
C990 C 0.2804 0.23278 0.66378 0.0
H991 H 0.83775 0.95745 0.60511 0.0
H992 H 0.74939 0.94301 0.61267 0.0
H993 H 0.85794 0.00998 0.61727 0.0
H994 H 0.76935 0.9951 0.62464 0.0
H995 H 0.80428 0.08995 0.62956 0.0
H996 H 0.79711 0.04615 0.60617 0.0
H997 H 0.85919 0.03878 0.6548 0.0
H998 H 0.86657 0.08275 0.67772 0.0
C999 C 0.82268 0.96541 0.60967 0.0
C1000 C 0.79201 0.94623 0.60777 0.0
C1001 C 0.83422 0.99551 0.61634 0.0
C1002 C 0.81527 0.00694 0.62115 0.0
C1003 C 0.7846 0.98735 0.62012 0.0
C1004 C 0.77314 0.9574 0.61358 0.0
C1005 C 0.81789 0.08022 0.63409 0.0
C1006 C 0.83604 0.08969 0.65535 0.0
C1007 C 0.81327 0.05468 0.62111 0.0
C1008 C 0.82685 0.03844 0.62922 0.0
C1009 C 0.84828 0.05063 0.64815 0.0
C1010 C 0.85277 0.07606 0.66113 0.0
H1011 H 0.48525 0.39908 0.70151 0.0
H1012 H 0.52868 0.36855 0.75256 0.0
H1013 H 0.4511 0.34704 0.68934 0.0
H1014 H 0.49478 0.31633 0.74002 0.0
H1015 H 0.44559 0.24712 0.66326 0.0
H1016 H 0.48187 0.29034 0.68732 0.0
H1017 H 0.41124 0.29675 0.72304 0.0
H1018 H 0.375 0.25309 0.69949 0.0
C1019 C 0.48775 0.3812 0.70969 0.0
C1020 C 0.50965 0.38751 0.72758 0.0
C1021 C 0.46812 0.35157 0.70303 0.0
C1022 C 0.47025 0.32792 0.71408 0.0
C1023 C 0.49275 0.33429 0.73142 0.0
C1024 C 0.51217 0.36397 0.73835 0.0
C1025 C 0.43786 0.25655 0.67751 0.0
C1026 C 0.40763 0.24668 0.67986 0.0
C1027 C 0.45857 0.28141 0.69105 0.0
C1028 C 0.44917 0.29688 0.70665 0.0
C1029 C 0.41887 0.28505 0.71105 0.0
C1030 C 0.39818 0.2599 0.69784 0.0
H1031 H 0.60725 0.13993 0.70812 0.0
H1032 H 0.59436 0.05571 0.7369 0.0
H1033 H 0.65444 0.15081 0.68982 0.0
H1034 H 0.64197 0.06716 0.71985 0.0
H1035 H 0.71648 0.08005 0.67329 0.0
H1036 H 0.66681 0.07112 0.68148 0.0
H1037 H 0.70345 0.16402 0.7024 0.0
H1038 H 0.75297 0.17309 0.69272 0.0
C1039 C 0.61449 0.12373 0.71048 0.0
C1040 C 0.5971 0.09693 0.72391 0.0
C1041 C 0.64162 0.13008 0.70018 0.0
C1042 C 0.6519 0.10975 0.70314 0.0
C1043 C 0.63448 0.08304 0.7167 0.0
C1044 C 0.60738 0.07667 0.72688 0.0
C1045 C 0.71368 0.09865 0.67896 0.0
C1046 C 0.73827 0.12715 0.68253 0.0
C1047 C 0.68535 0.09353 0.68392 0.0
C1048 C 0.68121 0.11666 0.69325 0.0
C1049 C 0.70581 0.14573 0.69516 0.0
C1050 C 0.73415 0.15097 0.68963 0.0
H1051 H 0.83095 0.45828 0.73757 0.0
H1052 H 0.92103 0.53097 0.74059 0.0
H1053 H 0.81472 0.49323 0.72501 0.0
H1054 H 0.90515 0.56595 0.72699 0.0
H1055 H 0.87318 0.62776 0.70767 0.0
H1056 H 0.87968 0.59265 0.73429 0.0
H1057 H 0.81688 0.51931 0.68846 0.0
H1058 H 0.80995 0.55428 0.66288 0.0
C1059 C 0.8473 0.48178 0.73541 0.0
C1060 C 0.8773 0.49183 0.73973 0.0
C1061 C 0.83802 0.50187 0.72823 0.0
C1062 C 0.85855 0.53253 0.72476 0.0
C1063 C 0.88853 0.54268 0.72985 0.0
C1064 C 0.89775 0.52259 0.73741 0.0
C1065 C 0.8595 0.60392 0.70439 0.0
C1066 C 0.84059 0.59356 0.6836 0.0
C1067 C 0.86374 0.58382 0.71921 0.0
C1068 C 0.84931 0.55307 0.71328 0.0
C1069 C 0.82824 0.54264 0.69391 0.0
C1070 C 0.824 0.56268 0.67926 0.0
H1071 H 0.43382 0.90628 0.19312 0.0
H1072 H 0.52308 0.96716 0.21733 0.0
H1073 H 0.44684 0.92748 0.15077 0.0
H1074 H 0.53606 0.98756 0.17456 0.0
H1075 H 0.52692 0.97874 0.07691 0.0
H1076 H 0.52377 0.95648 0.11871 0.0
H1077 H 0.47396 0.99649 0.14611 0.0
H1078 H 0.47719 0.01875 0.10537 0.0
C1079 C 0.45625 0.92393 0.18941 0.0
C1080 C 0.47729 0.93525 0.20875 0.0
C1081 C 0.46375 0.9357 0.16511 0.0
C1082 C 0.49249 0.95875 0.15954 0.0
C1083 C 0.51393 0.96935 0.17843 0.0
C1084 C 0.5064 0.95771 0.20286 0.0
C1085 C 0.51572 0.98308 0.09193 0.0
C1086 C 0.50197 0.00013 0.08745 0.0
C1087 C 0.51398 0.97044 0.11579 0.0
C1088 C 0.49831 0.97465 0.1353 0.0
C1089 C 0.48602 0.99289 0.13123 0.0
C1090 C 0.48803 0.00568 0.10776 0.0
H1091 H 0.03479 0.5502 0.22067 0.0
H1092 H 0.09462 0.52676 0.18497 0.0
H1093 H 0.01103 0.54642 0.18003 0.0
H1094 H 0.07092 0.52278 0.14477 0.0
H1095 H 0.04834 0.54498 0.07315 0.0
H1096 H 0.06847 0.56009 0.1152 0.0
H1097 H 0.98122 0.50617 0.14687 0.0
H1098 H 0.96094 0.49198 0.10456 0.0
C1099 C 0.04261 0.54394 0.20419 0.0
C1100 C 0.0666 0.53883 0.20592 0.0
C1101 C 0.02912 0.5419 0.18101 0.0
C1102 C 0.03972 0.53517 0.15918 0.0
C1103 C 0.06285 0.52886 0.16118 0.0
C1104 C 0.07606 0.53057 0.18428 0.0
C1105 C 0.03323 0.53796 0.08891 0.0
C1106 C 0.00312 0.51752 0.08559 0.0
C1107 C 0.04481 0.54601 0.11306 0.0
C1108 C 0.02648 0.53356 0.13425 0.0
C1109 C 0.99586 0.51594 0.13087 0.0
C1110 C 0.98428 0.50788 0.10667 0.0
H1111 H 0.46526 0.5005 0.21027 0.0
H1112 H 0.48464 0.58947 0.18876 0.0
H1113 H 0.48232 0.4945 0.16902 0.0
H1114 H 0.50308 0.58417 0.14845 0.0
H1115 H 0.49084 0.54351 0.06846 0.0
H1116 H 0.48385 0.55777 0.1103 0.0
H1117 H 0.52569 0.51138 0.14255 0.0
H1118 H 0.53227 0.49683 0.10052 0.0
C1119 C 0.47328 0.51879 0.19684 0.0
C1120 C 0.47378 0.54553 0.20294 0.0
C1121 C 0.48349 0.51557 0.17333 0.0
C1122 C 0.49435 0.53901 0.15544 0.0
C1123 C 0.49477 0.56563 0.16164 0.0
C1124 C 0.48446 0.56876 0.18494 0.0
C1125 C 0.49984 0.53764 0.08435 0.0
C1126 C 0.51215 0.51915 0.08121 0.0
C1127 C 0.49552 0.54547 0.10847 0.0
C1128 C 0.50355 0.53507 0.12989 0.0
C1129 C 0.51848 0.51903 0.12652 0.0
C1130 C 0.52268 0.51112 0.10243 0.0
H1131 H 0.90058 0.4103 0.8097 0.0
H1132 H 0.96114 0.50407 0.79459 0.0
H1133 H 0.92504 0.41411 0.84936 0.0
H1134 H 0.98495 0.50817 0.83505 0.0
H1135 H 0.0328 0.50762 0.90285 0.0
H1136 H 0.01481 0.49254 0.86004 0.0
H1137 H 0.92616 0.43799 0.88898 0.0
H1138 H 0.94423 0.45336 0.93149 0.0
C1139 C 0.91941 0.4317 0.81469 0.0
C1140 C 0.929 0.4569 0.79889 0.0
C1141 C 0.93326 0.43387 0.83755 0.0
C1142 C 0.95693 0.46136 0.84536 0.0
C1143 C 0.96702 0.48652 0.82938 0.0
C1144 C 0.95313 0.48433 0.80639 0.0
C1145 C 0.00966 0.49145 0.90002 0.0
C1146 C 0.98987 0.48139 0.92043 0.0
C1147 C -0.00067 0.48311 0.87555 0.0
C1148 C 0.969 0.46462 0.8711 0.0
C1149 C 0.94969 0.45215 0.89176 0.0
C1150 C 0.96005 0.46058 0.91624 0.0
H1151 H 0.56507 0.47643 0.81399 0.0
H1152 H 0.4774 0.44021 0.78345 0.0
H1153 H 0.54641 0.47908 0.85537 0.0
H1154 H 0.45852 0.44212 0.82503 0.0
H1155 H 0.45149 0.48918 0.8989 0.0
H1156 H 0.46168 0.47832 0.85668 0.0
H1157 H 0.51458 0.44348 0.88809 0.0
H1158 H 0.50535 0.45542 0.93009 0.0
C1159 C 0.54188 0.46935 0.81608 0.0
C1160 C 0.52266 0.45794 0.79556 0.0
C1161 C 0.53106 0.47035 0.83985 0.0
C1162 C 0.50083 0.46007 0.84359 0.0
C1163 C 0.48184 0.44993 0.82281 0.0
C1164 C 0.49265 0.44882 0.79905 0.0
C1165 C 0.46439 0.47815 0.89681 0.0
C1166 C 0.47754 0.47305 0.91785 0.0
C1167 C 0.47033 0.47205 0.87261 0.0
C1168 C 0.48959 0.4608 0.86906 0.0
C1169 C 0.50021 0.45282 0.89024 0.0
C1170 C 0.49428 0.45893 0.91441 0.0
H1171 H 0.56335 0.09126 0.81117 0.0
H1172 H 0.47969 0.02101 0.78349 0.0
H1173 H 0.54839 0.07236 0.85399 0.0
H1174 H 0.46465 0.00204 0.82645 0.0
H1175 H 0.47935 0.96 0.90181 0.0
H1176 H 0.48298 0.97812 0.85874 0.0
H1177 H 0.50997 0.06666 0.88663 0.0
H1178 H 0.5065 0.04851 0.9297 0.0
C1179 C 0.54181 0.07172 0.81428 0.0
C1180 C 0.52271 0.05751 0.79408 0.0
C1181 C 0.53308 0.06116 0.83878 0.0
C1182 C 0.50521 0.03598 0.84353 0.0
C1183 C 0.48618 0.02158 0.82329 0.0
C1184 C 0.49477 0.03241 0.79879 0.0
C1185 C 0.48503 0.98307 0.89873 0.0
C1186 C 0.49241 0.00284 0.91906 0.0
C1187 C 0.48712 0.99343 0.8741 0.0
C1188 C 0.49712 0.02386 0.8694 0.0
C1189 C 0.50245 0.04314 0.88979 0.0
C1190 C 0.49998 0.03267 0.91444 0.0
H1191 H 0.17378 0.32469 0.55689 0.0
H1192 H 0.12266 0.23598 0.52623 0.0
H1193 H 0.18819 0.34556 0.51441 0.0
H1194 H 0.13644 0.25652 0.48366 0.0
H1195 H 0.17511 0.2969 0.40943 0.0
H1196 H 0.1754 0.2808 0.45267 0.0
H1197 H 0.16391 0.35326 0.47974 0.0
H1198 H 0.16503 0.36991 0.43695 0.0
C1199 C 0.16578 0.30976 0.54093 0.0
C1200 C 0.14702 0.27893 0.54451 0.0
C1201 C 0.17395 0.32159 0.51666 0.0
C1202 C 0.16351 0.30272 0.49558 0.0
C1203 C 0.14527 0.27166 0.49942 0.0
C1204 C 0.13705 0.25989 0.5237 0.0
C1205 C 0.17387 0.31 0.42466 0.0
C1206 C 0.16998 0.33455 0.41972 0.0
C1207 C 0.17352 0.30054 0.44944 0.0
C1208 C 0.16922 0.31547 0.4697 0.0
C1209 C 0.1675 0.34132 0.46472 0.0
C1210 C 0.16797 0.35078 0.44008 0.0
H1211 H 0.69734 0.82817 0.55332 0.0
H1212 H 0.75782 0.91738 0.52594 0.0
H1213 H 0.67176 0.81598 0.51299 0.0
H1214 H 0.7328 0.90506 0.48554 0.0
H1215 H 0.67464 0.87266 0.41443 0.0
H1216 H 0.68879 0.88928 0.45816 0.0
H1217 H 0.69092 0.80815 0.47417 0.0
H1218 H 0.67701 0.79186 0.43164 0.0
C1219 C 0.70494 0.84522 0.53877 0.0
C1220 C 0.72986 0.8735 0.5426 0.0
C1221 C 0.69031 0.83835 0.51572 0.0
C1222 C 0.70067 0.85941 0.49588 0.0
C1223 C 0.72418 0.8884 0.5004 0.0
C1224 C 0.73862 0.89537 0.52354 0.0
C1225 C 0.67818 0.85855 0.42742 0.0
C1226 C 0.67443 0.83084 0.41959 0.0
C1227 C 0.68609 0.86792 0.45242 0.0
C1228 C 0.69029 0.84966 0.46981 0.0
C1229 C 0.68683 0.82229 0.46166 0.0
C1230 C 0.67904 0.81305 0.43705 0.0
H1231 H 0.18891 0.88387 0.55116 0.0
H1232 H 0.10214 0.8571 0.52236 0.0
H1233 H 0.20557 0.88082 0.50877 0.0
H1234 H 0.1186 0.85378 0.48019 0.0
H1235 H 0.15915 0.87736 0.40504 0.0
H1236 H 0.15356 0.89018 0.448 0.0
H1237 H 0.19539 0.84183 0.47587 0.0
H1238 H 0.20153 0.82961 0.43281 0.0
C1239 C 0.17338 0.87707 0.53577 0.0
C1240 C 0.14427 0.8708 0.53996 0.0
C1241 C 0.18291 0.8754 0.51158 0.0
C1242 C 0.16358 0.86779 0.49112 0.0
C1243 C 0.1342 0.86049 0.49551 0.0
C1244 C 0.12461 0.86186 0.51969 0.0
C1245 C 0.16863 0.87093 0.4202 0.0
C1246 C 0.18096 0.85271 0.41561 0.0
C1247 C 0.16484 0.87767 0.44485 0.0
C1248 C 0.17337 0.86633 0.46526 0.0
C1249 C 0.1885 0.85077 0.46053 0.0
C1250 C 0.19213 0.84389 0.43589 0.0
H1251 H 0.62553 0.83769 0.124 0.0
H1252 H 0.57244 0.74367 0.14285 0.0
H1253 H 0.65049 0.8467 0.16443 0.0
H1254 H 0.59829 0.75243 0.18248 0.0
H1255 H 0.61458 0.79279 0.26322 0.0
H1256 H 0.5967 0.77656 0.2208 0.0
H1257 H 0.68353 0.83813 0.19125 0.0
H1258 H 0.70132 0.85413 0.23402 0.0
C1259 C 0.61945 0.81891 0.13659 0.0
C1260 C 0.59685 0.79002 0.13019 0.0
C1261 C 0.63404 0.82398 0.15962 0.0
C1262 C 0.62629 0.80026 0.17674 0.0
C1263 C 0.60458 0.77122 0.16986 0.0
C1264 C 0.58997 0.76618 0.14695 0.0
C1265 C 0.63013 0.80174 0.24779 0.0
C1266 C 0.65935 0.82432 0.25192 0.0
C1267 C 0.61987 0.79271 0.22338 0.0
C1268 C 0.63864 0.80628 0.20257 0.0
C1269 C 0.6684 0.82762 0.20684 0.0
C1270 C 0.67863 0.83663 0.23129 0.0
H1271 H 0.20393 0.8357 0.12194 0.0
H1272 H 0.17704 0.74453 0.14316 0.0
H1273 H 0.18732 0.84316 0.16281 0.0
H1274 H 0.15885 0.75133 0.18307 0.0
H1275 H 0.1733 0.79217 0.26298 0.0
H1276 H 0.179 0.77678 0.22129 0.0
H1277 H 0.14439 0.82979 0.18866 0.0
H1278 H 0.139 0.84537 0.23068 0.0
C1279 C 0.19437 0.81725 0.13524 0.0
C1280 C 0.1917 0.7895 0.12921 0.0
C1281 C 0.18437 0.82132 0.1585 0.0
C1282 C 0.17146 0.79771 0.17617 0.0
C1283 C 0.16878 0.77002 0.17002 0.0
C1284 C 0.17897 0.76605 0.14697 0.0
C1285 C 0.16546 0.79925 0.24704 0.0
C1286 C 0.15545 0.81968 0.25009 0.0
C1287 C 0.16909 0.79077 0.223 0.0
C1288 C 0.16271 0.80255 0.20155 0.0
C1289 C 0.15022 0.82093 0.20476 0.0
C1290 C 0.14673 0.8295 0.22881 0.0
H1291 H 0.23044 0.42414 0.14473 0.0
H1292 H 0.14449 0.35848 0.11734 0.0
H1293 H 0.2156 0.40406 0.18736 0.0
H1294 H 0.12975 0.33801 0.16004 0.0
H1295 H 0.14638 0.29261 0.23383 0.0
H1296 H 0.15015 0.31173 0.19101 0.0
H1297 H 0.17541 0.39917 0.22045 0.0
H1298 H 0.17133 0.37999 0.26324 0.0
C1299 C 0.20842 0.40537 0.14789 0.0
C1300 C 0.18859 0.3928 0.12788 0.0
C1301 C 0.19983 0.3941 0.17224 0.0
C1302 C 0.17143 0.36975 0.17692 0.0
C1303 C 0.15168 0.35692 0.15687 0.0
C1304 C 0.16009 0.36858 0.13256 0.0
C1305 C 0.15165 0.31561 0.23113 0.0
C1306 C 0.1583 0.33479 0.2518 0.0
C1307 C 0.15385 0.32653 0.20668 0.0
C1308 C 0.16335 0.35694 0.20254 0.0
C1309 C 0.16816 0.37565 0.22323 0.0
C1310 C 0.16541 0.36459 0.24769 0.0
H1311 H 0.77132 0.57679 0.85838 0.0
H1312 H 0.85652 0.64266 0.88707 0.0
H1313 H 0.78787 0.59537 0.81576 0.0
H1314 H 0.87323 0.66114 0.84429 0.0
H1315 H 0.86341 0.70802 0.77015 0.0
H1316 H 0.85918 0.68823 0.81262 0.0
H1317 H 0.82411 0.59914 0.78261 0.0
H1318 H 0.82815 0.61902 0.74011 0.0
C1319 C 0.79359 0.59524 0.85554 0.0
C1320 C 0.81257 0.60838 0.87602 0.0
C1321 C 0.80323 0.60558 0.83112 0.0
C1322 C 0.83198 0.62949 0.82667 0.0
C1323 C 0.85101 0.64262 0.84716 0.0
C1324 C 0.84146 0.63204 0.87159 0.0
C1325 C 0.85595 0.6844 0.7726 0.0
C1326 C 0.84632 0.66506 0.75186 0.0
C1327 C 0.85346 0.67305 0.79691 0.0
C1328 C 0.84089 0.64208 0.80094 0.0
C1329 C 0.83359 0.62308 0.78004 0.0
C1330 C 0.8364 0.63451 0.75567 0.0
H1331 H 0.42535 0.19345 0.84931 0.0
H1332 H 0.3697 0.22199 0.88553 0.0
H1333 H 0.40318 0.19275 0.80904 0.0
H1334 H 0.34743 0.22145 0.84478 0.0
H1335 H 0.29662 0.16836 0.76844 0.0
H1336 H 0.31627 0.18265 0.81085 0.0
H1337 H 0.40444 0.23314 0.7802 0.0
H1338 H 0.38482 0.21829 0.73789 0.0
C1339 C 0.40797 0.19904 0.84873 0.0
C1340 C 0.39929 0.20781 0.87054 0.0
C1341 C 0.39571 0.19927 0.82559 0.0
C1342 C 0.37433 0.20805 0.82371 0.0
C1343 C 0.3643 0.21516 0.84569 0.0
C1344 C 0.37687 0.21526 0.86893 0.0
C1345 C 0.32006 0.18369 0.77075 0.0
C1346 C 0.3393 0.19191 0.74999 0.0
C1347 C 0.33129 0.1918 0.79502 0.0
C1348 C 0.36191 0.2081 0.79875 0.0
C1349 C 0.38074 0.21994 0.77775 0.0
C1350 C 0.36949 0.21191 0.75348 0.0
H1351 H 0.76744 0.19003 0.8554 0.0
H1352 H 0.85446 0.21789 0.88418 0.0
H1353 H 0.78436 0.1879 0.81307 0.0
H1354 H 0.87157 0.21616 0.84172 0.0
H1355 H 0.86961 0.16684 0.76574 0.0
H1356 H 0.86298 0.17864 0.8087 0.0
H1357 H 0.81882 0.2247 0.78082 0.0
H1358 H 0.82536 0.21264 0.73772 0.0
C1359 C 0.79005 0.19525 0.8527 0.0
C1360 C 0.80965 0.20418 0.87301 0.0
C1361 C 0.79991 0.19461 0.82843 0.0
C1362 C 0.8295 0.20266 0.824 0.0
C1363 C 0.84875 0.21018 0.84452 0.0
C1364 C 0.83894 0.21106 0.86877 0.0
C1365 C 0.85964 0.18062 0.76877 0.0
C1366 C 0.84782 0.18869 0.74848 0.0
C1367 C 0.85568 0.18722 0.79338 0.0
C1368 C 0.83962 0.20182 0.79811 0.0
C1369 C 0.83068 0.21278 0.77767 0.0
C1370 C 0.83491 0.2064 0.75299 0.0
H1371 H 0.29345 0.1115 0.45259 0.0
H1372 H 0.23544 0.13702 0.48877 0.0
H1373 H 0.31608 0.11289 0.49328 0.0
H1374 H 0.2581 0.13873 0.52907 0.0
H1375 H 0.28071 0.11719 0.6006 0.0
H1376 H 0.25969 0.10153 0.55885 0.0
H1377 H 0.34683 0.15172 0.5261 0.0
H1378 H 0.3679 0.16653 0.56803 0.0
C1379 C 0.28574 0.11762 0.46921 0.0
C1380 C 0.26267 0.12413 0.46757 0.0
C1381 C 0.29858 0.1183 0.49243 0.0
C1382 C 0.28828 0.1251 0.51441 0.0
C1383 C 0.26591 0.13254 0.51255 0.0
C1384 C 0.25332 0.13216 0.4894 0.0
C1385 C 0.29553 0.12329 0.58468 0.0
C1386 C 0.32588 0.14309 0.58753 0.0
C1387 C 0.28346 0.11488 0.56069 0.0
C1388 C 0.30157 0.12626 0.53925 0.0
C1389 C 0.33232 0.14282 0.54227 0.0
C1390 C 0.34438 0.15124 0.56627 0.0
H1391 H 0.90489 0.13992 0.47623 0.0
H1392 H 0.81584 0.11059 0.4522 0.0
H1393 H 0.89172 0.14534 0.51893 0.0
H1394 H 0.80267 0.11709 0.49496 0.0
H1395 H 0.78301 0.10798 0.58024 0.0
H1396 H 0.79471 0.09706 0.53798 0.0
H1397 H 0.88052 0.17725 0.54156 0.0
H1398 H 0.86922 0.18712 0.58304 0.0
C1399 C 0.88266 0.13535 0.48004 0.0
C1400 C 0.86147 0.12513 0.46096 0.0
C1401 C 0.87499 0.13827 0.50452 0.0
C1402 C 0.84605 0.13155 0.51045 0.0
C1403 C 0.82496 0.12187 0.49118 0.0
C1404 C 0.83258 0.11857 0.46667 0.0
C1405 C 0.8045 0.12265 0.572 0.0
C1406 C 0.82542 0.14811 0.58492 0.0
C1407 C 0.81112 0.11672 0.5478 0.0
C1408 C 0.83866 0.13626 0.53639 0.0
C1409 C 0.85943 0.16131 0.54981 0.0
C1410 C 0.85293 0.16701 0.5737 0.0
H1411 H 0.84001 0.76251 0.4718 0.0
H1412 H 0.86916 0.69881 0.45858 0.0
H1413 H 0.82359 0.74182 0.51407 0.0
H1414 H 0.8533 0.67851 0.50082 0.0
H1415 H 0.8411 0.72015 0.5973 0.0
H1416 H 0.84623 0.73965 0.55454 0.0
H1417 H 0.80778 0.64968 0.52559 0.0
H1418 H 0.80311 0.63039 0.56831 0.0
C1419 C 0.84279 0.74401 0.47792 0.0
C1420 C 0.85586 0.73225 0.4619 0.0
C1421 C 0.83352 0.73229 0.50213 0.0
C1422 C 0.83684 0.70834 0.51071 0.0
C1423 C 0.8499 0.6966 0.49464 0.0
C1424 C 0.85937 0.70847 0.47055 0.0
C1425 C 0.83245 0.70446 0.58189 0.0
C1426 C 0.82159 0.67377 0.58609 0.0
C1427 C 0.83568 0.71564 0.55734 0.0
C1428 C 0.82803 0.69625 0.53666 0.0
C1429 C 0.81454 0.66525 0.54111 0.0
C1430 C 0.81149 0.65415 0.56556 0.0
loop_
_geom_bond_atom_site_label_1
_geom_bond_atom_site_label_2
_geom_bond_distance
_geom_bond_site_symmetry_2
_ccdc_geom_bond_type
H0 C3 0.931 . S
H1 C6 0.928 . S
H2 C8 0.930 . S
C3 H0 0.931 . S
C3 C4 1.413 . S
C3 C5 1.360 . S
C4 C3 1.413 . S
C4 C8 1.429 . S
C5 C3 1.360 . S
C5 C6 1.372 . S
C6 H1 0.928 . S
C6 C5 1.372 . S
C6 C7 1.404 . S
C7 C6 1.404 . S
C7 C8 1.391 . S
C8 H2 0.930 . S
C8 C4 1.429 . S
C8 C7 1.391 . S
H9 C12 0.931 . S
H10 C15 0.928 . S
H11 C17 0.930 . S
C12 H9 0.931 . S
C12 C13 1.413 . S
C12 C14 1.360 . S
C13 C12 1.413 . S
C13 C17 1.429 . S
C14 C12 1.360 . S
C14 C15 1.372 . S
C15 H10 0.928 . S
C15 C14 1.372 . S
C15 C16 1.404 . S
C16 C15 1.404 . S
C16 C17 1.391 . S
C17 H11 0.930 . S
C17 C13 1.429 . S
C17 C16 1.391 . S
H18 C21 0.931 . S
H19 C24 0.928 . S
H20 C26 0.930 . S
C21 H18 0.931 . S
C21 C22 1.413 . S
C21 C23 1.360 . S
C22 C21 1.413 . S
C22 C26 1.429 . S
C23 C21 1.360 . S
C23 C24 1.372 . S
C24 H19 0.928 . S
C24 C23 1.372 . S
C24 C25 1.404 . S
C25 C24 1.404 . S
C25 C26 1.391 . S
C26 H20 0.930 . S
C26 C22 1.429 . S
C26 C25 1.391 . S
H27 C30 0.931 . S
H28 C33 0.928 . S
H29 C35 0.930 . S
C30 H27 0.931 . S
C30 C31 1.413 . S
C30 C32 1.360 . S
C31 C30 1.413 . S
C31 C35 1.429 . S
C32 C30 1.360 . S
C32 C33 1.372 . S
C33 H28 0.928 . S
C33 C32 1.372 . S
C33 C34 1.404 . S
C34 C33 1.404 . S
C34 C35 1.391 . S
C35 H29 0.930 . S
C35 C31 1.429 . S
C35 C34 1.391 . S
H36 C39 0.931 . S
H37 C42 0.928 . S
H38 C44 0.930 . S
C39 H36 0.931 . S
C39 C40 1.413 . S
C39 C41 1.360 . S
C40 C39 1.413 . S
C40 C44 1.429 . S
C41 C39 1.360 . S
C41 C42 1.372 . S
C42 H37 0.928 . S
C42 C41 1.372 . S
C42 C43 1.404 . S
C43 C42 1.404 . S
C43 C44 1.391 . S
C44 H38 0.930 . S
C44 C40 1.429 . S
C44 C43 1.391 . S
H45 C48 0.931 . S
H46 C51 0.928 . S
H47 C53 0.930 . S
C48 H45 0.931 . S
C48 C49 1.413 . S
C48 C50 1.360 . S
C49 C48 1.413 . S
C49 C53 1.429 . S
C50 C48 1.360 . S
C50 C51 1.372 . S
C51 H46 0.928 . S
C51 C50 1.372 . S
C51 C52 1.404 . S
C52 C51 1.404 . S
C52 C53 1.391 . S
C53 H47 0.930 . S
C53 C49 1.429 . S
C53 C52 1.391 . S
H54 C57 0.931 . S
H55 C60 0.928 . S
H56 C62 0.930 . S
C57 H54 0.931 . S
C57 C58 1.413 . S
C57 C59 1.360 . S
C58 C57 1.413 . S
C58 C62 1.429 . S
C59 C57 1.360 . S
C59 C60 1.372 . S
C60 H55 0.928 . S
C60 C59 1.372 . S
C60 C61 1.404 . S
C61 C60 1.404 . S
C61 C62 1.391 . S
C62 H56 0.930 . S
C62 C58 1.429 . S
C62 C61 1.391 . S
H63 C66 0.931 . S
H64 C69 0.928 . S
H65 C71 0.930 . S
C66 H63 0.931 . S
C66 C67 1.413 . S
C66 C68 1.360 . S
C67 C66 1.413 . S
C67 C71 1.429 . S
C68 C66 1.360 . S
C68 C69 1.372 . S
C69 H64 0.928 . S
C69 C68 1.372 . S
C69 C70 1.404 . S
C70 C69 1.404 . S
C70 C71 1.391 . S
C71 H65 0.930 . S
C71 C67 1.429 . S
C71 C70 1.391 . S
H72 C75 0.931 . S
H73 C78 0.928 . S
H74 C80 0.930 . S
C75 H72 0.931 . S
C75 C76 1.413 . S
C75 C77 1.360 . S
C76 C75 1.413 . S
C76 C80 1.429 . S
C77 C75 1.360 . S
C77 C78 1.372 . S
C78 H73 0.928 . S
C78 C77 1.372 . S
C78 C79 1.404 . S
C79 C78 1.404 . S
C79 C80 1.391 . S
C80 H74 0.930 . S
C80 C76 1.429 . S
C80 C79 1.391 . S
H81 C84 0.931 . S
H82 C87 0.928 . S
H83 C89 0.930 . S
C84 H81 0.931 . S
C84 C85 1.413 . S
C84 C86 1.360 . S
C85 C84 1.413 . S
C85 C89 1.429 . S
C86 C84 1.360 . S
C86 C87 1.372 . S
C87 H82 0.928 . S
C87 C86 1.372 . S
C87 C88 1.404 . S
C88 C87 1.404 . S
C88 C89 1.391 . S
C89 H83 0.930 . S
C89 C85 1.429 . S
C89 C88 1.391 . S
H90 C93 0.931 . S
H91 C96 0.928 . S
H92 C98 0.930 . S
C93 H90 0.931 . S
C93 C94 1.413 . S
C93 C95 1.360 . S
C94 C93 1.413 . S
C94 C98 1.429 . S
C95 C93 1.360 . S
C95 C96 1.372 . S
C96 H91 0.928 . S
C96 C95 1.372 . S
C96 C97 1.404 . S
C97 C96 1.404 . S
C97 C98 1.391 . S
C98 H92 0.930 . S
C98 C94 1.429 . S
C98 C97 1.391 . S
H99 C102 0.931 . S
H100 C105 0.928 . S
H101 C107 0.930 . S
C102 H99 0.931 . S
C102 C103 1.413 . S
C102 C104 1.360 . S
C103 C102 1.413 . S
C103 C107 1.429 . S
C104 C102 1.360 . S
C104 C105 1.372 . S
C105 H100 0.928 . S
C105 C104 1.372 . S
C105 C106 1.404 . S
C106 C105 1.404 . S
C106 C107 1.391 . S
C107 H101 0.930 . S
C107 C103 1.429 . S
C107 C106 1.391 . S
H108 C111 0.931 . S
H109 C114 0.928 . S
H110 C116 0.930 . S
C111 H108 0.931 . S
C111 C112 1.413 . S
C111 C113 1.360 . S
C112 C111 1.413 . S
C112 C116 1.429 . S
C113 C111 1.360 . S
C113 C114 1.372 . S
C114 H109 0.928 . S
C114 C113 1.372 . S
C114 C115 1.404 . S
C115 C114 1.404 . S
C115 C116 1.391 . S
C116 H110 0.930 . S
C116 C112 1.429 . S
C116 C115 1.391 . S
H117 C120 0.931 . S
H118 C123 0.928 . S
H119 C125 0.930 . S
C120 H117 0.931 . S
C120 C121 1.413 . S
C120 C122 1.360 . S
C121 C120 1.413 . S
C121 C125 1.429 . S
C122 C120 1.360 . S
C122 C123 1.372 . S
C123 H118 0.928 . S
C123 C122 1.372 . S
C123 C124 1.404 . S
C124 C123 1.404 . S
C124 C125 1.391 . S
C125 H119 0.930 . S
C125 C121 1.429 . S
C125 C124 1.391 . S
H126 C129 0.931 . S
H127 C132 0.928 . S
H128 C134 0.930 . S
C129 H126 0.931 . S
C129 C130 1.413 . S
C129 C131 1.360 . S
C130 C129 1.413 . S
C130 C134 1.429 . S
C131 C129 1.360 . S
C131 C132 1.372 . S
C132 H127 0.928 . S
C132 C131 1.372 . S
C132 C133 1.404 . S
C133 C132 1.404 . S
C133 C134 1.391 . S
C134 H128 0.930 . S
C134 C130 1.429 . S
C134 C133 1.391 . S
H135 C138 0.931 . S
H136 C141 0.928 . S
H137 C143 0.930 . S
C138 H135 0.931 . S
C138 C139 1.413 . S
C138 C140 1.360 . S
C139 C138 1.413 . S
C139 C143 1.429 . S
C140 C138 1.360 . S
C140 C141 1.372 . S
C141 H136 0.928 . S
C141 C140 1.372 . S
C141 C142 1.404 . S
C142 C141 1.404 . S
C142 C143 1.391 . S
C143 H137 0.930 . S
C143 C139 1.429 . S
C143 C142 1.391 . S
H144 C147 0.931 . S
H145 C150 0.928 . S
H146 C152 0.930 . S
C147 H144 0.931 . S
C147 C148 1.413 . S
C147 C149 1.360 . S
C148 C147 1.413 . S
C148 C152 1.429 . S
C149 C147 1.360 . S
C149 C150 1.372 . S
C150 H145 0.928 . S
C150 C149 1.372 . S
C150 C151 1.404 . S
C151 C150 1.404 . S
C151 C152 1.391 . S
C152 H146 0.930 . S
C152 C148 1.429 . S
C152 C151 1.391 . S
H153 C156 0.931 . S
H154 C159 0.928 . S
H155 C161 0.930 . S
C156 H153 0.931 . S
C156 C157 1.413 . S
C156 C158 1.360 . S
C157 C156 1.413 . S
C157 C161 1.429 . S
C158 C156 1.360 . S
C158 C159 1.372 . S
C159 H154 0.928 . S
C159 C158 1.372 . S
C159 C160 1.404 . S
C160 C159 1.404 . S
C160 C161 1.391 . S
C161 H155 0.930 . S
C161 C157 1.429 . S
C161 C160 1.391 . S
O162 Mn163 2.163 1_565 S
O162 C176 1.244 . S
Mn163 O162 2.163 1_545 S
Mn163 O166 2.160 . S
Mn163 O167 2.221 1_545 S
Mn163 O169 2.163 1_554 S
Mn163 O171 2.160 . S
Mn163 O181 2.221 . S
O164 Mn165 2.087 1_565 S
O164 C176 1.256 . S
Mn165 O164 2.087 1_545 S
Mn165 O172 2.089 . S
Mn165 O181 2.290 . S
Mn165 O182 2.251 . S
O166 Mn163 2.160 . S
O166 C177 1.239 1_554 S
O167 Mn163 2.221 1_565 S
O167 Mn168 2.290 1_554 S
O167 C178 1.276 1_554 S
Mn168 O167 2.290 1_556 S
Mn168 O170 2.089 1_565 S
Mn168 O173 2.251 . S
Mn168 O174 2.087 . S
O169 Mn163 2.163 1_556 S
O169 C179 1.244 . S
O170 Mn168 2.089 1_545 S
O170 C177 1.256 . S
O171 Mn163 2.160 . S
O171 C180 1.239 . S
O172 Mn165 2.089 . S
O172 C180 1.256 . S
O173 Mn168 2.251 . S
O173 C178 1.248 . S
O174 Mn168 2.087 . S
O174 C179 1.256 1_565 S
C175 O181 1.273 1_556 S
C175 O182 1.239 1_556 S
C176 O162 1.244 . S
C176 O164 1.256 . S
C177 O166 1.239 1_556 S
C177 O170 1.256 . S
C178 O167 1.276 1_556 S
C178 O173 1.248 . S
C179 O169 1.244 . S
C179 O174 1.256 1_545 S
C180 O171 1.239 . S
C180 O172 1.256 . S
O181 Mn163 2.221 . S
O181 Mn165 2.290 . S
O181 C175 1.273 1_554 S
O182 Mn165 2.251 . S
O182 C175 1.239 1_554 S
O183 Mn184 2.163 1_455 S
O183 C197 1.244 . S
Mn184 O183 2.163 1_655 S
Mn184 O187 2.160 . S
Mn184 O188 2.221 1_655 S
Mn184 O190 2.163 1_554 S
Mn184 O192 2.160 . S
Mn184 O202 2.221 . S
O185 Mn186 2.087 1_455 S
O185 C197 1.256 . S
Mn186 O185 2.087 1_655 S
Mn186 O193 2.089 1_655 S
Mn186 O202 2.290 . S
Mn186 O203 2.251 . S
O187 Mn184 2.160 . S
O187 C198 1.239 1_554 S
O188 Mn184 2.221 1_455 S
O188 Mn189 2.290 1_554 S
O188 C199 1.282 . S
Mn189 O188 2.290 1_556 S
Mn189 O191 2.089 1_455 S
Mn189 O194 2.251 . S
Mn189 O195 2.087 . S
O190 Mn184 2.163 1_556 S
O190 C200 1.246 1_655 S
O191 Mn189 2.089 1_655 S
O191 C198 1.256 . S
O192 Mn184 2.160 . S
O192 C201 1.239 1_655 S
O193 Mn186 2.089 1_455 S
O193 C201 1.256 . S
O194 Mn189 2.251 . S
O194 C199 1.221 1_556 S
O195 Mn189 2.087 . S
O195 C200 1.255 . S
C196 O202 1.280 1_556 S
C196 O203 1.242 1_556 S
C197 O183 1.244 . S
C197 O185 1.256 . S
C198 O187 1.239 1_556 S
C198 O191 1.256 . S
C199 O188 1.282 . S
C199 O194 1.221 1_554 S
C200 O190 1.246 1_455 S
C200 O195 1.255 . S
C201 O192 1.239 1_455 S
C201 O193 1.256 . S
O202 Mn184 2.221 . S
O202 Mn186 2.290 . S
O202 C196 1.280 1_554 S
O203 Mn186 2.251 . S
O203 C196 1.242 1_554 S
O204 Mn205 2.166 . S
O204 C218 1.244 . S
Mn205 O204 2.166 . S
Mn205 O208 2.159 1_556 S
Mn205 O209 2.219 1_556 S
Mn205 O211 2.123 1_556 S
Mn205 O213 2.200 . S
Mn205 O223 2.227 . S
O206 Mn207 2.087 . S
O206 C218 1.256 . S
Mn207 O206 2.087 . S
Mn207 O214 2.089 . S
Mn207 O223 2.290 . S
Mn207 O224 2.240 1_556 S
O208 Mn205 2.159 1_554 S
O208 C219 1.244 . S
O209 Mn205 2.219 1_554 S
O209 Mn210 2.290 . S
O209 C220 1.278 . S
Mn210 O209 2.290 . S
Mn210 O212 2.089 . S
Mn210 O215 2.251 . S
Mn210 O216 2.087 . S
O211 Mn205 2.123 1_554 S
O211 C221 1.244 . S
O212 Mn210 2.089 . S
O212 C219 1.256 . S
O213 Mn205 2.200 . S
O213 C222 1.239 . S
O214 Mn207 2.089 . S
O214 C222 1.256 . S
O215 Mn210 2.251 . S
O215 C220 1.241 . S
O216 Mn210 2.087 . S
O216 C221 1.256 . S
C217 O223 1.278 1_554 S
C217 O224 1.244 . S
C218 O204 1.244 . S
C218 O206 1.256 . S
C219 O208 1.244 . S
C219 O212 1.256 . S
C220 O209 1.278 . S
C220 O215 1.241 . S
C221 O211 1.244 . S
C221 O216 1.256 . S
C222 O213 1.239 . S
C222 O214 1.256 . S
O223 Mn205 2.227 . S
O223 Mn207 2.290 . S
O223 C217 1.278 1_556 S
O224 Mn207 2.240 1_554 S
O224 C217 1.244 . S
O225 Mn226 2.163 . S
O225 C239 1.244 . S
Mn226 O225 2.163 . S
Mn226 O229 2.160 . S
Mn226 O230 2.221 . S
Mn226 O232 2.163 . S
Mn226 O234 2.160 . S
Mn226 O244 2.221 . S
O227 Mn228 2.087 . S
O227 C239 1.256 . S
Mn228 O227 2.087 . S
Mn228 O235 2.089 . S
Mn228 O244 2.290 . S
Mn228 O245 2.251 . S
O229 Mn226 2.160 . S
O229 C240 1.239 . S
O230 Mn226 2.221 . S
O230 Mn231 2.290 . S
O230 C241 1.278 . S
Mn231 O230 2.290 . S
Mn231 O233 2.089 . S
Mn231 O236 2.251 . S
Mn231 O237 2.087 . S
O232 Mn226 2.163 . S
O232 C242 1.244 . S
O233 Mn231 2.089 . S
O233 C240 1.256 . S
O234 Mn226 2.160 . S
O234 C243 1.239 . S
O235 Mn228 2.089 . S
O235 C243 1.256 . S
O236 Mn231 2.251 . S
O236 C241 1.241 . S
O237 Mn231 2.087 . S
O237 C242 1.256 . S
C238 O244 1.278 . S
C238 O245 1.241 . S
C239 O225 1.244 . S
C239 O227 1.256 . S
C240 O229 1.239 . S
C240 O233 1.256 . S
C241 O230 1.278 . S
C241 O236 1.241 . S
C242 O232 1.244 . S
C242 O237 1.256 . S
C243 O234 1.239 . S
C243 O235 1.256 . S
O244 Mn226 2.221 . S
O244 Mn228 2.290 . S
O244 C238 1.278 . S
O245 Mn228 2.251 . S
O245 C238 1.241 . S
O246 Mn247 2.163 . S
O246 C260 1.244 . S
Mn247 O246 2.163 . S
Mn247 O250 2.160 . S
Mn247 O251 2.221 . S
Mn247 O253 2.163 . S
Mn247 O255 2.160 . S
Mn247 O265 2.221 . S
O248 Mn249 2.087 . S
O248 C260 1.256 . S
Mn249 O248 2.087 . S
Mn249 O256 2.089 . S
Mn249 O265 2.290 . S
Mn249 O266 2.251 . S
O250 Mn247 2.160 . S
O250 C261 1.239 . S
O251 Mn247 2.221 . S
O251 Mn252 2.290 . S
O251 C262 1.278 . S
Mn252 O251 2.290 . S
Mn252 O254 2.089 . S
Mn252 O257 2.251 . S
Mn252 O258 2.087 . S
O253 Mn247 2.163 . S
O253 C263 1.244 . S
O254 Mn252 2.089 . S
O254 C261 1.256 . S
O255 Mn247 2.160 . S
O255 C264 1.239 . S
O256 Mn249 2.089 . S
O256 C264 1.256 . S
O257 Mn252 2.251 . S
O257 C262 1.241 . S
O258 Mn252 2.087 . S
O258 C263 1.256 . S
C259 O265 1.278 . S
C259 O266 1.241 . S
C260 O246 1.244 . S
C260 O248 1.256 . S
C261 O250 1.239 . S
C261 O254 1.256 . S
C262 O251 1.278 . S
C262 O257 1.241 . S
C263 O253 1.244 . S
C263 O258 1.256 . S
C264 O255 1.239 . S
C264 O256 1.256 . S
O265 Mn247 2.221 . S
O265 Mn249 2.290 . S
O265 C259 1.278 . S
O266 Mn249 2.251 . S
O266 C259 1.241 . S
O267 Mn268 2.163 . S
O267 C281 1.244 . S
Mn268 O267 2.163 . S
Mn268 O271 2.160 . S
Mn268 O272 2.221 . S
Mn268 O274 2.163 . S
Mn268 O276 2.160 . S
Mn268 O286 2.221 . S
O269 Mn270 2.087 . S
O269 C281 1.256 . S
Mn270 O269 2.087 . S
Mn270 O277 2.089 . S
Mn270 O286 2.290 . S
Mn270 O287 2.251 . S
O271 Mn268 2.160 . S
O271 C282 1.239 . S
O272 Mn268 2.221 . S
O272 Mn273 2.290 . S
O272 C283 1.278 . S
Mn273 O272 2.290 . S
Mn273 O275 2.089 . S
Mn273 O278 2.251 . S
Mn273 O279 2.087 . S
O274 Mn268 2.163 . S
O274 C284 1.244 . S
O275 Mn273 2.089 . S
O275 C282 1.256 . S
O276 Mn268 2.160 . S
O276 C285 1.239 . S
O277 Mn270 2.089 . S
O277 C285 1.256 . S
O278 Mn273 2.251 . S
O278 C283 1.241 . S
O279 Mn273 2.087 . S
O279 C284 1.256 . S
C280 O286 1.278 . S
C280 O287 1.241 . S
C281 O267 1.244 . S
C281 O269 1.256 . S
C282 O271 1.239 . S
C282 O275 1.256 . S
C283 O272 1.278 . S
C283 O278 1.241 . S
C284 O274 1.244 . S
C284 O279 1.256 . S
C285 O276 1.239 . S
C285 O277 1.256 . S
O286 Mn268 2.221 . S
O286 Mn270 2.290 . S
O286 C280 1.278 . S
O287 Mn270 2.251 . S
O287 C280 1.241 . S
O288 Mn289 2.163 . S
O288 C302 1.244 . S
Mn289 O288 2.163 . S
Mn289 O292 2.160 . S
Mn289 O293 2.221 . S
Mn289 O295 2.163 . S
Mn289 O297 2.160 . S
Mn289 O307 2.221 . S
O290 Mn291 2.087 . S
O290 C302 1.256 . S
Mn291 O290 2.087 . S
Mn291 O298 2.089 . S
Mn291 O307 2.290 . S
Mn291 O308 2.251 . S
O292 Mn289 2.160 . S
O292 C303 1.239 . S
O293 Mn289 2.221 . S
O293 Mn294 2.290 . S
O293 C304 1.278 . S
Mn294 O293 2.290 . S
Mn294 O296 2.089 . S
Mn294 O299 2.251 . S
Mn294 O300 2.087 . S
O295 Mn289 2.163 . S
O295 C305 1.244 . S
O296 Mn294 2.089 . S
O296 C303 1.256 . S
O297 Mn289 2.160 . S
O297 C306 1.239 . S
O298 Mn291 2.089 . S
O298 C306 1.256 . S
O299 Mn294 2.251 . S
O299 C304 1.241 . S
O300 Mn294 2.087 . S
O300 C305 1.256 . S
C301 O307 1.278 . S
C301 O308 1.241 . S
C302 O288 1.244 . S
C302 O290 1.256 . S
C303 O292 1.239 . S
C303 O296 1.256 . S
C304 O293 1.278 . S
C304 O299 1.241 . S
C305 O295 1.244 . S
C305 O300 1.256 . S
C306 O297 1.239 . S
C306 O298 1.256 . S
O307 Mn289 2.221 . S
O307 Mn291 2.290 . S
O307 C301 1.278 . S
O308 Mn291 2.251 . S
O308 C301 1.241 . S
O309 Mn310 2.163 . S
O309 C323 1.244 . S
Mn310 O309 2.163 . S
Mn310 O313 2.160 . S
Mn310 O314 2.221 . S
Mn310 O316 2.163 . S
Mn310 O318 2.160 . S
Mn310 O328 2.221 . S
O311 Mn312 2.087 . S
O311 C323 1.256 . S
Mn312 O311 2.087 . S
Mn312 O319 2.089 . S
Mn312 O328 2.290 . S
Mn312 O329 2.251 . S
O313 Mn310 2.160 . S
O313 C324 1.239 . S
O314 Mn310 2.221 . S
O314 Mn315 2.290 . S
O314 C325 1.278 . S
Mn315 O314 2.290 . S
Mn315 O317 2.089 . S
Mn315 O320 2.251 . S
Mn315 O321 2.087 . S
O316 Mn310 2.163 . S
O316 C326 1.244 . S
O317 Mn315 2.089 . S
O317 C324 1.256 . S
O318 Mn310 2.160 . S
O318 C327 1.239 . S
O319 Mn312 2.089 . S
O319 C327 1.256 . S
O320 Mn315 2.251 . S
O320 C325 1.241 . S
O321 Mn315 2.087 . S
O321 C326 1.256 . S
C322 O328 1.278 . S
C322 O329 1.241 . S
C323 O309 1.244 . S
C323 O311 1.256 . S
C324 O313 1.239 . S
C324 O317 1.256 . S
C325 O314 1.278 . S
C325 O320 1.241 . S
C326 O316 1.244 . S
C326 O321 1.256 . S
C327 O318 1.239 . S
C327 O319 1.256 . S
O328 Mn310 2.221 . S
O328 Mn312 2.290 . S
O328 C322 1.278 . S
O329 Mn312 2.251 . S
O329 C322 1.241 . S
O330 Mn331 2.163 . S
O330 C344 1.244 . S
Mn331 O330 2.163 . S
Mn331 O334 2.160 . S
Mn331 O335 2.221 . S
Mn331 O337 2.163 . S
Mn331 O339 2.160 . S
Mn331 O349 2.221 . S
O332 Mn333 2.087 . S
O332 C344 1.256 . S
Mn333 O332 2.087 . S
Mn333 O340 2.089 . S
Mn333 O349 2.290 . S
Mn333 O350 2.251 . S
O334 Mn331 2.160 . S
O334 C345 1.239 . S
O335 Mn331 2.221 . S
O335 Mn336 2.290 . S
O335 C346 1.278 . S
Mn336 O335 2.290 . S
Mn336 O338 2.089 . S
Mn336 O341 2.251 . S
Mn336 O342 2.087 . S
O337 Mn331 2.163 . S
O337 C347 1.244 . S
O338 Mn336 2.089 . S
O338 C345 1.256 . S
O339 Mn331 2.160 . S
O339 C348 1.239 . S
O340 Mn333 2.089 . S
O340 C348 1.256 . S
O341 Mn336 2.251 . S
O341 C346 1.241 . S
O342 Mn336 2.087 . S
O342 C347 1.256 . S
C343 O349 1.278 . S
C343 O350 1.241 . S
C344 O330 1.244 . S
C344 O332 1.256 . S
C345 O334 1.239 . S
C345 O338 1.256 . S
C346 O335 1.278 . S
C346 O341 1.241 . S
C347 O337 1.244 . S
C347 O342 1.256 . S
C348 O339 1.239 . S
C348 O340 1.256 . S
O349 Mn331 2.221 . S
O349 Mn333 2.290 . S
O349 C343 1.278 . S
O350 Mn333 2.251 . S
O350 C343 1.241 . S
H351 C359 0.950 . S
H352 C364 0.950 . S
H353 C361 0.950 . S
H354 C363 0.950 . S
H355 C365 0.942 1_556 S
H356 C367 0.950 . S
H357 C369 0.950 . S
H358 C370 0.950 . S
C359 H351 0.950 . S
C359 C360 1.386 . S
C359 C361 1.391 . S
C360 C359 1.386 . S
C360 C364 1.393 . S
C361 H353 0.950 . S
C361 C359 1.391 . S
C361 C362 1.400 . S
C362 C361 1.400 . S
C362 C363 1.398 . S
C362 C368 1.491 . S
C363 H354 0.950 . S
C363 C362 1.398 . S
C363 C364 1.391 . S
C364 H352 0.950 . S
C364 C360 1.393 . S
C364 C363 1.391 . S
C365 H355 0.942 1_554 S
C365 C366 1.386 . S
C365 C367 1.391 . S
C366 C365 1.386 . S
C366 C370 1.393 . S
C367 H356 0.950 . S
C367 C365 1.391 . S
C367 C368 1.400 . S
C368 C362 1.491 . S
C368 C367 1.400 . S
C368 C369 1.398 . S
C369 H357 0.950 . S
C369 C368 1.398 . S
C369 C370 1.391 . S
C370 H358 0.950 . S
C370 C366 1.393 . S
C370 C369 1.391 . S
H371 C379 0.950 . S
H372 C384 0.950 . S
H373 C381 0.950 . S
H374 C383 0.950 . S
H375 C385 0.950 . S
H376 C387 0.950 . S
H377 C389 0.950 1_556 S
H378 C390 0.950 1_556 S
C379 H371 0.950 . S
C379 C380 1.386 . S
C379 C381 1.391 . S
C380 C379 1.386 . S
C380 C384 1.393 . S
C381 H373 0.950 . S
C381 C379 1.391 . S
C381 C382 1.400 . S
C382 C381 1.400 . S
C382 C383 1.398 . S
C382 C388 1.491 . S
C383 H374 0.950 . S
C383 C382 1.398 . S
C383 C384 1.391 . S
C384 H372 0.950 . S
C384 C380 1.393 . S
C384 C383 1.391 . S
C385 H375 0.950 . S
C385 C386 1.386 . S
C385 C387 1.391 . S
C386 C385 1.386 . S
C386 C390 1.393 . S
C387 H376 0.950 . S
C387 C385 1.391 . S
C387 C388 1.400 . S
C388 C382 1.491 . S
C388 C387 1.400 . S
C388 C389 1.398 . S
C389 H377 0.950 1_554 S
C389 C388 1.398 . S
C389 C390 1.391 . S
C390 H378 0.950 1_554 S
C390 C386 1.393 . S
C390 C389 1.391 . S
H391 C399 0.950 . S
H392 C404 0.950 . S
H393 C401 0.950 . S
H394 C403 0.950 . S
H395 C405 0.950 . S
H396 C407 0.950 . S
H397 C409 0.950 . S
H398 C410 0.950 . S
C399 H391 0.950 . S
C399 C400 1.386 . S
C399 C401 1.391 . S
C400 C399 1.386 . S
C400 C404 1.393 . S
C401 H393 0.950 . S
C401 C399 1.391 . S
C401 C402 1.400 . S
C402 C401 1.400 . S
C402 C403 1.398 . S
C402 C408 1.491 . S
C403 H394 0.950 . S
C403 C402 1.398 . S
C403 C404 1.391 . S
C404 H392 0.950 . S
C404 C400 1.393 . S
C404 C403 1.391 . S
C405 H395 0.950 . S
C405 C406 1.386 . S
C405 C407 1.391 . S
C406 C405 1.386 . S
C406 C410 1.393 . S
C407 H396 0.950 . S
C407 C405 1.391 . S
C407 C408 1.400 . S
C408 C402 1.491 . S
C408 C407 1.400 . S
C408 C409 1.398 . S
C409 H397 0.950 . S
C409 C408 1.398 . S
C409 C410 1.391 . S
C410 H398 0.950 . S
C410 C406 1.393 . S
C410 C409 1.391 . S
H411 C419 0.950 . S
H412 C424 0.950 . S
H413 C421 0.950 . S
H414 C423 0.950 . S
H415 C425 0.950 . S
H416 C427 0.950 . S
H417 C429 0.950 . S
H418 C430 0.950 . S
C419 H411 0.950 . S
C419 C420 1.386 . S
C419 C421 1.391 . S
C420 C419 1.386 . S
C420 C424 1.393 . S
C421 H413 0.950 . S
C421 C419 1.391 . S
C421 C422 1.400 . S
C422 C421 1.400 . S
C422 C423 1.398 . S
C422 C428 1.491 . S
C423 H414 0.950 . S
C423 C422 1.398 . S
C423 C424 1.391 . S
C424 H412 0.950 . S
C424 C420 1.393 . S
C424 C423 1.391 . S
C425 H415 0.950 . S
C425 C426 1.386 . S
C425 C427 1.391 . S
C426 C425 1.386 . S
C426 C430 1.393 . S
C427 H416 0.950 . S
C427 C425 1.391 . S
C427 C428 1.400 . S
C428 C422 1.491 . S
C428 C427 1.400 . S
C428 C429 1.398 . S
C429 H417 0.950 . S
C429 C428 1.398 . S
C429 C430 1.391 . S
C430 H418 0.950 . S
C430 C426 1.393 . S
C430 C429 1.391 . S
H431 C439 0.950 . S
H432 C444 0.950 . S
H433 C441 0.950 . S
H434 C443 0.950 . S
H435 C445 0.950 . S
H436 C447 0.950 . S
H437 C449 0.950 . S
H438 C450 0.950 1_554 S
C439 H431 0.950 . S
C439 C440 1.386 . S
C439 C441 1.391 . S
C440 C439 1.386 . S
C440 C444 1.393 . S
C441 H433 0.950 . S
C441 C439 1.391 . S
C441 C442 1.400 . S
C442 C441 1.400 . S
C442 C443 1.398 . S
C442 C448 1.491 . S
C443 H434 0.950 . S
C443 C442 1.398 . S
C443 C444 1.391 . S
C444 H432 0.950 . S
C444 C440 1.393 . S
C444 C443 1.391 . S
C445 H435 0.950 . S
C445 C446 1.386 . S
C445 C447 1.391 . S
C446 C445 1.386 . S
C446 C450 1.393 . S
C447 H436 0.950 . S
C447 C445 1.391 . S
C447 C448 1.400 . S
C448 C442 1.491 . S
C448 C447 1.400 . S
C448 C449 1.398 . S
C449 H437 0.950 . S
C449 C448 1.398 . S
C449 C450 1.391 . S
C450 H438 0.950 1_556 S
C450 C446 1.393 . S
C450 C449 1.391 . S
H451 C459 0.950 . S
H452 C464 0.950 . S
H453 C461 0.950 . S
H454 C463 0.950 . S
H455 C465 0.950 . S
H456 C467 0.950 . S
H457 C469 0.950 . S
H458 C470 0.950 1_554 S
C459 H451 0.950 . S
C459 C460 1.386 . S
C459 C461 1.391 . S
C460 C459 1.386 . S
C460 C464 1.393 . S
C461 H453 0.950 . S
C461 C459 1.391 . S
C461 C462 1.400 . S
C462 C461 1.400 . S
C462 C463 1.398 . S
C462 C468 1.491 . S
C463 H454 0.950 . S
C463 C462 1.398 . S
C463 C464 1.391 . S
C464 H452 0.950 . S
C464 C460 1.393 . S
C464 C463 1.391 . S
C465 H455 0.950 . S
C465 C466 1.386 . S
C465 C467 1.391 . S
C466 C465 1.386 . S
C466 C470 1.393 . S
C467 H456 0.950 . S
C467 C465 1.391 . S
C467 C468 1.400 . S
C468 C462 1.491 . S
C468 C467 1.400 . S
C468 C469 1.398 . S
C469 H457 0.950 . S
C469 C468 1.398 . S
C469 C470 1.391 . S
C470 H458 0.950 1_556 S
C470 C466 1.393 . S
C470 C469 1.391 . S
H471 C479 0.950 . S
H472 C484 0.950 . S
H473 C481 0.950 . S
H474 C483 0.950 1_554 S
H475 C485 0.950 . S
H476 C487 0.950 . S
H477 C489 0.950 . S
H478 C490 0.950 . S
C479 H471 0.950 . S
C479 C480 1.386 . S
C479 C481 1.391 . S
C480 C479 1.386 . S
C480 C484 1.393 . S
C481 H473 0.950 . S
C481 C479 1.391 . S
C481 C482 1.400 . S
C482 C481 1.400 . S
C482 C483 1.398 . S
C482 C488 1.491 . S
C483 H474 0.950 1_556 S
C483 C482 1.398 . S
C483 C484 1.391 . S
C484 H472 0.950 . S
C484 C480 1.393 . S
C484 C483 1.391 . S
C485 H475 0.950 . S
C485 C486 1.386 1_554 S
C485 C487 1.391 . S
C486 C485 1.386 1_556 S
C486 C490 1.393 . S
C487 H476 0.950 . S
C487 C485 1.391 . S
C487 C488 1.400 1_554 S
C488 C482 1.491 . S
C488 C487 1.400 1_556 S
C488 C489 1.398 . S
C489 H477 0.950 . S
C489 C488 1.398 . S
C489 C490 1.391 . S
C490 H478 0.950 . S
C490 C486 1.393 . S
C490 C489 1.391 . S
H491 C499 0.950 . S
H492 C504 0.950 . S
H493 C501 0.950 . S
H494 C503 0.950 . S
H495 C505 0.950 . S
H496 C507 0.950 1_554 S
H497 C509 0.950 . S
H498 C510 0.950 . S
C499 H491 0.950 . S
C499 C500 1.386 . S
C499 C501 1.391 . S
C500 C499 1.386 . S
C500 C504 1.393 . S
C501 H493 0.950 . S
C501 C499 1.391 . S
C501 C502 1.400 . S
C502 C501 1.400 . S
C502 C503 1.398 . S
C502 C508 1.491 . S
C503 H494 0.950 . S
C503 C502 1.398 . S
C503 C504 1.391 . S
C504 H492 0.950 . S
C504 C500 1.393 . S
C504 C503 1.391 . S
C505 H495 0.950 . S
C505 C506 1.386 1_554 S
C505 C507 1.391 1_554 S
C506 C505 1.386 1_556 S
C506 C510 1.393 . S
C507 H496 0.950 1_556 S
C507 C505 1.391 1_556 S
C507 C508 1.400 . S
C508 C502 1.491 . S
C508 C507 1.400 . S
C508 C509 1.398 . S
C509 H497 0.950 . S
C509 C508 1.398 . S
C509 C510 1.391 . S
C510 H498 0.950 . S
C510 C506 1.393 . S
C510 C509 1.391 . S
H511 C519 0.950 . S
H512 C524 0.950 . S
H513 C521 0.950 1_554 S
H514 C523 0.950 . S
H515 C525 0.950 . S
H516 C527 0.950 . S
H517 C529 0.950 . S
H518 C530 0.950 . S
C519 H511 0.950 . S
C519 C520 1.386 . S
C519 C521 1.391 . S
C520 C519 1.386 . S
C520 C524 1.393 . S
C521 H513 0.950 1_556 S
C521 C519 1.391 . S
C521 C522 1.400 . S
C522 C521 1.400 . S
C522 C523 1.398 . S
C522 C528 1.491 . S
C523 H514 0.950 . S
C523 C522 1.398 . S
C523 C524 1.391 . S
C524 H512 0.950 . S
C524 C520 1.393 . S
C524 C523 1.391 . S
C525 H515 0.950 . S
C525 C526 1.386 . S
C525 C527 1.391 . S
C526 C525 1.386 . S
C526 C530 1.393 1_556 S
C527 H516 0.950 . S
C527 C525 1.391 . S
C527 C528 1.400 . S
C528 C522 1.491 . S
C528 C527 1.400 . S
C528 C529 1.398 1_556 S
C529 H517 0.950 . S
C529 C528 1.398 1_554 S
C529 C530 1.391 . S
C530 H518 0.950 . S
C530 C526 1.393 1_554 S
C530 C529 1.391 . S
H531 C539 0.950 . S
H532 C544 0.950 . S
H533 C541 0.950 . S
H534 C543 0.950 . S
H535 C545 0.950 . S
H536 C547 0.950 . S
H537 C549 0.950 . S
H538 C550 0.950 . S
C539 H531 0.950 . S
C539 C540 1.386 . S
C539 C541 1.391 . S
C540 C539 1.386 . S
C540 C544 1.393 . S
C541 H533 0.950 . S
C541 C539 1.391 . S
C541 C542 1.400 . S
C542 C541 1.400 . S
C542 C543 1.398 . S
C542 C548 1.491 . S
C543 H534 0.950 . S
C543 C542 1.398 . S
C543 C544 1.391 . S
C544 H532 0.950 . S
C544 C540 1.393 . S
C544 C543 1.391 . S
C545 H535 0.950 . S
C545 C546 1.386 . S
C545 C547 1.391 . S
C546 C545 1.386 . S
C546 C550 1.393 . S
C547 H536 0.950 . S
C547 C545 1.391 . S
C547 C548 1.400 . S
C548 C542 1.491 . S
C548 C547 1.400 . S
C548 C549 1.398 . S
C549 H537 0.950 . S
C549 C548 1.398 . S
C549 C550 1.391 . S
C550 H538 0.950 . S
C550 C546 1.393 . S
C550 C549 1.391 . S
H551 C559 0.950 . S
H552 C564 0.950 . S
H553 C561 0.950 . S
H554 C563 0.950 . S
H555 C565 0.950 . S
H556 C567 0.950 . S
H557 C569 0.950 . S
H558 C570 0.950 . S
C559 H551 0.950 . S
C559 C560 1.386 . S
C559 C561 1.391 . S
C560 C559 1.386 . S
C560 C564 1.393 . S
C561 H553 0.950 . S
C561 C559 1.391 . S
C561 C562 1.400 . S
C562 C561 1.400 . S
C562 C563 1.398 . S
C562 C568 1.491 . S
C563 H554 0.950 . S
C563 C562 1.398 . S
C563 C564 1.391 . S
C564 H552 0.950 . S
C564 C560 1.393 . S
C564 C563 1.391 . S
C565 H555 0.950 . S
C565 C566 1.386 . S
C565 C567 1.391 . S
C566 C565 1.386 . S
C566 C570 1.393 . S
C567 H556 0.950 . S
C567 C565 1.391 . S
C567 C568 1.400 . S
C568 C562 1.491 . S
C568 C567 1.400 . S
C568 C569 1.398 . S
C569 H557 0.950 . S
C569 C568 1.398 . S
C569 C570 1.391 . S
C570 H558 0.950 . S
C570 C566 1.393 . S
C570 C569 1.391 . S
H571 C579 0.950 . S
H572 C584 0.950 . S
H573 C581 0.950 . S
H574 C583 0.950 . S
H575 C585 0.950 . S
H576 C587 0.950 . S
H577 C589 0.950 . S
H578 C590 0.950 . S
C579 H571 0.950 . S
C579 C580 1.386 . S
C579 C581 1.391 . S
C580 C579 1.386 . S
C580 C584 1.393 . S
C581 H573 0.950 . S
C581 C579 1.391 . S
C581 C582 1.400 . S
C582 C581 1.400 . S
C582 C583 1.398 . S
C582 C588 1.491 . S
C583 H574 0.950 . S
C583 C582 1.398 . S
C583 C584 1.391 . S
C584 H572 0.950 . S
C584 C580 1.393 . S
C584 C583 1.391 . S
C585 H575 0.950 . S
C585 C586 1.386 . S
C585 C587 1.391 . S
C586 C585 1.386 . S
C586 C590 1.393 . S
C587 H576 0.950 . S
C587 C585 1.391 . S
C587 C588 1.400 . S
C588 C582 1.491 . S
C588 C587 1.400 . S
C588 C589 1.398 . S
C589 H577 0.950 . S
C589 C588 1.398 . S
C589 C590 1.391 . S
C590 H578 0.950 . S
C590 C586 1.393 . S
C590 C589 1.391 . S
H591 C599 0.950 . S
H592 C604 0.950 . S
H593 C601 0.950 . S
H594 C603 0.950 . S
H595 C605 0.950 . S
H596 C607 0.950 . S
H597 C609 0.950 . S
H598 C610 0.950 . S
C599 H591 0.950 . S
C599 C600 1.386 . S
C599 C601 1.391 . S
C600 C599 1.386 . S
C600 C604 1.393 . S
C601 H593 0.950 . S
C601 C599 1.391 . S
C601 C602 1.400 . S
C602 C601 1.400 . S
C602 C603 1.398 . S
C602 C608 1.491 1_655 S
C603 H594 0.950 . S
C603 C602 1.398 . S
C603 C604 1.391 . S
C604 H592 0.950 . S
C604 C600 1.393 . S
C604 C603 1.391 . S
C605 H595 0.950 . S
C605 C606 1.386 . S
C605 C607 1.391 . S
C606 C605 1.386 . S
C606 C610 1.393 . S
C607 H596 0.950 . S
C607 C605 1.391 . S
C607 C608 1.400 . S
C608 C602 1.491 1_455 S
C608 C607 1.400 . S
C608 C609 1.398 . S
C609 H597 0.950 . S
C609 C608 1.398 . S
C609 C610 1.391 . S
C610 H598 0.950 . S
C610 C606 1.393 . S
C610 C609 1.391 . S
H611 C619 0.950 . S
H612 C624 0.950 . S
H613 C621 0.950 . S
H614 C623 0.950 . S
H615 C625 0.950 . S
H616 C627 0.950 . S
H617 C629 0.950 . S
H618 C630 0.950 . S
C619 H611 0.950 . S
C619 C620 1.386 . S
C619 C621 1.391 . S
C620 C619 1.386 . S
C620 C624 1.393 . S
C621 H613 0.950 . S
C621 C619 1.391 . S
C621 C622 1.400 . S
C622 C621 1.400 . S
C622 C623 1.398 . S
C622 C628 1.491 . S
C623 H614 0.950 . S
C623 C622 1.398 . S
C623 C624 1.391 . S
C624 H612 0.950 . S
C624 C620 1.393 . S
C624 C623 1.391 . S
C625 H615 0.950 . S
C625 C626 1.386 . S
C625 C627 1.391 . S
C626 C625 1.386 . S
C626 C630 1.393 . S
C627 H616 0.950 . S
C627 C625 1.391 . S
C627 C628 1.400 . S
C628 C622 1.491 . S
C628 C627 1.400 . S
C628 C629 1.398 . S
C629 H617 0.950 . S
C629 C628 1.398 . S
C629 C630 1.391 . S
C630 H618 0.950 . S
C630 C626 1.393 . S
C630 C629 1.391 . S
H631 C639 0.950 . S
H632 C644 0.950 . S
H633 C641 0.950 . S
H634 C643 0.950 . S
H635 C645 0.950 . S
H636 C647 0.950 . S
H637 C649 0.950 . S
H638 C650 0.950 . S
C639 H631 0.950 . S
C639 C640 1.386 . S
C639 C641 1.391 . S
C640 C639 1.386 . S
C640 C644 1.393 . S
C641 H633 0.950 . S
C641 C639 1.391 . S
C641 C642 1.400 . S
C642 C641 1.400 . S
C642 C643 1.398 . S
C642 C648 1.491 1_545 S
C643 H634 0.950 . S
C643 C642 1.398 . S
C643 C644 1.391 . S
C644 H632 0.950 . S
C644 C640 1.393 . S
C644 C643 1.391 . S
C645 H635 0.950 . S
C645 C646 1.386 . S
C645 C647 1.391 . S
C646 C645 1.386 . S
C646 C650 1.393 . S
C647 H636 0.950 . S
C647 C645 1.391 . S
C647 C648 1.400 . S
C648 C642 1.491 1_565 S
C648 C647 1.400 . S
C648 C649 1.398 . S
C649 H637 0.950 . S
C649 C648 1.398 . S
C649 C650 1.391 . S
C650 H638 0.950 . S
C650 C646 1.393 . S
C650 C649 1.391 . S
H651 C659 0.950 . S
H652 C664 0.950 . S
H653 C661 0.950 . S
H654 C663 0.950 . S
H655 C665 0.950 . S
H656 C667 0.950 . S
H657 C669 0.950 . S
H658 C670 0.950 . S
C659 H651 0.950 . S
C659 C660 1.386 . S
C659 C661 1.391 . S
C660 C659 1.386 . S
C660 C664 1.393 . S
C661 H653 0.950 . S
C661 C659 1.391 . S
C661 C662 1.400 . S
C662 C661 1.400 . S
C662 C663 1.398 . S
C662 C668 1.491 . S
C663 H654 0.950 . S
C663 C662 1.398 . S
C663 C664 1.391 . S
C664 H652 0.950 . S
C664 C660 1.393 . S
C664 C663 1.391 . S
C665 H655 0.950 . S
C665 C666 1.386 . S
C665 C667 1.391 . S
C666 C665 1.386 . S
C666 C670 1.393 . S
C667 H656 0.950 . S
C667 C665 1.391 . S
C667 C668 1.400 . S
C668 C662 1.491 . S
C668 C667 1.400 . S
C668 C669 1.398 . S
C669 H657 0.950 . S
C669 C668 1.398 . S
C669 C670 1.391 . S
C670 H658 0.950 . S
C670 C666 1.393 . S
C670 C669 1.391 . S
H671 C679 0.950 . S
H672 C684 0.950 . S
H673 C681 0.950 . S
H674 C683 0.950 . S
H675 C685 0.950 . S
H676 C687 0.950 . S
H677 C689 0.950 . S
H678 C690 0.950 . S
C679 H671 0.950 . S
C679 C680 1.386 . S
C679 C681 1.391 . S
C680 C679 1.386 . S
C680 C684 1.393 . S
C681 H673 0.950 . S
C681 C679 1.391 . S
C681 C682 1.400 . S
C682 C681 1.400 . S
C682 C683 1.398 . S
C682 C688 1.491 . S
C683 H674 0.950 . S
C683 C682 1.398 . S
C683 C684 1.391 . S
C684 H672 0.950 . S
C684 C680 1.393 . S
C684 C683 1.391 . S
C685 H675 0.950 . S
C685 C686 1.386 . S
C685 C687 1.391 . S
C686 C685 1.386 . S
C686 C690 1.393 . S
C687 H676 0.950 . S
C687 C685 1.391 . S
C687 C688 1.400 . S
C688 C682 1.491 . S
C688 C687 1.400 . S
C688 C689 1.398 . S
C689 H677 0.950 . S
C689 C688 1.398 . S
C689 C690 1.391 . S
C690 H678 0.950 . S
C690 C686 1.393 . S
C690 C689 1.391 . S
H691 C699 0.950 . S
H692 C704 0.950 . S
H693 C701 0.950 . S
H694 C703 0.950 . S
H695 C705 0.950 . S
H696 C707 0.950 . S
H697 C709 0.950 . S
H698 C710 0.950 . S
C699 H691 0.950 . S
C699 C700 1.386 . S
C699 C701 1.391 . S
C700 C699 1.386 . S
C700 C704 1.393 . S
C701 H693 0.950 . S
C701 C699 1.391 . S
C701 C702 1.400 . S
C702 C701 1.400 . S
C702 C703 1.398 . S
C702 C708 1.491 . S
C703 H694 0.950 . S
C703 C702 1.398 . S
C703 C704 1.391 . S
C704 H692 0.950 . S
C704 C700 1.393 . S
C704 C703 1.391 . S
C705 H695 0.950 . S
C705 C706 1.386 . S
C705 C707 1.391 . S
C706 C705 1.386 . S
C706 C710 1.393 . S
C707 H696 0.950 . S
C707 C705 1.391 . S
C707 C708 1.400 . S
C708 C702 1.491 . S
C708 C707 1.400 . S
C708 C709 1.398 . S
C709 H697 0.950 . S
C709 C708 1.398 . S
C709 C710 1.391 . S
C710 H698 0.950 . S
C710 C706 1.393 . S
C710 C709 1.391 . S
H711 C719 0.950 . S
H712 C724 0.950 . S
H713 C721 0.950 . S
H714 C723 0.950 . S
H715 C725 0.950 . S
H716 C727 0.950 . S
H717 C729 0.950 . S
H718 C730 0.950 . S
C719 H711 0.950 . S
C719 C720 1.386 . S
C719 C721 1.391 . S
C720 C719 1.386 . S
C720 C724 1.393 . S
C721 H713 0.950 . S
C721 C719 1.391 . S
C721 C722 1.400 . S
C722 C721 1.400 . S
C722 C723 1.398 . S
C722 C728 1.491 . S
C723 H714 0.950 . S
C723 C722 1.398 . S
C723 C724 1.391 . S
C724 H712 0.950 . S
C724 C720 1.393 . S
C724 C723 1.391 . S
C725 H715 0.950 . S
C725 C726 1.386 . S
C725 C727 1.391 . S
C726 C725 1.386 . S
C726 C730 1.393 . S
C727 H716 0.950 . S
C727 C725 1.391 . S
C727 C728 1.400 . S
C728 C722 1.491 . S
C728 C727 1.400 . S
C728 C729 1.398 . S
C729 H717 0.950 . S
C729 C728 1.398 . S
C729 C730 1.391 . S
C730 H718 0.950 . S
C730 C726 1.393 . S
C730 C729 1.391 . S
H731 C739 0.950 . S
H732 C744 0.950 . S
H733 C741 0.950 . S
H734 C743 0.950 . S
H735 C745 0.950 . S
H736 C747 0.950 . S
H737 C749 0.950 . S
H738 C750 0.950 . S
C739 H731 0.950 . S
C739 C740 1.386 . S
C739 C741 1.391 . S
C740 C739 1.386 . S
C740 C744 1.393 . S
C741 H733 0.950 . S
C741 C739 1.391 . S
C741 C742 1.400 . S
C742 C741 1.400 . S
C742 C743 1.398 . S
C742 C748 1.491 . S
C743 H734 0.950 . S
C743 C742 1.398 . S
C743 C744 1.391 . S
C744 H732 0.950 . S
C744 C740 1.393 . S
C744 C743 1.391 . S
C745 H735 0.950 . S
C745 C746 1.386 . S
C745 C747 1.391 . S
C746 C745 1.386 . S
C746 C750 1.393 . S
C747 H736 0.950 . S
C747 C745 1.391 . S
C747 C748 1.400 . S
C748 C742 1.491 . S
C748 C747 1.400 . S
C748 C749 1.398 . S
C749 H737 0.950 . S
C749 C748 1.398 . S
C749 C750 1.391 . S
C750 H738 0.950 . S
C750 C746 1.393 . S
C750 C749 1.391 . S
H751 C759 0.950 . S
H752 C764 0.950 . S
H753 C761 0.950 . S
H754 C763 0.950 . S
H755 C765 0.950 . S
H756 C767 0.950 . S
H757 C769 0.950 . S
H758 C770 0.950 . S
C759 H751 0.950 . S
C759 C760 1.386 . S
C759 C761 1.391 . S
C760 C759 1.386 . S
C760 C764 1.393 . S
C761 H753 0.950 . S
C761 C759 1.391 . S
C761 C762 1.400 . S
C762 C761 1.400 . S
C762 C763 1.398 . S
C762 C768 1.491 . S
C763 H754 0.950 . S
C763 C762 1.398 . S
C763 C764 1.391 . S
C764 H752 0.950 . S
C764 C760 1.393 . S
C764 C763 1.391 . S
C765 H755 0.950 . S
C765 C766 1.386 . S
C765 C767 1.391 . S
C766 C765 1.386 . S
C766 C770 1.393 . S
C767 H756 0.950 . S
C767 C765 1.391 . S
C767 C768 1.400 . S
C768 C762 1.491 . S
C768 C767 1.400 . S
C768 C769 1.398 . S
C769 H757 0.950 . S
C769 C768 1.398 . S
C769 C770 1.391 . S
C770 H758 0.950 . S
C770 C766 1.393 . S
C770 C769 1.391 . S
H771 C779 0.950 . S
H772 C784 0.950 . S
H773 C781 0.950 . S
H774 C783 0.950 . S
H775 C785 0.950 . S
H776 C787 0.950 . S
H777 C789 0.950 . S
H778 C790 0.950 . S
C779 H771 0.950 . S
C779 C780 1.386 . S
C779 C781 1.391 . S
C780 C779 1.386 . S
C780 C784 1.393 . S
C781 H773 0.950 . S
C781 C779 1.391 . S
C781 C782 1.400 . S
C782 C781 1.400 . S
C782 C783 1.398 . S
C782 C788 1.491 1_545 S
C783 H774 0.950 . S
C783 C782 1.398 . S
C783 C784 1.391 . S
C784 H772 0.950 . S
C784 C780 1.393 . S
C784 C783 1.391 . S
C785 H775 0.950 . S
C785 C786 1.386 . S
C785 C787 1.391 . S
C786 C785 1.386 . S
C786 C790 1.393 . S
C787 H776 0.950 . S
C787 C785 1.391 . S
C787 C788 1.400 . S
C788 C782 1.491 1_565 S
C788 C787 1.400 . S
C788 C789 1.398 . S
C789 H777 0.950 . S
C789 C788 1.398 . S
C789 C790 1.391 . S
C790 H778 0.950 . S
C790 C786 1.393 . S
C790 C789 1.391 . S
H791 C799 0.950 . S
H792 C804 0.950 . S
H793 C801 0.950 . S
H794 C803 0.950 . S
H795 C805 0.950 . S
H796 C807 0.950 . S
H797 C809 0.950 . S
H798 C810 0.950 . S
C799 H791 0.950 . S
C799 C800 1.386 . S
C799 C801 1.391 . S
C800 C799 1.386 . S
C800 C804 1.393 . S
C801 H793 0.950 . S
C801 C799 1.391 . S
C801 C802 1.400 . S
C802 C801 1.400 . S
C802 C803 1.398 . S
C802 C808 1.491 1_655 S
C803 H794 0.950 . S
C803 C802 1.398 . S
C803 C804 1.391 . S
C804 H792 0.950 . S
C804 C800 1.393 . S
C804 C803 1.391 . S
C805 H795 0.950 . S
C805 C806 1.386 . S
C805 C807 1.391 . S
C806 C805 1.386 . S
C806 C810 1.393 . S
C807 H796 0.950 . S
C807 C805 1.391 . S
C807 C808 1.400 . S
C808 C802 1.491 1_455 S
C808 C807 1.400 . S
C808 C809 1.398 . S
C809 H797 0.950 . S
C809 C808 1.398 . S
C809 C810 1.391 . S
C810 H798 0.950 . S
C810 C806 1.393 . S
C810 C809 1.391 . S
H811 C819 0.950 . S
H812 C824 0.950 . S
H813 C821 0.950 . S
H814 C823 0.950 . S
H815 C825 0.950 . S
H816 C827 0.950 . S
H817 C829 0.950 . S
H818 C830 0.950 . S
C819 H811 0.950 . S
C819 C820 1.386 . S
C819 C821 1.391 . S
C820 C819 1.386 . S
C820 C824 1.393 . S
C821 H813 0.950 . S
C821 C819 1.391 . S
C821 C822 1.400 . S
C822 C821 1.400 . S
C822 C823 1.398 . S
C822 C828 1.491 . S
C823 H814 0.950 . S
C823 C822 1.398 . S
C823 C824 1.391 . S
C824 H812 0.950 . S
C824 C820 1.393 . S
C824 C823 1.391 . S
C825 H815 0.950 . S
C825 C826 1.386 . S
C825 C827 1.391 . S
C826 C825 1.386 . S
C826 C830 1.393 . S
C827 H816 0.950 . S
C827 C825 1.391 . S
C827 C828 1.400 . S
C828 C822 1.491 . S
C828 C827 1.400 . S
C828 C829 1.398 . S
C829 H817 0.950 . S
C829 C828 1.398 . S
C829 C830 1.391 . S
C830 H818 0.950 . S
C830 C826 1.393 . S
C830 C829 1.391 . S
H831 C839 0.950 . S
H832 C844 0.950 . S
H833 C841 0.950 . S
H834 C843 0.950 . S
H835 C845 0.950 . S
H836 C847 0.950 . S
H837 C849 0.950 . S
H838 C850 0.950 . S
C839 H831 0.950 . S
C839 C840 1.386 . S
C839 C841 1.391 . S
C840 C839 1.386 . S
C840 C844 1.393 . S
C841 H833 0.950 . S
C841 C839 1.391 . S
C841 C842 1.400 . S
C842 C841 1.400 . S
C842 C843 1.398 . S
C842 C848 1.491 . S
C843 H834 0.950 . S
C843 C842 1.398 . S
C843 C844 1.391 . S
C844 H832 0.950 . S
C844 C840 1.393 . S
C844 C843 1.391 . S
C845 H835 0.950 . S
C845 C846 1.386 . S
C845 C847 1.391 . S
C846 C845 1.386 . S
C846 C850 1.393 . S
C847 H836 0.950 . S
C847 C845 1.391 . S
C847 C848 1.400 . S
C848 C842 1.491 . S
C848 C847 1.400 . S
C848 C849 1.398 . S
C849 H837 0.950 . S
C849 C848 1.398 . S
C849 C850 1.391 . S
C850 H838 0.950 . S
C850 C846 1.393 . S
C850 C849 1.391 . S
H851 C859 0.950 . S
H852 C864 0.950 . S
H853 C861 0.950 . S
H854 C863 0.950 . S
H855 C865 0.950 . S
H856 C867 0.950 . S
H857 C869 0.950 . S
H858 C870 0.950 . S
C859 H851 0.950 . S
C859 C860 1.386 . S
C859 C861 1.391 . S
C860 C859 1.386 . S
C860 C864 1.393 . S
C861 H853 0.950 . S
C861 C859 1.391 . S
C861 C862 1.400 . S
C862 C861 1.400 . S
C862 C863 1.398 . S
C862 C868 1.491 . S
C863 H854 0.950 . S
C863 C862 1.398 . S
C863 C864 1.391 . S
C864 H852 0.950 . S
C864 C860 1.393 . S
C864 C863 1.391 . S
C865 H855 0.950 . S
C865 C866 1.386 . S
C865 C867 1.391 . S
C866 C865 1.386 . S
C866 C870 1.393 . S
C867 H856 0.950 . S
C867 C865 1.391 . S
C867 C868 1.400 . S
C868 C862 1.491 . S
C868 C867 1.400 . S
C868 C869 1.398 . S
C869 H857 0.950 . S
C869 C868 1.398 . S
C869 C870 1.391 . S
C870 H858 0.950 . S
C870 C866 1.393 . S
C870 C869 1.391 . S
H871 C879 0.950 . S
H872 C884 0.950 . S
H873 C881 0.950 . S
H874 C883 0.950 . S
H875 C885 0.950 . S
H876 C887 0.950 . S
H877 C889 0.950 . S
H878 C890 0.950 . S
C879 H871 0.950 . S
C879 C880 1.386 . S
C879 C881 1.391 . S
C880 C879 1.386 . S
C880 C884 1.393 . S
C881 H873 0.950 . S
C881 C879 1.391 . S
C881 C882 1.400 . S
C882 C881 1.400 . S
C882 C883 1.398 . S
C882 C888 1.491 . S
C883 H874 0.950 . S
C883 C882 1.398 . S
C883 C884 1.391 . S
C884 H872 0.950 . S
C884 C880 1.393 . S
C884 C883 1.391 . S
C885 H875 0.950 . S
C885 C886 1.386 . S
C885 C887 1.391 . S
C886 C885 1.386 . S
C886 C890 1.393 . S
C887 H876 0.950 . S
C887 C885 1.391 . S
C887 C888 1.400 . S
C888 C882 1.491 . S
C888 C887 1.400 . S
C888 C889 1.398 . S
C889 H877 0.950 . S
C889 C888 1.398 . S
C889 C890 1.391 . S
C890 H878 0.950 . S
C890 C886 1.393 . S
C890 C889 1.391 . S
H891 C899 0.950 . S
H892 C904 0.950 . S
H893 C901 0.950 . S
H894 C903 0.950 . S
H895 C905 0.950 . S
H896 C907 0.950 . S
H897 C909 0.950 . S
H898 C910 0.950 . S
C899 H891 0.950 . S
C899 C900 1.386 . S
C899 C901 1.391 . S
C900 C899 1.386 . S
C900 C904 1.393 . S
C901 H893 0.950 . S
C901 C899 1.391 . S
C901 C902 1.400 . S
C902 C901 1.400 . S
C902 C903 1.398 . S
C902 C908 1.491 1_565 S
C903 H894 0.950 . S
C903 C902 1.398 . S
C903 C904 1.391 . S
C904 H892 0.950 . S
C904 C900 1.393 . S
C904 C903 1.391 . S
C905 H895 0.950 . S
C905 C906 1.386 . S
C905 C907 1.391 . S
C906 C905 1.386 . S
C906 C910 1.393 . S
C907 H896 0.950 . S
C907 C905 1.391 . S
C907 C908 1.400 . S
C908 C902 1.491 1_545 S
C908 C907 1.400 . S
C908 C909 1.398 . S
C909 H897 0.950 . S
C909 C908 1.398 . S
C909 C910 1.391 . S
C910 H898 0.950 . S
C910 C906 1.393 . S
C910 C909 1.391 . S
H911 C919 0.950 . S
H912 C924 0.950 . S
H913 C921 0.950 . S
H914 C923 0.950 . S
H915 C925 0.950 . S
H916 C927 0.950 . S
H917 C929 0.950 . S
H918 C930 0.950 . S
C919 H911 0.950 . S
C919 C920 1.386 . S
C919 C921 1.391 . S
C920 C919 1.386 . S
C920 C924 1.393 . S
C921 H913 0.950 . S
C921 C919 1.391 . S
C921 C922 1.400 . S
C922 C921 1.400 . S
C922 C923 1.398 . S
C922 C928 1.491 1_455 S
C923 H914 0.950 . S
C923 C922 1.398 . S
C923 C924 1.391 . S
C924 H912 0.950 . S
C924 C920 1.393 . S
C924 C923 1.391 . S
C925 H915 0.950 . S
C925 C926 1.386 . S
C925 C927 1.391 . S
C926 C925 1.386 . S
C926 C930 1.393 . S
C927 H916 0.950 . S
C927 C925 1.391 . S
C927 C928 1.400 . S
C928 C922 1.491 1_655 S
C928 C927 1.400 . S
C928 C929 1.398 . S
C929 H917 0.950 . S
C929 C928 1.398 . S
C929 C930 1.391 . S
C930 H918 0.950 . S
C930 C926 1.393 . S
C930 C929 1.391 . S
H931 C939 0.950 . S
H932 C944 0.950 . S
H933 C941 0.950 . S
H934 C943 0.950 . S
H935 C945 0.950 . S
H936 C947 0.950 . S
H937 C949 0.950 . S
H938 C950 0.950 . S
C939 H931 0.950 . S
C939 C940 1.386 . S
C939 C941 1.391 . S
C940 C939 1.386 . S
C940 C944 1.393 . S
C941 H933 0.950 . S
C941 C939 1.391 . S
C941 C942 1.400 . S
C942 C941 1.400 . S
C942 C943 1.398 . S
C942 C948 1.491 . S
C943 H934 0.950 . S
C943 C942 1.398 . S
C943 C944 1.391 . S
C944 H932 0.950 . S
C944 C940 1.393 . S
C944 C943 1.391 . S
C945 H935 0.950 . S
C945 C946 1.386 . S
C945 C947 1.391 . S
C946 C945 1.386 . S
C946 C950 1.393 . S
C947 H936 0.950 . S
C947 C945 1.391 . S
C947 C948 1.400 . S
C948 C942 1.491 . S
C948 C947 1.400 . S
C948 C949 1.398 . S
C949 H937 0.950 . S
C949 C948 1.398 . S
C949 C950 1.391 . S
C950 H938 0.950 . S
C950 C946 1.393 . S
C950 C949 1.391 . S
H951 C959 0.950 . S
H952 C964 0.950 . S
H953 C961 0.950 . S
H954 C963 0.950 . S
H955 C965 0.950 . S
H956 C967 0.966 . S
H957 C969 0.950 . S
H958 C970 0.950 . S
C959 H951 0.950 . S
C959 C960 1.386 . S
C959 C961 1.391 . S
C960 C959 1.386 . S
C960 C964 1.393 . S
C961 H953 0.950 . S
C961 C959 1.391 . S
C961 C962 1.400 . S
C962 C961 1.400 . S
C962 C963 1.398 . S
C962 C968 1.491 1_455 S
C963 H954 0.950 . S
C963 C962 1.398 . S
C963 C964 1.391 . S
C964 H952 0.950 . S
C964 C960 1.393 . S
C964 C963 1.391 . S
C965 H955 0.950 . S
C965 C966 1.386 . S
C965 C967 1.391 . S
C966 C965 1.386 . S
C966 C970 1.393 . S
C967 H956 0.966 . S
C967 C965 1.391 . S
C967 C968 1.400 . S
C968 C962 1.491 1_655 S
C968 C967 1.400 . S
C968 C969 1.398 . S
C969 H957 0.950 . S
C969 C968 1.398 . S
C969 C970 1.391 . S
C970 H958 0.950 . S
C970 C966 1.393 . S
C970 C969 1.391 . S
H971 C979 0.950 . S
H972 C984 0.950 . S
H973 C981 0.950 . S
H974 C983 0.950 . S
H975 C985 0.950 . S
H976 C987 0.950 . S
H977 C989 0.950 . S
H978 C990 0.950 . S
C979 H971 0.950 . S
C979 C980 1.386 . S
C979 C981 1.391 . S
C980 C979 1.386 . S
C980 C984 1.393 . S
C981 H973 0.950 . S
C981 C979 1.391 . S
C981 C982 1.400 . S
C982 C981 1.400 . S
C982 C983 1.398 . S
C982 C988 1.491 . S
C983 H974 0.950 . S
C983 C982 1.398 . S
C983 C984 1.391 . S
C984 H972 0.950 . S
C984 C980 1.393 . S
C984 C983 1.391 . S
C985 H975 0.950 . S
C985 C986 1.386 . S
C985 C987 1.391 . S
C986 C985 1.386 . S
C986 C990 1.393 . S
C987 H976 0.950 . S
C987 C985 1.391 . S
C987 C988 1.400 . S
C988 C982 1.491 . S
C988 C987 1.400 . S
C988 C989 1.398 . S
C989 H977 0.950 . S
C989 C988 1.398 . S
C989 C990 1.391 . S
C990 H978 0.950 . S
C990 C986 1.393 . S
C990 C989 1.391 . S
H991 C999 0.950 . S
H992 C1004 0.950 . S
H993 C1001 0.950 . S
H994 C1003 0.950 . S
H995 C1005 0.950 . S
H996 C1007 0.950 . S
H997 C1009 0.950 . S
H998 C1010 0.950 . S
C999 H991 0.950 . S
C999 C1000 1.386 . S
C999 C1001 1.391 . S
C1000 C999 1.386 . S
C1000 C1004 1.393 . S
C1001 H993 0.950 . S
C1001 C999 1.391 . S
C1001 C1002 1.400 . S
C1002 C1001 1.400 . S
C1002 C1003 1.398 . S
C1002 C1008 1.491 1_565 S
C1003 H994 0.950 . S
C1003 C1002 1.398 . S
C1003 C1004 1.391 . S
C1004 H992 0.950 . S
C1004 C1000 1.393 . S
C1004 C1003 1.391 . S
C1005 H995 0.950 . S
C1005 C1006 1.386 . S
C1005 C1007 1.391 . S
C1006 C1005 1.386 . S
C1006 C1010 1.393 . S
C1007 H996 0.950 . S
C1007 C1005 1.391 . S
C1007 C1008 1.400 . S
C1008 C1002 1.491 1_545 S
C1008 C1007 1.400 . S
C1008 C1009 1.398 . S
C1009 H997 0.950 . S
C1009 C1008 1.398 . S
C1009 C1010 1.391 . S
C1010 H998 0.950 . S
C1010 C1006 1.393 . S
C1010 C1009 1.391 . S
H1011 C1019 0.950 . S
H1012 C1024 0.950 . S
H1013 C1021 0.950 . S
H1014 C1023 0.950 . S
H1015 C1025 0.950 . S
H1016 C1027 0.950 . S
H1017 C1029 0.950 . S
H1018 C1030 0.950 . S
C1019 H1011 0.950 . S
C1019 C1020 1.386 . S
C1019 C1021 1.391 . S
C1020 C1019 1.386 . S
C1020 C1024 1.393 . S
C1021 H1013 0.950 . S
C1021 C1019 1.391 . S
C1021 C1022 1.400 . S
C1022 C1021 1.400 . S
C1022 C1023 1.398 . S
C1022 C1028 1.491 . S
C1023 H1014 0.950 . S
C1023 C1022 1.398 . S
C1023 C1024 1.391 . S
C1024 H1012 0.950 . S
C1024 C1020 1.393 . S
C1024 C1023 1.391 . S
C1025 H1015 0.950 . S
C1025 C1026 1.386 . S
C1025 C1027 1.391 . S
C1026 C1025 1.386 . S
C1026 C1030 1.393 . S
C1027 H1016 0.950 . S
C1027 C1025 1.391 . S
C1027 C1028 1.400 . S
C1028 C1022 1.491 . S
C1028 C1027 1.400 . S
C1028 C1029 1.398 . S
C1029 H1017 0.950 . S
C1029 C1028 1.398 . S
C1029 C1030 1.391 . S
C1030 H1018 0.950 . S
C1030 C1026 1.393 . S
C1030 C1029 1.391 . S
H1031 C1039 0.950 . S
H1032 C1044 0.950 . S
H1033 C1041 0.950 . S
H1034 C1043 0.950 . S
H1035 C1045 0.950 . S
H1036 C1047 0.950 . S
H1037 C1049 0.950 . S
H1038 C1050 0.950 . S
C1039 H1031 0.950 . S
C1039 C1040 1.386 . S
C1039 C1041 1.391 . S
C1040 C1039 1.386 . S
C1040 C1044 1.393 . S
C1041 H1033 0.950 . S
C1041 C1039 1.391 . S
C1041 C1042 1.400 . S
C1042 C1041 1.400 . S
C1042 C1043 1.398 . S
C1042 C1048 1.491 . S
C1043 H1034 0.950 . S
C1043 C1042 1.398 . S
C1043 C1044 1.391 . S
C1044 H1032 0.950 . S
C1044 C1040 1.393 . S
C1044 C1043 1.391 . S
C1045 H1035 0.950 . S
C1045 C1046 1.386 . S
C1045 C1047 1.391 . S
C1046 C1045 1.386 . S
C1046 C1050 1.393 . S
C1047 H1036 0.950 . S
C1047 C1045 1.391 . S
C1047 C1048 1.400 . S
C1048 C1042 1.491 . S
C1048 C1047 1.400 . S
C1048 C1049 1.398 . S
C1049 H1037 0.950 . S
C1049 C1048 1.398 . S
C1049 C1050 1.391 . S
C1050 H1038 0.950 . S
C1050 C1046 1.393 . S
C1050 C1049 1.391 . S
H1051 C1059 0.950 . S
H1052 C1064 0.950 . S
H1053 C1061 0.950 . S
H1054 C1063 0.950 . S
H1055 C1065 0.950 . S
H1056 C1067 0.950 . S
H1057 C1069 0.950 . S
H1058 C1070 0.950 . S
C1059 H1051 0.950 . S
C1059 C1060 1.386 . S
C1059 C1061 1.391 . S
C1060 C1059 1.386 . S
C1060 C1064 1.393 . S
C1061 H1053 0.950 . S
C1061 C1059 1.391 . S
C1061 C1062 1.400 . S
C1062 C1061 1.400 . S
C1062 C1063 1.398 . S
C1062 C1068 1.491 . S
C1063 H1054 0.950 . S
C1063 C1062 1.398 . S
C1063 C1064 1.391 . S
C1064 H1052 0.950 . S
C1064 C1060 1.393 . S
C1064 C1063 1.391 . S
C1065 H1055 0.950 . S
C1065 C1066 1.386 . S
C1065 C1067 1.391 . S
C1066 C1065 1.386 . S
C1066 C1070 1.393 . S
C1067 H1056 0.950 . S
C1067 C1065 1.391 . S
C1067 C1068 1.400 . S
C1068 C1062 1.491 . S
C1068 C1067 1.400 . S
C1068 C1069 1.398 . S
C1069 H1057 0.950 . S
C1069 C1068 1.398 . S
C1069 C1070 1.391 . S
C1070 H1058 0.950 . S
C1070 C1066 1.393 . S
C1070 C1069 1.391 . S
H1071 C1079 0.950 . S
H1072 C1084 0.950 . S
H1073 C1081 0.950 . S
H1074 C1083 0.950 . S
H1075 C1085 0.950 . S
H1076 C1087 0.950 . S
H1077 C1089 0.950 . S
H1078 C1090 0.950 . S
C1079 H1071 0.950 . S
C1079 C1080 1.386 . S
C1079 C1081 1.391 . S
C1080 C1079 1.386 . S
C1080 C1084 1.393 . S
C1081 H1073 0.950 . S
C1081 C1079 1.391 . S
C1081 C1082 1.400 . S
C1082 C1081 1.400 . S
C1082 C1083 1.398 . S
C1082 C1088 1.491 . S
C1083 H1074 0.950 . S
C1083 C1082 1.398 . S
C1083 C1084 1.391 . S
C1084 H1072 0.950 . S
C1084 C1080 1.393 . S
C1084 C1083 1.391 . S
C1085 H1075 0.950 . S
C1085 C1086 1.386 . S
C1085 C1087 1.391 . S
C1086 C1085 1.386 . S
C1086 C1090 1.393 . S
C1087 H1076 0.950 . S
C1087 C1085 1.391 . S
C1087 C1088 1.400 . S
C1088 C1082 1.491 . S
C1088 C1087 1.400 . S
C1088 C1089 1.398 . S
C1089 H1077 0.950 . S
C1089 C1088 1.398 . S
C1089 C1090 1.391 . S
C1090 H1078 0.950 . S
C1090 C1086 1.393 . S
C1090 C1089 1.391 . S
H1091 C1099 0.950 . S
H1092 C1104 0.950 . S
H1093 C1101 0.950 1_655 S
H1094 C1103 0.950 . S
H1095 C1105 0.950 . S
H1096 C1107 0.950 . S
H1097 C1109 0.950 . S
H1098 C1110 0.950 . S
C1099 H1091 0.950 . S
C1099 C1100 1.386 . S
C1099 C1101 1.391 . S
C1100 C1099 1.386 . S
C1100 C1104 1.393 . S
C1101 H1093 0.950 1_455 S
C1101 C1099 1.391 . S
C1101 C1102 1.400 . S
C1102 C1101 1.400 . S
C1102 C1103 1.398 . S
C1102 C1108 1.491 . S
C1103 H1094 0.950 . S
C1103 C1102 1.398 . S
C1103 C1104 1.391 . S
C1104 H1092 0.950 . S
C1104 C1100 1.393 . S
C1104 C1103 1.391 . S
C1105 H1095 0.950 . S
C1105 C1106 1.386 . S
C1105 C1107 1.391 . S
C1106 C1105 1.386 . S
C1106 C1110 1.393 1_455 S
C1107 H1096 0.950 . S
C1107 C1105 1.391 . S
C1107 C1108 1.400 . S
C1108 C1102 1.491 . S
C1108 C1107 1.400 . S
C1108 C1109 1.398 1_455 S
C1109 H1097 0.950 . S
C1109 C1108 1.398 1_655 S
C1109 C1110 1.391 . S
C1110 H1098 0.950 . S
C1110 C1106 1.393 1_655 S
C1110 C1109 1.391 . S
H1111 C1119 0.950 . S
H1112 C1124 0.950 . S
H1113 C1121 0.950 . S
H1114 C1123 0.950 . S
H1115 C1125 0.950 . S
H1116 C1127 0.950 . S
H1117 C1129 0.950 . S
H1118 C1130 0.950 . S
C1119 H1111 0.950 . S
C1119 C1120 1.386 . S
C1119 C1121 1.391 . S
C1120 C1119 1.386 . S
C1120 C1124 1.393 . S
C1121 H1113 0.950 . S
C1121 C1119 1.391 . S
C1121 C1122 1.400 . S
C1122 C1121 1.400 . S
C1122 C1123 1.398 . S
C1122 C1128 1.491 . S
C1123 H1114 0.950 . S
C1123 C1122 1.398 . S
C1123 C1124 1.391 . S
C1124 H1112 0.950 . S
C1124 C1120 1.393 . S
C1124 C1123 1.391 . S
C1125 H1115 0.950 . S
C1125 C1126 1.386 . S
C1125 C1127 1.391 . S
C1126 C1125 1.386 . S
C1126 C1130 1.393 . S
C1127 H1116 0.950 . S
C1127 C1125 1.391 . S
C1127 C1128 1.400 . S
C1128 C1122 1.491 . S
C1128 C1127 1.400 . S
C1128 C1129 1.398 . S
C1129 H1117 0.950 . S
C1129 C1128 1.398 . S
C1129 C1130 1.391 . S
C1130 H1118 0.950 . S
C1130 C1126 1.393 . S
C1130 C1129 1.391 . S
H1131 C1139 0.950 . S
H1132 C1144 0.950 . S
H1133 C1141 0.950 . S
H1134 C1143 0.950 1_455 S
H1135 C1145 0.950 . S
H1136 C1147 0.950 . S
H1137 C1149 0.950 . S
H1138 C1150 0.950 . S
C1139 H1131 0.950 . S
C1139 C1140 1.386 . S
C1139 C1141 1.391 . S
C1140 C1139 1.386 . S
C1140 C1144 1.393 . S
C1141 H1133 0.950 . S
C1141 C1139 1.391 . S
C1141 C1142 1.400 . S
C1142 C1141 1.400 . S
C1142 C1143 1.398 . S
C1142 C1148 1.491 . S
C1143 H1134 0.950 1_655 S
C1143 C1142 1.398 . S
C1143 C1144 1.391 . S
C1144 H1132 0.950 . S
C1144 C1140 1.393 . S
C1144 C1143 1.391 . S
C1145 H1135 0.950 . S
C1145 C1146 1.386 1_455 S
C1145 C1147 1.391 . S
C1146 C1145 1.386 1_655 S
C1146 C1150 1.393 . S
C1147 H1136 0.950 . S
C1147 C1145 1.391 . S
C1147 C1148 1.400 1_455 S
C1148 C1142 1.491 . S
C1148 C1147 1.400 1_655 S
C1148 C1149 1.398 . S
C1149 H1137 0.950 . S
C1149 C1148 1.398 . S
C1149 C1150 1.391 . S
C1150 H1138 0.950 . S
C1150 C1146 1.393 . S
C1150 C1149 1.391 . S
H1151 C1159 0.950 . S
H1152 C1164 0.950 . S
H1153 C1161 0.950 . S
H1154 C1163 0.950 . S
H1155 C1165 0.950 . S
H1156 C1167 0.950 . S
H1157 C1169 0.950 . S
H1158 C1170 0.950 . S
C1159 H1151 0.950 . S
C1159 C1160 1.386 . S
C1159 C1161 1.391 . S
C1160 C1159 1.386 . S
C1160 C1164 1.393 . S
C1161 H1153 0.950 . S
C1161 C1159 1.391 . S
C1161 C1162 1.400 . S
C1162 C1161 1.400 . S
C1162 C1163 1.398 . S
C1162 C1168 1.491 . S
C1163 H1154 0.950 . S
C1163 C1162 1.398 . S
C1163 C1164 1.391 . S
C1164 H1152 0.950 . S
C1164 C1160 1.393 . S
C1164 C1163 1.391 . S
C1165 H1155 0.950 . S
C1165 C1166 1.386 . S
C1165 C1167 1.391 . S
C1166 C1165 1.386 . S
C1166 C1170 1.393 . S
C1167 H1156 0.950 . S
C1167 C1165 1.391 . S
C1167 C1168 1.400 . S
C1168 C1162 1.491 . S
C1168 C1167 1.400 . S
C1168 C1169 1.398 . S
C1169 H1157 0.950 . S
C1169 C1168 1.398 . S
C1169 C1170 1.391 . S
C1170 H1158 0.950 . S
C1170 C1166 1.393 . S
C1170 C1169 1.391 . S
H1171 C1179 0.950 . S
H1172 C1184 0.950 . S
H1173 C1181 0.950 . S
H1174 C1183 0.950 1_565 S
H1175 C1185 0.950 . S
H1176 C1187 0.950 . S
H1177 C1189 0.950 . S
H1178 C1190 0.950 . S
C1179 H1171 0.950 . S
C1179 C1180 1.386 . S
C1179 C1181 1.391 . S
C1180 C1179 1.386 . S
C1180 C1184 1.393 . S
C1181 H1173 0.950 . S
C1181 C1179 1.391 . S
C1181 C1182 1.400 . S
C1182 C1181 1.400 . S
C1182 C1183 1.398 . S
C1182 C1188 1.491 . S
C1183 H1174 0.950 1_545 S
C1183 C1182 1.398 . S
C1183 C1184 1.391 . S
C1184 H1172 0.950 . S
C1184 C1180 1.393 . S
C1184 C1183 1.391 . S
C1185 H1175 0.950 . S
C1185 C1186 1.386 1_565 S
C1185 C1187 1.391 . S
C1186 C1185 1.386 1_545 S
C1186 C1190 1.393 . S
C1187 H1176 0.950 . S
C1187 C1185 1.391 . S
C1187 C1188 1.400 1_565 S
C1188 C1182 1.491 . S
C1188 C1187 1.400 1_545 S
C1188 C1189 1.398 . S
C1189 H1177 0.950 . S
C1189 C1188 1.398 . S
C1189 C1190 1.391 . S
C1190 H1178 0.950 . S
C1190 C1186 1.393 . S
C1190 C1189 1.391 . S
H1191 C1199 0.950 . S
H1192 C1204 0.950 . S
H1193 C1201 0.950 . S
H1194 C1203 0.950 . S
H1195 C1205 0.950 . S
H1196 C1207 0.950 . S
H1197 C1209 0.950 . S
H1198 C1210 0.950 . S
C1199 H1191 0.950 . S
C1199 C1200 1.386 . S
C1199 C1201 1.391 . S
C1200 C1199 1.386 . S
C1200 C1204 1.393 . S
C1201 H1193 0.950 . S
C1201 C1199 1.391 . S
C1201 C1202 1.400 . S
C1202 C1201 1.400 . S
C1202 C1203 1.398 . S
C1202 C1208 1.491 . S
C1203 H1194 0.950 . S
C1203 C1202 1.398 . S
C1203 C1204 1.391 . S
C1204 H1192 0.950 . S
C1204 C1200 1.393 . S
C1204 C1203 1.391 . S
C1205 H1195 0.950 . S
C1205 C1206 1.386 . S
C1205 C1207 1.391 . S
C1206 C1205 1.386 . S
C1206 C1210 1.393 . S
C1207 H1196 0.950 . S
C1207 C1205 1.391 . S
C1207 C1208 1.400 . S
C1208 C1202 1.491 . S
C1208 C1207 1.400 . S
C1208 C1209 1.398 . S
C1209 H1197 0.950 . S
C1209 C1208 1.398 . S
C1209 C1210 1.391 . S
C1210 H1198 0.950 . S
C1210 C1206 1.393 . S
C1210 C1209 1.391 . S
H1211 C1219 0.950 . S
H1212 C1224 0.950 . S
H1213 C1221 0.950 . S
H1214 C1223 0.950 . S
H1215 C1225 0.950 . S
H1216 C1227 0.950 . S
H1217 C1229 0.950 . S
H1218 C1230 0.950 . S
C1219 H1211 0.950 . S
C1219 C1220 1.386 . S
C1219 C1221 1.391 . S
C1220 C1219 1.386 . S
C1220 C1224 1.393 . S
C1221 H1213 0.950 . S
C1221 C1219 1.391 . S
C1221 C1222 1.400 . S
C1222 C1221 1.400 . S
C1222 C1223 1.398 . S
C1222 C1228 1.491 . S
C1223 H1214 0.950 . S
C1223 C1222 1.398 . S
C1223 C1224 1.391 . S
C1224 H1212 0.950 . S
C1224 C1220 1.393 . S
C1224 C1223 1.391 . S
C1225 H1215 0.950 . S
C1225 C1226 1.386 . S
C1225 C1227 1.391 . S
C1226 C1225 1.386 . S
C1226 C1230 1.393 . S
C1227 H1216 0.950 . S
C1227 C1225 1.391 . S
C1227 C1228 1.400 . S
C1228 C1222 1.491 . S
C1228 C1227 1.400 . S
C1228 C1229 1.398 . S
C1229 H1217 0.950 . S
C1229 C1228 1.398 . S
C1229 C1230 1.391 . S
C1230 H1218 0.950 . S
C1230 C1226 1.393 . S
C1230 C1229 1.391 . S
H1231 C1239 0.950 . S
H1232 C1244 0.950 . S
H1233 C1241 0.950 . S
H1234 C1243 0.950 . S
H1235 C1245 0.950 . S
H1236 C1247 0.950 . S
H1237 C1249 0.950 . S
H1238 C1250 0.950 . S
C1239 H1231 0.950 . S
C1239 C1240 1.386 . S
C1239 C1241 1.391 . S
C1240 C1239 1.386 . S
C1240 C1244 1.393 . S
C1241 H1233 0.950 . S
C1241 C1239 1.391 . S
C1241 C1242 1.400 . S
C1242 C1241 1.400 . S
C1242 C1243 1.398 . S
C1242 C1248 1.491 . S
C1243 H1234 0.950 . S
C1243 C1242 1.398 . S
C1243 C1244 1.391 . S
C1244 H1232 0.950 . S
C1244 C1240 1.393 . S
C1244 C1243 1.391 . S
C1245 H1235 0.950 . S
C1245 C1246 1.386 . S
C1245 C1247 1.391 . S
C1246 C1245 1.386 . S
C1246 C1250 1.393 . S
C1247 H1236 0.950 . S
C1247 C1245 1.391 . S
C1247 C1248 1.400 . S
C1248 C1242 1.491 . S
C1248 C1247 1.400 . S
C1248 C1249 1.398 . S
C1249 H1237 0.950 . S
C1249 C1248 1.398 . S
C1249 C1250 1.391 . S
C1250 H1238 0.950 . S
C1250 C1246 1.393 . S
C1250 C1249 1.391 . S
H1251 C1259 0.950 . S
H1252 C1264 0.950 . S
H1253 C1261 0.950 . S
H1254 C1263 0.950 . S
H1255 C1265 0.950 . S
H1256 C1267 0.950 . S
H1257 C1269 0.950 . S
H1258 C1270 0.950 . S
C1259 H1251 0.950 . S
C1259 C1260 1.386 . S
C1259 C1261 1.391 . S
C1260 C1259 1.386 . S
C1260 C1264 1.393 . S
C1261 H1253 0.950 . S
C1261 C1259 1.391 . S
C1261 C1262 1.400 . S
C1262 C1261 1.400 . S
C1262 C1263 1.398 . S
C1262 C1268 1.491 . S
C1263 H1254 0.950 . S
C1263 C1262 1.398 . S
C1263 C1264 1.391 . S
C1264 H1252 0.950 . S
C1264 C1260 1.393 . S
C1264 C1263 1.391 . S
C1265 H1255 0.950 . S
C1265 C1266 1.386 . S
C1265 C1267 1.391 . S
C1266 C1265 1.386 . S
C1266 C1270 1.393 . S
C1267 H1256 0.950 . S
C1267 C1265 1.391 . S
C1267 C1268 1.400 . S
C1268 C1262 1.491 . S
C1268 C1267 1.400 . S
C1268 C1269 1.398 . S
C1269 H1257 0.950 . S
C1269 C1268 1.398 . S
C1269 C1270 1.391 . S
C1270 H1258 0.950 . S
C1270 C1266 1.393 . S
C1270 C1269 1.391 . S
H1271 C1279 0.950 . S
H1272 C1284 0.950 . S
H1273 C1281 0.950 . S
H1274 C1283 0.950 . S
H1275 C1285 0.950 . S
H1276 C1287 0.950 . S
H1277 C1289 0.950 . S
H1278 C1290 0.950 . S
C1279 H1271 0.950 . S
C1279 C1280 1.386 . S
C1279 C1281 1.391 . S
C1280 C1279 1.386 . S
C1280 C1284 1.393 . S
C1281 H1273 0.950 . S
C1281 C1279 1.391 . S
C1281 C1282 1.400 . S
C1282 C1281 1.400 . S
C1282 C1283 1.398 . S
C1282 C1288 1.491 . S
C1283 H1274 0.950 . S
C1283 C1282 1.398 . S
C1283 C1284 1.391 . S
C1284 H1272 0.950 . S
C1284 C1280 1.393 . S
C1284 C1283 1.391 . S
C1285 H1275 0.950 . S
C1285 C1286 1.386 . S
C1285 C1287 1.391 . S
C1286 C1285 1.386 . S
C1286 C1290 1.393 . S
C1287 H1276 0.950 . S
C1287 C1285 1.391 . S
C1287 C1288 1.400 . S
C1288 C1282 1.491 . S
C1288 C1287 1.400 . S
C1288 C1289 1.398 . S
C1289 H1277 0.950 . S
C1289 C1288 1.398 . S
C1289 C1290 1.391 . S
C1290 H1278 0.950 . S
C1290 C1286 1.393 . S
C1290 C1289 1.391 . S
H1291 C1299 0.950 . S
H1292 C1304 0.950 . S
H1293 C1301 0.950 . S
H1294 C1303 0.950 . S
H1295 C1305 0.950 . S
H1296 C1307 0.950 . S
H1297 C1309 0.950 . S
H1298 C1310 0.950 . S
C1299 H1291 0.950 . S
C1299 C1300 1.386 . S
C1299 C1301 1.391 . S
C1300 C1299 1.386 . S
C1300 C1304 1.393 . S
C1301 H1293 0.950 . S
C1301 C1299 1.391 . S
C1301 C1302 1.400 . S
C1302 C1301 1.400 . S
C1302 C1303 1.398 . S
C1302 C1308 1.491 . S
C1303 H1294 0.950 . S
C1303 C1302 1.398 . S
C1303 C1304 1.391 . S
C1304 H1292 0.950 . S
C1304 C1300 1.393 . S
C1304 C1303 1.391 . S
C1305 H1295 0.950 . S
C1305 C1306 1.386 . S
C1305 C1307 1.391 . S
C1306 C1305 1.386 . S
C1306 C1310 1.393 . S
C1307 H1296 0.950 . S
C1307 C1305 1.391 . S
C1307 C1308 1.400 . S
C1308 C1302 1.491 . S
C1308 C1307 1.400 . S
C1308 C1309 1.398 . S
C1309 H1297 0.950 . S
C1309 C1308 1.398 . S
C1309 C1310 1.391 . S
C1310 H1298 0.950 . S
C1310 C1306 1.393 . S
C1310 C1309 1.391 . S
H1311 C1319 0.950 . S
H1312 C1324 0.950 . S
H1313 C1321 0.950 . S
H1314 C1323 0.950 . S
H1315 C1325 0.950 . S
H1316 C1327 0.950 . S
H1317 C1329 0.950 . S
H1318 C1330 0.950 . S
C1319 H1311 0.950 . S
C1319 C1320 1.386 . S
C1319 C1321 1.391 . S
C1320 C1319 1.386 . S
C1320 C1324 1.393 . S
C1321 H1313 0.950 . S
C1321 C1319 1.391 . S
C1321 C1322 1.400 . S
C1322 C1321 1.400 . S
C1322 C1323 1.398 . S
C1322 C1328 1.491 . S
C1323 H1314 0.950 . S
C1323 C1322 1.398 . S
C1323 C1324 1.391 . S
C1324 H1312 0.950 . S
C1324 C1320 1.393 . S
C1324 C1323 1.391 . S
C1325 H1315 0.950 . S
C1325 C1326 1.386 . S
C1325 C1327 1.391 . S
C1326 C1325 1.386 . S
C1326 C1330 1.393 . S
C1327 H1316 0.950 . S
C1327 C1325 1.391 . S
C1327 C1328 1.400 . S
C1328 C1322 1.491 . S
C1328 C1327 1.400 . S
C1328 C1329 1.398 . S
C1329 H1317 0.950 . S
C1329 C1328 1.398 . S
C1329 C1330 1.391 . S
C1330 H1318 0.950 . S
C1330 C1326 1.393 . S
C1330 C1329 1.391 . S
H1331 C1339 0.950 . S
H1332 C1344 0.950 . S
H1333 C1341 0.950 . S
H1334 C1343 0.950 . S
H1335 C1345 0.950 . S
H1336 C1347 0.950 . S
H1337 C1349 0.950 . S
H1338 C1350 0.950 . S
C1339 H1331 0.950 . S
C1339 C1340 1.386 . S
C1339 C1341 1.391 . S
C1340 C1339 1.386 . S
C1340 C1344 1.393 . S
C1341 H1333 0.950 . S
C1341 C1339 1.391 . S
C1341 C1342 1.400 . S
C1342 C1341 1.400 . S
C1342 C1343 1.398 . S
C1342 C1348 1.491 . S
C1343 H1334 0.950 . S
C1343 C1342 1.398 . S
C1343 C1344 1.391 . S
C1344 H1332 0.950 . S
C1344 C1340 1.393 . S
C1344 C1343 1.391 . S
C1345 H1335 0.950 . S
C1345 C1346 1.386 . S
C1345 C1347 1.391 . S
C1346 C1345 1.386 . S
C1346 C1350 1.393 . S
C1347 H1336 0.950 . S
C1347 C1345 1.391 . S
C1347 C1348 1.400 . S
C1348 C1342 1.491 . S
C1348 C1347 1.400 . S
C1348 C1349 1.398 . S
C1349 H1337 0.950 . S
C1349 C1348 1.398 . S
C1349 C1350 1.391 . S
C1350 H1338 0.950 . S
C1350 C1346 1.393 . S
C1350 C1349 1.391 . S
H1351 C1359 0.950 . S
H1352 C1364 0.950 . S
H1353 C1361 0.950 . S
H1354 C1363 0.950 . S
H1355 C1365 0.950 . S
H1356 C1367 0.950 . S
H1357 C1369 0.950 . S
H1358 C1370 0.950 . S
C1359 H1351 0.950 . S
C1359 C1360 1.386 . S
C1359 C1361 1.391 . S
C1360 C1359 1.386 . S
C1360 C1364 1.393 . S
C1361 H1353 0.950 . S
C1361 C1359 1.391 . S
C1361 C1362 1.400 . S
C1362 C1361 1.400 . S
C1362 C1363 1.398 . S
C1362 C1368 1.491 . S
C1363 H1354 0.950 . S
C1363 C1362 1.398 . S
C1363 C1364 1.391 . S
C1364 H1352 0.950 . S
C1364 C1360 1.393 . S
C1364 C1363 1.391 . S
C1365 H1355 0.950 . S
C1365 C1366 1.386 . S
C1365 C1367 1.391 . S
C1366 C1365 1.386 . S
C1366 C1370 1.393 . S
C1367 H1356 0.950 . S
C1367 C1365 1.391 . S
C1367 C1368 1.400 . S
C1368 C1362 1.491 . S
C1368 C1367 1.400 . S
C1368 C1369 1.398 . S
C1369 H1357 0.950 . S
C1369 C1368 1.398 . S
C1369 C1370 1.391 . S
C1370 H1358 0.950 . S
C1370 C1366 1.393 . S
C1370 C1369 1.391 . S
H1371 C1379 0.950 . S
H1372 C1384 0.950 . S
H1373 C1381 0.950 . S
H1374 C1383 0.950 . S
H1375 C1385 0.950 . S
H1376 C1387 0.950 . S
H1377 C1389 0.950 . S
H1378 C1390 0.950 . S
C1379 H1371 0.950 . S
C1379 C1380 1.386 . S
C1379 C1381 1.391 . S
C1380 C1379 1.386 . S
C1380 C1384 1.393 . S
C1381 H1373 0.950 . S
C1381 C1379 1.391 . S
C1381 C1382 1.400 . S
C1382 C1381 1.400 . S
C1382 C1383 1.398 . S
C1382 C1388 1.491 . S
C1383 H1374 0.950 . S
C1383 C1382 1.398 . S
C1383 C1384 1.391 . S
C1384 H1372 0.950 . S
C1384 C1380 1.393 . S
C1384 C1383 1.391 . S
C1385 H1375 0.950 . S
C1385 C1386 1.386 . S
C1385 C1387 1.391 . S
C1386 C1385 1.386 . S
C1386 C1390 1.393 . S
C1387 H1376 0.950 . S
C1387 C1385 1.391 . S
C1387 C1388 1.400 . S
C1388 C1382 1.491 . S
C1388 C1387 1.400 . S
C1388 C1389 1.398 . S
C1389 H1377 0.950 . S
C1389 C1388 1.398 . S
C1389 C1390 1.391 . S
C1390 H1378 0.950 . S
C1390 C1386 1.393 . S
C1390 C1389 1.391 . S
H1391 C1399 0.950 . S
H1392 C1404 0.950 . S
H1393 C1401 0.950 . S
H1394 C1403 0.950 . S
H1395 C1405 0.950 . S
H1396 C1407 0.950 . S
H1397 C1409 0.950 . S
H1398 C1410 0.950 . S
C1399 H1391 0.950 . S
C1399 C1400 1.386 . S
C1399 C1401 1.391 . S
C1400 C1399 1.386 . S
C1400 C1404 1.393 . S
C1401 H1393 0.950 . S
C1401 C1399 1.391 . S
C1401 C1402 1.400 . S
C1402 C1401 1.400 . S
C1402 C1403 1.398 . S
C1402 C1408 1.491 . S
C1403 H1394 0.950 . S
C1403 C1402 1.398 . S
C1403 C1404 1.391 . S
C1404 H1392 0.950 . S
C1404 C1400 1.393 . S
C1404 C1403 1.391 . S
C1405 H1395 0.950 . S
C1405 C1406 1.386 . S
C1405 C1407 1.391 . S
C1406 C1405 1.386 . S
C1406 C1410 1.393 . S
C1407 H1396 0.950 . S
C1407 C1405 1.391 . S
C1407 C1408 1.400 . S
C1408 C1402 1.491 . S
C1408 C1407 1.400 . S
C1408 C1409 1.398 . S
C1409 H1397 0.950 . S
C1409 C1408 1.398 . S
C1409 C1410 1.391 . S
C1410 H1398 0.950 . S
C1410 C1406 1.393 . S
C1410 C1409 1.391 . S
H1411 C1419 0.950 . S
H1412 C1424 0.950 . S
H1413 C1421 0.950 . S
H1414 C1423 0.950 . S
H1415 C1425 0.950 . S
H1416 C1427 0.950 . S
H1417 C1429 0.950 . S
H1418 C1430 0.950 . S
C1419 H1411 0.950 . S
C1419 C1420 1.386 . S
C1419 C1421 1.391 . S
C1420 C1419 1.386 . S
C1420 C1424 1.393 . S
C1421 H1413 0.950 . S
C1421 C1419 1.391 . S
C1421 C1422 1.400 . S
C1422 C1421 1.400 . S
C1422 C1423 1.398 . S
C1422 C1428 1.491 . S
C1423 H1414 0.950 . S
C1423 C1422 1.398 . S
C1423 C1424 1.391 . S
C1424 H1412 0.950 . S
C1424 C1420 1.393 . S
C1424 C1423 1.391 . S
C1425 H1415 0.950 . S
C1425 C1426 1.386 . S
C1425 C1427 1.391 . S
C1426 C1425 1.386 . S
C1426 C1430 1.393 . S
C1427 H1416 0.950 . S
C1427 C1425 1.391 . S
C1427 C1428 1.400 . S
C1428 C1422 1.491 . S
C1428 C1427 1.400 . S
C1428 C1429 1.398 . S
C1429 H1417 0.950 . S
C1429 C1428 1.398 . S
C1429 C1430 1.391 . S
C1430 H1418 0.950 . S
C1430 C1426 1.393 . S
C1430 C1429 1.391 . S
C360 C124 1.388 . S
C366 C176 1.299 . S
C380 C130 1.405 . S
C386 C197 1.344 . S
C400 C115 1.338 . S
C406 C217 1.170 . S
C420 C106 1.356 . S
C426 C196 1.180 . S
C446 C218 1.349 . S
C440 C85 1.427 . S
C460 C97 1.348 . S
C466 C175 1.188 . S
C486 C177 1.303 . S
C480 C103 1.384 . S
C506 C198 1.274 . S
C500 C88 1.326 . S
C520 C94 1.392 . S
C526 C220 1.170 1_556 S
C540 C121 1.359 . S
C546 C199 1.172 . S
C560 C133 1.318 . S
C566 C219 1.258 . S
C586 C178 1.196 1_554 S
C580 C112 1.406 . S
C606 C239 1.322 . S
C600 C16 1.390 . S
C620 C22 1.409 . S
C626 C260 1.325 . S
C640 C7 1.339 . S
C646 C280 1.173 . S
C660 C160 1.347 . S
C666 C259 1.146 . S
C680 C139 1.426 . S
C686 C281 1.355 . S
C700 C151 1.342 . S
C706 C238 1.173 . S
C720 C157 1.384 . S
C726 C240 1.303 . S
C740 C142 1.320 . S
C746 C261 1.263 . S
C766 C283 1.201 . S
C760 C148 1.400 . S
C780 C13 1.360 . S
C786 C262 1.161 . S
C806 C282 1.264 . S
C800 C25 1.320 . S
C820 C4 1.407 . S
C826 C241 1.208 . S
C846 C302 1.293 . S
C840 C70 1.380 . S
C860 C76 1.409 . S
C866 C323 1.323 . S
C886 C343 1.164 . S
C880 C61 1.337 . S
C906 C322 1.165 . S
C900 C52 1.352 . S
C926 C344 1.353 . S
C920 C31 1.426 . S
C940 C43 1.333 . S
C946 C301 1.136 . S
C960 C49 1.382 . S
C966 C303 1.308 . S
C980 C34 1.335 . S
C986 C324 1.248 . S
C1006 C346 1.190 . S
C1000 C40 1.396 . S
C1020 C67 1.363 . S
C1026 C325 1.166 . S
C1040 C79 1.325 . S
C1046 C345 1.270 . S
C1060 C58 1.409 . S
C1066 C304 1.214 . S
C1080 C140 1.424 . S
C1086 C180 1.371 1_565 S
C1106 C201 1.383 . S
C1100 C149 1.439 . S
C1120 C158 1.488 . S
C1126 C221 1.468 . S
C1140 C59 1.537 . S
C1146 C200 1.491 1_655 S
C1160 C68 1.467 . S
C1166 C222 1.423 . S
C1186 C179 1.462 . S
C1180 C77 1.499 . S
C1200 C32 1.423 . S
C1206 C243 1.366 . S
C1220 C41 1.441 . S
C1226 C264 1.387 . S
C1240 C50 1.490 . S
C1246 C284 1.470 . S
C1260 C113 1.535 . S
C1266 C263 1.510 . S
C1286 C285 1.406 . S
C1280 C122 1.467 . S
C1300 C131 1.495 . S
C1306 C242 1.465 . S
C1320 C86 1.423 . S
C1326 C306 1.384 . S
C1340 C95 1.439 . S
C1346 C327 1.406 . S
C1366 C347 1.451 . S
C1360 C104 1.486 . S
C1380 C5 1.539 . S
C1386 C326 1.514 . S
C1400 C14 1.468 . S
C1406 C348 1.415 . S
C1420 C23 1.503 . S
C1426 C305 1.474 . S
