# Generated by pormake.
# Topology anh, (6,3)-cn, num edge types: 1
# Building blocks:
#     Node 0, Type 0, BuildingBlock: MIFKUJ_clean_sbu_0, # of connection points: 6
#     Node 1, Type 0, BuildingBlock: MIFKUJ_clean_sbu_0, # of connection points: 6
#     Node 2, Type 0, BuildingBlock: MIFKUJ_clean_sbu_0, # of connection points: 6
#     Node 3, Type 1, BuildingBlock: BELTOD_clean_linker_0, # of connection points: 3
#     Node 4, Type 1, BuildingBlock: BELTOD_clean_linker_0, # of connection points: 3
#     Node 5, Type 1, BuildingBlock: BELTOD_clean_linker_0, # of connection points: 3
#     Node 6, Type 1, BuildingBlock: BELTOD_clean_linker_0, # of connection points: 3
#     Node 7, Type 1, BuildingBlock: BELTOD_clean_linker_0, # of connection points: 3
#     Node 8, Type 1, BuildingBlock: BELTOD_clean_linker_0, # of connection points: 3
#     Edge 9, Type (0, 1), BuildingBlock: CIFDUS_clean_linker_0, # of connection points: 2
#     Edge 10, Type (0, 1), BuildingBlock: CIFDUS_clean_linker_0, # of connection points: 2
#     Edge 11, Type (0, 1), BuildingBlock: CIFDUS_clean_linker_0, # of connection points: 2
#     Edge 12, Type (0, 1), BuildingBlock: CIFDUS_clean_linker_0, # of connection points: 2
#     Edge 13, Type (0, 1), BuildingBlock: CIFDUS_clean_linker_0, # of connection points: 2
#     Edge 14, Type (0, 1), BuildingBlock: CIFDUS_clean_linker_0, # of connection points: 2
#     Edge 15, Type (0, 1), BuildingBlock: CIFDUS_clean_linker_0, # of connection points: 2
#     Edge 16, Type (0, 1), BuildingBlock: CIFDUS_clean_linker_0, # of connection points: 2
#     Edge 17, Type (0, 1), BuildingBlock: CIFDUS_clean_linker_0, # of connection points: 2
#     Edge 18, Type (0, 1), BuildingBlock: CIFDUS_clean_linker_0, # of connection points: 2
#     Edge 19, Type (0, 1), BuildingBlock: CIFDUS_clean_linker_0, # of connection points: 2
#     Edge 20, Type (0, 1), BuildingBlock: CIFDUS_clean_linker_0, # of connection points: 2
#     Edge 21, Type (0, 1), BuildingBlock: CIFDUS_clean_linker_0, # of connection points: 2
#     Edge 22, Type (0, 1), BuildingBlock: CIFDUS_clean_linker_0, # of connection points: 2
#     Edge 23, Type (0, 1), BuildingBlock: CIFDUS_clean_linker_0, # of connection points: 2
#     Edge 24, Type (0, 1), BuildingBlock: CIFDUS_clean_linker_0, # of connection points: 2
#     Edge 25, Type (0, 1), BuildingBlock: CIFDUS_clean_linker_0, # of connection points: 2
#     Edge 26, Type (0, 1), BuildingBlock: CIFDUS_clean_linker_0, # of connection points: 2
# Relax obj value: 0.123
# Max RMSD: 0.178
# Mean RMSD: 0.139
data_MOF--net-anh--node1-MIFKUJ_clean_sbu_0--node2-BELTOD_clean_linker_0--edge1-CIFDUS_clean_linker_0
_symmetry_space_group_name_H-M    P1
_symmetry_Int_Tables_number       1
_symmetry_cell_setting            triclinic
loop_
_symmetry_equiv_pos_as_xyz
'x, y, z'
_cell_length_a     31.237309
_cell_length_b     31.230378
_cell_length_c     51.726171
_cell_angle_alpha  93.967021
_cell_angle_beta   90.608152
_cell_angle_gamma 120.0195
loop_
_atom_site_label
_atom_site_type_symbol
_atom_site_fract_x
_atom_site_fract_y
_atom_site_fract_z
_atom_type_partial_charge
Zn0 Zn 0.03497 0.58709 0.15856 0.0
Zn1 Zn 0.90053 0.48944 0.15225 0.0
C2 C 0.0892 0.5388 0.15964 0.0
O3 O 0.10419 0.56828 0.18121 0.0
C4 C 0.80463 0.46937 0.13555 0.0
O5 O 0.80956 0.43714 0.12004 0.0
O6 O 0.09975 0.65134 0.16065 0.0
O7 O 0.98921 0.59393 0.13404 0.0
O8 O 0.93741 0.5162 0.11958 0.0
C9 C 0.11204 0.68853 0.17687 0.0
O10 O 0.07969 0.68759 0.19318 0.0
O11 O 0.05457 0.53693 0.14547 0.0
C12 C 0.84002 0.3948 0.1676 0.0
O13 O 0.83182 0.42324 0.18429 0.0
O14 O 0.87135 0.41508 0.15048 0.0
O15 O 0.93481 0.51399 0.18818 0.0
O16 O 0.01274 0.57463 0.19439 0.0
O17 O 0.84063 0.49917 0.15128 0.0
C18 C 0.96649 0.56123 0.11533 0.0
C19 C 0.97229 0.543 0.20323 0.0
Zn20 Zn 0.57926 0.06146 0.49655 0.0
Zn21 Zn 0.54905 0.92858 0.49522 0.0
C22 C 0.68376 0.12766 0.50786 0.0
O23 O 0.66971 0.12424 0.53183 0.0
C24 C 0.46463 0.85796 0.4634 0.0
O25 O 0.49953 0.86814 0.44692 0.0
O26 O 0.55894 0.11326 0.49973 0.0
O27 O 0.54179 0.01322 0.46553 0.0
O28 O 0.58157 0.97152 0.46574 0.0
C29 C 0.57791 0.14876 0.48516 0.0
O30 O 0.60511 0.14715 0.46634 0.0
O31 O 0.652 0.10123 0.4895 0.0
C32 C 0.5534 0.84531 0.5098 0.0
O33 O 0.51027 0.83557 0.51838 0.0
O34 O 0.57848 0.88453 0.49832 0.0
O35 O 0.55686 0.9599 0.53138 0.0
O36 O 0.57267 0.03744 0.53194 0.0
O37 O 0.47626 0.88171 0.48569 0.0
C38 C 0.56037 0.99016 0.45337 0.0
C39 C 0.56517 1.00013 0.54366 0.0
Zn40 Zn 0.52653 0.51353 0.82955 0.0
Zn41 Zn 0.41493 0.54093 0.82337 0.0
C42 C 0.53047 0.42767 0.83005 0.0
O43 O 0.54787 0.45051 0.85328 0.0
C44 C 0.44532 0.63887 0.81256 0.0
O45 O 0.40691 0.61333 0.79611 0.0
O46 O 0.59969 0.55793 0.83613 0.0
O47 O 0.49441 0.54157 0.80993 0.0
O48 O 0.42545 0.51499 0.78833 0.0
C49 C 0.62837 0.60102 0.82913 0.0
O50 O 0.60992 0.62416 0.81692 0.0
O51 O 0.51625 0.44782 0.81408 0.0
C52 C 0.33244 0.54173 0.84442 0.0
O53 O 0.36241 0.55631 0.86522 0.0
O54 O 0.34565 0.52952 0.82336 0.0
O55 O 0.42788 0.51254 0.85582 0.0
O56 O 0.49155 0.49995 0.86262 0.0
O57 O 0.45853 0.61553 0.82685 0.0
C58 C 0.46829 0.52032 0.78924 0.0
C59 C 0.45221 0.49899 0.86996 0.0
P60 P 0.57206 0.94805 0.21083 0.0
H61 H 0.51871 0.91514 0.16026 0.0
H62 H 0.43038 0.86881 0.14703 0.0
H63 H 0.39462 0.86468 0.22769 0.0
H64 H 0.4821 0.91207 0.24056 0.0
H65 H 0.67551 0.01353 0.20069 0.0
H66 H 0.72191 0.10081 0.19165 0.0
H67 H 0.58558 0.10465 0.18844 0.0
H68 H 0.53967 0.01775 0.19792 0.0
H69 H 0.5698 0.87968 0.24723 0.0
H70 H 0.58931 0.02683 0.25105 0.0
O71 O 0.59612 0.91482 0.1979 0.0
H72 H 0.57245 0.88305 0.29466 0.0
H73 H 0.59355 0.03116 0.29824 0.0
C74 C 0.50708 0.91661 0.20134 0.0
C75 C 0.4917 0.90453 0.17501 0.0
C76 C 0.44123 0.87791 0.16752 0.0
C77 C 0.4053 0.86281 0.1863 0.0
C78 C 0.42111 0.87625 0.21266 0.0
C79 C 0.47145 0.90303 0.22009 0.0
C80 C 0.60416 0.00905 0.19955 0.0
C81 C 0.65555 0.03291 0.19745 0.0
C82 C 0.68199 0.08275 0.19224 0.0
C83 C 0.65741 0.10963 0.18938 0.0
C84 C 0.60561 0.08504 0.19077 0.0
C85 C 0.57925 0.03522 0.19593 0.0
C86 C 0.58042 0.95335 0.24562 0.0
C87 C 0.57575 0.91312 0.25829 0.0
C88 C 0.5773 0.91513 0.2854 0.0
C89 C 0.58322 0.9574 0.30028 0.0
C90 C 0.58834 0.99781 0.2874 0.0
C91 C 0.58656 0.99563 0.26034 0.0
P92 P 0.69194 0.56273 0.59078 0.0
H93 H 0.75 0.51743 0.57346 0.0
H94 H 0.72944 0.44282 0.54529 0.0
H95 H 0.58022 0.41449 0.53287 0.0
H96 H 0.60126 0.48978 0.56088 0.0
H97 H 0.7085 0.61441 0.54398 0.0
H98 H 0.672 0.66009 0.52588 0.0
H99 H 0.57874 0.62963 0.59122 0.0
H100 H 0.61402 0.58309 0.60861 0.0
H101 H 0.6106 0.47182 0.60984 0.0
H102 H 0.72463 0.61667 0.64176 0.0
O103 O 0.75321 0.60045 0.59306 0.0
H104 H 0.57575 0.4536 0.65237 0.0
H105 H 0.68949 0.59912 0.68425 0.0
C106 C 0.67726 0.50924 0.56904 0.0
C107 C 0.71307 0.49557 0.56442 0.0
C108 C 0.70134 0.45307 0.54825 0.0
C109 C 0.65332 0.42313 0.5368 0.0
C110 C 0.61748 0.43695 0.54148 0.0
C111 C 0.62948 0.47991 0.55737 0.0
C112 C 0.66438 0.59576 0.57772 0.0
C113 C 0.6801 0.61758 0.55432 0.0
C114 C 0.65937 0.64383 0.54407 0.0
C115 C 0.62248 0.6486 0.55712 0.0
C116 C 0.60655 0.62613 0.58047 0.0
C117 C 0.62714 0.59979 0.5906 0.0
C118 C 0.67078 0.54538 0.6227 0.0
C119 C 0.62878 0.4994 0.62606 0.0
C120 C 0.6086 0.48912 0.65039 0.0
C121 C 0.62982 0.52485 0.67175 0.0
C122 C 0.67272 0.57037 0.66838 0.0
C123 C 0.69284 0.58056 0.64405 0.0
P124 P 0.06209 0.7187 0.89508 0.0
H125 H 0.13991 0.73297 0.85956 0.0
H126 H 0.18202 0.68565 0.85018 0.0
H127 H 0.0814 0.57235 0.89759 0.0
H128 H 0.03919 0.61936 0.90666 0.0
H129 H 0.00466 0.76815 0.89375 0.0
H130 H 0.92026 0.74014 0.87749 0.0
H131 H 0.90991 0.60544 0.84226 0.0
H132 H 0.99374 0.63315 0.85917 0.0
H133 H 0.12728 0.75527 0.94181 0.0
H134 H 0.97127 0.65941 0.92229 0.0
O135 O 0.10345 0.77818 0.89217 0.0
H136 H 0.11356 0.73442 0.98686 0.0
H137 H 0.95712 0.6396 0.96719 0.0
C138 C 0.08733 0.68026 0.88432 0.0
C139 C 0.12643 0.69757 0.86757 0.0
C140 C 0.15025 0.67039 0.86211 0.0
C141 C 0.13527 0.62568 0.87345 0.0
C142 C 0.09408 0.60704 0.88892 0.0
C143 C 0.07005 0.63395 0.89413 0.0
C144 C 0.00548 0.7029 0.87755 0.0
C145 C 0.98461 0.73319 0.88194 0.0
C146 C 0.93638 0.71714 0.87259 0.0
C147 C 0.90821 0.67037 0.85875 0.0
C148 C 0.93039 0.64133 0.85319 0.0
C149 C 0.97854 0.65734 0.86267 0.0
C150 C 0.05026 0.70984 0.92882 0.0
C151 C 0.08994 0.73079 0.94737 0.0
C152 C 0.08201 0.7188 0.97309 0.0
C153 C 0.03422 0.68528 0.9806 0.0
C154 C 0.99444 0.6651 0.96198 0.0
C155 C 0.00244 0.67701 0.93631 0.0
P156 P 0.07326 0.45619 0.42005 0.0
H157 H 0.17814 0.4989 0.41365 0.0
H158 H 0.2495 0.57843 0.4288 0.0
H159 H 0.15619 0.61285 0.47652 0.0
H160 H 0.08429 0.53174 0.4615 0.0
H161 H 0.05054 0.38305 0.4575 0.0
H162 H 0.97199 0.32241 0.47431 0.0
H163 H 0.90015 0.39451 0.44061 0.0
H164 H 0.97862 0.45478 0.42379 0.0
H165 H 0.0834 0.55183 0.40826 0.0
H166 H 0.02306 0.40427 0.37035 0.0
O167 O 0.09105 0.41608 0.40944 0.0
H168 H 0.06359 0.57936 0.36925 0.0
H169 H 0.00327 0.43176 0.3311 0.0
C170 C 0.12606 0.50906 0.43676 0.0
C171 C 0.17308 0.52278 0.42796 0.0
C172 C 0.21382 0.56868 0.43636 0.0
C173 C 0.20836 0.60234 0.4535 0.0
C174 C 0.16156 0.58763 0.46335 0.0
C175 C 0.12055 0.54128 0.45491 0.0
C176 C 0.02022 0.42281 0.43901 0.0
C177 C 0.01816 0.38662 0.45436 0.0
C178 C 0.97321 0.35195 0.46396 0.0
C179 C 0.92965 0.35304 0.4583 0.0
C180 C 0.93288 0.39205 0.44478 0.0
C181 C 0.97786 0.42676 0.43529 0.0
C182 C 0.05601 0.47626 0.39195 0.0
C183 C 0.06603 0.52529 0.39157 0.0
C184 C 0.05459 0.54106 0.36924 0.0
C185 C 0.03228 0.50786 0.34705 0.0
C186 C 0.02021 0.45815 0.34795 0.0
C187 C 0.03192 0.4425 0.37026 0.0
P188 P 0.63393 0.0918 0.78571 0.0
H189 H 0.58606 0.10327 0.83241 0.0
H190 H 0.55727 0.16115 0.84541 0.0
H191 H 0.60349 0.22856 0.77303 0.0
H192 H 0.6301 0.16987 0.75992 0.0
H193 H 0.6678 0.02344 0.7965 0.0
H194 H 0.62379 0.93566 0.8039 0.0
H195 H 0.48687 0.9382 0.80755 0.0
H196 H 0.53112 0.0258 0.79925 0.0
H197 H 0.70568 0.13569 0.74569 0.0
H198 H 0.55068 0.02774 0.74913 0.0
O199 O 0.69336 0.12123 0.79611 0.0
H200 H 0.69709 0.12568 0.69818 0.0
H201 H 0.54201 0.01735 0.70184 0.0
C202 C 0.60877 0.13113 0.79486 0.0
C203 C 0.58882 0.12976 0.81913 0.0
C204 C 0.57285 0.16324 0.82663 0.0
C205 C 0.57758 0.19934 0.81016 0.0
C206 C 0.59788 0.20051 0.78592 0.0
C207 C 0.61341 0.16692 0.77843 0.0
C208 C 0.60295 0.03143 0.79786 0.0
C209 C 0.62855 0.00547 0.79966 0.0
C210 C 0.60328 0.95518 0.80393 0.0
C211 C 0.55172 0.92974 0.80626 0.0
C212 C 0.52651 0.95653 0.80557 0.0
C213 C 0.55187 0.00684 0.8012 0.0
C214 C 0.62908 0.08163 0.75091 0.0
C215 C 0.67002 0.10933 0.73625 0.0
C216 C 0.665 0.10388 0.70915 0.0
C217 C 0.61893 0.07053 0.69637 0.0
C218 C 0.5781 0.0427 0.71117 0.0
C219 C 0.58307 0.04856 0.73821 0.0
P220 P 0.36715 0.36888 0.0975 0.0
H221 H 0.40294 0.32279 0.13259 0.0
H222 H 0.48643 0.33986 0.14391 0.0
H223 H 0.54786 0.47695 0.10705 0.0
H224 H 0.46392 0.45971 0.09576 0.0
H225 H 0.26148 0.33048 0.09858 0.0
H226 H 0.21157 0.36525 0.11514 0.0
H227 H 0.34499 0.50019 0.14322 0.0
H228 H 0.39474 0.46424 0.12713 0.0
H229 H 0.39204 0.32356 0.05383 0.0
H230 H 0.36636 0.44635 0.06829 0.0
O231 O 0.3337 0.30724 0.09769 0.0
H232 H 0.41192 0.34508 0.00927 0.0
H233 H 0.38668 0.4684 0.02386 0.0
C234 C 0.42718 0.38956 0.11296 0.0
C235 C 0.43424 0.3572 0.12753 0.0
C236 C 0.48203 0.36688 0.1339 0.0
C237 C 0.52366 0.40929 0.12594 0.0
C238 C 0.51652 0.444 0.11345 0.0
C239 C 0.46854 0.43413 0.10697 0.0
C240 C 0.33173 0.39434 0.11216 0.0
C241 C 0.28001 0.36727 0.10868 0.0
C242 C 0.25148 0.38748 0.11787 0.0
C243 C 0.27415 0.43561 0.13048 0.0
C244 C 0.32622 0.46273 0.13395 0.0
C245 C 0.35479 0.44229 0.12477 0.0
C246 C 0.37683 0.38272 0.06419 0.0
C247 C 0.39005 0.35475 0.04729 0.0
C248 C 0.40181 0.36735 0.02192 0.0
C249 C 0.40082 0.40842 0.01306 0.0
C250 C 0.38704 0.43612 0.03001 0.0
C251 C 0.37547 0.42356 0.05545 0.0
H252 H 0.16752 0.5419 0.18471 0.0
H253 H 0.07214 0.47792 0.11515 0.0
H254 H 0.12082 0.44023 0.1001 0.0
H255 H 0.19226 0.42805 0.10606 0.0
H256 H 0.28691 0.49203 0.17589 0.0
H257 H 0.23713 0.52797 0.1912 0.0
C258 C 0.15703 0.51946 0.16631 0.0
C259 C 0.11613 0.51279 0.1511 0.0
C260 C 0.18543 0.49839 0.15768 0.0
C261 C 0.10333 0.48363 0.12729 0.0
C262 C 0.13128 0.4622 0.11864 0.0
C263 C 0.20172 0.44937 0.12478 0.0
C264 C 0.24347 0.45733 0.13976 0.0
C265 C 0.17265 0.46967 0.13358 0.0
C266 C 0.25553 0.48585 0.16375 0.0
C267 C 0.22684 0.50613 0.17263 0.0
H268 H 0.71257 0.17174 0.46293 0.0
H269 H 0.76673 0.17361 0.54029 0.0
H270 H 0.84776 0.24368 0.53199 0.0
H271 H 0.90266 0.3059 0.50296 0.0
H272 H 0.84662 0.3052 0.42623 0.0
H273 H 0.76678 0.23389 0.43424 0.0
C274 C 0.74229 0.18707 0.47786 0.0
C275 C 0.73384 0.16719 0.50209 0.0
C276 C 0.78827 0.22812 0.4732 0.0
C277 C 0.77242 0.18813 0.52142 0.0
C278 C 0.81869 0.22829 0.51672 0.0
C279 C 0.87295 0.29004 0.48802 0.0
C280 C 0.88056 0.31111 0.46411 0.0
C281 C 0.82693 0.24888 0.49275 0.0
C282 C 0.84155 0.29033 0.44498 0.0
C283 C 0.79597 0.24922 0.44944 0.0
H284 H 0.41715 0.69691 0.78973 0.0
H285 H 0.5309 0.70423 0.84106 0.0
H286 H 0.57271 0.79499 0.84472 0.0
H287 H 0.57751 0.87225 0.83263 0.0
H288 H 0.46393 0.8635 0.78052 0.0
H289 H 0.42098 0.77328 0.77842 0.0
C290 C 0.45115 0.71825 0.80171 0.0
C291 C 0.47103 0.69378 0.81496 0.0
C292 C 0.47479 0.77021 0.8038 0.0
C293 C 0.51487 0.72213 0.83058 0.0
C294 C 0.53876 0.77402 0.8327 0.0
C295 C 0.54339 0.85059 0.8208 0.0
C296 C 0.52399 0.87482 0.80684 0.0
C297 C 0.51915 0.79847 0.81929 0.0
C298 C 0.47935 0.84607 0.79186 0.0
C299 C 0.45495 0.79436 0.79041 0.0
H300 H 0.71555 0.39135 0.11934 0.0
H301 H 0.78487 0.5424 0.15336 0.0
H302 H 0.70402 0.53768 0.15355 0.0
H303 H 0.61302 0.49008 0.14344 0.0
H304 H 0.54545 0.33788 0.1112 0.0
H305 H 0.62605 0.34349 0.11109 0.0
C306 C 0.71311 0.4234 0.1267 0.0
C307 C 0.75621 0.46735 0.13604 0.0
C308 C 0.66664 0.42005 0.12721 0.0
C309 C 0.75221 0.50818 0.14597 0.0
C310 C 0.706 0.50547 0.14607 0.0
C311 C 0.61612 0.45823 0.13649 0.0
C312 C 0.57322 0.41352 0.1275 0.0
C313 C 0.66288 0.46156 0.13667 0.0
C314 C 0.57771 0.37245 0.11861 0.0
C315 C 0.62386 0.3757 0.11836 0.0
H316 H 0.39244 0.8076 0.49693 0.0
H317 H 0.42436 0.81093 0.41584 0.0
H318 H 0.34627 0.7339 0.40561 0.0
H319 H 0.272 0.66284 0.41987 0.0
H320 H 0.24034 0.6565 0.50091 0.0
H321 H 0.31479 0.73788 0.51095 0.0
C322 C 0.38193 0.79184 0.47698 0.0
C323 C 0.41437 0.81489 0.45719 0.0
C324 C 0.33721 0.74685 0.47125 0.0
C325 C 0.40029 0.79384 0.43146 0.0
C326 C 0.35565 0.74972 0.42558 0.0
C327 C 0.28145 0.67916 0.43977 0.0
C328 C 0.25114 0.65328 0.45968 0.0
C329 C 0.32443 0.72538 0.44538 0.0
C330 C 0.26311 0.67561 0.48524 0.0
C331 C 0.30578 0.72201 0.49099 0.0
H332 H 0.55755 0.37753 0.86068 0.0
H333 H 0.50379 0.37318 0.78275 0.0
H334 H 0.50981 0.29937 0.77028 0.0
H335 H 0.53455 0.23896 0.78105 0.0
H336 H 0.5926 0.24724 0.85856 0.0
H337 H 0.57935 0.3159 0.87178 0.0
C338 C 0.54685 0.36038 0.84097 0.0
C339 C 0.53056 0.38108 0.82263 0.0
C340 C 0.55096 0.3185 0.83389 0.0
C341 C 0.51658 0.35809 0.79724 0.0
C342 C 0.52008 0.31594 0.79009 0.0
C343 C 0.54443 0.25583 0.80083 0.0
C344 C 0.5648 0.23791 0.81871 0.0
C345 C 0.53796 0.29631 0.80817 0.0
C346 C 0.5763 0.25963 0.84442 0.0
C347 C 0.5692 0.29931 0.85196 0.0
H348 H 0.50349 0.75333 0.52656 0.0
H349 H 0.648 0.86341 0.50447 0.0
H350 H 0.68177 0.81118 0.51611 0.0
H351 H 0.6711 0.73653 0.53507 0.0
H352 H 0.52584 0.62591 0.55609 0.0
H353 H 0.49166 0.67644 0.54257 0.0
C354 C 0.54235 0.76586 0.52417 0.0
C355 C 0.57327 0.81237 0.51488 0.0
C356 C 0.56147 0.73574 0.53091 0.0
C357 C 0.62341 0.82778 0.51162 0.0
C358 C 0.64277 0.798 0.51835 0.0
C359 C 0.63181 0.72305 0.53629 0.0
C360 C 0.60123 0.67768 0.54686 0.0
C361 C 0.61226 0.75219 0.52832 0.0
C362 C 0.55046 0.66112 0.54854 0.0
C363 C 0.53079 0.68986 0.54068 0.0
H364 H 0.67576 0.55438 0.84505 0.0
H365 H 0.70261 0.69534 0.82151 0.0
H366 H 0.79205 0.72906 0.82768 0.0
H367 H 0.86245 0.71822 0.84025 0.0
H368 H 0.83335 0.57656 0.86397 0.0
H369 H 0.74482 0.54315 0.85668 0.0
C370 C 0.70103 0.5926 0.84133 0.0
C371 C 0.68248 0.62243 0.83303 0.0
C372 C 0.75204 0.61144 0.84468 0.0
C373 C 0.71591 0.67165 0.82802 0.0
C374 C 0.76703 0.6909 0.83151 0.0
C375 C 0.83668 0.68007 0.84382 0.0
C376 C 0.85463 0.6499 0.85249 0.0
C377 C 0.7855 0.66111 0.8399 0.0
C378 C 0.82075 0.60037 0.8568 0.0
C379 C 0.77002 0.58132 0.8529 0.0
H380 H 0.18865 0.69557 0.14951 0.0
H381 H 0.15268 0.77363 0.20964 0.0
H382 H 0.24016 0.83693 0.21635 0.0
H383 H 0.32726 0.86691 0.2071 0.0
H384 H 0.3627 0.78559 0.14861 0.0
H385 H 0.27488 0.72748 0.13892 0.0
C386 C 0.19975 0.72667 0.16393 0.0
C387 C 0.16411 0.72962 0.17918 0.0
C388 C 0.25009 0.76241 0.16797 0.0
C389 C 0.17931 0.77028 0.19771 0.0
C390 C 0.22936 0.80647 0.20159 0.0
C391 C 0.3158 0.83646 0.19224 0.0
C392 C 0.35172 0.8306 0.17873 0.0
C393 C 0.26515 0.80234 0.18719 0.0
C394 C 0.33605 0.79148 0.15914 0.0
C395 C 0.28576 0.75789 0.15373 0.0
H396 H 0.64193 0.24048 0.47097 0.0
H397 H 0.5158 0.16187 0.51729 0.0
H398 H 0.52509 0.24065 0.53543 0.0
H399 H 0.57458 0.33176 0.5416 0.0
H400 H 0.70385 0.40985 0.49741 0.0
H401 H 0.68788 0.33134 0.47492 0.0
C402 C 0.61583 0.24049 0.48464 0.0
C403 C 0.57829 0.19542 0.49283 0.0
C404 C 0.62241 0.28587 0.49561 0.0
C405 C 0.5451 0.19612 0.51075 0.0
C406 C 0.55051 0.24113 0.52119 0.0
C407 C 0.59863 0.33155 0.52668 0.0
C408 C 0.64039 0.37633 0.52119 0.0
C409 C 0.58985 0.28623 0.5143 0.0
C410 C 0.67173 0.37567 0.50209 0.0
C411 C 0.66257 0.33087 0.48922 0.0
H412 H 0.28331 0.5466 0.88621 0.0
H413 H 0.28393 0.55171 0.80307 0.0
H414 H 0.22024 0.57537 0.80439 0.0
H415 H 0.16994 0.60212 0.8298 0.0
H416 H 0.16918 0.59581 0.91284 0.0
H417 H 0.22693 0.5647 0.91092 0.0
C418 C 0.269 0.55225 0.86834 0.0
C419 C 0.28859 0.54791 0.84465 0.0
C420 C 0.23257 0.56594 0.86925 0.0
C421 C 0.26937 0.55476 0.82159 0.0
C422 C 0.23319 0.56862 0.82234 0.0
C423 C 0.18216 0.59344 0.84739 0.0
C424 C 0.16563 0.60145 0.87142 0.0
C425 C 0.21542 0.57553 0.84614 0.0
C426 C 0.18118 0.5896 0.89409 0.0
C427 C 0.21441 0.5721 0.89303 0.0
H428 H 0.76101 0.3428 0.19603 0.0
H429 H 0.85339 0.32423 0.14019 0.0
H430 H 0.80446 0.234 0.14159 0.0
H431 H 0.73548 0.16045 0.15907 0.0
H432 H 0.64391 0.1808 0.2148 0.0
H433 H 0.69218 0.27036 0.21274 0.0
C434 C 0.77065 0.31913 0.18418 0.0
C435 C 0.81099 0.34024 0.16816 0.0
C436 C 0.74225 0.26757 0.18493 0.0
C437 C 0.82256 0.30891 0.15275 0.0
C438 C 0.79459 0.25734 0.15353 0.0
C439 C 0.72622 0.18457 0.17077 0.0
C440 C 0.68599 0.16392 0.18697 0.0
C441 C 0.75439 0.23626 0.16961 0.0
C442 C 0.67413 0.1956 0.20185 0.0
C443 C 0.70196 0.24687 0.20085 0.0
H444 H 0.02419 0.65392 0.10007 0.0
H445 H 0.92395 0.50239 0.07011 0.0
H446 H 0.93598 0.52759 0.02587 0.0
H447 H 0.97581 0.5924 0.99574 0.0
H448 H 0.07481 0.74397 0.02591 0.0
H449 H 0.06277 0.71872 0.07011 0.0
C450 C 0.00481 0.6263 0.08391 0.0
C451 C 0.97315 0.5763 0.08847 0.0
C452 C 0.01183 0.641 0.05857 0.0
C453 C 0.9485 0.54112 0.06721 0.0
C454 C 0.95536 0.55549 0.04189 0.0
C455 C 0.99428 0.62004 0.012 0.0
C456 C 0.0261 0.67005 0.0075 0.0
C457 C 0.98695 0.60532 0.03736 0.0
C458 C 0.05053 0.70518 0.02879 0.0
C459 C 0.04347 0.69081 0.05408 0.0
H460 H 0.60249 0.95023 0.42146 0.0
H461 H 0.51571 0.02284 0.42058 0.0
H462 H 0.51466 0.01844 0.37329 0.0
H463 H 0.53839 0.99419 0.33223 0.0
H464 H 0.62724 0.92389 0.33307 0.0
H465 H 0.62676 0.92654 0.38036 0.0
C466 C 0.5833 0.9651 0.41096 0.0
C467 C 0.55931 0.98693 0.42463 0.0
C468 C 0.58304 0.96271 0.38375 0.0
C469 C 0.53459 0.00593 0.41063 0.0
C470 C 0.53395 0.00343 0.38355 0.0
C471 C 0.55816 0.97994 0.34274 0.0
C472 C 0.58296 0.95902 0.32907 0.0
C473 C 0.5582 0.98208 0.36993 0.0
C474 C 0.60742 0.93974 0.34304 0.0
C475 C 0.60741 0.9415 0.37011 0.0
H476 H 0.56144 0.53582 0.78464 0.0
H477 H 0.41994 0.47267 0.74272 0.0
H478 H 0.45688 0.46336 0.70288 0.0
H479 H 0.5313 0.48361 0.67905 0.0
H480 H 0.67319 0.54876 0.72087 0.0
H481 H 0.6341 0.54708 0.76174 0.0
C482 C 0.5384 0.51909 0.76695 0.0
C483 C 0.4881 0.50543 0.76666 0.0
C484 C 0.56014 0.51496 0.74402 0.0
C485 C 0.45882 0.48371 0.7435 0.0
C486 C 0.47998 0.47862 0.72066 0.0
C487 C 0.55355 0.49626 0.69715 0.0
C488 C 0.60522 0.51679 0.69684 0.0
C489 C 0.53092 0.49566 0.72053 0.0
C490 C 0.63349 0.5336 0.7205 0.0
C491 C 0.61115 0.53249 0.74389 0.0
H492 H 0.60841 0.08498 0.57574 0.0
H493 H 0.53159 0.92538 0.57599 0.0
H494 H 0.54113 0.93315 0.62332 0.0
H495 H 0.57266 0.98537 0.66457 0.0
H496 H 0.65178 0.14479 0.66404 0.0
H497 H 0.64052 0.137 0.61676 0.0
C498 C 0.59344 0.05185 0.58613 0.0
C499 C 0.56912 0.00467 0.57235 0.0
C500 C 0.59987 0.05657 0.61325 0.0
C501 C 0.55047 0.96215 0.58613 0.0
C502 C 0.55594 0.96654 0.61318 0.0
C503 C 0.58719 0.01834 0.65406 0.0
C504 C 0.61298 0.06557 0.6677 0.0
C505 C 0.58079 0.01356 0.62692 0.0
C506 C 0.63224 0.10805 0.6539 0.0
C507 C 0.62555 0.10362 0.62692 0.0
H508 H 0.49463 0.46839 0.90486 0.0
H509 H 0.37096 0.49198 0.89375 0.0
H510 H 0.34425 0.46623 0.93698 0.0
H511 H 0.35615 0.43704 0.97808 0.0
H512 H 0.47994 0.41364 0.98868 0.0
H513 H 0.50605 0.43879 0.94534 0.0
C514 C 0.46179 0.46799 0.9118 0.0
C515 C 0.43513 0.48257 0.89603 0.0
C516 C 0.4465 0.45293 0.93659 0.0
C517 C 0.39251 0.4814 0.90545 0.0
C518 C 0.37711 0.46656 0.93019 0.0
C519 C 0.38898 0.43773 0.97092 0.0
C520 C 0.41597 0.42336 0.98656 0.0
C521 C 0.40392 0.4524 0.94596 0.0
C522 C 0.45811 0.42386 0.97691 0.0
C523 C 0.47325 0.43852 0.95219 0.0
H524 H 0.04374 0.59913 0.24099 0.0
H525 H 0.8983 0.46919 0.22848 0.0
H526 H 0.90248 0.44881 0.27277 0.0
H527 H 0.95089 0.46341 0.31361 0.0
H528 H 0.09706 0.59216 0.32537 0.0
H529 H 0.08884 0.61767 0.28295 0.0
C530 C 0.01259 0.5667 0.24801 0.0
C531 C 0.97105 0.53545 0.23125 0.0
C532 C 0.01552 0.55472 0.27336 0.0
C533 C 0.93087 0.49386 0.24085 0.0
C534 C 0.93331 0.48198 0.26617 0.0
C535 C 0.98078 0.49717 0.30689 0.0
C536 C 0.02464 0.52562 0.32251 0.0
C537 C 0.97604 0.51136 0.28233 0.0
C538 C 0.06278 0.56976 0.3138 0.0
C539 C 0.05824 0.58422 0.28947 0.0
loop_
_geom_bond_atom_site_label_1
_geom_bond_atom_site_label_2
_geom_bond_distance
_geom_bond_site_symmetry_2
_ccdc_geom_bond_type
Zn0 O6 1.969 . S
Zn0 O7 1.965 . S
Zn0 O11 2.024 . S
Zn0 O16 1.969 . S
Zn1 O8 1.969 . S
Zn1 O14 1.969 . S
Zn1 O15 1.965 . S
Zn1 O17 2.024 . S
C2 O3 1.229 . S
C2 O11 1.058 . S
O3 C2 1.229 . S
C4 O5 1.229 . S
C4 O17 1.058 . S
O5 C4 1.229 . S
O6 Zn0 1.969 . S
O6 C9 1.267 . S
O7 Zn0 1.965 . S
O7 C18 1.260 1_455 S
O8 Zn1 1.969 . S
O8 C18 1.258 . S
C9 O6 1.267 . S
C9 O10 1.228 . S
O10 C9 1.228 . S
O11 Zn0 2.024 . S
O11 C2 1.058 . S
C12 O13 1.228 . S
C12 O14 1.267 . S
O13 C12 1.228 . S
O14 Zn1 1.969 . S
O14 C12 1.267 . S
O15 Zn1 1.965 . S
O15 C19 1.260 1_655 S
O16 Zn0 1.969 . S
O16 C19 1.258 . S
O17 Zn1 2.024 . S
O17 C4 1.058 . S
C18 O7 1.260 1_655 S
C18 O8 1.258 . S
C19 O15 1.260 1_455 S
C19 O16 1.258 . S
Zn20 O26 1.969 . S
Zn20 O27 1.965 . S
Zn20 O31 2.024 . S
Zn20 O36 1.969 . S
Zn21 O28 1.969 . S
Zn21 O34 1.969 . S
Zn21 O35 1.965 . S
Zn21 O37 2.024 . S
C22 O23 1.229 . S
C22 O31 1.058 . S
O23 C22 1.229 . S
C24 O25 1.229 . S
C24 O37 1.058 . S
O25 C24 1.229 . S
O26 Zn20 1.969 . S
O26 C29 1.267 . S
O27 Zn20 1.965 . S
O27 C38 1.260 . S
O28 Zn21 1.969 . S
O28 C38 1.258 1_565 S
C29 O26 1.267 . S
C29 O30 1.228 . S
O30 C29 1.228 . S
O31 Zn20 2.024 . S
O31 C22 1.058 . S
C32 O33 1.228 . S
C32 O34 1.267 . S
O33 C32 1.228 . S
O34 Zn21 1.969 . S
O34 C32 1.267 . S
O35 Zn21 1.965 . S
O35 C39 1.260 1_565 S
O36 Zn20 1.969 . S
O36 C39 1.258 . S
O37 Zn21 2.024 . S
O37 C24 1.058 . S
C38 O27 1.260 . S
C38 O28 1.258 1_545 S
C39 O35 1.260 1_545 S
C39 O36 1.258 . S
Zn40 O46 1.969 . S
Zn40 O47 1.965 . S
Zn40 O51 2.024 . S
Zn40 O56 1.969 . S
Zn41 O48 1.969 . S
Zn41 O54 1.969 . S
Zn41 O55 1.965 . S
Zn41 O57 2.024 . S
C42 O43 1.229 . S
C42 O51 1.058 . S
O43 C42 1.229 . S
C44 O45 1.229 . S
C44 O57 1.058 . S
O45 C44 1.229 . S
O46 Zn40 1.969 . S
O46 C49 1.267 . S
O47 Zn40 1.965 . S
O47 C58 1.260 . S
O48 Zn41 1.969 . S
O48 C58 1.258 . S
C49 O46 1.267 . S
C49 O50 1.228 . S
O50 C49 1.228 . S
O51 Zn40 2.024 . S
O51 C42 1.058 . S
C52 O53 1.228 . S
C52 O54 1.267 . S
O53 C52 1.228 . S
O54 Zn41 1.969 . S
O54 C52 1.267 . S
O55 Zn41 1.965 . S
O55 C59 1.260 . S
O56 Zn40 1.969 . S
O56 C59 1.258 . S
O57 Zn41 2.024 . S
O57 C44 1.058 . S
C58 O47 1.260 . S
C58 O48 1.258 . S
C59 O55 1.260 . S
C59 O56 1.258 . S
P60 O71 1.490 . S
P60 C74 1.812 . S
P60 C80 1.803 1_565 S
P60 C86 1.819 1_565 S
H61 C75 0.941 . S
H62 C76 0.939 . S
H63 C78 0.940 . S
H64 C79 0.940 . S
H65 C81 0.939 . S
H66 C82 0.942 . S
H67 C84 0.940 . S
H68 C85 0.939 . S
H69 C87 0.941 . S
H70 C91 0.939 . S
O71 P60 1.490 . S
H72 C88 0.939 . S
H73 C90 0.940 . S
C74 P60 1.812 . S
C74 C75 1.389 . S
C74 C79 1.391 . S
C75 H61 0.941 . S
C75 C74 1.389 . S
C75 C76 1.397 . S
C76 H62 0.939 . S
C76 C75 1.397 . S
C76 C77 1.378 . S
C77 C76 1.378 . S
C77 C78 1.378 . S
C78 H63 0.940 . S
C78 C77 1.378 . S
C78 C79 1.396 . S
C79 H64 0.940 . S
C79 C74 1.391 . S
C79 C78 1.396 . S
C80 P60 1.803 1_545 S
C80 C81 1.378 . S
C80 C85 1.400 . S
C81 H65 0.939 . S
C81 C80 1.378 . S
C81 C82 1.361 . S
C82 H66 0.942 . S
C82 C81 1.361 . S
C82 C83 1.369 . S
C83 C82 1.369 . S
C83 C84 1.404 . S
C84 H67 0.940 . S
C84 C83 1.404 . S
C84 C85 1.389 . S
C85 H68 0.939 . S
C85 C80 1.400 . S
C85 C84 1.389 . S
C86 P60 1.819 1_545 S
C86 C87 1.391 1_545 S
C86 C91 1.391 . S
C87 H69 0.941 . S
C87 C86 1.391 1_565 S
C87 C88 1.396 . S
C88 H72 0.939 . S
C88 C87 1.396 . S
C88 C89 1.397 1_565 S
C89 C88 1.397 1_545 S
C89 C90 1.385 . S
C90 H73 0.940 . S
C90 C89 1.385 . S
C90 C91 1.388 . S
C91 H70 0.939 . S
C91 C86 1.391 . S
C91 C90 1.388 . S
P92 O103 1.490 . S
P92 C106 1.812 . S
P92 C112 1.803 . S
P92 C118 1.819 . S
H93 C107 0.941 . S
H94 C108 0.939 . S
H95 C110 0.940 . S
H96 C111 0.940 . S
H97 C113 0.939 . S
H98 C114 0.942 . S
H99 C116 0.940 . S
H100 C117 0.939 . S
H101 C119 0.941 . S
H102 C123 0.939 . S
O103 P92 1.490 . S
H104 C120 0.939 . S
H105 C122 0.940 . S
C106 P92 1.812 . S
C106 C107 1.389 . S
C106 C111 1.391 . S
C107 H93 0.941 . S
C107 C106 1.389 . S
C107 C108 1.397 . S
C108 H94 0.939 . S
C108 C107 1.397 . S
C108 C109 1.378 . S
C109 C108 1.378 . S
C109 C110 1.378 . S
C110 H95 0.940 . S
C110 C109 1.378 . S
C110 C111 1.396 . S
C111 H96 0.940 . S
C111 C106 1.391 . S
C111 C110 1.396 . S
C112 P92 1.803 . S
C112 C113 1.378 . S
C112 C117 1.400 . S
C113 H97 0.939 . S
C113 C112 1.378 . S
C113 C114 1.361 . S
C114 H98 0.942 . S
C114 C113 1.361 . S
C114 C115 1.369 . S
C115 C114 1.369 . S
C115 C116 1.404 . S
C116 H99 0.940 . S
C116 C115 1.404 . S
C116 C117 1.389 . S
C117 H100 0.939 . S
C117 C112 1.400 . S
C117 C116 1.389 . S
C118 P92 1.819 . S
C118 C119 1.391 . S
C118 C123 1.391 . S
C119 H101 0.941 . S
C119 C118 1.391 . S
C119 C120 1.396 . S
C120 H104 0.939 . S
C120 C119 1.396 . S
C120 C121 1.397 . S
C121 C120 1.397 . S
C121 C122 1.385 . S
C122 H105 0.940 . S
C122 C121 1.385 . S
C122 C123 1.388 . S
C123 H102 0.939 . S
C123 C118 1.391 . S
C123 C122 1.388 . S
P124 O135 1.490 . S
P124 C138 1.812 . S
P124 C144 1.803 . S
P124 C150 1.819 . S
H125 C139 0.941 . S
H126 C140 0.939 . S
H127 C142 0.940 . S
H128 C143 0.940 . S
H129 C145 0.939 . S
H130 C146 0.942 . S
H131 C148 0.940 . S
H132 C149 0.939 . S
H133 C151 0.941 . S
H134 C155 0.939 1_655 S
O135 P124 1.490 . S
H136 C152 0.939 . S
H137 C154 0.940 . S
C138 P124 1.812 . S
C138 C139 1.389 . S
C138 C143 1.391 . S
C139 H125 0.941 . S
C139 C138 1.389 . S
C139 C140 1.397 . S
C140 H126 0.939 . S
C140 C139 1.397 . S
C140 C141 1.378 . S
C141 C140 1.378 . S
C141 C142 1.378 . S
C142 H127 0.940 . S
C142 C141 1.378 . S
C142 C143 1.396 . S
C143 H128 0.940 . S
C143 C138 1.391 . S
C143 C142 1.396 . S
C144 P124 1.803 . S
C144 C145 1.378 1_455 S
C144 C149 1.400 1_455 S
C145 H129 0.939 . S
C145 C144 1.378 1_655 S
C145 C146 1.361 . S
C146 H130 0.942 . S
C146 C145 1.361 . S
C146 C147 1.369 . S
C147 C146 1.369 . S
C147 C148 1.404 . S
C148 H131 0.940 . S
C148 C147 1.404 . S
C148 C149 1.389 . S
C149 H132 0.939 . S
C149 C144 1.400 1_655 S
C149 C148 1.389 . S
C150 P124 1.819 . S
C150 C151 1.391 . S
C150 C155 1.391 . S
C151 H133 0.941 . S
C151 C150 1.391 . S
C151 C152 1.396 . S
C152 H136 0.939 . S
C152 C151 1.396 . S
C152 C153 1.397 . S
C153 C152 1.397 . S
C153 C154 1.385 1_455 S
C154 H137 0.940 . S
C154 C153 1.385 1_655 S
C154 C155 1.388 1_655 S
C155 H134 0.939 1_455 S
C155 C150 1.391 . S
C155 C154 1.388 1_455 S
P156 O167 1.490 . S
P156 C170 1.812 . S
P156 C176 1.803 1_455 S
P156 C182 1.819 . S
H157 C171 0.941 . S
H158 C172 0.939 . S
H159 C174 0.940 . S
H160 C175 0.940 . S
H161 C177 0.939 . S
H162 C178 0.942 . S
H163 C180 0.940 . S
H164 C181 0.939 . S
H165 C183 0.941 . S
H166 C187 0.939 . S
O167 P156 1.490 . S
H168 C184 0.939 . S
H169 C186 0.940 . S
C170 P156 1.812 . S
C170 C171 1.389 . S
C170 C175 1.391 . S
C171 H157 0.941 . S
C171 C170 1.389 . S
C171 C172 1.397 . S
C172 H158 0.939 . S
C172 C171 1.397 . S
C172 C173 1.378 . S
C173 C172 1.378 . S
C173 C174 1.378 . S
C174 H159 0.940 . S
C174 C173 1.378 . S
C174 C175 1.396 . S
C175 H160 0.940 . S
C175 C170 1.391 . S
C175 C174 1.396 . S
C176 P156 1.803 1_655 S
C176 C177 1.378 . S
C176 C181 1.400 . S
C177 H161 0.939 . S
C177 C176 1.378 . S
C177 C178 1.361 . S
C178 H162 0.942 . S
C178 C177 1.361 . S
C178 C179 1.369 . S
C179 C178 1.369 . S
C179 C180 1.404 . S
C180 H163 0.940 . S
C180 C179 1.404 . S
C180 C181 1.389 . S
C181 H164 0.939 . S
C181 C176 1.400 . S
C181 C180 1.389 . S
C182 P156 1.819 . S
C182 C183 1.391 . S
C182 C187 1.391 1_455 S
C183 H165 0.941 . S
C183 C182 1.391 . S
C183 C184 1.396 . S
C184 H168 0.939 . S
C184 C183 1.396 . S
C184 C185 1.397 . S
C185 C184 1.397 . S
C185 C186 1.385 1_455 S
C186 H169 0.940 . S
C186 C185 1.385 1_655 S
C186 C187 1.388 . S
C187 H166 0.939 . S
C187 C182 1.391 1_655 S
C187 C186 1.388 . S
P188 O199 1.490 . S
P188 C202 1.812 . S
P188 C208 1.803 1_545 S
P188 C214 1.819 . S
H189 C203 0.941 . S
H190 C204 0.939 . S
H191 C206 0.940 . S
H192 C207 0.940 . S
H193 C209 0.939 . S
H194 C210 0.942 . S
H195 C212 0.940 . S
H196 C213 0.939 . S
H197 C215 0.941 . S
H198 C219 0.939 . S
O199 P188 1.490 . S
H200 C216 0.939 . S
H201 C218 0.940 . S
C202 P188 1.812 . S
C202 C203 1.389 . S
C202 C207 1.391 . S
C203 H189 0.941 . S
C203 C202 1.389 . S
C203 C204 1.397 . S
C204 H190 0.939 . S
C204 C203 1.397 . S
C204 C205 1.378 . S
C205 C204 1.378 . S
C205 C206 1.378 . S
C206 H191 0.940 . S
C206 C205 1.378 . S
C206 C207 1.396 . S
C207 H192 0.940 . S
C207 C202 1.391 . S
C207 C206 1.396 . S
C208 P188 1.803 1_565 S
C208 C209 1.378 . S
C208 C213 1.400 . S
C209 H193 0.939 . S
C209 C208 1.378 . S
C209 C210 1.361 . S
C210 H194 0.942 . S
C210 C209 1.361 . S
C210 C211 1.369 . S
C211 C210 1.369 . S
C211 C212 1.404 . S
C212 H195 0.940 . S
C212 C211 1.404 . S
C212 C213 1.389 . S
C213 H196 0.939 . S
C213 C208 1.400 . S
C213 C212 1.389 . S
C214 P188 1.819 . S
C214 C215 1.391 . S
C214 C219 1.391 1_545 S
C215 H197 0.941 . S
C215 C214 1.391 . S
C215 C216 1.396 . S
C216 H200 0.939 . S
C216 C215 1.396 . S
C216 C217 1.397 . S
C217 C216 1.397 . S
C217 C218 1.385 1_545 S
C218 H201 0.940 . S
C218 C217 1.385 1_565 S
C218 C219 1.388 . S
C219 H198 0.939 . S
C219 C214 1.391 1_565 S
C219 C218 1.388 . S
P220 O231 1.490 . S
P220 C234 1.812 . S
P220 C240 1.803 . S
P220 C246 1.819 . S
H221 C235 0.941 . S
H222 C236 0.939 . S
H223 C238 0.940 . S
H224 C239 0.940 . S
H225 C241 0.939 . S
H226 C242 0.942 . S
H227 C244 0.940 . S
H228 C245 0.939 . S
H229 C247 0.941 . S
H230 C251 0.939 . S
O231 P220 1.490 . S
H232 C248 0.939 . S
H233 C250 0.940 . S
C234 P220 1.812 . S
C234 C235 1.389 . S
C234 C239 1.391 . S
C235 H221 0.941 . S
C235 C234 1.389 . S
C235 C236 1.397 . S
C236 H222 0.939 . S
C236 C235 1.397 . S
C236 C237 1.378 . S
C237 C236 1.378 . S
C237 C238 1.378 . S
C238 H223 0.940 . S
C238 C237 1.378 . S
C238 C239 1.396 . S
C239 H224 0.940 . S
C239 C234 1.391 . S
C239 C238 1.396 . S
C240 P220 1.803 . S
C240 C241 1.378 . S
C240 C245 1.400 . S
C241 H225 0.939 . S
C241 C240 1.378 . S
C241 C242 1.361 . S
C242 H226 0.942 . S
C242 C241 1.361 . S
C242 C243 1.369 . S
C243 C242 1.369 . S
C243 C244 1.404 . S
C244 H227 0.940 . S
C244 C243 1.404 . S
C244 C245 1.389 . S
C245 H228 0.939 . S
C245 C240 1.400 . S
C245 C244 1.389 . S
C246 P220 1.819 . S
C246 C247 1.391 . S
C246 C251 1.391 . S
C247 H229 0.941 . S
C247 C246 1.391 . S
C247 C248 1.396 . S
C248 H232 0.939 . S
C248 C247 1.396 . S
C248 C249 1.397 . S
C249 C248 1.397 . S
C249 C250 1.385 . S
C250 H233 0.940 . S
C250 C249 1.385 . S
C250 C251 1.388 . S
C251 H230 0.939 . S
C251 C246 1.391 . S
C251 C250 1.388 . S
H252 C258 0.930 . S
H253 C261 0.930 . S
H254 C262 0.930 . S
H255 C263 0.930 . S
H256 C266 0.930 . S
H257 C267 0.930 . S
C258 H252 0.930 . S
C258 C259 1.355 . S
C258 C260 1.415 . S
C259 C258 1.355 . S
C259 C261 1.419 . S
C260 C258 1.415 . S
C260 C265 1.425 . S
C260 C267 1.409 . S
C261 H253 0.930 . S
C261 C259 1.419 . S
C261 C262 1.362 . S
C262 H254 0.930 . S
C262 C261 1.362 . S
C262 C265 1.409 . S
C263 H255 0.930 . S
C263 C264 1.355 . S
C263 C265 1.415 . S
C264 C263 1.355 . S
C264 C266 1.419 . S
C265 C260 1.425 . S
C265 C262 1.409 . S
C265 C263 1.415 . S
C266 H256 0.930 . S
C266 C264 1.419 . S
C266 C267 1.362 . S
C267 H257 0.930 . S
C267 C260 1.409 . S
C267 C266 1.362 . S
H268 C274 0.930 . S
H269 C277 0.930 . S
H270 C278 0.930 . S
H271 C279 0.930 . S
H272 C282 0.930 . S
H273 C283 0.930 . S
C274 H268 0.930 . S
C274 C275 1.355 . S
C274 C276 1.415 . S
C275 C274 1.355 . S
C275 C277 1.419 . S
C276 C274 1.415 . S
C276 C281 1.425 . S
C276 C283 1.409 . S
C277 H269 0.930 . S
C277 C275 1.419 . S
C277 C278 1.362 . S
C278 H270 0.930 . S
C278 C277 1.362 . S
C278 C281 1.409 . S
C279 H271 0.930 . S
C279 C280 1.355 . S
C279 C281 1.415 . S
C280 C279 1.355 . S
C280 C282 1.419 . S
C281 C276 1.425 . S
C281 C278 1.409 . S
C281 C279 1.415 . S
C282 H272 0.930 . S
C282 C280 1.419 . S
C282 C283 1.362 . S
C283 H273 0.930 . S
C283 C276 1.409 . S
C283 C282 1.362 . S
H284 C290 0.930 . S
H285 C293 0.930 . S
H286 C294 0.930 . S
H287 C295 0.930 . S
H288 C298 0.930 . S
H289 C299 0.930 . S
C290 H284 0.930 . S
C290 C291 1.355 . S
C290 C292 1.415 . S
C291 C290 1.355 . S
C291 C293 1.419 . S
C292 C290 1.415 . S
C292 C297 1.425 . S
C292 C299 1.409 . S
C293 H285 0.930 . S
C293 C291 1.419 . S
C293 C294 1.362 . S
C294 H286 0.930 . S
C294 C293 1.362 . S
C294 C297 1.409 . S
C295 H287 0.930 . S
C295 C296 1.355 . S
C295 C297 1.415 . S
C296 C295 1.355 . S
C296 C298 1.419 . S
C297 C292 1.425 . S
C297 C294 1.409 . S
C297 C295 1.415 . S
C298 H288 0.930 . S
C298 C296 1.419 . S
C298 C299 1.362 . S
C299 H289 0.930 . S
C299 C292 1.409 . S
C299 C298 1.362 . S
H300 C306 0.930 . S
H301 C309 0.930 . S
H302 C310 0.930 . S
H303 C311 0.930 . S
H304 C314 0.930 . S
H305 C315 0.930 . S
C306 H300 0.930 . S
C306 C307 1.355 . S
C306 C308 1.415 . S
C307 C306 1.355 . S
C307 C309 1.419 . S
C308 C306 1.415 . S
C308 C313 1.425 . S
C308 C315 1.409 . S
C309 H301 0.930 . S
C309 C307 1.419 . S
C309 C310 1.362 . S
C310 H302 0.930 . S
C310 C309 1.362 . S
C310 C313 1.409 . S
C311 H303 0.930 . S
C311 C312 1.355 . S
C311 C313 1.415 . S
C312 C311 1.355 . S
C312 C314 1.419 . S
C313 C308 1.425 . S
C313 C310 1.409 . S
C313 C311 1.415 . S
C314 H304 0.930 . S
C314 C312 1.419 . S
C314 C315 1.362 . S
C315 H305 0.930 . S
C315 C308 1.409 . S
C315 C314 1.362 . S
H316 C322 0.930 . S
H317 C325 0.930 . S
H318 C326 0.930 . S
H319 C327 0.930 . S
H320 C330 0.930 . S
H321 C331 0.930 . S
C322 H316 0.930 . S
C322 C323 1.355 . S
C322 C324 1.415 . S
C323 C322 1.355 . S
C323 C325 1.419 . S
C324 C322 1.415 . S
C324 C329 1.425 . S
C324 C331 1.409 . S
C325 H317 0.930 . S
C325 C323 1.419 . S
C325 C326 1.362 . S
C326 H318 0.930 . S
C326 C325 1.362 . S
C326 C329 1.409 . S
C327 H319 0.930 . S
C327 C328 1.355 . S
C327 C329 1.415 . S
C328 C327 1.355 . S
C328 C330 1.419 . S
C329 C324 1.425 . S
C329 C326 1.409 . S
C329 C327 1.415 . S
C330 H320 0.930 . S
C330 C328 1.419 . S
C330 C331 1.362 . S
C331 H321 0.930 . S
C331 C324 1.409 . S
C331 C330 1.362 . S
H332 C338 0.930 . S
H333 C341 0.930 . S
H334 C342 0.930 . S
H335 C343 0.930 . S
H336 C346 0.930 . S
H337 C347 0.930 . S
C338 H332 0.930 . S
C338 C339 1.355 . S
C338 C340 1.415 . S
C339 C338 1.355 . S
C339 C341 1.419 . S
C340 C338 1.415 . S
C340 C345 1.425 . S
C340 C347 1.409 . S
C341 H333 0.930 . S
C341 C339 1.419 . S
C341 C342 1.362 . S
C342 H334 0.930 . S
C342 C341 1.362 . S
C342 C345 1.409 . S
C343 H335 0.930 . S
C343 C344 1.355 . S
C343 C345 1.415 . S
C344 C343 1.355 . S
C344 C346 1.419 . S
C345 C340 1.425 . S
C345 C342 1.409 . S
C345 C343 1.415 . S
C346 H336 0.930 . S
C346 C344 1.419 . S
C346 C347 1.362 . S
C347 H337 0.930 . S
C347 C340 1.409 . S
C347 C346 1.362 . S
H348 C354 0.930 . S
H349 C357 0.930 . S
H350 C358 0.930 . S
H351 C359 0.930 . S
H352 C362 0.930 . S
H353 C363 0.930 . S
C354 H348 0.930 . S
C354 C355 1.355 . S
C354 C356 1.415 . S
C355 C354 1.355 . S
C355 C357 1.419 . S
C356 C354 1.415 . S
C356 C361 1.425 . S
C356 C363 1.409 . S
C357 H349 0.930 . S
C357 C355 1.419 . S
C357 C358 1.362 . S
C358 H350 0.930 . S
C358 C357 1.362 . S
C358 C361 1.409 . S
C359 H351 0.930 . S
C359 C360 1.355 . S
C359 C361 1.415 . S
C360 C359 1.355 . S
C360 C362 1.419 . S
C361 C356 1.425 . S
C361 C358 1.409 . S
C361 C359 1.415 . S
C362 H352 0.930 . S
C362 C360 1.419 . S
C362 C363 1.362 . S
C363 H353 0.930 . S
C363 C356 1.409 . S
C363 C362 1.362 . S
H364 C370 0.930 . S
H365 C373 0.930 . S
H366 C374 0.930 . S
H367 C375 0.930 . S
H368 C378 0.930 . S
H369 C379 0.930 . S
C370 H364 0.930 . S
C370 C371 1.355 . S
C370 C372 1.415 . S
C371 C370 1.355 . S
C371 C373 1.419 . S
C372 C370 1.415 . S
C372 C377 1.425 . S
C372 C379 1.409 . S
C373 H365 0.930 . S
C373 C371 1.419 . S
C373 C374 1.362 . S
C374 H366 0.930 . S
C374 C373 1.362 . S
C374 C377 1.409 . S
C375 H367 0.930 . S
C375 C376 1.355 . S
C375 C377 1.415 . S
C376 C375 1.355 . S
C376 C378 1.419 . S
C377 C372 1.425 . S
C377 C374 1.409 . S
C377 C375 1.415 . S
C378 H368 0.930 . S
C378 C376 1.419 . S
C378 C379 1.362 . S
C379 H369 0.930 . S
C379 C372 1.409 . S
C379 C378 1.362 . S
H380 C386 0.930 . S
H381 C389 0.930 . S
H382 C390 0.930 . S
H383 C391 0.930 . S
H384 C394 0.930 . S
H385 C395 0.930 . S
C386 H380 0.930 . S
C386 C387 1.355 . S
C386 C388 1.415 . S
C387 C386 1.355 . S
C387 C389 1.419 . S
C388 C386 1.415 . S
C388 C393 1.425 . S
C388 C395 1.409 . S
C389 H381 0.930 . S
C389 C387 1.419 . S
C389 C390 1.362 . S
C390 H382 0.930 . S
C390 C389 1.362 . S
C390 C393 1.409 . S
C391 H383 0.930 . S
C391 C392 1.355 . S
C391 C393 1.415 . S
C392 C391 1.355 . S
C392 C394 1.419 . S
C393 C388 1.425 . S
C393 C390 1.409 . S
C393 C391 1.415 . S
C394 H384 0.930 . S
C394 C392 1.419 . S
C394 C395 1.362 . S
C395 H385 0.930 . S
C395 C388 1.409 . S
C395 C394 1.362 . S
H396 C402 0.930 . S
H397 C405 0.930 . S
H398 C406 0.930 . S
H399 C407 0.930 . S
H400 C410 0.930 . S
H401 C411 0.930 . S
C402 H396 0.930 . S
C402 C403 1.355 . S
C402 C404 1.415 . S
C403 C402 1.355 . S
C403 C405 1.419 . S
C404 C402 1.415 . S
C404 C409 1.425 . S
C404 C411 1.409 . S
C405 H397 0.930 . S
C405 C403 1.419 . S
C405 C406 1.362 . S
C406 H398 0.930 . S
C406 C405 1.362 . S
C406 C409 1.409 . S
C407 H399 0.930 . S
C407 C408 1.355 . S
C407 C409 1.415 . S
C408 C407 1.355 . S
C408 C410 1.419 . S
C409 C404 1.425 . S
C409 C406 1.409 . S
C409 C407 1.415 . S
C410 H400 0.930 . S
C410 C408 1.419 . S
C410 C411 1.362 . S
C411 H401 0.930 . S
C411 C404 1.409 . S
C411 C410 1.362 . S
H412 C418 0.930 . S
H413 C421 0.930 . S
H414 C422 0.930 . S
H415 C423 0.930 . S
H416 C426 0.930 . S
H417 C427 0.930 . S
C418 H412 0.930 . S
C418 C419 1.355 . S
C418 C420 1.415 . S
C419 C418 1.355 . S
C419 C421 1.419 . S
C420 C418 1.415 . S
C420 C425 1.425 . S
C420 C427 1.409 . S
C421 H413 0.930 . S
C421 C419 1.419 . S
C421 C422 1.362 . S
C422 H414 0.930 . S
C422 C421 1.362 . S
C422 C425 1.409 . S
C423 H415 0.930 . S
C423 C424 1.355 . S
C423 C425 1.415 . S
C424 C423 1.355 . S
C424 C426 1.419 . S
C425 C420 1.425 . S
C425 C422 1.409 . S
C425 C423 1.415 . S
C426 H416 0.930 . S
C426 C424 1.419 . S
C426 C427 1.362 . S
C427 H417 0.930 . S
C427 C420 1.409 . S
C427 C426 1.362 . S
H428 C434 0.930 . S
H429 C437 0.930 . S
H430 C438 0.930 . S
H431 C439 0.930 . S
H432 C442 0.930 . S
H433 C443 0.930 . S
C434 H428 0.930 . S
C434 C435 1.355 . S
C434 C436 1.415 . S
C435 C434 1.355 . S
C435 C437 1.419 . S
C436 C434 1.415 . S
C436 C441 1.425 . S
C436 C443 1.409 . S
C437 H429 0.930 . S
C437 C435 1.419 . S
C437 C438 1.362 . S
C438 H430 0.930 . S
C438 C437 1.362 . S
C438 C441 1.409 . S
C439 H431 0.930 . S
C439 C440 1.355 . S
C439 C441 1.415 . S
C440 C439 1.355 . S
C440 C442 1.419 . S
C441 C436 1.425 . S
C441 C438 1.409 . S
C441 C439 1.415 . S
C442 H432 0.930 . S
C442 C440 1.419 . S
C442 C443 1.362 . S
C443 H433 0.930 . S
C443 C436 1.409 . S
C443 C442 1.362 . S
H444 C450 0.930 . S
H445 C453 0.930 . S
H446 C454 0.930 . S
H447 C455 0.930 . S
H448 C458 0.930 . S
H449 C459 0.930 . S
C450 H444 0.930 . S
C450 C451 1.355 . S
C450 C452 1.415 . S
C451 C450 1.355 . S
C451 C453 1.419 1_455 S
C452 C450 1.415 . S
C452 C457 1.425 . S
C452 C459 1.409 . S
C453 H445 0.930 . S
C453 C451 1.419 1_655 S
C453 C454 1.362 . S
C454 H446 0.930 . S
C454 C453 1.362 . S
C454 C457 1.409 1_655 S
C455 H447 0.930 . S
C455 C456 1.355 . S
C455 C457 1.415 . S
C456 C455 1.355 . S
C456 C458 1.419 . S
C457 C452 1.425 . S
C457 C454 1.409 1_455 S
C457 C455 1.415 . S
C458 H448 0.930 . S
C458 C456 1.419 . S
C458 C459 1.362 . S
C459 H449 0.930 . S
C459 C452 1.409 . S
C459 C458 1.362 . S
H460 C466 0.930 . S
H461 C469 0.930 . S
H462 C470 0.930 . S
H463 C471 0.930 . S
H464 C474 0.930 . S
H465 C475 0.930 . S
C466 H460 0.930 . S
C466 C467 1.355 1_565 S
C466 C468 1.415 1_565 S
C467 C466 1.355 1_545 S
C467 C469 1.419 . S
C468 C466 1.415 1_545 S
C468 C473 1.425 . S
C468 C475 1.409 1_545 S
C469 H461 0.930 . S
C469 C467 1.419 . S
C469 C470 1.362 . S
C470 H462 0.930 . S
C470 C469 1.362 . S
C470 C473 1.409 . S
C471 H463 0.930 . S
C471 C472 1.355 . S
C471 C473 1.415 . S
C472 C471 1.355 . S
C472 C474 1.419 1_545 S
C473 C468 1.425 . S
C473 C470 1.409 . S
C473 C471 1.415 . S
C474 H464 0.930 . S
C474 C472 1.419 1_565 S
C474 C475 1.362 . S
C475 H465 0.930 . S
C475 C468 1.409 1_565 S
C475 C474 1.362 . S
H476 C482 0.930 . S
H477 C485 0.930 . S
H478 C486 0.930 . S
H479 C487 0.930 . S
H480 C490 0.930 . S
H481 C491 0.930 . S
C482 H476 0.930 . S
C482 C483 1.355 . S
C482 C484 1.415 . S
C483 C482 1.355 . S
C483 C485 1.419 . S
C484 C482 1.415 . S
C484 C489 1.425 . S
C484 C491 1.409 . S
C485 H477 0.930 . S
C485 C483 1.419 . S
C485 C486 1.362 . S
C486 H478 0.930 . S
C486 C485 1.362 . S
C486 C489 1.409 . S
C487 H479 0.930 . S
C487 C488 1.355 . S
C487 C489 1.415 . S
C488 C487 1.355 . S
C488 C490 1.419 . S
C489 C484 1.425 . S
C489 C486 1.409 . S
C489 C487 1.415 . S
C490 H480 0.930 . S
C490 C488 1.419 . S
C490 C491 1.362 . S
C491 H481 0.930 . S
C491 C484 1.409 . S
C491 C490 1.362 . S
H492 C498 0.930 . S
H493 C501 0.930 . S
H494 C502 0.930 . S
H495 C503 0.930 . S
H496 C506 0.930 . S
H497 C507 0.930 . S
C498 H492 0.930 . S
C498 C499 1.355 . S
C498 C500 1.415 . S
C499 C498 1.355 . S
C499 C501 1.419 1_545 S
C500 C498 1.415 . S
C500 C505 1.425 1_545 S
C500 C507 1.409 . S
C501 H493 0.930 . S
C501 C499 1.419 1_565 S
C501 C502 1.362 . S
C502 H494 0.930 . S
C502 C501 1.362 . S
C502 C505 1.409 . S
C503 H495 0.930 . S
C503 C504 1.355 1_565 S
C503 C505 1.415 . S
C504 C503 1.355 1_545 S
C504 C506 1.419 . S
C505 C500 1.425 1_565 S
C505 C502 1.409 . S
C505 C503 1.415 . S
C506 H496 0.930 . S
C506 C504 1.419 . S
C506 C507 1.362 . S
C507 H497 0.930 . S
C507 C500 1.409 . S
C507 C506 1.362 . S
H508 C514 0.930 . S
H509 C517 0.930 . S
H510 C518 0.930 . S
H511 C519 0.930 . S
H512 C522 0.930 1_554 S
H513 C523 0.930 . S
C514 H508 0.930 . S
C514 C515 1.355 . S
C514 C516 1.415 . S
C515 C514 1.355 . S
C515 C517 1.419 . S
C516 C514 1.415 . S
C516 C521 1.425 . S
C516 C523 1.409 . S
C517 H509 0.930 . S
C517 C515 1.419 . S
C517 C518 1.362 . S
C518 H510 0.930 . S
C518 C517 1.362 . S
C518 C521 1.409 . S
C519 H511 0.930 . S
C519 C520 1.355 . S
C519 C521 1.415 . S
C520 C519 1.355 . S
C520 C522 1.419 . S
C521 C516 1.425 . S
C521 C518 1.409 . S
C521 C519 1.415 . S
C522 H512 0.930 1_556 S
C522 C520 1.419 . S
C522 C523 1.362 . S
C523 H513 0.930 . S
C523 C516 1.409 . S
C523 C522 1.362 . S
H524 C530 0.930 . S
H525 C533 0.930 . S
H526 C534 0.930 . S
H527 C535 0.930 . S
H528 C538 0.930 . S
H529 C539 0.930 . S
C530 H524 0.930 . S
C530 C531 1.355 1_455 S
C530 C532 1.415 . S
C531 C530 1.355 1_655 S
C531 C533 1.419 . S
C532 C530 1.415 . S
C532 C537 1.425 1_455 S
C532 C539 1.409 . S
C533 H525 0.930 . S
C533 C531 1.419 . S
C533 C534 1.362 . S
C534 H526 0.930 . S
C534 C533 1.362 . S
C534 C537 1.409 . S
C535 H527 0.930 . S
C535 C536 1.355 1_655 S
C535 C537 1.415 . S
C536 C535 1.355 1_455 S
C536 C538 1.419 . S
C537 C532 1.425 1_655 S
C537 C534 1.409 . S
C537 C535 1.415 . S
C538 H528 0.930 . S
C538 C536 1.419 . S
C538 C539 1.362 . S
C539 H529 0.930 . S
C539 C532 1.409 . S
C539 C538 1.362 . S
C259 C2 1.344 . S
C264 C243 1.425 . S
C275 C22 1.427 . S
C280 C179 1.460 . S
C291 C44 1.461 . S
C296 C211 1.505 . S
C307 C4 1.562 . S
C312 C237 1.617 . S
C328 C173 1.627 . S
C323 C24 1.501 . S
C344 C205 1.549 . S
C339 C42 1.532 . S
C355 C32 1.341 . S
C360 C115 1.371 . S
C371 C49 1.307 . S
C376 C147 1.287 . S
C387 C9 1.299 . S
C392 C77 1.228 . S
C408 C109 1.313 . S
C403 C29 1.217 . S
C424 C141 1.318 . S
C419 C52 1.279 . S
C435 C12 1.316 . S
C440 C83 1.306 . S
C456 C153 1.399 1_554 S
C451 C18 1.436 1_455 S
C467 C38 1.429 . S
C472 C89 1.373 . S
C483 C58 1.436 . S
C488 C121 1.405 . S
C504 C217 1.474 . S
C499 C39 1.502 . S
C520 C249 1.483 1_556 S
C515 C59 1.466 . S
C531 C19 1.494 1_655 S
C536 C185 1.451 . S
