# Generated by pormake.
# Topology zzz, (3,6)-cn, num edge types: 1
# Building blocks:
#     Node 0, Type 0, BuildingBlock: CUQRIR_clean_linker_1, # of connection points: 3
#     Node 1, Type 0, BuildingBlock: CUQRIR_clean_linker_1, # of connection points: 3
#     Node 2, Type 0, BuildingBlock: CUQRIR_clean_linker_1, # of connection points: 3
#     Node 3, Type 0, BuildingBlock: CUQRIR_clean_linker_1, # of connection points: 3
#     Node 4, Type 0, BuildingBlock: CUQRIR_clean_linker_1, # of connection points: 3
#     Node 5, Type 0, BuildingBlock: CUQRIR_clean_linker_1, # of connection points: 3
#     Node 6, Type 0, BuildingBlock: CUQRIR_clean_linker_1, # of connection points: 3
#     Node 7, Type 0, BuildingBlock: CUQRIR_clean_linker_1, # of connection points: 3
#     Node 8, Type 1, BuildingBlock: KUMBOL_clean_sbu_1, # of connection points: 6
#     Node 9, Type 1, BuildingBlock: KUMBOL_clean_sbu_1, # of connection points: 6
#     Node 10, Type 1, BuildingBlock: KUMBOL_clean_sbu_1, # of connection points: 6
#     Node 11, Type 1, BuildingBlock: KUMBOL_clean_sbu_1, # of connection points: 6
#     Edge 12, Type (0, 1), BuildingBlock: CIFDUS_clean_linker_0, # of connection points: 2
#     Edge 13, Type (0, 1), BuildingBlock: CIFDUS_clean_linker_0, # of connection points: 2
#     Edge 14, Type (0, 1), BuildingBlock: CIFDUS_clean_linker_0, # of connection points: 2
#     Edge 15, Type (0, 1), BuildingBlock: CIFDUS_clean_linker_0, # of connection points: 2
#     Edge 16, Type (0, 1), BuildingBlock: CIFDUS_clean_linker_0, # of connection points: 2
#     Edge 17, Type (0, 1), BuildingBlock: CIFDUS_clean_linker_0, # of connection points: 2
#     Edge 18, Type (0, 1), BuildingBlock: CIFDUS_clean_linker_0, # of connection points: 2
#     Edge 19, Type (0, 1), BuildingBlock: CIFDUS_clean_linker_0, # of connection points: 2
#     Edge 20, Type (0, 1), BuildingBlock: CIFDUS_clean_linker_0, # of connection points: 2
#     Edge 21, Type (0, 1), BuildingBlock: CIFDUS_clean_linker_0, # of connection points: 2
#     Edge 22, Type (0, 1), BuildingBlock: CIFDUS_clean_linker_0, # of connection points: 2
#     Edge 23, Type (0, 1), BuildingBlock: CIFDUS_clean_linker_0, # of connection points: 2
#     Edge 24, Type (0, 1), BuildingBlock: CIFDUS_clean_linker_0, # of connection points: 2
#     Edge 25, Type (0, 1), BuildingBlock: CIFDUS_clean_linker_0, # of connection points: 2
#     Edge 26, Type (0, 1), BuildingBlock: CIFDUS_clean_linker_0, # of connection points: 2
#     Edge 27, Type (0, 1), BuildingBlock: CIFDUS_clean_linker_0, # of connection points: 2
#     Edge 28, Type (0, 1), BuildingBlock: CIFDUS_clean_linker_0, # of connection points: 2
#     Edge 29, Type (0, 1), BuildingBlock: CIFDUS_clean_linker_0, # of connection points: 2
#     Edge 30, Type (0, 1), BuildingBlock: CIFDUS_clean_linker_0, # of connection points: 2
#     Edge 31, Type (0, 1), BuildingBlock: CIFDUS_clean_linker_0, # of connection points: 2
#     Edge 32, Type (0, 1), BuildingBlock: CIFDUS_clean_linker_0, # of connection points: 2
#     Edge 33, Type (0, 1), BuildingBlock: CIFDUS_clean_linker_0, # of connection points: 2
#     Edge 34, Type (0, 1), BuildingBlock: CIFDUS_clean_linker_0, # of connection points: 2
#     Edge 35, Type (0, 1), BuildingBlock: CIFDUS_clean_linker_0, # of connection points: 2
# Relax obj value: 0.252
# Max RMSD: 0.125
# Mean RMSD: 0.093
data_MOF--net-zzz--node1-KUMBOL_clean_sbu_1--node2-CUQRIR_clean_linker_1--edge1-CIFDUS_clean_linker_0
_symmetry_space_group_name_H-M    P1
_symmetry_Int_Tables_number       1
_symmetry_cell_setting            triclinic
loop_
_symmetry_equiv_pos_as_xyz
'x, y, z'
_cell_length_a     40.801711
_cell_length_b     40.915309
_cell_length_c     12.469574
_cell_angle_alpha  89.997173
_cell_angle_beta   89.796506
_cell_angle_gamma 90.306666
loop_
_atom_site_label
_atom_site_type_symbol
_atom_site_fract_x
_atom_site_fract_y
_atom_site_fract_z
_atom_type_partial_charge
C0 C 0.75583 0.54893 0.33789 0.0
N1 N 0.78868 0.5413 0.34839 0.0
N2 N 0.74392 0.54152 0.23659 0.0
C3 C 0.73512 0.56156 0.42777 0.0
C4 C 0.77132 0.53009 0.18731 0.0
N5 N 0.79722 0.5287 0.25431 0.0
C6 C 0.7736 0.5212 0.07009 0.0
H7 H 0.70918 0.55397 0.41724 0.0
H8 H 0.73636 0.58865 0.42766 0.0
H9 H 0.74449 0.55272 0.50599 0.0
H10 H 0.75535 0.53492 0.02234 0.0
H11 H 0.76914 0.49466 0.05922 0.0
H12 H 0.79859 0.52662 0.03918 0.0
C13 C 1.00444 0.75258 0.35374 0.0
N14 N 1.01408 0.78482 0.36513 0.0
N15 N 1.01371 0.73964 0.25516 0.0
C16 C 0.98723 0.73348 0.43954 0.0
C17 C 0.02847 0.76575 0.20753 0.0
N18 N 0.02856 0.79205 0.27275 0.0
C19 C 0.04055 0.76694 0.09315 0.0
H20 H 0.9955 0.70768 0.43868 0.0
H21 H 0.9605 0.73378 0.42365 0.0
H22 H 0.99168 0.7445 0.51953 0.0
H23 H 0.02634 0.75009 0.0412 0.0
H24 H 0.06679 0.75999 0.09085 0.0
H25 H 0.03866 0.79203 0.06007 0.0
C26 C 0.79057 0.02068 0.34652 0.0
N27 N 0.76 1.00652 0.35816 0.0
N28 N 0.80954 1.00494 0.27041 0.0
C29 C 0.80123 0.0508 0.40512 0.0
C30 C 0.78876 0.98134 0.23512 0.0
N31 N 0.75907 0.98283 0.2848 0.0
C32 C 0.79576 0.95979 0.13964 0.0
H33 H 0.82837 0.05207 0.40992 0.0
H34 H 0.79036 0.05118 0.48684 0.0
H35 H 0.79237 0.07257 0.36108 0.0
H36 H 0.81751 0.94451 0.15596 0.0
H37 H 0.80136 0.97521 0.06857 0.0
H38 H 0.7749 0.94326 0.12107 0.0
C39 C 0.5594 0.79695 0.36327 0.0
N40 N 0.54632 0.7659 0.37415 0.0
N41 N 0.54966 0.81199 0.26876 0.0
C42 C 0.5813 0.81235 0.44496 0.0
C43 C 0.53154 0.78797 0.22203 0.0
N44 N 0.52901 0.76134 0.28559 0.0
C45 C 0.52012 0.78817 0.1069 0.0
H46 H 0.57362 0.80481 0.52683 0.0
H47 H 0.5812 0.83933 0.43785 0.0
H48 H 0.60668 0.8036 0.43167 0.0
H49 H 0.53586 0.80416 0.05634 0.0
H50 H 0.49445 0.79687 0.1031 0.0
H51 H 0.52062 0.76311 0.07287 0.0
C52 C 0.30036 0.51205 0.10997 0.0
N53 N 0.26838 0.52244 0.10108 0.0
N54 N 0.31463 0.52197 0.20558 0.0
C55 C 0.31787 0.49351 0.02404 0.0
C56 C 0.28973 0.53837 0.2536 0.0
N57 N 0.26266 0.53855 0.19137 0.0
C58 C 0.2907 0.55216 0.36542 0.0
H59 H 0.30481 0.47007 1.00949 0.0
H60 H 0.34369 0.48867 0.04626 0.0
H61 H 0.31719 0.50774 0.94832 0.0
H62 H 0.30089 0.57734 0.36241 0.0
H63 H 0.30633 0.53707 0.41831 0.0
H64 H 0.26572 0.55347 0.40064 0.0
C65 C 0.04411 0.29403 0.13861 0.0
N66 N 0.02979 0.26344 0.12696 0.0
N67 N 0.03357 0.31008 0.23085 0.0
C68 C 0.06728 0.30859 0.05885 0.0
C69 C 1.01349 0.28729 0.27544 0.0
N70 N 1.01058 0.26061 0.2123 0.0
C71 C 1.00075 0.28833 0.3896 0.0
H72 H 0.09276 0.3035 0.08444 0.0
H73 H 0.06394 0.33543 0.05598 0.0
H74 H 0.06341 0.29777 0.97824 0.0
H75 H 0.97519 0.29744 0.38999 0.0
H76 H 0.01615 0.30419 0.44123 0.0
H77 H 1.0004 0.26353 0.42567 0.0
C78 C 0.24317 0.05635 0.11573 0.0
N79 N 0.27591 0.0654 0.11563 0.0
N80 N 0.22752 0.06379 0.21169 0.0
C81 C 0.22638 0.04084 0.02215 0.0
C82 C 0.25217 0.07723 0.26912 0.0
N83 N 0.28071 0.07768 0.2136 0.0
C84 C 0.24984 0.08454 0.38738 0.0
H85 H 0.23645 0.05078 0.946 0.0
H86 H 0.19958 0.04522 0.02603 0.0
H87 H 0.23097 1.01416 0.02318 0.0
H88 H 0.25368 0.06161 0.43313 0.0
H89 H 0.22528 0.09422 0.40822 0.0
H90 H 0.2689 0.1025 0.41164 0.0
C91 C 0.5169 0.25389 0.1361 0.0
N92 N 0.51414 0.28746 0.13408 0.0
N93 N 0.50941 0.24103 0.23583 0.0
C94 C 0.52969 0.23409 0.04435 0.0
C95 C 0.50295 0.26826 0.29352 0.0
N96 N 0.50724 0.29592 0.23483 0.0
C97 C 0.49721 0.26811 0.41293 0.0
H98 H 0.52162 0.24473 0.967 0.0
H99 H 0.52132 0.2083 0.05103 0.0
H100 H 0.55687 0.23461 0.04611 0.0
H101 H 0.52031 0.26176 0.45459 0.0
H102 H 0.47869 0.2492 0.43402 0.0
H103 H 0.48871 0.29234 0.44147 0.0
C104 C 0.10717 0.06842 0.91881 0.0
C105 C 0.08465 0.0933 0.07946 0.0
C106 C 0.08208 0.07082 0.99396 0.0
C107 C 0.1127 0.1131 0.08836 0.0
C108 C 0.13561 0.08795 0.92869 0.0
C109 C 0.13814 0.11036 1.01344 0.0
N110 N 0.10353 0.04737 0.83518 0.0
C111 C 0.12841 0.04331 0.76279 0.0
C112 C 0.16071 0.08443 0.85295 0.0
C113 C 0.15721 0.06176 0.77027 0.0
Gd114 Gd 0.98504 0.03022 0.64613 0.0
Gd115 Gd 0.05485 1.01599 0.83263 0.0
N116 N 0.0545 0.05238 0.98019 0.0
C117 C 0.05855 0.09589 0.15186 0.0
C118 C 0.02957 0.05406 0.05331 0.0
C119 C 0.03093 0.07617 0.13867 0.0
H120 H 1.0088 0.03806 0.04873 0.0
H121 H 1.01083 0.07756 0.19539 0.0
H122 H 0.02609 0.04571 0.4084 0.0
H123 H 0.12686 0.02475 0.70192 0.0
H124 H 0.03776 0.01633 0.24241 0.0
H125 H 0.0595 0.11294 0.21826 0.0
H126 H 0.11486 0.13087 0.15234 0.0
H127 H 0.92765 0.98488 0.77385 0.0
H128 H 0.18307 0.09872 0.85854 0.0
H129 H 0.17684 0.05818 0.71293 0.0
H130 H 0.96364 0.92581 0.24903 0.0
H131 H 0.15963 0.12583 0.02147 0.0
H132 H 0.89456 0.91133 0.55556 0.0
H133 H 0.89094 0.93857 0.7321 0.0
N134 N 0.95271 0.98308 0.62387 0.0
C135 C 0.95444 0.96918 0.52461 0.0
C136 C 0.9299 0.97268 0.69751 0.0
C137 C 0.91076 0.93166 0.5734 0.0
C138 C 0.90881 0.94677 0.67352 0.0
C139 C 0.93382 0.94262 0.49785 0.0
H140 H 0.92216 0.90641 0.3771 0.0
N141 N 0.99626 1.00765 0.4756 0.0
C142 C 0.9777 0.9808 0.45093 0.0
C143 C 1.00374 0.97752 0.27654 0.0
C144 C 0.98099 0.96519 0.3504 0.0
C145 C 1.01547 0.02182 0.39805 0.0
C146 C 0.02088 1.00606 0.30035 0.0
O147 O 0.04644 0.07149 0.81023 0.0
O148 O 0.99278 0.07501 0.75829 0.0
O149 O 0.96464 0.06395 0.52894 0.0
O150 O 0.933 0.03678 0.63579 0.0
O151 O 1.00252 1.00064 0.8963 0.0
O152 O 0.96821 0.03705 0.81728 0.0
O153 O 0.99602 0.97579 0.68926 0.0
O154 O 0.0508 0.97646 0.70225 0.0
O155 O 0.05673 0.98156 0.96474 0.0
O156 O 0.09908 0.98907 0.86157 0.0
O157 O 0.03572 0.05165 0.5902 0.0
O158 O 0.07025 1.01352 0.65701 0.0
C159 C 0.01912 0.08848 0.80302 0.0
C160 C 0.97408 0.01664 0.89536 0.0
C161 C 0.9144 0.08739 0.58153 0.0
C162 C 0.89733 0.13847 0.50663 0.0
C163 C 0.89205 0.12916 0.69805 0.0
C164 C 0.90647 0.09849 0.6851 0.0
C165 C 0.88847 0.1497 0.60923 0.0
C166 C 0.90594 0.10579 0.49291 0.0
C167 C 0.93469 0.05885 0.56244 0.0
C168 C 0.96117 0.93813 0.32551 0.0
C169 C 0.93743 0.92715 0.39827 0.0
H170 H 1.00742 0.96585 0.19943 0.0
C171 C 0.024 0.96035 0.67641 0.0
C172 C 0.06446 0.03639 0.586 0.0
C173 C 0.10943 0.97649 0.04175 0.0
C174 C 0.12315 0.94896 0.2078 0.0
C175 C 0.16261 0.98493 0.12288 0.0
C176 C 0.14033 0.99175 0.04115 0.0
C177 C 0.15439 0.96311 0.2048 0.0
C178 C 0.10077 0.95629 0.12623 0.0
C179 C 0.08783 0.97596 0.94863 0.0
H180 H 0.88627 0.13803 0.77762 0.0
H181 H 0.91233 0.08413 0.75538 0.0
H182 H 0.88175 0.17497 0.62211 0.0
H183 H 0.91222 0.09681 0.41344 0.0
H184 H 0.18693 0.99509 0.12019 0.0
H185 H 0.14791 1.00738 0.97547 0.0
H186 H 0.17271 0.95636 0.26317 0.0
H187 H 0.07743 0.94353 0.12147 0.0
C188 C 0.50152 0.92407 0.66114 0.0
C189 C 0.44971 0.90749 0.74029 0.0
C190 C 0.47238 0.9322 0.71174 0.0
C191 C 0.45482 0.87534 0.70519 0.0
C192 C 0.50778 0.89144 0.63218 0.0
C193 C 0.48374 0.86736 0.65057 0.0
N194 N 0.52475 0.94773 0.64831 0.0
C195 C 0.55506 0.94021 0.60886 0.0
C196 C 0.53836 0.88381 0.58843 0.0
C197 C 0.56224 0.9082 0.57766 0.0
Gd198 Gd 0.54097 0.05736 0.85913 0.0
Gd199 Gd 0.50502 1.00133 0.66135 0.0
N200 N 0.4687 0.96346 0.74654 0.0
C201 C 0.424 0.9153 0.80997 0.0
C202 C 0.44644 0.96966 0.82639 0.0
C203 C 0.42321 0.94619 0.85669 0.0
H204 H 0.44775 0.99129 0.87388 0.0
H205 H 0.40543 0.95166 0.91876 0.0
H206 H 0.61919 0.04162 0.92392 0.0
H207 H 0.5731 0.95915 0.59562 0.0
H208 H 0.67299 0.0694 0.9121 0.0
H209 H 0.40632 0.89695 0.83494 0.0
H210 H 0.43733 0.85618 0.72442 0.0
H211 H 0.48423 0.11533 0.82016 0.0
H212 H 0.54389 0.85901 0.56524 0.0
H213 H 0.58598 0.90246 0.54381 0.0
H214 H 0.64748 0.17685 0.78251 0.0
H215 H 0.48792 0.84221 0.62718 0.0
H216 H 0.53408 0.2045 0.74263 0.0
H217 H 0.48243 0.17377 0.77218 0.0
N218 N 0.53625 0.11286 0.81534 0.0
C219 C 0.56493 0.12969 0.8058 0.0
C220 C 0.50685 0.12856 0.8085 0.0
C221 C 0.535 0.17886 0.76407 0.0
C222 C 0.50578 0.16163 0.78084 0.0
C223 C 0.56507 0.16306 0.7781 0.0
H224 H 0.59573 0.20529 0.74541 0.0
N225 N 0.59295 0.08191 0.8599 0.0
C226 C 0.59414 0.11357 0.82686 0.0
C227 C 0.65292 0.11414 0.84947 0.0
C228 C 0.62421 0.13053 0.82056 0.0
C229 C 0.62061 0.06629 0.89311 0.0
C230 C 0.65104 0.082 0.8871 0.0
O231 O 0.51905 0.9741 0.8125 0.0
O232 O 0.55386 1.00442 0.91565 0.0
O233 O 0.55794 0.0831 0.99995 0.0
O234 O 0.51292 0.05491 1.00633 0.0
O235 O 0.45969 0.02917 0.72661 0.0
O236 O 0.48382 0.05635 0.86773 0.0
O237 O 0.53671 0.0799 0.6886 0.0
O238 O 0.49206 0.05419 0.61914 0.0
O239 O 0.47169 0.98513 0.53675 0.0
O240 O 0.52368 0.99081 0.50459 0.0
O241 O 0.57958 0.02292 0.78715 0.0
O242 O 0.55776 0.02066 0.62179 0.0
C243 C 0.5389 0.97628 0.89456 0.0
C244 C 0.45697 0.04709 0.81523 0.0
C245 C 0.54532 0.05721 0.16008 0.0
C246 C 0.58148 0.01934 0.25118 0.0
C247 C 0.54465 0.05398 0.35282 0.0
C248 C 0.53286 0.06777 0.25843 0.0
C249 C 0.56899 0.03024 0.34963 0.0
C250 C 0.56905 0.0328 0.15666 0.0
C251 C 0.53444 0.07183 0.06036 0.0
C252 C 0.62457 0.16348 0.78867 0.0
C253 C 0.59509 0.1797 0.76761 0.0
H254 H 0.67652 0.12633 0.84566 0.0
C255 C 0.51233 0.07936 0.61933 0.0
C256 C 0.58416 0.02061 0.68288 0.0
C257 C 0.4898 0.99367 0.35837 0.0
C258 C 0.4562 0.02082 0.2291 0.0
C259 C 0.50301 0.99042 0.17029 0.0
C260 C 0.50961 0.98171 0.27567 0.0
C261 C 0.47545 1.00866 0.14584 0.0
C262 C 0.46431 1.01477 0.33558 0.0
C263 C 0.49536 0.98256 0.46655 0.0
H264 H 0.53503 0.06143 0.42884 0.0
H265 H 0.51416 0.08644 0.26214 0.0
H266 H 0.5782 0.02077 0.4242 0.0
H267 H 0.5781 0.02473 0.07986 0.0
H268 H 0.51914 0.983 0.10808 0.0
H269 H 0.53022 0.96594 0.29263 0.0
H270 H 0.46848 1.01227 0.06297 0.0
H271 H 0.44853 0.02349 0.39968 0.0
C272 C 0.45376 0.48057 0.9784 0.0
C273 C 0.47713 0.47617 0.15662 0.0
C274 C 0.47741 0.49019 0.0531 0.0
C275 C 0.45419 0.45173 0.18222 0.0
C276 C 0.42994 0.45681 1.00575 0.0
C277 C 0.43063 0.44214 0.10728 0.0
N278 N 0.45403 0.49429 0.87886 0.0
C279 C 0.4301 0.48695 0.80591 0.0
C280 C 0.40604 0.44841 0.9301 0.0
C281 C 0.40603 0.46369 0.83003 0.0
Gd282 Gd 0.55699 0.51597 0.66241 0.0
Gd283 Gd 0.49141 0.53727 0.85615 0.0
N284 N 0.49962 0.51401 0.02675 0.0
C285 C 0.49971 0.48728 0.23239 0.0
C286 C 0.52045 0.52609 0.1031 0.0
C287 C 0.52158 0.51214 0.20508 0.0
H288 H 0.53539 0.54739 0.08888 0.0
H289 H 0.53915 0.52082 0.26302 0.0
H290 H 0.51385 0.54628 0.45269 0.0
H291 H 0.42937 0.49935 0.7297 0.0
H292 H 0.52143 0.58524 0.3058 0.0
H293 H 0.50023 0.47704 0.31251 0.0
H294 H 0.45442 0.44017 0.26035 0.0
H295 H 0.62994 0.51358 0.78865 0.0
H296 H 0.38735 0.43034 0.94845 0.0
H297 H 0.38735 0.45773 0.77172 0.0
H298 H 0.63258 0.62175 0.34218 0.0
H299 H 0.41284 0.42352 0.12905 0.0
H300 H 0.69499 0.58139 0.63769 0.0
H301 H 0.68343 0.54122 0.78123 0.0
N302 N 0.60942 0.54074 0.66047 0.0
C303 C 0.6158 0.56163 0.57794 0.0
C304 C 0.63367 0.53275 0.73095 0.0
C305 C 0.67097 0.57007 0.64298 0.0
C306 C 0.66449 0.54763 0.72455 0.0
C307 C 0.6467 0.577 0.56748 0.0
H308 H 0.67605 0.61064 0.47279 0.0
N309 N 0.56138 0.55346 0.51835 0.0
C310 C 0.59134 0.56771 0.50352 0.0
C311 C 0.57148 0.59613 0.3468 0.0
C312 C 0.59704 0.58962 0.41795 0.0
C313 C 0.53678 0.55897 0.44663 0.0
C314 C 0.54121 0.58081 0.36149 0.0
O315 O 0.49713 0.48238 0.81021 0.0
O316 O 0.55135 0.47534 0.79102 0.0
O317 O 0.55151 0.48082 0.53447 0.0
O318 O 0.59833 0.48677 0.61466 0.0
O319 O 0.54387 0.5546 0.90552 0.0
O320 O 0.57266 0.51233 0.83732 0.0
O321 O 0.55204 0.57245 0.6733 0.0
O322 O 0.50318 0.58331 0.75744 0.0
O323 O 0.47421 0.56878 0.98374 0.0
O324 O 0.44094 0.554 0.85399 0.0
O325 O 0.5034 0.50639 0.59849 0.0
O326 O 0.47505 0.5459 0.68612 0.0
C327 C 0.52289 0.46326 0.82192 0.0
C328 C 0.57074 0.53645 0.90633 0.0
C329 C 0.59971 0.4779 0.429 0.0
C330 C 0.60032 0.45557 0.25027 0.0
C331 C 0.65059 0.47614 0.32884 0.0
C332 C 0.63347 0.48453 0.42178 0.0
C333 C 0.63432 0.46008 0.24537 0.0
C334 C 0.58299 0.46697 0.33916 0.0
C335 C 0.58297 0.47507 0.5325 0.0
C336 C 0.62777 0.60485 0.4073 0.0
C337 C 0.6525 0.59859 0.48192 0.0
H338 H 0.57487 0.61285 0.28025 0.0
C339 C 0.52841 0.59306 0.69847 0.0
C340 C 0.47718 0.52551 0.60564 0.0
C341 C 0.41803 0.58684 0.99503 0.0
C342 C 0.40342 0.63081 0.11454 0.0
C343 C 0.36191 0.59217 0.05697 0.0
C344 C 0.38561 0.57527 0.99733 0.0
C345 C 0.37082 0.61988 0.11659 0.0
C346 C 0.42622 0.61512 0.04902 0.0
C347 C 0.44457 0.56889 0.94476 0.0
H348 H 0.67694 0.47894 0.32678 0.0
H349 H 0.64703 0.49366 0.49012 0.0
H350 H 0.64837 0.44839 0.18266 0.0
H351 H 0.5572 0.46077 0.34719 0.0
H352 H 0.3369 0.58326 0.05951 0.0
H353 H 0.37887 0.55302 0.95554 0.0
H354 H 0.35274 0.63213 0.16573 0.0
H355 H 0.4512 0.62433 0.04325 0.0
C356 C 0.05974 0.44397 0.95157 0.0
C357 C 0.08413 0.46907 0.10891 0.0
C358 C 0.06345 0.47098 0.01858 0.0
C359 C 0.10037 0.43978 0.13186 0.0
C360 C 0.07659 0.41471 0.97352 0.0
C361 C 0.09655 0.41266 0.06463 0.0
N362 N 0.04134 0.44699 0.86134 0.0
C363 C 0.03754 0.42117 0.79295 0.0
C364 C 0.07372 0.38867 0.90139 0.0
C365 C 0.05388 0.39183 0.81127 0.0
Gd366 Gd 0.03966 0.55542 0.63093 0.0
Gd367 Gd 1.01326 0.49657 0.84194 0.0
N368 N 0.04815 0.49945 0.99263 0.0
C369 C 0.08842 0.49684 0.17266 0.0
C370 C 0.05113 0.52604 0.05813 0.0
C371 C 0.07193 0.52547 0.14684 0.0
H372 H 0.03663 0.54737 0.04673 0.0
H373 H 0.07409 0.54674 0.198 0.0
H374 H 0.04434 0.50615 0.40674 0.0
H375 H 0.02097 0.42253 0.72628 0.0
H376 H 1.01415 0.49857 0.24037 0.0
H377 H 0.10402 0.49632 0.24276 0.0
H378 H 0.1164 0.43803 0.20064 0.0
H379 H 1.01066 0.62496 0.73726 0.0
H380 H 0.08687 0.3661 0.91404 0.0
H381 H 0.05093 0.37156 0.7563 0.0
H382 H 0.94268 0.59051 0.22385 0.0
H383 H 0.10961 0.39036 0.08277 0.0
H384 H 0.94375 0.6669 0.51416 0.0
H385 H 0.97272 0.66896 0.68783 0.0
N386 N 1.00221 0.5973 0.59552 0.0
C387 C 0.98769 0.59638 0.49729 0.0
C388 C 0.99755 0.62326 0.6627 0.0
C389 C 0.96029 0.64736 0.53573 0.0
C390 C 0.9764 0.64851 0.63417 0.0
C391 C 0.96578 0.62113 0.46599 0.0
H392 H 0.9323 0.63724 0.34284 0.0
N393 N 1.01542 0.5464 0.46124 0.0
C394 C 0.99371 0.56981 0.43003 0.0
C395 C 0.98469 0.54144 0.26239 0.0
C396 C 0.9777 0.56774 0.32998 0.0
C397 C 0.02421 0.52228 0.3909 0.0
C398 C 1.00807 0.51867 0.29306 0.0
O399 O 0.06919 0.495 0.80987 0.0
O400 O 0.08277 0.54555 0.74735 0.0
O401 O 0.07581 0.56395 0.50606 0.0
O402 O 0.06455 0.60192 0.62198 0.0
O403 O 1.00227 0.55092 0.88778 0.0
O404 O 0.04458 0.57509 0.79968 0.0
O405 O 0.98264 0.55476 0.6596 0.0
O406 O 0.97311 0.50296 0.7161 0.0
O407 O 0.9805 0.49646 0.9791 0.0
O408 O 0.98147 0.45526 0.86965 0.0
O409 O 0.05151 0.50086 0.59025 0.0
O410 O 1.00728 0.47833 0.67148 0.0
C411 C 0.09122 0.51855 0.79797 0.0
C412 C 0.02218 0.57636 0.87517 0.0
C413 C 0.08118 0.619 0.44984 0.0
C414 C 0.11122 0.6383 0.29392 0.0
C415 C 0.07128 0.67335 0.3795 0.0
C416 C 0.064 0.64866 0.45388 0.0
C417 C 0.09546 0.66849 0.30109 0.0
C418 C 0.10406 0.61401 0.36966 0.0
C419 C 0.07997 0.59436 0.53463 0.0
C420 C 0.95537 0.592 0.2999 0.0
C421 C 0.94953 0.61866 0.36745 0.0
H422 H 0.97272 0.5389 0.1854 0.0
C423 C 0.96232 0.52957 0.66899 0.0
C424 C 0.03024 0.47636 0.59784 0.0
C425 C 0.97272 0.44343 0.05157 0.0
C426 C 0.95097 0.43192 0.22845 0.0
C427 C 0.97286 0.38793 0.11981 0.0
C428 C 0.98064 0.41024 0.03873 0.0
C429 C 0.95648 0.39853 0.21201 0.0
C430 C 0.96003 0.45417 0.14838 0.0
C431 C 0.97158 0.46626 0.96135 0.0
H432 H 0.05894 0.69663 0.38487 0.0
H433 H 0.04617 0.65331 0.51637 0.0
H434 H 0.10225 0.68819 0.24749 0.0
H435 H 0.11808 0.59152 0.37106 0.0
H436 H 0.97751 0.36216 0.10802 0.0
H437 H 0.99087 0.40121 0.96432 0.0
H438 H 0.94677 0.38075 0.26804 0.0
H439 H 0.95298 0.47962 0.15516 0.0
H440 H 0.16857 0.09547 0.23982 0.0
H441 H 0.21922 1.00682 0.317 0.0
H442 H 0.17435 0.99052 0.4375 0.0
H443 H 0.12026 1.00113 0.52442 0.0
H444 H 0.07024 0.09113 0.45499 0.0
H445 H 0.11395 0.10636 0.32912 0.0
C446 C 0.16912 0.07189 0.27914 0.0
C447 C 0.19698 0.0515 0.2624 0.0
C448 C 0.14288 0.06272 0.35097 0.0
C449 C 0.19783 0.0223 0.32247 0.0
C450 C 0.17214 1.01316 0.39311 0.0
C451 C 0.11863 0.02415 0.48183 0.0
C452 C 0.09117 0.04487 0.50197 0.0
C453 C 0.14435 0.03301 0.40823 0.0
C454 C 0.09034 0.07432 0.44309 0.0
C455 C 0.1156 0.0831 0.36987 0.0
H456 H 0.46637 0.19172 0.28782 0.0
H457 H 0.56766 0.21995 0.31129 0.0
H458 H 0.57779 0.17416 0.43428 0.0
H459 H 0.55726 0.12669 0.54428 0.0
H460 H 0.4565 0.0964 0.50991 0.0
H461 H 0.44708 0.14124 0.38419 0.0
C462 C 0.49094 0.18716 0.31661 0.0
C463 C 0.51649 0.2091 0.28576 0.0
C464 C 0.49662 0.16033 0.38832 0.0
C465 C 0.54779 0.20314 0.32909 0.0
C466 C 0.55345 0.17705 0.40131 0.0
C467 C 0.53315 0.12984 0.50974 0.0
C468 C 0.50747 0.10783 0.54019 0.0
C469 C 0.52799 0.1556 0.43326 0.0
C470 C 0.47678 0.11259 0.4909 0.0
C471 C 0.47134 0.13845 0.41791 0.0
H472 H 0.35646 0.56654 0.30435 0.0
H473 H 0.35262 0.49545 0.25509 0.0
H474 H 0.40405 0.45417 0.35087 0.0
H475 H 0.44612 0.47695 0.47368 0.0
H476 H 0.44575 0.58017 0.54188 0.0
H477 H 0.39954 0.58772 0.42266 0.0
C478 C 0.36621 0.54212 0.31283 0.0
C479 C 0.34875 0.51397 0.25874 0.0
C480 C 0.39453 0.5369 0.37764 0.0
C481 C 0.36537 0.47964 0.27303 0.0
C482 C 0.39355 0.47811 0.3391 0.0
C483 C 0.43616 0.50115 0.46145 0.0
C484 C 0.45031 0.52794 0.51894 0.0
C485 C 0.4081 0.5053 0.39193 0.0
C486 C 0.43611 0.55885 0.50095 0.0
C487 C 0.40928 0.56328 0.43184 0.0
H488 H 0.98929 0.34949 0.32826 0.0
H489 H 0.0913 0.34654 0.2438 0.0
H490 H 0.10026 0.39809 0.34273 0.0
H491 H 0.07878 0.44403 0.46504 0.0
H492 H 0.97606 0.44132 0.55081 0.0
H493 H 0.96855 0.39236 0.44625 0.0
C494 C 1.01362 0.35995 0.33042 0.0
C495 C 0.03932 0.34327 0.27643 0.0
C496 C 0.01866 0.38917 0.39039 0.0
C497 C 0.07054 0.35829 0.2814 0.0
C498 C 0.07571 0.38798 0.33953 0.0
C499 C 0.05461 0.43313 0.45932 0.0
C500 C 0.02805 0.44741 0.51851 0.0
C501 C 0.04995 0.40381 0.39576 0.0
C502 C 0.99725 0.4318 0.50883 0.0
C503 C 0.99272 0.40345 0.4475 0.0
H504 H 0.86495 0.96797 0.23917 0.0
H505 H 0.82418 0.0624 0.17005 0.0
H506 H 0.87084 0.07461 0.05107 0.0
H507 H 0.92211 0.05717 0.95528 0.0
H508 H 0.96357 0.96312 0.02833 0.0
H509 H 0.9178 0.95191 0.15154 0.0
C510 C 0.86639 0.99146 0.19926 0.0
C511 C 0.84054 1.01433 0.2159 0.0
C512 C 0.89355 0.99824 0.12904 0.0
C513 C 0.84348 0.0445 0.16205 0.0
C514 C 0.87021 0.05132 0.09237 0.0
C515 C 0.92157 0.03428 0.999 0.0
C516 C 0.94702 1.01103 0.98024 0.0
C517 C 0.89527 0.02823 0.0735 0.0
C518 C 0.94511 0.98173 0.03961 0.0
C519 C 0.91874 0.9753 0.11112 0.0
H520 H 0.50355 0.84922 0.17202 0.0
H521 H 0.60516 0.85215 0.26167 0.0
H522 H 0.61176 0.90441 0.16419 0.0
H523 H 0.58881 0.94818 0.03525 0.0
H524 H 0.4891 0.93471 0.92979 0.0
H525 H 0.48273 0.8878 0.04188 0.0
C526 C 0.52756 0.86057 0.16897 0.0
C527 C 0.55381 0.84549 0.22421 0.0
C528 C 0.53189 0.88906 0.10508 0.0
C529 C 0.58412 0.86246 0.22177 0.0
C530 C 0.58803 0.89241 0.16378 0.0
C531 C 0.56579 0.93488 0.03593 0.0
C532 C 0.53949 0.94594 0.96896 0.0
C533 C 0.56221 0.90582 0.10195 0.0
C534 C 0.51016 0.92754 0.97488 0.0
C535 C 0.5062 0.90037 0.04157 0.0
H536 H 0.69051 0.58473 0.21484 0.0
H537 H 0.72046 0.4855 0.15423 0.0
H538 H 0.67326 0.47693 0.04016 0.0
H539 H 0.6207 0.49455 0.96575 0.0
H540 H 0.58651 0.59207 0.02744 0.0
H541 H 0.63478 0.60247 0.1408 0.0
C542 C 0.68616 0.56083 0.18019 0.0
C543 C 0.71042 0.536 0.19327 0.0
C544 C 0.65676 0.5549 0.1181 0.0
C545 C 0.70354 0.50555 0.14464 0.0
C546 C 0.67597 0.50035 0.07977 0.0
C547 C 0.62367 0.51836 1.00269 0.0
C548 C 0.59948 0.54258 0.98425 0.0
C549 C 0.65203 0.52444 0.06688 0.0
C550 C 0.60421 0.57272 0.03773 0.0
C551 C 0.6322 0.57877 0.10305 0.0
H552 H 0.05934 0.70501 0.14341 0.0
H553 H 0.95915 0.69939 0.24885 0.0
H554 H 0.95188 0.6486 0.14504 0.0
H555 H 0.97423 0.60516 0.01684 0.0
H556 H 0.07519 0.6145 0.91513 0.0
H557 H 0.08176 0.6627 0.02567 0.0
C558 C 0.03595 0.69256 0.14597 0.0
C559 C 1.01005 0.70669 0.20645 0.0
C560 C 0.03204 0.66316 0.08587 0.0
C561 C 0.97996 0.68949 0.20604 0.0
C562 C 0.97577 0.66021 0.14555 0.0
C563 C 0.99774 0.61756 0.01907 0.0
C564 C 0.02406 0.6054 0.95426 0.0
C565 C 1.00162 0.64661 0.08405 0.0
C566 C 0.05412 0.62261 0.96083 0.0
C567 C 0.05809 0.65056 0.02506 0.0
H568 H 0.94653 0.25938 0.24564 0.0
H569 H 0.03353 0.20032 0.24259 0.0
H570 H 1.00267 0.1539 0.31402 0.0
H571 H 0.95491 0.13488 0.40561 0.0
H572 H 0.86843 0.19489 0.43354 0.0
H573 H 0.89557 0.23754 0.32603 0.0
C574 C 0.95818 0.23599 0.25941 0.0
C575 C 0.99173 0.23251 0.23925 0.0
C576 C 0.94074 0.21042 0.3064 0.0
C577 C 1.00747 0.20276 0.25676 0.0
C578 C 0.98996 0.17659 0.29821 0.0
C579 C 0.94112 0.15655 0.38456 0.0
C580 C 0.9094 0.16163 0.42562 0.0
C581 C 0.95701 0.18072 0.32697 0.0
C582 C 0.89276 0.19058 0.40181 0.0
C583 C 0.90826 0.21479 0.34091 0.0
H584 H 0.30675 0.02149 0.25079 0.0
H585 H 0.32201 0.12467 0.28809 0.0
H586 H 0.38175 0.11633 0.29802 0.0
H587 H 0.42889 0.07968 0.2619 0.0
H588 H 0.40986 0.97998 0.16672 0.0
H589 H 0.35161 0.98693 0.20103 0.0
C590 C 0.32347 0.04178 0.26476 0.0
C591 C 0.31118 0.07339 0.26613 0.0
C592 C 0.35668 0.03748 0.25074 0.0
C593 C 0.33179 0.10014 0.28592 0.0
C594 C 0.36563 0.09542 0.28811 0.0
C595 C 0.41157 0.0601 0.24531 0.0
C596 C 0.42274 0.0297 0.21015 0.0
C597 C 0.37822 0.06448 0.26292 0.0
C598 C 0.40097 1.00384 0.19065 0.0
C599 C 0.36809 1.00745 0.21349 0.0
H600 H 0.48866 0.35808 0.20443 0.0
H601 H 0.5604 0.29753 0.35882 0.0
H602 H 0.60008 0.34181 0.35477 0.0
H603 H 0.61659 0.39465 0.28584 0.0
H604 H 0.54815 0.45408 0.11235 0.0
H605 H 0.50591 0.41145 0.13222 0.0
C606 C 0.51272 0.3552 0.23966 0.0
C607 C 0.52194 0.32466 0.2794 0.0
C608 C 0.53659 0.37949 0.22603 0.0
C609 C 0.55271 0.32102 0.32823 0.0
C610 C 0.57583 0.34586 0.3222 0.0
C611 C 0.59286 0.39765 0.24792 0.0
C612 C 0.58501 0.42738 0.19926 0.0
C613 C 0.56861 0.37426 0.26516 0.0
C614 C 0.55422 0.43134 0.15158 0.0
C615 C 0.52988 0.40771 0.1667 0.0
H616 H 0.25348 0.6028 0.21374 0.0
H617 H 0.20466 0.50935 0.21401 0.0
H618 H 0.15179 0.53575 0.1868 0.0
H619 H 0.11983 0.58504 0.17462 0.0
H620 H 0.16519 0.67691 0.25552 0.0
H621 H 0.21952 0.65318 0.22525 0.0
C622 C 0.23099 0.58858 0.21127 0.0
C623 C 0.23236 0.55442 0.2131 0.0
C624 C 0.20063 0.60403 0.20326 0.0
C625 C 0.20354 0.53577 0.21089 0.0
C626 C 0.17365 0.55075 0.1936 0.0
C627 C 0.14173 0.6 0.18277 0.0
C628 C 0.1388 0.63209 0.22062 0.0
C629 C 0.17204 0.58485 0.18884 0.0
C630 C 0.16691 0.65191 0.22761 0.0
C631 C 0.19791 0.63804 0.21438 0.0
H632 H 0.09195 0.80539 0.25591 0.0
H633 H 0.99564 0.84749 0.24736 0.0
H634 H 0.01884 0.90195 0.27833 0.0
H635 H 0.06603 0.9367 0.30793 0.0
H636 H 0.16261 0.89725 0.25856 0.0
H637 H 0.14045 0.8418 0.26958 0.0
C638 C 0.07645 0.82685 0.25683 0.0
C639 C 0.04247 0.8232 0.25001 0.0
C640 C 0.08992 0.85777 0.27389 0.0
C641 C 0.022 0.85053 0.25165 0.0
C642 C 0.03507 0.88122 0.27237 0.0
C643 C 0.08226 0.91581 0.30193 0.0
C644 C 0.1154 0.92088 0.27709 0.0
C645 C 0.0689 0.88491 0.28598 0.0
C646 C 0.13673 0.89402 0.27532 0.0
C647 C 0.12395 0.86235 0.27715 0.0
H648 H 0.70956 0.94633 0.36275 0.0
H649 H 0.74133 1.00287 0.09024 0.0
H650 H 0.68499 1.01255 0.03895 0.0
H651 H 0.63077 0.02034 0.10621 0.0
H652 H 0.59673 0.96852 0.3878 0.0
H653 H 0.65046 0.94316 0.4057 0.0
C654 C 0.70378 0.95953 0.28994 0.0
C655 C 0.72907 0.97461 0.23186 0.0
C656 C 0.67126 0.96738 0.26649 0.0
C657 C 0.722 0.99108 0.13599 0.0
C658 C 0.6898 0.99722 0.10803 0.0
C659 C 0.63402 1.00216 0.16825 0.0
C660 C 0.60987 0.99704 0.24697 0.0
C661 C 0.66461 0.98781 0.17787 0.0
C662 C 0.61536 0.97384 0.32817 0.0
C663 C 0.64594 0.95903 0.33781 0.0
H664 H 0.46524 0.76331 0.24381 0.0
H665 H 0.54712 0.69826 0.28016 0.0
H666 H 0.51043 0.65101 0.27053 0.0
H667 H 0.45643 0.62889 0.23743 0.0
H668 H 0.37902 0.69279 0.13405 0.0
H669 H 0.41142 0.74049 0.19097 0.0
C670 C 0.47483 0.73868 0.24796 0.0
C671 C 0.50832 0.73379 0.26586 0.0
C672 C 0.45408 0.71192 0.23352 0.0
C673 C 0.5211 0.70214 0.26999 0.0
C674 C 0.50022 0.67535 0.26461 0.0
C675 C 0.44646 0.65334 0.22907 0.0
C676 C 0.41576 0.65769 0.18094 0.0
C677 C 0.46676 0.68008 0.24591 0.0
C678 C 0.40258 0.6891 0.17176 0.0
C679 C 0.42139 0.71621 0.20165 0.0
H680 H 0.86144 0.5401 0.27965 0.0
H681 H 0.79025 0.46491 0.21144 0.0
H682 H 0.83233 0.42304 0.2275 0.0
H683 H 0.88984 0.40902 0.25665 0.0
H684 H 0.95671 0.48213 0.37382 0.0
H685 H 0.91457 0.52396 0.35669 0.0
C686 C 0.85527 0.51453 0.26912 0.0
C687 C 0.82318 0.50552 0.2432 0.0
C688 C 0.87815 0.49045 0.29345 0.0
C689 C 0.81519 0.47237 0.22835 0.0
C690 C 0.83886 0.44841 0.24111 0.0
C691 C 0.89462 0.43363 0.28529 0.0
C692 C 0.92681 0.44358 0.3067 0.0
C693 C 0.87026 0.4572 0.27548 0.0
C694 C 0.93225 0.47477 0.35069 0.0
C695 C 0.90858 0.49881 0.3374 0.0
H696 H 0.9829 0.22851 0.01606 0.0
H697 H 0.08699 0.23332 0.06767 0.0
H698 H 0.09351 0.1808 0.97358 0.0
H699 H 0.06924 0.13106 0.88163 0.0
H700 H 0.96449 0.12635 0.8386 0.0
H701 H 0.95899 0.17995 0.92262 0.0
C702 C 1.00725 0.2186 1.00489 0.0
C703 C 0.03455 0.23624 0.04855 0.0
C704 C 1.0107 0.18744 0.95265 0.0
C705 C 0.06554 0.22171 0.03343 0.0
C706 C 0.06917 0.19104 0.9806 0.0
C707 C 0.04508 0.14149 0.89069 0.0
C708 C 0.01726 0.12334 0.85233 0.0
C709 C 0.04191 0.17321 0.94074 0.0
C710 C 0.98655 0.13869 0.86526 0.0
C711 C 0.98332 0.16978 0.91415 0.0
H712 H 0.33012 0.1041 0.07062 0.0
H713 H 0.28783 1.01116 0.98461 0.0
H714 H 0.33696 0.99864 0.8783 0.0
H715 H 0.39466 1.01282 0.81354 0.0
H716 H 0.44011 0.10028 0.93812 0.0
H717 H 0.3887 0.1151 0.02522 0.0
C718 C 0.33138 0.08078 0.03011 0.0
C719 C 0.30364 0.05911 0.03768 0.0
C720 C 0.36134 0.07239 0.975 0.0
C721 C 0.30703 0.02939 0.9803 0.0
C722 C 0.33595 0.02183 0.92004 0.0
C723 C 0.39375 0.03513 0.85983 0.0
C724 C 0.42269 0.05549 0.86533 0.0
C725 C 0.36369 0.04295 0.91712 0.0
C726 C 0.41933 0.08403 0.9283 0.0
C727 C 0.38946 0.09262 0.97936 0.0
H728 H 0.47217 0.32504 0.01619 0.0
H729 H 0.57477 0.30966 0.07102 0.0
H730 H 0.58771 0.36117 0.97737 0.0
H731 H 0.56921 0.41517 0.89536 0.0
H732 H 0.46626 0.42738 0.83451 0.0
H733 H 0.45449 0.37465 0.91567 0.0
C734 C 0.49753 0.33207 1.00364 0.0
C735 C 0.52237 0.31202 0.04942 0.0
C736 C 0.50482 0.3626 0.95095 0.0
C737 C 0.55497 0.32316 0.0346 0.0
C738 C 0.56236 0.35329 0.98186 0.0
C739 C 0.54419 0.40625 0.89796 0.0
C740 C 0.51843 0.42736 0.86191 0.0
C741 C 0.53747 0.37396 0.94168 0.0
C742 C 0.48655 0.41381 0.86645 0.0
C743 C 0.47978 0.38278 0.91138 0.0
H744 H 0.22416 0.47409 0.04201 0.0
H745 H 0.25366 0.57258 0.96935 0.0
H746 H 0.20235 0.58137 0.87209 0.0
H747 H 0.1455 0.56272 0.81866 0.0
H748 H 0.11884 0.46242 0.87835 0.0
H749 H 0.17052 0.45341 0.96947 0.0
C750 C 0.22026 0.49698 1.0004 0.0
C751 C 0.24432 0.52224 1.01147 0.0
C752 C 0.18975 0.50216 0.94479 0.0
C753 C 0.23696 0.55213 0.96001 0.0
C754 C 0.20692 0.55742 0.90578 0.0
C755 C 0.15093 0.5387 0.8503 0.0
C756 C 0.12632 0.51368 0.84374 0.0
C757 C 0.18251 0.53292 0.8992 0.0
C758 C 0.13539 0.48289 0.8854 0.0
C759 C 0.16578 0.47742 0.93652 0.0
H760 H 0.0616 0.81967 0.47241 0.0
H761 H 0.95698 0.80981 0.44732 0.0
H762 H 0.95017 0.86153 0.54607 0.0
H763 H 0.9745 0.91245 0.63234 0.0
H764 H 0.07915 0.92591 0.6207 0.0
H765 H 0.08528 0.87116 0.54621 0.0
C766 C 0.03715 0.82839 0.48977 0.0
C767 C 1.00982 0.80959 0.45203 0.0
C768 C 0.03347 0.85985 0.5395 0.0
C769 C 0.97859 0.82236 0.47654 0.0
C770 C 0.97475 0.85266 0.53158 0.0
C771 C 0.99857 0.90415 0.61002 0.0
C772 C 0.02616 0.92501 0.63105 0.0
C773 C 1.00201 0.87228 0.56131 0.0
C774 C 0.05717 0.91162 0.60668 0.0
C775 C 0.06078 0.87982 0.56354 0.0
H776 H 0.7311 0.9783 0.53623 0.0
H777 H 0.71907 0.05732 0.313 0.0
H778 H 0.66446 0.06859 0.38866 0.0
H779 H 0.61794 0.05496 0.51667 0.0
H780 H 0.63093 0.97615 0.74113 0.0
H781 H 0.68592 0.96627 0.66864 0.0
C782 C 0.71704 0.9987 0.50606 0.0
C783 C 0.73053 0.01751 0.41961 0.0
C784 C 0.68488 1.00487 0.55006 0.0
C785 C 0.71059 0.04297 0.38067 0.0
C786 C 0.67882 0.04914 0.42358 0.0
C787 C 0.63259 0.03542 0.54965 0.0
C788 C 0.61904 1.01601 0.63494 0.0
C789 C 0.66527 0.03008 0.50779 0.0
C790 C 0.63973 0.99157 0.67642 0.0
C791 C 0.67158 0.98586 0.63445 0.0
H792 H 0.49959 0.73649 0.50167 0.0
H793 H 0.60208 0.73265 0.42208 0.0
H794 H 0.60637 0.67944 0.5129 0.0
H795 H 0.58002 0.63111 0.60639 0.0
H796 H 0.47707 0.63595 0.68387 0.0
H797 H 0.47421 0.69031 0.60421 0.0
C798 C 0.52324 0.72471 0.50757 0.0
C799 C 0.55076 0.73985 0.45604 0.0
C800 C 0.52534 0.69327 0.55848 0.0
C801 C 0.58071 0.72288 0.46284 0.0
C802 C 0.58297 0.69182 0.51354 0.0
C803 C 0.55688 0.64392 0.60637 0.0
C804 C 0.5287 0.62825 0.65255 0.0
C805 C 0.55533 0.67623 0.56013 0.0
C806 C 0.49935 0.64644 0.65091 0.0
C807 C 0.49764 0.67796 0.60464 0.0
H808 H 0.81687 0.49703 0.48721 0.0
H809 H 0.82022 0.59808 0.39416 0.0
H810 H 0.87336 0.6046 0.48404 0.0
H811 H 0.92257 0.58027 0.57745 0.0
H812 H 0.9195 0.47784 0.65834 0.0
H813 H 0.86418 0.47364 0.58769 0.0
C814 C 0.8283 0.52097 0.49099 0.0
C815 C 0.81305 0.54733 0.43501 0.0
C816 C 0.86015 0.52423 0.53979 0.0
C817 C 0.82997 0.57755 0.43827 0.0
C818 C 0.86109 0.58108 0.48833 0.0
C819 C 0.91006 0.55695 0.57967 0.0
C820 C 0.92671 0.5294 0.62439 0.0
C821 C 0.87716 0.5544 0.53705 0.0
C822 C 0.90855 0.49979 0.62616 0.0
C823 C 0.87629 0.49726 0.58549 0.0
loop_
_geom_bond_atom_site_label_1
_geom_bond_atom_site_label_2
_geom_bond_distance
_geom_bond_site_symmetry_2
_ccdc_geom_bond_type
C0 N1 1.317 . S
C0 N2 1.348 . S
C0 C3 1.485 . S
N1 C0 1.317 . S
N1 N5 1.370 . S
N2 C0 1.348 . S
N2 C4 1.346 . S
C3 C0 1.485 . S
C3 H7 0.960 . S
C3 H8 0.961 . S
C3 H9 0.960 . S
C4 N2 1.346 . S
C4 N5 1.307 . S
C4 C6 1.486 . S
N5 N1 1.370 . S
N5 C4 1.307 . S
C6 C4 1.486 . S
C6 H10 0.960 . S
C6 H11 0.960 . S
C6 H12 0.959 . S
H7 C3 0.960 . S
H8 C3 0.961 . S
H9 C3 0.960 . S
H10 C6 0.960 . S
H11 C6 0.960 . S
H12 C6 0.959 . S
C13 N14 1.317 . S
C13 N15 1.348 . S
C13 C16 1.485 . S
N14 C13 1.317 . S
N14 N18 1.370 . S
N15 C13 1.348 . S
N15 C17 1.346 . S
C16 C13 1.485 . S
C16 H20 0.960 1_655 S
C16 H21 0.961 . S
C16 H22 0.960 . S
C17 N15 1.346 . S
C17 N18 1.307 . S
C17 C19 1.486 . S
N18 N14 1.370 . S
N18 C17 1.307 . S
C19 C17 1.486 . S
C19 H23 0.960 . S
C19 H24 0.960 1_655 S
C19 H25 0.959 . S
H20 C16 0.960 1_455 S
H21 C16 0.961 . S
H22 C16 0.960 . S
H23 C19 0.960 . S
H24 C19 0.960 1_455 S
H25 C19 0.959 . S
C26 N27 1.317 . S
C26 N28 1.348 . S
C26 C29 1.485 . S
N27 C26 1.317 . S
N27 N31 1.370 . S
N28 C26 1.348 . S
N28 C30 1.346 . S
C29 C26 1.485 . S
C29 H33 0.960 1_565 S
C29 H34 0.961 . S
C29 H35 0.960 . S
C30 N28 1.346 . S
C30 N31 1.307 . S
C30 C32 1.486 . S
N31 N27 1.370 . S
N31 C30 1.307 . S
C32 C30 1.486 . S
C32 H36 0.960 . S
C32 H37 0.960 1_565 S
C32 H38 0.959 . S
H33 C29 0.960 1_545 S
H34 C29 0.961 . S
H35 C29 0.960 . S
H36 C32 0.960 . S
H37 C32 0.960 1_545 S
H38 C32 0.959 . S
C39 N40 1.317 . S
C39 N41 1.348 . S
C39 C42 1.485 . S
N40 C39 1.317 . S
N40 N44 1.370 . S
N41 C39 1.348 . S
N41 C43 1.346 . S
C42 C39 1.485 . S
C42 H46 0.960 . S
C42 H47 0.961 . S
C42 H48 0.960 . S
C43 N41 1.346 . S
C43 N44 1.307 . S
C43 C45 1.486 . S
N44 N40 1.370 . S
N44 C43 1.307 . S
C45 C43 1.486 . S
C45 H49 0.960 . S
C45 H50 0.960 . S
C45 H51 0.959 . S
H46 C42 0.960 . S
H47 C42 0.961 . S
H48 C42 0.960 . S
H49 C45 0.960 . S
H50 C45 0.960 . S
H51 C45 0.959 . S
C52 N53 1.317 . S
C52 N54 1.348 1_556 S
C52 C55 1.485 . S
N53 C52 1.317 . S
N53 N57 1.370 1_556 S
N54 C52 1.348 1_554 S
N54 C56 1.346 . S
C55 C52 1.485 . S
C55 H59 0.960 . S
C55 H60 0.961 . S
C55 H61 0.960 . S
C56 N54 1.346 . S
C56 N57 1.307 . S
C56 C58 1.486 . S
N57 N53 1.370 1_554 S
N57 C56 1.307 . S
C58 C56 1.486 . S
C58 H62 0.960 . S
C58 H63 0.960 . S
C58 H64 0.959 . S
H59 C55 0.960 . S
H60 C55 0.961 . S
H61 C55 0.960 . S
H62 C58 0.960 . S
H63 C58 0.960 . S
H64 C58 0.959 . S
C65 N66 1.317 . S
C65 N67 1.348 1_556 S
C65 C68 1.485 . S
N66 C65 1.317 . S
N66 N70 1.370 1_556 S
N67 C65 1.348 1_554 S
N67 C69 1.346 . S
C68 C65 1.485 . S
C68 H72 0.960 . S
C68 H73 0.961 . S
C68 H74 0.960 . S
C69 N67 1.346 . S
C69 N70 1.307 . S
C69 C71 1.486 . S
N70 N66 1.370 1_554 S
N70 C69 1.307 . S
C71 C69 1.486 . S
C71 H75 0.960 . S
C71 H76 0.960 . S
C71 H77 0.959 . S
H72 C68 0.960 . S
H73 C68 0.961 . S
H74 C68 0.960 . S
H75 C71 0.960 . S
H76 C71 0.960 . S
H77 C71 0.959 . S
C78 N79 1.317 . S
C78 N80 1.348 1_556 S
C78 C81 1.485 . S
N79 C78 1.317 . S
N79 N83 1.370 1_556 S
N80 C78 1.348 1_554 S
N80 C82 1.346 . S
C81 C78 1.485 . S
C81 H85 0.960 . S
C81 H86 0.961 . S
C81 H87 0.960 . S
C82 N80 1.346 . S
C82 N83 1.307 . S
C82 C84 1.486 . S
N83 N79 1.370 1_554 S
N83 C82 1.307 . S
C84 C82 1.486 . S
C84 H88 0.960 . S
C84 H89 0.960 . S
C84 H90 0.959 . S
H85 C81 0.960 . S
H86 C81 0.961 . S
H87 C81 0.960 . S
H88 C84 0.960 . S
H89 C84 0.960 . S
H90 C84 0.959 . S
C91 N92 1.317 . S
C91 N93 1.348 1_556 S
C91 C94 1.485 . S
N92 C91 1.317 . S
N92 N96 1.370 1_556 S
N93 C91 1.348 1_554 S
N93 C95 1.346 . S
C94 C91 1.485 . S
C94 H98 0.960 . S
C94 H99 0.961 . S
C94 H100 0.960 . S
C95 N93 1.346 . S
C95 N96 1.307 . S
C95 C97 1.486 . S
N96 N92 1.370 1_554 S
N96 C95 1.307 . S
C97 C95 1.486 . S
C97 H101 0.960 . S
C97 H102 0.960 . S
C97 H103 0.959 . S
H98 C94 0.960 . S
H99 C94 0.961 . S
H100 C94 0.960 . S
H101 C97 0.960 . S
H102 C97 0.960 . S
H103 C97 0.959 . S
C104 C106 1.422 1_556 S
C104 C108 1.415 1_556 S
C104 N110 1.369 . S
C105 C106 1.421 . S
C105 C107 1.417 . S
C105 C117 1.422 . S
C106 C104 1.422 1_554 S
C106 C105 1.421 . S
C106 N116 1.359 . S
C107 C105 1.417 . S
C107 C109 1.329 . S
C107 H126 0.930 . S
C108 C104 1.415 1_554 S
C108 C109 1.437 . S
C108 C112 1.413 1_554 S
C109 C107 1.329 . S
C109 C108 1.437 . S
C109 H131 0.929 . S
N110 C104 1.369 . S
N110 C111 1.338 . S
N110 Gd115 2.622 1_545 S
C111 N110 1.338 . S
C111 C113 1.378 . S
C111 H123 0.929 1_545 S
C112 C108 1.413 1_556 S
C112 C113 1.348 . S
C112 H128 0.931 . S
C113 C111 1.378 . S
C113 C112 1.348 . S
C113 H129 0.930 . S
Gd114 N134 2.622 . S
Gd114 N141 2.570 . S
Gd114 O148 2.353 1_655 S
Gd114 O149 2.468 . S
Gd114 O150 2.427 . S
Gd114 O152 2.388 . S
Gd114 O153 2.386 1_545 S
Gd114 O157 2.307 1_655 S
Gd114 C167 2.805 . S
Gd115 N110 2.622 1_565 S
Gd115 N116 2.570 1_566 S
Gd115 O147 2.386 1_565 S
Gd115 O151 2.307 1_465 S
Gd115 O154 2.353 . S
Gd115 O155 2.468 . S
Gd115 O156 2.427 . S
Gd115 O158 2.388 . S
Gd115 C179 2.805 . S
N116 C106 1.359 . S
N116 Gd115 2.570 1_544 S
N116 C118 1.343 . S
C117 C105 1.422 . S
C117 C119 1.321 . S
C117 H125 0.931 . S
C118 N116 1.343 . S
C118 C119 1.390 . S
C118 H120 0.933 1_455 S
C119 C117 1.321 . S
C119 C118 1.390 . S
C119 H121 0.930 . S
H120 C118 0.933 1_655 S
H121 C119 0.930 . S
H122 C145 0.931 1_455 S
H123 C111 0.929 1_565 S
H124 C146 0.930 1_455 S
H125 C117 0.931 . S
H126 C107 0.930 . S
H127 C136 0.929 . S
H128 C112 0.931 . S
H129 C113 0.930 . S
H130 C168 0.930 . S
H131 C109 0.929 . S
H132 C137 0.931 . S
H133 C138 0.930 . S
N134 Gd114 2.622 . S
N134 C135 1.369 1_545 S
N134 C136 1.338 . S
C135 N134 1.369 1_565 S
C135 C139 1.415 . S
C135 C142 1.422 . S
C136 H127 0.929 . S
C136 N134 1.338 . S
C136 C138 1.378 . S
C137 H132 0.931 . S
C137 C138 1.348 1_565 S
C137 C139 1.413 . S
C138 H133 0.930 . S
C138 C136 1.378 . S
C138 C137 1.348 1_545 S
C139 C135 1.415 . S
C139 C137 1.413 . S
C139 C169 1.437 . S
H140 C169 0.929 . S
N141 Gd114 2.570 . S
N141 C142 1.359 1_545 S
N141 C145 1.343 . S
C142 C135 1.422 . S
C142 N141 1.359 1_565 S
C142 C144 1.421 . S
C143 C144 1.422 . S
C143 C146 1.321 . S
C143 H170 0.931 . S
C144 C142 1.421 . S
C144 C143 1.422 . S
C144 C168 1.417 . S
C145 H122 0.931 1_655 S
C145 N141 1.343 . S
C145 C146 1.390 1_545 S
C146 H124 0.930 1_655 S
C146 C143 1.321 . S
C146 C145 1.390 1_565 S
O147 Gd115 2.386 1_545 S
O147 C159 1.265 . S
O148 Gd114 2.353 1_455 S
O148 C159 1.242 . S
O149 Gd114 2.468 . S
O149 C167 1.263 . S
O150 Gd114 2.427 . S
O150 C167 1.252 . S
O151 Gd115 2.307 1_645 S
O151 C160 1.261 . S
O152 Gd114 2.388 . S
O152 C160 1.252 . S
O153 Gd114 2.386 1_565 S
O153 C171 1.265 . S
O154 Gd115 2.353 . S
O154 C171 1.242 1_455 S
O155 Gd115 2.468 . S
O155 C179 1.263 . S
O156 Gd115 2.427 . S
O156 C179 1.252 . S
O157 Gd114 2.307 1_455 S
O157 C172 1.261 . S
O158 Gd115 2.388 . S
O158 C172 1.252 1_565 S
C159 O147 1.265 . S
C159 O148 1.242 . S
C160 O151 1.261 . S
C160 O152 1.252 . S
C161 C164 1.394 . S
C161 C166 1.370 . S
C161 C167 1.500 . S
C162 C165 1.383 . S
C162 C166 1.395 . S
C163 C164 1.396 . S
C163 C165 1.365 . S
C163 H180 0.929 . S
C164 C161 1.394 . S
C164 C163 1.396 . S
C164 H181 0.930 . S
C165 C162 1.383 . S
C165 C163 1.365 . S
C165 H182 0.931 . S
C166 C161 1.370 . S
C166 C162 1.395 . S
C166 H183 0.930 1_655 S
C167 Gd114 2.805 . S
C167 O149 1.263 . S
C167 O150 1.252 . S
C167 C161 1.500 . S
C168 H130 0.930 . S
C168 C144 1.417 . S
C168 C169 1.329 . S
C169 C139 1.437 . S
C169 H140 0.929 . S
C169 C168 1.329 . S
H170 C143 0.931 . S
C171 O153 1.265 . S
C171 O154 1.242 1_655 S
C172 O157 1.261 . S
C172 O158 1.252 1_545 S
C173 C176 1.394 . S
C173 C178 1.370 . S
C173 C179 1.500 1_554 S
C174 C177 1.383 . S
C174 C178 1.395 . S
C175 C176 1.396 . S
C175 C177 1.365 . S
C175 H184 0.929 . S
C176 C173 1.394 . S
C176 C175 1.396 . S
C176 H185 0.930 1_554 S
C177 C174 1.383 . S
C177 C175 1.365 . S
C177 H186 0.931 . S
C178 C173 1.370 . S
C178 C174 1.395 . S
C178 H187 0.930 . S
C179 Gd115 2.805 . S
C179 O155 1.263 . S
C179 O156 1.252 . S
C179 C173 1.500 1_556 S
H180 C163 0.929 . S
H181 C164 0.930 . S
H182 C165 0.931 . S
H183 C166 0.930 1_455 S
H184 C175 0.929 . S
H185 C176 0.930 1_556 S
H186 C177 0.931 . S
H187 C178 0.930 . S
C188 C190 1.422 . S
C188 C192 1.415 . S
C188 N194 1.369 . S
C189 C190 1.421 . S
C189 C191 1.417 . S
C189 C201 1.422 . S
C190 C188 1.422 . S
C190 C189 1.421 . S
C190 N200 1.359 . S
C191 C189 1.417 . S
C191 C193 1.329 . S
C191 H210 0.930 . S
C192 C188 1.415 . S
C192 C193 1.437 . S
C192 C196 1.413 . S
C193 C191 1.329 . S
C193 C192 1.437 . S
C193 H215 0.929 . S
N194 C188 1.369 . S
N194 C195 1.338 . S
N194 Gd199 2.622 . S
C195 N194 1.338 . S
C195 C197 1.378 . S
C195 H207 0.929 . S
C196 C192 1.413 . S
C196 C197 1.348 . S
C196 H212 0.931 . S
C197 C195 1.378 . S
C197 C196 1.348 . S
C197 H213 0.930 . S
Gd198 N218 2.622 . S
Gd198 N225 2.570 . S
Gd198 O232 2.353 1_545 S
Gd198 O233 2.468 . S
Gd198 O234 2.427 1_556 S
Gd198 O236 2.388 . S
Gd198 O237 2.386 . S
Gd198 O241 2.307 . S
Gd198 C251 2.805 1_556 S
Gd199 N194 2.622 . S
Gd199 N200 2.570 . S
Gd199 O231 2.386 . S
Gd199 O235 2.307 1_565 S
Gd199 O238 2.353 1_565 S
Gd199 O239 2.468 . S
Gd199 O240 2.427 . S
Gd199 O242 2.388 . S
Gd199 C263 2.805 . S
N200 C190 1.359 . S
N200 Gd199 2.570 . S
N200 C202 1.343 . S
C201 C189 1.422 . S
C201 C203 1.321 . S
C201 H209 0.931 . S
C202 N200 1.343 . S
C202 C203 1.390 . S
C202 H204 0.931 . S
C203 C201 1.321 . S
C203 C202 1.390 . S
C203 H205 0.930 . S
H204 C202 0.931 . S
H205 C203 0.930 . S
H206 C229 0.931 . S
H207 C195 0.929 . S
H208 C230 0.930 . S
H209 C201 0.931 . S
H210 C191 0.930 . S
H211 C220 0.929 1_554 S
H212 C196 0.931 . S
H213 C197 0.930 . S
H214 C252 0.930 . S
H215 C193 0.929 . S
H216 C221 0.931 . S
H217 C222 0.930 . S
N218 Gd198 2.622 . S
N218 C219 1.369 . S
N218 C220 1.338 . S
C219 N218 1.369 . S
C219 C223 1.415 . S
C219 C226 1.422 . S
C220 H211 0.929 1_556 S
C220 N218 1.338 . S
C220 C222 1.378 1_556 S
C221 H216 0.931 . S
C221 C222 1.348 1_556 S
C221 C223 1.413 . S
C222 H217 0.930 . S
C222 C220 1.378 1_554 S
C222 C221 1.348 1_554 S
C223 C219 1.415 . S
C223 C221 1.413 . S
C223 C253 1.437 . S
H224 C253 0.929 . S
N225 Gd198 2.570 . S
N225 C226 1.359 . S
N225 C229 1.343 . S
C226 C219 1.422 . S
C226 N225 1.359 . S
C226 C228 1.421 . S
C227 C228 1.422 . S
C227 C230 1.321 . S
C227 H254 0.931 . S
C228 C226 1.421 . S
C228 C227 1.422 . S
C228 C252 1.417 . S
C229 H206 0.931 . S
C229 N225 1.343 . S
C229 C230 1.390 . S
C230 H208 0.930 . S
C230 C227 1.321 . S
C230 C229 1.390 . S
O231 Gd199 2.386 . S
O231 C243 1.265 . S
O232 Gd198 2.353 1_565 S
O232 C243 1.242 . S
O233 Gd198 2.468 . S
O233 C251 1.263 1_556 S
O234 Gd198 2.427 1_554 S
O234 C251 1.252 . S
O235 Gd199 2.307 1_545 S
O235 C244 1.261 . S
O236 Gd198 2.388 . S
O236 C244 1.252 . S
O237 Gd198 2.386 . S
O237 C255 1.265 . S
O238 Gd199 2.353 1_545 S
O238 C255 1.242 . S
O239 Gd199 2.468 . S
O239 C263 1.263 . S
O240 Gd199 2.427 . S
O240 C263 1.252 . S
O241 Gd198 2.307 . S
O241 C256 1.261 . S
O242 Gd199 2.388 . S
O242 C256 1.252 1_565 S
C243 O231 1.265 . S
C243 O232 1.242 . S
C244 O235 1.261 . S
C244 O236 1.252 . S
C245 C248 1.394 . S
C245 C250 1.370 . S
C245 C251 1.500 . S
C246 C249 1.383 . S
C246 C250 1.395 . S
C247 C248 1.396 . S
C247 C249 1.365 . S
C247 H264 0.929 . S
C248 C245 1.394 . S
C248 C247 1.396 . S
C248 H265 0.930 . S
C249 C246 1.383 . S
C249 C247 1.365 . S
C249 H266 0.931 . S
C250 C245 1.370 . S
C250 C246 1.395 . S
C250 H267 0.930 . S
C251 Gd198 2.805 1_554 S
C251 O233 1.263 1_554 S
C251 O234 1.252 . S
C251 C245 1.500 . S
C252 H214 0.930 . S
C252 C228 1.417 . S
C252 C253 1.329 . S
C253 C223 1.437 . S
C253 H224 0.929 . S
C253 C252 1.329 . S
H254 C227 0.931 . S
C255 O237 1.265 . S
C255 O238 1.242 . S
C256 O241 1.261 . S
C256 O242 1.252 1_545 S
C257 C260 1.394 . S
C257 C262 1.370 . S
C257 C263 1.500 . S
C258 C261 1.383 . S
C258 C262 1.395 . S
C259 C260 1.396 . S
C259 C261 1.365 . S
C259 H268 0.929 . S
C260 C257 1.394 . S
C260 C259 1.396 . S
C260 H269 0.930 . S
C261 C258 1.383 . S
C261 C259 1.365 . S
C261 H270 0.931 . S
C262 C257 1.370 . S
C262 C258 1.395 . S
C262 H271 0.930 1_565 S
C263 Gd199 2.805 . S
C263 O239 1.263 . S
C263 O240 1.252 . S
C263 C257 1.500 . S
H264 C247 0.929 . S
H265 C248 0.930 . S
H266 C249 0.931 . S
H267 C250 0.930 . S
H268 C259 0.929 . S
H269 C260 0.930 . S
H270 C261 0.931 . S
H271 C262 0.930 1_545 S
C272 C274 1.422 1_556 S
C272 C276 1.415 1_556 S
C272 N278 1.369 . S
C273 C274 1.421 . S
C273 C275 1.417 . S
C273 C285 1.422 . S
C274 C272 1.422 1_554 S
C274 C273 1.421 . S
C274 N284 1.359 . S
C275 C273 1.417 . S
C275 C277 1.329 . S
C275 H294 0.930 . S
C276 C272 1.415 1_554 S
C276 C277 1.437 . S
C276 C280 1.413 1_554 S
C277 C275 1.329 . S
C277 C276 1.437 . S
C277 H299 0.929 . S
N278 C272 1.369 . S
N278 C279 1.338 . S
N278 Gd283 2.622 . S
C279 N278 1.338 . S
C279 C281 1.378 . S
C279 H291 0.929 . S
C280 C276 1.413 1_556 S
C280 C281 1.348 . S
C280 H296 0.931 . S
C281 C279 1.378 . S
C281 C280 1.348 . S
C281 H297 0.930 . S
Gd282 N302 2.622 . S
Gd282 N309 2.570 . S
Gd282 O316 2.353 . S
Gd282 O317 2.468 . S
Gd282 O318 2.427 . S
Gd282 O320 2.388 . S
Gd282 O321 2.386 . S
Gd282 O325 2.307 . S
Gd282 C335 2.805 . S
Gd283 N278 2.622 . S
Gd283 N284 2.570 1_556 S
Gd283 O315 2.386 . S
Gd283 O319 2.307 . S
Gd283 O322 2.353 . S
Gd283 O323 2.468 . S
Gd283 O324 2.427 . S
Gd283 O326 2.388 . S
Gd283 C347 2.805 . S
N284 C274 1.359 . S
N284 Gd283 2.570 1_554 S
N284 C286 1.343 . S
C285 C273 1.422 . S
C285 C287 1.321 . S
C285 H293 0.931 . S
C286 N284 1.343 . S
C286 C287 1.390 . S
C286 H288 0.931 . S
C287 C285 1.321 . S
C287 C286 1.390 . S
C287 H289 0.930 . S
H288 C286 0.931 . S
H289 C287 0.930 . S
H290 C313 0.931 . S
H291 C279 0.929 . S
H292 C314 0.930 . S
H293 C285 0.931 . S
H294 C275 0.930 . S
H295 C304 0.929 . S
H296 C280 0.931 . S
H297 C281 0.930 . S
H298 C336 0.930 . S
H299 C277 0.929 . S
H300 C305 0.931 . S
H301 C306 0.930 . S
N302 Gd282 2.622 . S
N302 C303 1.369 . S
N302 C304 1.338 . S
C303 N302 1.369 . S
C303 C307 1.415 . S
C303 C310 1.422 . S
C304 H295 0.929 . S
C304 N302 1.338 . S
C304 C306 1.378 . S
C305 H300 0.931 . S
C305 C306 1.348 . S
C305 C307 1.413 . S
C306 H301 0.930 . S
C306 C304 1.378 . S
C306 C305 1.348 . S
C307 C303 1.415 . S
C307 C305 1.413 . S
C307 C337 1.437 . S
H308 C337 0.929 . S
N309 Gd282 2.570 . S
N309 C310 1.359 . S
N309 C313 1.343 . S
C310 C303 1.422 . S
C310 N309 1.359 . S
C310 C312 1.421 . S
C311 C312 1.422 . S
C311 C314 1.321 . S
C311 H338 0.931 . S
C312 C310 1.421 . S
C312 C311 1.422 . S
C312 C336 1.417 . S
C313 H290 0.931 . S
C313 N309 1.343 . S
C313 C314 1.390 . S
C314 H292 0.930 . S
C314 C311 1.321 . S
C314 C313 1.390 . S
O315 Gd283 2.386 . S
O315 C327 1.265 . S
O316 Gd282 2.353 . S
O316 C327 1.242 . S
O317 Gd282 2.468 . S
O317 C335 1.263 . S
O318 Gd282 2.427 . S
O318 C335 1.252 . S
O319 Gd283 2.307 . S
O319 C328 1.261 . S
O320 Gd282 2.388 . S
O320 C328 1.252 . S
O321 Gd282 2.386 . S
O321 C339 1.265 . S
O322 Gd283 2.353 . S
O322 C339 1.242 . S
O323 Gd283 2.468 . S
O323 C347 1.263 . S
O324 Gd283 2.427 . S
O324 C347 1.252 . S
O325 Gd282 2.307 . S
O325 C340 1.261 . S
O326 Gd283 2.388 . S
O326 C340 1.252 . S
C327 O315 1.265 . S
C327 O316 1.242 . S
C328 O319 1.261 . S
C328 O320 1.252 . S
C329 C332 1.394 . S
C329 C334 1.370 . S
C329 C335 1.500 . S
C330 C333 1.383 . S
C330 C334 1.395 . S
C331 C332 1.396 . S
C331 C333 1.365 . S
C331 H348 0.929 . S
C332 C329 1.394 . S
C332 C331 1.396 . S
C332 H349 0.930 . S
C333 C330 1.383 . S
C333 C331 1.365 . S
C333 H350 0.931 . S
C334 C329 1.370 . S
C334 C330 1.395 . S
C334 H351 0.930 . S
C335 Gd282 2.805 . S
C335 O317 1.263 . S
C335 O318 1.252 . S
C335 C329 1.500 . S
C336 H298 0.930 . S
C336 C312 1.417 . S
C336 C337 1.329 . S
C337 C307 1.437 . S
C337 H308 0.929 . S
C337 C336 1.329 . S
H338 C311 0.931 . S
C339 O321 1.265 . S
C339 O322 1.242 . S
C340 O325 1.261 . S
C340 O326 1.252 . S
C341 C344 1.394 . S
C341 C346 1.370 . S
C341 C347 1.500 1_554 S
C342 C345 1.383 . S
C342 C346 1.395 . S
C343 C344 1.396 . S
C343 C345 1.365 . S
C343 H352 0.929 . S
C344 C341 1.394 . S
C344 C343 1.396 . S
C344 H353 0.930 1_554 S
C345 C342 1.383 . S
C345 C343 1.365 . S
C345 H354 0.931 . S
C346 C341 1.370 . S
C346 C342 1.395 . S
C346 H355 0.930 . S
C347 Gd283 2.805 . S
C347 O323 1.263 . S
C347 O324 1.252 . S
C347 C341 1.500 1_556 S
H348 C331 0.929 . S
H349 C332 0.930 . S
H350 C333 0.931 . S
H351 C334 0.930 . S
H352 C343 0.929 . S
H353 C344 0.930 1_556 S
H354 C345 0.931 . S
H355 C346 0.930 . S
C356 C358 1.422 1_556 S
C356 C360 1.415 1_556 S
C356 N362 1.369 . S
C357 C358 1.421 . S
C357 C359 1.417 . S
C357 C369 1.422 . S
C358 C356 1.422 1_554 S
C358 C357 1.421 . S
C358 N368 1.359 . S
C359 C357 1.417 . S
C359 C361 1.329 . S
C359 H378 0.930 . S
C360 C356 1.415 1_554 S
C360 C361 1.437 . S
C360 C364 1.413 1_554 S
C361 C359 1.329 . S
C361 C360 1.437 . S
C361 H383 0.929 . S
N362 C356 1.369 . S
N362 C363 1.340 . S
N362 Gd367 2.622 1_455 S
C363 N362 1.340 . S
C363 C365 1.386 . S
C363 H375 0.919 1_455 S
C364 C360 1.413 1_556 S
C364 C365 1.348 . S
C364 H380 0.931 . S
C365 C363 1.386 . S
C365 C364 1.348 . S
C365 H381 0.930 . S
Gd366 N386 2.622 . S
Gd366 N393 2.570 . S
Gd366 O400 2.353 . S
Gd366 O401 2.468 . S
Gd366 O402 2.427 . S
Gd366 O404 2.388 . S
Gd366 O405 2.386 1_455 S
Gd366 O409 2.307 . S
Gd366 C419 2.805 . S
Gd367 N362 2.622 1_655 S
Gd367 N368 2.570 1_656 S
Gd367 O399 2.386 1_655 S
Gd367 O403 2.307 1_655 S
Gd367 O406 2.353 . S
Gd367 O407 2.468 . S
Gd367 O408 2.427 . S
Gd367 O410 2.388 . S
Gd367 C431 2.805 . S
N368 C358 1.359 . S
N368 Gd367 2.570 1_454 S
N368 C370 1.343 . S
C369 C357 1.422 . S
C369 C371 1.321 . S
C369 H377 0.931 . S
C370 N368 1.343 . S
C370 C371 1.390 . S
C370 H372 0.931 . S
C371 C369 1.321 . S
C371 C370 1.390 . S
C371 H373 0.930 . S
H372 C370 0.931 . S
H373 C371 0.930 . S
H374 C397 0.931 . S
H375 C363 0.919 1_655 S
H376 C398 0.930 . S
H377 C369 0.931 . S
H378 C359 0.930 . S
H379 C388 0.929 . S
H380 C364 0.931 . S
H381 C365 0.930 . S
H382 C420 0.930 . S
H383 C361 0.929 . S
H384 C389 0.931 . S
H385 C390 0.930 . S
N386 Gd366 2.622 . S
N386 C387 1.369 1_455 S
N386 C388 1.338 . S
C387 N386 1.369 1_655 S
C387 C391 1.415 . S
C387 C394 1.422 . S
C388 H379 0.929 . S
C388 N386 1.338 . S
C388 C390 1.378 . S
C389 H384 0.931 . S
C389 C390 1.348 1_655 S
C389 C391 1.413 . S
C390 H385 0.930 . S
C390 C388 1.378 . S
C390 C389 1.348 1_455 S
C391 C387 1.415 . S
C391 C389 1.413 . S
C391 C421 1.437 . S
H392 C421 0.929 . S
N393 Gd366 2.570 . S
N393 C394 1.359 1_455 S
N393 C397 1.343 . S
C394 C387 1.422 . S
C394 N393 1.359 1_655 S
C394 C396 1.421 . S
C395 C396 1.422 . S
C395 C398 1.321 . S
C395 H422 0.931 . S
C396 C394 1.421 . S
C396 C395 1.422 . S
C396 C420 1.417 . S
C397 H374 0.931 . S
C397 N393 1.343 . S
C397 C398 1.390 1_455 S
C398 H376 0.930 . S
C398 C395 1.321 . S
C398 C397 1.390 1_655 S
O399 Gd367 2.386 1_455 S
O399 C411 1.265 . S
O400 Gd366 2.353 . S
O400 C411 1.242 . S
O401 Gd366 2.468 . S
O401 C419 1.263 . S
O402 Gd366 2.427 . S
O402 C419 1.252 . S
O403 Gd367 2.307 1_455 S
O403 C412 1.261 . S
O404 Gd366 2.388 . S
O404 C412 1.252 . S
O405 Gd366 2.386 1_655 S
O405 C423 1.265 . S
O406 Gd367 2.353 . S
O406 C423 1.242 . S
O407 Gd367 2.468 . S
O407 C431 1.263 . S
O408 Gd367 2.427 . S
O408 C431 1.252 . S
O409 Gd366 2.307 . S
O409 C424 1.261 . S
O410 Gd367 2.388 . S
O410 C424 1.252 1_655 S
C411 O399 1.265 . S
C411 O400 1.242 . S
C412 O403 1.261 . S
C412 O404 1.252 . S
C413 C416 1.394 . S
C413 C418 1.370 . S
C413 C419 1.500 . S
C414 C417 1.383 . S
C414 C418 1.395 . S
C415 C416 1.396 . S
C415 C417 1.365 . S
C415 H432 0.929 . S
C416 C413 1.394 . S
C416 C415 1.396 . S
C416 H433 0.930 . S
C417 C414 1.383 . S
C417 C415 1.365 . S
C417 H434 0.931 . S
C418 C413 1.370 . S
C418 C414 1.395 . S
C418 H435 0.930 . S
C419 Gd366 2.805 . S
C419 O401 1.263 . S
C419 O402 1.252 . S
C419 C413 1.500 . S
C420 H382 0.930 . S
C420 C396 1.417 . S
C420 C421 1.329 . S
C421 C391 1.437 . S
C421 H392 0.929 . S
C421 C420 1.329 . S
H422 C395 0.931 . S
C423 O405 1.265 . S
C423 O406 1.242 . S
C424 O409 1.261 . S
C424 O410 1.252 1_455 S
C425 C428 1.394 . S
C425 C430 1.370 . S
C425 C431 1.500 1_554 S
C426 C429 1.383 . S
C426 C430 1.395 . S
C427 C428 1.396 . S
C427 C429 1.365 . S
C427 H436 0.929 . S
C428 C425 1.394 . S
C428 C427 1.396 . S
C428 H437 0.930 1_554 S
C429 C426 1.383 . S
C429 C427 1.365 . S
C429 H438 0.931 . S
C430 C425 1.370 . S
C430 C426 1.395 . S
C430 H439 0.930 . S
C431 Gd367 2.805 . S
C431 O407 1.263 . S
C431 O408 1.252 . S
C431 C425 1.500 1_556 S
H432 C415 0.929 . S
H433 C416 0.930 . S
H434 C417 0.931 . S
H435 C418 0.930 . S
H436 C427 0.929 . S
H437 C428 0.930 1_556 S
H438 C429 0.931 . S
H439 C430 0.930 . S
H440 C446 0.930 . S
H441 C449 0.930 1_565 S
H442 C450 0.930 . S
H443 C451 0.930 1_565 S
H444 C454 0.930 . S
H445 C455 0.930 . S
C446 H440 0.930 . S
C446 C447 1.355 . S
C446 C448 1.415 . S
C447 C446 1.355 . S
C447 C449 1.419 . S
C448 C446 1.415 . S
C448 C453 1.425 . S
C448 C455 1.409 . S
C449 H441 0.930 1_545 S
C449 C447 1.419 . S
C449 C450 1.362 1_545 S
C450 H442 0.930 . S
C450 C449 1.362 1_565 S
C450 C453 1.409 1_565 S
C451 H443 0.930 1_545 S
C451 C452 1.355 . S
C451 C453 1.415 . S
C452 C451 1.355 . S
C452 C454 1.419 . S
C453 C448 1.425 . S
C453 C450 1.409 1_545 S
C453 C451 1.415 . S
C454 H444 0.930 . S
C454 C452 1.419 . S
C454 C455 1.362 . S
C455 H445 0.930 . S
C455 C448 1.409 . S
C455 C454 1.362 . S
H456 C462 0.930 . S
H457 C465 0.930 . S
H458 C466 0.930 . S
H459 C467 0.930 . S
H460 C470 0.930 . S
H461 C471 0.930 . S
C462 H456 0.930 . S
C462 C463 1.355 . S
C462 C464 1.415 . S
C463 C462 1.355 . S
C463 C465 1.419 . S
C464 C462 1.415 . S
C464 C469 1.425 . S
C464 C471 1.409 . S
C465 H457 0.930 . S
C465 C463 1.419 . S
C465 C466 1.362 . S
C466 H458 0.930 . S
C466 C465 1.362 . S
C466 C469 1.409 . S
C467 H459 0.930 . S
C467 C468 1.355 . S
C467 C469 1.415 . S
C468 C467 1.355 . S
C468 C470 1.419 . S
C469 C464 1.425 . S
C469 C466 1.409 . S
C469 C467 1.415 . S
C470 H460 0.930 . S
C470 C468 1.419 . S
C470 C471 1.362 . S
C471 H461 0.930 . S
C471 C464 1.409 . S
C471 C470 1.362 . S
H472 C478 0.930 . S
H473 C481 0.930 . S
H474 C482 0.930 . S
H475 C483 0.930 . S
H476 C486 0.930 . S
H477 C487 0.930 . S
C478 H472 0.930 . S
C478 C479 1.355 . S
C478 C480 1.415 . S
C479 C478 1.355 . S
C479 C481 1.419 . S
C480 C478 1.415 . S
C480 C485 1.425 . S
C480 C487 1.409 . S
C481 H473 0.930 . S
C481 C479 1.419 . S
C481 C482 1.362 . S
C482 H474 0.930 . S
C482 C481 1.362 . S
C482 C485 1.409 . S
C483 H475 0.930 . S
C483 C484 1.355 . S
C483 C485 1.415 . S
C484 C483 1.355 . S
C484 C486 1.419 . S
C485 C480 1.425 . S
C485 C482 1.409 . S
C485 C483 1.415 . S
C486 H476 0.930 . S
C486 C484 1.419 . S
C486 C487 1.362 . S
C487 H477 0.930 . S
C487 C480 1.409 . S
C487 C486 1.362 . S
H488 C494 0.930 1_655 S
H489 C497 0.930 . S
H490 C498 0.930 . S
H491 C499 0.930 . S
H492 C502 0.930 . S
H493 C503 0.930 . S
C494 H488 0.930 1_455 S
C494 C495 1.355 . S
C494 C496 1.415 . S
C495 C494 1.355 . S
C495 C497 1.419 . S
C496 C494 1.415 . S
C496 C501 1.425 . S
C496 C503 1.409 1_455 S
C497 H489 0.930 . S
C497 C495 1.419 . S
C497 C498 1.362 . S
C498 H490 0.930 . S
C498 C497 1.362 . S
C498 C501 1.409 . S
C499 H491 0.930 . S
C499 C500 1.355 . S
C499 C501 1.415 . S
C500 C499 1.355 . S
C500 C502 1.419 1_455 S
C501 C496 1.425 . S
C501 C498 1.409 . S
C501 C499 1.415 . S
C502 H492 0.930 . S
C502 C500 1.419 1_655 S
C502 C503 1.362 . S
C503 H493 0.930 . S
C503 C496 1.409 1_655 S
C503 C502 1.362 . S
H504 C510 0.930 . S
H505 C513 0.930 . S
H506 C514 0.930 . S
H507 C515 0.930 . S
H508 C518 0.930 . S
H509 C519 0.930 1_556 S
C510 H504 0.930 . S
C510 C511 1.355 . S
C510 C512 1.415 . S
C511 C510 1.355 . S
C511 C513 1.419 . S
C512 C510 1.415 . S
C512 C517 1.425 . S
C512 C519 1.409 1_565 S
C513 H505 0.930 . S
C513 C511 1.419 . S
C513 C514 1.362 . S
C514 H506 0.930 . S
C514 C513 1.362 . S
C514 C517 1.409 . S
C515 H507 0.930 . S
C515 C516 1.355 1_564 S
C515 C517 1.415 . S
C516 C515 1.355 1_546 S
C516 C518 1.419 . S
C517 C512 1.425 . S
C517 C514 1.409 . S
C517 C515 1.415 . S
C518 H508 0.930 . S
C518 C516 1.419 . S
C518 C519 1.362 1_556 S
C519 H509 0.930 1_554 S
C519 C512 1.409 1_545 S
C519 C518 1.362 1_554 S
H520 C526 0.930 . S
H521 C529 0.930 . S
H522 C530 0.930 . S
H523 C531 0.930 . S
H524 C534 0.930 . S
H525 C535 0.930 . S
C526 H520 0.930 . S
C526 C527 1.355 . S
C526 C528 1.415 . S
C527 C526 1.355 . S
C527 C529 1.419 . S
C528 C526 1.415 . S
C528 C533 1.425 . S
C528 C535 1.409 . S
C529 H521 0.930 . S
C529 C527 1.419 . S
C529 C530 1.362 . S
C530 H522 0.930 . S
C530 C529 1.362 . S
C530 C533 1.409 . S
C531 H523 0.930 . S
C531 C532 1.355 1_554 S
C531 C533 1.415 . S
C532 C531 1.355 1_556 S
C532 C534 1.419 . S
C533 C528 1.425 . S
C533 C530 1.409 . S
C533 C531 1.415 . S
C534 H524 0.930 . S
C534 C532 1.419 . S
C534 C535 1.362 1_556 S
C535 H525 0.930 . S
C535 C528 1.409 . S
C535 C534 1.362 1_554 S
H536 C542 0.930 . S
H537 C545 0.930 . S
H538 C546 0.930 . S
H539 C547 0.930 1_556 S
H540 C550 0.930 1_556 S
H541 C551 0.930 . S
C542 H536 0.930 . S
C542 C543 1.355 . S
C542 C544 1.415 . S
C543 C542 1.355 . S
C543 C545 1.419 . S
C544 C542 1.415 . S
C544 C549 1.425 . S
C544 C551 1.409 . S
C545 H537 0.930 . S
C545 C543 1.419 . S
C545 C546 1.362 . S
C546 H538 0.930 . S
C546 C545 1.362 . S
C546 C549 1.409 . S
C547 H539 0.930 1_554 S
C547 C548 1.355 1_554 S
C547 C549 1.415 . S
C548 C547 1.355 1_556 S
C548 C550 1.419 1_556 S
C549 C544 1.425 . S
C549 C546 1.409 . S
C549 C547 1.415 . S
C550 H540 0.930 1_554 S
C550 C548 1.419 1_554 S
C550 C551 1.362 . S
C551 H541 0.930 . S
C551 C544 1.409 . S
C551 C550 1.362 . S
H552 C558 0.930 . S
H553 C561 0.930 . S
H554 C562 0.930 . S
H555 C563 0.930 . S
H556 C566 0.930 . S
H557 C567 0.930 . S
C558 H552 0.930 . S
C558 C559 1.355 1_455 S
C558 C560 1.415 . S
C559 C558 1.355 1_655 S
C559 C561 1.419 . S
C560 C558 1.415 . S
C560 C565 1.425 1_455 S
C560 C567 1.409 . S
C561 H553 0.930 . S
C561 C559 1.419 . S
C561 C562 1.362 . S
C562 H554 0.930 . S
C562 C561 1.362 . S
C562 C565 1.409 . S
C563 H555 0.930 . S
C563 C564 1.355 1_654 S
C563 C565 1.415 . S
C564 C563 1.355 1_456 S
C564 C566 1.419 . S
C565 C560 1.425 1_655 S
C565 C562 1.409 . S
C565 C563 1.415 . S
C566 H556 0.930 . S
C566 C564 1.419 . S
C566 C567 1.362 1_556 S
C567 H557 0.930 . S
C567 C560 1.409 . S
C567 C566 1.362 1_554 S
H568 C574 0.930 1_655 S
H569 C577 0.930 . S
H570 C578 0.930 . S
H571 C579 0.930 . S
H572 C582 0.930 . S
H573 C583 0.930 . S
C574 H568 0.930 1_455 S
C574 C575 1.355 . S
C574 C576 1.415 . S
C575 C574 1.355 . S
C575 C577 1.419 . S
C576 C574 1.415 . S
C576 C581 1.425 . S
C576 C583 1.409 1_455 S
C577 H569 0.930 . S
C577 C575 1.419 . S
C577 C578 1.362 . S
C578 H570 0.930 . S
C578 C577 1.362 . S
C578 C581 1.409 . S
C579 H571 0.930 . S
C579 C580 1.355 1_455 S
C579 C581 1.415 . S
C580 C579 1.355 1_655 S
C580 C582 1.419 . S
C581 C576 1.425 . S
C581 C578 1.409 . S
C581 C579 1.415 . S
C582 H572 0.930 . S
C582 C580 1.419 . S
C582 C583 1.362 . S
C583 H573 0.930 . S
C583 C576 1.409 1_655 S
C583 C582 1.362 . S
H584 C590 0.930 1_565 S
H585 C593 0.930 . S
H586 C594 0.930 . S
H587 C595 0.930 . S
H588 C598 0.930 . S
H589 C599 0.930 . S
C590 H584 0.930 1_545 S
C590 C591 1.355 . S
C590 C592 1.415 . S
C591 C590 1.355 . S
C591 C593 1.419 . S
C592 C590 1.415 . S
C592 C597 1.425 . S
C592 C599 1.409 1_545 S
C593 H585 0.930 . S
C593 C591 1.419 . S
C593 C594 1.362 . S
C594 H586 0.930 . S
C594 C593 1.362 . S
C594 C597 1.409 . S
C595 H587 0.930 . S
C595 C596 1.355 1_545 S
C595 C597 1.415 . S
C596 C595 1.355 1_565 S
C596 C598 1.419 . S
C597 C592 1.425 . S
C597 C594 1.409 . S
C597 C595 1.415 . S
C598 H588 0.930 . S
C598 C596 1.419 . S
C598 C599 1.362 . S
C599 H589 0.930 . S
C599 C592 1.409 1_565 S
C599 C598 1.362 . S
H600 C606 0.930 . S
H601 C609 0.930 . S
H602 C610 0.930 . S
H603 C611 0.930 . S
H604 C614 0.930 . S
H605 C615 0.930 . S
C606 H600 0.930 . S
C606 C607 1.355 . S
C606 C608 1.415 . S
C607 C606 1.355 . S
C607 C609 1.419 . S
C608 C606 1.415 . S
C608 C613 1.425 . S
C608 C615 1.409 . S
C609 H601 0.930 . S
C609 C607 1.419 . S
C609 C610 1.362 . S
C610 H602 0.930 . S
C610 C609 1.362 . S
C610 C613 1.409 . S
C611 H603 0.930 . S
C611 C612 1.355 . S
C611 C613 1.415 . S
C612 C611 1.355 . S
C612 C614 1.419 . S
C613 C608 1.425 . S
C613 C610 1.409 . S
C613 C611 1.415 . S
C614 H604 0.930 . S
C614 C612 1.419 . S
C614 C615 1.362 . S
C615 H605 0.930 . S
C615 C608 1.409 . S
C615 C614 1.362 . S
H616 C622 0.930 . S
H617 C625 0.930 1_556 S
H618 C626 0.930 . S
H619 C627 0.930 . S
H620 C630 0.930 . S
H621 C631 0.930 . S
C622 H616 0.930 . S
C622 C623 1.355 . S
C622 C624 1.415 . S
C623 C622 1.355 . S
C623 C625 1.419 . S
C624 C622 1.415 . S
C624 C629 1.425 . S
C624 C631 1.409 . S
C625 H617 0.930 1_554 S
C625 C623 1.419 . S
C625 C626 1.362 . S
C626 H618 0.930 . S
C626 C625 1.362 . S
C626 C629 1.409 . S
C627 H619 0.930 . S
C627 C628 1.355 . S
C627 C629 1.415 . S
C628 C627 1.355 . S
C628 C630 1.419 . S
C629 C624 1.425 . S
C629 C626 1.409 . S
C629 C627 1.415 . S
C630 H620 0.930 . S
C630 C628 1.419 . S
C630 C631 1.362 . S
C631 H621 0.930 . S
C631 C624 1.409 . S
C631 C630 1.362 . S
H632 C638 0.930 . S
H633 C641 0.930 . S
H634 C642 0.930 . S
H635 C643 0.930 1_655 S
H636 C646 0.930 . S
H637 C647 0.930 . S
C638 H632 0.930 . S
C638 C639 1.355 1_455 S
C638 C640 1.415 . S
C639 C638 1.355 1_655 S
C639 C641 1.419 . S
C640 C638 1.415 . S
C640 C645 1.425 1_455 S
C640 C647 1.409 . S
C641 H633 0.930 . S
C641 C639 1.419 . S
C641 C642 1.362 . S
C642 H634 0.930 . S
C642 C641 1.362 . S
C642 C645 1.409 . S
C643 H635 0.930 1_455 S
C643 C644 1.355 . S
C643 C645 1.415 1_455 S
C644 C643 1.355 . S
C644 C646 1.419 . S
C645 C640 1.425 1_655 S
C645 C642 1.409 . S
C645 C643 1.415 1_655 S
C646 H636 0.930 . S
C646 C644 1.419 . S
C646 C647 1.362 . S
C647 H637 0.930 . S
C647 C640 1.409 . S
C647 C646 1.362 . S
H648 C654 0.930 . S
H649 C657 0.930 . S
H650 C658 0.930 . S
H651 C659 0.930 . S
H652 C662 0.930 . S
H653 C663 0.930 . S
C654 H648 0.930 . S
C654 C655 1.355 . S
C654 C656 1.415 . S
C655 C654 1.355 . S
C655 C657 1.419 1_565 S
C656 C654 1.415 . S
C656 C661 1.425 1_565 S
C656 C663 1.409 . S
C657 H649 0.930 . S
C657 C655 1.419 1_545 S
C657 C658 1.362 . S
C658 H650 0.930 . S
C658 C657 1.362 . S
C658 C661 1.409 . S
C659 H651 0.930 . S
C659 C660 1.355 . S
C659 C661 1.415 . S
C660 C659 1.355 . S
C660 C662 1.419 1_545 S
C661 C656 1.425 1_545 S
C661 C658 1.409 . S
C661 C659 1.415 . S
C662 H652 0.930 . S
C662 C660 1.419 1_565 S
C662 C663 1.362 . S
C663 H653 0.930 . S
C663 C656 1.409 . S
C663 C662 1.362 . S
H664 C670 0.930 . S
H665 C673 0.930 . S
H666 C674 0.930 . S
H667 C675 0.930 . S
H668 C678 0.930 . S
H669 C679 0.930 . S
C670 H664 0.930 . S
C670 C671 1.355 . S
C670 C672 1.415 . S
C671 C670 1.355 . S
C671 C673 1.419 . S
C672 C670 1.415 . S
C672 C677 1.425 . S
C672 C679 1.409 . S
C673 H665 0.930 . S
C673 C671 1.419 . S
C673 C674 1.362 . S
C674 H666 0.930 . S
C674 C673 1.362 . S
C674 C677 1.409 . S
C675 H667 0.930 . S
C675 C676 1.355 . S
C675 C677 1.415 . S
C676 C675 1.355 . S
C676 C678 1.419 . S
C677 C672 1.425 . S
C677 C674 1.409 . S
C677 C675 1.415 . S
C678 H668 0.930 . S
C678 C676 1.419 . S
C678 C679 1.362 . S
C679 H669 0.930 . S
C679 C672 1.409 . S
C679 C678 1.362 . S
H680 C686 0.930 . S
H681 C689 0.930 . S
H682 C690 0.930 . S
H683 C691 0.930 . S
H684 C694 0.930 . S
H685 C695 0.930 . S
C686 H680 0.930 . S
C686 C687 1.355 . S
C686 C688 1.415 . S
C687 C686 1.355 . S
C687 C689 1.419 . S
C688 C686 1.415 . S
C688 C693 1.425 . S
C688 C695 1.409 . S
C689 H681 0.930 . S
C689 C687 1.419 . S
C689 C690 1.362 . S
C690 H682 0.930 . S
C690 C689 1.362 . S
C690 C693 1.409 . S
C691 H683 0.930 . S
C691 C692 1.355 . S
C691 C693 1.415 . S
C692 C691 1.355 . S
C692 C694 1.419 . S
C693 C688 1.425 . S
C693 C690 1.409 . S
C693 C691 1.415 . S
C694 H684 0.930 . S
C694 C692 1.419 . S
C694 C695 1.362 . S
C695 H685 0.930 . S
C695 C688 1.409 . S
C695 C694 1.362 . S
H696 C702 0.930 1_554 S
H697 C705 0.930 . S
H698 C706 0.930 . S
H699 C707 0.930 . S
H700 C710 0.930 1_655 S
H701 C711 0.930 1_654 S
C702 H696 0.930 1_556 S
C702 C703 1.355 . S
C702 C704 1.415 . S
C703 C702 1.355 . S
C703 C705 1.419 . S
C704 C702 1.415 . S
C704 C709 1.425 . S
C704 C711 1.409 . S
C705 H697 0.930 . S
C705 C703 1.419 . S
C705 C706 1.362 . S
C706 H698 0.930 . S
C706 C705 1.362 . S
C706 C709 1.409 . S
C707 H699 0.930 . S
C707 C708 1.355 . S
C707 C709 1.415 . S
C708 C707 1.355 . S
C708 C710 1.419 . S
C709 C704 1.425 . S
C709 C706 1.409 . S
C709 C707 1.415 . S
C710 H700 0.930 1_455 S
C710 C708 1.419 . S
C710 C711 1.362 . S
C711 H701 0.930 1_456 S
C711 C704 1.409 . S
C711 C710 1.362 . S
H712 C718 0.930 1_554 S
H713 C721 0.930 . S
H714 C722 0.930 . S
H715 C723 0.930 . S
H716 C726 0.930 1_554 S
H717 C727 0.930 . S
C718 H712 0.930 1_556 S
C718 C719 1.355 . S
C718 C720 1.415 . S
C719 C718 1.355 . S
C719 C721 1.419 . S
C720 C718 1.415 . S
C720 C725 1.425 . S
C720 C727 1.409 1_556 S
C721 H713 0.930 . S
C721 C719 1.419 . S
C721 C722 1.362 . S
C722 H714 0.930 . S
C722 C721 1.362 . S
C722 C725 1.409 . S
C723 H715 0.930 . S
C723 C724 1.355 . S
C723 C725 1.415 . S
C724 C723 1.355 . S
C724 C726 1.419 . S
C725 C720 1.425 . S
C725 C722 1.409 . S
C725 C723 1.415 . S
C726 H716 0.930 1_556 S
C726 C724 1.419 . S
C726 C727 1.362 1_556 S
C727 H717 0.930 . S
C727 C720 1.409 1_554 S
C727 C726 1.362 1_554 S
H728 C734 0.930 . S
H729 C737 0.930 . S
H730 C738 0.930 . S
H731 C739 0.930 . S
H732 C742 0.930 . S
H733 C743 0.930 . S
C734 H728 0.930 . S
C734 C735 1.355 . S
C734 C736 1.415 . S
C735 C734 1.355 . S
C735 C737 1.419 . S
C736 C734 1.415 . S
C736 C741 1.425 . S
C736 C743 1.409 . S
C737 H729 0.930 . S
C737 C735 1.419 . S
C737 C738 1.362 . S
C738 H730 0.930 . S
C738 C737 1.362 . S
C738 C741 1.409 . S
C739 H731 0.930 . S
C739 C740 1.355 . S
C739 C741 1.415 . S
C740 C739 1.355 . S
C740 C742 1.419 . S
C741 C736 1.425 . S
C741 C738 1.409 . S
C741 C739 1.415 . S
C742 H732 0.930 . S
C742 C740 1.419 . S
C742 C743 1.362 . S
C743 H733 0.930 . S
C743 C736 1.409 . S
C743 C742 1.362 . S
H744 C750 0.930 . S
H745 C753 0.930 . S
H746 C754 0.930 . S
H747 C755 0.930 . S
H748 C758 0.930 . S
H749 C759 0.930 . S
C750 H744 0.930 . S
C750 C751 1.355 . S
C750 C752 1.415 . S
C751 C750 1.355 . S
C751 C753 1.419 1_556 S
C752 C750 1.415 . S
C752 C757 1.425 . S
C752 C759 1.409 . S
C753 H745 0.930 . S
C753 C751 1.419 1_554 S
C753 C754 1.362 . S
C754 H746 0.930 . S
C754 C753 1.362 . S
C754 C757 1.409 1_554 S
C755 H747 0.930 . S
C755 C756 1.355 . S
C755 C757 1.415 . S
C756 C755 1.355 . S
C756 C758 1.419 . S
C757 C752 1.425 . S
C757 C754 1.409 1_556 S
C757 C755 1.415 . S
C758 H748 0.930 . S
C758 C756 1.419 . S
C758 C759 1.362 . S
C759 H749 0.930 . S
C759 C752 1.409 . S
C759 C758 1.362 . S
H760 C766 0.930 . S
H761 C769 0.930 . S
H762 C770 0.930 . S
H763 C771 0.930 . S
H764 C774 0.930 . S
H765 C775 0.930 . S
C766 H760 0.930 . S
C766 C767 1.355 1_455 S
C766 C768 1.416 . S
C767 C766 1.355 1_655 S
C767 C769 1.419 . S
C768 C766 1.416 . S
C768 C773 1.409 1_455 S
C768 C775 1.424 . S
C769 H761 0.930 . S
C769 C767 1.419 . S
C769 C770 1.362 . S
C770 H762 0.930 . S
C770 C769 1.362 . S
C770 C773 1.409 . S
C771 H763 0.930 . S
C771 C772 1.355 . S
C771 C773 1.415 . S
C772 C771 1.355 . S
C772 C774 1.419 1_655 S
C773 C768 1.409 1_655 S
C773 C770 1.409 . S
C773 C771 1.415 . S
C774 H764 0.930 . S
C774 C772 1.419 1_455 S
C774 C775 1.362 . S
C775 H765 0.930 . S
C775 C768 1.424 . S
C775 C774 1.362 . S
H776 C782 0.930 . S
H777 C785 0.930 . S
H778 C786 0.930 . S
H779 C787 0.930 . S
H780 C790 0.930 . S
H781 C791 0.930 . S
C782 H776 0.930 . S
C782 C783 1.355 . S
C782 C784 1.415 . S
C783 C782 1.355 . S
C783 C785 1.419 1_565 S
C784 C782 1.415 . S
C784 C789 1.425 1_565 S
C784 C791 1.409 . S
C785 H777 0.930 . S
C785 C783 1.419 1_545 S
C785 C786 1.362 . S
C786 H778 0.930 . S
C786 C785 1.362 . S
C786 C789 1.409 . S
C787 H779 0.930 . S
C787 C788 1.355 1_545 S
C787 C789 1.415 . S
C788 C787 1.355 1_565 S
C788 C790 1.419 . S
C789 C784 1.425 1_545 S
C789 C786 1.409 . S
C789 C787 1.415 . S
C790 H780 0.930 . S
C790 C788 1.419 . S
C790 C791 1.362 . S
C791 H781 0.930 . S
C791 C784 1.409 . S
C791 C790 1.362 . S
H792 C798 0.930 . S
H793 C801 0.930 . S
H794 C802 0.930 . S
H795 C803 0.930 . S
H796 C806 0.930 . S
H797 C807 0.930 . S
C798 H792 0.930 . S
C798 C799 1.355 . S
C798 C800 1.415 . S
C799 C798 1.355 . S
C799 C801 1.419 . S
C800 C798 1.415 . S
C800 C805 1.425 . S
C800 C807 1.409 . S
C801 H793 0.930 . S
C801 C799 1.419 . S
C801 C802 1.362 . S
C802 H794 0.930 . S
C802 C801 1.362 . S
C802 C805 1.409 . S
C803 H795 0.930 . S
C803 C804 1.355 . S
C803 C805 1.415 . S
C804 C803 1.355 . S
C804 C806 1.419 . S
C805 C800 1.425 . S
C805 C802 1.409 . S
C805 C803 1.415 . S
C806 H796 0.930 . S
C806 C804 1.419 . S
C806 C807 1.362 . S
C807 H797 0.930 . S
C807 C800 1.409 . S
C807 C806 1.362 . S
H808 C814 0.930 . S
H809 C817 0.930 . S
H810 C818 0.930 . S
H811 C819 0.930 . S
H812 C822 0.930 . S
H813 C823 0.930 . S
C814 H808 0.930 . S
C814 C815 1.355 . S
C814 C816 1.415 . S
C815 C814 1.355 . S
C815 C817 1.419 . S
C816 C814 1.415 . S
C816 C821 1.425 . S
C816 C823 1.409 . S
C817 H809 0.930 . S
C817 C815 1.419 . S
C817 C818 1.362 . S
C818 H810 0.930 . S
C818 C817 1.362 . S
C818 C821 1.409 . S
C819 H811 0.930 . S
C819 C820 1.355 . S
C819 C821 1.415 . S
C820 C819 1.355 . S
C820 C822 1.419 . S
C821 C816 1.425 . S
C821 C818 1.409 . S
C821 C819 1.415 . S
C822 H812 0.930 . S
C822 C820 1.419 . S
C822 C823 1.362 . S
C823 H813 0.930 . S
C823 C816 1.409 . S
C823 C822 1.362 . S
C447 N80 1.934 . S
C452 C172 2.058 . S
C468 C255 2.057 . S
C463 N93 1.934 . S
C484 C340 2.036 . S
C479 N54 1.933 . S
C500 C424 2.024 . S
C495 N67 1.949 . S
C516 C160 2.057 . S
C511 N28 2.001 . S
C527 N41 1.981 . S
C532 C243 2.080 . S
C543 N2 1.969 . S
C548 C328 2.068 . S
C559 N15 1.952 . S
C564 C412 2.025 . S
C580 C162 0.567 . S
C575 N70 0.654 . S
C596 C258 0.582 . S
C591 N83 0.635 . S
C612 C330 0.718 . S
C607 N96 0.559 . S
C623 N57 0.639 . S
C628 C414 0.529 . S
C639 N18 0.634 . S
C644 C174 0.601 . S
C660 C246 0.601 . S
C655 N31 0.534 . S
C676 C342 0.545 . S
C671 N44 0.652 . S
C687 N5 0.544 . S
C692 C426 0.705 . S
C703 N66 2.091 . S
C708 C159 2.162 . S
C719 N79 2.100 . S
C724 C244 2.161 . S
C740 C327 2.180 . S
C735 N92 2.096 . S
C756 C411 2.168 . S
C751 N53 2.064 . S
C767 N14 2.058 . S
C772 C171 2.149 . S
C788 C256 2.176 1_565 S
C783 N27 2.080 . S
C804 C339 2.172 . S
C799 N40 2.090 . S
C815 N1 2.112 . S
C820 C423 2.185 . S
