# Generated by pormake.
# Topology rtl, (3,6)-cn, num edge types: 1
# Building blocks:
#     Node 0, Type 0, BuildingBlock: BETDAH_clean_linker_0, # of connection points: 3
#     Node 1, Type 0, BuildingBlock: BETDAH_clean_linker_0, # of connection points: 3
#     Node 2, Type 0, BuildingBlock: BETDAH_clean_linker_0, # of connection points: 3
#     Node 3, Type 0, BuildingBlock: BETDAH_clean_linker_0, # of connection points: 3
#     Node 4, Type 1, BuildingBlock: VOLQOD_clean_sbu_1, # of connection points: 6
#     Node 5, Type 1, BuildingBlock: VOLQOD_clean_sbu_1, # of connection points: 6
#     Edge 6, Type (0, 1), BuildingBlock: TEMPAE_clean_linker_10, # of connection points: 2
#     Edge 7, Type (0, 1), BuildingBlock: TEMPAE_clean_linker_10, # of connection points: 2
#     Edge 8, Type (0, 1), BuildingBlock: TEMPAE_clean_linker_10, # of connection points: 2
#     Edge 9, Type (0, 1), BuildingBlock: TEMPAE_clean_linker_10, # of connection points: 2
#     Edge 10, Type (0, 1), BuildingBlock: TEMPAE_clean_linker_10, # of connection points: 2
#     Edge 11, Type (0, 1), BuildingBlock: TEMPAE_clean_linker_10, # of connection points: 2
#     Edge 12, Type (0, 1), BuildingBlock: TEMPAE_clean_linker_10, # of connection points: 2
#     Edge 13, Type (0, 1), BuildingBlock: TEMPAE_clean_linker_10, # of connection points: 2
#     Edge 14, Type (0, 1), BuildingBlock: TEMPAE_clean_linker_10, # of connection points: 2
#     Edge 15, Type (0, 1), BuildingBlock: TEMPAE_clean_linker_10, # of connection points: 2
#     Edge 16, Type (0, 1), BuildingBlock: TEMPAE_clean_linker_10, # of connection points: 2
#     Edge 17, Type (0, 1), BuildingBlock: TEMPAE_clean_linker_10, # of connection points: 2
# Relax obj value: 0.041
# Max RMSD: 0.143
# Mean RMSD: 0.094
data_MOF--net-rtl--node1-VOLQOD_clean_sbu_1--node2-BETDAH_clean_linker_0--edge1-TEMPAE_clean_linker_10
_symmetry_space_group_name_H-M    P1
_symmetry_Int_Tables_number       1
_symmetry_cell_setting            triclinic
loop_
_symmetry_equiv_pos_as_xyz
'x, y, z'
_cell_length_a     38.03845
_cell_length_b     38.173188
_cell_length_c     22.219847
_cell_angle_alpha  91.46073
_cell_angle_beta   91.804654
_cell_angle_gamma 90.0346
loop_
_atom_site_label
_atom_site_type_symbol
_atom_site_fract_x
_atom_site_fract_y
_atom_site_fract_z
_atom_type_partial_charge
H0 H 0.13961 0.84574 -0.00474 0.0
H1 H 0.17827 0.7487 0.06564 0.0
H2 H 0.1646 0.76025 0.87426 0.0
C3 C 0.14968 0.81947 0.98755 0.0
C4 C 0.15151 0.80578 0.92867 0.0
C5 C 0.15907 0.79904 0.03693 0.0
C6 C 0.17184 0.7649 0.0275 0.0
C7 C 0.17438 0.75119 0.96838 0.0
C8 C 0.1638 0.77151 0.91948 0.0
N9 N 0.18486 0.71618 0.95669 0.0
C10 C 0.21293 0.70038 0.98663 0.0
H11 H 0.63725 0.65463 0.539 0.0
H12 H 0.68305 0.74815 0.47082 0.0
H13 H 0.66449 0.74062 0.66001 0.0
C14 C 0.64897 0.6803 0.54704 0.0
C15 C 0.65038 0.69474 0.60561 0.0
C16 C 0.6606 0.69923 0.49816 0.0
C17 C 0.67436 0.73312 0.50833 0.0
C18 C 0.67576 0.74792 0.56703 0.0
C19 C 0.66331 0.72891 0.61504 0.0
N20 N 0.68821 0.78241 0.57901 0.0
C21 C 0.71728 0.79634 0.55196 0.0
H22 H 0.87112 0.15369 0.99101 0.0
H23 H 0.83369 0.24909 0.07334 0.0
H24 H 0.86449 0.24801 0.88916 0.0
C25 C 0.86426 0.18112 0.98757 0.0
C26 C 0.86908 0.19821 0.93325 0.0
C27 C 0.85245 0.19932 0.03872 0.0
C28 C 0.84276 0.23468 0.03416 0.0
C29 C 0.84634 0.25182 0.97946 0.0
C30 C 0.86037 0.23388 0.93002 0.0
N31 N 0.83779 0.28767 0.97389 0.0
C32 C 0.80656 0.30171 -0.00581 0.0
H33 H 0.37606 0.33495 0.55842 0.0
H34 H 0.27618 0.30847 0.63077 0.0
H35 H 0.28265 0.33147 0.44385 0.0
C36 C 0.34822 0.32969 0.55182 0.0
C37 C 0.33224 0.33398 0.49458 0.0
C38 C 0.32831 0.32125 0.60168 0.0
C39 C 0.29216 0.31458 0.59289 0.0
C40 C 0.27616 0.31722 0.53551 0.0
C41 C 0.29599 0.32736 0.48687 0.0
N42 N 0.23931 0.3138 0.52803 0.0
C43 C 0.22373 0.2815 0.51532 0.0
O44 O 0.92477 0.97095 0.47202 0.0
Zn45 Zn 0.95649 0.0129 0.47575 0.0
O46 O 0.0058 -0.00037 0.47093 0.0
Zn47 Zn 0.03188 0.01912 0.54102 0.0
Zn48 Zn 0.00877 0.94862 0.47142 0.0
Zn49 Zn 0.02561 0.01762 0.3971 0.0
O50 O 0.06996 0.05131 0.51678 0.0
O51 O 0.0643 0.05331 0.41727 0.0
O52 O 0.94706 0.04024 0.5519 0.0
O53 O 1.00049 0.04822 0.59327 0.0
O54 O 0.05324 0.98135 0.59206 0.0
O55 O 0.03376 0.93244 0.54635 0.0
O56 O 0.0372 0.93112 0.40272 0.0
O57 O 0.94216 0.04316 0.40714 0.0
O58 O 0.04681 0.97782 0.34753 0.0
O59 O 0.98815 0.04303 0.34797 0.0
C60 C 0.92982 0.93804 0.46809 0.0
C61 C 0.07932 0.06335 0.46689 0.0
C62 C 0.05091 0.94806 0.58917 0.0
C63 C 0.96746 0.05341 0.59292 0.0
C64 C 0.05019 0.94514 0.35705 0.0
C65 C 0.95673 0.05225 0.35921 0.0
O66 O 0.96081 0.92543 0.46673 0.0
O67 O 0.58973 0.4721 0.05005 0.0
Zn68 Zn 0.55665 0.51287 0.0467 0.0
O69 O 0.50787 0.49759 0.04836 0.0
Zn70 Zn 0.48324 0.51194 0.97447 0.0
Zn71 Zn 0.50644 0.44629 0.05417 0.0
Zn72 Zn 0.4857 0.5198 0.11789 0.0
O73 O 0.44236 0.5436 0.99295 0.0
O74 O 0.44519 0.55053 0.09237 0.0
O75 O 0.56601 0.53923 0.97229 0.0
O76 O 0.51508 0.53853 0.9209 0.0
O77 O 0.46408 0.46998 0.92795 0.0
O78 O 0.47835 0.42444 0.984 0.0
O79 O 0.48228 0.43228 0.12934 0.0
O80 O 0.56911 0.54553 0.11574 0.0
O81 O 0.46542 0.48315 0.17006 0.0
O82 O 0.5203 0.54988 0.16749 0.0
C83 C 0.58589 0.43907 0.05312 0.0
C84 C 0.43069 0.557 0.04146 0.0
C85 C 0.46353 0.4372 0.93725 0.0
C86 C 0.54727 0.54756 0.92648 0.0
C87 C 0.46641 0.4498 0.16975 0.0
C88 C 0.55238 0.55795 0.16006 0.0
O89 O 0.55541 0.42528 0.05484 0.0
C90 C 0.16897 0.24774 0.50772 0.0
C91 C 0.20544 0.24899 0.50271 0.0
C92 C 0.15053 0.21624 0.49734 0.0
C93 C 0.16921 0.18539 0.4816 0.0
C94 C 0.20615 0.18683 0.47541 0.0
C95 C 0.22392 0.21879 0.48619 0.0
C96 C 0.11119 0.21581 0.50456 0.0
C97 C 0.22691 0.15454 0.45866 0.0
C98 C 0.12339 0.10159 0.52257 0.0
C99 C 0.10607 0.09171 0.468 0.0
C100 C 0.14526 0.13116 0.52687 0.0
C101 C 0.15009 0.15141 0.47533 0.0
C102 C 0.13423 0.14062 0.41936 0.0
C103 C 0.11237 0.11086 0.41633 0.0
C104 C 0.16177 0.1417 0.58738 0.0
C105 C 0.13898 0.16144 0.36335 0.0
H106 H 0.15491 0.27137 0.52044 0.0
H107 H 0.25224 0.22011 0.48231 0.0
H108 H 0.09786 0.20511 0.46292 0.0
H109 H 0.10452 0.1984 0.54179 0.0
H110 H 0.10049 0.24233 0.51452 0.0
H111 H 0.2551 0.16051 0.45211 0.0
H112 H 0.22512 0.13504 0.49461 0.0
H113 H 0.21566 0.14216 0.41663 0.0
H114 H 0.119 0.08685 0.56271 0.0
H115 H 0.09921 0.10342 0.37394 0.0
H116 H 0.15011 0.16676 0.60345 0.0
H117 H 0.19041 0.14611 0.58341 0.0
H118 H 0.15775 0.12165 0.62189 0.0
H119 H 0.12547 0.18707 0.36819 0.0
H120 H 0.12809 0.14761 0.32228 0.0
H121 H 0.16726 0.16692 0.35712 0.0
C122 C 0.2416 0.64584 0.0169 0.0
C123 C 0.2436 0.68186 0.008 0.0
C124 C 0.27218 0.62619 0.02795 0.0
C125 C 0.30536 0.64316 0.02972 0.0
C126 C 0.30717 0.67996 0.02335 0.0
C127 C 0.27612 0.69892 0.01231 0.0
C128 C 0.26913 0.58705 0.0346 0.0
C129 C 0.342 0.699 0.02509 0.0
C130 C 0.38455 0.5934 0.09168 0.0
C131 C 0.39924 0.57997 0.03867 0.0
C132 C 0.35419 0.61432 0.08956 0.0
C133 C 0.33816 0.62203 0.03313 0.0
C134 C 0.35307 0.60893 0.97947 0.0
C135 C 0.38337 0.58808 0.98289 0.0
C136 C 0.33902 0.62783 0.14768 0.0
C137 C 0.33677 0.61664 0.91836 0.0
H138 H 0.21624 0.63282 0.01285 0.0
H139 H 0.27738 0.72685 0.00473 0.0
H140 H 0.2809 0.57341 -0.00459 0.0
H141 H 0.28393 0.57869 0.07557 0.0
H142 H 0.24135 0.57838 0.03738 0.0
H143 H 0.33867 0.72791 0.0252 0.0
H144 H 0.35789 0.69188 0.06567 0.0
H145 H 0.35715 0.69099 0.98517 0.0
H146 H 0.39657 0.58732 0.13503 0.0
H147 H 0.3945 0.57794 0.94166 0.0
H148 H 0.31203 0.61736 0.15204 0.0
H149 H 0.33696 0.65681 0.14738 0.0
H150 H 0.35519 0.62031 0.18781 0.0
H151 H 0.30958 0.60609 0.91488 0.0
H152 H 0.352 0.60506 0.88094 0.0
H153 H 0.33503 0.64537 0.91252 0.0
C154 C 0.77027 0.83024 0.57727 0.0
C155 C 0.74887 0.8132 0.53351 0.0
C156 C 0.8005 0.84828 0.56126 0.0
C157 C 0.80941 0.84918 0.49989 0.0
C158 C 0.78809 0.83124 0.45556 0.0
C159 C 0.75784 0.8134 0.473 0.0
C160 C 0.82242 0.86709 0.60992 0.0
C161 C 0.79684 0.83157 0.38981 0.0
C162 C 0.86481 0.92806 0.46499 0.0
C163 C 0.89899 0.91424 0.46853 0.0
C164 C 0.83529 0.90672 0.47182 0.0
C165 C 0.83997 0.87062 0.48258 0.0
C166 C 0.87422 0.8561 0.48312 0.0
C167 C 0.90336 0.87809 0.47601 0.0
C168 C 0.79919 0.92321 0.47066 0.0
C169 C 0.88023 0.81769 0.49429 0.0
H170 H 0.76304 0.82985 0.6241 0.0
H171 H 0.74103 0.80001 0.43944 0.0
H172 H 0.85016 0.85821 0.60851 0.0
H173 H 0.82224 0.89568 0.60206 0.0
H174 H 0.81262 0.86263 0.65567 0.0
H175 H 0.77892 0.81452 0.36155 0.0
H176 H 0.79496 0.85871 0.3733 0.0
H177 H 0.82431 0.8227 0.38374 0.0
H178 H 0.86107 0.95588 0.45853 0.0
H179 H 0.92962 0.86711 0.47853 0.0
H180 H 0.78827 0.92273 0.51635 0.0
H181 H 0.78098 0.90806 0.43991 0.0
H182 H 0.79974 0.95081 0.45603 0.0
H183 H 0.8742 0.81207 0.54162 0.0
H184 H 0.90781 0.80971 0.48631 0.0
H185 H 0.86234 0.80134 0.46487 0.0
C186 C 0.76222 0.32148 0.0663 0.0
C187 C 0.77342 0.31794 0.00717 0.0
C188 C 0.73063 0.33897 0.07872 0.0
C189 C 0.71023 0.35314 0.03071 0.0
C190 C 0.72136 0.34875 0.97074 0.0
C191 C 0.75292 0.33115 0.95975 0.0
C192 C 0.71956 0.34307 0.14313 0.0
C193 C 0.70045 0.3635 0.91831 0.0
C194 C 0.61467 0.37989 0.04668 0.0
C195 C 0.61763 0.41648 0.05262 0.0
C196 C 0.64469 0.3587 0.04173 0.0
C197 C 0.67841 0.37448 0.0429 0.0
C198 C 0.68162 0.41123 0.05115 0.0
C199 C 0.65125 0.43175 0.05583 0.0
C200 C 0.64027 0.31957 0.03304 0.0
C201 C 0.71712 0.42906 0.05283 0.0
H202 H 0.77836 0.31105 0.10274 0.0
H203 H 0.7619 0.3282 0.91404 0.0
H204 H 0.71996 0.37121 0.15692 0.0
H205 H 0.69219 0.33359 0.14739 0.0
H206 H 0.73705 0.32853 0.17472 0.0
H207 H 0.71187 0.35633 0.87428 0.0
H208 H 0.67293 0.35386 0.91825 0.0
H209 H 0.69955 0.3925 0.92287 0.0
H210 H 0.58884 0.36782 0.04433 0.0
H211 H 0.65391 0.45995 0.06096 0.0
H212 H 0.65738 0.30557 0.06583 0.0
H213 H 0.64851 0.31149 0.9873 0.0
H214 H 0.61262 0.31108 0.03833 0.0
H215 H 0.73493 0.41688 0.08679 0.0
H216 H 0.71526 0.45756 0.06369 0.0
H217 H 0.72939 0.42565 0.00842 0.0
C218 C 0.1707 0.83946 0.12477 0.0
C219 C 0.15036 0.8127 0.09712 0.0
C220 C 0.15771 0.85947 0.17309 0.0
C221 C 0.12321 0.85311 0.19251 0.0
C222 C 0.10343 0.82476 0.16666 0.0
C223 C 0.11742 0.80471 0.11943 0.0
C224 C 0.17997 0.88883 0.20059 0.0
C225 C 0.06639 0.81738 0.18542 0.0
C226 C 0.08836 0.89335 0.33674 0.0
C227 C 0.07024 0.92273 0.31519 0.0
C228 C 0.10689 0.87115 0.29772 0.0
C229 C 0.10641 0.87796 0.23545 0.0
C230 C 0.0884 0.90778 0.21352 0.0
C231 C 0.07093 0.93013 0.25387 0.0
C232 C 0.12665 0.84025 0.323 0.0
C233 C 0.08672 0.91555 0.14718 0.0
H234 H 0.19595 0.84589 0.10652 0.0
H235 H 0.10152 0.78445 0.09685 0.0
H236 H 0.16939 0.91436 0.18564 0.0
H237 H 0.17913 0.88881 0.25046 0.0
H238 H 0.20781 0.88682 0.18722 0.0
H239 H 0.05569 0.79273 0.1644 0.0
H240 H 0.06545 0.8155 0.23505 0.0
H241 H 0.04898 0.83935 0.172 0.0
H242 H 0.08827 0.88783 0.38436 0.0
H243 H 0.05686 0.95276 0.23715 0.0
H244 H 0.1543 0.84056 0.30852 0.0
H245 H 0.1146 0.81547 0.30521 0.0
H246 H 0.12661 0.84013 0.37299 0.0
H247 H 0.11366 0.91847 0.13026 0.0
H248 H 0.07168 0.93981 0.13748 0.0
H249 H 0.0741 0.89332 0.12157 0.0
C250 C 0.61592 0.68967 0.69938 0.0
C251 C 0.63736 0.67411 0.65604 0.0
C252 C 0.60163 0.6697 0.7448 0.0
C253 C 0.60883 0.63335 0.74657 0.0
C254 C 0.63097 0.61765 0.70365 0.0
C255 C 0.64512 0.63826 0.65913 0.0
C256 C 0.57831 0.68734 0.7902 0.0
C257 C 0.63925 0.57895 0.70414 0.0
C258 C 0.59603 0.585 0.89112 0.0
C259 C 0.56307 0.56915 0.87997 0.0
C260 C 0.61107 0.60627 0.84832 0.0
C261 C 0.59287 0.61155 0.79283 0.0
C262 C 0.55971 0.59551 0.78106 0.0
C263 C 0.54511 0.57461 0.82492 0.0
C264 C 0.64638 0.62316 0.86255 0.0
C265 C 0.53975 0.6003 0.72201 0.0
H266 H 0.60954 0.71727 0.69683 0.0
H267 H 0.66215 0.62623 0.62632 0.0
H268 H 0.55145 0.67603 0.7861 0.0
H269 H 0.5885 0.68251 0.83659 0.0
H270 H 0.57649 0.71608 0.78409 0.0
H271 H 0.65723 0.5709 0.66786 0.0
H272 H 0.65158 0.57205 0.74816 0.0
H273 H 0.61458 0.56354 0.69842 0.0
H274 H 0.61002 0.58112 0.93368 0.0
H275 H 0.51969 0.56241 0.81591 0.0
H276 H 0.64417 0.65204 0.85948 0.0
H277 H 0.66568 0.6143 0.82902 0.0
H278 H 0.65684 0.61685 0.90824 0.0
H279 H 0.53459 0.62854 0.71512 0.0
H280 H 0.51424 0.58606 0.71995 0.0
H281 H 0.55582 0.59075 0.68415 0.0
C282 C 0.8446 0.14713 0.1024 0.0
C283 C 0.85551 0.18201 0.09758 0.0
C284 C 0.85668 0.12678 0.15042 0.0
C285 C 0.88 0.14185 0.19473 0.0
C286 C 0.88812 0.17803 0.19337 0.0
C287 C 0.87576 0.19774 0.14463 0.0
C288 C 0.84708 0.08841 0.15053 0.0
C289 C 0.91246 0.1952 0.24032 0.0
C290 C 0.90455 0.08955 0.33301 0.0
C291 C 0.93687 0.07481 0.31679 0.0
C292 C 0.88575 0.11162 0.29402 0.0
C293 C 0.89947 0.11892 0.2373 0.0
C294 C 0.93195 0.10401 0.22049 0.0
C295 C 0.95031 0.08225 0.2605 0.0
C296 C 0.85135 0.12723 0.31358 0.0
C297 C 0.94733 0.11101 0.16008 0.0
H298 H 0.82861 0.13506 0.06629 0.0
H299 H 0.8844 0.22465 0.14092 0.0
H300 H 0.87018 0.0725 0.13757 0.0
H301 H 0.83981 0.08051 0.1962 0.0
H302 H 0.82489 0.08201 0.1184 0.0
H303 H 0.91159 0.22425 0.23846 0.0
H304 H 0.90562 0.18727 0.28618 0.0
H305 H 0.93985 0.18656 0.23273 0.0
H306 H 0.89399 0.08414 0.37655 0.0
H307 H 0.97518 0.07098 0.24753 0.0
H308 H 0.82983 0.11925 0.28124 0.0
H309 H 0.8529 0.15625 0.31354 0.0
H310 H 0.84433 0.11902 0.35929 0.0
H311 H 0.9286 0.10242 0.12332 0.0
H312 H 0.97273 0.09727 0.15377 0.0
H313 H 0.95166 0.13955 0.15549 0.0
C314 C 0.32787 0.34518 0.70746 0.0
C315 C 0.34476 0.3252 0.6631 0.0
C316 C 0.34643 0.35762 0.75925 0.0
C317 C 0.38277 0.35021 0.76637 0.0
C318 C 0.39898 0.32708 0.72493 0.0
C319 C 0.37966 0.31461 0.67399 0.0
C320 C 0.32795 0.38156 0.80313 0.0
C321 C 0.43761 0.31834 0.73092 0.0
C322 C 0.43733 0.42507 0.83459 0.0
C323 C 0.44443 0.4138 0.89325 0.0
C324 C 0.41795 0.40418 0.79278 0.0
C325 C 0.4048 0.37136 0.81024 0.0
C326 C 0.41215 0.35957 0.86919 0.0
C327 C 0.43215 0.38086 0.90996 0.0
C328 C 0.41119 0.41751 0.73 0.0
C329 C 0.39816 0.32497 0.88959 0.0
H330 H 0.30095 0.35359 0.69953 0.0
H331 H 0.39264 0.2985 0.6405 0.0
H332 H 0.33569 0.37543 0.85024 0.0
H333 H 0.3357 0.40909 0.79557 0.0
H334 H 0.29888 0.37954 0.79759 0.0
H335 H 0.44467 0.29556 0.70164 0.0
H336 H 0.4533 0.34128 0.71771 0.0
H337 H 0.44523 0.31258 0.77822 0.0
H338 H 0.44697 0.45036 0.82123 0.0
H339 H 0.43737 0.37211 0.9554 0.0
H340 H 0.38252 0.42098 0.72151 0.0
H341 H 0.42052 0.39811 0.69608 0.0
H342 H 0.42448 0.44294 0.72295 0.0
H343 H 0.36901 0.32587 0.88966 0.0
H344 H 0.40813 0.31853 0.93551 0.0
H345 H 0.40549 0.30351 0.85782 0.0
C346 C 0.63505 0.70182 0.39347 0.0
C347 C 0.65496 0.68381 0.43683 0.0
C348 C 0.62131 0.68418 0.34166 0.0
C349 C 0.62761 0.64781 0.33363 0.0
C350 C 0.65033 0.63038 0.37465 0.0
C351 C 0.66386 0.64868 0.42565 0.0
C352 C 0.59778 0.70381 0.29824 0.0
C353 C 0.65791 0.59168 0.3676 0.0
C354 C 0.55648 0.59037 0.25938 0.0
C355 C 0.57078 0.58233 0.20336 0.0
C356 C 0.57442 0.61234 0.30158 0.0
C357 C 0.60725 0.62698 0.28711 0.0
C358 C 0.62133 0.61987 0.22997 0.0
C359 C 0.60304 0.59744 0.18891 0.0
C360 C 0.55867 0.61911 0.36235 0.0
C361 C 0.65599 0.6354 0.21267 0.0
H362 H 0.62803 0.72896 0.40217 0.0
H363 H 0.67958 0.63488 0.459 0.0
H364 H 0.60392 0.69677 0.25098 0.0
H365 H 0.56998 0.69643 0.30492 0.0
H366 H 0.60033 0.73265 0.305 0.0
H367 H 0.67911 0.58305 0.39941 0.0
H368 H 0.63373 0.57655 0.37614 0.0
H369 H 0.66569 0.58509 0.321 0.0
H370 H 0.53159 0.57885 0.27086 0.0
H371 H 0.61413 0.59169 0.14541 0.0
H372 H 0.55587 0.6477 0.37103 0.0
H373 H 0.57646 0.60885 0.3983 0.0
H374 H 0.53245 0.6066 0.36585 0.0
H375 H 0.65586 0.66423 0.22044 0.0
H376 H 0.66186 0.62967 0.16476 0.0
H377 H 0.67758 0.62469 0.24141 0.0
C378 C 0.90982 0.1529 0.89067 0.0
C379 C 0.88422 0.17885 0.88107 0.0
C380 C 0.92279 0.13282 0.84271 0.0
C381 C 0.91111 0.13984 0.78322 0.0
C382 C 0.88639 0.16686 0.77269 0.0
C383 C 0.8728 0.18568 0.82182 0.0
C384 C 0.94864 0.10374 0.85587 0.0
C385 C 0.87416 0.17574 0.7096 0.0
C386 C 0.97085 0.10578 0.66168 0.0
C387 C 0.9526 0.07584 0.64048 0.0
C388 C 0.95693 0.12766 0.70658 0.0
C389 C 0.92469 0.11856 0.73224 0.0
C390 C 0.90626 0.08819 0.71109 0.0
C391 C 0.92017 0.0675 0.66456 0.0
C392 C 0.97675 0.16043 0.72664 0.0
C393 C 0.87241 0.07703 0.73878 0.0
H394 H 0.91983 0.14808 0.93588 0.0
H395 H 0.85284 0.20538 0.81371 0.0
H396 H 0.93838 0.07852 0.83652 0.0
H397 H 0.97395 0.10901 0.83436 0.0
H398 H 0.95386 0.10069 0.90493 0.0
H399 H 0.85665 0.19902 0.70889 0.0
H400 H 0.89716 0.18092 0.6816 0.0
H401 H 0.85971 0.15318 0.68829 0.0
H402 H 0.99575 0.11239 0.64237 0.0
H403 H 0.90622 0.0442 0.64819 0.0
H404 H 0.98581 0.15837 0.77434 0.0
H405 H 0.95914 0.18355 0.72393 0.0
H406 H 1.00002 0.16512 0.69893 0.0
H407 H 0.87713 0.07238 0.78747 0.0
H408 H 0.86132 0.05275 0.71702 0.0
H409 H 0.85252 0.09815 0.73507 0.0
C410 C 0.34592 0.33792 0.38462 0.0
C411 C 0.35286 0.34843 0.44486 0.0
C412 C 0.3642 0.35283 0.3376 0.0
C413 C 0.39068 0.37813 0.35128 0.0
C414 C 0.39845 0.3882 0.41189 0.0
C415 C 0.37903 0.3738 0.45768 0.0
C416 C 0.35465 0.34212 0.27328 0.0
C417 C 0.42689 0.4147 0.42843 0.0
C418 C 0.45876 0.39844 0.23566 0.0
C419 C 0.44706 0.43104 0.21555 0.0
C420 C 0.44051 0.38067 0.2796 0.0
C421 C 0.40932 0.39544 0.30237 0.0
C422 C 0.39689 0.42788 0.28082 0.0
C423 C 0.41622 0.44555 0.23832 0.0
C424 C 0.45509 0.34663 0.30284 0.0
C425 C 0.36327 0.44406 0.30292 0.0
H426 H 0.32608 0.31815 0.37408 0.0
H427 H 0.38401 0.38312 0.5036 0.0
H428 H 0.34557 0.36537 0.24816 0.0
H429 H 0.37811 0.33169 0.2505 0.0
H430 H 0.3336 0.32191 0.27023 0.0
H431 H 0.43174 0.41737 0.4779 0.0
H432 H 0.45187 0.40705 0.40723 0.0
H433 H 0.41931 0.44072 0.41112 0.0
H434 H 0.48266 0.38725 0.21808 0.0
H435 H 0.40685 0.47053 0.2221 0.0
H436 H 0.4351 0.32555 0.29714 0.0
H437 H 0.46152 0.34957 0.35177 0.0
H438 H 0.47919 0.33827 0.27944 0.0
H439 H 0.34136 0.4249 0.29773 0.0
H440 H 0.35588 0.46806 0.27827 0.0
H441 H 0.36631 0.45105 0.35156 0.0
C442 C 0.15791 0.82905 0.8252 0.0
C443 C 0.1384 0.82662 0.87739 0.0
C444 C 0.14558 0.84894 0.77667 0.0
C445 C 0.11291 0.86648 0.78052 0.0
C446 C 0.09308 0.86397 0.83305 0.0
C447 C 0.10609 0.84408 0.88086 0.0
C448 C 0.16746 0.85124 0.72139 0.0
C449 C 0.05797 0.88206 0.83859 0.0
C450 C 0.09035 0.943 0.68095 0.0
C451 C 0.0681 0.92702 0.63676 0.0
C452 C 0.10597 0.92339 0.72713 0.0
C453 C 0.09894 0.88705 0.72935 0.0
C454 C 0.07701 0.87065 0.68439 0.0
C455 C 0.06194 0.89081 0.63853 0.0
C456 C 0.12943 0.94167 0.77421 0.0
C457 C 0.06874 0.83196 0.68558 0.0
H458 H 0.183 0.81573 0.82269 0.0
H459 H 0.0907 0.84176 0.92082 0.0
H460 H 0.15236 0.84078 0.68135 0.0
H461 H 0.17367 0.87904 0.71282 0.0
H462 H 0.1925 0.83643 0.7259 0.0
H463 H 0.04602 0.87769 0.88276 0.0
H464 H 0.0611 0.91067 0.83295 0.0
H465 H 0.03945 0.87235 0.80234 0.0
H466 H 0.09545 0.9709 0.67972 0.0
H467 H 0.04481 0.87821 0.6046 0.0
H468 H 0.15528 0.92829 0.77758 0.0
H469 H 0.1174 0.94029 0.81894 0.0
H470 H 0.13387 0.96965 0.76411 0.0
H471 H 0.09343 0.81652 0.68687 0.0
H472 H 0.05237 0.82296 0.64587 0.0
H473 H 0.05448 0.82616 0.72698 0.0
loop_
_geom_bond_atom_site_label_1
_geom_bond_atom_site_label_2
_geom_bond_distance
_geom_bond_site_symmetry_2
_ccdc_geom_bond_type
H0 C3 0.929 . S
H1 C6 0.929 . S
H2 C8 0.930 . S
C3 H0 0.929 . S
C3 C4 1.398 1_554 S
C3 C5 1.396 . S
C4 C3 1.398 1_556 S
C4 C8 1.407 . S
C5 C3 1.396 . S
C5 C6 1.394 . S
C6 H1 0.929 . S
C6 C5 1.394 . S
C6 C7 1.382 . S
C7 C6 1.382 . S
C7 C8 1.392 1_554 S
C7 N9 1.420 1_554 S
C8 H2 0.930 . S
C8 C4 1.407 . S
C8 C7 1.392 1_556 S
N9 C7 1.420 1_556 S
N9 C10 1.244 1_556 S
C10 N9 1.244 1_554 S
H11 C14 0.929 . S
H12 C17 0.929 . S
H13 C19 0.930 . S
C14 H11 0.929 . S
C14 C15 1.398 . S
C14 C16 1.396 . S
C15 C14 1.398 . S
C15 C19 1.407 . S
C16 C14 1.396 . S
C16 C17 1.394 . S
C17 H12 0.929 . S
C17 C16 1.394 . S
C17 C18 1.382 . S
C18 C17 1.382 . S
C18 C19 1.392 . S
C18 N20 1.420 . S
C19 H13 0.930 . S
C19 C15 1.407 . S
C19 C18 1.392 . S
N20 C18 1.420 . S
N20 C21 1.244 . S
C21 N20 1.244 . S
H22 C25 0.929 . S
H23 C28 0.929 . S
H24 C30 0.930 . S
C25 H22 0.929 . S
C25 C26 1.398 1_554 S
C25 C27 1.396 . S
C26 C25 1.398 1_556 S
C26 C30 1.407 . S
C27 C25 1.396 . S
C27 C28 1.394 . S
C28 H23 0.929 . S
C28 C27 1.394 . S
C28 C29 1.382 . S
C29 C28 1.382 . S
C29 C30 1.392 1_554 S
C29 N31 1.420 1_554 S
C30 H24 0.930 . S
C30 C26 1.407 . S
C30 C29 1.392 1_556 S
N31 C29 1.420 1_556 S
N31 C32 1.244 1_556 S
C32 N31 1.244 1_554 S
H33 C36 0.929 . S
H34 C39 0.929 . S
H35 C41 0.930 . S
C36 H33 0.929 . S
C36 C37 1.398 . S
C36 C38 1.396 . S
C37 C36 1.398 . S
C37 C41 1.407 . S
C38 C36 1.396 . S
C38 C39 1.394 . S
C39 H34 0.929 . S
C39 C38 1.394 . S
C39 C40 1.382 . S
C40 C39 1.382 . S
C40 C41 1.392 . S
C40 N42 1.420 . S
C41 H35 0.930 . S
C41 C37 1.407 . S
C41 C40 1.392 . S
N42 C40 1.420 . S
N42 C43 1.244 . S
C43 N42 1.244 . S
O44 Zn45 1.953 1_565 S
O44 C60 1.225 . S
Zn45 O44 1.953 1_545 S
Zn45 O46 1.949 1_655 S
Zn45 O52 1.919 . S
Zn45 O57 1.924 . S
O46 Zn45 1.949 1_455 S
O46 Zn47 1.923 . S
O46 Zn48 1.950 1_545 S
O46 Zn49 1.945 . S
Zn47 O46 1.923 . S
Zn47 O50 1.933 . S
Zn47 O53 1.929 1_455 S
Zn47 O54 1.965 1_545 S
Zn48 O46 1.950 1_565 S
Zn48 O55 1.938 . S
Zn48 O56 1.906 . S
Zn48 O66 1.953 1_455 S
Zn49 O46 1.945 . S
Zn49 O51 1.932 . S
Zn49 O58 1.977 1_545 S
Zn49 O59 1.910 1_455 S
O50 Zn47 1.933 . S
O50 C61 1.226 . S
O51 Zn49 1.932 . S
O51 C61 1.307 . S
O52 Zn45 1.919 . S
O52 C63 1.253 . S
O53 Zn47 1.929 1_655 S
O53 C63 1.300 . S
O54 Zn47 1.965 1_565 S
O54 C62 1.303 . S
O55 Zn48 1.938 . S
O55 C62 1.247 . S
O56 Zn48 1.906 . S
O56 C64 1.304 . S
O57 Zn45 1.924 . S
O57 C65 1.311 . S
O58 Zn49 1.977 1_565 S
O58 C64 1.272 . S
O59 Zn49 1.910 1_655 S
O59 C65 1.231 . S
C60 O44 1.225 . S
C60 O66 1.298 . S
C61 O50 1.226 . S
C61 O51 1.307 . S
C62 O54 1.303 . S
C62 O55 1.247 . S
C63 O52 1.253 . S
C63 O53 1.300 . S
C64 O56 1.304 . S
C64 O58 1.272 . S
C65 O57 1.311 . S
C65 O59 1.231 . S
O66 Zn48 1.953 1_655 S
O66 C60 1.298 . S
O67 Zn68 1.953 . S
O67 C83 1.225 . S
Zn68 O67 1.953 . S
Zn68 O69 1.949 . S
Zn68 O75 1.919 1_554 S
Zn68 O80 1.924 . S
O69 Zn68 1.949 . S
O69 Zn70 1.923 1_554 S
O69 Zn71 1.950 . S
O69 Zn72 1.945 . S
Zn70 O69 1.923 1_556 S
Zn70 O73 1.933 . S
Zn70 O76 1.941 . S
Zn70 O77 1.965 . S
Zn71 O69 1.950 . S
Zn71 O78 1.938 1_554 S
Zn71 O79 1.906 . S
Zn71 O89 1.953 . S
Zn72 O69 1.945 . S
Zn72 O74 1.932 . S
Zn72 O81 1.977 . S
Zn72 O82 1.910 . S
O73 Zn70 1.933 . S
O73 C84 1.226 1_556 S
O74 Zn72 1.932 . S
O74 C84 1.307 . S
O75 Zn68 1.919 1_556 S
O75 C86 1.253 . S
O76 Zn70 1.941 . S
O76 C86 1.283 . S
O77 Zn70 1.965 . S
O77 C85 1.303 . S
O78 Zn71 1.938 1_556 S
O78 C85 1.247 . S
O79 Zn71 1.906 . S
O79 C87 1.304 . S
O80 Zn68 1.924 . S
O80 C88 1.311 . S
O81 Zn72 1.977 . S
O81 C87 1.272 . S
O82 Zn72 1.910 . S
O82 C88 1.231 . S
C83 O67 1.225 . S
C83 O89 1.298 . S
C84 O73 1.226 1_554 S
C84 O74 1.307 . S
C85 O77 1.303 . S
C85 O78 1.247 . S
C86 O75 1.253 . S
C86 O76 1.283 . S
C87 O79 1.304 . S
C87 O81 1.272 . S
C88 O80 1.311 . S
C88 O82 1.231 . S
O89 Zn71 1.953 . S
O89 C83 1.298 . S
C90 C91 1.391 . S
C90 C92 1.394 . S
C90 H106 0.931 . S
C91 C90 1.391 . S
C91 C95 1.376 . S
C92 C90 1.394 . S
C92 C93 1.369 . S
C92 C96 1.531 . S
C93 C92 1.369 . S
C93 C94 1.410 . S
C93 C101 1.503 . S
C94 C93 1.410 . S
C94 C95 1.392 . S
C94 C97 1.511 . S
C95 C91 1.376 . S
C95 C94 1.392 . S
C95 H107 0.929 . S
C96 C92 1.531 . S
C96 H108 0.960 . S
C96 H109 0.962 . S
C96 H110 0.960 . S
C97 C94 1.511 . S
C97 H111 0.961 . S
C97 H112 0.961 . S
C97 H113 0.961 . S
C98 C99 1.370 . S
C98 C100 1.363 . S
C98 H114 0.931 . S
C99 C98 1.370 . S
C99 C103 1.408 . S
C100 C98 1.363 . S
C100 C101 1.370 . S
C100 C104 1.524 . S
C101 C93 1.503 . S
C101 C100 1.370 . S
C101 C102 1.403 . S
C102 C101 1.403 . S
C102 C103 1.404 . S
C102 C105 1.539 . S
C103 C99 1.408 . S
C103 C102 1.404 . S
C103 H115 0.930 . S
C104 C100 1.524 . S
C104 H116 0.956 . S
C104 H117 0.961 . S
C104 H118 0.961 . S
C105 C102 1.539 . S
C105 H119 0.958 . S
C105 H120 0.961 . S
C105 H121 0.960 . S
H106 C90 0.931 . S
H107 C95 0.929 . S
H108 C96 0.960 . S
H109 C96 0.962 . S
H110 C96 0.960 . S
H111 C97 0.961 . S
H112 C97 0.961 . S
H113 C97 0.961 . S
H114 C98 0.931 . S
H115 C103 0.930 . S
H116 C104 0.956 . S
H117 C104 0.961 . S
H118 C104 0.961 . S
H119 C105 0.958 . S
H120 C105 0.961 . S
H121 C105 0.960 . S
C122 C123 1.391 1_556 S
C122 C124 1.394 . S
C122 H138 0.931 . S
C123 C122 1.391 1_554 S
C123 C127 1.376 . S
C124 C122 1.394 . S
C124 C125 1.369 1_556 S
C124 C128 1.531 . S
C125 C124 1.369 1_554 S
C125 C126 1.410 . S
C125 C133 1.503 . S
C126 C125 1.410 . S
C126 C127 1.392 . S
C126 C129 1.511 . S
C127 C123 1.376 . S
C127 C126 1.392 . S
C127 H139 0.929 . S
C128 C124 1.531 . S
C128 H140 0.960 . S
C128 H141 0.962 . S
C128 H142 0.960 . S
C129 C126 1.511 . S
C129 H143 0.961 . S
C129 H144 0.961 . S
C129 H145 0.961 . S
C130 C131 1.370 . S
C130 C132 1.363 . S
C130 H146 0.931 . S
C131 C130 1.370 . S
C131 C135 1.408 1_554 S
C132 C130 1.363 . S
C132 C133 1.370 . S
C132 C136 1.524 . S
C133 C125 1.503 . S
C133 C132 1.370 . S
C133 C134 1.403 1_554 S
C134 C133 1.403 1_556 S
C134 C135 1.404 . S
C134 C137 1.539 . S
C135 C131 1.408 1_556 S
C135 C134 1.404 . S
C135 H147 0.930 . S
C136 C132 1.524 . S
C136 H148 0.956 . S
C136 H149 0.961 . S
C136 H150 0.961 . S
C137 C134 1.539 . S
C137 H151 0.958 . S
C137 H152 0.961 . S
C137 H153 0.960 . S
H138 C122 0.931 . S
H139 C127 0.929 . S
H140 C128 0.960 . S
H141 C128 0.962 . S
H142 C128 0.960 . S
H143 C129 0.961 . S
H144 C129 0.961 . S
H145 C129 0.961 . S
H146 C130 0.931 . S
H147 C135 0.930 . S
H148 C136 0.956 . S
H149 C136 0.961 . S
H150 C136 0.961 . S
H151 C137 0.958 . S
H152 C137 0.961 . S
H153 C137 0.960 . S
C154 C155 1.391 . S
C154 C156 1.394 . S
C154 H170 0.931 . S
C155 C154 1.391 . S
C155 C159 1.376 . S
C156 C154 1.394 . S
C156 C157 1.369 . S
C156 C160 1.531 . S
C157 C156 1.369 . S
C157 C158 1.410 . S
C157 C165 1.503 . S
C158 C157 1.410 . S
C158 C159 1.392 . S
C158 C161 1.511 . S
C159 C155 1.376 . S
C159 C158 1.392 . S
C159 H171 0.929 . S
C160 C156 1.531 . S
C160 H172 0.960 . S
C160 H173 0.962 . S
C160 H174 0.960 . S
C161 C158 1.511 . S
C161 H175 0.961 . S
C161 H176 0.961 . S
C161 H177 0.961 . S
C162 C163 1.370 . S
C162 C164 1.363 . S
C162 H178 0.931 . S
C163 C162 1.370 . S
C163 C167 1.408 . S
C164 C162 1.363 . S
C164 C165 1.370 . S
C164 C168 1.524 . S
C165 C157 1.503 . S
C165 C164 1.370 . S
C165 C166 1.403 . S
C166 C165 1.403 . S
C166 C167 1.404 . S
C166 C169 1.539 . S
C167 C163 1.408 . S
C167 C166 1.404 . S
C167 H179 0.930 . S
C168 C164 1.524 . S
C168 H180 0.956 . S
C168 H181 0.961 . S
C168 H182 0.961 . S
C169 C166 1.539 . S
C169 H183 0.958 . S
C169 H184 0.961 . S
C169 H185 0.960 . S
H170 C154 0.931 . S
H171 C159 0.929 . S
H172 C160 0.960 . S
H173 C160 0.962 . S
H174 C160 0.960 . S
H175 C161 0.961 . S
H176 C161 0.961 . S
H177 C161 0.961 . S
H178 C162 0.931 . S
H179 C167 0.930 . S
H180 C168 0.956 . S
H181 C168 0.961 . S
H182 C168 0.961 . S
H183 C169 0.958 . S
H184 C169 0.961 . S
H185 C169 0.960 . S
C186 C187 1.391 . S
C186 C188 1.394 . S
C186 H202 0.931 . S
C187 C186 1.391 . S
C187 C191 1.376 . S
C188 C186 1.394 . S
C188 C189 1.369 . S
C188 C192 1.531 . S
C189 C188 1.369 . S
C189 C190 1.410 . S
C189 C197 1.503 . S
C190 C189 1.410 . S
C190 C191 1.392 . S
C190 C193 1.511 1_554 S
C191 C187 1.376 . S
C191 C190 1.392 . S
C191 H203 0.929 1_554 S
C192 C188 1.531 . S
C192 H204 0.960 . S
C192 H205 0.962 . S
C192 H206 0.960 . S
C193 C190 1.511 1_556 S
C193 H207 0.961 . S
C193 H208 0.961 . S
C193 H209 0.961 . S
C194 C195 1.370 1_556 S
C194 C196 1.363 . S
C194 H210 0.931 . S
C195 C194 1.370 1_554 S
C195 C199 1.408 . S
C196 C194 1.363 . S
C196 C197 1.370 1_556 S
C196 C200 1.524 . S
C197 C189 1.503 . S
C197 C196 1.370 1_554 S
C197 C198 1.403 . S
C198 C197 1.403 . S
C198 C199 1.404 . S
C198 C201 1.539 . S
C199 C195 1.408 . S
C199 C198 1.404 . S
C199 H211 0.930 . S
C200 C196 1.524 . S
C200 H212 0.956 . S
C200 H213 0.961 . S
C200 H214 0.961 . S
C201 C198 1.539 . S
C201 H215 0.958 . S
C201 H216 0.961 . S
C201 H217 0.960 . S
H202 C186 0.931 . S
H203 C191 0.929 1_556 S
H204 C192 0.960 . S
H205 C192 0.962 . S
H206 C192 0.960 . S
H207 C193 0.961 . S
H208 C193 0.961 . S
H209 C193 0.961 . S
H210 C194 0.931 . S
H211 C199 0.930 . S
H212 C200 0.956 . S
H213 C200 0.961 . S
H214 C200 0.961 . S
H215 C201 0.958 . S
H216 C201 0.961 . S
H217 C201 0.960 . S
C218 C219 1.391 . S
C218 C220 1.394 . S
C218 H234 0.931 . S
C219 C218 1.391 . S
C219 C223 1.376 . S
C220 C218 1.394 . S
C220 C221 1.369 . S
C220 C224 1.531 . S
C221 C220 1.369 . S
C221 C222 1.410 . S
C221 C229 1.503 . S
C222 C221 1.410 . S
C222 C223 1.392 . S
C222 C225 1.511 . S
C223 C219 1.376 . S
C223 C222 1.392 . S
C223 H235 0.929 . S
C224 C220 1.531 . S
C224 H236 0.960 . S
C224 H237 0.962 . S
C224 H238 0.960 . S
C225 C222 1.511 . S
C225 H239 0.961 . S
C225 H240 0.961 . S
C225 H241 0.961 . S
C226 C227 1.370 . S
C226 C228 1.363 . S
C226 H242 0.931 . S
C227 C226 1.370 . S
C227 C231 1.408 . S
C228 C226 1.363 . S
C228 C229 1.370 . S
C228 C232 1.524 . S
C229 C221 1.503 . S
C229 C228 1.370 . S
C229 C230 1.403 . S
C230 C229 1.403 . S
C230 C231 1.404 . S
C230 C233 1.539 . S
C231 C227 1.408 . S
C231 C230 1.404 . S
C231 H243 0.930 . S
C232 C228 1.524 . S
C232 H244 0.956 . S
C232 H245 0.961 . S
C232 H246 0.961 . S
C233 C230 1.539 . S
C233 H247 0.958 . S
C233 H248 0.961 . S
C233 H249 0.960 . S
H234 C218 0.931 . S
H235 C223 0.929 . S
H236 C224 0.960 . S
H237 C224 0.962 . S
H238 C224 0.960 . S
H239 C225 0.961 . S
H240 C225 0.961 . S
H241 C225 0.961 . S
H242 C226 0.931 . S
H243 C231 0.930 . S
H244 C232 0.956 . S
H245 C232 0.961 . S
H246 C232 0.961 . S
H247 C233 0.958 . S
H248 C233 0.961 . S
H249 C233 0.960 . S
C250 C251 1.391 . S
C250 C252 1.394 . S
C250 H266 0.931 . S
C251 C250 1.391 . S
C251 C255 1.376 . S
C252 C250 1.394 . S
C252 C253 1.369 . S
C252 C256 1.531 . S
C253 C252 1.369 . S
C253 C254 1.410 . S
C253 C261 1.503 . S
C254 C253 1.410 . S
C254 C255 1.392 . S
C254 C257 1.511 . S
C255 C251 1.376 . S
C255 C254 1.392 . S
C255 H267 0.929 . S
C256 C252 1.531 . S
C256 H268 0.960 . S
C256 H269 0.962 . S
C256 H270 0.960 . S
C257 C254 1.511 . S
C257 H271 0.961 . S
C257 H272 0.961 . S
C257 H273 0.961 . S
C258 C259 1.370 . S
C258 C260 1.363 . S
C258 H274 0.931 . S
C259 C258 1.370 . S
C259 C263 1.408 . S
C260 C258 1.363 . S
C260 C261 1.370 . S
C260 C264 1.524 . S
C261 C253 1.503 . S
C261 C260 1.370 . S
C261 C262 1.403 . S
C262 C261 1.403 . S
C262 C263 1.404 . S
C262 C265 1.539 . S
C263 C259 1.408 . S
C263 C262 1.404 . S
C263 H275 0.930 . S
C264 C260 1.524 . S
C264 H276 0.956 . S
C264 H277 0.961 . S
C264 H278 0.961 . S
C265 C262 1.539 . S
C265 H279 0.958 . S
C265 H280 0.961 . S
C265 H281 0.960 . S
H266 C250 0.931 . S
H267 C255 0.929 . S
H268 C256 0.960 . S
H269 C256 0.962 . S
H270 C256 0.960 . S
H271 C257 0.961 . S
H272 C257 0.961 . S
H273 C257 0.961 . S
H274 C258 0.931 . S
H275 C263 0.930 . S
H276 C264 0.956 . S
H277 C264 0.961 . S
H278 C264 0.961 . S
H279 C265 0.958 . S
H280 C265 0.961 . S
H281 C265 0.960 . S
C282 C283 1.391 . S
C282 C284 1.394 . S
C282 H298 0.931 . S
C283 C282 1.391 . S
C283 C287 1.376 . S
C284 C282 1.394 . S
C284 C285 1.369 . S
C284 C288 1.531 . S
C285 C284 1.369 . S
C285 C286 1.410 . S
C285 C293 1.503 . S
C286 C285 1.410 . S
C286 C287 1.392 . S
C286 C289 1.511 . S
C287 C283 1.376 . S
C287 C286 1.392 . S
C287 H299 0.929 . S
C288 C284 1.531 . S
C288 H300 0.960 . S
C288 H301 0.962 . S
C288 H302 0.960 . S
C289 C286 1.511 . S
C289 H303 0.961 . S
C289 H304 0.961 . S
C289 H305 0.961 . S
C290 C291 1.370 . S
C290 C292 1.363 . S
C290 H306 0.931 . S
C291 C290 1.370 . S
C291 C295 1.408 . S
C292 C290 1.363 . S
C292 C293 1.370 . S
C292 C296 1.524 . S
C293 C285 1.503 . S
C293 C292 1.370 . S
C293 C294 1.403 . S
C294 C293 1.403 . S
C294 C295 1.404 . S
C294 C297 1.539 . S
C295 C291 1.408 . S
C295 C294 1.404 . S
C295 H307 0.930 . S
C296 C292 1.524 . S
C296 H308 0.956 . S
C296 H309 0.961 . S
C296 H310 0.961 . S
C297 C294 1.539 . S
C297 H311 0.958 . S
C297 H312 0.961 . S
C297 H313 0.960 . S
H298 C282 0.931 . S
H299 C287 0.929 . S
H300 C288 0.960 . S
H301 C288 0.962 . S
H302 C288 0.960 . S
H303 C289 0.961 . S
H304 C289 0.961 . S
H305 C289 0.961 . S
H306 C290 0.931 . S
H307 C295 0.930 . S
H308 C296 0.956 . S
H309 C296 0.961 . S
H310 C296 0.961 . S
H311 C297 0.958 . S
H312 C297 0.961 . S
H313 C297 0.960 . S
C314 C315 1.391 . S
C314 C316 1.394 . S
C314 H330 0.931 . S
C315 C314 1.391 . S
C315 C319 1.376 . S
C316 C314 1.394 . S
C316 C317 1.369 . S
C316 C320 1.531 . S
C317 C316 1.369 . S
C317 C318 1.410 . S
C317 C325 1.503 . S
C318 C317 1.410 . S
C318 C319 1.392 . S
C318 C321 1.511 . S
C319 C315 1.376 . S
C319 C318 1.392 . S
C319 H331 0.929 . S
C320 C316 1.531 . S
C320 H332 0.960 . S
C320 H333 0.962 . S
C320 H334 0.960 . S
C321 C318 1.511 . S
C321 H335 0.961 . S
C321 H336 0.961 . S
C321 H337 0.961 . S
C322 C323 1.370 . S
C322 C324 1.363 . S
C322 H338 0.931 . S
C323 C322 1.370 . S
C323 C327 1.408 . S
C324 C322 1.363 . S
C324 C325 1.370 . S
C324 C328 1.524 . S
C325 C317 1.503 . S
C325 C324 1.370 . S
C325 C326 1.403 . S
C326 C325 1.403 . S
C326 C327 1.404 . S
C326 C329 1.539 . S
C327 C323 1.408 . S
C327 C326 1.404 . S
C327 H339 0.930 . S
C328 C324 1.524 . S
C328 H340 0.956 . S
C328 H341 0.961 . S
C328 H342 0.961 . S
C329 C326 1.539 . S
C329 H343 0.958 . S
C329 H344 0.961 . S
C329 H345 0.960 . S
H330 C314 0.931 . S
H331 C319 0.929 . S
H332 C320 0.960 . S
H333 C320 0.962 . S
H334 C320 0.960 . S
H335 C321 0.961 . S
H336 C321 0.961 . S
H337 C321 0.961 . S
H338 C322 0.931 . S
H339 C327 0.930 . S
H340 C328 0.956 . S
H341 C328 0.961 . S
H342 C328 0.961 . S
H343 C329 0.958 . S
H344 C329 0.961 . S
H345 C329 0.960 . S
C346 C347 1.391 . S
C346 C348 1.394 . S
C346 H362 0.931 . S
C347 C346 1.391 . S
C347 C351 1.376 . S
C348 C346 1.394 . S
C348 C349 1.369 . S
C348 C352 1.531 . S
C349 C348 1.369 . S
C349 C350 1.410 . S
C349 C357 1.503 . S
C350 C349 1.410 . S
C350 C351 1.392 . S
C350 C353 1.511 . S
C351 C347 1.376 . S
C351 C350 1.392 . S
C351 H363 0.929 . S
C352 C348 1.531 . S
C352 H364 0.960 . S
C352 H365 0.962 . S
C352 H366 0.960 . S
C353 C350 1.511 . S
C353 H367 0.961 . S
C353 H368 0.961 . S
C353 H369 0.961 . S
C354 C355 1.370 . S
C354 C356 1.363 . S
C354 H370 0.931 . S
C355 C354 1.370 . S
C355 C359 1.408 . S
C356 C354 1.363 . S
C356 C357 1.370 . S
C356 C360 1.524 . S
C357 C349 1.503 . S
C357 C356 1.370 . S
C357 C358 1.403 . S
C358 C357 1.403 . S
C358 C359 1.404 . S
C358 C361 1.539 . S
C359 C355 1.408 . S
C359 C358 1.404 . S
C359 H371 0.930 . S
C360 C356 1.524 . S
C360 H372 0.956 . S
C360 H373 0.961 . S
C360 H374 0.961 . S
C361 C358 1.539 . S
C361 H375 0.958 . S
C361 H376 0.961 . S
C361 H377 0.960 . S
H362 C346 0.931 . S
H363 C351 0.929 . S
H364 C352 0.960 . S
H365 C352 0.962 . S
H366 C352 0.960 . S
H367 C353 0.961 . S
H368 C353 0.961 . S
H369 C353 0.961 . S
H370 C354 0.931 . S
H371 C359 0.930 . S
H372 C360 0.956 . S
H373 C360 0.961 . S
H374 C360 0.961 . S
H375 C361 0.958 . S
H376 C361 0.961 . S
H377 C361 0.960 . S
C378 C379 1.391 . S
C378 C380 1.394 . S
C378 H394 0.931 . S
C379 C378 1.391 . S
C379 C383 1.376 . S
C380 C378 1.394 . S
C380 C381 1.369 . S
C380 C384 1.531 . S
C381 C380 1.369 . S
C381 C382 1.410 . S
C381 C389 1.503 . S
C382 C381 1.410 . S
C382 C383 1.392 . S
C382 C385 1.511 . S
C383 C379 1.376 . S
C383 C382 1.392 . S
C383 H395 0.929 . S
C384 C380 1.531 . S
C384 H396 0.960 . S
C384 H397 0.962 . S
C384 H398 0.960 . S
C385 C382 1.511 . S
C385 H399 0.961 . S
C385 H400 0.961 . S
C385 H401 0.961 . S
C386 C387 1.370 . S
C386 C388 1.363 . S
C386 H402 0.931 . S
C387 C386 1.370 . S
C387 C391 1.408 . S
C388 C386 1.363 . S
C388 C389 1.370 . S
C388 C392 1.524 . S
C389 C381 1.503 . S
C389 C388 1.370 . S
C389 C390 1.403 . S
C390 C389 1.403 . S
C390 C391 1.404 . S
C390 C393 1.539 . S
C391 C387 1.408 . S
C391 C390 1.404 . S
C391 H403 0.930 . S
C392 C388 1.524 . S
C392 H404 0.956 . S
C392 H405 0.961 . S
C392 H406 0.961 . S
C393 C390 1.539 . S
C393 H407 0.958 . S
C393 H408 0.961 . S
C393 H409 0.960 . S
H394 C378 0.931 . S
H395 C383 0.929 . S
H396 C384 0.960 . S
H397 C384 0.962 . S
H398 C384 0.960 . S
H399 C385 0.961 . S
H400 C385 0.961 . S
H401 C385 0.961 . S
H402 C386 0.931 . S
H403 C391 0.930 . S
H404 C392 0.956 . S
H405 C392 0.961 . S
H406 C392 0.961 . S
H407 C393 0.958 . S
H408 C393 0.961 . S
H409 C393 0.960 . S
C410 C411 1.391 . S
C410 C412 1.394 . S
C410 H426 0.931 . S
C411 C410 1.391 . S
C411 C415 1.376 . S
C412 C410 1.394 . S
C412 C413 1.369 . S
C412 C416 1.531 . S
C413 C412 1.369 . S
C413 C414 1.410 . S
C413 C421 1.503 . S
C414 C413 1.410 . S
C414 C415 1.392 . S
C414 C417 1.511 . S
C415 C411 1.376 . S
C415 C414 1.392 . S
C415 H427 0.929 . S
C416 C412 1.531 . S
C416 H428 0.960 . S
C416 H429 0.962 . S
C416 H430 0.960 . S
C417 C414 1.511 . S
C417 H431 0.961 . S
C417 H432 0.961 . S
C417 H433 0.961 . S
C418 C419 1.370 . S
C418 C420 1.363 . S
C418 H434 0.931 . S
C419 C418 1.370 . S
C419 C423 1.408 . S
C420 C418 1.363 . S
C420 C421 1.370 . S
C420 C424 1.524 . S
C421 C413 1.503 . S
C421 C420 1.370 . S
C421 C422 1.403 . S
C422 C421 1.403 . S
C422 C423 1.404 . S
C422 C425 1.539 . S
C423 C419 1.408 . S
C423 C422 1.404 . S
C423 H435 0.930 . S
C424 C420 1.524 . S
C424 H436 0.956 . S
C424 H437 0.961 . S
C424 H438 0.961 . S
C425 C422 1.539 . S
C425 H439 0.958 . S
C425 H440 0.961 . S
C425 H441 0.960 . S
H426 C410 0.931 . S
H427 C415 0.929 . S
H428 C416 0.960 . S
H429 C416 0.962 . S
H430 C416 0.960 . S
H431 C417 0.961 . S
H432 C417 0.961 . S
H433 C417 0.961 . S
H434 C418 0.931 . S
H435 C423 0.930 . S
H436 C424 0.956 . S
H437 C424 0.961 . S
H438 C424 0.961 . S
H439 C425 0.958 . S
H440 C425 0.961 . S
H441 C425 0.960 . S
C442 C443 1.391 . S
C442 C444 1.394 . S
C442 H458 0.931 . S
C443 C442 1.391 . S
C443 C447 1.376 . S
C444 C442 1.394 . S
C444 C445 1.369 . S
C444 C448 1.531 . S
C445 C444 1.369 . S
C445 C446 1.410 . S
C445 C453 1.503 . S
C446 C445 1.410 . S
C446 C447 1.392 . S
C446 C449 1.511 . S
C447 C443 1.376 . S
C447 C446 1.392 . S
C447 H459 0.929 . S
C448 C444 1.531 . S
C448 H460 0.960 . S
C448 H461 0.962 . S
C448 H462 0.960 . S
C449 C446 1.511 . S
C449 H463 0.961 . S
C449 H464 0.961 . S
C449 H465 0.961 . S
C450 C451 1.370 . S
C450 C452 1.363 . S
C450 H466 0.931 . S
C451 C450 1.370 . S
C451 C455 1.408 . S
C452 C450 1.363 . S
C452 C453 1.370 . S
C452 C456 1.524 . S
C453 C445 1.503 . S
C453 C452 1.370 . S
C453 C454 1.403 . S
C454 C453 1.403 . S
C454 C455 1.404 . S
C454 C457 1.539 . S
C455 C451 1.408 . S
C455 C454 1.404 . S
C455 H467 0.930 . S
C456 C452 1.524 . S
C456 H468 0.956 . S
C456 H469 0.961 . S
C456 H470 0.961 . S
C457 C454 1.539 . S
C457 H471 0.958 . S
C457 H472 0.961 . S
C457 H473 0.960 . S
H458 C442 0.931 . S
H459 C447 0.929 . S
H460 C448 0.960 . S
H461 C448 0.962 . S
H462 C448 0.960 . S
H463 C449 0.961 . S
H464 C449 0.961 . S
H465 C449 0.961 . S
H466 C450 0.931 . S
H467 C455 0.930 . S
H468 C456 0.956 . S
H469 C456 0.961 . S
H470 C456 0.961 . S
H471 C457 0.958 . S
H472 C457 0.961 . S
H473 C457 0.960 . S
C99 C61 1.484 . S
C91 C43 1.486 . S
C123 C10 1.482 . S
C131 C84 1.489 . S
C155 C21 1.512 . S
C163 C60 1.518 . S
C187 C32 1.508 . S
C195 C83 1.517 . S
C227 C64 1.478 . S
C219 C5 1.474 . S
C259 C86 1.482 . S
C251 C15 1.535 . S
C283 C27 1.495 . S
C291 C65 1.486 . S
C315 C38 1.539 . S
C323 C85 1.479 . S
C355 C88 1.408 . S
C347 C16 1.454 . S
C387 C63 1.408 . S
C379 C26 1.476 . S
C419 C87 1.415 . S
C411 C37 1.431 . S
C443 C4 1.447 . S
C451 C62 1.419 . S
