# Generated by pormake.
# Topology bwt, (3,3)-cn, num edge types: 1
# Building blocks:
#     Node 0, Type 0, BuildingBlock: OLANEW_clean_sbu_2, # of connection points: 3
#     Node 1, Type 0, BuildingBlock: OLANEW_clean_sbu_2, # of connection points: 3
#     Node 2, Type 0, BuildingBlock: OLANEW_clean_sbu_2, # of connection points: 3
#     Node 3, Type 0, BuildingBlock: OLANEW_clean_sbu_2, # of connection points: 3
#     Node 4, Type 0, BuildingBlock: OLANEW_clean_sbu_2, # of connection points: 3
#     Node 5, Type 0, BuildingBlock: OLANEW_clean_sbu_2, # of connection points: 3
#     Node 6, Type 0, BuildingBlock: OLANEW_clean_sbu_2, # of connection points: 3
#     Node 7, Type 0, BuildingBlock: OLANEW_clean_sbu_2, # of connection points: 3
#     Node 8, Type 0, BuildingBlock: OLANEW_clean_sbu_2, # of connection points: 3
#     Node 9, Type 0, BuildingBlock: OLANEW_clean_sbu_2, # of connection points: 3
#     Node 10, Type 0, BuildingBlock: OLANEW_clean_sbu_2, # of connection points: 3
#     Node 11, Type 0, BuildingBlock: OLANEW_clean_sbu_2, # of connection points: 3
#     Node 12, Type 0, BuildingBlock: OLANEW_clean_sbu_2, # of connection points: 3
#     Node 13, Type 0, BuildingBlock: OLANEW_clean_sbu_2, # of connection points: 3
#     Node 14, Type 0, BuildingBlock: OLANEW_clean_sbu_2, # of connection points: 3
#     Node 15, Type 0, BuildingBlock: OLANEW_clean_sbu_2, # of connection points: 3
#     Node 16, Type 0, BuildingBlock: OLANEW_clean_sbu_2, # of connection points: 3
#     Node 17, Type 0, BuildingBlock: OLANEW_clean_sbu_2, # of connection points: 3
#     Node 18, Type 0, BuildingBlock: OLANEW_clean_sbu_2, # of connection points: 3
#     Node 19, Type 0, BuildingBlock: OLANEW_clean_sbu_2, # of connection points: 3
#     Node 20, Type 0, BuildingBlock: OLANEW_clean_sbu_2, # of connection points: 3
#     Node 21, Type 0, BuildingBlock: OLANEW_clean_sbu_2, # of connection points: 3
#     Node 22, Type 0, BuildingBlock: OLANEW_clean_sbu_2, # of connection points: 3
#     Node 23, Type 0, BuildingBlock: OLANEW_clean_sbu_2, # of connection points: 3
#     Node 24, Type 1, BuildingBlock: ESEHIV_clean_linker_0, # of connection points: 3
#     Node 25, Type 1, BuildingBlock: ESEHIV_clean_linker_0, # of connection points: 3
#     Node 26, Type 1, BuildingBlock: ESEHIV_clean_linker_0, # of connection points: 3
#     Node 27, Type 1, BuildingBlock: ESEHIV_clean_linker_0, # of connection points: 3
#     Node 28, Type 1, BuildingBlock: ESEHIV_clean_linker_0, # of connection points: 3
#     Node 29, Type 1, BuildingBlock: ESEHIV_clean_linker_0, # of connection points: 3
#     Node 30, Type 1, BuildingBlock: ESEHIV_clean_linker_0, # of connection points: 3
#     Node 31, Type 1, BuildingBlock: ESEHIV_clean_linker_0, # of connection points: 3
#     Node 32, Type 1, BuildingBlock: ESEHIV_clean_linker_0, # of connection points: 3
#     Node 33, Type 1, BuildingBlock: ESEHIV_clean_linker_0, # of connection points: 3
#     Node 34, Type 1, BuildingBlock: ESEHIV_clean_linker_0, # of connection points: 3
#     Node 35, Type 1, BuildingBlock: ESEHIV_clean_linker_0, # of connection points: 3
#     Node 36, Type 1, BuildingBlock: ESEHIV_clean_linker_0, # of connection points: 3
#     Node 37, Type 1, BuildingBlock: ESEHIV_clean_linker_0, # of connection points: 3
#     Node 38, Type 1, BuildingBlock: ESEHIV_clean_linker_0, # of connection points: 3
#     Node 39, Type 1, BuildingBlock: ESEHIV_clean_linker_0, # of connection points: 3
#     Node 40, Type 1, BuildingBlock: ESEHIV_clean_linker_0, # of connection points: 3
#     Node 41, Type 1, BuildingBlock: ESEHIV_clean_linker_0, # of connection points: 3
#     Node 42, Type 1, BuildingBlock: ESEHIV_clean_linker_0, # of connection points: 3
#     Node 43, Type 1, BuildingBlock: ESEHIV_clean_linker_0, # of connection points: 3
#     Node 44, Type 1, BuildingBlock: ESEHIV_clean_linker_0, # of connection points: 3
#     Node 45, Type 1, BuildingBlock: ESEHIV_clean_linker_0, # of connection points: 3
#     Node 46, Type 1, BuildingBlock: ESEHIV_clean_linker_0, # of connection points: 3
#     Node 47, Type 1, BuildingBlock: ESEHIV_clean_linker_0, # of connection points: 3
#     Edge 48, Type (0, 1), BuildingBlock: EZIPEK_clean_linker_0, # of connection points: 2
#     Edge 49, Type (0, 1), BuildingBlock: EZIPEK_clean_linker_0, # of connection points: 2
#     Edge 50, Type (0, 1), BuildingBlock: EZIPEK_clean_linker_0, # of connection points: 2
#     Edge 51, Type (0, 1), BuildingBlock: EZIPEK_clean_linker_0, # of connection points: 2
#     Edge 52, Type (0, 1), BuildingBlock: EZIPEK_clean_linker_0, # of connection points: 2
#     Edge 53, Type (0, 1), BuildingBlock: EZIPEK_clean_linker_0, # of connection points: 2
#     Edge 54, Type (0, 1), BuildingBlock: EZIPEK_clean_linker_0, # of connection points: 2
#     Edge 55, Type (0, 1), BuildingBlock: EZIPEK_clean_linker_0, # of connection points: 2
#     Edge 56, Type (0, 1), BuildingBlock: EZIPEK_clean_linker_0, # of connection points: 2
#     Edge 57, Type (0, 1), BuildingBlock: EZIPEK_clean_linker_0, # of connection points: 2
#     Edge 58, Type (0, 1), BuildingBlock: EZIPEK_clean_linker_0, # of connection points: 2
#     Edge 59, Type (0, 1), BuildingBlock: EZIPEK_clean_linker_0, # of connection points: 2
#     Edge 60, Type (0, 1), BuildingBlock: EZIPEK_clean_linker_0, # of connection points: 2
#     Edge 61, Type (0, 1), BuildingBlock: EZIPEK_clean_linker_0, # of connection points: 2
#     Edge 62, Type (0, 1), BuildingBlock: EZIPEK_clean_linker_0, # of connection points: 2
#     Edge 63, Type (0, 1), BuildingBlock: EZIPEK_clean_linker_0, # of connection points: 2
#     Edge 64, Type (0, 1), BuildingBlock: EZIPEK_clean_linker_0, # of connection points: 2
#     Edge 65, Type (0, 1), BuildingBlock: EZIPEK_clean_linker_0, # of connection points: 2
#     Edge 66, Type (0, 1), BuildingBlock: EZIPEK_clean_linker_0, # of connection points: 2
#     Edge 67, Type (0, 1), BuildingBlock: EZIPEK_clean_linker_0, # of connection points: 2
#     Edge 68, Type (0, 1), BuildingBlock: EZIPEK_clean_linker_0, # of connection points: 2
#     Edge 69, Type (0, 1), BuildingBlock: EZIPEK_clean_linker_0, # of connection points: 2
#     Edge 70, Type (0, 1), BuildingBlock: EZIPEK_clean_linker_0, # of connection points: 2
#     Edge 71, Type (0, 1), BuildingBlock: EZIPEK_clean_linker_0, # of connection points: 2
#     Edge 72, Type (0, 1), BuildingBlock: EZIPEK_clean_linker_0, # of connection points: 2
#     Edge 73, Type (0, 1), BuildingBlock: EZIPEK_clean_linker_0, # of connection points: 2
#     Edge 74, Type (0, 1), BuildingBlock: EZIPEK_clean_linker_0, # of connection points: 2
#     Edge 75, Type (0, 1), BuildingBlock: EZIPEK_clean_linker_0, # of connection points: 2
#     Edge 76, Type (0, 1), BuildingBlock: EZIPEK_clean_linker_0, # of connection points: 2
#     Edge 77, Type (0, 1), BuildingBlock: EZIPEK_clean_linker_0, # of connection points: 2
#     Edge 78, Type (0, 1), BuildingBlock: EZIPEK_clean_linker_0, # of connection points: 2
#     Edge 79, Type (0, 1), BuildingBlock: EZIPEK_clean_linker_0, # of connection points: 2
#     Edge 80, Type (0, 1), BuildingBlock: EZIPEK_clean_linker_0, # of connection points: 2
#     Edge 81, Type (0, 1), BuildingBlock: EZIPEK_clean_linker_0, # of connection points: 2
#     Edge 82, Type (0, 1), BuildingBlock: EZIPEK_clean_linker_0, # of connection points: 2
#     Edge 83, Type (0, 1), BuildingBlock: EZIPEK_clean_linker_0, # of connection points: 2
#     Edge 84, Type (0, 1), BuildingBlock: EZIPEK_clean_linker_0, # of connection points: 2
#     Edge 85, Type (0, 1), BuildingBlock: EZIPEK_clean_linker_0, # of connection points: 2
#     Edge 86, Type (0, 1), BuildingBlock: EZIPEK_clean_linker_0, # of connection points: 2
#     Edge 87, Type (0, 1), BuildingBlock: EZIPEK_clean_linker_0, # of connection points: 2
#     Edge 88, Type (0, 1), BuildingBlock: EZIPEK_clean_linker_0, # of connection points: 2
#     Edge 89, Type (0, 1), BuildingBlock: EZIPEK_clean_linker_0, # of connection points: 2
#     Edge 90, Type (0, 1), BuildingBlock: EZIPEK_clean_linker_0, # of connection points: 2
#     Edge 91, Type (0, 1), BuildingBlock: EZIPEK_clean_linker_0, # of connection points: 2
#     Edge 92, Type (0, 1), BuildingBlock: EZIPEK_clean_linker_0, # of connection points: 2
#     Edge 93, Type (0, 1), BuildingBlock: EZIPEK_clean_linker_0, # of connection points: 2
#     Edge 94, Type (0, 1), BuildingBlock: EZIPEK_clean_linker_0, # of connection points: 2
#     Edge 95, Type (0, 1), BuildingBlock: EZIPEK_clean_linker_0, # of connection points: 2
#     Edge 96, Type (0, 1), BuildingBlock: EZIPEK_clean_linker_0, # of connection points: 2
#     Edge 97, Type (0, 1), BuildingBlock: EZIPEK_clean_linker_0, # of connection points: 2
#     Edge 98, Type (0, 1), BuildingBlock: EZIPEK_clean_linker_0, # of connection points: 2
#     Edge 99, Type (0, 1), BuildingBlock: EZIPEK_clean_linker_0, # of connection points: 2
#     Edge 100, Type (0, 1), BuildingBlock: EZIPEK_clean_linker_0, # of connection points: 2
#     Edge 101, Type (0, 1), BuildingBlock: EZIPEK_clean_linker_0, # of connection points: 2
#     Edge 102, Type (0, 1), BuildingBlock: EZIPEK_clean_linker_0, # of connection points: 2
#     Edge 103, Type (0, 1), BuildingBlock: EZIPEK_clean_linker_0, # of connection points: 2
#     Edge 104, Type (0, 1), BuildingBlock: EZIPEK_clean_linker_0, # of connection points: 2
#     Edge 105, Type (0, 1), BuildingBlock: EZIPEK_clean_linker_0, # of connection points: 2
#     Edge 106, Type (0, 1), BuildingBlock: EZIPEK_clean_linker_0, # of connection points: 2
#     Edge 107, Type (0, 1), BuildingBlock: EZIPEK_clean_linker_0, # of connection points: 2
#     Edge 108, Type (0, 1), BuildingBlock: EZIPEK_clean_linker_0, # of connection points: 2
#     Edge 109, Type (0, 1), BuildingBlock: EZIPEK_clean_linker_0, # of connection points: 2
#     Edge 110, Type (0, 1), BuildingBlock: EZIPEK_clean_linker_0, # of connection points: 2
#     Edge 111, Type (0, 1), BuildingBlock: EZIPEK_clean_linker_0, # of connection points: 2
#     Edge 112, Type (0, 1), BuildingBlock: EZIPEK_clean_linker_0, # of connection points: 2
#     Edge 113, Type (0, 1), BuildingBlock: EZIPEK_clean_linker_0, # of connection points: 2
#     Edge 114, Type (0, 1), BuildingBlock: EZIPEK_clean_linker_0, # of connection points: 2
#     Edge 115, Type (0, 1), BuildingBlock: EZIPEK_clean_linker_0, # of connection points: 2
#     Edge 116, Type (0, 1), BuildingBlock: EZIPEK_clean_linker_0, # of connection points: 2
#     Edge 117, Type (0, 1), BuildingBlock: EZIPEK_clean_linker_0, # of connection points: 2
#     Edge 118, Type (0, 1), BuildingBlock: EZIPEK_clean_linker_0, # of connection points: 2
#     Edge 119, Type (0, 1), BuildingBlock: EZIPEK_clean_linker_0, # of connection points: 2
# Relax obj value: 0.131
# Max RMSD: 0.138
# Mean RMSD: 0.097
data_MOF--net-bwt--node1-OLANEW_clean_sbu_2--node2-ESEHIV_clean_linker_0--edge1-EZIPEK_clean_linker_0
_symmetry_space_group_name_H-M    P1
_symmetry_Int_Tables_number       1
_symmetry_cell_setting            triclinic
loop_
_symmetry_equiv_pos_as_xyz
'x, y, z'
_cell_length_a     40.062621
_cell_length_b     40.093707
_cell_length_c     40.106927
_cell_angle_alpha  93.74675
_cell_angle_beta   93.735465
_cell_angle_gamma 93.735725
loop_
_atom_site_label
_atom_site_type_symbol
_atom_site_fract_x
_atom_site_fract_y
_atom_site_fract_z
_atom_type_partial_charge
O0 O 0.28891 0.60721 0.33694 0.0
Cd1 Cd 0.28343 0.61534 0.27724 0.0
O2 O 0.31267 0.55916 0.33068 0.0
Cd3 Cd 0.33422 0.56765 0.28266 0.0
O4 O 0.38508 0.57018 0.26448 0.0
C5 C 0.40413 0.54958 0.27738 0.0
O6 O 0.39172 0.52833 0.29767 0.0
C7 C 0.29837 0.58046 0.34873 0.0
C8 C 0.21692 0.59372 0.25986 0.0
O9 O 0.24031 0.57369 0.25664 0.0
O10 O 0.22492 0.62446 0.26948 0.0
O11 O 0.21186 0.44256 0.74806 0.0
Cd12 Cd 0.21597 0.4303 0.68815 0.0
O13 O 0.19844 0.38989 0.75701 0.0
Cd14 Cd 0.17581 0.38012 0.70598 0.0
O15 O 0.12347 0.38552 0.6893 0.0
C16 C 0.10779 0.3977 0.7133 0.0
O17 O 0.12393 0.40405 0.74282 0.0
C18 C 0.20776 0.41967 0.76812 0.0
C19 C 0.28438 0.42524 0.68207 0.0
O20 O 0.27152 0.45367 0.68337 0.0
O21 O 0.26463 0.39872 0.68145 0.0
O22 O 0.76186 0.95104 0.64078 0.0
Cd23 Cd 0.7629 0.95631 0.70157 0.0
O24 O 0.79777 0.99429 0.63534 0.0
Cd25 Cd 0.82117 0.00029 0.6862 0.0
O26 O 0.87123 0.02024 0.70551 0.0
C27 C 0.89579 0.00379 0.69716 0.0
O28 O 0.88995 0.97461 0.68019 0.0
C29 C 0.77625 0.97159 0.6226 0.0
C30 C 0.69965 0.97715 0.71344 0.0
O31 O 0.72451 0.99846 0.71127 0.0
O32 O 0.70478 0.94591 0.71183 0.0
O33 O 0.77985 0.05973 0.26953 0.0
Cd34 Cd 0.80414 0.05014 0.32496 0.0
O35 O 0.73622 0.02525 0.27619 0.0
Cd36 Cd 0.68892 0.99942 0.25542 0.0
O37 O 0.64071 0.98154 0.22969 0.0
C38 C 0.61779 0.96741 0.24537 0.0
O39 O 0.62338 0.96261 0.27727 0.0
C40 C 0.75231 0.04452 0.25799 0.0
C41 C 0.84798 0.99958 0.32001 0.0
O42 O 0.85794 0.03017 0.31697 0.0
O43 O 0.81732 0.99263 0.3258 0.0
O44 O 0.32317 0.30049 0.54481 0.0
Cd45 Cd 0.26199 0.29586 0.54483 0.0
O46 O 0.32969 0.29505 0.59917 0.0
Cd47 Cd 0.27945 0.31212 0.6035 0.0
O48 O 0.26119 0.35619 0.58115 0.0
C49 C 0.2829 0.38078 0.58622 0.0
O50 O 0.30997 0.37745 0.60564 0.0
C51 C 0.3419 0.29597 0.57072 0.0
C52 C 0.24668 0.22917 0.55537 0.0
O53 O 0.24959 0.25114 0.58021 0.0
O54 O 0.24869 0.23897 0.52577 0.0
O55 O 0.27023 0.78575 0.07412 0.0
Cd56 Cd 0.32521 0.81445 0.07406 0.0
O57 O 0.29039 0.73809 0.05847 0.0
Cd58 Cd 0.28375 0.68488 0.04218 0.0
O59 O 0.27508 0.63372 0.01983 0.0
C60 C 0.25323 0.61327 0.03032 0.0
O61 O 0.23594 0.62276 0.05557 0.0
C62 C 0.26547 0.7548 0.06505 0.0
C63 C 0.31842 0.85913 0.02492 0.0
O64 O 0.32695 0.82943 0.01756 0.0
O65 O 0.31463 0.86814 0.0556 0.0
O66 O 0.74838 0.22901 0.45881 0.0
Cd67 Cd 0.68742 0.22957 0.45377 0.0
O68 O 0.75313 0.23176 0.40461 0.0
Cd69 Cd 0.7009 0.21275 0.39416 0.0
O70 O 0.68347 0.16019 0.39607 0.0
C71 C 0.70849 0.14295 0.40175 0.0
O72 O 0.73871 0.15801 0.40357 0.0
C73 C 0.76656 0.23257 0.4343 0.0
C74 C 0.67362 0.29665 0.45401 0.0
O75 O 0.67871 0.28245 0.48141 0.0
O76 O 0.67359 0.27882 0.42631 0.0
O77 O 0.63237 0.77177 0.01947 0.0
Cd78 Cd 0.69161 0.76998 0.00899 0.0
O79 O 0.62083 0.79202 0.97068 0.0
Cd80 Cd 0.67051 0.81804 0.97306 0.0
O81 O 0.68834 0.86766 0.99548 0.0
C82 C 0.66642 0.88919 0.99425 0.0
O83 O 0.63699 0.88069 0.97856 0.0
C84 C 0.61111 0.7781 0.99626 0.0
C85 C 0.70275 0.70201 0.00288 0.0
O86 O 0.70695 0.71891 0.03123 0.0
O87 O 0.69501 0.71743 0.97678 0.0
O88 O 0.58089 0.32055 0.28716 0.0
Cd89 Cd 0.59068 0.26212 0.27319 0.0
O90 O 0.62498 0.3296 0.32307 0.0
Cd91 Cd 0.62239 0.27645 0.33228 0.0
O92 O 0.59509 0.25564 0.37238 0.0
C93 C 0.59488 0.27762 0.39663 0.0
O94 O 0.61127 0.3068 0.39474 0.0
C95 C 0.60122 0.34069 0.30543 0.0
C96 C 0.58869 0.25855 0.20375 0.0
O97 O 0.61636 0.26651 0.22113 0.0
O98 O 0.56255 0.25041 0.21897 0.0
O99 O 0.08407 0.26919 0.79646 0.0
Cd100 Cd 0.08323 0.32761 0.81724 0.0
O101 O 0.07309 0.28476 0.74585 0.0
Cd102 Cd 0.05885 0.27457 0.69255 0.0
O103 O 0.0316 0.26254 0.64403 0.0
C104 C 0.03478 0.28215 0.62067 0.0
O105 O 0.05497 0.30942 0.62583 0.0
C106 C 0.0778 0.26153 0.76537 0.0
C107 C 0.0309 0.33162 0.85891 0.0
O108 O 0.06056 0.32694 0.87074 0.0
O109 O 0.02593 0.33536 0.82756 0.0
O110 O 0.37321 0.73708 0.25062 0.0
Cd111 Cd 0.34312 0.6836 0.25898 0.0
O112 O 0.34444 0.74726 0.2042 0.0
Cd113 Cd 0.32143 0.69645 0.19586 0.0
O114 O 0.34418 0.68975 0.14832 0.0
C115 C 0.33381 0.7082 0.12582 0.0
O116 O 0.30764 0.72553 0.13082 0.0
C117 C 0.36678 0.75629 0.22748 0.0
C118 C 0.37469 0.66515 0.31762 0.0
O119 O 0.34779 0.68073 0.31856 0.0
O120 O 0.38487 0.65601 0.28905 0.0
O121 O 0.96781 0.65569 0.75447 0.0
Cd122 Cd 0.9728 0.71663 0.76465 0.0
O123 O 0.94368 0.64549 0.80088 0.0
Cd124 Cd 0.95717 0.69573 0.82375 0.0
O125 O 0.99138 0.71234 0.86702 0.0
C126 C 0.98831 0.69415 0.89155 0.0
O127 O 0.96477 0.66955 0.8893 0.0
C128 C 0.95385 0.63517 0.77296 0.0
C129 C 0.00233 0.74209 0.71012 0.0
O130 O 0.97036 0.73797 0.71007 0.0
O131 O 0.02018 0.73521 0.73613 0.0
O132 O 0.69324 0.41262 0.67732 0.0
Cd133 Cd 0.70861 0.38536 0.7281 0.0
O134 O 0.70714 0.46216 0.70325 0.0
Cd135 Cd 0.69124 0.44122 0.74899 0.0
O136 O 0.63764 0.43069 0.75373 0.0
C137 C 0.6209 0.45533 0.74628 0.0
O138 O 0.63696 0.48352 0.73986 0.0
C139 C 0.69996 0.44396 0.67627 0.0
C140 C 0.77829 0.39028 0.73084 0.0
O141 O 0.76186 0.36319 0.71884 0.0
O142 O 0.76201 0.41384 0.74359 0.0
O143 O 0.79606 0.60035 0.22782 0.0
Cd144 Cd 0.80129 0.61709 0.28743 0.0
O145 O 0.78836 0.54835 0.24192 0.0
Cd146 Cd 0.8228 0.55956 0.28605 0.0
O147 O 0.87711 0.55864 0.2929 0.0
C148 C 0.8893 0.54264 0.26867 0.0
O149 O 0.86896 0.5291 0.2437 0.0
C150 C 0.7857 0.56996 0.22028 0.0
C151 C 0.73529 0.6037 0.30209 0.0
O152 O 0.74616 0.63379 0.29784 0.0
O153 O 0.7563 0.58098 0.30281 0.0
O154 O 0.2555 0.03793 0.31764 0.0
Cd155 Cd 0.25033 0.03629 0.25657 0.0
O156 O 0.20414 0.05234 0.32473 0.0
Cd157 Cd 0.18463 0.04113 0.27298 0.0
O158 O 0.13801 0.01001 0.26198 0.0
C159 C 0.13705 0.98237 0.2758 0.0
O160 O 0.16429 0.97337 0.29185 0.0
C161 C 0.23311 0.04656 0.33682 0.0
C162 C 0.31079 0.01656 0.23466 0.0
O163 O 0.30621 0.04775 0.23985 0.0
O164 O 0.28656 0.99499 0.23843 0.0
O165 O 0.26601 0.93924 0.70486 0.0
Cd166 Cd 0.2536 0.95682 0.64885 0.0
O167 O 0.28664 0.99107 0.71755 0.0
Cd168 Cd 0.30501 0.99796 0.66822 0.0
O169 O 0.35818 0.00654 0.65962 0.0
C170 C 0.37545 0.01779 0.68618 0.0
O171 O 0.3601 0.02327 0.71379 0.0
C172 C 0.27534 0.963 0.72663 0.0
C173 C 0.20066 0.99754 0.65566 0.0
O174 O 0.19523 0.96594 0.64874 0.0
O175 O 0.23095 0.0103 0.65757 0.0
O176 O 0.64032 0.74356 0.31552 0.0
Cd177 Cd 0.68754 0.7728 0.29161 0.0
O178 O 0.67585 0.71218 0.34032 0.0
Cd179 Cd 0.6838 0.67327 0.37458 0.0
O180 O 0.6822 0.62741 0.40037 0.0
C181 C 0.67059 0.62525 0.4289 0.0
O182 O 0.65969 0.65184 0.44444 0.0
C183 C 0.64615 0.72091 0.33539 0.0
C184 C 0.70671 0.82927 0.33411 0.0
O185 O 0.68473 0.83048 0.30965 0.0
O186 O 0.72057 0.80176 0.33803 0.0
O187 O 0.71841 0.28906 0.99162 0.0
Cd188 Cd 0.65933 0.27023 0.99336 0.0
O189 O 0.71409 0.29913 0.93822 0.0
Cd190 Cd 0.66139 0.30799 0.94194 0.0
O191 O 0.6539 0.35996 0.95741 0.0
C192 C 0.6644 0.37008 0.98713 0.0
O193 O 0.67496 0.34837 0.00783 0.0
C194 C 0.73205 0.29557 0.96486 0.0
C195 C 0.65993 0.20626 0.01631 0.0
O196 O 0.66073 0.21064 0.98502 0.0
O197 O 0.65729 0.23178 0.03668 0.0
O198 O 0.27739 0.75883 0.66866 0.0
Cd199 Cd 0.33312 0.74104 0.68201 0.0
O200 O 0.29928 0.79813 0.63951 0.0
Cd201 Cd 0.29253 0.83612 0.60393 0.0
O202 O 0.28225 0.88199 0.58046 0.0
C203 C 0.28836 0.9094 0.59815 0.0
O204 O 0.30068 0.90907 0.62928 0.0
C205 C 0.27369 0.78142 0.64826 0.0
C206 C 0.33085 0.68257 0.64097 0.0
O207 O 0.32539 0.68159 0.67204 0.0
O208 O 0.33987 0.71082 0.62995 0.0
O209 O 0.33942 0.24349 0.05714 0.0
Cd210 Cd 0.27832 0.24093 0.05798 0.0
O211 O 0.33656 0.24283 0.00201 0.0
Cd212 Cd 0.2869 0.21693 0.99725 0.0
O213 O 0.26944 0.16524 0.98277 0.0
C214 C 0.2872 0.15195 0.96115 0.0
O215 O 0.31146 0.17037 0.94933 0.0
C216 C 0.35354 0.24711 0.03 0.0
C217 C 0.25849 0.29956 0.03173 0.0
O218 O 0.2663 0.29887 0.06314 0.0
O219 O 0.25865 0.27249 0.01303 0.0
O220 O 0.3829 0.65869 0.73947 0.0
Cd221 Cd 0.36088 0.71356 0.74755 0.0
O222 O 0.41342 0.67394 0.6988 0.0
Cd223 Cd 0.44737 0.66189 0.65996 0.0
O224 O 0.46884 0.65299 0.61183 0.0
C225 C 0.49854 0.66356 0.60683 0.0
O226 O 0.51761 0.67973 0.63134 0.0
C227 C 0.40417 0.65198 0.71836 0.0
C228 C 0.37228 0.72855 0.81569 0.0
O229 O 0.34417 0.71424 0.80358 0.0
O230 O 0.39414 0.73759 0.79555 0.0
O231 O 0.96106 0.69352 0.25545 0.0
Cd232 Cd 0.97382 0.63563 0.24182 0.0
O233 O 0.00281 0.69918 0.29412 0.0
Cd234 Cd 0.03441 0.73027 0.33219 0.0
O235 O 0.05812 0.75265 0.37972 0.0
C236 C 0.04501 0.74328 0.40584 0.0
O237 O 0.01885 0.72151 0.40273 0.0
C238 C 0.97963 0.71192 0.27713 0.0
C239 C 0.00744 0.63875 0.18367 0.0
O240 O 0.97568 0.6319 0.18224 0.0
O241 O 0.02362 0.64225 0.21243 0.0
O242 O 0.62182 0.24881 0.77813 0.0
Cd243 Cd 0.63158 0.30916 0.77625 0.0
O244 O 0.56794 0.25717 0.77407 0.0
Cd245 Cd 0.57612 0.3052 0.80306 0.0
O246 O 0.57169 0.3145 0.85662 0.0
C247 C 0.5945 0.30507 0.87666 0.0
O248 O 0.62191 0.29418 0.8648 0.0
C249 C 0.59151 0.23764 0.77147 0.0
C250 C 0.61105 0.3153 0.70971 0.0
O251 O 0.64231 0.31486 0.71862 0.0
O252 O 0.59013 0.31626 0.73251 0.0
O253 O 0.10909 0.31751 0.27728 0.0
Cd254 Cd 0.11005 0.2581 0.2861 0.0
O255 O 0.06194 0.30354 0.24734 0.0
Cd256 Cd 0.01869 0.31676 0.21652 0.0
O257 O 0.9863 0.32338 0.17211 0.0
C258 C 0.99479 0.30917 0.14503 0.0
O259 O 0.02135 0.29159 0.14559 0.0
C260 C 0.08353 0.32604 0.26034 0.0
C261 C 0.05966 0.24585 0.32874 0.0
O262 O 0.08978 0.2543 0.34034 0.0
O263 O 0.05349 0.24145 0.29695 0.0
H264 H 0.29863 0.60103 0.50507 0.0
H265 H 0.28388 0.49527 0.47699 0.0
H266 H 0.29681 0.5304 0.58109 0.0
C267 C 0.29564 0.57535 0.51195 0.0
C268 C 0.29839 0.56868 0.54579 0.0
C269 C 0.29096 0.54902 0.48688 0.0
C270 C 0.28733 0.51582 0.49612 0.0
C271 C 0.28862 0.50913 0.53012 0.0
C272 C 0.29468 0.53558 0.55486 0.0
H273 H 0.22906 0.39149 0.91769 0.0
H274 H 0.22932 0.49854 0.91379 0.0
H275 H 0.24336 0.45517 0.0087 0.0
C276 C 0.23061 0.41633 0.93038 0.0
C277 C 0.2362 0.42015 0.96528 0.0
C278 C 0.22805 0.44451 0.91171 0.0
C279 C 0.23086 0.47665 0.92818 0.0
C280 C 0.23604 0.48052 0.96319 0.0
C281 C 0.23863 0.45221 0.9817 0.0
H282 H 0.7417 0.92155 0.46873 0.0
H283 H 0.73235 0.02732 0.4866 0.0
H284 H 0.70677 0.97931 0.38827 0.0
C285 C 0.73541 0.94536 0.45955 0.0
C286 C 0.72419 0.94712 0.42588 0.0
C287 C 0.73782 0.97414 0.48155 0.0
C288 C 0.72993 0.00495 0.46965 0.0
C289 C 0.71888 0.007 0.43599 0.0
C290 C 0.7155 0.97789 0.41427 0.0
H291 H 0.69856 0.10437 0.1201 0.0
H292 H 0.7021 0.99715 0.11297 0.0
H293 H 0.66804 0.04764 0.02696 0.0
C294 C 0.69439 0.08051 0.10558 0.0
C295 C 0.68226 0.07943 0.07188 0.0
C296 C 0.70135 0.05083 0.12049 0.0
C297 C 0.69646 0.0201 0.10153 0.0
C298 C 0.68459 0.01884 0.06781 0.0
C299 C 0.67723 0.04853 0.05305 0.0
H300 H 0.49606 0.29481 0.60802 0.0
H301 H 0.47794 0.27338 0.5017 0.0
H302 H 0.57923 0.28792 0.54587 0.0
C303 C 0.50556 0.29006 0.58356 0.0
C304 C 0.54021 0.29137 0.58032 0.0
C305 C 0.48307 0.28386 0.55529 0.0
C306 C 0.49532 0.27782 0.52366 0.0
C307 C 0.53002 0.27924 0.52013 0.0
C308 C 0.55242 0.28621 0.54853 0.0
H309 H 0.12536 0.68171 0.09582 0.0
H310 H 0.12067 0.71716 0.99656 0.0
H311 H 0.03294 0.66949 0.03414 0.0
C312 C 0.11152 0.68447 0.07212 0.0
C313 C 0.07728 0.67433 0.06808 0.0
C314 C 0.12739 0.70028 0.04654 0.0
C315 C 0.10882 0.70473 0.01637 0.0
C316 C 0.07515 0.69254 0.01144 0.0
C317 C 0.05938 0.67758 0.0374 0.0
H318 H 0.91846 0.23833 0.40171 0.0
H319 H 0.91198 0.25318 0.50835 0.0
H320 H 0.00843 0.25495 0.46693 0.0
C321 C 0.9306 0.24278 0.42671 0.0
C322 C 0.96568 0.24618 0.43118 0.0
C323 C 0.9112 0.24548 0.4545 0.0
C324 C 0.92696 0.25118 0.48684 0.0
C325 C 0.96206 0.25462 0.49137 0.0
C326 C 0.98129 0.25212 0.46349 0.0
H327 H 0.46812 0.75196 0.93978 0.0
H328 H 0.46107 0.74146 0.04518 0.0
H329 H 0.37261 0.72539 0.9775 0.0
C330 C 0.45312 0.74695 0.96069 0.0
C331 C 0.41865 0.73874 0.95501 0.0
C332 C 0.46847 0.7478 0.9931 0.0
C333 C 0.44921 0.74076 0.02005 0.0
C334 C 0.41455 0.73294 0.01448 0.0
C335 C 0.39932 0.7318 0.98191 0.0
H336 H 0.63262 0.49499 0.30361 0.0
H337 H 0.52596 0.47427 0.29252 0.0
H338 H 0.56866 0.57518 0.28645 0.0
C339 C 0.60772 0.50379 0.29969 0.0
C340 C 0.60386 0.53784 0.29619 0.0
C341 C 0.57977 0.481 0.29837 0.0
C342 C 0.54755 0.49217 0.29353 0.0
C343 C 0.54317 0.52608 0.28858 0.0
C344 C 0.57159 0.54893 0.29003 0.0
H345 H 0.11567 0.1188 0.70272 0.0
H346 H 0.01255 0.11552 0.72756 0.0
H347 H 0.05314 0.02717 0.68454 0.0
C348 C 0.09153 0.10512 0.70362 0.0
C349 C 0.0877 0.07098 0.69291 0.0
C350 C 0.06459 0.12134 0.71652 0.0
C351 C 0.03357 0.10319 0.71788 0.0
C352 C 0.02916 0.06957 0.70561 0.0
C353 C 0.05635 0.05337 0.69346 0.0
H354 H 0.38643 0.9043 0.21461 0.0
H355 H 0.48608 0.87337 0.21623 0.0
H356 H 0.46729 0.9777 0.20893 0.0
C357 C 0.41297 0.91034 0.21247 0.0
C358 C 0.42485 0.94355 0.21086 0.0
C359 C 0.43528 0.88517 0.21401 0.0
C360 C 0.4697 0.89317 0.21201 0.0
C361 C 0.48219 0.92606 0.20598 0.0
C362 C 0.45912 0.95144 0.20796 0.0
H363 H 0.89427 0.48636 0.7399 0.0
H364 H 0.0004 0.4918 0.72875 0.0
H365 H 0.94273 0.39692 0.7122 0.0
C366 C 0.91672 0.47418 0.73386 0.0
C367 C 0.91494 0.43956 0.72575 0.0
C368 C 0.9474 0.4931 0.73464 0.0
C369 C 0.97651 0.47723 0.72748 0.0
C370 C 0.97504 0.44252 0.71947 0.0
C371 C 0.94404 0.42375 0.71817 0.0
H372 H 0.67992 0.41548 0.53299 0.0
H373 H 0.68551 0.52293 0.53624 0.0
H374 H 0.66205 0.46511 0.44216 0.0
C375 C 0.67796 0.43837 0.52018 0.0
C376 C 0.67069 0.4366 0.48547 0.0
C377 C 0.68303 0.46932 0.53854 0.0
C378 C 0.68113 0.49889 0.52207 0.0
C379 C 0.67333 0.49747 0.4874 0.0
C380 C 0.66781 0.46627 0.46901 0.0
H381 H 0.73099 0.59351 0.08128 0.0
H382 H 0.71582 0.48684 0.08499 0.0
H383 H 0.68857 0.53331 0.99406 0.0
C384 C 0.72243 0.56922 0.06906 0.0
C385 C 0.70926 0.56691 0.03572 0.0
C386 C 0.72503 0.54051 0.08672 0.0
C387 C 0.71382 0.50911 0.07124 0.0
C388 C 0.70042 0.50641 0.03787 0.0
C389 C 0.69853 0.53533 0.01995 0.0
H390 H 0.24289 0.10689 0.48313 0.0
H391 H 0.26269 0.00318 0.48735 0.0
H392 H 0.2562 0.06461 0.57866 0.0
C393 C 0.24769 0.08561 0.49769 0.0
C394 C 0.24955 0.08949 0.53273 0.0
C395 C 0.25217 0.05456 0.48125 0.0
C396 C 0.25901 0.02725 0.50003 0.0
C397 C 0.26031 0.03072 0.53514 0.0
C398 C 0.25508 0.0618 0.55153 0.0
H399 H 0.28543 0.91932 0.88233 0.0
H400 H 0.27415 0.02302 0.86537 0.0
H401 H 0.28787 0.99264 0.96594 0.0
C402 C 0.28342 0.94494 0.89204 0.0
C403 C 0.28694 0.95311 0.92666 0.0
C404 C 0.27874 0.97016 0.8699 0.0
C405 C 0.27705 0.0034 0.8825 0.0
C406 C 0.28009 0.01155 0.91711 0.0
C407 C 0.28475 0.98629 0.93917 0.0
H408 H 0.50679 0.66305 0.36989 0.0
H409 H 0.57011 0.66909 0.46118 0.0
H410 H 0.46351 0.64761 0.46325 0.0
C411 C 0.50998 0.6599 0.39656 0.0
C412 C 0.48181 0.65362 0.41459 0.0
C413 C 0.54186 0.66538 0.41311 0.0
C414 C 0.54571 0.66337 0.44802 0.0
C415 C 0.51741 0.65657 0.46615 0.0
C416 C 0.48556 0.65127 0.44923 0.0
H417 H 0.88563 0.3199 0.92465 0.0
H418 H 0.87512 0.31017 0.02985 0.0
H419 H 0.97321 0.32456 0.9934 0.0
C420 C 0.89681 0.31943 0.94996 0.0
C421 C 0.9318 0.32289 0.95601 0.0
C422 C 0.87633 0.31476 0.97659 0.0
C423 C 0.89089 0.31392 0.00926 0.0
C424 C 0.92579 0.3176 0.01534 0.0
C425 C 0.94616 0.32215 0.98873 0.0
H426 H 0.12218 0.78174 0.63798 0.0
H427 H 0.14853 0.78352 0.53586 0.0
H428 H 0.04498 0.76873 0.55774 0.0
C429 C 0.11467 0.78162 0.61149 0.0
C430 C 0.08077 0.77596 0.60058 0.0
C431 C 0.13915 0.78472 0.58834 0.0
C432 C 0.12954 0.78265 0.5539 0.0
C433 C 0.0955 0.77713 0.54277 0.0
C434 C 0.07112 0.77436 0.56623 0.0
H435 H 0.50189 0.26559 0.08619 0.0
H436 H 0.5003 0.28169 0.98133 0.0
H437 H 0.59468 0.28448 0.03992 0.0
C438 C 0.51519 0.27111 0.06427 0.0
C439 C 0.55028 0.27495 0.06668 0.0
C440 C 0.49718 0.27343 0.03359 0.0
C441 C 0.51429 0.28013 0.00519 0.0
C442 C 0.54943 0.2844 0.0074 0.0
C443 C 0.56751 0.28168 0.03821 0.0
H444 H 0.39363 0.50395 0.70236 0.0
H445 H 0.49946 0.52285 0.72564 0.0
H446 H 0.45689 0.4213 0.70528 0.0
C447 C 0.41828 0.49457 0.70642 0.0
C448 C 0.4219 0.46007 0.70292 0.0
C449 C 0.44603 0.51724 0.71413 0.0
C450 C 0.47784 0.50529 0.71956 0.0
C451 C 0.48178 0.47066 0.71705 0.0
C452 C 0.45384 0.44797 0.70802 0.0
H453 H 0.92468 0.86054 0.30031 0.0
H454 H 0.02982 0.85954 0.28385 0.0
H455 H 0.98502 0.95333 0.29958 0.0
C456 C 0.94881 0.87386 0.29822 0.0
C457 C 0.95172 0.90901 0.30106 0.0
C458 C 0.97706 0.85595 0.29234 0.0
C459 C 0.00805 0.87331 0.28882 0.0
C460 C 0.01092 0.90839 0.29133 0.0
C461 C 0.98282 0.92616 0.29775 0.0
H462 H 0.60957 0.08681 0.73213 0.0
H463 H 0.50475 0.1034 0.71989 0.0
H464 H 0.53807 0.00457 0.69914 0.0
C465 C 0.58391 0.07723 0.72535 0.0
C466 C 0.57689 0.04321 0.71549 0.0
C467 C 0.55801 0.0989 0.727 0.0
C468 C 0.52483 0.08659 0.71841 0.0
C469 C 0.51747 0.05262 0.70812 0.0
C470 C 0.54361 0.0309 0.70673 0.0
H471 H 0.11511 0.47964 0.24837 0.0
H472 H 0.00897 0.46115 0.25475 0.0
H473 H 0.05212 0.56248 0.25515 0.0
C474 C 0.09035 0.48898 0.2493 0.0
C475 C 0.08676 0.52357 0.25083 0.0
C476 C 0.06236 0.46647 0.2506 0.0
C477 C 0.03054 0.47858 0.25298 0.0
C478 C 0.02666 0.51318 0.25444 0.0
C479 C 0.05484 0.53571 0.25318 0.0
C480 C 0.16643 0.57214 0.28715 0.0
C481 C 0.1815 0.58044 0.25742 0.0
C482 C 0.13221 0.55526 0.2232 0.0
C483 C 0.1173 0.54675 0.25293 0.0
N484 N 0.11651 0.55226 0.31308 0.0
N485 N 0.17724 0.58614 0.198 0.0
C486 C 0.13322 0.55702 0.2849 0.0
C487 C 0.16385 0.57396 0.22564 0.0
N488 N 0.18454 0.57723 0.31741 0.0
N489 N 0.11652 0.54449 0.19274 0.0
H490 H 0.20048 0.59969 0.19918 0.0
H491 H 0.16449 0.5851 0.17447 0.0
H492 H 0.09265 0.53212 0.19017 0.0
H493 H 0.12751 0.54644 0.17009 0.0
H494 H 0.17678 0.56787 0.33945 0.0
H495 H 0.20856 0.5892 0.32033 0.0
H496 H 0.12513 0.56236 0.33688 0.0
H497 H 0.09256 0.54027 0.31249 0.0
C498 C 0.33933 0.43919 0.65769 0.0
C499 C 0.32137 0.42384 0.68268 0.0
C500 C 0.37384 0.42159 0.7174 0.0
C501 C 0.39121 0.43807 0.69285 0.0
N502 N 0.39339 0.45124 0.63551 0.0
N503 N 0.32279 0.39192 0.73194 0.0
C504 C 0.37482 0.44253 0.66136 0.0
C505 C 0.33912 0.41171 0.71083 0.0
N506 N 0.32253 0.4523 0.63144 0.0
N507 N 0.38982 0.41776 0.74792 0.0
H508 H 0.29723 0.38511 0.72898 0.0
H509 H 0.33513 0.37985 0.75086 0.0
H510 H 0.4154 0.42378 0.75318 0.0
H511 H 0.37749 0.41024 0.76853 0.0
H512 H 0.33424 0.46719 0.61468 0.0
H513 H 0.29651 0.44999 0.6276 0.0
H514 H 0.38319 0.45234 0.61107 0.0
H515 H 0.41956 0.45399 0.63814 0.0
C516 C 0.64535 0.98976 0.68454 0.0
C517 C 0.66539 0.98854 0.71486 0.0
C518 C 0.62221 0.01464 0.74599 0.0
C519 C 0.60498 0.02082 0.71517 0.0
N520 N 0.60153 0.01711 0.6547 0.0
N521 N 0.67413 0.00039 0.77453 0.0
C522 C 0.61663 0.00876 0.68428 0.0
C523 C 0.65407 0.00095 0.7457 0.0
N524 N 0.65379 0.97274 0.65601 0.0
N525 N 0.60777 0.02144 0.77541 0.0
H526 H 0.69693 0.98917 0.77533 0.0
H527 H 0.66914 0.01256 0.79721 0.0
H528 H 0.58421 0.03102 0.77632 0.0
H529 H 0.61756 0.01481 0.79854 0.0
H530 H 0.63841 0.96995 0.63391 0.0
H531 H 0.6748 0.95872 0.65526 0.0
H532 H 0.61137 0.01247 0.63158 0.0
H533 H 0.58046 0.03104 0.65334 0.0
C534 C 0.87851 0.96223 0.2823 0.0
C535 C 0.87123 0.97284 0.31528 0.0
C536 C 0.91186 0.93588 0.33856 0.0
C537 C 0.92192 0.92842 0.30577 0.0
N538 N 0.91618 0.93454 0.2463 0.0
N539 N 0.88054 0.97111 0.37504 0.0
C540 C 0.90542 0.94141 0.27754 0.0
C541 C 0.88749 0.95971 0.34353 0.0
N542 N 0.85911 0.97153 0.2556 0.0
N543 N 0.92566 0.92011 0.36481 0.0
H544 H 0.8621 0.98776 0.37948 0.0
H545 H 0.894 0.96558 0.39681 0.0
H546 H 0.94432 0.90335 0.36215 0.0
H547 H 0.91724 0.92174 0.38882 0.0
H548 H 0.86077 0.9621 0.23102 0.0
H549 H 0.83922 0.98682 0.25831 0.0
H550 H 0.90823 0.9465 0.22523 0.0
H551 H 0.93455 0.9179 0.24156 0.0
C552 C 0.2145 0.1733 0.5487 0.0
C553 C 0.24411 0.19297 0.56033 0.0
C554 C 0.27573 0.14295 0.5621 0.0
C555 C 0.24651 0.12335 0.5489 0.0
N556 N 0.18652 0.11755 0.53878 0.0
N557 N 0.29953 0.19612 0.58825 0.0
C558 C 0.21524 0.13785 0.54544 0.0
C559 C 0.2735 0.17756 0.57078 0.0
N560 N 0.18613 0.18867 0.53976 0.0
N561 N 0.30608 0.12918 0.56389 0.0
H562 H 0.29903 0.2217 0.59451 0.0
H563 H 0.32029 0.18564 0.59924 0.0
H564 H 0.3089 0.10391 0.5579 0.0
H565 H 0.32883 0.14322 0.5691 0.0
H566 H 0.16478 0.17617 0.52745 0.0
H567 H 0.18451 0.21449 0.54371 0.0
H568 H 0.16256 0.1262 0.5384 0.0
H569 H 0.18667 0.09147 0.53656 0.0
C570 C 0.27644 0.88863 0.99108 0.0
C571 C 0.3104 0.88168 0.99831 0.0
C572 C 0.32889 0.92098 0.95789 0.0
C573 C 0.2949 0.92727 0.95008 0.0
N574 N 0.23597 0.91404 0.95464 0.0
N575 N 0.36844 0.88666 0.98561 0.0
C576 C 0.26854 0.91018 0.96537 0.0
C577 C 0.33648 0.89636 0.98066 0.0
N578 N 0.25181 0.87477 0.00902 0.0
N579 N 0.35392 0.93946 0.94441 0.0
H580 H 0.37525 0.86992 0.00327 0.0
H581 H 0.38784 0.89342 0.97082 0.0
H582 H 0.34933 0.95707 0.92695 0.0
H583 H 0.37922 0.93901 0.95197 0.0
H584 H 0.2273 0.88196 0.00806 0.0
H585 H 0.25611 0.85693 0.0263 0.0
H586 H 0.21551 0.89973 0.96207 0.0
H587 H 0.22934 0.93009 0.93624 0.0
C588 C 0.69356 0.35517 0.44204 0.0
C589 C 0.66898 0.3331 0.45479 0.0
C590 C 0.63905 0.38129 0.47418 0.0
C591 C 0.66672 0.40291 0.46746 0.0
N592 N 0.7211 0.41113 0.44573 0.0
N593 N 0.61919 0.32515 0.48508 0.0
C594 C 0.69388 0.39017 0.45085 0.0
C595 C 0.64171 0.34615 0.47111 0.0
N596 N 0.71727 0.34275 0.42255 0.0
N597 N 0.61038 0.39461 0.48388 0.0
H598 H 0.61971 0.29919 0.48279 0.0
H599 H 0.60141 0.33355 0.50089 0.0
H600 H 0.60802 0.42044 0.48616 0.0
H601 H 0.58815 0.38027 0.48632 0.0
H602 H 0.73328 0.3578 0.40949 0.0
H603 H 0.71965 0.31727 0.41739 0.0
H604 H 0.74361 0.40282 0.43796 0.0
H605 H 0.72195 0.43697 0.45109 0.0
C606 C 0.67539 0.64393 0.99837 0.0
C607 C 0.70524 0.66524 0.00121 0.0
C608 C 0.73776 0.61739 0.01363 0.0
C609 C 0.70748 0.59826 0.01804 0.0
N610 N 0.64695 0.59401 0.01672 0.0
N611 N 0.76532 0.67268 0.01023 0.0
C612 C 0.67607 0.61141 0.01035 0.0
C613 C 0.73667 0.65198 0.0081 0.0
N614 N 0.64638 0.65488 0.98459 0.0
N615 N 0.76739 0.6023 0.01472 0.0
H616 H 0.76541 0.69767 0.00437 0.0
H617 H 0.78861 0.66555 0.01911 0.0
H618 H 0.76867 0.57683 0.01824 0.0
H619 H 0.79006 0.61408 0.00908 0.0
H620 H 0.62449 0.63946 0.97927 0.0
H621 H 0.64528 0.67834 0.97502 0.0
H622 H 0.62368 0.60421 0.01543 0.0
H623 H 0.64616 0.57025 0.02584 0.0
C624 C 0.58376 0.29551 0.15609 0.0
C625 C 0.58571 0.26279 0.16739 0.0
C626 C 0.57069 0.23805 0.11059 0.0
C627 C 0.56824 0.27076 0.09944 0.0
N628 N 0.57969 0.33045 0.10901 0.0
N629 N 0.58871 0.20358 0.15512 0.0
C630 C 0.57748 0.29945 0.12136 0.0
C631 C 0.58169 0.23422 0.14446 0.0
N632 N 0.58568 0.32265 0.17882 0.0
N633 N 0.56112 0.21076 0.08906 0.0
H634 H 0.59669 0.2002 0.17989 0.0
H635 H 0.58937 0.18216 0.13911 0.0
H636 H 0.55453 0.21267 0.06368 0.0
H637 H 0.55822 0.18641 0.09651 0.0
H638 H 0.5805 0.3467 0.17267 0.0
H639 H 0.59014 0.32081 0.20449 0.0
H640 H 0.58959 0.35202 0.12301 0.0
H641 H 0.57425 0.33427 0.08382 0.0
C642 C 0.99682 0.35949 0.90141 0.0
C643 C 0.00271 0.33068 0.88079 0.0
C644 C 0.96041 0.29715 0.9079 0.0
C645 C 0.95397 0.32612 0.92807 0.0
N646 N 0.96068 0.38592 0.94007 0.0
N647 N 0.98612 0.27406 0.85922 0.0
C648 C 0.97056 0.35769 0.92356 0.0
C649 C 0.98308 0.30015 0.8823 0.0
N650 N 0.01687 0.38828 0.90028 0.0
N651 N 0.94619 0.26649 0.91436 0.0
H652 H 0.00321 0.27499 0.8407 0.0
H653 H 0.96997 0.25249 0.85666 0.0
H654 H 0.92924 0.26322 0.93273 0.0
H655 H 0.95295 0.24395 0.90327 0.0
H656 H 0.01652 0.40899 0.91729 0.0
H657 H 0.03535 0.39085 0.88328 0.0
H658 H 0.96946 0.4101 0.93558 0.0
H659 H 0.9415 0.38534 0.95646 0.0
C660 C 0.40421 0.62919 0.35719 0.0
C661 C 0.39615 0.66156 0.34841 0.0
C662 C 0.43612 0.68701 0.39304 0.0
C663 C 0.44831 0.65511 0.3973 0.0
N664 N 0.44407 0.59541 0.38525 0.0
N665 N 0.40596 0.72187 0.35635 0.0
C666 C 0.43197 0.62593 0.38035 0.0
C667 C 0.41192 0.6907 0.3664 0.0
N668 N 0.38521 0.60171 0.34324 0.0
N669 N 0.44822 0.71387 0.41413 0.0
H670 H 0.38883 0.72608 0.33668 0.0
H671 H 0.41994 0.74363 0.36579 0.0
H672 H 0.46655 0.71213 0.4335 0.0
H673 H 0.43792 0.73707 0.41451 0.0
H674 H 0.38751 0.57757 0.35079 0.0
H675 H 0.36494 0.60377 0.32607 0.0
H676 H 0.43601 0.57355 0.37073 0.0
H677 H 0.46355 0.59227 0.40311 0.0
C678 C 0.0325 0.72486 0.66009 0.0
C679 C 0.01859 0.75067 0.6795 0.0
C680 C 0.04213 0.79301 0.64453 0.0
C681 C 0.05629 0.76723 0.62533 0.0
N682 N 0.06081 0.70847 0.61056 0.0
N683 N 0.00465 0.80801 0.68757 0.0
C684 C 0.05004 0.73306 0.63174 0.0
C685 C 0.02156 0.78439 0.67077 0.0
N686 N 0.02966 0.6926 0.6694 0.0
N687 N 0.04934 0.82573 0.63827 0.0
H688 H 0.99014 0.80256 0.70746 0.0
H689 H 0.00304 0.83242 0.68059 0.0
H690 H 0.06311 0.8327 0.61833 0.0
H691 H 0.04313 0.84606 0.65354 0.0
H692 H 0.04274 0.67327 0.65919 0.0
H693 H 0.01522 0.68519 0.68871 0.0
H694 H 0.05394 0.68309 0.61142 0.0
H695 H 0.07497 0.71345 0.59036 0.0
C696 C 0.82881 0.398 0.69749 0.0
C697 C 0.81513 0.39529 0.72913 0.0
C698 C 0.87029 0.41227 0.75755 0.0
C699 C 0.88226 0.42011 0.7263 0.0
N700 N 0.87346 0.42195 0.6665 0.0
N701 N 0.8224 0.39837 0.78939 0.0
C702 C 0.86187 0.41285 0.69617 0.0
C703 C 0.83588 0.40173 0.75923 0.0
N704 N 0.81018 0.38677 0.6687 0.0
N705 N 0.89206 0.41468 0.78547 0.0
H706 H 0.79802 0.38824 0.79143 0.0
H707 H 0.83479 0.40661 0.81235 0.0
H708 H 0.91738 0.42243 0.78492 0.0
H709 H 0.88591 0.40656 0.80855 0.0
H710 H 0.82 0.38467 0.64532 0.0
H711 H 0.78543 0.377 0.66821 0.0
H712 H 0.85845 0.42152 0.64427 0.0
H713 H 0.89785 0.43203 0.66441 0.0
C714 C 0.68782 0.57787 0.33144 0.0
C715 C 0.69906 0.59425 0.30353 0.0
C716 C 0.64576 0.57708 0.27147 0.0
C717 C 0.63433 0.56131 0.29966 0.0
N718 N 0.64065 0.5537 0.35876 0.0
N719 N 0.68602 0.61602 0.2496 0.0
C720 C 0.65418 0.56409 0.33045 0.0
C721 C 0.67695 0.59644 0.27463 0.0
N722 N 0.70958 0.57467 0.35855 0.0
N723 N 0.62825 0.57139 0.24097 0.0
H724 H 0.70938 0.62892 0.2494 0.0
H725 H 0.66934 0.62154 0.23005 0.0
H726 H 0.60565 0.55683 0.23724 0.0
H727 H 0.63749 0.57866 0.21868 0.0
H728 H 0.70446 0.55876 0.37736 0.0
H729 H 0.73347 0.58694 0.36154 0.0
H730 H 0.65304 0.55696 0.38245 0.0
H731 H 0.61571 0.54445 0.35903 0.0
C732 C 0.34812 0.99109 0.19374 0.0
C733 C 0.3438 0.00518 0.2264 0.0
C734 C 0.39711 0.98503 0.24729 0.0
C735 C 0.40085 0.9699 0.2149 0.0
N736 N 0.3852 0.96483 0.15582 0.0
N737 N 0.36722 0.023 0.28214 0.0
C738 C 0.37804 0.97517 0.18756 0.0
C739 C 0.3695 0.00484 0.25241 0.0
N740 N 0.32313 0.9921 0.16901 0.0
N741 N 0.41873 0.97866 0.27358 0.0
H742 H 0.34678 0.03685 0.28724 0.0
H743 H 0.38668 0.0266 0.30079 0.0
H744 H 0.43976 0.965 0.27071 0.0
H745 H 0.41492 0.98521 0.29851 0.0
H746 H 0.3228 0.97905 0.14568 0.0
H747 H 0.30175 0.00514 0.17236 0.0
H748 H 0.37114 0.97013 0.13432 0.0
H749 H 0.4071 0.95321 0.15085 0.0
C750 C 0.16928 0.02751 0.69889 0.0
C751 C 0.17282 0.01814 0.6646 0.0
C752 C 0.12224 0.04634 0.64851 0.0
C753 C 0.11719 0.05313 0.68292 0.0
N754 N 0.13271 0.04633 0.74107 0.0
N755 N 0.15203 0.01586 0.60672 0.0
C756 C 0.13993 0.0428 0.70819 0.0
C757 C 0.14907 0.02675 0.63935 0.0
N758 N 0.19404 0.0219 0.72259 0.0
N759 N 0.10187 0.05939 0.62471 0.0
H760 H 0.17225 0.0029 0.59902 0.0
H761 H 0.1337 0.01799 0.58751 0.0
H762 H 0.08178 0.07346 0.63061 0.0
H763 H 0.10614 0.0584 0.59936 0.0
H764 H 0.19482 0.03159 0.74738 0.0
H765 H 0.2153 0.00952 0.71714 0.0
H766 H 0.14611 0.0358 0.76037 0.0
H767 H 0.11155 0.05755 0.74898 0.0
C768 C 0.73636 0.88528 0.3521 0.0
C769 C 0.71374 0.85827 0.35879 0.0
C770 C 0.69664 0.89024 0.40809 0.0
C771 C 0.72092 0.91639 0.40287 0.0
N772 N 0.76894 0.93586 0.37434 0.0
N773 N 0.67865 0.83158 0.39731 0.0
C774 C 0.74227 0.91312 0.37608 0.0
C775 C 0.69588 0.85966 0.38815 0.0
N776 N 0.7519 0.88446 0.32276 0.0
N777 N 0.67338 0.89509 0.4311 0.0
H778 H 0.67832 0.80855 0.38363 0.0
H779 H 0.66777 0.83025 0.42012 0.0
H780 H 0.67252 0.91745 0.44574 0.0
H781 H 0.65297 0.87813 0.43342 0.0
H782 H 0.76573 0.90498 0.31476 0.0
H783 H 0.7492 0.8638 0.30533 0.0
H784 H 0.78728 0.933 0.35733 0.0
H785 H 0.77456 0.95604 0.39199 0.0
C786 C 0.6383 0.15528 0.04345 0.0
C787 C 0.6649 0.17297 0.02902 0.0
C788 C 0.70138 0.12725 0.03895 0.0
C789 C 0.67577 0.11105 0.05611 0.0
N790 N 0.62107 0.11056 0.07792 0.0
N791 N 0.72312 0.17849 0.01675 0.0
C792 C 0.64452 0.12531 0.05925 0.0
C793 C 0.69678 0.15959 0.02754 0.0
N794 N 0.60681 0.16651 0.04092 0.0
N795 N 0.73004 0.11159 0.03338 0.0
H796 H 0.72088 0.2023 0.00818 0.0
H797 H 0.74782 0.17186 0.01871 0.0
H798 H 0.73497 0.08853 0.04256 0.0
H799 H 0.74791 0.12018 0.01766 0.0
H800 H 0.58553 0.15281 0.04743 0.0
H801 H 0.60149 0.18844 0.02964 0.0
H802 H 0.59951 0.12177 0.08456 0.0
H803 H 0.62419 0.08788 0.08871 0.0
C804 C 0.28938 0.63843 0.61299 0.0
C805 C 0.32305 0.65256 0.61755 0.0
C806 C 0.34065 0.61048 0.57635 0.0
C807 C 0.30701 0.59665 0.57157 0.0
N808 N 0.25007 0.5938 0.5876 0.0
N809 N 0.37981 0.65562 0.60061 0.0
C810 C 0.28158 0.60956 0.59061 0.0
C811 C 0.34841 0.63966 0.59828 0.0
N812 N 0.26442 0.6542 0.62807 0.0
N813 N 0.36545 0.59449 0.56128 0.0
H814 H 0.38732 0.67539 0.61826 0.0
H815 H 0.39814 0.65036 0.58419 0.0
H816 H 0.36077 0.5727 0.54555 0.0
H817 H 0.39093 0.6009 0.56644 0.0
H818 H 0.23897 0.64772 0.62286 0.0
H819 H 0.26869 0.67586 0.64401 0.0
H820 H 0.23139 0.59902 0.60362 0.0
H821 H 0.24293 0.57375 0.57016 0.0
C822 C 0.27933 0.34705 -0.00019 0.0
C823 C 0.25304 0.33151 0.01665 0.0
C824 C 0.21548 0.3743 6e-05 0.0
C825 C 0.24216 0.39047 0.98432 0.0
N826 N 0.30078 0.39631 0.9739 0.0
N827 N 0.19798 0.33213 0.03739 0.0
C828 C 0.27451 0.37802 0.98558 0.0
C829 C 0.22167 0.34578 0.01828 0.0
N830 N 0.30872 0.33186 0.99694 0.0
N831 N 0.18405 0.38561 0.99659 0.0
H832 H 0.20138 0.31062 0.05015 0.0
H833 H 0.17593 0.34323 0.0425 0.0
H834 H 0.17885 0.40686 0.98402 0.0
H835 H 0.16269 0.37293 0.00424 0.0
H836 H 0.32724 0.33964 0.98154 0.0
H837 H 0.31396 0.31003 0.00843 0.0
H838 H 0.32568 0.39059 0.9774 0.0
H839 H 0.29813 0.41895 0.96291 0.0
C840 C 0.39038 0.70159 0.86747 0.0
C841 C 0.38104 0.73084 0.85209 0.0
C842 C 0.39121 0.76404 0.90573 0.0
C843 C 0.40341 0.73551 0.92028 0.0
N844 N 0.41727 0.67785 0.91555 0.0
N845 N 0.37416 0.79017 0.85493 0.0
C846 C 0.40346 0.70437 0.90137 0.0
C847 C 0.38178 0.76217 0.8708 0.0
N848 N 0.38676 0.67114 0.84958 0.0
N849 N 0.3883 0.79269 0.9255 0.0
H850 H 0.36578 0.78935 0.82969 0.0
H851 H 0.37772 0.81441 0.8661 0.0
H852 H 0.39556 0.79497 0.95106 0.0
H853 H 0.37662 0.81341 0.91735 0.0
H854 H 0.38934 0.64839 0.86022 0.0
H855 H 0.37909 0.66818 0.82415 0.0
H856 H 0.42208 0.65578 0.90215 0.0
H857 H 0.42591 0.67849 0.9407 0.0
C858 C 0.04696 0.62445 0.13953 0.0
C859 C 0.0244 0.64662 0.15322 0.0
C860 C 0.03887 0.68766 0.11295 0.0
C861 C 0.05918 0.66439 0.09737 0.0
N862 N 0.07978 0.6093 0.09264 0.0
N863 N 0.99485 0.69716 0.1502 0.0
C864 C 0.06252 0.63236 0.1098 0.0
C865 C 0.01901 0.67749 0.13897 0.0
N866 N 0.05367 0.59606 0.1551 0.0
N867 N 0.03982 0.72006 0.10401 0.0
H868 H 0.98061 0.69159 0.1702 0.0
H869 H 0.98706 0.7178 0.13808 0.0
H870 H 0.05439 0.72881 0.08536 0.0
H871 H 0.02867 0.73916 0.11711 0.0
H872 H 0.07248 0.58068 0.14854 0.0
H873 H 0.04166 0.58886 0.17607 0.0
H874 H 0.08041 0.58439 0.09837 0.0
H875 H 0.0916 0.61445 0.07094 0.0
C876 C 0.60179 0.28106 0.65485 0.0
C877 C 0.59859 0.31173 0.67397 0.0
C878 C 0.56443 0.3316 0.62735 0.0
C879 C 0.5634 0.29926 0.61061 0.0
N880 N 0.57806 0.24183 0.60962 0.0
N881 N 0.57503 0.36546 0.6796 0.0
C882 C 0.58169 0.27372 0.62439 0.0
C883 C 0.57952 0.33687 0.66046 0.0
N884 N 0.62327 0.25845 0.6661 0.0
N885 N 0.55158 0.35744 0.61125 0.0
H886 H 0.58786 0.37165 0.70288 0.0
H887 H 0.55699 0.38192 0.67315 0.0
H888 H 0.54088 0.35449 0.58672 0.0
H889 H 0.55437 0.38229 0.62093 0.0
H890 H 0.62956 0.23774 0.65137 0.0
H891 H 0.63666 0.26126 0.68935 0.0
H892 H 0.58717 0.22119 0.62076 0.0
H893 H 0.56359 0.23533 0.58731 0.0
C894 C 0.01106 0.2703 0.35489 0.0
C895 C 0.03239 0.24352 0.35171 0.0
C896 C 0.0047 0.21544 0.39596 0.0
C897 C 0.98654 0.24419 0.40203 0.0
N898 N 0.97433 0.30045 0.38989 0.0
N899 N 0.05115 0.19121 0.3695 0.0
C900 C 0.98991 0.2719 0.38195 0.0
C901 C 0.02959 0.21616 0.37226 0.0
N902 N 0.01116 0.2943 0.33216 0.0
N903 N 0.99756 0.1873 0.41241 0.0
H904 H 0.06844 0.19003 0.35117 0.0
H905 H 0.05317 0.17264 0.38634 0.0
H906 H 0.97937 0.18599 0.42985 0.0
H907 H 0.00752 0.16441 0.40689 0.0
H908 H 0.99366 0.31235 0.33094 0.0
H909 H 0.02712 0.29473 0.31266 0.0
H910 H 0.97896 0.32291 0.37883 0.0
H911 H 0.95847 0.30261 0.40942 0.0
C912 C 0.31895 0.58823 0.40889 0.0
C913 C 0.29419 0.57447 0.38424 0.0
C914 C 0.26436 0.54712 0.42761 0.0
C915 C 0.29208 0.55659 0.45106 0.0
N916 N 0.34972 0.57903 0.46072 0.0
N917 N 0.24458 0.53796 0.36901 0.0
C918 C 0.32057 0.57512 0.44076 0.0
C919 C 0.26727 0.5529 0.39322 0.0
N920 N 0.34035 0.61447 0.40227 0.0
N921 N 0.23485 0.53413 0.43828 0.0
H922 H 0.2453 0.54269 0.34378 0.0
H923 H 0.22648 0.51931 0.37368 0.0
H924 H 0.23132 0.53071 0.46339 0.0
H925 H 0.21294 0.52981 0.42272 0.0
H926 H 0.35732 0.627 0.42041 0.0
H927 H 0.33813 0.62621 0.37988 0.0
H928 H 0.37193 0.58997 0.45286 0.0
H929 H 0.35274 0.5679 0.4834 0.0
C930 C 0.24407 0.41964 0.82133 0.0
C931 C 0.21372 0.42778 0.80456 0.0
C932 C 0.19242 0.44639 0.85805 0.0
C933 C 0.22351 0.44012 0.87464 0.0
N934 N 0.28133 0.42742 0.87176 0.0
N935 N 0.16191 0.45521 0.80556 0.0
C936 C 0.25008 0.42862 0.85617 0.0
C937 C 0.18881 0.44321 0.8225 0.0
N938 N 0.26698 0.40306 0.804 0.0
N939 N 0.16588 0.45395 0.87627 0.0
H940 H 0.1583 0.45317 0.77952 0.0
H941 H 0.14478 0.46979 0.81709 0.0
H942 H 0.16744 0.45635 0.90239 0.0
H943 H 0.14159 0.45507 0.86568 0.0
H944 H 0.28778 0.39303 0.81542 0.0
H945 H 0.26404 0.39735 0.77819 0.0
H946 H 0.30252 0.42251 0.85907 0.0
H947 H 0.28679 0.43433 0.89716 0.0
C948 C 0.73283 0.97673 0.5758 0.0
C949 C 0.76625 0.97066 0.58641 0.0
C950 C 0.78167 0.96876 0.52822 0.0
C951 C 0.74764 0.97194 0.51754 0.0
N952 N 0.68964 0.97238 0.53031 0.0
N953 N 0.82127 0.95538 0.57289 0.0
C954 C 0.72283 0.9739 0.5411 0.0
C955 C 0.79039 0.96512 0.56265 0.0
N956 N 0.71113 0.98699 0.59871 0.0
N957 N 0.80577 0.97034 0.50564 0.0
H958 H 0.82842 0.95222 0.5979 0.0
H959 H 0.83872 0.94762 0.55641 0.0
H960 H 0.80029 0.97278 0.48016 0.0
H961 H 0.83138 0.97191 0.51248 0.0
H962 H 0.68765 0.99526 0.59206 0.0
H963 H 0.71775 0.99042 0.62434 0.0
H964 H 0.67031 0.97009 0.54635 0.0
H965 H 0.68129 0.97034 0.50502 0.0
C966 C 0.7071 0.05882 0.21594 0.0
C967 C 0.73975 0.04809 0.22291 0.0
C968 C 0.74883 0.04523 0.16299 0.0
C969 C 0.71485 0.05171 0.15587 0.0
N970 N 0.65994 0.0599 0.1751 0.0
N971 N 0.78959 0.02513 0.20261 0.0
C972 C 0.69347 0.05728 0.18222 0.0
C973 C 0.76018 0.03984 0.19633 0.0
N974 N 0.68954 0.07147 0.24142 0.0
N975 N 0.77042 0.04476 0.13795 0.0
H976 H 0.79845 0.01969 0.22651 0.0
H977 H 0.80358 0.01529 0.18378 0.0
H978 H 0.76301 0.04869 0.11317 0.0
H979 H 0.79623 0.04365 0.1423 0.0
H980 H 0.66703 0.08271 0.23749 0.0
H981 H 0.69897 0.07357 0.26639 0.0
H982 H 0.64255 0.06008 0.19331 0.0
H983 H 0.64904 0.05909 0.15069 0.0
C984 C 0.38942 0.26082 0.55737 0.0
C985 C 0.37805 0.29243 0.5676 0.0
C986 C 0.43472 0.31869 0.56576 0.0
C987 C 0.4467 0.28662 0.55871 0.0
N988 N 0.43681 0.22651 0.55251 0.0
N989 N 0.39025 0.35051 0.5867 0.0
C990 C 0.42441 0.25744 0.55576 0.0
C991 C 0.40085 0.32109 0.57341 0.0
N992 N 0.36673 0.23423 0.54864 0.0
N993 N 0.4554 0.34693 0.56387 0.0
H994 H 0.3655 0.35328 0.5922 0.0
H995 H 0.40641 0.37124 0.5949 0.0
H996 H 0.48026 0.34626 0.55774 0.0
H997 H 0.44714 0.37104 0.56526 0.0
H998 H 0.37311 0.21147 0.53767 0.0
H999 H 0.34096 0.2357 0.55007 0.0
H1000 H 0.42229 0.2042 0.55386 0.0
H1001 H 0.4623 0.22313 0.55108 0.0
C1002 C 0.20858 0.74477 0.08658 0.0
C1003 C 0.23082 0.73902 0.06104 0.0
C1004 C 0.18665 0.70348 0.02861 0.0
C1005 C 0.16317 0.71329 0.05178 0.0
N1006 N 0.15094 0.75089 0.09844 0.0
N1007 N 0.23777 0.71995 0.00353 0.0
C1008 C 0.17385 0.73608 0.07963 0.0
C1009 C 0.21904 0.72029 0.03082 0.0
N1010 N 0.22056 0.75772 0.11774 0.0
N1011 N 0.17846 0.67764 0.00501 0.0
H1012 H 0.26096 0.73328 0.0033 0.0
H1013 H 0.22864 0.70929 0.98003 0.0
H1014 H 0.15563 0.6634 0.00366 0.0
H1015 H 0.19574 0.66807 0.98924 0.0
H1016 H 0.20553 0.75951 0.13795 0.0
H1017 H 0.24606 0.76315 0.1243 0.0
H1018 H 0.15766 0.76992 0.1171 0.0
H1019 H 0.12512 0.74706 0.09295 0.0
C1020 C 0.82124 0.26686 0.43415 0.0
C1021 C 0.80354 0.23625 0.44023 0.0
C1022 C 0.85663 0.21122 0.45383 0.0
C1023 C 0.87412 0.24238 0.44969 0.0
N1024 N 0.87386 0.30113 0.44044 0.0
N1025 N 0.80357 0.18064 0.46026 0.0
C1026 C 0.85664 0.27058 0.44103 0.0
C1027 C 0.821 0.20885 0.4515 0.0
N1028 N 0.80418 0.29236 0.42178 0.0
N1029 N 0.87418 0.1836 0.45883 0.0
H1030 H 0.77754 0.17704 0.45759 0.0
H1031 H 0.81468 0.1616 0.47243 0.0
H1032 H 0.90031 0.18448 0.46127 0.0
H1033 H 0.86311 0.15931 0.45804 0.0
H1034 H 0.81578 0.31371 0.41297 0.0
H1035 H 0.77809 0.29151 0.41861 0.0
H1036 H 0.86241 0.32347 0.43793 0.0
H1037 H 0.89984 0.30465 0.44489 0.0
C1038 C 0.56203 0.73621 0.9978 0.0
C1039 C 0.5749 0.77017 0.99933 0.0
C1040 C 0.51819 0.78904 0.00376 0.0
C1041 C 0.50516 0.75527 0.99828 0.0
N1042 N 0.51339 0.69654 0.98834 0.0
N1043 N 0.56624 0.82923 0.00405 0.0
C1044 C 0.52675 0.72875 0.99516 0.0
C1045 C 0.55323 0.79671 0.00252 0.0
N1046 N 0.58353 0.71112 0.99891 0.0
N1047 N 0.49697 0.8136 0.01065 0.0
H1048 H 0.59192 0.83581 0.00586 0.0
H1049 H 0.5518 0.84977 0.00227 0.0
H1050 H 0.47111 0.8088 0.01121 0.0
H1051 H 0.50492 0.83833 0.01812 0.0
H1052 H 0.576 0.68619 0.00169 0.0
H1053 H 0.60946 0.71547 0.99943 0.0
H1054 H 0.52738 0.67652 0.98157 0.0
H1055 H 0.4877 0.68995 0.98753 0.0
C1056 C 0.60144 0.39247 0.27419 0.0
C1057 C 0.59771 0.37712 0.3047 0.0
C1058 C 0.58472 0.43079 0.33201 0.0
C1059 C 0.5848 0.44499 0.30056 0.0
N1060 N 0.58885 0.4388 0.24075 0.0
N1061 N 0.58225 0.3802 0.36191 0.0
C1062 C 0.59185 0.42563 0.27132 0.0
C1063 C 0.58857 0.39592 0.33354 0.0
N1064 N 0.61565 0.37582 0.24847 0.0
N1065 N 0.58166 0.45079 0.36045 0.0
H1066 H 0.58509 0.35479 0.36395 0.0
H1067 H 0.5719 0.39166 0.38249 0.0
H1068 H 0.57784 0.47627 0.36013 0.0
H1069 H 0.58529 0.44276 0.38451 0.0
H1070 H 0.62208 0.38684 0.22676 0.0
H1071 H 0.62417 0.35192 0.25024 0.0
H1072 H 0.58999 0.42467 0.21818 0.0
H1073 H 0.58249 0.46329 0.23769 0.0
C1074 C 0.09957 0.20392 0.76242 0.0
C1075 C 0.07484 0.22578 0.75244 0.0
C1076 C 0.04689 0.18043 0.71493 0.0
C1077 C 0.06866 0.15746 0.72854 0.0
N1078 N 0.11081 0.14667 0.77175 0.0
N1079 N 0.01941 0.23125 0.72644 0.0
C1080 C 0.09367 0.16897 0.75418 0.0
C1081 C 0.04686 0.21308 0.73072 0.0
N1082 N 0.12922 0.21644 0.77868 0.0
N1083 N 0.02696 0.1716 0.68637 0.0
H1084 H 0.0174 0.25454 0.73904 0.0
H1085 H 0.99731 0.22153 0.71311 0.0
H1086 H 0.02739 0.14844 0.673 0.0
H1087 H 0.0129 0.18868 0.67407 0.0
H1088 H 0.14915 0.20163 0.78367 0.0
H1089 H 0.13532 0.24202 0.78384 0.0
H1090 H 0.12705 0.15395 0.7927 0.0
H1091 H 0.10608 0.12079 0.76779 0.0
C1092 C 0.40755 0.79232 0.19861 0.0
C1093 C 0.38728 0.78814 0.22598 0.0
C1094 C 0.40665 0.84444 0.24952 0.0
C1095 C 0.42203 0.85057 0.21939 0.0
N1096 N 0.43462 0.8313 0.16355 0.0
N1097 N 0.36524 0.81088 0.27653 0.0
C1098 C 0.4221 0.82468 0.19352 0.0
C1099 C 0.38643 0.81427 0.2514 0.0
N1100 N 0.4137 0.76516 0.17806 0.0
N1101 N 0.41197 0.86725 0.27652 0.0
H1102 H 0.35003 0.78914 0.27877 0.0
H1103 H 0.36077 0.83051 0.29361 0.0
H1104 H 0.42724 0.88931 0.27615 0.0
H1105 H 0.40405 0.8628 0.30015 0.0
H1106 H 0.431 0.76608 0.1598 0.0
H1107 H 0.40371 0.74096 0.18121 0.0
H1108 H 0.43236 0.81421 0.1427 0.0
H1109 H 0.44508 0.85478 0.15855 0.0
C1110 C 0.9676 0.57673 0.78452 0.0
C1111 C 0.95183 0.5988 0.76312 0.0
C1112 C 0.93648 0.55194 0.72141 0.0
C1113 C 0.94916 0.52955 0.74429 0.0
N1114 N 0.97134 0.51962 0.79987 0.0
N1115 N 0.91651 0.60687 0.71365 0.0
C1116 C 0.96314 0.54165 0.77653 0.0
C1117 C 0.935 0.58628 0.73215 0.0
N1118 N 0.98822 0.58928 0.81158 0.0
N1119 N 0.92667 0.54053 0.68916 0.0
H1120 H 0.91436 0.63204 0.72098 0.0
H1121 H 0.90087 0.59836 0.69265 0.0
H1122 H 0.92731 0.5155 0.68043 0.0
H1123 H 0.92063 0.55627 0.67035 0.0
H1124 H 0.00313 0.57448 0.8259 0.0
H1125 H 0.99313 0.61486 0.81785 0.0
H1126 H 0.97812 0.52699 0.82491 0.0
H1127 H 0.96853 0.49367 0.795 0.0
C1128 C 0.67223 0.47588 0.63212 0.0
C1129 C 0.70001 0.45853 0.6434 0.0
C1130 C 0.72157 0.45895 0.58772 0.0
C1131 C 0.69058 0.47009 0.57521 0.0
N1132 N 0.63508 0.48716 0.58482 0.0
N1133 N 0.75243 0.43491 0.6333 0.0
C1134 C 0.6657 0.47858 0.59726 0.0
C1135 C 0.72529 0.45074 0.62162 0.0
N1136 N 0.65216 0.48975 0.65468 0.0
N1137 N 0.74736 0.45661 0.56717 0.0
H1138 H 0.75694 0.43083 0.65858 0.0
H1139 H 0.76976 0.42482 0.61796 0.0
H1140 H 0.74534 0.46289 0.5423 0.0
H1141 H 0.77151 0.45134 0.57536 0.0
H1142 H 0.63324 0.50524 0.64818 0.0
H1143 H 0.65669 0.48852 0.6804 0.0
H1144 H 0.61467 0.48959 0.59941 0.0
H1145 H 0.62911 0.48936 0.55941 0.0
C1146 C 0.73508 0.55249 0.18177 0.0
C1147 C 0.77032 0.55972 0.18645 0.0
C1148 C 0.77596 0.54742 0.12653 0.0
C1149 C 0.74051 0.54388 0.12139 0.0
N1150 N 0.68577 0.54523 0.14283 0.0
N1151 N 0.82467 0.56552 0.16409 0.0
C1152 C 0.71987 0.54669 0.14871 0.0
C1153 C 0.79091 0.55751 0.15904 0.0
N1154 N 0.71621 0.55113 0.20894 0.0
N1155 N 0.79522 0.54046 0.10033 0.0
H1156 H 0.83677 0.57118 0.1878 0.0
H1157 H 0.84058 0.56829 0.14482 0.0
H1158 H 0.785 0.53316 0.07616 0.0
H1159 H 0.82112 0.5393 0.10284 0.0
H1160 H 0.69111 0.54231 0.20752 0.0
H1161 H 0.72615 0.55676 0.23348 0.0
H1162 H 0.66937 0.55114 0.16107 0.0
H1163 H 0.67373 0.54003 0.11902 0.0
C1164 C 0.2666 0.06792 0.39017 0.0
C1165 C 0.23963 0.0472 0.37364 0.0
C1166 C 0.22039 0.0321 0.42773 0.0
C1167 C 0.24874 0.05072 0.44416 0.0
N1168 N 0.30246 0.08076 0.44106 0.0
N1169 N 0.1964 0.00272 0.37636 0.0
C1170 C 0.27301 0.06693 0.42536 0.0
C1171 C 0.21811 0.02727 0.39233 0.0
N1172 N 0.28508 0.08966 0.37261 0.0
N1173 N 0.19498 0.02008 0.44578 0.0
H1174 H 0.19501 0.99735 0.35052 0.0
H1175 H 0.18249 0.98533 0.38899 0.0
H1176 H 0.1954 0.02335 0.47181 0.0
H1177 H 0.17213 0.00956 0.43471 0.0
H1178 H 0.30266 0.10788 0.38396 0.0
H1179 H 0.28082 0.09157 0.3469 0.0
H1180 H 0.32251 0.08993 0.42824 0.0
H1181 H 0.30806 0.08027 0.4668 0.0
C1182 C 0.30709 0.95927 0.78165 0.0
C1183 C 0.27572 0.95793 0.76281 0.0
C1184 C 0.24604 0.95965 0.81436 0.0
C1185 C 0.27747 0.96245 0.8332 0.0
N1186 N 0.33756 0.95996 0.83611 0.0
N1187 N 0.21541 0.95045 0.75981 0.0
C1188 C 0.30792 0.9605 0.81719 0.0
C1189 C 0.24515 0.95587 0.77876 0.0
N1190 N 0.33604 0.96015 0.76531 0.0
N1191 N 0.2172 0.96182 0.83064 0.0
H1192 H 0.21387 0.94841 0.73371 0.0
H1193 H 0.1923 0.9458 0.76962 0.0
H1194 H 0.2169 0.96292 0.85669 0.0
H1195 H 0.19367 0.96392 0.81873 0.0
H1196 H 0.35992 0.9653 0.77702 0.0
H1197 H 0.3362 0.95644 0.73933 0.0
H1198 H 0.36037 0.95536 0.82636 0.0
H1199 H 0.33935 0.9624 0.86221 0.0
C1200 C 0.60285 0.72781 0.37725 0.0
C1201 C 0.61905 0.70648 0.35474 0.0
C1202 C 0.58722 0.65746 0.3734 0.0
C1203 C 0.56961 0.67915 0.3942 0.0
N1204 N 0.55508 0.73522 0.41011 0.0
N1205 N 0.62299 0.65181 0.32706 0.0
C1206 C 0.57588 0.7144 0.39454 0.0
C1207 C 0.61031 0.67144 0.35168 0.0
N1208 N 0.61394 0.76077 0.38312 0.0
N1209 N 0.58196 0.62355 0.37463 0.0
H1210 H 0.63984 0.66119 0.31064 0.0
H1211 H 0.61465 0.62692 0.32096 0.0
H1212 H 0.5646 0.61261 0.38965 0.0
H1213 H 0.59636 0.60633 0.36273 0.0
H1214 H 0.60599 0.77638 0.40239 0.0
H1215 H 0.63313 0.77195 0.37055 0.0
H1216 H 0.55603 0.76098 0.40778 0.0
H1217 H 0.53472 0.72656 0.42279 0.0
C1218 C 0.78815 0.27537 0.95279 0.0
C1219 C 0.76888 0.30117 0.96546 0.0
C1220 C 0.81999 0.33764 0.97977 0.0
C1221 C 0.83937 0.3106 0.97059 0.0
N1222 N 0.84278 0.25267 0.95162 0.0
N1223 N 0.76581 0.35572 0.99387 0.0
C1224 C 0.82371 0.2792 0.95771 0.0
C1225 C 0.78462 0.33204 0.97971 0.0
N1226 N 0.77242 0.24726 0.93608 0.0
N1227 N 0.83542 0.36885 0.98776 0.0
H1228 H 0.73974 0.35303 0.99332 0.0
H1229 H 0.77602 0.37706 0.00806 0.0
H1230 H 0.86134 0.37381 0.9881 0.0
H1231 H 0.82252 0.39038 0.99126 0.0
H1232 H 0.78499 0.22918 0.92307 0.0
H1233 H 0.74638 0.24309 0.93314 0.0
H1234 H 0.8328 0.2282 0.94583 0.0
H1235 H 0.8689 0.25458 0.95467 0.0
C1236 C 0.22584 0.75591 0.61037 0.0
C1237 C 0.24043 0.78408 0.63067 0.0
C1238 C 0.19116 0.81518 0.61695 0.0
C1239 C 0.17497 0.78543 0.60054 0.0
N1240 N 0.17484 0.72593 0.58622 0.0
N1241 N 0.23715 0.84025 0.65494 0.0
C1242 C 0.19179 0.75539 0.59833 0.0
C1243 C 0.22327 0.81384 0.63422 0.0
N1244 N 0.24488 0.73004 0.60158 0.0
N1245 N 0.17583 0.8446 0.61572 0.0
H1246 H 0.26069 0.84006 0.66763 0.0
H1247 H 0.22469 0.8615 0.66125 0.0
H1248 H 0.15238 0.84621 0.6032 0.0
H1249 H 0.18712 0.86776 0.62491 0.0
H1250 H 0.23648 0.71053 0.584 0.0
H1251 H 0.27026 0.72975 0.60914 0.0
H1252 H 0.1848 0.70268 0.58779 0.0
H1253 H 0.14974 0.72421 0.57729 0.0
C1254 C 0.40481 0.28648 0.04169 0.0
C1255 C 0.39025 0.2541 0.03062 0.0
C1256 C 0.44589 0.23434 0.02185 0.0
C1257 C 0.46024 0.26716 0.03117 0.0
N1258 N 0.45408 0.32559 0.04554 0.0
N1259 N 0.39569 0.198 0.00677 0.0
C1260 C 0.43988 0.29359 0.03986 0.0
C1261 C 0.41045 0.22829 0.01956 0.0
N1262 N 0.38512 0.31024 0.05427 0.0
N1263 N 0.46629 0.20872 0.01642 0.0
H1264 H 0.37003 0.19169 0.00674 0.0
H1265 H 0.40847 0.17965 0.99443 0.0
H1266 H 0.49236 0.21229 0.017 0.0
H1267 H 0.45776 0.18356 0.01349 0.0
H1268 H 0.39453 0.3331 0.06612 0.0
H1269 H 0.35918 0.30635 0.05479 0.0
H1270 H 0.44038 0.34662 0.04856 0.0
H1271 H 0.47976 0.33154 0.04481 0.0
C1272 C 0.43441 0.60711 0.74588 0.0
C1273 C 0.41798 0.6186 0.71677 0.0
C1274 C 0.42945 0.56712 0.68479 0.0
C1275 C 0.44094 0.55356 0.71486 0.0
N1276 N 0.45078 0.55908 0.77506 0.0
N1277 N 0.39409 0.60672 0.66015 0.0
C1278 C 0.44273 0.57318 0.74574 0.0
C1279 C 0.41418 0.59798 0.68651 0.0
N1280 N 0.44276 0.62876 0.77336 0.0
N1281 N 0.43314 0.55042 0.65458 0.0
H1282 H 0.38098 0.62832 0.66125 0.0
H1283 H 0.38768 0.59089 0.63873 0.0
H1284 H 0.44461 0.52781 0.65247 0.0
H1285 H 0.42793 0.56064 0.63174 0.0
H1286 H 0.45762 0.62257 0.79403 0.0
H1287 H 0.43759 0.65395 0.77423 0.0
H1288 H 0.44863 0.57111 0.79856 0.0
H1289 H 0.45719 0.53435 0.77604 0.0
C1290 C 0.98005 0.76795 0.25274 0.0
C1291 C 0.97603 0.74851 0.28078 0.0
C1292 C 0.97266 0.79979 0.31689 0.0
C1293 C 0.97424 0.81883 0.28836 0.0
N1294 N 0.97192 0.82074 0.22831 0.0
N1295 N 0.96203 0.74509 0.33809 0.0
C1296 C 0.97546 0.80276 0.25599 0.0
C1297 C 0.97038 0.7642 0.31248 0.0
N1298 N 0.99038 0.75369 0.22361 0.0
N1299 N 0.97461 0.81567 0.34824 0.0
H1300 H 0.9598 0.71896 0.33558 0.0
H1301 H 0.95447 0.75504 0.36079 0.0
H1302 H 0.97593 0.84169 0.35244 0.0
H1303 H 0.97747 0.8032 0.37011 0.0
H1304 H 0.9971 0.76744 0.20362 0.0
H1305 H 0.99561 0.7286 0.22054 0.0
H1306 H 0.96912 0.80969 0.20396 0.0
H1307 H 0.96856 0.84637 0.22975 0.0
C1308 C 0.5718 0.19364 0.72609 0.0
C1309 C 0.5834 0.20213 0.75999 0.0
C1310 C 0.57477 0.14343 0.77285 0.0
C1311 C 0.56591 0.1346 0.73842 0.0
N1312 N 0.56067 0.14995 0.68127 0.0
N1313 N 0.59964 0.18539 0.81509 0.0
C1314 C 0.5656 0.15935 0.71473 0.0
C1315 C 0.58613 0.17706 0.7832 0.0
N1316 N 0.56641 0.21836 0.70482 0.0
N1317 N 0.5711 0.11987 0.79577 0.0
H1318 H 0.60684 0.20997 0.82407 0.0
H1319 H 0.60585 0.16782 0.83204 0.0
H1320 H 0.56267 0.09501 0.78912 0.0
H1321 H 0.57367 0.12538 0.82156 0.0
H1322 H 0.55428 0.21403 0.68103 0.0
H1323 H 0.57215 0.24371 0.71166 0.0
H1324 H 0.56394 0.1664 0.66252 0.0
H1325 H 0.55584 0.12507 0.67199 0.0
C1326 C 0.07405 0.3825 0.28699 0.0
C1327 C 0.07791 0.36191 0.25749 0.0
C1328 C 0.0674 0.40909 0.22312 0.0
C1329 C 0.06696 0.43029 0.25279 0.0
N1330 N 0.07406 0.43874 0.31302 0.0
N1331 N 0.08231 0.35598 0.19773 0.0
C1332 C 0.0715 0.41743 0.28475 0.0
C1333 C 0.07552 0.37526 0.22554 0.0
N1334 N 0.07118 0.36843 0.31694 0.0
N1335 N 0.05953 0.42123 0.19273 0.0
H1336 H 0.0886 0.33121 0.19859 0.0
H1337 H 0.08431 0.36517 0.17421 0.0
H1338 H 0.05418 0.44609 0.19009 0.0
H1339 H 0.05583 0.40625 0.17043 0.0
H1340 H 0.06441 0.38152 0.33846 0.0
H1341 H 0.07253 0.34287 0.31974 0.0
H1342 H 0.08141 0.43145 0.33669 0.0
H1343 H 0.07133 0.46441 0.31259 0.0
C1344 C 0.46289 0.57246 0.29239 0.0
C1345 C 0.44039 0.55007 0.2719 0.0
C1346 C 0.48797 0.51987 0.25401 0.0
C1347 C 0.50869 0.53691 0.28086 0.0
N1348 N 0.5134 0.57726 0.32897 0.0
N1349 N 0.43121 0.50206 0.23238 0.0
C1350 C 0.49571 0.56302 0.30077 0.0
C1351 C 0.45288 0.52372 0.25224 0.0
N1352 N 0.45298 0.60278 0.30359 0.0
N1353 N 0.50191 0.50078 0.22985 0.0
H1354 H 0.40561 0.50546 0.22921 0.0
H1355 H 0.43843 0.48007 0.22046 0.0
H1356 H 0.52773 0.49885 0.22947 0.0
H1357 H 0.48832 0.48996 0.20838 0.0
H1358 H 0.4693 0.62119 0.31661 0.0
H1359 H 0.42965 0.61074 0.29591 0.0
H1360 H 0.50346 0.59442 0.34559 0.0
H1361 H 0.53645 0.56943 0.33773 0.0
C1362 C 0.05913 0.42538 0.68591 0.0
C1363 C 0.0716 0.40355 0.70955 0.0
C1364 C 0.0195 0.40492 0.73814 0.0
C1365 C 0.00659 0.426 0.71407 0.0
N1366 N 0.01024 0.44892 0.66027 0.0
N1367 N 0.05976 0.36442 0.75105 0.0
C1368 C 0.02516 0.43373 0.6863 0.0
C1369 C 0.05043 0.39066 0.73332 0.0
N1370 N 0.08006 0.43987 0.66459 0.0
N1371 N 0.00347 0.40013 0.76669 0.0
H1372 H 0.08208 0.353 0.74769 0.0
H1373 H 0.04373 0.35175 0.76613 0.0
H1374 H 0.98109 0.41066 0.77181 0.0
H1375 H 0.01398 0.38817 0.78671 0.0
H1376 H 0.07321 0.45895 0.64965 0.0
H1377 H 0.10515 0.43478 0.66358 0.0
H1378 H 0.02144 0.45235 0.63792 0.0
H1379 H 0.98532 0.45513 0.6598 0.0
C1380 C 0.94275 0.03378 0.67069 0.0
C1381 C 0.92997 0.0205 0.69966 0.0
C1382 C 0.98329 0.03701 0.73194 0.0
C1383 C 0.99528 0.052 0.70353 0.0
N1384 N 0.98558 0.06906 0.64737 0.0
N1385 N 0.93571 0.01252 0.7587 0.0
C1386 C 0.97481 0.0515 0.67326 0.0
C1387 C 0.94957 0.02304 0.7306 0.0
N1388 N 0.9243 0.02923 0.6406 0.0
N1389 N 0.0045 0.03545 0.75985 0.0
H1390 H 0.91148 0.0012 0.75829 0.0
H1391 H 0.94725 0.01683 0.78274 0.0
H1392 H 0.02916 0.04587 0.76175 0.0
H1393 H 0.99862 0.02193 0.78021 0.0
H1394 H 0.93381 0.03437 0.61781 0.0
H1395 H 0.8998 0.01842 0.63793 0.0
H1396 H 0.97041 0.07318 0.62619 0.0
H1397 H 0.00922 0.08172 0.64793 0.0
C1398 C 0.57558 0.92119 0.22248 0.0
C1399 C 0.5851 0.95597 0.22764 0.0
C1400 C 0.53206 0.96797 0.19862 0.0
C1401 C 0.51943 0.93475 0.20268 0.0
N1402 N 0.53832 0.88007 0.18956 0.0
N1403 N 0.57296 0.01311 0.2182 0.0
C1404 C 0.54366 0.91082 0.20637 0.0
C1405 C 0.5638 0.97959 0.21442 0.0
N1406 N 0.59681 0.89803 0.23279 0.0
N1407 N 0.51598 0.98661 0.17618 0.0
H1408 H 0.59592 0.02284 0.22975 0.0
H1409 H 0.55659 0.03126 0.21196 0.0
H1410 H 0.49521 0.97645 0.16088 0.0
H1411 H 0.52568 0.00992 0.16982 0.0
H1412 H 0.58937 0.87261 0.23266 0.0
H1413 H 0.6212 0.90446 0.24293 0.0
H1414 H 0.5564 0.86253 0.1888 0.0
H1415 H 0.51747 0.87435 0.17264 0.0
C1416 C 0.25424 0.4323 0.57071 0.0
C1417 C 0.28082 0.41094 0.56699 0.0
C1418 C 0.31175 0.45321 0.53741 0.0
C1419 C 0.28484 0.47425 0.54024 0.0
N1420 N 0.22758 0.48136 0.55271 0.0
N1421 N 0.32977 0.39684 0.53858 0.0
C1422 C 0.25507 0.46292 0.55464 0.0
C1423 C 0.308 0.42011 0.54772 0.0
N1424 N 0.22946 0.42451 0.59135 0.0
N1425 N 0.34146 0.4653 0.52637 0.0
H1426 H 0.32693 0.37194 0.54461 0.0
H1427 H 0.34833 0.4012 0.52205 0.0
H1428 H 0.3453 0.48945 0.51848 0.0
H1429 H 0.36317 0.45235 0.52762 0.0
H1430 H 0.21173 0.44103 0.59827 0.0
H1431 H 0.22808 0.40242 0.60369 0.0
H1432 H 0.20414 0.47288 0.55982 0.0
H1433 H 0.22745 0.50396 0.5412 0.0
C1434 C 0.27586 0.55848 0.01298 0.0
C1435 C 0.2481 0.57865 0.01456 0.0
C1436 C 0.21158 0.53286 0.98543 0.0
C1437 C 0.24011 0.51443 0.9806 0.0
N1438 N 0.30018 0.51156 0.9849 0.0
N1439 N 0.1902 0.58692 0.99852 0.0
C1440 C 0.27251 0.52779 0.99297 0.0
C1441 C 0.21604 0.56631 -0.0001 0.0
N1442 N 0.30494 0.56787 0.03194 0.0
N1443 N 0.18018 0.51808 0.97694 0.0
H1444 H 0.19227 0.61144 0.00906 0.0
H1445 H 0.1675 0.58064 0.98469 0.0
H1446 H 0.17596 0.49374 0.96592 0.0
H1447 H 0.15829 0.52886 0.98326 0.0
H1448 H 0.32492 0.55263 0.03433 0.0
H1449 H 0.3077 0.58935 0.04824 0.0
H1450 H 0.32461 0.52197 0.99015 0.0
H1451 H 0.29876 0.48892 0.97033 0.0
C1452 C 0.6849 0.09292 0.43028 0.0
C1453 C 0.70494 0.10642 0.40575 0.0
C1454 C 0.73324 0.05436 0.40032 0.0
C1455 C 0.71215 0.04011 0.42342 0.0
N1456 N 0.66231 0.0427 0.45383 0.0
N1457 N 0.73977 0.09596 0.3599 0.0
C1458 C 0.68604 0.05838 0.4362 0.0
C1459 C 0.72633 0.08575 0.38829 0.0
N1460 N 0.66654 0.11323 0.44948 0.0
N1461 N 0.76126 0.03921 0.39152 0.0
H1462 H 0.73427 0.11843 0.34972 0.0
H1463 H 0.75309 0.08041 0.34459 0.0
H1464 H 0.76815 0.01666 0.40048 0.0
H1465 H 0.77959 0.05108 0.37833 0.0
H1466 H 0.65468 0.10529 0.47022 0.0
H1467 H 0.66528 0.13874 0.44655 0.0
H1468 H 0.64095 0.05394 0.46108 0.0
H1469 H 0.66234 0.01735 0.45832 0.0
C1470 C 0.69809 0.94554 0.00574 0.0
C1471 C 0.67214 0.9221 0.01351 0.0
C1472 C 0.65229 0.96359 0.05389 0.0
C1473 C 0.67982 0.98601 0.04817 0.0
N1474 N 0.73213 0.9968 0.02296 0.0
N1475 N 0.62921 0.90608 0.05009 0.0
C1476 C 0.70368 0.97657 0.02529 0.0
C1477 C 0.65046 0.93038 0.03898 0.0
N1478 N 0.71654 0.93871 0.97894 0.0
N1479 N 0.62749 0.97427 0.073 0.0
H1480 H 0.628 0.88112 0.04072 0.0
H1481 H 0.61533 0.90983 0.07091 0.0
H1482 H 0.628 0.99845 0.08444 0.0
H1483 H 0.60503 0.9602 0.07509 0.0
H1484 H 0.73328 0.95627 0.96978 0.0
H1485 H 0.71319 0.91627 0.96405 0.0
H1486 H 0.75218 0.98962 0.00954 0.0
H1487 H 0.73692 0.01986 0.03662 0.0
C1488 C 0.57935 0.24807 0.44769 0.0
C1489 C 0.57342 0.27294 0.42485 0.0
C1490 C 0.53808 0.30104 0.46375 0.0
C1491 C 0.54305 0.27575 0.48635 0.0
N1492 N 0.5617 0.22114 0.49673 0.0
N1493 N 0.53883 0.31601 0.40637 0.0
C1494 C 0.5615 0.24786 0.47726 0.0
C1495 C 0.55004 0.29714 0.43139 0.0
N1496 N 0.60343 0.22609 0.44232 0.0
N1497 N 0.52378 0.32975 0.47375 0.0
H1498 H 0.54599 0.3125 0.3819 0.0
H1499 H 0.51965 0.33215 0.40891 0.0
H1500 H 0.51551 0.33428 0.49763 0.0
H1501 H 0.5231 0.35048 0.4594 0.0
H1502 H 0.61174 0.21017 0.46012 0.0
H1503 H 0.61686 0.22536 0.4209 0.0
H1504 H 0.57209 0.1988 0.48979 0.0
H1505 H 0.54876 0.2202 0.51845 0.0
C1506 C 0.01769 0.24354 0.56966 0.0
C1507 C 0.01525 0.27467 0.58807 0.0
C1508 C 0.97879 0.29321 0.54242 0.0
C1509 C 0.97906 0.26113 0.52535 0.0
N1510 N 0.99312 0.20357 0.52547 0.0
N1511 N 0.98756 0.32613 0.59541 0.0
C1512 C 0.99679 0.23559 0.53985 0.0
C1513 C 0.99414 0.29872 0.57543 0.0
N1514 N 0.04111 0.22226 0.57968 0.0
N1515 N 0.96487 0.31876 0.52673 0.0
H1516 H 0.99749 0.33064 0.6201 0.0
H1517 H 0.96964 0.34262 0.58869 0.0
H1518 H 0.95329 0.31577 0.50256 0.0
H1519 H 0.96729 0.34357 0.53655 0.0
H1520 H 0.0464 0.20092 0.56529 0.0
H1521 H 0.05761 0.22748 0.60084 0.0
H1522 H 0.00261 0.1832 0.5368 0.0
H1523 H 0.97792 0.19681 0.50364 0.0
C1524 C 0.36751 0.74761 0.09279 0.0
C1525 C 0.35428 0.71446 0.0971 0.0
C1526 C 0.38333 0.69315 0.04902 0.0
C1527 C 0.39394 0.72651 0.043 0.0
N1528 N 0.39327 0.78599 0.05596 0.0
N1529 N 0.34519 0.65647 0.07669 0.0
C1530 C 0.38513 0.75393 0.06397 0.0
C1531 C 0.36109 0.68739 0.07457 0.0
N1532 N 0.3644 0.77277 0.11688 0.0
N1533 N 0.39529 0.66697 0.03089 0.0
H1534 H 0.32822 0.65138 0.09465 0.0
H1535 H 0.34651 0.63662 0.05889 0.0
H1536 H 0.41134 0.67027 0.01173 0.0
H1537 H 0.39158 0.64208 0.03654 0.0
H1538 H 0.37602 0.79672 0.11673 0.0
H1539 H 0.35258 0.76922 0.13887 0.0
H1540 H 0.38547 0.80727 0.06859 0.0
H1541 H 0.40616 0.79155 0.03502 0.0
C1542 C 0.0149 0.72372 0.94473 0.0
C1543 C 0.01399 0.69665 0.92001 0.0
C1544 C 0.05786 0.67042 0.95265 0.0
C1545 C 0.05602 0.69549 0.97897 0.0
N1546 N 0.0335 0.74589 0.00125 0.0
N1547 N 0.03466 0.64478 0.89887 0.0
C1548 C 0.03496 0.72234 0.9752 0.0
C1549 C 0.03572 0.67027 0.92343 0.0
N1550 N 0.99657 0.75063 0.93897 0.0
N1551 N 0.08102 0.64696 0.9556 0.0
H1552 H 0.02091 0.64521 0.87592 0.0
H1553 H 0.04645 0.62262 0.90131 0.0
H1554 H 0.09669 0.64547 0.97717 0.0
H1555 H 0.08634 0.63006 0.93621 0.0
H1556 H 0.99839 0.77269 0.95432 0.0
H1557 H 0.98083 0.75187 0.91739 0.0
H1558 H 0.01607 0.764 0.00195 0.0
H1559 H 0.04901 0.74651 0.02324 0.0
C1560 C 0.56223 0.45184 0.7649 0.0
C1561 C 0.58422 0.45108 0.73865 0.0
C1562 C 0.53759 0.45688 0.69726 0.0
C1563 C 0.51572 0.45885 0.72361 0.0
N1564 N 0.50472 0.45104 0.781 0.0
N1565 N 0.59245 0.44387 0.6798 0.0
C1566 C 0.52727 0.45378 0.75699 0.0
C1567 C 0.57169 0.45073 0.70473 0.0
N1568 N 0.57504 0.45241 0.79739 0.0
N1569 N 0.52593 0.4621 0.66534 0.0
H1570 H 0.61714 0.43778 0.68475 0.0
H1571 H 0.58457 0.44076 0.65448 0.0
H1572 H 0.50074 0.46517 0.65877 0.0
H1573 H 0.5413 0.46502 0.64564 0.0
H1574 H 0.5611 0.45685 0.81802 0.0
H1575 H 0.60038 0.44993 0.8038 0.0
H1576 H 0.51088 0.44441 0.80517 0.0
H1577 H 0.47906 0.45289 0.77596 0.0
C1578 C 0.94186 0.54947 0.2387 0.0
C1579 C 0.9259 0.53976 0.26751 0.0
C1580 C 0.97894 0.52099 0.29082 0.0
C1581 C 0.99313 0.5255 0.25979 0.0
N1582 N 0.98759 0.5416 0.20288 0.0
N1583 N 0.92813 0.5124 0.31948 0.0
C1584 C 0.97457 0.53937 0.2334 0.0
C1585 C 0.9442 0.52484 0.29343 0.0
N1586 N 0.92595 0.56898 0.21683 0.0
N1587 N 0.99882 0.51339 0.3179 0.0
H1588 H 0.90258 0.51402 0.32217 0.0
H1589 H 0.93953 0.49784 0.33692 0.0
H1590 H 0.02448 0.51072 0.31694 0.0
H1591 H 0.99061 0.51303 0.342 0.0
H1592 H 0.93717 0.57899 0.1967 0.0
H1593 H 0.9025 0.5779 0.22065 0.0
H1594 H 0.97386 0.54809 0.18162 0.0
H1595 H 0.0115 0.53454 0.19806 0.0
C1596 C 0.09278 0.96106 0.31175 0.0
C1597 C 0.10453 0.96366 0.27929 0.0
C1598 C 0.05358 0.93194 0.2544 0.0
C1599 C 0.04349 0.92678 0.28706 0.0
N1600 N 0.05558 0.93156 0.34691 0.0
N1601 N 0.09875 0.94821 0.22001 0.0
C1602 C 0.06375 0.93989 0.31579 0.0
C1603 C 0.0856 0.94826 0.25062 0.0
N1604 N 0.1084 0.98014 0.33853 0.0
N1605 N 0.03219 0.92198 0.22709 0.0
H1606 H 0.12206 0.96005 0.21634 0.0
H1607 H 0.08786 0.93433 0.19876 0.0
H1608 H 0.00881 0.90941 0.22889 0.0
H1609 H 0.03645 0.92828 0.20288 0.0
H1610 H 0.09894 0.98191 0.36211 0.0
H1611 H 0.12907 0.9969 0.33652 0.0
H1612 H 0.07139 0.93722 0.36847 0.0
H1613 H 0.03418 0.91648 0.35091 0.0
C1614 C 0.43153 0.00707 0.71255 0.0
C1615 C 0.41259 0.02254 0.6875 0.0
C1616 C 0.46434 0.05094 0.67086 0.0
C1617 C 0.48201 0.04 0.69954 0.0
N1618 N 0.48129 0.01103 0.75047 0.0
N1619 N 0.4104 0.06182 0.64437 0.0
C1620 C 0.46539 0.01876 0.72106 0.0
C1621 C 0.42885 0.04491 0.66672 0.0
N1622 N 0.41736 0.98055 0.72759 0.0
N1623 N 0.48158 0.06672 0.64739 0.0
H1624 H 0.38439 0.05831 0.64063 0.0
H1625 H 0.4206 0.08126 0.63138 0.0
H1626 H 0.5076 0.07127 0.64957 0.0
H1627 H 0.47055 0.07239 0.6244 0.0
H1628 H 0.43084 0.96635 0.74389 0.0
H1629 H 0.39305 0.97039 0.7208 0.0
H1630 H 0.46903 0.99875 0.76878 0.0
H1631 H 0.50597 0.01942 0.75803 0.0
C1632 C 0.64084 0.5767 0.45386 0.0
C1633 C 0.67114 0.59306 0.44494 0.0
C1634 C 0.70201 0.54472 0.46025 0.0
C1635 C 0.67199 0.52922 0.47068 0.0
N1636 N 0.61229 0.53077 0.47741 0.0
N1637 N 0.73155 0.59586 0.44572 0.0
C1638 C 0.64149 0.5452 0.46763 0.0
C1639 C 0.70202 0.57786 0.44963 0.0
N1640 N 0.61098 0.59093 0.44897 0.0
N1641 N 0.73035 0.52746 0.45994 0.0
H1642 H 0.73272 0.62061 0.43915 0.0
H1643 H 0.75506 0.58755 0.45205 0.0
H1644 H 0.73146 0.50343 0.46825 0.0
H1645 H 0.75196 0.53573 0.44897 0.0
H1646 H 0.58826 0.57939 0.45508 0.0
H1647 H 0.60875 0.61384 0.43855 0.0
H1648 H 0.61013 0.50756 0.48758 0.0
H1649 H 0.61013 0.50756 0.48758 0.0
C1650 C 0.69911 0.42394 0.98477 0.0
C1651 C 0.67081 0.40632 0.99661 0.0
C1652 C 0.65856 0.45667 0.03042 0.0
C1653 C 0.68904 0.47285 0.02173 0.0
N1654 N 0.74056 0.47101 0.99395 0.0
N1655 N 0.62453 0.40445 0.03204 0.0
C1656 C 0.70979 0.45639 0.99952 0.0
C1657 C 0.6507 0.42232 0.01977 0.0
N1658 N 0.71591 0.40963 0.95952 0.0
N1659 N 0.6369 0.47442 0.04833 0.0
H1660 H 0.6172 0.37972 0.02361 0.0
H1661 H 0.61125 0.41336 0.05183 0.0
H1662 H 0.64194 0.49961 0.05647 0.0
H1663 H 0.61284 0.46517 0.0528 0.0
H1664 H 0.73427 0.42263 0.94728 0.0
H1665 H 0.70995 0.38539 0.94891 0.0
H1666 H 0.75862 0.4586 0.98147 0.0
H1667 H 0.74925 0.49487 0.00406 0.0
C1668 C 0.24725 0.94725 0.57401 0.0
C1669 C 0.2809 0.94144 0.584 0.0
C1670 C 0.29989 0.99707 0.56776 0.0
C1671 C 0.26686 0.00127 0.55443 0.0
N1672 N 0.20911 0.98051 0.54313 0.0
N1673 N 0.33989 0.95887 0.58793 0.0
C1674 C 0.2405 0.97641 0.55716 0.0
C1675 C 0.30739 0.96601 0.58063 0.0
N1676 N 0.22166 0.92559 0.58203 0.0
N1677 N 0.3241 0.02277 0.56798 0.0
H1678 H 0.34647 0.93628 0.59709 0.0
H1679 H 0.36059 0.97413 0.58258 0.0
H1680 H 0.3201 0.04515 0.55702 0.0
H1681 H 0.34747 0.02296 0.58099 0.0
H1682 H 0.19642 0.93016 0.57878 0.0
H1683 H 0.22564 0.90422 0.5948 0.0
H1684 H 0.18986 0.96161 0.5404 0.0
H1685 H 0.20262 0.00252 0.53262 0.0
C1686 C 0.31232 0.09664 0.95801 0.0
C1687 C 0.28391 0.11541 0.95243 0.0
C1688 C 0.25136 0.06455 0.92863 0.0
C1689 C 0.28104 0.04707 0.93012 0.0
N1690 N 0.34111 0.04786 0.94104 0.0
N1691 N 0.22725 0.11849 0.92898 0.0
C1692 C 0.31192 0.06346 0.94345 0.0
C1693 C 0.2535 0.09969 0.93701 0.0
N1694 N 0.33927 0.1101 0.97828 0.0
N1695 N 0.2211 0.04744 0.91984 0.0
H1696 H 0.22791 0.14429 0.9346 0.0
H1697 H 0.20585 0.10901 0.91441 0.0
H1698 H 0.21868 0.0217 0.91348 0.0
H1699 H 0.19822 0.05813 0.92161 0.0
H1700 H 0.35925 0.09635 0.98588 0.0
H1701 H 0.34002 0.13395 0.99049 0.0
H1702 H 0.36471 0.06007 0.94702 0.0
H1703 H 0.34209 0.02364 0.93015 0.0
C1704 C 0.51814 0.63238 0.55639 0.0
C1705 C 0.50903 0.66284 0.57216 0.0
C1706 C 0.51495 0.69079 0.52015 0.0
C1707 C 0.51965 0.65938 0.50331 0.0
N1708 N 0.52561 0.60011 0.50425 0.0
N1709 N 0.49622 0.72059 0.56925 0.0
C1710 C 0.52159 0.63013 0.5212 0.0
C1711 C 0.50722 0.69209 0.55423 0.0
N1712 N 0.52381 0.60585 0.57526 0.0
N1713 N 0.51777 0.71937 0.50343 0.0
H1714 H 0.4908 0.72283 0.59434 0.0
H1715 H 0.4902 0.74137 0.55641 0.0
H1716 H 0.52248 0.71927 0.47821 0.0
H1717 H 0.51827 0.7434 0.51506 0.0
H1718 H 0.53341 0.58383 0.56609 0.0
H1719 H 0.52124 0.60684 0.60103 0.0
H1720 H 0.52347 0.57713 0.51484 0.0
H1721 H 0.52971 0.59802 0.47879 0.0
C1722 C 0.06024 0.78662 0.45357 0.0
C1723 C 0.06123 0.7533 0.43952 0.0
C1724 C 0.08564 0.73602 0.4927 0.0
C1725 C 0.08557 0.76951 0.50661 0.0
N1726 N 0.07848 0.82783 0.49941 0.0
N1727 N 0.08172 0.69833 0.44264 0.0
C1728 C 0.07468 0.79523 0.48669 0.0
C1729 C 0.07598 0.7286 0.45821 0.0
N1730 N 0.04423 0.80958 0.4358 0.0
N1731 N 0.09386 0.71106 0.51274 0.0
H1732 H 0.0753 0.69213 0.41726 0.0
H1733 H 0.09563 0.68057 0.45394 0.0
H1734 H 0.10206 0.71549 0.53791 0.0
H1735 H 0.09032 0.68568 0.50512 0.0
H1736 H 0.03929 0.83319 0.44586 0.0
H1737 H 0.03387 0.80426 0.41134 0.0
H1738 H 0.07422 0.84815 0.48522 0.0
H1739 H 0.08842 0.83477 0.52376 0.0
C1740 C 0.5852 0.26783 0.92355 0.0
C1741 C 0.58731 0.30062 0.91192 0.0
C1742 C 0.56823 0.32362 0.96503 0.0
C1743 C 0.56679 0.29093 0.97671 0.0
N1744 N 0.5803 0.23327 0.9706 0.0
N1745 N 0.58631 0.36033 0.9228 0.0
C1746 C 0.57767 0.26355 0.95717 0.0
C1747 C 0.58044 0.32875 0.93308 0.0
N1748 N 0.58769 0.2405 0.9018 0.0
N1749 N 0.5571 0.3495 0.98425 0.0
H1750 H 0.59554 0.36486 0.89967 0.0
H1751 H 0.5849 0.38211 0.93808 0.0
H1752 H 0.54989 0.34695 0.00854 0.0
H1753 H 0.55367 0.37313 0.97585 0.0
H1754 H 0.58252 0.21591 0.90782 0.0
H1755 H 0.59182 0.24214 0.87657 0.0
H1756 H 0.59169 0.21342 0.95903 0.0
H1757 H 0.57359 0.22878 0.99467 0.0
C1758 C 0.97207 0.34349 0.09967 0.0
C1759 C 0.97488 0.31179 0.11306 0.0
C1760 C 0.94578 0.28386 0.06214 0.0
C1761 C 0.94133 0.31564 0.0496 0.0
N1762 N 0.9445 0.37584 0.05826 0.0
N1763 N 0.95853 0.25265 0.11055 0.0
C1764 C 0.95268 0.34554 0.069 0.0
C1765 C 0.96004 0.28218 0.09528 0.0
N1766 N 0.98931 0.37135 0.11532 0.0
N1767 N 0.93733 0.2553 0.042 0.0
H1768 H 0.96819 0.25057 0.13506 0.0
H1769 H 0.94498 0.23097 0.1002 0.0
H1770 H 0.92622 0.25546 0.01775 0.0
H1771 H 0.9436 0.23161 0.04832 0.0
H1772 H 0.9913 0.39442 0.10483 0.0
H1773 H 0.00404 0.37091 0.13767 0.0
H1774 H 0.94892 0.39829 0.07292 0.0
H1775 H 0.93072 0.37825 0.03566 0.0
loop_
_geom_bond_atom_site_label_1
_geom_bond_atom_site_label_2
_geom_bond_distance
_geom_bond_site_symmetry_2
_ccdc_geom_bond_type
O0 Cd1 2.300 . S
O0 C7 1.275 . S
Cd1 O0 2.300 . S
Cd1 O9 2.381 . S
Cd1 O10 2.378 . S
O2 Cd3 2.385 . S
O2 C7 1.255 . S
Cd3 O2 2.385 . S
Cd3 O4 2.317 . S
O4 Cd3 2.317 . S
O4 C5 1.232 . S
C5 O4 1.232 . S
C5 O6 1.218 . S
O6 C5 1.218 . S
C7 O0 1.275 . S
C7 O2 1.255 . S
C8 O9 1.258 . S
C8 O10 1.256 . S
O9 Cd1 2.381 . S
O9 C8 1.258 . S
O10 Cd1 2.378 . S
O10 C8 1.256 . S
O11 Cd12 2.300 . S
O11 C18 1.275 . S
Cd12 O11 2.300 . S
Cd12 O20 2.381 . S
Cd12 O21 2.378 . S
O13 Cd14 2.385 . S
O13 C18 1.255 . S
Cd14 O13 2.385 . S
Cd14 O15 2.317 . S
O15 Cd14 2.317 . S
O15 C16 1.232 . S
C16 O15 1.232 . S
C16 O17 1.218 . S
O17 C16 1.218 . S
C18 O11 1.275 . S
C18 O13 1.255 . S
C19 O20 1.258 . S
C19 O21 1.256 . S
O20 Cd12 2.381 . S
O20 C19 1.258 . S
O21 Cd12 2.378 . S
O21 C19 1.256 . S
O22 Cd23 2.300 . S
O22 C29 1.275 . S
Cd23 O22 2.300 . S
Cd23 O31 2.381 1_565 S
Cd23 O32 2.378 . S
O24 Cd25 2.385 . S
O24 C29 1.255 . S
Cd25 O24 2.385 . S
Cd25 O26 2.317 . S
O26 Cd25 2.317 . S
O26 C27 1.232 . S
C27 O26 1.232 . S
C27 O28 1.218 . S
O28 C27 1.218 . S
C29 O22 1.275 . S
C29 O24 1.255 . S
C30 O31 1.258 . S
C30 O32 1.256 1_545 S
O31 Cd23 2.381 1_545 S
O31 C30 1.258 . S
O32 Cd23 2.378 . S
O32 C30 1.256 1_565 S
O33 Cd34 2.300 . S
O33 C40 1.275 . S
Cd34 O33 2.300 . S
Cd34 O42 2.381 1_545 S
Cd34 O43 2.378 . S
O35 Cd36 2.385 . S
O35 C40 1.255 . S
Cd36 O35 2.385 . S
Cd36 O37 2.317 . S
O37 Cd36 2.317 . S
O37 C38 1.232 . S
C38 O37 1.232 . S
C38 O39 1.218 . S
O39 C38 1.218 . S
C40 O33 1.275 . S
C40 O35 1.255 . S
C41 O42 1.258 . S
C41 O43 1.256 1_565 S
O42 Cd34 2.381 1_565 S
O42 C41 1.258 . S
O43 Cd34 2.378 . S
O43 C41 1.256 1_545 S
O44 Cd45 2.300 . S
O44 C51 1.275 . S
Cd45 O44 2.300 . S
Cd45 O53 2.381 . S
Cd45 O54 2.378 . S
O46 Cd47 2.385 . S
O46 C51 1.255 . S
Cd47 O46 2.385 . S
Cd47 O48 2.317 . S
O48 Cd47 2.317 . S
O48 C49 1.232 . S
C49 O48 1.232 . S
C49 O50 1.218 . S
O50 C49 1.218 . S
C51 O44 1.275 . S
C51 O46 1.255 . S
C52 O53 1.258 . S
C52 O54 1.256 . S
O53 Cd45 2.381 . S
O53 C52 1.258 . S
O54 Cd45 2.378 . S
O54 C52 1.256 . S
O55 Cd56 2.300 . S
O55 C62 1.275 . S
Cd56 O55 2.300 . S
Cd56 O64 2.381 1_554 S
Cd56 O65 2.378 . S
O57 Cd58 2.385 . S
O57 C62 1.255 . S
Cd58 O57 2.385 . S
Cd58 O59 2.317 . S
O59 Cd58 2.317 . S
O59 C60 1.232 . S
C60 O59 1.232 . S
C60 O61 1.218 . S
O61 C60 1.218 . S
C62 O55 1.275 . S
C62 O57 1.255 . S
C63 O64 1.258 . S
C63 O65 1.256 1_556 S
O64 Cd56 2.381 1_556 S
O64 C63 1.258 . S
O65 Cd56 2.378 . S
O65 C63 1.256 1_554 S
O66 Cd67 2.300 . S
O66 C73 1.275 . S
Cd67 O66 2.300 . S
Cd67 O75 2.381 . S
Cd67 O76 2.378 . S
O68 Cd69 2.385 . S
O68 C73 1.255 . S
Cd69 O68 2.385 . S
Cd69 O70 2.317 . S
O70 Cd69 2.317 . S
O70 C71 1.232 . S
C71 O70 1.232 . S
C71 O72 1.218 . S
O72 C71 1.218 . S
C73 O66 1.275 . S
C73 O68 1.255 . S
C74 O75 1.258 . S
C74 O76 1.256 . S
O75 Cd67 2.381 . S
O75 C74 1.258 . S
O76 Cd67 2.378 . S
O76 C74 1.256 . S
O77 Cd78 2.300 . S
O77 C84 1.275 . S
Cd78 O77 2.300 . S
Cd78 O86 2.381 1_556 S
Cd78 O87 2.378 . S
O79 Cd80 2.385 . S
O79 C84 1.255 . S
Cd80 O79 2.385 . S
Cd80 O81 2.317 . S
O81 Cd80 2.317 . S
O81 C82 1.232 . S
C82 O81 1.232 . S
C82 O83 1.218 . S
O83 C82 1.218 . S
C84 O77 1.275 . S
C84 O79 1.255 . S
C85 O86 1.258 . S
C85 O87 1.256 1_554 S
O86 Cd78 2.381 1_554 S
O86 C85 1.258 . S
O87 Cd78 2.378 . S
O87 C85 1.256 1_556 S
O88 Cd89 2.300 . S
O88 C95 1.275 . S
Cd89 O88 2.300 . S
Cd89 O97 2.381 . S
Cd89 O98 2.378 . S
O90 Cd91 2.385 . S
O90 C95 1.255 . S
Cd91 O90 2.385 . S
Cd91 O92 2.317 . S
O92 Cd91 2.317 . S
O92 C93 1.232 . S
C93 O92 1.232 . S
C93 O94 1.218 . S
O94 C93 1.218 . S
C95 O88 1.275 . S
C95 O90 1.255 . S
C96 O97 1.258 . S
C96 O98 1.256 . S
O97 Cd89 2.381 . S
O97 C96 1.258 . S
O98 Cd89 2.378 . S
O98 C96 1.256 . S
O99 Cd100 2.300 . S
O99 C106 1.275 . S
Cd100 O99 2.300 . S
Cd100 O108 2.381 1_455 S
Cd100 O109 2.378 . S
O101 Cd102 2.385 . S
O101 C106 1.255 . S
Cd102 O101 2.385 . S
Cd102 O103 2.317 . S
O103 Cd102 2.317 . S
O103 C104 1.232 . S
C104 O103 1.232 . S
C104 O105 1.218 . S
O105 C104 1.218 . S
C106 O99 1.275 . S
C106 O101 1.255 . S
C107 O108 1.258 . S
C107 O109 1.256 1_655 S
O108 Cd100 2.381 1_655 S
O108 C107 1.258 . S
O109 Cd100 2.378 . S
O109 C107 1.256 1_455 S
O110 Cd111 2.300 . S
O110 C117 1.275 . S
Cd111 O110 2.300 . S
Cd111 O119 2.381 . S
Cd111 O120 2.378 . S
O112 Cd113 2.385 . S
O112 C117 1.255 . S
Cd113 O112 2.385 . S
Cd113 O114 2.317 . S
O114 Cd113 2.317 . S
O114 C115 1.232 . S
C115 O114 1.232 . S
C115 O116 1.218 . S
O116 C115 1.218 . S
C117 O110 1.275 . S
C117 O112 1.255 . S
C118 O119 1.258 . S
C118 O120 1.256 . S
O119 Cd111 2.381 . S
O119 C118 1.258 . S
O120 Cd111 2.378 . S
O120 C118 1.256 . S
O121 Cd122 2.300 . S
O121 C128 1.275 . S
Cd122 O121 2.300 . S
Cd122 O130 2.381 1_655 S
Cd122 O131 2.378 . S
O123 Cd124 2.385 . S
O123 C128 1.255 . S
Cd124 O123 2.385 . S
Cd124 O125 2.317 . S
O125 Cd124 2.317 . S
O125 C126 1.232 . S
C126 O125 1.232 . S
C126 O127 1.218 . S
O127 C126 1.218 . S
C128 O121 1.275 . S
C128 O123 1.255 . S
C129 O130 1.258 . S
C129 O131 1.256 1_455 S
O130 Cd122 2.381 1_455 S
O130 C129 1.258 . S
O131 Cd122 2.378 . S
O131 C129 1.256 1_655 S
O132 Cd133 2.300 . S
O132 C139 1.275 . S
Cd133 O132 2.300 . S
Cd133 O141 2.381 . S
Cd133 O142 2.378 . S
O134 Cd135 2.385 . S
O134 C139 1.255 . S
Cd135 O134 2.385 . S
Cd135 O136 2.317 . S
O136 Cd135 2.317 . S
O136 C137 1.232 . S
C137 O136 1.232 . S
C137 O138 1.218 . S
O138 C137 1.218 . S
C139 O132 1.275 . S
C139 O134 1.255 . S
C140 O141 1.258 . S
C140 O142 1.256 . S
O141 Cd133 2.381 . S
O141 C140 1.258 . S
O142 Cd133 2.378 . S
O142 C140 1.256 . S
O143 Cd144 2.300 . S
O143 C150 1.275 . S
Cd144 O143 2.300 . S
Cd144 O152 2.381 . S
Cd144 O153 2.378 . S
O145 Cd146 2.385 . S
O145 C150 1.255 . S
Cd146 O145 2.385 . S
Cd146 O147 2.317 . S
O147 Cd146 2.317 . S
O147 C148 1.232 . S
C148 O147 1.232 . S
C148 O149 1.218 . S
O149 C148 1.218 . S
C150 O143 1.275 . S
C150 O145 1.255 . S
C151 O152 1.258 . S
C151 O153 1.256 . S
O152 Cd144 2.381 . S
O152 C151 1.258 . S
O153 Cd144 2.378 . S
O153 C151 1.256 . S
O154 Cd155 2.300 1_545 S
O154 C161 1.275 . S
Cd155 O154 2.300 1_565 S
Cd155 O163 2.381 1_565 S
Cd155 O164 2.378 . S
O156 Cd157 2.385 . S
O156 C161 1.255 1_565 S
Cd157 O156 2.385 . S
Cd157 O158 2.317 . S
O158 Cd157 2.317 . S
O158 C159 1.232 . S
C159 O158 1.232 . S
C159 O160 1.218 . S
O160 C159 1.218 . S
C161 O154 1.275 . S
C161 O156 1.255 1_545 S
C162 O163 1.258 1_565 S
C162 O164 1.256 . S
O163 Cd155 2.381 1_545 S
O163 C162 1.258 1_545 S
O164 Cd155 2.378 . S
O164 C162 1.256 . S
O165 Cd166 2.300 1_565 S
O165 C172 1.275 . S
Cd166 O165 2.300 1_545 S
Cd166 O174 2.381 1_545 S
Cd166 O175 2.378 . S
O167 Cd168 2.385 . S
O167 C172 1.255 1_545 S
Cd168 O167 2.385 . S
Cd168 O169 2.317 . S
O169 Cd168 2.317 . S
O169 C170 1.232 . S
C170 O169 1.232 . S
C170 O171 1.218 . S
O171 C170 1.218 . S
C172 O165 1.275 . S
C172 O167 1.255 1_565 S
C173 O174 1.258 1_545 S
C173 O175 1.256 . S
O174 Cd166 2.381 1_565 S
O174 C173 1.258 1_565 S
O175 Cd166 2.378 . S
O175 C173 1.256 . S
O176 Cd177 2.300 . S
O176 C183 1.275 . S
Cd177 O176 2.300 . S
Cd177 O185 2.381 . S
Cd177 O186 2.378 . S
O178 Cd179 2.385 . S
O178 C183 1.255 . S
Cd179 O178 2.385 . S
Cd179 O180 2.317 . S
O180 Cd179 2.317 . S
O180 C181 1.232 . S
C181 O180 1.232 . S
C181 O182 1.218 . S
O182 C181 1.218 . S
C183 O176 1.275 . S
C183 O178 1.255 . S
C184 O185 1.258 . S
C184 O186 1.256 . S
O185 Cd177 2.381 . S
O185 C184 1.258 . S
O186 Cd177 2.378 . S
O186 C184 1.256 . S
O187 Cd188 2.300 1_556 S
O187 C194 1.275 . S
Cd188 O187 2.300 1_554 S
Cd188 O196 2.381 1_554 S
Cd188 O197 2.378 . S
O189 Cd190 2.385 . S
O189 C194 1.255 1_554 S
Cd190 O189 2.385 . S
Cd190 O191 2.317 . S
O191 Cd190 2.317 . S
O191 C192 1.232 . S
C192 O191 1.232 . S
C192 O193 1.218 . S
O193 C192 1.218 . S
C194 O187 1.275 . S
C194 O189 1.255 1_556 S
C195 O196 1.258 1_554 S
C195 O197 1.256 . S
O196 Cd188 2.381 1_556 S
O196 C195 1.258 1_556 S
O197 Cd188 2.378 . S
O197 C195 1.256 . S
O198 Cd199 2.300 . S
O198 C205 1.275 . S
Cd199 O198 2.300 . S
Cd199 O207 2.381 . S
Cd199 O208 2.378 . S
O200 Cd201 2.385 . S
O200 C205 1.255 . S
Cd201 O200 2.385 . S
Cd201 O202 2.317 . S
O202 Cd201 2.317 . S
O202 C203 1.232 . S
C203 O202 1.232 . S
C203 O204 1.218 . S
O204 C203 1.218 . S
C205 O198 1.275 . S
C205 O200 1.255 . S
C206 O207 1.258 . S
C206 O208 1.256 . S
O207 Cd199 2.381 . S
O207 C206 1.258 . S
O208 Cd199 2.378 . S
O208 C206 1.256 . S
O209 Cd210 2.300 1_554 S
O209 C216 1.275 . S
Cd210 O209 2.300 1_556 S
Cd210 O218 2.381 1_556 S
Cd210 O219 2.378 . S
O211 Cd212 2.385 . S
O211 C216 1.255 1_556 S
Cd212 O211 2.385 . S
Cd212 O213 2.317 . S
O213 Cd212 2.317 . S
O213 C214 1.232 . S
C214 O213 1.232 . S
C214 O215 1.218 . S
O215 C214 1.218 . S
C216 O209 1.275 . S
C216 O211 1.255 1_554 S
C217 O218 1.258 1_556 S
C217 O219 1.256 . S
O218 Cd210 2.381 1_554 S
O218 C217 1.258 1_554 S
O219 Cd210 2.378 . S
O219 C217 1.256 . S
O220 Cd221 2.300 . S
O220 C227 1.275 . S
Cd221 O220 2.300 . S
Cd221 O229 2.381 . S
Cd221 O230 2.378 . S
O222 Cd223 2.385 . S
O222 C227 1.255 . S
Cd223 O222 2.385 . S
Cd223 O224 2.317 . S
O224 Cd223 2.317 . S
O224 C225 1.232 . S
C225 O224 1.232 . S
C225 O226 1.218 . S
O226 C225 1.218 . S
C227 O220 1.275 . S
C227 O222 1.255 . S
C228 O229 1.258 . S
C228 O230 1.256 . S
O229 Cd221 2.381 . S
O229 C228 1.258 . S
O230 Cd221 2.378 . S
O230 C228 1.256 . S
O231 Cd232 2.300 1_655 S
O231 C238 1.275 . S
Cd232 O231 2.300 1_455 S
Cd232 O240 2.381 1_455 S
Cd232 O241 2.378 . S
O233 Cd234 2.385 . S
O233 C238 1.255 1_455 S
Cd234 O233 2.385 . S
Cd234 O235 2.317 . S
O235 Cd234 2.317 . S
O235 C236 1.232 . S
C236 O235 1.232 . S
C236 O237 1.218 . S
O237 C236 1.218 . S
C238 O231 1.275 . S
C238 O233 1.255 1_655 S
C239 O240 1.258 1_455 S
C239 O241 1.256 . S
O240 Cd232 2.381 1_655 S
O240 C239 1.258 1_655 S
O241 Cd232 2.378 . S
O241 C239 1.256 . S
O242 Cd243 2.300 . S
O242 C249 1.275 . S
Cd243 O242 2.300 . S
Cd243 O251 2.381 . S
Cd243 O252 2.378 . S
O244 Cd245 2.385 . S
O244 C249 1.255 . S
Cd245 O244 2.385 . S
Cd245 O246 2.317 . S
O246 Cd245 2.317 . S
O246 C247 1.232 . S
C247 O246 1.232 . S
C247 O248 1.218 . S
O248 C247 1.218 . S
C249 O242 1.275 . S
C249 O244 1.255 . S
C250 O251 1.258 . S
C250 O252 1.256 . S
O251 Cd243 2.381 . S
O251 C250 1.258 . S
O252 Cd243 2.378 . S
O252 C250 1.256 . S
O253 Cd254 2.300 1_455 S
O253 C260 1.275 . S
Cd254 O253 2.300 1_655 S
Cd254 O262 2.381 1_655 S
Cd254 O263 2.378 . S
O255 Cd256 2.385 . S
O255 C260 1.255 1_655 S
Cd256 O255 2.385 . S
Cd256 O257 2.317 . S
O257 Cd256 2.317 . S
O257 C258 1.232 . S
C258 O257 1.232 . S
C258 O259 1.218 . S
O259 C258 1.218 . S
C260 O253 1.275 . S
C260 O255 1.255 1_455 S
C261 O262 1.258 1_655 S
C261 O263 1.256 . S
O262 Cd254 2.381 1_455 S
O262 C261 1.258 1_455 S
O263 Cd254 2.378 . S
O263 C261 1.256 . S
H264 C267 0.931 . S
H265 C270 0.928 . S
H266 C272 0.930 . S
C267 H264 0.931 . S
C267 C268 1.413 . S
C267 C269 1.360 . S
C268 C267 1.413 . S
C268 C272 1.429 . S
C269 C267 1.360 . S
C269 C270 1.372 . S
C270 H265 0.928 . S
C270 C269 1.372 . S
C270 C271 1.404 . S
C271 C270 1.404 . S
C271 C272 1.391 . S
C272 H266 0.930 . S
C272 C268 1.429 . S
C272 C271 1.391 . S
H273 C276 0.931 . S
H274 C279 0.928 . S
H275 C281 0.930 . S
C276 H273 0.931 . S
C276 C277 1.413 . S
C276 C278 1.360 . S
C277 C276 1.413 . S
C277 C281 1.429 . S
C278 C276 1.360 . S
C278 C279 1.372 . S
C279 H274 0.928 . S
C279 C278 1.372 . S
C279 C280 1.404 . S
C280 C279 1.404 . S
C280 C281 1.391 . S
C281 H275 0.930 . S
C281 C277 1.429 . S
C281 C280 1.391 . S
H282 C285 0.931 . S
H283 C288 0.928 . S
H284 C290 0.930 . S
C285 H282 0.931 . S
C285 C286 1.413 . S
C285 C287 1.360 1_565 S
C286 C285 1.413 . S
C286 C290 1.429 . S
C287 C285 1.360 1_545 S
C287 C288 1.372 . S
C288 H283 0.928 . S
C288 C287 1.372 . S
C288 C289 1.404 . S
C289 C288 1.404 . S
C289 C290 1.391 1_545 S
C290 H284 0.930 . S
C290 C286 1.429 . S
C290 C289 1.391 1_565 S
H291 C294 0.931 . S
H292 C297 0.928 . S
H293 C299 0.930 . S
C294 H291 0.931 . S
C294 C295 1.413 . S
C294 C296 1.378 . S
C295 C294 1.413 . S
C295 C299 1.429 1_545 S
C296 C294 1.378 . S
C296 C297 1.354 1_545 S
C297 H292 0.928 . S
C297 C296 1.354 1_565 S
C297 C298 1.404 . S
C298 C297 1.404 . S
C298 C299 1.391 . S
C299 H293 0.930 . S
C299 C295 1.429 1_565 S
C299 C298 1.391 . S
H300 C303 0.931 . S
H301 C306 0.928 . S
H302 C308 0.930 . S
C303 H300 0.931 . S
C303 C304 1.413 . S
C303 C305 1.360 . S
C304 C303 1.413 . S
C304 C308 1.429 . S
C305 C303 1.360 . S
C305 C306 1.372 . S
C306 H301 0.928 . S
C306 C305 1.372 . S
C306 C307 1.404 . S
C307 C306 1.404 . S
C307 C308 1.391 . S
C308 H302 0.930 . S
C308 C304 1.429 . S
C308 C307 1.391 . S
H309 C312 0.931 . S
H310 C315 0.928 . S
H311 C317 0.930 . S
C312 H309 0.931 . S
C312 C313 1.413 . S
C312 C314 1.378 . S
C313 C312 1.413 . S
C313 C317 1.429 1_554 S
C314 C312 1.378 . S
C314 C315 1.354 1_554 S
C315 H310 0.928 . S
C315 C314 1.354 1_556 S
C315 C316 1.404 . S
C316 C315 1.404 . S
C316 C317 1.391 . S
C317 H311 0.930 . S
C317 C313 1.429 1_556 S
C317 C316 1.391 . S
H318 C321 0.931 . S
H319 C324 0.928 . S
H320 C326 0.930 . S
C321 H318 0.931 . S
C321 C322 1.413 . S
C321 C323 1.360 . S
C322 C321 1.413 . S
C322 C326 1.429 . S
C323 C321 1.360 . S
C323 C324 1.372 . S
C324 H319 0.928 . S
C324 C323 1.372 . S
C324 C325 1.404 . S
C325 C324 1.404 . S
C325 C326 1.391 . S
C326 H320 0.930 . S
C326 C322 1.429 . S
C326 C325 1.391 . S
H327 C330 0.931 . S
H328 C333 0.928 . S
H329 C335 0.930 . S
C330 H327 0.931 . S
C330 C331 1.413 . S
C330 C332 1.360 1_556 S
C331 C330 1.413 . S
C331 C335 1.429 . S
C332 C330 1.360 1_554 S
C332 C333 1.372 . S
C333 H328 0.928 . S
C333 C332 1.372 . S
C333 C334 1.404 . S
C334 C333 1.404 . S
C334 C335 1.391 1_554 S
C335 H329 0.930 . S
C335 C331 1.429 . S
C335 C334 1.391 1_556 S
H336 C339 0.931 . S
H337 C342 0.928 . S
H338 C344 0.930 . S
C339 H336 0.931 . S
C339 C340 1.413 . S
C339 C341 1.360 . S
C340 C339 1.413 . S
C340 C344 1.429 . S
C341 C339 1.360 . S
C341 C342 1.372 . S
C342 H337 0.928 . S
C342 C341 1.372 . S
C342 C343 1.404 . S
C343 C342 1.404 . S
C343 C344 1.391 . S
C344 H338 0.930 . S
C344 C340 1.429 . S
C344 C343 1.391 . S
H345 C348 0.931 . S
H346 C351 0.928 . S
H347 C353 0.930 . S
C348 H345 0.931 . S
C348 C349 1.413 . S
C348 C350 1.378 . S
C349 C348 1.413 . S
C349 C353 1.429 1_455 S
C350 C348 1.378 . S
C350 C351 1.354 1_455 S
C351 H346 0.928 . S
C351 C350 1.354 1_655 S
C351 C352 1.404 . S
C352 C351 1.404 . S
C352 C353 1.391 . S
C353 H347 0.930 . S
C353 C349 1.429 1_655 S
C353 C352 1.391 . S
H354 C357 0.931 . S
H355 C360 0.928 . S
H356 C362 0.930 . S
C357 H354 0.931 . S
C357 C358 1.413 . S
C357 C359 1.360 . S
C358 C357 1.413 . S
C358 C362 1.429 . S
C359 C357 1.360 . S
C359 C360 1.372 . S
C360 H355 0.928 . S
C360 C359 1.372 . S
C360 C361 1.404 . S
C361 C360 1.404 . S
C361 C362 1.391 . S
C362 H356 0.930 . S
C362 C358 1.429 . S
C362 C361 1.391 . S
H363 C366 0.931 . S
H364 C369 0.928 . S
H365 C371 0.930 . S
C366 H363 0.931 . S
C366 C367 1.413 . S
C366 C368 1.360 1_655 S
C367 C366 1.413 . S
C367 C371 1.429 . S
C368 C366 1.360 1_455 S
C368 C369 1.372 . S
C369 H364 0.928 . S
C369 C368 1.372 . S
C369 C370 1.404 . S
C370 C369 1.404 . S
C370 C371 1.391 1_455 S
C371 H365 0.930 . S
C371 C367 1.429 . S
C371 C370 1.391 1_655 S
H372 C375 0.931 . S
H373 C378 0.928 . S
H374 C380 0.930 . S
C375 H372 0.931 . S
C375 C376 1.413 . S
C375 C377 1.360 . S
C376 C375 1.413 . S
C376 C380 1.429 . S
C377 C375 1.360 . S
C377 C378 1.372 . S
C378 H373 0.928 . S
C378 C377 1.372 . S
C378 C379 1.404 . S
C379 C378 1.404 . S
C379 C380 1.391 . S
C380 H374 0.930 . S
C380 C376 1.429 . S
C380 C379 1.391 . S
H381 C384 0.931 . S
H382 C387 0.928 . S
H383 C389 0.930 . S
C384 H381 0.931 . S
C384 C385 1.413 . S
C384 C386 1.360 . S
C385 C384 1.413 . S
C385 C389 1.429 . S
C386 C384 1.360 . S
C386 C387 1.372 . S
C387 H382 0.928 . S
C387 C386 1.372 . S
C387 C388 1.404 . S
C388 C387 1.404 . S
C388 C389 1.391 . S
C389 H383 0.930 . S
C389 C385 1.429 . S
C389 C388 1.391 . S
H390 C393 0.931 . S
H391 C396 0.928 . S
H392 C398 0.930 . S
C393 H390 0.931 . S
C393 C394 1.413 . S
C393 C395 1.360 1_545 S
C394 C393 1.413 . S
C394 C398 1.429 . S
C395 C393 1.360 1_565 S
C395 C396 1.372 . S
C396 H391 0.928 . S
C396 C395 1.372 . S
C396 C397 1.404 . S
C397 C396 1.404 . S
C397 C398 1.391 1_565 S
C398 H392 0.930 . S
C398 C394 1.429 . S
C398 C397 1.391 1_545 S
H399 C402 0.931 . S
H400 C405 0.928 . S
H401 C407 0.930 . S
C402 H399 0.931 . S
C402 C403 1.413 . S
C402 C404 1.376 . S
C403 C402 1.413 . S
C403 C407 1.429 1_565 S
C404 C402 1.376 . S
C404 C405 1.357 1_565 S
C405 H400 0.928 . S
C405 C404 1.357 1_545 S
C405 C406 1.404 . S
C406 C405 1.404 . S
C406 C407 1.391 . S
C407 H401 0.930 . S
C407 C403 1.429 1_545 S
C407 C406 1.391 . S
H408 C411 0.931 . S
H409 C414 0.928 . S
H410 C416 0.930 . S
C411 H408 0.931 . S
C411 C412 1.413 . S
C411 C413 1.360 . S
C412 C411 1.413 . S
C412 C416 1.429 . S
C413 C411 1.360 . S
C413 C414 1.372 . S
C414 H409 0.928 . S
C414 C413 1.372 . S
C414 C415 1.404 . S
C415 C414 1.404 . S
C415 C416 1.391 . S
C416 H410 0.930 . S
C416 C412 1.429 . S
C416 C415 1.391 . S
H417 C420 0.931 . S
H418 C423 0.928 . S
H419 C425 0.930 . S
C420 H417 0.931 . S
C420 C421 1.413 . S
C420 C422 1.376 . S
C421 C420 1.413 . S
C421 C425 1.429 1_556 S
C422 C420 1.376 . S
C422 C423 1.357 1_556 S
C423 H418 0.928 . S
C423 C422 1.357 1_554 S
C423 C424 1.404 . S
C424 C423 1.404 . S
C424 C425 1.391 . S
C425 H419 0.930 . S
C425 C421 1.429 1_554 S
C425 C424 1.391 . S
H426 C429 0.931 . S
H427 C432 0.928 . S
H428 C434 0.930 . S
C429 H426 0.931 . S
C429 C430 1.413 . S
C429 C431 1.360 . S
C430 C429 1.413 . S
C430 C434 1.429 . S
C431 C429 1.360 . S
C431 C432 1.372 . S
C432 H427 0.928 . S
C432 C431 1.372 . S
C432 C433 1.404 . S
C433 C432 1.404 . S
C433 C434 1.391 . S
C434 H428 0.930 . S
C434 C430 1.429 . S
C434 C433 1.391 . S
H435 C438 0.931 . S
H436 C441 0.928 . S
H437 C443 0.930 . S
C438 H435 0.931 . S
C438 C439 1.413 . S
C438 C440 1.360 1_554 S
C439 C438 1.413 . S
C439 C443 1.429 . S
C440 C438 1.360 1_556 S
C440 C441 1.372 . S
C441 H436 0.928 . S
C441 C440 1.372 . S
C441 C442 1.404 . S
C442 C441 1.404 . S
C442 C443 1.391 1_556 S
C443 H437 0.930 . S
C443 C439 1.429 . S
C443 C442 1.391 1_554 S
H444 C447 0.931 . S
H445 C450 0.928 . S
H446 C452 0.930 . S
C447 H444 0.931 . S
C447 C448 1.413 . S
C447 C449 1.360 . S
C448 C447 1.413 . S
C448 C452 1.429 . S
C449 C447 1.360 . S
C449 C450 1.372 . S
C450 H445 0.928 . S
C450 C449 1.372 . S
C450 C451 1.404 . S
C451 C450 1.404 . S
C451 C452 1.391 . S
C452 H446 0.930 . S
C452 C448 1.429 . S
C452 C451 1.391 . S
H453 C456 0.931 . S
H454 C459 0.928 . S
H455 C461 0.930 . S
C456 H453 0.931 . S
C456 C457 1.413 . S
C456 C458 1.376 . S
C457 C456 1.413 . S
C457 C461 1.429 1_655 S
C458 C456 1.376 . S
C458 C459 1.357 1_655 S
C459 H454 0.928 . S
C459 C458 1.357 1_455 S
C459 C460 1.404 . S
C460 C459 1.404 . S
C460 C461 1.391 . S
C461 H455 0.930 . S
C461 C457 1.429 1_455 S
C461 C460 1.391 . S
H462 C465 0.931 . S
H463 C468 0.928 . S
H464 C470 0.930 . S
C465 H462 0.931 . S
C465 C466 1.413 . S
C465 C467 1.360 . S
C466 C465 1.413 . S
C466 C470 1.429 . S
C467 C465 1.360 . S
C467 C468 1.372 . S
C468 H463 0.928 . S
C468 C467 1.372 . S
C468 C469 1.404 . S
C469 C468 1.404 . S
C469 C470 1.391 . S
C470 H464 0.930 . S
C470 C466 1.429 . S
C470 C469 1.391 . S
H471 C474 0.931 . S
H472 C477 0.928 . S
H473 C479 0.930 . S
C474 H471 0.931 . S
C474 C475 1.413 . S
C474 C476 1.360 1_455 S
C475 C474 1.413 . S
C475 C479 1.429 . S
C476 C474 1.360 1_655 S
C476 C477 1.372 . S
C477 H472 0.928 . S
C477 C476 1.372 . S
C477 C478 1.404 . S
C478 C477 1.404 . S
C478 C479 1.391 1_655 S
C479 H473 0.930 . S
C479 C475 1.429 . S
C479 C478 1.391 1_455 S
C480 C481 1.363 . S
C480 C486 1.379 . S
C480 N488 1.356 . S
C481 C480 1.363 . S
C481 C487 1.363 . S
C482 C483 1.363 . S
C482 C487 1.379 . S
C482 N489 1.356 . S
C483 C482 1.363 . S
C483 C486 1.363 . S
N484 C486 1.356 . S
N484 H496 0.984 . S
N484 H497 0.985 . S
N485 C487 1.356 . S
N485 H490 0.984 . S
N485 H491 0.985 . S
C486 C480 1.379 . S
C486 C483 1.363 . S
C486 N484 1.356 . S
C487 C481 1.363 . S
C487 C482 1.379 . S
C487 N485 1.356 . S
N488 C480 1.356 . S
N488 H494 0.984 . S
N488 H495 0.984 . S
N489 C482 1.356 . S
N489 H492 0.984 . S
N489 H493 0.985 . S
H490 N485 0.984 . S
H491 N485 0.985 . S
H492 N489 0.984 . S
H493 N489 0.985 . S
H494 N488 0.984 . S
H495 N488 0.984 . S
H496 N484 0.984 . S
H497 N484 0.985 . S
C498 C499 1.363 . S
C498 C504 1.379 . S
C498 N506 1.356 . S
C499 C498 1.363 . S
C499 C505 1.363 . S
C500 C501 1.363 . S
C500 C505 1.379 . S
C500 N507 1.356 . S
C501 C500 1.363 . S
C501 C504 1.363 . S
N502 C504 1.356 . S
N502 H514 0.984 . S
N502 H515 0.985 . S
N503 C505 1.356 . S
N503 H508 0.984 . S
N503 H509 0.985 . S
C504 C498 1.379 . S
C504 C501 1.363 . S
C504 N502 1.356 . S
C505 C499 1.363 . S
C505 C500 1.379 . S
C505 N503 1.356 . S
N506 C498 1.356 . S
N506 H512 0.984 . S
N506 H513 0.984 . S
N507 C500 1.356 . S
N507 H510 0.984 . S
N507 H511 0.985 . S
H508 N503 0.984 . S
H509 N503 0.985 . S
H510 N507 0.984 . S
H511 N507 0.985 . S
H512 N506 0.984 . S
H513 N506 0.984 . S
H514 N502 0.984 . S
H515 N502 0.985 . S
C516 C517 1.363 . S
C516 C522 1.379 . S
C516 N524 1.356 . S
C517 C516 1.363 . S
C517 C523 1.363 . S
C518 C519 1.363 . S
C518 C523 1.379 . S
C518 N525 1.356 . S
C519 C518 1.363 . S
C519 C522 1.363 . S
N520 C522 1.356 . S
N520 H532 0.984 . S
N520 H533 0.985 . S
N521 C523 1.356 . S
N521 H526 0.984 . S
N521 H527 0.985 . S
C522 C516 1.379 . S
C522 C519 1.363 . S
C522 N520 1.356 . S
C523 C517 1.363 . S
C523 C518 1.379 . S
C523 N521 1.356 . S
N524 C516 1.356 . S
N524 H530 0.984 . S
N524 H531 0.984 . S
N525 C518 1.356 . S
N525 H528 0.984 . S
N525 H529 0.985 . S
H526 N521 0.984 . S
H527 N521 0.985 . S
H528 N525 0.984 . S
H529 N525 0.985 . S
H530 N524 0.984 . S
H531 N524 0.984 . S
H532 N520 0.984 . S
H533 N520 0.985 . S
C534 C535 1.363 . S
C534 C540 1.379 . S
C534 N542 1.356 . S
C535 C534 1.363 . S
C535 C541 1.363 . S
C536 C537 1.363 . S
C536 C541 1.379 . S
C536 N543 1.356 . S
C537 C536 1.363 . S
C537 C540 1.363 . S
N538 C540 1.356 . S
N538 H550 0.984 . S
N538 H551 0.985 . S
N539 C541 1.356 . S
N539 H544 0.996 . S
N539 H545 0.985 . S
C540 C534 1.379 . S
C540 C537 1.363 . S
C540 N538 1.356 . S
C541 C535 1.363 . S
C541 C536 1.379 . S
C541 N539 1.356 . S
N542 C534 1.356 . S
N542 H548 0.984 . S
N542 H549 0.984 . S
N543 C536 1.356 . S
N543 H546 0.984 . S
N543 H547 0.985 . S
H544 N539 0.996 . S
H545 N539 0.985 . S
H546 N543 0.984 . S
H547 N543 0.985 . S
H548 N542 0.984 . S
H549 N542 0.984 . S
H550 N538 0.984 . S
H551 N538 0.985 . S
C552 C553 1.363 . S
C552 C558 1.379 . S
C552 N560 1.356 . S
C553 C552 1.363 . S
C553 C559 1.363 . S
C554 C555 1.363 . S
C554 C559 1.379 . S
C554 N561 1.356 . S
C555 C554 1.363 . S
C555 C558 1.363 . S
N556 C558 1.356 . S
N556 H568 0.984 . S
N556 H569 0.985 . S
N557 C559 1.356 . S
N557 H562 0.984 . S
N557 H563 0.985 . S
C558 C552 1.379 . S
C558 C555 1.363 . S
C558 N556 1.356 . S
C559 C553 1.363 . S
C559 C554 1.379 . S
C559 N557 1.356 . S
N560 C552 1.356 . S
N560 H566 0.984 . S
N560 H567 0.984 . S
N561 C554 1.356 . S
N561 H564 0.984 . S
N561 H565 0.985 . S
H562 N557 0.984 . S
H563 N557 0.985 . S
H564 N561 0.984 . S
H565 N561 0.985 . S
H566 N560 0.984 . S
H567 N560 0.984 . S
H568 N556 0.984 . S
H569 N556 0.985 . S
C570 C571 1.363 . S
C570 C576 1.379 . S
C570 N578 1.356 1_556 S
C571 C570 1.363 . S
C571 C577 1.363 . S
C572 C573 1.363 . S
C572 C577 1.379 . S
C572 N579 1.356 . S
C573 C572 1.363 . S
C573 C576 1.363 . S
N574 C576 1.356 . S
N574 H586 0.984 1_556 S
N574 H587 0.985 . S
N575 C577 1.356 . S
N575 H580 0.984 . S
N575 H581 0.985 . S
C576 C570 1.379 . S
C576 C573 1.363 . S
C576 N574 1.356 . S
C577 C571 1.363 . S
C577 C572 1.379 . S
C577 N575 1.356 . S
N578 C570 1.356 1_554 S
N578 H584 0.984 . S
N578 H585 0.984 . S
N579 C572 1.356 . S
N579 H582 0.984 . S
N579 H583 0.985 . S
H580 N575 0.984 . S
H581 N575 0.985 . S
H582 N579 0.984 . S
H583 N579 0.985 . S
H584 N578 0.984 . S
H585 N578 0.984 . S
H586 N574 0.984 1_554 S
H587 N574 0.985 . S
C588 C589 1.363 . S
C588 C594 1.379 . S
C588 N596 1.356 . S
C589 C588 1.363 . S
C589 C595 1.363 . S
C590 C591 1.363 . S
C590 C595 1.379 . S
C590 N597 1.356 . S
C591 C590 1.363 . S
C591 C594 1.363 . S
N592 C594 1.356 . S
N592 H604 0.984 . S
N592 H605 0.985 . S
N593 C595 1.356 . S
N593 H598 0.984 . S
N593 H599 0.985 . S
C594 C588 1.379 . S
C594 C591 1.363 . S
C594 N592 1.356 . S
C595 C589 1.363 . S
C595 C590 1.379 . S
C595 N593 1.356 . S
N596 C588 1.356 . S
N596 H602 0.984 . S
N596 H603 0.984 . S
N597 C590 1.356 . S
N597 H600 0.984 . S
N597 H601 0.985 . S
H598 N593 0.984 . S
H599 N593 0.985 . S
H600 N597 0.984 . S
H601 N597 0.985 . S
H602 N596 0.984 . S
H603 N596 0.984 . S
H604 N592 0.984 . S
H605 N592 0.985 . S
C606 C607 1.363 . S
C606 C612 1.379 . S
C606 N614 1.356 1_554 S
C607 C606 1.363 . S
C607 C613 1.363 . S
C608 C609 1.363 . S
C608 C613 1.379 . S
C608 N615 1.356 . S
C609 C608 1.363 . S
C609 C612 1.363 . S
N610 C612 1.356 . S
N610 H622 0.984 1_554 S
N610 H623 0.985 . S
N611 C613 1.356 . S
N611 H616 0.984 . S
N611 H617 0.985 . S
C612 C606 1.379 . S
C612 C609 1.363 . S
C612 N610 1.356 . S
C613 C607 1.363 . S
C613 C608 1.379 . S
C613 N611 1.356 . S
N614 C606 1.356 1_556 S
N614 H620 0.984 . S
N614 H621 0.984 . S
N615 C608 1.356 . S
N615 H618 0.984 . S
N615 H619 0.985 . S
H616 N611 0.984 . S
H617 N611 0.985 . S
H618 N615 0.984 . S
H619 N615 0.985 . S
H620 N614 0.984 . S
H621 N614 0.984 . S
H622 N610 0.984 1_556 S
H623 N610 0.985 . S
C624 C625 1.363 . S
C624 C630 1.379 . S
C624 N632 1.356 . S
C625 C624 1.363 . S
C625 C631 1.363 . S
C626 C627 1.363 . S
C626 C631 1.379 . S
C626 N633 1.356 . S
C627 C626 1.363 . S
C627 C630 1.363 . S
N628 C630 1.356 . S
N628 H640 0.984 . S
N628 H641 0.985 . S
N629 C631 1.356 . S
N629 H634 0.984 . S
N629 H635 0.985 . S
C630 C624 1.379 . S
C630 C627 1.363 . S
C630 N628 1.356 . S
C631 C625 1.363 . S
C631 C626 1.379 . S
C631 N629 1.356 . S
N632 C624 1.356 . S
N632 H638 0.984 . S
N632 H639 0.984 . S
N633 C626 1.356 . S
N633 H636 0.984 . S
N633 H637 0.985 . S
H634 N629 0.984 . S
H635 N629 0.985 . S
H636 N633 0.984 . S
H637 N633 0.985 . S
H638 N632 0.984 . S
H639 N632 0.984 . S
H640 N628 0.984 . S
H641 N628 0.985 . S
C642 C643 1.363 . S
C642 C648 1.379 . S
C642 N650 1.356 1_655 S
C643 C642 1.363 . S
C643 C649 1.363 . S
C644 C645 1.363 . S
C644 C649 1.379 . S
C644 N651 1.356 . S
C645 C644 1.363 . S
C645 C648 1.363 . S
N646 C648 1.356 . S
N646 H658 0.984 . S
N646 H659 0.985 . S
N647 C649 1.356 . S
N647 H652 0.984 . S
N647 H653 0.985 . S
C648 C642 1.379 . S
C648 C645 1.363 . S
C648 N646 1.356 . S
C649 C643 1.363 . S
C649 C644 1.379 . S
C649 N647 1.356 . S
N650 C642 1.356 1_455 S
N650 H656 0.984 . S
N650 H657 0.984 . S
N651 C644 1.356 . S
N651 H654 0.984 . S
N651 H655 0.985 . S
H652 N647 0.984 . S
H653 N647 0.985 . S
H654 N651 0.984 . S
H655 N651 0.985 . S
H656 N650 0.984 . S
H657 N650 0.984 . S
H658 N646 0.984 . S
H659 N646 0.985 . S
C660 C661 1.363 . S
C660 C666 1.379 . S
C660 N668 1.356 . S
C661 C660 1.363 . S
C661 C667 1.363 . S
C662 C663 1.363 . S
C662 C667 1.379 . S
C662 N669 1.356 . S
C663 C662 1.363 . S
C663 C666 1.363 . S
N664 C666 1.356 . S
N664 H676 0.984 . S
N664 H677 0.985 . S
N665 C667 1.356 . S
N665 H670 0.984 . S
N665 H671 0.985 . S
C666 C660 1.379 . S
C666 C663 1.363 . S
C666 N664 1.356 . S
C667 C661 1.363 . S
C667 C662 1.379 . S
C667 N665 1.356 . S
N668 C660 1.356 . S
N668 H674 0.984 . S
N668 H675 0.984 . S
N669 C662 1.356 . S
N669 H672 0.984 . S
N669 H673 0.985 . S
H670 N665 0.984 . S
H671 N665 0.985 . S
H672 N669 0.984 . S
H673 N669 0.985 . S
H674 N668 0.984 . S
H675 N668 0.984 . S
H676 N664 0.984 . S
H677 N664 0.985 . S
C678 C679 1.363 . S
C678 C684 1.379 . S
C678 N686 1.356 . S
C679 C678 1.363 . S
C679 C685 1.363 . S
C680 C681 1.363 . S
C680 C685 1.379 . S
C680 N687 1.356 . S
C681 C680 1.363 . S
C681 C684 1.363 . S
N682 C684 1.356 . S
N682 H694 0.984 . S
N682 H695 0.985 . S
N683 C685 1.356 1_655 S
N683 H688 0.984 . S
N683 H689 0.985 . S
C684 C678 1.379 . S
C684 C681 1.363 . S
C684 N682 1.356 . S
C685 C679 1.363 . S
C685 C680 1.379 . S
C685 N683 1.356 1_455 S
N686 C678 1.356 . S
N686 H692 0.984 . S
N686 H693 0.984 . S
N687 C680 1.356 . S
N687 H690 0.984 . S
N687 H691 0.985 . S
H688 N683 0.984 . S
H689 N683 0.985 . S
H690 N687 0.984 . S
H691 N687 0.985 . S
H692 N686 0.984 . S
H693 N686 0.984 . S
H694 N682 0.984 . S
H695 N682 0.985 . S
C696 C697 1.363 . S
C696 C702 1.379 . S
C696 N704 1.356 . S
C697 C696 1.363 . S
C697 C703 1.363 . S
C698 C699 1.363 . S
C698 C703 1.379 . S
C698 N705 1.356 . S
C699 C698 1.363 . S
C699 C702 1.363 . S
N700 C702 1.356 . S
N700 H712 0.984 . S
N700 H713 0.985 . S
N701 C703 1.356 . S
N701 H706 0.984 . S
N701 H707 0.985 . S
C702 C696 1.379 . S
C702 C699 1.363 . S
C702 N700 1.356 . S
C703 C697 1.363 . S
C703 C698 1.379 . S
C703 N701 1.356 . S
N704 C696 1.356 . S
N704 H710 0.984 . S
N704 H711 0.984 . S
N705 C698 1.356 . S
N705 H708 0.984 . S
N705 H709 0.985 . S
H706 N701 0.984 . S
H707 N701 0.985 . S
H708 N705 0.984 . S
H709 N705 0.985 . S
H710 N704 0.984 . S
H711 N704 0.984 . S
H712 N700 0.984 . S
H713 N700 0.985 . S
C714 C715 1.363 . S
C714 C720 1.379 . S
C714 N722 1.356 . S
C715 C714 1.363 . S
C715 C721 1.363 . S
C716 C717 1.363 . S
C716 C721 1.379 . S
C716 N723 1.356 . S
C717 C716 1.363 . S
C717 C720 1.363 . S
N718 C720 1.356 . S
N718 H730 0.984 . S
N718 H731 0.985 . S
N719 C721 1.356 . S
N719 H724 0.984 . S
N719 H725 0.985 . S
C720 C714 1.379 . S
C720 C717 1.363 . S
C720 N718 1.356 . S
C721 C715 1.363 . S
C721 C716 1.379 . S
C721 N719 1.356 . S
N722 C714 1.356 . S
N722 H728 0.984 . S
N722 H729 0.984 . S
N723 C716 1.356 . S
N723 H726 0.984 . S
N723 H727 0.985 . S
H724 N719 0.984 . S
H725 N719 0.985 . S
H726 N723 0.984 . S
H727 N723 0.985 . S
H728 N722 0.984 . S
H729 N722 0.984 . S
H730 N718 0.984 . S
H731 N718 0.985 . S
C732 C733 1.363 . S
C732 C738 1.379 . S
C732 N740 1.356 . S
C733 C732 1.363 . S
C733 C739 1.363 . S
C734 C735 1.363 . S
C734 C739 1.379 . S
C734 N741 1.356 . S
C735 C734 1.363 . S
C735 C738 1.363 . S
N736 C738 1.356 . S
N736 H748 0.984 . S
N736 H749 0.985 . S
N737 C739 1.356 1_545 S
N737 H742 0.984 . S
N737 H743 0.985 . S
C738 C732 1.379 . S
C738 C735 1.363 . S
C738 N736 1.356 . S
C739 C733 1.363 . S
C739 C734 1.379 . S
C739 N737 1.356 1_565 S
N740 C732 1.356 . S
N740 H746 0.984 . S
N740 H747 0.984 . S
N741 C734 1.356 . S
N741 H744 0.984 . S
N741 H745 0.985 . S
H742 N737 0.984 . S
H743 N737 0.985 . S
H744 N741 0.984 . S
H745 N741 0.985 . S
H746 N740 0.984 . S
H747 N740 0.984 . S
H748 N736 0.984 . S
H749 N736 0.985 . S
C750 C751 1.363 . S
C750 C756 1.379 . S
C750 N758 1.356 . S
C751 C750 1.363 . S
C751 C757 1.363 . S
C752 C753 1.363 . S
C752 C757 1.379 . S
C752 N759 1.356 . S
C753 C752 1.363 . S
C753 C756 1.363 . S
N754 C756 1.356 . S
N754 H766 0.984 . S
N754 H767 0.985 . S
N755 C757 1.356 1_565 S
N755 H760 0.984 . S
N755 H761 0.985 . S
C756 C750 1.379 . S
C756 C753 1.363 . S
C756 N754 1.356 . S
C757 C751 1.363 . S
C757 C752 1.379 . S
C757 N755 1.356 1_545 S
N758 C750 1.356 . S
N758 H764 0.984 . S
N758 H765 0.984 . S
N759 C752 1.356 . S
N759 H762 0.984 . S
N759 H763 0.985 . S
H760 N755 0.984 . S
H761 N755 0.985 . S
H762 N759 0.984 . S
H763 N759 0.985 . S
H764 N758 0.984 . S
H765 N758 0.984 . S
H766 N754 0.984 . S
H767 N754 0.985 . S
C768 C769 1.363 . S
C768 C774 1.379 . S
C768 N776 1.356 . S
C769 C768 1.363 . S
C769 C775 1.363 . S
C770 C771 1.363 . S
C770 C775 1.379 . S
C770 N777 1.356 . S
C771 C770 1.363 . S
C771 C774 1.363 . S
N772 C774 1.356 . S
N772 H784 0.984 . S
N772 H785 0.985 . S
N773 C775 1.356 . S
N773 H778 0.984 . S
N773 H779 0.985 . S
C774 C768 1.379 . S
C774 C771 1.363 . S
C774 N772 1.356 . S
C775 C769 1.363 . S
C775 C770 1.379 . S
C775 N773 1.356 . S
N776 C768 1.356 . S
N776 H782 0.984 . S
N776 H783 0.984 . S
N777 C770 1.356 . S
N777 H780 0.984 . S
N777 H781 0.985 . S
H778 N773 0.984 . S
H779 N773 0.985 . S
H780 N777 0.984 . S
H781 N777 0.985 . S
H782 N776 0.984 . S
H783 N776 0.984 . S
H784 N772 0.984 . S
H785 N772 0.985 . S
C786 C787 1.363 . S
C786 C792 1.379 . S
C786 N794 1.356 1_554 S
C787 C786 1.363 . S
C787 C793 1.363 . S
C788 C789 1.363 . S
C788 C793 1.379 . S
C788 N795 1.356 . S
C789 C788 1.363 . S
C789 C792 1.363 . S
N790 C792 1.356 . S
N790 H802 0.984 . S
N790 H803 0.985 . S
N791 C793 1.356 . S
N791 H796 0.984 . S
N791 H797 0.985 . S
C792 C786 1.379 . S
C792 C789 1.363 . S
C792 N790 1.356 . S
C793 C787 1.363 . S
C793 C788 1.379 . S
C793 N791 1.356 . S
N794 C786 1.356 1_556 S
N794 H800 0.984 . S
N794 H801 0.984 . S
N795 C788 1.356 . S
N795 H798 0.984 . S
N795 H799 0.985 . S
H796 N791 0.984 . S
H797 N791 0.985 . S
H798 N795 0.984 . S
H799 N795 0.985 . S
H800 N794 0.984 . S
H801 N794 0.984 . S
H802 N790 0.984 . S
H803 N790 0.985 . S
C804 C805 1.363 . S
C804 C810 1.379 . S
C804 N812 1.356 . S
C805 C804 1.363 . S
C805 C811 1.363 . S
C806 C807 1.363 . S
C806 C811 1.379 . S
C806 N813 1.356 . S
C807 C806 1.363 . S
C807 C810 1.363 . S
N808 C810 1.356 . S
N808 H820 0.984 . S
N808 H821 0.985 . S
N809 C811 1.356 . S
N809 H814 0.984 . S
N809 H815 0.985 . S
C810 C804 1.379 . S
C810 C807 1.363 . S
C810 N808 1.356 . S
C811 C805 1.363 . S
C811 C806 1.379 . S
C811 N809 1.356 . S
N812 C804 1.356 . S
N812 H818 0.984 . S
N812 H819 0.984 . S
N813 C806 1.356 . S
N813 H816 0.984 . S
N813 H817 0.985 . S
H814 N809 0.984 . S
H815 N809 0.985 . S
H816 N813 0.984 . S
H817 N813 0.985 . S
H818 N812 0.984 . S
H819 N812 0.984 . S
H820 N808 0.984 . S
H821 N808 0.985 . S
C822 C823 1.363 . S
C822 C828 1.379 . S
C822 N830 1.356 . S
C823 C822 1.363 . S
C823 C829 1.363 . S
C824 C825 1.363 . S
C824 C829 1.379 . S
C824 N831 1.356 . S
C825 C824 1.363 . S
C825 C828 1.363 . S
N826 C828 1.356 . S
N826 H838 0.984 . S
N826 H839 0.985 . S
N827 C829 1.356 1_554 S
N827 H832 0.984 . S
N827 H833 0.985 . S
C828 C822 1.379 . S
C828 C825 1.363 . S
C828 N826 1.356 . S
C829 C823 1.363 . S
C829 C824 1.379 . S
C829 N827 1.356 1_556 S
N830 C822 1.356 . S
N830 H836 0.984 . S
N830 H837 0.984 . S
N831 C824 1.356 . S
N831 H834 0.984 . S
N831 H835 0.985 . S
H832 N827 0.984 . S
H833 N827 0.985 . S
H834 N831 0.984 . S
H835 N831 0.985 . S
H836 N830 0.984 . S
H837 N830 0.984 . S
H838 N826 0.984 . S
H839 N826 0.985 . S
C840 C841 1.363 . S
C840 C846 1.379 . S
C840 N848 1.356 . S
C841 C840 1.363 . S
C841 C847 1.363 . S
C842 C843 1.363 . S
C842 C847 1.379 . S
C842 N849 1.356 . S
C843 C842 1.363 . S
C843 C846 1.363 . S
N844 C846 1.356 . S
N844 H856 0.984 . S
N844 H857 0.985 . S
N845 C847 1.356 . S
N845 H850 0.984 . S
N845 H851 0.985 . S
C846 C840 1.379 . S
C846 C843 1.363 . S
C846 N844 1.356 . S
C847 C841 1.363 . S
C847 C842 1.379 . S
C847 N845 1.356 . S
N848 C840 1.356 . S
N848 H854 0.984 . S
N848 H855 0.984 . S
N849 C842 1.356 . S
N849 H852 0.984 . S
N849 H853 0.985 . S
H850 N845 0.984 . S
H851 N845 0.985 . S
H852 N849 0.984 . S
H853 N849 0.985 . S
H854 N848 0.984 . S
H855 N848 0.984 . S
H856 N844 0.984 . S
H857 N844 0.985 . S
C858 C859 1.363 . S
C858 C864 1.379 . S
C858 N866 1.356 . S
C859 C858 1.363 . S
C859 C865 1.363 . S
C860 C861 1.363 . S
C860 C865 1.379 . S
C860 N867 1.356 . S
C861 C860 1.363 . S
C861 C864 1.363 . S
N862 C864 1.356 . S
N862 H874 0.984 . S
N862 H875 0.985 . S
N863 C865 1.356 1_655 S
N863 H868 0.984 . S
N863 H869 0.985 . S
C864 C858 1.379 . S
C864 C861 1.363 . S
C864 N862 1.356 . S
C865 C859 1.363 . S
C865 C860 1.379 . S
C865 N863 1.356 1_455 S
N866 C858 1.356 . S
N866 H872 0.984 . S
N866 H873 0.984 . S
N867 C860 1.356 . S
N867 H870 0.984 . S
N867 H871 0.985 . S
H868 N863 0.984 . S
H869 N863 0.985 . S
H870 N867 0.984 . S
H871 N867 0.985 . S
H872 N866 0.984 . S
H873 N866 0.984 . S
H874 N862 0.984 . S
H875 N862 0.985 . S
C876 C877 1.363 . S
C876 C882 1.379 . S
C876 N884 1.356 . S
C877 C876 1.363 . S
C877 C883 1.363 . S
C878 C879 1.363 . S
C878 C883 1.379 . S
C878 N885 1.356 . S
C879 C878 1.363 . S
C879 C882 1.363 . S
N880 C882 1.356 . S
N880 H892 0.984 . S
N880 H893 0.985 . S
N881 C883 1.356 . S
N881 H886 0.984 . S
N881 H887 0.985 . S
C882 C876 1.379 . S
C882 C879 1.363 . S
C882 N880 1.356 . S
C883 C877 1.363 . S
C883 C878 1.379 . S
C883 N881 1.356 . S
N884 C876 1.356 . S
N884 H890 0.984 . S
N884 H891 0.984 . S
N885 C878 1.356 . S
N885 H888 0.984 . S
N885 H889 0.985 . S
H886 N881 0.984 . S
H887 N881 0.985 . S
H888 N885 0.984 . S
H889 N885 0.985 . S
H890 N884 0.984 . S
H891 N884 0.984 . S
H892 N880 0.984 . S
H893 N880 0.985 . S
C894 C895 1.363 . S
C894 C900 1.379 . S
C894 N902 1.356 . S
C895 C894 1.363 . S
C895 C901 1.348 1_655 S
C896 C897 1.363 . S
C896 C901 1.367 1_655 S
C896 N903 1.351 1_655 S
C897 C896 1.363 . S
C897 C900 1.363 . S
N898 C900 1.356 . S
N898 H910 0.984 . S
N898 H911 0.985 . S
N899 C901 1.382 . S
N899 H904 0.984 . S
N899 H905 0.985 . S
C900 C894 1.379 . S
C900 C897 1.363 . S
C900 N898 1.356 . S
C901 C895 1.348 1_455 S
C901 C896 1.367 1_455 S
C901 N899 1.382 . S
N902 C894 1.356 . S
N902 H908 0.984 . S
N902 H909 0.984 . S
N903 C896 1.351 1_455 S
N903 H906 0.973 1_455 S
N903 H907 1.002 . S
H904 N899 0.984 . S
H905 N899 0.985 . S
H906 N903 0.973 1_655 S
H907 N903 1.002 . S
H908 N902 0.984 . S
H909 N902 0.984 . S
H910 N898 0.984 . S
H911 N898 0.985 . S
C912 C913 1.363 . S
C912 C918 1.379 . S
C912 N920 1.356 . S
C913 C912 1.363 . S
C913 C919 1.363 . S
C914 C915 1.363 . S
C914 C919 1.379 . S
C914 N921 1.356 . S
C915 C914 1.363 . S
C915 C918 1.363 . S
N916 C918 1.356 . S
N916 H928 0.984 . S
N916 H929 0.985 . S
N917 C919 1.356 . S
N917 H922 0.984 . S
N917 H923 0.985 . S
C918 C912 1.379 . S
C918 C915 1.363 . S
C918 N916 1.356 . S
C919 C913 1.363 . S
C919 C914 1.379 . S
C919 N917 1.356 . S
N920 C912 1.356 . S
N920 H926 0.984 . S
N920 H927 0.984 . S
N921 C914 1.356 . S
N921 H924 0.984 . S
N921 H925 0.985 . S
H922 N917 0.984 . S
H923 N917 0.985 . S
H924 N921 0.984 . S
H925 N921 0.985 . S
H926 N920 0.984 . S
H927 N920 0.984 . S
H928 N916 0.984 . S
H929 N916 0.985 . S
C930 C931 1.363 . S
C930 C936 1.379 . S
C930 N938 1.356 . S
C931 C930 1.363 . S
C931 C937 1.363 . S
C932 C933 1.363 . S
C932 C937 1.379 . S
C932 N939 1.356 . S
C933 C932 1.363 . S
C933 C936 1.363 . S
N934 C936 1.356 . S
N934 H946 0.984 . S
N934 H947 0.985 . S
N935 C937 1.356 . S
N935 H940 0.984 . S
N935 H941 0.985 . S
C936 C930 1.379 . S
C936 C933 1.363 . S
C936 N934 1.356 . S
C937 C931 1.363 . S
C937 C932 1.379 . S
C937 N935 1.356 . S
N938 C930 1.356 . S
N938 H944 0.984 . S
N938 H945 0.984 . S
N939 C932 1.356 . S
N939 H942 0.984 . S
N939 H943 0.985 . S
H940 N935 0.984 . S
H941 N935 0.985 . S
H942 N939 0.984 . S
H943 N939 0.985 . S
H944 N938 0.984 . S
H945 N938 0.984 . S
H946 N934 0.984 . S
H947 N934 0.985 . S
C948 C949 1.363 1_545 S
C948 C954 1.379 . S
C948 N956 1.356 . S
C949 C948 1.363 1_565 S
C949 C955 1.363 . S
C950 C951 1.363 1_565 S
C950 C955 1.379 . S
C950 N957 1.356 . S
C951 C950 1.363 1_545 S
C951 C954 1.363 . S
N952 C954 1.356 . S
N952 H964 0.984 . S
N952 H965 0.985 . S
N953 C955 1.356 . S
N953 H958 0.984 . S
N953 H959 0.985 . S
C954 C948 1.379 . S
C954 C951 1.363 . S
C954 N952 1.356 . S
C955 C949 1.363 . S
C955 C950 1.379 . S
C955 N953 1.356 . S
N956 C948 1.356 . S
N956 H962 0.984 . S
N956 H963 0.984 . S
N957 C950 1.356 . S
N957 H960 0.984 . S
N957 H961 0.985 . S
H958 N953 0.984 . S
H959 N953 0.985 . S
H960 N957 0.984 . S
H961 N957 0.985 . S
H962 N956 0.984 . S
H963 N956 0.984 . S
H964 N952 0.984 . S
H965 N952 0.985 . S
C966 C967 1.363 . S
C966 C972 1.379 . S
C966 N974 1.356 . S
C967 C966 1.363 . S
C967 C973 1.363 1_545 S
C968 C969 1.363 1_565 S
C968 C973 1.379 . S
C968 N975 1.356 . S
C969 C968 1.363 1_545 S
C969 C972 1.363 . S
N970 C972 1.356 . S
N970 H982 0.984 . S
N970 H983 0.985 . S
N971 C973 1.356 . S
N971 H976 0.984 . S
N971 H977 0.985 . S
C972 C966 1.379 . S
C972 C969 1.363 . S
C972 N970 1.356 . S
C973 C967 1.363 1_565 S
C973 C968 1.379 . S
C973 N971 1.356 . S
N974 C966 1.356 . S
N974 H980 0.984 . S
N974 H981 0.984 . S
N975 C968 1.356 . S
N975 H978 0.984 . S
N975 H979 0.985 . S
H976 N971 0.984 . S
H977 N971 0.985 . S
H978 N975 0.984 . S
H979 N975 0.985 . S
H980 N974 0.984 . S
H981 N974 0.984 . S
H982 N970 0.984 . S
H983 N970 0.985 . S
C984 C985 1.363 . S
C984 C990 1.379 . S
C984 N992 1.356 . S
C985 C984 1.363 . S
C985 C991 1.363 . S
C986 C987 1.363 . S
C986 C991 1.379 . S
C986 N993 1.356 . S
C987 C986 1.363 . S
C987 C990 1.363 . S
N988 C990 1.356 . S
N988 H1000 0.984 . S
N988 H1001 0.985 . S
N989 C991 1.356 . S
N989 H994 0.984 . S
N989 H995 0.985 . S
C990 C984 1.379 . S
C990 C987 1.363 . S
C990 N988 1.356 . S
C991 C985 1.363 . S
C991 C986 1.379 . S
C991 N989 1.356 . S
N992 C984 1.356 . S
N992 H998 0.984 . S
N992 H999 0.984 . S
N993 C986 1.356 . S
N993 H996 0.984 . S
N993 H997 0.985 . S
H994 N989 0.984 . S
H995 N989 0.985 . S
H996 N993 0.984 . S
H997 N993 0.985 . S
H998 N992 0.984 . S
H999 N992 0.984 . S
H1000 N988 0.984 . S
H1001 N988 0.985 . S
C1002 C1003 1.363 . S
C1002 C1008 1.379 . S
C1002 N1010 1.356 . S
C1003 C1002 1.363 . S
C1003 C1009 1.363 1_554 S
C1004 C1005 1.363 1_556 S
C1004 C1009 1.379 . S
C1004 N1011 1.356 . S
C1005 C1004 1.363 1_554 S
C1005 C1008 1.363 . S
N1006 C1008 1.356 . S
N1006 H1018 0.984 . S
N1006 H1019 0.985 . S
N1007 C1009 1.356 . S
N1007 H1012 0.984 . S
N1007 H1013 0.985 . S
C1008 C1002 1.379 . S
C1008 C1005 1.363 . S
C1008 N1006 1.356 . S
C1009 C1003 1.363 1_556 S
C1009 C1004 1.379 . S
C1009 N1007 1.356 . S
N1010 C1002 1.356 . S
N1010 H1016 0.984 . S
N1010 H1017 0.984 . S
N1011 C1004 1.356 . S
N1011 H1014 0.984 . S
N1011 H1015 0.985 . S
H1012 N1007 0.984 . S
H1013 N1007 0.985 . S
H1014 N1011 0.984 . S
H1015 N1011 0.985 . S
H1016 N1010 0.984 . S
H1017 N1010 0.984 . S
H1018 N1006 0.984 . S
H1019 N1006 0.985 . S
C1020 C1021 1.363 . S
C1020 C1026 1.379 . S
C1020 N1028 1.356 . S
C1021 C1020 1.363 . S
C1021 C1027 1.363 . S
C1022 C1023 1.363 . S
C1022 C1027 1.379 . S
C1022 N1029 1.356 . S
C1023 C1022 1.363 . S
C1023 C1026 1.363 . S
N1024 C1026 1.356 . S
N1024 H1036 0.984 . S
N1024 H1037 0.985 . S
N1025 C1027 1.356 . S
N1025 H1030 0.984 . S
N1025 H1031 0.985 . S
C1026 C1020 1.379 . S
C1026 C1023 1.363 . S
C1026 N1024 1.356 . S
C1027 C1021 1.363 . S
C1027 C1022 1.379 . S
C1027 N1025 1.356 . S
N1028 C1020 1.356 . S
N1028 H1034 0.984 . S
N1028 H1035 0.984 . S
N1029 C1022 1.356 . S
N1029 H1032 0.984 . S
N1029 H1033 0.985 . S
H1030 N1025 0.984 . S
H1031 N1025 0.985 . S
H1032 N1029 0.984 . S
H1033 N1029 0.985 . S
H1034 N1028 0.984 . S
H1035 N1028 0.984 . S
H1036 N1024 0.984 . S
H1037 N1024 0.985 . S
C1038 C1039 1.363 . S
C1038 C1044 1.379 . S
C1038 N1046 1.356 . S
C1039 C1038 1.363 . S
C1039 C1045 1.363 . S
C1040 C1041 1.363 . S
C1040 C1045 1.379 1_554 S
C1040 N1047 1.356 . S
C1041 C1040 1.363 . S
C1041 C1044 1.363 1_554 S
N1042 C1044 1.356 . S
N1042 H1054 0.984 . S
N1042 H1055 0.985 . S
N1043 C1045 1.356 . S
N1043 H1048 0.984 . S
N1043 H1049 0.985 1_556 S
C1044 C1038 1.379 . S
C1044 C1041 1.363 1_556 S
C1044 N1042 1.356 . S
C1045 C1039 1.363 . S
C1045 C1040 1.379 1_556 S
C1045 N1043 1.356 . S
N1046 C1038 1.356 . S
N1046 H1052 0.984 . S
N1046 H1053 0.984 . S
N1047 C1040 1.356 . S
N1047 H1050 0.984 . S
N1047 H1051 0.985 . S
H1048 N1043 0.984 . S
H1049 N1043 0.985 1_554 S
H1050 N1047 0.984 . S
H1051 N1047 0.985 . S
H1052 N1046 0.984 . S
H1053 N1046 0.984 . S
H1054 N1042 0.984 . S
H1055 N1042 0.985 . S
C1056 C1057 1.363 . S
C1056 C1062 1.379 . S
C1056 N1064 1.356 . S
C1057 C1056 1.363 . S
C1057 C1063 1.363 . S
C1058 C1059 1.363 . S
C1058 C1063 1.379 . S
C1058 N1065 1.356 . S
C1059 C1058 1.363 . S
C1059 C1062 1.363 . S
N1060 C1062 1.356 . S
N1060 H1072 0.984 . S
N1060 H1073 0.985 . S
N1061 C1063 1.356 . S
N1061 H1066 0.984 . S
N1061 H1067 0.985 . S
C1062 C1056 1.379 . S
C1062 C1059 1.363 . S
C1062 N1060 1.356 . S
C1063 C1057 1.363 . S
C1063 C1058 1.379 . S
C1063 N1061 1.356 . S
N1064 C1056 1.356 . S
N1064 H1070 0.984 . S
N1064 H1071 0.984 . S
N1065 C1058 1.356 . S
N1065 H1068 0.984 . S
N1065 H1069 0.985 . S
H1066 N1061 0.984 . S
H1067 N1061 0.985 . S
H1068 N1065 0.984 . S
H1069 N1065 0.985 . S
H1070 N1064 0.984 . S
H1071 N1064 0.984 . S
H1072 N1060 0.984 . S
H1073 N1060 0.985 . S
C1074 C1075 1.363 . S
C1074 C1080 1.379 . S
C1074 N1082 1.356 . S
C1075 C1074 1.363 . S
C1075 C1081 1.363 1_455 S
C1076 C1077 1.363 1_655 S
C1076 C1081 1.379 . S
C1076 N1083 1.356 . S
C1077 C1076 1.363 1_455 S
C1077 C1080 1.363 . S
N1078 C1080 1.356 . S
N1078 H1090 0.984 . S
N1078 H1091 0.985 . S
N1079 C1081 1.356 . S
N1079 H1084 0.984 . S
N1079 H1085 0.985 . S
C1080 C1074 1.379 . S
C1080 C1077 1.363 . S
C1080 N1078 1.356 . S
C1081 C1075 1.363 1_655 S
C1081 C1076 1.379 . S
C1081 N1079 1.356 . S
N1082 C1074 1.356 . S
N1082 H1088 0.984 . S
N1082 H1089 0.984 . S
N1083 C1076 1.356 . S
N1083 H1086 0.984 . S
N1083 H1087 0.985 . S
H1084 N1079 0.984 . S
H1085 N1079 0.985 . S
H1086 N1083 0.984 . S
H1087 N1083 0.985 . S
H1088 N1082 0.984 . S
H1089 N1082 0.984 . S
H1090 N1078 0.984 . S
H1091 N1078 0.985 . S
C1092 C1093 1.363 . S
C1092 C1098 1.379 . S
C1092 N1100 1.356 . S
C1093 C1092 1.363 . S
C1093 C1099 1.363 . S
C1094 C1095 1.363 . S
C1094 C1099 1.379 . S
C1094 N1101 1.356 . S
C1095 C1094 1.363 . S
C1095 C1098 1.363 . S
N1096 C1098 1.356 . S
N1096 H1108 0.984 . S
N1096 H1109 0.985 . S
N1097 C1099 1.356 . S
N1097 H1102 0.984 . S
N1097 H1103 0.985 . S
C1098 C1092 1.379 . S
C1098 C1095 1.363 . S
C1098 N1096 1.356 . S
C1099 C1093 1.363 . S
C1099 C1094 1.379 . S
C1099 N1097 1.356 . S
N1100 C1092 1.356 . S
N1100 H1106 0.984 . S
N1100 H1107 0.984 . S
N1101 C1094 1.356 . S
N1101 H1104 0.984 . S
N1101 H1105 0.985 . S
H1102 N1097 0.984 . S
H1103 N1097 0.985 . S
H1104 N1101 0.984 . S
H1105 N1101 0.985 . S
H1106 N1100 0.984 . S
H1107 N1100 0.984 . S
H1108 N1096 0.984 . S
H1109 N1096 0.985 . S
C1110 C1111 1.363 1_455 S
C1110 C1116 1.379 . S
C1110 N1118 1.356 . S
C1111 C1110 1.363 1_655 S
C1111 C1117 1.363 . S
C1112 C1113 1.363 1_655 S
C1112 C1117 1.379 . S
C1112 N1119 1.356 . S
C1113 C1112 1.363 1_455 S
C1113 C1116 1.363 . S
N1114 C1116 1.356 . S
N1114 H1126 0.984 . S
N1114 H1127 0.985 . S
N1115 C1117 1.356 . S
N1115 H1120 0.984 . S
N1115 H1121 0.985 . S
C1116 C1110 1.379 . S
C1116 C1113 1.363 . S
C1116 N1114 1.356 . S
C1117 C1111 1.363 . S
C1117 C1112 1.379 . S
C1117 N1115 1.356 . S
N1118 C1110 1.356 . S
N1118 H1124 0.984 . S
N1118 H1125 0.984 1_455 S
N1119 C1112 1.356 . S
N1119 H1122 0.984 . S
N1119 H1123 0.985 . S
H1120 N1115 0.984 . S
H1121 N1115 0.985 . S
H1122 N1119 0.984 . S
H1123 N1119 0.985 . S
H1124 N1118 0.984 . S
H1125 N1118 0.984 1_655 S
H1126 N1114 0.984 . S
H1127 N1114 0.985 . S
C1128 C1129 1.363 . S
C1128 C1134 1.379 . S
C1128 N1136 1.356 . S
C1129 C1128 1.363 . S
C1129 C1135 1.363 . S
C1130 C1131 1.363 . S
C1130 C1135 1.379 . S
C1130 N1137 1.356 . S
C1131 C1130 1.363 . S
C1131 C1134 1.363 . S
N1132 C1134 1.356 . S
N1132 H1144 0.984 . S
N1132 H1145 0.985 . S
N1133 C1135 1.356 . S
N1133 H1138 0.984 . S
N1133 H1139 0.985 . S
C1134 C1128 1.379 . S
C1134 C1131 1.363 . S
C1134 N1132 1.356 . S
C1135 C1129 1.363 . S
C1135 C1130 1.379 . S
C1135 N1133 1.356 . S
N1136 C1128 1.356 . S
N1136 H1142 0.984 . S
N1136 H1143 0.984 . S
N1137 C1130 1.356 . S
N1137 H1140 0.984 . S
N1137 H1141 0.985 . S
H1138 N1133 0.984 . S
H1139 N1133 0.985 . S
H1140 N1137 0.984 . S
H1141 N1137 0.985 . S
H1142 N1136 0.984 . S
H1143 N1136 0.984 . S
H1144 N1132 0.984 . S
H1145 N1132 0.985 . S
C1146 C1147 1.363 . S
C1146 C1152 1.379 . S
C1146 N1154 1.356 . S
C1147 C1146 1.363 . S
C1147 C1153 1.363 . S
C1148 C1149 1.363 . S
C1148 C1153 1.379 . S
C1148 N1155 1.356 . S
C1149 C1148 1.363 . S
C1149 C1152 1.363 . S
N1150 C1152 1.356 . S
N1150 H1162 0.984 . S
N1150 H1163 0.985 . S
N1151 C1153 1.356 . S
N1151 H1156 0.984 . S
N1151 H1157 0.985 . S
C1152 C1146 1.379 . S
C1152 C1149 1.363 . S
C1152 N1150 1.356 . S
C1153 C1147 1.363 . S
C1153 C1148 1.379 . S
C1153 N1151 1.356 . S
N1154 C1146 1.356 . S
N1154 H1160 0.984 . S
N1154 H1161 0.984 . S
N1155 C1148 1.356 . S
N1155 H1158 0.984 . S
N1155 H1159 0.985 . S
H1156 N1151 0.984 . S
H1157 N1151 0.985 . S
H1158 N1155 0.984 . S
H1159 N1155 0.985 . S
H1160 N1154 0.984 . S
H1161 N1154 0.984 . S
H1162 N1150 0.984 . S
H1163 N1150 0.985 . S
C1164 C1165 1.363 . S
C1164 C1170 1.379 . S
C1164 N1172 1.356 . S
C1165 C1164 1.363 . S
C1165 C1171 1.363 1_545 S
C1166 C1167 1.363 . S
C1166 C1171 1.379 . S
C1166 N1173 1.356 . S
C1167 C1166 1.363 . S
C1167 C1170 1.363 1_565 S
N1168 C1170 1.356 . S
N1168 H1180 0.984 . S
N1168 H1181 0.985 . S
N1169 C1171 1.356 . S
N1169 H1174 0.984 . S
N1169 H1175 0.985 . S
C1170 C1164 1.379 . S
C1170 C1167 1.363 1_545 S
C1170 N1168 1.356 . S
C1171 C1165 1.363 1_565 S
C1171 C1166 1.379 . S
C1171 N1169 1.356 . S
N1172 C1164 1.356 . S
N1172 H1178 0.984 . S
N1172 H1179 0.984 . S
N1173 C1166 1.356 . S
N1173 H1176 0.984 . S
N1173 H1177 0.985 . S
H1174 N1169 0.984 . S
H1175 N1169 0.985 . S
H1176 N1173 0.984 . S
H1177 N1173 0.985 . S
H1178 N1172 0.984 . S
H1179 N1172 0.984 . S
H1180 N1168 0.984 . S
H1181 N1168 0.985 . S
C1182 C1183 1.363 1_545 S
C1182 C1188 1.379 . S
C1182 N1190 1.356 . S
C1183 C1182 1.363 1_565 S
C1183 C1189 1.363 . S
C1184 C1185 1.363 . S
C1184 C1189 1.379 . S
C1184 N1191 1.356 . S
C1185 C1184 1.363 . S
C1185 C1188 1.363 1_565 S
N1186 C1188 1.356 . S
N1186 H1198 0.984 . S
N1186 H1199 0.985 . S
N1187 C1189 1.356 . S
N1187 H1192 0.984 . S
N1187 H1193 0.985 . S
C1188 C1182 1.379 . S
C1188 C1185 1.363 1_545 S
C1188 N1186 1.356 . S
C1189 C1183 1.363 . S
C1189 C1184 1.379 . S
C1189 N1187 1.356 . S
N1190 C1182 1.356 . S
N1190 H1196 0.984 . S
N1190 H1197 0.984 1_545 S
N1191 C1184 1.356 . S
N1191 H1194 0.984 . S
N1191 H1195 0.985 . S
H1192 N1187 0.984 . S
H1193 N1187 0.985 . S
H1194 N1191 0.984 . S
H1195 N1191 0.985 . S
H1196 N1190 0.984 . S
H1197 N1190 0.984 1_565 S
H1198 N1186 0.984 . S
H1199 N1186 0.985 . S
C1200 C1201 1.363 . S
C1200 C1206 1.379 . S
C1200 N1208 1.356 . S
C1201 C1200 1.363 . S
C1201 C1207 1.363 . S
C1202 C1203 1.363 . S
C1202 C1207 1.379 . S
C1202 N1209 1.356 . S
C1203 C1202 1.363 . S
C1203 C1206 1.363 . S
N1204 C1206 1.356 . S
N1204 H1216 0.984 . S
N1204 H1217 0.985 . S
N1205 C1207 1.356 . S
N1205 H1210 0.984 . S
N1205 H1211 0.985 . S
C1206 C1200 1.379 . S
C1206 C1203 1.363 . S
C1206 N1204 1.356 . S
C1207 C1201 1.363 . S
C1207 C1202 1.379 . S
C1207 N1205 1.356 . S
N1208 C1200 1.356 . S
N1208 H1214 0.984 . S
N1208 H1215 0.984 . S
N1209 C1202 1.356 . S
N1209 H1212 0.984 . S
N1209 H1213 0.985 . S
H1210 N1205 0.984 . S
H1211 N1205 0.985 . S
H1212 N1209 0.984 . S
H1213 N1209 0.985 . S
H1214 N1208 0.984 . S
H1215 N1208 0.984 . S
H1216 N1204 0.984 . S
H1217 N1204 0.985 . S
C1218 C1219 1.363 . S
C1218 C1224 1.379 . S
C1218 N1226 1.356 . S
C1219 C1218 1.363 . S
C1219 C1225 1.363 1_556 S
C1220 C1221 1.363 1_554 S
C1220 C1225 1.379 . S
C1220 N1227 1.356 . S
C1221 C1220 1.363 1_556 S
C1221 C1224 1.363 . S
N1222 C1224 1.356 . S
N1222 H1234 0.984 . S
N1222 H1235 0.985 . S
N1223 C1225 1.356 . S
N1223 H1228 0.984 . S
N1223 H1229 0.985 . S
C1224 C1218 1.379 . S
C1224 C1221 1.363 . S
C1224 N1222 1.356 . S
C1225 C1219 1.363 1_554 S
C1225 C1220 1.379 . S
C1225 N1223 1.356 . S
N1226 C1218 1.356 . S
N1226 H1232 0.984 . S
N1226 H1233 0.984 . S
N1227 C1220 1.356 . S
N1227 H1230 0.984 . S
N1227 H1231 0.985 . S
H1228 N1223 0.984 . S
H1229 N1223 0.985 . S
H1230 N1227 0.984 . S
H1231 N1227 0.985 . S
H1232 N1226 0.984 . S
H1233 N1226 0.984 . S
H1234 N1222 0.984 . S
H1235 N1222 0.985 . S
C1236 C1237 1.363 . S
C1236 C1242 1.379 . S
C1236 N1244 1.356 . S
C1237 C1236 1.363 . S
C1237 C1243 1.363 . S
C1238 C1239 1.363 . S
C1238 C1243 1.379 . S
C1238 N1245 1.356 . S
C1239 C1238 1.363 . S
C1239 C1242 1.363 . S
N1240 C1242 1.356 . S
N1240 H1252 0.984 . S
N1240 H1253 0.985 . S
N1241 C1243 1.356 . S
N1241 H1246 0.984 . S
N1241 H1247 0.985 . S
C1242 C1236 1.379 . S
C1242 C1239 1.363 . S
C1242 N1240 1.356 . S
C1243 C1237 1.363 . S
C1243 C1238 1.379 . S
C1243 N1241 1.356 . S
N1244 C1236 1.356 . S
N1244 H1250 0.984 . S
N1244 H1251 0.984 . S
N1245 C1238 1.356 . S
N1245 H1248 0.984 . S
N1245 H1249 0.985 . S
H1246 N1241 0.984 . S
H1247 N1241 0.985 . S
H1248 N1245 0.984 . S
H1249 N1245 0.985 . S
H1250 N1244 0.984 . S
H1251 N1244 0.984 . S
H1252 N1240 0.984 . S
H1253 N1240 0.985 . S
C1254 C1255 1.363 . S
C1254 C1260 1.379 . S
C1254 N1262 1.356 . S
C1255 C1254 1.363 . S
C1255 C1261 1.363 1_554 S
C1256 C1257 1.363 . S
C1256 C1261 1.379 . S
C1256 N1263 1.356 . S
C1257 C1256 1.363 . S
C1257 C1260 1.363 1_556 S
N1258 C1260 1.356 . S
N1258 H1270 0.984 . S
N1258 H1271 0.985 . S
N1259 C1261 1.356 . S
N1259 H1264 0.984 . S
N1259 H1265 0.985 . S
C1260 C1254 1.379 . S
C1260 C1257 1.363 1_554 S
C1260 N1258 1.356 . S
C1261 C1255 1.363 1_556 S
C1261 C1256 1.379 . S
C1261 N1259 1.356 . S
N1262 C1254 1.356 . S
N1262 H1268 0.984 . S
N1262 H1269 0.984 . S
N1263 C1256 1.356 . S
N1263 H1266 0.984 . S
N1263 H1267 0.985 . S
H1264 N1259 0.984 . S
H1265 N1259 0.985 . S
H1266 N1263 0.984 . S
H1267 N1263 0.985 . S
H1268 N1262 0.984 . S
H1269 N1262 0.984 . S
H1270 N1258 0.984 . S
H1271 N1258 0.985 . S
C1272 C1273 1.363 . S
C1272 C1278 1.379 . S
C1272 N1280 1.356 . S
C1273 C1272 1.363 . S
C1273 C1279 1.363 . S
C1274 C1275 1.363 . S
C1274 C1279 1.379 . S
C1274 N1281 1.356 . S
C1275 C1274 1.363 . S
C1275 C1278 1.363 . S
N1276 C1278 1.356 . S
N1276 H1288 0.984 . S
N1276 H1289 0.985 . S
N1277 C1279 1.356 . S
N1277 H1282 0.984 . S
N1277 H1283 0.985 . S
C1278 C1272 1.379 . S
C1278 C1275 1.363 . S
C1278 N1276 1.356 . S
C1279 C1273 1.363 . S
C1279 C1274 1.379 . S
C1279 N1277 1.356 . S
N1280 C1272 1.356 . S
N1280 H1286 0.984 . S
N1280 H1287 0.984 . S
N1281 C1274 1.356 . S
N1281 H1284 0.984 . S
N1281 H1285 0.985 . S
H1282 N1277 0.984 . S
H1283 N1277 0.985 . S
H1284 N1281 0.984 . S
H1285 N1281 0.985 . S
H1286 N1280 0.984 . S
H1287 N1280 0.984 . S
H1288 N1276 0.984 . S
H1289 N1276 0.985 . S
C1290 C1291 1.363 . S
C1290 C1296 1.379 1_655 S
C1290 N1298 1.356 1_655 S
C1291 C1290 1.363 . S
C1291 C1297 1.363 . S
C1292 C1293 1.363 . S
C1292 C1297 1.379 . S
C1292 N1299 1.356 . S
C1293 C1292 1.363 . S
C1293 C1296 1.363 1_655 S
N1294 C1296 1.356 . S
N1294 H1306 0.984 . S
N1294 H1307 0.985 . S
N1295 C1297 1.356 . S
N1295 H1300 0.984 . S
N1295 H1301 0.985 . S
C1296 C1290 1.379 1_455 S
C1296 C1293 1.363 1_455 S
C1296 N1294 1.356 . S
C1297 C1291 1.363 . S
C1297 C1292 1.379 . S
C1297 N1295 1.356 . S
N1298 C1290 1.356 1_455 S
N1298 H1304 0.984 . S
N1298 H1305 0.984 1_455 S
N1299 C1292 1.356 . S
N1299 H1302 0.984 . S
N1299 H1303 0.985 . S
H1300 N1295 0.984 . S
H1301 N1295 0.985 . S
H1302 N1299 0.984 . S
H1303 N1299 0.985 . S
H1304 N1298 0.984 . S
H1305 N1298 0.984 1_655 S
H1306 N1294 0.984 . S
H1307 N1294 0.985 . S
C1308 C1309 1.363 . S
C1308 C1314 1.379 . S
C1308 N1316 1.356 . S
C1309 C1308 1.363 . S
C1309 C1315 1.363 . S
C1310 C1311 1.363 . S
C1310 C1315 1.379 . S
C1310 N1317 1.356 . S
C1311 C1310 1.363 . S
C1311 C1314 1.363 . S
N1312 C1314 1.356 . S
N1312 H1324 0.984 . S
N1312 H1325 0.985 . S
N1313 C1315 1.356 . S
N1313 H1318 0.984 . S
N1313 H1319 0.985 . S
C1314 C1308 1.379 . S
C1314 C1311 1.363 . S
C1314 N1312 1.356 . S
C1315 C1309 1.363 . S
C1315 C1310 1.379 . S
C1315 N1313 1.356 . S
N1316 C1308 1.356 . S
N1316 H1322 0.984 . S
N1316 H1323 0.984 . S
N1317 C1310 1.356 . S
N1317 H1320 0.984 . S
N1317 H1321 0.985 . S
H1318 N1313 0.984 . S
H1319 N1313 0.985 . S
H1320 N1317 0.984 . S
H1321 N1317 0.985 . S
H1322 N1316 0.984 . S
H1323 N1316 0.984 . S
H1324 N1312 0.984 . S
H1325 N1312 0.985 . S
C1326 C1327 1.363 1_655 S
C1326 C1332 1.379 . S
C1326 N1334 1.356 . S
C1327 C1326 1.363 1_455 S
C1327 C1333 1.363 . S
C1328 C1329 1.363 1_455 S
C1328 C1333 1.379 . S
C1328 N1335 1.356 . S
C1329 C1328 1.363 1_655 S
C1329 C1332 1.363 . S
N1330 C1332 1.356 . S
N1330 H1342 0.984 . S
N1330 H1343 0.985 . S
N1331 C1333 1.356 . S
N1331 H1336 0.984 . S
N1331 H1337 0.985 . S
C1332 C1326 1.379 . S
C1332 C1329 1.363 . S
C1332 N1330 1.356 . S
C1333 C1327 1.363 . S
C1333 C1328 1.379 . S
C1333 N1331 1.356 . S
N1334 C1326 1.356 . S
N1334 H1340 0.984 . S
N1334 H1341 0.984 1_655 S
N1335 C1328 1.356 . S
N1335 H1338 0.984 . S
N1335 H1339 0.985 . S
H1336 N1331 0.984 . S
H1337 N1331 0.985 . S
H1338 N1335 0.984 . S
H1339 N1335 0.985 . S
H1340 N1334 0.984 . S
H1341 N1334 0.984 1_455 S
H1342 N1330 0.984 . S
H1343 N1330 0.985 . S
C1344 C1345 1.363 . S
C1344 C1350 1.379 . S
C1344 N1352 1.356 . S
C1345 C1344 1.363 . S
C1345 C1351 1.363 . S
C1346 C1347 1.363 . S
C1346 C1351 1.379 . S
C1346 N1353 1.356 . S
C1347 C1346 1.363 . S
C1347 C1350 1.363 . S
N1348 C1350 1.356 . S
N1348 H1360 0.984 . S
N1348 H1361 0.985 . S
N1349 C1351 1.356 . S
N1349 H1354 0.984 . S
N1349 H1355 0.985 . S
C1350 C1344 1.379 . S
C1350 C1347 1.363 . S
C1350 N1348 1.356 . S
C1351 C1345 1.363 . S
C1351 C1346 1.379 . S
C1351 N1349 1.356 . S
N1352 C1344 1.356 . S
N1352 H1358 0.984 . S
N1352 H1359 0.984 . S
N1353 C1346 1.356 . S
N1353 H1356 0.984 . S
N1353 H1357 0.985 . S
H1354 N1349 0.984 . S
H1355 N1349 0.985 . S
H1356 N1353 0.984 . S
H1357 N1353 0.985 . S
H1358 N1352 0.984 . S
H1359 N1352 0.984 . S
H1360 N1348 0.984 . S
H1361 N1348 0.985 . S
C1362 C1363 1.363 . S
C1362 C1368 1.379 . S
C1362 N1370 1.356 . S
C1363 C1362 1.363 . S
C1363 C1369 1.363 . S
C1364 C1365 1.363 . S
C1364 C1369 1.379 . S
C1364 N1371 1.356 . S
C1365 C1364 1.363 . S
C1365 C1368 1.363 . S
N1366 C1368 1.356 . S
N1366 H1378 0.984 . S
N1366 H1379 0.985 . S
N1367 C1369 1.356 . S
N1367 H1372 0.984 . S
N1367 H1373 0.985 . S
C1368 C1362 1.379 . S
C1368 C1365 1.363 . S
C1368 N1366 1.356 . S
C1369 C1363 1.363 . S
C1369 C1364 1.379 . S
C1369 N1367 1.356 . S
N1370 C1362 1.356 . S
N1370 H1376 0.984 . S
N1370 H1377 0.984 . S
N1371 C1364 1.356 . S
N1371 H1374 0.984 . S
N1371 H1375 0.985 . S
H1372 N1367 0.984 . S
H1373 N1367 0.985 . S
H1374 N1371 0.984 . S
H1375 N1371 0.985 . S
H1376 N1370 0.984 . S
H1377 N1370 0.984 . S
H1378 N1366 0.984 . S
H1379 N1366 0.985 . S
C1380 C1381 1.380 . S
C1380 C1386 1.390 . S
C1380 N1388 1.330 1_545 S
C1381 C1380 1.380 . S
C1381 C1387 1.363 . S
C1382 C1383 1.363 . S
C1382 C1387 1.379 . S
C1382 N1389 1.356 . S
C1383 C1382 1.363 . S
C1383 C1386 1.363 . S
N1384 C1386 1.356 . S
N1384 H1396 0.984 1_545 S
N1384 H1397 0.985 . S
N1385 C1387 1.356 . S
N1385 H1390 0.984 . S
N1385 H1391 0.985 . S
C1386 C1380 1.390 . S
C1386 C1383 1.363 . S
C1386 N1384 1.356 . S
C1387 C1381 1.363 . S
C1387 C1382 1.379 . S
C1387 N1385 1.356 . S
N1388 C1380 1.330 1_565 S
N1388 H1394 0.984 . S
N1388 H1395 0.984 . S
N1389 C1382 1.356 . S
N1389 H1392 0.984 . S
N1389 H1393 0.985 . S
H1390 N1385 0.984 . S
H1391 N1385 0.985 . S
H1392 N1389 0.984 . S
H1393 N1389 0.985 . S
H1394 N1388 0.984 . S
H1395 N1388 0.984 . S
H1396 N1384 0.984 1_565 S
H1397 N1384 0.985 . S
C1398 C1399 1.363 . S
C1398 C1404 1.379 . S
C1398 N1406 1.356 . S
C1399 C1398 1.363 . S
C1399 C1405 1.363 . S
C1400 C1401 1.363 . S
C1400 C1405 1.379 . S
C1400 N1407 1.356 . S
C1401 C1400 1.363 . S
C1401 C1404 1.363 . S
N1402 C1404 1.356 . S
N1402 H1414 0.984 . S
N1402 H1415 0.985 . S
N1403 C1405 1.356 1_545 S
N1403 H1408 0.984 . S
N1403 H1409 0.985 . S
C1404 C1398 1.379 . S
C1404 C1401 1.363 . S
C1404 N1402 1.356 . S
C1405 C1399 1.363 . S
C1405 C1400 1.379 . S
C1405 N1403 1.356 1_565 S
N1406 C1398 1.356 . S
N1406 H1412 0.984 . S
N1406 H1413 0.984 . S
N1407 C1400 1.356 . S
N1407 H1410 0.984 . S
N1407 H1411 0.985 1_565 S
H1408 N1403 0.984 . S
H1409 N1403 0.985 . S
H1410 N1407 0.984 . S
H1411 N1407 0.985 1_545 S
H1412 N1406 0.984 . S
H1413 N1406 0.984 . S
H1414 N1402 0.984 . S
H1415 N1402 0.985 . S
C1416 C1417 1.363 . S
C1416 C1422 1.379 . S
C1416 N1424 1.356 . S
C1417 C1416 1.363 . S
C1417 C1423 1.363 . S
C1418 C1419 1.363 . S
C1418 C1423 1.379 . S
C1418 N1425 1.356 . S
C1419 C1418 1.363 . S
C1419 C1422 1.363 . S
N1420 C1422 1.356 . S
N1420 H1432 0.984 . S
N1420 H1433 0.985 . S
N1421 C1423 1.356 . S
N1421 H1426 0.984 . S
N1421 H1427 0.985 . S
C1422 C1416 1.379 . S
C1422 C1419 1.363 . S
C1422 N1420 1.356 . S
C1423 C1417 1.363 . S
C1423 C1418 1.379 . S
C1423 N1421 1.356 . S
N1424 C1416 1.356 . S
N1424 H1430 0.984 . S
N1424 H1431 0.984 . S
N1425 C1418 1.356 . S
N1425 H1428 0.984 . S
N1425 H1429 0.985 . S
H1426 N1421 0.984 . S
H1427 N1421 0.985 . S
H1428 N1425 0.984 . S
H1429 N1425 0.985 . S
H1430 N1424 0.984 . S
H1431 N1424 0.984 . S
H1432 N1420 0.984 . S
H1433 N1420 0.985 . S
C1434 C1435 1.363 . S
C1434 C1440 1.379 . S
C1434 N1442 1.356 1_556 S
C1435 C1434 1.363 . S
C1435 C1441 1.363 . S
C1436 C1437 1.363 . S
C1436 C1441 1.379 . S
C1436 N1443 1.356 . S
C1437 C1436 1.363 . S
C1437 C1440 1.363 . S
N1438 C1440 1.356 . S
N1438 H1450 0.984 1_556 S
N1438 H1451 0.985 . S
N1439 C1441 1.356 . S
N1439 H1444 0.984 . S
N1439 H1445 0.985 . S
C1440 C1434 1.379 . S
C1440 C1437 1.363 . S
C1440 N1438 1.356 . S
C1441 C1435 1.363 . S
C1441 C1436 1.379 . S
C1441 N1439 1.356 . S
N1442 C1434 1.356 1_554 S
N1442 H1448 0.984 . S
N1442 H1449 0.984 . S
N1443 C1436 1.356 . S
N1443 H1446 0.984 . S
N1443 H1447 0.985 . S
H1444 N1439 0.984 . S
H1445 N1439 0.985 . S
H1446 N1443 0.984 . S
H1447 N1443 0.985 . S
H1448 N1442 0.984 . S
H1449 N1442 0.984 . S
H1450 N1438 0.984 1_554 S
H1451 N1438 0.985 . S
C1452 C1453 1.363 . S
C1452 C1458 1.379 . S
C1452 N1460 1.356 . S
C1453 C1452 1.363 . S
C1453 C1459 1.363 . S
C1454 C1455 1.363 . S
C1454 C1459 1.379 . S
C1454 N1461 1.356 . S
C1455 C1454 1.363 . S
C1455 C1458 1.363 . S
N1456 C1458 1.356 . S
N1456 H1468 0.984 . S
N1456 H1469 0.985 . S
N1457 C1459 1.356 . S
N1457 H1462 0.984 . S
N1457 H1463 0.985 . S
C1458 C1452 1.379 . S
C1458 C1455 1.363 . S
C1458 N1456 1.356 . S
C1459 C1453 1.363 . S
C1459 C1454 1.379 . S
C1459 N1457 1.356 . S
N1460 C1452 1.356 . S
N1460 H1466 0.984 . S
N1460 H1467 0.984 . S
N1461 C1454 1.356 . S
N1461 H1464 0.984 . S
N1461 H1465 0.985 . S
H1462 N1457 0.984 . S
H1463 N1457 0.985 . S
H1464 N1461 0.984 . S
H1465 N1461 0.985 . S
H1466 N1460 0.984 . S
H1467 N1460 0.984 . S
H1468 N1456 0.984 . S
H1469 N1456 0.985 . S
C1470 C1471 1.363 . S
C1470 C1476 1.379 . S
C1470 N1478 1.356 1_554 S
C1471 C1470 1.363 . S
C1471 C1477 1.363 . S
C1472 C1473 1.363 . S
C1472 C1477 1.379 . S
C1472 N1479 1.356 . S
C1473 C1472 1.363 . S
C1473 C1476 1.363 . S
N1474 C1476 1.356 . S
N1474 H1486 0.963 1_554 S
N1474 H1487 0.985 . S
N1475 C1477 1.356 . S
N1475 H1480 0.984 . S
N1475 H1481 0.985 . S
C1476 C1470 1.379 . S
C1476 C1473 1.363 . S
C1476 N1474 1.356 . S
C1477 C1471 1.363 . S
C1477 C1472 1.379 . S
C1477 N1475 1.356 . S
N1478 C1470 1.356 1_556 S
N1478 H1484 0.984 . S
N1478 H1485 0.984 . S
N1479 C1472 1.356 . S
N1479 H1482 0.984 . S
N1479 H1483 0.985 . S
H1480 N1475 0.984 . S
H1481 N1475 0.985 . S
H1482 N1479 0.984 . S
H1483 N1479 0.985 . S
H1484 N1478 0.984 . S
H1485 N1478 0.984 . S
H1486 N1474 0.963 1_556 S
H1487 N1474 0.985 . S
C1488 C1489 1.363 . S
C1488 C1494 1.379 . S
C1488 N1496 1.356 . S
C1489 C1488 1.363 . S
C1489 C1495 1.363 . S
C1490 C1491 1.363 . S
C1490 C1495 1.379 . S
C1490 N1497 1.356 . S
C1491 C1490 1.363 . S
C1491 C1494 1.363 . S
N1492 C1494 1.356 . S
N1492 H1504 0.984 . S
N1492 H1505 0.985 . S
N1493 C1495 1.356 . S
N1493 H1498 0.984 . S
N1493 H1499 0.985 . S
C1494 C1488 1.379 . S
C1494 C1491 1.363 . S
C1494 N1492 1.356 . S
C1495 C1489 1.363 . S
C1495 C1490 1.379 . S
C1495 N1493 1.356 . S
N1496 C1488 1.356 . S
N1496 H1502 0.984 . S
N1496 H1503 0.984 . S
N1497 C1490 1.356 . S
N1497 H1500 0.984 . S
N1497 H1501 0.985 . S
H1498 N1493 0.984 . S
H1499 N1493 0.985 . S
H1500 N1497 0.984 . S
H1501 N1497 0.985 . S
H1502 N1496 0.984 . S
H1503 N1496 0.984 . S
H1504 N1492 0.984 . S
H1505 N1492 0.985 . S
C1506 C1507 1.363 . S
C1506 C1512 1.379 . S
C1506 N1514 1.356 . S
C1507 C1506 1.363 . S
C1507 C1513 1.363 . S
C1508 C1509 1.363 . S
C1508 C1513 1.379 . S
C1508 N1515 1.356 . S
C1509 C1508 1.363 . S
C1509 C1512 1.363 . S
N1510 C1512 1.356 . S
N1510 H1522 0.984 . S
N1510 H1523 0.985 . S
N1511 C1513 1.356 . S
N1511 H1516 0.984 . S
N1511 H1517 0.985 . S
C1512 C1506 1.379 . S
C1512 C1509 1.363 . S
C1512 N1510 1.356 . S
C1513 C1507 1.363 . S
C1513 C1508 1.379 . S
C1513 N1511 1.356 . S
N1514 C1506 1.356 . S
N1514 H1520 0.984 1_655 S
N1514 H1521 0.982 1_655 S
N1515 C1508 1.356 . S
N1515 H1518 0.984 . S
N1515 H1519 0.985 . S
H1516 N1511 0.984 . S
H1517 N1511 0.985 . S
H1518 N1515 0.984 . S
H1519 N1515 0.985 . S
H1520 N1514 0.984 1_455 S
H1521 N1514 0.982 1_455 S
H1522 N1510 0.984 . S
H1523 N1510 0.985 . S
C1524 C1525 1.363 . S
C1524 C1530 1.379 . S
C1524 N1532 1.356 . S
C1525 C1524 1.363 . S
C1525 C1531 1.363 . S
C1526 C1527 1.363 . S
C1526 C1531 1.379 . S
C1526 N1533 1.356 . S
C1527 C1526 1.363 . S
C1527 C1530 1.363 . S
N1528 C1530 1.356 . S
N1528 H1540 0.984 . S
N1528 H1541 0.985 . S
N1529 C1531 1.356 . S
N1529 H1534 0.984 . S
N1529 H1535 0.985 . S
C1530 C1524 1.379 . S
C1530 C1527 1.363 . S
C1530 N1528 1.356 . S
C1531 C1525 1.363 . S
C1531 C1526 1.379 . S
C1531 N1529 1.356 . S
N1532 C1524 1.356 . S
N1532 H1538 0.984 . S
N1532 H1539 0.984 . S
N1533 C1526 1.356 . S
N1533 H1536 0.984 . S
N1533 H1537 0.985 . S
H1534 N1529 0.984 . S
H1535 N1529 0.985 . S
H1536 N1533 0.984 . S
H1537 N1533 0.985 . S
H1538 N1532 0.984 . S
H1539 N1532 0.984 . S
H1540 N1528 0.984 . S
H1541 N1528 0.985 . S
C1542 C1543 1.363 . S
C1542 C1548 1.379 . S
C1542 N1550 1.356 . S
C1543 C1542 1.363 . S
C1543 C1549 1.363 . S
C1544 C1545 1.363 . S
C1544 C1549 1.379 . S
C1544 N1551 1.356 . S
C1545 C1544 1.363 . S
C1545 C1548 1.363 . S
N1546 C1548 1.356 . S
N1546 H1558 0.984 . S
N1546 H1559 0.985 . S
N1547 C1549 1.356 . S
N1547 H1552 0.984 1_455 S
N1547 H1553 0.985 . S
C1548 C1542 1.379 . S
C1548 C1545 1.363 . S
C1548 N1546 1.356 . S
C1549 C1543 1.363 . S
C1549 C1544 1.379 . S
C1549 N1547 1.356 . S
N1550 C1542 1.356 . S
N1550 H1556 0.984 . S
N1550 H1557 0.984 . S
N1551 C1544 1.356 . S
N1551 H1554 0.984 . S
N1551 H1555 0.985 . S
H1552 N1547 0.984 1_655 S
H1553 N1547 0.985 . S
H1554 N1551 0.984 . S
H1555 N1551 0.985 . S
H1556 N1550 0.984 . S
H1557 N1550 0.984 . S
H1558 N1546 0.984 . S
H1559 N1546 0.985 . S
C1560 C1561 1.363 . S
C1560 C1566 1.379 . S
C1560 N1568 1.356 . S
C1561 C1560 1.363 . S
C1561 C1567 1.363 . S
C1562 C1563 1.363 . S
C1562 C1567 1.379 . S
C1562 N1569 1.356 . S
C1563 C1562 1.363 . S
C1563 C1566 1.363 . S
N1564 C1566 1.356 . S
N1564 H1576 0.984 . S
N1564 H1577 0.985 . S
N1565 C1567 1.356 . S
N1565 H1570 0.984 . S
N1565 H1571 0.985 . S
C1566 C1560 1.379 . S
C1566 C1563 1.363 . S
C1566 N1564 1.356 . S
C1567 C1561 1.363 . S
C1567 C1562 1.379 . S
C1567 N1565 1.356 . S
N1568 C1560 1.356 . S
N1568 H1574 0.984 . S
N1568 H1575 0.984 . S
N1569 C1562 1.356 . S
N1569 H1572 0.984 . S
N1569 H1573 0.985 . S
H1570 N1565 0.984 . S
H1571 N1565 0.985 . S
H1572 N1569 0.984 . S
H1573 N1569 0.985 . S
H1574 N1568 0.984 . S
H1575 N1568 0.984 . S
H1576 N1564 0.984 . S
H1577 N1564 0.985 . S
C1578 C1579 1.363 . S
C1578 C1584 1.379 . S
C1578 N1586 1.356 . S
C1579 C1578 1.363 . S
C1579 C1585 1.363 . S
C1580 C1581 1.363 . S
C1580 C1585 1.379 . S
C1580 N1587 1.356 . S
C1581 C1580 1.363 . S
C1581 C1584 1.363 . S
N1582 C1584 1.356 . S
N1582 H1594 0.984 . S
N1582 H1595 0.985 . S
N1583 C1585 1.356 . S
N1583 H1588 0.984 . S
N1583 H1589 0.985 . S
C1584 C1578 1.379 . S
C1584 C1581 1.363 . S
C1584 N1582 1.356 . S
C1585 C1579 1.363 . S
C1585 C1580 1.379 . S
C1585 N1583 1.356 . S
N1586 C1578 1.356 . S
N1586 H1592 0.984 . S
N1586 H1593 0.984 . S
N1587 C1580 1.356 . S
N1587 H1590 0.984 . S
N1587 H1591 0.985 . S
H1588 N1583 0.984 . S
H1589 N1583 0.985 . S
H1590 N1587 0.984 . S
H1591 N1587 0.985 . S
H1592 N1586 0.984 . S
H1593 N1586 0.984 . S
H1594 N1582 0.984 . S
H1595 N1582 0.985 . S
C1596 C1597 1.363 . S
C1596 C1602 1.379 . S
C1596 N1604 1.356 1_565 S
C1597 C1596 1.363 . S
C1597 C1603 1.363 . S
C1598 C1599 1.363 . S
C1598 C1603 1.379 . S
C1598 N1605 1.356 . S
C1599 C1598 1.363 . S
C1599 C1602 1.363 . S
N1600 C1602 1.356 . S
N1600 H1612 0.984 . S
N1600 H1613 0.985 . S
N1601 C1603 1.356 . S
N1601 H1606 0.984 . S
N1601 H1607 0.985 . S
C1602 C1596 1.379 . S
C1602 C1599 1.363 . S
C1602 N1600 1.356 . S
C1603 C1597 1.363 . S
C1603 C1598 1.379 . S
C1603 N1601 1.356 . S
N1604 C1596 1.356 1_545 S
N1604 H1610 0.984 . S
N1604 H1611 0.984 . S
N1605 C1598 1.356 . S
N1605 H1608 0.984 . S
N1605 H1609 0.985 . S
H1606 N1601 0.984 . S
H1607 N1601 0.985 . S
H1608 N1605 0.984 . S
H1609 N1605 0.985 . S
H1610 N1604 0.984 . S
H1611 N1604 0.984 . S
H1612 N1600 0.984 . S
H1613 N1600 0.985 . S
C1614 C1615 1.363 . S
C1614 C1620 1.379 . S
C1614 N1622 1.356 1_545 S
C1615 C1614 1.363 . S
C1615 C1621 1.363 . S
C1616 C1617 1.363 . S
C1616 C1621 1.379 . S
C1616 N1623 1.356 . S
C1617 C1616 1.363 . S
C1617 C1620 1.363 . S
N1618 C1620 1.356 . S
N1618 H1630 0.984 . S
N1618 H1631 0.985 . S
N1619 C1621 1.356 . S
N1619 H1624 0.984 . S
N1619 H1625 0.985 . S
C1620 C1614 1.379 . S
C1620 C1617 1.363 . S
C1620 N1618 1.356 . S
C1621 C1615 1.363 . S
C1621 C1616 1.379 . S
C1621 N1619 1.356 . S
N1622 C1614 1.356 1_565 S
N1622 H1628 0.984 . S
N1622 H1629 0.984 . S
N1623 C1616 1.356 . S
N1623 H1626 0.984 . S
N1623 H1627 0.985 . S
H1624 N1619 0.984 . S
H1625 N1619 0.985 . S
H1626 N1623 0.984 . S
H1627 N1623 0.985 . S
H1628 N1622 0.984 . S
H1629 N1622 0.984 . S
H1630 N1618 0.984 . S
H1631 N1618 0.985 . S
C1632 C1633 1.363 . S
C1632 C1638 1.379 . S
C1632 N1640 1.356 . S
C1633 C1632 1.363 . S
C1633 C1639 1.363 . S
C1634 C1635 1.363 . S
C1634 C1639 1.379 . S
C1634 N1641 1.356 . S
C1635 C1634 1.363 . S
C1635 C1638 1.363 . S
N1636 C1638 1.356 . S
N1636 H1648 0.984 . S
N1636 H1649 0.985 . S
N1637 C1639 1.356 . S
N1637 H1642 0.984 . S
N1637 H1643 0.985 . S
C1638 C1632 1.379 . S
C1638 C1635 1.363 . S
C1638 N1636 1.356 . S
C1639 C1633 1.363 . S
C1639 C1634 1.379 . S
C1639 N1637 1.356 . S
N1640 C1632 1.356 . S
N1640 H1646 0.984 . S
N1640 H1647 0.984 . S
N1641 C1634 1.356 . S
N1641 H1644 0.984 . S
N1641 H1645 0.985 . S
H1642 N1637 0.984 . S
H1643 N1637 0.985 . S
H1644 N1641 0.984 . S
H1645 N1641 0.985 . S
H1646 N1640 0.984 . S
H1647 N1640 0.984 . S
H1648 N1636 0.984 . S
H1649 N1636 0.985 . S
C1650 C1651 1.363 . S
C1650 C1656 1.379 . S
C1650 N1658 1.356 1_554 S
C1651 C1650 1.363 . S
C1651 C1657 1.363 . S
C1652 C1653 1.363 . S
C1652 C1657 1.379 . S
C1652 N1659 1.356 . S
C1653 C1652 1.363 . S
C1653 C1656 1.363 . S
N1654 C1656 1.356 . S
N1654 H1666 0.984 1_554 S
N1654 H1667 0.985 . S
N1655 C1657 1.356 . S
N1655 H1660 0.984 . S
N1655 H1661 0.985 . S
C1656 C1650 1.379 . S
C1656 C1653 1.363 . S
C1656 N1654 1.356 . S
C1657 C1651 1.363 . S
C1657 C1652 1.379 . S
C1657 N1655 1.356 . S
N1658 C1650 1.356 1_556 S
N1658 H1664 0.984 . S
N1658 H1665 0.984 . S
N1659 C1652 1.356 . S
N1659 H1662 0.984 . S
N1659 H1663 0.985 . S
H1660 N1655 0.984 . S
H1661 N1655 0.985 . S
H1662 N1659 0.984 . S
H1663 N1659 0.985 . S
H1664 N1658 0.984 . S
H1665 N1658 0.984 . S
H1666 N1654 0.984 1_556 S
H1667 N1654 0.985 . S
C1668 C1669 1.363 . S
C1668 C1674 1.379 . S
C1668 N1676 1.356 . S
C1669 C1668 1.363 . S
C1669 C1675 1.363 . S
C1670 C1671 1.363 . S
C1670 C1675 1.379 . S
C1670 N1677 1.356 . S
C1671 C1670 1.363 . S
C1671 C1674 1.363 . S
N1672 C1674 1.356 . S
N1672 H1684 0.984 . S
N1672 H1685 0.985 . S
N1673 C1675 1.356 . S
N1673 H1678 0.984 . S
N1673 H1679 0.985 . S
C1674 C1668 1.379 . S
C1674 C1671 1.363 . S
C1674 N1672 1.356 . S
C1675 C1669 1.363 . S
C1675 C1670 1.379 . S
C1675 N1673 1.356 . S
N1676 C1668 1.356 . S
N1676 H1682 0.984 . S
N1676 H1683 0.984 . S
N1677 C1670 1.356 . S
N1677 H1680 0.984 . S
N1677 H1681 0.985 . S
H1678 N1673 0.984 . S
H1679 N1673 0.985 . S
H1680 N1677 0.984 . S
H1681 N1677 0.985 . S
H1682 N1676 0.984 . S
H1683 N1676 0.984 . S
H1684 N1672 0.984 . S
H1685 N1672 0.985 . S
C1686 C1687 1.363 . S
C1686 C1692 1.379 . S
C1686 N1694 1.356 1_556 S
C1687 C1686 1.363 . S
C1687 C1693 1.363 . S
C1688 C1689 1.363 . S
C1688 C1693 1.379 . S
C1688 N1695 1.356 . S
C1689 C1688 1.363 . S
C1689 C1692 1.363 . S
N1690 C1692 1.356 . S
N1690 H1702 0.984 1_556 S
N1690 H1703 0.985 . S
N1691 C1693 1.356 . S
N1691 H1696 0.984 . S
N1691 H1697 0.985 . S
C1692 C1686 1.379 . S
C1692 C1689 1.363 . S
C1692 N1690 1.356 . S
C1693 C1687 1.363 . S
C1693 C1688 1.379 . S
C1693 N1691 1.356 . S
N1694 C1686 1.356 1_554 S
N1694 H1700 0.984 . S
N1694 H1701 0.984 . S
N1695 C1688 1.356 . S
N1695 H1698 0.984 . S
N1695 H1699 0.985 . S
H1696 N1691 0.984 . S
H1697 N1691 0.985 . S
H1698 N1695 0.984 . S
H1699 N1695 0.985 . S
H1700 N1694 0.984 . S
H1701 N1694 0.984 . S
H1702 N1690 0.984 1_554 S
H1703 N1690 0.985 . S
C1704 C1705 1.363 . S
C1704 C1710 1.379 . S
C1704 N1712 1.356 . S
C1705 C1704 1.363 . S
C1705 C1711 1.363 . S
C1706 C1707 1.363 . S
C1706 C1711 1.379 . S
C1706 N1713 1.356 . S
C1707 C1706 1.363 . S
C1707 C1710 1.363 . S
N1708 C1710 1.356 . S
N1708 H1720 0.984 . S
N1708 H1721 0.985 . S
N1709 C1711 1.356 . S
N1709 H1714 0.984 . S
N1709 H1715 0.985 . S
C1710 C1704 1.379 . S
C1710 C1707 1.363 . S
C1710 N1708 1.356 . S
C1711 C1705 1.363 . S
C1711 C1706 1.379 . S
C1711 N1709 1.356 . S
N1712 C1704 1.356 . S
N1712 H1718 0.984 . S
N1712 H1719 0.984 . S
N1713 C1706 1.356 . S
N1713 H1716 0.984 . S
N1713 H1717 0.985 . S
H1714 N1709 0.984 . S
H1715 N1709 0.985 . S
H1716 N1713 0.984 . S
H1717 N1713 0.985 . S
H1718 N1712 0.984 . S
H1719 N1712 0.984 . S
H1720 N1708 0.984 . S
H1721 N1708 0.985 . S
C1722 C1723 1.363 . S
C1722 C1728 1.379 . S
C1722 N1730 1.356 . S
C1723 C1722 1.363 . S
C1723 C1729 1.363 . S
C1724 C1725 1.363 . S
C1724 C1729 1.379 . S
C1724 N1731 1.356 . S
C1725 C1724 1.363 . S
C1725 C1728 1.363 . S
N1726 C1728 1.356 . S
N1726 H1738 0.984 . S
N1726 H1739 0.985 . S
N1727 C1729 1.356 . S
N1727 H1732 0.984 . S
N1727 H1733 0.985 . S
C1728 C1722 1.379 . S
C1728 C1725 1.363 . S
C1728 N1726 1.356 . S
C1729 C1723 1.363 . S
C1729 C1724 1.379 . S
C1729 N1727 1.356 . S
N1730 C1722 1.356 . S
N1730 H1736 0.984 . S
N1730 H1737 0.984 . S
N1731 C1724 1.356 . S
N1731 H1734 0.984 . S
N1731 H1735 0.985 . S
H1732 N1727 0.984 . S
H1733 N1727 0.985 . S
H1734 N1731 0.984 . S
H1735 N1731 0.985 . S
H1736 N1730 0.984 . S
H1737 N1730 0.984 . S
H1738 N1726 0.984 . S
H1739 N1726 0.985 . S
C1740 C1741 1.363 . S
C1740 C1746 1.379 . S
C1740 N1748 1.356 . S
C1741 C1740 1.363 . S
C1741 C1747 1.363 . S
C1742 C1743 1.363 . S
C1742 C1747 1.379 . S
C1742 N1749 1.356 . S
C1743 C1742 1.363 . S
C1743 C1746 1.363 . S
N1744 C1746 1.356 . S
N1744 H1756 0.984 . S
N1744 H1757 0.985 . S
N1745 C1747 1.356 . S
N1745 H1750 0.984 . S
N1745 H1751 0.985 . S
C1746 C1740 1.379 . S
C1746 C1743 1.363 . S
C1746 N1744 1.356 . S
C1747 C1741 1.363 . S
C1747 C1742 1.379 . S
C1747 N1745 1.356 . S
N1748 C1740 1.356 . S
N1748 H1754 0.984 . S
N1748 H1755 0.984 . S
N1749 C1742 1.356 . S
N1749 H1752 0.984 . S
N1749 H1753 0.985 . S
H1750 N1745 0.984 . S
H1751 N1745 0.985 . S
H1752 N1749 0.984 . S
H1753 N1749 0.985 . S
H1754 N1748 0.984 . S
H1755 N1748 0.984 . S
H1756 N1744 0.984 . S
H1757 N1744 0.985 . S
C1758 C1759 1.363 . S
C1758 C1764 1.379 . S
C1758 N1766 1.356 . S
C1759 C1758 1.363 . S
C1759 C1765 1.363 . S
C1760 C1761 1.363 . S
C1760 C1765 1.379 . S
C1760 N1767 1.356 . S
C1761 C1760 1.363 . S
C1761 C1764 1.363 . S
N1762 C1764 1.356 . S
N1762 H1774 0.984 . S
N1762 H1775 0.985 . S
N1763 C1765 1.366 . S
N1763 H1768 0.981 1_655 S
N1763 H1769 0.978 1_655 S
C1764 C1758 1.379 . S
C1764 C1761 1.363 . S
C1764 N1762 1.356 . S
C1765 C1759 1.363 . S
C1765 C1760 1.379 . S
C1765 N1763 1.366 . S
N1766 C1758 1.356 . S
N1766 H1772 0.984 . S
N1766 H1773 0.984 . S
N1767 C1760 1.356 . S
N1767 H1770 0.984 . S
N1767 H1771 0.985 . S
H1768 N1763 0.981 1_455 S
H1769 N1763 0.978 1_455 S
H1770 N1767 0.984 . S
H1771 N1767 0.985 . S
H1772 N1766 0.984 . S
H1773 N1766 0.984 . S
H1774 N1762 0.984 . S
H1775 N1762 0.985 . S
C483 C475 1.800 . S
C481 C8 1.759 . S
C501 C448 1.691 . S
C499 C19 1.607 . S
C519 C466 1.535 . S
C517 C30 1.503 . S
C537 C457 1.911 . S
C535 C41 1.857 . S
C555 C394 1.800 . S
C553 C52 1.759 . S
C571 C63 1.855 . S
C573 C403 1.913 . S
C591 C376 1.691 . S
C589 C74 1.607 . S
C607 C85 1.504 . S
C609 C385 1.533 . S
C627 C439 1.800 . S
C625 C96 1.759 . S
C643 C107 1.855 . S
C645 C421 1.913 . S
C661 C118 1.607 . S
C663 C412 1.691 . S
C681 C430 1.535 . S
C679 C129 1.503 . S
C699 C367 1.801 . S
C697 C140 1.701 . S
C715 C151 1.514 . S
C717 C340 1.693 . S
C735 C358 1.536 . S
C733 C162 1.436 . S
C751 C173 1.768 . S
C753 C349 1.915 . S
C771 C286 1.801 . S
C769 C184 1.701 . S
C789 C295 1.913 . S
C787 C195 1.771 . S
C805 C206 1.514 . S
C807 C268 1.693 . S
C823 C217 1.437 . S
C825 C277 1.534 . S
C841 C228 1.697 . S
C843 C331 1.805 . S
C859 C239 1.768 . S
C861 C313 1.915 . S
C879 C304 1.693 . S
C877 C250 1.514 . S
C895 C261 1.437 . S
C897 C322 1.534 . S
C915 C269 1.334 . S
C913 C7 1.360 . S
C933 C278 1.357 . S
C931 C18 1.383 . S
C949 C29 1.360 . S
C951 C287 1.342 . S
C967 C40 1.254 . S
C969 C296 1.253 . S
C987 C305 1.334 . S
C985 C51 1.360 . S
C1003 C62 1.254 . S
C1005 C314 1.253 . S
C1023 C323 1.357 . S
C1021 C73 1.383 . S
C1041 C332 1.342 . S
C1039 C84 1.360 . S
C1059 C341 1.334 . S
C1057 C95 1.360 . S
C1075 C106 1.254 . S
C1077 C350 1.253 . S
C1093 C117 1.383 . S
C1095 C359 1.357 . S
C1111 C128 1.360 . S
C1113 C368 1.342 . S
C1129 C139 1.236 . S
C1131 C377 1.338 . S
C1147 C150 1.201 . S
C1149 C386 1.361 . S
C1165 C161 1.221 . S
C1167 C395 1.346 . S
C1183 C172 1.124 . S
C1185 C404 1.257 . S
C1201 C183 1.236 . S
C1203 C413 1.338 . S
C1221 C422 1.257 . S
C1219 C194 1.124 . S
C1239 C431 1.361 . S
C1237 C205 1.201 . S
C1257 C440 1.346 . S
C1255 C216 1.221 . S
C1275 C449 1.338 . S
C1273 C227 1.237 . S
C1291 C238 1.124 . S
C1293 C458 1.257 . S
C1309 C249 1.201 . S
C1311 C467 1.361 . S
C1327 C260 1.221 . S
C1329 C476 1.346 . S
C1345 C5 1.551 . S
C1347 C343 1.758 . S
C1365 C370 1.736 . S
C1363 C16 1.573 . S
C1381 C27 1.377 1_545 S
C1383 C352 1.490 . S
C1401 C361 1.952 . S
C1399 C38 1.785 1_565 S
C1417 C49 1.551 . S
C1419 C271 1.758 . S
C1435 C60 1.788 1_556 S
C1437 C280 1.951 . S
C1453 C71 1.575 . S
C1455 C289 1.733 . S
C1471 C82 1.377 1_554 S
C1473 C298 1.490 . S
C1491 C307 1.758 . S
C1489 C93 1.551 . S
C1509 C325 1.952 . S
C1507 C104 1.785 1_655 S
C1525 C115 1.575 . S
C1527 C334 1.733 . S
C1543 C126 1.377 1_455 S
C1545 C316 1.490 . S
C1563 C451 1.766 . S
C1561 C137 1.245 . S
C1581 C478 1.745 . S
C1579 C148 1.097 . S
C1597 C159 1.036 . S
C1599 C460 1.497 . S
C1617 C469 1.962 . S
C1615 C170 1.335 . S
C1633 C181 1.245 . S
C1635 C379 1.766 . S
C1651 C192 1.335 . S
C1653 C388 1.961 . S
C1669 C203 1.101 . S
C1671 C397 1.741 . S
C1689 C406 1.502 . S
C1687 C214 1.033 . S
C1707 C415 1.766 . S
C1705 C225 1.245 . S
C1725 C433 1.962 . S
C1723 C236 1.335 . S
C1741 C247 1.101 . S
C1743 C442 1.741 . S
C1761 C424 1.502 . S
C1759 C258 1.033 . S
