# Generated by pormake.
# Topology anh, (6,3)-cn, num edge types: 1
# Building blocks:
#     Node 0, Type 0, BuildingBlock: NUHQIS_clean_sbu_0, # of connection points: 6
#     Node 1, Type 0, BuildingBlock: NUHQIS_clean_sbu_0, # of connection points: 6
#     Node 2, Type 0, BuildingBlock: NUHQIS_clean_sbu_0, # of connection points: 6
#     Node 3, Type 1, BuildingBlock: BELTOD_clean_linker_0, # of connection points: 3
#     Node 4, Type 1, BuildingBlock: BELTOD_clean_linker_0, # of connection points: 3
#     Node 5, Type 1, BuildingBlock: BELTOD_clean_linker_0, # of connection points: 3
#     Node 6, Type 1, BuildingBlock: BELTOD_clean_linker_0, # of connection points: 3
#     Node 7, Type 1, BuildingBlock: BELTOD_clean_linker_0, # of connection points: 3
#     Node 8, Type 1, BuildingBlock: BELTOD_clean_linker_0, # of connection points: 3
#     Edge 9, Type (0, 1), BuildingBlock: AJUNOK_clean_linker_0, # of connection points: 2
#     Edge 10, Type (0, 1), BuildingBlock: AJUNOK_clean_linker_0, # of connection points: 2
#     Edge 11, Type (0, 1), BuildingBlock: AJUNOK_clean_linker_0, # of connection points: 2
#     Edge 12, Type (0, 1), BuildingBlock: AJUNOK_clean_linker_0, # of connection points: 2
#     Edge 13, Type (0, 1), BuildingBlock: AJUNOK_clean_linker_0, # of connection points: 2
#     Edge 14, Type (0, 1), BuildingBlock: AJUNOK_clean_linker_0, # of connection points: 2
#     Edge 15, Type (0, 1), BuildingBlock: AJUNOK_clean_linker_0, # of connection points: 2
#     Edge 16, Type (0, 1), BuildingBlock: AJUNOK_clean_linker_0, # of connection points: 2
#     Edge 17, Type (0, 1), BuildingBlock: AJUNOK_clean_linker_0, # of connection points: 2
#     Edge 18, Type (0, 1), BuildingBlock: AJUNOK_clean_linker_0, # of connection points: 2
#     Edge 19, Type (0, 1), BuildingBlock: AJUNOK_clean_linker_0, # of connection points: 2
#     Edge 20, Type (0, 1), BuildingBlock: AJUNOK_clean_linker_0, # of connection points: 2
#     Edge 21, Type (0, 1), BuildingBlock: AJUNOK_clean_linker_0, # of connection points: 2
#     Edge 22, Type (0, 1), BuildingBlock: AJUNOK_clean_linker_0, # of connection points: 2
#     Edge 23, Type (0, 1), BuildingBlock: AJUNOK_clean_linker_0, # of connection points: 2
#     Edge 24, Type (0, 1), BuildingBlock: AJUNOK_clean_linker_0, # of connection points: 2
#     Edge 25, Type (0, 1), BuildingBlock: AJUNOK_clean_linker_0, # of connection points: 2
#     Edge 26, Type (0, 1), BuildingBlock: AJUNOK_clean_linker_0, # of connection points: 2
# Relax obj value: 0.321
# Max RMSD: 0.194
# Mean RMSD: 0.157
data_MOF--net-anh--node1-NUHQIS_clean_sbu_0--node2-BELTOD_clean_linker_0--edge1-AJUNOK_clean_linker_0
_symmetry_space_group_name_H-M    P1
_symmetry_Int_Tables_number       1
_symmetry_cell_setting            triclinic
loop_
_symmetry_equiv_pos_as_xyz
'x, y, z'
_cell_length_a     27.815795
_cell_length_b     27.810029
_cell_length_c     46.828512
_cell_angle_alpha  90.450006
_cell_angle_beta   93.094827
_cell_angle_gamma 119.9967
loop_
_atom_site_label
_atom_site_type_symbol
_atom_site_fract_x
_atom_site_fract_y
_atom_site_fract_z
_atom_type_partial_charge
Tb0 Tb 0.1371 0.57733 0.16359 0.0
Eu1 Eu 1.07461 0.64364 0.16846 0.0
C2 C 0.13467 0.6237 0.22243 0.0
C3 C 1.002 0.50632 0.17383 0.0
C4 C 0.23172 0.51735 0.17269 0.0
C5 C 0.27131 0.45993 0.1856 0.0
C6 C 0.22525 0.46518 0.17805 0.0
C7 C 0.28439 0.56512 0.17703 0.0
C8 C 0.33089 0.55993 0.18471 0.0
C9 C 0.32493 0.50699 0.18814 0.0
C10 C 0.18282 0.51923 0.16122 0.0
O11 O 0.09919 0.56815 0.12047 0.0
O12 O 0.09254 0.6459 0.12112 0.0
O13 O 0.16672 0.7165 0.17355 0.0
O14 O 0.21003 0.66691 0.16395 0.0
C15 C 0.09373 0.6059 0.10657 0.0
O16 O 1.02313 0.67471 0.14898 0.0
O17 O 1.04768 0.69088 0.19417 0.0
O18 O 1.08726 0.61923 0.21325 0.0
O19 O 0.16688 0.62039 0.20444 0.0
O20 O 1.05217 0.51093 0.17704 0.0
O21 O 1.00049 0.55165 0.16658 0.0
C22 C 0.2137 0.71606 0.17009 0.0
O23 O 0.14684 0.51262 0.1797 0.0
O24 O 0.1902 0.55721 0.14292 0.0
C25 C 0.95352 0.65797 0.17916 0.0
C26 C 0.84371 0.5703 0.17181 0.0
C27 C 0.86092 0.61821 0.15602 0.0
C28 C 0.91561 0.66214 0.15983 0.0
C29 C 0.93404 0.6129 0.19744 0.0
C30 C 0.87927 0.56922 0.19374 0.0
C31 C 1.01281 0.68843 0.17363 0.0
H32 H 0.26509 0.41839 0.18712 0.0
H33 H 0.18474 0.42797 0.17492 0.0
H34 H 0.28987 0.60591 0.17332 0.0
H35 H 0.37173 0.59683 0.18639 0.0
H36 H 0.83375 0.61932 0.13889 0.0
H37 H 0.92985 0.69612 0.14535 0.0
H38 H 0.96246 0.60823 0.21235 0.0
H39 H 0.86649 0.53231 0.20597 0.0
Tb40 Tb 0.6615 0.14087 0.50371 0.0
Eu41 Eu 0.53109 0.08333 0.50438 0.0
C42 C 0.6092 0.11532 0.56077 0.0
C43 C 0.59235 1.00415 0.50857 0.0
C44 C 0.8182 0.22848 0.49703 0.0
C45 C 0.91857 0.27846 0.50425 0.0
C46 C 0.86646 0.24855 0.51519 0.0
C47 C 0.82228 0.24139 0.46803 0.0
C48 C 0.87456 0.27146 0.45704 0.0
C49 C 0.92304 0.28895 0.47496 0.0
C50 C 0.76588 0.18625 0.50781 0.0
O51 O 0.64085 0.14133 0.45811 0.0
O52 O 0.54566 0.08954 0.45649 0.0
O53 O 0.55278 0.17492 0.50048 0.0
O54 O 0.64646 0.21418 0.51128 0.0
C55 C 0.59244 0.11584 0.4434 0.0
O56 O 0.44569 1.03248 0.48602 0.0
O57 O 0.4605 0.06399 0.5297 0.0
O58 O 0.5694 0.12135 0.5486 0.0
O59 O 0.63943 0.10452 0.54473 0.0
O60 O 0.63949 1.05052 0.50373 0.0
O61 O 0.54679 1.00803 0.51082 0.0
C62 C 0.60139 0.22012 0.50738 0.0
O63 O 0.73855 0.20212 0.52346 0.0
O64 O 0.7333 0.14487 0.49009 0.0
C65 C 0.38873 0.97274 0.51981 0.0
C66 C 0.32905 0.85713 0.52573 0.0
C67 C 0.38439 0.88896 0.53711 0.0
C68 C 0.41381 0.94617 0.53425 0.0
C69 C 0.33203 0.94256 0.51121 0.0
C70 C 0.30208 0.88511 0.51454 0.0
C71 C 0.42392 1.0293 0.51038 0.0
H72 H 0.95527 0.29071 0.51841 0.0
H73 H 0.86391 0.23819 0.53754 0.0
H74 H 0.78529 0.22581 0.45367 0.0
H75 H 0.87714 0.27947 0.43441 0.0
H76 H 0.40724 0.86971 0.54569 0.0
H77 H 0.4575 0.96897 0.54138 0.0
H78 H 0.31189 0.96266 0.50029 0.0
H79 H 0.25911 0.86206 0.50616 0.0
Tb80 Tb 0.58633 0.6241 0.84136 0.0
Eu81 Eu 0.5197 0.49634 0.82779 0.0
C82 C 0.55682 0.54161 0.88946 0.0
C83 C 0.65959 0.56013 0.83773 0.0
C84 C 0.63771 0.77051 0.86835 0.0
C85 C 0.68364 0.86892 0.87977 0.0
C86 C 0.68634 0.82086 0.87535 0.0
C87 C 0.58571 0.76686 0.86961 0.0
C88 C 0.58292 0.81509 0.87426 0.0
C89 C 0.63213 0.86707 0.87707 0.0
C90 C 0.64315 0.72609 0.85496 0.0
O91 O 0.59325 0.61657 0.79476 0.0
O92 O 0.52169 0.52869 0.78377 0.0
O93 O 0.45063 0.51828 0.83855 0.0
O94 O 0.49995 0.61286 0.8383 0.0
C95 C 0.55985 0.57724 0.77556 0.0
O96 O 0.49578 0.41718 0.80593 0.0
O97 O 0.45235 0.41932 0.84265 0.0
O98 O 0.56388 0.51185 0.87063 0.0
O99 O 0.54941 0.58204 0.88057 0.0
O100 O 0.65637 0.60496 0.84465 0.0
O101 O 0.61242 0.51411 0.82869 0.0
C102 C 0.45115 0.56646 0.84001 0.0
O103 O 0.64062 0.6874 0.87133 0.0
O104 O 0.61546 0.70621 0.8303 0.0
C105 C 0.47597 0.34923 0.83989 0.0
C106 C 0.53464 0.29805 0.86147 0.0
C107 C 0.50773 0.28359 0.83377 0.0
C108 C 0.47856 0.30893 0.82312 0.0
C109 C 0.49654 0.35847 0.86877 0.0
C110 C 0.52515 0.33247 0.87958 0.0
C111 C 0.46269 0.38855 0.82574 0.0
H112 H 0.72236 0.90819 0.88198 0.0
H113 H 0.72674 0.82406 0.87471 0.0
H114 H 0.5477 0.72779 0.86465 0.0
H115 H 0.54264 0.8124 0.87282 0.0
H116 H 0.51403 0.25722 0.81911 0.0
H117 H 0.46278 0.30104 0.8009 0.0
H118 H 0.49459 0.38905 0.88237 0.0
H119 H 0.54381 0.34304 0.90126 0.0
P120 P 0.61979 0.10489 0.21744 0.0
H121 H 0.57924 1.00575 0.17508 0.0
H122 H 0.49094 0.92021 0.16363 0.0
H123 H 0.408 0.98072 0.21566 0.0
H124 H 0.49667 0.06734 0.22621 0.0
H125 H 0.72915 0.14053 0.19021 0.0
H126 H 0.81156 0.2272 0.18023 0.0
H127 H 0.73212 0.31808 0.20548 0.0
H128 H 0.64766 0.22954 0.21477 0.0
H129 H 0.5581 1.02218 0.25962 0.0
H130 H 0.66429 0.20013 0.26188 0.0
O131 O 0.65306 0.06889 0.21924 0.0
H132 H 0.54882 1.02549 0.31091 0.0
H133 H 0.65466 0.20356 0.31335 0.0
C134 C 0.54776 1.04665 0.20143 0.0
C135 C 0.54227 1.00212 0.18367 0.0
C136 C 0.4903 0.95096 0.17759 0.0
C137 C 0.43913 0.9394 0.18907 0.0
C138 C 0.4443 0.98509 0.20593 0.0
C139 C 0.49638 1.0364 0.21192 0.0
C140 C 0.67883 0.17481 0.20381 0.0
C141 C 0.72792 0.17839 0.19362 0.0
C142 C 0.77729 0.22996 0.18827 0.0
C143 C 0.78277 0.28335 0.1928 0.0
C144 C 0.73263 0.27991 0.20171 0.0
C145 C 0.68277 0.22782 0.20704 0.0
C146 C 0.61016 0.11104 0.25585 0.0
C147 C 0.57825 0.0624 0.2708 0.0
C148 C 0.57287 0.06426 0.30047 0.0
C149 C 0.59987 0.11493 0.31661 0.0
C150 C 0.63267 0.16368 0.3018 0.0
C151 C 0.6378 0.16178 0.27196 0.0
P152 P 0.6165 0.62244 0.55215 0.0
H153 H 0.69016 0.58771 0.52271 0.0
H154 H 0.68801 0.50068 0.51239 0.0
H155 H 0.52055 0.4095 0.53868 0.0
H156 H 0.5226 0.49786 0.54841 0.0
H157 H 0.68338 0.72939 0.52062 0.0
H158 H 0.67644 0.81197 0.51082 0.0
H159 H 0.51347 0.73246 0.54325 0.0
H160 H 0.52041 0.64926 0.55239 0.0
H161 H 0.59986 0.5354 0.59391 0.0
H162 H 0.60104 0.69102 0.59624 0.0
O163 O 0.68577 0.65897 0.55665 0.0
H164 H 0.58585 0.52692 0.64479 0.0
H165 H 0.58632 0.68211 0.64722 0.0
C166 C 0.60648 0.55275 0.53647 0.0
C167 C 0.65202 0.54953 0.52599 0.0
C168 C 0.65117 0.49801 0.52053 0.0
C169 C 0.60476 0.4447 0.5253 0.0
C170 C 0.55801 0.4477 0.53453 0.0
C171 C 0.55886 0.49958 0.53996 0.0
C172 C 0.60225 0.67952 0.53709 0.0
C173 C 0.64503 0.72814 0.5251 0.0
C174 C 0.64126 0.77724 0.51974 0.0
C175 C 0.59424 0.78233 0.52584 0.0
C176 C 0.55059 0.73288 0.53716 0.0
C177 C 0.55441 0.68356 0.54249 0.0
C178 C 0.59807 0.61221 0.58987 0.0
C179 C 0.5949 0.56689 0.60474 0.0
C180 C 0.58755 0.56229 0.63434 0.0
C181 C 0.58477 0.60368 0.65051 0.0
C182 C 0.58863 0.64941 0.63579 0.0
C183 C 0.59581 0.65388 0.60613 0.0
P184 P 1.07481 0.59616 0.87839 0.0
H185 H 0.15693 0.63269 0.8316 0.0
H186 H 0.24 0.62688 0.82292 0.0
H187 H 0.20516 0.51578 0.89208 0.0
H188 H 0.12194 0.52215 0.90087 0.0
H189 H 1.02711 0.656 0.84327 0.0
H190 H 0.93603 0.6474 0.83416 0.0
H191 H 0.85988 0.49119 0.87538 0.0
H192 H 0.95253 0.50049 0.88521 0.0
H193 H 0.12727 0.68479 0.92438 0.0
H194 H 1.02478 0.50631 0.92027 0.0
O195 O 0.10993 0.66383 0.87197 0.0
H196 H 0.1293 0.68521 0.9764 0.0
H197 H 1.02553 0.50673 0.97275 0.0
C198 C 0.1294 0.57717 0.86679 0.0
C199 C 0.16564 0.60583 0.84481 0.0
C200 C 0.21519 0.60328 0.8401 0.0
C201 C 0.23282 0.5716 0.85691 0.0
C202 C 0.19533 0.54107 0.87821 0.0
C203 C 0.14606 0.54431 0.8832 0.0
C204 C 1.00032 0.57898 0.86504 0.0
C205 C 0.99159 0.619 0.85034 0.0
C206 C 0.93791 0.61435 0.84528 0.0
C207 C 0.88778 0.56893 0.85421 0.0
C208 C 0.89577 0.52738 0.86787 0.0
C209 C 0.95006 0.53257 0.87345 0.0
C210 C 1.07573 0.59537 0.91779 0.0
C211 C 0.10481 0.64539 0.93446 0.0
C212 C 0.10579 0.64576 0.96456 0.0
C213 C 1.078 0.59609 0.97924 0.0
C214 C 1.04849 0.54593 0.96251 0.0
C215 C 1.04754 0.5456 0.93229 0.0
P216 P 0.29078 0.54272 0.40634 0.0
H217 H 0.38233 0.64025 0.43712 0.0
H218 H 0.38241 0.70215 0.47469 0.0
H219 H 0.20775 0.59015 0.48345 0.0
H220 H 0.2076 0.52793 0.44646 0.0
H221 H 0.27469 0.46169 0.44905 0.0
H222 H 0.18702 0.38638 0.46474 0.0
H223 H 0.10172 0.39315 0.38648 0.0
H224 H 0.18884 0.46745 0.37068 0.0
H225 H 0.21245 0.58452 0.40253 0.0
H226 H 0.31986 0.56369 0.34677 0.0
O227 O 0.35157 0.54701 0.40094 0.0
H228 H 0.17457 0.61337 0.36253 0.0
H229 H 0.28115 0.59194 0.3064 0.0
C230 C 0.29523 0.57928 0.43914 0.0
C231 C 0.34469 0.62777 0.448 0.0
C232 C 0.34479 0.66288 0.46952 0.0
C233 C 0.29521 0.65013 0.48201 0.0
C234 C 0.24659 0.59993 0.47449 0.0
C235 C 0.24668 0.56452 0.4533 0.0
C236 C 0.23772 0.47162 0.40934 0.0
C237 C 0.23772 0.44496 0.4346 0.0
C238 C 0.18768 0.40225 0.44362 0.0
C239 C 0.13784 0.38572 0.42714 0.0
C240 C 0.1397 0.40591 0.39966 0.0
C241 C 0.18963 0.44877 0.39073 0.0
C242 C 0.27008 0.57305 0.37783 0.0
C243 C 0.22896 0.5873 0.38188 0.0
C244 C 0.20663 0.60315 0.35891 0.0
C245 C 0.22471 0.60458 0.33143 0.0
C246 C 0.26686 0.59164 0.3275 0.0
C247 C 0.2891 0.57564 0.35051 0.0
P248 P 0.78716 0.22132 0.76952 0.0
H249 H 0.82956 0.27565 0.82567 0.0
H250 H 0.77834 0.29438 0.86103 0.0
H251 H 0.66231 0.28533 0.79337 0.0
H252 H 0.71137 0.26472 0.75859 0.0
H253 H 0.82736 0.16 0.80505 0.0
H254 H 0.77912 0.08133 0.83602 0.0
H255 H 0.6239 0.07622 0.81359 0.0
H256 H 0.67178 0.15336 0.78204 0.0
H257 H 0.78456 0.28802 0.72152 0.0
H258 H 0.72076 0.11461 0.73771 0.0
O259 O 0.85518 0.24429 0.76934 0.0
H260 H 0.7369 0.26208 0.67343 0.0
H261 H 0.67239 0.08884 0.69051 0.0
C262 C 0.7744 0.2687 0.7894 0.0
C263 C 0.79497 0.28091 0.81823 0.0
C264 C 0.76539 0.29077 0.83851 0.0
C265 C 0.71591 0.28958 0.82976 0.0
C266 C 0.70011 0.28542 0.80048 0.0
C267 C 0.72894 0.2747 0.78042 0.0
C268 C 0.75282 0.16135 0.79077 0.0
C269 C 0.78293 0.14153 0.80659 0.0
C270 C 0.75552 0.09734 0.82459 0.0
C271 C 0.69784 0.07292 0.8271 0.0
C272 C 0.66821 0.09399 0.81179 0.0
C273 C 0.6955 0.13775 0.7937 0.0
C274 C 0.75481 0.20332 0.73361 0.0
C275 C 0.75987 0.24449 0.7149 0.0
C276 C 0.7322 0.22963 0.6876 0.0
C277 C 0.6998 0.17334 0.67855 0.0
C278 C 0.69648 0.13247 0.69704 0.0
C279 C 0.72404 0.14732 0.72417 0.0
P280 P 0.48062 0.32661 0.07664 0.0
H281 H 0.51878 0.28295 0.12302 0.0
H282 H 0.61059 0.327 0.14874 0.0
H283 H 0.68059 0.43291 0.07776 0.0
H284 H 0.58965 0.38945 0.05234 0.0
H285 H 0.38151 0.29664 0.10804 0.0
H286 H 0.36395 0.34623 0.14585 0.0
H287 H 0.53559 0.47739 0.14872 0.0
H288 H 0.55327 0.42777 0.11125 0.0
H289 H 0.47731 0.29914 0.01615 0.0
H290 H 0.49043 0.43613 0.06673 0.0
O291 O 0.43215 0.2596 0.07243 0.0
H292 H 0.49336 0.35353 0.97321 0.0
H293 H 0.50813 0.49076 0.02432 0.0
C294 C 0.5472 0.33359 0.08603 0.0
C295 C 0.55446 0.31346 0.11233 0.0
C296 C 0.60669 0.33904 0.12717 0.0
C297 C 0.65194 0.38425 0.11548 0.0
C298 C 0.64613 0.39831 0.08729 0.0
C299 C 0.59391 0.37323 0.07265 0.0
C300 C 0.46851 0.35847 0.10686 0.0
C301 C 0.41562 0.33529 0.1173 0.0
C302 C 0.40587 0.3633 0.13909 0.0
C303 C 0.4488 0.4151 0.15035 0.0
C304 C 0.50223 0.43715 0.14063 0.0
C305 C 0.51209 0.40884 0.11915 0.0
C306 C 0.48227 0.36313 0.04468 0.0
C307 C 0.48259 0.34038 0.01798 0.0
C308 C 0.49221 0.37167 0.99354 0.0
C309 C 0.50198 0.42642 0.99546 0.0
C310 C 0.49987 0.44846 0.02209 0.0
C311 C 0.4901 0.41709 0.04648 0.0
C312 C 0.40996 0.5227 0.16562 0.0
C313 C 0.37339 0.49852 0.18754 0.0
C314 C 0.4402 0.49885 0.15583 0.0
C315 C 0.43454 0.45012 0.1676 0.0
H316 H 0.41036 0.55603 0.15363 0.0
H317 H 0.46316 0.51504 0.13692 0.0
S318 S 0.35836 0.38156 0.23106 0.0
N319 N 0.34445 0.43206 0.22538 0.0
N320 N 0.39997 0.38587 0.20609 0.0
C321 C 0.40466 0.43046 0.19208 0.0
C322 C 0.3746 0.4553 0.20239 0.0
C323 C 0.98615 0.2885 0.43915 0.0
C324 C 0.97806 0.31434 0.46292 0.0
C325 C 1.03855 0.3106 0.42807 0.0
C326 C 1.08445 0.35876 0.44068 0.0
H327 H 0.95185 0.25071 0.42919 0.0
H328 H 1.04319 0.29022 0.40948 0.0
S329 S 1.08406 0.44454 0.50165 0.0
N330 N 1.01944 0.39228 0.49758 0.0
N331 N 0.11806 0.43353 0.47698 0.0
C332 C 1.07679 0.38519 0.46429 0.0
C333 C 1.02353 0.36301 0.47538 0.0
C334 C 0.67059 0.96911 0.8842 0.0
C335 C 0.63228 0.91876 0.86954 0.0
C336 C 0.68869 1.02 0.87123 0.0
C337 C 0.66836 1.02211 0.84342 0.0
H338 H 0.69052 0.96876 0.90466 0.0
H339 H 0.72146 1.05752 0.88221 0.0
S340 S 0.56071 0.90324 0.79791 0.0
N341 N 0.56936 0.87504 0.82717 0.0
N342 N 0.60282 0.97077 0.80314 0.0
C343 C 0.62545 0.97285 0.82992 0.0
C344 C 0.60727 0.92104 0.843 0.0
C345 C 0.80079 0.48955 0.1376 0.0
C346 C 0.79506 0.5181 0.16085 0.0
C347 C 0.75459 0.44301 0.12431 0.0
C348 C 0.70121 0.42381 0.13381 0.0
H349 H 0.84105 0.50461 0.12899 0.0
H350 H 0.7602 0.42352 0.10564 0.0
S351 S 0.66512 0.48399 0.19447 0.0
N352 N 0.7333 0.5235 0.19362 0.0
N353 N 0.64552 0.43632 0.16836 0.0
C354 C 0.69542 0.45085 0.15787 0.0
C355 C 0.74267 0.49816 0.17144 0.0
C356 C 0.28058 0.7757 0.49136 0.0
C357 C 0.30561 0.79675 0.51902 0.0
C358 C 0.2735 0.72556 0.48053 0.0
C359 C 0.29157 0.69482 0.49677 0.0
H360 H 0.27073 0.80014 0.47685 0.0
H361 H 0.25754 0.71279 0.45849 0.0
S362 S 0.34864 0.72442 0.57203 0.0
N363 N 0.33888 0.77689 0.56419 0.0
N364 N 0.32839 0.68374 0.54276 0.0
C365 C 0.31203 0.7122 0.52514 0.0
C366 C 0.31813 0.76284 0.53656 0.0
C367 C 0.57655 0.23781 0.85737 0.0
C368 C 0.58157 0.28781 0.86777 0.0
C369 C 0.62297 0.23652 0.84838 0.0
C370 C 0.67568 0.28475 0.85027 0.0
H371 H 0.53578 0.20175 0.85253 0.0
H372 H 0.61659 0.19952 0.83695 0.0
S373 S 0.71431 0.41798 0.88749 0.0
N374 N 0.64586 0.38134 0.88765 0.0
N375 N 0.73327 0.37785 0.87113 0.0
C376 C 0.68294 0.33124 0.86582 0.0
C377 C 0.6356 0.33289 0.87477 0.0
C378 C 0.64081 0.9437 0.51815 0.0
C379 C 0.59148 0.9468 0.51249 0.0
C380 C 0.64115 0.89226 0.52228 0.0
C381 C 0.59221 0.8384 0.52107 0.0
H382 H 0.68044 0.98203 0.51977 0.0
H383 H 0.68113 0.89534 0.52692 0.0
S384 S 0.4509 0.8198 0.50381 0.0
N385 N 0.49155 0.88798 0.50432 0.0
N386 N 0.492 0.79401 0.51132 0.0
C387 C 0.54253 0.84088 0.51484 0.0
C388 C 0.54223 0.89345 0.51079 0.0
C389 C 0.72534 0.51571 0.83613 0.0
C390 C 0.71792 0.56222 0.84146 0.0
C391 C 0.77852 0.51776 0.84019 0.0
C392 C 0.8293 0.56646 0.84988 0.0
H393 H 0.68937 0.47661 0.82877 0.0
H394 H 0.77974 0.48028 0.83532 0.0
S395 S 0.83588 0.70081 0.86764 0.0
N396 N 0.76961 0.65941 0.85747 0.0
N397 N 0.866 0.66287 0.86489 0.0
C398 C 0.82242 0.61318 0.85513 0.0
C399 C 0.7685 0.61113 0.85111 0.0
C400 C 0.27623 0.82522 0.1793 0.0
C401 C 0.27194 0.77241 0.17425 0.0
C402 C 0.32848 0.87701 0.18386 0.0
C403 C 0.38199 0.88148 0.1838 0.0
H404 H 0.23826 0.82694 0.17979 0.0
H405 H 0.32644 0.91446 0.18724 0.0
S406 S 0.39711 0.75608 0.17367 0.0
N407 N 0.329 0.72964 0.17073 0.0
N408 N 0.42437 0.8237 0.17943 0.0
C409 C 0.37822 0.82865 0.17908 0.0
C410 C 0.32486 0.77587 0.17439 0.0
C411 C 0.5559 0.28425 0.5079 0.0
C412 C 0.60404 0.27834 0.51171 0.0
C413 C 0.55639 0.33615 0.51229 0.0
C414 C 0.60519 0.38772 0.52077 0.0
H415 H 0.51643 0.24781 0.50139 0.0
H416 H 0.51738 0.33559 0.50856 0.0
S417 S 0.74346 0.39748 0.53579 0.0
N418 N 0.70256 0.33142 0.52585 0.0
N419 N 0.70376 0.42607 0.53414 0.0
C420 C 0.65367 0.38223 0.52495 0.0
C421 C 0.65303 0.32921 0.52052 0.0
C422 C 0.3446 0.52108 0.85105 0.0
C423 C 0.39566 0.56843 0.84409 0.0
C424 C 0.29399 0.52241 0.85533 0.0
C425 C 0.2891 0.57098 0.85252 0.0
H426 H 0.34352 0.48189 0.85352 0.0
H427 H 0.25771 0.48407 0.86057 0.0
S428 S 0.4098 0.70827 0.83578 0.0
N429 N 0.43628 0.66675 0.83562 0.0
N430 N 0.34404 0.66914 0.84303 0.0
C431 C 0.33999 0.61868 0.84565 0.0
C432 C 0.39167 0.61747 0.84169 0.0
C433 C 0.89176 0.44199 0.1748 0.0
C434 C 0.94639 0.44926 0.17888 0.0
C435 C 0.84085 0.39042 0.17937 0.0
C436 C 0.8393 0.34054 0.18831 0.0
H437 H 0.88802 0.47696 0.1678 0.0
H438 H 0.80184 0.38978 0.17536 0.0
S439 S 0.97 0.3355 0.20449 0.0
N440 N 0.99365 0.39953 0.19397 0.0
N441 N 0.90154 0.30598 0.20265 0.0
C442 C 0.89393 0.34768 0.19289 0.0
C443 C 0.94563 0.40021 0.18825 0.0
C444 C 1.07881 0.63964 0.05804 0.0
C445 C 0.0889 0.60243 0.07409 0.0
C446 C 1.07497 0.63713 0.0277 0.0
C447 C 1.08078 0.59713 0.01173 0.0
H448 H 1.07382 0.67118 0.06898 0.0
H449 H 1.06695 0.66671 0.01664 0.0
S450 S 0.11075 0.49169 0.04287 0.0
N451 N 0.10629 0.52498 0.07101 0.0
N452 N 0.09964 0.52096 0.0147 0.0
C453 C 0.0912 0.55994 0.02748 0.0
C454 C 0.09516 0.56244 0.05831 0.0
C455 C 0.64218 0.14782 0.39733 0.0
C456 C 0.59196 0.11652 0.41094 0.0
C457 C 0.6441 0.14796 0.3672 0.0
C458 C 0.59598 0.11639 0.34883 0.0
H459 H 0.681 0.17243 0.41007 0.0
H460 H 0.68408 0.17209 0.35826 0.0
S461 S 0.45297 1.02947 0.37276 0.0
N462 N 0.49213 1.05453 0.40293 0.0
N463 N 0.49575 1.05491 0.34676 0.0
C464 C 0.54527 0.08563 0.36203 0.0
C465 C 0.54323 0.08571 0.39278 0.0
C466 C 0.53402 0.54203 0.72363 0.0
C467 C 0.56653 0.58628 0.7438 0.0
C468 C 0.54003 0.54814 0.6939 0.0
C469 C 0.57856 0.59898 0.68251 0.0
H470 H 0.50362 0.50173 0.73082 0.0
H471 H 0.51381 0.51255 0.67965 0.0
S472 S 0.67507 0.72812 0.72552 0.0
N473 N 0.63952 0.68318 0.74968 0.0
N474 N 0.65079 0.69443 0.69418 0.0
C475 C 0.61126 0.64375 0.70232 0.0
C476 C 0.60534 0.63747 0.73271 0.0
C477 C 0.65764 0.10479 0.60428 0.0
C478 C 0.62534 0.12606 0.59177 0.0
C479 C 0.68059 0.1197 0.63241 0.0
C480 C 0.67248 0.1568 0.64923 0.0
H481 H 0.66642 0.07716 0.592 0.0
H482 H 0.70626 0.10325 0.64077 0.0
S483 S 0.58847 0.22175 0.62736 0.0
N484 N 0.58431 0.18431 0.59878 0.0
N485 N 0.6274 0.21223 0.652 0.0
C486 C 0.63892 0.17721 0.63737 0.0
C487 C 0.61514 0.16168 0.60862 0.0
C488 C 0.57461 0.49232 0.92863 0.0
C489 C 0.54845 0.52186 0.91891 0.0
C490 C 0.56008 0.46285 0.9537 0.0
C491 C 0.5186 0.46147 0.97008 0.0
H492 H 0.6054 0.49035 0.9162 0.0
H493 H 0.5809 0.4401 0.96003 0.0
S494 S 0.43871 0.53347 0.95448 0.0
N495 N 0.48056 0.54977 0.92805 0.0
N496 N 0.45272 0.49383 0.97539 0.0
C497 C 0.49362 0.49273 0.96131 0.0
C498 C 0.50871 0.52311 0.93567 0.0
C499 C 0.20985 0.66159 0.26077 0.0
C500 C 0.15265 0.6287 0.25292 0.0
C501 C 0.23234 0.65594 0.28706 0.0
C502 C 0.19844 0.61709 0.30644 0.0
H503 H 0.238 0.68961 0.24571 0.0
H504 H 0.27696 0.68025 0.29168 0.0
S505 S 1.04536 0.52429 0.29699 0.0
N506 N 1.06193 0.55905 0.26726 0.0
N507 N 0.10417 0.54794 0.31694 0.0
C508 C 0.14054 0.58674 0.29975 0.0
C509 C 0.11759 0.59273 0.27288 0.0
loop_
_geom_bond_atom_site_label_1
_geom_bond_atom_site_label_2
_geom_bond_distance
_geom_bond_site_symmetry_2
_ccdc_geom_bond_type
Tb0 C10 2.825 . S
Tb0 O11 2.347 . S
Tb0 O14 2.366 . S
Tb0 O19 2.418 . S
Tb0 O20 2.384 1_455 S
Tb0 O23 2.479 . S
Tb0 O24 2.471 . S
Eu1 O12 2.418 . S
Eu1 O13 2.384 1_655 S
Eu1 O16 2.479 . S
Eu1 O17 2.471 . S
Eu1 O18 2.347 1_655 S
Eu1 O21 2.366 . S
Eu1 C31 2.825 . S
C2 O18 1.259 . S
C2 O19 1.265 . S
C3 O20 1.255 . S
C3 O21 1.265 . S
C4 C6 1.380 . S
C4 C7 1.374 . S
C4 C10 1.507 . S
C5 C6 1.384 . S
C5 C9 1.387 . S
C5 H32 0.930 . S
C6 C4 1.380 . S
C6 C5 1.384 . S
C6 H33 0.931 . S
C7 C4 1.374 . S
C7 C8 1.390 . S
C7 H34 0.930 . S
C8 C7 1.390 . S
C8 C9 1.391 . S
C8 H35 0.930 . S
C9 C5 1.387 . S
C9 C8 1.391 . S
C10 Tb0 2.825 . S
C10 C4 1.507 . S
C10 O23 1.238 . S
C10 O24 1.247 . S
O11 Tb0 2.347 . S
O11 C15 1.259 . S
O12 Eu1 2.418 . S
O12 C15 1.265 1_655 S
O13 Eu1 2.384 1_455 S
O13 C22 1.255 . S
O14 Tb0 2.366 . S
O14 C22 1.265 . S
C15 O11 1.259 . S
C15 O12 1.265 1_455 S
O16 Eu1 2.479 . S
O16 C31 1.238 . S
O17 Eu1 2.471 . S
O17 C31 1.247 . S
O18 Eu1 2.347 1_455 S
O18 C2 1.259 . S
O19 Tb0 2.418 . S
O19 C2 1.265 . S
O20 Tb0 2.384 1_655 S
O20 C3 1.255 . S
O21 Eu1 2.366 . S
O21 C3 1.265 . S
C22 O13 1.255 . S
C22 O14 1.265 . S
O23 Tb0 2.479 . S
O23 C10 1.238 . S
O24 Tb0 2.471 . S
O24 C10 1.247 . S
C25 C28 1.380 . S
C25 C29 1.374 . S
C25 C31 1.507 . S
C26 C27 1.387 . S
C26 C30 1.391 . S
C27 C26 1.387 . S
C27 C28 1.384 . S
C27 H36 0.930 . S
C28 C25 1.380 . S
C28 C27 1.384 . S
C28 H37 0.931 . S
C29 C25 1.374 . S
C29 C30 1.390 . S
C29 H38 0.930 . S
C30 C26 1.391 . S
C30 C29 1.390 . S
C30 H39 0.930 . S
C31 Eu1 2.825 . S
C31 O16 1.238 . S
C31 O17 1.247 . S
C31 C25 1.507 . S
H32 C5 0.930 . S
H33 C6 0.931 . S
H34 C7 0.930 . S
H35 C8 0.930 . S
H36 C27 0.930 . S
H37 C28 0.931 . S
H38 C29 0.930 . S
H39 C30 0.930 . S
Tb40 C50 2.825 . S
Tb40 O51 2.347 . S
Tb40 O54 2.366 . S
Tb40 O59 2.418 . S
Tb40 O60 2.384 1_545 S
Tb40 O63 2.479 . S
Tb40 O64 2.471 . S
Eu41 O52 2.418 . S
Eu41 O53 2.384 . S
Eu41 O56 2.479 1_545 S
Eu41 O57 2.471 1_545 S
Eu41 O58 2.347 . S
Eu41 O61 2.366 1_545 S
Eu41 C71 2.825 1_545 S
C42 O58 1.259 . S
C42 O59 1.265 . S
C43 O60 1.255 . S
C43 O61 1.265 . S
C44 C46 1.380 . S
C44 C47 1.374 . S
C44 C50 1.507 . S
C45 C46 1.384 . S
C45 C49 1.387 . S
C45 H72 0.930 . S
C46 C44 1.380 . S
C46 C45 1.384 . S
C46 H73 0.931 . S
C47 C44 1.374 . S
C47 C48 1.390 . S
C47 H74 0.930 . S
C48 C47 1.390 . S
C48 C49 1.391 . S
C48 H75 0.930 . S
C49 C45 1.387 . S
C49 C48 1.391 . S
C50 Tb40 2.825 . S
C50 C44 1.507 . S
C50 O63 1.238 . S
C50 O64 1.247 . S
O51 Tb40 2.347 . S
O51 C55 1.259 . S
O52 Eu41 2.418 . S
O52 C55 1.265 . S
O53 Eu41 2.384 . S
O53 C62 1.255 . S
O54 Tb40 2.366 . S
O54 C62 1.265 . S
C55 O51 1.259 . S
C55 O52 1.265 . S
O56 Eu41 2.479 1_565 S
O56 C71 1.238 . S
O57 Eu41 2.471 1_565 S
O57 C71 1.247 . S
O58 Eu41 2.347 . S
O58 C42 1.259 . S
O59 Tb40 2.418 . S
O59 C42 1.265 . S
O60 Tb40 2.384 1_565 S
O60 C43 1.255 . S
O61 Eu41 2.366 1_565 S
O61 C43 1.265 . S
C62 O53 1.255 . S
C62 O54 1.265 . S
O63 Tb40 2.479 . S
O63 C50 1.238 . S
O64 Tb40 2.471 . S
O64 C50 1.247 . S
C65 C68 1.380 . S
C65 C69 1.374 . S
C65 C71 1.507 . S
C66 C67 1.387 . S
C66 C70 1.391 . S
C67 C66 1.387 . S
C67 C68 1.384 . S
C67 H76 0.930 . S
C68 C65 1.380 . S
C68 C67 1.384 . S
C68 H77 0.931 . S
C69 C65 1.374 . S
C69 C70 1.390 . S
C69 H78 0.930 . S
C70 C66 1.391 . S
C70 C69 1.390 . S
C70 H79 0.930 . S
C71 Eu41 2.825 1_565 S
C71 O56 1.238 . S
C71 O57 1.247 . S
C71 C65 1.507 . S
H72 C45 0.930 . S
H73 C46 0.931 . S
H74 C47 0.930 . S
H75 C48 0.930 . S
H76 C67 0.930 . S
H77 C68 0.931 . S
H78 C69 0.930 . S
H79 C70 0.930 . S
Tb80 C90 2.825 . S
Tb80 O91 2.347 . S
Tb80 O94 2.366 . S
Tb80 O99 2.418 . S
Tb80 O100 2.384 . S
Tb80 O103 2.479 . S
Tb80 O104 2.471 . S
Eu81 O92 2.418 . S
Eu81 O93 2.384 . S
Eu81 O96 2.479 . S
Eu81 O97 2.471 . S
Eu81 O98 2.347 . S
Eu81 O101 2.366 . S
Eu81 C111 2.825 . S
C82 O98 1.259 . S
C82 O99 1.265 . S
C83 O100 1.255 . S
C83 O101 1.265 . S
C84 C86 1.380 . S
C84 C87 1.374 . S
C84 C90 1.507 . S
C85 C86 1.384 . S
C85 C89 1.387 . S
C85 H112 0.930 . S
C86 C84 1.380 . S
C86 C85 1.384 . S
C86 H113 0.931 . S
C87 C84 1.374 . S
C87 C88 1.390 . S
C87 H114 0.930 . S
C88 C87 1.390 . S
C88 C89 1.391 . S
C88 H115 0.930 . S
C89 C85 1.387 . S
C89 C88 1.391 . S
C90 Tb80 2.825 . S
C90 C84 1.507 . S
C90 O103 1.238 . S
C90 O104 1.247 . S
O91 Tb80 2.347 . S
O91 C95 1.259 . S
O92 Eu81 2.418 . S
O92 C95 1.265 . S
O93 Eu81 2.384 . S
O93 C102 1.255 . S
O94 Tb80 2.366 . S
O94 C102 1.265 . S
C95 O91 1.259 . S
C95 O92 1.265 . S
O96 Eu81 2.479 . S
O96 C111 1.238 . S
O97 Eu81 2.471 . S
O97 C111 1.247 . S
O98 Eu81 2.347 . S
O98 C82 1.259 . S
O99 Tb80 2.418 . S
O99 C82 1.265 . S
O100 Tb80 2.384 . S
O100 C83 1.255 . S
O101 Eu81 2.366 . S
O101 C83 1.265 . S
C102 O93 1.255 . S
C102 O94 1.265 . S
O103 Tb80 2.479 . S
O103 C90 1.238 . S
O104 Tb80 2.471 . S
O104 C90 1.247 . S
C105 C108 1.380 . S
C105 C109 1.374 . S
C105 C111 1.507 . S
C106 C107 1.387 . S
C106 C110 1.391 . S
C107 C106 1.387 . S
C107 C108 1.384 . S
C107 H116 0.930 . S
C108 C105 1.380 . S
C108 C107 1.384 . S
C108 H117 0.931 . S
C109 C105 1.374 . S
C109 C110 1.390 . S
C109 H118 0.930 . S
C110 C106 1.391 . S
C110 C109 1.390 . S
C110 H119 0.930 . S
C111 Eu81 2.825 . S
C111 O96 1.238 . S
C111 O97 1.247 . S
C111 C105 1.507 . S
H112 C85 0.930 . S
H113 C86 0.931 . S
H114 C87 0.930 . S
H115 C88 0.930 . S
H116 C107 0.930 . S
H117 C108 0.931 . S
H118 C109 0.930 . S
H119 C110 0.930 . S
P120 O131 1.490 . S
P120 C134 1.812 . S
P120 C140 1.803 1_565 S
P120 C146 1.819 1_565 S
H121 C135 0.941 . S
H122 C136 0.939 . S
H123 C138 0.940 . S
H124 C139 0.940 . S
H125 C141 0.939 . S
H126 C142 0.942 . S
H127 C144 0.940 . S
H128 C145 0.939 . S
H129 C147 0.941 . S
H130 C151 0.939 . S
O131 P120 1.490 . S
H132 C148 0.939 . S
H133 C150 0.940 . S
C134 P120 1.812 . S
C134 C135 1.389 . S
C134 C139 1.391 . S
C135 H121 0.941 . S
C135 C134 1.389 . S
C135 C136 1.397 . S
C136 H122 0.939 . S
C136 C135 1.397 . S
C136 C137 1.378 . S
C137 C136 1.378 . S
C137 C138 1.378 . S
C138 H123 0.940 . S
C138 C137 1.378 . S
C138 C139 1.396 . S
C139 H124 0.940 . S
C139 C134 1.391 . S
C139 C138 1.396 . S
C140 P120 1.803 1_545 S
C140 C141 1.378 . S
C140 C145 1.400 . S
C141 H125 0.939 . S
C141 C140 1.378 . S
C141 C142 1.361 . S
C142 H126 0.942 . S
C142 C141 1.361 . S
C142 C143 1.369 . S
C143 C142 1.369 . S
C143 C144 1.404 . S
C144 H127 0.940 . S
C144 C143 1.404 . S
C144 C145 1.389 . S
C145 H128 0.939 . S
C145 C140 1.400 . S
C145 C144 1.389 . S
C146 P120 1.819 1_545 S
C146 C147 1.391 1_545 S
C146 C151 1.391 . S
C147 H129 0.941 . S
C147 C146 1.391 1_565 S
C147 C148 1.396 . S
C148 H132 0.939 . S
C148 C147 1.396 . S
C148 C149 1.397 1_565 S
C149 C148 1.397 1_545 S
C149 C150 1.385 . S
C150 H133 0.940 . S
C150 C149 1.385 . S
C150 C151 1.388 . S
C151 H130 0.939 . S
C151 C146 1.391 . S
C151 C150 1.388 . S
P152 O163 1.490 . S
P152 C166 1.812 . S
P152 C172 1.803 . S
P152 C178 1.819 . S
H153 C167 0.941 . S
H154 C168 0.939 . S
H155 C170 0.940 . S
H156 C171 0.940 . S
H157 C173 0.939 . S
H158 C174 0.942 . S
H159 C176 0.940 . S
H160 C177 0.939 . S
H161 C179 0.941 . S
H162 C183 0.939 . S
O163 P152 1.490 . S
H164 C180 0.939 . S
H165 C182 0.940 . S
C166 P152 1.812 . S
C166 C167 1.389 . S
C166 C171 1.391 . S
C167 H153 0.941 . S
C167 C166 1.389 . S
C167 C168 1.397 . S
C168 H154 0.939 . S
C168 C167 1.397 . S
C168 C169 1.378 . S
C169 C168 1.378 . S
C169 C170 1.378 . S
C170 H155 0.940 . S
C170 C169 1.378 . S
C170 C171 1.396 . S
C171 H156 0.940 . S
C171 C166 1.391 . S
C171 C170 1.396 . S
C172 P152 1.803 . S
C172 C173 1.378 . S
C172 C177 1.400 . S
C173 H157 0.939 . S
C173 C172 1.378 . S
C173 C174 1.361 . S
C174 H158 0.942 . S
C174 C173 1.361 . S
C174 C175 1.369 . S
C175 C174 1.369 . S
C175 C176 1.404 . S
C176 H159 0.940 . S
C176 C175 1.404 . S
C176 C177 1.389 . S
C177 H160 0.939 . S
C177 C172 1.400 . S
C177 C176 1.389 . S
C178 P152 1.819 . S
C178 C179 1.391 . S
C178 C183 1.391 . S
C179 H161 0.941 . S
C179 C178 1.391 . S
C179 C180 1.396 . S
C180 H164 0.939 . S
C180 C179 1.396 . S
C180 C181 1.397 . S
C181 C180 1.397 . S
C181 C182 1.385 . S
C182 H165 0.940 . S
C182 C181 1.385 . S
C182 C183 1.388 . S
C183 H162 0.939 . S
C183 C178 1.391 . S
C183 C182 1.388 . S
P184 O195 1.490 . S
P184 C198 1.812 . S
P184 C204 1.803 1_455 S
P184 C210 1.819 . S
H185 C199 0.941 . S
H186 C200 0.939 . S
H187 C202 0.940 . S
H188 C203 0.940 . S
H189 C205 0.939 . S
H190 C206 0.942 . S
H191 C208 0.940 . S
H192 C209 0.939 . S
H193 C211 0.941 . S
H194 C215 0.939 . S
O195 P184 1.490 . S
H196 C212 0.939 . S
H197 C214 0.940 . S
C198 P184 1.812 . S
C198 C199 1.389 . S
C198 C203 1.391 . S
C199 H185 0.941 . S
C199 C198 1.389 . S
C199 C200 1.397 . S
C200 H186 0.939 . S
C200 C199 1.397 . S
C200 C201 1.378 . S
C201 C200 1.378 . S
C201 C202 1.378 . S
C202 H187 0.940 . S
C202 C201 1.378 . S
C202 C203 1.396 . S
C203 H188 0.940 . S
C203 C198 1.391 . S
C203 C202 1.396 . S
C204 P184 1.803 1_655 S
C204 C205 1.378 . S
C204 C209 1.400 . S
C205 H189 0.939 . S
C205 C204 1.378 . S
C205 C206 1.361 . S
C206 H190 0.942 . S
C206 C205 1.361 . S
C206 C207 1.369 . S
C207 C206 1.369 . S
C207 C208 1.404 . S
C208 H191 0.940 . S
C208 C207 1.404 . S
C208 C209 1.389 . S
C209 H192 0.939 . S
C209 C204 1.400 . S
C209 C208 1.389 . S
C210 P184 1.819 . S
C210 C211 1.391 . S
C210 C215 1.391 1_455 S
C211 H193 0.941 . S
C211 C210 1.391 . S
C211 C212 1.396 . S
C212 H196 0.939 . S
C212 C211 1.396 . S
C212 C213 1.397 . S
C213 C212 1.397 . S
C213 C214 1.385 1_455 S
C214 H197 0.940 . S
C214 C213 1.385 1_655 S
C214 C215 1.388 . S
C215 H194 0.939 . S
C215 C210 1.391 1_655 S
C215 C214 1.388 . S
P216 O227 1.490 . S
P216 C230 1.812 . S
P216 C236 1.803 1_455 S
P216 C242 1.819 . S
H217 C231 0.941 . S
H218 C232 0.939 . S
H219 C234 0.940 . S
H220 C235 0.940 . S
H221 C237 0.939 . S
H222 C238 0.942 . S
H223 C240 0.940 . S
H224 C241 0.939 . S
H225 C243 0.941 . S
H226 C247 0.939 . S
O227 P216 1.490 . S
H228 C244 0.939 . S
H229 C246 0.940 . S
C230 P216 1.812 . S
C230 C231 1.389 . S
C230 C235 1.391 . S
C231 H217 0.941 . S
C231 C230 1.389 . S
C231 C232 1.397 . S
C232 H218 0.939 . S
C232 C231 1.397 . S
C232 C233 1.378 . S
C233 C232 1.378 . S
C233 C234 1.378 . S
C234 H219 0.940 . S
C234 C233 1.378 . S
C234 C235 1.396 . S
C235 H220 0.940 . S
C235 C230 1.391 . S
C235 C234 1.396 . S
C236 P216 1.803 1_655 S
C236 C237 1.378 . S
C236 C241 1.400 . S
C237 H221 0.939 . S
C237 C236 1.378 . S
C237 C238 1.361 . S
C238 H222 0.942 . S
C238 C237 1.361 . S
C238 C239 1.369 . S
C239 C238 1.369 . S
C239 C240 1.404 . S
C240 H223 0.940 . S
C240 C239 1.404 . S
C240 C241 1.389 . S
C241 H224 0.939 . S
C241 C236 1.400 . S
C241 C240 1.389 . S
C242 P216 1.819 . S
C242 C243 1.391 . S
C242 C247 1.391 1_455 S
C243 H225 0.941 . S
C243 C242 1.391 . S
C243 C244 1.396 . S
C244 H228 0.939 . S
C244 C243 1.396 . S
C244 C245 1.397 . S
C245 C244 1.397 . S
C245 C246 1.385 1_455 S
C246 H229 0.940 . S
C246 C245 1.385 1_655 S
C246 C247 1.388 . S
C247 H226 0.939 . S
C247 C242 1.391 1_655 S
C247 C246 1.388 . S
P248 O259 1.490 . S
P248 C262 1.812 . S
P248 C268 1.803 1_545 S
P248 C274 1.819 . S
H249 C263 0.941 . S
H250 C264 0.939 . S
H251 C266 0.940 . S
H252 C267 0.940 . S
H253 C269 0.939 . S
H254 C270 0.942 . S
H255 C272 0.940 . S
H256 C273 0.939 . S
H257 C275 0.941 . S
H258 C279 0.939 . S
O259 P248 1.490 . S
H260 C276 0.939 . S
H261 C278 0.940 . S
C262 P248 1.812 . S
C262 C263 1.389 . S
C262 C267 1.391 . S
C263 H249 0.941 . S
C263 C262 1.389 . S
C263 C264 1.397 . S
C264 H250 0.939 . S
C264 C263 1.397 . S
C264 C265 1.378 . S
C265 C264 1.378 . S
C265 C266 1.378 . S
C266 H251 0.940 . S
C266 C265 1.378 . S
C266 C267 1.396 . S
C267 H252 0.940 . S
C267 C262 1.391 . S
C267 C266 1.396 . S
C268 P248 1.803 1_565 S
C268 C269 1.378 . S
C268 C273 1.400 . S
C269 H253 0.939 . S
C269 C268 1.378 . S
C269 C270 1.361 . S
C270 H254 0.942 . S
C270 C269 1.361 . S
C270 C271 1.369 . S
C271 C270 1.369 . S
C271 C272 1.404 . S
C272 H255 0.940 . S
C272 C271 1.404 . S
C272 C273 1.389 . S
C273 H256 0.939 . S
C273 C268 1.400 . S
C273 C272 1.389 . S
C274 P248 1.819 . S
C274 C275 1.391 . S
C274 C279 1.391 1_545 S
C275 H257 0.941 . S
C275 C274 1.391 . S
C275 C276 1.396 . S
C276 H260 0.939 . S
C276 C275 1.396 . S
C276 C277 1.397 . S
C277 C276 1.397 . S
C277 C278 1.385 1_545 S
C278 H261 0.940 . S
C278 C277 1.385 1_565 S
C278 C279 1.388 . S
C279 H258 0.939 . S
C279 C274 1.391 1_565 S
C279 C278 1.388 . S
P280 O291 1.490 . S
P280 C294 1.812 . S
P280 C300 1.803 . S
P280 C306 1.819 . S
H281 C295 0.941 . S
H282 C296 0.939 . S
H283 C298 0.940 . S
H284 C299 0.940 . S
H285 C301 0.939 . S
H286 C302 0.942 . S
H287 C304 0.940 . S
H288 C305 0.939 . S
H289 C307 0.941 . S
H290 C311 0.939 . S
O291 P280 1.490 . S
H292 C308 0.939 1_556 S
H293 C310 0.940 . S
C294 P280 1.812 . S
C294 C295 1.389 . S
C294 C299 1.391 . S
C295 H281 0.941 . S
C295 C294 1.389 . S
C295 C296 1.397 . S
C296 H282 0.939 . S
C296 C295 1.397 . S
C296 C297 1.378 . S
C297 C296 1.378 . S
C297 C298 1.378 . S
C298 H283 0.940 . S
C298 C297 1.378 . S
C298 C299 1.396 . S
C299 H284 0.940 . S
C299 C294 1.391 . S
C299 C298 1.396 . S
C300 P280 1.803 . S
C300 C301 1.378 . S
C300 C305 1.400 . S
C301 H285 0.939 . S
C301 C300 1.378 . S
C301 C302 1.361 . S
C302 H286 0.942 . S
C302 C301 1.361 . S
C302 C303 1.369 . S
C303 C302 1.369 . S
C303 C304 1.404 . S
C304 H287 0.940 . S
C304 C303 1.404 . S
C304 C305 1.389 . S
C305 H288 0.939 . S
C305 C300 1.400 . S
C305 C304 1.389 . S
C306 P280 1.819 . S
C306 C307 1.391 . S
C306 C311 1.391 . S
C307 H289 0.941 . S
C307 C306 1.391 . S
C307 C308 1.396 . S
C308 H292 0.939 1_554 S
C308 C307 1.396 . S
C308 C309 1.397 1_554 S
C309 C308 1.397 1_556 S
C309 C310 1.385 1_556 S
C310 H293 0.940 . S
C310 C309 1.385 1_554 S
C310 C311 1.388 . S
C311 H290 0.939 . S
C311 C306 1.391 . S
C311 C310 1.388 . S
C312 C313 1.369 . S
C312 C314 1.419 . S
C312 H316 0.930 . S
C313 C312 1.369 . S
C313 C322 1.429 . S
C314 C312 1.419 . S
C314 C315 1.363 . S
C314 H317 0.929 . S
C315 C314 1.363 . S
C315 C321 1.428 . S
H316 C312 0.930 . S
H317 C314 0.929 . S
S318 N319 1.613 . S
S318 N320 1.610 . S
N319 S318 1.613 . S
N319 C322 1.350 . S
N320 S318 1.610 . S
N320 C321 1.351 . S
C321 C315 1.428 . S
C321 N320 1.351 . S
C321 C322 1.434 . S
C322 C313 1.429 . S
C322 N319 1.350 . S
C322 C321 1.434 . S
C323 C324 1.369 . S
C323 C325 1.419 . S
C323 H327 0.930 . S
C324 C323 1.369 . S
C324 C333 1.429 . S
C325 C323 1.419 . S
C325 C326 1.363 . S
C325 H328 0.929 . S
C326 C325 1.363 . S
C326 C332 1.428 . S
H327 C323 0.930 . S
H328 C325 0.929 . S
S329 N330 1.613 . S
S329 N331 1.610 . S
N330 S329 1.613 . S
N330 C333 1.350 . S
N331 S329 1.610 . S
N331 C332 1.351 . S
C332 C326 1.428 . S
C332 N331 1.351 . S
C332 C333 1.434 . S
C333 C324 1.429 . S
C333 N330 1.350 . S
C333 C332 1.434 . S
C334 C335 1.369 . S
C334 C336 1.419 . S
C334 H338 0.930 . S
C335 C334 1.369 . S
C335 C344 1.429 . S
C336 C334 1.419 . S
C336 C337 1.363 . S
C336 H339 0.929 . S
C337 C336 1.363 . S
C337 C343 1.428 . S
H338 C334 0.930 . S
H339 C336 0.929 . S
S340 N341 1.613 . S
S340 N342 1.610 . S
N341 S340 1.613 . S
N341 C344 1.350 . S
N342 S340 1.610 . S
N342 C343 1.351 . S
C343 C337 1.428 . S
C343 N342 1.351 . S
C343 C344 1.434 . S
C344 C335 1.429 . S
C344 N341 1.350 . S
C344 C343 1.434 . S
C345 C346 1.369 . S
C345 C347 1.419 . S
C345 H349 0.930 . S
C346 C345 1.369 . S
C346 C355 1.429 . S
C347 C345 1.419 . S
C347 C348 1.363 . S
C347 H350 0.929 . S
C348 C347 1.363 . S
C348 C354 1.428 . S
H349 C345 0.930 . S
H350 C347 0.929 . S
S351 N352 1.613 . S
S351 N353 1.610 . S
N352 S351 1.613 . S
N352 C355 1.350 . S
N353 S351 1.610 . S
N353 C354 1.351 . S
C354 C348 1.428 . S
C354 N353 1.351 . S
C354 C355 1.434 . S
C355 C346 1.429 . S
C355 N352 1.350 . S
C355 C354 1.434 . S
C356 C357 1.369 . S
C356 C358 1.419 . S
C356 H360 0.930 . S
C357 C356 1.369 . S
C357 C366 1.429 . S
C358 C356 1.419 . S
C358 C359 1.363 . S
C358 H361 0.929 . S
C359 C358 1.363 . S
C359 C365 1.428 . S
H360 C356 0.930 . S
H361 C358 0.929 . S
S362 N363 1.613 . S
S362 N364 1.610 . S
N363 S362 1.613 . S
N363 C366 1.350 . S
N364 S362 1.610 . S
N364 C365 1.351 . S
C365 C359 1.428 . S
C365 N364 1.351 . S
C365 C366 1.434 . S
C366 C357 1.429 . S
C366 N363 1.350 . S
C366 C365 1.434 . S
C367 C368 1.369 . S
C367 C369 1.419 . S
C367 H371 0.930 . S
C368 C367 1.369 . S
C368 C377 1.429 . S
C369 C367 1.419 . S
C369 C370 1.363 . S
C369 H372 0.929 . S
C370 C369 1.363 . S
C370 C376 1.428 . S
H371 C367 0.930 . S
H372 C369 0.929 . S
S373 N374 1.613 . S
S373 N375 1.610 . S
N374 S373 1.613 . S
N374 C377 1.350 . S
N375 S373 1.610 . S
N375 C376 1.351 . S
C376 C370 1.428 . S
C376 N375 1.351 . S
C376 C377 1.434 . S
C377 C368 1.429 . S
C377 N374 1.350 . S
C377 C376 1.434 . S
C378 C379 1.369 . S
C378 C380 1.419 . S
C378 H382 0.930 . S
C379 C378 1.369 . S
C379 C388 1.429 . S
C380 C378 1.419 . S
C380 C381 1.363 . S
C380 H383 0.929 . S
C381 C380 1.363 . S
C381 C387 1.428 . S
H382 C378 0.930 . S
H383 C380 0.929 . S
S384 N385 1.613 . S
S384 N386 1.610 . S
N385 S384 1.613 . S
N385 C388 1.350 . S
N386 S384 1.610 . S
N386 C387 1.351 . S
C387 C381 1.428 . S
C387 N386 1.351 . S
C387 C388 1.434 . S
C388 C379 1.429 . S
C388 N385 1.350 . S
C388 C387 1.434 . S
C389 C390 1.369 . S
C389 C391 1.419 . S
C389 H393 0.930 . S
C390 C389 1.369 . S
C390 C399 1.429 . S
C391 C389 1.419 . S
C391 C392 1.363 . S
C391 H394 0.929 . S
C392 C391 1.363 . S
C392 C398 1.428 . S
H393 C389 0.930 . S
H394 C391 0.929 . S
S395 N396 1.613 . S
S395 N397 1.610 . S
N396 S395 1.613 . S
N396 C399 1.350 . S
N397 S395 1.610 . S
N397 C398 1.351 . S
C398 C392 1.428 . S
C398 N397 1.351 . S
C398 C399 1.434 . S
C399 C390 1.429 . S
C399 N396 1.350 . S
C399 C398 1.434 . S
C400 C401 1.369 . S
C400 C402 1.419 . S
C400 H404 0.930 . S
C401 C400 1.369 . S
C401 C410 1.429 . S
C402 C400 1.419 . S
C402 C403 1.363 . S
C402 H405 0.929 . S
C403 C402 1.363 . S
C403 C409 1.428 . S
H404 C400 0.930 . S
H405 C402 0.929 . S
S406 N407 1.613 . S
S406 N408 1.610 . S
N407 S406 1.613 . S
N407 C410 1.350 . S
N408 S406 1.610 . S
N408 C409 1.351 . S
C409 C403 1.428 . S
C409 N408 1.351 . S
C409 C410 1.434 . S
C410 C401 1.429 . S
C410 N407 1.350 . S
C410 C409 1.434 . S
C411 C412 1.369 . S
C411 C413 1.419 . S
C411 H415 0.930 . S
C412 C411 1.369 . S
C412 C421 1.429 . S
C413 C411 1.419 . S
C413 C414 1.363 . S
C413 H416 0.929 . S
C414 C413 1.363 . S
C414 C420 1.428 . S
H415 C411 0.930 . S
H416 C413 0.929 . S
S417 N418 1.613 . S
S417 N419 1.610 . S
N418 S417 1.613 . S
N418 C421 1.350 . S
N419 S417 1.610 . S
N419 C420 1.351 . S
C420 C414 1.428 . S
C420 N419 1.351 . S
C420 C421 1.434 . S
C421 C412 1.429 . S
C421 N418 1.350 . S
C421 C420 1.434 . S
C422 C423 1.369 . S
C422 C424 1.419 . S
C422 H426 0.930 . S
C423 C422 1.369 . S
C423 C432 1.429 . S
C424 C422 1.419 . S
C424 C425 1.363 . S
C424 H427 0.929 . S
C425 C424 1.363 . S
C425 C431 1.428 . S
H426 C422 0.930 . S
H427 C424 0.929 . S
S428 N429 1.613 . S
S428 N430 1.610 . S
N429 S428 1.613 . S
N429 C432 1.350 . S
N430 S428 1.610 . S
N430 C431 1.351 . S
C431 C425 1.428 . S
C431 N430 1.351 . S
C431 C432 1.434 . S
C432 C423 1.429 . S
C432 N429 1.350 . S
C432 C431 1.434 . S
C433 C434 1.369 . S
C433 C435 1.419 . S
C433 H437 0.930 . S
C434 C433 1.369 . S
C434 C443 1.429 . S
C435 C433 1.419 . S
C435 C436 1.363 . S
C435 H438 0.929 . S
C436 C435 1.363 . S
C436 C442 1.428 . S
H437 C433 0.930 . S
H438 C435 0.929 . S
S439 N440 1.613 . S
S439 N441 1.610 . S
N440 S439 1.613 . S
N440 C443 1.350 . S
N441 S439 1.610 . S
N441 C442 1.351 . S
C442 C436 1.428 . S
C442 N441 1.351 . S
C442 C443 1.434 . S
C443 C434 1.429 . S
C443 N440 1.350 . S
C443 C442 1.434 . S
C444 C445 1.369 . S
C444 C446 1.419 . S
C444 H448 0.930 . S
C445 C444 1.369 . S
C445 C454 1.429 1_455 S
C446 C444 1.419 . S
C446 C447 1.363 . S
C446 H449 0.929 . S
C447 C446 1.363 . S
C447 C453 1.428 1_455 S
H448 C444 0.930 . S
H449 C446 0.929 . S
S450 N451 1.613 . S
S450 N452 1.610 . S
N451 S450 1.613 . S
N451 C454 1.350 . S
N452 S450 1.610 . S
N452 C453 1.351 . S
C453 C447 1.428 1_655 S
C453 N452 1.351 . S
C453 C454 1.434 . S
C454 C445 1.429 1_655 S
C454 N451 1.350 . S
C454 C453 1.434 . S
C455 C456 1.369 . S
C455 C457 1.419 . S
C455 H459 0.930 . S
C456 C455 1.369 . S
C456 C465 1.429 . S
C457 C455 1.419 . S
C457 C458 1.363 . S
C457 H460 0.929 . S
C458 C457 1.363 . S
C458 C464 1.428 . S
H459 C455 0.930 . S
H460 C457 0.929 . S
S461 N462 1.613 1_565 S
S461 N463 1.610 1_565 S
N462 S461 1.613 1_545 S
N462 C465 1.350 . S
N463 S461 1.610 1_545 S
N463 C464 1.351 . S
C464 C458 1.428 . S
C464 N463 1.351 . S
C464 C465 1.434 . S
C465 C456 1.429 . S
C465 N462 1.350 . S
C465 C464 1.434 . S
C466 C467 1.369 . S
C466 C468 1.419 . S
C466 H470 0.930 . S
C467 C466 1.369 . S
C467 C476 1.429 . S
C468 C466 1.419 . S
C468 C469 1.363 . S
C468 H471 0.929 . S
C469 C468 1.363 . S
C469 C475 1.428 . S
H470 C466 0.930 . S
H471 C468 0.929 . S
S472 N473 1.613 . S
S472 N474 1.610 . S
N473 S472 1.613 . S
N473 C476 1.350 . S
N474 S472 1.610 . S
N474 C475 1.351 . S
C475 C469 1.428 . S
C475 N474 1.351 . S
C475 C476 1.434 . S
C476 C467 1.429 . S
C476 N473 1.350 . S
C476 C475 1.434 . S
C477 C478 1.369 . S
C477 C479 1.419 . S
C477 H481 0.930 . S
C478 C477 1.369 . S
C478 C487 1.429 . S
C479 C477 1.419 . S
C479 C480 1.363 . S
C479 H482 0.929 . S
C480 C479 1.363 . S
C480 C486 1.428 . S
H481 C477 0.930 . S
H482 C479 0.929 . S
S483 N484 1.610 . S
S483 N485 1.603 1_545 S
N484 S483 1.610 . S
N484 C487 1.350 . S
N485 S483 1.603 1_565 S
N485 C486 1.351 1_565 S
C486 C480 1.428 . S
C486 N485 1.351 1_545 S
C486 C487 1.434 . S
C487 C478 1.429 . S
C487 N484 1.350 . S
C487 C486 1.434 . S
C488 C489 1.369 . S
C488 C490 1.419 . S
C488 H492 0.930 . S
C489 C488 1.369 . S
C489 C498 1.429 . S
C490 C488 1.419 . S
C490 C491 1.363 . S
C490 H493 0.929 . S
C491 C490 1.363 . S
C491 C497 1.428 . S
H492 C488 0.930 . S
H493 C490 0.929 . S
S494 N495 1.613 . S
S494 N496 1.610 . S
N495 S494 1.613 . S
N495 C498 1.350 . S
N496 S494 1.610 . S
N496 C497 1.351 . S
C497 C491 1.428 . S
C497 N496 1.351 . S
C497 C498 1.434 . S
C498 C489 1.429 . S
C498 N495 1.350 . S
C498 C497 1.434 . S
C499 C500 1.369 . S
C499 C501 1.419 . S
C499 H503 0.930 . S
C500 C499 1.369 . S
C500 C509 1.439 . S
C501 C499 1.419 . S
C501 C502 1.363 . S
C501 H504 0.929 . S
C502 C501 1.363 . S
C502 C508 1.428 1_455 S
H503 C499 0.930 . S
H504 C501 0.929 . S
S505 N506 1.613 . S
S505 N507 1.610 . S
N506 S505 1.613 . S
N506 C509 1.343 1_655 S
N507 S505 1.610 . S
N507 C508 1.351 . S
C508 C502 1.428 1_655 S
C508 N507 1.351 . S
C508 C509 1.430 1_655 S
C509 C500 1.439 . S
C509 N506 1.343 1_455 S
C509 C508 1.430 1_455 S
C313 C9 0.760 . S
C315 C303 0.738 . S
C324 C49 0.615 . S
C326 C239 0.584 . S
C335 C89 0.585 . S
C337 C271 0.604 . S
C346 C26 0.739 . S
C348 C297 0.701 . S
C359 C233 0.737 . S
C357 C66 0.763 . S
C370 C265 0.806 . S
C368 C106 0.769 . S
C379 C43 3.022 . S
C381 C175 2.953 . S
C390 C83 3.105 . S
C392 C207 3.015 . S
C401 C22 3.154 . S
C403 C137 3.072 . S
C414 C169 3.077 . S
C412 C62 3.156 . S
C425 C201 3.001 . S
C423 C102 3.071 . S
C434 C3 3.023 . S
C436 C143 2.959 . S
C447 C213 1.785 1_554 S
C445 C15 1.757 . S
C456 C55 1.762 . S
C458 C149 1.779 . S
C467 C95 1.762 . S
C469 C181 1.772 . S
C480 C277 0.995 . S
C478 C42 1.031 . S
C491 C309 1.038 . S
C489 C82 1.032 . S
C500 C2 1.019 . S
C502 C245 0.988 . S
