# Generated by pormake.
# Topology zzz, (3,6)-cn, num edge types: 1
# Building blocks:
#     Node 0, Type 0, BuildingBlock: MIDCAF_clean_linker_0, # of connection points: 3
#     Node 1, Type 0, BuildingBlock: MIDCAF_clean_linker_0, # of connection points: 3
#     Node 2, Type 0, BuildingBlock: MIDCAF_clean_linker_0, # of connection points: 3
#     Node 3, Type 0, BuildingBlock: MIDCAF_clean_linker_0, # of connection points: 3
#     Node 4, Type 0, BuildingBlock: MIDCAF_clean_linker_0, # of connection points: 3
#     Node 5, Type 0, BuildingBlock: MIDCAF_clean_linker_0, # of connection points: 3
#     Node 6, Type 0, BuildingBlock: MIDCAF_clean_linker_0, # of connection points: 3
#     Node 7, Type 0, BuildingBlock: MIDCAF_clean_linker_0, # of connection points: 3
#     Node 8, Type 1, BuildingBlock: KUMBOL_clean_sbu_1, # of connection points: 6
#     Node 9, Type 1, BuildingBlock: KUMBOL_clean_sbu_1, # of connection points: 6
#     Node 10, Type 1, BuildingBlock: KUMBOL_clean_sbu_1, # of connection points: 6
#     Node 11, Type 1, BuildingBlock: KUMBOL_clean_sbu_1, # of connection points: 6
#     Edge 12, Type (0, 1), BuildingBlock: XUDNAN_clean_linker_2, # of connection points: 2
#     Edge 13, Type (0, 1), BuildingBlock: XUDNAN_clean_linker_2, # of connection points: 2
#     Edge 14, Type (0, 1), BuildingBlock: XUDNAN_clean_linker_2, # of connection points: 2
#     Edge 15, Type (0, 1), BuildingBlock: XUDNAN_clean_linker_2, # of connection points: 2
#     Edge 16, Type (0, 1), BuildingBlock: XUDNAN_clean_linker_2, # of connection points: 2
#     Edge 17, Type (0, 1), BuildingBlock: XUDNAN_clean_linker_2, # of connection points: 2
#     Edge 18, Type (0, 1), BuildingBlock: XUDNAN_clean_linker_2, # of connection points: 2
#     Edge 19, Type (0, 1), BuildingBlock: XUDNAN_clean_linker_2, # of connection points: 2
#     Edge 20, Type (0, 1), BuildingBlock: XUDNAN_clean_linker_2, # of connection points: 2
#     Edge 21, Type (0, 1), BuildingBlock: XUDNAN_clean_linker_2, # of connection points: 2
#     Edge 22, Type (0, 1), BuildingBlock: XUDNAN_clean_linker_2, # of connection points: 2
#     Edge 23, Type (0, 1), BuildingBlock: XUDNAN_clean_linker_2, # of connection points: 2
#     Edge 24, Type (0, 1), BuildingBlock: XUDNAN_clean_linker_2, # of connection points: 2
#     Edge 25, Type (0, 1), BuildingBlock: XUDNAN_clean_linker_2, # of connection points: 2
#     Edge 26, Type (0, 1), BuildingBlock: XUDNAN_clean_linker_2, # of connection points: 2
#     Edge 27, Type (0, 1), BuildingBlock: XUDNAN_clean_linker_2, # of connection points: 2
#     Edge 28, Type (0, 1), BuildingBlock: XUDNAN_clean_linker_2, # of connection points: 2
#     Edge 29, Type (0, 1), BuildingBlock: XUDNAN_clean_linker_2, # of connection points: 2
#     Edge 30, Type (0, 1), BuildingBlock: XUDNAN_clean_linker_2, # of connection points: 2
#     Edge 31, Type (0, 1), BuildingBlock: XUDNAN_clean_linker_2, # of connection points: 2
#     Edge 32, Type (0, 1), BuildingBlock: XUDNAN_clean_linker_2, # of connection points: 2
#     Edge 33, Type (0, 1), BuildingBlock: XUDNAN_clean_linker_2, # of connection points: 2
#     Edge 34, Type (0, 1), BuildingBlock: XUDNAN_clean_linker_2, # of connection points: 2
#     Edge 35, Type (0, 1), BuildingBlock: XUDNAN_clean_linker_2, # of connection points: 2
# Relax obj value: 0.315
# Max RMSD: 0.210
# Mean RMSD: 0.183
data_MOF--net-zzz--node1-KUMBOL_clean_sbu_1--node2-MIDCAF_clean_linker_0--edge1-XUDNAN_clean_linker_2
_symmetry_space_group_name_H-M    P1
_symmetry_Int_Tables_number       1
_symmetry_cell_setting            triclinic
loop_
_symmetry_equiv_pos_as_xyz
'x, y, z'
_cell_length_a     56.434391
_cell_length_b     56.608891
_cell_length_c     21.018094
_cell_angle_alpha  90.013574
_cell_angle_beta   89.944043
_cell_angle_gamma 90.550892
loop_
_atom_site_label
_atom_site_type_symbol
_atom_site_fract_x
_atom_site_fract_y
_atom_site_fract_z
_atom_type_partial_charge
C0 C 0.83035 0.56884 0.30362 0.0
C1 C 0.82787 0.54831 0.34076 0.0
C2 C 0.8072 0.53433 0.33184 0.0
C3 C 0.79028 0.54003 0.28487 0.0
H4 H 0.71253 0.52952 0.16953 0.0
H5 H 0.67317 0.5205 0.12575 0.0
H6 H 0.67919 0.58138 1.0023 0.0
H7 H 0.71712 0.5909 0.04871 0.0
H8 H 0.76541 0.56638 0.95425 0.0
H9 H 0.78887 0.56338 0.8591 0.0
H10 H 0.85139 0.58454 0.96462 0.0
H11 H 0.82781 0.58597 0.06184 0.0
H12 H 0.81702 0.58963 0.22668 0.0
H13 H 0.84594 0.58001 0.30826 0.0
H14 H 0.80443 0.51851 0.35991 0.0
H15 H 0.77533 0.52824 0.27719 0.0
N16 N 0.75552 0.55976 0.18103 0.0
N17 N 0.75737 0.56977 0.07245 0.0
N18 N 0.79209 0.56949 0.13215 0.0
C19 C 0.74426 0.56365 0.12392 0.0
C20 C 0.7811 0.57256 0.07559 0.0
C21 C 0.77971 0.56325 0.18525 0.0
C22 C 0.71815 0.56088 0.11269 0.0
C23 C 0.70494 0.54141 0.1349 0.0
C24 C 0.68248 0.53602 0.10847 0.0
C25 C 0.67275 0.54981 0.05867 0.0
C26 C 0.68545 0.57021 0.04036 0.0
C27 C 0.70755 0.57567 0.06707 0.0
C28 C 0.79484 0.57583 0.01615 0.0
C29 C 0.7841 0.57081 0.95731 0.0
C30 C 0.79764 0.56933 0.90205 0.0
C31 C 0.82226 0.5733 0.90377 0.0
C32 C 0.83261 0.58062 0.96165 0.0
C33 C 0.81909 0.58159 0.01744 0.0
C34 C 0.79374 0.55971 0.24505 0.0
C35 C 0.81369 0.57433 0.25643 0.0
C36 C 0.99642 0.80519 0.35884 0.0
C37 C 0.99832 0.82927 0.34136 0.0
C38 C 0.99652 0.83492 0.27642 0.0
C39 C 0.9914 0.8174 0.23112 0.0
H40 H 0.95757 0.69756 0.17334 0.0
H41 H 0.96401 0.66089 0.11458 0.0
H42 H 0.01703 0.69607 0.99953 0.0
H43 H 0.01038 0.73278 0.05884 0.0
H44 H 0.92539 0.75151 0.02069 0.0
H45 H 0.906 0.77336 0.93599 0.0
H46 H 0.90793 0.8363 0.05232 0.0
H47 H 0.9265 0.81451 0.13702 0.0
H48 H 0.989 0.76944 0.32853 0.0
H49 H 0.9979 0.80008 0.4083 0.0
H50 H 0.99761 0.85313 0.26085 0.0
H51 H 0.98874 0.82271 0.18213 0.0
N52 N 0.98591 0.75482 0.18909 0.0
N53 N 0.95574 0.74946 0.11258 0.0
N54 N 0.95803 0.78468 0.17003 0.0
C55 C 0.97493 0.74106 0.14377 0.0
C56 C 0.94707 0.77116 0.12554 0.0
C57 C 0.97718 0.77684 0.20247 0.0
C58 C 0.98408 0.71784 0.12236 0.0
C59 C 0.97131 0.69715 0.13731 0.0
C60 C 0.97487 0.67616 0.103 0.0
C61 C 0.99098 0.67537 0.0517 0.0
C62 C 1.00432 0.69596 0.03816 0.0
C63 C 1.00089 0.7169 0.07303 0.0
C64 C 0.92859 0.78159 0.0844 0.0
C65 C 0.92086 0.76979 0.02915 0.0
C66 C 0.90962 0.78229 0.98058 0.0
C67 C 0.90623 0.80679 0.98626 0.0
C68 C 0.91043 0.81752 0.04564 0.0
C69 C 0.92149 0.80503 0.09425 0.0
C70 C 0.98833 0.79356 0.24887 0.0
C71 C 0.99163 0.78753 0.31307 0.0
C72 C 0.73393 0.99449 0.39229 0.0
C73 C 0.71438 0.00901 0.3785 0.0
C74 C 0.71391 0.02024 0.3187 0.0
C75 C 0.73154 0.01592 0.27294 0.0
H76 H 0.82381 0.02175 0.17702 0.0
H77 H 0.86 0.03198 0.11751 0.0
H78 H 0.84796 0.97209 0.99385 0.0
H79 H 0.81324 0.9615 0.05368 0.0
H80 H 0.7535 0.95985 0.0186 0.0
H81 H 0.71812 0.94988 0.96023 0.0
H82 H 0.68738 0.91911 0.13033 0.0
H83 H 0.72251 0.93108 0.18992 0.0
H84 H 0.76503 0.9772 0.35653 0.0
H85 H 0.73492 0.98527 0.4373 0.0
H86 H 0.69942 0.03177 0.3063 0.0
H87 H 0.72956 0.02342 0.22584 0.0
N88 N 0.78369 0.99535 0.2063 0.0
N89 N 0.77825 0.96791 0.12313 0.0
N90 N 0.74905 0.9718 0.20074 0.0
C91 C 0.79207 0.9845 0.1522 0.0
C92 C 0.75697 0.96134 0.14718 0.0
C93 C 0.76202 0.98864 0.23079 0.0
C94 C 0.81525 0.99083 0.12059 0.0
C95 C 0.82913 0.01064 0.13769 0.0
C96 C 0.84984 0.0166 0.10297 0.0
C97 C 0.85725 1.00291 0.05026 0.0
C98 C 0.84349 0.98295 0.03444 0.0
C99 C 0.8231 0.97699 0.06892 0.0
C100 C 0.74033 0.947 0.10913 0.0
C101 C 0.73954 0.95021 0.04307 0.0
C102 C 0.71906 0.94429 1.00935 0.0
C103 C 0.6992 0.93457 0.04101 0.0
C104 C 0.70181 0.92764 0.10496 0.0
C105 C 0.72203 0.93426 0.13911 0.0
C106 C 0.75026 1.00035 0.28549 0.0
C107 C 0.75148 0.99008 0.34624 0.0
C108 C 0.56982 0.70823 1.00768 0.0
C109 C 0.57934 0.71918 0.95293 0.0
C110 C 0.58783 0.74255 0.95797 0.0
C111 C 0.5845 0.75538 0.01403 0.0
H112 H 0.51464 0.81179 0.08162 0.0
H113 H 0.5143 0.84823 0.01944 0.0
H114 H 0.57633 0.87288 0.12063 0.0
H115 H 0.57673 0.83603 0.18171 0.0
H116 H 0.50898 0.73739 0.25128 0.0
H117 H 0.50378 0.70776 0.33521 0.0
H118 H 0.57259 0.72666 0.41064 0.0
H119 H 0.57716 0.75658 0.32778 0.0
H120 H 0.55813 0.71234 0.10368 0.0
H121 H 0.56271 0.69042 1.00611 0.0
H122 H 0.5958 0.75139 0.91748 0.0
H123 H 0.58985 0.77381 0.01514 0.0
N124 N 0.56043 0.78279 0.11032 0.0
N125 N 0.54462 0.78629 0.2137 0.0
N126 N 0.55889 0.7497 0.17665 0.0
C127 C 0.55045 0.79631 0.15605 0.0
C128 C 0.54907 0.76271 0.22392 0.0
C129 C 0.56479 0.75963 0.12008 0.0
C130 C 0.54529 0.82122 0.13812 0.0
C131 C 0.52753 0.82549 0.09264 0.0
C132 C 0.52749 0.84641 0.05642 0.0
C133 C 0.54548 0.86365 0.06383 0.0
C134 C 0.56238 0.85998 0.11239 0.0
C135 C 0.56235 0.83903 0.14867 0.0
C136 C 0.54309 0.75002 0.28419 0.0
C137 C 0.52252 0.73583 0.28752 0.0
C138 C 0.5198 0.71842 0.33505 0.0
C139 C 0.53778 0.71438 0.38037 0.0
C140 C 0.55804 0.72924 0.37793 0.0
C141 C 0.56067 0.74665 0.33049 0.0
C142 C 0.57308 0.74495 0.06659 0.0
C143 C 0.56694 0.72091 0.06398 0.0
C144 C 0.20248 0.47342 0.96892 0.0
C145 C 0.2012 0.4975 0.95302 0.0
C146 C 0.21894 0.51275 0.97816 0.0
C147 C 0.23663 0.50428 0.01982 0.0
H148 H 0.29868 0.51705 0.19058 0.0
H149 H 0.33357 0.52959 0.25152 0.0
H150 H 0.36098 0.45864 0.24095 0.0
H151 H 0.3257 0.44622 0.18317 0.0
H152 H 0.25869 0.4381 0.29896 0.0
H153 H 0.22863 0.42043 0.3655 0.0
H154 H 0.19721 0.38681 0.20037 0.0
H155 H 0.22658 0.40641 0.1331 0.0
H156 H 0.21969 0.4464 0.02145 0.0
H157 H 0.18926 0.46094 0.9521 0.0
H158 H 0.21901 0.53137 0.9665 0.0
H159 H 0.24931 0.51663 0.04006 0.0
N160 N 0.2736 0.48118 0.10877 0.0
N161 N 0.27722 0.45204 0.18858 0.0
N162 N 0.24447 0.4515 0.12108 0.0
C163 C 0.28624 0.47125 0.15789 0.0
C164 C 0.25642 0.44208 0.17046 0.0
C165 C 0.2526 0.47086 0.08955 0.0
C166 C 0.30945 0.4807 0.1814 0.0
C167 C 0.31248 0.50436 0.20002 0.0
C168 C 0.33258 0.51146 0.23542 0.0
C169 C 0.35036 0.49514 0.25259 0.0
C170 C 0.34766 0.47173 0.23084 0.0
C171 C 0.32751 0.46464 0.1965 0.0
C172 C 0.24443 0.42429 0.21075 0.0
C173 C 0.24586 0.42628 0.2771 0.0
C174 C 0.22849 0.41588 0.31553 0.0
C175 C 0.20957 0.4029 0.28832 0.0
C176 C 0.21073 0.39762 0.22287 0.0
C177 C 0.22769 0.40866 0.18421 0.0
C178 C 0.23705 0.48032 0.0375 0.0
C179 C 0.22004 0.46504 1.00982 0.0
C180 C 0.06533 0.20169 0.99379 0.0
C181 C 0.04805 0.20647 0.94752 0.0
C182 C 0.03729 0.22897 0.9492 0.0
C183 C 0.04289 0.2456 0.99724 0.0
H184 H 0.07332 0.33297 0.10939 0.0
H185 H 0.06765 0.3724 0.15625 0.0
H186 H 0.02081 0.34206 0.29726 0.0
H187 H 0.02647 0.3031 0.25058 0.0
H188 H 0.0708 0.27204 0.33281 0.0
H189 H 0.06962 0.2475 0.42634 0.0
H190 H 0.09574 0.18856 0.3166 0.0
H191 H 0.09556 0.21302 0.22126 0.0
H192 H 0.084 0.21323 0.07637 0.0
H193 H 0.07394 0.1847 0.99549 0.0
H194 H 0.02422 0.23371 0.91392 0.0
H195 H 0.03364 0.26226 0.99821 0.0
N196 N 0.05598 0.27861 0.10694 0.0
N197 N 0.06849 0.27958 0.21385 0.0
N198 N 0.07321 0.24521 0.15457 0.0
C199 C 0.05886 0.2907 0.16323 0.0
C200 C 0.07582 0.257 0.21016 0.0
C201 C 0.06346 0.25557 0.10251 0.0
C202 C 0.04995 0.31496 0.17535 0.0
C203 C 0.06103 0.33497 0.14858 0.0
C204 C 0.058 0.3575 0.1761 0.0
C205 C 0.04408 0.36041 0.23144 0.0
C206 C 0.032 0.34053 0.2556 0.0
C207 C 0.0349 0.31821 0.22803 0.0
C208 C 0.08234 0.24423 0.26894 0.0
C209 C 0.07688 0.25401 0.3286 0.0
C210 C 0.07645 0.23988 0.38287 0.0
C211 C 0.08184 0.21572 0.37889 0.0
C212 C 0.09062 0.20687 0.32092 0.0
C213 C 0.09061 0.22092 0.26624 0.0
C214 C 0.05945 0.24021 0.04496 0.0
C215 C 0.07097 0.21821 0.04116 0.0
C216 C 0.33067 0.06286 0.99254 0.0
C217 C 0.32708 0.04425 0.94921 0.0
C218 C 0.30482 0.03248 0.95059 0.0
C219 C 0.28709 0.03879 0.99487 0.0
H220 H 0.195 0.07469 0.10091 0.0
H221 H 0.157 0.0705 0.15603 0.0
H222 H 0.18784 0.01921 0.28253 0.0
H223 H 0.22554 0.02322 0.22627 0.0
H224 H 0.25091 0.08386 0.30913 0.0
H225 H 0.27281 0.09559 0.40221 0.0
H226 H 0.32636 0.12827 0.28282 0.0
H227 H 0.30496 0.11478 0.18868 0.0
H228 H 0.31713 0.08345 0.06887 0.0
H229 H 0.34746 0.07222 0.9945 0.0
H230 H 0.30105 0.01826 0.91759 0.0
H231 H 0.27048 0.02905 0.99515 0.0
N232 N 0.25139 0.05322 0.09568 0.0
N233 N 0.24526 0.07412 0.19123 0.0
N234 N 0.28103 0.07855 0.13688 0.0
C235 C 0.23712 0.05899 0.1463 0.0
C236 C 0.26703 0.08406 0.18698 0.0
C237 C 0.27365 0.06327 0.09076 0.0
C238 C 0.21317 0.04882 0.15794 0.0
C239 C 0.19325 0.06153 0.13807 0.0
C240 C 0.17158 0.0595 0.17087 0.0
C241 C 0.1693 0.04487 0.22497 0.0
C242 C 0.18868 0.03056 0.24111 0.0
C243 C 0.21033 0.03263 0.20827 0.0
C244 C 0.27672 0.09753 0.2415 0.0
C245 C 0.26706 0.09406 0.30247 0.0
C246 C 0.27962 0.10112 0.35637 0.0
C247 C 0.30196 0.11219 0.35049 0.0
C248 C 0.30972 0.11889 0.28926 0.0
C249 C 0.29744 0.11123 0.23519 0.0
C250 C 0.29107 0.05709 0.03908 0.0
C251 C 0.31307 0.06918 0.0362 0.0
C252 C 0.44313 0.32646 0.32633 0.0
C253 C 0.44063 0.3138 0.38369 0.0
C254 C 0.44417 0.28927 0.38298 0.0
C255 C 0.45194 0.27805 0.32763 0.0
H256 H 0.4689 0.20688 0.13621 0.0
H257 H 0.4716 0.16911 0.19236 0.0
H258 H 0.52951 0.19675 0.30451 0.0
H259 H 0.52663 0.2345 0.24821 0.0
H260 H 0.52337 0.2942 0.03907 0.0
H261 H 0.52593 0.32437 0.95428 0.0
H262 H 0.4506 0.33537 0.96981 0.0
H263 H 0.4482 0.30574 0.05315 0.0
H264 H 0.45368 0.32581 0.22871 0.0
H265 H 0.4409 0.34543 0.32499 0.0
H266 H 0.4421 0.27896 0.42605 0.0
H267 H 0.45554 0.2593 0.32965 0.0
N268 N 0.47751 0.25824 0.22239 0.0
N269 N 0.49288 0.26025 0.1181 0.0
N270 N 0.47133 0.29201 0.16127 0.0
C271 C 0.4897 0.24809 0.17427 0.0
C272 C 0.48356 0.28254 0.11179 0.0
C273 C 0.46825 0.28005 0.21657 0.0
C274 C 0.49799 0.22357 0.18623 0.0
C275 C 0.48305 0.20447 0.17033 0.0
C276 C 0.48433 0.18292 0.20361 0.0
C277 C 0.50058 0.17983 0.25391 0.0
C278 C 0.51689 0.19827 0.26598 0.0
C279 C 0.51542 0.2199 0.23308 0.0
C280 C 0.48549 0.29716 0.05235 0.0
C281 C 0.50733 0.30267 0.02301 0.0
C282 C 0.50883 0.32026 0.97507 0.0
C283 C 0.48846 0.33248 0.9546 0.0
C284 C 0.46666 0.32631 0.98308 0.0
C285 C 0.46526 0.30917 0.03113 0.0
C286 C 0.45625 0.2911 0.27169 0.0
C287 C 0.45077 0.31523 0.27097 0.0
C288 C 0.0977 0.01666 0.70886 0.0
C289 C 0.103 0.04013 0.80404 0.0
C290 C 0.08826 0.02768 0.76127 0.0
C291 C 0.12738 0.04217 0.79119 0.0
C292 C 0.1223 0.01754 0.69728 0.0
C293 C 0.13703 0.03086 0.73785 0.0
N294 N 0.08297 1.00363 0.67178 0.0
C295 C 0.09186 0.98964 0.6247 0.0
C296 C 0.13139 1.00428 0.64679 0.0
C297 C 0.11614 0.98994 0.61106 0.0
Gd298 Gd 0.98813 0.02815 0.58836 0.0
Gd299 Gd 0.04217 1.00537 0.69427 0.0
N300 N 0.06481 0.02485 0.77262 0.0
C301 C 0.09289 0.04946 0.85934 0.0
C302 C 0.05505 0.03283 0.82802 0.0
C303 C 0.06883 0.04557 0.87169 0.0
H304 H 0.03647 0.02981 0.83785 0.0
H305 H 0.06091 0.05234 0.91483 0.0
H306 H 0.00866 0.06911 0.48391 0.0
H307 H 0.08018 0.97833 0.59731 0.0
H308 H 0.02202 0.07046 0.37179 0.0
H309 H 0.10358 0.05918 0.89341 0.0
H310 H 0.13899 0.05185 0.82311 0.0
H311 H 0.94634 0.98603 0.59406 0.0
H312 H 0.1502 1.00438 0.63639 0.0
H313 H 0.1231 0.97896 0.57346 0.0
H314 H 1.0 0.99441 0.28865 0.0
H315 H 0.15595 0.03196 0.72946 0.0
H316 H 0.94914 0.94659 0.41987 0.0
H317 H 0.93241 0.9524 0.52768 0.0
N318 N 0.97094 0.99838 0.52487 0.0
C319 C 0.97924 0.99633 0.46471 0.0
C320 C 0.95342 0.98364 0.54667 0.0
C321 C 0.95524 0.96129 0.44874 0.0
C322 C 0.94565 0.96459 0.50944 0.0
C323 C 0.97176 0.97766 0.42494 0.0
H324 H 0.97481 0.96229 0.33085 0.0
N325 N 0.99822 0.03291 0.47981 0.0
C326 C 0.99348 0.01425 0.44131 0.0
C327 C 0.01173 0.03445 0.35248 0.0
C328 C 1.00041 0.01429 0.37685 0.0
C329 C 1.00679 0.05354 0.45446 0.0
C330 C 0.0143 0.05442 0.391 0.0
O331 O 0.03558 0.04461 0.71145 0.0
O332 O 1.00596 0.05815 0.64299 0.0
O333 O 0.95913 0.04643 0.54178 0.0
O334 O 0.96024 0.0445 0.64372 0.0
O335 O 0.0096 0.02008 0.74443 0.0
O336 O 0.98055 1.00703 0.67748 0.0
O337 O 0.99429 0.98954 0.6113 0.0
O338 O 0.0339 0.98603 0.60174 0.0
O339 O 0.01912 0.97676 0.72418 0.0
O340 O 0.05679 0.97644 0.75048 0.0
O341 O 0.02545 0.04289 0.56832 0.0
O342 O 0.04944 0.01154 0.58988 0.0
C343 C 0.02191 0.06146 0.68846 0.0
C344 C 0.98732 0.01438 0.73384 0.0
C345 C 0.94784 0.07996 0.60017 0.0
C346 C 0.96638 0.11904 0.59638 0.0
C347 C 0.92682 0.11399 0.6405 0.0
C348 C 0.9277 0.0897 0.6285 0.0
C349 C 0.94611 0.12861 0.62502 0.0
C350 C 0.96695 0.09471 0.5837 0.0
C351 C 0.95037 0.05427 0.59486 0.0
C352 C 0.99451 0.99489 0.33805 0.0
C353 C 0.98016 0.9766 0.36207 0.0
H354 H 0.01737 0.03522 0.30323 0.0
C355 C 0.01255 0.97796 0.58927 0.0
C356 C 0.04475 0.03059 0.55705 0.0
C357 C 0.03213 0.94284 0.78377 0.0
C358 C 1.00589 0.90941 0.80611 0.0
C359 C 0.04694 0.90893 0.84129 0.0
C360 C 0.0507 0.93125 0.81479 0.0
C361 C 0.02472 0.898 0.8369 0.0
C362 C 0.00971 0.93189 0.77997 0.0
C363 C 0.03629 0.96557 0.75175 0.0
H364 H 0.91126 0.12146 0.6626 0.0
H365 H 0.91292 0.07849 0.64248 0.0
H366 H 0.9451 0.14734 0.63491 0.0
H367 H 0.98277 0.087 0.5636 0.0
H368 H 0.06131 0.90004 0.86522 0.0
H369 H 0.06815 0.9393 0.81796 0.0
H370 H 0.02216 0.8808 0.85856 0.0
H371 H 0.9953 0.94062 0.75564 0.0
C372 C 0.53586 0.95242 0.53433 0.0
C373 C 0.53145 0.91772 0.60022 0.0
C374 C 0.52674 0.94166 0.58759 0.0
C375 C 0.54686 0.90529 0.55995 0.0
C376 C 0.55016 0.93978 0.49144 0.0
C377 C 0.55622 0.91633 0.50553 0.0
N378 N 0.52905 0.97477 0.52189 0.0
C379 C 0.53451 0.98514 0.46503 0.0
C380 C 0.55705 0.95081 0.43464 0.0
C381 C 0.54881 0.97345 0.42089 0.0
Gd382 Gd 0.52728 0.0477 0.71537 0.0
Gd383 Gd 0.50734 0.99468 0.60062 0.0
N384 N 0.5115 0.95413 0.62385 0.0
C385 C 0.51969 0.90678 0.6511 0.0
C386 C 0.49864 0.94309 0.67048 0.0
C387 C 0.50285 0.91943 0.6856 0.0
H388 H 0.48531 0.95266 0.69668 0.0
H389 H 0.49295 0.9109 0.72339 0.0
H390 H 0.58254 0.0433 0.76934 0.0
H391 H 0.52825 1.00268 0.45442 0.0
H392 H 0.62175 0.06238 0.75175 0.0
H393 H 0.52276 0.8884 0.66246 0.0
H394 H 0.55094 0.88695 0.56916 0.0
H395 H 0.48692 0.08939 0.68431 0.0
H396 H 0.56804 0.94174 0.40031 0.0
H397 H 0.55346 0.9819 0.37637 0.0
H398 H 0.60424 0.12898 0.61808 0.0
H399 H 0.5674 0.90635 0.47361 0.0
H400 H 0.52195 0.14685 0.58889 0.0
H401 H 0.48509 0.12784 0.62848 0.0
N402 N 0.52422 0.08626 0.67333 0.0
C403 C 0.54464 0.09707 0.65542 0.0
C404 C 0.50307 0.09761 0.66711 0.0
C405 C 0.52281 0.12994 0.61288 0.0
C406 C 0.50198 0.11933 0.63545 0.0
C407 C 0.54459 0.11914 0.62444 0.0
H408 H 0.56668 0.14693 0.58421 0.0
N409 N 0.56438 0.06688 0.70853 0.0
C410 C 0.56558 0.087 0.67395 0.0
C411 C 0.6079 0.08923 0.68965 0.0
C412 C 0.58735 0.09867 0.66283 0.0
C413 C 0.58397 0.05869 0.73914 0.0
C414 C 0.60611 0.06942 0.72914 0.0
O415 O 0.51219 0.9879 0.70661 0.0
O416 O 0.54313 0.01154 0.73686 0.0
O417 O 0.51168 0.03701 0.8054 0.0
O418 O 0.52969 0.07073 0.79783 0.0
O419 O 0.4874 1.00202 0.69248 0.0
O420 O 0.48779 0.04209 0.69837 0.0
O421 O 0.5045 0.05223 0.62819 0.0
O422 O 0.51968 0.02887 0.5526 0.0
O423 O 0.47831 0.01435 0.5613 0.0
O424 O 0.47881 0.97637 0.55033 0.0
O425 O 0.55789 0.02702 0.67113 0.0
O426 O 0.54463 1.0082 0.57933 0.0
C427 C 0.53147 0.99133 0.7403 0.0
C428 C 0.47656 0.02185 0.70618 0.0
C429 C 0.53314 0.05042 0.89433 0.0
C430 C 0.56364 0.02811 0.94977 0.0
C431 C 0.54383 0.06081 1.0024 0.0
C432 C 0.53023 0.06474 0.948 0.0
C433 C 0.56054 0.04274 1.00331 0.0
C434 C 0.5496 0.03204 0.89571 0.0
C435 C 0.51991 0.05536 0.83587 0.0
C436 C 0.58767 0.11988 0.62806 0.0
C437 C 0.56628 0.13011 0.60882 0.0
H438 H 0.62501 0.09763 0.68226 0.0
C439 C 0.5131 0.04996 0.57081 0.0
C440 C 0.5617 0.01726 0.61483 0.0
C441 C 0.44166 0.9951 0.56867 0.0
C442 C 0.40485 0.01674 0.58438 0.0
C443 C 0.40802 0.97597 0.61982 0.0
C444 C 0.43131 0.97507 0.59712 0.0
C445 C 0.39479 0.99662 0.61341 0.0
C446 C 0.42847 0.01582 0.56366 0.0
C447 C 0.46633 0.99555 0.54555 0.0
H448 H 0.54166 0.07203 0.04367 0.0
H449 H 0.51764 0.07908 0.94756 0.0
H450 H 0.57132 0.04061 0.04545 0.0
H451 H 0.55148 0.02085 0.8544 0.0
H452 H 0.40011 0.96053 0.64194 0.0
H453 H 0.4412 0.95889 0.60249 0.0
H454 H 0.37655 0.99655 0.62938 0.0
H455 H 0.43676 0.03139 0.543 0.0
C456 C 0.46476 0.49376 0.80556 0.0
C457 C 0.48609 0.49437 0.90536 0.0
C458 C 0.48222 0.50346 0.84383 0.0
C459 C 0.47312 0.47446 0.92592 0.0
C460 C 0.45062 0.47479 0.82739 0.0
C461 C 0.45538 0.4647 0.88702 0.0
N462 N 0.46103 0.50355 0.74758 0.0
C463 C 0.44178 0.49709 0.71191 0.0
C464 C 0.4318 0.46693 0.78916 0.0
C465 C 0.4271 0.47843 0.73171 0.0
Gd466 Gd 0.53711 0.50902 0.59799 0.0
Gd467 Gd 0.48766 0.5334 0.71533 0.0
N468 N 0.49414 0.52288 0.82266 0.0
C469 C 0.50216 0.50615 0.94522 0.0
C470 C 0.508 0.5357 0.86359 0.0
C471 C 0.51275 0.52721 0.92472 0.0
H472 H 0.51567 0.55241 0.84907 0.0
H473 H 0.52442 0.53702 0.95612 0.0
H474 H 0.51685 0.51987 0.45321 0.0
H475 H 0.43847 0.5058 0.66702 0.0
H476 H 0.52571 0.54649 0.36239 0.0
H477 H 0.5057 0.49971 0.99279 0.0
H478 H 0.47612 0.46698 0.97265 0.0
H479 H 0.58641 0.51168 0.69119 0.0
H480 H 0.42051 0.45238 0.80421 0.0
H481 H 0.41231 0.47281 0.70247 0.0
H482 H 0.59221 0.59297 0.43434 0.0
H483 H 0.44503 0.4498 0.90421 0.0
H484 H 0.62792 0.5713 0.63252 0.0
H485 H 0.62044 0.5384 0.7076 0.0
N486 N 0.57244 0.53121 0.61325 0.0
C487 C 0.57737 0.54793 0.56863 0.0
C488 C 0.58849 0.52679 0.66035 0.0
C489 C 0.61243 0.56007 0.62634 0.0
C490 C 0.60824 0.54157 0.66888 0.0
C491 C 0.59736 0.56295 0.57418 0.0
H492 H 0.61727 0.59154 0.5301 0.0
N493 N 0.54451 0.53386 0.51081 0.0
C494 C 0.5633 0.54889 0.51494 0.0
C495 C 0.55503 0.56372 0.40969 0.0
C496 C 0.56874 0.56467 0.46511 0.0
C497 C 0.53137 0.53241 0.45641 0.0
C498 C 0.53632 0.54744 0.40521 0.0
O499 O 0.48824 0.49433 0.68735 0.0
O500 O 0.52725 0.4852 0.68144 0.0
O501 O 0.53378 0.48202 0.52599 0.0
O502 O 0.56713 0.48656 0.57486 0.0
O503 O 0.52623 0.54163 0.74156 0.0
O504 O 0.54434 0.50835 0.70432 0.0
O505 O 0.52061 0.54511 0.57968 0.0
O506 O 0.51569 0.55944 0.67991 0.0
O507 O 0.46908 0.5578 0.77735 0.0
O508 O 0.45871 0.55435 0.67917 0.0
O509 O 0.49899 0.5014 0.56606 0.0
O510 O 0.47771 0.53201 0.61088 0.0
C511 C 0.50557 0.47962 0.69873 0.0
C512 C 0.543 0.52569 0.74582 0.0
C513 C 0.55405 0.44766 0.55375 0.0
C514 C 0.53096 0.41246 0.58284 0.0
C515 C 0.57222 0.40923 0.54859 0.0
C516 C 0.57364 0.43363 0.5399 0.0
C517 C 0.55098 0.39862 0.5684 0.0
C518 C 0.5334 0.43715 0.5788 0.0
C519 C 0.55436 0.47299 0.53837 0.0
C520 C 0.58793 0.58045 0.47171 0.0
C521 C 0.60216 0.57967 0.52631 0.0
H522 H 0.55893 0.57521 0.36977 0.0
C523 C 0.52026 0.56302 0.61931 0.0
C524 C 0.48057 0.51566 0.56695 0.0
C525 C 0.45559 0.59173 0.7242 0.0
C526 C 0.4768 0.62932 0.71498 0.0
C527 C 0.4337 0.62781 0.70844 0.0
C528 C 0.43399 0.60336 0.71694 0.0
C529 C 0.4549 0.64078 0.70792 0.0
C530 C 0.47686 0.60462 0.7218 0.0
C531 C 0.45596 0.56602 0.73171 0.0
H532 H 0.58731 0.39835 0.53708 0.0
H533 H 0.5898 0.44148 0.52129 0.0
H534 H 0.55019 0.37954 0.56914 0.0
H535 H 0.51879 0.44836 0.59188 0.0
H536 H 0.41697 0.6368 0.70327 0.0
H537 H 0.41742 0.59355 0.71778 0.0
H538 H 0.45399 0.65981 0.704 0.0
H539 H 0.49343 0.59532 0.72606 0.0
C540 C 0.02948 0.46713 0.79721 0.0
C541 C 1.00384 0.47647 0.88589 0.0
C542 C 0.00982 0.47846 0.82095 0.0
C543 C 0.01884 0.46406 0.92714 0.0
C544 C 0.04383 0.45344 0.83752 0.0
C545 C 0.03883 0.45257 0.90298 0.0
N546 N 0.03339 0.4679 0.73366 0.0
C547 C 0.05021 0.45397 0.70639 0.0
C548 C 0.06207 0.44023 0.81035 0.0
C549 C 0.06499 0.44017 0.74432 0.0
Gd550 Gd 0.029 0.5485 0.57362 0.0
Gd551 Gd 0.00875 0.49245 0.67346 0.0
N552 N 0.99552 0.48982 0.77946 0.0
C553 C 0.98247 0.48614 0.90678 0.0
C554 C 0.97404 0.49814 0.79881 0.0
C555 C 0.96732 0.49666 0.86283 0.0
H556 H 0.96249 0.50667 0.76514 0.0
H557 H 0.95054 0.50367 0.87844 0.0
H558 H 0.99862 0.54389 0.43659 0.0
H559 H 0.05248 0.45382 0.65534 0.0
H560 H 0.97154 0.56811 0.37204 0.0
H561 H 0.97719 0.48495 0.95626 0.0
H562 H 0.0147 0.46257 0.97734 0.0
H563 H 0.05953 0.58575 0.66391 0.0
H564 H 0.07348 0.42946 0.83963 0.0
H565 H 0.07862 0.42952 0.72262 0.0
H566 H 0.97479 0.64455 0.47145 0.0
H567 H 0.0498 0.44238 0.93489 0.0
H568 H 0.0318 0.65538 0.63869 0.0
H569 H 0.06017 0.62837 0.69052 0.0
N570 N 0.03107 0.58881 0.59855 0.0
C571 C 0.01616 0.60344 0.56767 0.0
C572 C 0.04717 0.5975 0.64112 0.0
C573 C 0.03149 0.63674 0.62691 0.0
C574 C 0.04756 0.62157 0.65617 0.0
C575 C 0.01568 0.62778 0.58141 0.0
H576 H 0.99928 0.66115 0.55795 0.0
N577 N 1.00547 0.57111 0.5042 0.0
C578 C 1.00269 0.5942 0.51898 0.0
C579 C 0.9761 0.59918 0.43018 0.0
C580 C 0.98793 0.60891 0.48262 0.0
C581 C 0.99529 0.56194 0.45051 0.0
C582 C 0.98007 0.57565 0.41354 0.0
O583 O 0.04807 0.501 0.67009 0.0
O584 O 0.04815 0.54132 0.66714 0.0
O585 O 0.06379 0.53365 0.55952 0.0
O586 O 0.05254 0.5631 0.50151 0.0
O587 O 1.00298 0.52697 0.72804 0.0
O588 O 0.01475 0.56028 0.66972 0.0
O589 O 0.99466 0.52987 0.54845 0.0
O590 O 0.97962 0.51818 0.6438 0.0
O591 O 0.99019 0.4758 0.59503 0.0
O592 O 0.99037 0.45883 0.68683 0.0
O593 O 0.01878 0.51462 0.52326 0.0
O594 O 0.03465 0.48821 0.59145 0.0
C595 C 0.05711 0.52138 0.68809 0.0
C596 C 1.00604 0.55014 0.72157 0.0
C597 C 0.0758 0.53361 0.45171 0.0
C598 C 0.09126 0.49777 0.40164 0.0
C599 C 0.08324 0.53285 0.33809 0.0
C600 C 0.07578 0.54487 0.39226 0.0
C601 C 0.09109 0.50962 0.34259 0.0
C602 C 0.08343 0.51004 0.45589 0.0
C603 C 0.0681 0.54646 0.50929 0.0
C604 C 0.98621 0.63297 0.49838 0.0
C605 C 1.00014 0.64242 0.54763 0.0
H606 H 0.96449 0.60983 0.40114 0.0
C607 C 0.97643 0.52674 0.58612 0.0
C608 C 0.02954 0.4945 0.53294 0.0
C609 C 0.95609 0.45497 0.62407 0.0
C610 C 0.91639 0.47071 0.6385 0.0
C611 C 0.92232 0.43478 0.57723 0.0
C612 C 0.94675 0.43635 0.5878 0.0
C613 C 0.90718 0.45194 0.60198 0.0
C614 C 0.94086 0.47177 0.64994 0.0
C615 C 0.98175 0.45857 0.62938 0.0
H616 H 0.08333 0.54172 0.29247 0.0
H617 H 0.07009 0.56301 0.38764 0.0
H618 H 0.09769 0.50134 0.29979 0.0
H619 H 0.0831 0.50119 0.50152 0.0
H620 H 0.91513 0.42042 0.54901 0.0
H621 H 0.95836 0.42336 0.56673 0.0
H622 H 0.88834 0.45048 0.59281 0.0
H623 H 0.94835 0.4865 0.67596 0.0
H624 H 0.1458 0.00934 0.29317 0.0
H625 H 0.14522 0.08492 0.2583 0.0
H626 H 0.11272 0.08926 0.33553 0.0
H627 H 0.08115 1.00285 0.31435 0.0
H628 H 0.08389 0.98095 0.37603 0.0
H629 H 0.10624 0.98337 0.31499 0.0
H630 H 0.13889 0.98908 0.40132 0.0
H631 H 0.11628 0.98581 0.46111 0.0
H632 H 0.13518 0.01169 0.46092 0.0
H633 H 0.08171 0.08596 0.42223 0.0
H634 H 0.05357 0.07487 0.50825 0.0
H635 H 0.07388 1.0016 0.48746 0.0
C636 C 0.13877 0.02679 0.3014 0.0
C637 C 0.14816 0.04674 0.26856 0.0
C638 C 0.1382 0.06921 0.2812 0.0
C639 C 0.11977 0.07193 0.32563 0.0
C640 C 0.11115 0.05202 0.35743 0.0
C641 C 0.12017 0.02983 0.34552 0.0
C642 C 0.10782 0.01138 0.38686 0.0
C643 C 0.09396 0.99359 0.34558 0.0
C644 C 0.12563 0.99877 0.43014 0.0
C645 C 0.09108 0.02677 0.4252 0.0
C646 C 0.09311 0.05013 0.40706 0.0
C647 C 0.07971 0.06769 0.4363 0.0
C648 C 0.06376 0.06123 0.48506 0.0
C649 C 0.06131 0.03739 0.50448 0.0
C650 C 0.0753 0.02002 0.47394 0.0
H651 H 0.53612 0.1519 0.30762 0.0
H652 H 0.45986 0.16096 0.30361 0.0
H653 H 0.45509 0.12876 0.38152 0.0
H654 H 0.53432 0.08726 0.32133 0.0
H655 H 0.55949 0.08596 0.37393 0.0
H656 H 0.5572 0.10966 0.31709 0.0
H657 H 0.56138 0.14005 0.40819 0.0
H658 H 0.56331 0.11656 0.46571 0.0
H659 H 0.54101 0.13894 0.47419 0.0
H660 H 0.45836 0.09741 0.46581 0.0
H661 H 0.46937 0.0665 0.54318 0.0
H662 H 0.54319 0.07494 0.4903 0.0
C663 C 0.51842 0.14701 0.32288 0.0
C664 C 0.49834 0.15905 0.29855 0.0
C665 C 0.47552 0.15193 0.32015 0.0
C666 C 0.47262 0.1337 0.365 0.0
C667 C 0.49266 0.12231 0.38803 0.0
C668 C 0.51513 0.12843 0.36721 0.0
C669 C 0.5336 0.11295 0.39937 0.0
C670 C 0.54694 0.09808 0.34998 0.0
C671 C 0.55085 0.12802 0.43924 0.0
C672 C 0.51801 0.09739 0.44172 0.0
C673 C 0.49445 0.10334 0.43475 0.0
C674 C 0.47671 0.09236 0.47076 0.0
C675 C 0.48311 0.07479 0.51463 0.0
C676 C 0.50701 0.06794 0.52179 0.0
C677 C 0.5247 0.07942 0.48466 0.0
H678 H 0.37542 0.468 0.34074 0.0
H679 H 0.37343 0.53846 0.25882 0.0
H680 H 0.40668 0.5505 0.32763 0.0
H681 H 0.39006 0.48501 0.49953 0.0
H682 H 0.4099 0.46078 0.51338 0.0
H683 H 0.3858 0.45745 0.45786 0.0
H684 H 0.41545 0.44556 0.3697 0.0
H685 H 0.43961 0.44886 0.42512 0.0
H686 H 0.44003 0.46495 0.35111 0.0
H687 H 0.43917 0.55576 0.4091 0.0
H688 H 0.46923 0.55326 0.49426 0.0
H689 H 0.45301 0.47884 0.51869 0.0
C690 C 0.38209 0.48589 0.33614 0.0
C691 C 0.37129 0.50223 0.2937 0.0
C692 C 0.3807 0.52557 0.29123 0.0
C693 C 0.39986 0.53259 0.32995 0.0
C694 C 0.4099 0.5161 0.37097 0.0
C695 C 0.40148 0.49316 0.37403 0.0
C696 C 0.41552 0.47893 0.4225 0.0
C697 C 0.39935 0.47002 0.47651 0.0
C698 C 0.42842 0.45836 0.39016 0.0
C699 C 0.43304 0.49751 0.4465 0.0
C700 C 0.42934 0.51887 0.41624 0.0
C701 C 0.44238 0.53905 0.4324 0.0
C702 C 0.45944 0.53747 0.48087 0.0
C703 C 0.46374 0.51583 0.51236 0.0
C704 C 0.45049 0.4955 0.4944 0.0
H705 H 0.04656 0.36877 0.36086 0.0
H706 H 0.03869 0.40487 0.18021 0.0
H707 H 0.03573 0.44304 0.23717 0.0
H708 H 1.00527 0.40375 0.4486 0.0
H709 H 0.02232 0.40366 0.52106 0.0
H710 H 0.02457 0.3794 0.466 0.0
H711 H 0.07001 0.38569 0.4606 0.0
H712 H 0.06796 0.41015 0.51523 0.0
H713 H 0.08178 0.41421 0.43872 0.0
H714 H 0.03146 0.47722 0.31494 0.0
H715 H 0.02725 0.50449 0.40583 0.0
H716 H 0.03906 0.44647 0.53646 0.0
C717 C 0.04414 0.38468 0.33315 0.0
C718 C 0.04278 0.38368 0.26571 0.0
C719 C 0.03993 0.40507 0.23162 0.0
C720 C 0.03817 0.42686 0.26369 0.0
C721 C 0.03949 0.42715 0.33007 0.0
C722 C 0.04253 0.4066 0.3644 0.0
C723 C 0.04308 0.41168 0.43549 0.0
C724 C 0.02259 0.39886 0.46979 0.0
C725 C 0.06714 0.40503 0.46422 0.0
C726 C 0.03962 0.43827 0.43598 0.0
C727 C 0.03753 0.44683 0.37464 0.0
C728 C 0.0332 0.47066 0.36304 0.0
C729 C 0.03075 0.48604 0.41516 0.0
C730 C 0.03291 0.47777 0.4786 0.0
C731 C 0.03761 0.4535 0.48875 0.0
H732 H 0.88855 0.97338 0.98647 0.0
H733 H 0.87428 0.0476 0.02033 0.0
H734 H 0.90708 0.05844 0.94791 0.0
H735 H 0.95227 0.97956 0.97356 0.0
H736 H 0.95533 0.95814 0.91105 0.0
H737 H 0.9316 0.95517 0.96797 0.0
H738 H 0.90022 0.9546 0.87935 0.0
H739 H 0.92333 0.95665 0.82047 0.0
H740 H 0.89986 0.97802 0.82122 0.0
H741 H 0.94128 0.06127 0.86796 0.0
H742 H 0.97236 0.05561 0.78591 0.0
H743 H 0.96211 0.97983 0.79742 0.0
C744 C 0.89209 0.99198 0.97873 0.0
C745 C 0.87847 0.00958 1.00987 0.0
C746 C 0.88445 0.03364 0.99858 0.0
C747 C 0.90303 0.04002 0.95688 0.0
C748 C 0.91566 0.02221 0.92624 0.0
C749 C 0.91039 0.99866 0.93669 0.0
C750 C 0.92623 0.98288 0.89676 0.0
C751 C 0.94229 0.96804 0.93988 0.0
C752 C 0.91153 0.96711 0.85179 0.0
C753 C 0.94059 1.00121 0.86011 0.0
C754 C 0.93463 0.02381 0.87894 0.0
C755 C 0.94595 0.04364 0.8529 0.0
C756 C 0.96359 0.04029 0.80636 0.0
C757 C 0.96944 0.01736 0.7851 0.0
C758 C 0.95779 0.99758 0.81249 0.0
H759 H 0.51009 0.89038 1.00574 0.0
H760 H 0.58652 0.88292 0.01427 0.0
H761 H 0.59114 0.91454 0.9346 0.0
H762 H 0.50658 0.90053 0.83742 0.0
H763 H 0.48333 0.92208 0.84269 0.0
H764 H 0.48572 0.8994 0.90237 0.0
H765 H 0.48787 0.9312 0.99066 0.0
H766 H 0.48529 0.95402 0.93138 0.0
H767 H 0.50999 0.95432 0.98568 0.0
H768 H 0.58754 0.946 0.84917 0.0
H769 H 0.57611 0.97718 0.7723 0.0
H770 H 0.50213 0.96385 0.81586 0.0
C771 C 0.52783 0.89535 0.99102 0.0
C772 C 0.54793 0.88398 0.01747 0.0
C773 C 0.57076 0.89139 0.99638 0.0
C774 C 0.5736 0.90928 0.95035 0.0
C775 C 0.55348 0.91994 0.92529 0.0
C776 C 0.53102 0.91335 0.94513 0.0
C777 C 0.51234 0.92766 0.9103 0.0
C778 C 0.49602 0.91145 0.87084 0.0
C779 C 0.49803 0.94269 0.95732 0.0
C780 C 0.52777 0.94317 0.86761 0.0
C781 C 0.55147 0.93843 0.87707 0.0
C782 C 0.56908 0.95031 0.84265 0.0
C783 C 0.56243 0.96794 0.79893 0.0
C784 C 0.5383 0.97319 0.78844 0.0
C785 C 0.52078 0.96036 0.82297 0.0
H786 H 0.63941 0.57742 0.99349 0.0
H787 H 0.65639 0.50436 0.03663 0.0
H788 H 0.62336 0.49117 0.96919 0.0
H789 H 0.57512 0.57056 0.9817 0.0
H790 H 0.57247 0.58997 0.91424 0.0
H791 H 0.59601 0.59454 0.97094 0.0
H792 H 0.62678 0.59255 0.88077 0.0
H793 H 0.60394 0.58733 0.82249 0.0
H794 H 0.62786 0.56679 0.83036 0.0
H795 H 0.5907 0.48523 0.88974 0.0
H796 H 0.56058 0.48716 0.8052 0.0
H797 H 0.56436 0.56367 0.80903 0.0
C798 C 0.6363 0.5586 0.98933 0.0
C799 C 0.65087 0.54208 0.02197 0.0
C800 C 0.64552 0.51766 0.01446 0.0
C801 C 0.62677 0.50988 0.97541 0.0
C802 C 0.61325 0.52658 0.94333 0.0
C803 C 0.6177 0.55046 0.94984 0.0
C804 C 0.60138 0.56461 0.90663 0.0
C805 C 0.5853 0.58089 0.94572 0.0
C806 C 0.61585 0.57867 0.85719 0.0
C807 C 0.58707 0.54494 0.87493 0.0
C808 C 0.59431 0.52315 0.89696 0.0
C809 C 0.58476 0.50221 0.87275 0.0
C810 C 0.56763 0.5035 0.82453 0.0
C811 C 0.55986 0.52553 0.80071 0.0
C812 C 0.56958 0.54657 0.827 0.0
H813 H 0.99564 0.6718 0.92035 0.0
H814 H 0.99087 0.62899 0.09121 0.0
H815 H 0.9928 0.59286 0.02565 0.0
H816 H 0.96023 0.6334 0.81957 0.0
H817 H 0.97816 0.63841 0.74973 0.0
H818 H 0.97605 0.66099 0.80987 0.0
H819 H 0.02194 0.66184 0.82247 0.0
H820 H 0.0235 0.64011 0.76046 0.0
H821 H 0.03726 0.63448 0.83617 0.0
H822 H 0.99585 0.56105 0.94126 0.0
H823 H 1.0007 0.53633 0.84604 0.0
H824 H 1.00308 0.59923 0.72809 0.0
C825 C 0.9952 0.65485 0.94416 0.0
C826 C 0.99307 0.65345 1.01144 0.0
C827 C 0.99222 0.63074 0.04003 0.0
C828 C 0.99338 0.61003 1.00307 0.0
C829 C 0.99529 0.61208 0.93709 0.0
C830 C 0.9962 0.63392 0.90785 0.0
C831 C 0.9985 0.63117 0.83608 0.0
C832 C 0.97695 0.64162 0.80181 0.0
C833 C 0.02171 0.64257 0.81248 0.0
C834 C 0.99895 0.60438 0.82943 0.0
C835 C 0.99695 0.59375 0.8884 0.0
C836 C 0.99718 0.56924 0.89486 0.0
C837 C 0.99968 0.55524 0.84001 0.0
C838 C 1.00178 0.56554 0.77868 0.0
C839 C 1.00137 0.59059 0.77382 0.0
H840 H 0.06202 0.17199 0.36314 0.0
H841 H 0.08104 0.22292 0.50937 0.0
H842 H 0.05606 0.20106 0.5863 0.0
H843 H 1.00525 0.1669 0.39578 0.0
H844 H 1.0019 0.13559 0.38233 0.0
H845 H 0.0251 0.15174 0.34269 0.0
H846 H 0.05654 0.12373 0.3892 0.0
H847 H 0.03354 0.10706 0.42903 0.0
H848 H 0.05796 0.11914 0.47401 0.0
H849 H 0.02222 0.1788 0.63911 0.0
H850 H 0.98695 0.1547 0.6673 0.0
H851 H 0.99234 0.11768 0.48729 0.0
C852 C 0.06211 0.17799 0.41201 0.0
C853 C 0.07345 0.19936 0.42977 0.0
C854 C 0.07226 0.2068 0.49416 0.0
C855 C 0.0582 0.19443 0.53836 0.0
C856 C 0.04594 0.17434 0.5178 0.0
C857 C 0.04839 0.16579 0.45656 0.0
C858 C 0.03179 0.14521 0.44412 0.0
C859 C 0.01503 0.15019 0.38795 0.0
C860 C 0.0458 0.12243 0.43344 0.0
C861 C 0.01857 0.14442 0.50647 0.0
C862 C 0.02707 0.16113 0.54883 0.0
C863 C 0.01591 0.16518 0.60702 0.0
C864 C 0.99577 0.15156 0.6224 0.0
C865 C 0.9872 0.13401 0.58 0.0
C866 C 0.99886 0.1305 0.52146 0.0
H867 H 0.3493 0.10387 0.34366 0.0
H868 H 0.29304 0.11616 0.48016 0.0
H869 H 0.31769 0.09874 0.56441 0.0
H870 H 0.36111 0.05134 0.38322 0.0
H871 H 0.39287 0.0519 0.37416 0.0
H872 H 0.37522 0.07228 0.33034 0.0
H873 H 0.39839 0.10788 0.37798 0.0
H874 H 0.41688 0.0874 0.42032 0.0
H875 H 0.40171 0.11037 0.46302 0.0
H876 H 0.34325 0.06996 0.62442 0.0
H877 H 0.36907 0.03687 0.65618 0.0
H878 H 0.40737 0.04403 0.47805 0.0
C879 C 0.34256 0.10443 0.39179 0.0
C880 C 0.31898 0.11109 0.40463 0.0
C881 C 0.31087 0.11073 0.46855 0.0
C882 C 0.32485 0.10101 0.51699 0.0
C883 C 0.34717 0.09243 0.50114 0.0
C884 C 0.35628 0.09484 0.44028 0.0
C885 C 0.37882 0.08098 0.43199 0.0
C886 C 0.37684 0.06308 0.37676 0.0
C887 C 0.40021 0.09766 0.42283 0.0
C888 C 0.37984 0.06876 0.49565 0.0
C889 C 0.36193 0.07596 0.53583 0.0
C890 C 0.3578 0.06476 0.59408 0.0
C891 C 0.37233 0.04575 0.61136 0.0
C892 C 0.39055 0.03801 0.57013 0.0
C893 C 0.39433 0.05 0.51207 0.0
H894 H 0.46455 0.30515 0.49333 0.0
H895 H 0.4138 0.35289 0.41017 0.0
H896 H 0.42353 0.38247 0.49158 0.0
H897 H 0.45946 0.33422 0.67191 0.0
H898 H 0.49052 0.32823 0.68213 0.0
H899 H 0.47173 0.30725 0.64103 0.0
H900 H 0.50032 0.30865 0.54499 0.0
H901 H 0.51878 0.32971 0.58459 0.0
H902 H 0.5068 0.33666 0.50736 0.0
H903 H 0.45021 0.41032 0.5393 0.0
H904 H 0.48703 0.43153 0.55482 0.0
H905 H 0.51963 0.36764 0.62686 0.0
C906 C 0.45428 0.32116 0.49519 0.0
C907 C 0.43878 0.32691 0.44482 0.0
C908 C 0.42606 0.34826 0.44767 0.0
C909 C 0.43132 0.36511 0.49438 0.0
C910 C 0.44885 0.36009 0.53909 0.0
C911 C 0.45939 0.3381 0.54201 0.0
C912 C 0.4809 0.33871 0.58541 0.0
C913 C 0.47531 0.32637 0.64888 0.0
C914 C 0.50296 0.32784 0.55356 0.0
C915 C 0.48355 0.36511 0.59524 0.0
C916 C 0.46416 0.37698 0.57128 0.0
C917 C 0.46495 0.40127 0.56097 0.0
C918 C 0.48637 0.41334 0.57026 0.0
C919 C 0.50693 0.40135 0.59145 0.0
C920 C 0.50462 0.37734 0.60917 0.0
H921 H 0.16461 0.40481 0.23958 0.0
H922 H 0.20224 0.39703 0.41809 0.0
H923 H 0.16748 0.41193 0.47513 0.0
H924 H 0.14436 0.45377 0.25505 0.0
H925 H 0.11468 0.45084 0.22415 0.0
H926 H 0.1369 0.43056 0.19941 0.0
H927 H 0.11186 0.39465 0.23828 0.0
H928 H 0.08892 0.41518 0.25903 0.0
H929 H 0.09971 0.39472 0.31768 0.0
H930 H 0.13843 0.44206 0.50362 0.0
H931 H 0.11503 0.47809 0.50349 0.0
H932 H 0.0912 0.46235 0.31154 0.0
C933 C 0.16517 0.40456 0.29093 0.0
C934 C 0.18666 0.40057 0.3238 0.0
C935 C 0.18638 0.40083 0.39122 0.0
C936 C 0.16651 0.40903 0.4243 0.0
C937 C 0.14663 0.41574 0.38959 0.0
C938 C 0.14529 0.41234 0.32449 0.0
C939 C 0.12376 0.42445 0.2968 0.0
C940 C 0.13037 0.44087 0.24069 0.0
C941 C 0.10495 0.40613 0.27684 0.0
C942 C 0.11556 0.43823 0.35426 0.0
C943 C 0.12842 0.43235 0.40788 0.0
C944 C 0.12743 0.44603 0.46294 0.0
C945 C 0.11391 0.46666 0.46234 0.0
C946 C 0.10124 0.47347 0.40709 0.0
C947 C 0.10098 0.45807 0.35415 0.0
H948 H 0.93132 0.80039 0.87837 0.0
H949 H 0.88212 0.84847 0.9671 0.0
H950 H 0.89666 0.8805 0.89769 0.0
H951 H 0.97588 0.8311 0.89114 0.0
H952 H 0.99118 0.82547 0.8174 0.0
H953 H 0.97026 0.80431 0.84681 0.0
H954 H 0.94609 0.8063 0.74261 0.0
H955 H 0.96751 0.82711 0.71122 0.0
H956 H 0.93651 0.83446 0.71256 0.0
H957 H 0.9253 0.90888 0.85233 0.0
H958 H 0.9632 0.92965 0.83248 0.0
H959 H 0.99524 0.86378 0.77611 0.0
C960 C 0.92235 0.81718 0.88002 0.0
C961 C 0.90577 0.82197 0.92856 0.0
C962 C 0.89496 0.84442 0.93045 0.0
C963 C 0.90311 0.86273 0.89091 0.0
C964 C 0.92173 0.85817 0.84899 0.0
C965 C 0.93075 0.83564 0.84184 0.0
C966 C 0.95401 0.83608 0.8057 0.0
C967 C 0.97396 0.82354 0.84256 0.0
C968 C 0.95083 0.82536 0.73905 0.0
C969 C 0.95828 0.86241 0.80158 0.0
C970 C 0.93895 0.87491 0.82358 0.0
C971 C 0.94018 0.89931 0.83304 0.0
C972 C 0.96184 0.91097 0.82216 0.0
C973 C 0.98211 0.89815 0.80375 0.0
C974 C 0.97993 0.87386 0.79043 0.0
H975 H 0.65753 0.94394 0.10339 0.0
H976 H 0.68613 0.93245 0.91392 0.0
H977 H 0.65123 0.95182 0.86817 0.0
H978 H 0.5919 0.9365 0.05377 0.0
H979 H 0.58362 0.95853 0.11121 0.0
H980 H 0.60793 0.93899 0.12752 0.0
H981 H 0.63481 0.97545 0.14773 0.0
H982 H 0.61113 0.99517 0.12889 0.0
H983 H 0.63867 0.99716 0.08567 0.0
H984 H 0.62153 0.98314 0.84792 0.0
H985 H 0.59148 0.01414 0.84941 0.0
H986 H 0.57827 1.00018 0.0496 0.0
C987 C 0.65604 0.94404 0.05213 0.0
C988 C 0.67513 0.93717 0.01259 0.0
C989 C 0.67223 0.93826 0.94563 0.0
C990 C 0.65235 0.9491 0.91904 0.0
C991 C 0.63502 0.95772 0.95991 0.0
C992 C 0.63604 0.95422 0.02485 0.0
C993 C 0.61615 0.96692 0.05877 0.0
C994 C 0.59887 0.94918 0.08962 0.0
C995 C 0.62579 0.98472 0.10811 0.0
C996 C 0.60483 0.97941 1.00317 0.0
C997 C 0.61611 0.97403 0.9467 0.0
C998 C 0.61164 0.98652 0.89107 0.0
C999 C 0.59445 1.00416 0.89246 0.0
C1000 C 0.58179 0.00922 0.94913 0.0
C1001 C 0.58719 0.99656 1.00511 0.0
H1002 H 0.5814 0.67191 0.92395 0.0
H1003 H 0.56863 0.74047 0.83921 0.0
H1004 H 0.55045 0.72129 0.74702 0.0
H1005 H 0.58165 0.6352 0.76394 0.0
H1006 H 0.5655 0.61188 0.80362 0.0
H1007 H 0.58746 0.62893 0.84654 0.0
H1008 H 0.55604 0.63888 0.93196 0.0
H1009 H 0.53418 0.62221 0.88943 0.0
H1010 H 0.52885 0.65282 0.90797 0.0
H1011 H 0.52308 0.69718 0.68264 0.0
H1012 H 0.48951 0.67102 0.65501 0.0
H1013 H 0.51482 0.61929 0.79074 0.0
C1014 C 0.5756 0.68283 0.88482 0.0
C1015 C 0.5763 0.70771 0.88959 0.0
C1016 C 0.56875 0.72137 0.83695 0.0
C1017 C 0.55825 0.71057 0.78396 0.0
C1018 C 0.5554 0.6861 0.78401 0.0
C1019 C 0.56426 0.67228 0.83278 0.0
C1020 C 0.55419 0.6474 0.82994 0.0
C1021 C 0.57335 0.62982 0.80979 0.0
C1022 C 0.54261 0.63995 0.89353 0.0
C1023 C 0.5361 0.65036 0.77762 0.0
C1024 C 0.53806 0.67225 0.74901 0.0
C1025 C 0.52166 0.67983 0.70395 0.0
C1026 C 0.50239 0.66499 0.68934 0.0
C1027 C 0.49924 0.64314 0.72123 0.0
C1028 C 0.51683 0.63557 0.7643 0.0
H1029 H 0.86652 0.55381 0.90659 0.0
H1030 H 0.81162 0.5758 0.77515 0.0
H1031 H 0.8317 0.55436 0.68874 0.0
H1032 H 0.91562 0.5577 0.78318 0.0
H1033 H 0.93077 0.53296 0.81705 0.0
H1034 H 0.91458 0.55276 0.86787 0.0
H1035 H 0.88971 0.51833 0.91328 0.0
H1036 H 0.90542 0.49767 0.86457 0.0
H1037 H 0.87359 0.49912 0.85987 0.0
H1038 H 0.85355 0.52397 0.62288 0.0
H1039 H 0.8786 0.49214 0.57959 0.0
H1040 H 0.91924 0.49195 0.75475 0.0
C1041 C 0.85915 0.5552 0.85928 0.0
C1042 C 0.83717 0.56626 0.84842 0.0
C1043 C 0.8281 0.56697 0.78544 0.0
C1044 C 0.83949 0.555 0.73574 0.0
C1045 C 0.86034 0.54306 0.74928 0.0
C1046 C 0.87048 0.54378 0.8091 0.0
C1047 C 0.89222 0.52847 0.8126 0.0
C1048 C 0.91461 0.54388 0.82071 0.0
C1049 C 0.89008 0.5098 0.86569 0.0
C1050 C 0.89145 0.51734 0.74738 0.0
C1051 C 0.87331 0.52629 0.71083 0.0
C1052 C 0.86817 0.51726 0.65056 0.0
C1053 C 0.88226 0.49894 0.62676 0.0
C1054 C 0.90101 0.48966 0.66361 0.0
C1055 C 0.90548 0.49907 0.72466 0.0
H1056 H 0.07499 0.17051 0.89261 0.0
H1057 H 1.00351 0.19837 0.89719 0.0
H1058 H 0.99011 0.16581 0.82798 0.0
H1059 H 0.07331 0.14878 0.72863 0.0
H1060 H 0.09004 0.12264 0.74648 0.0
H1061 H 0.09467 0.14918 0.79239 0.0
H1062 H 0.0855 0.12607 0.89646 0.0
H1063 H 0.08134 0.09963 0.85009 0.0
H1064 H 0.05817 0.10944 0.90262 0.0
H1065 H 0.98348 0.1285 0.7646 0.0
H1066 H 0.98458 0.0905 0.70788 0.0
H1067 H 0.05982 0.08519 0.74602 0.0
C1068 C 0.05648 0.16989 0.87934 0.0
C1069 C 0.04043 0.18746 0.90095 0.0
C1070 C 0.01645 0.18574 0.88091 0.0
C1071 C 0.00855 0.16706 0.84182 0.0
C1072 C 0.02471 0.14996 0.82271 0.0
C1073 C 0.04821 0.15122 0.84056 0.0
C1074 C 0.06176 0.13009 0.81478 0.0
C1075 C 0.08109 0.13816 0.76778 0.0
C1076 C 0.0723 0.11545 0.86928 0.0
C1077 C 0.04212 0.11652 0.78072 0.0
C1078 C 0.02093 0.12846 0.78558 0.0
C1079 C 1.0001 0.11932 0.75943 0.0
C1080 C 1.00095 0.09774 0.72661 0.0
C1081 C 0.02237 0.08507 0.7205 0.0
C1082 C 0.04322 0.09458 0.74876 0.0
H1083 H 0.36243 0.07185 0.89181 0.0
H1084 H 0.3377 0.99918 0.90815 0.0
H1085 H 0.37164 0.98621 0.84357 0.0
H1086 H 0.38575 0.06813 0.73088 0.0
H1087 H 0.41131 0.08645 0.747 0.0
H1088 H 0.38427 0.09069 0.79107 0.0
H1089 H 0.40661 0.08514 0.89707 0.0
H1090 H 0.43386 0.08118 0.85389 0.0
H1091 H 0.42388 0.0589 0.90928 0.0
H1092 H 0.41016 0.9805 0.78363 0.0
H1093 H 0.44916 0.98274 0.73095 0.0
H1094 H 0.44963 0.05897 0.75314 0.0
C1095 C 0.36401 0.05317 0.88199 0.0
C1096 C 0.34695 0.03664 0.90557 0.0
C1097 C 0.34995 0.01242 0.8902 0.0
C1098 C 0.3694 1.00479 0.85374 0.0
C1099 C 0.38595 0.02149 0.83245 0.0
C1100 C 0.38342 0.04521 0.8458 0.0
C1101 C 0.40426 0.05943 0.81927 0.0
C1102 C 0.3959 0.07723 0.76906 0.0
C1103 C 0.41796 0.07189 0.87309 0.0
C1104 C 0.41899 0.03998 0.78927 0.0
C1105 C 0.40807 0.01823 0.79751 0.0
C1106 C 0.4187 0.9975 0.7765 0.0
C1107 C 0.44097 0.99897 0.74651 0.0
C1108 C 0.45259 0.02102 0.73709 0.0
C1109 C 0.44124 0.04181 0.75879 0.0
H1110 H 0.5215 0.36929 0.93862 0.0
H1111 H 0.45716 0.33973 0.85687 0.0
H1112 H 0.45532 0.37305 0.78166 0.0
H1113 H 0.50465 0.4296 0.9297 0.0
H1114 H 0.53344 0.44101 0.90787 0.0
H1115 H 0.53098 0.41419 0.95368 0.0
H1116 H 0.5554 0.39169 0.86915 0.0
H1117 H 0.55833 0.41853 0.82356 0.0
H1118 H 0.54614 0.39228 0.78708 0.0
H1119 H 0.45827 0.41159 0.72066 0.0
H1120 H 0.46789 0.45053 0.67323 0.0
H1121 H 0.53129 0.45499 0.78873 0.0
C1122 C 0.50725 0.36959 0.90419 0.0
C1123 C 0.48934 0.35172 0.9046 0.0
C1124 C 0.47091 0.35318 0.85878 0.0
C1125 C 0.46973 0.3721 0.81547 0.0
C1126 C 0.48718 0.38968 0.8176 0.0
C1127 C 0.50579 0.3885 0.8602 0.0
C1128 C 0.52199 0.41007 0.85284 0.0
C1129 C 0.52282 0.42457 0.91471 0.0
C1130 C 0.54695 0.40269 0.83192 0.0
C1131 C 0.50947 0.42358 0.80014 0.0
C1132 C 0.48932 0.41153 0.7808 0.0
C1133 C 0.47415 0.42099 0.73513 0.0
C1134 C 0.4797 0.44321 0.70855 0.0
C1135 C 0.50038 0.45582 0.72681 0.0
C1136 C 0.51553 0.44566 0.77298 0.0
H1137 H 0.17607 0.47451 0.85618 0.0
H1138 H 0.17876 0.54072 0.96065 0.0
H1139 H 0.14345 0.55418 0.90257 0.0
H1140 H 0.15491 0.49829 0.70621 0.0
H1141 H 0.13579 0.47332 0.69016 0.0
H1142 H 0.16235 0.46949 0.73639 0.0
H1143 H 0.1377 0.45164 0.83003 0.0
H1144 H 0.11178 0.45464 0.78129 0.0
H1145 H 0.1125 0.46768 0.85955 0.0
H1146 H 0.10661 0.56019 0.83447 0.0
H1147 H 0.07166 0.55796 0.76394 0.0
H1148 H 0.09115 0.48694 0.70841 0.0
C1149 C 0.16933 0.49184 0.86741 0.0
C1150 C 0.18067 0.50645 0.91367 0.0
C1151 C 0.17106 0.52918 0.92504 0.0
C1152 C 0.15074 0.53696 0.8925 0.0
C1153 C 0.13987 0.5219 0.84847 0.0
C1154 C 0.14887 0.4998 0.83586 0.0
C1155 C 0.13345 0.48673 0.7877 0.0
C1156 C 0.14746 0.48166 0.72649 0.0
C1157 C 0.12324 0.46383 0.81646 0.0
C1158 C 0.11412 0.50475 0.77583 0.0
C1159 C 0.11834 0.52505 0.81082 0.0
C1160 C 0.1032 0.54435 0.807 0.0
C1161 C 0.08335 0.54293 0.76657 0.0
C1162 C 0.07843 0.52226 0.73059 0.0
C1163 C 0.09412 0.5029 0.73571 0.0
H1164 H 0.02515 0.8709 0.33902 0.0
H1165 H 0.97421 0.83213 0.45441 0.0
H1166 H 0.97339 0.86514 0.53103 0.0
H1167 H 0.05776 0.89795 0.47233 0.0
H1168 H 0.06246 0.92555 0.43124 0.0
H1169 H 0.05989 0.89843 0.38675 0.0
H1170 H 0.02614 0.91662 0.32087 0.0
H1171 H 0.02773 0.94365 0.36606 0.0
H1172 H 1.00014 0.92743 0.36073 0.0
H1173 H 0.97541 0.90382 0.59106 0.0
H1174 H 0.98275 0.94384 0.63434 0.0
H1175 H 0.0339 0.95749 0.48461 0.0
C1176 C 0.01397 0.86924 0.38069 0.0
C1177 C 0.99983 0.84862 0.39049 0.0
C1178 C 0.98552 0.84737 0.44596 0.0
C1179 C 0.98479 0.86618 0.48968 0.0
C1180 C 0.99866 0.88627 0.47814 0.0
C1181 C 0.01326 0.88782 0.42547 0.0
C1182 C 0.02626 0.91155 0.42423 0.0
C1183 C 0.05319 0.90816 0.42892 0.0
C1184 C 0.01968 0.92566 0.36441 0.0
C1185 C 0.01654 0.92314 0.48403 0.0
C1186 C 1.00047 0.90828 0.51407 0.0
C1187 C 0.98821 0.91542 0.56836 0.0
C1188 C 0.99247 0.93821 0.59263 0.0
C1189 C 0.00914 0.95364 0.56352 0.0
C1190 C 0.02143 0.94588 0.50864 0.0
H1191 H 0.66606 0.01046 0.35321 0.0
H1192 H 0.71632 0.01255 0.50932 0.0
H1193 H 0.68313 0.01459 0.58575 0.0
H1194 H 0.62356 0.05121 0.42214 0.0
H1195 H 0.59813 0.03527 0.39211 0.0
H1196 H 0.62584 0.03439 0.34957 0.0
H1197 H 0.62529 0.98857 0.35497 0.0
H1198 H 0.59748 0.98962 0.39673 0.0
H1199 H 0.62214 0.97423 0.43117 0.0
H1200 H 0.64404 0.016 0.64622 0.0
H1201 H 0.60273 0.01674 0.6849 0.0
H1202 H 0.5775 0.01437 0.49014 0.0
C1203 C 0.67018 0.01168 0.4034 0.0
C1204 C 0.69408 0.01136 0.42479 0.0
C1205 C 0.69836 0.01251 0.49127 0.0
C1206 C 0.67955 0.01379 0.53522 0.0
C1207 C 0.65631 0.01387 0.51249 0.0
C1208 C 0.65156 0.01289 0.44807 0.0
C1209 C 0.62494 0.01286 0.43618 0.0
C1210 C 0.6177 0.03474 0.39772 0.0
C1211 C 0.61701 0.98995 0.4028 0.0
C1212 C 0.61545 0.01399 0.50389 0.0
C1213 C 0.63386 0.01461 0.5472 0.0
C1214 C 0.62955 0.01568 0.61255 0.0
C1215 C 0.60594 0.01628 0.63416 0.0
C1216 C 0.58668 0.01591 0.59086 0.0
C1217 C 0.59169 0.01456 0.52474 0.0
H1218 H 0.51662 0.66986 0.366 0.0
H1219 H 0.55493 0.71271 0.50382 0.0
H1220 H 0.55456 0.67921 0.57882 0.0
H1221 H 0.47898 0.63924 0.48471 0.0
H1222 H 0.47912 0.61182 0.4411 0.0
H1223 H 0.48165 0.63951 0.39922 0.0
H1224 H 0.52063 0.62556 0.34683 0.0
H1225 H 0.51792 0.59791 0.38835 0.0
H1226 H 0.54455 0.61566 0.39659 0.0
H1227 H 0.55111 0.63997 0.63886 0.0
H1228 H 0.54312 0.59958 0.67951 0.0
H1229 H 0.50749 0.5819 0.50304 0.0
C1230 C 0.52463 0.67249 0.41225 0.0
C1231 C 0.53601 0.69427 0.42795 0.0
C1232 C 0.5465 0.69634 0.48923 0.0
C1233 C 0.54624 0.67734 0.53269 0.0
C1234 C 0.53527 0.65613 0.51507 0.0
C1235 C 0.52442 0.6537 0.45651 0.0
C1236 C 0.51394 0.62896 0.44909 0.0
C1237 C 0.48681 0.62995 0.44317 0.0
C1238 C 0.52494 0.61625 0.39183 0.0
C1239 C 0.52118 0.61761 0.51172 0.0
C1240 C 0.53323 0.63369 0.54951 0.0
C1241 C 0.54144 0.6274 0.60984 0.0
C1242 C 0.53682 0.60438 0.63263 0.0
C1243 C 0.52459 0.58753 0.59481 0.0
C1244 C 0.5169 0.59432 0.53322 0.0
H1245 H 0.85737 0.57532 0.4203 0.0
H1246 H 0.84461 0.5034 0.35622 0.0
H1247 H 0.8795 0.49024 0.41639 0.0
H1248 H 0.92068 0.57377 0.41132 0.0
H1249 H 0.92563 0.5912 0.48191 0.0
H1250 H 0.89895 0.59502 0.43627 0.0
H1251 H 0.87405 0.58683 0.53742 0.0
H1252 H 0.9007 0.58261 0.58308 0.0
H1253 H 0.87826 0.55981 0.58089 0.0
H1254 H 0.91883 0.48561 0.47005 0.0
H1255 H 0.95695 0.48881 0.52585 0.0
H1256 H 0.94364 0.56233 0.5674 0.0
C1257 C 0.86176 0.55675 0.41941 0.0
C1258 C 0.84786 0.54041 0.3833 0.0
C1259 C 0.85443 0.51628 0.38395 0.0
C1260 C 0.87445 0.50863 0.41773 0.0
C1261 C 0.88786 0.52516 0.45172 0.0
C1262 C 0.88164 0.54868 0.45382 0.0
C1263 C 0.89946 0.56273 0.49378 0.0
C1264 C 0.91191 0.58181 0.45339 0.0
C1265 C 0.8874 0.57363 0.55227 0.0
C1266 C 0.91673 0.54346 0.51312 0.0
C1267 C 0.90977 0.52202 0.48737 0.0
C1268 C 0.92392 0.50208 0.49256 0.0
C1269 C 0.94549 0.50395 0.52549 0.0
C1270 C 0.95254 0.52522 0.55567 0.0
C1271 C 0.93808 0.54542 0.54821 0.0
loop_
_geom_bond_atom_site_label_1
_geom_bond_atom_site_label_2
_geom_bond_distance
_geom_bond_site_symmetry_2
_ccdc_geom_bond_type
C0 C1 1.384 . S
C0 H13 0.947 . S
C0 C35 1.382 . S
C1 C0 1.384 . S
C1 C2 1.378 . S
C2 C1 1.378 . S
C2 C3 1.378 . S
C2 H14 0.952 . S
C3 C2 1.378 . S
C3 H15 0.950 . S
C3 C34 1.383 . S
H4 C23 0.947 . S
H5 C24 0.946 . S
H6 C26 0.953 . S
H7 C27 0.945 . S
H8 C29 0.952 . S
H9 C30 0.949 1_556 S
H10 C32 0.950 . S
H11 C33 0.948 . S
H12 C35 0.951 . S
H13 C0 0.947 . S
H14 C2 0.952 . S
H15 C3 0.950 . S
N16 C19 1.382 . S
N16 C21 1.363 . S
N17 C19 1.371 . S
N17 C20 1.372 . S
N18 C20 1.361 . S
N18 C21 1.377 . S
C19 N16 1.382 . S
C19 N17 1.371 . S
C19 C22 1.480 . S
C20 N17 1.372 . S
C20 N18 1.361 . S
C20 C28 1.457 . S
C21 N16 1.363 . S
C21 N18 1.377 . S
C21 C34 1.479 . S
C22 C19 1.480 . S
C22 C23 1.383 . S
C22 C27 1.385 . S
C23 H4 0.947 . S
C23 C22 1.383 . S
C23 C24 1.388 . S
C24 H5 0.946 . S
C24 C23 1.388 . S
C24 C25 1.384 . S
C25 C24 1.384 . S
C25 C26 1.377 . S
C26 H6 0.953 . S
C26 C25 1.377 . S
C26 C27 1.369 . S
C27 H7 0.945 . S
C27 C22 1.385 . S
C27 C26 1.369 . S
C28 C20 1.457 . S
C28 C29 1.372 . S
C28 C33 1.364 . S
C29 H8 0.952 . S
C29 C28 1.372 . S
C29 C30 1.389 . S
C30 H9 0.949 1_554 S
C30 C29 1.389 . S
C30 C31 1.387 . S
C31 C30 1.387 . S
C31 C32 1.372 . S
C32 H10 0.950 . S
C32 C31 1.372 . S
C32 C33 1.379 . S
C33 H11 0.948 . S
C33 C28 1.364 . S
C33 C32 1.379 . S
C34 C3 1.383 . S
C34 C21 1.479 . S
C34 C35 1.398 . S
C35 C0 1.382 . S
C35 H12 0.951 . S
C35 C34 1.398 . S
C36 C37 1.384 . S
C36 H49 0.947 . S
C36 C71 1.382 . S
C37 C36 1.384 . S
C37 C38 1.378 . S
C38 C37 1.378 . S
C38 C39 1.378 . S
C38 H50 0.952 . S
C39 C38 1.378 . S
C39 H51 0.950 . S
C39 C70 1.383 . S
H40 C59 0.947 . S
H41 C60 0.946 . S
H42 C62 0.953 . S
H43 C63 0.945 . S
H44 C65 0.952 . S
H45 C66 0.949 1_556 S
H46 C68 0.950 . S
H47 C69 0.948 . S
H48 C71 0.951 . S
H49 C36 0.947 . S
H50 C38 0.952 . S
H51 C39 0.950 . S
N52 C55 1.382 . S
N52 C57 1.363 . S
N53 C55 1.371 . S
N53 C56 1.372 . S
N54 C56 1.361 . S
N54 C57 1.377 . S
C55 N52 1.382 . S
C55 N53 1.371 . S
C55 C58 1.480 . S
C56 N53 1.372 . S
C56 N54 1.361 . S
C56 C64 1.457 . S
C57 N52 1.363 . S
C57 N54 1.377 . S
C57 C70 1.479 . S
C58 C55 1.480 . S
C58 C59 1.383 . S
C58 C63 1.385 . S
C59 H40 0.947 . S
C59 C58 1.383 . S
C59 C60 1.388 . S
C60 H41 0.946 . S
C60 C59 1.388 . S
C60 C61 1.384 . S
C61 C60 1.384 . S
C61 C62 1.377 . S
C62 H42 0.953 . S
C62 C61 1.377 . S
C62 C63 1.369 . S
C63 H43 0.945 . S
C63 C58 1.385 . S
C63 C62 1.369 . S
C64 C56 1.457 . S
C64 C65 1.372 . S
C64 C69 1.364 . S
C65 H44 0.952 . S
C65 C64 1.372 . S
C65 C66 1.389 . S
C66 H45 0.949 1_554 S
C66 C65 1.389 . S
C66 C67 1.387 . S
C67 C66 1.387 . S
C67 C68 1.372 . S
C68 H46 0.950 . S
C68 C67 1.372 . S
C68 C69 1.379 . S
C69 H47 0.948 . S
C69 C64 1.364 . S
C69 C68 1.379 . S
C70 C39 1.383 . S
C70 C57 1.479 . S
C70 C71 1.398 . S
C71 C36 1.382 . S
C71 H48 0.951 . S
C71 C70 1.398 . S
C72 C73 1.384 . S
C72 H85 0.947 . S
C72 C107 1.382 . S
C73 C72 1.384 . S
C73 C74 1.378 . S
C74 C73 1.378 . S
C74 C75 1.378 . S
C74 H86 0.952 . S
C75 C74 1.378 . S
C75 H87 0.950 . S
C75 C106 1.383 . S
H76 C95 0.947 . S
H77 C96 0.946 . S
H78 C98 0.953 . S
H79 C99 0.945 . S
H80 C101 0.952 . S
H81 C102 0.949 1_556 S
H82 C104 0.950 . S
H83 C105 0.948 . S
H84 C107 0.951 . S
H85 C72 0.947 . S
H86 C74 0.952 . S
H87 C75 0.950 . S
N88 C91 1.382 . S
N88 C93 1.363 . S
N89 C91 1.371 . S
N89 C92 1.372 . S
N90 C92 1.361 . S
N90 C93 1.377 . S
C91 N88 1.382 . S
C91 N89 1.371 . S
C91 C94 1.480 . S
C92 N89 1.372 . S
C92 N90 1.361 . S
C92 C100 1.457 . S
C93 N88 1.363 . S
C93 N90 1.377 . S
C93 C106 1.479 . S
C94 C91 1.480 . S
C94 C95 1.383 . S
C94 C99 1.385 . S
C95 H76 0.947 . S
C95 C94 1.383 . S
C95 C96 1.388 . S
C96 H77 0.946 . S
C96 C95 1.388 . S
C96 C97 1.384 . S
C97 C96 1.384 . S
C97 C98 1.377 . S
C98 H78 0.953 . S
C98 C97 1.377 . S
C98 C99 1.369 . S
C99 H79 0.945 . S
C99 C94 1.385 . S
C99 C98 1.369 . S
C100 C92 1.457 . S
C100 C101 1.372 . S
C100 C105 1.364 . S
C101 H80 0.952 . S
C101 C100 1.372 . S
C101 C102 1.389 . S
C102 H81 0.949 1_554 S
C102 C101 1.389 . S
C102 C103 1.387 . S
C103 C102 1.387 . S
C103 C104 1.372 . S
C104 H82 0.950 . S
C104 C103 1.372 . S
C104 C105 1.379 . S
C105 H83 0.948 . S
C105 C100 1.364 . S
C105 C104 1.379 . S
C106 C75 1.383 . S
C106 C93 1.479 . S
C106 C107 1.398 . S
C107 C72 1.382 . S
C107 H84 0.951 . S
C107 C106 1.398 . S
C108 C109 1.384 . S
C108 H121 0.947 . S
C108 C143 1.382 . S
C109 C108 1.384 . S
C109 C110 1.378 . S
C110 C109 1.378 . S
C110 C111 1.378 . S
C110 H122 0.952 1_554 S
C111 C110 1.378 . S
C111 H123 0.950 . S
C111 C142 1.383 . S
H112 C131 0.947 . S
H113 C132 0.946 . S
H114 C134 0.953 . S
H115 C135 0.945 . S
H116 C137 0.952 . S
H117 C138 0.949 . S
H118 C140 0.950 . S
H119 C141 0.948 . S
H120 C143 0.951 . S
H121 C108 0.947 . S
H122 C110 0.952 1_556 S
H123 C111 0.950 . S
N124 C127 1.382 . S
N124 C129 1.363 . S
N125 C127 1.371 . S
N125 C128 1.372 . S
N126 C128 1.361 . S
N126 C129 1.377 . S
C127 N124 1.382 . S
C127 N125 1.371 . S
C127 C130 1.480 . S
C128 N125 1.372 . S
C128 N126 1.361 . S
C128 C136 1.457 . S
C129 N124 1.363 . S
C129 N126 1.377 . S
C129 C142 1.479 . S
C130 C127 1.480 . S
C130 C131 1.383 . S
C130 C135 1.385 . S
C131 H112 0.947 . S
C131 C130 1.383 . S
C131 C132 1.388 . S
C132 H113 0.946 . S
C132 C131 1.388 . S
C132 C133 1.384 . S
C133 C132 1.384 . S
C133 C134 1.377 . S
C134 H114 0.953 . S
C134 C133 1.377 . S
C134 C135 1.369 . S
C135 H115 0.945 . S
C135 C130 1.385 . S
C135 C134 1.369 . S
C136 C128 1.457 . S
C136 C137 1.372 . S
C136 C141 1.364 . S
C137 H116 0.952 . S
C137 C136 1.372 . S
C137 C138 1.389 . S
C138 H117 0.949 . S
C138 C137 1.389 . S
C138 C139 1.387 . S
C139 C138 1.387 . S
C139 C140 1.372 . S
C140 H118 0.950 . S
C140 C139 1.372 . S
C140 C141 1.379 . S
C141 H119 0.948 . S
C141 C136 1.364 . S
C141 C140 1.379 . S
C142 C111 1.383 . S
C142 C129 1.479 . S
C142 C143 1.398 . S
C143 C108 1.382 . S
C143 H120 0.951 . S
C143 C142 1.398 . S
C144 C145 1.384 . S
C144 H157 0.947 . S
C144 C179 1.382 . S
C145 C144 1.384 . S
C145 C146 1.378 . S
C146 C145 1.378 . S
C146 C147 1.378 . S
C146 H158 0.952 . S
C147 C146 1.378 . S
C147 H159 0.950 . S
C147 C178 1.383 . S
H148 C167 0.947 1_556 S
H149 C168 0.946 . S
H150 C170 0.953 . S
H151 C171 0.945 . S
H152 C173 0.952 . S
H153 C174 0.949 . S
H154 C176 0.950 . S
H155 C177 0.948 . S
H156 C179 0.951 . S
H157 C144 0.947 . S
H158 C146 0.952 . S
H159 C147 0.950 . S
N160 C163 1.382 1_556 S
N160 C165 1.363 . S
N161 C163 1.371 . S
N161 C164 1.372 . S
N162 C164 1.361 . S
N162 C165 1.377 1_554 S
C163 N160 1.382 1_554 S
C163 N161 1.371 . S
C163 C166 1.480 . S
C164 N161 1.372 . S
C164 N162 1.361 . S
C164 C172 1.457 . S
C165 N160 1.363 . S
C165 N162 1.377 1_556 S
C165 C178 1.479 . S
C166 C163 1.480 . S
C166 C167 1.383 . S
C166 C171 1.385 . S
C167 H148 0.947 1_554 S
C167 C166 1.383 . S
C167 C168 1.388 . S
C168 H149 0.946 . S
C168 C167 1.388 . S
C168 C169 1.384 . S
C169 C168 1.384 . S
C169 C170 1.377 . S
C170 H150 0.953 . S
C170 C169 1.377 . S
C170 C171 1.369 . S
C171 H151 0.945 . S
C171 C166 1.385 . S
C171 C170 1.369 . S
C172 C164 1.457 . S
C172 C173 1.372 . S
C172 C177 1.364 . S
C173 H152 0.952 . S
C173 C172 1.372 . S
C173 C174 1.389 . S
C174 H153 0.949 . S
C174 C173 1.389 . S
C174 C175 1.387 . S
C175 C174 1.387 . S
C175 C176 1.372 . S
C176 H154 0.950 . S
C176 C175 1.372 . S
C176 C177 1.379 . S
C177 H155 0.948 . S
C177 C172 1.364 . S
C177 C176 1.379 . S
C178 C147 1.383 . S
C178 C165 1.479 . S
C178 C179 1.398 . S
C179 C144 1.382 . S
C179 H156 0.951 . S
C179 C178 1.398 . S
C180 C181 1.384 . S
C180 H193 0.947 . S
C180 C215 1.382 . S
C181 C180 1.384 . S
C181 C182 1.378 . S
C182 C181 1.378 . S
C182 C183 1.378 . S
C182 H194 0.952 . S
C183 C182 1.378 . S
C183 H195 0.950 . S
C183 C214 1.383 . S
H184 C203 0.947 1_556 S
H185 C204 0.946 . S
H186 C206 0.953 . S
H187 C207 0.945 . S
H188 C209 0.952 . S
H189 C210 0.949 . S
H190 C212 0.950 . S
H191 C213 0.948 . S
H192 C215 0.951 . S
H193 C180 0.947 . S
H194 C182 0.952 . S
H195 C183 0.950 . S
N196 C199 1.382 1_556 S
N196 C201 1.363 . S
N197 C199 1.371 . S
N197 C200 1.372 . S
N198 C200 1.361 . S
N198 C201 1.377 1_554 S
C199 N196 1.382 1_554 S
C199 N197 1.371 . S
C199 C202 1.480 . S
C200 N197 1.372 . S
C200 N198 1.361 . S
C200 C208 1.457 . S
C201 N196 1.363 . S
C201 N198 1.377 1_556 S
C201 C214 1.479 . S
C202 C199 1.480 . S
C202 C203 1.383 . S
C202 C207 1.385 . S
C203 H184 0.947 1_554 S
C203 C202 1.383 . S
C203 C204 1.388 . S
C204 H185 0.946 . S
C204 C203 1.388 . S
C204 C205 1.384 . S
C205 C204 1.384 . S
C205 C206 1.377 . S
C206 H186 0.953 . S
C206 C205 1.377 . S
C206 C207 1.369 . S
C207 H187 0.945 . S
C207 C202 1.385 . S
C207 C206 1.369 . S
C208 C200 1.457 . S
C208 C209 1.372 . S
C208 C213 1.364 . S
C209 H188 0.952 . S
C209 C208 1.372 . S
C209 C210 1.389 . S
C210 H189 0.949 . S
C210 C209 1.389 . S
C210 C211 1.387 . S
C211 C210 1.387 . S
C211 C212 1.372 . S
C212 H190 0.950 . S
C212 C211 1.372 . S
C212 C213 1.379 . S
C213 H191 0.948 . S
C213 C208 1.364 . S
C213 C212 1.379 . S
C214 C183 1.383 . S
C214 C201 1.479 . S
C214 C215 1.398 . S
C215 C180 1.382 . S
C215 H192 0.951 . S
C215 C214 1.398 . S
C216 C217 1.384 . S
C216 H229 0.947 . S
C216 C251 1.382 . S
C217 C216 1.384 . S
C217 C218 1.378 . S
C218 C217 1.378 . S
C218 C219 1.378 . S
C218 H230 0.952 . S
C219 C218 1.378 . S
C219 H231 0.950 . S
C219 C250 1.383 . S
H220 C239 0.947 1_556 S
H221 C240 0.946 . S
H222 C242 0.953 . S
H223 C243 0.945 . S
H224 C245 0.952 . S
H225 C246 0.949 . S
H226 C248 0.950 . S
H227 C249 0.948 . S
H228 C251 0.951 . S
H229 C216 0.947 . S
H230 C218 0.952 . S
H231 C219 0.950 . S
N232 C235 1.382 1_556 S
N232 C237 1.363 . S
N233 C235 1.371 . S
N233 C236 1.372 . S
N234 C236 1.361 . S
N234 C237 1.377 1_554 S
C235 N232 1.382 1_554 S
C235 N233 1.371 . S
C235 C238 1.480 . S
C236 N233 1.372 . S
C236 N234 1.361 . S
C236 C244 1.457 . S
C237 N232 1.363 . S
C237 N234 1.377 1_556 S
C237 C250 1.479 . S
C238 C235 1.480 . S
C238 C239 1.383 . S
C238 C243 1.385 . S
C239 H220 0.947 1_554 S
C239 C238 1.383 . S
C239 C240 1.388 . S
C240 H221 0.946 . S
C240 C239 1.388 . S
C240 C241 1.384 . S
C241 C240 1.384 . S
C241 C242 1.377 . S
C242 H222 0.953 . S
C242 C241 1.377 . S
C242 C243 1.369 . S
C243 H223 0.945 . S
C243 C238 1.385 . S
C243 C242 1.369 . S
C244 C236 1.457 . S
C244 C245 1.372 . S
C244 C249 1.364 . S
C245 H224 0.952 . S
C245 C244 1.372 . S
C245 C246 1.389 . S
C246 H225 0.949 . S
C246 C245 1.389 . S
C246 C247 1.387 . S
C247 C246 1.387 . S
C247 C248 1.372 . S
C248 H226 0.950 . S
C248 C247 1.372 . S
C248 C249 1.379 . S
C249 H227 0.948 . S
C249 C244 1.364 . S
C249 C248 1.379 . S
C250 C219 1.383 . S
C250 C237 1.479 . S
C250 C251 1.398 . S
C251 C216 1.382 . S
C251 H228 0.951 . S
C251 C250 1.398 . S
C252 C253 1.384 . S
C252 H265 0.947 . S
C252 C287 1.382 . S
C253 C252 1.384 . S
C253 C254 1.378 . S
C254 C253 1.378 . S
C254 C255 1.378 . S
C254 H266 0.952 . S
C255 C254 1.378 . S
C255 H267 0.950 . S
C255 C286 1.383 . S
H256 C275 0.947 . S
H257 C276 0.946 . S
H258 C278 0.953 . S
H259 C279 0.945 1_556 S
H260 C281 0.952 . S
H261 C282 0.949 . S
H262 C284 0.950 . S
H263 C285 0.948 . S
H264 C287 0.951 . S
H265 C252 0.947 . S
H266 C254 0.952 . S
H267 C255 0.950 . S
N268 C271 1.382 . S
N268 C273 1.363 . S
N269 C271 1.371 1_556 S
N269 C272 1.372 . S
N270 C272 1.361 1_554 S
N270 C273 1.377 . S
C271 N268 1.382 . S
C271 N269 1.371 1_554 S
C271 C274 1.480 . S
C272 N269 1.372 . S
C272 N270 1.361 1_556 S
C272 C280 1.457 . S
C273 N268 1.363 . S
C273 N270 1.377 . S
C273 C286 1.479 . S
C274 C271 1.480 . S
C274 C275 1.383 . S
C274 C279 1.385 . S
C275 H256 0.947 . S
C275 C274 1.383 . S
C275 C276 1.388 . S
C276 H257 0.946 . S
C276 C275 1.388 . S
C276 C277 1.384 . S
C277 C276 1.384 . S
C277 C278 1.377 . S
C278 H258 0.953 . S
C278 C277 1.377 . S
C278 C279 1.369 . S
C279 H259 0.945 1_554 S
C279 C274 1.385 . S
C279 C278 1.369 . S
C280 C272 1.457 . S
C280 C281 1.372 . S
C280 C285 1.364 . S
C281 H260 0.952 . S
C281 C280 1.372 . S
C281 C282 1.389 . S
C282 H261 0.949 . S
C282 C281 1.389 . S
C282 C283 1.387 . S
C283 C282 1.387 . S
C283 C284 1.372 . S
C284 H262 0.950 . S
C284 C283 1.372 . S
C284 C285 1.379 . S
C285 H263 0.948 . S
C285 C280 1.364 . S
C285 C284 1.379 . S
C286 C255 1.383 . S
C286 C273 1.479 . S
C286 C287 1.398 . S
C287 C252 1.382 . S
C287 H264 0.951 . S
C287 C286 1.398 . S
C288 C290 1.422 . S
C288 C292 1.415 . S
C288 N294 1.369 . S
C289 C290 1.421 . S
C289 C291 1.417 . S
C289 C301 1.422 . S
C290 C288 1.422 . S
C290 C289 1.421 . S
C290 N300 1.359 . S
C291 C289 1.417 . S
C291 C293 1.329 . S
C291 H310 0.930 . S
C292 C288 1.415 . S
C292 C293 1.437 . S
C292 C296 1.413 . S
C293 C291 1.329 . S
C293 C292 1.437 . S
C293 H315 0.929 . S
N294 C288 1.369 . S
N294 C295 1.339 . S
N294 Gd299 2.622 1_545 S
C295 N294 1.339 . S
C295 C297 1.381 . S
C295 H307 0.925 1_545 S
C296 C292 1.413 . S
C296 C297 1.348 . S
C296 H312 0.931 . S
C297 C295 1.381 . S
C297 C296 1.348 . S
C297 H313 0.930 . S
Gd298 N318 2.622 . S
Gd298 N325 2.570 . S
Gd298 O332 2.353 1_655 S
Gd298 O333 2.468 . S
Gd298 O334 2.427 . S
Gd298 O336 2.388 . S
Gd298 O337 2.386 1_545 S
Gd298 O341 2.307 1_655 S
Gd298 C351 2.805 . S
Gd299 N294 2.622 1_565 S
Gd299 N300 2.570 1_565 S
Gd299 O331 2.386 1_565 S
Gd299 O335 2.307 1_465 S
Gd299 O338 2.353 . S
Gd299 O339 2.468 . S
Gd299 O340 2.427 . S
Gd299 O342 2.388 . S
Gd299 C363 2.805 . S
N300 C290 1.359 . S
N300 Gd299 2.570 1_545 S
N300 C302 1.343 . S
C301 C289 1.422 . S
C301 C303 1.321 . S
C301 H309 0.931 . S
C302 N300 1.343 . S
C302 C303 1.390 . S
C302 H304 0.901 1_455 S
C303 C301 1.321 . S
C303 C302 1.390 . S
C303 H305 0.930 . S
H304 C302 0.901 1_655 S
H305 C303 0.930 . S
H306 C329 0.931 1_455 S
H307 C295 0.925 1_565 S
H308 C330 0.930 1_455 S
H309 C301 0.931 . S
H310 C291 0.930 . S
H311 C320 0.929 . S
H312 C296 0.931 . S
H313 C297 0.930 . S
H314 C352 0.930 . S
H315 C293 0.929 . S
H316 C321 0.947 . S
H317 C322 0.930 . S
N318 Gd298 2.622 . S
N318 C319 1.369 . S
N318 C320 1.338 . S
C319 N318 1.369 . S
C319 C323 1.415 1_545 S
C319 C326 1.422 . S
C320 H311 0.929 . S
C320 N318 1.338 . S
C320 C322 1.378 . S
C321 H316 0.947 . S
C321 C322 1.329 1_565 S
C321 C323 1.417 . S
C322 H317 0.930 . S
C322 C320 1.378 . S
C322 C321 1.329 1_545 S
C323 C319 1.415 1_565 S
C323 C321 1.417 . S
C323 C353 1.437 . S
H324 C353 0.929 . S
N325 Gd298 2.570 . S
N325 C326 1.359 . S
N325 C329 1.343 . S
C326 C319 1.422 . S
C326 N325 1.359 . S
C326 C328 1.421 1_545 S
C327 C328 1.422 . S
C327 C330 1.321 . S
C327 H354 0.931 . S
C328 C326 1.421 1_565 S
C328 C327 1.422 . S
C328 C352 1.417 . S
C329 H306 0.931 1_655 S
C329 N325 1.343 . S
C329 C330 1.390 1_545 S
C330 H308 0.930 1_655 S
C330 C327 1.321 . S
C330 C329 1.390 1_565 S
O331 Gd299 2.386 1_545 S
O331 C343 1.265 . S
O332 Gd298 2.353 1_455 S
O332 C343 1.242 . S
O333 Gd298 2.468 . S
O333 C351 1.263 . S
O334 Gd298 2.427 . S
O334 C351 1.252 . S
O335 Gd299 2.307 1_645 S
O335 C344 1.261 . S
O336 Gd298 2.388 . S
O336 C344 1.252 . S
O337 Gd298 2.386 1_565 S
O337 C355 1.265 . S
O338 Gd299 2.353 . S
O338 C355 1.242 1_455 S
O339 Gd299 2.468 . S
O339 C363 1.263 . S
O340 Gd299 2.427 . S
O340 C363 1.252 . S
O341 Gd298 2.307 1_455 S
O341 C356 1.261 . S
O342 Gd299 2.388 . S
O342 C356 1.252 1_565 S
C343 O331 1.265 . S
C343 O332 1.242 . S
C344 O335 1.261 . S
C344 O336 1.252 . S
C345 C348 1.394 . S
C345 C350 1.370 . S
C345 C351 1.500 . S
C346 C349 1.383 . S
C346 C350 1.395 . S
C347 C348 1.396 . S
C347 C349 1.365 . S
C347 H364 0.929 . S
C348 C345 1.394 . S
C348 C347 1.396 . S
C348 H365 0.930 . S
C349 C346 1.383 . S
C349 C347 1.365 . S
C349 H366 0.931 . S
C350 C345 1.370 . S
C350 C346 1.395 . S
C350 H367 0.930 1_655 S
C351 Gd298 2.805 . S
C351 O333 1.263 . S
C351 O334 1.252 . S
C351 C345 1.500 . S
C352 H314 0.930 . S
C352 C328 1.417 . S
C352 C353 1.329 . S
C353 C323 1.437 . S
C353 H324 0.929 . S
C353 C352 1.329 . S
H354 C327 0.931 . S
C355 O337 1.265 . S
C355 O338 1.242 1_655 S
C356 O341 1.261 . S
C356 O342 1.252 1_545 S
C357 C360 1.394 . S
C357 C362 1.370 . S
C357 C363 1.500 . S
C358 C361 1.383 . S
C358 C362 1.395 . S
C359 C360 1.396 . S
C359 C361 1.365 . S
C359 H368 0.929 . S
C360 C357 1.394 . S
C360 C359 1.396 . S
C360 H369 0.930 . S
C361 C358 1.383 . S
C361 C359 1.365 . S
C361 H370 0.931 . S
C362 C357 1.370 . S
C362 C358 1.395 . S
C362 H371 0.930 . S
C363 Gd299 2.805 . S
C363 O339 1.263 . S
C363 O340 1.252 . S
C363 C357 1.500 . S
H364 C347 0.929 . S
H365 C348 0.930 . S
H366 C349 0.931 . S
H367 C350 0.930 1_455 S
H368 C359 0.929 . S
H369 C360 0.930 . S
H370 C361 0.931 . S
H371 C362 0.930 . S
C372 C374 1.422 . S
C372 C376 1.415 . S
C372 N378 1.369 . S
C373 C374 1.421 . S
C373 C375 1.417 . S
C373 C385 1.422 . S
C374 C372 1.422 . S
C374 C373 1.421 . S
C374 N384 1.359 . S
C375 C373 1.417 . S
C375 C377 1.329 . S
C375 H394 0.930 . S
C376 C372 1.415 . S
C376 C377 1.437 . S
C376 C380 1.413 . S
C377 C375 1.329 . S
C377 C376 1.437 . S
C377 H399 0.929 . S
N378 C372 1.369 . S
N378 C379 1.338 . S
N378 Gd383 2.622 . S
C379 N378 1.338 . S
C379 C381 1.378 . S
C379 H391 0.929 . S
C380 C376 1.413 . S
C380 C381 1.348 . S
C380 H396 0.931 . S
C381 C379 1.378 . S
C381 C380 1.348 . S
C381 H397 0.930 . S
Gd382 N402 2.622 . S
Gd382 N409 2.570 . S
Gd382 O416 2.353 1_545 S
Gd382 O417 2.468 . S
Gd382 O418 2.427 . S
Gd382 O420 2.388 . S
Gd382 O421 2.386 . S
Gd382 O425 2.307 . S
Gd382 C435 2.805 . S
Gd383 N378 2.622 . S
Gd383 N384 2.570 . S
Gd383 O415 2.386 . S
Gd383 O419 2.307 1_565 S
Gd383 O422 2.353 1_565 S
Gd383 O423 2.468 . S
Gd383 O424 2.427 . S
Gd383 O426 2.388 . S
Gd383 C447 2.805 . S
N384 C374 1.359 . S
N384 Gd383 2.570 . S
N384 C386 1.343 . S
C385 C373 1.422 . S
C385 C387 1.321 . S
C385 H393 0.931 . S
C386 N384 1.343 . S
C386 C387 1.390 . S
C386 H388 0.931 . S
C387 C385 1.321 . S
C387 C386 1.390 . S
C387 H389 0.930 . S
H388 C386 0.931 . S
H389 C387 0.930 . S
H390 C413 0.931 . S
H391 C379 0.929 . S
H392 C414 0.930 . S
H393 C385 0.931 . S
H394 C375 0.930 . S
H395 C404 0.929 . S
H396 C380 0.931 . S
H397 C381 0.930 . S
H398 C436 0.930 . S
H399 C377 0.929 . S
H400 C405 0.931 . S
H401 C406 0.930 . S
N402 Gd382 2.622 . S
N402 C403 1.369 . S
N402 C404 1.338 . S
C403 N402 1.369 . S
C403 C407 1.415 . S
C403 C410 1.422 . S
C404 H395 0.929 . S
C404 N402 1.338 . S
C404 C406 1.378 . S
C405 H400 0.931 . S
C405 C406 1.348 . S
C405 C407 1.413 . S
C406 H401 0.930 . S
C406 C404 1.378 . S
C406 C405 1.348 . S
C407 C403 1.415 . S
C407 C405 1.413 . S
C407 C437 1.437 . S
H408 C437 0.929 . S
N409 Gd382 2.570 . S
N409 C410 1.359 . S
N409 C413 1.343 . S
C410 C403 1.422 . S
C410 N409 1.359 . S
C410 C412 1.421 . S
C411 C412 1.422 . S
C411 C414 1.321 . S
C411 H438 0.931 . S
C412 C410 1.421 . S
C412 C411 1.422 . S
C412 C436 1.417 . S
C413 H390 0.931 . S
C413 N409 1.343 . S
C413 C414 1.390 . S
C414 H392 0.930 . S
C414 C411 1.321 . S
C414 C413 1.390 . S
O415 Gd383 2.386 . S
O415 C427 1.265 . S
O416 Gd382 2.353 1_565 S
O416 C427 1.242 . S
O417 Gd382 2.468 . S
O417 C435 1.263 . S
O418 Gd382 2.427 . S
O418 C435 1.252 . S
O419 Gd383 2.307 1_545 S
O419 C428 1.261 . S
O420 Gd382 2.388 . S
O420 C428 1.252 . S
O421 Gd382 2.386 . S
O421 C439 1.265 . S
O422 Gd383 2.353 1_545 S
O422 C439 1.242 . S
O423 Gd383 2.468 . S
O423 C447 1.263 . S
O424 Gd383 2.427 . S
O424 C447 1.252 . S
O425 Gd382 2.307 . S
O425 C440 1.249 1_545 S
O426 Gd383 2.388 . S
O426 C440 1.259 . S
C427 O415 1.265 . S
C427 O416 1.242 . S
C428 O419 1.261 . S
C428 O420 1.252 . S
C429 C432 1.394 . S
C429 C434 1.370 . S
C429 C435 1.500 . S
C430 C433 1.383 . S
C430 C434 1.395 . S
C431 C432 1.396 . S
C431 C433 1.365 . S
C431 H448 0.926 1_556 S
C432 C429 1.394 . S
C432 C431 1.396 . S
C432 H449 0.930 . S
C433 C430 1.383 . S
C433 C431 1.365 . S
C433 H450 0.931 . S
C434 C429 1.370 . S
C434 C430 1.395 . S
C434 H451 0.930 . S
C435 Gd382 2.805 . S
C435 O417 1.263 . S
C435 O418 1.252 . S
C435 C429 1.500 . S
C436 H398 0.930 . S
C436 C412 1.417 . S
C436 C437 1.329 . S
C437 C407 1.437 . S
C437 H408 0.929 . S
C437 C436 1.329 . S
H438 C411 0.931 . S
C439 O421 1.265 . S
C439 O422 1.242 . S
C440 O425 1.249 1_565 S
C440 O426 1.259 . S
C441 C444 1.394 . S
C441 C446 1.370 1_565 S
C441 C447 1.500 . S
C442 C445 1.383 1_545 S
C442 C446 1.395 . S
C443 C444 1.396 . S
C443 C445 1.365 . S
C443 H452 0.929 . S
C444 C441 1.394 . S
C444 C443 1.396 . S
C444 H453 0.930 . S
C445 C442 1.383 1_565 S
C445 C443 1.365 . S
C445 H454 0.931 . S
C446 C441 1.370 1_545 S
C446 C442 1.395 . S
C446 H455 0.930 . S
C447 Gd383 2.805 . S
C447 O423 1.263 . S
C447 O424 1.252 . S
C447 C441 1.500 . S
H448 C431 0.926 1_554 S
H449 C432 0.930 . S
H450 C433 0.931 . S
H451 C434 0.930 . S
H452 C443 0.929 . S
H453 C444 0.930 . S
H454 C445 0.931 . S
H455 C446 0.930 . S
C456 C458 1.422 . S
C456 C460 1.415 . S
C456 N462 1.369 . S
C457 C458 1.421 . S
C457 C459 1.417 . S
C457 C469 1.422 . S
C458 C456 1.422 . S
C458 C457 1.421 . S
C458 N468 1.359 . S
C459 C457 1.417 . S
C459 C461 1.329 . S
C459 H478 0.930 . S
C460 C456 1.415 . S
C460 C461 1.437 . S
C460 C464 1.413 . S
C461 C459 1.329 . S
C461 C460 1.437 . S
C461 H483 0.929 . S
N462 C456 1.369 . S
N462 C463 1.338 . S
N462 Gd467 2.622 . S
C463 N462 1.338 . S
C463 C465 1.378 . S
C463 H475 0.929 . S
C464 C460 1.413 . S
C464 C465 1.348 . S
C464 H480 0.931 . S
C465 C463 1.378 . S
C465 C464 1.348 . S
C465 H481 0.930 . S
Gd466 N486 2.622 . S
Gd466 N493 2.570 . S
Gd466 O500 2.353 . S
Gd466 O501 2.468 . S
Gd466 O502 2.427 . S
Gd466 O504 2.388 . S
Gd466 O505 2.386 . S
Gd466 O509 2.307 . S
Gd466 C519 2.805 . S
Gd467 N462 2.622 . S
Gd467 N468 2.570 . S
Gd467 O499 2.386 . S
Gd467 O503 2.307 . S
Gd467 O506 2.353 . S
Gd467 O507 2.468 . S
Gd467 O508 2.427 . S
Gd467 O510 2.388 . S
Gd467 C531 2.805 . S
N468 C458 1.359 . S
N468 Gd467 2.570 . S
N468 C470 1.343 . S
C469 C457 1.422 . S
C469 C471 1.321 . S
C469 H477 0.931 . S
C470 N468 1.343 . S
C470 C471 1.390 . S
C470 H472 0.931 . S
C471 C469 1.321 . S
C471 C470 1.390 . S
C471 H473 0.930 . S
H472 C470 0.931 . S
H473 C471 0.930 . S
H474 C497 0.931 . S
H475 C463 0.929 . S
H476 C498 0.930 . S
H477 C469 0.931 . S
H478 C459 0.930 . S
H479 C488 0.929 . S
H480 C464 0.931 . S
H481 C465 0.930 . S
H482 C520 0.930 . S
H483 C461 0.929 . S
H484 C489 0.931 . S
H485 C490 0.930 . S
N486 Gd466 2.622 . S
N486 C487 1.369 . S
N486 C488 1.338 . S
C487 N486 1.369 . S
C487 C491 1.415 . S
C487 C494 1.422 . S
C488 H479 0.929 . S
C488 N486 1.338 . S
C488 C490 1.378 . S
C489 H484 0.931 . S
C489 C490 1.348 . S
C489 C491 1.413 . S
C490 H485 0.930 . S
C490 C488 1.378 . S
C490 C489 1.348 . S
C491 C487 1.415 . S
C491 C489 1.413 . S
C491 C521 1.437 . S
H492 C521 0.929 . S
N493 Gd466 2.570 . S
N493 C494 1.359 . S
N493 C497 1.343 . S
C494 C487 1.422 . S
C494 N493 1.359 . S
C494 C496 1.421 . S
C495 C496 1.422 . S
C495 C498 1.321 . S
C495 H522 0.931 . S
C496 C494 1.421 . S
C496 C495 1.422 . S
C496 C520 1.417 . S
C497 H474 0.931 . S
C497 N493 1.343 . S
C497 C498 1.390 . S
C498 H476 0.930 . S
C498 C495 1.321 . S
C498 C497 1.390 . S
O499 Gd467 2.386 . S
O499 C511 1.265 . S
O500 Gd466 2.353 . S
O500 C511 1.242 . S
O501 Gd466 2.468 . S
O501 C519 1.263 . S
O502 Gd466 2.427 . S
O502 C519 1.252 . S
O503 Gd467 2.307 . S
O503 C512 1.261 . S
O504 Gd466 2.388 . S
O504 C512 1.252 . S
O505 Gd466 2.386 . S
O505 C523 1.265 . S
O506 Gd467 2.353 . S
O506 C523 1.242 . S
O507 Gd467 2.468 . S
O507 C531 1.263 . S
O508 Gd467 2.427 . S
O508 C531 1.252 . S
O509 Gd466 2.307 . S
O509 C524 1.261 . S
O510 Gd467 2.388 . S
O510 C524 1.252 . S
C511 O499 1.265 . S
C511 O500 1.242 . S
C512 O503 1.261 . S
C512 O504 1.252 . S
C513 C516 1.394 . S
C513 C518 1.370 . S
C513 C519 1.500 . S
C514 C517 1.383 . S
C514 C518 1.395 . S
C515 C516 1.396 . S
C515 C517 1.365 . S
C515 H532 0.929 . S
C516 C513 1.394 . S
C516 C515 1.396 . S
C516 H533 0.930 . S
C517 C514 1.383 . S
C517 C515 1.365 . S
C517 H534 0.931 . S
C518 C513 1.370 . S
C518 C514 1.395 . S
C518 H535 0.930 . S
C519 Gd466 2.805 . S
C519 O501 1.263 . S
C519 O502 1.252 . S
C519 C513 1.500 . S
C520 H482 0.930 . S
C520 C496 1.417 . S
C520 C521 1.329 . S
C521 C491 1.437 . S
C521 H492 0.929 . S
C521 C520 1.329 . S
H522 C495 0.931 . S
C523 O505 1.265 . S
C523 O506 1.242 . S
C524 O509 1.261 . S
C524 O510 1.252 . S
C525 C528 1.394 . S
C525 C530 1.370 . S
C525 C531 1.500 . S
C526 C529 1.383 . S
C526 C530 1.395 . S
C527 C528 1.396 . S
C527 C529 1.365 . S
C527 H536 0.929 . S
C528 C525 1.394 . S
C528 C527 1.396 . S
C528 H537 0.930 . S
C529 C526 1.383 . S
C529 C527 1.365 . S
C529 H538 0.931 . S
C530 C525 1.370 . S
C530 C526 1.395 . S
C530 H539 0.930 . S
C531 Gd467 2.805 . S
C531 O507 1.263 . S
C531 O508 1.252 . S
C531 C525 1.500 . S
H532 C515 0.929 . S
H533 C516 0.930 . S
H534 C517 0.931 . S
H535 C518 0.930 . S
H536 C527 0.929 . S
H537 C528 0.930 . S
H538 C529 0.931 . S
H539 C530 0.930 . S
C540 C542 1.422 . S
C540 C544 1.415 . S
C540 N546 1.369 1_455 S
C541 C542 1.421 . S
C541 C543 1.417 . S
C541 C553 1.422 . S
C542 C540 1.422 . S
C542 C541 1.421 . S
C542 N552 1.359 . S
C543 C541 1.417 . S
C543 C545 1.329 . S
C543 H562 0.930 . S
C544 C540 1.415 . S
C544 C545 1.437 . S
C544 C548 1.413 . S
C545 C543 1.329 . S
C545 C544 1.437 . S
C545 H567 0.929 . S
N546 C540 1.369 1_655 S
N546 C547 1.338 . S
N546 Gd551 2.622 . S
C547 N546 1.338 . S
C547 C549 1.378 1_655 S
C547 H559 0.929 . S
C548 C544 1.413 . S
C548 C549 1.348 . S
C548 H564 0.931 . S
C549 C547 1.378 1_455 S
C549 C548 1.348 . S
C549 H565 0.928 1_455 S
Gd550 N570 2.622 . S
Gd550 N577 2.570 . S
Gd550 O584 2.353 . S
Gd550 O585 2.468 . S
Gd550 O586 2.427 . S
Gd550 O588 2.388 . S
Gd550 O589 2.386 1_455 S
Gd550 O593 2.307 . S
Gd550 C603 2.805 . S
Gd551 N546 2.622 . S
Gd551 N552 2.570 1_655 S
Gd551 O583 2.386 1_655 S
Gd551 O587 2.321 . S
Gd551 O590 2.353 . S
Gd551 O591 2.468 . S
Gd551 O592 2.427 . S
Gd551 O594 2.388 . S
Gd551 C615 2.805 . S
N552 C542 1.359 . S
N552 Gd551 2.570 1_455 S
N552 C554 1.343 . S
C553 C541 1.422 . S
C553 C555 1.321 . S
C553 H561 0.931 . S
C554 N552 1.343 . S
C554 C555 1.390 . S
C554 H556 0.931 1_455 S
C555 C553 1.321 . S
C555 C554 1.390 . S
C555 H557 0.930 . S
H556 C554 0.931 1_655 S
H557 C555 0.930 . S
H558 C581 0.931 . S
H559 C547 0.929 . S
H560 C582 0.930 . S
H561 C553 0.931 . S
H562 C543 0.930 . S
H563 C572 0.929 . S
H564 C548 0.931 . S
H565 C549 0.928 1_655 S
H566 C604 0.930 . S
H567 C545 0.929 . S
H568 C573 0.931 . S
H569 C574 0.930 . S
N570 Gd550 2.622 . S
N570 C571 1.369 . S
N570 C572 1.338 . S
C571 N570 1.369 . S
C571 C575 1.415 1_455 S
C571 C578 1.425 . S
C572 H563 0.929 . S
C572 N570 1.338 . S
C572 C574 1.378 . S
C573 H568 0.931 . S
C573 C574 1.348 1_655 S
C573 C575 1.413 . S
C574 H569 0.930 . S
C574 C572 1.378 . S
C574 C573 1.348 1_455 S
C575 C571 1.415 1_655 S
C575 C573 1.413 . S
C575 C605 1.437 . S
H576 C605 0.929 . S
N577 Gd550 2.570 . S
N577 C578 1.367 . S
N577 C581 1.343 . S
C578 C571 1.425 . S
C578 N577 1.367 . S
C578 C580 1.411 1_455 S
C579 C580 1.422 . S
C579 C582 1.321 . S
C579 H606 0.931 . S
C580 C578 1.411 1_655 S
C580 C579 1.422 . S
C580 C604 1.417 . S
C581 H558 0.931 . S
C581 N577 1.343 . S
C581 C582 1.390 1_455 S
C582 H560 0.930 . S
C582 C579 1.321 . S
C582 C581 1.390 1_655 S
O583 Gd551 2.386 1_455 S
O583 C595 1.265 . S
O584 Gd550 2.353 . S
O584 C595 1.242 . S
O585 Gd550 2.468 . S
O585 C603 1.263 . S
O586 Gd550 2.427 . S
O586 C603 1.252 . S
O587 Gd551 2.321 . S
O587 C596 1.251 1_655 S
O588 Gd550 2.388 . S
O588 C596 1.252 . S
O589 Gd550 2.386 1_655 S
O589 C607 1.265 . S
O590 Gd551 2.353 . S
O590 C607 1.242 . S
O591 Gd551 2.468 . S
O591 C615 1.263 . S
O592 Gd551 2.427 . S
O592 C615 1.252 . S
O593 Gd550 2.307 . S
O593 C608 1.261 . S
O594 Gd551 2.388 . S
O594 C608 1.252 1_655 S
C595 O583 1.265 . S
C595 O584 1.242 . S
C596 O587 1.251 1_455 S
C596 O588 1.252 . S
C597 C600 1.394 . S
C597 C602 1.370 . S
C597 C603 1.500 . S
C598 C601 1.383 . S
C598 C602 1.395 . S
C599 C600 1.396 . S
C599 C601 1.365 . S
C599 H616 0.929 . S
C600 C597 1.394 . S
C600 C599 1.396 . S
C600 H617 0.930 . S
C601 C598 1.383 . S
C601 C599 1.365 . S
C601 H618 0.931 . S
C602 C597 1.370 . S
C602 C598 1.395 . S
C602 H619 0.930 . S
C603 Gd550 2.805 . S
C603 O585 1.263 . S
C603 O586 1.252 . S
C603 C597 1.500 . S
C604 H566 0.930 . S
C604 C580 1.417 . S
C604 C605 1.329 . S
C605 C575 1.437 . S
C605 H576 0.929 . S
C605 C604 1.329 . S
H606 C579 0.931 . S
C607 O589 1.265 . S
C607 O590 1.242 . S
C608 O593 1.261 . S
C608 O594 1.252 1_455 S
C609 C612 1.394 . S
C609 C614 1.370 . S
C609 C615 1.500 . S
C610 C613 1.383 . S
C610 C614 1.395 . S
C611 C612 1.396 . S
C611 C613 1.365 . S
C611 H620 0.929 . S
C612 C609 1.394 . S
C612 C611 1.396 . S
C612 H621 0.930 . S
C613 C610 1.383 . S
C613 C611 1.365 . S
C613 H622 0.931 . S
C614 C609 1.370 . S
C614 C610 1.395 . S
C614 H623 0.930 . S
C615 Gd551 2.805 . S
C615 O591 1.263 . S
C615 O592 1.252 . S
C615 C609 1.500 . S
H616 C599 0.929 . S
H617 C600 0.930 . S
H618 C601 0.931 . S
H619 C602 0.930 . S
H620 C611 0.929 . S
H621 C612 0.930 . S
H622 C613 0.931 . S
H623 C614 0.930 . S
H624 C636 0.930 . S
H625 C638 0.930 . S
H626 C639 0.930 . S
H627 C643 0.959 . S
H628 C643 0.959 1_565 S
H629 C643 0.961 1_565 S
H630 C644 0.960 . S
H631 C644 0.961 . S
H632 C644 0.959 . S
H633 C647 0.929 . S
H634 C648 0.931 . S
H635 C650 0.930 1_565 S
C636 H624 0.930 . S
C636 C637 1.399 . S
C636 C641 1.399 . S
C637 C636 1.399 . S
C637 C638 1.376 . S
C638 H625 0.930 . S
C638 C637 1.376 . S
C638 C639 1.388 . S
C639 H626 0.930 . S
C639 C638 1.388 . S
C639 C640 1.390 . S
C640 C639 1.390 . S
C640 C641 1.394 . S
C640 C646 1.465 . S
C641 C636 1.399 . S
C641 C640 1.394 . S
C641 C642 1.516 . S
C642 C641 1.516 . S
C642 C643 1.502 . S
C642 C644 1.561 1_545 S
C642 C645 1.526 . S
C643 H627 0.959 . S
C643 H628 0.959 1_545 S
C643 H629 0.961 1_545 S
C643 C642 1.502 . S
C644 H630 0.960 . S
C644 H631 0.961 . S
C644 H632 0.959 . S
C644 C642 1.561 1_565 S
C645 C642 1.526 . S
C645 C646 1.396 . S
C645 C650 1.390 . S
C646 C640 1.465 . S
C646 C645 1.396 . S
C646 C647 1.399 . S
C647 H633 0.929 . S
C647 C646 1.399 . S
C647 C648 1.385 . S
C648 H634 0.931 . S
C648 C647 1.385 . S
C648 C649 1.389 . S
C649 C648 1.389 . S
C649 C650 1.387 . S
C650 H635 0.930 1_545 S
C650 C645 1.390 . S
C650 C649 1.387 . S
H651 C663 0.930 . S
H652 C665 0.930 . S
H653 C666 0.930 . S
H654 C670 0.959 . S
H655 C670 0.959 . S
H656 C670 0.961 . S
H657 C671 0.960 . S
H658 C671 0.961 . S
H659 C671 0.959 . S
H660 C674 0.929 . S
H661 C675 0.931 . S
H662 C677 0.930 . S
C663 H651 0.930 . S
C663 C664 1.399 . S
C663 C668 1.399 . S
C664 C663 1.399 . S
C664 C665 1.376 . S
C665 H652 0.930 . S
C665 C664 1.376 . S
C665 C666 1.388 . S
C666 H653 0.930 . S
C666 C665 1.388 . S
C666 C667 1.390 . S
C667 C666 1.390 . S
C667 C668 1.394 . S
C667 C673 1.465 . S
C668 C663 1.399 . S
C668 C667 1.394 . S
C668 C669 1.516 . S
C669 C668 1.516 . S
C669 C670 1.502 . S
C669 C671 1.561 . S
C669 C672 1.526 . S
C670 H654 0.959 . S
C670 H655 0.959 . S
C670 H656 0.961 . S
C670 C669 1.502 . S
C671 H657 0.960 . S
C671 H658 0.961 . S
C671 H659 0.959 . S
C671 C669 1.561 . S
C672 C669 1.526 . S
C672 C673 1.396 . S
C672 C677 1.390 . S
C673 C667 1.465 . S
C673 C672 1.396 . S
C673 C674 1.399 . S
C674 H660 0.929 . S
C674 C673 1.399 . S
C674 C675 1.385 . S
C675 H661 0.931 . S
C675 C674 1.385 . S
C675 C676 1.389 . S
C676 C675 1.389 . S
C676 C677 1.387 . S
C677 H662 0.930 . S
C677 C672 1.390 . S
C677 C676 1.387 . S
H678 C690 0.930 . S
H679 C692 0.930 . S
H680 C693 0.930 . S
H681 C697 0.959 . S
H682 C697 0.959 . S
H683 C697 0.961 . S
H684 C698 0.960 . S
H685 C698 0.961 . S
H686 C698 0.959 . S
H687 C701 0.929 . S
H688 C702 0.931 . S
H689 C704 0.930 . S
C690 H678 0.930 . S
C690 C691 1.399 . S
C690 C695 1.399 . S
C691 C690 1.399 . S
C691 C692 1.376 . S
C692 H679 0.930 . S
C692 C691 1.376 . S
C692 C693 1.388 . S
C693 H680 0.930 . S
C693 C692 1.388 . S
C693 C694 1.390 . S
C694 C693 1.390 . S
C694 C695 1.394 . S
C694 C700 1.465 . S
C695 C690 1.399 . S
C695 C694 1.394 . S
C695 C696 1.516 . S
C696 C695 1.516 . S
C696 C697 1.502 . S
C696 C698 1.561 . S
C696 C699 1.526 . S
C697 H681 0.959 . S
C697 H682 0.959 . S
C697 H683 0.961 . S
C697 C696 1.502 . S
C698 H684 0.960 . S
C698 H685 0.961 . S
C698 H686 0.959 . S
C698 C696 1.561 . S
C699 C696 1.526 . S
C699 C700 1.396 . S
C699 C704 1.390 . S
C700 C694 1.465 . S
C700 C699 1.396 . S
C700 C701 1.399 . S
C701 H687 0.929 . S
C701 C700 1.399 . S
C701 C702 1.385 . S
C702 H688 0.931 . S
C702 C701 1.385 . S
C702 C703 1.389 . S
C703 C702 1.389 . S
C703 C704 1.387 . S
C704 H689 0.930 . S
C704 C699 1.390 . S
C704 C703 1.387 . S
H705 C717 0.930 . S
H706 C719 0.930 . S
H707 C720 0.930 . S
H708 C724 0.959 . S
H709 C724 0.959 . S
H710 C724 0.961 . S
H711 C725 0.960 . S
H712 C725 0.961 . S
H713 C725 0.959 . S
H714 C728 0.929 1_655 S
H715 C729 0.931 1_655 S
H716 C731 0.930 . S
C717 H705 0.930 . S
C717 C718 1.399 . S
C717 C722 1.399 . S
C718 C717 1.399 . S
C718 C719 1.376 . S
C719 H706 0.930 . S
C719 C718 1.376 . S
C719 C720 1.388 . S
C720 H707 0.930 . S
C720 C719 1.388 . S
C720 C721 1.390 . S
C721 C720 1.390 . S
C721 C722 1.394 . S
C721 C727 1.465 . S
C722 C717 1.399 . S
C722 C721 1.394 . S
C722 C723 1.516 . S
C723 C722 1.516 . S
C723 C724 1.502 . S
C723 C725 1.561 . S
C723 C726 1.526 . S
C724 H708 0.959 . S
C724 H709 0.959 . S
C724 H710 0.961 . S
C724 C723 1.502 . S
C725 H711 0.960 . S
C725 H712 0.961 . S
C725 H713 0.959 . S
C725 C723 1.561 . S
C726 C723 1.526 . S
C726 C727 1.396 . S
C726 C731 1.390 . S
C727 C721 1.465 . S
C727 C726 1.396 . S
C727 C728 1.399 . S
C728 H714 0.929 1_455 S
C728 C727 1.399 . S
C728 C729 1.385 . S
C729 H715 0.931 1_455 S
C729 C728 1.385 . S
C729 C730 1.389 . S
C730 C729 1.389 . S
C730 C731 1.387 . S
C731 H716 0.930 . S
C731 C726 1.390 . S
C731 C730 1.387 . S
H732 C744 0.930 . S
H733 C746 0.930 1_545 S
H734 C747 0.932 . S
H735 C751 0.959 . S
H736 C751 0.959 . S
H737 C751 0.961 1_554 S
H738 C752 0.960 . S
H739 C752 0.961 . S
H740 C752 0.959 . S
H741 C755 0.929 . S
H742 C756 0.931 . S
H743 C758 0.930 . S
C744 H732 0.930 . S
C744 C745 1.399 . S
C744 C749 1.399 1_554 S
C745 C744 1.399 . S
C745 C746 1.376 . S
C746 H733 0.930 1_565 S
C746 C745 1.376 . S
C746 C747 1.388 1_565 S
C747 H734 0.932 . S
C747 C746 1.388 1_545 S
C747 C748 1.390 1_544 S
C748 C747 1.390 1_566 S
C748 C749 1.394 . S
C748 C754 1.465 . S
C749 C744 1.399 1_556 S
C749 C748 1.394 . S
C749 C750 1.516 . S
C750 C749 1.516 . S
C750 C751 1.502 . S
C750 C752 1.561 . S
C750 C753 1.526 . S
C751 H735 0.959 . S
C751 H736 0.959 . S
C751 H737 0.961 1_556 S
C751 C750 1.502 . S
C752 H738 0.960 . S
C752 H739 0.961 . S
C752 H740 0.959 . S
C752 C750 1.561 . S
C753 C750 1.526 . S
C753 C754 1.396 . S
C753 C758 1.390 . S
C754 C748 1.465 . S
C754 C753 1.396 . S
C754 C755 1.399 1_565 S
C755 H741 0.929 . S
C755 C754 1.399 1_545 S
C755 C756 1.385 . S
C756 H742 0.931 . S
C756 C755 1.385 . S
C756 C757 1.389 1_545 S
C757 C756 1.389 1_565 S
C757 C758 1.387 . S
C758 H743 0.930 . S
C758 C753 1.390 . S
C758 C757 1.387 . S
H759 C771 0.930 . S
H760 C773 0.930 . S
H761 C774 0.930 . S
H762 C778 0.965 . S
H763 C778 0.965 . S
H764 C778 0.948 1_554 S
H765 C779 0.960 . S
H766 C779 0.961 1_556 S
H767 C779 0.959 1_556 S
H768 C782 0.929 . S
H769 C783 0.931 . S
H770 C785 0.930 . S
C771 H759 0.930 . S
C771 C772 1.399 . S
C771 C776 1.399 . S
C772 C771 1.399 . S
C772 C773 1.376 . S
C773 H760 0.930 . S
C773 C772 1.376 . S
C773 C774 1.388 1_554 S
C774 H761 0.930 . S
C774 C773 1.388 1_556 S
C774 C775 1.390 . S
C775 C774 1.390 . S
C775 C776 1.394 1_556 S
C775 C781 1.465 . S
C776 C771 1.399 . S
C776 C775 1.394 1_554 S
C776 C777 1.516 1_554 S
C777 C776 1.516 1_556 S
C777 C778 1.504 . S
C777 C779 1.561 1_556 S
C777 C780 1.526 . S
C778 H762 0.965 . S
C778 H763 0.965 . S
C778 H764 0.948 1_556 S
C778 C777 1.504 . S
C779 H765 0.960 . S
C779 H766 0.961 1_554 S
C779 H767 0.959 1_554 S
C779 C777 1.561 1_554 S
C780 C777 1.526 . S
C780 C781 1.396 . S
C780 C785 1.390 . S
C781 C775 1.465 . S
C781 C780 1.396 . S
C781 C782 1.399 . S
C782 H768 0.929 . S
C782 C781 1.399 . S
C782 C783 1.385 . S
C783 H769 0.931 . S
C783 C782 1.385 . S
C783 C784 1.389 . S
C784 C783 1.389 . S
C784 C785 1.387 . S
C785 H770 0.930 . S
C785 C780 1.390 . S
C785 C784 1.387 . S
H786 C798 0.930 . S
H787 C800 0.930 . S
H788 C801 0.930 . S
H789 C805 0.959 . S
H790 C805 0.959 . S
H791 C805 0.962 . S
H792 C806 0.960 . S
H793 C806 0.961 . S
H794 C806 0.959 . S
H795 C809 0.929 . S
H796 C810 0.931 . S
H797 C812 0.930 . S
C798 H786 0.930 . S
C798 C799 1.399 . S
C798 C803 1.399 1_554 S
C799 C798 1.399 . S
C799 C800 1.376 . S
C800 H787 0.930 . S
C800 C799 1.376 . S
C800 C801 1.388 . S
C801 H788 0.930 . S
C801 C800 1.388 . S
C801 C802 1.390 1_554 S
C802 C801 1.390 1_556 S
C802 C803 1.394 . S
C802 C808 1.465 . S
C803 C798 1.399 1_556 S
C803 C802 1.394 . S
C803 C804 1.516 . S
C804 C803 1.516 . S
C804 C805 1.502 . S
C804 C806 1.561 . S
C804 C807 1.526 . S
C805 H789 0.959 . S
C805 H790 0.959 . S
C805 H791 0.962 . S
C805 C804 1.502 . S
C806 H792 0.960 . S
C806 H793 0.961 . S
C806 H794 0.959 . S
C806 C804 1.561 . S
C807 C804 1.526 . S
C807 C808 1.396 . S
C807 C812 1.390 . S
C808 C802 1.465 . S
C808 C807 1.396 . S
C808 C809 1.399 . S
C809 H795 0.929 . S
C809 C808 1.399 . S
C809 C810 1.385 . S
C810 H796 0.931 . S
C810 C809 1.385 . S
C810 C811 1.389 . S
C811 C810 1.389 . S
C811 C812 1.387 . S
C812 H797 0.930 . S
C812 C807 1.390 . S
C812 C811 1.387 . S
H813 C825 0.930 . S
H814 C827 0.930 . S
H815 C828 0.930 . S
H816 C832 0.959 . S
H817 C832 0.959 . S
H818 C832 0.961 . S
H819 C833 0.960 . S
H820 C833 0.961 . S
H821 C833 0.959 . S
H822 C836 0.929 . S
H823 C837 0.926 1_455 S
H824 C839 0.930 . S
C825 H813 0.930 . S
C825 C826 1.399 . S
C825 C830 1.399 1_554 S
C826 C825 1.399 . S
C826 C827 1.376 . S
C827 H814 0.930 . S
C827 C826 1.376 . S
C827 C828 1.388 . S
C828 H815 0.930 . S
C828 C827 1.388 . S
C828 C829 1.390 1_554 S
C829 C828 1.390 1_556 S
C829 C830 1.394 . S
C829 C835 1.465 . S
C830 C825 1.399 1_556 S
C830 C829 1.394 . S
C830 C831 1.516 . S
C831 C830 1.516 . S
C831 C832 1.502 . S
C831 C833 1.561 1_655 S
C831 C834 1.526 . S
C832 H816 0.959 . S
C832 H817 0.959 . S
C832 H818 0.961 . S
C832 C831 1.502 . S
C833 H819 0.960 . S
C833 H820 0.961 . S
C833 H821 0.959 . S
C833 C831 1.561 1_455 S
C834 C831 1.526 . S
C834 C835 1.396 . S
C834 C839 1.390 . S
C835 C829 1.465 . S
C835 C834 1.396 . S
C835 C836 1.399 . S
C836 H822 0.929 . S
C836 C835 1.399 . S
C836 C837 1.385 . S
C837 H823 0.926 1_655 S
C837 C836 1.385 . S
C837 C838 1.389 . S
C838 C837 1.389 . S
C838 C839 1.387 . S
C839 H824 0.930 . S
C839 C834 1.390 . S
C839 C838 1.387 . S
H840 C852 0.930 . S
H841 C854 0.930 . S
H842 C855 0.930 . S
H843 C859 0.959 . S
H844 C859 0.959 . S
H845 C859 0.961 . S
H846 C860 0.960 . S
H847 C860 0.930 1_655 S
H848 C860 0.959 . S
H849 C863 0.929 . S
H850 C864 0.931 . S
H851 C866 0.930 . S
C852 H840 0.930 . S
C852 C853 1.399 . S
C852 C857 1.399 . S
C853 C852 1.399 . S
C853 C854 1.376 . S
C854 H841 0.930 . S
C854 C853 1.376 . S
C854 C855 1.388 . S
C855 H842 0.930 . S
C855 C854 1.388 . S
C855 C856 1.390 . S
C856 C855 1.390 . S
C856 C857 1.394 . S
C856 C862 1.465 . S
C857 C852 1.399 . S
C857 C856 1.394 . S
C857 C858 1.516 . S
C858 C857 1.516 . S
C858 C859 1.502 1_455 S
C858 C860 1.561 . S
C858 C861 1.526 . S
C859 H843 0.959 . S
C859 H844 0.959 . S
C859 H845 0.961 . S
C859 C858 1.502 1_655 S
C860 H846 0.960 . S
C860 H847 0.930 1_455 S
C860 H848 0.959 . S
C860 C858 1.561 . S
C861 C858 1.526 . S
C861 C862 1.396 . S
C861 C866 1.390 1_455 S
C862 C856 1.465 . S
C862 C861 1.396 . S
C862 C863 1.399 . S
C863 H849 0.929 . S
C863 C862 1.399 . S
C863 C864 1.385 . S
C864 H850 0.931 . S
C864 C863 1.385 . S
C864 C865 1.380 1_455 S
C865 C864 1.380 1_655 S
C865 C866 1.390 . S
C866 H851 0.930 . S
C866 C861 1.390 1_655 S
C866 C865 1.390 . S
H867 C879 0.930 . S
H868 C881 0.930 . S
H869 C882 0.930 . S
H870 C886 0.941 1_565 S
H871 C886 0.948 1_565 S
H872 C886 0.967 . S
H873 C887 0.960 . S
H874 C887 0.961 . S
H875 C887 0.959 . S
H876 C890 0.929 . S
H877 C891 0.931 . S
H878 C893 0.919 1_565 S
C879 H867 0.930 . S
C879 C880 1.399 . S
C879 C884 1.399 . S
C880 C879 1.399 . S
C880 C881 1.376 . S
C881 H868 0.930 . S
C881 C880 1.376 . S
C881 C882 1.388 . S
C882 H869 0.930 . S
C882 C881 1.388 . S
C882 C883 1.390 . S
C883 C882 1.390 . S
C883 C884 1.394 . S
C883 C889 1.465 . S
C884 C879 1.399 . S
C884 C883 1.394 . S
C884 C885 1.516 . S
C885 C884 1.516 . S
C885 C886 1.526 . S
C885 C887 1.561 . S
C885 C888 1.526 . S
C886 H870 0.941 1_545 S
C886 H871 0.948 1_545 S
C886 H872 0.967 . S
C886 C885 1.526 . S
C887 H873 0.960 . S
C887 H874 0.961 . S
C887 H875 0.959 . S
C887 C885 1.561 . S
C888 C885 1.526 . S
C888 C889 1.396 . S
C888 C893 1.390 . S
C889 C883 1.465 . S
C889 C888 1.396 . S
C889 C890 1.399 . S
C890 H876 0.929 . S
C890 C889 1.399 . S
C890 C891 1.385 . S
C891 H877 0.931 . S
C891 C890 1.385 . S
C891 C892 1.389 . S
C892 C891 1.389 . S
C892 C893 1.387 . S
C893 H878 0.919 1_545 S
C893 C888 1.390 . S
C893 C892 1.387 . S
H894 C906 0.930 . S
H895 C908 0.930 . S
H896 C909 0.930 . S
H897 C913 0.959 . S
H898 C913 0.959 . S
H899 C913 0.961 . S
H900 C914 0.960 . S
H901 C914 0.961 . S
H902 C914 0.959 . S
H903 C917 0.929 . S
H904 C918 0.931 . S
H905 C920 0.930 . S
C906 H894 0.930 . S
C906 C907 1.399 . S
C906 C911 1.399 . S
C907 C906 1.399 . S
C907 C908 1.376 . S
C908 H895 0.930 . S
C908 C907 1.376 . S
C908 C909 1.388 . S
C909 H896 0.930 . S
C909 C908 1.388 . S
C909 C910 1.390 . S
C910 C909 1.390 . S
C910 C911 1.394 . S
C910 C916 1.465 . S
C911 C906 1.399 . S
C911 C910 1.394 . S
C911 C912 1.516 . S
C912 C911 1.516 . S
C912 C913 1.502 . S
C912 C914 1.561 . S
C912 C915 1.526 . S
C913 H897 0.959 . S
C913 H898 0.959 . S
C913 H899 0.961 . S
C913 C912 1.502 . S
C914 H900 0.960 . S
C914 H901 0.961 . S
C914 H902 0.959 . S
C914 C912 1.561 . S
C915 C912 1.526 . S
C915 C916 1.396 . S
C915 C920 1.390 . S
C916 C910 1.465 . S
C916 C915 1.396 . S
C916 C917 1.399 . S
C917 H903 0.929 . S
C917 C916 1.399 . S
C917 C918 1.385 . S
C918 H904 0.931 . S
C918 C917 1.385 . S
C918 C919 1.389 . S
C919 C918 1.389 . S
C919 C920 1.387 . S
C920 H905 0.930 . S
C920 C915 1.390 . S
C920 C919 1.387 . S
H921 C933 0.930 . S
H922 C935 0.930 . S
H923 C936 0.930 . S
H924 C940 0.959 . S
H925 C940 0.959 . S
H926 C940 0.961 . S
H927 C941 0.960 . S
H928 C941 0.961 . S
H929 C941 0.959 . S
H930 C944 0.929 . S
H931 C945 0.931 . S
H932 C947 0.930 . S
C933 H921 0.930 . S
C933 C934 1.399 . S
C933 C938 1.399 . S
C934 C933 1.399 . S
C934 C935 1.376 . S
C935 H922 0.930 . S
C935 C934 1.376 . S
C935 C936 1.388 . S
C936 H923 0.930 . S
C936 C935 1.388 . S
C936 C937 1.390 . S
C937 C936 1.390 . S
C937 C938 1.394 . S
C937 C943 1.465 . S
C938 C933 1.399 . S
C938 C937 1.394 . S
C938 C939 1.516 . S
C939 C938 1.516 . S
C939 C940 1.502 . S
C939 C941 1.561 . S
C939 C942 1.526 . S
C940 H924 0.959 . S
C940 H925 0.959 . S
C940 H926 0.961 . S
C940 C939 1.502 . S
C941 H927 0.960 . S
C941 H928 0.961 . S
C941 H929 0.959 . S
C941 C939 1.561 . S
C942 C939 1.526 . S
C942 C943 1.396 . S
C942 C947 1.390 . S
C943 C937 1.465 . S
C943 C942 1.396 . S
C943 C944 1.399 . S
C944 H930 0.929 . S
C944 C943 1.399 . S
C944 C945 1.385 . S
C945 H931 0.931 . S
C945 C944 1.385 . S
C945 C946 1.389 . S
C946 C945 1.389 . S
C946 C947 1.387 . S
C947 H932 0.930 . S
C947 C942 1.390 . S
C947 C946 1.387 . S
H948 C960 0.930 . S
H949 C962 0.930 . S
H950 C963 0.930 . S
H951 C967 0.959 . S
H952 C967 0.959 . S
H953 C967 0.961 . S
H954 C968 0.960 1_655 S
H955 C968 0.977 . S
H956 C968 0.938 1_655 S
H957 C971 0.929 . S
H958 C972 0.931 . S
H959 C974 0.930 . S
C960 H948 0.930 . S
C960 C961 1.399 1_556 S
C960 C965 1.399 . S
C961 C960 1.399 1_554 S
C961 C962 1.376 . S
C962 H949 0.930 . S
C962 C961 1.376 . S
C962 C963 1.388 . S
C963 H950 0.930 . S
C963 C962 1.388 . S
C963 C964 1.390 1_554 S
C964 C963 1.390 1_556 S
C964 C965 1.394 . S
C964 C970 1.465 . S
C965 C960 1.399 . S
C965 C964 1.394 . S
C965 C966 1.516 1_655 S
C966 C965 1.516 1_455 S
C966 C967 1.502 . S
C966 C968 1.566 . S
C966 C969 1.526 . S
C967 H951 0.959 . S
C967 H952 0.959 . S
C967 H953 0.961 . S
C967 C966 1.502 . S
C968 H954 0.960 1_455 S
C968 H955 0.977 . S
C968 H956 0.938 1_455 S
C968 C966 1.566 . S
C969 C966 1.526 . S
C969 C970 1.396 1_455 S
C969 C974 1.390 . S
C970 C964 1.465 . S
C970 C969 1.396 1_655 S
C970 C971 1.399 . S
C971 H957 0.929 . S
C971 C970 1.399 . S
C971 C972 1.385 . S
C972 H958 0.931 . S
C972 C971 1.385 . S
C972 C973 1.389 1_655 S
C973 C972 1.389 1_455 S
C973 C974 1.387 . S
C974 H959 0.930 . S
C974 C969 1.390 . S
C974 C973 1.387 . S
H975 C987 0.930 . S
H976 C989 0.930 . S
H977 C990 0.930 . S
H978 C994 0.959 . S
H979 C994 0.959 . S
H980 C994 0.961 . S
H981 C995 0.960 . S
H982 C995 0.961 . S
H983 C995 0.959 . S
H984 C998 0.929 . S
H985 C999 0.931 . S
H986 C1001 0.930 . S
C987 H975 0.930 . S
C987 C988 1.399 . S
C987 C992 1.399 . S
C988 C987 1.399 . S
C988 C989 1.376 1_554 S
C989 H976 0.930 . S
C989 C988 1.376 1_556 S
C989 C990 1.388 . S
C990 H977 0.930 . S
C990 C989 1.388 . S
C990 C991 1.390 . S
C991 C990 1.390 . S
C991 C992 1.394 1_556 S
C991 C997 1.465 . S
C992 C987 1.399 . S
C992 C991 1.394 1_554 S
C992 C993 1.514 . S
C993 C992 1.514 . S
C993 C994 1.500 . S
C993 C995 1.565 1_565 S
C993 C996 1.526 1_564 S
C994 H978 0.959 . S
C994 H979 0.959 . S
C994 H980 0.961 . S
C994 C993 1.500 . S
C995 H981 0.960 . S
C995 H982 0.961 . S
C995 H983 0.959 . S
C995 C993 1.565 1_545 S
C996 C993 1.526 1_546 S
C996 C997 1.396 1_545 S
C996 C1001 1.390 . S
C997 C991 1.465 . S
C997 C996 1.396 1_565 S
C997 C998 1.399 . S
C998 H984 0.929 . S
C998 C997 1.399 . S
C998 C999 1.385 1_565 S
C999 H985 0.931 . S
C999 C998 1.385 1_545 S
C999 C1000 1.389 . S
C1000 C999 1.389 . S
C1000 C1001 1.387 . S
C1001 H986 0.930 . S
C1001 C996 1.390 . S
C1001 C1000 1.387 . S
H1002 C1014 0.930 . S
H1003 C1016 0.930 . S
H1004 C1017 0.930 . S
H1005 C1021 0.959 1_556 S
H1006 C1021 0.959 . S
H1007 C1021 0.961 . S
H1008 C1022 0.960 . S
H1009 C1022 0.961 . S
H1010 C1022 0.959 . S
H1011 C1025 0.929 . S
H1012 C1026 0.931 . S
H1013 C1028 0.930 . S
C1014 H1002 0.930 . S
C1014 C1015 1.399 . S
C1014 C1019 1.399 . S
C1015 C1014 1.399 . S
C1015 C1016 1.376 1_554 S
C1016 H1003 0.930 . S
C1016 C1015 1.376 1_556 S
C1016 C1017 1.388 . S
C1017 H1004 0.930 . S
C1017 C1016 1.388 . S
C1017 C1018 1.390 . S
C1018 C1017 1.390 . S
C1018 C1019 1.394 1_556 S
C1018 C1024 1.465 . S
C1019 C1014 1.399 . S
C1019 C1018 1.394 1_554 S
C1019 C1020 1.516 . S
C1020 C1019 1.516 . S
C1020 C1021 1.502 . S
C1020 C1022 1.561 . S
C1020 C1023 1.526 1_554 S
C1021 H1005 0.959 1_554 S
C1021 H1006 0.959 . S
C1021 H1007 0.961 . S
C1021 C1020 1.502 . S
C1022 H1008 0.960 . S
C1022 H1009 0.961 . S
C1022 H1010 0.959 . S
C1022 C1020 1.561 . S
C1023 C1020 1.526 1_556 S
C1023 C1024 1.396 . S
C1023 C1028 1.390 . S
C1024 C1018 1.465 . S
C1024 C1023 1.396 . S
C1024 C1025 1.399 . S
C1025 H1011 0.929 . S
C1025 C1024 1.399 . S
C1025 C1026 1.385 . S
C1026 H1012 0.931 . S
C1026 C1025 1.385 . S
C1026 C1027 1.389 . S
C1027 C1026 1.389 . S
C1027 C1028 1.387 . S
C1028 H1013 0.930 . S
C1028 C1023 1.390 . S
C1028 C1027 1.387 . S
H1029 C1041 0.930 . S
H1030 C1043 0.930 . S
H1031 C1044 0.930 . S
H1032 C1048 0.959 . S
H1033 C1048 0.959 . S
H1034 C1048 0.961 . S
H1035 C1049 0.960 . S
H1036 C1049 0.961 . S
H1037 C1049 0.959 1_556 S
H1038 C1052 0.929 . S
H1039 C1053 0.931 . S
H1040 C1055 0.930 . S
C1041 H1029 0.930 . S
C1041 C1042 1.399 . S
C1041 C1046 1.399 . S
C1042 C1041 1.399 . S
C1042 C1043 1.376 1_554 S
C1043 H1030 0.930 . S
C1043 C1042 1.376 1_556 S
C1043 C1044 1.388 . S
C1044 H1031 0.930 . S
C1044 C1043 1.388 . S
C1044 C1045 1.390 . S
C1045 C1044 1.390 . S
C1045 C1046 1.394 1_556 S
C1045 C1051 1.465 . S
C1046 C1041 1.399 . S
C1046 C1045 1.394 1_554 S
C1046 C1047 1.516 . S
C1047 C1046 1.516 . S
C1047 C1048 1.502 . S
C1047 C1049 1.561 . S
C1047 C1050 1.526 1_554 S
C1048 H1032 0.959 . S
C1048 H1033 0.959 . S
C1048 H1034 0.961 . S
C1048 C1047 1.502 . S
C1049 H1035 0.960 . S
C1049 H1036 0.961 . S
C1049 H1037 0.959 1_554 S
C1049 C1047 1.561 . S
C1050 C1047 1.526 1_556 S
C1050 C1051 1.396 . S
C1050 C1055 1.390 . S
C1051 C1045 1.465 . S
C1051 C1050 1.396 . S
C1051 C1052 1.399 . S
C1052 H1038 0.929 . S
C1052 C1051 1.399 . S
C1052 C1053 1.385 . S
C1053 H1039 0.931 . S
C1053 C1052 1.385 . S
C1053 C1054 1.389 . S
C1054 C1053 1.389 . S
C1054 C1055 1.387 . S
C1055 H1040 0.930 . S
C1055 C1050 1.390 . S
C1055 C1054 1.387 . S
H1056 C1068 0.930 . S
H1057 C1070 0.930 . S
H1058 C1071 0.930 . S
H1059 C1075 0.959 . S
H1060 C1075 0.959 . S
H1061 C1075 0.961 . S
H1062 C1076 0.960 . S
H1063 C1076 0.961 . S
H1064 C1076 0.959 . S
H1065 C1079 0.929 . S
H1066 C1080 0.931 . S
H1067 C1082 0.930 . S
C1068 H1056 0.930 . S
C1068 C1069 1.399 . S
C1068 C1073 1.399 . S
C1069 C1068 1.399 . S
C1069 C1070 1.376 . S
C1070 H1057 0.930 . S
C1070 C1069 1.376 . S
C1070 C1071 1.388 . S
C1071 H1058 0.930 . S
C1071 C1070 1.388 . S
C1071 C1072 1.390 . S
C1072 C1071 1.390 . S
C1072 C1073 1.394 . S
C1072 C1078 1.465 . S
C1073 C1068 1.399 . S
C1073 C1072 1.394 . S
C1073 C1074 1.516 . S
C1074 C1073 1.516 . S
C1074 C1075 1.502 . S
C1074 C1076 1.561 . S
C1074 C1077 1.526 . S
C1075 H1059 0.959 . S
C1075 H1060 0.959 . S
C1075 H1061 0.961 . S
C1075 C1074 1.502 . S
C1076 H1062 0.960 . S
C1076 H1063 0.961 . S
C1076 H1064 0.959 . S
C1076 C1074 1.561 . S
C1077 C1074 1.526 . S
C1077 C1078 1.396 . S
C1077 C1082 1.390 . S
C1078 C1072 1.465 . S
C1078 C1077 1.396 . S
C1078 C1079 1.399 . S
C1079 H1065 0.929 . S
C1079 C1078 1.399 . S
C1079 C1080 1.385 . S
C1080 H1066 0.931 . S
C1080 C1079 1.385 . S
C1080 C1081 1.389 . S
C1081 C1080 1.389 . S
C1081 C1082 1.387 . S
C1082 H1067 0.930 . S
C1082 C1077 1.390 . S
C1082 C1081 1.387 . S
H1083 C1095 0.930 . S
H1084 C1097 0.930 . S
H1085 C1098 0.930 . S
H1086 C1102 0.959 . S
H1087 C1102 0.959 . S
H1088 C1102 0.961 . S
H1089 C1103 0.960 . S
H1090 C1103 0.961 . S
H1091 C1103 0.959 . S
H1092 C1106 0.929 . S
H1093 C1107 0.931 . S
H1094 C1109 0.930 . S
C1095 H1083 0.930 . S
C1095 C1096 1.399 . S
C1095 C1100 1.399 . S
C1096 C1095 1.399 . S
C1096 C1097 1.376 . S
C1097 H1084 0.930 . S
C1097 C1096 1.376 . S
C1097 C1098 1.388 . S
C1098 H1085 0.930 . S
C1098 C1097 1.388 . S
C1098 C1099 1.390 . S
C1099 C1098 1.390 . S
C1099 C1100 1.394 . S
C1099 C1105 1.465 . S
C1100 C1095 1.399 . S
C1100 C1099 1.394 . S
C1100 C1101 1.516 . S
C1101 C1100 1.516 . S
C1101 C1102 1.502 . S
C1101 C1103 1.561 . S
C1101 C1104 1.526 . S
C1102 H1086 0.959 . S
C1102 H1087 0.959 . S
C1102 H1088 0.961 . S
C1102 C1101 1.502 . S
C1103 H1089 0.960 . S
C1103 H1090 0.961 . S
C1103 H1091 0.959 . S
C1103 C1101 1.561 . S
C1104 C1101 1.526 . S
C1104 C1105 1.396 . S
C1104 C1109 1.390 . S
C1105 C1099 1.465 . S
C1105 C1104 1.396 . S
C1105 C1106 1.399 . S
C1106 H1092 0.929 . S
C1106 C1105 1.399 . S
C1106 C1107 1.385 . S
C1107 H1093 0.931 . S
C1107 C1106 1.385 . S
C1107 C1108 1.389 . S
C1108 C1107 1.389 . S
C1108 C1109 1.387 . S
C1109 H1094 0.930 . S
C1109 C1104 1.390 . S
C1109 C1108 1.387 . S
H1110 C1122 0.930 . S
H1111 C1124 0.930 . S
H1112 C1125 0.930 . S
H1113 C1129 0.959 . S
H1114 C1129 0.959 . S
H1115 C1129 0.961 . S
H1116 C1130 0.960 . S
H1117 C1130 0.961 . S
H1118 C1130 0.959 . S
H1119 C1133 0.929 . S
H1120 C1134 0.931 . S
H1121 C1136 0.930 . S
C1122 H1110 0.930 . S
C1122 C1123 1.399 . S
C1122 C1127 1.399 . S
C1123 C1122 1.399 . S
C1123 C1124 1.376 . S
C1124 H1111 0.930 . S
C1124 C1123 1.376 . S
C1124 C1125 1.388 . S
C1125 H1112 0.930 . S
C1125 C1124 1.388 . S
C1125 C1126 1.390 . S
C1126 C1125 1.390 . S
C1126 C1127 1.394 . S
C1126 C1132 1.465 . S
C1127 C1122 1.399 . S
C1127 C1126 1.394 . S
C1127 C1128 1.516 . S
C1128 C1127 1.516 . S
C1128 C1129 1.502 . S
C1128 C1130 1.561 . S
C1128 C1131 1.526 . S
C1129 H1113 0.959 . S
C1129 H1114 0.959 . S
C1129 H1115 0.961 . S
C1129 C1128 1.502 . S
C1130 H1116 0.960 . S
C1130 H1117 0.961 . S
C1130 H1118 0.959 . S
C1130 C1128 1.561 . S
C1131 C1128 1.526 . S
C1131 C1132 1.396 . S
C1131 C1136 1.390 . S
C1132 C1126 1.465 . S
C1132 C1131 1.396 . S
C1132 C1133 1.399 . S
C1133 H1119 0.929 . S
C1133 C1132 1.399 . S
C1133 C1134 1.385 . S
C1134 H1120 0.931 . S
C1134 C1133 1.385 . S
C1134 C1135 1.389 . S
C1135 C1134 1.389 . S
C1135 C1136 1.387 . S
C1136 H1121 0.930 . S
C1136 C1131 1.390 . S
C1136 C1135 1.387 . S
H1137 C1149 0.930 . S
H1138 C1151 0.930 . S
H1139 C1152 0.930 . S
H1140 C1156 0.959 . S
H1141 C1156 0.959 . S
H1142 C1156 0.961 . S
H1143 C1157 0.960 . S
H1144 C1157 0.961 . S
H1145 C1157 0.959 . S
H1146 C1160 0.929 . S
H1147 C1161 0.931 . S
H1148 C1163 0.930 . S
C1149 H1137 0.930 . S
C1149 C1150 1.399 . S
C1149 C1154 1.399 . S
C1150 C1149 1.399 . S
C1150 C1151 1.376 . S
C1151 H1138 0.930 . S
C1151 C1150 1.376 . S
C1151 C1152 1.388 . S
C1152 H1139 0.930 . S
C1152 C1151 1.388 . S
C1152 C1153 1.390 . S
C1153 C1152 1.390 . S
C1153 C1154 1.394 . S
C1153 C1159 1.465 . S
C1154 C1149 1.399 . S
C1154 C1153 1.394 . S
C1154 C1155 1.516 . S
C1155 C1154 1.516 . S
C1155 C1156 1.502 . S
C1155 C1157 1.561 . S
C1155 C1158 1.526 . S
C1156 H1140 0.959 . S
C1156 H1141 0.959 . S
C1156 H1142 0.961 . S
C1156 C1155 1.502 . S
C1157 H1143 0.960 . S
C1157 H1144 0.961 . S
C1157 H1145 0.959 . S
C1157 C1155 1.561 . S
C1158 C1155 1.526 . S
C1158 C1159 1.396 . S
C1158 C1163 1.390 . S
C1159 C1153 1.465 . S
C1159 C1158 1.396 . S
C1159 C1160 1.399 . S
C1160 H1146 0.929 . S
C1160 C1159 1.399 . S
C1160 C1161 1.385 . S
C1161 H1147 0.931 . S
C1161 C1160 1.385 . S
C1161 C1162 1.389 . S
C1162 C1161 1.389 . S
C1162 C1163 1.387 . S
C1163 H1148 0.930 . S
C1163 C1158 1.390 . S
C1163 C1162 1.387 . S
H1164 C1176 0.930 1_455 S
H1165 C1178 0.930 . S
H1166 C1179 0.930 . S
H1167 C1183 0.959 . S
H1168 C1183 0.959 . S
H1169 C1183 0.961 . S
H1170 C1184 0.960 . S
H1171 C1184 0.961 . S
H1172 C1184 0.959 1_655 S
H1173 C1187 0.929 . S
H1174 C1188 0.931 . S
H1175 C1190 0.915 1_455 S
C1176 H1164 0.930 1_655 S
C1176 C1177 1.399 . S
C1176 C1181 1.399 . S
C1177 C1176 1.399 . S
C1177 C1178 1.376 . S
C1178 H1165 0.930 . S
C1178 C1177 1.376 . S
C1178 C1179 1.388 . S
C1179 H1166 0.930 . S
C1179 C1178 1.388 . S
C1179 C1180 1.390 . S
C1180 C1179 1.390 . S
C1180 C1181 1.394 . S
C1180 C1186 1.465 . S
C1181 C1176 1.399 . S
C1181 C1180 1.394 . S
C1181 C1182 1.516 1_655 S
C1182 C1181 1.516 1_455 S
C1182 C1183 1.502 . S
C1182 C1184 1.561 . S
C1182 C1185 1.526 1_455 S
C1183 H1167 0.959 . S
C1183 H1168 0.959 . S
C1183 H1169 0.961 . S
C1183 C1182 1.502 . S
C1184 H1170 0.960 . S
C1184 H1171 0.961 . S
C1184 H1172 0.959 1_455 S
C1184 C1182 1.561 . S
C1185 C1182 1.526 1_655 S
C1185 C1186 1.396 . S
C1185 C1190 1.394 . S
C1186 C1180 1.465 . S
C1186 C1185 1.396 . S
C1186 C1187 1.399 . S
C1187 H1173 0.929 . S
C1187 C1186 1.399 . S
C1187 C1188 1.385 . S
C1188 H1174 0.931 . S
C1188 C1187 1.385 . S
C1188 C1189 1.389 . S
C1189 C1188 1.389 . S
C1189 C1190 1.397 . S
C1190 H1175 0.915 1_655 S
C1190 C1185 1.394 . S
C1190 C1189 1.397 . S
H1191 C1203 0.930 . S
H1192 C1205 0.930 . S
H1193 C1206 0.930 . S
H1194 C1210 0.959 . S
H1195 C1210 0.959 . S
H1196 C1210 0.961 . S
H1197 C1211 0.960 . S
H1198 C1211 0.961 1_545 S
H1199 C1211 0.959 . S
H1200 C1214 0.929 . S
H1201 C1215 0.931 . S
H1202 C1217 0.900 1_545 S
C1203 H1191 0.930 . S
C1203 C1204 1.399 . S
C1203 C1208 1.399 . S
C1204 C1203 1.399 . S
C1204 C1205 1.376 . S
C1205 H1192 0.930 . S
C1205 C1204 1.376 . S
C1205 C1206 1.388 . S
C1206 H1193 0.930 . S
C1206 C1205 1.388 . S
C1206 C1207 1.390 . S
C1207 C1206 1.390 . S
C1207 C1208 1.394 . S
C1207 C1213 1.465 . S
C1208 C1203 1.399 . S
C1208 C1207 1.394 . S
C1208 C1209 1.509 1_565 S
C1209 C1208 1.509 1_545 S
C1209 C1210 1.515 . S
C1209 C1211 1.558 1_545 S
C1209 C1212 1.522 1_545 S
C1210 H1194 0.959 . S
C1210 H1195 0.959 . S
C1210 H1196 0.961 . S
C1210 C1209 1.515 . S
C1211 H1197 0.960 . S
C1211 H1198 0.961 1_565 S
C1211 H1199 0.959 . S
C1211 C1209 1.558 1_565 S
C1212 C1209 1.522 1_565 S
C1212 C1213 1.396 . S
C1212 C1217 1.403 . S
C1213 C1207 1.465 . S
C1213 C1212 1.396 . S
C1213 C1214 1.399 . S
C1214 H1200 0.929 . S
C1214 C1213 1.399 . S
C1214 C1215 1.385 . S
C1215 H1201 0.931 . S
C1215 C1214 1.385 . S
C1215 C1216 1.389 . S
C1216 C1215 1.389 . S
C1216 C1217 1.405 . S
C1217 H1202 0.900 1_565 S
C1217 C1212 1.403 . S
C1217 C1216 1.405 . S
H1218 C1230 0.930 . S
H1219 C1232 0.930 . S
H1220 C1233 0.930 . S
H1221 C1237 0.959 . S
H1222 C1237 0.959 . S
H1223 C1237 0.961 . S
H1224 C1238 0.960 . S
H1225 C1238 0.961 . S
H1226 C1238 0.959 . S
H1227 C1241 0.929 . S
H1228 C1242 0.931 . S
H1229 C1244 0.930 . S
C1230 H1218 0.930 . S
C1230 C1231 1.399 . S
C1230 C1235 1.399 . S
C1231 C1230 1.399 . S
C1231 C1232 1.376 . S
C1232 H1219 0.930 . S
C1232 C1231 1.376 . S
C1232 C1233 1.388 . S
C1233 H1220 0.930 . S
C1233 C1232 1.388 . S
C1233 C1234 1.390 . S
C1234 C1233 1.390 . S
C1234 C1235 1.394 . S
C1234 C1240 1.465 . S
C1235 C1230 1.399 . S
C1235 C1234 1.394 . S
C1235 C1236 1.516 . S
C1236 C1235 1.516 . S
C1236 C1237 1.502 . S
C1236 C1238 1.561 . S
C1236 C1239 1.526 . S
C1237 H1221 0.959 . S
C1237 H1222 0.959 . S
C1237 H1223 0.961 . S
C1237 C1236 1.502 . S
C1238 H1224 0.960 . S
C1238 H1225 0.961 . S
C1238 H1226 0.959 . S
C1238 C1236 1.561 . S
C1239 C1236 1.526 . S
C1239 C1240 1.396 . S
C1239 C1244 1.390 . S
C1240 C1234 1.465 . S
C1240 C1239 1.396 . S
C1240 C1241 1.399 . S
C1241 H1227 0.929 . S
C1241 C1240 1.399 . S
C1241 C1242 1.385 . S
C1242 H1228 0.931 . S
C1242 C1241 1.385 . S
C1242 C1243 1.389 . S
C1243 C1242 1.389 . S
C1243 C1244 1.387 . S
C1244 H1229 0.930 . S
C1244 C1239 1.390 . S
C1244 C1243 1.387 . S
H1245 C1257 0.930 . S
H1246 C1259 0.930 . S
H1247 C1260 0.930 . S
H1248 C1264 0.959 . S
H1249 C1264 0.959 . S
H1250 C1264 0.961 . S
H1251 C1265 0.960 . S
H1252 C1265 0.961 . S
H1253 C1265 0.959 . S
H1254 C1268 0.929 . S
H1255 C1269 0.931 . S
H1256 C1271 0.930 . S
C1257 H1245 0.930 . S
C1257 C1258 1.399 . S
C1257 C1262 1.399 . S
C1258 C1257 1.399 . S
C1258 C1259 1.376 . S
C1259 H1246 0.930 . S
C1259 C1258 1.376 . S
C1259 C1260 1.388 . S
C1260 H1247 0.930 . S
C1260 C1259 1.388 . S
C1260 C1261 1.390 . S
C1261 C1260 1.390 . S
C1261 C1262 1.394 . S
C1261 C1267 1.465 . S
C1262 C1257 1.399 . S
C1262 C1261 1.394 . S
C1262 C1263 1.516 . S
C1263 C1262 1.516 . S
C1263 C1264 1.502 . S
C1263 C1265 1.561 . S
C1263 C1266 1.526 . S
C1264 H1248 0.959 . S
C1264 H1249 0.959 . S
C1264 H1250 0.961 . S
C1264 C1263 1.502 . S
C1265 H1251 0.960 . S
C1265 H1252 0.961 . S
C1265 H1253 0.959 . S
C1265 C1263 1.561 . S
C1266 C1263 1.526 . S
C1266 C1267 1.396 . S
C1266 C1271 1.390 . S
C1267 C1261 1.465 . S
C1267 C1266 1.396 . S
C1267 C1268 1.399 . S
C1268 H1254 0.929 . S
C1268 C1267 1.399 . S
C1268 C1269 1.385 . S
C1269 H1255 0.931 . S
C1269 C1268 1.385 . S
C1269 C1270 1.389 . S
C1270 C1269 1.389 . S
C1270 C1271 1.387 . S
C1271 H1256 0.930 . S
C1271 C1266 1.390 . S
C1271 C1270 1.387 . S
C637 C241 2.194 . S
C649 C356 2.437 . S
C676 C439 2.466 . S
C664 C277 2.257 . S
C703 C524 2.395 . S
C691 C169 2.262 . S
C730 C608 2.382 . S
C718 C205 2.256 . S
C757 C344 2.417 1_565 S
C745 C97 2.160 . S
C772 C133 2.303 . S
C784 C427 2.453 . S
C799 C25 2.159 . S
C811 C512 2.413 . S
C826 C61 2.215 . S
C838 C596 2.383 1_655 S
C865 C346 0.556 . S
C853 C211 0.546 . S
C892 C442 0.654 . S
C880 C247 0.545 . S
C919 C514 0.559 . S
C907 C253 0.452 . S
C934 C175 0.548 . S
C946 C598 0.468 . S
C961 C67 0.608 . S
C973 C358 0.603 . S
C1000 C430 0.663 . S
C988 C103 0.558 . S
C1027 C526 0.418 . S
C1015 C109 0.459 . S
C1042 C31 0.597 . S
C1054 C610 0.494 . S
C1069 C181 2.658 . S
C1081 C343 2.882 . S
C1096 C217 2.637 . S
C1108 C428 2.925 . S
C1135 C511 2.910 . S
C1123 C283 2.604 . S
C1162 C595 2.929 . S
C1150 C145 2.612 . S
C1177 C37 2.617 . S
C1189 C355 2.892 . S
C1216 C440 2.936 . S
C1204 C73 2.617 . S
C1243 C523 2.909 . S
C1231 C139 2.610 . S
C1258 C1 2.610 . S
C1270 C607 2.925 . S
