# Generated by pormake.
# Topology zzz, (3,6)-cn, num edge types: 1
# Building blocks:
#     Node 0, Type 0, BuildingBlock: PAMTOO_clean_linker_0, # of connection points: 3
#     Node 1, Type 0, BuildingBlock: PAMTOO_clean_linker_0, # of connection points: 3
#     Node 2, Type 0, BuildingBlock: PAMTOO_clean_linker_0, # of connection points: 3
#     Node 3, Type 0, BuildingBlock: PAMTOO_clean_linker_0, # of connection points: 3
#     Node 4, Type 0, BuildingBlock: PAMTOO_clean_linker_0, # of connection points: 3
#     Node 5, Type 0, BuildingBlock: PAMTOO_clean_linker_0, # of connection points: 3
#     Node 6, Type 0, BuildingBlock: PAMTOO_clean_linker_0, # of connection points: 3
#     Node 7, Type 0, BuildingBlock: PAMTOO_clean_linker_0, # of connection points: 3
#     Node 8, Type 1, BuildingBlock: CUKXOW_clean_sbu_0, # of connection points: 6
#     Node 9, Type 1, BuildingBlock: CUKXOW_clean_sbu_0, # of connection points: 6
#     Node 10, Type 1, BuildingBlock: CUKXOW_clean_sbu_0, # of connection points: 6
#     Node 11, Type 1, BuildingBlock: CUKXOW_clean_sbu_0, # of connection points: 6
#     Edge 12, Type (0, 1), BuildingBlock: ZUJKAS_clean_linker_0, # of connection points: 2
#     Edge 13, Type (0, 1), BuildingBlock: ZUJKAS_clean_linker_0, # of connection points: 2
#     Edge 14, Type (0, 1), BuildingBlock: ZUJKAS_clean_linker_0, # of connection points: 2
#     Edge 15, Type (0, 1), BuildingBlock: ZUJKAS_clean_linker_0, # of connection points: 2
#     Edge 16, Type (0, 1), BuildingBlock: ZUJKAS_clean_linker_0, # of connection points: 2
#     Edge 17, Type (0, 1), BuildingBlock: ZUJKAS_clean_linker_0, # of connection points: 2
#     Edge 18, Type (0, 1), BuildingBlock: ZUJKAS_clean_linker_0, # of connection points: 2
#     Edge 19, Type (0, 1), BuildingBlock: ZUJKAS_clean_linker_0, # of connection points: 2
#     Edge 20, Type (0, 1), BuildingBlock: ZUJKAS_clean_linker_0, # of connection points: 2
#     Edge 21, Type (0, 1), BuildingBlock: ZUJKAS_clean_linker_0, # of connection points: 2
#     Edge 22, Type (0, 1), BuildingBlock: ZUJKAS_clean_linker_0, # of connection points: 2
#     Edge 23, Type (0, 1), BuildingBlock: ZUJKAS_clean_linker_0, # of connection points: 2
#     Edge 24, Type (0, 1), BuildingBlock: ZUJKAS_clean_linker_0, # of connection points: 2
#     Edge 25, Type (0, 1), BuildingBlock: ZUJKAS_clean_linker_0, # of connection points: 2
#     Edge 26, Type (0, 1), BuildingBlock: ZUJKAS_clean_linker_0, # of connection points: 2
#     Edge 27, Type (0, 1), BuildingBlock: ZUJKAS_clean_linker_0, # of connection points: 2
#     Edge 28, Type (0, 1), BuildingBlock: ZUJKAS_clean_linker_0, # of connection points: 2
#     Edge 29, Type (0, 1), BuildingBlock: ZUJKAS_clean_linker_0, # of connection points: 2
#     Edge 30, Type (0, 1), BuildingBlock: ZUJKAS_clean_linker_0, # of connection points: 2
#     Edge 31, Type (0, 1), BuildingBlock: ZUJKAS_clean_linker_0, # of connection points: 2
#     Edge 32, Type (0, 1), BuildingBlock: ZUJKAS_clean_linker_0, # of connection points: 2
#     Edge 33, Type (0, 1), BuildingBlock: ZUJKAS_clean_linker_0, # of connection points: 2
#     Edge 34, Type (0, 1), BuildingBlock: ZUJKAS_clean_linker_0, # of connection points: 2
#     Edge 35, Type (0, 1), BuildingBlock: ZUJKAS_clean_linker_0, # of connection points: 2
# Relax obj value: 0.069
# Max RMSD: 0.117
# Mean RMSD: 0.082
data_MOF--net-zzz--node1-CUKXOW_clean_sbu_0--node2-PAMTOO_clean_linker_0--edge1-ZUJKAS_clean_linker_0
_symmetry_space_group_name_H-M    P1
_symmetry_Int_Tables_number       1
_symmetry_cell_setting            triclinic
loop_
_symmetry_equiv_pos_as_xyz
'x, y, z'
_cell_length_a     65.810891
_cell_length_b     67.877278
_cell_length_c     20.174982
_cell_angle_alpha  92.780385
_cell_angle_beta   87.110688
_cell_angle_gamma 93.795843
loop_
_atom_site_label
_atom_site_type_symbol
_atom_site_fract_x
_atom_site_fract_y
_atom_site_fract_z
_atom_type_partial_charge
H0 H 0.81457 0.53449 0.11633 0.0
H1 H 0.7605 0.52365 0.00577 0.0
H2 H 0.75565 0.53026 0.21901 0.0
H3 H 0.72129 0.50234 0.16386 0.0
C4 C 0.72509 0.50604 0.11141 0.0
O5 O 0.73524 0.52449 0.11031 0.0
H6 H 0.73487 0.49447 0.08878 0.0
C7 C 0.79807 0.53305 0.11514 0.0
C8 C 0.7863 0.53326 0.17504 0.0
C9 C 0.78899 0.52949 0.05396 0.0
C10 C 0.76773 0.52656 0.05262 0.0
C11 C 0.75574 0.52711 0.1121 0.0
C12 C 0.76501 0.53026 0.17327 0.0
H13 H 0.97734 0.82123 0.09033 0.0
H14 H 0.98331 0.76947 0.96101 0.0
H15 H 0.95947 0.76377 0.1623 0.0
H16 H 0.94385 0.74327 0.99301 0.0
C17 C 0.95103 0.73474 0.03041 0.0
O18 O 0.9689 0.74461 0.04995 0.0
H19 H 0.94019 0.7332 0.07419 0.0
C20 C 0.9754 0.80533 0.08172 0.0
C21 C 0.96732 0.79365 0.13322 0.0
C22 C 0.98153 0.79683 0.01987 0.0
C23 C 0.97877 0.7763 0.00864 0.0
C24 C 0.97076 0.76443 0.06006 0.0
C25 C 0.96534 0.77306 0.1226 0.0
H26 H 0.68341 0.96922 0.09069 0.0
H27 H 0.74141 0.97794 0.98522 0.0
H28 H 0.73872 0.96996 0.19602 0.0
H29 H 0.77484 0.99733 0.15245 0.0
C30 C 0.77337 0.99391 0.09837 0.0
O31 O 0.76303 0.97564 0.09 0.0
H32 H 0.76484 0.0057 0.07789 0.0
C33 C 0.69994 0.96987 0.09041 0.0
C34 C 0.70965 0.96857 0.15004 0.0
C35 C 0.71122 0.9734 0.03115 0.0
C36 C 0.73255 0.97492 0.03076 0.0
C37 C 0.74247 0.97351 0.0902 0.0
C38 C 0.73102 0.97052 0.14999 0.0
H39 H 0.53161 0.69145 0.14081 0.0
H40 H 0.53636 0.74128 0.01569 0.0
H41 H 0.55331 0.7485 0.21939 0.0
H42 H 0.53723 0.78486 0.18329 0.0
C43 C 0.53473 0.78018 0.13062 0.0
O44 O 0.54892 0.76681 0.10936 0.0
H45 H 0.51899 0.77309 0.12837 0.0
C46 C 0.53522 0.70708 0.13405 0.0
C47 C 0.54245 0.71901 0.18738 0.0
C48 C 0.53309 0.71482 0.07185 0.0
C49 C 0.53817 0.73499 0.06321 0.0
C50 C 0.54525 0.74717 0.11665 0.0
C51 C 0.54784 0.73907 0.17833 0.0
H52 H 0.19611 0.49178 0.24232 0.0
H53 H 0.25018 0.50301 0.35258 0.0
H54 H 0.25515 0.49079 0.14092 0.0
H55 H 0.28899 0.47332 0.21111 0.0
C56 C 0.28607 0.48125 0.25987 0.0
O57 O 0.27558 0.49773 0.24956 0.0
H58 H 0.2769 0.47101 0.29291 0.0
C59 C 0.21262 0.49301 0.24361 0.0
C60 C 0.22447 0.49063 0.18458 0.0
C61 C 0.22171 0.49764 0.304 0.0
C62 C 0.24299 0.49955 0.30591 0.0
C63 C 0.25506 0.49673 0.24717 0.0
C64 C 0.2458 0.49264 0.18625 0.0
H65 H 0.03078 0.19415 0.24735 0.0
H66 H 0.03298 0.23899 0.4061 0.0
H67 H 0.03897 0.25532 0.20224 0.0
H68 H 0.0638 0.2806 0.28787 0.0
C69 C 0.05508 0.2792 0.33626 0.0
O70 O 0.03679 0.26855 0.32683 0.0
H71 H 0.0643 0.27137 0.37022 0.0
C72 C 0.03243 0.20953 0.26464 0.0
C73 C 0.03522 0.22402 0.21756 0.0
C74 C 0.03192 0.21454 0.33296 0.0
C75 C 0.03339 0.23464 0.35371 0.0
C76 C 0.03578 0.24929 0.30655 0.0
C77 C 0.03684 0.24398 0.2384 0.0
H78 H 0.3304 0.02204 0.25542 0.0
H79 H 0.27418 0.02485 0.37257 0.0
H80 H 0.27476 0.03058 0.16071 0.0
H81 H 0.23946 0.05207 0.23197 0.0
C82 C 0.24175 0.04588 0.28085 0.0
O83 O 0.25165 0.02862 0.27087 0.0
H84 H 0.25106 0.05712 0.31037 0.0
C85 C 0.31408 0.02371 0.25872 0.0
C86 C 0.30392 0.02643 0.20096 0.0
C87 C 0.30359 0.02321 0.32069 0.0
C88 C 0.28255 0.02556 0.32503 0.0
C89 C 0.27215 0.0281 0.26722 0.0
C90 C 0.28287 0.02878 0.20522 0.0
H91 H 0.47751 0.3255 0.27273 0.0
H92 H 0.47951 0.27145 0.37382 0.0
H93 H 0.46961 0.26953 0.16434 0.0
H94 H 0.44851 0.23351 0.22573 0.0
C95 C 0.45472 0.23688 0.2755 0.0
O96 O 0.47284 0.24826 0.26833 0.0
H97 H 0.44334 0.24516 0.30655 0.0
C98 C 0.47636 0.30947 0.2716 0.0
C99 C 0.47345 0.29883 0.21111 0.0
C100 C 0.47866 0.29983 0.3303 0.0
C101 C 0.47747 0.27912 0.32899 0.0
C102 C 0.47372 0.26823 0.26941 0.0
C103 C 0.47181 0.27807 0.21048 0.0
Tb104 Tb 0.00214 0.99028 0.64077 0.0
C105 C 0.04858 0.00697 0.63328 0.0
Tb106 Tb 0.01812 0.01992 0.75184 0.0
O107 O 0.98719 0.01379 0.5938 0.0
O108 O 0.01247 0.02022 0.65052 0.0
O109 O 0.035 0.99268 0.61376 0.0
C110 C 0.02393 0.05372 0.82333 0.0
O111 O 0.044 0.02086 0.67958 0.0
C112 C 0.02223 0.98274 0.77094 0.0
C113 C 0.97108 0.00423 0.75521 0.0
O114 O 0.03709 0.04029 0.8141 0.0
O115 O 0.00743 0.04789 0.79364 0.0
O116 O 0.03243 0.99691 0.80297 0.0
O117 O 0.00822 0.99002 0.7422 0.0
O118 O 0.98529 0.01742 0.77771 0.0
O119 O 0.97483 0.99093 0.7063 0.0
C120 C 0.9946 0.9562 0.57223 0.0
O121 O 0.9895 0.97335 0.55502 0.0
O122 O 0.0041 0.9584 0.62698 0.0
C123 C 0.99867 0.02785 0.62187 0.0
Tb124 Tb 0.50723 0.02675 0.64704 0.0
C125 C 0.53616 0.99566 0.58413 0.0
Tb126 Tb 0.51069 0.9881 0.72081 0.0
O127 O 0.53922 0.03544 0.66205 0.0
O128 O 0.52248 0.01776 0.72944 0.0
O129 O 0.52485 0.01044 0.57129 0.0
C130 C 0.52279 0.95711 0.78167 0.0
O131 O 0.53419 0.98632 0.64073 0.0
C132 C 0.47779 0.98972 0.65432 0.0
C133 C 0.48138 0.01906 0.78304 0.0
O134 O 0.52543 0.97545 0.80288 0.0
O135 O 0.51332 0.95631 0.72661 0.0
O136 O 0.47883 0.97902 0.70551 0.0
O137 O 0.49539 0.99707 0.63863 0.0
O138 O 0.49255 0.00416 0.79577 0.0
O139 O 0.48373 0.02872 0.72713 0.0
C140 C 0.49553 0.05798 0.58655 0.0
O141 O 0.49113 0.03962 0.56833 0.0
O142 O 0.50646 0.05866 0.63845 0.0
C143 C 0.54013 0.02494 0.71379 0.0
Tb144 Tb 0.51773 0.51977 0.62843 0.0
C145 C 0.47107 0.50462 0.61323 0.0
Tb146 Tb 0.49727 0.48879 0.7258 0.0
O147 O 0.53807 0.49796 0.58154 0.0
O148 O 0.51053 0.48921 0.62885 0.0
O149 O 0.48645 0.51733 0.595 0.0
C150 C 0.4822 0.45476 0.77468 0.0
O151 O 0.47209 0.49198 0.66138 0.0
C152 C 0.49918 0.52591 0.76908 0.0
C153 C 0.54267 0.50458 0.74337 0.0
O154 O 0.47674 0.47218 0.79542 0.0
O155 O 0.49598 0.45663 0.72682 0.0
O156 O 0.49887 0.51123 0.80838 0.0
O157 O 0.49677 0.51923 0.71077 0.0
O158 O 0.52915 0.48932 0.75009 0.0
O159 O 0.53976 0.51961 0.70582 0.0
C160 C 0.52904 0.55363 0.57154 0.0
O161 O 0.52956 0.55058 0.63442 0.0
O162 O 0.52226 0.53748 0.5402 0.0
C163 C 0.52698 0.48305 0.60476 0.0
Tb164 Tb 0.98704 0.50947 0.63133 0.0
C165 C 0.01006 0.47053 0.62403 0.0
Tb166 Tb 0.019 0.50425 0.73764 0.0
O167 O 0.01061 0.51167 0.55061 0.0
O168 O 0.01751 0.51918 0.64895 0.0
O169 O 0.9935 0.47894 0.60718 0.0
C170 C 0.05309 0.50026 0.80079 0.0
O171 O 0.02286 0.47879 0.66794 0.0
C172 C 0.98073 0.49735 0.776 0.0
C173 C 0.99615 0.54337 0.74344 0.0
O174 O 0.03773 0.48725 0.79792 0.0
O175 O 0.04912 0.51562 0.76902 0.0
O176 O 0.99489 0.50296 0.81678 0.0
O177 O 0.98884 0.49409 0.71917 0.0
O178 O 0.01269 0.53493 0.76013 0.0
O179 O 0.98326 0.53504 0.70007 0.0
C180 C 0.95209 0.51364 0.57332 0.0
O181 O 0.95543 0.49976 0.61252 0.0
O182 O 0.96859 0.52507 0.56566 0.0
C183 C 0.02516 0.51613 0.59114 0.0
H184 H 0.22896 0.05737 0.40787 0.0
H185 H 0.19583 0.04939 0.46499 0.0
H186 H 0.1758 0.01594 0.29038 0.0
H187 H 0.20892 0.02403 0.2329 0.0
H188 H 0.15537 0.05745 0.41655 0.0
H189 H 0.16547 0.97778 0.4494 0.0
H190 H 0.18678 0.99548 0.43477 0.0
H191 H 0.17113 0.98685 0.36771 0.0
C192 C 0.21744 0.04839 0.38171 0.0
C193 C 0.22136 0.0414 0.31593 0.0
C194 C 0.19859 0.04381 0.41433 0.0
C195 C 0.18349 0.03195 0.38203 0.0
C196 C 0.18737 0.02494 0.31634 0.0
H197 H 0.06137 0.98779 0.517 0.0
H198 H 0.09391 0.99361 0.45421 0.0
C199 C 0.20617 0.02962 0.28354 0.0
C200 C 0.16352 0.02729 0.41675 0.0
H201 H 0.1337 0.98974 0.48525 0.0
C202 C 0.1506 0.04267 0.43165 0.0
C203 C 0.15734 0.00794 0.43567 0.0
C204 C 0.17089 0.99101 0.4216 0.0
C205 C 0.13155 0.03921 0.46495 0.0
C206 C 0.12554 0.01995 0.48552 0.0
C207 C 0.13837 0.0045 0.46968 0.0
C208 C 0.10621 0.0157 0.52485 0.0
C209 C 0.11791 0.05619 0.47675 0.0
C210 C 0.10258 0.02574 0.58628 0.0
C211 C 0.08403 0.02255 0.62199 0.0
C212 C 0.06877 0.00904 0.59746 0.0
C213 C 0.07276 0.99835 0.53724 0.0
C214 C 0.09133 0.00166 0.50123 0.0
H215 H 0.12184 0.06802 0.44121 0.0
H216 H 0.10162 0.05115 0.4722 0.0
H217 H 0.11988 0.06276 0.52765 0.0
H218 H 0.11407 0.03621 0.60643 0.0
H219 H 0.0816 0.03085 0.66861 0.0
H220 H 0.48887 0.21497 0.26661 0.0
H221 H 0.49337 0.18364 0.31728 0.0
H222 H 0.43174 0.18319 0.4012 0.0
H223 H 0.42745 0.21495 0.35255 0.0
H224 H 0.45703 0.17386 0.49127 0.0
H225 H 0.47231 0.12898 0.26018 0.0
H226 H 0.48973 0.15036 0.26695 0.0
H227 H 0.46295 0.15337 0.25979 0.0
C228 C 0.47635 0.20829 0.29638 0.0
C229 C 0.45796 0.21767 0.30712 0.0
C230 C 0.47884 0.19022 0.32456 0.0
C231 C 0.46281 0.18087 0.36235 0.0
C232 C 0.44434 0.1901 0.37228 0.0
H233 H 0.46829 0.05927 0.48887 0.0
H234 H 0.45842 0.08874 0.43532 0.0
C235 C 0.44191 0.20825 0.34464 0.0
C236 C 0.46553 0.16189 0.3937 0.0
H237 H 0.48069 0.11505 0.36155 0.0
C238 C 0.46203 0.16095 0.46275 0.0
C239 C 0.47164 0.14487 0.35649 0.0
C240 C 0.47416 0.14434 0.28168 0.0
C241 C 0.46513 0.14375 0.49583 0.0
C242 C 0.47252 0.12717 0.45916 0.0
C243 C 0.47531 0.12784 0.38983 0.0
C244 C 0.47811 0.10929 0.49208 0.0
C245 C 0.46029 0.14351 0.56973 0.0
C246 C 0.49261 0.111 0.54109 0.0
C247 C 0.49807 0.09429 0.57198 0.0
C248 C 0.48945 0.07546 0.55362 0.0
C249 C 0.47517 0.07363 0.50385 0.0
C250 C 0.46954 0.09044 0.47331 0.0
H251 H 0.44872 0.15419 0.58569 0.0
H252 H 0.45454 0.12857 0.58491 0.0
H253 H 0.47434 0.14789 0.59643 0.0
H254 H 0.49988 0.12527 0.5551 0.0
H255 H 0.50925 0.09609 0.60979 0.0
H256 H 0.29426 0.51113 0.35429 0.0
H257 H 0.32598 0.51869 0.41172 0.0
H258 H 0.35324 0.47026 0.30181 0.0
H259 H 0.32185 0.46316 0.24267 0.0
H260 H 0.34435 0.49673 0.49198 0.0
H261 H 0.39761 0.5131 0.27813 0.0
H262 H 0.37031 0.51133 0.27136 0.0
H263 H 0.38431 0.48934 0.2672 0.0
C264 C 0.30723 0.50245 0.34121 0.0
C265 C 0.30588 0.487 0.2923 0.0
C266 C 0.32528 0.50668 0.37434 0.0
C267 C 0.34221 0.49537 0.35992 0.0
C268 C 0.34069 0.47966 0.31213 0.0
H269 H 0.43919 0.47667 0.61627 0.0
H270 H 0.40787 0.47593 0.55637 0.0
C271 C 0.32272 0.47555 0.27858 0.0
C272 C 0.36099 0.49915 0.39768 0.0
H273 H 0.41281 0.50592 0.37922 0.0
C274 C 0.3593 0.49896 0.46732 0.0
C275 C 0.38049 0.50241 0.36572 0.0
C276 C 0.38329 0.50428 0.29154 0.0
C277 C 0.37658 0.50125 0.50567 0.0
C278 C 0.39618 0.50321 0.47342 0.0
C279 C 0.39783 0.50413 0.40395 0.0
C280 C 0.41516 0.50388 0.51058 0.0
C281 C 0.37362 0.50169 0.58038 0.0
C282 C 0.43005 0.51952 0.50321 0.0
C283 C 0.44819 0.51983 0.53666 0.0
C284 C 0.45178 0.50451 0.57827 0.0
C285 C 0.43685 0.48884 0.58536 0.0
C286 C 0.41883 0.48846 0.55141 0.0
H287 H 0.35832 0.50659 0.59692 0.0
H288 H 0.37475 0.48658 0.5979 0.0
H289 H 0.38538 0.51171 0.60444 0.0
H290 H 0.42761 0.53153 0.47162 0.0
H291 H 0.45935 0.53213 0.53002 0.0
H292 H 0.03209 0.30624 0.28479 0.0
H293 H 0.02472 0.33927 0.33141 0.0
H294 H 0.06178 0.33092 0.49685 0.0
H295 H 0.06904 0.29785 0.45076 0.0
H296 H 0.00675 0.34755 0.46881 0.0
H297 H 0.08305 0.38547 0.41647 0.0
H298 H 0.07431 0.36307 0.37155 0.0
H299 H 0.08258 0.362 0.4546 0.0
C300 C 0.03863 0.31152 0.33108 0.0
C301 C 0.05099 0.29954 0.36452 0.0
C302 C 0.03445 0.33031 0.35754 0.0
C303 C 0.04283 0.33749 0.41722 0.0
C304 C 0.05535 0.32565 0.45038 0.0
H305 H 0.03906 0.44618 0.65719 0.0
H306 H 0.04631 0.41387 0.60649 0.0
C307 C 0.05942 0.3068 0.4242 0.0
C308 C 0.038 0.35718 0.44586 0.0
H309 H 0.059 0.4036 0.48039 0.0
C310 C 0.0181 0.35987 0.47118 0.0
C311 C 0.05293 0.37308 0.449 0.0
C312 C 0.07442 0.37093 0.42113 0.0
C313 C 0.01279 0.37805 0.50099 0.0
C314 C 0.02769 0.39406 0.5038 0.0
C315 C 0.0476 0.39133 0.47809 0.0
C316 C 0.02308 0.41368 0.53422 0.0
C317 C 0.99145 0.37973 0.5309 0.0
C318 C 0.00777 0.42443 0.5099 0.0
C319 C 0.00344 0.44286 0.53919 0.0
C320 C 0.01457 0.45102 0.59274 0.0
C321 C 0.03016 0.44035 0.61613 0.0
C322 C 0.03435 0.42187 0.58716 0.0
H323 H 0.98389 0.36499 0.54119 0.0
H324 H 0.99152 0.38894 0.57792 0.0
H325 H 0.98218 0.38679 0.49542 0.0
H326 H 0.99923 0.41862 0.46798 0.0
H327 H 0.99149 0.45077 0.51944 0.0
H328 H 0.8099 0.0097 0.14258 0.0
H329 H 0.84317 0.01155 0.08213 0.0
H330 H 0.81651 0.98036 0.91298 0.0
H331 H 0.78311 0.97903 0.97263 0.0
H332 H 0.86662 0.98243 0.03124 0.0
H333 H 0.84491 0.02805 0.82846 0.0
H334 H 0.8289 0.02436 0.90264 0.0
H335 H 0.82915 0.00562 0.83644 0.0
C336 C 0.8112 0.00317 0.09261 0.0
C337 C 0.79404 0.99393 0.06262 0.0
C338 C 0.83018 0.00425 0.0581 0.0
C339 C 0.8323 0.99631 0.99272 0.0
C340 C 0.81518 0.98694 0.96287 0.0
H341 H 0.93665 0.98267 0.71679 0.0
H342 H 0.90302 0.98074 0.77459 0.0
C343 C 0.79617 0.98597 0.9972 0.0
C344 C 0.85248 0.99766 0.95631 0.0
H345 H 0.87747 0.01471 0.8157 0.0
C346 C 0.869 0.98957 0.98428 0.0
C347 C 0.85559 0.00702 0.89504 0.0
C348 C 0.83875 0.01693 0.86413 0.0
C349 C 0.88846 0.99036 0.95224 0.0
C350 C 0.89148 0.99957 0.89089 0.0
C351 C 0.87502 0.00761 0.86271 0.0
C352 C 0.91173 0.00111 0.85548 0.0
C353 C 0.90562 0.9811 0.98363 0.0
C354 C 0.92762 0.01345 0.88146 0.0
C355 C 0.94683 0.01469 0.84842 0.0
C356 C 0.9505 0.00354 0.78889 0.0
C357 C 0.93441 0.99138 0.76264 0.0
C358 C 0.91517 0.99027 0.79551 0.0
H359 H 0.9 0.97147 0.02451 0.0
H360 H 0.91439 0.97222 0.94589 0.0
H361 H 0.91623 0.99295 0.00439 0.0
H362 H 0.92516 0.02209 0.92737 0.0
H363 H 0.95884 0.02422 0.87007 0.0
H364 H 0.56925 0.80375 0.10082 0.0
H365 H 0.5718 0.83488 0.04234 0.0
H366 H 0.50723 0.82867 0.01251 0.0
H367 H 0.50464 0.79769 0.0705 0.0
H368 H 0.55975 0.84289 0.9092 0.0
H369 H 0.51703 0.88387 0.10949 0.0
H370 H 0.52819 0.86083 0.12231 0.0
H371 H 0.50439 0.86083 0.08235 0.0
C372 C 0.5557 0.80896 0.08089 0.0
C373 C 0.5368 0.79824 0.08949 0.0
C374 C 0.55715 0.82671 0.04779 0.0
C375 C 0.53966 0.83416 0.02385 0.0
C376 C 0.52086 0.82329 0.03136 0.0
H377 H 0.51584 0.91851 0.74291 0.0
H378 H 0.52314 0.88947 0.80237 0.0
C379 C 0.51943 0.80554 0.06407 0.0
C380 C 0.54079 0.85342 0.99173 0.0
H381 H 0.52171 0.89908 0.00524 0.0
C382 C 0.55164 0.85527 0.93044 0.0
C383 C 0.5305 0.86966 0.02013 0.0
C384 C 0.51952 0.86884 0.08751 0.0
C385 C 0.55163 0.87265 0.89524 0.0
C386 C 0.54028 0.88845 0.92181 0.0
C387 C 0.53027 0.88692 0.98462 0.0
C388 C 0.53743 0.90614 0.88362 0.0
C389 C 0.56364 0.87388 0.82974 0.0
C390 C 0.54277 0.92523 0.9099 0.0
C391 C 0.53846 0.94191 0.87611 0.0
C392 C 0.52858 0.93972 0.81583 0.0
C393 C 0.52354 0.92063 0.78918 0.0
C394 C 0.52784 0.90401 0.82287 0.0
H395 H 0.57625 0.86372 0.82663 0.0
H396 H 0.5534 0.86947 0.7888 0.0
H397 H 0.57013 0.88915 0.82197 0.0
H398 H 0.55006 0.92722 0.95694 0.0
H399 H 0.54255 0.95648 0.89762 0.0
H400 H 0.68531 0.50683 0.15927 0.0
H401 H 0.65454 0.50665 0.09537 0.0
H402 H 0.6917 0.5062 0.91298 0.0
H403 H 0.72246 0.506 0.97688 0.0
H404 H 0.64325 0.53331 0.00741 0.0
H405 H 0.6506 0.45945 0.88135 0.0
H406 H 0.66531 0.46791 0.95152 0.0
H407 H 0.67269 0.47614 0.86988 0.0
C408 C 0.68684 0.50655 0.10553 0.0
C409 C 0.70614 0.50606 0.07272 0.0
C410 C 0.66931 0.50651 0.06913 0.0
C411 C 0.6708 0.50603 -0.00062 0.0
C412 C 0.69015 0.50607 0.96665 0.0
H413 H 0.57458 0.5327 0.74216 0.0
H414 H 0.60569 0.53331 0.8037 0.0
C415 C 0.70768 0.50605 0.00304 0.0
C416 C 0.65211 0.50575 0.96107 0.0
H417 H 0.62496 0.47874 0.84441 0.0
C418 C 0.63922 0.52138 0.97182 0.0
C419 C 0.64677 0.49003 0.91529 0.0
C420 C 0.65944 0.47233 0.90413 0.0
C421 C 0.62122 0.52182 0.93752 0.0
C422 C 0.61618 0.50638 0.89036 0.0
C423 C 0.62896 0.49065 0.88012 0.0
C424 C 0.59743 0.50599 0.85228 0.0
C425 C 0.60755 0.5386 0.95317 0.0
C426 C 0.58271 0.49015 0.85768 0.0
C427 C 0.56499 0.48966 0.82212 0.0
C428 C 0.56165 0.50498 0.7802 0.0
C429 C 0.57657 0.52072 0.77426 0.0
C430 C 0.59432 0.52116 0.80975 0.0
H431 H 0.61075 0.54622 0.00186 0.0
H432 H 0.61017 0.54962 0.91428 0.0
H433 H 0.59123 0.53322 0.95391 0.0
H434 H 0.58486 0.47824 0.88997 0.0
H435 H 0.55389 0.47727 0.82784 0.0
H436 H 0.94096 0.71754 0.90938 0.0
H437 H 0.94824 0.68448 0.86388 0.0
H438 H 0.97871 0.67356 0.04171 0.0
H439 H 0.97088 0.7064 0.08811 0.0
H440 H 0.98476 0.66907 0.83572 0.0
H441 H 0.94068 0.62466 0.02398 0.0
H442 H 0.93793 0.65076 0.01748 0.0
H443 H 0.95903 0.64234 0.05933 0.0
C444 C 0.94911 0.70801 0.93878 0.0
C445 C 0.95547 0.71448 0.00205 0.0
C446 C 0.95328 0.68917 0.91281 0.0
C447 C 0.96378 0.67645 0.94975 0.0
C448 C 0.97019 0.68294 0.01293 0.0
H449 H 0.01501 0.56337 0.84712 0.0
H450 H 0.0074 0.59577 0.89777 0.0
C451 C 0.96589 0.70172 0.03913 0.0
C452 C 0.9686 0.65668 0.9211 0.0
H453 H 0.96265 0.60725 0.94785 0.0
C454 C 0.97984 0.65556 0.86013 0.0
C455 C 0.96214 0.63905 0.953 0.0
C456 C 0.94911 0.63919 0.01673 0.0
C457 C 0.98497 0.63731 0.83056 0.0
C458 C 0.97869 0.61979 0.8628 0.0
C459 C 0.96752 0.62082 0.92372 0.0
C460 C 0.98314 0.6002 0.83277 0.0
C461 C 0.99714 0.63678 0.7652 0.0
C462 C 0.97186 0.59203 0.77997 0.0
C463 C 0.97605 0.57354 0.75114 0.0
C464 C 0.99171 0.56293 0.77446 0.0
C465 C 0.00294 0.57118 0.8277 0.0
C466 C 0.9986 0.58965 0.85683 0.0
H467 H 0.00299 0.65176 0.75063 0.0
H468 H 0.01023 0.62737 0.76803 0.0
H469 H 0.98736 0.63012 0.72569 0.0
H470 H 0.9598 0.59999 0.76109 0.0
H471 H 0.96708 0.56765 0.7103 0.0
H472 H 0.05004 0.1795 0.32218 0.0
H473 H 0.04262 0.15087 0.38825 0.0
H474 H 0.00398 0.18467 0.52351 0.0
H475 H 0.0098 0.21312 0.45296 0.0
H476 H 0.04889 0.1418 0.50371 0.0
H477 H 0.96483 0.13943 0.48496 0.0
H478 H 0.98179 0.15635 0.4393 0.0
H479 H 0.97538 0.16153 0.52595 0.0
C480 C 0.03967 0.18085 0.36536 0.0
C481 C 0.02995 0.19845 0.38085 0.0
C482 C 0.03563 0.16447 0.40377 0.0
C483 C 0.02223 0.16533 0.46002 0.0
C484 C 0.01376 0.18336 0.47896 0.0
H485 H 0.02141 0.05766 0.68148 0.0
H486 H 0.02446 0.09234 0.65571 0.0
C487 C 0.0174 0.19975 0.43925 0.0
C488 C 0.01717 0.14701 0.49671 0.0
H489 H 0.97786 0.1146 0.54486 0.0
C490 C 0.03333 0.13589 0.51279 0.0
C491 C 0.99686 0.13915 0.50803 0.0
C492 C 0.97872 0.14962 0.48815 0.0
C493 C 0.02991 0.1168 0.53621 0.0
C494 C 0.0096 0.10906 0.54879 0.0
C495 C 0.99339 0.12053 0.53555 0.0
C496 C 0.00492 0.08873 0.57213 0.0
C497 C 0.0482 0.10482 0.54286 0.0
C498 C 0.99143 0.07537 0.53787 0.0
C499 C 0.98853 0.05568 0.55591 0.0
C500 C 0.99944 0.04897 0.60743 0.0
C501 C 0.01243 0.06247 0.64269 0.0
C502 C 0.0146 0.08226 0.62675 0.0
H503 H 0.06146 0.11031 0.51107 0.0
H504 H 0.05287 0.10612 0.59505 0.0
H505 H 0.04478 0.08898 0.52885 0.0
H506 H 0.98365 0.07999 0.49574 0.0
H507 H 0.97848 0.04555 0.52774 0.0
H508 H 0.32501 0.99158 0.33867 0.0
H509 H 0.3507 0.98887 0.42001 0.0
H510 H 0.33494 0.04461 0.51423 0.0
H511 H 0.30921 0.04748 0.43125 0.0
H512 H 0.37548 0.04396 0.48265 0.0
H513 H 0.35048 0.97641 0.61268 0.0
H514 H 0.35007 0.97158 0.52465 0.0
H515 H 0.33344 0.98911 0.56458 0.0
C516 C 0.32659 0.00293 0.37806 0.0
C517 C 0.31515 0.01967 0.37921 0.0
C518 C 0.34121 0.00135 0.42469 0.0
C519 C 0.34459 0.01642 0.47373 0.0
C520 C 0.33244 0.03275 0.47707 0.0
H521 H 0.44219 0.99077 0.72686 0.0
H522 H 0.40963 0.00091 0.69221 0.0
C523 C 0.31769 0.03432 0.4302 0.0
C524 C 0.36242 0.01591 0.51548 0.0
H525 H 0.3871 0.98432 0.60451 0.0
C526 C 0.37788 0.03114 0.51069 0.0
C527 C 0.36543 0.99939 0.55295 0.0
C528 C 0.34884 0.98333 0.5646 0.0
C529 C 0.3968 0.02962 0.53863 0.0
C530 C 0.40049 0.01215 0.57044 0.0
C531 C 0.38451 0.99757 0.57903 0.0
C532 C 0.42087 0.00818 0.59316 0.0
C533 C 0.41264 0.04666 0.53314 0.0
C534 C 0.43816 0.00896 0.54909 0.0
C535 C 0.45692 0.0034 0.56917 0.0
C536 C 0.45851 0.99654 0.63298 0.0
C537 C 0.44131 0.99587 0.67708 0.0
C538 C 0.42272 0.00175 0.6575 0.0
H539 H 0.40538 0.0609 0.53045 0.0
H540 H 0.4227 0.04775 0.57592 0.0
H541 H 0.4222 0.04453 0.48677 0.0
H542 H 0.43702 0.01326 0.4985 0.0
H543 H 0.46998 0.00382 0.53423 0.0
H544 H 0.51275 0.29894 0.40095 0.0
H545 H 0.52619 0.32539 0.47721 0.0
H546 H 0.47076 0.3554 0.46605 0.0
H547 H 0.45735 0.32902 0.39088 0.0
H548 H 0.53332 0.36213 0.43273 0.0
H549 H 0.48297 0.36646 0.65884 0.0
H550 H 0.48321 0.34454 0.60436 0.0
H551 H 0.46811 0.36468 0.58651 0.0
C552 C 0.50313 0.31074 0.41741 0.0
C553 C 0.48404 0.312 0.39038 0.0
C554 C 0.51085 0.3259 0.46052 0.0
C555 C 0.49945 0.34234 0.4777 0.0
C556 C 0.47969 0.34272 0.45481 0.0
H557 H 0.52351 0.4645 0.4839 0.0
H558 H 0.52132 0.42874 0.45921 0.0
C559 C 0.47205 0.32767 0.41161 0.0
C560 C 0.50916 0.36059 0.50897 0.0
H561 H 0.49957 0.39779 0.62365 0.0
C562 C 0.52626 0.36971 0.47561 0.0
C563 C 0.50018 0.37042 0.56537 0.0
C564 C 0.48274 0.36088 0.60618 0.0
C565 C 0.53356 0.389 0.49383 0.0
C566 C 0.52327 0.39955 0.54599 0.0
C567 C 0.50726 0.38985 0.58286 0.0
C568 C 0.52748 0.42109 0.55899 0.0
C569 C 0.55186 0.39807 0.4557 0.0
C570 C 0.53174 0.4287 0.6231 0.0
C571 C 0.53297 0.44912 0.63702 0.0
C572 C 0.52976 0.46215 0.58728 0.0
C573 C 0.52634 0.45465 0.52263 0.0
C574 C 0.52513 0.43425 0.50862 0.0
H575 H 0.56199 0.38655 0.43535 0.0
H576 H 0.54663 0.40584 0.41314 0.0
H577 H 0.56083 0.4089 0.48742 0.0
H578 H 0.5335 0.41884 0.66276 0.0
H579 H 0.5357 0.45465 0.68721 0.0
H580 H 0.2016 0.46984 0.37837 0.0
H581 H 0.17046 0.47461 0.44765 0.0
H582 H 0.17879 0.53753 0.4253 0.0
H583 H 0.21014 0.53277 0.35689 0.0
H584 H 0.15959 0.52515 0.55377 0.0
H585 H 0.12395 0.4899 0.32978 0.0
H586 H 0.14211 0.47554 0.36615 0.0
H587 H 0.15048 0.4985 0.32976 0.0
C588 C 0.19729 0.48473 0.39121 0.0
C589 C 0.20821 0.50098 0.36318 0.0
C590 C 0.17946 0.48743 0.43014 0.0
C591 C 0.17221 0.50638 0.44047 0.0
C592 C 0.18418 0.52281 0.41787 0.0
H593 H 0.04406 0.53014 0.47873 0.0
H594 H 0.08043 0.52971 0.44518 0.0
C595 C 0.20211 0.52011 0.37923 0.0
C596 C 0.15089 0.50869 0.46472 0.0
H597 H 0.10184 0.49784 0.42126 0.0
C598 C 0.14692 0.51919 0.52506 0.0
C599 C 0.13446 0.50128 0.42614 0.0
C600 C 0.13786 0.49082 0.35906 0.0
C601 C 0.12681 0.52212 0.54857 0.0
C602 C 0.11037 0.51414 0.51089 0.0
C603 C 0.11444 0.50391 0.45012 0.0
C604 C 0.08876 0.51587 0.53359 0.0
C605 C 0.1234 0.53402 0.61283 0.0
C606 C 0.08135 0.50804 0.59383 0.0
C607 C 0.0607 0.50842 0.61291 0.0
C608 C 0.04707 0.51651 0.57219 0.0
C609 C 0.05437 0.52406 0.51142 0.0
C610 C 0.07509 0.52384 0.49239 0.0
H611 H 0.13704 0.54385 0.62477 0.0
H612 H 0.11012 0.54321 0.61072 0.0
H613 H 0.12034 0.52381 0.65399 0.0
H614 H 0.09139 0.50106 0.62513 0.0
H615 H 0.05529 0.50147 0.6578 0.0
H616 H 0.01318 0.82387 0.03524 0.0
H617 H 0.02325 0.85114 0.9641 0.0
H618 H 0.9819 0.82671 0.81762 0.0
H619 H 0.97111 0.79957 0.89071 0.0
H620 H 0.03849 0.8577 0.83973 0.0
H621 H 0.95803 0.87885 0.87083 0.0
H622 H 0.96723 0.85922 0.9158 0.0
H623 H 0.96199 0.85531 0.82939 0.0
C624 C 0.00651 0.82411 0.98729 0.0
C625 C 0.99105 0.80993 0.96898 0.0
C626 C 0.01235 0.83965 0.94648 0.0
C627 C 0.00293 0.84126 0.88634 0.0
C628 C 0.98898 0.82599 0.86465 0.0
H629 H 0.03722 0.95345 0.69051 0.0
H630 H 0.03291 0.91776 0.70707 0.0
C631 C 0.98298 0.81041 0.90598 0.0
C632 C 0.00607 0.86016 0.85219 0.0
H633 H 0.98194 0.90183 0.82518 0.0
C634 C 0.02611 0.86727 0.83533 0.0
C635 C 0.98987 0.87267 0.84728 0.0
C636 C 0.96808 0.86627 0.86713 0.0
C637 C 0.03054 0.88689 0.81746 0.0
C638 C 0.01439 0.89955 0.81486 0.0
C639 C 0.99426 0.89208 0.82768 0.0
C640 C 0.01799 0.921 0.80479 0.0
C641 C 0.05251 0.89421 0.80561 0.0
C642 C 0.01091 0.93464 0.8539 0.0
C643 C 0.01299 0.95489 0.84383 0.0
C644 C 0.02221 0.96176 0.7846 0.0
C645 C 0.0299 0.94829 0.73633 0.0
C646 C 0.02762 0.92798 0.74602 0.0
H647 H 0.06321 0.88388 0.82365 0.0
H648 H 0.05581 0.89563 0.75152 0.0
H649 H 0.05554 0.90896 0.83067 0.0
H650 H 0.00346 0.92957 0.89968 0.0
H651 H 0.00691 0.96513 0.88144 0.0
H652 H 0.70037 0.94862 0.9265 0.0
H653 H 0.67496 0.95455 0.84538 0.0
H654 H 0.67004 0.01368 0.93105 0.0
H655 H 0.69568 0.00791 0.00983 0.0
H656 H 0.63666 0.96101 0.87683 0.0
H657 H 0.66913 0.02466 0.73951 0.0
H658 H 0.68458 0.01049 0.78849 0.0
H659 H 0.67062 0.0304 0.82675 0.0
C660 C 0.69441 0.9631 0.92567 0.0
C661 C 0.70011 0.97798 0.97302 0.0
C662 C 0.67983 0.96644 0.87994 0.0
C663 C 0.6708 0.98468 0.88137 0.0
C664 C 0.6772 0.99974 0.92733 0.0
H665 H 0.54799 0.01096 0.83361 0.0
H666 H 0.58005 0.99863 0.86602 0.0
C667 C 0.6918 0.99644 0.97248 0.0
C668 C 0.65293 0.9874 0.84155 0.0
H669 H 0.63197 0.02177 0.75312 0.0
C670 C 0.63577 0.97407 0.84842 0.0
C671 C 0.65181 0.00417 0.80329 0.0
C672 C 0.67014 0.01808 0.78852 0.0
C673 C 0.61714 0.97779 0.82199 0.0
C674 C 0.61548 0.99566 0.78989 0.0
C675 C 0.63303 0.00827 0.77902 0.0
C676 C 0.59567 0.0021 0.7696 0.0
C677 C 0.59947 0.96257 0.82929 0.0
C678 C 0.59395 0.00883 0.70555 0.0
C679 C 0.57593 0.01651 0.688 0.0
C680 C 0.55916 0.01725 0.73373 0.0
C681 C 0.5607 0.01032 0.79745 0.0
C682 C 0.57892 0.00307 0.8156 0.0
H683 H 0.60492 0.94746 0.83101 0.0
H684 H 0.59075 0.96567 0.87675 0.0
H685 H 0.58902 0.96275 0.78784 0.0
H686 H 0.60662 0.00831 0.66923 0.0
H687 H 0.57506 0.02164 0.63827 0.0
H688 H 0.49954 0.6894 0.07343 0.0
H689 H 0.49334 0.6606 0.99851 0.0
H690 H 0.54463 0.68023 0.87131 0.0
H691 H 0.55135 0.7089 0.94811 0.0
H692 H 0.48639 0.65175 0.869 0.0
H693 H 0.56227 0.62814 0.93178 0.0
H694 H 0.55093 0.6491 0.97341 0.0
H695 H 0.56251 0.65113 0.8912 0.0
C696 C 0.50921 0.68781 0.02865 0.0
C697 C 0.52613 0.70114 0.01704 0.0
C698 C 0.50564 0.67137 0.98579 0.0
C699 C 0.51887 0.66797 0.93033 0.0
C700 C 0.53455 0.68233 0.91481 0.0
H701 H 0.49361 0.55717 0.69411 0.0
H702 H 0.49951 0.59232 0.72462 0.0
C703 C 0.53822 0.69882 0.95814 0.0
C704 C 0.51731 0.64839 0.89424 0.0
H705 H 0.54177 0.60562 0.86903 0.0
C706 C 0.49858 0.64172 0.8681 0.0
C707 C 0.53315 0.63523 0.89422 0.0
C708 C 0.5533 0.64112 0.92456 0.0
C709 C 0.49497 0.62209 0.84416 0.0
C710 C 0.51075 0.6089 0.84483 0.0
C711 C 0.52972 0.61577 0.86861 0.0
C712 C 0.50757 0.58761 0.82511 0.0
C713 C 0.47398 0.61542 0.82171 0.0
C714 C 0.51074 0.57322 0.87072 0.0
C715 C 0.5079 0.55311 0.85275 0.0
C716 C 0.50186 0.54707 0.78887 0.0
C717 C 0.49854 0.56145 0.74344 0.0
C718 C 0.50164 0.58154 0.76109 0.0
H719 H 0.46239 0.62583 0.83999 0.0
H720 H 0.47422 0.6147 0.76663 0.0
H721 H 0.46916 0.6005 0.83929 0.0
H722 H 0.51534 0.57757 0.9204 0.0
H723 H 0.51053 0.5423 0.88867 0.0
H724 H 0.78929 0.49767 0.96635 0.0
H725 H 0.81779 0.48926 0.8892 0.0
H726 H 0.84788 0.54653 0.93157 0.0
H727 H 0.81948 0.55499 0.00825 0.0
H728 H 0.85437 0.52916 0.79292 0.0
H729 H 0.86935 0.48068 0.99837 0.0
H730 H 0.84488 0.47741 0.96202 0.0
H731 H 0.85153 0.49979 0.00919 0.0
C732 C 0.80158 0.50874 0.95686 0.0
C733 C 0.80238 0.52688 0.99354 0.0
C734 C 0.81786 0.50389 0.91314 0.0
C735 C 0.83501 0.51719 0.90561 0.0
C736 C 0.83477 0.53609 0.93678 0.0
H737 H 0.96238 0.51919 0.87495 0.0
H738 H 0.92571 0.522 0.89751 0.0
C739 C 0.81859 0.54089 0.98061 0.0
C740 C 0.85452 0.51049 0.87613 0.0
H741 H 0.89499 0.48497 0.91492 0.0
C742 C 0.86311 0.51915 0.81856 0.0
C743 C 0.86594 0.49763 0.9105 0.0
C744 C 0.85762 0.48836 0.97367 0.0
C745 C 0.88315 0.51571 0.79561 0.0
C746 C 0.89475 0.50351 0.83165 0.0
C747 C 0.88591 0.49427 0.88758 0.0
C748 C 0.91672 0.50177 0.81646 0.0
C749 C 0.89223 0.52581 0.73504 0.0
C750 C 0.92363 0.48919 0.76421 0.0
C751 C 0.94455 0.48738 0.75185 0.0
C752 C 0.95872 0.49831 0.79108 0.0
C753 C 0.95172 0.51063 0.84401 0.0
C754 C 0.93086 0.51234 0.85662 0.0
H755 H 0.8813 0.53512 0.71306 0.0
H756 H 0.90601 0.53521 0.74833 0.0
H757 H 0.8971 0.51452 0.69691 0.0
H758 H 0.91287 0.4807 0.73347 0.0
H759 H 0.94964 0.47734 0.71203 0.0
H760 H 0.07022 0.21758 0.1469 0.0
H761 H 0.07319 0.19344 0.05318 0.0
H762 H 0.00777 0.18904 0.04171 0.0
H763 H 0.00486 0.2131 0.13539 0.0
H764 H 0.05348 0.15661 0.08427 0.0
H765 H 0.02823 0.18108 0.84517 0.0
H766 H 0.03789 0.19818 0.90943 0.0
H767 H 0.0121 0.18772 0.91619 0.0
C768 C 0.05663 0.21235 0.12155 0.0
C769 C 0.03734 0.21727 0.14737 0.0
C770 C 0.05831 0.19847 0.06843 0.0
C771 C 0.04071 0.1895 0.04044 0.0
C772 C 0.02156 0.19606 0.06168 0.0
H773 H 0.99649 0.08138 0.85188 0.0
H774 H 0.00291 0.11475 0.90089 0.0
C775 C 0.01989 0.20985 0.11503 0.0
C776 C 0.0418 0.17051 0.00165 0.0
H777 H 0.02717 0.14608 0.85844 0.0
C778 C 0.04814 0.15434 0.03428 0.0
C779 C 0.03451 0.16762 0.93709 0.0
C780 C 0.02794 0.1846 0.89956 0.0
C781 C 0.04644 0.13514 0.00547 0.0
C782 C 0.03874 0.13212 0.94131 0.0
C783 C 0.03307 0.14842 0.90763 0.0
C784 C 0.03522 0.11203 0.91024 0.0
C785 C 0.05181 0.11819 0.04574 0.0
C786 C 0.05127 0.09943 0.89906 0.0
C787 C 0.04754 0.08022 0.87227 0.0
C788 C 0.02778 0.07348 0.85518 0.0
C789 C 0.01183 0.08619 0.86524 0.0
C790 C 0.01551 0.10528 0.89272 0.0
H791 H 0.05244 0.12249 0.09948 0.0
H792 H 0.04057 0.10536 0.03983 0.0
H793 H 0.06705 0.11343 0.0283 0.0
H794 H 0.06668 0.10447 0.91082 0.0
H795 H 0.06015 0.07078 0.86392 0.0
H796 H 0.32413 0.99617 0.14437 0.0
H797 H 0.3518 0.99845 0.05918 0.0
H798 H 0.33953 0.05908 0.03125 0.0
H799 H 0.31184 0.05685 0.1178 0.0
H800 H 0.35689 0.00884 0.92655 0.0
H801 H 0.39774 0.06293 0.09787 0.0
H802 H 0.37478 0.04879 0.1238 0.0
H803 H 0.37338 0.06954 0.07263 0.0
C804 C 0.32693 0.00976 0.11841 0.0
C805 C 0.31598 0.02634 0.13735 0.0
C806 C 0.34276 0.01109 0.07 0.0
C807 C 0.34799 0.02905 0.04002 0.0
C808 C 0.33593 0.04518 0.05475 0.0
H809 H 0.4577 0.05065 0.78216 0.0
H810 H 0.42509 0.05485 0.84319 0.0
C811 C 0.32 0.04385 0.10339 0.0
C812 C 0.36726 0.0311 -0.001 0.0
H813 H 0.4159 0.05217 0.0011 0.0
C814 C 0.3697 0.0185 0.94233 0.0
C815 C 0.38403 0.04361 0.02017 0.0
C816 C 0.38253 0.05691 0.08217 0.0
C817 C 0.3886 0.01776 0.90713 0.0
C818 C 0.40542 0.02981 0.92949 0.0
C819 C 0.40288 0.04293 0.98455 0.0
C820 C 0.42596 0.02829 0.89752 0.0
C821 C 0.39064 0.00392 0.84675 0.0
C822 C 0.43744 0.01228 0.90972 0.0
C823 C 0.45618 0.00988 0.87547 0.0
C824 C 0.46363 0.02343 0.8281 0.0
C825 C 0.45242 0.03993 0.81826 0.0
C826 C 0.43376 0.04236 0.8529 0.0
H827 H 0.37563 0.9974 0.83086 0.0
H828 H 0.39841 0.01192 0.80493 0.0
H829 H 0.4002 0.99173 0.85796 0.0
H830 H 0.43161 0.00133 0.94439 0.0
H831 H 0.46431 0.99694 0.88392 0.0
H832 H 0.49954 0.32935 0.17366 0.0
H833 H 0.49687 0.35085 0.0821 0.0
H834 H 0.44501 0.31453 0.01429 0.0
H835 H 0.44706 0.29328 0.1089 0.0
H836 H 0.49918 0.34549 0.95118 0.0
H837 H 0.42183 0.3683 0.03272 0.0
H838 H 0.4366 0.35414 0.08377 0.0
H839 H 0.42391 0.34234 0.01421 0.0
C840 C 0.48749 0.32593 0.13948 0.0
C841 C 0.47321 0.30988 0.14937 0.0
C842 C 0.48607 0.33817 0.08675 0.0
C843 C 0.47047 0.3346 0.04201 0.0
C844 C 0.45686 0.31788 0.04919 0.0
H845 H 0.48476 0.41785 0.71851 0.0
H846 H 0.47852 0.38642 0.77305 0.0
C847 C 0.45819 0.30561 0.10268 0.0
C848 C 0.46852 0.34903 0.98992 0.0
H849 H 0.4383 0.38444 0.94291 0.0
C850 C 0.48577 0.35386 0.94868 0.0
C851 C 0.45107 0.36004 0.98722 0.0
C852 C 0.43233 0.35612 0.03208 0.0
C853 C 0.48655 0.37004 0.90772 0.0
C854 C 0.4692 0.38128 0.90569 0.0
C855 C 0.45155 0.37581 0.94435 0.0
C856 C 0.46978 0.39982 0.869 0.0
C857 C 0.50646 0.37564 0.87065 0.0
C858 C 0.46548 0.41773 0.90326 0.0
C859 C 0.46839 0.43563 0.87147 0.0
C860 C 0.47592 0.43592 0.80524 0.0
C861 C 0.47918 0.41797 0.76994 0.0
C862 C 0.47579 0.40004 0.80122 0.0
H863 H 0.51949 0.36869 0.89098 0.0
H864 H 0.50551 0.37051 0.81778 0.0
H865 H 0.50977 0.39191 0.87286 0.0
H866 H 0.46071 0.41796 0.95546 0.0
H867 H 0.46577 0.44929 0.89968 0.0
H868 H 0.19984 0.45862 0.15076 0.0
H869 H 0.17396 0.45706 0.06742 0.0
H870 H 0.19751 0.51378 -0.00054 0.0
H871 H 0.22371 0.51513 0.08218 0.0
H872 H 0.1462 0.48568 0.08035 0.0
H873 H 0.18215 0.48405 0.82544 0.0
H874 H 0.19507 0.47691 0.89663 0.0
H875 H 0.19329 0.5026 0.88157 0.0
C876 C 0.20004 0.47029 0.11586 0.0
C877 C 0.21377 0.48692 0.12224 0.0
C878 C 0.18521 0.46946 0.06861 0.0
C879 C 0.1838 0.48528 0.02716 0.0
C880 C 0.19854 0.50123 0.03 0.0
H881 H 0.08674 0.52584 0.80346 0.0
H882 H 0.11884 0.52154 0.85609 0.0
C883 C 0.21352 0.502 0.07714 0.0
C884 C 0.16509 0.48661 0.99006 0.0
H885 H 0.14724 0.49177 0.8362 0.0
C886 C 0.14641 0.48679 0.02684 0.0
C887 C 0.16546 0.48836 0.92048 0.0
C888 C 0.18504 0.48782 0.8785 0.0
C889 C 0.1281 0.48892 0.99619 0.0
C890 C 0.12839 0.49054 0.92656 0.0
C891 C 0.14707 0.49042 0.88958 0.0
C892 C 0.10941 0.49263 0.89176 0.0
C893 C 0.10866 0.48996 0.03897 0.0
C894 C 0.09361 0.47769 0.89359 0.0
C895 C 0.07525 0.48017 0.86405 0.0
C896 C 0.07245 0.4976 0.83187 0.0
C897 C 0.08845 0.51235 0.82861 0.0
C898 C 0.10681 0.50986 0.85824 0.0
H899 H 0.11177 0.49352 0.09199 0.0
H900 H 0.09896 0.50127 0.02162 0.0
H901 H 0.09993 0.47542 0.03591 0.0
H902 H 0.09545 0.46414 0.91825 0.0
H903 H 0.06324 0.46849 0.86658 0.0
H904 H 0.98208 0.78652 0.2531 0.0
H905 H 0.98193 0.80917 0.35172 0.0
H906 H 0.94284 0.84651 0.25582 0.0
H907 H 0.94263 0.82378 0.15856 0.0
H908 H 0.99889 0.84584 0.33868 0.0
H909 H 0.92042 0.85181 0.44411 0.0
H910 H 0.92757 0.83124 0.38966 0.0
H911 H 0.92138 0.85408 0.35587 0.0
C912 C 0.97271 0.79908 0.25461 0.0
C913 C 0.96243 0.80351 0.19844 0.0
C914 C 0.97272 0.81207 0.31067 0.0
C915 C 0.9623 0.82951 0.31134 0.0
C916 C 0.95063 0.83299 0.25727 0.0
H917 H 0.97289 0.94899 0.46084 0.0
H918 H 0.96467 0.91676 0.40451 0.0
C919 C 0.95062 0.82006 0.20146 0.0
C920 C 0.96654 0.84574 0.36158 0.0
H921 H 0.94367 0.88085 0.46087 0.0
C922 C 0.98685 0.85321 0.3667 0.0
C923 C 0.95082 0.85546 0.3976 0.0
C924 C 0.92886 0.84758 0.39703 0.0
C925 C 0.99176 0.87071 0.40386 0.0
C926 C 0.97595 0.88089 0.43736 0.0
C927 C 0.95572 0.87306 0.43456 0.0
C928 C 0.98016 0.90012 0.47322 0.0
C929 C 0.01371 0.87872 0.40435 0.0
C930 C 0.99142 0.90131 0.53058 0.0
C931 C 0.99616 0.91962 0.56252 0.0
C932 C 0.98967 0.93702 0.53762 0.0
C933 C 0.97816 0.9358 0.48069 0.0
C934 C 0.97339 0.91744 0.44881 0.0
H935 H 0.02354 0.87096 0.36652 0.0
H936 H 0.01492 0.89475 0.39502 0.0
H937 H 0.01969 0.87683 0.45395 0.0
H938 H 0.99661 0.88807 0.55045 0.0
H939 H 0.00493 0.92016 0.60668 0.0
H940 H 0.68161 0.93915 0.18297 0.0
H941 H 0.65355 0.9416 0.26687 0.0
H942 H 0.67939 0.99852 0.33591 0.0
H943 H 0.70781 0.99582 0.25301 0.0
H944 H 0.65998 0.97641 0.43838 0.0
H945 H 0.61098 0.97986 0.22371 0.0
H946 H 0.62455 0.95776 0.22304 0.0
H947 H 0.63844 0.98131 0.21494 0.0
C948 C 0.68166 0.9518 0.21784 0.0
C949 C 0.69677 0.9673 0.21187 0.0
C950 C 0.66556 0.9533 0.26516 0.0
C951 C 0.66413 0.97049 0.30623 0.0
C952 C 0.68017 0.98519 0.30432 0.0
H953 H 0.55192 0.01622 0.47745 0.0
H954 H 0.58325 0.01024 0.41102 0.0
C955 C 0.69644 0.98359 0.25738 0.0
C956 C 0.645 0.97402 0.34567 0.0
H957 H 0.59416 0.97893 0.33013 0.0
C958 C 0.64557 0.97695 0.41487 0.0
C959 C 0.62633 0.97522 0.31455 0.0
C960 C 0.62499 0.97358 0.23994 0.0
C961 C 0.62783 0.98061 0.454 0.0
C962 C 0.60901 0.98096 0.42304 0.0
C963 C 0.60856 0.97842 0.35376 0.0
C964 C 0.58962 0.98408 0.46152 0.0
C965 C 0.62947 0.9845 0.52791 0.0
C966 C 0.58247 0.97097 0.51028 0.0
C967 C 0.5646 0.97431 0.54818 0.0
C968 C 0.55339 0.99074 0.53759 0.0
C969 C 0.56011 0.00337 0.48668 0.0
C970 C 0.57808 1.00005 0.44894 0.0
H971 H 0.64534 0.98915 0.54089 0.0
H972 H 0.61929 0.99613 0.54691 0.0
H973 H 0.62484 0.97074 0.5538 0.0
H974 H 0.59083 0.95823 0.51952 0.0
H975 H 0.55983 0.9642 0.58671 0.0
H976 H 0.51163 0.70161 0.26116 0.0
H977 H 0.51458 0.67839 0.34808 0.0
H978 H 0.57974 0.69118 0.34295 0.0
H979 H 0.57675 0.71435 0.25438 0.0
H980 H 0.57018 0.65254 0.32351 0.0
H981 H 0.52458 0.67894 0.54249 0.0
H982 H 0.51007 0.67894 0.4697 0.0
H983 H 0.533 0.69487 0.47598 0.0
C984 C 0.52648 0.70002 0.28047 0.0
C985 C 0.54396 0.70978 0.25162 0.0
C986 C 0.52817 0.6868 0.33037 0.0
C987 C 0.54736 0.68316 0.35272 0.0
C988 C 0.56476 0.69388 0.32685 0.0
H989 H 0.54364 0.58774 0.63367 0.0
H990 H 0.5516 0.61988 0.58499 0.0
C991 C 0.56306 0.70721 0.27675 0.0
C992 C 0.54924 0.66606 0.39477 0.0
H993 H 0.52683 0.6432 0.52926 0.0
C994 C 0.56107 0.65069 0.36937 0.0
C995 C 0.53759 0.66366 0.45504 0.0
C996 C 0.52579 0.68011 0.48766 0.0
C997 C 0.56046 0.63254 0.40011 0.0
C998 C 0.54731 0.62951 0.45687 0.0
C999 C 0.5366 0.64534 0.48494 0.0
C1000 C 0.54358 0.6098 0.4857 0.0
C1001 C 0.5737 0.61669 0.37072 0.0
C1002 C 0.53627 0.59346 0.44624 0.0
C1003 C 0.53187 0.57507 0.47382 0.0
C1004 C 0.53444 0.57277 0.54155 0.0
C1005 C 0.54165 0.5891 0.58114 0.0
C1006 C 0.54617 0.60747 0.55346 0.0
H1007 H 0.58746 0.62323 0.34371 0.0
H1008 H 0.57863 0.60726 0.40962 0.0
H1009 H 0.56494 0.60718 0.33447 0.0
H1010 H 0.53359 0.59502 0.39429 0.0
H1011 H 0.52614 0.56276 0.44241 0.0
H1012 H 0.78098 0.50901 0.27956 0.0
H1013 H 0.80419 0.50707 0.37017 0.0
H1014 H 0.83965 0.55835 0.30044 0.0
H1015 H 0.81636 0.56055 0.21114 0.0
H1016 H 0.84401 0.50013 0.34197 0.0
H1017 H 0.84022 0.56885 0.4993 0.0
H1018 H 0.82052 0.56055 0.44329 0.0
H1019 H 0.84342 0.57383 0.41279 0.0
C1020 C 0.79325 0.52032 0.28534 0.0
C1021 C 0.79693 0.5349 0.23834 0.0
C1022 C 0.80657 0.51913 0.33678 0.0
C1023 C 0.8236 0.53264 0.3424 0.0
C1024 C 0.82643 0.548 0.29809 0.0
H1025 H 0.94339 0.54166 0.48849 0.0
H1026 H 0.91066 0.5457 0.43938 0.0
C1027 C 0.81319 0.54917 0.24673 0.0
C1028 C 0.84003 0.52909 0.3873 0.0
H1029 H 0.87138 0.55193 0.50141 0.0
C1030 C 0.84973 0.51128 0.3779 0.0
C1031 C 0.84759 0.54371 0.43373 0.0
C1032 C 0.83725 0.56272 0.44837 0.0
C1033 C 0.86739 0.50811 0.41105 0.0
C1034 C 0.87537 0.52303 0.45564 0.0
C1035 C 0.86528 0.54056 0.46691 0.0
C1036 C 0.89477 0.52108 0.48828 0.0
C1037 C 0.87792 0.48922 0.39554 0.0
C1038 C 0.89658 0.50607 0.53267 0.0
C1039 C 0.91527 0.50365 0.56027 0.0
C1040 C 0.93239 0.51632 0.54433 0.0
C1041 C 0.93045 0.53163 0.5012 0.0
C1042 C 0.91177 0.534 0.47343 0.0
H1043 H 0.87225 0.48117 0.35018 0.0
H1044 H 0.89466 0.49231 0.38853 0.0
H1045 H 0.87508 0.47936 0.43775 0.0
H1046 H 0.88357 0.49616 0.54568 0.0
H1047 H 0.91632 0.49188 0.59409 0.0
loop_
_geom_bond_atom_site_label_1
_geom_bond_atom_site_label_2
_geom_bond_distance
_geom_bond_site_symmetry_2
_ccdc_geom_bond_type
H0 C7 0.929 . S
H1 C10 0.930 1_556 S
H2 C12 0.929 . S
H3 C4 0.969 . S
C4 H3 0.969 . S
C4 O5 1.550 . S
C4 H6 0.973 1_554 S
O5 C4 1.550 . S
O5 C11 1.412 . S
H6 C4 0.973 1_556 S
C7 H0 0.929 . S
C7 C8 1.400 . S
C7 C9 1.364 . S
C8 C7 1.400 . S
C8 C12 1.377 . S
C9 C7 1.364 . S
C9 C10 1.374 . S
C10 H1 0.930 1_554 S
C10 C9 1.374 . S
C10 C11 1.383 . S
C11 O5 1.412 . S
C11 C10 1.383 . S
C11 C12 1.394 . S
C12 H2 0.929 . S
C12 C8 1.377 . S
C12 C11 1.394 . S
H13 C20 0.929 . S
H14 C23 0.930 . S
H15 C25 0.929 . S
H16 C17 0.969 . S
C17 H16 0.969 . S
C17 O18 1.550 1_556 S
C17 H19 0.973 . S
O18 C17 1.550 1_554 S
O18 C24 1.412 . S
H19 C17 0.973 . S
C20 H13 0.929 . S
C20 C21 1.400 . S
C20 C22 1.364 1_554 S
C21 C20 1.400 . S
C21 C25 1.377 . S
C22 C20 1.364 1_556 S
C22 C23 1.374 . S
C23 H14 0.930 . S
C23 C22 1.374 . S
C23 C24 1.383 1_556 S
C24 O18 1.412 . S
C24 C23 1.383 1_554 S
C24 C25 1.394 . S
C25 H15 0.929 . S
C25 C21 1.377 . S
C25 C24 1.394 . S
H26 C33 0.929 . S
H27 C36 0.930 1_556 S
H28 C38 0.929 . S
H29 C30 0.969 1_556 S
C30 H29 0.969 1_554 S
C30 O31 1.550 . S
C30 H32 0.973 1_554 S
O31 C30 1.550 . S
O31 C37 1.412 . S
H32 C30 0.973 1_556 S
C33 H26 0.929 . S
C33 C34 1.400 . S
C33 C35 1.364 . S
C34 C33 1.400 . S
C34 C38 1.377 . S
C35 C33 1.364 . S
C35 C36 1.374 . S
C36 H27 0.930 1_554 S
C36 C35 1.374 . S
C36 C37 1.383 . S
C37 O31 1.412 . S
C37 C36 1.383 . S
C37 C38 1.394 . S
C38 H28 0.929 . S
C38 C34 1.377 . S
C38 C37 1.394 . S
H39 C46 0.929 . S
H40 C49 0.930 1_556 S
H41 C51 0.929 . S
H42 C43 0.969 . S
C43 H42 0.969 . S
C43 O44 1.550 . S
C43 H45 0.973 1_554 S
O44 C43 1.550 . S
O44 C50 1.412 . S
H45 C43 0.973 1_556 S
C46 H39 0.929 . S
C46 C47 1.400 . S
C46 C48 1.364 . S
C47 C46 1.400 . S
C47 C51 1.377 . S
C48 C46 1.364 . S
C48 C49 1.374 . S
C49 H40 0.930 1_554 S
C49 C48 1.374 . S
C49 C50 1.383 . S
C50 O44 1.412 . S
C50 C49 1.383 . S
C50 C51 1.394 . S
C51 H41 0.929 . S
C51 C47 1.377 . S
C51 C50 1.394 . S
H52 C59 0.929 . S
H53 C62 0.930 . S
H54 C64 0.929 . S
H55 C56 0.969 . S
C56 H55 0.969 . S
C56 O57 1.550 . S
C56 H58 0.973 . S
O57 C56 1.550 . S
O57 C63 1.412 . S
H58 C56 0.973 . S
C59 H52 0.929 . S
C59 C60 1.400 . S
C59 C61 1.364 . S
C60 C59 1.400 . S
C60 C64 1.377 . S
C61 C59 1.364 . S
C61 C62 1.374 . S
C62 H53 0.930 . S
C62 C61 1.374 . S
C62 C63 1.383 . S
C63 O57 1.412 . S
C63 C62 1.383 . S
C63 C64 1.394 . S
C64 H54 0.929 . S
C64 C60 1.377 . S
C64 C63 1.394 . S
H65 C72 0.929 . S
H66 C75 0.930 . S
H67 C77 0.929 . S
H68 C69 0.969 . S
C69 H68 0.969 . S
C69 O70 1.550 . S
C69 H71 0.973 . S
O70 C69 1.550 . S
O70 C76 1.412 . S
H71 C69 0.973 . S
C72 H65 0.929 . S
C72 C73 1.400 . S
C72 C74 1.364 . S
C73 C72 1.400 . S
C73 C77 1.377 . S
C74 C72 1.364 . S
C74 C75 1.374 . S
C75 H66 0.930 . S
C75 C74 1.374 . S
C75 C76 1.383 . S
C76 O70 1.412 . S
C76 C75 1.383 . S
C76 C77 1.394 . S
C77 H67 0.929 . S
C77 C73 1.377 . S
C77 C76 1.394 . S
H78 C85 0.929 . S
H79 C88 0.930 . S
H80 C90 0.929 . S
H81 C82 0.969 . S
C82 H81 0.969 . S
C82 O83 1.550 . S
C82 H84 0.973 . S
O83 C82 1.550 . S
O83 C89 1.412 . S
H84 C82 0.973 . S
C85 H78 0.929 . S
C85 C86 1.400 . S
C85 C87 1.364 . S
C86 C85 1.400 . S
C86 C90 1.377 . S
C87 C85 1.364 . S
C87 C88 1.374 . S
C88 H79 0.930 . S
C88 C87 1.374 . S
C88 C89 1.383 . S
C89 O83 1.412 . S
C89 C88 1.383 . S
C89 C90 1.394 . S
C90 H80 0.929 . S
C90 C86 1.377 . S
C90 C89 1.394 . S
H91 C98 0.929 . S
H92 C101 0.930 . S
H93 C103 0.929 . S
H94 C95 0.969 . S
C95 H94 0.969 . S
C95 O96 1.550 . S
C95 H97 0.973 . S
O96 C95 1.550 . S
O96 C102 1.412 . S
H97 C95 0.973 . S
C98 H91 0.929 . S
C98 C99 1.400 . S
C98 C100 1.364 . S
C99 C98 1.400 . S
C99 C103 1.377 . S
C100 C98 1.364 . S
C100 C101 1.374 . S
C101 H92 0.930 . S
C101 C100 1.374 . S
C101 C102 1.383 . S
C102 O96 1.412 . S
C102 C101 1.383 . S
C102 C103 1.394 . S
C103 H93 0.929 . S
C103 C99 1.377 . S
C103 C102 1.394 . S
Tb104 O107 2.453 1_565 S
Tb104 O108 2.596 1_665 S
Tb104 O109 2.374 1_665 S
Tb104 O117 2.343 1_655 S
Tb104 O119 2.353 1_565 S
Tb104 O121 2.427 . S
Tb104 O122 2.513 1_655 S
C105 O109 1.251 . S
C105 O111 1.263 . S
Tb106 O108 2.343 . S
Tb106 O111 2.353 . S
Tb106 O114 2.427 . S
Tb106 O115 2.513 . S
Tb106 O116 2.453 1_545 S
Tb106 O117 2.596 1_545 S
Tb106 O118 2.374 1_455 S
O107 Tb104 2.453 1_545 S
O107 C123 1.245 1_655 S
O108 Tb104 2.596 1_445 S
O108 Tb106 2.343 . S
O108 C123 1.259 . S
O109 Tb104 2.374 1_445 S
O109 C105 1.251 . S
C110 O114 1.275 . S
C110 O115 1.246 . S
O111 C105 1.263 . S
O111 Tb106 2.353 . S
C112 O116 1.245 . S
C112 O117 1.259 . S
C113 O118 1.250 . S
C113 O119 1.263 . S
O114 Tb106 2.427 . S
O114 C110 1.275 . S
O115 Tb106 2.513 . S
O115 C110 1.246 . S
O116 Tb106 2.453 1_565 S
O116 C112 1.245 . S
O117 Tb104 2.343 1_455 S
O117 Tb106 2.596 1_565 S
O117 C112 1.259 . S
O118 Tb106 2.374 1_655 S
O118 C113 1.250 . S
O119 Tb104 2.353 1_545 S
O119 C113 1.263 . S
C120 O121 1.275 . S
C120 O122 1.246 1_655 S
O121 Tb104 2.427 . S
O121 C120 1.275 . S
O122 Tb104 2.513 1_455 S
O122 C120 1.246 1_455 S
C123 O107 1.245 1_455 S
C123 O108 1.259 . S
Tb124 O127 2.453 . S
Tb124 O128 2.596 1_545 S
Tb124 O129 2.374 . S
Tb124 O137 2.343 . S
Tb124 O139 2.353 . S
Tb124 O141 2.427 . S
Tb124 O142 2.513 . S
C125 O129 1.201 1_565 S
C125 O131 1.301 . S
Tb126 O128 2.343 . S
Tb126 O131 2.353 . S
Tb126 O134 2.427 . S
Tb126 O135 2.513 . S
Tb126 O136 2.453 . S
Tb126 O137 2.596 1_565 S
Tb126 O138 2.374 . S
O127 Tb124 2.453 . S
O127 C143 1.245 . S
O128 Tb124 2.596 1_565 S
O128 Tb126 2.343 . S
O128 C143 1.259 1_565 S
O129 Tb124 2.374 . S
O129 C125 1.201 1_545 S
C130 O134 1.275 . S
C130 O135 1.246 . S
O131 C125 1.301 . S
O131 Tb126 2.353 . S
C132 O136 1.245 1_545 S
C132 O137 1.259 . S
C133 O138 1.250 1_545 S
C133 O139 1.263 . S
O134 Tb126 2.427 . S
O134 C130 1.275 . S
O135 Tb126 2.513 . S
O135 C130 1.246 . S
O136 Tb126 2.453 . S
O136 C132 1.245 1_565 S
O137 Tb124 2.343 . S
O137 Tb126 2.596 1_545 S
O137 C132 1.259 . S
O138 Tb126 2.374 . S
O138 C133 1.250 1_565 S
O139 Tb124 2.353 . S
O139 C133 1.263 . S
C140 O141 1.275 . S
C140 O142 1.246 . S
O141 Tb124 2.427 . S
O141 C140 1.275 . S
O142 Tb124 2.513 . S
O142 C140 1.246 . S
C143 O127 1.245 . S
C143 O128 1.259 1_545 S
Tb144 O147 2.453 . S
Tb144 O148 2.596 . S
Tb144 O149 2.374 . S
Tb144 O157 2.343 . S
Tb144 O159 2.353 . S
Tb144 O161 2.427 . S
Tb144 O162 2.513 . S
C145 O149 1.251 . S
C145 O151 1.263 . S
Tb146 O148 2.343 . S
Tb146 O151 2.353 . S
Tb146 O154 2.427 . S
Tb146 O155 2.513 . S
Tb146 O156 2.453 . S
Tb146 O157 2.596 . S
Tb146 O158 2.374 . S
O147 Tb144 2.453 . S
O147 C163 1.245 . S
O148 Tb144 2.596 . S
O148 Tb146 2.343 . S
O148 C163 1.259 . S
O149 Tb144 2.374 . S
O149 C145 1.251 . S
C150 O154 1.275 . S
C150 O155 1.246 . S
O151 C145 1.263 . S
O151 Tb146 2.353 . S
C152 O156 1.245 . S
C152 O157 1.259 . S
C153 O158 1.250 . S
C153 O159 1.263 . S
O154 Tb146 2.427 . S
O154 C150 1.275 . S
O155 Tb146 2.513 . S
O155 C150 1.246 . S
O156 Tb146 2.453 . S
O156 C152 1.245 . S
O157 Tb144 2.343 . S
O157 Tb146 2.596 . S
O157 C152 1.259 . S
O158 Tb146 2.374 . S
O158 C153 1.250 . S
O159 Tb144 2.353 . S
O159 C153 1.263 . S
C160 O161 1.275 . S
C160 O162 1.246 . S
O161 Tb144 2.427 . S
O161 C160 1.275 . S
O162 Tb144 2.513 . S
O162 C160 1.246 . S
C163 O147 1.245 . S
C163 O148 1.259 . S
Tb164 O167 2.453 1_655 S
Tb164 O168 2.596 1_655 S
Tb164 O169 2.374 1_655 S
Tb164 O177 2.343 . S
Tb164 O179 2.353 1_655 S
Tb164 O181 2.427 . S
Tb164 O182 2.513 . S
C165 O169 1.251 . S
C165 O171 1.263 . S
Tb166 O168 2.343 . S
Tb166 O171 2.353 . S
Tb166 O174 2.427 . S
Tb166 O175 2.513 . S
Tb166 O176 2.453 1_455 S
Tb166 O177 2.596 1_455 S
Tb166 O178 2.374 . S
O167 Tb164 2.453 1_455 S
O167 C183 1.245 . S
O168 Tb164 2.596 1_455 S
O168 Tb166 2.343 . S
O168 C183 1.259 . S
O169 Tb164 2.374 1_455 S
O169 C165 1.251 . S
C170 O174 1.275 . S
C170 O175 1.246 . S
O171 C165 1.263 . S
O171 Tb166 2.353 . S
C172 O176 1.245 . S
C172 O177 1.259 . S
C173 O178 1.250 . S
C173 O179 1.263 . S
O174 Tb166 2.427 . S
O174 C170 1.275 . S
O175 Tb166 2.513 . S
O175 C170 1.246 . S
O176 Tb166 2.453 1_655 S
O176 C172 1.245 . S
O177 Tb164 2.343 . S
O177 Tb166 2.596 1_655 S
O177 C172 1.259 . S
O178 Tb166 2.374 . S
O178 C173 1.250 . S
O179 Tb164 2.353 1_455 S
O179 C173 1.263 . S
C180 O181 1.275 . S
C180 O182 1.246 . S
O181 Tb164 2.427 . S
O181 C180 1.275 . S
O182 Tb164 2.513 . S
O182 C180 1.246 . S
C183 O167 1.245 . S
C183 O168 1.259 . S
H184 C192 0.929 . S
H185 C194 0.930 . S
H186 C196 0.930 . S
H187 C199 0.929 . S
H188 C202 0.930 . S
H189 C204 0.921 1_565 S
H190 C204 0.970 . S
H191 C204 0.951 1_565 S
C192 H184 0.929 . S
C192 C193 1.377 . S
C192 C194 1.384 . S
C193 C192 1.377 . S
C193 C199 1.390 . S
C194 H185 0.930 . S
C194 C192 1.384 . S
C194 C195 1.372 . S
C195 C194 1.372 . S
C195 C196 1.400 . S
C195 C200 1.490 . S
C196 H186 0.930 . S
C196 C195 1.400 . S
C196 C199 1.386 . S
H197 C213 0.930 1_565 S
H198 C214 0.931 . S
C199 H187 0.929 . S
C199 C193 1.390 . S
C199 C196 1.386 . S
C200 C195 1.490 . S
C200 C202 1.395 . S
C200 C203 1.403 . S
H201 C207 0.930 . S
C202 H188 0.930 . S
C202 C200 1.395 . S
C202 C205 1.403 . S
C203 C200 1.403 . S
C203 C204 1.565 . S
C203 C207 1.400 . S
C204 H189 0.921 1_545 S
C204 H190 0.970 . S
C204 H191 0.951 1_545 S
C204 C203 1.565 . S
C205 C202 1.403 . S
C205 C206 1.392 . S
C205 C209 1.495 . S
C206 C205 1.392 . S
C206 C207 1.385 . S
C206 C208 1.478 . S
C207 H201 0.930 . S
C207 C203 1.400 . S
C207 C206 1.385 . S
C208 C206 1.478 . S
C208 C210 1.381 . S
C208 C214 1.383 . S
C209 C205 1.495 . S
C209 H215 0.959 . S
C209 H216 0.961 . S
C209 H217 0.960 . S
C210 C208 1.381 . S
C210 C211 1.394 . S
C210 H218 0.930 . S
C211 C210 1.394 . S
C211 C212 1.383 . S
C211 H219 0.929 . S
C212 C211 1.383 . S
C212 C213 1.377 . S
C213 H197 0.930 1_545 S
C213 C212 1.377 . S
C213 C214 1.379 . S
C214 H198 0.931 . S
C214 C208 1.383 . S
C214 C213 1.379 . S
H215 C209 0.959 . S
H216 C209 0.961 . S
H217 C209 0.960 . S
H218 C210 0.930 . S
H219 C211 0.929 . S
H220 C228 0.929 . S
H221 C230 0.930 . S
H222 C232 0.930 . S
H223 C235 0.929 . S
H224 C238 0.930 . S
H225 C240 0.960 . S
H226 C240 0.960 . S
H227 C240 0.960 . S
C228 H220 0.929 . S
C228 C229 1.377 . S
C228 C230 1.384 . S
C229 C228 1.377 . S
C229 C235 1.390 . S
C230 H221 0.930 . S
C230 C228 1.384 . S
C230 C231 1.372 . S
C231 C230 1.372 . S
C231 C232 1.400 . S
C231 C236 1.490 . S
C232 H222 0.930 . S
C232 C231 1.400 . S
C232 C235 1.386 . S
H233 C249 0.930 . S
H234 C250 0.931 . S
C235 H223 0.929 . S
C235 C229 1.390 . S
C235 C232 1.386 . S
C236 C231 1.490 . S
C236 C238 1.395 . S
C236 C239 1.403 . S
H237 C243 0.930 . S
C238 H224 0.930 . S
C238 C236 1.395 . S
C238 C241 1.403 . S
C239 C236 1.403 . S
C239 C240 1.524 . S
C239 C243 1.400 . S
C240 H225 0.960 . S
C240 H226 0.960 . S
C240 H227 0.960 . S
C240 C239 1.524 . S
C241 C238 1.403 . S
C241 C242 1.392 . S
C241 C245 1.495 . S
C242 C241 1.392 . S
C242 C243 1.385 . S
C242 C244 1.478 . S
C243 H237 0.930 . S
C243 C239 1.400 . S
C243 C242 1.385 . S
C244 C242 1.478 . S
C244 C246 1.381 . S
C244 C250 1.383 . S
C245 C241 1.495 . S
C245 H251 0.959 . S
C245 H252 0.961 . S
C245 H253 0.960 . S
C246 C244 1.381 . S
C246 C247 1.394 . S
C246 H254 0.930 . S
C247 C246 1.394 . S
C247 C248 1.383 . S
C247 H255 0.929 . S
C248 C247 1.383 . S
C248 C249 1.377 . S
C249 H233 0.930 . S
C249 C248 1.377 . S
C249 C250 1.379 . S
C250 H234 0.931 . S
C250 C244 1.383 . S
C250 C249 1.379 . S
H251 C245 0.959 . S
H252 C245 0.961 . S
H253 C245 0.960 . S
H254 C246 0.930 . S
H255 C247 0.929 . S
H256 C264 0.929 . S
H257 C266 0.930 . S
H258 C268 0.930 . S
H259 C271 0.929 . S
H260 C274 0.930 . S
H261 C276 0.960 . S
H262 C276 0.960 . S
H263 C276 0.960 . S
C264 H256 0.929 . S
C264 C265 1.377 . S
C264 C266 1.384 . S
C265 C264 1.377 . S
C265 C271 1.390 . S
C266 H257 0.930 . S
C266 C264 1.384 . S
C266 C267 1.372 . S
C267 C266 1.372 . S
C267 C268 1.400 . S
C267 C272 1.490 . S
C268 H258 0.930 . S
C268 C267 1.400 . S
C268 C271 1.386 . S
H269 C285 0.930 . S
H270 C286 0.931 . S
C271 H259 0.929 . S
C271 C265 1.390 . S
C271 C268 1.386 . S
C272 C267 1.490 . S
C272 C274 1.395 . S
C272 C275 1.403 . S
H273 C279 0.930 . S
C274 H260 0.930 . S
C274 C272 1.395 . S
C274 C277 1.403 . S
C275 C272 1.403 . S
C275 C276 1.524 . S
C275 C279 1.400 . S
C276 H261 0.960 . S
C276 H262 0.960 . S
C276 H263 0.960 . S
C276 C275 1.524 . S
C277 C274 1.403 . S
C277 C278 1.392 . S
C277 C281 1.495 . S
C278 C277 1.392 . S
C278 C279 1.385 . S
C278 C280 1.478 . S
C279 H273 0.930 . S
C279 C275 1.400 . S
C279 C278 1.385 . S
C280 C278 1.478 . S
C280 C282 1.381 . S
C280 C286 1.383 . S
C281 C277 1.495 . S
C281 H287 0.959 . S
C281 H288 0.961 . S
C281 H289 0.960 . S
C282 C280 1.381 . S
C282 C283 1.394 . S
C282 H290 0.930 . S
C283 C282 1.394 . S
C283 C284 1.383 . S
C283 H291 0.929 . S
C284 C283 1.383 . S
C284 C285 1.377 . S
C285 H269 0.930 . S
C285 C284 1.377 . S
C285 C286 1.379 . S
C286 H270 0.931 . S
C286 C280 1.383 . S
C286 C285 1.379 . S
H287 C281 0.959 . S
H288 C281 0.961 . S
H289 C281 0.960 . S
H290 C282 0.930 . S
H291 C283 0.929 . S
H292 C300 0.929 . S
H293 C302 0.930 . S
H294 C304 0.930 . S
H295 C307 0.929 . S
H296 C310 0.930 . S
H297 C312 0.960 . S
H298 C312 0.960 . S
H299 C312 0.960 . S
C300 H292 0.929 . S
C300 C301 1.377 . S
C300 C302 1.384 . S
C301 C300 1.377 . S
C301 C307 1.390 . S
C302 H293 0.930 . S
C302 C300 1.384 . S
C302 C303 1.372 . S
C303 C302 1.372 . S
C303 C304 1.400 . S
C303 C308 1.490 . S
C304 H294 0.930 . S
C304 C303 1.400 . S
C304 C307 1.386 . S
H305 C321 0.930 . S
H306 C322 0.931 . S
C307 H295 0.929 . S
C307 C301 1.390 . S
C307 C304 1.386 . S
C308 C303 1.490 . S
C308 C310 1.395 . S
C308 C311 1.403 . S
H309 C315 0.930 . S
C310 H296 0.930 . S
C310 C308 1.395 . S
C310 C313 1.403 . S
C311 C308 1.403 . S
C311 C312 1.524 . S
C311 C315 1.400 . S
C312 H297 0.960 . S
C312 H298 0.960 . S
C312 H299 0.960 . S
C312 C311 1.524 . S
C313 C310 1.403 . S
C313 C314 1.392 . S
C313 C317 1.495 1_455 S
C314 C313 1.392 . S
C314 C315 1.385 . S
C314 C316 1.478 . S
C315 H309 0.930 . S
C315 C311 1.400 . S
C315 C314 1.385 . S
C316 C314 1.478 . S
C316 C318 1.381 . S
C316 C322 1.383 . S
C317 C313 1.495 1_655 S
C317 H323 0.959 . S
C317 H324 0.961 . S
C317 H325 0.960 . S
C318 C316 1.381 . S
C318 C319 1.394 . S
C318 H326 0.930 1_455 S
C319 C318 1.394 . S
C319 C320 1.383 . S
C319 H327 0.929 1_455 S
C320 C319 1.383 . S
C320 C321 1.377 . S
C321 H305 0.930 . S
C321 C320 1.377 . S
C321 C322 1.379 . S
C322 H306 0.931 . S
C322 C316 1.383 . S
C322 C321 1.379 . S
H323 C317 0.959 . S
H324 C317 0.961 . S
H325 C317 0.960 . S
H326 C318 0.930 1_655 S
H327 C319 0.929 1_655 S
H328 C336 0.929 . S
H329 C338 0.930 . S
H330 C340 0.930 . S
H331 C343 0.929 . S
H332 C346 0.930 . S
H333 C348 0.960 . S
H334 C348 0.960 . S
H335 C348 0.960 1_565 S
C336 H328 0.929 . S
C336 C337 1.377 1_554 S
C336 C338 1.384 . S
C337 C336 1.377 1_556 S
C337 C343 1.390 . S
C338 H329 0.930 . S
C338 C336 1.384 . S
C338 C339 1.372 1_554 S
C339 C338 1.372 1_556 S
C339 C340 1.400 . S
C339 C344 1.490 . S
C340 H330 0.930 . S
C340 C339 1.400 . S
C340 C343 1.386 . S
H341 C357 0.930 . S
H342 C358 0.931 . S
C343 H331 0.929 . S
C343 C337 1.390 . S
C343 C340 1.386 . S
C344 C339 1.490 . S
C344 C346 1.395 . S
C344 C347 1.403 . S
H345 C351 0.930 1_545 S
C346 H332 0.930 . S
C346 C344 1.395 . S
C346 C349 1.403 . S
C347 C344 1.403 . S
C347 C348 1.524 1_565 S
C347 C351 1.400 . S
C348 H333 0.960 . S
C348 H334 0.960 . S
C348 H335 0.960 1_545 S
C348 C347 1.524 1_545 S
C349 C346 1.403 . S
C349 C350 1.392 . S
C349 C353 1.495 . S
C350 C349 1.392 . S
C350 C351 1.385 . S
C350 C352 1.478 . S
C351 H345 0.930 1_565 S
C351 C347 1.400 . S
C351 C350 1.385 . S
C352 C350 1.478 . S
C352 C354 1.381 . S
C352 C358 1.383 . S
C353 C349 1.495 . S
C353 H359 0.959 . S
C353 H360 0.961 . S
C353 H361 0.960 . S
C354 C352 1.381 . S
C354 C355 1.394 . S
C354 H362 0.930 . S
C355 C354 1.394 . S
C355 C356 1.383 . S
C355 H363 0.929 1_565 S
C356 C355 1.383 . S
C356 C357 1.377 . S
C357 H341 0.930 . S
C357 C356 1.377 . S
C357 C358 1.379 . S
C358 H342 0.931 . S
C358 C352 1.383 . S
C358 C357 1.379 . S
H359 C353 0.959 . S
H360 C353 0.961 . S
H361 C353 0.960 . S
H362 C354 0.930 . S
H363 C355 0.929 1_545 S
H364 C372 0.929 . S
H365 C374 0.930 . S
H366 C376 0.930 1_554 S
H367 C379 0.929 . S
H368 C382 0.930 . S
H369 C384 0.960 . S
H370 C384 0.960 . S
H371 C384 0.960 . S
C372 H364 0.929 . S
C372 C373 1.377 1_556 S
C372 C374 1.384 . S
C373 C372 1.377 1_554 S
C373 C379 1.390 . S
C374 H365 0.930 . S
C374 C372 1.384 . S
C374 C375 1.372 . S
C375 C374 1.372 . S
C375 C376 1.400 . S
C375 C380 1.490 . S
C376 H366 0.930 1_556 S
C376 C375 1.400 . S
C376 C379 1.386 1_556 S
H377 C393 0.930 . S
H378 C394 0.931 . S
C379 H367 0.929 . S
C379 C373 1.390 . S
C379 C376 1.386 1_554 S
C380 C375 1.490 . S
C380 C382 1.395 . S
C380 C383 1.403 . S
H381 C387 0.930 . S
C382 H368 0.930 . S
C382 C380 1.395 . S
C382 C385 1.403 . S
C383 C380 1.403 . S
C383 C384 1.524 1_556 S
C383 C387 1.400 . S
C384 H369 0.960 . S
C384 H370 0.960 . S
C384 H371 0.960 . S
C384 C383 1.524 1_554 S
C385 C382 1.403 . S
C385 C386 1.392 . S
C385 C389 1.495 . S
C386 C385 1.392 . S
C386 C387 1.385 . S
C386 C388 1.478 . S
C387 H381 0.930 . S
C387 C383 1.400 . S
C387 C386 1.385 . S
C388 C386 1.478 . S
C388 C390 1.381 . S
C388 C394 1.383 . S
C389 C385 1.495 . S
C389 H395 0.959 . S
C389 H396 0.961 . S
C389 H397 0.960 . S
C390 C388 1.381 . S
C390 C391 1.394 . S
C390 H398 0.930 . S
C391 C390 1.394 . S
C391 C392 1.383 . S
C391 H399 0.929 . S
C392 C391 1.383 . S
C392 C393 1.377 . S
C393 H377 0.930 . S
C393 C392 1.377 . S
C393 C394 1.379 . S
C394 H378 0.931 . S
C394 C388 1.383 . S
C394 C393 1.379 . S
H395 C389 0.959 . S
H396 C389 0.961 . S
H397 C389 0.960 . S
H398 C390 0.930 . S
H399 C391 0.929 . S
H400 C408 0.929 . S
H401 C410 0.930 . S
H402 C412 0.930 . S
H403 C415 0.929 . S
H404 C418 0.930 . S
H405 C420 0.960 . S
H406 C420 0.960 . S
H407 C420 0.960 . S
C408 H400 0.929 . S
C408 C409 1.377 . S
C408 C410 1.384 . S
C409 C408 1.377 . S
C409 C415 1.390 1_554 S
C410 H401 0.930 . S
C410 C408 1.384 . S
C410 C411 1.372 1_554 S
C411 C410 1.372 1_556 S
C411 C412 1.400 . S
C411 C416 1.490 . S
C412 H402 0.930 . S
C412 C411 1.400 . S
C412 C415 1.386 . S
H413 C429 0.930 . S
H414 C430 0.931 . S
C415 H403 0.929 . S
C415 C409 1.390 1_556 S
C415 C412 1.386 . S
C416 C411 1.490 . S
C416 C418 1.395 . S
C416 C419 1.403 . S
H417 C423 0.930 . S
C418 H404 0.930 . S
C418 C416 1.395 . S
C418 C421 1.403 . S
C419 C416 1.403 . S
C419 C420 1.524 . S
C419 C423 1.400 . S
C420 H405 0.960 . S
C420 H406 0.960 . S
C420 H407 0.960 . S
C420 C419 1.524 . S
C421 C418 1.403 . S
C421 C422 1.392 . S
C421 C425 1.495 . S
C422 C421 1.392 . S
C422 C423 1.385 . S
C422 C424 1.478 . S
C423 H417 0.930 . S
C423 C419 1.400 . S
C423 C422 1.385 . S
C424 C422 1.478 . S
C424 C426 1.381 . S
C424 C430 1.383 . S
C425 C421 1.495 . S
C425 H431 0.959 . S
C425 H432 0.961 . S
C425 H433 0.960 . S
C426 C424 1.381 . S
C426 C427 1.394 . S
C426 H434 0.930 . S
C427 C426 1.394 . S
C427 C428 1.383 . S
C427 H435 0.929 . S
C428 C427 1.383 . S
C428 C429 1.377 . S
C429 H413 0.930 . S
C429 C428 1.377 . S
C429 C430 1.379 . S
C430 H414 0.931 . S
C430 C424 1.383 . S
C430 C429 1.379 . S
H431 C425 0.959 . S
H432 C425 0.961 . S
H433 C425 0.960 . S
H434 C426 0.930 . S
H435 C427 0.929 . S
H436 C444 0.929 . S
H437 C446 0.930 . S
H438 C448 0.930 . S
H439 C451 0.921 1_554 S
H440 C454 0.930 . S
H441 C456 0.960 . S
H442 C456 0.960 . S
H443 C456 0.960 . S
C444 H436 0.929 . S
C444 C445 1.377 . S
C444 C446 1.384 . S
C445 C444 1.377 . S
C445 C451 1.395 . S
C446 H437 0.930 . S
C446 C444 1.384 . S
C446 C447 1.372 . S
C447 C446 1.372 . S
C447 C448 1.400 . S
C447 C452 1.490 . S
C448 H438 0.930 . S
C448 C447 1.400 . S
C448 C451 1.389 . S
H449 C465 0.930 . S
H450 C466 0.923 1_455 S
C451 H439 0.921 1_556 S
C451 C445 1.395 . S
C451 C448 1.389 . S
C452 C447 1.490 . S
C452 C454 1.395 . S
C452 C455 1.403 . S
H453 C459 0.930 . S
C454 H440 0.930 . S
C454 C452 1.395 . S
C454 C457 1.403 . S
C455 C452 1.403 . S
C455 C456 1.524 . S
C455 C459 1.400 . S
C456 H441 0.960 . S
C456 H442 0.960 . S
C456 H443 0.960 . S
C456 C455 1.524 . S
C457 C454 1.403 . S
C457 C458 1.392 . S
C457 C461 1.495 1_655 S
C458 C457 1.392 . S
C458 C459 1.385 . S
C458 C460 1.478 . S
C459 H453 0.930 . S
C459 C455 1.400 . S
C459 C458 1.385 . S
C460 C458 1.478 . S
C460 C462 1.381 . S
C460 C466 1.398 . S
C461 C457 1.495 1_455 S
C461 H467 0.959 . S
C461 H468 0.961 . S
C461 H469 0.960 . S
C462 C460 1.381 . S
C462 C463 1.394 . S
C462 H470 0.930 . S
C463 C462 1.394 . S
C463 C464 1.383 . S
C463 H471 0.929 . S
C464 C463 1.383 . S
C464 C465 1.377 1_655 S
C465 H449 0.930 . S
C465 C464 1.377 1_455 S
C465 C466 1.373 1_455 S
C466 H450 0.923 1_655 S
C466 C460 1.398 . S
C466 C465 1.373 1_655 S
H467 C461 0.959 . S
H468 C461 0.961 . S
H469 C461 0.960 . S
H470 C462 0.930 . S
H471 C463 0.929 . S
H472 C480 0.929 . S
H473 C482 0.930 . S
H474 C484 0.930 . S
H475 C487 0.929 . S
H476 C490 0.930 . S
H477 C492 0.960 1_655 S
H478 C492 0.960 . S
H479 C492 0.960 . S
C480 H472 0.929 . S
C480 C481 1.377 . S
C480 C482 1.384 . S
C481 C480 1.377 . S
C481 C487 1.390 . S
C482 H473 0.930 . S
C482 C480 1.384 . S
C482 C483 1.372 . S
C483 C482 1.372 . S
C483 C484 1.400 . S
C483 C488 1.490 . S
C484 H474 0.930 . S
C484 C483 1.400 . S
C484 C487 1.386 . S
H485 C501 0.930 . S
H486 C502 0.931 . S
C487 H475 0.929 . S
C487 C481 1.390 . S
C487 C484 1.386 . S
C488 C483 1.490 . S
C488 C490 1.395 . S
C488 C491 1.403 . S
H489 C495 0.930 . S
C490 H476 0.930 . S
C490 C488 1.395 . S
C490 C493 1.403 . S
C491 C488 1.403 . S
C491 C492 1.524 . S
C491 C495 1.400 . S
C492 H477 0.960 1_455 S
C492 H478 0.960 . S
C492 H479 0.960 . S
C492 C491 1.524 . S
C493 C490 1.403 . S
C493 C494 1.392 . S
C493 C497 1.495 . S
C494 C493 1.392 . S
C494 C495 1.385 . S
C494 C496 1.478 . S
C495 H489 0.930 . S
C495 C491 1.400 . S
C495 C494 1.385 . S
C496 C494 1.478 . S
C496 C498 1.381 . S
C496 C502 1.383 . S
C497 C493 1.495 . S
C497 H503 0.959 . S
C497 H504 0.961 . S
C497 H505 0.960 . S
C498 C496 1.381 . S
C498 C499 1.394 . S
C498 H506 0.930 . S
C499 C498 1.394 . S
C499 C500 1.383 . S
C499 H507 0.929 . S
C500 C499 1.383 . S
C500 C501 1.377 . S
C501 H485 0.930 . S
C501 C500 1.377 . S
C501 C502 1.379 . S
C502 H486 0.931 . S
C502 C496 1.383 . S
C502 C501 1.379 . S
H503 C497 0.959 . S
H504 C497 0.961 . S
H505 C497 0.960 . S
H506 C498 0.930 . S
H507 C499 0.929 . S
H508 C516 0.929 . S
H509 C518 0.930 . S
H510 C520 0.930 . S
H511 C523 0.929 . S
H512 C526 0.930 . S
H513 C528 0.960 . S
H514 C528 0.960 . S
H515 C528 0.960 . S
C516 H508 0.929 . S
C516 C517 1.377 . S
C516 C518 1.384 . S
C517 C516 1.377 . S
C517 C523 1.390 . S
C518 H509 0.930 . S
C518 C516 1.384 . S
C518 C519 1.372 . S
C519 C518 1.372 . S
C519 C520 1.400 . S
C519 C524 1.490 . S
C520 H510 0.930 . S
C520 C519 1.400 . S
C520 C523 1.386 . S
H521 C537 0.930 . S
H522 C538 0.931 . S
C523 H511 0.929 . S
C523 C517 1.390 . S
C523 C520 1.386 . S
C524 C519 1.490 . S
C524 C526 1.395 . S
C524 C527 1.403 . S
H525 C531 0.930 . S
C526 H512 0.930 . S
C526 C524 1.395 . S
C526 C529 1.403 . S
C527 C524 1.403 . S
C527 C528 1.524 . S
C527 C531 1.400 . S
C528 H513 0.960 . S
C528 H514 0.960 . S
C528 H515 0.960 . S
C528 C527 1.524 . S
C529 C526 1.403 . S
C529 C530 1.392 . S
C529 C533 1.495 . S
C530 C529 1.392 . S
C530 C531 1.385 . S
C530 C532 1.478 . S
C531 H525 0.930 . S
C531 C527 1.400 . S
C531 C530 1.385 . S
C532 C530 1.478 . S
C532 C534 1.381 . S
C532 C538 1.383 . S
C533 C529 1.495 . S
C533 H539 0.959 . S
C533 H540 0.961 . S
C533 H541 0.960 . S
C534 C532 1.381 . S
C534 C535 1.394 . S
C534 H542 0.930 . S
C535 C534 1.394 . S
C535 C536 1.383 . S
C535 H543 0.931 1_545 S
C536 C535 1.383 . S
C536 C537 1.377 . S
C537 H521 0.930 . S
C537 C536 1.377 . S
C537 C538 1.379 . S
C538 H522 0.931 . S
C538 C532 1.383 . S
C538 C537 1.379 . S
H539 C533 0.959 . S
H540 C533 0.961 . S
H541 C533 0.960 . S
H542 C534 0.930 . S
H543 C535 0.931 1_565 S
H544 C552 0.929 . S
H545 C554 0.930 . S
H546 C556 0.930 . S
H547 C559 0.929 . S
H548 C562 0.930 . S
H549 C564 0.960 . S
H550 C564 0.960 . S
H551 C564 0.960 . S
C552 H544 0.929 . S
C552 C553 1.377 . S
C552 C554 1.384 . S
C553 C552 1.377 . S
C553 C559 1.390 . S
C554 H545 0.930 . S
C554 C552 1.384 . S
C554 C555 1.372 . S
C555 C554 1.372 . S
C555 C556 1.400 . S
C555 C560 1.490 . S
C556 H546 0.930 . S
C556 C555 1.400 . S
C556 C559 1.386 . S
H557 C573 0.930 . S
H558 C574 0.931 . S
C559 H547 0.929 . S
C559 C553 1.390 . S
C559 C556 1.386 . S
C560 C555 1.490 . S
C560 C562 1.395 . S
C560 C563 1.403 . S
H561 C567 0.930 . S
C562 H548 0.930 . S
C562 C560 1.395 . S
C562 C565 1.403 . S
C563 C560 1.403 . S
C563 C564 1.524 . S
C563 C567 1.400 . S
C564 H549 0.960 . S
C564 H550 0.960 . S
C564 H551 0.960 . S
C564 C563 1.524 . S
C565 C562 1.403 . S
C565 C566 1.392 . S
C565 C569 1.495 . S
C566 C565 1.392 . S
C566 C567 1.385 . S
C566 C568 1.478 . S
C567 H561 0.930 . S
C567 C563 1.400 . S
C567 C566 1.385 . S
C568 C566 1.478 . S
C568 C570 1.381 . S
C568 C574 1.383 . S
C569 C565 1.495 . S
C569 H575 0.959 . S
C569 H576 0.961 . S
C569 H577 0.960 . S
C570 C568 1.381 . S
C570 C571 1.394 . S
C570 H578 0.930 . S
C571 C570 1.394 . S
C571 C572 1.383 . S
C571 H579 0.929 . S
C572 C571 1.383 . S
C572 C573 1.377 . S
C573 H557 0.930 . S
C573 C572 1.377 . S
C573 C574 1.379 . S
C574 H558 0.931 . S
C574 C568 1.383 . S
C574 C573 1.379 . S
H575 C569 0.959 . S
H576 C569 0.961 . S
H577 C569 0.960 . S
H578 C570 0.930 . S
H579 C571 0.929 . S
H580 C588 0.929 . S
H581 C590 0.930 . S
H582 C592 0.930 . S
H583 C595 0.929 . S
H584 C598 0.930 . S
H585 C600 0.960 . S
H586 C600 0.960 . S
H587 C600 0.960 . S
C588 H580 0.929 . S
C588 C589 1.377 . S
C588 C590 1.384 . S
C589 C588 1.377 . S
C589 C595 1.390 . S
C590 H581 0.930 . S
C590 C588 1.384 . S
C590 C591 1.372 . S
C591 C590 1.372 . S
C591 C592 1.400 . S
C591 C596 1.490 . S
C592 H582 0.930 . S
C592 C591 1.400 . S
C592 C595 1.386 . S
H593 C609 0.930 . S
H594 C610 0.931 . S
C595 H583 0.929 . S
C595 C589 1.390 . S
C595 C592 1.386 . S
C596 C591 1.490 . S
C596 C598 1.395 . S
C596 C599 1.403 . S
H597 C603 0.930 . S
C598 H584 0.930 . S
C598 C596 1.395 . S
C598 C601 1.403 . S
C599 C596 1.403 . S
C599 C600 1.524 . S
C599 C603 1.400 . S
C600 H585 0.960 . S
C600 H586 0.960 . S
C600 H587 0.960 . S
C600 C599 1.524 . S
C601 C598 1.403 . S
C601 C602 1.392 . S
C601 C605 1.495 . S
C602 C601 1.392 . S
C602 C603 1.385 . S
C602 C604 1.478 . S
C603 H597 0.930 . S
C603 C599 1.400 . S
C603 C602 1.385 . S
C604 C602 1.478 . S
C604 C606 1.381 . S
C604 C610 1.383 . S
C605 C601 1.495 . S
C605 H611 0.959 . S
C605 H612 0.961 . S
C605 H613 0.960 . S
C606 C604 1.381 . S
C606 C607 1.394 . S
C606 H614 0.930 . S
C607 C606 1.394 . S
C607 C608 1.383 . S
C607 H615 0.929 . S
C608 C607 1.383 . S
C608 C609 1.377 . S
C609 H593 0.930 . S
C609 C608 1.377 . S
C609 C610 1.379 . S
C610 H594 0.931 . S
C610 C604 1.383 . S
C610 C609 1.379 . S
H611 C605 0.959 . S
H612 C605 0.961 . S
H613 C605 0.960 . S
H614 C606 0.930 . S
H615 C607 0.929 . S
H616 C624 0.929 1_554 S
H617 C626 0.930 . S
H618 C628 0.930 . S
H619 C631 0.929 . S
H620 C634 0.930 . S
H621 C636 0.960 . S
H622 C636 0.960 . S
H623 C636 0.960 . S
C624 H616 0.929 1_556 S
C624 C625 1.377 . S
C624 C626 1.384 . S
C625 C624 1.377 . S
C625 C631 1.390 . S
C626 H617 0.930 . S
C626 C624 1.384 . S
C626 C627 1.372 . S
C627 C626 1.372 . S
C627 C628 1.400 . S
C627 C632 1.490 . S
C628 H618 0.930 . S
C628 C627 1.400 . S
C628 C631 1.386 . S
H629 C645 0.927 1_455 S
H630 C646 0.931 . S
C631 H619 0.929 . S
C631 C625 1.390 . S
C631 C628 1.386 . S
C632 C627 1.490 . S
C632 C634 1.395 . S
C632 C635 1.403 . S
H633 C639 0.930 . S
C634 H620 0.930 . S
C634 C632 1.395 . S
C634 C637 1.403 . S
C635 C632 1.403 . S
C635 C636 1.524 . S
C635 C639 1.400 . S
C636 H621 0.960 . S
C636 H622 0.960 . S
C636 H623 0.960 . S
C636 C635 1.524 . S
C637 C634 1.403 . S
C637 C638 1.392 . S
C637 C641 1.495 1_655 S
C638 C637 1.392 . S
C638 C639 1.385 . S
C638 C640 1.478 . S
C639 H633 0.930 . S
C639 C635 1.400 . S
C639 C638 1.385 . S
C640 C638 1.478 . S
C640 C642 1.381 . S
C640 C646 1.383 . S
C641 C637 1.495 1_455 S
C641 H647 0.959 . S
C641 H648 0.961 . S
C641 H649 0.960 . S
C642 C640 1.381 . S
C642 C643 1.394 . S
C642 H650 0.930 . S
C643 C642 1.394 . S
C643 C644 1.388 . S
C643 H651 0.929 . S
C644 C643 1.388 . S
C644 C645 1.377 . S
C645 H629 0.927 1_655 S
C645 C644 1.377 . S
C645 C646 1.382 . S
C646 H630 0.931 . S
C646 C640 1.383 . S
C646 C645 1.382 . S
H647 C641 0.959 . S
H648 C641 0.961 . S
H649 C641 0.960 . S
H650 C642 0.930 . S
H651 C643 0.929 . S
H652 C660 0.929 . S
H653 C662 0.930 . S
H654 C664 0.930 1_554 S
H655 C667 0.929 . S
H656 C670 0.930 . S
H657 C672 0.960 . S
H658 C672 0.960 . S
H659 C672 0.960 . S
C660 H652 0.929 . S
C660 C661 1.377 . S
C660 C662 1.384 . S
C661 C660 1.377 . S
C661 C667 1.390 1_556 S
C662 H653 0.930 . S
C662 C660 1.384 . S
C662 C663 1.372 . S
C663 C662 1.372 . S
C663 C664 1.400 . S
C663 C668 1.490 . S
C664 H654 0.930 1_556 S
C664 C663 1.400 . S
C664 C667 1.386 1_556 S
H665 C681 0.930 . S
H666 C682 0.931 1_545 S
C667 H655 0.929 . S
C667 C661 1.390 1_554 S
C667 C664 1.386 1_554 S
C668 C663 1.490 . S
C668 C670 1.395 . S
C668 C671 1.403 . S
H669 C675 0.930 1_545 S
C670 H656 0.930 . S
C670 C668 1.395 . S
C670 C673 1.403 . S
C671 C668 1.403 . S
C671 C672 1.524 1_565 S
C671 C675 1.400 . S
C672 H657 0.960 . S
C672 H658 0.960 . S
C672 H659 0.960 . S
C672 C671 1.524 1_545 S
C673 C670 1.403 . S
C673 C674 1.392 . S
C673 C677 1.495 . S
C674 C673 1.392 . S
C674 C675 1.385 . S
C674 C676 1.478 . S
C675 H669 0.930 1_565 S
C675 C671 1.400 . S
C675 C674 1.385 . S
C676 C674 1.478 . S
C676 C678 1.381 . S
C676 C682 1.383 . S
C677 C673 1.495 . S
C677 H683 0.959 . S
C677 H684 0.961 . S
C677 H685 0.960 . S
C678 C676 1.381 . S
C678 C679 1.394 . S
C678 H686 0.930 . S
C679 C678 1.394 . S
C679 C680 1.383 . S
C679 H687 0.929 . S
C680 C679 1.383 . S
C680 C681 1.377 1_565 S
C681 H665 0.930 . S
C681 C680 1.377 1_545 S
C681 C682 1.379 1_545 S
C682 H666 0.931 1_565 S
C682 C676 1.383 . S
C682 C681 1.379 1_565 S
H683 C677 0.959 . S
H684 C677 0.961 . S
H685 C677 0.960 . S
H686 C678 0.930 . S
H687 C679 0.929 . S
H688 C696 0.929 . S
H689 C698 0.930 . S
H690 C700 0.930 . S
H691 C703 0.929 . S
H692 C706 0.930 . S
H693 C708 0.960 . S
H694 C708 0.960 . S
H695 C708 0.960 . S
C696 H688 0.929 . S
C696 C697 1.377 . S
C696 C698 1.384 . S
C697 C696 1.377 . S
C697 C703 1.390 1_554 S
C698 H689 0.930 . S
C698 C696 1.384 . S
C698 C699 1.372 1_554 S
C699 C698 1.372 1_556 S
C699 C700 1.400 . S
C699 C704 1.490 . S
C700 H690 0.930 . S
C700 C699 1.400 . S
C700 C703 1.386 . S
H701 C717 0.930 . S
H702 C718 0.931 . S
C703 H691 0.929 . S
C703 C697 1.390 1_556 S
C703 C700 1.386 . S
C704 C699 1.490 . S
C704 C706 1.395 . S
C704 C707 1.403 . S
H705 C711 0.930 . S
C706 H692 0.930 . S
C706 C704 1.395 . S
C706 C709 1.403 . S
C707 C704 1.403 . S
C707 C708 1.524 . S
C707 C711 1.400 . S
C708 H693 0.960 . S
C708 H694 0.960 . S
C708 H695 0.960 . S
C708 C707 1.524 . S
C709 C706 1.403 . S
C709 C710 1.392 . S
C709 C713 1.495 . S
C710 C709 1.392 . S
C710 C711 1.385 . S
C710 C712 1.478 . S
C711 H705 0.930 . S
C711 C707 1.400 . S
C711 C710 1.385 . S
C712 C710 1.478 . S
C712 C714 1.381 . S
C712 C718 1.383 . S
C713 C709 1.495 . S
C713 H719 0.959 . S
C713 H720 0.961 . S
C713 H721 0.960 . S
C714 C712 1.381 . S
C714 C715 1.394 . S
C714 H722 0.930 . S
C715 C714 1.394 . S
C715 C716 1.383 . S
C715 H723 0.929 . S
C716 C715 1.383 . S
C716 C717 1.377 . S
C717 H701 0.930 . S
C717 C716 1.377 . S
C717 C718 1.379 . S
C718 H702 0.931 . S
C718 C712 1.383 . S
C718 C717 1.379 . S
H719 C713 0.959 . S
H720 C713 0.961 . S
H721 C713 0.960 . S
H722 C714 0.930 . S
H723 C715 0.929 . S
H724 C732 0.929 . S
H725 C734 0.930 . S
H726 C736 0.930 1_554 S
H727 C739 0.929 . S
H728 C742 0.930 . S
H729 C744 0.965 . S
H730 C744 0.960 . S
H731 C744 0.960 1_554 S
C732 H724 0.929 . S
C732 C733 1.377 . S
C732 C734 1.384 . S
C733 C732 1.377 . S
C733 C739 1.390 1_556 S
C734 H725 0.930 . S
C734 C732 1.384 . S
C734 C735 1.372 . S
C735 C734 1.372 . S
C735 C736 1.400 . S
C735 C740 1.490 . S
C736 H726 0.930 1_556 S
C736 C735 1.400 . S
C736 C739 1.386 1_556 S
H737 C753 0.930 . S
H738 C754 0.931 . S
C739 H727 0.929 . S
C739 C733 1.390 1_554 S
C739 C736 1.386 1_554 S
C740 C735 1.490 . S
C740 C742 1.395 . S
C740 C743 1.403 . S
H741 C747 0.930 . S
C742 H728 0.930 . S
C742 C740 1.395 . S
C742 C745 1.403 . S
C743 C740 1.403 . S
C743 C744 1.524 . S
C743 C747 1.400 . S
C744 H729 0.965 . S
C744 H730 0.960 . S
C744 H731 0.960 1_556 S
C744 C743 1.524 . S
C745 C742 1.403 . S
C745 C746 1.392 . S
C745 C749 1.495 . S
C746 C745 1.392 . S
C746 C747 1.385 . S
C746 C748 1.478 . S
C747 H741 0.930 . S
C747 C743 1.400 . S
C747 C746 1.385 . S
C748 C746 1.478 . S
C748 C750 1.381 . S
C748 C754 1.383 . S
C749 C745 1.495 . S
C749 H755 0.959 . S
C749 H756 0.961 . S
C749 H757 0.960 . S
C750 C748 1.381 . S
C750 C751 1.394 . S
C750 H758 0.930 . S
C751 C750 1.394 . S
C751 C752 1.383 . S
C751 H759 0.929 . S
C752 C751 1.383 . S
C752 C753 1.377 . S
C753 H737 0.930 . S
C753 C752 1.377 . S
C753 C754 1.379 . S
C754 H738 0.931 . S
C754 C748 1.383 . S
C754 C753 1.379 . S
H755 C749 0.959 . S
H756 C749 0.961 . S
H757 C749 0.960 . S
H758 C750 0.930 . S
H759 C751 0.929 . S
H760 C768 0.929 . S
H761 C770 0.930 . S
H762 C772 0.930 . S
H763 C775 0.929 . S
H764 C778 0.930 . S
H765 C780 0.960 1_655 S
H766 C780 0.960 . S
H767 C780 0.960 . S
C768 H760 0.929 . S
C768 C769 1.377 . S
C768 C770 1.384 . S
C769 C768 1.377 . S
C769 C775 1.390 . S
C770 H761 0.930 . S
C770 C768 1.384 . S
C770 C771 1.372 . S
C771 C770 1.372 . S
C771 C772 1.400 . S
C771 C776 1.490 . S
C772 H762 0.930 . S
C772 C771 1.400 . S
C772 C775 1.386 . S
H773 C789 0.930 . S
H774 C790 0.931 . S
C775 H763 0.929 . S
C775 C769 1.390 . S
C775 C772 1.386 . S
C776 C771 1.490 . S
C776 C778 1.395 . S
C776 C779 1.403 . S
H777 C783 0.930 . S
C778 H764 0.930 . S
C778 C776 1.395 . S
C778 C781 1.403 . S
C779 C776 1.403 . S
C779 C780 1.524 . S
C779 C783 1.400 1_554 S
C780 H765 0.960 1_455 S
C780 H766 0.960 . S
C780 H767 0.960 . S
C780 C779 1.524 . S
C781 C778 1.403 . S
C781 C782 1.392 1_554 S
C781 C785 1.495 . S
C782 C781 1.392 1_556 S
C782 C783 1.385 . S
C782 C784 1.478 . S
C783 H777 0.930 . S
C783 C779 1.400 1_556 S
C783 C782 1.385 . S
C784 C782 1.478 . S
C784 C786 1.381 . S
C784 C790 1.383 . S
C785 C781 1.495 . S
C785 H791 0.959 . S
C785 H792 0.961 . S
C785 H793 0.960 1_554 S
C786 C784 1.381 . S
C786 C787 1.394 . S
C786 H794 0.930 . S
C787 C786 1.394 . S
C787 C788 1.383 . S
C787 H795 0.929 . S
C788 C787 1.383 . S
C788 C789 1.377 . S
C789 H773 0.930 . S
C789 C788 1.377 . S
C789 C790 1.379 . S
C790 H774 0.931 . S
C790 C784 1.383 . S
C790 C789 1.379 . S
H791 C785 0.959 . S
H792 C785 0.961 . S
H793 C785 0.960 1_556 S
H794 C786 0.930 . S
H795 C787 0.929 . S
H796 C804 0.929 . S
H797 C806 0.930 . S
H798 C808 0.930 . S
H799 C811 0.929 . S
H800 C814 0.930 . S
H801 C816 0.960 . S
H802 C816 0.960 . S
H803 C816 0.960 . S
C804 H796 0.929 . S
C804 C805 1.377 . S
C804 C806 1.384 . S
C805 C804 1.377 . S
C805 C811 1.390 . S
C806 H797 0.930 . S
C806 C804 1.384 . S
C806 C807 1.372 . S
C807 C806 1.372 . S
C807 C808 1.400 . S
C807 C812 1.490 . S
C808 H798 0.930 . S
C808 C807 1.400 . S
C808 C811 1.386 . S
H809 C825 0.930 . S
H810 C826 0.931 . S
C811 H799 0.929 . S
C811 C805 1.390 . S
C811 C808 1.386 . S
C812 C807 1.490 . S
C812 C814 1.395 . S
C812 C815 1.403 . S
H813 C819 0.930 . S
C814 H800 0.930 . S
C814 C812 1.395 . S
C814 C817 1.403 1_554 S
C815 C812 1.403 . S
C815 C816 1.524 . S
C815 C819 1.400 1_554 S
C816 H801 0.960 . S
C816 H802 0.960 . S
C816 H803 0.960 . S
C816 C815 1.524 . S
C817 C814 1.403 1_556 S
C817 C818 1.392 . S
C817 C821 1.495 1_545 S
C818 C817 1.392 . S
C818 C819 1.385 . S
C818 C820 1.478 . S
C819 H813 0.930 . S
C819 C815 1.400 1_556 S
C819 C818 1.385 . S
C820 C818 1.478 . S
C820 C822 1.381 . S
C820 C826 1.383 . S
C821 C817 1.495 1_565 S
C821 H827 0.959 . S
C821 H828 0.961 . S
C821 H829 0.960 . S
C822 C820 1.381 . S
C822 C823 1.394 . S
C822 H830 0.930 . S
C823 C822 1.394 . S
C823 C824 1.383 . S
C823 H831 0.900 1_545 S
C824 C823 1.383 . S
C824 C825 1.377 . S
C825 H809 0.930 . S
C825 C824 1.377 . S
C825 C826 1.379 . S
C826 H810 0.931 . S
C826 C820 1.383 . S
C826 C825 1.379 . S
H827 C821 0.959 . S
H828 C821 0.961 . S
H829 C821 0.960 . S
H830 C822 0.930 . S
H831 C823 0.900 1_565 S
H832 C840 0.929 . S
H833 C842 0.930 . S
H834 C844 0.931 1_556 S
H835 C847 0.929 . S
H836 C850 0.930 . S
H837 C852 0.960 . S
H838 C852 0.960 1_554 S
H839 C852 0.960 . S
C840 H832 0.929 . S
C840 C841 1.377 . S
C840 C842 1.384 . S
C841 C840 1.377 . S
C841 C847 1.390 . S
C842 H833 0.930 . S
C842 C840 1.384 . S
C842 C843 1.372 . S
C843 C842 1.372 . S
C843 C844 1.400 . S
C843 C848 1.490 . S
C844 H834 0.931 1_554 S
C844 C843 1.400 . S
C844 C847 1.386 . S
H845 C861 0.930 . S
H846 C862 0.931 . S
C847 H835 0.929 . S
C847 C841 1.390 . S
C847 C844 1.386 . S
C848 C843 1.490 . S
C848 C850 1.395 . S
C848 C851 1.403 1_554 S
H849 C855 0.930 . S
C850 H836 0.930 . S
C850 C848 1.395 . S
C850 C853 1.403 . S
C851 C848 1.403 1_556 S
C851 C852 1.524 . S
C851 C855 1.400 . S
C852 H837 0.960 . S
C852 H838 0.960 1_556 S
C852 H839 0.960 . S
C852 C851 1.524 . S
C853 C850 1.403 . S
C853 C854 1.392 1_554 S
C853 C857 1.495 . S
C854 C853 1.392 1_556 S
C854 C855 1.385 . S
C854 C856 1.478 . S
C855 H849 0.930 . S
C855 C851 1.400 . S
C855 C854 1.385 . S
C856 C854 1.478 . S
C856 C858 1.381 . S
C856 C862 1.383 . S
C857 C853 1.495 . S
C857 H863 0.959 . S
C857 H864 0.961 1_554 S
C857 H865 0.960 . S
C858 C856 1.381 . S
C858 C859 1.394 . S
C858 H866 0.930 . S
C859 C858 1.394 . S
C859 C860 1.383 . S
C859 H867 0.929 . S
C860 C859 1.383 . S
C860 C861 1.377 . S
C861 H845 0.930 . S
C861 C860 1.377 . S
C861 C862 1.379 . S
C862 H846 0.931 . S
C862 C856 1.383 . S
C862 C861 1.379 . S
H863 C857 0.959 . S
H864 C857 0.961 1_556 S
H865 C857 0.960 . S
H866 C858 0.930 . S
H867 C859 0.929 . S
H868 C876 0.929 . S
H869 C878 0.930 . S
H870 C880 0.930 . S
H871 C883 0.929 . S
H872 C886 0.930 . S
H873 C888 0.960 . S
H874 C888 0.960 . S
H875 C888 0.960 . S
C876 H868 0.929 . S
C876 C877 1.377 . S
C876 C878 1.384 . S
C877 C876 1.377 . S
C877 C883 1.390 . S
C878 H869 0.930 . S
C878 C876 1.384 . S
C878 C879 1.372 . S
C879 C878 1.372 . S
C879 C880 1.400 . S
C879 C884 1.490 . S
C880 H870 0.930 . S
C880 C879 1.400 . S
C880 C883 1.386 . S
H881 C897 0.930 . S
H882 C898 0.931 . S
C883 H871 0.929 . S
C883 C877 1.390 . S
C883 C880 1.386 . S
C884 C879 1.490 . S
C884 C886 1.395 . S
C884 C887 1.403 1_554 S
H885 C891 0.930 . S
C886 H872 0.930 . S
C886 C884 1.395 . S
C886 C889 1.403 . S
C887 C884 1.403 1_556 S
C887 C888 1.524 . S
C887 C891 1.400 . S
C888 H873 0.960 . S
C888 H874 0.960 . S
C888 H875 0.960 . S
C888 C887 1.524 . S
C889 C886 1.403 . S
C889 C890 1.392 1_554 S
C889 C893 1.495 . S
C890 C889 1.392 1_556 S
C890 C891 1.385 . S
C890 C892 1.478 . S
C891 H885 0.930 . S
C891 C887 1.400 . S
C891 C890 1.385 . S
C892 C890 1.478 . S
C892 C894 1.381 . S
C892 C898 1.383 . S
C893 C889 1.495 . S
C893 H899 0.959 . S
C893 H900 0.961 . S
C893 H901 0.960 . S
C894 C892 1.381 . S
C894 C895 1.394 . S
C894 H902 0.930 . S
C895 C894 1.394 . S
C895 C896 1.383 . S
C895 H903 0.929 . S
C896 C895 1.383 . S
C896 C897 1.377 . S
C897 H881 0.930 . S
C897 C896 1.377 . S
C897 C898 1.379 . S
C898 H882 0.931 . S
C898 C892 1.383 . S
C898 C897 1.379 . S
H899 C893 0.959 . S
H900 C893 0.961 . S
H901 C893 0.960 . S
H902 C894 0.930 . S
H903 C895 0.929 . S
H904 C912 0.929 . S
H905 C914 0.930 . S
H906 C916 0.930 . S
H907 C919 0.929 . S
H908 C922 0.929 . S
H909 C924 0.960 . S
H910 C924 0.960 . S
H911 C924 0.960 . S
C912 H904 0.929 . S
C912 C913 1.377 . S
C912 C914 1.384 . S
C913 C912 1.377 . S
C913 C919 1.390 . S
C914 H905 0.930 . S
C914 C912 1.384 . S
C914 C915 1.372 . S
C915 C914 1.372 . S
C915 C916 1.400 . S
C915 C920 1.490 . S
C916 H906 0.930 . S
C916 C915 1.400 . S
C916 C919 1.386 . S
H917 C933 0.930 . S
H918 C934 0.931 . S
C919 H907 0.929 . S
C919 C913 1.390 . S
C919 C916 1.386 . S
C920 C915 1.490 . S
C920 C922 1.395 . S
C920 C923 1.403 . S
H921 C927 0.930 . S
C922 H908 0.929 . S
C922 C920 1.395 . S
C922 C925 1.403 . S
C923 C920 1.403 . S
C923 C924 1.524 . S
C923 C927 1.400 . S
C924 H909 0.960 . S
C924 H910 0.960 . S
C924 H911 0.960 . S
C924 C923 1.524 . S
C925 C922 1.403 . S
C925 C926 1.392 . S
C925 C929 1.495 1_655 S
C926 C925 1.392 . S
C926 C927 1.385 . S
C926 C928 1.478 . S
C927 H921 0.930 . S
C927 C923 1.400 . S
C927 C926 1.385 . S
C928 C926 1.478 . S
C928 C930 1.381 . S
C928 C934 1.383 . S
C929 C925 1.495 1_455 S
C929 H935 0.959 . S
C929 H936 0.961 . S
C929 H937 0.960 . S
C930 C928 1.381 . S
C930 C931 1.394 . S
C930 H938 0.930 1_655 S
C931 C930 1.394 . S
C931 C932 1.383 . S
C931 H939 0.929 1_655 S
C932 C931 1.383 . S
C932 C933 1.377 . S
C933 H917 0.930 . S
C933 C932 1.377 . S
C933 C934 1.379 . S
C934 H918 0.931 . S
C934 C928 1.383 . S
C934 C933 1.379 . S
H935 C929 0.959 . S
H936 C929 0.961 . S
H937 C929 0.960 . S
H938 C930 0.930 1_455 S
H939 C931 0.929 1_455 S
H940 C948 0.929 . S
H941 C950 0.930 . S
H942 C952 0.930 . S
H943 C955 0.929 . S
H944 C958 0.930 . S
H945 C960 0.960 . S
H946 C960 0.960 . S
H947 C960 0.960 . S
C948 H940 0.929 . S
C948 C949 1.377 . S
C948 C950 1.384 . S
C949 C948 1.377 . S
C949 C955 1.390 . S
C950 H941 0.930 . S
C950 C948 1.384 . S
C950 C951 1.372 . S
C951 C950 1.372 . S
C951 C952 1.400 . S
C951 C956 1.490 . S
C952 H942 0.930 . S
C952 C951 1.400 . S
C952 C955 1.386 . S
H953 C969 0.930 . S
H954 C970 0.931 . S
C955 H943 0.929 . S
C955 C949 1.390 . S
C955 C952 1.386 . S
C956 C951 1.490 . S
C956 C958 1.395 . S
C956 C959 1.403 . S
H957 C963 0.930 . S
C958 H944 0.930 . S
C958 C956 1.395 . S
C958 C961 1.403 . S
C959 C956 1.403 . S
C959 C960 1.524 . S
C959 C963 1.400 . S
C960 H945 0.960 . S
C960 H946 0.960 . S
C960 H947 0.960 . S
C960 C959 1.524 . S
C961 C958 1.403 . S
C961 C962 1.392 . S
C961 C965 1.495 . S
C962 C961 1.392 . S
C962 C963 1.385 . S
C962 C964 1.478 . S
C963 H957 0.930 . S
C963 C959 1.400 . S
C963 C962 1.385 . S
C964 C962 1.478 . S
C964 C966 1.381 . S
C964 C970 1.383 1_565 S
C965 C961 1.495 . S
C965 H971 0.959 . S
C965 H972 0.961 1_565 S
C965 H973 0.960 . S
C966 C964 1.381 . S
C966 C967 1.394 . S
C966 H974 0.930 . S
C967 C966 1.394 . S
C967 C968 1.383 . S
C967 H975 0.929 . S
C968 C967 1.383 . S
C968 C969 1.377 1_565 S
C969 H953 0.930 . S
C969 C968 1.377 1_545 S
C969 C970 1.379 . S
C970 H954 0.931 . S
C970 C964 1.383 1_545 S
C970 C969 1.379 . S
H971 C965 0.959 . S
H972 C965 0.961 1_545 S
H973 C965 0.960 . S
H974 C966 0.930 . S
H975 C967 0.929 . S
H976 C984 0.929 . S
H977 C986 0.930 . S
H978 C988 0.930 . S
H979 C991 0.929 . S
H980 C994 0.930 . S
H981 C996 0.960 . S
H982 C996 0.960 . S
H983 C996 0.960 . S
C984 H976 0.929 . S
C984 C985 1.377 . S
C984 C986 1.384 . S
C985 C984 1.377 . S
C985 C991 1.390 . S
C986 H977 0.930 . S
C986 C984 1.384 . S
C986 C987 1.372 . S
C987 C986 1.372 . S
C987 C988 1.400 . S
C987 C992 1.490 . S
C988 H978 0.930 . S
C988 C987 1.400 . S
C988 C991 1.386 . S
H989 C1005 0.930 . S
H990 C1006 0.931 . S
C991 H979 0.929 . S
C991 C985 1.390 . S
C991 C988 1.386 . S
C992 C987 1.490 . S
C992 C994 1.395 . S
C992 C995 1.403 . S
H993 C999 0.930 . S
C994 H980 0.930 . S
C994 C992 1.395 . S
C994 C997 1.403 . S
C995 C992 1.403 . S
C995 C996 1.524 . S
C995 C999 1.400 . S
C996 H981 0.960 . S
C996 H982 0.960 . S
C996 H983 0.960 . S
C996 C995 1.524 . S
C997 C994 1.403 . S
C997 C998 1.392 . S
C997 C1001 1.495 . S
C998 C997 1.392 . S
C998 C999 1.385 . S
C998 C1000 1.478 . S
C999 H993 0.930 . S
C999 C995 1.400 . S
C999 C998 1.385 . S
C1000 C998 1.478 . S
C1000 C1002 1.381 . S
C1000 C1006 1.383 . S
C1001 C997 1.495 . S
C1001 H1007 0.959 . S
C1001 H1008 0.961 . S
C1001 H1009 0.960 . S
C1002 C1000 1.381 . S
C1002 C1003 1.394 . S
C1002 H1010 0.930 . S
C1003 C1002 1.394 . S
C1003 C1004 1.383 . S
C1003 H1011 0.929 . S
C1004 C1003 1.383 . S
C1004 C1005 1.377 . S
C1005 H989 0.930 . S
C1005 C1004 1.377 . S
C1005 C1006 1.379 . S
C1006 H990 0.931 . S
C1006 C1000 1.383 . S
C1006 C1005 1.379 . S
H1007 C1001 0.959 . S
H1008 C1001 0.961 . S
H1009 C1001 0.960 . S
H1010 C1002 0.930 . S
H1011 C1003 0.929 . S
H1012 C1020 0.929 . S
H1013 C1022 0.930 . S
H1014 C1024 0.930 . S
H1015 C1027 0.929 . S
H1016 C1030 0.930 . S
H1017 C1032 0.960 . S
H1018 C1032 0.960 . S
H1019 C1032 0.960 . S
C1020 H1012 0.929 . S
C1020 C1021 1.377 . S
C1020 C1022 1.384 . S
C1021 C1020 1.377 . S
C1021 C1027 1.390 . S
C1022 H1013 0.930 . S
C1022 C1020 1.384 . S
C1022 C1023 1.372 . S
C1023 C1022 1.372 . S
C1023 C1024 1.400 . S
C1023 C1028 1.490 . S
C1024 H1014 0.930 . S
C1024 C1023 1.400 . S
C1024 C1027 1.386 . S
H1025 C1041 0.930 . S
H1026 C1042 0.931 . S
C1027 H1015 0.929 . S
C1027 C1021 1.390 . S
C1027 C1024 1.386 . S
C1028 C1023 1.490 . S
C1028 C1030 1.395 . S
C1028 C1031 1.403 . S
H1029 C1035 0.930 . S
C1030 H1016 0.930 . S
C1030 C1028 1.395 . S
C1030 C1033 1.403 . S
C1031 C1028 1.403 . S
C1031 C1032 1.524 . S
C1031 C1035 1.400 . S
C1032 H1017 0.960 . S
C1032 H1018 0.960 . S
C1032 H1019 0.960 . S
C1032 C1031 1.524 . S
C1033 C1030 1.403 . S
C1033 C1034 1.392 . S
C1033 C1037 1.495 . S
C1034 C1033 1.392 . S
C1034 C1035 1.385 . S
C1034 C1036 1.478 . S
C1035 H1029 0.930 . S
C1035 C1031 1.400 . S
C1035 C1034 1.385 . S
C1036 C1034 1.478 . S
C1036 C1038 1.381 . S
C1036 C1042 1.383 . S
C1037 C1033 1.495 . S
C1037 H1043 0.959 . S
C1037 H1044 0.961 . S
C1037 H1045 0.960 . S
C1038 C1036 1.381 . S
C1038 C1039 1.394 . S
C1038 H1046 0.930 . S
C1039 C1038 1.394 . S
C1039 C1040 1.383 . S
C1039 H1047 0.929 . S
C1040 C1039 1.383 . S
C1040 C1041 1.377 . S
C1041 H1025 0.930 . S
C1041 C1040 1.377 . S
C1041 C1042 1.379 . S
C1042 H1026 0.931 . S
C1042 C1036 1.383 . S
C1042 C1041 1.379 . S
H1043 C1037 0.959 . S
H1044 C1037 0.961 . S
H1045 C1037 0.960 . S
H1046 C1038 0.930 . S
H1047 C1039 0.929 . S
C193 C82 1.533 . S
C212 C105 1.615 . S
C248 C140 1.620 . S
C229 C95 1.557 . S
C284 C145 1.294 . S
C265 C56 1.219 . S
C320 C165 1.394 . S
C301 C69 1.356 . S
C356 C113 1.613 1_565 S
C337 C30 1.490 1_556 S
C373 C43 1.489 . S
C392 C130 1.626 . S
C409 C4 1.196 . S
C428 C153 1.290 . S
C445 C17 1.307 . S
C464 C173 1.396 1_655 S
C500 C123 1.111 . S
C481 C74 1.084 . S
C536 C132 0.817 . S
C517 C87 0.785 . S
C572 C163 1.185 . S
C553 C100 1.211 . S
C589 C61 0.849 . S
C608 C183 0.875 . S
C625 C22 1.088 . S
C644 C112 1.064 1_655 S
C680 C143 0.830 1_565 S
C661 C35 0.799 1_556 S
C716 C152 1.206 . S
C697 C48 1.197 . S
C733 C9 0.846 1_556 S
C752 C172 0.890 . S
C769 C73 1.470 . S
C788 C110 1.468 . S
C805 C86 1.402 . S
C824 C133 1.451 . S
C860 C150 1.585 . S
C841 C99 1.558 . S
C896 C170 1.587 . S
C877 C60 1.579 . S
C913 C21 1.467 . S
C932 C120 1.469 . S
C968 C125 1.470 . S
C949 C34 1.404 . S
C1004 C160 1.586 . S
C985 C47 1.550 . S
C1021 C8 1.582 . S
C1040 C180 1.607 . S
