# Generated by pormake.
# Topology ctn, (3,4)-cn, num edge types: 1
# Building blocks:
#     Node 0, Type 0, BuildingBlock: BELTOD_clean_linker_0, # of connection points: 3
#     Node 1, Type 0, BuildingBlock: BELTOD_clean_linker_0, # of connection points: 3
#     Node 2, Type 0, BuildingBlock: BELTOD_clean_linker_0, # of connection points: 3
#     Node 3, Type 0, BuildingBlock: BELTOD_clean_linker_0, # of connection points: 3
#     Node 4, Type 0, BuildingBlock: BELTOD_clean_linker_0, # of connection points: 3
#     Node 5, Type 0, BuildingBlock: BELTOD_clean_linker_0, # of connection points: 3
#     Node 6, Type 0, BuildingBlock: BELTOD_clean_linker_0, # of connection points: 3
#     Node 7, Type 0, BuildingBlock: BELTOD_clean_linker_0, # of connection points: 3
#     Node 8, Type 0, BuildingBlock: BELTOD_clean_linker_0, # of connection points: 3
#     Node 9, Type 0, BuildingBlock: BELTOD_clean_linker_0, # of connection points: 3
#     Node 10, Type 0, BuildingBlock: BELTOD_clean_linker_0, # of connection points: 3
#     Node 11, Type 0, BuildingBlock: BELTOD_clean_linker_0, # of connection points: 3
#     Node 12, Type 0, BuildingBlock: BELTOD_clean_linker_0, # of connection points: 3
#     Node 13, Type 0, BuildingBlock: BELTOD_clean_linker_0, # of connection points: 3
#     Node 14, Type 0, BuildingBlock: BELTOD_clean_linker_0, # of connection points: 3
#     Node 15, Type 0, BuildingBlock: BELTOD_clean_linker_0, # of connection points: 3
#     Node 16, Type 1, BuildingBlock: TATPOV_clean_sbu_0, # of connection points: 4
#     Node 17, Type 1, BuildingBlock: TATPOV_clean_sbu_0, # of connection points: 4
#     Node 18, Type 1, BuildingBlock: TATPOV_clean_sbu_0, # of connection points: 4
#     Node 19, Type 1, BuildingBlock: TATPOV_clean_sbu_0, # of connection points: 4
#     Node 20, Type 1, BuildingBlock: TATPOV_clean_sbu_0, # of connection points: 4
#     Node 21, Type 1, BuildingBlock: TATPOV_clean_sbu_0, # of connection points: 4
#     Node 22, Type 1, BuildingBlock: TATPOV_clean_sbu_0, # of connection points: 4
#     Node 23, Type 1, BuildingBlock: TATPOV_clean_sbu_0, # of connection points: 4
#     Node 24, Type 1, BuildingBlock: TATPOV_clean_sbu_0, # of connection points: 4
#     Node 25, Type 1, BuildingBlock: TATPOV_clean_sbu_0, # of connection points: 4
#     Node 26, Type 1, BuildingBlock: TATPOV_clean_sbu_0, # of connection points: 4
#     Node 27, Type 1, BuildingBlock: TATPOV_clean_sbu_0, # of connection points: 4
#     Edge 28, Type (0, 1), BuildingBlock: AJUNOK_clean_linker_0, # of connection points: 2
#     Edge 29, Type (0, 1), BuildingBlock: AJUNOK_clean_linker_0, # of connection points: 2
#     Edge 30, Type (0, 1), BuildingBlock: AJUNOK_clean_linker_0, # of connection points: 2
#     Edge 31, Type (0, 1), BuildingBlock: AJUNOK_clean_linker_0, # of connection points: 2
#     Edge 32, Type (0, 1), BuildingBlock: AJUNOK_clean_linker_0, # of connection points: 2
#     Edge 33, Type (0, 1), BuildingBlock: AJUNOK_clean_linker_0, # of connection points: 2
#     Edge 34, Type (0, 1), BuildingBlock: AJUNOK_clean_linker_0, # of connection points: 2
#     Edge 35, Type (0, 1), BuildingBlock: AJUNOK_clean_linker_0, # of connection points: 2
#     Edge 36, Type (0, 1), BuildingBlock: AJUNOK_clean_linker_0, # of connection points: 2
#     Edge 37, Type (0, 1), BuildingBlock: AJUNOK_clean_linker_0, # of connection points: 2
#     Edge 38, Type (0, 1), BuildingBlock: AJUNOK_clean_linker_0, # of connection points: 2
#     Edge 39, Type (0, 1), BuildingBlock: AJUNOK_clean_linker_0, # of connection points: 2
#     Edge 40, Type (0, 1), BuildingBlock: AJUNOK_clean_linker_0, # of connection points: 2
#     Edge 41, Type (0, 1), BuildingBlock: AJUNOK_clean_linker_0, # of connection points: 2
#     Edge 42, Type (0, 1), BuildingBlock: AJUNOK_clean_linker_0, # of connection points: 2
#     Edge 43, Type (0, 1), BuildingBlock: AJUNOK_clean_linker_0, # of connection points: 2
#     Edge 44, Type (0, 1), BuildingBlock: AJUNOK_clean_linker_0, # of connection points: 2
#     Edge 45, Type (0, 1), BuildingBlock: AJUNOK_clean_linker_0, # of connection points: 2
#     Edge 46, Type (0, 1), BuildingBlock: AJUNOK_clean_linker_0, # of connection points: 2
#     Edge 47, Type (0, 1), BuildingBlock: AJUNOK_clean_linker_0, # of connection points: 2
#     Edge 48, Type (0, 1), BuildingBlock: AJUNOK_clean_linker_0, # of connection points: 2
#     Edge 49, Type (0, 1), BuildingBlock: AJUNOK_clean_linker_0, # of connection points: 2
#     Edge 50, Type (0, 1), BuildingBlock: AJUNOK_clean_linker_0, # of connection points: 2
#     Edge 51, Type (0, 1), BuildingBlock: AJUNOK_clean_linker_0, # of connection points: 2
#     Edge 52, Type (0, 1), BuildingBlock: AJUNOK_clean_linker_0, # of connection points: 2
#     Edge 53, Type (0, 1), BuildingBlock: AJUNOK_clean_linker_0, # of connection points: 2
#     Edge 54, Type (0, 1), BuildingBlock: AJUNOK_clean_linker_0, # of connection points: 2
#     Edge 55, Type (0, 1), BuildingBlock: AJUNOK_clean_linker_0, # of connection points: 2
#     Edge 56, Type (0, 1), BuildingBlock: AJUNOK_clean_linker_0, # of connection points: 2
#     Edge 57, Type (0, 1), BuildingBlock: AJUNOK_clean_linker_0, # of connection points: 2
#     Edge 58, Type (0, 1), BuildingBlock: AJUNOK_clean_linker_0, # of connection points: 2
#     Edge 59, Type (0, 1), BuildingBlock: AJUNOK_clean_linker_0, # of connection points: 2
#     Edge 60, Type (0, 1), BuildingBlock: AJUNOK_clean_linker_0, # of connection points: 2
#     Edge 61, Type (0, 1), BuildingBlock: AJUNOK_clean_linker_0, # of connection points: 2
#     Edge 62, Type (0, 1), BuildingBlock: AJUNOK_clean_linker_0, # of connection points: 2
#     Edge 63, Type (0, 1), BuildingBlock: AJUNOK_clean_linker_0, # of connection points: 2
#     Edge 64, Type (0, 1), BuildingBlock: AJUNOK_clean_linker_0, # of connection points: 2
#     Edge 65, Type (0, 1), BuildingBlock: AJUNOK_clean_linker_0, # of connection points: 2
#     Edge 66, Type (0, 1), BuildingBlock: AJUNOK_clean_linker_0, # of connection points: 2
#     Edge 67, Type (0, 1), BuildingBlock: AJUNOK_clean_linker_0, # of connection points: 2
#     Edge 68, Type (0, 1), BuildingBlock: AJUNOK_clean_linker_0, # of connection points: 2
#     Edge 69, Type (0, 1), BuildingBlock: AJUNOK_clean_linker_0, # of connection points: 2
#     Edge 70, Type (0, 1), BuildingBlock: AJUNOK_clean_linker_0, # of connection points: 2
#     Edge 71, Type (0, 1), BuildingBlock: AJUNOK_clean_linker_0, # of connection points: 2
#     Edge 72, Type (0, 1), BuildingBlock: AJUNOK_clean_linker_0, # of connection points: 2
#     Edge 73, Type (0, 1), BuildingBlock: AJUNOK_clean_linker_0, # of connection points: 2
#     Edge 74, Type (0, 1), BuildingBlock: AJUNOK_clean_linker_0, # of connection points: 2
#     Edge 75, Type (0, 1), BuildingBlock: AJUNOK_clean_linker_0, # of connection points: 2
# Relax obj value: 0.003
# Max RMSD: 0.049
# Mean RMSD: 0.025
data_MOF--net-ctn--node1-TATPOV_clean_sbu_0--node2-BELTOD_clean_linker_0--edge1-AJUNOK_clean_linker_0
_symmetry_space_group_name_H-M    P1
_symmetry_Int_Tables_number       1
_symmetry_cell_setting            triclinic
loop_
_symmetry_equiv_pos_as_xyz
'x, y, z'
_cell_length_a     47.306442
_cell_length_b     47.685329
_cell_length_c     47.218023
_cell_angle_alpha  90.488507
_cell_angle_beta   91.35244
_cell_angle_gamma 92.063617
loop_
_atom_site_label
_atom_site_type_symbol
_atom_site_fract_x
_atom_site_fract_y
_atom_site_fract_z
_atom_type_partial_charge
P0 P 0.05964 0.06131 0.05485 0.0
H1 H 0.05128 0.04541 0.11345 0.0
H2 H 0.00903 0.03715 0.14145 0.0
H3 H 0.95651 0.04694 0.06636 0.0
H4 H 0.99898 0.05591 0.03856 0.0
H5 H 0.11882 0.05476 0.04226 0.0
H6 H 0.14681 0.01404 0.03198 0.0
H7 H 0.07113 0.96065 0.03332 0.0
H8 H 0.04327 0.00162 0.04447 0.0
H9 H 0.05166 0.12129 0.05077 0.0
H10 H 0.04889 0.05003 0.99387 0.0
O11 O 0.08083 0.08027 0.07702 0.0
H12 H 0.04256 0.15242 0.01102 0.0
H13 H 0.03894 0.08107 0.95389 0.0
C14 C 0.02825 0.05188 0.07409 0.0
C15 C 0.03068 0.04569 0.10298 0.0
C16 C 0.0065 0.04084 0.11894 0.0
C17 C 0.97937 0.04192 0.10626 0.0
C18 C 0.97707 0.04674 0.07692 0.0
C19 C 0.00134 0.05168 0.06096 0.0
C20 C 0.07906 0.03116 0.04449 0.0
C21 C 0.1082 0.03432 0.04016 0.0
C22 C 0.12416 0.01103 0.034 0.0
C23 C 0.11119 0.98408 0.03157 0.0
C24 C 0.08176 0.9811 0.03519 0.0
C25 C 0.0658 0.00449 0.04148 0.0
C26 C 0.05162 0.08347 0.02516 0.0
C27 C 0.04908 0.11234 0.02967 0.0
C28 C 0.04368 0.1301 0.00694 0.0
C29 C 0.04045 0.11931 0.9792 0.0
C30 C 0.04207 0.09014 0.97488 0.0
C31 C 0.04759 0.07236 0.99771 0.0
P32 P 0.2801 0.68642 0.21431 0.0
H33 H 0.30706 0.72906 0.17955 0.0
H34 H 0.28887 0.76201 0.14482 0.0
H35 H 0.20348 0.73378 0.16233 0.0
H36 H 0.22163 0.70144 0.19799 0.0
H37 H 0.30564 0.65935 0.26311 0.0
H38 H 0.34066 0.67557 0.29914 0.0
H39 H 0.3392 0.75901 0.26422 0.0
H40 H 0.30291 0.74325 0.22998 0.0
H41 H 0.26072 0.63005 0.1966 0.0
H42 H 0.23919 0.6911 0.25972 0.0
O43 O 0.30141 0.66792 0.19426 0.0
H44 H 0.22502 0.59705 0.21473 0.0
H45 H 0.20305 0.65794 0.27794 0.0
C46 C 0.26578 0.71311 0.1918 0.0
C47 C 0.28438 0.73054 0.17664 0.0
C48 C 0.274 0.74936 0.15682 0.0
C49 C 0.24481 0.75055 0.1512 0.0
C50 C 0.22606 0.73339 0.16658 0.0
C51 C 0.23648 0.71491 0.18692 0.0
C52 C 0.30173 0.69997 0.24364 0.0
C53 C 0.31243 0.68129 0.26367 0.0
C54 C 0.33279 0.69049 0.28399 0.0
C55 C 0.34332 0.71845 0.28418 0.0
C56 C 0.3316 0.73733 0.26478 0.0
C57 C 0.31092 0.72822 0.24485 0.0
C58 C 0.25284 0.66283 0.22711 0.0
C59 C 0.2483 0.63638 0.21436 0.0
C60 C 0.22789 0.61754 0.2247 0.0
C61 C 0.21139 0.62498 0.24772 0.0
C62 C 0.2154 0.65181 0.26003 0.0
C63 C 0.23607 0.67063 0.24978 0.0
P64 P 0.00805 0.47349 0.04579 0.0
H65 H 0.02216 0.46626 0.9869 0.0
H66 H 0.01766 0.42652 0.95404 0.0
H67 H 0.98574 0.37399 0.02102 0.0
H68 H 0.9906 0.41407 0.05413 0.0
H69 H 0.99362 0.53245 0.04203 0.0
H70 H 0.94881 0.55547 0.03378 0.0
H71 H 0.9044 0.47475 0.03318 0.0
H72 H 0.94931 0.45177 0.04142 0.0
H73 H 0.04527 0.43388 0.07344 0.0
H74 H 0.98894 0.49828 0.09859 0.0
O75 O 0.03386 0.49545 0.03514 0.0
H76 H 0.06077 0.4286 0.12297 0.0
H77 H 0.00435 0.49303 0.14794 0.0
C78 C 0.00734 0.44295 0.02307 0.0
C79 C 0.01469 0.4461 0.99471 0.0
C80 C 0.01192 0.42343 0.9759 0.0
C81 C 0.00147 0.39715 0.98502 0.0
C82 C 0.99429 0.39389 0.01356 0.0
C83 C 0.99705 0.41673 0.03244 0.0
C84 C 0.97483 0.49038 0.04165 0.0
C85 C 0.97424 0.5197 0.04027 0.0
C86 C 0.94861 0.53286 0.03587 0.0
C87 C 0.92318 0.51686 0.03294 0.0
C88 C 0.92376 0.48752 0.03527 0.0
C89 C 0.94939 0.4744 0.03985 0.0
C90 C 0.01549 0.466 0.0824 0.0
C91 C 0.03572 0.44636 0.08966 0.0
C92 C 0.04464 0.44344 0.11789 0.0
C93 C 0.03387 0.46057 0.13913 0.0
C94 C 0.01316 0.47978 0.13188 0.0
C95 C 0.00415 0.48257 0.1037 0.0
P96 P 0.68221 0.80031 0.17106 0.0
H97 H 0.67374 0.8603 0.16724 0.0
H98 H 0.70363 0.90158 0.18002 0.0
H99 H 0.7719 0.84795 0.2031 0.0
H100 H 0.74188 0.80651 0.18989 0.0
H101 H 0.71607 0.79612 0.12115 0.0
H102 H 0.73584 0.75648 0.09633 0.0
H103 H 0.70835 0.70116 0.163 0.0
H104 H 0.68837 0.74097 0.18772 0.0
H105 H 0.68742 0.82066 0.23031 0.0
H106 H 0.63469 0.76146 0.18145 0.0
O107 O 0.65807 0.80916 0.14671 0.0
H108 H 0.65643 0.81453 0.27059 0.0
H109 H 0.60379 0.75503 0.22204 0.0
C110 C 0.70574 0.8304 0.17725 0.0
C111 C 0.6953 0.8574 0.17455 0.0
C112 C 0.71231 0.88095 0.18203 0.0
C113 C 0.73998 0.8779 0.19272 0.0
C114 C 0.7507 0.85085 0.19472 0.0
C115 C 0.7336 0.82722 0.18722 0.0
C116 C 0.70075 0.77153 0.15623 0.0
C117 C 0.71481 0.77557 0.13073 0.0
C118 C 0.72623 0.75291 0.11664 0.0
C119 C 0.72384 0.72573 0.12785 0.0
C120 C 0.71046 0.72187 0.15388 0.0
C121 C 0.69907 0.74464 0.16803 0.0
C122 C 0.66331 0.79158 0.20273 0.0
C123 C 0.66959 0.80586 0.22835 0.0
C124 C 0.65189 0.80234 0.25145 0.0
C125 C 0.62782 0.78425 0.24943 0.0
C126 C 0.62245 0.76878 0.2243 0.0
C127 C 0.64001 0.77254 0.20109 0.0
P128 P 0.06154 0.93724 0.41261 0.0
H129 H 0.10206 0.9436 0.46006 0.0
H130 H 0.13993 0.97865 0.47082 0.0
H131 H 0.11172 0.02818 0.40014 0.0
H132 H 0.07466 0.99261 0.3888 0.0
H133 H 0.06748 0.87906 0.43046 0.0
H134 H 0.04858 0.85238 0.47022 0.0
H135 H 0.00843 0.92636 0.50061 0.0
H136 H 0.02753 0.9531 0.46079 0.0
H137 H 0.03285 0.91581 0.36097 0.0
H138 H 0.02431 0.98452 0.4198 0.0
O139 O 0.07996 0.91609 0.39227 0.0
H140 H 0.99153 0.93105 0.33382 0.0
H141 H 0.98302 0.99991 0.39261 0.0
C142 C 0.08523 0.96571 0.42393 0.0
C143 C 0.10361 0.9623 0.44727 0.0
C144 C 0.12522 0.98236 0.45344 0.0
C145 C 0.12892 0.00598 0.43614 0.0
C146 C 0.10961 0.00996 0.41358 0.0
C147 C 0.0882 0.98978 0.40727 0.0
C148 C 0.04863 0.91798 0.44252 0.0
C149 C 0.0547 0.88962 0.44567 0.0
C150 C 0.04399 0.8744 0.46844 0.0
C151 C 0.02687 0.88729 0.48826 0.0
C152 C 0.02123 0.91586 0.48534 0.0
C153 C 0.03213 0.93112 0.46265 0.0
C154 C 0.03178 0.94922 0.39222 0.0
C155 C 0.02222 0.9343 0.36793 0.0
C156 C 0.99866 0.94301 0.35242 0.0
C157 C 0.98406 0.96656 0.36121 0.0
C158 C 0.99369 0.98147 0.38559 0.0
C159 C 0.01731 0.97277 0.40105 0.0
P160 P 0.2428 0.76055 0.74106 0.0
H161 H 0.27442 0.79904 0.77964 0.0
H162 H 0.26641 0.81485 0.82813 0.0
H163 H 0.18816 0.76551 0.82875 0.0
H164 H 0.196 0.74997 0.78003 0.0
H165 H 0.29126 0.73615 0.71364 0.0
H166 H 0.31269 0.69045 0.71705 0.0
H167 H 0.24754 0.66298 0.77426 0.0
H168 H 0.22731 0.70925 0.77212 0.0
H169 H 0.21949 0.80219 0.70318 0.0
H170 H 0.19491 0.71966 0.73267 0.0
O171 O 0.26645 0.78254 0.72649 0.0
H172 H 0.17501 0.80402 0.67586 0.0
H173 H 0.15032 0.72159 0.70556 0.0
C174 C 0.23578 0.77339 0.77613 0.0
C175 C 0.25533 0.7919 0.78999 0.0
C176 C 0.25068 0.80105 0.81764 0.0
C177 C 0.22664 0.79146 0.83206 0.0
C178 C 0.20687 0.77319 0.81804 0.0
C179 C 0.21138 0.76429 0.79025 0.0
C180 C 0.2577 0.72624 0.74271 0.0
C181 C 0.28158 0.72032 0.72695 0.0
C182 C 0.29364 0.69399 0.72863 0.0
C183 C 0.28167 0.67284 0.74567 0.0
C184 C 0.25746 0.67881 0.76109 0.0
C185 C 0.24572 0.70527 0.75975 0.0
C186 C 0.21084 0.76057 0.71955 0.0
C187 C 0.20476 0.78429 0.70348 0.0
C188 C 0.17937 0.78534 0.68786 0.0
C189 C 0.15946 0.7628 0.6884 0.0
C190 C 0.16543 0.73917 0.70473 0.0
C191 C 0.19098 0.73802 0.72013 0.0
P192 P 0.98189 0.51207 0.53794 0.0
H193 H 0.02749 0.47535 0.52349 0.0
H194 H 0.05251 0.46773 0.47956 0.0
H195 H 0.0083 0.53558 0.44057 0.0
H196 H 0.98352 0.54335 0.48467 0.0
H197 H 0.01035 0.54702 0.58165 0.0
H198 H 0.00603 0.59598 0.59581 0.0
H199 H 0.94181 0.60571 0.53035 0.0
H200 H 0.94516 0.55612 0.51734 0.0
H201 H 0.96114 0.47525 0.49105 0.0
H202 H 0.92867 0.50969 0.56809 0.0
O203 O 0.9969 0.49497 0.56473 0.0
H204 H 0.91718 0.44804 0.48312 0.0
H205 H 0.88452 0.48173 0.56045 0.0
C206 C 0.00405 0.51028 0.50757 0.0
C207 C 0.02372 0.48911 0.50579 0.0
C208 C 0.03786 0.48463 0.48063 0.0
C209 C 0.03244 0.50117 0.45676 0.0
C210 C 0.0133 0.5229 0.45882 0.0
C211 C 0.99912 0.52734 0.48403 0.0
C212 C 0.97798 0.54797 0.54855 0.0
C213 C 0.99519 0.55962 0.57048 0.0
C214 C 0.99296 0.58773 0.57831 0.0
C215 C 0.97394 0.60488 0.56386 0.0
C216 C 0.95662 0.59303 0.54193 0.0
C217 C 0.9586 0.56477 0.53438 0.0
C218 C 0.9481 0.49485 0.53004 0.0
C219 C 0.94444 0.47741 0.50607 0.0
C220 C 0.91929 0.46168 0.50158 0.0
C221 C 0.8974 0.46287 0.52109 0.0
C222 C 0.90083 0.48082 0.54479 0.0
C223 C 0.92606 0.49666 0.54924 0.0
P224 P 0.85288 0.84232 0.85316 0.0
H225 H 0.89529 0.87068 0.81845 0.0
H226 H 0.91551 0.85879 0.77263 0.0
H227 H 0.8662 0.78081 0.77061 0.0
H228 H 0.84598 0.79276 0.816 0.0
H229 H 0.82392 0.88392 0.88625 0.0
H230 H 0.77921 0.90748 0.87847 0.0
H231 H 0.7694 0.86776 0.79616 0.0
H232 H 0.81397 0.84431 0.80396 0.0
H233 H 0.881 0.80759 0.89533 0.0
H234 H 0.80006 0.80827 0.85126 0.0
O235 O 0.87601 0.86119 0.87341 0.0
H236 H 0.8668 0.76311 0.91775 0.0
H237 H 0.78596 0.76416 0.87354 0.0
C238 C 0.86947 0.83245 0.82084 0.0
C239 C 0.8891 0.8509 0.80827 0.0
C240 C 0.9006 0.84412 0.78216 0.0
C241 C 0.89221 0.819 0.76808 0.0
C242 C 0.87273 0.80047 0.78088 0.0
C243 C 0.86137 0.8072 0.80697 0.0
C244 C 0.82256 0.86286 0.84547 0.0
C245 C 0.81248 0.88082 0.86627 0.0
C246 C 0.78698 0.89423 0.86183 0.0
C247 C 0.77107 0.88954 0.83663 0.0
C248 C 0.78136 0.87174 0.81572 0.0
C249 C 0.80693 0.85853 0.82009 0.0
C250 C 0.84147 0.81143 0.87195 0.0
C251 C 0.86007 0.79844 0.89083 0.0
C252 C 0.85199 0.77312 0.90359 0.0
C253 C 0.82539 0.76029 0.89717 0.0
C254 C 0.80666 0.77358 0.87862 0.0
C255 C 0.81466 0.79892 0.86606 0.0
P256 P 0.34973 0.33839 0.35715 0.0
H257 H 0.393 0.36781 0.32408 0.0
H258 H 0.415 0.35653 0.27902 0.0
H259 H 0.36572 0.27859 0.27404 0.0
H260 H 0.34384 0.28988 0.31891 0.0
H261 H 0.32515 0.39137 0.37436 0.0
H262 H 0.28001 0.41247 0.36245 0.0
H263 H 0.25776 0.34226 0.30694 0.0
H264 H 0.30256 0.321 0.31935 0.0
H265 H 0.38494 0.292 0.3729 0.0
H266 H 0.29905 0.31596 0.38581 0.0
O267 O 0.3706 0.36024 0.37676 0.0
H268 H 0.37448 0.24681 0.39535 0.0
H269 H 0.28844 0.27066 0.40775 0.0
C270 C 0.36721 0.32945 0.32505 0.0
C271 C 0.38722 0.34814 0.31345 0.0
C272 C 0.39979 0.34168 0.28779 0.0
C273 C 0.39221 0.31657 0.27328 0.0
C274 C 0.37193 0.29806 0.28485 0.0
C275 C 0.35954 0.30444 0.31053 0.0
C276 C 0.31735 0.35483 0.34742 0.0
C277 C 0.31069 0.38066 0.35943 0.0
C278 C 0.28498 0.39275 0.35251 0.0
C279 C 0.26559 0.37914 0.33349 0.0
C280 C 0.27235 0.35321 0.3216 0.0
C281 C 0.29803 0.34117 0.32852 0.0
C282 C 0.34261 0.30698 0.37699 0.0
C283 C 0.3639 0.28759 0.38068 0.0
C284 C 0.35789 0.26179 0.39336 0.0
C285 C 0.33049 0.2551 0.40267 0.0
C286 C 0.30966 0.27528 0.40056 0.0
C287 C 0.3157 0.30109 0.38783 0.0
P288 P 0.51507 0.98783 0.55302 0.0
H289 H 0.51997 0.98253 0.49233 0.0
H290 H 0.51398 0.94279 0.45955 0.0
H291 H 0.50253 0.88675 0.53 0.0
H292 H 0.50886 0.92686 0.56303 0.0
H293 H 0.49306 0.04423 0.54786 0.0
H294 H 0.44522 0.0607 0.53952 0.0
H295 H 0.41133 0.97607 0.54889 0.0
H296 H 0.4593 0.95958 0.55649 0.0
H297 H 0.57149 0.98537 0.57812 0.0
H298 H 0.48559 0.97383 0.60571 0.0
O299 O 0.53688 0.01244 0.53981 0.0
H300 H 0.5889 0.97904 0.6268 0.0
H301 H 0.50293 0.96769 0.65445 0.0
C302 C 0.5153 0.95757 0.53007 0.0
C303 C 0.51678 0.96165 0.50082 0.0
C304 C 0.5131 0.93899 0.48211 0.0
C305 C 0.50747 0.91182 0.4923 0.0
C306 C 0.50691 0.90752 0.52169 0.0
C307 C 0.51058 0.93035 0.5405 0.0
C308 C 0.47974 0.0006 0.5521 0.0
C309 C 0.47533 0.02926 0.54843 0.0
C310 C 0.44798 0.03868 0.54389 0.0
C311 C 0.42466 0.01956 0.54306 0.0
C312 C 0.42901 0.99115 0.54881 0.0
C313 C 0.45638 0.98173 0.5532 0.0
C314 C 0.52727 0.98065 0.58844 0.0
C315 C 0.55639 0.98148 0.59465 0.0
C316 C 0.5663 0.97802 0.62243 0.0
C317 C 0.54719 0.97348 0.64438 0.0
C318 C 0.51805 0.97137 0.63789 0.0
C319 C 0.50815 0.97495 0.61007 0.0
P320 P 0.199 0.2935 0.67316 0.0
H321 H 0.21828 0.3453 0.64558 0.0
H322 H 0.24918 0.38476 0.66155 0.0
H323 H 0.267 0.34147 0.73957 0.0
H324 H 0.23564 0.3021 0.7236 0.0
H325 H 0.18044 0.23438 0.66831 0.0
H326 H 0.19919 0.19489 0.64219 0.0
H327 H 0.27151 0.24699 0.61927 0.0
H328 H 0.25326 0.28596 0.64633 0.0
H329 H 0.14891 0.32083 0.69122 0.0
H330 H 0.19936 0.25277 0.72034 0.0
O331 O 0.17907 0.30516 0.64642 0.0
H332 H 0.11823 0.31467 0.73162 0.0
H333 H 0.16828 0.24641 0.7612 0.0
C334 C 0.22435 0.32098 0.68362 0.0
C335 C 0.22901 0.34414 0.66602 0.0
C336 C 0.2469 0.36661 0.67505 0.0
C337 C 0.26057 0.36616 0.70178 0.0
C338 C 0.2566 0.34242 0.71893 0.0
C339 C 0.23874 0.31994 0.70984 0.0
C340 C 0.21578 0.26293 0.65989 0.0
C341 C 0.20081 0.23702 0.65849 0.0
C342 C 0.21132 0.21459 0.64316 0.0
C343 C 0.23662 0.21796 0.62829 0.0
C344 C 0.25208 0.24365 0.63065 0.0
C345 C 0.24166 0.26596 0.64619 0.0
C346 C 0.176 0.28687 0.70243 0.0
C347 C 0.15322 0.30434 0.70618 0.0
C348 C 0.13585 0.30097 0.72941 0.0
C349 C 0.14107 0.28022 0.74962 0.0
C350 C 0.16383 0.26251 0.74585 0.0
C351 C 0.18146 0.26607 0.72254 0.0
P352 P 0.77699 0.1871 0.70707 0.0
H353 H 0.80155 0.24199 0.69181 0.0
H354 H 0.78505 0.27772 0.6592 0.0
H355 H 0.70412 0.23339 0.65078 0.0
H356 H 0.72053 0.19783 0.6836 0.0
H357 H 0.83244 0.16291 0.71445 0.0
H358 H 0.87422 0.17634 0.74367 0.0
H359 H 0.82866 0.24316 0.78166 0.0
H360 H 0.78678 0.2301 0.75176 0.0
H361 H 0.73767 0.14299 0.68651 0.0
H362 H 0.75709 0.1856 0.76595 0.0
O363 O 0.78894 0.16772 0.68061 0.0
H364 H 0.70239 0.11301 0.70965 0.0
H365 H 0.72166 0.15552 0.78924 0.0
C366 C 0.76216 0.21743 0.69066 0.0
C367 C 0.77983 0.24057 0.68401 0.0
C368 C 0.77035 0.26105 0.66537 0.0
C369 C 0.74319 0.25845 0.65267 0.0
C370 C 0.72504 0.23603 0.66049 0.0
C371 C 0.73445 0.21571 0.67932 0.0
C372 C 0.80667 0.19585 0.73058 0.0
C373 C 0.83128 0.1804 0.72909 0.0
C374 C 0.85509 0.18792 0.74587 0.0
C375 C 0.85447 0.21068 0.76481 0.0
C376 C 0.82944 0.2254 0.76728 0.0
C377 C 0.80567 0.21807 0.75016 0.0
C378 C 0.75042 0.16613 0.72461 0.0
C379 C 0.73437 0.14589 0.70895 0.0
C380 C 0.71407 0.12891 0.72212 0.0
C381 C 0.70952 0.13182 0.75125 0.0
C382 C 0.7251 0.15262 0.76683 0.0
C383 C 0.74531 0.1698 0.75353 0.0
P384 P 0.56104 0.56785 0.55509 0.0
H385 H 0.55611 0.56072 0.61602 0.0
H386 H 0.5162 0.54905 0.64616 0.0
H387 H 0.46183 0.5376 0.5719 0.0
H388 H 0.50198 0.54974 0.54172 0.0
H389 H 0.62128 0.55651 0.55979 0.0
H390 H 0.64842 0.5154 0.54909 0.0
H391 H 0.57252 0.47251 0.51607 0.0
H392 H 0.54517 0.51376 0.52758 0.0
H393 H 0.51911 0.6107 0.55061 0.0
H394 H 0.57778 0.57176 0.49533 0.0
O395 O 0.58209 0.58937 0.5749 0.0
H396 H 0.50661 0.64338 0.51318 0.0
H397 H 0.56563 0.60491 0.45779 0.0
C398 C 0.53188 0.55659 0.57669 0.0
C399 C 0.53566 0.55555 0.60617 0.0
C400 C 0.51287 0.54864 0.62338 0.0
C401 C 0.48589 0.54228 0.61139 0.0
C402 C 0.48234 0.54256 0.58172 0.0
C403 C 0.50524 0.54944 0.56449 0.0
C404 C 0.5811 0.53807 0.54484 0.0
C405 C 0.61038 0.53832 0.55024 0.0
C406 C 0.62596 0.51481 0.54398 0.0
C407 C 0.6126 0.49052 0.53208 0.0
C408 C 0.58333 0.49065 0.52584 0.0
C409 C 0.56771 0.51425 0.53221 0.0
C410 C 0.54896 0.58842 0.52561 0.0
C411 C 0.52894 0.60884 0.53023 0.0
C412 C 0.52206 0.62775 0.50894 0.0
C413 C 0.53544 0.62693 0.48271 0.0
C414 C 0.55495 0.60595 0.4778 0.0
C415 C 0.56184 0.58697 0.4992 0.0
P416 P 0.56415 0.44348 0.92769 0.0
H417 H 0.62019 0.44166 0.95337 0.0
H418 H 0.65549 0.47822 0.96765 0.0
H419 H 0.59597 0.54183 0.94695 0.0
H420 H 0.56038 0.50521 0.93342 0.0
H421 H 0.5676 0.38348 0.93951 0.0
H422 H 0.54868 0.35409 0.97733 0.0
H423 H 0.51525 0.42717 0.01729 0.0
H424 H 0.53449 0.4567 0.97938 0.0
H425 H 0.56071 0.48245 0.88046 0.0
H426 H 0.50254 0.43208 0.92951 0.0
O427 O 0.58223 0.42382 0.90557 0.0
H428 H 0.52085 0.49947 0.85205 0.0
H429 H 0.46307 0.44851 0.90104 0.0
C430 C 0.58802 0.47074 0.94152 0.0
C431 C 0.61458 0.46346 0.9523 0.0
C432 C 0.63463 0.48429 0.96062 0.0
C433 C 0.62843 0.51273 0.95811 0.0
C434 C 0.60125 0.51999 0.9488 0.0
C435 C 0.58104 0.49908 0.94085 0.0
C436 C 0.55235 0.42223 0.95668 0.0
C437 C 0.55647 0.39328 0.95651 0.0
C438 C 0.54571 0.3765 0.97812 0.0
C439 C 0.53038 0.3884 -0.0 0.0
C440 C 0.52676 0.41752 0.00044 0.0
C441 C 0.53783 0.43435 0.97897 0.0
C442 C 0.53461 0.45674 0.90774 0.0
C443 C 0.53939 0.47533 0.88535 0.0
C444 C 0.51667 0.4849 0.86905 0.0
C445 C 0.48882 0.47578 0.87475 0.0
C446 C 0.48421 0.45663 0.89676 0.0
C447 C 0.50688 0.44717 0.91307 0.0
P448 P 0.74571 0.2656 0.24376 0.0
H449 H 0.77584 0.30786 0.27953 0.0
H450 H 0.76797 0.32563 0.32738 0.0
H451 H 0.69325 0.27151 0.33272 0.0
H452 H 0.70072 0.25423 0.28452 0.0
H453 H 0.79028 0.23938 0.21186 0.0
H454 H 0.81211 0.19366 0.21518 0.0
H455 H 0.75608 0.17087 0.28281 0.0
H456 H 0.7353 0.21678 0.28023 0.0
H457 H 0.71883 0.305 0.20578 0.0
H458 H 0.70031 0.22195 0.23755 0.0
O459 O 0.76821 0.28757 0.22757 0.0
H460 H 0.6732 0.3038 0.18011 0.0
H461 H 0.65469 0.22075 0.21198 0.0
C462 C 0.73885 0.27975 0.27838 0.0
C463 C 0.75748 0.30013 0.29074 0.0
C464 C 0.75288 0.31042 0.318 0.0
C465 C 0.72979 0.30018 0.3335 0.0
C466 C 0.71105 0.2799 0.32105 0.0
C467 C 0.7154 0.26995 0.29359 0.0
C468 C 0.76157 0.23181 0.24624 0.0
C469 C 0.78294 0.22466 0.22765 0.0
C470 C 0.79529 0.19846 0.22941 0.0
C471 C 0.78627 0.17885 0.24967 0.0
C472 C 0.76421 0.18583 0.26763 0.0
C473 C 0.75214 0.21209 0.26605 0.0
C474 C 0.71317 0.26341 0.22322 0.0
C475 C 0.70514 0.28638 0.20695 0.0
C476 C 0.6791 0.2857 0.19233 0.0
C477 C 0.66047 0.26224 0.1942 0.0
C478 C 0.6686 0.23919 0.21042 0.0
C479 C 0.69476 0.23979 0.22486 0.0
P480 P 0.4732 0.00746 0.04366 0.0
H481 H 0.5025 0.04852 0.00643 0.0
H482 H 0.52616 0.04297 0.96148 0.0
H483 H 0.50946 0.95335 0.96462 0.0
H484 H 0.48422 0.95928 0.0086 0.0
H485 H 0.48781 0.03844 0.09589 0.0
H486 H 0.48406 0.08752 0.10974 0.0
H487 H 0.44422 0.10474 0.02882 0.0
H488 H 0.44735 0.05522 0.01527 0.0
H489 H 0.44739 0.9624 0.07707 0.0
H490 H 0.42587 0.00976 0.00265 0.0
O491 O 0.49336 0.99218 0.06812 0.0
H492 H 0.4052 0.93197 0.06898 0.0
H493 H 0.3833 0.97946 0.99476 0.0
C494 C 0.49097 0.00435 0.01056 0.0
C495 C 0.50344 0.02774 0.99726 0.0
C496 C 0.51743 0.02448 0.97173 0.0
C497 C 0.51989 0.99768 0.95953 0.0
C498 C 0.50765 0.97432 0.97322 0.0
C499 C 0.49331 0.97766 0.99843 0.0
C500 C 0.4683 0.04327 0.05433 0.0
C501 C 0.47818 0.05267 0.0811 0.0
C502 C 0.4762 0.0808 0.08895 0.0
C503 C 0.46449 0.10007 0.07008 0.0
C504 C 0.45348 0.09035 0.04372 0.0
C505 C 0.45528 0.0621 0.03596 0.0
C506 C 0.43981 0.98829 0.0404 0.0
C507 C 0.43338 0.96658 0.05927 0.0
C508 C 0.40934 0.94916 0.05462 0.0
C509 C 0.39128 0.95329 0.03111 0.0
C510 C 0.39692 0.97595 0.01306 0.0
C511 C 0.42115 0.99326 0.0176 0.0
Zn512 Zn 0.27118 0.81746 1e-05 0.0
Zn513 Zn 0.23458 0.85813 0.00444 0.0
O514 O 0.22717 0.83298 0.03985 0.0
O515 O 0.25566 0.79794 0.03366 0.0
O516 O 0.20613 0.88919 0.0067 0.0
O517 O 0.30326 0.84632 0.00484 0.0
O518 O 0.27296 0.87998 0.00817 0.0
C519 C 0.23694 0.80962 0.04778 0.0
C520 C 0.23682 0.81986 0.95066 0.0
O521 O 0.22665 0.84043 0.96409 0.0
O522 O 0.25643 0.80602 0.96174 0.0
C523 C 0.18308 0.88756 0.02007 0.0
O524 O 0.17651 0.86435 0.03358 0.0
C525 C 0.29844 0.87208 0.00809 0.0
Zn526 Zn 0.09501 0.42699 0.3067 0.0
Zn527 Zn 0.1207 0.47865 0.30069 0.0
O528 O 0.09782 0.48517 0.33615 0.0
O529 O 0.07676 0.44366 0.34135 0.0
O530 O 0.14272 0.51468 0.29399 0.0
O531 O 0.1335 0.40972 0.31135 0.0
O532 O 0.15288 0.45193 0.30676 0.0
C533 C 0.08135 0.46878 0.34981 0.0
C534 C 0.08142 0.45303 0.25352 0.0
O535 O 0.0974 0.47272 0.26399 0.0
O536 O 0.07699 0.43075 0.26742 0.0
C537 C 0.13257 0.53781 0.28635 0.0
O538 O 0.10501 0.53965 0.28347 0.0
C539 C 0.1554 0.42577 0.31062 0.0
Zn540 Zn 0.78678 0.59227 0.94716 0.0
Zn541 Zn 0.77794 0.6175 0.99738 0.0
O542 O 0.81101 0.59232 0.00741 0.0
O543 O 0.81701 0.57015 0.96701 0.0
O544 O 0.77164 0.6401 0.033 0.0
O545 O 0.79692 0.62916 0.92907 0.0
O546 O 0.78846 0.64935 0.96988 0.0
C547 C 0.82393 0.57439 0.99283 0.0
C548 C 0.73054 0.582 0.96704 0.0
O549 O 0.73995 0.59577 0.98875 0.0
O550 O 0.74619 0.57824 0.94607 0.0
C551 C 0.75179 0.63605 0.05035 0.0
O552 O 0.73389 0.61461 0.04627 0.0
C553 C 0.79552 0.65115 0.94406 0.0
Zn554 Zn 0.82753 0.01118 0.28307 0.0
Zn555 Zn 0.85921 0.01439 0.23678 0.0
O556 O 0.843 0.05433 0.23997 0.0
O557 O 0.81934 0.05205 0.27959 0.0
O558 O 0.88608 0.01647 0.20375 0.0
O559 O 0.86059 0.99989 0.3073 0.0
O560 O 0.88663 0.0039 0.26954 0.0
C561 C 0.82818 0.066 0.25869 0.0
C562 C 0.80818 0.97265 0.2386 0.0
O563 O 0.82959 0.9828 0.2257 0.0
O564 O 0.80265 0.98167 0.26308 0.0
C565 C 0.88445 0.03348 0.1832 0.0
O566 O 0.86334 0.05062 0.18207 0.0
C567 C 0.88442 0.99867 0.29589 0.0
Zn568 Zn 0.29271 0.0841 0.44423 0.0
Zn569 Zn 0.27544 0.10719 0.49203 0.0
O570 O 0.30814 0.08314 0.50664 0.0
O571 O 0.32064 0.06246 0.46721 0.0
O572 O 0.26103 0.1268 0.52661 0.0
O573 O 0.30412 0.12189 0.42889 0.0
O574 O 0.28867 0.14083 0.46787 0.0
C575 C 0.32361 0.06604 0.49373 0.0
C576 C 0.23463 0.07052 0.45389 0.0
O577 O 0.23998 0.08457 0.47664 0.0
O578 O 0.25383 0.06761 0.43601 0.0
C579 C 0.27745 0.13934 0.54469 0.0
O580 O 0.30493 0.13814 0.54171 0.0
C581 C 0.29978 0.1435 0.44365 0.0
Zn582 Zn 0.33353 0.50956 0.78905 0.0
Zn583 Zn 0.36692 0.51372 0.74372 0.0
O584 O 0.34674 0.5517 0.74352 0.0
O585 O 0.3204 0.54862 0.78131 0.0
O586 O 0.39485 0.5161 0.71186 0.0
O587 O 0.36725 0.5045 0.81516 0.0
O588 O 0.39404 0.50766 0.77784 0.0
C589 C 0.32906 0.56236 0.76017 0.0
C590 C 0.32114 0.46644 0.7465 0.0
O591 O 0.34114 0.47909 0.73351 0.0
O592 O 0.31381 0.47551 0.77044 0.0
C593 C 0.39178 0.52878 0.68847 0.0
O594 O 0.36822 0.54177 0.68327 0.0
C595 C 0.39152 0.50447 0.80446 0.0
Zn596 Zn 0.7754 0.3282 0.50087 0.0
Zn597 Zn 0.73784 0.36794 0.50579 0.0
O598 O 0.73103 0.34254 0.5411 0.0
O599 O 0.76083 0.3086 0.53492 0.0
O600 O 0.70909 0.39843 0.50901 0.0
O601 O 0.80692 0.35776 0.50489 0.0
O602 O 0.77571 0.39052 0.50894 0.0
C603 C 0.74177 0.31964 0.54913 0.0
C604 C 0.74034 0.33029 0.45176 0.0
O605 O 0.72983 0.35055 0.46539 0.0
O606 O 0.7601 0.31659 0.46275 0.0
C607 C 0.68368 0.39397 0.51656 0.0
O608 O 0.67508 0.36818 0.52228 0.0
C609 C 0.80138 0.38336 0.50823 0.0
Zn610 Zn 0.59879 0.93468 0.81347 0.0
Zn611 Zn 0.62365 0.98734 0.81167 0.0
O612 O 0.59816 0.99105 0.84571 0.0
O613 O 0.57676 0.94921 0.84679 0.0
O614 O 0.64393 0.02481 0.8077 0.0
O615 O 0.63808 0.91909 0.81981 0.0
O616 O 0.65665 0.96196 0.81844 0.0
C617 C 0.58056 0.97384 0.85686 0.0
C618 C 0.58863 0.96225 0.76069 0.0
O619 O 0.60337 0.98173 0.77316 0.0
O620 O 0.58337 0.93942 0.77338 0.0
C621 C 0.6334 0.04519 0.79446 0.0
O622 O 0.60728 0.04258 0.78447 0.0
C623 C 0.65961 0.93573 0.82118 0.0
Zn624 Zn 0.99575 0.2995 0.8369 0.0
Zn625 Zn 0.00439 0.25529 0.86789 0.0
O626 O 0.0409 0.25792 0.84378 0.0
O627 O 0.03525 0.29852 0.82283 0.0
O628 O 0.00989 0.22233 0.89433 0.0
O629 O 0.988 0.32361 0.87041 0.0
O630 O 0.00087 0.28831 0.89674 0.0
C631 C 0.05017 0.27758 0.82791 0.0
C632 C 0.95535 0.25572 0.82357 0.0
O633 O 0.96766 0.24405 0.8445 0.0
O634 O 0.96414 0.27952 0.81517 0.0
C635 C 0.02443 0.20103 0.88906 0.0
O636 O 0.03673 0.19929 0.86449 0.0
C637 C 0.99346 0.3137 0.8946 0.0
Zn638 Zn 0.4835 0.81174 0.34612 0.0
Zn639 Zn 0.49884 0.76841 0.37734 0.0
O640 O 0.53108 0.77111 0.34842 0.0
O641 O 0.51891 0.8079 0.32362 0.0
O642 O 0.5098 0.73706 0.4037 0.0
O643 O 0.48378 0.83746 0.37957 0.0
O644 O 0.49771 0.80227 0.40562 0.0
C645 C 0.53588 0.78848 0.32854 0.0
C646 C 0.44232 0.76648 0.34321 0.0
O647 O 0.46022 0.75457 0.35931 0.0
O648 O 0.44718 0.79126 0.33478 0.0
C649 C 0.50969 0.71106 0.39746 0.0
O650 O 0.50219 0.70292 0.37162 0.0
C651 C 0.49098 0.82787 0.40344 0.0
Zn652 Zn 0.93808 0.77595 0.5989 0.0
Zn653 Zn 0.99026 0.77544 0.62471 0.0
O654 O 0.99589 0.80471 0.59378 0.0
O655 O 0.95402 0.8059 0.57256 0.0
O656 O 0.02857 0.77374 0.64401 0.0
O657 O 0.92193 0.78705 0.63662 0.0
O658 O 0.96428 0.7866 0.6568 0.0
C659 C 0.97964 0.81456 0.57472 0.0
C660 C 0.96395 0.72232 0.59568 0.0
O661 O 0.98386 0.73557 0.60926 0.0
O662 O 0.94148 0.7346 0.58893 0.0
C663 C 0.05059 0.77092 0.62948 0.0
O664 O 0.04795 0.76944 0.60175 0.0
C665 C 0.93782 0.79027 0.65846 0.0
Zn666 Zn 0.43777 0.27362 0.10476 0.0
Zn667 Zn 0.49021 0.27035 0.1299 0.0
O668 O 0.49687 0.29978 0.09946 0.0
O669 O 0.45485 0.30375 0.07916 0.0
O670 O 0.52816 0.26732 0.14944 0.0
O671 O 0.42251 0.28466 0.1431 0.0
O672 O 0.46523 0.28247 0.1621 0.0
C673 C 0.48087 0.31106 0.0811 0.0
C674 C 0.46138 0.21861 0.10074 0.0
O675 O 0.48181 0.23081 0.11452 0.0
O676 O 0.43973 0.23218 0.09388 0.0
C677 C 0.55091 0.26571 0.13584 0.0
O678 O 0.5497 0.26628 0.10802 0.0
C679 C 0.4391 0.28723 0.16451 0.0
C680 C 0.22529 0.82689 0.87161 0.0
C681 C 0.22378 0.79867 0.86244 0.0
C682 C 0.22697 0.83387 0.90061 0.0
C683 C 0.22782 0.81282 0.92124 0.0
H684 H 0.22621 0.8436 0.85623 0.0
H685 H 0.22956 0.85576 0.90679 0.0
S686 S 0.2224 0.73598 0.90834 0.0
N687 N 0.22129 0.74974 0.87637 0.0
N688 N 0.22501 0.76282 0.9307 0.0
C689 C 0.22491 0.78464 0.91235 0.0
C690 C 0.22274 0.77756 0.88298 0.0
C691 C 0.04244 0.46622 0.41913 0.0
C692 C 0.0449 0.49401 0.42923 0.0
C693 C 0.05386 0.45853 0.39328 0.0
C694 C 0.06841 0.47829 0.37644 0.0
H695 H 0.03139 0.45024 0.43126 0.0
H696 H 0.05145 0.43675 0.38666 0.0
S697 S 0.0805 0.55405 0.39354 0.0
N698 N 0.06272 0.5415 0.42061 0.0
N699 N 0.08431 0.52719 0.37182 0.0
C700 C 0.07083 0.50631 0.38623 0.0
C701 C 0.05901 0.51414 0.41262 0.0
C702 C 0.81798 0.72818 0.9382 0.0
C703 C 0.81759 0.73245 0.90879 0.0
C704 C 0.81038 0.70193 0.94947 0.0
C705 C 0.80259 0.67892 0.93168 0.0
H706 H 0.82396 0.74533 0.95257 0.0
H707 H 0.811 0.69957 0.97227 0.0
S708 S 0.79869 0.67945 0.85301 0.0
N709 N 0.80905 0.71178 0.86207 0.0
N710 N 0.79492 0.66239 0.88304 0.0
C711 C 0.80226 0.68301 0.90217 0.0
C712 C 0.8097 0.70979 0.89078 0.0
C713 C 0.95957 0.97891 0.31563 0.0
C714 C 0.95858 0.97523 0.34511 0.0
C715 C 0.93561 0.98674 0.29996 0.0
C716 C 0.90965 0.99093 0.31311 0.0
H717 H 0.97907 0.97589 0.30463 0.0
H718 H 0.93747 0.98932 0.27729 0.0
S719 S 0.89603 0.983 0.38996 0.0
N720 N 0.92966 0.97569 0.38688 0.0
N721 N 0.88462 0.99049 0.3577 0.0
C722 C 0.90847 0.98721 0.3427 0.0
C723 C 0.93293 0.97937 0.3586 0.0
C724 C 0.27447 0.18843 0.60843 0.0
C725 C 0.24593 0.19575 0.60859 0.0
C726 C 0.28425 0.16954 0.58826 0.0
C727 C 0.2659 0.1572 0.56737 0.0
H728 H 0.28948 0.19769 0.6238 0.0
H729 H 0.30653 0.165 0.58879 0.0
S730 S 0.18905 0.16945 0.55864 0.0
N731 N 0.19939 0.18926 0.58605 0.0
N732 N 0.21752 0.15342 0.54853 0.0
C733 C 0.23711 0.16382 0.56776 0.0
C734 C 0.2272 0.18315 0.58825 0.0
C735 C 0.43634 0.55144 0.62591 0.0
C736 C 0.46134 0.53671 0.62995 0.0
C737 C 0.41378 0.5483 0.64456 0.0
C738 C 0.41528 0.53027 0.668 0.0
H739 H 0.43452 0.56618 0.60869 0.0
H740 H 0.39529 0.56063 0.64086 0.0
S741 S 0.47509 0.48468 0.68611 0.0
N742 N 0.48547 0.50181 0.65774 0.0
N743 N 0.44334 0.49595 0.6929 0.0
C744 C 0.43985 0.51467 0.67166 0.0
C745 C 0.46279 0.51789 0.65265 0.0
C746 C 0.72949 0.26216 0.60169 0.0
C747 C 0.7361 0.27576 0.62769 0.0
C748 C 0.7289 0.27712 0.57632 0.0
C749 C 0.73424 0.30629 0.57607 0.0
H750 H 0.72686 0.23951 0.60064 0.0
H751 H 0.72588 0.26555 0.55656 0.0
S752 S 0.74905 0.35225 0.63869 0.0
N753 N 0.7456 0.32037 0.65195 0.0
N754 N 0.74386 0.34863 0.60409 0.0
C755 C 0.7386 0.32049 0.60206 0.0
C756 C 0.73975 0.30516 0.62794 0.0
C757 C 0.5492 0.9483 0.69059 0.0
C758 C 0.55764 0.97133 0.67407 0.0
C759 C 0.55926 0.94561 0.71855 0.0
C760 C 0.57796 0.96602 0.73117 0.0
H761 H 0.53502 0.932 0.68168 0.0
H762 H 0.5523 0.92733 0.73031 0.0
S763 S 0.60518 0.03122 0.697 0.0
N764 N 0.5848 0.01548 0.67239 0.0
N765 N 0.60388 0.01056 0.72484 0.0
C766 C 0.5862 0.98944 0.71488 0.0
C767 C 0.57603 0.99205 0.68637 0.0
C768 C 0.8837 0.21897 0.80942 0.0
C769 C 0.88077 0.22069 0.77978 0.0
C770 C 0.90854 0.22916 0.8236 0.0
C771 C 0.93078 0.24196 0.80855 0.0
H772 H 0.86668 0.20982 0.82165 0.0
H773 H 0.90993 0.22795 0.84649 0.0
S774 S 0.93349 0.25064 0.73064 0.0
N775 N 0.90232 0.23507 0.73585 0.0
N776 N 0.94855 0.25487 0.76237 0.0
C777 C 0.9281 0.24339 0.77888 0.0
C778 C 0.90318 0.23259 0.76452 0.0
C779 C 0.51651 0.86413 0.47195 0.0
C780 C 0.50075 0.88861 0.47189 0.0
C781 C 0.51238 0.84367 0.45045 0.0
C782 C 0.49244 0.84716 0.42825 0.0
H783 H 0.53288 0.86137 0.488 0.0
H784 H 0.52575 0.8257 0.45051 0.0
S785 S 0.44261 0.9053 0.42149 0.0
N786 N 0.46214 0.91345 0.45001 0.0
N787 N 0.45447 0.87536 0.40964 0.0
C788 C 0.47541 0.87074 0.4291 0.0
C789 C 0.47954 0.89137 0.45091 0.0
C790 C 0.10679 0.25252 0.77931 0.0
C791 C 0.12241 0.27763 0.77435 0.0
C792 C 0.08466 0.25174 0.79878 0.0
C793 C 0.07755 0.2761 0.81364 0.0
H794 H 0.11044 0.23393 0.76677 0.0
H795 H 0.0718 0.23261 0.80061 0.0
S796 S 0.11559 0.34541 0.81215 0.0
N797 N 0.13199 0.32606 0.78895 0.0
N798 N 0.09033 0.32475 0.82502 0.0
C799 C 0.0946 0.30056 0.81056 0.0
C800 C 0.11708 0.30129 0.79103 0.0
C801 C 0.52228 0.64086 0.43301 0.0
C802 C 0.52979 0.64865 0.46105 0.0
C803 C 0.516 0.66114 0.41259 0.0
C804 C 0.5172 0.69004 0.41935 0.0
H805 H 0.52073 0.61889 0.42693 0.0
H806 H 0.50995 0.65402 0.39139 0.0
S807 S 0.53809 0.72132 0.4895 0.0
N808 N 0.53971 0.68715 0.49421 0.0
N809 N 0.5279 0.72524 0.45615 0.0
C810 C 0.52535 0.69805 0.44727 0.0
C811 C 0.53163 0.67739 0.46801 0.0
C812 C 0.93268 0.81252 0.73572 0.0
C813 C 0.90336 0.81228 0.73986 0.0
C814 C 0.94361 0.8054 0.70936 0.0
C815 C 0.92561 0.79805 0.68605 0.0
H816 H 0.94729 0.81781 0.75313 0.0
H817 H 0.96637 0.80566 0.70732 0.0
S818 S 0.84694 0.79571 0.68585 0.0
N819 N 0.85644 0.80515 0.71851 0.0
N820 N 0.87672 0.79175 0.66897 0.0
C821 C 0.89614 0.79821 0.68991 0.0
C822 C 0.88509 0.8053 0.7168 0.0
C823 C 0.03201 0.85458 0.52903 0.0
C824 C 0.0145 0.87057 0.51151 0.0
C825 C 0.0206 0.83725 0.55003 0.0
C826 C 0.99119 0.83493 0.554 0.0
H827 H 0.0547 0.85532 0.52632 0.0
H828 H 0.03494 0.825 0.56268 0.0
S829 S 0.93636 0.87313 0.5139 0.0
N830 N 0.9665 0.88359 0.49977 0.0
N831 N 0.9449 0.85097 0.53912 0.0
C832 C 0.97351 0.85126 0.5369 0.0
C833 C 0.9852 0.86911 0.51572 0.0
C834 C 0.10658 0.76051 0.68711 0.0
C835 C 0.13206 0.76439 0.67272 0.0
C836 C 0.08039 0.76283 0.67297 0.0
C837 C 0.07868 0.76874 0.64381 0.0
H838 H 0.1069 0.75608 0.70958 0.0
H839 H 0.06133 0.7598 0.68503 0.0
S840 S 0.13957 0.77985 0.59642 0.0
N841 N 0.15421 0.77391 0.62778 0.0
N842 N 0.10506 0.77807 0.60101 0.0
C843 C 0.10411 0.77232 0.62912 0.0
C844 C 0.13078 0.77024 0.64363 0.0
C845 C 0.94536 0.64673 0.57474 0.0
C846 C 0.97201 0.63498 0.57174 0.0
C847 C 0.94295 0.67499 0.58238 0.0
C848 C 0.9671 0.69254 0.58758 0.0
H849 H 0.92618 0.63389 0.57151 0.0
H850 H 0.92198 0.68303 0.5846 0.0
S851 S 0.04177 0.67266 0.58045 0.0
N852 N 0.02303 0.64361 0.57277 0.0
N853 N 0.01853 0.69648 0.58792 0.0
C854 C 0.99388 0.68115 0.58441 0.0
C855 C 0.99633 0.65246 0.57631 0.0
C856 C 0.7844 0.90855 0.19423 0.0
C857 C 0.75681 0.90274 0.20361 0.0
C858 C 0.80064 0.93174 0.20492 0.0
C859 C 0.79002 0.94961 0.22574 0.0
H860 H 0.79346 0.89509 0.17851 0.0
H861 H 0.8219 0.93524 0.19734 0.0
S862 S 0.7188 0.94329 0.25719 0.0
N863 N 0.71954 0.91664 0.23473 0.0
N864 N 0.74978 0.96005 0.25481 0.0
C865 C 0.76231 0.94405 0.23506 0.0
C866 C 0.74579 0.92067 0.22401 0.0
C867 C 0.80394 0.13467 0.22762 0.0
C868 C 0.79952 0.15107 0.252 0.0
C869 C 0.8144 0.1075 0.22972 0.0
C870 C 0.82053 0.09574 0.25628 0.0
H871 H 0.79838 0.14249 0.20683 0.0
H872 H 0.81661 0.09524 0.21053 0.0
S873 S 0.81689 0.13153 0.32614 0.0
N874 N 0.80547 0.15472 0.30321 0.0
N875 N 0.82424 0.10358 0.30719 0.0
C876 C 0.81746 0.11241 0.28066 0.0
C877 C 0.80718 0.14007 0.27852 0.0
C878 C 0.33981 0.94117 0.02186 0.0
C879 C 0.36788 0.93269 0.02437 0.0
C880 C 0.31748 0.92152 0.01633 0.0
C881 C 0.32249 0.89273 0.01277 0.0
H882 H 0.33505 0.96306 0.02472 0.0
H883 H 0.29613 0.92897 0.01506 0.0
S884 S 0.39301 0.86057 0.01506 0.0
N885 N 0.39989 0.89423 0.02139 0.0
N886 N 0.35832 0.85725 0.01083 0.0
C887 C 0.35076 0.88426 0.01448 0.0
C888 C 0.37333 0.90424 0.02033 0.0
C889 C 0.21288 0.37486 0.3289 0.0
C890 C 0.23792 0.3914 0.32674 0.0
C891 C 0.18638 0.38605 0.3233 0.0
C892 C 0.18388 0.41425 0.31525 0.0
H893 H 0.21373 0.35319 0.33549 0.0
H894 H 0.16772 0.37252 0.32568 0.0
S895 S 0.24349 0.46573 0.3045 0.0
N896 N 0.25888 0.43681 0.31456 0.0
N897 N 0.20917 0.4581 0.30414 0.0
C898 C 0.20892 0.43087 0.31246 0.0
C899 C 0.23589 0.4194 0.31821 0.0
C900 C 0.16261 0.03545 0.46688 0.0
C901 C 0.1545 0.02471 0.43993 0.0
C902 C 0.18806 0.0512 0.4711 0.0
C903 C 0.20648 0.05642 0.44859 0.0
H904 H 0.14936 0.03134 0.48489 0.0
H905 H 0.19371 0.05855 0.49233 0.0
S906 S 0.19446 0.03346 0.37371 0.0
N907 N 0.16661 0.02075 0.39036 0.0
N908 N 0.21405 0.05052 0.39806 0.0
C909 C 0.19816 0.04636 0.42139 0.0
C910 C 0.17229 0.03047 0.41712 0.0
C911 C 0.66174 0.1079 0.75368 0.0
C912 C 0.68925 0.11227 0.76518 0.0
C913 C 0.64328 0.0871 0.76429 0.0
C914 C 0.65178 0.06963 0.78659 0.0
H915 H 0.65467 0.12024 0.73587 0.0
H916 H 0.62264 0.08399 0.75409 0.0
S917 S 0.72127 0.0737 0.82501 0.0
N918 N 0.72375 0.0984 0.80081 0.0
N919 N 0.68916 0.0593 0.82089 0.0
C920 C 0.6789 0.07457 0.799 0.0
C921 C 0.6976 0.0959 0.78828 0.0
C922 C 0.38496 0.05311 0.54461 0.0
C923 C 0.39656 0.02887 0.5331 0.0
C924 C 0.36024 0.06418 0.53285 0.0
C925 C 0.3466 0.05164 0.50889 0.0
H926 H 0.39549 0.06399 0.56236 0.0
H927 H 0.35261 0.08345 0.54172 0.0
S928 S 0.36752 0.98681 0.47193 0.0
N929 N 0.39179 0.99196 0.49729 0.0
N930 N 0.34541 0.01255 0.47536 0.0
C931 C 0.35734 0.0267 0.498 0.0
C932 C 0.3823 0.01537 0.51006 0.0
C933 C 0.65581 0.4679 0.51381 0.0
C934 C 0.62938 0.46518 0.5268 0.0
C935 C 0.67293 0.44476 0.51027 0.0
C936 C 0.66439 0.41782 0.51956 0.0
H937 H 0.66342 0.48818 0.5064 0.0
H938 H 0.69314 0.44814 0.50031 0.0
S939 S 0.59716 0.39953 0.55539 0.0
N940 N 0.59562 0.43349 0.54936 0.0
N941 N 0.62747 0.38991 0.54241 0.0
C942 C 0.63779 0.41473 0.53227 0.0
C943 C 0.62039 0.43838 0.53593 0.0
C944 C 0.72823 0.28777 0.38457 0.0
C945 C 0.72719 0.30847 0.36362 0.0
C946 C 0.73064 0.29509 0.41333 0.0
C947 C 0.73149 0.32336 0.42223 0.0
H948 H 0.72885 0.2658 0.37861 0.0
H949 H 0.733 0.27852 0.42868 0.0
S950 S 0.72645 0.38533 0.37581 0.0
N951 N 0.72512 0.35826 0.35367 0.0
N952 N 0.729 0.37205 0.40795 0.0
C953 C 0.72855 0.34419 0.40163 0.0
C954 C 0.72665 0.33674 0.37224 0.0
C955 C 0.52346 0.97528 0.91167 0.0
C956 C 0.53511 0.99369 0.93266 0.0
C957 C 0.53811 0.96942 0.88702 0.0
C958 C 0.56484 0.98207 0.88214 0.0
H959 H 0.50289 0.96506 0.9144 0.0
H960 H 0.52844 0.95476 0.87171 0.0
S961 S 0.60496 0.03163 0.93039 0.0
N962 N 0.57535 0.02421 0.94704 0.0
N963 N 0.60243 0.01394 0.90017 0.0
C964 C 0.57649 0.00108 0.90253 0.0
C965 C 0.56175 0.00673 0.9279 0.0
C966 C 0.30967 0.2229 0.43899 0.0
C967 C 0.3232 0.22659 0.41304 0.0
C968 C 0.30226 0.19599 0.44878 0.0
C969 C 0.30785 0.17178 0.43283 0.0
H970 H 0.30498 0.24096 0.45192 0.0
H971 H 0.292 0.19423 0.46899 0.0
S972 S 0.34169 0.17057 0.36253 0.0
N973 N 0.34101 0.20417 0.37104 0.0
N974 N 0.3273 0.15363 0.38922 0.0
C975 C 0.32118 0.17534 0.40662 0.0
C976 C 0.3288 0.20271 0.3968 0.0
C977 C 0.46549 0.48403 0.82747 0.0
C978 C 0.46461 0.48535 0.85721 0.0
C979 C 0.44203 0.49097 0.81055 0.0
C980 C 0.41677 0.49941 0.82273 0.0
H981 H 0.48415 0.47677 0.81719 0.0
H982 H 0.44349 0.48892 0.78777 0.0
S983 S 0.405 0.50954 0.89962 0.0
N984 N 0.43747 0.49816 0.89809 0.0
N985 N 0.39326 0.51088 0.86647 0.0
C986 C 0.41605 0.50182 0.85247 0.0
C987 C 0.43997 0.49486 0.86964 0.0
C988 C 0.71428 0.67828 0.10582 0.0
C989 C 0.73311 0.70134 0.11108 0.0
C990 C 0.721 0.65668 0.08706 0.0
C991 C 0.74682 0.6573 0.07277 0.0
H992 H 0.69364 0.67751 0.11531 0.0
H993 H 0.70531 0.63994 0.08297 0.0
S994 S 0.80506 0.71119 0.08241 0.0
N995 N 0.77981 0.7221 0.10291 0.0
N996 N 0.7925 0.68171 0.06752 0.0
C997 C 0.76648 0.67953 0.07907 0.0
C998 C 0.7596 0.70149 0.09821 0.0
C999 C 0.95174 0.0175 0.14423 0.0
C1000 C 0.95378 0.03895 0.12402 0.0
C1001 C 0.92898 0.01555 0.16273 0.0
C1002 C 0.90724 0.03501 0.16189 0.0
H1003 H 0.96805 0.00218 0.14595 0.0
H1004 H 0.92869 0.99881 0.17809 0.0
S1005 S 0.90269 0.09531 0.11281 0.0
N1006 N 0.93217 0.08015 0.10427 0.0
N1007 N 0.88921 0.07635 0.13865 0.0
C1008 C 0.90875 0.05628 0.14135 0.0
C1009 C 0.93201 0.05827 0.12254 0.0
C1010 C 0.24145 0.7962 0.12578 0.0
C1011 C 0.23484 0.76722 0.12687 0.0
C1012 C 0.23863 0.811 0.10033 0.0
C1013 C 0.22969 0.79709 0.07515 0.0
H1014 H 0.25052 0.80706 0.14428 0.0
H1015 H 0.24595 0.83278 0.09982 0.0
S1016 S 0.20742 0.72211 0.06738 0.0
N1017 N 0.21651 0.72584 0.10123 0.0
N1018 N 0.21209 0.75347 0.05327 0.0
C1019 C 0.2212 0.76863 0.07644 0.0
C1020 C 0.22355 0.75372 0.10237 0.0
C1021 C 0.04569 0.43354 0.18274 0.0
C1022 C 0.04524 0.4593 0.16856 0.0
C1023 C 0.05697 0.43183 0.21037 0.0
C1024 C 0.0686 0.45576 0.22471 0.0
H1025 H 0.03718 0.41459 0.17241 0.0
H1026 H 0.05694 0.41146 0.22036 0.0
S1027 S 0.0728 0.52821 0.19635 0.0
N1028 N 0.05748 0.5092 0.17053 0.0
N1029 N 0.07877 0.50614 0.22238 0.0
C1030 C 0.06821 0.4817 0.21065 0.0
C1031 C 0.0565 0.48343 0.18262 0.0
C1032 C 0.36711 0.75481 0.31612 0.0
C1033 C 0.36735 0.72805 0.30333 0.0
C1034 C 0.3911 0.76645 0.33033 0.0
C1035 C 0.41612 0.75158 0.33292 0.0
H1036 H 0.34851 0.76735 0.31428 0.0
H1037 H 0.39033 0.78765 0.33865 0.0
S1038 S 0.42772 0.68024 0.30494 0.0
N1039 N 0.39486 0.68662 0.2951 0.0
N1040 N 0.4395 0.70824 0.32303 0.0
C1041 C 0.41626 0.72417 0.32189 0.0
C1042 C 0.39197 0.71245 0.30684 0.0
C1043 C 0.98247 0.37911 0.93845 0.0
C1044 C 0.99699 0.37395 0.96406 0.0
C1045 C 0.98042 0.35894 0.91677 0.0
C1046 C 0.99285 0.33269 0.9197 0.0
H1047 H 0.97308 0.39921 0.93487 0.0
H1048 H 0.96956 0.36438 0.89723 0.0
S1049 S 0.03179 0.30816 0.9835 0.0
N1050 N 0.02285 0.34029 0.99189 0.0
N1051 N 0.01895 0.3021 0.9511 0.0
C1052 C 0.00633 0.32671 0.94578 0.0
C1053 C 0.00841 0.3474 0.96796 0.0
C1054 C 0.59491 0.81011 0.27962 0.0
C1055 C 0.6064 0.78448 0.27186 0.0
C1056 C 0.5726 0.81109 0.29849 0.0
C1057 C 0.56113 0.78652 0.31073 0.0
H1058 H 0.60255 0.82952 0.27024 0.0
H1059 H 0.56401 0.83132 0.30324 0.0
S1060 S 0.58495 0.71421 0.29864 0.0
N1061 N 0.60554 0.734 0.27856 0.0
N1062 N 0.5638 0.73585 0.31462 0.0
C1063 C 0.57314 0.7608 0.304 0.0
C1064 C 0.59565 0.75977 0.28434 0.0
C1065 C 0.01589 0.15995 0.95737 0.0
C1066 C 0.03566 0.13873 0.95509 0.0
C1067 C 0.01217 0.17962 0.9358 0.0
C1068 C 0.02804 0.17897 0.91093 0.0
H1069 H 0.0032 0.16145 0.97609 0.0
H1070 H 0.99679 0.19561 0.93881 0.0
S1071 S 0.08299 0.1278 0.89471 0.0
N1072 N 0.07162 0.11842 0.92615 0.0
N1073 N 0.06441 0.15504 0.88541 0.0
C1074 C 0.04766 0.15759 0.90821 0.0
C1075 C 0.05149 0.13757 0.93028 0.0
C1076 C 0.38714 0.30279 0.22223 0.0
C1077 C 0.40482 0.30982 0.24575 0.0
C1078 C 0.39844 0.29584 0.19605 0.0
C1079 C 0.4279 0.29536 0.19242 0.0
H1080 H 0.36435 0.3028 0.22406 0.0
H1081 H 0.38388 0.29053 0.17862 0.0
S1082 S 0.48323 0.31179 0.2479 0.0
N1083 N 0.45306 0.31573 0.26409 0.0
N1084 N 0.47452 0.30264 0.21495 0.0
C1085 C 0.44582 0.3024 0.2159 0.0
C1086 C 0.43423 0.30968 0.24252 0.0
C1087 C 0.53436 0.35177 0.03727 0.0
C1088 C 0.51751 0.37014 0.02174 0.0
C1089 C 0.52238 0.33323 0.05689 0.0
C1090 C 0.49302 0.33203 0.06135 0.0
H1091 H 0.55697 0.35168 0.03412 0.0
H1092 H 0.53622 0.3193 0.06816 0.0
S1093 S 0.43982 0.37615 0.02595 0.0
N1094 N 0.47021 0.3864 0.01219 0.0
N1095 N 0.44751 0.35144 0.04888 0.0
C1096 C 0.47599 0.35055 0.04608 0.0
C1097 C 0.48828 0.36965 0.02635 0.0
C1098 C 0.63028 0.26793 0.15058 0.0
C1099 C 0.63237 0.26218 0.17967 0.0
C1100 C 0.60387 0.26861 0.13653 0.0
C1101 C 0.57854 0.26395 0.15115 0.0
H1102 H 0.64923 0.27183 0.13856 0.0
H1103 H 0.60337 0.27321 0.1141 0.0
S1104 S 0.57279 0.2484 0.22783 0.0
N1105 N 0.60714 0.25193 0.22278 0.0
N1106 N 0.55745 0.25327 0.19658 0.0
C1107 C 0.58043 0.25814 0.18034 0.0
C1108 C 0.60735 0.25721 0.19454 0.0
C1109 C 0.43934 0.14527 0.07424 0.0
C1110 C 0.46425 0.13033 0.07771 0.0
C1111 C 0.43863 0.17377 0.08166 0.0
C1112 C 0.46283 0.18847 0.09281 0.0
H1113 H 0.42012 0.13475 0.06609 0.0
H1114 H 0.41884 0.18426 0.07882 0.0
S1115 S 0.53398 0.15923 0.10397 0.0
N1116 N 0.51411 0.13257 0.09147 0.0
N1117 N 0.51285 0.18594 0.10575 0.0
C1118 C 0.48803 0.17378 0.09597 0.0
C1119 C 0.48871 0.14479 0.08835 0.0
C1120 C 0.2714 0.40219 0.73955 0.0
C1121 C 0.27715 0.39121 0.71268 0.0
C1122 C 0.28568 0.42645 0.75008 0.0
C1123 C 0.30648 0.44079 0.73426 0.0
H1124 H 0.25531 0.39223 0.7524 0.0
H1125 H 0.28021 0.43399 0.77087 0.0
S1126 S 0.33022 0.41978 0.66294 0.0
N1127 N 0.30558 0.39584 0.67067 0.0
N1128 N 0.33249 0.44157 0.69034 0.0
C1129 C 0.31267 0.42981 0.70738 0.0
C1130 C 0.29798 0.40506 0.69662 0.0
C1131 C 0.29751 0.63276 0.77534 0.0
C1132 C 0.29482 0.64498 0.74843 0.0
C1133 C 0.3089 0.60629 0.77879 0.0
C1134 C 0.31849 0.59093 0.75553 0.0
H1135 H 0.29079 0.64378 0.79403 0.0
H1136 H 0.31027 0.59783 0.79998 0.0
S1137 S 0.31588 0.61302 0.68042 0.0
N1138 N 0.30221 0.63924 0.69789 0.0
N1139 N 0.3245 0.58978 0.70458 0.0
C1140 C 0.31644 0.60299 0.72852 0.0
C1141 C 0.30443 0.6299 0.72492 0.0
C1142 C 0.87617 0.41485 0.51278 0.0
C1143 C 0.87225 0.44352 0.51775 0.0
C1144 C 0.85314 0.3958 0.50972 0.0
C1145 C 0.8251 0.40455 0.51143 0.0
H1146 H 0.89731 0.40696 0.51158 0.0
H1147 H 0.85751 0.37394 0.50603 0.0
S1148 S 0.80347 0.47777 0.52347 0.0
N1149 N 0.83839 0.48008 0.52375 0.0
N1150 N 0.79482 0.44425 0.51814 0.0
C1151 C 0.82085 0.4333 0.51631 0.0
C1152 C 0.84447 0.45275 0.5195 0.0
C1153 C 0.71918 0.88453 0.82605 0.0
C1154 C 0.74304 0.90196 0.8327 0.0
C1155 C 0.6923 0.8956 0.82264 0.0
C1156 C 0.68829 0.9246 0.82547 0.0
H1157 H 0.72127 0.86207 0.82376 0.0
H1158 H 0.67459 0.88127 0.81754 0.0
S1159 S 0.74443 0.97923 0.84219 0.0
N1160 N 0.76129 0.94951 0.84166 0.0
N1161 N 0.71086 0.97058 0.83519 0.0
C1162 C 0.71214 0.94229 0.832 0.0
C1163 C 0.73947 0.93091 0.83568 0.0
C1164 C 0.66744 0.53621 0.98749 0.0
C1165 C 0.65144 0.53436 0.96199 0.0
C1166 C 0.69212 0.55346 0.98978 0.0
C1167 C 0.70188 0.56872 0.96638 0.0
H1168 H 0.66133 0.52353 0.00542 0.0
H1169 H 0.70451 0.55349 0.00938 0.0
S1170 S 0.66661 0.57242 0.89563 0.0
N1171 N 0.64609 0.55059 0.9136 0.0
N1172 N 0.69274 0.5824 0.91767 0.0
C1173 C 0.6854 0.56794 0.94123 0.0
C1174 C 0.66008 0.55089 0.93909 0.0
C1175 C 0.20019 0.57747 0.26686 0.0
C1176 C 0.19092 0.60409 0.2593 0.0
C1177 C 0.18125 0.55659 0.27631 0.0
C1178 C 0.15213 0.56134 0.2783 0.0
H1179 H 0.22232 0.57267 0.26526 0.0
H1180 H 0.18955 0.53634 0.28149 0.0
S1181 S 0.11734 0.62802 0.26156 0.0
N1182 N 0.15106 0.63455 0.25496 0.0
N1183 N 0.11515 0.59524 0.27258 0.0
C1184 C 0.14265 0.58815 0.27129 0.0
C1185 C 0.16211 0.60954 0.26187 0.0
C1186 C 0.88095 0.52098 0.00091 0.0
C1187 C 0.89652 0.53052 0.02502 0.0
C1188 C 0.85716 0.53494 0.99119 0.0
C1189 C 0.84778 0.5589 0.00532 0.0
H1190 H 0.88778 0.50309 0.98888 0.0
H1191 H 0.8463 0.52707 0.97212 0.0
S1192 S 0.8801 0.591 0.07088 0.0
N1193 N 0.9002 0.56434 0.06381 0.0
N1194 N 0.85528 0.59068 0.04566 0.0
C1195 C 0.86258 0.56806 0.03013 0.0
C1196 C 0.88703 0.5539 0.03989 0.0
C1197 C 0.12501 0.93521 0.04389 0.0
C1198 C 0.12862 0.95906 0.02682 0.0
C1199 C 0.14241 0.91213 0.04123 0.0
C1200 C 0.16425 0.91193 0.02145 0.0
H1201 H 0.10908 0.93463 0.06 0.0
H1202 H 0.13901 0.89455 0.05527 0.0
S1203 S 0.18071 0.96815 0.96975 0.0
N1204 N 0.15429 0.98021 0.98796 0.0
N1205 N 0.18727 0.93715 0.98322 0.0
C1206 C 0.1676 0.93537 0.00371 0.0
C1207 C 0.14976 0.95882 0.00634 0.0
loop_
_geom_bond_atom_site_label_1
_geom_bond_atom_site_label_2
_geom_bond_distance
_geom_bond_site_symmetry_2
_ccdc_geom_bond_type
P0 O11 1.490 . S
P0 C14 1.812 . S
P0 C20 1.803 . S
P0 C26 1.819 . S
H1 C15 0.941 . S
H2 C16 0.939 . S
H3 C18 0.940 . S
H4 C19 0.940 . S
H5 C21 0.939 . S
H6 C22 0.942 . S
H7 C24 0.940 . S
H8 C25 0.939 . S
H9 C27 0.941 . S
H10 C31 0.939 . S
O11 P0 1.490 . S
H12 C28 0.939 . S
H13 C30 0.940 . S
C14 P0 1.812 . S
C14 C15 1.389 . S
C14 C19 1.391 . S
C15 H1 0.941 . S
C15 C14 1.389 . S
C15 C16 1.397 . S
C16 H2 0.939 . S
C16 C15 1.397 . S
C16 C17 1.378 1_455 S
C17 C16 1.378 1_655 S
C17 C18 1.378 . S
C18 H3 0.940 . S
C18 C17 1.378 . S
C18 C19 1.396 1_655 S
C19 H4 0.940 . S
C19 C14 1.391 . S
C19 C18 1.396 1_455 S
C20 P0 1.803 . S
C20 C21 1.378 . S
C20 C25 1.400 . S
C21 H5 0.939 . S
C21 C20 1.378 . S
C21 C22 1.361 . S
C22 H6 0.942 . S
C22 C21 1.361 . S
C22 C23 1.369 1_545 S
C23 C22 1.369 1_565 S
C23 C24 1.404 . S
C24 H7 0.940 . S
C24 C23 1.404 . S
C24 C25 1.389 1_565 S
C25 H8 0.939 . S
C25 C20 1.400 . S
C25 C24 1.389 1_545 S
C26 P0 1.819 . S
C26 C27 1.391 . S
C26 C31 1.391 . S
C27 H9 0.941 . S
C27 C26 1.391 . S
C27 C28 1.396 . S
C28 H12 0.939 . S
C28 C27 1.396 . S
C28 C29 1.368 1_554 S
C29 C28 1.368 1_556 S
C29 C30 1.391 . S
C30 H13 0.940 . S
C30 C29 1.391 . S
C30 C31 1.388 1_556 S
C31 H10 0.939 . S
C31 C26 1.391 . S
C31 C30 1.388 1_554 S
P32 O43 1.490 . S
P32 C46 1.812 . S
P32 C52 1.803 . S
P32 C58 1.819 . S
H33 C47 0.941 . S
H34 C48 0.939 . S
H35 C50 0.940 . S
H36 C51 0.940 . S
H37 C53 0.939 . S
H38 C54 0.942 . S
H39 C56 0.940 . S
H40 C57 0.939 . S
H41 C59 0.941 . S
H42 C63 0.939 . S
O43 P32 1.490 . S
H44 C60 0.939 . S
H45 C62 0.940 . S
C46 P32 1.812 . S
C46 C47 1.389 . S
C46 C51 1.391 . S
C47 H33 0.941 . S
C47 C46 1.389 . S
C47 C48 1.397 . S
C48 H34 0.939 . S
C48 C47 1.397 . S
C48 C49 1.378 . S
C49 C48 1.378 . S
C49 C50 1.378 . S
C50 H35 0.940 . S
C50 C49 1.378 . S
C50 C51 1.396 . S
C51 H36 0.940 . S
C51 C46 1.391 . S
C51 C50 1.396 . S
C52 P32 1.803 . S
C52 C53 1.378 . S
C52 C57 1.400 . S
C53 H37 0.939 . S
C53 C52 1.378 . S
C53 C54 1.361 . S
C54 H38 0.942 . S
C54 C53 1.361 . S
C54 C55 1.369 . S
C55 C54 1.369 . S
C55 C56 1.404 . S
C56 H39 0.940 . S
C56 C55 1.404 . S
C56 C57 1.389 . S
C57 H40 0.939 . S
C57 C52 1.400 . S
C57 C56 1.389 . S
C58 P32 1.819 . S
C58 C59 1.391 . S
C58 C63 1.391 . S
C59 H41 0.941 . S
C59 C58 1.391 . S
C59 C60 1.396 . S
C60 H44 0.939 . S
C60 C59 1.396 . S
C60 C61 1.397 . S
C61 C60 1.397 . S
C61 C62 1.385 . S
C62 H45 0.940 . S
C62 C61 1.385 . S
C62 C63 1.388 . S
C63 H42 0.939 . S
C63 C58 1.391 . S
C63 C62 1.388 . S
P64 O75 1.490 . S
P64 C78 1.812 . S
P64 C84 1.803 . S
P64 C90 1.819 . S
H65 C79 0.941 . S
H66 C80 0.939 . S
H67 C82 0.940 . S
H68 C83 0.940 . S
H69 C85 0.939 . S
H70 C86 0.942 . S
H71 C88 0.940 . S
H72 C89 0.939 . S
H73 C91 0.941 . S
H74 C95 0.939 . S
O75 P64 1.490 . S
H76 C92 0.939 . S
H77 C94 0.940 . S
C78 P64 1.812 . S
C78 C79 1.389 1_554 S
C78 C83 1.391 . S
C79 H65 0.941 . S
C79 C78 1.389 1_556 S
C79 C80 1.397 . S
C80 H66 0.939 . S
C80 C79 1.397 . S
C80 C81 1.387 . S
C81 C80 1.387 . S
C81 C82 1.363 1_556 S
C82 H67 0.940 . S
C82 C81 1.363 1_554 S
C82 C83 1.396 . S
C83 H68 0.940 . S
C83 C78 1.391 . S
C83 C82 1.396 . S
C84 P64 1.803 . S
C84 C85 1.378 . S
C84 C89 1.400 . S
C85 H69 0.939 . S
C85 C84 1.378 . S
C85 C86 1.361 . S
C86 H70 0.942 . S
C86 C85 1.361 . S
C86 C87 1.369 . S
C87 C86 1.369 . S
C87 C88 1.404 . S
C88 H71 0.940 . S
C88 C87 1.404 . S
C88 C89 1.389 . S
C89 H72 0.939 . S
C89 C84 1.400 . S
C89 C88 1.389 . S
C90 P64 1.819 . S
C90 C91 1.391 1_655 S
C90 C95 1.391 . S
C91 H73 0.941 . S
C91 C90 1.391 1_455 S
C91 C92 1.396 . S
C92 H76 0.939 . S
C92 C91 1.396 . S
C92 C93 1.397 . S
C93 C92 1.397 . S
C93 C94 1.385 1_455 S
C94 H77 0.940 . S
C94 C93 1.385 1_655 S
C94 C95 1.388 . S
C95 H74 0.939 . S
C95 C90 1.391 . S
C95 C94 1.388 . S
P96 O107 1.490 . S
P96 C110 1.812 . S
P96 C116 1.803 . S
P96 C122 1.819 . S
H97 C111 0.941 . S
H98 C112 0.939 . S
H99 C114 0.940 . S
H100 C115 0.940 . S
H101 C117 0.939 . S
H102 C118 0.942 . S
H103 C120 0.940 . S
H104 C121 0.939 . S
H105 C123 0.941 . S
H106 C127 0.939 . S
O107 P96 1.490 . S
H108 C124 0.939 . S
H109 C126 0.940 . S
C110 P96 1.812 . S
C110 C111 1.389 . S
C110 C115 1.391 . S
C111 H97 0.941 . S
C111 C110 1.389 . S
C111 C112 1.397 . S
C112 H98 0.939 . S
C112 C111 1.397 . S
C112 C113 1.378 . S
C113 C112 1.378 . S
C113 C114 1.378 . S
C114 H99 0.940 . S
C114 C113 1.378 . S
C114 C115 1.396 . S
C115 H100 0.940 . S
C115 C110 1.391 . S
C115 C114 1.396 . S
C116 P96 1.803 . S
C116 C117 1.378 . S
C116 C121 1.400 . S
C117 H101 0.939 . S
C117 C116 1.378 . S
C117 C118 1.361 . S
C118 H102 0.942 . S
C118 C117 1.361 . S
C118 C119 1.369 . S
C119 C118 1.369 . S
C119 C120 1.404 . S
C120 H103 0.940 . S
C120 C119 1.404 . S
C120 C121 1.389 . S
C121 H104 0.939 . S
C121 C116 1.400 . S
C121 C120 1.389 . S
C122 P96 1.819 . S
C122 C123 1.391 . S
C122 C127 1.391 . S
C123 H105 0.941 . S
C123 C122 1.391 . S
C123 C124 1.396 . S
C124 H108 0.939 . S
C124 C123 1.396 . S
C124 C125 1.397 . S
C125 C124 1.397 . S
C125 C126 1.385 . S
C126 H109 0.940 . S
C126 C125 1.385 . S
C126 C127 1.388 . S
C127 H106 0.939 . S
C127 C122 1.391 . S
C127 C126 1.388 . S
P128 O139 1.490 . S
P128 C142 1.812 . S
P128 C148 1.803 . S
P128 C154 1.819 . S
H129 C143 0.941 . S
H130 C144 0.939 . S
H131 C146 0.940 . S
H132 C147 0.940 . S
H133 C149 0.939 . S
H134 C150 0.942 . S
H135 C152 0.940 . S
H136 C153 0.939 . S
H137 C155 0.941 . S
H138 C159 0.939 . S
O139 P128 1.490 . S
H140 C156 0.939 . S
H141 C158 0.940 . S
C142 P128 1.812 . S
C142 C143 1.389 . S
C142 C147 1.391 . S
C143 H129 0.941 . S
C143 C142 1.389 . S
C143 C144 1.397 . S
C144 H130 0.939 . S
C144 C143 1.397 . S
C144 C145 1.378 1_565 S
C145 C144 1.378 1_545 S
C145 C146 1.378 . S
C146 H131 0.940 . S
C146 C145 1.378 . S
C146 C147 1.396 1_545 S
C147 H132 0.940 . S
C147 C142 1.391 . S
C147 C146 1.396 1_565 S
C148 P128 1.803 . S
C148 C149 1.378 . S
C148 C153 1.400 . S
C149 H133 0.939 . S
C149 C148 1.378 . S
C149 C150 1.361 . S
C150 H134 0.942 . S
C150 C149 1.361 . S
C150 C151 1.369 . S
C151 C150 1.369 . S
C151 C152 1.404 . S
C152 H135 0.940 . S
C152 C151 1.404 . S
C152 C153 1.389 . S
C153 H136 0.939 . S
C153 C148 1.400 . S
C153 C152 1.389 . S
C154 P128 1.819 . S
C154 C155 1.391 . S
C154 C159 1.391 . S
C155 H137 0.941 . S
C155 C154 1.391 . S
C155 C156 1.396 . S
C156 H140 0.939 . S
C156 C155 1.396 . S
C156 C157 1.397 . S
C157 C156 1.397 . S
C157 C158 1.385 1_455 S
C158 H141 0.940 . S
C158 C157 1.385 1_655 S
C158 C159 1.388 1_655 S
C159 H138 0.939 . S
C159 C154 1.391 . S
C159 C158 1.388 1_455 S
P160 O171 1.490 . S
P160 C174 1.812 . S
P160 C180 1.803 . S
P160 C186 1.819 . S
H161 C175 0.941 . S
H162 C176 0.939 . S
H163 C178 0.940 . S
H164 C179 0.940 . S
H165 C181 0.939 . S
H166 C182 0.942 . S
H167 C184 0.940 . S
H168 C185 0.939 . S
H169 C187 0.941 . S
H170 C191 0.939 . S
O171 P160 1.490 . S
H172 C188 0.939 . S
H173 C190 0.940 . S
C174 P160 1.812 . S
C174 C175 1.389 . S
C174 C179 1.391 . S
C175 H161 0.941 . S
C175 C174 1.389 . S
C175 C176 1.397 . S
C176 H162 0.939 . S
C176 C175 1.397 . S
C176 C177 1.378 . S
C177 C176 1.378 . S
C177 C178 1.378 . S
C178 H163 0.940 . S
C178 C177 1.378 . S
C178 C179 1.396 . S
C179 H164 0.940 . S
C179 C174 1.391 . S
C179 C178 1.396 . S
C180 P160 1.803 . S
C180 C181 1.378 . S
C180 C185 1.400 . S
C181 H165 0.939 . S
C181 C180 1.378 . S
C181 C182 1.361 . S
C182 H166 0.942 . S
C182 C181 1.361 . S
C182 C183 1.369 . S
C183 C182 1.369 . S
C183 C184 1.404 . S
C184 H167 0.940 . S
C184 C183 1.404 . S
C184 C185 1.389 . S
C185 H168 0.939 . S
C185 C180 1.400 . S
C185 C184 1.389 . S
C186 P160 1.819 . S
C186 C187 1.391 . S
C186 C191 1.391 . S
C187 H169 0.941 . S
C187 C186 1.391 . S
C187 C188 1.396 . S
C188 H172 0.939 . S
C188 C187 1.396 . S
C188 C189 1.397 . S
C189 C188 1.397 . S
C189 C190 1.385 . S
C190 H173 0.940 . S
C190 C189 1.385 . S
C190 C191 1.388 . S
C191 H170 0.939 . S
C191 C186 1.391 . S
C191 C190 1.388 . S
P192 O203 1.490 1_655 S
P192 C206 1.812 . S
P192 C212 1.803 . S
P192 C218 1.819 . S
H193 C207 0.941 . S
H194 C208 0.939 . S
H195 C210 0.940 . S
H196 C211 0.940 . S
H197 C213 0.939 . S
H198 C214 0.942 . S
H199 C216 0.940 . S
H200 C217 0.939 . S
H201 C219 0.941 . S
H202 C223 0.939 . S
O203 P192 1.490 1_455 S
H204 C220 0.939 . S
H205 C222 0.940 . S
C206 P192 1.812 . S
C206 C207 1.389 1_655 S
C206 C211 1.391 . S
C207 H193 0.941 . S
C207 C206 1.389 1_455 S
C207 C208 1.397 . S
C208 H194 0.939 . S
C208 C207 1.397 . S
C208 C209 1.378 . S
C209 C208 1.378 . S
C209 C210 1.378 1_455 S
C210 H195 0.940 . S
C210 C209 1.378 1_655 S
C210 C211 1.396 . S
C211 H196 0.940 . S
C211 C206 1.391 . S
C211 C210 1.396 . S
C212 P192 1.803 . S
C212 C213 1.378 . S
C212 C217 1.400 . S
C213 H197 0.939 . S
C213 C212 1.378 . S
C213 C214 1.361 . S
C214 H198 0.942 . S
C214 C213 1.361 . S
C214 C215 1.369 . S
C215 C214 1.369 . S
C215 C216 1.404 . S
C216 H199 0.940 . S
C216 C215 1.404 . S
C216 C217 1.389 . S
C217 H200 0.939 . S
C217 C212 1.400 . S
C217 C216 1.389 . S
C218 P192 1.819 . S
C218 C219 1.391 . S
C218 C223 1.391 . S
C219 H201 0.941 . S
C219 C218 1.391 . S
C219 C220 1.396 . S
C220 H204 0.939 . S
C220 C219 1.396 . S
C220 C221 1.397 . S
C221 C220 1.397 . S
C221 C222 1.385 . S
C222 H205 0.940 . S
C222 C221 1.385 . S
C222 C223 1.388 . S
C223 H202 0.939 . S
C223 C218 1.391 . S
C223 C222 1.388 . S
P224 O235 1.490 . S
P224 C238 1.812 . S
P224 C244 1.803 . S
P224 C250 1.819 . S
H225 C239 0.941 . S
H226 C240 0.939 . S
H227 C242 0.940 . S
H228 C243 0.940 . S
H229 C245 0.939 . S
H230 C246 0.942 . S
H231 C248 0.940 . S
H232 C249 0.939 . S
H233 C251 0.941 . S
H234 C255 0.939 . S
O235 P224 1.490 . S
H236 C252 0.939 . S
H237 C254 0.940 . S
C238 P224 1.812 . S
C238 C239 1.389 . S
C238 C243 1.391 . S
C239 H225 0.941 . S
C239 C238 1.389 . S
C239 C240 1.397 . S
C240 H226 0.939 . S
C240 C239 1.397 . S
C240 C241 1.378 . S
C241 C240 1.378 . S
C241 C242 1.378 . S
C242 H227 0.940 . S
C242 C241 1.378 . S
C242 C243 1.396 . S
C243 H228 0.940 . S
C243 C238 1.391 . S
C243 C242 1.396 . S
C244 P224 1.803 . S
C244 C245 1.378 . S
C244 C249 1.400 . S
C245 H229 0.939 . S
C245 C244 1.378 . S
C245 C246 1.361 . S
C246 H230 0.942 . S
C246 C245 1.361 . S
C246 C247 1.369 . S
C247 C246 1.369 . S
C247 C248 1.404 . S
C248 H231 0.940 . S
C248 C247 1.404 . S
C248 C249 1.389 . S
C249 H232 0.939 . S
C249 C244 1.400 . S
C249 C248 1.389 . S
C250 P224 1.819 . S
C250 C251 1.391 . S
C250 C255 1.391 . S
C251 H233 0.941 . S
C251 C250 1.391 . S
C251 C252 1.396 . S
C252 H236 0.939 . S
C252 C251 1.396 . S
C252 C253 1.397 . S
C253 C252 1.397 . S
C253 C254 1.385 . S
C254 H237 0.940 . S
C254 C253 1.385 . S
C254 C255 1.388 . S
C255 H234 0.939 . S
C255 C250 1.391 . S
C255 C254 1.388 . S
P256 O267 1.490 . S
P256 C270 1.812 . S
P256 C276 1.803 . S
P256 C282 1.819 . S
H257 C271 0.941 . S
H258 C272 0.939 . S
H259 C274 0.940 . S
H260 C275 0.940 . S
H261 C277 0.939 . S
H262 C278 0.942 . S
H263 C280 0.940 . S
H264 C281 0.939 . S
H265 C283 0.941 . S
H266 C287 0.939 . S
O267 P256 1.490 . S
H268 C284 0.939 . S
H269 C286 0.940 . S
C270 P256 1.812 . S
C270 C271 1.389 . S
C270 C275 1.391 . S
C271 H257 0.941 . S
C271 C270 1.389 . S
C271 C272 1.397 . S
C272 H258 0.939 . S
C272 C271 1.397 . S
C272 C273 1.378 . S
C273 C272 1.378 . S
C273 C274 1.378 . S
C274 H259 0.940 . S
C274 C273 1.378 . S
C274 C275 1.396 . S
C275 H260 0.940 . S
C275 C270 1.391 . S
C275 C274 1.396 . S
C276 P256 1.803 . S
C276 C277 1.378 . S
C276 C281 1.400 . S
C277 H261 0.939 . S
C277 C276 1.378 . S
C277 C278 1.361 . S
C278 H262 0.942 . S
C278 C277 1.361 . S
C278 C279 1.369 . S
C279 C278 1.369 . S
C279 C280 1.404 . S
C280 H263 0.940 . S
C280 C279 1.404 . S
C280 C281 1.389 . S
C281 H264 0.939 . S
C281 C276 1.400 . S
C281 C280 1.389 . S
C282 P256 1.819 . S
C282 C283 1.391 . S
C282 C287 1.391 . S
C283 H265 0.941 . S
C283 C282 1.391 . S
C283 C284 1.396 . S
C284 H268 0.939 . S
C284 C283 1.396 . S
C284 C285 1.397 . S
C285 C284 1.397 . S
C285 C286 1.385 . S
C286 H269 0.940 . S
C286 C285 1.385 . S
C286 C287 1.388 . S
C287 H266 0.939 . S
C287 C282 1.391 . S
C287 C286 1.388 . S
P288 O299 1.490 1_565 S
P288 C302 1.812 . S
P288 C308 1.803 . S
P288 C314 1.819 . S
H289 C303 0.941 . S
H290 C304 0.939 . S
H291 C306 0.940 . S
H292 C307 0.940 . S
H293 C309 0.939 . S
H294 C310 0.942 . S
H295 C312 0.940 . S
H296 C313 0.939 . S
H297 C315 0.941 . S
H298 C319 0.939 . S
O299 P288 1.490 1_545 S
H300 C316 0.939 . S
H301 C318 0.940 . S
C302 P288 1.812 . S
C302 C303 1.389 . S
C302 C307 1.391 . S
C303 H289 0.941 . S
C303 C302 1.389 . S
C303 C304 1.397 . S
C304 H290 0.939 . S
C304 C303 1.397 . S
C304 C305 1.378 . S
C305 C304 1.378 . S
C305 C306 1.378 . S
C306 H291 0.940 . S
C306 C305 1.378 . S
C306 C307 1.396 . S
C307 H292 0.940 . S
C307 C302 1.391 . S
C307 C306 1.396 . S
C308 P288 1.803 . S
C308 C309 1.378 1_565 S
C308 C313 1.400 . S
C309 H293 0.939 . S
C309 C308 1.378 1_545 S
C309 C310 1.361 . S
C310 H294 0.942 . S
C310 C309 1.361 . S
C310 C311 1.369 . S
C311 C310 1.369 . S
C311 C312 1.404 1_545 S
C312 H295 0.940 . S
C312 C311 1.404 1_565 S
C312 C313 1.389 . S
C313 H296 0.939 . S
C313 C308 1.400 . S
C313 C312 1.389 . S
C314 P288 1.819 . S
C314 C315 1.391 . S
C314 C319 1.391 . S
C315 H297 0.941 . S
C315 C314 1.391 . S
C315 C316 1.396 . S
C316 H300 0.939 . S
C316 C315 1.396 . S
C316 C317 1.397 . S
C317 C316 1.397 . S
C317 C318 1.385 . S
C318 H301 0.940 . S
C318 C317 1.385 . S
C318 C319 1.388 . S
C319 H298 0.939 . S
C319 C314 1.391 . S
C319 C318 1.388 . S
P320 O331 1.490 . S
P320 C334 1.812 . S
P320 C340 1.803 . S
P320 C346 1.819 . S
H321 C335 0.941 . S
H322 C336 0.939 . S
H323 C338 0.940 . S
H324 C339 0.940 . S
H325 C341 0.939 . S
H326 C342 0.942 . S
H327 C344 0.940 . S
H328 C345 0.939 . S
H329 C347 0.941 . S
H330 C351 0.939 . S
O331 P320 1.490 . S
H332 C348 0.939 . S
H333 C350 0.940 . S
C334 P320 1.812 . S
C334 C335 1.389 . S
C334 C339 1.391 . S
C335 H321 0.941 . S
C335 C334 1.389 . S
C335 C336 1.397 . S
C336 H322 0.939 . S
C336 C335 1.397 . S
C336 C337 1.378 . S
C337 C336 1.378 . S
C337 C338 1.378 . S
C338 H323 0.940 . S
C338 C337 1.378 . S
C338 C339 1.396 . S
C339 H324 0.940 . S
C339 C334 1.391 . S
C339 C338 1.396 . S
C340 P320 1.803 . S
C340 C341 1.378 . S
C340 C345 1.400 . S
C341 H325 0.939 . S
C341 C340 1.378 . S
C341 C342 1.361 . S
C342 H326 0.942 . S
C342 C341 1.361 . S
C342 C343 1.369 . S
C343 C342 1.369 . S
C343 C344 1.404 . S
C344 H327 0.940 . S
C344 C343 1.404 . S
C344 C345 1.389 . S
C345 H328 0.939 . S
C345 C340 1.400 . S
C345 C344 1.389 . S
C346 P320 1.819 . S
C346 C347 1.391 . S
C346 C351 1.391 . S
C347 H329 0.941 . S
C347 C346 1.391 . S
C347 C348 1.396 . S
C348 H332 0.939 . S
C348 C347 1.396 . S
C348 C349 1.397 . S
C349 C348 1.397 . S
C349 C350 1.385 . S
C350 H333 0.940 . S
C350 C349 1.385 . S
C350 C351 1.388 . S
C351 H330 0.939 . S
C351 C346 1.391 . S
C351 C350 1.388 . S
P352 O363 1.490 . S
P352 C366 1.812 . S
P352 C372 1.803 . S
P352 C378 1.819 . S
H353 C367 0.941 . S
H354 C368 0.939 . S
H355 C370 0.940 . S
H356 C371 0.940 . S
H357 C373 0.939 . S
H358 C374 0.942 . S
H359 C376 0.940 . S
H360 C377 0.939 . S
H361 C379 0.941 . S
H362 C383 0.939 . S
O363 P352 1.490 . S
H364 C380 0.939 . S
H365 C382 0.940 . S
C366 P352 1.812 . S
C366 C367 1.389 . S
C366 C371 1.391 . S
C367 H353 0.941 . S
C367 C366 1.389 . S
C367 C368 1.397 . S
C368 H354 0.939 . S
C368 C367 1.397 . S
C368 C369 1.378 . S
C369 C368 1.378 . S
C369 C370 1.378 . S
C370 H355 0.940 . S
C370 C369 1.378 . S
C370 C371 1.396 . S
C371 H356 0.940 . S
C371 C366 1.391 . S
C371 C370 1.396 . S
C372 P352 1.803 . S
C372 C373 1.378 . S
C372 C377 1.400 . S
C373 H357 0.939 . S
C373 C372 1.378 . S
C373 C374 1.361 . S
C374 H358 0.942 . S
C374 C373 1.361 . S
C374 C375 1.369 . S
C375 C374 1.369 . S
C375 C376 1.404 . S
C376 H359 0.940 . S
C376 C375 1.404 . S
C376 C377 1.389 . S
C377 H360 0.939 . S
C377 C372 1.400 . S
C377 C376 1.389 . S
C378 P352 1.819 . S
C378 C379 1.391 . S
C378 C383 1.391 . S
C379 H361 0.941 . S
C379 C378 1.391 . S
C379 C380 1.396 . S
C380 H364 0.939 . S
C380 C379 1.396 . S
C380 C381 1.397 . S
C381 C380 1.397 . S
C381 C382 1.385 . S
C382 H365 0.940 . S
C382 C381 1.385 . S
C382 C383 1.388 . S
C383 H362 0.939 . S
C383 C378 1.391 . S
C383 C382 1.388 . S
P384 O395 1.490 . S
P384 C398 1.812 . S
P384 C404 1.803 . S
P384 C410 1.819 . S
H385 C399 0.941 . S
H386 C400 0.939 . S
H387 C402 0.940 . S
H388 C403 0.940 . S
H389 C405 0.939 . S
H390 C406 0.942 . S
H391 C408 0.940 . S
H392 C409 0.939 . S
H393 C411 0.941 . S
H394 C415 0.939 . S
O395 P384 1.490 . S
H396 C412 0.939 . S
H397 C414 0.940 . S
C398 P384 1.812 . S
C398 C399 1.389 . S
C398 C403 1.391 . S
C399 H385 0.941 . S
C399 C398 1.389 . S
C399 C400 1.397 . S
C400 H386 0.939 . S
C400 C399 1.397 . S
C400 C401 1.378 . S
C401 C400 1.378 . S
C401 C402 1.378 . S
C402 H387 0.940 . S
C402 C401 1.378 . S
C402 C403 1.396 . S
C403 H388 0.940 . S
C403 C398 1.391 . S
C403 C402 1.396 . S
C404 P384 1.803 . S
C404 C405 1.378 . S
C404 C409 1.400 . S
C405 H389 0.939 . S
C405 C404 1.378 . S
C405 C406 1.361 . S
C406 H390 0.942 . S
C406 C405 1.361 . S
C406 C407 1.369 . S
C407 C406 1.369 . S
C407 C408 1.404 . S
C408 H391 0.940 . S
C408 C407 1.404 . S
C408 C409 1.389 . S
C409 H392 0.939 . S
C409 C404 1.400 . S
C409 C408 1.389 . S
C410 P384 1.819 . S
C410 C411 1.391 . S
C410 C415 1.391 . S
C411 H393 0.941 . S
C411 C410 1.391 . S
C411 C412 1.396 . S
C412 H396 0.939 . S
C412 C411 1.396 . S
C412 C413 1.397 . S
C413 C412 1.397 . S
C413 C414 1.385 . S
C414 H397 0.940 . S
C414 C413 1.385 . S
C414 C415 1.388 . S
C415 H394 0.939 . S
C415 C410 1.391 . S
C415 C414 1.388 . S
P416 O427 1.490 . S
P416 C430 1.812 . S
P416 C436 1.803 . S
P416 C442 1.819 . S
H417 C431 0.941 . S
H418 C432 0.939 . S
H419 C434 0.940 . S
H420 C435 0.940 . S
H421 C437 0.939 . S
H422 C438 0.942 . S
H423 C440 0.940 . S
H424 C441 0.938 1_554 S
H425 C443 0.941 . S
H426 C447 0.939 . S
O427 P416 1.490 . S
H428 C444 0.939 . S
H429 C446 0.940 . S
C430 P416 1.812 . S
C430 C431 1.389 . S
C430 C435 1.391 . S
C431 H417 0.941 . S
C431 C430 1.389 . S
C431 C432 1.397 . S
C432 H418 0.939 . S
C432 C431 1.397 . S
C432 C433 1.378 . S
C433 C432 1.378 . S
C433 C434 1.378 . S
C434 H419 0.940 . S
C434 C433 1.378 . S
C434 C435 1.396 . S
C435 H420 0.940 . S
C435 C430 1.391 . S
C435 C434 1.396 . S
C436 P416 1.803 . S
C436 C437 1.378 . S
C436 C441 1.400 . S
C437 H421 0.939 . S
C437 C436 1.378 . S
C437 C438 1.361 . S
C438 H422 0.942 . S
C438 C437 1.361 . S
C438 C439 1.369 1_556 S
C439 C438 1.369 1_554 S
C439 C440 1.404 . S
C440 H423 0.940 . S
C440 C439 1.404 . S
C440 C441 1.389 1_554 S
C441 H424 0.938 1_556 S
C441 C436 1.400 . S
C441 C440 1.389 1_556 S
C442 P416 1.819 . S
C442 C443 1.391 . S
C442 C447 1.391 . S
C443 H425 0.941 . S
C443 C442 1.391 . S
C443 C444 1.396 . S
C444 H428 0.939 . S
C444 C443 1.396 . S
C444 C445 1.397 . S
C445 C444 1.397 . S
C445 C446 1.385 . S
C446 H429 0.940 . S
C446 C445 1.385 . S
C446 C447 1.388 . S
C447 H426 0.939 . S
C447 C442 1.391 . S
C447 C446 1.388 . S
P448 O459 1.490 . S
P448 C462 1.812 . S
P448 C468 1.803 . S
P448 C474 1.819 . S
H449 C463 0.941 . S
H450 C464 0.939 . S
H451 C466 0.940 . S
H452 C467 0.940 . S
H453 C469 0.939 . S
H454 C470 0.942 . S
H455 C472 0.940 . S
H456 C473 0.939 . S
H457 C475 0.941 . S
H458 C479 0.939 . S
O459 P448 1.490 . S
H460 C476 0.939 . S
H461 C478 0.940 . S
C462 P448 1.812 . S
C462 C463 1.389 . S
C462 C467 1.391 . S
C463 H449 0.941 . S
C463 C462 1.389 . S
C463 C464 1.397 . S
C464 H450 0.939 . S
C464 C463 1.397 . S
C464 C465 1.378 . S
C465 C464 1.378 . S
C465 C466 1.378 . S
C466 H451 0.940 . S
C466 C465 1.378 . S
C466 C467 1.396 . S
C467 H452 0.940 . S
C467 C462 1.391 . S
C467 C466 1.396 . S
C468 P448 1.803 . S
C468 C469 1.378 . S
C468 C473 1.400 . S
C469 H453 0.939 . S
C469 C468 1.378 . S
C469 C470 1.361 . S
C470 H454 0.942 . S
C470 C469 1.361 . S
C470 C471 1.369 . S
C471 C470 1.369 . S
C471 C472 1.404 . S
C472 H455 0.940 . S
C472 C471 1.404 . S
C472 C473 1.389 . S
C473 H456 0.939 . S
C473 C468 1.400 . S
C473 C472 1.389 . S
C474 P448 1.819 . S
C474 C475 1.391 . S
C474 C479 1.391 . S
C475 H457 0.941 . S
C475 C474 1.391 . S
C475 C476 1.396 . S
C476 H460 0.939 . S
C476 C475 1.396 . S
C476 C477 1.397 . S
C477 C476 1.397 . S
C477 C478 1.385 . S
C478 H461 0.940 . S
C478 C477 1.385 . S
C478 C479 1.388 . S
C479 H458 0.939 . S
C479 C474 1.391 . S
C479 C478 1.388 . S
P480 O491 1.490 . S
P480 C494 1.812 . S
P480 C500 1.803 . S
P480 C506 1.819 . S
H481 C495 0.941 . S
H482 C496 0.939 . S
H483 C498 0.940 . S
H484 C499 0.940 . S
H485 C501 0.939 . S
H486 C502 0.942 . S
H487 C504 0.940 . S
H488 C505 0.939 . S
H489 C507 0.941 . S
H490 C511 0.939 . S
O491 P480 1.490 . S
H492 C508 0.939 . S
H493 C510 0.940 . S
C494 P480 1.812 . S
C494 C495 1.389 . S
C494 C499 1.391 . S
C495 H481 0.941 . S
C495 C494 1.389 . S
C495 C496 1.397 . S
C496 H482 0.939 . S
C496 C495 1.397 . S
C496 C497 1.378 . S
C497 C496 1.378 . S
C497 C498 1.378 . S
C498 H483 0.940 . S
C498 C497 1.378 . S
C498 C499 1.396 . S
C499 H484 0.940 . S
C499 C494 1.391 . S
C499 C498 1.396 . S
C500 P480 1.803 . S
C500 C501 1.378 1_556 S
C500 C505 1.400 . S
C501 H485 0.939 . S
C501 C500 1.378 1_554 S
C501 C502 1.361 . S
C502 H486 0.942 . S
C502 C501 1.361 . S
C502 C503 1.369 . S
C503 C502 1.369 . S
C503 C504 1.404 1_554 S
C504 H487 0.940 . S
C504 C503 1.404 1_556 S
C504 C505 1.389 . S
C505 H488 0.939 . S
C505 C500 1.400 . S
C505 C504 1.389 . S
C506 P480 1.819 . S
C506 C507 1.391 1_545 S
C506 C511 1.391 . S
C507 H489 0.941 . S
C507 C506 1.391 1_565 S
C507 C508 1.396 . S
C508 H492 0.939 . S
C508 C507 1.396 . S
C508 C509 1.397 . S
C509 C508 1.397 . S
C509 C510 1.385 1_565 S
C510 H493 0.940 . S
C510 C509 1.385 1_545 S
C510 C511 1.388 . S
C511 H490 0.939 . S
C511 C506 1.391 . S
C511 C510 1.388 . S
Zn512 O515 2.056 . S
Zn512 O517 2.032 1_554 S
Zn512 O522 2.034 1_554 S
Zn513 O514 1.962 . S
Zn513 O516 1.986 . S
Zn513 O518 1.996 . S
Zn513 O521 1.943 1_554 S
O514 Zn513 1.962 . S
O514 C519 1.254 . S
O515 Zn512 2.056 . S
O515 C519 1.269 . S
O516 Zn513 1.986 . S
O516 C523 1.262 . S
O517 Zn512 2.032 1_556 S
O517 C525 1.260 . S
O518 Zn513 1.996 . S
O518 C525 1.257 1_554 S
C519 O514 1.254 . S
C519 O515 1.269 . S
C520 O521 1.249 . S
C520 O522 1.270 . S
O521 Zn513 1.943 1_556 S
O521 C520 1.249 . S
O522 Zn512 2.034 1_556 S
O522 C520 1.270 . S
C523 O516 1.262 . S
C523 O524 1.232 . S
O524 C523 1.232 . S
C525 O517 1.260 . S
C525 O518 1.257 1_556 S
Zn526 O529 2.031 . S
Zn526 O531 2.049 . S
Zn526 O536 2.067 . S
Zn527 O528 1.962 . S
Zn527 O530 1.986 . S
Zn527 O532 1.996 . S
Zn527 O535 1.943 . S
O528 Zn527 1.962 . S
O528 C533 1.254 . S
O529 Zn526 2.031 . S
O529 C533 1.269 . S
O530 Zn527 1.986 . S
O530 C537 1.262 . S
O531 Zn526 2.049 . S
O531 C539 1.260 . S
O532 Zn527 1.996 . S
O532 C539 1.257 . S
C533 O528 1.254 . S
C533 O529 1.269 . S
C534 O535 1.249 . S
C534 O536 1.270 . S
O535 Zn527 1.943 . S
O535 C534 1.249 . S
O536 Zn526 2.067 . S
O536 C534 1.270 . S
C537 O530 1.262 . S
C537 O538 1.232 . S
O538 C537 1.232 . S
C539 O531 1.260 . S
C539 O532 1.257 . S
Zn540 O543 2.031 . S
Zn540 O545 2.049 . S
Zn540 O550 2.067 . S
Zn541 O542 1.962 . S
Zn541 O544 1.986 . S
Zn541 O546 1.996 1_554 S
Zn541 O549 1.943 . S
O542 Zn541 1.962 . S
O542 C547 1.254 . S
O543 Zn540 2.031 . S
O543 C547 1.269 1_556 S
O544 Zn541 1.986 . S
O544 C551 1.262 . S
O545 Zn540 2.049 . S
O545 C553 1.260 . S
O546 Zn541 1.996 1_556 S
O546 C553 1.257 . S
C547 O542 1.254 . S
C547 O543 1.269 1_554 S
C548 O549 1.249 1_556 S
C548 O550 1.270 . S
O549 Zn541 1.943 . S
O549 C548 1.249 1_554 S
O550 Zn540 2.067 . S
O550 C548 1.270 . S
C551 O544 1.262 . S
C551 O552 1.232 . S
O552 C551 1.232 . S
C553 O545 1.260 . S
C553 O546 1.257 . S
Zn554 O557 2.030 . S
Zn554 O559 2.050 1_545 S
Zn554 O564 2.069 1_545 S
Zn555 O556 1.962 . S
Zn555 O558 1.986 . S
Zn555 O560 1.996 . S
Zn555 O563 1.943 1_545 S
O556 Zn555 1.962 . S
O556 C561 1.254 . S
O557 Zn554 2.030 . S
O557 C561 1.269 . S
O558 Zn555 1.986 . S
O558 C565 1.262 . S
O559 Zn554 2.050 1_565 S
O559 C567 1.260 . S
O560 Zn555 1.996 . S
O560 C567 1.257 1_545 S
C561 O556 1.254 . S
C561 O557 1.269 . S
C562 O563 1.249 . S
C562 O564 1.270 . S
O563 Zn555 1.943 1_565 S
O563 C562 1.249 . S
O564 Zn554 2.069 1_565 S
O564 C562 1.270 . S
C565 O558 1.262 . S
C565 O566 1.232 . S
O566 C565 1.232 . S
C567 O559 1.260 . S
C567 O560 1.257 1_565 S
Zn568 O571 2.031 . S
Zn568 O573 2.049 . S
Zn568 O578 2.067 . S
Zn569 O570 1.962 . S
Zn569 O572 1.986 . S
Zn569 O574 1.996 . S
Zn569 O577 1.943 . S
O570 Zn569 1.962 . S
O570 C575 1.254 . S
O571 Zn568 2.031 . S
O571 C575 1.269 . S
O572 Zn569 1.986 . S
O572 C579 1.262 . S
O573 Zn568 2.049 . S
O573 C581 1.260 . S
O574 Zn569 1.996 . S
O574 C581 1.257 . S
C575 O570 1.254 . S
C575 O571 1.269 . S
C576 O577 1.249 . S
C576 O578 1.270 . S
O577 Zn569 1.943 . S
O577 C576 1.249 . S
O578 Zn568 2.067 . S
O578 C576 1.270 . S
C579 O572 1.262 . S
C579 O580 1.232 . S
O580 C579 1.232 . S
C581 O573 1.260 . S
C581 O574 1.257 . S
Zn582 O585 2.031 . S
Zn582 O587 2.049 . S
Zn582 O592 2.067 . S
Zn583 O584 1.962 . S
Zn583 O586 1.986 . S
Zn583 O588 1.996 . S
Zn583 O591 1.943 . S
O584 Zn583 1.962 . S
O584 C589 1.254 . S
O585 Zn582 2.031 . S
O585 C589 1.269 . S
O586 Zn583 1.986 . S
O586 C593 1.262 . S
O587 Zn582 2.049 . S
O587 C595 1.260 . S
O588 Zn583 1.996 . S
O588 C595 1.257 . S
C589 O584 1.254 . S
C589 O585 1.269 . S
C590 O591 1.249 . S
C590 O592 1.270 . S
O591 Zn583 1.943 . S
O591 C590 1.249 . S
O592 Zn582 2.067 . S
O592 C590 1.270 . S
C593 O586 1.262 . S
C593 O594 1.232 . S
O594 C593 1.232 . S
C595 O587 1.260 . S
C595 O588 1.257 . S
Zn596 O599 2.031 . S
Zn596 O601 2.049 . S
Zn596 O606 2.067 . S
Zn597 O598 1.962 . S
Zn597 O600 1.986 . S
Zn597 O602 1.996 . S
Zn597 O605 1.943 . S
O598 Zn597 1.962 . S
O598 C603 1.254 . S
O599 Zn596 2.031 . S
O599 C603 1.269 . S
O600 Zn597 1.986 . S
O600 C607 1.262 . S
O601 Zn596 2.049 . S
O601 C609 1.260 . S
O602 Zn597 1.996 . S
O602 C609 1.257 . S
C603 O598 1.254 . S
C603 O599 1.269 . S
C604 O605 1.249 . S
C604 O606 1.270 . S
O605 Zn597 1.943 . S
O605 C604 1.249 . S
O606 Zn596 2.067 . S
O606 C604 1.270 . S
C607 O600 1.262 . S
C607 O608 1.232 . S
O608 C607 1.232 . S
C609 O601 1.260 . S
C609 O602 1.257 . S
Zn610 O613 2.031 . S
Zn610 O615 2.049 . S
Zn610 O620 2.067 . S
Zn611 O612 1.962 . S
Zn611 O614 1.986 . S
Zn611 O616 1.996 1_545 S
Zn611 O619 1.943 . S
O612 Zn611 1.962 . S
O612 C617 1.254 . S
O613 Zn610 2.031 . S
O613 C617 1.269 1_565 S
O614 Zn611 1.986 . S
O614 C621 1.262 . S
O615 Zn610 2.049 . S
O615 C623 1.260 . S
O616 Zn611 1.996 1_565 S
O616 C623 1.257 . S
C617 O612 1.254 . S
C617 O613 1.269 1_545 S
C618 O619 1.249 1_565 S
C618 O620 1.270 . S
O619 Zn611 1.943 . S
O619 C618 1.249 1_545 S
O620 Zn610 2.067 . S
O620 C618 1.270 . S
C621 O614 1.262 . S
C621 O622 1.232 . S
O622 C621 1.232 . S
C623 O615 1.260 . S
C623 O616 1.257 . S
Zn624 O627 2.031 . S
Zn624 O629 2.049 1_455 S
Zn624 O634 2.067 1_455 S
Zn625 O626 1.962 . S
Zn625 O628 1.986 . S
Zn625 O630 1.996 . S
Zn625 O633 1.943 1_455 S
O626 Zn625 1.962 . S
O626 C631 1.254 . S
O627 Zn624 2.031 . S
O627 C631 1.269 . S
O628 Zn625 1.986 . S
O628 C635 1.262 . S
O629 Zn624 2.049 1_655 S
O629 C637 1.260 . S
O630 Zn625 1.996 . S
O630 C637 1.257 1_455 S
C631 O626 1.254 . S
C631 O627 1.269 . S
C632 O633 1.249 . S
C632 O634 1.270 . S
O633 Zn625 1.943 1_655 S
O633 C632 1.249 . S
O634 Zn624 2.067 1_655 S
O634 C632 1.270 . S
C635 O628 1.262 . S
C635 O636 1.232 . S
O636 C635 1.232 . S
C637 O629 1.260 . S
C637 O630 1.257 1_655 S
Zn638 O641 2.031 . S
Zn638 O643 2.049 . S
Zn638 O648 2.067 . S
Zn639 O640 1.962 . S
Zn639 O642 1.986 . S
Zn639 O644 1.996 . S
Zn639 O647 1.943 . S
O640 Zn639 1.962 . S
O640 C645 1.254 . S
O641 Zn638 2.031 . S
O641 C645 1.269 . S
O642 Zn639 1.986 . S
O642 C649 1.262 . S
O643 Zn638 2.049 . S
O643 C651 1.260 . S
O644 Zn639 1.996 . S
O644 C651 1.257 . S
C645 O640 1.254 . S
C645 O641 1.269 . S
C646 O647 1.249 . S
C646 O648 1.270 . S
O647 Zn639 1.943 . S
O647 C646 1.249 . S
O648 Zn638 2.067 . S
O648 C646 1.270 . S
C649 O642 1.262 . S
C649 O650 1.232 . S
O650 C649 1.232 . S
C651 O643 1.260 . S
C651 O644 1.257 . S
Zn652 O655 2.031 . S
Zn652 O657 2.049 . S
Zn652 O662 2.067 . S
Zn653 O654 1.962 . S
Zn653 O656 1.986 . S
Zn653 O658 1.996 1_455 S
Zn653 O661 1.943 . S
O654 Zn653 1.962 . S
O654 C659 1.254 . S
O655 Zn652 2.031 . S
O655 C659 1.269 1_655 S
O656 Zn653 1.986 . S
O656 C663 1.262 . S
O657 Zn652 2.049 . S
O657 C665 1.260 . S
O658 Zn653 1.996 1_655 S
O658 C665 1.257 . S
C659 O654 1.254 . S
C659 O655 1.269 1_455 S
C660 O661 1.249 1_655 S
C660 O662 1.270 . S
O661 Zn653 1.943 . S
O661 C660 1.249 1_455 S
O662 Zn652 2.067 . S
O662 C660 1.270 . S
C663 O656 1.262 . S
C663 O664 1.232 . S
O664 C663 1.232 . S
C665 O657 1.260 . S
C665 O658 1.257 . S
Zn666 O669 2.031 . S
Zn666 O671 2.049 . S
Zn666 O676 2.067 . S
Zn667 O668 1.962 . S
Zn667 O670 1.986 . S
Zn667 O672 1.996 . S
Zn667 O675 1.943 . S
O668 Zn667 1.962 . S
O668 C673 1.254 . S
O669 Zn666 2.031 . S
O669 C673 1.269 . S
O670 Zn667 1.986 . S
O670 C677 1.262 . S
O671 Zn666 2.049 . S
O671 C679 1.260 . S
O672 Zn667 1.996 . S
O672 C679 1.257 . S
C673 O668 1.254 . S
C673 O669 1.269 . S
C674 O675 1.249 . S
C674 O676 1.270 . S
O675 Zn667 1.943 . S
O675 C674 1.249 . S
O676 Zn666 2.067 . S
O676 C674 1.270 . S
C677 O670 1.262 . S
C677 O678 1.232 . S
O678 C677 1.232 . S
C679 O671 1.260 . S
C679 O672 1.257 . S
C680 C681 1.369 . S
C680 C682 1.419 . S
C680 H684 0.930 . S
C681 C680 1.369 . S
C681 C690 1.429 . S
C682 C680 1.419 . S
C682 C683 1.363 . S
C682 H685 0.929 . S
C683 C682 1.363 . S
C683 C689 1.428 . S
H684 C680 0.930 . S
H685 C682 0.929 . S
S686 N687 1.613 . S
S686 N688 1.610 . S
N687 S686 1.613 . S
N687 C690 1.350 . S
N688 S686 1.610 . S
N688 C689 1.351 . S
C689 C683 1.428 . S
C689 N688 1.351 . S
C689 C690 1.434 . S
C690 C681 1.429 . S
C690 N687 1.350 . S
C690 C689 1.434 . S
C691 C692 1.369 . S
C691 C693 1.419 . S
C691 H695 0.930 . S
C692 C691 1.369 . S
C692 C701 1.429 . S
C693 C691 1.419 . S
C693 C694 1.363 . S
C693 H696 0.929 . S
C694 C693 1.363 . S
C694 C700 1.428 . S
H695 C691 0.930 . S
H696 C693 0.929 . S
S697 N698 1.613 . S
S697 N699 1.610 . S
N698 S697 1.613 . S
N698 C701 1.350 . S
N699 S697 1.610 . S
N699 C700 1.351 . S
C700 C694 1.428 . S
C700 N699 1.351 . S
C700 C701 1.434 . S
C701 C692 1.429 . S
C701 N698 1.350 . S
C701 C700 1.434 . S
C702 C703 1.369 . S
C702 C704 1.419 . S
C702 H706 0.930 . S
C703 C702 1.369 . S
C703 C712 1.429 . S
C704 C702 1.419 . S
C704 C705 1.363 . S
C704 H707 0.929 . S
C705 C704 1.363 . S
C705 C711 1.428 . S
H706 C702 0.930 . S
H707 C704 0.929 . S
S708 N709 1.613 . S
S708 N710 1.610 . S
N709 S708 1.613 . S
N709 C712 1.350 . S
N710 S708 1.610 . S
N710 C711 1.351 . S
C711 C705 1.428 . S
C711 N710 1.351 . S
C711 C712 1.434 . S
C712 C703 1.429 . S
C712 N709 1.350 . S
C712 C711 1.434 . S
C713 C714 1.369 . S
C713 C715 1.419 . S
C713 H717 0.939 1_565 S
C714 C713 1.369 . S
C714 C723 1.429 . S
C715 C713 1.419 . S
C715 C716 1.363 . S
C715 H718 0.929 1_565 S
C716 C715 1.363 . S
C716 C722 1.428 . S
H717 C713 0.939 1_545 S
H718 C715 0.929 1_545 S
S719 N720 1.613 . S
S719 N721 1.610 . S
N720 S719 1.613 . S
N720 C723 1.350 . S
N721 S719 1.610 . S
N721 C722 1.351 . S
C722 C716 1.428 . S
C722 N721 1.351 . S
C722 C723 1.434 . S
C723 C714 1.429 . S
C723 N720 1.350 . S
C723 C722 1.434 . S
C724 C725 1.369 . S
C724 C726 1.419 . S
C724 H728 0.930 . S
C725 C724 1.369 . S
C725 C734 1.429 . S
C726 C724 1.419 . S
C726 C727 1.363 . S
C726 H729 0.929 . S
C727 C726 1.363 . S
C727 C733 1.428 . S
H728 C724 0.930 . S
H729 C726 0.929 . S
S730 N731 1.613 . S
S730 N732 1.610 . S
N731 S730 1.613 . S
N731 C734 1.350 . S
N732 S730 1.610 . S
N732 C733 1.351 . S
C733 C727 1.428 . S
C733 N732 1.351 . S
C733 C734 1.434 . S
C734 C725 1.429 . S
C734 N731 1.350 . S
C734 C733 1.434 . S
C735 C736 1.369 . S
C735 C737 1.419 . S
C735 H739 0.930 . S
C736 C735 1.369 . S
C736 C745 1.429 . S
C737 C735 1.419 . S
C737 C738 1.363 . S
C737 H740 0.929 . S
C738 C737 1.363 . S
C738 C744 1.428 . S
H739 C735 0.930 . S
H740 C737 0.929 . S
S741 N742 1.613 . S
S741 N743 1.610 . S
N742 S741 1.613 . S
N742 C745 1.350 . S
N743 S741 1.610 . S
N743 C744 1.351 . S
C744 C738 1.428 . S
C744 N743 1.351 . S
C744 C745 1.434 . S
C745 C736 1.429 . S
C745 N742 1.350 . S
C745 C744 1.434 . S
C746 C747 1.369 . S
C746 C748 1.419 . S
C746 H750 0.930 . S
C747 C746 1.369 . S
C747 C756 1.429 . S
C748 C746 1.419 . S
C748 C749 1.363 . S
C748 H751 0.929 . S
C749 C748 1.363 . S
C749 C755 1.428 . S
H750 C746 0.930 . S
H751 C748 0.929 . S
S752 N753 1.613 . S
S752 N754 1.610 . S
N753 S752 1.613 . S
N753 C756 1.350 . S
N754 S752 1.610 . S
N754 C755 1.351 . S
C755 C749 1.428 . S
C755 N754 1.351 . S
C755 C756 1.434 . S
C756 C747 1.429 . S
C756 N753 1.350 . S
C756 C755 1.434 . S
C757 C758 1.369 . S
C757 C759 1.419 . S
C757 H761 0.930 . S
C758 C757 1.369 . S
C758 C767 1.429 . S
C759 C757 1.419 . S
C759 C760 1.363 . S
C759 H762 0.929 . S
C760 C759 1.363 . S
C760 C766 1.428 . S
H761 C757 0.930 . S
H762 C759 0.929 . S
S763 N764 1.621 . S
S763 N765 1.610 . S
N764 S763 1.621 . S
N764 C767 1.344 1_545 S
N765 S763 1.610 . S
N765 C766 1.351 1_545 S
C766 C760 1.428 . S
C766 N765 1.351 1_565 S
C766 C767 1.434 . S
C767 C758 1.429 . S
C767 N764 1.344 1_565 S
C767 C766 1.434 . S
C768 C769 1.369 . S
C768 C770 1.419 . S
C768 H772 0.930 . S
C769 C768 1.369 . S
C769 C778 1.429 . S
C770 C768 1.419 . S
C770 C771 1.363 . S
C770 H773 0.929 . S
C771 C770 1.363 . S
C771 C777 1.428 . S
H772 C768 0.930 . S
H773 C770 0.929 . S
S774 N775 1.613 . S
S774 N776 1.610 . S
N775 S774 1.613 . S
N775 C778 1.350 . S
N776 S774 1.610 . S
N776 C777 1.351 . S
C777 C771 1.428 . S
C777 N776 1.351 . S
C777 C778 1.434 . S
C778 C769 1.429 . S
C778 N775 1.350 . S
C778 C777 1.434 . S
C779 C780 1.369 . S
C779 C781 1.419 . S
C779 H783 0.930 . S
C780 C779 1.369 . S
C780 C789 1.429 . S
C781 C779 1.419 . S
C781 C782 1.363 . S
C781 H784 0.929 . S
C782 C781 1.363 . S
C782 C788 1.428 . S
H783 C779 0.930 . S
H784 C781 0.929 . S
S785 N786 1.613 . S
S785 N787 1.610 . S
N786 S785 1.613 . S
N786 C789 1.350 . S
N787 S785 1.610 . S
N787 C788 1.351 . S
C788 C782 1.428 . S
C788 N787 1.351 . S
C788 C789 1.434 . S
C789 C780 1.429 . S
C789 N786 1.350 . S
C789 C788 1.434 . S
C790 C791 1.369 . S
C790 C792 1.419 . S
C790 H794 0.930 . S
C791 C790 1.369 . S
C791 C800 1.429 . S
C792 C790 1.419 . S
C792 C793 1.363 . S
C792 H795 0.929 . S
C793 C792 1.363 . S
C793 C799 1.428 . S
H794 C790 0.930 . S
H795 C792 0.929 . S
S796 N797 1.613 . S
S796 N798 1.610 . S
N797 S796 1.613 . S
N797 C800 1.350 . S
N798 S796 1.610 . S
N798 C799 1.351 . S
C799 C793 1.428 . S
C799 N798 1.351 . S
C799 C800 1.434 . S
C800 C791 1.429 . S
C800 N797 1.350 . S
C800 C799 1.434 . S
C801 C802 1.369 . S
C801 C803 1.419 . S
C801 H805 0.930 . S
C802 C801 1.369 . S
C802 C811 1.429 . S
C803 C801 1.419 . S
C803 C804 1.363 . S
C803 H806 0.929 . S
C804 C803 1.363 . S
C804 C810 1.428 . S
H805 C801 0.930 . S
H806 C803 0.929 . S
S807 N808 1.613 . S
S807 N809 1.610 . S
N808 S807 1.613 . S
N808 C811 1.350 . S
N809 S807 1.610 . S
N809 C810 1.351 . S
C810 C804 1.428 . S
C810 N809 1.351 . S
C810 C811 1.434 . S
C811 C802 1.429 . S
C811 N808 1.350 . S
C811 C810 1.434 . S
C812 C813 1.369 . S
C812 C814 1.419 . S
C812 H816 0.930 . S
C813 C812 1.369 . S
C813 C822 1.429 . S
C814 C812 1.419 . S
C814 C815 1.363 . S
C814 H817 0.929 . S
C815 C814 1.363 . S
C815 C821 1.428 . S
H816 C812 0.930 . S
H817 C814 0.929 . S
S818 N819 1.613 . S
S818 N820 1.610 . S
N819 S818 1.613 . S
N819 C822 1.350 . S
N820 S818 1.610 . S
N820 C821 1.351 . S
C821 C815 1.428 . S
C821 N820 1.351 . S
C821 C822 1.434 . S
C822 C813 1.429 . S
C822 N819 1.350 . S
C822 C821 1.434 . S
C823 C824 1.369 . S
C823 C825 1.419 . S
C823 H827 0.930 . S
C824 C823 1.369 . S
C824 C833 1.429 . S
C825 C823 1.419 . S
C825 C826 1.363 . S
C825 H828 0.929 . S
C826 C825 1.363 . S
C826 C832 1.428 . S
H827 C823 0.930 . S
H828 C825 0.929 . S
S829 N830 1.613 . S
S829 N831 1.610 . S
N830 S829 1.613 . S
N830 C833 1.350 1_655 S
N831 S829 1.610 . S
N831 C832 1.351 1_655 S
C832 C826 1.428 . S
C832 N831 1.351 1_455 S
C832 C833 1.434 . S
C833 C824 1.429 . S
C833 N830 1.350 1_455 S
C833 C832 1.434 . S
C834 C835 1.369 . S
C834 C836 1.419 . S
C834 H838 0.930 . S
C835 C834 1.369 . S
C835 C844 1.429 . S
C836 C834 1.419 . S
C836 C837 1.363 . S
C836 H839 0.929 . S
C837 C836 1.363 . S
C837 C843 1.428 . S
H838 C834 0.930 . S
H839 C836 0.929 . S
S840 N841 1.613 . S
S840 N842 1.610 . S
N841 S840 1.613 . S
N841 C844 1.350 . S
N842 S840 1.610 . S
N842 C843 1.351 . S
C843 C837 1.428 . S
C843 N842 1.351 . S
C843 C844 1.434 . S
C844 C835 1.429 . S
C844 N841 1.350 . S
C844 C843 1.434 . S
C845 C846 1.369 . S
C845 C847 1.419 . S
C845 H849 0.930 . S
C846 C845 1.369 . S
C846 C855 1.429 1_655 S
C847 C845 1.419 . S
C847 C848 1.363 . S
C847 H850 0.929 . S
C848 C847 1.363 . S
C848 C854 1.428 1_655 S
H849 C845 0.930 . S
H850 C847 0.929 . S
S851 N852 1.613 . S
S851 N853 1.610 . S
N852 S851 1.613 . S
N852 C855 1.350 . S
N853 S851 1.610 . S
N853 C854 1.351 . S
C854 C848 1.428 1_455 S
C854 N853 1.351 . S
C854 C855 1.434 . S
C855 C846 1.429 1_455 S
C855 N852 1.350 . S
C855 C854 1.434 . S
C856 C857 1.369 . S
C856 C858 1.419 . S
C856 H860 0.930 . S
C857 C856 1.369 . S
C857 C866 1.429 . S
C858 C856 1.419 . S
C858 C859 1.363 . S
C858 H861 0.929 . S
C859 C858 1.363 . S
C859 C865 1.428 . S
H860 C856 0.930 . S
H861 C858 0.929 . S
S862 N863 1.613 . S
S862 N864 1.610 . S
N863 S862 1.613 . S
N863 C866 1.350 . S
N864 S862 1.610 . S
N864 C865 1.351 . S
C865 C859 1.428 . S
C865 N864 1.351 . S
C865 C866 1.434 . S
C866 C857 1.429 . S
C866 N863 1.350 . S
C866 C865 1.434 . S
C867 C868 1.369 . S
C867 C869 1.419 . S
C867 H871 0.930 . S
C868 C867 1.369 . S
C868 C877 1.429 . S
C869 C867 1.419 . S
C869 C870 1.363 . S
C869 H872 0.929 . S
C870 C869 1.363 . S
C870 C876 1.428 . S
H871 C867 0.930 . S
H872 C869 0.929 . S
S873 N874 1.613 . S
S873 N875 1.610 . S
N874 S873 1.613 . S
N874 C877 1.350 . S
N875 S873 1.610 . S
N875 C876 1.351 . S
C876 C870 1.428 . S
C876 N875 1.351 . S
C876 C877 1.434 . S
C877 C868 1.429 . S
C877 N874 1.350 . S
C877 C876 1.434 . S
C878 C879 1.369 . S
C878 C880 1.419 . S
C878 H882 0.897 1_565 S
C879 C878 1.369 . S
C879 C888 1.429 . S
C880 C878 1.419 . S
C880 C881 1.363 . S
C880 H883 0.929 1_556 S
C881 C880 1.363 . S
C881 C887 1.428 . S
H882 C878 0.897 1_545 S
H883 C880 0.929 1_554 S
S884 N885 1.613 . S
S884 N886 1.610 . S
N885 S884 1.613 . S
N885 C888 1.350 . S
N886 S884 1.610 . S
N886 C887 1.351 . S
C887 C881 1.428 . S
C887 N886 1.351 . S
C887 C888 1.434 . S
C888 C879 1.429 . S
C888 N885 1.350 . S
C888 C887 1.434 . S
C889 C890 1.369 . S
C889 C891 1.419 . S
C889 H893 0.930 . S
C890 C889 1.369 . S
C890 C899 1.429 . S
C891 C889 1.419 . S
C891 C892 1.363 . S
C891 H894 0.929 . S
C892 C891 1.363 . S
C892 C898 1.428 . S
H893 C889 0.930 . S
H894 C891 0.929 . S
S895 N896 1.613 . S
S895 N897 1.610 . S
N896 S895 1.613 . S
N896 C899 1.350 . S
N897 S895 1.610 . S
N897 C898 1.351 . S
C898 C892 1.428 . S
C898 N897 1.351 . S
C898 C899 1.434 . S
C899 C890 1.429 . S
C899 N896 1.350 . S
C899 C898 1.434 . S
C900 C901 1.369 . S
C900 C902 1.419 . S
C900 H904 0.930 . S
C901 C900 1.369 . S
C901 C910 1.429 . S
C902 C900 1.419 . S
C902 C903 1.363 . S
C902 H905 0.929 . S
C903 C902 1.363 . S
C903 C909 1.428 . S
H904 C900 0.930 . S
H905 C902 0.929 . S
S906 N907 1.613 . S
S906 N908 1.610 . S
N907 S906 1.613 . S
N907 C910 1.350 . S
N908 S906 1.610 . S
N908 C909 1.351 . S
C909 C903 1.428 . S
C909 N908 1.351 . S
C909 C910 1.434 . S
C910 C901 1.429 . S
C910 N907 1.350 . S
C910 C909 1.434 . S
C911 C912 1.369 . S
C911 C913 1.419 . S
C911 H915 0.930 . S
C912 C911 1.369 . S
C912 C921 1.429 . S
C913 C911 1.419 . S
C913 C914 1.363 . S
C913 H916 0.929 . S
C914 C913 1.363 . S
C914 C920 1.428 . S
H915 C911 0.930 . S
H916 C913 0.929 . S
S917 N918 1.613 . S
S917 N919 1.610 . S
N918 S917 1.613 . S
N918 C921 1.350 . S
N919 S917 1.610 . S
N919 C920 1.351 . S
C920 C914 1.428 . S
C920 N919 1.351 . S
C920 C921 1.434 . S
C921 C912 1.429 . S
C921 N918 1.350 . S
C921 C920 1.434 . S
C922 C923 1.369 . S
C922 C924 1.419 . S
C922 H926 0.930 . S
C923 C922 1.369 . S
C923 C932 1.429 . S
C924 C922 1.419 . S
C924 C925 1.363 . S
C924 H927 0.929 . S
C925 C924 1.363 . S
C925 C931 1.428 . S
H926 C922 0.930 . S
H927 C924 0.929 . S
S928 N929 1.614 . S
S928 N930 1.598 1_565 S
N929 S928 1.614 . S
N929 C932 1.350 1_565 S
N930 S928 1.598 1_545 S
N930 C931 1.351 . S
C931 C925 1.428 . S
C931 N930 1.351 . S
C931 C932 1.434 . S
C932 C923 1.429 . S
C932 N929 1.350 1_545 S
C932 C931 1.434 . S
C933 C934 1.369 . S
C933 C935 1.419 . S
C933 H937 0.930 . S
C934 C933 1.369 . S
C934 C943 1.429 . S
C935 C933 1.419 . S
C935 C936 1.363 . S
C935 H938 0.929 . S
C936 C935 1.363 . S
C936 C942 1.428 . S
H937 C933 0.930 . S
H938 C935 0.929 . S
S939 N940 1.613 . S
S939 N941 1.610 . S
N940 S939 1.613 . S
N940 C943 1.350 . S
N941 S939 1.610 . S
N941 C942 1.351 . S
C942 C936 1.428 . S
C942 N941 1.351 . S
C942 C943 1.434 . S
C943 C934 1.429 . S
C943 N940 1.350 . S
C943 C942 1.434 . S
C944 C945 1.369 . S
C944 C946 1.419 . S
C944 H948 0.930 . S
C945 C944 1.369 . S
C945 C954 1.429 . S
C946 C944 1.419 . S
C946 C947 1.363 . S
C946 H949 0.929 . S
C947 C946 1.363 . S
C947 C953 1.428 . S
H948 C944 0.930 . S
H949 C946 0.929 . S
S950 N951 1.613 . S
S950 N952 1.610 . S
N951 S950 1.613 . S
N951 C954 1.350 . S
N952 S950 1.610 . S
N952 C953 1.351 . S
C953 C947 1.428 . S
C953 N952 1.351 . S
C953 C954 1.434 . S
C954 C945 1.429 . S
C954 N951 1.350 . S
C954 C953 1.434 . S
C955 C956 1.369 . S
C955 C957 1.419 . S
C955 H959 0.930 . S
C956 C955 1.369 . S
C956 C965 1.429 . S
C957 C955 1.419 . S
C957 C958 1.363 . S
C957 H960 0.929 . S
C958 C957 1.363 . S
C958 C964 1.428 . S
H959 C955 0.930 . S
H960 C957 0.929 . S
S961 N962 1.613 . S
S961 N963 1.610 . S
N962 S961 1.613 . S
N962 C965 1.350 . S
N963 S961 1.610 . S
N963 C964 1.351 . S
C964 C958 1.428 . S
C964 N963 1.351 . S
C964 C965 1.434 . S
C965 C956 1.429 . S
C965 N962 1.350 . S
C965 C964 1.434 . S
C966 C967 1.369 . S
C966 C968 1.419 . S
C966 H970 0.930 . S
C967 C966 1.369 . S
C967 C976 1.429 . S
C968 C966 1.419 . S
C968 C969 1.363 . S
C968 H971 0.929 . S
C969 C968 1.363 . S
C969 C975 1.428 . S
H970 C966 0.930 . S
H971 C968 0.929 . S
S972 N973 1.613 . S
S972 N974 1.610 . S
N973 S972 1.613 . S
N973 C976 1.350 . S
N974 S972 1.610 . S
N974 C975 1.351 . S
C975 C969 1.428 . S
C975 N974 1.351 . S
C975 C976 1.434 . S
C976 C967 1.429 . S
C976 N973 1.350 . S
C976 C975 1.434 . S
C977 C978 1.369 . S
C977 C979 1.419 . S
C977 H981 0.930 . S
C978 C977 1.369 . S
C978 C987 1.429 . S
C979 C977 1.419 . S
C979 C980 1.363 . S
C979 H982 0.929 . S
C980 C979 1.363 . S
C980 C986 1.428 . S
H981 C977 0.930 . S
H982 C979 0.929 . S
S983 N984 1.613 . S
S983 N985 1.610 . S
N984 S983 1.613 . S
N984 C987 1.350 . S
N985 S983 1.610 . S
N985 C986 1.351 . S
C986 C980 1.428 . S
C986 N985 1.351 . S
C986 C987 1.434 . S
C987 C978 1.429 . S
C987 N984 1.350 . S
C987 C986 1.434 . S
C988 C989 1.369 . S
C988 C990 1.419 . S
C988 H992 0.930 . S
C989 C988 1.369 . S
C989 C998 1.429 . S
C990 C988 1.419 . S
C990 C991 1.363 . S
C990 H993 0.929 . S
C991 C990 1.363 . S
C991 C997 1.428 . S
H992 C988 0.930 . S
H993 C990 0.929 . S
S994 N995 1.613 . S
S994 N996 1.610 . S
N995 S994 1.613 . S
N995 C998 1.350 . S
N996 S994 1.610 . S
N996 C997 1.351 . S
C997 C991 1.428 . S
C997 N996 1.351 . S
C997 C998 1.434 . S
C998 C989 1.429 . S
C998 N995 1.350 . S
C998 C997 1.434 . S
C999 C1000 1.369 . S
C999 C1001 1.417 1_545 S
C999 H1003 0.930 1_545 S
C1000 C999 1.369 . S
C1000 C1009 1.429 . S
C1001 C999 1.417 1_565 S
C1001 C1002 1.348 1_565 S
C1001 H1004 0.947 . S
C1002 C1001 1.348 1_545 S
C1002 C1008 1.428 . S
H1003 C999 0.930 1_565 S
H1004 C1001 0.947 . S
S1005 N1006 1.613 . S
S1005 N1007 1.610 . S
N1006 S1005 1.613 . S
N1006 C1009 1.350 . S
N1007 S1005 1.610 . S
N1007 C1008 1.351 . S
C1008 C1002 1.428 . S
C1008 N1007 1.351 . S
C1008 C1009 1.434 . S
C1009 C1000 1.429 . S
C1009 N1006 1.350 . S
C1009 C1008 1.434 . S
C1010 C1011 1.369 . S
C1010 C1012 1.419 . S
C1010 H1014 0.930 . S
C1011 C1010 1.369 . S
C1011 C1020 1.429 . S
C1012 C1010 1.419 . S
C1012 C1013 1.363 . S
C1012 H1015 0.929 . S
C1013 C1012 1.363 . S
C1013 C1019 1.428 . S
H1014 C1010 0.930 . S
H1015 C1012 0.929 . S
S1016 N1017 1.613 . S
S1016 N1018 1.610 . S
N1017 S1016 1.613 . S
N1017 C1020 1.350 . S
N1018 S1016 1.610 . S
N1018 C1019 1.351 . S
C1019 C1013 1.428 . S
C1019 N1018 1.351 . S
C1019 C1020 1.434 . S
C1020 C1011 1.429 . S
C1020 N1017 1.350 . S
C1020 C1019 1.434 . S
C1021 C1022 1.369 . S
C1021 C1023 1.419 . S
C1021 H1025 0.930 . S
C1022 C1021 1.369 . S
C1022 C1031 1.429 . S
C1023 C1021 1.419 . S
C1023 C1024 1.363 . S
C1023 H1026 0.929 . S
C1024 C1023 1.363 . S
C1024 C1030 1.428 . S
H1025 C1021 0.930 . S
H1026 C1023 0.929 . S
S1027 N1028 1.613 . S
S1027 N1029 1.610 1_655 S
N1028 S1027 1.613 . S
N1028 C1031 1.350 1_655 S
N1029 S1027 1.610 1_455 S
N1029 C1030 1.351 . S
C1030 C1024 1.428 . S
C1030 N1029 1.351 . S
C1030 C1031 1.434 . S
C1031 C1022 1.429 . S
C1031 N1028 1.350 1_455 S
C1031 C1030 1.434 . S
C1032 C1033 1.369 . S
C1032 C1034 1.419 . S
C1032 H1036 0.930 . S
C1033 C1032 1.369 . S
C1033 C1042 1.429 . S
C1034 C1032 1.419 . S
C1034 C1035 1.363 . S
C1034 H1037 0.929 . S
C1035 C1034 1.363 . S
C1035 C1041 1.428 . S
H1036 C1032 0.930 . S
H1037 C1034 0.929 . S
S1038 N1039 1.613 . S
S1038 N1040 1.610 . S
N1039 S1038 1.613 . S
N1039 C1042 1.350 . S
N1040 S1038 1.610 . S
N1040 C1041 1.351 . S
C1041 C1035 1.428 . S
C1041 N1040 1.351 . S
C1041 C1042 1.434 . S
C1042 C1033 1.429 . S
C1042 N1039 1.350 . S
C1042 C1041 1.434 . S
C1043 C1044 1.369 . S
C1043 C1045 1.419 . S
C1043 H1047 0.930 . S
C1044 C1043 1.369 . S
C1044 C1053 1.397 1_655 S
C1045 C1043 1.419 . S
C1045 C1046 1.363 . S
C1045 H1048 0.929 . S
C1046 C1045 1.363 . S
C1046 C1052 1.428 1_655 S
H1047 C1043 0.930 . S
H1048 C1045 0.929 . S
S1049 N1050 1.613 . S
S1049 N1051 1.610 . S
N1050 S1049 1.613 . S
N1050 C1053 1.375 . S
N1051 S1049 1.610 . S
N1051 C1052 1.351 . S
C1052 C1046 1.428 1_455 S
C1052 N1051 1.351 . S
C1052 C1053 1.444 . S
C1053 C1044 1.397 1_455 S
C1053 N1050 1.375 . S
C1053 C1052 1.444 . S
C1054 C1055 1.369 . S
C1054 C1056 1.419 . S
C1054 H1058 0.930 . S
C1055 C1054 1.369 . S
C1055 C1064 1.429 . S
C1056 C1054 1.419 . S
C1056 C1057 1.363 . S
C1056 H1059 0.929 . S
C1057 C1056 1.363 . S
C1057 C1063 1.428 . S
H1058 C1054 0.930 . S
H1059 C1056 0.929 . S
S1060 N1061 1.613 . S
S1060 N1062 1.610 . S
N1061 S1060 1.613 . S
N1061 C1064 1.350 . S
N1062 S1060 1.610 . S
N1062 C1063 1.351 . S
C1063 C1057 1.428 . S
C1063 N1062 1.351 . S
C1063 C1064 1.434 . S
C1064 C1055 1.429 . S
C1064 N1061 1.350 . S
C1064 C1063 1.434 . S
C1065 C1066 1.369 . S
C1065 C1067 1.419 1_455 S
C1065 H1069 0.930 1_455 S
C1066 C1065 1.369 . S
C1066 C1075 1.429 . S
C1067 C1065 1.419 1_655 S
C1067 C1068 1.363 1_655 S
C1067 H1070 0.929 . S
C1068 C1067 1.363 1_455 S
C1068 C1074 1.428 . S
H1069 C1065 0.930 1_655 S
H1070 C1067 0.929 . S
S1071 N1072 1.613 . S
S1071 N1073 1.610 . S
N1072 S1071 1.613 . S
N1072 C1075 1.350 . S
N1073 S1071 1.610 . S
N1073 C1074 1.351 . S
C1074 C1068 1.428 . S
C1074 N1073 1.351 . S
C1074 C1075 1.434 . S
C1075 C1066 1.429 . S
C1075 N1072 1.350 . S
C1075 C1074 1.434 . S
C1076 C1077 1.369 . S
C1076 C1078 1.419 . S
C1076 H1080 0.930 . S
C1077 C1076 1.369 . S
C1077 C1086 1.429 . S
C1078 C1076 1.419 . S
C1078 C1079 1.363 . S
C1078 H1081 0.929 . S
C1079 C1078 1.363 . S
C1079 C1085 1.428 . S
H1080 C1076 0.930 . S
H1081 C1078 0.929 . S
S1082 N1083 1.613 . S
S1082 N1084 1.610 . S
N1083 S1082 1.613 . S
N1083 C1086 1.350 . S
N1084 S1082 1.610 . S
N1084 C1085 1.351 . S
C1085 C1079 1.428 . S
C1085 N1084 1.351 . S
C1085 C1086 1.434 . S
C1086 C1077 1.429 . S
C1086 N1083 1.350 . S
C1086 C1085 1.434 . S
C1087 C1088 1.369 . S
C1087 C1089 1.419 . S
C1087 H1091 0.930 . S
C1088 C1087 1.369 . S
C1088 C1097 1.429 . S
C1089 C1087 1.419 . S
C1089 C1090 1.363 . S
C1089 H1092 0.929 . S
C1090 C1089 1.363 . S
C1090 C1096 1.428 . S
H1091 C1087 0.930 . S
H1092 C1089 0.929 . S
S1093 N1094 1.613 . S
S1093 N1095 1.610 . S
N1094 S1093 1.613 . S
N1094 C1097 1.350 . S
N1095 S1093 1.610 . S
N1095 C1096 1.351 . S
C1096 C1090 1.428 . S
C1096 N1095 1.351 . S
C1096 C1097 1.434 . S
C1097 C1088 1.429 . S
C1097 N1094 1.350 . S
C1097 C1096 1.434 . S
C1098 C1099 1.369 . S
C1098 C1100 1.419 . S
C1098 H1102 0.930 . S
C1099 C1098 1.369 . S
C1099 C1108 1.429 . S
C1100 C1098 1.419 . S
C1100 C1101 1.363 . S
C1100 H1103 0.929 . S
C1101 C1100 1.363 . S
C1101 C1107 1.428 . S
H1102 C1098 0.930 . S
H1103 C1100 0.929 . S
S1104 N1105 1.613 . S
S1104 N1106 1.610 . S
N1105 S1104 1.613 . S
N1105 C1108 1.350 . S
N1106 S1104 1.610 . S
N1106 C1107 1.351 . S
C1107 C1101 1.428 . S
C1107 N1106 1.351 . S
C1107 C1108 1.434 . S
C1108 C1099 1.429 . S
C1108 N1105 1.350 . S
C1108 C1107 1.434 . S
C1109 C1110 1.369 . S
C1109 C1111 1.419 . S
C1109 H1113 0.930 . S
C1110 C1109 1.369 . S
C1110 C1119 1.429 . S
C1111 C1109 1.419 . S
C1111 C1112 1.363 . S
C1111 H1114 0.929 . S
C1112 C1111 1.363 . S
C1112 C1118 1.428 . S
H1113 C1109 0.930 . S
H1114 C1111 0.929 . S
S1115 N1116 1.613 . S
S1115 N1117 1.610 . S
N1116 S1115 1.613 . S
N1116 C1119 1.350 . S
N1117 S1115 1.610 . S
N1117 C1118 1.351 . S
C1118 C1112 1.428 . S
C1118 N1117 1.351 . S
C1118 C1119 1.434 . S
C1119 C1110 1.429 . S
C1119 N1116 1.350 . S
C1119 C1118 1.434 . S
C1120 C1121 1.369 . S
C1120 C1122 1.419 . S
C1120 H1124 0.930 . S
C1121 C1120 1.369 . S
C1121 C1130 1.429 . S
C1122 C1120 1.419 . S
C1122 C1123 1.363 . S
C1122 H1125 0.929 . S
C1123 C1122 1.363 . S
C1123 C1129 1.428 . S
H1124 C1120 0.930 . S
H1125 C1122 0.929 . S
S1126 N1127 1.613 . S
S1126 N1128 1.610 . S
N1127 S1126 1.613 . S
N1127 C1130 1.350 . S
N1128 S1126 1.610 . S
N1128 C1129 1.351 . S
C1129 C1123 1.428 . S
C1129 N1128 1.351 . S
C1129 C1130 1.434 . S
C1130 C1121 1.429 . S
C1130 N1127 1.350 . S
C1130 C1129 1.434 . S
C1131 C1132 1.369 . S
C1131 C1133 1.419 . S
C1131 H1135 0.930 . S
C1132 C1131 1.369 . S
C1132 C1141 1.429 . S
C1133 C1131 1.419 . S
C1133 C1134 1.363 . S
C1133 H1136 0.929 . S
C1134 C1133 1.363 . S
C1134 C1140 1.428 . S
H1135 C1131 0.930 . S
H1136 C1133 0.929 . S
S1137 N1138 1.613 . S
S1137 N1139 1.610 . S
N1138 S1137 1.613 . S
N1138 C1141 1.350 . S
N1139 S1137 1.610 . S
N1139 C1140 1.351 . S
C1140 C1134 1.428 . S
C1140 N1139 1.351 . S
C1140 C1141 1.434 . S
C1141 C1132 1.429 . S
C1141 N1138 1.350 . S
C1141 C1140 1.434 . S
C1142 C1143 1.369 . S
C1142 C1144 1.419 . S
C1142 H1146 0.930 . S
C1143 C1142 1.369 . S
C1143 C1152 1.429 . S
C1144 C1142 1.419 . S
C1144 C1145 1.363 . S
C1144 H1147 0.929 . S
C1145 C1144 1.363 . S
C1145 C1151 1.428 . S
H1146 C1142 0.930 . S
H1147 C1144 0.929 . S
S1148 N1149 1.613 . S
S1148 N1150 1.610 . S
N1149 S1148 1.613 . S
N1149 C1152 1.350 . S
N1150 S1148 1.610 . S
N1150 C1151 1.351 . S
C1151 C1145 1.428 . S
C1151 N1150 1.351 . S
C1151 C1152 1.434 . S
C1152 C1143 1.429 . S
C1152 N1149 1.350 . S
C1152 C1151 1.434 . S
C1153 C1154 1.369 . S
C1153 C1155 1.419 . S
C1153 H1157 0.930 . S
C1154 C1153 1.369 . S
C1154 C1163 1.429 . S
C1155 C1153 1.419 . S
C1155 C1156 1.363 . S
C1155 H1158 0.929 . S
C1156 C1155 1.363 . S
C1156 C1162 1.428 . S
H1157 C1153 0.930 . S
H1158 C1155 0.929 . S
S1159 N1160 1.613 . S
S1159 N1161 1.610 . S
N1160 S1159 1.613 . S
N1160 C1163 1.350 . S
N1161 S1159 1.610 . S
N1161 C1162 1.351 . S
C1162 C1156 1.428 . S
C1162 N1161 1.351 . S
C1162 C1163 1.434 . S
C1163 C1154 1.429 . S
C1163 N1160 1.350 . S
C1163 C1162 1.434 . S
C1164 C1165 1.369 1_554 S
C1164 C1166 1.419 . S
C1164 H1168 0.930 . S
C1165 C1164 1.369 1_556 S
C1165 C1174 1.429 . S
C1166 C1164 1.419 . S
C1166 C1167 1.363 1_554 S
C1166 H1169 0.929 . S
C1167 C1166 1.363 1_556 S
C1167 C1173 1.428 . S
H1168 C1164 0.930 . S
H1169 C1166 0.929 . S
S1170 N1171 1.613 . S
S1170 N1172 1.610 . S
N1171 S1170 1.613 . S
N1171 C1174 1.350 . S
N1172 S1170 1.610 . S
N1172 C1173 1.351 . S
C1173 C1167 1.428 . S
C1173 N1172 1.351 . S
C1173 C1174 1.434 . S
C1174 C1165 1.429 . S
C1174 N1171 1.350 . S
C1174 C1173 1.434 . S
C1175 C1176 1.369 . S
C1175 C1177 1.419 . S
C1175 H1179 0.930 . S
C1176 C1175 1.369 . S
C1176 C1185 1.429 . S
C1177 C1175 1.419 . S
C1177 C1178 1.363 . S
C1177 H1180 0.929 . S
C1178 C1177 1.363 . S
C1178 C1184 1.428 . S
H1179 C1175 0.930 . S
H1180 C1177 0.929 . S
S1181 N1182 1.613 . S
S1181 N1183 1.610 . S
N1182 S1181 1.613 . S
N1182 C1185 1.350 . S
N1183 S1181 1.610 . S
N1183 C1184 1.351 . S
C1184 C1178 1.428 . S
C1184 N1183 1.351 . S
C1184 C1185 1.434 . S
C1185 C1176 1.429 . S
C1185 N1182 1.350 . S
C1185 C1184 1.434 . S
C1186 C1187 1.369 . S
C1186 C1188 1.419 . S
C1186 H1190 0.930 . S
C1187 C1186 1.369 . S
C1187 C1196 1.429 . S
C1188 C1186 1.419 . S
C1188 C1189 1.363 . S
C1188 H1191 0.929 . S
C1189 C1188 1.363 . S
C1189 C1195 1.428 . S
H1190 C1186 0.930 . S
H1191 C1188 0.929 . S
S1192 N1193 1.613 . S
S1192 N1194 1.610 . S
N1193 S1192 1.613 . S
N1193 C1196 1.350 . S
N1194 S1192 1.610 . S
N1194 C1195 1.351 . S
C1195 C1189 1.428 . S
C1195 N1194 1.351 . S
C1195 C1196 1.434 . S
C1196 C1187 1.429 . S
C1196 N1193 1.350 . S
C1196 C1195 1.434 . S
C1197 C1198 1.369 . S
C1197 C1199 1.419 . S
C1197 H1201 0.930 . S
C1198 C1197 1.369 . S
C1198 C1207 1.429 . S
C1199 C1197 1.419 . S
C1199 C1200 1.363 . S
C1199 H1202 0.929 . S
C1200 C1199 1.363 . S
C1200 C1206 1.428 . S
H1201 C1197 0.930 . S
H1202 C1199 0.929 . S
S1203 N1204 1.613 . S
S1203 N1205 1.610 1_545 S
N1204 S1203 1.613 . S
N1204 C1207 1.350 1_545 S
N1205 S1203 1.610 1_565 S
N1205 C1206 1.351 . S
C1206 C1200 1.428 . S
C1206 N1205 1.351 . S
C1206 C1207 1.434 . S
C1207 C1198 1.429 . S
C1207 N1204 1.350 1_565 S
C1207 C1206 1.434 . S
C683 C520 1.464 . S
C681 C177 1.457 . S
C694 C533 1.506 . S
C692 C209 1.475 . S
C703 C253 1.529 . S
C705 C553 1.481 . S
C716 C567 1.408 . S
C714 C157 1.458 1_655 S
C727 C579 1.517 . S
C725 C343 1.492 . S
C738 C593 1.437 . S
C736 C401 1.404 . S
C747 C369 1.490 . S
C749 C603 1.499 . S
C760 C618 1.500 . S
C758 C317 1.485 . S
C769 C375 1.500 . S
C771 C632 1.499 . S
C782 C651 1.417 . S
C780 C305 1.451 . S
C791 C349 1.484 . S
C793 C631 1.503 . S
C804 C649 1.449 . S
C802 C413 1.402 . S
C813 C241 1.555 . S
C815 C665 1.486 . S
C824 C151 1.462 . S
C826 C659 1.464 . S
C835 C189 1.476 . S
C837 C663 1.509 . S
C846 C215 1.495 . S
C848 C660 1.512 . S
C857 C113 1.485 . S
C859 C562 1.484 . S
C868 C471 1.445 . S
C870 C561 1.467 . S
C881 C525 1.396 . S
C879 C509 1.413 . S
C892 C539 1.508 . S
C890 C279 1.552 . S
C901 C145 1.497 . S
C903 C576 1.469 . S
C914 C621 1.541 . S
C912 C381 1.513 . S
C925 C575 1.499 . S
C923 C311 1.465 . S
C936 C607 1.433 . S
C934 C407 1.403 . S
C947 C604 1.460 . S
C945 C465 1.450 . S
C956 C497 1.467 . S
C958 C617 1.506 . S
C967 C285 1.528 . S
C969 C581 1.477 . S
C980 C595 1.406 . S
C978 C445 1.460 . S
C989 C119 1.492 . S
C991 C551 1.517 . S
C1002 C565 1.436 . S
C1000 C17 1.404 . S
C1013 C519 1.498 . S
C1011 C49 1.486 . S
C1024 C534 1.501 . S
C1022 C93 1.489 . S
C1033 C55 1.500 . S
C1035 C646 1.499 . S
C1044 C81 1.451 . S
C1046 C637 1.411 . S
C1055 C125 1.486 . S
C1057 C645 1.505 . S
C1066 C29 1.424 . S
C1068 C635 1.448 . S
C1079 C679 1.493 . S
C1077 C273 1.548 . S
C1090 C673 1.464 . S
C1088 C439 1.462 . S
C1101 C677 1.510 . S
C1099 C477 1.481 . S
C1110 C503 1.495 . S
C1112 C674 1.512 . S
C1121 C337 1.485 . S
C1123 C590 1.484 . S
C1134 C589 1.468 . S
C1132 C183 1.447 . S
C1145 C609 1.402 . S
C1143 C221 1.416 . S
C1156 C623 1.508 . S
C1154 C247 1.553 . S
C1165 C433 1.496 . S
C1167 C548 1.469 . S
C1178 C537 1.540 . S
C1176 C61 1.517 . S
C1187 C87 1.464 . S
C1189 C547 1.501 . S
C1200 C523 1.434 . S
C1198 C23 1.402 . S
