# Generated by pormake.
# Topology eea, (3,6)-cn, num edge types: 1
# Building blocks:
#     Node 0, Type 0, BuildingBlock: BELTOD_clean_linker_0, # of connection points: 3
#     Node 1, Type 0, BuildingBlock: BELTOD_clean_linker_0, # of connection points: 3
#     Node 2, Type 0, BuildingBlock: BELTOD_clean_linker_0, # of connection points: 3
#     Node 3, Type 0, BuildingBlock: BELTOD_clean_linker_0, # of connection points: 3
#     Node 4, Type 0, BuildingBlock: BELTOD_clean_linker_0, # of connection points: 3
#     Node 5, Type 0, BuildingBlock: BELTOD_clean_linker_0, # of connection points: 3
#     Node 6, Type 0, BuildingBlock: BELTOD_clean_linker_0, # of connection points: 3
#     Node 7, Type 0, BuildingBlock: BELTOD_clean_linker_0, # of connection points: 3
#     Node 8, Type 0, BuildingBlock: BELTOD_clean_linker_0, # of connection points: 3
#     Node 9, Type 0, BuildingBlock: BELTOD_clean_linker_0, # of connection points: 3
#     Node 10, Type 0, BuildingBlock: BELTOD_clean_linker_0, # of connection points: 3
#     Node 11, Type 0, BuildingBlock: BELTOD_clean_linker_0, # of connection points: 3
#     Node 12, Type 0, BuildingBlock: BELTOD_clean_linker_0, # of connection points: 3
#     Node 13, Type 0, BuildingBlock: BELTOD_clean_linker_0, # of connection points: 3
#     Node 14, Type 0, BuildingBlock: BELTOD_clean_linker_0, # of connection points: 3
#     Node 15, Type 0, BuildingBlock: BELTOD_clean_linker_0, # of connection points: 3
#     Node 16, Type 0, BuildingBlock: BELTOD_clean_linker_0, # of connection points: 3
#     Node 17, Type 0, BuildingBlock: BELTOD_clean_linker_0, # of connection points: 3
#     Node 18, Type 1, BuildingBlock: NUHQIS_clean_sbu_0, # of connection points: 6
#     Node 19, Type 1, BuildingBlock: NUHQIS_clean_sbu_0, # of connection points: 6
#     Node 20, Type 1, BuildingBlock: NUHQIS_clean_sbu_0, # of connection points: 6
#     Node 21, Type 1, BuildingBlock: NUHQIS_clean_sbu_0, # of connection points: 6
#     Node 22, Type 1, BuildingBlock: NUHQIS_clean_sbu_0, # of connection points: 6
#     Node 23, Type 1, BuildingBlock: NUHQIS_clean_sbu_0, # of connection points: 6
#     Node 24, Type 1, BuildingBlock: NUHQIS_clean_sbu_0, # of connection points: 6
#     Node 25, Type 1, BuildingBlock: NUHQIS_clean_sbu_0, # of connection points: 6
#     Node 26, Type 1, BuildingBlock: NUHQIS_clean_sbu_0, # of connection points: 6
#     Edge 27, Type (0, 1), BuildingBlock: UVAHIK_clean_linker_0, # of connection points: 2
#     Edge 28, Type (0, 1), BuildingBlock: UVAHIK_clean_linker_0, # of connection points: 2
#     Edge 29, Type (0, 1), BuildingBlock: UVAHIK_clean_linker_0, # of connection points: 2
#     Edge 30, Type (0, 1), BuildingBlock: UVAHIK_clean_linker_0, # of connection points: 2
#     Edge 31, Type (0, 1), BuildingBlock: UVAHIK_clean_linker_0, # of connection points: 2
#     Edge 32, Type (0, 1), BuildingBlock: UVAHIK_clean_linker_0, # of connection points: 2
#     Edge 33, Type (0, 1), BuildingBlock: UVAHIK_clean_linker_0, # of connection points: 2
#     Edge 34, Type (0, 1), BuildingBlock: UVAHIK_clean_linker_0, # of connection points: 2
#     Edge 35, Type (0, 1), BuildingBlock: UVAHIK_clean_linker_0, # of connection points: 2
#     Edge 36, Type (0, 1), BuildingBlock: UVAHIK_clean_linker_0, # of connection points: 2
#     Edge 37, Type (0, 1), BuildingBlock: UVAHIK_clean_linker_0, # of connection points: 2
#     Edge 38, Type (0, 1), BuildingBlock: UVAHIK_clean_linker_0, # of connection points: 2
#     Edge 39, Type (0, 1), BuildingBlock: UVAHIK_clean_linker_0, # of connection points: 2
#     Edge 40, Type (0, 1), BuildingBlock: UVAHIK_clean_linker_0, # of connection points: 2
#     Edge 41, Type (0, 1), BuildingBlock: UVAHIK_clean_linker_0, # of connection points: 2
#     Edge 42, Type (0, 1), BuildingBlock: UVAHIK_clean_linker_0, # of connection points: 2
#     Edge 43, Type (0, 1), BuildingBlock: UVAHIK_clean_linker_0, # of connection points: 2
#     Edge 44, Type (0, 1), BuildingBlock: UVAHIK_clean_linker_0, # of connection points: 2
#     Edge 45, Type (0, 1), BuildingBlock: UVAHIK_clean_linker_0, # of connection points: 2
#     Edge 46, Type (0, 1), BuildingBlock: UVAHIK_clean_linker_0, # of connection points: 2
#     Edge 47, Type (0, 1), BuildingBlock: UVAHIK_clean_linker_0, # of connection points: 2
#     Edge 48, Type (0, 1), BuildingBlock: UVAHIK_clean_linker_0, # of connection points: 2
#     Edge 49, Type (0, 1), BuildingBlock: UVAHIK_clean_linker_0, # of connection points: 2
#     Edge 50, Type (0, 1), BuildingBlock: UVAHIK_clean_linker_0, # of connection points: 2
#     Edge 51, Type (0, 1), BuildingBlock: UVAHIK_clean_linker_0, # of connection points: 2
#     Edge 52, Type (0, 1), BuildingBlock: UVAHIK_clean_linker_0, # of connection points: 2
#     Edge 53, Type (0, 1), BuildingBlock: UVAHIK_clean_linker_0, # of connection points: 2
#     Edge 54, Type (0, 1), BuildingBlock: UVAHIK_clean_linker_0, # of connection points: 2
#     Edge 55, Type (0, 1), BuildingBlock: UVAHIK_clean_linker_0, # of connection points: 2
#     Edge 56, Type (0, 1), BuildingBlock: UVAHIK_clean_linker_0, # of connection points: 2
#     Edge 57, Type (0, 1), BuildingBlock: UVAHIK_clean_linker_0, # of connection points: 2
#     Edge 58, Type (0, 1), BuildingBlock: UVAHIK_clean_linker_0, # of connection points: 2
#     Edge 59, Type (0, 1), BuildingBlock: UVAHIK_clean_linker_0, # of connection points: 2
#     Edge 60, Type (0, 1), BuildingBlock: UVAHIK_clean_linker_0, # of connection points: 2
#     Edge 61, Type (0, 1), BuildingBlock: UVAHIK_clean_linker_0, # of connection points: 2
#     Edge 62, Type (0, 1), BuildingBlock: UVAHIK_clean_linker_0, # of connection points: 2
#     Edge 63, Type (0, 1), BuildingBlock: UVAHIK_clean_linker_0, # of connection points: 2
#     Edge 64, Type (0, 1), BuildingBlock: UVAHIK_clean_linker_0, # of connection points: 2
#     Edge 65, Type (0, 1), BuildingBlock: UVAHIK_clean_linker_0, # of connection points: 2
#     Edge 66, Type (0, 1), BuildingBlock: UVAHIK_clean_linker_0, # of connection points: 2
#     Edge 67, Type (0, 1), BuildingBlock: UVAHIK_clean_linker_0, # of connection points: 2
#     Edge 68, Type (0, 1), BuildingBlock: UVAHIK_clean_linker_0, # of connection points: 2
#     Edge 69, Type (0, 1), BuildingBlock: UVAHIK_clean_linker_0, # of connection points: 2
#     Edge 70, Type (0, 1), BuildingBlock: UVAHIK_clean_linker_0, # of connection points: 2
#     Edge 71, Type (0, 1), BuildingBlock: UVAHIK_clean_linker_0, # of connection points: 2
#     Edge 72, Type (0, 1), BuildingBlock: UVAHIK_clean_linker_0, # of connection points: 2
#     Edge 73, Type (0, 1), BuildingBlock: UVAHIK_clean_linker_0, # of connection points: 2
#     Edge 74, Type (0, 1), BuildingBlock: UVAHIK_clean_linker_0, # of connection points: 2
#     Edge 75, Type (0, 1), BuildingBlock: UVAHIK_clean_linker_0, # of connection points: 2
#     Edge 76, Type (0, 1), BuildingBlock: UVAHIK_clean_linker_0, # of connection points: 2
#     Edge 77, Type (0, 1), BuildingBlock: UVAHIK_clean_linker_0, # of connection points: 2
#     Edge 78, Type (0, 1), BuildingBlock: UVAHIK_clean_linker_0, # of connection points: 2
#     Edge 79, Type (0, 1), BuildingBlock: UVAHIK_clean_linker_0, # of connection points: 2
#     Edge 80, Type (0, 1), BuildingBlock: UVAHIK_clean_linker_0, # of connection points: 2
# Relax obj value: 0.032
# Max RMSD: 0.130
# Mean RMSD: 0.071
data_MOF--net-eea--node1-NUHQIS_clean_sbu_0--node2-BELTOD_clean_linker_0--edge1-UVAHIK_clean_linker_0
_symmetry_space_group_name_H-M    P1
_symmetry_Int_Tables_number       1
_symmetry_cell_setting            triclinic
loop_
_symmetry_equiv_pos_as_xyz
'x, y, z'
_cell_length_a     73.75808
_cell_length_b     73.803254
_cell_length_c     101.91229
_cell_angle_alpha  93.846125
_cell_angle_beta   93.526243
_cell_angle_gamma 119.83902
loop_
_atom_site_label
_atom_site_type_symbol
_atom_site_fract_x
_atom_site_fract_y
_atom_site_fract_z
_atom_type_partial_charge
P0 P 0.33229 0.17593 0.40641 0.0
H1 H 0.33761 0.14896 0.38641 0.0
H2 H 0.31674 0.11129 0.379 0.0
H3 H 0.27409 0.10415 0.40813 0.0
H4 H 0.29463 0.1418 0.41516 0.0
H5 H 0.33601 0.21693 0.41267 0.0
H6 H 0.31624 0.23295 0.40401 0.0
H7 H 0.27836 0.17744 0.37626 0.0
H8 H 0.29822 0.16168 0.38481 0.0
H9 H 0.36305 0.17649 0.42602 0.0
H10 H 0.3074 0.1818 0.42587 0.0
O11 O 0.35593 0.18666 0.40094 0.0
H12 H 0.36539 0.17769 0.45016 0.0
H13 H 0.30961 0.183 0.44994 0.0
C14 C 0.31787 0.14807 0.40149 0.0
C15 C 0.32387 0.13923 0.39126 0.0
C16 C 0.31196 0.11768 0.38707 0.0
C17 C 0.29378 0.10469 0.393 0.0
C18 C 0.28787 0.11372 0.40325 0.0
C19 C 0.29975 0.13522 0.40739 0.0
C20 C 0.31827 0.18793 0.39962 0.0
C21 C 0.32343 0.20823 0.40473 0.0
C22 C 0.31209 0.21732 0.39981 0.0
C23 C 0.29563 0.20637 0.38953 0.0
C24 C 0.29101 0.18631 0.38414 0.0
C25 C 0.30227 0.1772 0.38911 0.0
C26 C 0.33541 0.17964 0.4242 0.0
C27 C 0.35158 0.17833 0.43121 0.0
C28 C 0.35278 0.17882 0.44498 0.0
C29 C 0.33772 0.18052 0.45194 0.0
C30 C 0.32166 0.18207 0.44487 0.0
C31 C 0.32042 0.18144 0.43111 0.0
P32 P 0.91043 0.11581 0.43785 0.0
H33 H 0.90317 0.07498 0.42689 0.0
H34 H 0.87278 0.04427 0.41459 0.0
H35 H 0.83711 0.07614 0.41684 0.0
H36 H 0.86754 0.10677 0.42927 0.0
H37 H 0.94342 0.15974 0.44233 0.0
H38 H 0.9664 0.18405 0.4277 0.0
H39 H 0.93211 0.13728 0.39412 0.0
H40 H 0.90953 0.11292 0.40885 0.0
H41 H 0.91341 0.11411 0.46638 0.0
H42 H 0.89184 0.14301 0.4388 0.0
O43 O 0.92667 0.10825 0.44421 0.0
H44 H 0.90356 0.12936 0.48468 0.0
H45 H 0.88118 0.1577 0.45715 0.0
C46 C 0.88751 0.09301 0.42927 0.0
C47 C 0.88876 0.07531 0.42487 0.0
C48 C 0.87142 0.05783 0.41772 0.0
C49 C 0.85252 0.05776 0.41476 0.0
C50 C 0.85135 0.0756 0.41914 0.0
C51 C 0.86877 0.09314 0.42625 0.0
C52 C 0.92456 0.13466 0.42668 0.0
C53 C 0.94058 0.15489 0.43178 0.0
C54 C 0.95369 0.16879 0.42339 0.0
C55 C 0.95112 0.16262 0.40972 0.0
C56 C 0.93466 0.14246 0.40461 0.0
C57 C 0.92158 0.12857 0.41303 0.0
C58 C 0.9034 0.12747 0.45124 0.0
C59 C 0.9066 0.12377 0.46425 0.0
C60 C 0.901 0.1325 0.4747 0.0
C61 C 0.89168 0.14471 0.47229 0.0
C62 C 0.88829 0.14828 0.45923 0.0
C63 C 0.89433 0.13988 0.44878 0.0
P64 P 0.8612 0.72509 0.41854 0.0
H65 H 0.84008 0.721 0.39268 0.0
H66 H 0.81928 0.73557 0.38395 0.0
H67 H 0.82822 0.76911 0.42249 0.0
H68 H 0.85052 0.75569 0.43078 0.0
H69 H 0.87679 0.72044 0.39384 0.0
H70 H 0.91101 0.73936 0.3855 0.0
H71 H 0.93631 0.78047 0.42218 0.0
H72 H 0.90167 0.76163 0.43042 0.0
H73 H 0.83016 0.71816 0.4371 0.0
H74 H 0.89172 0.72478 0.43833 0.0
O75 O 0.84951 0.7004 0.41132 0.0
H76 H 0.82855 0.71114 0.46017 0.0
H77 H 0.89023 0.71778 0.46146 0.0
C78 C 0.84617 0.7366 0.4125 0.0
C79 C 0.83756 0.7315 0.39924 0.0
C80 C 0.82546 0.73975 0.3943 0.0
C81 C 0.82145 0.75316 0.40256 0.0
C82 C 0.83085 0.75887 0.41577 0.0
C83 C 0.84339 0.75093 0.42062 0.0
C84 C 0.88686 0.73921 0.4129 0.0
C85 C 0.88969 0.73345 0.40014 0.0
C86 C 0.90922 0.74438 0.39534 0.0
C87 C 0.92635 0.76132 0.40322 0.0
C88 C 0.92343 0.7673 0.41596 0.0
C89 C 0.9037 0.75652 0.42069 0.0
C90 C 0.86154 0.72315 0.43613 0.0
C91 C 0.84368 0.71888 0.44245 0.0
C92 C 0.84271 0.71472 0.45565 0.0
C93 C 0.85936 0.71413 0.46271 0.0
C94 C 0.87716 0.71818 0.45631 0.0
C95 C 0.87816 0.7225 0.44312 0.0
P96 P 0.11578 0.27136 0.59003 0.0
H97 H 0.09398 0.23775 0.60698 0.0
H98 H 0.05859 0.22117 0.61373 0.0
H99 H 0.04261 0.25594 0.5875 0.0
H100 H 0.07817 0.27251 0.58074 0.0
H101 H 0.13615 0.27289 0.6158 0.0
H102 H 0.15694 0.2574 0.62341 0.0
H103 H 0.14893 0.22788 0.58377 0.0
H104 H 0.12804 0.24335 0.57622 0.0
H105 H 0.14707 0.30592 0.57738 0.0
H106 H 0.09132 0.24597 0.56503 0.0
O107 O 0.12578 0.29477 0.59889 0.0
H108 H 0.15217 0.31197 0.55432 0.0
H109 H 0.09652 0.25169 0.5418 0.0
C110 C 0.08868 0.25617 0.59318 0.0
C111 C 0.08283 0.24156 0.60246 0.0
C112 C 0.06258 0.23218 0.60641 0.0
C113 C 0.04781 0.2373 0.6012 0.0
C114 C 0.05353 0.25147 0.59159 0.0
C115 C 0.07385 0.26094 0.5877 0.0
C116 C 0.13085 0.25957 0.59541 0.0
C117 C 0.1389 0.26312 0.60874 0.0
C118 C 0.15066 0.25414 0.61309 0.0
C119 C 0.15464 0.24149 0.60417 0.0
C120 C 0.14634 0.23778 0.59083 0.0
C121 C 0.13437 0.2466 0.58651 0.0
C122 C 0.11857 0.27572 0.5729 0.0
C123 C 0.13583 0.2941 0.56968 0.0
C124 C 0.13885 0.29743 0.55647 0.0
C125 C 0.12476 0.28231 0.54618 0.0
C126 C 0.10749 0.26379 0.54947 0.0
C127 C 0.1045 0.26048 0.56274 0.0
P128 P 0.78289 0.88907 0.58323 0.0
H129 H 0.80802 0.92005 0.60567 0.0
H130 H 0.8012 0.94268 0.62059 0.0
H131 H 0.7373 0.91294 0.60189 0.0
H132 H 0.74446 0.89061 0.58678 0.0
H133 H 0.79708 0.8602 0.57531 0.0
H134 H 0.79316 0.82853 0.58391 0.0
H135 H 0.75362 0.83247 0.61225 0.0
H136 H 0.75797 0.86444 0.6037 0.0
H137 H 0.78966 0.91502 0.56185 0.0
H138 H 0.74292 0.85351 0.57045 0.0
O139 O 0.80837 0.90312 0.58122 0.0
H140 H 0.76955 0.90961 0.54056 0.0
H141 H 0.72281 0.8478 0.54903 0.0
C142 C 0.77694 0.90414 0.59491 0.0
C143 C 0.79252 0.91836 0.60482 0.0
C144 C 0.78851 0.93112 0.61344 0.0
C145 C 0.76872 0.92971 0.61237 0.0
C146 C 0.7528 0.91464 0.60281 0.0
C147 C 0.75687 0.90189 0.59418 0.0
C148 C 0.77819 0.86485 0.58905 0.0
C149 C 0.78749 0.85417 0.58333 0.0
C150 C 0.78507 0.83596 0.58819 0.0
C151 C 0.77315 0.82803 0.59882 0.0
C152 C 0.76316 0.83838 0.60419 0.0
C153 C 0.76561 0.85663 0.5993 0.0
C154 C 0.76802 0.88446 0.56753 0.0
C155 C 0.77516 0.90025 0.55907 0.0
C156 C 0.76367 0.89712 0.54691 0.0
C157 C 0.74471 0.87819 0.54306 0.0
C158 C 0.73733 0.86257 0.55174 0.0
C159 C 0.7489 0.86572 0.56392 0.0
P160 P 0.13714 0.82925 0.59399 0.0
H161 H 0.16451 0.85304 0.6183 0.0
H162 H 0.18294 0.89046 0.62652 0.0
H163 H 0.15564 0.90279 0.59193 0.0
H164 H 0.13762 0.86551 0.58371 0.0
H165 H 0.11135 0.7874 0.60208 0.0
H166 H 0.07641 0.76964 0.60967 0.0
H167 H 0.07019 0.82386 0.6039 0.0
H168 H 0.10517 0.84155 0.59641 0.0
H169 H 0.17051 0.84979 0.57738 0.0
H170 H 0.10405 0.80457 0.57174 0.0
O171 O 0.15078 0.8187 0.60018 0.0
H172 H 0.17118 0.84955 0.55343 0.0
H173 H 0.10467 0.80418 0.5477 0.0
C174 C 0.15009 0.85662 0.60028 0.0
C175 C 0.16257 0.86384 0.61249 0.0
C176 C 0.17296 0.88519 0.61721 0.0
C177 C 0.17089 0.89962 0.60982 0.0
C178 C 0.1579 0.89216 0.59773 0.0
C179 C 0.14754 0.87084 0.59304 0.0
C180 C 0.11103 0.81595 0.59898 0.0
C181 C 0.10247 0.79546 0.60246 0.0
C182 C 0.08244 0.78528 0.60671 0.0
C183 C 0.07061 0.79543 0.60749 0.0
C184 C 0.07907 0.81579 0.60364 0.0
C185 C 0.09906 0.8259 0.59933 0.0
C186 C 0.13721 0.82744 0.57632 0.0
C187 C 0.15607 0.83976 0.57097 0.0
C188 C 0.15642 0.83969 0.5573 0.0
C189 C 0.13793 0.82702 0.54873 0.0
C190 C 0.11914 0.81409 0.5541 0.0
C191 C 0.11877 0.81435 0.56783 0.0
P192 P 0.99567 0.49938 0.73422 0.0
H193 H 0.9923 0.47704 0.70866 0.0
H194 H 0.96932 0.44067 0.69899 0.0
H195 H 0.94113 0.4258 0.73567 0.0
H196 H 0.963 0.46239 0.74478 0.0
H197 H 0.00072 0.52633 0.71331 0.0
H198 H 0.98012 0.54172 0.70526 0.0
H199 H 0.93809 0.51464 0.73518 0.0
H200 H 0.95825 0.49853 0.74271 0.0
H201 H 0.00517 0.47555 0.75245 0.0
H202 H 0.99762 0.52995 0.75517 0.0
O203 O 0.01888 0.51002 0.72817 0.0
H204 H 0.00865 0.47728 0.77659 0.0
H205 H 0.00066 0.53154 0.77925 0.0
C206 C 0.97989 0.47221 0.72759 0.0
C207 C 0.98125 0.46585 0.71462 0.0
C208 C 0.96813 0.44499 0.70913 0.0
C209 C 0.95341 0.4301 0.71655 0.0
C210 C 0.95203 0.43675 0.72955 0.0
C211 C 0.96486 0.45767 0.7349 0.0
C212 C 0.98131 0.51181 0.72883 0.0
C213 C 0.98716 0.52386 0.71819 0.0
C214 C 0.97537 0.5327 0.71362 0.0
C215 C 0.9575 0.5296 0.71963 0.0
C216 C 0.9516 0.51722 0.73022 0.0
C217 C 0.96327 0.50821 0.73466 0.0
C218 C 1.00021 0.50205 0.75201 0.0
C219 C 0.00415 0.4878 0.75824 0.0
C220 C 0.00608 0.48877 0.77203 0.0
C221 C 0.00452 0.5043 0.77983 0.0
C222 C 0.00187 0.51935 0.77354 0.0
C223 C 0.99989 0.51831 0.75974 0.0
P224 P 0.57595 0.44633 0.76824 0.0
H225 H 0.56966 0.41198 0.7493 0.0
H226 H 0.53883 0.38427 0.73537 0.0
H227 H 0.50174 0.41069 0.74921 0.0
H228 H 0.53264 0.43818 0.76332 0.0
H229 H 0.61929 0.47957 0.77446 0.0
H230 H 0.6437 0.50697 0.76202 0.0
H231 H 0.59356 0.4889 0.73072 0.0
H232 H 0.56931 0.46115 0.74316 0.0
H233 H 0.56697 0.43003 0.79362 0.0
H234 H 0.56653 0.48011 0.77438 0.0
O235 O 0.58988 0.43532 0.77314 0.0
H236 H 0.55503 0.43995 0.81318 0.0
H237 H 0.55457 0.49026 0.79406 0.0
C238 C 0.55328 0.42677 0.75757 0.0
C239 C 0.55488 0.41178 0.74934 0.0
C240 C 0.53728 0.39607 0.74128 0.0
C241 C 0.51778 0.3952 0.74123 0.0
C242 C 0.51644 0.41073 0.7492 0.0
C243 C 0.5341 0.42646 0.75726 0.0
C244 C 0.59265 0.46815 0.75964 0.0
C245 C 0.61352 0.48165 0.76497 0.0
C246 C 0.62742 0.49742 0.75787 0.0
C247 C 0.62062 0.50008 0.74531 0.0
C248 C 0.59937 0.48705 0.74026 0.0
C249 C 0.58547 0.47123 0.74739 0.0
C250 C 0.56808 0.45464 0.78271 0.0
C251 C 0.56456 0.44336 0.79369 0.0
C252 C 0.55776 0.44907 0.80487 0.0
C253 C 0.55409 0.46604 0.80521 0.0
C254 C 0.55728 0.47712 0.79407 0.0
C255 C 0.56425 0.47145 0.78289 0.0
P256 P 0.52276 0.0543 0.75312 0.0
H257 H 0.48769 0.03877 0.73239 0.0
H258 H 0.46691 0.05353 0.72377 0.0
H259 H 0.50311 0.10912 0.75172 0.0
H260 H 0.52385 0.09401 0.76045 0.0
H261 H 0.5363 0.05023 0.72754 0.0
H262 H 0.57006 0.06837 0.71854 0.0
H263 H 0.59829 0.10783 0.75569 0.0
H264 H 0.56425 0.08957 0.76464 0.0
H265 H 0.49691 0.05675 0.77322 0.0
H266 H 0.55128 0.0495 0.7718 0.0
O267 O 0.51126 0.02918 0.74673 0.0
H268 H 0.49607 0.05093 0.79651 0.0
H269 H 0.55075 0.04397 0.79519 0.0
C270 C 0.50708 0.06516 0.74721 0.0
C271 C 0.49111 0.05407 0.73675 0.0
C272 C 0.47933 0.06262 0.73174 0.0
C273 C 0.48337 0.08253 0.73703 0.0
C274 C 0.49946 0.09366 0.74753 0.0
C275 C 0.51134 0.08508 0.7525 0.0
C276 C 0.54793 0.06816 0.74686 0.0
C277 C 0.54977 0.06274 0.73377 0.0
C278 C 0.56904 0.07324 0.72861 0.0
C279 C 0.58688 0.08947 0.73643 0.0
C280 C 0.58489 0.09518 0.74949 0.0
C281 C 0.56547 0.08476 0.75462 0.0
C282 C 0.52455 0.0542 0.77084 0.0
C283 C 0.50909 0.05458 0.77801 0.0
C284 C 0.5086 0.05119 0.79136 0.0
C285 C 0.52336 0.04699 0.79775 0.0
C286 C 0.53906 0.047 0.79056 0.0
C287 C 0.53954 0.05043 0.77722 0.0
P288 P 0.7853 0.61041 0.92049 0.0
H289 H 0.76802 0.58695 0.94281 0.0
H290 H 0.73338 0.57144 0.95068 0.0
H291 H 0.71014 0.58873 0.91658 0.0
H292 H 0.74476 0.60362 0.90855 0.0
H293 H 0.82975 0.62733 0.92872 0.0
H294 H 0.85055 0.61108 0.93454 0.0
H295 H 0.79491 0.54962 0.92604 0.0
H296 H 0.77413 0.56611 0.92032 0.0
H297 H 0.79384 0.64697 0.90681 0.0
H298 H 0.77894 0.58312 0.89626 0.0
O299 O 0.7968 0.63377 0.92959 0.0
H300 H 0.79866 0.654 0.88385 0.0
H301 H 0.78408 0.59013 0.8732 0.0
C302 C 0.75885 0.59595 0.92492 0.0
C303 C 0.75532 0.58689 0.93684 0.0
C304 C 0.73554 0.57827 0.94142 0.0
C305 C 0.71893 0.57891 0.93431 0.0
C306 C 0.72244 0.58767 0.92222 0.0
C307 C 0.74227 0.59622 0.91761 0.0
C308 C 0.80032 0.59795 0.92444 0.0
C309 C 0.82201 0.61036 0.92815 0.0
C310 C 0.83392 0.60102 0.93136 0.0
C311 C 0.82437 0.57904 0.93083 0.0
C312 C 0.80267 0.5666 0.92676 0.0
C313 C 0.79078 0.57599 0.92348 0.0
C314 C 0.78638 0.61463 0.90327 0.0
C315 C 0.79154 0.63442 0.89954 0.0
C316 C 0.79441 0.63846 0.8864 0.0
C317 C 0.79208 0.62273 0.87672 0.0
C318 C 0.78596 0.60259 0.8804 0.0
C319 C 0.78311 0.59858 0.89359 0.0
P320 P 0.4483 0.21361 0.91865 0.0
H321 H 0.48022 0.25223 0.93448 0.0
H322 H 0.47893 0.28144 0.94613 0.0
H323 H 0.41196 0.25019 0.93459 0.0
H324 H 0.41345 0.22101 0.92279 0.0
H325 H 0.43333 0.1694 0.91057 0.0
H326 H 0.42611 0.13996 0.92319 0.0
H327 H 0.43671 0.17935 0.95946 0.0
H328 H 0.44406 0.20876 0.9468 0.0
H329 H 0.46083 0.22966 0.89352 0.0
H330 H 0.40389 0.18503 0.90869 0.0
O331 O 0.47334 0.22146 0.91664 0.0
H332 H 0.44154 0.22255 0.87172 0.0
H333 H 0.38443 0.17752 0.88676 0.0
C334 C 0.44701 0.2347 0.92755 0.0
C335 C 0.46526 0.25166 0.93443 0.0
C336 C 0.46446 0.26826 0.94119 0.0
C337 C 0.44533 0.26814 0.94125 0.0
C338 C 0.42696 0.25085 0.93457 0.0
C339 C 0.42779 0.23418 0.92783 0.0
C340 C 0.43886 0.19114 0.92771 0.0
C341 C 0.4335 0.17152 0.9212 0.0
C342 C 0.42933 0.1547 0.92843 0.0
C343 C 0.43083 0.15736 0.94232 0.0
C344 C 0.43553 0.17688 0.94878 0.0
C345 C 0.4396 0.19366 0.94153 0.0
C346 C 0.43387 0.20748 0.90259 0.0
C347 C 0.4442 0.21811 0.8921 0.0
C348 C 0.43316 0.21399 0.87963 0.0
C349 C 0.41151 0.19929 0.87748 0.0
C350 C 0.40109 0.18895 0.88812 0.0
C351 C 0.41221 0.19308 0.90061 0.0
P352 P 0.80043 0.16554 0.92757 0.0
H353 H 0.7991 0.19109 0.95046 0.0
H354 H 0.81811 0.22889 0.95727 0.0
H355 H 0.85428 0.23871 0.92395 0.0
H356 H 0.83472 0.201 0.91697 0.0
H357 H 0.77418 0.12483 0.93691 0.0
H358 H 0.73895 0.10804 0.9441 0.0
H359 H 0.73364 0.16199 0.93593 0.0
H360 H 0.76891 0.17866 0.92862 0.0
H361 H 0.80956 0.13921 0.9095 0.0
H362 H 0.78692 0.18272 0.90668 0.0
O363 O 0.8136 0.15489 0.93431 0.0
H364 H 0.80949 0.1358 0.88548 0.0
H365 H 0.78738 0.17994 0.8827 0.0
C366 C 0.81489 0.19332 0.93291 0.0
C367 C 0.81091 0.20141 0.94452 0.0
C368 C 0.82198 0.22303 0.94849 0.0
C369 C 0.83755 0.23689 0.94105 0.0
C370 C 0.84202 0.22856 0.9297 0.0
C371 C 0.83086 0.20697 0.92572 0.0
C372 C 0.77432 0.15319 0.93257 0.0
C373 C 0.76546 0.13306 0.93668 0.0
C374 C 0.74528 0.12343 0.94071 0.0
C375 C 0.73363 0.13379 0.94066 0.0
C376 C 0.7424 0.1538 0.93625 0.0
C377 C 0.76251 0.16331 0.93207 0.0
C378 C 0.79848 0.16141 0.90984 0.0
C379 C 0.80452 0.14799 0.9037 0.0
C380 C 0.80459 0.14617 0.88997 0.0
C381 C 0.79865 0.15777 0.88215 0.0
C382 C 0.79187 0.17062 0.88837 0.0
C383 C 0.7917 0.17233 0.90209 0.0
P384 P 0.66615 0.83844 0.07342 0.0
H385 H 0.66707 0.81388 0.04997 0.0
H386 H 0.64582 0.77654 0.04159 0.0
H387 H 0.61025 0.76554 0.07527 0.0
H388 H 0.63171 0.80262 0.08365 0.0
H389 H 0.68004 0.87656 0.06016 0.0
H390 H 0.66108 0.89272 0.0505 0.0
H391 H 0.60315 0.84355 0.06235 0.0
H392 H 0.62215 0.82747 0.07188 0.0
H393 H 0.68055 0.82007 0.09281 0.0
H394 H 0.65732 0.86341 0.09318 0.0
O395 O 0.69012 0.84885 0.06845 0.0
H396 H 0.68122 0.82116 0.11687 0.0
H397 H 0.65779 0.86443 0.11723 0.0
C398 C 0.65128 0.81088 0.06757 0.0
C399 C 0.65485 0.80334 0.05561 0.0
C400 C 0.64259 0.78205 0.05078 0.0
C401 C 0.62644 0.76805 0.05782 0.0
C402 C 0.62284 0.7758 0.06975 0.0
C403 C 0.63509 0.79703 0.07455 0.0
C404 C 0.65243 0.85065 0.06654 0.0
C405 C 0.66326 0.86925 0.06064 0.0
C406 C 0.65242 0.87851 0.05519 0.0
C407 C 0.63059 0.8693 0.05558 0.0
C408 C 0.61989 0.8508 0.06167 0.0
C409 C 0.63074 0.84162 0.06715 0.0
C410 C 0.66863 0.84141 0.09121 0.0
C411 C 0.67572 0.82992 0.09809 0.0
C412 C 0.67597 0.83045 0.11181 0.0
C413 C 0.66933 0.84269 0.11891 0.0
C414 C 0.66305 0.85489 0.11203 0.0
C415 C 0.66268 0.85423 0.09826 0.0
P416 P 0.24348 0.77466 0.1045 0.0
H417 H 0.23726 0.74183 0.08433 0.0
H418 H 0.20686 0.7161 0.0692 0.0
H419 H 0.17057 0.74311 0.08361 0.0
H420 H 0.20101 0.76858 0.09891 0.0
H421 H 0.28866 0.80191 0.11011 0.0
H422 H 0.31492 0.82923 0.09848 0.0
H423 H 0.26558 0.82317 0.07013 0.0
H424 H 0.23938 0.79539 0.08173 0.0
H425 H 0.22984 0.75656 0.12891 0.0
H426 H 0.23774 0.81089 0.11088 0.0
O427 O 0.25523 0.7617 0.10972 0.0
H428 H 0.21747 0.76698 0.14806 0.0
H429 H 0.22544 0.82158 0.13016 0.0
C430 C 0.22121 0.75674 0.09293 0.0
C431 C 0.22275 0.7422 0.08422 0.0
C432 C 0.20541 0.72763 0.07549 0.0
C433 C 0.18624 0.72748 0.07524 0.0
C434 C 0.185 0.7426 0.08371 0.0
C435 C 0.2024 0.75718 0.09245 0.0
C436 C 0.26218 0.79637 0.09661 0.0
C437 C 0.2835 0.80655 0.10144 0.0
C438 C 0.29848 0.82231 0.09482 0.0
C439 C 0.29238 0.82832 0.0833 0.0
C440 C 0.27083 0.81864 0.07883 0.0
C441 C 0.25584 0.80283 0.08547 0.0
C442 C 0.23518 0.78323 0.11866 0.0
C443 C 0.22916 0.7709 0.12916 0.0
C444 C 0.22212 0.7769 0.14011 0.0
C445 C 0.22073 0.79524 0.14069 0.0
C446 C 0.22636 0.80737 0.12999 0.0
C447 C 0.23353 0.80138 0.11903 0.0
P448 P 0.19219 0.39578 0.08519 0.0
H449 H 0.17326 0.39266 0.05879 0.0
H450 H 0.15329 0.40766 0.04936 0.0
H451 H 0.15955 0.4402 0.0878 0.0
H452 H 0.18106 0.42641 0.09683 0.0
H453 H 0.2078 0.38772 0.06133 0.0
H454 H 0.242 0.40518 0.05286 0.0
H455 H 0.26741 0.45045 0.08769 0.0
H456 H 0.23276 0.43307 0.09605 0.0
H457 H 0.16043 0.38865 0.10312 0.0
H458 H 0.22311 0.39793 0.10589 0.0
O459 O 0.17969 0.37077 0.07848 0.0
H460 H 0.15855 0.38302 0.12642 0.0
H461 H 0.22145 0.39255 0.12927 0.0
C462 C 0.17799 0.40778 0.07861 0.0
C463 C 0.17036 0.40307 0.06517 0.0
C464 C 0.15873 0.41156 0.05982 0.0
C465 C 0.15419 0.42479 0.06784 0.0
C466 C 0.16262 0.43011 0.08125 0.0
C467 C 0.1747 0.42195 0.08652 0.0
C468 C 0.21791 0.40869 0.07952 0.0
C469 C 0.22072 0.40131 0.06721 0.0
C470 C 0.24024 0.4114 0.06232 0.0
C471 C 0.25739 0.4291 0.06965 0.0
C472 C 0.25451 0.43667 0.08193 0.0
C473 C 0.23478 0.42673 0.08672 0.0
C474 C 0.19233 0.39483 0.10287 0.0
C475 C 0.1741 0.39023 0.10884 0.0
C476 C 0.173 0.38691 0.12218 0.0
C477 C 0.18994 0.38757 0.12977 0.0
C478 C 0.20813 0.39197 0.12372 0.0
C479 C 0.20923 0.39538 0.11037 0.0
P480 P 0.45556 0.94331 0.25595 0.0
H481 H 0.44157 0.94887 0.28111 0.0
H482 H 0.40713 0.93401 0.28914 0.0
H483 H 0.37855 0.89555 0.25165 0.0
H484 H 0.41326 0.91111 0.24355 0.0
H485 H 0.50014 0.9576 0.26024 0.0
H486 H 0.51981 0.94064 0.26703 0.0
H487 H 0.46138 0.88258 0.26813 0.0
H488 H 0.44181 0.89992 0.2616 0.0
H489 H 0.4537 0.97351 0.23977 0.0
H490 H 0.45485 0.91577 0.23339 0.0
O491 O 0.46929 0.96796 0.26329 0.0
H492 H 0.45625 0.97778 0.21631 0.0
H493 H 0.45692 0.91964 0.20978 0.0
C494 C 0.4299 0.9314 0.26166 0.0
C495 C 0.42788 0.93729 0.27459 0.0
C496 C 0.40814 0.92859 0.27922 0.0
C497 C 0.38996 0.91355 0.27105 0.0
C498 C 0.39214 0.90733 0.25814 0.0
C499 C 0.41197 0.91614 0.2535 0.0
C500 C 0.46956 0.93016 0.26071 0.0
C501 C 0.49157 0.94124 0.262 0.0
C502 C 0.5028 0.93144 0.26575 0.0
C503 C 0.4922 0.91023 0.26817 0.0
C504 C 0.47005 0.89902 0.26656 0.0
C505 C 0.45882 0.90889 0.26281 0.0
C506 C 0.45454 0.94458 0.23835 0.0
C507 C 0.45425 0.96161 0.23327 0.0
C508 C 0.45556 0.96395 0.21981 0.0
C509 C 0.45701 0.94916 0.21114 0.0
C510 C 0.45627 0.93154 0.21621 0.0
C511 C 0.45498 0.92925 0.2297 0.0
P512 P 0.12128 0.55465 0.24468 0.0
H513 H 0.15396 0.59527 0.25794 0.0
H514 H 0.15296 0.62475 0.26945 0.0
H515 H 0.08522 0.59111 0.26148 0.0
H516 H 0.08635 0.5616 0.24988 0.0
H517 H 0.10084 0.50867 0.23979 0.0
H518 H 0.09749 0.4822 0.25422 0.0
H519 H 0.12592 0.53021 0.28759 0.0
H520 H 0.1289 0.55656 0.27323 0.0
H521 H 0.13053 0.56342 0.21778 0.0
H522 H 0.0757 0.52666 0.23757 0.0
O523 O 0.14594 0.56278 0.2415 0.0
H524 H 0.10871 0.55206 0.19663 0.0
H525 H 0.05359 0.51513 0.21627 0.0
C526 C 0.12027 0.57644 0.25282 0.0
C527 C 0.1389 0.59426 0.25857 0.0
C528 C 0.13828 0.61103 0.26526 0.0
C529 C 0.119 0.61022 0.26636 0.0
C530 C 0.10032 0.59226 0.26064 0.0
C531 C 0.10095 0.5754 0.25401 0.0
C532 C 0.11463 0.53451 0.25549 0.0
C533 C 0.10564 0.5134 0.25029 0.0
C534 C 0.10376 0.49828 0.25852 0.0
C535 C 0.1114 0.50422 0.272 0.0
C536 C 0.11988 0.52527 0.27724 0.0
C537 C 0.12148 0.54029 0.26904 0.0
C538 C 0.10478 0.54555 0.22919 0.0
C539 C 0.1138 0.55271 0.21756 0.0
C540 C 0.1013 0.54616 0.20545 0.0
C541 C 0.07948 0.5325 0.20478 0.0
C542 C 0.07037 0.52567 0.21651 0.0
C543 C 0.08297 0.53216 0.22864 0.0
P544 P 0.46782 0.49591 0.26113 0.0
H545 H 0.5006 0.52116 0.283 0.0
H546 H 0.52044 0.55888 0.29019 0.0
H547 H 0.48645 0.56932 0.2583 0.0
H548 H 0.46634 0.5315 0.25139 0.0
H549 H 0.43111 0.45419 0.25415 0.0
H550 H 0.39594 0.43678 0.2615 0.0
H551 H 0.41215 0.49348 0.28659 0.0
H552 H 0.44697 0.5108 0.27903 0.0
H553 H 0.50014 0.49881 0.24517 0.0
H554 H 0.43721 0.48838 0.23844 0.0
O555 O 0.47989 0.48434 0.26808 0.0
H556 H 0.50295 0.49886 0.22139 0.0
H557 H 0.43986 0.48829 0.21459 0.0
C558 C 0.48227 0.52363 0.26655 0.0
C559 C 0.49746 0.53157 0.27755 0.0
C560 C 0.50886 0.55316 0.2816 0.0
C561 C 0.50516 0.56715 0.27475 0.0
C562 C 0.4896 0.55899 0.26385 0.0
C563 C 0.47821 0.5374 0.25982 0.0
C564 C 0.44153 0.48386 0.26586 0.0
C565 C 0.42695 0.46291 0.2611 0.0
C566 C 0.40693 0.45295 0.2654 0.0
C567 C 0.40121 0.46375 0.27463 0.0
C568 C 0.4159 0.48481 0.27931 0.0
C569 C 0.43589 0.49474 0.275 0.0
C570 C 0.46831 0.49308 0.24352 0.0
C571 C 0.48679 0.49614 0.23854 0.0
C572 C 0.48844 0.49636 0.22497 0.0
C573 C 0.47161 0.49356 0.21615 0.0
C574 C 0.45296 0.4902 0.22116 0.0
C575 C 0.45141 0.49018 0.23477 0.0
Tb576 Tb 0.49137 0.97829 0.98977 0.0
Eu577 Eu 0.50976 0.00846 0.01841 0.0
C578 C 0.51859 0.97079 0.01088 0.0
C579 C 0.467 0.96461 0.01497 0.0
C580 C 0.48233 0.96545 0.95369 0.0
C581 C 0.4779 0.9577 0.92978 0.0
C582 C 0.47422 0.95085 0.94234 0.0
C583 C 0.4942 0.98699 0.95236 0.0
C584 C 0.49784 0.99385 0.93982 0.0
C585 C 0.48973 0.97929 0.92837 0.0
C586 C 0.47858 0.95831 0.9669 0.0
O587 O 0.49004 0.00659 0.98732 0.0
O588 O 0.48465 0.0132 0.00842 0.0
O589 O 0.53018 0.02852 0.00371 0.0
O590 O 0.52426 0.00109 0.98856 0.0
C591 C 0.48274 0.01483 0.99577 0.0
O592 O 0.50499 0.02599 0.03461 0.0
O593 O 0.53347 0.02435 0.0355 0.0
O594 O 0.52662 0.9903 0.01619 0.0
O595 O 0.50154 0.96164 0.00238 0.0
O596 O 0.4655 0.96546 0.00212 0.0
O597 O 0.48462 0.9768 0.02256 0.0
C598 C 0.53534 0.02101 0.99344 0.0
O599 O 0.49501 0.96075 0.97411 0.0
O600 O 0.46779 0.96445 0.97368 0.0
C601 C 0.51813 0.02288 0.05532 0.0
C602 C 0.50846 0.00955 0.08059 0.0
C603 C 0.517 0.03089 0.07866 0.0
C604 C 0.52176 0.03747 0.06613 0.0
C605 C 0.50985 0.00164 0.05719 0.0
C606 C 0.5051 0.99504 0.0697 0.0
C607 C 0.52173 0.02954 0.04199 0.0
H608 H 0.47125 0.9461 0.92117 0.0
H609 H 0.46502 0.93417 0.9432 0.0
H610 H 0.50071 0.99849 0.96103 0.0
H611 H 0.50725 0.01055 0.93911 0.0
H612 H 0.51953 0.04244 0.08677 0.0
H613 H 0.52794 0.0539 0.06482 0.0
H614 H 0.50684 0.99011 0.04894 0.0
H615 H 0.49882 0.97856 0.07084 0.0
Tb616 Tb 0.99897 0.50087 0.98358 0.0
Eu617 Eu 0.97448 0.49389 0.01039 0.0
C618 C 0.01527 0.53722 0.00677 0.0
C619 C 0.01413 0.48809 0.00919 0.0
C620 C 0.01475 0.50647 0.94897 0.0
C621 C 0.02898 0.51826 0.92837 0.0
C622 C 0.03188 0.51838 0.94203 0.0
C623 C 0.99453 0.49448 0.94212 0.0
C624 C 0.99161 0.49426 0.92839 0.0
C625 C 0.00884 0.50618 0.92138 0.0
C626 C 0.01852 0.50693 0.96332 0.0
O627 O 0.96894 0.4721 0.97835 0.0
O628 O 0.96372 0.46231 0.99923 0.0
O629 O 0.95306 0.49476 0.99416 0.0
O630 O 0.97804 0.51356 0.98053 0.0
C631 C 0.96001 0.45762 0.98635 0.0
O632 O 0.95931 0.47402 0.02574 0.0
O633 O 0.96045 0.50385 0.02545 0.0
O634 O 0.99656 0.52864 0.01087 0.0
O635 O 0.02035 0.5267 0.99834 0.0
O636 O 0.00977 0.48459 0.99624 0.0
O637 O 0.00535 0.49612 0.01659 0.0
C638 C 0.95917 0.50644 0.98438 0.0
O639 O 0.01776 0.52169 0.9706 0.0
O640 O 0.00914 0.48898 0.9682 0.0
C641 C 0.96396 0.49294 0.04616 0.0
C642 C 0.97969 0.49918 0.07293 0.0
C643 C 0.95792 0.48723 0.06903 0.0
C644 C 0.95012 0.48408 0.05571 0.0
C645 C 0.98562 0.50537 0.05003 0.0
C646 C 0.99342 0.5085 0.06331 0.0
C647 C 0.95607 0.4879 0.03208 0.0
H648 H 0.0426 0.52735 0.92324 0.0
H649 H 0.04759 0.52771 0.94719 0.0
H650 H 0.98109 0.48528 0.94737 0.0
H651 H 0.97589 0.48495 0.92328 0.0
H652 H 0.94698 0.47971 0.0762 0.0
H653 H 0.93337 0.47431 0.05283 0.0
H654 H 0.99652 0.51226 0.04274 0.0
H655 H 0.01023 0.51805 0.06603 0.0
Tb656 Tb 0.49815 0.50582 0.01527 0.0
Eu657 Eu 0.47739 0.5104 0.98688 0.0
C658 C 0.47617 0.46802 0.99297 0.0
C659 C 0.52369 0.51721 0.99037 0.0
C660 C 0.5086 0.50219 0.0511 0.0
C661 C 0.49885 0.48451 0.07094 0.0
C662 C 0.50298 0.4844 0.05776 0.0
C663 C 0.51014 0.52021 0.05789 0.0
C664 C 0.5062 0.52039 0.07114 0.0
C665 C 0.50045 0.50251 0.07777 0.0
C666 C 0.51267 0.5014 0.03714 0.0
O667 O 0.49704 0.53454 0.0187 0.0
O668 O 0.49878 0.54281 0.9974 0.0
O669 O 0.456 0.50978 0.00182 0.0
O670 O 0.46479 0.49318 0.01718 0.0
C671 C 0.50162 0.54838 0.01019 0.0
O672 O 0.48036 0.52886 0.97047 0.0
O673 O 0.45223 0.49867 0.97061 0.0
O674 O 0.46529 0.47594 0.98781 0.0
O675 O 0.49272 0.47935 0.00162 0.0
O676 O 0.52419 0.52104 0.00324 0.0
O677 O 0.50604 0.50872 0.98251 0.0
C678 C 0.45213 0.49938 0.01223 0.0
O679 O 0.49766 0.4859 0.02917 0.0
O680 O 0.52099 0.51898 0.03177 0.0
C681 C 0.46593 0.50789 0.95022 0.0
C682 C 0.47656 0.49997 0.92524 0.0
C683 C 0.47008 0.51484 0.92732 0.0
C684 C 0.46484 0.51879 0.93974 0.0
C685 C 0.47179 0.49262 0.94809 0.0
C686 C 0.47694 0.48861 0.9357 0.0
C687 C 0.46321 0.51398 0.96365 0.0
H688 H 0.49472 0.4706 0.07585 0.0
H689 H 0.50179 0.47037 0.05275 0.0
H690 H 0.51434 0.53414 0.05299 0.0
H691 H 0.50741 0.53442 0.07615 0.0
H692 H 0.46983 0.524 0.91952 0.0
H693 H 0.46061 0.53083 0.94128 0.0
H694 H 0.47292 0.48418 0.95611 0.0
H695 H 0.48153 0.47682 0.93438 0.0
Tb696 Tb 0.15724 0.31496 0.32164 0.0
Eu697 Eu 0.17339 0.34114 0.35174 0.0
C698 C 0.177 0.30098 0.34427 0.0
C699 C 0.12725 0.30135 0.34396 0.0
C700 C 0.14875 0.30444 0.28517 0.0
C701 C 0.14788 0.29811 0.26139 0.0
C702 C 0.14459 0.29066 0.2738 0.0
C703 C 0.15605 0.32577 0.28402 0.0
C704 C 0.15929 0.33323 0.27161 0.0
C705 C 0.15541 0.31951 0.26015 0.0
C706 C 0.14654 0.29674 0.29825 0.0
O707 O 0.14551 0.33683 0.32235 0.0
O708 O 0.16848 0.3622 0.33897 0.0
O709 O 0.20186 0.35237 0.34058 0.0
O710 O 0.1851 0.34469 0.31955 0.0
C711 C 0.15419 0.3558 0.32875 0.0
O712 O 0.17007 0.35921 0.36828 0.0
O713 O 0.19511 0.35193 0.36982 0.0
O714 O 0.17086 0.30982 0.35314 0.0
O715 O 0.17668 0.30455 0.33182 0.0
O716 O 0.13423 0.29474 0.33424 0.0
O717 O 0.13833 0.32048 0.35008 0.0
C718 C 0.20228 0.35442 0.32788 0.0
O719 O 0.16413 0.30173 0.30518 0.0
O720 O 0.13396 0.29963 0.30542 0.0
C721 C 0.17927 0.35227 0.3891 0.0
C722 C 0.16891 0.33856 0.41419 0.0
C723 C 0.18604 0.35864 0.41306 0.0
C724 C 0.19115 0.36542 0.40061 0.0
C725 C 0.16219 0.33222 0.39014 0.0
C726 C 0.15701 0.32545 0.40257 0.0
C727 C 0.1849 0.35941 0.37607 0.0
H728 H 0.14449 0.28709 0.25276 0.0
H729 H 0.13902 0.27417 0.27453 0.0
H730 H 0.15955 0.33669 0.29273 0.0
H731 H 0.16532 0.34983 0.27104 0.0
H732 H 0.19536 0.36921 0.4218 0.0
H733 H 0.20439 0.38093 0.39998 0.0
H734 H 0.15292 0.3218 0.38132 0.0
H735 H 0.1439 0.30982 0.40309 0.0
Tb736 Tb 0.66485 0.83056 0.32178 0.0
Eu737 Eu 0.63997 0.82252 0.34841 0.0
C738 C 0.68136 0.86581 0.34574 0.0
C739 C 0.67951 0.81646 0.34691 0.0
C740 C 0.67996 0.83775 0.28723 0.0
C741 C 0.69271 0.85209 0.26681 0.0
C742 C 0.69624 0.85169 0.28037 0.0
C743 C 0.65995 0.82427 0.28041 0.0
C744 C 0.65643 0.82456 0.26679 0.0
C745 C 0.6728 0.83847 0.25986 0.0
C746 C 0.68432 0.83769 0.30147 0.0
O747 O 0.63507 0.80159 0.31618 0.0
O748 O 0.62868 0.79109 0.33688 0.0
O749 O 0.61866 0.82341 0.33211 0.0
O750 O 0.64401 0.84339 0.31909 0.0
C751 C 0.62573 0.78682 0.32396 0.0
O752 O 0.62761 0.80425 0.36494 0.0
O753 O 0.6227 0.8304 0.36208 0.0
O754 O 0.66245 0.85731 0.34956 0.0
O755 O 0.6863 0.85553 0.33702 0.0
O756 O 0.67542 0.81361 0.33395 0.0
O757 O 0.67069 0.82425 0.35447 0.0
C758 C 0.62493 0.83574 0.32267 0.0
O759 O 0.6837 0.85214 0.30918 0.0
O760 O 0.67524 0.81951 0.30609 0.0
C761 C 0.62834 0.82433 0.38398 0.0
C762 C 0.64383 0.83733 0.41093 0.0
C763 C 0.62531 0.81797 0.40701 0.0
C764 C 0.61764 0.81154 0.39364 0.0
C765 C 0.64658 0.84383 0.38783 0.0
C766 C 0.65418 0.85034 0.40119 0.0
C767 C 0.62123 0.81657 0.36994 0.0
H768 H 0.70569 0.86279 0.26172 0.0
H769 H 0.71177 0.86221 0.2855 0.0
H770 H 0.64712 0.81351 0.28558 0.0
H771 H 0.64089 0.81402 0.2617 0.0
H772 H 0.61712 0.80744 0.41422 0.0
H773 H 0.60365 0.79635 0.39081 0.0
H774 H 0.65516 0.85388 0.38049 0.0
H775 H 0.6683 0.86547 0.40387 0.0
Tb776 Tb 0.16703 0.84129 0.34888 0.0
Eu777 Eu 0.14725 0.84798 0.32084 0.0
C778 C 0.14541 0.80487 0.32563 0.0
C779 C 0.19319 0.85358 0.32426 0.0
C780 C 0.17614 0.83556 0.38427 0.0
C781 C 0.1754 0.82296 0.40572 0.0
C782 C 0.18043 0.82363 0.39271 0.0
C783 C 0.16676 0.84689 0.38897 0.0
C784 C 0.16187 0.84637 0.40203 0.0
C785 C 0.16605 0.83431 0.41051 0.0
C786 C 0.18071 0.83522 0.37048 0.0
O787 O 0.16692 0.8705 0.35295 0.0
O788 O 0.16905 0.87984 0.3319 0.0
O789 O 0.126 0.84725 0.33594 0.0
O790 O 0.13366 0.82891 0.35051 0.0
C791 C 0.17193 0.88483 0.34475 0.0
O792 O 0.15121 0.86688 0.30453 0.0
O793 O 0.12186 0.83787 0.30491 0.0
O794 O 0.13481 0.81329 0.32078 0.0
O795 O 0.16162 0.81549 0.33462 0.0
O796 O 0.19346 0.85645 0.33718 0.0
O797 O 0.17581 0.84624 0.31626 0.0
C798 C 0.12157 0.83602 0.34598 0.0
O799 O 0.16559 0.82033 0.36226 0.0
O800 O 0.18942 0.8532 0.36559 0.0
C801 C 0.1353 0.84606 0.28435 0.0
C802 C 0.14469 0.83656 0.2593 0.0
C803 C 0.14118 0.85353 0.26165 0.0
C804 C 0.13656 0.85825 0.2741 0.0
C805 C 0.13812 0.82874 0.28193 0.0
C806 C 0.14263 0.82395 0.26951 0.0
C807 C 0.13347 0.85278 0.29786 0.0
H808 H 0.17901 0.81373 0.41207 0.0
H809 H 0.18756 0.8147 0.3892 0.0
H810 H 0.16309 0.85598 0.38251 0.0
H811 H 0.15449 0.8551 0.40543 0.0
H812 H 0.14285 0.86367 0.25405 0.0
H813 H 0.13469 0.87185 0.27585 0.0
H814 H 0.13744 0.81925 0.28976 0.0
H815 H 0.14489 0.81057 0.26798 0.0
Tb816 Tb 0.82494 0.64444 0.65431 0.0
Eu817 Eu 0.84221 0.67552 0.68284 0.0
C818 C 0.84708 0.63447 0.67762 0.0
C819 C 0.79781 0.63328 0.6785 0.0
C820 C 0.81745 0.63131 0.61826 0.0
C821 C 0.81508 0.6234 0.59447 0.0
C822 C 0.81101 0.61663 0.60704 0.0
C823 C 0.82814 0.65285 0.61681 0.0
C824 C 0.83207 0.65963 0.60427 0.0
C825 C 0.82555 0.64499 0.59294 0.0
C826 C 0.81302 0.62427 0.63147 0.0
O827 O 0.8265 0.67373 0.65063 0.0
O828 O 0.82078 0.68335 0.67101 0.0
O829 O 0.86504 0.69366 0.6686 0.0
O830 O 0.8587 0.66504 0.65446 0.0
C831 C 0.81995 0.68387 0.65817 0.0
O832 O 0.83607 0.69223 0.69881 0.0
O833 O 0.86598 0.69331 0.69967 0.0
O834 O 0.85542 0.65388 0.68324 0.0
O835 O 0.83198 0.62657 0.66774 0.0
O836 O 0.79777 0.63346 0.66559 0.0
O837 O 0.81488 0.64505 0.68663 0.0
C838 C 0.87051 0.68499 0.65913 0.0
O839 O 0.82905 0.62656 0.63907 0.0
O840 O 0.80206 0.63064 0.63785 0.0
C841 C 0.85077 0.69138 0.71962 0.0
C842 C 0.84253 0.67907 0.74523 0.0
C843 C 0.8501 0.70013 0.74291 0.0
C844 C 0.85416 0.7062 0.73021 0.0
C845 C 0.84349 0.67042 0.72187 0.0
C846 C 0.83946 0.66433 0.73456 0.0
C847 C 0.85345 0.69742 0.70611 0.0
H848 H 0.80971 0.61173 0.58594 0.0
H849 H 0.80276 0.59994 0.60798 0.0
H850 H 0.83342 0.66445 0.62538 0.0
H851 H 0.84044 0.67636 0.60346 0.0
H852 H 0.85238 0.71183 0.75084 0.0
H853 H 0.85955 0.72239 0.7286 0.0
H854 H 0.84066 0.65872 0.71378 0.0
H855 H 0.83392 0.64807 0.73601 0.0
Tb856 Tb 0.32973 0.16301 0.6551 0.0
Eu857 Eu 0.30599 0.156 0.6823 0.0
C858 C 0.34681 0.19925 0.67841 0.0
C859 C 0.3456 0.15001 0.68041 0.0
C860 C 0.34336 0.16872 0.61999 0.0
C861 C 0.3505 0.18754 0.60054 0.0
C862 C 0.35354 0.18753 0.61419 0.0
C863 C 0.32988 0.14985 0.61189 0.0
C864 C 0.32694 0.14983 0.59819 0.0
C865 C 0.33735 0.16867 0.59238 0.0
C866 C 0.34805 0.16912 0.63434 0.0
O867 O 0.29978 0.13404 0.65014 0.0
O868 O 0.29434 0.12432 0.67106 0.0
O869 O 0.28421 0.15692 0.66636 0.0
O870 O 0.3088 0.17576 0.65255 0.0
C871 C 0.29078 0.11962 0.65817 0.0
O872 O 0.29254 0.13707 0.69837 0.0
O873 O 0.29122 0.16555 0.69703 0.0
O874 O 0.3283 0.19071 0.6828 0.0
O875 O 0.35156 0.18872 0.66977 0.0
O876 O 0.34135 0.14707 0.66745 0.0
O877 O 0.33672 0.15764 0.68803 0.0
C878 C 0.2901 0.16871 0.65664 0.0
O879 O 0.34789 0.18391 0.64198 0.0
O880 O 0.33942 0.15125 0.63936 0.0
C881 C 0.29652 0.15706 0.71822 0.0
C882 C 0.31338 0.16669 0.74495 0.0
C883 C 0.29197 0.15193 0.74131 0.0
C884 C 0.28362 0.14713 0.72802 0.0
C885 C 0.31774 0.17217 0.72182 0.0
C886 C 0.32608 0.177 0.73508 0.0
C887 C 0.28828 0.15054 0.70423 0.0
H888 H 0.35897 0.20225 0.59633 0.0
H889 H 0.36419 0.20225 0.6202 0.0
H890 H 0.32181 0.13507 0.61606 0.0
H891 H 0.31658 0.13508 0.59215 0.0
H892 H 0.28184 0.14355 0.74866 0.0
H893 H 0.26724 0.13529 0.72536 0.0
H894 H 0.32794 0.17991 0.71434 0.0
H895 H 0.34255 0.18866 0.73758 0.0
Tb896 Tb 0.8273 0.16836 0.68116 0.0
Eu897 Eu 0.80526 0.16835 0.65195 0.0
C898 C 0.80118 0.12718 0.66215 0.0
C899 C 0.85197 0.17542 0.65588 0.0
C900 C 0.83916 0.16962 0.71751 0.0
C901 C 0.81471 0.15985 0.73418 0.0
C902 C 0.81847 0.15977 0.72091 0.0
C903 C 0.85598 0.18013 0.72752 0.0
C904 C 0.85223 0.18033 0.74079 0.0
C905 C 0.83156 0.16989 0.7443 0.0
C906 C 0.84352 0.16829 0.7037 0.0
O907 O 0.82535 0.19677 0.6814 0.0
O908 O 0.83024 0.20137 0.6598 0.0
O909 O 0.78341 0.16827 0.66649 0.0
O910 O 0.79441 0.15651 0.68401 0.0
C911 C 0.8319 0.20916 0.67203 0.0
O912 O 0.79698 0.18467 0.63771 0.0
O913 O 0.78888 0.15242 0.63254 0.0
O914 O 0.79038 0.13499 0.65675 0.0
O915 O 0.81933 0.13941 0.66923 0.0
O916 O 0.85292 0.18042 0.66865 0.0
O917 O 0.83424 0.16694 0.64807 0.0
C918 C 0.78072 0.16054 0.67795 0.0
O919 O 0.82987 0.15137 0.69608 0.0
O920 O 0.84956 0.18515 0.69774 0.0
C921 C 0.79939 0.17451 0.61575 0.0
C922 C 0.81608 0.18074 0.59118 0.0
C923 C 0.79589 0.17789 0.59233 0.0
C924 C 0.78759 0.1747 0.60451 0.0
C925 C 0.81977 0.17813 0.61479 0.0
C926 C 0.828 0.18109 0.60264 0.0
C927 C 0.7901 0.16921 0.62827 0.0
H928 H 0.7986 0.15147 0.7365 0.0
H929 H 0.80523 0.1516 0.71333 0.0
H930 H 0.87204 0.18791 0.72508 0.0
H931 H 0.86557 0.18856 0.7483 0.0
H932 H 0.78639 0.17787 0.58379 0.0
H933 H 0.77183 0.17199 0.60511 0.0
H934 H 0.82909 0.17805 0.62339 0.0
H935 H 0.84343 0.18288 0.60217 0.0
C936 C 0.30657 0.8406 0.06179 0.0
C937 C 0.30861 0.84383 0.0757 0.0
C938 C 0.32281 0.85402 0.05473 0.0
C939 C 0.37987 0.88882 0.05889 0.0
H940 H 0.37116 0.91018 0.02679 0.0
C941 C 0.44921 0.95144 0.03518 0.0
C942 C 0.44833 0.9501 0.0213 0.0
C943 C 0.43167 0.93827 0.04133 0.0
C944 C 0.37382 0.9041 0.03563 0.0
H945 H 0.32883 0.86446 0.093 0.0
H946 H 0.35723 0.88768 0.08068 0.0
H947 H 0.34108 0.8881 0.03847 0.0
H948 H 0.42827 0.93375 0.00301 0.0
H949 H 0.39764 0.91032 0.0138 0.0
H950 H 0.41244 0.90441 0.05605 0.0
C951 C 0.34318 0.87457 0.07527 0.0
C952 C 0.3566 0.89153 0.04234 0.0
C953 C 0.32692 0.86125 0.08232 0.0
C954 C 0.42946 0.93519 0.01371 0.0
C955 C 0.41187 0.92187 0.0199 0.0
C956 C 0.39701 0.90121 0.05216 0.0
C957 C 0.34147 0.87086 0.06143 0.0
C958 C 0.35951 0.88397 0.05411 0.0
C959 C 0.41279 0.92325 0.0338 0.0
C960 C 0.39426 0.90921 0.04053 0.0
H961 H 0.29279 0.8272 0.05638 0.0
H962 H 0.32111 0.85071 0.04407 0.0
H963 H 0.38254 0.88284 0.06778 0.0
H964 H 0.4634 0.96288 0.04136 0.0
H965 H 0.43285 0.9401 0.05203 0.0
C966 C 0.12396 0.42002 0.05216 0.0
C967 C 0.14044 0.43257 0.06223 0.0
C968 C 0.11126 0.42727 0.04667 0.0
C969 C 0.08947 0.46069 0.05333 0.0
H970 H 0.08399 0.46137 0.01532 0.0
C971 C 0.03962 0.49213 0.0282 0.0
C972 C 0.02907 0.4826 0.01554 0.0
C973 C 0.05401 0.48713 0.03406 0.0
C974 C 0.08499 0.46097 0.02592 0.0
H975 H 0.15612 0.46273 0.07441 0.0
H976 H 0.13316 0.47486 0.06519 0.0
H977 H 0.10718 0.45027 0.02533 0.0
H978 H 0.02491 0.45997 0.99925 0.0
H979 H 0.04907 0.45049 0.00965 0.0
H980 H 0.0666 0.47038 0.05398 0.0
C981 C 0.13043 0.45949 0.06152 0.0
C982 C 0.09845 0.45477 0.03165 0.0
C983 C 0.14348 0.45243 0.06684 0.0
C984 C 0.03297 0.46777 0.00896 0.0
C985 C 0.04701 0.46246 0.01492 0.0
C986 C 0.07564 0.46649 0.04758 0.0
C987 C 0.11435 0.44703 0.0513 0.0
C988 C 0.10075 0.4545 0.04539 0.0
C989 C 0.0579 0.47218 0.02752 0.0
C990 C 0.0731 0.4666 0.03377 0.0
H991 H 0.12061 0.40442 0.04856 0.0
H992 H 0.09875 0.41726 0.03892 0.0
H993 H 0.09088 0.46044 0.06395 0.0
H994 H 0.03705 0.50375 0.03348 0.0
H995 H 0.06227 0.49526 0.04366 0.0
C996 C 0.60724 0.72991 0.06135 0.0
C997 C 0.61313 0.74549 0.05269 0.0
C998 C 0.5942 0.70872 0.05662 0.0
C999 C 0.57606 0.67171 0.02628 0.0
H1000 H 0.53109 0.6356 0.04633 0.0
C1001 C 0.51623 0.58598 0.00618 0.0
C1002 C 0.51151 0.57092 0.01511 0.0
C1003 C 0.52727 0.6074 0.01069 0.0
C1004 C 0.54368 0.64544 0.04068 0.0
H1005 H 0.60986 0.75102 0.03227 0.0
H1006 H 0.58718 0.71396 0.024 0.0
H1007 H 0.55349 0.67281 0.05432 0.0
H1008 H 0.51416 0.56655 0.03585 0.0
H1009 H 0.53361 0.60393 0.04369 0.0
H1010 H 0.56646 0.64435 0.01273 0.0
C1011 C 0.59284 0.71816 0.03443 0.0
C1012 C 0.55651 0.66674 0.04525 0.0
C1013 C 0.60586 0.73938 0.03916 0.0
C1014 C 0.51749 0.57773 0.0287 0.0
C1015 C 0.52858 0.59917 0.03321 0.0
C1016 C 0.56327 0.65041 0.02172 0.0
C1017 C 0.5868 0.70261 0.04312 0.0
C1018 C 0.5729 0.68008 0.03813 0.0
C1019 C 0.53388 0.61425 0.02422 0.0
C1020 C 0.54697 0.63702 0.02889 0.0
H1021 H 0.61286 0.73408 0.07179 0.0
H1022 H 0.59013 0.69708 0.06352 0.0
H1023 H 0.58874 0.68152 0.02067 0.0
H1024 H 0.51173 0.58128 0.99565 0.0
H1025 H 0.53078 0.61862 0.00354 0.0
C1026 C 0.85405 0.27415 0.93557 0.0
C1027 C 0.84911 0.25993 0.94511 0.0
C1028 C 0.86499 0.29582 0.93937 0.0
C1029 C 0.87745 0.33517 0.96771 0.0
H1030 H 0.92479 0.37168 0.94942 0.0
C1031 C 0.93744 0.41974 0.98945 0.0
C1032 C 0.94584 0.43542 0.98087 0.0
C1033 C 0.92456 0.39869 0.98444 0.0
C1034 C 0.9114 0.36177 0.95449 0.0
H1035 H 0.85205 0.25742 0.96613 0.0
H1036 H 0.87089 0.2952 0.97276 0.0
H1037 H 0.9043 0.33413 0.94188 0.0
H1038 H 0.94706 0.44126 0.96027 0.0
H1039 H 0.92423 0.40437 0.95151 0.0
H1040 H 0.88447 0.36268 0.98034 0.0
C1041 C 0.8661 0.28955 0.96234 0.0
C1042 C 0.8997 0.34026 0.95019 0.0
C1043 C 0.85528 0.2679 0.95854 0.0
C1044 C 0.94088 0.42956 0.96715 0.0
C1045 C 0.92789 0.40842 0.96213 0.0
C1046 C 0.88905 0.35666 0.97197 0.0
C1047 C 0.87109 0.30373 0.95279 0.0
C1048 C 0.8828 0.3267 0.95688 0.0
C1049 C 0.91964 0.39274 0.97073 0.0
C1050 C 0.90636 0.37017 0.96554 0.0
H1051 H 0.84923 0.26855 0.92515 0.0
H1052 H 0.86841 0.30637 0.93181 0.0
H1053 H 0.86426 0.32515 0.97291 0.0
H1054 H 0.94101 0.42365 1.00008 0.0
H1055 H 0.91881 0.38701 0.99135 0.0
C1056 C 0.67928 0.56074 0.93168 0.0
C1057 C 0.69847 0.57154 0.93988 0.0
C1058 C 0.66019 0.5544 0.93697 0.0
C1059 C 0.63833 0.56588 0.96613 0.0
H1060 H 0.58912 0.5117 0.95403 0.0
C1061 C 0.5629 0.5327 0.99254 0.0
C1062 C 0.54354 0.52278 0.98454 0.0
C1063 C 0.58163 0.5383 0.98699 0.0
C1064 C 0.60266 0.52697 0.95742 0.0
H1065 H 0.7125 0.58429 0.9601 0.0
H1066 H 0.67935 0.57279 0.96932 0.0
H1067 H 0.622 0.52206 0.94447 0.0
H1068 H 0.52875 0.51082 0.96437 0.0
H1069 H 0.56139 0.52067 0.95472 0.0
H1070 H 0.61905 0.57079 0.9791 0.0
C1071 C 0.67902 0.5694 0.95877 0.0
C1072 C 0.62152 0.53293 0.95193 0.0
C1073 C 0.69805 0.57574 0.9535 0.0
C1074 C 0.54335 0.51842 0.97086 0.0
C1075 C 0.56207 0.52396 0.96532 0.0
C1076 C 0.61951 0.55992 0.97163 0.0
C1077 C 0.65983 0.55875 0.95058 0.0
C1078 C 0.63962 0.55244 0.95625 0.0
C1079 C 0.58146 0.53406 0.9733 0.0
C1080 C 0.60145 0.54037 0.96738 0.0
H1081 H 0.67899 0.5571 0.92117 0.0
H1082 H 0.64574 0.54638 0.93034 0.0
H1083 H 0.65182 0.5812 0.96952 0.0
H1084 H 0.56366 0.53625 0.00312 0.0
H1085 H 0.59624 0.5458 0.99346 0.0
C1086 C 0.41482 0.11941 0.94621 0.0
C1087 C 0.42989 0.14064 0.95002 0.0
C1088 C 0.41578 0.10358 0.95248 0.0
C1089 C 0.44258 0.09433 0.98141 0.0
H1090 H 0.43549 0.04758 0.95753 0.0
C1091 C 0.46203 0.03286 0.99944 0.0
C1092 C 0.47283 0.02667 0.99102 0.0
C1093 C 0.45298 0.04437 0.99498 0.0
C1094 C 0.43761 0.06057 0.96433 0.0
H1095 H 0.45746 0.16196 0.96359 0.0
H1096 H 0.45938 0.13454 0.97434 0.0
H1097 H 0.4264 0.0725 0.94929 0.0
H1098 H 0.48247 0.02752 0.97127 0.0
H1099 H 0.46734 0.04812 0.96363 0.0
H1100 H 0.45509 0.08318 0.99624 0.0
C1101 C 0.44648 0.12998 0.96675 0.0
C1102 C 0.43206 0.0747 0.95965 0.0
C1103 C 0.44541 0.14576 0.96056 0.0
C1104 C 0.4742 0.032 0.978 0.0
C1105 C 0.46534 0.04367 0.97358 0.0
C1106 C 0.44831 0.08031 0.98606 0.0
C1107 C 0.43196 0.10868 0.96261 0.0
C1108 C 0.43496 0.09205 0.96806 0.0
C1109 C 0.4547 0.05009 0.98203 0.0
C1110 C 0.44638 0.06355 0.97749 0.0
H1111 H 0.40254 0.11503 0.9382 0.0
H1112 H 0.40413 0.08734 0.9492 0.0
H1113 H 0.44467 0.1073 0.98822 0.0
H1114 H 0.46052 0.0288 0.00949 0.0
H1115 H 0.44465 0.04878 0.00169 0.0
C1116 C 0.70706 0.13512 0.95433 0.0
C1117 C 0.71251 0.12376 0.94538 0.0
C1118 C 0.68762 0.12522 0.95942 0.0
C1119 C 0.64522 0.07209 0.96459 0.0
H1120 H 0.61314 0.09983 0.97101 0.0
C1121 C 0.56021 0.02644 0.97657 0.0
C1122 C 0.55484 0.0347 0.98752 0.0
C1123 C 0.57922 0.03848 0.97145 0.0
C1124 C 0.62205 0.09199 0.96937 0.0
H1125 H 0.70159 0.09344 0.93426 0.0
H1126 H 0.66756 0.07626 0.94288 0.0
H1127 H 0.64669 0.11858 0.96171 0.0
H1128 H 0.56495 0.06251 0.00133 0.0
H1129 H 0.59835 0.0837 0.99224 0.0
H1130 H 0.6205 0.04545 0.97203 0.0
C1131 C 0.67847 0.09265 0.9463 0.0
C1132 C 0.64126 0.10271 0.96406 0.0
C1133 C 0.69793 0.10249 0.94132 0.0
C1134 C 0.56865 0.05565 0.99292 0.0
C1135 C 0.58772 0.0678 0.98771 0.0
C1136 C 0.62602 0.06139 0.96977 0.0
C1137 C 0.6732 0.10377 0.95559 0.0
C1138 C 0.65298 0.09279 0.96149 0.0
C1139 C 0.59334 0.05914 0.97709 0.0
C1140 C 0.61413 0.07112 0.9721 0.0
H1141 H 0.71809 0.15151 0.95771 0.0
H1142 H 0.68418 0.13422 0.96664 0.0
H1143 H 0.65405 0.06414 0.96309 0.0
H1144 H 0.5499 0.01047 0.97202 0.0
H1145 H 0.58296 0.03154 0.9631 0.0
C1146 C 0.82909 0.55286 0.94293 0.0
C1147 C 0.83699 0.56928 0.93486 0.0
C1148 C 0.8415 0.54464 0.94747 0.0
C1149 C 0.88875 0.54115 0.94145 0.0
H1150 H 0.88965 0.53241 0.97852 0.0
C1151 C 0.95105 0.52636 0.96819 0.0
C1152 C 0.94449 0.5121 0.97774 0.0
C1153 C 0.93738 0.53227 0.96236 0.0
C1154 C 0.88938 0.53445 0.9681 0.0
H1155 H 0.86383 0.58939 0.9248 0.0
H1156 H 0.88556 0.57522 0.93282 0.0
H1157 H 0.86658 0.54419 0.96929 0.0
H1158 H 0.91816 0.49243 0.98835 0.0
H1159 H 0.89432 0.50246 0.97806 0.0
H1160 H 0.91162 0.53146 0.94028 0.0
C1161 C 0.86975 0.56864 0.93562 0.0
C1162 C 0.87614 0.54123 0.96281 0.0
C1163 C 0.85737 0.57691 0.93113 0.0
C1164 C 0.92383 0.50359 0.98112 0.0
C1165 C 0.91016 0.50943 0.97526 0.0
C1166 C 0.90197 0.5343 0.94674 0.0
C1167 C 0.86206 0.5526 0.94398 0.0
C1168 C 0.8757 0.54473 0.94944 0.0
C1169 C 0.91681 0.52402 0.96591 0.0
C1170 C 0.9025 0.53093 0.96014 0.0
H1171 H 0.81352 0.54673 0.94606 0.0
H1172 H 0.83502 0.53212 0.95377 0.0
H1173 H 0.8886 0.54347 0.93107 0.0
H1174 H 0.96686 0.53325 0.96536 0.0
H1175 H 0.94311 0.54371 0.95529 0.0
C1176 C 0.45668 0.29627 0.9602 0.0
C1177 C 0.44487 0.28637 0.9479 0.0
C1178 C 0.45794 0.31465 0.96587 0.0
C1179 C 0.4337 0.34799 0.9647 0.0
H1180 H 0.49009 0.39259 0.9779 0.0
C1181 C 0.45575 0.43481 0.97741 0.0
C1182 C 0.47044 0.44618 0.98852 0.0
C1183 C 0.45117 0.41448 0.97296 0.0
C1184 C 0.47419 0.38024 0.97444 0.0
H1185 H 0.42453 0.28759 0.93211 0.0
H1186 H 0.42674 0.31976 0.94204 0.0
H1187 H 0.48427 0.35829 0.96956 0.0
H1188 H 0.49124 0.44483 0.00395 0.0
H1189 H 0.48303 0.40941 0.99633 0.0
H1190 H 0.42368 0.37011 0.96955 0.0
C1191 C 0.43488 0.31318 0.94734 0.0
C1192 C 0.47086 0.36056 0.96966 0.0
C1193 C 0.43362 0.29476 0.94165 0.0
C1194 C 0.48004 0.43662 0.99526 0.0
C1195 C 0.47539 0.41632 0.99086 0.0
C1196 C 0.43703 0.36772 0.96954 0.0
C1197 C 0.44743 0.32355 0.95937 0.0
C1198 C 0.4506 0.34422 0.96474 0.0
C1199 C 0.46114 0.40512 0.97956 0.0
C1200 C 0.45733 0.38406 0.97447 0.0
H1201 H 0.46518 0.28994 0.96537 0.0
H1202 H 0.4674 0.32207 0.97528 0.0
H1203 H 0.41789 0.33563 0.96105 0.0
H1204 H 0.44811 0.44176 0.97199 0.0
H1205 H 0.44026 0.40634 0.96415 0.0
C1206 C 0.14769 0.7008 0.07143 0.0
C1207 C 0.16745 0.71096 0.06661 0.0
C1208 C 0.13045 0.68382 0.0638 0.0
C1209 C 0.11879 0.64194 0.03766 0.0
H1210 H 0.06191 0.63217 0.03597 0.0
C1211 C 0.05048 0.56936 0.00671 0.0
C1212 C 0.03156 0.55871 0.01242 0.0
C1213 C 0.0664 0.5892 0.01238 0.0
C1214 C 0.07768 0.6346 0.03644 0.0
H1215 H 0.18426 0.71207 0.04967 0.0
H1216 H 0.1542 0.68235 0.0364 0.0
H1217 H 0.09093 0.66498 0.0475 0.0
H1218 H 0.01433 0.56071 0.02842 0.0
H1219 H 0.04231 0.59516 0.03849 0.0
H1220 H 0.10568 0.61147 0.02696 0.0
C1221 C 0.15215 0.68731 0.04617 0.0
C1222 C 0.09429 0.6534 0.04301 0.0
C1223 C 0.16936 0.70431 0.05378 0.0
C1224 C 0.02871 0.56853 0.02376 0.0
C1225 C 0.04471 0.58834 0.02949 0.0
C1226 C 0.10223 0.62314 0.03117 0.0
C1227 C 0.13263 0.67662 0.05121 0.0
C1228 C 0.11501 0.65722 0.04372 0.0
C1229 C 0.06386 0.5988 0.02396 0.0
C1230 C 0.08146 0.61919 0.03051 0.0
H1231 H 0.14573 0.70537 0.08133 0.0
H1232 H 0.11566 0.67577 0.068 0.0
H1233 H 0.13453 0.64424 0.03825 0.0
H1234 H 0.05309 0.56234 0.99788 0.0
H1235 H 0.08076 0.59697 0.0077 0.0
C1236 C 0.29643 0.44363 0.07227 0.0
C1237 C 0.27814 0.43937 0.06441 0.0
C1238 C 0.31565 0.45162 0.06691 0.0
C1239 C 0.33713 0.45625 0.03437 0.0
H1240 H 0.39032 0.49392 0.05541 0.0
C1241 C 0.41623 0.49537 0.0118 0.0
C1242 C 0.43271 0.49407 0.0185 0.0
C1243 C 0.39767 0.48974 0.01757 0.0
C1244 C 0.37557 0.48332 0.04944 0.0
H1245 H 0.26577 0.4411 0.045 0.0
H1246 H 0.2993 0.45571 0.03576 0.0
H1247 H 0.35748 0.48283 0.06519 0.0
H1248 H 0.4428 0.48632 0.03668 0.0
H1249 H 0.41049 0.47674 0.04679 0.0
H1250 H 0.35529 0.45705 0.01857 0.0
C1251 C 0.2988 0.45221 0.04593 0.0
C1252 C 0.35673 0.47688 0.05505 0.0
C1253 C 0.27958 0.44397 0.05123 0.0
C1254 C 0.43037 0.4874 0.03121 0.0
C1255 C 0.41192 0.48205 0.03705 0.0
C1256 C 0.35593 0.46289 0.02873 0.0
C1257 C 0.31705 0.45579 0.0536 0.0
C1258 C 0.33722 0.46317 0.0476 0.0
C1259 C 0.3953 0.48298 0.03025 0.0
C1260 C 0.37536 0.47642 0.03621 0.0
H1261 H 0.29572 0.44006 0.08243 0.0
H1262 H 0.32924 0.45389 0.0731 0.0
H1263 H 0.32252 0.44532 0.02838 0.0
H1264 H 0.4175 0.50043 0.00199 0.0
H1265 H 0.38519 0.49078 0.01214 0.0
C1266 C 0.62732 0.90083 0.05181 0.0
C1267 C 0.61899 0.87899 0.04975 0.0
C1268 C 0.61618 0.9099 0.04657 0.0
C1269 C 0.56258 0.89723 0.03416 0.0
H1270 H 0.59239 0.9512 0.02052 0.0
C1271 C 0.52053 0.93768 0.01019 0.0
C1272 C 0.52938 0.95918 0.0145 0.0
C1273 C 0.53107 0.927 0.01363 0.0
C1274 C 0.58387 0.93616 0.02436 0.0
H1275 H 0.59266 0.84958 0.04031 0.0
H1276 H 0.57325 0.86544 0.03107 0.0
H1277 H 0.61169 0.93424 0.02798 0.0
H1278 H 0.55625 0.98629 0.0258 0.0
H1279 H 0.57446 0.96771 0.03173 0.0
H1280 H 0.53476 0.89928 0.03055 0.0
C1281 C 0.58823 0.87551 0.03695 0.0
C1282 C 0.59492 0.92647 0.02866 0.0
C1283 C 0.59935 0.86644 0.04223 0.0
C1284 C 0.54895 0.96974 0.02229 0.0
C1285 C 0.5595 0.95914 0.02562 0.0
C1286 C 0.5515 0.9069 0.02979 0.0
C1287 C 0.59648 0.89735 0.0391 0.0
C1288 C 0.58447 0.90703 0.0338 0.0
C1289 C 0.55072 0.93768 0.02132 0.0
C1290 C 0.5621 0.92662 0.02503 0.0
H1291 H 0.64227 0.91088 0.05772 0.0
H1292 H 0.62282 0.92673 0.04863 0.0
H1293 H 0.55408 0.88237 0.0382 0.0
H1294 H 0.50548 0.92909 0.00418 0.0
H1295 H 0.52399 0.91047 0.01012 0.0
C1296 C 0.97396 0.16847 0.39132 0.0
C1297 C 0.9664 0.17667 0.40103 0.0
C1298 C 0.98969 0.18184 0.38393 0.0
C1299 C 0.03341 0.23611 0.38621 0.0
H1300 H 0.03408 0.22326 0.34878 0.0
C1301 C 0.09818 0.29477 0.35774 0.0
C1302 C 0.10695 0.28685 0.34876 0.0
C1303 C 0.07987 0.28124 0.36311 0.0
C1304 C 0.03421 0.22695 0.35926 0.0
H1305 H 0.96873 0.20529 0.4101 0.0
H1306 H 0.99626 0.22862 0.39726 0.0
H1307 H 0.00385 0.19984 0.3599 0.0
H1308 H 0.10301 0.25847 0.3381 0.0
H1309 H 0.07109 0.23469 0.3477 0.0
H1310 H 0.06381 0.26292 0.38573 0.0
C1311 C 0.99022 0.21186 0.39551 0.0
C1312 C 0.01688 0.21357 0.36561 0.0
C1313 C 0.97446 0.1985 0.40287 0.0
C1314 C 0.09663 0.26506 0.34498 0.0
C1315 C 0.07829 0.25145 0.35044 0.0
C1316 C 0.05071 0.2494 0.3799 0.0
C1317 C 0.99826 0.20371 0.38612 0.0
C1318 C 0.01629 0.21805 0.37916 0.0
C1319 C 0.0699 0.25939 0.35974 0.0
C1320 C 0.05133 0.24505 0.36633 0.0
H1321 H 0.96833 0.15177 0.38977 0.0
H1322 H 0.9957 0.1751 0.37687 0.0
H1323 H 0.03365 0.23977 0.39672 0.0
H1324 H 0.10556 0.31149 0.36077 0.0
H1325 H 0.07359 0.28794 0.37 0.0
C1326 C 0.81059 0.78074 0.40198 0.0
C1327 C 0.8073 0.76077 0.39738 0.0
C1328 C 0.79725 0.78769 0.39701 0.0
C1329 C 0.7639 0.78253 0.3678 0.0
H1330 H 0.73315 0.79857 0.39087 0.0
C1331 C 0.69797 0.79579 0.34631 0.0
C1332 C 0.69441 0.81075 0.35305 0.0
C1333 C 0.71208 0.79037 0.35202 0.0
C1334 C 0.74188 0.79456 0.38426 0.0
H1335 H 0.78669 0.73231 0.38414 0.0
H1336 H 0.76432 0.74497 0.37508 0.0
H1337 H 0.75777 0.78866 0.40035 0.0
H1338 H 0.70304 0.83201 0.37101 0.0
H1339 H 0.7284 0.82334 0.38075 0.0
H1340 H 0.74883 0.789 0.35174 0.0
C1341 C 0.77724 0.75514 0.38256 0.0
C1342 C 0.7559 0.78878 0.38973 0.0
C1343 C 0.79023 0.748 0.38771 0.0
C1344 C 0.70534 0.82028 0.36562 0.0
C1345 C 0.71981 0.81518 0.37123 0.0
C1346 C 0.75026 0.78872 0.36235 0.0
C1347 C 0.78062 0.77503 0.38715 0.0
C1348 C 0.76679 0.78244 0.38152 0.0
C1349 C 0.72339 0.80012 0.36452 0.0
C1350 C 0.73876 0.79451 0.37047 0.0
H1351 H 0.82366 0.79121 0.40927 0.0
H1352 H 0.80021 0.80316 0.40065 0.0
H1353 H 0.77232 0.77792 0.36129 0.0
H1354 H 0.6896 0.788 0.33666 0.0
H1355 H 0.71389 0.77831 0.34664 0.0
C1356 C 0.29039 0.07002 0.38516 0.0
C1357 C 0.28082 0.08187 0.38841 0.0
C1358 C 0.27815 0.04858 0.38078 0.0
C1359 C 0.22519 0.00257 0.38079 0.0
H1360 H 0.24053 0.97999 0.35076 0.0
C1361 C 0.18654 0.91338 0.36379 0.0
C1362 C 0.18219 0.90726 0.35007 0.0
C1363 C 0.19778 0.93468 0.36871 0.0
C1364 C 0.23597 0.98609 0.35911 0.0
H1365 H 0.25086 0.08049 0.38943 0.0
H1366 H 0.22955 0.04306 0.38188 0.0
H1367 H 0.26193 0.0172 0.3589 0.0
H1368 H 0.18568 0.91875 0.33078 0.0
H1369 H 0.20513 0.95578 0.33939 0.0
H1370 H 0.19907 0.97143 0.38088 0.0
C1371 C 0.24651 0.05031 0.38289 0.0
C1372 C 0.24836 0.00734 0.36386 0.0
C1373 C 0.25874 0.07176 0.38722 0.0
C1374 C 0.18882 0.92288 0.3414 0.0
C1375 C 0.2001 0.94412 0.34632 0.0
C1376 C 0.21284 0.98125 0.37607 0.0
C1377 C 0.25608 0.03851 0.37959 0.0
C1378 C 0.24308 0.01583 0.37472 0.0
C1379 C 0.20497 0.95025 0.36001 0.0
C1380 C 0.21805 0.97282 0.36514 0.0
H1381 H 0.30735 0.07725 0.38615 0.0
H1382 H 0.28597 0.03983 0.37847 0.0
H1383 H 0.22084 0.00863 0.38925 0.0
H1384 H 0.18167 0.90175 0.37074 0.0
H1385 H 0.20141 0.93893 0.37931 0.0
C1386 C 0.50786 0.6024 0.27901 0.0
C1387 C 0.51758 0.59014 0.27892 0.0
C1388 C 0.51953 0.62397 0.28314 0.0
C1389 C 0.55053 0.67123 0.28575 0.0
H1390 H 0.59039 0.68966 0.31719 0.0
C1391 C 0.60925 0.75907 0.3044 0.0
C1392 C 0.6121 0.76469 0.31815 0.0
C1393 C 0.5973 0.73795 0.29911 0.0
C1394 C 0.57924 0.68476 0.30844 0.0
H1395 H 0.54731 0.59108 0.2827 0.0
H1396 H 0.56762 0.62865 0.28998 0.0
H1397 H 0.57039 0.65249 0.30887 0.0
H1398 H 0.60409 0.75251 0.33707 0.0
H1399 H 0.58327 0.71588 0.32784 0.0
H1400 H 0.55921 0.70357 0.28549 0.0
C1401 C 0.55092 0.62152 0.28704 0.0
C1402 C 0.56796 0.66349 0.30358 0.0
C1403 C 0.53927 0.59999 0.2829 0.0
C1404 C 0.60237 0.74878 0.32644 0.0
C1405 C 0.59051 0.72774 0.32116 0.0
C1406 C 0.56191 0.69257 0.29059 0.0
C1407 C 0.54116 0.63374 0.28729 0.0
C1408 C 0.55342 0.65646 0.29222 0.0
C1409 C 0.58805 0.72204 0.30747 0.0
C1410 C 0.57628 0.69953 0.30204 0.0
H1411 H 0.49113 0.59525 0.27616 0.0
H1412 H 0.51151 0.6329 0.28338 0.0
H1413 H 0.53957 0.66631 0.2769 0.0
H1414 H 0.61654 0.77093 0.29773 0.0
H1415 H 0.59578 0.73402 0.28851 0.0
C1416 C 0.35125 0.9014 0.26769 0.0
C1417 C 0.3689 0.90486 0.27599 0.0
C1418 C 0.33184 0.8946 0.27263 0.0
C1419 C 0.3094 0.89523 0.30375 0.0
H1420 H 0.2567 0.85214 0.2844 0.0
C1421 C 0.23115 0.86334 0.32683 0.0
C1422 C 0.21302 0.85864 0.31858 0.0
C1423 C 0.24986 0.8682 0.32148 0.0
C1424 C 0.27124 0.8644 0.28986 0.0
H1425 H 0.37957 0.90281 0.29588 0.0
H1426 H 0.34588 0.8913 0.30449 0.0
H1427 H 0.28973 0.8618 0.2752 0.0
H1428 H 0.20042 0.85543 0.29821 0.0
H1429 H 0.23314 0.86441 0.28894 0.0
H1430 H 0.29109 0.89824 0.31828 0.0
C1431 C 0.34715 0.89415 0.29421 0.0
C1432 C 0.29018 0.86988 0.2846 0.0
C1433 C 0.36648 0.90079 0.28926 0.0
C1434 C 0.21405 0.85888 0.30486 0.0
C1435 C 0.23282 0.86391 0.29952 0.0
C1436 C 0.2905 0.8899 0.30896 0.0
C1437 C 0.32967 0.89123 0.286 0.0
C1438 C 0.30948 0.8853 0.29151 0.0
C1439 C 0.25101 0.86868 0.30776 0.0
C1440 C 0.27115 0.87436 0.30212 0.0
H1441 H 0.35256 0.90458 0.25747 0.0
H1442 H 0.31871 0.89264 0.26608 0.0
H1443 H 0.32399 0.90744 0.30922 0.0
H1444 H 0.23089 0.86313 0.33743 0.0
H1445 H 0.26339 0.87138 0.32813 0.0
C1446 C 0.1322 0.49427 0.28692 0.0
C1447 C 0.11279 0.48907 0.28017 0.0
C1448 C 0.13434 0.47951 0.29366 0.0
C1449 C 0.10886 0.42196 0.29491 0.0
H1450 H 0.15147 0.43986 0.32473 0.0
C1451 C 0.14022 0.36858 0.31094 0.0
C1452 C 0.14748 0.37033 0.32427 0.0
C1453 C 0.13409 0.38247 0.3066 0.0
C1454 C 0.13921 0.4344 0.31657 0.0
H1455 H 0.08019 0.46471 0.27551 0.0
H1456 H 0.08359 0.43903 0.28781 0.0
H1457 H 0.14318 0.46504 0.31624 0.0
H1458 H 0.15346 0.38747 0.34363 0.0
H1459 H 0.14183 0.41112 0.33625 0.0
H1460 H 0.10421 0.3911 0.29562 0.0
C1461 C 0.09738 0.45431 0.28758 0.0
C1462 C 0.1347 0.44901 0.31153 0.0
C1463 C 0.09535 0.46902 0.28061 0.0
C1464 C 0.14816 0.38597 0.33325 0.0
C1465 C 0.14157 0.39958 0.32898 0.0
C1466 C 0.11305 0.40724 0.30013 0.0
C1467 C 0.11702 0.45925 0.29401 0.0
C1468 C 0.11989 0.44314 0.30039 0.0
C1469 C 0.13463 0.39816 0.31556 0.0
C1470 C 0.12869 0.41337 0.31082 0.0
H1471 H 0.14598 0.50953 0.28654 0.0
H1472 H 0.14983 0.48383 0.29817 0.0
H1473 H 0.09745 0.41679 0.28628 0.0
H1474 H 0.13971 0.35675 0.30378 0.0
H1475 H 0.12937 0.38113 0.29615 0.0
C1476 C 0.36906 0.46348 0.28177 0.0
C1477 C 0.38031 0.45295 0.2797 0.0
C1478 C 0.34976 0.45355 0.287 0.0
C1479 C 0.31841 0.41007 0.30653 0.0
H1480 H 0.27211 0.41673 0.2928 0.0
C1481 C 0.24151 0.37797 0.33121 0.0
C1482 C 0.22265 0.36765 0.3227 0.0
C1483 C 0.2608 0.38943 0.32617 0.0
C1484 C 0.28485 0.41463 0.29671 0.0
H1485 H 0.38005 0.42371 0.28151 0.0
H1486 H 0.3462 0.40625 0.29035 0.0
H1487 H 0.3054 0.43397 0.28324 0.0
H1488 H 0.2093 0.36163 0.3022 0.0
H1489 H 0.2429 0.38141 0.29344 0.0
H1490 H 0.29773 0.39032 0.31977 0.0
C1491 C 0.35242 0.42228 0.28808 0.0
C1492 C 0.304 0.42469 0.29132 0.0
C1493 C 0.3717 0.43219 0.28285 0.0
C1494 C 0.2235 0.36941 0.30906 0.0
C1495 C 0.24278 0.38086 0.30403 0.0
C1496 C 0.29927 0.40003 0.31192 0.0
C1497 C 0.34127 0.43288 0.29029 0.0
C1498 C 0.32098 0.42244 0.29612 0.0
C1499 C 0.26168 0.39083 0.3125 0.0
C1500 C 0.28223 0.40212 0.30704 0.0
H1501 H 0.37515 0.4794 0.27933 0.0
H1502 H 0.34166 0.46222 0.28867 0.0
H1503 H 0.33124 0.40822 0.31057 0.0
H1504 H 0.24143 0.37702 0.34177 0.0
H1505 H 0.27505 0.39719 0.33298 0.0
C1506 C 0.49762 0.88659 0.2826 0.0
C1507 C 0.50429 0.90011 0.27264 0.0
C1508 C 0.50966 0.87811 0.28735 0.0
C1509 C 0.5529 0.86836 0.27961 0.0
H1510 H 0.55965 0.86724 0.31753 0.0
C1511 C 0.61616 0.85428 0.30576 0.0
C1512 C 0.6103 0.84156 0.31617 0.0
C1513 C 0.60253 0.86027 0.29995 0.0
C1514 C 0.55773 0.86719 0.3069 0.0
H1515 H 0.52853 0.91466 0.25953 0.0
H1516 H 0.54975 0.9003 0.26804 0.0
H1517 H 0.53697 0.87946 0.30825 0.0
H1518 H 0.58528 0.82487 0.32844 0.0
H1519 H 0.56159 0.83524 0.31828 0.0
H1520 H 0.57395 0.85634 0.27833 0.0
C1521 C 0.53511 0.89608 0.27211 0.0
C1522 C 0.54468 0.87417 0.30157 0.0
C1523 C 0.52306 0.90454 0.26734 0.0
C1524 C 0.59038 0.83475 0.32049 0.0
C1525 C 0.57682 0.84079 0.31472 0.0
C1526 C 0.56601 0.86142 0.28496 0.0
C1527 C 0.52869 0.88295 0.28228 0.0
C1528 C 0.54213 0.8749 0.28786 0.0
C1529 C 0.58278 0.85375 0.30445 0.0
C1530 C 0.56861 0.8608 0.29867 0.0
H1531 H 0.48335 0.88297 0.28698 0.0
H1532 H 0.50409 0.86781 0.29506 0.0
H1533 H 0.55107 0.86842 0.269 0.0
H1534 H 0.63135 0.85979 0.30216 0.0
H1535 H 0.60769 0.87041 0.29214 0.0
C1536 C 0.1062 0.636 0.26792 0.0
C1537 C 0.11858 0.62823 0.27339 0.0
C1538 C 0.10719 0.65403 0.27408 0.0
C1539 C 0.14325 0.70143 0.2966 0.0
H1540 H 0.09471 0.70832 0.29902 0.0
C1541 C 0.15004 0.77364 0.32617 0.0
C1542 C 0.13997 0.78345 0.32028 0.0
C1543 C 0.14593 0.75393 0.3208 0.0
C1544 C 0.10841 0.70666 0.2983 0.0
H1545 H 0.14071 0.63244 0.28997 0.0
H1546 H 0.14236 0.66378 0.30074 0.0
H1547 H 0.08998 0.6749 0.28911 0.0
H1548 H 0.11726 0.77998 0.30429 0.0
H1549 H 0.11024 0.74552 0.2948 0.0
H1550 H 0.16173 0.7331 0.30567 0.0
C1551 C 0.13227 0.65628 0.29154 0.0
C1552 C 0.10571 0.68755 0.29264 0.0
C1553 C 0.13132 0.63833 0.28538 0.0
C1554 C 0.12526 0.77284 0.30907 0.0
C1555 C 0.12117 0.75307 0.30366 0.0
C1556 C 0.14595 0.72046 0.30224 0.0
C1557 C 0.12055 0.66458 0.28582 0.0
C1558 C 0.12311 0.68472 0.2918 0.0
C1559 C 0.1317 0.74355 0.30937 0.0
C1560 C 0.12857 0.72327 0.30323 0.0
H1561 H 0.09634 0.6286 0.25864 0.0
H1562 H 0.09809 0.66014 0.26938 0.0
H1563 H 0.15704 0.69993 0.29583 0.0
H1564 H 0.16129 0.78126 0.3349 0.0
H1565 H 0.15399 0.74683 0.32557 0.0
C1566 C 0.83705 0.02867 0.39608 0.0
C1567 C 0.83419 0.03915 0.40708 0.0
C1568 C 0.82001 0.01065 0.38915 0.0
C1569 C 0.76189 0.9807 0.38326 0.0
H1570 H 0.77071 0.93447 0.37262 0.0
C1571 C 0.6941 0.89712 0.3627 0.0
C1572 C 0.698 0.8867 0.35215 0.0
C1573 C 0.71026 0.9163 0.36917 0.0
C1574 C 0.76804 0.94731 0.37538 0.0
H1575 H 0.81115 0.03907 0.41934 0.0
H1576 H 0.78135 0.00747 0.40726 0.0
H1577 H 0.79967 0.96684 0.3843 0.0
H1578 H 0.72181 0.88858 0.33989 0.0
H1579 H 0.74982 0.922 0.35108 0.0
H1580 H 0.73014 0.96098 0.37437 0.0
C1581 C 0.79675 0.01336 0.4039 0.0
C1582 C 0.78465 0.96589 0.38207 0.0
C1583 C 0.81382 0.03144 0.41083 0.0
C1584 C 0.71827 0.89608 0.34804 0.0
C1585 C 0.73438 0.91521 0.3545 0.0
C1586 C 0.74522 0.96206 0.37656 0.0
C1587 C 0.7997 0.00263 0.39306 0.0
C1588 C 0.78183 0.98285 0.38604 0.0
C1589 C 0.73064 0.92542 0.36524 0.0
C1590 C 0.74815 0.9452 0.37248 0.0
H1591 H 0.85248 0.03445 0.39279 0.0
H1592 H 0.82276 0.00303 0.38068 0.0
H1593 H 0.75926 0.99355 0.38606 0.0
H1594 H 0.67868 0.89031 0.36614 0.0
H1595 H 0.70693 0.9237 0.37748 0.0
C1596 C 0.96541 0.77592 0.40569 0.0
C1597 C 0.94717 0.77237 0.39809 0.0
C1598 C 0.98468 0.78465 0.40036 0.0
C1599 C 0.00644 0.79269 0.36787 0.0
H1600 H 0.0595 0.82835 0.38956 0.0
C1601 C 0.08604 0.83288 0.34584 0.0
C1602 C 0.10218 0.83075 0.35227 0.0
C1603 C 0.06746 0.82715 0.35162 0.0
C1604 C 0.04479 0.81834 0.3834 0.0
H1605 H 0.93497 0.77614 0.37923 0.0
H1606 H 0.9686 0.79197 0.37007 0.0
H1607 H 0.02655 0.8164 0.39935 0.0
H1608 H 0.11168 0.82146 0.37 0.0
H1609 H 0.07934 0.81166 0.38009 0.0
H1610 H 0.02475 0.79488 0.35189 0.0
C1611 C 0.96801 0.78739 0.37998 0.0
C1612 C 0.02588 0.8114 0.38901 0.0
C1613 C 0.94873 0.77843 0.38525 0.0
C1614 C 0.09951 0.82319 0.36473 0.0
C1615 C 0.08105 0.81771 0.37057 0.0
C1616 C 0.02532 0.79982 0.36224 0.0
C1617 C 0.9862 0.79026 0.38736 0.0
C1618 C 0.00643 0.79835 0.38134 0.0
C1619 C 0.06473 0.81943 0.36402 0.0
C1620 C 0.0447 0.8126 0.36995 0.0
H1621 H 0.96461 0.77123 0.41558 0.0
H1622 H 0.99822 0.78634 0.40631 0.0
H1623 H 0.99187 0.78232 0.36168 0.0
H1624 H 0.08759 0.83866 0.33624 0.0
H1625 H 0.05522 0.8288 0.34639 0.0
C1626 C 0.27742 0.21407 0.37097 0.0
C1627 C 0.28302 0.2156 0.3846 0.0
C1628 C 0.26506 0.22226 0.36636 0.0
C1629 C 0.22708 0.23747 0.37672 0.0
H1630 H 0.24202 0.2699 0.34677 0.0
C1631 C 0.18986 0.287 0.36209 0.0
C1632 C 0.18625 0.28828 0.34857 0.0
C1633 C 0.20037 0.27666 0.36623 0.0
C1634 C 0.23742 0.2606 0.35501 0.0
H1635 H 0.27994 0.22679 0.40409 0.0
H1636 H 0.25853 0.24131 0.39603 0.0
H1637 H 0.26326 0.25511 0.3545 0.0
H1638 H 0.19005 0.27891 0.32876 0.0
H1639 H 0.20802 0.26055 0.33597 0.0
H1640 H 0.20123 0.24295 0.37725 0.0
C1641 C 0.2636 0.23365 0.38892 0.0
C1642 C 0.24964 0.25217 0.35946 0.0
C1643 C 0.27606 0.22556 0.39352 0.0
C1644 C 0.19272 0.27835 0.33926 0.0
C1645 C 0.20315 0.26794 0.34339 0.0
C1646 C 0.2148 0.24582 0.37225 0.0
C1647 C 0.25793 0.23205 0.37529 0.0
C1648 C 0.24468 0.24063 0.37041 0.0
C1649 C 0.20742 0.26728 0.35693 0.0
C1650 C 0.21989 0.25759 0.36138 0.0
H1651 H 0.28269 0.20662 0.36385 0.0
H1652 H 0.26083 0.22067 0.35581 0.0
H1653 H 0.22269 0.22836 0.38507 0.0
H1654 H 0.18514 0.29452 0.36954 0.0
H1655 H 0.20358 0.27665 0.37674 0.0
C1656 C 0.63549 0.51014 0.72367 0.0
C1657 C 0.63606 0.51548 0.73727 0.0
C1658 C 0.65154 0.52355 0.71648 0.0
C1659 C 0.70728 0.56265 0.72175 0.0
H1660 H 0.69957 0.5769 0.68669 0.0
C1661 C 0.77725 0.6234 0.69791 0.0
C1662 C 0.77815 0.61984 0.68431 0.0
C1663 C 0.75906 0.61083 0.70369 0.0
C1664 C 0.70197 0.57283 0.6964 0.0
H1665 H 0.65316 0.5398 0.75372 0.0
H1666 H 0.68129 0.563 0.74121 0.0
H1667 H 0.66881 0.55507 0.698 0.0
H1668 H 0.76049 0.60043 0.66605 0.0
H1669 H 0.72869 0.57795 0.67626 0.0
H1670 H 0.74023 0.5798 0.72018 0.0
C1671 C 0.66857 0.54829 0.73618 0.0
C1672 C 0.68437 0.56042 0.70288 0.0
C1673 C 0.65248 0.53499 0.74334 0.0
C1674 C 0.76028 0.60354 0.67656 0.0
C1675 C 0.74204 0.59075 0.6824 0.0
C1676 C 0.72479 0.57481 0.71526 0.0
C1677 C 0.66853 0.54248 0.72277 0.0
C1678 C 0.68691 0.55545 0.71569 0.0
C1679 C 0.74131 0.59415 0.69608 0.0
C1680 C 0.72241 0.58031 0.70258 0.0
H1681 H 0.62319 0.49515 0.71871 0.0
H1682 H 0.65118 0.51864 0.70616 0.0
H1683 H 0.7097 0.55864 0.73148 0.0
H1684 H 0.7906 0.63603 0.70416 0.0
H1685 H 0.75893 0.61429 0.71417 0.0
C1686 C 0.4657 0.08945 0.71777 0.0
C1687 C 0.47078 0.0915 0.73151 0.0
C1688 C 0.45291 0.09675 0.71252 0.0
C1689 C 0.43169 0.13195 0.72026 0.0
H1690 H 0.38941 0.09654 0.6912 0.0
C1691 C 0.36559 0.14723 0.70033 0.0
C1692 C 0.36055 0.14425 0.68652 0.0
C1693 C 0.37944 0.14145 0.70605 0.0
C1694 C 0.40128 0.10674 0.69921 0.0
H1695 H 0.46667 0.10321 0.75052 0.0
H1696 H 0.44419 0.11591 0.74135 0.0
H1697 H 0.41295 0.08555 0.70075 0.0
H1698 H 0.36643 0.13308 0.6679 0.0
H1699 H 0.39059 0.12315 0.67786 0.0
H1700 H 0.41985 0.1531 0.71871 0.0
C1701 C 0.45031 0.10882 0.73462 0.0
C1702 C 0.4148 0.10044 0.70469 0.0
C1703 C 0.46319 0.10154 0.73988 0.0
C1704 C 0.36984 0.13552 0.67857 0.0
C1705 C 0.38363 0.12971 0.68429 0.0
C1706 C 0.4181 0.13825 0.71478 0.0
C1707 C 0.44479 0.10627 0.72088 0.0
C1708 C 0.43027 0.11301 0.71523 0.0
C1709 C 0.38852 0.13249 0.6981 0.0
C1710 C 0.40281 0.12576 0.70413 0.0
H1711 H 0.47165 0.08218 0.71103 0.0
H1712 H 0.44939 0.09495 0.70188 0.0
H1713 H 0.44355 0.14211 0.72828 0.0
H1714 H 0.35873 0.15391 0.70676 0.0
H1715 H 0.38272 0.14362 0.71672 0.0
C1716 C 0.94691 0.39794 0.70205 0.0
C1717 C 0.93957 0.40776 0.71084 0.0
C1718 C 0.93411 0.37682 0.69702 0.0
C1719 C 0.89325 0.32767 0.70547 0.0
H1720 H 0.88022 0.30886 0.66788 0.0
C1721 C 0.83785 0.24037 0.68684 0.0
C1722 C 0.84225 0.23208 0.67549 0.0
C1723 C 0.84847 0.26204 0.69054 0.0
C1724 C 0.88395 0.31376 0.67842 0.0
H1725 H 0.91251 0.40295 0.72079 0.0
H1726 H 0.8907 0.36584 0.71251 0.0
H1727 H 0.90179 0.34636 0.67544 0.0
H1728 H 0.86111 0.23983 0.65905 0.0
H1729 H 0.88042 0.27752 0.6658 0.0
H1730 H 0.87649 0.29534 0.70864 0.0
C1731 C 0.90638 0.37468 0.70952 0.0
C1732 C 0.89618 0.33525 0.6827 0.0
C1733 C 0.91898 0.39589 0.71434 0.0
C1734 C 0.85729 0.24584 0.6678 0.0
C1735 C 0.86827 0.2675 0.67165 0.0
C1736 C 0.88141 0.30619 0.70122 0.0
C1737 C 0.91387 0.36498 0.70087 0.0
C1738 C 0.90084 0.34234 0.69626 0.0
C1739 C 0.86413 0.27591 0.68314 0.0
C1740 C 0.87652 0.2989 0.68762 0.0
H1741 H 0.96274 0.40638 0.69927 0.0
H1742 H 0.94024 0.36955 0.69043 0.0
H1743 H 0.89689 0.33283 0.71599 0.0
H1744 H 0.82615 0.2301 0.69287 0.0
H1745 H 0.84439 0.26787 0.69923 0.0
C1746 C 0.18396 0.92932 0.628 0.0
C1747 C 0.18241 0.92241 0.61458 0.0
C1748 C 0.19502 0.95077 0.63248 0.0
C1749 C 0.21537 0.00331 0.62117 0.0
H1750 H 0.25206 0.02197 0.65409 0.0
C1751 C 0.2746 0.09107 0.63909 0.0
C1752 C 0.27682 0.09739 0.6527 0.0
C1753 C 0.26238 0.06981 0.63416 0.0
C1754 C 0.24169 0.017 0.64496 0.0
H1755 H 0.19145 0.93258 0.59536 0.0
H1756 H 0.21074 0.97 0.60318 0.0
H1757 H 0.23208 0.98468 0.6461 0.0
H1758 H 0.26738 0.08641 0.67172 0.0
H1759 H 0.24597 0.04954 0.66312 0.0
H1760 H 0.22507 0.03572 0.62004 0.0
C1761 C 0.20313 0.95886 0.6102 0.0
C1762 C 0.23024 0.99563 0.64038 0.0
C1763 C 0.19208 0.93742 0.60573 0.0
C1764 C 0.26617 0.08209 0.6612 0.0
C1765 C 0.25397 0.06091 0.65628 0.0
C1766 C 0.22683 0.02473 0.62575 0.0
C1767 C 0.20479 0.96577 0.62364 0.0
C1768 C 0.21691 0.98853 0.62846 0.0
C1769 C 0.25216 0.05448 0.64275 0.0
C1770 C 0.24006 0.0318 0.63773 0.0
H1771 H 0.17642 0.91817 0.63504 0.0
H1772 H 0.19574 0.95561 0.64286 0.0
H1773 H 0.20505 0.9983 0.61201 0.0
H1774 H 0.28264 0.10246 0.63228 0.0
H1775 H 0.26142 0.06533 0.62369 0.0
C1776 C 0.00855 0.22185 0.59776 0.0
C1777 C 0.02699 0.22889 0.60635 0.0
C1778 C 0.98914 0.21465 0.60275 0.0
C1779 C 0.96226 0.19622 0.63299 0.0
H1780 H 0.92299 0.21109 0.61713 0.0
C1781 C 0.89072 0.18821 0.6581 0.0
C1782 C 0.87157 0.18005 0.65002 0.0
C1783 C 0.90926 0.19304 0.65252 0.0
C1784 C 0.93369 0.20662 0.62158 0.0
H1785 H 0.03952 0.23416 0.62693 0.0
H1786 H 0.00586 0.22194 0.63564 0.0
H1787 H 0.956 0.2215 0.60781 0.0
H1788 H 0.85698 0.17028 0.62971 0.0
H1789 H 0.88933 0.1789 0.62004 0.0
H1790 H 0.94007 0.18174 0.64694 0.0
C1791 C 0.00621 0.22144 0.62502 0.0
C1792 C 0.95261 0.21254 0.61622 0.0
C1793 C 0.02556 0.22848 0.62003 0.0
C1794 C 0.87142 0.17668 0.63625 0.0
C1795 C 0.88999 0.18168 0.63068 0.0
C1796 C 0.94341 0.19045 0.63841 0.0
C1797 C 0.98773 0.21447 0.61647 0.0
C1798 C 0.96721 0.20751 0.62189 0.0
C1799 C 0.90913 0.18997 0.63874 0.0
C1800 C 0.92895 0.19566 0.6328 0.0
H1801 H 0.00912 0.22178 0.58716 0.0
H1802 H 0.97521 0.20909 0.59584 0.0
H1803 H 0.9729 0.19171 0.63748 0.0
H1804 H 0.89145 0.191 0.66874 0.0
H1805 H 0.9238 0.19958 0.659 0.0
C1806 C 0.77469 0.81007 0.61854 0.0
C1807 C 0.77233 0.80982 0.60472 0.0
C1808 C 0.77651 0.79419 0.62412 0.0
C1809 C 0.79483 0.75745 0.61636 0.0
H1810 H 0.77005 0.7333 0.64781 0.0
C1811 C 0.80831 0.69485 0.6382 0.0
C1812 C 0.81213 0.69662 0.65203 0.0
C1813 C 0.80126 0.70706 0.63229 0.0
C1814 C 0.77724 0.74006 0.6391 0.0
H1815 H 0.76859 0.79199 0.58595 0.0
H1816 H 0.77193 0.76436 0.59571 0.0
H1817 H 0.76078 0.7571 0.63765 0.0
H1818 H 0.8113 0.7124 0.67053 0.0
H1819 H 0.79947 0.73412 0.66019 0.0
H1820 H 0.81173 0.74102 0.61793 0.0
C1821 C 0.77271 0.77702 0.60221 0.0
C1822 C 0.77186 0.7536 0.63326 0.0
C1823 C 0.77082 0.79284 0.59662 0.0
C1824 C 0.80848 0.71066 0.65985 0.0
C1825 C 0.80156 0.723 0.65392 0.0
C1826 C 0.80029 0.74404 0.62222 0.0
C1827 C 0.77607 0.7778 0.616 0.0
C1828 C 0.78068 0.76249 0.62186 0.0
C1829 C 0.79801 0.72145 0.64006 0.0
C1830 C 0.79163 0.73524 0.63368 0.0
H1831 H 0.77615 0.82304 0.62506 0.0
H1832 H 0.77928 0.79531 0.63479 0.0
H1833 H 0.80221 0.76438 0.60773 0.0
H1834 H 0.81072 0.684 0.63189 0.0
H1835 H 0.79831 0.70517 0.6216 0.0
C1836 C 0.0441 0.79612 0.62152 0.0
C1837 C 0.0497 0.78493 0.61252 0.0
C1838 C 0.02471 0.78605 0.62662 0.0
C1839 C 0.98239 0.73313 0.63197 0.0
H1840 H 0.9498 0.7607 0.6369 0.0
C1841 C 0.8969 0.6881 0.64384 0.0
C1842 C 0.89086 0.69754 0.65377 0.0
C1843 C 0.9163 0.69947 0.63898 0.0
C1844 C 0.95885 0.7529 0.63571 0.0
H1845 H 0.03906 0.75459 0.60149 0.0
H1846 H 0.00517 0.73705 0.61029 0.0
H1847 H 0.98355 0.77916 0.62787 0.0
H1848 H 0.90038 0.72656 0.66617 0.0
H1849 H 0.93442 0.74646 0.65764 0.0
H1850 H 0.95766 0.70682 0.63969 0.0
C1851 C 0.01595 0.7535 0.61364 0.0
C1852 C 0.97817 0.76346 0.63054 0.0
C1853 C 0.03535 0.76355 0.60858 0.0
C1854 C 0.90456 0.7188 0.65855 0.0
C1855 C 0.92401 0.73022 0.65363 0.0
C1856 C 0.96309 0.72257 0.63708 0.0
C1857 C 0.01046 0.76457 0.62282 0.0
C1858 C 0.99009 0.75362 0.62852 0.0
C1859 C 0.93015 0.72058 0.64389 0.0
C1860 C 0.95102 0.73226 0.63891 0.0
H1861 H 0.05494 0.81256 0.62487 0.0
H1862 H 0.02111 0.79498 0.6338 0.0
H1863 H 0.99137 0.72525 0.63083 0.0
H1864 H 0.88672 0.67182 0.63982 0.0
H1865 H 0.92042 0.6917 0.63132 0.0
C1866 C 0.16432 0.22315 0.62067 0.0
C1867 C 0.16759 0.23242 0.6088 0.0
C1868 C 0.17703 0.21535 0.62532 0.0
C1869 C 0.21513 0.1994 0.6151 0.0
H1870 H 0.23141 0.20785 0.65291 0.0
C1871 C 0.27999 0.18531 0.63902 0.0
C1872 C 0.27549 0.17481 0.65044 0.0
C1873 C 0.26647 0.19163 0.63348 0.0
C1874 C 0.22685 0.2052 0.64234 0.0
H1875 H 0.18669 0.24075 0.59247 0.0
H1876 H 0.20916 0.22751 0.6007 0.0
H1877 H 0.20861 0.22024 0.64411 0.0
H1878 H 0.25306 0.1625 0.66489 0.0
H1879 H 0.22963 0.17362 0.65527 0.0
H1880 H 0.23382 0.18469 0.61339 0.0
C1881 C 0.19651 0.22585 0.6063 0.0
C1882 C 0.21371 0.21224 0.63728 0.0
C1883 C 0.18366 0.23348 0.60159 0.0
C1884 C 0.25705 0.17058 0.6561 0.0
C1885 C 0.24367 0.17705 0.65064 0.0
C1886 C 0.22844 0.1925 0.62017 0.0
C1887 C 0.19346 0.21682 0.61829 0.0
C1888 C 0.20757 0.20935 0.6236 0.0
C1889 C 0.24828 0.18776 0.63933 0.0
C1890 C 0.23435 0.19524 0.63385 0.0
H1891 H 0.15184 0.22182 0.62633 0.0
H1892 H 0.17388 0.2081 0.63444 0.0
H1893 H 0.21053 0.19664 0.60454 0.0
H1894 H 0.29403 0.18877 0.63438 0.0
H1895 H 0.27051 0.19997 0.6248 0.0
C1896 C 0.75511 0.9547 0.61463 0.0
C1897 C 0.76545 0.94511 0.62048 0.0
C1898 C 0.75492 0.97156 0.62157 0.0
C1899 C 0.78833 0.01485 0.6467 0.0
H1900 H 0.74289 0.02704 0.64418 0.0
C1901 C 0.80198 0.09515 0.66771 0.0
C1902 C 0.79345 0.10444 0.65971 0.0
C1903 C 0.79568 0.07393 0.66499 0.0
C1904 C 0.75576 0.02391 0.64491 0.0
H1905 H 0.78211 0.94449 0.63858 0.0
H1906 H 0.78197 0.97412 0.65066 0.0
H1907 H 0.73623 0.99218 0.63584 0.0
H1908 H 0.77117 0.09869 0.64283 0.0
H1909 H 0.76067 0.06181 0.63778 0.0
H1910 H 0.80815 0.04665 0.65513 0.0
C1911 C 0.77428 0.96876 0.64064 0.0
C1912 C 0.75191 0.00393 0.6402 0.0
C1913 C 0.77441 0.95185 0.63371 0.0
C1914 C 0.77801 0.09195 0.64918 0.0
C1915 C 0.77188 0.07076 0.64635 0.0
C1916 C 0.79222 0.03481 0.6513 0.0
C1917 C 0.76511 0.97919 0.63449 0.0
C1918 C 0.76825 -0.00067 0.64087 0.0
C1919 C 0.7809 0.06158 0.6541 0.0
C1920 C 0.77608 0.03971 0.65029 0.0
H1921 H 0.74825 0.95005 0.60441 0.0
H1922 H 0.7479 0.97941 0.61653 0.0
H1923 H 0.80135 0.01191 0.64713 0.0
H1924 H 0.81369 0.10431 0.67603 0.0
H1925 H 0.80261 0.06729 0.67134 0.0
C1926 C 0.50017 0.36998 0.72062 0.0
C1927 C 0.49883 0.37761 0.73332 0.0
C1928 C 0.48289 0.35213 0.71372 0.0
C1929 C 0.42538 0.31707 0.71219 0.0
H1930 H 0.4374 0.27508 0.69703 0.0
C1931 C 0.3606 0.23095 0.69513 0.0
C1932 C 0.36317 0.22084 0.6838 0.0
C1933 C 0.37656 0.25103 0.70048 0.0
C1934 C 0.43376 0.28674 0.70101 0.0
H1935 H 0.47807 0.37284 0.74855 0.0
H1936 H 0.44786 0.34174 0.73644 0.0
H1937 H 0.46614 0.30881 0.70728 0.0
H1938 H 0.38416 0.22418 0.66895 0.0
H1939 H 0.41173 0.25924 0.67811 0.0
H1940 H 0.39292 0.29489 0.70595 0.0
C1941 C 0.46225 0.34967 0.7318 0.0
C1942 C 0.45026 0.30608 0.70689 0.0
C1943 C 0.47955 0.3675 0.73873 0.0
C1944 C 0.38178 0.23142 0.67777 0.0
C1945 C 0.39764 0.25151 0.68306 0.0
C1946 C 0.40883 0.29771 0.70624 0.0
C1947 C 0.46388 0.34155 0.71934 0.0
C1948 C 0.44626 0.32143 0.71259 0.0
C1949 C 0.39535 0.26145 0.69458 0.0
C1950 C 0.41284 0.28229 0.70062 0.0
H1951 H 0.51467 0.37765 0.71607 0.0
H1952 H 0.48449 0.34645 0.70402 0.0
H1953 H 0.42185 0.32868 0.71641 0.0
H1954 H 0.34647 0.22319 0.70004 0.0
H1955 H 0.37438 0.25813 0.70944 0.0
C1956 C 0.60874 0.10572 0.71802 0.0
C1957 C 0.60748 0.1 0.73096 0.0
C1958 C 0.62781 0.11428 0.71252 0.0
C1959 C 0.68566 0.13871 0.72097 0.0
H1960 H 0.68381 0.11954 0.68428 0.0
C1961 C 0.75928 0.14999 0.69716 0.0
C1962 C 0.76138 0.1557 0.6842 0.0
C1963 C 0.74087 0.14483 0.70297 0.0
C1964 C 0.68459 0.12527 0.69448 0.0
H1965 H 0.62535 0.09907 0.74833 0.0
H1966 H 0.65861 0.11373 0.73868 0.0
H1967 H 0.65117 0.10766 0.69428 0.0
H1968 H 0.74573 0.16068 0.66727 0.0
H1969 H 0.71355 0.15158 0.67741 0.0
H1970 H 0.71919 0.15594 0.72119 0.0
C1971 C 0.64494 0.11196 0.73284 0.0
C1972 C 0.66585 0.11849 0.70024 0.0
C1973 C 0.62586 0.10352 0.73838 0.0
C1974 C 0.74466 0.15634 0.67725 0.0
C1975 C 0.72617 0.15101 0.68303 0.0
C1976 C 0.70442 0.14539 0.71523 0.0
C1977 C 0.64611 0.11722 0.71977 0.0
C1978 C 0.66612 0.12505 0.71357 0.0
C1979 C 0.72402 0.1451 0.69594 0.0
C1980 C 0.7041 0.13868 0.70193 0.0
H1981 H 0.59491 0.10351 0.71213 0.0
H1982 H 0.62819 0.11856 0.70254 0.0
H1983 H 0.68649 0.14437 0.7312 0.0
H1984 H 0.77183 0.14938 0.70283 0.0
H1985 H 0.73965 0.14014 0.71287 0.0
C1986 C 0.92312 0.52858 0.71468 0.0
C1987 C 0.94515 0.53933 0.71495 0.0
C1988 C 0.91162 0.53799 0.71063 0.0
C1989 C 0.91806 0.59024 0.70611 0.0
H1990 H 0.86301 0.55722 0.68616 0.0
C1991 C 0.86679 0.62679 0.69504 0.0
C1992 C 0.85559 0.62146 0.68241 0.0
C1993 C 0.87633 0.61563 0.69927 0.0
C1994 C 0.87843 0.56671 0.69163 0.0
H1995 H 0.97229 0.56845 0.71108 0.0
H1996 H 0.95223 0.58442 0.70348 0.0
H1997 H 0.88291 0.54028 0.69236 0.0
H1998 H 0.84517 0.59996 0.66441 0.0
H1999 H 0.86237 0.58082 0.67162 0.0
H2000 H 0.91407 0.61682 0.70492 0.0
C2001 C 0.94383 0.56889 0.70669 0.0
C2002 C 0.88974 0.55694 0.69534 0.0
C2003 C 0.95534 0.55958 0.71087 0.0
C2004 C 0.85363 0.60436 0.67423 0.0
C2005 C 0.86343 0.59335 0.67839 0.0
C2006 C 0.90687 0.60003 0.70229 0.0
C2007 C 0.92184 0.55831 0.70664 0.0
C2008 C 0.90971 0.56859 0.70263 0.0
C2009 C 0.87518 0.59906 0.6909 0.0
C2010 C 0.88688 0.58841 0.69504 0.0
H2011 H 0.91469 0.51284 0.71756 0.0
H2012 H 0.89474 0.52943 0.71084 0.0
H2013 H 0.93323 0.59969 0.71188 0.0
H2014 H 0.86833 0.63972 0.70166 0.0
H2015 H 0.88476 0.62014 0.7091 0.0
C2016 C 0.4747 0.94861 0.19092 0.0
C2017 C 0.46039 0.95276 0.19706 0.0
C2018 C 0.47911 0.95343 0.17803 0.0
C2019 C 0.45945 0.96602 0.14753 0.0
H2020 H 0.51764 0.99132 0.14034 0.0
C2021 C 0.48424 0.98341 0.09497 0.0
C2022 C 0.50276 0.00239 0.09382 0.0
C2023 C 0.47879 0.97671 0.10739 0.0
C2024 C 0.50133 0.98441 0.1422 0.0
H2025 H 0.43892 0.96458 0.19422 0.0
H2026 H 0.44693 0.97342 0.17188 0.0
H2027 H 0.50832 0.9807 0.16218 0.0
H2028 H 0.53016 0.0291 0.10491 0.0
H2029 H 0.52044 0.01768 0.12657 0.0
H2030 H 0.45258 0.97029 0.12765 0.0
C2031 C 0.45464 0.96625 0.17698 0.0
C2032 C 0.49593 0.97805 0.15468 0.0
C2033 C 0.45021 0.9614 0.18986 0.0
C2034 C 0.51569 0.01451 0.10542 0.0
C2035 C 0.51023 0.00782 0.11784 0.0
C2036 C 0.46486 0.9724 0.13504 0.0
C2037 C 0.46934 0.96257 0.17096 0.0
C2038 C 0.47493 0.96882 0.15753 0.0
C2039 C 0.49171 0.98883 0.11899 0.0
C2040 C 0.48589 0.98175 0.13223 0.0
H2041 H 0.48301 0.94217 0.19619 0.0
H2042 H 0.49028 0.95009 0.17364 0.0
H2043 H 0.4431 0.95878 0.14933 0.0
H2044 H 0.47376 0.97379 0.08626 0.0
H2045 H 0.46453 0.96191 0.10788 0.0
C2046 C 0.04769 0.5263 0.19025 0.0
C2047 C 0.06648 0.52576 0.1918 0.0
C2048 C 0.03669 0.52196 0.17768 0.0
C2049 C 0.04631 0.52351 0.14273 0.0
H2050 H 0.98558 0.49093 0.13536 0.0
C2051 C 0.00606 0.49933 0.08964 0.0
C2052 C 0.98823 0.50123 0.08686 0.0
C2053 C 0.01448 0.50158 0.10267 0.0
C2054 C 0.00254 0.50025 0.13732 0.0
H2055 H 0.08771 0.5189 0.18164 0.0
H2056 H 0.06852 0.51124 0.1598 0.0
H2057 H 0.00207 0.49561 0.15788 0.0
H2058 H 0.96504 0.50668 0.09558 0.0
H2059 H 0.97987 0.51072 0.11845 0.0
H2060 H 0.04693 0.52828 0.1223 0.0
C2061 C 0.06254 0.51552 0.16819 0.0
C2062 C 0.01197 0.5029 0.15019 0.0
C2063 C 0.07352 0.51987 0.18069 0.0
C2064 C 0.97873 0.50503 0.09743 0.0
C2065 C 0.9872 0.5073 0.11051 0.0
C2066 C 0.03694 0.52089 0.12993 0.0
C2067 C 0.04429 0.517 0.16649 0.0
C2068 C 0.03398 0.51438 0.15298 0.0
C2069 C 0.00529 0.50581 0.11325 0.0
C2070 C 0.01497 0.50906 0.12703 0.0
H2071 H 0.04197 0.53089 0.19864 0.0
H2072 H 0.02272 0.52332 0.17667 0.0
H2073 H 0.06328 0.53288 0.14463 0.0
H2074 H 0.01345 0.49592 0.08173 0.0
H2075 H 0.02816 0.49988 0.10445 0.0
C2076 C 0.49215 0.51123 0.19766 0.0
C2077 C 0.47387 0.49492 0.20184 0.0
C2078 C 0.49448 0.51257 0.18421 0.0
C2079 C 0.46441 0.49349 0.15082 0.0
H2080 H 0.51946 0.51098 0.13951 0.0
C2081 C 0.47894 0.48544 0.0961 0.0
C2082 C 0.49644 0.50262 0.09185 0.0
C2083 C 0.47564 0.4851 0.10946 0.0
C2084 C 0.50405 0.50628 0.14254 0.0
H2085 H 0.44371 0.46719 0.19524 0.0
H2086 H 0.44792 0.46919 0.1717 0.0
H2087 H 0.51472 0.50879 0.1629 0.0
H2088 H 0.52412 0.53297 0.09821 0.0
H2089 H 0.51838 0.53236 0.12159 0.0
H2090 H 0.45373 0.49055 0.13033 0.0
C2091 C 0.4603 0.48124 0.17881 0.0
C2092 C 0.50131 0.50506 0.15595 0.0
C2093 C 0.45789 0.48002 0.19228 0.0
C2094 C 0.51043 0.51959 0.1012 0.0
C2095 C 0.50724 0.51916 0.11458 0.0
C2096 C 0.46712 0.49453 0.13738 0.0
C2097 C 0.47867 0.4975 0.1746 0.0
C2098 C 0.48147 0.4987 0.16028 0.0
C2099 C 0.48989 0.50185 0.11885 0.0
C2100 C 0.48698 0.50099 0.13311 0.0
H2101 H 0.50457 0.52315 0.20481 0.0
H2102 H 0.50863 0.52556 0.18135 0.0
H2103 H 0.44899 0.48885 0.1538 0.0
H2104 H 0.46781 0.47222 0.08909 0.0
H2105 H 0.46221 0.4715 0.11248 0.0
C2106 C 0.99366 0.48539 0.79998 0.0
C2107 C 0.00488 0.50434 0.79441 0.0
C2108 C 0.9933 0.48537 0.81367 0.0
C2109 C 0.00172 0.51986 0.84417 0.0
H2110 H 0.00599 0.47679 0.86159 0.0
C2111 C 0.01678 0.52451 0.90087 0.0
C2112 C 0.00607 0.50584 0.9068 0.0
C2113 C 0.01538 0.52408 0.88712 0.0
C2114 C 0.00449 0.48876 0.85685 0.0
H2115 H 0.02486 0.53811 0.79887 0.0
H2116 H 0.02437 0.53809 0.82279 0.0
H2117 H 0.00664 0.47666 0.8377 0.0
H2118 H 0.98516 0.47212 0.90296 0.0
H2119 H 0.98249 0.4714 0.87889 0.0
H2120 H 0.99978 0.53208 0.86336 0.0
C2121 C 0.01554 0.52326 0.81654 0.0
C2122 C 0.00489 0.4887 0.84316 0.0
C2123 C 0.01586 0.52327 0.80285 0.0
C2124 C 0.99349 0.48678 0.89868 0.0
C2125 C 0.99215 0.48634 0.88491 0.0
C2126 C 0.00136 0.51995 0.85786 0.0
C2127 C 0.00417 0.50431 0.82211 0.0
C2128 C 0.00359 0.50429 0.83666 0.0
C2129 C 0.00326 0.50496 0.87898 0.0
C2130 C 0.00282 0.50444 0.86436 0.0
H2131 H 0.98473 0.47056 0.79374 0.0
H2132 H 0.98414 0.47054 0.81761 0.0
H2133 H 1.00031 0.53189 0.83944 0.0
H2134 H 0.02641 0.53947 0.90687 0.0
H2135 H 0.02426 0.53868 0.88286 0.0
C2136 C 0.53004 0.47589 0.81609 0.0
C2137 C 0.54673 0.4718 0.81717 0.0
C2138 C 0.52214 0.47969 0.82745 0.0
C2139 C 0.51968 0.4698 0.86251 0.0
H2140 H 0.50289 0.51186 0.8662 0.0
C2141 C 0.50163 0.49453 0.91233 0.0
C2142 C 0.48392 0.49699 0.91245 0.0
C2143 C 0.50868 0.49167 0.9004 0.0
C2144 C 0.5073 0.4999 0.86524 0.0
H2145 H 0.56897 0.46963 0.83095 0.0
H2146 H 0.5554 0.47645 0.85071 0.0
H2147 H 0.51679 0.50704 0.8459 0.0
H2148 H 0.45983 0.49851 0.90006 0.0
H2149 H 0.47228 0.49359 0.87915 0.0
H2150 H 0.51038 0.46272 0.88184 0.0
C2151 C 0.54801 0.47617 0.84113 0.0
C2152 C 0.51526 0.49714 0.85362 0.0
C2153 C 0.55583 0.47232 0.82981 0.0
C2154 C 0.47361 0.49682 0.90032 0.0
C2155 C 0.48073 0.49401 0.88835 0.0
C2156 C 0.5118 0.47259 0.8741 0.0
C2157 C 0.53083 0.47952 0.84009 0.0
C2158 C 0.52175 0.4822 0.8522 0.0
C2159 C 0.49827 0.49126 0.88828 0.0
C2160 C 0.50573 0.4878 0.87566 0.0
H2161 H 0.52262 0.47544 0.80647 0.0
H2162 H 0.50881 0.48208 0.82632 0.0
H2163 H 0.52405 0.4578 0.86162 0.0
H2164 H 0.51027 0.4951 0.92148 0.0
H2165 H 0.5225 0.49002 0.90069 0.0
C2166 C 0.52424 0.0246 0.81501 0.0
C2167 C 0.52154 0.04131 0.81155 0.0
C2168 C 0.52145 0.01843 0.82775 0.0
C2169 C 0.51965 0.03633 0.86218 0.0
H2170 H 0.48862 0.97664 0.8656 0.0
C2171 C 0.49247 0.00436 0.91199 0.0
C2172 C 0.49364 0.98663 0.91502 0.0
C2173 C 0.49618 0.01128 0.89946 0.0
C2174 C 0.49755 0.99336 0.86485 0.0
H2175 H 0.51426 0.06495 0.81892 0.0
H2176 H 0.5092 0.05404 0.84115 0.0
H2177 H 0.49487 0.98846 0.84372 0.0
H2178 H 0.50002 0.96252 0.90728 0.0
H2179 H 0.50659 0.97462 0.88547 0.0
H2180 H 0.52238 0.04124 0.88332 0.0
C2181 C 0.51359 0.04578 0.834 0.0
C2182 C 0.50112 0.00014 0.85229 0.0
C2183 C 0.5163 0.05191 0.82123 0.0
C2184 C 0.49866 0.97602 0.90522 0.0
C2185 C 0.50242 0.98297 0.8927 0.0
C2186 C 0.51612 0.02954 0.87476 0.0
C2187 C 0.51592 0.02883 0.83738 0.0
C2188 C 0.51222 0.02171 0.85079 0.0
C2189 C 0.5012 0.00068 0.88964 0.0
C2190 C 0.50502 0.00796 0.87626 0.0
H2191 H 0.52802 0.01591 0.80777 0.0
H2192 H 0.52361 0.00547 0.83005 0.0
H2193 H 0.52848 0.05305 0.86138 0.0
H2194 H 0.48835 0.01272 0.91925 0.0
H2195 H 0.49475 0.02475 0.8974 0.0
C2196 C 0.11136 0.28068 0.52254 0.0
C2197 C 0.12826 0.28592 0.53213 0.0
C2198 C 0.11486 0.28487 0.50945 0.0
C2199 C 0.15439 0.29678 0.48558 0.0
H2200 H 0.12452 0.32021 0.46729 0.0
C2201 C 0.17946 0.33541 0.43747 0.0
C2202 C 0.16353 0.33133 0.42743 0.0
C2203 C 0.17446 0.32873 0.44994 0.0
C2204 C 0.1328 0.31343 0.47219 0.0
H2205 H 0.16203 0.29908 0.53533 0.0
H2206 H 0.16818 0.30678 0.51266 0.0
H2207 H 0.11692 0.31032 0.48951 0.0
H2208 H 0.12983 0.31713 0.42268 0.0
H2209 H 0.12108 0.30526 0.44441 0.0
H2210 H 0.17046 0.30015 0.46831 0.0
C2211 C 0.15218 0.29928 0.51519 0.0
C2212 C 0.12843 0.30774 0.48493 0.0
C2213 C 0.14868 0.2951 0.52825 0.0
C2214 C 0.14247 0.32036 0.43015 0.0
C2215 C 0.13746 0.31375 0.44265 0.0
C2216 C 0.15879 0.30252 0.47285 0.0
C2217 C 0.13535 0.29434 0.50563 0.0
C2218 C 0.13929 0.29949 0.49183 0.0
C2219 C 0.1534 0.31786 0.45269 0.0
C2220 C 0.14817 0.31106 0.46604 0.0
H2221 H 0.09544 0.27373 0.5252 0.0
H2222 H 0.10151 0.28064 0.50231 0.0
H2223 H 0.16278 0.29013 0.4905 0.0
H2224 H 0.19583 0.34363 0.43566 0.0
H2225 H 0.18713 0.33234 0.45749 0.0
C2226 C 0.74377 0.88077 0.51871 0.0
C2227 C 0.73294 0.87474 0.52994 0.0
C2228 C 0.73289 0.87777 0.50634 0.0
C2229 C 0.68056 0.84665 0.48745 0.0
H2230 H 0.70525 0.88921 0.46346 0.0
C2231 C 0.6399 0.83909 0.43527 0.0
C2232 C 0.65291 0.84344 0.42501 0.0
C2233 C 0.64854 0.84403 0.4485 0.0
C2234 C 0.6982 0.87716 0.47004 0.0
H2235 H 0.7022 0.86088 0.53702 0.0
H2236 H 0.68311 0.85565 0.51533 0.0
H2237 H 0.72231 0.89564 0.48589 0.0
H2238 H 0.68523 0.85625 0.42067 0.0
H2239 H 0.70024 0.86509 0.44368 0.0
H2240 H 0.65654 0.8281 0.4715 0.0
C2241 C 0.70003 0.86252 0.51611 0.0
C2242 C 0.70798 0.88081 0.48287 0.0
C2243 C 0.71094 0.8655 0.52851 0.0
C2244 C 0.67476 0.85308 0.4283 0.0
C2245 C 0.68339 0.85812 0.4415 0.0
C2246 C 0.67072 0.84302 0.47461 0.0
C2247 C 0.71091 0.86869 0.50489 0.0
C2248 C 0.6995 0.86544 0.49164 0.0
C2249 C 0.67037 0.85353 0.45174 0.0
C2250 C 0.67966 0.8581 0.46571 0.0
H2251 H 0.76067 0.88757 0.51944 0.0
H2252 H 0.7417 0.88227 0.49785 0.0
H2253 H 0.67373 0.83441 0.49393 0.0
H2254 H 0.62303 0.83193 0.43308 0.0
H2255 H 0.63816 0.8405 0.45621 0.0
C2256 C 0.12906 0.80905 0.52554 0.0
C2257 C 0.13838 0.82768 0.53425 0.0
C2258 C 0.13058 0.80984 0.51195 0.0
C2259 C 0.1629 0.84547 0.48828 0.0
H2260 H 0.11751 0.80533 0.46218 0.0
C2261 C 0.16609 0.85215 0.43234 0.0
C2262 C 0.16082 0.83358 0.42435 0.0
C2263 C 0.16211 0.85155 0.44558 0.0
C2264 C 0.13034 0.81658 0.46938 0.0
H2265 H 0.15569 0.86169 0.53558 0.0
H2266 H 0.15796 0.86313 0.5119 0.0
H2267 H 0.11265 0.80409 0.48566 0.0
H2268 H 0.14661 0.79977 0.4238 0.0
H2269 H 0.13966 0.79873 0.44695 0.0
H2270 H 0.18052 0.85801 0.47199 0.0
C2271 C 0.15003 0.84788 0.51553 0.0
C2272 C 0.1276 0.81584 0.48283 0.0
C2273 C 0.14868 0.84708 0.5291 0.0
C2274 C 0.15103 0.81435 0.42977 0.0
C2275 C 0.14687 0.81373 0.44297 0.0
C2276 C 0.16556 0.84631 0.47485 0.0
C2277 C 0.14128 0.82928 0.5068 0.0
C2278 C 0.14388 0.83023 0.49245 0.0
C2279 C 0.1526 0.83235 0.45105 0.0
C2280 C 0.14936 0.83182 0.46527 0.0
H2281 H 0.12115 0.79388 0.52927 0.0
H2282 H 0.12387 0.7952 0.50554 0.0
H2283 H 0.17595 0.85653 0.49541 0.0
H2284 H 0.17375 0.8672 0.42844 0.0
H2285 H 0.16653 0.86613 0.45156 0.0
C2286 C 0.65988 0.82288 0.13874 0.0
C2287 C 0.66833 0.84214 0.13338 0.0
C2288 C 0.65889 0.8222 0.15234 0.0
C2289 C 0.6609 0.85321 0.18312 0.0
H2290 H 0.67414 0.81502 0.2 0.0
C2291 C 0.67772 0.85759 0.23977 0.0
C2292 C 0.66946 0.83852 0.24537 0.0
C2293 C 0.6759 0.85768 0.22605 0.0
C2294 C 0.67013 0.82556 0.19541 0.0
H2295 H 0.68239 0.87582 0.13804 0.0
H2296 H 0.68099 0.87472 0.16187 0.0
H2297 H 0.67472 0.81611 0.1762 0.0
H2298 H 0.65245 0.80458 0.24101 0.0
H2299 H 0.64916 0.80473 0.21702 0.0
H2300 H 0.65674 0.86292 0.20245 0.0
C2301 C 0.67477 0.86007 0.15554 0.0
C2302 C 0.67045 0.82619 0.18176 0.0
C2303 C 0.67564 0.86073 0.1419 0.0
C2304 C 0.65886 0.81952 0.23698 0.0
C2305 C 0.65716 0.8196 0.22326 0.0
C2306 C 0.6607 0.85265 0.1968 0.0
C2307 C 0.66644 0.84079 0.16092 0.0
C2308 C 0.66587 0.84004 0.17545 0.0
C2309 C 0.66589 0.83869 0.21765 0.0
C2310 C 0.66534 0.83884 0.20308 0.0
H2311 H 0.65376 0.80825 0.13239 0.0
H2312 H 0.652 0.80705 0.15611 0.0
H2313 H 0.65697 0.86382 0.17855 0.0
H2314 H 0.68579 0.87247 0.246 0.0
H2315 H 0.6829 0.87263 0.22202 0.0
C2316 C 0.22046 0.79993 0.1652 0.0
C2317 C 0.21331 0.80144 0.15246 0.0
C2318 C 0.21256 0.80433 0.1763 0.0
C2319 C 0.1843 0.83062 0.1884 0.0
H2320 H 0.17199 0.79294 0.21555 0.0
C2321 C 0.14291 0.83462 0.23442 0.0
C2322 C 0.15161 0.83265 0.24655 0.0
C2323 C 0.14967 0.83095 0.2225 0.0
C2324 C 0.17549 0.8037 0.20811 0.0
H2325 H 0.1926 0.80927 0.14136 0.0
H2326 H 0.17866 0.81693 0.16082 0.0
H2327 H 0.18547 0.78671 0.19559 0.0
H2328 H 0.17476 0.82604 0.25566 0.0
H2329 H 0.1863 0.81947 0.23496 0.0
H2330 H 0.17427 0.84761 0.20103 0.0
C2331 C 0.19053 0.81248 0.16221 0.0
C2332 C 0.18325 0.80016 0.19668 0.0
C2333 C 0.19851 0.8081 0.15107 0.0
C2334 C 0.16733 0.82717 0.24649 0.0
C2335 C 0.174 0.82345 0.23462 0.0
C2336 C 0.17646 0.83416 0.19987 0.0
C2337 C 0.19724 0.81031 0.17493 0.0
C2338 C 0.18805 0.81373 0.18677 0.0
C2339 C 0.16519 0.82519 0.22248 0.0
C2340 C 0.17227 0.82089 0.20992 0.0
H2341 H 0.23218 0.79525 0.16661 0.0
H2342 H 0.21844 0.80301 0.18597 0.0
H2343 H 0.18795 0.84143 0.18098 0.0
H2344 H 0.13068 0.83868 0.23412 0.0
H2345 H 0.14248 0.83227 0.21329 0.0
C2346 C 0.17855 0.3902 0.15226 0.0
C2347 C 0.18813 0.38259 0.14372 0.0
C2348 C 0.1759 0.38464 0.16516 0.0
C2349 C 0.19443 0.36266 0.1911 0.0
H2350 H 0.14167 0.34888 0.20476 0.0
C2351 C 0.16927 0.3206 0.23812 0.0
C2352 C 0.15956 0.32755 0.247 0.0
C2353 C 0.1733 0.32818 0.22579 0.0
C2354 C 0.15659 0.35292 0.20117 0.0
H2355 H 0.20241 0.36311 0.14209 0.0
H2356 H 0.19773 0.35334 0.16451 0.0
H2357 H 0.14795 0.36074 0.18288 0.0
H2358 H 0.14637 0.34785 0.24982 0.0
H2359 H 0.15358 0.36123 0.22833 0.0
H2360 H 0.20295 0.35457 0.20935 0.0
C2361 C 0.19258 0.36392 0.16134 0.0
C2362 C 0.16022 0.35975 0.18861 0.0
C2363 C 0.19527 0.36953 0.14846 0.0
C2364 C 0.15401 0.34229 0.24325 0.0
C2365 C 0.15796 0.3498 0.23089 0.0
C2366 C 0.19078 0.35577 0.20364 0.0
C2367 C 0.18272 0.37127 0.16983 0.0
C2368 C 0.17915 0.36462 0.18338 0.0
C2369 C 0.16767 0.34285 0.222 0.0
C2370 C 0.17177 0.35071 0.2088 0.0
H2371 H 0.17313 0.40053 0.14899 0.0
H2372 H 0.16858 0.3909 0.17149 0.0
H2373 H 0.20933 0.36661 0.1875 0.0
H2374 H 0.17397 0.30944 0.24075 0.0
H2375 H 0.18061 0.32233 0.21914 0.0
C2376 C 0.78413 0.61339 0.85197 0.0
C2377 C 0.79688 0.62765 0.86298 0.0
C2378 C 0.78888 0.61817 0.83911 0.0
C2379 C 0.83271 0.65203 0.82038 0.0
H2380 H 0.78834 0.64088 0.79307 0.0
C2381 C 0.85034 0.68534 0.77005 0.0
C2382 C 0.83744 0.67242 0.75865 0.0
C2383 C 0.84535 0.67923 0.78265 0.0
C2384 C 0.8009 0.64385 0.80052 0.0
H2385 H 0.82484 0.65795 0.86907 0.0
H2386 H 0.83292 0.66637 0.8467 0.0
H2387 H 0.77962 0.63118 0.8152 0.0
H2388 H 0.80901 0.64294 0.75163 0.0
H2389 H 0.80059 0.63208 0.77355 0.0
H2390 H 0.854 0.6647 0.80574 0.0
C2391 C 0.81932 0.65145 0.84799 0.0
C2392 C 0.79589 0.63829 0.81322 0.0
C2393 C 0.81453 0.64672 0.86082 0.0
C2394 C 0.81945 0.65318 0.76018 0.0
C2395 C 0.81447 0.64707 0.77277 0.0
C2396 C 0.83772 0.65754 0.80769 0.0
C2397 C 0.80657 0.63724 0.83697 0.0
C2398 C 0.81175 0.64245 0.82333 0.0
C2399 C 0.82732 0.66003 0.78417 0.0
C2400 C 0.8219 0.65365 0.79761 0.0
H2401 H 0.77036 0.59862 0.8533 0.0
H2402 H 0.77883 0.60681 0.83083 0.0
H2403 H 0.84528 0.65513 0.82787 0.0
H2404 H 0.86442 0.70015 0.76926 0.0
H2405 H 0.85549 0.68973 0.79121 0.0
C2406 C 0.40913 0.19306 0.85284 0.0
C2407 C 0.39998 0.19495 0.86415 0.0
C2408 C 0.3989 0.19006 0.84024 0.0
C2409 C 0.3473 0.17265 0.82193 0.0
H2410 H 0.38128 0.20464 0.79527 0.0
C2411 C 0.31187 0.17219 0.7694 0.0
C2412 C 0.3227 0.17063 0.7589 0.0
C2413 C 0.3207 0.1756 0.78251 0.0
C2414 C 0.37161 0.19547 0.80257 0.0
H2415 H 0.37273 0.19484 0.87113 0.0
H2416 H 0.35478 0.18954 0.84903 0.0
H2417 H 0.39759 0.20934 0.81768 0.0
H2418 H 0.351 0.17087 0.75393 0.0
H2419 H 0.36637 0.1769 0.77671 0.0
H2420 H 0.32132 0.15869 0.80672 0.0
C2421 C 0.36983 0.19024 0.84995 0.0
C2422 C 0.38095 0.19815 0.81541 0.0
C2423 C 0.3801 0.19326 0.8626 0.0
C2424 C 0.34246 0.17246 0.76178 0.0
C2425 C 0.35126 0.17589 0.77484 0.0
C2426 C 0.33793 0.16996 0.80905 0.0
C2427 C 0.37927 0.18888 0.83864 0.0
C2428 C 0.36897 0.18658 0.82519 0.0
C2429 C 0.34052 0.17754 0.78535 0.0
C2430 C 0.35006 0.18116 0.79921 0.0
H2431 H 0.42423 0.19387 0.85372 0.0
H2432 H 0.40637 0.1886 0.83172 0.0
H2433 H 0.3377 0.16342 0.82924 0.0
H2434 H 0.2967 0.17102 0.76749 0.0
H2435 H 0.31214 0.177 0.79041 0.0
C2436 C 0.81775 0.1571 0.86274 0.0
C2437 C 0.80044 0.15725 0.86769 0.0
C2438 C 0.82001 0.15754 0.84925 0.0
C2439 C 0.80474 0.17364 0.81921 0.0
H2440 H 0.8228 0.13835 0.80122 0.0
C2441 C 0.8105 0.16998 0.76281 0.0
C2442 C 0.82763 0.16876 0.75844 0.0
C2443 C 0.80646 0.16817 0.77603 0.0
C2444 C 0.81799 0.1485 0.80612 0.0
H2445 H 0.77166 0.15749 0.86223 0.0
H2446 H 0.77577 0.15849 0.83865 0.0
H2447 H 0.81683 0.13554 0.82443 0.0
H2448 H 0.85389 0.16459 0.76462 0.0
H2449 H 0.8473 0.16218 0.78769 0.0
H2450 H 0.80624 0.18689 0.80099 0.0
C2451 C 0.78767 0.15822 0.84528 0.0
C2452 C 0.81452 0.14683 0.81942 0.0
C2453 C 0.78534 0.15766 0.85878 0.0
C2454 C 0.84072 0.16589 0.76765 0.0
C2455 C 0.83675 0.16418 0.78086 0.0
C2456 C 0.80833 0.17541 0.80592 0.0
C2457 C 0.80508 0.15825 0.84038 0.0
C2458 C 0.80797 0.15946 0.82612 0.0
C2459 C 0.81949 0.16515 0.7852 0.0
C2460 C 0.81514 0.16295 0.79924 0.0
H2461 H 0.8299 0.1572 0.86934 0.0
H2462 H 0.83376 0.15786 0.8458 0.0
H2463 H 0.79995 0.18378 0.82417 0.0
H2464 H 0.80022 0.1724 0.75602 0.0
H2465 H 0.79293 0.16881 0.779 0.0
C2466 C 0.33444 0.19342 0.47459 0.0
C2467 C 0.33816 0.17974 0.46645 0.0
C2468 C 0.3341 0.19211 0.4882 0.0
C2469 C 0.35072 0.1712 0.51562 0.0
H2470 H 0.30892 0.17762 0.5334 0.0
C2471 C 0.33671 0.15353 0.56948 0.0
C2472 C 0.33529 0.16864 0.57781 0.0
C2473 C 0.33631 0.15439 0.55582 0.0
C2474 C 0.32077 0.17595 0.52858 0.0
H2475 H 0.34421 0.15383 0.46615 0.0
H2476 H 0.34342 0.1514 0.48985 0.0
H2477 H 0.31016 0.18044 0.50972 0.0
H2478 H 0.33162 0.19604 0.57834 0.0
H2479 H 0.33097 0.19758 0.55446 0.0
H2480 H 0.3612 0.16655 0.53448 0.0
C2481 C 0.34119 0.16343 0.48579 0.0
C2482 C 0.32154 0.17763 0.51503 0.0
C2483 C 0.34165 0.16481 0.47221 0.0
C2484 C 0.33292 0.1843 0.57216 0.0
C2485 C 0.33237 0.18507 0.5585 0.0
C2486 C 0.34987 0.16942 0.52915 0.0
C2487 C 0.33734 0.17702 0.49395 0.0
C2488 C 0.33655 0.17531 0.50838 0.0
C2489 C 0.33434 0.17029 0.5502 0.0
C2490 C 0.33491 0.17179 0.53578 0.0
H2491 H 0.33193 0.20523 0.47045 0.0
H2492 H 0.33145 0.20306 0.49422 0.0
H2493 H 0.36271 0.16968 0.51087 0.0
H2494 H 0.33874 0.14139 0.57356 0.0
H2495 H 0.33763 0.14265 0.54965 0.0
C2496 C 0.86433 0.14878 0.48332 0.0
C2497 C 0.88518 0.15324 0.48343 0.0
C2498 C 0.8577 0.15501 0.49444 0.0
C2499 C 0.87321 0.17052 0.53063 0.0
H2500 H 0.8279 0.18293 0.52829 0.0
C2501 C 0.84592 0.19465 0.57694 0.0
C2502 C 0.82428 0.1821 0.57805 0.0
C2503 C 0.85394 0.19401 0.56496 0.0
C2504 C 0.84058 0.17951 0.52906 0.0
H2505 H 0.91577 0.16868 0.49483 0.0
H2506 H 0.90459 0.18045 0.51401 0.0
H2507 H 0.84139 0.1771 0.50809 0.0
H2508 H 0.79408 0.15963 0.56714 0.0
H2509 H 0.8081 0.15906 0.54617 0.0
H2510 H 0.87249 0.17317 0.55161 0.0
C2511 C 0.89304 0.17142 0.50561 0.0
C2512 C 0.84826 0.17604 0.5175 0.0
C2513 C 0.89953 0.16485 0.49459 0.0
C2514 C 0.81077 0.16974 0.56667 0.0
C2515 C 0.81879 0.16933 0.55464 0.0
C2516 C 0.86577 0.17431 0.54216 0.0
C2517 C 0.8719 0.16615 0.50583 0.0
C2518 C 0.86452 0.17124 0.51811 0.0
C2519 C 0.8405 0.18106 0.55376 0.0
C2520 C 0.84924 0.1786 0.54149 0.0
H2521 H 0.85294 0.1397 0.47484 0.0
H2522 H 0.84125 0.15038 0.49426 0.0
H2523 H 0.88537 0.16639 0.53157 0.0
H2524 H 0.85676 0.20475 0.58539 0.0
H2525 H 0.87073 0.20342 0.56449 0.0
C2526 C 0.84931 0.71637 0.48567 0.0
C2527 C 0.85762 0.70824 0.47646 0.0
C2528 C 0.8468 0.71008 0.4984 0.0
C2529 C 0.84037 0.66662 0.51709 0.0
H2530 H 0.85473 0.70695 0.54789 0.0
C2531 C 0.83678 0.64306 0.57031 0.0
C2532 C 0.82958 0.65228 0.5796 0.0
C2533 C 0.84076 0.65011 0.55782 0.0
C2534 C 0.85038 0.69542 0.53939 0.0
H2535 H 0.86979 0.68708 0.47344 0.0
H2536 H 0.86552 0.6762 0.49568 0.0
H2537 H 0.86079 0.71902 0.52603 0.0
H2538 H 0.82049 0.67585 0.58292 0.0
H2539 H 0.82712 0.68793 0.56112 0.0
H2540 H 0.82964 0.64296 0.53036 0.0
C2541 C 0.86088 0.6874 0.49303 0.0
C2542 C 0.85391 0.70237 0.52685 0.0
C2543 C 0.86354 0.69381 0.48033 0.0
C2544 C 0.82634 0.66862 0.57607 0.0
C2545 C 0.83019 0.67559 0.56356 0.0
C2546 C 0.83672 0.65964 0.52961 0.0
C2547 C 0.85237 0.69537 0.50219 0.0
C2548 C 0.84893 0.68805 0.51556 0.0
C2549 C 0.83752 0.66647 0.55427 0.0
C2550 C 0.84164 0.67394 0.54094 0.0
H2551 H 0.84473 0.72762 0.48302 0.0
H2552 H 0.84005 0.7164 0.50518 0.0
H2553 H 0.83607 0.65514 0.50857 0.0
H2554 H 0.83969 0.63062 0.57278 0.0
H2555 H 0.8467 0.64292 0.55103 0.0
loop_
_geom_bond_atom_site_label_1
_geom_bond_atom_site_label_2
_geom_bond_distance
_geom_bond_site_symmetry_2
_ccdc_geom_bond_type
P0 O11 1.490 . S
P0 C14 1.812 . S
P0 C20 1.803 . S
P0 C26 1.819 . S
H1 C15 0.941 . S
H2 C16 0.939 . S
H3 C18 0.940 . S
H4 C19 0.940 . S
H5 C21 0.939 . S
H6 C22 0.942 . S
H7 C24 0.940 . S
H8 C25 0.939 . S
H9 C27 0.941 . S
H10 C31 0.939 . S
O11 P0 1.490 . S
H12 C28 0.939 . S
H13 C30 0.940 . S
C14 P0 1.812 . S
C14 C15 1.389 . S
C14 C19 1.391 . S
C15 H1 0.941 . S
C15 C14 1.389 . S
C15 C16 1.397 . S
C16 H2 0.939 . S
C16 C15 1.397 . S
C16 C17 1.378 . S
C17 C16 1.378 . S
C17 C18 1.378 . S
C18 H3 0.940 . S
C18 C17 1.378 . S
C18 C19 1.396 . S
C19 H4 0.940 . S
C19 C14 1.391 . S
C19 C18 1.396 . S
C20 P0 1.803 . S
C20 C21 1.378 . S
C20 C25 1.400 . S
C21 H5 0.939 . S
C21 C20 1.378 . S
C21 C22 1.361 . S
C22 H6 0.942 . S
C22 C21 1.361 . S
C22 C23 1.369 . S
C23 C22 1.369 . S
C23 C24 1.404 . S
C24 H7 0.940 . S
C24 C23 1.404 . S
C24 C25 1.389 . S
C25 H8 0.939 . S
C25 C20 1.400 . S
C25 C24 1.389 . S
C26 P0 1.819 . S
C26 C27 1.391 . S
C26 C31 1.391 . S
C27 H9 0.941 . S
C27 C26 1.391 . S
C27 C28 1.396 . S
C28 H12 0.939 . S
C28 C27 1.396 . S
C28 C29 1.397 . S
C29 C28 1.397 . S
C29 C30 1.385 . S
C30 H13 0.940 . S
C30 C29 1.385 . S
C30 C31 1.388 . S
C31 H10 0.939 . S
C31 C26 1.391 . S
C31 C30 1.388 . S
P32 O43 1.490 . S
P32 C46 1.812 . S
P32 C52 1.803 . S
P32 C58 1.819 . S
H33 C47 0.941 . S
H34 C48 0.939 . S
H35 C50 0.940 . S
H36 C51 0.940 . S
H37 C53 0.939 . S
H38 C54 0.942 . S
H39 C56 0.940 . S
H40 C57 0.939 . S
H41 C59 0.941 . S
H42 C63 0.939 . S
O43 P32 1.490 . S
H44 C60 0.939 . S
H45 C62 0.940 . S
C46 P32 1.812 . S
C46 C47 1.389 . S
C46 C51 1.391 . S
C47 H33 0.941 . S
C47 C46 1.389 . S
C47 C48 1.397 . S
C48 H34 0.939 . S
C48 C47 1.397 . S
C48 C49 1.378 . S
C49 C48 1.378 . S
C49 C50 1.378 . S
C50 H35 0.940 . S
C50 C49 1.378 . S
C50 C51 1.396 . S
C51 H36 0.940 . S
C51 C46 1.391 . S
C51 C50 1.396 . S
C52 P32 1.803 . S
C52 C53 1.378 . S
C52 C57 1.400 . S
C53 H37 0.939 . S
C53 C52 1.378 . S
C53 C54 1.361 . S
C54 H38 0.942 . S
C54 C53 1.361 . S
C54 C55 1.369 . S
C55 C54 1.369 . S
C55 C56 1.404 . S
C56 H39 0.940 . S
C56 C55 1.404 . S
C56 C57 1.389 . S
C57 H40 0.939 . S
C57 C52 1.400 . S
C57 C56 1.389 . S
C58 P32 1.819 . S
C58 C59 1.391 . S
C58 C63 1.391 . S
C59 H41 0.941 . S
C59 C58 1.391 . S
C59 C60 1.396 . S
C60 H44 0.939 . S
C60 C59 1.396 . S
C60 C61 1.397 . S
C61 C60 1.397 . S
C61 C62 1.385 . S
C62 H45 0.940 . S
C62 C61 1.385 . S
C62 C63 1.388 . S
C63 H42 0.939 . S
C63 C58 1.391 . S
C63 C62 1.388 . S
P64 O75 1.490 . S
P64 C78 1.812 . S
P64 C84 1.803 . S
P64 C90 1.819 . S
H65 C79 0.941 . S
H66 C80 0.939 . S
H67 C82 0.940 . S
H68 C83 0.940 . S
H69 C85 0.939 . S
H70 C86 0.942 . S
H71 C88 0.940 . S
H72 C89 0.939 . S
H73 C91 0.941 . S
H74 C95 0.939 . S
O75 P64 1.490 . S
H76 C92 0.939 . S
H77 C94 0.940 . S
C78 P64 1.812 . S
C78 C79 1.389 . S
C78 C83 1.391 . S
C79 H65 0.941 . S
C79 C78 1.389 . S
C79 C80 1.397 . S
C80 H66 0.939 . S
C80 C79 1.397 . S
C80 C81 1.378 . S
C81 C80 1.378 . S
C81 C82 1.378 . S
C82 H67 0.940 . S
C82 C81 1.378 . S
C82 C83 1.396 . S
C83 H68 0.940 . S
C83 C78 1.391 . S
C83 C82 1.396 . S
C84 P64 1.803 . S
C84 C85 1.378 . S
C84 C89 1.400 . S
C85 H69 0.939 . S
C85 C84 1.378 . S
C85 C86 1.361 . S
C86 H70 0.942 . S
C86 C85 1.361 . S
C86 C87 1.369 . S
C87 C86 1.369 . S
C87 C88 1.404 . S
C88 H71 0.940 . S
C88 C87 1.404 . S
C88 C89 1.389 . S
C89 H72 0.939 . S
C89 C84 1.400 . S
C89 C88 1.389 . S
C90 P64 1.819 . S
C90 C91 1.391 . S
C90 C95 1.391 . S
C91 H73 0.941 . S
C91 C90 1.391 . S
C91 C92 1.396 . S
C92 H76 0.939 . S
C92 C91 1.396 . S
C92 C93 1.397 . S
C93 C92 1.397 . S
C93 C94 1.385 . S
C94 H77 0.940 . S
C94 C93 1.385 . S
C94 C95 1.388 . S
C95 H74 0.939 . S
C95 C90 1.391 . S
C95 C94 1.388 . S
P96 O107 1.490 . S
P96 C110 1.812 . S
P96 C116 1.803 . S
P96 C122 1.819 . S
H97 C111 0.941 . S
H98 C112 0.939 . S
H99 C114 0.940 . S
H100 C115 0.940 . S
H101 C117 0.939 . S
H102 C118 0.942 . S
H103 C120 0.940 . S
H104 C121 0.939 . S
H105 C123 0.941 . S
H106 C127 0.939 . S
O107 P96 1.490 . S
H108 C124 0.939 . S
H109 C126 0.940 . S
C110 P96 1.812 . S
C110 C111 1.389 . S
C110 C115 1.391 . S
C111 H97 0.941 . S
C111 C110 1.389 . S
C111 C112 1.397 . S
C112 H98 0.939 . S
C112 C111 1.397 . S
C112 C113 1.378 . S
C113 C112 1.378 . S
C113 C114 1.378 . S
C114 H99 0.940 . S
C114 C113 1.378 . S
C114 C115 1.396 . S
C115 H100 0.940 . S
C115 C110 1.391 . S
C115 C114 1.396 . S
C116 P96 1.803 . S
C116 C117 1.378 . S
C116 C121 1.400 . S
C117 H101 0.939 . S
C117 C116 1.378 . S
C117 C118 1.361 . S
C118 H102 0.942 . S
C118 C117 1.361 . S
C118 C119 1.369 . S
C119 C118 1.369 . S
C119 C120 1.404 . S
C120 H103 0.940 . S
C120 C119 1.404 . S
C120 C121 1.389 . S
C121 H104 0.939 . S
C121 C116 1.400 . S
C121 C120 1.389 . S
C122 P96 1.819 . S
C122 C123 1.391 . S
C122 C127 1.391 . S
C123 H105 0.941 . S
C123 C122 1.391 . S
C123 C124 1.396 . S
C124 H108 0.939 . S
C124 C123 1.396 . S
C124 C125 1.397 . S
C125 C124 1.397 . S
C125 C126 1.385 . S
C126 H109 0.940 . S
C126 C125 1.385 . S
C126 C127 1.388 . S
C127 H106 0.939 . S
C127 C122 1.391 . S
C127 C126 1.388 . S
P128 O139 1.490 . S
P128 C142 1.812 . S
P128 C148 1.803 . S
P128 C154 1.819 . S
H129 C143 0.941 . S
H130 C144 0.939 . S
H131 C146 0.940 . S
H132 C147 0.940 . S
H133 C149 0.939 . S
H134 C150 0.942 . S
H135 C152 0.940 . S
H136 C153 0.939 . S
H137 C155 0.941 . S
H138 C159 0.939 . S
O139 P128 1.490 . S
H140 C156 0.939 . S
H141 C158 0.940 . S
C142 P128 1.812 . S
C142 C143 1.389 . S
C142 C147 1.391 . S
C143 H129 0.941 . S
C143 C142 1.389 . S
C143 C144 1.397 . S
C144 H130 0.939 . S
C144 C143 1.397 . S
C144 C145 1.378 . S
C145 C144 1.378 . S
C145 C146 1.378 . S
C146 H131 0.940 . S
C146 C145 1.378 . S
C146 C147 1.396 . S
C147 H132 0.940 . S
C147 C142 1.391 . S
C147 C146 1.396 . S
C148 P128 1.803 . S
C148 C149 1.378 . S
C148 C153 1.400 . S
C149 H133 0.939 . S
C149 C148 1.378 . S
C149 C150 1.361 . S
C150 H134 0.942 . S
C150 C149 1.361 . S
C150 C151 1.369 . S
C151 C150 1.369 . S
C151 C152 1.404 . S
C152 H135 0.940 . S
C152 C151 1.404 . S
C152 C153 1.389 . S
C153 H136 0.939 . S
C153 C148 1.400 . S
C153 C152 1.389 . S
C154 P128 1.819 . S
C154 C155 1.391 . S
C154 C159 1.391 . S
C155 H137 0.941 . S
C155 C154 1.391 . S
C155 C156 1.396 . S
C156 H140 0.939 . S
C156 C155 1.396 . S
C156 C157 1.397 . S
C157 C156 1.397 . S
C157 C158 1.385 . S
C158 H141 0.940 . S
C158 C157 1.385 . S
C158 C159 1.388 . S
C159 H138 0.939 . S
C159 C154 1.391 . S
C159 C158 1.388 . S
P160 O171 1.490 . S
P160 C174 1.812 . S
P160 C180 1.803 . S
P160 C186 1.819 . S
H161 C175 0.941 . S
H162 C176 0.939 . S
H163 C178 0.940 . S
H164 C179 0.940 . S
H165 C181 0.939 . S
H166 C182 0.942 . S
H167 C184 0.940 . S
H168 C185 0.939 . S
H169 C187 0.941 . S
H170 C191 0.939 . S
O171 P160 1.490 . S
H172 C188 0.939 . S
H173 C190 0.940 . S
C174 P160 1.812 . S
C174 C175 1.389 . S
C174 C179 1.391 . S
C175 H161 0.941 . S
C175 C174 1.389 . S
C175 C176 1.397 . S
C176 H162 0.939 . S
C176 C175 1.397 . S
C176 C177 1.378 . S
C177 C176 1.378 . S
C177 C178 1.378 . S
C178 H163 0.940 . S
C178 C177 1.378 . S
C178 C179 1.396 . S
C179 H164 0.940 . S
C179 C174 1.391 . S
C179 C178 1.396 . S
C180 P160 1.803 . S
C180 C181 1.378 . S
C180 C185 1.400 . S
C181 H165 0.939 . S
C181 C180 1.378 . S
C181 C182 1.361 . S
C182 H166 0.942 . S
C182 C181 1.361 . S
C182 C183 1.369 . S
C183 C182 1.369 . S
C183 C184 1.404 . S
C184 H167 0.940 . S
C184 C183 1.404 . S
C184 C185 1.389 . S
C185 H168 0.939 . S
C185 C180 1.400 . S
C185 C184 1.389 . S
C186 P160 1.819 . S
C186 C187 1.391 . S
C186 C191 1.391 . S
C187 H169 0.941 . S
C187 C186 1.391 . S
C187 C188 1.396 . S
C188 H172 0.939 . S
C188 C187 1.396 . S
C188 C189 1.397 . S
C189 C188 1.397 . S
C189 C190 1.385 . S
C190 H173 0.940 . S
C190 C189 1.385 . S
C190 C191 1.388 . S
C191 H170 0.939 . S
C191 C186 1.391 . S
C191 C190 1.388 . S
P192 O203 1.490 1_655 S
P192 C206 1.812 . S
P192 C212 1.803 . S
P192 C218 1.819 . S
H193 C207 0.941 . S
H194 C208 0.939 . S
H195 C210 0.940 . S
H196 C211 0.940 . S
H197 C213 0.939 . S
H198 C214 0.942 . S
H199 C216 0.940 . S
H200 C217 0.939 . S
H201 C219 0.941 1_455 S
H202 C223 0.939 . S
O203 P192 1.490 1_455 S
H204 C220 0.939 1_455 S
H205 C222 0.940 . S
C206 P192 1.812 . S
C206 C207 1.389 . S
C206 C211 1.391 . S
C207 H193 0.941 . S
C207 C206 1.389 . S
C207 C208 1.397 . S
C208 H194 0.939 . S
C208 C207 1.397 . S
C208 C209 1.378 . S
C209 C208 1.378 . S
C209 C210 1.378 . S
C210 H195 0.940 . S
C210 C209 1.378 . S
C210 C211 1.396 . S
C211 H196 0.940 . S
C211 C206 1.391 . S
C211 C210 1.396 . S
C212 P192 1.803 . S
C212 C213 1.378 . S
C212 C217 1.400 . S
C213 H197 0.939 . S
C213 C212 1.378 . S
C213 C214 1.361 . S
C214 H198 0.942 . S
C214 C213 1.361 . S
C214 C215 1.369 . S
C215 C214 1.369 . S
C215 C216 1.404 . S
C216 H199 0.940 . S
C216 C215 1.404 . S
C216 C217 1.389 . S
C217 H200 0.939 . S
C217 C212 1.400 . S
C217 C216 1.389 . S
C218 P192 1.819 . S
C218 C219 1.391 . S
C218 C223 1.391 . S
C219 H201 0.941 1_655 S
C219 C218 1.391 . S
C219 C220 1.396 . S
C220 H204 0.939 1_655 S
C220 C219 1.396 . S
C220 C221 1.397 . S
C221 C220 1.397 . S
C221 C222 1.385 . S
C222 H205 0.940 . S
C222 C221 1.385 . S
C222 C223 1.388 . S
C223 H202 0.939 . S
C223 C218 1.391 . S
C223 C222 1.388 . S
P224 O235 1.490 . S
P224 C238 1.812 . S
P224 C244 1.803 . S
P224 C250 1.819 . S
H225 C239 0.941 . S
H226 C240 0.939 . S
H227 C242 0.940 . S
H228 C243 0.940 . S
H229 C245 0.939 . S
H230 C246 0.942 . S
H231 C248 0.940 . S
H232 C249 0.939 . S
H233 C251 0.941 . S
H234 C255 0.939 . S
O235 P224 1.490 . S
H236 C252 0.939 . S
H237 C254 0.940 . S
C238 P224 1.812 . S
C238 C239 1.389 . S
C238 C243 1.391 . S
C239 H225 0.941 . S
C239 C238 1.389 . S
C239 C240 1.397 . S
C240 H226 0.939 . S
C240 C239 1.397 . S
C240 C241 1.378 . S
C241 C240 1.378 . S
C241 C242 1.378 . S
C242 H227 0.940 . S
C242 C241 1.378 . S
C242 C243 1.396 . S
C243 H228 0.940 . S
C243 C238 1.391 . S
C243 C242 1.396 . S
C244 P224 1.803 . S
C244 C245 1.378 . S
C244 C249 1.400 . S
C245 H229 0.939 . S
C245 C244 1.378 . S
C245 C246 1.361 . S
C246 H230 0.942 . S
C246 C245 1.361 . S
C246 C247 1.369 . S
C247 C246 1.369 . S
C247 C248 1.404 . S
C248 H231 0.940 . S
C248 C247 1.404 . S
C248 C249 1.389 . S
C249 H232 0.939 . S
C249 C244 1.400 . S
C249 C248 1.389 . S
C250 P224 1.819 . S
C250 C251 1.391 . S
C250 C255 1.391 . S
C251 H233 0.941 . S
C251 C250 1.391 . S
C251 C252 1.396 . S
C252 H236 0.939 . S
C252 C251 1.396 . S
C252 C253 1.397 . S
C253 C252 1.397 . S
C253 C254 1.385 . S
C254 H237 0.940 . S
C254 C253 1.385 . S
C254 C255 1.388 . S
C255 H234 0.939 . S
C255 C250 1.391 . S
C255 C254 1.388 . S
P256 O267 1.490 . S
P256 C270 1.812 . S
P256 C276 1.803 . S
P256 C282 1.819 . S
H257 C271 0.941 . S
H258 C272 0.939 . S
H259 C274 0.940 . S
H260 C275 0.940 . S
H261 C277 0.939 . S
H262 C278 0.942 . S
H263 C280 0.940 . S
H264 C281 0.939 . S
H265 C283 0.941 . S
H266 C287 0.939 . S
O267 P256 1.490 . S
H268 C284 0.939 . S
H269 C286 0.940 . S
C270 P256 1.812 . S
C270 C271 1.389 . S
C270 C275 1.391 . S
C271 H257 0.941 . S
C271 C270 1.389 . S
C271 C272 1.397 . S
C272 H258 0.939 . S
C272 C271 1.397 . S
C272 C273 1.378 . S
C273 C272 1.378 . S
C273 C274 1.378 . S
C274 H259 0.940 . S
C274 C273 1.378 . S
C274 C275 1.396 . S
C275 H260 0.940 . S
C275 C270 1.391 . S
C275 C274 1.396 . S
C276 P256 1.803 . S
C276 C277 1.378 . S
C276 C281 1.400 . S
C277 H261 0.939 . S
C277 C276 1.378 . S
C277 C278 1.361 . S
C278 H262 0.942 . S
C278 C277 1.361 . S
C278 C279 1.369 . S
C279 C278 1.369 . S
C279 C280 1.404 . S
C280 H263 0.940 . S
C280 C279 1.404 . S
C280 C281 1.389 . S
C281 H264 0.939 . S
C281 C276 1.400 . S
C281 C280 1.389 . S
C282 P256 1.819 . S
C282 C283 1.391 . S
C282 C287 1.391 . S
C283 H265 0.941 . S
C283 C282 1.391 . S
C283 C284 1.396 . S
C284 H268 0.939 . S
C284 C283 1.396 . S
C284 C285 1.397 . S
C285 C284 1.397 . S
C285 C286 1.385 . S
C286 H269 0.940 . S
C286 C285 1.385 . S
C286 C287 1.388 . S
C287 H266 0.939 . S
C287 C282 1.391 . S
C287 C286 1.388 . S
P288 O299 1.490 . S
P288 C302 1.812 . S
P288 C308 1.803 . S
P288 C314 1.819 . S
H289 C303 0.941 . S
H290 C304 0.939 . S
H291 C306 0.940 . S
H292 C307 0.940 . S
H293 C309 0.939 . S
H294 C310 0.942 . S
H295 C312 0.940 . S
H296 C313 0.939 . S
H297 C315 0.941 . S
H298 C319 0.939 . S
O299 P288 1.490 . S
H300 C316 0.939 . S
H301 C318 0.940 . S
C302 P288 1.812 . S
C302 C303 1.389 . S
C302 C307 1.391 . S
C303 H289 0.941 . S
C303 C302 1.389 . S
C303 C304 1.397 . S
C304 H290 0.939 . S
C304 C303 1.397 . S
C304 C305 1.378 . S
C305 C304 1.378 . S
C305 C306 1.378 . S
C306 H291 0.940 . S
C306 C305 1.378 . S
C306 C307 1.396 . S
C307 H292 0.940 . S
C307 C302 1.391 . S
C307 C306 1.396 . S
C308 P288 1.803 . S
C308 C309 1.378 . S
C308 C313 1.400 . S
C309 H293 0.939 . S
C309 C308 1.378 . S
C309 C310 1.361 . S
C310 H294 0.942 . S
C310 C309 1.361 . S
C310 C311 1.369 . S
C311 C310 1.369 . S
C311 C312 1.404 . S
C312 H295 0.940 . S
C312 C311 1.404 . S
C312 C313 1.389 . S
C313 H296 0.939 . S
C313 C308 1.400 . S
C313 C312 1.389 . S
C314 P288 1.819 . S
C314 C315 1.391 . S
C314 C319 1.391 . S
C315 H297 0.941 . S
C315 C314 1.391 . S
C315 C316 1.396 . S
C316 H300 0.939 . S
C316 C315 1.396 . S
C316 C317 1.397 . S
C317 C316 1.397 . S
C317 C318 1.385 . S
C318 H301 0.940 . S
C318 C317 1.385 . S
C318 C319 1.388 . S
C319 H298 0.939 . S
C319 C314 1.391 . S
C319 C318 1.388 . S
P320 O331 1.490 . S
P320 C334 1.812 . S
P320 C340 1.803 . S
P320 C346 1.819 . S
H321 C335 0.941 . S
H322 C336 0.939 . S
H323 C338 0.940 . S
H324 C339 0.940 . S
H325 C341 0.939 . S
H326 C342 0.942 . S
H327 C344 0.940 . S
H328 C345 0.939 . S
H329 C347 0.941 . S
H330 C351 0.939 . S
O331 P320 1.490 . S
H332 C348 0.939 . S
H333 C350 0.940 . S
C334 P320 1.812 . S
C334 C335 1.389 . S
C334 C339 1.391 . S
C335 H321 0.941 . S
C335 C334 1.389 . S
C335 C336 1.397 . S
C336 H322 0.939 . S
C336 C335 1.397 . S
C336 C337 1.378 . S
C337 C336 1.378 . S
C337 C338 1.378 . S
C338 H323 0.940 . S
C338 C337 1.378 . S
C338 C339 1.396 . S
C339 H324 0.940 . S
C339 C334 1.391 . S
C339 C338 1.396 . S
C340 P320 1.803 . S
C340 C341 1.378 . S
C340 C345 1.400 . S
C341 H325 0.939 . S
C341 C340 1.378 . S
C341 C342 1.361 . S
C342 H326 0.942 . S
C342 C341 1.361 . S
C342 C343 1.369 . S
C343 C342 1.369 . S
C343 C344 1.404 . S
C344 H327 0.940 . S
C344 C343 1.404 . S
C344 C345 1.389 . S
C345 H328 0.939 . S
C345 C340 1.400 . S
C345 C344 1.389 . S
C346 P320 1.819 . S
C346 C347 1.391 . S
C346 C351 1.391 . S
C347 H329 0.941 . S
C347 C346 1.391 . S
C347 C348 1.396 . S
C348 H332 0.939 . S
C348 C347 1.396 . S
C348 C349 1.397 . S
C349 C348 1.397 . S
C349 C350 1.385 . S
C350 H333 0.940 . S
C350 C349 1.385 . S
C350 C351 1.388 . S
C351 H330 0.939 . S
C351 C346 1.391 . S
C351 C350 1.388 . S
P352 O363 1.490 . S
P352 C366 1.812 . S
P352 C372 1.803 . S
P352 C378 1.819 . S
H353 C367 0.941 . S
H354 C368 0.939 . S
H355 C370 0.940 . S
H356 C371 0.940 . S
H357 C373 0.939 . S
H358 C374 0.942 . S
H359 C376 0.940 . S
H360 C377 0.939 . S
H361 C379 0.941 . S
H362 C383 0.939 . S
O363 P352 1.490 . S
H364 C380 0.939 . S
H365 C382 0.940 . S
C366 P352 1.812 . S
C366 C367 1.389 . S
C366 C371 1.391 . S
C367 H353 0.941 . S
C367 C366 1.389 . S
C367 C368 1.397 . S
C368 H354 0.939 . S
C368 C367 1.397 . S
C368 C369 1.378 . S
C369 C368 1.378 . S
C369 C370 1.378 . S
C370 H355 0.940 . S
C370 C369 1.378 . S
C370 C371 1.396 . S
C371 H356 0.940 . S
C371 C366 1.391 . S
C371 C370 1.396 . S
C372 P352 1.803 . S
C372 C373 1.378 . S
C372 C377 1.400 . S
C373 H357 0.939 . S
C373 C372 1.378 . S
C373 C374 1.361 . S
C374 H358 0.942 . S
C374 C373 1.361 . S
C374 C375 1.369 . S
C375 C374 1.369 . S
C375 C376 1.404 . S
C376 H359 0.940 . S
C376 C375 1.404 . S
C376 C377 1.389 . S
C377 H360 0.939 . S
C377 C372 1.400 . S
C377 C376 1.389 . S
C378 P352 1.819 . S
C378 C379 1.391 . S
C378 C383 1.391 . S
C379 H361 0.941 . S
C379 C378 1.391 . S
C379 C380 1.396 . S
C380 H364 0.939 . S
C380 C379 1.396 . S
C380 C381 1.397 . S
C381 C380 1.397 . S
C381 C382 1.385 . S
C382 H365 0.940 . S
C382 C381 1.385 . S
C382 C383 1.388 . S
C383 H362 0.939 . S
C383 C378 1.391 . S
C383 C382 1.388 . S
P384 O395 1.490 . S
P384 C398 1.812 . S
P384 C404 1.803 . S
P384 C410 1.819 . S
H385 C399 0.941 . S
H386 C400 0.939 . S
H387 C402 0.940 . S
H388 C403 0.940 . S
H389 C405 0.939 . S
H390 C406 0.942 . S
H391 C408 0.940 . S
H392 C409 0.939 . S
H393 C411 0.941 . S
H394 C415 0.939 . S
O395 P384 1.490 . S
H396 C412 0.939 . S
H397 C414 0.940 . S
C398 P384 1.812 . S
C398 C399 1.389 . S
C398 C403 1.391 . S
C399 H385 0.941 . S
C399 C398 1.389 . S
C399 C400 1.397 . S
C400 H386 0.939 . S
C400 C399 1.397 . S
C400 C401 1.378 . S
C401 C400 1.378 . S
C401 C402 1.378 . S
C402 H387 0.940 . S
C402 C401 1.378 . S
C402 C403 1.396 . S
C403 H388 0.940 . S
C403 C398 1.391 . S
C403 C402 1.396 . S
C404 P384 1.803 . S
C404 C405 1.378 . S
C404 C409 1.400 . S
C405 H389 0.939 . S
C405 C404 1.378 . S
C405 C406 1.361 . S
C406 H390 0.942 . S
C406 C405 1.361 . S
C406 C407 1.369 . S
C407 C406 1.369 . S
C407 C408 1.404 . S
C408 H391 0.940 . S
C408 C407 1.404 . S
C408 C409 1.389 . S
C409 H392 0.939 . S
C409 C404 1.400 . S
C409 C408 1.389 . S
C410 P384 1.819 . S
C410 C411 1.391 . S
C410 C415 1.391 . S
C411 H393 0.941 . S
C411 C410 1.391 . S
C411 C412 1.396 . S
C412 H396 0.939 . S
C412 C411 1.396 . S
C412 C413 1.397 . S
C413 C412 1.397 . S
C413 C414 1.385 . S
C414 H397 0.940 . S
C414 C413 1.385 . S
C414 C415 1.388 . S
C415 H394 0.939 . S
C415 C410 1.391 . S
C415 C414 1.388 . S
P416 O427 1.490 . S
P416 C430 1.812 . S
P416 C436 1.803 . S
P416 C442 1.819 . S
H417 C431 0.941 . S
H418 C432 0.939 . S
H419 C434 0.940 . S
H420 C435 0.940 . S
H421 C437 0.939 . S
H422 C438 0.942 . S
H423 C440 0.940 . S
H424 C441 0.939 . S
H425 C443 0.941 . S
H426 C447 0.939 . S
O427 P416 1.490 . S
H428 C444 0.939 . S
H429 C446 0.940 . S
C430 P416 1.812 . S
C430 C431 1.389 . S
C430 C435 1.391 . S
C431 H417 0.941 . S
C431 C430 1.389 . S
C431 C432 1.397 . S
C432 H418 0.939 . S
C432 C431 1.397 . S
C432 C433 1.378 . S
C433 C432 1.378 . S
C433 C434 1.378 . S
C434 H419 0.940 . S
C434 C433 1.378 . S
C434 C435 1.396 . S
C435 H420 0.940 . S
C435 C430 1.391 . S
C435 C434 1.396 . S
C436 P416 1.803 . S
C436 C437 1.378 . S
C436 C441 1.400 . S
C437 H421 0.939 . S
C437 C436 1.378 . S
C437 C438 1.361 . S
C438 H422 0.942 . S
C438 C437 1.361 . S
C438 C439 1.369 . S
C439 C438 1.369 . S
C439 C440 1.404 . S
C440 H423 0.940 . S
C440 C439 1.404 . S
C440 C441 1.389 . S
C441 H424 0.939 . S
C441 C436 1.400 . S
C441 C440 1.389 . S
C442 P416 1.819 . S
C442 C443 1.391 . S
C442 C447 1.391 . S
C443 H425 0.941 . S
C443 C442 1.391 . S
C443 C444 1.396 . S
C444 H428 0.939 . S
C444 C443 1.396 . S
C444 C445 1.397 . S
C445 C444 1.397 . S
C445 C446 1.385 . S
C446 H429 0.940 . S
C446 C445 1.385 . S
C446 C447 1.388 . S
C447 H426 0.939 . S
C447 C442 1.391 . S
C447 C446 1.388 . S
P448 O459 1.490 . S
P448 C462 1.812 . S
P448 C468 1.803 . S
P448 C474 1.819 . S
H449 C463 0.941 . S
H450 C464 0.939 . S
H451 C466 0.940 . S
H452 C467 0.940 . S
H453 C469 0.939 . S
H454 C470 0.942 . S
H455 C472 0.940 . S
H456 C473 0.939 . S
H457 C475 0.941 . S
H458 C479 0.939 . S
O459 P448 1.490 . S
H460 C476 0.939 . S
H461 C478 0.940 . S
C462 P448 1.812 . S
C462 C463 1.389 . S
C462 C467 1.391 . S
C463 H449 0.941 . S
C463 C462 1.389 . S
C463 C464 1.397 . S
C464 H450 0.939 . S
C464 C463 1.397 . S
C464 C465 1.378 . S
C465 C464 1.378 . S
C465 C466 1.378 . S
C466 H451 0.940 . S
C466 C465 1.378 . S
C466 C467 1.396 . S
C467 H452 0.940 . S
C467 C462 1.391 . S
C467 C466 1.396 . S
C468 P448 1.803 . S
C468 C469 1.378 . S
C468 C473 1.400 . S
C469 H453 0.939 . S
C469 C468 1.378 . S
C469 C470 1.361 . S
C470 H454 0.942 . S
C470 C469 1.361 . S
C470 C471 1.369 . S
C471 C470 1.369 . S
C471 C472 1.404 . S
C472 H455 0.940 . S
C472 C471 1.404 . S
C472 C473 1.389 . S
C473 H456 0.939 . S
C473 C468 1.400 . S
C473 C472 1.389 . S
C474 P448 1.819 . S
C474 C475 1.391 . S
C474 C479 1.391 . S
C475 H457 0.941 . S
C475 C474 1.391 . S
C475 C476 1.396 . S
C476 H460 0.939 . S
C476 C475 1.396 . S
C476 C477 1.397 . S
C477 C476 1.397 . S
C477 C478 1.385 . S
C478 H461 0.940 . S
C478 C477 1.385 . S
C478 C479 1.388 . S
C479 H458 0.939 . S
C479 C474 1.391 . S
C479 C478 1.388 . S
P480 O491 1.490 . S
P480 C494 1.812 . S
P480 C500 1.803 . S
P480 C506 1.819 . S
H481 C495 0.941 . S
H482 C496 0.939 . S
H483 C498 0.940 . S
H484 C499 0.940 . S
H485 C501 0.939 . S
H486 C502 0.942 . S
H487 C504 0.940 . S
H488 C505 0.939 . S
H489 C507 0.941 . S
H490 C511 0.939 . S
O491 P480 1.490 . S
H492 C508 0.939 . S
H493 C510 0.940 . S
C494 P480 1.812 . S
C494 C495 1.389 . S
C494 C499 1.391 . S
C495 H481 0.941 . S
C495 C494 1.389 . S
C495 C496 1.397 . S
C496 H482 0.939 . S
C496 C495 1.397 . S
C496 C497 1.378 . S
C497 C496 1.378 . S
C497 C498 1.378 . S
C498 H483 0.940 . S
C498 C497 1.378 . S
C498 C499 1.396 . S
C499 H484 0.940 . S
C499 C494 1.391 . S
C499 C498 1.396 . S
C500 P480 1.803 . S
C500 C501 1.378 . S
C500 C505 1.400 . S
C501 H485 0.939 . S
C501 C500 1.378 . S
C501 C502 1.361 . S
C502 H486 0.942 . S
C502 C501 1.361 . S
C502 C503 1.369 . S
C503 C502 1.369 . S
C503 C504 1.404 . S
C504 H487 0.940 . S
C504 C503 1.404 . S
C504 C505 1.389 . S
C505 H488 0.939 . S
C505 C500 1.400 . S
C505 C504 1.389 . S
C506 P480 1.819 . S
C506 C507 1.391 . S
C506 C511 1.391 . S
C507 H489 0.941 . S
C507 C506 1.391 . S
C507 C508 1.396 . S
C508 H492 0.939 . S
C508 C507 1.396 . S
C508 C509 1.397 . S
C509 C508 1.397 . S
C509 C510 1.385 . S
C510 H493 0.940 . S
C510 C509 1.385 . S
C510 C511 1.388 . S
C511 H490 0.939 . S
C511 C506 1.391 . S
C511 C510 1.388 . S
P512 O523 1.490 . S
P512 C526 1.812 . S
P512 C532 1.803 . S
P512 C538 1.819 . S
H513 C527 0.941 . S
H514 C528 0.939 . S
H515 C530 0.940 . S
H516 C531 0.940 . S
H517 C533 0.939 . S
H518 C534 0.942 . S
H519 C536 0.940 . S
H520 C537 0.939 . S
H521 C539 0.941 . S
H522 C543 0.939 . S
O523 P512 1.490 . S
H524 C540 0.939 . S
H525 C542 0.940 . S
C526 P512 1.812 . S
C526 C527 1.389 . S
C526 C531 1.391 . S
C527 H513 0.941 . S
C527 C526 1.389 . S
C527 C528 1.397 . S
C528 H514 0.939 . S
C528 C527 1.397 . S
C528 C529 1.378 . S
C529 C528 1.378 . S
C529 C530 1.378 . S
C530 H515 0.940 . S
C530 C529 1.378 . S
C530 C531 1.396 . S
C531 H516 0.940 . S
C531 C526 1.391 . S
C531 C530 1.396 . S
C532 P512 1.803 . S
C532 C533 1.378 . S
C532 C537 1.400 . S
C533 H517 0.939 . S
C533 C532 1.378 . S
C533 C534 1.361 . S
C534 H518 0.942 . S
C534 C533 1.361 . S
C534 C535 1.369 . S
C535 C534 1.369 . S
C535 C536 1.404 . S
C536 H519 0.940 . S
C536 C535 1.404 . S
C536 C537 1.389 . S
C537 H520 0.939 . S
C537 C532 1.400 . S
C537 C536 1.389 . S
C538 P512 1.819 . S
C538 C539 1.391 . S
C538 C543 1.391 . S
C539 H521 0.941 . S
C539 C538 1.391 . S
C539 C540 1.396 . S
C540 H524 0.939 . S
C540 C539 1.396 . S
C540 C541 1.397 . S
C541 C540 1.397 . S
C541 C542 1.385 . S
C542 H525 0.940 . S
C542 C541 1.385 . S
C542 C543 1.388 . S
C543 H522 0.939 . S
C543 C538 1.391 . S
C543 C542 1.388 . S
P544 O555 1.490 . S
P544 C558 1.812 . S
P544 C564 1.803 . S
P544 C570 1.819 . S
H545 C559 0.941 . S
H546 C560 0.939 . S
H547 C562 0.940 . S
H548 C563 0.940 . S
H549 C565 0.939 . S
H550 C566 0.942 . S
H551 C568 0.940 . S
H552 C569 0.939 . S
H553 C571 0.941 . S
H554 C575 0.939 . S
O555 P544 1.490 . S
H556 C572 0.939 . S
H557 C574 0.940 . S
C558 P544 1.812 . S
C558 C559 1.389 . S
C558 C563 1.391 . S
C559 H545 0.941 . S
C559 C558 1.389 . S
C559 C560 1.397 . S
C560 H546 0.939 . S
C560 C559 1.397 . S
C560 C561 1.378 . S
C561 C560 1.378 . S
C561 C562 1.378 . S
C562 H547 0.940 . S
C562 C561 1.378 . S
C562 C563 1.396 . S
C563 H548 0.940 . S
C563 C558 1.391 . S
C563 C562 1.396 . S
C564 P544 1.803 . S
C564 C565 1.378 . S
C564 C569 1.400 . S
C565 H549 0.939 . S
C565 C564 1.378 . S
C565 C566 1.361 . S
C566 H550 0.942 . S
C566 C565 1.361 . S
C566 C567 1.369 . S
C567 C566 1.369 . S
C567 C568 1.404 . S
C568 H551 0.940 . S
C568 C567 1.404 . S
C568 C569 1.389 . S
C569 H552 0.939 . S
C569 C564 1.400 . S
C569 C568 1.389 . S
C570 P544 1.819 . S
C570 C571 1.391 . S
C570 C575 1.391 . S
C571 H553 0.941 . S
C571 C570 1.391 . S
C571 C572 1.396 . S
C572 H556 0.939 . S
C572 C571 1.396 . S
C572 C573 1.397 . S
C573 C572 1.397 . S
C573 C574 1.385 . S
C574 H557 0.940 . S
C574 C573 1.385 . S
C574 C575 1.388 . S
C575 H554 0.939 . S
C575 C570 1.391 . S
C575 C574 1.388 . S
Tb576 C586 2.825 . S
Tb576 O587 2.347 1_565 S
Tb576 O590 2.366 1_565 S
Tb576 O595 2.418 . S
Tb576 O596 2.407 . S
Tb576 O599 2.479 . S
Tb576 O600 2.471 1_565 S
Eu577 O588 2.418 . S
Eu577 O589 2.384 . S
Eu577 O592 2.479 . S
Eu577 O593 2.471 1_545 S
Eu577 O594 2.347 1_545 S
Eu577 O597 2.366 1_545 S
Eu577 C607 2.825 . S
C578 O594 1.259 . S
C578 O595 1.265 1_554 S
C579 O596 1.228 1_554 S
C579 O597 1.265 . S
C580 C582 1.380 . S
C580 C583 1.374 1_565 S
C580 C586 1.507 . S
C581 C582 1.384 . S
C581 C585 1.387 1_565 S
C581 H608 0.930 . S
C582 C580 1.380 . S
C582 C581 1.384 . S
C582 H609 0.931 . S
C583 C580 1.374 1_545 S
C583 C584 1.390 . S
C583 H610 0.930 . S
C584 C583 1.390 . S
C584 C585 1.391 . S
C584 H611 0.930 . S
C585 C581 1.387 1_545 S
C585 C584 1.391 . S
C586 Tb576 2.825 . S
C586 C580 1.507 . S
C586 O599 1.238 . S
C586 O600 1.247 1_565 S
O587 Tb576 2.347 1_545 S
O587 C591 1.262 1_556 S
O588 Eu577 2.418 . S
O588 C591 1.255 . S
O589 Eu577 2.384 . S
O589 C598 1.255 1_554 S
O590 Tb576 2.366 1_545 S
O590 C598 1.265 . S
C591 O587 1.262 1_554 S
C591 O588 1.255 . S
O592 Eu577 2.479 . S
O592 C607 1.238 . S
O593 Eu577 2.471 1_565 S
O593 C607 1.247 1_565 S
O594 Eu577 2.347 1_565 S
O594 C578 1.259 . S
O595 Tb576 2.418 . S
O595 C578 1.265 1_556 S
O596 Tb576 2.407 . S
O596 C579 1.228 1_556 S
O597 Eu577 2.366 1_565 S
O597 C579 1.265 . S
C598 O589 1.255 1_556 S
C598 O590 1.265 . S
O599 Tb576 2.479 . S
O599 C586 1.238 . S
O600 Tb576 2.471 1_545 S
O600 C586 1.247 1_545 S
C601 C604 1.380 . S
C601 C605 1.374 1_545 S
C601 C607 1.507 . S
C602 C603 1.387 1_565 S
C602 C606 1.391 . S
C603 C602 1.387 1_545 S
C603 C604 1.384 . S
C603 H612 0.930 . S
C604 C601 1.380 . S
C604 C603 1.384 . S
C604 H613 0.931 . S
C605 C601 1.374 1_565 S
C605 C606 1.390 . S
C605 H614 0.930 . S
C606 C602 1.391 . S
C606 C605 1.390 . S
C606 H615 0.930 . S
C607 Eu577 2.825 . S
C607 O592 1.238 . S
C607 O593 1.247 1_545 S
C607 C601 1.507 . S
H608 C581 0.930 . S
H609 C582 0.931 . S
H610 C583 0.930 . S
H611 C584 0.930 . S
H612 C603 0.930 . S
H613 C604 0.931 . S
H614 C605 0.930 . S
H615 C606 0.930 . S
Tb616 C626 2.825 . S
Tb616 O627 2.347 1_455 S
Tb616 O630 2.366 1_455 S
Tb616 O635 2.418 . S
Tb616 O636 2.384 1_556 S
Tb616 O639 2.479 . S
Tb616 O640 2.471 1_455 S
Eu617 O628 2.418 . S
Eu617 O629 2.384 . S
Eu617 O632 2.479 . S
Eu617 O633 2.471 1_655 S
Eu617 O634 2.347 1_655 S
Eu617 O637 2.366 1_655 S
Eu617 C647 2.825 . S
C618 O634 1.259 . S
C618 O635 1.265 1_554 S
C619 O636 1.255 . S
C619 O637 1.265 . S
C620 C622 1.382 . S
C620 C623 1.369 1_455 S
C620 C626 1.509 . S
C621 C622 1.384 . S
C621 C625 1.387 1_455 S
C621 H648 0.930 . S
C622 C620 1.382 . S
C622 C621 1.384 . S
C622 H649 0.931 . S
C623 C620 1.369 1_655 S
C623 C624 1.390 . S
C623 H650 0.930 . S
C624 C623 1.390 . S
C624 C625 1.391 . S
C624 H651 0.930 . S
C625 C621 1.387 1_655 S
C625 C624 1.391 . S
C626 Tb616 2.825 . S
C626 C620 1.509 . S
C626 O639 1.238 . S
C626 O640 1.247 1_455 S
O627 Tb616 2.347 1_655 S
O627 C631 1.259 . S
O628 Eu617 2.418 . S
O628 C631 1.265 1_554 S
O629 Eu617 2.384 . S
O629 C638 1.255 1_554 S
O630 Tb616 2.366 1_655 S
O630 C638 1.265 . S
C631 O627 1.259 . S
C631 O628 1.265 1_556 S
O632 Eu617 2.479 . S
O632 C647 1.238 . S
O633 Eu617 2.471 1_455 S
O633 C647 1.247 1_455 S
O634 Eu617 2.347 1_455 S
O634 C618 1.259 . S
O635 Tb616 2.418 . S
O635 C618 1.265 1_556 S
O636 Tb616 2.384 1_554 S
O636 C619 1.255 . S
O637 Eu617 2.366 1_455 S
O637 C619 1.265 . S
C638 O629 1.255 1_556 S
C638 O630 1.265 . S
O639 Tb616 2.479 . S
O639 C626 1.238 . S
O640 Tb616 2.471 1_655 S
O640 C626 1.247 1_655 S
C641 C644 1.380 1_455 S
C641 C645 1.374 . S
C641 C647 1.507 1_455 S
C642 C643 1.387 1_455 S
C642 C646 1.391 . S
C643 C642 1.387 1_655 S
C643 C644 1.384 . S
C643 H652 0.930 . S
C644 C641 1.380 1_655 S
C644 C643 1.384 . S
C644 H653 0.931 . S
C645 C641 1.374 . S
C645 C646 1.390 . S
C645 H654 0.930 . S
C646 C642 1.391 . S
C646 C645 1.390 . S
C646 H655 0.930 . S
C647 Eu617 2.825 . S
C647 O632 1.238 . S
C647 O633 1.247 1_655 S
C647 C641 1.507 1_655 S
H648 C621 0.930 . S
H649 C622 0.931 . S
H650 C623 0.930 . S
H651 C624 0.930 . S
H652 C643 0.930 . S
H653 C644 0.931 . S
H654 C645 0.930 . S
H655 C646 0.930 . S
Tb656 C666 2.825 . S
Tb656 O667 2.347 . S
Tb656 O670 2.366 . S
Tb656 O675 2.418 . S
Tb656 O676 2.384 . S
Tb656 O679 2.479 . S
Tb656 O680 2.471 . S
Eu657 O668 2.418 . S
Eu657 O669 2.384 1_556 S
Eu657 O672 2.479 . S
Eu657 O673 2.471 . S
Eu657 O674 2.347 . S
Eu657 O677 2.366 . S
Eu657 C687 2.825 . S
C658 O674 1.259 . S
C658 O675 1.265 1_556 S
C659 O676 1.255 1_556 S
C659 O677 1.265 . S
C660 C662 1.380 . S
C660 C663 1.374 . S
C660 C666 1.507 . S
C661 C662 1.384 . S
C661 C665 1.387 . S
C661 H688 0.930 . S
C662 C660 1.380 . S
C662 C661 1.384 . S
C662 H689 0.931 . S
C663 C660 1.374 . S
C663 C664 1.390 . S
C663 H690 0.930 . S
C664 C663 1.390 . S
C664 C665 1.391 . S
C664 H691 0.930 . S
C665 C661 1.387 . S
C665 C664 1.391 . S
C666 Tb656 2.825 . S
C666 C660 1.507 . S
C666 O679 1.238 . S
C666 O680 1.247 . S
O667 Tb656 2.347 . S
O667 C671 1.259 . S
O668 Eu657 2.418 . S
O668 C671 1.265 1_556 S
O669 Eu657 2.384 1_554 S
O669 C678 1.255 . S
O670 Tb656 2.366 . S
O670 C678 1.265 . S
C671 O667 1.259 . S
C671 O668 1.265 1_554 S
O672 Eu657 2.479 . S
O672 C687 1.238 . S
O673 Eu657 2.471 . S
O673 C687 1.247 . S
O674 Eu657 2.347 . S
O674 C658 1.259 . S
O675 Tb656 2.418 . S
O675 C658 1.265 1_554 S
O676 Tb656 2.384 . S
O676 C659 1.255 1_554 S
O677 Eu657 2.366 . S
O677 C659 1.265 . S
C678 O669 1.255 . S
C678 O670 1.265 . S
O679 Tb656 2.479 . S
O679 C666 1.238 . S
O680 Tb656 2.471 . S
O680 C666 1.247 . S
C681 C684 1.380 . S
C681 C685 1.374 . S
C681 C687 1.507 . S
C682 C683 1.387 . S
C682 C686 1.391 . S
C683 C682 1.387 . S
C683 C684 1.384 . S
C683 H692 0.930 . S
C684 C681 1.380 . S
C684 C683 1.384 . S
C684 H693 0.931 . S
C685 C681 1.374 . S
C685 C686 1.390 . S
C685 H694 0.930 . S
C686 C682 1.391 . S
C686 C685 1.390 . S
C686 H695 0.930 . S
C687 Eu657 2.825 . S
C687 O672 1.238 . S
C687 O673 1.247 . S
C687 C681 1.507 . S
H688 C661 0.930 . S
H689 C662 0.931 . S
H690 C663 0.930 . S
H691 C664 0.930 . S
H692 C683 0.930 . S
H693 C684 0.931 . S
H694 C685 0.930 . S
H695 C686 0.930 . S
Tb696 C706 2.825 . S
Tb696 O707 2.347 . S
Tb696 O710 2.366 . S
Tb696 O715 2.418 . S
Tb696 O716 2.384 . S
Tb696 O719 2.479 . S
Tb696 O720 2.471 . S
Eu697 O708 2.418 . S
Eu697 O709 2.384 . S
Eu697 O712 2.479 . S
Eu697 O713 2.471 . S
Eu697 O714 2.347 . S
Eu697 O717 2.366 . S
Eu697 C727 2.825 . S
C698 O714 1.259 . S
C698 O715 1.265 . S
C699 O716 1.255 . S
C699 O717 1.265 . S
C700 C702 1.380 . S
C700 C703 1.374 . S
C700 C706 1.507 . S
C701 C702 1.384 . S
C701 C705 1.387 . S
C701 H728 0.930 . S
C702 C700 1.380 . S
C702 C701 1.384 . S
C702 H729 0.931 . S
C703 C700 1.374 . S
C703 C704 1.390 . S
C703 H730 0.930 . S
C704 C703 1.390 . S
C704 C705 1.391 . S
C704 H731 0.930 . S
C705 C701 1.387 . S
C705 C704 1.391 . S
C706 Tb696 2.825 . S
C706 C700 1.507 . S
C706 O719 1.238 . S
C706 O720 1.247 . S
O707 Tb696 2.347 . S
O707 C711 1.259 . S
O708 Eu697 2.418 . S
O708 C711 1.265 . S
O709 Eu697 2.384 . S
O709 C718 1.255 . S
O710 Tb696 2.366 . S
O710 C718 1.265 . S
C711 O707 1.259 . S
C711 O708 1.265 . S
O712 Eu697 2.479 . S
O712 C727 1.238 . S
O713 Eu697 2.471 . S
O713 C727 1.247 . S
O714 Eu697 2.347 . S
O714 C698 1.259 . S
O715 Tb696 2.418 . S
O715 C698 1.265 . S
O716 Tb696 2.384 . S
O716 C699 1.255 . S
O717 Eu697 2.366 . S
O717 C699 1.265 . S
C718 O709 1.255 . S
C718 O710 1.265 . S
O719 Tb696 2.479 . S
O719 C706 1.238 . S
O720 Tb696 2.471 . S
O720 C706 1.247 . S
C721 C724 1.380 . S
C721 C725 1.374 . S
C721 C727 1.507 . S
C722 C723 1.387 . S
C722 C726 1.391 . S
C723 C722 1.387 . S
C723 C724 1.384 . S
C723 H732 0.930 . S
C724 C721 1.380 . S
C724 C723 1.384 . S
C724 H733 0.931 . S
C725 C721 1.374 . S
C725 C726 1.390 . S
C725 H734 0.930 . S
C726 C722 1.391 . S
C726 C725 1.390 . S
C726 H735 0.930 . S
C727 Eu697 2.825 . S
C727 O712 1.238 . S
C727 O713 1.247 . S
C727 C721 1.507 . S
H728 C701 0.930 . S
H729 C702 0.931 . S
H730 C703 0.930 . S
H731 C704 0.930 . S
H732 C723 0.930 . S
H733 C724 0.931 . S
H734 C725 0.930 . S
H735 C726 0.930 . S
Tb736 C746 2.825 . S
Tb736 O747 2.347 . S
Tb736 O750 2.366 . S
Tb736 O755 2.418 . S
Tb736 O756 2.384 . S
Tb736 O759 2.479 . S
Tb736 O760 2.471 . S
Eu737 O748 2.418 . S
Eu737 O749 2.384 . S
Eu737 O752 2.479 . S
Eu737 O753 2.471 . S
Eu737 O754 2.347 . S
Eu737 O757 2.366 . S
Eu737 C767 2.825 . S
C738 O754 1.259 . S
C738 O755 1.265 . S
C739 O756 1.255 . S
C739 O757 1.265 . S
C740 C742 1.380 . S
C740 C743 1.374 . S
C740 C746 1.507 . S
C741 C742 1.384 . S
C741 C745 1.387 . S
C741 H768 0.930 . S
C742 C740 1.380 . S
C742 C741 1.384 . S
C742 H769 0.931 . S
C743 C740 1.374 . S
C743 C744 1.390 . S
C743 H770 0.930 . S
C744 C743 1.390 . S
C744 C745 1.391 . S
C744 H771 0.930 . S
C745 C741 1.387 . S
C745 C744 1.391 . S
C746 Tb736 2.825 . S
C746 C740 1.507 . S
C746 O759 1.238 . S
C746 O760 1.247 . S
O747 Tb736 2.347 . S
O747 C751 1.259 . S
O748 Eu737 2.418 . S
O748 C751 1.265 . S
O749 Eu737 2.384 . S
O749 C758 1.255 . S
O750 Tb736 2.366 . S
O750 C758 1.265 . S
C751 O747 1.259 . S
C751 O748 1.265 . S
O752 Eu737 2.479 . S
O752 C767 1.238 . S
O753 Eu737 2.471 . S
O753 C767 1.247 . S
O754 Eu737 2.347 . S
O754 C738 1.259 . S
O755 Tb736 2.418 . S
O755 C738 1.265 . S
O756 Tb736 2.384 . S
O756 C739 1.255 . S
O757 Eu737 2.366 . S
O757 C739 1.265 . S
C758 O749 1.255 . S
C758 O750 1.265 . S
O759 Tb736 2.479 . S
O759 C746 1.238 . S
O760 Tb736 2.471 . S
O760 C746 1.247 . S
C761 C764 1.380 . S
C761 C765 1.374 . S
C761 C767 1.507 . S
C762 C763 1.387 . S
C762 C766 1.391 . S
C763 C762 1.387 . S
C763 C764 1.384 . S
C763 H772 0.930 . S
C764 C761 1.380 . S
C764 C763 1.384 . S
C764 H773 0.931 . S
C765 C761 1.374 . S
C765 C766 1.390 . S
C765 H774 0.930 . S
C766 C762 1.391 . S
C766 C765 1.390 . S
C766 H775 0.930 . S
C767 Eu737 2.825 . S
C767 O752 1.238 . S
C767 O753 1.247 . S
C767 C761 1.507 . S
H768 C741 0.930 . S
H769 C742 0.931 . S
H770 C743 0.930 . S
H771 C744 0.930 . S
H772 C763 0.930 . S
H773 C764 0.931 . S
H774 C765 0.930 . S
H775 C766 0.930 . S
Tb776 C786 2.825 . S
Tb776 O787 2.347 . S
Tb776 O790 2.366 . S
Tb776 O795 2.418 . S
Tb776 O796 2.384 . S
Tb776 O799 2.479 . S
Tb776 O800 2.471 . S
Eu777 O788 2.418 . S
Eu777 O789 2.384 . S
Eu777 O792 2.479 . S
Eu777 O793 2.471 . S
Eu777 O794 2.347 . S
Eu777 O797 2.366 . S
Eu777 C807 2.825 . S
C778 O794 1.259 . S
C778 O795 1.265 . S
C779 O796 1.255 . S
C779 O797 1.265 . S
C780 C782 1.380 . S
C780 C783 1.374 . S
C780 C786 1.507 . S
C781 C782 1.384 . S
C781 C785 1.387 . S
C781 H808 0.930 . S
C782 C780 1.380 . S
C782 C781 1.384 . S
C782 H809 0.931 . S
C783 C780 1.374 . S
C783 C784 1.390 . S
C783 H810 0.930 . S
C784 C783 1.390 . S
C784 C785 1.391 . S
C784 H811 0.930 . S
C785 C781 1.387 . S
C785 C784 1.391 . S
C786 Tb776 2.825 . S
C786 C780 1.507 . S
C786 O799 1.238 . S
C786 O800 1.247 . S
O787 Tb776 2.347 . S
O787 C791 1.259 . S
O788 Eu777 2.418 . S
O788 C791 1.265 . S
O789 Eu777 2.384 . S
O789 C798 1.255 . S
O790 Tb776 2.366 . S
O790 C798 1.265 . S
C791 O787 1.259 . S
C791 O788 1.265 . S
O792 Eu777 2.479 . S
O792 C807 1.238 . S
O793 Eu777 2.471 . S
O793 C807 1.247 . S
O794 Eu777 2.347 . S
O794 C778 1.259 . S
O795 Tb776 2.418 . S
O795 C778 1.265 . S
O796 Tb776 2.384 . S
O796 C779 1.255 . S
O797 Eu777 2.366 . S
O797 C779 1.265 . S
C798 O789 1.255 . S
C798 O790 1.265 . S
O799 Tb776 2.479 . S
O799 C786 1.238 . S
O800 Tb776 2.471 . S
O800 C786 1.247 . S
C801 C804 1.380 . S
C801 C805 1.374 . S
C801 C807 1.507 . S
C802 C803 1.387 . S
C802 C806 1.391 . S
C803 C802 1.387 . S
C803 C804 1.384 . S
C803 H812 0.930 . S
C804 C801 1.380 . S
C804 C803 1.384 . S
C804 H813 0.931 . S
C805 C801 1.374 . S
C805 C806 1.390 . S
C805 H814 0.930 . S
C806 C802 1.391 . S
C806 C805 1.390 . S
C806 H815 0.930 . S
C807 Eu777 2.825 . S
C807 O792 1.238 . S
C807 O793 1.247 . S
C807 C801 1.507 . S
H808 C781 0.930 . S
H809 C782 0.931 . S
H810 C783 0.930 . S
H811 C784 0.930 . S
H812 C803 0.930 . S
H813 C804 0.931 . S
H814 C805 0.930 . S
H815 C806 0.930 . S
Tb816 C826 2.825 . S
Tb816 O827 2.347 . S
Tb816 O830 2.366 . S
Tb816 O835 2.418 . S
Tb816 O836 2.384 . S
Tb816 O839 2.479 . S
Tb816 O840 2.471 . S
Eu817 O828 2.418 . S
Eu817 O829 2.384 . S
Eu817 O832 2.479 . S
Eu817 O833 2.471 . S
Eu817 O834 2.347 . S
Eu817 O837 2.366 . S
Eu817 C847 2.825 . S
C818 O834 1.259 . S
C818 O835 1.265 . S
C819 O836 1.255 . S
C819 O837 1.265 . S
C820 C822 1.380 . S
C820 C823 1.374 . S
C820 C826 1.507 . S
C821 C822 1.384 . S
C821 C825 1.387 . S
C821 H848 0.930 . S
C822 C820 1.380 . S
C822 C821 1.384 . S
C822 H849 0.931 . S
C823 C820 1.374 . S
C823 C824 1.390 . S
C823 H850 0.930 . S
C824 C823 1.390 . S
C824 C825 1.391 . S
C824 H851 0.930 . S
C825 C821 1.387 . S
C825 C824 1.391 . S
C826 Tb816 2.825 . S
C826 C820 1.507 . S
C826 O839 1.238 . S
C826 O840 1.247 . S
O827 Tb816 2.347 . S
O827 C831 1.259 . S
O828 Eu817 2.418 . S
O828 C831 1.265 . S
O829 Eu817 2.384 . S
O829 C838 1.255 . S
O830 Tb816 2.366 . S
O830 C838 1.265 . S
C831 O827 1.259 . S
C831 O828 1.265 . S
O832 Eu817 2.479 . S
O832 C847 1.238 . S
O833 Eu817 2.471 . S
O833 C847 1.247 . S
O834 Eu817 2.347 . S
O834 C818 1.259 . S
O835 Tb816 2.418 . S
O835 C818 1.265 . S
O836 Tb816 2.384 . S
O836 C819 1.255 . S
O837 Eu817 2.366 . S
O837 C819 1.265 . S
C838 O829 1.255 . S
C838 O830 1.265 . S
O839 Tb816 2.479 . S
O839 C826 1.238 . S
O840 Tb816 2.471 . S
O840 C826 1.247 . S
C841 C844 1.380 . S
C841 C845 1.374 . S
C841 C847 1.507 . S
C842 C843 1.387 . S
C842 C846 1.391 . S
C843 C842 1.387 . S
C843 C844 1.384 . S
C843 H852 0.930 . S
C844 C841 1.380 . S
C844 C843 1.384 . S
C844 H853 0.931 . S
C845 C841 1.374 . S
C845 C846 1.390 . S
C845 H854 0.930 . S
C846 C842 1.391 . S
C846 C845 1.390 . S
C846 H855 0.930 . S
C847 Eu817 2.825 . S
C847 O832 1.238 . S
C847 O833 1.247 . S
C847 C841 1.507 . S
H848 C821 0.930 . S
H849 C822 0.931 . S
H850 C823 0.930 . S
H851 C824 0.930 . S
H852 C843 0.930 . S
H853 C844 0.931 . S
H854 C845 0.930 . S
H855 C846 0.930 . S
Tb856 C866 2.825 . S
Tb856 O867 2.347 . S
Tb856 O870 2.366 . S
Tb856 O875 2.418 . S
Tb856 O876 2.384 . S
Tb856 O879 2.479 . S
Tb856 O880 2.471 . S
Eu857 O868 2.418 . S
Eu857 O869 2.384 . S
Eu857 O872 2.479 . S
Eu857 O873 2.471 . S
Eu857 O874 2.347 . S
Eu857 O877 2.366 . S
Eu857 C887 2.825 . S
C858 O874 1.259 . S
C858 O875 1.265 . S
C859 O876 1.255 . S
C859 O877 1.265 . S
C860 C862 1.380 . S
C860 C863 1.374 . S
C860 C866 1.507 . S
C861 C862 1.384 . S
C861 C865 1.387 . S
C861 H888 0.930 . S
C862 C860 1.380 . S
C862 C861 1.384 . S
C862 H889 0.931 . S
C863 C860 1.374 . S
C863 C864 1.390 . S
C863 H890 0.930 . S
C864 C863 1.390 . S
C864 C865 1.391 . S
C864 H891 0.930 . S
C865 C861 1.387 . S
C865 C864 1.391 . S
C866 Tb856 2.825 . S
C866 C860 1.507 . S
C866 O879 1.238 . S
C866 O880 1.247 . S
O867 Tb856 2.347 . S
O867 C871 1.259 . S
O868 Eu857 2.418 . S
O868 C871 1.265 . S
O869 Eu857 2.384 . S
O869 C878 1.255 . S
O870 Tb856 2.366 . S
O870 C878 1.265 . S
C871 O867 1.259 . S
C871 O868 1.265 . S
O872 Eu857 2.479 . S
O872 C887 1.238 . S
O873 Eu857 2.471 . S
O873 C887 1.247 . S
O874 Eu857 2.347 . S
O874 C858 1.259 . S
O875 Tb856 2.418 . S
O875 C858 1.265 . S
O876 Tb856 2.384 . S
O876 C859 1.255 . S
O877 Eu857 2.366 . S
O877 C859 1.265 . S
C878 O869 1.255 . S
C878 O870 1.265 . S
O879 Tb856 2.479 . S
O879 C866 1.238 . S
O880 Tb856 2.471 . S
O880 C866 1.247 . S
C881 C884 1.380 . S
C881 C885 1.374 . S
C881 C887 1.507 . S
C882 C883 1.387 . S
C882 C886 1.391 . S
C883 C882 1.387 . S
C883 C884 1.384 . S
C883 H892 0.930 . S
C884 C881 1.380 . S
C884 C883 1.384 . S
C884 H893 0.931 . S
C885 C881 1.374 . S
C885 C886 1.390 . S
C885 H894 0.930 . S
C886 C882 1.391 . S
C886 C885 1.390 . S
C886 H895 0.930 . S
C887 Eu857 2.825 . S
C887 O872 1.238 . S
C887 O873 1.247 . S
C887 C881 1.507 . S
H888 C861 0.930 . S
H889 C862 0.931 . S
H890 C863 0.930 . S
H891 C864 0.930 . S
H892 C883 0.930 . S
H893 C884 0.931 . S
H894 C885 0.930 . S
H895 C886 0.930 . S
Tb896 C906 2.825 . S
Tb896 O907 2.347 . S
Tb896 O910 2.366 . S
Tb896 O915 2.418 . S
Tb896 O916 2.384 . S
Tb896 O919 2.479 . S
Tb896 O920 2.471 . S
Eu897 O908 2.418 . S
Eu897 O909 2.384 . S
Eu897 O912 2.479 . S
Eu897 O913 2.471 . S
Eu897 O914 2.347 . S
Eu897 O917 2.366 . S
Eu897 C927 2.825 . S
C898 O914 1.259 . S
C898 O915 1.265 . S
C899 O916 1.255 . S
C899 O917 1.265 . S
C900 C902 1.380 . S
C900 C903 1.374 . S
C900 C906 1.507 . S
C901 C902 1.384 . S
C901 C905 1.387 . S
C901 H928 0.930 . S
C902 C900 1.380 . S
C902 C901 1.384 . S
C902 H929 0.931 . S
C903 C900 1.374 . S
C903 C904 1.390 . S
C903 H930 0.930 . S
C904 C903 1.390 . S
C904 C905 1.391 . S
C904 H931 0.930 . S
C905 C901 1.387 . S
C905 C904 1.391 . S
C906 Tb896 2.825 . S
C906 C900 1.507 . S
C906 O919 1.238 . S
C906 O920 1.247 . S
O907 Tb896 2.347 . S
O907 C911 1.259 . S
O908 Eu897 2.418 . S
O908 C911 1.265 . S
O909 Eu897 2.384 . S
O909 C918 1.255 . S
O910 Tb896 2.366 . S
O910 C918 1.265 . S
C911 O907 1.259 . S
C911 O908 1.265 . S
O912 Eu897 2.479 . S
O912 C927 1.238 . S
O913 Eu897 2.471 . S
O913 C927 1.247 . S
O914 Eu897 2.347 . S
O914 C898 1.259 . S
O915 Tb896 2.418 . S
O915 C898 1.265 . S
O916 Tb896 2.384 . S
O916 C899 1.255 . S
O917 Eu897 2.366 . S
O917 C899 1.265 . S
C918 O909 1.255 . S
C918 O910 1.265 . S
O919 Tb896 2.479 . S
O919 C906 1.238 . S
O920 Tb896 2.471 . S
O920 C906 1.247 . S
C921 C924 1.380 . S
C921 C925 1.374 . S
C921 C927 1.507 . S
C922 C923 1.387 . S
C922 C926 1.391 . S
C923 C922 1.387 . S
C923 C924 1.384 . S
C923 H932 0.930 . S
C924 C921 1.380 . S
C924 C923 1.384 . S
C924 H933 0.931 . S
C925 C921 1.374 . S
C925 C926 1.390 . S
C925 H934 0.930 . S
C926 C922 1.391 . S
C926 C925 1.390 . S
C926 H935 0.930 . S
C927 Eu897 2.825 . S
C927 O912 1.238 . S
C927 O913 1.247 . S
C927 C921 1.507 . S
H928 C901 0.930 . S
H929 C902 0.931 . S
H930 C903 0.930 . S
H931 C904 0.930 . S
H932 C923 0.930 . S
H933 C924 0.931 . S
H934 C925 0.930 . S
H935 C926 0.930 . S
C936 C937 1.349 . S
C936 C938 1.327 . S
C936 H961 0.950 . S
C937 C936 1.349 . S
C937 C953 1.349 . S
C938 C936 1.327 . S
C938 C957 1.429 . S
C938 H962 0.950 . S
C939 C956 1.574 . S
C939 C958 1.368 . S
C939 H963 0.949 . S
H940 C944 0.949 . S
C941 C942 1.349 . S
C941 C943 1.327 . S
C941 H964 0.950 . S
C942 C941 1.349 . S
C942 C954 1.349 . S
C943 C941 1.327 . S
C943 C959 1.429 . S
C943 H965 0.950 . S
C944 H940 0.949 . S
C944 C952 1.574 . S
C944 C960 1.368 . S
H945 C953 0.950 . S
H946 C951 0.950 . S
H947 C952 0.949 . S
H948 C954 0.950 . S
H949 C955 0.950 . S
H950 C956 0.949 . S
C951 H946 0.950 . S
C951 C953 1.327 . S
C951 C957 1.429 . S
C952 C944 1.574 . S
C952 H947 0.949 . S
C952 C958 1.368 . S
C953 C937 1.349 . S
C953 H945 0.950 . S
C953 C951 1.327 . S
C954 C942 1.349 . S
C954 H948 0.950 . S
C954 C955 1.327 . S
C955 H949 0.950 . S
C955 C954 1.327 . S
C955 C959 1.429 . S
C956 C939 1.574 . S
C956 H950 0.949 . S
C956 C960 1.368 . S
C957 C938 1.429 . S
C957 C951 1.429 . S
C957 C958 1.523 . S
C958 C939 1.368 . S
C958 C952 1.368 . S
C958 C957 1.523 . S
C959 C943 1.429 . S
C959 C955 1.429 . S
C959 C960 1.523 . S
C960 C944 1.368 . S
C960 C956 1.368 . S
C960 C959 1.523 . S
H961 C936 0.950 . S
H962 C938 0.950 . S
H963 C939 0.949 . S
H964 C941 0.950 . S
H965 C943 0.950 . S
C966 C967 1.349 . S
C966 C968 1.327 . S
C966 H991 0.950 . S
C967 C966 1.349 . S
C967 C983 1.349 . S
C968 C966 1.327 . S
C968 C987 1.429 . S
C968 H992 0.950 . S
C969 C986 1.574 . S
C969 C988 1.368 . S
C969 H993 0.949 . S
H970 C974 0.949 . S
C971 C972 1.349 . S
C971 C973 1.327 . S
C971 H994 0.950 . S
C972 C971 1.349 . S
C972 C984 1.349 . S
C973 C971 1.327 . S
C973 C989 1.429 . S
C973 H995 0.950 . S
C974 H970 0.949 . S
C974 C982 1.574 . S
C974 C990 1.368 . S
H975 C983 0.950 . S
H976 C981 0.950 . S
H977 C982 0.949 . S
H978 C984 0.950 . S
H979 C985 0.950 . S
H980 C986 0.949 . S
C981 H976 0.950 . S
C981 C983 1.327 . S
C981 C987 1.429 . S
C982 C974 1.574 . S
C982 H977 0.949 . S
C982 C988 1.368 . S
C983 C967 1.349 . S
C983 H975 0.950 . S
C983 C981 1.327 . S
C984 C972 1.349 . S
C984 H978 0.950 . S
C984 C985 1.327 . S
C985 H979 0.950 . S
C985 C984 1.327 . S
C985 C989 1.429 . S
C986 C969 1.574 . S
C986 H980 0.949 . S
C986 C990 1.368 . S
C987 C968 1.429 . S
C987 C981 1.429 . S
C987 C988 1.523 . S
C988 C969 1.368 . S
C988 C982 1.368 . S
C988 C987 1.523 . S
C989 C973 1.429 . S
C989 C985 1.429 . S
C989 C990 1.523 . S
C990 C974 1.368 . S
C990 C986 1.368 . S
C990 C989 1.523 . S
H991 C966 0.950 . S
H992 C968 0.950 . S
H993 C969 0.949 . S
H994 C971 0.950 . S
H995 C973 0.950 . S
C996 C997 1.349 . S
C996 C998 1.327 . S
C996 H1021 0.950 . S
C997 C996 1.349 . S
C997 C1013 1.349 . S
C998 C996 1.327 . S
C998 C1017 1.429 . S
C998 H1022 0.950 . S
C999 C1016 1.574 . S
C999 C1018 1.368 . S
C999 H1023 0.949 . S
H1000 C1004 0.949 . S
C1001 C1002 1.349 . S
C1001 C1003 1.327 . S
C1001 H1024 0.950 1_554 S
C1002 C1001 1.349 . S
C1002 C1014 1.349 . S
C1003 C1001 1.327 . S
C1003 C1019 1.429 . S
C1003 H1025 0.950 1_554 S
C1004 H1000 0.949 . S
C1004 C1012 1.574 . S
C1004 C1020 1.368 . S
H1005 C1013 0.950 . S
H1006 C1011 0.950 . S
H1007 C1012 0.949 . S
H1008 C1014 0.950 . S
H1009 C1015 0.950 . S
H1010 C1016 0.949 . S
C1011 H1006 0.950 . S
C1011 C1013 1.327 . S
C1011 C1017 1.429 . S
C1012 C1004 1.574 . S
C1012 H1007 0.949 . S
C1012 C1018 1.368 . S
C1013 C997 1.349 . S
C1013 H1005 0.950 . S
C1013 C1011 1.327 . S
C1014 C1002 1.349 . S
C1014 H1008 0.950 . S
C1014 C1015 1.327 . S
C1015 H1009 0.950 . S
C1015 C1014 1.327 . S
C1015 C1019 1.429 . S
C1016 C999 1.574 . S
C1016 H1010 0.949 . S
C1016 C1020 1.368 . S
C1017 C998 1.429 . S
C1017 C1011 1.429 . S
C1017 C1018 1.523 . S
C1018 C999 1.368 . S
C1018 C1012 1.368 . S
C1018 C1017 1.523 . S
C1019 C1003 1.429 . S
C1019 C1015 1.429 . S
C1019 C1020 1.523 . S
C1020 C1004 1.368 . S
C1020 C1016 1.368 . S
C1020 C1019 1.523 . S
H1021 C996 0.950 . S
H1022 C998 0.950 . S
H1023 C999 0.949 . S
H1024 C1001 0.950 1_556 S
H1025 C1003 0.950 1_556 S
C1026 C1027 1.349 . S
C1026 C1028 1.327 . S
C1026 H1051 0.950 . S
C1027 C1026 1.349 . S
C1027 C1043 1.349 . S
C1028 C1026 1.327 . S
C1028 C1047 1.429 . S
C1028 H1052 0.950 . S
C1029 C1046 1.574 . S
C1029 C1048 1.368 . S
C1029 H1053 0.949 . S
H1030 C1034 0.949 . S
C1031 C1032 1.349 . S
C1031 C1033 1.327 . S
C1031 H1054 0.950 1_556 S
C1032 C1031 1.349 . S
C1032 C1044 1.349 . S
C1033 C1031 1.327 . S
C1033 C1049 1.429 . S
C1033 H1055 0.950 . S
C1034 H1030 0.949 . S
C1034 C1042 1.574 . S
C1034 C1050 1.368 . S
H1035 C1043 0.950 . S
H1036 C1041 0.950 . S
H1037 C1042 0.949 . S
H1038 C1044 0.950 . S
H1039 C1045 0.950 . S
H1040 C1046 0.949 . S
C1041 H1036 0.950 . S
C1041 C1043 1.327 . S
C1041 C1047 1.429 . S
C1042 C1034 1.574 . S
C1042 H1037 0.949 . S
C1042 C1048 1.368 . S
C1043 C1027 1.349 . S
C1043 H1035 0.950 . S
C1043 C1041 1.327 . S
C1044 C1032 1.349 . S
C1044 H1038 0.950 . S
C1044 C1045 1.327 . S
C1045 H1039 0.950 . S
C1045 C1044 1.327 . S
C1045 C1049 1.429 . S
C1046 C1029 1.574 . S
C1046 H1040 0.949 . S
C1046 C1050 1.368 . S
C1047 C1028 1.429 . S
C1047 C1041 1.429 . S
C1047 C1048 1.523 . S
C1048 C1029 1.368 . S
C1048 C1042 1.368 . S
C1048 C1047 1.523 . S
C1049 C1033 1.429 . S
C1049 C1045 1.429 . S
C1049 C1050 1.523 . S
C1050 C1034 1.368 . S
C1050 C1046 1.368 . S
C1050 C1049 1.523 . S
H1051 C1026 0.950 . S
H1052 C1028 0.950 . S
H1053 C1029 0.949 . S
H1054 C1031 0.950 1_554 S
H1055 C1033 0.950 . S
C1056 C1057 1.349 . S
C1056 C1058 1.327 . S
C1056 H1081 0.950 . S
C1057 C1056 1.349 . S
C1057 C1073 1.349 . S
C1058 C1056 1.327 . S
C1058 C1077 1.429 . S
C1058 H1082 0.950 . S
C1059 C1076 1.574 . S
C1059 C1078 1.368 . S
C1059 H1083 0.949 . S
H1060 C1064 0.949 . S
C1061 C1062 1.349 . S
C1061 C1063 1.327 . S
C1061 H1084 0.950 . S
C1062 C1061 1.349 . S
C1062 C1074 1.349 . S
C1063 C1061 1.327 . S
C1063 C1079 1.429 . S
C1063 H1085 0.950 . S
C1064 H1060 0.949 . S
C1064 C1072 1.574 . S
C1064 C1080 1.368 . S
H1065 C1073 0.950 . S
H1066 C1071 0.950 . S
H1067 C1072 0.949 . S
H1068 C1074 0.950 . S
H1069 C1075 0.950 . S
H1070 C1076 0.949 . S
C1071 H1066 0.950 . S
C1071 C1073 1.327 . S
C1071 C1077 1.429 . S
C1072 C1064 1.574 . S
C1072 H1067 0.949 . S
C1072 C1078 1.368 . S
C1073 C1057 1.349 . S
C1073 H1065 0.950 . S
C1073 C1071 1.327 . S
C1074 C1062 1.349 . S
C1074 H1068 0.950 . S
C1074 C1075 1.327 . S
C1075 H1069 0.950 . S
C1075 C1074 1.327 . S
C1075 C1079 1.429 . S
C1076 C1059 1.574 . S
C1076 H1070 0.949 . S
C1076 C1080 1.368 . S
C1077 C1058 1.429 . S
C1077 C1071 1.429 . S
C1077 C1078 1.523 . S
C1078 C1059 1.368 . S
C1078 C1072 1.368 . S
C1078 C1077 1.523 . S
C1079 C1063 1.429 . S
C1079 C1075 1.429 . S
C1079 C1080 1.523 . S
C1080 C1064 1.368 . S
C1080 C1076 1.368 . S
C1080 C1079 1.523 . S
H1081 C1056 0.950 . S
H1082 C1058 0.950 . S
H1083 C1059 0.949 . S
H1084 C1061 0.950 . S
H1085 C1063 0.950 . S
C1086 C1087 1.349 . S
C1086 C1088 1.327 . S
C1086 H1111 0.950 . S
C1087 C1086 1.349 . S
C1087 C1103 1.349 . S
C1088 C1086 1.327 . S
C1088 C1107 1.429 . S
C1088 H1112 0.950 . S
C1089 C1106 1.574 . S
C1089 C1108 1.368 . S
C1089 H1113 0.949 . S
H1090 C1094 0.949 . S
C1091 C1092 1.349 1_554 S
C1091 C1093 1.327 1_554 S
C1091 H1114 0.950 . S
C1092 C1091 1.349 1_556 S
C1092 C1104 1.349 . S
C1093 C1091 1.327 1_556 S
C1093 C1109 1.428 . S
C1093 H1115 0.950 1_556 S
C1094 H1090 0.949 . S
C1094 C1102 1.574 . S
C1094 C1110 1.368 . S
H1095 C1103 0.950 . S
H1096 C1101 0.950 . S
H1097 C1102 0.949 . S
H1098 C1104 0.950 . S
H1099 C1105 0.950 . S
H1100 C1106 0.949 1_554 S
C1101 H1096 0.950 . S
C1101 C1103 1.327 . S
C1101 C1107 1.429 . S
C1102 C1094 1.574 . S
C1102 H1097 0.949 . S
C1102 C1108 1.368 . S
C1103 C1087 1.349 . S
C1103 H1095 0.950 . S
C1103 C1101 1.327 . S
C1104 C1092 1.349 . S
C1104 H1098 0.950 . S
C1104 C1105 1.327 . S
C1105 H1099 0.950 . S
C1105 C1104 1.327 . S
C1105 C1109 1.429 . S
C1106 C1089 1.574 . S
C1106 H1100 0.949 1_556 S
C1106 C1110 1.368 . S
C1107 C1088 1.429 . S
C1107 C1101 1.429 . S
C1107 C1108 1.523 . S
C1108 C1089 1.368 . S
C1108 C1102 1.368 . S
C1108 C1107 1.523 . S
C1109 C1093 1.428 . S
C1109 C1105 1.429 . S
C1109 C1110 1.523 . S
C1110 C1094 1.368 . S
C1110 C1106 1.368 . S
C1110 C1109 1.523 . S
H1111 C1086 0.950 . S
H1112 C1088 0.950 . S
H1113 C1089 0.949 . S
H1114 C1091 0.950 . S
H1115 C1093 0.950 1_554 S
C1116 C1117 1.349 . S
C1116 C1118 1.327 . S
C1116 H1141 0.950 . S
C1117 C1116 1.349 . S
C1117 C1133 1.349 . S
C1118 C1116 1.327 . S
C1118 C1137 1.429 . S
C1118 H1142 0.950 . S
C1119 C1136 1.574 . S
C1119 C1138 1.368 . S
C1119 H1143 0.949 . S
H1120 C1124 0.949 . S
C1121 C1122 1.349 . S
C1121 C1123 1.327 . S
C1121 H1144 0.950 . S
C1122 C1121 1.349 . S
C1122 C1134 1.349 . S
C1123 C1121 1.327 . S
C1123 C1139 1.429 . S
C1123 H1145 0.950 . S
C1124 H1120 0.949 . S
C1124 C1132 1.574 . S
C1124 C1140 1.368 . S
H1125 C1133 0.950 . S
H1126 C1131 0.950 . S
H1127 C1132 0.949 . S
H1128 C1134 0.950 . S
H1129 C1135 0.950 . S
H1130 C1136 0.949 . S
C1131 H1126 0.950 . S
C1131 C1133 1.327 . S
C1131 C1137 1.429 . S
C1132 C1124 1.574 . S
C1132 H1127 0.949 . S
C1132 C1138 1.368 . S
C1133 C1117 1.349 . S
C1133 H1125 0.950 . S
C1133 C1131 1.327 . S
C1134 C1122 1.349 . S
C1134 H1128 0.950 . S
C1134 C1135 1.327 . S
C1135 H1129 0.950 . S
C1135 C1134 1.327 . S
C1135 C1139 1.429 . S
C1136 C1119 1.574 . S
C1136 H1130 0.949 . S
C1136 C1140 1.368 . S
C1137 C1118 1.429 . S
C1137 C1131 1.429 . S
C1137 C1138 1.523 . S
C1138 C1119 1.368 . S
C1138 C1132 1.368 . S
C1138 C1137 1.523 . S
C1139 C1123 1.429 . S
C1139 C1135 1.429 . S
C1139 C1140 1.523 . S
C1140 C1124 1.368 . S
C1140 C1136 1.368 . S
C1140 C1139 1.523 . S
H1141 C1116 0.950 . S
H1142 C1118 0.950 . S
H1143 C1119 0.949 . S
H1144 C1121 0.950 . S
H1145 C1123 0.950 . S
C1146 C1147 1.349 . S
C1146 C1148 1.327 . S
C1146 H1171 0.950 . S
C1147 C1146 1.349 . S
C1147 C1163 1.349 . S
C1148 C1146 1.327 . S
C1148 C1167 1.429 . S
C1148 H1172 0.950 . S
C1149 C1166 1.574 . S
C1149 C1168 1.368 . S
C1149 H1173 0.949 . S
H1150 C1154 0.949 . S
C1151 C1152 1.349 . S
C1151 C1153 1.327 . S
C1151 H1174 0.950 . S
C1152 C1151 1.349 . S
C1152 C1164 1.349 . S
C1153 C1151 1.327 . S
C1153 C1169 1.429 . S
C1153 H1175 0.950 . S
C1154 H1150 0.949 . S
C1154 C1162 1.574 . S
C1154 C1170 1.368 . S
H1155 C1163 0.950 . S
H1156 C1161 0.950 . S
H1157 C1162 0.949 . S
H1158 C1164 0.950 . S
H1159 C1165 0.950 . S
H1160 C1166 0.949 . S
C1161 H1156 0.950 . S
C1161 C1163 1.327 . S
C1161 C1167 1.429 . S
C1162 C1154 1.574 . S
C1162 H1157 0.949 . S
C1162 C1168 1.368 . S
C1163 C1147 1.349 . S
C1163 H1155 0.950 . S
C1163 C1161 1.327 . S
C1164 C1152 1.349 . S
C1164 H1158 0.950 . S
C1164 C1165 1.327 . S
C1165 H1159 0.950 . S
C1165 C1164 1.327 . S
C1165 C1169 1.429 . S
C1166 C1149 1.574 . S
C1166 H1160 0.949 . S
C1166 C1170 1.368 . S
C1167 C1148 1.429 . S
C1167 C1161 1.429 . S
C1167 C1168 1.523 . S
C1168 C1149 1.368 . S
C1168 C1162 1.368 . S
C1168 C1167 1.523 . S
C1169 C1153 1.429 . S
C1169 C1165 1.429 . S
C1169 C1170 1.523 . S
C1170 C1154 1.368 . S
C1170 C1166 1.368 . S
C1170 C1169 1.523 . S
H1171 C1146 0.950 . S
H1172 C1148 0.950 . S
H1173 C1149 0.949 . S
H1174 C1151 0.950 . S
H1175 C1153 0.950 . S
C1176 C1177 1.349 . S
C1176 C1178 1.327 . S
C1176 H1201 0.950 . S
C1177 C1176 1.349 . S
C1177 C1193 1.349 . S
C1178 C1176 1.327 . S
C1178 C1197 1.429 . S
C1178 H1202 0.950 . S
C1179 C1196 1.574 . S
C1179 C1198 1.368 . S
C1179 H1203 0.949 . S
H1180 C1184 0.949 . S
C1181 C1182 1.349 . S
C1181 C1183 1.327 . S
C1181 H1204 0.950 . S
C1182 C1181 1.349 . S
C1182 C1194 1.382 . S
C1183 C1181 1.327 . S
C1183 C1199 1.429 . S
C1183 H1205 0.950 . S
C1184 H1180 0.949 . S
C1184 C1192 1.574 . S
C1184 C1200 1.368 . S
H1185 C1193 0.950 . S
H1186 C1191 0.950 . S
H1187 C1192 0.949 . S
H1188 C1194 0.912 1_554 S
H1189 C1195 0.950 1_554 S
H1190 C1196 0.949 . S
C1191 H1186 0.950 . S
C1191 C1193 1.327 . S
C1191 C1197 1.429 . S
C1192 C1184 1.574 . S
C1192 H1187 0.949 . S
C1192 C1198 1.368 . S
C1193 C1177 1.349 . S
C1193 H1185 0.950 . S
C1193 C1191 1.327 . S
C1194 C1182 1.382 . S
C1194 H1188 0.912 1_556 S
C1194 C1195 1.333 . S
C1195 H1189 0.950 1_556 S
C1195 C1194 1.333 . S
C1195 C1199 1.429 . S
C1196 C1179 1.574 . S
C1196 H1190 0.949 . S
C1196 C1200 1.368 . S
C1197 C1178 1.429 . S
C1197 C1191 1.429 . S
C1197 C1198 1.523 . S
C1198 C1179 1.368 . S
C1198 C1192 1.368 . S
C1198 C1197 1.523 . S
C1199 C1183 1.429 . S
C1199 C1195 1.429 . S
C1199 C1200 1.523 . S
C1200 C1184 1.368 . S
C1200 C1196 1.368 . S
C1200 C1199 1.523 . S
H1201 C1176 0.950 . S
H1202 C1178 0.950 . S
H1203 C1179 0.949 . S
H1204 C1181 0.950 . S
H1205 C1183 0.950 . S
C1206 C1207 1.349 . S
C1206 C1208 1.327 . S
C1206 H1231 0.950 . S
C1207 C1206 1.349 . S
C1207 C1223 1.349 . S
C1208 C1206 1.327 . S
C1208 C1227 1.429 . S
C1208 H1232 0.950 . S
C1209 C1226 1.574 . S
C1209 C1228 1.368 . S
C1209 H1233 0.949 . S
H1210 C1214 0.949 . S
C1211 C1212 1.349 . S
C1211 C1213 1.327 . S
C1211 H1234 0.949 1_554 S
C1212 C1211 1.349 . S
C1212 C1224 1.349 . S
C1213 C1211 1.327 . S
C1213 C1229 1.429 . S
C1213 H1235 0.950 . S
C1214 H1210 0.949 . S
C1214 C1222 1.574 . S
C1214 C1230 1.368 . S
H1215 C1223 0.950 . S
H1216 C1221 0.950 . S
H1217 C1222 0.949 . S
H1218 C1224 0.950 . S
H1219 C1225 0.950 . S
H1220 C1226 0.949 . S
C1221 H1216 0.950 . S
C1221 C1223 1.327 . S
C1221 C1227 1.429 . S
C1222 C1214 1.574 . S
C1222 H1217 0.949 . S
C1222 C1228 1.368 . S
C1223 C1207 1.349 . S
C1223 H1215 0.950 . S
C1223 C1221 1.327 . S
C1224 C1212 1.349 . S
C1224 H1218 0.950 . S
C1224 C1225 1.327 . S
C1225 H1219 0.950 . S
C1225 C1224 1.327 . S
C1225 C1229 1.429 . S
C1226 C1209 1.574 . S
C1226 H1220 0.949 . S
C1226 C1230 1.368 . S
C1227 C1208 1.429 . S
C1227 C1221 1.429 . S
C1227 C1228 1.523 . S
C1228 C1209 1.368 . S
C1228 C1222 1.368 . S
C1228 C1227 1.523 . S
C1229 C1213 1.429 . S
C1229 C1225 1.429 . S
C1229 C1230 1.523 . S
C1230 C1214 1.368 . S
C1230 C1226 1.368 . S
C1230 C1229 1.523 . S
H1231 C1206 0.950 . S
H1232 C1208 0.950 . S
H1233 C1209 0.949 . S
H1234 C1211 0.949 1_556 S
H1235 C1213 0.950 . S
C1236 C1237 1.349 . S
C1236 C1238 1.327 . S
C1236 H1261 0.950 . S
C1237 C1236 1.349 . S
C1237 C1253 1.349 . S
C1238 C1236 1.327 . S
C1238 C1257 1.429 . S
C1238 H1262 0.950 . S
C1239 C1256 1.574 . S
C1239 C1258 1.368 . S
C1239 H1263 0.949 . S
H1240 C1244 0.949 . S
C1241 C1242 1.349 . S
C1241 C1243 1.327 . S
C1241 H1264 0.950 . S
C1242 C1241 1.349 . S
C1242 C1254 1.349 . S
C1243 C1241 1.327 . S
C1243 C1259 1.429 . S
C1243 H1265 0.950 . S
C1244 H1240 0.949 . S
C1244 C1252 1.574 . S
C1244 C1260 1.368 . S
H1245 C1253 0.950 . S
H1246 C1251 0.950 . S
H1247 C1252 0.949 . S
H1248 C1254 0.950 . S
H1249 C1255 0.950 . S
H1250 C1256 0.949 . S
C1251 H1246 0.950 . S
C1251 C1253 1.327 . S
C1251 C1257 1.429 . S
C1252 C1244 1.574 . S
C1252 H1247 0.949 . S
C1252 C1258 1.368 . S
C1253 C1237 1.349 . S
C1253 H1245 0.950 . S
C1253 C1251 1.327 . S
C1254 C1242 1.349 . S
C1254 H1248 0.950 . S
C1254 C1255 1.327 . S
C1255 H1249 0.950 . S
C1255 C1254 1.327 . S
C1255 C1259 1.429 . S
C1256 C1239 1.574 . S
C1256 H1250 0.949 . S
C1256 C1260 1.368 . S
C1257 C1238 1.429 . S
C1257 C1251 1.429 . S
C1257 C1258 1.523 . S
C1258 C1239 1.368 . S
C1258 C1252 1.368 . S
C1258 C1257 1.523 . S
C1259 C1243 1.429 . S
C1259 C1255 1.429 . S
C1259 C1260 1.523 . S
C1260 C1244 1.368 . S
C1260 C1256 1.368 . S
C1260 C1259 1.523 . S
H1261 C1236 0.950 . S
H1262 C1238 0.950 . S
H1263 C1239 0.949 . S
H1264 C1241 0.950 . S
H1265 C1243 0.950 . S
C1266 C1267 1.349 . S
C1266 C1268 1.327 . S
C1266 H1291 0.950 . S
C1267 C1266 1.349 . S
C1267 C1283 1.349 . S
C1268 C1266 1.327 . S
C1268 C1287 1.429 . S
C1268 H1292 0.950 . S
C1269 C1286 1.574 . S
C1269 C1288 1.368 . S
C1269 H1293 0.949 . S
H1270 C1274 0.949 . S
C1271 C1272 1.349 . S
C1271 C1273 1.327 . S
C1271 H1294 0.950 . S
C1272 C1271 1.349 . S
C1272 C1284 1.349 . S
C1273 C1271 1.327 . S
C1273 C1289 1.429 . S
C1273 H1295 0.950 . S
C1274 H1270 0.949 . S
C1274 C1282 1.574 . S
C1274 C1290 1.368 . S
H1275 C1283 0.950 . S
H1276 C1281 0.950 . S
H1277 C1282 0.949 . S
H1278 C1284 0.950 . S
H1279 C1285 0.950 . S
H1280 C1286 0.949 . S
C1281 H1276 0.950 . S
C1281 C1283 1.327 . S
C1281 C1287 1.429 . S
C1282 C1274 1.574 . S
C1282 H1277 0.949 . S
C1282 C1288 1.368 . S
C1283 C1267 1.349 . S
C1283 H1275 0.950 . S
C1283 C1281 1.327 . S
C1284 C1272 1.349 . S
C1284 H1278 0.950 . S
C1284 C1285 1.327 . S
C1285 H1279 0.950 . S
C1285 C1284 1.327 . S
C1285 C1289 1.429 . S
C1286 C1269 1.574 . S
C1286 H1280 0.949 . S
C1286 C1290 1.368 . S
C1287 C1268 1.429 . S
C1287 C1281 1.429 . S
C1287 C1288 1.523 . S
C1288 C1269 1.368 . S
C1288 C1282 1.368 . S
C1288 C1287 1.523 . S
C1289 C1273 1.429 . S
C1289 C1285 1.429 . S
C1289 C1290 1.523 . S
C1290 C1274 1.368 . S
C1290 C1286 1.368 . S
C1290 C1289 1.523 . S
H1291 C1266 0.950 . S
H1292 C1268 0.950 . S
H1293 C1269 0.949 . S
H1294 C1271 0.950 . S
H1295 C1273 0.950 . S
C1296 C1297 1.349 . S
C1296 C1298 1.327 . S
C1296 H1321 0.950 . S
C1297 C1296 1.349 . S
C1297 C1313 1.349 . S
C1298 C1296 1.327 . S
C1298 C1317 1.429 . S
C1298 H1322 0.950 . S
C1299 C1316 1.574 . S
C1299 C1318 1.368 . S
C1299 H1323 0.949 . S
H1300 C1304 0.949 . S
C1301 C1302 1.349 . S
C1301 C1303 1.327 . S
C1301 H1324 0.950 . S
C1302 C1301 1.349 . S
C1302 C1314 1.349 . S
C1303 C1301 1.327 . S
C1303 C1319 1.429 . S
C1303 H1325 0.950 . S
C1304 H1300 0.949 . S
C1304 C1312 1.574 . S
C1304 C1320 1.368 . S
H1305 C1313 0.950 . S
H1306 C1311 0.950 . S
H1307 C1312 0.949 1_655 S
H1308 C1314 0.950 . S
H1309 C1315 0.950 . S
H1310 C1316 0.949 . S
C1311 H1306 0.950 . S
C1311 C1313 1.327 . S
C1311 C1317 1.429 . S
C1312 C1304 1.574 . S
C1312 H1307 0.949 1_455 S
C1312 C1318 1.368 . S
C1313 C1297 1.349 . S
C1313 H1305 0.950 . S
C1313 C1311 1.327 . S
C1314 C1302 1.349 . S
C1314 H1308 0.950 . S
C1314 C1315 1.327 . S
C1315 H1309 0.950 . S
C1315 C1314 1.327 . S
C1315 C1319 1.429 . S
C1316 C1299 1.574 . S
C1316 H1310 0.949 . S
C1316 C1320 1.368 . S
C1317 C1298 1.429 . S
C1317 C1311 1.429 . S
C1317 C1318 1.523 1_655 S
C1318 C1299 1.368 . S
C1318 C1312 1.368 . S
C1318 C1317 1.523 1_455 S
C1319 C1303 1.429 . S
C1319 C1315 1.429 . S
C1319 C1320 1.523 . S
C1320 C1304 1.368 . S
C1320 C1316 1.368 . S
C1320 C1319 1.523 . S
H1321 C1296 0.950 . S
H1322 C1298 0.950 . S
H1323 C1299 0.949 . S
H1324 C1301 0.950 . S
H1325 C1303 0.950 . S
C1326 C1327 1.349 . S
C1326 C1328 1.327 . S
C1326 H1351 0.950 . S
C1327 C1326 1.349 . S
C1327 C1343 1.349 . S
C1328 C1326 1.327 . S
C1328 C1347 1.429 . S
C1328 H1352 0.950 . S
C1329 C1346 1.574 . S
C1329 C1348 1.368 . S
C1329 H1353 0.949 . S
H1330 C1334 0.949 . S
C1331 C1332 1.349 . S
C1331 C1333 1.327 . S
C1331 H1354 0.950 . S
C1332 C1331 1.349 . S
C1332 C1344 1.349 . S
C1333 C1331 1.327 . S
C1333 C1349 1.429 . S
C1333 H1355 0.950 . S
C1334 H1330 0.949 . S
C1334 C1342 1.574 . S
C1334 C1350 1.368 . S
H1335 C1343 0.950 . S
H1336 C1341 0.950 . S
H1337 C1342 0.949 . S
H1338 C1344 0.950 . S
H1339 C1345 0.950 . S
H1340 C1346 0.949 . S
C1341 H1336 0.950 . S
C1341 C1343 1.327 . S
C1341 C1347 1.429 . S
C1342 C1334 1.574 . S
C1342 H1337 0.949 . S
C1342 C1348 1.368 . S
C1343 C1327 1.349 . S
C1343 H1335 0.950 . S
C1343 C1341 1.327 . S
C1344 C1332 1.349 . S
C1344 H1338 0.950 . S
C1344 C1345 1.327 . S
C1345 H1339 0.950 . S
C1345 C1344 1.327 . S
C1345 C1349 1.429 . S
C1346 C1329 1.574 . S
C1346 H1340 0.949 . S
C1346 C1350 1.368 . S
C1347 C1328 1.429 . S
C1347 C1341 1.429 . S
C1347 C1348 1.523 . S
C1348 C1329 1.368 . S
C1348 C1342 1.368 . S
C1348 C1347 1.523 . S
C1349 C1333 1.429 . S
C1349 C1345 1.429 . S
C1349 C1350 1.523 . S
C1350 C1334 1.368 . S
C1350 C1346 1.368 . S
C1350 C1349 1.523 . S
H1351 C1326 0.950 . S
H1352 C1328 0.950 . S
H1353 C1329 0.949 . S
H1354 C1331 0.950 . S
H1355 C1333 0.950 . S
C1356 C1357 1.349 . S
C1356 C1358 1.327 . S
C1356 H1381 0.950 . S
C1357 C1356 1.349 . S
C1357 C1373 1.349 . S
C1358 C1356 1.327 . S
C1358 C1377 1.429 . S
C1358 H1382 0.950 . S
C1359 C1376 1.574 . S
C1359 C1378 1.368 1_565 S
C1359 H1383 0.949 1_565 S
H1360 C1364 0.949 . S
C1361 C1362 1.349 . S
C1361 C1363 1.327 . S
C1361 H1384 0.950 . S
C1362 C1361 1.349 . S
C1362 C1374 1.349 . S
C1363 C1361 1.327 . S
C1363 C1379 1.429 . S
C1363 H1385 0.950 . S
C1364 H1360 0.949 . S
C1364 C1372 1.574 1_565 S
C1364 C1380 1.368 . S
H1365 C1373 0.950 . S
H1366 C1371 0.950 . S
H1367 C1372 0.949 . S
H1368 C1374 0.950 . S
H1369 C1375 0.950 . S
H1370 C1376 0.949 . S
C1371 H1366 0.950 . S
C1371 C1373 1.327 . S
C1371 C1377 1.429 . S
C1372 C1364 1.574 1_545 S
C1372 H1367 0.949 . S
C1372 C1378 1.368 . S
C1373 C1357 1.349 . S
C1373 H1365 0.950 . S
C1373 C1371 1.327 . S
C1374 C1362 1.349 . S
C1374 H1368 0.950 . S
C1374 C1375 1.327 . S
C1375 H1369 0.950 . S
C1375 C1374 1.327 . S
C1375 C1379 1.429 . S
C1376 C1359 1.574 . S
C1376 H1370 0.949 . S
C1376 C1380 1.368 . S
C1377 C1358 1.429 . S
C1377 C1371 1.429 . S
C1377 C1378 1.523 . S
C1378 C1359 1.368 1_545 S
C1378 C1372 1.368 . S
C1378 C1377 1.523 . S
C1379 C1363 1.429 . S
C1379 C1375 1.429 . S
C1379 C1380 1.523 . S
C1380 C1364 1.368 . S
C1380 C1376 1.368 . S
C1380 C1379 1.523 . S
H1381 C1356 0.950 . S
H1382 C1358 0.950 . S
H1383 C1359 0.949 1_545 S
H1384 C1361 0.950 . S
H1385 C1363 0.950 . S
C1386 C1387 1.349 . S
C1386 C1388 1.327 . S
C1386 H1411 0.950 . S
C1387 C1386 1.349 . S
C1387 C1403 1.349 . S
C1388 C1386 1.327 . S
C1388 C1407 1.429 . S
C1388 H1412 0.950 . S
C1389 C1406 1.574 . S
C1389 C1408 1.368 . S
C1389 H1413 0.949 . S
H1390 C1394 0.949 . S
C1391 C1392 1.349 . S
C1391 C1393 1.327 . S
C1391 H1414 0.950 . S
C1392 C1391 1.349 . S
C1392 C1404 1.349 . S
C1393 C1391 1.327 . S
C1393 C1409 1.429 . S
C1393 H1415 0.950 . S
C1394 H1390 0.949 . S
C1394 C1402 1.574 . S
C1394 C1410 1.368 . S
H1395 C1403 0.950 . S
H1396 C1401 0.950 . S
H1397 C1402 0.949 . S
H1398 C1404 0.950 . S
H1399 C1405 0.950 . S
H1400 C1406 0.949 . S
C1401 H1396 0.950 . S
C1401 C1403 1.327 . S
C1401 C1407 1.429 . S
C1402 C1394 1.574 . S
C1402 H1397 0.949 . S
C1402 C1408 1.368 . S
C1403 C1387 1.349 . S
C1403 H1395 0.950 . S
C1403 C1401 1.327 . S
C1404 C1392 1.349 . S
C1404 H1398 0.950 . S
C1404 C1405 1.327 . S
C1405 H1399 0.950 . S
C1405 C1404 1.327 . S
C1405 C1409 1.429 . S
C1406 C1389 1.574 . S
C1406 H1400 0.949 . S
C1406 C1410 1.368 . S
C1407 C1388 1.429 . S
C1407 C1401 1.429 . S
C1407 C1408 1.523 . S
C1408 C1389 1.368 . S
C1408 C1402 1.368 . S
C1408 C1407 1.523 . S
C1409 C1393 1.429 . S
C1409 C1405 1.429 . S
C1409 C1410 1.523 . S
C1410 C1394 1.368 . S
C1410 C1406 1.368 . S
C1410 C1409 1.523 . S
H1411 C1386 0.950 . S
H1412 C1388 0.950 . S
H1413 C1389 0.949 . S
H1414 C1391 0.950 . S
H1415 C1393 0.950 . S
C1416 C1417 1.349 . S
C1416 C1418 1.327 . S
C1416 H1441 0.950 . S
C1417 C1416 1.349 . S
C1417 C1433 1.349 . S
C1418 C1416 1.327 . S
C1418 C1437 1.429 . S
C1418 H1442 0.950 . S
C1419 C1436 1.574 . S
C1419 C1438 1.368 . S
C1419 H1443 0.949 . S
H1420 C1424 0.949 . S
C1421 C1422 1.349 . S
C1421 C1423 1.327 . S
C1421 H1444 0.950 . S
C1422 C1421 1.349 . S
C1422 C1434 1.349 . S
C1423 C1421 1.327 . S
C1423 C1439 1.429 . S
C1423 H1445 0.950 . S
C1424 H1420 0.949 . S
C1424 C1432 1.574 . S
C1424 C1440 1.368 . S
H1425 C1433 0.950 . S
H1426 C1431 0.950 . S
H1427 C1432 0.949 . S
H1428 C1434 0.950 . S
H1429 C1435 0.950 . S
H1430 C1436 0.949 . S
C1431 H1426 0.950 . S
C1431 C1433 1.327 . S
C1431 C1437 1.429 . S
C1432 C1424 1.574 . S
C1432 H1427 0.949 . S
C1432 C1438 1.368 . S
C1433 C1417 1.349 . S
C1433 H1425 0.950 . S
C1433 C1431 1.327 . S
C1434 C1422 1.349 . S
C1434 H1428 0.950 . S
C1434 C1435 1.327 . S
C1435 H1429 0.950 . S
C1435 C1434 1.327 . S
C1435 C1439 1.429 . S
C1436 C1419 1.574 . S
C1436 H1430 0.949 . S
C1436 C1440 1.368 . S
C1437 C1418 1.429 . S
C1437 C1431 1.429 . S
C1437 C1438 1.523 . S
C1438 C1419 1.368 . S
C1438 C1432 1.368 . S
C1438 C1437 1.523 . S
C1439 C1423 1.429 . S
C1439 C1435 1.429 . S
C1439 C1440 1.523 . S
C1440 C1424 1.368 . S
C1440 C1436 1.368 . S
C1440 C1439 1.523 . S
H1441 C1416 0.950 . S
H1442 C1418 0.950 . S
H1443 C1419 0.949 . S
H1444 C1421 0.950 . S
H1445 C1423 0.950 . S
C1446 C1447 1.349 . S
C1446 C1448 1.327 . S
C1446 H1471 0.950 . S
C1447 C1446 1.349 . S
C1447 C1463 1.349 . S
C1448 C1446 1.327 . S
C1448 C1467 1.429 . S
C1448 H1472 0.950 . S
C1449 C1466 1.574 . S
C1449 C1468 1.368 . S
C1449 H1473 0.949 . S
H1450 C1454 0.949 . S
C1451 C1452 1.349 . S
C1451 C1453 1.327 . S
C1451 H1474 0.950 . S
C1452 C1451 1.349 . S
C1452 C1464 1.349 . S
C1453 C1451 1.327 . S
C1453 C1469 1.429 . S
C1453 H1475 0.950 . S
C1454 H1450 0.949 . S
C1454 C1462 1.574 . S
C1454 C1470 1.368 . S
H1455 C1463 0.950 . S
H1456 C1461 0.950 . S
H1457 C1462 0.949 . S
H1458 C1464 0.950 . S
H1459 C1465 0.950 . S
H1460 C1466 0.949 . S
C1461 H1456 0.950 . S
C1461 C1463 1.327 . S
C1461 C1467 1.429 . S
C1462 C1454 1.574 . S
C1462 H1457 0.949 . S
C1462 C1468 1.368 . S
C1463 C1447 1.349 . S
C1463 H1455 0.950 . S
C1463 C1461 1.327 . S
C1464 C1452 1.349 . S
C1464 H1458 0.950 . S
C1464 C1465 1.327 . S
C1465 H1459 0.950 . S
C1465 C1464 1.327 . S
C1465 C1469 1.429 . S
C1466 C1449 1.574 . S
C1466 H1460 0.949 . S
C1466 C1470 1.368 . S
C1467 C1448 1.429 . S
C1467 C1461 1.429 . S
C1467 C1468 1.523 . S
C1468 C1449 1.368 . S
C1468 C1462 1.368 . S
C1468 C1467 1.523 . S
C1469 C1453 1.429 . S
C1469 C1465 1.429 . S
C1469 C1470 1.523 . S
C1470 C1454 1.368 . S
C1470 C1466 1.368 . S
C1470 C1469 1.523 . S
H1471 C1446 0.950 . S
H1472 C1448 0.950 . S
H1473 C1449 0.949 . S
H1474 C1451 0.950 . S
H1475 C1453 0.950 . S
C1476 C1477 1.349 . S
C1476 C1478 1.327 . S
C1476 H1501 0.950 . S
C1477 C1476 1.349 . S
C1477 C1493 1.349 . S
C1478 C1476 1.327 . S
C1478 C1497 1.429 . S
C1478 H1502 0.950 . S
C1479 C1496 1.574 . S
C1479 C1498 1.368 . S
C1479 H1503 0.949 . S
H1480 C1484 0.949 . S
C1481 C1482 1.349 . S
C1481 C1483 1.327 . S
C1481 H1504 0.950 . S
C1482 C1481 1.349 . S
C1482 C1494 1.349 . S
C1483 C1481 1.327 . S
C1483 C1499 1.429 . S
C1483 H1505 0.950 . S
C1484 H1480 0.949 . S
C1484 C1492 1.574 . S
C1484 C1500 1.368 . S
H1485 C1493 0.950 . S
H1486 C1491 0.950 . S
H1487 C1492 0.949 . S
H1488 C1494 0.950 . S
H1489 C1495 0.950 . S
H1490 C1496 0.949 . S
C1491 H1486 0.950 . S
C1491 C1493 1.327 . S
C1491 C1497 1.429 . S
C1492 C1484 1.574 . S
C1492 H1487 0.949 . S
C1492 C1498 1.368 . S
C1493 C1477 1.349 . S
C1493 H1485 0.950 . S
C1493 C1491 1.327 . S
C1494 C1482 1.349 . S
C1494 H1488 0.950 . S
C1494 C1495 1.327 . S
C1495 H1489 0.950 . S
C1495 C1494 1.327 . S
C1495 C1499 1.429 . S
C1496 C1479 1.574 . S
C1496 H1490 0.949 . S
C1496 C1500 1.368 . S
C1497 C1478 1.429 . S
C1497 C1491 1.429 . S
C1497 C1498 1.523 . S
C1498 C1479 1.368 . S
C1498 C1492 1.368 . S
C1498 C1497 1.523 . S
C1499 C1483 1.429 . S
C1499 C1495 1.429 . S
C1499 C1500 1.523 . S
C1500 C1484 1.368 . S
C1500 C1496 1.368 . S
C1500 C1499 1.523 . S
H1501 C1476 0.950 . S
H1502 C1478 0.950 . S
H1503 C1479 0.949 . S
H1504 C1481 0.950 . S
H1505 C1483 0.950 . S
C1506 C1507 1.349 . S
C1506 C1508 1.327 . S
C1506 H1531 0.950 . S
C1507 C1506 1.349 . S
C1507 C1523 1.349 . S
C1508 C1506 1.327 . S
C1508 C1527 1.429 . S
C1508 H1532 0.950 . S
C1509 C1526 1.574 . S
C1509 C1528 1.368 . S
C1509 H1533 0.949 . S
H1510 C1514 0.949 . S
C1511 C1512 1.349 . S
C1511 C1513 1.327 . S
C1511 H1534 0.950 . S
C1512 C1511 1.349 . S
C1512 C1524 1.349 . S
C1513 C1511 1.327 . S
C1513 C1529 1.429 . S
C1513 H1535 0.950 . S
C1514 H1510 0.949 . S
C1514 C1522 1.574 . S
C1514 C1530 1.368 . S
H1515 C1523 0.950 . S
H1516 C1521 0.950 . S
H1517 C1522 0.949 . S
H1518 C1524 0.950 . S
H1519 C1525 0.950 . S
H1520 C1526 0.949 . S
C1521 H1516 0.950 . S
C1521 C1523 1.327 . S
C1521 C1527 1.429 . S
C1522 C1514 1.574 . S
C1522 H1517 0.949 . S
C1522 C1528 1.368 . S
C1523 C1507 1.349 . S
C1523 H1515 0.950 . S
C1523 C1521 1.327 . S
C1524 C1512 1.349 . S
C1524 H1518 0.950 . S
C1524 C1525 1.327 . S
C1525 H1519 0.950 . S
C1525 C1524 1.327 . S
C1525 C1529 1.429 . S
C1526 C1509 1.574 . S
C1526 H1520 0.949 . S
C1526 C1530 1.368 . S
C1527 C1508 1.429 . S
C1527 C1521 1.429 . S
C1527 C1528 1.523 . S
C1528 C1509 1.368 . S
C1528 C1522 1.368 . S
C1528 C1527 1.523 . S
C1529 C1513 1.429 . S
C1529 C1525 1.429 . S
C1529 C1530 1.523 . S
C1530 C1514 1.368 . S
C1530 C1526 1.368 . S
C1530 C1529 1.523 . S
H1531 C1506 0.950 . S
H1532 C1508 0.950 . S
H1533 C1509 0.949 . S
H1534 C1511 0.950 . S
H1535 C1513 0.950 . S
C1536 C1537 1.349 . S
C1536 C1538 1.327 . S
C1536 H1561 0.950 . S
C1537 C1536 1.349 . S
C1537 C1553 1.349 . S
C1538 C1536 1.327 . S
C1538 C1557 1.429 . S
C1538 H1562 0.950 . S
C1539 C1556 1.574 . S
C1539 C1558 1.368 . S
C1539 H1563 0.949 . S
H1540 C1544 0.949 . S
C1541 C1542 1.349 . S
C1541 C1543 1.327 . S
C1541 H1564 0.950 . S
C1542 C1541 1.349 . S
C1542 C1554 1.349 . S
C1543 C1541 1.327 . S
C1543 C1559 1.429 . S
C1543 H1565 0.950 . S
C1544 H1540 0.949 . S
C1544 C1552 1.574 . S
C1544 C1560 1.368 . S
H1545 C1553 0.950 . S
H1546 C1551 0.950 . S
H1547 C1552 0.949 . S
H1548 C1554 0.950 . S
H1549 C1555 0.950 . S
H1550 C1556 0.949 . S
C1551 H1546 0.950 . S
C1551 C1553 1.327 . S
C1551 C1557 1.429 . S
C1552 C1544 1.574 . S
C1552 H1547 0.949 . S
C1552 C1558 1.368 . S
C1553 C1537 1.349 . S
C1553 H1545 0.950 . S
C1553 C1551 1.327 . S
C1554 C1542 1.349 . S
C1554 H1548 0.950 . S
C1554 C1555 1.327 . S
C1555 H1549 0.950 . S
C1555 C1554 1.327 . S
C1555 C1559 1.429 . S
C1556 C1539 1.574 . S
C1556 H1550 0.949 . S
C1556 C1560 1.368 . S
C1557 C1538 1.429 . S
C1557 C1551 1.429 . S
C1557 C1558 1.523 . S
C1558 C1539 1.368 . S
C1558 C1552 1.368 . S
C1558 C1557 1.523 . S
C1559 C1543 1.429 . S
C1559 C1555 1.429 . S
C1559 C1560 1.523 . S
C1560 C1544 1.368 . S
C1560 C1556 1.368 . S
C1560 C1559 1.523 . S
H1561 C1536 0.950 . S
H1562 C1538 0.950 . S
H1563 C1539 0.949 . S
H1564 C1541 0.950 . S
H1565 C1543 0.950 . S
C1566 C1567 1.349 . S
C1566 C1568 1.327 . S
C1566 H1591 0.950 . S
C1567 C1566 1.349 . S
C1567 C1583 1.349 . S
C1568 C1566 1.327 . S
C1568 C1587 1.429 . S
C1568 H1592 0.950 . S
C1569 C1586 1.574 . S
C1569 C1588 1.368 1_565 S
C1569 H1593 0.949 . S
H1570 C1574 0.949 . S
C1571 C1572 1.349 . S
C1571 C1573 1.327 . S
C1571 H1594 0.950 . S
C1572 C1571 1.349 . S
C1572 C1584 1.349 . S
C1573 C1571 1.327 . S
C1573 C1589 1.429 . S
C1573 H1595 0.950 . S
C1574 H1570 0.949 . S
C1574 C1582 1.574 . S
C1574 C1590 1.368 . S
H1575 C1583 0.950 . S
H1576 C1581 0.950 . S
H1577 C1582 0.949 1_545 S
H1578 C1584 0.950 . S
H1579 C1585 0.950 . S
H1580 C1586 0.949 . S
C1581 H1576 0.950 . S
C1581 C1583 1.327 . S
C1581 C1587 1.429 . S
C1582 C1574 1.574 . S
C1582 H1577 0.949 1_565 S
C1582 C1588 1.368 1_565 S
C1583 C1567 1.349 . S
C1583 H1575 0.950 . S
C1583 C1581 1.327 . S
C1584 C1572 1.349 . S
C1584 H1578 0.950 . S
C1584 C1585 1.327 . S
C1585 H1579 0.950 . S
C1585 C1584 1.327 . S
C1585 C1589 1.429 . S
C1586 C1569 1.574 . S
C1586 H1580 0.949 . S
C1586 C1590 1.368 . S
C1587 C1568 1.429 . S
C1587 C1581 1.429 . S
C1587 C1588 1.523 . S
C1588 C1569 1.368 1_545 S
C1588 C1582 1.368 1_545 S
C1588 C1587 1.523 . S
C1589 C1573 1.429 . S
C1589 C1585 1.429 . S
C1589 C1590 1.523 . S
C1590 C1574 1.368 . S
C1590 C1586 1.368 . S
C1590 C1589 1.523 . S
H1591 C1566 0.950 . S
H1592 C1568 0.950 . S
H1593 C1569 0.949 . S
H1594 C1571 0.950 . S
H1595 C1573 0.950 . S
C1596 C1597 1.349 . S
C1596 C1598 1.327 . S
C1596 H1621 0.950 . S
C1597 C1596 1.349 . S
C1597 C1613 1.349 . S
C1598 C1596 1.327 . S
C1598 C1617 1.429 . S
C1598 H1622 0.950 1_655 S
C1599 C1616 1.574 . S
C1599 C1618 1.368 . S
C1599 H1623 0.949 . S
H1600 C1604 0.949 . S
C1601 C1602 1.349 . S
C1601 C1603 1.327 . S
C1601 H1624 0.950 . S
C1602 C1601 1.349 . S
C1602 C1614 1.349 . S
C1603 C1601 1.327 . S
C1603 C1619 1.429 . S
C1603 H1625 0.950 . S
C1604 H1600 0.949 . S
C1604 C1612 1.574 . S
C1604 C1620 1.368 . S
H1605 C1613 0.950 . S
H1606 C1611 0.950 . S
H1607 C1612 0.949 . S
H1608 C1614 0.950 . S
H1609 C1615 0.950 . S
H1610 C1616 0.949 . S
C1611 H1606 0.950 . S
C1611 C1613 1.327 . S
C1611 C1617 1.429 . S
C1612 C1604 1.574 . S
C1612 H1607 0.949 . S
C1612 C1618 1.368 . S
C1613 C1597 1.349 . S
C1613 H1605 0.950 . S
C1613 C1611 1.327 . S
C1614 C1602 1.349 . S
C1614 H1608 0.950 . S
C1614 C1615 1.327 . S
C1615 H1609 0.950 . S
C1615 C1614 1.327 . S
C1615 C1619 1.429 . S
C1616 C1599 1.574 . S
C1616 H1610 0.949 . S
C1616 C1620 1.368 . S
C1617 C1598 1.429 . S
C1617 C1611 1.429 . S
C1617 C1618 1.523 1_655 S
C1618 C1599 1.368 . S
C1618 C1612 1.368 . S
C1618 C1617 1.523 1_455 S
C1619 C1603 1.429 . S
C1619 C1615 1.429 . S
C1619 C1620 1.523 . S
C1620 C1604 1.368 . S
C1620 C1616 1.368 . S
C1620 C1619 1.523 . S
H1621 C1596 0.950 . S
H1622 C1598 0.950 1_455 S
H1623 C1599 0.949 . S
H1624 C1601 0.950 . S
H1625 C1603 0.950 . S
C1626 C1627 1.349 . S
C1626 C1628 1.327 . S
C1626 H1651 0.950 . S
C1627 C1626 1.349 . S
C1627 C1643 1.349 . S
C1628 C1626 1.327 . S
C1628 C1647 1.429 . S
C1628 H1652 0.950 . S
C1629 C1646 1.574 . S
C1629 C1648 1.368 . S
C1629 H1653 0.949 . S
H1630 C1634 0.949 . S
C1631 C1632 1.349 . S
C1631 C1633 1.327 . S
C1631 H1654 0.950 . S
C1632 C1631 1.349 . S
C1632 C1644 1.349 . S
C1633 C1631 1.327 . S
C1633 C1649 1.429 . S
C1633 H1655 0.950 . S
C1634 H1630 0.949 . S
C1634 C1642 1.574 . S
C1634 C1650 1.368 . S
H1635 C1643 0.950 . S
H1636 C1641 0.950 . S
H1637 C1642 0.949 . S
H1638 C1644 0.950 . S
H1639 C1645 0.950 . S
H1640 C1646 0.949 . S
C1641 H1636 0.950 . S
C1641 C1643 1.327 . S
C1641 C1647 1.429 . S
C1642 C1634 1.574 . S
C1642 H1637 0.949 . S
C1642 C1648 1.368 . S
C1643 C1627 1.349 . S
C1643 H1635 0.950 . S
C1643 C1641 1.327 . S
C1644 C1632 1.349 . S
C1644 H1638 0.950 . S
C1644 C1645 1.327 . S
C1645 H1639 0.950 . S
C1645 C1644 1.327 . S
C1645 C1649 1.429 . S
C1646 C1629 1.574 . S
C1646 H1640 0.949 . S
C1646 C1650 1.368 . S
C1647 C1628 1.429 . S
C1647 C1641 1.429 . S
C1647 C1648 1.523 . S
C1648 C1629 1.368 . S
C1648 C1642 1.368 . S
C1648 C1647 1.523 . S
C1649 C1633 1.429 . S
C1649 C1645 1.429 . S
C1649 C1650 1.523 . S
C1650 C1634 1.368 . S
C1650 C1646 1.368 . S
C1650 C1649 1.523 . S
H1651 C1626 0.950 . S
H1652 C1628 0.950 . S
H1653 C1629 0.949 . S
H1654 C1631 0.950 . S
H1655 C1633 0.950 . S
C1656 C1657 1.349 . S
C1656 C1658 1.327 . S
C1656 H1681 0.950 . S
C1657 C1656 1.349 . S
C1657 C1673 1.349 . S
C1658 C1656 1.327 . S
C1658 C1677 1.429 . S
C1658 H1682 0.950 . S
C1659 C1676 1.574 . S
C1659 C1678 1.368 . S
C1659 H1683 0.949 . S
H1660 C1664 0.949 . S
C1661 C1662 1.349 . S
C1661 C1663 1.327 . S
C1661 H1684 0.950 . S
C1662 C1661 1.349 . S
C1662 C1674 1.349 . S
C1663 C1661 1.327 . S
C1663 C1679 1.429 . S
C1663 H1685 0.950 . S
C1664 H1660 0.949 . S
C1664 C1672 1.574 . S
C1664 C1680 1.368 . S
H1665 C1673 0.950 . S
H1666 C1671 0.950 . S
H1667 C1672 0.949 . S
H1668 C1674 0.950 . S
H1669 C1675 0.950 . S
H1670 C1676 0.949 . S
C1671 H1666 0.950 . S
C1671 C1673 1.327 . S
C1671 C1677 1.429 . S
C1672 C1664 1.574 . S
C1672 H1667 0.949 . S
C1672 C1678 1.368 . S
C1673 C1657 1.349 . S
C1673 H1665 0.950 . S
C1673 C1671 1.327 . S
C1674 C1662 1.349 . S
C1674 H1668 0.950 . S
C1674 C1675 1.327 . S
C1675 H1669 0.950 . S
C1675 C1674 1.327 . S
C1675 C1679 1.429 . S
C1676 C1659 1.574 . S
C1676 H1670 0.949 . S
C1676 C1680 1.368 . S
C1677 C1658 1.429 . S
C1677 C1671 1.429 . S
C1677 C1678 1.523 . S
C1678 C1659 1.368 . S
C1678 C1672 1.368 . S
C1678 C1677 1.523 . S
C1679 C1663 1.429 . S
C1679 C1675 1.429 . S
C1679 C1680 1.523 . S
C1680 C1664 1.368 . S
C1680 C1676 1.368 . S
C1680 C1679 1.523 . S
H1681 C1656 0.950 . S
H1682 C1658 0.950 . S
H1683 C1659 0.949 . S
H1684 C1661 0.950 . S
H1685 C1663 0.950 . S
C1686 C1687 1.349 . S
C1686 C1688 1.327 . S
C1686 H1711 0.950 . S
C1687 C1686 1.349 . S
C1687 C1703 1.349 . S
C1688 C1686 1.327 . S
C1688 C1707 1.429 . S
C1688 H1712 0.950 . S
C1689 C1706 1.574 . S
C1689 C1708 1.368 . S
C1689 H1713 0.949 . S
H1690 C1694 0.949 . S
C1691 C1692 1.349 . S
C1691 C1693 1.327 . S
C1691 H1714 0.950 . S
C1692 C1691 1.349 . S
C1692 C1704 1.349 . S
C1693 C1691 1.327 . S
C1693 C1709 1.429 . S
C1693 H1715 0.950 . S
C1694 H1690 0.949 . S
C1694 C1702 1.574 . S
C1694 C1710 1.368 . S
H1695 C1703 0.950 . S
H1696 C1701 0.950 . S
H1697 C1702 0.949 . S
H1698 C1704 0.950 . S
H1699 C1705 0.950 . S
H1700 C1706 0.949 . S
C1701 H1696 0.950 . S
C1701 C1703 1.327 . S
C1701 C1707 1.429 . S
C1702 C1694 1.574 . S
C1702 H1697 0.949 . S
C1702 C1708 1.368 . S
C1703 C1687 1.349 . S
C1703 H1695 0.950 . S
C1703 C1701 1.327 . S
C1704 C1692 1.349 . S
C1704 H1698 0.950 . S
C1704 C1705 1.327 . S
C1705 H1699 0.950 . S
C1705 C1704 1.327 . S
C1705 C1709 1.429 . S
C1706 C1689 1.574 . S
C1706 H1700 0.949 . S
C1706 C1710 1.368 . S
C1707 C1688 1.429 . S
C1707 C1701 1.429 . S
C1707 C1708 1.523 . S
C1708 C1689 1.368 . S
C1708 C1702 1.368 . S
C1708 C1707 1.523 . S
C1709 C1693 1.429 . S
C1709 C1705 1.429 . S
C1709 C1710 1.523 . S
C1710 C1694 1.368 . S
C1710 C1706 1.368 . S
C1710 C1709 1.523 . S
H1711 C1686 0.950 . S
H1712 C1688 0.950 . S
H1713 C1689 0.949 . S
H1714 C1691 0.950 . S
H1715 C1693 0.950 . S
C1716 C1717 1.349 . S
C1716 C1718 1.327 . S
C1716 H1741 0.950 . S
C1717 C1716 1.349 . S
C1717 C1733 1.349 . S
C1718 C1716 1.327 . S
C1718 C1737 1.429 . S
C1718 H1742 0.950 . S
C1719 C1736 1.574 . S
C1719 C1738 1.368 . S
C1719 H1743 0.949 . S
H1720 C1724 0.949 . S
C1721 C1722 1.349 . S
C1721 C1723 1.327 . S
C1721 H1744 0.950 . S
C1722 C1721 1.349 . S
C1722 C1734 1.349 . S
C1723 C1721 1.327 . S
C1723 C1739 1.429 . S
C1723 H1745 0.950 . S
C1724 H1720 0.949 . S
C1724 C1732 1.574 . S
C1724 C1740 1.368 . S
H1725 C1733 0.950 . S
H1726 C1731 0.950 . S
H1727 C1732 0.949 . S
H1728 C1734 0.950 . S
H1729 C1735 0.950 . S
H1730 C1736 0.949 . S
C1731 H1726 0.950 . S
C1731 C1733 1.327 . S
C1731 C1737 1.429 . S
C1732 C1724 1.574 . S
C1732 H1727 0.949 . S
C1732 C1738 1.368 . S
C1733 C1717 1.349 . S
C1733 H1725 0.950 . S
C1733 C1731 1.327 . S
C1734 C1722 1.349 . S
C1734 H1728 0.950 . S
C1734 C1735 1.327 . S
C1735 H1729 0.950 . S
C1735 C1734 1.327 . S
C1735 C1739 1.429 . S
C1736 C1719 1.574 . S
C1736 H1730 0.949 . S
C1736 C1740 1.368 . S
C1737 C1718 1.429 . S
C1737 C1731 1.429 . S
C1737 C1738 1.523 . S
C1738 C1719 1.368 . S
C1738 C1732 1.368 . S
C1738 C1737 1.523 . S
C1739 C1723 1.429 . S
C1739 C1735 1.429 . S
C1739 C1740 1.523 . S
C1740 C1724 1.368 . S
C1740 C1736 1.368 . S
C1740 C1739 1.523 . S
H1741 C1716 0.950 . S
H1742 C1718 0.950 . S
H1743 C1719 0.949 . S
H1744 C1721 0.950 . S
H1745 C1723 0.950 . S
C1746 C1747 1.349 . S
C1746 C1748 1.327 . S
C1746 H1771 0.950 . S
C1747 C1746 1.349 . S
C1747 C1763 1.349 . S
C1748 C1746 1.327 . S
C1748 C1767 1.429 . S
C1748 H1772 0.950 . S
C1749 C1766 1.574 . S
C1749 C1768 1.368 1_545 S
C1749 H1773 0.949 . S
H1750 C1754 0.949 . S
C1751 C1752 1.349 . S
C1751 C1753 1.327 . S
C1751 H1774 0.950 . S
C1752 C1751 1.349 . S
C1752 C1764 1.349 . S
C1753 C1751 1.327 . S
C1753 C1769 1.429 . S
C1753 H1775 0.950 . S
C1754 H1750 0.949 . S
C1754 C1762 1.574 . S
C1754 C1770 1.368 . S
H1755 C1763 0.950 . S
H1756 C1761 0.950 . S
H1757 C1762 0.949 1_565 S
H1758 C1764 0.950 . S
H1759 C1765 0.950 . S
H1760 C1766 0.949 . S
C1761 H1756 0.950 . S
C1761 C1763 1.327 . S
C1761 C1767 1.429 . S
C1762 C1754 1.574 . S
C1762 H1757 0.949 1_545 S
C1762 C1768 1.368 1_545 S
C1763 C1747 1.349 . S
C1763 H1755 0.950 . S
C1763 C1761 1.327 . S
C1764 C1752 1.349 . S
C1764 H1758 0.950 . S
C1764 C1765 1.327 . S
C1765 H1759 0.950 . S
C1765 C1764 1.327 . S
C1765 C1769 1.429 . S
C1766 C1749 1.574 . S
C1766 H1760 0.949 . S
C1766 C1770 1.368 . S
C1767 C1748 1.429 . S
C1767 C1761 1.429 . S
C1767 C1768 1.523 . S
C1768 C1749 1.368 1_565 S
C1768 C1762 1.368 1_565 S
C1768 C1767 1.523 . S
C1769 C1753 1.429 . S
C1769 C1765 1.429 . S
C1769 C1770 1.523 . S
C1770 C1754 1.368 . S
C1770 C1766 1.368 . S
C1770 C1769 1.523 . S
H1771 C1746 0.950 . S
H1772 C1748 0.950 . S
H1773 C1749 0.949 . S
H1774 C1751 0.950 . S
H1775 C1753 0.950 . S
C1776 C1777 1.349 . S
C1776 C1778 1.327 . S
C1776 H1801 0.950 . S
C1777 C1776 1.349 . S
C1777 C1793 1.349 . S
C1778 C1776 1.327 . S
C1778 C1797 1.429 . S
C1778 H1802 0.950 . S
C1779 C1796 1.574 . S
C1779 C1798 1.368 . S
C1779 H1803 0.949 . S
H1780 C1784 0.949 . S
C1781 C1782 1.349 . S
C1781 C1783 1.327 . S
C1781 H1804 0.950 . S
C1782 C1781 1.349 . S
C1782 C1794 1.349 . S
C1783 C1781 1.327 . S
C1783 C1799 1.429 . S
C1783 H1805 0.950 . S
C1784 H1780 0.949 . S
C1784 C1792 1.574 . S
C1784 C1800 1.368 . S
H1785 C1793 0.950 . S
H1786 C1791 0.950 . S
H1787 C1792 0.949 . S
H1788 C1794 0.950 . S
H1789 C1795 0.950 . S
H1790 C1796 0.949 . S
C1791 H1786 0.950 . S
C1791 C1793 1.327 . S
C1791 C1797 1.429 . S
C1792 C1784 1.574 . S
C1792 H1787 0.949 . S
C1792 C1798 1.368 . S
C1793 C1777 1.349 . S
C1793 H1785 0.950 . S
C1793 C1791 1.327 . S
C1794 C1782 1.349 . S
C1794 H1788 0.950 . S
C1794 C1795 1.327 . S
C1795 H1789 0.950 . S
C1795 C1794 1.327 . S
C1795 C1799 1.429 . S
C1796 C1779 1.574 . S
C1796 H1790 0.949 . S
C1796 C1800 1.368 . S
C1797 C1778 1.429 . S
C1797 C1791 1.429 . S
C1797 C1798 1.523 1_455 S
C1798 C1779 1.368 . S
C1798 C1792 1.368 . S
C1798 C1797 1.523 1_655 S
C1799 C1783 1.429 . S
C1799 C1795 1.429 . S
C1799 C1800 1.523 . S
C1800 C1784 1.368 . S
C1800 C1796 1.368 . S
C1800 C1799 1.523 . S
H1801 C1776 0.950 . S
H1802 C1778 0.950 . S
H1803 C1779 0.949 . S
H1804 C1781 0.950 . S
H1805 C1783 0.950 . S
C1806 C1807 1.349 . S
C1806 C1808 1.327 . S
C1806 H1831 0.950 . S
C1807 C1806 1.349 . S
C1807 C1823 1.349 . S
C1808 C1806 1.327 . S
C1808 C1827 1.429 . S
C1808 H1832 0.950 . S
C1809 C1826 1.574 . S
C1809 C1828 1.368 . S
C1809 H1833 0.949 . S
H1810 C1814 0.949 . S
C1811 C1812 1.349 . S
C1811 C1813 1.327 . S
C1811 H1834 0.950 . S
C1812 C1811 1.349 . S
C1812 C1824 1.349 . S
C1813 C1811 1.327 . S
C1813 C1829 1.429 . S
C1813 H1835 0.950 . S
C1814 H1810 0.949 . S
C1814 C1822 1.574 . S
C1814 C1830 1.368 . S
H1815 C1823 0.950 . S
H1816 C1821 0.950 . S
H1817 C1822 0.949 . S
H1818 C1824 0.950 . S
H1819 C1825 0.950 . S
H1820 C1826 0.949 . S
C1821 H1816 0.950 . S
C1821 C1823 1.327 . S
C1821 C1827 1.429 . S
C1822 C1814 1.574 . S
C1822 H1817 0.949 . S
C1822 C1828 1.368 . S
C1823 C1807 1.349 . S
C1823 H1815 0.950 . S
C1823 C1821 1.327 . S
C1824 C1812 1.349 . S
C1824 H1818 0.950 . S
C1824 C1825 1.327 . S
C1825 H1819 0.950 . S
C1825 C1824 1.327 . S
C1825 C1829 1.429 . S
C1826 C1809 1.574 . S
C1826 H1820 0.949 . S
C1826 C1830 1.368 . S
C1827 C1808 1.429 . S
C1827 C1821 1.429 . S
C1827 C1828 1.523 . S
C1828 C1809 1.368 . S
C1828 C1822 1.368 . S
C1828 C1827 1.523 . S
C1829 C1813 1.429 . S
C1829 C1825 1.429 . S
C1829 C1830 1.523 . S
C1830 C1814 1.368 . S
C1830 C1826 1.368 . S
C1830 C1829 1.523 . S
H1831 C1806 0.950 . S
H1832 C1808 0.950 . S
H1833 C1809 0.949 . S
H1834 C1811 0.950 . S
H1835 C1813 0.950 . S
C1836 C1837 1.349 . S
C1836 C1838 1.327 . S
C1836 H1861 0.950 . S
C1837 C1836 1.349 . S
C1837 C1853 1.349 . S
C1838 C1836 1.327 . S
C1838 C1857 1.429 . S
C1838 H1862 0.950 . S
C1839 C1856 1.574 . S
C1839 C1858 1.368 . S
C1839 H1863 0.949 . S
H1840 C1844 0.949 . S
C1841 C1842 1.349 . S
C1841 C1843 1.327 . S
C1841 H1864 0.950 . S
C1842 C1841 1.349 . S
C1842 C1854 1.349 . S
C1843 C1841 1.327 . S
C1843 C1859 1.429 . S
C1843 H1865 0.950 . S
C1844 H1840 0.949 . S
C1844 C1852 1.574 . S
C1844 C1860 1.368 . S
H1845 C1853 0.950 . S
H1846 C1851 0.950 . S
H1847 C1852 0.949 . S
H1848 C1854 0.950 . S
H1849 C1855 0.950 . S
H1850 C1856 0.949 . S
C1851 H1846 0.950 . S
C1851 C1853 1.327 . S
C1851 C1857 1.429 . S
C1852 C1844 1.574 . S
C1852 H1847 0.949 . S
C1852 C1858 1.368 . S
C1853 C1837 1.349 . S
C1853 H1845 0.950 . S
C1853 C1851 1.327 . S
C1854 C1842 1.349 . S
C1854 H1848 0.950 . S
C1854 C1855 1.327 . S
C1855 H1849 0.950 . S
C1855 C1854 1.327 . S
C1855 C1859 1.429 . S
C1856 C1839 1.574 . S
C1856 H1850 0.949 . S
C1856 C1860 1.368 . S
C1857 C1838 1.429 . S
C1857 C1851 1.429 . S
C1857 C1858 1.523 1_455 S
C1858 C1839 1.368 . S
C1858 C1852 1.368 . S
C1858 C1857 1.523 1_655 S
C1859 C1843 1.429 . S
C1859 C1855 1.429 . S
C1859 C1860 1.523 . S
C1860 C1844 1.368 . S
C1860 C1856 1.368 . S
C1860 C1859 1.523 . S
H1861 C1836 0.950 . S
H1862 C1838 0.950 . S
H1863 C1839 0.949 . S
H1864 C1841 0.950 . S
H1865 C1843 0.950 . S
C1866 C1867 1.349 . S
C1866 C1868 1.327 . S
C1866 H1891 0.950 . S
C1867 C1866 1.349 . S
C1867 C1883 1.349 . S
C1868 C1866 1.327 . S
C1868 C1887 1.429 . S
C1868 H1892 0.950 . S
C1869 C1886 1.574 . S
C1869 C1888 1.368 . S
C1869 H1893 0.949 . S
H1870 C1874 0.949 . S
C1871 C1872 1.349 . S
C1871 C1873 1.327 . S
C1871 H1894 0.950 . S
C1872 C1871 1.349 . S
C1872 C1884 1.349 . S
C1873 C1871 1.327 . S
C1873 C1889 1.429 . S
C1873 H1895 0.950 . S
C1874 H1870 0.949 . S
C1874 C1882 1.574 . S
C1874 C1890 1.368 . S
H1875 C1883 0.950 . S
H1876 C1881 0.950 . S
H1877 C1882 0.949 . S
H1878 C1884 0.950 . S
H1879 C1885 0.950 . S
H1880 C1886 0.949 . S
C1881 H1876 0.950 . S
C1881 C1883 1.327 . S
C1881 C1887 1.429 . S
C1882 C1874 1.574 . S
C1882 H1877 0.949 . S
C1882 C1888 1.368 . S
C1883 C1867 1.349 . S
C1883 H1875 0.950 . S
C1883 C1881 1.327 . S
C1884 C1872 1.349 . S
C1884 H1878 0.950 . S
C1884 C1885 1.327 . S
C1885 H1879 0.950 . S
C1885 C1884 1.327 . S
C1885 C1889 1.429 . S
C1886 C1869 1.574 . S
C1886 H1880 0.949 . S
C1886 C1890 1.368 . S
C1887 C1868 1.429 . S
C1887 C1881 1.429 . S
C1887 C1888 1.523 . S
C1888 C1869 1.368 . S
C1888 C1882 1.368 . S
C1888 C1887 1.523 . S
C1889 C1873 1.429 . S
C1889 C1885 1.429 . S
C1889 C1890 1.523 . S
C1890 C1874 1.368 . S
C1890 C1886 1.368 . S
C1890 C1889 1.523 . S
H1891 C1866 0.950 . S
H1892 C1868 0.950 . S
H1893 C1869 0.949 . S
H1894 C1871 0.950 . S
H1895 C1873 0.950 . S
C1896 C1897 1.349 . S
C1896 C1898 1.327 . S
C1896 H1921 0.950 . S
C1897 C1896 1.349 . S
C1897 C1913 1.349 . S
C1898 C1896 1.327 . S
C1898 C1917 1.429 . S
C1898 H1922 0.950 . S
C1899 C1916 1.574 . S
C1899 C1918 1.368 1_545 S
C1899 H1923 0.949 1_545 S
H1900 C1904 0.949 . S
C1901 C1902 1.349 . S
C1901 C1903 1.327 . S
C1901 H1924 0.950 . S
C1902 C1901 1.349 . S
C1902 C1914 1.349 . S
C1903 C1901 1.327 . S
C1903 C1919 1.429 . S
C1903 H1925 0.950 . S
C1904 H1900 0.949 . S
C1904 C1912 1.574 . S
C1904 C1920 1.368 . S
H1905 C1913 0.950 . S
H1906 C1911 0.950 . S
H1907 C1912 0.949 1_565 S
H1908 C1914 0.950 . S
H1909 C1915 0.950 . S
H1910 C1916 0.949 . S
C1911 H1906 0.950 . S
C1911 C1913 1.327 . S
C1911 C1917 1.429 . S
C1912 C1904 1.574 . S
C1912 H1907 0.949 1_545 S
C1912 C1918 1.368 1_545 S
C1913 C1897 1.349 . S
C1913 H1905 0.950 . S
C1913 C1911 1.327 . S
C1914 C1902 1.349 . S
C1914 H1908 0.950 . S
C1914 C1915 1.327 . S
C1915 H1909 0.950 . S
C1915 C1914 1.327 . S
C1915 C1919 1.429 . S
C1916 C1899 1.574 . S
C1916 H1910 0.949 . S
C1916 C1920 1.368 . S
C1917 C1898 1.429 . S
C1917 C1911 1.429 . S
C1917 C1918 1.523 . S
C1918 C1899 1.368 1_565 S
C1918 C1912 1.368 1_565 S
C1918 C1917 1.523 . S
C1919 C1903 1.429 . S
C1919 C1915 1.429 . S
C1919 C1920 1.523 . S
C1920 C1904 1.368 . S
C1920 C1916 1.368 . S
C1920 C1919 1.523 . S
H1921 C1896 0.950 . S
H1922 C1898 0.950 . S
H1923 C1899 0.949 1_565 S
H1924 C1901 0.950 . S
H1925 C1903 0.950 . S
C1926 C1927 1.349 . S
C1926 C1928 1.327 . S
C1926 H1951 0.950 . S
C1927 C1926 1.349 . S
C1927 C1943 1.349 . S
C1928 C1926 1.327 . S
C1928 C1947 1.429 . S
C1928 H1952 0.950 . S
C1929 C1946 1.574 . S
C1929 C1948 1.368 . S
C1929 H1953 0.949 . S
H1930 C1934 0.949 . S
C1931 C1932 1.349 . S
C1931 C1933 1.327 . S
C1931 H1954 0.950 . S
C1932 C1931 1.349 . S
C1932 C1944 1.349 . S
C1933 C1931 1.327 . S
C1933 C1949 1.429 . S
C1933 H1955 0.950 . S
C1934 H1930 0.949 . S
C1934 C1942 1.574 . S
C1934 C1950 1.368 . S
H1935 C1943 0.950 . S
H1936 C1941 0.950 . S
H1937 C1942 0.949 . S
H1938 C1944 0.950 . S
H1939 C1945 0.950 . S
H1940 C1946 0.949 . S
C1941 H1936 0.950 . S
C1941 C1943 1.327 . S
C1941 C1947 1.429 . S
C1942 C1934 1.574 . S
C1942 H1937 0.949 . S
C1942 C1948 1.368 . S
C1943 C1927 1.349 . S
C1943 H1935 0.950 . S
C1943 C1941 1.327 . S
C1944 C1932 1.349 . S
C1944 H1938 0.950 . S
C1944 C1945 1.327 . S
C1945 H1939 0.950 . S
C1945 C1944 1.327 . S
C1945 C1949 1.429 . S
C1946 C1929 1.574 . S
C1946 H1940 0.949 . S
C1946 C1950 1.368 . S
C1947 C1928 1.429 . S
C1947 C1941 1.429 . S
C1947 C1948 1.523 . S
C1948 C1929 1.368 . S
C1948 C1942 1.368 . S
C1948 C1947 1.523 . S
C1949 C1933 1.429 . S
C1949 C1945 1.429 . S
C1949 C1950 1.523 . S
C1950 C1934 1.368 . S
C1950 C1946 1.368 . S
C1950 C1949 1.523 . S
H1951 C1926 0.950 . S
H1952 C1928 0.950 . S
H1953 C1929 0.949 . S
H1954 C1931 0.950 . S
H1955 C1933 0.950 . S
C1956 C1957 1.349 . S
C1956 C1958 1.327 . S
C1956 H1981 0.950 . S
C1957 C1956 1.349 . S
C1957 C1973 1.349 . S
C1958 C1956 1.327 . S
C1958 C1977 1.429 . S
C1958 H1982 0.950 . S
C1959 C1976 1.574 . S
C1959 C1978 1.368 . S
C1959 H1983 0.949 . S
H1960 C1964 0.949 . S
C1961 C1962 1.349 . S
C1961 C1963 1.327 . S
C1961 H1984 0.950 . S
C1962 C1961 1.349 . S
C1962 C1974 1.349 . S
C1963 C1961 1.327 . S
C1963 C1979 1.429 . S
C1963 H1985 0.950 . S
C1964 H1960 0.949 . S
C1964 C1972 1.574 . S
C1964 C1980 1.368 . S
H1965 C1973 0.950 . S
H1966 C1971 0.950 . S
H1967 C1972 0.949 . S
H1968 C1974 0.950 . S
H1969 C1975 0.950 . S
H1970 C1976 0.949 . S
C1971 H1966 0.950 . S
C1971 C1973 1.327 . S
C1971 C1977 1.429 . S
C1972 C1964 1.574 . S
C1972 H1967 0.949 . S
C1972 C1978 1.368 . S
C1973 C1957 1.349 . S
C1973 H1965 0.950 . S
C1973 C1971 1.327 . S
C1974 C1962 1.349 . S
C1974 H1968 0.950 . S
C1974 C1975 1.327 . S
C1975 H1969 0.950 . S
C1975 C1974 1.327 . S
C1975 C1979 1.429 . S
C1976 C1959 1.574 . S
C1976 H1970 0.949 . S
C1976 C1980 1.368 . S
C1977 C1958 1.429 . S
C1977 C1971 1.429 . S
C1977 C1978 1.523 . S
C1978 C1959 1.368 . S
C1978 C1972 1.368 . S
C1978 C1977 1.523 . S
C1979 C1963 1.429 . S
C1979 C1975 1.429 . S
C1979 C1980 1.523 . S
C1980 C1964 1.368 . S
C1980 C1976 1.368 . S
C1980 C1979 1.523 . S
H1981 C1956 0.950 . S
H1982 C1958 0.950 . S
H1983 C1959 0.949 . S
H1984 C1961 0.950 . S
H1985 C1963 0.950 . S
C1986 C1987 1.349 . S
C1986 C1988 1.327 . S
C1986 H2011 0.950 . S
C1987 C1986 1.349 . S
C1987 C2003 1.349 . S
C1988 C1986 1.327 . S
C1988 C2007 1.429 . S
C1988 H2012 0.950 . S
C1989 C2006 1.574 . S
C1989 C2008 1.368 . S
C1989 H2013 0.949 . S
H1990 C1994 0.949 . S
C1991 C1992 1.349 . S
C1991 C1993 1.327 . S
C1991 H2014 0.950 . S
C1992 C1991 1.349 . S
C1992 C2004 1.349 . S
C1993 C1991 1.327 . S
C1993 C2009 1.429 . S
C1993 H2015 0.950 . S
C1994 H1990 0.949 . S
C1994 C2002 1.574 . S
C1994 C2010 1.368 . S
H1995 C2003 0.950 . S
H1996 C2001 0.950 . S
H1997 C2002 0.949 . S
H1998 C2004 0.950 . S
H1999 C2005 0.950 . S
H2000 C2006 0.949 . S
C2001 H1996 0.950 . S
C2001 C2003 1.327 . S
C2001 C2007 1.429 . S
C2002 C1994 1.574 . S
C2002 H1997 0.949 . S
C2002 C2008 1.368 . S
C2003 C1987 1.349 . S
C2003 H1995 0.950 . S
C2003 C2001 1.327 . S
C2004 C1992 1.349 . S
C2004 H1998 0.950 . S
C2004 C2005 1.327 . S
C2005 H1999 0.950 . S
C2005 C2004 1.327 . S
C2005 C2009 1.429 . S
C2006 C1989 1.574 . S
C2006 H2000 0.949 . S
C2006 C2010 1.368 . S
C2007 C1988 1.429 . S
C2007 C2001 1.429 . S
C2007 C2008 1.523 . S
C2008 C1989 1.368 . S
C2008 C2002 1.368 . S
C2008 C2007 1.523 . S
C2009 C1993 1.429 . S
C2009 C2005 1.429 . S
C2009 C2010 1.523 . S
C2010 C1994 1.368 . S
C2010 C2006 1.368 . S
C2010 C2009 1.523 . S
H2011 C1986 0.950 . S
H2012 C1988 0.950 . S
H2013 C1989 0.949 . S
H2014 C1991 0.950 . S
H2015 C1993 0.950 . S
C2016 C2017 1.349 . S
C2016 C2018 1.327 . S
C2016 H2041 0.950 . S
C2017 C2016 1.349 . S
C2017 C2033 1.349 . S
C2018 C2016 1.327 . S
C2018 C2037 1.429 . S
C2018 H2042 0.950 . S
C2019 C2036 1.574 . S
C2019 C2038 1.368 . S
C2019 H2043 0.949 . S
H2020 C2024 0.949 . S
C2021 C2022 1.349 . S
C2021 C2023 1.327 . S
C2021 H2044 0.950 . S
C2022 C2021 1.349 . S
C2022 C2034 1.342 1_565 S
C2023 C2021 1.327 . S
C2023 C2039 1.429 . S
C2023 H2045 0.950 . S
C2024 H2020 0.949 . S
C2024 C2032 1.574 . S
C2024 C2040 1.368 . S
H2025 C2033 0.950 . S
H2026 C2031 0.950 . S
H2027 C2032 0.949 . S
H2028 C2034 0.972 . S
H2029 C2035 0.950 1_545 S
H2030 C2036 0.949 . S
C2031 H2026 0.950 . S
C2031 C2033 1.327 . S
C2031 C2037 1.429 . S
C2032 C2024 1.574 . S
C2032 H2027 0.949 . S
C2032 C2038 1.368 . S
C2033 C2017 1.349 . S
C2033 H2025 0.950 . S
C2033 C2031 1.327 . S
C2034 C2022 1.342 1_545 S
C2034 H2028 0.972 . S
C2034 C2035 1.315 1_545 S
C2035 H2029 0.950 1_565 S
C2035 C2034 1.315 1_565 S
C2035 C2039 1.429 . S
C2036 C2019 1.574 . S
C2036 H2030 0.949 . S
C2036 C2040 1.368 . S
C2037 C2018 1.429 . S
C2037 C2031 1.429 . S
C2037 C2038 1.523 . S
C2038 C2019 1.368 . S
C2038 C2032 1.368 . S
C2038 C2037 1.523 . S
C2039 C2023 1.429 . S
C2039 C2035 1.429 . S
C2039 C2040 1.523 . S
C2040 C2024 1.368 . S
C2040 C2036 1.368 . S
C2040 C2039 1.523 . S
H2041 C2016 0.950 . S
H2042 C2018 0.950 . S
H2043 C2019 0.949 . S
H2044 C2021 0.950 . S
H2045 C2023 0.950 . S
C2046 C2047 1.349 . S
C2046 C2048 1.327 . S
C2046 H2071 0.950 1_455 S
C2047 C2046 1.349 . S
C2047 C2063 1.349 . S
C2048 C2046 1.327 . S
C2048 C2067 1.429 . S
C2048 H2072 0.950 1_455 S
C2049 C2066 1.574 . S
C2049 C2068 1.368 . S
C2049 H2073 0.949 . S
H2050 C2054 0.956 . S
C2051 C2052 1.349 . S
C2051 C2053 1.327 . S
C2051 H2074 0.950 . S
C2052 C2051 1.349 . S
C2052 C2064 1.345 1_455 S
C2053 C2051 1.327 . S
C2053 C2069 1.429 . S
C2053 H2075 0.950 . S
C2054 H2050 0.956 . S
C2054 C2062 1.575 1_655 S
C2054 C2070 1.360 1_655 S
H2055 C2063 0.950 . S
H2056 C2061 0.950 . S
H2057 C2062 0.947 1_655 S
H2058 C2064 0.953 . S
H2059 C2065 0.955 . S
H2060 C2066 0.949 . S
C2061 H2056 0.950 . S
C2061 C2063 1.327 . S
C2061 C2067 1.429 . S
C2062 C2054 1.575 1_455 S
C2062 H2057 0.947 1_455 S
C2062 C2068 1.371 . S
C2063 C2047 1.349 . S
C2063 H2055 0.950 . S
C2063 C2061 1.327 . S
C2064 C2052 1.345 1_655 S
C2064 H2058 0.953 . S
C2064 C2065 1.327 . S
C2065 H2059 0.955 . S
C2065 C2064 1.327 . S
C2065 C2069 1.424 1_655 S
C2066 C2049 1.574 . S
C2066 H2060 0.949 . S
C2066 C2070 1.368 . S
C2067 C2048 1.429 . S
C2067 C2061 1.429 . S
C2067 C2068 1.523 . S
C2068 C2049 1.368 . S
C2068 C2062 1.371 . S
C2068 C2067 1.523 . S
C2069 C2053 1.429 . S
C2069 C2065 1.424 1_455 S
C2069 C2070 1.523 . S
C2070 C2054 1.360 1_455 S
C2070 C2066 1.368 . S
C2070 C2069 1.523 . S
H2071 C2046 0.950 1_655 S
H2072 C2048 0.950 1_655 S
H2073 C2049 0.949 . S
H2074 C2051 0.950 . S
H2075 C2053 0.950 . S
C2076 C2077 1.349 . S
C2076 C2078 1.327 . S
C2076 H2101 0.950 . S
C2077 C2076 1.349 . S
C2077 C2093 1.349 . S
C2078 C2076 1.327 . S
C2078 C2097 1.429 . S
C2078 H2102 0.950 . S
C2079 C2096 1.574 . S
C2079 C2098 1.368 . S
C2079 H2103 0.949 . S
H2080 C2084 0.949 . S
C2081 C2082 1.349 . S
C2081 C2083 1.327 . S
C2081 H2104 0.950 . S
C2082 C2081 1.349 . S
C2082 C2094 1.349 . S
C2083 C2081 1.327 . S
C2083 C2099 1.429 . S
C2083 H2105 0.950 . S
C2084 H2080 0.949 . S
C2084 C2092 1.574 . S
C2084 C2100 1.368 . S
H2085 C2093 0.950 . S
H2086 C2091 0.950 . S
H2087 C2092 0.949 . S
H2088 C2094 0.950 . S
H2089 C2095 0.950 . S
H2090 C2096 0.949 . S
C2091 H2086 0.950 . S
C2091 C2093 1.327 . S
C2091 C2097 1.429 . S
C2092 C2084 1.574 . S
C2092 H2087 0.949 . S
C2092 C2098 1.368 . S
C2093 C2077 1.349 . S
C2093 H2085 0.950 . S
C2093 C2091 1.327 . S
C2094 C2082 1.349 . S
C2094 H2088 0.950 . S
C2094 C2095 1.327 . S
C2095 H2089 0.950 . S
C2095 C2094 1.327 . S
C2095 C2099 1.429 . S
C2096 C2079 1.574 . S
C2096 H2090 0.949 . S
C2096 C2100 1.368 . S
C2097 C2078 1.429 . S
C2097 C2091 1.429 . S
C2097 C2098 1.523 . S
C2098 C2079 1.368 . S
C2098 C2092 1.368 . S
C2098 C2097 1.523 . S
C2099 C2083 1.429 . S
C2099 C2095 1.429 . S
C2099 C2100 1.523 . S
C2100 C2084 1.368 . S
C2100 C2096 1.368 . S
C2100 C2099 1.523 . S
H2101 C2076 0.950 . S
H2102 C2078 0.950 . S
H2103 C2079 0.949 . S
H2104 C2081 0.950 . S
H2105 C2083 0.950 . S
C2106 C2107 1.349 . S
C2106 C2108 1.327 . S
C2106 H2131 0.950 . S
C2107 C2106 1.349 . S
C2107 C2123 1.349 . S
C2108 C2106 1.327 . S
C2108 C2127 1.429 . S
C2108 H2132 0.950 . S
C2109 C2126 1.574 . S
C2109 C2128 1.368 . S
C2109 H2133 0.949 . S
H2110 C2114 0.949 . S
C2111 C2112 1.349 . S
C2111 C2113 1.327 . S
C2111 H2134 0.950 . S
C2112 C2111 1.349 . S
C2112 C2124 1.349 . S
C2113 C2111 1.327 . S
C2113 C2129 1.429 . S
C2113 H2135 0.950 . S
C2114 H2110 0.949 . S
C2114 C2122 1.574 . S
C2114 C2130 1.368 . S
H2115 C2123 0.950 . S
H2116 C2121 0.950 . S
H2117 C2122 0.949 . S
H2118 C2124 0.950 . S
H2119 C2125 0.950 . S
H2120 C2126 0.949 . S
C2121 H2116 0.950 . S
C2121 C2123 1.327 . S
C2121 C2127 1.429 . S
C2122 C2114 1.574 . S
C2122 H2117 0.949 . S
C2122 C2128 1.368 . S
C2123 C2107 1.349 . S
C2123 H2115 0.950 . S
C2123 C2121 1.327 . S
C2124 C2112 1.349 . S
C2124 H2118 0.950 . S
C2124 C2125 1.327 . S
C2125 H2119 0.950 . S
C2125 C2124 1.327 . S
C2125 C2129 1.429 . S
C2126 C2109 1.574 . S
C2126 H2120 0.949 . S
C2126 C2130 1.368 . S
C2127 C2108 1.429 . S
C2127 C2121 1.429 . S
C2127 C2128 1.523 . S
C2128 C2109 1.368 . S
C2128 C2122 1.368 . S
C2128 C2127 1.523 . S
C2129 C2113 1.429 . S
C2129 C2125 1.429 . S
C2129 C2130 1.523 . S
C2130 C2114 1.368 . S
C2130 C2126 1.368 . S
C2130 C2129 1.523 . S
H2131 C2106 0.950 . S
H2132 C2108 0.950 . S
H2133 C2109 0.949 . S
H2134 C2111 0.950 . S
H2135 C2113 0.950 . S
C2136 C2137 1.349 . S
C2136 C2138 1.327 . S
C2136 H2161 0.950 . S
C2137 C2136 1.349 . S
C2137 C2153 1.349 . S
C2138 C2136 1.327 . S
C2138 C2157 1.429 . S
C2138 H2162 0.950 . S
C2139 C2156 1.574 . S
C2139 C2158 1.368 . S
C2139 H2163 0.949 . S
H2140 C2144 0.949 . S
C2141 C2142 1.349 . S
C2141 C2143 1.327 . S
C2141 H2164 0.950 . S
C2142 C2141 1.349 . S
C2142 C2154 1.349 . S
C2143 C2141 1.327 . S
C2143 C2159 1.429 . S
C2143 H2165 0.950 . S
C2144 H2140 0.949 . S
C2144 C2152 1.574 . S
C2144 C2160 1.368 . S
H2145 C2153 0.950 . S
H2146 C2151 0.950 . S
H2147 C2152 0.949 . S
H2148 C2154 0.950 . S
H2149 C2155 0.950 . S
H2150 C2156 0.949 . S
C2151 H2146 0.950 . S
C2151 C2153 1.327 . S
C2151 C2157 1.429 . S
C2152 C2144 1.574 . S
C2152 H2147 0.949 . S
C2152 C2158 1.368 . S
C2153 C2137 1.349 . S
C2153 H2145 0.950 . S
C2153 C2151 1.327 . S
C2154 C2142 1.349 . S
C2154 H2148 0.950 . S
C2154 C2155 1.327 . S
C2155 H2149 0.950 . S
C2155 C2154 1.327 . S
C2155 C2159 1.429 . S
C2156 C2139 1.574 . S
C2156 H2150 0.949 . S
C2156 C2160 1.368 . S
C2157 C2138 1.429 . S
C2157 C2151 1.429 . S
C2157 C2158 1.523 . S
C2158 C2139 1.368 . S
C2158 C2152 1.368 . S
C2158 C2157 1.523 . S
C2159 C2143 1.429 . S
C2159 C2155 1.429 . S
C2159 C2160 1.523 . S
C2160 C2144 1.368 . S
C2160 C2156 1.368 . S
C2160 C2159 1.523 . S
H2161 C2136 0.950 . S
H2162 C2138 0.950 . S
H2163 C2139 0.949 . S
H2164 C2141 0.950 . S
H2165 C2143 0.950 . S
C2166 C2167 1.349 . S
C2166 C2168 1.327 . S
C2166 H2191 0.950 . S
C2167 C2166 1.349 . S
C2167 C2183 1.349 . S
C2168 C2166 1.327 . S
C2168 C2187 1.429 . S
C2168 H2192 0.950 . S
C2169 C2186 1.574 . S
C2169 C2188 1.368 . S
C2169 H2193 0.949 . S
H2170 C2174 0.949 . S
C2171 C2172 1.349 . S
C2171 C2173 1.327 . S
C2171 H2194 0.950 . S
C2172 C2171 1.349 . S
C2172 C2184 1.355 . S
C2173 C2171 1.327 . S
C2173 C2189 1.429 . S
C2173 H2195 0.950 . S
C2174 H2170 0.949 . S
C2174 C2182 1.574 . S
C2174 C2190 1.368 . S
H2175 C2183 0.950 . S
H2176 C2181 0.950 . S
H2177 C2182 0.949 . S
H2178 C2184 0.942 1_565 S
H2179 C2185 0.950 1_565 S
H2180 C2186 0.949 . S
C2181 H2176 0.950 . S
C2181 C2183 1.327 . S
C2181 C2187 1.429 . S
C2182 C2174 1.574 . S
C2182 H2177 0.949 . S
C2182 C2188 1.368 . S
C2183 C2167 1.349 . S
C2183 H2175 0.950 . S
C2183 C2181 1.327 . S
C2184 C2172 1.355 . S
C2184 H2178 0.942 1_545 S
C2184 C2185 1.329 . S
C2185 H2179 0.950 1_545 S
C2185 C2184 1.329 . S
C2185 C2189 1.429 . S
C2186 C2169 1.574 . S
C2186 H2180 0.949 . S
C2186 C2190 1.368 . S
C2187 C2168 1.429 . S
C2187 C2181 1.429 . S
C2187 C2188 1.523 . S
C2188 C2169 1.368 . S
C2188 C2182 1.368 . S
C2188 C2187 1.523 . S
C2189 C2173 1.429 . S
C2189 C2185 1.429 . S
C2189 C2190 1.523 . S
C2190 C2174 1.368 . S
C2190 C2186 1.368 . S
C2190 C2189 1.523 . S
H2191 C2166 0.950 . S
H2192 C2168 0.950 . S
H2193 C2169 0.949 . S
H2194 C2171 0.950 . S
H2195 C2173 0.950 . S
C2196 C2197 1.349 . S
C2196 C2198 1.327 . S
C2196 H2221 0.950 . S
C2197 C2196 1.349 . S
C2197 C2213 1.349 . S
C2198 C2196 1.327 . S
C2198 C2217 1.429 . S
C2198 H2222 0.950 . S
C2199 C2216 1.574 . S
C2199 C2218 1.368 . S
C2199 H2223 0.949 . S
H2200 C2204 0.949 . S
C2201 C2202 1.349 . S
C2201 C2203 1.327 . S
C2201 H2224 0.950 . S
C2202 C2201 1.349 . S
C2202 C2214 1.349 . S
C2203 C2201 1.327 . S
C2203 C2219 1.429 . S
C2203 H2225 0.950 . S
C2204 H2200 0.949 . S
C2204 C2212 1.574 . S
C2204 C2220 1.368 . S
H2205 C2213 0.950 . S
H2206 C2211 0.950 . S
H2207 C2212 0.949 . S
H2208 C2214 0.950 . S
H2209 C2215 0.950 . S
H2210 C2216 0.949 . S
C2211 H2206 0.950 . S
C2211 C2213 1.327 . S
C2211 C2217 1.429 . S
C2212 C2204 1.574 . S
C2212 H2207 0.949 . S
C2212 C2218 1.368 . S
C2213 C2197 1.349 . S
C2213 H2205 0.950 . S
C2213 C2211 1.327 . S
C2214 C2202 1.349 . S
C2214 H2208 0.950 . S
C2214 C2215 1.327 . S
C2215 H2209 0.950 . S
C2215 C2214 1.327 . S
C2215 C2219 1.429 . S
C2216 C2199 1.574 . S
C2216 H2210 0.949 . S
C2216 C2220 1.368 . S
C2217 C2198 1.429 . S
C2217 C2211 1.429 . S
C2217 C2218 1.523 . S
C2218 C2199 1.368 . S
C2218 C2212 1.368 . S
C2218 C2217 1.523 . S
C2219 C2203 1.429 . S
C2219 C2215 1.429 . S
C2219 C2220 1.523 . S
C2220 C2204 1.368 . S
C2220 C2216 1.368 . S
C2220 C2219 1.523 . S
H2221 C2196 0.950 . S
H2222 C2198 0.950 . S
H2223 C2199 0.949 . S
H2224 C2201 0.950 . S
H2225 C2203 0.950 . S
C2226 C2227 1.349 . S
C2226 C2228 1.327 . S
C2226 H2251 0.950 . S
C2227 C2226 1.349 . S
C2227 C2243 1.349 . S
C2228 C2226 1.327 . S
C2228 C2247 1.429 . S
C2228 H2252 0.950 . S
C2229 C2246 1.574 . S
C2229 C2248 1.368 . S
C2229 H2253 0.949 . S
H2230 C2234 0.949 . S
C2231 C2232 1.349 . S
C2231 C2233 1.327 . S
C2231 H2254 0.950 . S
C2232 C2231 1.349 . S
C2232 C2244 1.349 . S
C2233 C2231 1.327 . S
C2233 C2249 1.429 . S
C2233 H2255 0.950 . S
C2234 H2230 0.949 . S
C2234 C2242 1.574 . S
C2234 C2250 1.368 . S
H2235 C2243 0.950 . S
H2236 C2241 0.950 . S
H2237 C2242 0.949 . S
H2238 C2244 0.950 . S
H2239 C2245 0.950 . S
H2240 C2246 0.949 . S
C2241 H2236 0.950 . S
C2241 C2243 1.327 . S
C2241 C2247 1.429 . S
C2242 C2234 1.574 . S
C2242 H2237 0.949 . S
C2242 C2248 1.368 . S
C2243 C2227 1.349 . S
C2243 H2235 0.950 . S
C2243 C2241 1.327 . S
C2244 C2232 1.349 . S
C2244 H2238 0.950 . S
C2244 C2245 1.327 . S
C2245 H2239 0.950 . S
C2245 C2244 1.327 . S
C2245 C2249 1.429 . S
C2246 C2229 1.574 . S
C2246 H2240 0.949 . S
C2246 C2250 1.368 . S
C2247 C2228 1.429 . S
C2247 C2241 1.429 . S
C2247 C2248 1.523 . S
C2248 C2229 1.368 . S
C2248 C2242 1.368 . S
C2248 C2247 1.523 . S
C2249 C2233 1.429 . S
C2249 C2245 1.429 . S
C2249 C2250 1.523 . S
C2250 C2234 1.368 . S
C2250 C2246 1.368 . S
C2250 C2249 1.523 . S
H2251 C2226 0.950 . S
H2252 C2228 0.950 . S
H2253 C2229 0.949 . S
H2254 C2231 0.950 . S
H2255 C2233 0.950 . S
C2256 C2257 1.349 . S
C2256 C2258 1.327 . S
C2256 H2281 0.950 . S
C2257 C2256 1.349 . S
C2257 C2273 1.349 . S
C2258 C2256 1.327 . S
C2258 C2277 1.429 . S
C2258 H2282 0.950 . S
C2259 C2276 1.574 . S
C2259 C2278 1.368 . S
C2259 H2283 0.949 . S
H2260 C2264 0.949 . S
C2261 C2262 1.349 . S
C2261 C2263 1.327 . S
C2261 H2284 0.950 . S
C2262 C2261 1.349 . S
C2262 C2274 1.349 . S
C2263 C2261 1.327 . S
C2263 C2279 1.429 . S
C2263 H2285 0.950 . S
C2264 H2260 0.949 . S
C2264 C2272 1.574 . S
C2264 C2280 1.368 . S
H2265 C2273 0.950 . S
H2266 C2271 0.950 . S
H2267 C2272 0.949 . S
H2268 C2274 0.950 . S
H2269 C2275 0.950 . S
H2270 C2276 0.949 . S
C2271 H2266 0.950 . S
C2271 C2273 1.327 . S
C2271 C2277 1.429 . S
C2272 C2264 1.574 . S
C2272 H2267 0.949 . S
C2272 C2278 1.368 . S
C2273 C2257 1.349 . S
C2273 H2265 0.950 . S
C2273 C2271 1.327 . S
C2274 C2262 1.349 . S
C2274 H2268 0.950 . S
C2274 C2275 1.327 . S
C2275 H2269 0.950 . S
C2275 C2274 1.327 . S
C2275 C2279 1.429 . S
C2276 C2259 1.574 . S
C2276 H2270 0.949 . S
C2276 C2280 1.368 . S
C2277 C2258 1.429 . S
C2277 C2271 1.429 . S
C2277 C2278 1.523 . S
C2278 C2259 1.368 . S
C2278 C2272 1.368 . S
C2278 C2277 1.523 . S
C2279 C2263 1.429 . S
C2279 C2275 1.429 . S
C2279 C2280 1.523 . S
C2280 C2264 1.368 . S
C2280 C2276 1.368 . S
C2280 C2279 1.523 . S
H2281 C2256 0.950 . S
H2282 C2258 0.950 . S
H2283 C2259 0.949 . S
H2284 C2261 0.950 . S
H2285 C2263 0.950 . S
C2286 C2287 1.349 . S
C2286 C2288 1.327 . S
C2286 H2311 0.950 . S
C2287 C2286 1.349 . S
C2287 C2303 1.349 . S
C2288 C2286 1.327 . S
C2288 C2307 1.429 . S
C2288 H2312 0.950 . S
C2289 C2306 1.574 . S
C2289 C2308 1.368 . S
C2289 H2313 0.949 . S
H2290 C2294 0.949 . S
C2291 C2292 1.349 . S
C2291 C2293 1.327 . S
C2291 H2314 0.950 . S
C2292 C2291 1.349 . S
C2292 C2304 1.349 . S
C2293 C2291 1.327 . S
C2293 C2309 1.429 . S
C2293 H2315 0.950 . S
C2294 H2290 0.949 . S
C2294 C2302 1.574 . S
C2294 C2310 1.368 . S
H2295 C2303 0.950 . S
H2296 C2301 0.950 . S
H2297 C2302 0.949 . S
H2298 C2304 0.950 . S
H2299 C2305 0.950 . S
H2300 C2306 0.949 . S
C2301 H2296 0.950 . S
C2301 C2303 1.327 . S
C2301 C2307 1.429 . S
C2302 C2294 1.574 . S
C2302 H2297 0.949 . S
C2302 C2308 1.368 . S
C2303 C2287 1.349 . S
C2303 H2295 0.950 . S
C2303 C2301 1.327 . S
C2304 C2292 1.349 . S
C2304 H2298 0.950 . S
C2304 C2305 1.327 . S
C2305 H2299 0.950 . S
C2305 C2304 1.327 . S
C2305 C2309 1.429 . S
C2306 C2289 1.574 . S
C2306 H2300 0.949 . S
C2306 C2310 1.368 . S
C2307 C2288 1.429 . S
C2307 C2301 1.429 . S
C2307 C2308 1.523 . S
C2308 C2289 1.368 . S
C2308 C2302 1.368 . S
C2308 C2307 1.523 . S
C2309 C2293 1.429 . S
C2309 C2305 1.429 . S
C2309 C2310 1.523 . S
C2310 C2294 1.368 . S
C2310 C2306 1.368 . S
C2310 C2309 1.523 . S
H2311 C2286 0.950 . S
H2312 C2288 0.950 . S
H2313 C2289 0.949 . S
H2314 C2291 0.950 . S
H2315 C2293 0.950 . S
C2316 C2317 1.349 . S
C2316 C2318 1.327 . S
C2316 H2341 0.950 . S
C2317 C2316 1.349 . S
C2317 C2333 1.349 . S
C2318 C2316 1.327 . S
C2318 C2337 1.429 . S
C2318 H2342 0.950 . S
C2319 C2336 1.574 . S
C2319 C2338 1.368 . S
C2319 H2343 0.949 . S
H2320 C2324 0.949 . S
C2321 C2322 1.349 . S
C2321 C2323 1.327 . S
C2321 H2344 0.950 . S
C2322 C2321 1.349 . S
C2322 C2334 1.349 . S
C2323 C2321 1.327 . S
C2323 C2339 1.429 . S
C2323 H2345 0.950 . S
C2324 H2320 0.949 . S
C2324 C2332 1.574 . S
C2324 C2340 1.368 . S
H2325 C2333 0.950 . S
H2326 C2331 0.950 . S
H2327 C2332 0.949 . S
H2328 C2334 0.950 . S
H2329 C2335 0.950 . S
H2330 C2336 0.949 . S
C2331 H2326 0.950 . S
C2331 C2333 1.327 . S
C2331 C2337 1.429 . S
C2332 C2324 1.574 . S
C2332 H2327 0.949 . S
C2332 C2338 1.368 . S
C2333 C2317 1.349 . S
C2333 H2325 0.950 . S
C2333 C2331 1.327 . S
C2334 C2322 1.349 . S
C2334 H2328 0.950 . S
C2334 C2335 1.327 . S
C2335 H2329 0.950 . S
C2335 C2334 1.327 . S
C2335 C2339 1.429 . S
C2336 C2319 1.574 . S
C2336 H2330 0.949 . S
C2336 C2340 1.368 . S
C2337 C2318 1.429 . S
C2337 C2331 1.429 . S
C2337 C2338 1.523 . S
C2338 C2319 1.368 . S
C2338 C2332 1.368 . S
C2338 C2337 1.523 . S
C2339 C2323 1.429 . S
C2339 C2335 1.429 . S
C2339 C2340 1.523 . S
C2340 C2324 1.368 . S
C2340 C2336 1.368 . S
C2340 C2339 1.523 . S
H2341 C2316 0.950 . S
H2342 C2318 0.950 . S
H2343 C2319 0.949 . S
H2344 C2321 0.950 . S
H2345 C2323 0.950 . S
C2346 C2347 1.349 . S
C2346 C2348 1.327 . S
C2346 H2371 0.950 . S
C2347 C2346 1.349 . S
C2347 C2363 1.349 . S
C2348 C2346 1.327 . S
C2348 C2367 1.429 . S
C2348 H2372 0.950 . S
C2349 C2366 1.574 . S
C2349 C2368 1.368 . S
C2349 H2373 0.949 . S
H2350 C2354 0.949 . S
C2351 C2352 1.349 . S
C2351 C2353 1.327 . S
C2351 H2374 0.950 . S
C2352 C2351 1.349 . S
C2352 C2364 1.349 . S
C2353 C2351 1.327 . S
C2353 C2369 1.429 . S
C2353 H2375 0.950 . S
C2354 H2350 0.949 . S
C2354 C2362 1.574 . S
C2354 C2370 1.368 . S
H2355 C2363 0.950 . S
H2356 C2361 0.950 . S
H2357 C2362 0.949 . S
H2358 C2364 0.950 . S
H2359 C2365 0.950 . S
H2360 C2366 0.949 . S
C2361 H2356 0.950 . S
C2361 C2363 1.327 . S
C2361 C2367 1.429 . S
C2362 C2354 1.574 . S
C2362 H2357 0.949 . S
C2362 C2368 1.368 . S
C2363 C2347 1.349 . S
C2363 H2355 0.950 . S
C2363 C2361 1.327 . S
C2364 C2352 1.349 . S
C2364 H2358 0.950 . S
C2364 C2365 1.327 . S
C2365 H2359 0.950 . S
C2365 C2364 1.327 . S
C2365 C2369 1.429 . S
C2366 C2349 1.574 . S
C2366 H2360 0.949 . S
C2366 C2370 1.368 . S
C2367 C2348 1.429 . S
C2367 C2361 1.429 . S
C2367 C2368 1.523 . S
C2368 C2349 1.368 . S
C2368 C2362 1.368 . S
C2368 C2367 1.523 . S
C2369 C2353 1.429 . S
C2369 C2365 1.429 . S
C2369 C2370 1.523 . S
C2370 C2354 1.368 . S
C2370 C2366 1.368 . S
C2370 C2369 1.523 . S
H2371 C2346 0.950 . S
H2372 C2348 0.950 . S
H2373 C2349 0.949 . S
H2374 C2351 0.950 . S
H2375 C2353 0.950 . S
C2376 C2377 1.349 . S
C2376 C2378 1.327 . S
C2376 H2401 0.950 . S
C2377 C2376 1.349 . S
C2377 C2393 1.349 . S
C2378 C2376 1.327 . S
C2378 C2397 1.429 . S
C2378 H2402 0.950 . S
C2379 C2396 1.574 . S
C2379 C2398 1.368 . S
C2379 H2403 0.949 . S
H2380 C2384 0.949 . S
C2381 C2382 1.349 . S
C2381 C2383 1.327 . S
C2381 H2404 0.950 . S
C2382 C2381 1.349 . S
C2382 C2394 1.349 . S
C2383 C2381 1.327 . S
C2383 C2399 1.429 . S
C2383 H2405 0.950 . S
C2384 H2380 0.949 . S
C2384 C2392 1.574 . S
C2384 C2400 1.368 . S
H2385 C2393 0.950 . S
H2386 C2391 0.950 . S
H2387 C2392 0.949 . S
H2388 C2394 0.950 . S
H2389 C2395 0.950 . S
H2390 C2396 0.949 . S
C2391 H2386 0.950 . S
C2391 C2393 1.327 . S
C2391 C2397 1.429 . S
C2392 C2384 1.574 . S
C2392 H2387 0.949 . S
C2392 C2398 1.368 . S
C2393 C2377 1.349 . S
C2393 H2385 0.950 . S
C2393 C2391 1.327 . S
C2394 C2382 1.349 . S
C2394 H2388 0.950 . S
C2394 C2395 1.327 . S
C2395 H2389 0.950 . S
C2395 C2394 1.327 . S
C2395 C2399 1.429 . S
C2396 C2379 1.574 . S
C2396 H2390 0.949 . S
C2396 C2400 1.368 . S
C2397 C2378 1.429 . S
C2397 C2391 1.429 . S
C2397 C2398 1.523 . S
C2398 C2379 1.368 . S
C2398 C2392 1.368 . S
C2398 C2397 1.523 . S
C2399 C2383 1.429 . S
C2399 C2395 1.429 . S
C2399 C2400 1.523 . S
C2400 C2384 1.368 . S
C2400 C2396 1.368 . S
C2400 C2399 1.523 . S
H2401 C2376 0.950 . S
H2402 C2378 0.950 . S
H2403 C2379 0.949 . S
H2404 C2381 0.950 . S
H2405 C2383 0.950 . S
C2406 C2407 1.349 . S
C2406 C2408 1.327 . S
C2406 H2431 0.950 . S
C2407 C2406 1.349 . S
C2407 C2423 1.349 . S
C2408 C2406 1.327 . S
C2408 C2427 1.429 . S
C2408 H2432 0.950 . S
C2409 C2426 1.574 . S
C2409 C2428 1.368 . S
C2409 H2433 0.949 . S
H2410 C2414 0.949 . S
C2411 C2412 1.349 . S
C2411 C2413 1.327 . S
C2411 H2434 0.950 . S
C2412 C2411 1.349 . S
C2412 C2424 1.349 . S
C2413 C2411 1.327 . S
C2413 C2429 1.429 . S
C2413 H2435 0.950 . S
C2414 H2410 0.949 . S
C2414 C2422 1.574 . S
C2414 C2430 1.368 . S
H2415 C2423 0.950 . S
H2416 C2421 0.950 . S
H2417 C2422 0.949 . S
H2418 C2424 0.950 . S
H2419 C2425 0.950 . S
H2420 C2426 0.949 . S
C2421 H2416 0.950 . S
C2421 C2423 1.327 . S
C2421 C2427 1.429 . S
C2422 C2414 1.574 . S
C2422 H2417 0.949 . S
C2422 C2428 1.368 . S
C2423 C2407 1.349 . S
C2423 H2415 0.950 . S
C2423 C2421 1.327 . S
C2424 C2412 1.349 . S
C2424 H2418 0.950 . S
C2424 C2425 1.327 . S
C2425 H2419 0.950 . S
C2425 C2424 1.327 . S
C2425 C2429 1.429 . S
C2426 C2409 1.574 . S
C2426 H2420 0.949 . S
C2426 C2430 1.368 . S
C2427 C2408 1.429 . S
C2427 C2421 1.429 . S
C2427 C2428 1.523 . S
C2428 C2409 1.368 . S
C2428 C2422 1.368 . S
C2428 C2427 1.523 . S
C2429 C2413 1.429 . S
C2429 C2425 1.429 . S
C2429 C2430 1.523 . S
C2430 C2414 1.368 . S
C2430 C2426 1.368 . S
C2430 C2429 1.523 . S
H2431 C2406 0.950 . S
H2432 C2408 0.950 . S
H2433 C2409 0.949 . S
H2434 C2411 0.950 . S
H2435 C2413 0.950 . S
C2436 C2437 1.349 . S
C2436 C2438 1.327 . S
C2436 H2461 0.950 . S
C2437 C2436 1.349 . S
C2437 C2453 1.349 . S
C2438 C2436 1.327 . S
C2438 C2457 1.429 . S
C2438 H2462 0.950 . S
C2439 C2456 1.574 . S
C2439 C2458 1.368 . S
C2439 H2463 0.949 . S
H2440 C2444 0.949 . S
C2441 C2442 1.349 . S
C2441 C2443 1.327 . S
C2441 H2464 0.950 . S
C2442 C2441 1.349 . S
C2442 C2454 1.349 . S
C2443 C2441 1.327 . S
C2443 C2459 1.429 . S
C2443 H2465 0.950 . S
C2444 H2440 0.949 . S
C2444 C2452 1.574 . S
C2444 C2460 1.368 . S
H2445 C2453 0.950 . S
H2446 C2451 0.950 . S
H2447 C2452 0.949 . S
H2448 C2454 0.950 . S
H2449 C2455 0.950 . S
H2450 C2456 0.949 . S
C2451 H2446 0.950 . S
C2451 C2453 1.327 . S
C2451 C2457 1.429 . S
C2452 C2444 1.574 . S
C2452 H2447 0.949 . S
C2452 C2458 1.368 . S
C2453 C2437 1.349 . S
C2453 H2445 0.950 . S
C2453 C2451 1.327 . S
C2454 C2442 1.349 . S
C2454 H2448 0.950 . S
C2454 C2455 1.327 . S
C2455 H2449 0.950 . S
C2455 C2454 1.327 . S
C2455 C2459 1.429 . S
C2456 C2439 1.574 . S
C2456 H2450 0.949 . S
C2456 C2460 1.368 . S
C2457 C2438 1.429 . S
C2457 C2451 1.429 . S
C2457 C2458 1.523 . S
C2458 C2439 1.368 . S
C2458 C2452 1.368 . S
C2458 C2457 1.523 . S
C2459 C2443 1.429 . S
C2459 C2455 1.429 . S
C2459 C2460 1.523 . S
C2460 C2444 1.368 . S
C2460 C2456 1.368 . S
C2460 C2459 1.523 . S
H2461 C2436 0.950 . S
H2462 C2438 0.950 . S
H2463 C2439 0.949 . S
H2464 C2441 0.950 . S
H2465 C2443 0.950 . S
C2466 C2467 1.349 . S
C2466 C2468 1.327 . S
C2466 H2491 0.950 . S
C2467 C2466 1.349 . S
C2467 C2483 1.349 . S
C2468 C2466 1.327 . S
C2468 C2487 1.429 . S
C2468 H2492 0.950 . S
C2469 C2486 1.574 . S
C2469 C2488 1.368 . S
C2469 H2493 0.949 . S
H2470 C2474 0.949 . S
C2471 C2472 1.349 . S
C2471 C2473 1.327 . S
C2471 H2494 0.950 . S
C2472 C2471 1.349 . S
C2472 C2484 1.349 . S
C2473 C2471 1.327 . S
C2473 C2489 1.429 . S
C2473 H2495 0.950 . S
C2474 H2470 0.949 . S
C2474 C2482 1.574 . S
C2474 C2490 1.368 . S
H2475 C2483 0.950 . S
H2476 C2481 0.950 . S
H2477 C2482 0.949 . S
H2478 C2484 0.950 . S
H2479 C2485 0.950 . S
H2480 C2486 0.949 . S
C2481 H2476 0.950 . S
C2481 C2483 1.327 . S
C2481 C2487 1.429 . S
C2482 C2474 1.574 . S
C2482 H2477 0.949 . S
C2482 C2488 1.368 . S
C2483 C2467 1.349 . S
C2483 H2475 0.950 . S
C2483 C2481 1.327 . S
C2484 C2472 1.349 . S
C2484 H2478 0.950 . S
C2484 C2485 1.327 . S
C2485 H2479 0.950 . S
C2485 C2484 1.327 . S
C2485 C2489 1.429 . S
C2486 C2469 1.574 . S
C2486 H2480 0.949 . S
C2486 C2490 1.368 . S
C2487 C2468 1.429 . S
C2487 C2481 1.429 . S
C2487 C2488 1.523 . S
C2488 C2469 1.368 . S
C2488 C2482 1.368 . S
C2488 C2487 1.523 . S
C2489 C2473 1.429 . S
C2489 C2485 1.429 . S
C2489 C2490 1.523 . S
C2490 C2474 1.368 . S
C2490 C2486 1.368 . S
C2490 C2489 1.523 . S
H2491 C2466 0.950 . S
H2492 C2468 0.950 . S
H2493 C2469 0.949 . S
H2494 C2471 0.950 . S
H2495 C2473 0.950 . S
C2496 C2497 1.349 . S
C2496 C2498 1.327 . S
C2496 H2521 0.950 . S
C2497 C2496 1.349 . S
C2497 C2513 1.349 . S
C2498 C2496 1.327 . S
C2498 C2517 1.429 . S
C2498 H2522 0.950 . S
C2499 C2516 1.574 . S
C2499 C2518 1.368 . S
C2499 H2523 0.949 . S
H2500 C2504 0.949 . S
C2501 C2502 1.349 . S
C2501 C2503 1.327 . S
C2501 H2524 0.950 . S
C2502 C2501 1.349 . S
C2502 C2514 1.349 . S
C2503 C2501 1.327 . S
C2503 C2519 1.429 . S
C2503 H2525 0.950 . S
C2504 H2500 0.949 . S
C2504 C2512 1.574 . S
C2504 C2520 1.368 . S
H2505 C2513 0.950 . S
H2506 C2511 0.950 . S
H2507 C2512 0.949 . S
H2508 C2514 0.950 . S
H2509 C2515 0.950 . S
H2510 C2516 0.949 . S
C2511 H2506 0.950 . S
C2511 C2513 1.327 . S
C2511 C2517 1.429 . S
C2512 C2504 1.574 . S
C2512 H2507 0.949 . S
C2512 C2518 1.368 . S
C2513 C2497 1.349 . S
C2513 H2505 0.950 . S
C2513 C2511 1.327 . S
C2514 C2502 1.349 . S
C2514 H2508 0.950 . S
C2514 C2515 1.327 . S
C2515 H2509 0.950 . S
C2515 C2514 1.327 . S
C2515 C2519 1.429 . S
C2516 C2499 1.574 . S
C2516 H2510 0.949 . S
C2516 C2520 1.368 . S
C2517 C2498 1.429 . S
C2517 C2511 1.429 . S
C2517 C2518 1.523 . S
C2518 C2499 1.368 . S
C2518 C2512 1.368 . S
C2518 C2517 1.523 . S
C2519 C2503 1.429 . S
C2519 C2515 1.429 . S
C2519 C2520 1.523 . S
C2520 C2504 1.368 . S
C2520 C2516 1.368 . S
C2520 C2519 1.523 . S
H2521 C2496 0.950 . S
H2522 C2498 0.950 . S
H2523 C2499 0.949 . S
H2524 C2501 0.950 . S
H2525 C2503 0.950 . S
C2526 C2527 1.349 . S
C2526 C2528 1.327 . S
C2526 H2551 0.950 . S
C2527 C2526 1.349 . S
C2527 C2543 1.349 . S
C2528 C2526 1.327 . S
C2528 C2547 1.429 . S
C2528 H2552 0.950 . S
C2529 C2546 1.574 . S
C2529 C2548 1.368 . S
C2529 H2553 0.949 . S
H2530 C2534 0.949 . S
C2531 C2532 1.349 . S
C2531 C2533 1.327 . S
C2531 H2554 0.950 . S
C2532 C2531 1.349 . S
C2532 C2544 1.349 . S
C2533 C2531 1.327 . S
C2533 C2549 1.429 . S
C2533 H2555 0.950 . S
C2534 H2530 0.949 . S
C2534 C2542 1.574 . S
C2534 C2550 1.368 . S
H2535 C2543 0.950 . S
H2536 C2541 0.950 . S
H2537 C2542 0.949 . S
H2538 C2544 0.950 . S
H2539 C2545 0.950 . S
H2540 C2546 0.949 . S
C2541 H2536 0.950 . S
C2541 C2543 1.327 . S
C2541 C2547 1.429 . S
C2542 C2534 1.574 . S
C2542 H2537 0.949 . S
C2542 C2548 1.368 . S
C2543 C2527 1.349 . S
C2543 H2535 0.950 . S
C2543 C2541 1.327 . S
C2544 C2532 1.349 . S
C2544 H2538 0.950 . S
C2544 C2545 1.327 . S
C2545 H2539 0.950 . S
C2545 C2544 1.327 . S
C2545 C2549 1.429 . S
C2546 C2529 1.574 . S
C2546 H2540 0.949 . S
C2546 C2550 1.368 . S
C2547 C2528 1.429 . S
C2547 C2541 1.429 . S
C2547 C2548 1.523 . S
C2548 C2529 1.368 . S
C2548 C2542 1.368 . S
C2548 C2547 1.523 . S
C2549 C2533 1.429 . S
C2549 C2545 1.429 . S
C2549 C2550 1.523 . S
C2550 C2534 1.368 . S
C2550 C2546 1.368 . S
C2550 C2549 1.523 . S
H2551 C2526 0.950 . S
H2552 C2528 0.950 . S
H2553 C2529 0.949 . S
H2554 C2531 0.950 . S
H2555 C2533 0.950 . S
C937 C439 1.513 . S
C942 C579 1.604 . S
C967 C465 1.850 . S
C972 C619 1.850 . S
C997 C401 1.704 . S
C1002 C671 1.673 . S
C1027 C369 1.524 . S
C1032 C631 1.497 . S
C1062 C659 1.486 . S
C1057 C305 1.477 . S
C1087 C343 1.205 . S
C1092 C591 1.289 1_556 S
C1122 C598 1.644 . S
C1117 C375 1.650 . S
C1152 C638 1.808 . S
C1147 C311 1.807 . S
C1177 C337 1.595 . S
C1182 C658 1.675 . S
C1207 C433 1.442 . S
C1212 C618 1.497 . S
C1237 C471 1.436 . S
C1242 C678 1.443 . S
C1272 C578 1.328 . S
C1267 C407 1.342 . S
C1302 C699 1.605 . S
C1297 C55 1.513 . S
C1327 C81 1.851 . S
C1332 C739 1.851 . S
C1357 C17 1.704 . S
C1362 C791 1.673 . S
C1387 C561 1.524 . S
C1392 C751 1.497 . S
C1417 C497 1.477 . S
C1422 C779 1.486 . S
C1447 C535 1.204 . S
C1452 C711 1.285 . S
C1477 C567 1.650 . S
C1482 C718 1.644 . S
C1507 C503 1.807 . S
C1512 C758 1.808 . S
C1542 C778 1.674 . S
C1537 C529 1.595 . S
C1567 C49 1.441 . S
C1572 C738 1.496 . S
C1602 C798 1.443 . S
C1597 C87 1.436 . S
C1627 C23 1.342 . S
C1632 C698 1.328 . S
C1662 C819 1.604 . S
C1657 C247 1.513 . S
C1687 C273 1.850 . S
C1692 C859 1.850 . S
C1722 C911 1.673 . S
C1717 C209 1.703 . S
C1752 C871 1.497 . S
C1747 C177 1.524 . S
C1782 C899 1.486 . S
C1777 C113 1.478 . S
C1807 C151 1.205 . S
C1812 C831 1.285 . S
C1837 C183 1.651 . S
C1842 C838 1.644 . S
C1867 C119 1.807 . S
C1872 C878 1.808 . S
C1902 C898 1.675 . S
C1897 C145 1.595 . S
C1927 C241 1.442 . S
C1932 C858 1.496 . S
C1957 C279 1.436 . S
C1962 C918 1.443 . S
C1987 C215 1.342 . S
C1992 C818 1.327 . S
C2017 C509 1.277 . S
C2022 C602 1.289 . S
C2052 C642 1.841 . S
C2047 C541 1.755 . S
C2077 C573 1.561 . S
C2082 C665 1.563 . S
C2107 C221 1.890 . S
C2112 C625 1.869 . S
C2137 C253 1.466 . S
C2142 C682 1.531 . S
C2172 C585 1.282 . S
C2167 C285 1.271 . S
C2197 C125 1.277 . S
C2202 C722 1.289 . S
C2227 C157 1.755 . S
C2232 C762 1.841 . S
C2257 C189 1.561 . S
C2262 C785 1.563 . S
C2287 C413 1.890 . S
C2292 C745 1.869 . S
C2322 C802 1.531 . S
C2317 C445 1.466 . S
C2347 C477 1.271 . S
C2352 C705 1.282 . S
C2377 C317 1.277 . S
C2382 C842 1.289 . S
C2407 C349 1.755 . S
C2412 C882 1.841 . S
C2442 C905 1.563 . S
C2437 C381 1.561 . S
C2467 C29 1.890 . S
C2472 C865 1.869 . S
C2497 C61 1.466 . S
C2502 C922 1.531 . S
C2527 C93 1.271 . S
C2532 C825 1.282 . S
