# Generated by pormake.
# Topology rtl, (3,6)-cn, num edge types: 1
# Building blocks:
#     Node 0, Type 0, BuildingBlock: VETTIZ_charged_linker_0, # of connection points: 3
#     Node 1, Type 0, BuildingBlock: VETTIZ_charged_linker_0, # of connection points: 3
#     Node 2, Type 0, BuildingBlock: VETTIZ_charged_linker_0, # of connection points: 3
#     Node 3, Type 0, BuildingBlock: VETTIZ_charged_linker_0, # of connection points: 3
#     Node 4, Type 1, BuildingBlock: CIFDUS_clean_sbu_1, # of connection points: 6
#     Node 5, Type 1, BuildingBlock: CIFDUS_clean_sbu_1, # of connection points: 6
#     Edge 6, Type (0, 1), BuildingBlock: ZUJKAS_clean_linker_0, # of connection points: 2
#     Edge 7, Type (0, 1), BuildingBlock: ZUJKAS_clean_linker_0, # of connection points: 2
#     Edge 8, Type (0, 1), BuildingBlock: ZUJKAS_clean_linker_0, # of connection points: 2
#     Edge 9, Type (0, 1), BuildingBlock: ZUJKAS_clean_linker_0, # of connection points: 2
#     Edge 10, Type (0, 1), BuildingBlock: ZUJKAS_clean_linker_0, # of connection points: 2
#     Edge 11, Type (0, 1), BuildingBlock: ZUJKAS_clean_linker_0, # of connection points: 2
#     Edge 12, Type (0, 1), BuildingBlock: ZUJKAS_clean_linker_0, # of connection points: 2
#     Edge 13, Type (0, 1), BuildingBlock: ZUJKAS_clean_linker_0, # of connection points: 2
#     Edge 14, Type (0, 1), BuildingBlock: ZUJKAS_clean_linker_0, # of connection points: 2
#     Edge 15, Type (0, 1), BuildingBlock: ZUJKAS_clean_linker_0, # of connection points: 2
#     Edge 16, Type (0, 1), BuildingBlock: ZUJKAS_clean_linker_0, # of connection points: 2
#     Edge 17, Type (0, 1), BuildingBlock: ZUJKAS_clean_linker_0, # of connection points: 2
# Relax obj value: 0.030
# Max RMSD: 0.064
# Mean RMSD: 0.050
data_MOF--net-rtl--node1-CIFDUS_clean_sbu_1--node2-VETTIZ_charged_linker_0--edge1-ZUJKAS_clean_linker_0
_symmetry_space_group_name_H-M    P1
_symmetry_Int_Tables_number       1
_symmetry_cell_setting            triclinic
loop_
_symmetry_equiv_pos_as_xyz
'x, y, z'
_cell_length_a     45.930237
_cell_length_b     52.330245
_cell_length_c     36.710779
_cell_angle_alpha  89.932966
_cell_angle_beta   97.552574
_cell_angle_gamma 90.007585
loop_
_atom_site_label
_atom_site_type_symbol
_atom_site_fract_x
_atom_site_fract_y
_atom_site_fract_z
_atom_type_partial_charge
C0 C 0.25125 0.92117 0.96431 0.0
C1 C 0.22993 0.94046 0.9572 0.0
C2 C 0.22153 0.95437 0.98702 0.0
C3 C 0.25303 0.92794 0.03003 0.0
C4 C 0.26247 0.9153 1.00071 0.0
C5 C 0.28411 0.89446 0.01295 0.0
H6 H 0.34854 0.81774 0.14817 0.0
C7 C 0.26674 0.91544 0.06427 0.0
C8 C 0.28508 0.89588 0.05439 0.0
H9 H 0.35744 0.816 0.03234 0.0
H10 H 0.32804 0.854 0.02242 0.0
H11 H 0.3551 0.88212 0.15577 0.0
H12 H 0.28173 0.83005 0.13945 0.0
H13 H 0.27309 0.85405 0.16956 0.0
H14 H 0.30396 0.83329 0.18324 0.0
H15 H 0.34716 0.85967 0.19018 0.0
H16 H 0.32963 0.89053 0.18565 0.0
C17 C 0.31404 0.90173 1.00061 0.0
C18 C 0.27107 0.86884 0.99717 0.0
C19 C 0.23463 0.941 0.18647 0.0
C20 C 0.23978 0.93066 0.22223 0.0
C21 C 0.25997 0.91023 0.2287 0.0
C22 C 0.2741 0.90006 0.20025 0.0
C23 C 0.26781 0.91006 0.16454 0.0
C24 C 0.24851 0.93032 0.15824 0.0
C25 C 0.2433 0.93778 0.11834 0.0
C26 C 0.26267 0.91874 0.10169 0.0
C27 C 0.27713 0.90256 0.12886 0.0
C28 C 0.25427 0.96552 0.11474 0.0
C29 C 0.21024 0.93375 0.10444 0.0
C30 C 0.34417 0.8256 0.12069 0.0
C31 C 0.35526 0.81364 0.09097 0.0
C32 C 0.34945 0.82482 0.05579 0.0
C33 C 0.33212 0.84685 0.05 0.0
C34 C 0.32025 0.85795 0.07961 0.0
C35 C 0.32695 0.84775 0.11442 0.0
C36 C 0.31268 0.86248 0.14259 0.0
C37 C 0.2959 0.88285 0.11881 0.0
C38 C 0.30023 0.87987 0.08188 0.0
C39 C 0.33728 0.87428 0.17031 0.0
C40 C 0.29188 0.84415 0.15999 0.0
H41 H 0.22525 0.95919 0.04482 0.0
H42 H 0.25866 0.91049 0.942 0.0
H43 H 0.24703 0.86802 0.99855 0.0
H44 H 0.28018 0.85197 0.01267 0.0
H45 H 0.27443 0.86657 0.96793 0.0
H46 H 0.31699 0.92283 1.00017 0.0
H47 H 0.31578 0.8945 0.97255 0.0
H48 H 0.33295 0.89473 0.01978 0.0
H49 H 0.21977 0.95692 0.18021 0.0
H50 H 0.26429 0.90147 0.25559 0.0
H51 H 0.28888 0.88439 0.207 0.0
H52 H 0.27488 0.96884 0.13372 0.0
H53 H 0.23771 0.97954 0.12168 0.0
H54 H 0.25993 0.96984 0.08706 0.0
H55 H 0.20127 0.91725 0.11853 0.0
H56 H 0.20594 0.92894 0.07498 0.0
H57 H 0.19717 0.95088 0.10977 0.0
H58 H 0.2052 0.96935 0.98237 0.0
C59 C 0.23301 0.94827 0.02332 0.0
C60 C 0.72642 0.63156 0.70446 0.0
C61 C 0.70486 0.61246 0.70542 0.0
C62 C 0.69455 0.59933 0.67277 0.0
C63 C 0.72531 0.62517 0.63864 0.0
C64 C 0.73621 0.63767 0.6707 0.0
C65 C 0.75785 0.65829 0.66375 0.0
H66 H 0.8233 0.72768 0.54006 0.0
C67 C 0.73862 0.63665 0.60797 0.0
C68 C 0.75791 0.65607 0.62238 0.0
H69 H 0.83209 0.73773 0.65789 0.0
H70 H 0.80167 0.70063 0.66337 0.0
H71 H 0.82952 0.66582 0.54238 0.0
H72 H 0.75552 0.7169 0.52916 0.0
H73 H 0.74712 0.69174 0.49809 0.0
H74 H 0.77831 0.71182 0.49368 0.0
H75 H 0.81857 0.68288 0.50038 0.0
H76 H 0.80307 0.65212 0.50924 0.0
C77 C 0.78807 0.65139 0.68521 0.0
C78 C 0.74541 0.68426 0.67461 0.0
C79 C 0.70281 0.60873 0.47706 0.0
C80 C 0.70928 0.61723 0.44262 0.0
C81 C 0.73231 0.63495 0.44151 0.0
C82 C 0.74746 0.64509 0.47386 0.0
C83 C 0.73958 0.63755 0.50796 0.0
C84 C 0.71821 0.61911 0.50921 0.0
C85 C 0.713 0.61329 0.54795 0.0
C86 C 0.73404 0.63189 0.56956 0.0
C87 C 0.74944 0.64613 0.54598 0.0
C88 C 0.72205 0.58514 0.55638 0.0
C89 C 0.68043 0.61947 0.55138 0.0
C90 C 0.81864 0.722 0.56707 0.0
C91 C 0.83005 0.73595 0.59851 0.0
C92 C 0.82381 0.72737 0.63316 0.0
C93 C 0.80589 0.7059 0.6363 0.0
C94 C 0.79386 0.69274 0.60448 0.0
C95 C 0.80077 0.70063 0.57069 0.0
C96 C 0.78616 0.68444 0.53975 0.0
C97 C 0.76888 0.66586 0.56033 0.0
C98 C 0.77332 0.67076 0.59833 0.0
C99 C 0.81042 0.67065 0.52162 0.0
C100 C 0.76581 0.70196 0.51348 0.0
H101 H 0.69564 0.59486 0.61584 0.0
H102 H 0.73476 0.642 0.7291 0.0
H103 H 0.72128 0.68517 0.66602 0.0
H104 H 0.75448 0.70068 0.66101 0.0
H105 H 0.74942 0.68711 0.70483 0.0
H106 H 0.79222 0.63049 0.68377 0.0
H107 H 0.7891 0.65666 0.71466 0.0
H108 H 0.80654 0.66052 0.67375 0.0
H109 H 0.68528 0.59516 0.47906 0.0
H110 H 0.73837 0.64132 0.41545 0.0
H111 H 0.76429 0.65888 0.47099 0.0
H112 H 0.74095 0.5796 0.54197 0.0
H113 H 0.70369 0.57186 0.54725 0.0
H114 H 0.72981 0.58178 0.58578 0.0
H115 H 0.67258 0.63607 0.53381 0.0
H116 H 0.67685 0.62521 0.57936 0.0
H117 H 0.66596 0.60298 0.5426 0.0
H118 H 0.67841 0.58424 0.67287 0.0
C119 C 0.7047 0.60547 0.6396 0.0
C120 C 0.79027 0.12309 0.13318 0.0
C121 C 0.81355 0.10553 0.1394 0.0
C122 C 0.82459 0.09427 0.10928 0.0
C123 C 0.79067 0.11918 0.06729 0.0
C124 C 0.77937 0.12983 0.09689 0.0
C125 C 0.75662 0.14996 0.08502 0.0
H126 H 0.69155 0.22747 0.95056 0.0
C127 C 0.77626 0.13156 0.03347 0.0
C128 C 0.75627 0.14966 0.04352 0.0
H129 H 0.67975 0.22642 0.06562 0.0
H130 H 0.71038 0.18916 0.07519 0.0
H131 H 0.76049 0.21318 0.95923 0.0
H132 H 0.68353 0.16507 0.94181 0.0
H133 H 0.70969 0.1527 0.91575 0.0
H134 H 0.69474 0.18423 0.90553 0.0
H135 H 0.7345 0.21445 0.91813 0.0
H136 H 0.76381 0.19151 0.92324 0.0
C137 C 0.76803 0.17568 0.10221 0.0
C138 C 0.72692 0.14107 0.09632 0.0
C139 C 0.80908 0.10757 0.91156 0.0
C140 C 0.80074 0.1155 0.87504 0.0
C141 C 0.77828 0.13404 0.86808 0.0
C142 C 0.76489 0.14467 0.89686 0.0
C143 C 0.77383 0.13665 0.93316 0.0
C144 C 0.79523 0.11808 0.93979 0.0
C145 C 0.80159 0.11125 0.97973 0.0
C146 C 0.78052 0.12877 0.99613 0.0
C147 C 0.76451 0.14391 0.96892 0.0
C148 C 0.83418 0.11797 0.99307 0.0
C149 C 0.79353 0.08273 0.98403 0.0
C150 C 0.69532 0.21916 0.97778 0.0
C151 C 0.68372 0.2306 0.00755 0.0
C152 C 0.68915 0.21876 0.04239 0.0
C153 C 0.70689 0.19696 0.04794 0.0
C154 C 0.71956 0.18666 0.01844 0.0
C155 C 0.71297 0.19722 0.98382 0.0
C156 C 0.72724 0.18274 0.95542 0.0
C157 C 0.7446 0.16264 0.97906 0.0
C158 C 0.74019 0.16521 0.01607 0.0
C159 C 0.74752 0.20133 0.93775 0.0
C160 C 0.70269 0.17062 0.92788 0.0
H161 H 0.82273 0.09171 0.05161 0.0
H162 H 0.78166 0.13216 0.15603 0.0
H163 H 0.72481 0.1199 0.09475 0.0
H164 H 0.70784 0.14836 0.07771 0.0
H165 H 0.72481 0.14685 0.12495 0.0
H166 H 0.79196 0.17782 0.10079 0.0
H167 H 0.76465 0.17676 0.13157 0.0
H168 H 0.75779 0.19252 0.08776 0.0
H169 H 0.82648 0.09376 0.91844 0.0
H170 H 0.7708 0.14026 0.8403 0.0
H171 H 0.74818 0.15879 0.88976 0.0
H172 H 0.8417 0.13435 0.97734 0.0
H173 H 0.84885 0.10154 0.98956 0.0
H174 H 0.83786 0.12436 0.02198 0.0
H175 H 0.77373 0.07753 0.96462 0.0
H176 H 0.78763 0.07814 0.01151 0.0
H177 H 0.81174 0.07004 0.97821 0.0
H178 H 0.84245 0.08063 0.11368 0.0
C179 C 0.81312 0.10081 0.0733 0.0
C180 C 0.25981 0.42064 0.37725 0.0
C181 C 0.28078 0.44022 0.37614 0.0
C182 C 0.28873 0.45508 0.40791 0.0
C183 C 0.25811 0.42912 0.44206 0.0
C184 C 0.24876 0.41547 0.41048 0.0
C185 C 0.22753 0.39458 0.41742 0.0
H186 H 0.16572 0.3223 0.54021 0.0
C187 C 0.24485 0.41759 0.47276 0.0
C188 C 0.22657 0.39748 0.45852 0.0
H189 H 0.15608 0.3142 0.42203 0.0
H190 H 0.18435 0.35259 0.41715 0.0
H191 H 0.23131 0.33546 0.55076 0.0
H192 H 0.15657 0.38579 0.53919 0.0
H193 H 0.18255 0.39811 0.57426 0.0
H194 H 0.16698 0.36686 0.57963 0.0
H195 H 0.20968 0.34056 0.58741 0.0
H196 H 0.24024 0.36094 0.58102 0.0
C197 C 0.241 0.3687 0.4079 0.0
C198 C 0.19744 0.40064 0.39484 0.0
C199 C 0.28203 0.44456 0.60363 0.0
C200 C 0.2768 0.43506 0.63793 0.0
C201 C 0.25471 0.41665 0.63964 0.0
C202 C 0.23876 0.40696 0.60741 0.0
C203 C 0.24527 0.41554 0.57307 0.0
C204 C 0.266 0.43457 0.57161 0.0
C205 C 0.27031 0.44105 0.53276 0.0
C206 C 0.24952 0.42222 0.51123 0.0
C207 C 0.23498 0.40727 0.53497 0.0
C208 C 0.3029 0.43574 0.52842 0.0
C209 C 0.26033 0.46905 0.52508 0.0
C210 C 0.16927 0.32899 0.51322 0.0
C211 C 0.15894 0.31486 0.48151 0.0
C212 C 0.16432 0.32431 0.44699 0.0
C213 C 0.1807 0.3467 0.44417 0.0
C214 C 0.19215 0.35984 0.47623 0.0
C215 C 0.18576 0.35128 0.50993 0.0
C216 C 0.19999 0.36755 0.54107 0.0
C217 C 0.21619 0.38706 0.5206 0.0
C218 C 0.21172 0.38236 0.48258 0.0
C219 C 0.22131 0.35041 0.56672 0.0
C220 C 0.17541 0.38019 0.5599 0.0
H221 H 0.28492 0.46148 0.46392 0.0
H222 H 0.25305 0.40895 0.35331 0.0
H223 H 0.1934 0.42161 0.39353 0.0
H224 H 0.17879 0.39268 0.40734 0.0
H225 H 0.19647 0.39355 0.3662 0.0
H226 H 0.26499 0.36832 0.41759 0.0
H227 H 0.23794 0.36545 0.37775 0.0
H228 H 0.23192 0.35223 0.42136 0.0
H229 H 0.29902 0.45868 0.60176 0.0
H230 H 0.25047 0.40918 0.66597 0.0
H231 H 0.22264 0.39255 0.61046 0.0
H232 H 0.31098 0.41835 0.54407 0.0
H233 H 0.31715 0.45197 0.53898 0.0
H234 H 0.30654 0.43174 0.49992 0.0
H235 H 0.24214 0.47424 0.54093 0.0
H236 H 0.25121 0.47231 0.49604 0.0
H237 H 0.27865 0.48264 0.53296 0.0
H238 H 0.30411 0.47075 0.40759 0.0
C239 C 0.27746 0.44973 0.44065 0.0
O240 O 0.98541 0.02958 0.50524 0.0
Mn241 Mn 0.01512 0.01608 0.54853 0.0
O242 O 0.99238 1.00253 0.46074 0.0
Mn243 Mn 0.00825 0.97662 0.49193 0.0
O244 O 0.04552 1.00246 0.59322 0.0
O245 O 0.02773 0.0543 0.55648 0.0
Mn246 Mn 0.02717 0.05616 0.60473 0.0
O247 O 0.98071 0.01869 0.58175 0.0
O248 O 0.055 0.03604 0.6303 0.0
O249 O 0.04971 0.01289 0.51442 0.0
O250 O 0.0477 0.97293 0.49312 0.0
O251 O 0.0387 0.08742 0.59482 0.0
O252 O 0.98993 0.05352 0.61641 0.0
C253 C 0.9805 0.96286 0.52798 0.0
C254 C 0.98146 0.02286 0.47163 0.0
C255 C 0.0596 0.0131 0.62195 0.0
C256 C 0.0357 0.07843 0.56163 0.0
C257 C 0.97343 0.03514 0.60493 0.0
C258 C 0.06145 0.99378 0.49926 0.0
O259 O 0.00244 0.97825 0.53934 0.0
O260 O 0.98063 0.95297 0.49564 0.0
O261 O 0.52513 0.5327 0.08696 0.0
Mn262 Mn 0.49831 0.51572 0.04085 0.0
O263 O 0.55273 0.50113 0.11086 0.0
Mn264 Mn 0.52115 0.48182 0.0945 0.0
O265 O 0.47051 0.49957 0.99524 0.0
O266 O 0.48015 0.55184 0.0351 0.0
Mn267 Mn 0.47211 0.55457 0.98688 0.0
O268 O 0.53021 0.52544 0.00637 0.0
O269 O 0.44355 0.5319 0.96988 0.0
O270 O 0.46478 0.50721 0.07326 0.0
O271 O 0.48957 0.48637 0.1194 0.0
O272 O 0.4602 0.58481 1.0023 0.0
O273 O 0.50629 0.55293 0.9659 0.0
C274 C 0.52825 0.45583 0.05751 0.0
C275 C 0.54678 0.52452 0.10981 0.0
C276 C 0.44853 0.50824 0.97318 0.0
C277 C 0.46907 0.57499 0.03427 0.0
C278 C 0.5289 0.53976 0.97753 0.0
C279 C 0.4663 0.49693 0.10506 0.0
O280 O 0.51812 0.47868 0.04557 0.0
O281 O 0.52909 0.44953 0.09184 0.0
H282 H 0.11744 0.30166 0.52598 0.0
H283 H 0.09416 0.25977 0.53109 0.0
H284 H 0.14342 0.22946 0.44882 0.0
H285 H 0.16698 0.27097 0.44381 0.0
H286 H 0.0613 0.22931 0.46791 0.0
H287 H 0.15962 0.18035 0.54094 0.0
H288 H 0.15544 0.21469 0.54113 0.0
H289 H 0.16469 0.19885 0.5009 0.0
C290 C 0.12341 0.28605 0.5091 0.0
C291 C 0.14404 0.28974 0.48438 0.0
C292 C 0.10999 0.26217 0.51193 0.0
C293 C 0.11723 0.24148 0.4905 0.0
C294 C 0.13768 0.24512 0.46578 0.0
H295 H 0.07654 0.07922 0.51296 0.0
H296 H 0.09452 0.11879 0.4873 0.0
C297 C 0.15092 0.26895 0.46273 0.0
C298 C 0.10333 0.21607 0.49364 0.0
H299 H 0.11761 0.15519 0.52427 0.0
C300 C 0.07355 0.21302 0.48014 0.0
C301 C 0.11948 0.19483 0.50907 0.0
C302 C 0.15155 0.19719 0.5241 0.0
C303 C 0.05946 0.18922 0.48139 0.0
C304 C 0.0753 0.16796 0.49802 0.0
C305 C 0.1053 0.17114 0.5112 0.0
C306 C 0.06086 0.14308 0.50519 0.0
C307 C 0.0279 0.18724 0.46399 0.0
C308 C 0.03509 0.14303 0.52193 0.0
C309 C 0.02403 0.12034 0.53452 0.0
C310 C 0.03913 0.09715 0.53249 0.0
C311 C 0.0639 0.09663 0.51382 0.0
C312 C 0.07453 0.11942 0.49996 0.0
H313 H 0.02348 0.20041 0.44014 0.0
H314 H 0.0221 0.16755 0.45448 0.0
H315 H 0.01328 0.19312 0.48428 0.0
H316 H 0.02461 0.16073 0.52805 0.0
H317 H 0.00544 0.12144 0.54985 0.0
H318 H 0.34225 0.77221 0.13141 0.0
H319 H 0.3659 0.73018 0.13503 0.0
H320 H 0.42749 0.75649 0.06425 0.0
H321 H 0.40419 0.7987 0.06076 0.0
H322 H 0.37224 0.69938 0.06835 0.0
H323 H 0.47863 0.7204 0.1538 0.0
H324 H 0.44665 0.74049 0.15425 0.0
H325 H 0.46724 0.74161 0.11599 0.0
C326 C 0.36121 0.76926 0.11723 0.0
C327 C 0.37134 0.78887 0.09585 0.0
C328 C 0.37459 0.74517 0.11917 0.0
C329 C 0.3986 0.7403 0.10021 0.0
C330 C 0.40922 0.75995 0.07949 0.0
H331 H 0.50497 0.61438 0.0525 0.0
H332 H 0.48749 0.65451 0.0749 0.0
C333 C 0.39572 0.784 0.0773 0.0
C334 C 0.4112 0.71417 0.10005 0.0
H335 H 0.47281 0.67913 0.12801 0.0
C336 C 0.39413 0.69479 0.08164 0.0
C337 C 0.4399 0.70846 0.11689 0.0
C338 C 0.45925 0.72874 0.13659 0.0
C339 C 0.40527 0.66999 0.07852 0.0
C340 C 0.43391 0.66394 0.09609 0.0
C341 C 0.45076 0.68342 0.11503 0.0
C342 C 0.44786 0.63846 0.09177 0.0
C343 C 0.38668 0.65115 0.05453 0.0
C344 C 0.43307 0.6154 0.09689 0.0
C345 C 0.44301 0.59231 0.08348 0.0
C346 C 0.46845 0.59185 0.06608 0.0
C347 C 0.48557 0.6141 0.06643 0.0
C348 C 0.47526 0.63723 0.07876 0.0
H349 H 0.36955 0.6609 0.03522 0.0
H350 H 0.4003 0.6394 0.03813 0.0
H351 H 0.37528 0.6383 0.07211 0.0
H352 H 0.41259 0.61553 0.10846 0.0
H353 H 0.4291 0.57556 0.083 0.0
H354 H 0.81978 0.77359 0.54634 0.0
H355 H 0.84644 0.81373 0.54224 0.0
H356 H 0.90531 0.7934 0.6392 0.0
H357 H 0.8791 0.7529 0.64314 0.0
H358 H 0.85427 0.8525 0.59764 0.0
H359 H 0.96119 0.81537 0.56503 0.0
H360 H 0.92798 0.7965 0.55879 0.0
H361 H 0.94751 0.80107 0.60398 0.0
C362 C 0.8387 0.7774 0.56649 0.0
C363 C 0.84726 0.7599 0.59509 0.0
C364 C 0.85381 0.80048 0.56422 0.0
C365 C 0.87804 0.80655 0.59024 0.0
C366 C 0.88692 0.78903 0.61854 0.0
H367 H 0.99905 0.93679 0.59197 0.0
H368 H 0.97293 0.90005 0.61425 0.0
C369 C 0.87171 0.76597 0.62095 0.0
C370 C 0.89306 0.83171 0.5886 0.0
H371 H 0.95797 0.85967 0.57476 0.0
C372 C 0.87699 0.85408 0.59277 0.0
C373 C 0.92277 0.83381 0.58261 0.0
C374 C 0.94093 0.81047 0.57705 0.0
C375 C 0.88973 0.87845 0.5911 0.0
C376 C 0.91927 0.88068 0.58403 0.0
C377 C 0.93547 0.85819 0.58051 0.0
C378 C 0.93295 0.90587 0.57673 0.0
C379 C 0.87129 0.90146 0.59741 0.0
C380 C 0.91891 0.92216 0.54949 0.0
C381 C 0.93347 0.94346 0.5377 0.0
C382 C 0.9627 0.94882 0.55215 0.0
C383 C 0.97623 0.93367 0.58116 0.0
C384 C 0.96145 0.91234 0.59334 0.0
H385 H 0.85499 0.89679 0.61624 0.0
H386 H 0.88496 0.9177 0.60917 0.0
H387 H 0.85884 0.90752 0.57084 0.0
H388 H 0.89746 0.91742 0.53522 0.0
H389 H 0.92282 0.95431 0.51452 0.0
H390 H 0.68482 0.27032 0.05629 0.0
H391 H 0.65725 0.31012 0.04978 0.0
H392 H 0.61849 0.28779 0.94114 0.0
H393 H 0.64491 0.24707 0.94814 0.0
H394 H 0.65952 0.3483 0.99969 0.0
H395 H 0.5463 0.30849 0.98673 0.0
H396 H 0.57832 0.28934 1.00177 0.0
H397 H 0.56912 0.29719 0.95398 0.0
C398 C 0.67 0.27349 0.03123 0.0
C399 C 0.6669 0.25513 1.00296 0.0
C400 C 0.65444 0.29648 0.02741 0.0
C401 C 0.6354 0.30189 0.99519 0.0
C402 C 0.63253 0.28388 0.96659 0.0
H403 H 0.51682 0.43739 0.98517 0.0
H404 H 0.54368 0.40187 0.95962 0.0
C405 C 0.648 0.2607 0.97048 0.0
C406 C 0.61931 0.32669 0.99182 0.0
H407 H 0.55081 0.35315 0.98739 0.0
C408 C 0.63572 0.34933 0.99645 0.0
C409 C 0.58823 0.32819 0.98706 0.0
C410 C 0.56935 0.30455 0.98235 0.0
C411 C 0.62209 0.37322 0.99819 0.0
C412 C 0.59107 0.37463 0.99595 0.0
C413 C 0.57453 0.35218 0.98895 0.0
C414 C 0.57622 0.39798 0.00776 0.0
C415 C 0.64133 0.39664 0.00367 0.0
C416 C 0.58565 0.40769 0.04277 0.0
C417 C 0.5711 0.42795 0.05659 0.0
C418 C 0.54577 0.43873 0.03662 0.0
C419 C 0.53643 0.42969 1.00098 0.0
C420 C 0.55159 0.40927 0.98664 0.0
H421 H 0.66129 0.39437 0.98984 0.0
H422 H 0.62949 0.41414 0.99297 0.0
H423 H 0.64881 0.39916 0.03345 0.0
H424 H 0.60374 0.39893 0.0603 0.0
H425 H 0.57901 0.43438 0.08419 0.0
H426 H 0.25859 0.934 0.29675 0.0
H427 H 0.23049 0.94746 0.34538 0.0
H428 H 0.15637 0.96477 0.26438 0.0
H429 H 0.18329 0.94952 0.21595 0.0
H430 H 0.20692 0.99125 0.36165 0.0
H431 H 0.11669 0.92121 0.33146 0.0
H432 H 0.14987 0.91945 0.31026 0.0
H433 H 0.12071 0.94089 0.29246 0.0
C434 C 0.23613 0.9402 0.28917 0.0
C435 C 0.22332 0.94034 0.2521 0.0
C436 C 0.22014 0.94819 0.31713 0.0
C437 C 0.19099 0.95665 0.3088 0.0
C438 C 0.17849 0.95765 0.2718 0.0
H439 H 0.06287 0.02173 0.43754 0.0
H440 H 0.09642 0.01482 0.39155 0.0
C441 C 0.19425 0.94933 0.2439 0.0
C442 C 0.17375 0.96456 0.33872 0.0
H443 H 0.10894 0.95461 0.37319 0.0
C444 C 0.18557 0.98312 0.3642 0.0
C445 C 0.1459 0.95387 0.34244 0.0
C446 C 0.13269 0.93257 0.31794 0.0
C447 C 0.17012 0.99151 0.39266 0.0
C448 C 0.14211 0.98127 0.39567 0.0
C449 C 0.13031 0.96268 0.37047 0.0
C450 C 0.12497 0.98895 0.42551 0.0
C451 C 0.18362 0.01134 0.41941 0.0
C452 C 0.13039 0.97724 0.46015 0.0
C453 C 0.11122 0.98112 0.48635 0.0
C454 C 0.08666 0.99717 0.47863 0.0
C455 C 0.0823 0.01011 0.44477 0.0
C456 C 0.1012 0.00588 0.4183 0.0
H457 H 0.20456 0.01895 0.41175 0.0
H458 H 0.16802 0.0274 0.42083 0.0
H459 H 0.18795 1.00274 0.44726 0.0
H460 H 0.14844 0.96391 0.46609 0.0
H461 H 0.11447 0.97025 0.5117 0.0
H462 H 0.64709 0.60763 0.71306 0.0
H463 H 0.62561 0.59257 0.76653 0.0
H464 H 0.71196 0.58745 0.82846 0.0
H465 H 0.7337 0.60285 0.77467 0.0
H466 H 0.63778 0.54497 0.79954 0.0
H467 H 0.66402 0.62365 0.90048 0.0
H468 H 0.66549 0.62794 0.85192 0.0
H469 H 0.69399 0.61054 0.87954 0.0
C470 C 0.66153 0.60353 0.73817 0.0
C471 C 0.69211 0.60623 0.73959 0.0
C472 C 0.64921 0.59495 0.76874 0.0
C473 C 0.66711 0.58889 0.80158 0.0
C474 C 0.69765 0.59235 0.80361 0.0
H475 H 0.58928 0.53566 0.99853 0.0
H476 H 0.62804 0.54384 0.95906 0.0
C477 C 0.71006 0.60112 0.77288 0.0
C478 C 0.65347 0.57743 0.8324 0.0
H479 H 0.63608 0.58932 0.91857 0.0
C480 C 0.63778 0.55452 0.82576 0.0
C481 C 0.65374 0.58966 0.86681 0.0
C482 C 0.67003 0.6144 0.87529 0.0
C483 C 0.62135 0.54413 0.85181 0.0
C484 C 0.62006 0.55717 0.88532 0.0
C485 C 0.63712 0.57929 0.89295 0.0
C486 C 0.59768 0.55042 0.90963 0.0
C487 C 0.6048 0.51958 0.84263 0.0
C488 C 0.56798 0.55134 0.895 0.0
C489 C 0.5462 0.54665 0.91711 0.0
C490 C 0.55332 0.54116 0.95478 0.0
C491 C 0.58312 0.53961 0.96958 0.0
C492 C 0.6052 0.54446 0.94714 0.0
H493 H 0.61608 0.50754 0.82386 0.0
H494 H 0.60234 0.50837 0.86775 0.0
H495 H 0.5826 0.52413 0.8283 0.0
H496 H 0.5615 0.55639 0.86646 0.0
H497 H 0.52351 0.54791 0.90464 0.0
H498 H 0.7897 0.08277 0.1956 0.0
H499 H 0.81518 0.0716 0.25688 0.0
H500 H 0.89504 0.10492 0.2283 0.0
H501 H 0.86985 0.11561 0.16708 0.0
H502 H 0.87085 0.04028 0.26926 0.0
H503 H 0.88081 0.1375 0.33038 0.0
H504 H 0.85335 0.1294 0.29224 0.0
H505 H 0.89076 0.13449 0.28476 0.0
C506 C 0.8126 0.08787 0.20272 0.0
C507 C 0.82791 0.10007 0.17696 0.0
C508 C 0.8271 0.08147 0.23752 0.0
C509 C 0.85687 0.08771 0.24713 0.0
C510 C 0.87199 0.10022 0.22151 0.0
H511 H 0.99743 0.05472 0.41955 0.0
H512 H 0.9652 0.07232 0.36665 0.0
C513 C 0.85767 0.10623 0.18663 0.0
C514 C 0.87272 0.0802 0.28327 0.0
H515 H 0.90861 0.10452 0.36318 0.0
C516 C 0.87879 0.05425 0.29002 0.0
C517 C 0.88324 0.09854 0.31004 0.0
C518 C 0.87659 0.12657 0.3043 0.0
C519 C 0.89581 0.04621 0.3226 0.0
C520 C 0.90658 0.06458 0.34924 0.0
C521 C 0.90022 0.09051 0.34269 0.0
C522 C 0.92527 0.05706 0.38351 0.0
C523 C 0.90299 0.01822 0.32791 0.0
C524 C 0.91327 0.04347 0.41096 0.0
C525 C 0.93155 0.03383 0.44135 0.0
C526 C 0.96201 0.03763 0.44453 0.0
C527 C 0.9739 0.05201 0.4178 0.0
C528 C 0.95558 0.06191 0.38763 0.0
H529 H 0.89691 0.00704 0.30233 0.0
H530 H 0.92682 0.01563 0.33714 0.0
H531 H 0.89081 0.01035 0.34957 0.0
H532 H 0.88992 0.03955 0.40817 0.0
H533 H 0.9221 0.0223 0.46135 0.0
H534 H 0.27048 0.47491 0.68419 0.0
H535 H 0.30128 0.48445 0.74277 0.0
H536 H 0.35681 0.4202 0.72598 0.0
H537 H 0.32613 0.41079 0.66761 0.0
H538 H 0.31203 0.44852 0.80334 0.0
H539 H 0.41563 0.47954 0.75365 0.0
H540 H 0.38064 0.47985 0.72468 0.0
H541 H 0.3999 0.45026 0.73447 0.0
C542 C 0.2895 0.46311 0.69298 0.0
C543 C 0.29617 0.44222 0.67167 0.0
C544 C 0.30702 0.46851 0.7263 0.0
C545 C 0.33155 0.45319 0.73852 0.0
C546 C 0.33836 0.43254 0.71679 0.0
H547 H 0.46403 0.46646 0.93388 0.0
H548 H 0.43489 0.44874 0.87845 0.0
C549 C 0.32082 0.42711 0.68363 0.0
C550 C 0.34885 0.45765 0.77509 0.0
H551 H 0.41693 0.47401 0.81767 0.0
C552 C 0.33497 0.45412 0.80652 0.0
C553 C 0.37887 0.46453 0.77918 0.0
C554 C 0.39471 0.46898 0.74626 0.0
C555 C 0.35028 0.45718 0.84197 0.0
C556 C 0.38018 0.46479 0.84624 0.0
C557 C 0.39415 0.46798 0.81466 0.0
C558 C 0.39644 0.47201 0.88272 0.0
C559 C 0.33414 0.45179 0.87439 0.0
C560 C 0.3844 0.49037 0.90417 0.0
C561 C 0.4006 0.49986 0.93601 0.0
C562 C 0.42968 0.49186 0.94692 0.0
C563 C 0.44148 0.47258 0.92662 0.0
C564 C 0.42497 0.46277 0.89466 0.0
H565 H 0.31697 0.43698 0.86753 0.0
H566 H 0.34926 0.44526 0.8987 0.0
H567 H 0.32289 0.46947 0.88169 0.0
H568 H 0.36299 0.49853 0.89527 0.0
H569 H 0.39099 0.51492 0.9508 0.0
H570 H 0.68662 0.56946 0.42418 0.0
H571 H 0.65609 0.5569 0.36702 0.0
H572 H 0.66008 0.63389 0.3261 0.0
H573 H 0.69002 0.64667 0.38292 0.0
H574 H 0.60054 0.57841 0.33486 0.0
H575 H 0.68729 0.58936 0.24395 0.0
H576 H 0.69542 0.58661 0.29327 0.0
H577 H 0.68278 0.61646 0.27272 0.0
C578 C 0.68093 0.58372 0.40304 0.0
C579 C 0.69112 0.60902 0.40799 0.0
C580 C 0.66357 0.5765 0.37039 0.0
C581 C 0.65625 0.5944 0.34213 0.0
C582 C 0.66603 0.61965 0.34722 0.0
H583 H 0.56204 0.57609 0.11748 0.0
H584 H 0.58556 0.59688 0.1745 0.0
C585 C 0.68327 0.62689 0.37972 0.0
C586 C 0.63799 0.58699 0.3074 0.0
H587 H 0.639 0.58212 0.21478 0.0
C588 C 0.6089 0.57925 0.30859 0.0
C589 C 0.64891 0.58826 0.27316 0.0
C590 C 0.68038 0.5954 0.27053 0.0
C591 C 0.59038 0.57282 0.27636 0.0
C592 C 0.60141 0.57378 0.24209 0.0
C593 C 0.63039 0.58187 0.24091 0.0
C594 C 0.58485 0.5629 0.2082 0.0
C595 C 0.55918 0.56497 0.27945 0.0
C596 C 0.57682 0.53716 0.20834 0.0
C597 C 0.56377 0.52552 0.17642 0.0
C598 C 0.55867 0.5391 0.14301 0.0
C599 C 0.56584 0.56518 0.14274 0.0
C600 C 0.57923 0.57697 0.1752 0.0
H601 H 0.55115 0.57406 0.30358 0.0
H602 H 0.54409 0.57008 0.25435 0.0
H603 H 0.55837 0.54396 0.28339 0.0
H604 H 0.58147 0.52571 0.23303 0.0
H605 H 0.55804 0.50549 0.17793 0.0
H606 H 0.82255 0.06685 0.86887 0.0
H607 H 0.84972 0.05018 0.82145 0.0
H608 H 0.83788 0.12171 0.76294 0.0
H609 H 0.81293 0.13936 0.81179 0.0
H610 H 0.83546 0.04086 0.75221 0.0
H611 H 0.92361 0.11347 0.76385 0.0
H612 H 0.89783 0.11123 0.79674 0.0
H613 H 0.88816 0.12802 0.75393 0.0
C614 C 0.82623 0.07934 0.84641 0.0
C615 C 0.81574 0.1047 0.84471 0.0
C616 C 0.84154 0.06961 0.81899 0.0
C617 C 0.84651 0.08481 0.7889 0.0
C618 C 0.83519 0.10979 0.78638 0.0
H619 H 0.9271 0.0667 0.59227 0.0
H620 H 0.89286 0.07594 0.63626 0.0
C621 C 0.82034 0.11973 0.81414 0.0
C622 C 0.86295 0.07433 0.75986 0.0
H623 H 0.91941 0.087 0.71051 0.0
C624 C 0.85395 0.05089 0.74331 0.0
C625 C 0.88739 0.08717 0.74845 0.0
C626 C 0.90001 0.1112 0.76697 0.0
C627 C 0.86806 0.04043 0.71499 0.0
C628 C 0.89161 0.05381 0.7027 0.0
C629 C 0.90097 0.07697 0.7196 0.0
C630 C 0.9071 0.04438 0.67233 0.0
C631 C 0.85741 0.0154 0.6979 0.0
C632 C 0.9254 0.02278 0.67708 0.0
C633 C 0.9447 0.01725 0.65154 0.0
C634 C 0.94592 0.03328 0.62109 0.0
C635 C 0.92593 0.05362 0.61495 0.0
C636 C 0.90669 0.05912 0.64034 0.0
H637 H 0.83587 0.00967 0.706 0.0
H638 H 0.8554 0.01662 0.66747 0.0
H639 H 0.87366 1.00024 0.70697 0.0
H640 H 0.92643 0.01141 0.70188 0.0
H641 H 0.96063 1.00204 0.65752 0.0
H642 H 0.33897 0.44905 0.37405 0.0
H643 H 0.36377 0.45827 0.32079 0.0
H644 H 0.28194 0.44952 0.24955 0.0
H645 H 0.2566 0.44087 0.30325 0.0
H646 H 0.36881 0.42833 0.25968 0.0
H647 H 0.31134 0.51972 0.21961 0.0
H648 H 0.30998 0.50484 0.26375 0.0
H649 H 0.28838 0.49227 0.22344 0.0
C650 C 0.32609 0.44936 0.34713 0.0
C651 C 0.29568 0.44463 0.343 0.0
C652 C 0.34038 0.45445 0.31664 0.0
C653 C 0.32467 0.455 0.2812 0.0
C654 C 0.29441 0.44968 0.27671 0.0
H655 H 0.40707 0.49036 0.08089 0.0
H656 H 0.36886 0.47971 0.12 0.0
C657 C 0.28002 0.44449 0.30736 0.0
C658 C 0.34047 0.46103 0.24939 0.0
H659 H 0.34818 0.50678 0.18463 0.0
C660 C 0.36403 0.44532 0.24298 0.0
C661 C 0.33425 0.48319 0.22756 0.0
C662 C 0.30977 0.50116 0.23393 0.0
C663 C 0.38198 0.45151 0.21614 0.0
C664 C 0.3765 0.4742 0.19533 0.0
C665 C 0.35223 0.48937 0.20054 0.0
C666 C 0.39775 0.48363 0.17123 0.0
C667 C 0.40719 0.43401 0.21088 0.0
C668 C 0.42602 0.49051 0.18718 0.0
C669 C 0.44751 0.49662 0.16519 0.0
C670 C 0.44127 0.49616 0.12663 0.0
C671 C 0.41239 0.49104 0.1105 0.0
C672 C 0.3907 0.48477 0.13277 0.0
H673 H 0.40358 0.41438 0.22094 0.0
H674 H 0.4105 0.43298 0.18149 0.0
H675 H 0.42764 0.44154 0.22671 0.0
H676 H 0.4318 0.49023 0.21677 0.0
H677 H 0.46952 0.5007 0.17846 0.0
H678 H 0.21637 0.98632 0.92264 0.0
H679 H 0.18996 0.99322 0.86081 0.0
H680 H 0.18374 0.91178 0.84416 0.0
H681 H 0.20985 0.9047 0.90587 0.0
H682 H 0.20639 0.97119 0.78939 0.0
H683 H 0.09682 0.94136 0.82369 0.0
H684 H 0.12585 0.95211 0.85831 0.0
H685 H 0.12773 0.92097 0.83841 0.0
C686 C 0.20933 0.9699 0.90582 0.0
C687 C 0.21521 0.94496 0.91916 0.0
C688 C 0.19436 0.97386 0.8705 0.0
C689 C 0.18469 0.95298 0.84813 0.0
C690 C 0.19082 0.92812 0.86115 0.0
H691 H 0.06407 0.96136 0.63958 0.0
H692 H 0.09722 0.94238 0.69103 0.0
C693 C 0.20597 0.92413 0.89628 0.0
C694 C 0.16816 0.9572 0.81114 0.0
H695 H 0.09948 0.95387 0.76272 0.0
C696 C 0.18306 0.96724 0.78342 0.0
C697 C 0.13786 0.95167 0.80334 0.0
C698 C 0.12091 0.94105 0.83243 0.0
C699 C 0.16833 0.97233 0.74817 0.0
C700 C 0.13763 0.96796 0.74072 0.0
C701 C 0.12297 0.95708 0.7682 0.0
C702 C 0.11984 0.97784 0.70676 0.0
C703 C 0.18595 0.98245 0.71938 0.0
C704 C 0.12168 0.00381 0.6983 0.0
C705 C 0.10342 0.01437 0.66899 0.0
C706 C 0.08203 0.99949 0.64766 0.0
C707 C 0.08053 0.97322 0.6552 0.0
C708 C 0.09927 0.96248 0.68476 0.0
H709 H 0.2088 0.97501 0.72384 0.0
H710 H 0.17589 0.97725 0.69121 0.0
H711 H 0.18725 0.00358 0.72151 0.0
H712 H 0.13649 0.01634 0.71535 0.0
H713 H 0.10529 0.03469 0.66406 0.0
loop_
_geom_bond_atom_site_label_1
_geom_bond_atom_site_label_2
_geom_bond_distance
_geom_bond_site_symmetry_2
_ccdc_geom_bond_type
C0 C1 1.391 . S
C0 C4 1.391 . S
C0 H42 0.948 . S
C1 C0 1.391 . S
C1 C2 1.391 . S
C2 C1 1.391 . S
C2 H58 0.947 . S
C2 C59 1.392 1_556 S
C3 C4 1.391 1_554 S
C3 C7 1.397 . S
C3 C59 1.419 . S
C4 C0 1.391 . S
C4 C3 1.391 1_556 S
C4 C5 1.399 1_556 S
C5 C4 1.399 1_554 S
C5 C8 1.396 . S
C5 C17 1.453 1_554 S
C5 C18 1.684 1_554 S
H6 C30 0.948 . S
C7 C3 1.397 . S
C7 C8 1.394 . S
C7 C26 1.723 . S
C8 C5 1.396 . S
C8 C7 1.394 . S
C8 C38 1.723 . S
H9 C32 0.947 . S
H10 C33 0.948 . S
H11 C39 0.982 . S
H12 C40 0.979 . S
H13 C40 0.980 . S
H14 C40 0.983 . S
H15 C39 0.979 . S
H16 C39 0.977 . S
C17 C5 1.453 1_556 S
C17 H46 0.982 1_556 S
C17 H47 0.979 . S
C17 H48 0.977 1_556 S
C18 C5 1.684 1_556 S
C18 H43 0.979 . S
C18 H44 0.980 . S
C18 H45 0.983 . S
C19 C20 1.391 . S
C19 C24 1.391 . S
C19 H49 0.948 . S
C20 C19 1.391 . S
C20 C21 1.391 . S
C21 C20 1.391 . S
C21 C22 1.392 . S
C21 H50 0.947 . S
C22 C21 1.392 . S
C22 C23 1.419 . S
C22 H51 0.948 . S
C23 C22 1.419 . S
C23 C24 1.391 . S
C23 C27 1.397 . S
C24 C19 1.391 . S
C24 C23 1.391 . S
C24 C25 1.399 . S
C25 C24 1.399 . S
C25 C26 1.396 . S
C25 C28 1.453 . S
C25 C29 1.684 . S
C26 C7 1.723 . S
C26 C25 1.396 . S
C26 C27 1.394 . S
C27 C23 1.397 . S
C27 C26 1.394 . S
C27 C37 1.723 . S
C28 C25 1.453 . S
C28 H52 0.982 . S
C28 H53 0.979 . S
C28 H54 0.977 . S
C29 C25 1.684 . S
C29 H55 0.979 . S
C29 H56 0.980 . S
C29 H57 0.983 . S
C30 H6 0.948 . S
C30 C31 1.391 . S
C30 C35 1.391 . S
C31 C30 1.391 . S
C31 C32 1.391 . S
C32 H9 0.947 . S
C32 C31 1.391 . S
C32 C33 1.392 . S
C33 H10 0.948 . S
C33 C32 1.392 . S
C33 C34 1.419 . S
C34 C33 1.419 . S
C34 C35 1.391 . S
C34 C38 1.397 . S
C35 C30 1.391 . S
C35 C34 1.391 . S
C35 C36 1.399 . S
C36 C35 1.399 . S
C36 C37 1.396 . S
C36 C39 1.453 . S
C36 C40 1.684 . S
C37 C27 1.723 . S
C37 C36 1.396 . S
C37 C38 1.394 . S
C38 C8 1.723 . S
C38 C34 1.397 . S
C38 C37 1.394 . S
C39 H11 0.982 . S
C39 H15 0.979 . S
C39 H16 0.977 . S
C39 C36 1.453 . S
C40 H12 0.979 . S
C40 H13 0.980 . S
C40 H14 0.983 . S
C40 C36 1.684 . S
H41 C59 0.948 . S
H42 C0 0.948 . S
H43 C18 0.979 . S
H44 C18 0.980 . S
H45 C18 0.983 . S
H46 C17 0.982 1_554 S
H47 C17 0.979 . S
H48 C17 0.977 1_554 S
H49 C19 0.948 . S
H50 C21 0.947 . S
H51 C22 0.948 . S
H52 C28 0.982 . S
H53 C28 0.979 . S
H54 C28 0.977 . S
H55 C29 0.979 . S
H56 C29 0.980 . S
H57 C29 0.983 . S
H58 C2 0.947 . S
C59 C2 1.392 1_554 S
C59 C3 1.419 . S
C59 H41 0.948 . S
C60 C61 1.391 . S
C60 C64 1.391 . S
C60 H102 0.948 . S
C61 C60 1.391 . S
C61 C62 1.391 . S
C62 C61 1.391 . S
C62 H118 0.947 . S
C62 C119 1.392 . S
C63 C64 1.391 . S
C63 C67 1.397 . S
C63 C119 1.419 . S
C64 C60 1.391 . S
C64 C63 1.391 . S
C64 C65 1.399 . S
C65 C64 1.399 . S
C65 C68 1.396 . S
C65 C77 1.453 . S
C65 C78 1.684 . S
H66 C90 0.948 . S
C67 C63 1.397 . S
C67 C68 1.394 . S
C67 C86 1.723 . S
C68 C65 1.396 . S
C68 C67 1.394 . S
C68 C98 1.723 . S
H69 C92 0.947 . S
H70 C93 0.948 . S
H71 C99 0.982 . S
H72 C100 0.979 . S
H73 C100 0.980 . S
H74 C100 0.983 . S
H75 C99 0.979 . S
H76 C99 0.977 . S
C77 C65 1.453 . S
C77 H106 0.982 . S
C77 H107 0.979 . S
C77 H108 0.977 . S
C78 C65 1.684 . S
C78 H103 0.979 . S
C78 H104 0.980 . S
C78 H105 0.983 . S
C79 C80 1.391 . S
C79 C84 1.391 . S
C79 H109 0.948 . S
C80 C79 1.391 . S
C80 C81 1.391 . S
C81 C80 1.391 . S
C81 C82 1.392 . S
C81 H110 0.947 . S
C82 C81 1.392 . S
C82 C83 1.419 . S
C82 H111 0.948 . S
C83 C82 1.419 . S
C83 C84 1.391 . S
C83 C87 1.397 . S
C84 C79 1.391 . S
C84 C83 1.391 . S
C84 C85 1.399 . S
C85 C84 1.399 . S
C85 C86 1.396 . S
C85 C88 1.453 . S
C85 C89 1.684 . S
C86 C67 1.723 . S
C86 C85 1.396 . S
C86 C87 1.394 . S
C87 C83 1.397 . S
C87 C86 1.394 . S
C87 C97 1.723 . S
C88 C85 1.453 . S
C88 H112 0.982 . S
C88 H113 0.979 . S
C88 H114 0.977 . S
C89 C85 1.684 . S
C89 H115 0.979 . S
C89 H116 0.980 . S
C89 H117 0.983 . S
C90 H66 0.948 . S
C90 C91 1.391 . S
C90 C95 1.391 . S
C91 C90 1.391 . S
C91 C92 1.391 . S
C92 H69 0.947 . S
C92 C91 1.391 . S
C92 C93 1.392 . S
C93 H70 0.948 . S
C93 C92 1.392 . S
C93 C94 1.419 . S
C94 C93 1.419 . S
C94 C95 1.391 . S
C94 C98 1.397 . S
C95 C90 1.391 . S
C95 C94 1.391 . S
C95 C96 1.399 . S
C96 C95 1.399 . S
C96 C97 1.396 . S
C96 C99 1.453 . S
C96 C100 1.684 . S
C97 C87 1.723 . S
C97 C96 1.396 . S
C97 C98 1.394 . S
C98 C68 1.723 . S
C98 C94 1.397 . S
C98 C97 1.394 . S
C99 H71 0.982 . S
C99 H75 0.979 . S
C99 H76 0.977 . S
C99 C96 1.453 . S
C100 H72 0.979 . S
C100 H73 0.980 . S
C100 H74 0.983 . S
C100 C96 1.684 . S
H101 C119 0.948 . S
H102 C60 0.948 . S
H103 C78 0.979 . S
H104 C78 0.980 . S
H105 C78 0.983 . S
H106 C77 0.982 . S
H107 C77 0.979 . S
H108 C77 0.977 . S
H109 C79 0.948 . S
H110 C81 0.947 . S
H111 C82 0.948 . S
H112 C88 0.982 . S
H113 C88 0.979 . S
H114 C88 0.977 . S
H115 C89 0.979 . S
H116 C89 0.980 . S
H117 C89 0.983 . S
H118 C62 0.947 . S
C119 C62 1.392 . S
C119 C63 1.419 . S
C119 H101 0.948 . S
C120 C121 1.391 . S
C120 C124 1.391 . S
C120 H162 0.948 . S
C121 C120 1.391 . S
C121 C122 1.391 . S
C122 C121 1.391 . S
C122 H178 0.947 . S
C122 C179 1.392 . S
C123 C124 1.391 . S
C123 C127 1.397 . S
C123 C179 1.419 . S
C124 C120 1.391 . S
C124 C123 1.391 . S
C124 C125 1.399 . S
C125 C124 1.399 . S
C125 C128 1.396 . S
C125 C137 1.453 . S
C125 C138 1.684 . S
H126 C150 0.948 . S
C127 C123 1.397 . S
C127 C128 1.394 . S
C127 C146 1.723 1_554 S
C128 C125 1.396 . S
C128 C127 1.394 . S
C128 C158 1.723 . S
H129 C152 0.947 . S
H130 C153 0.948 . S
H131 C159 0.982 . S
H132 C160 0.979 . S
H133 C160 0.980 . S
H134 C160 0.983 . S
H135 C159 0.979 . S
H136 C159 0.977 . S
C137 C125 1.453 . S
C137 H166 0.982 . S
C137 H167 0.979 . S
C137 H168 0.977 . S
C138 C125 1.684 . S
C138 H163 0.979 . S
C138 H164 0.980 . S
C138 H165 0.983 . S
C139 C140 1.391 . S
C139 C144 1.391 . S
C139 H169 0.948 . S
C140 C139 1.391 . S
C140 C141 1.391 . S
C141 C140 1.391 . S
C141 C142 1.392 . S
C141 H170 0.947 . S
C142 C141 1.392 . S
C142 C143 1.419 . S
C142 H171 0.948 . S
C143 C142 1.419 . S
C143 C144 1.391 . S
C143 C147 1.397 . S
C144 C139 1.391 . S
C144 C143 1.391 . S
C144 C145 1.399 . S
C145 C144 1.399 . S
C145 C146 1.396 . S
C145 C148 1.453 . S
C145 C149 1.684 . S
C146 C127 1.723 1_556 S
C146 C145 1.396 . S
C146 C147 1.394 . S
C147 C143 1.397 . S
C147 C146 1.394 . S
C147 C157 1.723 . S
C148 C145 1.453 . S
C148 H172 0.982 . S
C148 H173 0.979 . S
C148 H174 0.977 1_556 S
C149 C145 1.684 . S
C149 H175 0.979 . S
C149 H176 0.980 1_556 S
C149 H177 0.983 . S
C150 H126 0.948 . S
C150 C151 1.385 1_556 S
C150 C155 1.391 . S
C151 C150 1.385 1_554 S
C151 C152 1.398 . S
C152 H129 0.947 . S
C152 C151 1.398 . S
C152 C153 1.392 . S
C153 H130 0.948 . S
C153 C152 1.392 . S
C153 C154 1.419 . S
C154 C153 1.419 . S
C154 C155 1.391 1_554 S
C154 C158 1.397 . S
C155 C150 1.391 . S
C155 C154 1.391 1_556 S
C155 C156 1.399 . S
C156 C155 1.399 . S
C156 C157 1.396 . S
C156 C159 1.453 . S
C156 C160 1.684 . S
C157 C147 1.723 . S
C157 C156 1.396 . S
C157 C158 1.394 1_556 S
C158 C128 1.723 . S
C158 C154 1.397 . S
C158 C157 1.394 1_554 S
C159 H131 0.982 . S
C159 H135 0.979 . S
C159 H136 0.977 . S
C159 C156 1.453 . S
C160 H132 0.979 . S
C160 H133 0.980 . S
C160 H134 0.983 . S
C160 C156 1.684 . S
H161 C179 0.948 . S
H162 C120 0.948 . S
H163 C138 0.979 . S
H164 C138 0.980 . S
H165 C138 0.983 . S
H166 C137 0.982 . S
H167 C137 0.979 . S
H168 C137 0.977 . S
H169 C139 0.948 . S
H170 C141 0.947 . S
H171 C142 0.948 . S
H172 C148 0.982 . S
H173 C148 0.979 . S
H174 C148 0.977 1_554 S
H175 C149 0.979 . S
H176 C149 0.980 1_554 S
H177 C149 0.983 . S
H178 C122 0.947 . S
C179 C122 1.392 . S
C179 C123 1.419 . S
C179 H161 0.948 . S
C180 C181 1.391 . S
C180 C184 1.391 . S
C180 H222 0.948 . S
C181 C180 1.391 . S
C181 C182 1.391 . S
C182 C181 1.391 . S
C182 H238 0.947 . S
C182 C239 1.392 . S
C183 C184 1.391 . S
C183 C187 1.397 . S
C183 C239 1.419 . S
C184 C180 1.391 . S
C184 C183 1.391 . S
C184 C185 1.399 . S
C185 C184 1.399 . S
C185 C188 1.396 . S
C185 C197 1.453 . S
C185 C198 1.684 . S
H186 C210 0.948 . S
C187 C183 1.397 . S
C187 C188 1.394 . S
C187 C206 1.723 . S
C188 C185 1.396 . S
C188 C187 1.394 . S
C188 C218 1.723 . S
H189 C212 0.947 . S
H190 C213 0.948 . S
H191 C219 0.982 . S
H192 C220 0.979 . S
H193 C220 0.980 . S
H194 C220 0.983 . S
H195 C219 0.979 . S
H196 C219 0.977 . S
C197 C185 1.453 . S
C197 H226 0.982 . S
C197 H227 0.979 . S
C197 H228 0.977 . S
C198 C185 1.684 . S
C198 H223 0.979 . S
C198 H224 0.980 . S
C198 H225 0.983 . S
C199 C200 1.391 . S
C199 C204 1.391 . S
C199 H229 0.948 . S
C200 C199 1.391 . S
C200 C201 1.391 . S
C201 C200 1.391 . S
C201 C202 1.392 . S
C201 H230 0.947 . S
C202 C201 1.392 . S
C202 C203 1.419 . S
C202 H231 0.948 . S
C203 C202 1.419 . S
C203 C204 1.391 . S
C203 C207 1.397 . S
C204 C199 1.391 . S
C204 C203 1.391 . S
C204 C205 1.399 . S
C205 C204 1.399 . S
C205 C206 1.396 . S
C205 C208 1.453 . S
C205 C209 1.684 . S
C206 C187 1.723 . S
C206 C205 1.396 . S
C206 C207 1.394 . S
C207 C203 1.397 . S
C207 C206 1.394 . S
C207 C217 1.723 . S
C208 C205 1.453 . S
C208 H232 0.982 . S
C208 H233 0.979 . S
C208 H234 0.977 . S
C209 C205 1.684 . S
C209 H235 0.979 . S
C209 H236 0.980 . S
C209 H237 0.983 . S
C210 H186 0.948 . S
C210 C211 1.391 . S
C210 C215 1.391 . S
C211 C210 1.391 . S
C211 C212 1.391 . S
C212 H189 0.947 . S
C212 C211 1.391 . S
C212 C213 1.392 . S
C213 H190 0.948 . S
C213 C212 1.392 . S
C213 C214 1.419 . S
C214 C213 1.419 . S
C214 C215 1.391 . S
C214 C218 1.397 . S
C215 C210 1.391 . S
C215 C214 1.391 . S
C215 C216 1.399 . S
C216 C215 1.399 . S
C216 C217 1.396 . S
C216 C219 1.453 . S
C216 C220 1.684 . S
C217 C207 1.723 . S
C217 C216 1.396 . S
C217 C218 1.394 . S
C218 C188 1.723 . S
C218 C214 1.397 . S
C218 C217 1.394 . S
C219 H191 0.982 . S
C219 H195 0.979 . S
C219 H196 0.977 . S
C219 C216 1.453 . S
C220 H192 0.979 . S
C220 H193 0.980 . S
C220 H194 0.983 . S
C220 C216 1.684 . S
H221 C239 0.948 . S
H222 C180 0.948 . S
H223 C198 0.979 . S
H224 C198 0.980 . S
H225 C198 0.983 . S
H226 C197 0.982 . S
H227 C197 0.979 . S
H228 C197 0.977 . S
H229 C199 0.948 . S
H230 C201 0.947 . S
H231 C202 0.948 . S
H232 C208 0.982 . S
H233 C208 0.979 . S
H234 C208 0.977 . S
H235 C209 0.979 . S
H236 C209 0.980 . S
H237 C209 0.983 . S
H238 C182 0.947 . S
C239 C182 1.392 . S
C239 C183 1.419 . S
C239 H221 0.948 . S
O240 Mn241 2.163 1_655 S
O240 C254 1.244 . S
Mn241 O240 2.163 1_455 S
Mn241 O244 2.160 1_545 S
Mn241 O245 2.221 . S
Mn241 O247 2.163 1_455 S
Mn241 O249 2.160 . S
Mn241 O259 2.221 1_445 S
O242 Mn243 2.087 1_545 S
O242 C254 1.256 . S
Mn243 O242 2.087 1_565 S
Mn243 O250 2.089 1_655 S
Mn243 O259 2.290 . S
Mn243 O260 2.251 . S
O244 Mn241 2.160 1_565 S
O244 C255 1.239 1_565 S
O245 Mn241 2.221 . S
O245 Mn246 2.290 . S
O245 C256 1.278 . S
Mn246 O245 2.290 . S
Mn246 O248 2.089 . S
Mn246 O251 2.251 . S
Mn246 O252 2.087 1_455 S
O247 Mn241 2.163 1_655 S
O247 C257 1.244 . S
O248 Mn246 2.089 . S
O248 C255 1.256 . S
O249 Mn241 2.160 . S
O249 C258 1.239 1_545 S
O250 Mn243 2.089 1_455 S
O250 C258 1.256 . S
O251 Mn246 2.251 . S
O251 C256 1.241 . S
O252 Mn246 2.087 1_655 S
O252 C257 1.256 . S
C253 O259 1.278 . S
C253 O260 1.241 . S
C254 O240 1.244 . S
C254 O242 1.256 . S
C255 O244 1.239 1_545 S
C255 O248 1.256 . S
C256 O245 1.278 . S
C256 O251 1.241 . S
C257 O247 1.244 . S
C257 O252 1.256 . S
C258 O249 1.239 1_565 S
C258 O250 1.256 . S
O259 Mn241 2.221 1_665 S
O259 Mn243 2.290 . S
O259 C253 1.278 . S
O260 Mn243 2.251 . S
O260 C253 1.241 . S
O261 Mn262 2.163 . S
O261 C275 1.244 . S
Mn262 O261 2.163 . S
Mn262 O265 2.160 1_554 S
Mn262 O266 2.221 . S
Mn262 O268 2.163 . S
Mn262 O270 2.160 . S
Mn262 O280 2.221 . S
O263 Mn264 2.087 . S
O263 C275 1.256 . S
Mn264 O263 2.087 . S
Mn264 O271 2.089 . S
Mn264 O280 2.290 . S
Mn264 O281 2.251 . S
O265 Mn262 2.160 1_556 S
O265 C276 1.239 . S
O266 Mn262 2.221 . S
O266 Mn267 2.290 1_554 S
O266 C277 1.278 . S
Mn267 O266 2.290 1_556 S
Mn267 O269 2.089 . S
Mn267 O272 2.251 1_556 S
Mn267 O273 2.087 . S
O268 Mn262 2.163 . S
O268 C278 1.244 1_554 S
O269 Mn267 2.089 . S
O269 C276 1.256 . S
O270 Mn262 2.160 . S
O270 C279 1.239 . S
O271 Mn264 2.089 . S
O271 C279 1.256 . S
O272 Mn267 2.251 1_554 S
O272 C277 1.241 . S
O273 Mn267 2.087 . S
O273 C278 1.256 . S
C274 O280 1.278 . S
C274 O281 1.241 . S
C275 O261 1.244 . S
C275 O263 1.256 . S
C276 O265 1.239 . S
C276 O269 1.256 . S
C277 O266 1.278 . S
C277 O272 1.241 . S
C278 O268 1.244 1_556 S
C278 O273 1.256 . S
C279 O270 1.239 . S
C279 O271 1.256 . S
O280 Mn262 2.221 . S
O280 Mn264 2.290 . S
O280 C274 1.278 . S
O281 Mn264 2.251 . S
O281 C274 1.241 . S
H282 C290 0.929 . S
H283 C292 0.930 . S
H284 C294 0.930 . S
H285 C297 0.929 . S
H286 C300 0.930 . S
H287 C302 0.960 . S
H288 C302 0.960 . S
H289 C302 0.960 . S
C290 H282 0.929 . S
C290 C291 1.377 . S
C290 C292 1.384 . S
C291 C290 1.377 . S
C291 C297 1.390 . S
C292 H283 0.930 . S
C292 C290 1.384 . S
C292 C293 1.372 . S
C293 C292 1.372 . S
C293 C294 1.400 . S
C293 C298 1.490 . S
C294 H284 0.930 . S
C294 C293 1.400 . S
C294 C297 1.386 . S
H295 C311 0.930 . S
H296 C312 0.931 . S
C297 H285 0.929 . S
C297 C291 1.390 . S
C297 C294 1.386 . S
C298 C293 1.490 . S
C298 C300 1.395 . S
C298 C301 1.403 . S
H299 C305 0.930 . S
C300 H286 0.930 . S
C300 C298 1.395 . S
C300 C303 1.403 . S
C301 C298 1.403 . S
C301 C302 1.524 . S
C301 C305 1.400 . S
C302 H287 0.960 . S
C302 H288 0.960 . S
C302 H289 0.960 . S
C302 C301 1.524 . S
C303 C300 1.403 . S
C303 C304 1.392 . S
C303 C307 1.495 . S
C304 C303 1.392 . S
C304 C305 1.385 . S
C304 C306 1.478 . S
C305 H299 0.930 . S
C305 C301 1.400 . S
C305 C304 1.385 . S
C306 C304 1.478 . S
C306 C308 1.381 . S
C306 C312 1.383 . S
C307 C303 1.495 . S
C307 H313 0.959 . S
C307 H314 0.961 . S
C307 H315 0.960 . S
C308 C306 1.381 . S
C308 C309 1.394 . S
C308 H316 0.930 . S
C309 C308 1.394 . S
C309 C310 1.383 . S
C309 H317 0.929 . S
C310 C309 1.383 . S
C310 C311 1.377 . S
C311 H295 0.930 . S
C311 C310 1.377 . S
C311 C312 1.379 . S
C312 H296 0.931 . S
C312 C306 1.383 . S
C312 C311 1.379 . S
H313 C307 0.959 . S
H314 C307 0.961 . S
H315 C307 0.960 . S
H316 C308 0.930 . S
H317 C309 0.929 . S
H318 C326 0.929 . S
H319 C328 0.930 . S
H320 C330 0.930 . S
H321 C333 0.929 . S
H322 C336 0.930 . S
H323 C338 0.960 . S
H324 C338 0.960 . S
H325 C338 0.960 . S
C326 H318 0.929 . S
C326 C327 1.377 . S
C326 C328 1.384 . S
C327 C326 1.377 . S
C327 C333 1.390 . S
C328 H319 0.930 . S
C328 C326 1.384 . S
C328 C329 1.372 . S
C329 C328 1.372 . S
C329 C330 1.400 . S
C329 C334 1.490 . S
C330 H320 0.930 . S
C330 C329 1.400 . S
C330 C333 1.386 . S
H331 C347 0.930 . S
H332 C348 0.931 . S
C333 H321 0.929 . S
C333 C327 1.390 . S
C333 C330 1.386 . S
C334 C329 1.490 . S
C334 C336 1.395 . S
C334 C337 1.403 . S
H335 C341 0.930 . S
C336 H322 0.930 . S
C336 C334 1.395 . S
C336 C339 1.403 . S
C337 C334 1.403 . S
C337 C338 1.524 . S
C337 C341 1.400 . S
C338 H323 0.960 . S
C338 H324 0.960 . S
C338 H325 0.960 . S
C338 C337 1.524 . S
C339 C336 1.403 . S
C339 C340 1.392 . S
C339 C343 1.495 . S
C340 C339 1.392 . S
C340 C341 1.385 . S
C340 C342 1.478 . S
C341 H335 0.930 . S
C341 C337 1.400 . S
C341 C340 1.385 . S
C342 C340 1.478 . S
C342 C344 1.381 . S
C342 C348 1.383 . S
C343 C339 1.495 . S
C343 H349 0.959 . S
C343 H350 0.961 . S
C343 H351 0.960 . S
C344 C342 1.381 . S
C344 C345 1.394 . S
C344 H352 0.930 . S
C345 C344 1.394 . S
C345 C346 1.383 . S
C345 H353 0.929 . S
C346 C345 1.383 . S
C346 C347 1.377 . S
C347 H331 0.930 . S
C347 C346 1.377 . S
C347 C348 1.379 . S
C348 H332 0.931 . S
C348 C342 1.383 . S
C348 C347 1.379 . S
H349 C343 0.959 . S
H350 C343 0.961 . S
H351 C343 0.960 . S
H352 C344 0.930 . S
H353 C345 0.929 . S
H354 C362 0.929 . S
H355 C364 0.930 . S
H356 C366 0.930 . S
H357 C369 0.929 . S
H358 C372 0.930 . S
H359 C374 0.960 . S
H360 C374 0.960 . S
H361 C374 0.960 . S
C362 H354 0.929 . S
C362 C363 1.377 . S
C362 C364 1.384 . S
C363 C362 1.377 . S
C363 C369 1.390 . S
C364 H355 0.930 . S
C364 C362 1.384 . S
C364 C365 1.372 . S
C365 C364 1.372 . S
C365 C366 1.400 . S
C365 C370 1.490 . S
C366 H356 0.930 . S
C366 C365 1.400 . S
C366 C369 1.386 . S
H367 C383 0.930 . S
H368 C384 0.931 . S
C369 H357 0.929 . S
C369 C363 1.390 . S
C369 C366 1.386 . S
C370 C365 1.490 . S
C370 C372 1.395 . S
C370 C373 1.403 . S
H371 C377 0.930 . S
C372 H358 0.930 . S
C372 C370 1.395 . S
C372 C375 1.403 . S
C373 C370 1.403 . S
C373 C374 1.524 . S
C373 C377 1.400 . S
C374 H359 0.960 . S
C374 H360 0.960 . S
C374 H361 0.960 . S
C374 C373 1.524 . S
C375 C372 1.403 . S
C375 C376 1.392 . S
C375 C379 1.495 . S
C376 C375 1.392 . S
C376 C377 1.385 . S
C376 C378 1.478 . S
C377 H371 0.930 . S
C377 C373 1.400 . S
C377 C376 1.385 . S
C378 C376 1.478 . S
C378 C380 1.381 . S
C378 C384 1.383 . S
C379 C375 1.495 . S
C379 H385 0.959 . S
C379 H386 0.961 . S
C379 H387 0.960 . S
C380 C378 1.381 . S
C380 C381 1.394 . S
C380 H388 0.930 . S
C381 C380 1.394 . S
C381 C382 1.383 . S
C381 H389 0.929 . S
C382 C381 1.383 . S
C382 C383 1.377 . S
C383 H367 0.930 . S
C383 C382 1.377 . S
C383 C384 1.379 . S
C384 H368 0.931 . S
C384 C378 1.383 . S
C384 C383 1.379 . S
H385 C379 0.959 . S
H386 C379 0.961 . S
H387 C379 0.960 . S
H388 C380 0.930 . S
H389 C381 0.929 . S
H390 C398 0.929 . S
H391 C400 0.930 . S
H392 C402 0.930 . S
H393 C405 0.929 . S
H394 C408 0.930 . S
H395 C410 0.960 . S
H396 C410 0.960 1_554 S
H397 C410 0.960 . S
C398 H390 0.929 . S
C398 C399 1.377 1_554 S
C398 C400 1.384 . S
C399 C398 1.377 1_556 S
C399 C405 1.390 . S
C400 H391 0.930 . S
C400 C398 1.384 . S
C400 C401 1.372 . S
C401 C400 1.372 . S
C401 C402 1.400 1_554 S
C401 C406 1.490 . S
C402 H392 0.930 . S
C402 C401 1.400 1_556 S
C402 C405 1.386 . S
H403 C419 0.930 . S
H404 C420 0.931 . S
C405 H393 0.929 . S
C405 C399 1.390 . S
C405 C402 1.386 . S
C406 C401 1.490 . S
C406 C408 1.395 . S
C406 C409 1.403 . S
H407 C413 0.930 . S
C408 H394 0.930 . S
C408 C406 1.395 . S
C408 C411 1.403 . S
C409 C406 1.403 . S
C409 C410 1.524 1_554 S
C409 C413 1.400 . S
C410 H395 0.960 . S
C410 H396 0.960 1_556 S
C410 H397 0.960 . S
C410 C409 1.524 1_556 S
C411 C408 1.403 . S
C411 C412 1.392 . S
C411 C415 1.495 . S
C412 C411 1.392 . S
C412 C413 1.385 . S
C412 C414 1.478 . S
C413 H407 0.930 . S
C413 C409 1.400 . S
C413 C412 1.385 . S
C414 C412 1.478 . S
C414 C416 1.381 . S
C414 C420 1.383 1_554 S
C415 C411 1.495 . S
C415 H421 0.959 . S
C415 H422 0.961 . S
C415 H423 0.960 . S
C416 C414 1.381 . S
C416 C417 1.394 . S
C416 H424 0.930 . S
C417 C416 1.394 . S
C417 C418 1.383 . S
C417 H425 0.929 . S
C418 C417 1.383 . S
C418 C419 1.377 1_554 S
C419 H403 0.930 . S
C419 C418 1.377 1_556 S
C419 C420 1.379 . S
C420 H404 0.931 . S
C420 C414 1.383 1_556 S
C420 C419 1.379 . S
H421 C415 0.959 . S
H422 C415 0.961 . S
H423 C415 0.960 . S
H424 C416 0.930 . S
H425 C417 0.929 . S
H426 C434 0.929 . S
H427 C436 0.930 . S
H428 C438 0.930 . S
H429 C441 0.929 . S
H430 C444 0.930 . S
H431 C446 0.960 . S
H432 C446 0.960 . S
H433 C446 0.960 . S
C434 H426 0.929 . S
C434 C435 1.377 . S
C434 C436 1.384 . S
C435 C434 1.377 . S
C435 C441 1.390 . S
C436 H427 0.930 . S
C436 C434 1.384 . S
C436 C437 1.372 . S
C437 C436 1.372 . S
C437 C438 1.400 . S
C437 C442 1.490 . S
C438 H428 0.930 . S
C438 C437 1.400 . S
C438 C441 1.386 . S
H439 C455 0.930 1_545 S
H440 C456 0.931 . S
C441 H429 0.929 . S
C441 C435 1.390 . S
C441 C438 1.386 . S
C442 C437 1.490 . S
C442 C444 1.395 . S
C442 C445 1.403 . S
H443 C449 0.930 . S
C444 H430 0.930 . S
C444 C442 1.395 . S
C444 C447 1.403 . S
C445 C442 1.403 . S
C445 C446 1.524 . S
C445 C449 1.400 . S
C446 H431 0.960 . S
C446 H432 0.960 . S
C446 H433 0.960 . S
C446 C445 1.524 . S
C447 C444 1.403 . S
C447 C448 1.392 . S
C447 C451 1.495 1_565 S
C448 C447 1.392 . S
C448 C449 1.385 . S
C448 C450 1.478 . S
C449 H443 0.930 . S
C449 C445 1.400 . S
C449 C448 1.385 . S
C450 C448 1.478 . S
C450 C452 1.381 . S
C450 C456 1.383 . S
C451 C447 1.495 1_545 S
C451 H457 0.959 . S
C451 H458 0.961 . S
C451 H459 0.960 1_545 S
C452 C450 1.381 . S
C452 C453 1.394 . S
C452 H460 0.930 . S
C453 C452 1.394 . S
C453 C454 1.383 . S
C453 H461 0.929 . S
C454 C453 1.383 . S
C454 C455 1.377 . S
C455 H439 0.930 1_565 S
C455 C454 1.377 . S
C455 C456 1.379 . S
C456 H440 0.931 . S
C456 C450 1.383 . S
C456 C455 1.379 . S
H457 C451 0.959 . S
H458 C451 0.961 . S
H459 C451 0.960 1_565 S
H460 C452 0.930 . S
H461 C453 0.929 . S
H462 C470 0.929 . S
H463 C472 0.930 . S
H464 C474 0.930 . S
H465 C477 0.929 . S
H466 C480 0.930 . S
H467 C482 0.960 . S
H468 C482 0.960 . S
H469 C482 0.960 . S
C470 H462 0.929 . S
C470 C471 1.377 . S
C470 C472 1.384 . S
C471 C470 1.377 . S
C471 C477 1.390 . S
C472 H463 0.930 . S
C472 C470 1.384 . S
C472 C473 1.372 . S
C473 C472 1.372 . S
C473 C474 1.400 . S
C473 C478 1.490 . S
C474 H464 0.930 . S
C474 C473 1.400 . S
C474 C477 1.386 . S
H475 C491 0.930 . S
H476 C492 0.931 . S
C477 H465 0.929 . S
C477 C471 1.390 . S
C477 C474 1.386 . S
C478 C473 1.490 . S
C478 C480 1.395 . S
C478 C481 1.403 . S
H479 C485 0.930 . S
C480 H466 0.930 . S
C480 C478 1.395 . S
C480 C483 1.403 . S
C481 C478 1.403 . S
C481 C482 1.524 . S
C481 C485 1.400 . S
C482 H467 0.960 . S
C482 H468 0.960 . S
C482 H469 0.960 . S
C482 C481 1.524 . S
C483 C480 1.403 . S
C483 C484 1.392 . S
C483 C487 1.495 . S
C484 C483 1.392 . S
C484 C485 1.385 . S
C484 C486 1.478 . S
C485 H479 0.930 . S
C485 C481 1.400 . S
C485 C484 1.385 . S
C486 C484 1.478 . S
C486 C488 1.381 . S
C486 C492 1.383 . S
C487 C483 1.495 . S
C487 H493 0.959 . S
C487 H494 0.961 . S
C487 H495 0.960 . S
C488 C486 1.381 . S
C488 C489 1.394 . S
C488 H496 0.930 . S
C489 C488 1.394 . S
C489 C490 1.383 . S
C489 H497 0.929 . S
C490 C489 1.383 . S
C490 C491 1.377 . S
C491 H475 0.930 . S
C491 C490 1.377 . S
C491 C492 1.379 . S
C492 H476 0.931 . S
C492 C486 1.383 . S
C492 C491 1.379 . S
H493 C487 0.959 . S
H494 C487 0.961 . S
H495 C487 0.960 . S
H496 C488 0.930 . S
H497 C489 0.929 . S
H498 C506 0.929 . S
H499 C508 0.930 . S
H500 C510 0.930 . S
H501 C513 0.929 . S
H502 C516 0.930 . S
H503 C518 0.960 . S
H504 C518 0.960 . S
H505 C518 0.960 . S
C506 H498 0.929 . S
C506 C507 1.377 . S
C506 C508 1.384 . S
C507 C506 1.377 . S
C507 C513 1.390 . S
C508 H499 0.930 . S
C508 C506 1.384 . S
C508 C509 1.372 . S
C509 C508 1.372 . S
C509 C510 1.400 . S
C509 C514 1.490 . S
C510 H500 0.930 . S
C510 C509 1.400 . S
C510 C513 1.386 . S
H511 C527 0.930 . S
H512 C528 0.931 . S
C513 H501 0.929 . S
C513 C507 1.390 . S
C513 C510 1.386 . S
C514 C509 1.490 . S
C514 C516 1.395 . S
C514 C517 1.403 . S
H515 C521 0.930 . S
C516 H502 0.930 . S
C516 C514 1.395 . S
C516 C519 1.403 . S
C517 C514 1.403 . S
C517 C518 1.524 . S
C517 C521 1.400 . S
C518 H503 0.960 . S
C518 H504 0.960 . S
C518 H505 0.960 . S
C518 C517 1.524 . S
C519 C516 1.403 . S
C519 C520 1.392 . S
C519 C523 1.495 . S
C520 C519 1.392 . S
C520 C521 1.385 . S
C520 C522 1.478 . S
C521 H515 0.930 . S
C521 C517 1.400 . S
C521 C520 1.385 . S
C522 C520 1.478 . S
C522 C524 1.381 . S
C522 C528 1.383 . S
C523 C519 1.495 . S
C523 H529 0.959 . S
C523 H530 0.961 . S
C523 H531 0.960 . S
C524 C522 1.381 . S
C524 C525 1.394 . S
C524 H532 0.930 . S
C525 C524 1.394 . S
C525 C526 1.383 . S
C525 H533 0.929 . S
C526 C525 1.383 . S
C526 C527 1.377 . S
C527 H511 0.930 . S
C527 C526 1.377 . S
C527 C528 1.379 . S
C528 H512 0.931 . S
C528 C522 1.383 . S
C528 C527 1.379 . S
H529 C523 0.959 . S
H530 C523 0.961 . S
H531 C523 0.960 . S
H532 C524 0.930 . S
H533 C525 0.929 . S
H534 C542 0.929 . S
H535 C544 0.930 . S
H536 C546 0.930 . S
H537 C549 0.929 . S
H538 C552 0.930 . S
H539 C554 0.960 . S
H540 C554 0.960 . S
H541 C554 0.960 . S
C542 H534 0.929 . S
C542 C543 1.377 . S
C542 C544 1.384 . S
C543 C542 1.377 . S
C543 C549 1.390 . S
C544 H535 0.930 . S
C544 C542 1.384 . S
C544 C545 1.372 . S
C545 C544 1.372 . S
C545 C546 1.400 . S
C545 C550 1.490 . S
C546 H536 0.930 . S
C546 C545 1.400 . S
C546 C549 1.386 . S
H547 C563 0.930 . S
H548 C564 0.931 . S
C549 H537 0.929 . S
C549 C543 1.390 . S
C549 C546 1.386 . S
C550 C545 1.490 . S
C550 C552 1.395 . S
C550 C553 1.403 . S
H551 C557 0.930 . S
C552 H538 0.930 . S
C552 C550 1.395 . S
C552 C555 1.403 . S
C553 C550 1.403 . S
C553 C554 1.524 . S
C553 C557 1.400 . S
C554 H539 0.960 . S
C554 H540 0.960 . S
C554 H541 0.960 . S
C554 C553 1.524 . S
C555 C552 1.403 . S
C555 C556 1.392 . S
C555 C559 1.495 . S
C556 C555 1.392 . S
C556 C557 1.385 . S
C556 C558 1.478 . S
C557 H551 0.930 . S
C557 C553 1.400 . S
C557 C556 1.385 . S
C558 C556 1.478 . S
C558 C560 1.381 . S
C558 C564 1.383 . S
C559 C555 1.495 . S
C559 H565 0.959 . S
C559 H566 0.961 . S
C559 H567 0.960 . S
C560 C558 1.381 . S
C560 C561 1.394 . S
C560 H568 0.930 . S
C561 C560 1.394 . S
C561 C562 1.383 . S
C561 H569 0.929 . S
C562 C561 1.383 . S
C562 C563 1.377 . S
C563 H547 0.930 . S
C563 C562 1.377 . S
C563 C564 1.379 . S
C564 H548 0.931 . S
C564 C558 1.383 . S
C564 C563 1.379 . S
H565 C559 0.959 . S
H566 C559 0.961 . S
H567 C559 0.960 . S
H568 C560 0.930 . S
H569 C561 0.929 . S
H570 C578 0.929 . S
H571 C580 0.930 . S
H572 C582 0.930 . S
H573 C585 0.929 . S
H574 C588 0.930 . S
H575 C590 0.960 . S
H576 C590 0.960 . S
H577 C590 0.960 . S
C578 H570 0.929 . S
C578 C579 1.377 . S
C578 C580 1.384 . S
C579 C578 1.377 . S
C579 C585 1.390 . S
C580 H571 0.930 . S
C580 C578 1.384 . S
C580 C581 1.372 . S
C581 C580 1.372 . S
C581 C582 1.400 . S
C581 C586 1.490 . S
C582 H572 0.930 . S
C582 C581 1.400 . S
C582 C585 1.386 . S
H583 C599 0.930 . S
H584 C600 0.931 . S
C585 H573 0.929 . S
C585 C579 1.390 . S
C585 C582 1.386 . S
C586 C581 1.490 . S
C586 C588 1.395 . S
C586 C589 1.403 . S
H587 C593 0.930 . S
C588 H574 0.930 . S
C588 C586 1.395 . S
C588 C591 1.403 . S
C589 C586 1.403 . S
C589 C590 1.524 . S
C589 C593 1.400 . S
C590 H575 0.960 . S
C590 H576 0.960 . S
C590 H577 0.960 . S
C590 C589 1.524 . S
C591 C588 1.403 . S
C591 C592 1.392 . S
C591 C595 1.495 . S
C592 C591 1.392 . S
C592 C593 1.385 . S
C592 C594 1.478 . S
C593 H587 0.930 . S
C593 C589 1.400 . S
C593 C592 1.385 . S
C594 C592 1.478 . S
C594 C596 1.381 . S
C594 C600 1.383 . S
C595 C591 1.495 . S
C595 H601 0.959 . S
C595 H602 0.961 . S
C595 H603 0.960 . S
C596 C594 1.381 . S
C596 C597 1.394 . S
C596 H604 0.930 . S
C597 C596 1.394 . S
C597 C598 1.383 . S
C597 H605 0.929 . S
C598 C597 1.383 . S
C598 C599 1.377 . S
C599 H583 0.930 . S
C599 C598 1.377 . S
C599 C600 1.379 . S
C600 H584 0.931 . S
C600 C594 1.383 . S
C600 C599 1.379 . S
H601 C595 0.959 . S
H602 C595 0.961 . S
H603 C595 0.960 . S
H604 C596 0.930 . S
H605 C597 0.929 . S
H606 C614 0.929 . S
H607 C616 0.930 . S
H608 C618 0.930 . S
H609 C621 0.929 . S
H610 C624 0.930 . S
H611 C626 0.960 . S
H612 C626 0.960 . S
H613 C626 0.960 . S
C614 H606 0.929 . S
C614 C615 1.377 . S
C614 C616 1.384 . S
C615 C614 1.377 . S
C615 C621 1.390 . S
C616 H607 0.930 . S
C616 C614 1.384 . S
C616 C617 1.372 . S
C617 C616 1.372 . S
C617 C618 1.400 . S
C617 C622 1.490 . S
C618 H608 0.930 . S
C618 C617 1.400 . S
C618 C621 1.386 . S
H619 C635 0.930 . S
H620 C636 0.931 . S
C621 H609 0.929 . S
C621 C615 1.390 . S
C621 C618 1.386 . S
C622 C617 1.490 . S
C622 C624 1.395 . S
C622 C625 1.403 . S
H623 C629 0.930 . S
C624 H610 0.930 . S
C624 C622 1.395 . S
C624 C627 1.403 . S
C625 C622 1.403 . S
C625 C626 1.524 . S
C625 C629 1.400 . S
C626 H611 0.960 . S
C626 H612 0.960 . S
C626 H613 0.960 . S
C626 C625 1.524 . S
C627 C624 1.403 . S
C627 C628 1.392 . S
C627 C631 1.495 . S
C628 C627 1.392 . S
C628 C629 1.385 . S
C628 C630 1.478 . S
C629 H623 0.930 . S
C629 C625 1.400 . S
C629 C628 1.385 . S
C630 C628 1.478 . S
C630 C632 1.381 . S
C630 C636 1.383 . S
C631 C627 1.495 . S
C631 H637 0.959 . S
C631 H638 0.961 . S
C631 H639 0.960 . S
C632 C630 1.381 . S
C632 C633 1.394 . S
C632 H640 0.930 . S
C633 C632 1.394 . S
C633 C634 1.383 . S
C633 H641 0.929 . S
C634 C633 1.383 . S
C634 C635 1.377 . S
C635 H619 0.930 . S
C635 C634 1.377 . S
C635 C636 1.379 . S
C636 H620 0.931 . S
C636 C630 1.383 . S
C636 C635 1.379 . S
H637 C631 0.959 . S
H638 C631 0.961 . S
H639 C631 0.960 . S
H640 C632 0.930 . S
H641 C633 0.929 . S
H642 C650 0.929 . S
H643 C652 0.930 . S
H644 C654 0.930 . S
H645 C657 0.929 . S
H646 C660 0.930 . S
H647 C662 0.960 . S
H648 C662 0.960 . S
H649 C662 0.960 . S
C650 H642 0.929 . S
C650 C651 1.377 . S
C650 C652 1.384 . S
C651 C650 1.377 . S
C651 C657 1.390 . S
C652 H643 0.930 . S
C652 C650 1.384 . S
C652 C653 1.372 . S
C653 C652 1.372 . S
C653 C654 1.400 . S
C653 C658 1.490 . S
C654 H644 0.930 . S
C654 C653 1.400 . S
C654 C657 1.386 . S
H655 C671 0.930 . S
H656 C672 0.931 . S
C657 H645 0.929 . S
C657 C651 1.390 . S
C657 C654 1.386 . S
C658 C653 1.490 . S
C658 C660 1.395 . S
C658 C661 1.403 . S
H659 C665 0.930 . S
C660 H646 0.930 . S
C660 C658 1.395 . S
C660 C663 1.403 . S
C661 C658 1.403 . S
C661 C662 1.524 . S
C661 C665 1.400 . S
C662 H647 0.960 . S
C662 H648 0.960 . S
C662 H649 0.960 . S
C662 C661 1.524 . S
C663 C660 1.403 . S
C663 C664 1.392 . S
C663 C667 1.495 . S
C664 C663 1.392 . S
C664 C665 1.385 . S
C664 C666 1.478 . S
C665 H659 0.930 . S
C665 C661 1.400 . S
C665 C664 1.385 . S
C666 C664 1.478 . S
C666 C668 1.381 . S
C666 C672 1.383 . S
C667 C663 1.495 . S
C667 H673 0.959 . S
C667 H674 0.961 . S
C667 H675 0.960 . S
C668 C666 1.381 . S
C668 C669 1.394 . S
C668 H676 0.930 . S
C669 C668 1.394 . S
C669 C670 1.383 . S
C669 H677 0.929 . S
C670 C669 1.383 . S
C670 C671 1.377 . S
C671 H655 0.930 . S
C671 C670 1.377 . S
C671 C672 1.379 . S
C672 H656 0.931 . S
C672 C666 1.383 . S
C672 C671 1.379 . S
H673 C667 0.959 . S
H674 C667 0.961 . S
H675 C667 0.960 . S
H676 C668 0.930 . S
H677 C669 0.929 . S
H678 C686 0.929 . S
H679 C688 0.930 . S
H680 C690 0.930 . S
H681 C693 0.929 . S
H682 C696 0.930 . S
H683 C698 0.960 . S
H684 C698 0.960 . S
H685 C698 0.960 . S
C686 H678 0.929 . S
C686 C687 1.377 . S
C686 C688 1.384 . S
C687 C686 1.377 . S
C687 C693 1.390 . S
C688 H679 0.930 . S
C688 C686 1.384 . S
C688 C689 1.372 . S
C689 C688 1.372 . S
C689 C690 1.400 . S
C689 C694 1.490 . S
C690 H680 0.930 . S
C690 C689 1.400 . S
C690 C693 1.386 . S
H691 C707 0.930 . S
H692 C708 0.931 . S
C693 H681 0.929 . S
C693 C687 1.390 . S
C693 C690 1.386 . S
C694 C689 1.490 . S
C694 C696 1.395 . S
C694 C697 1.403 . S
H695 C701 0.930 . S
C696 H682 0.930 . S
C696 C694 1.395 . S
C696 C699 1.403 . S
C697 C694 1.403 . S
C697 C698 1.524 . S
C697 C701 1.400 . S
C698 H683 0.960 . S
C698 H684 0.960 . S
C698 H685 0.960 . S
C698 C697 1.524 . S
C699 C696 1.403 . S
C699 C700 1.392 . S
C699 C703 1.495 . S
C700 C699 1.392 . S
C700 C701 1.385 . S
C700 C702 1.478 . S
C701 H695 0.930 . S
C701 C697 1.400 . S
C701 C700 1.385 . S
C702 C700 1.478 . S
C702 C704 1.381 1_565 S
C702 C708 1.383 . S
C703 C699 1.495 . S
C703 H709 0.959 . S
C703 H710 0.961 . S
C703 H711 0.960 1_565 S
C704 C702 1.381 1_545 S
C704 C705 1.394 . S
C704 H712 0.930 . S
C705 C704 1.394 . S
C705 C706 1.383 1_545 S
C705 H713 0.929 . S
C706 C705 1.383 1_565 S
C706 C707 1.377 . S
C707 H691 0.930 . S
C707 C706 1.377 . S
C707 C708 1.379 . S
C708 H692 0.931 . S
C708 C702 1.383 . S
C708 C707 1.379 . S
H709 C703 0.959 . S
H710 C703 0.961 . S
H711 C703 0.960 1_545 S
H712 C704 0.930 . S
H713 C705 0.929 . S
C310 C256 1.319 . S
C291 C211 1.503 . S
C327 C31 1.429 . S
C346 C277 1.296 . S
C363 C91 1.658 . S
C382 C253 1.492 . S
C399 C151 1.665 1_556 S
C418 C274 1.478 . S
C454 C258 1.637 . S
C435 C20 1.595 . S
C490 C278 1.568 . S
C471 C61 1.526 . S
C507 C121 1.560 . S
C526 C254 1.482 . S
C543 C200 1.622 . S
C562 C276 1.561 . S
C598 C275 1.507 . S
C579 C80 1.533 . S
C634 C257 1.582 . S
C615 C140 1.610 . S
C670 C279 1.602 . S
C651 C181 1.604 . S
C687 C1 1.557 . S
C706 C255 1.545 1_565 S
