# Generated by pormake.
# Topology ptr, (4,4)-cn, num edge types: 1
# Building blocks:
#     Node 0, Type 0, BuildingBlock: QUQFOY_clean_sbu_3, # of connection points: 4
#     Node 1, Type 0, BuildingBlock: QUQFOY_clean_sbu_3, # of connection points: 4
#     Node 2, Type 0, BuildingBlock: QUQFOY_clean_sbu_3, # of connection points: 4
#     Node 3, Type 0, BuildingBlock: QUQFOY_clean_sbu_3, # of connection points: 4
#     Node 4, Type 0, BuildingBlock: QUQFOY_clean_sbu_3, # of connection points: 4
#     Node 5, Type 0, BuildingBlock: QUQFOY_clean_sbu_3, # of connection points: 4
#     Node 6, Type 0, BuildingBlock: QUQFOY_clean_sbu_3, # of connection points: 4
#     Node 7, Type 0, BuildingBlock: QUQFOY_clean_sbu_3, # of connection points: 4
#     Node 8, Type 0, BuildingBlock: QUQFOY_clean_sbu_3, # of connection points: 4
#     Node 9, Type 0, BuildingBlock: QUQFOY_clean_sbu_3, # of connection points: 4
#     Node 10, Type 0, BuildingBlock: QUQFOY_clean_sbu_3, # of connection points: 4
#     Node 11, Type 0, BuildingBlock: QUQFOY_clean_sbu_3, # of connection points: 4
#     Node 12, Type 0, BuildingBlock: QUQFOY_clean_sbu_3, # of connection points: 4
#     Node 13, Type 0, BuildingBlock: QUQFOY_clean_sbu_3, # of connection points: 4
#     Node 14, Type 0, BuildingBlock: QUQFOY_clean_sbu_3, # of connection points: 4
#     Node 15, Type 0, BuildingBlock: QUQFOY_clean_sbu_3, # of connection points: 4
#     Node 16, Type 0, BuildingBlock: QUQFOY_clean_sbu_3, # of connection points: 4
#     Node 17, Type 0, BuildingBlock: QUQFOY_clean_sbu_3, # of connection points: 4
#     Node 18, Type 1, BuildingBlock: MUDLON_clean_linker_0, # of connection points: 4
#     Node 19, Type 1, BuildingBlock: MUDLON_clean_linker_0, # of connection points: 4
#     Node 20, Type 1, BuildingBlock: MUDLON_clean_linker_0, # of connection points: 4
#     Node 21, Type 1, BuildingBlock: MUDLON_clean_linker_0, # of connection points: 4
#     Node 22, Type 1, BuildingBlock: MUDLON_clean_linker_0, # of connection points: 4
#     Node 23, Type 1, BuildingBlock: MUDLON_clean_linker_0, # of connection points: 4
#     Node 24, Type 1, BuildingBlock: MUDLON_clean_linker_0, # of connection points: 4
#     Node 25, Type 1, BuildingBlock: MUDLON_clean_linker_0, # of connection points: 4
#     Node 26, Type 1, BuildingBlock: MUDLON_clean_linker_0, # of connection points: 4
#     Node 27, Type 1, BuildingBlock: MUDLON_clean_linker_0, # of connection points: 4
#     Node 28, Type 1, BuildingBlock: MUDLON_clean_linker_0, # of connection points: 4
#     Node 29, Type 1, BuildingBlock: MUDLON_clean_linker_0, # of connection points: 4
#     Node 30, Type 1, BuildingBlock: MUDLON_clean_linker_0, # of connection points: 4
#     Node 31, Type 1, BuildingBlock: MUDLON_clean_linker_0, # of connection points: 4
#     Node 32, Type 1, BuildingBlock: MUDLON_clean_linker_0, # of connection points: 4
#     Node 33, Type 1, BuildingBlock: MUDLON_clean_linker_0, # of connection points: 4
#     Node 34, Type 1, BuildingBlock: MUDLON_clean_linker_0, # of connection points: 4
#     Node 35, Type 1, BuildingBlock: MUDLON_clean_linker_0, # of connection points: 4
#     Edge 36, Type (0, 1), BuildingBlock: EZIPEK_clean_linker_0, # of connection points: 2
#     Edge 37, Type (0, 1), BuildingBlock: EZIPEK_clean_linker_0, # of connection points: 2
#     Edge 38, Type (0, 1), BuildingBlock: EZIPEK_clean_linker_0, # of connection points: 2
#     Edge 39, Type (0, 1), BuildingBlock: EZIPEK_clean_linker_0, # of connection points: 2
#     Edge 40, Type (0, 1), BuildingBlock: EZIPEK_clean_linker_0, # of connection points: 2
#     Edge 41, Type (0, 1), BuildingBlock: EZIPEK_clean_linker_0, # of connection points: 2
#     Edge 42, Type (0, 1), BuildingBlock: EZIPEK_clean_linker_0, # of connection points: 2
#     Edge 43, Type (0, 1), BuildingBlock: EZIPEK_clean_linker_0, # of connection points: 2
#     Edge 44, Type (0, 1), BuildingBlock: EZIPEK_clean_linker_0, # of connection points: 2
#     Edge 45, Type (0, 1), BuildingBlock: EZIPEK_clean_linker_0, # of connection points: 2
#     Edge 46, Type (0, 1), BuildingBlock: EZIPEK_clean_linker_0, # of connection points: 2
#     Edge 47, Type (0, 1), BuildingBlock: EZIPEK_clean_linker_0, # of connection points: 2
#     Edge 48, Type (0, 1), BuildingBlock: EZIPEK_clean_linker_0, # of connection points: 2
#     Edge 49, Type (0, 1), BuildingBlock: EZIPEK_clean_linker_0, # of connection points: 2
#     Edge 50, Type (0, 1), BuildingBlock: EZIPEK_clean_linker_0, # of connection points: 2
#     Edge 51, Type (0, 1), BuildingBlock: EZIPEK_clean_linker_0, # of connection points: 2
#     Edge 52, Type (0, 1), BuildingBlock: EZIPEK_clean_linker_0, # of connection points: 2
#     Edge 53, Type (0, 1), BuildingBlock: EZIPEK_clean_linker_0, # of connection points: 2
#     Edge 54, Type (0, 1), BuildingBlock: EZIPEK_clean_linker_0, # of connection points: 2
#     Edge 55, Type (0, 1), BuildingBlock: EZIPEK_clean_linker_0, # of connection points: 2
#     Edge 56, Type (0, 1), BuildingBlock: EZIPEK_clean_linker_0, # of connection points: 2
#     Edge 57, Type (0, 1), BuildingBlock: EZIPEK_clean_linker_0, # of connection points: 2
#     Edge 58, Type (0, 1), BuildingBlock: EZIPEK_clean_linker_0, # of connection points: 2
#     Edge 59, Type (0, 1), BuildingBlock: EZIPEK_clean_linker_0, # of connection points: 2
#     Edge 60, Type (0, 1), BuildingBlock: EZIPEK_clean_linker_0, # of connection points: 2
#     Edge 61, Type (0, 1), BuildingBlock: EZIPEK_clean_linker_0, # of connection points: 2
#     Edge 62, Type (0, 1), BuildingBlock: EZIPEK_clean_linker_0, # of connection points: 2
#     Edge 63, Type (0, 1), BuildingBlock: EZIPEK_clean_linker_0, # of connection points: 2
#     Edge 64, Type (0, 1), BuildingBlock: EZIPEK_clean_linker_0, # of connection points: 2
#     Edge 65, Type (0, 1), BuildingBlock: EZIPEK_clean_linker_0, # of connection points: 2
#     Edge 66, Type (0, 1), BuildingBlock: EZIPEK_clean_linker_0, # of connection points: 2
#     Edge 67, Type (0, 1), BuildingBlock: EZIPEK_clean_linker_0, # of connection points: 2
#     Edge 68, Type (0, 1), BuildingBlock: EZIPEK_clean_linker_0, # of connection points: 2
#     Edge 69, Type (0, 1), BuildingBlock: EZIPEK_clean_linker_0, # of connection points: 2
#     Edge 70, Type (0, 1), BuildingBlock: EZIPEK_clean_linker_0, # of connection points: 2
#     Edge 71, Type (0, 1), BuildingBlock: EZIPEK_clean_linker_0, # of connection points: 2
#     Edge 72, Type (0, 1), BuildingBlock: EZIPEK_clean_linker_0, # of connection points: 2
#     Edge 73, Type (0, 1), BuildingBlock: EZIPEK_clean_linker_0, # of connection points: 2
#     Edge 74, Type (0, 1), BuildingBlock: EZIPEK_clean_linker_0, # of connection points: 2
#     Edge 75, Type (0, 1), BuildingBlock: EZIPEK_clean_linker_0, # of connection points: 2
#     Edge 76, Type (0, 1), BuildingBlock: EZIPEK_clean_linker_0, # of connection points: 2
#     Edge 77, Type (0, 1), BuildingBlock: EZIPEK_clean_linker_0, # of connection points: 2
#     Edge 78, Type (0, 1), BuildingBlock: EZIPEK_clean_linker_0, # of connection points: 2
#     Edge 79, Type (0, 1), BuildingBlock: EZIPEK_clean_linker_0, # of connection points: 2
#     Edge 80, Type (0, 1), BuildingBlock: EZIPEK_clean_linker_0, # of connection points: 2
#     Edge 81, Type (0, 1), BuildingBlock: EZIPEK_clean_linker_0, # of connection points: 2
#     Edge 82, Type (0, 1), BuildingBlock: EZIPEK_clean_linker_0, # of connection points: 2
#     Edge 83, Type (0, 1), BuildingBlock: EZIPEK_clean_linker_0, # of connection points: 2
#     Edge 84, Type (0, 1), BuildingBlock: EZIPEK_clean_linker_0, # of connection points: 2
#     Edge 85, Type (0, 1), BuildingBlock: EZIPEK_clean_linker_0, # of connection points: 2
#     Edge 86, Type (0, 1), BuildingBlock: EZIPEK_clean_linker_0, # of connection points: 2
#     Edge 87, Type (0, 1), BuildingBlock: EZIPEK_clean_linker_0, # of connection points: 2
#     Edge 88, Type (0, 1), BuildingBlock: EZIPEK_clean_linker_0, # of connection points: 2
#     Edge 89, Type (0, 1), BuildingBlock: EZIPEK_clean_linker_0, # of connection points: 2
#     Edge 90, Type (0, 1), BuildingBlock: EZIPEK_clean_linker_0, # of connection points: 2
#     Edge 91, Type (0, 1), BuildingBlock: EZIPEK_clean_linker_0, # of connection points: 2
#     Edge 92, Type (0, 1), BuildingBlock: EZIPEK_clean_linker_0, # of connection points: 2
#     Edge 93, Type (0, 1), BuildingBlock: EZIPEK_clean_linker_0, # of connection points: 2
#     Edge 94, Type (0, 1), BuildingBlock: EZIPEK_clean_linker_0, # of connection points: 2
#     Edge 95, Type (0, 1), BuildingBlock: EZIPEK_clean_linker_0, # of connection points: 2
#     Edge 96, Type (0, 1), BuildingBlock: EZIPEK_clean_linker_0, # of connection points: 2
#     Edge 97, Type (0, 1), BuildingBlock: EZIPEK_clean_linker_0, # of connection points: 2
#     Edge 98, Type (0, 1), BuildingBlock: EZIPEK_clean_linker_0, # of connection points: 2
#     Edge 99, Type (0, 1), BuildingBlock: EZIPEK_clean_linker_0, # of connection points: 2
#     Edge 100, Type (0, 1), BuildingBlock: EZIPEK_clean_linker_0, # of connection points: 2
#     Edge 101, Type (0, 1), BuildingBlock: EZIPEK_clean_linker_0, # of connection points: 2
#     Edge 102, Type (0, 1), BuildingBlock: EZIPEK_clean_linker_0, # of connection points: 2
#     Edge 103, Type (0, 1), BuildingBlock: EZIPEK_clean_linker_0, # of connection points: 2
#     Edge 104, Type (0, 1), BuildingBlock: EZIPEK_clean_linker_0, # of connection points: 2
#     Edge 105, Type (0, 1), BuildingBlock: EZIPEK_clean_linker_0, # of connection points: 2
#     Edge 106, Type (0, 1), BuildingBlock: EZIPEK_clean_linker_0, # of connection points: 2
#     Edge 107, Type (0, 1), BuildingBlock: EZIPEK_clean_linker_0, # of connection points: 2
# Relax obj value: 0.029
# Max RMSD: 0.100
# Mean RMSD: 0.063
data_MOF--net-ptr--node1-QUQFOY_clean_sbu_3--node2-MUDLON_clean_linker_0--edge1-EZIPEK_clean_linker_0
_symmetry_space_group_name_H-M    P1
_symmetry_Int_Tables_number       1
_symmetry_cell_setting            triclinic
loop_
_symmetry_equiv_pos_as_xyz
'x, y, z'
_cell_length_a     85.145179
_cell_length_b     85.541792
_cell_length_c     51.561549
_cell_angle_alpha  90.192307
_cell_angle_beta   89.632503
_cell_angle_gamma 120.52491
loop_
_atom_site_label
_atom_site_type_symbol
_atom_site_fract_x
_atom_site_fract_y
_atom_site_fract_z
_atom_type_partial_charge
C0 C 0.96184 0.33224 0.00524 0.0
O1 O 0.95378 0.34063 0.0121 0.0
Cd2 Cd 0.97077 0.37192 0.02516 0.0
O3 O 0.97912 0.33983 0.00641 0.0
Cd4 Cd 0.00556 0.3689 0.02118 0.0
C5 C -0.00121 0.39072 0.97222 0.0
O6 O 0.99207 0.37575 0.05852 0.0
O7 O 0.018 0.39761 0.0443 0.0
O8 O 0.01656 0.35199 0.04489 0.0
C9 C 0.00567 0.39161 0.06159 0.0
O10 O 0.9853 0.38888 0.98552 0.0
C11 C 0.03201 0.35915 0.03379 0.0
O12 O 0.00839 0.38414 0.97999 0.0
O13 O 0.03533 0.37083 0.01624 0.0
C14 C 0.63284 0.67116 0.03428 0.0
O15 O 0.61589 0.66296 0.02955 0.0
Cd16 Cd 0.60021 0.63226 0.01363 0.0
O17 O 0.64221 0.66369 0.02952 0.0
Cd18 Cd 0.63857 0.63539 0.01066 0.0
C19 C 0.61094 0.61046 0.05987 0.0
O20 O 0.61673 0.63052 0.97678 0.0
O21 O 0.62112 0.60809 0.98436 0.0
O22 O 0.66512 0.65252 0.98343 0.0
C23 C 0.61391 0.61496 0.97046 0.0
O24 O 0.59895 0.61325 0.04986 0.0
C25 C 0.67506 0.64735 0.9942 0.0
O26 O 0.62691 0.61746 0.05028 0.0
O27 O 0.66802 0.63631 0.01302 0.0
C28 C 0.32283 0.95871 0.02886 0.0
O29 O 0.3291 0.94844 0.02343 0.0
Cd30 Cd 0.35927 0.9599 0.00663 0.0
O31 O 0.33212 0.97572 0.02453 0.0
Cd32 Cd 0.36209 -0.00173 0.00546 0.0
C33 C 0.38377 0.99099 0.05427 0.0
O34 O 0.36254 0.97907 0.9708 0.0
O35 O 0.38779 0.00438 0.9771 0.0
O36 O 0.34602 0.01052 0.98265 0.0
C37 C 0.37865 0.99026 0.96346 0.0
O38 O 0.37914 0.97597 0.04314 0.0
C39 C 0.35618 0.0268 0.98996 0.0
O40 O 0.37901 0.00181 0.04532 0.0
O41 O 0.36924 0.03008 0.00506 0.0
C42 C 0.95067 0.63109 0.00341 0.0
O43 O 0.94032 0.61478 0.01046 0.0
Cd44 Cd 0.95297 0.59681 0.02403 0.0
O45 O 0.96792 0.63857 0.00499 0.0
Cd46 Cd 0.99049 0.63065 0.02085 0.0
C47 C 0.97978 0.60148 0.97149 0.0
O48 O 0.97458 0.61176 0.05843 0.0
O49 O -0.00355 0.6087 0.04275 0.0
O50 O 0.00712 0.65786 0.04699 0.0
C51 C 0.98538 0.60577 0.06125 0.0
O52 O 0.96554 0.59112 0.98468 0.0
C53 C 0.0219 0.66465 0.03416 0.0
O54 O 0.99128 0.61733 0.97942 0.0
O55 O 0.02206 0.65582 0.0144 0.0
C56 C 0.32918 0.36506 0.03649 0.0
O57 O 0.33702 0.38215 0.03395 0.0
Cd58 Cd 0.36683 0.39947 0.01535 0.0
O59 O 0.33672 0.35633 0.02845 0.0
Cd60 Cd 0.36536 0.36284 0.00607 0.0
C61 C 0.39074 0.38804 0.05653 0.0
O62 O 0.36632 0.38483 0.97507 0.0
O63 O 0.39039 0.3824 0.97671 0.0
O64 O 0.34671 0.33507 0.98183 0.0
C65 C 0.38156 0.38863 0.96537 0.0
O66 O 0.38729 0.4001 0.04891 0.0
C67 C 0.3566 0.32821 0.98618 0.0
O68 O 0.38416 0.37288 0.04488 0.0
O69 O 0.3706 0.33731 0.00016 0.0
C70 C 0.67143 0.03872 0.99319 0.0
O71 O 0.66317 0.04727 -0.00203 0.0
Cd72 Cd 0.63304 0.03251 0.0164 0.0
O73 O 0.66424 0.02196 -0.00123 0.0
Cd74 Cd 0.63589 0.99775 0.01956 0.0
C75 C 0.61007 -0.00085 0.97136 0.0
O76 O 0.63294 0.01591 0.05399 0.0
O77 O 0.60951 0.98916 0.04773 0.0
O78 O 0.65503 0.98889 0.04231 0.0
C79 C 0.61743 0.00334 0.06157 0.0
O80 O 0.61252 0.01369 0.98187 0.0
C81 C 0.64588 0.97222 0.03629 0.0
O82 O 0.61787 0.9909 0.98 0.0
O83 O 0.63209 0.96723 0.02187 0.0
C84 C 0.62047 0.6588 0.32703 0.0
O85 O 0.61172 0.66684 0.33192 0.0
Cd86 Cd 0.62684 0.69734 0.34849 0.0
O87 O 0.63745 0.66634 0.33168 0.0
Cd88 Cd 0.66242 0.69458 0.35086 0.0
C89 C 0.66019 0.72004 0.30254 0.0
O90 O 0.64462 0.69818 0.38502 0.0
O91 O 0.67187 0.72108 0.37879 0.0
O92 O 0.67292 0.67832 0.37733 0.0
C93 C 0.65737 0.71361 0.39232 0.0
O94 O 0.64523 0.71702 0.31265 0.0
C95 C 0.68791 0.68375 0.36546 0.0
O96 O 0.66907 0.7131 0.31191 0.0
O97 O 0.69126 0.69442 0.34645 0.0
C98 C 0.29795 0.00985 0.36473 0.0
O99 O 0.28079 0.00221 0.36234 0.0
Cd100 Cd 0.26216 0.97213 0.34526 0.0
O101 O 0.30644 0.00173 0.35831 0.0
Cd102 Cd 0.29855 0.9716 0.34085 0.0
C103 C 0.26984 0.94799 0.39046 0.0
O104 O 0.2773 0.96939 0.30749 0.0
O105 O 0.27824 0.94496 0.31482 0.0
O106 O 0.32507 0.98237 0.31239 0.0
C107 C 0.27272 0.95335 0.30081 0.0
O108 O 0.25829 0.95141 0.38046 0.0
C109 C 0.33263 0.97535 0.32518 0.0
O110 O 0.28571 0.95437 0.38074 0.0
O111 O 0.32464 0.96705 0.34587 0.0
C112 C 0.99517 0.29589 0.36155 0.0
O113 O 0.00327 0.28705 0.35788 0.0
Cd114 Cd 0.03332 0.29968 0.34043 0.0
O115 O 0.00277 0.31264 0.35556 0.0
Cd116 Cd 0.03294 0.33597 0.33755 0.0
C117 C 0.05592 0.33118 0.3874 0.0
O118 O 0.0345 0.31705 0.30326 0.0
O119 O 0.05924 0.34267 0.30985 0.0
O120 O 0.01737 0.34918 0.31481 0.0
C121 C 0.05043 0.32869 0.29584 0.0
O122 O 0.05329 0.31673 0.37638 0.0
C123 C 0.02847 0.36541 0.32162 0.0
O124 O 0.04921 0.34033 0.37828 0.0
O125 O 0.04126 0.36795 0.33675 0.0
C126 C 0.62384 0.95411 0.32917 0.0
O127 O 0.61753 0.93745 0.3341 0.0
Cd128 Cd 0.63743 0.92703 0.34858 0.0
O129 O 0.64056 0.96574 0.33293 0.0
Cd130 Cd 0.66831 0.96731 0.35037 0.0
C131 C 0.66928 0.94303 0.29968 0.0
O132 O 0.65475 0.9447 0.38536 0.0
O133 O 0.68281 0.95385 0.375 0.0
O134 O 0.6726 0.99413 0.37327 0.0
C135 C 0.66948 0.945 0.39032 0.0
O136 O 0.65613 0.92943 0.31096 0.0
C137 C 0.68915 0.00428 0.36668 0.0
O138 O 0.67611 0.95896 0.309 0.0
O139 O 0.69608 0.99744 0.35188 0.0
C140 C 0.99597 0.71065 0.37142 0.0
O141 O 0.00551 0.72724 0.36518 0.0
Cd142 Cd 0.03588 0.73889 0.34874 0.0
O143 O 0.00177 0.69976 0.36745 0.0
Cd144 Cd 0.02819 0.69974 0.34692 0.0
C145 C 0.05482 0.72525 0.39564 0.0
O146 O 0.03484 0.72146 0.31129 0.0
O147 O 0.05547 0.7146 0.31999 0.0
O148 O 0.00527 0.67137 0.32677 0.0
C149 C 0.04964 0.7222 0.305 0.0
O150 O 0.05412 0.73824 0.38485 0.0
C151 C 0.0138 0.66299 0.33053 0.0
O152 O 0.04595 0.70919 0.38667 0.0
O153 O 0.02861 0.67133 0.34309 0.0
C154 C 0.34393 0.37888 0.33262 0.0
O155 O 0.33609 0.38788 0.33719 0.0
Cd156 Cd 0.30607 0.37431 0.35609 0.0
O157 O 0.33633 0.36213 0.33842 0.0
Cd158 Cd 0.30775 0.33813 0.35863 0.0
C159 C 0.2824 0.34136 0.31085 0.0
O160 O 0.30531 0.35671 0.39275 0.0
O161 O 0.28186 0.32977 0.38769 0.0
O162 O 0.32622 0.32817 0.38083 0.0
C163 C 0.28977 0.34438 0.40061 0.0
O164 O 0.28518 0.35594 0.32166 0.0
C165 C 0.3171 0.31176 0.37348 0.0
O166 O 0.28982 0.33267 0.3192 0.0
O167 O 0.30354 0.30741 0.35884 0.0
C168 C 0.29093 0.99666 0.66266 0.0
O169 O 0.28336 0.00597 0.66658 0.0
Cd170 Cd 0.29972 0.03641 0.68357 0.0
O171 O 0.30771 0.00301 0.66775 0.0
Cd172 Cd 0.33407 0.031 0.68505 0.0
C173 C 0.33254 0.0572 0.63677 0.0
O174 O 0.31775 0.03663 0.71935 0.0
O175 O 0.3459 0.05774 0.71302 0.0
O176 O 0.34359 0.0138 0.71115 0.0
C177 C 0.3314 0.05157 0.72639 0.0
O178 O 0.31832 0.0555 0.64772 0.0
C179 C 0.3582 0.0183 0.69874 0.0
O180 O 0.34057 0.04918 0.64552 0.0
O181 O 0.36179 0.02889 0.67955 0.0
C182 C 0.95926 0.33402 0.69877 0.0
O183 O 0.94232 0.3251 0.69406 0.0
Cd184 Cd 0.92793 0.29399 0.68054 0.0
O185 O 0.96919 0.32703 0.69517 0.0
Cd186 Cd 0.966 0.29842 0.6782 0.0
C187 C 0.94064 0.27639 0.73028 0.0
O188 O 0.9436 0.29102 0.6435 0.0
O189 O 0.94829 0.26954 0.65579 0.0
O190 O 0.99364 0.31832 0.65391 0.0
C191 C 0.94135 0.27536 0.63956 0.0
O192 O 0.9279 0.27723 0.71881 0.0
C193 C 0.00188 0.30987 0.65922 0.0
O194 O 0.95665 0.28382 0.72065 0.0
O195 O 0.99372 0.29625 0.67424 0.0
C196 C 0.66187 0.62663 0.70188 0.0
O197 O 0.67081 0.61853 0.69932 0.0
Cd198 Cd 0.70075 0.63254 0.6804 0.0
O199 O 0.66839 0.64295 0.69435 0.0
Cd200 Cd 0.69651 0.66712 0.67339 0.0
C201 C 0.72317 0.66781 0.72264 0.0
O202 O 0.69945 0.64743 0.64178 0.0
O203 O 0.72164 0.67534 0.64281 0.0
O204 O 0.67774 0.67585 0.64912 0.0
C205 C 0.71423 0.65988 0.63207 0.0
O206 O 0.72096 0.65291 0.71388 0.0
C207 C 0.68598 0.69221 0.65675 0.0
O208 O 0.71528 0.6755 0.71238 0.0
O209 O 0.69914 0.69707 0.67236 0.0
C210 C 0.29087 0.29597 0.65739 0.0
O211 O 0.28171 0.27893 0.66092 0.0
Cd212 Cd 0.29528 0.26198 0.67613 0.0
O213 O 0.30784 0.30507 0.66246 0.0
Cd214 Cd 0.33183 0.29985 0.68025 0.0
C215 C 0.32834 0.27251 0.63017 0.0
O216 O 0.31292 0.27789 0.71352 0.0
O217 O 0.34003 0.28203 0.70812 0.0
O218 O 0.34343 0.32766 0.70522 0.0
C219 C 0.32524 0.27479 0.72092 0.0
O220 O 0.31327 0.26048 0.64006 0.0
C221 C 0.35944 0.33529 0.69585 0.0
O222 O 0.3375 0.28825 0.64012 0.0
O223 O 0.36282 0.32659 0.67888 0.0
C224 C 0.65571 0.0344 0.70113 0.0
O225 O 0.66297 0.05131 0.69707 0.0
Cd226 Cd 0.6928 0.06903 0.6784 0.0
O227 O 0.66383 0.0259 0.69463 0.0
Cd228 Cd 0.69279 0.03282 0.6728 0.0
C229 C 0.71814 0.0607 0.72135 0.0
O230 O 0.69298 0.05337 0.63968 0.0
O231 O 0.71779 0.05247 0.6433 0.0
O232 O 0.67579 0.00374 0.6503 0.0
C233 C 0.70856 0.05772 0.63074 0.0
O234 O 0.71447 0.07223 0.71203 0.0
C235 C 0.68691 -0.00151 0.65564 0.0
O236 O 0.71136 0.0449 0.71163 0.0
O237 O 0.70045 0.00887 0.66971 0.0
C238 C 0.00724 0.70205 0.66518 0.0
O239 O 0.00105 0.71227 0.67145 0.0
Cd240 Cd 0.97098 0.70121 0.68862 0.0
O241 O -0.00227 0.68491 0.66835 0.0
Cd242 Cd 0.96703 0.66228 0.68525 0.0
C243 C 0.9454 0.67291 0.63957 0.0
O244 O 0.9667 0.67993 0.72214 0.0
O245 O 0.94107 0.65559 0.7136 0.0
O246 O 0.978 0.64404 0.70642 0.0
C247 C 0.95031 0.66893 0.72857 0.0
O248 O 0.95034 0.68763 0.65178 0.0
C249 C 0.96849 0.62995 0.69278 0.0
O250 O 0.95024 0.6618 0.64687 0.0
O251 O 0.95858 0.631 0.67541 0.0
H252 H 0.22334 0.33975 0.17482 0.0
N253 N 0.21528 0.31084 0.14306 0.0
H254 H 0.23857 0.34591 0.21695 0.0
H255 H 0.2217 0.28858 0.17068 0.0
H256 H 0.23653 0.29456 0.21329 0.0
H257 H 0.2219 0.29254 0.10715 0.0
H258 H 0.24872 0.3043 0.07829 0.0
H259 H 0.242 0.34661 0.13697 0.0
H260 H 0.26828 0.35822 0.10796 0.0
H261 H 0.21301 0.34077 0.12898 0.0
H262 H 0.18124 0.28361 0.1464 0.0
H263 H 0.18524 0.34148 0.1215 0.0
H264 H 0.15322 0.28434 0.13995 0.0
H265 H 0.10557 0.34318 0.14942 0.0
H266 H 0.09443 0.34693 0.1914 0.0
H267 H 0.06897 0.28945 0.20546 0.0
H268 H 0.08003 0.28556 0.16301 0.0
H269 H 0.06647 0.29371 0.10445 0.0
H270 H 0.05302 0.30709 0.07675 0.0
H271 H 0.10395 0.35798 0.07685 0.0
H272 H 0.11746 0.3446 0.10439 0.0
H273 H 0.13158 0.33956 0.14318 0.0
H274 H 0.16029 0.33992 0.14487 0.0
H275 H 0.13477 0.28722 0.10802 0.0
N276 N 0.09859 0.31097 0.12746 0.0
H277 H 0.10576 0.28667 0.10749 0.0
C278 C 0.2215 0.31369 0.16952 0.0
C279 C 0.22593 0.32969 0.18313 0.0
C280 C 0.23459 0.33322 0.20716 0.0
C281 C 0.2387 0.32071 0.21802 0.0
C282 C 0.23342 0.30432 0.20514 0.0
C283 C 0.22496 0.30091 0.18098 0.0
C284 C 0.22975 0.31861 0.12404 0.0
C285 C 0.23179 0.30694 0.10701 0.0
C286 C 0.24703 0.3136 0.09067 0.0
C287 C 0.26033 0.3321 0.09106 0.0
C288 C 0.25802 0.34393 0.10733 0.0
C289 C 0.24293 0.33725 0.12382 0.0
C290 C 0.19925 0.31199 0.13807 0.0
C291 C 0.20011 0.32832 0.13117 0.0
C292 C 0.18412 0.32876 0.12705 0.0
C293 C 0.16694 0.31296 0.13 0.0
C294 C 0.16618 0.2967 0.13694 0.0
C295 C 0.18216 0.29626 0.14086 0.0
C296 C 0.0935 0.31396 0.15295 0.0
C297 C 0.09774 0.33134 0.16145 0.0
C298 C 0.09143 0.33354 0.18544 0.0
C299 C 0.08093 0.31847 0.20135 0.0
C300 C 0.07713 0.30122 0.19335 0.0
C301 C 0.08339 0.299 0.16927 0.0
C302 C 0.09286 0.31809 0.10661 0.0
C303 C 0.07491 0.30756 0.09776 0.0
C304 C 0.06726 0.31518 0.08206 0.0
C305 C 0.0775 0.3335 0.07497 0.0
C306 C 0.0959 0.34378 0.08214 0.0
C307 C 0.10358 0.33612 0.09785 0.0
C308 C 0.11638 0.3129 0.12546 0.0
C309 C 0.13212 0.32813 0.13527 0.0
C310 C 0.14865 0.32837 0.13607 0.0
C311 C 0.14984 0.3135 0.12687 0.0
C312 C 0.13428 0.29873 0.11583 0.0
C313 C 0.11774 0.29845 0.11524 0.0
H314 H 0.71291 0.77526 0.15861 0.0
N315 N 0.69361 0.78714 0.13406 0.0
H316 H 0.70625 0.76022 0.20117 0.0
H317 H 0.66747 0.78378 0.16859 0.0
H318 H 0.66076 0.76865 0.21098 0.0
H319 H 0.65692 0.76246 0.13167 0.0
H320 H 0.6424 0.73517 0.10471 0.0
H321 H 0.70872 0.77882 0.09509 0.0
H322 H 0.69397 0.75146 0.06764 0.0
H323 H 0.71862 0.81967 0.15089 0.0
H324 H 0.66779 0.79241 0.10916 0.0
H325 H 0.71869 0.8481 0.14793 0.0
H326 H 0.66841 0.82085 0.10456 0.0
H327 H 0.71731 0.93624 0.15108 0.0
H328 H 0.71398 0.94763 0.19349 0.0
H329 H 0.66513 0.89638 0.20841 0.0
H330 H 0.66826 0.88508 0.16638 0.0
H331 H 0.65789 0.89327 0.12675 0.0
H332 H 0.64446 0.9072 0.10056 0.0
H333 H 0.69675 0.94231 0.06486 0.0
H334 H 0.71022 0.92803 0.09079 0.0
H335 H 0.72277 0.90014 0.1238 0.0
H336 H 0.72293 0.8717 0.12157 0.0
H337 H 0.66402 0.84186 0.12675 0.0
N338 N 0.69434 0.90456 0.12925 0.0
H339 H 0.66406 0.87021 0.12687 0.0
C340 C 0.69075 0.78063 0.16045 0.0
C341 C 0.70175 0.77418 0.1702 0.0
C342 C 0.69794 0.76562 0.19434 0.0
C343 C 0.68301 0.76334 0.20904 0.0
C344 C 0.67236 0.77036 0.19985 0.0
C345 C 0.6762 0.77897 0.17572 0.0
C346 C 0.68404 0.77269 0.11549 0.0
C347 C 0.66513 0.7604 0.11754 0.0
C348 C 0.65679 0.74485 0.10212 0.0
C349 C 0.66716 0.74138 0.08433 0.0
C350 C 0.68579 0.75404 0.08123 0.0
C351 C 0.69416 0.76958 0.09679 0.0
C352 C 0.69331 0.80377 0.13039 0.0
C353 C 0.70762 0.81987 0.14075 0.0
C354 C 0.7077 0.83618 0.13878 0.0
C355 C 0.69358 0.83694 0.12586 0.0
C356 C 0.67937 0.82083 0.11505 0.0
C357 C 0.6791 0.80441 0.11751 0.0
C358 C 0.69321 0.9098 0.15551 0.0
C359 C 0.7061 0.92737 0.16374 0.0
C360 C 0.70418 0.93386 0.18777 0.0
C361 C 0.68932 0.92278 0.2039 0.0
C362 C 0.67672 0.90504 0.19616 0.0
C363 C 0.67858 0.89859 0.17211 0.0
C364 C 0.68514 0.90953 0.11055 0.0
C365 C 0.66638 0.90338 0.11259 0.0
C366 C 0.65869 0.91142 0.09775 0.0
C367 C 0.66966 0.92581 0.08093 0.0
C368 C 0.68809 0.93117 0.07769 0.0
C369 C 0.69574 0.92303 0.09238 0.0
C370 C 0.69352 0.88742 0.12587 0.0
C371 C 0.70992 0.88741 0.12405 0.0
C372 C 0.70995 0.8711 0.12309 0.0
C373 C 0.69349 0.85433 0.12444 0.0
C374 C 0.67698 0.8544 0.12542 0.0
C375 C 0.67699 0.87075 0.12582 0.0
H376 H 0.08396 0.76088 0.14639 0.0
N377 N 0.11789 0.76562 0.13783 0.0
H378 H 0.06697 0.75185 0.18757 0.0
H379 H 0.13026 0.76332 0.18402 0.0
H380 H 0.1134 0.75476 0.22541 0.0
H381 H 0.10353 0.77271 0.09445 0.0
H382 H 0.08217 0.75005 0.06376 0.0
H383 H 0.10723 0.73074 0.1353 0.0
H384 H 0.08498 0.70798 0.10565 0.0
H385 H 0.15289 0.78061 0.12566 0.0
H386 H 0.11017 0.79304 0.13626 0.0
H387 H 0.17527 0.81297 0.1211 0.0
H388 H 0.13247 0.82543 0.13276 0.0
H389 H 0.23878 0.8991 0.1552 0.0
H390 H 0.25249 0.9122 0.19697 0.0
H391 H 0.2105 0.92514 0.21184 0.0
H392 H 0.19656 0.91192 0.16959 0.0
H393 H 0.22151 0.93029 0.1114 0.0
H394 H 0.24824 0.946 0.08258 0.0
H395 H 0.25347 0.89847 0.08158 0.0
H396 H 0.22709 0.88285 0.11027 0.0
H397 H 0.21127 0.86967 0.15412 0.0
H398 H 0.18867 0.83772 0.15126 0.0
H399 H 0.15416 0.85045 0.10574 0.0
N400 N 0.20878 0.89809 0.13372 0.0
H401 H 0.17689 0.88287 0.10943 0.0
C402 C 0.10831 0.76248 0.16218 0.0
C403 C 0.09057 0.75977 0.16358 0.0
C404 C 0.08091 0.7547 0.18701 0.0
C405 C 0.089 0.75265 0.20935 0.0
C406 C 0.10703 0.75636 0.2083 0.0
C407 C 0.11658 0.76117 0.18481 0.0
C408 C 0.10711 0.75341 0.11727 0.0
C409 C 0.1 0.75873 0.09672 0.0
C410 C 0.08771 0.74579 0.07924 0.0
C411 C 0.08178 0.7273 0.08267 0.0
C412 C 0.0893 0.72214 0.10268 0.0
C413 C 0.10199 0.73509 0.11954 0.0
C414 C 0.13 0.78445 0.13158 0.0
C415 C 0.14835 0.79035 0.12669 0.0
C416 C 0.1611 0.80883 0.12435 0.0
C417 C 0.15571 0.82182 0.12705 0.0
C418 C 0.13708 0.81581 0.1305 0.0
C419 C 0.12432 0.79728 0.13268 0.0
C420 C 0.21655 0.90457 0.15911 0.0
C421 C 0.23232 0.90457 0.16734 0.0
C422 C 0.24018 0.91202 0.19123 0.0
C423 C 0.23247 0.91958 0.20735 0.0
C424 C 0.21655 0.91927 0.19959 0.0
C425 C 0.20865 0.91178 0.17561 0.0
C426 C 0.22217 0.90541 0.11306 0.0
C427 C 0.22812 0.9231 0.10437 0.0
C428 C 0.24331 0.93204 0.08805 0.0
C429 C 0.25272 0.92333 0.08013 0.0
C430 C 0.24625 0.90531 0.08749 0.0
C431 C 0.23111 0.8964 0.10386 0.0
C432 C 0.19573 0.87886 0.13219 0.0
C433 C 0.19888 0.86578 0.14364 0.0
C434 C 0.18596 0.84736 0.14169 0.0
C435 C 0.16962 0.84147 0.12813 0.0
C436 C 0.16653 0.85452 0.11652 0.0
C437 C 0.17949 0.87302 0.11853 0.0
H438 H 0.2871 0.22081 0.86834 0.0
N439 N 0.30981 0.21227 0.89038 0.0
H440 H 0.29038 0.2349 0.82561 0.0
H441 H 0.33532 0.2177 0.85289 0.0
H442 H 0.33833 0.23141 0.81034 0.0
H443 H 0.29395 0.2196 0.92913 0.0
H444 H 0.30725 0.24753 0.95517 0.0
H445 H 0.34601 0.23853 0.89176 0.0
H446 H 0.35928 0.26622 0.91796 0.0
H447 H 0.34022 0.20891 0.89348 0.0
H448 H 0.28154 0.17928 0.89761 0.0
H449 H 0.34048 0.18071 0.89636 0.0
H450 H 0.28161 0.15095 0.90256 0.0
H451 H 0.29212 0.06434 0.87197 0.0
H452 H 0.29826 0.05534 0.82949 0.0
H453 H 0.34406 0.1094 0.81839 0.0
H454 H 0.33808 0.11835 0.86106 0.0
H455 H 0.29469 0.07155 0.93239 0.0
H456 H 0.30811 0.0576 0.95909 0.0
H457 H 0.36135 0.09553 0.92838 0.0
H458 H 0.34793 0.10923 0.90142 0.0
H459 H 0.33694 0.1283 0.91921 0.0
H460 H 0.33622 0.15623 0.92124 0.0
H461 H 0.28593 0.13084 0.8778 0.0
N462 N 0.31138 0.09619 0.89547 0.0
H463 H 0.28616 0.10252 0.87732 0.0
C464 C 0.31079 0.21803 0.86387 0.0
C465 C 0.29809 0.22275 0.85555 0.0
C466 C 0.29997 0.23079 0.83132 0.0
C467 C 0.31457 0.23411 0.81499 0.0
C468 C 0.32693 0.22881 0.82274 0.0
C469 C 0.32514 0.22092 0.84707 0.0
C470 C 0.31892 0.22691 0.90864 0.0
C471 C 0.30834 0.22949 0.92717 0.0
C472 C 0.31589 0.24537 0.94191 0.0
C473 C 0.33419 0.25888 0.93833 0.0
C474 C 0.34515 0.25587 0.92099 0.0
C475 C 0.33756 0.24001 0.90615 0.0
C476 C 0.31075 0.19615 0.89475 0.0
C477 C 0.32736 0.19636 0.89528 0.0
C478 C 0.32748 0.18012 0.89729 0.0
C479 C 0.31104 0.16339 0.89941 0.0
C480 C 0.29453 0.16343 0.9002 0.0
C481 C 0.29443 0.17962 0.89765 0.0
C482 C 0.31452 0.09196 0.86955 0.0
C483 C 0.30335 0.07428 0.86023 0.0
C484 C 0.30686 0.06917 0.83615 0.0
C485 C 0.32158 0.08173 0.82098 0.0
C486 C 0.33261 0.09958 0.82992 0.0
C487 C 0.32918 0.10466 0.85416 0.0
C488 C 0.32024 0.0914 0.91501 0.0
C489 C 0.30932 0.07722 0.93209 0.0
C490 C 0.31695 0.06928 0.94722 0.0
C491 C 0.33566 0.07551 0.94552 0.0
C492 C 0.34688 0.0906 0.92995 0.0
C493 C 0.33921 0.09841 0.91461 0.0
C494 C 0.31146 0.11307 0.8981 0.0
C495 C 0.32562 0.12853 0.91033 0.0
C496 C 0.32528 0.14471 0.91131 0.0
C497 C 0.31103 0.14594 0.89968 0.0
C498 C 0.29694 0.13043 0.88753 0.0
C499 C 0.2971 0.11421 0.88701 0.0
H500 H 0.76235 0.10733 0.86734 0.0
N501 N 0.7863 0.09848 0.8886 0.0
H502 H 0.74764 0.0977 0.82511 0.0
H503 H 0.79314 0.08093 0.85145 0.0
H504 H 0.77847 0.07149 0.80863 0.0
H505 H 0.76952 0.06509 0.90794 0.0
H506 H 0.74233 0.05101 0.93602 0.0
H507 H 0.77123 0.11625 0.91321 0.0
H508 H 0.74396 0.10214 0.94112 0.0
H509 H 0.7963 0.13097 0.86364 0.0
H510 H 0.81168 0.10682 0.9244 0.0
H511 H 0.82387 0.15963 0.87028 0.0
H512 H 0.83893 0.13618 0.93266 0.0
H513 H 0.89555 0.24154 0.88204 0.0
H514 H 0.90552 0.25507 0.83892 0.0
H515 H 0.93164 0.22373 0.82631 0.0
H516 H 0.92164 0.2101 0.86969 0.0
H517 H 0.93601 0.23413 0.92517 0.0
H518 H 0.9493 0.26124 0.9529 0.0
H519 H 0.89712 0.25784 0.95757 0.0
H520 H 0.88385 0.23101 0.92988 0.0
H521 H 0.86952 0.21325 0.89463 0.0
H522 H 0.84036 0.18515 0.89483 0.0
H523 H 0.86746 0.15582 0.91591 0.0
N524 N 0.90299 0.21711 0.90476 0.0
H525 H 0.89641 0.18441 0.91784 0.0
C526 C 0.77882 0.0947 0.86271 0.0
C527 C 0.76607 0.09959 0.85477 0.0
C528 C 0.75772 0.09418 0.83061 0.0
C529 C 0.76199 0.08391 0.81393 0.0
C530 C 0.77509 0.07949 0.82133 0.0
C531 C 0.78343 0.08485 0.84562 0.0
C532 C 0.77238 0.09164 0.9085 0.0
C533 C 0.76428 0.07335 0.91567 0.0
C534 C 0.74881 0.06535 0.93155 0.0
C535 C 0.7412 0.07557 0.94047 0.0
C536 C 0.74974 0.0941 0.93441 0.0
C537 C 0.76527 0.10213 0.91856 0.0
C538 C 0.80188 0.11637 0.89328 0.0
C539 C 0.8054 0.13174 0.87872 0.0
C540 C 0.82128 0.14843 0.88281 0.0
C541 C 0.83386 0.15041 0.902 0.0
C542 C 0.82989 0.1352 0.91727 0.0
C543 C 0.8142 0.1184 0.91276 0.0
C544 C 0.90789 0.22476 0.87907 0.0
C545 C 0.90328 0.23742 0.87003 0.0
C546 C 0.90899 0.24519 0.84548 0.0
C547 C 0.91929 0.24037 0.82961 0.0
C548 C 0.92368 0.22757 0.83838 0.0
C549 C 0.91799 0.21982 0.86298 0.0
C550 C 0.90897 0.23043 0.92528 0.0
C551 C 0.92731 0.23891 0.93279 0.0
C552 C 0.93488 0.25435 0.94849 0.0
C553 C 0.92415 0.26146 0.95713 0.0
C554 C 0.90554 0.25243 0.9511 0.0
C555 C 0.89798 0.23705 0.93521 0.0
C556 C 0.88521 0.20102 0.90683 0.0
C557 C 0.86916 0.20091 0.90018 0.0
C558 C 0.85242 0.18464 0.89979 0.0
C559 C 0.85137 0.168 0.90516 0.0
C560 C 0.86748 0.16827 0.91215 0.0
C561 C 0.88413 0.18461 0.91314 0.0
H562 H 0.7783 0.71975 0.86812 0.0
N563 N 0.78945 0.6992 0.89079 0.0
H564 H 0.76348 0.7148 0.8256 0.0
H565 H 0.78574 0.67414 0.8541 0.0
H566 H 0.7711 0.66935 0.81189 0.0
H567 H 0.75816 0.66562 0.88688 0.0
H568 H 0.73216 0.65335 0.91635 0.0
H569 H 0.78826 0.71129 0.93805 0.0
H570 H 0.76246 0.6981 0.96878 0.0
H571 H 0.8237 0.7259 0.88581 0.0
H572 H 0.79103 0.66876 0.90264 0.0
H573 H 0.85136 0.72405 0.88825 0.0
H574 H 0.81862 0.66685 0.90605 0.0
H575 H 0.8941 0.66007 0.87307 0.0
H576 H 0.9046 0.65427 0.8319 0.0
H577 H 0.93414 0.71161 0.81535 0.0
H578 H 0.92371 0.71755 0.85694 0.0
H579 H 0.88246 0.66074 0.91773 0.0
H580 H 0.89329 0.64623 0.94785 0.0
H581 H 0.94686 0.69402 0.94667 0.0
H582 H 0.93606 0.7086 0.91634 0.0
H583 H 0.89888 0.71893 0.9148 0.0
H584 H 0.87067 0.71989 0.91735 0.0
H585 H 0.84197 0.66797 0.87848 0.0
N586 N 0.90382 0.69353 0.89342 0.0
H587 H 0.86993 0.66684 0.87697 0.0
C588 C 0.78323 0.69746 0.86434 0.0
C589 C 0.77712 0.70899 0.85568 0.0
C590 C 0.76869 0.70616 0.83156 0.0
C591 C 0.76624 0.69171 0.81579 0.0
C592 C 0.77299 0.68061 0.82384 0.0
C593 C 0.78141 0.68343 0.84793 0.0
C594 C 0.77505 0.68987 0.90977 0.0
C595 C 0.75936 0.67296 0.90456 0.0
C596 C 0.7445 0.6658 0.92154 0.0
C597 C 0.74525 0.675 0.9445 0.0
C598 C 0.76153 0.69094 0.95095 0.0
C599 C 0.7762 0.69844 0.93351 0.0
C600 C 0.80537 0.69759 0.89418 0.0
C601 C 0.82257 0.71303 0.89044 0.0
C602 C 0.83834 0.71193 0.89201 0.0
C603 C 0.83724 0.6953 0.89745 0.0
C604 C 0.81995 0.67983 0.90156 0.0
C605 C 0.80415 0.68093 0.89986 0.0
C606 C 0.90823 0.68937 0.8682 0.0
C607 C 0.90265 0.67145 0.86062 0.0
C608 C 0.90861 0.66809 0.8371 0.0
C609 C 0.92012 0.68252 0.82076 0.0
C610 C 0.92521 0.70033 0.82779 0.0
C611 C 0.91929 0.7037 0.85139 0.0
C612 C 0.90853 0.68584 0.91472 0.0
C613 C 0.89639 0.66835 0.92441 0.0
C614 C 0.90254 0.66004 0.9416 0.0
C615 C 0.92083 0.66911 0.94936 0.0
C616 C 0.93267 0.68691 0.94095 0.0
C617 C 0.92653 0.69519 0.92374 0.0
C618 C 0.88666 0.69302 0.89547 0.0
C619 C 0.88644 0.70773 0.90704 0.0
C620 C 0.87034 0.70828 0.90831 0.0
C621 C 0.85406 0.69408 0.89788 0.0
C622 C 0.85419 0.67907 0.88691 0.0
C623 C 0.87029 0.67849 0.8858 0.0
H624 H 0.72451 0.61755 0.48508 0.0
N625 N 0.75669 0.63786 0.46198 0.0
H626 H 0.71484 0.62256 0.52787 0.0
H627 H 0.77839 0.66347 0.49783 0.0
H628 H 0.76877 0.66825 0.54057 0.0
H629 H 0.76066 0.67186 0.4639 0.0
H630 H 0.74519 0.68272 0.43608 0.0
H631 H 0.74094 0.62387 0.41653 0.0
H632 H 0.72662 0.6356 0.38721 0.0
H633 H 0.76538 0.61346 0.47572 0.0
H634 H 0.78832 0.66692 0.44261 0.0
H635 H 0.79541 0.61666 0.47635 0.0
H636 H 0.81822 0.66973 0.44103 0.0
H637 H 0.89249 0.63052 0.49204 0.0
H638 H 0.90734 0.63504 0.5344 0.0
H639 H 0.89577 0.67744 0.55226 0.0
H640 H 0.88128 0.67323 0.51014 0.0
H641 H 0.90371 0.68691 0.47194 0.0
H642 H 0.9314 0.70319 0.44541 0.0
H643 H 0.91682 0.65379 0.40405 0.0
H644 H 0.88904 0.63742 0.43071 0.0
H645 H 0.8486 0.62028 0.46096 0.0
H646 H 0.81879 0.61707 0.4541 0.0
H647 H 0.84255 0.67487 0.46601 0.0
N648 N 0.87979 0.65022 0.47127 0.0
H649 H 0.8724 0.678 0.47023 0.0
C650 C 0.75213 0.63997 0.48831 0.0
C651 C 0.73431 0.62843 0.49729 0.0
C652 C 0.72881 0.63129 0.52155 0.0
C653 C 0.74115 0.64572 0.5372 0.0
C654 C 0.75915 0.65698 0.52871 0.0
C655 C 0.76462 0.65419 0.50439 0.0
C656 C 0.75138 0.64661 0.44284 0.0
C657 C 0.75332 0.66378 0.44727 0.0
C658 C 0.74459 0.67009 0.43124 0.0
C659 C 0.7344 0.65977 0.40991 0.0
C660 C 0.73416 0.64362 0.40383 0.0
C661 C 0.74236 0.63697 0.42044 0.0
C662 C 0.77446 0.63976 0.45896 0.0
C663 C 0.77688 0.6257 0.46791 0.0
C664 C 0.79412 0.62755 0.46804 0.0
C665 C 0.80945 0.64346 0.45861 0.0
C666 C 0.8069 0.6574 0.44889 0.0
C667 C 0.78966 0.6557 0.4494 0.0
C668 C 0.88561 0.65135 0.4978 0.0
C669 C 0.89279 0.6405 0.50534 0.0
C670 C 0.90127 0.6431 0.52936 0.0
C671 C 0.90258 0.65656 0.54629 0.0
C672 C 0.89476 0.66693 0.53939 0.0
C673 C 0.88641 0.66444 0.51527 0.0
C674 C 0.89431 0.66088 0.45324 0.0
C675 C 0.90614 0.67965 0.45673 0.0
C676 C 0.92196 0.68894 0.44166 0.0
C677 C 0.92607 0.67962 0.42292 0.0
C678 C 0.91377 0.66117 0.4184 0.0
C679 C 0.89798 0.65187 0.4335 0.0
C680 C 0.86262 0.64921 0.46677 0.0
C681 C 0.84729 0.63222 0.46186 0.0
C682 C 0.83022 0.63044 0.4582 0.0
C683 C 0.82799 0.64565 0.46 0.0
C684 C 0.84358 0.66281 0.46424 0.0
C685 C 0.86074 0.66462 0.46716 0.0
H686 H 0.38788 0.13004 0.50449 0.0
N687 N 0.36356 0.12384 0.4677 0.0
H688 H 0.38215 0.11508 0.54712 0.0
H689 H 0.33014 0.09994 0.4889 0.0
H690 H 0.32453 0.08517 0.5312 0.0
H691 H 0.37711 0.10409 0.44941 0.0
H692 H 0.36167 0.07714 0.42147 0.0
H693 H 0.33142 0.11238 0.4413 0.0
H694 H 0.31633 0.0858 0.41309 0.0
H695 H 0.38866 0.15414 0.44476 0.0
H696 H 0.33623 0.13027 0.48277 0.0
H697 H 0.38851 0.18251 0.4391 0.0
H698 H 0.33618 0.15848 0.47781 0.0
H699 H 0.38305 0.27064 0.48762 0.0
H700 H 0.37607 0.27887 0.53017 0.0
H701 H 0.32792 0.22584 0.53618 0.0
H702 H 0.33483 0.21761 0.49389 0.0
H703 H 0.32646 0.22835 0.4552 0.0
H704 H 0.31407 0.24353 0.42967 0.0
H705 H 0.36785 0.28105 0.40029 0.0
H706 H 0.38033 0.26555 0.42557 0.0
H707 H 0.39105 0.23547 0.46715 0.0
H708 H 0.3912 0.20696 0.4664 0.0
H709 H 0.33415 0.17822 0.44593 0.0
N710 N 0.36287 0.24013 0.4613 0.0
H711 H 0.33404 0.2066 0.44718 0.0
C712 C 0.35954 0.1162 0.4935 0.0
C713 C 0.37401 0.12046 0.5104 0.0
C714 C 0.37077 0.11194 0.53457 0.0
C715 C 0.35293 0.09905 0.54213 0.0
C716 C 0.33836 0.09511 0.52562 0.0
C717 C 0.3416 0.1036 0.50151 0.0
C718 C 0.35558 0.11036 0.44746 0.0
C719 C 0.36406 0.10044 0.441 0.0
C720 C 0.35528 0.08511 0.42518 0.0
C721 C 0.33792 0.07959 0.41534 0.0
C722 C 0.32979 0.09 0.42046 0.0
C723 C 0.33848 0.10522 0.43655 0.0
C724 C 0.36264 0.14012 0.46435 0.0
C725 C 0.37715 0.15503 0.45189 0.0
C726 C 0.37706 0.17122 0.44877 0.0
C727 C 0.36234 0.17278 0.45805 0.0
C728 C 0.34762 0.15769 0.47014 0.0
C729 C 0.34774 0.14153 0.47325 0.0
C730 C 0.35958 0.24356 0.48759 0.0
C731 C 0.3712 0.2607 0.49838 0.0
C732 C 0.36722 0.26538 0.52249 0.0
C733 C 0.3515 0.25293 0.53613 0.0
C734 C 0.34014 0.23556 0.52587 0.0
C735 C 0.34412 0.23088 0.50175 0.0
C736 C 0.35444 0.24573 0.44214 0.0
C737 C 0.33556 0.23929 0.44248 0.0
C738 C 0.32845 0.24802 0.42801 0.0
C739 C 0.34008 0.26343 0.41327 0.0
C740 C 0.35867 0.26912 0.4115 0.0
C741 C 0.36576 0.26028 0.42581 0.0
C742 C 0.36265 0.22332 0.45724 0.0
C743 C 0.37867 0.22303 0.46208 0.0
C744 C 0.37873 0.20674 0.46158 0.0
C745 C 0.36265 0.19028 0.45623 0.0
C746 C 0.3467 0.19063 0.45049 0.0
C747 C 0.34667 0.20697 0.451 0.0
H748 H 0.75764 0.09038 0.48158 0.0
N749 N 0.75882 0.12062 0.46081 0.0
H750 H 0.74524 0.07679 0.52369 0.0
H751 H 0.74493 0.13238 0.49726 0.0
H752 H 0.73242 0.11853 0.53995 0.0
H753 H 0.72745 0.10979 0.43681 0.0
H754 H 0.71093 0.08296 0.4089 0.0
H755 H 0.77344 0.10156 0.43789 0.0
H756 H 0.75684 0.07478 0.41064 0.0
H757 H 0.78728 0.11709 0.47868 0.0
H758 H 0.77409 0.15377 0.44058 0.0
H759 H 0.81932 0.14008 0.47789 0.0
H760 H 0.80662 0.17703 0.43926 0.0
H761 H 0.89787 0.24561 0.48497 0.0
H762 H 0.90864 0.2601 0.52721 0.0
H763 H 0.90358 0.21078 0.55735 0.0
H764 H 0.89371 0.19648 0.51444 0.0
H765 H 0.88721 0.23531 0.43976 0.0
H766 H 0.91022 0.25735 0.40951 0.0
H767 H 0.94505 0.23559 0.42551 0.0
H768 H 0.92224 0.21383 0.45609 0.0
H769 H 0.87688 0.17813 0.4538 0.0
H770 H 0.84452 0.15596 0.44781 0.0
H771 H 0.83105 0.19659 0.46982 0.0
N772 N 0.89148 0.21182 0.47095 0.0
H773 H 0.86355 0.21879 0.47505 0.0
C774 C 0.75216 0.1125 0.48605 0.0
C775 C 0.75226 0.09678 0.49397 0.0
C776 C 0.74521 0.08897 0.5181 0.0
C777 C 0.73797 0.09669 0.53479 0.0
C778 C 0.73802 0.11246 0.52723 0.0
C779 C 0.74511 0.1203 0.503 0.0
C780 C 0.75159 0.1077 0.43974 0.0
C781 C 0.73421 0.10262 0.43036 0.0
C782 C 0.72481 0.08736 0.4145 0.0
C783 C 0.7327 0.07694 0.40794 0.0
C784 C 0.75062 0.08275 0.41551 0.0
C785 C 0.76008 0.09809 0.43115 0.0
C786 C 0.77812 0.13369 0.4597 0.0
C787 C 0.79121 0.13003 0.46996 0.0
C788 C 0.80967 0.14322 0.4693 0.0
C789 C 0.81555 0.16037 0.45838 0.0
C790 C 0.8025 0.16399 0.44796 0.0
C791 C 0.78397 0.15072 0.44858 0.0
C792 C 0.89548 0.22004 0.49634 0.0
C793 C 0.89907 0.23784 0.50049 0.0
C794 C 0.90509 0.24611 0.52466 0.0
C795 C 0.90703 0.23653 0.5452 0.0
C796 C 0.9022 0.21836 0.54162 0.0
C797 C 0.89663 0.21025 0.51726 0.0
C798 C 0.90313 0.22297 0.45021 0.0
C799 C 0.89963 0.23505 0.4364 0.0
C800 C 0.91271 0.2476 0.4192 0.0
C801 C 0.92924 0.248 0.4154 0.0
C802 C 0.93231 0.23537 0.42819 0.0
C803 C 0.91935 0.22299 0.44551 0.0
C804 C 0.87254 0.19994 0.46507 0.0
C805 C 0.86691 0.18226 0.45692 0.0
C806 C 0.84845 0.16963 0.45371 0.0
C807 C 0.8352 0.17445 0.45872 0.0
C808 C 0.84092 0.19248 0.46569 0.0
C809 C 0.85947 0.20516 0.46882 0.0
H810 H 0.00173 0.58546 0.21814 0.0
N811 N 0.98025 0.54977 0.23474 0.0
H812 H 0.00212 0.5971 0.17525 0.0
H813 H 0.96274 0.53117 0.1924 0.0
H814 H 0.96436 0.54296 0.14841 0.0
H815 H 0.95631 0.55707 0.25637 0.0
H816 H 0.96311 0.5831 0.28426 0.0
H817 H 0.01277 0.5716 0.25973 0.0
H818 H 0.01944 0.59745 0.28745 0.0
H819 H 0.01366 0.55674 0.21739 0.0
H820 H 0.96482 0.51733 0.25718 0.0
H821 H 0.02506 0.53571 0.21781 0.0
H822 H 0.97637 0.49631 0.25852 0.0
H823 H 0.99598 0.43232 0.21121 0.0
H824 H 0.99014 0.41545 0.17069 0.0
H825 H 0.04134 0.45771 0.13966 0.0
H826 H 0.04729 0.47481 0.18049 0.0
H827 H -0.00051 0.44176 0.25687 0.0
H828 H -0.00053 0.41848 0.28452 0.0
H829 H 0.05578 0.43847 0.26465 0.0
H830 H 0.05575 0.46161 0.23667 0.0
H831 H 0.04681 0.49881 0.23731 0.0
H832 H 0.03631 0.5204 0.244 0.0
H833 H 0.98108 0.47777 0.22817 0.0
N834 N 0.02718 0.46423 0.22357 0.0
H835 H 0.99157 0.45634 0.22244 0.0
C836 C 0.98176 0.55726 0.20899 0.0
C837 C 0.99324 0.5759 0.20347 0.0
C838 C 0.99362 0.58266 0.17875 0.0
C839 C 0.98318 0.57094 0.15868 0.0
C840 C 0.97239 0.55226 0.16372 0.0
C841 C 0.97148 0.54556 0.18874 0.0
C842 C 0.98392 0.56231 0.25586 0.0
C843 C 0.96997 0.56543 0.26388 0.0
C844 C 0.97383 0.58024 0.27971 0.0
C845 C 0.99176 0.59212 0.28779 0.0
C846 C 0.00551 0.5883 0.28151 0.0
C847 C 0.00165 0.57347 0.2657 0.0
C848 C 0.98826 0.53847 0.23708 0.0
C849 C 0.00552 0.54363 0.22658 0.0
C850 C 0.01207 0.53161 0.227 0.0
C851 C 0.00158 0.51423 0.23806 0.0
C852 C 0.98466 0.50944 0.24944 0.0
C853 C 0.97809 0.52145 0.2489 0.0
C854 C 0.02217 0.45496 0.19891 0.0
C855 C 0.00585 0.43824 0.19567 0.0
C856 C 0.00248 0.42854 0.17254 0.0
C857 C 0.01532 0.43537 0.15234 0.0
C858 C 0.03127 0.45231 0.1551 0.0
C859 C 0.03464 0.46203 0.17826 0.0
C860 C 0.02768 0.4534 0.24453 0.0
C861 C 0.01199 0.44152 0.25897 0.0
C862 C 0.01196 0.42824 0.27478 0.0
C863 C 0.0276 0.42679 0.27647 0.0
C864 C 0.04362 0.43947 0.26362 0.0
C865 C 0.04362 0.45266 0.24777 0.0
C866 C 0.02011 0.47603 0.2292 0.0
C867 C 0.03242 0.49415 0.23562 0.0
C868 C 0.0264 0.50646 0.23924 0.0
C869 C 0.00785 0.50088 0.23644 0.0
C870 C 0.99543 0.48253 0.23078 0.0
C871 C 0.00146 0.47022 0.22727 0.0
H872 H 0.6072 0.55933 0.20757 0.0
N873 N 0.57383 0.54341 0.22789 0.0
H874 H 0.61709 0.57464 0.16528 0.0
H875 H 0.55139 0.54207 0.18863 0.0
H876 H 0.56127 0.55698 0.14645 0.0
H877 H 0.56121 0.56716 0.22396 0.0
H878 H 0.57054 0.59409 0.25055 0.0
H879 H 0.59419 0.5531 0.27047 0.0
H880 H 0.60379 0.58044 0.29704 0.0
H881 H 0.56958 0.51057 0.2234 0.0
H882 H 0.53948 0.53769 0.23927 0.0
H883 H 0.54109 0.48124 0.22449 0.0
H884 H 0.51137 0.50871 0.24122 0.0
H885 H 0.46214 0.40435 0.19031 0.0
H886 H 0.44761 0.39442 0.14748 0.0
H887 H 0.41949 0.42385 0.16009 0.0
H888 H 0.43346 0.43329 0.20284 0.0
H889 H 0.43496 0.39112 0.24415 0.0
H890 H 0.40825 0.38118 0.27251 0.0
H891 H 0.421 0.4366 0.28017 0.0
H892 H 0.44723 0.44652 0.25133 0.0
H893 H 0.4874 0.43045 0.24815 0.0
H894 H 0.51616 0.45947 0.25187 0.0
H895 H 0.4921 0.48597 0.21058 0.0
N896 N 0.45678 0.42414 0.22539 0.0
H897 H 0.46361 0.45742 0.20772 0.0
C898 C 0.57861 0.54945 0.20134 0.0
C899 C 0.59707 0.5584 0.19406 0.0
C900 C 0.6027 0.56713 0.17007 0.0
C901 C 0.58987 0.56685 0.1529 0.0
C902 C 0.5713 0.55718 0.15948 0.0
C903 C 0.56569 0.54862 0.18357 0.0
C904 C 0.57697 0.55797 0.24533 0.0
C905 C 0.57015 0.56961 0.2402 0.0
C906 C 0.57549 0.58503 0.25533 0.0
C907 C 0.58782 0.58921 0.27571 0.0
C908 C 0.59414 0.57733 0.28148 0.0
C909 C 0.58869 0.56179 0.26641 0.0
C910 C 0.55689 0.52642 0.23126 0.0
C911 C 0.55691 0.51019 0.22757 0.0
C912 C 0.54064 0.49346 0.22832 0.0
C913 C 0.52393 0.49264 0.23281 0.0
C914 C 0.52396 0.50887 0.23729 0.0
C915 C 0.5402 0.52557 0.23641 0.0
C916 C 0.44906 0.41965 0.19969 0.0
C917 C 0.45299 0.40878 0.18367 0.0
C918 C 0.44475 0.40315 0.15937 0.0
C919 C 0.43264 0.40856 0.15072 0.0
C920 C 0.42895 0.41972 0.16644 0.0
C921 C 0.43697 0.42513 0.1908 0.0
C922 C 0.44324 0.41951 0.24556 0.0
C923 C 0.43222 0.40117 0.25237 0.0
C924 C 0.417 0.39551 0.26841 0.0
C925 C 0.41271 0.40818 0.27825 0.0
C926 C 0.42419 0.42667 0.27272 0.0
C927 C 0.43924 0.43231 0.25627 0.0
C928 C 0.47333 0.44158 0.22756 0.0
C929 C 0.48838 0.44258 0.24005 0.0
C930 C 0.5048 0.45913 0.24202 0.0
C931 C 0.50643 0.47505 0.23153 0.0
C932 C 0.49126 0.47405 0.21922 0.0
C933 C 0.47491 0.45755 0.2173 0.0
H934 H 0.5597 0.97688 0.20595 0.0
N935 N 0.56045 0.00565 0.231 0.0
H936 H 0.5734 0.97772 0.16382 0.0
H937 H 0.57641 0.03347 0.19809 0.0
H938 H 0.59009 0.0342 0.15549 0.0
H939 H 0.5928 0.02295 0.25364 0.0
H940 H 0.60685 0.00964 0.28034 0.0
H941 H 0.54277 0.97109 0.25184 0.0
H942 H 0.55673 0.95804 0.27876 0.0
H943 H 0.53076 0.97576 0.20987 0.0
H944 H 0.54726 0.02409 0.25514 0.0
H945 H 0.49942 0.969 0.21075 0.0
H946 H 0.51553 0.0171 0.25675 0.0
H947 H 0.43371 0.00831 0.20919 0.0
H948 H 0.42519 0.01643 0.16807 0.0
H949 H 0.41419 0.96551 0.13495 0.0
H950 H 0.42291 0.95749 0.17598 0.0
H951 H 0.43961 -0.00017 0.26084 0.0
H952 H 0.41763 0.00033 0.29139 0.0
H953 H 0.37402 0.95317 0.25395 0.0
H954 H 0.39608 0.95203 0.22451 0.0
H955 H 0.44216 0.95287 0.2326 0.0
H956 H 0.47347 0.95959 0.23887 0.0
H957 H 0.49309 0.01665 0.22738 0.0
N958 N 0.43127 0.97588 0.22017 0.0
H959 H 0.46176 0.00982 0.22202 0.0
C960 C 0.56711 0.00524 0.2053 0.0
C961 C 0.56613 0.98945 0.19513 0.0
C962 C 0.57393 0.98988 0.17107 0.0
C963 C 0.58272 0.00601 0.15672 0.0
C964 C 0.5833 0.02164 0.16639 0.0
C965 C 0.57553 0.02123 0.19056 0.0
C966 C 0.56676 -0.00182 0.2507 0.0
C967 C 0.58469 0.0089 0.25962 0.0
C968 C 0.5927 0.00133 0.27472 0.0
C969 C 0.58279 0.9829 0.28134 0.0
C970 C 0.56451 0.97232 0.27384 0.0
C971 C 0.55655 0.97985 0.2585 0.0
C972 C 0.5415 0.00061 0.23232 0.0
C973 C 0.52767 0.9849 0.22018 0.0
C974 C 0.50962 0.98092 0.22092 0.0
C975 C 0.50492 0.99249 0.23386 0.0
C976 C 0.51871 0.00801 0.24638 0.0
C977 C 0.5368 0.01198 0.24561 0.0
C978 C 0.42891 0.98224 0.1955 0.0
C979 C 0.42993 -0.00089 0.19289 0.0
C980 C 0.42503 0.00372 0.16953 0.0
C981 C 0.41898 0.99149 0.14867 0.0
C982 C 0.41884 0.97508 0.1509 0.0
C983 C 0.42379 0.97052 0.17417 0.0
C984 C 0.41946 0.9757 0.24047 0.0
C985 C 0.42543 0.98932 0.25959 0.0
C986 C 0.41288 0.98969 0.27693 0.0
C987 C 0.39417 0.97692 0.27471 0.0
C988 C 0.38836 0.96318 0.25598 0.0
C989 C 0.40091 0.96248 0.23926 0.0
C990 C 0.44963 0.98074 0.22662 0.0
C991 C 0.45324 0.96684 0.23188 0.0
C992 C 0.47113 0.9707 0.23522 0.0
C993 C 0.48582 0.98864 0.23327 0.0
C994 C 0.4821 0.0027 0.22916 0.0
C995 C 0.46417 -0.0012 0.2259 0.0
H996 H 0.38941 0.94726 0.81745 0.0
N997 N 0.42189 0.96698 0.79494 0.0
H998 H 0.37958 0.95262 0.85988 0.0
H999 H 0.44362 0.99241 0.83089 0.0
H1000 H 0.43379 0.99771 0.87317 0.0
H1001 H 0.42847 0.002 0.79614 0.0
H1002 H 0.41424 0.01413 0.76819 0.0
H1003 H 0.40578 0.95339 0.74956 0.0
H1004 H 0.39274 0.96635 0.72007 0.0
H1005 H 0.42835 0.94121 0.8097 0.0
H1006 H 0.45463 0.99475 0.77608 0.0
H1007 H 0.45741 0.94233 0.81115 0.0
H1008 H 0.48356 0.99544 0.77527 0.0
H1009 H 0.55144 0.9492 0.82731 0.0
H1010 H 0.56698 0.95364 0.86911 0.0
H1011 H 0.56071 -0.00034 0.88506 0.0
H1012 H 0.54529 0.99533 0.8438 0.0
H1013 H 0.56665 0.00702 0.80604 0.0
H1014 H 0.59357 0.02218 0.77798 0.0
H1015 H 0.57572 0.97221 0.73631 0.0
H1016 H 0.54866 0.95685 0.76466 0.0
H1017 H 0.50877 0.94191 0.79637 0.0
H1018 H 0.47992 0.9408 0.78951 0.0
H1019 H 0.50721 -0.00099 0.80035 0.0
N1020 N 0.5411 0.97068 0.80581 0.0
H1021 H 0.53606 2e-05 0.8045 0.0
C1022 C 0.41718 0.96931 0.82106 0.0
C1023 C 0.39922 0.95808 0.82973 0.0
C1024 C 0.39364 0.96114 0.85379 0.0
C1025 C 0.40601 0.97552 0.86949 0.0
C1026 C 0.42413 0.98649 0.86128 0.0
C1027 C 0.42972 0.98342 0.83723 0.0
C1028 C 0.41758 0.97637 0.77551 0.0
C1029 C 0.42076 0.99404 0.77963 0.0
C1030 C 0.41274 0.00109 0.76352 0.0
C1031 C 0.40206 0.99096 0.7424 0.0
C1032 C 0.40068 0.97424 0.73654 0.0
C1033 C 0.40815 0.96689 0.75324 0.0
C1034 C 0.43917 0.96772 0.79261 0.0
C1035 C 0.44037 0.95302 0.80198 0.0
C1036 C 0.45706 0.95367 0.80257 0.0
C1037 C 0.47303 0.96895 0.79318 0.0
C1038 C 0.47171 0.98355 0.78312 0.0
C1039 C 0.45503 0.98307 0.78318 0.0
C1040 C 0.5471 0.9718 0.83224 0.0
C1041 C 0.55297 0.95993 0.84016 0.0
C1042 C 0.56184 0.96247 0.86387 0.0
C1043 C 0.56494 0.97697 0.88 0.0
C1044 C 0.55833 0.98835 0.87281 0.0
C1045 C 0.54947 0.98581 0.84915 0.0
C1046 C 0.55562 0.9807 0.78745 0.0
C1047 C 0.56822 -0.00066 0.79061 0.0
C1048 C 0.58361 0.00802 0.77463 0.0
C1049 C 0.58654 -0.00174 0.75522 0.0
C1050 C 0.57357 0.97992 0.75119 0.0
C1051 C 0.55821 0.97121 0.76726 0.0
C1052 C 0.52448 0.97088 0.80165 0.0
C1053 C 0.50844 0.9544 0.79708 0.0
C1054 C 0.49193 0.95382 0.79341 0.0
C1055 C 0.49097 0.96978 0.79485 0.0
C1056 C 0.50725 0.98641 0.79885 0.0
C1057 C 0.52385 0.98699 0.80177 0.0
H1058 H 0.94612 0.54374 0.83107 0.0
N1059 N 0.97053 0.54114 0.8021 0.0
H1060 H 0.95132 0.5603 0.87215 0.0
H1061 H 0.0034 0.56174 0.826 0.0
H1062 H 0.00863 0.57833 0.86723 0.0
H1063 H -0.00083 0.57247 0.78294 0.0
H1064 H -0.00147 0.58993 0.74687 0.0
H1065 H 0.94298 0.53233 0.77043 0.0
H1066 H 0.94172 0.54917 0.73449 0.0
H1067 H 0.96023 0.51289 0.83314 0.0
H1068 H -0.00373 0.54115 0.7689 0.0
H1069 H 0.97063 0.49119 0.83324 0.0
H1070 H 0.00556 0.51864 0.76735 0.0
H1071 H 0.98132 0.41937 0.82142 0.0
H1072 H 0.98035 0.40659 0.86417 0.0
H1073 H 0.03618 0.44834 0.8773 0.0
H1074 H 0.03711 0.46142 0.83439 0.0
H1075 H 0.02909 0.43405 0.78108 0.0
H1076 H 0.01751 0.40691 0.75363 0.0
H1077 H 0.96697 0.40627 0.74407 0.0
H1078 H 0.97814 0.43295 0.77136 0.0
H1079 H 0.97713 0.44414 0.81301 0.0
H1080 H 0.96796 0.46661 0.81206 0.0
H1081 H 0.02204 0.50692 0.78589 0.0
N1082 N 0.01061 0.44907 0.79931 0.0
H1083 H 0.0306 0.48362 0.78487 0.0
C1084 C 0.97431 0.55149 0.82567 0.0
C1085 C 0.9598 0.55134 0.83883 0.0
C1086 C 0.96275 0.56073 0.86212 0.0
C1087 C 0.98032 0.57041 0.87261 0.0
C1088 C 0.99499 0.57086 0.85934 0.0
C1089 C 0.99202 0.56146 0.83592 0.0
C1090 C 0.9712 0.55081 0.7789 0.0
C1091 C 0.98681 0.56709 0.77167 0.0
C1092 C 0.98643 0.57691 0.75031 0.0
C1093 C 0.9706 0.57056 0.73488 0.0
C1094 C 0.95486 0.55435 0.74319 0.0
C1095 C 0.95532 0.54457 0.7645 0.0
C1096 C 0.97726 0.52865 0.80106 0.0
C1097 C 0.97024 0.51429 0.81885 0.0
C1098 C 0.97608 0.50173 0.81863 0.0
C1099 C 0.98878 0.50285 0.80001 0.0
C1100 C 0.99594 0.51736 0.78221 0.0
C1101 C 0.99043 0.53025 0.7829 0.0
C1102 C 0.00934 0.4415 0.82476 0.0
C1103 C 0.99331 0.42598 0.83352 0.0
C1104 C 0.99276 0.41862 0.85785 0.0
C1105 C 0.00818 0.42657 0.87378 0.0
C1106 C 0.02415 0.44209 0.86522 0.0
C1107 C 0.02467 0.44952 0.84088 0.0
C1108 C 0.00463 0.43566 0.77878 0.0
C1109 C 0.0157 0.42836 0.77253 0.0
C1110 C 0.00911 0.4129 0.75697 0.0
C1111 C 0.99139 0.40465 0.74705 0.0
C1112 C 0.9807 0.41254 0.75163 0.0
C1113 C 0.98718 0.42787 0.76744 0.0
C1114 C 0.00455 0.46208 0.79851 0.0
C1115 C 0.98698 0.4577 0.80668 0.0
C1116 C 0.98181 0.47077 0.80649 0.0
C1117 C 0.99425 0.4888 0.79912 0.0
C1118 C 0.01191 0.49318 0.79123 0.0
C1119 C 0.01691 0.47991 0.79077 0.0
H1120 H 0.43095 0.42262 0.81597 0.0
N1121 N 0.42731 0.44965 0.79335 0.0
H1122 H 0.41957 0.40912 0.8586 0.0
H1123 H 0.41059 0.45911 0.82858 0.0
H1124 H 0.39938 0.4456 0.87181 0.0
H1125 H 0.39542 0.43487 0.76964 0.0
H1126 H 0.38187 0.40797 0.74154 0.0
H1127 H 0.44558 0.43399 0.77181 0.0
H1128 H 0.43199 0.40703 0.7437 0.0
H1129 H 0.45799 0.45513 0.81931 0.0
H1130 H 0.43863 0.47836 0.76275 0.0
H1131 H 0.48719 0.48285 0.82021 0.0
H1132 H 0.46865 0.50581 0.76154 0.0
H1133 H 0.57069 0.55672 0.82548 0.0
H1134 H 0.58603 0.5669 0.86742 0.0
H1135 H 0.55452 0.59227 0.88474 0.0
H1136 H 0.53921 0.5822 0.84255 0.0
H1137 H 0.56424 0.59984 0.78931 0.0
H1138 H 0.59168 0.61482 0.76177 0.0
H1139 H 0.58804 0.56331 0.7486 0.0
H1140 H 0.56101 0.54841 0.7762 0.0
H1141 H 0.54237 0.53171 0.81038 0.0
H1142 H 0.5147 0.50286 0.80278 0.0
H1143 H 0.48616 0.53141 0.78526 0.0
N1144 N 0.54663 0.5656 0.80495 0.0
H1145 H 0.51451 0.56021 0.79048 0.0
C1146 C 0.42141 0.44182 0.81888 0.0
C1147 C 0.42402 0.42774 0.8278 0.0
C1148 C 0.41764 0.42008 0.8522 0.0
C1149 C 0.40868 0.42641 0.86816 0.0
C1150 C 0.40632 0.44063 0.85964 0.0
C1151 C 0.41265 0.44827 0.83511 0.0
C1152 C 0.4214 0.43638 0.77285 0.0
C1153 C 0.40365 0.42918 0.76341 0.0
C1154 C 0.39595 0.41388 0.74748 0.0
C1155 C 0.40594 0.40555 0.74076 0.0
C1156 C 0.42414 0.41337 0.7487 0.0
C1157 C 0.43187 0.42874 0.76467 0.0
C1158 C 0.44577 0.4648 0.79146 0.0
C1159 C 0.46004 0.46608 0.8067 0.0
C1160 C 0.47702 0.48204 0.80691 0.0
C1161 C 0.48042 0.49691 0.79125 0.0
C1162 C 0.46649 0.495 0.77459 0.0
C1163 C 0.44934 0.47921 0.77495 0.0
C1164 C 0.55381 0.5688 0.83089 0.0
C1165 C 0.56674 0.56409 0.83846 0.0
C1166 C 0.57552 0.5699 0.86235 0.0
C1167 C 0.57137 0.58032 0.879 0.0
C1168 C 0.5578 0.58417 0.8721 0.0
C1169 C 0.54909 0.57845 0.84816 0.0
C1170 C 0.56042 0.57302 0.78488 0.0
C1171 C 0.56909 0.59172 0.77994 0.0
C1172 C 0.58471 0.60024 0.76437 0.0
C1173 C 0.59177 0.5901 0.7533 0.0
C1174 C 0.58264 0.57127 0.75697 0.0
C1175 C 0.56713 0.56277 0.77277 0.0
C1176 C 0.53058 0.54819 0.80044 0.0
C1177 C 0.53029 0.53178 0.80424 0.0
C1178 C 0.51426 0.51518 0.80027 0.0
C1179 C 0.49796 0.51458 0.79337 0.0
C1180 C 0.49839 0.53112 0.78983 0.0
C1181 C 0.51456 0.54768 0.79309 0.0
H1182 H 0.65649 0.90039 0.54402 0.0
N1183 N 0.68598 0.89768 0.55868 0.0
H1184 H 0.65217 0.91053 0.50178 0.0
H1185 H 0.70566 0.90314 0.51583 0.0
H1186 H 0.70087 0.91265 0.473 0.0
H1187 H 0.65746 0.89185 0.59044 0.0
H1188 H 0.65647 0.91495 0.61771 0.0
H1189 H 0.71378 0.92971 0.57183 0.0
H1190 H 0.71281 0.95273 0.59923 0.0
H1191 H 0.70574 0.88381 0.57501 0.0
H1192 H 0.65086 0.86918 0.55519 0.0
H1193 H 0.69615 0.85169 0.57942 0.0
H1194 H 0.64121 0.83705 0.55874 0.0
H1195 H 0.67673 0.76714 0.53955 0.0
H1196 H 0.67854 0.75503 0.49747 0.0
H1197 H 0.62326 0.74079 0.48109 0.0
H1198 H 0.6213 0.75293 0.52366 0.0
H1199 H 0.62544 0.73394 0.58141 0.0
H1200 H 0.63508 0.71695 0.60894 0.0
H1201 H 0.68928 0.76366 0.61239 0.0
H1202 H 0.67979 0.78063 0.58512 0.0
H1203 H 0.67902 0.79601 0.54471 0.0
H1204 H 0.68763 0.82764 0.54825 0.0
H1205 H 0.63651 0.81201 0.58679 0.0
N1206 N 0.64659 0.76645 0.56057 0.0
H1207 H 0.62771 0.77998 0.58257 0.0
C1208 C 0.68171 0.90139 0.53324 0.0
C1209 C 0.66625 0.90295 0.52874 0.0
C1210 C 0.66369 0.90863 0.5046 0.0
C1211 C 0.67627 0.9124 0.48447 0.0
C1212 C 0.69106 0.90978 0.48841 0.0
C1213 C 0.6938 0.90442 0.51271 0.0
C1214 C 0.68577 0.90914 0.57904 0.0
C1215 C 0.66975 0.90489 0.59283 0.0
C1216 C 0.66915 0.91805 0.60835 0.0
C1217 C 0.68456 0.93548 0.61034 0.0
C1218 C 0.70083 0.9393 0.59796 0.0
C1219 C 0.7014 0.92621 0.58245 0.0
C1220 C 0.67912 0.87887 0.56459 0.0
C1221 C 0.69157 0.87363 0.57197 0.0
C1222 C 0.68608 0.8553 0.57423 0.0
C1223 C 0.66798 0.8418 0.569 0.0
C1224 C 0.65524 0.84709 0.56301 0.0
C1225 C 0.66075 0.86548 0.56085 0.0
C1226 C 0.64873 0.76089 0.53492 0.0
C1227 C 0.66499 0.76163 0.52699 0.0
C1228 C 0.66609 0.75475 0.50293 0.0
C1229 C 0.65105 0.74707 0.48632 0.0
C1230 C 0.63501 0.74676 0.49372 0.0
C1231 C 0.63389 0.75364 0.51789 0.0
C1232 C 0.65177 0.75852 0.58107 0.0
C1233 C 0.63923 0.7407 0.5888 0.0
C1234 C 0.64471 0.73103 0.60441 0.0
C1235 C 0.66286 0.73911 0.61253 0.0
C1236 C 0.67518 0.7573 0.60634 0.0
C1237 C 0.6697 0.76698 0.59075 0.0
C1238 C 0.65255 0.78548 0.56326 0.0
C1239 C 0.66959 0.79923 0.55395 0.0
C1240 C 0.67461 0.81744 0.55623 0.0
C1241 C 0.66279 0.82239 0.56791 0.0
C1242 C 0.64586 0.80865 0.5775 0.0
C1243 C 0.64084 0.79039 0.57522 0.0
H1244 H 0.25418 0.87661 0.52196 0.0
N1245 N 0.23659 0.88229 0.56034 0.0
H1246 H 0.26206 0.89117 0.47892 0.0
H1247 H 0.22587 0.90515 0.54058 0.0
H1248 H 0.23384 0.91967 0.49794 0.0
H1249 H 0.2704 0.90288 0.57716 0.0
H1250 H 0.28216 0.92985 0.60499 0.0
H1251 H 0.21574 0.8928 0.58827 0.0
H1252 H 0.22751 0.91951 0.6164 0.0
H1253 H 0.23304 0.85242 0.5815 0.0
H1254 H 0.20184 0.87412 0.54796 0.0
H1255 H 0.20521 0.82273 0.58591 0.0
H1256 H 0.17425 0.84455 0.55138 0.0
H1257 H 0.11219 0.7293 0.53821 0.0
H1258 H 0.09675 0.71975 0.49603 0.0
H1259 H 0.10293 0.77261 0.48611 0.0
H1260 H 0.11824 0.78215 0.52804 0.0
H1261 H 0.09568 0.76874 0.56481 0.0
H1262 H 0.06877 0.75436 0.59281 0.0
H1263 H 0.08964 0.72383 0.63064 0.0
H1264 H 0.11685 0.7383 0.60238 0.0
H1265 H 0.15713 0.76867 0.55578 0.0
H1266 H 0.18478 0.79856 0.5578 0.0
H1267 H 0.15236 0.82221 0.58039 0.0
N1268 N 0.12295 0.76051 0.56267 0.0
H1269 H 0.12491 0.79256 0.5775 0.0
C1270 C 0.23954 0.88979 0.53452 0.0
C1271 C 0.24949 0.88579 0.51666 0.0
C1272 C 0.25396 0.89406 0.49224 0.0
C1273 C 0.24851 0.90645 0.48546 0.0
C1274 C 0.23811 0.9101 0.50294 0.0
C1275 C 0.23359 0.9018 0.52726 0.0
C1276 C 0.24225 0.89574 0.58063 0.0
C1277 C 0.26091 0.90617 0.58619 0.0
C1278 C 0.2676 0.92152 0.60192 0.0
C1279 C 0.25567 0.92661 0.61256 0.0
C1280 C 0.23686 0.91569 0.60834 0.0
C1281 C 0.23017 0.9004 0.59234 0.0
C1282 C 0.21965 0.86546 0.56424 0.0
C1283 C 0.22018 0.85078 0.57519 0.0
C1284 C 0.20429 0.83382 0.5775 0.0
C1285 C 0.18749 0.83118 0.5688 0.0
C1286 C 0.18689 0.8461 0.55854 0.0
C1287 C 0.20277 0.86306 0.55634 0.0
C1288 C 0.11646 0.7564 0.5363 0.0
C1289 C 0.11057 0.73893 0.52666 0.0
C1290 C 0.10176 0.7335 0.50275 0.0
C1291 C 0.09874 0.74551 0.48816 0.0
C1292 C 0.10524 0.76322 0.49717 0.0
C1293 C 0.11402 0.76865 0.52108 0.0
C1294 C 0.10841 0.75461 0.58153 0.0
C1295 C 0.09481 0.7593 0.57943 0.0
C1296 C 0.0794 0.75108 0.59537 0.0
C1297 C 0.0773 0.73807 0.61366 0.0
C1298 C 0.09115 0.73393 0.61665 0.0
C1299 C 0.10661 0.74218 0.60066 0.0
C1300 C 0.13891 0.77819 0.56654 0.0
C1301 C 0.15606 0.7803 0.56144 0.0
C1302 C 0.17184 0.79739 0.56275 0.0
C1303 C 0.17082 0.81283 0.56926 0.0
C1304 C 0.15364 0.81066 0.57499 0.0
C1305 C 0.13785 0.79356 0.57355 0.0
H1306 H 0.27024 0.38153 0.54641 0.0
N1307 N 0.23708 0.35985 0.56577 0.0
H1308 H 0.28254 0.37828 0.50475 0.0
H1309 H 0.2176 0.3358 0.5271 0.0
H1310 H 0.22992 0.33254 0.48553 0.0
H1311 H 0.25938 0.37308 0.60617 0.0
H1312 H 0.27151 0.35735 0.6318 0.0
H1313 H 0.22431 0.32327 0.56532 0.0
H1314 H 0.23662 0.30774 0.59052 0.0
H1315 H 0.20508 0.33363 0.58997 0.0
H1316 H 0.22889 0.38321 0.54535 0.0
H1317 H 0.17626 0.33281 0.59119 0.0
H1318 H 0.19966 0.38182 0.54516 0.0
H1319 H 0.11006 0.37818 0.53489 0.0
H1320 H 0.09615 0.37401 0.49179 0.0
H1321 H 0.09579 0.32372 0.48273 0.0
H1322 H 0.10947 0.32775 0.52551 0.0
H1323 H 0.11051 0.37284 0.59681 0.0
H1324 H 0.08321 0.36049 0.62461 0.0
H1325 H 0.06451 0.30712 0.59332 0.0
H1326 H 0.09166 0.3194 0.56559 0.0
H1327 H 0.12199 0.32605 0.56422 0.0
H1328 H 0.15099 0.32702 0.5666 0.0
H1329 H 0.17912 0.38567 0.56984 0.0
N1330 N 0.11728 0.35545 0.5598 0.0
H1331 H 0.15001 0.38446 0.56537 0.0
C1332 C 0.24308 0.35899 0.53983 0.0
C1333 C 0.2613 0.37105 0.53298 0.0
C1334 C 0.26828 0.36917 0.50936 0.0
C1335 C 0.25709 0.35517 0.49225 0.0
C1336 C 0.23869 0.34344 0.49856 0.0
C1337 C 0.2317 0.34532 0.52221 0.0
C1338 C 0.24101 0.34944 0.58385 0.0
C1339 C 0.25395 0.35869 0.60326 0.0
C1340 C 0.26088 0.34978 0.61774 0.0
C1341 C 0.25495 0.33147 0.61286 0.0
C1342 C 0.24129 0.32188 0.5945 0.0
C1343 C 0.23432 0.33077 0.58011 0.0
C1344 C 0.21944 0.35854 0.56728 0.0
C1345 C 0.20424 0.3443 0.58013 0.0
C1346 C 0.18752 0.34375 0.58072 0.0
C1347 C 0.18547 0.35722 0.56826 0.0
C1348 C 0.20068 0.37138 0.55548 0.0
C1349 C 0.21742 0.37211 0.55531 0.0
C1350 C 0.11095 0.35342 0.53345 0.0
C1351 C 0.10724 0.36642 0.5234 0.0
C1352 C 0.09933 0.36404 0.49896 0.0
C1353 C 0.09503 0.34858 0.48423 0.0
C1354 C 0.09913 0.33577 0.49387 0.0
C1355 C 0.10698 0.33812 0.51834 0.0
C1356 C 0.10314 0.34713 0.57915 0.0
C1357 C 0.10079 0.3584 0.59656 0.0
C1358 C 0.08528 0.35138 0.61236 0.0
C1359 C 0.07193 0.33294 0.61092 0.0
C1360 C 0.07478 0.32137 0.59475 0.0
C1361 C 0.0903 0.32841 0.57894 0.0
C1362 C 0.13389 0.35528 0.564 0.0
C1363 C 0.13437 0.33912 0.56519 0.0
C1364 C 0.15105 0.3397 0.56692 0.0
C1365 C 0.16756 0.35644 0.56808 0.0
C1366 C 0.16683 0.37253 0.56819 0.0
C1367 C 0.1502 0.3719 0.56594 0.0
C1368 C 0.01281 0.39823 0.10867 0.0
C1369 C 0.00751 0.40247 0.08492 0.0
C1370 C 0.00604 0.42751 0.10579 0.0
C1371 C 0.01263 0.4241 0.12901 0.0
N1372 N 0.02476 0.40807 0.15202 0.0
N1373 N 0.00074 0.42194 0.05957 0.0
C1374 C 0.01665 0.40991 0.13034 0.0
C1375 C 0.00463 0.41738 0.08309 0.0
N1376 N 0.01409 0.38296 0.11053 0.0
N1377 N 0.00061 0.44007 0.10573 0.0
H1378 H -0.00129 0.41429 0.0428 0.0
H1379 H 0.00057 0.43384 0.05623 0.0
H1380 H 0.00169 0.44788 0.12194 0.0
H1381 H 0.99385 0.44189 0.09034 0.0
H1382 H 0.01583 0.37794 0.12797 0.0
H1383 H 0.01221 0.37449 0.09481 0.0
H1384 H 0.02993 0.39938 0.15318 0.0
H1385 H 0.02765 0.41626 0.16839 0.0
C1386 C 0.603 0.58147 0.0826 0.0
C1387 C 0.60633 0.59948 0.08378 0.0
C1388 C 0.59857 0.59593 0.13008 0.0
C1389 C 0.59599 0.57819 0.12916 0.0
N1390 N 0.59793 0.5547 0.10606 0.0
N1391 N 0.61008 0.62501 0.10876 0.0
C1392 C 0.5989 0.57115 0.10584 0.0
C1393 C 0.60487 0.60704 0.10757 0.0
N1394 N 0.60306 0.57404 0.05909 0.0
N1395 N 0.59463 0.60202 0.15237 0.0
H1396 H 0.61445 0.63348 0.09256 0.0
H1397 H 0.61139 0.63195 0.12597 0.0
H1398 H 0.59085 0.59469 0.16968 0.0
H1399 H 0.59402 0.61385 0.15347 0.0
H1400 H 0.59879 0.56039 0.0564 0.0
H1401 H 0.60623 0.58129 0.04173 0.0
H1402 H 0.60181 0.54961 0.0905 0.0
H1403 H 0.59437 0.54654 0.12257 0.0
C1404 C 0.38528 0.99347 0.10263 0.0
C1405 C 0.39429 0.9953 0.07862 0.0
C1406 C 0.42137 -0.00032 0.10162 0.0
C1407 C 0.41127 0.99492 0.12513 0.0
N1408 N 0.38318 0.98591 0.14823 0.0
N1409 N 0.42083 0.00039 0.05456 0.0
C1410 C 0.3932 0.99172 0.1258 0.0
C1411 C 0.4124 -0.00136 0.07793 0.0
N1412 N 0.36909 0.99318 0.10326 0.0
N1413 N 0.43954 0.00535 0.10211 0.0
H1414 H 0.41508 0.00086 0.03697 0.0
H1415 H 0.43311 0.00062 0.05243 0.0
H1416 H 0.44641 0.00624 0.11925 0.0
H1417 H 0.44815 0.01058 0.08606 0.0
H1418 H 0.36279 0.99374 0.12033 0.0
H1419 H 0.36268 0.99405 0.08665 0.0
H1420 H 0.36925 0.98115 0.14919 0.0
H1421 H 0.38843 0.98454 0.16573 0.0
C1422 C 0.39776 0.97961 0.94127 0.0
C1423 C 0.38626 0.98708 0.9396 0.0
C1424 C 0.38953 0.98888 0.89232 0.0
C1425 C 0.39961 0.97984 0.89378 0.0
N1426 N 0.41177 0.96473 0.91888 0.0
N1427 N 0.36931 0.99699 0.91398 0.0
C1428 C 0.40339 0.97476 0.91808 0.0
C1429 C 0.38159 0.99119 0.91524 0.0
N1430 N 0.40337 0.9773 0.96501 0.0
N1431 N 0.38805 0.99574 0.86914 0.0
H1432 H 0.36364 -0.00059 0.9304 0.0
H1433 H 0.36374 -0.00179 0.89673 0.0
H1434 H 0.39365 0.99428 0.85188 0.0
H1435 H 0.38263 0.00418 0.86727 0.0
H1436 H 0.4133 0.97378 0.96751 0.0
H1437 H 0.39898 0.98013 0.98241 0.0
H1438 H 0.41317 0.95888 0.93572 0.0
H1439 H 0.41625 0.9611 0.90227 0.0
C1440 C 0.00617 0.41851 0.94669 0.0
C1441 C 0.0031 0.40058 0.9472 0.0
C1442 C 0.00713 0.40145 0.90001 0.0
C1443 C 0.00758 0.41824 0.89924 0.0
N1444 N 0.00532 0.4419 0.92145 0.0
N1445 N -0.00189 0.37385 0.92394 0.0
C1446 C 0.00659 0.42661 0.92249 0.0
C1447 C 0.00305 0.39176 0.92377 0.0
N1448 N 0.00926 0.42802 0.9693 0.0
N1449 N 0.01092 0.39491 0.87808 0.0
H1450 H 0.99481 0.36612 0.9408 0.0
H1451 H 0.99575 0.36621 0.90712 0.0
H1452 H 0.01402 0.40168 0.86032 0.0
H1453 H 0.01267 0.38371 0.87805 0.0
H1454 H 0.01337 0.44174 0.96994 0.0
H1455 H 0.00952 0.42269 0.98736 0.0
H1456 H 0.00247 0.4474 0.9376 0.0
H1457 H 0.00563 0.44829 0.9041 0.0
C1458 C 0.58621 0.58925 0.94964 0.0
C1459 C 0.60327 0.60558 0.94711 0.0
C1460 C 0.59902 0.60561 0.90018 0.0
C1461 C 0.58249 0.58873 0.90247 0.0
N1462 N 0.56145 0.56303 0.92826 0.0
N1463 N 0.62764 0.62754 0.91995 0.0
C1464 C 0.57641 0.58009 0.92691 0.0
C1465 C 0.61016 0.61329 0.92236 0.0
N1466 N 0.57905 0.58294 0.97376 0.0
N1467 N 0.60386 0.61451 0.87689 0.0
H1468 H 0.6363 0.63346 0.93574 0.0
H1469 H 0.63416 0.63249 0.90219 0.0
H1470 H 0.59635 0.60912 0.85996 0.0
H1471 H 0.61456 0.6278 0.87468 0.0
H1472 H 0.56584 0.57224 0.97696 0.0
H1473 H 0.58585 0.58927 0.99083 0.0
H1474 H 0.55742 0.55516 0.94503 0.0
H1475 H 0.55376 0.55613 0.91203 0.0
C1476 C 0.98174 0.60349 0.9229 0.0
C1477 C 0.98252 0.59505 0.94614 0.0
C1478 C 0.98335 0.57109 0.92104 0.0
C1479 C 0.98302 0.57979 0.89783 0.0
N1480 N 0.98594 0.60604 0.87619 0.0
N1481 N 0.98822 0.57343 0.96754 0.0
C1482 C 0.98356 0.59661 0.89865 0.0
C1483 C 0.98461 0.57963 0.94526 0.0
N1484 N 0.97822 0.61741 0.92392 0.0
N1485 N 0.98171 0.55435 0.91998 0.0
H1486 H 0.9894 0.5795 0.98557 0.0
H1487 H 0.99169 0.56338 0.96788 0.0
H1488 H 0.9812 0.54785 0.90258 0.0
H1489 H 0.97965 0.54636 0.93627 0.0
H1490 H 0.9753 0.62263 0.90764 0.0
H1491 H 0.97682 0.62291 0.94125 0.0
H1492 H 0.98831 0.61924 0.87571 0.0
H1493 H 0.98716 0.60127 0.85808 0.0
C1494 C 0.37816 0.39116 0.91769 0.0
C1495 C 0.38817 0.3988 0.9408 0.0
C1496 C 0.41183 0.42464 0.91626 0.0
C1497 C 0.40124 0.41754 0.8935 0.0
N1498 N 0.37307 0.39591 0.87293 0.0
N1499 N 0.41281 0.42401 0.96326 0.0
C1500 C 0.38398 0.40137 0.89436 0.0
C1501 C 0.40456 0.41589 0.94043 0.0
N1502 N 0.36363 0.37378 0.91773 0.0
N1503 N 0.42902 0.43945 0.91462 0.0
H1504 H 0.4078 0.41801 0.98132 0.0
H1505 H 0.42371 0.43728 0.96452 0.0
H1506 H 0.43458 0.44652 0.89736 0.0
H1507 H 0.43824 0.44403 0.92989 0.0
H1508 H 0.35712 0.36673 0.90094 0.0
H1509 H 0.359 0.36572 0.93434 0.0
H1510 H 0.35954 0.38538 0.87317 0.0
H1511 H 0.37703 0.40287 0.85532 0.0
C1512 C 0.5807 0.97756 0.94929 0.0
C1513 C 0.59883 0.99244 0.9477 0.0
C1514 C 0.59541 0.9951 0.90103 0.0
C1515 C 0.57673 0.9815 0.90315 0.0
N1516 N 0.55093 0.96055 0.92904 0.0
N1517 N 0.62331 0.01646 0.92299 0.0
C1518 C 0.5692 0.97282 0.9272 0.0
C1519 C 0.60617 0.0015 0.9238 0.0
N1520 N 0.57453 0.96796 0.97191 0.0
N1521 N 0.60293 0.00157 0.8771 0.0
H1522 H 0.63194 0.02109 0.93899 0.0
H1523 H 0.62864 0.02499 0.90698 0.0
H1524 H 0.59544 0.99737 0.85997 0.0
H1525 H 0.61686 0.00999 0.87386 0.0
H1526 H 0.56216 0.95584 0.97366 0.0
H1527 H 0.58237 0.97147 0.98871 0.0
H1528 H 0.54411 0.9552 0.94649 0.0
H1529 H 0.54224 0.95649 0.9131 0.0
C1530 C 0.61755 0.00653 0.10988 0.0
C1531 C 0.60898 0.00505 0.08574 0.0
C1532 C 0.58297 0.00403 0.10813 0.0
C1533 C 0.59206 0.0066 0.13209 0.0
N1534 N 0.61919 0.01352 0.15573 0.0
N1535 N 0.58532 0.00571 0.06119 0.0
C1536 C 0.60975 0.00887 0.13293 0.0
C1537 C 0.59216 0.00472 0.08465 0.0
N1538 N 0.63263 0.00477 0.11095 0.0
N1539 N 0.56539 0.00045 0.1079 0.0
H1540 H 0.59178 0.00643 0.0436 0.0
H1541 H 0.57412 0.00742 0.05918 0.0
H1542 H 0.55841 0.00032 0.12468 0.0
H1543 H 0.55728 0.99638 0.09139 0.0
H1544 H 0.63822 0.00359 0.12821 0.0
H1545 H 0.63874 0.00291 0.09455 0.0
H1546 H 0.63288 0.01733 0.15702 0.0
H1547 H 0.6138 0.01506 0.17313 0.0
C1548 C 0.96779 0.58279 0.09614 0.0
C1549 C 0.98484 0.59563 0.08498 0.0
C1550 C 0.00029 0.58865 0.11905 0.0
C1551 C 0.98349 0.57847 0.13254 0.0
N1552 N 0.95154 0.56912 0.13593 0.0
N1553 N 0.01768 0.61358 0.08969 0.0
C1554 C 0.96727 0.5764 0.12165 0.0
C1555 C 0.00125 0.59929 0.09736 0.0
N1556 N 0.95211 0.57611 0.08213 0.0
N1557 N 0.01527 0.58797 0.12665 0.0
H1558 H 0.0191 0.62264 0.07515 0.0
H1559 H 0.02971 0.61769 0.09984 0.0
H1560 H 0.01494 0.57987 0.14197 0.0
H1561 H 0.02738 0.59388 0.11598 0.0
H1562 H 0.93958 0.5656 0.08878 0.0
H1563 H 0.95202 0.57942 0.06273 0.0
H1564 H 0.93989 0.56901 0.12953 0.0
H1565 H 0.95067 0.56498 0.15513 0.0
C1566 C 0.42066 0.4062 0.0793 0.0
C1567 C 0.40225 0.3917 0.07979 0.0
C1568 C 0.40458 0.38695 0.12622 0.0
C1569 C 0.42281 0.40173 0.12584 0.0
N1570 N 0.44933 0.42384 0.10228 0.0
N1571 N 0.37722 0.36657 0.10227 0.0
C1572 C 0.43122 0.41084 0.10238 0.0
C1573 C 0.39442 0.38146 0.10279 0.0
N1574 N 0.4279 0.41564 0.05677 0.0
N1575 N 0.39683 0.37861 0.14928 0.0
H1576 H 0.3688 0.36279 0.08611 0.0
H1577 H 0.37143 0.35728 0.11735 0.0
H1578 H 0.40415 0.38153 0.16652 0.0
H1579 H 0.38302 0.36933 0.15186 0.0
H1580 H 0.44041 0.42762 0.05543 0.0
H1581 H 0.42108 0.41172 0.03908 0.0
H1582 H 0.45691 0.42998 0.08563 0.0
H1583 H 0.45728 0.42789 0.11899 0.0
C1584 C 0.65628 0.73914 0.41477 0.0
C1585 C 0.65553 0.7222 0.41619 0.0
C1586 C 0.64936 0.72062 0.46288 0.0
C1587 C 0.65186 0.73831 0.46189 0.0
N1588 N 0.65988 0.76552 0.4379 0.0
N1589 N 0.65452 0.69821 0.44201 0.0
C1590 C 0.65592 0.7479 0.43809 0.0
C1591 C 0.65285 0.71326 0.44035 0.0
N1592 N 0.65661 0.74649 0.39112 0.0
N1593 N 0.64331 0.71072 0.48527 0.0
H1594 H 0.65742 0.69255 0.42606 0.0
H1595 H 0.65472 0.69229 0.45952 0.0
H1596 H 0.64082 0.71573 0.50231 0.0
H1597 H 0.63928 0.69703 0.48639 0.0
H1598 H 0.65522 0.75781 0.38872 0.0
H1599 H 0.65673 0.7404 0.37362 0.0
H1600 H 0.66497 0.77391 0.42171 0.0
H1601 H 0.65932 0.77221 0.45453 0.0
C1602 C 0.2744 0.94506 0.43775 0.0
C1603 C 0.26494 0.93698 0.41441 0.0
C1604 C 0.24442 0.90881 0.43771 0.0
C1605 C 0.25458 0.91655 0.46065 0.0
N1606 N 0.28104 0.94062 0.48186 0.0
N1607 N 0.24318 0.91038 0.39085 0.0
C1608 C 0.27015 0.93425 0.46044 0.0
C1609 C 0.25055 0.91861 0.41401 0.0
N1610 N 0.28679 0.96327 0.43859 0.0
N1611 N 0.22868 0.89232 0.43877 0.0
H1612 H 0.24744 0.9171 0.37309 0.0
H1613 H 0.23399 0.89653 0.38894 0.0
H1614 H 0.22406 0.88455 0.45566 0.0
H1615 H 0.21955 0.88686 0.42344 0.0
H1616 H 0.29253 0.97033 0.45569 0.0
H1617 H 0.29025 0.97173 0.42246 0.0
H1618 H 0.29366 0.95257 0.48196 0.0
H1619 H 0.27819 0.93323 0.49903 0.0
C1620 C 0.08534 0.34444 0.41177 0.0
C1621 C 0.06614 0.33681 0.41203 0.0
C1622 C 0.0659 0.33683 0.4596 0.0
C1623 C 0.08518 0.34516 0.45933 0.0
N1624 N 0.11369 0.35939 0.43594 0.0
N1625 N 0.03819 0.32776 0.4355 0.0
C1626 C 0.09504 0.34969 0.4356 0.0
C1627 C 0.05645 0.33371 0.43577 0.0
N1628 N 0.09422 0.3464 0.38874 0.0
N1629 N 0.05659 0.33124 0.48263 0.0
H1630 H 0.03056 0.32435 0.41852 0.0
H1631 H 0.03075 0.32728 0.45187 0.0
H1632 H 0.06303 0.3336 0.50055 0.0
H1633 H 0.04248 0.32317 0.48404 0.0
H1634 H 0.10781 0.34985 0.38733 0.0
H1635 H 0.08772 0.3436 0.37082 0.0
H1636 H 0.12177 0.36479 0.41945 0.0
H1637 H 0.12118 0.36321 0.45308 0.0
C1638 C 0.04997 0.32514 0.24767 0.0
C1639 C 0.05831 0.32601 0.2718 0.0
C1640 C 0.08217 0.32298 0.24958 0.0
C1641 C 0.07302 0.3207 0.22576 0.0
N1642 N 0.0469 0.31686 0.20221 0.0
N1643 N 0.08051 0.32293 0.29657 0.0
C1644 C 0.05651 0.32097 0.22483 0.0
C1645 C 0.07396 0.32421 0.27302 0.0
N1646 N 0.03631 0.3291 0.24641 0.0
N1647 N 0.09888 0.32433 0.2497 0.0
H1648 H 0.07477 0.32362 0.31415 0.0
H1649 H 0.09066 0.31966 0.29878 0.0
H1650 H 0.10507 0.32302 0.23297 0.0
H1651 H 0.10719 0.32804 0.26598 0.0
H1652 H 0.03114 0.33077 0.22907 0.0
H1653 H 0.03115 0.33229 0.26268 0.0
H1654 H 0.03377 0.31478 0.20099 0.0
H1655 H 0.05144 0.3141 0.1849 0.0
C1656 C 0.67489 0.7504 0.2806 0.0
C1657 C 0.66696 0.73129 0.27884 0.0
C1658 C 0.66873 0.73318 0.2314 0.0
C1659 C 0.6777 0.75238 0.23318 0.0
N1660 N 0.69186 0.77962 0.25902 0.0
N1661 N 0.65885 0.7046 0.25325 0.0
C1662 C 0.68148 0.76111 0.25769 0.0
C1663 C 0.66471 0.72272 0.25443 0.0
N1664 N 0.67592 0.75827 0.30416 0.0
N1665 N 0.66334 0.72491 0.20773 0.0
H1666 H 0.65522 0.69634 0.26962 0.0
H1667 H 0.65889 0.69798 0.23629 0.0
H1668 H 0.66601 0.73207 0.19036 0.0
H1669 H 0.65493 0.71096 0.20535 0.0
H1670 H 0.67956 0.77179 0.30644 0.0
H1671 H 0.67211 0.75098 0.32151 0.0
H1672 H 0.69677 0.78678 0.27629 0.0
H1673 H 0.69679 0.78785 0.2426 0.0
C1674 C 0.26873 0.95347 0.25274 0.0
C1675 C 0.26187 0.94501 0.27715 0.0
C1676 C 0.23558 0.91962 0.25583 0.0
C1677 C 0.24184 0.92871 0.23171 0.0
N1678 N 0.26222 0.95577 0.20771 0.0
N1679 N 0.23721 0.92191 0.30274 0.0
C1680 C 0.25775 0.94613 0.23035 0.0
C1681 C 0.24484 0.92859 0.27895 0.0
N1682 N 0.28611 0.96793 0.25068 0.0
N1683 N 0.22114 0.90222 0.25652 0.0
H1684 H 0.24347 0.92826 0.3201 0.0
H1685 H 0.224 0.91104 0.30529 0.0
H1686 H 0.21381 0.89536 0.24003 0.0
H1687 H 0.21724 0.89413 0.27307 0.0
H1688 H 0.29253 0.97335 0.23299 0.0
H1689 H 0.29484 0.9735 0.26646 0.0
H1690 H 0.27254 0.96931 0.20628 0.0
H1691 H 0.25455 0.95078 0.19082 0.0
C1692 C 0.68642 0.93075 0.27584 0.0
C1693 C 0.67657 0.94006 0.27523 0.0
C1694 C 0.67623 0.93919 0.2277 0.0
C1695 C 0.68619 0.93 0.22833 0.0
N1696 N 0.70364 0.91982 0.25193 0.0
N1697 N 0.66473 0.95597 0.25122 0.0
C1698 C 0.69219 0.92665 0.25213 0.0
C1699 C 0.6724 0.94527 0.25132 0.0
N1700 N 0.68995 0.92557 0.29913 0.0
N1701 N 0.66978 0.94139 0.20458 0.0
H1702 H 0.66105 0.96009 0.2681 0.0
H1703 H 0.66314 0.96187 0.23459 0.0
H1704 H 0.67274 0.9376 0.1868 0.0
H1705 H 0.66058 0.94594 0.20299 0.0
H1706 H 0.69505 0.91687 0.30098 0.0
H1707 H 0.68698 0.92936 0.31693 0.0
H1708 H 0.71001 0.91868 0.26837 0.0
H1709 H 0.70791 0.91647 0.23486 0.0
C1710 C 0.05947 0.71839 0.26086 0.0
C1711 C 0.05889 0.73004 0.28002 0.0
C1712 C 0.07609 0.75629 0.25138 0.0
C1713 C 0.07804 0.74486 0.23328 0.0
N1714 N 0.07289 0.71538 0.22094 0.0
N1715 N 0.06803 0.76014 0.29524 0.0
C1716 C 0.07005 0.72599 0.23805 0.0
C1717 C 0.06744 0.74901 0.27568 0.0
N1718 N 0.04933 0.69998 0.2641 0.0
N1719 N 0.0824 0.77405 0.2452 0.0
H1720 H 0.06185 0.75528 0.31326 0.0
H1721 H 0.07572 0.77424 0.29443 0.0
H1722 H 0.08938 0.77996 0.22798 0.0
H1723 H 0.07969 0.78264 0.25621 0.0
H1724 H 0.04736 0.69064 0.24965 0.0
H1725 H 0.04161 0.69389 0.28072 0.0
H1726 H 0.06953 0.7021 0.22484 0.0
H1727 H 0.07961 0.72015 0.20321 0.0
C1728 C 0.27977 0.33876 0.26258 0.0
C1729 C 0.27111 0.33506 0.28722 0.0
C1730 C 0.24118 0.32238 0.2666 0.0
C1731 C 0.24976 0.32538 0.24196 0.0
N1732 N 0.27671 0.33441 0.21596 0.0
N1733 N 0.24382 0.32131 0.31339 0.0
C1734 C 0.26892 0.33295 0.23981 0.0
C1735 C 0.25186 0.3263 0.28944 0.0
N1736 N 0.29839 0.34847 0.26097 0.0
N1737 N 0.22288 0.31609 0.26807 0.0
H1738 H 0.25129 0.32411 0.33048 0.0
H1739 H 0.22983 0.31326 0.31637 0.0
H1740 H 0.21454 0.3124 0.25177 0.0
H1741 H 0.21606 0.3155 0.28519 0.0
H1742 H 0.30563 0.35361 0.24373 0.0
H1743 H 0.30679 0.35245 0.27721 0.0
H1744 H 0.29018 0.33773 0.21324 0.0
H1745 H 0.26942 0.33123 0.19867 0.0
C1746 C 0.2846 0.34199 0.44849 0.0
C1747 C 0.2812 0.34698 0.42389 0.0
C1748 C 0.26264 0.35817 0.44413 0.0
C1749 C 0.26505 0.35206 0.46852 0.0
N1750 N 0.27567 0.33556 0.49372 0.0
N1751 N 0.26533 0.35756 0.39726 0.0
C1752 C 0.27529 0.34323 0.47066 0.0
C1753 C 0.26971 0.35441 0.4214 0.0
N1754 N 0.29705 0.33647 0.45072 0.0
N1755 N 0.25411 0.36804 0.44287 0.0
H1756 H 0.27065 0.35541 0.38024 0.0
H1757 H 0.25548 0.3611 0.39394 0.0
H1758 H 0.24855 0.37081 0.4591 0.0
H1759 H 0.25364 0.37459 0.42617 0.0
H1760 H 0.30166 0.33456 0.46842 0.0
H1761 H 0.30389 0.33509 0.43482 0.0
H1762 H 0.2812 0.32723 0.49584 0.0
H1763 H 0.26911 0.33628 0.51046 0.0
C1764 C 0.68334 0.94774 0.43398 0.0
C1765 C 0.6715 0.93652 0.41405 0.0
C1766 C 0.66227 0.90942 0.44062 0.0
C1767 C 0.67476 0.92058 0.45998 0.0
N1768 N 0.69849 0.94999 0.47464 0.0
N1769 N 0.65185 0.90676 0.39622 0.0
C1770 C 0.68571 0.93964 0.45648 0.0
C1771 C 0.66148 0.91736 0.41681 0.0
N1772 N 0.69169 0.96621 0.43186 0.0
N1773 N 0.65105 0.89128 0.44518 0.0
H1774 H 0.65113 0.91213 0.37843 0.0
H1775 H 0.64577 0.8927 0.3959 0.0
H1776 H 0.6519 0.88485 0.46182 0.0
H1777 H 0.64018 0.88273 0.4333 0.0
H1778 H 0.6986 0.97519 0.44693 0.0
H1779 H 0.69073 0.97268 0.4154 0.0
H1780 H 0.70852 0.96349 0.47177 0.0
H1781 H 0.69984 0.94486 0.49227 0.0
C1782 C 0.08543 0.73955 0.41694 0.0
C1783 C 0.06613 0.72903 0.41909 0.0
C1784 C 0.06827 0.72924 0.46649 0.0
C1785 C 0.08757 0.73919 0.46431 0.0
N1786 N 0.11476 0.75137 0.43806 0.0
N1787 N 0.03914 0.71122 0.44516 0.0
C1788 C 0.09623 0.74364 0.43967 0.0
C1789 C 0.05755 0.72298 0.44365 0.0
N1790 N 0.09339 0.74575 0.39317 0.0
N1791 N 0.06019 0.72648 0.49039 0.0
H1792 H 0.03069 0.70684 0.42899 0.0
H1793 H 0.03237 0.7047 0.46217 0.0
H1794 H 0.06754 0.73064 0.50764 0.0
H1795 H 0.04629 0.72128 0.49317 0.0
H1796 H 0.10715 0.75528 0.39054 0.0
H1797 H 0.08604 0.74203 0.37591 0.0
H1798 H 0.12184 0.75329 0.42073 0.0
H1799 H 0.12305 0.75468 0.45437 0.0
C1800 C 0.32011 0.06974 0.74949 0.0
C1801 C 0.33049 0.06101 0.74989 0.0
C1802 C 0.33769 0.06893 0.79574 0.0
C1803 C 0.32566 0.07584 0.79604 0.0
N1804 N 0.30446 0.08203 0.77418 0.0
N1805 N 0.34803 0.05077 0.77331 0.0
C1806 C 0.31666 0.07611 0.77313 0.0
C1807 C 0.33915 0.06035 0.77293 0.0
N1808 N 0.31401 0.07236 0.72636 0.0
N1809 N 0.34777 0.07066 0.81726 0.0
H1810 H 0.34963 0.04453 0.75691 0.0
H1811 H 0.35277 0.04791 0.79016 0.0
H1812 H 0.34662 0.07634 0.83459 0.0
H1813 H 0.35824 0.06774 0.81748 0.0
H1814 H 0.30791 0.08018 0.72428 0.0
H1815 H 0.31645 0.06797 0.70869 0.0
H1816 H 0.29582 0.08058 0.75901 0.0
H1817 H 0.30218 0.0875 0.79091 0.0
C1818 C 0.9229 0.24811 0.75659 0.0
C1819 C 0.93659 0.26674 0.75542 0.0
C1820 C 0.94097 0.26698 0.8024 0.0
C1821 C 0.92577 0.24909 0.80389 0.0
N1822 N 0.90086 0.22309 0.7831 0.0
N1823 N 0.95721 0.29472 0.77742 0.0
C1824 C 0.91638 0.23973 0.78115 0.0
C1825 C 0.94538 0.27639 0.77835 0.0
N1826 N 0.91656 0.2383 0.73419 0.0
N1827 N 0.95135 0.27487 0.82392 0.0
H1828 H 0.96088 0.30216 0.76025 0.0
H1829 H 0.96232 0.30282 0.79388 0.0
H1830 H 0.94841 0.26845 0.84194 0.0
H1831 H 0.96372 0.28709 0.82346 0.0
H1832 H 0.90794 0.22428 0.73381 0.0
H1833 H 0.92128 0.24394 0.71586 0.0
H1834 H 0.89225 0.21652 0.76753 0.0
H1835 H 0.89581 0.21639 0.80073 0.0
C1836 C 0.72548 0.67293 0.77052 0.0
C1837 C 0.73432 0.67569 0.74614 0.0
C1838 C 0.76418 0.69169 0.76727 0.0
C1839 C 0.75529 0.68716 0.79176 0.0
N1840 N 0.72765 0.67178 0.81725 0.0
N1841 N 0.76178 0.68658 0.72073 0.0
C1842 C 0.73597 0.67745 0.79356 0.0
C1843 C 0.75362 0.68481 0.74433 0.0
N1844 N 0.70704 0.66596 0.77163 0.0
N1845 N 0.78269 0.70288 0.76601 0.0
H1846 H 0.75451 0.6825 0.70341 0.0
H1847 H 0.7756 0.69115 0.71836 0.0
H1848 H 0.79079 0.70804 0.7825 0.0
H1849 H 0.78989 0.7082 0.7488 0.0
H1850 H 0.70007 0.6655 0.78854 0.0
H1851 H 0.69877 0.66186 0.75525 0.0
H1852 H 0.71373 0.66282 0.81967 0.0
H1853 H 0.73481 0.67493 0.83465 0.0
C1854 C 0.71875 0.66294 0.58407 0.0
C1855 C 0.72173 0.65678 0.60802 0.0
C1856 C 0.73679 0.64263 0.58549 0.0
C1857 C 0.73483 0.64979 0.56175 0.0
N1858 N 0.72661 0.66899 0.53848 0.0
N1859 N 0.73557 0.64306 0.63255 0.0
C1860 C 0.7266 0.66064 0.56106 0.0
C1861 C 0.73131 0.64725 0.60903 0.0
N1862 N 0.70778 0.67032 0.5832 0.0
N1863 N 0.74347 0.63109 0.58538 0.0
H1864 H 0.73161 0.64612 0.65014 0.0
H1865 H 0.74414 0.6378 0.63479 0.0
H1866 H 0.74803 0.6278 0.56855 0.0
H1867 H 0.7434 0.62381 0.60156 0.0
H1868 H 0.70342 0.67324 0.56604 0.0
H1869 H 0.70176 0.67219 0.59968 0.0
H1870 H 0.72271 0.6787 0.53738 0.0
H1871 H 0.73183 0.66728 0.52104 0.0
C1872 C 0.33906 0.05995 0.58895 0.0
C1873 C 0.33943 0.06832 0.61294 0.0
C1874 C 0.34887 0.09706 0.59058 0.0
C1875 C 0.34941 0.08893 0.56683 0.0
N1876 N 0.34874 0.06398 0.54394 0.0
N1877 N 0.34809 0.0955 0.63757 0.0
C1878 C 0.34568 0.07078 0.56621 0.0
C1879 C 0.34535 0.0871 0.61404 0.0
N1880 N 0.33146 0.04153 0.58759 0.0
N1881 N 0.35108 0.11405 0.59058 0.0
H1882 H 0.34584 0.08865 0.65515 0.0
H1883 H 0.35414 0.1095 0.63974 0.0
H1884 H 0.35399 0.12187 0.57382 0.0
H1885 H 0.34875 0.11989 0.60679 0.0
H1886 H 0.32887 0.03445 0.57018 0.0
H1887 H 0.32627 0.03304 0.60371 0.0
H1888 H 0.34814 0.05152 0.54303 0.0
H1889 H 0.35348 0.07148 0.52684 0.0
C1890 C 0.9135 0.25832 0.61195 0.0
C1891 C 0.93232 0.26489 0.61587 0.0
C1892 C 0.93411 0.25159 0.57451 0.0
C1893 C 0.91557 0.24604 0.56979 0.0
N1894 N 0.88782 0.24516 0.5824 0.0
N1895 N 0.96119 0.26958 0.60029 0.0
C1896 C 0.90532 0.24973 0.58806 0.0
C1897 C 0.94277 0.26187 0.59709 0.0
N1898 N 0.90331 0.25959 0.63157 0.0
N1899 N 0.94344 0.24699 0.55735 0.0
H1900 H 0.96801 0.27674 0.61686 0.0
H1901 H 0.97003 0.26997 0.58595 0.0
H1902 H 0.9382 0.24083 0.53951 0.0
H1903 H 0.95605 0.24836 0.56125 0.0
H1904 H 0.88918 0.25347 0.63114 0.0
H1905 H 0.90884 0.26564 0.64938 0.0
H1906 H 0.88031 0.24937 0.59329 0.0
H1907 H 0.88103 0.2379 0.56583 0.0
C1908 C 0.34251 0.25663 0.60768 0.0
C1909 C 0.33508 0.26817 0.6063 0.0
C1910 C 0.33783 0.26916 0.55891 0.0
C1911 C 0.34622 0.25848 0.56039 0.0
N1912 N 0.3591 0.2442 0.58578 0.0
N1913 N 0.32797 0.28762 0.58147 0.0
C1914 C 0.34927 0.25279 0.58469 0.0
C1915 C 0.33351 0.27517 0.58215 0.0
N1916 N 0.34292 0.24921 0.63094 0.0
N1917 N 0.33332 0.27292 0.53525 0.0
H1918 H 0.32395 0.29179 0.59796 0.0
H1919 H 0.32857 0.29482 0.56489 0.0
H1920 H 0.33636 0.26888 0.51773 0.0
H1921 H 0.32532 0.27882 0.53289 0.0
H1922 H 0.34613 0.23905 0.63285 0.0
H1923 H 0.339 0.25247 0.6484 0.0
H1924 H 0.3635 0.24137 0.60298 0.0
H1925 H 0.36411 0.24105 0.56928 0.0
C1926 C 0.70607 0.0611 0.58295 0.0
C1927 C 0.71561 0.06831 0.60651 0.0
C1928 C 0.73993 0.09437 0.5831 0.0
C1929 C 0.72982 0.08771 0.55987 0.0
N1930 N 0.70181 0.06682 0.53828 0.0
N1931 N 0.73965 0.09335 0.63011 0.0
C1932 C 0.7124 0.07171 0.56001 0.0
C1933 C 0.73201 0.0854 0.60692 0.0
N1934 N 0.69154 0.04374 0.58215 0.0
N1935 N 0.75732 0.1089 0.58228 0.0
H1936 H 0.73409 0.08729 0.64797 0.0
H1937 H 0.75053 0.1066 0.63178 0.0
H1938 H 0.76346 0.11602 0.56526 0.0
H1939 H 0.76614 0.11308 0.59803 0.0
H1940 H 0.68537 0.03704 0.56499 0.0
H1941 H 0.68661 0.03535 0.59841 0.0
H1942 H 0.68823 0.05639 0.53801 0.0
H1943 H 0.70606 0.07423 0.52105 0.0
C1944 C 0.94301 0.67738 0.59221 0.0
C1945 C 0.93434 0.6689 0.61588 0.0
C1946 C 0.90499 0.65146 0.59368 0.0
C1947 C 0.91344 0.66078 0.57036 0.0
N1948 N 0.93978 0.68403 0.54752 0.0
N1949 N 0.90704 0.64971 0.64046 0.0
C1950 C 0.93227 0.67417 0.56966 0.0
C1951 C 0.9153 0.6564 0.61699 0.0
N1952 N 0.9616 0.68801 0.59114 0.0
N1953 N 0.88722 0.63765 0.59337 0.0
H1954 H 0.91424 0.65288 0.65784 0.0
H1955 H 0.89298 0.64207 0.64308 0.0
H1956 H 0.87912 0.63407 0.57681 0.0
H1957 H 0.88077 0.62895 0.60894 0.0
H1958 H 0.96899 0.69289 0.57397 0.0
H1959 H 0.96989 0.69098 0.60739 0.0
H1960 H 0.95282 0.6954 0.54658 0.0
H1961 H 0.93256 0.68162 0.53027 0.0
C1962 C 0.94948 0.67192 0.77673 0.0
C1963 C 0.94223 0.67202 0.75208 0.0
C1964 C 0.91945 0.67757 0.77266 0.0
C1965 C 0.92774 0.67902 0.797 0.0
N1966 N 0.95214 0.68026 0.82214 0.0
N1967 N 0.92229 0.6777 0.72581 0.0
C1968 C 0.9432 0.67697 0.79902 0.0
C1969 C 0.92768 0.67552 0.7498 0.0
N1970 N 0.96183 0.66627 0.77896 0.0
N1971 N 0.90352 0.67778 0.77148 0.0
H1972 H 0.9281 0.67649 0.70861 0.0
H1973 H 0.91314 0.68221 0.72293 0.0
H1974 H 0.89734 0.67966 0.78778 0.0
H1975 H 0.89571 0.67475 0.75475 0.0
H1976 H 0.96612 0.66398 0.79668 0.0
H1977 H 0.96663 0.66226 0.76311 0.0
H1978 H 0.96468 0.68103 0.82414 0.0
H1979 H 0.94778 0.68366 0.83906 0.0
C1980 C 0.33046 0.27366 0.76828 0.0
C1981 C 0.32293 0.2643 0.74472 0.0
C1982 C 0.30925 0.23507 0.76734 0.0
C1983 C 0.31768 0.24441 0.7906 0.0
N1984 N 0.33818 0.27217 0.81304 0.0
N1985 N 0.30726 0.23641 0.72049 0.0
C1986 C 0.32887 0.2636 0.791 0.0
C1987 C 0.31289 0.24506 0.74386 0.0
N1988 N 0.33852 0.29216 0.7691 0.0
N1989 N 0.2975 0.21672 0.76788 0.0
H1990 H 0.30951 0.24335 0.70299 0.0
H1991 H 0.30153 0.22248 0.71807 0.0
H1992 H 0.29501 0.20892 0.78457 0.0
H1993 H 0.28933 0.20934 0.75234 0.0
H1994 H 0.3425 0.2997 0.78617 0.0
H1995 H 0.34004 0.29999 0.75279 0.0
H1996 H 0.34819 0.28584 0.81377 0.0
H1997 H 0.33684 0.26536 0.8304 0.0
C1998 C 0.74819 0.08054 0.74305 0.0
C1999 C 0.73004 0.06563 0.74441 0.0
C2000 C 0.73454 0.0607 0.78993 0.0
C2001 C 0.75177 0.07692 0.78939 0.0
N2002 N 0.77472 0.10323 0.76646 0.0
N2003 N 0.705 0.04277 0.76985 0.0
C2004 C 0.75858 0.08708 0.76619 0.0
C2005 C 0.723 0.05591 0.76797 0.0
N2006 N 0.75568 0.08803 0.71951 0.0
N2007 N 0.72927 0.04983 0.81142 0.0
H2008 H 0.69601 0.03888 0.75433 0.0
H2009 H 0.69856 0.03675 0.78728 0.0
H2010 H 0.73721 0.0531 0.82809 0.0
H2011 H 0.71779 0.03687 0.81197 0.0
H2012 H 0.76939 0.09771 0.71687 0.0
H2013 H 0.74856 0.08339 0.70213 0.0
H2014 H 0.77939 0.11233 0.75102 0.0
H2015 H 0.78297 0.10811 0.78285 0.0
C2016 C 0.05225 0.35933 0.06856 0.0
C2017 C 0.04593 0.35493 0.04271 0.0
C2018 C 0.06396 0.34016 0.0364 0.0
C2019 C 0.0681 0.34233 0.06323 0.0
N2020 N 0.06482 0.35237 0.10573 0.0
N2021 N 0.04465 0.34032 0.00207 0.0
C2022 C 0.06201 0.35162 0.07954 0.0
C2023 C 0.05166 0.34531 0.02647 0.0
N2024 N 0.04927 0.37126 0.08241 0.0
N2025 N 0.07191 0.3333 0.0205 0.0
H2026 H 0.03579 0.34403 0.99408 0.0
H2027 H 0.04664 0.33154 0.99032 0.0
H2028 H 0.08083 0.32929 0.02735 0.0
H2029 H 0.07088 0.33296 0.00037 0.0
H2030 H 0.0551 0.37644 0.10042 0.0
H2031 H 0.04241 0.37742 0.07479 0.0
H2032 H 0.05875 0.35696 0.11892 0.0
H2033 H 0.07215 0.34715 0.11464 0.0
C2034 C 0.64305 0.70436 0.03343 0.0
C2035 C 0.64173 0.68924 0.04679 0.0
C2036 C 0.65881 0.70883 0.08334 0.0
C2037 C 0.6588 0.7236 0.07092 0.0
N2038 N 0.64932 0.73537 0.03581 0.0
N2039 N 0.6457 0.67627 0.08594 0.0
C2040 C 0.65045 0.72135 0.04641 0.0
C2041 C 0.64897 0.69126 0.07212 0.0
N2042 N 0.63791 0.70263 0.00803 0.0
N2043 N 0.66846 0.71166 0.10571 0.0
H2044 H 0.63853 0.66314 0.07848 0.0
H2045 H 0.64872 0.67659 0.10554 0.0
H2046 H 0.67536 0.72419 0.11506 0.0
H2047 H 0.6708 0.70195 0.11402 0.0
H2048 H 0.64031 0.71354 0.99635 0.0
H2049 H 0.63251 0.69042 -0.00212 0.0
H2050 H 0.64162 0.73404 0.01946 0.0
H2051 H 0.65512 0.74817 0.04441 0.0
C2052 C 0.30366 0.95375 0.06836 0.0
C2053 C 0.30473 0.95084 0.04145 0.0
C2054 C 0.27138 0.93209 0.03923 0.0
C2055 C 0.27049 0.9336 0.06651 0.0
N2056 N 0.28548 0.94419 0.10777 0.0
N2057 N 0.29018 0.93667 0.00115 0.0
C2058 C 0.28654 0.94411 0.08127 0.0
C2059 C 0.28873 0.93986 0.02681 0.0
N2060 N 0.31903 0.96573 0.08156 0.0
N2061 N 0.25561 0.92354 0.02523 0.0
H2062 H 0.30257 0.94293 0.99109 0.0
H2063 H 0.27934 0.92717 0.99004 0.0
H2064 H 0.24272 0.91756 0.03385 0.0
H2065 H 0.25518 0.92347 0.00507 0.0
H2066 H 0.3189 0.97014 0.10036 0.0
H2067 H 0.33198 0.97228 0.07317 0.0
H2068 H 0.29679 0.94971 0.11986 0.0
H2069 H 0.27318 0.93762 0.118 0.0
C2070 C 0.35428 0.04367 0.95209 0.0
C2071 C 0.35354 0.04135 0.97934 0.0
C2072 C 0.34486 0.06449 0.98453 0.0
C2073 C 0.34295 0.06468 0.95724 0.0
N2074 N 0.34326 0.0524 0.91503 0.0
N2075 N 0.34685 0.04839 0.02187 0.0
C2076 C 0.34707 0.0538 0.94096 0.0
C2077 C 0.34869 0.0516 0.99576 0.0
N2078 N 0.36231 0.03654 0.93686 0.0
N2079 N 0.34325 0.07677 -0.0004 0.0
H2080 H 0.34964 0.03915 0.03078 0.0
H2081 H 0.34136 0.05392 0.03447 0.0
H2082 H 0.34039 0.08632 0.99189 0.0
H2083 H 0.34624 0.07854 0.01931 0.0
H2084 H 0.36484 0.03928 0.91712 0.0
H2085 H 0.36825 0.02948 0.9445 0.0
H2086 H 0.34406 0.04307 0.9029 0.0
H2087 H 0.3377 0.05935 0.90596 0.0
C2088 C 0.943 0.29834 0.0091 0.0
C2089 C 0.95128 0.31408 0.99326 0.0
C2090 C 0.9399 0.29529 0.95413 0.0
C2091 C 0.93292 0.27952 0.96984 0.0
N2092 N 0.92879 0.26553 0.01171 0.0
N2093 N 0.95903 0.32803 0.95097 0.0
C2094 C 0.93467 0.28089 0.99722 0.0
C2095 C 0.95008 0.31269 0.96583 0.0
N2096 N 0.94293 0.30015 0.03546 0.0
N2097 N 0.93646 0.2936 0.92806 0.0
H2098 H 0.96579 0.34108 0.95882 0.0
H2099 H 0.9607 0.32792 0.93098 0.0
H2100 H 0.92957 0.28112 0.91859 0.0
H2101 H 0.9393 0.30445 0.91596 0.0
H2102 H 0.93559 0.28935 0.04811 0.0
H2103 H 0.9493 0.31274 0.04472 0.0
H2104 H 0.93137 0.26558 0.03142 0.0
H2105 H 0.92214 0.25254 0.00366 0.0
C2106 C 0.70491 0.67341 0.97956 0.0
C2107 C 0.69418 0.65463 0.98537 0.0
C2108 C 0.71948 0.65071 0.971 0.0
C2109 C 0.72846 0.66853 0.96054 0.0
N2110 N 0.72745 0.69567 0.95063 0.0
N2111 N 0.69051 0.62466 0.98305 0.0
C2112 C 0.72064 0.67965 0.96378 0.0
C2113 C 0.7013 0.64304 0.98043 0.0
N2114 N 0.70033 0.68538 0.98955 0.0
N2115 N 0.72837 0.6412 0.97216 0.0
H2116 H 0.6769 0.61828 0.98883 0.0
H2117 H 0.69458 0.61561 0.97703 0.0
H2118 H 0.74182 0.64659 0.96589 0.0
H2119 H 0.72306 0.62881 0.98175 0.0
H2120 H 0.70864 0.6994 0.9876 0.0
H2121 H 0.68942 0.68147 0.00235 0.0
H2122 H 0.72098 0.70325 0.95053 0.0
H2123 H 0.73833 0.70045 0.93762 0.0
C2124 C 0.93942 0.65309 0.00376 0.0
C2125 C 0.94276 0.64068 0.99 0.0
C2126 C 0.9328 0.6478 0.94952 0.0
C2127 C 0.92818 0.6592 0.9636 0.0
N2128 N 0.9249 0.6713 0.00419 0.0
N2129 N 0.94067 0.62428 0.95076 0.0
C2130 C 0.93089 0.66148 0.99079 0.0
C2131 C 0.93884 0.63744 0.96316 0.0
N2132 N 0.94468 0.65705 0.02908 0.0
N2133 N 0.93204 0.64739 0.923 0.0
H2134 H 0.94572 0.61684 0.95978 0.0
H2135 H 0.93602 0.61977 0.93205 0.0
H2136 H 0.92746 0.65457 0.91223 0.0
H2137 H 0.93728 0.64108 0.91145 0.0
H2138 H 0.94445 0.66738 0.03948 0.0
H2139 H 0.95045 0.65071 0.03931 0.0
H2140 H 0.92473 0.67199 0.02433 0.0
H2141 H 0.91884 0.6778 0.99516 0.0
C2142 C 0.35086 0.30909 0.94673 0.0
C2143 C 0.35237 0.31078 0.97411 0.0
C2144 C 0.34501 0.27917 0.97752 0.0
C2145 C 0.34122 0.27692 0.95058 0.0
N2146 N 0.33771 0.28892 0.91007 0.0
N2147 N 0.34876 0.29696 0.01614 0.0
C2148 C 0.34342 0.29167 0.93529 0.0
C2149 C 0.34902 0.29573 0.98971 0.0
N2150 N 0.35715 0.32423 0.93158 0.0
N2151 N 0.34504 0.26557 0.99131 0.0
H2152 H 0.35145 0.30879 0.02581 0.0
H2153 H 0.34443 0.28587 0.02844 0.0
H2154 H 0.34205 0.25324 0.98295 0.0
H2155 H 0.34953 0.26706 0.01039 0.0
H2156 H 0.3581 0.324 0.91145 0.0
H2157 H 0.36321 0.33733 0.93921 0.0
H2158 H 0.33707 0.29873 0.89897 0.0
H2159 H 0.33207 0.27636 0.90085 0.0
C2160 C 0.70528 0.05999 0.99411 0.0
C2161 C 0.68934 0.04816 0.9799 0.0
C2162 C 0.70721 0.05576 0.93967 0.0
C2163 C 0.72335 0.06641 0.95417 0.0
N2164 N 0.73839 0.07705 0.9953 0.0
N2165 N 0.67512 0.03277 0.94003 0.0
C2166 C 0.72257 0.06814 0.98145 0.0
C2167 C 0.69031 0.04542 0.95293 0.0
N2168 N 0.70385 0.06351 0.01963 0.0
N2169 N 0.70795 0.05607 0.91315 0.0
H2170 H 0.66234 0.02537 0.94884 0.0
H2171 H 0.67538 0.02862 0.92111 0.0
H2172 H 0.72006 0.06349 0.90268 0.0
H2173 H 0.69645 0.05025 0.90141 0.0
H2174 H 0.71461 0.07352 0.03033 0.0
H2175 H 0.69151 0.05717 0.02981 0.0
H2176 H 0.73887 0.07715 0.01547 0.0
H2177 H 0.75126 0.08334 0.9866 0.0
C2178 C 0.65158 0.95813 0.07468 0.0
C2179 C 0.65051 0.9591 0.04735 0.0
C2180 C 0.65917 0.93592 0.04225 0.0
C2181 C 0.66249 0.93678 0.06929 0.0
N2182 N 0.66491 0.95108 0.11076 0.0
N2183 N 0.65538 0.95063 0.00465 0.0
C2184 C 0.6595 0.94852 0.08541 0.0
C2185 C 0.65474 0.94835 0.03094 0.0
N2186 N 0.64441 0.96586 0.09047 0.0
N2187 N 0.65995 0.92302 0.02751 0.0
H2188 H 0.65238 0.95969 0.99565 0.0
H2189 H 0.66031 0.94464 0.99188 0.0
H2190 H 0.66326 0.9138 0.03521 0.0
H2191 H 0.65585 0.92046 0.00822 0.0
H2192 H 0.64316 0.96399 0.11049 0.0
H2193 H 0.63793 0.97252 0.08337 0.0
H2194 H 0.66491 0.96101 0.12253 0.0
H2195 H 0.67098 0.94449 0.11947 0.0
C2196 C 0.03551 0.69626 0.05151 0.0
C2197 C 0.03809 0.68204 0.04241 0.0
C2198 C 0.07062 0.70075 0.05238 0.0
C2199 C 0.06713 0.713 0.06634 0.0
N2200 N 0.04499 0.72042 0.08277 0.0
N2201 N 0.05817 0.66977 0.03829 0.0
C2202 C 0.04926 0.71035 0.06674 0.0
C2203 C 0.05572 0.68405 0.0436 0.0
N2204 N 0.0201 0.69656 0.04522 0.0
N2205 N 0.08816 0.70507 0.04752 0.0
H2206 H 0.04762 0.65688 0.03334 0.0
H2207 H 0.07046 0.67022 0.04153 0.0
H2208 H 0.09938 0.71739 0.05328 0.0
H2209 H 0.09145 0.69734 0.03545 0.0
H2210 H 0.01833 0.70747 0.04962 0.0
H2211 H 0.01013 0.68697 0.03296 0.0
H2212 H 0.03166 0.71761 0.08554 0.0
H2213 H 0.05431 0.73033 0.09529 0.0
C2214 C 0.2957 0.35406 0.03729 0.0
C2215 C 0.31118 0.35525 0.04953 0.0
C2216 C 0.293 0.34036 0.08845 0.0
C2217 C 0.2775 0.339 0.07609 0.0
N2218 N 0.26295 0.34192 0.03806 0.0
N2219 N 0.32448 0.34776 0.08509 0.0
C2220 C 0.27852 0.34506 0.05025 0.0
C2221 C 0.30976 0.34775 0.07457 0.0
N2222 N 0.29755 0.36176 0.01341 0.0
N2223 N 0.29179 0.33514 0.1138 0.0
H2224 H 0.33732 0.3541 0.07637 0.0
H2225 H 0.32388 0.34066 0.10177 0.0
H2226 H 0.27957 0.32887 0.12425 0.0
H2227 H 0.30296 0.3378 0.12511 0.0
H2228 H 0.28749 0.36334 0.00462 0.0
H2229 H 0.3096 0.36737 0.00259 0.0
H2230 H 0.26224 0.34429 0.01845 0.0
H2231 H 0.25025 0.33576 0.04725 0.0
C2232 C 0.69293 0.65886 0.38057 0.0
C2233 C 0.70046 0.67732 0.37341 0.0
C2234 C 0.73088 0.68262 0.38366 0.0
C2235 C 0.72284 0.66525 0.39548 0.0
N2236 N 0.69527 0.63827 0.40988 0.0
N2237 N 0.72684 0.70772 0.37234 0.0
C2238 C 0.7036 0.65368 0.39514 0.0
C2239 C 0.71955 0.68949 0.37582 0.0
N2240 N 0.67576 0.64612 0.37292 0.0
N2241 N 0.7493 0.69246 0.37969 0.0
H2242 H 0.71908 0.71363 0.36799 0.0
H2243 H 0.74039 0.71721 0.37649 0.0
H2244 H 0.75792 0.68762 0.3847 0.0
H2245 H 0.75566 0.70448 0.36904 0.0
H2246 H 0.67033 0.63225 0.37592 0.0
H2247 H 0.66787 0.64914 0.36085 0.0
H2248 H 0.68115 0.63045 0.41203 0.0
H2249 H 0.70232 0.63437 0.42221 0.0
C2250 C 0.30648 0.02897 0.40463 0.0
C2251 C 0.30802 0.0278 0.37738 0.0
C2252 C 0.32993 0.0605 0.37503 0.0
C2253 C 0.32748 0.06184 0.40202 0.0
N2254 N 0.31217 0.04809 0.44234 0.0
N2255 N 0.31926 0.04219 0.3359 0.0
C2256 C 0.31536 0.04628 0.41677 0.0
C2257 C 0.31926 0.0435 0.36234 0.0
N2258 N 0.29714 0.01345 0.41904 0.0
N2259 N 0.34266 0.07544 0.36169 0.0
H2260 H 0.31177 0.02989 0.32607 0.0
H2261 H 0.32562 0.05332 0.32354 0.0
H2262 H 0.35019 0.08823 0.3702 0.0
H2263 H 0.34662 0.07504 0.34269 0.0
H2264 H 0.2973 0.01317 0.43921 0.0
H2265 H 0.29022 0.00052 0.41084 0.0
H2266 H 0.30186 0.03773 0.45332 0.0
H2267 H 0.31907 0.06036 0.45238 0.0
C2268 C 0.97416 0.29053 0.39908 0.0
C2269 C 0.97671 0.28632 0.3733 0.0
C2270 C 0.94566 0.25986 0.37311 0.0
C2271 C 0.94424 0.26257 0.39993 0.0
N2272 N 0.95625 0.28034 0.43882 0.0
N2273 N 0.96496 0.26817 0.3347 0.0
C2274 C 0.95812 0.27807 0.41291 0.0
C2275 C 0.96235 0.27142 0.35989 0.0
N2276 N 0.98717 0.30628 0.41043 0.0
N2277 N 0.93101 0.24621 0.36045 0.0
H2278 H 0.97649 0.27713 0.32396 0.0
H2279 H 0.95607 0.25649 0.32448 0.0
H2280 H 0.91873 0.23745 0.36982 0.0
H2281 H 0.93042 0.24421 0.3405 0.0
H2282 H 0.98543 0.3111 0.42812 0.0
H2283 H -0.00057 0.31538 0.40139 0.0
H2284 H 0.96666 0.28992 0.45043 0.0
H2285 H 0.94431 0.27201 0.44922 0.0
C2286 C 0.02822 0.38301 0.28309 0.0
C2287 C 0.02751 0.38084 0.31044 0.0
C2288 C 0.02745 0.40934 0.31589 0.0
C2289 C 0.02666 0.41062 0.28857 0.0
N2290 N 0.02225 0.39672 0.24637 0.0
N2291 N 0.02331 0.39013 0.3529 0.0
C2292 C 0.02577 0.39682 0.27224 0.0
C2293 C 0.02627 0.39353 0.3269 0.0
N2294 N 0.03231 0.37259 0.26747 0.0
N2295 N 0.02981 0.42343 0.33121 0.0
H2296 H 0.02212 0.37857 0.36156 0.0
H2297 H 0.02045 0.3979 0.36551 0.0
H2298 H 0.03039 0.43504 0.32377 0.0
H2299 H 0.03251 0.42422 0.35099 0.0
H2300 H 0.03494 0.37494 0.24767 0.0
H2301 H 0.035 0.36279 0.27457 0.0
H2302 H 0.01949 0.38592 0.23411 0.0
H2303 H 0.02035 0.4066 0.23759 0.0
C2304 C 0.60056 0.6249 0.32874 0.0
C2305 C 0.61121 0.64095 0.31404 0.0
C2306 C 0.6069 0.62286 0.27508 0.0
C2307 C 0.59544 0.60693 0.28928 0.0
N2308 N 0.57873 0.59249 0.32831 0.0
N2309 N 0.62194 0.65572 0.27262 0.0
C2310 C 0.59151 0.60783 0.31581 0.0
C2311 C 0.61367 0.6401 0.28696 0.0
N2312 N 0.59952 0.62597 0.3551 0.0
N2313 N 0.61159 0.62088 0.25048 0.0
H2314 H 0.627 0.66854 0.28085 0.0
H2315 H 0.62237 0.65599 0.25245 0.0
H2316 H 0.621 0.63148 0.2388 0.0
H2317 H 0.621 0.63148 0.2388 0.0
H2318 H 0.59366 0.61469 0.36725 0.0
H2319 H 0.60565 0.63829 0.36509 0.0
H2320 H 0.57389 0.59249 0.3469 0.0
H2321 H 0.57183 0.57985 0.31924 0.0
C2322 C 0.36371 0.99303 0.30476 0.0
C2323 C 0.34977 0.97653 0.31576 0.0
C2324 C 0.36842 0.96278 0.3068 0.0
C2325 C 0.38029 0.9779 0.29124 0.0
N2326 N 0.3873 0.00654 0.27204 0.0
N2327 N 0.33766 0.94434 0.32276 0.0
C2328 C 0.37753 0.9929 0.28941 0.0
C2329 C 0.35184 0.96104 0.3159 0.0
N2330 N 0.36404 0.00893 0.30945 0.0
N2331 N 0.37297 0.95005 0.31287 0.0
H2332 H 0.32474 0.94191 0.32775 0.0
H2333 H 0.33813 0.93247 0.32062 0.0
H2334 H 0.38522 0.95113 0.30688 0.0
H2335 H 0.36555 0.93959 0.32607 0.0
H2336 H 0.37481 0.02152 0.30364 0.0
H2337 H 0.35471 0.00975 0.32174 0.0
H2338 H 0.38436 0.01675 0.26822 0.0
H2339 H 0.3971 0.00676 0.25961 0.0
C2340 C 0.60279 0.96639 0.33308 0.0
C2341 C 0.61205 0.96005 0.31717 0.0
C2342 C 0.60012 0.96654 0.27809 0.0
C2343 C 0.59217 0.97434 0.29391 0.0
N2344 N 0.5867 0.98305 0.33596 0.0
N2345 N 0.62098 0.95513 0.27489 0.0
C2346 C 0.59365 0.97458 0.32131 0.0
C2347 C 0.61102 0.96031 0.28975 0.0
N2348 N 0.60254 0.96429 0.35939 0.0
N2349 N 0.59706 0.96493 0.25192 0.0
H2350 H 0.62849 0.94974 0.28272 0.0
H2351 H 0.62273 0.95709 0.25493 0.0
H2352 H 0.58979 0.97 0.24246 0.0
H2353 H 0.60066 0.95755 0.23968 0.0
H2354 H 0.59462 0.96695 0.37205 0.0
H2355 H 0.60936 0.95861 0.36857 0.0
H2356 H 0.58902 0.98554 0.35573 0.0
H2357 H 0.57936 0.98859 0.328 0.0
C2358 C 0.00512 0.64176 0.2925 0.0
C2359 C 0.0072 0.64456 0.31979 0.0
C2360 C -0.00164 0.61263 0.32633 0.0
C2361 C -0.00336 0.61 0.2991 0.0
N2362 N 0.00037 0.62201 0.2558 0.0
N2363 N 0.00293 0.63239 0.36304 0.0
C2364 C 0.00039 0.62452 0.28207 0.0
C2365 C 0.00315 0.62993 0.33683 0.0
N2366 N 0.00744 0.65553 0.27653 0.0
N2367 N 0.99588 0.59866 0.34199 0.0
H2368 H 0.00591 0.64472 0.37136 0.0
H2369 H -0.00151 0.62203 0.37664 0.0
H2370 H 0.99171 0.58569 0.33494 0.0
H2371 H -0.00118 0.59999 0.36168 0.0
H2372 H 0.00375 0.65382 0.25708 0.0
H2373 H 0.01212 0.66873 0.28283 0.0
H2374 H 0.00525 0.63244 0.24223 0.0
H2375 H -0.00343 0.60953 0.24725 0.0
C2376 C 0.36281 0.39185 0.29247 0.0
C2377 C 0.36182 0.38768 0.31927 0.0
C2378 C 0.39427 0.39709 0.31935 0.0
C2379 C 0.39541 0.40184 0.29277 0.0
N2380 N 0.38171 0.40597 0.2545 0.0
N2381 N 0.37665 0.38874 0.35939 0.0
C2382 C 0.37996 0.39996 0.27951 0.0
C2383 C 0.37758 0.39097 0.33305 0.0
N2384 N 0.34719 0.3872 0.27914 0.0
N2385 N 0.40908 0.39816 0.3313 0.0
H2386 H 0.36463 0.38427 0.36998 0.0
H2387 H 0.38796 0.3926 0.37109 0.0
H2388 H 0.42177 0.40347 0.32226 0.0
H2389 H 0.40863 0.39291 0.34964 0.0
H2390 H 0.34654 0.38771 0.25904 0.0
H2391 H 0.33442 0.38162 0.28802 0.0
H2392 H 0.37166 0.40711 0.24482 0.0
H2393 H 0.39371 0.41093 0.24371 0.0
C2394 C 0.32184 0.29576 0.41029 0.0
C2395 C 0.32157 0.29819 0.38315 0.0
C2396 C 0.33087 0.27567 0.37561 0.0
C2397 C 0.33329 0.27502 0.4027 0.0
N2398 N 0.33412 0.28683 0.44565 0.0
N2399 N 0.32787 0.29221 0.3397 0.0
C2400 C 0.32959 0.2857 0.42002 0.0
C2401 C 0.32651 0.28852 0.36566 0.0
N2402 N 0.31408 0.3025 0.42678 0.0
N2403 N 0.33241 0.26379 0.35951 0.0
H2404 H 0.32488 0.30157 0.33169 0.0
H2405 H 0.33333 0.28708 0.32633 0.0
H2406 H 0.33574 0.25434 0.36621 0.0
H2407 H 0.32895 0.26228 0.33996 0.0
H2408 H 0.31222 0.29956 0.44654 0.0
H2409 H 0.30772 0.30945 0.42032 0.0
H2410 H 0.3336 0.29598 0.45849 0.0
H2411 H 0.34 0.27984 0.45367 0.0
C2412 C 0.70904 0.03796 0.35969 0.0
C2413 C 0.70011 0.02301 0.37698 0.0
C2414 C 0.71114 0.04377 0.41417 0.0
C2415 C 0.72129 0.0585 0.39697 0.0
N2416 N 0.73189 0.06978 0.35385 0.0
N2417 N 0.69499 0.01131 0.42075 0.0
C2418 C 0.72085 0.05564 0.36984 0.0
C2419 C 0.7017 0.02582 0.40425 0.0
N2420 N 0.70556 0.03539 0.33369 0.0
N2421 N 0.71036 0.04696 0.44006 0.0
H2422 H 0.68787 -0.0021 0.41451 0.0
H2423 H 0.69778 0.01247 0.44053 0.0
H2424 H 0.71781 0.05977 0.44849 0.0
H2425 H 0.70132 0.03711 0.45298 0.0
H2426 H 0.71014 0.04596 0.32038 0.0
H2427 H 0.69671 0.02273 0.3256 0.0
H2428 H 0.73378 0.06823 0.33424 0.0
H2429 H 0.7402 0.083 0.3606 0.0
C2430 C 0.96298 0.70186 0.37106 0.0
C2431 C 0.97831 0.70397 0.38485 0.0
C2432 C 0.95931 0.6899 0.42331 0.0
C2433 C 0.94417 0.68862 0.41 0.0
N2434 N 0.93185 0.6958 0.37302 0.0
N2435 N 0.99214 0.7037 0.42535 0.0
C2436 C 0.94609 0.69536 0.38438 0.0
C2437 C 0.97678 0.69905 0.41137 0.0
N2438 N 0.9644 0.70539 0.34503 0.0
N2439 N 0.9569 0.68184 0.44703 0.0
H2440 H 0.00521 0.71068 0.41728 0.0
H2441 H 0.99216 0.70219 0.44538 0.0
H2442 H 0.94438 0.67523 0.45671 0.0
H2443 H 0.96696 0.68045 0.45629 0.0
H2444 H 0.95329 0.70223 0.33325 0.0
H2445 H 0.97661 0.71037 0.33474 0.0
H2446 H 0.93291 0.70224 0.35546 0.0
H2447 H 0.91924 0.69089 0.38216 0.0
C2448 C 0.36165 0.99244 0.71377 0.0
C2449 C 0.37002 0.01093 0.70634 0.0
C2450 C 0.39986 0.01454 0.71602 0.0
C2451 C 0.3911 0.99724 0.72811 0.0
N2452 N 0.36289 0.97131 0.74324 0.0
N2453 N 0.39743 0.04058 0.7045 0.0
C2454 C 0.37177 0.98653 0.7282 0.0
C2455 C 0.38927 0.02229 0.70829 0.0
N2456 N 0.34414 0.98034 0.70656 0.0
N2457 N 0.41825 0.0235 0.7117 0.0
H2458 H 0.39026 0.04711 0.70016 0.0
H2459 H 0.41117 0.04954 0.70834 0.0
H2460 H 0.42633 0.01802 0.71663 0.0
H2461 H 0.42506 0.03541 0.70086 0.0
H2462 H 0.33804 0.96642 0.70976 0.0
H2463 H 0.33658 0.98389 0.69465 0.0
H2464 H 0.34877 0.96416 0.74569 0.0
H2465 H 0.36957 0.96694 0.75552 0.0
C2466 C 0.97639 0.36795 0.69522 0.0
C2467 C 0.9673 0.35214 0.71084 0.0
C2468 C 0.97326 0.37077 0.74983 0.0
C2469 C 0.98324 0.3866 0.73442 0.0
N2470 N -0.00383 0.40073 0.69332 0.0
N2471 N 0.95876 0.33801 0.75296 0.0
C2472 C 0.98534 0.38533 0.70731 0.0
C2473 C 0.96617 0.35342 0.73815 0.0
N2474 N 0.97604 0.36628 0.66881 0.0
N2475 N 0.97029 0.37235 0.77558 0.0
H2476 H 0.95283 0.32501 0.74505 0.0
H2477 H 0.9595 0.33805 0.7731 0.0
H2478 H 0.97596 0.38478 0.78521 0.0
H2479 H 0.96132 0.36149 0.78719 0.0
H2480 H 0.98073 0.37718 0.65606 0.0
H2481 H 0.96989 0.35373 0.65943 0.0
H2482 H -0.0001 0.40072 0.67407 0.0
H2483 H 0.00245 0.41368 0.70148 0.0
C2484 C 0.62782 0.61125 0.70012 0.0
C2485 C 0.6439 0.61723 0.71488 0.0
C2486 C 0.6257 0.60446 0.75439 0.0
C2487 C 0.60968 0.59945 0.73993 0.0
N2488 N 0.59521 0.5997 0.70007 0.0
N2489 N 0.65871 0.62217 0.75628 0.0
C2490 C 0.61066 0.60333 0.71305 0.0
C2491 C 0.643 0.61451 0.74209 0.0
N2492 N 0.62896 0.61258 0.67366 0.0
N2493 N 0.62432 0.59937 0.77983 0.0
H2494 H 0.67166 0.62946 0.74792 0.0
H2495 H 0.65899 0.62254 0.77646 0.0
H2496 H 0.61198 0.59272 0.78993 0.0
H2497 H 0.63523 0.60065 0.79055 0.0
H2498 H 0.61768 0.60675 0.6615 0.0
H2499 H 0.64133 0.61845 0.66358 0.0
H2500 H 0.59522 0.604 0.68122 0.0
H2501 H 0.58233 0.59333 0.70877 0.0
C2502 C 0.67197 0.71175 0.66211 0.0
C2503 C 0.68118 0.70529 0.6463 0.0
C2504 C 0.67788 0.72057 0.60845 0.0
C2505 C 0.66951 0.72783 0.62449 0.0
N2506 N 0.66092 0.73281 0.66695 0.0
N2507 N 0.69642 0.70655 0.60615 0.0
C2508 C 0.66726 0.72417 0.65149 0.0
C2509 C 0.68515 0.71057 0.61994 0.0
N2510 N 0.66713 0.70547 0.68694 0.0
N2511 N 0.67837 0.72275 0.58212 0.0
H2512 H 0.7023 0.69955 0.61414 0.0
H2513 H 0.70137 0.71161 0.58768 0.0
H2514 H 0.67347 0.73024 0.57288 0.0
H2515 H 0.68231 0.71597 0.56922 0.0
H2516 H 0.65866 0.70805 0.69857 0.0
H2517 H 0.67062 0.6966 0.69543 0.0
H2518 H 0.66071 0.73222 0.68711 0.0
H2519 H 0.65707 0.74173 0.65963 0.0
C2520 C 0.27544 0.96278 0.66541 0.0
C2521 C 0.28052 0.97856 0.65046 0.0
C2522 C 0.26677 0.95989 0.61177 0.0
C2523 C 0.2632 0.94428 0.62615 0.0
N2524 N 0.26507 0.93057 0.66585 0.0
N2525 N 0.28315 0.99275 0.60905 0.0
C2526 C 0.26774 0.94563 0.65281 0.0
C2527 C 0.27662 0.97728 0.62357 0.0
N2528 N 0.27758 0.96421 0.69174 0.0
N2529 N 0.26069 0.95806 0.58682 0.0
H2530 H 0.29028 0.00576 0.61698 0.0
H2531 H 0.28275 0.99283 0.58888 0.0
H2532 H 0.25415 0.94568 0.57704 0.0
H2533 H 0.26093 0.96855 0.57633 0.0
H2534 H 0.27253 0.95311 0.70418 0.0
H2535 H 0.28325 0.97659 0.70151 0.0
H2536 H 0.26999 0.93092 0.68439 0.0
H2537 H 0.25874 0.91767 0.65751 0.0
C2538 C 0.02166 0.31699 0.61967 0.0
C2539 C 0.01976 0.31516 0.64708 0.0
C2540 C 0.05163 0.3227 0.65045 0.0
C2541 C 0.05391 0.32635 0.62346 0.0
N2542 N 0.04208 0.33006 0.58298 0.0
N2543 N 0.03371 0.31909 0.68907 0.0
C2544 C 0.0392 0.32435 0.60823 0.0
C2545 C 0.03493 0.31866 0.66266 0.0
N2546 N 0.00662 0.311 0.60435 0.0
N2547 N 0.06533 0.32282 0.66428 0.0
H2548 H 0.02191 0.3167 0.69875 0.0
H2549 H 0.04484 0.32344 0.70132 0.0
H2550 H 0.0778 0.32598 0.65595 0.0
H2551 H 0.06382 0.31839 0.68341 0.0
H2552 H 0.00698 0.30997 0.58425 0.0
H2553 H 0.99344 0.30542 0.61171 0.0
H2554 H 0.03238 0.33097 0.57191 0.0
H2555 H 0.05468 0.33543 0.57364 0.0
C2556 C 0.26806 0.30624 0.66078 0.0
C2557 C 0.28183 0.30532 0.64636 0.0
C2558 C 0.27923 0.32324 0.61145 0.0
C2559 C 0.26441 0.32281 0.62486 0.0
N2560 N 0.24314 0.31233 0.66061 0.0
N2561 N 0.29864 0.31033 0.60641 0.0
C2562 C 0.25836 0.31386 0.64909 0.0
C2563 C 0.28698 0.31319 0.6213 0.0
N2564 N 0.26475 0.30045 0.68598 0.0
N2565 N 0.28608 0.3335 0.58948 0.0
H2566 H 0.3045 0.30292 0.61285 0.0
H2567 H 0.30132 0.31391 0.58692 0.0
H2568 H 0.28047 0.34066 0.58118 0.0
H2569 H 0.29816 0.33608 0.58053 0.0
H2570 H 0.25628 0.3025 0.69842 0.0
H2571 H 0.27164 0.29487 0.69521 0.0
H2572 H 0.23679 0.30424 0.67676 0.0
H2573 H 0.23604 0.31822 0.65292 0.0
C2574 C 0.68408 0.96793 0.6609 0.0
C2575 C 0.68492 0.98161 0.6444 0.0
C2576 C 0.68173 0.96302 0.60635 0.0
C2577 C 0.68327 0.95051 0.62257 0.0
N2578 N 0.68753 0.94156 0.66496 0.0
N2579 N 0.68777 0.99366 0.60115 0.0
C2580 C 0.68482 0.95305 0.64981 0.0
C2581 C 0.68447 0.97951 0.61703 0.0
N2582 N 0.68196 0.96887 0.68705 0.0
N2583 N 0.67746 0.95903 0.58073 0.0
H2584 H 0.69048 0.00626 0.60802 0.0
H2585 H 0.68962 0.99355 0.58118 0.0
H2586 H 0.67546 0.9471 0.57211 0.0
H2587 H 0.67423 0.9667 0.56862 0.0
H2588 H 0.67944 0.95844 0.69983 0.0
H2589 H 0.68108 0.97942 0.69577 0.0
H2590 H 0.69084 0.94387 0.68455 0.0
H2591 H 0.68768 0.93028 0.65751 0.0
C2592 C 0.02704 0.70569 0.6268 0.0
C2593 C 0.02547 0.71017 0.65285 0.0
C2594 C 0.05812 0.7329 0.65354 0.0
C2595 C 0.05981 0.72774 0.62799 0.0
N2596 N 0.04698 0.70692 0.59211 0.0
N2597 N 0.0398 0.72532 0.69277 0.0
C2598 C 0.04459 0.71337 0.61521 0.0
C2599 C 0.04111 0.72301 0.66676 0.0
N2600 N 0.01172 0.6949 0.61263 0.0
N2601 N 0.0726 0.7476 0.66483 0.0
H2602 H 0.02759 0.71814 0.70311 0.0
H2603 H 0.05102 0.7331 0.70456 0.0
H2604 H 0.08538 0.75487 0.65594 0.0
H2605 H 0.07166 0.75334 0.68217 0.0
H2606 H 0.01193 0.69292 0.59272 0.0
H2607 H -0.00145 0.6891 0.62022 0.0
H2608 H 0.0368 0.6952 0.58325 0.0
H2609 H 0.05961 0.71235 0.58285 0.0
C2610 C 0.95258 0.59618 0.70024 0.0
C2611 C 0.96903 0.61307 0.69694 0.0
C2612 C 0.98635 0.59763 0.70393 0.0
C2613 C 0.97014 0.58228 0.71307 0.0
N2614 N 0.93999 0.56403 0.69569 0.0
N2615 N 0.00176 0.62926 0.69085 0.0
C2616 C 0.95358 0.58039 0.70432 0.0
C2617 C 0.98603 0.61359 0.69702 0.0
N2618 N 0.93601 0.59507 0.7007 0.0
N2619 N 0.00132 0.5961 0.69942 0.0
H2620 H 0.00188 0.64065 0.68342 0.0
H2621 H 0.01469 0.63112 0.69368 0.0
H2622 H 0.00085 0.58377 0.70209 0.0
H2623 H 0.01326 0.60616 0.69073 0.0
H2624 H 0.92401 0.583 0.70515 0.0
H2625 H 0.93438 0.6063 0.69904 0.0
H2626 H 0.92814 0.56234 0.68718 0.0
H2627 H 0.94209 0.55309 0.69336 0.0
C2628 C 0.37973 0.35434 0.73159 0.0
C2629 C 0.37373 0.35314 0.70571 0.0
C2630 C 0.39266 0.38618 0.70114 0.0
C2631 C 0.39645 0.38749 0.72806 0.0
N2632 N 0.39236 0.37308 0.76977 0.0
N2633 N 0.37355 0.36757 0.66574 0.0
C2634 C 0.3898 0.37163 0.7435 0.0
C2635 C 0.38012 0.36895 0.69029 0.0
N2636 N 0.37609 0.33893 0.74455 0.0
N2637 N 0.40119 0.40139 0.68603 0.0
H2638 H 0.36464 0.35515 0.65705 0.0
H2639 H 0.37602 0.37871 0.65455 0.0
H2640 H 0.41035 0.41418 0.69356 0.0
H2641 H 0.4004 0.40118 0.66588 0.0
H2642 H 0.3816 0.339 0.76256 0.0
H2643 H 0.369 0.32607 0.73614 0.0
H2644 H 0.38594 0.36208 0.78238 0.0
H2645 H 0.39986 0.38547 0.77935 0.0
C2646 C 0.6221 0.02281 0.70225 0.0
C2647 C 0.63782 0.02457 0.71445 0.0
C2648 C 0.61934 0.00715 0.7518 0.0
C2649 C 0.60401 0.00689 0.7407 0.0
N2650 N 0.59084 0.01598 0.70698 0.0
N2651 N 0.65219 0.021 0.75234 0.0
C2652 C 0.60539 0.01514 0.71633 0.0
C2653 C 0.63665 0.01735 0.73959 0.0
N2654 N 0.62302 0.02789 0.6769 0.0
N2655 N 0.61729 0.99741 0.77384 0.0
H2656 H 0.66514 0.02856 0.74413 0.0
H2657 H 0.65245 0.01791 0.77178 0.0
H2658 H 0.60491 0.99012 0.78376 0.0
H2659 H 0.62746 0.99536 0.78121 0.0
H2660 H 0.61165 0.02522 0.66604 0.0
H2661 H 0.63501 0.03345 0.66595 0.0
H2662 H 0.59157 0.02357 0.6908 0.0
H2663 H 0.57826 0.01006 0.71648 0.0
loop_
_geom_bond_atom_site_label_1
_geom_bond_atom_site_label_2
_geom_bond_distance
_geom_bond_site_symmetry_2
_ccdc_geom_bond_type
C0 O1 1.306 1_556 S
C0 O3 1.160 . S
O1 C0 1.306 1_554 S
O1 Cd2 2.228 . S
Cd2 O1 2.228 . S
Cd2 O6 2.273 . S
Cd2 O10 2.277 1_554 S
O3 C0 1.160 . S
O3 Cd4 2.203 1_656 S
Cd4 O3 2.203 1_454 S
Cd4 O6 2.411 1_455 S
Cd4 O7 2.333 . S
Cd4 O8 2.352 . S
Cd4 O12 2.277 1_554 S
Cd4 O13 2.356 . S
C5 O10 1.209 1_455 S
C5 O12 1.226 . S
O6 Cd2 2.273 . S
O6 Cd4 2.411 1_655 S
O6 C9 1.320 1_655 S
O7 Cd4 2.333 . S
O7 C9 1.214 . S
O8 Cd4 2.352 . S
O8 C11 1.258 . S
C9 O6 1.320 1_455 S
C9 O7 1.214 . S
O10 Cd2 2.277 1_556 S
O10 C5 1.209 1_655 S
C11 O8 1.258 . S
C11 O13 1.282 . S
O12 Cd4 2.277 1_556 S
O12 C5 1.226 . S
O13 Cd4 2.356 . S
O13 C11 1.282 . S
C14 O15 1.306 . S
C14 O17 1.160 . S
O15 C14 1.306 . S
O15 Cd16 2.228 . S
Cd16 O15 2.228 . S
Cd16 O20 2.273 1_554 S
Cd16 O24 2.277 . S
O17 C14 1.160 . S
O17 Cd18 2.203 . S
Cd18 O17 2.203 . S
Cd18 O20 2.411 1_554 S
Cd18 O21 2.333 1_554 S
Cd18 O22 2.352 1_554 S
Cd18 O26 2.277 . S
Cd18 O27 2.356 . S
C19 O24 1.209 . S
C19 O26 1.226 . S
O20 Cd16 2.273 1_556 S
O20 Cd18 2.411 1_556 S
O20 C23 1.320 . S
O21 Cd18 2.333 1_556 S
O21 C23 1.214 . S
O22 Cd18 2.352 1_556 S
O22 C25 1.258 . S
C23 O20 1.320 . S
C23 O21 1.214 . S
O24 Cd16 2.277 . S
O24 C19 1.209 . S
C25 O22 1.258 . S
C25 O27 1.282 1_556 S
O26 Cd18 2.277 . S
O26 C19 1.226 . S
O27 Cd18 2.356 . S
O27 C25 1.282 1_554 S
C28 O29 1.306 . S
C28 O31 1.160 . S
O29 C28 1.306 . S
O29 Cd30 2.228 . S
Cd30 O29 2.228 . S
Cd30 O34 2.273 1_554 S
Cd30 O38 2.277 . S
O31 C28 1.160 . S
O31 Cd32 2.203 1_565 S
Cd32 O31 2.203 1_545 S
Cd32 O34 2.411 1_544 S
Cd32 O35 2.333 1_554 S
Cd32 O36 2.352 1_554 S
Cd32 O40 2.277 . S
Cd32 O41 2.356 . S
C33 O38 1.209 1_545 S
C33 O40 1.226 . S
O34 Cd30 2.273 1_556 S
O34 Cd32 2.411 1_566 S
O34 C37 1.320 1_565 S
O35 Cd32 2.333 1_556 S
O35 C37 1.214 . S
O36 Cd32 2.352 1_556 S
O36 C39 1.258 . S
C37 O34 1.320 1_545 S
C37 O35 1.214 . S
O38 Cd30 2.277 . S
O38 C33 1.209 1_565 S
C39 O36 1.258 . S
C39 O41 1.282 1_556 S
O40 Cd32 2.277 . S
O40 C33 1.226 . S
O41 Cd32 2.356 . S
O41 C39 1.282 1_554 S
C42 O43 1.306 1_556 S
C42 O45 1.160 . S
O43 C42 1.306 1_554 S
O43 Cd44 2.228 . S
Cd44 O43 2.228 . S
Cd44 O48 2.273 . S
Cd44 O52 2.277 1_554 S
O45 C42 1.160 . S
O45 Cd46 2.203 1_656 S
Cd46 O45 2.203 1_454 S
Cd46 O48 2.411 1_455 S
Cd46 O49 2.333 . S
Cd46 O50 2.352 . S
Cd46 O54 2.277 1_554 S
Cd46 O55 2.356 . S
C47 O52 1.209 1_455 S
C47 O54 1.226 . S
O48 Cd44 2.273 . S
O48 Cd46 2.411 1_655 S
O48 C51 1.320 1_655 S
O49 Cd46 2.333 . S
O49 C51 1.214 . S
O50 Cd46 2.352 . S
O50 C53 1.258 . S
C51 O48 1.320 1_455 S
C51 O49 1.214 . S
O52 Cd44 2.277 1_556 S
O52 C47 1.209 1_655 S
C53 O50 1.258 . S
C53 O55 1.282 . S
O54 Cd46 2.277 1_556 S
O54 C47 1.226 . S
O55 Cd46 2.356 . S
O55 C53 1.282 . S
C56 O57 1.306 . S
C56 O59 1.160 . S
O57 C56 1.306 . S
O57 Cd58 2.228 . S
Cd58 O57 2.228 . S
Cd58 O62 2.273 1_554 S
Cd58 O66 2.277 . S
O59 C56 1.160 . S
O59 Cd60 2.203 . S
Cd60 O59 2.203 . S
Cd60 O62 2.411 1_554 S
Cd60 O63 2.333 1_554 S
Cd60 O64 2.352 1_554 S
Cd60 O68 2.277 . S
Cd60 O69 2.356 . S
C61 O66 1.209 . S
C61 O68 1.226 . S
O62 Cd58 2.273 1_556 S
O62 Cd60 2.411 1_556 S
O62 C65 1.320 . S
O63 Cd60 2.333 1_556 S
O63 C65 1.214 . S
O64 Cd60 2.352 1_556 S
O64 C67 1.258 . S
C65 O62 1.320 . S
C65 O63 1.214 . S
O66 Cd58 2.277 . S
O66 C61 1.209 . S
C67 O64 1.258 . S
C67 O69 1.282 1_556 S
O68 Cd60 2.277 . S
O68 C61 1.226 . S
O69 Cd60 2.356 . S
O69 C67 1.282 1_554 S
C70 O71 1.306 1_556 S
C70 O73 1.160 . S
O71 C70 1.306 1_554 S
O71 Cd72 2.228 . S
Cd72 O71 2.228 . S
Cd72 O76 2.273 . S
Cd72 O80 2.277 1_554 S
O73 C70 1.160 . S
O73 Cd74 2.203 1_546 S
Cd74 O73 2.203 1_564 S
Cd74 O76 2.411 1_565 S
Cd74 O77 2.333 . S
Cd74 O78 2.352 . S
Cd74 O82 2.277 1_554 S
Cd74 O83 2.356 . S
C75 O80 1.192 1_565 S
C75 O82 1.250 . S
O76 Cd72 2.273 . S
O76 Cd74 2.411 1_545 S
O76 C79 1.332 . S
O77 Cd74 2.333 . S
O77 C79 1.188 1_565 S
O78 Cd74 2.352 . S
O78 C81 1.258 . S
C79 O76 1.332 . S
C79 O77 1.188 1_545 S
O80 Cd72 2.277 1_556 S
O80 C75 1.192 1_545 S
C81 O78 1.258 . S
C81 O83 1.282 . S
O82 Cd74 2.277 1_556 S
O82 C75 1.250 . S
O83 Cd74 2.356 . S
O83 C81 1.282 . S
C84 O85 1.306 . S
C84 O87 1.160 . S
O85 C84 1.306 . S
O85 Cd86 2.228 . S
Cd86 O85 2.228 . S
Cd86 O90 2.273 . S
Cd86 O94 2.277 . S
O87 C84 1.160 . S
O87 Cd88 2.203 . S
Cd88 O87 2.203 . S
Cd88 O90 2.411 . S
Cd88 O91 2.333 . S
Cd88 O92 2.352 . S
Cd88 O96 2.277 . S
Cd88 O97 2.356 . S
C89 O94 1.209 . S
C89 O96 1.226 . S
O90 Cd86 2.273 . S
O90 Cd88 2.411 . S
O90 C93 1.320 . S
O91 Cd88 2.333 . S
O91 C93 1.214 . S
O92 Cd88 2.352 . S
O92 C95 1.258 . S
C93 O90 1.320 . S
C93 O91 1.214 . S
O94 Cd86 2.277 . S
O94 C89 1.209 . S
C95 O92 1.258 . S
C95 O97 1.282 . S
O96 Cd88 2.277 . S
O96 C89 1.226 . S
O97 Cd88 2.356 . S
O97 C95 1.282 . S
C98 O99 1.303 . S
C98 O101 1.160 1_545 S
O99 C98 1.303 . S
O99 Cd100 2.216 1_545 S
Cd100 O99 2.216 1_565 S
Cd100 O104 2.273 . S
Cd100 O108 2.277 . S
O101 C98 1.160 1_565 S
O101 Cd102 2.203 . S
Cd102 O101 2.203 . S
Cd102 O104 2.411 . S
Cd102 O105 2.333 . S
Cd102 O106 2.352 . S
Cd102 O110 2.277 . S
Cd102 O111 2.356 . S
C103 O108 1.209 . S
C103 O110 1.226 . S
O104 Cd100 2.273 . S
O104 Cd102 2.411 . S
O104 C107 1.320 . S
O105 Cd102 2.333 . S
O105 C107 1.214 . S
O106 Cd102 2.352 . S
O106 C109 1.258 . S
C107 O104 1.320 . S
C107 O105 1.214 . S
O108 Cd100 2.277 . S
O108 C103 1.209 . S
C109 O106 1.258 . S
C109 O111 1.282 . S
O110 Cd102 2.277 . S
O110 C103 1.226 . S
O111 Cd102 2.356 . S
O111 C109 1.282 . S
C112 O113 1.278 1_655 S
C112 O115 1.161 1_655 S
O113 C112 1.278 1_455 S
O113 Cd114 2.228 . S
Cd114 O113 2.228 . S
Cd114 O118 2.273 . S
Cd114 O122 2.277 . S
O115 C112 1.161 1_455 S
O115 Cd116 2.203 . S
Cd116 O115 2.203 . S
Cd116 O118 2.411 . S
Cd116 O119 2.333 . S
Cd116 O120 2.352 . S
Cd116 O124 2.277 . S
Cd116 O125 2.356 . S
C117 O122 1.209 . S
C117 O124 1.226 . S
O118 Cd114 2.273 . S
O118 Cd116 2.411 . S
O118 C121 1.320 . S
O119 Cd116 2.333 . S
O119 C121 1.214 . S
O120 Cd116 2.352 . S
O120 C123 1.258 . S
C121 O118 1.320 . S
C121 O119 1.214 . S
O122 Cd114 2.277 . S
O122 C117 1.209 . S
C123 O120 1.258 . S
C123 O125 1.282 . S
O124 Cd116 2.277 . S
O124 C117 1.226 . S
O125 Cd116 2.356 . S
O125 C123 1.282 . S
C126 O127 1.306 . S
C126 O129 1.160 . S
O127 C126 1.306 . S
O127 Cd128 2.228 . S
Cd128 O127 2.228 . S
Cd128 O132 2.273 . S
Cd128 O136 2.277 . S
O129 C126 1.160 . S
O129 Cd130 2.203 . S
Cd130 O129 2.203 . S
Cd130 O132 2.411 . S
Cd130 O133 2.333 . S
Cd130 O134 2.352 1_565 S
Cd130 O138 2.277 . S
Cd130 O139 2.356 1_565 S
C131 O136 1.209 . S
C131 O138 1.226 . S
O132 Cd128 2.273 . S
O132 Cd130 2.411 . S
O132 C135 1.320 . S
O133 Cd130 2.333 . S
O133 C135 1.214 . S
O134 Cd130 2.352 1_545 S
O134 C137 1.258 . S
C135 O132 1.320 . S
C135 O133 1.214 . S
O136 Cd128 2.277 . S
O136 C131 1.209 . S
C137 O134 1.258 . S
C137 O139 1.282 . S
O138 Cd130 2.277 . S
O138 C131 1.226 . S
O139 Cd130 2.356 1_545 S
O139 C137 1.282 . S
C140 O141 1.306 1_655 S
C140 O143 1.160 1_655 S
O141 C140 1.306 1_455 S
O141 Cd142 2.228 . S
Cd142 O141 2.228 . S
Cd142 O146 2.273 . S
Cd142 O150 2.277 . S
O143 C140 1.160 1_455 S
O143 Cd144 2.203 . S
Cd144 O143 2.203 . S
Cd144 O146 2.411 . S
Cd144 O147 2.333 . S
Cd144 O148 2.352 . S
Cd144 O152 2.277 . S
Cd144 O153 2.356 . S
C145 O150 1.209 . S
C145 O152 1.226 . S
O146 Cd142 2.273 . S
O146 Cd144 2.411 . S
O146 C149 1.320 . S
O147 Cd144 2.333 . S
O147 C149 1.214 . S
O148 Cd144 2.352 . S
O148 C151 1.258 . S
C149 O146 1.320 . S
C149 O147 1.214 . S
O150 Cd142 2.277 . S
O150 C145 1.209 . S
C151 O148 1.258 . S
C151 O153 1.282 . S
O152 Cd144 2.277 . S
O152 C145 1.226 . S
O153 Cd144 2.356 . S
O153 C151 1.282 . S
C154 O155 1.306 . S
C154 O157 1.160 . S
O155 C154 1.306 . S
O155 Cd156 2.228 . S
Cd156 O155 2.228 . S
Cd156 O160 2.273 . S
Cd156 O164 2.277 . S
O157 C154 1.160 . S
O157 Cd158 2.203 . S
Cd158 O157 2.203 . S
Cd158 O160 2.411 . S
Cd158 O161 2.333 . S
Cd158 O162 2.352 . S
Cd158 O166 2.277 . S
Cd158 O167 2.356 . S
C159 O164 1.209 . S
C159 O166 1.226 . S
O160 Cd156 2.273 . S
O160 Cd158 2.411 . S
O160 C163 1.320 . S
O161 Cd158 2.333 . S
O161 C163 1.214 . S
O162 Cd158 2.352 . S
O162 C165 1.258 . S
C163 O160 1.320 . S
C163 O161 1.214 . S
O164 Cd156 2.277 . S
O164 C159 1.209 . S
C165 O162 1.258 . S
C165 O167 1.282 . S
O166 Cd158 2.277 . S
O166 C159 1.226 . S
O167 Cd158 2.356 . S
O167 C165 1.282 . S
C168 O169 1.306 1_565 S
C168 O171 1.160 1_565 S
O169 C168 1.306 1_545 S
O169 Cd170 2.228 . S
Cd170 O169 2.228 . S
Cd170 O174 2.273 . S
Cd170 O178 2.277 . S
O171 C168 1.160 1_545 S
O171 Cd172 2.203 . S
Cd172 O171 2.203 . S
Cd172 O174 2.411 . S
Cd172 O175 2.333 . S
Cd172 O176 2.352 . S
Cd172 O180 2.277 . S
Cd172 O181 2.356 . S
C173 O178 1.209 . S
C173 O180 1.226 . S
O174 Cd170 2.273 . S
O174 Cd172 2.411 . S
O174 C177 1.320 . S
O175 Cd172 2.333 . S
O175 C177 1.214 . S
O176 Cd172 2.352 . S
O176 C179 1.258 . S
C177 O174 1.320 . S
C177 O175 1.214 . S
O178 Cd170 2.277 . S
O178 C173 1.209 . S
C179 O176 1.258 . S
C179 O181 1.282 . S
O180 Cd172 2.277 . S
O180 C173 1.226 . S
O181 Cd172 2.356 . S
O181 C179 1.282 . S
C182 O183 1.306 . S
C182 O185 1.160 . S
O183 C182 1.306 . S
O183 Cd184 2.228 . S
Cd184 O183 2.228 . S
Cd184 O188 2.273 . S
Cd184 O192 2.277 . S
O185 C182 1.160 . S
O185 Cd186 2.203 . S
Cd186 O185 2.203 . S
Cd186 O188 2.411 . S
Cd186 O189 2.333 . S
Cd186 O190 2.352 1_655 S
Cd186 O194 2.277 . S
Cd186 O195 2.356 1_655 S
C187 O192 1.209 . S
C187 O194 1.226 . S
O188 Cd184 2.273 . S
O188 Cd186 2.411 . S
O188 C191 1.320 . S
O189 Cd186 2.333 . S
O189 C191 1.214 . S
O190 Cd186 2.352 1_455 S
O190 C193 1.258 . S
C191 O188 1.320 . S
C191 O189 1.214 . S
O192 Cd184 2.277 . S
O192 C187 1.209 . S
C193 O190 1.258 . S
C193 O195 1.282 . S
O194 Cd186 2.277 . S
O194 C187 1.226 . S
O195 Cd186 2.356 1_455 S
O195 C193 1.282 . S
C196 O197 1.306 . S
C196 O199 1.160 . S
O197 C196 1.306 . S
O197 Cd198 2.228 . S
Cd198 O197 2.228 . S
Cd198 O202 2.273 . S
Cd198 O206 2.277 . S
O199 C196 1.160 . S
O199 Cd200 2.203 . S
Cd200 O199 2.203 . S
Cd200 O202 2.411 . S
Cd200 O203 2.333 . S
Cd200 O204 2.352 . S
Cd200 O208 2.277 . S
Cd200 O209 2.356 . S
C201 O206 1.209 . S
C201 O208 1.226 . S
O202 Cd198 2.273 . S
O202 Cd200 2.411 . S
O202 C205 1.320 . S
O203 Cd200 2.333 . S
O203 C205 1.214 . S
O204 Cd200 2.352 . S
O204 C207 1.258 . S
C205 O202 1.320 . S
C205 O203 1.214 . S
O206 Cd198 2.277 . S
O206 C201 1.209 . S
C207 O204 1.258 . S
C207 O209 1.282 . S
O208 Cd200 2.277 . S
O208 C201 1.226 . S
O209 Cd200 2.356 . S
O209 C207 1.282 . S
C210 O211 1.306 . S
C210 O213 1.160 . S
O211 C210 1.306 . S
O211 Cd212 2.228 . S
Cd212 O211 2.228 . S
Cd212 O216 2.273 . S
Cd212 O220 2.277 . S
O213 C210 1.160 . S
O213 Cd214 2.203 . S
Cd214 O213 2.203 . S
Cd214 O216 2.411 . S
Cd214 O217 2.333 . S
Cd214 O218 2.352 . S
Cd214 O222 2.277 . S
Cd214 O223 2.356 . S
C215 O220 1.209 . S
C215 O222 1.226 . S
O216 Cd212 2.273 . S
O216 Cd214 2.411 . S
O216 C219 1.320 . S
O217 Cd214 2.333 . S
O217 C219 1.214 . S
O218 Cd214 2.352 . S
O218 C221 1.258 . S
C219 O216 1.320 . S
C219 O217 1.214 . S
O220 Cd212 2.277 . S
O220 C215 1.209 . S
C221 O218 1.258 . S
C221 O223 1.282 . S
O222 Cd214 2.277 . S
O222 C215 1.226 . S
O223 Cd214 2.356 . S
O223 C221 1.282 . S
C224 O225 1.306 . S
C224 O227 1.160 . S
O225 C224 1.306 . S
O225 Cd226 2.228 . S
Cd226 O225 2.228 . S
Cd226 O230 2.273 . S
Cd226 O234 2.277 . S
O227 C224 1.160 . S
O227 Cd228 2.203 . S
Cd228 O227 2.203 . S
Cd228 O230 2.411 . S
Cd228 O231 2.333 . S
Cd228 O232 2.352 . S
Cd228 O236 2.277 . S
Cd228 O237 2.356 1_545 S
C229 O234 1.209 . S
C229 O236 1.226 . S
O230 Cd226 2.273 . S
O230 Cd228 2.411 . S
O230 C233 1.320 . S
O231 Cd228 2.333 . S
O231 C233 1.214 . S
O232 Cd228 2.352 . S
O232 C235 1.258 1_545 S
C233 O230 1.320 . S
C233 O231 1.214 . S
O234 Cd226 2.277 . S
O234 C229 1.209 . S
C235 O232 1.258 1_565 S
C235 O237 1.282 . S
O236 Cd228 2.277 . S
O236 C229 1.226 . S
O237 Cd228 2.356 1_565 S
O237 C235 1.282 . S
C238 O239 1.335 . S
C238 O241 1.160 1_455 S
O239 C238 1.335 . S
O239 Cd240 2.188 1_455 S
Cd240 O239 2.188 1_655 S
Cd240 O244 2.273 . S
Cd240 O248 2.277 . S
O241 C238 1.160 1_655 S
O241 Cd242 2.203 . S
Cd242 O241 2.203 . S
Cd242 O244 2.411 . S
Cd242 O245 2.333 . S
Cd242 O246 2.352 . S
Cd242 O250 2.277 . S
Cd242 O251 2.356 . S
C243 O248 1.209 . S
C243 O250 1.226 . S
O244 Cd240 2.273 . S
O244 Cd242 2.411 . S
O244 C247 1.320 . S
O245 Cd242 2.333 . S
O245 C247 1.214 . S
O246 Cd242 2.352 . S
O246 C249 1.258 . S
C247 O244 1.320 . S
C247 O245 1.214 . S
O248 Cd240 2.277 . S
O248 C243 1.209 . S
C249 O246 1.258 . S
C249 O251 1.282 . S
O250 Cd242 2.277 . S
O250 C243 1.226 . S
O251 Cd242 2.356 . S
O251 C249 1.282 . S
H252 C279 0.929 . S
N253 C278 1.433 . S
N253 C284 1.435 . S
N253 C290 1.423 . S
H254 C280 0.930 . S
H255 C283 0.931 . S
H256 C282 0.929 . S
H257 C285 0.930 . S
H258 C286 0.932 . S
H259 C289 0.929 . S
H260 C288 0.931 . S
H261 C291 0.929 . S
H262 C295 0.932 . S
H263 C292 0.931 . S
H264 C294 0.929 . S
H265 C297 0.929 . S
H266 C298 0.930 . S
H267 C300 0.929 . S
H268 C301 0.931 . S
H269 C303 0.930 . S
H270 C304 0.932 . S
H271 C306 0.931 . S
H272 C307 0.929 . S
H273 C309 0.929 . S
H274 C310 0.931 . S
H275 C312 0.929 . S
N276 C296 1.433 . S
N276 C302 1.435 . S
N276 C308 1.423 . S
H277 C313 0.932 . S
C278 N253 1.433 . S
C278 C279 1.363 . S
C278 C283 1.370 . S
C279 H252 0.929 . S
C279 C278 1.363 . S
C279 C280 1.385 . S
C280 H254 0.930 . S
C280 C279 1.385 . S
C280 C281 1.357 . S
C281 C280 1.357 . S
C281 C282 1.406 . S
C282 H256 0.929 . S
C282 C281 1.406 . S
C282 C283 1.391 . S
C283 H255 0.931 . S
C283 C278 1.370 . S
C283 C282 1.391 . S
C284 N253 1.435 . S
C284 C285 1.358 . S
C284 C289 1.371 . S
C285 H257 0.930 . S
C285 C284 1.358 . S
C285 C286 1.405 . S
C286 H258 0.932 . S
C286 C285 1.405 . S
C286 C287 1.383 . S
C287 C286 1.383 . S
C287 C288 1.393 . S
C288 H260 0.931 . S
C288 C287 1.393 . S
C288 C289 1.382 . S
C289 H259 0.929 . S
C289 C284 1.371 . S
C289 C288 1.382 . S
C290 N253 1.423 . S
C290 C291 1.362 . S
C290 C295 1.388 . S
C291 H261 0.929 . S
C291 C290 1.362 . S
C291 C292 1.376 . S
C292 H263 0.931 . S
C292 C291 1.376 . S
C292 C293 1.396 . S
C293 C292 1.396 . S
C293 C294 1.348 . S
C293 C311 1.472 . S
C294 H264 0.929 . S
C294 C293 1.348 . S
C294 C295 1.443 . S
C295 H262 0.932 . S
C295 C290 1.388 . S
C295 C294 1.443 . S
C296 N276 1.433 . S
C296 C297 1.363 . S
C296 C301 1.370 . S
C297 H265 0.929 . S
C297 C296 1.363 . S
C297 C298 1.385 . S
C298 H266 0.930 . S
C298 C297 1.385 . S
C298 C299 1.357 . S
C299 C298 1.357 . S
C299 C300 1.406 . S
C300 H267 0.929 . S
C300 C299 1.406 . S
C300 C301 1.391 . S
C301 H268 0.931 . S
C301 C296 1.370 . S
C301 C300 1.391 . S
C302 N276 1.435 . S
C302 C303 1.358 . S
C302 C307 1.371 . S
C303 H269 0.930 . S
C303 C302 1.358 . S
C303 C304 1.405 . S
C304 H270 0.932 . S
C304 C303 1.405 . S
C304 C305 1.383 . S
C305 C304 1.383 . S
C305 C306 1.393 . S
C306 H271 0.931 . S
C306 C305 1.393 . S
C306 C307 1.382 . S
C307 H272 0.929 . S
C307 C302 1.371 . S
C307 C306 1.382 . S
C308 N276 1.423 . S
C308 C309 1.362 . S
C308 C313 1.388 . S
C309 H273 0.929 . S
C309 C308 1.362 . S
C309 C310 1.376 . S
C310 H274 0.931 . S
C310 C309 1.376 . S
C310 C311 1.396 . S
C311 C293 1.472 . S
C311 C310 1.396 . S
C311 C312 1.348 . S
C312 H275 0.929 . S
C312 C311 1.348 . S
C312 C313 1.443 . S
C313 H277 0.932 . S
C313 C308 1.388 . S
C313 C312 1.443 . S
H314 C341 0.929 . S
N315 C340 1.433 . S
N315 C346 1.435 . S
N315 C352 1.423 . S
H316 C342 0.930 . S
H317 C345 0.931 . S
H318 C344 0.929 . S
H319 C347 0.930 . S
H320 C348 0.932 . S
H321 C351 0.929 . S
H322 C350 0.931 . S
H323 C353 0.929 . S
H324 C357 0.932 . S
H325 C354 0.931 . S
H326 C356 0.929 . S
H327 C359 0.929 . S
H328 C360 0.930 . S
H329 C362 0.929 . S
H330 C363 0.931 . S
H331 C365 0.930 . S
H332 C366 0.932 . S
H333 C368 0.931 . S
H334 C369 0.929 . S
H335 C371 0.929 . S
H336 C372 0.931 . S
H337 C374 0.929 . S
N338 C358 1.433 . S
N338 C364 1.435 . S
N338 C370 1.423 . S
H339 C375 0.932 . S
C340 N315 1.433 . S
C340 C341 1.363 . S
C340 C345 1.370 . S
C341 H314 0.929 . S
C341 C340 1.363 . S
C341 C342 1.385 . S
C342 H316 0.930 . S
C342 C341 1.385 . S
C342 C343 1.357 . S
C343 C342 1.357 . S
C343 C344 1.406 . S
C344 H318 0.929 . S
C344 C343 1.406 . S
C344 C345 1.391 . S
C345 H317 0.931 . S
C345 C340 1.370 . S
C345 C344 1.391 . S
C346 N315 1.435 . S
C346 C347 1.358 . S
C346 C351 1.371 . S
C347 H319 0.930 . S
C347 C346 1.358 . S
C347 C348 1.405 . S
C348 H320 0.932 . S
C348 C347 1.405 . S
C348 C349 1.383 . S
C349 C348 1.383 . S
C349 C350 1.393 . S
C350 H322 0.931 . S
C350 C349 1.393 . S
C350 C351 1.382 . S
C351 H321 0.929 . S
C351 C346 1.371 . S
C351 C350 1.382 . S
C352 N315 1.423 . S
C352 C353 1.362 . S
C352 C357 1.388 . S
C353 H323 0.929 . S
C353 C352 1.362 . S
C353 C354 1.376 . S
C354 H325 0.931 . S
C354 C353 1.376 . S
C354 C355 1.396 . S
C355 C354 1.396 . S
C355 C356 1.348 . S
C355 C373 1.472 . S
C356 H326 0.929 . S
C356 C355 1.348 . S
C356 C357 1.443 . S
C357 H324 0.932 . S
C357 C352 1.388 . S
C357 C356 1.443 . S
C358 N338 1.433 . S
C358 C359 1.363 . S
C358 C363 1.370 . S
C359 H327 0.929 . S
C359 C358 1.363 . S
C359 C360 1.385 . S
C360 H328 0.930 . S
C360 C359 1.385 . S
C360 C361 1.357 . S
C361 C360 1.357 . S
C361 C362 1.406 . S
C362 H329 0.929 . S
C362 C361 1.406 . S
C362 C363 1.391 . S
C363 H330 0.931 . S
C363 C358 1.370 . S
C363 C362 1.391 . S
C364 N338 1.435 . S
C364 C365 1.358 . S
C364 C369 1.371 . S
C365 H331 0.930 . S
C365 C364 1.358 . S
C365 C366 1.405 . S
C366 H332 0.932 . S
C366 C365 1.405 . S
C366 C367 1.383 . S
C367 C366 1.383 . S
C367 C368 1.393 . S
C368 H333 0.931 . S
C368 C367 1.393 . S
C368 C369 1.382 . S
C369 H334 0.929 . S
C369 C364 1.371 . S
C369 C368 1.382 . S
C370 N338 1.423 . S
C370 C371 1.362 . S
C370 C375 1.388 . S
C371 H335 0.929 . S
C371 C370 1.362 . S
C371 C372 1.376 . S
C372 H336 0.931 . S
C372 C371 1.376 . S
C372 C373 1.396 . S
C373 C355 1.472 . S
C373 C372 1.396 . S
C373 C374 1.348 . S
C374 H337 0.929 . S
C374 C373 1.348 . S
C374 C375 1.443 . S
C375 H339 0.932 . S
C375 C370 1.388 . S
C375 C374 1.443 . S
H376 C403 0.929 . S
N377 C402 1.433 . S
N377 C408 1.435 . S
N377 C414 1.423 . S
H378 C404 0.930 . S
H379 C407 0.931 . S
H380 C406 0.929 . S
H381 C409 0.930 . S
H382 C410 0.932 . S
H383 C413 0.929 . S
H384 C412 0.931 . S
H385 C415 0.929 . S
H386 C419 0.932 . S
H387 C416 0.931 . S
H388 C418 0.929 . S
H389 C421 0.929 . S
H390 C422 0.930 . S
H391 C424 0.929 . S
H392 C425 0.931 . S
H393 C427 0.930 . S
H394 C428 0.932 . S
H395 C430 0.931 . S
H396 C431 0.929 . S
H397 C433 0.929 . S
H398 C434 0.931 . S
H399 C436 0.929 . S
N400 C420 1.433 . S
N400 C426 1.435 . S
N400 C432 1.423 . S
H401 C437 0.932 . S
C402 N377 1.433 . S
C402 C403 1.363 . S
C402 C407 1.370 . S
C403 H376 0.929 . S
C403 C402 1.363 . S
C403 C404 1.385 . S
C404 H378 0.930 . S
C404 C403 1.385 . S
C404 C405 1.357 . S
C405 C404 1.357 . S
C405 C406 1.406 . S
C406 H380 0.929 . S
C406 C405 1.406 . S
C406 C407 1.391 . S
C407 H379 0.931 . S
C407 C402 1.370 . S
C407 C406 1.391 . S
C408 N377 1.435 . S
C408 C409 1.358 . S
C408 C413 1.371 . S
C409 H381 0.930 . S
C409 C408 1.358 . S
C409 C410 1.405 . S
C410 H382 0.932 . S
C410 C409 1.405 . S
C410 C411 1.383 . S
C411 C410 1.383 . S
C411 C412 1.393 . S
C412 H384 0.931 . S
C412 C411 1.393 . S
C412 C413 1.382 . S
C413 H383 0.929 . S
C413 C408 1.371 . S
C413 C412 1.382 . S
C414 N377 1.423 . S
C414 C415 1.362 . S
C414 C419 1.388 . S
C415 H385 0.929 . S
C415 C414 1.362 . S
C415 C416 1.376 . S
C416 H387 0.931 . S
C416 C415 1.376 . S
C416 C417 1.396 . S
C417 C416 1.396 . S
C417 C418 1.348 . S
C417 C435 1.472 . S
C418 H388 0.929 . S
C418 C417 1.348 . S
C418 C419 1.443 . S
C419 H386 0.932 . S
C419 C414 1.388 . S
C419 C418 1.443 . S
C420 N400 1.433 . S
C420 C421 1.363 . S
C420 C425 1.370 . S
C421 H389 0.929 . S
C421 C420 1.363 . S
C421 C422 1.385 . S
C422 H390 0.930 . S
C422 C421 1.385 . S
C422 C423 1.357 . S
C423 C422 1.357 . S
C423 C424 1.406 . S
C424 H391 0.929 . S
C424 C423 1.406 . S
C424 C425 1.391 . S
C425 H392 0.931 . S
C425 C420 1.370 . S
C425 C424 1.391 . S
C426 N400 1.435 . S
C426 C427 1.358 . S
C426 C431 1.371 . S
C427 H393 0.930 . S
C427 C426 1.358 . S
C427 C428 1.405 . S
C428 H394 0.932 . S
C428 C427 1.405 . S
C428 C429 1.383 . S
C429 C428 1.383 . S
C429 C430 1.393 . S
C430 H395 0.931 . S
C430 C429 1.393 . S
C430 C431 1.382 . S
C431 H396 0.929 . S
C431 C426 1.371 . S
C431 C430 1.382 . S
C432 N400 1.423 . S
C432 C433 1.362 . S
C432 C437 1.388 . S
C433 H397 0.929 . S
C433 C432 1.362 . S
C433 C434 1.376 . S
C434 H398 0.931 . S
C434 C433 1.376 . S
C434 C435 1.396 . S
C435 C417 1.472 . S
C435 C434 1.396 . S
C435 C436 1.348 . S
C436 H399 0.929 . S
C436 C435 1.348 . S
C436 C437 1.443 . S
C437 H401 0.932 . S
C437 C432 1.388 . S
C437 C436 1.443 . S
H438 C465 0.929 . S
N439 C464 1.433 . S
N439 C470 1.435 . S
N439 C476 1.423 . S
H440 C466 0.930 . S
H441 C469 0.931 . S
H442 C468 0.929 . S
H443 C471 0.930 . S
H444 C472 0.932 . S
H445 C475 0.929 . S
H446 C474 0.931 . S
H447 C477 0.929 . S
H448 C481 0.932 . S
H449 C478 0.931 . S
H450 C480 0.929 . S
H451 C483 0.929 . S
H452 C484 0.930 . S
H453 C486 0.929 . S
H454 C487 0.931 . S
H455 C489 0.930 . S
H456 C490 0.932 . S
H457 C492 0.931 . S
H458 C493 0.929 . S
H459 C495 0.929 . S
H460 C496 0.931 . S
H461 C498 0.929 . S
N462 C482 1.433 . S
N462 C488 1.435 . S
N462 C494 1.423 . S
H463 C499 0.932 . S
C464 N439 1.433 . S
C464 C465 1.363 . S
C464 C469 1.370 . S
C465 H438 0.929 . S
C465 C464 1.363 . S
C465 C466 1.385 . S
C466 H440 0.930 . S
C466 C465 1.385 . S
C466 C467 1.357 . S
C467 C466 1.357 . S
C467 C468 1.406 . S
C468 H442 0.929 . S
C468 C467 1.406 . S
C468 C469 1.391 . S
C469 H441 0.931 . S
C469 C464 1.370 . S
C469 C468 1.391 . S
C470 N439 1.435 . S
C470 C471 1.358 . S
C470 C475 1.371 . S
C471 H443 0.930 . S
C471 C470 1.358 . S
C471 C472 1.405 . S
C472 H444 0.932 . S
C472 C471 1.405 . S
C472 C473 1.383 . S
C473 C472 1.383 . S
C473 C474 1.393 . S
C474 H446 0.931 . S
C474 C473 1.393 . S
C474 C475 1.382 . S
C475 H445 0.929 . S
C475 C470 1.371 . S
C475 C474 1.382 . S
C476 N439 1.423 . S
C476 C477 1.362 . S
C476 C481 1.388 . S
C477 H447 0.929 . S
C477 C476 1.362 . S
C477 C478 1.376 . S
C478 H449 0.931 . S
C478 C477 1.376 . S
C478 C479 1.396 . S
C479 C478 1.396 . S
C479 C480 1.348 . S
C479 C497 1.472 . S
C480 H450 0.929 . S
C480 C479 1.348 . S
C480 C481 1.443 . S
C481 H448 0.932 . S
C481 C476 1.388 . S
C481 C480 1.443 . S
C482 N462 1.433 . S
C482 C483 1.363 . S
C482 C487 1.370 . S
C483 H451 0.929 . S
C483 C482 1.363 . S
C483 C484 1.385 . S
C484 H452 0.930 . S
C484 C483 1.385 . S
C484 C485 1.357 . S
C485 C484 1.357 . S
C485 C486 1.406 . S
C486 H453 0.929 . S
C486 C485 1.406 . S
C486 C487 1.391 . S
C487 H454 0.931 . S
C487 C482 1.370 . S
C487 C486 1.391 . S
C488 N462 1.435 . S
C488 C489 1.358 . S
C488 C493 1.371 . S
C489 H455 0.930 . S
C489 C488 1.358 . S
C489 C490 1.405 . S
C490 H456 0.932 . S
C490 C489 1.405 . S
C490 C491 1.383 . S
C491 C490 1.383 . S
C491 C492 1.393 . S
C492 H457 0.931 . S
C492 C491 1.393 . S
C492 C493 1.382 . S
C493 H458 0.929 . S
C493 C488 1.371 . S
C493 C492 1.382 . S
C494 N462 1.423 . S
C494 C495 1.362 . S
C494 C499 1.388 . S
C495 H459 0.929 . S
C495 C494 1.362 . S
C495 C496 1.376 . S
C496 H460 0.931 . S
C496 C495 1.376 . S
C496 C497 1.396 . S
C497 C479 1.472 . S
C497 C496 1.396 . S
C497 C498 1.348 . S
C498 H461 0.929 . S
C498 C497 1.348 . S
C498 C499 1.443 . S
C499 H463 0.932 . S
C499 C494 1.388 . S
C499 C498 1.443 . S
H500 C527 0.929 . S
N501 C526 1.433 . S
N501 C532 1.435 . S
N501 C538 1.423 . S
H502 C528 0.930 . S
H503 C531 0.931 . S
H504 C530 0.929 . S
H505 C533 0.930 . S
H506 C534 0.932 . S
H507 C537 0.929 . S
H508 C536 0.931 . S
H509 C539 0.929 . S
H510 C543 0.932 . S
H511 C540 0.931 . S
H512 C542 0.929 . S
H513 C545 0.929 . S
H514 C546 0.930 . S
H515 C548 0.929 . S
H516 C549 0.931 . S
H517 C551 0.930 . S
H518 C552 0.932 . S
H519 C554 0.931 . S
H520 C555 0.929 . S
H521 C557 0.929 . S
H522 C558 0.931 . S
H523 C560 0.929 . S
N524 C544 1.433 . S
N524 C550 1.435 . S
N524 C556 1.423 . S
H525 C561 0.932 . S
C526 N501 1.433 . S
C526 C527 1.363 . S
C526 C531 1.370 . S
C527 H500 0.929 . S
C527 C526 1.363 . S
C527 C528 1.385 . S
C528 H502 0.930 . S
C528 C527 1.385 . S
C528 C529 1.357 . S
C529 C528 1.357 . S
C529 C530 1.406 . S
C530 H504 0.929 . S
C530 C529 1.406 . S
C530 C531 1.391 . S
C531 H503 0.931 . S
C531 C526 1.370 . S
C531 C530 1.391 . S
C532 N501 1.435 . S
C532 C533 1.358 . S
C532 C537 1.371 . S
C533 H505 0.930 . S
C533 C532 1.358 . S
C533 C534 1.405 . S
C534 H506 0.932 . S
C534 C533 1.405 . S
C534 C535 1.383 . S
C535 C534 1.383 . S
C535 C536 1.393 . S
C536 H508 0.931 . S
C536 C535 1.393 . S
C536 C537 1.382 . S
C537 H507 0.929 . S
C537 C532 1.371 . S
C537 C536 1.382 . S
C538 N501 1.423 . S
C538 C539 1.362 . S
C538 C543 1.388 . S
C539 H509 0.929 . S
C539 C538 1.362 . S
C539 C540 1.376 . S
C540 H511 0.931 . S
C540 C539 1.376 . S
C540 C541 1.396 . S
C541 C540 1.396 . S
C541 C542 1.348 . S
C541 C559 1.472 . S
C542 H512 0.929 . S
C542 C541 1.348 . S
C542 C543 1.443 . S
C543 H510 0.932 . S
C543 C538 1.388 . S
C543 C542 1.443 . S
C544 N524 1.433 . S
C544 C545 1.363 . S
C544 C549 1.370 . S
C545 H513 0.929 . S
C545 C544 1.363 . S
C545 C546 1.385 . S
C546 H514 0.930 . S
C546 C545 1.385 . S
C546 C547 1.357 . S
C547 C546 1.357 . S
C547 C548 1.406 . S
C548 H515 0.929 . S
C548 C547 1.406 . S
C548 C549 1.391 . S
C549 H516 0.931 . S
C549 C544 1.370 . S
C549 C548 1.391 . S
C550 N524 1.435 . S
C550 C551 1.358 . S
C550 C555 1.371 . S
C551 H517 0.930 . S
C551 C550 1.358 . S
C551 C552 1.405 . S
C552 H518 0.932 . S
C552 C551 1.405 . S
C552 C553 1.383 . S
C553 C552 1.383 . S
C553 C554 1.393 . S
C554 H519 0.931 . S
C554 C553 1.393 . S
C554 C555 1.382 . S
C555 H520 0.929 . S
C555 C550 1.371 . S
C555 C554 1.382 . S
C556 N524 1.423 . S
C556 C557 1.362 . S
C556 C561 1.388 . S
C557 H521 0.929 . S
C557 C556 1.362 . S
C557 C558 1.376 . S
C558 H522 0.931 . S
C558 C557 1.376 . S
C558 C559 1.396 . S
C559 C541 1.472 . S
C559 C558 1.396 . S
C559 C560 1.348 . S
C560 H523 0.929 . S
C560 C559 1.348 . S
C560 C561 1.443 . S
C561 H525 0.932 . S
C561 C556 1.388 . S
C561 C560 1.443 . S
H562 C589 0.929 . S
N563 C588 1.433 . S
N563 C594 1.435 . S
N563 C600 1.423 . S
H564 C590 0.930 . S
H565 C593 0.931 . S
H566 C592 0.929 . S
H567 C595 0.930 . S
H568 C596 0.932 . S
H569 C599 0.929 . S
H570 C598 0.931 . S
H571 C601 0.929 . S
H572 C605 0.932 . S
H573 C602 0.931 . S
H574 C604 0.929 . S
H575 C607 0.929 . S
H576 C608 0.930 . S
H577 C610 0.929 . S
H578 C611 0.931 . S
H579 C613 0.930 . S
H580 C614 0.932 . S
H581 C616 0.931 . S
H582 C617 0.929 . S
H583 C619 0.929 . S
H584 C620 0.931 . S
H585 C622 0.929 . S
N586 C606 1.433 . S
N586 C612 1.435 . S
N586 C618 1.423 . S
H587 C623 0.932 . S
C588 N563 1.433 . S
C588 C589 1.363 . S
C588 C593 1.370 . S
C589 H562 0.929 . S
C589 C588 1.363 . S
C589 C590 1.385 . S
C590 H564 0.930 . S
C590 C589 1.385 . S
C590 C591 1.357 . S
C591 C590 1.357 . S
C591 C592 1.406 . S
C592 H566 0.929 . S
C592 C591 1.406 . S
C592 C593 1.391 . S
C593 H565 0.931 . S
C593 C588 1.370 . S
C593 C592 1.391 . S
C594 N563 1.435 . S
C594 C595 1.358 . S
C594 C599 1.371 . S
C595 H567 0.930 . S
C595 C594 1.358 . S
C595 C596 1.405 . S
C596 H568 0.932 . S
C596 C595 1.405 . S
C596 C597 1.383 . S
C597 C596 1.383 . S
C597 C598 1.393 . S
C598 H570 0.931 . S
C598 C597 1.393 . S
C598 C599 1.382 . S
C599 H569 0.929 . S
C599 C594 1.371 . S
C599 C598 1.382 . S
C600 N563 1.423 . S
C600 C601 1.362 . S
C600 C605 1.388 . S
C601 H571 0.929 . S
C601 C600 1.362 . S
C601 C602 1.376 . S
C602 H573 0.931 . S
C602 C601 1.376 . S
C602 C603 1.396 . S
C603 C602 1.396 . S
C603 C604 1.348 . S
C603 C621 1.472 . S
C604 H574 0.929 . S
C604 C603 1.348 . S
C604 C605 1.443 . S
C605 H572 0.932 . S
C605 C600 1.388 . S
C605 C604 1.443 . S
C606 N586 1.433 . S
C606 C607 1.363 . S
C606 C611 1.370 . S
C607 H575 0.929 . S
C607 C606 1.363 . S
C607 C608 1.385 . S
C608 H576 0.930 . S
C608 C607 1.385 . S
C608 C609 1.357 . S
C609 C608 1.357 . S
C609 C610 1.406 . S
C610 H577 0.929 . S
C610 C609 1.406 . S
C610 C611 1.391 . S
C611 H578 0.931 . S
C611 C606 1.370 . S
C611 C610 1.391 . S
C612 N586 1.435 . S
C612 C613 1.358 . S
C612 C617 1.371 . S
C613 H579 0.930 . S
C613 C612 1.358 . S
C613 C614 1.405 . S
C614 H580 0.932 . S
C614 C613 1.405 . S
C614 C615 1.383 . S
C615 C614 1.383 . S
C615 C616 1.393 . S
C616 H581 0.931 . S
C616 C615 1.393 . S
C616 C617 1.382 . S
C617 H582 0.929 . S
C617 C612 1.371 . S
C617 C616 1.382 . S
C618 N586 1.423 . S
C618 C619 1.362 . S
C618 C623 1.388 . S
C619 H583 0.929 . S
C619 C618 1.362 . S
C619 C620 1.376 . S
C620 H584 0.931 . S
C620 C619 1.376 . S
C620 C621 1.396 . S
C621 C603 1.472 . S
C621 C620 1.396 . S
C621 C622 1.348 . S
C622 H585 0.929 . S
C622 C621 1.348 . S
C622 C623 1.443 . S
C623 H587 0.932 . S
C623 C618 1.388 . S
C623 C622 1.443 . S
H624 C651 0.929 . S
N625 C650 1.433 . S
N625 C656 1.435 . S
N625 C662 1.423 . S
H626 C652 0.930 . S
H627 C655 0.931 . S
H628 C654 0.929 . S
H629 C657 0.930 . S
H630 C658 0.932 . S
H631 C661 0.929 . S
H632 C660 0.931 . S
H633 C663 0.929 . S
H634 C667 0.932 . S
H635 C664 0.931 . S
H636 C666 0.929 . S
H637 C669 0.929 . S
H638 C670 0.930 . S
H639 C672 0.929 . S
H640 C673 0.931 . S
H641 C675 0.930 . S
H642 C676 0.932 . S
H643 C678 0.931 . S
H644 C679 0.929 . S
H645 C681 0.929 . S
H646 C682 0.931 . S
H647 C684 0.929 . S
N648 C668 1.433 . S
N648 C674 1.435 . S
N648 C680 1.423 . S
H649 C685 0.932 . S
C650 N625 1.433 . S
C650 C651 1.363 . S
C650 C655 1.370 . S
C651 H624 0.929 . S
C651 C650 1.363 . S
C651 C652 1.385 . S
C652 H626 0.930 . S
C652 C651 1.385 . S
C652 C653 1.357 . S
C653 C652 1.357 . S
C653 C654 1.406 . S
C654 H628 0.929 . S
C654 C653 1.406 . S
C654 C655 1.391 . S
C655 H627 0.931 . S
C655 C650 1.370 . S
C655 C654 1.391 . S
C656 N625 1.435 . S
C656 C657 1.358 . S
C656 C661 1.371 . S
C657 H629 0.930 . S
C657 C656 1.358 . S
C657 C658 1.405 . S
C658 H630 0.932 . S
C658 C657 1.405 . S
C658 C659 1.383 . S
C659 C658 1.383 . S
C659 C660 1.393 . S
C660 H632 0.931 . S
C660 C659 1.393 . S
C660 C661 1.382 . S
C661 H631 0.929 . S
C661 C656 1.371 . S
C661 C660 1.382 . S
C662 N625 1.423 . S
C662 C663 1.362 . S
C662 C667 1.388 . S
C663 H633 0.929 . S
C663 C662 1.362 . S
C663 C664 1.376 . S
C664 H635 0.931 . S
C664 C663 1.376 . S
C664 C665 1.396 . S
C665 C664 1.396 . S
C665 C666 1.348 . S
C665 C683 1.472 . S
C666 H636 0.929 . S
C666 C665 1.348 . S
C666 C667 1.443 . S
C667 H634 0.932 . S
C667 C662 1.388 . S
C667 C666 1.443 . S
C668 N648 1.433 . S
C668 C669 1.363 . S
C668 C673 1.370 . S
C669 H637 0.929 . S
C669 C668 1.363 . S
C669 C670 1.385 . S
C670 H638 0.930 . S
C670 C669 1.385 . S
C670 C671 1.357 . S
C671 C670 1.357 . S
C671 C672 1.406 . S
C672 H639 0.929 . S
C672 C671 1.406 . S
C672 C673 1.391 . S
C673 H640 0.931 . S
C673 C668 1.370 . S
C673 C672 1.391 . S
C674 N648 1.435 . S
C674 C675 1.358 . S
C674 C679 1.371 . S
C675 H641 0.930 . S
C675 C674 1.358 . S
C675 C676 1.405 . S
C676 H642 0.932 . S
C676 C675 1.405 . S
C676 C677 1.383 . S
C677 C676 1.383 . S
C677 C678 1.393 . S
C678 H643 0.931 . S
C678 C677 1.393 . S
C678 C679 1.382 . S
C679 H644 0.929 . S
C679 C674 1.371 . S
C679 C678 1.382 . S
C680 N648 1.423 . S
C680 C681 1.362 . S
C680 C685 1.388 . S
C681 H645 0.929 . S
C681 C680 1.362 . S
C681 C682 1.376 . S
C682 H646 0.931 . S
C682 C681 1.376 . S
C682 C683 1.396 . S
C683 C665 1.472 . S
C683 C682 1.396 . S
C683 C684 1.348 . S
C684 H647 0.929 . S
C684 C683 1.348 . S
C684 C685 1.443 . S
C685 H649 0.932 . S
C685 C680 1.388 . S
C685 C684 1.443 . S
H686 C713 0.929 . S
N687 C712 1.433 . S
N687 C718 1.435 . S
N687 C724 1.423 . S
H688 C714 0.930 . S
H689 C717 0.931 . S
H690 C716 0.929 . S
H691 C719 0.930 . S
H692 C720 0.932 . S
H693 C723 0.929 . S
H694 C722 0.931 . S
H695 C725 0.929 . S
H696 C729 0.932 . S
H697 C726 0.931 . S
H698 C728 0.929 . S
H699 C731 0.929 . S
H700 C732 0.930 . S
H701 C734 0.929 . S
H702 C735 0.931 . S
H703 C737 0.930 . S
H704 C738 0.932 . S
H705 C740 0.931 . S
H706 C741 0.929 . S
H707 C743 0.929 . S
H708 C744 0.931 . S
H709 C746 0.929 . S
N710 C730 1.433 . S
N710 C736 1.435 . S
N710 C742 1.423 . S
H711 C747 0.932 . S
C712 N687 1.433 . S
C712 C713 1.363 . S
C712 C717 1.370 . S
C713 H686 0.929 . S
C713 C712 1.363 . S
C713 C714 1.385 . S
C714 H688 0.930 . S
C714 C713 1.385 . S
C714 C715 1.357 . S
C715 C714 1.357 . S
C715 C716 1.406 . S
C716 H690 0.929 . S
C716 C715 1.406 . S
C716 C717 1.391 . S
C717 H689 0.931 . S
C717 C712 1.370 . S
C717 C716 1.391 . S
C718 N687 1.435 . S
C718 C719 1.358 . S
C718 C723 1.371 . S
C719 H691 0.930 . S
C719 C718 1.358 . S
C719 C720 1.405 . S
C720 H692 0.932 . S
C720 C719 1.405 . S
C720 C721 1.383 . S
C721 C720 1.383 . S
C721 C722 1.393 . S
C722 H694 0.931 . S
C722 C721 1.393 . S
C722 C723 1.382 . S
C723 H693 0.929 . S
C723 C718 1.371 . S
C723 C722 1.382 . S
C724 N687 1.423 . S
C724 C725 1.362 . S
C724 C729 1.388 . S
C725 H695 0.929 . S
C725 C724 1.362 . S
C725 C726 1.376 . S
C726 H697 0.931 . S
C726 C725 1.376 . S
C726 C727 1.396 . S
C727 C726 1.396 . S
C727 C728 1.348 . S
C727 C745 1.472 . S
C728 H698 0.929 . S
C728 C727 1.348 . S
C728 C729 1.443 . S
C729 H696 0.932 . S
C729 C724 1.388 . S
C729 C728 1.443 . S
C730 N710 1.433 . S
C730 C731 1.363 . S
C730 C735 1.370 . S
C731 H699 0.929 . S
C731 C730 1.363 . S
C731 C732 1.385 . S
C732 H700 0.930 . S
C732 C731 1.385 . S
C732 C733 1.357 . S
C733 C732 1.357 . S
C733 C734 1.406 . S
C734 H701 0.929 . S
C734 C733 1.406 . S
C734 C735 1.391 . S
C735 H702 0.931 . S
C735 C730 1.370 . S
C735 C734 1.391 . S
C736 N710 1.435 . S
C736 C737 1.358 . S
C736 C741 1.371 . S
C737 H703 0.930 . S
C737 C736 1.358 . S
C737 C738 1.405 . S
C738 H704 0.932 . S
C738 C737 1.405 . S
C738 C739 1.383 . S
C739 C738 1.383 . S
C739 C740 1.393 . S
C740 H705 0.931 . S
C740 C739 1.393 . S
C740 C741 1.382 . S
C741 H706 0.929 . S
C741 C736 1.371 . S
C741 C740 1.382 . S
C742 N710 1.423 . S
C742 C743 1.362 . S
C742 C747 1.388 . S
C743 H707 0.929 . S
C743 C742 1.362 . S
C743 C744 1.376 . S
C744 H708 0.931 . S
C744 C743 1.376 . S
C744 C745 1.396 . S
C745 C727 1.472 . S
C745 C744 1.396 . S
C745 C746 1.348 . S
C746 H709 0.929 . S
C746 C745 1.348 . S
C746 C747 1.443 . S
C747 H711 0.932 . S
C747 C742 1.388 . S
C747 C746 1.443 . S
H748 C775 0.929 . S
N749 C774 1.433 . S
N749 C780 1.435 . S
N749 C786 1.423 . S
H750 C776 0.930 . S
H751 C779 0.931 . S
H752 C778 0.929 . S
H753 C781 0.930 . S
H754 C782 0.932 . S
H755 C785 0.929 . S
H756 C784 0.931 . S
H757 C787 0.929 . S
H758 C791 0.932 . S
H759 C788 0.931 . S
H760 C790 0.929 . S
H761 C793 0.929 . S
H762 C794 0.930 . S
H763 C796 0.929 . S
H764 C797 0.931 . S
H765 C799 0.930 . S
H766 C800 0.932 . S
H767 C802 0.931 . S
H768 C803 0.929 . S
H769 C805 0.929 . S
H770 C806 0.931 . S
H771 C808 0.929 . S
N772 C792 1.433 . S
N772 C798 1.435 . S
N772 C804 1.423 . S
H773 C809 0.932 . S
C774 N749 1.433 . S
C774 C775 1.363 . S
C774 C779 1.370 . S
C775 H748 0.929 . S
C775 C774 1.363 . S
C775 C776 1.385 . S
C776 H750 0.930 . S
C776 C775 1.385 . S
C776 C777 1.357 . S
C777 C776 1.357 . S
C777 C778 1.406 . S
C778 H752 0.929 . S
C778 C777 1.406 . S
C778 C779 1.391 . S
C779 H751 0.931 . S
C779 C774 1.370 . S
C779 C778 1.391 . S
C780 N749 1.435 . S
C780 C781 1.358 . S
C780 C785 1.371 . S
C781 H753 0.930 . S
C781 C780 1.358 . S
C781 C782 1.405 . S
C782 H754 0.932 . S
C782 C781 1.405 . S
C782 C783 1.383 . S
C783 C782 1.383 . S
C783 C784 1.393 . S
C784 H756 0.931 . S
C784 C783 1.393 . S
C784 C785 1.382 . S
C785 H755 0.929 . S
C785 C780 1.371 . S
C785 C784 1.382 . S
C786 N749 1.423 . S
C786 C787 1.362 . S
C786 C791 1.388 . S
C787 H757 0.929 . S
C787 C786 1.362 . S
C787 C788 1.376 . S
C788 H759 0.931 . S
C788 C787 1.376 . S
C788 C789 1.396 . S
C789 C788 1.396 . S
C789 C790 1.348 . S
C789 C807 1.472 . S
C790 H760 0.929 . S
C790 C789 1.348 . S
C790 C791 1.443 . S
C791 H758 0.932 . S
C791 C786 1.388 . S
C791 C790 1.443 . S
C792 N772 1.433 . S
C792 C793 1.363 . S
C792 C797 1.370 . S
C793 H761 0.929 . S
C793 C792 1.363 . S
C793 C794 1.385 . S
C794 H762 0.930 . S
C794 C793 1.385 . S
C794 C795 1.357 . S
C795 C794 1.357 . S
C795 C796 1.406 . S
C796 H763 0.929 . S
C796 C795 1.406 . S
C796 C797 1.391 . S
C797 H764 0.931 . S
C797 C792 1.370 . S
C797 C796 1.391 . S
C798 N772 1.435 . S
C798 C799 1.358 . S
C798 C803 1.371 . S
C799 H765 0.930 . S
C799 C798 1.358 . S
C799 C800 1.405 . S
C800 H766 0.932 . S
C800 C799 1.405 . S
C800 C801 1.383 . S
C801 C800 1.383 . S
C801 C802 1.393 . S
C802 H767 0.931 . S
C802 C801 1.393 . S
C802 C803 1.382 . S
C803 H768 0.929 . S
C803 C798 1.371 . S
C803 C802 1.382 . S
C804 N772 1.423 . S
C804 C805 1.362 . S
C804 C809 1.388 . S
C805 H769 0.929 . S
C805 C804 1.362 . S
C805 C806 1.376 . S
C806 H770 0.931 . S
C806 C805 1.376 . S
C806 C807 1.396 . S
C807 C789 1.472 . S
C807 C806 1.396 . S
C807 C808 1.348 . S
C808 H771 0.929 . S
C808 C807 1.348 . S
C808 C809 1.443 . S
C809 H773 0.932 . S
C809 C804 1.388 . S
C809 C808 1.443 . S
H810 C837 0.929 . S
N811 C836 1.433 . S
N811 C842 1.435 . S
N811 C848 1.423 . S
H812 C838 0.930 . S
H813 C841 0.931 . S
H814 C840 0.929 . S
H815 C843 0.930 . S
H816 C844 0.932 . S
H817 C847 0.929 . S
H818 C846 0.931 . S
H819 C849 0.929 . S
H820 C853 0.932 1_655 S
H821 C850 0.931 . S
H822 C852 0.929 . S
H823 C855 0.929 . S
H824 C856 0.930 . S
H825 C858 0.929 . S
H826 C859 0.931 . S
H827 C861 0.930 . S
H828 C862 0.932 . S
H829 C864 0.931 . S
H830 C865 0.929 . S
H831 C867 0.929 . S
H832 C868 0.931 . S
H833 C870 0.929 . S
N834 C854 1.433 . S
N834 C860 1.435 . S
N834 C866 1.423 . S
H835 C871 0.932 1_655 S
C836 N811 1.433 . S
C836 C837 1.363 . S
C836 C841 1.370 1_455 S
C837 H810 0.929 . S
C837 C836 1.363 . S
C837 C838 1.385 . S
C838 H812 0.930 . S
C838 C837 1.385 . S
C838 C839 1.357 1_455 S
C839 C838 1.357 1_655 S
C839 C840 1.406 . S
C840 H814 0.929 . S
C840 C839 1.406 . S
C840 C841 1.391 . S
C841 H813 0.931 . S
C841 C836 1.370 1_655 S
C841 C840 1.391 . S
C842 N811 1.435 . S
C842 C843 1.358 1_455 S
C842 C847 1.371 . S
C843 H815 0.930 . S
C843 C842 1.358 1_655 S
C843 C844 1.405 . S
C844 H816 0.932 . S
C844 C843 1.405 . S
C844 C845 1.383 1_655 S
C845 C844 1.383 1_455 S
C845 C846 1.393 . S
C846 H818 0.931 . S
C846 C845 1.393 . S
C846 C847 1.382 . S
C847 H817 0.929 . S
C847 C842 1.371 . S
C847 C846 1.382 . S
C848 N811 1.423 . S
C848 C849 1.362 . S
C848 C853 1.388 . S
C849 H819 0.929 . S
C849 C848 1.362 . S
C849 C850 1.376 . S
C850 H821 0.931 . S
C850 C849 1.376 . S
C850 C851 1.396 . S
C851 C850 1.396 . S
C851 C852 1.348 . S
C851 C869 1.472 . S
C852 H822 0.929 . S
C852 C851 1.348 . S
C852 C853 1.443 . S
C853 H820 0.932 1_455 S
C853 C848 1.388 . S
C853 C852 1.443 . S
C854 N834 1.433 . S
C854 C855 1.363 . S
C854 C859 1.370 1_455 S
C855 H823 0.929 . S
C855 C854 1.363 . S
C855 C856 1.385 . S
C856 H824 0.930 . S
C856 C855 1.385 . S
C856 C857 1.357 1_455 S
C857 C856 1.357 1_655 S
C857 C858 1.406 . S
C858 H825 0.929 . S
C858 C857 1.406 . S
C858 C859 1.391 . S
C859 H826 0.931 . S
C859 C854 1.370 1_655 S
C859 C858 1.391 . S
C860 N834 1.435 . S
C860 C861 1.358 1_455 S
C860 C865 1.371 . S
C861 H827 0.930 . S
C861 C860 1.358 1_655 S
C861 C862 1.405 . S
C862 H828 0.932 . S
C862 C861 1.405 . S
C862 C863 1.383 1_655 S
C863 C862 1.383 1_455 S
C863 C864 1.393 . S
C864 H829 0.931 . S
C864 C863 1.393 . S
C864 C865 1.382 . S
C865 H830 0.929 . S
C865 C860 1.371 . S
C865 C864 1.382 . S
C866 N834 1.423 . S
C866 C867 1.362 . S
C866 C871 1.388 . S
C867 H831 0.929 . S
C867 C866 1.362 . S
C867 C868 1.376 . S
C868 H832 0.931 . S
C868 C867 1.376 . S
C868 C869 1.396 . S
C869 C851 1.472 . S
C869 C868 1.396 . S
C869 C870 1.348 . S
C870 H833 0.929 . S
C870 C869 1.348 . S
C870 C871 1.443 . S
C871 H835 0.932 1_455 S
C871 C866 1.388 . S
C871 C870 1.443 . S
H872 C899 0.929 . S
N873 C898 1.433 . S
N873 C904 1.435 . S
N873 C910 1.423 . S
H874 C900 0.930 . S
H875 C903 0.931 . S
H876 C902 0.929 . S
H877 C905 0.930 . S
H878 C906 0.932 . S
H879 C909 0.929 . S
H880 C908 0.931 . S
H881 C911 0.929 . S
H882 C915 0.932 . S
H883 C912 0.931 . S
H884 C914 0.929 . S
H885 C917 0.929 . S
H886 C918 0.930 . S
H887 C920 0.929 . S
H888 C921 0.931 . S
H889 C923 0.930 . S
H890 C924 0.932 . S
H891 C926 0.931 . S
H892 C927 0.929 . S
H893 C929 0.929 . S
H894 C930 0.931 . S
H895 C932 0.929 . S
N896 C916 1.433 . S
N896 C922 1.435 . S
N896 C928 1.423 . S
H897 C933 0.932 . S
C898 N873 1.433 . S
C898 C899 1.363 . S
C898 C903 1.370 . S
C899 H872 0.929 . S
C899 C898 1.363 . S
C899 C900 1.385 . S
C900 H874 0.930 . S
C900 C899 1.385 . S
C900 C901 1.357 . S
C901 C900 1.357 . S
C901 C902 1.406 . S
C902 H876 0.929 . S
C902 C901 1.406 . S
C902 C903 1.391 . S
C903 H875 0.931 . S
C903 C898 1.370 . S
C903 C902 1.391 . S
C904 N873 1.435 . S
C904 C905 1.358 . S
C904 C909 1.371 . S
C905 H877 0.930 . S
C905 C904 1.358 . S
C905 C906 1.405 . S
C906 H878 0.932 . S
C906 C905 1.405 . S
C906 C907 1.383 . S
C907 C906 1.383 . S
C907 C908 1.393 . S
C908 H880 0.931 . S
C908 C907 1.393 . S
C908 C909 1.382 . S
C909 H879 0.929 . S
C909 C904 1.371 . S
C909 C908 1.382 . S
C910 N873 1.423 . S
C910 C911 1.362 . S
C910 C915 1.388 . S
C911 H881 0.929 . S
C911 C910 1.362 . S
C911 C912 1.376 . S
C912 H883 0.931 . S
C912 C911 1.376 . S
C912 C913 1.396 . S
C913 C912 1.396 . S
C913 C914 1.348 . S
C913 C931 1.472 . S
C914 H884 0.929 . S
C914 C913 1.348 . S
C914 C915 1.443 . S
C915 H882 0.932 . S
C915 C910 1.388 . S
C915 C914 1.443 . S
C916 N896 1.433 . S
C916 C917 1.363 . S
C916 C921 1.370 . S
C917 H885 0.929 . S
C917 C916 1.363 . S
C917 C918 1.385 . S
C918 H886 0.930 . S
C918 C917 1.385 . S
C918 C919 1.357 . S
C919 C918 1.357 . S
C919 C920 1.406 . S
C920 H887 0.929 . S
C920 C919 1.406 . S
C920 C921 1.391 . S
C921 H888 0.931 . S
C921 C916 1.370 . S
C921 C920 1.391 . S
C922 N896 1.435 . S
C922 C923 1.358 . S
C922 C927 1.371 . S
C923 H889 0.930 . S
C923 C922 1.358 . S
C923 C924 1.405 . S
C924 H890 0.932 . S
C924 C923 1.405 . S
C924 C925 1.383 . S
C925 C924 1.383 . S
C925 C926 1.393 . S
C926 H891 0.931 . S
C926 C925 1.393 . S
C926 C927 1.382 . S
C927 H892 0.929 . S
C927 C922 1.371 . S
C927 C926 1.382 . S
C928 N896 1.423 . S
C928 C929 1.362 . S
C928 C933 1.388 . S
C929 H893 0.929 . S
C929 C928 1.362 . S
C929 C930 1.376 . S
C930 H894 0.931 . S
C930 C929 1.376 . S
C930 C931 1.396 . S
C931 C913 1.472 . S
C931 C930 1.396 . S
C931 C932 1.348 . S
C932 H895 0.929 . S
C932 C931 1.348 . S
C932 C933 1.443 . S
C933 H897 0.932 . S
C933 C928 1.388 . S
C933 C932 1.443 . S
H934 C961 0.929 . S
N935 C960 1.433 . S
N935 C966 1.435 . S
N935 C972 1.423 . S
H936 C962 0.930 . S
H937 C965 0.931 . S
H938 C964 0.929 . S
H939 C967 0.930 . S
H940 C968 0.932 . S
H941 C971 0.929 . S
H942 C970 0.931 . S
H943 C973 0.929 . S
H944 C977 0.932 1_545 S
H945 C974 0.931 . S
H946 C976 0.929 . S
H947 C979 0.929 . S
H948 C980 0.930 . S
H949 C982 0.929 . S
H950 C983 0.931 . S
H951 C985 0.930 . S
H952 C986 0.932 . S
H953 C988 0.931 . S
H954 C989 0.929 . S
H955 C991 0.929 . S
H956 C992 0.931 . S
H957 C994 0.929 . S
N958 C978 1.433 . S
N958 C984 1.435 . S
N958 C990 1.423 . S
H959 C995 0.932 1_545 S
C960 N935 1.433 . S
C960 C961 1.363 . S
C960 C965 1.370 1_565 S
C961 H934 0.929 . S
C961 C960 1.363 . S
C961 C962 1.385 . S
C962 H936 0.930 . S
C962 C961 1.385 . S
C962 C963 1.357 1_565 S
C963 C962 1.357 1_545 S
C963 C964 1.406 . S
C964 H938 0.929 . S
C964 C963 1.406 . S
C964 C965 1.391 . S
C965 H937 0.931 . S
C965 C960 1.370 1_545 S
C965 C964 1.391 . S
C966 N935 1.435 . S
C966 C967 1.358 1_565 S
C966 C971 1.371 . S
C967 H939 0.930 . S
C967 C966 1.358 1_545 S
C967 C968 1.405 . S
C968 H940 0.932 . S
C968 C967 1.405 . S
C968 C969 1.383 1_545 S
C969 C968 1.383 1_565 S
C969 C970 1.393 . S
C970 H942 0.931 . S
C970 C969 1.393 . S
C970 C971 1.382 . S
C971 H941 0.929 . S
C971 C966 1.371 . S
C971 C970 1.382 . S
C972 N935 1.423 . S
C972 C973 1.362 . S
C972 C977 1.388 . S
C973 H943 0.929 . S
C973 C972 1.362 . S
C973 C974 1.376 . S
C974 H945 0.931 . S
C974 C973 1.376 . S
C974 C975 1.396 . S
C975 C974 1.396 . S
C975 C976 1.348 . S
C975 C993 1.472 . S
C976 H946 0.929 . S
C976 C975 1.348 . S
C976 C977 1.443 . S
C977 H944 0.932 1_565 S
C977 C972 1.388 . S
C977 C976 1.443 . S
C978 N958 1.433 . S
C978 C979 1.363 . S
C978 C983 1.370 1_565 S
C979 H947 0.929 . S
C979 C978 1.363 . S
C979 C980 1.385 . S
C980 H948 0.930 . S
C980 C979 1.385 . S
C980 C981 1.357 1_565 S
C981 C980 1.357 1_545 S
C981 C982 1.406 . S
C982 H949 0.929 . S
C982 C981 1.406 . S
C982 C983 1.391 . S
C983 H950 0.931 . S
C983 C978 1.370 1_545 S
C983 C982 1.391 . S
C984 N958 1.435 . S
C984 C985 1.358 1_565 S
C984 C989 1.371 . S
C985 H951 0.930 . S
C985 C984 1.358 1_545 S
C985 C986 1.405 . S
C986 H952 0.932 . S
C986 C985 1.405 . S
C986 C987 1.383 1_545 S
C987 C986 1.383 1_565 S
C987 C988 1.393 . S
C988 H953 0.931 . S
C988 C987 1.393 . S
C988 C989 1.382 . S
C989 H954 0.929 . S
C989 C984 1.371 . S
C989 C988 1.382 . S
C990 N958 1.423 . S
C990 C991 1.362 . S
C990 C995 1.388 . S
C991 H955 0.929 . S
C991 C990 1.362 . S
C991 C992 1.376 . S
C992 H956 0.931 . S
C992 C991 1.376 . S
C992 C993 1.396 . S
C993 C975 1.472 . S
C993 C992 1.396 . S
C993 C994 1.348 . S
C994 H957 0.929 . S
C994 C993 1.348 . S
C994 C995 1.443 . S
C995 H959 0.932 1_565 S
C995 C990 1.388 . S
C995 C994 1.443 . S
H996 C1023 0.929 . S
N997 C1022 1.433 . S
N997 C1028 1.435 . S
N997 C1034 1.423 . S
H998 C1024 0.930 . S
H999 C1027 0.931 . S
H1000 C1026 0.929 . S
H1001 C1029 0.930 . S
H1002 C1030 0.932 . S
H1003 C1033 0.929 . S
H1004 C1032 0.931 . S
H1005 C1035 0.929 . S
H1006 C1039 0.932 . S
H1007 C1036 0.931 . S
H1008 C1038 0.919 1_545 S
H1009 C1041 0.929 . S
H1010 C1042 0.930 . S
H1011 C1044 0.929 . S
H1012 C1045 0.984 . S
H1013 C1047 0.930 . S
H1014 C1048 0.932 . S
H1015 C1050 0.931 . S
H1016 C1051 0.929 . S
H1017 C1053 0.929 . S
H1018 C1054 0.931 . S
H1019 C1056 0.884 1_545 S
N1020 C1040 1.433 . S
N1020 C1046 1.435 . S
N1020 C1052 1.423 . S
H1021 C1057 0.932 . S
C1022 N997 1.433 . S
C1022 C1023 1.363 . S
C1022 C1027 1.370 1_565 S
C1023 H996 0.929 . S
C1023 C1022 1.363 . S
C1023 C1024 1.385 . S
C1024 H998 0.930 . S
C1024 C1023 1.385 . S
C1024 C1025 1.357 . S
C1025 C1024 1.357 . S
C1025 C1026 1.406 1_565 S
C1026 H1000 0.929 . S
C1026 C1025 1.406 1_545 S
C1026 C1027 1.391 . S
C1027 H999 0.931 . S
C1027 C1022 1.370 1_545 S
C1027 C1026 1.391 . S
C1028 N997 1.435 . S
C1028 C1029 1.358 1_565 S
C1028 C1033 1.371 . S
C1029 H1001 0.930 . S
C1029 C1028 1.358 1_545 S
C1029 C1030 1.405 . S
C1030 H1002 0.932 . S
C1030 C1029 1.405 . S
C1030 C1031 1.383 . S
C1031 C1030 1.383 . S
C1031 C1032 1.393 1_545 S
C1032 H1004 0.931 . S
C1032 C1031 1.393 1_565 S
C1032 C1033 1.382 . S
C1033 H1003 0.929 . S
C1033 C1028 1.371 . S
C1033 C1032 1.382 . S
C1034 N997 1.423 . S
C1034 C1035 1.362 . S
C1034 C1039 1.388 1_565 S
C1035 H1005 0.929 . S
C1035 C1034 1.362 . S
C1035 C1036 1.376 . S
C1036 H1007 0.931 . S
C1036 C1035 1.376 . S
C1036 C1037 1.396 . S
C1037 C1036 1.396 . S
C1037 C1038 1.392 . S
C1037 C1055 1.472 . S
C1038 H1008 0.919 1_565 S
C1038 C1037 1.392 . S
C1038 C1039 1.411 1_565 S
C1039 H1006 0.932 . S
C1039 C1034 1.388 1_545 S
C1039 C1038 1.411 1_545 S
C1040 N1020 1.433 . S
C1040 C1041 1.363 . S
C1040 C1045 1.329 1_565 S
C1041 H1009 0.929 . S
C1041 C1040 1.363 . S
C1041 C1042 1.385 . S
C1042 H1010 0.930 . S
C1042 C1041 1.385 . S
C1042 C1043 1.357 . S
C1043 C1042 1.357 . S
C1043 C1044 1.406 1_565 S
C1044 H1011 0.929 . S
C1044 C1043 1.406 1_545 S
C1044 C1045 1.382 . S
C1045 H1012 0.984 . S
C1045 C1040 1.329 1_545 S
C1045 C1044 1.382 . S
C1046 N1020 1.435 . S
C1046 C1047 1.358 1_565 S
C1046 C1051 1.371 . S
C1047 H1013 0.930 . S
C1047 C1046 1.358 1_545 S
C1047 C1048 1.405 . S
C1048 H1014 0.932 . S
C1048 C1047 1.405 . S
C1048 C1049 1.383 . S
C1049 C1048 1.383 . S
C1049 C1050 1.393 1_545 S
C1050 H1015 0.931 . S
C1050 C1049 1.393 1_565 S
C1050 C1051 1.382 . S
C1051 H1016 0.929 . S
C1051 C1046 1.371 . S
C1051 C1050 1.382 . S
C1052 N1020 1.423 . S
C1052 C1053 1.362 . S
C1052 C1057 1.388 1_565 S
C1053 H1017 0.929 . S
C1053 C1052 1.362 . S
C1053 C1054 1.376 . S
C1054 H1018 0.931 . S
C1054 C1053 1.376 . S
C1054 C1055 1.396 . S
C1055 C1037 1.472 . S
C1055 C1054 1.396 . S
C1055 C1056 1.366 . S
C1056 H1019 0.884 1_565 S
C1056 C1055 1.366 . S
C1056 C1057 1.471 1_565 S
C1057 H1021 0.932 . S
C1057 C1052 1.388 1_545 S
C1057 C1056 1.471 1_545 S
H1058 C1085 0.929 . S
N1059 C1084 1.433 . S
N1059 C1090 1.435 . S
N1059 C1096 1.423 . S
H1060 C1086 0.930 . S
H1061 C1089 0.931 . S
H1062 C1088 0.929 . S
H1063 C1091 0.930 . S
H1064 C1092 0.932 . S
H1065 C1095 0.929 . S
H1066 C1094 0.931 . S
H1067 C1097 0.929 . S
H1068 C1101 0.932 1_455 S
H1069 C1098 0.931 . S
H1070 C1100 0.929 . S
H1071 C1103 0.929 . S
H1072 C1104 0.930 . S
H1073 C1106 0.929 . S
H1074 C1107 0.931 . S
H1075 C1109 0.930 . S
H1076 C1110 0.932 . S
H1077 C1112 0.931 . S
H1078 C1113 0.929 . S
H1079 C1115 0.929 . S
H1080 C1116 0.931 . S
H1081 C1118 0.929 . S
N1082 C1102 1.433 . S
N1082 C1108 1.435 . S
N1082 C1114 1.423 . S
H1083 C1119 0.932 1_455 S
C1084 N1059 1.433 . S
C1084 C1085 1.363 . S
C1084 C1089 1.370 1_655 S
C1085 H1058 0.929 . S
C1085 C1084 1.363 . S
C1085 C1086 1.385 . S
C1086 H1060 0.930 . S
C1086 C1085 1.385 . S
C1086 C1087 1.357 1_655 S
C1087 C1086 1.357 1_455 S
C1087 C1088 1.406 . S
C1088 H1062 0.929 . S
C1088 C1087 1.406 . S
C1088 C1089 1.391 . S
C1089 H1061 0.931 . S
C1089 C1084 1.370 1_455 S
C1089 C1088 1.391 . S
C1090 N1059 1.435 . S
C1090 C1091 1.358 1_655 S
C1090 C1095 1.371 . S
C1091 H1063 0.930 . S
C1091 C1090 1.358 1_455 S
C1091 C1092 1.405 . S
C1092 H1064 0.932 . S
C1092 C1091 1.405 . S
C1092 C1093 1.383 1_455 S
C1093 C1092 1.383 1_655 S
C1093 C1094 1.393 . S
C1094 H1066 0.931 . S
C1094 C1093 1.393 . S
C1094 C1095 1.382 . S
C1095 H1065 0.929 . S
C1095 C1090 1.371 . S
C1095 C1094 1.382 . S
C1096 N1059 1.423 . S
C1096 C1097 1.362 . S
C1096 C1101 1.388 . S
C1097 H1067 0.929 . S
C1097 C1096 1.362 . S
C1097 C1098 1.376 . S
C1098 H1069 0.931 . S
C1098 C1097 1.376 . S
C1098 C1099 1.396 . S
C1099 C1098 1.396 . S
C1099 C1100 1.348 . S
C1099 C1117 1.472 . S
C1100 H1070 0.929 . S
C1100 C1099 1.348 . S
C1100 C1101 1.443 . S
C1101 H1068 0.932 1_655 S
C1101 C1096 1.388 . S
C1101 C1100 1.443 . S
C1102 N1082 1.433 . S
C1102 C1103 1.363 . S
C1102 C1107 1.370 1_655 S
C1103 H1071 0.929 . S
C1103 C1102 1.363 . S
C1103 C1104 1.385 . S
C1104 H1072 0.930 . S
C1104 C1103 1.385 . S
C1104 C1105 1.357 1_655 S
C1105 C1104 1.357 1_455 S
C1105 C1106 1.406 . S
C1106 H1073 0.929 . S
C1106 C1105 1.406 . S
C1106 C1107 1.391 . S
C1107 H1074 0.931 . S
C1107 C1102 1.370 1_455 S
C1107 C1106 1.391 . S
C1108 N1082 1.435 . S
C1108 C1109 1.358 1_655 S
C1108 C1113 1.371 . S
C1109 H1075 0.930 . S
C1109 C1108 1.358 1_455 S
C1109 C1110 1.405 . S
C1110 H1076 0.932 . S
C1110 C1109 1.405 . S
C1110 C1111 1.383 1_455 S
C1111 C1110 1.383 1_655 S
C1111 C1112 1.393 . S
C1112 H1077 0.931 . S
C1112 C1111 1.393 . S
C1112 C1113 1.382 . S
C1113 H1078 0.929 . S
C1113 C1108 1.371 . S
C1113 C1112 1.382 . S
C1114 N1082 1.423 . S
C1114 C1115 1.362 . S
C1114 C1119 1.388 . S
C1115 H1079 0.929 . S
C1115 C1114 1.362 . S
C1115 C1116 1.376 . S
C1116 H1080 0.931 . S
C1116 C1115 1.376 . S
C1116 C1117 1.396 . S
C1117 C1099 1.472 . S
C1117 C1116 1.396 . S
C1117 C1118 1.348 . S
C1118 H1081 0.929 . S
C1118 C1117 1.348 . S
C1118 C1119 1.443 . S
C1119 H1083 0.932 1_655 S
C1119 C1114 1.388 . S
C1119 C1118 1.443 . S
H1120 C1147 0.929 . S
N1121 C1146 1.433 . S
N1121 C1152 1.435 . S
N1121 C1158 1.423 . S
H1122 C1148 0.930 . S
H1123 C1151 0.931 . S
H1124 C1150 0.929 . S
H1125 C1153 0.930 . S
H1126 C1154 0.932 . S
H1127 C1157 0.929 . S
H1128 C1156 0.931 . S
H1129 C1159 0.929 . S
H1130 C1163 0.932 . S
H1131 C1160 0.931 . S
H1132 C1162 0.929 . S
H1133 C1165 0.929 . S
H1134 C1166 0.930 . S
H1135 C1168 0.929 . S
H1136 C1169 0.931 . S
H1137 C1171 0.930 . S
H1138 C1172 0.932 . S
H1139 C1174 0.931 . S
H1140 C1175 0.929 . S
H1141 C1177 0.929 . S
H1142 C1178 0.931 . S
H1143 C1180 0.929 . S
N1144 C1164 1.433 . S
N1144 C1170 1.435 . S
N1144 C1176 1.423 . S
H1145 C1181 0.932 . S
C1146 N1121 1.433 . S
C1146 C1147 1.363 . S
C1146 C1151 1.370 . S
C1147 H1120 0.929 . S
C1147 C1146 1.363 . S
C1147 C1148 1.385 . S
C1148 H1122 0.930 . S
C1148 C1147 1.385 . S
C1148 C1149 1.357 . S
C1149 C1148 1.357 . S
C1149 C1150 1.406 . S
C1150 H1124 0.929 . S
C1150 C1149 1.406 . S
C1150 C1151 1.391 . S
C1151 H1123 0.931 . S
C1151 C1146 1.370 . S
C1151 C1150 1.391 . S
C1152 N1121 1.435 . S
C1152 C1153 1.358 . S
C1152 C1157 1.371 . S
C1153 H1125 0.930 . S
C1153 C1152 1.358 . S
C1153 C1154 1.405 . S
C1154 H1126 0.932 . S
C1154 C1153 1.405 . S
C1154 C1155 1.383 . S
C1155 C1154 1.383 . S
C1155 C1156 1.393 . S
C1156 H1128 0.931 . S
C1156 C1155 1.393 . S
C1156 C1157 1.382 . S
C1157 H1127 0.929 . S
C1157 C1152 1.371 . S
C1157 C1156 1.382 . S
C1158 N1121 1.423 . S
C1158 C1159 1.362 . S
C1158 C1163 1.388 . S
C1159 H1129 0.929 . S
C1159 C1158 1.362 . S
C1159 C1160 1.376 . S
C1160 H1131 0.931 . S
C1160 C1159 1.376 . S
C1160 C1161 1.396 . S
C1161 C1160 1.396 . S
C1161 C1162 1.348 . S
C1161 C1179 1.472 . S
C1162 H1132 0.929 . S
C1162 C1161 1.348 . S
C1162 C1163 1.443 . S
C1163 H1130 0.932 . S
C1163 C1158 1.388 . S
C1163 C1162 1.443 . S
C1164 N1144 1.433 . S
C1164 C1165 1.363 . S
C1164 C1169 1.370 . S
C1165 H1133 0.929 . S
C1165 C1164 1.363 . S
C1165 C1166 1.385 . S
C1166 H1134 0.930 . S
C1166 C1165 1.385 . S
C1166 C1167 1.357 . S
C1167 C1166 1.357 . S
C1167 C1168 1.406 . S
C1168 H1135 0.929 . S
C1168 C1167 1.406 . S
C1168 C1169 1.391 . S
C1169 H1136 0.931 . S
C1169 C1164 1.370 . S
C1169 C1168 1.391 . S
C1170 N1144 1.435 . S
C1170 C1171 1.358 . S
C1170 C1175 1.371 . S
C1171 H1137 0.930 . S
C1171 C1170 1.358 . S
C1171 C1172 1.405 . S
C1172 H1138 0.932 . S
C1172 C1171 1.405 . S
C1172 C1173 1.383 . S
C1173 C1172 1.383 . S
C1173 C1174 1.393 . S
C1174 H1139 0.931 . S
C1174 C1173 1.393 . S
C1174 C1175 1.382 . S
C1175 H1140 0.929 . S
C1175 C1170 1.371 . S
C1175 C1174 1.382 . S
C1176 N1144 1.423 . S
C1176 C1177 1.362 . S
C1176 C1181 1.388 . S
C1177 H1141 0.929 . S
C1177 C1176 1.362 . S
C1177 C1178 1.376 . S
C1178 H1142 0.931 . S
C1178 C1177 1.376 . S
C1178 C1179 1.396 . S
C1179 C1161 1.472 . S
C1179 C1178 1.396 . S
C1179 C1180 1.348 . S
C1180 H1143 0.929 . S
C1180 C1179 1.348 . S
C1180 C1181 1.443 . S
C1181 H1145 0.932 . S
C1181 C1176 1.388 . S
C1181 C1180 1.443 . S
H1182 C1209 0.929 . S
N1183 C1208 1.433 . S
N1183 C1214 1.435 . S
N1183 C1220 1.423 . S
H1184 C1210 0.930 . S
H1185 C1213 0.931 . S
H1186 C1212 0.929 . S
H1187 C1215 0.930 . S
H1188 C1216 0.932 . S
H1189 C1219 0.929 . S
H1190 C1218 0.931 . S
H1191 C1221 0.929 . S
H1192 C1225 0.932 . S
H1193 C1222 0.931 . S
H1194 C1224 0.929 . S
H1195 C1227 0.929 . S
H1196 C1228 0.930 . S
H1197 C1230 0.929 . S
H1198 C1231 0.931 . S
H1199 C1233 0.930 . S
H1200 C1234 0.932 . S
H1201 C1236 0.931 . S
H1202 C1237 0.929 . S
H1203 C1239 0.929 . S
H1204 C1240 0.931 . S
H1205 C1242 0.929 . S
N1206 C1226 1.433 . S
N1206 C1232 1.435 . S
N1206 C1238 1.423 . S
H1207 C1243 0.932 . S
C1208 N1183 1.433 . S
C1208 C1209 1.363 . S
C1208 C1213 1.370 . S
C1209 H1182 0.929 . S
C1209 C1208 1.363 . S
C1209 C1210 1.385 . S
C1210 H1184 0.930 . S
C1210 C1209 1.385 . S
C1210 C1211 1.357 . S
C1211 C1210 1.357 . S
C1211 C1212 1.406 . S
C1212 H1186 0.929 . S
C1212 C1211 1.406 . S
C1212 C1213 1.391 . S
C1213 H1185 0.931 . S
C1213 C1208 1.370 . S
C1213 C1212 1.391 . S
C1214 N1183 1.435 . S
C1214 C1215 1.358 . S
C1214 C1219 1.371 . S
C1215 H1187 0.930 . S
C1215 C1214 1.358 . S
C1215 C1216 1.405 . S
C1216 H1188 0.932 . S
C1216 C1215 1.405 . S
C1216 C1217 1.383 . S
C1217 C1216 1.383 . S
C1217 C1218 1.393 . S
C1218 H1190 0.931 . S
C1218 C1217 1.393 . S
C1218 C1219 1.382 . S
C1219 H1189 0.929 . S
C1219 C1214 1.371 . S
C1219 C1218 1.382 . S
C1220 N1183 1.423 . S
C1220 C1221 1.362 . S
C1220 C1225 1.388 . S
C1221 H1191 0.929 . S
C1221 C1220 1.362 . S
C1221 C1222 1.376 . S
C1222 H1193 0.931 . S
C1222 C1221 1.376 . S
C1222 C1223 1.396 . S
C1223 C1222 1.396 . S
C1223 C1224 1.348 . S
C1223 C1241 1.472 . S
C1224 H1194 0.929 . S
C1224 C1223 1.348 . S
C1224 C1225 1.443 . S
C1225 H1192 0.932 . S
C1225 C1220 1.388 . S
C1225 C1224 1.443 . S
C1226 N1206 1.433 . S
C1226 C1227 1.363 . S
C1226 C1231 1.370 . S
C1227 H1195 0.929 . S
C1227 C1226 1.363 . S
C1227 C1228 1.385 . S
C1228 H1196 0.930 . S
C1228 C1227 1.385 . S
C1228 C1229 1.357 . S
C1229 C1228 1.357 . S
C1229 C1230 1.406 . S
C1230 H1197 0.929 . S
C1230 C1229 1.406 . S
C1230 C1231 1.391 . S
C1231 H1198 0.931 . S
C1231 C1226 1.370 . S
C1231 C1230 1.391 . S
C1232 N1206 1.435 . S
C1232 C1233 1.358 . S
C1232 C1237 1.371 . S
C1233 H1199 0.930 . S
C1233 C1232 1.358 . S
C1233 C1234 1.405 . S
C1234 H1200 0.932 . S
C1234 C1233 1.405 . S
C1234 C1235 1.383 . S
C1235 C1234 1.383 . S
C1235 C1236 1.393 . S
C1236 H1201 0.931 . S
C1236 C1235 1.393 . S
C1236 C1237 1.382 . S
C1237 H1202 0.929 . S
C1237 C1232 1.371 . S
C1237 C1236 1.382 . S
C1238 N1206 1.423 . S
C1238 C1239 1.362 . S
C1238 C1243 1.388 . S
C1239 H1203 0.929 . S
C1239 C1238 1.362 . S
C1239 C1240 1.376 . S
C1240 H1204 0.931 . S
C1240 C1239 1.376 . S
C1240 C1241 1.396 . S
C1241 C1223 1.472 . S
C1241 C1240 1.396 . S
C1241 C1242 1.348 . S
C1242 H1205 0.929 . S
C1242 C1241 1.348 . S
C1242 C1243 1.443 . S
C1243 H1207 0.932 . S
C1243 C1238 1.388 . S
C1243 C1242 1.443 . S
H1244 C1271 0.929 . S
N1245 C1270 1.433 . S
N1245 C1276 1.435 . S
N1245 C1282 1.423 . S
H1246 C1272 0.930 . S
H1247 C1275 0.931 . S
H1248 C1274 0.929 . S
H1249 C1277 0.930 . S
H1250 C1278 0.932 . S
H1251 C1281 0.929 . S
H1252 C1280 0.931 . S
H1253 C1283 0.929 . S
H1254 C1287 0.932 . S
H1255 C1284 0.931 . S
H1256 C1286 0.929 . S
H1257 C1289 0.929 . S
H1258 C1290 0.930 . S
H1259 C1292 0.929 . S
H1260 C1293 0.931 . S
H1261 C1295 0.930 . S
H1262 C1296 0.932 . S
H1263 C1298 0.931 . S
H1264 C1299 0.929 . S
H1265 C1301 0.929 . S
H1266 C1302 0.931 . S
H1267 C1304 0.929 . S
N1268 C1288 1.433 . S
N1268 C1294 1.435 . S
N1268 C1300 1.423 . S
H1269 C1305 0.932 . S
C1270 N1245 1.433 . S
C1270 C1271 1.363 . S
C1270 C1275 1.370 . S
C1271 H1244 0.929 . S
C1271 C1270 1.363 . S
C1271 C1272 1.385 . S
C1272 H1246 0.930 . S
C1272 C1271 1.385 . S
C1272 C1273 1.357 . S
C1273 C1272 1.357 . S
C1273 C1274 1.406 . S
C1274 H1248 0.929 . S
C1274 C1273 1.406 . S
C1274 C1275 1.391 . S
C1275 H1247 0.931 . S
C1275 C1270 1.370 . S
C1275 C1274 1.391 . S
C1276 N1245 1.435 . S
C1276 C1277 1.358 . S
C1276 C1281 1.371 . S
C1277 H1249 0.930 . S
C1277 C1276 1.358 . S
C1277 C1278 1.405 . S
C1278 H1250 0.932 . S
C1278 C1277 1.405 . S
C1278 C1279 1.383 . S
C1279 C1278 1.383 . S
C1279 C1280 1.393 . S
C1280 H1252 0.931 . S
C1280 C1279 1.393 . S
C1280 C1281 1.382 . S
C1281 H1251 0.929 . S
C1281 C1276 1.371 . S
C1281 C1280 1.382 . S
C1282 N1245 1.423 . S
C1282 C1283 1.362 . S
C1282 C1287 1.388 . S
C1283 H1253 0.929 . S
C1283 C1282 1.362 . S
C1283 C1284 1.376 . S
C1284 H1255 0.931 . S
C1284 C1283 1.376 . S
C1284 C1285 1.396 . S
C1285 C1284 1.396 . S
C1285 C1286 1.348 . S
C1285 C1303 1.472 . S
C1286 H1256 0.929 . S
C1286 C1285 1.348 . S
C1286 C1287 1.443 . S
C1287 H1254 0.932 . S
C1287 C1282 1.388 . S
C1287 C1286 1.443 . S
C1288 N1268 1.433 . S
C1288 C1289 1.363 . S
C1288 C1293 1.370 . S
C1289 H1257 0.929 . S
C1289 C1288 1.363 . S
C1289 C1290 1.385 . S
C1290 H1258 0.930 . S
C1290 C1289 1.385 . S
C1290 C1291 1.357 . S
C1291 C1290 1.357 . S
C1291 C1292 1.406 . S
C1292 H1259 0.929 . S
C1292 C1291 1.406 . S
C1292 C1293 1.391 . S
C1293 H1260 0.931 . S
C1293 C1288 1.370 . S
C1293 C1292 1.391 . S
C1294 N1268 1.435 . S
C1294 C1295 1.358 . S
C1294 C1299 1.371 . S
C1295 H1261 0.930 . S
C1295 C1294 1.358 . S
C1295 C1296 1.405 . S
C1296 H1262 0.932 . S
C1296 C1295 1.405 . S
C1296 C1297 1.383 . S
C1297 C1296 1.383 . S
C1297 C1298 1.393 . S
C1298 H1263 0.931 . S
C1298 C1297 1.393 . S
C1298 C1299 1.382 . S
C1299 H1264 0.929 . S
C1299 C1294 1.371 . S
C1299 C1298 1.382 . S
C1300 N1268 1.423 . S
C1300 C1301 1.362 . S
C1300 C1305 1.388 . S
C1301 H1265 0.929 . S
C1301 C1300 1.362 . S
C1301 C1302 1.376 . S
C1302 H1266 0.931 . S
C1302 C1301 1.376 . S
C1302 C1303 1.396 . S
C1303 C1285 1.472 . S
C1303 C1302 1.396 . S
C1303 C1304 1.348 . S
C1304 H1267 0.929 . S
C1304 C1303 1.348 . S
C1304 C1305 1.443 . S
C1305 H1269 0.932 . S
C1305 C1300 1.388 . S
C1305 C1304 1.443 . S
H1306 C1333 0.929 . S
N1307 C1332 1.433 . S
N1307 C1338 1.435 . S
N1307 C1344 1.423 . S
H1308 C1334 0.930 . S
H1309 C1337 0.931 . S
H1310 C1336 0.929 . S
H1311 C1339 0.930 . S
H1312 C1340 0.932 . S
H1313 C1343 0.929 . S
H1314 C1342 0.931 . S
H1315 C1345 0.929 . S
H1316 C1349 0.932 . S
H1317 C1346 0.931 . S
H1318 C1348 0.929 . S
H1319 C1351 0.929 . S
H1320 C1352 0.930 . S
H1321 C1354 0.929 . S
H1322 C1355 0.931 . S
H1323 C1357 0.930 . S
H1324 C1358 0.932 . S
H1325 C1360 0.931 . S
H1326 C1361 0.929 . S
H1327 C1363 0.929 . S
H1328 C1364 0.931 . S
H1329 C1366 0.929 . S
N1330 C1350 1.433 . S
N1330 C1356 1.435 . S
N1330 C1362 1.423 . S
H1331 C1367 0.932 . S
C1332 N1307 1.433 . S
C1332 C1333 1.363 . S
C1332 C1337 1.370 . S
C1333 H1306 0.929 . S
C1333 C1332 1.363 . S
C1333 C1334 1.385 . S
C1334 H1308 0.930 . S
C1334 C1333 1.385 . S
C1334 C1335 1.357 . S
C1335 C1334 1.357 . S
C1335 C1336 1.406 . S
C1336 H1310 0.929 . S
C1336 C1335 1.406 . S
C1336 C1337 1.391 . S
C1337 H1309 0.931 . S
C1337 C1332 1.370 . S
C1337 C1336 1.391 . S
C1338 N1307 1.435 . S
C1338 C1339 1.358 . S
C1338 C1343 1.371 . S
C1339 H1311 0.930 . S
C1339 C1338 1.358 . S
C1339 C1340 1.405 . S
C1340 H1312 0.932 . S
C1340 C1339 1.405 . S
C1340 C1341 1.383 . S
C1341 C1340 1.383 . S
C1341 C1342 1.393 . S
C1342 H1314 0.931 . S
C1342 C1341 1.393 . S
C1342 C1343 1.382 . S
C1343 H1313 0.929 . S
C1343 C1338 1.371 . S
C1343 C1342 1.382 . S
C1344 N1307 1.423 . S
C1344 C1345 1.362 . S
C1344 C1349 1.388 . S
C1345 H1315 0.929 . S
C1345 C1344 1.362 . S
C1345 C1346 1.376 . S
C1346 H1317 0.931 . S
C1346 C1345 1.376 . S
C1346 C1347 1.396 . S
C1347 C1346 1.396 . S
C1347 C1348 1.348 . S
C1347 C1365 1.472 . S
C1348 H1318 0.929 . S
C1348 C1347 1.348 . S
C1348 C1349 1.443 . S
C1349 H1316 0.932 . S
C1349 C1344 1.388 . S
C1349 C1348 1.443 . S
C1350 N1330 1.433 . S
C1350 C1351 1.363 . S
C1350 C1355 1.370 . S
C1351 H1319 0.929 . S
C1351 C1350 1.363 . S
C1351 C1352 1.385 . S
C1352 H1320 0.930 . S
C1352 C1351 1.385 . S
C1352 C1353 1.357 . S
C1353 C1352 1.357 . S
C1353 C1354 1.406 . S
C1354 H1321 0.929 . S
C1354 C1353 1.406 . S
C1354 C1355 1.391 . S
C1355 H1322 0.931 . S
C1355 C1350 1.370 . S
C1355 C1354 1.391 . S
C1356 N1330 1.435 . S
C1356 C1357 1.358 . S
C1356 C1361 1.371 . S
C1357 H1323 0.930 . S
C1357 C1356 1.358 . S
C1357 C1358 1.405 . S
C1358 H1324 0.932 . S
C1358 C1357 1.405 . S
C1358 C1359 1.383 . S
C1359 C1358 1.383 . S
C1359 C1360 1.393 . S
C1360 H1325 0.931 . S
C1360 C1359 1.393 . S
C1360 C1361 1.382 . S
C1361 H1326 0.929 . S
C1361 C1356 1.371 . S
C1361 C1360 1.382 . S
C1362 N1330 1.423 . S
C1362 C1363 1.362 . S
C1362 C1367 1.388 . S
C1363 H1327 0.929 . S
C1363 C1362 1.362 . S
C1363 C1364 1.376 . S
C1364 H1328 0.931 . S
C1364 C1363 1.376 . S
C1364 C1365 1.396 . S
C1365 C1347 1.472 . S
C1365 C1364 1.396 . S
C1365 C1366 1.348 . S
C1366 H1329 0.929 . S
C1366 C1365 1.348 . S
C1366 C1367 1.443 . S
C1367 H1331 0.932 . S
C1367 C1362 1.388 . S
C1367 C1366 1.443 . S
C1368 C1369 1.363 1_455 S
C1368 C1374 1.379 . S
C1368 N1376 1.356 . S
C1369 C1368 1.363 1_655 S
C1369 C1375 1.363 . S
C1370 C1371 1.363 . S
C1370 C1375 1.379 . S
C1370 N1377 1.356 . S
C1371 C1370 1.363 . S
C1371 C1374 1.363 1_655 S
N1372 C1374 1.356 . S
N1372 H1384 0.984 . S
N1372 H1385 0.985 . S
N1373 C1375 1.356 . S
N1373 H1378 0.984 . S
N1373 H1379 0.985 . S
C1374 C1368 1.379 . S
C1374 C1371 1.363 1_455 S
C1374 N1372 1.356 . S
C1375 C1369 1.363 . S
C1375 C1370 1.379 . S
C1375 N1373 1.356 . S
N1376 C1368 1.356 . S
N1376 H1382 0.984 . S
N1376 H1383 0.984 . S
N1377 C1370 1.356 . S
N1377 H1380 0.984 . S
N1377 H1381 0.985 . S
H1378 N1373 0.984 . S
H1379 N1373 0.985 . S
H1380 N1377 0.984 . S
H1381 N1377 0.985 . S
H1382 N1376 0.984 . S
H1383 N1376 0.984 . S
H1384 N1372 0.984 . S
H1385 N1372 0.985 . S
C1386 C1387 1.363 . S
C1386 C1392 1.379 . S
C1386 N1394 1.356 . S
C1387 C1386 1.363 . S
C1387 C1393 1.363 . S
C1388 C1389 1.363 . S
C1388 C1393 1.379 . S
C1388 N1395 1.356 . S
C1389 C1388 1.363 . S
C1389 C1392 1.363 . S
N1390 C1392 1.356 . S
N1390 H1402 0.984 . S
N1390 H1403 0.985 . S
N1391 C1393 1.356 . S
N1391 H1396 0.984 . S
N1391 H1397 0.985 . S
C1392 C1386 1.379 . S
C1392 C1389 1.363 . S
C1392 N1390 1.356 . S
C1393 C1387 1.363 . S
C1393 C1388 1.379 . S
C1393 N1391 1.356 . S
N1394 C1386 1.356 . S
N1394 H1400 0.984 . S
N1394 H1401 0.984 . S
N1395 C1388 1.356 . S
N1395 H1398 0.984 . S
N1395 H1399 0.985 . S
H1396 N1391 0.984 . S
H1397 N1391 0.985 . S
H1398 N1395 0.984 . S
H1399 N1395 0.985 . S
H1400 N1394 0.984 . S
H1401 N1394 0.984 . S
H1402 N1390 0.984 . S
H1403 N1390 0.985 . S
C1404 C1405 1.363 1_565 S
C1404 C1410 1.379 . S
C1404 N1412 1.356 . S
C1405 C1404 1.363 1_545 S
C1405 C1411 1.363 . S
C1406 C1407 1.363 . S
C1406 C1411 1.379 . S
C1406 N1413 1.356 . S
C1407 C1406 1.363 . S
C1407 C1410 1.363 1_545 S
N1408 C1410 1.356 . S
N1408 H1420 0.984 . S
N1408 H1421 0.985 . S
N1409 C1411 1.356 . S
N1409 H1414 0.984 . S
N1409 H1415 0.985 . S
C1410 C1404 1.379 . S
C1410 C1407 1.363 1_565 S
C1410 N1408 1.356 . S
C1411 C1405 1.363 . S
C1411 C1406 1.379 . S
C1411 N1409 1.356 . S
N1412 C1404 1.356 . S
N1412 H1418 0.984 . S
N1412 H1419 0.984 . S
N1413 C1406 1.356 . S
N1413 H1416 0.984 . S
N1413 H1417 0.985 . S
H1414 N1409 0.984 . S
H1415 N1409 0.985 . S
H1416 N1413 0.984 . S
H1417 N1413 0.985 . S
H1418 N1412 0.984 . S
H1419 N1412 0.984 . S
H1420 N1408 0.984 . S
H1421 N1408 0.985 . S
C1422 C1423 1.363 . S
C1422 C1428 1.379 . S
C1422 N1430 1.356 . S
C1423 C1422 1.363 . S
C1423 C1429 1.363 1_565 S
C1424 C1425 1.363 1_545 S
C1424 C1429 1.379 . S
C1424 N1431 1.356 . S
C1425 C1424 1.363 1_565 S
C1425 C1428 1.363 . S
N1426 C1428 1.356 . S
N1426 H1438 0.984 . S
N1426 H1439 0.985 . S
N1427 C1429 1.356 . S
N1427 H1432 0.984 . S
N1427 H1433 0.985 . S
C1428 C1422 1.379 . S
C1428 C1425 1.363 . S
C1428 N1426 1.356 . S
C1429 C1423 1.363 1_545 S
C1429 C1424 1.379 . S
C1429 N1427 1.356 . S
N1430 C1422 1.356 . S
N1430 H1436 0.984 . S
N1430 H1437 0.984 . S
N1431 C1424 1.356 . S
N1431 H1434 0.984 . S
N1431 H1435 0.985 . S
H1432 N1427 0.984 . S
H1433 N1427 0.985 . S
H1434 N1431 0.984 . S
H1435 N1431 0.985 . S
H1436 N1430 0.984 . S
H1437 N1430 0.984 . S
H1438 N1426 0.984 . S
H1439 N1426 0.985 . S
C1440 C1441 1.363 . S
C1440 C1446 1.379 . S
C1440 N1448 1.364 . S
C1441 C1440 1.363 . S
C1441 C1447 1.363 . S
C1442 C1443 1.363 . S
C1442 C1447 1.379 . S
C1442 N1449 1.356 . S
C1443 C1442 1.363 . S
C1443 C1446 1.363 . S
N1444 C1446 1.356 . S
N1444 H1456 0.984 . S
N1444 H1457 0.985 . S
N1445 C1447 1.356 . S
N1445 H1450 0.984 . S
N1445 H1451 0.985 . S
C1446 C1440 1.379 . S
C1446 C1443 1.363 . S
C1446 N1444 1.356 . S
C1447 C1441 1.363 . S
C1447 C1442 1.379 . S
C1447 N1445 1.356 . S
N1448 C1440 1.364 . S
N1448 H1454 0.953 1_455 S
N1448 H1455 1.000 . S
N1449 C1442 1.356 . S
N1449 H1452 0.984 . S
N1449 H1453 0.985 . S
H1450 N1445 0.984 . S
H1451 N1445 0.985 . S
H1452 N1449 0.984 . S
H1453 N1449 0.985 . S
H1454 N1448 0.953 1_655 S
H1455 N1448 1.000 . S
H1456 N1444 0.984 . S
H1457 N1444 0.985 . S
C1458 C1459 1.363 . S
C1458 C1464 1.379 . S
C1458 N1466 1.356 . S
C1459 C1458 1.363 . S
C1459 C1465 1.363 . S
C1460 C1461 1.363 . S
C1460 C1465 1.379 . S
C1460 N1467 1.356 . S
C1461 C1460 1.363 . S
C1461 C1464 1.363 . S
N1462 C1464 1.356 . S
N1462 H1474 0.984 . S
N1462 H1475 0.985 . S
N1463 C1465 1.356 . S
N1463 H1468 0.984 . S
N1463 H1469 0.985 . S
C1464 C1458 1.379 . S
C1464 C1461 1.363 . S
C1464 N1462 1.356 . S
C1465 C1459 1.363 . S
C1465 C1460 1.379 . S
C1465 N1463 1.356 . S
N1466 C1458 1.356 . S
N1466 H1472 0.984 . S
N1466 H1473 0.984 . S
N1467 C1460 1.356 . S
N1467 H1470 0.984 . S
N1467 H1471 0.985 . S
H1468 N1463 0.984 . S
H1469 N1463 0.985 . S
H1470 N1467 0.984 . S
H1471 N1467 0.985 . S
H1472 N1466 0.984 . S
H1473 N1466 0.984 . S
H1474 N1462 0.984 . S
H1475 N1462 0.985 . S
C1476 C1477 1.363 . S
C1476 C1482 1.379 . S
C1476 N1484 1.356 . S
C1477 C1476 1.363 . S
C1477 C1483 1.363 . S
C1478 C1479 1.363 . S
C1478 C1483 1.379 . S
C1478 N1485 1.356 . S
C1479 C1478 1.363 . S
C1479 C1482 1.363 . S
N1480 C1482 1.356 . S
N1480 H1492 0.984 . S
N1480 H1493 0.985 . S
N1481 C1483 1.357 1_655 S
N1481 H1486 0.982 . S
N1481 H1487 0.987 . S
C1482 C1476 1.379 . S
C1482 C1479 1.363 . S
C1482 N1480 1.356 . S
C1483 C1477 1.363 . S
C1483 C1478 1.379 . S
C1483 N1481 1.357 1_455 S
N1484 C1476 1.356 . S
N1484 H1490 0.984 . S
N1484 H1491 0.984 . S
N1485 C1478 1.356 . S
N1485 H1488 0.984 . S
N1485 H1489 0.982 . S
H1486 N1481 0.982 . S
H1487 N1481 0.987 . S
H1488 N1485 0.984 . S
H1489 N1485 0.982 . S
H1490 N1484 0.984 . S
H1491 N1484 0.984 . S
H1492 N1480 0.984 . S
H1493 N1480 0.985 . S
C1494 C1495 1.363 . S
C1494 C1500 1.379 . S
C1494 N1502 1.356 . S
C1495 C1494 1.363 . S
C1495 C1501 1.363 . S
C1496 C1497 1.363 . S
C1496 C1501 1.379 . S
C1496 N1503 1.356 . S
C1497 C1496 1.363 . S
C1497 C1500 1.363 . S
N1498 C1500 1.356 . S
N1498 H1510 0.984 . S
N1498 H1511 0.985 . S
N1499 C1501 1.356 . S
N1499 H1504 0.984 . S
N1499 H1505 0.985 . S
C1500 C1494 1.379 . S
C1500 C1497 1.363 . S
C1500 N1498 1.356 . S
C1501 C1495 1.363 . S
C1501 C1496 1.379 . S
C1501 N1499 1.356 . S
N1502 C1494 1.356 . S
N1502 H1508 0.984 . S
N1502 H1509 0.984 . S
N1503 C1496 1.356 . S
N1503 H1506 0.984 . S
N1503 H1507 0.985 . S
H1504 N1499 0.984 . S
H1505 N1499 0.985 . S
H1506 N1503 0.984 . S
H1507 N1503 0.985 . S
H1508 N1502 0.984 . S
H1509 N1502 0.984 . S
H1510 N1498 0.984 . S
H1511 N1498 0.985 . S
C1512 C1513 1.363 . S
C1512 C1518 1.379 . S
C1512 N1520 1.356 . S
C1513 C1512 1.363 . S
C1513 C1519 1.363 1_565 S
C1514 C1515 1.363 1_545 S
C1514 C1519 1.379 . S
C1514 N1521 1.356 . S
C1515 C1514 1.363 1_565 S
C1515 C1518 1.363 . S
N1516 C1518 1.356 . S
N1516 H1528 0.984 . S
N1516 H1529 0.985 . S
N1517 C1519 1.356 . S
N1517 H1522 0.984 . S
N1517 H1523 0.985 . S
C1518 C1512 1.379 . S
C1518 C1515 1.363 . S
C1518 N1516 1.356 . S
C1519 C1513 1.363 1_545 S
C1519 C1514 1.379 . S
C1519 N1517 1.356 . S
N1520 C1512 1.356 . S
N1520 H1526 0.984 . S
N1520 H1527 0.984 . S
N1521 C1514 1.356 . S
N1521 H1524 0.984 . S
N1521 H1525 0.985 . S
H1522 N1517 0.984 . S
H1523 N1517 0.985 . S
H1524 N1521 0.984 . S
H1525 N1521 0.985 . S
H1526 N1520 0.984 . S
H1527 N1520 0.984 . S
H1528 N1516 0.984 . S
H1529 N1516 0.985 . S
C1530 C1531 1.363 . S
C1530 C1536 1.379 . S
C1530 N1538 1.356 . S
C1531 C1530 1.363 . S
C1531 C1537 1.363 1_545 S
C1532 C1533 1.363 1_565 S
C1532 C1537 1.379 . S
C1532 N1539 1.356 . S
C1533 C1532 1.363 1_545 S
C1533 C1536 1.363 . S
N1534 C1536 1.356 . S
N1534 H1546 0.984 . S
N1534 H1547 0.985 . S
N1535 C1537 1.356 . S
N1535 H1540 0.984 . S
N1535 H1541 0.985 . S
C1536 C1530 1.379 . S
C1536 C1533 1.363 . S
C1536 N1534 1.356 . S
C1537 C1531 1.363 1_565 S
C1537 C1532 1.379 . S
C1537 N1535 1.356 . S
N1538 C1530 1.356 . S
N1538 H1544 0.984 . S
N1538 H1545 0.984 . S
N1539 C1532 1.356 . S
N1539 H1542 0.984 . S
N1539 H1543 0.985 . S
H1540 N1535 0.984 . S
H1541 N1535 0.985 . S
H1542 N1539 0.984 . S
H1543 N1539 0.985 . S
H1544 N1538 0.984 . S
H1545 N1538 0.984 . S
H1546 N1534 0.984 . S
H1547 N1534 0.985 . S
C1548 C1549 1.363 . S
C1548 C1554 1.379 . S
C1548 N1556 1.356 . S
C1549 C1548 1.363 . S
C1549 C1555 1.363 1_655 S
C1550 C1551 1.363 1_455 S
C1550 C1555 1.379 . S
C1550 N1557 1.356 . S
C1551 C1550 1.363 1_655 S
C1551 C1554 1.363 . S
N1552 C1554 1.356 . S
N1552 H1564 0.984 . S
N1552 H1565 0.985 . S
N1553 C1555 1.356 . S
N1553 H1558 0.984 . S
N1553 H1559 0.985 . S
C1554 C1548 1.379 . S
C1554 C1551 1.363 . S
C1554 N1552 1.356 . S
C1555 C1549 1.363 1_455 S
C1555 C1550 1.379 . S
C1555 N1553 1.356 . S
N1556 C1548 1.356 . S
N1556 H1562 0.984 . S
N1556 H1563 0.984 . S
N1557 C1550 1.356 . S
N1557 H1560 0.984 . S
N1557 H1561 0.985 . S
H1558 N1553 0.984 . S
H1559 N1553 0.985 . S
H1560 N1557 0.984 . S
H1561 N1557 0.985 . S
H1562 N1556 0.984 . S
H1563 N1556 0.984 . S
H1564 N1552 0.984 . S
H1565 N1552 0.985 . S
C1566 C1567 1.363 . S
C1566 C1572 1.379 . S
C1566 N1574 1.356 . S
C1567 C1566 1.363 . S
C1567 C1573 1.363 . S
C1568 C1569 1.363 . S
C1568 C1573 1.379 . S
C1568 N1575 1.356 . S
C1569 C1568 1.363 . S
C1569 C1572 1.363 . S
N1570 C1572 1.356 . S
N1570 H1582 0.984 . S
N1570 H1583 0.985 . S
N1571 C1573 1.356 . S
N1571 H1576 0.984 . S
N1571 H1577 0.985 . S
C1572 C1566 1.379 . S
C1572 C1569 1.363 . S
C1572 N1570 1.356 . S
C1573 C1567 1.363 . S
C1573 C1568 1.379 . S
C1573 N1571 1.356 . S
N1574 C1566 1.356 . S
N1574 H1580 0.984 . S
N1574 H1581 0.984 . S
N1575 C1568 1.356 . S
N1575 H1578 0.984 . S
N1575 H1579 0.985 . S
H1576 N1571 0.984 . S
H1577 N1571 0.985 . S
H1578 N1575 0.984 . S
H1579 N1575 0.985 . S
H1580 N1574 0.984 . S
H1581 N1574 0.984 . S
H1582 N1570 0.984 . S
H1583 N1570 0.985 . S
C1584 C1585 1.363 . S
C1584 C1590 1.379 . S
C1584 N1592 1.356 . S
C1585 C1584 1.363 . S
C1585 C1591 1.363 . S
C1586 C1587 1.363 . S
C1586 C1591 1.379 . S
C1586 N1593 1.356 . S
C1587 C1586 1.363 . S
C1587 C1590 1.363 . S
N1588 C1590 1.356 . S
N1588 H1600 0.984 . S
N1588 H1601 0.985 . S
N1589 C1591 1.356 . S
N1589 H1594 0.984 . S
N1589 H1595 0.985 . S
C1590 C1584 1.379 . S
C1590 C1587 1.363 . S
C1590 N1588 1.356 . S
C1591 C1585 1.363 . S
C1591 C1586 1.379 . S
C1591 N1589 1.356 . S
N1592 C1584 1.356 . S
N1592 H1598 0.984 . S
N1592 H1599 0.984 . S
N1593 C1586 1.356 . S
N1593 H1596 0.984 . S
N1593 H1597 0.985 . S
H1594 N1589 0.984 . S
H1595 N1589 0.985 . S
H1596 N1593 0.984 . S
H1597 N1593 0.985 . S
H1598 N1592 0.984 . S
H1599 N1592 0.984 . S
H1600 N1588 0.984 . S
H1601 N1588 0.985 . S
C1602 C1603 1.363 . S
C1602 C1608 1.379 . S
C1602 N1610 1.356 . S
C1603 C1602 1.363 . S
C1603 C1609 1.363 . S
C1604 C1605 1.363 . S
C1604 C1609 1.379 . S
C1604 N1611 1.356 . S
C1605 C1604 1.363 . S
C1605 C1608 1.363 . S
N1606 C1608 1.356 . S
N1606 H1618 0.984 . S
N1606 H1619 0.985 . S
N1607 C1609 1.356 . S
N1607 H1612 0.984 . S
N1607 H1613 0.985 . S
C1608 C1602 1.379 . S
C1608 C1605 1.363 . S
C1608 N1606 1.356 . S
C1609 C1603 1.363 . S
C1609 C1604 1.379 . S
C1609 N1607 1.356 . S
N1610 C1602 1.356 . S
N1610 H1616 0.984 . S
N1610 H1617 0.984 . S
N1611 C1604 1.356 . S
N1611 H1614 0.984 . S
N1611 H1615 0.985 . S
H1612 N1607 0.984 . S
H1613 N1607 0.985 . S
H1614 N1611 0.984 . S
H1615 N1611 0.985 . S
H1616 N1610 0.984 . S
H1617 N1610 0.984 . S
H1618 N1606 0.984 . S
H1619 N1606 0.985 . S
C1620 C1621 1.363 . S
C1620 C1626 1.379 . S
C1620 N1628 1.356 . S
C1621 C1620 1.363 . S
C1621 C1627 1.363 . S
C1622 C1623 1.363 . S
C1622 C1627 1.379 . S
C1622 N1629 1.356 . S
C1623 C1622 1.363 . S
C1623 C1626 1.363 . S
N1624 C1626 1.356 . S
N1624 H1636 0.984 . S
N1624 H1637 0.985 . S
N1625 C1627 1.356 . S
N1625 H1630 0.984 . S
N1625 H1631 0.985 . S
C1626 C1620 1.379 . S
C1626 C1623 1.363 . S
C1626 N1624 1.356 . S
C1627 C1621 1.363 . S
C1627 C1622 1.379 . S
C1627 N1625 1.356 . S
N1628 C1620 1.356 . S
N1628 H1634 0.984 . S
N1628 H1635 0.984 . S
N1629 C1622 1.356 . S
N1629 H1632 0.984 . S
N1629 H1633 0.985 . S
H1630 N1625 0.984 . S
H1631 N1625 0.985 . S
H1632 N1629 0.984 . S
H1633 N1629 0.985 . S
H1634 N1628 0.984 . S
H1635 N1628 0.984 . S
H1636 N1624 0.984 . S
H1637 N1624 0.985 . S
C1638 C1639 1.363 . S
C1638 C1644 1.379 . S
C1638 N1646 1.356 . S
C1639 C1638 1.363 . S
C1639 C1645 1.363 . S
C1640 C1641 1.363 . S
C1640 C1645 1.379 . S
C1640 N1647 1.356 . S
C1641 C1640 1.363 . S
C1641 C1644 1.363 . S
N1642 C1644 1.356 . S
N1642 H1654 0.984 . S
N1642 H1655 0.985 . S
N1643 C1645 1.356 . S
N1643 H1648 0.984 . S
N1643 H1649 0.985 . S
C1644 C1638 1.379 . S
C1644 C1641 1.363 . S
C1644 N1642 1.356 . S
C1645 C1639 1.363 . S
C1645 C1640 1.379 . S
C1645 N1643 1.356 . S
N1646 C1638 1.356 . S
N1646 H1652 0.984 . S
N1646 H1653 0.984 . S
N1647 C1640 1.356 . S
N1647 H1650 0.984 . S
N1647 H1651 0.985 . S
H1648 N1643 0.984 . S
H1649 N1643 0.985 . S
H1650 N1647 0.984 . S
H1651 N1647 0.985 . S
H1652 N1646 0.984 . S
H1653 N1646 0.984 . S
H1654 N1642 0.984 . S
H1655 N1642 0.985 . S
C1656 C1657 1.363 . S
C1656 C1662 1.379 . S
C1656 N1664 1.356 . S
C1657 C1656 1.363 . S
C1657 C1663 1.363 . S
C1658 C1659 1.363 . S
C1658 C1663 1.379 . S
C1658 N1665 1.356 . S
C1659 C1658 1.363 . S
C1659 C1662 1.363 . S
N1660 C1662 1.356 . S
N1660 H1672 0.984 . S
N1660 H1673 0.985 . S
N1661 C1663 1.356 . S
N1661 H1666 0.984 . S
N1661 H1667 0.985 . S
C1662 C1656 1.379 . S
C1662 C1659 1.363 . S
C1662 N1660 1.356 . S
C1663 C1657 1.363 . S
C1663 C1658 1.379 . S
C1663 N1661 1.356 . S
N1664 C1656 1.356 . S
N1664 H1670 0.984 . S
N1664 H1671 0.984 . S
N1665 C1658 1.356 . S
N1665 H1668 0.984 . S
N1665 H1669 0.985 . S
H1666 N1661 0.984 . S
H1667 N1661 0.985 . S
H1668 N1665 0.984 . S
H1669 N1665 0.985 . S
H1670 N1664 0.984 . S
H1671 N1664 0.984 . S
H1672 N1660 0.984 . S
H1673 N1660 0.985 . S
C1674 C1675 1.363 . S
C1674 C1680 1.379 . S
C1674 N1682 1.356 . S
C1675 C1674 1.363 . S
C1675 C1681 1.363 . S
C1676 C1677 1.363 . S
C1676 C1681 1.379 . S
C1676 N1683 1.356 . S
C1677 C1676 1.363 . S
C1677 C1680 1.363 . S
N1678 C1680 1.356 . S
N1678 H1690 0.984 . S
N1678 H1691 0.985 . S
N1679 C1681 1.356 . S
N1679 H1684 0.984 . S
N1679 H1685 0.985 . S
C1680 C1674 1.379 . S
C1680 C1677 1.363 . S
C1680 N1678 1.356 . S
C1681 C1675 1.363 . S
C1681 C1676 1.379 . S
C1681 N1679 1.356 . S
N1682 C1674 1.356 . S
N1682 H1688 0.984 . S
N1682 H1689 0.984 . S
N1683 C1676 1.356 . S
N1683 H1686 0.984 . S
N1683 H1687 0.985 . S
H1684 N1679 0.984 . S
H1685 N1679 0.985 . S
H1686 N1683 0.984 . S
H1687 N1683 0.985 . S
H1688 N1682 0.984 . S
H1689 N1682 0.984 . S
H1690 N1678 0.984 . S
H1691 N1678 0.985 . S
C1692 C1693 1.363 . S
C1692 C1698 1.379 . S
C1692 N1700 1.356 . S
C1693 C1692 1.363 . S
C1693 C1699 1.363 . S
C1694 C1695 1.363 . S
C1694 C1699 1.379 . S
C1694 N1701 1.356 . S
C1695 C1694 1.363 . S
C1695 C1698 1.363 . S
N1696 C1698 1.356 . S
N1696 H1708 0.984 . S
N1696 H1709 0.985 . S
N1697 C1699 1.356 . S
N1697 H1702 0.984 . S
N1697 H1703 0.985 . S
C1698 C1692 1.379 . S
C1698 C1695 1.363 . S
C1698 N1696 1.356 . S
C1699 C1693 1.363 . S
C1699 C1694 1.379 . S
C1699 N1697 1.356 . S
N1700 C1692 1.356 . S
N1700 H1706 0.984 . S
N1700 H1707 0.984 . S
N1701 C1694 1.356 . S
N1701 H1704 0.984 . S
N1701 H1705 0.985 . S
H1702 N1697 0.984 . S
H1703 N1697 0.985 . S
H1704 N1701 0.984 . S
H1705 N1701 0.985 . S
H1706 N1700 0.984 . S
H1707 N1700 0.984 . S
H1708 N1696 0.984 . S
H1709 N1696 0.985 . S
C1710 C1711 1.363 . S
C1710 C1716 1.379 . S
C1710 N1718 1.356 . S
C1711 C1710 1.363 . S
C1711 C1717 1.363 . S
C1712 C1713 1.363 . S
C1712 C1717 1.379 . S
C1712 N1719 1.356 . S
C1713 C1712 1.363 . S
C1713 C1716 1.363 . S
N1714 C1716 1.356 . S
N1714 H1726 0.984 . S
N1714 H1727 0.985 . S
N1715 C1717 1.356 . S
N1715 H1720 0.984 . S
N1715 H1721 0.985 . S
C1716 C1710 1.379 . S
C1716 C1713 1.363 . S
C1716 N1714 1.356 . S
C1717 C1711 1.363 . S
C1717 C1712 1.379 . S
C1717 N1715 1.356 . S
N1718 C1710 1.356 . S
N1718 H1724 0.984 . S
N1718 H1725 0.984 . S
N1719 C1712 1.356 . S
N1719 H1722 0.984 . S
N1719 H1723 0.985 . S
H1720 N1715 0.984 . S
H1721 N1715 0.985 . S
H1722 N1719 0.984 . S
H1723 N1719 0.985 . S
H1724 N1718 0.984 . S
H1725 N1718 0.984 . S
H1726 N1714 0.984 . S
H1727 N1714 0.985 . S
C1728 C1729 1.363 . S
C1728 C1734 1.379 . S
C1728 N1736 1.356 . S
C1729 C1728 1.363 . S
C1729 C1735 1.363 . S
C1730 C1731 1.363 . S
C1730 C1735 1.379 . S
C1730 N1737 1.356 . S
C1731 C1730 1.363 . S
C1731 C1734 1.363 . S
N1732 C1734 1.356 . S
N1732 H1744 0.984 . S
N1732 H1745 0.985 . S
N1733 C1735 1.356 . S
N1733 H1738 0.984 . S
N1733 H1739 0.985 . S
C1734 C1728 1.379 . S
C1734 C1731 1.363 . S
C1734 N1732 1.356 . S
C1735 C1729 1.363 . S
C1735 C1730 1.379 . S
C1735 N1733 1.356 . S
N1736 C1728 1.356 . S
N1736 H1742 0.984 . S
N1736 H1743 0.984 . S
N1737 C1730 1.356 . S
N1737 H1740 0.984 . S
N1737 H1741 0.985 . S
H1738 N1733 0.984 . S
H1739 N1733 0.985 . S
H1740 N1737 0.984 . S
H1741 N1737 0.985 . S
H1742 N1736 0.984 . S
H1743 N1736 0.984 . S
H1744 N1732 0.984 . S
H1745 N1732 0.985 . S
C1746 C1747 1.363 . S
C1746 C1752 1.379 . S
C1746 N1754 1.356 . S
C1747 C1746 1.363 . S
C1747 C1753 1.363 . S
C1748 C1749 1.363 . S
C1748 C1753 1.379 . S
C1748 N1755 1.356 . S
C1749 C1748 1.363 . S
C1749 C1752 1.363 . S
N1750 C1752 1.356 . S
N1750 H1762 0.984 . S
N1750 H1763 0.985 . S
N1751 C1753 1.356 . S
N1751 H1756 0.984 . S
N1751 H1757 0.985 . S
C1752 C1746 1.379 . S
C1752 C1749 1.363 . S
C1752 N1750 1.356 . S
C1753 C1747 1.363 . S
C1753 C1748 1.379 . S
C1753 N1751 1.356 . S
N1754 C1746 1.356 . S
N1754 H1760 0.984 . S
N1754 H1761 0.984 . S
N1755 C1748 1.356 . S
N1755 H1758 0.984 . S
N1755 H1759 0.985 . S
H1756 N1751 0.984 . S
H1757 N1751 0.985 . S
H1758 N1755 0.984 . S
H1759 N1755 0.985 . S
H1760 N1754 0.984 . S
H1761 N1754 0.984 . S
H1762 N1750 0.984 . S
H1763 N1750 0.985 . S
C1764 C1765 1.363 . S
C1764 C1770 1.379 . S
C1764 N1772 1.356 . S
C1765 C1764 1.363 . S
C1765 C1771 1.363 . S
C1766 C1767 1.363 . S
C1766 C1771 1.379 . S
C1766 N1773 1.356 . S
C1767 C1766 1.363 . S
C1767 C1770 1.363 . S
N1768 C1770 1.356 . S
N1768 H1780 0.984 . S
N1768 H1781 0.985 . S
N1769 C1771 1.356 . S
N1769 H1774 0.984 . S
N1769 H1775 0.985 . S
C1770 C1764 1.379 . S
C1770 C1767 1.363 . S
C1770 N1768 1.356 . S
C1771 C1765 1.363 . S
C1771 C1766 1.379 . S
C1771 N1769 1.356 . S
N1772 C1764 1.356 . S
N1772 H1778 0.984 . S
N1772 H1779 0.984 . S
N1773 C1766 1.356 . S
N1773 H1776 0.984 . S
N1773 H1777 0.985 . S
H1774 N1769 0.984 . S
H1775 N1769 0.985 . S
H1776 N1773 0.984 . S
H1777 N1773 0.985 . S
H1778 N1772 0.984 . S
H1779 N1772 0.984 . S
H1780 N1768 0.984 . S
H1781 N1768 0.985 . S
C1782 C1783 1.363 . S
C1782 C1788 1.379 . S
C1782 N1790 1.356 . S
C1783 C1782 1.363 . S
C1783 C1789 1.363 . S
C1784 C1785 1.363 . S
C1784 C1789 1.379 . S
C1784 N1791 1.356 . S
C1785 C1784 1.363 . S
C1785 C1788 1.363 . S
N1786 C1788 1.356 . S
N1786 H1798 0.984 . S
N1786 H1799 0.985 . S
N1787 C1789 1.356 . S
N1787 H1792 0.984 . S
N1787 H1793 0.985 . S
C1788 C1782 1.379 . S
C1788 C1785 1.363 . S
C1788 N1786 1.356 . S
C1789 C1783 1.363 . S
C1789 C1784 1.379 . S
C1789 N1787 1.356 . S
N1790 C1782 1.356 . S
N1790 H1796 0.984 . S
N1790 H1797 0.984 . S
N1791 C1784 1.356 . S
N1791 H1794 0.984 . S
N1791 H1795 0.985 . S
H1792 N1787 0.984 . S
H1793 N1787 0.985 . S
H1794 N1791 0.984 . S
H1795 N1791 0.985 . S
H1796 N1790 0.984 . S
H1797 N1790 0.984 . S
H1798 N1786 0.984 . S
H1799 N1786 0.985 . S
C1800 C1801 1.363 . S
C1800 C1806 1.379 . S
C1800 N1808 1.356 . S
C1801 C1800 1.363 . S
C1801 C1807 1.363 . S
C1802 C1803 1.363 . S
C1802 C1807 1.379 . S
C1802 N1809 1.356 . S
C1803 C1802 1.363 . S
C1803 C1806 1.363 . S
N1804 C1806 1.356 . S
N1804 H1816 0.984 . S
N1804 H1817 0.985 . S
N1805 C1807 1.356 . S
N1805 H1810 0.984 . S
N1805 H1811 0.985 . S
C1806 C1800 1.379 . S
C1806 C1803 1.363 . S
C1806 N1804 1.356 . S
C1807 C1801 1.363 . S
C1807 C1802 1.379 . S
C1807 N1805 1.356 . S
N1808 C1800 1.356 . S
N1808 H1814 0.984 . S
N1808 H1815 0.984 . S
N1809 C1802 1.356 . S
N1809 H1812 0.984 . S
N1809 H1813 0.985 . S
H1810 N1805 0.984 . S
H1811 N1805 0.985 . S
H1812 N1809 0.984 . S
H1813 N1809 0.985 . S
H1814 N1808 0.984 . S
H1815 N1808 0.984 . S
H1816 N1804 0.984 . S
H1817 N1804 0.985 . S
C1818 C1819 1.363 . S
C1818 C1824 1.379 . S
C1818 N1826 1.356 . S
C1819 C1818 1.363 . S
C1819 C1825 1.363 . S
C1820 C1821 1.363 . S
C1820 C1825 1.379 . S
C1820 N1827 1.356 . S
C1821 C1820 1.363 . S
C1821 C1824 1.363 . S
N1822 C1824 1.356 . S
N1822 H1834 0.984 . S
N1822 H1835 0.985 . S
N1823 C1825 1.356 . S
N1823 H1828 0.984 . S
N1823 H1829 0.985 . S
C1824 C1818 1.379 . S
C1824 C1821 1.363 . S
C1824 N1822 1.356 . S
C1825 C1819 1.363 . S
C1825 C1820 1.379 . S
C1825 N1823 1.356 . S
N1826 C1818 1.356 . S
N1826 H1832 0.984 . S
N1826 H1833 0.984 . S
N1827 C1820 1.356 . S
N1827 H1830 0.984 . S
N1827 H1831 0.985 . S
H1828 N1823 0.984 . S
H1829 N1823 0.985 . S
H1830 N1827 0.984 . S
H1831 N1827 0.985 . S
H1832 N1826 0.984 . S
H1833 N1826 0.984 . S
H1834 N1822 0.984 . S
H1835 N1822 0.985 . S
C1836 C1837 1.363 . S
C1836 C1842 1.379 . S
C1836 N1844 1.356 . S
C1837 C1836 1.363 . S
C1837 C1843 1.363 . S
C1838 C1839 1.363 . S
C1838 C1843 1.379 . S
C1838 N1845 1.356 . S
C1839 C1838 1.363 . S
C1839 C1842 1.363 . S
N1840 C1842 1.356 . S
N1840 H1852 0.984 . S
N1840 H1853 0.985 . S
N1841 C1843 1.356 . S
N1841 H1846 0.984 . S
N1841 H1847 0.985 . S
C1842 C1836 1.379 . S
C1842 C1839 1.363 . S
C1842 N1840 1.356 . S
C1843 C1837 1.363 . S
C1843 C1838 1.379 . S
C1843 N1841 1.356 . S
N1844 C1836 1.356 . S
N1844 H1850 0.984 . S
N1844 H1851 0.984 . S
N1845 C1838 1.356 . S
N1845 H1848 0.984 . S
N1845 H1849 0.985 . S
H1846 N1841 0.984 . S
H1847 N1841 0.985 . S
H1848 N1845 0.984 . S
H1849 N1845 0.985 . S
H1850 N1844 0.984 . S
H1851 N1844 0.984 . S
H1852 N1840 0.984 . S
H1853 N1840 0.985 . S
C1854 C1855 1.363 . S
C1854 C1860 1.379 . S
C1854 N1862 1.356 . S
C1855 C1854 1.363 . S
C1855 C1861 1.363 . S
C1856 C1857 1.363 . S
C1856 C1861 1.379 . S
C1856 N1863 1.356 . S
C1857 C1856 1.363 . S
C1857 C1860 1.363 . S
N1858 C1860 1.356 . S
N1858 H1870 0.984 . S
N1858 H1871 0.985 . S
N1859 C1861 1.356 . S
N1859 H1864 0.984 . S
N1859 H1865 0.985 . S
C1860 C1854 1.379 . S
C1860 C1857 1.363 . S
C1860 N1858 1.356 . S
C1861 C1855 1.363 . S
C1861 C1856 1.379 . S
C1861 N1859 1.356 . S
N1862 C1854 1.356 . S
N1862 H1868 0.984 . S
N1862 H1869 0.984 . S
N1863 C1856 1.356 . S
N1863 H1866 0.984 . S
N1863 H1867 0.985 . S
H1864 N1859 0.984 . S
H1865 N1859 0.985 . S
H1866 N1863 0.984 . S
H1867 N1863 0.985 . S
H1868 N1862 0.984 . S
H1869 N1862 0.984 . S
H1870 N1858 0.984 . S
H1871 N1858 0.985 . S
C1872 C1873 1.363 . S
C1872 C1878 1.379 . S
C1872 N1880 1.356 . S
C1873 C1872 1.363 . S
C1873 C1879 1.363 . S
C1874 C1875 1.363 . S
C1874 C1879 1.379 . S
C1874 N1881 1.356 . S
C1875 C1874 1.363 . S
C1875 C1878 1.363 . S
N1876 C1878 1.356 . S
N1876 H1888 0.984 . S
N1876 H1889 0.985 . S
N1877 C1879 1.356 . S
N1877 H1882 0.984 . S
N1877 H1883 0.985 . S
C1878 C1872 1.379 . S
C1878 C1875 1.363 . S
C1878 N1876 1.356 . S
C1879 C1873 1.363 . S
C1879 C1874 1.379 . S
C1879 N1877 1.356 . S
N1880 C1872 1.356 . S
N1880 H1886 0.984 . S
N1880 H1887 0.984 . S
N1881 C1874 1.356 . S
N1881 H1884 0.984 . S
N1881 H1885 0.985 . S
H1882 N1877 0.984 . S
H1883 N1877 0.985 . S
H1884 N1881 0.984 . S
H1885 N1881 0.985 . S
H1886 N1880 0.984 . S
H1887 N1880 0.984 . S
H1888 N1876 0.984 . S
H1889 N1876 0.985 . S
C1890 C1891 1.363 . S
C1890 C1896 1.379 . S
C1890 N1898 1.356 . S
C1891 C1890 1.363 . S
C1891 C1897 1.363 . S
C1892 C1893 1.363 . S
C1892 C1897 1.379 . S
C1892 N1899 1.356 . S
C1893 C1892 1.363 . S
C1893 C1896 1.363 . S
N1894 C1896 1.356 . S
N1894 H1906 0.984 . S
N1894 H1907 0.985 . S
N1895 C1897 1.356 . S
N1895 H1900 0.984 . S
N1895 H1901 0.985 . S
C1896 C1890 1.379 . S
C1896 C1893 1.363 . S
C1896 N1894 1.356 . S
C1897 C1891 1.363 . S
C1897 C1892 1.379 . S
C1897 N1895 1.356 . S
N1898 C1890 1.356 . S
N1898 H1904 0.984 . S
N1898 H1905 0.984 . S
N1899 C1892 1.356 . S
N1899 H1902 0.984 . S
N1899 H1903 0.985 . S
H1900 N1895 0.984 . S
H1901 N1895 0.985 . S
H1902 N1899 0.984 . S
H1903 N1899 0.985 . S
H1904 N1898 0.984 . S
H1905 N1898 0.984 . S
H1906 N1894 0.984 . S
H1907 N1894 0.985 . S
C1908 C1909 1.363 . S
C1908 C1914 1.379 . S
C1908 N1916 1.356 . S
C1909 C1908 1.363 . S
C1909 C1915 1.363 . S
C1910 C1911 1.363 . S
C1910 C1915 1.379 . S
C1910 N1917 1.356 . S
C1911 C1910 1.363 . S
C1911 C1914 1.363 . S
N1912 C1914 1.356 . S
N1912 H1924 0.984 . S
N1912 H1925 0.985 . S
N1913 C1915 1.356 . S
N1913 H1918 0.984 . S
N1913 H1919 0.985 . S
C1914 C1908 1.379 . S
C1914 C1911 1.363 . S
C1914 N1912 1.356 . S
C1915 C1909 1.363 . S
C1915 C1910 1.379 . S
C1915 N1913 1.356 . S
N1916 C1908 1.356 . S
N1916 H1922 0.984 . S
N1916 H1923 0.984 . S
N1917 C1910 1.356 . S
N1917 H1920 0.984 . S
N1917 H1921 0.985 . S
H1918 N1913 0.984 . S
H1919 N1913 0.985 . S
H1920 N1917 0.984 . S
H1921 N1917 0.985 . S
H1922 N1916 0.984 . S
H1923 N1916 0.984 . S
H1924 N1912 0.984 . S
H1925 N1912 0.985 . S
C1926 C1927 1.363 . S
C1926 C1932 1.379 . S
C1926 N1934 1.356 . S
C1927 C1926 1.363 . S
C1927 C1933 1.363 . S
C1928 C1929 1.363 . S
C1928 C1933 1.379 . S
C1928 N1935 1.356 . S
C1929 C1928 1.363 . S
C1929 C1932 1.363 . S
N1930 C1932 1.356 . S
N1930 H1942 0.984 . S
N1930 H1943 0.985 . S
N1931 C1933 1.356 . S
N1931 H1936 0.984 . S
N1931 H1937 0.985 . S
C1932 C1926 1.379 . S
C1932 C1929 1.363 . S
C1932 N1930 1.356 . S
C1933 C1927 1.363 . S
C1933 C1928 1.379 . S
C1933 N1931 1.356 . S
N1934 C1926 1.356 . S
N1934 H1940 0.984 . S
N1934 H1941 0.984 . S
N1935 C1928 1.356 . S
N1935 H1938 0.984 . S
N1935 H1939 0.985 . S
H1936 N1931 0.984 . S
H1937 N1931 0.985 . S
H1938 N1935 0.984 . S
H1939 N1935 0.985 . S
H1940 N1934 0.984 . S
H1941 N1934 0.984 . S
H1942 N1930 0.984 . S
H1943 N1930 0.985 . S
C1944 C1945 1.363 . S
C1944 C1950 1.379 . S
C1944 N1952 1.356 . S
C1945 C1944 1.363 . S
C1945 C1951 1.363 . S
C1946 C1947 1.363 . S
C1946 C1951 1.379 . S
C1946 N1953 1.356 . S
C1947 C1946 1.363 . S
C1947 C1950 1.363 . S
N1948 C1950 1.356 . S
N1948 H1960 0.984 . S
N1948 H1961 0.985 . S
N1949 C1951 1.356 . S
N1949 H1954 0.984 . S
N1949 H1955 0.985 . S
C1950 C1944 1.379 . S
C1950 C1947 1.363 . S
C1950 N1948 1.356 . S
C1951 C1945 1.363 . S
C1951 C1946 1.379 . S
C1951 N1949 1.356 . S
N1952 C1944 1.356 . S
N1952 H1958 0.984 . S
N1952 H1959 0.984 . S
N1953 C1946 1.356 . S
N1953 H1956 0.984 . S
N1953 H1957 0.985 . S
H1954 N1949 0.984 . S
H1955 N1949 0.985 . S
H1956 N1953 0.984 . S
H1957 N1953 0.985 . S
H1958 N1952 0.984 . S
H1959 N1952 0.984 . S
H1960 N1948 0.984 . S
H1961 N1948 0.985 . S
C1962 C1963 1.363 . S
C1962 C1968 1.379 . S
C1962 N1970 1.356 . S
C1963 C1962 1.363 . S
C1963 C1969 1.363 . S
C1964 C1965 1.363 . S
C1964 C1969 1.379 . S
C1964 N1971 1.356 . S
C1965 C1964 1.363 . S
C1965 C1968 1.363 . S
N1966 C1968 1.356 . S
N1966 H1978 0.984 . S
N1966 H1979 0.985 . S
N1967 C1969 1.356 . S
N1967 H1972 0.984 . S
N1967 H1973 0.985 . S
C1968 C1962 1.379 . S
C1968 C1965 1.363 . S
C1968 N1966 1.356 . S
C1969 C1963 1.363 . S
C1969 C1964 1.379 . S
C1969 N1967 1.356 . S
N1970 C1962 1.356 . S
N1970 H1976 0.984 . S
N1970 H1977 0.984 . S
N1971 C1964 1.356 . S
N1971 H1974 0.984 . S
N1971 H1975 0.985 . S
H1972 N1967 0.984 . S
H1973 N1967 0.985 . S
H1974 N1971 0.984 . S
H1975 N1971 0.985 . S
H1976 N1970 0.984 . S
H1977 N1970 0.984 . S
H1978 N1966 0.984 . S
H1979 N1966 0.985 . S
C1980 C1981 1.363 . S
C1980 C1986 1.379 . S
C1980 N1988 1.356 . S
C1981 C1980 1.363 . S
C1981 C1987 1.363 . S
C1982 C1983 1.363 . S
C1982 C1987 1.379 . S
C1982 N1989 1.356 . S
C1983 C1982 1.363 . S
C1983 C1986 1.363 . S
N1984 C1986 1.356 . S
N1984 H1996 0.984 . S
N1984 H1997 0.985 . S
N1985 C1987 1.356 . S
N1985 H1990 0.984 . S
N1985 H1991 0.985 . S
C1986 C1980 1.379 . S
C1986 C1983 1.363 . S
C1986 N1984 1.356 . S
C1987 C1981 1.363 . S
C1987 C1982 1.379 . S
C1987 N1985 1.356 . S
N1988 C1980 1.356 . S
N1988 H1994 0.984 . S
N1988 H1995 0.984 . S
N1989 C1982 1.356 . S
N1989 H1992 0.984 . S
N1989 H1993 0.985 . S
H1990 N1985 0.984 . S
H1991 N1985 0.985 . S
H1992 N1989 0.984 . S
H1993 N1989 0.985 . S
H1994 N1988 0.984 . S
H1995 N1988 0.984 . S
H1996 N1984 0.984 . S
H1997 N1984 0.985 . S
C1998 C1999 1.363 . S
C1998 C2004 1.379 . S
C1998 N2006 1.356 . S
C1999 C1998 1.363 . S
C1999 C2005 1.363 . S
C2000 C2001 1.363 . S
C2000 C2005 1.379 . S
C2000 N2007 1.356 . S
C2001 C2000 1.363 . S
C2001 C2004 1.363 . S
N2002 C2004 1.356 . S
N2002 H2014 0.984 . S
N2002 H2015 0.985 . S
N2003 C2005 1.356 . S
N2003 H2008 0.984 . S
N2003 H2009 0.985 . S
C2004 C1998 1.379 . S
C2004 C2001 1.363 . S
C2004 N2002 1.356 . S
C2005 C1999 1.363 . S
C2005 C2000 1.379 . S
C2005 N2003 1.356 . S
N2006 C1998 1.356 . S
N2006 H2012 0.984 . S
N2006 H2013 0.984 . S
N2007 C2000 1.356 . S
N2007 H2010 0.984 . S
N2007 H2011 0.985 . S
H2008 N2003 0.984 . S
H2009 N2003 0.985 . S
H2010 N2007 0.984 . S
H2011 N2007 0.985 . S
H2012 N2006 0.984 . S
H2013 N2006 0.984 . S
H2014 N2002 0.984 . S
H2015 N2002 0.985 . S
C2016 C2017 1.363 . S
C2016 C2022 1.379 . S
C2016 N2024 1.356 . S
C2017 C2016 1.363 . S
C2017 C2023 1.363 . S
C2018 C2019 1.363 . S
C2018 C2023 1.379 . S
C2018 N2025 1.356 . S
C2019 C2018 1.363 . S
C2019 C2022 1.363 . S
N2020 C2022 1.356 . S
N2020 H2032 0.984 . S
N2020 H2033 0.985 . S
N2021 C2023 1.356 . S
N2021 H2026 0.984 . S
N2021 H2027 0.985 . S
C2022 C2016 1.379 . S
C2022 C2019 1.363 . S
C2022 N2020 1.356 . S
C2023 C2017 1.363 . S
C2023 C2018 1.379 . S
C2023 N2021 1.356 . S
N2024 C2016 1.356 . S
N2024 H2030 0.984 . S
N2024 H2031 0.984 . S
N2025 C2018 1.356 . S
N2025 H2028 0.984 . S
N2025 H2029 0.985 . S
H2026 N2021 0.984 . S
H2027 N2021 0.985 . S
H2028 N2025 0.984 . S
H2029 N2025 0.985 . S
H2030 N2024 0.984 . S
H2031 N2024 0.984 . S
H2032 N2020 0.984 . S
H2033 N2020 0.985 . S
C2034 C2035 1.363 . S
C2034 C2040 1.379 . S
C2034 N2042 1.356 . S
C2035 C2034 1.363 . S
C2035 C2041 1.363 . S
C2036 C2037 1.363 . S
C2036 C2041 1.379 . S
C2036 N2043 1.356 . S
C2037 C2036 1.363 . S
C2037 C2040 1.363 . S
N2038 C2040 1.356 . S
N2038 H2050 0.984 . S
N2038 H2051 0.985 . S
N2039 C2041 1.356 . S
N2039 H2044 0.984 . S
N2039 H2045 0.985 . S
C2040 C2034 1.379 . S
C2040 C2037 1.363 . S
C2040 N2038 1.356 . S
C2041 C2035 1.363 . S
C2041 C2036 1.379 . S
C2041 N2039 1.356 . S
N2042 C2034 1.356 . S
N2042 H2048 0.984 1_554 S
N2042 H2049 0.984 . S
N2043 C2036 1.356 . S
N2043 H2046 0.984 . S
N2043 H2047 0.985 . S
H2044 N2039 0.984 . S
H2045 N2039 0.985 . S
H2046 N2043 0.984 . S
H2047 N2043 0.985 . S
H2048 N2042 0.984 1_556 S
H2049 N2042 0.984 . S
H2050 N2038 0.984 . S
H2051 N2038 0.985 . S
C2052 C2053 1.363 . S
C2052 C2058 1.379 . S
C2052 N2060 1.356 . S
C2053 C2052 1.363 . S
C2053 C2059 1.363 . S
C2054 C2055 1.363 . S
C2054 C2059 1.379 . S
C2054 N2061 1.356 . S
C2055 C2054 1.363 . S
C2055 C2058 1.363 . S
N2056 C2058 1.356 . S
N2056 H2068 0.984 . S
N2056 H2069 0.985 . S
N2057 C2059 1.356 . S
N2057 H2062 0.984 . S
N2057 H2063 0.985 1_554 S
C2058 C2052 1.379 . S
C2058 C2055 1.363 . S
C2058 N2056 1.356 . S
C2059 C2053 1.363 . S
C2059 C2054 1.379 . S
C2059 N2057 1.356 . S
N2060 C2052 1.356 . S
N2060 H2066 0.984 . S
N2060 H2067 0.984 . S
N2061 C2054 1.356 . S
N2061 H2064 0.984 . S
N2061 H2065 0.985 . S
H2062 N2057 0.984 . S
H2063 N2057 0.985 1_556 S
H2064 N2061 0.984 . S
H2065 N2061 0.985 . S
H2066 N2060 0.984 . S
H2067 N2060 0.984 . S
H2068 N2056 0.984 . S
H2069 N2056 0.985 . S
C2070 C2071 1.363 . S
C2070 C2076 1.379 . S
C2070 N2078 1.356 . S
C2071 C2070 1.363 . S
C2071 C2077 1.363 . S
C2072 C2073 1.363 . S
C2072 C2077 1.379 . S
C2072 N2079 1.356 . S
C2073 C2072 1.363 . S
C2073 C2076 1.363 . S
N2074 C2076 1.356 . S
N2074 H2086 0.984 . S
N2074 H2087 0.985 . S
N2075 C2077 1.356 1_554 S
N2075 H2080 0.984 . S
N2075 H2081 0.985 . S
C2076 C2070 1.379 . S
C2076 C2073 1.363 . S
C2076 N2074 1.356 . S
C2077 C2071 1.363 . S
C2077 C2072 1.379 . S
C2077 N2075 1.356 1_556 S
N2078 C2070 1.356 . S
N2078 H2084 0.984 . S
N2078 H2085 0.984 . S
N2079 C2072 1.356 . S
N2079 H2082 0.984 . S
N2079 H2083 0.985 1_556 S
H2080 N2075 0.984 . S
H2081 N2075 0.985 . S
H2082 N2079 0.984 . S
H2083 N2079 0.985 1_554 S
H2084 N2078 0.984 . S
H2085 N2078 0.984 . S
H2086 N2074 0.984 . S
H2087 N2074 0.985 . S
C2088 C2089 1.345 1_554 S
C2088 C2094 1.368 1_554 S
C2088 N2096 1.384 . S
C2089 C2088 1.345 1_556 S
C2089 C2095 1.363 . S
C2090 C2091 1.363 . S
C2090 C2095 1.379 . S
C2090 N2097 1.356 . S
C2091 C2090 1.363 . S
C2091 C2094 1.363 . S
N2092 C2094 1.350 1_554 S
N2092 H2104 1.001 . S
N2092 H2105 0.974 1_554 S
N2093 C2095 1.356 . S
N2093 H2098 0.984 . S
N2093 H2099 0.985 . S
C2094 C2088 1.368 1_556 S
C2094 C2091 1.363 . S
C2094 N2092 1.350 1_556 S
C2095 C2089 1.363 . S
C2095 C2090 1.379 . S
C2095 N2093 1.356 . S
N2096 C2088 1.384 . S
N2096 H2102 0.984 . S
N2096 H2103 0.984 . S
N2097 C2090 1.356 . S
N2097 H2100 0.984 . S
N2097 H2101 0.985 . S
H2098 N2093 0.984 . S
H2099 N2093 0.985 . S
H2100 N2097 0.984 . S
H2101 N2097 0.985 . S
H2102 N2096 0.984 . S
H2103 N2096 0.984 . S
H2104 N2092 1.001 . S
H2105 N2092 0.974 1_556 S
C2106 C2107 1.363 . S
C2106 C2112 1.379 . S
C2106 N2114 1.356 . S
C2107 C2106 1.363 . S
C2107 C2113 1.363 . S
C2108 C2109 1.363 . S
C2108 C2113 1.379 . S
C2108 N2115 1.356 . S
C2109 C2108 1.363 . S
C2109 C2112 1.363 . S
N2110 C2112 1.356 . S
N2110 H2122 0.984 . S
N2110 H2123 0.985 . S
N2111 C2113 1.356 . S
N2111 H2116 0.984 1_556 S
N2111 H2117 0.985 1_556 S
C2112 C2106 1.379 . S
C2112 C2109 1.363 . S
C2112 N2110 1.356 . S
C2113 C2107 1.363 . S
C2113 C2108 1.379 . S
C2113 N2111 1.356 . S
N2114 C2106 1.356 . S
N2114 H2120 0.984 . S
N2114 H2121 0.984 . S
N2115 C2108 1.356 . S
N2115 H2118 0.984 . S
N2115 H2119 0.985 . S
H2116 N2111 0.984 1_554 S
H2117 N2111 0.985 1_554 S
H2118 N2115 0.984 . S
H2119 N2115 0.985 . S
H2120 N2114 0.984 . S
H2121 N2114 0.984 . S
H2122 N2110 0.984 . S
H2123 N2110 0.985 . S
C2124 C2125 1.363 . S
C2124 C2130 1.379 . S
C2124 N2132 1.356 1_556 S
C2125 C2124 1.363 . S
C2125 C2131 1.363 . S
C2126 C2127 1.363 . S
C2126 C2131 1.379 . S
C2126 N2133 1.356 . S
C2127 C2126 1.363 . S
C2127 C2130 1.363 . S
N2128 C2130 1.356 . S
N2128 H2140 0.984 . S
N2128 H2141 0.985 . S
N2129 C2131 1.356 . S
N2129 H2134 0.984 . S
N2129 H2135 0.985 . S
C2130 C2124 1.379 . S
C2130 C2127 1.363 . S
C2130 N2128 1.356 . S
C2131 C2125 1.363 . S
C2131 C2126 1.379 . S
C2131 N2129 1.356 . S
N2132 C2124 1.356 1_554 S
N2132 H2138 0.984 . S
N2132 H2139 0.984 . S
N2133 C2126 1.356 . S
N2133 H2136 0.984 . S
N2133 H2137 0.985 . S
H2134 N2129 0.984 . S
H2135 N2129 0.985 . S
H2136 N2133 0.984 . S
H2137 N2133 0.985 . S
H2138 N2132 0.984 . S
H2139 N2132 0.984 . S
H2140 N2128 0.984 . S
H2141 N2128 0.985 . S
C2142 C2143 1.363 . S
C2142 C2148 1.379 . S
C2142 N2150 1.356 . S
C2143 C2142 1.363 . S
C2143 C2149 1.360 1_556 S
C2144 C2145 1.363 . S
C2144 C2149 1.377 1_556 S
C2144 N2151 1.356 1_556 S
C2145 C2144 1.363 . S
C2145 C2148 1.363 . S
N2146 C2148 1.356 . S
N2146 H2158 0.984 . S
N2146 H2159 0.985 . S
N2147 C2149 1.361 . S
N2147 H2152 0.984 . S
N2147 H2153 0.985 . S
C2148 C2142 1.379 . S
C2148 C2145 1.363 . S
C2148 N2146 1.356 . S
C2149 C2143 1.360 1_554 S
C2149 C2144 1.377 1_554 S
C2149 N2147 1.361 . S
N2150 C2142 1.356 . S
N2150 H2156 0.984 . S
N2150 H2157 0.984 . S
N2151 C2144 1.356 1_554 S
N2151 H2154 0.984 1_554 S
N2151 H2155 0.985 . S
H2152 N2147 0.984 . S
H2153 N2147 0.985 . S
H2154 N2151 0.984 1_556 S
H2155 N2151 0.985 . S
H2156 N2150 0.984 . S
H2157 N2150 0.984 . S
H2158 N2146 0.984 . S
H2159 N2146 0.985 . S
C2160 C2161 1.363 1_554 S
C2160 C2166 1.379 1_554 S
C2160 N2168 1.356 . S
C2161 C2160 1.363 1_556 S
C2161 C2167 1.363 . S
C2162 C2163 1.363 . S
C2162 C2167 1.379 . S
C2162 N2169 1.356 . S
C2163 C2162 1.363 . S
C2163 C2166 1.363 . S
N2164 C2166 1.356 1_554 S
N2164 H2176 0.984 . S
N2164 H2177 0.985 1_554 S
N2165 C2167 1.356 . S
N2165 H2170 0.984 . S
N2165 H2171 0.985 . S
C2166 C2160 1.379 1_556 S
C2166 C2163 1.363 . S
C2166 N2164 1.356 1_556 S
C2167 C2161 1.363 . S
C2167 C2162 1.379 . S
C2167 N2165 1.356 . S
N2168 C2160 1.356 . S
N2168 H2174 0.984 . S
N2168 H2175 0.984 . S
N2169 C2162 1.356 . S
N2169 H2172 0.984 . S
N2169 H2173 0.985 . S
H2170 N2165 0.984 . S
H2171 N2165 0.985 . S
H2172 N2169 0.984 . S
H2173 N2169 0.985 . S
H2174 N2168 0.984 . S
H2175 N2168 0.984 . S
H2176 N2164 0.984 . S
H2177 N2164 0.985 1_556 S
C2178 C2179 1.363 . S
C2178 C2184 1.379 . S
C2178 N2186 1.356 . S
C2179 C2178 1.363 . S
C2179 C2185 1.363 . S
C2180 C2181 1.363 . S
C2180 C2185 1.379 . S
C2180 N2187 1.356 . S
C2181 C2180 1.363 . S
C2181 C2184 1.363 . S
N2182 C2184 1.356 . S
N2182 H2194 0.984 . S
N2182 H2195 0.985 . S
N2183 C2185 1.356 . S
N2183 H2188 0.984 . S
N2183 H2189 0.985 . S
C2184 C2178 1.379 . S
C2184 C2181 1.363 . S
C2184 N2182 1.356 . S
C2185 C2179 1.363 . S
C2185 C2180 1.379 . S
C2185 N2183 1.356 . S
N2186 C2178 1.356 . S
N2186 H2192 0.984 . S
N2186 H2193 0.984 . S
N2187 C2180 1.356 . S
N2187 H2190 0.984 . S
N2187 H2191 0.985 . S
H2188 N2183 0.984 . S
H2189 N2183 0.985 . S
H2190 N2187 0.984 . S
H2191 N2187 0.985 . S
H2192 N2186 0.984 . S
H2193 N2186 0.984 . S
H2194 N2182 0.984 . S
H2195 N2182 0.985 . S
C2196 C2197 1.363 . S
C2196 C2202 1.379 . S
C2196 N2204 1.356 . S
C2197 C2196 1.363 . S
C2197 C2203 1.363 . S
C2198 C2199 1.363 . S
C2198 C2203 1.379 . S
C2198 N2205 1.356 . S
C2199 C2198 1.363 . S
C2199 C2202 1.363 . S
N2200 C2202 1.356 . S
N2200 H2212 0.984 . S
N2200 H2213 0.985 . S
N2201 C2203 1.356 . S
N2201 H2206 0.984 . S
N2201 H2207 0.985 . S
C2202 C2196 1.379 . S
C2202 C2199 1.363 . S
C2202 N2200 1.356 . S
C2203 C2197 1.363 . S
C2203 C2198 1.379 . S
C2203 N2201 1.356 . S
N2204 C2196 1.356 . S
N2204 H2210 0.984 . S
N2204 H2211 0.984 . S
N2205 C2198 1.356 . S
N2205 H2208 0.984 . S
N2205 H2209 0.985 . S
H2206 N2201 0.984 . S
H2207 N2201 0.985 . S
H2208 N2205 0.984 . S
H2209 N2205 0.985 . S
H2210 N2204 0.984 . S
H2211 N2204 0.984 . S
H2212 N2200 0.984 . S
H2213 N2200 0.985 . S
C2214 C2215 1.363 . S
C2214 C2220 1.379 . S
C2214 N2222 1.356 . S
C2215 C2214 1.363 . S
C2215 C2221 1.363 . S
C2216 C2217 1.363 . S
C2216 C2221 1.379 . S
C2216 N2223 1.356 . S
C2217 C2216 1.363 . S
C2217 C2220 1.363 . S
N2218 C2220 1.356 . S
N2218 H2230 0.984 . S
N2218 H2231 0.985 . S
N2219 C2221 1.356 . S
N2219 H2224 0.984 . S
N2219 H2225 0.985 . S
C2220 C2214 1.379 . S
C2220 C2217 1.363 . S
C2220 N2218 1.356 . S
C2221 C2215 1.363 . S
C2221 C2216 1.379 . S
C2221 N2219 1.356 . S
N2222 C2214 1.356 . S
N2222 H2228 0.984 1_554 S
N2222 H2229 0.984 . S
N2223 C2216 1.356 . S
N2223 H2226 0.984 . S
N2223 H2227 0.985 . S
H2224 N2219 0.984 . S
H2225 N2219 0.985 . S
H2226 N2223 0.984 . S
H2227 N2223 0.985 . S
H2228 N2222 0.984 1_556 S
H2229 N2222 0.984 . S
H2230 N2218 0.984 . S
H2231 N2218 0.985 . S
C2232 C2233 1.363 . S
C2232 C2238 1.379 . S
C2232 N2240 1.356 . S
C2233 C2232 1.363 . S
C2233 C2239 1.363 . S
C2234 C2235 1.363 . S
C2234 C2239 1.379 . S
C2234 N2241 1.356 . S
C2235 C2234 1.363 . S
C2235 C2238 1.363 . S
N2236 C2238 1.356 . S
N2236 H2248 0.984 . S
N2236 H2249 0.985 . S
N2237 C2239 1.356 . S
N2237 H2242 0.984 . S
N2237 H2243 0.985 . S
C2238 C2232 1.379 . S
C2238 C2235 1.363 . S
C2238 N2236 1.356 . S
C2239 C2233 1.363 . S
C2239 C2234 1.379 . S
C2239 N2237 1.356 . S
N2240 C2232 1.356 . S
N2240 H2246 0.984 . S
N2240 H2247 0.984 . S
N2241 C2234 1.356 . S
N2241 H2244 0.984 . S
N2241 H2245 0.985 . S
H2242 N2237 0.984 . S
H2243 N2237 0.985 . S
H2244 N2241 0.984 . S
H2245 N2241 0.985 . S
H2246 N2240 0.984 . S
H2247 N2240 0.984 . S
H2248 N2236 0.984 . S
H2249 N2236 0.985 . S
C2250 C2251 1.363 . S
C2250 C2256 1.379 . S
C2250 N2258 1.356 . S
C2251 C2250 1.363 . S
C2251 C2257 1.363 . S
C2252 C2253 1.363 . S
C2252 C2257 1.379 . S
C2252 N2259 1.356 . S
C2253 C2252 1.363 . S
C2253 C2256 1.363 . S
N2254 C2256 1.356 . S
N2254 H2266 0.984 . S
N2254 H2267 0.985 . S
N2255 C2257 1.356 . S
N2255 H2260 0.984 . S
N2255 H2261 0.985 . S
C2256 C2250 1.379 . S
C2256 C2253 1.363 . S
C2256 N2254 1.356 . S
C2257 C2251 1.363 . S
C2257 C2252 1.379 . S
C2257 N2255 1.356 . S
N2258 C2250 1.356 . S
N2258 H2264 0.984 . S
N2258 H2265 0.984 . S
N2259 C2252 1.356 . S
N2259 H2262 0.984 . S
N2259 H2263 0.985 . S
H2260 N2255 0.984 . S
H2261 N2255 0.985 . S
H2262 N2259 0.984 . S
H2263 N2259 0.985 . S
H2264 N2258 0.984 . S
H2265 N2258 0.984 . S
H2266 N2254 0.984 . S
H2267 N2254 0.985 . S
C2268 C2269 1.363 . S
C2268 C2274 1.379 . S
C2268 N2276 1.356 . S
C2269 C2268 1.363 . S
C2269 C2275 1.363 . S
C2270 C2271 1.363 . S
C2270 C2275 1.379 . S
C2270 N2277 1.356 . S
C2271 C2270 1.363 . S
C2271 C2274 1.363 . S
N2272 C2274 1.356 . S
N2272 H2284 0.984 . S
N2272 H2285 0.985 . S
N2273 C2275 1.356 . S
N2273 H2278 0.984 . S
N2273 H2279 0.985 . S
C2274 C2268 1.379 . S
C2274 C2271 1.363 . S
C2274 N2272 1.356 . S
C2275 C2269 1.363 . S
C2275 C2270 1.379 . S
C2275 N2273 1.356 . S
N2276 C2268 1.356 . S
N2276 H2282 0.984 . S
N2276 H2283 0.984 1_655 S
N2277 C2270 1.356 . S
N2277 H2280 0.984 . S
N2277 H2281 0.985 . S
H2278 N2273 0.984 . S
H2279 N2273 0.985 . S
H2280 N2277 0.984 . S
H2281 N2277 0.985 . S
H2282 N2276 0.984 . S
H2283 N2276 0.984 1_455 S
H2284 N2272 0.984 . S
H2285 N2272 0.985 . S
C2286 C2287 1.363 . S
C2286 C2292 1.379 . S
C2286 N2294 1.356 . S
C2287 C2286 1.363 . S
C2287 C2293 1.363 . S
C2288 C2289 1.363 . S
C2288 C2293 1.379 . S
C2288 N2295 1.356 1_455 S
C2289 C2288 1.363 . S
C2289 C2292 1.363 . S
N2290 C2292 1.356 . S
N2290 H2302 0.984 . S
N2290 H2303 0.985 . S
N2291 C2293 1.356 . S
N2291 H2296 0.984 . S
N2291 H2297 1.022 . S
C2292 C2286 1.379 . S
C2292 C2289 1.363 . S
C2292 N2290 1.356 . S
C2293 C2287 1.363 . S
C2293 C2288 1.379 . S
C2293 N2291 1.356 . S
N2294 C2286 1.356 . S
N2294 H2300 0.984 . S
N2294 H2301 0.984 . S
N2295 C2288 1.356 1_655 S
N2295 H2298 0.984 . S
N2295 H2299 0.985 . S
H2296 N2291 0.984 . S
H2297 N2291 1.022 . S
H2298 N2295 0.984 . S
H2299 N2295 0.985 . S
H2300 N2294 0.984 . S
H2301 N2294 0.984 . S
H2302 N2290 0.984 . S
H2303 N2290 0.985 . S
C2304 C2305 1.363 . S
C2304 C2310 1.379 . S
C2304 N2312 1.356 . S
C2305 C2304 1.363 . S
C2305 C2311 1.363 . S
C2306 C2307 1.363 . S
C2306 C2311 1.379 . S
C2306 N2313 1.356 . S
C2307 C2306 1.363 . S
C2307 C2310 1.363 . S
N2308 C2310 1.356 . S
N2308 H2320 0.984 . S
N2308 H2321 0.985 . S
N2309 C2311 1.356 . S
N2309 H2314 0.984 . S
N2309 H2315 0.985 . S
C2310 C2304 1.379 . S
C2310 C2307 1.363 . S
C2310 N2308 1.356 . S
C2311 C2305 1.363 . S
C2311 C2306 1.379 . S
C2311 N2309 1.356 . S
N2312 C2304 1.356 . S
N2312 H2318 0.984 . S
N2312 H2319 0.984 . S
N2313 C2306 1.356 . S
N2313 H2316 0.984 . S
N2313 H2317 0.985 . S
H2314 N2309 0.984 . S
H2315 N2309 0.985 . S
H2316 N2313 0.984 . S
H2317 N2313 0.985 . S
H2318 N2312 0.984 . S
H2319 N2312 0.984 . S
H2320 N2308 0.984 . S
H2321 N2308 0.985 . S
C2322 C2323 1.363 1_545 S
C2322 C2328 1.379 . S
C2322 N2330 1.356 . S
C2323 C2322 1.363 1_565 S
C2323 C2329 1.363 . S
C2324 C2325 1.363 . S
C2324 C2329 1.379 . S
C2324 N2331 1.356 . S
C2325 C2324 1.363 . S
C2325 C2328 1.363 1_565 S
N2326 C2328 1.356 . S
N2326 H2338 0.984 . S
N2326 H2339 0.985 . S
N2327 C2329 1.356 . S
N2327 H2332 0.984 . S
N2327 H2333 0.985 . S
C2328 C2322 1.379 . S
C2328 C2325 1.363 1_545 S
C2328 N2326 1.356 . S
C2329 C2323 1.363 . S
C2329 C2324 1.379 . S
C2329 N2327 1.356 . S
N2330 C2322 1.356 . S
N2330 H2336 0.984 . S
N2330 H2337 0.984 . S
N2331 C2324 1.356 . S
N2331 H2334 0.984 . S
N2331 H2335 0.985 . S
H2332 N2327 0.984 . S
H2333 N2327 0.985 . S
H2334 N2331 0.984 . S
H2335 N2331 0.985 . S
H2336 N2330 0.984 . S
H2337 N2330 0.984 . S
H2338 N2326 0.984 . S
H2339 N2326 0.985 . S
C2340 C2341 1.363 . S
C2340 C2346 1.379 1_565 S
C2340 N2348 1.356 1_565 S
C2341 C2340 1.363 . S
C2341 C2347 1.363 . S
C2342 C2343 1.363 . S
C2342 C2347 1.379 . S
C2342 N2349 1.356 . S
C2343 C2342 1.363 . S
C2343 C2346 1.363 1_565 S
N2344 C2346 1.356 . S
N2344 H2356 0.984 . S
N2344 H2357 0.985 . S
N2345 C2347 1.356 . S
N2345 H2350 0.984 . S
N2345 H2351 0.985 . S
C2346 C2340 1.379 1_545 S
C2346 C2343 1.363 1_545 S
C2346 N2344 1.356 . S
C2347 C2341 1.363 . S
C2347 C2342 1.379 . S
C2347 N2345 1.356 . S
N2348 C2340 1.356 1_545 S
N2348 H2354 0.984 . S
N2348 H2355 0.928 1_545 S
N2349 C2342 1.356 . S
N2349 H2352 0.984 . S
N2349 H2353 0.985 . S
H2350 N2345 0.984 . S
H2351 N2345 0.985 . S
H2352 N2349 0.984 . S
H2353 N2349 0.985 . S
H2354 N2348 0.984 . S
H2355 N2348 0.928 1_565 S
H2356 N2344 0.984 . S
H2357 N2344 0.985 . S
C2358 C2359 1.363 . S
C2358 C2364 1.379 . S
C2358 N2366 1.356 . S
C2359 C2358 1.363 . S
C2359 C2365 1.363 . S
C2360 C2361 1.363 . S
C2360 C2365 1.379 . S
C2360 N2367 1.347 . S
C2361 C2360 1.363 . S
C2361 C2364 1.363 . S
N2362 C2364 1.356 . S
N2362 H2374 0.984 . S
N2362 H2375 0.985 . S
N2363 C2365 1.356 . S
N2363 H2368 0.984 . S
N2363 H2369 0.985 . S
C2364 C2358 1.379 . S
C2364 C2361 1.363 . S
C2364 N2362 1.356 . S
C2365 C2359 1.363 . S
C2365 C2360 1.379 . S
C2365 N2363 1.356 . S
N2366 C2358 1.356 . S
N2366 H2372 0.984 . S
N2366 H2373 0.984 . S
N2367 C2360 1.347 . S
N2367 H2370 1.028 1_455 S
N2367 H2371 0.978 1_455 S
H2368 N2363 0.984 . S
H2369 N2363 0.985 . S
H2370 N2367 1.028 1_655 S
H2371 N2367 0.978 1_655 S
H2372 N2366 0.984 . S
H2373 N2366 0.984 . S
H2374 N2362 0.984 . S
H2375 N2362 0.985 . S
C2376 C2377 1.363 . S
C2376 C2382 1.379 . S
C2376 N2384 1.356 . S
C2377 C2376 1.363 . S
C2377 C2383 1.363 . S
C2378 C2379 1.363 . S
C2378 C2383 1.379 . S
C2378 N2385 1.356 . S
C2379 C2378 1.363 . S
C2379 C2382 1.363 . S
N2380 C2382 1.356 . S
N2380 H2392 0.984 . S
N2380 H2393 0.985 . S
N2381 C2383 1.356 . S
N2381 H2386 0.984 . S
N2381 H2387 0.985 . S
C2382 C2376 1.379 . S
C2382 C2379 1.363 . S
C2382 N2380 1.356 . S
C2383 C2377 1.363 . S
C2383 C2378 1.379 . S
C2383 N2381 1.356 . S
N2384 C2376 1.356 . S
N2384 H2390 0.984 . S
N2384 H2391 0.984 . S
N2385 C2378 1.356 . S
N2385 H2388 0.984 . S
N2385 H2389 0.985 . S
H2386 N2381 0.984 . S
H2387 N2381 0.985 . S
H2388 N2385 0.984 . S
H2389 N2385 0.985 . S
H2390 N2384 0.984 . S
H2391 N2384 0.984 . S
H2392 N2380 0.984 . S
H2393 N2380 0.985 . S
C2394 C2395 1.363 . S
C2394 C2400 1.379 . S
C2394 N2402 1.356 . S
C2395 C2394 1.363 . S
C2395 C2401 1.363 . S
C2396 C2397 1.363 . S
C2396 C2401 1.379 . S
C2396 N2403 1.356 . S
C2397 C2396 1.363 . S
C2397 C2400 1.363 . S
N2398 C2400 1.356 . S
N2398 H2410 0.984 . S
N2398 H2411 0.985 . S
N2399 C2401 1.356 . S
N2399 H2404 0.984 . S
N2399 H2405 0.985 . S
C2400 C2394 1.379 . S
C2400 C2397 1.363 . S
C2400 N2398 1.356 . S
C2401 C2395 1.363 . S
C2401 C2396 1.379 . S
C2401 N2399 1.356 . S
N2402 C2394 1.356 . S
N2402 H2408 0.984 . S
N2402 H2409 0.984 . S
N2403 C2396 1.356 . S
N2403 H2406 0.984 . S
N2403 H2407 0.985 . S
H2404 N2399 0.984 . S
H2405 N2399 0.985 . S
H2406 N2403 0.984 . S
H2407 N2403 0.985 . S
H2408 N2402 0.984 . S
H2409 N2402 0.984 . S
H2410 N2398 0.984 . S
H2411 N2398 0.985 . S
C2412 C2413 1.363 . S
C2412 C2418 1.379 . S
C2412 N2420 1.356 . S
C2413 C2412 1.363 . S
C2413 C2419 1.363 . S
C2414 C2415 1.363 . S
C2414 C2419 1.379 . S
C2414 N2421 1.356 . S
C2415 C2414 1.363 . S
C2415 C2418 1.363 . S
N2416 C2418 1.356 . S
N2416 H2428 0.984 . S
N2416 H2429 0.985 . S
N2417 C2419 1.356 . S
N2417 H2422 0.984 . S
N2417 H2423 0.985 . S
C2418 C2412 1.379 . S
C2418 C2415 1.363 . S
C2418 N2416 1.356 . S
C2419 C2413 1.363 . S
C2419 C2414 1.379 . S
C2419 N2417 1.356 . S
N2420 C2412 1.356 . S
N2420 H2426 0.984 . S
N2420 H2427 0.984 . S
N2421 C2414 1.356 . S
N2421 H2424 0.984 . S
N2421 H2425 0.985 . S
H2422 N2417 0.984 . S
H2423 N2417 0.985 . S
H2424 N2421 0.984 . S
H2425 N2421 0.985 . S
H2426 N2420 0.984 . S
H2427 N2420 0.984 . S
H2428 N2416 0.984 . S
H2429 N2416 0.985 . S
C2430 C2431 1.363 . S
C2430 C2436 1.379 . S
C2430 N2438 1.356 . S
C2431 C2430 1.363 . S
C2431 C2437 1.363 . S
C2432 C2433 1.363 . S
C2432 C2437 1.379 . S
C2432 N2439 1.356 . S
C2433 C2432 1.363 . S
C2433 C2436 1.363 . S
N2434 C2436 1.356 . S
N2434 H2446 0.984 . S
N2434 H2447 0.985 . S
N2435 C2437 1.356 . S
N2435 H2440 0.984 . S
N2435 H2441 0.985 . S
C2436 C2430 1.379 . S
C2436 C2433 1.363 . S
C2436 N2434 1.356 . S
C2437 C2431 1.363 . S
C2437 C2432 1.379 . S
C2437 N2435 1.356 . S
N2438 C2430 1.356 . S
N2438 H2444 0.984 . S
N2438 H2445 0.984 . S
N2439 C2432 1.356 . S
N2439 H2442 0.984 . S
N2439 H2443 0.985 . S
H2440 N2435 0.984 . S
H2441 N2435 0.985 . S
H2442 N2439 0.984 . S
H2443 N2439 0.985 . S
H2444 N2438 0.984 . S
H2445 N2438 0.984 . S
H2446 N2434 0.984 . S
H2447 N2434 0.985 . S
C2448 C2449 1.346 1_565 S
C2448 C2454 1.391 . S
C2448 N2456 1.356 . S
C2449 C2448 1.346 1_545 S
C2449 C2455 1.363 . S
C2450 C2451 1.363 . S
C2450 C2455 1.379 . S
C2450 N2457 1.356 . S
C2451 C2450 1.363 . S
C2451 C2454 1.363 1_545 S
N2452 C2454 1.356 . S
N2452 H2464 0.984 . S
N2452 H2465 0.985 . S
N2453 C2455 1.356 . S
N2453 H2458 0.984 . S
N2453 H2459 0.985 . S
C2454 C2448 1.391 . S
C2454 C2451 1.363 1_565 S
C2454 N2452 1.356 . S
C2455 C2449 1.363 . S
C2455 C2450 1.379 . S
C2455 N2453 1.356 . S
N2456 C2448 1.356 . S
N2456 H2462 0.984 . S
N2456 H2463 0.984 . S
N2457 C2450 1.356 . S
N2457 H2460 0.984 . S
N2457 H2461 0.985 . S
H2458 N2453 0.984 . S
H2459 N2453 0.985 . S
H2460 N2457 0.984 . S
H2461 N2457 0.985 . S
H2462 N2456 0.984 . S
H2463 N2456 0.984 . S
H2464 N2452 0.984 . S
H2465 N2452 0.985 . S
C2466 C2467 1.363 . S
C2466 C2472 1.379 1_655 S
C2466 N2474 1.356 1_655 S
C2467 C2466 1.363 . S
C2467 C2473 1.363 . S
C2468 C2469 1.363 . S
C2468 C2473 1.379 . S
C2468 N2475 1.356 . S
C2469 C2468 1.363 . S
C2469 C2472 1.363 1_655 S
N2470 C2472 1.356 . S
N2470 H2482 0.984 . S
N2470 H2483 0.985 . S
N2471 C2473 1.356 . S
N2471 H2476 0.984 . S
N2471 H2477 0.985 . S
C2472 C2466 1.379 1_455 S
C2472 C2469 1.363 1_455 S
C2472 N2470 1.356 . S
C2473 C2467 1.363 . S
C2473 C2468 1.379 . S
C2473 N2471 1.356 . S
N2474 C2466 1.356 1_455 S
N2474 H2480 0.984 . S
N2474 H2481 0.986 1_455 S
N2475 C2468 1.356 . S
N2475 H2478 0.984 . S
N2475 H2479 0.985 . S
H2476 N2471 0.984 . S
H2477 N2471 0.985 . S
H2478 N2475 0.984 . S
H2479 N2475 0.985 . S
H2480 N2474 0.984 . S
H2481 N2474 0.986 1_655 S
H2482 N2470 0.984 . S
H2483 N2470 0.985 . S
C2484 C2485 1.363 . S
C2484 C2490 1.379 . S
C2484 N2492 1.356 . S
C2485 C2484 1.363 . S
C2485 C2491 1.363 . S
C2486 C2487 1.363 . S
C2486 C2491 1.379 . S
C2486 N2493 1.356 . S
C2487 C2486 1.363 . S
C2487 C2490 1.363 . S
N2488 C2490 1.356 . S
N2488 H2500 0.984 . S
N2488 H2501 0.985 . S
N2489 C2491 1.356 . S
N2489 H2494 0.984 . S
N2489 H2495 0.985 . S
C2490 C2484 1.379 . S
C2490 C2487 1.363 . S
C2490 N2488 1.356 . S
C2491 C2485 1.363 . S
C2491 C2486 1.379 . S
C2491 N2489 1.356 . S
N2492 C2484 1.356 . S
N2492 H2498 0.984 . S
N2492 H2499 0.984 . S
N2493 C2486 1.356 . S
N2493 H2496 0.984 . S
N2493 H2497 0.985 . S
H2494 N2489 0.984 . S
H2495 N2489 0.985 . S
H2496 N2493 0.984 . S
H2497 N2493 0.985 . S
H2498 N2492 0.984 . S
H2499 N2492 0.984 . S
H2500 N2488 0.984 . S
H2501 N2488 0.985 . S
C2502 C2503 1.363 . S
C2502 C2508 1.379 . S
C2502 N2510 1.356 . S
C2503 C2502 1.363 . S
C2503 C2509 1.363 . S
C2504 C2505 1.363 . S
C2504 C2509 1.379 . S
C2504 N2511 1.356 . S
C2505 C2504 1.363 . S
C2505 C2508 1.363 . S
N2506 C2508 1.356 . S
N2506 H2518 0.984 . S
N2506 H2519 0.985 . S
N2507 C2509 1.356 . S
N2507 H2512 0.984 . S
N2507 H2513 0.985 . S
C2508 C2502 1.379 . S
C2508 C2505 1.363 . S
C2508 N2506 1.356 . S
C2509 C2503 1.363 . S
C2509 C2504 1.379 . S
C2509 N2507 1.356 . S
N2510 C2502 1.356 . S
N2510 H2516 0.984 . S
N2510 H2517 0.984 . S
N2511 C2504 1.356 . S
N2511 H2514 0.984 . S
N2511 H2515 0.985 . S
H2512 N2507 0.984 . S
H2513 N2507 0.985 . S
H2514 N2511 0.984 . S
H2515 N2511 0.985 . S
H2516 N2510 0.984 . S
H2517 N2510 0.984 . S
H2518 N2506 0.984 . S
H2519 N2506 0.985 . S
C2520 C2521 1.363 . S
C2520 C2526 1.379 . S
C2520 N2528 1.356 . S
C2521 C2520 1.363 . S
C2521 C2527 1.363 . S
C2522 C2523 1.363 . S
C2522 C2527 1.379 . S
C2522 N2529 1.356 . S
C2523 C2522 1.363 . S
C2523 C2526 1.363 . S
N2524 C2526 1.356 . S
N2524 H2536 0.984 . S
N2524 H2537 0.985 . S
N2525 C2527 1.356 . S
N2525 H2530 0.984 . S
N2525 H2531 0.985 . S
C2526 C2520 1.379 . S
C2526 C2523 1.363 . S
C2526 N2524 1.356 . S
C2527 C2521 1.363 . S
C2527 C2522 1.379 . S
C2527 N2525 1.356 . S
N2528 C2520 1.356 . S
N2528 H2534 0.984 . S
N2528 H2535 0.984 . S
N2529 C2522 1.356 . S
N2529 H2532 0.984 . S
N2529 H2533 0.985 . S
H2530 N2525 0.984 . S
H2531 N2525 0.985 . S
H2532 N2529 0.984 . S
H2533 N2529 0.985 . S
H2534 N2528 0.984 . S
H2535 N2528 0.984 . S
H2536 N2524 0.984 . S
H2537 N2524 0.985 . S
C2538 C2539 1.363 . S
C2538 C2544 1.379 . S
C2538 N2546 1.356 . S
C2539 C2538 1.363 . S
C2539 C2545 1.363 . S
C2540 C2541 1.363 . S
C2540 C2545 1.379 . S
C2540 N2547 1.356 . S
C2541 C2540 1.363 . S
C2541 C2544 1.363 . S
N2542 C2544 1.356 . S
N2542 H2554 0.984 . S
N2542 H2555 0.985 . S
N2543 C2545 1.356 . S
N2543 H2548 0.984 . S
N2543 H2549 0.985 . S
C2544 C2538 1.379 . S
C2544 C2541 1.363 . S
C2544 N2542 1.356 . S
C2545 C2539 1.363 . S
C2545 C2540 1.379 . S
C2545 N2543 1.356 . S
N2546 C2538 1.356 . S
N2546 H2552 0.984 . S
N2546 H2553 0.984 . S
N2547 C2540 1.356 . S
N2547 H2550 0.984 . S
N2547 H2551 0.985 . S
H2548 N2543 0.984 . S
H2549 N2543 0.985 . S
H2550 N2547 0.984 . S
H2551 N2547 0.985 . S
H2552 N2546 0.984 . S
H2553 N2546 0.984 . S
H2554 N2542 0.984 . S
H2555 N2542 0.985 . S
C2556 C2557 1.363 . S
C2556 C2562 1.379 . S
C2556 N2564 1.356 . S
C2557 C2556 1.363 . S
C2557 C2563 1.363 . S
C2558 C2559 1.363 . S
C2558 C2563 1.379 . S
C2558 N2565 1.356 . S
C2559 C2558 1.363 . S
C2559 C2562 1.363 . S
N2560 C2562 1.356 . S
N2560 H2572 0.984 . S
N2560 H2573 0.985 . S
N2561 C2563 1.356 . S
N2561 H2566 0.984 . S
N2561 H2567 0.985 . S
C2562 C2556 1.379 . S
C2562 C2559 1.363 . S
C2562 N2560 1.356 . S
C2563 C2557 1.363 . S
C2563 C2558 1.379 . S
C2563 N2561 1.356 . S
N2564 C2556 1.356 . S
N2564 H2570 0.984 . S
N2564 H2571 0.984 . S
N2565 C2558 1.356 . S
N2565 H2568 0.984 . S
N2565 H2569 0.985 . S
H2566 N2561 0.984 . S
H2567 N2561 0.985 . S
H2568 N2565 0.984 . S
H2569 N2565 0.985 . S
H2570 N2564 0.984 . S
H2571 N2564 0.984 . S
H2572 N2560 0.984 . S
H2573 N2560 0.985 . S
C2574 C2575 1.363 . S
C2574 C2580 1.379 . S
C2574 N2582 1.356 . S
C2575 C2574 1.363 . S
C2575 C2581 1.363 . S
C2576 C2577 1.363 . S
C2576 C2581 1.379 . S
C2576 N2583 1.356 . S
C2577 C2576 1.363 . S
C2577 C2580 1.363 . S
N2578 C2580 1.356 . S
N2578 H2590 0.984 . S
N2578 H2591 0.985 . S
N2579 C2581 1.356 . S
N2579 H2584 0.984 . S
N2579 H2585 0.985 . S
C2580 C2574 1.379 . S
C2580 C2577 1.363 . S
C2580 N2578 1.356 . S
C2581 C2575 1.363 . S
C2581 C2576 1.379 . S
C2581 N2579 1.356 . S
N2582 C2574 1.356 . S
N2582 H2588 0.984 . S
N2582 H2589 0.984 . S
N2583 C2576 1.356 . S
N2583 H2586 0.984 . S
N2583 H2587 0.985 . S
H2584 N2579 0.984 . S
H2585 N2579 0.985 . S
H2586 N2583 0.984 . S
H2587 N2583 0.985 . S
H2588 N2582 0.984 . S
H2589 N2582 0.984 . S
H2590 N2578 0.984 . S
H2591 N2578 0.985 . S
C2592 C2593 1.363 . S
C2592 C2598 1.379 . S
C2592 N2600 1.356 . S
C2593 C2592 1.363 . S
C2593 C2599 1.363 . S
C2594 C2595 1.363 . S
C2594 C2599 1.379 . S
C2594 N2601 1.356 . S
C2595 C2594 1.363 . S
C2595 C2598 1.363 . S
N2596 C2598 1.356 . S
N2596 H2608 0.984 . S
N2596 H2609 0.985 . S
N2597 C2599 1.356 . S
N2597 H2602 0.984 . S
N2597 H2603 0.985 . S
C2598 C2592 1.379 . S
C2598 C2595 1.363 . S
C2598 N2596 1.356 . S
C2599 C2593 1.363 . S
C2599 C2594 1.379 . S
C2599 N2597 1.356 . S
N2600 C2592 1.356 . S
N2600 H2606 0.984 . S
N2600 H2607 0.984 . S
N2601 C2594 1.356 . S
N2601 H2604 0.984 . S
N2601 H2605 0.985 . S
H2602 N2597 0.984 . S
H2603 N2597 0.985 . S
H2604 N2601 0.984 . S
H2605 N2601 0.985 . S
H2606 N2600 0.984 . S
H2607 N2600 0.984 . S
H2608 N2596 0.984 . S
H2609 N2596 0.985 . S
C2610 C2611 1.363 . S
C2610 C2616 1.379 . S
C2610 N2618 1.356 . S
C2611 C2610 1.363 . S
C2611 C2617 1.391 . S
C2612 C2613 1.363 1_455 S
C2612 C2617 1.356 1_455 S
C2612 N2619 1.356 . S
C2613 C2612 1.363 1_655 S
C2613 C2616 1.363 . S
N2614 C2616 1.356 . S
N2614 H2626 0.984 . S
N2614 H2627 0.985 . S
N2615 C2617 1.361 1_455 S
N2615 H2620 0.984 . S
N2615 H2621 0.985 . S
C2616 C2610 1.379 . S
C2616 C2613 1.363 . S
C2616 N2614 1.356 . S
C2617 C2611 1.391 . S
C2617 C2612 1.356 1_655 S
C2617 N2615 1.361 1_655 S
N2618 C2610 1.356 . S
N2618 H2624 0.984 . S
N2618 H2625 0.984 . S
N2619 C2612 1.356 . S
N2619 H2622 0.984 . S
N2619 H2623 0.985 . S
H2620 N2615 0.984 . S
H2621 N2615 0.985 . S
H2622 N2619 0.984 . S
H2623 N2619 0.985 . S
H2624 N2618 0.984 . S
H2625 N2618 0.984 . S
H2626 N2614 0.984 . S
H2627 N2614 0.985 . S
C2628 C2629 1.363 . S
C2628 C2634 1.379 . S
C2628 N2636 1.356 . S
C2629 C2628 1.363 . S
C2629 C2635 1.363 . S
C2630 C2631 1.363 . S
C2630 C2635 1.379 . S
C2630 N2637 1.356 . S
C2631 C2630 1.363 . S
C2631 C2634 1.363 . S
N2632 C2634 1.356 . S
N2632 H2644 0.984 . S
N2632 H2645 0.985 . S
N2633 C2635 1.356 . S
N2633 H2638 0.984 . S
N2633 H2639 0.985 . S
C2634 C2628 1.379 . S
C2634 C2631 1.363 . S
C2634 N2632 1.356 . S
C2635 C2629 1.363 . S
C2635 C2630 1.379 . S
C2635 N2633 1.356 . S
N2636 C2628 1.356 . S
N2636 H2642 0.984 . S
N2636 H2643 0.984 . S
N2637 C2630 1.356 . S
N2637 H2640 0.984 . S
N2637 H2641 0.985 . S
H2638 N2633 0.984 . S
H2639 N2633 0.985 . S
H2640 N2637 0.984 . S
H2641 N2637 0.985 . S
H2642 N2636 0.984 . S
H2643 N2636 0.984 . S
H2644 N2632 0.984 . S
H2645 N2632 0.985 . S
C2646 C2647 1.363 . S
C2646 C2652 1.379 . S
C2646 N2654 1.356 . S
C2647 C2646 1.363 . S
C2647 C2653 1.363 . S
C2648 C2649 1.363 . S
C2648 C2653 1.379 . S
C2648 N2655 1.356 1_545 S
C2649 C2648 1.363 . S
C2649 C2652 1.363 . S
N2650 C2652 1.356 . S
N2650 H2662 0.984 . S
N2650 H2663 0.985 . S
N2651 C2653 1.356 . S
N2651 H2656 0.984 . S
N2651 H2657 0.985 1_545 S
C2652 C2646 1.379 . S
C2652 C2649 1.363 . S
C2652 N2650 1.356 . S
C2653 C2647 1.363 . S
C2653 C2648 1.379 . S
C2653 N2651 1.356 . S
N2654 C2646 1.356 . S
N2654 H2660 0.984 . S
N2654 H2661 0.984 . S
N2655 C2648 1.356 1_565 S
N2655 H2658 0.984 . S
N2655 H2659 0.985 . S
H2656 N2651 0.984 . S
H2657 N2651 0.985 1_565 S
H2658 N2655 0.984 . S
H2659 N2655 0.985 . S
H2660 N2654 0.984 . S
H2661 N2654 0.984 . S
H2662 N2650 0.984 . S
H2663 N2650 0.985 . S
C1369 C9 1.597 1_655 S
C1371 C857 1.531 . S
C1387 C19 1.625 . S
C1389 C901 1.591 . S
C1407 C981 1.555 . S
C1405 C33 1.619 . S
C1423 C37 1.615 1_565 S
C1425 C1025 1.576 . S
C1441 C5 1.587 . S
C1443 C1105 1.533 . S
C1459 C23 1.667 . S
C1461 C1167 1.580 . S
C1477 C47 1.598 . S
C1479 C1087 1.537 . S
C1497 C1149 1.585 . S
C1495 C65 1.673 . S
C1515 C1043 1.560 . S
C1513 C75 1.593 . S
C1531 C79 1.575 . S
C1533 C963 1.506 . S
C1551 C839 1.558 . S
C1549 C51 1.626 1_655 S
C1567 C61 1.649 . S
C1569 C919 1.614 . S
C1585 C93 1.718 . S
C1587 C1229 1.619 . S
C1603 C103 1.664 . S
C1605 C1273 1.634 . S
C1623 C1353 1.612 . S
C1621 C117 1.698 . S
C1639 C121 1.692 . S
C1641 C299 1.603 . S
C1657 C89 1.684 . S
C1659 C343 1.650 . S
C1675 C107 1.701 . S
C1677 C423 1.612 . S
C1693 C131 1.671 . S
C1695 C361 1.633 . S
C1711 C149 1.701 . S
C1713 C405 1.613 . S
C1731 C281 1.584 . S
C1729 C159 1.667 . S
C1749 C1335 1.604 . S
C1747 C163 1.691 . S
C1767 C1211 1.633 . S
C1765 C135 1.734 . S
C1785 C1291 1.658 . S
C1783 C145 1.689 . S
C1801 C177 1.688 . S
C1803 C485 1.591 . S
C1819 C187 1.648 . S
C1821 C547 1.577 . S
C1837 C201 1.697 . S
C1839 C591 1.656 . S
C1855 C205 1.723 . S
C1857 C653 1.682 . S
C1875 C715 1.654 . S
C1873 C173 1.688 . S
C1893 C795 1.624 . S
C1891 C191 1.716 . S
C1911 C733 1.667 . S
C1909 C215 1.706 . S
C1929 C777 1.629 . S
C1927 C233 1.720 . S
C1945 C243 1.667 . S
C1947 C671 1.631 . S
C1965 C609 1.619 . S
C1963 C247 1.655 . S
C1981 C219 1.731 . S
C1983 C467 1.631 . S
C2001 C529 1.608 . S
C1999 C229 1.682 . S
C2019 C305 1.471 . S
C2017 C11 1.564 . S
C2035 C14 1.570 . S
C2037 C349 1.488 . S
C2055 C429 1.537 . S
C2053 C28 1.640 . S
C2073 C491 1.533 . S
C2071 C39 1.633 . S
C2091 C553 1.486 . S
C2089 C0 1.589 . S
C2109 C597 1.453 . S
C2107 C25 1.528 . S
C2125 C42 1.631 . S
C2127 C615 1.556 . S
C2143 C67 1.576 . S
C2145 C473 1.477 . S
C2161 C70 1.542 . S
C2163 C535 1.442 . S
C2179 C81 1.564 . S
C2181 C367 1.493 . S
C2199 C411 1.509 . S
C2197 C53 1.609 . S
C2215 C56 1.603 . S
C2217 C287 1.495 . S
C2235 C659 1.485 . S
C2233 C95 1.560 . S
C2251 C98 1.609 . S
C2253 C721 1.528 . S
C2269 C112 1.700 . S
C2271 C801 1.563 . S
C2289 C863 1.440 . S
C2287 C123 1.510 . S
C2305 C84 1.575 . S
C2307 C907 1.496 . S
C2323 C109 1.450 . S
C2325 C987 1.383 . S
C2341 C126 1.528 . S
C2343 C969 1.451 . S
C2359 C151 1.487 . S
C2361 C845 1.419 . S
C2379 C925 1.468 . S
C2377 C154 1.544 . S
C2395 C165 1.555 . S
C2397 C739 1.476 . S
C2413 C137 1.627 . S
C2415 C783 1.524 . S
C2433 C677 1.563 . S
C2431 C140 1.645 . S
C2451 C1031 1.421 . S
C2449 C179 1.479 . S
C2467 C182 1.482 . S
C2469 C1111 1.414 . S
C2485 C196 1.623 . S
C2487 C1173 1.525 . S
C2505 C1235 1.522 . S
C2503 C207 1.626 . S
C2523 C1279 1.527 . S
C2521 C168 1.612 . S
C2539 C193 1.575 . S
C2541 C1359 1.475 . S
C2557 C210 1.631 . S
C2559 C1341 1.527 . S
C2575 C235 1.617 . S
C2577 C1217 1.518 . S
C2595 C1297 1.498 . S
C2593 C238 1.580 . S
C2613 C1093 1.378 . S
C2611 C249 1.446 . S
C2631 C1155 1.493 . S
C2629 C221 1.588 . S
C2647 C224 1.524 . S
C2649 C1049 1.461 . S
