# Generated by pormake.
# Topology cml, (3,6)-cn, num edge types: 1
# Building blocks:
#     Node 0, Type 0, BuildingBlock: BETDIP_clean_linker_0, # of connection points: 3
#     Node 1, Type 0, BuildingBlock: BETDIP_clean_linker_0, # of connection points: 3
#     Node 2, Type 0, BuildingBlock: BETDIP_clean_linker_0, # of connection points: 3
#     Node 3, Type 0, BuildingBlock: BETDIP_clean_linker_0, # of connection points: 3
#     Node 4, Type 0, BuildingBlock: BETDIP_clean_linker_0, # of connection points: 3
#     Node 5, Type 0, BuildingBlock: BETDIP_clean_linker_0, # of connection points: 3
#     Node 6, Type 0, BuildingBlock: BETDIP_clean_linker_0, # of connection points: 3
#     Node 7, Type 0, BuildingBlock: BETDIP_clean_linker_0, # of connection points: 3
#     Node 8, Type 1, BuildingBlock: IZENUY_clean_sbu_0, # of connection points: 6
#     Node 9, Type 1, BuildingBlock: IZENUY_clean_sbu_0, # of connection points: 6
#     Node 10, Type 1, BuildingBlock: IZENUY_clean_sbu_0, # of connection points: 6
#     Node 11, Type 1, BuildingBlock: IZENUY_clean_sbu_0, # of connection points: 6
#     Edge 12, Type (0, 1), BuildingBlock: AJUNOK_clean_linker_0, # of connection points: 2
#     Edge 13, Type (0, 1), BuildingBlock: AJUNOK_clean_linker_0, # of connection points: 2
#     Edge 14, Type (0, 1), BuildingBlock: AJUNOK_clean_linker_0, # of connection points: 2
#     Edge 15, Type (0, 1), BuildingBlock: AJUNOK_clean_linker_0, # of connection points: 2
#     Edge 16, Type (0, 1), BuildingBlock: AJUNOK_clean_linker_0, # of connection points: 2
#     Edge 17, Type (0, 1), BuildingBlock: AJUNOK_clean_linker_0, # of connection points: 2
#     Edge 18, Type (0, 1), BuildingBlock: AJUNOK_clean_linker_0, # of connection points: 2
#     Edge 19, Type (0, 1), BuildingBlock: AJUNOK_clean_linker_0, # of connection points: 2
#     Edge 20, Type (0, 1), BuildingBlock: AJUNOK_clean_linker_0, # of connection points: 2
#     Edge 21, Type (0, 1), BuildingBlock: AJUNOK_clean_linker_0, # of connection points: 2
#     Edge 22, Type (0, 1), BuildingBlock: AJUNOK_clean_linker_0, # of connection points: 2
#     Edge 23, Type (0, 1), BuildingBlock: AJUNOK_clean_linker_0, # of connection points: 2
#     Edge 24, Type (0, 1), BuildingBlock: AJUNOK_clean_linker_0, # of connection points: 2
#     Edge 25, Type (0, 1), BuildingBlock: AJUNOK_clean_linker_0, # of connection points: 2
#     Edge 26, Type (0, 1), BuildingBlock: AJUNOK_clean_linker_0, # of connection points: 2
#     Edge 27, Type (0, 1), BuildingBlock: AJUNOK_clean_linker_0, # of connection points: 2
#     Edge 28, Type (0, 1), BuildingBlock: AJUNOK_clean_linker_0, # of connection points: 2
#     Edge 29, Type (0, 1), BuildingBlock: AJUNOK_clean_linker_0, # of connection points: 2
#     Edge 30, Type (0, 1), BuildingBlock: AJUNOK_clean_linker_0, # of connection points: 2
#     Edge 31, Type (0, 1), BuildingBlock: AJUNOK_clean_linker_0, # of connection points: 2
#     Edge 32, Type (0, 1), BuildingBlock: AJUNOK_clean_linker_0, # of connection points: 2
#     Edge 33, Type (0, 1), BuildingBlock: AJUNOK_clean_linker_0, # of connection points: 2
#     Edge 34, Type (0, 1), BuildingBlock: AJUNOK_clean_linker_0, # of connection points: 2
#     Edge 35, Type (0, 1), BuildingBlock: AJUNOK_clean_linker_0, # of connection points: 2
# Relax obj value: 0.003
# Max RMSD: 0.063
# Mean RMSD: 0.051
data_MOF--net-cml--node1-IZENUY_clean_sbu_0--node2-BETDIP_clean_linker_0--edge1-AJUNOK_clean_linker_0
_symmetry_space_group_name_H-M    P1
_symmetry_Int_Tables_number       1
_symmetry_cell_setting            triclinic
loop_
_symmetry_equiv_pos_as_xyz
'x, y, z'
_cell_length_a     27.453354
_cell_length_b     29.572107
_cell_length_c     27.018627
_cell_angle_alpha  90.055428
_cell_angle_beta   90.01597
_cell_angle_gamma 89.83127
loop_
_atom_site_label
_atom_site_type_symbol
_atom_site_fract_x
_atom_site_fract_y
_atom_site_fract_z
_atom_type_partial_charge
H0 H 0.28564 0.36499 0.07889 0.0
H1 H 0.28439 0.44445 0.9452 0.0
H2 H 0.3776 0.48163 0.06591 0.0
H3 H 0.2474 0.3858 0.91203 0.0
C4 C 0.23127 0.36485 0.94053 0.0
C5 C 0.29827 0.39389 0.05788 0.0
C6 C 0.33258 0.42336 0.07871 0.0
C7 C 0.28072 0.40074 0.00971 0.0
C8 C 0.29756 0.43812 0.98225 0.0
C9 C 0.33193 0.46796 0.0028 0.0
C10 C 0.34918 0.46021 0.05092 0.0
N11 N 0.24653 0.36906 0.99065 0.0
H12 H 0.73176 0.68743 0.57071 0.0
H13 H 0.74396 0.60142 0.44268 0.0
H14 H 0.63733 0.57257 0.55416 0.0
H15 H 0.76824 0.66692 0.40773 0.0
C16 C 0.79053 0.68317 0.43573 0.0
C17 C 0.72035 0.65768 0.55039 0.0
C18 C 0.68246 0.6306 0.56863 0.0
C19 C 0.74199 0.64812 0.50454 0.0
C20 C 0.72642 0.61015 0.47724 0.0
C21 C 0.68826 0.58297 0.49474 0.0
C22 C 0.66705 0.59322 0.54064 0.0
N23 N 0.77869 0.67775 0.48661 0.0
H24 H 0.728 0.34769 0.06836 0.0
H25 H 0.72633 0.42459 0.93309 0.0
H26 H 0.63342 0.46297 0.05341 0.0
H27 H 0.79897 0.39577 0.92108 0.0
C28 C 0.80174 0.36379 0.94046 0.0
C29 C 0.71492 0.37643 0.0473 0.0
C30 C 0.6778 0.4041 0.06651 0.0
C31 C 0.73444 0.38467 1.00012 0.0
C32 C 0.71481 0.41997 0.97096 0.0
C33 C 0.6779 0.44809 0.98988 0.0
C34 C 0.66107 0.4407 0.03818 0.0
N35 N 0.772 0.35544 0.98255 0.0
H36 H 0.28127 0.67909 0.57694 0.0
H37 H 0.2843 0.59738 0.44463 0.0
H38 H 0.37899 0.56575 0.56582 0.0
H39 H 0.22698 0.641 0.41756 0.0
C40 C 0.21907 0.66908 0.44203 0.0
C41 C 0.29547 0.65046 0.55636 0.0
C42 C 0.33188 0.62311 0.57729 0.0
C43 C 0.27758 0.64175 0.50869 0.0
C44 C 0.29651 0.60465 0.48176 0.0
C45 C 0.33236 0.57648 0.50277 0.0
C46 C 0.34966 0.58599 0.55046 0.0
N47 N 0.24186 0.672 0.48922 0.0
H48 H 0.79185 0.86087 0.07413 0.0
H49 H 0.79371 0.93496 0.93674 0.0
H50 H 0.88551 0.9758 0.05701 0.0
H51 H 0.73226 0.89266 0.91551 0.0
C52 C 0.7283 0.8637 0.93972 0.0
C53 C 0.80517 0.88876 0.05197 0.0
C54 C 0.83956 0.91867 0.07192 0.0
C55 C 0.78786 0.89422 0.00352 0.0
C56 C 0.80568 0.93027 0.97446 0.0
C57 C 0.84002 0.96062 0.99414 0.0
C58 C 0.85699 0.95415 0.04263 0.0
N59 N 0.75358 0.86203 0.98562 0.0
H60 H 0.24961 0.17304 0.5785 0.0
H61 H 0.24721 0.09638 0.44314 0.0
H62 H 0.14514 0.06645 0.55898 0.0
H63 H 0.27202 0.16343 0.41143 0.0
C64 C 0.29663 0.17739 0.43888 0.0
C65 C 0.23409 0.14622 0.55619 0.0
C66 C 0.19558 0.12013 0.57482 0.0
C67 C 0.25184 0.13899 0.50821 0.0
C68 C 0.23234 0.10366 0.47937 0.0
C69 C 0.19392 0.07709 0.49756 0.0
C70 C 0.17595 0.08562 0.54534 0.0
N71 N 0.28867 0.16829 0.48991 0.0
H72 H 0.2331 0.85579 0.07401 0.0
H73 H 0.24827 0.9449 0.94868 0.0
H74 H 0.14243 0.97392 0.06094 0.0
H75 H 0.28504 0.88646 0.91406 0.0
C76 C 0.30063 0.86504 0.94256 0.0
C77 C 0.22271 0.88631 0.05442 0.0
C78 C 0.18489 0.91353 0.07274 0.0
C79 C 0.24558 0.89679 0.00945 0.0
C80 C 0.23115 0.9359 0.9833 0.0
C81 C 0.19419 0.96407 0.00208 0.0
C82 C 0.17174 0.95283 0.04695 0.0
N83 N 0.28216 0.86669 0.9917 0.0
H84 H 0.78787 0.18463 0.57591 0.0
H85 H 0.78706 0.09993 0.44582 0.0
H86 H 0.88628 0.07171 0.564 0.0
H87 H 0.73661 0.14806 0.415 0.0
C88 C 0.72535 0.17386 0.44106 0.0
C89 C 0.80198 0.15592 0.55544 0.0
C90 C 0.83906 0.12902 0.57599 0.0
C91 C 0.78296 0.14633 0.50837 0.0
C92 C 0.80094 0.10852 0.48199 0.0
C93 C 0.83753 0.08093 0.50248 0.0
C94 C 0.85643 0.09164 0.54919 0.0
N95 N 0.74644 0.1759 0.48914 0.0
Fe96 Fe 0.01128 0.83041 0.30283 0.0
Fe97 Fe 0.01268 0.87186 0.4072 0.0
O98 O 0.01229 0.87853 0.34195 0.0
Fe99 Fe 0.01254 0.93332 0.31548 0.0
O100 O 0.95482 0.92345 0.28452 0.0
O101 O 0.97542 0.85748 0.25374 0.0
O102 O 0.95422 0.81174 0.329 0.0
C103 C 0.94642 0.80449 0.37425 0.0
C104 C 0.0743 0.88322 0.25139 0.0
O105 O 0.97448 0.82072 0.40705 0.0
C106 C 0.07769 0.94544 0.39067 0.0
O107 O 0.04659 0.79419 0.34463 0.0
O108 O 0.06869 0.83882 0.40541 0.0
O109 O 0.04684 0.91663 0.2603 0.0
O110 O 0.06847 0.8461 0.27351 0.0
C111 C 0.95066 0.94439 0.39866 0.0
O112 O 0.05079 0.92182 0.41869 0.0
O113 O 0.07012 0.94702 0.34463 0.0
C114 C 0.07496 0.8034 0.38008 0.0
O115 O 0.95676 0.90454 0.41425 0.0
O116 O 0.97818 0.96028 0.3655 0.0
C117 C 0.94787 0.8919 0.25387 0.0
Fe118 Fe 0.01644 0.16901 0.90668 0.0
Fe119 Fe 0.01823 0.10836 0.81428 0.0
O120 O 0.01768 0.16298 0.8414 0.0
Fe121 Fe 0.01865 0.21182 0.80326 0.0
O122 O 0.07552 0.23085 0.83052 0.0
O123 O 0.0528 0.22102 0.90766 0.0
O124 O 0.07321 0.13788 0.91371 0.0
C125 C 0.08091 0.09853 0.89727 0.0
C126 C 0.953 0.23618 0.8797 0.0
O127 O 0.05406 0.08206 0.86373 0.0
C128 C 0.95491 0.15864 0.7518 0.0
O129 O 0.98006 0.11813 0.9177 0.0
O130 O 0.96121 0.09289 0.84366 0.0
O131 O 0.9824 0.24686 0.84562 0.0
O132 O 0.95948 0.2004 0.90429 0.0
C133 C 0.08237 0.15154 0.75305 0.0
O134 O 0.9823 0.12496 0.76011 0.0
O135 O 0.96199 0.19606 0.77313 0.0
C136 C 0.95319 0.09476 0.88956 0.0
O137 O 0.07536 0.11929 0.78269 0.0
O138 O 0.05481 0.18587 0.75375 0.0
C139 C 0.08211 0.23728 0.87623 0.0
Fe140 Fe 0.51127 0.32983 0.30383 0.0
Fe141 Fe 0.51359 0.37167 0.40794 0.0
O142 O 0.51263 0.37804 0.34274 0.0
Fe143 Fe 0.51261 0.43272 0.31619 0.0
O144 O 0.45455 0.42279 0.28633 0.0
O145 O 0.47448 0.35684 0.25502 0.0
O146 O 0.45461 0.31099 0.33079 0.0
C147 C 0.44758 0.30363 0.37614 0.0
C148 C 0.57372 0.38251 0.2515 0.0
O149 O 0.47604 0.32006 0.40846 0.0
C150 C 0.57824 0.44539 0.39053 0.0
O151 O 0.54749 0.29401 0.34546 0.0
O152 O 0.56985 0.33926 0.40571 0.0
O153 O 0.54614 0.41587 0.26041 0.0
O154 O 0.56807 0.34553 0.27387 0.0
C155 C 0.45096 0.44357 0.39948 0.0
O156 O 0.55128 0.42213 0.41889 0.0
O157 O 0.57059 0.44629 0.34449 0.0
C158 C 0.57624 0.3038 0.38049 0.0
O159 O 0.45734 0.40375 0.41502 0.0
O160 O 0.47877 0.45977 0.36669 0.0
C161 C 0.44694 0.39136 0.25578 0.0
Fe162 Fe 0.51439 0.66736 0.90639 0.0
Fe163 Fe 0.51026 0.60889 0.81283 0.0
O164 O 0.51279 0.66284 0.84109 0.0
Fe165 Fe 0.51341 0.71218 0.804 0.0
O166 O 0.55154 0.74501 0.8467 0.0
O167 O 0.57245 0.69669 0.90466 0.0
O168 O 0.54848 0.61452 0.91553 0.0
C169 C 0.57494 0.5913 0.88668 0.0
C170 C 0.45139 0.73867 0.87798 0.0
O171 O 0.56786 0.59189 0.84056 0.0
C172 C 0.44631 0.65491 0.75415 0.0
O173 O 0.45644 0.63827 0.9126 0.0
O174 O 0.47518 0.58235 0.86266 0.0
O175 O 0.45767 0.73292 0.83215 0.0
O176 O 0.48014 0.72074 0.90898 0.0
C177 C 0.57319 0.658 0.74954 0.0
O178 O 0.45264 0.62218 0.7834 0.0
O179 O 0.47528 0.6882 0.7546 0.0
C180 C 0.44829 0.59905 0.89612 0.0
O181 O 0.54436 0.62557 0.75759 0.0
O182 O 0.56923 0.69472 0.77297 0.0
C183 C 0.58008 0.73284 0.88111 0.0
C184 C 0.17871 0.32946 0.87594 0.0
C185 C 0.19416 0.33088 0.92557 0.0
C186 C 0.14315 0.29867 0.86004 0.0
C187 C 0.12138 0.26816 0.89326 0.0
H188 H 0.19398 0.35266 0.84913 0.0
H189 H 0.1321 0.29941 0.82156 0.0
S190 S 0.15154 0.25554 0.02662 0.0
N191 N 0.18659 0.29724 0.00747 0.0
N192 N 0.11998 0.23957 0.97769 0.0
C193 C 0.13728 0.26853 0.94286 0.0
C194 C 0.17357 0.29982 0.95901 0.0
C195 C 0.85969 0.73609 0.45464 0.0
C196 C 0.82991 0.71413 0.41978 0.0
C197 C 0.89703 0.76531 0.43957 0.0
C198 C 0.90609 0.77378 0.38907 0.0
H199 H 0.85435 0.73069 0.49389 0.0
H200 H 0.91896 0.78131 0.46791 0.0
S201 S 0.83744 0.72468 0.28325 0.0
N202 N 0.81142 0.70284 0.3328 0.0
N203 N 0.88121 0.75771 0.3042 0.0
C204 C 0.87618 0.75208 0.35388 0.0
C205 C 0.83828 0.72228 0.36932 0.0
C206 C 0.84842 0.2909 0.9511 0.0
C207 C 0.83926 0.33075 0.92417 0.0
C208 C 0.88483 0.2603 0.93625 0.0
C209 C 0.91352 0.26834 0.8939 0.0
H210 H 0.82771 0.28336 0.98417 0.0
H211 H 0.89076 0.23033 0.95851 0.0
S212 S 0.90175 0.3669 0.80924 0.0
N213 N 0.86036 0.37595 0.85243 0.0
N214 N 0.92839 0.31871 0.82415 0.0
C215 C 0.9039 0.30779 0.86619 0.0
C216 C 0.86694 0.33887 0.88143 0.0
C217 C 0.17151 0.74116 0.45576 0.0
C218 C 0.18324 0.70377 0.42567 0.0
C219 C 0.13711 0.77358 0.44051 0.0
C220 C 0.1129 0.76979 0.39469 0.0
H221 H 0.18875 0.74545 0.4915 0.0
H222 H 0.12902 0.80147 0.46522 0.0
S223 S 0.13254 0.67898 0.30139 0.0
N224 N 0.16925 0.6655 0.34747 0.0
N225 N 0.10488 0.72604 0.31861 0.0
C226 C 0.12502 0.7328 0.36399 0.0
C227 C 0.16006 0.69995 0.37954 0.0
C228 C 0.66336 0.8354 0.88361 0.0
C229 C 0.69243 0.82834 0.92567 0.0
C230 C 0.62783 0.80408 0.86936 0.0
C231 C 0.61981 0.7641 0.8965 0.0
H232 H 0.66769 0.86578 0.86167 0.0
H233 H 0.60623 0.81167 0.83685 0.0
S234 S 0.68841 0.72811 0.0084 0.0
N235 N 0.7124 0.77737 0.9935 0.0
N236 N 0.6457 0.7184 0.96674 0.0
C237 C 0.64951 0.75603 0.93817 0.0
C238 C 0.68573 0.78815 0.95279 0.0
C239 C 0.36744 0.22878 0.45681 0.0
C240 C 0.33467 0.20973 0.42267 0.0
C241 C 0.40344 0.25933 0.44151 0.0
C242 C 0.40818 0.27206 0.39147 0.0
H243 H 0.36555 0.21999 0.49566 0.0
H244 H 0.42794 0.27281 0.46925 0.0
S245 S 0.32992 0.23246 0.2878 0.0
N246 N 0.3084 0.20617 0.33698 0.0
N247 N 0.37561 0.26359 0.308 0.0
C248 C 0.37512 0.25345 0.35708 0.0
C249 C 0.33858 0.22231 0.37274 0.0
C250 C 0.35481 0.83118 0.87847 0.0
C251 C 0.33891 0.83198 0.92793 0.0
C252 C 0.3908 0.80074 0.86254 0.0
C253 C 0.41265 0.76998 0.89557 0.0
H254 H 0.33931 0.85441 0.85172 0.0
H255 H 0.4019 0.80175 0.82409 0.0
S256 S 0.38244 0.75665 0.0288 0.0
N257 N 0.34682 0.79818 0.00974 0.0
N258 N 0.41434 0.74108 0.97989 0.0
C259 C 0.39672 0.77006 0.94515 0.0
C260 C 0.35991 0.801 0.96133 0.0
C261 C 0.67409 0.24342 0.45604 0.0
C262 C 0.68785 0.20718 0.4252 0.0
C263 C 0.63851 0.27481 0.44109 0.0
C264 C 0.61502 0.27102 0.39488 0.0
H265 H 0.69079 0.24771 0.49205 0.0
H266 H 0.629 0.30192 0.46632 0.0
S267 S 0.63943 0.18284 0.29985 0.0
N268 N 0.67629 0.16988 0.34601 0.0
N269 N 0.60954 0.22849 0.31782 0.0
C270 C 0.62895 0.23509 0.36355 0.0
C271 C 0.66528 0.20333 0.37874 0.0
C272 C 0.37518 0.49395 0.92676 0.0
C273 C 0.35417 0.50449 0.97272 0.0
C274 C 0.40368 0.52554 0.90138 0.0
C275 C 0.4123 0.56908 0.92085 0.0
H276 H 0.37168 0.46024 0.91143 0.0
H277 H 0.42047 0.51502 0.86695 0.0
S278 S 0.35949 0.61524 0.03704 0.0
N279 N 0.33944 0.5627 0.03449 0.0
N280 N 0.39301 0.62233 0.98692 0.0
C281 C 0.38883 0.58097 0.9654 0.0
C282 C 0.35989 0.5486 0.99132 0.0
C283 C 0.65609 0.50399 0.48703 0.0
C284 C 0.66773 0.54546 0.46445 0.0
C285 C 0.62926 0.4709 0.46191 0.0
C286 C 0.61324 0.4777 0.41299 0.0
H287 H 0.66638 0.49768 0.52512 0.0
H288 H 0.6197 0.44029 0.4816 0.0
S289 S 0.63684 0.5793 0.33594 0.0
N290 N 0.66298 0.59071 0.38951 0.0
N291 N 0.61367 0.52814 0.34179 0.0
C292 C 0.62709 0.51793 0.38891 0.0
C293 C 0.65406 0.55187 0.41474 0.0
C294 C 0.60214 0.48641 0.96036 0.0
C295 C 0.65334 0.48309 0.95893 0.0
C296 C 0.57743 0.52121 0.93599 0.0
C297 C 0.60272 0.5536 0.90827 0.0
H298 H 0.58084 0.46222 0.98121 0.0
H299 H 0.5381 0.52302 0.93918 0.0
S300 S 0.73614 0.55963 0.89015 0.0
N301 N 0.72835 0.51512 0.92625 0.0
N302 N 0.68109 0.57985 0.8787 0.0
C303 C 0.65352 0.54998 0.90448 0.0
C304 C 0.67903 0.51478 0.93012 0.0
C305 C 0.3767 0.54921 0.42759 0.0
C306 C 0.3557 0.53959 0.47376 0.0
C307 C 0.40583 0.51724 0.40313 0.0
C308 C 0.41504 0.47422 0.42375 0.0
H309 H 0.37256 0.58248 0.41132 0.0
H310 H 0.42242 0.52696 0.36837 0.0
S311 S 0.36304 0.43063 0.54125 0.0
N312 N 0.34204 0.48287 0.53717 0.0
N313 N 0.39671 0.42257 0.49136 0.0
C314 C 0.39177 0.4633 0.46863 0.0
C315 C 0.36225 0.49604 0.49361 0.0
C316 C 0.88112 0.98827 0.91687 0.0
C317 C 0.86116 0.99762 0.96377 0.0
C318 C 0.9086 0.02085 0.89146 0.0
C319 C 0.91734 0.06374 0.9123 0.0
H320 H 0.87774 0.95481 0.9009 0.0
H321 H 0.92532 1.01147 0.8566 0.0
S322 S 0.86595 0.1075 0.02999 0.0
N323 N 0.84642 0.05482 0.02675 0.0
N324 N 0.89881 0.11559 0.97961 0.0
C325 C 0.89484 0.07442 0.95756 0.0
C326 C 0.86657 0.0415 0.98313 0.0
C327 C 0.15877 0.99952 0.48752 0.0
C328 C 0.17038 0.04169 0.46655 0.0
C329 C 0.13065 0.96782 0.46175 0.0
C330 C 0.11326 0.97678 0.41374 0.0
H331 H 0.17041 0.99142 0.5248 0.0
H332 H 0.12143 0.93647 0.48016 0.0
S333 S 0.13518 0.0814 0.34123 0.0
N334 N 0.16342 0.09024 0.39429 0.0
N335 N 0.11159 0.03026 0.3453 0.0
C336 C 0.12659 1.01792 0.39131 0.0
C337 C 0.1549 0.05044 0.41782 0.0
C338 C 0.15645 0.99386 0.92474 0.0
C339 C 0.17423 1.00217 0.9726 0.0
C340 C 0.12837 0.02624 0.8998 0.0
C341 C 0.11707 0.06832 0.92165 0.0
H342 H 0.16184 0.9611 0.90756 0.0
H343 H 0.11386 1.01738 0.8638 0.0
S344 S 0.16144 0.10886 0.04372 0.0
N345 N 0.18339 0.05698 0.03893 0.0
N346 N 0.13076 0.11816 0.99213 0.0
C347 C 0.13771 0.07824 0.96814 0.0
C348 C 0.16613 0.04505 0.99363 0.0
C349 C 0.87804 0.051 0.42628 0.0
C350 C 0.85942 0.04301 0.47386 0.0
C351 C 0.90563 1.01806 0.40156 0.0
C352 C 0.91563 0.97565 0.4233 0.0
H353 H 0.87326 0.08374 0.40897 0.0
H354 H 0.92053 0.02658 0.36564 0.0
S355 S 0.86954 0.93614 0.54497 0.0
N356 N 0.84864 0.98836 0.54001 0.0
N357 N 0.90055 0.92628 0.49369 0.0
C358 C 0.89463 0.96629 0.46971 0.0
C359 C 0.86666 1.00003 0.49497 0.0
C360 C 0.3771 0.37168 0.13631 0.0
C361 C 0.35485 0.41376 0.12761 0.0
C362 C 0.40493 0.36411 0.17902 0.0
C363 C 0.41148 0.39831 0.2148 0.0
H364 H 0.37496 0.34509 0.10878 0.0
H365 H 0.42286 0.33164 0.18303 0.0
S366 S 0.35478 0.51264 0.21201 0.0
N367 N 0.33687 0.48855 0.15998 0.0
N368 N 0.38885 0.47463 0.2405 0.0
C369 C 0.38673 0.4397 0.20783 0.0
C370 C 0.35862 0.44737 0.16414 0.0
C371 C 0.60484 0.64081 0.61544 0.0
C372 C 0.6561 0.64236 0.61501 0.0
C373 C 0.57855 0.64722 0.65913 0.0
C374 C 0.60234 0.65638 0.70398 0.0
H375 H 0.58477 0.63377 0.58178 0.0
H376 H 0.53919 0.64444 0.65796 0.0
S377 S 0.73532 0.666 0.72334 0.0
N378 N 0.72956 0.6547 0.66369 0.0
N379 N 0.67939 0.66838 0.74581 0.0
C380 C 0.65322 0.66006 0.70414 0.0
C381 C 0.6803 0.65277 0.65959 0.0
C382 C 0.60175 0.39635 0.11622 0.0
C383 C 0.65298 0.39378 0.11417 0.0
C384 C 0.57673 0.39165 0.16088 0.0
C385 C 0.60172 0.38315 0.20518 0.0
H386 H 0.5807 0.40289 0.08305 0.0
H387 H 0.5374 0.39514 0.16084 0.0
S388 S 0.73504 0.37076 0.22048 0.0
N389 N 0.72767 0.38091 0.16078 0.0
N390 N 0.67981 0.37025 0.24481 0.0
C391 C 0.65253 0.37832 0.20381 0.0
C392 C 0.67837 0.38394 0.15822 0.0
C393 C 0.36044 0.60049 0.66161 0.0
C394 C 0.35433 0.63439 0.62568 0.0
C395 C 0.38794 0.60825 0.70444 0.0
C396 C 0.41092 0.65012 0.71281 0.0
H397 H 0.34504 0.56721 0.65579 0.0
H398 H 0.39288 0.58044 0.73004 0.0
S399 S 0.40266 0.75124 0.6316 0.0
N400 N 0.37086 0.71216 0.60239 0.0
N401 N 0.42218 0.72715 0.68304 0.0
C402 C 0.40284 0.6851 0.6783 0.0
C403 C 0.37467 0.67715 0.63473 0.0
C404 C 0.88003 0.86873 0.13421 0.0
C405 C 0.86044 0.91117 0.12193 0.0
C406 C 0.90609 0.86241 0.17823 0.0
C407 C 0.91362 0.89828 0.21179 0.0
H408 H 0.8772 0.84069 0.10855 0.0
H409 H 0.92198 0.82941 0.185 0.0
S410 S 0.86389 1.01471 0.1994 0.0
N411 N 0.84582 0.98848 0.14868 0.0
N412 N 0.89504 0.9769 0.23144 0.0
C413 C 0.8916 0.94027 0.20123 0.0
C414 C 0.8651 0.94666 0.15626 0.0
C415 C 0.16351 0.09511 0.65712 0.0
C416 C 0.17304 0.13034 0.62357 0.0
C417 C 0.13639 0.10271 0.70032 0.0
C418 C 0.11729 0.14581 0.71143 0.0
H419 H 0.176 0.06108 0.64919 0.0
H420 H 0.12867 0.07409 0.72402 0.0
S421 S 0.13527 0.25023 0.63725 0.0
N422 N 0.16361 0.21035 0.60551 0.0
N423 N 0.11327 0.225 0.68688 0.0
C424 C 0.12871 0.18182 0.67931 0.0
C425 C 0.15642 0.17402 0.63538 0.0
C426 C 0.18056 0.89028 0.16224 0.0
C427 C 0.15681 0.90011 0.11725 0.0
C428 C 0.15378 0.88249 0.20581 0.0
C429 C 0.10267 0.88443 0.20534 0.0
H430 H 0.21997 0.89044 0.16417 0.0
H431 H 0.17306 0.87688 0.24025 0.0
S432 S 0.02318 0.9024 0.0962 0.0
N433 N 0.07915 0.90604 0.07421 0.0
N434 N 0.02928 0.89265 0.15602 0.0
C435 C 0.07863 0.89187 0.16026 0.0
C436 C 0.1056 0.89935 0.11616 0.0
C437 C 0.87013 0.10497 0.6588 0.0
C438 C 0.86155 0.13995 0.62462 0.0
C439 C 0.89831 0.11215 0.7012 0.0
C440 C 0.91866 0.15472 0.71149 0.0
H441 H 0.85639 0.07125 0.6518 0.0
H442 H 0.90548 0.08368 0.72538 0.0
S443 S 0.90452 0.25842 0.63567 0.0
N444 N 0.87385 0.21939 0.60507 0.0
N445 N 0.92595 0.23315 0.68566 0.0
C446 C 0.90799 0.19077 0.6793 0.0
C447 C 0.87961 0.18332 0.63565 0.0
loop_
_geom_bond_atom_site_label_1
_geom_bond_atom_site_label_2
_geom_bond_distance
_geom_bond_site_symmetry_2
_ccdc_geom_bond_type
H0 C5 0.930 . S
H1 C8 0.930 . S
H2 C10 0.930 . S
H3 C4 1.016 . S
C4 H3 1.016 . S
C4 N11 1.286 . S
C5 H0 0.930 . S
C5 C6 1.397 . S
C5 C7 1.361 . S
C6 C5 1.397 . S
C6 C10 1.390 . S
C7 C5 1.361 . S
C7 C8 1.393 1_554 S
C7 N11 1.413 1_554 S
C8 H1 0.930 . S
C8 C7 1.393 1_556 S
C8 C9 1.399 . S
C9 C8 1.399 . S
C9 C10 1.381 1_556 S
C10 H2 0.930 . S
C10 C6 1.390 . S
C10 C9 1.381 1_554 S
N11 C4 1.286 . S
N11 C7 1.413 1_556 S
H12 C17 0.930 . S
H13 C20 0.930 . S
H14 C22 0.930 . S
H15 C16 1.016 . S
C16 H15 1.016 . S
C16 N23 1.286 . S
C17 H12 0.930 . S
C17 C18 1.397 . S
C17 C19 1.361 . S
C18 C17 1.397 . S
C18 C22 1.390 . S
C19 C17 1.361 . S
C19 C20 1.393 . S
C19 N23 1.413 . S
C20 H13 0.930 . S
C20 C19 1.393 . S
C20 C21 1.399 . S
C21 C20 1.399 . S
C21 C22 1.381 . S
C22 H14 0.930 . S
C22 C18 1.390 . S
C22 C21 1.381 . S
N23 C16 1.286 . S
N23 C19 1.413 . S
H24 C29 0.930 . S
H25 C32 0.930 . S
H26 C34 0.930 . S
H27 C28 1.016 . S
C28 H27 1.016 . S
C28 N35 1.286 1_556 S
C29 H24 0.930 . S
C29 C30 1.397 . S
C29 C31 1.361 . S
C30 C29 1.397 . S
C30 C34 1.390 . S
C31 C29 1.361 . S
C31 C32 1.393 1_554 S
C31 N35 1.413 . S
C32 H25 0.930 . S
C32 C31 1.393 1_556 S
C32 C33 1.399 . S
C33 C32 1.399 . S
C33 C34 1.381 1_556 S
C34 H26 0.930 . S
C34 C30 1.390 . S
C34 C33 1.381 1_554 S
N35 C28 1.286 1_554 S
N35 C31 1.413 . S
H36 C41 0.930 . S
H37 C44 0.930 . S
H38 C46 0.930 . S
H39 C40 1.016 . S
C40 H39 1.016 . S
C40 N47 1.286 . S
C41 H36 0.930 . S
C41 C42 1.397 . S
C41 C43 1.361 . S
C42 C41 1.397 . S
C42 C46 1.390 . S
C43 C41 1.361 . S
C43 C44 1.393 . S
C43 N47 1.413 . S
C44 H37 0.930 . S
C44 C43 1.393 . S
C44 C45 1.399 . S
C45 C44 1.399 . S
C45 C46 1.381 . S
C46 H38 0.930 . S
C46 C42 1.390 . S
C46 C45 1.381 . S
N47 C40 1.286 . S
N47 C43 1.413 . S
H48 C53 0.930 . S
H49 C56 0.930 . S
H50 C58 0.930 . S
H51 C52 1.016 . S
C52 H51 1.016 . S
C52 N59 1.286 . S
C53 H48 0.930 . S
C53 C54 1.397 . S
C53 C55 1.361 . S
C54 C53 1.397 . S
C54 C58 1.390 . S
C55 C53 1.361 . S
C55 C56 1.393 1_554 S
C55 N59 1.413 1_554 S
C56 H49 0.930 . S
C56 C55 1.393 1_556 S
C56 C57 1.399 . S
C57 C56 1.399 . S
C57 C58 1.381 1_556 S
C58 H50 0.930 . S
C58 C54 1.390 . S
C58 C57 1.381 1_554 S
N59 C52 1.286 . S
N59 C55 1.413 1_556 S
H60 C65 0.930 . S
H61 C68 0.930 . S
H62 C70 0.930 . S
H63 C64 1.016 . S
C64 H63 1.016 . S
C64 N71 1.286 . S
C65 H60 0.930 . S
C65 C66 1.397 . S
C65 C67 1.361 . S
C66 C65 1.397 . S
C66 C70 1.390 . S
C67 C65 1.361 . S
C67 C68 1.393 . S
C67 N71 1.413 . S
C68 H61 0.930 . S
C68 C67 1.393 . S
C68 C69 1.399 . S
C69 C68 1.399 . S
C69 C70 1.381 . S
C70 H62 0.930 . S
C70 C66 1.390 . S
C70 C69 1.381 . S
N71 C64 1.286 . S
N71 C67 1.413 . S
H72 C77 0.930 . S
H73 C80 0.930 . S
H74 C82 0.930 . S
H75 C76 1.016 . S
C76 H75 1.016 . S
C76 N83 1.286 1_556 S
C77 H72 0.930 . S
C77 C78 1.397 . S
C77 C79 1.361 . S
C78 C77 1.397 . S
C78 C82 1.390 . S
C79 C77 1.361 . S
C79 C80 1.393 1_554 S
C79 N83 1.413 . S
C80 H73 0.930 . S
C80 C79 1.393 1_556 S
C80 C81 1.399 . S
C81 C80 1.399 . S
C81 C82 1.381 1_556 S
C82 H74 0.930 . S
C82 C78 1.390 . S
C82 C81 1.381 1_554 S
N83 C76 1.286 1_554 S
N83 C79 1.413 . S
H84 C89 0.930 . S
H85 C92 0.930 . S
H86 C94 0.930 . S
H87 C88 1.016 . S
C88 H87 1.016 . S
C88 N95 1.286 . S
C89 H84 0.930 . S
C89 C90 1.397 . S
C89 C91 1.361 . S
C90 C89 1.397 . S
C90 C94 1.390 . S
C91 C89 1.361 . S
C91 C92 1.393 . S
C91 N95 1.413 . S
C92 H85 0.930 . S
C92 C91 1.393 . S
C92 C93 1.399 . S
C93 C92 1.399 . S
C93 C94 1.381 . S
C94 H86 0.930 . S
C94 C90 1.390 . S
C94 C93 1.381 . S
N95 C88 1.286 . S
N95 C91 1.413 . S
Fe96 O98 1.918 . S
Fe96 O101 1.997 1_455 S
Fe96 O102 2.002 1_455 S
Fe96 O107 1.976 . S
Fe96 O110 1.996 . S
Fe97 O98 1.918 . S
Fe97 O105 1.997 1_455 S
Fe97 O108 1.996 . S
Fe97 O112 1.976 . S
Fe97 O115 2.002 1_455 S
O98 Fe96 1.918 . S
O98 Fe97 1.918 . S
O98 Fe99 1.918 . S
Fe99 O98 1.918 . S
Fe99 O100 2.002 1_455 S
Fe99 O109 1.976 . S
Fe99 O113 1.996 . S
Fe99 O116 1.997 1_455 S
O100 Fe99 2.002 1_655 S
O100 C117 1.295 . S
O101 Fe96 1.997 1_655 S
O101 C117 1.235 . S
O102 Fe96 2.002 1_655 S
O102 C103 1.295 . S
C103 O102 1.295 . S
C103 O105 1.235 . S
C104 O109 1.287 . S
C104 O110 1.255 . S
O105 Fe97 1.997 1_655 S
O105 C103 1.235 . S
C106 O112 1.287 . S
C106 O113 1.255 . S
O107 Fe96 1.976 . S
O107 C114 1.287 . S
O108 Fe97 1.996 . S
O108 C114 1.255 . S
O109 Fe99 1.976 . S
O109 C104 1.287 . S
O110 Fe96 1.996 . S
O110 C104 1.255 . S
C111 O115 1.295 . S
C111 O116 1.235 . S
O112 Fe97 1.976 . S
O112 C106 1.287 . S
O113 Fe99 1.996 . S
O113 C106 1.255 . S
C114 O107 1.287 . S
C114 O108 1.255 . S
O115 Fe97 2.002 1_655 S
O115 C111 1.295 . S
O116 Fe99 1.997 1_655 S
O116 C111 1.235 . S
C117 O100 1.295 . S
C117 O101 1.235 . S
Fe118 O120 1.918 . S
Fe118 O123 1.990 1_655 S
Fe118 O124 1.995 1_655 S
Fe118 O129 1.983 . S
Fe118 O132 2.002 . S
Fe119 O120 1.918 . S
Fe119 O127 1.990 1_655 S
Fe119 O130 2.002 . S
Fe119 O134 1.983 . S
Fe119 O137 1.995 1_655 S
O120 Fe118 1.918 . S
O120 Fe119 1.918 . S
O120 Fe121 1.918 . S
Fe121 O120 1.918 . S
Fe121 O122 1.995 1_655 S
Fe121 O131 1.983 . S
Fe121 O135 2.003 . S
Fe121 O138 1.989 1_655 S
O122 Fe121 1.995 1_455 S
O122 C139 1.295 . S
O123 Fe118 1.990 1_455 S
O123 C139 1.235 . S
O124 Fe118 1.995 1_455 S
O124 C125 1.295 . S
C125 O124 1.295 . S
C125 O127 1.235 . S
C126 O131 1.287 . S
C126 O132 1.255 . S
O127 Fe119 1.990 1_455 S
O127 C125 1.235 . S
C128 O134 1.287 . S
C128 O135 1.255 . S
O129 Fe118 1.983 . S
O129 C136 1.287 . S
O130 Fe119 2.002 . S
O130 C136 1.255 . S
O131 Fe121 1.983 . S
O131 C126 1.287 . S
O132 Fe118 2.002 . S
O132 C126 1.255 . S
C133 O137 1.295 . S
C133 O138 1.235 . S
O134 Fe119 1.983 . S
O134 C128 1.287 . S
O135 Fe121 2.003 . S
O135 C128 1.255 . S
C136 O129 1.287 . S
C136 O130 1.255 . S
O137 Fe119 1.995 1_455 S
O137 C133 1.295 . S
O138 Fe121 1.989 1_455 S
O138 C133 1.235 . S
C139 O122 1.295 . S
C139 O123 1.235 . S
Fe140 O142 1.918 . S
Fe140 O145 1.997 . S
Fe140 O146 2.002 . S
Fe140 O151 1.976 . S
Fe140 O154 1.996 . S
Fe141 O142 1.918 . S
Fe141 O149 1.997 . S
Fe141 O152 1.996 . S
Fe141 O156 1.976 . S
Fe141 O159 2.002 . S
O142 Fe140 1.918 . S
O142 Fe141 1.918 . S
O142 Fe143 1.918 . S
Fe143 O142 1.918 . S
Fe143 O144 2.002 . S
Fe143 O153 1.976 . S
Fe143 O157 1.996 . S
Fe143 O160 1.997 . S
O144 Fe143 2.002 . S
O144 C161 1.295 . S
O145 Fe140 1.997 . S
O145 C161 1.235 . S
O146 Fe140 2.002 . S
O146 C147 1.295 . S
C147 O146 1.295 . S
C147 O149 1.235 . S
C148 O153 1.287 . S
C148 O154 1.255 . S
O149 Fe141 1.997 . S
O149 C147 1.235 . S
C150 O156 1.287 . S
C150 O157 1.255 . S
O151 Fe140 1.976 . S
O151 C158 1.287 . S
O152 Fe141 1.996 . S
O152 C158 1.255 . S
O153 Fe143 1.976 . S
O153 C148 1.287 . S
O154 Fe140 1.996 . S
O154 C148 1.255 . S
C155 O159 1.295 . S
C155 O160 1.235 . S
O156 Fe141 1.976 . S
O156 C150 1.287 . S
O157 Fe143 1.996 . S
O157 C150 1.255 . S
C158 O151 1.287 . S
C158 O152 1.255 . S
O159 Fe141 2.002 . S
O159 C155 1.295 . S
O160 Fe143 1.997 . S
O160 C155 1.235 . S
C161 O144 1.295 . S
C161 O145 1.235 . S
Fe162 O164 1.918 . S
Fe162 O167 1.997 . S
Fe162 O168 2.002 . S
Fe162 O173 1.976 . S
Fe162 O176 1.996 . S
Fe163 O164 1.918 . S
Fe163 O171 1.997 . S
Fe163 O174 1.996 . S
Fe163 O178 1.976 . S
Fe163 O181 2.002 . S
O164 Fe162 1.918 . S
O164 Fe163 1.918 . S
O164 Fe165 1.918 . S
Fe165 O164 1.918 . S
Fe165 O166 2.002 . S
Fe165 O175 1.976 . S
Fe165 O179 1.996 . S
Fe165 O182 1.997 . S
O166 Fe165 2.002 . S
O166 C183 1.295 . S
O167 Fe162 1.997 . S
O167 C183 1.235 . S
O168 Fe162 2.002 . S
O168 C169 1.295 . S
C169 O168 1.295 . S
C169 O171 1.235 . S
C170 O175 1.287 . S
C170 O176 1.255 . S
O171 Fe163 1.997 . S
O171 C169 1.235 . S
C172 O178 1.287 . S
C172 O179 1.255 . S
O173 Fe162 1.976 . S
O173 C180 1.287 . S
O174 Fe163 1.996 . S
O174 C180 1.255 . S
O175 Fe165 1.976 . S
O175 C170 1.287 . S
O176 Fe162 1.996 . S
O176 C170 1.255 . S
C177 O181 1.295 . S
C177 O182 1.235 . S
O178 Fe163 1.976 . S
O178 C172 1.287 . S
O179 Fe165 1.996 . S
O179 C172 1.255 . S
C180 O173 1.287 . S
C180 O174 1.255 . S
O181 Fe163 2.002 . S
O181 C177 1.295 . S
O182 Fe165 1.997 . S
O182 C177 1.235 . S
C183 O166 1.295 . S
C183 O167 1.235 . S
C184 C185 1.369 . S
C184 C186 1.419 . S
C184 H188 0.930 . S
C185 C184 1.369 . S
C185 C194 1.429 . S
C186 C184 1.419 . S
C186 C187 1.363 . S
C186 H189 0.929 . S
C187 C186 1.363 . S
C187 C193 1.428 . S
H188 C184 0.930 . S
H189 C186 0.929 . S
S190 N191 1.613 . S
S190 N192 1.610 . S
N191 S190 1.613 . S
N191 C194 1.350 . S
N192 S190 1.610 . S
N192 C193 1.351 . S
C193 C187 1.428 . S
C193 N192 1.351 . S
C193 C194 1.434 . S
C194 C185 1.429 . S
C194 N191 1.350 . S
C194 C193 1.434 . S
C195 C196 1.369 . S
C195 C197 1.419 . S
C195 H199 0.930 . S
C196 C195 1.369 . S
C196 C205 1.429 . S
C197 C195 1.419 . S
C197 C198 1.363 . S
C197 H200 0.929 . S
C198 C197 1.363 . S
C198 C204 1.428 . S
H199 C195 0.930 . S
H200 C197 0.929 . S
S201 N202 1.613 . S
S201 N203 1.610 . S
N202 S201 1.613 . S
N202 C205 1.350 . S
N203 S201 1.610 . S
N203 C204 1.351 . S
C204 C198 1.428 . S
C204 N203 1.351 . S
C204 C205 1.434 . S
C205 C196 1.429 . S
C205 N202 1.350 . S
C205 C204 1.434 . S
C206 C207 1.369 . S
C206 C208 1.419 . S
C206 H210 0.930 . S
C207 C206 1.369 . S
C207 C216 1.429 . S
C208 C206 1.419 . S
C208 C209 1.363 . S
C208 H211 0.929 . S
C209 C208 1.363 . S
C209 C215 1.428 . S
H210 C206 0.930 . S
H211 C208 0.929 . S
S212 N213 1.613 . S
S212 N214 1.610 . S
N213 S212 1.613 . S
N213 C216 1.350 . S
N214 S212 1.610 . S
N214 C215 1.351 . S
C215 C209 1.428 . S
C215 N214 1.351 . S
C215 C216 1.434 . S
C216 C207 1.429 . S
C216 N213 1.350 . S
C216 C215 1.434 . S
C217 C218 1.369 . S
C217 C219 1.419 . S
C217 H221 0.930 . S
C218 C217 1.369 . S
C218 C227 1.429 . S
C219 C217 1.419 . S
C219 C220 1.363 . S
C219 H222 0.929 . S
C220 C219 1.363 . S
C220 C226 1.428 . S
H221 C217 0.930 . S
H222 C219 0.929 . S
S223 N224 1.613 . S
S223 N225 1.610 . S
N224 S223 1.613 . S
N224 C227 1.350 . S
N225 S223 1.610 . S
N225 C226 1.351 . S
C226 C220 1.428 . S
C226 N225 1.351 . S
C226 C227 1.434 . S
C227 C218 1.429 . S
C227 N224 1.350 . S
C227 C226 1.434 . S
C228 C229 1.369 . S
C228 C230 1.419 . S
C228 H232 0.930 . S
C229 C228 1.369 . S
C229 C238 1.429 . S
C230 C228 1.419 . S
C230 C231 1.363 . S
C230 H233 0.929 . S
C231 C230 1.363 . S
C231 C237 1.428 . S
H232 C228 0.930 . S
H233 C230 0.929 . S
S234 N235 1.613 . S
S234 N236 1.610 1_554 S
N235 S234 1.613 . S
N235 C238 1.350 1_554 S
N236 S234 1.610 1_556 S
N236 C237 1.351 . S
C237 C231 1.428 . S
C237 N236 1.351 . S
C237 C238 1.434 . S
C238 C229 1.429 . S
C238 N235 1.350 1_556 S
C238 C237 1.434 . S
C239 C240 1.369 . S
C239 C241 1.419 . S
C239 H243 0.930 . S
C240 C239 1.369 . S
C240 C249 1.429 . S
C241 C239 1.419 . S
C241 C242 1.363 . S
C241 H244 0.929 . S
C242 C241 1.363 . S
C242 C248 1.428 . S
H243 C239 0.930 . S
H244 C241 0.929 . S
S245 N246 1.613 . S
S245 N247 1.610 . S
N246 S245 1.613 . S
N246 C249 1.350 . S
N247 S245 1.610 . S
N247 C248 1.351 . S
C248 C242 1.428 . S
C248 N247 1.351 . S
C248 C249 1.434 . S
C249 C240 1.429 . S
C249 N246 1.350 . S
C249 C248 1.434 . S
C250 C251 1.369 . S
C250 C252 1.419 . S
C250 H254 0.930 . S
C251 C250 1.369 . S
C251 C260 1.429 . S
C252 C250 1.419 . S
C252 C253 1.363 . S
C252 H255 0.929 . S
C253 C252 1.363 . S
C253 C259 1.428 . S
H254 C250 0.930 . S
H255 C252 0.929 . S
S256 N257 1.613 . S
S256 N258 1.610 1_554 S
N257 S256 1.613 . S
N257 C260 1.350 1_554 S
N258 S256 1.610 1_556 S
N258 C259 1.351 . S
C259 C253 1.428 . S
C259 N258 1.351 . S
C259 C260 1.434 . S
C260 C251 1.429 . S
C260 N257 1.350 1_556 S
C260 C259 1.434 . S
C261 C262 1.369 . S
C261 C263 1.419 . S
C261 H265 0.930 . S
C262 C261 1.369 . S
C262 C271 1.429 . S
C263 C261 1.419 . S
C263 C264 1.363 . S
C263 H266 0.929 . S
C264 C263 1.363 . S
C264 C270 1.428 . S
H265 C261 0.930 . S
H266 C263 0.929 . S
S267 N268 1.613 . S
S267 N269 1.610 . S
N268 S267 1.613 . S
N268 C271 1.350 . S
N269 S267 1.610 . S
N269 C270 1.351 . S
C270 C264 1.428 . S
C270 N269 1.351 . S
C270 C271 1.434 . S
C271 C262 1.429 . S
C271 N268 1.350 . S
C271 C270 1.434 . S
C272 C273 1.369 . S
C272 C274 1.419 . S
C272 H276 0.930 . S
C273 C272 1.369 . S
C273 C282 1.429 . S
C274 C272 1.419 . S
C274 C275 1.363 . S
C274 H277 0.929 . S
C275 C274 1.363 . S
C275 C281 1.428 . S
H276 C272 0.930 . S
H277 C274 0.929 . S
S278 N279 1.613 . S
S278 N280 1.610 1_554 S
N279 S278 1.613 . S
N279 C282 1.350 1_554 S
N280 S278 1.610 1_556 S
N280 C281 1.351 . S
C281 C275 1.428 . S
C281 N280 1.351 . S
C281 C282 1.434 . S
C282 C273 1.429 . S
C282 N279 1.350 1_556 S
C282 C281 1.434 . S
C283 C284 1.369 . S
C283 C285 1.419 . S
C283 H287 0.930 . S
C284 C283 1.369 . S
C284 C293 1.429 . S
C285 C283 1.419 . S
C285 C286 1.363 . S
C285 H288 0.929 . S
C286 C285 1.363 . S
C286 C292 1.428 . S
H287 C283 0.930 . S
H288 C285 0.929 . S
S289 N290 1.613 . S
S289 N291 1.610 . S
N290 S289 1.613 . S
N290 C293 1.350 . S
N291 S289 1.610 . S
N291 C292 1.351 . S
C292 C286 1.428 . S
C292 N291 1.351 . S
C292 C293 1.434 . S
C293 C284 1.429 . S
C293 N290 1.350 . S
C293 C292 1.434 . S
C294 C295 1.369 . S
C294 C296 1.419 . S
C294 H298 0.930 . S
C295 C294 1.369 . S
C295 C304 1.429 . S
C296 C294 1.419 . S
C296 C297 1.363 . S
C296 H299 0.929 . S
C297 C296 1.363 . S
C297 C303 1.428 . S
H298 C294 0.930 . S
H299 C296 0.929 . S
S300 N301 1.613 . S
S300 N302 1.610 . S
N301 S300 1.613 . S
N301 C304 1.350 . S
N302 S300 1.610 . S
N302 C303 1.351 . S
C303 C297 1.428 . S
C303 N302 1.351 . S
C303 C304 1.434 . S
C304 C295 1.429 . S
C304 N301 1.350 . S
C304 C303 1.434 . S
C305 C306 1.369 . S
C305 C307 1.419 . S
C305 H309 0.930 . S
C306 C305 1.369 . S
C306 C315 1.429 . S
C307 C305 1.419 . S
C307 C308 1.363 . S
C307 H310 0.929 . S
C308 C307 1.363 . S
C308 C314 1.428 . S
H309 C305 0.930 . S
H310 C307 0.929 . S
S311 N312 1.613 . S
S311 N313 1.610 . S
N312 S311 1.613 . S
N312 C315 1.350 . S
N313 S311 1.610 . S
N313 C314 1.351 . S
C314 C308 1.428 . S
C314 N313 1.351 . S
C314 C315 1.434 . S
C315 C306 1.429 . S
C315 N312 1.350 . S
C315 C314 1.434 . S
C316 C317 1.369 . S
C316 C318 1.419 . S
C316 H320 0.930 . S
C317 C316 1.369 . S
C317 C326 1.429 1_565 S
C318 C316 1.419 . S
C318 C319 1.363 1_565 S
C318 H321 0.929 . S
C319 C318 1.363 1_545 S
C319 C325 1.428 . S
H320 C316 0.930 . S
H321 C318 0.929 . S
S322 N323 1.613 . S
S322 N324 1.610 1_554 S
N323 S322 1.613 . S
N323 C326 1.350 1_554 S
N324 S322 1.610 1_556 S
N324 C325 1.351 . S
C325 C319 1.428 . S
C325 N324 1.351 . S
C325 C326 1.434 . S
C326 C317 1.429 1_545 S
C326 N323 1.350 1_556 S
C326 C325 1.434 . S
C327 C328 1.369 . S
C327 C329 1.419 1_545 S
C327 H331 0.930 . S
C328 C327 1.369 . S
C328 C337 1.429 . S
C329 C327 1.419 1_565 S
C329 C330 1.363 . S
C329 H332 0.929 . S
C330 C329 1.363 . S
C330 C336 1.428 1_565 S
H331 C327 0.930 . S
H332 C329 0.929 . S
S333 N334 1.613 . S
S333 N335 1.610 . S
N334 S333 1.613 . S
N334 C337 1.350 . S
N335 S333 1.610 . S
N335 C336 1.351 . S
C336 C330 1.428 1_545 S
C336 N335 1.351 . S
C336 C337 1.434 . S
C337 C328 1.429 . S
C337 N334 1.350 . S
C337 C336 1.434 . S
C338 C339 1.369 . S
C338 C340 1.419 . S
C338 H342 0.930 . S
C339 C338 1.369 . S
C339 C348 1.429 1_565 S
C340 C338 1.419 . S
C340 C341 1.363 1_565 S
C340 H343 0.929 . S
C341 C340 1.363 1_545 S
C341 C347 1.428 . S
H342 C338 0.930 . S
H343 C340 0.929 . S
S344 N345 1.613 . S
S344 N346 1.610 . S
N345 S344 1.613 . S
N345 C348 1.350 . S
N346 S344 1.610 . S
N346 C347 1.351 . S
C347 C341 1.428 . S
C347 N346 1.351 . S
C347 C348 1.434 . S
C348 C339 1.429 1_545 S
C348 N345 1.350 . S
C348 C347 1.434 . S
C349 C350 1.369 . S
C349 C351 1.419 . S
C349 H353 0.930 . S
C350 C349 1.369 . S
C350 C359 1.429 . S
C351 C349 1.419 . S
C351 C352 1.363 1_545 S
C351 H354 0.927 1_545 S
C352 C351 1.363 1_565 S
C352 C358 1.428 . S
H353 C349 0.930 . S
H354 C351 0.927 1_565 S
S355 N356 1.613 1_565 S
S355 N357 1.610 . S
N356 S355 1.613 1_545 S
N356 C359 1.350 . S
N357 S355 1.610 . S
N357 C358 1.351 . S
C358 C352 1.428 . S
C358 N357 1.351 . S
C358 C359 1.434 1_565 S
C359 C350 1.429 . S
C359 N356 1.350 . S
C359 C358 1.434 1_545 S
C360 C361 1.369 . S
C360 C362 1.419 . S
C360 H364 0.930 . S
C361 C360 1.369 . S
C361 C370 1.429 . S
C362 C360 1.419 . S
C362 C363 1.363 . S
C362 H365 0.929 . S
C363 C362 1.363 . S
C363 C369 1.428 . S
H364 C360 0.930 . S
H365 C362 0.929 . S
S366 N367 1.613 . S
S366 N368 1.610 . S
N367 S366 1.613 . S
N367 C370 1.350 . S
N368 S366 1.610 . S
N368 C369 1.351 . S
C369 C363 1.428 . S
C369 N368 1.351 . S
C369 C370 1.434 . S
C370 C361 1.429 . S
C370 N367 1.350 . S
C370 C369 1.434 . S
C371 C372 1.369 . S
C371 C373 1.419 . S
C371 H375 0.930 . S
C372 C371 1.369 . S
C372 C381 1.429 . S
C373 C371 1.419 . S
C373 C374 1.363 . S
C373 H376 0.929 . S
C374 C373 1.363 . S
C374 C380 1.428 . S
H375 C371 0.930 . S
H376 C373 0.929 . S
S377 N378 1.613 . S
S377 N379 1.610 . S
N378 S377 1.613 . S
N378 C381 1.350 . S
N379 S377 1.610 . S
N379 C380 1.351 . S
C380 C374 1.428 . S
C380 N379 1.351 . S
C380 C381 1.434 . S
C381 C372 1.429 . S
C381 N378 1.350 . S
C381 C380 1.434 . S
C382 C383 1.369 . S
C382 C384 1.419 . S
C382 H386 0.930 . S
C383 C382 1.369 . S
C383 C392 1.429 . S
C384 C382 1.419 . S
C384 C385 1.363 . S
C384 H387 0.929 . S
C385 C384 1.363 . S
C385 C391 1.428 . S
H386 C382 0.930 . S
H387 C384 0.929 . S
S388 N389 1.613 . S
S388 N390 1.610 . S
N389 S388 1.613 . S
N389 C392 1.350 . S
N390 S388 1.610 . S
N390 C391 1.351 . S
C391 C385 1.428 . S
C391 N390 1.351 . S
C391 C392 1.434 . S
C392 C383 1.429 . S
C392 N389 1.350 . S
C392 C391 1.434 . S
C393 C394 1.369 . S
C393 C395 1.419 . S
C393 H397 0.930 . S
C394 C393 1.369 . S
C394 C403 1.429 . S
C395 C393 1.419 . S
C395 C396 1.363 . S
C395 H398 0.929 . S
C396 C395 1.363 . S
C396 C402 1.428 . S
H397 C393 0.930 . S
H398 C395 0.929 . S
S399 N400 1.613 . S
S399 N401 1.610 . S
N400 S399 1.613 . S
N400 C403 1.350 . S
N401 S399 1.610 . S
N401 C402 1.351 . S
C402 C396 1.428 . S
C402 N401 1.351 . S
C402 C403 1.434 . S
C403 C394 1.429 . S
C403 N400 1.350 . S
C403 C402 1.434 . S
C404 C405 1.369 . S
C404 C406 1.419 . S
C404 H408 0.930 . S
C405 C404 1.369 . S
C405 C414 1.429 . S
C406 C404 1.419 . S
C406 C407 1.363 . S
C406 H409 0.929 . S
C407 C406 1.363 . S
C407 C413 1.428 . S
H408 C404 0.930 . S
H409 C406 0.929 . S
S410 N411 1.613 . S
S410 N412 1.610 . S
N411 S410 1.613 . S
N411 C414 1.350 . S
N412 S410 1.610 . S
N412 C413 1.351 . S
C413 C407 1.428 . S
C413 N412 1.351 . S
C413 C414 1.434 . S
C414 C405 1.429 . S
C414 N411 1.350 . S
C414 C413 1.434 . S
C415 C416 1.369 . S
C415 C417 1.419 . S
C415 H419 0.930 . S
C416 C415 1.369 . S
C416 C425 1.429 . S
C417 C415 1.419 . S
C417 C418 1.363 . S
C417 H420 0.929 . S
C418 C417 1.363 . S
C418 C424 1.428 . S
H419 C415 0.930 . S
H420 C417 0.929 . S
S421 N422 1.613 . S
S421 N423 1.610 . S
N422 S421 1.613 . S
N422 C425 1.350 . S
N423 S421 1.610 . S
N423 C424 1.351 . S
C424 C418 1.428 . S
C424 N423 1.351 . S
C424 C425 1.434 . S
C425 C416 1.429 . S
C425 N422 1.350 . S
C425 C424 1.434 . S
C426 C427 1.369 . S
C426 C428 1.419 . S
C426 H430 0.930 . S
C427 C426 1.369 . S
C427 C436 1.429 . S
C428 C426 1.419 . S
C428 C429 1.363 . S
C428 H431 0.929 . S
C429 C428 1.363 . S
C429 C435 1.428 . S
H430 C426 0.930 . S
H431 C428 0.929 . S
S432 N433 1.613 . S
S432 N434 1.610 . S
N433 S432 1.613 . S
N433 C436 1.350 . S
N434 S432 1.610 . S
N434 C435 1.351 . S
C435 C429 1.428 . S
C435 N434 1.351 . S
C435 C436 1.434 . S
C436 C427 1.429 . S
C436 N433 1.350 . S
C436 C435 1.434 . S
C437 C438 1.369 . S
C437 C439 1.419 . S
C437 H441 0.930 . S
C438 C437 1.369 . S
C438 C447 1.429 . S
C439 C437 1.419 . S
C439 C440 1.363 . S
C439 H442 0.929 . S
C440 C439 1.363 . S
C440 C446 1.428 . S
H441 C437 0.930 . S
H442 C439 0.929 . S
S443 N444 1.613 . S
S443 N445 1.610 . S
N444 S443 1.613 . S
N444 C447 1.350 . S
N445 S443 1.610 . S
N445 C446 1.351 . S
C446 C440 1.428 . S
C446 N445 1.351 . S
C446 C447 1.434 . S
C447 C438 1.429 . S
C447 N444 1.350 . S
C447 C446 1.434 . S
C185 C4 1.543 . S
C187 C139 1.535 . S
C198 C103 1.531 . S
C196 C16 1.546 . S
C209 C126 1.540 . S
C207 C28 1.528 . S
C220 C114 1.540 . S
C218 C40 1.528 . S
C231 C183 1.534 . S
C229 C52 1.544 . S
C242 C147 1.533 . S
C240 C64 1.543 . S
C251 C76 1.529 . S
C253 C170 1.541 . S
C264 C158 1.540 . S
C262 C88 1.528 . S
C273 C9 1.500 . S
C275 C180 1.537 . S
C286 C150 1.538 . S
C284 C21 1.501 . S
C295 C33 1.530 . S
C297 C169 1.551 . S
C306 C45 1.527 . S
C308 C155 1.550 . S
C319 C136 1.538 . S
C317 C57 1.502 . S
C328 C69 1.500 . S
C330 C106 1.538 . S
C341 C125 1.551 . S
C339 C81 1.529 . S
C352 C111 1.551 . S
C350 C93 1.531 . S
C363 C161 1.522 . S
C361 C6 1.513 . S
C374 C177 1.522 . S
C372 C18 1.513 . S
C383 C30 1.498 . S
C385 C148 1.505 . S
C396 C172 1.504 . S
C394 C42 1.496 . S
C407 C117 1.522 . S
C405 C54 1.513 . S
C416 C66 1.509 . S
C418 C133 1.520 . S
C427 C78 1.496 . S
C429 C104 1.504 . S
C438 C90 1.496 . S
C440 C128 1.504 . S
