# Generated by pormake.
# Topology ptr, (4,4)-cn, num edge types: 1
# Building blocks:
#     Node 0, Type 0, BuildingBlock: GALJAG_clean_sbu_0, # of connection points: 4
#     Node 1, Type 0, BuildingBlock: GALJAG_clean_sbu_0, # of connection points: 4
#     Node 2, Type 0, BuildingBlock: GALJAG_clean_sbu_0, # of connection points: 4
#     Node 3, Type 0, BuildingBlock: GALJAG_clean_sbu_0, # of connection points: 4
#     Node 4, Type 0, BuildingBlock: GALJAG_clean_sbu_0, # of connection points: 4
#     Node 5, Type 0, BuildingBlock: GALJAG_clean_sbu_0, # of connection points: 4
#     Node 6, Type 0, BuildingBlock: GALJAG_clean_sbu_0, # of connection points: 4
#     Node 7, Type 0, BuildingBlock: GALJAG_clean_sbu_0, # of connection points: 4
#     Node 8, Type 0, BuildingBlock: GALJAG_clean_sbu_0, # of connection points: 4
#     Node 9, Type 0, BuildingBlock: GALJAG_clean_sbu_0, # of connection points: 4
#     Node 10, Type 0, BuildingBlock: GALJAG_clean_sbu_0, # of connection points: 4
#     Node 11, Type 0, BuildingBlock: GALJAG_clean_sbu_0, # of connection points: 4
#     Node 12, Type 0, BuildingBlock: GALJAG_clean_sbu_0, # of connection points: 4
#     Node 13, Type 0, BuildingBlock: GALJAG_clean_sbu_0, # of connection points: 4
#     Node 14, Type 0, BuildingBlock: GALJAG_clean_sbu_0, # of connection points: 4
#     Node 15, Type 0, BuildingBlock: GALJAG_clean_sbu_0, # of connection points: 4
#     Node 16, Type 0, BuildingBlock: GALJAG_clean_sbu_0, # of connection points: 4
#     Node 17, Type 0, BuildingBlock: GALJAG_clean_sbu_0, # of connection points: 4
#     Node 18, Type 1, BuildingBlock: KUFVIS_clean_linker_0, # of connection points: 4
#     Node 19, Type 1, BuildingBlock: KUFVIS_clean_linker_0, # of connection points: 4
#     Node 20, Type 1, BuildingBlock: KUFVIS_clean_linker_0, # of connection points: 4
#     Node 21, Type 1, BuildingBlock: KUFVIS_clean_linker_0, # of connection points: 4
#     Node 22, Type 1, BuildingBlock: KUFVIS_clean_linker_0, # of connection points: 4
#     Node 23, Type 1, BuildingBlock: KUFVIS_clean_linker_0, # of connection points: 4
#     Node 24, Type 1, BuildingBlock: KUFVIS_clean_linker_0, # of connection points: 4
#     Node 25, Type 1, BuildingBlock: KUFVIS_clean_linker_0, # of connection points: 4
#     Node 26, Type 1, BuildingBlock: KUFVIS_clean_linker_0, # of connection points: 4
#     Node 27, Type 1, BuildingBlock: KUFVIS_clean_linker_0, # of connection points: 4
#     Node 28, Type 1, BuildingBlock: KUFVIS_clean_linker_0, # of connection points: 4
#     Node 29, Type 1, BuildingBlock: KUFVIS_clean_linker_0, # of connection points: 4
#     Node 30, Type 1, BuildingBlock: KUFVIS_clean_linker_0, # of connection points: 4
#     Node 31, Type 1, BuildingBlock: KUFVIS_clean_linker_0, # of connection points: 4
#     Node 32, Type 1, BuildingBlock: KUFVIS_clean_linker_0, # of connection points: 4
#     Node 33, Type 1, BuildingBlock: KUFVIS_clean_linker_0, # of connection points: 4
#     Node 34, Type 1, BuildingBlock: KUFVIS_clean_linker_0, # of connection points: 4
#     Node 35, Type 1, BuildingBlock: KUFVIS_clean_linker_0, # of connection points: 4
#     Edge 36, Type (0, 1), BuildingBlock: MIFKUJ_clean_linker_0, # of connection points: 2
#     Edge 37, Type (0, 1), BuildingBlock: MIFKUJ_clean_linker_0, # of connection points: 2
#     Edge 38, Type (0, 1), BuildingBlock: MIFKUJ_clean_linker_0, # of connection points: 2
#     Edge 39, Type (0, 1), BuildingBlock: MIFKUJ_clean_linker_0, # of connection points: 2
#     Edge 40, Type (0, 1), BuildingBlock: MIFKUJ_clean_linker_0, # of connection points: 2
#     Edge 41, Type (0, 1), BuildingBlock: MIFKUJ_clean_linker_0, # of connection points: 2
#     Edge 42, Type (0, 1), BuildingBlock: MIFKUJ_clean_linker_0, # of connection points: 2
#     Edge 43, Type (0, 1), BuildingBlock: MIFKUJ_clean_linker_0, # of connection points: 2
#     Edge 44, Type (0, 1), BuildingBlock: MIFKUJ_clean_linker_0, # of connection points: 2
#     Edge 45, Type (0, 1), BuildingBlock: MIFKUJ_clean_linker_0, # of connection points: 2
#     Edge 46, Type (0, 1), BuildingBlock: MIFKUJ_clean_linker_0, # of connection points: 2
#     Edge 47, Type (0, 1), BuildingBlock: MIFKUJ_clean_linker_0, # of connection points: 2
#     Edge 48, Type (0, 1), BuildingBlock: MIFKUJ_clean_linker_0, # of connection points: 2
#     Edge 49, Type (0, 1), BuildingBlock: MIFKUJ_clean_linker_0, # of connection points: 2
#     Edge 50, Type (0, 1), BuildingBlock: MIFKUJ_clean_linker_0, # of connection points: 2
#     Edge 51, Type (0, 1), BuildingBlock: MIFKUJ_clean_linker_0, # of connection points: 2
#     Edge 52, Type (0, 1), BuildingBlock: MIFKUJ_clean_linker_0, # of connection points: 2
#     Edge 53, Type (0, 1), BuildingBlock: MIFKUJ_clean_linker_0, # of connection points: 2
#     Edge 54, Type (0, 1), BuildingBlock: MIFKUJ_clean_linker_0, # of connection points: 2
#     Edge 55, Type (0, 1), BuildingBlock: MIFKUJ_clean_linker_0, # of connection points: 2
#     Edge 56, Type (0, 1), BuildingBlock: MIFKUJ_clean_linker_0, # of connection points: 2
#     Edge 57, Type (0, 1), BuildingBlock: MIFKUJ_clean_linker_0, # of connection points: 2
#     Edge 58, Type (0, 1), BuildingBlock: MIFKUJ_clean_linker_0, # of connection points: 2
#     Edge 59, Type (0, 1), BuildingBlock: MIFKUJ_clean_linker_0, # of connection points: 2
#     Edge 60, Type (0, 1), BuildingBlock: MIFKUJ_clean_linker_0, # of connection points: 2
#     Edge 61, Type (0, 1), BuildingBlock: MIFKUJ_clean_linker_0, # of connection points: 2
#     Edge 62, Type (0, 1), BuildingBlock: MIFKUJ_clean_linker_0, # of connection points: 2
#     Edge 63, Type (0, 1), BuildingBlock: MIFKUJ_clean_linker_0, # of connection points: 2
#     Edge 64, Type (0, 1), BuildingBlock: MIFKUJ_clean_linker_0, # of connection points: 2
#     Edge 65, Type (0, 1), BuildingBlock: MIFKUJ_clean_linker_0, # of connection points: 2
#     Edge 66, Type (0, 1), BuildingBlock: MIFKUJ_clean_linker_0, # of connection points: 2
#     Edge 67, Type (0, 1), BuildingBlock: MIFKUJ_clean_linker_0, # of connection points: 2
#     Edge 68, Type (0, 1), BuildingBlock: MIFKUJ_clean_linker_0, # of connection points: 2
#     Edge 69, Type (0, 1), BuildingBlock: MIFKUJ_clean_linker_0, # of connection points: 2
#     Edge 70, Type (0, 1), BuildingBlock: MIFKUJ_clean_linker_0, # of connection points: 2
#     Edge 71, Type (0, 1), BuildingBlock: MIFKUJ_clean_linker_0, # of connection points: 2
#     Edge 72, Type (0, 1), BuildingBlock: MIFKUJ_clean_linker_0, # of connection points: 2
#     Edge 73, Type (0, 1), BuildingBlock: MIFKUJ_clean_linker_0, # of connection points: 2
#     Edge 74, Type (0, 1), BuildingBlock: MIFKUJ_clean_linker_0, # of connection points: 2
#     Edge 75, Type (0, 1), BuildingBlock: MIFKUJ_clean_linker_0, # of connection points: 2
#     Edge 76, Type (0, 1), BuildingBlock: MIFKUJ_clean_linker_0, # of connection points: 2
#     Edge 77, Type (0, 1), BuildingBlock: MIFKUJ_clean_linker_0, # of connection points: 2
#     Edge 78, Type (0, 1), BuildingBlock: MIFKUJ_clean_linker_0, # of connection points: 2
#     Edge 79, Type (0, 1), BuildingBlock: MIFKUJ_clean_linker_0, # of connection points: 2
#     Edge 80, Type (0, 1), BuildingBlock: MIFKUJ_clean_linker_0, # of connection points: 2
#     Edge 81, Type (0, 1), BuildingBlock: MIFKUJ_clean_linker_0, # of connection points: 2
#     Edge 82, Type (0, 1), BuildingBlock: MIFKUJ_clean_linker_0, # of connection points: 2
#     Edge 83, Type (0, 1), BuildingBlock: MIFKUJ_clean_linker_0, # of connection points: 2
#     Edge 84, Type (0, 1), BuildingBlock: MIFKUJ_clean_linker_0, # of connection points: 2
#     Edge 85, Type (0, 1), BuildingBlock: MIFKUJ_clean_linker_0, # of connection points: 2
#     Edge 86, Type (0, 1), BuildingBlock: MIFKUJ_clean_linker_0, # of connection points: 2
#     Edge 87, Type (0, 1), BuildingBlock: MIFKUJ_clean_linker_0, # of connection points: 2
#     Edge 88, Type (0, 1), BuildingBlock: MIFKUJ_clean_linker_0, # of connection points: 2
#     Edge 89, Type (0, 1), BuildingBlock: MIFKUJ_clean_linker_0, # of connection points: 2
#     Edge 90, Type (0, 1), BuildingBlock: MIFKUJ_clean_linker_0, # of connection points: 2
#     Edge 91, Type (0, 1), BuildingBlock: MIFKUJ_clean_linker_0, # of connection points: 2
#     Edge 92, Type (0, 1), BuildingBlock: MIFKUJ_clean_linker_0, # of connection points: 2
#     Edge 93, Type (0, 1), BuildingBlock: MIFKUJ_clean_linker_0, # of connection points: 2
#     Edge 94, Type (0, 1), BuildingBlock: MIFKUJ_clean_linker_0, # of connection points: 2
#     Edge 95, Type (0, 1), BuildingBlock: MIFKUJ_clean_linker_0, # of connection points: 2
#     Edge 96, Type (0, 1), BuildingBlock: MIFKUJ_clean_linker_0, # of connection points: 2
#     Edge 97, Type (0, 1), BuildingBlock: MIFKUJ_clean_linker_0, # of connection points: 2
#     Edge 98, Type (0, 1), BuildingBlock: MIFKUJ_clean_linker_0, # of connection points: 2
#     Edge 99, Type (0, 1), BuildingBlock: MIFKUJ_clean_linker_0, # of connection points: 2
#     Edge 100, Type (0, 1), BuildingBlock: MIFKUJ_clean_linker_0, # of connection points: 2
#     Edge 101, Type (0, 1), BuildingBlock: MIFKUJ_clean_linker_0, # of connection points: 2
#     Edge 102, Type (0, 1), BuildingBlock: MIFKUJ_clean_linker_0, # of connection points: 2
#     Edge 103, Type (0, 1), BuildingBlock: MIFKUJ_clean_linker_0, # of connection points: 2
#     Edge 104, Type (0, 1), BuildingBlock: MIFKUJ_clean_linker_0, # of connection points: 2
#     Edge 105, Type (0, 1), BuildingBlock: MIFKUJ_clean_linker_0, # of connection points: 2
#     Edge 106, Type (0, 1), BuildingBlock: MIFKUJ_clean_linker_0, # of connection points: 2
#     Edge 107, Type (0, 1), BuildingBlock: MIFKUJ_clean_linker_0, # of connection points: 2
# Relax obj value: 0.068
# Max RMSD: 0.101
# Mean RMSD: 0.096
data_MOF--net-ptr--node1-GALJAG_clean_sbu_0--node2-KUFVIS_clean_linker_0--edge1-MIFKUJ_clean_linker_0
_symmetry_space_group_name_H-M    P1
_symmetry_Int_Tables_number       1
_symmetry_cell_setting            triclinic
loop_
_symmetry_equiv_pos_as_xyz
'x, y, z'
_cell_length_a     100.3509
_cell_length_b     100.69566
_cell_length_c     66.218376
_cell_angle_alpha  90.010609
_cell_angle_beta   90.093096
_cell_angle_gamma 120.13579
loop_
_atom_site_label
_atom_site_type_symbol
_atom_site_fract_x
_atom_site_fract_y
_atom_site_fract_z
_atom_type_partial_charge
In0 In 0.017 0.37106 0.01303 0.0
O1 O 1.00514 0.37845 0.03644 0.0
O2 O 0.02957 0.38972 0.03682 0.0
C3 C 0.99196 0.34397 0.00185 0.0
C4 C 0.03852 0.3633 0.0228 0.0
C5 C 0.02086 0.39133 0.98356 0.0
O6 O 0.99482 0.34828 0.02 0.0
O7 O 1.00176 0.35315 0.98944 0.0
O8 O 0.02959 0.38569 0.98522 0.0
O9 O 0.01023 0.38657 0.99648 0.0
C10 C 0.01754 0.38867 0.04435 0.0
O11 O 0.03993 0.37158 0.00771 0.0
O12 O 0.02619 0.35874 0.03257 0.0
In13 In 0.65592 0.65129 0.01538 0.0
O14 O 0.65418 0.64187 0.04776 0.0
O15 O 0.63551 0.62949 0.02771 0.0
C16 C 0.68347 0.65405 0.00585 0.0
C17 C 0.65892 0.67907 0.02491 0.0
C18 C 0.63871 0.63835 0.98191 0.0
O19 O 0.67821 0.65119 0.02364 0.0
O20 O 0.67507 0.65584 0.99324 0.0
O21 O 0.63897 0.64962 0.9907 0.0
O22 O 0.64727 0.63393 0.98977 0.0
C23 C 0.64092 0.63039 0.04511 0.0
O24 O 0.64668 0.66648 0.02757 0.0
O25 O 0.66969 0.67774 0.01731 0.0
In26 In 0.3698 0.01107 0.0147 0.0
O27 O 0.374 0.03553 0.01887 0.0
O28 O 0.35906 0.02201 0.99516 0.0
C29 C 0.38626 0.00945 0.04618 0.0
C30 C 0.38701 0.01035 0.98359 0.0
C31 C 0.34102 0.98892 0.02524 0.0
O32 O 0.3867 0.02178 0.0413 0.0
O33 O 0.37732 0.99801 0.03557 0.0
O34 O 0.34838 0.98734 0.01087 0.0
O35 O 0.34808 1.00176 0.03411 0.0
C36 C 0.36552 0.03475 0.00427 0.0
O37 O 0.37328 0.99982 0.98643 0.0
O38 O 0.39182 0.02122 0.99608 0.0
In39 In 0.01264 0.65153 0.01705 0.0
O40 O 0.0266 0.6452 0.99537 0.0
O41 O 1.00243 0.63438 0.99121 0.0
C42 C 0.03965 0.67812 0.02375 0.0
C43 C 0.99081 0.65888 0.00781 0.0
C44 C 1.00493 0.63227 0.04928 0.0
O45 O 0.0383 0.66502 0.0253 0.0
O46 O 0.02749 0.67788 0.01822 0.0
O47 O 0.01276 0.64667 0.05098 0.0
O48 O 1.0004 0.62765 0.03159 0.0
C49 C 0.01495 0.63559 0.98547 0.0
O50 O 0.99251 0.65531 0.02555 0.0
O51 O 1.00031 0.65912 0.99514 0.0
In52 In 0.3702 0.3669 0.01385 0.0
O53 O 0.37487 0.38162 0.98541 0.0
O54 O 0.39107 0.37481 0.99333 0.0
C55 C 0.34206 0.36265 0.02385 0.0
C56 C 0.36433 0.33815 0.00502 0.0
C57 C 0.38832 0.38534 0.0442 0.0
O58 O 0.35007 0.37141 0.0097 0.0
O59 O 0.34817 0.35599 0.03285 0.0
O60 O 0.38403 0.37123 0.04332 0.0
O61 O 0.38323 0.38997 0.03013 0.0
C62 C 0.38746 0.38223 0.98136 0.0
O63 O 0.37365 0.34631 0.01869 0.0
O64 O 0.35788 0.34444 0.99587 0.0
In65 In 0.6597 0.01263 0.01753 0.0
O66 O 0.65522 0.02088 0.04787 0.0
O67 O 0.63599 1.00425 0.03109 0.0
C68 C 0.68886 0.03535 0.00902 0.0
C69 C 0.66202 0.98769 0.0277 0.0
C70 C 0.6442 0.01475 0.98541 0.0
O71 O 0.68082 0.03659 0.02272 0.0
O72 O 0.68232 0.02261 0.99995 0.0
O73 O 0.64495 1.00282 0.98905 0.0
O74 O 0.65159 0.02566 0.99764 0.0
C75 C 0.64074 0.01262 0.04661 0.0
O76 O 0.65713 0.98908 0.01072 0.0
O77 O 0.66585 0.9989 0.03946 0.0
In78 In 0.6792 0.70177 0.35085 0.0
O79 O 0.66729 0.70654 0.37722 0.0
O80 O 0.69084 0.72253 0.3719 0.0
C81 C 0.65616 0.67342 0.34025 0.0
C82 C 0.70275 0.69679 0.36005 0.0
C83 C 0.67806 0.71883 0.31993 0.0
O84 O 0.65637 0.67966 0.35689 0.0
O85 O 0.66779 0.68128 0.32922 0.0
O86 O 0.68982 0.7177 0.32343 0.0
O87 O 0.66698 0.71128 0.33179 0.0
C88 C 0.67902 0.71901 0.38229 0.0
O89 O 0.70374 0.70607 0.34651 0.0
O90 O 0.68981 0.68982 0.36871 0.0
In91 In 0.32287 0.98806 0.34803 0.0
O92 O 0.31918 0.9747 0.37774 0.0
O93 O 0.30003 0.97498 0.36469 0.0
C94 C 0.35156 0.99417 0.33785 0.0
C95 C 0.32708 0.01606 0.35803 0.0
C96 C 0.30692 0.97023 0.31619 0.0
O97 O 0.34375 0.98476 0.35159 0.0
O98 O 0.345 1.00066 0.32948 0.0
O99 O 0.30641 0.9821 0.32106 0.0
O100 O 0.31569 0.96763 0.32702 0.0
C101 C 0.30499 0.97027 0.37883 0.0
O102 O 0.31886 0.00838 0.34323 0.0
O103 O 0.3333 0.00973 0.36756 0.0
In104 In 0.03738 0.34367 0.34824 0.0
O105 O 0.04176 0.36832 0.35111 0.0
O106 O 0.02473 0.35336 0.33027 0.0
C107 C 0.05688 0.35104 0.38012 0.0
C108 C 0.05251 0.33893 0.3176 0.0
C109 C 0.00971 0.31881 0.35772 0.0
O110 O 0.06094 0.35804 0.36349 0.0
O111 O 0.04287 0.34078 0.38095 0.0
O112 O 0.01918 0.31793 0.34603 0.0
O113 O 0.01415 0.33213 0.36437 0.0
C114 C 0.03185 0.3666 0.33802 0.0
O115 O 0.0509 0.33297 0.3348 0.0
O116 O 0.0459 0.34668 0.31554 0.0
In117 In 0.68183 0.98606 0.3458 0.0
O118 O 0.69179 0.98291 0.31629 0.0
O119 O 0.67176 0.96362 0.32815 0.0
C120 C 0.70479 0.01482 0.35532 0.0
C121 C 0.65706 0.98879 0.33553 0.0
C122 C 0.68435 0.96981 0.37676 0.0
O123 O 0.70588 0.00701 0.3412 0.0
O124 O 0.69207 0.00821 0.36451 0.0
O125 O 0.67412 0.97362 0.37644 0.0
O126 O 0.6933 0.97441 0.36181 0.0
C127 C 0.68188 0.96883 0.3145 0.0
O128 O 0.65689 0.98076 0.35028 0.0
O129 O 0.66969 0.99548 0.32615 0.0
In130 In 0.03761 0.70122 0.35001 0.0
O131 O 0.0431 0.71903 0.3251 0.0
O132 O 0.05815 0.71007 0.32864 0.0
C133 C 1.00876 0.69551 0.35939 0.0
C134 C 0.03261 0.67319 0.33859 0.0
C135 C 0.05652 0.71815 0.38076 0.0
O136 O 0.0161 0.7033 0.34422 0.0
O137 O 0.01589 0.69055 0.36972 0.0
O138 O 0.0532 0.70451 0.37729 0.0
O139 O 0.05007 0.72308 0.36909 0.0
C140 C 0.05512 0.71913 0.31921 0.0
O141 O 0.0374 0.6787 0.35597 0.0
O142 O 0.03009 0.68169 0.32708 0.0
In143 In 0.32434 0.34393 0.34827 0.0
O144 O 0.32046 0.31962 0.34479 0.0
O145 O 0.3364 0.334 0.36716 0.0
C146 C 0.30545 0.34243 0.31784 0.0
C147 C 0.30704 0.34348 0.37989 0.0
C148 C 0.35273 0.36756 0.33837 0.0
O149 O 0.31147 0.33404 0.31822 0.0
O150 O 0.30922 0.35166 0.33241 0.0
O151 O 0.3457 0.36762 0.35411 0.0
O152 O 0.3455 0.35565 0.32769 0.0
C153 C 0.32978 0.32102 0.35862 0.0
O154 O 0.31782 0.3558 0.37264 0.0
O155 O 0.30535 0.33143 0.37166 0.0
In156 In 0.34784 0.03529 0.68226 0.0
O157 O 0.37339 0.04226 0.68188 0.0
O158 O 0.35824 0.02279 0.69927 0.0
C159 C 0.34782 0.0523 0.65058 0.0
C160 C 0.34675 0.05177 0.71396 0.0
C161 C 0.32473 0.00712 0.67103 0.0
O162 O 0.35757 0.04794 0.65225 0.0
O163 O 0.33794 0.04771 0.66448 0.0
O164 O 0.32336 0.01471 0.68524 0.0
O165 O 0.33775 0.01369 0.66255 0.0
C166 C 0.37186 0.03162 0.69341 0.0
O167 O 0.33668 0.03786 0.71124 0.0
O168 O 0.35745 0.0571 0.70113 0.0
In169 In 0.98987 0.32041 0.68125 0.0
O170 O 0.99225 0.34399 0.67437 0.0
O171 O 0.99274 0.33823 0.70496 0.0
C172 C 0.97168 0.30304 0.65048 0.0
C173 C 0.97233 0.30027 0.71018 0.0
C174 C 0.01853 0.32582 0.67149 0.0
O175 O 0.97263 0.31559 0.65556 0.0
O176 O 0.98012 0.29953 0.6606 0.0
O177 O 0.01254 0.32081 0.68857 0.0
O178 O 0.01027 0.32845 0.65966 0.0
C179 C 0.99317 0.34794 0.69262 0.0
O180 O 0.98661 0.30513 0.70868 0.0
O181 O 0.96709 0.30579 0.69742 0.0
In182 In 0.70665 0.67908 0.68327 0.0
O183 O 0.71376 0.70461 0.68377 0.0
O184 O 0.69351 0.68947 0.66762 0.0
C185 C 0.72417 0.67931 0.71461 0.0
C186 C 0.72279 0.67819 0.65098 0.0
C187 C 0.67903 0.65505 0.69468 0.0
O188 O 0.71967 0.68895 0.71311 0.0
O189 O 0.71948 0.66942 0.7007 0.0
O190 O 0.68657 0.65444 0.67982 0.0
O191 O 0.68533 0.66784 0.7037 0.0
C192 C 0.70271 0.7031 0.67301 0.0
O193 O 0.70848 0.66912 0.65278 0.0
O194 O 0.72873 0.68779 0.66511 0.0
In195 In 0.3464 0.32208 0.6807 0.0
O196 O 0.35671 0.3163 0.65342 0.0
O197 O 0.33312 0.30127 0.66027 0.0
C198 C 0.36974 0.35048 0.69073 0.0
C199 C 0.32338 0.32774 0.67152 0.0
C200 C 0.34738 0.3044 0.71092 0.0
O201 O 0.37 0.34353 0.67499 0.0
O202 O 0.35773 0.34317 0.70126 0.0
O203 O 0.33685 0.30775 0.70963 0.0
O204 O 0.35745 0.31019 0.69729 0.0
C205 C 0.34437 0.3041 0.64904 0.0
O206 O 0.32243 0.319 0.68582 0.0
O207 O 0.33598 0.33373 0.66202 0.0
In208 In 0.70421 0.03434 0.68447 0.0
O209 O 0.70939 0.04653 0.65365 0.0
O210 O 0.72776 0.04644 0.66947 0.0
C211 C 0.67572 0.02972 0.69282 0.0
C212 C 0.69929 0.00596 0.67521 0.0
C213 C 0.71984 0.05235 0.71631 0.0
O214 O 0.68423 0.03894 0.67933 0.0
O215 O 0.68155 0.02283 0.70193 0.0
O216 O 0.71678 0.03858 0.71486 0.0
O217 O 0.71473 0.05681 0.70201 0.0
C218 C 0.72355 0.05072 0.65405 0.0
O219 O 0.7078 0.01379 0.68973 0.0
O220 O 0.69326 0.0124 0.66552 0.0
In221 In 0.98969 0.67715 0.68299 0.0
O222 O 0.98682 0.65332 0.6765 0.0
O223 O 1.00104 0.6661 0.70103 0.0
C224 C 0.97117 0.67831 0.65425 0.0
C225 C 0.97182 0.67521 0.71468 0.0
C226 C 0.01698 0.70165 0.67139 0.0
O227 O 0.97613 0.66898 0.65329 0.0
O228 O 0.97567 0.68702 0.6695 0.0
O229 O 0.01239 0.69972 0.68946 0.0
O230 O 1.00805 0.69119 0.65946 0.0
C231 C 0.9952 0.65379 0.69103 0.0
O232 O 0.98538 0.68637 0.71256 0.0
O233 O 0.96753 0.66507 0.70113 0.0
H234 H 0.22639 0.34317 0.13791 0.0
H235 H 0.19311 0.35079 0.10809 0.0
H236 H 0.18914 0.34053 0.17227 0.0
H237 H 0.17637 0.35257 0.17347 0.0
H238 H 0.13576 0.34725 0.14498 0.0
H239 H 0.16808 0.34144 0.10962 0.0
C240 C 0.2159 0.34371 0.13871 0.0
C241 C 0.20867 0.342 0.15731 0.0
C242 C 0.21011 0.34646 0.12102 0.0
C243 C 0.19697 0.34802 0.12188 0.0
C244 C 0.189 0.34594 0.14038 0.0
C245 C 0.19506 0.34278 0.15798 0.0
C246 C 0.17439 0.34681 0.14141 0.0
C247 C 0.16942 0.34992 0.15998 0.0
C248 C 0.15545 0.34992 0.16138 0.0
C249 C 0.14657 0.34728 0.14398 0.0
C250 C 0.15118 0.34447 0.12533 0.0
C251 C 0.16503 0.34418 0.12405 0.0
H252 H 0.6774 0.88765 0.13962 0.0
H253 H 0.66545 0.846 0.10813 0.0
H254 H 0.68293 0.85327 0.16967 0.0
H255 H 0.67037 0.82888 0.17226 0.0
H256 H 0.66572 0.78966 0.14139 0.0
H257 H 0.67254 0.8285 0.1067 0.0
C258 C 0.67667 0.87652 0.13933 0.0
C259 C 0.6804 0.87117 0.15662 0.0
C260 C 0.67154 0.86759 0.12184 0.0
C261 C 0.67004 0.85291 0.1216 0.0
C262 C 0.67387 0.84716 0.13892 0.0
C263 C 0.67933 0.85674 0.15626 0.0
C264 C 0.67173 0.83116 0.13935 0.0
C265 C 0.67029 0.82362 0.15801 0.0
C266 C 0.66844 0.80888 0.1587 0.0
C267 C 0.66719 0.80109 0.14079 0.0
C268 C 0.66841 0.80806 0.1221 0.0
C269 C 0.67104 0.82317 0.12133 0.0
H270 H 0.22896 0.88664 0.1447 0.0
H271 H 0.19178 0.85249 0.10909 0.0
H272 H 0.19461 0.84594 0.17352 0.0
H273 H 0.16972 0.83196 0.17169 0.0
H274 H 0.13966 0.79063 0.13988 0.0
H275 H 0.17786 0.8269 0.10847 0.0
C276 C 0.2184 0.87561 0.14363 0.0
C277 C 0.21226 0.86692 0.16104 0.0
C278 C 0.21116 0.87042 0.12492 0.0
C279 C 0.19741 0.85613 0.12362 0.0
C280 C 0.19088 0.84698 0.14115 0.0
C281 C 0.19871 0.85262 0.15981 0.0
C282 C 0.17613 0.83164 0.14026 0.0
C283 C 0.16693 0.82544 0.1578 0.0
C284 C 0.15414 0.81051 0.15786 0.0
C285 C 0.14975 0.80204 0.13998 0.0
C286 C 0.15797 0.80811 0.12214 0.0
C287 C 0.17127 0.82276 0.12226 0.0
H288 H 0.34267 0.13011 0.8867 0.0
H289 H 0.35249 0.17046 0.91997 0.0
H290 H 0.33998 0.16595 0.85635 0.0
H291 H 0.35041 0.19021 0.85601 0.0
H292 H 0.34573 0.22421 0.88835 0.0
H293 H 0.34481 0.18724 0.92129 0.0
C294 C 0.34352 0.14129 0.88719 0.0
C295 C 0.34139 0.14749 0.86951 0.0
C296 C 0.34719 0.14938 0.90539 0.0
C297 C 0.34912 0.16424 0.90585 0.0
C298 C 0.34652 0.17074 0.88823 0.0
C299 C 0.34257 0.16197 0.87012 0.0
C300 C 0.34735 0.18621 0.8886 0.0
C301 C 0.3487 0.19424 0.87034 0.0
C302 C 0.34744 0.2075 0.87017 0.0
C303 C 0.34613 0.21363 0.88844 0.0
C304 C 0.34557 0.20659 0.90682 0.0
C305 C 0.34601 0.19282 0.90693 0.0
H306 H 0.79956 0.13555 0.89472 0.0
H307 H 0.83829 0.17263 0.92433 0.0
H308 H 0.83485 0.17082 0.85882 0.0
H309 H 0.85972 0.1836 0.85964 0.0
H310 H 0.89388 0.22652 0.88423 0.0
H311 H 0.85372 0.19767 0.91935 0.0
C312 C 0.81053 0.14615 0.89373 0.0
C313 C 0.81679 0.15205 0.87483 0.0
C314 C 0.81803 0.15373 0.91145 0.0
C315 C 0.8324 0.16733 0.91037 0.0
C316 C 0.83898 0.17385 0.89136 0.0
C317 C 0.83065 0.16613 0.87366 0.0
C318 C 0.85443 0.18844 0.8898 0.0
C319 C 0.8634 0.1917 0.872 0.0
C320 C 0.87747 0.20545 0.86991 0.0
C321 C 0.883 0.21588 0.8859 0.0
C322 C 0.87458 0.2131 0.90376 0.0
C323 C 0.86032 0.19939 0.90572 0.0
H324 H 0.80044 0.67501 0.88574 0.0
H325 H 0.82808 0.66193 0.92061 0.0
H326 H 0.84256 0.68156 0.86085 0.0
H327 H 0.85295 0.66662 0.8606 0.0
H328 H 0.88916 0.6679 0.89651 0.0
H329 H 0.85394 0.67296 0.92547 0.0
C330 C 0.81077 0.6742 0.88738 0.0
C331 C 0.82116 0.67873 0.87135 0.0
C332 C 0.81315 0.66813 0.90514 0.0
C333 C 0.82654 0.66701 0.90705 0.0
C334 C 0.83743 0.67174 0.89112 0.0
C335 C 0.83449 0.67764 0.87329 0.0
C336 C 0.85161 0.67027 0.89275 0.0
C337 C 0.85835 0.66804 0.8752 0.0
C338 C 0.87195 0.66725 0.87632 0.0
C339 C 0.87854 0.66821 0.89529 0.0
C340 C 0.87187 0.66983 0.9129 0.0
C341 C 0.8586 0.67114 0.91169 0.0
H342 H 0.89475 0.68058 0.47845 0.0
H343 H 0.85717 0.67558 0.44189 0.0
H344 H 0.85853 0.68418 0.50641 0.0
H345 H 0.83391 0.67193 0.5045 0.0
H346 H 0.79915 0.6749 0.47106 0.0
H347 H 0.84052 0.68391 0.44082 0.0
C348 C 0.88385 0.68034 0.47707 0.0
C349 C 0.87703 0.68214 0.49433 0.0
C350 C 0.87687 0.67823 0.45813 0.0
C351 C 0.86263 0.67779 0.45656 0.0
C352 C 0.85538 0.67958 0.47395 0.0
C353 C 0.86311 0.68214 0.49276 0.0
C354 C 0.8397 0.67829 0.47284 0.0
C355 C 0.83032 0.67447 0.49035 0.0
C356 C 0.81587 0.67351 0.48988 0.0
C357 C 0.81027 0.67554 0.47155 0.0
C358 C 0.81894 0.6789 0.45386 0.0
C359 C 0.83378 0.6807 0.45454 0.0
H360 H 0.33755 0.21911 0.48089 0.0
H361 H 0.34604 0.18865 0.44497 0.0
H362 H 0.33569 0.18016 0.50894 0.0
H363 H 0.35009 0.17 0.5076 0.0
H364 H 0.34959 0.13324 0.47499 0.0
H365 H 0.33795 0.16339 0.44393 0.0
C366 C 0.33835 0.20879 0.47959 0.0
C367 C 0.33657 0.20013 0.49681 0.0
C368 C 0.3416 0.20463 0.46087 0.0
C369 C 0.34297 0.19139 0.4594 0.0
C370 C 0.34114 0.18231 0.47673 0.0
C371 C 0.33763 0.18683 0.49535 0.0
C372 C 0.34355 0.16866 0.47587 0.0
C373 C 0.34792 0.1638 0.49353 0.0
C374 C 0.34986 0.15095 0.49335 0.0
C375 C 0.34828 0.1433 0.47516 0.0
C376 C 0.34434 0.14793 0.4573 0.0
C377 C 0.34158 0.16034 0.45771 0.0
H378 H 0.89206 0.2219 0.47742 0.0
H379 H 0.86303 0.18114 0.44338 0.0
H380 H 0.85503 0.18384 0.50734 0.0
H381 H 0.84429 0.15912 0.50651 0.0
H382 H 0.80495 0.12434 0.47509 0.0
H383 H 0.83782 0.16414 0.44271 0.0
C384 C 0.88215 0.21038 0.47669 0.0
C385 C 0.87414 0.20346 0.49436 0.0
C386 C 0.87808 0.2025 0.45828 0.0
C387 C 0.86571 0.18723 0.45761 0.0
C388 C 0.85694 0.18007 0.47523 0.0
C389 C 0.86144 0.18853 0.49355 0.0
C390 C 0.84302 0.16408 0.47472 0.0
C391 C 0.83775 0.15518 0.49264 0.0
C392 C 0.82397 0.14096 0.49296 0.0
C393 C 0.81569 0.13523 0.47501 0.0
C394 C 0.82084 0.14335 0.4569 0.0
C395 C 0.83442 0.15777 0.45672 0.0
H396 H 0.02089 0.46851 0.2182 0.0
H397 H 0.01431 0.49987 0.25469 0.0
H398 H 0.02378 0.50811 0.19048 0.0
H399 H 0.0114 0.52053 0.19285 0.0
H400 H 0.01692 0.55885 0.22745 0.0
H401 H 0.02461 0.52526 0.25608 0.0
C402 C 0.02041 0.47901 0.21954 0.0
C403 C 0.0223 0.48775 0.20234 0.0
C404 C 0.01769 0.48341 0.23838 0.0
C405 C 0.01687 0.49692 0.24007 0.0
C406 C 0.01885 0.50615 0.22283 0.0
C407 C 0.0217 0.50132 0.20399 0.0
C408 C 0.01797 0.52066 0.22431 0.0
C409 C 0.01422 0.52659 0.2071 0.0
C410 C 0.01442 0.54065 0.20791 0.0
C411 C 0.01726 0.54827 0.22641 0.0
C412 C 0.02071 0.54265 0.24369 0.0
C413 C 0.02127 0.52901 0.24267 0.0
H414 H 0.46892 0.46296 0.22045 0.0
H415 H 0.50424 0.49929 0.25571 0.0
H416 H 0.50416 0.50239 0.19027 0.0
H417 H 0.52903 0.51552 0.19366 0.0
H418 H 0.56071 0.55692 0.22439 0.0
H419 H 0.51917 0.52466 0.25424 0.0
C420 C 0.47944 0.47403 0.22124 0.0
C421 C 0.48629 0.48175 0.20336 0.0
C422 C 0.48564 0.48042 0.24008 0.0
C423 C 0.49926 0.49483 0.24103 0.0
C424 C 0.50656 0.503 0.2231 0.0
C425 C 0.49946 0.4964 0.20432 0.0
C426 C 0.5217 0.51801 0.22372 0.0
C427 C 0.53175 0.52278 0.20683 0.0
C428 C 0.54572 0.53685 0.20681 0.0
C429 C 0.55004 0.54597 0.22418 0.0
C430 C 0.54071 0.54141 0.24132 0.0
C431 C 0.52643 0.52765 0.24103 0.0
H432 H 0.46362 1.00326 0.21762 0.0
H433 H 0.50101 0.00755 0.25387 0.0
H434 H 0.49904 0.99837 0.18941 0.0
H435 H 0.52361 0.00913 0.19133 0.0
H436 H 0.5565 1.00328 0.22532 0.0
H437 H 0.51614 0.99742 0.25505 0.0
C438 C 0.47434 1.00312 0.21888 0.0
C439 C 0.48089 1.00096 0.20159 0.0
C440 C 0.48145 1.00531 0.23771 0.0
C441 C 0.49547 1.00534 0.23925 0.0
C442 C 0.50241 1.00307 0.22186 0.0
C443 C 0.49467 1.00068 0.20307 0.0
C444 C 0.51763 1.00336 0.22306 0.0
C445 C 0.52694 0.00643 0.20557 0.0
C446 C 0.54061 0.00577 0.20608 0.0
C447 C 0.54569 1.00324 0.22454 0.0
C448 C 0.53704 1.00046 0.24211 0.0
C449 C 0.52293 1.00026 0.2414 0.0
H450 H 0.56251 0.01329 0.81127 0.0
H451 H 0.52621 0.01327 0.77731 0.0
H452 H 0.52901 0.01951 0.84253 0.0
H453 H 0.50486 0.01008 0.84211 0.0
H454 H 0.46891 0.01189 0.81039 0.0
H455 H 0.50936 0.02072 0.7779 0.0
C456 C 0.5521 0.01405 0.81082 0.0
C457 C 0.546 0.01581 0.82883 0.0
C458 C 0.54526 0.01361 0.79226 0.0
C459 C 0.53165 0.01443 0.7918 0.0
C460 C 0.52502 0.01608 0.80993 0.0
C461 C 0.53294 0.01747 0.82832 0.0
C462 C 0.50964 0.01557 0.80996 0.0
C463 C 0.5009 0.01228 0.82803 0.0
C464 C 0.48642 0.0112 0.82821 0.0
C465 C 0.48016 0.01281 0.81024 0.0
C466 C 0.48832 0.01601 0.79215 0.0
C467 C 0.50316 0.01778 0.79203 0.0
H468 H 1.00481 0.55193 0.80845 0.0
H469 H 0.01133 0.51937 0.77446 0.0
H470 H 0.01113 0.51852 0.84001 0.0
H471 H 0.02619 0.50903 0.83629 0.0
H472 H 0.01855 0.46705 0.81016 0.0
H473 H 1.00308 0.49394 0.77835 0.0
C474 C 1.00655 0.54212 0.80813 0.0
C475 C 1.00832 0.53608 0.82624 0.0
C476 C 1.00743 0.53603 0.78955 0.0
C477 C 0.01026 0.52366 0.78899 0.0
C478 C 0.01177 0.51705 0.80717 0.0
C479 C 0.0106 0.52344 0.82572 0.0
C480 C 0.0144 0.50354 0.80715 0.0
C481 C 0.0216 0.50094 0.82392 0.0
C482 C 0.02292 0.48774 0.82515 0.0
C483 C 0.01768 0.47734 0.80911 0.0
C484 C 0.01065 0.47954 0.79218 0.0
C485 C 1.00907 0.49267 0.79115 0.0
H486 H 0.56427 0.55404 0.80456 0.0
H487 H 0.52901 0.51397 0.77483 0.0
H488 H 0.52386 0.52345 0.83752 0.0
H489 H 0.5109 0.49868 0.84048 0.0
H490 H 0.47008 0.4629 0.81344 0.0
H491 H 0.50335 0.49916 0.77592 0.0
C492 C 0.55312 0.5436 0.80507 0.0
C493 C 0.54488 0.53935 0.82308 0.0
C494 C 0.54728 0.53475 0.78764 0.0
C495 C 0.53298 0.52101 0.78828 0.0
C496 C 0.52426 0.51634 0.80643 0.0
C497 C 0.53027 0.52611 0.82355 0.0
C498 C 0.50928 0.50127 0.80794 0.0
C499 C 0.50405 0.49401 0.82696 0.0
C500 C 0.48987 0.48045 0.82885 0.0
C501 C 0.48095 0.47356 0.81176 0.0
C502 C 0.48582 0.4801 0.79262 0.0
C503 C 0.49996 0.49398 0.79071 0.0
H504 H 0.68409 0.80093 0.55961 0.0
H505 H 0.69224 0.8415 0.59063 0.0
H506 H 0.67991 0.83539 0.52705 0.0
H507 H 0.69359 0.86068 0.52641 0.0
H508 H 0.68789 0.89524 0.55615 0.0
H509 H 0.6817 0.85639 0.58999 0.0
C510 C 0.68442 0.81185 0.55925 0.0
C511 C 0.68185 0.81729 0.54109 0.0
C512 C 0.68774 0.82032 0.57706 0.0
C513 C 0.6891 0.8349 0.57678 0.0
C514 C 0.68642 0.84079 0.55869 0.0
C515 C 0.68263 0.83164 0.54096 0.0
C516 C 0.68734 0.85622 0.55821 0.0
C517 C 0.69077 0.86472 0.53998 0.0
C518 C 0.69093 0.87876 0.5391 0.0
C519 C 0.68792 0.88449 0.55668 0.0
C520 C 0.68488 0.87663 0.57501 0.0
C521 C 0.68456 0.86252 0.57579 0.0
H522 H 0.1322 0.8003 0.55509 0.0
H523 H 0.164 0.841 0.58727 0.0
H524 H 0.1748 0.83197 0.52712 0.0
H525 H 0.18843 0.85697 0.5251 0.0
H526 H 0.22743 0.89062 0.55818 0.0
H527 H 0.18965 0.85469 0.59052 0.0
C528 C 0.14319 0.81093 0.55575 0.0
C529 C 0.153 0.81536 0.53913 0.0
C530 C 0.14713 0.82006 0.5731 0.0
C531 C 0.16132 0.83392 0.57391 0.0
C532 C 0.17161 0.83873 0.55726 0.0
C533 C 0.1672 0.82911 0.53996 0.0
C534 C 0.18687 0.85356 0.55774 0.0
C535 C 0.19411 0.86117 0.5395 0.0
C536 C 0.20893 0.87421 0.53956 0.0
C537 C 0.21621 0.88026 0.558 0.0
C538 C 0.20919 0.87347 0.57629 0.0
C539 C 0.19461 0.86008 0.57622 0.0
H540 H 0.1303 0.33851 0.55709 0.0
H541 H 0.16451 0.33164 0.5859 0.0
H542 H 0.1703 0.34708 0.52365 0.0
H543 H 0.18336 0.33527 0.52076 0.0
H544 H 0.2231 0.33861 0.54925 0.0
H545 H 0.19013 0.34297 0.58544 0.0
C546 C 0.14116 0.33862 0.55621 0.0
C547 C 0.14939 0.34261 0.53809 0.0
C548 C 0.14665 0.33487 0.57339 0.0
C549 C 0.16078 0.33514 0.57261 0.0
C550 C 0.16962 0.33939 0.55461 0.0
C551 C 0.16381 0.34345 0.53755 0.0
C552 C 0.18455 0.3392 0.55332 0.0
C553 C 0.18997 0.33715 0.53445 0.0
C554 C 0.20386 0.33707 0.53302 0.0
C555 C 0.21239 0.33876 0.55045 0.0
C556 C 0.20745 0.34078 0.56934 0.0
C557 C 0.19356 0.341 0.57079 0.0
H558 H 0.04208 0.40781 0.06789 0.0
H559 H 0.04333 0.42604 0.09337 0.0
H560 H 0.99572 0.41194 0.08197 0.0
H561 H 0.99431 0.39348 0.05662 0.0
H562 H 0.01641 0.44481 0.0832 0.0
H563 H 1.00276 0.39949 0.12243 0.0
H564 H 1.00563 0.37791 0.13459 0.0
H565 H 0.05063 0.40963 0.15776 0.0
H566 H 0.04812 0.4314 0.14546 0.0
H567 H 1.0027 0.47842 0.17027 0.0
H568 H 1.00276 0.46325 0.14136 0.0
H569 H 0.04608 0.46852 0.16165 0.0
H570 H 0.04561 0.48309 0.19098 0.0
H571 H 0.02746 0.44013 0.15505 0.0
H572 H 0.04172 0.48558 0.11677 0.0
H573 H 0.03975 0.50761 0.10432 0.0
H574 H 0.99528 0.47686 0.07891 0.0
H575 H 0.99689 0.45463 0.09144 0.0
C576 C 0.03185 0.40853 0.07089 0.0
C577 C 0.01807 0.39918 0.06035 0.0
C578 C 0.03259 0.41895 0.08543 0.0
C579 C 0.01962 0.42032 0.08954 0.0
C580 C 1.00586 0.41106 0.07897 0.0
C581 C 1.00505 0.40047 0.06461 0.0
C582 C 0.02044 0.43137 0.10501 0.0
C583 C 0.01864 0.44373 0.09898 0.0
C584 C 0.02378 0.43015 0.12543 0.0
C585 C 0.02532 0.41707 0.13283 0.0
C586 C 0.01333 0.40186 0.12995 0.0
C587 C 0.01488 0.38959 0.1369 0.0
C588 C 0.02832 0.3924 0.14689 0.0
C589 C 0.04023 0.40747 0.14999 0.0
C590 C 0.03875 0.41978 0.14304 0.0
C591 C 0.01243 0.47669 0.16814 0.0
C592 C 0.0242 0.48196 0.18267 0.0
C593 C 0.01248 0.46802 0.15164 0.0
C594 C 0.02446 0.46474 0.14921 0.0
C595 C 0.03667 0.47081 0.16319 0.0
C596 C 0.03648 0.47924 0.17983 0.0
C597 C 0.0236 0.45383 0.13334 0.0
C598 C 0.02532 0.44137 0.13929 0.0
C599 C 0.02036 0.4551 0.11281 0.0
C600 C 0.01937 0.46844 0.10522 0.0
C601 C 0.03147 0.48352 0.10866 0.0
C602 C 0.03043 0.49604 0.10157 0.0
C603 C 0.01738 0.49364 0.09088 0.0
C604 C 1.00537 0.4787 0.08721 0.0
C605 C 1.00635 0.46613 0.09429 0.0
H606 H 0.0166 0.50335 0.0854 0.0
H607 H 0.0295 0.38288 0.15228 0.0
H608 H 0.6116 0.60642 0.04238 0.0
H609 H 0.59602 0.58852 0.06888 0.0
H610 H 0.63414 0.61074 0.11047 0.0
H611 H 0.64991 0.62885 0.08386 0.0
H612 H 0.618 0.57791 0.11247 0.0
H613 H 0.6071 0.61937 0.11363 0.0
H614 H 0.59979 0.63721 0.0986 0.0
H615 H 0.55629 0.59915 0.08005 0.0
H616 H 0.56343 0.58106 0.09473 0.0
H617 H 0.57724 0.55149 0.20483 0.0
H618 H 0.59351 0.56502 0.17606 0.0
H619 H 0.55318 0.54849 0.13826 0.0
H620 H 0.53673 0.53558 0.16738 0.0
H621 H 0.57048 0.5778 0.13334 0.0
H622 H 0.58034 0.53614 0.13308 0.0
H623 H 0.58738 0.51785 0.14726 0.0
H624 H 0.63216 0.55515 0.1631 0.0
H625 H 0.62532 0.57369 0.14926 0.0
C626 C 0.61674 0.60747 0.05712 0.0
C627 C 0.63197 0.61912 0.06108 0.0
C628 C 0.6078 0.59723 0.07225 0.0
C629 C 0.61388 0.59839 0.09168 0.0
C630 C 0.62924 0.60967 0.09556 0.0
C631 C 0.63821 0.62003 0.0804 0.0
C632 C 0.6039 0.58818 0.10804 0.0
C633 C 0.6077 0.57798 0.11726 0.0
C634 C 0.59023 0.58799 0.1138 0.0
C635 C 0.58586 0.59885 0.1051 0.0
C636 C 0.59602 0.6148 0.1062 0.0
C637 C 0.5919 0.62496 0.09777 0.0
C638 C 0.5776 0.61932 0.08833 0.0
C639 C 0.56737 0.6035 0.08735 0.0
C640 C 0.57144 0.59329 0.09573 0.0
C641 C 0.57181 0.55064 0.19037 0.0
C642 C 0.55564 0.5426 0.1885 0.0
C643 C 0.58117 0.55825 0.17383 0.0
C644 C 0.57462 0.55776 0.15488 0.0
C645 C 0.55852 0.54908 0.15272 0.0
C646 C 0.54912 0.54156 0.16934 0.0
C647 C 0.58448 0.56737 0.13791 0.0
C648 C 0.58069 0.57756 0.12856 0.0
C649 C 0.59809 0.56744 0.13197 0.0
C650 C 0.60226 0.55632 0.14028 0.0
C651 C 0.59165 0.54046 0.13973 0.0
C652 C 0.59561 0.53004 0.14768 0.0
C653 C 0.61019 0.53534 0.15612 0.0
C654 C 0.62086 0.55106 0.15658 0.0
C655 C 0.61695 0.56153 0.14866 0.0
H656 H 0.61324 0.52725 0.16227 0.0
H657 H 0.57443 0.62721 0.08181 0.0
H658 H 0.38273 0.98368 0.06451 0.0
H659 H 0.39956 0.98184 0.08981 0.0
H660 H 0.42893 0.03107 0.0889 0.0
H661 H 0.41194 0.03302 0.06381 0.0
H662 H 0.44455 0.01302 0.08533 0.0
H663 H 0.40768 0.01772 0.12703 0.0
H664 H 0.3815 0.01062 0.13819 0.0
H665 H 0.37214 0.96511 0.15225 0.0
H666 H 0.39821 0.97188 0.14088 0.0
H667 H 0.49008 0.02297 0.17287 0.0
H668 H 0.47465 0.02366 0.14465 0.0
H669 H 0.43898 0.97735 0.15854 0.0
H670 H 0.45419 0.97705 0.18737 0.0
H671 H 0.42642 0.99363 0.15456 0.0
H672 H 0.46239 0.98782 0.11404 0.0
H673 H 0.48789 0.99343 0.10179 0.0
H674 H 0.4983 0.03866 0.0841 0.0
H675 H 0.47294 0.0334 0.09651 0.0
C676 C 0.39271 0.99412 0.0698 0.0
C677 C 0.396 0.0085 0.06225 0.0
C678 C 0.40231 0.99305 0.08423 0.0
C679 C 0.41549 0.00632 0.09118 0.0
C680 C 0.41883 0.0207 0.08367 0.0
C681 C 0.40907 0.0218 0.06946 0.0
C682 C 0.42573 1.0051 0.10631 0.0
C683 C 0.44071 0.00897 0.10058 0.0
C684 C 0.42048 0.99931 0.12591 0.0
C685 C 0.40484 0.99526 0.1329 0.0
C686 C 0.4 0.00616 0.13233 0.0
C687 C 0.38518 1.0022 0.13873 0.0
C688 C 0.37515 0.98741 0.14586 0.0
C689 C 0.37992 0.97656 0.14668 0.0
C690 C 0.39472 0.98045 0.14028 0.0
C691 C 0.47915 0.01281 0.16943 0.0
C692 C 0.47337 0.99987 0.18198 0.0
C693 C 0.47031 0.01318 0.15332 0.0
C694 C 0.45563 1.00051 0.14926 0.0
C695 C 0.45022 0.98729 0.16132 0.0
C696 C 0.45896 0.98703 0.17763 0.0
C697 C 0.4454 1.00151 0.1337 0.0
C698 C 0.43036 0.99761 0.13933 0.0
C699 C 0.45055 0.00704 0.11389 0.0
C700 C 0.46581 0.01026 0.10639 0.0
C701 C 0.47016 0.999 0.10769 0.0
C702 C 0.48458 1.00211 0.10068 0.0
C703 C 0.49472 0.0164 0.09222 0.0
C704 C 0.49044 0.0276 0.09069 0.0
C705 C 0.47604 0.02456 0.09768 0.0
H706 H 0.50588 0.01879 0.0868 0.0
H707 H 0.36368 0.98436 0.1508 0.0
H708 H 0.41606 0.03271 0.97377 0.0
H709 H 0.43308 0.03174 0.94824 0.0
H710 H 0.39777 0.98595 0.93164 0.0
H711 H 0.38062 0.98682 0.95735 0.0
H712 H 0.42606 0.98822 0.93529 0.0
H713 H 0.40484 0.01519 0.90151 0.0
H714 H 0.39741 0.03492 0.89707 0.0
H715 H 0.44487 0.0704 0.90123 0.0
H716 H 0.45258 0.05088 0.90602 0.0
H717 H 0.45792 0.98763 0.83778 0.0
H718 H 0.44174 0.98646 0.86627 0.0
H719 H 0.47884 0.02938 0.88884 0.0
H720 H 0.49518 0.03038 0.86058 0.0
H721 H 0.44964 0.02818 0.88219 0.0
H722 H 0.4705 1.00035 0.91547 0.0
H723 H 0.47725 0.98007 0.91906 0.0
H724 H 0.42947 0.9455 0.91437 0.0
H725 H 0.42245 0.96559 0.91043 0.0
C726 C 0.41186 0.02245 0.96463 0.0
C727 C 0.39697 0.00986 0.96751 0.0
C728 C 0.42161 0.02193 0.95002 0.0
C729 C 0.41667 0.00882 0.93793 0.0
C730 C 0.40181 0.99618 0.94081 0.0
C731 C 0.39201 0.99672 0.9554 0.0
C732 C 0.42711 0.00837 0.9224 0.0
C733 C 0.43105 0.99683 0.9235 0.0
C734 C 0.43384 0.01977 0.90725 0.0
C735 C 0.42927 0.03157 0.90434 0.0
C736 C 0.41368 0.02721 0.90166 0.0
C737 C 0.40942 0.03835 0.89904 0.0
C738 C 0.42065 0.05391 0.89892 0.0
C739 C 0.43618 0.05835 0.90136 0.0
C740 C 0.4405 0.04725 0.90401 0.0
C741 C 0.46272 0.99657 0.84917 0.0
C742 C 0.47779 0.00903 0.84718 0.0
C743 C 0.45349 0.99592 0.86536 0.0
C744 C 0.4591 0.00785 0.87961 0.0
C745 C 0.47433 0.02006 0.878 0.0
C746 C 0.48367 0.02057 0.862 0.0
C747 C 0.44866 0.00813 0.8952 0.0
C748 C 0.44467 0.01961 0.89402 0.0
C749 C 0.44179 0.9966 0.91013 0.0
C750 C 0.44596 0.98448 0.91243 0.0
C751 C 0.46144 0.98842 0.91499 0.0
C752 C 0.46532 0.97696 0.91713 0.0
C753 C 0.4538 0.9615 0.91688 0.0
C754 C 0.43838 0.95748 0.91453 0.0
C755 C 0.43445 0.9689 0.91235 0.0
H756 H 0.45682 0.95265 0.91856 0.0
H757 H 0.41733 0.06252 0.89689 0.0
H758 H 0.04253 0.40336 0.95345 0.0
H759 H 0.04555 0.4223 0.92788 0.0
H760 H 1.00698 0.4242 0.9533 0.0
H761 H 1.00377 0.40518 0.97856 0.0
H762 H 1.00455 0.42218 0.91365 0.0
H763 H 0.04455 0.45316 0.96095 0.0
H764 H 0.06758 0.46054 0.98188 0.0
H765 H 0.09395 0.46515 0.92866 0.0
H766 H 0.071 0.45758 0.90741 0.0
H767 H 0.01193 0.48634 0.86307 0.0
H768 H 0.01479 0.47287 0.89208 0.0
H769 H 0.04721 0.4653 0.85862 0.0
H770 H 0.04432 0.4787 0.82949 0.0
H771 H 0.05365 0.47084 0.90212 0.0
H772 H 0.01324 0.43905 0.85519 0.0
H773 H 0.99037 0.43248 0.83434 0.0
H774 H 0.96473 0.42966 0.88761 0.0
H775 H 0.98759 0.43656 0.90875 0.0
C776 C 0.03471 0.40784 0.95356 0.0
C777 C 0.0229 0.40276 0.968 0.0
C778 C 0.0365 0.41872 0.93902 0.0
C779 C 0.02658 0.42481 0.93877 0.0
C780 C 0.01477 0.41969 0.95316 0.0
C781 C 0.01296 0.40882 0.96763 0.0
C782 C 0.02816 0.4362 0.92324 0.0
C783 C 0.01525 0.4329 0.91137 0.0
C784 C 0.0422 0.45007 0.91988 0.0
C785 C 0.05602 0.45465 0.93261 0.0
C786 C 0.05523 0.45562 0.95372 0.0
C787 C 0.06827 0.45986 0.96564 0.0
C788 C 0.08221 0.46327 0.95661 0.0
C789 C 0.08314 0.46248 0.93563 0.0
C790 C 0.07012 0.45823 0.92364 0.0
C791 C 0.0201 0.48232 0.86217 0.0
C792 C 0.02785 0.48349 0.84403 0.0
C793 C 0.02166 0.47455 0.8787 0.0
C794 C 0.03107 0.46795 0.87738 0.0
C795 C 0.0399 0.47032 0.85994 0.0
C796 C 0.03821 0.47794 0.84332 0.0
C797 C 0.03 0.45683 0.89289 0.0
C798 C 0.04298 0.46014 0.90457 0.0
C799 C 0.01602 0.44295 0.89616 0.0
C800 C 1.00217 0.43849 0.88353 0.0
C801 C 1.00277 0.43716 0.86244 0.0
C802 C 0.9898 0.43336 0.85057 0.0
C803 C 0.97611 0.43069 0.85964 0.0
C804 C 0.97535 0.43176 0.88061 0.0
C805 C 0.98831 0.43562 0.89254 0.0
H806 H 0.96608 0.42775 0.85043 0.0
H807 H 0.0923 0.46655 0.96587 0.0
H808 H 0.641 0.61856 0.95625 0.0
H809 H 0.62343 0.60365 0.92893 0.0
H810 H 0.5957 0.62436 0.94127 0.0
H811 H 0.61347 0.63958 0.96862 0.0
H812 H 0.57878 0.59123 0.93781 0.0
H813 H 0.61556 0.63527 0.90101 0.0
H814 H 0.64144 0.65523 0.89009 0.0
H815 H 0.64999 0.6206 0.86606 0.0
H816 H 0.62425 0.6004 0.87713 0.0
H817 H 0.53385 0.55326 0.84837 0.0
H818 H 0.54811 0.57161 0.87564 0.0
H819 H 0.58672 0.56468 0.8658 0.0
H820 H 0.57273 0.54682 0.83845 0.0
H821 H 0.59646 0.59388 0.86724 0.0
H822 H 0.56202 0.54995 0.90759 0.0
H823 H 0.53672 0.52925 0.91928 0.0
H824 H 0.52434 0.56263 0.93716 0.0
H825 H 0.5495 0.58353 0.92532 0.0
C826 C 0.63125 0.62007 0.95304 0.0
C827 C 0.62861 0.63026 0.96452 0.0
C828 C 0.62123 0.61155 0.93742 0.0
C829 C 0.6083 0.61294 0.93306 0.0
C830 C 0.60564 0.62315 0.94441 0.0
C831 C 0.61582 0.63189 0.95991 0.0
C832 C 0.59749 0.60334 0.91691 0.0
C833 C 0.5825 0.59198 0.92226 0.0
C834 C 0.60248 0.60417 0.89677 0.0
C835 C 0.618 0.6163 0.89006 0.0
C836 C 0.623 0.63189 0.89356 0.0
C837 C 0.63765 0.64326 0.88731 0.0
C838 C 0.64737 0.63919 0.87743 0.0
C839 C 0.64246 0.62374 0.87374 0.0
C840 C 0.62783 0.61232 0.87998 0.0
C841 C 0.54528 0.55551 0.85236 0.0
C842 C 0.55223 0.54869 0.84136 0.0
C843 C 0.55343 0.56599 0.86788 0.0
C844 C 0.56853 0.56957 0.87277 0.0
C845 C 0.57517 0.56225 0.86222 0.0
C846 C 0.56714 0.55198 0.84667 0.0
C847 C 0.57786 0.58136 0.88822 0.0
C848 C 0.5926 0.59321 0.88271 0.0
C849 C 0.57268 0.58084 0.90824 0.0
C850 C 0.55756 0.56829 0.91534 0.0
C851 C 0.55384 0.55287 0.91385 0.0
C852 C 0.53954 0.5411 0.92054 0.0
C853 C 0.52891 0.54462 0.92889 0.0
C854 C 0.53257 0.55992 0.93064 0.0
C855 C 0.54685 0.57173 0.92395 0.0
H856 H 0.51784 0.5355 0.93407 0.0
H857 H 0.6587 0.64801 0.8726 0.0
H858 H 0.99188 0.61711 0.95974 0.0
H859 H 0.99187 0.5994 0.93463 0.0
H860 H 0.03901 0.6136 0.94977 0.0
H861 H 0.0392 0.63175 0.9747 0.0
H862 H 0.03495 0.61018 0.91014 0.0
H863 H 1.00894 0.57936 0.96719 0.0
H864 H 0.99007 0.56932 0.99496 0.0
H865 H 0.95291 0.55179 0.9521 0.0
H866 H 0.97155 0.56192 0.92405 0.0
H867 H 0.03025 0.54654 0.85581 0.0
H868 H 0.03228 0.56239 0.88516 0.0
H869 H 0.98885 0.55867 0.86921 0.0
H870 H 0.98686 0.54299 0.83979 0.0
H871 H 0.99275 0.5558 0.91156 0.0
H872 H 0.01966 0.589 0.85494 0.0
H873 H 0.03895 0.59879 0.82764 0.0
H874 H 0.07516 0.61126 0.87109 0.0
H875 H 0.05603 0.60132 0.89864 0.0
C876 C 1.00229 0.61655 0.95766 0.0
C877 C 0.01552 0.62576 0.96928 0.0
C878 C 1.00223 0.60633 0.94338 0.0
C879 C 0.01532 0.60487 0.94061 0.0
C880 C 0.02874 0.61443 0.95173 0.0
C881 C 0.02884 0.6248 0.96596 0.0
C882 C 0.01484 0.59333 0.92614 0.0
C883 C 0.02589 0.59824 0.91071 0.0
C884 C 1.00293 0.57773 0.9267 0.0
C885 C 0.99166 0.57151 0.94352 0.0
C886 C 0.99674 0.57346 0.96368 0.0
C887 C 0.98609 0.56774 0.97948 0.0
C888 C 0.9703 0.55995 0.9753 0.0
C889 C 0.96514 0.55783 0.95531 0.0
C890 C 0.97575 0.56355 0.93946 0.0
C891 C 0.021 0.54886 0.85884 0.0
C892 C 1.00842 0.54359 0.84555 0.0
C893 C 0.02222 0.55797 0.8755 0.0
C894 C 0.01077 0.56179 0.87923 0.0
C895 C 0.9978 0.55585 0.86658 0.0
C896 C 0.99669 0.54694 0.84979 0.0
C897 C 0.01269 0.57275 0.89551 0.0
C898 C 1.00191 0.56771 0.91123 0.0
C899 C 0.02491 0.58817 0.89533 0.0
C900 C 0.03641 0.59425 0.87881 0.0
C901 C 0.03172 0.59371 0.85865 0.0
C902 C 0.04262 0.5993 0.84314 0.0
C903 C 0.05826 0.6056 0.84762 0.0
C904 C 0.06304 0.60635 0.86764 0.0
C905 C 0.05217 0.60074 0.8832 0.0
H906 H 0.06669 0.60993 0.83559 0.0
H907 H 0.96207 0.55553 0.98755 0.0
H908 H 0.41243 0.38167 0.96626 0.0
H909 H 0.43087 0.39895 0.94123 0.0
H910 H 0.4048 0.42218 0.93509 0.0
H911 H 0.38599 0.40452 0.95959 0.0
H912 H 0.41467 0.41982 0.89965 0.0
H913 H 0.43786 0.43622 0.96469 0.0
H914 H 0.44661 0.43315 0.99822 0.0
H915 H 0.47826 0.42177 0.97054 0.0
H916 H 0.46935 0.4243 0.93678 0.0
H917 H 0.47224 0.48675 0.85325 0.0
H918 H 0.45633 0.47102 0.88147 0.0
H919 H 0.47646 0.44208 0.87622 0.0
H920 H 0.49231 0.4578 0.84782 0.0
H921 H 0.47022 0.44796 0.91776 0.0
H922 H 0.44571 0.43104 0.85243 0.0
H923 H 0.43736 0.43555 0.81936 0.0
H924 H 0.4085 0.44977 0.84889 0.0
H925 H 0.41697 0.44568 0.88216 0.0
C926 C 0.41055 0.39037 0.95941 0.0
C927 C 0.39782 0.39181 0.96496 0.0
C928 C 0.42115 0.40031 0.9452 0.0
C929 C 0.41945 0.41212 0.93658 0.0
C930 C 0.40642 0.41322 0.94158 0.0
C931 C 0.39568 0.40313 0.95559 0.0
C932 C 0.43139 0.42351 0.92271 0.0
C933 C 0.42677 0.42608 0.90377 0.0
C934 C 0.44727 0.43162 0.9279 0.0
C935 C 0.45283 0.43031 0.94819 0.0
C936 C 0.44661 0.43295 0.96574 0.0
C937 C 0.45161 0.43132 0.9848 0.0
C938 C 0.46301 0.42729 0.98653 0.0
C939 C 0.46943 0.42488 0.96918 0.0
C940 C 0.46439 0.42639 0.95007 0.0
C941 C 0.47362 0.47735 0.85865 0.0
C942 C 0.48354 0.47351 0.84867 0.0
C943 C 0.4645 0.46834 0.87464 0.0
C944 C 0.46515 0.45534 0.88079 0.0
C945 C 0.47586 0.45212 0.87173 0.0
C946 C 0.48491 0.46108 0.85561 0.0
C947 C 0.45343 0.44416 0.8949 0.0
C948 C 0.45809 0.44166 0.91378 0.0
C949 C 0.43759 0.43623 0.88978 0.0
C950 C 0.43208 0.43819 0.86979 0.0
C951 C 0.43766 0.43522 0.85187 0.0
C952 C 0.43291 0.4377 0.83309 0.0
C953 C 0.42243 0.44297 0.83202 0.0
C954 C 0.41664 0.44571 0.84974 0.0
C955 C 0.42141 0.44331 0.86857 0.0
H956 H 0.41878 0.4449 0.81746 0.0
H957 H 0.46689 0.42606 1.0013 0.0
H958 H 0.63909 0.03835 0.97707 0.0
H959 H 0.62182 0.03907 0.95153 0.0
H960 H 0.61005 0.99369 0.93154 0.0
H961 H 0.62738 0.99292 0.95701 0.0
H962 H 0.61516 0.0131 0.8999 0.0
H963 H 0.58587 0.9986 0.96149 0.0
H964 H 0.58106 1.00149 0.99728 0.0
H965 H 0.58402 0.04464 0.98408 0.0
H966 H 0.58909 0.04212 0.94824 0.0
H967 H 0.54983 0.9926 0.84213 0.0
H968 H 0.56562 0.99297 0.87049 0.0
H969 H 0.57502 0.03839 0.88667 0.0
H970 H 0.55885 0.03789 0.85831 0.0
H971 H 0.57172 0.02048 0.92032 0.0
H972 H 0.60032 0.0347 0.85858 0.0
H973 H 0.60479 0.03167 0.8227 0.0
H974 H 0.60333 0.98925 0.83617 0.0
H975 H 0.59857 0.99188 0.8721 0.0
C976 C 0.6329 0.02856 0.96715 0.0
C977 C 0.63456 0.01556 0.96907 0.0
C978 C 0.62297 0.02896 0.95264 0.0
C979 C 0.61449 0.01635 0.93981 0.0
C980 C 0.61645 1.00352 0.94133 0.0
C981 C 0.62635 1.00309 0.95589 0.0
C982 C 0.60348 0.01647 0.92489 0.0
C983 C 0.60557 0.01454 0.90439 0.0
C984 C 0.59121 0.01878 0.93071 0.0
C985 C 0.58803 0.02025 0.95222 0.0
C986 C 0.58562 0.00877 0.96625 0.0
C987 C 0.58283 0.01033 0.98654 0.0
C988 C 0.58228 0.02326 0.99297 0.0
C989 C 0.58447 0.03464 0.97909 0.0
C990 C 0.5873 0.03315 0.95878 0.0
C991 C 0.55503 1.00254 0.852 0.0
C992 C 0.55327 0.01527 0.84803 0.0
C993 C 0.56408 1.00277 0.86813 0.0
C994 C 0.57179 0.01585 0.8804 0.0
C995 C 0.56925 0.02822 0.87729 0.0
C996 C 0.56002 0.02793 0.86117 0.0
C997 C 0.58331 0.0169 0.89538 0.0
C998 C 0.58135 0.0191 0.91584 0.0
C999 C 0.59576 0.01489 0.88955 0.0
C1000 C 0.59897 0.01343 0.86802 0.0
C1001 C 0.60087 0.02468 0.85388 0.0
C1002 C 0.60345 0.02303 0.83353 0.0
C1003 C 0.60431 0.01026 0.82715 0.0
C1004 C 0.60264 0.99913 0.84113 0.0
C1005 C 0.60001 1.0007 0.86149 0.0
H1006 H 0.6063 0.009 0.81139 0.0
H1007 H 0.58011 0.02445 0.00868 0.0
H1008 H 0.60987 1.00086 0.04241 0.0
H1009 H 0.59192 1.00136 0.06678 0.0
H1010 H 0.62916 0.02504 0.10942 0.0
H1011 H 0.64731 0.02511 0.08464 0.0
H1012 H 0.58249 0.98875 0.10068 0.0
H1013 H 0.62215 0.04678 0.14156 0.0
H1014 H 0.64387 0.07251 0.13347 0.0
H1015 H 0.62981 0.06638 0.07128 0.0
H1016 H 0.60789 0.04071 0.07904 0.0
H1017 H 0.55332 0.98833 0.19597 0.0
H1018 H 0.5693 0.99097 0.16705 0.0
H1019 H 0.56325 0.02769 0.14401 0.0
H1020 H 0.54787 0.02572 0.1739 0.0
H1021 H 0.59213 0.03492 0.13942 0.0
H1022 H 0.54416 0.99125 0.12263 0.0
H1023 H 0.52065 0.96617 0.12783 0.0
H1024 H 0.54813 0.94487 0.13601 0.0
H1025 H 0.57182 0.96986 0.13114 0.0
C1026 C 0.61425 0.00623 0.05696 0.0
C1027 C 0.63 0.01293 0.06164 0.0
C1028 C 0.60396 0.0065 0.0709 0.0
C1029 C 0.60914 0.01336 0.08994 0.0
C1030 C 0.62489 0.01997 0.0947 0.0
C1031 C 0.63525 0.01991 0.0806 0.0
C1032 C 0.59793 0.013 0.105 0.0
C1033 C 0.58461 0.99888 0.10906 0.0
C1034 C 0.60038 0.02626 0.11564 0.0
C1035 C 0.61346 0.04176 0.11087 0.0
C1036 C 0.62365 0.05095 0.12618 0.0
C1037 C 0.63601 0.06552 0.12165 0.0
C1038 C 0.63825 0.07106 0.10187 0.0
C1039 C 0.6281 0.06206 0.08658 0.0
C1040 C 0.61572 0.04749 0.09104 0.0
C1041 C 0.55549 0.99711 0.18491 0.0
C1042 C 0.54943 0.00694 0.18741 0.0
C1043 C 0.56448 0.99846 0.16818 0.0
C1044 C 0.56733 0.00938 0.15314 0.0
C1045 C 0.56118 0.01914 0.15539 0.0
C1046 C 0.55226 0.01791 0.17237 0.0
C1047 C 0.57697 0.01061 0.13538 0.0
C1048 C 0.58998 0.02485 0.13086 0.0
C1049 C 0.574 0.99756 0.12383 0.0
C1050 C 0.55977 0.98245 0.12663 0.0
C1051 C 0.54519 0.98123 0.12566 0.0
C1052 C 0.53184 0.96703 0.12853 0.0
C1053 C 0.5329 0.95394 0.13228 0.0
C1054 C 0.54733 0.95502 0.13311 0.0
C1055 C 0.56072 0.96919 0.13026 0.0
H1056 H 0.52255 0.94295 0.13451 0.0
H1057 H 0.64783 0.08234 0.09839 0.0
H1058 H 0.98678 0.601 0.0498 0.0
H1059 H 0.98623 0.58329 0.07564 0.0
H1060 H 0.0184 0.62177 0.11184 0.0
H1061 H 0.01889 0.63953 0.08622 0.0
H1062 H 0.02737 0.59968 0.1041 0.0
H1063 H 0.98255 0.60171 0.12683 0.0
H1064 H 0.95687 0.59897 0.12265 0.0
H1065 H 0.93785 0.55141 0.10724 0.0
H1066 H 0.96348 0.55392 0.11106 0.0
H1067 H 0.03101 0.57086 0.1977 0.0
H1068 H 0.02722 0.58383 0.16933 0.0
H1069 H 0.99042 0.54055 0.14713 0.0
H1070 H 0.99365 0.52742 0.17645 0.0
H1071 H 0.98248 0.56211 0.1443 0.0
H1072 H 0.02581 0.55867 0.12366 0.0
H1073 H 0.05118 0.56051 0.12659 0.0
H1074 H 0.07274 0.60922 0.13558 0.0
H1075 H 0.04747 0.60766 0.13299 0.0
C1076 C 0.99351 0.60569 0.06344 0.0
C1077 C 1.00289 0.62166 0.06599 0.0
C1078 C 0.99319 0.59555 0.07817 0.0
C1079 C 1.00231 0.60123 0.09561 0.0
C1080 C 0.0113 0.61717 0.09846 0.0
C1081 C 0.0115 0.6273 0.08386 0.0
C1082 C 1.0033 0.59064 0.11032 0.0
C1083 C 0.0176 0.59156 0.11305 0.0
C1084 C 0.99037 0.57956 0.12125 0.0
C1085 C 0.97497 0.57805 0.119 0.0
C1086 C 0.97292 0.5907 0.12236 0.0
C1087 C 0.95837 0.58918 0.1201 0.0
C1088 C 0.94574 0.57504 0.11462 0.0
C1089 C 0.94764 0.56237 0.11145 0.0
C1090 C 0.96218 0.56383 0.11367 0.0
C1091 C 0.022 0.56403 0.18692 0.0
C1092 C 0.01253 0.54808 0.1895 0.0
C1093 C 0.01998 0.57148 0.1705 0.0
C1094 C 1.00869 0.56317 0.15587 0.0
C1095 C 0.99926 0.5472 0.15819 0.0
C1096 C 1.0012 0.53969 0.17484 0.0
C1097 C 1.00671 0.57147 0.13857 0.0
C1098 C 0.99223 0.57009 0.13523 0.0
C1099 C 0.01944 0.58199 0.12678 0.0
C1100 C 0.03471 0.58303 0.12825 0.0
C1101 C 0.03594 0.56977 0.12639 0.0
C1102 C 0.05031 0.57076 0.12797 0.0
C1103 C 0.06356 0.58497 0.1313 0.0
C1104 C 0.06247 0.59822 0.133 0.0
C1105 C 0.04813 0.59729 0.13145 0.0
H1106 H 0.07467 0.58571 0.13252 0.0
H1107 H 0.93448 0.57388 0.11288 0.0
H1108 H 0.39933 0.4161 0.04801 0.0
H1109 H 0.41726 0.43361 0.0734 0.0
H1110 H 0.41941 0.39595 0.10108 0.0
H1111 H 0.4013 0.37831 0.07582 0.0
H1112 H 0.41632 0.41332 0.12901 0.0
H1113 H 0.44884 0.42254 0.07153 0.0
H1114 H 0.45758 0.42916 0.0363 0.0
H1115 H 0.46135 0.47328 0.04375 0.0
H1116 H 0.4524 0.46683 0.07897 0.0
H1117 H 0.47988 0.45331 0.192 0.0
H1118 H 0.46467 0.4384 0.16299 0.0
H1119 H 0.46167 0.47735 0.14195 0.0
H1120 H 0.4771 0.49246 0.17113 0.0
H1121 H 0.46506 0.46037 0.11042 0.0
H1122 H 0.43288 0.45106 0.16829 0.0
H1123 H 0.42552 0.44474 0.20401 0.0
H1124 H 0.4216 0.40062 0.19577 0.0
H1125 H 0.42922 0.40679 0.16007 0.0
C1126 C 0.4036 0.41153 0.05953 0.0
C1127 C 0.3989 0.39581 0.05992 0.0
C1128 C 0.41393 0.42159 0.07396 0.0
C1129 C 0.41986 0.41616 0.08901 0.0
C1130 C 0.41503 0.40042 0.08958 0.0
C1131 C 0.40469 0.39035 0.07514 0.0
C1132 C 0.43084 0.42681 0.10442 0.0
C1133 C 0.42705 0.42349 0.1249 0.0
C1134 C 0.44467 0.44035 0.09911 0.0
C1135 C 0.44979 0.44414 0.07783 0.0
C1136 C 0.45137 0.43359 0.06559 0.0
C1137 C 0.4564 0.43733 0.04564 0.0
C1138 C 0.46001 0.45163 0.03778 0.0
C1139 C 0.45854 0.4622 0.04985 0.0
C1140 C 0.4535 0.45852 0.06981 0.0
C1141 C 0.47618 0.45878 0.18101 0.0
C1142 C 0.47949 0.47396 0.1839 0.0
C1143 C 0.46748 0.45024 0.16448 0.0
C1144 C 0.46176 0.45666 0.15056 0.0
C1145 C 0.46591 0.47217 0.15261 0.0
C1146 C 0.47473 0.48079 0.1692 0.0
C1147 C 0.45058 0.44674 0.13488 0.0
C1148 C 0.45428 0.45021 0.11443 0.0
C1149 C 0.43666 0.43332 0.14017 0.0
C1150 C 0.43175 0.42944 0.16153 0.0
C1151 C 0.43054 0.44005 0.17412 0.0
C1152 C 0.42632 0.43649 0.19437 0.0
C1153 C 0.42312 0.4223 0.20216 0.0
C1154 C 0.42409 0.41162 0.18971 0.0
C1155 C 0.42836 0.41513 0.16946 0.0
H1156 H 0.41987 0.41958 0.21785 0.0
H1157 H 0.46399 0.45455 0.02237 0.0
H1158 H 0.65403 0.71693 0.40183 0.0
H1159 H 0.65391 0.73458 0.42728 0.0
H1160 H 0.70349 0.76156 0.42441 0.0
H1161 H 0.70369 0.74407 0.39891 0.0
H1162 H 0.6925 0.75576 0.46357 0.0
H1163 H 0.68325 0.77448 0.40149 0.0
H1164 H 0.66976 0.77236 0.36945 0.0
H1165 H 0.62787 0.75904 0.40185 0.0
H1166 H 0.64107 0.76086 0.43408 0.0
H1167 H 0.69325 0.82719 0.50288 0.0
H1168 H 0.69192 0.81125 0.47401 0.0
H1169 H 0.66336 0.77038 0.50855 0.0
H1170 H 0.66398 0.78607 0.53701 0.0
H1171 H 0.66518 0.78479 0.45238 0.0
H1172 H 0.68295 0.74921 0.50219 0.0
H1173 H 0.69817 0.75188 0.53279 0.0
H1174 H 0.72518 0.80056 0.52334 0.0
H1175 H 0.71032 0.79815 0.4925 0.0
C1176 C 0.6649 0.72658 0.40671 0.0
C1177 C 0.67887 0.72912 0.3984 0.0
C1178 C 0.66481 0.7367 0.42115 0.0
C1179 C 0.67868 0.74944 0.4276 0.0
C1180 C 0.69265 0.75181 0.41961 0.0
C1181 C 0.69274 0.74181 0.40504 0.0
C1182 C 0.67871 0.76028 0.44283 0.0
C1183 C 0.68649 0.76207 0.46112 0.0
C1184 C 0.67105 0.76868 0.43952 0.0
C1185 C 0.66311 0.76766 0.42018 0.0
C1186 C 0.67113 0.77098 0.40177 0.0
C1187 C 0.66354 0.76985 0.38358 0.0
C1188 C 0.64795 0.76553 0.38361 0.0
C1189 C 0.63994 0.76236 0.40185 0.0
C1190 C 0.64747 0.76345 0.42008 0.0
C1191 C 0.6863 0.81482 0.50412 0.0
C1192 C 0.67894 0.80793 0.52241 0.0
C1193 C 0.68563 0.80574 0.48766 0.0
C1194 C 0.67775 0.78967 0.48934 0.0
C1195 C 0.66967 0.78277 0.50709 0.0
C1196 C 0.67012 0.79178 0.52337 0.0
C1197 C 0.67876 0.78003 0.47318 0.0
C1198 C 0.67113 0.77843 0.45479 0.0
C1199 C 0.68665 0.77186 0.47632 0.0
C1200 C 0.6954 0.77351 0.49515 0.0
C1201 C 0.69215 0.76048 0.50664 0.0
C1202 C 0.70076 0.76194 0.52397 0.0
C1203 C 0.71268 0.77637 0.52995 0.0
C1204 C 0.71596 0.78939 0.51868 0.0
C1205 C 0.70741 0.78799 0.5013 0.0
H1206 H 0.71931 0.77748 0.54341 0.0
H1207 H 0.6421 0.76467 0.36951 0.0
H1208 H 0.27423 0.95936 0.38309 0.0
H1209 H 0.25699 0.94197 0.40895 0.0
H1210 H 0.29516 0.9406 0.43684 0.0
H1211 H 0.3125 0.9579 0.41073 0.0
H1212 H 0.27006 0.9122 0.43409 0.0
H1213 H 0.28063 0.96175 0.45733 0.0
H1214 H 0.28232 0.98697 0.45444 0.0
H1215 H 0.2337 0.96478 0.4427 0.0
H1216 H 0.23176 0.93942 0.44524 0.0
H1217 H 0.23869 0.88334 0.53027 0.0
H1218 H 0.25355 0.89831 0.50126 0.0
H1219 H 0.21307 0.8971 0.47682 0.0
H1220 H 0.19812 0.88231 0.50631 0.0
H1221 H 0.238 0.92598 0.47637 0.0
H1222 H 0.22723 0.87628 0.45493 0.0
H1223 H 0.22566 0.85114 0.45809 0.0
H1224 H 0.27466 0.87355 0.46667 0.0
H1225 H 0.2765 0.89885 0.46384 0.0
C1226 C 0.27898 0.95541 0.39476 0.0
C1227 C 0.29475 0.96005 0.39492 0.0
C1228 C 0.26911 0.9455 0.40958 0.0
C1229 C 0.27479 0.9401 0.42498 0.0
C1230 C 0.29052 0.94464 0.42512 0.0
C1231 C 0.30043 0.95457 0.41025 0.0
C1232 C 0.26428 0.92962 0.44081 0.0
C1233 C 0.26319 0.91528 0.4435 0.0
C1234 C 0.25495 0.93345 0.45268 0.0
C1235 C 0.25608 0.94869 0.45127 0.0
C1236 C 0.27032 0.96225 0.45398 0.0
C1237 C 0.27132 0.97657 0.45243 0.0
C1238 C 0.25813 0.97748 0.44833 0.0
C1239 C 0.24391 0.96406 0.44584 0.0
C1240 C 0.24285 0.94971 0.44735 0.0
C1241 C 0.2329 0.88616 0.51865 0.0
C1242 C 0.21724 0.8817 0.5206 0.0
C1243 C 0.24139 0.89463 0.502 0.0
C1244 C 0.23441 0.89874 0.48676 0.0
C1245 C 0.21868 0.89402 0.48839 0.0
C1246 C 0.21012 0.88548 0.50513 0.0
C1247 C 0.24386 0.90859 0.46975 0.0
C1248 C 0.24477 0.92283 0.46685 0.0
C1249 C 0.25303 0.90467 0.45771 0.0
C1250 C 0.25198 0.88947 0.45932 0.0
C1251 C 0.23766 0.87586 0.45764 0.0
C1252 C 0.23672 0.86157 0.45935 0.0
C1253 C 0.25005 0.86075 0.46262 0.0
C1254 C 0.26434 0.87421 0.46415 0.0
C1255 C 0.26534 0.88852 0.46246 0.0
H1256 H 0.2493 0.84968 0.46394 0.0
H1257 H 0.25893 0.98857 0.44714 0.0
H1258 H 0.08804 0.37088 0.38057 0.0
H1259 H 0.1065 0.37313 0.40653 0.0
H1260 H 0.06919 0.33885 0.44235 0.0
H1261 H 0.05072 0.33673 0.41667 0.0
H1262 H 0.08957 0.36162 0.46571 0.0
H1263 H 0.09155 0.32987 0.41241 0.0
H1264 H 0.09514 0.32415 0.37729 0.0
H1265 H 0.14143 0.36234 0.37774 0.0
H1266 H 0.13804 0.36841 0.41284 0.0
H1267 H 0.1195 0.32605 0.52575 0.0
H1268 H 0.10699 0.33162 0.49821 0.0
H1269 H 0.15056 0.37038 0.48069 0.0
H1270 H 0.16327 0.36517 0.50894 0.0
H1271 H 0.1307 0.35013 0.4475 0.0
H1272 H 0.12905 0.3799 0.50281 0.0
H1273 H 0.1247 0.38504 0.53787 0.0
H1274 H 0.07723 0.3496 0.53365 0.0
H1275 H 0.0813 0.3442 0.49856 0.0
C1276 C 0.08377 0.36397 0.39411 0.0
C1277 C 0.06792 0.35359 0.39657 0.0
C1278 C 0.09434 0.3652 0.40886 0.0
C1279 C 0.08927 0.356 0.42627 0.0
C1280 C 0.0734 0.34605 0.42905 0.0
C1281 C 0.06284 0.34483 0.41434 0.0
C1282 C 0.10038 0.35632 0.44142 0.0
C1283 C 0.09852 0.35906 0.46171 0.0
C1284 C 0.11237 0.3534 0.43616 0.0
C1285 C 0.11449 0.34969 0.41516 0.0
C1286 C 0.10246 0.33711 0.40498 0.0
C1287 C 0.10446 0.33379 0.38509 0.0
C1288 C 0.11849 0.3429 0.37528 0.0
C1289 C 0.13056 0.35532 0.38536 0.0
C1290 C 0.12861 0.35869 0.40525 0.0
C1291 C 0.12648 0.33585 0.51618 0.0
C1292 C 0.14237 0.34534 0.51984 0.0
C1293 C 0.11929 0.33896 0.50036 0.0
C1294 C 0.1278 0.35153 0.48761 0.0
C1295 C 0.14379 0.36065 0.49047 0.0
C1296 C 0.15103 0.35762 0.50654 0.0
C1297 C 0.11961 0.35509 0.47175 0.0
C1298 C 0.12196 0.35301 0.45139 0.0
C1299 C 0.10799 0.35854 0.47691 0.0
C1300 C 0.10551 0.3616 0.49809 0.0
C1301 C 0.11771 0.37313 0.5094 0.0
C1302 C 0.11528 0.37613 0.52926 0.0
C1303 C 0.1007 0.36766 0.53798 0.0
C1304 C 0.08851 0.35617 0.52686 0.0
C1305 C 0.09086 0.35317 0.50697 0.0
H1306 H 0.09884 0.36999 0.55336 0.0
H1307 H 0.12002 0.3403 0.35989 0.0
H1308 H 0.07013 0.32528 0.32008 0.0
H1309 H 0.08883 0.32647 0.29535 0.0
H1310 H 0.07681 0.3526 0.25523 0.0
H1311 H 0.05801 0.3513 0.27977 0.0
H1312 H 0.08002 0.33114 0.23493 0.0
H1313 H 0.10888 0.37001 0.28524 0.0
H1314 H 0.11756 0.37929 0.31993 0.0
H1315 H 0.13679 0.34976 0.32498 0.0
H1316 H 0.128 0.34012 0.29041 0.0
H1317 H 0.14223 0.36737 0.16935 0.0
H1318 H 0.12611 0.36494 0.19827 0.0
H1319 H 0.13835 0.33409 0.22691 0.0
H1320 H 0.15418 0.33605 0.19757 0.0
H1321 H 0.13521 0.35554 0.25414 0.0
H1322 H 0.10887 0.31889 0.20217 0.0
H1323 H 0.10025 0.30972 0.16751 0.0
H1324 H 0.07497 0.33369 0.16603 0.0
H1325 H 0.08428 0.34388 0.2002 0.0
C1326 C 0.07134 0.33111 0.30588 0.0
C1327 C 0.06262 0.33823 0.30188 0.0
C1328 C 0.08211 0.33187 0.29182 0.0
C1329 C 0.08439 0.33982 0.27355 0.0
C1330 C 0.07528 0.34644 0.26924 0.0
C1331 C 0.06454 0.34569 0.28328 0.0
C1332 C 0.09648 0.34159 0.25904 0.0
C1333 C 0.0921 0.33661 0.23908 0.0
C1334 C 0.1122 0.34829 0.26463 0.0
C1335 C 0.11764 0.35422 0.28532 0.0
C1336 C 0.11486 0.36541 0.2938 0.0
C1337 C 0.11981 0.37075 0.31343 0.0
C1338 C 0.12768 0.36509 0.32467 0.0
C1339 C 0.13066 0.35412 0.31627 0.0
C1340 C 0.12571 0.34871 0.29666 0.0
C1341 C 0.14171 0.36026 0.18194 0.0
C1342 C 0.14923 0.35165 0.18099 0.0
C1343 C 0.13253 0.35892 0.19847 0.0
C1344 C 0.13082 0.34912 0.21453 0.0
C1345 C 0.13948 0.34167 0.2146 0.0
C1346 C 0.14858 0.34286 0.19787 0.0
C1347 C 0.11876 0.34547 0.22995 0.0
C1348 C 0.12312 0.35001 0.25004 0.0
C1349 C 0.10299 0.33833 0.22448 0.0
C1350 C 0.09754 0.3324 0.20371 0.0
C1351 C 0.10178 0.32253 0.19432 0.0
C1352 C 0.09679 0.31717 0.17471 0.0
C1353 C 0.08722 0.32127 0.16447 0.0
C1354 C 0.08258 0.33071 0.17386 0.0
C1355 C 0.08779 0.33637 0.19331 0.0
H1356 H 0.0833 0.31705 0.14933 0.0
H1357 H 0.13149 0.36923 0.33987 0.0
H1358 H 0.65245 0.71825 0.30516 0.0
H1359 H 0.651 0.73442 0.27867 0.0
H1360 H 0.70035 0.75755 0.27164 0.0
H1361 H 0.70188 0.74119 0.298 0.0
H1362 H 0.68718 0.77753 0.27447 0.0
H1363 H 0.68087 0.73351 0.23744 0.0
H1364 H 0.66914 0.70582 0.23043 0.0
H1365 H 0.62491 0.70215 0.22277 0.0
H1366 H 0.63637 0.72982 0.23 0.0
H1367 H 0.6933 0.81644 0.18225 0.0
H1368 H 0.69492 0.80195 0.21089 0.0
H1369 H 0.64587 0.77055 0.20695 0.0
H1370 H 0.64452 0.78464 0.17752 0.0
H1371 H 0.659 0.75481 0.21055 0.0
H1372 H 0.6646 0.79853 0.24681 0.0
H1373 H 0.67568 0.82604 0.25466 0.0
H1374 H 0.71988 0.83026 0.26515 0.0
H1375 H 0.70913 0.80283 0.25709 0.0
C1376 C 0.663 0.72674 0.29794 0.0
C1377 C 0.67728 0.72843 0.30359 0.0
C1378 C 0.66215 0.73596 0.28282 0.0
C1379 C 0.67557 0.74715 0.2732 0.0
C1380 C 0.68987 0.74898 0.27892 0.0
C1381 C 0.69071 0.73959 0.29387 0.0
C1382 C 0.67456 0.75681 0.25706 0.0
C1383 C 0.68119 0.77265 0.26036 0.0
C1384 C 0.66635 0.75031 0.23897 0.0
C1385 C 0.65945 0.73371 0.23445 0.0
C1386 C 0.66862 0.72678 0.23442 0.0
C1387 C 0.66203 0.71109 0.23037 0.0
C1388 C 0.64628 0.70223 0.2262 0.0
C1389 C 0.63711 0.70904 0.22602 0.0
C1390 C 0.64365 0.72472 0.23007 0.0
C1391 C 0.68285 0.80663 0.18786 0.0
C1392 C 0.66875 0.80172 0.17801 0.0
C1393 C 0.68375 0.79836 0.20425 0.0
C1394 C 0.67048 0.78522 0.21138 0.0
C1395 C 0.65628 0.78062 0.20181 0.0
C1396 C 0.65545 0.78872 0.18515 0.0
C1397 C 0.67155 0.7757 0.22786 0.0
C1398 C 0.66494 0.75981 0.22464 0.0
C1399 C 0.67963 0.78216 0.24614 0.0
C1400 C 0.68608 0.79864 0.25117 0.0
C1401 C 0.67671 0.80534 0.25066 0.0
C1402 C 0.68293 0.82092 0.25516 0.0
C1403 C 0.69848 0.82989 0.26034 0.0
C1404 C 0.70784 0.8233 0.26111 0.0
C1405 C 0.70168 0.80773 0.2566 0.0
H1406 H 0.70329 0.84195 0.26378 0.0
H1407 H 0.64121 0.69009 0.22303 0.0
H1408 H 0.31101 0.94854 0.29726 0.0
H1409 H 0.29432 0.9299 0.27179 0.0
H1410 H 0.2642 0.94885 0.27365 0.0
H1411 H 0.28106 0.96779 0.29884 0.0
H1412 H 0.24946 0.91488 0.27731 0.0
H1413 H 0.28466 0.95744 0.23543 0.0
H1414 H 0.31039 0.97725 0.22377 0.0
H1415 H 0.3211 0.9423 0.20796 0.0
H1416 H 0.29549 0.92227 0.21983 0.0
H1417 H 0.20293 0.87899 0.19063 0.0
H1418 H 0.21853 0.89518 0.21873 0.0
H1419 H 0.255 0.88623 0.20268 0.0
H1420 H 0.23959 0.87064 0.17402 0.0
H1421 H 0.26676 0.91498 0.20716 0.0
H1422 H 0.23254 0.87225 0.24768 0.0
H1423 H 0.20762 0.8516 0.26044 0.0
H1424 H 0.19586 0.88504 0.2802 0.0
H1425 H 0.22063 0.9059 0.2673 0.0
C1426 C 0.3009 0.94881 0.29212 0.0
C1427 C 0.29734 0.95964 0.29996 0.0
C1428 C 0.29138 0.93816 0.27761 0.0
C1429 C 0.27803 0.938 0.27091 0.0
C1430 C 0.27445 0.94879 0.27869 0.0
C1431 C 0.28412 0.95965 0.29295 0.0
C1432 C 0.26781 0.92648 0.25584 0.0
C1433 C 0.2531 0.91495 0.26187 0.0
C1434 C 0.27285 0.92635 0.23598 0.0
C1435 C 0.28822 0.93837 0.22873 0.0
C1436 C 0.29255 0.95398 0.22965 0.0
C1437 C 0.3071 0.96525 0.22296 0.0
C1438 C 0.31739 0.96104 0.21518 0.0
C1439 C 0.31312 0.94554 0.21402 0.0
C1440 C 0.29859 0.93423 0.22071 0.0
C1441 C 0.21409 0.88015 0.19356 0.0
C1442 C 0.22004 0.87346 0.18046 0.0
C1443 C 0.22303 0.88941 0.20959 0.0
C1444 C 0.23796 0.89189 0.213 0.0
C1445 C 0.24356 0.88455 0.2004 0.0
C1446 C 0.23472 0.87552 0.18417 0.0
C1447 C 0.24822 0.90316 0.2285 0.0
C1448 C 0.263 0.91473 0.22258 0.0
C1449 C 0.24332 0.90315 0.24857 0.0
C1450 C 0.22839 0.89064 0.25635 0.0
C1451 C 0.22459 0.8752 0.2546 0.0
C1452 C 0.2105 0.86346 0.26188 0.0
C1453 C 0.20014 0.86701 0.27107 0.0
C1454 C 0.20388 0.88231 0.27305 0.0
C1455 C 0.21796 0.8941 0.26578 0.0
H1456 H 0.18924 0.8579 0.2767 0.0
H1457 H 0.32866 0.96978 0.21002 0.0
H1458 H 0.70273 0.97725 0.28372 0.0
H1459 H 0.70439 0.96059 0.25811 0.0
H1460 H 0.66437 0.92149 0.28351 0.0
H1461 H 0.66272 0.93804 0.30923 0.0
H1462 H 0.68692 0.91488 0.27531 0.0
H1463 H 0.66147 0.93788 0.24048 0.0
H1464 H 0.65836 0.95926 0.22807 0.0
H1465 H 0.70043 0.97689 0.19445 0.0
H1466 H 0.7039 0.95572 0.20689 0.0
H1467 H 0.666 0.86225 0.19297 0.0
H1468 H 0.66842 0.87886 0.22139 0.0
H1469 H 0.70556 0.91759 0.19077 0.0
H1470 H 0.70269 0.90105 0.16203 0.0
H1471 H 0.68569 0.92491 0.20222 0.0
H1472 H 0.71038 0.90072 0.23572 0.0
H1473 H 0.713 0.87902 0.24803 0.0
H1474 H 0.67227 0.86332 0.28404 0.0
H1475 H 0.66928 0.88479 0.27174 0.0
C1476 C 0.69424 0.96512 0.28377 0.0
C1477 C 0.68255 0.95897 0.29842 0.0
C1478 C 0.6952 0.95561 0.26913 0.0
C1479 C 0.68445 0.93979 0.26882 0.0
C1480 C 0.6728 0.93364 0.28348 0.0
C1481 C 0.67182 0.94314 0.29809 0.0
C1482 C 0.68528 0.92966 0.25317 0.0
C1483 C 0.68652 0.91697 0.25931 0.0
C1484 C 0.68511 0.93259 0.23231 0.0
C1485 C 0.68303 0.94531 0.22479 0.0
C1486 C 0.67012 0.94639 0.23058 0.0
C1487 C 0.66828 0.95845 0.22351 0.0
C1488 C 0.67921 0.96945 0.21053 0.0
C1489 C 0.69199 0.96838 0.20454 0.0
C1490 C 0.69389 0.95635 0.21158 0.0
C1491 C 0.67496 0.87422 0.19262 0.0
C1492 C 0.68418 0.88039 0.17539 0.0
C1493 C 0.67635 0.88373 0.20886 0.0
C1494 C 0.68724 0.89953 0.20834 0.0
C1495 C 0.69704 0.90548 0.19154 0.0
C1496 C 0.69547 0.89603 0.17519 0.0
C1497 C 0.68743 0.91007 0.22426 0.0
C1498 C 0.68629 0.92285 0.21819 0.0
C1499 C 0.6877 0.90719 0.24516 0.0
C1500 C 0.68954 0.89431 0.25267 0.0
C1501 C 0.70192 0.89258 0.24615 0.0
C1502 C 0.70348 0.88033 0.25315 0.0
C1503 C 0.69279 0.86978 0.26678 0.0
C1504 C 0.68054 0.87149 0.27348 0.0
C1505 C 0.67892 0.88371 0.26652 0.0
H1506 H 0.69401 0.86032 0.2722 0.0
H1507 H 0.67777 0.97878 0.20507 0.0
H1508 H 0.07821 0.71768 0.29962 0.0
H1509 H 0.09532 0.73492 0.27356 0.0
H1510 H 0.07231 0.76135 0.27663 0.0
H1511 H 0.05472 0.74369 0.3022 0.0
H1512 H 0.0779 0.75884 0.23924 0.0
H1513 H 0.10869 0.77388 0.2987 0.0
H1514 H 0.12053 0.77057 0.32953 0.0
H1515 H 0.14453 0.75354 0.29402 0.0
H1516 H 0.13266 0.75653 0.26299 0.0
H1517 H 0.1397 0.82082 0.18323 0.0
H1518 H 0.12316 0.80708 0.21227 0.0
H1519 H 0.13251 0.77011 0.20333 0.0
H1520 H 0.14871 0.7836 0.17422 0.0
H1521 H 0.13442 0.78072 0.24525 0.0
H1522 H 0.10087 0.76412 0.18608 0.0
H1523 H 0.08911 0.7686 0.156 0.0
H1524 H 0.07104 0.79101 0.19277 0.0
H1525 H 0.08279 0.78676 0.22306 0.0
C1526 C 0.07677 0.72714 0.29471 0.0
C1527 C 0.06517 0.72937 0.30301 0.0
C1528 C 0.08664 0.73708 0.27989 0.0
C1529 C 0.08538 0.74969 0.27339 0.0
C1530 C 0.07359 0.75177 0.28143 0.0
C1531 C 0.06356 0.74168 0.29606 0.0
C1532 C 0.09626 0.76056 0.25807 0.0
C1533 C 0.09026 0.76382 0.24079 0.0
C1534 C 0.11245 0.76707 0.25991 0.0
C1535 C 0.11968 0.76532 0.27853 0.0
C1536 C 0.11641 0.76933 0.29748 0.0
C1537 C 0.12314 0.76752 0.31499 0.0
C1538 C 0.13325 0.76182 0.31374 0.0
C1539 C 0.13669 0.75794 0.29497 0.0
C1540 C 0.12997 0.75971 0.27741 0.0
C1541 C 0.13835 0.80986 0.1877 0.0
C1542 C 0.14545 0.80324 0.17658 0.0
C1543 C 0.12888 0.80202 0.20416 0.0
C1544 C 0.12662 0.78758 0.20987 0.0
C1545 C 0.13415 0.78125 0.19919 0.0
C1546 C 0.14335 0.78893 0.18258 0.0
C1547 C 0.11598 0.77871 0.2265 0.0
C1548 C 0.12205 0.77584 0.24395 0.0
C1549 C 0.09991 0.77277 0.22498 0.0
C1550 C 0.09285 0.77529 0.20678 0.0
C1551 C 0.09451 0.77013 0.18772 0.0
C1552 C 0.08783 0.7726 0.17065 0.0
C1553 C 0.07941 0.78015 0.17246 0.0
C1554 C 0.0776 0.7852 0.19138 0.0
C1555 C 0.08424 0.78274 0.2085 0.0
H1556 H 0.07425 0.78205 0.15923 0.0
H1557 H 0.13845 0.76043 0.32731 0.0
H1558 H 0.28781 0.35598 0.31791 0.0
H1559 H 0.26971 0.35441 0.29196 0.0
H1560 H 0.28023 0.3251 0.25609 0.0
H1561 H 0.29833 0.32652 0.28215 0.0
H1562 H 0.28135 0.34954 0.23457 0.0
H1563 H 0.24679 0.30978 0.27973 0.0
H1564 H 0.23491 0.29897 0.31269 0.0
H1565 H 0.21891 0.33122 0.31687 0.0
H1566 H 0.2309 0.34238 0.28405 0.0
H1567 H 0.22202 0.32421 0.16195 0.0
H1568 H 0.23762 0.32417 0.19024 0.0
H1569 H 0.22716 0.35465 0.22335 0.0
H1570 H 0.21191 0.35524 0.19469 0.0
H1571 H 0.2258 0.33007 0.24686 0.0
H1572 H 0.26023 0.37048 0.2039 0.0
H1573 H 0.2747 0.38459 0.17367 0.0
H1574 H 0.29233 0.35382 0.16695 0.0
H1575 H 0.27781 0.3394 0.19704 0.0
C1576 C 0.28626 0.34916 0.30452 0.0
C1577 C 0.29452 0.34139 0.30203 0.0
C1578 C 0.27583 0.34821 0.28977 0.0
C1579 C 0.27352 0.33953 0.27219 0.0
C1580 C 0.28181 0.33181 0.2696 0.0
C1581 C 0.29213 0.33263 0.28447 0.0
C1582 C 0.26294 0.33906 0.25615 0.0
C1583 C 0.26914 0.345 0.23712 0.0
C1584 C 0.24716 0.33375 0.25981 0.0
C1585 C 0.23988 0.32702 0.27951 0.0
C1586 C 0.24086 0.31466 0.28775 0.0
C1587 C 0.23408 0.30845 0.3064 0.0
C1588 C 0.22619 0.31443 0.3169 0.0
C1589 C 0.22504 0.32661 0.30874 0.0
C1590 C 0.23181 0.33287 0.2901 0.0
C1591 C 0.22302 0.33094 0.17521 0.0
C1592 C 0.2159 0.33994 0.17588 0.0
C1593 C 0.23194 0.33088 0.19138 0.0
C1594 C 0.23378 0.33964 0.20871 0.0
C1595 C 0.22595 0.34789 0.21003 0.0
C1596 C 0.21715 0.34812 0.1937 0.0
C1597 C 0.24419 0.34033 0.22515 0.0
C1598 C 0.23798 0.33449 0.24426 0.0
C1599 C 0.26005 0.34592 0.22166 0.0
C1600 C 0.26777 0.35374 0.2026 0.0
C1601 C 0.26698 0.36655 0.19579 0.0
C1602 C 0.27531 0.3747 0.17879 0.0
C1603 C 0.2845 0.37016 0.16848 0.0
C1604 C 0.28527 0.35738 0.17503 0.0
C1605 C 0.27698 0.3492 0.19204 0.0
H1606 H 0.29094 0.37648 0.15531 0.0
H1607 H 0.22095 0.30961 0.33133 0.0
H1608 H 0.30248 0.36688 0.39157 0.0
H1609 H 0.28328 0.36566 0.41534 0.0
H1610 H 0.26855 0.31815 0.42764 0.0
H1611 H 0.28724 0.31915 0.40311 0.0
H1612 H 0.24452 0.32053 0.42417 0.0
H1613 H 0.29154 0.3491 0.46144 0.0
H1614 H 0.3182 0.36984 0.46781 0.0
H1615 H 0.30409 0.40346 0.46161 0.0
H1616 H 0.27738 0.38291 0.45494 0.0
H1617 H 0.20978 0.31478 0.52086 0.0
H1618 H 0.22527 0.31566 0.49175 0.0
H1619 H 0.22897 0.35836 0.47284 0.0
H1620 H 0.21318 0.35733 0.50183 0.0
H1621 H 0.25764 0.35921 0.47833 0.0
H1622 H 0.20945 0.32887 0.44402 0.0
H1623 H 0.18302 0.3071 0.43979 0.0
H1624 H 0.19985 0.27549 0.44323 0.0
H1625 H 0.22637 0.29706 0.44778 0.0
C1626 C 0.29524 0.35622 0.3995 0.0
C1627 C 0.29641 0.34313 0.39559 0.0
C1628 C 0.28428 0.35554 0.41314 0.0
C1629 C 0.27454 0.34186 0.42356 0.0
C1630 C 0.27587 0.32883 0.4198 0.0
C1631 C 0.28662 0.32944 0.40588 0.0
C1632 C 0.26277 0.34101 0.43806 0.0
C1633 C 0.24747 0.32891 0.43615 0.0
C1634 C 0.26644 0.35209 0.45348 0.0
C1635 C 0.2825 0.36447 0.45748 0.0
C1636 C 0.29415 0.36092 0.46128 0.0
C1637 C 0.30926 0.37264 0.46497 0.0
C1638 C 0.31284 0.38796 0.46505 0.0
C1639 C 0.30131 0.39159 0.4615 0.0
C1640 C 0.28618 0.37991 0.45778 0.0
C1641 C 0.21351 0.32408 0.5101 0.0
C1642 C 0.21022 0.33592 0.51339 0.0
C1643 C 0.22237 0.3246 0.49354 0.0
C1644 C 0.22827 0.33708 0.48016 0.0
C1645 C 0.22448 0.34862 0.48298 0.0
C1646 C 0.21538 0.34797 0.49939 0.0
C1647 C 0.23954 0.33872 0.46447 0.0
C1648 C 0.25473 0.35094 0.46622 0.0
C1649 C 0.23583 0.32759 0.44919 0.0
C1650 C 0.21989 0.31459 0.44641 0.0
C1651 C 0.20751 0.31727 0.44405 0.0
C1652 C 0.19251 0.30497 0.44156 0.0
C1653 C 0.18975 0.28992 0.44129 0.0
C1654 C 0.202 0.28715 0.44346 0.0
C1655 C 0.21702 0.29941 0.44597 0.0
H1656 H 0.17813 0.28041 0.43936 0.0
H1657 H 0.32455 0.39702 0.46792 0.0
H1658 H 0.66944 0.96165 0.41322 0.0
H1659 H 0.67193 0.94604 0.43975 0.0
H1660 H 0.70404 0.94034 0.40265 0.0
H1661 H 0.70201 0.95633 0.37654 0.0
H1662 H 0.66547 0.91777 0.44208 0.0
H1663 H 0.73019 0.93728 0.43098 0.0
H1664 H 0.75413 0.9603 0.41997 0.0
H1665 H 0.73564 0.9889 0.43736 0.0
H1666 H 0.71169 0.96609 0.44875 0.0
H1667 H 0.67882 0.86758 0.50153 0.0
H1668 H 0.67946 0.88251 0.47194 0.0
H1669 H 0.70878 0.92452 0.50431 0.0
H1670 H 0.70887 0.90971 0.53334 0.0
H1671 H 0.71672 0.92903 0.46723 0.0
H1672 H 0.66848 0.90786 0.50211 0.0
H1673 H 0.64433 0.88729 0.51683 0.0
H1674 H 0.62959 0.86642 0.45838 0.0
H1675 H 0.65377 0.88678 0.44335 0.0
C1676 C 0.67708 0.95712 0.41081 0.0
C1677 C 0.68563 0.96033 0.39289 0.0
C1678 C 0.67846 0.94814 0.42593 0.0
C1679 C 0.68834 0.94215 0.42336 0.0
C1680 C 0.69661 0.9451 0.40525 0.0
C1681 C 0.69539 0.95421 0.39028 0.0
C1682 C 0.69001 0.93281 0.43957 0.0
C1683 C 0.67669 0.92023 0.44753 0.0
C1684 C 0.70462 0.93612 0.44701 0.0
C1685 C 0.71909 0.94995 0.44051 0.0
C1686 C 0.73126 0.94849 0.43254 0.0
C1687 C 0.74483 0.9615 0.42622 0.0
C1688 C 0.74638 0.97605 0.4279 0.0
C1689 C 0.7344 0.97762 0.436 0.0
C1690 C 0.72082 0.96465 0.44237 0.0
C1691 C 0.68577 0.87998 0.50209 0.0
C1692 C 0.69357 0.88746 0.51991 0.0
C1693 C 0.68597 0.88853 0.48526 0.0
C1694 C 0.69381 0.90468 0.48605 0.0
C1695 C 0.70251 0.9121 0.50331 0.0
C1696 C 0.70246 0.9036 0.51999 0.0
C1697 C 0.69218 0.91391 0.46964 0.0
C1698 C 0.70551 0.92648 0.46164 0.0
C1699 C 0.67756 0.91094 0.46269 0.0
C1700 C 0.66299 0.89874 0.47165 0.0
C1701 C 0.66013 0.89883 0.49242 0.0
C1702 C 0.64643 0.88721 0.50082 0.0
C1703 C 0.63545 0.87553 0.48856 0.0
C1704 C 0.63812 0.87546 0.46786 0.0
C1705 C 0.65182 0.88704 0.4594 0.0
H1706 H 0.62485 0.86655 0.49509 0.0
H1707 H 0.75688 0.9861 0.42297 0.0
H1708 H 0.06885 0.70917 0.41107 0.0
H1709 H 0.08736 0.72541 0.43703 0.0
H1710 H 0.08779 0.76516 0.41203 0.0
H1711 H 0.0692 0.749 0.3862 0.0
H1712 H 0.11749 0.76996 0.42075 0.0
H1713 H 0.06788 0.74993 0.45282 0.0
H1714 H 0.04243 0.72956 0.46454 0.0
H1715 H 0.06408 0.71064 0.50138 0.0
H1716 H 0.08967 0.73077 0.48962 0.0
H1717 H 0.14982 0.82401 0.50131 0.0
H1718 H 0.13574 0.80706 0.47299 0.0
H1719 H 0.12979 0.76799 0.50732 0.0
H1720 H 0.14333 0.7849 0.53587 0.0
H1721 H 0.10367 0.76185 0.49336 0.0
H1722 H 0.15329 0.78211 0.46336 0.0
H1723 H 0.17901 0.80207 0.45188 0.0
H1724 H 0.15829 0.81988 0.41145 0.0
H1725 H 0.13243 0.80015 0.42289 0.0
C1726 C 0.07287 0.72136 0.41115 0.0
C1727 C 0.06752 0.7278 0.39667 0.0
C1728 C 0.08344 0.73062 0.42597 0.0
C1729 C 0.08892 0.74648 0.42647 0.0
C1730 C 0.08373 0.75295 0.41188 0.0
C1731 C 0.07304 0.74369 0.39722 0.0
C1732 C 0.09988 0.75634 0.44238 0.0
C1733 C 0.11447 0.76831 0.43664 0.0
C1734 C 0.09606 0.75387 0.46311 0.0
C1735 C 0.08068 0.74174 0.47013 0.0
C1736 C 0.06721 0.74133 0.46325 0.0
C1737 C 0.05276 0.72985 0.46994 0.0
C1738 C 0.05163 0.71878 0.48364 0.0
C1739 C 0.06496 0.7192 0.49073 0.0
C1740 C 0.07944 0.73064 0.48406 0.0
C1741 C 0.14587 0.81186 0.50252 0.0
C1742 C 0.14767 0.80574 0.52068 0.0
C1743 C 0.13782 0.80215 0.48634 0.0
C1744 C 0.13171 0.78618 0.48791 0.0
C1745 C 0.1343 0.78022 0.50572 0.0
C1746 C 0.14212 0.78988 0.52197 0.0
C1747 C 0.12144 0.77559 0.47185 0.0
C1748 C 0.10688 0.76348 0.47753 0.0
C1749 C 0.12538 0.77785 0.4511 0.0
C1750 C 0.14092 0.78972 0.44412 0.0
C1751 C 0.15422 0.79035 0.45213 0.0
C1752 C 0.16882 0.80162 0.44561 0.0
C1753 C 0.17029 0.81226 0.43098 0.0
C1754 C 0.15714 0.81163 0.4228 0.0
C1755 C 0.1425 0.8004 0.42928 0.0
H1756 H 0.1816 0.82098 0.42596 0.0
H1757 H 0.04044 0.70991 0.48881 0.0
H1758 H 0.32439 0.04347 0.74282 0.0
H1759 H 0.32216 0.06014 0.76794 0.0
H1760 H 0.36426 0.09871 0.74586 0.0
H1761 H 0.36669 0.0821 0.72107 0.0
H1762 H 0.36405 0.09888 0.78568 0.0
H1763 H 0.32857 0.09361 0.73339 0.0
H1764 H 0.30673 0.07961 0.70998 0.0
H1765 H 0.27612 0.05887 0.76017 0.0
H1766 H 0.29783 0.07259 0.78389 0.0
H1767 H 0.35777 0.1576 0.83456 0.0
H1768 H 0.3571 0.14176 0.80597 0.0
H1769 H 0.31884 0.102 0.83315 0.0
H1770 H 0.31951 0.11778 0.86175 0.0
H1771 H 0.31678 0.10279 0.7903 0.0
H1772 H 0.35258 0.10746 0.84228 0.0
H1773 H 0.3744 0.12177 0.86562 0.0
H1774 H 0.40449 0.14393 0.81536 0.0
H1775 H 0.38276 0.12993 0.79173 0.0
C1776 C 0.33321 0.05548 0.74343 0.0
C1777 C 0.3457 0.06147 0.72996 0.0
C1778 C 0.33188 0.06502 0.75769 0.0
C1779 C 0.34293 0.08075 0.75861 0.0
C1780 C 0.35557 0.08664 0.74543 0.0
C1781 C 0.35693 0.07712 0.73125 0.0
C1782 C 0.34144 0.09111 0.7733 0.0
C1783 C 0.35379 0.09987 0.78645 0.0
C1784 C 0.32794 0.09223 0.77463 0.0
C1785 C 0.31486 0.08401 0.76041 0.0
C1786 C 0.31721 0.08597 0.73943 0.0
C1787 C 0.30485 0.0781 0.7261 0.0
C1788 C 0.29006 0.06832 0.73358 0.0
C1789 C 0.28759 0.06643 0.7544 0.0
C1790 C 0.29991 0.07426 0.7678 0.0
C1791 C 0.34893 0.14559 0.83409 0.0
C1792 C 0.33874 0.13887 0.85036 0.0
C1793 C 0.34862 0.13654 0.81785 0.0
C1794 C 0.33805 0.12067 0.8176 0.0
C1795 C 0.32709 0.1142 0.83307 0.0
C1796 C 0.32751 0.12321 0.84939 0.0
C1797 C 0.33942 0.11057 0.80245 0.0
C1798 C 0.32705 0.10183 0.78935 0.0
C1799 C 0.3529 0.10947 0.80109 0.0
C1800 C 0.36601 0.11778 0.81525 0.0
C1801 C 0.36382 0.11548 0.83622 0.0
C1802 C 0.37617 0.12352 0.8495 0.0
C1803 C 0.39081 0.13379 0.84198 0.0
C1804 C 0.39314 0.136 0.82116 0.0
C1805 C 0.38081 0.12801 0.80782 0.0
H1806 H 0.40037 0.14 0.85228 0.0
H1807 H 0.2805 0.06224 0.72323 0.0
H1808 H 0.94104 0.28553 0.71233 0.0
H1809 H 0.92433 0.26661 0.73719 0.0
H1810 H 0.96416 0.27022 0.7674 0.0
H1811 H 0.98097 0.2889 0.74208 0.0
H1812 H 0.94178 0.24104 0.76606 0.0
H1813 H 0.94523 0.28843 0.78572 0.0
H1814 H 0.94382 0.312 0.78116 0.0
H1815 H 0.89574 0.28491 0.76644 0.0
H1816 H 0.89691 0.26117 0.77064 0.0
H1817 H 0.90794 0.21535 0.86388 0.0
H1818 H 0.92312 0.22814 0.83378 0.0
H1819 H 0.88169 0.21916 0.80246 0.0
H1820 H 0.86644 0.20631 0.83261 0.0
H1821 H 0.90407 0.24993 0.80324 0.0
H1822 H 0.90087 0.20219 0.78651 0.0
H1823 H 0.903 0.17917 0.79259 0.0
H1824 H 0.95149 0.20761 0.80389 0.0
H1825 H 0.94961 0.23083 0.79816 0.0
C1826 C 0.94626 0.28231 0.72427 0.0
C1827 C 0.96234 0.2888 0.72537 0.0
C1828 C 0.93669 0.2715 0.73851 0.0
C1829 C 0.94298 0.26715 0.75439 0.0
C1830 C 0.95903 0.27341 0.75532 0.0
C1831 C 0.96863 0.28414 0.74091 0.0
C1832 C 0.93279 0.25631 0.7702 0.0
C1833 C 0.93365 0.24307 0.77435 0.0
C1834 C 0.92196 0.25877 0.78077 0.0
C1835 C 0.9212 0.27303 0.77829 0.0
C1836 C 0.93438 0.2875 0.78136 0.0
C1837 C 0.93362 0.30089 0.77886 0.0
C1838 C 0.91971 0.29995 0.77346 0.0
C1839 C 0.90652 0.28562 0.77059 0.0
C1840 C 0.90722 0.27219 0.77304 0.0
C1841 C 0.90204 0.21574 0.85037 0.0
C1842 C 0.88603 0.20987 0.85054 0.0
C1843 C 0.91071 0.22302 0.83318 0.0
C1844 C 0.90354 0.22463 0.81589 0.0
C1845 C 0.88744 0.21802 0.81565 0.0
C1846 C 0.87873 0.21059 0.83279 0.0
C1847 C 0.91302 0.23465 0.79906 0.0
C1848 C 0.91209 0.24781 0.79481 0.0
C1849 C 0.92389 0.2322 0.78863 0.0
C1850 C 0.92507 0.21826 0.79207 0.0
C1851 C 0.91196 0.20355 0.79046 0.0
C1852 C 0.91313 0.19046 0.79381 0.0
C1853 C 0.92737 0.19193 0.79867 0.0
C1854 C 0.94047 0.20649 0.80014 0.0
C1855 C 0.93936 0.21962 0.79682 0.0
H1856 H 0.92825 0.18179 0.80125 0.0
H1857 H 0.91915 0.31033 0.77154 0.0
H1858 H 0.73736 0.70042 0.7451 0.0
H1859 H 0.75611 0.70212 0.77025 0.0
H1860 H 0.75415 0.6617 0.74493 0.0
H1861 H 0.73529 0.65981 0.72002 0.0
H1862 H 0.75362 0.66034 0.78504 0.0
H1863 H 0.78442 0.69772 0.7351 0.0
H1864 H 0.7923 0.72021 0.7131 0.0
H1865 H 0.80084 0.74881 0.76519 0.0
H1866 H 0.7928 0.72644 0.78751 0.0
H1867 H 0.81778 0.66545 0.83451 0.0
H1868 H 0.80394 0.66781 0.80542 0.0
H1869 H 0.8003 0.70363 0.83608 0.0
H1870 H 0.814 0.7012 0.86525 0.0
H1871 H 0.80449 0.70779 0.79278 0.0
H1872 H 0.77261 0.67019 0.8424 0.0
H1873 H 0.76532 0.64788 0.86449 0.0
H1874 H 0.75893 0.6197 0.81257 0.0
H1875 H 0.76651 0.64196 0.79018 0.0
C1876 C 0.74086 0.69185 0.74499 0.0
C1877 C 0.73486 0.67999 0.73057 0.0
C1878 C 0.75166 0.69289 0.75927 0.0
C1879 C 0.75672 0.68216 0.75931 0.0
C1880 C 0.75047 0.67013 0.74518 0.0
C1881 C 0.73969 0.66908 0.73093 0.0
C1882 C 0.76844 0.68334 0.77411 0.0
C1883 C 0.76481 0.67065 0.78649 0.0
C1884 C 0.78297 0.69689 0.77633 0.0
C1885 C 0.78786 0.71038 0.76296 0.0
C1886 C 0.78786 0.70878 0.74186 0.0
C1887 C 0.79238 0.72151 0.72934 0.0
C1888 C 0.79703 0.73592 0.73774 0.0
C1889 C 0.79721 0.73764 0.7587 0.0
C1890 C 0.79269 0.72494 0.7713 0.0
C1891 C 0.81454 0.67422 0.8347 0.0
C1892 C 0.8169 0.68313 0.85208 0.0
C1893 C 0.80656 0.67549 0.81815 0.0
C1894 C 0.80094 0.68576 0.81874 0.0
C1895 C 0.80453 0.69564 0.83534 0.0
C1896 C 0.81235 0.69425 0.85197 0.0
C1897 C 0.78965 0.68477 0.80345 0.0
C1898 C 0.79332 0.69748 0.79114 0.0
C1899 C 0.77515 0.67125 0.80124 0.0
C1900 C 0.7703 0.65778 0.81464 0.0
C1901 C 0.76978 0.65927 0.8357 0.0
C1902 C 0.76558 0.64663 0.84828 0.0
C1903 C 0.7617 0.63239 0.83994 0.0
C1904 C 0.76197 0.63075 0.81901 0.0
C1905 C 0.76622 0.64337 0.80637 0.0
H1906 H 0.75845 0.62261 0.84969 0.0
H1907 H 0.80052 0.74576 0.72802 0.0
H1908 H 0.75391 0.69506 0.64654 0.0
H1909 H 0.76962 0.69303 0.61999 0.0
H1910 H 0.72864 0.65733 0.59112 0.0
H1911 H 0.71281 0.65907 0.61805 0.0
H1912 H 0.75064 0.64986 0.5917 0.0
H1913 H 0.74791 0.69421 0.57227 0.0
H1914 H 0.75003 0.7195 0.57688 0.0
H1915 H 0.79832 0.73971 0.58976 0.0
H1916 H 0.79645 0.71449 0.58549 0.0
H1917 H 0.78496 0.65425 0.49556 0.0
H1918 H 0.76942 0.65383 0.52421 0.0
H1919 H 0.81057 0.68754 0.55493 0.0
H1920 H 0.82618 0.68818 0.5261 0.0
H1921 H 0.78852 0.69577 0.55349 0.0
H1922 H 0.79102 0.65104 0.57193 0.0
H1923 H 0.78854 0.62566 0.56657 0.0
H1924 H 0.74021 0.60609 0.55445 0.0
H1925 H 0.74244 0.63141 0.55947 0.0
C1926 C 0.74821 0.68682 0.63449 0.0
C1927 C 0.73211 0.67728 0.63432 0.0
C1928 C 0.75722 0.68571 0.61927 0.0
C1929 C 0.75031 0.67517 0.60338 0.0
C1930 C 0.73422 0.66557 0.60321 0.0
C1931 C 0.72518 0.66662 0.61853 0.0
C1932 C 0.75996 0.67412 0.58713 0.0
C1933 C 0.75877 0.65986 0.58315 0.0
C1934 C 0.77083 0.68722 0.57625 0.0
C1935 C 0.77201 0.70243 0.57875 0.0
C1936 C 0.75896 0.70403 0.57624 0.0
C1937 C 0.76012 0.71835 0.57876 0.0
C1938 C 0.77429 0.7312 0.58366 0.0
C1939 C 0.78735 0.72975 0.58599 0.0
C1940 C 0.78625 0.71544 0.5835 0.0
C1941 C 0.79072 0.6614 0.50856 0.0
C1942 C 0.8068 0.67128 0.50857 0.0
C1943 C 0.78184 0.6611 0.52496 0.0
C1944 C 0.78884 0.67064 0.54174 0.0
C1945 C 0.80494 0.68008 0.54213 0.0
C1946 C 0.81386 0.68033 0.52575 0.0
C1947 C 0.77925 0.67154 0.55816 0.0
C1948 C 0.78042 0.68578 0.5621 0.0
C1949 C 0.76831 0.6584 0.56887 0.0
C1950 C 0.76693 0.64315 0.5659 0.0
C1951 C 0.77988 0.64135 0.56796 0.0
C1952 C 0.77852 0.62697 0.56501 0.0
C1953 C 0.76423 0.61428 0.56012 0.0
C1954 C 0.75127 0.61593 0.55822 0.0
C1955 C 0.75258 0.63029 0.56114 0.0
H1956 H 0.7632 0.60315 0.55785 0.0
H1957 H 0.77517 0.74228 0.58561 0.0
H1958 H 0.32899 0.0643 0.64597 0.0
H1959 H 0.33053 0.08249 0.62044 0.0
H1960 H 0.36932 0.08209 0.59307 0.0
H1961 H 0.36802 0.06404 0.61894 0.0
H1962 H 0.37452 0.11084 0.59591 0.0
H1963 H 0.33342 0.06293 0.57146 0.0
H1964 H 0.30894 0.03832 0.5733 0.0
H1965 H 0.28466 0.06231 0.58635 0.0
H1966 H 0.30905 0.08707 0.58487 0.0
H1967 H 0.37106 0.14198 0.50021 0.0
H1968 H 0.37197 0.12712 0.52886 0.0
H1969 H 0.33505 0.13021 0.55753 0.0
H1970 H 0.33401 0.14499 0.52875 0.0
H1971 H 0.32907 0.10061 0.55455 0.0
H1972 H 0.37064 0.14882 0.57748 0.0
H1973 H 0.39529 0.17317 0.57475 0.0
H1974 H 0.41891 0.14829 0.56331 0.0
H1975 H 0.39434 0.12377 0.56569 0.0
C1976 C 0.3378 0.068 0.63444 0.0
C1977 C 0.34834 0.06267 0.63439 0.0
C1978 C 0.33864 0.07839 0.61983 0.0
C1979 C 0.34994 0.08355 0.60469 0.0
C1980 C 0.3605 0.07826 0.6046 0.0
C1981 C 0.3597 0.06789 0.6193 0.0
C1982 C 0.35077 0.09458 0.58913 0.0
C1983 C 0.36464 0.10852 0.58667 0.0
C1984 C 0.33778 0.09172 0.57738 0.0
C1985 C 0.32309 0.07685 0.57825 0.0
C1986 C 0.32289 0.06295 0.57489 0.0
C1987 C 0.30902 0.04897 0.57583 0.0
C1988 C 0.29526 0.04875 0.57999 0.0
C1989 C 0.29533 0.0625 0.58316 0.0
C1990 C 0.30917 0.07651 0.58225 0.0
C1991 C 0.36334 0.13974 0.51281 0.0
C1992 C 0.35243 0.1446 0.51224 0.0
C1993 C 0.36391 0.13129 0.5292 0.0
C1994 C 0.35357 0.12755 0.54533 0.0
C1995 C 0.34313 0.13298 0.54522 0.0
C1996 C 0.34263 0.14153 0.52888 0.0
C1997 C 0.3528 0.11688 0.56137 0.0
C1998 C 0.33893 0.10297 0.56386 0.0
C1999 C 0.36582 0.11973 0.573 0.0
C2000 C 0.38061 0.13446 0.57158 0.0
C2001 C 0.38106 0.14854 0.57421 0.0
C2002 C 0.39503 0.16237 0.57276 0.0
C2003 C 0.40865 0.16228 0.56881 0.0
C2004 C 0.40834 0.14834 0.56635 0.0
C2005 C 0.3944 0.13447 0.56777 0.0
H2006 H 0.41946 0.173 0.5677 0.0
H2007 H 0.28454 0.03791 0.58072 0.0
H2008 H 0.96644 0.27475 0.63956 0.0
H2009 H 0.94816 0.25728 0.61455 0.0
H2010 H 0.93443 0.29057 0.60061 0.0
H2011 H 0.95254 0.30803 0.62607 0.0
H2012 H 0.90974 0.26265 0.60306 0.0
H2013 H 0.95794 0.28471 0.56881 0.0
H2014 H 0.9853 0.29269 0.56382 0.0
H2015 H 0.97432 0.2457 0.56769 0.0
H2016 H 0.94692 0.23745 0.57299 0.0
H2017 H 0.87817 0.23145 0.50455 0.0
H2018 H 0.89253 0.24732 0.53367 0.0
H2019 H 0.89873 0.21053 0.55595 0.0
H2020 H 0.88404 0.1945 0.52705 0.0
H2021 H 0.92665 0.23994 0.54946 0.0
H2022 H 0.8776 0.21836 0.5825 0.0
H2023 H 0.85039 0.21138 0.58591 0.0
H2024 H 0.86332 0.25893 0.58206 0.0
H2025 H 0.89061 0.26618 0.57831 0.0
C2026 C 0.95959 0.2784 0.63111 0.0
C2027 C 0.961 0.29281 0.6347 0.0
C2028 C 0.94915 0.2684 0.61677 0.0
C2029 C 0.94003 0.27267 0.60549 0.0
C2030 C 0.94135 0.28703 0.60911 0.0
C2031 C 0.95176 0.29703 0.62358 0.0
C2032 C 0.92911 0.26206 0.59001 0.0
C2033 C 0.91349 0.25784 0.59118 0.0
C2034 C 0.93392 0.25558 0.57468 0.0
C2035 C 0.9504 0.26048 0.57151 0.0
C2036 C 0.96138 0.27609 0.56877 0.0
C2037 C 0.97689 0.28066 0.56585 0.0
C2038 C 0.98155 0.26971 0.56549 0.0
C2039 C 0.9707 0.25417 0.568 0.0
C2040 C 0.95517 0.24954 0.57095 0.0
C2041 C 0.88222 0.22663 0.51601 0.0
C2042 C 0.87996 0.21177 0.51371 0.0
C2043 C 0.89043 0.23568 0.53257 0.0
C2044 C 0.8967 0.23009 0.5469 0.0
C2045 C 0.89393 0.21502 0.54505 0.0
C2046 C 0.88547 0.20585 0.52867 0.0
C2047 C 0.90734 0.24047 0.56265 0.0
C2048 C 0.92293 0.24471 0.56142 0.0
C2049 C 0.90254 0.24712 0.57769 0.0
C2050 C 0.88614 0.2428 0.5799 0.0
C2051 C 0.87463 0.22732 0.58217 0.0
C2052 C 0.8592 0.22332 0.58421 0.0
C2053 C 0.85513 0.2347 0.58415 0.0
C2054 C 0.86649 0.25012 0.58208 0.0
C2055 C 0.88195 0.25419 0.58001 0.0
H2056 H 0.84317 0.23158 0.58574 0.0
H2057 H 0.99357 0.27327 0.56323 0.0
H2058 H 0.31835 0.27988 0.63356 0.0
H2059 H 0.31648 0.26094 0.60895 0.0
H2060 H 0.36606 0.28464 0.60435 0.0
H2061 H 0.36795 0.30396 0.6285 0.0
H2062 H 0.35427 0.27542 0.5686 0.0
H2063 H 0.34529 0.2512 0.63299 0.0
H2064 H 0.33316 0.24241 0.66637 0.0
H2065 H 0.28926 0.21395 0.63803 0.0
H2066 H 0.30109 0.22275 0.60446 0.0
H2067 H 0.35866 0.21333 0.52542 0.0
H2068 H 0.35914 0.22942 0.5536 0.0
H2069 H 0.31239 0.21748 0.54003 0.0
H2070 H 0.31207 0.20177 0.51139 0.0
H2071 H 0.32304 0.22 0.58548 0.0
H2072 H 0.33344 0.24632 0.52056 0.0
H2073 H 0.34713 0.25408 0.48799 0.0
H2074 H 0.39047 0.27818 0.51918 0.0
H2075 H 0.37703 0.27022 0.55196 0.0
C2076 C 0.32885 0.28112 0.62718 0.0
C2077 C 0.3433 0.29336 0.63303 0.0
C2078 C 0.32778 0.27022 0.61322 0.0
C2079 C 0.34114 0.27113 0.6051 0.0
C2080 C 0.35558 0.28363 0.61046 0.0
C2081 C 0.35665 0.29467 0.62426 0.0
C2082 C 0.34002 0.25897 0.5912 0.0
C2083 C 0.34757 0.26334 0.57247 0.0
C2084 C 0.33121 0.24313 0.59606 0.0
C2085 C 0.32405 0.23775 0.61621 0.0
C2086 C 0.33303 0.24316 0.63387 0.0
C2087 C 0.32621 0.23816 0.65283 0.0
C2088 C 0.31044 0.22765 0.65432 0.0
C2089 C 0.30147 0.2221 0.63685 0.0
C2090 C 0.30822 0.22708 0.61785 0.0
C2091 C 0.34834 0.21375 0.52893 0.0
C2092 C 0.33528 0.20625 0.51649 0.0
C2093 C 0.34864 0.22297 0.54491 0.0
C2094 C 0.33581 0.22462 0.5488 0.0
C2095 C 0.32235 0.21624 0.5373 0.0
C2096 C 0.32215 0.20727 0.52104 0.0
C2097 C 0.33714 0.23654 0.56308 0.0
C2098 C 0.32969 0.23211 0.58178 0.0
C2099 C 0.34621 0.25232 0.55836 0.0
C2100 C 0.35425 0.25753 0.5387 0.0
C2101 C 0.3459 0.25316 0.52047 0.0
C2102 C 0.35361 0.2576 0.50197 0.0
C2103 C 0.36966 0.26659 0.50151 0.0
C2104 C 0.37803 0.2712 0.51956 0.0
C2105 C 0.37038 0.26672 0.5381 0.0
H2106 H 0.37561 0.27001 0.48718 0.0
H2107 H 0.30518 0.22379 0.66901 0.0
H2108 H 0.71721 0.05815 0.61682 0.0
H2109 H 0.73571 0.07363 0.59052 0.0
H2110 H 0.77324 0.0807 0.62949 0.0
H2111 H 0.75484 0.06485 0.6554 0.0
H2112 H 0.75738 0.10207 0.58796 0.0
H2113 H 0.80323 0.08414 0.60268 0.0
H2114 H 0.8045 0.06166 0.61493 0.0
H2115 H 0.75763 0.03185 0.5964 0.0
H2116 H 0.75615 0.05412 0.58381 0.0
H2117 H 0.82217 0.15226 0.52996 0.0
H2118 H 0.80724 0.13748 0.55928 0.0
H2119 H 0.79512 0.09533 0.52789 0.0
H2120 H 0.81062 0.11 0.4991 0.0
H2121 H 0.79827 0.09142 0.56558 0.0
H2122 H 0.77125 0.11142 0.52815 0.0
H2123 H 0.7677 0.13158 0.51225 0.0
H2124 H 0.77272 0.15302 0.57001 0.0
H2125 H 0.7765 0.13308 0.58621 0.0
C2126 C 0.72941 0.06296 0.6197 0.0
C2127 C 0.73457 0.06017 0.63809 0.0
C2128 C 0.73998 0.07186 0.60471 0.0
C2129 C 0.75591 0.07819 0.60787 0.0
C2130 C 0.76104 0.07568 0.62645 0.0
C2131 C 0.75049 0.06665 0.6413 0.0
C2132 C 0.76714 0.08744 0.5918 0.0
C2133 C 0.76633 0.09974 0.58312 0.0
C2134 C 0.77872 0.08432 0.58517 0.0
C2135 C 0.77954 0.07083 0.59251 0.0
C2136 C 0.79322 0.07278 0.60116 0.0
C2137 C 0.79397 0.06008 0.60817 0.0
C2138 C 0.78114 0.04534 0.60651 0.0
C2139 C 0.76754 0.04328 0.59775 0.0
C2140 C 0.76674 0.05594 0.5907 0.0
C2141 C 0.8167 0.13986 0.52956 0.0
C2142 C 0.81739 0.13231 0.51206 0.0
C2143 C 0.80799 0.1314 0.54623 0.0
C2144 C 0.79968 0.11525 0.54561 0.0
C2145 C 0.80127 0.10775 0.52872 0.0
C2146 C 0.81007 0.11617 0.51218 0.0
C2147 C 0.78857 0.1061 0.56185 0.0
C2148 C 0.7894 0.09383 0.57056 0.0
C2149 C 0.77669 0.10892 0.56802 0.0
C2150 C 0.77432 0.12086 0.55835 0.0
C2151 C 0.77169 0.12049 0.53743 0.0
C2152 C 0.76963 0.13187 0.52837 0.0
C2153 C 0.77002 0.1436 0.54011 0.0
C2154 C 0.77244 0.14395 0.56094 0.0
C2155 C 0.77454 0.13261 0.57007 0.0
H2156 H 0.76842 0.1524 0.53307 0.0
H2157 H 0.78174 0.03552 0.61196 0.0
H2158 H 0.96432 0.66535 0.61655 0.0
H2159 H 0.94748 0.66712 0.59108 0.0
H2160 H 0.93762 0.6944 0.63199 0.0
H2161 H 0.95456 0.69285 0.65736 0.0
H2162 H 0.91123 0.67116 0.61269 0.0
H2163 H 0.96161 0.71231 0.59628 0.0
H2164 H 0.98928 0.7242 0.58851 0.0
H2165 H 0.97866 0.69568 0.53588 0.0
H2166 H 0.9509 0.68344 0.54352 0.0
H2167 H 0.90069 0.70741 0.51195 0.0
H2168 H 0.91562 0.708 0.54174 0.0
H2169 H 0.88561 0.65915 0.54922 0.0
H2170 H 0.87046 0.65875 0.51994 0.0
H2171 H 0.93219 0.69515 0.54613 0.0
H2172 H 0.88554 0.64828 0.59733 0.0
H2173 H 0.85816 0.63786 0.60593 0.0
H2174 H 0.86174 0.68098 0.59067 0.0
H2175 H 0.88919 0.69172 0.58225 0.0
C2176 C 0.95854 0.67169 0.6201 0.0
C2177 C 0.9608 0.67901 0.6389 0.0
C2178 C 0.94895 0.67272 0.60555 0.0
C2179 C 0.94135 0.68093 0.60964 0.0
C2180 C 0.94336 0.68799 0.62854 0.0
C2181 C 0.9531 0.68715 0.64297 0.0
C2182 C 0.93149 0.6824 0.59408 0.0
C2183 C 0.91577 0.67639 0.59811 0.0
C2184 C 0.93751 0.68951 0.57526 0.0
C2185 C 0.95419 0.69684 0.5706 0.0
C2186 C 0.96518 0.70847 0.58315 0.0
C2187 C 0.98088 0.71529 0.57876 0.0
C2188 C 0.98573 0.71067 0.56174 0.0
C2189 C 0.97488 0.69923 0.54907 0.0
C2190 C 0.95917 0.69235 0.55343 0.0
C2191 C 0.89707 0.69694 0.52043 0.0
C2192 C 0.88432 0.6831 0.51406 0.0
C2193 C 0.90565 0.69723 0.53728 0.0
C2194 C 0.9017 0.68364 0.54789 0.0
C2195 C 0.88872 0.66985 0.54165 0.0
C2196 C 0.88006 0.66961 0.52495 0.0
C2197 C 0.91175 0.68368 0.56452 0.0
C2198 C 0.92756 0.68995 0.56069 0.0
C2199 C 0.90583 0.677 0.58363 0.0
C2200 C 0.88939 0.67076 0.589 0.0
C2201 C 0.8805 0.65556 0.59592 0.0
C2202 C 0.86496 0.64959 0.60073 0.0
C2203 C 0.8582 0.65874 0.59879 0.0
C2204 C 0.86698 0.67389 0.5921 0.0
C2205 C 0.88252 0.67992 0.58728 0.0
H2206 H 0.84617 0.65409 0.6025 0.0
H2207 H 0.99789 0.71597 0.55835 0.0
H2208 H 0.9794 0.69153 0.75009 0.0
H2209 H 0.96193 0.68939 0.77737 0.0
H2210 H 0.92326 0.65525 0.74296 0.0
H2211 H 0.94071 0.65683 0.71627 0.0
H2212 H 0.93988 0.69493 0.78109 0.0
H2213 H 0.89514 0.62973 0.77235 0.0
H2214 H 0.89469 0.60593 0.76218 0.0
H2215 H 0.94247 0.62598 0.77806 0.0
H2216 H 0.94315 0.64979 0.78862 0.0
H2217 H 0.8754 0.68105 0.83928 0.0
H2218 H 0.89109 0.68131 0.81088 0.0
H2219 H 0.9029 0.65172 0.84395 0.0
H2220 H 0.88638 0.65044 0.87157 0.0
H2221 H 0.90057 0.64405 0.80755 0.0
H2222 H 0.92694 0.69231 0.84162 0.0
H2223 H 0.9304 0.71645 0.85595 0.0
H2224 H 0.9248 0.73082 0.79705 0.0
H2225 H 0.92107 0.70664 0.78239 0.0
C2226 C 0.96718 0.68351 0.74846 0.0
C2227 C 0.96144 0.67422 0.73118 0.0
C2228 C 0.95718 0.68234 0.764 0.0
C2229 C 0.94125 0.67197 0.76244 0.0
C2230 C 0.93551 0.66303 0.74486 0.0
C2231 C 0.94551 0.66399 0.72954 0.0
C2232 C 0.9306 0.67048 0.7791 0.0
C2233 C 0.93129 0.68379 0.78686 0.0
C2234 C 0.9196 0.656 0.78707 0.0
C2235 C 0.91922 0.6416 0.78107 0.0
C2236 C 0.90553 0.62903 0.77376 0.0
C2237 C 0.90523 0.61554 0.76792 0.0
C2238 C 0.91855 0.61446 0.76942 0.0
C2239 C 0.93217 0.62684 0.77685 0.0
C2240 C 0.93252 0.64034 0.78275 0.0
C2241 C 0.88101 0.67427 0.8403 0.0
C2242 C 0.8798 0.66594 0.85792 0.0
C2243 C 0.89019 0.67462 0.82415 0.0
C2244 C 0.89858 0.66689 0.82544 0.0
C2245 C 0.89671 0.65791 0.84257 0.0
C2246 C 0.88735 0.65734 0.85851 0.0
C2247 C 0.90971 0.66849 0.8094 0.0
C2248 C 0.90912 0.65519 0.80174 0.0
C2249 C 0.92125 0.68302 0.80219 0.0
C2250 C 0.92357 0.6976 0.81094 0.0
C2251 C 0.92635 0.70057 0.83174 0.0
C2252 C 0.92837 0.71426 0.83992 0.0
C2253 C 0.92779 0.72514 0.82743 0.0
C2254 C 0.92522 0.72237 0.80671 0.0
C2255 C 0.92316 0.70868 0.79845 0.0
H2256 H 0.92936 0.73573 0.83379 0.0
H2257 H 0.91831 0.60402 0.76485 0.0
H2258 H 0.32693 0.29025 0.74175 0.0
H2259 H 0.32747 0.27298 0.76737 0.0
H2260 H 0.36918 0.27814 0.74131 0.0
H2261 H 0.3686 0.29525 0.71554 0.0
H2262 H 0.3494 0.24848 0.75054 0.0
H2263 H 0.37065 0.2969 0.78435 0.0
H2264 H 0.37161 0.32061 0.79612 0.0
H2265 H 0.33004 0.29388 0.83 0.0
H2266 H 0.32871 0.27 0.8182 0.0
H2267 H 0.36755 0.21703 0.83806 0.0
H2268 H 0.36796 0.23258 0.80912 0.0
H2269 H 0.32635 0.23031 0.8308 0.0
H2270 H 0.32597 0.21499 0.85955 0.0
H2271 H 0.34796 0.25924 0.82335 0.0
H2272 H 0.32655 0.21067 0.78867 0.0
H2273 H 0.32596 0.18714 0.77692 0.0
H2274 H 0.3684 0.21435 0.74496 0.0
H2275 H 0.36935 0.23806 0.75675 0.0
C2276 C 0.33623 0.28773 0.74152 0.0
C2277 C 0.34777 0.29418 0.72671 0.0
C2278 C 0.33654 0.27788 0.75618 0.0
C2279 C 0.34845 0.27437 0.75638 0.0
C2280 C 0.35989 0.28068 0.74146 0.0
C2281 C 0.35958 0.29052 0.72681 0.0
C2282 C 0.34902 0.26422 0.77227 0.0
C2283 C 0.34929 0.25093 0.76648 0.0
C2284 C 0.34872 0.26732 0.79306 0.0
C2285 C 0.34951 0.28166 0.80023 0.0
C2286 C 0.36165 0.29608 0.79418 0.0
C2287 C 0.36227 0.30955 0.80088 0.0
C2288 C 0.35088 0.30875 0.81376 0.0
C2289 C 0.33885 0.29448 0.82 0.0
C2290 C 0.33816 0.28097 0.81333 0.0
C2291 C 0.35836 0.21963 0.83636 0.0
C2292 C 0.34681 0.21495 0.85111 0.0
C2293 C 0.35861 0.22852 0.81987 0.0
C2294 C 0.34722 0.23269 0.81784 0.0
C2295 C 0.33533 0.22739 0.83213 0.0
C2296 C 0.33512 0.21861 0.84853 0.0
C2297 C 0.348 0.24331 0.80167 0.0
C2298 C 0.34808 0.25678 0.80742 0.0
C2299 C 0.34868 0.24038 0.7809 0.0
C2300 C 0.34811 0.22614 0.77378 0.0
C2301 C 0.33583 0.21164 0.77928 0.0
C2302 C 0.33542 0.19827 0.77259 0.0
C2303 C 0.34716 0.19925 0.76026 0.0
C2304 C 0.35933 0.2136 0.75455 0.0
C2305 C 0.3598 0.22701 0.76122 0.0
H2306 H 0.34682 0.18888 0.75509 0.0
H2307 H 0.35138 0.31919 0.81893 0.0
H2308 H 0.73209 0.04563 0.74907 0.0
H2309 H 0.74874 0.06334 0.77538 0.0
H2310 H 0.7458 0.10034 0.74698 0.0
H2311 H 0.72926 0.08274 0.72061 0.0
H2312 H 0.77528 0.10908 0.75723 0.0
H2313 H 0.7259 0.0841 0.7895 0.0
H2314 H 0.7015 0.06213 0.8014 0.0
H2315 H 0.72659 0.04723 0.83862 0.0
H2316 H 0.75116 0.069 0.82671 0.0
H2317 H 0.80824 0.1616 0.84081 0.0
H2318 H 0.79206 0.14543 0.81288 0.0
H2319 H 0.79084 0.10592 0.84019 0.0
H2320 H 0.80679 0.12194 0.868 0.0
H2321 H 0.76287 0.09923 0.8301 0.0
H2322 H 0.81223 0.12354 0.79711 0.0
H2323 H 0.83673 0.14542 0.78526 0.0
H2324 H 0.81188 0.16145 0.74956 0.0
H2325 H 0.78722 0.13977 0.76142 0.0
C2326 C 0.73492 0.05752 0.74851 0.0
C2327 C 0.72932 0.06278 0.7328 0.0
C2328 C 0.74441 0.06762 0.76357 0.0
C2329 C 0.74845 0.08316 0.76322 0.0
C2330 C 0.74286 0.08842 0.74755 0.0
C2331 C 0.73334 0.07832 0.73254 0.0
C2332 C 0.75866 0.09399 0.77905 0.0
C2333 C 0.77248 0.10704 0.77316 0.0
C2334 C 0.75515 0.0912 0.79985 0.0
C2335 C 0.74038 0.0781 0.80704 0.0
C2336 C 0.72622 0.07607 0.80008 0.0
C2337 C 0.71236 0.06366 0.80686 0.0
C2338 C 0.7125 0.05327 0.82071 0.0
C2339 C 0.7265 0.05528 0.82786 0.0
C2340 C 0.7404 0.06765 0.82111 0.0
C2341 C 0.80472 0.14952 0.84059 0.0
C2342 C 0.80868 0.143 0.85658 0.0
C2343 C 0.79546 0.14028 0.82468 0.0
C2344 C 0.79021 0.12442 0.82441 0.0
C2345 C 0.79462 0.11807 0.8401 0.0
C2346 C 0.80376 0.12724 0.85596 0.0
C2347 C 0.77964 0.11423 0.80834 0.0
C2348 C 0.7657 0.10129 0.81418 0.0
C2349 C 0.78307 0.11712 0.78752 0.0
C2350 C 0.79789 0.13013 0.78033 0.0
C2351 C 0.81199 0.1318 0.78686 0.0
C2352 C 0.82591 0.14415 0.78012 0.0
C2353 C 0.82586 0.15485 0.76671 0.0
C2354 C 0.8119 0.15318 0.75997 0.0
C2355 C 0.79795 0.14086 0.76669 0.0
H2356 H 0.83665 0.1644 0.7615 0.0
H2357 H 0.70175 0.04367 0.82594 0.0
H2358 H 0.06663 0.37258 0.00525 0.0
H2359 H 0.0872 0.36831 0.01779 0.0
H2360 H 0.05838 0.34221 0.06773 0.0
H2361 H 0.03792 0.34653 0.05541 0.0
H2362 H 0.08653 0.3631 0.08052 0.0
H2363 H 0.06542 0.32482 0.02791 0.0
H2364 H 0.0575 0.31543 0.9931 0.0
H2365 H 0.10391 0.34451 0.97259 0.0
H2366 H 0.11207 0.35423 0.00727 0.0
H2367 H 0.12044 0.32456 0.12185 0.0
H2368 H 0.10284 0.32683 0.0985 0.0
H2369 H 0.14149 0.36187 0.06543 0.0
H2370 H 0.15929 0.35995 0.08928 0.0
H2371 H 0.11103 0.33879 0.04187 0.0
H2372 H 0.1323 0.37575 0.09566 0.0
H2373 H 0.13989 0.38376 0.13094 0.0
H2374 H 0.0926 0.35772 0.14928 0.0
H2375 H 0.08479 0.34862 0.11432 0.0
C2376 C 0.06464 0.36581 0.0188 0.0
C2377 C 0.05064 0.35991 0.02935 0.0
C2378 C 0.0764 0.36335 0.02592 0.0
C2379 C 0.07435 0.35489 0.04369 0.0
C2380 C 0.06027 0.3488 0.05402 0.0
C2381 C 0.04855 0.35124 0.04692 0.0
C2382 C 0.08698 0.35286 0.05215 0.0
C2383 C 0.09179 0.35769 0.07207 0.0
C2384 C 0.09421 0.34621 0.04097 0.0
C2385 C 0.08932 0.34038 0.02014 0.0
C2386 C 0.07391 0.32932 0.01595 0.0
C2387 C 0.06938 0.32391 0.99625 0.0
C2388 C 0.08018 0.32941 0.98063 0.0
C2389 C 0.09555 0.34029 0.98469 0.0
C2390 C 0.10013 0.34574 0.00437 0.0
C2391 C 0.12521 0.33239 0.1092 0.0
C2392 C 0.14122 0.34225 0.10754 0.0
C2393 C 0.11514 0.33366 0.09587 0.0
C2394 C 0.12087 0.34467 0.08045 0.0
C2395 C 0.13686 0.3533 0.07726 0.0
C2396 C 0.14701 0.35216 0.09083 0.0
C2397 C 0.11025 0.34876 0.07025 0.0
C2398 C 0.10585 0.34435 0.05014 0.0
C2399 C 0.10337 0.35582 0.08123 0.0
C2400 C 0.108 0.36125 0.10235 0.0
C2401 C 0.12354 0.3714 0.10727 0.0
C2402 C 0.12789 0.3761 0.12724 0.0
C2403 C 0.11674 0.37106 0.1424 0.0
C2404 C 0.10124 0.36134 0.13759 0.0
C2405 C 0.09685 0.35636 0.1177 0.0
H2406 H 0.12011 0.37478 0.15784 0.0
H2407 H 0.07665 0.32521 0.96538 0.0
H2408 H 0.63653 0.68456 0.0388 0.0
H2409 H 0.63931 0.70909 0.04943 0.0
H2410 H 0.6877 0.732 0.03488 0.0
H2411 H 0.68499 0.70743 0.02422 0.0
H2412 H 0.68256 0.74032 0.07202 0.0
H2413 H 0.66321 0.73688 0.00503 0.0
H2414 H 0.64547 0.7246 0.97637 0.0
H2415 H 0.60797 0.72122 0.01152 0.0
H2416 H 0.62544 0.73329 0.04051 0.0
H2417 H 0.69162 0.81227 0.09683 0.0
H2418 H 0.69113 0.79295 0.07367 0.0
H2419 H 0.64248 0.76372 0.08469 0.0
H2420 H 0.643 0.78301 0.10768 0.0
H2421 H 0.64994 0.76062 0.04573 0.0
H2422 H 0.66764 0.76039 0.11335 0.0
H2423 H 0.68442 0.77204 0.14302 0.0
H2424 H 0.72401 0.78128 0.10767 0.0
H2425 H 0.70746 0.76993 0.07766 0.0
C2426 C 0.64775 0.69483 0.03773 0.0
C2427 C 0.66054 0.69405 0.03065 0.0
C2428 C 0.64931 0.70887 0.04373 0.0
C2429 C 0.66368 0.72244 0.04277 0.0
C2430 C 0.67649 0.7217 0.03569 0.0
C2431 C 0.67491 0.70766 0.02957 0.0
C2432 C 0.66541 0.73724 0.05 0.0
C2433 C 0.67567 0.74493 0.06595 0.0
C2434 C 0.65617 0.74309 0.04244 0.0
C2435 C 0.64563 0.73589 0.025 0.0
C2436 C 0.65116 0.73342 0.00671 0.0
C2437 C 0.64115 0.72651 0.99039 0.0
C2438 C 0.6256 0.7221 0.99214 0.0
C2439 C 0.62002 0.72463 0.01019 0.0
C2440 C 0.62998 0.73152 0.02657 0.0
C2441 C 0.68073 0.80201 0.09356 0.0
C2442 C 0.66731 0.79913 0.10382 0.0
C2443 C 0.68047 0.79091 0.08052 0.0
C2444 C 0.66681 0.77677 0.07769 0.0
C2445 C 0.65314 0.77452 0.0866 0.0
C2446 C 0.65342 0.78555 0.09967 0.0
C2447 C 0.66702 0.76362 0.06776 0.0
C2448 C 0.65705 0.75617 0.05147 0.0
C2449 C 0.67641 0.75786 0.07513 0.0
C2450 C 0.68635 0.76449 0.0932 0.0
C2451 C 0.67994 0.76501 0.11186 0.0
C2452 C 0.6894 0.77155 0.12875 0.0
C2453 C 0.70528 0.77743 0.12722 0.0
C2454 C 0.71171 0.77675 0.10882 0.0
C2455 C 0.7023 0.77027 0.09186 0.0
H2456 H 0.71259 0.78249 0.14031 0.0
H2457 H 0.61787 0.71676 0.97949 0.0
H2458 H 0.32099 0.991 0.05113 0.0
H2459 H 0.29638 0.97018 0.06351 0.0
H2460 H 0.30201 0.93772 0.02724 0.0
H2461 H 0.32637 0.95866 0.0142 0.0
H2462 H 0.27298 0.9298 0.02687 0.0
H2463 H 0.31041 0.94253 0.07886 0.0
H2464 H 0.331 0.95914 0.10272 0.0
H2465 H 0.30044 0.97141 0.13167 0.0
H2466 H 0.27972 0.95504 0.10779 0.0
H2467 H 0.22429 0.86476 0.09236 0.0
H2468 H 0.24385 0.8844 0.07009 0.0
H2469 H 0.23551 0.91861 0.0968 0.0
H2470 H 0.21603 0.89908 0.11889 0.0
H2471 H 0.26566 0.92485 0.1011 0.0
H2472 H 0.22761 0.91 0.0483 0.0
H2473 H 0.20764 0.89175 0.02493 0.0
H2474 H 0.24029 0.88127 0.99836 0.0
H2475 H 0.26041 0.8993 0.02178 0.0
C2476 C 0.31693 0.97944 0.04568 0.0
C2477 C 0.32568 0.97645 0.03182 0.0
C2478 C 0.30287 0.96751 0.05283 0.0
C2479 C 0.29743 0.95226 0.04667 0.0
C2480 C 0.30593 0.94934 0.0323 0.0
C2481 C 0.31989 0.96132 0.0249 0.0
C2482 C 0.28322 0.93937 0.05579 0.0
C2483 C 0.27146 0.92864 0.04311 0.0
C2484 C 0.28112 0.93779 0.077 0.0
C2485 C 0.29356 0.94767 0.09139 0.0
C2486 C 0.30812 0.94886 0.09021 0.0
C2487 C 0.31981 0.95823 0.10375 0.0
C2488 C 0.31704 0.96636 0.11867 0.0
C2489 C 0.30257 0.96513 0.12009 0.0
C2490 C 0.29085 0.9558 0.10656 0.0
C2491 C 0.22615 0.87633 0.09275 0.0
C2492 C 0.21864 0.88043 0.10723 0.0
C2493 C 0.2374 0.88757 0.08015 0.0
C2494 C 0.24124 0.90301 0.08192 0.0
C2495 C 0.23278 0.9068 0.09522 0.0
C2496 C 0.22157 0.89562 0.1077 0.0
C2497 C 0.25533 0.91551 0.0722 0.0
C2498 C 0.26715 0.92609 0.08485 0.0
C2499 C 0.25756 0.9167 0.05105 0.0
C2500 C 0.24548 0.90589 0.03694 0.0
C2501 C 0.2305 0.9037 0.03761 0.0
C2502 C 0.21916 0.89342 0.02432 0.0
C2503 C 0.22268 0.88533 0.01021 0.0
C2504 C 0.23757 0.88753 0.00932 0.0
C2505 C 0.24895 0.89779 0.02258 0.0
H2506 H 0.21388 0.87737 0.99993 0.0
H2507 H 0.3261 0.9736 0.12914 0.0
H2508 H 0.34269 0.03381 0.98093 0.0
H2509 H 0.34027 0.05539 0.96874 0.0
H2510 H 0.38224 0.08698 0.99989 0.0
H2511 H 0.38422 0.06526 0.01302 0.0
H2512 H 0.36383 0.0977 0.00234 0.0
H2513 H 0.38086 0.07981 0.94733 0.0
H2514 H 0.38103 0.06116 0.92336 0.0
H2515 H 0.33645 0.05039 0.90128 0.0
H2516 H 0.33591 0.06884 0.92532 0.0
H2517 H 0.37309 0.15761 0.92816 0.0
H2518 H 0.37716 0.14033 0.95043 0.0
H2519 H 0.32932 0.10572 0.94376 0.0
H2520 H 0.3252 0.12293 0.92197 0.0
H2521 H 0.35361 0.09876 0.92922 0.0
H2522 H 0.33806 0.11798 0.98664 0.0
H2523 H 0.34058 0.13841 0.00959 0.0
H2524 H 0.38648 0.14914 0.02524 0.0
H2525 H 0.38431 0.12891 0.00213 0.0
C2526 C 0.35134 0.04535 0.98529 0.0
C2527 C 0.36371 0.04785 0.99779 0.0
C2528 C 0.35002 0.05772 0.9782 0.0
C2529 C 0.36129 0.07293 0.9829 0.0
C2530 C 0.37342 0.07541 0.99592 0.0
C2531 C 0.37457 0.06298 0.00338 0.0
C2532 C 0.36054 0.08612 0.97378 0.0
C2533 C 0.3618 0.098 0.9863 0.0
C2534 C 0.35801 0.08671 0.9528 0.0
C2535 C 0.35829 0.07562 0.93826 0.0
C2536 C 0.37104 0.07339 0.93746 0.0
C2537 C 0.37121 0.06287 0.92385 0.0
C2538 C 0.35874 0.05457 0.91084 0.0
C2539 C 0.34609 0.05681 0.91138 0.0
C2540 C 0.34585 0.06732 0.92499 0.0
C2541 C 0.36334 0.14659 0.93226 0.0
C2542 C 0.34882 0.1416 0.92346 0.0
C2543 C 0.36568 0.13669 0.94482 0.0
C2544 C 0.35355 0.12171 0.94859 0.0
C2545 C 0.33883 0.11722 0.94103 0.0
C2546 C 0.33647 0.12709 0.92871 0.0
C2547 C 0.35642 0.10995 0.95786 0.0
C2548 C 0.35569 0.09842 0.94525 0.0
C2549 C 0.35983 0.10995 0.97857 0.0
C2550 C 0.36109 0.12206 0.99247 0.0
C2551 C 0.34875 0.12481 0.9948 0.0
C2552 C 0.3501 0.13632 0.00788 0.0
C2553 C 0.3637 0.1451 0.01881 0.0
C2554 C 0.37596 0.14235 0.01673 0.0
C2555 C 0.37467 0.13085 0.00366 0.0
H2556 H 0.36472 0.15401 0.02893 0.0
H2557 H 0.3589 0.04643 0.90031 0.0
H2558 H 0.97334 0.31877 0.02493 0.0
H2559 H 0.95025 0.29499 0.01397 0.0
H2560 H 0.95581 0.31319 0.9537 0.0
H2561 H 0.97907 0.33672 0.96435 0.0
H2562 H 0.92416 0.29925 0.97274 0.0
H2563 H 0.96653 0.28976 0.95857 0.0
H2564 H 0.98902 0.28756 0.96857 0.0
H2565 H 0.96138 0.25291 0.01197 0.0
H2566 H 0.93876 0.25509 0.00242 0.0
H2567 H 0.88444 0.24342 0.89959 0.0
H2568 H 0.90083 0.26406 0.92259 0.0
H2569 H 0.89615 0.23079 0.9673 0.0
H2570 H 0.88011 0.20992 0.94363 0.0
H2571 H 0.9249 0.25072 0.96363 0.0
H2572 H 0.88155 0.25617 0.97459 0.0
H2573 H 0.8585 0.25794 0.96653 0.0
H2574 H 0.8863 0.2993 0.93294 0.0
H2575 H 0.9095 0.29768 0.94054 0.0
C2576 C 0.96963 0.31767 0.00934 0.0
C2577 C 0.97803 0.32958 0.99547 0.0
C2578 C 0.95646 0.3041 0.00312 0.0
C2579 C 0.95132 0.30238 0.98305 0.0
C2580 C 0.95957 0.31433 0.96927 0.0
C2581 C 0.97289 0.32772 0.97536 0.0
C2582 C 0.93749 0.28806 0.97611 0.0
C2583 C 0.92427 0.28861 0.97066 0.0
C2584 C 0.93744 0.27405 0.9743 0.0
C2585 C 0.95102 0.27274 0.97999 0.0
C2586 C 0.96529 0.2818 0.9704 0.0
C2587 C 0.97805 0.28053 0.97595 0.0
C2588 C 0.97665 0.27015 0.99095 0.0
C2589 C 0.96246 0.26098 1.00039 0.0
C2590 C 0.94967 0.26222 0.99491 0.0
C2591 C 0.8866 0.24048 0.91451 0.0
C2592 C 0.88106 0.22506 0.91979 0.0
C2593 C 0.89592 0.25232 0.92777 0.0
C2594 C 0.89972 0.24909 0.94686 0.0
C2595 C 0.89341 0.23362 0.95268 0.0
C2596 C 0.88411 0.22169 0.93926 0.0
C2597 C 0.91154 0.26191 0.9595 0.0
C2598 C 0.92448 0.26116 0.96606 0.0
C2599 C 0.9112 0.27567 0.9627 0.0
C2600 C 0.89728 0.27675 0.95808 0.0
C2601 C 0.88275 0.26559 0.96537 0.0
C2602 C 0.86965 0.26658 0.9609 0.0
C2603 C 0.87093 0.27871 0.94921 0.0
C2604 C 0.88532 0.28991 0.942 0.0
C2605 C 0.89846 0.28898 0.94642 0.0
H2606 H 0.86078 0.27945 0.94576 0.0
H2607 H 0.98654 0.26917 0.99522 0.0
H2608 H 0.70751 0.6579 0.02994 0.0
H2609 H 0.73125 0.65842 0.01915 0.0
H2610 H 0.71529 0.65115 0.95747 0.0
H2611 H 0.69192 0.65107 0.96797 0.0
H2612 H 0.72696 0.63088 0.97405 0.0
H2613 H 0.73956 0.68448 0.96718 0.0
H2614 H 0.74292 0.70876 0.98088 0.0
H2615 H 0.77584 0.71056 0.02394 0.0
H2616 H 0.77249 0.68615 0.01065 0.0
H2617 H 0.78231 0.64969 0.90011 0.0
H2618 H 0.76203 0.64514 0.92381 0.0
H2619 H 0.79605 0.66937 0.97019 0.0
H2620 H 0.81665 0.67467 0.94584 0.0
H2621 H 0.77707 0.67949 0.96985 0.0
H2622 H 0.76905 0.62928 0.973 0.0
H2623 H 0.7661 0.6048 0.96087 0.0
H2624 H 0.72526 0.59541 0.92826 0.0
H2625 H 0.72807 0.61993 0.93993 0.0
C2626 C 0.70912 0.65646 0.01409 0.0
C2627 C 0.6979 0.65451 0.99978 0.0
C2628 C 0.72265 0.65675 0.00797 0.0
C2629 C 0.72497 0.65476 0.98753 0.0
C2630 C 0.71369 0.65264 0.97332 0.0
C2631 C 0.70038 0.65268 0.97934 0.0
C2632 C 0.73916 0.65505 0.98059 0.0
C2633 C 0.73795 0.64147 0.9731 0.0
C2634 C 0.75361 0.66875 0.98021 0.0
C2635 C 0.75561 0.6834 0.98813 0.0
C2636 C 0.74738 0.68997 0.97971 0.0
C2637 C 0.74932 0.70377 0.98737 0.0
C2638 C 0.75954 0.71117 0.00332 0.0
C2639 C 0.76789 0.7048 0.01162 0.0
C2640 C 0.76598 0.69099 0.00403 0.0
C2641 C 0.7855 0.65387 0.91545 0.0
C2642 C 0.80109 0.66268 0.92106 0.0
C2643 C 0.77384 0.65111 0.92912 0.0
C2644 C 0.7774 0.65674 0.94898 0.0
C2645 C 0.79297 0.66487 0.95498 0.0
C2646 C 0.80473 0.66777 0.94114 0.0
C2647 C 0.76484 0.65534 0.96247 0.0
C2648 C 0.76628 0.66873 0.97121 0.0
C2649 C 0.75065 0.64136 0.96434 0.0
C2650 C 0.74882 0.62651 0.95732 0.0
C2651 C 0.75949 0.62205 0.96315 0.0
C2652 C 0.75783 0.60815 0.95636 0.0
C2653 C 0.74551 0.59856 0.94379 0.0
C2654 C 0.73479 0.60284 0.93801 0.0
C2655 C 0.7364 0.61673 0.94475 0.0
H2656 H 0.74425 0.58781 0.93854 0.0
H2657 H 0.76103 0.72185 0.00922 0.0
H2658 H 0.97313 0.66611 0.03203 0.0
H2659 H 0.95204 0.67026 0.0215 0.0
H2660 H 0.95845 0.66106 0.95966 0.0
H2661 H 0.97995 0.65784 0.96997 0.0
H2662 H 0.95315 0.68255 0.95852 0.0
H2663 H 0.9283 0.63404 0.99298 0.0
H2664 H 0.92286 0.61625 0.02147 0.0
H2665 H 0.90923 0.64265 0.05799 0.0
H2666 H 0.91477 0.6607 0.02977 0.0
H2667 H 0.86874 0.64522 0.93324 0.0
H2668 H 0.88786 0.64529 0.95624 0.0
H2669 H 0.91193 0.69482 0.95766 0.0
H2670 H 0.89289 0.69469 0.93422 0.0
H2671 H 0.90201 0.65509 0.99176 0.0
H2672 H 0.94981 0.70769 0.94938 0.0
H2673 H 0.95367 0.72097 0.91672 0.0
H2674 H 0.91905 0.67899 0.8894 0.0
H2675 H 0.91513 0.66544 0.92181 0.0
C2676 C 0.97005 0.66509 0.01619 0.0
C2677 C 0.9782 0.66167 0.00182 0.0
C2678 C 0.95792 0.66735 0.01018 0.0
C2679 C 0.95341 0.66579 0.98976 0.0
C2680 C 0.96167 0.66245 0.97547 0.0
C2681 C 0.97397 0.66055 0.98139 0.0
C2682 C 0.94012 0.6675 0.98301 0.0
C2683 C 0.94203 0.67662 0.96597 0.0
C2684 C 0.92545 0.65962 0.99239 0.0
C2685 C 0.92213 0.64881 0.00937 0.0
C2686 C 0.92426 0.63611 0.00714 0.0
C2687 C 0.92114 0.62597 0.02322 0.0
C2688 C 0.91575 0.62835 0.04155 0.0
C2689 C 0.91344 0.64084 0.0438 0.0
C2690 C 0.91656 0.65103 0.02777 0.0
C2691 C 0.87769 0.65607 0.93929 0.0
C2692 C 0.8793 0.66994 0.9322 0.0
C2693 C 0.88867 0.65612 0.95236 0.0
C2694 C 0.90152 0.67006 0.95838 0.0
C2695 C 0.90222 0.68392 0.95301 0.0
C2696 C 0.89125 0.68386 0.93983 0.0
C2697 C 0.91512 0.67003 0.96733 0.0
C2698 C 0.91326 0.66124 0.98468 0.0
C2699 C 0.92968 0.67761 0.95769 0.0
C2700 C 0.93206 0.68563 0.93809 0.0
C2701 C 0.94305 0.70131 0.93639 0.0
C2702 C 0.94524 0.70887 0.91792 0.0
C2703 C 0.93656 0.70084 0.90103 0.0
C2704 C 0.92571 0.68521 0.90253 0.0
C2705 C 0.9235 0.67759 0.92094 0.0
H2706 H 0.93829 0.70671 0.88675 0.0
H2707 H 0.91334 0.62049 0.05398 0.0
H2708 H 0.38026 0.32426 0.01794 0.0
H2709 H 0.37634 0.29911 0.00786 0.0
H2710 H 0.3381 0.29178 0.97025 0.0
H2711 H 0.34204 0.31695 0.98012 0.0
H2712 H 0.33236 0.26556 0.99315 0.0
H2713 H 0.37155 0.30344 0.94898 0.0
H2714 H 0.3963 0.32686 0.94176 0.0
H2715 H 0.42055 0.30792 0.97284 0.0
H2716 H 0.3959 0.28446 0.98049 0.0
H2717 H 0.32372 0.21383 0.91627 0.0
H2718 H 0.32625 0.23321 0.94038 0.0
H2719 H 0.3683 0.23688 0.96319 0.0
H2720 H 0.36596 0.21767 0.93835 0.0
H2721 H 0.37345 0.26388 0.95366 0.0
H2722 H 0.33485 0.22428 0.99343 0.0
H2723 H 0.31031 0.20077 1.00107 0.0
H2724 H 0.28517 0.22221 0.97995 0.0
H2725 H 0.30955 0.24578 0.97189 0.0
C2726 C 0.37095 0.31725 0.00762 0.0
C2727 C 0.3615 0.32263 0.99974 0.0
C2728 C 0.36874 0.30289 0.00187 0.0
C2729 C 0.35696 0.29359 0.98824 0.0
C2730 C 0.34723 0.29874 0.98082 0.0
C2731 C 0.34954 0.31316 0.9864 0.0
C2732 C 0.3552 0.27882 0.98091 0.0
C2733 C 0.34129 0.26514 0.98443 0.0
C2734 C 0.36707 0.27823 0.97019 0.0
C2735 C 0.38188 0.29229 0.96552 0.0
C2736 C 0.38215 0.30433 0.95443 0.0
C2737 C 0.39616 0.3176 0.95023 0.0
C2738 C 0.40999 0.3189 0.95689 0.0
C2739 C 0.40983 0.30691 0.96772 0.0
C2740 C 0.39585 0.29363 0.97199 0.0
C2741 C 0.3332 0.21836 0.92694 0.0
C2742 C 0.34463 0.21424 0.92549 0.0
C2743 C 0.33464 0.22946 0.9408 0.0
C2744 C 0.34746 0.23657 0.95376 0.0
C2745 C 0.3583 0.23159 0.95337 0.0
C2746 C 0.35688 0.22048 0.93937 0.0
C2747 C 0.35042 0.25046 0.96551 0.0
C2748 C 0.36457 0.26409 0.96276 0.0
C2749 C 0.33879 0.25095 0.97709 0.0
C2750 C 0.32406 0.2368 0.98195 0.0
C2751 C 0.32409 0.22396 0.99028 0.0
C2752 C 0.3102 0.21062 0.99471 0.0
C2753 C 0.29619 0.20999 0.99097 0.0
C2754 C 0.29604 0.22271 0.98284 0.0
C2755 C 0.30989 0.23608 0.97837 0.0
H2756 H 0.28545 0.19965 0.99441 0.0
H2757 H 0.42082 0.32918 0.95363 0.0
H2758 H 0.70829 0.03469 0.98078 0.0
H2759 H 0.73299 0.05596 0.96944 0.0
H2760 H 0.72895 0.08611 0.01215 0.0
H2761 H 0.70431 0.06475 0.02383 0.0
H2762 H 0.73875 0.08125 0.9513 0.0
H2763 H 0.76502 0.11521 0.02549 0.0
H2764 H 0.76522 0.1102 0.06193 0.0
H2765 H 0.75587 0.06451 0.04903 0.0
H2766 H 0.75583 0.06931 0.01252 0.0
H2767 H 0.79435 0.15558 0.9274 0.0
H2768 H 0.77478 0.13662 0.95001 0.0
H2769 H 0.80299 0.11608 0.95966 0.0
H2770 H 0.82257 0.13501 0.93673 0.0
H2771 H 0.78284 0.11577 0.9953 0.0
H2772 H 0.78136 0.09957 0.92588 0.0
H2773 H 0.7824 0.10331 0.88898 0.0
H2774 H 0.74393 0.11081 0.89213 0.0
H2775 H 0.74269 0.1071 0.9291 0.0
C2776 C 0.71273 0.04581 0.98792 0.0
C2777 C 0.70433 0.04803 0.0032 0.0
C2778 C 0.72685 0.05798 0.98138 0.0
C2779 C 0.73292 0.07267 0.98996 0.0
C2780 C 0.72466 0.07486 0.00547 0.0
C2781 C 0.71054 0.06265 0.01209 0.0
C2782 C 0.74743 0.08579 0.98185 0.0
C2783 C 0.74835 0.08871 0.96101 0.0
C2784 C 0.76012 0.09555 0.99437 0.0
C2785 C 0.76027 0.09258 0.01628 0.0
C2786 C 0.76306 0.10411 0.03043 0.0
C2787 C 0.76314 0.1013 0.0511 0.0
C2788 C 0.76051 0.08703 0.05779 0.0
C2789 C 0.75785 0.07554 0.04383 0.0
C2790 C 0.75777 0.0783 0.02315 0.0
C2791 C 0.79673 0.14754 0.93522 0.0
C2792 C 0.81003 0.14686 0.93062 0.0
C2793 C 0.7855 0.13664 0.94798 0.0
C2794 C 0.78741 0.12491 0.95639 0.0
C2795 C 0.80138 0.12513 0.95345 0.0
C2796 C 0.8126 0.136 0.94049 0.0
C2797 C 0.77388 0.11116 0.965 0.0
C2798 C 0.77316 0.1082 0.98577 0.0
C2799 C 0.76145 0.10112 0.95244 0.0
C2800 C 0.76202 0.1032 0.93023 0.0
C2801 C 0.77318 0.1021 0.9187 0.0
C2802 C 0.77378 0.10417 0.89778 0.0
C2803 C 0.76329 0.10737 0.88821 0.0
C2804 C 0.75208 0.10837 0.89955 0.0
C2805 C 0.75139 0.10623 0.92049 0.0
H2806 H 0.76382 0.10904 0.87202 0.0
H2807 H 0.76056 0.08487 0.0738 0.0
H2808 H 0.67085 0.98178 0.06405 0.0
H2809 H 0.67205 0.95902 0.0739 0.0
H2810 H 0.65675 0.93981 0.01442 0.0
H2811 H 0.65523 0.96249 0.00459 0.0
H2812 H 0.64217 0.91829 0.04196 0.0
H2813 H 0.69467 0.95499 0.02876 0.0
H2814 H 0.71879 0.97992 0.03104 0.0
H2815 H 0.72077 0.97383 0.09493 0.0
H2816 H 0.69654 0.94895 0.09309 0.0
H2817 H 0.68772 0.87895 0.08699 0.0
H2818 H 0.68541 0.89661 0.06353 0.0
H2819 H 0.64504 0.88988 0.0955 0.0
H2820 H 0.6473 0.8722 0.11863 0.0
H2821 H 0.68894 0.92317 0.07463 0.0
H2822 H 0.62263 0.89802 0.06652 0.0
H2823 H 0.5992 0.87277 0.0619 0.0
H2824 H 0.62617 0.85493 0.03581 0.0
H2825 H 0.64973 0.88011 0.03999 0.0
C2826 C 0.66778 0.97274 0.05303 0.0
C2827 C 0.663 0.97397 0.0335 0.0
C2828 C 0.66854 0.95974 0.05866 0.0
C2829 C 0.6647 0.94775 0.04483 0.0
C2830 C 0.65981 0.94891 0.02535 0.0
C2831 C 0.65899 0.9619 0.01972 0.0
C2832 C 0.6656 0.93395 0.05092 0.0
C2833 C 0.65242 0.91935 0.04901 0.0
C2834 C 0.6791 0.93522 0.05961 0.0
C2835 C 0.69373 0.95014 0.06079 0.0
C2836 C 0.7002 0.95901 0.04332 0.0
C2837 C 0.71389 0.97313 0.04453 0.0
C2838 C 0.72129 0.97846 0.06313 0.0
C2839 C 0.71502 0.96968 0.08054 0.0
C2840 C 0.70132 0.95556 0.07941 0.0
C2841 C 0.67798 0.88074 0.08835 0.0
C2842 C 0.66754 0.87407 0.10435 0.0
C2843 C 0.67676 0.89096 0.07513 0.0
C2844 C 0.66504 0.8946 0.07768 0.0
C2845 C 0.65403 0.88711 0.09292 0.0
C2846 C 0.65528 0.87696 0.10612 0.0
C2847 C 0.66534 0.90754 0.06633 0.0
C2848 C 0.67874 0.92205 0.06732 0.0
C2849 C 0.65214 0.90611 0.05648 0.0
C2850 C 0.63797 0.89095 0.05371 0.0
C2851 C 0.62356 0.88874 0.05969 0.0
C2852 C 0.61025 0.87443 0.05717 0.0
C2853 C 0.6112 0.86225 0.04861 0.0
C2854 C 0.62545 0.86436 0.0425 0.0
C2855 C 0.63879 0.87865 0.04498 0.0
H2856 H 0.60088 0.85117 0.04668 0.0
H2857 H 0.73189 0.9894 0.06403 0.0
H2858 H 0.04565 0.70775 0.02047 0.0
H2859 H 0.06852 0.73117 0.03235 0.0
H2860 H 0.08872 0.70434 0.05203 0.0
H2861 H 0.06591 0.68091 0.04019 0.0
H2862 H 0.08986 0.72393 0.08136 0.0
H2863 H 0.10252 0.72709 0.01083 0.0
H2864 H 0.09798 0.72756 0.9743 0.0
H2865 H 0.09384 0.76767 0.98214 0.0
H2866 H 0.09814 0.76731 0.01878 0.0
H2867 H 0.16076 0.78359 0.1119 0.0
H2868 H 0.14336 0.76266 0.08943 0.0
H2869 H 0.1227 0.78922 0.07041 0.0
H2870 H 0.14032 0.81028 0.0927 0.0
H2871 H 0.12234 0.77005 0.03968 0.0
H2872 H 0.10809 0.76662 0.10931 0.0
H2873 H 0.1124 0.76695 0.14602 0.0
H2874 H 0.11823 0.72771 0.14033 0.0
H2875 H 0.11431 0.72735 0.10348 0.0
C2876 C 0.05504 0.70686 0.02711 0.0
C2877 C 0.05396 0.69246 0.02938 0.0
C2878 C 0.06813 0.72027 0.03385 0.0
C2879 C 0.08039 0.71954 0.04301 0.0
C2880 C 0.07942 0.7052 0.04501 0.0
C2881 C 0.06639 0.69181 0.03817 0.0
C2882 C 0.09388 0.7336 0.05146 0.0
C2883 C 0.09711 0.7339 0.07215 0.0
C2884 C 0.10305 0.74683 0.03961 0.0
C2885 C 0.10051 0.74709 0.01758 0.0
C2886 C 0.10051 0.73594 0.00479 0.0
C2887 C 0.09801 0.73619 0.98406 0.0
C2888 C 0.09559 0.74761 0.97591 0.0
C2889 C 0.0957 0.75882 0.98847 0.0
C2890 C 0.09819 0.7586 0.00922 0.0
C2891 C 0.15304 0.78523 0.10213 0.0
C2892 C 0.15198 0.79857 0.10377 0.0
C2893 C 0.14298 0.77322 0.08948 0.0
C2894 C 0.13151 0.77425 0.07854 0.0
C2895 C 0.13143 0.78817 0.0787 0.0
C2896 C 0.14157 0.80023 0.09131 0.0
C2897 C 0.11842 0.76024 0.06945 0.0
C2898 C 0.11517 0.76 0.04879 0.0
C2899 C 0.10905 0.7471 0.08135 0.0
C2900 C 0.11106 0.74706 0.10359 0.0
C2901 C 0.11038 0.75812 0.11586 0.0
C2902 C 0.11274 0.7583 0.13669 0.0
C2903 C 0.11559 0.74737 0.1455 0.0
C2904 C 0.11604 0.73619 0.13348 0.0
C2905 C 0.11376 0.73599 0.11261 0.0
H2906 H 0.11744 0.74755 0.16163 0.0
H2907 H 0.09365 0.74779 0.95985 0.0
H2908 H 0.31941 0.33904 0.04527 0.0
H2909 H 0.29467 0.33585 0.05591 0.0
H2910 H 0.3062 0.37894 0.02762 0.0
H2911 H 0.33057 0.38166 0.01595 0.0
H2912 H 0.28798 0.35017 0.0804 0.0
H2913 H 0.27448 0.38136 0.01646 0.0
H2914 H 0.27811 0.38553 0.97968 0.0
H2915 H 0.28073 0.34445 0.97351 0.0
H2916 H 0.27691 0.33992 0.01019 0.0
H2917 H 0.22855 0.37212 0.09882 0.0
H2918 H 0.24898 0.37494 0.07568 0.0
H2919 H 0.23166 0.32622 0.0791 0.0
H2920 H 0.21131 0.3234 0.102 0.0
H2921 H 0.2521 0.35842 0.03767 0.0
H2922 H 0.26381 0.32474 0.09732 0.0
H2923 H 0.25732 0.31679 0.13287 0.0
H2924 H 0.25523 0.35753 0.14533 0.0
H2925 H 0.26241 0.36608 0.11018 0.0
C2926 C 0.31657 0.34774 0.04113 0.0
C2927 C 0.3269 0.36057 0.02975 0.0
C2928 C 0.30243 0.34594 0.04727 0.0
C2929 C 0.29837 0.35707 0.04249 0.0
C2930 C 0.30875 0.36995 0.03112 0.0
C2931 C 0.32277 0.37157 0.02457 0.0
C2932 C 0.28368 0.35551 0.05038 0.0
C2933 C 0.28012 0.35181 0.07086 0.0
C2934 C 0.27336 0.35783 0.0382 0.0
C2935 C 0.27559 0.36041 0.01611 0.0
C2936 C 0.27579 0.3732 0.00724 0.0
C2937 C 0.27789 0.37562 0.98642 0.0
C2938 C 0.27971 0.36529 0.97428 0.0
C2939 C 0.27938 0.35248 0.98294 0.0
C2940 C 0.27728 0.34999 0.00375 0.0
C2941 C 0.22866 0.36195 0.09373 0.0
C2942 C 0.21835 0.34754 0.10202 0.0
C2943 C 0.24035 0.36356 0.0806 0.0
C2944 C 0.24191 0.3508 0.07587 0.0
C2945 C 0.23066 0.3362 0.08256 0.0
C2946 C 0.219 0.33459 0.09556 0.0
C2947 C 0.25656 0.35296 0.06738 0.0
C2948 C 0.26009 0.35683 0.04698 0.0
C2949 C 0.26671 0.35039 0.07944 0.0
C2950 C 0.26342 0.34593 0.10101 0.0
C2951 C 0.26214 0.33209 0.10771 0.0
C2952 C 0.25838 0.3275 0.12781 0.0
C2953 C 0.25585 0.33664 0.14134 0.0
C2954 C 0.25725 0.35048 0.13486 0.0
C2955 C 0.26119 0.35523 0.11486 0.0
H2956 H 0.25286 0.33302 0.15685 0.0
H2957 H 0.28133 0.36719 0.95817 0.0
H2958 H 0.73325 0.71543 0.35113 0.0
H2959 H 0.75505 0.71292 0.36263 0.0
H2960 H 0.72369 0.67076 0.39322 0.0
H2961 H 0.70196 0.67368 0.38255 0.0
H2962 H 0.74597 0.68615 0.41681 0.0
H2963 H 0.74376 0.67302 0.34688 0.0
H2964 H 0.74322 0.67642 0.31007 0.0
H2965 H 0.78767 0.71731 0.31303 0.0
H2966 H 0.78838 0.71425 0.34992 0.0
H2967 H 0.79411 0.65662 0.43446 0.0
H2968 H 0.77664 0.66046 0.41267 0.0
H2969 H 0.80927 0.70901 0.41068 0.0
H2970 H 0.82678 0.7052 0.43285 0.0
H2971 H 0.78793 0.6915 0.37185 0.0
H2972 H 0.78834 0.70391 0.44355 0.0
H2973 H 0.78861 0.69784 0.4796 0.0
H2974 H 0.74629 0.65517 0.47177 0.0
H2975 H 0.74593 0.66088 0.43557 0.0
C2976 C 0.73101 0.70557 0.3602 0.0
C2977 C 0.71588 0.69474 0.36591 0.0
C2978 C 0.7435 0.70409 0.36668 0.0
C2979 C 0.74111 0.69152 0.37862 0.0
C2980 C 0.72593 0.68059 0.38408 0.0
C2981 C 0.71348 0.68223 0.37791 0.0
C2982 C 0.75437 0.69004 0.38614 0.0
C2983 C 0.75501 0.6872 0.40682 0.0
C2984 C 0.76645 0.69162 0.37336 0.0
C2985 C 0.76605 0.69349 0.35119 0.0
C2986 C 0.75337 0.6828 0.3397 0.0
C2987 C 0.75304 0.68466 0.31882 0.0
C2988 C 0.76538 0.6971 0.30922 0.0
C2989 C 0.7781 0.70769 0.32049 0.0
C2990 C 0.77848 0.70589 0.34138 0.0
C2991 C 0.79788 0.668 0.42855 0.0
C2992 C 0.81182 0.68061 0.43517 0.0
C2993 C 0.78786 0.67019 0.4162 0.0
C2994 C 0.79162 0.68502 0.4102 0.0
C2995 C 0.80622 0.69747 0.41506 0.0
C2996 C 0.81626 0.69528 0.4276 0.0
C2997 C 0.77929 0.68762 0.40223 0.0
C2998 C 0.77886 0.6906 0.38164 0.0
C2999 C 0.76725 0.68597 0.41496 0.0
C3000 C 0.76717 0.68277 0.43685 0.0
C3001 C 0.77914 0.6932 0.4495 0.0
C3002 C 0.7793 0.68983 0.46996 0.0
C3003 C 0.76748 0.67612 0.47796 0.0
C3004 C 0.75544 0.66578 0.46554 0.0
C3005 C 0.75524 0.66908 0.44507 0.0
H3006 H 0.76764 0.67352 0.49379 0.0
H3007 H 0.76511 0.69851 0.29306 0.0
H3008 H 0.34945 0.03781 0.38201 0.0
H3009 H 0.35172 0.06181 0.39392 0.0
H3010 H 0.31057 0.05177 0.36089 0.0
H3011 H 0.30874 0.02804 0.34809 0.0
H3012 H 0.32932 0.08103 0.35898 0.0
H3013 H 0.31041 0.04552 0.41331 0.0
H3014 H 0.30936 0.02633 0.43737 0.0
H3015 H 0.35338 0.05965 0.46158 0.0
H3016 H 0.35481 0.079 0.43747 0.0
H3017 H 0.3185 0.13043 0.43442 0.0
H3018 H 0.31465 0.10947 0.41155 0.0
H3019 H 0.36268 0.12334 0.41744 0.0
H3020 H 0.3666 0.1443 0.43984 0.0
H3021 H 0.33745 0.09151 0.4325 0.0
H3022 H 0.35502 0.12685 0.37546 0.0
H3023 H 0.35333 0.1451 0.35226 0.0
H3024 H 0.30765 0.11044 0.33486 0.0
H3025 H 0.30898 0.09204 0.35821 0.0
C3026 C 0.34095 0.04077 0.37718 0.0
C3027 C 0.32884 0.03099 0.36427 0.0
C3028 C 0.34219 0.05447 0.38408 0.0
C3029 C 0.33108 0.05848 0.37878 0.0
C3030 C 0.31925 0.04894 0.36533 0.0
C3031 C 0.31819 0.03536 0.35806 0.0
C3032 C 0.33167 0.07237 0.38778 0.0
C3033 C 0.3309 0.08319 0.3751 0.0
C3034 C 0.33359 0.07526 0.40885 0.0
C3035 C 0.33277 0.06368 0.42346 0.0
C3036 C 0.31992 0.04873 0.42367 0.0
C3037 C 0.31925 0.03783 0.43733 0.0
C3038 C 0.33131 0.04176 0.45096 0.0
C3039 C 0.34405 0.05662 0.451 0.0
C3040 C 0.34479 0.06756 0.43735 0.0
C3041 C 0.32834 0.12942 0.43 0.0
C3042 C 0.34285 0.13898 0.4388 0.0
C3043 C 0.32612 0.1174 0.41709 0.0
C3044 C 0.33838 0.11483 0.41294 0.0
C3045 C 0.3531 0.12515 0.42043 0.0
C3046 C 0.35534 0.13716 0.43312 0.0
C3047 C 0.3356 0.10025 0.40365 0.0
C3048 C 0.33582 0.08925 0.4164 0.0
C3049 C 0.33279 0.09708 0.38281 0.0
C3050 C 0.33203 0.10813 0.36877 0.0
C3051 C 0.34455 0.12317 0.36687 0.0
C3052 C 0.34367 0.13353 0.35364 0.0
C3053 C 0.33037 0.12895 0.34214 0.0
C3054 C 0.31793 0.11398 0.3438 0.0
C3055 C 0.31875 0.10358 0.35702 0.0
H3056 H 0.32972 0.13698 0.33191 0.0
H3057 H 0.33077 0.0333 0.46152 0.0
H3058 H 0.98604 0.31891 0.37756 0.0
H3059 H 0.96232 0.29693 0.38992 0.0
H3060 H 0.97616 0.26614 0.36494 0.0
H3061 H 0.99982 0.28823 0.3519 0.0
H3062 H 0.94579 0.25403 0.36037 0.0
H3063 H 0.98083 0.27509 0.41537 0.0
H3064 H 0.99935 0.29517 0.43837 0.0
H3065 H 0.9643 0.30488 0.45776 0.0
H3066 H 0.94561 0.285 0.43465 0.0
H3067 H 0.89525 0.19469 0.43399 0.0
H3068 H 0.91625 0.21224 0.41139 0.0
H3069 H 0.90369 0.2469 0.42098 0.0
H3070 H 0.88275 0.22944 0.44318 0.0
H3071 H 0.93435 0.25507 0.43302 0.0
H3072 H 0.89941 0.23315 0.3764 0.0
H3073 H 0.88155 0.21201 0.35413 0.0
H3074 H 0.91742 0.20226 0.33931 0.0
H3075 H 0.93544 0.22322 0.36174 0.0
C3076 C 0.984 0.30747 0.37455 0.0
C3077 C 0.99488 0.30532 0.36393 0.0
C3078 C 0.97044 0.29488 0.3817 0.0
C3079 C 0.96756 0.27983 0.37878 0.0
C3080 C 0.97813 0.27761 0.36748 0.0
C3081 C 0.99167 0.29025 0.36009 0.0
C3082 C 0.95384 0.26662 0.38831 0.0
C3083 C 0.9434 0.25416 0.37632 0.0
C3084 C 0.95067 0.2667 0.40915 0.0
C3085 C 0.96185 0.27864 0.42314 0.0
C3086 C 0.97709 0.28158 0.42443 0.0
C3087 C 0.98762 0.29292 0.43751 0.0
C3088 C 0.98301 0.30132 0.44949 0.0
C3089 C 0.96786 0.29837 0.44846 0.0
C3090 C 0.95729 0.28706 0.43538 0.0
C3091 C 0.89661 0.20581 0.43054 0.0
C3092 C 0.88742 0.21074 0.44032 0.0
C3093 C 0.90865 0.21587 0.41777 0.0
C3094 C 0.91161 0.23093 0.41469 0.0
C3095 C 0.90165 0.23536 0.42321 0.0
C3096 C 0.88965 0.22536 0.4358 0.0
C3097 C 0.9261 0.24278 0.40499 0.0
C3098 C 0.93677 0.25493 0.41708 0.0
C3099 C 0.92955 0.24222 0.38441 0.0
C3100 C 0.91872 0.22963 0.37094 0.0
C3101 C 0.90345 0.2264 0.36856 0.0
C3102 C 0.8933 0.21447 0.35587 0.0
C3103 C 0.89833 0.20576 0.34536 0.0
C3104 C 0.91353 0.209 0.34749 0.0
C3105 C 0.92372 0.22091 0.36018 0.0
H3106 H 0.89046 0.19654 0.33554 0.0
H3107 H 0.99118 0.31009 0.4596 0.0
H3108 H 1.00875 0.36438 0.31399 0.0
H3109 H 1.00501 0.38513 0.30166 0.0
H3110 H 0.04527 0.41808 0.33467 0.0
H3111 H 0.04879 0.3972 0.34757 0.0
H3112 H 0.02362 0.42601 0.33641 0.0
H3113 H 0.04696 0.41236 0.28381 0.0
H3114 H 0.05012 0.39519 0.26021 0.0
H3115 H 1.00635 0.38221 0.23309 0.0
H3116 H 1.00281 0.39913 0.25674 0.0
H3117 H 0.03686 0.48969 0.27076 0.0
H3118 H 0.03771 0.47053 0.29292 0.0
H3119 H 0.99557 0.43508 0.26606 0.0
H3120 H 0.9948 0.45413 0.24395 0.0
H3121 H 0.01921 0.4294 0.26221 0.0
H3122 H 0.99681 0.44446 0.31538 0.0
H3123 H 0.99517 0.46275 0.33856 0.0
H3124 H 0.03925 0.47472 0.36382 0.0
H3125 H 0.04125 0.45665 0.34058 0.0
C3126 C 0.01675 0.37602 0.31875 0.0
C3127 C 0.02915 0.37916 0.3316 0.0
C3128 C 0.01463 0.38791 0.31163 0.0
C3129 C 0.02503 0.40325 0.31689 0.0
C3130 C 0.03712 0.40636 0.33032 0.0
C3131 C 0.03915 0.39443 0.33763 0.0
C3132 C 0.02359 0.41598 0.30764 0.0
C3133 C 0.02283 0.42686 0.32017 0.0
C3134 C 0.02247 0.41709 0.28645 0.0
C3135 C 0.02455 0.4069 0.27218 0.0
C3136 C 0.03795 0.40575 0.27292 0.0
C3137 C 0.03982 0.39608 0.25952 0.0
C3138 C 0.02842 0.38759 0.2452 0.0
C3139 C 0.01515 0.38878 0.24422 0.0
C3140 C 0.01321 0.39841 0.25761 0.0
C3141 C 0.02746 0.47792 0.27028 0.0
C3142 C 0.01571 0.47336 0.25579 0.0
C3143 C 0.02799 0.46696 0.28284 0.0
C3144 C 0.01675 0.45133 0.28105 0.0
C3145 C 1.00439 0.44703 0.26766 0.0
C3146 C 1.00387 0.45793 0.25516 0.0
C3147 C 0.01885 0.43922 0.29095 0.0
C3148 C 0.01991 0.42852 0.27847 0.0
C3149 C 0.02045 0.43847 0.31209 0.0
C3150 C 0.01925 0.44931 0.32609 0.0
C3151 C 1.00622 0.4511 0.32574 0.0
C3152 C 1.00521 0.4614 0.33893 0.0
C3153 C 0.01712 0.46992 0.35261 0.0
C3154 C 0.03004 0.46812 0.35319 0.0
C3155 C 0.03111 0.45784 0.34003 0.0
H3156 H 0.01631 0.47789 0.36281 0.0
H3157 H 0.0299 0.38011 0.23483 0.0
H3158 H 0.6536 0.65742 0.30573 0.0
H3159 H 0.63107 0.63395 0.29356 0.0
H3160 H 0.60599 0.63256 0.34712 0.0
H3161 H 0.62866 0.6559 0.3596 0.0
H3162 H 0.59948 0.60438 0.33756 0.0
H3163 H 0.60007 0.6459 0.30243 0.0
H3164 H 0.61125 0.66958 0.28208 0.0
H3165 H 0.6187 0.64625 0.23294 0.0
H3166 H 0.60777 0.62247 0.25311 0.0
H3167 H 0.53516 0.56424 0.25218 0.0
H3168 H 0.55129 0.58585 0.27469 0.0
H3169 H 0.5773 0.56393 0.29103 0.0
H3170 H 0.56098 0.54231 0.26892 0.0
H3171 H 0.58022 0.60476 0.26865 0.0
H3172 H 0.59597 0.57709 0.33515 0.0
H3173 H 0.58315 0.55416 0.35689 0.0
H3174 H 0.53943 0.55088 0.34578 0.0
H3175 H 0.552 0.57391 0.32422 0.0
C3176 C 0.64334 0.65206 0.31501 0.0
C3177 C 0.64289 0.65857 0.33359 0.0
C3178 C 0.63042 0.63867 0.30798 0.0
C3179 C 0.6167 0.6316 0.31924 0.0
C3180 C 0.6164 0.63781 0.33812 0.0
C3181 C 0.62936 0.65117 0.34522 0.0
C3182 C 0.60262 0.61799 0.31102 0.0
C3183 C 0.59523 0.60445 0.32252 0.0
C3184 C 0.59674 0.61819 0.29163 0.0
C3185 C 0.6032 0.63243 0.27935 0.0
C3186 C 0.60418 0.64584 0.28733 0.0
C3187 C 0.61046 0.65928 0.27583 0.0
C3188 C 0.6157 0.65943 0.25625 0.0
C3189 C 0.61464 0.64612 0.24812 0.0
C3190 C 0.60839 0.63265 0.25957 0.0
C3191 C 0.54384 0.56376 0.26138 0.0
C3192 C 0.54664 0.5515 0.25924 0.0
C3193 C 0.5532 0.57618 0.27402 0.0
C3194 C 0.56555 0.57658 0.28465 0.0
C3195 C 0.56771 0.56384 0.28338 0.0
C3196 C 0.55834 0.55143 0.2708 0.0
C3197 C 0.5773 0.59093 0.29493 0.0
C3198 C 0.58431 0.60465 0.28379 0.0
C3199 C 0.58257 0.59097 0.31481 0.0
C3200 C 0.57493 0.57718 0.32793 0.0
C3201 C 0.58363 0.57153 0.33742 0.0
C3202 C 0.5764 0.5585 0.3497 0.0
C3203 C 0.56048 0.55105 0.35267 0.0
C3204 C 0.55175 0.55663 0.34341 0.0
C3205 C 0.55892 0.56966 0.33113 0.0
H3206 H 0.55491 0.54096 0.36218 0.0
H3207 H 0.62055 0.66984 0.24737 0.0
H3208 H 0.37214 0.01662 0.3128 0.0
H3209 H 0.39658 0.02007 0.3003 0.0
H3210 H 0.38979 0.98089 0.335 0.0
H3211 H 0.36554 0.97774 0.34813 0.0
H3212 H 0.41918 1.00188 0.33586 0.0
H3213 H 0.38165 0.97824 0.28372 0.0
H3214 H 0.36117 0.97492 0.26011 0.0
H3215 H 0.39221 0.01799 0.232 0.0
H3216 H 0.41284 0.02168 0.25565 0.0
H3217 H 0.46816 0.98631 0.27005 0.0
H3218 H 0.44842 0.98612 0.29224 0.0
H3219 H 0.45647 0.02862 0.26565 0.0
H3220 H 0.47608 0.02879 0.2436 0.0
H3221 H 0.42651 1.00514 0.2616 0.0
H3222 H 0.46457 0.02747 0.31454 0.0
H3223 H 0.48446 0.02879 0.33769 0.0
H3224 H 0.4516 0.98538 0.36345 0.0
H3225 H 0.43155 0.9837 0.34024 0.0
C3226 C 0.37591 0.00881 0.3179 0.0
C3227 C 0.36685 0.99683 0.33132 0.0
C3228 C 0.38986 0.01075 0.31068 0.0
C3229 C 0.39493 1.00055 0.31635 0.0
C3230 C 0.38615 0.98889 0.33032 0.0
C3231 C 0.37226 0.98707 0.33777 0.0
C3232 C 0.40903 1.00172 0.30707 0.0
C3233 C 0.42071 1.00243 0.31961 0.0
C3234 C 0.41112 1.00249 0.28586 0.0
C3235 C 0.39875 1.00031 0.27159 0.0
C3236 C 0.38408 0.98706 0.2726 0.0
C3237 C 0.37245 0.9851 0.2592 0.0
C3238 C 0.37537 0.99625 0.2446 0.0
C3239 C 0.38996 0.00937 0.24334 0.0
C3240 C 0.40162 0.0114 0.25673 0.0
C3241 C 0.46617 0.99593 0.26965 0.0
C3242 C 0.47367 0.00761 0.25525 0.0
C3243 C 0.45482 0.99578 0.28221 0.0
C3244 C 0.45087 0.0073 0.28049 0.0
C3245 C 0.45927 0.01958 0.2672 0.0
C3246 C 0.47056 0.01975 0.25474 0.0
C3247 C 0.4368 0.00565 0.29037 0.0
C3248 C 0.42503 1.00469 0.27787 0.0
C3249 C 0.43456 1.00436 0.31152 0.0
C3250 C 0.44659 1.00539 0.32551 0.0
C3251 C 0.46161 0.01814 0.32501 0.0
C3252 C 0.47291 0.01897 0.33817 0.0
C3253 C 0.46931 0.00716 0.35199 0.0
C3254 C 0.45439 0.99451 0.35272 0.0
C3255 C 0.44304 0.99362 0.33958 0.0
H3256 H 0.47808 0.00782 0.36217 0.0
H3257 H 0.36635 0.99471 0.23423 0.0
H3258 H 0.65523 0.00568 0.30458 0.0
H3259 H 0.63278 0.00717 0.29351 0.0
H3260 H 0.6056 0.97591 0.3409 0.0
H3261 H 0.62816 0.97456 0.35227 0.0
H3262 H 0.60639 0.98597 0.27873 0.0
H3263 H 0.57697 0.9837 0.35479 0.0
H3264 H 0.58408 0.99135 0.39036 0.0
H3265 H 0.62911 0.02668 0.37194 0.0
H3266 H 0.62219 0.01939 0.33628 0.0
H3267 H 0.53376 0.97325 0.25381 0.0
H3268 H 0.5519 0.97013 0.27531 0.0
H3269 H 0.57403 0.01803 0.2916 0.0
H3270 H 0.55581 0.0211 0.27012 0.0
H3271 H 0.57523 0.99965 0.32304 0.0
H3272 H 0.58761 0.00958 0.25221 0.0
H3273 H 0.58255 1.00505 0.21566 0.0
H3274 H 0.57482 0.9593 0.22246 0.0
H3275 H 0.57984 0.96358 0.25908 0.0
C3276 C 0.6445 0.99919 0.31274 0.0
C3277 C 0.64349 0.99 0.32931 0.0
C3278 C 0.63165 1.00002 0.30635 0.0
C3279 C 0.61747 0.99172 0.3164 0.0
C3280 C 0.61644 0.98259 0.33305 0.0
C3281 C 0.62933 0.98178 0.33949 0.0
C3282 C 0.60374 0.99231 0.30891 0.0
C3283 C 0.59957 0.98889 0.28851 0.0
C3284 C 0.59486 0.9963 0.32151 0.0
C3285 C 0.59911 1.00087 0.34289 0.0
C3286 C 0.58837 0.99313 0.35834 0.0
C3287 C 0.59237 0.9974 0.37851 0.0
C3288 C 0.60705 0.00946 0.38341 0.0
C3289 C 0.61776 0.0173 0.36814 0.0
C3290 C 0.61381 0.01309 0.34794 0.0
C3291 C 0.54196 0.98288 0.26287 0.0
C3292 C 0.54326 0.99735 0.26062 0.0
C3293 C 0.55244 0.98115 0.27495 0.0
C3294 C 0.56448 0.99391 0.28482 0.0
C3295 C 0.56483 0.00803 0.28418 0.0
C3296 C 0.55434 0.00976 0.27205 0.0
C3297 C 0.57787 0.99311 0.29303 0.0
C3298 C 0.58198 0.99653 0.31344 0.0
C3299 C 0.58695 0.98945 0.28038 0.0
C3300 C 0.58395 0.98684 0.25839 0.0
C3301 C 0.58474 0.99852 0.24592 0.0
C3302 C 0.58192 0.99601 0.22519 0.0
C3303 C 0.57829 0.98187 0.21676 0.0
C3304 C 0.57759 0.97024 0.22902 0.0
C3305 C 0.58047 0.97271 0.24975 0.0
H3306 H 0.57608 0.97993 0.20072 0.0
H3307 H 0.61013 0.01274 0.39904 0.0
H3308 H 0.0322 0.6506 0.362 0.0
H3309 H 0.03 0.62641 0.35074 0.0
H3310 H 0.02748 0.63841 0.28883 0.0
H3311 H 0.02898 0.66222 0.30012 0.0
H3312 H 1.00842 0.61008 0.29284 0.0
H3313 H 0.06143 0.64196 0.31169 0.0
H3314 H 0.08317 0.65836 0.33422 0.0
H3315 H 0.06871 0.62096 0.37591 0.0
H3316 H 0.04676 0.60438 0.35373 0.0
H3317 H 0.04748 0.56806 0.25385 0.0
H3318 H 0.04984 0.58854 0.27613 0.0
H3319 H 1.00309 0.55925 0.29622 0.0
H3320 H 1.00071 0.53883 0.27368 0.0
H3321 H 0.04649 0.59531 0.31491 0.0
H3322 H 0.98471 0.57971 0.29217 0.0
H3323 H 0.96577 0.5655 0.26523 0.0
H3324 H 1.00248 0.57449 0.22424 0.0
H3325 H 0.02161 0.58887 0.25085 0.0
C3326 C 0.03109 0.64801 0.346 0.0
C3327 C 0.03079 0.65832 0.33194 0.0
C3328 C 0.02994 0.63422 0.33955 0.0
C3329 C 0.02882 0.63062 0.31887 0.0
C3330 C 0.0283 0.64085 0.30487 0.0
C3331 C 0.0292 0.6545 0.31133 0.0
C3332 C 0.02825 0.61628 0.31168 0.0
C3333 C 0.01671 0.60686 0.29784 0.0
C3334 C 0.03918 0.61206 0.31782 0.0
C3335 C 0.05237 0.62199 0.33116 0.0
C3336 C 0.06283 0.63727 0.32573 0.0
C3337 C 0.07519 0.64659 0.33843 0.0
C3338 C 0.07729 0.64072 0.35652 0.0
C3339 C 0.06705 0.6255 0.36191 0.0
C3340 C 0.05466 0.61613 0.34928 0.0
C3341 C 0.03802 0.56576 0.26383 0.0
C3342 C 0.02399 0.55186 0.2623 0.0
C3343 C 0.03932 0.57749 0.27646 0.0
C3344 C 0.02655 0.57554 0.28757 0.0
C3345 C 0.01304 0.56106 0.28763 0.0
C3346 C 0.01174 0.54933 0.27496 0.0
C3347 C 0.02662 0.58919 0.29632 0.0
C3348 C 0.03807 0.59847 0.31031 0.0
C3349 C 0.01597 0.59362 0.28976 0.0
C3350 C 1.00456 0.58519 0.27358 0.0
C3351 C 0.98872 0.57868 0.27739 0.0
C3352 C 0.97796 0.57059 0.26218 0.0
C3353 C 0.98292 0.56904 0.24307 0.0
C3354 C 0.99865 0.57563 0.23908 0.0
C3355 C 0.00946 0.58374 0.25422 0.0
H3356 H 0.97457 0.56276 0.23133 0.0
H3357 H 0.08687 0.64796 0.36632 0.0
H3358 H 0.36751 0.397 0.35298 0.0
H3359 H 0.39264 0.41841 0.3425 0.0
H3360 H 0.39796 0.38846 0.3009 0.0
H3361 H 0.37276 0.36714 0.31095 0.0
H3362 H 0.42508 0.40813 0.32553 0.0
H3363 H 0.38716 0.41042 0.28204 0.0
H3364 H 0.3639 0.4122 0.27555 0.0
H3365 H 0.38386 0.45496 0.30783 0.0
H3366 H 0.40717 0.45331 0.31475 0.0
H3367 H 0.477 0.45089 0.24894 0.0
H3368 H 0.45717 0.43415 0.27269 0.0
H3369 H 0.45478 0.47296 0.29592 0.0
H3370 H 0.47443 0.48974 0.27138 0.0
H3371 H 0.42731 0.45139 0.28686 0.0
H3372 H 0.46695 0.45173 0.32581 0.0
H3373 H 0.49035 0.45041 0.3331 0.0
H3374 H 0.468 0.40385 0.31174 0.0
H3375 H 0.44453 0.40495 0.30404 0.0
C3376 C 0.37408 0.39498 0.34166 0.0
C3377 C 0.36814 0.38041 0.33272 0.0
C3378 C 0.38841 0.40721 0.3357 0.0
C3379 C 0.39716 0.40501 0.32094 0.0
C3380 C 0.39142 0.39039 0.31237 0.0
C3381 C 0.37699 0.37824 0.31805 0.0
C3382 C 0.41203 0.41803 0.31375 0.0
C3383 C 0.42562 0.41759 0.31701 0.0
C3384 C 0.41278 0.43064 0.30333 0.0
C3385 C 0.3988 0.43164 0.29914 0.0
C3386 C 0.38652 0.42012 0.28792 0.0
C3387 C 0.37334 0.42113 0.28413 0.0
C3388 C 0.37238 0.43366 0.29134 0.0
C3389 C 0.38461 0.44524 0.3023 0.0
C3390 C 0.3978 0.44428 0.30616 0.0
C3391 C 0.47259 0.45594 0.25955 0.0
C3392 C 0.47724 0.47161 0.25831 0.0
C3393 C 0.46126 0.44635 0.27323 0.0
C3394 C 0.45444 0.45223 0.28627 0.0
C3395 C 0.45984 0.46812 0.28603 0.0
C3396 C 0.4712 0.47775 0.27219 0.0
C3397 C 0.44052 0.44144 0.29818 0.0
C3398 C 0.427 0.4422 0.29577 0.0
C3399 C 0.43989 0.42922 0.30961 0.0
C3400 C 0.45398 0.42846 0.31425 0.0
C3401 C 0.46705 0.44124 0.32254 0.0
C3402 C 0.48033 0.44052 0.32676 0.0
C3403 C 0.48067 0.42706 0.32286 0.0
C3404 C 0.46772 0.41427 0.31476 0.0
C3405 C 0.45441 0.41493 0.3105 0.0
H3406 H 0.49096 0.42653 0.32614 0.0
H3407 H 0.36217 0.43442 0.28837 0.0
H3408 H 0.31526 0.29151 0.34438 0.0
H3409 H 0.31869 0.27026 0.35577 0.0
H3410 H 0.35336 0.30049 0.39822 0.0
H3411 H 0.35006 0.32179 0.38682 0.0
H3412 H 0.36175 0.28162 0.37914 0.0
H3413 H 0.31695 0.27653 0.41359 0.0
H3414 H 0.2912 0.27394 0.41548 0.0
H3415 H 0.27212 0.23227 0.38087 0.0
H3416 H 0.29782 0.23474 0.37855 0.0
H3417 H 0.36198 0.2351 0.4581 0.0
H3418 H 0.36141 0.25315 0.43412 0.0
H3419 H 0.32529 0.21543 0.40063 0.0
H3420 H 0.32566 0.19724 0.42514 0.0
H3421 H 0.31713 0.23594 0.40952 0.0
H3422 H 0.36154 0.23906 0.37959 0.0
H3423 H 0.38728 0.24163 0.37837 0.0
H3424 H 0.40725 0.28668 0.40445 0.0
H3425 H 0.38159 0.28431 0.4061 0.0
C3426 C 0.32369 0.29365 0.35605 0.0
C3427 C 0.33233 0.30831 0.36478 0.0
C3428 C 0.32561 0.28149 0.36258 0.0
C3429 C 0.3362 0.28374 0.37798 0.0
C3430 C 0.34514 0.29848 0.3863 0.0
C3431 C 0.34319 0.31063 0.37984 0.0
C3432 C 0.33756 0.27067 0.38604 0.0
C3433 C 0.35202 0.27165 0.38587 0.0
C3434 C 0.32477 0.25743 0.39425 0.0
C3435 C 0.30933 0.25592 0.39568 0.0
C3436 C 0.30728 0.26689 0.40624 0.0
C3437 C 0.2927 0.26543 0.40741 0.0
C3438 C 0.28004 0.25297 0.39824 0.0
C3439 C 0.28194 0.24193 0.38792 0.0
C3440 C 0.29651 0.24335 0.38668 0.0
C3441 C 0.35425 0.23063 0.44525 0.0
C3442 C 0.34388 0.21478 0.44341 0.0
C3443 C 0.35395 0.24097 0.43149 0.0
C3444 C 0.34336 0.2357 0.41543 0.0
C3445 C 0.33359 0.21977 0.41287 0.0
C3446 C 0.3339 0.20938 0.42672 0.0
C3447 C 0.34142 0.24696 0.40299 0.0
C3448 C 0.32683 0.2457 0.40241 0.0
C3449 C 0.35411 0.25994 0.39409 0.0
C3450 C 0.3696 0.26146 0.39306 0.0
C3451 C 0.3714 0.24948 0.38519 0.0
C3452 C 0.38598 0.2509 0.38441 0.0
C3453 C 0.39889 0.2643 0.39135 0.0
C3454 C 0.39724 0.27631 0.39907 0.0
C3455 C 0.38268 0.27494 0.3999 0.0
H3456 H 0.41017 0.26538 0.39074 0.0
H3457 H 0.26876 0.25186 0.39917 0.0
H3458 H 0.73464 0.02913 0.34226 0.0
H3459 H 0.75608 0.05392 0.35346 0.0
H3460 H 0.72529 0.06008 0.39257 0.0
H3461 H 0.70383 0.03525 0.38158 0.0
H3462 H 0.74604 0.08703 0.37128 0.0
H3463 H 0.74672 0.04773 0.41242 0.0
H3464 H 0.74745 0.0239 0.41819 0.0
H3465 H 0.79074 0.04311 0.38712 0.0
H3466 H 0.79014 0.06698 0.3809 0.0
H3467 H 0.79129 0.136 0.45025 0.0
H3468 H 0.77348 0.11731 0.42591 0.0
H3469 H 0.81109 0.11467 0.39856 0.0
H3470 H 0.82895 0.13331 0.42337 0.0
H3471 H 0.78895 0.0871 0.40867 0.0
H3472 H 0.79012 0.12808 0.37188 0.0
H3473 H 0.78935 0.1519 0.36642 0.0
H3474 H 0.74301 0.13006 0.3889 0.0
H3475 H 0.74356 0.10616 0.39478 0.0
C3476 C 0.73242 0.03582 0.35313 0.0
C3477 C 0.71756 0.03021 0.36112 0.0
C3478 C 0.74468 0.04997 0.35952 0.0
C3479 C 0.7423 0.05881 0.37391 0.0
C3480 C 0.72738 0.05346 0.38141 0.0
C3481 C 0.71515 0.03924 0.3752 0.0
C3482 C 0.75545 0.07326 0.38194 0.0
C3483 C 0.75541 0.08709 0.37954 0.0
C3484 C 0.76789 0.07337 0.39219 0.0
C3485 C 0.76829 0.05906 0.39597 0.0
C3486 C 0.75632 0.04681 0.40665 0.0
C3487 C 0.75672 0.03332 0.41004 0.0
C3488 C 0.76911 0.03197 0.40296 0.0
C3489 C 0.78114 0.04415 0.39254 0.0
C3490 C 0.78078 0.05767 0.38909 0.0
C3491 C 0.79583 0.13189 0.43852 0.0
C3492 C 0.81148 0.13616 0.43855 0.0
C3493 C 0.78564 0.12117 0.42459 0.0
C3494 C 0.79089 0.11454 0.41029 0.0
C3495 C 0.80676 0.11962 0.40942 0.0
C3496 C 0.81699 0.1304 0.42341 0.0
C3497 C 0.77954 0.10101 0.39829 0.0
C3498 C 0.77982 0.08724 0.40004 0.0
C3499 C 0.76735 0.10099 0.38742 0.0
C3500 C 0.76692 0.11534 0.38388 0.0
C3501 C 0.7798 0.12838 0.3758 0.0
C3502 C 0.77939 0.1419 0.37261 0.0
C3503 C 0.76615 0.1425 0.37734 0.0
C3504 C 0.75326 0.12957 0.38524 0.0
C3505 C 0.75361 0.11603 0.38848 0.0
H3506 H 0.76586 0.15297 0.37486 0.0
H3507 H 0.7694 0.02151 0.4056 0.0
H3508 H 0.98889 0.67508 0.387 0.0
H3509 H 0.96364 0.67099 0.39704 0.0
H3510 H 0.96838 0.70568 0.35481 0.0
H3511 H 0.99362 0.70969 0.34446 0.0
H3512 H 0.95947 0.70917 0.39417 0.0
H3513 H 0.94373 0.67017 0.34358 0.0
H3514 H 0.94295 0.64806 0.32645 0.0
H3515 H 0.92436 0.62076 0.37989 0.0
H3516 H 0.92524 0.64279 0.39746 0.0
H3517 H 0.88626 0.69572 0.42379 0.0
H3518 H 0.90567 0.69742 0.39969 0.0
H3519 H 0.90611 0.65959 0.42965 0.0
H3520 H 0.88656 0.65767 0.45322 0.0
H3521 H 0.9113 0.6586 0.39089 0.0
H3522 H 0.93104 0.6973 0.44312 0.0
H3523 H 0.93267 0.71896 0.46258 0.0
H3524 H 0.94477 0.74631 0.40871 0.0
H3525 H 0.94298 0.7247 0.38887 0.0
C3526 C 0.98452 0.68176 0.37974 0.0
C3527 C 0.99324 0.6927 0.36493 0.0
C3528 C 0.97005 0.67937 0.38544 0.0
C3529 C 0.96407 0.68795 0.37658 0.0
C3530 C 0.97275 0.6989 0.36179 0.0
C3531 C 0.98715 0.70115 0.35587 0.0
C3532 C 0.94903 0.68588 0.38347 0.0
C3533 C 0.94885 0.69822 0.39304 0.0
C3534 C 0.93527 0.67148 0.38242 0.0
C3535 C 0.93465 0.65818 0.37188 0.0
C3536 C 0.93959 0.65949 0.35174 0.0
C3537 C 0.93911 0.64696 0.34194 0.0
C3538 C 0.93364 0.63302 0.35209 0.0
C3539 C 0.9286 0.63157 0.37205 0.0
C3540 C 0.92907 0.64407 0.38193 0.0
C3541 C 0.89009 0.68742 0.42467 0.0
C3542 C 0.88502 0.67664 0.44042 0.0
C3543 C 0.90131 0.68849 0.41107 0.0
C3544 C 0.90766 0.67887 0.41314 0.0
C3545 C 0.9015 0.6672 0.42774 0.0
C3546 C 0.89032 0.66611 0.44124 0.0
C3547 C 0.92175 0.68185 0.40188 0.0
C3548 C 0.92182 0.66967 0.39161 0.0
C3549 C 0.93551 0.69632 0.40257 0.0
C3550 C 0.93668 0.70934 0.41448 0.0
C3551 C 0.93394 0.7079 0.4354 0.0
C3552 C 0.9349 0.72016 0.4465 0.0
C3553 C 0.93877 0.73399 0.43688 0.0
C3554 C 0.94173 0.73558 0.41614 0.0
C3555 C 0.94074 0.72333 0.40495 0.0
H3556 H 0.93952 0.74347 0.44549 0.0
H3557 H 0.93328 0.62333 0.34447 0.0
H3558 H 0.37089 0.00603 0.70876 0.0
H3559 H 0.39247 1.00329 0.72057 0.0
H3560 H 0.42404 0.05068 0.70549 0.0
H3561 H 0.4025 0.05317 0.69262 0.0
H3562 H 0.4374 0.03528 0.69728 0.0
H3563 H 0.41085 0.03798 0.75545 0.0
H3564 H 0.38867 0.03112 0.77779 0.0
H3565 H 0.38116 0.9854 0.78386 0.0
H3566 H 0.40318 0.99194 0.76134 0.0
H3567 H 0.49466 0.04196 0.77137 0.0
H3568 H 0.47661 0.04467 0.7489 0.0
H3569 H 0.44581 0.99568 0.75091 0.0
H3570 H 0.46378 0.99301 0.77321 0.0
H3571 H 0.43301 0.01279 0.76525 0.0
H3572 H 0.4618 0.0121 0.70735 0.0
H3573 H 0.4852 0.02105 0.68671 0.0
H3574 H 0.49015 0.06588 0.68269 0.0
H3575 H 0.46689 0.05725 0.70355 0.0
C3576 C 0.38244 0.01583 0.70787 0.0
C3577 C 0.385 0.02985 0.69994 0.0
C3578 C 0.39479 0.0143 0.71473 0.0
C3579 C 0.40992 0.02689 0.71443 0.0
C3580 C 0.41252 0.0408 0.70598 0.0
C3581 C 0.40019 0.04223 0.6987 0.0
C3582 C 0.4229 0.02563 0.72345 0.0
C3583 C 0.43648 0.03051 0.71224 0.0
C3584 C 0.4218 0.01938 0.74297 0.0
C3585 C 0.40857 0.01541 0.75655 0.0
C3586 C 0.4044 0.02643 0.76144 0.0
C3587 C 0.39187 0.02261 0.77415 0.0
C3588 C 0.38349 0.00782 0.7822 0.0
C3589 C 0.38765 0.99684 0.7776 0.0
C3590 C 0.40016 1.00061 0.76488 0.0
C3591 C 0.48438 0.03175 0.76618 0.0
C3592 C 0.48063 0.01727 0.77378 0.0
C3593 C 0.47402 0.0333 0.75349 0.0
C3594 C 0.45981 0.02038 0.74834 0.0
C3595 C 0.45668 0.0058 0.7547 0.0
C3596 C 0.467 1.00426 0.76727 0.0
C3597 C 0.44732 0.02213 0.73895 0.0
C3598 C 0.43387 0.01747 0.75024 0.0
C3599 C 0.44873 0.02889 0.71978 0.0
C3600 C 0.46269 0.03407 0.70719 0.0
C3601 C 0.46796 0.02391 0.70222 0.0
C3602 C 0.48118 0.02891 0.69045 0.0
C3603 C 0.48918 0.04404 0.68344 0.0
C3604 C 0.48395 0.05417 0.68815 0.0
C3605 C 0.47074 0.04922 0.69993 0.0
H3606 H 0.49942 0.04789 0.67433 0.0
H3607 H 0.37379 1.00488 0.79203 0.0
H3608 H 1.00031 0.37347 0.66991 0.0
H3609 H 1.0014 0.39727 0.68125 0.0
H3610 H 0.98857 0.37863 0.7413 0.0
H3611 H 0.9878 0.35507 0.73025 0.0
H3612 H 0.97136 0.39249 0.72494 0.0
H3613 H 0.02398 0.40288 0.73402 0.0
H3614 H 0.0484 0.40545 0.72195 0.0
H3615 H 0.05329 0.43973 0.67931 0.0
H3616 H 0.02876 0.4372 0.69096 0.0
H3617 H 0.99094 0.44919 0.79782 0.0
H3618 H 0.98575 0.42832 0.77483 0.0
H3619 H 0.01129 0.4611 0.72795 0.0
H3620 H 0.01707 0.48224 0.75155 0.0
H3621 H 0.02085 0.44166 0.73032 0.0
H3622 H 0.97098 0.43496 0.72445 0.0
H3623 H 0.94647 0.43276 0.73534 0.0
H3624 H 0.93555 0.39217 0.76916 0.0
H3625 H 0.96009 0.39424 0.75873 0.0
C3626 C 0.99776 0.37449 0.68553 0.0
C3627 C 0.99403 0.36243 0.69921 0.0
C3628 C 0.99838 0.38807 0.69197 0.0
C3629 C 0.99503 0.38969 0.71211 0.0
C3630 C 0.99114 0.37759 0.72569 0.0
C3631 C 0.99079 0.36417 0.71937 0.0
C3632 C 0.99573 0.40401 0.71932 0.0
C3633 C 0.98216 0.40326 0.72619 0.0
C3634 C 0.00972 0.41819 0.72013 0.0
C3635 C 0.02445 0.4197 0.71316 0.0
C3636 C 0.03018 0.41085 0.72193 0.0
C3637 C 0.04406 0.41233 0.7152 0.0
C3638 C 0.05236 0.42271 0.69982 0.0
C3639 C 0.04683 0.43167 0.69118 0.0
C3640 C 0.03294 0.43023 0.69785 0.0
C3641 C 0.99513 0.45195 0.78245 0.0
C3642 C 1.00444 0.46733 0.77648 0.0
C3643 C 0.99207 0.43998 0.76921 0.0
C3644 C 0.99798 0.44302 0.74948 0.0
C3645 C 1.00657 0.45842 0.74307 0.0
C3646 C 0.00973 0.47049 0.75646 0.0
C3647 C 0.99648 0.43013 0.73663 0.0
C3648 C 0.00992 0.43107 0.72869 0.0
C3649 C 0.98228 0.41617 0.73456 0.0
C3650 C 0.96744 0.4148 0.74085 0.0
C3651 C 0.9634 0.42561 0.73431 0.0
C3652 C 0.94949 0.42438 0.74039 0.0
C3653 C 0.93947 0.41234 0.75294 0.0
C3654 C 0.94332 0.40149 0.75942 0.0
C3655 C 0.95722 0.40267 0.75339 0.0
H3656 H 0.9287 0.41141 0.75764 0.0
H3657 H 0.06311 0.42384 0.69463 0.0
H3658 H 0.6647 0.62575 0.67973 0.0
H3659 H 0.64079 0.60355 0.69152 0.0
H3660 H 0.63577 0.632 0.73608 0.0
H3661 H 0.65989 0.65415 0.72468 0.0
H3662 H 0.63004 0.60658 0.75294 0.0
H3663 H 0.61311 0.61919 0.69231 0.0
H3664 H 0.61328 0.62487 0.65606 0.0
H3665 H 0.60557 0.58006 0.641 0.0
H3666 H 0.60556 0.57419 0.67717 0.0
H3667 H 0.54424 0.55109 0.75725 0.0
H3668 H 0.5656 0.56989 0.73639 0.0
H3669 H 0.59412 0.55203 0.75778 0.0
H3670 H 0.57282 0.53334 0.77865 0.0
H3671 H 0.58704 0.57237 0.70732 0.0
H3672 H 0.62709 0.58227 0.77537 0.0
H3673 H 0.62545 0.57877 0.81237 0.0
H3674 H 0.58459 0.58235 0.81352 0.0
H3675 H 0.58602 0.58591 0.77656 0.0
C3676 C 0.65846 0.62729 0.69198 0.0
C3677 C 0.66419 0.64172 0.70127 0.0
C3678 C 0.64473 0.61459 0.69865 0.0
C3679 C 0.63632 0.61607 0.71459 0.0
C3680 C 0.64201 0.63052 0.72378 0.0
C3681 C 0.65579 0.64319 0.71721 0.0
C3682 C 0.6219 0.6025 0.72216 0.0
C3683 C 0.6207 0.59912 0.74288 0.0
C3684 C 0.60949 0.59282 0.70921 0.0
C3685 C 0.60949 0.59631 0.68745 0.0
C3686 C 0.61157 0.61059 0.68126 0.0
C3687 C 0.61162 0.61384 0.66073 0.0
C3688 C 0.60947 0.60285 0.64623 0.0
C3689 C 0.60725 0.58857 0.65224 0.0
C3690 C 0.60721 0.58527 0.67276 0.0
C3691 C 0.55479 0.55063 0.75656 0.0
C3692 C 0.55685 0.54065 0.76929 0.0
C3693 C 0.56705 0.56148 0.74482 0.0
C3694 C 0.58155 0.56256 0.74585 0.0
C3695 C 0.58308 0.5515 0.75691 0.0
C3696 C 0.57085 0.54067 0.7686 0.0
C3697 C 0.59545 0.57638 0.7379 0.0
C3698 C 0.59651 0.5798 0.71722 0.0
C3699 C 0.60758 0.58639 0.75094 0.0
C3700 C 0.60659 0.5842 0.77318 0.0
C3701 C 0.61777 0.58231 0.78353 0.0
C3702 C 0.61686 0.5803 0.80448 0.0
C3703 C 0.60488 0.58028 0.81527 0.0
C3704 C 0.59381 0.5823 0.80513 0.0
C3705 C 0.59464 0.58426 0.78417 0.0
H3706 H 0.60422 0.57874 0.83149 0.0
H3707 H 0.60951 0.60538 0.63034 0.0
H3708 H 0.72437 0.73361 0.67436 0.0
H3709 H 0.72197 0.75524 0.66222 0.0
H3710 H 0.67458 0.72407 0.64582 0.0
H3711 H 0.67723 0.70236 0.65705 0.0
H3712 H 0.68668 0.74294 0.61732 0.0
H3713 H 0.68658 0.74968 0.68871 0.0
H3714 H 0.69599 0.75258 0.72376 0.0
H3715 H 0.73769 0.79369 0.70741 0.0
H3716 H 0.72861 0.79092 0.67218 0.0
H3717 H 0.66495 0.79731 0.59829 0.0
H3718 H 0.66768 0.77913 0.61996 0.0
H3719 H 0.71711 0.80778 0.61759 0.0
H3720 H 0.71435 0.826 0.59572 0.0
H3721 H 0.70416 0.791 0.65634 0.0
H3722 H 0.7019 0.78323 0.58379 0.0
H3723 H 0.68979 0.78006 0.55039 0.0
H3724 H 0.64952 0.73921 0.57077 0.0
H3725 H 0.66105 0.74251 0.60464 0.0
C3726 C 0.71342 0.73139 0.66828 0.0
C3727 C 0.70098 0.71628 0.66668 0.0
C3728 C 0.71201 0.7438 0.66144 0.0
C3729 C 0.698 0.74142 0.65334 0.0
C3730 C 0.68552 0.72629 0.65197 0.0
C3731 C 0.68702 0.71387 0.65845 0.0
C3732 C 0.69651 0.75454 0.64548 0.0
C3733 C 0.69031 0.75331 0.62606 0.0
C3734 C 0.70147 0.76831 0.6566 0.0
C3735 C 0.70698 0.77001 0.67776 0.0
C3736 C 0.69781 0.75927 0.69255 0.0
C3737 C 0.70307 0.7609 0.71246 0.0
C3738 C 0.71744 0.77329 0.7178 0.0
C3739 C 0.72656 0.78409 0.70325 0.0
C3740 C 0.72136 0.7825 0.68331 0.0
C3741 C 0.67636 0.80009 0.60324 0.0
C3742 C 0.68944 0.81311 0.5956 0.0
C3743 C 0.67792 0.78964 0.61546 0.0
C3744 C 0.6926 0.79201 0.62015 0.0
C3745 C 0.70569 0.80577 0.61418 0.0
C3746 C 0.70412 0.81623 0.60183 0.0
C3747 C 0.69421 0.77918 0.62846 0.0
C3748 C 0.70051 0.78053 0.64779 0.0
C3749 C 0.68906 0.76538 0.61744 0.0
C3750 C 0.68229 0.76323 0.59688 0.0
C3751 C 0.6904 0.77366 0.58126 0.0
C3752 C 0.68364 0.77183 0.56222 0.0
C3753 C 0.66894 0.75941 0.55843 0.0
C3754 C 0.66091 0.74883 0.57372 0.0
C3755 C 0.66753 0.75071 0.59288 0.0
H3756 H 0.66378 0.75799 0.54365 0.0
H3757 H 0.7215 0.77453 0.73322 0.0
H3758 H 0.29438 0.99298 0.68203 0.0
H3759 H 0.27336 0.96814 0.67046 0.0
H3760 H 0.30551 0.96167 0.63454 0.0
H3761 H 0.32642 0.98675 0.64546 0.0
H3762 H 0.28149 0.95392 0.6132 0.0
H3763 H 0.2891 0.94184 0.68071 0.0
H3764 H 0.29146 0.94465 0.71775 0.0
H3765 H 0.24526 0.93658 0.7215 0.0
H3766 H 0.24269 0.93393 0.68444 0.0
H3767 H 0.23657 0.87731 0.58885 0.0
H3768 H 0.25481 0.89786 0.61103 0.0
H3769 H 0.21975 0.90877 0.62682 0.0
H3770 H 0.20141 0.88817 0.60442 0.0
H3771 H 0.24406 0.91363 0.65937 0.0
H3772 H 0.2378 0.92708 0.59067 0.0
H3773 H 0.23562 0.92247 0.5539 0.0
H3774 H 0.28037 0.92669 0.55317 0.0
H3775 H 0.28271 0.93112 0.59001 0.0
C3776 C 0.29696 0.98622 0.67172 0.0
C3777 C 0.31206 0.99182 0.66465 0.0
C3778 C 0.28494 0.97196 0.66521 0.0
C3779 C 0.28781 0.96284 0.6518 0.0
C3780 C 0.30294 0.96843 0.64486 0.0
C3781 C 0.31491 0.98277 0.65115 0.0
C3782 C 0.27503 0.94779 0.64435 0.0
C3783 C 0.27347 0.94511 0.62341 0.0
C3784 C 0.26426 0.93626 0.6575 0.0
C3785 C 0.26576 0.93785 0.67978 0.0
C3786 C 0.27949 0.94079 0.68942 0.0
C3787 C 0.28085 0.94233 0.71042 0.0
C3788 C 0.26853 0.94084 0.72196 0.0
C3789 C 0.2548 0.93776 0.71253 0.0
C3790 C 0.25338 0.93622 0.69153 0.0
C3791 C 0.23254 0.88359 0.59784 0.0
C3792 C 0.2176 0.88116 0.59501 0.0
C3793 C 0.24299 0.89537 0.61041 0.0
C3794 C 0.23867 0.90494 0.62035 0.0
C3795 C 0.22326 0.90146 0.61933 0.0
C3796 C 0.21277 0.88965 0.60664 0.0
C3797 C 0.25079 0.91993 0.62847 0.0
C3798 C 0.25216 0.92256 0.64935 0.0
C3799 C 0.26151 0.9314 0.61535 0.0
C3800 C 0.26038 0.92931 0.5931 0.0
C3801 C 0.24714 0.92696 0.58267 0.0
C3802 C 0.24589 0.92441 0.56182 0.0
C3803 C 0.25784 0.92426 0.55121 0.0
C3804 C 0.27111 0.92679 0.56141 0.0
C3805 C 0.27243 0.92935 0.58227 0.0
H3806 H 0.25681 0.92221 0.53508 0.0
H3807 H 0.26961 0.94203 0.73822 0.0
H3808 H 0.03142 0.33272 0.63402 0.0
H3809 H 0.05507 0.33372 0.62287 0.0
H3810 H 0.06347 0.32419 0.68363 0.0
H3811 H 0.03944 0.32267 0.69474 0.0
H3812 H 0.0839 0.35074 0.63027 0.0
H3813 H 0.08235 0.30383 0.68229 0.0
H3814 H 0.06335 0.28049 0.70032 0.0
H3815 H 0.02849 0.27396 0.65729 0.0
H3816 H 0.04733 0.29714 0.63889 0.0
H3817 H 0.15216 0.35199 0.60747 0.0
H3818 H 0.13241 0.34964 0.63137 0.0
H3819 H 0.09928 0.307 0.60322 0.0
H3820 H 0.11901 0.30931 0.57955 0.0
H3821 H 0.09257 0.3071 0.64315 0.0
H3822 H 0.1047 0.33944 0.58493 0.0
H3823 H 0.1225 0.36053 0.56273 0.0
H3824 H 0.13221 0.39301 0.61052 0.0
H3825 H 0.11493 0.37197 0.63332 0.0
C3826 C 0.03832 0.3309 0.64505 0.0
C3827 C 0.03351 0.32754 0.66525 0.0
C3828 C 0.0519 0.33152 0.63866 0.0
C3829 C 0.06104 0.32886 0.65231 0.0
C3830 C 0.05651 0.326 0.67268 0.0
C3831 C 0.04281 0.32522 0.67906 0.0
C3832 C 0.07508 0.32881 0.64496 0.0
C3833 C 0.08583 0.34125 0.6333 0.0
C3834 C 0.07758 0.31634 0.64854 0.0
C3835 C 0.0662 0.30232 0.65939 0.0
C3836 C 0.07063 0.29739 0.67667 0.0
C3837 C 0.0599 0.28419 0.68695 0.0
C3838 C 0.04471 0.27578 0.68 0.0
C3839 C 0.04024 0.28052 0.66271 0.0
C3840 C 0.05094 0.29369 0.65236 0.0
C3841 C 0.14088 0.34175 0.60713 0.0
C3842 C 0.13708 0.33079 0.59181 0.0
C3843 C 0.12955 0.34047 0.62065 0.0
C3844 C 0.11428 0.32828 0.61885 0.0
C3845 C 0.11095 0.31649 0.60493 0.0
C3846 C 0.12224 0.31778 0.59144 0.0
C3847 C 0.10135 0.32906 0.62869 0.0
C3848 C 0.09079 0.31674 0.64062 0.0
C3849 C 0.0987 0.34138 0.62478 0.0
C3850 C 0.10868 0.35411 0.61092 0.0
C3851 C 0.11073 0.35106 0.59077 0.0
C3852 C 0.12075 0.363 0.57809 0.0
C3853 C 0.12848 0.37811 0.5852 0.0
C3854 C 0.12623 0.38129 0.60504 0.0
C3855 C 0.11637 0.36935 0.61789 0.0
H3856 H 0.1362 0.38735 0.57533 0.0
H3857 H 0.03641 0.26557 0.68798 0.0
H3858 H 0.29383 0.31303 0.68596 0.0
H3859 H 0.27233 0.31633 0.67495 0.0
H3860 H 0.30242 0.35152 0.63321 0.0
H3861 H 0.32392 0.34824 0.64408 0.0
H3862 H 0.28293 0.35918 0.65373 0.0
H3863 H 0.2794 0.31604 0.61655 0.0
H3864 H 0.27738 0.29069 0.6134 0.0
H3865 H 0.23505 0.27003 0.64687 0.0
H3866 H 0.23694 0.29532 0.65045 0.0
H3867 H 0.23776 0.36157 0.57438 0.0
H3868 H 0.25538 0.36046 0.59874 0.0
H3869 H 0.21707 0.32236 0.6286 0.0
H3870 H 0.19934 0.32326 0.60367 0.0
H3871 H 0.2383 0.31531 0.62018 0.0
H3872 H 0.23957 0.3578 0.65271 0.0
H3873 H 0.24142 0.38307 0.65578 0.0
H3874 H 0.28738 0.405 0.63197 0.0
H3875 H 0.28574 0.37984 0.62847 0.0
C3876 C 0.29589 0.32155 0.67455 0.0
C3877 C 0.31056 0.33032 0.66581 0.0
C3878 C 0.28359 0.3234 0.66825 0.0
C3879 C 0.28574 0.33411 0.65316 0.0
C3880 C 0.30049 0.34321 0.64489 0.0
C3881 C 0.31275 0.34127 0.65106 0.0
C3882 C 0.27255 0.3354 0.64524 0.0
C3883 C 0.27318 0.34963 0.64632 0.0
C3884 C 0.25958 0.32279 0.6362 0.0
C3885 C 0.25841 0.30759 0.63399 0.0
C3886 C 0.26973 0.30611 0.62339 0.0
C3887 C 0.2686 0.29175 0.62149 0.0
C3888 C 0.25613 0.27876 0.62999 0.0
C3889 C 0.24473 0.28011 0.64034 0.0
C3890 C 0.24582 0.29445 0.6423 0.0
C3891 C 0.23305 0.35325 0.5865 0.0
C3892 C 0.21719 0.3425 0.58716 0.0
C3893 C 0.24314 0.35265 0.60051 0.0
C3894 C 0.23761 0.34137 0.61565 0.0
C3895 C 0.22163 0.33118 0.61708 0.0
C3896 C 0.21148 0.33179 0.60299 0.0
C3897 C 0.24875 0.33924 0.62823 0.0
C3898 C 0.24781 0.32483 0.62798 0.0
C3899 C 0.26139 0.35169 0.63811 0.0
C3900 C 0.26249 0.36689 0.64023 0.0
C3901 C 0.25003 0.36799 0.648 0.0
C3902 C 0.25105 0.3823 0.64983 0.0
C3903 C 0.2645 0.39563 0.64405 0.0
C3904 C 0.27697 0.39467 0.63645 0.0
C3905 C 0.27601 0.38038 0.63457 0.0
H3906 H 0.26527 0.4067 0.64548 0.0
H3907 H 0.25527 0.26766 0.6285 0.0
H3908 H 0.67801 0.98537 0.6489 0.0
H3909 H 0.67433 0.9604 0.63869 0.0
H3910 H 0.71125 0.96685 0.67833 0.0
H3911 H 0.71491 0.99187 0.68881 0.0
H3912 H 0.71367 0.95772 0.63903 0.0
H3913 H 0.67585 0.94145 0.69136 0.0
H3914 H 0.65383 0.94013 0.70964 0.0
H3915 H 0.62512 0.92061 0.65735 0.0
H3916 H 0.64703 0.92202 0.63864 0.0
H3917 H 0.70191 0.88558 0.60972 0.0
H3918 H 0.70294 0.9044 0.63422 0.0
H3919 H 0.66447 0.90394 0.60434 0.0
H3920 H 0.66331 0.88504 0.58019 0.0
H3921 H 0.66376 0.90893 0.64402 0.0
H3922 H 0.70101 0.92897 0.59023 0.0
H3923 H 0.72237 0.93089 0.56965 0.0
H3924 H 0.75149 0.94427 0.62214 0.0
H3925 H 0.73018 0.94215 0.64311 0.0
C3926 C 0.68528 0.98144 0.65557 0.0
C3927 C 0.69675 0.99059 0.66967 0.0
C3928 C 0.68312 0.96713 0.64978 0.0
C3929 C 0.69243 0.9617 0.65787 0.0
C3930 C 0.7039 0.9708 0.67197 0.0
C3931 C 0.70595 0.98506 0.67796 0.0
C3932 C 0.69058 0.94684 0.6508 0.0
C3933 C 0.70288 0.94698 0.64056 0.0
C3934 C 0.67636 0.9329 0.65232 0.0
C3935 C 0.66313 0.93195 0.66355 0.0
C3936 C 0.66487 0.93699 0.68371 0.0
C3937 C 0.65241 0.9362 0.69415 0.0
C3938 C 0.63809 0.93032 0.68465 0.0
C3939 C 0.63621 0.92517 0.66469 0.0
C3940 C 0.64865 0.92594 0.65416 0.0
C3941 C 0.6933 0.88903 0.60897 0.0
C3942 C 0.68257 0.88394 0.59307 0.0
C3943 C 0.69398 0.8999 0.62282 0.0
C3944 C 0.684 0.90585 0.62085 0.0
C3945 C 0.67233 0.8996 0.60615 0.0
C3946 C 0.67166 0.88878 0.59236 0.0
C3947 C 0.68681 0.91984 0.6321 0.0
C3948 C 0.67467 0.91959 0.64296 0.0
C3949 C 0.70109 0.93377 0.63087 0.0
C3950 C 0.71396 0.93521 0.61827 0.0
C3951 C 0.71194 0.93221 0.59741 0.0
C3952 C 0.72403 0.93334 0.58567 0.0
C3953 C 0.73827 0.93766 0.5946 0.0
C3954 C 0.74044 0.94089 0.61526 0.0
C3955 C 0.72836 0.93972 0.62708 0.0
H3956 H 0.74762 0.93854 0.58549 0.0
H3957 H 0.62845 0.92972 0.69277 0.0
H3958 H 0.04298 0.72056 0.69327 0.0
H3959 H 0.06672 0.74284 0.68096 0.0
H3960 H 0.04642 0.73635 0.62162 0.0
H3961 H 0.02325 0.71359 0.63358 0.0
H3962 H 0.0733 0.74296 0.6161 0.0
H3963 H 0.05154 0.76598 0.6583 0.0
H3964 H 0.04111 0.77052 0.68959 0.0
H3965 H 0.08398 0.78448 0.72002 0.0
H3966 H 0.0946 0.77985 0.68896 0.0
H3967 H 0.11774 0.81427 0.57222 0.0
H3968 H 0.09697 0.79685 0.59468 0.0
H3969 H 0.13009 0.7946 0.63389 0.0
H3970 H 0.15102 0.81199 0.61116 0.0
H3971 H 0.09901 0.7931 0.65181 0.0
H3972 H 0.11979 0.76974 0.60544 0.0
H3973 H 0.12885 0.76793 0.5715 0.0
H3974 H 0.0849 0.75649 0.54633 0.0
H3975 H 0.0757 0.75859 0.58008 0.0
C3976 C 0.04366 0.72393 0.67761 0.0
C3977 C 0.0313 0.71533 0.66437 0.0
C3978 C 0.0572 0.73675 0.67058 0.0
C3979 C 0.05842 0.74155 0.65035 0.0
C3980 C 0.04594 0.73295 0.63724 0.0
C3981 C 0.03263 0.71993 0.6441 0.0
C3982 C 0.07269 0.75525 0.6425 0.0
C3983 C 0.07877 0.75388 0.624 0.0
C3984 C 0.08016 0.76962 0.6527 0.0
C3985 C 0.0738 0.7724 0.67138 0.0
C3986 C 0.0587 0.76991 0.67171 0.0
C3987 C 0.05276 0.77252 0.6894 0.0
C3988 C 0.06186 0.77774 0.7068 0.0
C3989 C 0.07693 0.7804 0.70654 0.0
C3990 C 0.08292 0.7778 0.6889 0.0
C3991 C 0.12065 0.8106 0.5861 0.0
C3992 C 0.13595 0.81442 0.58998 0.0
C3993 C 0.10878 0.80063 0.59888 0.0
C3994 C 0.112 0.79435 0.61581 0.0
C3995 C 0.12742 0.79941 0.62093 0.0
C3996 C 0.13936 0.80938 0.60801 0.0
C3997 C 0.09922 0.78062 0.62562 0.0
C3998 C 0.0935 0.78203 0.64429 0.0
C3999 C 0.09179 0.76637 0.61539 0.0
C4000 C 0.0971 0.76444 0.59526 0.0
C4001 C 0.11209 0.76693 0.59265 0.0
C4002 C 0.11726 0.76585 0.57345 0.0
C4003 C 0.10747 0.76212 0.55676 0.0
C4004 C 0.09247 0.75939 0.55926 0.0
C4005 C 0.08728 0.76052 0.57843 0.0
H4006 H 0.11148 0.7613 0.5419 0.0
H4007 H 0.05724 0.77975 0.72048 0.0
H4008 H 0.98405 0.62598 0.6719 0.0
H4009 H 0.98565 0.60366 0.68359 0.0
H4010 H 0.01231 0.62962 0.73514 0.0
H4011 H 0.01079 0.65187 0.72361 0.0
H4012 H 0.01032 0.59853 0.69288 0.0
H4013 H 0.99853 0.60612 0.77618 0.0
H4014 H 0.98536 0.61692 0.79591 0.0
H4015 H 0.95476 0.60912 0.74617 0.0
H4016 H 0.9676 0.59806 0.72625 0.0
H4017 H 0.02979 0.5576 0.7655 0.0
H4018 H 0.02679 0.57519 0.74276 0.0
H4019 H 0.97754 0.54915 0.75121 0.0
H4020 H 0.98062 0.53174 0.77407 0.0
H4021 H 0.98834 0.57825 0.76052 0.0
H4022 H 0.99381 0.55137 0.70472 0.0
H4023 H 1.00594 0.53979 0.68441 0.0
H4024 H 0.04666 0.58397 0.6778 0.0
H4025 H 0.03486 0.5958 0.69831 0.0
C4026 C 0.9904 0.62697 0.6856 0.0
C4027 C 0.99722 0.64067 0.69689 0.0
C4028 C 0.99134 0.61422 0.69222 0.0
C4029 C 0.99897 0.61492 0.71034 0.0
C4030 C 1.00624 0.62876 0.72122 0.0
C4031 C 1.00537 0.64149 0.71458 0.0
C4032 C 0.99865 0.60101 0.7186 0.0
C4033 C 1.0055 0.59405 0.70764 0.0
C4034 C 0.99211 0.59499 0.73771 0.0
C4035 C 0.98413 0.60139 0.74967 0.0
C4036 C 0.98895 0.60665 0.76949 0.0
C4037 C 0.98155 0.61282 0.78069 0.0
C4038 C 0.96927 0.61375 0.77227 0.0
C4039 C 0.96432 0.60845 0.75265 0.0
C4040 C 0.97167 0.60224 0.74138 0.0
C4041 C 0.01831 0.55527 0.76171 0.0
C4042 C 1.0054 0.54319 0.77118 0.0
C4043 C 0.01659 0.56537 0.74883 0.0
C4044 C 1.00193 0.56354 0.74526 0.0
C4045 C 0.98896 0.55082 0.75371 0.0
C4046 C 0.99069 0.54077 0.76657 0.0
C4047 C 1.00027 0.57583 0.73501 0.0
C4048 C 0.99309 0.58258 0.74568 0.0
C4049 C 1.00637 0.58151 0.71558 0.0
C4050 C 0.01349 0.57445 0.7032 0.0
C4051 C 1.0054 0.5586 0.69907 0.0
C4052 C 0.01221 0.552 0.6875 0.0
C4053 C 0.02707 0.56113 0.67986 0.0
C4054 C 0.03515 0.57691 0.68374 0.0
C4055 C 0.0284 0.58357 0.69532 0.0
H4056 H 0.03232 0.556 0.6709 0.0
H4057 H 0.96357 0.61855 0.78098 0.0
H4058 H 0.39884 0.36626 0.67482 0.0
H4059 H 0.42031 0.39109 0.68602 0.0
H4060 H 0.39105 0.39413 0.73121 0.0
H4061 H 0.36965 0.36931 0.72025 0.0
H4062 H 0.40923 0.42192 0.71027 0.0
H4063 H 0.41509 0.38267 0.74486 0.0
H4064 H 0.41803 0.35981 0.74641 0.0
H4065 H 0.45943 0.38305 0.7112 0.0
H4066 H 0.4566 0.406 0.70921 0.0
H4067 H 0.45519 0.46966 0.78875 0.0
H4068 H 0.43744 0.45066 0.76479 0.0
H4069 H 0.47575 0.45234 0.73293 0.0
H4070 H 0.49364 0.47115 0.75758 0.0
H4071 H 0.45532 0.42382 0.74084 0.0
H4072 H 0.45189 0.46463 0.71069 0.0
H4073 H 0.44917 0.48761 0.70907 0.0
H4074 H 0.40386 0.46216 0.73464 0.0
H4075 H 0.40638 0.43907 0.73669 0.0
C4076 C 0.39697 0.37227 0.68706 0.0
C4077 C 0.38257 0.3658 0.69672 0.0
C4078 C 0.40925 0.38644 0.69346 0.0
C4079 C 0.40729 0.39444 0.7095 0.0
C4080 C 0.39281 0.38818 0.71877 0.0
C4081 C 0.38061 0.37396 0.71255 0.0
C4082 C 0.42043 0.40903 0.71727 0.0
C4083 C 0.4193 0.42237 0.71702 0.0
C4084 C 0.43381 0.40973 0.72543 0.0
C4085 C 0.43552 0.39596 0.72666 0.0
C4086 C 0.42474 0.38285 0.73729 0.0
C4087 C 0.4264 0.36989 0.73828 0.0
C4088 C 0.43888 0.36996 0.72885 0.0
C4089 C 0.44975 0.38301 0.71845 0.0
C4090 C 0.44812 0.39599 0.7174 0.0
C4091 C 0.45987 0.46628 0.77632 0.0
C4092 C 0.4758 0.47185 0.77506 0.0
C4093 C 0.44969 0.45545 0.76252 0.0
C4094 C 0.45519 0.45006 0.74688 0.0
C4095 C 0.47121 0.45631 0.74484 0.0
C4096 C 0.48144 0.46718 0.75878 0.0
C4097 C 0.44405 0.43678 0.73429 0.0
C4098 C 0.44547 0.4236 0.73368 0.0
C4099 C 0.43099 0.43627 0.72521 0.0
C4100 C 0.42936 0.45012 0.72393 0.0
C4101 C 0.44138 0.46395 0.71609 0.0
C4102 C 0.43987 0.477 0.71508 0.0
C4103 C 0.42636 0.47635 0.72177 0.0
C4104 C 0.41432 0.46264 0.72945 0.0
C4105 C 0.41577 0.44956 0.73051 0.0
H4106 H 0.42521 0.48647 0.72097 0.0
H4107 H 0.44015 0.35991 0.72963 0.0
H4108 H 0.66261 0.04652 0.6803 0.0
H4109 H 0.63763 0.04327 0.69047 0.0
H4110 H 0.62907 1.00435 0.72706 0.0
H4111 H 0.654 0.00759 0.7171 0.0
H4112 H 0.60313 0.99943 0.70482 0.0
H4113 H 0.64181 0.03793 0.74899 0.0
H4114 H 0.66562 0.0623 0.75641 0.0
H4115 H 0.64729 0.08733 0.72599 0.0
H4116 H 0.62343 0.06306 0.71816 0.0
H4117 H 0.55284 0.99194 0.78333 0.0
H4118 H 0.572 0.99418 0.75894 0.0
H4119 H 0.57522 0.03568 0.73546 0.0
H4120 H 0.55617 0.03359 0.76046 0.0
H4121 H 0.60266 0.04076 0.74501 0.0
H4122 H 0.56201 1.00241 0.70581 0.0
H4123 H 0.53813 0.97805 0.6987 0.0
H4124 H 0.55955 0.95271 0.71901 0.0
H4125 H 0.5835 0.97692 0.72653 0.0
C4126 C 0.65535 0.03721 0.6904 0.0
C4127 C 0.66031 0.02736 0.69799 0.0
C4128 C 0.64109 0.03538 0.69621 0.0
C4129 C 0.6315 0.0236 0.70959 0.0
C4130 C 0.63625 0.01348 0.71668 0.0
C4131 C 0.65054 0.01541 0.71106 0.0
C4132 C 0.61687 0.02217 0.71706 0.0
C4133 C 0.60298 0.00842 0.71366 0.0
C4134 C 0.61662 0.0341 0.72803 0.0
C4135 C 0.63093 0.04868 0.73276 0.0
C4136 C 0.64292 0.04862 0.74373 0.0
C4137 C 0.65641 0.06242 0.74804 0.0
C4138 C 0.65799 0.07636 0.74162 0.0
C4139 C 0.64606 0.07653 0.73092 0.0
C4140 C 0.63255 0.06276 0.72654 0.0
C4141 C 0.55724 1.00124 0.77249 0.0
C4142 C 0.55302 0.01258 0.77374 0.0
C4143 C 0.5682 1.00252 0.75848 0.0
C4144 C 0.57509 0.01509 0.74522 0.0
C4145 C 0.57007 0.02587 0.7455 0.0
C4146 C 0.55907 0.02459 0.75961 0.0
C4147 C 0.58879 0.01784 0.73315 0.0
C4148 C 0.60261 0.03185 0.73576 0.0
C4149 C 0.58892 0.00614 0.72139 0.0
C4150 C 0.57455 0.99151 0.71684 0.0
C4151 C 0.56161 0.99165 0.7089 0.0
C4152 C 0.54806 0.97786 0.70477 0.0
C4153 C 0.54732 0.96384 0.70842 0.0
C4154 C 0.56014 0.96358 0.71618 0.0
C4155 C 0.57372 0.97734 0.72035 0.0
H4156 H 0.53681 0.95318 0.70522 0.0
H4157 H 0.66844 0.08702 0.74498 0.0
loop_
_geom_bond_atom_site_label_1
_geom_bond_atom_site_label_2
_geom_bond_distance
_geom_bond_site_symmetry_2
_ccdc_geom_bond_type
In0 O1 2.294 1_455 S
In0 O2 2.326 . S
In0 O6 2.266 1_455 S
In0 O7 2.326 1_454 S
In0 O8 2.266 1_554 S
In0 O9 2.326 1_454 S
In0 O11 2.294 . S
In0 O12 2.326 . S
O1 In0 2.294 1_655 S
O1 C10 1.240 1_655 S
O2 In0 2.326 . S
O2 C10 1.252 . S
C3 O6 1.252 1_556 S
C3 O7 1.260 . S
C4 O11 1.240 . S
C4 O12 1.252 . S
C5 O8 1.252 . S
C5 O9 1.260 1_455 S
O6 In0 2.266 1_655 S
O6 C3 1.252 1_554 S
O7 In0 2.326 1_656 S
O7 C3 1.260 . S
O8 In0 2.266 1_556 S
O8 C5 1.252 . S
O9 In0 2.326 1_656 S
O9 C5 1.260 1_655 S
C10 O1 1.240 1_455 S
C10 O2 1.252 . S
O11 In0 2.294 . S
O11 C4 1.240 . S
O12 In0 2.326 . S
O12 C4 1.252 . S
In13 O14 2.294 . S
In13 O15 2.326 . S
In13 O19 2.266 . S
In13 O20 2.326 1_554 S
In13 O21 2.266 1_554 S
In13 O22 2.326 1_554 S
In13 O24 2.294 . S
In13 O25 2.326 . S
O14 In13 2.294 . S
O14 C23 1.240 . S
O15 In13 2.326 . S
O15 C23 1.252 . S
C16 O19 1.252 1_556 S
C16 O20 1.260 . S
C17 O24 1.240 . S
C17 O25 1.252 . S
C18 O21 1.252 . S
C18 O22 1.260 . S
O19 In13 2.266 . S
O19 C16 1.252 1_554 S
O20 In13 2.326 1_556 S
O20 C16 1.260 . S
O21 In13 2.266 1_556 S
O21 C18 1.252 . S
O22 In13 2.326 1_556 S
O22 C18 1.260 . S
C23 O14 1.240 . S
C23 O15 1.252 . S
O24 In13 2.294 . S
O24 C17 1.240 . S
O25 In13 2.326 . S
O25 C17 1.252 . S
In26 O27 2.294 . S
In26 O28 2.326 1_554 S
In26 O32 2.266 . S
In26 O33 2.326 1_545 S
In26 O34 2.266 1_545 S
In26 O35 2.326 1_545 S
In26 O37 2.294 1_544 S
In26 O38 2.326 1_554 S
O27 In26 2.294 . S
O27 C36 1.240 1_554 S
O28 In26 2.326 1_556 S
O28 C36 1.252 . S
C29 O32 1.252 . S
C29 O33 1.260 1_545 S
C30 O37 1.240 1_545 S
C30 O38 1.252 . S
C31 O34 1.252 . S
C31 O35 1.260 . S
O32 In26 2.266 . S
O32 C29 1.252 . S
O33 In26 2.326 1_565 S
O33 C29 1.260 1_565 S
O34 In26 2.266 1_565 S
O34 C31 1.252 . S
O35 In26 2.326 1_565 S
O35 C31 1.260 . S
C36 O27 1.240 1_556 S
C36 O28 1.252 . S
O37 In26 2.294 1_566 S
O37 C30 1.240 1_565 S
O38 In26 2.326 1_556 S
O38 C30 1.252 . S
In39 O40 2.294 1_554 S
In39 O41 2.326 1_454 S
In39 O45 2.266 . S
In39 O46 2.326 . S
In39 O47 2.266 1_455 S
In39 O48 2.326 . S
In39 O50 2.294 1_455 S
In39 O51 2.326 1_454 S
O40 In39 2.294 1_556 S
O40 C49 1.240 . S
O41 In39 2.326 1_656 S
O41 C49 1.252 1_655 S
C42 O45 1.252 . S
C42 O46 1.260 . S
C43 O50 1.240 1_556 S
C43 O51 1.252 . S
C44 O47 1.252 1_455 S
C44 O48 1.260 . S
O45 In39 2.266 . S
O45 C42 1.252 . S
O46 In39 2.326 . S
O46 C42 1.260 . S
O47 In39 2.266 1_655 S
O47 C44 1.252 1_655 S
O48 In39 2.326 . S
O48 C44 1.260 . S
C49 O40 1.240 . S
C49 O41 1.252 1_455 S
O50 In39 2.294 1_655 S
O50 C43 1.240 1_554 S
O51 In39 2.326 1_656 S
O51 C43 1.252 . S
In52 O53 2.294 1_554 S
In52 O54 2.326 1_554 S
In52 O58 2.266 . S
In52 O59 2.326 . S
In52 O60 2.266 . S
In52 O61 2.326 . S
In52 O63 2.294 . S
In52 O64 2.326 1_554 S
O53 In52 2.294 1_556 S
O53 C62 1.240 . S
O54 In52 2.326 1_556 S
O54 C62 1.252 . S
C55 O58 1.252 . S
C55 O59 1.260 . S
C56 O63 1.240 1_556 S
C56 O64 1.252 . S
C57 O60 1.252 . S
C57 O61 1.260 . S
O58 In52 2.266 . S
O58 C55 1.252 . S
O59 In52 2.326 . S
O59 C55 1.260 . S
O60 In52 2.266 . S
O60 C57 1.252 . S
O61 In52 2.326 . S
O61 C57 1.260 . S
C62 O53 1.240 . S
C62 O54 1.252 . S
O63 In52 2.294 . S
O63 C56 1.240 1_554 S
O64 In52 2.326 1_556 S
O64 C56 1.252 . S
In65 O66 2.294 . S
In65 O67 2.326 1_545 S
In65 O71 2.266 . S
In65 O72 2.326 1_554 S
In65 O73 2.266 1_544 S
In65 O74 2.326 1_554 S
In65 O76 2.294 1_545 S
In65 O77 2.326 1_545 S
O66 In65 2.294 . S
O66 C75 1.240 . S
O67 In65 2.326 1_565 S
O67 C75 1.252 1_565 S
C68 O71 1.252 1_556 S
C68 O72 1.260 . S
C69 O76 1.240 . S
C69 O77 1.252 . S
C70 O73 1.252 1_545 S
C70 O74 1.260 . S
O71 In65 2.266 . S
O71 C68 1.252 1_554 S
O72 In65 2.326 1_556 S
O72 C68 1.260 . S
O73 In65 2.266 1_566 S
O73 C70 1.252 1_565 S
O74 In65 2.326 1_556 S
O74 C70 1.260 . S
C75 O66 1.240 . S
C75 O67 1.252 1_545 S
O76 In65 2.294 1_565 S
O76 C69 1.240 . S
O77 In65 2.326 1_565 S
O77 C69 1.252 . S
In78 O79 2.294 . S
In78 O80 2.326 . S
In78 O84 2.266 . S
In78 O85 2.326 . S
In78 O86 2.266 . S
In78 O87 2.326 . S
In78 O89 2.294 . S
In78 O90 2.326 . S
O79 In78 2.294 . S
O79 C88 1.240 . S
O80 In78 2.326 . S
O80 C88 1.252 . S
C81 O84 1.252 . S
C81 O85 1.260 . S
C82 O89 1.240 . S
C82 O90 1.252 . S
C83 O86 1.252 . S
C83 O87 1.260 . S
O84 In78 2.266 . S
O84 C81 1.252 . S
O85 In78 2.326 . S
O85 C81 1.260 . S
O86 In78 2.266 . S
O86 C83 1.252 . S
O87 In78 2.326 . S
O87 C83 1.260 . S
C88 O79 1.240 . S
C88 O80 1.252 . S
O89 In78 2.294 . S
O89 C82 1.240 . S
O90 In78 2.326 . S
O90 C82 1.252 . S
In91 O92 2.294 . S
In91 O93 2.326 . S
In91 O97 2.266 . S
In91 O98 2.326 . S
In91 O99 2.266 . S
In91 O100 2.326 . S
In91 O102 2.294 1_565 S
In91 O103 2.326 1_565 S
O92 In91 2.294 . S
O92 C101 1.240 . S
O93 In91 2.326 . S
O93 C101 1.252 . S
C94 O97 1.252 . S
C94 O98 1.260 . S
C95 O102 1.240 . S
C95 O103 1.252 . S
C96 O99 1.252 . S
C96 O100 1.260 . S
O97 In91 2.266 . S
O97 C94 1.252 . S
O98 In91 2.326 . S
O98 C94 1.260 . S
O99 In91 2.266 . S
O99 C96 1.252 . S
O100 In91 2.326 . S
O100 C96 1.260 . S
C101 O92 1.240 . S
C101 O93 1.252 . S
O102 In91 2.294 1_545 S
O102 C95 1.240 . S
O103 In91 2.326 1_545 S
O103 C95 1.252 . S
In104 O105 2.294 . S
In104 O106 2.326 . S
In104 O110 2.266 . S
In104 O111 2.326 . S
In104 O112 2.266 . S
In104 O113 2.326 . S
In104 O115 2.294 . S
In104 O116 2.326 . S
O105 In104 2.294 . S
O105 C114 1.240 . S
O106 In104 2.326 . S
O106 C114 1.252 . S
C107 O110 1.252 . S
C107 O111 1.260 . S
C108 O115 1.240 . S
C108 O116 1.252 . S
C109 O112 1.252 1_655 S
C109 O113 1.260 1_655 S
O110 In104 2.266 . S
O110 C107 1.252 . S
O111 In104 2.326 . S
O111 C107 1.260 . S
O112 In104 2.266 . S
O112 C109 1.252 1_455 S
O113 In104 2.326 . S
O113 C109 1.260 1_455 S
C114 O105 1.240 . S
C114 O106 1.252 . S
O115 In104 2.294 . S
O115 C108 1.240 . S
O116 In104 2.326 . S
O116 C108 1.252 . S
In117 O118 2.294 . S
In117 O119 2.326 . S
In117 O123 2.266 1_565 S
In117 O124 2.326 1_565 S
In117 O125 2.266 . S
In117 O126 2.326 . S
In117 O128 2.294 . S
In117 O129 2.326 . S
O118 In117 2.294 . S
O118 C127 1.240 . S
O119 In117 2.326 . S
O119 C127 1.252 . S
C120 O123 1.252 . S
C120 O124 1.260 . S
C121 O128 1.240 . S
C121 O129 1.252 . S
C122 O125 1.252 . S
C122 O126 1.260 . S
O123 In117 2.266 1_545 S
O123 C120 1.252 . S
O124 In117 2.326 1_545 S
O124 C120 1.260 . S
O125 In117 2.266 . S
O125 C122 1.252 . S
O126 In117 2.326 . S
O126 C122 1.260 . S
C127 O118 1.240 . S
C127 O119 1.252 . S
O128 In117 2.294 . S
O128 C121 1.240 . S
O129 In117 2.326 . S
O129 C121 1.252 . S
In130 O131 2.294 . S
In130 O132 2.326 . S
In130 O136 2.266 . S
In130 O137 2.326 . S
In130 O138 2.266 . S
In130 O139 2.326 . S
In130 O141 2.294 . S
In130 O142 2.326 . S
O131 In130 2.294 . S
O131 C140 1.240 . S
O132 In130 2.326 . S
O132 C140 1.252 . S
C133 O136 1.252 1_655 S
C133 O137 1.260 1_655 S
C134 O141 1.240 . S
C134 O142 1.252 . S
C135 O138 1.252 . S
C135 O139 1.260 . S
O136 In130 2.266 . S
O136 C133 1.252 1_455 S
O137 In130 2.326 . S
O137 C133 1.260 1_455 S
O138 In130 2.266 . S
O138 C135 1.252 . S
O139 In130 2.326 . S
O139 C135 1.260 . S
C140 O131 1.240 . S
C140 O132 1.252 . S
O141 In130 2.294 . S
O141 C134 1.240 . S
O142 In130 2.326 . S
O142 C134 1.252 . S
In143 O144 2.294 . S
In143 O145 2.326 . S
In143 O149 2.266 . S
In143 O150 2.326 . S
In143 O151 2.266 . S
In143 O152 2.326 . S
In143 O154 2.294 . S
In143 O155 2.326 . S
O144 In143 2.294 . S
O144 C153 1.240 . S
O145 In143 2.326 . S
O145 C153 1.252 . S
C146 O149 1.252 . S
C146 O150 1.260 . S
C147 O154 1.240 . S
C147 O155 1.252 . S
C148 O151 1.252 . S
C148 O152 1.260 . S
O149 In143 2.266 . S
O149 C146 1.252 . S
O150 In143 2.326 . S
O150 C146 1.260 . S
O151 In143 2.266 . S
O151 C148 1.252 . S
O152 In143 2.326 . S
O152 C148 1.260 . S
C153 O144 1.240 . S
C153 O145 1.252 . S
O154 In143 2.294 . S
O154 C147 1.240 . S
O155 In143 2.326 . S
O155 C147 1.252 . S
In156 O157 2.294 . S
In156 O158 2.326 . S
In156 O162 2.266 . S
In156 O163 2.326 . S
In156 O164 2.266 . S
In156 O165 2.326 . S
In156 O167 2.294 . S
In156 O168 2.326 . S
O157 In156 2.294 . S
O157 C166 1.240 . S
O158 In156 2.326 . S
O158 C166 1.252 . S
C159 O162 1.252 . S
C159 O163 1.260 . S
C160 O167 1.240 . S
C160 O168 1.252 . S
C161 O164 1.212 1_565 S
C161 O165 1.261 1_565 S
O162 In156 2.266 . S
O162 C159 1.252 . S
O163 In156 2.326 . S
O163 C159 1.260 . S
O164 In156 2.266 . S
O164 C161 1.212 1_545 S
O165 In156 2.326 . S
O165 C161 1.261 1_545 S
C166 O157 1.240 . S
C166 O158 1.252 . S
O167 In156 2.294 . S
O167 C160 1.240 . S
O168 In156 2.326 . S
O168 C160 1.252 . S
In169 O170 2.294 . S
In169 O171 2.326 . S
In169 O175 2.266 . S
In169 O176 2.326 . S
In169 O177 2.266 1_655 S
In169 O178 2.326 1_655 S
In169 O180 2.294 . S
In169 O181 2.326 . S
O170 In169 2.294 . S
O170 C179 1.240 . S
O171 In169 2.326 . S
O171 C179 1.252 . S
C172 O175 1.252 . S
C172 O176 1.260 . S
C173 O180 1.240 . S
C173 O181 1.252 . S
C174 O177 1.252 . S
C174 O178 1.260 . S
O175 In169 2.266 . S
O175 C172 1.252 . S
O176 In169 2.326 . S
O176 C172 1.260 . S
O177 In169 2.266 1_455 S
O177 C174 1.252 . S
O178 In169 2.326 1_455 S
O178 C174 1.260 . S
C179 O170 1.240 . S
C179 O171 1.252 . S
O180 In169 2.294 . S
O180 C173 1.240 . S
O181 In169 2.326 . S
O181 C173 1.252 . S
In182 O183 2.294 . S
In182 O184 2.326 . S
In182 O188 2.266 . S
In182 O189 2.326 . S
In182 O190 2.266 . S
In182 O191 2.326 . S
In182 O193 2.294 . S
In182 O194 2.326 . S
O183 In182 2.294 . S
O183 C192 1.240 . S
O184 In182 2.326 . S
O184 C192 1.252 . S
C185 O188 1.252 . S
C185 O189 1.260 . S
C186 O193 1.240 . S
C186 O194 1.252 . S
C187 O190 1.252 . S
C187 O191 1.260 . S
O188 In182 2.266 . S
O188 C185 1.252 . S
O189 In182 2.326 . S
O189 C185 1.260 . S
O190 In182 2.266 . S
O190 C187 1.252 . S
O191 In182 2.326 . S
O191 C187 1.260 . S
C192 O183 1.240 . S
C192 O184 1.252 . S
O193 In182 2.294 . S
O193 C186 1.240 . S
O194 In182 2.326 . S
O194 C186 1.252 . S
In195 O196 2.294 . S
In195 O197 2.326 . S
In195 O201 2.266 . S
In195 O202 2.326 . S
In195 O203 2.266 . S
In195 O204 2.326 . S
In195 O206 2.294 . S
In195 O207 2.326 . S
O196 In195 2.294 . S
O196 C205 1.240 . S
O197 In195 2.326 . S
O197 C205 1.252 . S
C198 O201 1.252 . S
C198 O202 1.260 . S
C199 O206 1.240 . S
C199 O207 1.252 . S
C200 O203 1.252 . S
C200 O204 1.260 . S
O201 In195 2.266 . S
O201 C198 1.252 . S
O202 In195 2.326 . S
O202 C198 1.260 . S
O203 In195 2.266 . S
O203 C200 1.252 . S
O204 In195 2.326 . S
O204 C200 1.260 . S
C205 O196 1.240 . S
C205 O197 1.252 . S
O206 In195 2.294 . S
O206 C199 1.240 . S
O207 In195 2.326 . S
O207 C199 1.252 . S
In208 O209 2.294 . S
In208 O210 2.326 . S
In208 O214 2.266 . S
In208 O215 2.326 . S
In208 O216 2.266 . S
In208 O217 2.326 . S
In208 O219 2.294 . S
In208 O220 2.326 . S
O209 In208 2.294 . S
O209 C218 1.240 . S
O210 In208 2.326 . S
O210 C218 1.252 . S
C211 O214 1.252 . S
C211 O215 1.260 . S
C212 O219 1.240 1_565 S
C212 O220 1.252 1_565 S
C213 O216 1.252 . S
C213 O217 1.260 . S
O214 In208 2.266 . S
O214 C211 1.252 . S
O215 In208 2.326 . S
O215 C211 1.260 . S
O216 In208 2.266 . S
O216 C213 1.252 . S
O217 In208 2.326 . S
O217 C213 1.260 . S
C218 O209 1.240 . S
C218 O210 1.252 . S
O219 In208 2.294 . S
O219 C212 1.240 1_545 S
O220 In208 2.326 . S
O220 C212 1.252 1_545 S
In221 O222 2.294 . S
In221 O223 2.326 . S
In221 O227 2.266 . S
In221 O228 2.326 . S
In221 O229 2.266 1_655 S
In221 O230 2.326 1_655 S
In221 O232 2.294 . S
In221 O233 2.326 . S
O222 In221 2.294 . S
O222 C231 1.240 . S
O223 In221 2.326 . S
O223 C231 1.252 . S
C224 O227 1.252 . S
C224 O228 1.260 . S
C225 O232 1.240 . S
C225 O233 1.252 . S
C226 O229 1.252 . S
C226 O230 1.260 . S
O227 In221 2.266 . S
O227 C224 1.252 . S
O228 In221 2.326 . S
O228 C224 1.260 . S
O229 In221 2.266 1_455 S
O229 C226 1.252 . S
O230 In221 2.326 1_455 S
O230 C226 1.260 . S
C231 O222 1.240 . S
C231 O223 1.252 . S
O232 In221 2.294 . S
O232 C225 1.240 . S
O233 In221 2.326 . S
O233 C225 1.252 . S
H234 C240 0.930 . S
H235 C243 0.931 . S
H236 C245 0.931 . S
H237 C247 0.930 . S
H238 C249 0.930 . S
H239 C251 0.931 . S
C240 H234 0.930 . S
C240 C241 1.380 . S
C240 C242 1.394 . S
C241 C240 1.380 . S
C241 C245 1.382 . S
C242 C240 1.394 . S
C242 C243 1.400 . S
C243 H235 0.931 . S
C243 C242 1.400 . S
C243 C244 1.375 . S
C244 C243 1.375 . S
C244 C245 1.415 . S
C244 C246 1.501 . S
C245 H236 0.931 . S
C245 C241 1.382 . S
C245 C244 1.415 . S
C246 C244 1.501 . S
C246 C247 1.384 . S
C246 C251 1.408 . S
C247 H237 0.930 . S
C247 C246 1.384 . S
C247 C248 1.389 . S
C248 C247 1.389 . S
C248 C249 1.405 . S
C249 H238 0.930 . S
C249 C248 1.405 . S
C249 C250 1.364 . S
C250 C249 1.364 . S
C250 C251 1.400 . S
C251 H239 0.931 . S
C251 C246 1.408 . S
C251 C250 1.400 . S
H252 C258 0.930 . S
H253 C261 0.931 . S
H254 C263 0.931 . S
H255 C265 0.930 . S
H256 C267 0.930 . S
H257 C269 0.931 . S
C258 H252 0.930 . S
C258 C259 1.380 . S
C258 C260 1.394 . S
C259 C258 1.380 . S
C259 C263 1.382 . S
C260 C258 1.394 . S
C260 C261 1.400 . S
C261 H253 0.931 . S
C261 C260 1.400 . S
C261 C262 1.375 . S
C262 C261 1.375 . S
C262 C263 1.415 . S
C262 C264 1.501 . S
C263 H254 0.931 . S
C263 C259 1.382 . S
C263 C262 1.415 . S
C264 C262 1.501 . S
C264 C265 1.384 . S
C264 C269 1.408 . S
C265 H255 0.930 . S
C265 C264 1.384 . S
C265 C266 1.389 . S
C266 C265 1.389 . S
C266 C267 1.405 . S
C267 H256 0.930 . S
C267 C266 1.405 . S
C267 C268 1.364 . S
C268 C267 1.364 . S
C268 C269 1.400 . S
C269 H257 0.931 . S
C269 C264 1.408 . S
C269 C268 1.400 . S
H270 C276 0.930 . S
H271 C279 0.931 . S
H272 C281 0.931 . S
H273 C283 0.930 . S
H274 C285 0.930 . S
H275 C287 0.931 . S
C276 H270 0.930 . S
C276 C277 1.380 . S
C276 C278 1.394 . S
C277 C276 1.380 . S
C277 C281 1.382 . S
C278 C276 1.394 . S
C278 C279 1.400 . S
C279 H271 0.931 . S
C279 C278 1.400 . S
C279 C280 1.375 . S
C280 C279 1.375 . S
C280 C281 1.415 . S
C280 C282 1.501 . S
C281 H272 0.931 . S
C281 C277 1.382 . S
C281 C280 1.415 . S
C282 C280 1.501 . S
C282 C283 1.384 . S
C282 C287 1.408 . S
C283 H273 0.930 . S
C283 C282 1.384 . S
C283 C284 1.389 . S
C284 C283 1.389 . S
C284 C285 1.405 . S
C285 H274 0.930 . S
C285 C284 1.405 . S
C285 C286 1.364 . S
C286 C285 1.364 . S
C286 C287 1.400 . S
C287 H275 0.931 . S
C287 C282 1.408 . S
C287 C286 1.400 . S
H288 C294 0.930 . S
H289 C297 0.931 . S
H290 C299 0.931 . S
H291 C301 0.930 . S
H292 C303 0.930 . S
H293 C305 0.931 . S
C294 H288 0.930 . S
C294 C295 1.380 . S
C294 C296 1.394 . S
C295 C294 1.380 . S
C295 C299 1.382 . S
C296 C294 1.394 . S
C296 C297 1.400 . S
C297 H289 0.931 . S
C297 C296 1.400 . S
C297 C298 1.375 . S
C298 C297 1.375 . S
C298 C299 1.415 . S
C298 C300 1.501 . S
C299 H290 0.931 . S
C299 C295 1.382 . S
C299 C298 1.415 . S
C300 C298 1.501 . S
C300 C301 1.384 . S
C300 C305 1.408 . S
C301 H291 0.930 . S
C301 C300 1.384 . S
C301 C302 1.389 . S
C302 C301 1.389 . S
C302 C303 1.405 . S
C303 H292 0.930 . S
C303 C302 1.405 . S
C303 C304 1.364 . S
C304 C303 1.364 . S
C304 C305 1.400 . S
C305 H293 0.931 . S
C305 C300 1.408 . S
C305 C304 1.400 . S
H306 C312 0.930 . S
H307 C315 0.931 . S
H308 C317 0.931 . S
H309 C319 0.930 . S
H310 C321 0.930 . S
H311 C323 0.931 . S
C312 H306 0.930 . S
C312 C313 1.380 . S
C312 C314 1.394 . S
C313 C312 1.380 . S
C313 C317 1.382 . S
C314 C312 1.394 . S
C314 C315 1.400 . S
C315 H307 0.931 . S
C315 C314 1.400 . S
C315 C316 1.375 . S
C316 C315 1.375 . S
C316 C317 1.415 . S
C316 C318 1.501 . S
C317 H308 0.931 . S
C317 C313 1.382 . S
C317 C316 1.415 . S
C318 C316 1.501 . S
C318 C319 1.384 . S
C318 C323 1.408 . S
C319 H309 0.930 . S
C319 C318 1.384 . S
C319 C320 1.389 . S
C320 C319 1.389 . S
C320 C321 1.405 . S
C321 H310 0.930 . S
C321 C320 1.405 . S
C321 C322 1.364 . S
C322 C321 1.364 . S
C322 C323 1.400 . S
C323 H311 0.931 . S
C323 C318 1.408 . S
C323 C322 1.400 . S
H324 C330 0.930 . S
H325 C333 0.931 . S
H326 C335 0.931 . S
H327 C337 0.930 . S
H328 C339 0.930 . S
H329 C341 0.931 . S
C330 H324 0.930 . S
C330 C331 1.380 . S
C330 C332 1.394 . S
C331 C330 1.380 . S
C331 C335 1.382 . S
C332 C330 1.394 . S
C332 C333 1.400 . S
C333 H325 0.931 . S
C333 C332 1.400 . S
C333 C334 1.375 . S
C334 C333 1.375 . S
C334 C335 1.415 . S
C334 C336 1.501 . S
C335 H326 0.931 . S
C335 C331 1.382 . S
C335 C334 1.415 . S
C336 C334 1.501 . S
C336 C337 1.384 . S
C336 C341 1.408 . S
C337 H327 0.930 . S
C337 C336 1.384 . S
C337 C338 1.389 . S
C338 C337 1.389 . S
C338 C339 1.405 . S
C339 H328 0.930 . S
C339 C338 1.405 . S
C339 C340 1.364 . S
C340 C339 1.364 . S
C340 C341 1.400 . S
C341 H329 0.931 . S
C341 C336 1.408 . S
C341 C340 1.400 . S
H342 C348 0.930 . S
H343 C351 0.931 . S
H344 C353 0.931 . S
H345 C355 0.930 . S
H346 C357 0.930 . S
H347 C359 0.931 . S
C348 H342 0.930 . S
C348 C349 1.380 . S
C348 C350 1.394 . S
C349 C348 1.380 . S
C349 C353 1.382 . S
C350 C348 1.394 . S
C350 C351 1.400 . S
C351 H343 0.931 . S
C351 C350 1.400 . S
C351 C352 1.375 . S
C352 C351 1.375 . S
C352 C353 1.415 . S
C352 C354 1.501 . S
C353 H344 0.931 . S
C353 C349 1.382 . S
C353 C352 1.415 . S
C354 C352 1.501 . S
C354 C355 1.384 . S
C354 C359 1.408 . S
C355 H345 0.930 . S
C355 C354 1.384 . S
C355 C356 1.389 . S
C356 C355 1.389 . S
C356 C357 1.405 . S
C357 H346 0.930 . S
C357 C356 1.405 . S
C357 C358 1.364 . S
C358 C357 1.364 . S
C358 C359 1.400 . S
C359 H347 0.931 . S
C359 C354 1.408 . S
C359 C358 1.400 . S
H360 C366 0.930 . S
H361 C369 0.931 . S
H362 C371 0.931 . S
H363 C373 0.930 . S
H364 C375 0.930 . S
H365 C377 0.931 . S
C366 H360 0.930 . S
C366 C367 1.380 . S
C366 C368 1.394 . S
C367 C366 1.380 . S
C367 C371 1.382 . S
C368 C366 1.394 . S
C368 C369 1.400 . S
C369 H361 0.931 . S
C369 C368 1.400 . S
C369 C370 1.375 . S
C370 C369 1.375 . S
C370 C371 1.415 . S
C370 C372 1.501 . S
C371 H362 0.931 . S
C371 C367 1.382 . S
C371 C370 1.415 . S
C372 C370 1.501 . S
C372 C373 1.384 . S
C372 C377 1.408 . S
C373 H363 0.930 . S
C373 C372 1.384 . S
C373 C374 1.389 . S
C374 C373 1.389 . S
C374 C375 1.405 . S
C375 H364 0.930 . S
C375 C374 1.405 . S
C375 C376 1.364 . S
C376 C375 1.364 . S
C376 C377 1.400 . S
C377 H365 0.931 . S
C377 C372 1.408 . S
C377 C376 1.400 . S
H378 C384 0.930 . S
H379 C387 0.931 . S
H380 C389 0.931 . S
H381 C391 0.930 . S
H382 C393 0.930 . S
H383 C395 0.931 . S
C384 H378 0.930 . S
C384 C385 1.380 . S
C384 C386 1.394 . S
C385 C384 1.380 . S
C385 C389 1.382 . S
C386 C384 1.394 . S
C386 C387 1.400 . S
C387 H379 0.931 . S
C387 C386 1.400 . S
C387 C388 1.375 . S
C388 C387 1.375 . S
C388 C389 1.415 . S
C388 C390 1.501 . S
C389 H380 0.931 . S
C389 C385 1.382 . S
C389 C388 1.415 . S
C390 C388 1.501 . S
C390 C391 1.384 . S
C390 C395 1.408 . S
C391 H381 0.930 . S
C391 C390 1.384 . S
C391 C392 1.389 . S
C392 C391 1.389 . S
C392 C393 1.405 . S
C393 H382 0.930 . S
C393 C392 1.405 . S
C393 C394 1.364 . S
C394 C393 1.364 . S
C394 C395 1.400 . S
C395 H383 0.931 . S
C395 C390 1.408 . S
C395 C394 1.400 . S
H396 C402 0.930 . S
H397 C405 0.931 . S
H398 C407 0.931 . S
H399 C409 0.930 . S
H400 C411 0.930 . S
H401 C413 0.931 . S
C402 H396 0.930 . S
C402 C403 1.380 . S
C402 C404 1.394 . S
C403 C402 1.380 . S
C403 C407 1.382 . S
C404 C402 1.394 . S
C404 C405 1.400 . S
C405 H397 0.931 . S
C405 C404 1.400 . S
C405 C406 1.375 . S
C406 C405 1.375 . S
C406 C407 1.415 . S
C406 C408 1.501 . S
C407 H398 0.931 . S
C407 C403 1.382 . S
C407 C406 1.415 . S
C408 C406 1.501 . S
C408 C409 1.384 . S
C408 C413 1.408 . S
C409 H399 0.930 . S
C409 C408 1.384 . S
C409 C410 1.389 . S
C410 C409 1.389 . S
C410 C411 1.405 . S
C411 H400 0.930 . S
C411 C410 1.405 . S
C411 C412 1.364 . S
C412 C411 1.364 . S
C412 C413 1.400 . S
C413 H401 0.931 . S
C413 C408 1.408 . S
C413 C412 1.400 . S
H414 C420 0.930 . S
H415 C423 0.931 . S
H416 C425 0.931 . S
H417 C427 0.930 . S
H418 C429 0.930 . S
H419 C431 0.931 . S
C420 H414 0.930 . S
C420 C421 1.380 . S
C420 C422 1.394 . S
C421 C420 1.380 . S
C421 C425 1.382 . S
C422 C420 1.394 . S
C422 C423 1.400 . S
C423 H415 0.931 . S
C423 C422 1.400 . S
C423 C424 1.375 . S
C424 C423 1.375 . S
C424 C425 1.415 . S
C424 C426 1.501 . S
C425 H416 0.931 . S
C425 C421 1.382 . S
C425 C424 1.415 . S
C426 C424 1.501 . S
C426 C427 1.384 . S
C426 C431 1.408 . S
C427 H417 0.930 . S
C427 C426 1.384 . S
C427 C428 1.389 . S
C428 C427 1.389 . S
C428 C429 1.405 . S
C429 H418 0.930 . S
C429 C428 1.405 . S
C429 C430 1.364 . S
C430 C429 1.364 . S
C430 C431 1.400 . S
C431 H419 0.931 . S
C431 C426 1.408 . S
C431 C430 1.400 . S
H432 C438 0.945 . S
H433 C441 0.931 . S
H434 C443 0.931 . S
H435 C445 0.930 . S
H436 C447 0.930 . S
H437 C449 0.921 1_545 S
C438 H432 0.945 . S
C438 C439 1.377 . S
C438 C440 1.383 1_545 S
C439 C438 1.377 . S
C439 C443 1.382 . S
C440 C438 1.383 1_565 S
C440 C441 1.400 . S
C441 H433 0.931 . S
C441 C440 1.400 . S
C441 C442 1.375 . S
C442 C441 1.375 . S
C442 C443 1.415 1_565 S
C442 C444 1.501 . S
C443 H434 0.931 . S
C443 C439 1.382 . S
C443 C442 1.415 1_545 S
C444 C442 1.501 . S
C444 C445 1.384 . S
C444 C449 1.399 . S
C445 H435 0.930 . S
C445 C444 1.384 . S
C445 C446 1.389 . S
C446 C445 1.389 . S
C446 C447 1.405 . S
C447 H436 0.930 . S
C447 C446 1.405 . S
C447 C448 1.375 . S
C448 C447 1.375 . S
C448 C449 1.406 . S
C449 H437 0.921 1_565 S
C449 C444 1.399 . S
C449 C448 1.406 . S
H450 C456 0.930 . S
H451 C459 0.931 . S
H452 C461 0.931 . S
H453 C463 0.930 . S
H454 C465 0.930 . S
H455 C467 0.931 . S
C456 H450 0.930 . S
C456 C457 1.380 . S
C456 C458 1.394 . S
C457 C456 1.380 . S
C457 C461 1.382 . S
C458 C456 1.394 . S
C458 C459 1.400 . S
C459 H451 0.931 . S
C459 C458 1.400 . S
C459 C460 1.375 . S
C460 C459 1.375 . S
C460 C461 1.415 . S
C460 C462 1.501 . S
C461 H452 0.931 . S
C461 C457 1.382 . S
C461 C460 1.415 . S
C462 C460 1.501 . S
C462 C463 1.384 . S
C462 C467 1.408 . S
C463 H453 0.930 . S
C463 C462 1.384 . S
C463 C464 1.389 . S
C464 C463 1.389 . S
C464 C465 1.405 . S
C465 H454 0.930 . S
C465 C464 1.405 . S
C465 C466 1.364 . S
C466 C465 1.364 . S
C466 C467 1.400 . S
C467 H455 0.931 . S
C467 C462 1.408 . S
C467 C466 1.400 . S
H468 C474 0.955 . S
H469 C477 0.931 . S
H470 C479 0.932 1_655 S
H471 C481 0.930 . S
H472 C483 0.974 . S
H473 C485 0.931 . S
C474 H468 0.955 . S
C474 C475 1.377 . S
C474 C476 1.369 1_655 S
C475 C474 1.377 . S
C475 C479 1.363 1_655 S
C476 C474 1.369 1_455 S
C476 C477 1.427 . S
C477 H469 0.931 . S
C477 C476 1.427 . S
C477 C478 1.375 . S
C478 C477 1.375 . S
C478 C479 1.417 . S
C478 C480 1.501 . S
C479 H470 0.932 1_455 S
C479 C475 1.363 1_455 S
C479 C478 1.417 . S
C480 C478 1.501 . S
C480 C481 1.384 . S
C480 C485 1.408 1_455 S
C481 H471 0.930 . S
C481 C480 1.384 . S
C481 C482 1.389 . S
C482 C481 1.389 . S
C482 C483 1.397 . S
C483 H472 0.974 . S
C483 C482 1.397 . S
C483 C484 1.334 1_455 S
C484 C483 1.334 1_655 S
C484 C485 1.400 . S
C485 H473 0.931 . S
C485 C480 1.408 1_655 S
C485 C484 1.400 . S
H486 C492 0.930 . S
H487 C495 0.931 . S
H488 C497 0.931 . S
H489 C499 0.930 . S
H490 C501 0.930 . S
H491 C503 0.931 . S
C492 H486 0.930 . S
C492 C493 1.380 . S
C492 C494 1.394 . S
C493 C492 1.380 . S
C493 C497 1.382 . S
C494 C492 1.394 . S
C494 C495 1.400 . S
C495 H487 0.931 . S
C495 C494 1.400 . S
C495 C496 1.375 . S
C496 C495 1.375 . S
C496 C497 1.415 . S
C496 C498 1.501 . S
C497 H488 0.931 . S
C497 C493 1.382 . S
C497 C496 1.415 . S
C498 C496 1.501 . S
C498 C499 1.384 . S
C498 C503 1.408 . S
C499 H489 0.930 . S
C499 C498 1.384 . S
C499 C500 1.389 . S
C500 C499 1.389 . S
C500 C501 1.405 . S
C501 H490 0.930 . S
C501 C500 1.405 . S
C501 C502 1.364 . S
C502 C501 1.364 . S
C502 C503 1.400 . S
C503 H491 0.931 . S
C503 C498 1.408 . S
C503 C502 1.400 . S
H504 C510 0.930 . S
H505 C513 0.931 . S
H506 C515 0.931 . S
H507 C517 0.930 . S
H508 C519 0.930 . S
H509 C521 0.931 . S
C510 H504 0.930 . S
C510 C511 1.380 . S
C510 C512 1.394 . S
C511 C510 1.380 . S
C511 C515 1.382 . S
C512 C510 1.394 . S
C512 C513 1.400 . S
C513 H505 0.931 . S
C513 C512 1.400 . S
C513 C514 1.375 . S
C514 C513 1.375 . S
C514 C515 1.415 . S
C514 C516 1.501 . S
C515 H506 0.931 . S
C515 C511 1.382 . S
C515 C514 1.415 . S
C516 C514 1.501 . S
C516 C517 1.384 . S
C516 C521 1.408 . S
C517 H507 0.930 . S
C517 C516 1.384 . S
C517 C518 1.389 . S
C518 C517 1.389 . S
C518 C519 1.405 . S
C519 H508 0.930 . S
C519 C518 1.405 . S
C519 C520 1.364 . S
C520 C519 1.364 . S
C520 C521 1.400 . S
C521 H509 0.931 . S
C521 C516 1.408 . S
C521 C520 1.400 . S
H522 C528 0.930 . S
H523 C531 0.931 . S
H524 C533 0.931 . S
H525 C535 0.930 . S
H526 C537 0.930 . S
H527 C539 0.931 . S
C528 H522 0.930 . S
C528 C529 1.380 . S
C528 C530 1.394 . S
C529 C528 1.380 . S
C529 C533 1.382 . S
C530 C528 1.394 . S
C530 C531 1.400 . S
C531 H523 0.931 . S
C531 C530 1.400 . S
C531 C532 1.375 . S
C532 C531 1.375 . S
C532 C533 1.415 . S
C532 C534 1.501 . S
C533 H524 0.931 . S
C533 C529 1.382 . S
C533 C532 1.415 . S
C534 C532 1.501 . S
C534 C535 1.384 . S
C534 C539 1.408 . S
C535 H525 0.930 . S
C535 C534 1.384 . S
C535 C536 1.389 . S
C536 C535 1.389 . S
C536 C537 1.405 . S
C537 H526 0.930 . S
C537 C536 1.405 . S
C537 C538 1.364 . S
C538 C537 1.364 . S
C538 C539 1.400 . S
C539 H527 0.931 . S
C539 C534 1.408 . S
C539 C538 1.400 . S
H540 C546 0.930 . S
H541 C549 0.931 . S
H542 C551 0.931 . S
H543 C553 0.930 . S
H544 C555 0.930 . S
H545 C557 0.931 . S
C546 H540 0.930 . S
C546 C547 1.380 . S
C546 C548 1.394 . S
C547 C546 1.380 . S
C547 C551 1.382 . S
C548 C546 1.394 . S
C548 C549 1.400 . S
C549 H541 0.931 . S
C549 C548 1.400 . S
C549 C550 1.375 . S
C550 C549 1.375 . S
C550 C551 1.415 . S
C550 C552 1.501 . S
C551 H542 0.931 . S
C551 C547 1.382 . S
C551 C550 1.415 . S
C552 C550 1.501 . S
C552 C553 1.384 . S
C552 C557 1.408 . S
C553 H543 0.930 . S
C553 C552 1.384 . S
C553 C554 1.389 . S
C554 C553 1.389 . S
C554 C555 1.405 . S
C555 H544 0.930 . S
C555 C554 1.405 . S
C555 C556 1.364 . S
C556 C555 1.364 . S
C556 C557 1.400 . S
C557 H545 0.931 . S
C557 C552 1.408 . S
C557 C556 1.400 . S
H558 C576 0.951 . S
H559 C578 0.951 . S
H560 C580 0.935 1_655 S
H561 C581 0.929 1_655 S
H562 C583 0.950 . S
H563 C586 0.950 . S
H564 C587 0.950 . S
H565 C589 0.950 . S
H566 C590 0.950 1_455 S
H567 C591 0.940 1_655 S
H568 C593 0.929 1_655 S
H569 C595 0.950 . S
H570 C596 0.950 . S
H571 C598 0.941 1_655 S
H572 C601 0.950 . S
H573 C602 0.950 . S
H574 C604 0.950 . S
H575 C605 0.950 . S
C576 H558 0.951 . S
C576 C577 1.366 . S
C576 C578 1.388 . S
C577 C576 1.366 . S
C577 C581 1.431 . S
C578 H559 0.951 . S
C578 C576 1.388 . S
C578 C579 1.366 . S
C579 C578 1.366 . S
C579 C580 1.421 . S
C579 C582 1.499 . S
C580 H560 0.935 1_455 S
C580 C579 1.421 . S
C580 C581 1.359 . S
C581 H561 0.929 1_455 S
C581 C577 1.431 . S
C581 C580 1.359 . S
C582 C579 1.499 . S
C582 C583 1.373 . S
C582 C584 1.382 1_455 S
C583 H562 0.950 . S
C583 C582 1.373 . S
C583 C599 1.377 . S
C584 C582 1.382 1_655 S
C584 C585 1.525 . S
C584 C598 1.403 1_655 S
C585 C584 1.525 . S
C585 C586 1.397 . S
C585 C590 1.363 . S
C586 H563 0.950 . S
C586 C585 1.397 . S
C586 C587 1.334 . S
C587 H564 0.950 . S
C587 C586 1.334 . S
C587 C588 1.287 . S
C588 C587 1.287 . S
C588 C589 1.524 . S
C588 H607 0.913 . S
C589 H565 0.950 . S
C589 C588 1.524 . S
C589 C590 1.415 . S
C590 H566 0.950 1_655 S
C590 C585 1.363 . S
C590 C589 1.415 . S
C591 H567 0.940 1_455 S
C591 C592 1.371 . S
C591 C593 1.370 . S
C592 C591 1.371 . S
C592 C596 1.385 . S
C593 H568 0.929 1_455 S
C593 C591 1.370 . S
C593 C594 1.414 . S
C594 C593 1.414 . S
C594 C595 1.414 . S
C594 C597 1.499 . S
C595 H569 0.950 . S
C595 C594 1.414 . S
C595 C596 1.374 . S
C596 H570 0.950 . S
C596 C592 1.385 . S
C596 C595 1.374 . S
C597 C594 1.499 . S
C597 C598 1.370 . S
C597 C599 1.389 . S
C598 H571 0.941 1_455 S
C598 C584 1.403 1_455 S
C598 C597 1.370 . S
C599 C583 1.377 . S
C599 C597 1.389 . S
C599 C600 1.524 . S
C600 C599 1.524 . S
C600 C601 1.397 . S
C600 C605 1.363 . S
C601 H572 0.950 . S
C601 C600 1.397 . S
C601 C602 1.334 . S
C602 H573 0.950 . S
C602 C601 1.334 . S
C602 C603 1.287 . S
C603 C602 1.287 . S
C603 C604 1.524 . S
C603 H606 0.999 . S
C604 H574 0.950 . S
C604 C603 1.524 . S
C604 C605 1.415 . S
C605 H575 0.950 . S
C605 C600 1.363 . S
C605 C604 1.415 . S
H606 C603 0.999 . S
H607 C588 0.913 . S
H608 C626 0.951 . S
H609 C628 0.951 . S
H610 C630 0.950 . S
H611 C631 0.950 . S
H612 C633 0.950 . S
H613 C636 0.950 . S
H614 C637 0.950 . S
H615 C639 0.950 . S
H616 C640 0.950 . S
H617 C641 0.951 . S
H618 C643 0.951 . S
H619 C645 0.950 . S
H620 C646 0.950 . S
H621 C648 0.950 . S
H622 C651 0.950 . S
H623 C652 0.950 . S
H624 C654 0.950 . S
H625 C655 0.950 . S
C626 H608 0.951 . S
C626 C627 1.366 . S
C626 C628 1.388 . S
C627 C626 1.366 . S
C627 C631 1.385 . S
C628 H609 0.951 . S
C628 C626 1.388 . S
C628 C629 1.366 . S
C629 C628 1.366 . S
C629 C630 1.414 . S
C629 C632 1.499 . S
C630 H610 0.950 . S
C630 C629 1.414 . S
C630 C631 1.374 . S
C631 H611 0.950 . S
C631 C627 1.385 . S
C631 C630 1.374 . S
C632 C629 1.499 . S
C632 C633 1.373 . S
C632 C634 1.389 . S
C633 H612 0.950 . S
C633 C632 1.373 . S
C633 C649 1.377 . S
C634 C632 1.389 . S
C634 C635 1.524 . S
C634 C648 1.377 . S
C635 C634 1.524 . S
C635 C636 1.397 . S
C635 C640 1.363 . S
C636 H613 0.950 . S
C636 C635 1.397 . S
C636 C637 1.334 . S
C637 H614 0.950 . S
C637 C636 1.334 . S
C637 C638 1.287 . S
C638 C637 1.287 . S
C638 C639 1.524 . S
C638 H657 0.913 . S
C639 H615 0.950 . S
C639 C638 1.524 . S
C639 C640 1.415 . S
C640 H616 0.950 . S
C640 C635 1.363 . S
C640 C639 1.415 . S
C641 H617 0.951 . S
C641 C642 1.366 . S
C641 C643 1.388 . S
C642 C641 1.366 . S
C642 C646 1.385 . S
C643 H618 0.951 . S
C643 C641 1.388 . S
C643 C644 1.366 . S
C644 C643 1.366 . S
C644 C645 1.414 . S
C644 C647 1.499 . S
C645 H619 0.950 . S
C645 C644 1.414 . S
C645 C646 1.374 . S
C646 H620 0.950 . S
C646 C642 1.385 . S
C646 C645 1.374 . S
C647 C644 1.499 . S
C647 C648 1.373 . S
C647 C649 1.389 . S
C648 H621 0.950 . S
C648 C634 1.377 . S
C648 C647 1.373 . S
C649 C633 1.377 . S
C649 C647 1.389 . S
C649 C650 1.524 . S
C650 C649 1.524 . S
C650 C651 1.397 . S
C650 C655 1.363 . S
C651 H622 0.950 . S
C651 C650 1.397 . S
C651 C652 1.334 . S
C652 H623 0.950 . S
C652 C651 1.334 . S
C652 C653 1.287 . S
C653 C652 1.287 . S
C653 C654 1.524 . S
C653 H656 0.999 . S
C654 H624 0.950 . S
C654 C653 1.524 . S
C654 C655 1.415 . S
C655 H625 0.950 . S
C655 C650 1.363 . S
C655 C654 1.415 . S
H656 C653 0.999 . S
H657 C638 0.913 . S
H658 C676 0.951 . S
H659 C678 0.951 . S
H660 C680 0.950 . S
H661 C681 0.950 . S
H662 C683 0.950 . S
H663 C686 0.950 . S
H664 C687 0.950 . S
H665 C689 0.965 . S
H666 C690 0.950 . S
H667 C691 0.951 . S
H668 C693 0.951 . S
H669 C695 0.950 . S
H670 C696 0.950 . S
H671 C698 0.950 . S
H672 C701 0.950 . S
H673 C702 0.950 . S
H674 C704 0.950 . S
H675 C705 0.950 . S
C676 H658 0.951 . S
C676 C677 1.366 1_565 S
C676 C678 1.388 . S
C677 C676 1.366 1_545 S
C677 C681 1.385 . S
C678 H659 0.951 . S
C678 C676 1.388 . S
C678 C679 1.366 1_565 S
C679 C678 1.366 1_545 S
C679 C680 1.414 . S
C679 C682 1.499 . S
C680 H660 0.950 . S
C680 C679 1.414 . S
C680 C681 1.374 . S
C681 H661 0.950 . S
C681 C677 1.385 . S
C681 C680 1.374 . S
C682 C679 1.499 . S
C682 C683 1.373 . S
C682 C684 1.389 . S
C683 H662 0.950 . S
C683 C682 1.373 . S
C683 C699 1.377 . S
C684 C682 1.389 . S
C684 C685 1.524 . S
C684 C698 1.377 . S
C685 C684 1.524 . S
C685 C686 1.397 . S
C685 C690 1.363 1_545 S
C686 H663 0.950 . S
C686 C685 1.397 . S
C686 C687 1.334 . S
C687 H664 0.950 . S
C687 C686 1.334 . S
C687 C688 1.287 . S
C688 C687 1.287 . S
C688 C689 1.481 1_545 S
C688 H707 0.913 . S
C689 H665 0.965 . S
C689 C688 1.481 1_565 S
C689 C690 1.442 . S
C690 H666 0.950 . S
C690 C685 1.363 1_565 S
C690 C689 1.442 . S
C691 H667 0.951 . S
C691 C692 1.366 . S
C691 C693 1.388 . S
C692 C691 1.366 . S
C692 C696 1.385 1_545 S
C693 H668 0.951 . S
C693 C691 1.388 . S
C693 C694 1.366 . S
C694 C693 1.366 . S
C694 C695 1.414 1_545 S
C694 C697 1.499 . S
C695 H669 0.950 . S
C695 C694 1.414 1_565 S
C695 C696 1.374 . S
C696 H670 0.950 . S
C696 C692 1.385 1_565 S
C696 C695 1.374 . S
C697 C694 1.499 . S
C697 C698 1.373 . S
C697 C699 1.389 . S
C698 H671 0.950 . S
C698 C684 1.377 . S
C698 C697 1.373 . S
C699 C683 1.377 . S
C699 C697 1.389 . S
C699 C700 1.543 . S
C700 C699 1.543 . S
C700 C701 1.365 1_545 S
C700 C705 1.375 . S
C701 H672 0.950 . S
C701 C700 1.365 1_565 S
C701 C702 1.334 . S
C702 H673 0.950 . S
C702 C701 1.334 . S
C702 C703 1.287 . S
C703 C702 1.287 . S
C703 C704 1.524 1_565 S
C703 H706 0.999 . S
C704 H674 0.950 . S
C704 C703 1.524 1_545 S
C704 C705 1.415 . S
C705 H675 0.950 . S
C705 C700 1.375 . S
C705 C704 1.415 . S
H706 C703 0.999 . S
H707 C688 0.913 . S
H708 C726 0.951 . S
H709 C728 0.951 . S
H710 C730 0.950 . S
H711 C731 0.950 . S
H712 C733 0.950 . S
H713 C736 0.950 . S
H714 C737 0.950 . S
H715 C739 0.950 . S
H716 C740 0.950 . S
H717 C741 0.951 . S
H718 C743 0.951 . S
H719 C745 0.950 . S
H720 C746 0.950 . S
H721 C748 0.950 . S
H722 C751 0.995 . S
H723 C752 0.950 1_545 S
H724 C754 0.950 . S
H725 C755 0.950 . S
C726 H708 0.951 . S
C726 C727 1.366 . S
C726 C728 1.388 . S
C727 C726 1.366 . S
C727 C731 1.385 1_545 S
C728 H709 0.951 . S
C728 C726 1.388 . S
C728 C729 1.366 . S
C729 C728 1.366 . S
C729 C730 1.414 1_545 S
C729 C732 1.499 . S
C730 H710 0.950 . S
C730 C729 1.414 1_565 S
C730 C731 1.374 . S
C731 H711 0.950 . S
C731 C727 1.385 1_565 S
C731 C730 1.374 . S
C732 C729 1.499 . S
C732 C733 1.373 1_545 S
C732 C734 1.389 . S
C733 H712 0.950 . S
C733 C732 1.373 1_565 S
C733 C749 1.348 . S
C734 C732 1.389 . S
C734 C735 1.524 . S
C734 C748 1.377 . S
C735 C734 1.524 . S
C735 C736 1.397 . S
C735 C740 1.363 . S
C736 H713 0.950 . S
C736 C735 1.397 . S
C736 C737 1.334 . S
C737 H714 0.950 . S
C737 C736 1.334 . S
C737 C738 1.287 . S
C738 C737 1.287 . S
C738 C739 1.524 . S
C738 H757 0.913 . S
C739 H715 0.950 . S
C739 C738 1.524 . S
C739 C740 1.415 . S
C740 H716 0.950 . S
C740 C735 1.363 . S
C740 C739 1.415 . S
C741 H717 0.951 . S
C741 C742 1.366 1_565 S
C741 C743 1.388 . S
C742 C741 1.366 1_545 S
C742 C746 1.385 . S
C743 H718 0.951 . S
C743 C741 1.388 . S
C743 C744 1.366 1_565 S
C744 C743 1.366 1_545 S
C744 C745 1.414 . S
C744 C747 1.499 . S
C745 H719 0.950 . S
C745 C744 1.414 . S
C745 C746 1.374 . S
C746 H720 0.950 . S
C746 C742 1.385 . S
C746 C745 1.374 . S
C747 C744 1.499 . S
C747 C748 1.373 . S
C747 C749 1.352 1_545 S
C748 H721 0.950 . S
C748 C734 1.377 . S
C748 C747 1.373 . S
C749 C733 1.348 . S
C749 C747 1.352 1_565 S
C749 C750 1.594 . S
C750 C749 1.594 . S
C750 C751 1.393 1_565 S
C750 C755 1.363 . S
C751 H722 0.995 . S
C751 C750 1.393 1_545 S
C751 C752 1.295 1_545 S
C752 H723 0.950 1_565 S
C752 C751 1.295 1_565 S
C752 C753 1.287 . S
C753 C752 1.287 . S
C753 C754 1.524 . S
C753 H756 0.999 . S
C754 H724 0.950 . S
C754 C753 1.524 . S
C754 C755 1.415 . S
C755 H725 0.950 . S
C755 C750 1.363 . S
C755 C754 1.415 . S
H756 C753 0.999 . S
H757 C738 0.913 . S
H758 C776 0.951 . S
H759 C778 0.951 . S
H760 C780 0.950 . S
H761 C781 0.950 . S
H762 C783 0.950 . S
H763 C786 0.950 . S
H764 C787 0.950 . S
H765 C789 0.950 . S
H766 C790 0.950 . S
H767 C791 0.951 . S
H768 C793 0.951 . S
H769 C795 0.950 . S
H770 C796 0.950 . S
H771 C798 0.950 . S
H772 C801 0.950 . S
H773 C802 0.950 . S
H774 C804 0.950 . S
H775 C805 0.950 . S
C776 H758 0.951 . S
C776 C777 1.366 . S
C776 C778 1.388 . S
C777 C776 1.366 . S
C777 C781 1.385 1_455 S
C778 H759 0.951 . S
C778 C776 1.388 . S
C778 C779 1.366 . S
C779 C778 1.366 . S
C779 C780 1.414 1_455 S
C779 C782 1.499 . S
C780 H760 0.950 . S
C780 C779 1.414 1_655 S
C780 C781 1.374 . S
C781 H761 0.950 . S
C781 C777 1.385 1_655 S
C781 C780 1.374 . S
C782 C779 1.499 . S
C782 C783 1.373 1_455 S
C782 C784 1.389 . S
C783 H762 0.950 . S
C783 C782 1.373 1_655 S
C783 C799 1.377 . S
C784 C782 1.389 . S
C784 C785 1.524 . S
C784 C798 1.377 . S
C785 C784 1.524 . S
C785 C786 1.397 . S
C785 C790 1.363 . S
C786 H763 0.950 . S
C786 C785 1.397 . S
C786 C787 1.334 . S
C787 H764 0.950 . S
C787 C786 1.334 . S
C787 C788 1.287 . S
C788 C787 1.287 . S
C788 C789 1.524 . S
C788 H807 0.913 . S
C789 H765 0.950 . S
C789 C788 1.524 . S
C789 C790 1.415 . S
C790 H766 0.950 . S
C790 C785 1.363 . S
C790 C789 1.415 . S
C791 H767 0.951 . S
C791 C792 1.366 1_655 S
C791 C793 1.388 . S
C792 C791 1.366 1_455 S
C792 C796 1.385 . S
C793 H768 0.951 . S
C793 C791 1.388 . S
C793 C794 1.366 1_655 S
C794 C793 1.366 1_455 S
C794 C795 1.414 . S
C794 C797 1.499 . S
C795 H769 0.950 . S
C795 C794 1.414 . S
C795 C796 1.374 . S
C796 H770 0.950 . S
C796 C792 1.385 . S
C796 C795 1.374 . S
C797 C794 1.499 . S
C797 C798 1.373 . S
C797 C799 1.389 1_455 S
C798 H771 0.950 . S
C798 C784 1.377 . S
C798 C797 1.373 . S
C799 C783 1.377 . S
C799 C797 1.389 1_655 S
C799 C800 1.524 . S
C800 C799 1.524 . S
C800 C801 1.397 . S
C800 C805 1.363 . S
C801 H772 0.950 . S
C801 C800 1.397 . S
C801 C802 1.334 . S
C802 H773 0.950 . S
C802 C801 1.334 . S
C802 C803 1.287 . S
C803 C802 1.287 . S
C803 C804 1.524 . S
C803 H806 0.999 . S
C804 H774 0.950 . S
C804 C803 1.524 . S
C804 C805 1.415 . S
C805 H775 0.950 . S
C805 C800 1.363 . S
C805 C804 1.415 . S
H806 C803 0.999 . S
H807 C788 0.913 . S
H808 C826 0.951 . S
H809 C828 0.951 . S
H810 C830 0.950 . S
H811 C831 0.950 . S
H812 C833 0.950 . S
H813 C836 0.950 . S
H814 C837 0.950 . S
H815 C839 0.950 . S
H816 C840 0.950 . S
H817 C841 0.951 . S
H818 C843 0.951 . S
H819 C845 0.950 . S
H820 C846 0.950 . S
H821 C848 0.950 . S
H822 C851 0.950 . S
H823 C852 0.950 . S
H824 C854 0.950 . S
H825 C855 0.950 . S
C826 H808 0.951 . S
C826 C827 1.366 . S
C826 C828 1.388 . S
C827 C826 1.366 . S
C827 C831 1.385 . S
C828 H809 0.951 . S
C828 C826 1.388 . S
C828 C829 1.366 . S
C829 C828 1.366 . S
C829 C830 1.414 . S
C829 C832 1.499 . S
C830 H810 0.950 . S
C830 C829 1.414 . S
C830 C831 1.374 . S
C831 H811 0.950 . S
C831 C827 1.385 . S
C831 C830 1.374 . S
C832 C829 1.499 . S
C832 C833 1.373 . S
C832 C834 1.389 . S
C833 H812 0.950 . S
C833 C832 1.373 . S
C833 C849 1.377 . S
C834 C832 1.389 . S
C834 C835 1.524 . S
C834 C848 1.377 . S
C835 C834 1.524 . S
C835 C836 1.397 . S
C835 C840 1.363 . S
C836 H813 0.950 . S
C836 C835 1.397 . S
C836 C837 1.334 . S
C837 H814 0.950 . S
C837 C836 1.334 . S
C837 C838 1.287 . S
C838 C837 1.287 . S
C838 C839 1.524 . S
C838 H857 0.913 . S
C839 H815 0.950 . S
C839 C838 1.524 . S
C839 C840 1.415 . S
C840 H816 0.950 . S
C840 C835 1.363 . S
C840 C839 1.415 . S
C841 H817 0.951 . S
C841 C842 1.366 . S
C841 C843 1.388 . S
C842 C841 1.366 . S
C842 C846 1.385 . S
C843 H818 0.951 . S
C843 C841 1.388 . S
C843 C844 1.366 . S
C844 C843 1.366 . S
C844 C845 1.414 . S
C844 C847 1.499 . S
C845 H819 0.950 . S
C845 C844 1.414 . S
C845 C846 1.374 . S
C846 H820 0.950 . S
C846 C842 1.385 . S
C846 C845 1.374 . S
C847 C844 1.499 . S
C847 C848 1.373 . S
C847 C849 1.389 . S
C848 H821 0.950 . S
C848 C834 1.377 . S
C848 C847 1.373 . S
C849 C833 1.377 . S
C849 C847 1.389 . S
C849 C850 1.524 . S
C850 C849 1.524 . S
C850 C851 1.397 . S
C850 C855 1.363 . S
C851 H822 0.950 . S
C851 C850 1.397 . S
C851 C852 1.334 . S
C852 H823 0.950 . S
C852 C851 1.334 . S
C852 C853 1.287 . S
C853 C852 1.287 . S
C853 C854 1.524 . S
C853 H856 0.999 . S
C854 H824 0.950 . S
C854 C853 1.524 . S
C854 C855 1.415 . S
C855 H825 0.950 . S
C855 C850 1.363 . S
C855 C854 1.415 . S
H856 C853 0.999 . S
H857 C838 0.913 . S
H858 C876 0.951 . S
H859 C878 0.951 . S
H860 C880 0.950 . S
H861 C881 0.950 . S
H862 C883 0.950 . S
H863 C886 0.950 . S
H864 C887 0.950 . S
H865 C889 0.950 . S
H866 C890 0.950 . S
H867 C891 0.951 . S
H868 C893 0.951 . S
H869 C895 0.950 . S
H870 C896 0.950 . S
H871 C898 0.950 . S
H872 C901 0.950 . S
H873 C902 0.950 . S
H874 C904 0.950 . S
H875 C905 0.950 . S
C876 H858 0.951 . S
C876 C877 1.366 1_655 S
C876 C878 1.388 . S
C877 C876 1.366 1_455 S
C877 C881 1.385 . S
C878 H859 0.951 . S
C878 C876 1.388 . S
C878 C879 1.366 1_655 S
C879 C878 1.366 1_455 S
C879 C880 1.414 . S
C879 C882 1.499 . S
C880 H860 0.950 . S
C880 C879 1.414 . S
C880 C881 1.374 . S
C881 H861 0.950 . S
C881 C877 1.385 . S
C881 C880 1.374 . S
C882 C879 1.499 . S
C882 C883 1.373 . S
C882 C884 1.389 1_455 S
C883 H862 0.950 . S
C883 C882 1.373 . S
C883 C899 1.377 . S
C884 C882 1.389 1_655 S
C884 C885 1.524 . S
C884 C898 1.377 . S
C885 C884 1.524 . S
C885 C886 1.397 . S
C885 C890 1.363 . S
C886 H863 0.950 . S
C886 C885 1.397 . S
C886 C887 1.334 . S
C887 H864 0.950 . S
C887 C886 1.334 . S
C887 C888 1.287 . S
C888 C887 1.287 . S
C888 C889 1.524 . S
C888 H907 0.913 . S
C889 H865 0.950 . S
C889 C888 1.524 . S
C889 C890 1.415 . S
C890 H866 0.950 . S
C890 C885 1.363 . S
C890 C889 1.415 . S
C891 H867 0.951 . S
C891 C892 1.346 1_455 S
C891 C893 1.388 . S
C892 C891 1.346 1_655 S
C892 C896 1.416 . S
C893 H868 0.951 . S
C893 C891 1.388 . S
C893 C894 1.402 . S
C894 C893 1.402 . S
C894 C895 1.391 1_455 S
C894 C897 1.496 . S
C895 H869 0.950 . S
C895 C894 1.391 1_655 S
C895 C896 1.374 . S
C896 H870 0.950 . S
C896 C892 1.416 . S
C896 C895 1.374 . S
C897 C894 1.496 . S
C897 C898 1.354 1_455 S
C897 C899 1.399 . S
C898 H871 0.950 . S
C898 C884 1.377 . S
C898 C897 1.354 1_655 S
C899 C883 1.377 . S
C899 C897 1.399 . S
C899 C900 1.524 . S
C900 C899 1.524 . S
C900 C901 1.397 . S
C900 C905 1.363 . S
C901 H872 0.950 . S
C901 C900 1.397 . S
C901 C902 1.334 . S
C902 H873 0.950 . S
C902 C901 1.334 . S
C902 C903 1.287 . S
C903 C902 1.287 . S
C903 C904 1.524 . S
C903 H906 0.999 . S
C904 H874 0.950 . S
C904 C903 1.524 . S
C904 C905 1.415 . S
C905 H875 0.950 . S
C905 C900 1.363 . S
C905 C904 1.415 . S
H906 C903 0.999 . S
H907 C888 0.913 . S
H908 C926 0.951 . S
H909 C928 0.951 . S
H910 C930 0.950 . S
H911 C931 0.950 . S
H912 C933 0.950 . S
H913 C936 0.950 . S
H914 C937 0.950 . S
H915 C939 0.950 . S
H916 C940 0.950 . S
H917 C941 0.951 . S
H918 C943 0.951 . S
H919 C945 0.950 . S
H920 C946 0.950 . S
H921 C948 0.950 . S
H922 C951 0.950 . S
H923 C952 0.950 . S
H924 C954 0.950 . S
H925 C955 0.950 . S
C926 H908 0.951 . S
C926 C927 1.366 . S
C926 C928 1.388 . S
C927 C926 1.366 . S
C927 C931 1.385 . S
C928 H909 0.951 . S
C928 C926 1.388 . S
C928 C929 1.366 . S
C929 C928 1.366 . S
C929 C930 1.414 . S
C929 C932 1.499 . S
C930 H910 0.950 . S
C930 C929 1.414 . S
C930 C931 1.374 . S
C931 H911 0.950 . S
C931 C927 1.385 . S
C931 C930 1.374 . S
C932 C929 1.499 . S
C932 C933 1.373 . S
C932 C934 1.389 . S
C933 H912 0.950 . S
C933 C932 1.373 . S
C933 C949 1.377 . S
C934 C932 1.389 . S
C934 C935 1.524 . S
C934 C948 1.377 . S
C935 C934 1.524 . S
C935 C936 1.397 . S
C935 C940 1.363 . S
C936 H913 0.950 . S
C936 C935 1.397 . S
C936 C937 1.334 . S
C937 H914 0.950 . S
C937 C936 1.334 . S
C937 C938 1.287 . S
C938 C937 1.287 . S
C938 C939 1.524 . S
C938 H957 0.913 . S
C939 H915 0.950 . S
C939 C938 1.524 . S
C939 C940 1.415 . S
C940 H916 0.950 . S
C940 C935 1.363 . S
C940 C939 1.415 . S
C941 H917 0.951 . S
C941 C942 1.366 . S
C941 C943 1.388 . S
C942 C941 1.366 . S
C942 C946 1.385 . S
C943 H918 0.951 . S
C943 C941 1.388 . S
C943 C944 1.366 . S
C944 C943 1.366 . S
C944 C945 1.414 . S
C944 C947 1.499 . S
C945 H919 0.950 . S
C945 C944 1.414 . S
C945 C946 1.374 . S
C946 H920 0.950 . S
C946 C942 1.385 . S
C946 C945 1.374 . S
C947 C944 1.499 . S
C947 C948 1.373 . S
C947 C949 1.389 . S
C948 H921 0.950 . S
C948 C934 1.377 . S
C948 C947 1.373 . S
C949 C933 1.377 . S
C949 C947 1.389 . S
C949 C950 1.524 . S
C950 C949 1.524 . S
C950 C951 1.397 . S
C950 C955 1.363 . S
C951 H922 0.950 . S
C951 C950 1.397 . S
C951 C952 1.334 . S
C952 H923 0.950 . S
C952 C951 1.334 . S
C952 C953 1.287 . S
C953 C952 1.287 . S
C953 C954 1.524 . S
C953 H956 0.999 . S
C954 H924 0.950 . S
C954 C953 1.524 . S
C954 C955 1.415 . S
C955 H925 0.950 . S
C955 C950 1.363 . S
C955 C954 1.415 . S
H956 C953 0.999 . S
H957 C938 0.913 . S
H958 C976 0.951 . S
H959 C978 0.951 . S
H960 C980 0.950 . S
H961 C981 0.950 . S
H962 C983 0.950 . S
H963 C986 0.950 . S
H964 C987 0.950 . S
H965 C989 0.950 . S
H966 C990 0.950 . S
H967 C991 0.925 1_565 S
H968 C993 0.914 1_565 S
H969 C995 0.950 . S
H970 C996 0.950 . S
H971 C998 0.950 . S
H972 C1001 0.950 . S
H973 C1002 0.950 . S
H974 C1004 0.950 . S
H975 C1005 0.950 1_565 S
C976 H958 0.951 . S
C976 C977 1.366 . S
C976 C978 1.388 . S
C977 C976 1.366 . S
C977 C981 1.385 1_545 S
C978 H959 0.951 . S
C978 C976 1.388 . S
C978 C979 1.366 . S
C979 C978 1.366 . S
C979 C980 1.414 1_545 S
C979 C982 1.499 . S
C980 H960 0.950 . S
C980 C979 1.414 1_565 S
C980 C981 1.374 . S
C981 H961 0.950 . S
C981 C977 1.385 1_565 S
C981 C980 1.374 . S
C982 C979 1.499 . S
C982 C983 1.373 . S
C982 C984 1.389 . S
C983 H962 0.950 . S
C983 C982 1.373 . S
C983 C999 1.377 . S
C984 C982 1.389 . S
C984 C985 1.524 . S
C984 C998 1.377 . S
C985 C984 1.524 . S
C985 C986 1.397 1_545 S
C985 C990 1.363 . S
C986 H963 0.950 . S
C986 C985 1.397 1_565 S
C986 C987 1.334 . S
C987 H964 0.950 . S
C987 C986 1.334 . S
C987 C988 1.287 . S
C988 C987 1.287 . S
C988 C989 1.524 1_565 S
C988 H1007 0.913 . S
C989 H965 0.950 . S
C989 C988 1.524 1_545 S
C989 C990 1.415 . S
C990 H966 0.950 . S
C990 C985 1.363 . S
C990 C989 1.415 . S
C991 H967 0.925 1_545 S
C991 C992 1.412 . S
C991 C993 1.384 . S
C992 C991 1.412 . S
C992 C996 1.385 . S
C993 H968 0.914 1_545 S
C993 C991 1.384 . S
C993 C994 1.387 . S
C994 C993 1.387 . S
C994 C995 1.414 . S
C994 C997 1.499 . S
C995 H969 0.950 . S
C995 C994 1.414 . S
C995 C996 1.374 . S
C996 H970 0.950 . S
C996 C992 1.385 . S
C996 C995 1.374 . S
C997 C994 1.499 . S
C997 C998 1.373 . S
C997 C999 1.389 . S
C998 H971 0.950 . S
C998 C984 1.377 . S
C998 C997 1.373 . S
C999 C983 1.377 . S
C999 C997 1.389 . S
C999 C1000 1.524 . S
C1000 C999 1.524 . S
C1000 C1001 1.397 . S
C1000 C1005 1.363 . S
C1001 H972 0.950 . S
C1001 C1000 1.397 . S
C1001 C1002 1.334 . S
C1002 H973 0.950 . S
C1002 C1001 1.334 . S
C1002 C1003 1.287 . S
C1003 C1002 1.287 . S
C1003 C1004 1.524 . S
C1003 H1006 0.999 . S
C1004 H974 0.950 . S
C1004 C1003 1.524 . S
C1004 C1005 1.415 . S
C1005 H975 0.950 1_545 S
C1005 C1000 1.363 . S
C1005 C1004 1.415 . S
H1006 C1003 0.999 . S
H1007 C988 0.913 . S
H1008 C1026 0.951 . S
H1009 C1028 0.951 . S
H1010 C1030 0.950 . S
H1011 C1031 0.950 . S
H1012 C1033 0.950 . S
H1013 C1036 0.950 . S
H1014 C1037 0.950 . S
H1015 C1039 0.950 . S
H1016 C1040 0.950 . S
H1017 C1041 0.951 . S
H1018 C1043 0.951 . S
H1019 C1045 0.950 . S
H1020 C1046 0.950 . S
H1021 C1048 0.950 . S
H1022 C1051 0.950 . S
H1023 C1052 0.950 . S
H1024 C1054 0.950 . S
H1025 C1055 0.950 . S
C1026 H1008 0.951 . S
C1026 C1027 1.366 . S
C1026 C1028 1.388 . S
C1027 C1026 1.366 . S
C1027 C1031 1.385 1_545 S
C1028 H1009 0.951 . S
C1028 C1026 1.388 . S
C1028 C1029 1.366 . S
C1029 C1028 1.366 . S
C1029 C1030 1.414 1_545 S
C1029 C1032 1.499 . S
C1030 H1010 0.950 . S
C1030 C1029 1.414 1_565 S
C1030 C1031 1.374 . S
C1031 H1011 0.950 . S
C1031 C1027 1.385 1_565 S
C1031 C1030 1.374 . S
C1032 C1029 1.499 . S
C1032 C1033 1.373 1_545 S
C1032 C1034 1.389 . S
C1033 H1012 0.950 . S
C1033 C1032 1.373 1_565 S
C1033 C1049 1.377 . S
C1034 C1032 1.389 . S
C1034 C1035 1.524 . S
C1034 C1048 1.377 . S
C1035 C1034 1.524 . S
C1035 C1036 1.397 . S
C1035 C1040 1.363 . S
C1036 H1013 0.950 . S
C1036 C1035 1.397 . S
C1036 C1037 1.334 . S
C1037 H1014 0.950 . S
C1037 C1036 1.334 . S
C1037 C1038 1.287 . S
C1038 C1037 1.287 . S
C1038 C1039 1.524 . S
C1038 H1057 0.913 . S
C1039 H1015 0.950 . S
C1039 C1038 1.524 . S
C1039 C1040 1.415 . S
C1040 H1016 0.950 . S
C1040 C1035 1.363 . S
C1040 C1039 1.415 . S
C1041 H1017 0.951 . S
C1041 C1042 1.387 . S
C1041 C1043 1.388 . S
C1042 C1041 1.387 . S
C1042 C1046 1.373 1_565 S
C1043 H1018 0.951 . S
C1043 C1041 1.388 . S
C1043 C1044 1.376 . S
C1044 C1043 1.376 . S
C1044 C1045 1.396 1_565 S
C1044 C1047 1.512 1_565 S
C1045 H1019 0.950 . S
C1045 C1044 1.396 1_545 S
C1045 C1046 1.374 . S
C1046 H1020 0.950 . S
C1046 C1042 1.373 1_545 S
C1046 C1045 1.374 . S
C1047 C1044 1.512 1_545 S
C1047 C1048 1.384 . S
C1047 C1049 1.372 1_545 S
C1048 H1021 0.950 . S
C1048 C1034 1.377 . S
C1048 C1047 1.384 . S
C1049 C1033 1.377 . S
C1049 C1047 1.372 1_565 S
C1049 C1050 1.524 . S
C1050 C1049 1.524 . S
C1050 C1051 1.397 . S
C1050 C1055 1.363 . S
C1051 H1022 0.950 . S
C1051 C1050 1.397 . S
C1051 C1052 1.334 . S
C1052 H1023 0.950 . S
C1052 C1051 1.334 . S
C1052 C1053 1.287 . S
C1053 C1052 1.287 . S
C1053 C1054 1.524 . S
C1053 H1056 0.999 . S
C1054 H1024 0.950 . S
C1054 C1053 1.524 . S
C1054 C1055 1.415 . S
C1055 H1025 0.950 . S
C1055 C1050 1.363 . S
C1055 C1054 1.415 . S
H1056 C1053 0.999 . S
H1057 C1038 0.913 . S
H1058 C1076 0.957 . S
H1059 C1078 0.938 . S
H1060 C1080 0.950 . S
H1061 C1081 0.950 . S
H1062 C1083 0.950 . S
H1063 C1086 0.950 . S
H1064 C1087 0.950 . S
H1065 C1089 0.950 . S
H1066 C1090 0.950 . S
H1067 C1091 0.951 . S
H1068 C1093 0.951 . S
H1069 C1095 0.950 . S
H1070 C1096 0.950 . S
H1071 C1098 0.950 . S
H1072 C1101 0.950 . S
H1073 C1102 0.950 . S
H1074 C1104 0.950 . S
H1075 C1105 0.950 . S
C1076 H1058 0.957 . S
C1076 C1077 1.366 . S
C1076 C1078 1.388 . S
C1077 C1076 1.366 . S
C1077 C1081 1.385 . S
C1078 H1059 0.938 . S
C1078 C1076 1.388 . S
C1078 C1079 1.366 . S
C1079 C1078 1.366 . S
C1079 C1080 1.414 . S
C1079 C1082 1.499 . S
C1080 H1060 0.950 . S
C1080 C1079 1.414 . S
C1080 C1081 1.374 . S
C1081 H1061 0.950 . S
C1081 C1077 1.385 . S
C1081 C1080 1.374 . S
C1082 C1079 1.499 . S
C1082 C1083 1.373 . S
C1082 C1084 1.389 1_455 S
C1083 H1062 0.950 . S
C1083 C1082 1.373 . S
C1083 C1099 1.377 . S
C1084 C1082 1.389 1_655 S
C1084 C1085 1.524 . S
C1084 C1098 1.377 . S
C1085 C1084 1.524 . S
C1085 C1086 1.397 . S
C1085 C1090 1.363 . S
C1086 H1063 0.950 . S
C1086 C1085 1.397 . S
C1086 C1087 1.334 . S
C1087 H1064 0.950 . S
C1087 C1086 1.334 . S
C1087 C1088 1.287 . S
C1088 C1087 1.287 . S
C1088 C1089 1.524 . S
C1088 H1107 0.913 . S
C1089 H1065 0.950 . S
C1089 C1088 1.524 . S
C1089 C1090 1.415 . S
C1090 H1066 0.950 . S
C1090 C1085 1.363 . S
C1090 C1089 1.415 . S
C1091 H1067 0.951 . S
C1091 C1092 1.366 . S
C1091 C1093 1.388 . S
C1092 C1091 1.366 . S
C1092 C1096 1.385 . S
C1093 H1068 0.951 . S
C1093 C1091 1.388 . S
C1093 C1094 1.366 . S
C1094 C1093 1.366 . S
C1094 C1095 1.414 . S
C1094 C1097 1.499 . S
C1095 H1069 0.950 . S
C1095 C1094 1.414 . S
C1095 C1096 1.374 . S
C1096 H1070 0.950 . S
C1096 C1092 1.385 . S
C1096 C1095 1.374 . S
C1097 C1094 1.499 . S
C1097 C1098 1.373 1_455 S
C1097 C1099 1.389 . S
C1098 H1071 0.950 . S
C1098 C1084 1.377 . S
C1098 C1097 1.373 1_655 S
C1099 C1083 1.377 . S
C1099 C1097 1.389 . S
C1099 C1100 1.524 . S
C1100 C1099 1.524 . S
C1100 C1101 1.397 . S
C1100 C1105 1.363 . S
C1101 H1072 0.950 . S
C1101 C1100 1.397 . S
C1101 C1102 1.334 . S
C1102 H1073 0.950 . S
C1102 C1101 1.334 . S
C1102 C1103 1.287 . S
C1103 C1102 1.287 . S
C1103 C1104 1.524 . S
C1103 H1106 0.999 . S
C1104 H1074 0.950 . S
C1104 C1103 1.524 . S
C1104 C1105 1.415 . S
C1105 H1075 0.950 . S
C1105 C1100 1.363 . S
C1105 C1104 1.415 . S
H1106 C1103 0.999 . S
H1107 C1088 0.913 . S
H1108 C1126 0.951 . S
H1109 C1128 0.951 . S
H1110 C1130 0.950 . S
H1111 C1131 0.950 . S
H1112 C1133 0.950 . S
H1113 C1136 0.950 . S
H1114 C1137 0.950 . S
H1115 C1139 0.950 . S
H1116 C1140 0.950 . S
H1117 C1141 0.951 . S
H1118 C1143 0.951 . S
H1119 C1145 0.950 . S
H1120 C1146 0.950 . S
H1121 C1148 0.950 . S
H1122 C1151 0.950 . S
H1123 C1152 0.950 . S
H1124 C1154 0.950 . S
H1125 C1155 0.950 . S
C1126 H1108 0.951 . S
C1126 C1127 1.366 . S
C1126 C1128 1.388 . S
C1127 C1126 1.366 . S
C1127 C1131 1.385 . S
C1128 H1109 0.951 . S
C1128 C1126 1.388 . S
C1128 C1129 1.366 . S
C1129 C1128 1.366 . S
C1129 C1130 1.414 . S
C1129 C1132 1.499 . S
C1130 H1110 0.950 . S
C1130 C1129 1.414 . S
C1130 C1131 1.374 . S
C1131 H1111 0.950 . S
C1131 C1127 1.385 . S
C1131 C1130 1.374 . S
C1132 C1129 1.499 . S
C1132 C1133 1.373 . S
C1132 C1134 1.389 . S
C1133 H1112 0.950 . S
C1133 C1132 1.373 . S
C1133 C1149 1.377 . S
C1134 C1132 1.389 . S
C1134 C1135 1.524 . S
C1134 C1148 1.377 . S
C1135 C1134 1.524 . S
C1135 C1136 1.397 . S
C1135 C1140 1.363 . S
C1136 H1113 0.950 . S
C1136 C1135 1.397 . S
C1136 C1137 1.334 . S
C1137 H1114 0.950 . S
C1137 C1136 1.334 . S
C1137 C1138 1.287 . S
C1138 C1137 1.287 . S
C1138 C1139 1.524 . S
C1138 H1157 0.913 . S
C1139 H1115 0.950 . S
C1139 C1138 1.524 . S
C1139 C1140 1.415 . S
C1140 H1116 0.950 . S
C1140 C1135 1.363 . S
C1140 C1139 1.415 . S
C1141 H1117 0.951 . S
C1141 C1142 1.366 . S
C1141 C1143 1.388 . S
C1142 C1141 1.366 . S
C1142 C1146 1.385 . S
C1143 H1118 0.951 . S
C1143 C1141 1.388 . S
C1143 C1144 1.366 . S
C1144 C1143 1.366 . S
C1144 C1145 1.414 . S
C1144 C1147 1.499 . S
C1145 H1119 0.950 . S
C1145 C1144 1.414 . S
C1145 C1146 1.374 . S
C1146 H1120 0.950 . S
C1146 C1142 1.385 . S
C1146 C1145 1.374 . S
C1147 C1144 1.499 . S
C1147 C1148 1.373 . S
C1147 C1149 1.389 . S
C1148 H1121 0.950 . S
C1148 C1134 1.377 . S
C1148 C1147 1.373 . S
C1149 C1133 1.377 . S
C1149 C1147 1.389 . S
C1149 C1150 1.524 . S
C1150 C1149 1.524 . S
C1150 C1151 1.397 . S
C1150 C1155 1.363 . S
C1151 H1122 0.950 . S
C1151 C1150 1.397 . S
C1151 C1152 1.334 . S
C1152 H1123 0.950 . S
C1152 C1151 1.334 . S
C1152 C1153 1.287 . S
C1153 C1152 1.287 . S
C1153 C1154 1.524 . S
C1153 H1156 0.999 . S
C1154 H1124 0.950 . S
C1154 C1153 1.524 . S
C1154 C1155 1.415 . S
C1155 H1125 0.950 . S
C1155 C1150 1.363 . S
C1155 C1154 1.415 . S
H1156 C1153 0.999 . S
H1157 C1138 0.913 . S
H1158 C1176 0.951 . S
H1159 C1178 0.951 . S
H1160 C1180 0.950 . S
H1161 C1181 0.950 . S
H1162 C1183 0.950 . S
H1163 C1186 0.950 . S
H1164 C1187 0.950 . S
H1165 C1189 0.950 . S
H1166 C1190 0.950 . S
H1167 C1191 0.951 . S
H1168 C1193 0.951 . S
H1169 C1195 0.950 . S
H1170 C1196 0.950 . S
H1171 C1198 0.950 . S
H1172 C1201 0.950 . S
H1173 C1202 0.950 . S
H1174 C1204 0.950 . S
H1175 C1205 0.950 . S
C1176 H1158 0.951 . S
C1176 C1177 1.366 . S
C1176 C1178 1.388 . S
C1177 C1176 1.366 . S
C1177 C1181 1.385 . S
C1178 H1159 0.951 . S
C1178 C1176 1.388 . S
C1178 C1179 1.366 . S
C1179 C1178 1.366 . S
C1179 C1180 1.414 . S
C1179 C1182 1.499 . S
C1180 H1160 0.950 . S
C1180 C1179 1.414 . S
C1180 C1181 1.374 . S
C1181 H1161 0.950 . S
C1181 C1177 1.385 . S
C1181 C1180 1.374 . S
C1182 C1179 1.499 . S
C1182 C1183 1.373 . S
C1182 C1184 1.389 . S
C1183 H1162 0.950 . S
C1183 C1182 1.373 . S
C1183 C1199 1.377 . S
C1184 C1182 1.389 . S
C1184 C1185 1.524 . S
C1184 C1198 1.377 . S
C1185 C1184 1.524 . S
C1185 C1186 1.397 . S
C1185 C1190 1.363 . S
C1186 H1163 0.950 . S
C1186 C1185 1.397 . S
C1186 C1187 1.334 . S
C1187 H1164 0.950 . S
C1187 C1186 1.334 . S
C1187 C1188 1.287 . S
C1188 C1187 1.287 . S
C1188 C1189 1.524 . S
C1188 H1207 0.913 . S
C1189 H1165 0.950 . S
C1189 C1188 1.524 . S
C1189 C1190 1.415 . S
C1190 H1166 0.950 . S
C1190 C1185 1.363 . S
C1190 C1189 1.415 . S
C1191 H1167 0.951 . S
C1191 C1192 1.366 . S
C1191 C1193 1.388 . S
C1192 C1191 1.366 . S
C1192 C1196 1.385 . S
C1193 H1168 0.951 . S
C1193 C1191 1.388 . S
C1193 C1194 1.366 . S
C1194 C1193 1.366 . S
C1194 C1195 1.414 . S
C1194 C1197 1.499 . S
C1195 H1169 0.950 . S
C1195 C1194 1.414 . S
C1195 C1196 1.374 . S
C1196 H1170 0.950 . S
C1196 C1192 1.385 . S
C1196 C1195 1.374 . S
C1197 C1194 1.499 . S
C1197 C1198 1.373 . S
C1197 C1199 1.389 . S
C1198 H1171 0.950 . S
C1198 C1184 1.377 . S
C1198 C1197 1.373 . S
C1199 C1183 1.377 . S
C1199 C1197 1.389 . S
C1199 C1200 1.524 . S
C1200 C1199 1.524 . S
C1200 C1201 1.397 . S
C1200 C1205 1.363 . S
C1201 H1172 0.950 . S
C1201 C1200 1.397 . S
C1201 C1202 1.334 . S
C1202 H1173 0.950 . S
C1202 C1201 1.334 . S
C1202 C1203 1.287 . S
C1203 C1202 1.287 . S
C1203 C1204 1.524 . S
C1203 H1206 0.999 . S
C1204 H1174 0.950 . S
C1204 C1203 1.524 . S
C1204 C1205 1.415 . S
C1205 H1175 0.950 . S
C1205 C1200 1.363 . S
C1205 C1204 1.415 . S
H1206 C1203 0.999 . S
H1207 C1188 0.913 . S
H1208 C1226 0.951 . S
H1209 C1228 0.951 . S
H1210 C1230 0.950 . S
H1211 C1231 0.950 . S
H1212 C1233 0.950 . S
H1213 C1236 0.950 . S
H1214 C1237 0.950 . S
H1215 C1239 0.950 . S
H1216 C1240 0.950 . S
H1217 C1241 0.951 . S
H1218 C1243 0.951 . S
H1219 C1245 0.950 . S
H1220 C1246 0.950 . S
H1221 C1248 0.950 . S
H1222 C1251 0.950 . S
H1223 C1252 0.950 . S
H1224 C1254 0.950 . S
H1225 C1255 0.950 . S
C1226 H1208 0.951 . S
C1226 C1227 1.366 . S
C1226 C1228 1.388 . S
C1227 C1226 1.366 . S
C1227 C1231 1.385 . S
C1228 H1209 0.951 . S
C1228 C1226 1.388 . S
C1228 C1229 1.366 . S
C1229 C1228 1.366 . S
C1229 C1230 1.414 . S
C1229 C1232 1.499 . S
C1230 H1210 0.950 . S
C1230 C1229 1.414 . S
C1230 C1231 1.374 . S
C1231 H1211 0.950 . S
C1231 C1227 1.385 . S
C1231 C1230 1.374 . S
C1232 C1229 1.499 . S
C1232 C1233 1.373 . S
C1232 C1234 1.389 . S
C1233 H1212 0.950 . S
C1233 C1232 1.373 . S
C1233 C1249 1.377 . S
C1234 C1232 1.389 . S
C1234 C1235 1.524 . S
C1234 C1248 1.377 . S
C1235 C1234 1.524 . S
C1235 C1236 1.397 . S
C1235 C1240 1.363 . S
C1236 H1213 0.950 . S
C1236 C1235 1.397 . S
C1236 C1237 1.334 . S
C1237 H1214 0.950 . S
C1237 C1236 1.334 . S
C1237 C1238 1.287 . S
C1238 C1237 1.287 . S
C1238 C1239 1.524 . S
C1238 H1257 0.913 . S
C1239 H1215 0.950 . S
C1239 C1238 1.524 . S
C1239 C1240 1.415 . S
C1240 H1216 0.950 . S
C1240 C1235 1.363 . S
C1240 C1239 1.415 . S
C1241 H1217 0.951 . S
C1241 C1242 1.366 . S
C1241 C1243 1.388 . S
C1242 C1241 1.366 . S
C1242 C1246 1.385 . S
C1243 H1218 0.951 . S
C1243 C1241 1.388 . S
C1243 C1244 1.366 . S
C1244 C1243 1.366 . S
C1244 C1245 1.414 . S
C1244 C1247 1.499 . S
C1245 H1219 0.950 . S
C1245 C1244 1.414 . S
C1245 C1246 1.374 . S
C1246 H1220 0.950 . S
C1246 C1242 1.385 . S
C1246 C1245 1.374 . S
C1247 C1244 1.499 . S
C1247 C1248 1.373 . S
C1247 C1249 1.389 . S
C1248 H1221 0.950 . S
C1248 C1234 1.377 . S
C1248 C1247 1.373 . S
C1249 C1233 1.377 . S
C1249 C1247 1.389 . S
C1249 C1250 1.524 . S
C1250 C1249 1.524 . S
C1250 C1251 1.397 . S
C1250 C1255 1.363 . S
C1251 H1222 0.950 . S
C1251 C1250 1.397 . S
C1251 C1252 1.334 . S
C1252 H1223 0.950 . S
C1252 C1251 1.334 . S
C1252 C1253 1.287 . S
C1253 C1252 1.287 . S
C1253 C1254 1.524 . S
C1253 H1256 0.999 . S
C1254 H1224 0.950 . S
C1254 C1253 1.524 . S
C1254 C1255 1.415 . S
C1255 H1225 0.950 . S
C1255 C1250 1.363 . S
C1255 C1254 1.415 . S
H1256 C1253 0.999 . S
H1257 C1238 0.913 . S
H1258 C1276 0.951 . S
H1259 C1278 0.951 . S
H1260 C1280 0.950 . S
H1261 C1281 0.950 . S
H1262 C1283 0.950 . S
H1263 C1286 0.950 . S
H1264 C1287 0.950 . S
H1265 C1289 0.950 . S
H1266 C1290 0.950 . S
H1267 C1291 0.951 . S
H1268 C1293 0.951 . S
H1269 C1295 0.950 . S
H1270 C1296 0.950 . S
H1271 C1298 0.950 . S
H1272 C1301 0.950 . S
H1273 C1302 0.950 . S
H1274 C1304 0.950 . S
H1275 C1305 0.950 . S
C1276 H1258 0.951 . S
C1276 C1277 1.366 . S
C1276 C1278 1.388 . S
C1277 C1276 1.366 . S
C1277 C1281 1.385 . S
C1278 H1259 0.951 . S
C1278 C1276 1.388 . S
C1278 C1279 1.366 . S
C1279 C1278 1.366 . S
C1279 C1280 1.414 . S
C1279 C1282 1.499 . S
C1280 H1260 0.950 . S
C1280 C1279 1.414 . S
C1280 C1281 1.374 . S
C1281 H1261 0.950 . S
C1281 C1277 1.385 . S
C1281 C1280 1.374 . S
C1282 C1279 1.499 . S
C1282 C1283 1.373 . S
C1282 C1284 1.389 . S
C1283 H1262 0.950 . S
C1283 C1282 1.373 . S
C1283 C1299 1.377 . S
C1284 C1282 1.389 . S
C1284 C1285 1.524 . S
C1284 C1298 1.377 . S
C1285 C1284 1.524 . S
C1285 C1286 1.397 . S
C1285 C1290 1.363 . S
C1286 H1263 0.950 . S
C1286 C1285 1.397 . S
C1286 C1287 1.334 . S
C1287 H1264 0.950 . S
C1287 C1286 1.334 . S
C1287 C1288 1.287 . S
C1288 C1287 1.287 . S
C1288 C1289 1.524 . S
C1288 H1307 0.913 . S
C1289 H1265 0.950 . S
C1289 C1288 1.524 . S
C1289 C1290 1.415 . S
C1290 H1266 0.950 . S
C1290 C1285 1.363 . S
C1290 C1289 1.415 . S
C1291 H1267 0.951 . S
C1291 C1292 1.366 . S
C1291 C1293 1.388 . S
C1292 C1291 1.366 . S
C1292 C1296 1.385 . S
C1293 H1268 0.951 . S
C1293 C1291 1.388 . S
C1293 C1294 1.366 . S
C1294 C1293 1.366 . S
C1294 C1295 1.414 . S
C1294 C1297 1.499 . S
C1295 H1269 0.950 . S
C1295 C1294 1.414 . S
C1295 C1296 1.374 . S
C1296 H1270 0.950 . S
C1296 C1292 1.385 . S
C1296 C1295 1.374 . S
C1297 C1294 1.499 . S
C1297 C1298 1.373 . S
C1297 C1299 1.389 . S
C1298 H1271 0.950 . S
C1298 C1284 1.377 . S
C1298 C1297 1.373 . S
C1299 C1283 1.377 . S
C1299 C1297 1.389 . S
C1299 C1300 1.524 . S
C1300 C1299 1.524 . S
C1300 C1301 1.397 . S
C1300 C1305 1.363 . S
C1301 H1272 0.950 . S
C1301 C1300 1.397 . S
C1301 C1302 1.334 . S
C1302 H1273 0.950 . S
C1302 C1301 1.334 . S
C1302 C1303 1.287 . S
C1303 C1302 1.287 . S
C1303 C1304 1.524 . S
C1303 H1306 0.999 . S
C1304 H1274 0.950 . S
C1304 C1303 1.524 . S
C1304 C1305 1.415 . S
C1305 H1275 0.950 . S
C1305 C1300 1.363 . S
C1305 C1304 1.415 . S
H1306 C1303 0.999 . S
H1307 C1288 0.913 . S
H1308 C1326 0.951 . S
H1309 C1328 0.951 . S
H1310 C1330 0.950 . S
H1311 C1331 0.950 . S
H1312 C1333 0.950 . S
H1313 C1336 0.950 . S
H1314 C1337 0.950 . S
H1315 C1339 0.950 . S
H1316 C1340 0.950 . S
H1317 C1341 0.951 . S
H1318 C1343 0.951 . S
H1319 C1345 0.950 . S
H1320 C1346 0.950 . S
H1321 C1348 0.950 . S
H1322 C1351 0.950 . S
H1323 C1352 0.950 . S
H1324 C1354 0.950 . S
H1325 C1355 0.950 . S
C1326 H1308 0.951 . S
C1326 C1327 1.366 . S
C1326 C1328 1.388 . S
C1327 C1326 1.366 . S
C1327 C1331 1.385 . S
C1328 H1309 0.951 . S
C1328 C1326 1.388 . S
C1328 C1329 1.366 . S
C1329 C1328 1.366 . S
C1329 C1330 1.414 . S
C1329 C1332 1.499 . S
C1330 H1310 0.950 . S
C1330 C1329 1.414 . S
C1330 C1331 1.374 . S
C1331 H1311 0.950 . S
C1331 C1327 1.385 . S
C1331 C1330 1.374 . S
C1332 C1329 1.499 . S
C1332 C1333 1.373 . S
C1332 C1334 1.389 . S
C1333 H1312 0.950 . S
C1333 C1332 1.373 . S
C1333 C1349 1.377 . S
C1334 C1332 1.389 . S
C1334 C1335 1.524 . S
C1334 C1348 1.377 . S
C1335 C1334 1.524 . S
C1335 C1336 1.397 . S
C1335 C1340 1.363 . S
C1336 H1313 0.950 . S
C1336 C1335 1.397 . S
C1336 C1337 1.334 . S
C1337 H1314 0.950 . S
C1337 C1336 1.334 . S
C1337 C1338 1.287 . S
C1338 C1337 1.287 . S
C1338 C1339 1.524 . S
C1338 H1357 0.913 . S
C1339 H1315 0.950 . S
C1339 C1338 1.524 . S
C1339 C1340 1.415 . S
C1340 H1316 0.950 . S
C1340 C1335 1.363 . S
C1340 C1339 1.415 . S
C1341 H1317 0.951 . S
C1341 C1342 1.366 . S
C1341 C1343 1.388 . S
C1342 C1341 1.366 . S
C1342 C1346 1.385 . S
C1343 H1318 0.951 . S
C1343 C1341 1.388 . S
C1343 C1344 1.366 . S
C1344 C1343 1.366 . S
C1344 C1345 1.414 . S
C1344 C1347 1.499 . S
C1345 H1319 0.950 . S
C1345 C1344 1.414 . S
C1345 C1346 1.374 . S
C1346 H1320 0.950 . S
C1346 C1342 1.385 . S
C1346 C1345 1.374 . S
C1347 C1344 1.499 . S
C1347 C1348 1.373 . S
C1347 C1349 1.389 . S
C1348 H1321 0.950 . S
C1348 C1334 1.377 . S
C1348 C1347 1.373 . S
C1349 C1333 1.377 . S
C1349 C1347 1.389 . S
C1349 C1350 1.524 . S
C1350 C1349 1.524 . S
C1350 C1351 1.397 . S
C1350 C1355 1.363 . S
C1351 H1322 0.950 . S
C1351 C1350 1.397 . S
C1351 C1352 1.334 . S
C1352 H1323 0.950 . S
C1352 C1351 1.334 . S
C1352 C1353 1.287 . S
C1353 C1352 1.287 . S
C1353 C1354 1.524 . S
C1353 H1356 0.999 . S
C1354 H1324 0.950 . S
C1354 C1353 1.524 . S
C1354 C1355 1.415 . S
C1355 H1325 0.950 . S
C1355 C1350 1.363 . S
C1355 C1354 1.415 . S
H1356 C1353 0.999 . S
H1357 C1338 0.913 . S
H1358 C1376 0.951 . S
H1359 C1378 0.951 . S
H1360 C1380 0.950 . S
H1361 C1381 0.950 . S
H1362 C1383 0.950 . S
H1363 C1386 0.950 . S
H1364 C1387 0.950 . S
H1365 C1389 0.950 . S
H1366 C1390 0.950 . S
H1367 C1391 0.951 . S
H1368 C1393 0.951 . S
H1369 C1395 0.950 . S
H1370 C1396 0.950 . S
H1371 C1398 0.950 . S
H1372 C1401 0.950 . S
H1373 C1402 0.950 . S
H1374 C1404 0.950 . S
H1375 C1405 0.950 . S
C1376 H1358 0.951 . S
C1376 C1377 1.366 . S
C1376 C1378 1.388 . S
C1377 C1376 1.366 . S
C1377 C1381 1.385 . S
C1378 H1359 0.951 . S
C1378 C1376 1.388 . S
C1378 C1379 1.366 . S
C1379 C1378 1.366 . S
C1379 C1380 1.414 . S
C1379 C1382 1.499 . S
C1380 H1360 0.950 . S
C1380 C1379 1.414 . S
C1380 C1381 1.374 . S
C1381 H1361 0.950 . S
C1381 C1377 1.385 . S
C1381 C1380 1.374 . S
C1382 C1379 1.499 . S
C1382 C1383 1.373 . S
C1382 C1384 1.389 . S
C1383 H1362 0.950 . S
C1383 C1382 1.373 . S
C1383 C1399 1.377 . S
C1384 C1382 1.389 . S
C1384 C1385 1.524 . S
C1384 C1398 1.377 . S
C1385 C1384 1.524 . S
C1385 C1386 1.397 . S
C1385 C1390 1.363 . S
C1386 H1363 0.950 . S
C1386 C1385 1.397 . S
C1386 C1387 1.334 . S
C1387 H1364 0.950 . S
C1387 C1386 1.334 . S
C1387 C1388 1.287 . S
C1388 C1387 1.287 . S
C1388 C1389 1.524 . S
C1388 H1407 0.913 . S
C1389 H1365 0.950 . S
C1389 C1388 1.524 . S
C1389 C1390 1.415 . S
C1390 H1366 0.950 . S
C1390 C1385 1.363 . S
C1390 C1389 1.415 . S
C1391 H1367 0.951 . S
C1391 C1392 1.366 . S
C1391 C1393 1.388 . S
C1392 C1391 1.366 . S
C1392 C1396 1.385 . S
C1393 H1368 0.951 . S
C1393 C1391 1.388 . S
C1393 C1394 1.366 . S
C1394 C1393 1.366 . S
C1394 C1395 1.414 . S
C1394 C1397 1.499 . S
C1395 H1369 0.950 . S
C1395 C1394 1.414 . S
C1395 C1396 1.374 . S
C1396 H1370 0.950 . S
C1396 C1392 1.385 . S
C1396 C1395 1.374 . S
C1397 C1394 1.499 . S
C1397 C1398 1.373 . S
C1397 C1399 1.389 . S
C1398 H1371 0.950 . S
C1398 C1384 1.377 . S
C1398 C1397 1.373 . S
C1399 C1383 1.377 . S
C1399 C1397 1.389 . S
C1399 C1400 1.524 . S
C1400 C1399 1.524 . S
C1400 C1401 1.397 . S
C1400 C1405 1.363 . S
C1401 H1372 0.950 . S
C1401 C1400 1.397 . S
C1401 C1402 1.334 . S
C1402 H1373 0.950 . S
C1402 C1401 1.334 . S
C1402 C1403 1.287 . S
C1403 C1402 1.287 . S
C1403 C1404 1.524 . S
C1403 H1406 0.999 . S
C1404 H1374 0.950 . S
C1404 C1403 1.524 . S
C1404 C1405 1.415 . S
C1405 H1375 0.950 . S
C1405 C1400 1.363 . S
C1405 C1404 1.415 . S
H1406 C1403 0.999 . S
H1407 C1388 0.913 . S
H1408 C1426 0.951 . S
H1409 C1428 0.951 . S
H1410 C1430 0.950 . S
H1411 C1431 0.950 . S
H1412 C1433 0.950 . S
H1413 C1436 0.950 . S
H1414 C1437 0.950 . S
H1415 C1439 0.950 . S
H1416 C1440 0.950 . S
H1417 C1441 0.951 . S
H1418 C1443 0.951 . S
H1419 C1445 0.950 . S
H1420 C1446 0.950 . S
H1421 C1448 0.950 . S
H1422 C1451 0.950 . S
H1423 C1452 0.950 . S
H1424 C1454 0.950 . S
H1425 C1455 0.950 . S
C1426 H1408 0.951 . S
C1426 C1427 1.366 . S
C1426 C1428 1.388 . S
C1427 C1426 1.366 . S
C1427 C1431 1.385 . S
C1428 H1409 0.951 . S
C1428 C1426 1.388 . S
C1428 C1429 1.366 . S
C1429 C1428 1.366 . S
C1429 C1430 1.414 . S
C1429 C1432 1.499 . S
C1430 H1410 0.950 . S
C1430 C1429 1.414 . S
C1430 C1431 1.374 . S
C1431 H1411 0.950 . S
C1431 C1427 1.385 . S
C1431 C1430 1.374 . S
C1432 C1429 1.499 . S
C1432 C1433 1.373 . S
C1432 C1434 1.389 . S
C1433 H1412 0.950 . S
C1433 C1432 1.373 . S
C1433 C1449 1.377 . S
C1434 C1432 1.389 . S
C1434 C1435 1.524 . S
C1434 C1448 1.377 . S
C1435 C1434 1.524 . S
C1435 C1436 1.397 . S
C1435 C1440 1.363 . S
C1436 H1413 0.950 . S
C1436 C1435 1.397 . S
C1436 C1437 1.334 . S
C1437 H1414 0.950 . S
C1437 C1436 1.334 . S
C1437 C1438 1.287 . S
C1438 C1437 1.287 . S
C1438 C1439 1.524 . S
C1438 H1457 0.913 . S
C1439 H1415 0.950 . S
C1439 C1438 1.524 . S
C1439 C1440 1.415 . S
C1440 H1416 0.950 . S
C1440 C1435 1.363 . S
C1440 C1439 1.415 . S
C1441 H1417 0.951 . S
C1441 C1442 1.366 . S
C1441 C1443 1.388 . S
C1442 C1441 1.366 . S
C1442 C1446 1.385 . S
C1443 H1418 0.951 . S
C1443 C1441 1.388 . S
C1443 C1444 1.366 . S
C1444 C1443 1.366 . S
C1444 C1445 1.414 . S
C1444 C1447 1.499 . S
C1445 H1419 0.950 . S
C1445 C1444 1.414 . S
C1445 C1446 1.374 . S
C1446 H1420 0.950 . S
C1446 C1442 1.385 . S
C1446 C1445 1.374 . S
C1447 C1444 1.499 . S
C1447 C1448 1.373 . S
C1447 C1449 1.389 . S
C1448 H1421 0.950 . S
C1448 C1434 1.377 . S
C1448 C1447 1.373 . S
C1449 C1433 1.377 . S
C1449 C1447 1.389 . S
C1449 C1450 1.524 . S
C1450 C1449 1.524 . S
C1450 C1451 1.397 . S
C1450 C1455 1.363 . S
C1451 H1422 0.950 . S
C1451 C1450 1.397 . S
C1451 C1452 1.334 . S
C1452 H1423 0.950 . S
C1452 C1451 1.334 . S
C1452 C1453 1.287 . S
C1453 C1452 1.287 . S
C1453 C1454 1.524 . S
C1453 H1456 0.999 . S
C1454 H1424 0.950 . S
C1454 C1453 1.524 . S
C1454 C1455 1.415 . S
C1455 H1425 0.950 . S
C1455 C1450 1.363 . S
C1455 C1454 1.415 . S
H1456 C1453 0.999 . S
H1457 C1438 0.913 . S
H1458 C1476 0.951 . S
H1459 C1478 0.951 . S
H1460 C1480 0.950 . S
H1461 C1481 0.950 . S
H1462 C1483 0.950 . S
H1463 C1486 0.950 . S
H1464 C1487 0.950 . S
H1465 C1489 0.950 . S
H1466 C1490 0.950 . S
H1467 C1491 0.951 . S
H1468 C1493 0.951 . S
H1469 C1495 0.950 . S
H1470 C1496 0.950 . S
H1471 C1498 0.950 . S
H1472 C1501 0.950 . S
H1473 C1502 0.950 . S
H1474 C1504 0.950 . S
H1475 C1505 0.950 . S
C1476 H1458 0.951 . S
C1476 C1477 1.366 . S
C1476 C1478 1.388 . S
C1477 C1476 1.366 . S
C1477 C1481 1.385 . S
C1478 H1459 0.951 . S
C1478 C1476 1.388 . S
C1478 C1479 1.366 . S
C1479 C1478 1.366 . S
C1479 C1480 1.414 . S
C1479 C1482 1.499 . S
C1480 H1460 0.950 . S
C1480 C1479 1.414 . S
C1480 C1481 1.374 . S
C1481 H1461 0.950 . S
C1481 C1477 1.385 . S
C1481 C1480 1.374 . S
C1482 C1479 1.499 . S
C1482 C1483 1.373 . S
C1482 C1484 1.389 . S
C1483 H1462 0.950 . S
C1483 C1482 1.373 . S
C1483 C1499 1.377 . S
C1484 C1482 1.389 . S
C1484 C1485 1.524 . S
C1484 C1498 1.377 . S
C1485 C1484 1.524 . S
C1485 C1486 1.397 . S
C1485 C1490 1.363 . S
C1486 H1463 0.950 . S
C1486 C1485 1.397 . S
C1486 C1487 1.334 . S
C1487 H1464 0.950 . S
C1487 C1486 1.334 . S
C1487 C1488 1.287 . S
C1488 C1487 1.287 . S
C1488 C1489 1.524 . S
C1488 H1507 0.913 . S
C1489 H1465 0.950 . S
C1489 C1488 1.524 . S
C1489 C1490 1.415 . S
C1490 H1466 0.950 . S
C1490 C1485 1.363 . S
C1490 C1489 1.415 . S
C1491 H1467 0.951 . S
C1491 C1492 1.366 . S
C1491 C1493 1.388 . S
C1492 C1491 1.366 . S
C1492 C1496 1.385 . S
C1493 H1468 0.951 . S
C1493 C1491 1.388 . S
C1493 C1494 1.366 . S
C1494 C1493 1.366 . S
C1494 C1495 1.414 . S
C1494 C1497 1.499 . S
C1495 H1469 0.950 . S
C1495 C1494 1.414 . S
C1495 C1496 1.374 . S
C1496 H1470 0.950 . S
C1496 C1492 1.385 . S
C1496 C1495 1.374 . S
C1497 C1494 1.499 . S
C1497 C1498 1.373 . S
C1497 C1499 1.389 . S
C1498 H1471 0.950 . S
C1498 C1484 1.377 . S
C1498 C1497 1.373 . S
C1499 C1483 1.377 . S
C1499 C1497 1.389 . S
C1499 C1500 1.524 . S
C1500 C1499 1.524 . S
C1500 C1501 1.397 . S
C1500 C1505 1.363 . S
C1501 H1472 0.950 . S
C1501 C1500 1.397 . S
C1501 C1502 1.334 . S
C1502 H1473 0.950 . S
C1502 C1501 1.334 . S
C1502 C1503 1.287 . S
C1503 C1502 1.287 . S
C1503 C1504 1.524 . S
C1503 H1506 0.999 . S
C1504 H1474 0.950 . S
C1504 C1503 1.524 . S
C1504 C1505 1.415 . S
C1505 H1475 0.950 . S
C1505 C1500 1.363 . S
C1505 C1504 1.415 . S
H1506 C1503 0.999 . S
H1507 C1488 0.913 . S
H1508 C1526 0.951 . S
H1509 C1528 0.951 . S
H1510 C1530 0.950 . S
H1511 C1531 0.950 . S
H1512 C1533 0.950 . S
H1513 C1536 0.950 . S
H1514 C1537 0.950 . S
H1515 C1539 0.950 . S
H1516 C1540 0.950 . S
H1517 C1541 0.951 . S
H1518 C1543 0.951 . S
H1519 C1545 0.950 . S
H1520 C1546 0.950 . S
H1521 C1548 0.950 . S
H1522 C1551 0.950 . S
H1523 C1552 0.950 . S
H1524 C1554 0.950 . S
H1525 C1555 0.950 . S
C1526 H1508 0.951 . S
C1526 C1527 1.366 . S
C1526 C1528 1.388 . S
C1527 C1526 1.366 . S
C1527 C1531 1.385 . S
C1528 H1509 0.951 . S
C1528 C1526 1.388 . S
C1528 C1529 1.366 . S
C1529 C1528 1.366 . S
C1529 C1530 1.414 . S
C1529 C1532 1.499 . S
C1530 H1510 0.950 . S
C1530 C1529 1.414 . S
C1530 C1531 1.374 . S
C1531 H1511 0.950 . S
C1531 C1527 1.385 . S
C1531 C1530 1.374 . S
C1532 C1529 1.499 . S
C1532 C1533 1.373 . S
C1532 C1534 1.389 . S
C1533 H1512 0.950 . S
C1533 C1532 1.373 . S
C1533 C1549 1.377 . S
C1534 C1532 1.389 . S
C1534 C1535 1.524 . S
C1534 C1548 1.377 . S
C1535 C1534 1.524 . S
C1535 C1536 1.397 . S
C1535 C1540 1.363 . S
C1536 H1513 0.950 . S
C1536 C1535 1.397 . S
C1536 C1537 1.334 . S
C1537 H1514 0.950 . S
C1537 C1536 1.334 . S
C1537 C1538 1.287 . S
C1538 C1537 1.287 . S
C1538 C1539 1.524 . S
C1538 H1557 0.913 . S
C1539 H1515 0.950 . S
C1539 C1538 1.524 . S
C1539 C1540 1.415 . S
C1540 H1516 0.950 . S
C1540 C1535 1.363 . S
C1540 C1539 1.415 . S
C1541 H1517 0.951 . S
C1541 C1542 1.366 . S
C1541 C1543 1.388 . S
C1542 C1541 1.366 . S
C1542 C1546 1.385 . S
C1543 H1518 0.951 . S
C1543 C1541 1.388 . S
C1543 C1544 1.366 . S
C1544 C1543 1.366 . S
C1544 C1545 1.414 . S
C1544 C1547 1.499 . S
C1545 H1519 0.950 . S
C1545 C1544 1.414 . S
C1545 C1546 1.374 . S
C1546 H1520 0.950 . S
C1546 C1542 1.385 . S
C1546 C1545 1.374 . S
C1547 C1544 1.499 . S
C1547 C1548 1.373 . S
C1547 C1549 1.389 . S
C1548 H1521 0.950 . S
C1548 C1534 1.377 . S
C1548 C1547 1.373 . S
C1549 C1533 1.377 . S
C1549 C1547 1.389 . S
C1549 C1550 1.524 . S
C1550 C1549 1.524 . S
C1550 C1551 1.397 . S
C1550 C1555 1.363 . S
C1551 H1522 0.950 . S
C1551 C1550 1.397 . S
C1551 C1552 1.334 . S
C1552 H1523 0.950 . S
C1552 C1551 1.334 . S
C1552 C1553 1.287 . S
C1553 C1552 1.287 . S
C1553 C1554 1.524 . S
C1553 H1556 0.999 . S
C1554 H1524 0.950 . S
C1554 C1553 1.524 . S
C1554 C1555 1.415 . S
C1555 H1525 0.950 . S
C1555 C1550 1.363 . S
C1555 C1554 1.415 . S
H1556 C1553 0.999 . S
H1557 C1538 0.913 . S
H1558 C1576 0.951 . S
H1559 C1578 0.951 . S
H1560 C1580 0.950 . S
H1561 C1581 0.950 . S
H1562 C1583 0.950 . S
H1563 C1586 0.950 . S
H1564 C1587 0.950 . S
H1565 C1589 0.950 . S
H1566 C1590 0.950 . S
H1567 C1591 0.951 . S
H1568 C1593 0.951 . S
H1569 C1595 0.950 . S
H1570 C1596 0.950 . S
H1571 C1598 0.950 . S
H1572 C1601 0.950 . S
H1573 C1602 0.950 . S
H1574 C1604 0.950 . S
H1575 C1605 0.950 . S
C1576 H1558 0.951 . S
C1576 C1577 1.366 . S
C1576 C1578 1.388 . S
C1577 C1576 1.366 . S
C1577 C1581 1.385 . S
C1578 H1559 0.951 . S
C1578 C1576 1.388 . S
C1578 C1579 1.366 . S
C1579 C1578 1.366 . S
C1579 C1580 1.414 . S
C1579 C1582 1.499 . S
C1580 H1560 0.950 . S
C1580 C1579 1.414 . S
C1580 C1581 1.374 . S
C1581 H1561 0.950 . S
C1581 C1577 1.385 . S
C1581 C1580 1.374 . S
C1582 C1579 1.499 . S
C1582 C1583 1.373 . S
C1582 C1584 1.389 . S
C1583 H1562 0.950 . S
C1583 C1582 1.373 . S
C1583 C1599 1.377 . S
C1584 C1582 1.389 . S
C1584 C1585 1.524 . S
C1584 C1598 1.377 . S
C1585 C1584 1.524 . S
C1585 C1586 1.397 . S
C1585 C1590 1.363 . S
C1586 H1563 0.950 . S
C1586 C1585 1.397 . S
C1586 C1587 1.334 . S
C1587 H1564 0.950 . S
C1587 C1586 1.334 . S
C1587 C1588 1.287 . S
C1588 C1587 1.287 . S
C1588 C1589 1.524 . S
C1588 H1607 0.913 . S
C1589 H1565 0.950 . S
C1589 C1588 1.524 . S
C1589 C1590 1.415 . S
C1590 H1566 0.950 . S
C1590 C1585 1.363 . S
C1590 C1589 1.415 . S
C1591 H1567 0.951 . S
C1591 C1592 1.366 . S
C1591 C1593 1.388 . S
C1592 C1591 1.366 . S
C1592 C1596 1.385 . S
C1593 H1568 0.951 . S
C1593 C1591 1.388 . S
C1593 C1594 1.366 . S
C1594 C1593 1.366 . S
C1594 C1595 1.414 . S
C1594 C1597 1.499 . S
C1595 H1569 0.950 . S
C1595 C1594 1.414 . S
C1595 C1596 1.374 . S
C1596 H1570 0.950 . S
C1596 C1592 1.385 . S
C1596 C1595 1.374 . S
C1597 C1594 1.499 . S
C1597 C1598 1.373 . S
C1597 C1599 1.389 . S
C1598 H1571 0.950 . S
C1598 C1584 1.377 . S
C1598 C1597 1.373 . S
C1599 C1583 1.377 . S
C1599 C1597 1.389 . S
C1599 C1600 1.524 . S
C1600 C1599 1.524 . S
C1600 C1601 1.397 . S
C1600 C1605 1.363 . S
C1601 H1572 0.950 . S
C1601 C1600 1.397 . S
C1601 C1602 1.334 . S
C1602 H1573 0.950 . S
C1602 C1601 1.334 . S
C1602 C1603 1.287 . S
C1603 C1602 1.287 . S
C1603 C1604 1.524 . S
C1603 H1606 0.999 . S
C1604 H1574 0.950 . S
C1604 C1603 1.524 . S
C1604 C1605 1.415 . S
C1605 H1575 0.950 . S
C1605 C1600 1.363 . S
C1605 C1604 1.415 . S
H1606 C1603 0.999 . S
H1607 C1588 0.913 . S
H1608 C1626 0.951 . S
H1609 C1628 0.951 . S
H1610 C1630 0.950 . S
H1611 C1631 0.950 . S
H1612 C1633 0.950 . S
H1613 C1636 0.950 . S
H1614 C1637 0.950 . S
H1615 C1639 0.950 . S
H1616 C1640 0.950 . S
H1617 C1641 0.951 . S
H1618 C1643 0.951 . S
H1619 C1645 0.950 . S
H1620 C1646 0.950 . S
H1621 C1648 0.950 . S
H1622 C1651 0.950 . S
H1623 C1652 0.950 . S
H1624 C1654 0.950 . S
H1625 C1655 0.950 . S
C1626 H1608 0.951 . S
C1626 C1627 1.366 . S
C1626 C1628 1.388 . S
C1627 C1626 1.366 . S
C1627 C1631 1.385 . S
C1628 H1609 0.951 . S
C1628 C1626 1.388 . S
C1628 C1629 1.366 . S
C1629 C1628 1.366 . S
C1629 C1630 1.414 . S
C1629 C1632 1.499 . S
C1630 H1610 0.950 . S
C1630 C1629 1.414 . S
C1630 C1631 1.374 . S
C1631 H1611 0.950 . S
C1631 C1627 1.385 . S
C1631 C1630 1.374 . S
C1632 C1629 1.499 . S
C1632 C1633 1.373 . S
C1632 C1634 1.389 . S
C1633 H1612 0.950 . S
C1633 C1632 1.373 . S
C1633 C1649 1.377 . S
C1634 C1632 1.389 . S
C1634 C1635 1.524 . S
C1634 C1648 1.377 . S
C1635 C1634 1.524 . S
C1635 C1636 1.397 . S
C1635 C1640 1.363 . S
C1636 H1613 0.950 . S
C1636 C1635 1.397 . S
C1636 C1637 1.334 . S
C1637 H1614 0.950 . S
C1637 C1636 1.334 . S
C1637 C1638 1.287 . S
C1638 C1637 1.287 . S
C1638 C1639 1.524 . S
C1638 H1657 0.913 . S
C1639 H1615 0.950 . S
C1639 C1638 1.524 . S
C1639 C1640 1.415 . S
C1640 H1616 0.950 . S
C1640 C1635 1.363 . S
C1640 C1639 1.415 . S
C1641 H1617 0.951 . S
C1641 C1642 1.366 . S
C1641 C1643 1.388 . S
C1642 C1641 1.366 . S
C1642 C1646 1.385 . S
C1643 H1618 0.951 . S
C1643 C1641 1.388 . S
C1643 C1644 1.366 . S
C1644 C1643 1.366 . S
C1644 C1645 1.414 . S
C1644 C1647 1.499 . S
C1645 H1619 0.950 . S
C1645 C1644 1.414 . S
C1645 C1646 1.374 . S
C1646 H1620 0.950 . S
C1646 C1642 1.385 . S
C1646 C1645 1.374 . S
C1647 C1644 1.499 . S
C1647 C1648 1.373 . S
C1647 C1649 1.389 . S
C1648 H1621 0.950 . S
C1648 C1634 1.377 . S
C1648 C1647 1.373 . S
C1649 C1633 1.377 . S
C1649 C1647 1.389 . S
C1649 C1650 1.524 . S
C1650 C1649 1.524 . S
C1650 C1651 1.397 . S
C1650 C1655 1.363 . S
C1651 H1622 0.950 . S
C1651 C1650 1.397 . S
C1651 C1652 1.334 . S
C1652 H1623 0.950 . S
C1652 C1651 1.334 . S
C1652 C1653 1.287 . S
C1653 C1652 1.287 . S
C1653 C1654 1.524 . S
C1653 H1656 0.999 . S
C1654 H1624 0.950 . S
C1654 C1653 1.524 . S
C1654 C1655 1.415 . S
C1655 H1625 0.950 . S
C1655 C1650 1.363 . S
C1655 C1654 1.415 . S
H1656 C1653 0.999 . S
H1657 C1638 0.913 . S
H1658 C1676 0.951 . S
H1659 C1678 0.951 . S
H1660 C1680 0.950 . S
H1661 C1681 0.950 . S
H1662 C1683 0.950 . S
H1663 C1686 0.950 . S
H1664 C1687 0.950 . S
H1665 C1689 0.950 . S
H1666 C1690 0.950 . S
H1667 C1691 0.951 . S
H1668 C1693 0.951 . S
H1669 C1695 0.950 . S
H1670 C1696 0.950 . S
H1671 C1698 0.950 . S
H1672 C1701 0.950 . S
H1673 C1702 0.950 . S
H1674 C1704 0.950 . S
H1675 C1705 0.950 . S
C1676 H1658 0.951 . S
C1676 C1677 1.366 . S
C1676 C1678 1.388 . S
C1677 C1676 1.366 . S
C1677 C1681 1.385 . S
C1678 H1659 0.951 . S
C1678 C1676 1.388 . S
C1678 C1679 1.366 . S
C1679 C1678 1.366 . S
C1679 C1680 1.414 . S
C1679 C1682 1.499 . S
C1680 H1660 0.950 . S
C1680 C1679 1.414 . S
C1680 C1681 1.374 . S
C1681 H1661 0.950 . S
C1681 C1677 1.385 . S
C1681 C1680 1.374 . S
C1682 C1679 1.499 . S
C1682 C1683 1.373 . S
C1682 C1684 1.389 . S
C1683 H1662 0.950 . S
C1683 C1682 1.373 . S
C1683 C1699 1.377 . S
C1684 C1682 1.389 . S
C1684 C1685 1.524 . S
C1684 C1698 1.377 . S
C1685 C1684 1.524 . S
C1685 C1686 1.397 . S
C1685 C1690 1.363 . S
C1686 H1663 0.950 . S
C1686 C1685 1.397 . S
C1686 C1687 1.334 . S
C1687 H1664 0.950 . S
C1687 C1686 1.334 . S
C1687 C1688 1.287 . S
C1688 C1687 1.287 . S
C1688 C1689 1.524 . S
C1688 H1707 0.913 . S
C1689 H1665 0.950 . S
C1689 C1688 1.524 . S
C1689 C1690 1.415 . S
C1690 H1666 0.950 . S
C1690 C1685 1.363 . S
C1690 C1689 1.415 . S
C1691 H1667 0.951 . S
C1691 C1692 1.366 . S
C1691 C1693 1.388 . S
C1692 C1691 1.366 . S
C1692 C1696 1.385 . S
C1693 H1668 0.951 . S
C1693 C1691 1.388 . S
C1693 C1694 1.366 . S
C1694 C1693 1.366 . S
C1694 C1695 1.414 . S
C1694 C1697 1.499 . S
C1695 H1669 0.950 . S
C1695 C1694 1.414 . S
C1695 C1696 1.374 . S
C1696 H1670 0.950 . S
C1696 C1692 1.385 . S
C1696 C1695 1.374 . S
C1697 C1694 1.499 . S
C1697 C1698 1.373 . S
C1697 C1699 1.389 . S
C1698 H1671 0.950 . S
C1698 C1684 1.377 . S
C1698 C1697 1.373 . S
C1699 C1683 1.377 . S
C1699 C1697 1.389 . S
C1699 C1700 1.524 . S
C1700 C1699 1.524 . S
C1700 C1701 1.397 . S
C1700 C1705 1.363 . S
C1701 H1672 0.950 . S
C1701 C1700 1.397 . S
C1701 C1702 1.334 . S
C1702 H1673 0.950 . S
C1702 C1701 1.334 . S
C1702 C1703 1.287 . S
C1703 C1702 1.287 . S
C1703 C1704 1.524 . S
C1703 H1706 0.999 . S
C1704 H1674 0.950 . S
C1704 C1703 1.524 . S
C1704 C1705 1.415 . S
C1705 H1675 0.950 . S
C1705 C1700 1.363 . S
C1705 C1704 1.415 . S
H1706 C1703 0.999 . S
H1707 C1688 0.913 . S
H1708 C1726 0.951 . S
H1709 C1728 0.951 . S
H1710 C1730 0.950 . S
H1711 C1731 0.950 . S
H1712 C1733 0.950 . S
H1713 C1736 0.950 . S
H1714 C1737 0.950 . S
H1715 C1739 0.950 . S
H1716 C1740 0.950 . S
H1717 C1741 0.951 . S
H1718 C1743 0.951 . S
H1719 C1745 0.950 . S
H1720 C1746 0.950 . S
H1721 C1748 0.950 . S
H1722 C1751 0.950 . S
H1723 C1752 0.950 . S
H1724 C1754 0.950 . S
H1725 C1755 0.950 . S
C1726 H1708 0.951 . S
C1726 C1727 1.366 . S
C1726 C1728 1.388 . S
C1727 C1726 1.366 . S
C1727 C1731 1.385 . S
C1728 H1709 0.951 . S
C1728 C1726 1.388 . S
C1728 C1729 1.366 . S
C1729 C1728 1.366 . S
C1729 C1730 1.414 . S
C1729 C1732 1.499 . S
C1730 H1710 0.950 . S
C1730 C1729 1.414 . S
C1730 C1731 1.374 . S
C1731 H1711 0.950 . S
C1731 C1727 1.385 . S
C1731 C1730 1.374 . S
C1732 C1729 1.499 . S
C1732 C1733 1.373 . S
C1732 C1734 1.389 . S
C1733 H1712 0.950 . S
C1733 C1732 1.373 . S
C1733 C1749 1.377 . S
C1734 C1732 1.389 . S
C1734 C1735 1.524 . S
C1734 C1748 1.377 . S
C1735 C1734 1.524 . S
C1735 C1736 1.397 . S
C1735 C1740 1.363 . S
C1736 H1713 0.950 . S
C1736 C1735 1.397 . S
C1736 C1737 1.334 . S
C1737 H1714 0.950 . S
C1737 C1736 1.334 . S
C1737 C1738 1.287 . S
C1738 C1737 1.287 . S
C1738 C1739 1.524 . S
C1738 H1757 0.913 . S
C1739 H1715 0.950 . S
C1739 C1738 1.524 . S
C1739 C1740 1.415 . S
C1740 H1716 0.950 . S
C1740 C1735 1.363 . S
C1740 C1739 1.415 . S
C1741 H1717 0.951 . S
C1741 C1742 1.366 . S
C1741 C1743 1.388 . S
C1742 C1741 1.366 . S
C1742 C1746 1.385 . S
C1743 H1718 0.951 . S
C1743 C1741 1.388 . S
C1743 C1744 1.366 . S
C1744 C1743 1.366 . S
C1744 C1745 1.414 . S
C1744 C1747 1.499 . S
C1745 H1719 0.950 . S
C1745 C1744 1.414 . S
C1745 C1746 1.374 . S
C1746 H1720 0.950 . S
C1746 C1742 1.385 . S
C1746 C1745 1.374 . S
C1747 C1744 1.499 . S
C1747 C1748 1.373 . S
C1747 C1749 1.389 . S
C1748 H1721 0.950 . S
C1748 C1734 1.377 . S
C1748 C1747 1.373 . S
C1749 C1733 1.377 . S
C1749 C1747 1.389 . S
C1749 C1750 1.524 . S
C1750 C1749 1.524 . S
C1750 C1751 1.397 . S
C1750 C1755 1.363 . S
C1751 H1722 0.950 . S
C1751 C1750 1.397 . S
C1751 C1752 1.334 . S
C1752 H1723 0.950 . S
C1752 C1751 1.334 . S
C1752 C1753 1.287 . S
C1753 C1752 1.287 . S
C1753 C1754 1.524 . S
C1753 H1756 0.999 . S
C1754 H1724 0.950 . S
C1754 C1753 1.524 . S
C1754 C1755 1.415 . S
C1755 H1725 0.950 . S
C1755 C1750 1.363 . S
C1755 C1754 1.415 . S
H1756 C1753 0.999 . S
H1757 C1738 0.913 . S
H1758 C1776 0.951 . S
H1759 C1778 0.951 . S
H1760 C1780 0.950 . S
H1761 C1781 0.950 . S
H1762 C1783 0.950 . S
H1763 C1786 0.950 . S
H1764 C1787 0.950 . S
H1765 C1789 0.950 . S
H1766 C1790 0.950 . S
H1767 C1791 0.951 . S
H1768 C1793 0.951 . S
H1769 C1795 0.950 . S
H1770 C1796 0.950 . S
H1771 C1798 0.950 . S
H1772 C1801 0.950 . S
H1773 C1802 0.950 . S
H1774 C1804 0.950 . S
H1775 C1805 0.950 . S
C1776 H1758 0.951 . S
C1776 C1777 1.366 . S
C1776 C1778 1.388 . S
C1777 C1776 1.366 . S
C1777 C1781 1.385 . S
C1778 H1759 0.951 . S
C1778 C1776 1.388 . S
C1778 C1779 1.366 . S
C1779 C1778 1.366 . S
C1779 C1780 1.414 . S
C1779 C1782 1.499 . S
C1780 H1760 0.950 . S
C1780 C1779 1.414 . S
C1780 C1781 1.374 . S
C1781 H1761 0.950 . S
C1781 C1777 1.385 . S
C1781 C1780 1.374 . S
C1782 C1779 1.499 . S
C1782 C1783 1.373 . S
C1782 C1784 1.389 . S
C1783 H1762 0.950 . S
C1783 C1782 1.373 . S
C1783 C1799 1.377 . S
C1784 C1782 1.389 . S
C1784 C1785 1.524 . S
C1784 C1798 1.377 . S
C1785 C1784 1.524 . S
C1785 C1786 1.397 . S
C1785 C1790 1.363 . S
C1786 H1763 0.950 . S
C1786 C1785 1.397 . S
C1786 C1787 1.334 . S
C1787 H1764 0.950 . S
C1787 C1786 1.334 . S
C1787 C1788 1.287 . S
C1788 C1787 1.287 . S
C1788 C1789 1.524 . S
C1788 H1807 0.913 . S
C1789 H1765 0.950 . S
C1789 C1788 1.524 . S
C1789 C1790 1.415 . S
C1790 H1766 0.950 . S
C1790 C1785 1.363 . S
C1790 C1789 1.415 . S
C1791 H1767 0.951 . S
C1791 C1792 1.366 . S
C1791 C1793 1.388 . S
C1792 C1791 1.366 . S
C1792 C1796 1.385 . S
C1793 H1768 0.951 . S
C1793 C1791 1.388 . S
C1793 C1794 1.366 . S
C1794 C1793 1.366 . S
C1794 C1795 1.414 . S
C1794 C1797 1.499 . S
C1795 H1769 0.950 . S
C1795 C1794 1.414 . S
C1795 C1796 1.374 . S
C1796 H1770 0.950 . S
C1796 C1792 1.385 . S
C1796 C1795 1.374 . S
C1797 C1794 1.499 . S
C1797 C1798 1.373 . S
C1797 C1799 1.389 . S
C1798 H1771 0.950 . S
C1798 C1784 1.377 . S
C1798 C1797 1.373 . S
C1799 C1783 1.377 . S
C1799 C1797 1.389 . S
C1799 C1800 1.524 . S
C1800 C1799 1.524 . S
C1800 C1801 1.397 . S
C1800 C1805 1.363 . S
C1801 H1772 0.950 . S
C1801 C1800 1.397 . S
C1801 C1802 1.334 . S
C1802 H1773 0.950 . S
C1802 C1801 1.334 . S
C1802 C1803 1.287 . S
C1803 C1802 1.287 . S
C1803 C1804 1.524 . S
C1803 H1806 0.999 . S
C1804 H1774 0.950 . S
C1804 C1803 1.524 . S
C1804 C1805 1.415 . S
C1805 H1775 0.950 . S
C1805 C1800 1.363 . S
C1805 C1804 1.415 . S
H1806 C1803 0.999 . S
H1807 C1788 0.913 . S
H1808 C1826 0.951 . S
H1809 C1828 0.951 . S
H1810 C1830 0.950 . S
H1811 C1831 0.950 . S
H1812 C1833 0.950 . S
H1813 C1836 0.950 . S
H1814 C1837 0.950 . S
H1815 C1839 0.950 . S
H1816 C1840 0.950 . S
H1817 C1841 0.951 . S
H1818 C1843 0.951 . S
H1819 C1845 0.950 . S
H1820 C1846 0.950 . S
H1821 C1848 0.950 . S
H1822 C1851 0.950 . S
H1823 C1852 0.950 . S
H1824 C1854 0.950 . S
H1825 C1855 0.950 . S
C1826 H1808 0.951 . S
C1826 C1827 1.366 . S
C1826 C1828 1.388 . S
C1827 C1826 1.366 . S
C1827 C1831 1.385 . S
C1828 H1809 0.951 . S
C1828 C1826 1.388 . S
C1828 C1829 1.366 . S
C1829 C1828 1.366 . S
C1829 C1830 1.414 . S
C1829 C1832 1.499 . S
C1830 H1810 0.950 . S
C1830 C1829 1.414 . S
C1830 C1831 1.374 . S
C1831 H1811 0.950 . S
C1831 C1827 1.385 . S
C1831 C1830 1.374 . S
C1832 C1829 1.499 . S
C1832 C1833 1.373 . S
C1832 C1834 1.389 . S
C1833 H1812 0.950 . S
C1833 C1832 1.373 . S
C1833 C1849 1.377 . S
C1834 C1832 1.389 . S
C1834 C1835 1.524 . S
C1834 C1848 1.377 . S
C1835 C1834 1.524 . S
C1835 C1836 1.397 . S
C1835 C1840 1.363 . S
C1836 H1813 0.950 . S
C1836 C1835 1.397 . S
C1836 C1837 1.334 . S
C1837 H1814 0.950 . S
C1837 C1836 1.334 . S
C1837 C1838 1.287 . S
C1838 C1837 1.287 . S
C1838 C1839 1.524 . S
C1838 H1857 0.913 . S
C1839 H1815 0.950 . S
C1839 C1838 1.524 . S
C1839 C1840 1.415 . S
C1840 H1816 0.950 . S
C1840 C1835 1.363 . S
C1840 C1839 1.415 . S
C1841 H1817 0.951 . S
C1841 C1842 1.366 . S
C1841 C1843 1.388 . S
C1842 C1841 1.366 . S
C1842 C1846 1.385 . S
C1843 H1818 0.951 . S
C1843 C1841 1.388 . S
C1843 C1844 1.366 . S
C1844 C1843 1.366 . S
C1844 C1845 1.414 . S
C1844 C1847 1.499 . S
C1845 H1819 0.950 . S
C1845 C1844 1.414 . S
C1845 C1846 1.374 . S
C1846 H1820 0.950 . S
C1846 C1842 1.385 . S
C1846 C1845 1.374 . S
C1847 C1844 1.499 . S
C1847 C1848 1.373 . S
C1847 C1849 1.389 . S
C1848 H1821 0.950 . S
C1848 C1834 1.377 . S
C1848 C1847 1.373 . S
C1849 C1833 1.377 . S
C1849 C1847 1.389 . S
C1849 C1850 1.524 . S
C1850 C1849 1.524 . S
C1850 C1851 1.397 . S
C1850 C1855 1.363 . S
C1851 H1822 0.950 . S
C1851 C1850 1.397 . S
C1851 C1852 1.334 . S
C1852 H1823 0.950 . S
C1852 C1851 1.334 . S
C1852 C1853 1.287 . S
C1853 C1852 1.287 . S
C1853 C1854 1.524 . S
C1853 H1856 0.999 . S
C1854 H1824 0.950 . S
C1854 C1853 1.524 . S
C1854 C1855 1.415 . S
C1855 H1825 0.950 . S
C1855 C1850 1.363 . S
C1855 C1854 1.415 . S
H1856 C1853 0.999 . S
H1857 C1838 0.913 . S
H1858 C1876 0.951 . S
H1859 C1878 0.951 . S
H1860 C1880 0.950 . S
H1861 C1881 0.950 . S
H1862 C1883 0.950 . S
H1863 C1886 0.950 . S
H1864 C1887 0.950 . S
H1865 C1889 0.950 . S
H1866 C1890 0.950 . S
H1867 C1891 0.951 . S
H1868 C1893 0.951 . S
H1869 C1895 0.950 . S
H1870 C1896 0.950 . S
H1871 C1898 0.950 . S
H1872 C1901 0.950 . S
H1873 C1902 0.950 . S
H1874 C1904 0.950 . S
H1875 C1905 0.950 . S
C1876 H1858 0.951 . S
C1876 C1877 1.366 . S
C1876 C1878 1.388 . S
C1877 C1876 1.366 . S
C1877 C1881 1.385 . S
C1878 H1859 0.951 . S
C1878 C1876 1.388 . S
C1878 C1879 1.366 . S
C1879 C1878 1.366 . S
C1879 C1880 1.414 . S
C1879 C1882 1.499 . S
C1880 H1860 0.950 . S
C1880 C1879 1.414 . S
C1880 C1881 1.374 . S
C1881 H1861 0.950 . S
C1881 C1877 1.385 . S
C1881 C1880 1.374 . S
C1882 C1879 1.499 . S
C1882 C1883 1.373 . S
C1882 C1884 1.389 . S
C1883 H1862 0.950 . S
C1883 C1882 1.373 . S
C1883 C1899 1.377 . S
C1884 C1882 1.389 . S
C1884 C1885 1.524 . S
C1884 C1898 1.377 . S
C1885 C1884 1.524 . S
C1885 C1886 1.397 . S
C1885 C1890 1.363 . S
C1886 H1863 0.950 . S
C1886 C1885 1.397 . S
C1886 C1887 1.334 . S
C1887 H1864 0.950 . S
C1887 C1886 1.334 . S
C1887 C1888 1.287 . S
C1888 C1887 1.287 . S
C1888 C1889 1.524 . S
C1888 H1907 0.913 . S
C1889 H1865 0.950 . S
C1889 C1888 1.524 . S
C1889 C1890 1.415 . S
C1890 H1866 0.950 . S
C1890 C1885 1.363 . S
C1890 C1889 1.415 . S
C1891 H1867 0.951 . S
C1891 C1892 1.366 . S
C1891 C1893 1.388 . S
C1892 C1891 1.366 . S
C1892 C1896 1.385 . S
C1893 H1868 0.951 . S
C1893 C1891 1.388 . S
C1893 C1894 1.366 . S
C1894 C1893 1.366 . S
C1894 C1895 1.414 . S
C1894 C1897 1.499 . S
C1895 H1869 0.950 . S
C1895 C1894 1.414 . S
C1895 C1896 1.374 . S
C1896 H1870 0.950 . S
C1896 C1892 1.385 . S
C1896 C1895 1.374 . S
C1897 C1894 1.499 . S
C1897 C1898 1.373 . S
C1897 C1899 1.389 . S
C1898 H1871 0.950 . S
C1898 C1884 1.377 . S
C1898 C1897 1.373 . S
C1899 C1883 1.377 . S
C1899 C1897 1.389 . S
C1899 C1900 1.524 . S
C1900 C1899 1.524 . S
C1900 C1901 1.397 . S
C1900 C1905 1.363 . S
C1901 H1872 0.950 . S
C1901 C1900 1.397 . S
C1901 C1902 1.334 . S
C1902 H1873 0.950 . S
C1902 C1901 1.334 . S
C1902 C1903 1.287 . S
C1903 C1902 1.287 . S
C1903 C1904 1.524 . S
C1903 H1906 0.999 . S
C1904 H1874 0.950 . S
C1904 C1903 1.524 . S
C1904 C1905 1.415 . S
C1905 H1875 0.950 . S
C1905 C1900 1.363 . S
C1905 C1904 1.415 . S
H1906 C1903 0.999 . S
H1907 C1888 0.913 . S
H1908 C1926 0.951 . S
H1909 C1928 0.951 . S
H1910 C1930 0.950 . S
H1911 C1931 0.950 . S
H1912 C1933 0.950 . S
H1913 C1936 0.950 . S
H1914 C1937 0.950 . S
H1915 C1939 0.950 . S
H1916 C1940 0.950 . S
H1917 C1941 0.951 . S
H1918 C1943 0.951 . S
H1919 C1945 0.950 . S
H1920 C1946 0.950 . S
H1921 C1948 0.950 . S
H1922 C1951 0.950 . S
H1923 C1952 0.950 . S
H1924 C1954 0.950 . S
H1925 C1955 0.950 . S
C1926 H1908 0.951 . S
C1926 C1927 1.366 . S
C1926 C1928 1.388 . S
C1927 C1926 1.366 . S
C1927 C1931 1.385 . S
C1928 H1909 0.951 . S
C1928 C1926 1.388 . S
C1928 C1929 1.366 . S
C1929 C1928 1.366 . S
C1929 C1930 1.414 . S
C1929 C1932 1.499 . S
C1930 H1910 0.950 . S
C1930 C1929 1.414 . S
C1930 C1931 1.374 . S
C1931 H1911 0.950 . S
C1931 C1927 1.385 . S
C1931 C1930 1.374 . S
C1932 C1929 1.499 . S
C1932 C1933 1.373 . S
C1932 C1934 1.389 . S
C1933 H1912 0.950 . S
C1933 C1932 1.373 . S
C1933 C1949 1.377 . S
C1934 C1932 1.389 . S
C1934 C1935 1.524 . S
C1934 C1948 1.377 . S
C1935 C1934 1.524 . S
C1935 C1936 1.397 . S
C1935 C1940 1.363 . S
C1936 H1913 0.950 . S
C1936 C1935 1.397 . S
C1936 C1937 1.334 . S
C1937 H1914 0.950 . S
C1937 C1936 1.334 . S
C1937 C1938 1.287 . S
C1938 C1937 1.287 . S
C1938 C1939 1.524 . S
C1938 H1957 0.913 . S
C1939 H1915 0.950 . S
C1939 C1938 1.524 . S
C1939 C1940 1.415 . S
C1940 H1916 0.950 . S
C1940 C1935 1.363 . S
C1940 C1939 1.415 . S
C1941 H1917 0.951 . S
C1941 C1942 1.366 . S
C1941 C1943 1.388 . S
C1942 C1941 1.366 . S
C1942 C1946 1.385 . S
C1943 H1918 0.951 . S
C1943 C1941 1.388 . S
C1943 C1944 1.366 . S
C1944 C1943 1.366 . S
C1944 C1945 1.414 . S
C1944 C1947 1.499 . S
C1945 H1919 0.950 . S
C1945 C1944 1.414 . S
C1945 C1946 1.374 . S
C1946 H1920 0.950 . S
C1946 C1942 1.385 . S
C1946 C1945 1.374 . S
C1947 C1944 1.499 . S
C1947 C1948 1.373 . S
C1947 C1949 1.389 . S
C1948 H1921 0.950 . S
C1948 C1934 1.377 . S
C1948 C1947 1.373 . S
C1949 C1933 1.377 . S
C1949 C1947 1.389 . S
C1949 C1950 1.524 . S
C1950 C1949 1.524 . S
C1950 C1951 1.397 . S
C1950 C1955 1.363 . S
C1951 H1922 0.950 . S
C1951 C1950 1.397 . S
C1951 C1952 1.334 . S
C1952 H1923 0.950 . S
C1952 C1951 1.334 . S
C1952 C1953 1.287 . S
C1953 C1952 1.287 . S
C1953 C1954 1.524 . S
C1953 H1956 0.999 . S
C1954 H1924 0.950 . S
C1954 C1953 1.524 . S
C1954 C1955 1.415 . S
C1955 H1925 0.950 . S
C1955 C1950 1.363 . S
C1955 C1954 1.415 . S
H1956 C1953 0.999 . S
H1957 C1938 0.913 . S
H1958 C1976 0.951 . S
H1959 C1978 0.951 . S
H1960 C1980 0.950 . S
H1961 C1981 0.950 . S
H1962 C1983 0.950 . S
H1963 C1986 0.950 . S
H1964 C1987 0.950 . S
H1965 C1989 0.950 . S
H1966 C1990 0.950 . S
H1967 C1991 0.951 . S
H1968 C1993 0.951 . S
H1969 C1995 0.950 . S
H1970 C1996 0.950 . S
H1971 C1998 0.950 . S
H1972 C2001 0.950 . S
H1973 C2002 0.950 . S
H1974 C2004 0.950 . S
H1975 C2005 0.950 . S
C1976 H1958 0.951 . S
C1976 C1977 1.366 . S
C1976 C1978 1.388 . S
C1977 C1976 1.366 . S
C1977 C1981 1.385 . S
C1978 H1959 0.951 . S
C1978 C1976 1.388 . S
C1978 C1979 1.366 . S
C1979 C1978 1.366 . S
C1979 C1980 1.414 . S
C1979 C1982 1.499 . S
C1980 H1960 0.950 . S
C1980 C1979 1.414 . S
C1980 C1981 1.374 . S
C1981 H1961 0.950 . S
C1981 C1977 1.385 . S
C1981 C1980 1.374 . S
C1982 C1979 1.499 . S
C1982 C1983 1.373 . S
C1982 C1984 1.389 . S
C1983 H1962 0.950 . S
C1983 C1982 1.373 . S
C1983 C1999 1.377 . S
C1984 C1982 1.389 . S
C1984 C1985 1.524 . S
C1984 C1998 1.377 . S
C1985 C1984 1.524 . S
C1985 C1986 1.397 . S
C1985 C1990 1.363 . S
C1986 H1963 0.950 . S
C1986 C1985 1.397 . S
C1986 C1987 1.334 . S
C1987 H1964 0.950 . S
C1987 C1986 1.334 . S
C1987 C1988 1.287 . S
C1988 C1987 1.287 . S
C1988 C1989 1.524 . S
C1988 H2007 0.913 . S
C1989 H1965 0.950 . S
C1989 C1988 1.524 . S
C1989 C1990 1.415 . S
C1990 H1966 0.950 . S
C1990 C1985 1.363 . S
C1990 C1989 1.415 . S
C1991 H1967 0.951 . S
C1991 C1992 1.366 . S
C1991 C1993 1.388 . S
C1992 C1991 1.366 . S
C1992 C1996 1.385 . S
C1993 H1968 0.951 . S
C1993 C1991 1.388 . S
C1993 C1994 1.366 . S
C1994 C1993 1.366 . S
C1994 C1995 1.414 . S
C1994 C1997 1.499 . S
C1995 H1969 0.950 . S
C1995 C1994 1.414 . S
C1995 C1996 1.374 . S
C1996 H1970 0.950 . S
C1996 C1992 1.385 . S
C1996 C1995 1.374 . S
C1997 C1994 1.499 . S
C1997 C1998 1.373 . S
C1997 C1999 1.389 . S
C1998 H1971 0.950 . S
C1998 C1984 1.377 . S
C1998 C1997 1.373 . S
C1999 C1983 1.377 . S
C1999 C1997 1.389 . S
C1999 C2000 1.524 . S
C2000 C1999 1.524 . S
C2000 C2001 1.397 . S
C2000 C2005 1.363 . S
C2001 H1972 0.950 . S
C2001 C2000 1.397 . S
C2001 C2002 1.334 . S
C2002 H1973 0.950 . S
C2002 C2001 1.334 . S
C2002 C2003 1.287 . S
C2003 C2002 1.287 . S
C2003 C2004 1.524 . S
C2003 H2006 0.999 . S
C2004 H1974 0.950 . S
C2004 C2003 1.524 . S
C2004 C2005 1.415 . S
C2005 H1975 0.950 . S
C2005 C2000 1.363 . S
C2005 C2004 1.415 . S
H2006 C2003 0.999 . S
H2007 C1988 0.913 . S
H2008 C2026 0.951 . S
H2009 C2028 0.951 . S
H2010 C2030 0.950 . S
H2011 C2031 0.950 . S
H2012 C2033 0.950 . S
H2013 C2036 0.950 . S
H2014 C2037 0.950 . S
H2015 C2039 0.950 . S
H2016 C2040 0.950 . S
H2017 C2041 0.951 . S
H2018 C2043 0.951 . S
H2019 C2045 0.950 . S
H2020 C2046 0.950 . S
H2021 C2048 0.950 . S
H2022 C2051 0.950 . S
H2023 C2052 0.950 . S
H2024 C2054 0.950 . S
H2025 C2055 0.950 . S
C2026 H2008 0.951 . S
C2026 C2027 1.366 . S
C2026 C2028 1.388 . S
C2027 C2026 1.366 . S
C2027 C2031 1.385 . S
C2028 H2009 0.951 . S
C2028 C2026 1.388 . S
C2028 C2029 1.366 . S
C2029 C2028 1.366 . S
C2029 C2030 1.414 . S
C2029 C2032 1.499 . S
C2030 H2010 0.950 . S
C2030 C2029 1.414 . S
C2030 C2031 1.374 . S
C2031 H2011 0.950 . S
C2031 C2027 1.385 . S
C2031 C2030 1.374 . S
C2032 C2029 1.499 . S
C2032 C2033 1.373 . S
C2032 C2034 1.389 . S
C2033 H2012 0.950 . S
C2033 C2032 1.373 . S
C2033 C2049 1.377 . S
C2034 C2032 1.389 . S
C2034 C2035 1.524 . S
C2034 C2048 1.377 . S
C2035 C2034 1.524 . S
C2035 C2036 1.397 . S
C2035 C2040 1.363 . S
C2036 H2013 0.950 . S
C2036 C2035 1.397 . S
C2036 C2037 1.334 . S
C2037 H2014 0.950 . S
C2037 C2036 1.334 . S
C2037 C2038 1.287 . S
C2038 C2037 1.287 . S
C2038 C2039 1.524 . S
C2038 H2057 0.913 . S
C2039 H2015 0.950 . S
C2039 C2038 1.524 . S
C2039 C2040 1.415 . S
C2040 H2016 0.950 . S
C2040 C2035 1.363 . S
C2040 C2039 1.415 . S
C2041 H2017 0.951 . S
C2041 C2042 1.366 . S
C2041 C2043 1.388 . S
C2042 C2041 1.366 . S
C2042 C2046 1.385 . S
C2043 H2018 0.951 . S
C2043 C2041 1.388 . S
C2043 C2044 1.366 . S
C2044 C2043 1.366 . S
C2044 C2045 1.414 . S
C2044 C2047 1.499 . S
C2045 H2019 0.950 . S
C2045 C2044 1.414 . S
C2045 C2046 1.374 . S
C2046 H2020 0.950 . S
C2046 C2042 1.385 . S
C2046 C2045 1.374 . S
C2047 C2044 1.499 . S
C2047 C2048 1.373 . S
C2047 C2049 1.389 . S
C2048 H2021 0.950 . S
C2048 C2034 1.377 . S
C2048 C2047 1.373 . S
C2049 C2033 1.377 . S
C2049 C2047 1.389 . S
C2049 C2050 1.524 . S
C2050 C2049 1.524 . S
C2050 C2051 1.397 . S
C2050 C2055 1.363 . S
C2051 H2022 0.950 . S
C2051 C2050 1.397 . S
C2051 C2052 1.334 . S
C2052 H2023 0.950 . S
C2052 C2051 1.334 . S
C2052 C2053 1.287 . S
C2053 C2052 1.287 . S
C2053 C2054 1.524 . S
C2053 H2056 0.999 . S
C2054 H2024 0.950 . S
C2054 C2053 1.524 . S
C2054 C2055 1.415 . S
C2055 H2025 0.950 . S
C2055 C2050 1.363 . S
C2055 C2054 1.415 . S
H2056 C2053 0.999 . S
H2057 C2038 0.913 . S
H2058 C2076 0.951 . S
H2059 C2078 0.951 . S
H2060 C2080 0.950 . S
H2061 C2081 0.950 . S
H2062 C2083 0.950 . S
H2063 C2086 0.950 . S
H2064 C2087 0.950 . S
H2065 C2089 0.950 . S
H2066 C2090 0.950 . S
H2067 C2091 0.951 . S
H2068 C2093 0.951 . S
H2069 C2095 0.950 . S
H2070 C2096 0.950 . S
H2071 C2098 0.950 . S
H2072 C2101 0.950 . S
H2073 C2102 0.950 . S
H2074 C2104 0.950 . S
H2075 C2105 0.950 . S
C2076 H2058 0.951 . S
C2076 C2077 1.366 . S
C2076 C2078 1.388 . S
C2077 C2076 1.366 . S
C2077 C2081 1.385 . S
C2078 H2059 0.951 . S
C2078 C2076 1.388 . S
C2078 C2079 1.366 . S
C2079 C2078 1.366 . S
C2079 C2080 1.414 . S
C2079 C2082 1.499 . S
C2080 H2060 0.950 . S
C2080 C2079 1.414 . S
C2080 C2081 1.374 . S
C2081 H2061 0.950 . S
C2081 C2077 1.385 . S
C2081 C2080 1.374 . S
C2082 C2079 1.499 . S
C2082 C2083 1.373 . S
C2082 C2084 1.389 . S
C2083 H2062 0.950 . S
C2083 C2082 1.373 . S
C2083 C2099 1.377 . S
C2084 C2082 1.389 . S
C2084 C2085 1.524 . S
C2084 C2098 1.377 . S
C2085 C2084 1.524 . S
C2085 C2086 1.397 . S
C2085 C2090 1.363 . S
C2086 H2063 0.950 . S
C2086 C2085 1.397 . S
C2086 C2087 1.334 . S
C2087 H2064 0.950 . S
C2087 C2086 1.334 . S
C2087 C2088 1.287 . S
C2088 C2087 1.287 . S
C2088 C2089 1.524 . S
C2088 H2107 0.913 . S
C2089 H2065 0.950 . S
C2089 C2088 1.524 . S
C2089 C2090 1.415 . S
C2090 H2066 0.950 . S
C2090 C2085 1.363 . S
C2090 C2089 1.415 . S
C2091 H2067 0.951 . S
C2091 C2092 1.366 . S
C2091 C2093 1.388 . S
C2092 C2091 1.366 . S
C2092 C2096 1.385 . S
C2093 H2068 0.951 . S
C2093 C2091 1.388 . S
C2093 C2094 1.366 . S
C2094 C2093 1.366 . S
C2094 C2095 1.414 . S
C2094 C2097 1.499 . S
C2095 H2069 0.950 . S
C2095 C2094 1.414 . S
C2095 C2096 1.374 . S
C2096 H2070 0.950 . S
C2096 C2092 1.385 . S
C2096 C2095 1.374 . S
C2097 C2094 1.499 . S
C2097 C2098 1.373 . S
C2097 C2099 1.389 . S
C2098 H2071 0.950 . S
C2098 C2084 1.377 . S
C2098 C2097 1.373 . S
C2099 C2083 1.377 . S
C2099 C2097 1.389 . S
C2099 C2100 1.524 . S
C2100 C2099 1.524 . S
C2100 C2101 1.397 . S
C2100 C2105 1.363 . S
C2101 H2072 0.950 . S
C2101 C2100 1.397 . S
C2101 C2102 1.334 . S
C2102 H2073 0.950 . S
C2102 C2101 1.334 . S
C2102 C2103 1.287 . S
C2103 C2102 1.287 . S
C2103 C2104 1.524 . S
C2103 H2106 0.999 . S
C2104 H2074 0.950 . S
C2104 C2103 1.524 . S
C2104 C2105 1.415 . S
C2105 H2075 0.950 . S
C2105 C2100 1.363 . S
C2105 C2104 1.415 . S
H2106 C2103 0.999 . S
H2107 C2088 0.913 . S
H2108 C2126 0.951 . S
H2109 C2128 0.951 . S
H2110 C2130 0.950 . S
H2111 C2131 0.950 . S
H2112 C2133 0.950 . S
H2113 C2136 0.950 . S
H2114 C2137 0.950 . S
H2115 C2139 0.950 . S
H2116 C2140 0.950 . S
H2117 C2141 0.951 . S
H2118 C2143 0.951 . S
H2119 C2145 0.950 . S
H2120 C2146 0.950 . S
H2121 C2148 0.950 . S
H2122 C2151 0.950 . S
H2123 C2152 0.950 . S
H2124 C2154 0.950 . S
H2125 C2155 0.950 . S
C2126 H2108 0.951 . S
C2126 C2127 1.366 . S
C2126 C2128 1.388 . S
C2127 C2126 1.366 . S
C2127 C2131 1.385 . S
C2128 H2109 0.951 . S
C2128 C2126 1.388 . S
C2128 C2129 1.366 . S
C2129 C2128 1.366 . S
C2129 C2130 1.414 . S
C2129 C2132 1.499 . S
C2130 H2110 0.950 . S
C2130 C2129 1.414 . S
C2130 C2131 1.374 . S
C2131 H2111 0.950 . S
C2131 C2127 1.385 . S
C2131 C2130 1.374 . S
C2132 C2129 1.499 . S
C2132 C2133 1.373 . S
C2132 C2134 1.389 . S
C2133 H2112 0.950 . S
C2133 C2132 1.373 . S
C2133 C2149 1.377 . S
C2134 C2132 1.389 . S
C2134 C2135 1.524 . S
C2134 C2148 1.377 . S
C2135 C2134 1.524 . S
C2135 C2136 1.397 . S
C2135 C2140 1.363 . S
C2136 H2113 0.950 . S
C2136 C2135 1.397 . S
C2136 C2137 1.334 . S
C2137 H2114 0.950 . S
C2137 C2136 1.334 . S
C2137 C2138 1.287 . S
C2138 C2137 1.287 . S
C2138 C2139 1.524 . S
C2138 H2157 0.913 . S
C2139 H2115 0.950 . S
C2139 C2138 1.524 . S
C2139 C2140 1.415 . S
C2140 H2116 0.950 . S
C2140 C2135 1.363 . S
C2140 C2139 1.415 . S
C2141 H2117 0.951 . S
C2141 C2142 1.366 . S
C2141 C2143 1.388 . S
C2142 C2141 1.366 . S
C2142 C2146 1.385 . S
C2143 H2118 0.951 . S
C2143 C2141 1.388 . S
C2143 C2144 1.366 . S
C2144 C2143 1.366 . S
C2144 C2145 1.414 . S
C2144 C2147 1.499 . S
C2145 H2119 0.950 . S
C2145 C2144 1.414 . S
C2145 C2146 1.374 . S
C2146 H2120 0.950 . S
C2146 C2142 1.385 . S
C2146 C2145 1.374 . S
C2147 C2144 1.499 . S
C2147 C2148 1.373 . S
C2147 C2149 1.389 . S
C2148 H2121 0.950 . S
C2148 C2134 1.377 . S
C2148 C2147 1.373 . S
C2149 C2133 1.377 . S
C2149 C2147 1.389 . S
C2149 C2150 1.524 . S
C2150 C2149 1.524 . S
C2150 C2151 1.397 . S
C2150 C2155 1.363 . S
C2151 H2122 0.950 . S
C2151 C2150 1.397 . S
C2151 C2152 1.334 . S
C2152 H2123 0.950 . S
C2152 C2151 1.334 . S
C2152 C2153 1.287 . S
C2153 C2152 1.287 . S
C2153 C2154 1.524 . S
C2153 H2156 0.999 . S
C2154 H2124 0.950 . S
C2154 C2153 1.524 . S
C2154 C2155 1.415 . S
C2155 H2125 0.950 . S
C2155 C2150 1.363 . S
C2155 C2154 1.415 . S
H2156 C2153 0.999 . S
H2157 C2138 0.913 . S
H2158 C2176 0.951 . S
H2159 C2178 0.951 . S
H2160 C2180 0.950 . S
H2161 C2181 0.950 . S
H2162 C2183 0.950 . S
H2163 C2186 0.950 . S
H2164 C2187 0.950 . S
H2165 C2189 0.950 . S
H2166 C2190 0.950 . S
H2167 C2191 0.951 . S
H2168 C2193 0.951 . S
H2169 C2195 0.950 . S
H2170 C2196 0.950 . S
H2171 C2198 0.950 . S
H2172 C2201 0.950 . S
H2173 C2202 0.950 . S
H2174 C2204 0.950 . S
H2175 C2205 0.950 . S
C2176 H2158 0.951 . S
C2176 C2177 1.366 . S
C2176 C2178 1.388 . S
C2177 C2176 1.366 . S
C2177 C2181 1.385 . S
C2178 H2159 0.951 . S
C2178 C2176 1.388 . S
C2178 C2179 1.366 . S
C2179 C2178 1.366 . S
C2179 C2180 1.414 . S
C2179 C2182 1.499 . S
C2180 H2160 0.950 . S
C2180 C2179 1.414 . S
C2180 C2181 1.374 . S
C2181 H2161 0.950 . S
C2181 C2177 1.385 . S
C2181 C2180 1.374 . S
C2182 C2179 1.499 . S
C2182 C2183 1.373 . S
C2182 C2184 1.389 . S
C2183 H2162 0.950 . S
C2183 C2182 1.373 . S
C2183 C2199 1.377 . S
C2184 C2182 1.389 . S
C2184 C2185 1.524 . S
C2184 C2198 1.377 . S
C2185 C2184 1.524 . S
C2185 C2186 1.397 . S
C2185 C2190 1.363 . S
C2186 H2163 0.950 . S
C2186 C2185 1.397 . S
C2186 C2187 1.334 . S
C2187 H2164 0.950 . S
C2187 C2186 1.334 . S
C2187 C2188 1.287 . S
C2188 C2187 1.287 . S
C2188 C2189 1.524 . S
C2188 H2207 0.913 . S
C2189 H2165 0.950 . S
C2189 C2188 1.524 . S
C2189 C2190 1.415 . S
C2190 H2166 0.950 . S
C2190 C2185 1.363 . S
C2190 C2189 1.415 . S
C2191 H2167 0.951 . S
C2191 C2192 1.366 . S
C2191 C2193 1.388 . S
C2192 C2191 1.366 . S
C2192 C2196 1.385 . S
C2193 H2168 0.951 . S
C2193 C2191 1.388 . S
C2193 C2194 1.366 . S
C2194 C2193 1.366 . S
C2194 C2195 1.414 . S
C2194 C2197 1.499 . S
C2195 H2169 0.950 . S
C2195 C2194 1.414 . S
C2195 C2196 1.374 . S
C2196 H2170 0.950 . S
C2196 C2192 1.385 . S
C2196 C2195 1.374 . S
C2197 C2194 1.499 . S
C2197 C2198 1.373 . S
C2197 C2199 1.389 . S
C2198 H2171 0.950 . S
C2198 C2184 1.377 . S
C2198 C2197 1.373 . S
C2199 C2183 1.377 . S
C2199 C2197 1.389 . S
C2199 C2200 1.524 . S
C2200 C2199 1.524 . S
C2200 C2201 1.397 . S
C2200 C2205 1.363 . S
C2201 H2172 0.950 . S
C2201 C2200 1.397 . S
C2201 C2202 1.334 . S
C2202 H2173 0.950 . S
C2202 C2201 1.334 . S
C2202 C2203 1.287 . S
C2203 C2202 1.287 . S
C2203 C2204 1.524 . S
C2203 H2206 0.999 . S
C2204 H2174 0.950 . S
C2204 C2203 1.524 . S
C2204 C2205 1.415 . S
C2205 H2175 0.950 . S
C2205 C2200 1.363 . S
C2205 C2204 1.415 . S
H2206 C2203 0.999 . S
H2207 C2188 0.913 . S
H2208 C2226 0.951 . S
H2209 C2228 0.951 . S
H2210 C2230 0.950 . S
H2211 C2231 0.950 . S
H2212 C2233 0.950 . S
H2213 C2236 0.950 . S
H2214 C2237 0.950 . S
H2215 C2239 0.950 . S
H2216 C2240 0.950 . S
H2217 C2241 0.951 . S
H2218 C2243 0.951 . S
H2219 C2245 0.950 . S
H2220 C2246 0.950 . S
H2221 C2248 0.950 . S
H2222 C2251 0.950 . S
H2223 C2252 0.950 . S
H2224 C2254 0.950 . S
H2225 C2255 0.950 . S
C2226 H2208 0.951 . S
C2226 C2227 1.366 . S
C2226 C2228 1.388 . S
C2227 C2226 1.366 . S
C2227 C2231 1.385 . S
C2228 H2209 0.951 . S
C2228 C2226 1.388 . S
C2228 C2229 1.366 . S
C2229 C2228 1.366 . S
C2229 C2230 1.414 . S
C2229 C2232 1.499 . S
C2230 H2210 0.950 . S
C2230 C2229 1.414 . S
C2230 C2231 1.374 . S
C2231 H2211 0.950 . S
C2231 C2227 1.385 . S
C2231 C2230 1.374 . S
C2232 C2229 1.499 . S
C2232 C2233 1.373 . S
C2232 C2234 1.389 . S
C2233 H2212 0.950 . S
C2233 C2232 1.373 . S
C2233 C2249 1.377 . S
C2234 C2232 1.389 . S
C2234 C2235 1.524 . S
C2234 C2248 1.377 . S
C2235 C2234 1.524 . S
C2235 C2236 1.397 . S
C2235 C2240 1.363 . S
C2236 H2213 0.950 . S
C2236 C2235 1.397 . S
C2236 C2237 1.334 . S
C2237 H2214 0.950 . S
C2237 C2236 1.334 . S
C2237 C2238 1.287 . S
C2238 C2237 1.287 . S
C2238 C2239 1.524 . S
C2238 H2257 0.913 . S
C2239 H2215 0.950 . S
C2239 C2238 1.524 . S
C2239 C2240 1.415 . S
C2240 H2216 0.950 . S
C2240 C2235 1.363 . S
C2240 C2239 1.415 . S
C2241 H2217 0.951 . S
C2241 C2242 1.366 . S
C2241 C2243 1.388 . S
C2242 C2241 1.366 . S
C2242 C2246 1.385 . S
C2243 H2218 0.951 . S
C2243 C2241 1.388 . S
C2243 C2244 1.366 . S
C2244 C2243 1.366 . S
C2244 C2245 1.414 . S
C2244 C2247 1.499 . S
C2245 H2219 0.950 . S
C2245 C2244 1.414 . S
C2245 C2246 1.374 . S
C2246 H2220 0.950 . S
C2246 C2242 1.385 . S
C2246 C2245 1.374 . S
C2247 C2244 1.499 . S
C2247 C2248 1.373 . S
C2247 C2249 1.389 . S
C2248 H2221 0.950 . S
C2248 C2234 1.377 . S
C2248 C2247 1.373 . S
C2249 C2233 1.377 . S
C2249 C2247 1.389 . S
C2249 C2250 1.524 . S
C2250 C2249 1.524 . S
C2250 C2251 1.397 . S
C2250 C2255 1.363 . S
C2251 H2222 0.950 . S
C2251 C2250 1.397 . S
C2251 C2252 1.334 . S
C2252 H2223 0.950 . S
C2252 C2251 1.334 . S
C2252 C2253 1.287 . S
C2253 C2252 1.287 . S
C2253 C2254 1.524 . S
C2253 H2256 0.999 . S
C2254 H2224 0.950 . S
C2254 C2253 1.524 . S
C2254 C2255 1.415 . S
C2255 H2225 0.950 . S
C2255 C2250 1.363 . S
C2255 C2254 1.415 . S
H2256 C2253 0.999 . S
H2257 C2238 0.913 . S
H2258 C2276 0.951 . S
H2259 C2278 0.951 . S
H2260 C2280 0.950 . S
H2261 C2281 0.950 . S
H2262 C2283 0.950 . S
H2263 C2286 0.950 . S
H2264 C2287 0.950 . S
H2265 C2289 0.950 . S
H2266 C2290 0.950 . S
H2267 C2291 0.951 . S
H2268 C2293 0.951 . S
H2269 C2295 0.950 . S
H2270 C2296 0.950 . S
H2271 C2298 0.950 . S
H2272 C2301 0.950 . S
H2273 C2302 0.950 . S
H2274 C2304 0.950 . S
H2275 C2305 0.950 . S
C2276 H2258 0.951 . S
C2276 C2277 1.366 . S
C2276 C2278 1.388 . S
C2277 C2276 1.366 . S
C2277 C2281 1.385 . S
C2278 H2259 0.951 . S
C2278 C2276 1.388 . S
C2278 C2279 1.366 . S
C2279 C2278 1.366 . S
C2279 C2280 1.414 . S
C2279 C2282 1.499 . S
C2280 H2260 0.950 . S
C2280 C2279 1.414 . S
C2280 C2281 1.374 . S
C2281 H2261 0.950 . S
C2281 C2277 1.385 . S
C2281 C2280 1.374 . S
C2282 C2279 1.499 . S
C2282 C2283 1.373 . S
C2282 C2284 1.389 . S
C2283 H2262 0.950 . S
C2283 C2282 1.373 . S
C2283 C2299 1.377 . S
C2284 C2282 1.389 . S
C2284 C2285 1.524 . S
C2284 C2298 1.377 . S
C2285 C2284 1.524 . S
C2285 C2286 1.397 . S
C2285 C2290 1.363 . S
C2286 H2263 0.950 . S
C2286 C2285 1.397 . S
C2286 C2287 1.334 . S
C2287 H2264 0.950 . S
C2287 C2286 1.334 . S
C2287 C2288 1.287 . S
C2288 C2287 1.287 . S
C2288 C2289 1.524 . S
C2288 H2307 0.913 . S
C2289 H2265 0.950 . S
C2289 C2288 1.524 . S
C2289 C2290 1.415 . S
C2290 H2266 0.950 . S
C2290 C2285 1.363 . S
C2290 C2289 1.415 . S
C2291 H2267 0.951 . S
C2291 C2292 1.366 . S
C2291 C2293 1.388 . S
C2292 C2291 1.366 . S
C2292 C2296 1.385 . S
C2293 H2268 0.951 . S
C2293 C2291 1.388 . S
C2293 C2294 1.366 . S
C2294 C2293 1.366 . S
C2294 C2295 1.414 . S
C2294 C2297 1.499 . S
C2295 H2269 0.950 . S
C2295 C2294 1.414 . S
C2295 C2296 1.374 . S
C2296 H2270 0.950 . S
C2296 C2292 1.385 . S
C2296 C2295 1.374 . S
C2297 C2294 1.499 . S
C2297 C2298 1.373 . S
C2297 C2299 1.389 . S
C2298 H2271 0.950 . S
C2298 C2284 1.377 . S
C2298 C2297 1.373 . S
C2299 C2283 1.377 . S
C2299 C2297 1.389 . S
C2299 C2300 1.524 . S
C2300 C2299 1.524 . S
C2300 C2301 1.397 . S
C2300 C2305 1.363 . S
C2301 H2272 0.950 . S
C2301 C2300 1.397 . S
C2301 C2302 1.334 . S
C2302 H2273 0.950 . S
C2302 C2301 1.334 . S
C2302 C2303 1.287 . S
C2303 C2302 1.287 . S
C2303 C2304 1.524 . S
C2303 H2306 0.999 . S
C2304 H2274 0.950 . S
C2304 C2303 1.524 . S
C2304 C2305 1.415 . S
C2305 H2275 0.950 . S
C2305 C2300 1.363 . S
C2305 C2304 1.415 . S
H2306 C2303 0.999 . S
H2307 C2288 0.913 . S
H2308 C2326 0.951 . S
H2309 C2328 0.951 . S
H2310 C2330 0.950 . S
H2311 C2331 0.950 . S
H2312 C2333 0.950 . S
H2313 C2336 0.950 . S
H2314 C2337 0.950 . S
H2315 C2339 0.950 . S
H2316 C2340 0.950 . S
H2317 C2341 0.951 . S
H2318 C2343 0.951 . S
H2319 C2345 0.950 . S
H2320 C2346 0.950 . S
H2321 C2348 0.950 . S
H2322 C2351 0.950 . S
H2323 C2352 0.950 . S
H2324 C2354 0.950 . S
H2325 C2355 0.950 . S
C2326 H2308 0.951 . S
C2326 C2327 1.366 . S
C2326 C2328 1.388 . S
C2327 C2326 1.366 . S
C2327 C2331 1.385 . S
C2328 H2309 0.951 . S
C2328 C2326 1.388 . S
C2328 C2329 1.366 . S
C2329 C2328 1.366 . S
C2329 C2330 1.414 . S
C2329 C2332 1.499 . S
C2330 H2310 0.950 . S
C2330 C2329 1.414 . S
C2330 C2331 1.374 . S
C2331 H2311 0.950 . S
C2331 C2327 1.385 . S
C2331 C2330 1.374 . S
C2332 C2329 1.499 . S
C2332 C2333 1.373 . S
C2332 C2334 1.389 . S
C2333 H2312 0.950 . S
C2333 C2332 1.373 . S
C2333 C2349 1.377 . S
C2334 C2332 1.389 . S
C2334 C2335 1.524 . S
C2334 C2348 1.377 . S
C2335 C2334 1.524 . S
C2335 C2336 1.397 . S
C2335 C2340 1.363 . S
C2336 H2313 0.950 . S
C2336 C2335 1.397 . S
C2336 C2337 1.334 . S
C2337 H2314 0.950 . S
C2337 C2336 1.334 . S
C2337 C2338 1.287 . S
C2338 C2337 1.287 . S
C2338 C2339 1.524 . S
C2338 H2357 0.913 . S
C2339 H2315 0.950 . S
C2339 C2338 1.524 . S
C2339 C2340 1.415 . S
C2340 H2316 0.950 . S
C2340 C2335 1.363 . S
C2340 C2339 1.415 . S
C2341 H2317 0.951 . S
C2341 C2342 1.366 . S
C2341 C2343 1.388 . S
C2342 C2341 1.366 . S
C2342 C2346 1.385 . S
C2343 H2318 0.951 . S
C2343 C2341 1.388 . S
C2343 C2344 1.366 . S
C2344 C2343 1.366 . S
C2344 C2345 1.414 . S
C2344 C2347 1.499 . S
C2345 H2319 0.950 . S
C2345 C2344 1.414 . S
C2345 C2346 1.374 . S
C2346 H2320 0.950 . S
C2346 C2342 1.385 . S
C2346 C2345 1.374 . S
C2347 C2344 1.499 . S
C2347 C2348 1.373 . S
C2347 C2349 1.389 . S
C2348 H2321 0.950 . S
C2348 C2334 1.377 . S
C2348 C2347 1.373 . S
C2349 C2333 1.377 . S
C2349 C2347 1.389 . S
C2349 C2350 1.524 . S
C2350 C2349 1.524 . S
C2350 C2351 1.397 . S
C2350 C2355 1.363 . S
C2351 H2322 0.950 . S
C2351 C2350 1.397 . S
C2351 C2352 1.334 . S
C2352 H2323 0.950 . S
C2352 C2351 1.334 . S
C2352 C2353 1.287 . S
C2353 C2352 1.287 . S
C2353 C2354 1.524 . S
C2353 H2356 0.999 . S
C2354 H2324 0.950 . S
C2354 C2353 1.524 . S
C2354 C2355 1.415 . S
C2355 H2325 0.950 . S
C2355 C2350 1.363 . S
C2355 C2354 1.415 . S
H2356 C2353 0.999 . S
H2357 C2338 0.913 . S
H2358 C2376 0.951 . S
H2359 C2378 0.951 . S
H2360 C2380 0.950 . S
H2361 C2381 0.950 . S
H2362 C2383 0.950 . S
H2363 C2386 0.950 . S
H2364 C2387 0.950 . S
H2365 C2389 0.950 1_556 S
H2366 C2390 0.950 . S
H2367 C2391 0.951 . S
H2368 C2393 0.951 . S
H2369 C2395 0.950 . S
H2370 C2396 0.950 . S
H2371 C2398 0.950 . S
H2372 C2401 0.950 . S
H2373 C2402 0.950 . S
H2374 C2404 0.950 . S
H2375 C2405 0.950 . S
C2376 H2358 0.951 . S
C2376 C2377 1.366 . S
C2376 C2378 1.388 . S
C2377 C2376 1.366 . S
C2377 C2381 1.385 . S
C2378 H2359 0.951 . S
C2378 C2376 1.388 . S
C2378 C2379 1.366 . S
C2379 C2378 1.366 . S
C2379 C2380 1.414 . S
C2379 C2382 1.499 . S
C2380 H2360 0.950 . S
C2380 C2379 1.414 . S
C2380 C2381 1.374 . S
C2381 H2361 0.950 . S
C2381 C2377 1.385 . S
C2381 C2380 1.374 . S
C2382 C2379 1.499 . S
C2382 C2383 1.373 . S
C2382 C2384 1.389 . S
C2383 H2362 0.950 . S
C2383 C2382 1.373 . S
C2383 C2399 1.377 . S
C2384 C2382 1.389 . S
C2384 C2385 1.524 . S
C2384 C2398 1.377 . S
C2385 C2384 1.524 . S
C2385 C2386 1.397 . S
C2385 C2390 1.363 . S
C2386 H2363 0.950 . S
C2386 C2385 1.397 . S
C2386 C2387 1.334 . S
C2387 H2364 0.950 . S
C2387 C2386 1.334 . S
C2387 C2388 1.287 . S
C2388 C2387 1.287 . S
C2388 C2389 1.524 . S
C2388 H2407 0.913 1_554 S
C2389 H2365 0.950 1_554 S
C2389 C2388 1.524 . S
C2389 C2390 1.415 . S
C2390 H2366 0.950 . S
C2390 C2385 1.363 . S
C2390 C2389 1.415 . S
C2391 H2367 0.951 . S
C2391 C2392 1.366 . S
C2391 C2393 1.388 . S
C2392 C2391 1.366 . S
C2392 C2396 1.385 . S
C2393 H2368 0.951 . S
C2393 C2391 1.388 . S
C2393 C2394 1.366 . S
C2394 C2393 1.366 . S
C2394 C2395 1.414 . S
C2394 C2397 1.499 . S
C2395 H2369 0.950 . S
C2395 C2394 1.414 . S
C2395 C2396 1.374 . S
C2396 H2370 0.950 . S
C2396 C2392 1.385 . S
C2396 C2395 1.374 . S
C2397 C2394 1.499 . S
C2397 C2398 1.373 . S
C2397 C2399 1.389 . S
C2398 H2371 0.950 . S
C2398 C2384 1.377 . S
C2398 C2397 1.373 . S
C2399 C2383 1.377 . S
C2399 C2397 1.389 . S
C2399 C2400 1.524 . S
C2400 C2399 1.524 . S
C2400 C2401 1.397 . S
C2400 C2405 1.363 . S
C2401 H2372 0.950 . S
C2401 C2400 1.397 . S
C2401 C2402 1.334 . S
C2402 H2373 0.950 . S
C2402 C2401 1.334 . S
C2402 C2403 1.287 . S
C2403 C2402 1.287 . S
C2403 C2404 1.524 . S
C2403 H2406 0.999 . S
C2404 H2374 0.950 . S
C2404 C2403 1.524 . S
C2404 C2405 1.415 . S
C2405 H2375 0.950 . S
C2405 C2400 1.363 . S
C2405 C2404 1.415 . S
H2406 C2403 0.999 . S
H2407 C2388 0.913 1_556 S
H2408 C2426 0.951 . S
H2409 C2428 0.951 . S
H2410 C2430 0.950 . S
H2411 C2431 0.950 . S
H2412 C2433 0.950 . S
H2413 C2436 0.950 . S
H2414 C2437 0.950 . S
H2415 C2439 0.950 . S
H2416 C2440 0.950 . S
H2417 C2441 0.951 . S
H2418 C2443 0.951 . S
H2419 C2445 0.950 . S
H2420 C2446 0.950 . S
H2421 C2448 0.950 . S
H2422 C2451 0.950 . S
H2423 C2452 0.950 . S
H2424 C2454 0.950 . S
H2425 C2455 0.950 . S
C2426 H2408 0.951 . S
C2426 C2427 1.366 . S
C2426 C2428 1.388 . S
C2427 C2426 1.366 . S
C2427 C2431 1.385 . S
C2428 H2409 0.951 . S
C2428 C2426 1.388 . S
C2428 C2429 1.366 . S
C2429 C2428 1.366 . S
C2429 C2430 1.414 . S
C2429 C2432 1.499 . S
C2430 H2410 0.950 . S
C2430 C2429 1.414 . S
C2430 C2431 1.374 . S
C2431 H2411 0.950 . S
C2431 C2427 1.385 . S
C2431 C2430 1.374 . S
C2432 C2429 1.499 . S
C2432 C2433 1.373 . S
C2432 C2434 1.389 . S
C2433 H2412 0.950 . S
C2433 C2432 1.373 . S
C2433 C2449 1.377 . S
C2434 C2432 1.389 . S
C2434 C2435 1.524 . S
C2434 C2448 1.377 . S
C2435 C2434 1.524 . S
C2435 C2436 1.397 . S
C2435 C2440 1.363 . S
C2436 H2413 0.950 . S
C2436 C2435 1.397 . S
C2436 C2437 1.334 . S
C2437 H2414 0.950 . S
C2437 C2436 1.334 . S
C2437 C2438 1.287 . S
C2438 C2437 1.287 . S
C2438 C2439 1.524 . S
C2438 H2457 0.913 . S
C2439 H2415 0.950 . S
C2439 C2438 1.524 . S
C2439 C2440 1.415 . S
C2440 H2416 0.950 . S
C2440 C2435 1.363 . S
C2440 C2439 1.415 . S
C2441 H2417 0.951 . S
C2441 C2442 1.366 . S
C2441 C2443 1.388 . S
C2442 C2441 1.366 . S
C2442 C2446 1.385 . S
C2443 H2418 0.951 . S
C2443 C2441 1.388 . S
C2443 C2444 1.366 . S
C2444 C2443 1.366 . S
C2444 C2445 1.414 . S
C2444 C2447 1.499 . S
C2445 H2419 0.950 . S
C2445 C2444 1.414 . S
C2445 C2446 1.374 . S
C2446 H2420 0.950 . S
C2446 C2442 1.385 . S
C2446 C2445 1.374 . S
C2447 C2444 1.499 . S
C2447 C2448 1.373 . S
C2447 C2449 1.389 . S
C2448 H2421 0.950 . S
C2448 C2434 1.377 . S
C2448 C2447 1.373 . S
C2449 C2433 1.377 . S
C2449 C2447 1.389 . S
C2449 C2450 1.524 . S
C2450 C2449 1.524 . S
C2450 C2451 1.397 . S
C2450 C2455 1.363 . S
C2451 H2422 0.950 . S
C2451 C2450 1.397 . S
C2451 C2452 1.334 . S
C2452 H2423 0.950 . S
C2452 C2451 1.334 . S
C2452 C2453 1.287 . S
C2453 C2452 1.287 . S
C2453 C2454 1.524 . S
C2453 H2456 0.999 . S
C2454 H2424 0.950 . S
C2454 C2453 1.524 . S
C2454 C2455 1.415 . S
C2455 H2425 0.950 . S
C2455 C2450 1.363 . S
C2455 C2454 1.415 . S
H2456 C2453 0.999 . S
H2457 C2438 0.913 . S
H2458 C2476 0.951 . S
H2459 C2478 0.951 . S
H2460 C2480 0.950 . S
H2461 C2481 0.950 . S
H2462 C2483 0.950 . S
H2463 C2486 0.950 . S
H2464 C2487 0.950 . S
H2465 C2489 0.950 . S
H2466 C2490 0.950 . S
H2467 C2491 0.951 . S
H2468 C2493 0.951 . S
H2469 C2495 0.950 . S
H2470 C2496 0.950 . S
H2471 C2498 0.950 . S
H2472 C2501 0.950 . S
H2473 C2502 0.950 . S
H2474 C2504 0.950 . S
H2475 C2505 0.950 . S
C2476 H2458 0.951 . S
C2476 C2477 1.366 . S
C2476 C2478 1.388 . S
C2477 C2476 1.366 . S
C2477 C2481 1.385 . S
C2478 H2459 0.951 . S
C2478 C2476 1.388 . S
C2478 C2479 1.366 . S
C2479 C2478 1.366 . S
C2479 C2480 1.414 . S
C2479 C2482 1.499 . S
C2480 H2460 0.950 . S
C2480 C2479 1.414 . S
C2480 C2481 1.374 . S
C2481 H2461 0.950 . S
C2481 C2477 1.385 . S
C2481 C2480 1.374 . S
C2482 C2479 1.499 . S
C2482 C2483 1.373 . S
C2482 C2484 1.389 . S
C2483 H2462 0.950 . S
C2483 C2482 1.373 . S
C2483 C2499 1.377 . S
C2484 C2482 1.389 . S
C2484 C2485 1.524 . S
C2484 C2498 1.377 . S
C2485 C2484 1.524 . S
C2485 C2486 1.397 . S
C2485 C2490 1.363 . S
C2486 H2463 0.950 . S
C2486 C2485 1.397 . S
C2486 C2487 1.334 . S
C2487 H2464 0.950 . S
C2487 C2486 1.334 . S
C2487 C2488 1.287 . S
C2488 C2487 1.287 . S
C2488 C2489 1.524 . S
C2488 H2507 0.913 . S
C2489 H2465 0.950 . S
C2489 C2488 1.524 . S
C2489 C2490 1.415 . S
C2490 H2466 0.950 . S
C2490 C2485 1.363 . S
C2490 C2489 1.415 . S
C2491 H2467 0.951 . S
C2491 C2492 1.366 . S
C2491 C2493 1.388 . S
C2492 C2491 1.366 . S
C2492 C2496 1.385 . S
C2493 H2468 0.951 . S
C2493 C2491 1.388 . S
C2493 C2494 1.366 . S
C2494 C2493 1.366 . S
C2494 C2495 1.414 . S
C2494 C2497 1.499 . S
C2495 H2469 0.950 . S
C2495 C2494 1.414 . S
C2495 C2496 1.374 . S
C2496 H2470 0.950 . S
C2496 C2492 1.385 . S
C2496 C2495 1.374 . S
C2497 C2494 1.499 . S
C2497 C2498 1.373 . S
C2497 C2499 1.389 . S
C2498 H2471 0.950 . S
C2498 C2484 1.377 . S
C2498 C2497 1.373 . S
C2499 C2483 1.377 . S
C2499 C2497 1.389 . S
C2499 C2500 1.524 . S
C2500 C2499 1.524 . S
C2500 C2501 1.397 . S
C2500 C2505 1.363 . S
C2501 H2472 0.950 . S
C2501 C2500 1.397 . S
C2501 C2502 1.334 . S
C2502 H2473 0.950 . S
C2502 C2501 1.334 . S
C2502 C2503 1.287 . S
C2503 C2502 1.287 . S
C2503 C2504 1.524 . S
C2503 H2506 0.999 . S
C2504 H2474 0.950 . S
C2504 C2503 1.524 . S
C2504 C2505 1.415 . S
C2505 H2475 0.950 . S
C2505 C2500 1.363 . S
C2505 C2504 1.415 . S
H2506 C2503 0.999 . S
H2507 C2488 0.913 . S
H2508 C2526 0.951 . S
H2509 C2528 0.951 . S
H2510 C2530 0.950 . S
H2511 C2531 0.950 . S
H2512 C2533 0.950 . S
H2513 C2536 0.950 . S
H2514 C2537 0.950 . S
H2515 C2539 0.950 . S
H2516 C2540 0.950 . S
H2517 C2541 0.951 . S
H2518 C2543 0.951 . S
H2519 C2545 0.950 . S
H2520 C2546 0.950 . S
H2521 C2548 0.950 . S
H2522 C2551 0.950 . S
H2523 C2552 0.950 . S
H2524 C2554 0.950 . S
H2525 C2555 0.950 . S
C2526 H2508 0.951 . S
C2526 C2527 1.366 . S
C2526 C2528 1.388 . S
C2527 C2526 1.366 . S
C2527 C2531 1.385 . S
C2528 H2509 0.951 . S
C2528 C2526 1.388 . S
C2528 C2529 1.366 . S
C2529 C2528 1.366 . S
C2529 C2530 1.414 . S
C2529 C2532 1.499 . S
C2530 H2510 0.950 . S
C2530 C2529 1.414 . S
C2530 C2531 1.374 . S
C2531 H2511 0.950 . S
C2531 C2527 1.385 . S
C2531 C2530 1.374 . S
C2532 C2529 1.499 . S
C2532 C2533 1.373 . S
C2532 C2534 1.389 . S
C2533 H2512 0.950 . S
C2533 C2532 1.373 . S
C2533 C2549 1.377 . S
C2534 C2532 1.389 . S
C2534 C2535 1.524 . S
C2534 C2548 1.377 . S
C2535 C2534 1.524 . S
C2535 C2536 1.397 . S
C2535 C2540 1.363 . S
C2536 H2513 0.950 . S
C2536 C2535 1.397 . S
C2536 C2537 1.334 . S
C2537 H2514 0.950 . S
C2537 C2536 1.334 . S
C2537 C2538 1.287 . S
C2538 C2537 1.287 . S
C2538 C2539 1.524 . S
C2538 H2557 0.913 . S
C2539 H2515 0.950 . S
C2539 C2538 1.524 . S
C2539 C2540 1.415 . S
C2540 H2516 0.950 . S
C2540 C2535 1.363 . S
C2540 C2539 1.415 . S
C2541 H2517 0.951 . S
C2541 C2542 1.366 . S
C2541 C2543 1.388 . S
C2542 C2541 1.366 . S
C2542 C2546 1.385 . S
C2543 H2518 0.951 . S
C2543 C2541 1.388 . S
C2543 C2544 1.366 . S
C2544 C2543 1.366 . S
C2544 C2545 1.414 . S
C2544 C2547 1.499 . S
C2545 H2519 0.950 . S
C2545 C2544 1.414 . S
C2545 C2546 1.374 . S
C2546 H2520 0.950 . S
C2546 C2542 1.385 . S
C2546 C2545 1.374 . S
C2547 C2544 1.499 . S
C2547 C2548 1.373 . S
C2547 C2549 1.389 . S
C2548 H2521 0.950 . S
C2548 C2534 1.377 . S
C2548 C2547 1.373 . S
C2549 C2533 1.377 . S
C2549 C2547 1.389 . S
C2549 C2550 1.524 . S
C2550 C2549 1.524 . S
C2550 C2551 1.397 . S
C2550 C2555 1.363 . S
C2551 H2522 0.950 . S
C2551 C2550 1.397 . S
C2551 C2552 1.334 . S
C2552 H2523 0.950 . S
C2552 C2551 1.334 . S
C2552 C2553 1.287 . S
C2553 C2552 1.287 . S
C2553 C2554 1.524 . S
C2553 H2556 0.999 . S
C2554 H2524 0.950 . S
C2554 C2553 1.524 . S
C2554 C2555 1.415 . S
C2555 H2525 0.950 . S
C2555 C2550 1.363 . S
C2555 C2554 1.415 . S
H2556 C2553 0.999 . S
H2557 C2538 0.913 . S
H2558 C2576 0.951 1_554 S
H2559 C2578 0.951 . S
H2560 C2580 0.950 . S
H2561 C2581 0.950 . S
H2562 C2583 0.950 . S
H2563 C2586 0.950 . S
H2564 C2587 0.950 . S
H2565 C2589 0.950 . S
H2566 C2590 0.950 . S
H2567 C2591 0.951 . S
H2568 C2593 0.951 . S
H2569 C2595 0.950 . S
H2570 C2596 0.950 . S
H2571 C2598 0.950 . S
H2572 C2601 0.950 . S
H2573 C2602 0.950 . S
H2574 C2604 0.950 . S
H2575 C2605 0.950 . S
C2576 H2558 0.951 1_556 S
C2576 C2577 1.366 . S
C2576 C2578 1.388 . S
C2577 C2576 1.366 . S
C2577 C2581 1.385 . S
C2578 H2559 0.951 . S
C2578 C2576 1.388 . S
C2578 C2579 1.366 . S
C2579 C2578 1.366 . S
C2579 C2580 1.414 . S
C2579 C2582 1.499 . S
C2580 H2560 0.950 . S
C2580 C2579 1.414 . S
C2580 C2581 1.374 . S
C2581 H2561 0.950 . S
C2581 C2577 1.385 . S
C2581 C2580 1.374 . S
C2582 C2579 1.499 . S
C2582 C2583 1.373 . S
C2582 C2584 1.389 . S
C2583 H2562 0.950 . S
C2583 C2582 1.373 . S
C2583 C2599 1.377 . S
C2584 C2582 1.389 . S
C2584 C2585 1.524 . S
C2584 C2598 1.377 . S
C2585 C2584 1.524 . S
C2585 C2586 1.397 . S
C2585 C2590 1.363 . S
C2586 H2563 0.950 . S
C2586 C2585 1.397 . S
C2586 C2587 1.334 . S
C2587 H2564 0.950 . S
C2587 C2586 1.334 . S
C2587 C2588 1.287 . S
C2588 C2587 1.287 . S
C2588 C2589 1.524 . S
C2588 H2607 0.913 . S
C2589 H2565 0.950 . S
C2589 C2588 1.524 . S
C2589 C2590 1.415 . S
C2590 H2566 0.950 . S
C2590 C2585 1.363 . S
C2590 C2589 1.415 . S
C2591 H2567 0.951 . S
C2591 C2592 1.366 . S
C2591 C2593 1.388 . S
C2592 C2591 1.366 . S
C2592 C2596 1.385 . S
C2593 H2568 0.951 . S
C2593 C2591 1.388 . S
C2593 C2594 1.366 . S
C2594 C2593 1.366 . S
C2594 C2595 1.414 . S
C2594 C2597 1.499 . S
C2595 H2569 0.950 . S
C2595 C2594 1.414 . S
C2595 C2596 1.374 . S
C2596 H2570 0.950 . S
C2596 C2592 1.385 . S
C2596 C2595 1.374 . S
C2597 C2594 1.499 . S
C2597 C2598 1.373 . S
C2597 C2599 1.389 . S
C2598 H2571 0.950 . S
C2598 C2584 1.377 . S
C2598 C2597 1.373 . S
C2599 C2583 1.377 . S
C2599 C2597 1.389 . S
C2599 C2600 1.524 . S
C2600 C2599 1.524 . S
C2600 C2601 1.397 . S
C2600 C2605 1.363 . S
C2601 H2572 0.950 . S
C2601 C2600 1.397 . S
C2601 C2602 1.334 . S
C2602 H2573 0.950 . S
C2602 C2601 1.334 . S
C2602 C2603 1.287 . S
C2603 C2602 1.287 . S
C2603 C2604 1.524 . S
C2603 H2606 0.999 . S
C2604 H2574 0.950 . S
C2604 C2603 1.524 . S
C2604 C2605 1.415 . S
C2605 H2575 0.950 . S
C2605 C2600 1.363 . S
C2605 C2604 1.415 . S
H2606 C2603 0.999 . S
H2607 C2588 0.913 . S
H2608 C2626 0.951 1_554 S
H2609 C2628 0.951 . S
H2610 C2630 0.950 . S
H2611 C2631 0.950 . S
H2612 C2633 0.950 . S
H2613 C2636 0.950 . S
H2614 C2637 0.950 . S
H2615 C2639 0.950 . S
H2616 C2640 0.950 . S
H2617 C2641 0.951 . S
H2618 C2643 0.951 . S
H2619 C2645 0.950 . S
H2620 C2646 0.950 . S
H2621 C2648 0.950 . S
H2622 C2651 0.950 . S
H2623 C2652 0.950 . S
H2624 C2654 0.950 . S
H2625 C2655 0.950 . S
C2626 H2608 0.951 1_556 S
C2626 C2627 1.366 . S
C2626 C2628 1.388 . S
C2627 C2626 1.366 . S
C2627 C2631 1.385 . S
C2628 H2609 0.951 . S
C2628 C2626 1.388 . S
C2628 C2629 1.366 . S
C2629 C2628 1.366 . S
C2629 C2630 1.414 . S
C2629 C2632 1.499 . S
C2630 H2610 0.950 . S
C2630 C2629 1.414 . S
C2630 C2631 1.374 . S
C2631 H2611 0.950 . S
C2631 C2627 1.385 . S
C2631 C2630 1.374 . S
C2632 C2629 1.499 . S
C2632 C2633 1.373 . S
C2632 C2634 1.389 . S
C2633 H2612 0.950 . S
C2633 C2632 1.373 . S
C2633 C2649 1.377 . S
C2634 C2632 1.389 . S
C2634 C2635 1.524 . S
C2634 C2648 1.377 . S
C2635 C2634 1.524 . S
C2635 C2636 1.397 . S
C2635 C2640 1.363 1_556 S
C2636 H2613 0.950 . S
C2636 C2635 1.397 . S
C2636 C2637 1.334 . S
C2637 H2614 0.950 . S
C2637 C2636 1.334 . S
C2637 C2638 1.287 1_556 S
C2638 C2637 1.287 1_554 S
C2638 C2639 1.524 . S
C2638 H2657 0.913 . S
C2639 H2615 0.950 . S
C2639 C2638 1.524 . S
C2639 C2640 1.415 . S
C2640 H2616 0.950 . S
C2640 C2635 1.363 1_554 S
C2640 C2639 1.415 . S
C2641 H2617 0.951 . S
C2641 C2642 1.366 . S
C2641 C2643 1.388 . S
C2642 C2641 1.366 . S
C2642 C2646 1.385 . S
C2643 H2618 0.951 . S
C2643 C2641 1.388 . S
C2643 C2644 1.366 . S
C2644 C2643 1.366 . S
C2644 C2645 1.414 . S
C2644 C2647 1.499 . S
C2645 H2619 0.950 . S
C2645 C2644 1.414 . S
C2645 C2646 1.374 . S
C2646 H2620 0.950 . S
C2646 C2642 1.385 . S
C2646 C2645 1.374 . S
C2647 C2644 1.499 . S
C2647 C2648 1.373 . S
C2647 C2649 1.389 . S
C2648 H2621 0.950 . S
C2648 C2634 1.377 . S
C2648 C2647 1.373 . S
C2649 C2633 1.377 . S
C2649 C2647 1.389 . S
C2649 C2650 1.524 . S
C2650 C2649 1.524 . S
C2650 C2651 1.397 . S
C2650 C2655 1.363 . S
C2651 H2622 0.950 . S
C2651 C2650 1.397 . S
C2651 C2652 1.334 . S
C2652 H2623 0.950 . S
C2652 C2651 1.334 . S
C2652 C2653 1.287 . S
C2653 C2652 1.287 . S
C2653 C2654 1.524 . S
C2653 H2656 0.999 . S
C2654 H2624 0.950 . S
C2654 C2653 1.524 . S
C2654 C2655 1.415 . S
C2655 H2625 0.950 . S
C2655 C2650 1.363 . S
C2655 C2654 1.415 . S
H2656 C2653 0.999 . S
H2657 C2638 0.913 . S
H2658 C2676 0.951 1_554 S
H2659 C2678 0.951 . S
H2660 C2680 0.950 . S
H2661 C2681 0.950 . S
H2662 C2683 0.950 . S
H2663 C2686 0.950 . S
H2664 C2687 0.950 . S
H2665 C2689 0.950 . S
H2666 C2690 0.950 . S
H2667 C2691 0.951 . S
H2668 C2693 0.951 . S
H2669 C2695 0.950 . S
H2670 C2696 0.950 . S
H2671 C2698 0.950 . S
H2672 C2701 0.950 . S
H2673 C2702 0.950 . S
H2674 C2704 0.950 . S
H2675 C2705 0.950 . S
C2676 H2658 0.951 1_556 S
C2676 C2677 1.366 . S
C2676 C2678 1.388 . S
C2677 C2676 1.366 . S
C2677 C2681 1.385 . S
C2678 H2659 0.951 . S
C2678 C2676 1.388 . S
C2678 C2679 1.366 . S
C2679 C2678 1.366 . S
C2679 C2680 1.414 . S
C2679 C2682 1.499 . S
C2680 H2660 0.950 . S
C2680 C2679 1.414 . S
C2680 C2681 1.374 . S
C2681 H2661 0.950 . S
C2681 C2677 1.385 . S
C2681 C2680 1.374 . S
C2682 C2679 1.499 . S
C2682 C2683 1.373 . S
C2682 C2684 1.389 . S
C2683 H2662 0.950 . S
C2683 C2682 1.373 . S
C2683 C2699 1.377 . S
C2684 C2682 1.389 . S
C2684 C2685 1.524 . S
C2684 C2698 1.377 . S
C2685 C2684 1.524 . S
C2685 C2686 1.397 . S
C2685 C2690 1.363 1_556 S
C2686 H2663 0.950 . S
C2686 C2685 1.397 . S
C2686 C2687 1.334 1_556 S
C2687 H2664 0.950 . S
C2687 C2686 1.334 1_554 S
C2687 C2688 1.287 . S
C2688 C2687 1.287 . S
C2688 C2689 1.524 . S
C2688 H2707 0.913 . S
C2689 H2665 0.950 . S
C2689 C2688 1.524 . S
C2689 C2690 1.415 . S
C2690 H2666 0.950 . S
C2690 C2685 1.363 1_554 S
C2690 C2689 1.415 . S
C2691 H2667 0.951 . S
C2691 C2692 1.366 . S
C2691 C2693 1.388 . S
C2692 C2691 1.366 . S
C2692 C2696 1.385 . S
C2693 H2668 0.951 . S
C2693 C2691 1.388 . S
C2693 C2694 1.366 . S
C2694 C2693 1.366 . S
C2694 C2695 1.414 . S
C2694 C2697 1.499 . S
C2695 H2669 0.950 . S
C2695 C2694 1.414 . S
C2695 C2696 1.374 . S
C2696 H2670 0.950 . S
C2696 C2692 1.385 . S
C2696 C2695 1.374 . S
C2697 C2694 1.499 . S
C2697 C2698 1.373 . S
C2697 C2699 1.389 . S
C2698 H2671 0.950 . S
C2698 C2684 1.377 . S
C2698 C2697 1.373 . S
C2699 C2683 1.377 . S
C2699 C2697 1.389 . S
C2699 C2700 1.524 . S
C2700 C2699 1.524 . S
C2700 C2701 1.397 . S
C2700 C2705 1.363 . S
C2701 H2672 0.950 . S
C2701 C2700 1.397 . S
C2701 C2702 1.334 . S
C2702 H2673 0.950 . S
C2702 C2701 1.334 . S
C2702 C2703 1.287 . S
C2703 C2702 1.287 . S
C2703 C2704 1.524 . S
C2703 H2706 0.999 . S
C2704 H2674 0.950 . S
C2704 C2703 1.524 . S
C2704 C2705 1.415 . S
C2705 H2675 0.950 . S
C2705 C2700 1.363 . S
C2705 C2704 1.415 . S
H2706 C2703 0.999 . S
H2707 C2688 0.913 . S
H2708 C2726 0.951 1_554 S
H2709 C2728 0.951 . S
H2710 C2730 0.950 . S
H2711 C2731 0.950 . S
H2712 C2733 0.950 . S
H2713 C2736 0.950 . S
H2714 C2737 0.950 . S
H2715 C2739 0.950 . S
H2716 C2740 0.950 . S
H2717 C2741 0.951 . S
H2718 C2743 0.951 . S
H2719 C2745 0.950 . S
H2720 C2746 0.950 . S
H2721 C2748 0.950 . S
H2722 C2751 0.950 . S
H2723 C2752 0.950 . S
H2724 C2754 0.950 . S
H2725 C2755 0.950 . S
C2726 H2708 0.951 1_556 S
C2726 C2727 1.366 . S
C2726 C2728 1.388 . S
C2727 C2726 1.366 . S
C2727 C2731 1.385 . S
C2728 H2709 0.951 . S
C2728 C2726 1.388 . S
C2728 C2729 1.366 . S
C2729 C2728 1.366 . S
C2729 C2730 1.414 . S
C2729 C2732 1.499 . S
C2730 H2710 0.950 . S
C2730 C2729 1.414 . S
C2730 C2731 1.374 . S
C2731 H2711 0.950 . S
C2731 C2727 1.385 . S
C2731 C2730 1.374 . S
C2732 C2729 1.499 . S
C2732 C2733 1.373 . S
C2732 C2734 1.389 . S
C2733 H2712 0.950 . S
C2733 C2732 1.373 . S
C2733 C2749 1.377 . S
C2734 C2732 1.389 . S
C2734 C2735 1.524 . S
C2734 C2748 1.377 . S
C2735 C2734 1.524 . S
C2735 C2736 1.397 . S
C2735 C2740 1.363 . S
C2736 H2713 0.950 . S
C2736 C2735 1.397 . S
C2736 C2737 1.334 . S
C2737 H2714 0.950 . S
C2737 C2736 1.334 . S
C2737 C2738 1.287 1_556 S
C2738 C2737 1.287 1_554 S
C2738 C2739 1.524 . S
C2738 H2757 0.913 . S
C2739 H2715 0.950 . S
C2739 C2738 1.524 . S
C2739 C2740 1.415 1_554 S
C2740 H2716 0.950 . S
C2740 C2735 1.363 . S
C2740 C2739 1.415 1_556 S
C2741 H2717 0.951 . S
C2741 C2742 1.366 . S
C2741 C2743 1.388 . S
C2742 C2741 1.366 . S
C2742 C2746 1.385 . S
C2743 H2718 0.951 . S
C2743 C2741 1.388 . S
C2743 C2744 1.366 . S
C2744 C2743 1.366 . S
C2744 C2745 1.414 . S
C2744 C2747 1.499 . S
C2745 H2719 0.950 . S
C2745 C2744 1.414 . S
C2745 C2746 1.374 . S
C2746 H2720 0.950 . S
C2746 C2742 1.385 . S
C2746 C2745 1.374 . S
C2747 C2744 1.499 . S
C2747 C2748 1.373 . S
C2747 C2749 1.389 . S
C2748 H2721 0.950 . S
C2748 C2734 1.377 . S
C2748 C2747 1.373 . S
C2749 C2733 1.377 . S
C2749 C2747 1.389 . S
C2749 C2750 1.524 . S
C2750 C2749 1.524 . S
C2750 C2751 1.397 . S
C2750 C2755 1.363 . S
C2751 H2722 0.950 . S
C2751 C2750 1.397 . S
C2751 C2752 1.334 . S
C2752 H2723 0.950 . S
C2752 C2751 1.334 . S
C2752 C2753 1.287 . S
C2753 C2752 1.287 . S
C2753 C2754 1.524 . S
C2753 H2756 0.999 . S
C2754 H2724 0.950 . S
C2754 C2753 1.524 . S
C2754 C2755 1.415 . S
C2755 H2725 0.950 . S
C2755 C2750 1.363 . S
C2755 C2754 1.415 . S
H2756 C2753 0.999 . S
H2757 C2738 0.913 . S
H2758 C2776 0.954 . S
H2759 C2778 0.951 . S
H2760 C2780 0.950 . S
H2761 C2781 0.950 . S
H2762 C2783 0.950 . S
H2763 C2786 0.950 1_556 S
H2764 C2787 0.950 . S
H2765 C2789 0.950 . S
H2766 C2790 0.950 1_556 S
H2767 C2791 0.951 . S
H2768 C2793 0.951 . S
H2769 C2795 0.950 . S
H2770 C2796 0.950 . S
H2771 C2798 0.950 . S
H2772 C2801 0.950 . S
H2773 C2802 0.950 . S
H2774 C2804 0.950 . S
H2775 C2805 0.950 . S
C2776 H2758 0.954 . S
C2776 C2777 1.366 . S
C2776 C2778 1.388 . S
C2777 C2776 1.366 . S
C2777 C2781 1.385 . S
C2778 H2759 0.951 . S
C2778 C2776 1.388 . S
C2778 C2779 1.366 . S
C2779 C2778 1.366 . S
C2779 C2780 1.414 . S
C2779 C2782 1.499 . S
C2780 H2760 0.950 . S
C2780 C2779 1.414 . S
C2780 C2781 1.374 . S
C2781 H2761 0.950 . S
C2781 C2777 1.385 . S
C2781 C2780 1.374 . S
C2782 C2779 1.499 . S
C2782 C2783 1.373 . S
C2782 C2784 1.389 . S
C2783 H2762 0.950 . S
C2783 C2782 1.373 . S
C2783 C2799 1.377 . S
C2784 C2782 1.389 . S
C2784 C2785 1.524 . S
C2784 C2798 1.377 . S
C2785 C2784 1.524 . S
C2785 C2786 1.397 1_556 S
C2785 C2790 1.363 1_556 S
C2786 H2763 0.950 1_554 S
C2786 C2785 1.397 1_554 S
C2786 C2787 1.334 . S
C2787 H2764 0.950 . S
C2787 C2786 1.334 . S
C2787 C2788 1.287 . S
C2788 C2787 1.287 . S
C2788 C2789 1.524 . S
C2788 H2807 0.913 . S
C2789 H2765 0.950 . S
C2789 C2788 1.524 . S
C2789 C2790 1.415 . S
C2790 H2766 0.950 1_554 S
C2790 C2785 1.363 1_554 S
C2790 C2789 1.415 . S
C2791 H2767 0.951 . S
C2791 C2792 1.366 . S
C2791 C2793 1.388 . S
C2792 C2791 1.366 . S
C2792 C2796 1.385 . S
C2793 H2768 0.951 . S
C2793 C2791 1.388 . S
C2793 C2794 1.366 . S
C2794 C2793 1.366 . S
C2794 C2795 1.414 . S
C2794 C2797 1.499 . S
C2795 H2769 0.950 . S
C2795 C2794 1.414 . S
C2795 C2796 1.374 . S
C2796 H2770 0.950 . S
C2796 C2792 1.385 . S
C2796 C2795 1.374 . S
C2797 C2794 1.499 . S
C2797 C2798 1.373 . S
C2797 C2799 1.389 . S
C2798 H2771 0.950 . S
C2798 C2784 1.377 . S
C2798 C2797 1.373 . S
C2799 C2783 1.377 . S
C2799 C2797 1.389 . S
C2799 C2800 1.524 . S
C2800 C2799 1.524 . S
C2800 C2801 1.397 . S
C2800 C2805 1.363 . S
C2801 H2772 0.950 . S
C2801 C2800 1.397 . S
C2801 C2802 1.334 . S
C2802 H2773 0.950 . S
C2802 C2801 1.334 . S
C2802 C2803 1.287 . S
C2803 C2802 1.287 . S
C2803 C2804 1.524 . S
C2803 H2806 0.999 . S
C2804 H2774 0.950 . S
C2804 C2803 1.524 . S
C2804 C2805 1.415 . S
C2805 H2775 0.950 . S
C2805 C2800 1.363 . S
C2805 C2804 1.415 . S
H2806 C2803 0.999 . S
H2807 C2788 0.913 . S
H2808 C2826 0.951 . S
H2809 C2828 0.951 . S
H2810 C2830 0.950 . S
H2811 C2831 0.950 . S
H2812 C2833 0.950 . S
H2813 C2836 0.950 . S
H2814 C2837 0.950 . S
H2815 C2839 0.950 . S
H2816 C2840 0.950 . S
H2817 C2841 0.951 . S
H2818 C2843 0.951 . S
H2819 C2845 0.950 . S
H2820 C2846 0.950 . S
H2821 C2848 0.950 . S
H2822 C2851 0.950 . S
H2823 C2852 0.950 . S
H2824 C2854 0.950 . S
H2825 C2855 0.950 . S
C2826 H2808 0.951 . S
C2826 C2827 1.366 . S
C2826 C2828 1.388 . S
C2827 C2826 1.366 . S
C2827 C2831 1.385 . S
C2828 H2809 0.951 . S
C2828 C2826 1.388 . S
C2828 C2829 1.366 . S
C2829 C2828 1.366 . S
C2829 C2830 1.414 . S
C2829 C2832 1.499 . S
C2830 H2810 0.950 . S
C2830 C2829 1.414 . S
C2830 C2831 1.374 . S
C2831 H2811 0.950 . S
C2831 C2827 1.385 . S
C2831 C2830 1.374 . S
C2832 C2829 1.499 . S
C2832 C2833 1.373 . S
C2832 C2834 1.389 . S
C2833 H2812 0.950 . S
C2833 C2832 1.373 . S
C2833 C2849 1.377 . S
C2834 C2832 1.389 . S
C2834 C2835 1.524 . S
C2834 C2848 1.377 . S
C2835 C2834 1.524 . S
C2835 C2836 1.397 . S
C2835 C2840 1.363 . S
C2836 H2813 0.950 . S
C2836 C2835 1.397 . S
C2836 C2837 1.334 . S
C2837 H2814 0.950 . S
C2837 C2836 1.334 . S
C2837 C2838 1.287 . S
C2838 C2837 1.287 . S
C2838 C2839 1.524 . S
C2838 H2857 0.913 . S
C2839 H2815 0.950 . S
C2839 C2838 1.524 . S
C2839 C2840 1.415 . S
C2840 H2816 0.950 . S
C2840 C2835 1.363 . S
C2840 C2839 1.415 . S
C2841 H2817 0.951 . S
C2841 C2842 1.366 . S
C2841 C2843 1.388 . S
C2842 C2841 1.366 . S
C2842 C2846 1.385 . S
C2843 H2818 0.951 . S
C2843 C2841 1.388 . S
C2843 C2844 1.366 . S
C2844 C2843 1.366 . S
C2844 C2845 1.414 . S
C2844 C2847 1.499 . S
C2845 H2819 0.950 . S
C2845 C2844 1.414 . S
C2845 C2846 1.374 . S
C2846 H2820 0.950 . S
C2846 C2842 1.385 . S
C2846 C2845 1.374 . S
C2847 C2844 1.499 . S
C2847 C2848 1.373 . S
C2847 C2849 1.389 . S
C2848 H2821 0.950 . S
C2848 C2834 1.377 . S
C2848 C2847 1.373 . S
C2849 C2833 1.377 . S
C2849 C2847 1.389 . S
C2849 C2850 1.524 . S
C2850 C2849 1.524 . S
C2850 C2851 1.397 . S
C2850 C2855 1.363 . S
C2851 H2822 0.950 . S
C2851 C2850 1.397 . S
C2851 C2852 1.334 . S
C2852 H2823 0.950 . S
C2852 C2851 1.334 . S
C2852 C2853 1.287 . S
C2853 C2852 1.287 . S
C2853 C2854 1.524 . S
C2853 H2856 0.999 . S
C2854 H2824 0.950 . S
C2854 C2853 1.524 . S
C2854 C2855 1.415 . S
C2855 H2825 0.950 . S
C2855 C2850 1.363 . S
C2855 C2854 1.415 . S
H2856 C2853 0.999 . S
H2857 C2838 0.913 . S
H2858 C2876 0.951 . S
H2859 C2878 0.951 . S
H2860 C2880 0.950 . S
H2861 C2881 0.950 . S
H2862 C2883 0.950 . S
H2863 C2886 0.950 . S
H2864 C2887 0.950 1_556 S
H2865 C2889 0.950 1_556 S
H2866 C2890 0.950 . S
H2867 C2891 0.951 . S
H2868 C2893 0.951 . S
H2869 C2895 0.950 . S
H2870 C2896 0.950 . S
H2871 C2898 0.950 . S
H2872 C2901 0.950 . S
H2873 C2902 0.950 . S
H2874 C2904 0.950 . S
H2875 C2905 0.950 . S
C2876 H2858 0.951 . S
C2876 C2877 1.366 . S
C2876 C2878 1.388 . S
C2877 C2876 1.366 . S
C2877 C2881 1.385 . S
C2878 H2859 0.951 . S
C2878 C2876 1.388 . S
C2878 C2879 1.366 . S
C2879 C2878 1.366 . S
C2879 C2880 1.414 . S
C2879 C2882 1.499 . S
C2880 H2860 0.950 . S
C2880 C2879 1.414 . S
C2880 C2881 1.374 . S
C2881 H2861 0.950 . S
C2881 C2877 1.385 . S
C2881 C2880 1.374 . S
C2882 C2879 1.499 . S
C2882 C2883 1.373 . S
C2882 C2884 1.389 . S
C2883 H2862 0.950 . S
C2883 C2882 1.373 . S
C2883 C2899 1.377 . S
C2884 C2882 1.389 . S
C2884 C2885 1.524 . S
C2884 C2898 1.377 . S
C2885 C2884 1.524 . S
C2885 C2886 1.397 . S
C2885 C2890 1.363 . S
C2886 H2863 0.950 . S
C2886 C2885 1.397 . S
C2886 C2887 1.334 . S
C2887 H2864 0.950 1_554 S
C2887 C2886 1.334 . S
C2887 C2888 1.287 1_554 S
C2888 C2887 1.287 1_556 S
C2888 C2889 1.524 1_556 S
C2888 H2907 0.913 . S
C2889 H2865 0.950 1_554 S
C2889 C2888 1.524 1_554 S
C2889 C2890 1.415 . S
C2890 H2866 0.950 . S
C2890 C2885 1.363 . S
C2890 C2889 1.415 . S
C2891 H2867 0.951 . S
C2891 C2892 1.366 . S
C2891 C2893 1.388 . S
C2892 C2891 1.366 . S
C2892 C2896 1.385 . S
C2893 H2868 0.951 . S
C2893 C2891 1.388 . S
C2893 C2894 1.366 . S
C2894 C2893 1.366 . S
C2894 C2895 1.414 . S
C2894 C2897 1.499 . S
C2895 H2869 0.950 . S
C2895 C2894 1.414 . S
C2895 C2896 1.374 . S
C2896 H2870 0.950 . S
C2896 C2892 1.385 . S
C2896 C2895 1.374 . S
C2897 C2894 1.499 . S
C2897 C2898 1.373 . S
C2897 C2899 1.389 . S
C2898 H2871 0.950 . S
C2898 C2884 1.377 . S
C2898 C2897 1.373 . S
C2899 C2883 1.377 . S
C2899 C2897 1.389 . S
C2899 C2900 1.524 . S
C2900 C2899 1.524 . S
C2900 C2901 1.397 . S
C2900 C2905 1.363 . S
C2901 H2872 0.950 . S
C2901 C2900 1.397 . S
C2901 C2902 1.334 . S
C2902 H2873 0.950 . S
C2902 C2901 1.334 . S
C2902 C2903 1.287 . S
C2903 C2902 1.287 . S
C2903 C2904 1.524 . S
C2903 H2906 0.999 . S
C2904 H2874 0.950 . S
C2904 C2903 1.524 . S
C2904 C2905 1.415 . S
C2905 H2875 0.950 . S
C2905 C2900 1.363 . S
C2905 C2904 1.415 . S
H2906 C2903 0.999 . S
H2907 C2888 0.913 . S
H2908 C2926 0.951 . S
H2909 C2928 0.951 . S
H2910 C2930 0.950 . S
H2911 C2931 0.950 . S
H2912 C2933 0.950 . S
H2913 C2936 0.950 . S
H2914 C2937 0.950 1_556 S
H2915 C2939 0.950 . S
H2916 C2940 0.950 . S
H2917 C2941 0.951 . S
H2918 C2943 0.951 . S
H2919 C2945 0.950 . S
H2920 C2946 0.950 . S
H2921 C2948 0.950 . S
H2922 C2951 0.950 . S
H2923 C2952 0.950 . S
H2924 C2954 0.950 . S
H2925 C2955 0.950 . S
C2926 H2908 0.951 . S
C2926 C2927 1.366 . S
C2926 C2928 1.388 . S
C2927 C2926 1.366 . S
C2927 C2931 1.385 . S
C2928 H2909 0.951 . S
C2928 C2926 1.388 . S
C2928 C2929 1.366 . S
C2929 C2928 1.366 . S
C2929 C2930 1.414 . S
C2929 C2932 1.499 . S
C2930 H2910 0.950 . S
C2930 C2929 1.414 . S
C2930 C2931 1.374 . S
C2931 H2911 0.950 . S
C2931 C2927 1.385 . S
C2931 C2930 1.374 . S
C2932 C2929 1.499 . S
C2932 C2933 1.373 . S
C2932 C2934 1.389 . S
C2933 H2912 0.950 . S
C2933 C2932 1.373 . S
C2933 C2949 1.377 . S
C2934 C2932 1.389 . S
C2934 C2935 1.524 . S
C2934 C2948 1.377 . S
C2935 C2934 1.524 . S
C2935 C2936 1.397 . S
C2935 C2940 1.363 . S
C2936 H2913 0.950 . S
C2936 C2935 1.397 . S
C2936 C2937 1.334 . S
C2937 H2914 0.950 1_554 S
C2937 C2936 1.334 . S
C2937 C2938 1.287 1_554 S
C2938 C2937 1.287 1_556 S
C2938 C2939 1.524 1_556 S
C2938 H2957 0.913 . S
C2939 H2915 0.950 . S
C2939 C2938 1.524 1_554 S
C2939 C2940 1.415 . S
C2940 H2916 0.950 . S
C2940 C2935 1.363 . S
C2940 C2939 1.415 . S
C2941 H2917 0.951 . S
C2941 C2942 1.366 . S
C2941 C2943 1.388 . S
C2942 C2941 1.366 . S
C2942 C2946 1.385 . S
C2943 H2918 0.951 . S
C2943 C2941 1.388 . S
C2943 C2944 1.366 . S
C2944 C2943 1.366 . S
C2944 C2945 1.414 . S
C2944 C2947 1.499 . S
C2945 H2919 0.950 . S
C2945 C2944 1.414 . S
C2945 C2946 1.374 . S
C2946 H2920 0.950 . S
C2946 C2942 1.385 . S
C2946 C2945 1.374 . S
C2947 C2944 1.499 . S
C2947 C2948 1.373 . S
C2947 C2949 1.389 . S
C2948 H2921 0.950 . S
C2948 C2934 1.377 . S
C2948 C2947 1.373 . S
C2949 C2933 1.377 . S
C2949 C2947 1.389 . S
C2949 C2950 1.524 . S
C2950 C2949 1.524 . S
C2950 C2951 1.397 . S
C2950 C2955 1.363 . S
C2951 H2922 0.950 . S
C2951 C2950 1.397 . S
C2951 C2952 1.334 . S
C2952 H2923 0.950 . S
C2952 C2951 1.334 . S
C2952 C2953 1.287 . S
C2953 C2952 1.287 . S
C2953 C2954 1.524 . S
C2953 H2956 0.999 . S
C2954 H2924 0.950 . S
C2954 C2953 1.524 . S
C2954 C2955 1.415 . S
C2955 H2925 0.950 . S
C2955 C2950 1.363 . S
C2955 C2954 1.415 . S
H2956 C2953 0.999 . S
H2957 C2938 0.913 . S
H2958 C2976 0.951 . S
H2959 C2978 0.951 . S
H2960 C2980 0.950 . S
H2961 C2981 0.950 . S
H2962 C2983 0.950 . S
H2963 C2986 0.950 . S
H2964 C2987 0.950 . S
H2965 C2989 0.950 . S
H2966 C2990 0.950 . S
H2967 C2991 0.951 . S
H2968 C2993 0.951 . S
H2969 C2995 0.950 . S
H2970 C2996 0.950 . S
H2971 C2998 0.950 . S
H2972 C3001 0.950 . S
H2973 C3002 0.950 . S
H2974 C3004 0.950 . S
H2975 C3005 0.950 . S
C2976 H2958 0.951 . S
C2976 C2977 1.366 . S
C2976 C2978 1.388 . S
C2977 C2976 1.366 . S
C2977 C2981 1.385 . S
C2978 H2959 0.951 . S
C2978 C2976 1.388 . S
C2978 C2979 1.366 . S
C2979 C2978 1.366 . S
C2979 C2980 1.414 . S
C2979 C2982 1.499 . S
C2980 H2960 0.950 . S
C2980 C2979 1.414 . S
C2980 C2981 1.374 . S
C2981 H2961 0.950 . S
C2981 C2977 1.385 . S
C2981 C2980 1.374 . S
C2982 C2979 1.499 . S
C2982 C2983 1.373 . S
C2982 C2984 1.389 . S
C2983 H2962 0.950 . S
C2983 C2982 1.373 . S
C2983 C2999 1.377 . S
C2984 C2982 1.389 . S
C2984 C2985 1.524 . S
C2984 C2998 1.377 . S
C2985 C2984 1.524 . S
C2985 C2986 1.397 . S
C2985 C2990 1.363 . S
C2986 H2963 0.950 . S
C2986 C2985 1.397 . S
C2986 C2987 1.334 . S
C2987 H2964 0.950 . S
C2987 C2986 1.334 . S
C2987 C2988 1.287 . S
C2988 C2987 1.287 . S
C2988 C2989 1.524 . S
C2988 H3007 0.913 . S
C2989 H2965 0.950 . S
C2989 C2988 1.524 . S
C2989 C2990 1.415 . S
C2990 H2966 0.950 . S
C2990 C2985 1.363 . S
C2990 C2989 1.415 . S
C2991 H2967 0.951 . S
C2991 C2992 1.366 . S
C2991 C2993 1.388 . S
C2992 C2991 1.366 . S
C2992 C2996 1.385 . S
C2993 H2968 0.951 . S
C2993 C2991 1.388 . S
C2993 C2994 1.366 . S
C2994 C2993 1.366 . S
C2994 C2995 1.414 . S
C2994 C2997 1.499 . S
C2995 H2969 0.950 . S
C2995 C2994 1.414 . S
C2995 C2996 1.374 . S
C2996 H2970 0.950 . S
C2996 C2992 1.385 . S
C2996 C2995 1.374 . S
C2997 C2994 1.499 . S
C2997 C2998 1.373 . S
C2997 C2999 1.389 . S
C2998 H2971 0.950 . S
C2998 C2984 1.377 . S
C2998 C2997 1.373 . S
C2999 C2983 1.377 . S
C2999 C2997 1.389 . S
C2999 C3000 1.524 . S
C3000 C2999 1.524 . S
C3000 C3001 1.397 . S
C3000 C3005 1.363 . S
C3001 H2972 0.950 . S
C3001 C3000 1.397 . S
C3001 C3002 1.334 . S
C3002 H2973 0.950 . S
C3002 C3001 1.334 . S
C3002 C3003 1.287 . S
C3003 C3002 1.287 . S
C3003 C3004 1.524 . S
C3003 H3006 0.999 . S
C3004 H2974 0.950 . S
C3004 C3003 1.524 . S
C3004 C3005 1.415 . S
C3005 H2975 0.950 . S
C3005 C3000 1.363 . S
C3005 C3004 1.415 . S
H3006 C3003 0.999 . S
H3007 C2988 0.913 . S
H3008 C3026 0.951 . S
H3009 C3028 0.951 . S
H3010 C3030 0.950 . S
H3011 C3031 0.950 . S
H3012 C3033 0.950 . S
H3013 C3036 0.950 . S
H3014 C3037 0.950 . S
H3015 C3039 0.950 . S
H3016 C3040 0.950 . S
H3017 C3041 0.951 . S
H3018 C3043 0.951 . S
H3019 C3045 0.950 . S
H3020 C3046 0.950 . S
H3021 C3048 0.950 . S
H3022 C3051 0.950 . S
H3023 C3052 0.950 . S
H3024 C3054 0.950 . S
H3025 C3055 0.950 . S
C3026 H3008 0.951 . S
C3026 C3027 1.366 . S
C3026 C3028 1.388 . S
C3027 C3026 1.366 . S
C3027 C3031 1.385 . S
C3028 H3009 0.951 . S
C3028 C3026 1.388 . S
C3028 C3029 1.366 . S
C3029 C3028 1.366 . S
C3029 C3030 1.414 . S
C3029 C3032 1.499 . S
C3030 H3010 0.950 . S
C3030 C3029 1.414 . S
C3030 C3031 1.374 . S
C3031 H3011 0.950 . S
C3031 C3027 1.385 . S
C3031 C3030 1.374 . S
C3032 C3029 1.499 . S
C3032 C3033 1.373 . S
C3032 C3034 1.389 . S
C3033 H3012 0.950 . S
C3033 C3032 1.373 . S
C3033 C3049 1.377 . S
C3034 C3032 1.389 . S
C3034 C3035 1.524 . S
C3034 C3048 1.377 . S
C3035 C3034 1.524 . S
C3035 C3036 1.397 . S
C3035 C3040 1.363 . S
C3036 H3013 0.950 . S
C3036 C3035 1.397 . S
C3036 C3037 1.334 . S
C3037 H3014 0.950 . S
C3037 C3036 1.334 . S
C3037 C3038 1.287 . S
C3038 C3037 1.287 . S
C3038 C3039 1.524 . S
C3038 H3057 0.913 . S
C3039 H3015 0.950 . S
C3039 C3038 1.524 . S
C3039 C3040 1.415 . S
C3040 H3016 0.950 . S
C3040 C3035 1.363 . S
C3040 C3039 1.415 . S
C3041 H3017 0.951 . S
C3041 C3042 1.366 . S
C3041 C3043 1.388 . S
C3042 C3041 1.366 . S
C3042 C3046 1.385 . S
C3043 H3018 0.951 . S
C3043 C3041 1.388 . S
C3043 C3044 1.366 . S
C3044 C3043 1.366 . S
C3044 C3045 1.414 . S
C3044 C3047 1.499 . S
C3045 H3019 0.950 . S
C3045 C3044 1.414 . S
C3045 C3046 1.374 . S
C3046 H3020 0.950 . S
C3046 C3042 1.385 . S
C3046 C3045 1.374 . S
C3047 C3044 1.499 . S
C3047 C3048 1.373 . S
C3047 C3049 1.389 . S
C3048 H3021 0.950 . S
C3048 C3034 1.377 . S
C3048 C3047 1.373 . S
C3049 C3033 1.377 . S
C3049 C3047 1.389 . S
C3049 C3050 1.524 . S
C3050 C3049 1.524 . S
C3050 C3051 1.397 . S
C3050 C3055 1.363 . S
C3051 H3022 0.950 . S
C3051 C3050 1.397 . S
C3051 C3052 1.334 . S
C3052 H3023 0.950 . S
C3052 C3051 1.334 . S
C3052 C3053 1.287 . S
C3053 C3052 1.287 . S
C3053 C3054 1.524 . S
C3053 H3056 0.999 . S
C3054 H3024 0.950 . S
C3054 C3053 1.524 . S
C3054 C3055 1.415 . S
C3055 H3025 0.950 . S
C3055 C3050 1.363 . S
C3055 C3054 1.415 . S
H3056 C3053 0.999 . S
H3057 C3038 0.913 . S
H3058 C3076 0.951 . S
H3059 C3078 0.951 . S
H3060 C3080 0.950 . S
H3061 C3081 0.950 . S
H3062 C3083 0.950 . S
H3063 C3086 0.950 . S
H3064 C3087 0.950 . S
H3065 C3089 0.950 . S
H3066 C3090 0.950 . S
H3067 C3091 0.951 . S
H3068 C3093 0.951 . S
H3069 C3095 0.950 . S
H3070 C3096 0.950 . S
H3071 C3098 0.950 . S
H3072 C3101 0.950 . S
H3073 C3102 0.950 . S
H3074 C3104 0.950 . S
H3075 C3105 0.950 . S
C3076 H3058 0.951 . S
C3076 C3077 1.366 . S
C3076 C3078 1.388 . S
C3077 C3076 1.366 . S
C3077 C3081 1.385 . S
C3078 H3059 0.951 . S
C3078 C3076 1.388 . S
C3078 C3079 1.366 . S
C3079 C3078 1.366 . S
C3079 C3080 1.414 . S
C3079 C3082 1.499 . S
C3080 H3060 0.950 . S
C3080 C3079 1.414 . S
C3080 C3081 1.374 . S
C3081 H3061 0.950 . S
C3081 C3077 1.385 . S
C3081 C3080 1.374 . S
C3082 C3079 1.499 . S
C3082 C3083 1.373 . S
C3082 C3084 1.389 . S
C3083 H3062 0.950 . S
C3083 C3082 1.373 . S
C3083 C3099 1.377 . S
C3084 C3082 1.389 . S
C3084 C3085 1.524 . S
C3084 C3098 1.377 . S
C3085 C3084 1.524 . S
C3085 C3086 1.397 . S
C3085 C3090 1.363 . S
C3086 H3063 0.950 . S
C3086 C3085 1.397 . S
C3086 C3087 1.334 . S
C3087 H3064 0.950 . S
C3087 C3086 1.334 . S
C3087 C3088 1.287 . S
C3088 C3087 1.287 . S
C3088 C3089 1.524 . S
C3088 H3107 0.913 . S
C3089 H3065 0.950 . S
C3089 C3088 1.524 . S
C3089 C3090 1.415 . S
C3090 H3066 0.950 . S
C3090 C3085 1.363 . S
C3090 C3089 1.415 . S
C3091 H3067 0.951 . S
C3091 C3092 1.366 . S
C3091 C3093 1.388 . S
C3092 C3091 1.366 . S
C3092 C3096 1.385 . S
C3093 H3068 0.951 . S
C3093 C3091 1.388 . S
C3093 C3094 1.366 . S
C3094 C3093 1.366 . S
C3094 C3095 1.414 . S
C3094 C3097 1.499 . S
C3095 H3069 0.950 . S
C3095 C3094 1.414 . S
C3095 C3096 1.374 . S
C3096 H3070 0.950 . S
C3096 C3092 1.385 . S
C3096 C3095 1.374 . S
C3097 C3094 1.499 . S
C3097 C3098 1.373 . S
C3097 C3099 1.389 . S
C3098 H3071 0.950 . S
C3098 C3084 1.377 . S
C3098 C3097 1.373 . S
C3099 C3083 1.377 . S
C3099 C3097 1.389 . S
C3099 C3100 1.524 . S
C3100 C3099 1.524 . S
C3100 C3101 1.397 . S
C3100 C3105 1.363 . S
C3101 H3072 0.950 . S
C3101 C3100 1.397 . S
C3101 C3102 1.334 . S
C3102 H3073 0.950 . S
C3102 C3101 1.334 . S
C3102 C3103 1.287 . S
C3103 C3102 1.287 . S
C3103 C3104 1.524 . S
C3103 H3106 0.999 . S
C3104 H3074 0.950 . S
C3104 C3103 1.524 . S
C3104 C3105 1.415 . S
C3105 H3075 0.950 . S
C3105 C3100 1.363 . S
C3105 C3104 1.415 . S
H3106 C3103 0.999 . S
H3107 C3088 0.913 . S
H3108 C3126 0.951 . S
H3109 C3128 0.951 . S
H3110 C3130 0.950 . S
H3111 C3131 0.950 . S
H3112 C3133 0.950 . S
H3113 C3136 0.950 . S
H3114 C3137 0.950 . S
H3115 C3139 0.950 . S
H3116 C3140 0.950 . S
H3117 C3141 0.951 . S
H3118 C3143 0.951 . S
H3119 C3145 0.950 1_655 S
H3120 C3146 0.950 1_655 S
H3121 C3148 0.950 . S
H3122 C3151 0.950 . S
H3123 C3152 0.950 . S
H3124 C3154 0.950 . S
H3125 C3155 0.950 . S
C3126 H3108 0.951 . S
C3126 C3127 1.366 . S
C3126 C3128 1.388 . S
C3127 C3126 1.366 . S
C3127 C3131 1.385 . S
C3128 H3109 0.951 . S
C3128 C3126 1.388 . S
C3128 C3129 1.366 . S
C3129 C3128 1.366 . S
C3129 C3130 1.414 . S
C3129 C3132 1.499 . S
C3130 H3110 0.950 . S
C3130 C3129 1.414 . S
C3130 C3131 1.374 . S
C3131 H3111 0.950 . S
C3131 C3127 1.385 . S
C3131 C3130 1.374 . S
C3132 C3129 1.499 . S
C3132 C3133 1.373 . S
C3132 C3134 1.389 . S
C3133 H3112 0.950 . S
C3133 C3132 1.373 . S
C3133 C3149 1.377 . S
C3134 C3132 1.389 . S
C3134 C3135 1.524 . S
C3134 C3148 1.377 . S
C3135 C3134 1.524 . S
C3135 C3136 1.397 . S
C3135 C3140 1.363 . S
C3136 H3113 0.950 . S
C3136 C3135 1.397 . S
C3136 C3137 1.334 . S
C3137 H3114 0.950 . S
C3137 C3136 1.334 . S
C3137 C3138 1.287 . S
C3138 C3137 1.287 . S
C3138 C3139 1.524 . S
C3138 H3157 0.913 . S
C3139 H3115 0.950 . S
C3139 C3138 1.524 . S
C3139 C3140 1.415 . S
C3140 H3116 0.950 . S
C3140 C3135 1.363 . S
C3140 C3139 1.415 . S
C3141 H3117 0.951 . S
C3141 C3142 1.366 . S
C3141 C3143 1.388 . S
C3142 C3141 1.366 . S
C3142 C3146 1.385 . S
C3143 H3118 0.951 . S
C3143 C3141 1.388 . S
C3143 C3144 1.366 . S
C3144 C3143 1.366 . S
C3144 C3145 1.414 . S
C3144 C3147 1.499 . S
C3145 H3119 0.950 1_455 S
C3145 C3144 1.414 . S
C3145 C3146 1.374 . S
C3146 H3120 0.950 1_455 S
C3146 C3142 1.385 . S
C3146 C3145 1.374 . S
C3147 C3144 1.499 . S
C3147 C3148 1.373 . S
C3147 C3149 1.389 . S
C3148 H3121 0.950 . S
C3148 C3134 1.377 . S
C3148 C3147 1.373 . S
C3149 C3133 1.377 . S
C3149 C3147 1.389 . S
C3149 C3150 1.524 . S
C3150 C3149 1.524 . S
C3150 C3151 1.397 1_455 S
C3150 C3155 1.363 . S
C3151 H3122 0.950 . S
C3151 C3150 1.397 1_655 S
C3151 C3152 1.334 . S
C3152 H3123 0.950 . S
C3152 C3151 1.334 . S
C3152 C3153 1.287 . S
C3153 C3152 1.287 . S
C3153 C3154 1.524 1_655 S
C3153 H3156 0.999 . S
C3154 H3124 0.950 . S
C3154 C3153 1.524 1_455 S
C3154 C3155 1.415 . S
C3155 H3125 0.950 . S
C3155 C3150 1.363 . S
C3155 C3154 1.415 . S
H3156 C3153 0.999 . S
H3157 C3138 0.913 . S
H3158 C3176 0.951 . S
H3159 C3178 0.951 . S
H3160 C3180 0.950 . S
H3161 C3181 0.950 . S
H3162 C3183 0.950 . S
H3163 C3186 0.950 . S
H3164 C3187 0.950 . S
H3165 C3189 0.950 . S
H3166 C3190 0.950 . S
H3167 C3191 0.951 . S
H3168 C3193 0.951 . S
H3169 C3195 0.950 . S
H3170 C3196 0.950 . S
H3171 C3198 0.950 . S
H3172 C3201 0.950 . S
H3173 C3202 0.950 . S
H3174 C3204 0.950 . S
H3175 C3205 0.950 . S
C3176 H3158 0.951 . S
C3176 C3177 1.366 . S
C3176 C3178 1.388 . S
C3177 C3176 1.366 . S
C3177 C3181 1.385 . S
C3178 H3159 0.951 . S
C3178 C3176 1.388 . S
C3178 C3179 1.366 . S
C3179 C3178 1.366 . S
C3179 C3180 1.414 . S
C3179 C3182 1.499 . S
C3180 H3160 0.950 . S
C3180 C3179 1.414 . S
C3180 C3181 1.374 . S
C3181 H3161 0.950 . S
C3181 C3177 1.385 . S
C3181 C3180 1.374 . S
C3182 C3179 1.499 . S
C3182 C3183 1.373 . S
C3182 C3184 1.389 . S
C3183 H3162 0.950 . S
C3183 C3182 1.373 . S
C3183 C3199 1.377 . S
C3184 C3182 1.389 . S
C3184 C3185 1.524 . S
C3184 C3198 1.377 . S
C3185 C3184 1.524 . S
C3185 C3186 1.397 . S
C3185 C3190 1.363 . S
C3186 H3163 0.950 . S
C3186 C3185 1.397 . S
C3186 C3187 1.334 . S
C3187 H3164 0.950 . S
C3187 C3186 1.334 . S
C3187 C3188 1.287 . S
C3188 C3187 1.287 . S
C3188 C3189 1.524 . S
C3188 H3207 0.913 . S
C3189 H3165 0.950 . S
C3189 C3188 1.524 . S
C3189 C3190 1.415 . S
C3190 H3166 0.950 . S
C3190 C3185 1.363 . S
C3190 C3189 1.415 . S
C3191 H3167 0.951 . S
C3191 C3192 1.366 . S
C3191 C3193 1.388 . S
C3192 C3191 1.366 . S
C3192 C3196 1.385 . S
C3193 H3168 0.951 . S
C3193 C3191 1.388 . S
C3193 C3194 1.366 . S
C3194 C3193 1.366 . S
C3194 C3195 1.414 . S
C3194 C3197 1.499 . S
C3195 H3169 0.950 . S
C3195 C3194 1.414 . S
C3195 C3196 1.374 . S
C3196 H3170 0.950 . S
C3196 C3192 1.385 . S
C3196 C3195 1.374 . S
C3197 C3194 1.499 . S
C3197 C3198 1.373 . S
C3197 C3199 1.389 . S
C3198 H3171 0.950 . S
C3198 C3184 1.377 . S
C3198 C3197 1.373 . S
C3199 C3183 1.377 . S
C3199 C3197 1.389 . S
C3199 C3200 1.524 . S
C3200 C3199 1.524 . S
C3200 C3201 1.397 . S
C3200 C3205 1.363 . S
C3201 H3172 0.950 . S
C3201 C3200 1.397 . S
C3201 C3202 1.334 . S
C3202 H3173 0.950 . S
C3202 C3201 1.334 . S
C3202 C3203 1.287 . S
C3203 C3202 1.287 . S
C3203 C3204 1.524 . S
C3203 H3206 0.999 . S
C3204 H3174 0.950 . S
C3204 C3203 1.524 . S
C3204 C3205 1.415 . S
C3205 H3175 0.950 . S
C3205 C3200 1.363 . S
C3205 C3204 1.415 . S
H3206 C3203 0.999 . S
H3207 C3188 0.913 . S
H3208 C3226 0.951 . S
H3209 C3228 0.951 . S
H3210 C3230 0.950 . S
H3211 C3231 0.950 . S
H3212 C3233 0.950 . S
H3213 C3236 0.950 . S
H3214 C3237 0.950 . S
H3215 C3239 0.950 . S
H3216 C3240 0.950 . S
H3217 C3241 0.951 . S
H3218 C3243 0.951 . S
H3219 C3245 0.950 . S
H3220 C3246 0.950 . S
H3221 C3248 0.950 . S
H3222 C3251 0.950 . S
H3223 C3252 0.950 . S
H3224 C3254 0.950 . S
H3225 C3255 0.950 . S
C3226 H3208 0.951 . S
C3226 C3227 1.366 1_545 S
C3226 C3228 1.388 . S
C3227 C3226 1.366 1_565 S
C3227 C3231 1.385 . S
C3228 H3209 0.951 . S
C3228 C3226 1.388 . S
C3228 C3229 1.366 1_545 S
C3229 C3228 1.366 1_565 S
C3229 C3230 1.414 . S
C3229 C3232 1.499 . S
C3230 H3210 0.950 . S
C3230 C3229 1.414 . S
C3230 C3231 1.374 . S
C3231 H3211 0.950 . S
C3231 C3227 1.385 . S
C3231 C3230 1.374 . S
C3232 C3229 1.499 . S
C3232 C3233 1.373 . S
C3232 C3234 1.389 . S
C3233 H3212 0.950 . S
C3233 C3232 1.373 . S
C3233 C3249 1.377 . S
C3234 C3232 1.389 . S
C3234 C3235 1.524 . S
C3234 C3248 1.377 . S
C3235 C3234 1.524 . S
C3235 C3236 1.397 . S
C3235 C3240 1.363 1_565 S
C3236 H3213 0.950 . S
C3236 C3235 1.397 . S
C3236 C3237 1.334 . S
C3237 H3214 0.950 . S
C3237 C3236 1.334 . S
C3237 C3238 1.287 . S
C3238 C3237 1.287 . S
C3238 C3239 1.524 1_565 S
C3238 H3257 0.913 . S
C3239 H3215 0.950 . S
C3239 C3238 1.524 1_545 S
C3239 C3240 1.415 . S
C3240 H3216 0.950 . S
C3240 C3235 1.363 1_545 S
C3240 C3239 1.415 . S
C3241 H3217 0.951 . S
C3241 C3242 1.366 . S
C3241 C3243 1.388 . S
C3242 C3241 1.366 . S
C3242 C3246 1.385 1_565 S
C3243 H3218 0.951 . S
C3243 C3241 1.388 . S
C3243 C3244 1.366 . S
C3244 C3243 1.366 . S
C3244 C3245 1.414 1_565 S
C3244 C3247 1.499 . S
C3245 H3219 0.950 . S
C3245 C3244 1.414 1_545 S
C3245 C3246 1.374 . S
C3246 H3220 0.950 . S
C3246 C3242 1.385 1_545 S
C3246 C3245 1.374 . S
C3247 C3244 1.499 . S
C3247 C3248 1.373 . S
C3247 C3249 1.389 . S
C3248 H3221 0.950 . S
C3248 C3234 1.377 . S
C3248 C3247 1.373 . S
C3249 C3233 1.377 . S
C3249 C3247 1.389 . S
C3249 C3250 1.524 . S
C3250 C3249 1.524 . S
C3250 C3251 1.397 1_565 S
C3250 C3255 1.363 . S
C3251 H3222 0.950 . S
C3251 C3250 1.397 1_545 S
C3251 C3252 1.334 . S
C3252 H3223 0.950 . S
C3252 C3251 1.334 . S
C3252 C3253 1.287 1_545 S
C3253 C3252 1.287 1_565 S
C3253 C3254 1.524 . S
C3253 H3256 0.999 . S
C3254 H3224 0.950 . S
C3254 C3253 1.524 . S
C3254 C3255 1.415 . S
C3255 H3225 0.950 . S
C3255 C3250 1.363 . S
C3255 C3254 1.415 . S
H3256 C3253 0.999 . S
H3257 C3238 0.913 . S
H3258 C3276 0.951 . S
H3259 C3278 0.951 . S
H3260 C3280 0.950 . S
H3261 C3281 0.950 . S
H3262 C3283 0.950 . S
H3263 C3286 0.950 . S
H3264 C3287 0.950 . S
H3265 C3289 0.950 . S
H3266 C3290 0.950 . S
H3267 C3291 0.951 . S
H3268 C3293 0.951 . S
H3269 C3295 0.950 . S
H3270 C3296 0.950 . S
H3271 C3298 0.902 1_545 S
H3272 C3301 0.950 . S
H3273 C3302 0.950 . S
H3274 C3304 0.950 . S
H3275 C3305 0.950 . S
C3276 H3258 0.951 . S
C3276 C3277 1.366 1_545 S
C3276 C3278 1.388 . S
C3277 C3276 1.366 1_565 S
C3277 C3281 1.385 . S
C3278 H3259 0.951 . S
C3278 C3276 1.388 . S
C3278 C3279 1.366 1_545 S
C3279 C3278 1.366 1_565 S
C3279 C3280 1.414 . S
C3279 C3282 1.499 . S
C3280 H3260 0.950 . S
C3280 C3279 1.414 . S
C3280 C3281 1.374 . S
C3281 H3261 0.950 . S
C3281 C3277 1.385 . S
C3281 C3280 1.374 . S
C3282 C3279 1.499 . S
C3282 C3283 1.373 . S
C3282 C3284 1.389 . S
C3283 H3262 0.950 . S
C3283 C3282 1.373 . S
C3283 C3299 1.377 . S
C3284 C3282 1.389 . S
C3284 C3285 1.524 . S
C3284 C3298 1.427 . S
C3285 C3284 1.524 . S
C3285 C3286 1.397 . S
C3285 C3290 1.363 1_565 S
C3286 H3263 0.950 . S
C3286 C3285 1.397 . S
C3286 C3287 1.334 . S
C3287 H3264 0.950 . S
C3287 C3286 1.334 . S
C3287 C3288 1.287 . S
C3288 C3287 1.287 . S
C3288 C3289 1.524 1_565 S
C3288 H3307 0.913 . S
C3289 H3265 0.950 . S
C3289 C3288 1.524 1_545 S
C3289 C3290 1.415 . S
C3290 H3266 0.950 . S
C3290 C3285 1.363 1_545 S
C3290 C3289 1.415 . S
C3291 H3267 0.951 . S
C3291 C3292 1.378 . S
C3291 C3293 1.388 . S
C3292 C3291 1.378 . S
C3292 C3296 1.379 1_565 S
C3293 H3268 0.951 . S
C3293 C3291 1.388 . S
C3293 C3294 1.366 . S
C3294 C3293 1.366 . S
C3294 C3295 1.414 1_565 S
C3294 C3297 1.499 . S
C3295 H3269 0.950 . S
C3295 C3294 1.414 1_545 S
C3295 C3296 1.374 . S
C3296 H3270 0.950 . S
C3296 C3292 1.379 1_545 S
C3296 C3295 1.374 . S
C3297 C3294 1.499 . S
C3297 C3298 1.379 . S
C3297 C3299 1.389 . S
C3298 H3271 0.902 1_565 S
C3298 C3284 1.427 . S
C3298 C3297 1.379 . S
C3299 C3283 1.377 . S
C3299 C3297 1.389 . S
C3299 C3300 1.524 . S
C3300 C3299 1.524 . S
C3300 C3301 1.397 1_565 S
C3300 C3305 1.363 . S
C3301 H3272 0.950 . S
C3301 C3300 1.397 1_545 S
C3301 C3302 1.334 . S
C3302 H3273 0.950 . S
C3302 C3301 1.334 . S
C3302 C3303 1.287 1_545 S
C3303 C3302 1.287 1_565 S
C3303 C3304 1.524 . S
C3303 H3306 0.999 . S
C3304 H3274 0.950 . S
C3304 C3303 1.524 . S
C3304 C3305 1.415 . S
C3305 H3275 0.950 . S
C3305 C3300 1.363 . S
C3305 C3304 1.415 . S
H3306 C3303 0.999 . S
H3307 C3288 0.913 . S
H3308 C3326 0.951 . S
H3309 C3328 0.951 . S
H3310 C3330 0.950 . S
H3311 C3331 0.950 . S
H3312 C3333 0.950 . S
H3313 C3336 0.950 . S
H3314 C3337 0.950 . S
H3315 C3339 0.950 . S
H3316 C3340 0.950 . S
H3317 C3341 0.951 . S
H3318 C3343 0.951 . S
H3319 C3345 0.950 . S
H3320 C3346 0.948 . S
H3321 C3348 0.950 . S
H3322 C3351 0.950 . S
H3323 C3352 0.950 . S
H3324 C3354 0.950 . S
H3325 C3355 0.950 . S
C3326 H3308 0.951 . S
C3326 C3327 1.366 . S
C3326 C3328 1.388 . S
C3327 C3326 1.366 . S
C3327 C3331 1.385 . S
C3328 H3309 0.951 . S
C3328 C3326 1.388 . S
C3328 C3329 1.366 . S
C3329 C3328 1.366 . S
C3329 C3330 1.414 . S
C3329 C3332 1.499 . S
C3330 H3310 0.950 . S
C3330 C3329 1.414 . S
C3330 C3331 1.374 . S
C3331 H3311 0.950 . S
C3331 C3327 1.385 . S
C3331 C3330 1.374 . S
C3332 C3329 1.499 . S
C3332 C3333 1.373 . S
C3332 C3334 1.389 . S
C3333 H3312 0.950 . S
C3333 C3332 1.373 . S
C3333 C3349 1.377 . S
C3334 C3332 1.389 . S
C3334 C3335 1.524 . S
C3334 C3348 1.377 . S
C3335 C3334 1.524 . S
C3335 C3336 1.397 . S
C3335 C3340 1.363 . S
C3336 H3313 0.950 . S
C3336 C3335 1.397 . S
C3336 C3337 1.334 . S
C3337 H3314 0.950 . S
C3337 C3336 1.334 . S
C3337 C3338 1.287 . S
C3338 C3337 1.287 . S
C3338 C3339 1.524 . S
C3338 H3357 0.913 . S
C3339 H3315 0.950 . S
C3339 C3338 1.524 . S
C3339 C3340 1.415 . S
C3340 H3316 0.950 . S
C3340 C3335 1.363 . S
C3340 C3339 1.415 . S
C3341 H3317 0.951 . S
C3341 C3342 1.366 . S
C3341 C3343 1.388 . S
C3342 C3341 1.366 . S
C3342 C3346 1.385 . S
C3343 H3318 0.951 . S
C3343 C3341 1.388 . S
C3343 C3344 1.366 . S
C3344 C3343 1.366 . S
C3344 C3345 1.414 . S
C3344 C3347 1.499 . S
C3345 H3319 0.950 . S
C3345 C3344 1.414 . S
C3345 C3346 1.374 . S
C3346 H3320 0.948 . S
C3346 C3342 1.385 . S
C3346 C3345 1.374 . S
C3347 C3344 1.499 . S
C3347 C3348 1.373 . S
C3347 C3349 1.389 . S
C3348 H3321 0.950 . S
C3348 C3334 1.377 . S
C3348 C3347 1.373 . S
C3349 C3333 1.377 . S
C3349 C3347 1.389 . S
C3349 C3350 1.524 1_455 S
C3350 C3349 1.524 1_655 S
C3350 C3351 1.397 . S
C3350 C3355 1.363 1_655 S
C3351 H3322 0.950 . S
C3351 C3350 1.397 . S
C3351 C3352 1.334 . S
C3352 H3323 0.950 . S
C3352 C3351 1.334 . S
C3352 C3353 1.287 . S
C3353 C3352 1.287 . S
C3353 C3354 1.524 . S
C3353 H3356 0.999 . S
C3354 H3324 0.950 . S
C3354 C3353 1.524 . S
C3354 C3355 1.415 1_655 S
C3355 H3325 0.950 . S
C3355 C3350 1.363 1_455 S
C3355 C3354 1.415 1_455 S
H3356 C3353 0.999 . S
H3357 C3338 0.913 . S
H3358 C3376 0.951 . S
H3359 C3378 0.951 . S
H3360 C3380 0.950 . S
H3361 C3381 0.950 . S
H3362 C3383 0.950 . S
H3363 C3386 0.950 . S
H3364 C3387 0.950 . S
H3365 C3389 0.950 . S
H3366 C3390 0.950 . S
H3367 C3391 0.951 . S
H3368 C3393 0.951 . S
H3369 C3395 0.950 . S
H3370 C3396 0.950 . S
H3371 C3398 0.950 . S
H3372 C3401 0.950 . S
H3373 C3402 0.950 . S
H3374 C3404 0.950 . S
H3375 C3405 0.950 . S
C3376 H3358 0.951 . S
C3376 C3377 1.366 . S
C3376 C3378 1.388 . S
C3377 C3376 1.366 . S
C3377 C3381 1.385 . S
C3378 H3359 0.951 . S
C3378 C3376 1.388 . S
C3378 C3379 1.366 . S
C3379 C3378 1.366 . S
C3379 C3380 1.414 . S
C3379 C3382 1.499 . S
C3380 H3360 0.950 . S
C3380 C3379 1.414 . S
C3380 C3381 1.374 . S
C3381 H3361 0.950 . S
C3381 C3377 1.385 . S
C3381 C3380 1.374 . S
C3382 C3379 1.499 . S
C3382 C3383 1.373 . S
C3382 C3384 1.389 . S
C3383 H3362 0.950 . S
C3383 C3382 1.373 . S
C3383 C3399 1.377 . S
C3384 C3382 1.389 . S
C3384 C3385 1.524 . S
C3384 C3398 1.377 . S
C3385 C3384 1.524 . S
C3385 C3386 1.397 . S
C3385 C3390 1.363 . S
C3386 H3363 0.950 . S
C3386 C3385 1.397 . S
C3386 C3387 1.334 . S
C3387 H3364 0.950 . S
C3387 C3386 1.334 . S
C3387 C3388 1.287 . S
C3388 C3387 1.287 . S
C3388 C3389 1.524 . S
C3388 H3407 0.913 . S
C3389 H3365 0.950 . S
C3389 C3388 1.524 . S
C3389 C3390 1.415 . S
C3390 H3366 0.950 . S
C3390 C3385 1.363 . S
C3390 C3389 1.415 . S
C3391 H3367 0.951 . S
C3391 C3392 1.366 . S
C3391 C3393 1.388 . S
C3392 C3391 1.366 . S
C3392 C3396 1.385 . S
C3393 H3368 0.951 . S
C3393 C3391 1.388 . S
C3393 C3394 1.366 . S
C3394 C3393 1.366 . S
C3394 C3395 1.414 . S
C3394 C3397 1.499 . S
C3395 H3369 0.950 . S
C3395 C3394 1.414 . S
C3395 C3396 1.374 . S
C3396 H3370 0.950 . S
C3396 C3392 1.385 . S
C3396 C3395 1.374 . S
C3397 C3394 1.499 . S
C3397 C3398 1.373 . S
C3397 C3399 1.389 . S
C3398 H3371 0.950 . S
C3398 C3384 1.377 . S
C3398 C3397 1.373 . S
C3399 C3383 1.377 . S
C3399 C3397 1.389 . S
C3399 C3400 1.524 . S
C3400 C3399 1.524 . S
C3400 C3401 1.397 . S
C3400 C3405 1.363 . S
C3401 H3372 0.950 . S
C3401 C3400 1.397 . S
C3401 C3402 1.334 . S
C3402 H3373 0.950 . S
C3402 C3401 1.334 . S
C3402 C3403 1.287 . S
C3403 C3402 1.287 . S
C3403 C3404 1.524 . S
C3403 H3406 0.999 . S
C3404 H3374 0.950 . S
C3404 C3403 1.524 . S
C3404 C3405 1.415 . S
C3405 H3375 0.950 . S
C3405 C3400 1.363 . S
C3405 C3404 1.415 . S
H3406 C3403 0.999 . S
H3407 C3388 0.913 . S
H3408 C3426 0.951 . S
H3409 C3428 0.951 . S
H3410 C3430 0.950 . S
H3411 C3431 0.950 . S
H3412 C3433 0.950 . S
H3413 C3436 0.950 . S
H3414 C3437 0.950 . S
H3415 C3439 0.950 . S
H3416 C3440 0.950 . S
H3417 C3441 0.951 . S
H3418 C3443 0.951 . S
H3419 C3445 0.950 . S
H3420 C3446 0.950 . S
H3421 C3448 0.950 . S
H3422 C3451 0.950 . S
H3423 C3452 0.950 . S
H3424 C3454 0.950 . S
H3425 C3455 0.950 . S
C3426 H3408 0.951 . S
C3426 C3427 1.366 . S
C3426 C3428 1.388 . S
C3427 C3426 1.366 . S
C3427 C3431 1.385 . S
C3428 H3409 0.951 . S
C3428 C3426 1.388 . S
C3428 C3429 1.366 . S
C3429 C3428 1.366 . S
C3429 C3430 1.414 . S
C3429 C3432 1.499 . S
C3430 H3410 0.950 . S
C3430 C3429 1.414 . S
C3430 C3431 1.374 . S
C3431 H3411 0.950 . S
C3431 C3427 1.385 . S
C3431 C3430 1.374 . S
C3432 C3429 1.499 . S
C3432 C3433 1.373 . S
C3432 C3434 1.389 . S
C3433 H3412 0.950 . S
C3433 C3432 1.373 . S
C3433 C3449 1.377 . S
C3434 C3432 1.389 . S
C3434 C3435 1.524 . S
C3434 C3448 1.377 . S
C3435 C3434 1.524 . S
C3435 C3436 1.397 . S
C3435 C3440 1.363 . S
C3436 H3413 0.950 . S
C3436 C3435 1.397 . S
C3436 C3437 1.334 . S
C3437 H3414 0.950 . S
C3437 C3436 1.334 . S
C3437 C3438 1.287 . S
C3438 C3437 1.287 . S
C3438 C3439 1.524 . S
C3438 H3457 0.913 . S
C3439 H3415 0.950 . S
C3439 C3438 1.524 . S
C3439 C3440 1.415 . S
C3440 H3416 0.950 . S
C3440 C3435 1.363 . S
C3440 C3439 1.415 . S
C3441 H3417 0.951 . S
C3441 C3442 1.366 . S
C3441 C3443 1.388 . S
C3442 C3441 1.366 . S
C3442 C3446 1.385 . S
C3443 H3418 0.951 . S
C3443 C3441 1.388 . S
C3443 C3444 1.366 . S
C3444 C3443 1.366 . S
C3444 C3445 1.414 . S
C3444 C3447 1.499 . S
C3445 H3419 0.950 . S
C3445 C3444 1.414 . S
C3445 C3446 1.374 . S
C3446 H3420 0.950 . S
C3446 C3442 1.385 . S
C3446 C3445 1.374 . S
C3447 C3444 1.499 . S
C3447 C3448 1.373 . S
C3447 C3449 1.389 . S
C3448 H3421 0.950 . S
C3448 C3434 1.377 . S
C3448 C3447 1.373 . S
C3449 C3433 1.377 . S
C3449 C3447 1.389 . S
C3449 C3450 1.524 . S
C3450 C3449 1.524 . S
C3450 C3451 1.397 . S
C3450 C3455 1.363 . S
C3451 H3422 0.950 . S
C3451 C3450 1.397 . S
C3451 C3452 1.334 . S
C3452 H3423 0.950 . S
C3452 C3451 1.334 . S
C3452 C3453 1.287 . S
C3453 C3452 1.287 . S
C3453 C3454 1.524 . S
C3453 H3456 0.999 . S
C3454 H3424 0.950 . S
C3454 C3453 1.524 . S
C3454 C3455 1.415 . S
C3455 H3425 0.950 . S
C3455 C3450 1.363 . S
C3455 C3454 1.415 . S
H3456 C3453 0.999 . S
H3457 C3438 0.913 . S
H3458 C3476 0.951 . S
H3459 C3478 0.951 . S
H3460 C3480 0.950 . S
H3461 C3481 0.950 . S
H3462 C3483 0.950 . S
H3463 C3486 0.950 . S
H3464 C3487 0.950 . S
H3465 C3489 0.950 . S
H3466 C3490 0.950 . S
H3467 C3491 0.951 . S
H3468 C3493 0.951 . S
H3469 C3495 0.950 . S
H3470 C3496 0.950 . S
H3471 C3498 0.950 . S
H3472 C3501 0.950 . S
H3473 C3502 0.950 . S
H3474 C3504 0.950 . S
H3475 C3505 0.950 . S
C3476 H3458 0.951 . S
C3476 C3477 1.366 . S
C3476 C3478 1.388 . S
C3477 C3476 1.366 . S
C3477 C3481 1.385 . S
C3478 H3459 0.951 . S
C3478 C3476 1.388 . S
C3478 C3479 1.366 . S
C3479 C3478 1.366 . S
C3479 C3480 1.414 . S
C3479 C3482 1.499 . S
C3480 H3460 0.950 . S
C3480 C3479 1.414 . S
C3480 C3481 1.374 . S
C3481 H3461 0.950 . S
C3481 C3477 1.385 . S
C3481 C3480 1.374 . S
C3482 C3479 1.499 . S
C3482 C3483 1.373 . S
C3482 C3484 1.389 . S
C3483 H3462 0.950 . S
C3483 C3482 1.373 . S
C3483 C3499 1.377 . S
C3484 C3482 1.389 . S
C3484 C3485 1.524 . S
C3484 C3498 1.377 . S
C3485 C3484 1.524 . S
C3485 C3486 1.397 . S
C3485 C3490 1.363 . S
C3486 H3463 0.950 . S
C3486 C3485 1.397 . S
C3486 C3487 1.334 . S
C3487 H3464 0.950 . S
C3487 C3486 1.334 . S
C3487 C3488 1.287 . S
C3488 C3487 1.287 . S
C3488 C3489 1.524 . S
C3488 H3507 0.913 . S
C3489 H3465 0.950 . S
C3489 C3488 1.524 . S
C3489 C3490 1.415 . S
C3490 H3466 0.950 . S
C3490 C3485 1.363 . S
C3490 C3489 1.415 . S
C3491 H3467 0.951 . S
C3491 C3492 1.366 . S
C3491 C3493 1.388 . S
C3492 C3491 1.366 . S
C3492 C3496 1.385 . S
C3493 H3468 0.951 . S
C3493 C3491 1.388 . S
C3493 C3494 1.366 . S
C3494 C3493 1.366 . S
C3494 C3495 1.414 . S
C3494 C3497 1.499 . S
C3495 H3469 0.950 . S
C3495 C3494 1.414 . S
C3495 C3496 1.374 . S
C3496 H3470 0.950 . S
C3496 C3492 1.385 . S
C3496 C3495 1.374 . S
C3497 C3494 1.499 . S
C3497 C3498 1.373 . S
C3497 C3499 1.389 . S
C3498 H3471 0.950 . S
C3498 C3484 1.377 . S
C3498 C3497 1.373 . S
C3499 C3483 1.377 . S
C3499 C3497 1.389 . S
C3499 C3500 1.524 . S
C3500 C3499 1.524 . S
C3500 C3501 1.397 . S
C3500 C3505 1.363 . S
C3501 H3472 0.950 . S
C3501 C3500 1.397 . S
C3501 C3502 1.334 . S
C3502 H3473 0.950 . S
C3502 C3501 1.334 . S
C3502 C3503 1.287 . S
C3503 C3502 1.287 . S
C3503 C3504 1.524 . S
C3503 H3506 0.999 . S
C3504 H3474 0.950 . S
C3504 C3503 1.524 . S
C3504 C3505 1.415 . S
C3505 H3475 0.950 . S
C3505 C3500 1.363 . S
C3505 C3504 1.415 . S
H3506 C3503 0.999 . S
H3507 C3488 0.913 . S
H3508 C3526 0.951 . S
H3509 C3528 0.951 . S
H3510 C3530 0.950 . S
H3511 C3531 0.950 . S
H3512 C3533 0.950 . S
H3513 C3536 0.950 . S
H3514 C3537 0.950 . S
H3515 C3539 0.950 . S
H3516 C3540 0.950 . S
H3517 C3541 0.951 . S
H3518 C3543 0.951 . S
H3519 C3545 0.950 . S
H3520 C3546 0.950 . S
H3521 C3548 0.950 . S
H3522 C3551 0.950 . S
H3523 C3552 0.950 . S
H3524 C3554 0.950 . S
H3525 C3555 0.950 . S
C3526 H3508 0.951 . S
C3526 C3527 1.366 . S
C3526 C3528 1.388 . S
C3527 C3526 1.366 . S
C3527 C3531 1.385 . S
C3528 H3509 0.951 . S
C3528 C3526 1.388 . S
C3528 C3529 1.366 . S
C3529 C3528 1.366 . S
C3529 C3530 1.414 . S
C3529 C3532 1.499 . S
C3530 H3510 0.950 . S
C3530 C3529 1.414 . S
C3530 C3531 1.374 . S
C3531 H3511 0.950 . S
C3531 C3527 1.385 . S
C3531 C3530 1.374 . S
C3532 C3529 1.499 . S
C3532 C3533 1.373 . S
C3532 C3534 1.389 . S
C3533 H3512 0.950 . S
C3533 C3532 1.373 . S
C3533 C3549 1.377 . S
C3534 C3532 1.389 . S
C3534 C3535 1.524 . S
C3534 C3548 1.377 . S
C3535 C3534 1.524 . S
C3535 C3536 1.397 . S
C3535 C3540 1.363 . S
C3536 H3513 0.950 . S
C3536 C3535 1.397 . S
C3536 C3537 1.334 . S
C3537 H3514 0.950 . S
C3537 C3536 1.334 . S
C3537 C3538 1.287 . S
C3538 C3537 1.287 . S
C3538 C3539 1.524 . S
C3538 H3557 0.913 . S
C3539 H3515 0.950 . S
C3539 C3538 1.524 . S
C3539 C3540 1.415 . S
C3540 H3516 0.950 . S
C3540 C3535 1.363 . S
C3540 C3539 1.415 . S
C3541 H3517 0.951 . S
C3541 C3542 1.366 . S
C3541 C3543 1.388 . S
C3542 C3541 1.366 . S
C3542 C3546 1.385 . S
C3543 H3518 0.951 . S
C3543 C3541 1.388 . S
C3543 C3544 1.366 . S
C3544 C3543 1.366 . S
C3544 C3545 1.414 . S
C3544 C3547 1.499 . S
C3545 H3519 0.950 . S
C3545 C3544 1.414 . S
C3545 C3546 1.374 . S
C3546 H3520 0.950 . S
C3546 C3542 1.385 . S
C3546 C3545 1.374 . S
C3547 C3544 1.499 . S
C3547 C3548 1.373 . S
C3547 C3549 1.389 . S
C3548 H3521 0.950 . S
C3548 C3534 1.377 . S
C3548 C3547 1.373 . S
C3549 C3533 1.377 . S
C3549 C3547 1.389 . S
C3549 C3550 1.524 . S
C3550 C3549 1.524 . S
C3550 C3551 1.397 . S
C3550 C3555 1.363 . S
C3551 H3522 0.950 . S
C3551 C3550 1.397 . S
C3551 C3552 1.334 . S
C3552 H3523 0.950 . S
C3552 C3551 1.334 . S
C3552 C3553 1.287 . S
C3553 C3552 1.287 . S
C3553 C3554 1.524 . S
C3553 H3556 0.999 . S
C3554 H3524 0.950 . S
C3554 C3553 1.524 . S
C3554 C3555 1.415 . S
C3555 H3525 0.950 . S
C3555 C3550 1.363 . S
C3555 C3554 1.415 . S
H3556 C3553 0.999 . S
H3557 C3538 0.913 . S
H3558 C3576 0.951 1_565 S
H3559 C3578 0.951 1_565 S
H3560 C3580 0.950 . S
H3561 C3581 0.950 . S
H3562 C3583 0.950 . S
H3563 C3586 0.950 1_545 S
H3564 C3587 0.950 . S
H3565 C3589 0.950 . S
H3566 C3590 0.950 . S
H3567 C3591 0.951 . S
H3568 C3593 0.951 . S
H3569 C3595 0.950 1_565 S
H3570 C3596 0.950 1_565 S
H3571 C3598 0.950 1_565 S
H3572 C3601 0.950 . S
H3573 C3602 0.950 . S
H3574 C3604 0.950 . S
H3575 C3605 0.950 . S
C3576 H3558 0.951 1_545 S
C3576 C3577 1.366 . S
C3576 C3578 1.388 . S
C3577 C3576 1.366 . S
C3577 C3581 1.385 . S
C3578 H3559 0.951 1_545 S
C3578 C3576 1.388 . S
C3578 C3579 1.366 . S
C3579 C3578 1.366 . S
C3579 C3580 1.414 . S
C3579 C3582 1.499 . S
C3580 H3560 0.950 . S
C3580 C3579 1.414 . S
C3580 C3581 1.374 . S
C3581 H3561 0.950 . S
C3581 C3577 1.385 . S
C3581 C3580 1.374 . S
C3582 C3579 1.499 . S
C3582 C3583 1.373 . S
C3582 C3584 1.389 . S
C3583 H3562 0.950 . S
C3583 C3582 1.373 . S
C3583 C3599 1.377 . S
C3584 C3582 1.389 . S
C3584 C3585 1.524 1_545 S
C3584 C3598 1.377 . S
C3585 C3584 1.524 1_565 S
C3585 C3586 1.397 . S
C3585 C3590 1.363 . S
C3586 H3563 0.950 1_565 S
C3586 C3585 1.397 . S
C3586 C3587 1.334 . S
C3587 H3564 0.950 . S
C3587 C3586 1.334 . S
C3587 C3588 1.287 . S
C3588 C3587 1.287 . S
C3588 C3589 1.524 . S
C3588 H3607 0.913 . S
C3589 H3565 0.950 . S
C3589 C3588 1.524 . S
C3589 C3590 1.415 . S
C3590 H3566 0.950 . S
C3590 C3585 1.363 . S
C3590 C3589 1.415 . S
C3591 H3567 0.951 . S
C3591 C3592 1.366 . S
C3591 C3593 1.388 . S
C3592 C3591 1.366 . S
C3592 C3596 1.385 . S
C3593 H3568 0.951 . S
C3593 C3591 1.388 . S
C3593 C3594 1.366 . S
C3594 C3593 1.366 . S
C3594 C3595 1.414 . S
C3594 C3597 1.499 . S
C3595 H3569 0.950 1_545 S
C3595 C3594 1.414 . S
C3595 C3596 1.374 . S
C3596 H3570 0.950 1_545 S
C3596 C3592 1.385 . S
C3596 C3595 1.374 . S
C3597 C3594 1.499 . S
C3597 C3598 1.373 . S
C3597 C3599 1.389 . S
C3598 H3571 0.950 1_545 S
C3598 C3584 1.377 . S
C3598 C3597 1.373 . S
C3599 C3583 1.377 . S
C3599 C3597 1.389 . S
C3599 C3600 1.524 . S
C3600 C3599 1.524 . S
C3600 C3601 1.397 . S
C3600 C3605 1.363 . S
C3601 H3572 0.950 . S
C3601 C3600 1.397 . S
C3601 C3602 1.334 . S
C3602 H3573 0.950 . S
C3602 C3601 1.334 . S
C3602 C3603 1.287 . S
C3603 C3602 1.287 . S
C3603 C3604 1.524 . S
C3603 H3606 0.999 . S
C3604 H3574 0.950 . S
C3604 C3603 1.524 . S
C3604 C3605 1.415 . S
C3605 H3575 0.950 . S
C3605 C3600 1.363 . S
C3605 C3604 1.415 . S
H3606 C3603 0.999 . S
H3607 C3588 0.913 . S
H3608 C3626 0.954 1_455 S
H3609 C3628 0.951 1_455 S
H3610 C3630 0.950 . S
H3611 C3631 0.950 . S
H3612 C3633 0.950 . S
H3613 C3636 0.950 . S
H3614 C3637 0.950 . S
H3615 C3639 0.950 . S
H3616 C3640 0.950 . S
H3617 C3641 0.951 . S
H3618 C3643 0.951 . S
H3619 C3645 0.951 1_455 S
H3620 C3646 0.946 . S
H3621 C3648 0.950 . S
H3622 C3651 0.950 . S
H3623 C3652 0.950 . S
H3624 C3654 0.950 . S
H3625 C3655 0.950 . S
C3626 H3608 0.954 1_655 S
C3626 C3627 1.366 . S
C3626 C3628 1.388 . S
C3627 C3626 1.366 . S
C3627 C3631 1.385 . S
C3628 H3609 0.951 1_655 S
C3628 C3626 1.388 . S
C3628 C3629 1.366 . S
C3629 C3628 1.366 . S
C3629 C3630 1.414 . S
C3629 C3632 1.499 . S
C3630 H3610 0.950 . S
C3630 C3629 1.414 . S
C3630 C3631 1.374 . S
C3631 H3611 0.950 . S
C3631 C3627 1.385 . S
C3631 C3630 1.374 . S
C3632 C3629 1.499 . S
C3632 C3633 1.373 . S
C3632 C3634 1.389 1_655 S
C3633 H3612 0.950 . S
C3633 C3632 1.373 . S
C3633 C3649 1.377 . S
C3634 C3632 1.389 1_455 S
C3634 C3635 1.524 . S
C3634 C3648 1.377 . S
C3635 C3634 1.524 . S
C3635 C3636 1.397 . S
C3635 C3640 1.363 . S
C3636 H3613 0.950 . S
C3636 C3635 1.397 . S
C3636 C3637 1.334 . S
C3637 H3614 0.950 . S
C3637 C3636 1.334 . S
C3637 C3638 1.287 . S
C3638 C3637 1.287 . S
C3638 C3639 1.524 . S
C3638 H3657 0.913 . S
C3639 H3615 0.950 . S
C3639 C3638 1.524 . S
C3639 C3640 1.415 . S
C3640 H3616 0.950 . S
C3640 C3635 1.363 . S
C3640 C3639 1.415 . S
C3641 H3617 0.951 . S
C3641 C3642 1.366 . S
C3641 C3643 1.388 . S
C3642 C3641 1.366 . S
C3642 C3646 1.369 1_655 S
C3643 H3618 0.951 . S
C3643 C3641 1.388 . S
C3643 C3644 1.366 . S
C3644 C3643 1.366 . S
C3644 C3645 1.414 . S
C3644 C3647 1.499 . S
C3645 H3619 0.951 1_655 S
C3645 C3644 1.414 . S
C3645 C3646 1.395 1_655 S
C3646 H3620 0.946 . S
C3646 C3642 1.369 1_455 S
C3646 C3645 1.395 1_455 S
C3647 C3644 1.499 . S
C3647 C3648 1.373 1_655 S
C3647 C3649 1.389 . S
C3648 H3621 0.950 . S
C3648 C3634 1.377 . S
C3648 C3647 1.373 1_455 S
C3649 C3633 1.377 . S
C3649 C3647 1.389 . S
C3649 C3650 1.524 . S
C3650 C3649 1.524 . S
C3650 C3651 1.397 . S
C3650 C3655 1.363 . S
C3651 H3622 0.950 . S
C3651 C3650 1.397 . S
C3651 C3652 1.334 . S
C3652 H3623 0.950 . S
C3652 C3651 1.334 . S
C3652 C3653 1.287 . S
C3653 C3652 1.287 . S
C3653 C3654 1.524 . S
C3653 H3656 0.999 . S
C3654 H3624 0.950 . S
C3654 C3653 1.524 . S
C3654 C3655 1.415 . S
C3655 H3625 0.950 . S
C3655 C3650 1.363 . S
C3655 C3654 1.415 . S
H3656 C3653 0.999 . S
H3657 C3638 0.913 . S
H3658 C3676 0.951 . S
H3659 C3678 0.951 . S
H3660 C3680 0.950 . S
H3661 C3681 0.950 . S
H3662 C3683 0.950 . S
H3663 C3686 0.950 . S
H3664 C3687 0.950 . S
H3665 C3689 0.950 . S
H3666 C3690 0.950 . S
H3667 C3691 0.951 . S
H3668 C3693 0.951 . S
H3669 C3695 0.950 . S
H3670 C3696 0.950 . S
H3671 C3698 0.950 . S
H3672 C3701 0.950 . S
H3673 C3702 0.950 . S
H3674 C3704 0.950 . S
H3675 C3705 0.950 . S
C3676 H3658 0.951 . S
C3676 C3677 1.366 . S
C3676 C3678 1.388 . S
C3677 C3676 1.366 . S
C3677 C3681 1.385 . S
C3678 H3659 0.951 . S
C3678 C3676 1.388 . S
C3678 C3679 1.366 . S
C3679 C3678 1.366 . S
C3679 C3680 1.414 . S
C3679 C3682 1.499 . S
C3680 H3660 0.950 . S
C3680 C3679 1.414 . S
C3680 C3681 1.374 . S
C3681 H3661 0.950 . S
C3681 C3677 1.385 . S
C3681 C3680 1.374 . S
C3682 C3679 1.499 . S
C3682 C3683 1.373 . S
C3682 C3684 1.389 . S
C3683 H3662 0.950 . S
C3683 C3682 1.373 . S
C3683 C3699 1.377 . S
C3684 C3682 1.389 . S
C3684 C3685 1.524 . S
C3684 C3698 1.377 . S
C3685 C3684 1.524 . S
C3685 C3686 1.397 . S
C3685 C3690 1.363 . S
C3686 H3663 0.950 . S
C3686 C3685 1.397 . S
C3686 C3687 1.334 . S
C3687 H3664 0.950 . S
C3687 C3686 1.334 . S
C3687 C3688 1.287 . S
C3688 C3687 1.287 . S
C3688 C3689 1.524 . S
C3688 H3707 0.913 . S
C3689 H3665 0.950 . S
C3689 C3688 1.524 . S
C3689 C3690 1.415 . S
C3690 H3666 0.950 . S
C3690 C3685 1.363 . S
C3690 C3689 1.415 . S
C3691 H3667 0.951 . S
C3691 C3692 1.366 . S
C3691 C3693 1.388 . S
C3692 C3691 1.366 . S
C3692 C3696 1.385 . S
C3693 H3668 0.951 . S
C3693 C3691 1.388 . S
C3693 C3694 1.366 . S
C3694 C3693 1.366 . S
C3694 C3695 1.414 . S
C3694 C3697 1.499 . S
C3695 H3669 0.950 . S
C3695 C3694 1.414 . S
C3695 C3696 1.374 . S
C3696 H3670 0.950 . S
C3696 C3692 1.385 . S
C3696 C3695 1.374 . S
C3697 C3694 1.499 . S
C3697 C3698 1.373 . S
C3697 C3699 1.389 . S
C3698 H3671 0.950 . S
C3698 C3684 1.377 . S
C3698 C3697 1.373 . S
C3699 C3683 1.377 . S
C3699 C3697 1.389 . S
C3699 C3700 1.524 . S
C3700 C3699 1.524 . S
C3700 C3701 1.397 . S
C3700 C3705 1.363 . S
C3701 H3672 0.950 . S
C3701 C3700 1.397 . S
C3701 C3702 1.334 . S
C3702 H3673 0.950 . S
C3702 C3701 1.334 . S
C3702 C3703 1.287 . S
C3703 C3702 1.287 . S
C3703 C3704 1.524 . S
C3703 H3706 0.999 . S
C3704 H3674 0.950 . S
C3704 C3703 1.524 . S
C3704 C3705 1.415 . S
C3705 H3675 0.950 . S
C3705 C3700 1.363 . S
C3705 C3704 1.415 . S
H3706 C3703 0.999 . S
H3707 C3688 0.913 . S
H3708 C3726 0.951 . S
H3709 C3728 0.951 . S
H3710 C3730 0.950 . S
H3711 C3731 0.950 . S
H3712 C3733 0.950 . S
H3713 C3736 0.950 . S
H3714 C3737 0.950 . S
H3715 C3739 0.950 . S
H3716 C3740 0.950 . S
H3717 C3741 0.951 . S
H3718 C3743 0.951 . S
H3719 C3745 0.950 . S
H3720 C3746 0.950 . S
H3721 C3748 0.950 . S
H3722 C3751 0.950 . S
H3723 C3752 0.950 . S
H3724 C3754 0.950 . S
H3725 C3755 0.950 . S
C3726 H3708 0.951 . S
C3726 C3727 1.366 . S
C3726 C3728 1.388 . S
C3727 C3726 1.366 . S
C3727 C3731 1.385 . S
C3728 H3709 0.951 . S
C3728 C3726 1.388 . S
C3728 C3729 1.366 . S
C3729 C3728 1.366 . S
C3729 C3730 1.414 . S
C3729 C3732 1.499 . S
C3730 H3710 0.950 . S
C3730 C3729 1.414 . S
C3730 C3731 1.374 . S
C3731 H3711 0.950 . S
C3731 C3727 1.385 . S
C3731 C3730 1.374 . S
C3732 C3729 1.499 . S
C3732 C3733 1.373 . S
C3732 C3734 1.389 . S
C3733 H3712 0.950 . S
C3733 C3732 1.373 . S
C3733 C3749 1.377 . S
C3734 C3732 1.389 . S
C3734 C3735 1.524 . S
C3734 C3748 1.377 . S
C3735 C3734 1.524 . S
C3735 C3736 1.397 . S
C3735 C3740 1.363 . S
C3736 H3713 0.950 . S
C3736 C3735 1.397 . S
C3736 C3737 1.334 . S
C3737 H3714 0.950 . S
C3737 C3736 1.334 . S
C3737 C3738 1.287 . S
C3738 C3737 1.287 . S
C3738 C3739 1.524 . S
C3738 H3757 0.913 . S
C3739 H3715 0.950 . S
C3739 C3738 1.524 . S
C3739 C3740 1.415 . S
C3740 H3716 0.950 . S
C3740 C3735 1.363 . S
C3740 C3739 1.415 . S
C3741 H3717 0.951 . S
C3741 C3742 1.366 . S
C3741 C3743 1.388 . S
C3742 C3741 1.366 . S
C3742 C3746 1.385 . S
C3743 H3718 0.951 . S
C3743 C3741 1.388 . S
C3743 C3744 1.366 . S
C3744 C3743 1.366 . S
C3744 C3745 1.414 . S
C3744 C3747 1.499 . S
C3745 H3719 0.950 . S
C3745 C3744 1.414 . S
C3745 C3746 1.374 . S
C3746 H3720 0.950 . S
C3746 C3742 1.385 . S
C3746 C3745 1.374 . S
C3747 C3744 1.499 . S
C3747 C3748 1.373 . S
C3747 C3749 1.389 . S
C3748 H3721 0.950 . S
C3748 C3734 1.377 . S
C3748 C3747 1.373 . S
C3749 C3733 1.377 . S
C3749 C3747 1.389 . S
C3749 C3750 1.524 . S
C3750 C3749 1.524 . S
C3750 C3751 1.397 . S
C3750 C3755 1.363 . S
C3751 H3722 0.950 . S
C3751 C3750 1.397 . S
C3751 C3752 1.334 . S
C3752 H3723 0.950 . S
C3752 C3751 1.334 . S
C3752 C3753 1.287 . S
C3753 C3752 1.287 . S
C3753 C3754 1.524 . S
C3753 H3756 0.999 . S
C3754 H3724 0.950 . S
C3754 C3753 1.524 . S
C3754 C3755 1.415 . S
C3755 H3725 0.950 . S
C3755 C3750 1.363 . S
C3755 C3754 1.415 . S
H3756 C3753 0.999 . S
H3757 C3738 0.913 . S
H3758 C3776 0.951 . S
H3759 C3778 0.951 . S
H3760 C3780 0.950 . S
H3761 C3781 0.950 . S
H3762 C3783 0.950 . S
H3763 C3786 0.950 . S
H3764 C3787 0.950 . S
H3765 C3789 0.950 . S
H3766 C3790 0.950 . S
H3767 C3791 0.951 . S
H3768 C3793 0.951 . S
H3769 C3795 0.950 . S
H3770 C3796 0.950 . S
H3771 C3798 0.950 . S
H3772 C3801 0.950 . S
H3773 C3802 0.950 . S
H3774 C3804 0.950 . S
H3775 C3805 0.950 . S
C3776 H3758 0.951 . S
C3776 C3777 1.366 . S
C3776 C3778 1.388 . S
C3777 C3776 1.366 . S
C3777 C3781 1.385 . S
C3778 H3759 0.951 . S
C3778 C3776 1.388 . S
C3778 C3779 1.366 . S
C3779 C3778 1.366 . S
C3779 C3780 1.414 . S
C3779 C3782 1.499 . S
C3780 H3760 0.950 . S
C3780 C3779 1.414 . S
C3780 C3781 1.374 . S
C3781 H3761 0.950 . S
C3781 C3777 1.385 . S
C3781 C3780 1.374 . S
C3782 C3779 1.499 . S
C3782 C3783 1.373 . S
C3782 C3784 1.389 . S
C3783 H3762 0.950 . S
C3783 C3782 1.373 . S
C3783 C3799 1.377 . S
C3784 C3782 1.389 . S
C3784 C3785 1.524 . S
C3784 C3798 1.377 . S
C3785 C3784 1.524 . S
C3785 C3786 1.397 . S
C3785 C3790 1.363 . S
C3786 H3763 0.950 . S
C3786 C3785 1.397 . S
C3786 C3787 1.334 . S
C3787 H3764 0.950 . S
C3787 C3786 1.334 . S
C3787 C3788 1.287 . S
C3788 C3787 1.287 . S
C3788 C3789 1.524 . S
C3788 H3807 0.913 . S
C3789 H3765 0.950 . S
C3789 C3788 1.524 . S
C3789 C3790 1.415 . S
C3790 H3766 0.950 . S
C3790 C3785 1.363 . S
C3790 C3789 1.415 . S
C3791 H3767 0.951 . S
C3791 C3792 1.366 . S
C3791 C3793 1.388 . S
C3792 C3791 1.366 . S
C3792 C3796 1.385 . S
C3793 H3768 0.951 . S
C3793 C3791 1.388 . S
C3793 C3794 1.366 . S
C3794 C3793 1.366 . S
C3794 C3795 1.414 . S
C3794 C3797 1.499 . S
C3795 H3769 0.950 . S
C3795 C3794 1.414 . S
C3795 C3796 1.374 . S
C3796 H3770 0.950 . S
C3796 C3792 1.385 . S
C3796 C3795 1.374 . S
C3797 C3794 1.499 . S
C3797 C3798 1.373 . S
C3797 C3799 1.389 . S
C3798 H3771 0.950 . S
C3798 C3784 1.377 . S
C3798 C3797 1.373 . S
C3799 C3783 1.377 . S
C3799 C3797 1.389 . S
C3799 C3800 1.524 . S
C3800 C3799 1.524 . S
C3800 C3801 1.397 . S
C3800 C3805 1.363 . S
C3801 H3772 0.950 . S
C3801 C3800 1.397 . S
C3801 C3802 1.334 . S
C3802 H3773 0.950 . S
C3802 C3801 1.334 . S
C3802 C3803 1.287 . S
C3803 C3802 1.287 . S
C3803 C3804 1.524 . S
C3803 H3806 0.999 . S
C3804 H3774 0.950 . S
C3804 C3803 1.524 . S
C3804 C3805 1.415 . S
C3805 H3775 0.950 . S
C3805 C3800 1.363 . S
C3805 C3804 1.415 . S
H3806 C3803 0.999 . S
H3807 C3788 0.913 . S
H3808 C3826 0.951 . S
H3809 C3828 0.951 . S
H3810 C3830 0.950 . S
H3811 C3831 0.950 . S
H3812 C3833 0.950 . S
H3813 C3836 0.950 . S
H3814 C3837 0.950 . S
H3815 C3839 0.950 . S
H3816 C3840 0.950 . S
H3817 C3841 0.951 . S
H3818 C3843 0.951 . S
H3819 C3845 0.950 . S
H3820 C3846 0.950 . S
H3821 C3848 0.950 . S
H3822 C3851 0.950 . S
H3823 C3852 0.950 . S
H3824 C3854 0.950 . S
H3825 C3855 0.950 . S
C3826 H3808 0.951 . S
C3826 C3827 1.366 . S
C3826 C3828 1.388 . S
C3827 C3826 1.366 . S
C3827 C3831 1.385 . S
C3828 H3809 0.951 . S
C3828 C3826 1.388 . S
C3828 C3829 1.366 . S
C3829 C3828 1.366 . S
C3829 C3830 1.414 . S
C3829 C3832 1.499 . S
C3830 H3810 0.950 . S
C3830 C3829 1.414 . S
C3830 C3831 1.374 . S
C3831 H3811 0.950 . S
C3831 C3827 1.385 . S
C3831 C3830 1.374 . S
C3832 C3829 1.499 . S
C3832 C3833 1.373 . S
C3832 C3834 1.389 . S
C3833 H3812 0.950 . S
C3833 C3832 1.373 . S
C3833 C3849 1.377 . S
C3834 C3832 1.389 . S
C3834 C3835 1.524 . S
C3834 C3848 1.377 . S
C3835 C3834 1.524 . S
C3835 C3836 1.397 . S
C3835 C3840 1.363 . S
C3836 H3813 0.950 . S
C3836 C3835 1.397 . S
C3836 C3837 1.334 . S
C3837 H3814 0.950 . S
C3837 C3836 1.334 . S
C3837 C3838 1.287 . S
C3838 C3837 1.287 . S
C3838 C3839 1.524 . S
C3838 H3857 0.913 . S
C3839 H3815 0.950 . S
C3839 C3838 1.524 . S
C3839 C3840 1.415 . S
C3840 H3816 0.950 . S
C3840 C3835 1.363 . S
C3840 C3839 1.415 . S
C3841 H3817 0.951 . S
C3841 C3842 1.366 . S
C3841 C3843 1.388 . S
C3842 C3841 1.366 . S
C3842 C3846 1.385 . S
C3843 H3818 0.951 . S
C3843 C3841 1.388 . S
C3843 C3844 1.366 . S
C3844 C3843 1.366 . S
C3844 C3845 1.414 . S
C3844 C3847 1.499 . S
C3845 H3819 0.950 . S
C3845 C3844 1.414 . S
C3845 C3846 1.374 . S
C3846 H3820 0.950 . S
C3846 C3842 1.385 . S
C3846 C3845 1.374 . S
C3847 C3844 1.499 . S
C3847 C3848 1.373 . S
C3847 C3849 1.389 . S
C3848 H3821 0.950 . S
C3848 C3834 1.377 . S
C3848 C3847 1.373 . S
C3849 C3833 1.377 . S
C3849 C3847 1.389 . S
C3849 C3850 1.524 . S
C3850 C3849 1.524 . S
C3850 C3851 1.397 . S
C3850 C3855 1.363 . S
C3851 H3822 0.950 . S
C3851 C3850 1.397 . S
C3851 C3852 1.334 . S
C3852 H3823 0.950 . S
C3852 C3851 1.334 . S
C3852 C3853 1.287 . S
C3853 C3852 1.287 . S
C3853 C3854 1.524 . S
C3853 H3856 0.999 . S
C3854 H3824 0.950 . S
C3854 C3853 1.524 . S
C3854 C3855 1.415 . S
C3855 H3825 0.950 . S
C3855 C3850 1.363 . S
C3855 C3854 1.415 . S
H3856 C3853 0.999 . S
H3857 C3838 0.913 . S
H3858 C3876 0.951 . S
H3859 C3878 0.951 . S
H3860 C3880 0.950 . S
H3861 C3881 0.950 . S
H3862 C3883 0.950 . S
H3863 C3886 0.950 . S
H3864 C3887 0.950 . S
H3865 C3889 0.950 . S
H3866 C3890 0.950 . S
H3867 C3891 0.951 . S
H3868 C3893 0.951 . S
H3869 C3895 0.950 . S
H3870 C3896 0.950 . S
H3871 C3898 0.950 . S
H3872 C3901 0.950 . S
H3873 C3902 0.950 . S
H3874 C3904 0.950 . S
H3875 C3905 0.950 . S
C3876 H3858 0.951 . S
C3876 C3877 1.366 . S
C3876 C3878 1.388 . S
C3877 C3876 1.366 . S
C3877 C3881 1.385 . S
C3878 H3859 0.951 . S
C3878 C3876 1.388 . S
C3878 C3879 1.366 . S
C3879 C3878 1.366 . S
C3879 C3880 1.414 . S
C3879 C3882 1.499 . S
C3880 H3860 0.950 . S
C3880 C3879 1.414 . S
C3880 C3881 1.374 . S
C3881 H3861 0.950 . S
C3881 C3877 1.385 . S
C3881 C3880 1.374 . S
C3882 C3879 1.499 . S
C3882 C3883 1.373 . S
C3882 C3884 1.389 . S
C3883 H3862 0.950 . S
C3883 C3882 1.373 . S
C3883 C3899 1.377 . S
C3884 C3882 1.389 . S
C3884 C3885 1.524 . S
C3884 C3898 1.377 . S
C3885 C3884 1.524 . S
C3885 C3886 1.397 . S
C3885 C3890 1.363 . S
C3886 H3863 0.950 . S
C3886 C3885 1.397 . S
C3886 C3887 1.334 . S
C3887 H3864 0.950 . S
C3887 C3886 1.334 . S
C3887 C3888 1.287 . S
C3888 C3887 1.287 . S
C3888 C3889 1.524 . S
C3888 H3907 0.913 . S
C3889 H3865 0.950 . S
C3889 C3888 1.524 . S
C3889 C3890 1.415 . S
C3890 H3866 0.950 . S
C3890 C3885 1.363 . S
C3890 C3889 1.415 . S
C3891 H3867 0.951 . S
C3891 C3892 1.366 . S
C3891 C3893 1.388 . S
C3892 C3891 1.366 . S
C3892 C3896 1.385 . S
C3893 H3868 0.951 . S
C3893 C3891 1.388 . S
C3893 C3894 1.366 . S
C3894 C3893 1.366 . S
C3894 C3895 1.414 . S
C3894 C3897 1.499 . S
C3895 H3869 0.950 . S
C3895 C3894 1.414 . S
C3895 C3896 1.374 . S
C3896 H3870 0.950 . S
C3896 C3892 1.385 . S
C3896 C3895 1.374 . S
C3897 C3894 1.499 . S
C3897 C3898 1.373 . S
C3897 C3899 1.389 . S
C3898 H3871 0.950 . S
C3898 C3884 1.377 . S
C3898 C3897 1.373 . S
C3899 C3883 1.377 . S
C3899 C3897 1.389 . S
C3899 C3900 1.524 . S
C3900 C3899 1.524 . S
C3900 C3901 1.397 . S
C3900 C3905 1.363 . S
C3901 H3872 0.950 . S
C3901 C3900 1.397 . S
C3901 C3902 1.334 . S
C3902 H3873 0.950 . S
C3902 C3901 1.334 . S
C3902 C3903 1.287 . S
C3903 C3902 1.287 . S
C3903 C3904 1.524 . S
C3903 H3906 0.999 . S
C3904 H3874 0.950 . S
C3904 C3903 1.524 . S
C3904 C3905 1.415 . S
C3905 H3875 0.950 . S
C3905 C3900 1.363 . S
C3905 C3904 1.415 . S
H3906 C3903 0.999 . S
H3907 C3888 0.913 . S
H3908 C3926 0.951 . S
H3909 C3928 0.951 . S
H3910 C3930 0.950 . S
H3911 C3931 0.950 . S
H3912 C3933 0.950 . S
H3913 C3936 0.950 . S
H3914 C3937 0.950 . S
H3915 C3939 0.950 . S
H3916 C3940 0.950 . S
H3917 C3941 0.951 . S
H3918 C3943 0.951 . S
H3919 C3945 0.950 . S
H3920 C3946 0.950 . S
H3921 C3948 0.950 . S
H3922 C3951 0.950 . S
H3923 C3952 0.950 . S
H3924 C3954 0.950 . S
H3925 C3955 0.950 . S
C3926 H3908 0.951 . S
C3926 C3927 1.366 . S
C3926 C3928 1.388 . S
C3927 C3926 1.366 . S
C3927 C3931 1.385 . S
C3928 H3909 0.951 . S
C3928 C3926 1.388 . S
C3928 C3929 1.366 . S
C3929 C3928 1.366 . S
C3929 C3930 1.414 . S
C3929 C3932 1.499 . S
C3930 H3910 0.950 . S
C3930 C3929 1.414 . S
C3930 C3931 1.374 . S
C3931 H3911 0.950 . S
C3931 C3927 1.385 . S
C3931 C3930 1.374 . S
C3932 C3929 1.499 . S
C3932 C3933 1.373 . S
C3932 C3934 1.389 . S
C3933 H3912 0.950 . S
C3933 C3932 1.373 . S
C3933 C3949 1.377 . S
C3934 C3932 1.389 . S
C3934 C3935 1.524 . S
C3934 C3948 1.377 . S
C3935 C3934 1.524 . S
C3935 C3936 1.397 . S
C3935 C3940 1.363 . S
C3936 H3913 0.950 . S
C3936 C3935 1.397 . S
C3936 C3937 1.334 . S
C3937 H3914 0.950 . S
C3937 C3936 1.334 . S
C3937 C3938 1.287 . S
C3938 C3937 1.287 . S
C3938 C3939 1.524 . S
C3938 H3957 0.913 . S
C3939 H3915 0.950 . S
C3939 C3938 1.524 . S
C3939 C3940 1.415 . S
C3940 H3916 0.950 . S
C3940 C3935 1.363 . S
C3940 C3939 1.415 . S
C3941 H3917 0.951 . S
C3941 C3942 1.366 . S
C3941 C3943 1.388 . S
C3942 C3941 1.366 . S
C3942 C3946 1.385 . S
C3943 H3918 0.951 . S
C3943 C3941 1.388 . S
C3943 C3944 1.366 . S
C3944 C3943 1.366 . S
C3944 C3945 1.414 . S
C3944 C3947 1.499 . S
C3945 H3919 0.950 . S
C3945 C3944 1.414 . S
C3945 C3946 1.374 . S
C3946 H3920 0.950 . S
C3946 C3942 1.385 . S
C3946 C3945 1.374 . S
C3947 C3944 1.499 . S
C3947 C3948 1.373 . S
C3947 C3949 1.389 . S
C3948 H3921 0.950 . S
C3948 C3934 1.377 . S
C3948 C3947 1.373 . S
C3949 C3933 1.377 . S
C3949 C3947 1.389 . S
C3949 C3950 1.524 . S
C3950 C3949 1.524 . S
C3950 C3951 1.397 . S
C3950 C3955 1.363 . S
C3951 H3922 0.950 . S
C3951 C3950 1.397 . S
C3951 C3952 1.334 . S
C3952 H3923 0.950 . S
C3952 C3951 1.334 . S
C3952 C3953 1.287 . S
C3953 C3952 1.287 . S
C3953 C3954 1.524 . S
C3953 H3956 0.999 . S
C3954 H3924 0.950 . S
C3954 C3953 1.524 . S
C3954 C3955 1.415 . S
C3955 H3925 0.950 . S
C3955 C3950 1.363 . S
C3955 C3954 1.415 . S
H3956 C3953 0.999 . S
H3957 C3938 0.913 . S
H3958 C3976 0.951 . S
H3959 C3978 0.951 . S
H3960 C3980 0.950 . S
H3961 C3981 0.950 . S
H3962 C3983 0.950 . S
H3963 C3986 0.950 . S
H3964 C3987 0.950 . S
H3965 C3989 0.950 . S
H3966 C3990 0.950 . S
H3967 C3991 0.951 . S
H3968 C3993 0.951 . S
H3969 C3995 0.950 . S
H3970 C3996 0.950 . S
H3971 C3998 0.950 . S
H3972 C4001 0.950 . S
H3973 C4002 0.950 . S
H3974 C4004 0.950 . S
H3975 C4005 0.950 . S
C3976 H3958 0.951 . S
C3976 C3977 1.366 . S
C3976 C3978 1.388 . S
C3977 C3976 1.366 . S
C3977 C3981 1.385 . S
C3978 H3959 0.951 . S
C3978 C3976 1.388 . S
C3978 C3979 1.366 . S
C3979 C3978 1.366 . S
C3979 C3980 1.414 . S
C3979 C3982 1.499 . S
C3980 H3960 0.950 . S
C3980 C3979 1.414 . S
C3980 C3981 1.374 . S
C3981 H3961 0.950 . S
C3981 C3977 1.385 . S
C3981 C3980 1.374 . S
C3982 C3979 1.499 . S
C3982 C3983 1.373 . S
C3982 C3984 1.389 . S
C3983 H3962 0.950 . S
C3983 C3982 1.373 . S
C3983 C3999 1.377 . S
C3984 C3982 1.389 . S
C3984 C3985 1.524 . S
C3984 C3998 1.377 . S
C3985 C3984 1.524 . S
C3985 C3986 1.397 . S
C3985 C3990 1.363 . S
C3986 H3963 0.950 . S
C3986 C3985 1.397 . S
C3986 C3987 1.334 . S
C3987 H3964 0.950 . S
C3987 C3986 1.334 . S
C3987 C3988 1.287 . S
C3988 C3987 1.287 . S
C3988 C3989 1.524 . S
C3988 H4007 0.913 . S
C3989 H3965 0.950 . S
C3989 C3988 1.524 . S
C3989 C3990 1.415 . S
C3990 H3966 0.950 . S
C3990 C3985 1.363 . S
C3990 C3989 1.415 . S
C3991 H3967 0.951 . S
C3991 C3992 1.366 . S
C3991 C3993 1.388 . S
C3992 C3991 1.366 . S
C3992 C3996 1.385 . S
C3993 H3968 0.951 . S
C3993 C3991 1.388 . S
C3993 C3994 1.366 . S
C3994 C3993 1.366 . S
C3994 C3995 1.414 . S
C3994 C3997 1.499 . S
C3995 H3969 0.950 . S
C3995 C3994 1.414 . S
C3995 C3996 1.374 . S
C3996 H3970 0.950 . S
C3996 C3992 1.385 . S
C3996 C3995 1.374 . S
C3997 C3994 1.499 . S
C3997 C3998 1.373 . S
C3997 C3999 1.389 . S
C3998 H3971 0.950 . S
C3998 C3984 1.377 . S
C3998 C3997 1.373 . S
C3999 C3983 1.377 . S
C3999 C3997 1.389 . S
C3999 C4000 1.524 . S
C4000 C3999 1.524 . S
C4000 C4001 1.397 . S
C4000 C4005 1.363 . S
C4001 H3972 0.950 . S
C4001 C4000 1.397 . S
C4001 C4002 1.334 . S
C4002 H3973 0.950 . S
C4002 C4001 1.334 . S
C4002 C4003 1.287 . S
C4003 C4002 1.287 . S
C4003 C4004 1.524 . S
C4003 H4006 0.999 . S
C4004 H3974 0.950 . S
C4004 C4003 1.524 . S
C4004 C4005 1.415 . S
C4005 H3975 0.950 . S
C4005 C4000 1.363 . S
C4005 C4004 1.415 . S
H4006 C4003 0.999 . S
H4007 C3988 0.913 . S
H4008 C4026 0.951 . S
H4009 C4028 0.951 . S
H4010 C4030 0.950 . S
H4011 C4031 0.950 . S
H4012 C4033 0.950 . S
H4013 C4036 0.950 . S
H4014 C4037 0.950 . S
H4015 C4039 0.950 . S
H4016 C4040 0.950 . S
H4017 C4041 0.951 . S
H4018 C4043 0.951 . S
H4019 C4045 0.950 . S
H4020 C4046 0.950 . S
H4021 C4048 0.950 . S
H4022 C4051 0.950 . S
H4023 C4052 0.950 . S
H4024 C4054 0.950 . S
H4025 C4055 0.950 . S
C4026 H4008 0.951 . S
C4026 C4027 1.366 . S
C4026 C4028 1.388 . S
C4027 C4026 1.366 . S
C4027 C4031 1.385 1_655 S
C4028 H4009 0.951 . S
C4028 C4026 1.388 . S
C4028 C4029 1.366 . S
C4029 C4028 1.366 . S
C4029 C4030 1.414 1_655 S
C4029 C4032 1.499 . S
C4030 H4010 0.950 . S
C4030 C4029 1.414 1_455 S
C4030 C4031 1.374 . S
C4031 H4011 0.950 . S
C4031 C4027 1.385 1_455 S
C4031 C4030 1.374 . S
C4032 C4029 1.499 . S
C4032 C4033 1.373 . S
C4032 C4034 1.389 . S
C4033 H4012 0.950 . S
C4033 C4032 1.373 . S
C4033 C4049 1.377 . S
C4034 C4032 1.389 . S
C4034 C4035 1.524 . S
C4034 C4048 1.377 . S
C4035 C4034 1.524 . S
C4035 C4036 1.397 1_655 S
C4035 C4040 1.363 . S
C4036 H4013 0.950 . S
C4036 C4035 1.397 1_455 S
C4036 C4037 1.334 . S
C4037 H4014 0.950 . S
C4037 C4036 1.334 . S
C4037 C4038 1.287 1_455 S
C4038 C4037 1.287 1_655 S
C4038 C4039 1.524 . S
C4038 H4057 0.913 . S
C4039 H4015 0.950 . S
C4039 C4038 1.524 . S
C4039 C4040 1.415 . S
C4040 H4016 0.950 . S
C4040 C4035 1.363 . S
C4040 C4039 1.415 . S
C4041 H4017 0.951 . S
C4041 C4042 1.358 1_455 S
C4041 C4043 1.388 . S
C4042 C4041 1.358 1_655 S
C4042 C4046 1.401 . S
C4043 H4018 0.951 . S
C4043 C4041 1.388 . S
C4043 C4044 1.366 1_455 S
C4044 C4043 1.366 1_655 S
C4044 C4045 1.414 . S
C4044 C4047 1.499 . S
C4045 H4019 0.950 . S
C4045 C4044 1.414 . S
C4045 C4046 1.374 . S
C4046 H4020 0.950 . S
C4046 C4042 1.401 . S
C4046 C4045 1.374 . S
C4047 C4044 1.499 . S
C4047 C4048 1.373 . S
C4047 C4049 1.389 . S
C4048 H4021 0.950 . S
C4048 C4034 1.377 . S
C4048 C4047 1.373 . S
C4049 C4033 1.377 . S
C4049 C4047 1.389 . S
C4049 C4050 1.524 . S
C4050 C4049 1.524 . S
C4050 C4051 1.397 . S
C4050 C4055 1.363 1_655 S
C4051 H4022 0.950 . S
C4051 C4050 1.397 . S
C4051 C4052 1.334 . S
C4052 H4023 0.950 . S
C4052 C4051 1.334 . S
C4052 C4053 1.287 . S
C4053 C4052 1.287 . S
C4053 C4054 1.524 1_655 S
C4053 H4056 0.999 . S
C4054 H4024 0.950 . S
C4054 C4053 1.524 1_455 S
C4054 C4055 1.415 . S
C4055 H4025 0.950 . S
C4055 C4050 1.363 1_455 S
C4055 C4054 1.415 . S
H4056 C4053 0.999 . S
H4057 C4038 0.913 . S
H4058 C4076 0.951 . S
H4059 C4078 0.951 . S
H4060 C4080 0.950 . S
H4061 C4081 0.950 . S
H4062 C4083 0.950 . S
H4063 C4086 0.950 . S
H4064 C4087 0.950 . S
H4065 C4089 0.950 . S
H4066 C4090 0.950 . S
H4067 C4091 0.951 . S
H4068 C4093 0.951 . S
H4069 C4095 0.950 . S
H4070 C4096 0.950 . S
H4071 C4098 0.950 . S
H4072 C4101 0.950 . S
H4073 C4102 0.950 . S
H4074 C4104 0.950 . S
H4075 C4105 0.950 . S
C4076 H4058 0.951 . S
C4076 C4077 1.366 . S
C4076 C4078 1.388 . S
C4077 C4076 1.366 . S
C4077 C4081 1.385 . S
C4078 H4059 0.951 . S
C4078 C4076 1.388 . S
C4078 C4079 1.366 . S
C4079 C4078 1.366 . S
C4079 C4080 1.414 . S
C4079 C4082 1.499 . S
C4080 H4060 0.950 . S
C4080 C4079 1.414 . S
C4080 C4081 1.374 . S
C4081 H4061 0.950 . S
C4081 C4077 1.385 . S
C4081 C4080 1.374 . S
C4082 C4079 1.499 . S
C4082 C4083 1.373 . S
C4082 C4084 1.389 . S
C4083 H4062 0.950 . S
C4083 C4082 1.373 . S
C4083 C4099 1.377 . S
C4084 C4082 1.389 . S
C4084 C4085 1.524 . S
C4084 C4098 1.377 . S
C4085 C4084 1.524 . S
C4085 C4086 1.397 . S
C4085 C4090 1.363 . S
C4086 H4063 0.950 . S
C4086 C4085 1.397 . S
C4086 C4087 1.334 . S
C4087 H4064 0.950 . S
C4087 C4086 1.334 . S
C4087 C4088 1.287 . S
C4088 C4087 1.287 . S
C4088 C4089 1.524 . S
C4088 H4107 0.913 . S
C4089 H4065 0.950 . S
C4089 C4088 1.524 . S
C4089 C4090 1.415 . S
C4090 H4066 0.950 . S
C4090 C4085 1.363 . S
C4090 C4089 1.415 . S
C4091 H4067 0.951 . S
C4091 C4092 1.366 . S
C4091 C4093 1.388 . S
C4092 C4091 1.366 . S
C4092 C4096 1.385 . S
C4093 H4068 0.951 . S
C4093 C4091 1.388 . S
C4093 C4094 1.366 . S
C4094 C4093 1.366 . S
C4094 C4095 1.414 . S
C4094 C4097 1.499 . S
C4095 H4069 0.950 . S
C4095 C4094 1.414 . S
C4095 C4096 1.374 . S
C4096 H4070 0.950 . S
C4096 C4092 1.385 . S
C4096 C4095 1.374 . S
C4097 C4094 1.499 . S
C4097 C4098 1.373 . S
C4097 C4099 1.389 . S
C4098 H4071 0.950 . S
C4098 C4084 1.377 . S
C4098 C4097 1.373 . S
C4099 C4083 1.377 . S
C4099 C4097 1.389 . S
C4099 C4100 1.524 . S
C4100 C4099 1.524 . S
C4100 C4101 1.397 . S
C4100 C4105 1.363 . S
C4101 H4072 0.950 . S
C4101 C4100 1.397 . S
C4101 C4102 1.334 . S
C4102 H4073 0.950 . S
C4102 C4101 1.334 . S
C4102 C4103 1.287 . S
C4103 C4102 1.287 . S
C4103 C4104 1.524 . S
C4103 H4106 0.999 . S
C4104 H4074 0.950 . S
C4104 C4103 1.524 . S
C4104 C4105 1.415 . S
C4105 H4075 0.950 . S
C4105 C4100 1.363 . S
C4105 C4104 1.415 . S
H4106 C4103 0.999 . S
H4107 C4088 0.913 . S
H4108 C4126 0.951 . S
H4109 C4128 0.951 . S
H4110 C4130 0.950 . S
H4111 C4131 0.950 . S
H4112 C4133 0.950 1_565 S
H4113 C4136 0.950 . S
H4114 C4137 0.950 . S
H4115 C4139 0.950 . S
H4116 C4140 0.950 . S
H4117 C4141 0.951 1_565 S
H4118 C4143 0.885 1_565 S
H4119 C4145 0.950 . S
H4120 C4146 0.950 . S
H4121 C4148 0.950 . S
H4122 C4151 0.950 . S
H4123 C4152 0.950 . S
H4124 C4154 0.950 . S
H4125 C4155 0.950 . S
C4126 H4108 0.951 . S
C4126 C4127 1.366 . S
C4126 C4128 1.388 . S
C4127 C4126 1.366 . S
C4127 C4131 1.385 . S
C4128 H4109 0.951 . S
C4128 C4126 1.388 . S
C4128 C4129 1.366 . S
C4129 C4128 1.366 . S
C4129 C4130 1.414 . S
C4129 C4132 1.499 . S
C4130 H4110 0.950 . S
C4130 C4129 1.414 . S
C4130 C4131 1.374 . S
C4131 H4111 0.950 . S
C4131 C4127 1.385 . S
C4131 C4130 1.374 . S
C4132 C4129 1.499 . S
C4132 C4133 1.373 . S
C4132 C4134 1.389 . S
C4133 H4112 0.950 1_545 S
C4133 C4132 1.373 . S
C4133 C4149 1.383 1_545 S
C4134 C4132 1.389 . S
C4134 C4135 1.524 . S
C4134 C4148 1.377 . S
C4135 C4134 1.524 . S
C4135 C4136 1.397 . S
C4135 C4140 1.363 . S
C4136 H4113 0.950 . S
C4136 C4135 1.397 . S
C4136 C4137 1.334 . S
C4137 H4114 0.950 . S
C4137 C4136 1.334 . S
C4137 C4138 1.287 . S
C4138 C4137 1.287 . S
C4138 C4139 1.524 . S
C4138 H4157 0.913 . S
C4139 H4115 0.950 . S
C4139 C4138 1.524 . S
C4139 C4140 1.415 . S
C4140 H4116 0.950 . S
C4140 C4135 1.363 . S
C4140 C4139 1.415 . S
C4141 H4117 0.951 1_545 S
C4141 C4142 1.366 . S
C4141 C4143 1.388 . S
C4142 C4141 1.366 . S
C4142 C4146 1.385 . S
C4143 H4118 0.885 1_545 S
C4143 C4141 1.388 . S
C4143 C4144 1.366 . S
C4144 C4143 1.366 . S
C4144 C4145 1.414 . S
C4144 C4147 1.499 . S
C4145 H4119 0.950 . S
C4145 C4144 1.414 . S
C4145 C4146 1.374 . S
C4146 H4120 0.950 . S
C4146 C4142 1.385 . S
C4146 C4145 1.374 . S
C4147 C4144 1.499 . S
C4147 C4148 1.373 . S
C4147 C4149 1.373 1_545 S
C4148 H4121 0.950 . S
C4148 C4134 1.377 . S
C4148 C4147 1.373 . S
C4149 C4133 1.383 1_565 S
C4149 C4147 1.373 1_565 S
C4149 C4150 1.535 . S
C4150 C4149 1.535 . S
C4150 C4151 1.397 . S
C4150 C4155 1.363 . S
C4151 H4122 0.950 . S
C4151 C4150 1.397 . S
C4151 C4152 1.334 . S
C4152 H4123 0.950 . S
C4152 C4151 1.334 . S
C4152 C4153 1.287 . S
C4153 C4152 1.287 . S
C4153 C4154 1.524 . S
C4153 H4156 0.999 . S
C4154 H4124 0.950 . S
C4154 C4153 1.524 . S
C4154 C4155 1.415 . S
C4155 H4125 0.950 . S
C4155 C4150 1.363 . S
C4155 C4154 1.415 . S
H4156 C4153 0.999 . S
H4157 C4138 0.913 . S
C577 C10 1.644 . S
C592 C403 1.622 . S
C627 C23 1.635 . S
C642 C428 1.619 . S
C692 C439 1.621 . S
C677 C29 1.641 . S
C727 C30 1.644 . S
C742 C464 1.627 . S
C777 C5 1.649 . S
C792 C482 1.636 . S
C827 C18 1.638 . S
C842 C493 1.620 . S
C877 C49 1.636 . S
C892 C475 1.618 . S
C942 C500 1.612 . S
C927 C62 1.627 . S
C992 C457 1.618 . S
C977 C70 1.632 . S
C1027 C75 1.635 . S
C1042 C446 1.612 . S
C1092 C410 1.628 . S
C1077 C44 1.640 . S
C1127 C57 1.631 . S
C1142 C421 1.616 . S
C1177 C88 1.645 . S
C1192 C511 1.623 . S
C1227 C101 1.635 . S
C1242 C536 1.619 . S
C1292 C547 1.621 . S
C1277 C107 1.640 . S
C1327 C108 1.644 . S
C1342 C248 1.628 . S
C1377 C83 1.649 . S
C1392 C266 1.635 . S
C1427 C96 1.638 . S
C1442 C277 1.620 . S
C1477 C127 1.636 . S
C1492 C259 1.618 . S
C1527 C140 1.627 . S
C1542 C284 1.612 . S
C1592 C241 1.617 . S
C1577 C146 1.632 . S
C1642 C554 1.620 . S
C1627 C147 1.636 . S
C1692 C518 1.628 . S
C1677 C122 1.640 . S
C1742 C529 1.616 . S
C1727 C135 1.631 . S
C1777 C160 1.645 . S
C1792 C295 1.623 . S
C1827 C173 1.635 . S
C1842 C320 1.618 . S
C1877 C185 1.640 . S
C1892 C331 1.621 . S
C1927 C186 1.644 . S
C1942 C356 1.627 . S
C1992 C374 1.635 . S
C1977 C159 1.649 . S
C2042 C385 1.620 . S
C2027 C172 1.638 . S
C2092 C367 1.618 . S
C2077 C205 1.636 . S
C2142 C392 1.612 . S
C2127 C218 1.627 . S
C2177 C224 1.631 . S
C2192 C349 1.617 . S
C2242 C338 1.620 . S
C2227 C225 1.636 . S
C2277 C200 1.640 . S
C2292 C302 1.627 . S
C2342 C313 1.616 . S
C2327 C213 1.630 . S
C2392 C250 1.435 . S
C2377 C4 1.504 . S
C2427 C17 1.496 . S
C2442 C268 1.427 . S
C2492 C278 1.438 . S
C2477 C31 1.506 . S
C2542 C296 1.432 . S
C2527 C36 1.497 . S
C2592 C322 1.440 . S
C2577 C3 1.513 . S
C2642 C332 1.439 . S
C2627 C16 1.505 . S
C2677 C43 1.509 . S
C2692 C340 1.435 . S
C2727 C56 1.500 . S
C2742 C304 1.427 . S
C2777 C68 1.509 . S
C2792 C314 1.441 . S
C2827 C69 1.502 . S
C2842 C260 1.435 . S
C2892 C286 1.442 . S
C2877 C42 1.517 . S
C2927 C55 1.509 . S
C2942 C242 1.441 . S
C2992 C358 1.435 . S
C2977 C82 1.504 . S
C3027 C95 1.495 . S
C3042 C376 1.425 . S
C3077 C109 1.506 . S
C3092 C386 1.439 . S
C3142 C404 1.433 . S
C3127 C114 1.498 . S
C3177 C81 1.513 . S
C3192 C430 1.440 . S
C3227 C94 1.505 . S
C3242 C440 1.439 . S
C3277 C121 1.508 . S
C3292 C448 1.441 . S
C3327 C134 1.500 . S
C3342 C412 1.427 . S
C3392 C422 1.440 . S
C3377 C148 1.509 . S
C3427 C153 1.502 . S
C3442 C368 1.435 . S
C3477 C120 1.517 . S
C3492 C394 1.440 . S
C3542 C350 1.441 . S
C3527 C133 1.509 . S
C3592 C466 1.434 . S
C3577 C166 1.504 . S
C3627 C179 1.495 . S
C3642 C484 1.426 . S
C3677 C187 1.506 . S
C3692 C494 1.439 . S
C3742 C512 1.434 . S
C3727 C192 1.497 . S
C3792 C538 1.441 . S
C3777 C161 1.552 . S
C3827 C174 1.505 . S
C3842 C548 1.438 . S
C3877 C199 1.509 . S
C3892 C556 1.435 . S
C3927 C212 1.500 . S
C3942 C520 1.427 . S
C3992 C530 1.441 . S
C3977 C226 1.509 . S
C4042 C476 1.409 1_655 S
C4027 C231 1.501 . S
C4092 C502 1.440 . S
C4077 C198 1.517 . S
C4127 C211 1.509 . S
C4142 C458 1.440 . S
