# Generated by pormake.
# Topology anh, (6,3)-cn, num edge types: 1
# Building blocks:
#     Node 0, Type 0, BuildingBlock: MIFKUJ_clean_sbu_0, # of connection points: 6
#     Node 1, Type 0, BuildingBlock: MIFKUJ_clean_sbu_0, # of connection points: 6
#     Node 2, Type 0, BuildingBlock: MIFKUJ_clean_sbu_0, # of connection points: 6
#     Node 3, Type 1, BuildingBlock: BETDAH_clean_linker_0, # of connection points: 3
#     Node 4, Type 1, BuildingBlock: BETDAH_clean_linker_0, # of connection points: 3
#     Node 5, Type 1, BuildingBlock: BETDAH_clean_linker_0, # of connection points: 3
#     Node 6, Type 1, BuildingBlock: BETDAH_clean_linker_0, # of connection points: 3
#     Node 7, Type 1, BuildingBlock: BETDAH_clean_linker_0, # of connection points: 3
#     Node 8, Type 1, BuildingBlock: BETDAH_clean_linker_0, # of connection points: 3
#     Edge 9, Type (0, 1), BuildingBlock: ZUJKAS_clean_linker_0, # of connection points: 2
#     Edge 10, Type (0, 1), BuildingBlock: ZUJKAS_clean_linker_0, # of connection points: 2
#     Edge 11, Type (0, 1), BuildingBlock: ZUJKAS_clean_linker_0, # of connection points: 2
#     Edge 12, Type (0, 1), BuildingBlock: ZUJKAS_clean_linker_0, # of connection points: 2
#     Edge 13, Type (0, 1), BuildingBlock: ZUJKAS_clean_linker_0, # of connection points: 2
#     Edge 14, Type (0, 1), BuildingBlock: ZUJKAS_clean_linker_0, # of connection points: 2
#     Edge 15, Type (0, 1), BuildingBlock: ZUJKAS_clean_linker_0, # of connection points: 2
#     Edge 16, Type (0, 1), BuildingBlock: ZUJKAS_clean_linker_0, # of connection points: 2
#     Edge 17, Type (0, 1), BuildingBlock: ZUJKAS_clean_linker_0, # of connection points: 2
#     Edge 18, Type (0, 1), BuildingBlock: ZUJKAS_clean_linker_0, # of connection points: 2
#     Edge 19, Type (0, 1), BuildingBlock: ZUJKAS_clean_linker_0, # of connection points: 2
#     Edge 20, Type (0, 1), BuildingBlock: ZUJKAS_clean_linker_0, # of connection points: 2
#     Edge 21, Type (0, 1), BuildingBlock: ZUJKAS_clean_linker_0, # of connection points: 2
#     Edge 22, Type (0, 1), BuildingBlock: ZUJKAS_clean_linker_0, # of connection points: 2
#     Edge 23, Type (0, 1), BuildingBlock: ZUJKAS_clean_linker_0, # of connection points: 2
#     Edge 24, Type (0, 1), BuildingBlock: ZUJKAS_clean_linker_0, # of connection points: 2
#     Edge 25, Type (0, 1), BuildingBlock: ZUJKAS_clean_linker_0, # of connection points: 2
#     Edge 26, Type (0, 1), BuildingBlock: ZUJKAS_clean_linker_0, # of connection points: 2
# Relax obj value: 0.070
# Max RMSD: 0.134
# Mean RMSD: 0.095
data_MOF--net-anh--node1-MIFKUJ_clean_sbu_0--node2-BETDAH_clean_linker_0--edge1-ZUJKAS_clean_linker_0
_symmetry_space_group_name_H-M    P1
_symmetry_Int_Tables_number       1
_symmetry_cell_setting            triclinic
loop_
_symmetry_equiv_pos_as_xyz
'x, y, z'
_cell_length_a     40.554607
_cell_length_b     40.438243
_cell_length_c     61.699763
_cell_angle_alpha  96.421241
_cell_angle_beta   93.24527
_cell_angle_gamma 119.93028
loop_
_atom_site_label
_atom_site_type_symbol
_atom_site_fract_x
_atom_site_fract_y
_atom_site_fract_z
_atom_type_partial_charge
Zn0 Zn 0.05561 0.55158 0.16443 0.0
Zn1 Zn 0.95595 0.46697 0.15847 0.0
C2 C 0.12951 0.56048 0.17089 0.0
O3 O 0.1298 0.58097 0.18908 0.0
C4 C 0.90651 0.49012 0.13984 0.0
O5 O 0.90081 0.46228 0.12417 0.0
O6 O 0.07918 0.6092 0.17142 0.0
O7 O 0.01589 0.53138 0.13742 0.0
O8 O 0.98557 0.46806 0.13325 0.0
C9 C 0.08059 0.63031 0.1573 0.0
O10 O 0.06393 0.61398 0.13708 0.0
O11 O 0.09941 0.54349 0.15687 0.0
C12 C 0.88978 0.40855 0.17139 0.0
O13 O 0.898 0.43861 0.18611 0.0
O14 O 0.91145 0.41299 0.15653 0.0
O15 O 0.98286 0.47865 0.18877 0.0
O16 O 0.04053 0.5313 0.19301 0.0
O17 O 0.93169 0.49989 0.15626 0.0
C18 C 0.00587 0.49912 0.12576 0.0
C19 C 0.01381 0.50375 0.20074 0.0
Zn20 Zn 0.56537 0.08104 0.49977 0.0
Zn21 Zn 0.56039 0.98755 0.5006 0.0
C22 C 0.63884 0.14781 0.50617 0.0
O23 O 0.62317 0.15449 0.52291 0.0
C24 C 0.49024 0.91776 0.48247 0.0
O25 O 0.51398 0.91252 0.47093 0.0
O26 O 0.54017 0.11266 0.49879 0.0
O27 O 0.53608 0.03433 0.47641 0.0
O28 O 0.57631 0.01339 0.47374 0.0
C29 C 0.5428 0.13019 0.48255 0.0
O30 O 0.55969 0.12487 0.46607 0.0
O31 O 0.61954 0.11585 0.49309 0.0
C32 C 0.57694 0.93613 0.51885 0.0
O33 O 0.55363 0.93836 0.53211 0.0
O34 O 0.58534 0.95582 0.50325 0.0
O35 O 0.5722 0.01919 0.53068 0.0
O36 O 0.56832 0.07203 0.53093 0.0
O37 O 0.50323 0.94915 0.49583 0.0
C38 C 0.55712 0.02658 0.46503 0.0
C39 C 0.57296 0.04862 0.541 0.0
Zn40 Zn 0.59399 0.58675 0.8381 0.0
Zn41 Zn 0.50994 0.59373 0.82959 0.0
C42 C 0.57309 0.51208 0.84617 0.0
O43 O 0.59125 0.53355 0.86533 0.0
C44 C 0.52006 0.66006 0.81122 0.0
O45 O 0.49805 0.63292 0.79454 0.0
O46 O 0.64974 0.6028 0.84178 0.0
O47 O 0.58636 0.61004 0.81242 0.0
O48 O 0.52425 0.57027 0.80378 0.0
C49 C 0.6611 0.58994 0.82593 0.0
O50 O 0.63697 0.57008 0.80794 0.0
O51 O 0.56774 0.52817 0.83082 0.0
C52 C 0.43938 0.58264 0.84019 0.0
O53 O 0.46359 0.61097 0.8558 0.0
O54 O 0.45254 0.56914 0.82572 0.0
O55 O 0.52284 0.58942 0.86077 0.0
O56 O 0.582 0.60048 0.86768 0.0
O57 O 0.53049 0.65049 0.82812 0.0
C58 C 0.55741 0.58924 0.79796 0.0
C59 C 0.5509 0.5954 0.8742 0.0
H60 H 0.42834 0.98248 0.2442 0.0
H61 H 0.53898 0.04328 0.22198 0.0
H62 H 0.43789 0.97414 0.17496 0.0
C63 C 0.44572 0.9906 0.23089 0.0
C64 C 0.42803 0.97589 0.20903 0.0
C65 C 0.48576 0.01467 0.23573 0.0
C66 C 0.50811 0.0248 0.21835 0.0
C67 C 0.49061 0.01046 0.19638 0.0
C68 C 0.45087 0.9859 0.19192 0.0
N69 N 0.51212 0.01931 0.17837 0.0
C70 C 0.54919 0.05046 0.17992 0.0
H71 H 0.57879 0.49042 0.56981 0.0
H72 H 0.64446 0.61169 0.56613 0.0
H73 H 0.63312 0.52805 0.51229 0.0
C74 C 0.59536 0.51349 0.56067 0.0
C75 C 0.60356 0.50446 0.53977 0.0
C76 C 0.6102 0.55211 0.57039 0.0
C77 C 0.6328 0.58185 0.55871 0.0
C78 C 0.64082 0.57309 0.53765 0.0
C79 C 0.62671 0.53454 0.52849 0.0
N80 N 0.66307 0.60243 0.52533 0.0
C81 C 0.66484 0.63783 0.52786 0.0
H82 H 0.96282 0.52236 0.90304 0.0
H83 H 0.02842 0.47076 0.88172 0.0
H84 H 0.96304 0.49214 0.83392 0.0
C85 C 0.97306 0.51133 0.88986 0.0
C86 C 0.96037 0.5097 0.8679 0.0
C87 C 0.99744 0.4972 0.89502 0.0
C88 C 0.0096 0.48169 0.87788 0.0
C89 C 0.99706 0.47988 0.85581 0.0
C90 C 0.97219 0.49339 0.85099 0.0
N91 N 0.00888 0.46456 0.83812 0.0
C92 C 0.04417 0.46667 0.83959 0.0
H93 H 0.12202 0.57884 0.42868 0.0
H94 H 0.01493 0.48986 0.44465 0.0
H95 H 0.1015 0.57547 0.49619 0.0
C96 C 0.10381 0.56491 0.44092 0.0
C97 C 0.11654 0.58085 0.46322 0.0
C98 C 0.0673 0.53221 0.43408 0.0
C99 C 0.04311 0.5151 0.44989 0.0
C100 C 0.05555 0.53063 0.4724 0.0
C101 C 0.09204 0.56364 0.47886 0.0
N102 N 0.03234 0.51401 0.48902 0.0
C103 C 0.99713 0.47958 0.48544 0.0
H104 H 0.57247 0.16009 0.76862 0.0
H105 H 0.56749 0.05698 0.78434 0.0
H106 H 0.5578 0.13382 0.83429 0.0
C107 C 0.57036 0.1417 0.78062 0.0
C108 C 0.56558 0.15157 0.80228 0.0
C109 C 0.57106 0.1077 0.77401 0.0
C110 C 0.56669 0.08307 0.78936 0.0
C111 C 0.56186 0.09244 0.81117 0.0
C112 C 0.56121 0.12658 0.81744 0.0
N113 N 0.55776 0.06843 0.82722 0.0
C114 C 0.5579 0.03392 0.82323 0.0
H115 H 0.5952 0.55456 0.09224 0.0
H116 H 0.49871 0.56077 0.11265 0.0
H117 H 0.57482 0.55138 0.15985 0.0
C118 C 0.57785 0.55423 0.10504 0.0
C119 C 0.58885 0.55197 0.12655 0.0
C120 C 0.54539 0.55722 0.09988 0.0
C121 C 0.52382 0.55855 0.11663 0.0
C122 C 0.53448 0.55648 0.13834 0.0
C123 C 0.56702 0.55338 0.14316 0.0
N124 N 0.51311 0.55713 0.15571 0.0
C125 C 0.47914 0.5578 0.15312 0.0
H126 H 0.19709 0.59347 0.19804 0.0
H127 H 0.25437 0.59029 0.19184 0.0
H128 H 0.19795 0.51862 0.12886 0.0
H129 H 0.1403 0.52199 0.13483 0.0
H130 H 0.26089 0.52441 0.18487 0.0
H131 H 0.30068 0.6044 0.114 0.0
H132 H 0.26688 0.60562 0.13144 0.0
H133 H 0.25246 0.56398 0.11102 0.0
C134 C 0.19676 0.57709 0.1828 0.0
C135 C 0.16405 0.55804 0.1669 0.0
C136 C 0.2296 0.57531 0.1793 0.0
C137 C 0.23065 0.55462 0.15979 0.0
C138 C 0.19803 0.53534 0.14387 0.0
H139 H 0.419 0.52189 0.12064 0.0
H140 H 0.35704 0.51935 0.12108 0.0
C141 C 0.16502 0.53709 0.14737 0.0
C142 C 0.26571 0.55261 0.15664 0.0
H143 H 0.3396 0.57987 0.12558 0.0
C144 C 0.27803 0.53643 0.17186 0.0
C145 C 0.28793 0.56812 0.13958 0.0
C146 C 0.27663 0.58681 0.12314 0.0
C147 C 0.3121 0.53565 0.17065 0.0
C148 C 0.33491 0.55213 0.15399 0.0
C149 C 0.32213 0.56739 0.13838 0.0
C150 C 0.37276 0.55498 0.15309 0.0
C151 C 0.32331 0.51703 0.1872 0.0
C152 C 0.40235 0.57656 0.17066 0.0
C153 C 0.43749 0.578 0.17039 0.0
C154 C 0.44366 0.55813 0.15249 0.0
C155 C 0.41464 0.5374 0.13461 0.0
C156 C 0.37939 0.53596 0.13486 0.0
H157 H 0.29821 0.49662 0.19474 0.0
H158 H 0.33656 0.50114 0.17947 0.0
H159 H 0.3446 0.53981 0.20058 0.0
H160 H 0.39814 0.59205 0.18469 0.0
H161 H 0.45966 0.59422 0.18431 0.0
H162 H 0.67715 0.14862 0.47059 0.0
H163 H 0.73997 0.20078 0.46409 0.0
H164 H 0.7497 0.26781 0.5261 0.0
H165 H 0.6876 0.21618 0.53279 0.0
H166 H 0.76253 0.27927 0.46197 0.0
H167 H 0.85175 0.26927 0.52934 0.0
H168 H 0.80324 0.23092 0.5193 0.0
H169 H 0.81191 0.2723 0.53839 0.0
C170 C 0.69289 0.17433 0.48292 0.0
C171 C 0.67742 0.17812 0.50227 0.0
C172 C 0.72869 0.20412 0.47915 0.0
C173 C 0.74976 0.23794 0.49476 0.0
C174 C 0.73433 0.24168 0.51403 0.0
H175 H 0.94962 0.46286 0.51616 0.0
H176 H 0.88933 0.40217 0.51622 0.0
C177 C 0.69865 0.21213 0.51777 0.0
C178 C 0.78731 0.27016 0.49084 0.0
H179 H 0.88063 0.32799 0.51417 0.0
C180 C 0.78855 0.28962 0.47315 0.0
C181 C 0.82121 0.28354 0.50543 0.0
C182 C 0.82217 0.26271 0.52406 0.0
C183 C 0.82235 0.32332 0.47034 0.0
C184 C 0.85582 0.33753 0.48547 0.0
C185 C 0.85488 0.31721 0.50267 0.0
C186 C 0.89155 0.3746 0.48462 0.0
C187 C 0.82154 0.34444 0.45184 0.0
C188 C 0.91284 0.37928 0.46682 0.0
C189 C 0.9473 0.41402 0.46679 0.0
C190 C 0.96078 0.44433 0.48457 0.0
C191 C 0.93949 0.43979 0.50224 0.0
C192 C 0.9052 0.40518 0.5023 0.0
H193 H 0.79181 0.33389 0.44423 0.0
H194 H 0.83574 0.37599 0.45783 0.0
H195 H 0.8375 0.34 0.4389 0.0
H196 H 0.90319 0.35586 0.45318 0.0
H197 H 0.96361 0.41699 0.45309 0.0
H198 H 0.50268 0.68968 0.77757 0.0
H199 H 0.51369 0.75498 0.77815 0.0
H200 H 0.56847 0.78713 0.84515 0.0
H201 H 0.55809 0.72201 0.84463 0.0
H202 H 0.4851 0.79017 0.80539 0.0
H203 H 0.64413 0.87697 0.81688 0.0
H204 H 0.61787 0.82514 0.80856 0.0
H205 H 0.62464 0.84574 0.83698 0.0
C206 C 0.51754 0.71074 0.79236 0.0
C207 C 0.52954 0.70056 0.81105 0.0
C208 C 0.52376 0.74809 0.79266 0.0
C209 C 0.54229 0.77614 0.81159 0.0
C210 C 0.55485 0.76627 0.83018 0.0
H211 H 0.58274 0.0065 0.85405 0.0
H212 H 0.57942 0.94374 0.85036 0.0
C213 C 0.5487 0.72891 0.82989 0.0
C214 C 0.5462 0.81486 0.81231 0.0
H215 H 0.61131 0.9119 0.8215 0.0
C216 C 0.51273 0.81678 0.80873 0.0
C217 C 0.58224 0.84958 0.81674 0.0
C218 C 0.61932 0.84939 0.81981 0.0
C219 C 0.5142 0.8524 0.80996 0.0
C220 C 0.55021 0.88714 0.81452 0.0
C221 C 0.58373 0.88526 0.81799 0.0
C222 C 0.55353 0.9257 0.81633 0.0
C223 C 0.47707 0.85255 0.80701 0.0
C224 C 0.54072 0.93671 0.79832 0.0
C225 C 0.54258 0.97249 0.80046 0.0
C226 C 0.55751 0.99776 0.82056 0.0
C227 C 0.57111 0.98727 0.8384 0.0
C228 C 0.56925 0.95154 0.83628 0.0
H229 H 0.45202 0.82438 0.80898 0.0
H230 H 0.478 0.8757 0.81902 0.0
H231 H 0.47255 0.85812 0.79021 0.0
H232 H 0.52914 0.91756 0.78265 0.0
H233 H 0.53207 0.98023 0.78649 0.0
H234 H 0.90138 0.5383 0.17284 0.0
H235 H 0.85239 0.55688 0.17404 0.0
H236 H 0.80227 0.49439 0.10836 0.0
H237 H 0.85118 0.4761 0.10689 0.0
H238 H 0.80755 0.56688 0.11567 0.0
H239 H 0.74024 0.48012 0.18123 0.0
H240 H 0.79059 0.51534 0.18747 0.0
H241 H 0.77445 0.47457 0.1661 0.0
C242 C 0.88021 0.52891 0.15854 0.0
C243 C 0.88004 0.50546 0.13982 0.0
C244 C 0.85206 0.5393 0.15934 0.0
C245 C 0.82325 0.52639 0.14145 0.0
C246 C 0.82408 0.50447 0.12241 0.0
H247 H 0.60998 0.50719 0.10156 0.0
H248 H 0.66891 0.50511 0.10721 0.0
C249 C 0.85209 0.49402 0.12161 0.0
C250 C 0.79149 0.53459 0.14253 0.0
H251 H 0.7113 0.51282 0.16734 0.0
C252 C 0.78673 0.55537 0.12711 0.0
C253 C 0.76431 0.51954 0.15749 0.0
C254 C 0.76729 0.49588 0.17393 0.0
C255 C 0.75513 0.56082 0.12592 0.0
C256 C 0.72737 0.54471 0.14037 0.0
C257 C 0.73274 0.52514 0.15633 0.0
C258 C 0.69109 0.54522 0.13781 0.0
C259 C 0.75123 0.58322 0.10897 0.0
C260 C 0.68357 0.5677 0.15351 0.0
C261 C 0.6499 0.56928 0.15023 0.0
C262 C 0.62317 0.54818 0.13126 0.0
C263 C 0.63031 0.52453 0.11608 0.0
C264 C 0.66392 0.52317 0.1193 0.0
H265 H 0.77883 0.60102 0.10261 0.0
H266 H 0.72981 0.56265 0.0949 0.0
H267 H 0.74094 0.60242 0.11599 0.0
H268 H 0.70418 0.58474 0.16798 0.0
H269 H 0.6454 0.5879 0.16219 0.0
H270 H 0.4554 0.84605 0.45745 0.0
H271 H 0.39083 0.79177 0.45791 0.0
H272 H 0.36948 0.8622 0.50618 0.0
H273 H 0.43416 0.91696 0.50576 0.0
H274 H 0.3616 0.75779 0.49585 0.0
H275 H 0.27458 0.81345 0.45852 0.0
H276 H 0.32492 0.83359 0.45595 0.0
H277 H 0.31041 0.84477 0.48136 0.0
C278 C 0.43691 0.85024 0.468 0.0
C279 C 0.44999 0.88593 0.48155 0.0
C280 C 0.40001 0.81911 0.46828 0.0
C281 C 0.37529 0.82302 0.48197 0.0
C282 C 0.38792 0.85873 0.49526 0.0
H283 H 0.1371 0.64668 0.49227 0.0
H284 H 0.20032 0.70618 0.50014 0.0
C285 C 0.42494 0.88995 0.49504 0.0
C286 C 0.33696 0.78905 0.48285 0.0
H287 H 0.24083 0.75221 0.46941 0.0
C288 C 0.33517 0.75662 0.49018 0.0
C289 C 0.30255 0.78778 0.47567 0.0
C290 C 0.30293 0.82158 0.46727 0.0
C291 C 0.2999 0.72267 0.49014 0.0
C292 C 0.26554 0.72081 0.48214 0.0
C293 C 0.26722 0.75369 0.47553 0.0
C294 C 0.22796 0.68414 0.47882 0.0
C295 C 0.2998 0.68903 0.49861 0.0
C296 C 0.22261 0.65206 0.46432 0.0
C297 C 0.18677 0.6182 0.45989 0.0
C298 C 0.15533 0.61571 0.46974 0.0
C299 C 0.16087 0.6476 0.48462 0.0
C300 C 0.19685 0.68164 0.48901 0.0
H301 H 0.32595 0.6988 0.51033 0.0
H302 H 0.27413 0.67275 0.50694 0.0
H303 H 0.29937 0.66904 0.48458 0.0
H304 H 0.24597 0.65352 0.45596 0.0
H305 H 0.1835 0.59406 0.44847 0.0
H306 H 0.55246 0.46362 0.80659 0.0
H307 H 0.54625 0.39969 0.80019 0.0
H308 H 0.56748 0.40486 0.87012 0.0
H309 H 0.57429 0.46872 0.8766 0.0
H310 H 0.61377 0.38713 0.84773 0.0
H311 H 0.4627 0.29276 0.80911 0.0
H312 H 0.48998 0.3338 0.79583 0.0
H313 H 0.48071 0.34108 0.82359 0.0
C314 C 0.55504 0.45079 0.82061 0.0
C315 C 0.56394 0.47133 0.8421 0.0
C316 C 0.55137 0.41417 0.81694 0.0
C317 C 0.55611 0.39728 0.83469 0.0
C318 C 0.56369 0.41724 0.85616 0.0
H319 H 0.51714 0.16257 0.82757 0.0
H320 H 0.51488 0.22202 0.83663 0.0
C321 C 0.56752 0.45379 0.85983 0.0
C322 C 0.55623 0.36034 0.83097 0.0
H323 H 0.5027 0.26513 0.80755 0.0
C324 C 0.58937 0.36042 0.83905 0.0
C325 C 0.52428 0.32536 0.81987 0.0
C326 C 0.48725 0.32299 0.81177 0.0
C327 C 0.59173 0.32676 0.83596 0.0
C328 C 0.56034 0.29213 0.82414 0.0
C329 C 0.52685 0.29177 0.81647 0.0
C330 C 0.56216 0.2563 0.81913 0.0
C331 C 0.62774 0.32853 0.84558 0.0
C332 C 0.58942 0.25583 0.80628 0.0
C333 C 0.59094 0.22209 0.80122 0.0
C334 C 0.56501 0.18791 0.80876 0.0
C335 C 0.53781 0.18849 0.82173 0.0
C336 C 0.53627 0.22233 0.82677 0.0
H337 H 0.64417 0.35343 0.85912 0.0
H338 H 0.62091 0.30153 0.852 0.0
H339 H 0.64649 0.33207 0.83256 0.0
H340 H 0.60932 0.2815 0.79994 0.0
H341 H 0.61246 0.22278 0.79135 0.0
H342 H 0.62237 0.92138 0.49303 0.0
H343 H 0.64226 0.87378 0.49608 0.0
H344 H 0.58411 0.84328 0.55336 0.0
H345 H 0.56385 0.89041 0.55041 0.0
H346 H 0.68453 0.86539 0.5326 0.0
H347 H 0.53603 0.74039 0.50954 0.0
H348 H 0.54954 0.78854 0.50478 0.0
H349 H 0.5415 0.77612 0.53182 0.0
C350 C 0.61398 0.90468 0.50634 0.0
C351 C 0.59123 0.90938 0.52136 0.0
C352 C 0.62543 0.8776 0.50807 0.0
C353 C 0.61415 0.85476 0.52475 0.0
C354 C 0.59255 0.86027 0.54017 0.0
H355 H 0.62899 0.65965 0.55642 0.0
H356 H 0.62043 0.7156 0.55687 0.0
C357 C 0.5811 0.88729 0.53848 0.0
C358 C 0.62391 0.82428 0.5257 0.0
H359 H 0.58362 0.7266 0.52159 0.0
C360 C 0.66258 0.83501 0.53013 0.0
C361 C 0.59509 0.78476 0.5224 0.0
C362 C 0.55322 0.77159 0.51667 0.0
C363 C 0.67316 0.80712 0.53186 0.0
C364 C 0.64427 0.76762 0.52873 0.0
C365 C 0.60565 0.75697 0.52413 0.0
C366 C 0.65316 0.73653 0.52991 0.0
C367 C 0.71498 0.82016 0.5375 0.0
C368 C 0.67462 0.73002 0.51471 0.0
C369 C 0.67964 0.69822 0.51454 0.0
C370 C 0.66314 0.67265 0.5295 0.0
C371 C 0.64231 0.67942 0.54493 0.0
C372 C 0.63734 0.71121 0.54514 0.0
H373 H 0.73215 0.85126 0.54483 0.0
H374 H 0.71865 0.80289 0.54917 0.0
H375 H 0.72667 0.81599 0.52226 0.0
H376 H 0.68631 0.74871 0.50251 0.0
H377 H 0.69542 0.69299 0.50234 0.0
H378 H 0.71833 0.62921 0.86068 0.0
H379 H 0.77695 0.62645 0.86711 0.0
H380 H 0.74646 0.5519 0.80465 0.0
H381 H 0.68858 0.55534 0.79784 0.0
H382 H 0.77843 0.56219 0.87132 0.0
H383 H 0.85852 0.62469 0.80278 0.0
H384 H 0.81887 0.63036 0.80995 0.0
H385 H 0.8102 0.58679 0.79304 0.0
C386 C 0.72455 0.61291 0.84811 0.0
C387 C 0.69877 0.59245 0.82876 0.0
C388 C 0.75803 0.61135 0.85182 0.0
C389 C 0.76636 0.58937 0.83625 0.0
C390 C 0.74121 0.56986 0.81665 0.0
H391 H 0.89837 0.47791 0.8359 0.0
H392 H 0.85442 0.50142 0.82841 0.0
C393 C 0.70791 0.57164 0.81286 0.0
C394 C 0.79896 0.58338 0.84143 0.0
H395 H 0.87589 0.58454 0.82079 0.0
C396 C 0.80013 0.56773 0.86047 0.0
C397 C 0.82721 0.59052 0.82722 0.0
C398 C 0.8289 0.60939 0.80723 0.0
C399 C 0.82785 0.55764 0.86523 0.0
C400 C 0.85511 0.56345 0.8506 0.0
C401 C 0.85468 0.57995 0.83186 0.0
C402 C 0.88337 0.55114 0.85422 0.0
C403 C 0.82713 0.53959 0.88545 0.0
C404 C 0.9144 0.57177 0.87099 0.0
C405 C 0.93977 0.55867 0.8752 0.0
C406 C 0.9344 0.52458 0.86274 0.0
C407 C 0.90361 0.50446 0.84564 0.0
C408 C 0.87839 0.51773 0.84138 0.0
H409 H 0.80139 0.53292 0.89374 0.0
H410 H 0.82769 0.5125 0.88103 0.0
H411 H 0.85309 0.55976 0.89732 0.0
H412 H 0.91874 0.59779 0.88095 0.0
H413 H 0.96358 0.57524 0.88822 0.0
H414 H 0.12353 0.67226 0.19659 0.0
H415 H 0.17269 0.74043 0.20398 0.0
H416 H 0.14384 0.75315 0.13825 0.0
H417 H 0.09487 0.68438 0.13048 0.0
H418 H 0.21819 0.77727 0.14697 0.0
H419 H 0.17794 0.84268 0.21605 0.0
H420 H 0.17644 0.7997 0.22216 0.0
H421 H 0.14413 0.79646 0.19962 0.0
C422 C 0.12695 0.68966 0.18382 0.0
C423 C 0.10552 0.67279 0.16286 0.0
C424 C 0.15488 0.72883 0.18817 0.0
C425 C 0.16162 0.75207 0.17177 0.0
C426 C 0.1389 0.73578 0.15118 0.0
H427 H 0.37756 0.97344 0.17649 0.0
H428 H 0.30965 0.92392 0.16623 0.0
C429 C 0.11098 0.69647 0.14678 0.0
C430 C 0.19598 0.79138 0.17521 0.0
H431 H 0.24643 0.87385 0.21299 0.0
C432 C 0.22397 0.79887 0.16106 0.0
C433 C 0.20348 0.81951 0.19361 0.0
C434 C 0.17366 0.8143 0.20856 0.0
C435 C 0.26028 0.83244 0.1657 0.0
C436 C 0.26858 0.85931 0.18488 0.0
C437 C 0.23994 0.85298 0.19836 0.0
C438 C 0.30801 0.89178 0.19232 0.0
C439 C 0.29033 0.83774 0.15085 0.0
C440 C 0.32906 0.89048 0.21068 0.0
C441 C 0.36777 0.91843 0.21648 0.0
C442 C 0.38608 0.94832 0.20404 0.0
C443 C 0.36441 0.9504 0.18616 0.0
C444 C 0.32564 0.92233 0.18035 0.0
H445 H 0.28069 0.81177 0.13824 0.0
H446 H 0.29696 0.86261 0.14225 0.0
H447 H 0.31727 0.84424 0.16067 0.0
H448 H 0.31589 0.86694 0.22003 0.0
H449 H 0.3837 0.91568 0.23016 0.0
H450 H 0.5079 0.14866 0.51437 0.0
H451 H 0.50392 0.20717 0.52083 0.0
H452 H 0.55382 0.24121 0.46144 0.0
H453 H 0.55738 0.18251 0.45465 0.0
H454 H 0.5703 0.27732 0.52776 0.0
H455 H 0.47191 0.2719 0.45952 0.0
H456 H 0.47161 0.22925 0.46597 0.0
H457 H 0.50704 0.26085 0.4503 0.0
C458 C 0.51708 0.16806 0.50236 0.0
C459 C 0.53341 0.16121 0.48414 0.0
C460 C 0.51471 0.20144 0.50606 0.0
C461 C 0.52841 0.22841 0.49157 0.0
C462 C 0.54242 0.22043 0.47262 0.0
H463 H 0.64327 0.47462 0.51951 0.0
H464 H 0.62113 0.40651 0.50657 0.0
C465 C 0.54469 0.18696 0.46885 0.0
C466 C 0.53379 0.26729 0.49804 0.0
H467 H 0.51577 0.33466 0.48062 0.0
C468 C 0.5579 0.28962 0.5176 0.0
C469 C 0.5176 0.28324 0.48475 0.0
C470 C 0.49029 0.25995 0.46406 0.0
C471 C 0.5673 0.32794 0.52387 0.0
C472 C 0.5525 0.34442 0.51012 0.0
C473 C 0.52732 0.32185 0.49095 0.0
C474 C 0.56396 0.38546 0.51542 0.0
C475 C 0.59348 0.35084 0.54502 0.0
C476 C 0.53871 0.3959 0.52418 0.0
C477 C 0.55126 0.43475 0.5316 0.0
C478 C 0.58917 0.46364 0.53023 0.0
C479 C 0.61384 0.45305 0.52061 0.0
C480 C 0.60132 0.41423 0.51329 0.0
H481 H 0.59679 0.33198 0.55566 0.0
H482 H 0.62228 0.37186 0.54112 0.0
H483 H 0.58233 0.36743 0.55438 0.0
H484 H 0.50977 0.37393 0.52593 0.0
H485 H 0.53151 0.44217 0.5387 0.0
H486 H 0.4033 0.60349 0.86997 0.0
H487 H 0.33463 0.57855 0.86924 0.0
H488 H 0.31218 0.50205 0.80863 0.0
H489 H 0.38109 0.52652 0.80935 0.0
H490 H 0.28663 0.58158 0.83646 0.0
H491 H 0.23755 0.42983 0.84716 0.0
H492 H 0.28733 0.46776 0.85292 0.0
H493 H 0.26561 0.44628 0.82501 0.0
C494 C 0.38382 0.58121 0.85652 0.0
C495 C 0.39766 0.56696 0.83972 0.0
C496 C 0.34457 0.56698 0.85615 0.0
C497 C 0.31833 0.53815 0.83904 0.0
C498 C 0.33193 0.52378 0.82221 0.0
H499 H 0.07091 0.43622 0.80921 0.0
H500 H 0.13783 0.45194 0.80893 0.0
C501 C 0.37131 0.53797 0.82258 0.0
C502 C 0.27696 0.52466 0.83847 0.0
H503 H 0.18936 0.44573 0.84073 0.0
C504 C 0.26536 0.55189 0.83742 0.0
C505 C 0.24933 0.48586 0.83961 0.0
C506 C 0.26046 0.45572 0.84142 0.0
C507 C 0.22682 0.54141 0.8375 0.0
C508 C 0.19928 0.5028 0.83902 0.0
C509 C 0.21068 0.47534 0.83968 0.0
C510 C 0.15855 0.49069 0.84008 0.0
C511 C 0.2158 0.57167 0.83572 0.0
C512 C 0.14809 0.50651 0.85796 0.0
C513 C 0.1101 0.49753 0.85812 0.0
C514 C 0.08221 0.47247 0.84049 0.0
C515 C 0.09222 0.45552 0.82299 0.0
C516 C 0.13025 0.46447 0.82282 0.0
H517 H 0.2383 0.59703 0.82937 0.0
H518 H 0.18836 0.55944 0.82474 0.0
H519 H 0.21187 0.582 0.85227 0.0
H520 H 0.16948 0.52639 0.87156 0.0
H521 H 0.10271 0.51089 0.87173 0.0
H522 H 0.86335 0.34049 0.14324 0.0
H523 H 0.80631 0.27783 0.14479 0.0
H524 H 0.78311 0.32782 0.20316 0.0
H525 H 0.83956 0.39043 0.20166 0.0
H526 H 0.78822 0.23298 0.1795 0.0
H527 H 0.68204 0.27794 0.16134 0.0
H528 H 0.73138 0.3056 0.15641 0.0
H529 H 0.71892 0.30885 0.18375 0.0
C530 C 0.84604 0.33814 0.15637 0.0
C531 C 0.85581 0.37047 0.17224 0.0
C532 C 0.81356 0.30235 0.15724 0.0
C533 C 0.7903 0.29846 0.1739 0.0
C534 C 0.80034 0.33048 0.18994 0.0
H535 H 0.58073 0.11575 0.2094 0.0
H536 H 0.64181 0.17551 0.20866 0.0
C537 C 0.8327 0.36619 0.18909 0.0
C538 C 0.75557 0.26088 0.17467 0.0
H539 H 0.65841 0.21712 0.17323 0.0
C540 C 0.75977 0.22934 0.178 0.0
C541 C 0.71861 0.2564 0.1727 0.0
C542 C 0.71228 0.28887 0.16815 0.0
C543 C 0.72791 0.19353 0.17995 0.0
C544 C 0.69101 0.18922 0.17822 0.0
C545 C 0.68683 0.22068 0.1747 0.0
C546 C 0.6561 0.15223 0.17975 0.0
C547 C 0.73404 0.16091 0.18436 0.0
C548 C 0.64416 0.11948 0.16381 0.0
C549 C 0.60946 0.08551 0.16427 0.0
C550 C 0.58641 0.08409 0.18062 0.0
C551 C 0.59849 0.11645 0.19677 0.0
C552 C 0.63316 0.15042 0.19632 0.0
H553 H 0.76447 0.17151 0.19055 0.0
H554 H 0.71563 0.14483 0.19654 0.0
H555 H 0.72616 0.14038 0.16883 0.0
H556 H 0.66108 0.12056 0.15065 0.0
H557 H 0.60018 0.06075 0.15156 0.0
H558 H 0.03113 0.55781 0.10143 0.0
H559 H 0.0364 0.55389 0.06214 0.0
H560 H 0.99937 0.43283 0.05744 0.0
H561 H 0.9932 0.43628 0.09675 0.0
H562 H 0.0788 0.53345 0.03654 0.0
H563 H 0.92261 0.43132 0.01165 0.0
H564 H 0.94229 0.45616 0.03947 0.0
H565 H 0.94565 0.41458 0.02948 0.0
C566 C 0.02426 0.53036 0.09211 0.0
C567 C 0.01133 0.49725 0.10221 0.0
C568 C 0.02734 0.52819 0.06963 0.0
C569 C 0.01764 0.49293 0.05679 0.0
C570 C 0.00613 0.46013 0.06694 0.0
H571 H 0.99512 0.43774 0.91339 0.0
H572 H 0.00535 0.43553 0.95265 0.0
C573 C 0.00276 0.4622 0.08942 0.0
C574 C 0.0186 0.49055 0.03269 0.0
H575 H 0.96153 0.44892 0.98324 0.0
C576 C 0.05321 0.51481 0.02487 0.0
C577 C 0.98516 0.46621 0.01749 0.0
C578 C 0.94673 0.44082 0.02488 0.0
C579 C 0.05517 0.51571 0.00228 0.0
C580 C 0.02159 0.49195 0.98717 0.0
C581 C 0.98727 0.46691 0.99491 0.0
C582 C 0.02045 0.49471 0.96344 0.0
C583 C 0.09305 0.54221 0.99473 0.0
C584 C 0.02597 0.52883 0.95656 0.0
C585 C 0.02005 0.53012 0.93423 0.0
C586 C 0.00847 0.49728 0.91837 0.0
C587 C 0.0044 0.46358 0.92524 0.0
C588 C 0.01007 0.46222 0.94763 0.0
H589 H 0.11761 0.55023 0.00732 0.0
H590 H 0.09666 0.5285 0.97912 0.0
H591 H 0.09391 0.56917 0.99175 0.0
H592 H 0.03336 0.55401 0.96852 0.0
H593 H 0.02358 0.55652 0.92938 0.0
H594 H 0.5141 0.0474 0.44073 0.0
H595 H 0.51321 0.05281 0.40174 0.0
H596 H 0.60157 0.02349 0.39729 0.0
H597 H 0.60228 0.01739 0.43635 0.0
H598 H 0.57061 0.09922 0.37766 0.0
H599 H 0.51581 0.94291 0.34982 0.0
H600 H 0.51593 0.96191 0.37773 0.0
H601 H 0.55961 0.968 0.36854 0.0
C602 C 0.53348 0.04221 0.43153 0.0
C603 C 0.55804 0.03161 0.44162 0.0
C604 C 0.53298 0.04541 0.40923 0.0
C605 C 0.55692 0.03802 0.39656 0.0
C606 C 0.58233 0.02859 0.4067 0.0
H607 H 0.54805 0.01267 0.25324 0.0
H608 H 0.57239 0.02427 0.29226 0.0
C609 C 0.58278 0.02524 0.42902 0.0
C610 C 0.55417 0.03911 0.37263 0.0
H611 H 0.5268 0.98181 0.32238 0.0
C612 C 0.56132 0.07364 0.36554 0.0
C613 C 0.54208 0.0057 0.35687 0.0
C614 C 0.53258 0.96741 0.36353 0.0
C615 C 0.55611 0.07549 0.34311 0.0
C616 C 0.54295 0.0418 0.32743 0.0
C617 C 0.53703 0.00763 0.33446 0.0
C618 C 0.53209 0.04023 0.30384 0.0
C619 C 0.56449 0.11339 0.33639 0.0
C620 C 0.50173 0.04588 0.29745 0.0
C621 C 0.48785 0.03934 0.27523 0.0
C622 C 0.50394 0.02685 0.25898 0.0
C623 C 0.53535 0.0227 0.26537 0.0
C624 C 0.54915 0.02911 0.28763 0.0
H625 H 0.58491 0.13832 0.34911 0.0
H626 H 0.57657 0.11707 0.32054 0.0
H627 H 0.5374 0.11392 0.3343 0.0
H628 H 0.48768 0.05376 0.30969 0.0
H629 H 0.46377 0.043 0.27078 0.0
H630 H 0.50242 0.54638 0.76248 0.0
H631 H 0.51144 0.54279 0.72357 0.0
H632 H 0.63233 0.62513 0.74108 0.0
H633 H 0.62383 0.62834 0.77996 0.0
H634 H 0.53935 0.6003 0.69746 0.0
H635 H 0.63212 0.53614 0.70305 0.0
H636 H 0.60492 0.53826 0.72476 0.0
H637 H 0.64957 0.58032 0.72185 0.0
C638 C 0.53096 0.56364 0.75807 0.0
C639 C 0.56245 0.58743 0.77436 0.0
C640 C 0.53603 0.56161 0.73583 0.0
C641 C 0.57264 0.58321 0.72948 0.0
C642 C 0.60398 0.60756 0.74565 0.0
H643 H 0.6626 0.60607 0.60414 0.0
H644 H 0.65279 0.61647 0.64255 0.0
C645 C 0.59899 0.6095 0.76788 0.0
C646 C 0.57807 0.58047 0.70593 0.0
H647 H 0.62607 0.55693 0.66935 0.0
C648 C 0.55819 0.59069 0.69128 0.0
C649 C 0.60265 0.56789 0.69793 0.0
C650 C 0.62327 0.55466 0.71266 0.0
C651 C 0.56271 0.58921 0.66885 0.0
C652 C 0.58744 0.57684 0.66092 0.0
C653 C 0.60734 0.56668 0.67556 0.0
C654 C 0.59237 0.57309 0.63736 0.0
C655 C 0.54147 0.60141 0.65387 0.0
C656 C 0.56155 0.54546 0.62175 0.0
C657 C 0.56705 0.5395 0.59983 0.0
C658 C 0.60351 0.56102 0.59315 0.0
C659 C 0.63409 0.58939 0.60873 0.0
C660 C 0.6286 0.5952 0.63068 0.0
H661 H 0.53107 0.6187 0.66327 0.0
H662 H 0.56007 0.61866 0.6421 0.0
H663 H 0.5162 0.57525 0.64423 0.0
H664 H 0.5335 0.52772 0.62665 0.0
H665 H 0.54291 0.51761 0.58816 0.0
H666 H 0.57206 0.10571 0.56893 0.0
H667 H 0.57538 0.11308 0.60898 0.0
H668 H 0.58615 0.01219 0.60845 0.0
H669 H 0.58317 0.00463 0.5684 0.0
H670 H 0.52371 0.05725 0.63283 0.0
H671 H 0.67426 0.09444 0.65569 0.0
H672 H 0.65709 0.0981 0.62892 0.0
H673 H 0.64551 0.05171 0.63557 0.0
C674 C 0.5755 0.08526 0.57729 0.0
C675 C 0.5773 0.05454 0.56539 0.0
C676 C 0.57735 0.08951 0.60019 0.0
C677 C 0.58133 0.06338 0.61165 0.0
C678 C 0.58367 0.03301 0.59992 0.0
H679 H 0.53057 0.03766 0.74686 0.0
H680 H 0.53398 0.02369 0.7076 0.0
C681 C 0.58176 0.02866 0.57701 0.0
C682 C 0.58111 0.06693 0.63578 0.0
H683 H 0.63592 0.08496 0.68456 0.0
C684 C 0.54817 0.06319 0.64416 0.0
C685 C 0.61318 0.07486 0.65045 0.0
C686 C 0.64969 0.08034 0.64231 0.0
C687 C 0.54647 0.06737 0.66687 0.0
C688 C 0.57842 0.075 0.68156 0.0
C689 C 0.61136 0.07866 0.6732 0.0
C690 C 0.57895 0.08189 0.70568 0.0
C691 C 0.51094 0.0647 0.675 0.0
C692 C 0.6041 0.11879 0.71769 0.0
C693 C 0.60237 0.12677 0.74006 0.0
C694 C 0.57553 0.09792 0.75085 0.0
C695 C 0.55159 0.06044 0.739 0.0
C696 C 0.55329 0.0525 0.71657 0.0
H697 H 0.49215 0.06624 0.66183 0.0
H698 H 0.49422 0.03673 0.68099 0.0
H699 H 0.51876 0.0883 0.68893 0.0
H700 H 0.62426 0.14178 0.70958 0.0
H701 H 0.62161 0.15575 0.74884 0.0
H702 H 0.48929 0.58719 0.89431 0.0
H703 H 0.48142 0.58464 0.93318 0.0
H704 H 0.59426 0.60025 0.94656 0.0
H705 H 0.6027 0.60334 0.90782 0.0
H706 H 0.48218 0.53187 0.95741 0.0
H707 H 0.59653 0.6803 0.9941 0.0
H708 H 0.57896 0.6665 0.96507 0.0
H709 H 0.61375 0.65566 0.97632 0.0
C710 C 0.51268 0.59051 0.90554 0.0
C711 C 0.54675 0.59564 0.89792 0.0
C712 C 0.50804 0.589 0.92775 0.0
C713 C 0.53745 0.59284 0.9428 0.0
C714 C 0.57153 0.59812 0.93531 0.0
H715 H 0.54118 0.5116 0.06266 0.0
H716 H 0.5329 0.52034 0.02465 0.0
C717 C 0.57624 0.59966 0.91311 0.0
C718 C 0.53176 0.5891 0.9661 0.0
H719 H 0.57265 0.6338 0.01871 0.0
C720 C 0.50161 0.55437 0.97083 0.0
C721 C 0.55668 0.61873 0.98359 0.0
C722 C 0.58805 0.65755 0.97955 0.0
C723 C 0.49701 0.54767 0.99259 0.0
C724 C 0.5236 0.57624 0.01 0.0
C725 C 0.55246 0.61178 0.00533 0.0
C726 C 0.52423 0.56866 0.03292 0.0
C727 C 0.46405 0.50984 0.9967 0.0
C728 C 0.52222 0.59302 0.05024 0.0
C729 C 0.52724 0.58823 0.07207 0.0
C730 C 0.53488 0.55935 0.07687 0.0
C731 C 0.53561 0.53427 0.05944 0.0
C732 C 0.53049 0.53898 0.0377 0.0
H733 H 0.43991 0.49727 0.98311 0.0
H734 H 0.47393 0.48886 0.99763 0.0
H735 H 0.4533 0.51351 0.01242 0.0
H736 H 0.5177 0.61629 0.04687 0.0
H737 H 0.52685 0.60815 0.0852 0.0
H738 H 0.07416 0.55333 0.2325 0.0
H739 H 0.07892 0.55083 0.27194 0.0
H740 H 0.96732 0.44734 0.26227 0.0
H741 H 0.96232 0.44924 0.22289 0.0
H742 H 0.02825 0.55294 0.30071 0.0
H743 H 0.0346 0.41854 0.2988 0.0
H744 H 0.04346 0.44437 0.27574 0.0
H745 H 0.99517 0.4139 0.28121 0.0
C746 C 0.05076 0.52981 0.2387 0.0
C747 C 0.01789 0.50147 0.22448 0.0
C748 C 0.05352 0.52848 0.26125 0.0
C749 C 0.02365 0.49867 0.26995 0.0
C750 C 0.99098 0.47019 0.25583 0.0
H751 H 0.99955 0.51384 0.41045 0.0
H752 H 0.98416 0.50059 0.37021 0.0
C753 C 0.98814 0.47149 0.23331 0.0
C754 C 0.02597 0.49841 0.29396 0.0
H755 H 0.0293 0.44663 0.33328 0.0
C756 C 0.02839 0.52968 0.30786 0.0
C757 C 0.02627 0.46805 0.30317 0.0
C758 C 0.02506 0.43442 0.28902 0.0
C759 C 0.03135 0.53156 0.33077 0.0
C760 C 0.03129 0.50103 0.33999 0.0
C761 C 0.02876 0.46968 0.3261 0.0
C762 C 0.03729 0.50301 0.3641 0.0
C763 C 0.03574 0.56679 0.34498 0.0
C764 C 0.07128 0.50675 0.37387 0.0
C765 C 0.07996 0.51402 0.39672 0.0
C766 C 0.05471 0.51755 0.41021 0.0
C767 C 0.01946 0.51119 0.40043 0.0
C768 C 0.01082 0.50399 0.3775 0.0
H769 H 0.04266 0.59084 0.33556 0.0
H770 H 0.00846 0.55909 0.35172 0.0
H771 H 0.0587 0.57721 0.35905 0.0
H772 H 0.09195 0.50583 0.36381 0.0
H773 H 0.10711 0.51831 0.40386 0.0
loop_
_geom_bond_atom_site_label_1
_geom_bond_atom_site_label_2
_geom_bond_distance
_geom_bond_site_symmetry_2
_ccdc_geom_bond_type
Zn0 O6 1.969 . S
Zn0 O7 1.965 . S
Zn0 O11 2.024 . S
Zn0 O16 1.969 . S
Zn1 O8 1.969 . S
Zn1 O14 1.969 . S
Zn1 O15 1.965 1_655 S
Zn1 O17 2.024 . S
C2 O3 1.229 . S
C2 O11 1.058 . S
O3 C2 1.229 . S
C4 O5 1.229 . S
C4 O17 1.058 . S
O5 C4 1.229 . S
O6 Zn0 1.969 . S
O6 C9 1.267 . S
O7 Zn0 1.965 . S
O7 C18 1.260 . S
O8 Zn1 1.969 . S
O8 C18 1.258 1_655 S
C9 O6 1.267 . S
C9 O10 1.228 . S
O10 C9 1.228 . S
O11 Zn0 2.024 . S
O11 C2 1.058 . S
C12 O13 1.228 . S
C12 O14 1.267 . S
O13 C12 1.228 . S
O14 Zn1 1.969 . S
O14 C12 1.267 . S
O15 Zn1 1.965 1_455 S
O15 C19 1.260 . S
O16 Zn0 1.969 . S
O16 C19 1.258 . S
O17 Zn1 2.024 . S
O17 C4 1.058 . S
C18 O7 1.260 . S
C18 O8 1.258 1_455 S
C19 O15 1.260 . S
C19 O16 1.258 . S
Zn20 O26 1.969 . S
Zn20 O27 1.965 . S
Zn20 O31 2.024 . S
Zn20 O36 1.969 . S
Zn21 O28 1.969 . S
Zn21 O34 1.969 . S
Zn21 O35 1.965 1_565 S
Zn21 O37 2.024 . S
C22 O23 1.229 . S
C22 O31 1.058 . S
O23 C22 1.229 . S
C24 O25 1.229 . S
C24 O37 1.058 . S
O25 C24 1.229 . S
O26 Zn20 1.969 . S
O26 C29 1.267 . S
O27 Zn20 1.965 . S
O27 C38 1.260 . S
O28 Zn21 1.969 . S
O28 C38 1.258 1_565 S
C29 O26 1.267 . S
C29 O30 1.228 . S
O30 C29 1.228 . S
O31 Zn20 2.024 . S
O31 C22 1.058 . S
C32 O33 1.228 . S
C32 O34 1.267 . S
O33 C32 1.228 . S
O34 Zn21 1.969 . S
O34 C32 1.267 . S
O35 Zn21 1.965 1_545 S
O35 C39 1.260 . S
O36 Zn20 1.969 . S
O36 C39 1.258 . S
O37 Zn21 2.024 . S
O37 C24 1.058 . S
C38 O27 1.260 . S
C38 O28 1.258 1_545 S
C39 O35 1.260 . S
C39 O36 1.258 . S
Zn40 O46 1.969 . S
Zn40 O47 1.965 . S
Zn40 O51 2.024 . S
Zn40 O56 1.969 . S
Zn41 O48 1.969 . S
Zn41 O54 1.969 . S
Zn41 O55 1.965 . S
Zn41 O57 2.024 . S
C42 O43 1.229 . S
C42 O51 1.058 . S
O43 C42 1.229 . S
C44 O45 1.229 . S
C44 O57 1.058 . S
O45 C44 1.229 . S
O46 Zn40 1.969 . S
O46 C49 1.267 . S
O47 Zn40 1.965 . S
O47 C58 1.260 . S
O48 Zn41 1.969 . S
O48 C58 1.258 . S
C49 O46 1.267 . S
C49 O50 1.228 . S
O50 C49 1.228 . S
O51 Zn40 2.024 . S
O51 C42 1.058 . S
C52 O53 1.228 . S
C52 O54 1.267 . S
O53 C52 1.228 . S
O54 Zn41 1.969 . S
O54 C52 1.267 . S
O55 Zn41 1.965 . S
O55 C59 1.260 . S
O56 Zn40 1.969 . S
O56 C59 1.258 . S
O57 Zn41 2.024 . S
O57 C44 1.058 . S
C58 O47 1.260 . S
C58 O48 1.258 . S
C59 O55 1.260 . S
C59 O56 1.258 . S
H60 C63 0.929 . S
H61 C66 0.929 . S
H62 C68 0.930 . S
C63 H60 0.929 . S
C63 C64 1.398 . S
C63 C65 1.396 . S
C64 C63 1.398 . S
C64 C68 1.407 . S
C65 C63 1.396 . S
C65 C66 1.394 . S
C66 H61 0.929 . S
C66 C65 1.394 . S
C66 C67 1.382 . S
C67 C66 1.382 . S
C67 C68 1.392 . S
C67 N69 1.420 . S
C68 H62 0.930 . S
C68 C64 1.407 . S
C68 C67 1.392 . S
N69 C67 1.420 . S
N69 C70 1.244 . S
C70 N69 1.244 . S
H71 C74 0.929 . S
H72 C77 0.929 . S
H73 C79 0.930 . S
C74 H71 0.929 . S
C74 C75 1.398 . S
C74 C76 1.396 . S
C75 C74 1.398 . S
C75 C79 1.407 . S
C76 C74 1.396 . S
C76 C77 1.394 . S
C77 H72 0.929 . S
C77 C76 1.394 . S
C77 C78 1.382 . S
C78 C77 1.382 . S
C78 C79 1.392 . S
C78 N80 1.420 . S
C79 H73 0.930 . S
C79 C75 1.407 . S
C79 C78 1.392 . S
N80 C78 1.420 . S
N80 C81 1.244 . S
C81 N80 1.244 . S
H82 C85 0.929 . S
H83 C88 0.929 . S
H84 C90 0.930 . S
C85 H82 0.929 . S
C85 C86 1.398 . S
C85 C87 1.396 . S
C86 C85 1.398 . S
C86 C90 1.407 . S
C87 C85 1.396 . S
C87 C88 1.394 . S
C88 H83 0.929 . S
C88 C87 1.394 . S
C88 C89 1.382 . S
C89 C88 1.382 . S
C89 C90 1.392 . S
C89 N91 1.420 . S
C90 H84 0.930 . S
C90 C86 1.407 . S
C90 C89 1.392 . S
N91 C89 1.420 . S
N91 C92 1.244 . S
C92 N91 1.244 . S
H93 C96 0.929 . S
H94 C99 0.929 1_655 S
H95 C101 0.930 . S
C96 H93 0.929 . S
C96 C97 1.398 . S
C96 C98 1.396 . S
C97 C96 1.398 . S
C97 C101 1.407 . S
C98 C96 1.396 . S
C98 C99 1.394 . S
C99 H94 0.929 1_455 S
C99 C98 1.394 . S
C99 C100 1.382 . S
C100 C99 1.382 . S
C100 C101 1.392 . S
C100 N102 1.415 1_455 S
C101 H95 0.930 . S
C101 C97 1.407 . S
C101 C100 1.392 . S
N102 C100 1.415 1_655 S
N102 C103 1.264 . S
C103 N102 1.264 . S
H104 C107 0.929 . S
H105 C110 0.921 1_565 S
H106 C112 0.930 . S
C107 H104 0.929 . S
C107 C108 1.398 . S
C107 C109 1.396 . S
C108 C107 1.398 . S
C108 C112 1.407 . S
C109 C107 1.396 . S
C109 C110 1.394 . S
C110 H105 0.921 1_545 S
C110 C109 1.394 . S
C110 C111 1.382 . S
C111 C110 1.382 . S
C111 C112 1.392 . S
C111 N113 1.420 . S
C112 H106 0.930 . S
C112 C108 1.407 . S
C112 C111 1.392 . S
N113 C111 1.420 . S
N113 C114 1.244 1_545 S
C114 N113 1.244 1_565 S
H115 C118 0.929 . S
H116 C121 0.929 . S
H117 C123 0.930 . S
C118 H115 0.929 . S
C118 C119 1.398 . S
C118 C120 1.396 . S
C119 C118 1.398 . S
C119 C123 1.407 . S
C120 C118 1.396 . S
C120 C121 1.394 . S
C121 H116 0.929 . S
C121 C120 1.394 . S
C121 C122 1.382 . S
C122 C121 1.382 . S
C122 C123 1.392 . S
C122 N124 1.420 . S
C123 H117 0.930 . S
C123 C119 1.407 . S
C123 C122 1.392 . S
N124 C122 1.420 . S
N124 C125 1.244 . S
C125 N124 1.244 . S
H126 C134 0.929 . S
H127 C136 0.930 . S
H128 C138 0.930 . S
H129 C141 0.929 . S
H130 C144 0.930 . S
H131 C146 0.960 . S
H132 C146 0.960 . S
H133 C146 0.960 . S
C134 H126 0.929 . S
C134 C135 1.377 . S
C134 C136 1.384 . S
C135 C134 1.377 . S
C135 C141 1.390 . S
C136 H127 0.930 . S
C136 C134 1.384 . S
C136 C137 1.372 . S
C137 C136 1.372 . S
C137 C138 1.400 . S
C137 C142 1.490 . S
C138 H128 0.930 . S
C138 C137 1.400 . S
C138 C141 1.386 . S
H139 C155 0.930 . S
H140 C156 0.931 . S
C141 H129 0.929 . S
C141 C135 1.390 . S
C141 C138 1.386 . S
C142 C137 1.490 . S
C142 C144 1.395 . S
C142 C145 1.403 . S
H143 C149 0.930 . S
C144 H130 0.930 . S
C144 C142 1.395 . S
C144 C147 1.403 . S
C145 C142 1.403 . S
C145 C146 1.524 . S
C145 C149 1.400 . S
C146 H131 0.960 . S
C146 H132 0.960 . S
C146 H133 0.960 . S
C146 C145 1.524 . S
C147 C144 1.403 . S
C147 C148 1.392 . S
C147 C151 1.495 . S
C148 C147 1.392 . S
C148 C149 1.385 . S
C148 C150 1.478 . S
C149 H143 0.930 . S
C149 C145 1.400 . S
C149 C148 1.385 . S
C150 C148 1.478 . S
C150 C152 1.381 . S
C150 C156 1.383 . S
C151 C147 1.495 . S
C151 H157 0.959 . S
C151 H158 0.961 . S
C151 H159 0.960 . S
C152 C150 1.381 . S
C152 C153 1.394 . S
C152 H160 0.930 . S
C153 C152 1.394 . S
C153 C154 1.383 . S
C153 H161 0.929 . S
C154 C153 1.383 . S
C154 C155 1.377 . S
C155 H139 0.930 . S
C155 C154 1.377 . S
C155 C156 1.379 . S
C156 H140 0.931 . S
C156 C150 1.383 . S
C156 C155 1.379 . S
H157 C151 0.959 . S
H158 C151 0.961 . S
H159 C151 0.960 . S
H160 C152 0.930 . S
H161 C153 0.929 . S
H162 C170 0.929 . S
H163 C172 0.930 . S
H164 C174 0.930 . S
H165 C177 0.929 . S
H166 C180 0.930 . S
H167 C182 0.960 . S
H168 C182 0.960 . S
H169 C182 0.960 . S
C170 H162 0.929 . S
C170 C171 1.377 . S
C170 C172 1.384 . S
C171 C170 1.377 . S
C171 C177 1.390 . S
C172 H163 0.930 . S
C172 C170 1.384 . S
C172 C173 1.372 . S
C173 C172 1.372 . S
C173 C174 1.400 . S
C173 C178 1.490 . S
C174 H164 0.930 . S
C174 C173 1.400 . S
C174 C177 1.386 . S
H175 C191 0.930 . S
H176 C192 0.931 . S
C177 H165 0.929 . S
C177 C171 1.390 . S
C177 C174 1.386 . S
C178 C173 1.490 . S
C178 C180 1.395 . S
C178 C181 1.403 . S
H179 C185 0.930 . S
C180 H166 0.930 . S
C180 C178 1.395 . S
C180 C183 1.403 . S
C181 C178 1.403 . S
C181 C182 1.524 . S
C181 C185 1.400 . S
C182 H167 0.960 . S
C182 H168 0.960 . S
C182 H169 0.960 . S
C182 C181 1.524 . S
C183 C180 1.403 . S
C183 C184 1.392 . S
C183 C187 1.495 . S
C184 C183 1.392 . S
C184 C185 1.385 . S
C184 C186 1.478 . S
C185 H179 0.930 . S
C185 C181 1.400 . S
C185 C184 1.385 . S
C186 C184 1.478 . S
C186 C188 1.381 . S
C186 C192 1.383 . S
C187 C183 1.495 . S
C187 H193 0.959 . S
C187 H194 0.961 . S
C187 H195 0.960 . S
C188 C186 1.381 . S
C188 C189 1.394 . S
C188 H196 0.930 . S
C189 C188 1.394 . S
C189 C190 1.383 . S
C189 H197 0.929 . S
C190 C189 1.383 . S
C190 C191 1.377 . S
C191 H175 0.930 . S
C191 C190 1.377 . S
C191 C192 1.379 . S
C192 H176 0.931 . S
C192 C186 1.383 . S
C192 C191 1.379 . S
H193 C187 0.959 . S
H194 C187 0.961 . S
H195 C187 0.960 . S
H196 C188 0.930 . S
H197 C189 0.929 . S
H198 C206 0.929 . S
H199 C208 0.930 . S
H200 C210 0.930 . S
H201 C213 0.929 . S
H202 C216 0.930 . S
H203 C218 0.960 . S
H204 C218 0.960 . S
H205 C218 0.960 . S
C206 H198 0.929 . S
C206 C207 1.377 . S
C206 C208 1.384 . S
C207 C206 1.377 . S
C207 C213 1.390 . S
C208 H199 0.930 . S
C208 C206 1.384 . S
C208 C209 1.372 . S
C209 C208 1.372 . S
C209 C210 1.400 . S
C209 C214 1.490 . S
C210 H200 0.930 . S
C210 C209 1.400 . S
C210 C213 1.386 . S
H211 C227 0.930 . S
H212 C228 0.931 . S
C213 H201 0.929 . S
C213 C207 1.390 . S
C213 C210 1.386 . S
C214 C209 1.490 . S
C214 C216 1.395 . S
C214 C217 1.403 . S
H215 C221 0.930 . S
C216 H202 0.930 . S
C216 C214 1.395 . S
C216 C219 1.403 . S
C217 C214 1.403 . S
C217 C218 1.524 . S
C217 C221 1.400 . S
C218 H203 0.960 . S
C218 H204 0.960 . S
C218 H205 0.960 . S
C218 C217 1.524 . S
C219 C216 1.403 . S
C219 C220 1.392 . S
C219 C223 1.495 . S
C220 C219 1.392 . S
C220 C221 1.385 . S
C220 C222 1.478 . S
C221 H215 0.930 . S
C221 C217 1.400 . S
C221 C220 1.385 . S
C222 C220 1.478 . S
C222 C224 1.381 . S
C222 C228 1.383 . S
C223 C219 1.495 . S
C223 H229 0.959 . S
C223 H230 0.961 . S
C223 H231 0.960 . S
C224 C222 1.381 . S
C224 C225 1.394 . S
C224 H232 0.930 . S
C225 C224 1.394 . S
C225 C226 1.383 . S
C225 H233 0.929 . S
C226 C225 1.383 . S
C226 C227 1.377 . S
C227 H211 0.930 . S
C227 C226 1.377 . S
C227 C228 1.379 . S
C228 H212 0.931 . S
C228 C222 1.383 . S
C228 C227 1.379 . S
H229 C223 0.959 . S
H230 C223 0.961 . S
H231 C223 0.960 . S
H232 C224 0.930 . S
H233 C225 0.929 . S
H234 C242 0.929 . S
H235 C244 0.930 . S
H236 C246 0.930 . S
H237 C249 0.929 . S
H238 C252 0.930 . S
H239 C254 0.960 . S
H240 C254 0.960 . S
H241 C254 0.960 . S
C242 H234 0.929 . S
C242 C243 1.377 . S
C242 C244 1.384 . S
C243 C242 1.377 . S
C243 C249 1.390 . S
C244 H235 0.930 . S
C244 C242 1.384 . S
C244 C245 1.372 . S
C245 C244 1.372 . S
C245 C246 1.400 . S
C245 C250 1.490 . S
C246 H236 0.930 . S
C246 C245 1.400 . S
C246 C249 1.386 . S
H247 C263 0.930 . S
H248 C264 0.931 . S
C249 H237 0.929 . S
C249 C243 1.390 . S
C249 C246 1.386 . S
C250 C245 1.490 . S
C250 C252 1.395 . S
C250 C253 1.403 . S
H251 C257 0.930 . S
C252 H238 0.930 . S
C252 C250 1.395 . S
C252 C255 1.403 . S
C253 C250 1.403 . S
C253 C254 1.524 . S
C253 C257 1.400 . S
C254 H239 0.960 . S
C254 H240 0.960 . S
C254 H241 0.960 . S
C254 C253 1.524 . S
C255 C252 1.403 . S
C255 C256 1.392 . S
C255 C259 1.495 . S
C256 C255 1.392 . S
C256 C257 1.385 . S
C256 C258 1.478 . S
C257 H251 0.930 . S
C257 C253 1.400 . S
C257 C256 1.385 . S
C258 C256 1.478 . S
C258 C260 1.381 . S
C258 C264 1.383 . S
C259 C255 1.495 . S
C259 H265 0.959 . S
C259 H266 0.961 . S
C259 H267 0.960 . S
C260 C258 1.381 . S
C260 C261 1.394 . S
C260 H268 0.930 . S
C261 C260 1.394 . S
C261 C262 1.383 . S
C261 H269 0.929 . S
C262 C261 1.383 . S
C262 C263 1.377 . S
C263 H247 0.930 . S
C263 C262 1.377 . S
C263 C264 1.379 . S
C264 H248 0.931 . S
C264 C258 1.383 . S
C264 C263 1.379 . S
H265 C259 0.959 . S
H266 C259 0.961 . S
H267 C259 0.960 . S
H268 C260 0.930 . S
H269 C261 0.929 . S
H270 C278 0.929 . S
H271 C280 0.930 . S
H272 C282 0.930 . S
H273 C285 0.929 . S
H274 C288 0.930 . S
H275 C290 0.960 . S
H276 C290 0.960 . S
H277 C290 0.960 . S
C278 H270 0.929 . S
C278 C279 1.377 . S
C278 C280 1.384 . S
C279 C278 1.377 . S
C279 C285 1.390 . S
C280 H271 0.930 . S
C280 C278 1.384 . S
C280 C281 1.372 . S
C281 C280 1.372 . S
C281 C282 1.400 . S
C281 C286 1.490 . S
C282 H272 0.930 . S
C282 C281 1.400 . S
C282 C285 1.386 . S
H283 C299 0.930 . S
H284 C300 0.931 . S
C285 H273 0.929 . S
C285 C279 1.390 . S
C285 C282 1.386 . S
C286 C281 1.490 . S
C286 C288 1.395 . S
C286 C289 1.403 . S
H287 C293 0.930 . S
C288 H274 0.930 . S
C288 C286 1.395 . S
C288 C291 1.403 . S
C289 C286 1.403 . S
C289 C290 1.524 . S
C289 C293 1.400 . S
C290 H275 0.960 . S
C290 H276 0.960 . S
C290 H277 0.960 . S
C290 C289 1.524 . S
C291 C288 1.403 . S
C291 C292 1.392 . S
C291 C295 1.495 . S
C292 C291 1.392 . S
C292 C293 1.385 . S
C292 C294 1.478 . S
C293 H287 0.930 . S
C293 C289 1.400 . S
C293 C292 1.385 . S
C294 C292 1.478 . S
C294 C296 1.381 . S
C294 C300 1.383 . S
C295 C291 1.495 . S
C295 H301 0.959 . S
C295 H302 0.961 . S
C295 H303 0.960 . S
C296 C294 1.381 . S
C296 C297 1.394 . S
C296 H304 0.930 . S
C297 C296 1.394 . S
C297 C298 1.383 . S
C297 H305 0.929 . S
C298 C297 1.383 . S
C298 C299 1.377 . S
C299 H283 0.930 . S
C299 C298 1.377 . S
C299 C300 1.379 . S
C300 H284 0.931 . S
C300 C294 1.383 . S
C300 C299 1.379 . S
H301 C295 0.959 . S
H302 C295 0.961 . S
H303 C295 0.960 . S
H304 C296 0.930 . S
H305 C297 0.929 . S
H306 C314 0.929 . S
H307 C316 0.930 . S
H308 C318 0.930 . S
H309 C321 0.929 . S
H310 C324 0.930 . S
H311 C326 0.960 . S
H312 C326 0.960 . S
H313 C326 0.960 . S
C314 H306 0.929 . S
C314 C315 1.377 . S
C314 C316 1.384 . S
C315 C314 1.377 . S
C315 C321 1.390 . S
C316 H307 0.930 . S
C316 C314 1.384 . S
C316 C317 1.372 . S
C317 C316 1.372 . S
C317 C318 1.400 . S
C317 C322 1.490 . S
C318 H308 0.930 . S
C318 C317 1.400 . S
C318 C321 1.386 . S
H319 C335 0.930 . S
H320 C336 0.931 . S
C321 H309 0.929 . S
C321 C315 1.390 . S
C321 C318 1.386 . S
C322 C317 1.490 . S
C322 C324 1.395 . S
C322 C325 1.403 . S
H323 C329 0.930 . S
C324 H310 0.930 . S
C324 C322 1.395 . S
C324 C327 1.403 . S
C325 C322 1.403 . S
C325 C326 1.524 . S
C325 C329 1.400 . S
C326 H311 0.960 . S
C326 H312 0.960 . S
C326 H313 0.960 . S
C326 C325 1.524 . S
C327 C324 1.403 . S
C327 C328 1.392 . S
C327 C331 1.495 . S
C328 C327 1.392 . S
C328 C329 1.385 . S
C328 C330 1.478 . S
C329 H323 0.930 . S
C329 C325 1.400 . S
C329 C328 1.385 . S
C330 C328 1.478 . S
C330 C332 1.381 . S
C330 C336 1.383 . S
C331 C327 1.495 . S
C331 H337 0.959 . S
C331 H338 0.961 . S
C331 H339 0.960 . S
C332 C330 1.381 . S
C332 C333 1.394 . S
C332 H340 0.930 . S
C333 C332 1.394 . S
C333 C334 1.383 . S
C333 H341 0.929 . S
C334 C333 1.383 . S
C334 C335 1.377 . S
C335 H319 0.930 . S
C335 C334 1.377 . S
C335 C336 1.379 . S
C336 H320 0.931 . S
C336 C330 1.383 . S
C336 C335 1.379 . S
H337 C331 0.959 . S
H338 C331 0.961 . S
H339 C331 0.960 . S
H340 C332 0.930 . S
H341 C333 0.929 . S
H342 C350 0.929 . S
H343 C352 0.930 . S
H344 C354 0.930 . S
H345 C357 0.929 . S
H346 C360 0.930 . S
H347 C362 0.960 . S
H348 C362 0.960 . S
H349 C362 0.960 . S
C350 H342 0.929 . S
C350 C351 1.377 . S
C350 C352 1.384 . S
C351 C350 1.377 . S
C351 C357 1.390 . S
C352 H343 0.930 . S
C352 C350 1.384 . S
C352 C353 1.372 . S
C353 C352 1.372 . S
C353 C354 1.400 . S
C353 C358 1.490 . S
C354 H344 0.930 . S
C354 C353 1.400 . S
C354 C357 1.386 . S
H355 C371 0.930 . S
H356 C372 0.931 . S
C357 H345 0.929 . S
C357 C351 1.390 . S
C357 C354 1.386 . S
C358 C353 1.490 . S
C358 C360 1.395 . S
C358 C361 1.403 . S
H359 C365 0.930 . S
C360 H346 0.930 . S
C360 C358 1.395 . S
C360 C363 1.403 . S
C361 C358 1.403 . S
C361 C362 1.524 . S
C361 C365 1.400 . S
C362 H347 0.960 . S
C362 H348 0.960 . S
C362 H349 0.960 . S
C362 C361 1.524 . S
C363 C360 1.403 . S
C363 C364 1.392 . S
C363 C367 1.495 . S
C364 C363 1.392 . S
C364 C365 1.385 . S
C364 C366 1.478 . S
C365 H359 0.930 . S
C365 C361 1.400 . S
C365 C364 1.385 . S
C366 C364 1.478 . S
C366 C368 1.381 . S
C366 C372 1.383 . S
C367 C363 1.495 . S
C367 H373 0.959 . S
C367 H374 0.961 . S
C367 H375 0.960 . S
C368 C366 1.381 . S
C368 C369 1.394 . S
C368 H376 0.930 . S
C369 C368 1.394 . S
C369 C370 1.383 . S
C369 H377 0.929 . S
C370 C369 1.383 . S
C370 C371 1.377 . S
C371 H355 0.930 . S
C371 C370 1.377 . S
C371 C372 1.379 . S
C372 H356 0.931 . S
C372 C366 1.383 . S
C372 C371 1.379 . S
H373 C367 0.959 . S
H374 C367 0.961 . S
H375 C367 0.960 . S
H376 C368 0.930 . S
H377 C369 0.929 . S
H378 C386 0.929 . S
H379 C388 0.930 . S
H380 C390 0.930 . S
H381 C393 0.929 . S
H382 C396 0.930 . S
H383 C398 0.960 . S
H384 C398 0.960 . S
H385 C398 0.960 . S
C386 H378 0.929 . S
C386 C387 1.377 . S
C386 C388 1.384 . S
C387 C386 1.377 . S
C387 C393 1.390 . S
C388 H379 0.930 . S
C388 C386 1.384 . S
C388 C389 1.372 . S
C389 C388 1.372 . S
C389 C390 1.400 . S
C389 C394 1.490 . S
C390 H380 0.930 . S
C390 C389 1.400 . S
C390 C393 1.386 . S
H391 C407 0.930 . S
H392 C408 0.931 . S
C393 H381 0.929 . S
C393 C387 1.390 . S
C393 C390 1.386 . S
C394 C389 1.490 . S
C394 C396 1.395 . S
C394 C397 1.403 . S
H395 C401 0.930 . S
C396 H382 0.930 . S
C396 C394 1.395 . S
C396 C399 1.403 . S
C397 C394 1.403 . S
C397 C398 1.524 . S
C397 C401 1.400 . S
C398 H383 0.960 . S
C398 H384 0.960 . S
C398 H385 0.960 . S
C398 C397 1.524 . S
C399 C396 1.403 . S
C399 C400 1.392 . S
C399 C403 1.495 . S
C400 C399 1.392 . S
C400 C401 1.385 . S
C400 C402 1.478 . S
C401 H395 0.930 . S
C401 C397 1.400 . S
C401 C400 1.385 . S
C402 C400 1.478 . S
C402 C404 1.381 . S
C402 C408 1.383 . S
C403 C399 1.495 . S
C403 H409 0.959 . S
C403 H410 0.961 . S
C403 H411 0.960 . S
C404 C402 1.381 . S
C404 C405 1.394 . S
C404 H412 0.930 . S
C405 C404 1.394 . S
C405 C406 1.383 . S
C405 H413 0.929 1_655 S
C406 C405 1.383 . S
C406 C407 1.377 . S
C407 H391 0.930 . S
C407 C406 1.377 . S
C407 C408 1.379 . S
C408 H392 0.931 . S
C408 C402 1.383 . S
C408 C407 1.379 . S
H409 C403 0.959 . S
H410 C403 0.961 . S
H411 C403 0.960 . S
H412 C404 0.930 . S
H413 C405 0.929 1_455 S
H414 C422 0.929 . S
H415 C424 0.930 . S
H416 C426 0.930 . S
H417 C429 0.929 . S
H418 C432 0.930 . S
H419 C434 0.960 . S
H420 C434 0.960 . S
H421 C434 0.960 . S
C422 H414 0.929 . S
C422 C423 1.377 . S
C422 C424 1.384 . S
C423 C422 1.377 . S
C423 C429 1.390 . S
C424 H415 0.930 . S
C424 C422 1.384 . S
C424 C425 1.372 . S
C425 C424 1.372 . S
C425 C426 1.400 . S
C425 C430 1.490 . S
C426 H416 0.930 . S
C426 C425 1.400 . S
C426 C429 1.386 . S
H427 C443 0.930 . S
H428 C444 0.931 . S
C429 H417 0.929 . S
C429 C423 1.390 . S
C429 C426 1.386 . S
C430 C425 1.490 . S
C430 C432 1.395 . S
C430 C433 1.403 . S
H431 C437 0.930 . S
C432 H418 0.930 . S
C432 C430 1.395 . S
C432 C435 1.403 . S
C433 C430 1.403 . S
C433 C434 1.524 . S
C433 C437 1.400 . S
C434 H419 0.960 . S
C434 H420 0.960 . S
C434 H421 0.960 . S
C434 C433 1.524 . S
C435 C432 1.403 . S
C435 C436 1.392 . S
C435 C439 1.495 . S
C436 C435 1.392 . S
C436 C437 1.385 . S
C436 C438 1.478 . S
C437 H431 0.930 . S
C437 C433 1.400 . S
C437 C436 1.385 . S
C438 C436 1.478 . S
C438 C440 1.381 . S
C438 C444 1.383 . S
C439 C435 1.495 . S
C439 H445 0.959 . S
C439 H446 0.961 . S
C439 H447 0.960 . S
C440 C438 1.381 . S
C440 C441 1.394 . S
C440 H448 0.930 . S
C441 C440 1.394 . S
C441 C442 1.383 . S
C441 H449 0.929 . S
C442 C441 1.383 . S
C442 C443 1.377 . S
C443 H427 0.930 . S
C443 C442 1.377 . S
C443 C444 1.379 . S
C444 H428 0.931 . S
C444 C438 1.383 . S
C444 C443 1.379 . S
H445 C439 0.959 . S
H446 C439 0.961 . S
H447 C439 0.960 . S
H448 C440 0.930 . S
H449 C441 0.929 . S
H450 C458 0.929 . S
H451 C460 0.930 . S
H452 C462 0.930 . S
H453 C465 0.929 . S
H454 C468 0.930 . S
H455 C470 0.960 . S
H456 C470 0.960 . S
H457 C470 0.960 . S
C458 H450 0.929 . S
C458 C459 1.377 . S
C458 C460 1.384 . S
C459 C458 1.377 . S
C459 C465 1.390 . S
C460 H451 0.930 . S
C460 C458 1.384 . S
C460 C461 1.372 . S
C461 C460 1.372 . S
C461 C462 1.400 . S
C461 C466 1.490 . S
C462 H452 0.930 . S
C462 C461 1.400 . S
C462 C465 1.386 . S
H463 C479 0.930 . S
H464 C480 0.931 . S
C465 H453 0.929 . S
C465 C459 1.390 . S
C465 C462 1.386 . S
C466 C461 1.490 . S
C466 C468 1.395 . S
C466 C469 1.403 . S
H467 C473 0.930 . S
C468 H454 0.930 . S
C468 C466 1.395 . S
C468 C471 1.403 . S
C469 C466 1.403 . S
C469 C470 1.524 . S
C469 C473 1.400 . S
C470 H455 0.960 . S
C470 H456 0.960 . S
C470 H457 0.960 . S
C470 C469 1.524 . S
C471 C468 1.403 . S
C471 C472 1.392 . S
C471 C475 1.495 . S
C472 C471 1.392 . S
C472 C473 1.385 . S
C472 C474 1.478 . S
C473 H467 0.930 . S
C473 C469 1.400 . S
C473 C472 1.385 . S
C474 C472 1.478 . S
C474 C476 1.381 . S
C474 C480 1.383 . S
C475 C471 1.495 . S
C475 H481 0.959 . S
C475 H482 0.961 . S
C475 H483 0.960 . S
C476 C474 1.381 . S
C476 C477 1.394 . S
C476 H484 0.930 . S
C477 C476 1.394 . S
C477 C478 1.383 . S
C477 H485 0.929 . S
C478 C477 1.383 . S
C478 C479 1.377 . S
C479 H463 0.930 . S
C479 C478 1.377 . S
C479 C480 1.379 . S
C480 H464 0.931 . S
C480 C474 1.383 . S
C480 C479 1.379 . S
H481 C475 0.959 . S
H482 C475 0.961 . S
H483 C475 0.960 . S
H484 C476 0.930 . S
H485 C477 0.929 . S
H486 C494 0.929 . S
H487 C496 0.930 . S
H488 C498 0.930 . S
H489 C501 0.929 . S
H490 C504 0.930 . S
H491 C506 0.960 . S
H492 C506 0.960 . S
H493 C506 0.960 . S
C494 H486 0.929 . S
C494 C495 1.377 . S
C494 C496 1.384 . S
C495 C494 1.377 . S
C495 C501 1.390 . S
C496 H487 0.930 . S
C496 C494 1.384 . S
C496 C497 1.372 . S
C497 C496 1.372 . S
C497 C498 1.400 . S
C497 C502 1.490 . S
C498 H488 0.930 . S
C498 C497 1.400 . S
C498 C501 1.386 . S
H499 C515 0.930 . S
H500 C516 0.931 . S
C501 H489 0.929 . S
C501 C495 1.390 . S
C501 C498 1.386 . S
C502 C497 1.490 . S
C502 C504 1.395 . S
C502 C505 1.403 . S
H503 C509 0.930 . S
C504 H490 0.930 . S
C504 C502 1.395 . S
C504 C507 1.403 . S
C505 C502 1.403 . S
C505 C506 1.524 . S
C505 C509 1.400 . S
C506 H491 0.960 . S
C506 H492 0.960 . S
C506 H493 0.960 . S
C506 C505 1.524 . S
C507 C504 1.403 . S
C507 C508 1.392 . S
C507 C511 1.495 . S
C508 C507 1.392 . S
C508 C509 1.385 . S
C508 C510 1.478 . S
C509 H503 0.930 . S
C509 C505 1.400 . S
C509 C508 1.385 . S
C510 C508 1.478 . S
C510 C512 1.381 . S
C510 C516 1.383 . S
C511 C507 1.495 . S
C511 H517 0.959 . S
C511 H518 0.961 . S
C511 H519 0.960 . S
C512 C510 1.381 . S
C512 C513 1.394 . S
C512 H520 0.930 . S
C513 C512 1.394 . S
C513 C514 1.383 . S
C513 H521 0.929 . S
C514 C513 1.383 . S
C514 C515 1.377 . S
C515 H499 0.930 . S
C515 C514 1.377 . S
C515 C516 1.379 . S
C516 H500 0.931 . S
C516 C510 1.383 . S
C516 C515 1.379 . S
H517 C511 0.959 . S
H518 C511 0.961 . S
H519 C511 0.960 . S
H520 C512 0.930 . S
H521 C513 0.929 . S
H522 C530 0.929 . S
H523 C532 0.930 . S
H524 C534 0.930 . S
H525 C537 0.929 . S
H526 C540 0.930 . S
H527 C542 0.960 . S
H528 C542 0.960 . S
H529 C542 0.960 . S
C530 H522 0.929 . S
C530 C531 1.377 . S
C530 C532 1.384 . S
C531 C530 1.377 . S
C531 C537 1.390 . S
C532 H523 0.930 . S
C532 C530 1.384 . S
C532 C533 1.372 . S
C533 C532 1.372 . S
C533 C534 1.400 . S
C533 C538 1.490 . S
C534 H524 0.930 . S
C534 C533 1.400 . S
C534 C537 1.386 . S
H535 C551 0.930 . S
H536 C552 0.931 . S
C537 H525 0.929 . S
C537 C531 1.390 . S
C537 C534 1.386 . S
C538 C533 1.490 . S
C538 C540 1.395 . S
C538 C541 1.403 . S
H539 C545 0.930 . S
C540 H526 0.930 . S
C540 C538 1.395 . S
C540 C543 1.403 . S
C541 C538 1.403 . S
C541 C542 1.524 . S
C541 C545 1.400 . S
C542 H527 0.960 . S
C542 H528 0.960 . S
C542 H529 0.960 . S
C542 C541 1.524 . S
C543 C540 1.403 . S
C543 C544 1.392 . S
C543 C547 1.495 . S
C544 C543 1.392 . S
C544 C545 1.385 . S
C544 C546 1.478 . S
C545 H539 0.930 . S
C545 C541 1.400 . S
C545 C544 1.385 . S
C546 C544 1.478 . S
C546 C548 1.381 . S
C546 C552 1.383 . S
C547 C543 1.495 . S
C547 H553 0.959 . S
C547 H554 0.961 . S
C547 H555 0.960 . S
C548 C546 1.381 . S
C548 C549 1.394 . S
C548 H556 0.930 . S
C549 C548 1.394 . S
C549 C550 1.383 . S
C549 H557 0.929 . S
C550 C549 1.383 . S
C550 C551 1.377 . S
C551 H535 0.930 . S
C551 C550 1.377 . S
C551 C552 1.379 . S
C552 H536 0.931 . S
C552 C546 1.383 . S
C552 C551 1.379 . S
H553 C547 0.959 . S
H554 C547 0.961 . S
H555 C547 0.960 . S
H556 C548 0.930 . S
H557 C549 0.929 . S
H558 C566 0.929 . S
H559 C568 0.930 . S
H560 C570 0.930 . S
H561 C573 0.929 . S
H562 C576 0.930 . S
H563 C578 0.960 . S
H564 C578 0.960 . S
H565 C578 0.960 . S
C566 H558 0.929 . S
C566 C567 1.377 . S
C566 C568 1.384 . S
C567 C566 1.377 . S
C567 C573 1.390 . S
C568 H559 0.930 . S
C568 C566 1.384 . S
C568 C569 1.372 . S
C569 C568 1.372 . S
C569 C570 1.400 . S
C569 C574 1.490 . S
C570 H560 0.930 . S
C570 C569 1.400 . S
C570 C573 1.386 . S
H571 C587 0.930 . S
H572 C588 0.931 . S
C573 H561 0.929 . S
C573 C567 1.390 . S
C573 C570 1.386 . S
C574 C569 1.490 . S
C574 C576 1.395 . S
C574 C577 1.403 . S
H575 C581 0.930 1_556 S
C576 H562 0.930 . S
C576 C574 1.395 . S
C576 C579 1.403 . S
C577 C574 1.403 . S
C577 C578 1.524 1_455 S
C577 C581 1.400 . S
C578 H563 0.960 . S
C578 H564 0.960 . S
C578 H565 0.960 . S
C578 C577 1.524 1_655 S
C579 C576 1.403 . S
C579 C580 1.392 1_554 S
C579 C583 1.495 . S
C580 C579 1.392 1_556 S
C580 C581 1.385 1_556 S
C580 C582 1.478 . S
C581 H575 0.930 1_554 S
C581 C577 1.400 . S
C581 C580 1.385 1_554 S
C582 C580 1.478 . S
C582 C584 1.381 . S
C582 C588 1.383 . S
C583 C579 1.495 . S
C583 H589 0.959 . S
C583 H590 0.961 1_554 S
C583 H591 0.960 1_554 S
C584 C582 1.381 . S
C584 C585 1.394 . S
C584 H592 0.930 . S
C585 C584 1.394 . S
C585 C586 1.383 . S
C585 H593 0.929 . S
C586 C585 1.383 . S
C586 C587 1.377 . S
C587 H571 0.930 . S
C587 C586 1.377 . S
C587 C588 1.379 . S
C588 H572 0.931 . S
C588 C582 1.383 . S
C588 C587 1.379 . S
H589 C583 0.959 . S
H590 C583 0.961 1_556 S
H591 C583 0.960 1_556 S
H592 C584 0.930 . S
H593 C585 0.929 . S
H594 C602 0.929 . S
H595 C604 0.930 . S
H596 C606 0.930 . S
H597 C609 0.929 . S
H598 C612 0.930 . S
H599 C614 0.960 . S
H600 C614 0.960 . S
H601 C614 0.960 . S
C602 H594 0.929 . S
C602 C603 1.377 . S
C602 C604 1.384 . S
C603 C602 1.377 . S
C603 C609 1.390 . S
C604 H595 0.930 . S
C604 C602 1.384 . S
C604 C605 1.372 . S
C605 C604 1.372 . S
C605 C606 1.400 . S
C605 C610 1.490 . S
C606 H596 0.930 . S
C606 C605 1.400 . S
C606 C609 1.386 . S
H607 C623 0.930 . S
H608 C624 0.931 . S
C609 H597 0.929 . S
C609 C603 1.390 . S
C609 C606 1.386 . S
C610 C605 1.490 . S
C610 C612 1.395 . S
C610 C613 1.403 . S
H611 C617 0.930 1_565 S
C612 H598 0.930 . S
C612 C610 1.395 . S
C612 C615 1.403 . S
C613 C610 1.403 . S
C613 C614 1.524 1_545 S
C613 C617 1.400 . S
C614 H599 0.960 . S
C614 H600 0.960 . S
C614 H601 0.960 . S
C614 C613 1.524 1_565 S
C615 C612 1.403 . S
C615 C616 1.392 . S
C615 C619 1.495 . S
C616 C615 1.392 . S
C616 C617 1.385 . S
C616 C618 1.478 . S
C617 H611 0.930 1_545 S
C617 C613 1.400 . S
C617 C616 1.385 . S
C618 C616 1.478 . S
C618 C620 1.381 . S
C618 C624 1.383 . S
C619 C615 1.495 . S
C619 H625 0.959 . S
C619 H626 0.961 . S
C619 H627 0.960 . S
C620 C618 1.381 . S
C620 C621 1.394 . S
C620 H628 0.930 . S
C621 C620 1.394 . S
C621 C622 1.383 . S
C621 H629 0.929 . S
C622 C621 1.383 . S
C622 C623 1.377 . S
C623 H607 0.930 . S
C623 C622 1.377 . S
C623 C624 1.379 . S
C624 H608 0.931 . S
C624 C618 1.383 . S
C624 C623 1.379 . S
H625 C619 0.959 . S
H626 C619 0.961 . S
H627 C619 0.960 . S
H628 C620 0.930 . S
H629 C621 0.929 . S
H630 C638 0.929 . S
H631 C640 0.930 . S
H632 C642 0.930 . S
H633 C645 0.929 . S
H634 C648 0.930 . S
H635 C650 0.960 . S
H636 C650 0.960 . S
H637 C650 0.960 . S
C638 H630 0.929 . S
C638 C639 1.377 . S
C638 C640 1.384 . S
C639 C638 1.377 . S
C639 C645 1.390 . S
C640 H631 0.930 . S
C640 C638 1.384 . S
C640 C641 1.372 . S
C641 C640 1.372 . S
C641 C642 1.400 . S
C641 C646 1.490 . S
C642 H632 0.930 . S
C642 C641 1.400 . S
C642 C645 1.386 . S
H643 C659 0.930 . S
H644 C660 0.931 . S
C645 H633 0.929 . S
C645 C639 1.390 . S
C645 C642 1.386 . S
C646 C641 1.490 . S
C646 C648 1.395 . S
C646 C649 1.403 . S
H647 C653 0.930 . S
C648 H634 0.930 . S
C648 C646 1.395 . S
C648 C651 1.403 . S
C649 C646 1.403 . S
C649 C650 1.524 . S
C649 C653 1.400 . S
C650 H635 0.960 . S
C650 H636 0.960 . S
C650 H637 0.960 . S
C650 C649 1.524 . S
C651 C648 1.403 . S
C651 C652 1.392 . S
C651 C655 1.495 . S
C652 C651 1.392 . S
C652 C653 1.385 . S
C652 C654 1.478 . S
C653 H647 0.930 . S
C653 C649 1.400 . S
C653 C652 1.385 . S
C654 C652 1.478 . S
C654 C656 1.381 . S
C654 C660 1.383 . S
C655 C651 1.495 . S
C655 H661 0.959 . S
C655 H662 0.961 . S
C655 H663 0.960 . S
C656 C654 1.381 . S
C656 C657 1.394 . S
C656 H664 0.930 . S
C657 C656 1.394 . S
C657 C658 1.383 . S
C657 H665 0.929 . S
C658 C657 1.383 . S
C658 C659 1.377 . S
C659 H643 0.930 . S
C659 C658 1.377 . S
C659 C660 1.379 . S
C660 H644 0.931 . S
C660 C654 1.383 . S
C660 C659 1.379 . S
H661 C655 0.959 . S
H662 C655 0.961 . S
H663 C655 0.960 . S
H664 C656 0.930 . S
H665 C657 0.929 . S
H666 C674 0.929 . S
H667 C676 0.930 . S
H668 C678 0.930 1_565 S
H669 C681 0.929 1_565 S
H670 C684 0.930 . S
H671 C686 0.960 . S
H672 C686 0.955 1_545 S
H673 C686 0.960 . S
C674 H666 0.929 . S
C674 C675 1.377 . S
C674 C676 1.384 . S
C675 C674 1.377 . S
C675 C681 1.390 . S
C676 H667 0.930 . S
C676 C674 1.384 . S
C676 C677 1.372 . S
C677 C676 1.372 . S
C677 C678 1.400 . S
C677 C682 1.490 . S
C678 H668 0.930 1_545 S
C678 C677 1.400 . S
C678 C681 1.386 . S
H679 C695 0.930 1_565 S
H680 C696 0.931 1_565 S
C681 H669 0.929 1_545 S
C681 C675 1.390 . S
C681 C678 1.386 . S
C682 C677 1.490 . S
C682 C684 1.395 . S
C682 C685 1.403 . S
H683 C689 0.930 . S
C684 H670 0.930 . S
C684 C682 1.395 . S
C684 C687 1.403 . S
C685 C682 1.403 . S
C685 C686 1.524 1_545 S
C685 C689 1.400 . S
C686 H671 0.960 . S
C686 H672 0.955 1_565 S
C686 H673 0.960 . S
C686 C685 1.524 1_565 S
C687 C684 1.403 . S
C687 C688 1.392 . S
C687 C691 1.495 . S
C688 C687 1.392 . S
C688 C689 1.385 . S
C688 C690 1.478 . S
C689 H683 0.930 . S
C689 C685 1.400 . S
C689 C688 1.385 . S
C690 C688 1.478 . S
C690 C692 1.381 . S
C690 C696 1.383 . S
C691 C687 1.495 . S
C691 H697 0.959 . S
C691 H698 0.961 . S
C691 H699 0.960 . S
C692 C690 1.381 . S
C692 C693 1.394 . S
C692 H700 0.930 . S
C693 C692 1.394 . S
C693 C694 1.383 . S
C693 H701 0.929 . S
C694 C693 1.383 . S
C694 C695 1.377 . S
C695 H679 0.930 1_545 S
C695 C694 1.377 . S
C695 C696 1.379 . S
C696 H680 0.931 1_545 S
C696 C690 1.383 . S
C696 C695 1.379 . S
H697 C691 0.959 . S
H698 C691 0.961 . S
H699 C691 0.960 . S
H700 C692 0.930 . S
H701 C693 0.929 . S
H702 C710 0.929 . S
H703 C712 0.930 . S
H704 C714 0.930 . S
H705 C717 0.929 . S
H706 C720 0.930 . S
H707 C722 0.960 . S
H708 C722 0.960 . S
H709 C722 0.960 . S
C710 H702 0.929 . S
C710 C711 1.377 . S
C710 C712 1.384 . S
C711 C710 1.377 . S
C711 C717 1.390 . S
C712 H703 0.930 . S
C712 C710 1.384 . S
C712 C713 1.372 . S
C713 C712 1.372 . S
C713 C714 1.400 . S
C713 C718 1.490 . S
C714 H704 0.930 . S
C714 C713 1.400 . S
C714 C717 1.386 . S
H715 C731 0.930 . S
H716 C732 0.931 . S
C717 H705 0.929 . S
C717 C711 1.390 . S
C717 C714 1.386 . S
C718 C713 1.490 . S
C718 C720 1.395 . S
C718 C721 1.403 . S
H719 C725 0.930 1_554 S
C720 H706 0.930 . S
C720 C718 1.395 . S
C720 C723 1.403 . S
C721 C718 1.403 . S
C721 C722 1.524 . S
C721 C725 1.400 . S
C722 H707 0.960 . S
C722 H708 0.960 . S
C722 H709 0.960 . S
C722 C721 1.524 . S
C723 C720 1.403 . S
C723 C724 1.392 1_556 S
C723 C727 1.495 . S
C724 C723 1.392 1_554 S
C724 C725 1.385 1_554 S
C724 C726 1.478 . S
C725 H719 0.930 1_556 S
C725 C721 1.400 . S
C725 C724 1.385 1_556 S
C726 C724 1.478 . S
C726 C728 1.381 . S
C726 C732 1.383 . S
C727 C723 1.495 . S
C727 H733 0.959 . S
C727 H734 0.961 1_556 S
C727 H735 0.958 . S
C728 C726 1.381 . S
C728 C729 1.394 . S
C728 H736 0.930 . S
C729 C728 1.394 . S
C729 C730 1.383 . S
C729 H737 0.929 . S
C730 C729 1.383 . S
C730 C731 1.377 . S
C731 H715 0.930 . S
C731 C730 1.377 . S
C731 C732 1.379 . S
C732 H716 0.931 . S
C732 C726 1.383 . S
C732 C731 1.379 . S
H733 C727 0.959 . S
H734 C727 0.961 1_554 S
H735 C727 0.958 . S
H736 C728 0.930 . S
H737 C729 0.929 . S
H738 C746 0.929 . S
H739 C748 0.930 . S
H740 C750 0.930 . S
H741 C753 0.929 . S
H742 C756 0.930 . S
H743 C758 0.960 . S
H744 C758 0.960 . S
H745 C758 0.960 . S
C746 H738 0.929 . S
C746 C747 1.377 . S
C746 C748 1.384 . S
C747 C746 1.377 . S
C747 C753 1.390 1_455 S
C748 H739 0.930 . S
C748 C746 1.384 . S
C748 C749 1.372 . S
C749 C748 1.372 . S
C749 C750 1.400 1_455 S
C749 C754 1.490 . S
C750 H740 0.930 . S
C750 C749 1.400 1_655 S
C750 C753 1.386 . S
H751 C767 0.930 . S
H752 C768 0.931 . S
C753 H741 0.929 . S
C753 C747 1.390 1_655 S
C753 C750 1.386 . S
C754 C749 1.490 . S
C754 C756 1.395 . S
C754 C757 1.403 . S
H755 C761 0.930 . S
C756 H742 0.930 . S
C756 C754 1.395 . S
C756 C759 1.403 . S
C757 C754 1.403 . S
C757 C758 1.524 . S
C757 C761 1.400 . S
C758 H743 0.960 . S
C758 H744 0.960 . S
C758 H745 0.960 . S
C758 C757 1.524 . S
C759 C756 1.403 . S
C759 C760 1.392 . S
C759 C763 1.495 . S
C760 C759 1.392 . S
C760 C761 1.385 . S
C760 C762 1.478 . S
C761 H755 0.930 . S
C761 C757 1.400 . S
C761 C760 1.385 . S
C762 C760 1.478 . S
C762 C764 1.381 . S
C762 C768 1.383 1_455 S
C763 C759 1.495 . S
C763 H769 0.959 . S
C763 H770 0.940 1_455 S
C763 H771 0.960 . S
C764 C762 1.381 . S
C764 C765 1.394 . S
C764 H772 0.930 . S
C765 C764 1.394 . S
C765 C766 1.383 . S
C765 H773 0.929 . S
C766 C765 1.383 . S
C766 C767 1.377 1_455 S
C767 H751 0.930 . S
C767 C766 1.377 1_655 S
C767 C768 1.379 . S
C768 H752 0.931 . S
C768 C762 1.383 1_655 S
C768 C767 1.379 . S
H769 C763 0.959 . S
H770 C763 0.940 1_655 S
H771 C763 0.960 . S
H772 C764 0.930 . S
H773 C765 0.929 . S
C135 C2 1.401 . S
C154 C125 1.472 . S
C171 C22 1.396 . S
C190 C103 1.438 . S
C207 C44 1.413 . S
C226 C114 1.453 . S
C243 C4 1.396 . S
C262 C119 1.461 . S
C298 C97 1.470 . S
C279 C24 1.415 . S
C334 C108 1.443 . S
C315 C42 1.372 . S
C351 C32 1.392 . S
C370 C81 1.399 . S
C387 C49 1.111 . S
C406 C86 1.090 1_655 S
C423 C9 1.092 . S
C442 C64 1.096 1_565 S
C478 C75 1.096 . S
C459 C29 1.090 . S
C514 C92 1.279 . S
C495 C52 1.287 . S
C531 C12 1.295 . S
C550 C70 1.299 . S
C586 C87 1.501 . S
C567 C18 1.502 . S
C603 C38 1.470 . S
C622 C65 1.477 . S
C639 C58 1.469 . S
C658 C76 1.506 . S
C694 C109 1.500 . S
C675 C39 1.502 . S
C730 C120 1.526 . S
C711 C59 1.522 . S
C747 C19 1.511 . S
C766 C98 1.530 . S
