# Generated by pormake.
# Topology rtl, (3,6)-cn, num edge types: 1
# Building blocks:
#     Node 0, Type 0, BuildingBlock: BELTOD_clean_linker_0, # of connection points: 3
#     Node 1, Type 0, BuildingBlock: BELTOD_clean_linker_0, # of connection points: 3
#     Node 2, Type 0, BuildingBlock: BELTOD_clean_linker_0, # of connection points: 3
#     Node 3, Type 0, BuildingBlock: BELTOD_clean_linker_0, # of connection points: 3
#     Node 4, Type 1, BuildingBlock: KUMBOL_clean_sbu_1, # of connection points: 6
#     Node 5, Type 1, BuildingBlock: KUMBOL_clean_sbu_1, # of connection points: 6
#     Edge 6, Type (0, 1), BuildingBlock: EZIPEK_clean_linker_0, # of connection points: 2
#     Edge 7, Type (0, 1), BuildingBlock: EZIPEK_clean_linker_0, # of connection points: 2
#     Edge 8, Type (0, 1), BuildingBlock: EZIPEK_clean_linker_0, # of connection points: 2
#     Edge 9, Type (0, 1), BuildingBlock: EZIPEK_clean_linker_0, # of connection points: 2
#     Edge 10, Type (0, 1), BuildingBlock: EZIPEK_clean_linker_0, # of connection points: 2
#     Edge 11, Type (0, 1), BuildingBlock: EZIPEK_clean_linker_0, # of connection points: 2
#     Edge 12, Type (0, 1), BuildingBlock: EZIPEK_clean_linker_0, # of connection points: 2
#     Edge 13, Type (0, 1), BuildingBlock: EZIPEK_clean_linker_0, # of connection points: 2
#     Edge 14, Type (0, 1), BuildingBlock: EZIPEK_clean_linker_0, # of connection points: 2
#     Edge 15, Type (0, 1), BuildingBlock: EZIPEK_clean_linker_0, # of connection points: 2
#     Edge 16, Type (0, 1), BuildingBlock: EZIPEK_clean_linker_0, # of connection points: 2
#     Edge 17, Type (0, 1), BuildingBlock: EZIPEK_clean_linker_0, # of connection points: 2
# Relax obj value: 0.020
# Max RMSD: 0.119
# Mean RMSD: 0.074
data_MOF--net-rtl--node1-KUMBOL_clean_sbu_1--node2-BELTOD_clean_linker_0--edge1-EZIPEK_clean_linker_0
_symmetry_space_group_name_H-M    P1
_symmetry_Int_Tables_number       1
_symmetry_cell_setting            triclinic
loop_
_symmetry_equiv_pos_as_xyz
'x, y, z'
_cell_length_a     28.641228
_cell_length_b     29.329767
_cell_length_c     25.940913
_cell_angle_alpha  75.36542
_cell_angle_beta   99.670667
_cell_angle_gamma 90.490932
loop_
_atom_site_label
_atom_site_type_symbol
_atom_site_fract_x
_atom_site_fract_y
_atom_site_fract_z
_atom_type_partial_charge
P0 P 0.26985 0.89627 0.01538 0.0
H1 H 0.28443 0.85457 0.13292 0.0
H2 H 0.2398 0.86338 0.20333 0.0
H3 H 0.13862 0.95747 0.08214 0.0
H4 H 0.18327 0.94955 0.01231 0.0
H5 H 0.35875 0.86946 0.98898 0.0
H6 H 0.39764 0.79284 0.9985 0.0
H7 H 0.28425 0.72225 0.07344 0.0
H8 H 0.24482 0.79906 0.06325 0.0
H9 H 0.27486 0.95935 0.90909 0.0
H10 H 0.17956 0.8571 0.98035 0.0
O11 O 0.31021 0.93777 0.01343 0.0
H12 H 0.21921 0.97766 0.82308 0.0
H13 H 0.12341 0.87612 0.89444 0.0
C14 C 0.23621 0.89996 0.06709 0.0
C15 C 0.2523 0.87654 0.12143 0.0
C16 C 0.22705 0.88169 0.16154 0.0
C17 C 0.18567 0.91061 0.14764 0.0
C18 C 0.17015 0.93458 0.09345 0.0
C19 C 0.1955 0.92971 0.05361 0.0
C20 C 0.29961 0.83991 0.0268 0.0
C21 C 0.34252 0.83759 0.00816 0.0
C22 C 0.36463 0.794 0.01337 0.0
C23 C 0.34394 0.75215 0.03707 0.0
C24 C 0.30087 0.75434 0.05554 0.0
C25 C 0.27856 0.79804 0.04993 0.0
C26 C 0.23092 0.90735 0.95115 0.0
C27 C 0.24208 0.94079 0.90623 0.0
C28 C 0.2104 0.95125 0.85725 0.0
C29 C 0.1672 0.92842 0.8527 0.0
C30 C 0.15656 0.89413 0.89733 0.0
C31 C 0.18851 0.88332 0.94614 0.0
P32 P 0.71696 0.67792 0.67096 0.0
H33 H 0.76925 0.65295 0.59507 0.0
H34 H 0.74481 0.62902 0.51082 0.0
H35 H 0.59817 0.65131 0.52002 0.0
H36 H 0.62262 0.67598 0.60429 0.0
H37 H 0.78068 0.71933 0.74478 0.0
H38 H 0.83219 0.78681 0.72879 0.0
H39 H 0.76362 0.82925 0.56206 0.0
H40 H 0.71195 0.76159 0.57793 0.0
H41 H 0.65599 0.59921 0.6966 0.0
H42 H 0.68096 0.73084 0.74049 0.0
O43 O 0.76079 0.63874 0.70336 0.0
H44 H 0.60622 0.5752 0.76618 0.0
H45 H 0.63103 0.70647 0.81059 0.0
C46 C 0.69773 0.66509 0.60651 0.0
C47 C 0.73183 0.653 0.57887 0.0
C48 C 0.71798 0.63949 0.53085 0.0
C49 C 0.66979 0.63807 0.50972 0.0
C50 C 0.63553 0.65202 0.53608 0.0
C51 C 0.64948 0.66586 0.58412 0.0
C52 C 0.74292 0.73506 0.66247 0.0
C53 C 0.77561 0.74393 0.70519 0.0
C54 C 0.80498 0.78241 0.69611 0.0
C55 C 0.80189 0.81271 0.64419 0.0
C56 C 0.76641 0.80625 0.60242 0.0
C57 C 0.73705 0.76756 0.61153 0.0
C58 C 0.67165 0.6671 0.71277 0.0
C59 C 0.64951 0.62362 0.71996 0.0
C60 C 0.62118 0.60983 0.75968 0.0
C61 C 0.61476 0.6392 0.79314 0.0
C62 C 0.63515 0.68366 0.78457 0.0
C63 C 0.66365 0.69748 0.74467 0.0
P64 P 0.82089 0.20088 0.0787 0.0
H65 H 0.8789 0.23818 0.9969 0.0
H66 H 0.89487 0.2134 0.91832 0.0
H67 H 0.7959 0.10203 0.9476 0.0
H68 H 0.78027 0.12658 0.02772 0.0
H69 H 0.80855 0.30206 0.06643 0.0
H70 H 0.73864 0.35326 0.0552 0.0
H71 H 0.64858 0.23533 0.05033 0.0
H72 H 0.71901 0.18352 0.06204 0.0
H73 H 0.87112 0.10925 0.11367 0.0
H74 H 0.77518 0.18716 0.17423 0.0
O75 O 0.86779 0.23154 0.09567 0.0
H76 H 0.89377 0.05699 0.20435 0.0
H77 H 0.79763 0.13457 0.26466 0.0
C78 C 0.82916 0.18357 0.01882 0.0
C79 C 0.86059 0.20834 0.98678 0.0
C80 C 0.86965 0.19432 0.9418 0.0
C81 C 0.84708 0.15554 0.92762 0.0
C82 C 0.81402 0.13175 0.95831 0.0
C83 C 0.80514 0.14573 0.00382 0.0
C84 C 0.76891 0.23886 0.06558 0.0
C85 C 0.77389 0.28703 0.06277 0.0
C86 C 0.73407 0.31632 0.05634 0.0
C87 C 0.68869 0.2979 0.05239 0.0
C88 C 0.68347 0.24997 0.05363 0.0
C89 C 0.72347 0.22058 0.06013 0.0
C90 C 0.82099 0.15183 0.13682 0.0
C91 C 0.85289 0.11353 0.14559 0.0
C92 C 0.86578 0.08357 0.19736 0.0
C93 C 0.84717 0.09183 0.24105 0.0
C94 C 0.81173 0.12717 0.2313 0.0
C95 C 0.79902 0.15727 0.17953 0.0
P96 P 0.37902 0.26563 0.50532 0.0
H97 H 0.4156 0.24958 0.6207 0.0
H98 H 0.42 0.3007 0.68309 0.0
H99 H 0.35022 0.41412 0.55322 0.0
H100 H 0.34522 0.3629 0.49096 0.0
H101 H 0.36213 0.16447 0.52823 0.0
H102 H 0.29031 0.11934 0.53799 0.0
H103 H 0.20672 0.24885 0.49929 0.0
H104 H 0.27879 0.2943 0.48925 0.0
H105 H 0.44451 0.33745 0.46922 0.0
H106 H 0.32686 0.26977 0.39522 0.0
O107 O 0.42592 0.22816 0.52628 0.0
H108 H 0.45736 0.3823 0.37968 0.0
H109 H 0.33998 0.31491 0.3051 0.0
C110 C 0.38115 0.30289 0.55103 0.0
C111 C 0.40134 0.28545 0.60562 0.0
C112 C 0.40378 0.31447 0.64116 0.0
C113 C 0.38583 0.36118 0.62247 0.0
C114 C 0.36453 0.37824 0.56814 0.0
C115 C 0.36186 0.34911 0.53272 0.0
C116 C 0.32573 0.23275 0.50804 0.0
C117 C 0.32843 0.18331 0.52153 0.0
C118 C 0.28756 0.15751 0.52736 0.0
C119 C 0.24344 0.18083 0.51979 0.0
C120 C 0.24059 0.23034 0.50559 0.0
C121 C 0.28154 0.25616 0.49968 0.0
C122 C 0.38434 0.30084 0.43889 0.0
C123 C 0.421 0.33277 0.43374 0.0
C124 C 0.42836 0.35834 0.38277 0.0
C125 C 0.39937 0.35212 0.33602 0.0
C126 C 0.36232 0.32045 0.3409 0.0
C127 C 0.35492 0.29477 0.3922 0.0
C128 C 0.90383 0.12388 0.45263 0.0
C129 C 0.82581 0.09136 0.44292 0.0
C130 C 0.87229 0.09045 0.47191 0.0
C131 C 0.81231 0.1253 0.39358 0.0
C132 C 0.89005 0.15896 0.40404 0.0
C133 C 0.84433 0.15908 0.37424 0.0
N134 N 0.94824 0.12196 0.48144 0.0
C135 C 0.97932 0.15633 0.46663 0.0
C136 C 0.92267 0.19289 0.38696 0.0
C137 C 0.96736 0.19185 0.41873 0.0
Gd138 Gd 0.04291 0.95901 0.52467 0.0
Gd139 Gd 0.96633 0.0613 0.56103 0.0
N140 N 0.88674 0.05772 0.51947 0.0
C141 C 0.79409 0.05857 0.46476 0.0
C142 C 0.85484 0.02792 0.54249 0.0
C143 C 0.80848 0.02719 0.51521 0.0
H144 H 0.86435 0.00551 0.58245 0.0
H145 H 0.78372 0.00283 0.53349 0.0
H146 H 0.15273 0.97408 0.58732 0.0
H147 H 0.01348 0.15615 0.49175 0.0
H148 H 0.21876 0.9252 0.65002 0.0
H149 H 0.75811 0.05804 0.44377 0.0
H150 H 0.77697 0.12612 0.37047 0.0
H151 H 0.97296 0.8859 0.47295 0.0
H152 H 0.9135 0.22035 0.34977 0.0
H153 H 0.99251 0.21846 0.40648 0.0
H154 H 0.16877 0.76635 0.66533 0.0
H155 H 0.83329 0.18536 0.33643 0.0
H156 H 0.02588 0.74427 0.54923 0.0
H157 H 0.96662 0.79975 0.48298 0.0
N158 N 0.03428 0.87836 0.53345 0.0
C159 C 0.06818 0.84879 0.5684 0.0
C160 C 0.99872 0.86162 0.50197 0.0
C161 C 0.0287 0.78185 0.54499 0.0
C162 C 0.9952 0.81307 0.50746 0.0
C163 C 0.06604 0.7996 0.57572 0.0
H164 H 0.10067 0.73205 0.61876 0.0
N165 N 0.10889 0.91579 0.58263 0.0
C166 C 0.10655 0.86813 0.5942 0.0
C167 C 0.184 0.85972 0.65018 0.0
C168 C 0.14386 0.83874 0.62859 0.0
C169 C 0.14968 0.93625 0.59979 0.0
C170 C 0.18722 0.90869 0.63502 0.0
O171 O 0.97923 0.05561 0.47946 0.0
O172 O 0.96924 0.97968 0.47923 0.0
O173 O 0.055 1.00023 0.44668 0.0
O174 O 0.07954 0.9275 0.47431 0.0
O175 O 0.94723 0.98595 0.59747 0.0
O176 O 0.97336 0.93385 0.5527 0.0
O177 O 0.06764 0.97494 0.60556 0.0
O178 O 0.00509 0.00706 0.63363 0.0
O179 O 0.92138 0.08521 0.61037 0.0
O180 O 0.98296 0.12341 0.5897 0.0
O181 O 0.07925 0.02832 0.52288 0.0
O182 O 0.04374 0.07831 0.56407 0.0
C183 C 0.95786 0.02413 0.4568 0.0
C184 C 0.94925 0.94359 0.58839 0.0
C185 C 0.05402 0.95727 0.38091 0.0
C186 C 0.06742 0.94176 0.2966 0.0
C187 C 0.98718 0.94903 0.31302 0.0
C188 C 0.00494 0.9563 0.36373 0.0
C189 C 0.01824 0.94184 0.27946 0.0
C190 C 0.08518 0.94963 0.34736 0.0
C191 C 0.07329 0.96492 0.43411 0.0
C192 C 0.14069 0.78954 0.63858 0.0
C193 C 0.10192 0.77 0.61203 0.0
H194 H 0.21334 0.8384 0.677 0.0
C195 C 0.04661 0.98472 0.6431 0.0
C196 C 0.07805 0.06622 0.54141 0.0
C197 C 0.96144 0.12626 0.67315 0.0
C198 C 0.93906 0.13141 0.75854 0.0
C199 C 0.01827 0.15108 0.74094 0.0
C200 C 0.00657 0.14221 0.69014 0.0
C201 C 0.98478 0.14577 0.77496 0.0
C202 C 0.92756 0.12096 0.70782 0.0
C203 C 0.94892 0.11934 0.61777 0.0
H204 H 0.94928 0.94867 0.29989 0.0
H205 H 0.98037 0.96078 0.38953 0.0
H206 H 0.00403 0.93597 0.24033 0.0
H207 H 0.12316 0.94962 0.36069 0.0
H208 H 0.05325 0.16282 0.75365 0.0
H209 H 0.03311 0.14805 0.66417 0.0
H210 H 0.99425 0.15372 0.8139 0.0
H211 H 0.89217 0.11009 0.69498 0.0
C212 C 0.65389 0.51142 0.09833 0.0
C213 C 0.67637 0.59107 0.05916 0.0
C214 C 0.64259 0.55935 0.0795 0.0
C215 C 0.72133 0.57378 0.05685 0.0
C216 C 0.69984 0.49429 0.09856 0.0
C217 C 0.73307 0.52552 0.0766 0.0
N218 N 0.62087 0.48198 0.11896 0.0
C219 C 0.63365 0.43643 0.14676 0.0
C220 C 0.71154 0.44654 0.12245 0.0
C221 C 0.67865 0.41777 0.14778 0.0
Gd222 Gd 0.43523 0.47558 0.00852 0.0
Gd223 Gd 0.5455 0.51724 0.11189 0.0
N224 N 0.59876 0.57508 0.08191 0.0
C225 C 0.66415 0.63932 0.04238 0.0
C226 C 0.58727 0.62225 0.06782 0.0
C227 C 0.61959 0.655 0.04731 0.0
H228 H 0.55274 0.63449 0.07128 0.0
H229 H 0.61009 0.69228 0.0352 0.0
H230 H 0.47686 0.36703 0.01775 0.0
H231 H 0.60905 0.4142 0.16797 0.0
H232 H 0.4582 0.28456 0.05749 0.0
H233 H 0.68911 0.66478 0.02642 0.0
H234 H 0.7476 0.59755 0.04087 0.0
H235 H 0.33889 0.54248 0.01137 0.0
H236 H 0.74643 0.43201 0.12344 0.0
H237 H 0.68806 0.38131 0.1685 0.0
H238 H 0.31664 0.29786 0.12966 0.0
H239 H 0.76832 0.51287 0.07585 0.0
H240 H 0.24622 0.45174 0.09957 0.0
H241 H 0.26633 0.53128 0.0508 0.0
N242 N 0.36291 0.47034 0.04161 0.0
C243 C 0.35058 0.42577 0.06463 0.0
C244 C 0.33201 0.50767 0.03429 0.0
C245 C 0.27878 0.45643 0.08307 0.0
C246 C 0.2901 0.50141 0.05576 0.0
C247 C 0.30862 0.41779 0.08688 0.0
H248 H 0.26529 0.36489 0.12881 0.0
N249 N 0.41921 0.39617 0.04225 0.0
C250 C 0.37916 0.38766 0.06443 0.0
C251 C 0.39631 0.30378 0.08551 0.0
C252 C 0.3671 0.34114 0.08748 0.0
C253 C 0.44659 0.35994 0.03796 0.0
C254 C 0.43591 0.31323 0.06008 0.0
O255 O 0.54879 0.55023 0.02517 0.0
O256 O 0.48702 0.52622 0.96711 0.0
O257 O 0.41987 0.44223 0.94192 0.0
O258 O 0.38095 0.50572 0.9393 0.0
O259 O 0.48837 0.57426 0.074 0.0
O260 O 0.42207 0.54379 0.02963 0.0
O261 O 0.45439 0.43515 0.09656 0.0
O262 O 0.47339 0.49738 0.13154 0.0
O263 O 0.55631 0.56117 0.16873 0.0
O264 O 0.56517 0.48555 0.19818 0.0
O265 O 0.50802 0.45077 0.00552 0.0
O266 O 0.54305 0.44519 0.09318 0.0
C267 C 0.52603 0.54959 0.97707 0.0
C268 C 0.44396 0.57731 0.04868 0.0
C269 C 0.39789 0.49535 0.85663 0.0
C270 C 0.40171 0.48359 0.76775 0.0
C271 C 0.41863 0.55986 0.78566 0.0
C272 C 0.41065 0.54239 0.83865 0.0
C273 C 0.41416 0.53066 0.75024 0.0
C274 C 0.39355 0.4661 0.82094 0.0
C275 C 0.39019 0.47577 0.9126 0.0
C276 C 0.3263 0.33335 0.11141 0.0
C277 C 0.29713 0.37155 0.11106 0.0
H278 H 0.38821 0.26754 0.10276 0.0
C279 C 0.45858 0.45462 0.13714 0.0
C280 C 0.54279 0.43548 0.04605 0.0
C281 C 0.61229 0.53206 0.24783 0.0
C282 C 0.64913 0.55941 0.32581 0.0
C283 C 0.69753 0.52312 0.27779 0.0
C284 C 0.65712 0.51703 0.24212 0.0
C285 C 0.69362 0.54412 0.31957 0.0
C286 C 0.60846 0.55353 0.2897 0.0
C287 C 0.56931 0.52594 0.21053 0.0
H288 H 0.42834 0.59609 0.77202 0.0
H289 H 0.41453 0.56559 0.86547 0.0
H290 H 0.42056 0.54462 0.7093 0.0
H291 H 0.38408 0.42967 0.83454 0.0
H292 H 0.73195 0.51139 0.27311 0.0
H293 H 0.66108 0.50047 0.2104 0.0
H294 H 0.72525 0.54844 0.34713 0.0
H295 H 0.57405 0.56533 0.2945 0.0
C296 C 0.16777 0.15014 0.47911 0.0
C297 C 0.20012 0.15309 0.52577 0.0
C298 C 0.15431 0.09672 0.58278 0.0
C299 C 0.11949 0.09721 0.53671 0.0
N300 N 0.089 0.13122 0.44247 0.0
N301 N 0.22018 0.13601 0.62292 0.0
C302 C 0.12513 0.1259 0.48526 0.0
C303 C 0.19214 0.12844 0.57795 0.0
N304 N 0.17848 0.16911 0.42882 0.0
N305 N 0.15263 0.06437 0.63052 0.0
H306 H 0.24829 0.1589 0.62089 0.0
H307 H 0.21302 0.12288 0.66191 0.0
H308 H 0.12643 0.03963 0.6347 0.0
H309 H 0.17951 0.05902 0.66412 0.0
H310 H 0.15887 0.16337 0.39355 0.0
H311 H 0.20932 0.18732 0.42253 0.0
H312 H 0.08869 0.15541 0.4053 0.0
H313 H 0.05714 0.11477 0.44632 0.0
C314 C 0.3987 0.68336 0.08839 0.0
C315 C 0.36698 0.70596 0.04097 0.0
C316 C 0.38418 0.64419 0.99757 0.0
C317 C 0.41493 0.62031 0.04611 0.0
N318 N 0.43729 0.61 0.1427 0.0
N319 N 0.32158 0.70368 0.95477 0.0
C320 C 0.4183 0.63791 0.09297 0.0
C321 C 0.35726 0.685 0.99693 0.0
N322 N 0.41059 0.70548 0.12901 0.0
N323 N 0.38169 0.62941 0.95128 0.0
H324 H 0.30202 0.73427 0.95214 0.0
H325 H 0.30861 0.68683 0.92472 0.0
H326 H 0.39827 0.5988 0.94913 0.0
H327 H 0.36549 0.64938 0.91341 0.0
H328 H 0.43783 0.69312 0.16168 0.0
H329 H 0.39577 0.73814 0.12798 0.0
H330 H 0.43654 0.61943 0.17868 0.0
H331 H 0.44836 0.57504 0.14891 0.0
C332 C 0.84204 0.88895 0.64842 0.0
C333 C 0.84054 0.84603 0.63257 0.0
C334 C 0.91963 0.85977 0.60918 0.0
C335 C 0.91728 0.90641 0.61481 0.0
N336 N 0.89251 0.94834 0.67529 0.0
N337 N 0.8784 0.79029 0.59673 0.0
C338 C 0.88305 0.91668 0.64463 0.0
C339 C 0.87943 0.8314 0.61255 0.0
N340 N 0.80396 0.90378 0.66605 0.0
N341 N 0.9625 0.83973 0.61037 0.0
H342 H 0.8509 0.76684 0.60092 0.0
H343 H 0.90363 0.7812 0.57602 0.0
H344 H 0.99349 0.85739 0.6175 0.0
H345 H 0.96774 0.80387 0.614 0.0
H346 H 0.80103 0.93725 0.67243 0.0
H347 H 0.77361 0.88411 0.66979 0.0
H348 H 0.87036 0.95456 0.70097 0.0
H349 H 0.92571 0.96275 0.68163 0.0
C350 C 0.62455 0.32633 0.09299 0.0
C351 C 0.64689 0.3292 0.04768 0.0
C352 C 0.59638 0.39855 0.99654 0.0
C353 C 0.57454 0.39615 0.04282 0.0
N354 N 0.55358 0.3444 0.12327 0.0
N355 N 0.64606 0.35922 0.95227 0.0
C356 C 0.58436 0.35602 0.0876 0.0
C357 C 0.63023 0.36261 0.99811 0.0
N358 N 0.64239 0.29628 0.14179 0.0
N359 N 0.58612 0.43534 0.95155 0.0
H360 H 0.67096 0.33346 0.95227 0.0
H361 H 0.63157 0.37886 0.91359 0.0
H362 H 0.55984 0.46112 0.94595 0.0
H363 H 0.60583 0.44227 0.92035 0.0
H364 H 0.63044 0.29691 0.17742 0.0
H365 H 0.67171 0.27357 0.14759 0.0
H366 H 0.55696 0.31329 0.15401 0.0
H367 H 0.52134 0.36263 0.11749 0.0
C368 C 0.13048 0.88026 0.21359 0.0
C369 C 0.15866 0.91699 0.1896 0.0
C370 C 0.12622 0.97044 0.23474 0.0
C371 C 0.10031 0.9329 0.26133 0.0
N372 N 0.08531 0.84981 0.28523 0.0
N373 N 0.19131 0.99356 0.18594 0.0
C374 C 0.10474 0.88705 0.25353 0.0
C375 C 0.15896 0.96107 0.20286 0.0
N376 N 0.12671 0.83968 0.19662 0.0
N377 N 0.11814 0.0154 0.2381 0.0
H378 H 0.2161 0.9877 0.16288 0.0
H379 H 0.19652 0.02434 0.1989 0.0
H380 H 0.0943 0.02378 0.26088 0.0
H381 H 0.13202 0.04492 0.21477 0.0
H382 H 0.10252 0.81396 0.20814 0.0
H383 H 0.14505 0.83326 0.16752 0.0
H384 H 0.09153 0.81485 0.28534 0.0
H385 H 0.06641 0.85341 0.31512 0.0
C386 C 0.62009 0.59034 0.88817 0.0
C387 C 0.59245 0.62013 0.84162 0.0
C388 C 0.52372 0.61066 0.88788 0.0
C389 C 0.54902 0.57479 0.93063 0.0
N390 N 0.6212 0.52704 0.96841 0.0
N391 N 0.51698 0.65671 0.79479 0.0
C392 C 0.59736 0.56399 0.9302 0.0
C393 C 0.54387 0.6297 0.84071 0.0
N394 N 0.66832 0.58767 0.89257 0.0
N395 N 0.48199 0.62885 0.89406 0.0
H396 H 0.53102 0.67222 0.76013 0.0
H397 H 0.48034 0.66122 0.78999 0.0
H398 H 0.46925 0.61855 0.93035 0.0
H399 H 0.46344 0.65763 0.86634 0.0
H400 H 0.69084 0.57116 0.92825 0.0
H401 H 0.68632 0.60579 0.86222 0.0
H402 H 0.65459 0.51437 0.96663 0.0
H403 H 0.60596 0.50566 0.99917 0.0
C404 C 0.85984 0.03311 0.33292 0.0
C405 C 0.874 0.07347 0.29667 0.0
C406 C 0.94608 0.0756 0.36099 0.0
C407 C 0.92978 0.03888 0.40059 0.0
N408 N 0.86709 0.98643 0.42575 0.0
N409 N 0.92555 0.13934 0.28084 0.0
C410 C 0.88564 0.01828 0.38687 0.0
C411 C 0.91544 0.09663 0.31227 0.0
N412 N 0.82209 0.0088 0.31561 0.0
N413 N 0.99196 0.08868 0.36796 0.0
H414 H 0.90467 0.15619 0.24409 0.0
H415 H 0.95234 0.16023 0.29379 0.0
H416 H 0.01668 0.07185 0.40084 0.0
H417 H 0.0069 0.11171 0.33798 0.0
H418 H 0.81297 0.97622 0.33797 0.0
H419 H 0.80188 0.01976 0.27695 0.0
H420 H 0.83293 0.97415 0.41954 0.0
H421 H 0.88398 0.97535 0.46585 0.0
C422 C 0.34885 0.40513 0.67776 0.0
C423 C 0.38985 0.3925 0.65976 0.0
C424 C 0.43912 0.43598 0.71655 0.0
C425 C 0.3976 0.45228 0.73043 0.0
N426 N 0.3123 0.45903 0.71752 0.0
N427 N 0.47277 0.40222 0.65426 0.0
C428 C 0.35222 0.43871 0.70916 0.0
C429 C 0.43471 0.40969 0.677 0.0
N430 N 0.30706 0.38391 0.66631 0.0
N431 N 0.48278 0.44428 0.74247 0.0
H432 H 0.47094 0.38327 0.62497 0.0
H433 H 0.50505 0.41822 0.66086 0.0
H434 H 0.48749 0.46327 0.77185 0.0
H435 H 0.51413 0.4289 0.73835 0.0
H436 H 0.27732 0.38784 0.68323 0.0
H437 H 0.30325 0.35905 0.64352 0.0
H438 H 0.27834 0.4544 0.6982 0.0
H439 H 0.31333 0.48385 0.74022 0.0
C440 C 0.64886 0.57043 0.4683 0.0
C441 C 0.65589 0.61944 0.46139 0.0
C442 C 0.65226 0.63027 0.3639 0.0
C443 C 0.64581 0.58117 0.37095 0.0
N444 N 0.62797 0.50612 0.42634 0.0
N445 N 0.65478 0.69762 0.40287 0.0
C446 C 0.64073 0.55179 0.42213 0.0
C447 C 0.65442 0.64992 0.40909 0.0
N448 N 0.65205 0.54146 0.51928 0.0
N449 N 0.658 0.65765 0.31437 0.0
H450 H 0.65684 0.71288 0.43539 0.0
H451 H 0.64934 0.72223 0.36551 0.0
H452 H 0.65463 0.64477 0.27998 0.0
H453 H 0.66837 0.69245 0.30762 0.0
H454 H 0.65316 0.50483 0.52777 0.0
H455 H 0.65629 0.55401 0.55393 0.0
H456 H 0.61893 0.48409 0.46121 0.0
H457 H 0.62269 0.49115 0.39346 0.0
C458 C 0.89146 0.10161 0.88926 0.0
C459 C 0.85946 0.14057 0.88067 0.0
C460 C 0.87052 0.16713 0.78613 0.0
C461 C 0.90389 0.12921 0.79529 0.0
N462 N 0.93564 0.0533 0.84916 0.0
N463 N 0.80796 0.2017 0.81841 0.0
C464 C 0.91053 0.09389 0.8448 0.0
C465 C 0.8453 0.17028 0.82799 0.0
N466 N 0.90603 0.07388 0.94036 0.0
N467 N 0.86518 0.20175 0.73887 0.0
H468 H 0.78898 0.20447 0.84857 0.0
H469 H 0.79306 0.22159 0.77997 0.0
H470 H 0.8823 0.2003 0.70687 0.0
H471 H 0.84592 0.23322 0.73246 0.0
H472 H 0.93355 0.04858 0.95021 0.0
H473 H 0.8925 0.078 0.97384 0.0
H474 H 0.93851 0.02429 0.8825 0.0
H475 H 0.94983 0.04707 0.81692 0.0
C476 C 0.4493 0.35915 0.26448 0.0
C477 C 0.41071 0.37672 0.2823 0.0
C478 C 0.40162 0.44519 0.20342 0.0
C479 C 0.44278 0.42923 0.18824 0.0
N480 N 0.51313 0.37887 0.21385 0.0
N481 N 0.35256 0.43841 0.27281 0.0
C482 C 0.46848 0.38815 0.22114 0.0
C483 C 0.38731 0.42026 0.25273 0.0
N484 N 0.46767 0.31459 0.28898 0.0
N485 N 0.37604 0.48388 0.17056 0.0
H486 H 0.34034 0.42034 0.30782 0.0
H487 H 0.33769 0.47233 0.25682 0.0
H488 H 0.38682 0.50451 0.13592 0.0
H489 H 0.34285 0.4942 0.17581 0.0
H490 H 0.49262 0.29823 0.27398 0.0
H491 H 0.45472 0.29233 0.32126 0.0
H492 H 0.53552 0.35189 0.23982 0.0
H493 H 0.52985 0.40188 0.18574 0.0
C494 C 0.1098 0.98677 0.78465 0.0
C495 C 0.13268 0.94148 0.80135 0.0
C496 C 0.08879 0.92175 0.72103 0.0
C497 C 0.0723 0.96939 0.69985 0.0
N498 N 0.07285 0.04926 0.70947 0.0
N499 N 0.14877 0.86745 0.78193 0.0
C500 C 0.08385 0.00243 0.73132 0.0
C501 C 0.12339 0.90925 0.76869 0.0
N502 N 0.11204 0.01453 0.82007 0.0
N503 N 0.06996 0.88808 0.69664 0.0
H504 H 0.17491 0.85715 0.81623 0.0
H505 H 0.14673 0.8449 0.75644 0.0
H506 H 0.04329 0.89619 0.66287 0.0
H507 H 0.07719 0.85207 0.71296 0.0
H508 H 0.0919 0.04577 0.81182 0.0
H509 H 0.13038 0.00407 0.85969 0.0
H510 H 0.08635 0.07522 0.72823 0.0
H511 H 0.0545 0.06267 0.67039 0.0
loop_
_geom_bond_atom_site_label_1
_geom_bond_atom_site_label_2
_geom_bond_distance
_geom_bond_site_symmetry_2
_ccdc_geom_bond_type
P0 O11 1.490 . S
P0 C14 1.812 . S
P0 C20 1.803 . S
P0 C26 1.819 1_554 S
H1 C15 0.941 . S
H2 C16 0.939 . S
H3 C18 0.940 . S
H4 C19 0.940 . S
H5 C21 0.939 1_556 S
H6 C22 0.942 . S
H7 C24 0.940 . S
H8 C25 0.939 . S
H9 C27 0.941 . S
H10 C31 0.939 . S
O11 P0 1.490 . S
H12 C28 0.939 1_545 S
H13 C30 0.940 . S
C14 P0 1.812 . S
C14 C15 1.389 . S
C14 C19 1.391 . S
C15 H1 0.941 . S
C15 C14 1.389 . S
C15 C16 1.397 . S
C16 H2 0.939 . S
C16 C15 1.397 . S
C16 C17 1.378 . S
C17 C16 1.378 . S
C17 C18 1.378 . S
C18 H3 0.940 . S
C18 C17 1.378 . S
C18 C19 1.396 . S
C19 H4 0.940 . S
C19 C14 1.391 . S
C19 C18 1.396 . S
C20 P0 1.803 . S
C20 C21 1.378 . S
C20 C25 1.400 . S
C21 H5 0.939 1_554 S
C21 C20 1.378 . S
C21 C22 1.361 . S
C22 H6 0.942 . S
C22 C21 1.361 . S
C22 C23 1.369 . S
C23 C22 1.369 . S
C23 C24 1.404 . S
C24 H7 0.940 . S
C24 C23 1.404 . S
C24 C25 1.389 . S
C25 H8 0.939 . S
C25 C20 1.400 . S
C25 C24 1.389 . S
C26 P0 1.819 1_556 S
C26 C27 1.391 . S
C26 C31 1.391 . S
C27 H9 0.941 . S
C27 C26 1.391 . S
C27 C28 1.396 . S
C28 H12 0.939 1_565 S
C28 C27 1.396 . S
C28 C29 1.397 . S
C29 C28 1.397 . S
C29 C30 1.385 . S
C30 H13 0.940 . S
C30 C29 1.385 . S
C30 C31 1.388 . S
C31 H10 0.939 . S
C31 C26 1.391 . S
C31 C30 1.388 . S
P32 O43 1.490 . S
P32 C46 1.812 . S
P32 C52 1.803 . S
P32 C58 1.819 . S
H33 C47 0.941 . S
H34 C48 0.939 . S
H35 C50 0.940 . S
H36 C51 0.940 . S
H37 C53 0.939 . S
H38 C54 0.942 . S
H39 C56 0.940 . S
H40 C57 0.939 . S
H41 C59 0.941 . S
H42 C63 0.939 . S
O43 P32 1.490 . S
H44 C60 0.939 . S
H45 C62 0.940 . S
C46 P32 1.812 . S
C46 C47 1.389 . S
C46 C51 1.391 . S
C47 H33 0.941 . S
C47 C46 1.389 . S
C47 C48 1.397 . S
C48 H34 0.939 . S
C48 C47 1.397 . S
C48 C49 1.378 . S
C49 C48 1.378 . S
C49 C50 1.378 . S
C50 H35 0.940 . S
C50 C49 1.378 . S
C50 C51 1.396 . S
C51 H36 0.940 . S
C51 C46 1.391 . S
C51 C50 1.396 . S
C52 P32 1.803 . S
C52 C53 1.378 . S
C52 C57 1.400 . S
C53 H37 0.939 . S
C53 C52 1.378 . S
C53 C54 1.361 . S
C54 H38 0.942 . S
C54 C53 1.361 . S
C54 C55 1.369 . S
C55 C54 1.369 . S
C55 C56 1.404 . S
C56 H39 0.940 . S
C56 C55 1.404 . S
C56 C57 1.389 . S
C57 H40 0.939 . S
C57 C52 1.400 . S
C57 C56 1.389 . S
C58 P32 1.819 . S
C58 C59 1.391 . S
C58 C63 1.391 . S
C59 H41 0.941 . S
C59 C58 1.391 . S
C59 C60 1.396 . S
C60 H44 0.939 . S
C60 C59 1.396 . S
C60 C61 1.397 . S
C61 C60 1.397 . S
C61 C62 1.385 . S
C62 H45 0.940 . S
C62 C61 1.385 . S
C62 C63 1.388 . S
C63 H42 0.939 . S
C63 C58 1.391 . S
C63 C62 1.388 . S
P64 O75 1.490 . S
P64 C78 1.812 . S
P64 C84 1.803 . S
P64 C90 1.819 . S
H65 C79 0.941 . S
H66 C80 0.939 . S
H67 C82 0.940 1_554 S
H68 C83 0.940 . S
H69 C85 0.939 . S
H70 C86 0.942 . S
H71 C88 0.940 . S
H72 C89 0.939 . S
H73 C91 0.941 . S
H74 C95 0.939 . S
O75 P64 1.490 . S
H76 C92 0.939 . S
H77 C94 0.940 . S
C78 P64 1.812 . S
C78 C79 1.389 1_554 S
C78 C83 1.391 . S
C79 H65 0.941 . S
C79 C78 1.389 1_556 S
C79 C80 1.397 . S
C80 H66 0.939 . S
C80 C79 1.397 . S
C80 C81 1.378 . S
C81 C80 1.378 . S
C81 C82 1.378 . S
C82 H67 0.940 1_556 S
C82 C81 1.378 . S
C82 C83 1.396 1_556 S
C83 H68 0.940 . S
C83 C78 1.391 . S
C83 C82 1.396 1_554 S
C84 P64 1.803 . S
C84 C85 1.378 . S
C84 C89 1.400 . S
C85 H69 0.939 . S
C85 C84 1.378 . S
C85 C86 1.361 . S
C86 H70 0.942 . S
C86 C85 1.361 . S
C86 C87 1.369 . S
C87 C86 1.369 . S
C87 C88 1.404 . S
C88 H71 0.940 . S
C88 C87 1.404 . S
C88 C89 1.389 . S
C89 H72 0.939 . S
C89 C84 1.400 . S
C89 C88 1.389 . S
C90 P64 1.819 . S
C90 C91 1.391 . S
C90 C95 1.391 . S
C91 H73 0.941 . S
C91 C90 1.391 . S
C91 C92 1.396 . S
C92 H76 0.939 . S
C92 C91 1.396 . S
C92 C93 1.397 . S
C93 C92 1.397 . S
C93 C94 1.385 . S
C94 H77 0.940 . S
C94 C93 1.385 . S
C94 C95 1.388 . S
C95 H74 0.939 . S
C95 C90 1.391 . S
C95 C94 1.388 . S
P96 O107 1.490 . S
P96 C110 1.812 . S
P96 C116 1.803 . S
P96 C122 1.819 . S
H97 C111 0.941 . S
H98 C112 0.939 . S
H99 C114 0.940 . S
H100 C115 0.940 . S
H101 C117 0.939 . S
H102 C118 0.942 . S
H103 C120 0.940 . S
H104 C121 0.939 . S
H105 C123 0.941 . S
H106 C127 0.939 . S
O107 P96 1.490 . S
H108 C124 0.939 . S
H109 C126 0.940 . S
C110 P96 1.812 . S
C110 C111 1.389 . S
C110 C115 1.391 . S
C111 H97 0.941 . S
C111 C110 1.389 . S
C111 C112 1.397 . S
C112 H98 0.939 . S
C112 C111 1.397 . S
C112 C113 1.378 . S
C113 C112 1.378 . S
C113 C114 1.378 . S
C114 H99 0.940 . S
C114 C113 1.378 . S
C114 C115 1.396 . S
C115 H100 0.940 . S
C115 C110 1.391 . S
C115 C114 1.396 . S
C116 P96 1.803 . S
C116 C117 1.378 . S
C116 C121 1.400 . S
C117 H101 0.939 . S
C117 C116 1.378 . S
C117 C118 1.361 . S
C118 H102 0.942 . S
C118 C117 1.361 . S
C118 C119 1.369 . S
C119 C118 1.369 . S
C119 C120 1.404 . S
C120 H103 0.940 . S
C120 C119 1.404 . S
C120 C121 1.389 . S
C121 H104 0.939 . S
C121 C116 1.400 . S
C121 C120 1.389 . S
C122 P96 1.819 . S
C122 C123 1.391 . S
C122 C127 1.391 . S
C123 H105 0.941 . S
C123 C122 1.391 . S
C123 C124 1.396 . S
C124 H108 0.939 . S
C124 C123 1.396 . S
C124 C125 1.397 . S
C125 C124 1.397 . S
C125 C126 1.385 . S
C126 H109 0.940 . S
C126 C125 1.385 . S
C126 C127 1.388 . S
C127 H106 0.939 . S
C127 C122 1.391 . S
C127 C126 1.388 . S
C128 C130 1.422 . S
C128 C132 1.415 . S
C128 N134 1.369 . S
C129 C130 1.421 . S
C129 C131 1.417 . S
C129 C141 1.422 . S
C130 C128 1.422 . S
C130 C129 1.421 . S
C130 N140 1.359 . S
C131 C129 1.417 . S
C131 C133 1.329 . S
C131 H150 0.930 . S
C132 C128 1.415 . S
C132 C133 1.437 . S
C132 C136 1.413 . S
C133 C131 1.329 . S
C133 C132 1.437 . S
C133 H155 0.929 . S
N134 C128 1.369 . S
N134 C135 1.358 . S
N134 Gd139 2.622 . S
C135 N134 1.358 . S
C135 C137 1.379 . S
C135 H147 0.908 1_655 S
C136 C132 1.413 . S
C136 C137 1.348 . S
C136 H152 0.931 . S
C137 C135 1.379 . S
C137 C136 1.348 . S
C137 H153 0.930 1_655 S
Gd138 N158 2.622 . S
Gd138 N165 2.570 . S
Gd138 O172 2.353 1_465 S
Gd138 O173 2.468 . S
Gd138 O174 2.427 . S
Gd138 O176 2.388 1_455 S
Gd138 O177 2.386 . S
Gd138 O181 2.307 1_565 S
Gd138 C191 2.805 . S
Gd139 N134 2.622 . S
Gd139 N140 2.570 . S
Gd139 O171 2.386 . S
Gd139 O175 2.307 1_545 S
Gd139 O178 2.353 1_655 S
Gd139 O179 2.468 . S
Gd139 O180 2.427 . S
Gd139 O182 2.388 1_655 S
Gd139 C203 2.805 . S
N140 C130 1.359 . S
N140 Gd139 2.570 . S
N140 C142 1.343 . S
C141 C129 1.422 . S
C141 C143 1.321 . S
C141 H149 0.931 . S
C142 N140 1.343 . S
C142 C143 1.390 . S
C142 H144 0.931 . S
C143 C141 1.321 . S
C143 C142 1.390 . S
C143 H145 0.930 . S
H144 C142 0.931 . S
H145 C143 0.930 . S
H146 C169 0.931 . S
H147 C135 0.908 1_455 S
H148 C170 0.930 . S
H149 C141 0.931 . S
H150 C131 0.930 . S
H151 C160 0.929 1_655 S
H152 C136 0.931 . S
H153 C137 0.930 1_455 S
H154 C192 0.930 . S
H155 C133 0.929 . S
H156 C161 0.931 . S
H157 C162 0.930 1_655 S
N158 Gd138 2.622 . S
N158 C159 1.369 . S
N158 C160 1.338 . S
C159 N158 1.369 . S
C159 C163 1.415 . S
C159 C166 1.422 . S
C160 H151 0.929 1_455 S
C160 N158 1.338 . S
C160 C162 1.378 . S
C161 H156 0.931 . S
C161 C162 1.348 . S
C161 C163 1.413 . S
C162 H157 0.930 1_455 S
C162 C160 1.378 . S
C162 C161 1.348 . S
C163 C159 1.415 . S
C163 C161 1.413 . S
C163 C193 1.437 . S
H164 C193 0.929 . S
N165 Gd138 2.570 . S
N165 C166 1.359 . S
N165 C169 1.343 . S
C166 C159 1.422 . S
C166 N165 1.359 . S
C166 C168 1.421 . S
C167 C168 1.422 . S
C167 C170 1.321 . S
C167 H194 0.931 . S
C168 C166 1.421 . S
C168 C167 1.422 . S
C168 C192 1.417 . S
C169 H146 0.931 . S
C169 N165 1.343 . S
C169 C170 1.390 . S
C170 H148 0.930 . S
C170 C167 1.321 . S
C170 C169 1.390 . S
O171 Gd139 2.386 . S
O171 C183 1.265 . S
O172 Gd138 2.353 1_645 S
O172 C183 1.242 . S
O173 Gd138 2.468 . S
O173 C191 1.263 . S
O174 Gd138 2.427 . S
O174 C191 1.252 . S
O175 Gd139 2.307 1_565 S
O175 C184 1.261 . S
O176 Gd138 2.388 1_655 S
O176 C184 1.252 . S
O177 Gd138 2.386 . S
O177 C195 1.265 . S
O178 Gd139 2.353 1_455 S
O178 C195 1.242 1_545 S
O179 Gd139 2.468 . S
O179 C203 1.263 . S
O180 Gd139 2.427 . S
O180 C203 1.252 . S
O181 Gd138 2.307 1_545 S
O181 C196 1.261 . S
O182 Gd139 2.388 1_455 S
O182 C196 1.252 . S
C183 O171 1.265 . S
C183 O172 1.242 . S
C184 O175 1.261 . S
C184 O176 1.252 . S
C185 C188 1.394 . S
C185 C190 1.370 . S
C185 C191 1.500 . S
C186 C189 1.383 . S
C186 C190 1.395 . S
C187 C188 1.396 . S
C187 C189 1.365 . S
C187 H204 0.929 . S
C188 C185 1.394 . S
C188 C187 1.396 . S
C188 H205 0.930 . S
C189 C186 1.383 . S
C189 C187 1.365 . S
C189 H206 0.931 . S
C190 C185 1.370 . S
C190 C186 1.395 . S
C190 H207 0.930 . S
C191 Gd138 2.805 . S
C191 O173 1.263 . S
C191 O174 1.252 . S
C191 C185 1.500 . S
C192 H154 0.930 . S
C192 C168 1.417 . S
C192 C193 1.329 . S
C193 C163 1.437 . S
C193 H164 0.929 . S
C193 C192 1.329 . S
H194 C167 0.931 . S
C195 O177 1.265 . S
C195 O178 1.242 1_565 S
C196 O181 1.261 . S
C196 O182 1.252 . S
C197 C200 1.394 . S
C197 C202 1.370 . S
C197 C203 1.500 . S
C198 C201 1.383 . S
C198 C202 1.395 . S
C199 C200 1.396 . S
C199 C201 1.365 . S
C199 H208 0.929 . S
C200 C197 1.394 . S
C200 C199 1.396 . S
C200 H209 0.930 . S
C201 C198 1.383 . S
C201 C199 1.365 . S
C201 H210 0.931 . S
C202 C197 1.370 . S
C202 C198 1.395 . S
C202 H211 0.930 . S
C203 Gd139 2.805 . S
C203 O179 1.263 . S
C203 O180 1.252 . S
C203 C197 1.500 . S
H204 C187 0.929 . S
H205 C188 0.930 . S
H206 C189 0.931 . S
H207 C190 0.930 . S
H208 C199 0.929 . S
H209 C200 0.930 . S
H210 C201 0.931 . S
H211 C202 0.930 . S
C212 C214 1.422 . S
C212 C216 1.415 . S
C212 N218 1.369 . S
C213 C214 1.421 . S
C213 C215 1.417 . S
C213 C225 1.422 . S
C214 C212 1.422 . S
C214 C213 1.421 . S
C214 N224 1.359 . S
C215 C213 1.417 . S
C215 C217 1.329 . S
C215 H234 0.930 . S
C216 C212 1.415 . S
C216 C217 1.437 . S
C216 C220 1.413 . S
C217 C215 1.329 . S
C217 C216 1.437 . S
C217 H239 0.929 . S
N218 C212 1.369 . S
N218 C219 1.338 . S
N218 Gd223 2.622 . S
C219 N218 1.338 . S
C219 C221 1.378 . S
C219 H231 0.929 . S
C220 C216 1.413 . S
C220 C221 1.348 . S
C220 H236 0.931 . S
C221 C219 1.378 . S
C221 C220 1.348 . S
C221 H237 0.930 . S
Gd222 N242 2.620 1_556 S
Gd222 N249 2.569 1_556 S
Gd222 O256 2.356 . S
Gd222 O257 2.473 . S
Gd222 O258 2.433 . S
Gd222 O260 2.386 1_556 S
Gd222 O261 2.380 1_556 S
Gd222 O265 2.306 1_556 S
Gd222 C275 2.811 . S
Gd223 N218 2.622 . S
Gd223 N224 2.570 . S
Gd223 O255 2.386 . S
Gd223 O259 2.307 . S
Gd223 O262 2.353 . S
Gd223 O263 2.468 . S
Gd223 O264 2.427 . S
Gd223 O266 2.388 . S
Gd223 C287 2.805 . S
N224 C214 1.359 . S
N224 Gd223 2.570 . S
N224 C226 1.343 . S
C225 C213 1.422 . S
C225 C227 1.321 . S
C225 H233 0.931 . S
C226 N224 1.343 . S
C226 C227 1.390 . S
C226 H228 0.931 . S
C227 C225 1.321 . S
C227 C226 1.390 . S
C227 H229 0.930 . S
H228 C226 0.931 . S
H229 C227 0.930 . S
H230 C253 0.931 . S
H231 C219 0.929 . S
H232 C254 0.930 . S
H233 C225 0.931 . S
H234 C215 0.930 . S
H235 C244 0.929 . S
H236 C220 0.931 . S
H237 C221 0.930 . S
H238 C276 0.930 . S
H239 C217 0.929 . S
H240 C245 0.931 . S
H241 C246 0.930 . S
N242 Gd222 2.620 1_554 S
N242 C243 1.369 . S
N242 C244 1.338 1_554 S
C243 N242 1.369 . S
C243 C247 1.415 . S
C243 C250 1.422 . S
C244 H235 0.929 . S
C244 N242 1.338 1_556 S
C244 C246 1.378 . S
C245 H240 0.931 . S
C245 C246 1.348 1_554 S
C245 C247 1.413 . S
C246 H241 0.930 . S
C246 C244 1.378 . S
C246 C245 1.348 1_556 S
C247 C243 1.415 . S
C247 C245 1.413 . S
C247 C277 1.437 . S
H248 C277 0.929 . S
N249 Gd222 2.569 1_554 S
N249 C250 1.359 . S
N249 C253 1.343 . S
C250 C243 1.422 . S
C250 N249 1.359 . S
C250 C252 1.421 . S
C251 C252 1.422 . S
C251 C254 1.321 . S
C251 H278 0.931 . S
C252 C250 1.421 . S
C252 C251 1.422 . S
C252 C276 1.417 . S
C253 H230 0.931 . S
C253 N249 1.343 . S
C253 C254 1.390 . S
C254 H232 0.930 . S
C254 C251 1.321 . S
C254 C253 1.390 . S
O255 Gd223 2.386 . S
O255 C267 1.265 1_554 S
O256 Gd222 2.356 . S
O256 C267 1.242 . S
O257 Gd222 2.473 . S
O257 C275 1.263 . S
O258 Gd222 2.433 . S
O258 C275 1.252 . S
O259 Gd223 2.307 . S
O259 C268 1.261 . S
O260 Gd222 2.386 1_554 S
O260 C268 1.252 . S
O261 Gd222 2.380 1_554 S
O261 C279 1.265 . S
O262 Gd223 2.353 . S
O262 C279 1.242 . S
O263 Gd223 2.468 . S
O263 C287 1.263 . S
O264 Gd223 2.427 . S
O264 C287 1.252 . S
O265 Gd222 2.306 1_554 S
O265 C280 1.261 . S
O266 Gd223 2.388 . S
O266 C280 1.252 . S
C267 O255 1.265 1_556 S
C267 O256 1.242 . S
C268 O259 1.261 . S
C268 O260 1.252 . S
C269 C272 1.394 . S
C269 C274 1.370 . S
C269 C275 1.500 . S
C270 C273 1.383 . S
C270 C274 1.395 . S
C271 C272 1.396 . S
C271 C273 1.365 . S
C271 H288 0.929 . S
C272 C269 1.394 . S
C272 C271 1.396 . S
C272 H289 0.930 . S
C273 C270 1.383 . S
C273 C271 1.365 . S
C273 H290 0.931 . S
C274 C269 1.370 . S
C274 C270 1.395 . S
C274 H291 0.930 . S
C275 Gd222 2.811 . S
C275 O257 1.263 . S
C275 O258 1.252 . S
C275 C269 1.500 . S
C276 H238 0.930 . S
C276 C252 1.417 . S
C276 C277 1.329 . S
C277 C247 1.437 . S
C277 H248 0.929 . S
C277 C276 1.329 . S
H278 C251 0.931 . S
C279 O261 1.265 . S
C279 O262 1.242 . S
C280 O265 1.261 . S
C280 O266 1.252 . S
C281 C284 1.394 . S
C281 C286 1.370 . S
C281 C287 1.500 . S
C282 C285 1.383 . S
C282 C286 1.395 . S
C283 C284 1.396 . S
C283 C285 1.365 . S
C283 H292 0.929 . S
C284 C281 1.394 . S
C284 C283 1.396 . S
C284 H293 0.930 . S
C285 C282 1.383 . S
C285 C283 1.365 . S
C285 H294 0.931 . S
C286 C281 1.370 . S
C286 C282 1.395 . S
C286 H295 0.930 . S
C287 Gd223 2.805 . S
C287 O263 1.263 . S
C287 O264 1.252 . S
C287 C281 1.500 . S
H288 C271 0.929 . S
H289 C272 0.930 . S
H290 C273 0.931 . S
H291 C274 0.930 . S
H292 C283 0.929 . S
H293 C284 0.930 . S
H294 C285 0.931 . S
H295 C286 0.930 . S
C296 C297 1.363 . S
C296 C302 1.379 . S
C296 N304 1.356 . S
C297 C296 1.363 . S
C297 C303 1.363 . S
C298 C299 1.363 . S
C298 C303 1.379 . S
C298 N305 1.356 . S
C299 C298 1.363 . S
C299 C302 1.363 . S
N300 C302 1.356 . S
N300 H312 0.984 . S
N300 H313 0.985 . S
N301 C303 1.356 . S
N301 H306 0.984 . S
N301 H307 0.985 . S
C302 C296 1.379 . S
C302 C299 1.363 . S
C302 N300 1.356 . S
C303 C297 1.363 . S
C303 C298 1.379 . S
C303 N301 1.356 . S
N304 C296 1.356 . S
N304 H310 0.984 . S
N304 H311 0.984 . S
N305 C298 1.356 . S
N305 H308 0.984 . S
N305 H309 0.985 . S
H306 N301 0.984 . S
H307 N301 0.985 . S
H308 N305 0.984 . S
H309 N305 0.985 . S
H310 N304 0.984 . S
H311 N304 0.984 . S
H312 N300 0.984 . S
H313 N300 0.985 . S
C314 C315 1.363 . S
C314 C320 1.379 . S
C314 N322 1.356 . S
C315 C314 1.363 . S
C315 C321 1.363 . S
C316 C317 1.363 . S
C316 C321 1.379 . S
C316 N323 1.356 1_554 S
C317 C316 1.363 . S
C317 C320 1.363 . S
N318 C320 1.356 . S
N318 H330 0.984 . S
N318 H331 0.985 . S
N319 C321 1.356 1_556 S
N319 H324 0.984 . S
N319 H325 0.985 . S
C320 C314 1.379 . S
C320 C317 1.363 . S
C320 N318 1.356 . S
C321 C315 1.363 . S
C321 C316 1.379 . S
C321 N319 1.356 1_554 S
N322 C314 1.356 . S
N322 H328 0.984 . S
N322 H329 0.984 . S
N323 C316 1.356 1_556 S
N323 H326 0.984 . S
N323 H327 0.985 . S
H324 N319 0.984 . S
H325 N319 0.985 . S
H326 N323 0.984 . S
H327 N323 0.985 . S
H328 N322 0.984 . S
H329 N322 0.984 . S
H330 N318 0.984 . S
H331 N318 0.985 . S
C332 C333 1.363 . S
C332 C338 1.379 . S
C332 N340 1.356 . S
C333 C332 1.363 . S
C333 C339 1.363 . S
C334 C335 1.363 . S
C334 C339 1.379 . S
C334 N341 1.356 . S
C335 C334 1.363 . S
C335 C338 1.363 . S
N336 C338 1.356 . S
N336 H348 0.984 1_565 S
N336 H349 0.985 . S
N337 C339 1.356 . S
N337 H342 0.984 . S
N337 H343 0.985 . S
C338 C332 1.379 . S
C338 C335 1.363 . S
C338 N336 1.356 . S
C339 C333 1.363 . S
C339 C334 1.379 . S
C339 N337 1.356 . S
N340 C332 1.356 . S
N340 H346 0.984 . S
N340 H347 0.984 . S
N341 C334 1.356 . S
N341 H344 0.984 . S
N341 H345 0.985 . S
H342 N337 0.984 . S
H343 N337 0.985 . S
H344 N341 0.984 . S
H345 N341 0.985 . S
H346 N340 0.984 . S
H347 N340 0.984 . S
H348 N336 0.984 1_545 S
H349 N336 0.985 . S
C350 C351 1.363 . S
C350 C356 1.379 . S
C350 N358 1.356 . S
C351 C350 1.363 . S
C351 C357 1.363 . S
C352 C353 1.363 . S
C352 C357 1.379 . S
C352 N359 1.356 1_554 S
C353 C352 1.363 . S
C353 C356 1.363 . S
N354 C356 1.356 . S
N354 H366 0.984 . S
N354 H367 0.985 . S
N355 C357 1.356 1_556 S
N355 H360 0.984 . S
N355 H361 0.985 . S
C356 C350 1.379 . S
C356 C353 1.363 . S
C356 N354 1.356 . S
C357 C351 1.363 . S
C357 C352 1.379 . S
C357 N355 1.356 1_554 S
N358 C350 1.356 . S
N358 H364 0.984 . S
N358 H365 0.984 . S
N359 C352 1.356 1_556 S
N359 H362 0.984 . S
N359 H363 0.985 . S
H360 N355 0.984 . S
H361 N355 0.985 . S
H362 N359 0.984 . S
H363 N359 0.985 . S
H364 N358 0.984 . S
H365 N358 0.984 . S
H366 N354 0.984 . S
H367 N354 0.985 . S
C368 C369 1.363 . S
C368 C374 1.379 . S
C368 N376 1.356 . S
C369 C368 1.363 . S
C369 C375 1.363 . S
C370 C371 1.363 . S
C370 C375 1.379 . S
C370 N377 1.356 1_565 S
C371 C370 1.363 . S
C371 C374 1.363 . S
N372 C374 1.356 . S
N372 H384 0.984 . S
N372 H385 0.985 . S
N373 C375 1.356 . S
N373 H378 0.984 . S
N373 H379 0.985 1_565 S
C374 C368 1.379 . S
C374 C371 1.363 . S
C374 N372 1.356 . S
C375 C369 1.363 . S
C375 C370 1.379 . S
C375 N373 1.356 . S
N376 C368 1.356 . S
N376 H382 0.984 . S
N376 H383 0.984 . S
N377 C370 1.356 1_545 S
N377 H380 0.984 . S
N377 H381 0.985 . S
H378 N373 0.984 . S
H379 N373 0.985 1_545 S
H380 N377 0.984 . S
H381 N377 0.985 . S
H382 N376 0.984 . S
H383 N376 0.984 . S
H384 N372 0.984 . S
H385 N372 0.985 . S
C386 C387 1.363 . S
C386 C392 1.379 . S
C386 N394 1.356 . S
C387 C386 1.363 . S
C387 C393 1.363 . S
C388 C389 1.363 . S
C388 C393 1.379 . S
C388 N395 1.356 . S
C389 C388 1.363 . S
C389 C392 1.363 . S
N390 C392 1.356 . S
N390 H402 0.984 . S
N390 H403 0.985 . S
N391 C393 1.356 . S
N391 H396 0.984 . S
N391 H397 0.985 . S
C392 C386 1.379 . S
C392 C389 1.363 . S
C392 N390 1.356 . S
C393 C387 1.363 . S
C393 C388 1.379 . S
C393 N391 1.356 . S
N394 C386 1.356 . S
N394 H400 0.984 . S
N394 H401 0.984 . S
N395 C388 1.356 . S
N395 H398 0.984 . S
N395 H399 0.985 . S
H396 N391 0.984 . S
H397 N391 0.985 . S
H398 N395 0.984 . S
H399 N395 0.985 . S
H400 N394 0.984 . S
H401 N394 0.984 . S
H402 N390 0.984 . S
H403 N390 0.985 . S
C404 C405 1.363 . S
C404 C410 1.379 . S
C404 N412 1.350 1_545 S
C405 C404 1.363 . S
C405 C411 1.363 . S
C406 C407 1.363 . S
C406 C411 1.379 . S
C406 N413 1.356 . S
C407 C406 1.363 . S
C407 C410 1.363 . S
N408 C410 1.356 1_565 S
N408 H420 0.984 . S
N408 H421 0.985 . S
N409 C411 1.356 . S
N409 H414 0.984 . S
N409 H415 0.985 . S
C410 C404 1.379 . S
C410 C407 1.363 . S
C410 N408 1.356 1_545 S
C411 C405 1.363 . S
C411 C406 1.379 . S
C411 N409 1.356 . S
N412 C404 1.350 1_565 S
N412 H418 0.992 . S
N412 H419 0.983 1_565 S
N413 C406 1.356 . S
N413 H416 0.984 . S
N413 H417 0.985 . S
H414 N409 0.984 . S
H415 N409 0.985 . S
H416 N413 0.984 . S
H417 N413 0.985 . S
H418 N412 0.992 . S
H419 N412 0.983 1_545 S
H420 N408 0.984 . S
H421 N408 0.985 . S
C422 C423 1.363 . S
C422 C428 1.379 . S
C422 N430 1.356 . S
C423 C422 1.363 . S
C423 C429 1.363 . S
C424 C425 1.363 . S
C424 C429 1.379 . S
C424 N431 1.356 . S
C425 C424 1.363 . S
C425 C428 1.363 . S
N426 C428 1.356 . S
N426 H438 0.984 . S
N426 H439 0.985 . S
N427 C429 1.356 . S
N427 H432 0.984 . S
N427 H433 0.985 . S
C428 C422 1.379 . S
C428 C425 1.363 . S
C428 N426 1.356 . S
C429 C423 1.363 . S
C429 C424 1.379 . S
C429 N427 1.356 . S
N430 C422 1.356 . S
N430 H436 0.984 . S
N430 H437 0.984 . S
N431 C424 1.356 . S
N431 H434 0.984 . S
N431 H435 0.985 . S
H432 N427 0.984 . S
H433 N427 0.985 . S
H434 N431 0.984 . S
H435 N431 0.985 . S
H436 N430 0.984 . S
H437 N430 0.984 . S
H438 N426 0.984 . S
H439 N426 0.985 . S
C440 C441 1.363 . S
C440 C446 1.379 . S
C440 N448 1.356 . S
C441 C440 1.363 . S
C441 C447 1.363 . S
C442 C443 1.363 . S
C442 C447 1.379 . S
C442 N449 1.356 . S
C443 C442 1.363 . S
C443 C446 1.363 . S
N444 C446 1.356 . S
N444 H456 0.984 . S
N444 H457 0.985 . S
N445 C447 1.356 . S
N445 H450 0.984 . S
N445 H451 0.985 . S
C446 C440 1.379 . S
C446 C443 1.363 . S
C446 N444 1.356 . S
C447 C441 1.363 . S
C447 C442 1.379 . S
C447 N445 1.356 . S
N448 C440 1.356 . S
N448 H454 0.984 . S
N448 H455 0.984 . S
N449 C442 1.356 . S
N449 H452 0.984 . S
N449 H453 0.985 . S
H450 N445 0.984 . S
H451 N445 0.985 . S
H452 N449 0.984 . S
H453 N449 0.985 . S
H454 N448 0.984 . S
H455 N448 0.984 . S
H456 N444 0.984 . S
H457 N444 0.985 . S
C458 C459 1.363 . S
C458 C464 1.379 . S
C458 N466 1.356 . S
C459 C458 1.363 . S
C459 C465 1.363 . S
C460 C461 1.363 . S
C460 C465 1.379 . S
C460 N467 1.356 . S
C461 C460 1.363 . S
C461 C464 1.363 . S
N462 C464 1.359 . S
N462 H474 0.983 1_545 S
N462 H475 0.984 . S
N463 C465 1.356 . S
N463 H468 0.984 . S
N463 H469 0.985 . S
C464 C458 1.379 . S
C464 C461 1.363 . S
C464 N462 1.359 . S
C465 C459 1.363 . S
C465 C460 1.379 . S
C465 N463 1.356 . S
N466 C458 1.356 . S
N466 H472 0.984 1_545 S
N466 H473 0.984 . S
N467 C460 1.356 . S
N467 H470 0.984 . S
N467 H471 0.985 . S
H468 N463 0.984 . S
H469 N463 0.985 . S
H470 N467 0.984 . S
H471 N467 0.985 . S
H472 N466 0.984 1_565 S
H473 N466 0.984 . S
H474 N462 0.983 1_565 S
H475 N462 0.984 . S
C476 C477 1.363 . S
C476 C482 1.379 . S
C476 N484 1.356 . S
C477 C476 1.363 . S
C477 C483 1.363 . S
C478 C479 1.363 . S
C478 C483 1.379 . S
C478 N485 1.356 . S
C479 C478 1.363 . S
C479 C482 1.363 . S
N480 C482 1.356 . S
N480 H492 0.984 . S
N480 H493 0.985 . S
N481 C483 1.356 . S
N481 H486 0.984 . S
N481 H487 0.985 . S
C482 C476 1.379 . S
C482 C479 1.363 . S
C482 N480 1.356 . S
C483 C477 1.363 . S
C483 C478 1.379 . S
C483 N481 1.356 . S
N484 C476 1.356 . S
N484 H490 0.984 . S
N484 H491 0.984 . S
N485 C478 1.356 . S
N485 H488 0.984 . S
N485 H489 0.985 . S
H486 N481 0.984 . S
H487 N481 0.985 . S
H488 N485 0.984 . S
H489 N485 0.985 . S
H490 N484 0.984 . S
H491 N484 0.984 . S
H492 N480 0.984 . S
H493 N480 0.985 . S
C494 C495 1.363 . S
C494 C500 1.379 . S
C494 N502 1.356 1_565 S
C495 C494 1.363 . S
C495 C501 1.363 . S
C496 C497 1.363 . S
C496 C501 1.379 . S
C496 N503 1.356 . S
C497 C496 1.363 . S
C497 C500 1.363 . S
N498 C500 1.356 1_545 S
N498 H510 0.984 . S
N498 H511 0.985 . S
N499 C501 1.356 . S
N499 H504 0.984 . S
N499 H505 0.985 . S
C500 C494 1.379 . S
C500 C497 1.363 . S
C500 N498 1.356 1_565 S
C501 C495 1.363 . S
C501 C496 1.379 . S
C501 N499 1.356 . S
N502 C494 1.356 1_545 S
N502 H508 0.984 . S
N502 H509 0.984 1_545 S
N503 C496 1.356 . S
N503 H506 0.984 . S
N503 H507 0.985 . S
H504 N499 0.984 . S
H505 N499 0.985 . S
H506 N503 0.984 . S
H507 N503 0.985 . S
H508 N502 0.984 . S
H509 N502 0.984 1_565 S
H510 N498 0.984 . S
H511 N498 0.985 . S
C299 C196 1.651 . S
C297 C119 1.632 . S
C315 C23 1.637 . S
C317 C268 1.618 . S
C333 C55 1.564 . S
C335 C184 1.651 . S
C351 C87 1.523 . S
C353 C280 1.618 . S
C371 C186 1.394 . S
C369 C17 1.537 . S
C389 C267 1.616 . S
C387 C61 1.535 . S
C405 C93 1.494 . S
C407 C183 1.632 . S
C423 C113 1.516 . S
C425 C270 1.398 . S
C443 C282 1.398 . S
C441 C49 1.487 . S
C461 C198 1.394 . S
C459 C81 1.490 . S
C479 C279 1.616 . S
C477 C125 1.607 . S
C495 C29 1.632 . S
C497 C195 1.632 . S
