# Generated by pormake.
# Topology llj, (12,3)-cn, num edge types: 1
# Building blocks:
#     Node 0, Type 0, BuildingBlock: QEWDON_clean_sbu_0, # of connection points: 12
#     Node 1, Type 0, BuildingBlock: QEWDON_clean_sbu_0, # of connection points: 12
#     Node 2, Type 1, BuildingBlock: ESEHIV_clean_linker_0, # of connection points: 3
#     Node 3, Type 1, BuildingBlock: ESEHIV_clean_linker_0, # of connection points: 3
#     Node 4, Type 1, BuildingBlock: ESEHIV_clean_linker_0, # of connection points: 3
#     Node 5, Type 1, BuildingBlock: ESEHIV_clean_linker_0, # of connection points: 3
#     Node 6, Type 1, BuildingBlock: ESEHIV_clean_linker_0, # of connection points: 3
#     Node 7, Type 1, BuildingBlock: ESEHIV_clean_linker_0, # of connection points: 3
#     Node 8, Type 1, BuildingBlock: ESEHIV_clean_linker_0, # of connection points: 3
#     Node 9, Type 1, BuildingBlock: ESEHIV_clean_linker_0, # of connection points: 3
#     Edge 10, Type (0, 1), BuildingBlock: EZIPEK_clean_linker_0, # of connection points: 2
#     Edge 11, Type (0, 1), BuildingBlock: EZIPEK_clean_linker_0, # of connection points: 2
#     Edge 12, Type (0, 1), BuildingBlock: EZIPEK_clean_linker_0, # of connection points: 2
#     Edge 13, Type (0, 1), BuildingBlock: EZIPEK_clean_linker_0, # of connection points: 2
#     Edge 14, Type (0, 1), BuildingBlock: EZIPEK_clean_linker_0, # of connection points: 2
#     Edge 15, Type (0, 1), BuildingBlock: EZIPEK_clean_linker_0, # of connection points: 2
#     Edge 16, Type (0, 1), BuildingBlock: EZIPEK_clean_linker_0, # of connection points: 2
#     Edge 17, Type (0, 1), BuildingBlock: EZIPEK_clean_linker_0, # of connection points: 2
#     Edge 18, Type (0, 1), BuildingBlock: EZIPEK_clean_linker_0, # of connection points: 2
#     Edge 19, Type (0, 1), BuildingBlock: EZIPEK_clean_linker_0, # of connection points: 2
#     Edge 20, Type (0, 1), BuildingBlock: EZIPEK_clean_linker_0, # of connection points: 2
#     Edge 21, Type (0, 1), BuildingBlock: EZIPEK_clean_linker_0, # of connection points: 2
#     Edge 22, Type (0, 1), BuildingBlock: EZIPEK_clean_linker_0, # of connection points: 2
#     Edge 23, Type (0, 1), BuildingBlock: EZIPEK_clean_linker_0, # of connection points: 2
#     Edge 24, Type (0, 1), BuildingBlock: EZIPEK_clean_linker_0, # of connection points: 2
#     Edge 25, Type (0, 1), BuildingBlock: EZIPEK_clean_linker_0, # of connection points: 2
#     Edge 26, Type (0, 1), BuildingBlock: EZIPEK_clean_linker_0, # of connection points: 2
#     Edge 27, Type (0, 1), BuildingBlock: EZIPEK_clean_linker_0, # of connection points: 2
#     Edge 28, Type (0, 1), BuildingBlock: EZIPEK_clean_linker_0, # of connection points: 2
#     Edge 29, Type (0, 1), BuildingBlock: EZIPEK_clean_linker_0, # of connection points: 2
#     Edge 30, Type (0, 1), BuildingBlock: EZIPEK_clean_linker_0, # of connection points: 2
#     Edge 31, Type (0, 1), BuildingBlock: EZIPEK_clean_linker_0, # of connection points: 2
#     Edge 32, Type (0, 1), BuildingBlock: EZIPEK_clean_linker_0, # of connection points: 2
#     Edge 33, Type (0, 1), BuildingBlock: EZIPEK_clean_linker_0, # of connection points: 2
# Relax obj value: 0.011
# Max RMSD: 0.060
# Mean RMSD: 0.055
data_MOF--net-llj--node1-QEWDON_clean_sbu_0--node2-ESEHIV_clean_linker_0--edge1-EZIPEK_clean_linker_0
_symmetry_space_group_name_H-M    P1
_symmetry_Int_Tables_number       1
_symmetry_cell_setting            triclinic
loop_
_symmetry_equiv_pos_as_xyz
'x, y, z'
_cell_length_a     27.294969
_cell_length_b     27.149764
_cell_length_c     18.684459
_cell_angle_alpha  90.122403
_cell_angle_beta   89.862637
_cell_angle_gamma 91.15905
loop_
_atom_site_label
_atom_site_type_symbol
_atom_site_fract_x
_atom_site_fract_y
_atom_site_fract_z
_atom_type_partial_charge
Zn0 Zn 0.95345 0.1479 0.90775 0.0
Zn1 Zn 0.93113 0.10311 0.05357 0.0
O2 O 0.95493 0.08117 0.95754 0.0
H3 H 0.97896 0.05635 0.94798 0.0
C4 C 0.90374 0.00444 0.80044 0.0
O5 O 0.94876 0.98858 0.80493 0.0
Zn6 Zn 0.04553 0.87641 0.10298 0.0
Zn7 Zn 0.03526 0.88201 0.9361 0.0
O8 O -0.0052 0.88489 0.02627 0.0
H9 H 0.96197 0.87083 0.02693 0.0
Zn10 Zn 0.88918 0.95006 0.93595 0.0
O11 O 0.92874 0.97337 0.02131 0.0
Zn12 Zn 0.90053 0.93724 0.10599 0.0
H13 H 0.96232 0.98522 0.01914 0.0
Zn14 Zn 0.10829 0.03478 0.89644 0.0
O15 O 0.09599 0.99257 0.98299 0.0
H16 H 0.07322 0.96488 0.98274 0.0
Zn17 Zn 0.10644 0.04224 0.05978 0.0
C18 C 0.15364 0.96821 0.80104 0.0
O19 O 0.18499 0.96832 0.85426 0.0
O20 O 0.89942 0.19486 0.94283 0.0
O21 O 0.88186 0.15713 0.04569 0.0
O22 O 0.09229 0.83459 0.94772 0.0
O23 O 0.08987 0.82254 0.06594 0.0
O24 O 0.83671 0.89823 0.96009 0.0
O25 O 0.84762 0.88754 0.0772 0.0
C26 C 0.03018 0.11034 0.11434 0.0
O27 O 0.15656 0.09318 0.91351 0.0
O28 O 0.15964 0.09233 0.03254 0.0
O29 O -0.00546 0.87232 0.84423 0.0
C30 C 0.87431 0.19097 0.00026 0.0
O31 O -0.00774 0.1605 0.81296 0.0
C32 C 0.96937 0.87512 0.20084 0.0
O33 O 0.87331 -0.00514 0.85016 0.0
C34 C 0.10667 0.81265 0.00379 0.0
O35 O 0.11599 0.99469 0.80443 0.0
C36 C 0.87544 0.03101 0.16353 0.0
O37 O 0.98803 0.12865 0.1105 0.0
O38 O 0.04286 0.07782 0.0694 0.0
C39 C 0.82592 0.87698 0.01861 0.0
O40 O 0.0118 0.85698 0.19659 0.0
O41 O 0.95658 0.90298 0.15026 0.0
C42 C 0.11 0.96293 0.16024 0.0
O43 O 0.87102 0.98488 0.17335 0.0
O44 O 0.90161 0.0457 0.11063 0.0
C45 C 0.17345 0.10984 0.97231 0.0
O46 O 0.12572 0.00662 0.14888 0.0
O47 O 0.08153 0.94279 0.11417 0.0
C48 C 0.97728 0.82928 0.83254 0.0
O49 O 0.98517 0.79397 0.87882 0.0
C50 C 0.01109 0.12487 0.77903 0.0
O51 O 0.00649 0.08001 0.8046 0.0
Zn52 Zn 0.45602 0.58791 0.4533 0.0
Zn53 Zn 0.42833 0.59857 0.61142 0.0
O54 O 0.48819 0.59706 0.54956 0.0
H55 H 0.51743 0.61734 0.5552 0.0
C56 C 0.36815 0.53488 0.31771 0.0
O57 O 0.41277 0.52347 0.33674 0.0
Zn58 Zn 0.57295 0.39724 0.57605 0.0
Zn59 Zn 0.55011 0.37041 0.40987 0.0
O60 O 0.53774 0.42106 0.48764 0.0
H61 H 0.50811 0.43976 0.48588 0.0
Zn62 Zn 0.34056 0.48289 0.44978 0.0
O63 O 0.40805 0.4781 0.49196 0.0
Zn64 Zn 0.39444 0.42839 0.56839 0.0
H65 H 0.43663 0.49908 0.48477 0.0
Zn66 Zn 0.57396 0.54249 0.47189 0.0
O67 O 0.5447 0.51348 0.56266 0.0
H68 H 0.51198 0.49961 0.56686 0.0
Zn69 Zn 0.57174 0.55347 0.6427 0.0
C70 C 0.57752 0.47813 0.3407 0.0
O71 O 0.52947 0.47864 0.34262 0.0
O72 O 0.39351 0.62889 0.44769 0.0
O73 O 0.38207 0.64458 0.5634 0.0
O74 O 0.59705 0.31549 0.4381 0.0
O75 O 0.615 0.33937 0.5495 0.0
O76 O 0.3033 0.41641 0.45325 0.0
O77 O 0.3477 0.37523 0.53229 0.0
C78 C 0.49 0.61532 0.72558 0.0
O79 O 0.61934 0.60209 0.4915 0.0
O80 O 0.62389 0.60382 0.61044 0.0
O81 O 0.50677 0.362 0.31851 0.0
C82 C 0.37102 0.65055 0.49793 0.0
O83 O 0.50196 0.60038 0.36762 0.0
C84 C 0.47854 0.37924 0.64743 0.0
O85 O 0.33211 0.52313 0.35768 0.0
C86 C 0.62011 0.31024 0.49664 0.0
O87 O 0.60194 0.49877 0.39055 0.0
C88 C 0.37337 0.50678 0.66275 0.0
O89 O 0.44636 0.62494 0.70848 0.0
O90 O 0.5141 0.58822 0.68356 0.0
C91 C 0.31254 0.37722 0.48761 0.0
O92 O 0.52411 0.37181 0.64736 0.0
O93 O 0.46 0.40205 0.59509 0.0
C94 C 0.61365 0.46386 0.69425 0.0
O95 O 0.36324 0.46155 0.65218 0.0
O96 O 0.40083 0.52909 0.61763 0.0
C97 C 0.63676 0.62006 0.54901 0.0
O98 O 0.59949 0.50661 0.71187 0.0
O99 O 0.61366 0.45204 0.62772 0.0
C100 C 0.46524 0.3808 0.30666 0.0
O101 O 0.44502 0.40905 0.35514 0.0
C102 C 0.52608 0.64081 0.369 0.0
O103 O 0.52445 0.66888 0.42626 0.0
H104 H 0.42636 0.36215 0.98025 0.0
H105 H 0.31742 0.27407 0.08575 0.0
H106 H 0.32876 0.26724 0.85826 0.0
C107 C 0.39877 0.33342 0.97584 0.0
C108 C 0.38718 0.31075 0.90932 0.0
C109 C 0.37487 0.31955 0.03953 0.0
C110 C 0.33523 0.28615 0.0367 0.0
C111 C 0.31995 0.26658 0.97106 0.0
C112 C 0.34417 0.28068 0.90788 0.0
H113 H 0.63114 0.43751 0.01174 0.0
H114 H 0.71693 0.34487 0.1486 0.0
H115 H 0.73439 0.33948 0.92179 0.0
C116 C 0.66093 0.41286 0.02108 0.0
C117 C 0.68218 0.3913 0.96061 0.0
C118 C 0.67787 0.40231 0.09108 0.0
C119 C 0.70867 0.36097 0.0974 0.0
C120 C 0.72979 0.33932 0.03669 0.0
C121 C 0.71747 0.35562 0.96869 0.0
H122 H 0.54466 0.66061 0.04462 0.0
H123 H 0.64608 0.7409 0.90756 0.0
H124 H 0.66528 0.74107 0.13392 0.0
C125 C 0.5748 0.68618 0.03558 0.0
C126 C 0.60271 0.69994 0.09528 0.0
C127 C 0.58579 0.70513 0.96674 0.0
C128 C 0.63132 0.73081 0.95915 0.0
C129 C 0.65931 0.74426 0.01922 0.0
C130 C 0.64452 0.72937 0.08721 0.0
H131 H 0.36077 0.57204 0.98222 0.0
H132 H 0.26566 0.66848 0.09662 0.0
H133 H 0.24785 0.64925 0.86987 0.0
C134 C 0.33134 0.59828 0.98157 0.0
C135 C 0.307 0.60859 0.91731 0.0
C136 C 0.31481 0.61784 0.04625 0.0
C137 C 0.2779 0.6527 0.04644 0.0
C138 C 0.25484 0.66516 0.98242 0.0
C139 C 0.26784 0.64153 0.91849 0.0
H140 H 0.91612 0.84002 0.50934 0.0
H141 H 0.80918 0.75402 0.62588 0.0
H142 H 0.79457 0.77115 0.39803 0.0
C143 C 0.88215 0.81861 0.51011 0.0
C144 C 0.85704 0.80884 0.44599 0.0
C145 C 0.86471 0.79904 0.57483 0.0
C146 C 0.82184 0.77014 0.57589 0.0
C147 C 0.79628 0.76023 0.5126 0.0
C148 C 0.81354 0.77996 0.44745 0.0
H149 H 0.13218 0.90317 0.48602 0.0
H150 H 0.2305 0.8033 0.58621 0.0
H151 H 0.22468 0.81117 0.35715 0.0
C152 C 0.1587 0.87412 0.48123 0.0
C153 C 0.17509 0.85927 0.41333 0.0
C154 C 0.18059 0.85595 0.54306 0.0
C155 C 0.21387 0.81769 0.53813 0.0
C156 C 0.22828 0.80041 0.47093 0.0
C157 C 0.21038 0.82234 0.40873 0.0
H158 H 0.07297 0.1152 0.44886 0.0
H159 H 0.1795 0.20894 0.34178 0.0
H160 H 0.16776 0.20989 0.56974 0.0
C161 C 0.10049 0.14426 0.44846 0.0
C162 C 0.11733 0.16102 0.5151 0.0
C163 C 0.11682 0.16688 0.38416 0.0
C164 C 0.16017 0.19623 0.38893 0.0
C165 C 0.17812 0.21217 0.4555 0.0
C166 C 0.15609 0.19508 0.51841 0.0
H167 H 0.85809 0.05959 0.47623 0.0
H168 H 0.75735 0.13186 0.61866 0.0
H169 H 0.74631 0.15128 0.39129 0.0
C170 C 0.82664 0.08261 0.48518 0.0
C171 C 0.80186 0.10185 0.42636 0.0
C172 C 0.81031 0.09218 0.55528 0.0
C173 C 0.77002 0.12314 0.56518 0.0
C174 C 0.74858 0.14603 0.50618 0.0
C175 C 0.7634 0.13401 0.43696 0.0
C176 C 0.1965 0.19895 0.95586 0.0
C177 C 0.21081 0.14995 0.97038 0.0
C178 C 0.29636 0.17739 0.98396 0.0
C179 C 0.28218 0.22643 0.96923 0.0
N180 N 0.22121 0.28417 0.93334 0.0
N181 N 0.27387 0.09039 0.98759 0.0
C182 C 0.23286 0.2373 0.95287 0.0
C183 C 0.26062 0.13859 0.98187 0.0
N184 N 0.14794 0.20875 0.94659 0.0
N185 N 0.34413 0.16808 0.00023 0.0
H186 H 0.24861 0.06104 0.98678 0.0
H187 H 0.30992 0.07873 0.98837 0.0
H188 H 0.37222 0.19445 -0.00443 0.0
H189 H 0.35606 0.13488 0.0209 0.0
H190 H 0.13392 0.244 0.94346 0.0
H191 H 0.12066 0.18131 0.94534 0.0
H192 H 0.18719 0.29411 0.91376 0.0
H193 H 0.24669 0.31332 0.93305 0.0
C194 C 0.7866 0.21375 0.01742 0.0
C195 C 0.83698 0.22792 0.01693 0.0
C196 C 0.81624 0.31252 0.04985 0.0
C197 C 0.76593 0.29959 0.04222 0.0
N198 N 0.70182 0.23942 0.01987 0.0
N199 N 0.90108 0.28921 0.03438 0.0
C200 C 0.7507 0.25039 0.02733 0.0
C201 C 0.8522 0.27686 0.03415 0.0
N202 N 0.77322 0.16532 0.00801 0.0
N203 N 0.82933 0.35896 0.07225 0.0
H204 H 0.92859 0.26346 0.02791 0.0
H205 H 0.91488 0.32509 0.03828 0.0
H206 H 0.80389 0.38621 0.08262 0.0
H207 H 0.86488 0.37003 0.08537 0.0
H208 H 0.73779 0.15146 0.01567 0.0
H209 H 0.79814 0.13791 -0.00414 0.0
H210 H 0.68795 0.20607 0.00034 0.0
H211 H 0.67459 0.2648 0.03097 0.0
C212 C 0.78916 0.79406 -0.00874 0.0
C213 C 0.78391 0.84233 0.01906 0.0
C214 C 0.69575 0.82835 0.03366 0.0
C215 C 0.70176 0.77856 0.01294 0.0
N216 N 0.75375 0.71177 0.97868 0.0
N217 N 0.73415 0.90473 0.07354 0.0
C218 C 0.74834 0.76076 -0.00687 0.0
C219 C 0.73774 0.85927 0.0424 0.0
N220 N 0.83298 0.78035 0.96255 0.0
N221 N 0.64968 0.84632 0.04291 0.0
H222 H 0.76372 0.92943 0.07825 0.0
H223 H 0.70273 0.91678 0.09932 0.0
H224 H 0.61792 0.82474 0.03645 0.0
H225 H 0.64252 0.88346 0.05069 0.0
H226 H 0.83766 0.74777 0.93411 0.0
H227 H 0.86426 0.80308 0.96327 0.0
H228 H 0.78759 0.6954 0.97173 0.0
H229 H 0.72435 0.68661 0.97808 0.0
C230 C 0.13082 0.72444 0.0066 0.0
C231 C 0.14417 0.77469 -0.00362 0.0
C232 C 0.2283 0.75207 0.96709 0.0
C233 C 0.21598 0.70233 0.98339 0.0
N234 N 0.15756 0.64063 0.02392 0.0
N235 N 0.20569 0.8379 0.97445 0.0
C236 C 0.16775 0.68832 0.00459 0.0
C237 C 0.19289 0.78897 0.97817 0.0
N238 N 0.08257 0.71117 0.01548 0.0
N239 N 0.27379 0.76388 0.94055 0.0
H240 H 0.18064 0.86602 0.98151 0.0
H241 H 0.24163 0.85099 0.96953 0.0
H242 H 0.30142 0.7382 0.93455 0.0
H243 H 0.28334 0.79831 0.91981 0.0
H244 H 0.06966 0.67484 0.01544 0.0
H245 H 0.05451 0.73668 0.01741 0.0
H246 H 0.12494 0.62919 0.04825 0.0
H247 H 0.18296 0.61258 0.01937 0.0
C248 C 0.66648 0.70716 0.53116 0.0
C249 C 0.67705 0.65685 0.54269 0.0
C250 C 0.76431 0.67373 0.52116 0.0
C251 C 0.75439 0.72467 0.51556 0.0
N252 N 0.69771 0.79138 0.5225 0.0
N253 N 0.73569 0.59246 0.55774 0.0
C254 C 0.70585 0.74185 0.52226 0.0
C255 C 0.72593 0.6402 0.54036 0.0
N256 N 0.61882 0.72151 0.52774 0.0
N257 N 0.81036 0.65739 0.5065 0.0
H258 H 0.70842 0.56647 0.5706 0.0
H259 H 0.77091 0.57937 0.56494 0.0
H260 H 0.83949 0.68096 0.49264 0.0
H261 H 0.81895 0.62033 0.50209 0.0
H262 H 0.60835 0.75638 0.51147 0.0
H263 H 0.58928 0.69744 0.53744 0.0
H264 H 0.66413 0.80666 0.5353 0.0
H265 H 0.72552 0.81764 0.5139 0.0
C266 C 0.28478 0.67388 0.47463 0.0
C267 C 0.33488 0.68777 0.47988 0.0
C268 C 0.3153 0.77449 0.46274 0.0
C269 C 0.26486 0.76124 0.46656 0.0
N270 N 0.20019 0.69981 0.47654 0.0
N271 N 0.39946 0.74969 0.47918 0.0
C272 C 0.24914 0.71122 0.47187 0.0
C273 C 0.3507 0.73763 0.47312 0.0
N274 N 0.27163 0.62504 0.47158 0.0
N275 N 0.32912 0.8223 0.44909 0.0
H276 H 0.42666 0.7234 0.48348 0.0
H277 H 0.41317 0.7856 0.4833 0.0
H278 H 0.30412 0.85057 0.44356 0.0
H279 H 0.36498 0.83373 0.43837 0.0
H280 H 0.23621 0.61212 0.46125 0.0
H281 H 0.29714 0.59697 0.47413 0.0
H282 H 0.18625 0.66488 0.48876 0.0
H283 H 0.17306 0.72609 0.4714 0.0
C284 C 0.22855 0.33994 0.49424 0.0
C285 C 0.27906 0.33427 0.47915 0.0
C286 C 0.26423 0.24704 0.45066 0.0
C287 C 0.2133 0.25421 0.45968 0.0
N288 N 0.14588 0.30967 0.47424 0.0
N289 N 0.3444 0.28511 0.43178 0.0
C290 C 0.19513 0.30139 0.47656 0.0
C291 C 0.2969 0.28848 0.45436 0.0
N292 N 0.21273 0.38121 0.52871 0.0
N293 N 0.28133 0.20062 0.4402 0.0
H294 H 0.3692 0.31484 0.43296 0.0
H295 H 0.35813 0.25413 0.40634 0.0
H296 H 0.25816 0.16972 0.43573 0.0
H297 H 0.31839 0.19226 0.44097 0.0
H298 H 0.17707 0.38481 0.54776 0.0
H299 H 0.23624 0.4098 0.54508 0.0
H300 H 0.13114 0.34465 0.47856 0.0
H301 H 0.11994 0.28242 0.46106 0.0
C302 C 0.70416 0.27713 0.50942 0.0
C303 C 0.65289 0.26826 0.50481 0.0
C304 C 0.66434 0.17936 0.51803 0.0
C305 C 0.71562 0.18796 0.51548 0.0
N306 N 0.78569 0.24328 0.50711 0.0
N307 N 0.58286 0.21254 0.50517 0.0
C308 C 0.73593 0.23646 0.51171 0.0
C309 C 0.63254 0.21976 0.50955 0.0
N310 N 0.72237 0.32448 0.51132 0.0
N311 N 0.64646 0.13257 0.52925 0.0
H312 H 0.55824 0.24139 0.50345 0.0
H313 H 0.56566 0.17816 0.50052 0.0
H314 H 0.66915 0.10236 0.53494 0.0
H315 H 0.60967 0.12368 0.53769 0.0
H316 H 0.75859 0.33376 0.52339 0.0
H317 H 0.7007 0.35529 0.50443 0.0
H318 H 0.80291 0.27675 0.49487 0.0
H319 H 0.81035 0.21466 0.51231 0.0
C320 C 0.09226 0.16061 0.18188 0.0
C321 C 0.05785 0.12099 0.18025 0.0
C322 C 0.04719 0.12824 0.30932 0.0
C323 C 0.08975 0.15898 0.31348 0.0
N324 N 0.12041 0.23073 0.25058 0.0
N325 N 0.00447 0.06413 0.24412 0.0
C326 C 0.10453 0.18276 0.24876 0.0
C327 C 0.03641 0.10356 0.24468 0.0
N328 N 0.11182 0.17821 0.11954 0.0
N329 N 0.01177 0.13083 0.36073 0.0
H330 H -0.00414 0.04452 0.19754 0.0
H331 H 0.99066 0.04836 0.29108 0.0
H332 H 0.01298 0.15793 0.40045 0.0
H333 H 0.97834 0.11172 0.35733 0.0
H334 H 0.14082 0.20376 0.11796 0.0
H335 H 0.10124 0.16423 0.06979 0.0
H336 H 0.12788 0.25151 0.20489 0.0
H337 H 0.11828 0.25182 0.29723 0.0
C338 C 0.80347 0.04521 0.24101 0.0
C339 C 0.84912 0.06341 0.21522 0.0
C340 C 0.8577 0.1158 0.32195 0.0
C341 C 0.8172 0.09008 0.35272 0.0
N342 N 0.75121 0.02987 0.34368 0.0
N343 N 0.90951 0.12829 0.2181 0.0
C344 C 0.78942 0.0552 0.31246 0.0
C345 C 0.87341 0.10251 0.25201 0.0
N346 N 0.77346 0.01893 0.19591 0.0
N347 N 0.88032 0.15319 0.35945 0.0
H348 H 0.91158 0.12635 0.16314 0.0
H349 H 0.93252 0.15479 0.24117 0.0
H350 H 0.86888 0.16425 0.4102 0.0
H351 H 0.91001 0.1741 0.34103 0.0
H352 H 0.73786 0.0077 0.20893 0.0
H353 H 0.78274 0.01313 0.14231 0.0
H354 H 0.73315 8e-05 0.31954 0.0
H355 H 0.73972 0.0362 0.39614 0.0
C356 C 0.92465 0.80797 0.26703 0.0
C357 C 0.93469 0.85903 0.25792 0.0
C358 C 0.88271 0.87691 0.36183 0.0
C359 C 0.8794 0.82574 0.37726 0.0
N360 N 0.90348 0.7426 0.3498 0.0
N361 N 0.92737 0.94255 0.30059 0.0
C362 C 0.90171 0.79117 0.33099 0.0
C363 C 0.91436 0.8938 0.30588 0.0
N364 N 0.93592 0.77555 0.21367 0.0
N365 N 0.85531 0.90921 0.40037 0.0
H366 H 0.95088 0.95626 0.26099 0.0
H367 H 0.91786 0.96889 0.33848 0.0
H368 H 0.83178 0.89786 0.44153 0.0
H369 H 0.85244 0.94634 0.38741 0.0
H370 H 0.92505 0.73855 0.21443 0.0
H371 H 0.95152 0.78666 0.16513 0.0
H372 H 0.92422 0.71699 0.32208 0.0
H373 H 0.88786 0.72853 0.39661 0.0
C374 C 0.1404 0.88674 0.2207 0.0
C375 C 0.12633 0.93646 0.22518 0.0
C376 C 0.1569 0.93812 0.34775 0.0
C377 C 0.15872 0.88578 0.34802 0.0
N378 N 0.13901 0.80993 0.28413 0.0
N379 N 0.11345 0.00732 0.30174 0.0
C380 C 0.14636 0.85976 0.28441 0.0
C381 C 0.13205 0.96162 0.29145 0.0
N382 N 0.15305 0.86652 0.15681 0.0
N383 N 0.1813 0.96574 0.39794 0.0
H384 H 0.09272 0.02476 0.2632 0.0
H385 H 0.11406 0.025 0.35138 0.0
H386 H 0.20483 0.95046 0.43535 0.0
H387 H 0.18323 0.00413 0.39594 0.0
H388 H 0.16787 0.83143 0.15319 0.0
H389 H 0.15425 0.88698 0.10961 0.0
H390 H 0.12767 0.79096 0.23821 0.0
H391 H 0.13864 0.78893 0.3308 0.0
C392 C 0.13024 0.89737 0.72236 0.0
C393 C 0.16221 0.93787 0.73714 0.0
C394 C 0.20963 0.92053 0.62917 0.0
C395 C 0.17487 0.88284 0.61118 0.0
N396 N 0.09861 0.83956 0.63422 0.0
N397 N 0.22859 0.99253 0.70174 0.0
C398 C 0.13417 0.87238 0.65597 0.0
C399 C 0.20118 0.95054 0.69005 0.0
N400 N 0.09752 0.88148 0.77314 0.0
N401 N 0.25076 0.92754 0.5881 0.0
H402 H 0.22359 0.01539 0.74599 0.0
H403 H 0.25364 0.00705 0.66497 0.0
H404 H 0.25721 0.90827 0.54081 0.0
H405 H 0.2802 0.9502 0.60313 0.0
H406 H 0.07753 0.84858 0.76869 0.0
H407 H 0.09376 0.89875 0.82272 0.0
H408 H 0.0648 0.83596 0.65973 0.0
H409 H 0.10131 0.81883 0.58733 0.0
C410 C 0.08652 0.11653 0.70261 0.0
C411 C 0.03803 0.13369 0.7109 0.0
C412 C 0.04299 0.17152 0.59219 0.0
C413 C 0.08914 0.14949 0.58107 0.0
N414 N 0.15123 0.09402 0.62056 0.0
N415 N 0.96657 0.16931 0.65755 0.0
C416 C 0.10978 0.11972 0.63471 0.0
C417 C 0.01522 0.15888 0.65393 0.0
N418 N 0.11154 0.1001 0.76064 0.0
N419 N 0.02651 0.2062 0.54554 0.0
H420 H 0.94496 0.16031 0.70172 0.0
H421 H 0.9468 0.18252 0.61425 0.0
H422 H 0.04601 0.21749 0.50021 0.0
H423 H -0.00433 0.22719 0.55539 0.0
H424 H 0.14866 0.09188 0.75934 0.0
H425 H 0.09635 0.09974 0.81178 0.0
H426 H 0.16497 0.06775 0.6553 0.0
H427 H 0.16927 0.09571 0.57128 0.0
C428 C 0.8706 0.07884 0.73894 0.0
C429 C 0.88631 0.02941 0.73525 0.0
C430 C 0.84752 0.01987 0.61842 0.0
C431 C 0.83647 0.07081 0.61786 0.0
N432 N 0.84912 0.15133 0.67159 0.0
N433 N 0.90169 0.95776 0.6622 0.0
C434 C 0.85126 0.10118 0.67655 0.0
C435 C 0.87907 0.00167 0.67177 0.0
N436 N 0.87466 0.10459 0.80162 0.0
N437 N 0.82527 0.98796 0.57139 0.0
H438 H 0.92445 0.94233 0.70035 0.0
H439 H 0.90125 0.93902 0.61341 0.0
H440 H 0.79812 -0.00137 0.53581 0.0
H441 H 0.82942 0.94992 0.57377 0.0
H442 H 0.85878 0.13871 0.80987 0.0
H443 H 0.89139 0.0904 0.84701 0.0
H444 H 0.86059 0.17536 0.71195 0.0
H445 H 0.84127 0.16941 0.62398 0.0
C446 C 0.90212 0.84375 0.76 0.0
C447 C 0.94729 0.81941 0.7682 0.0
C448 C 0.93517 0.77737 0.65327 0.0
C449 C 0.89296 0.80592 0.64164 0.0
N450 N 0.8359 0.86695 0.68106 0.0
N451 N 0.0089 0.76503 0.72247 0.0
C452 C 0.87615 0.83917 0.69444 0.0
C453 C 0.96425 0.78643 0.71503 0.0
N454 N 0.88343 0.86988 0.81602 0.0
N455 N 0.94636 0.74041 0.60643 0.0
H456 H 0.03098 0.76994 0.76746 0.0
H457 H 0.026 0.74531 0.68201 0.0
H458 H 0.92607 0.73282 0.56033 0.0
H459 H 0.97327 0.7146 0.61577 0.0
H460 H 0.84869 0.8849 0.81647 0.0
H461 H 0.90136 0.87336 0.865 0.0
H462 H 0.82406 0.89519 0.71415 0.0
H463 H 0.81583 0.86428 0.63374 0.0
C464 C 0.54913 0.67854 0.77457 0.0
C465 C 0.51276 0.64125 0.78678 0.0
C466 C 0.50745 0.66744 0.91156 0.0
C467 C 0.55223 0.69429 0.90338 0.0
N468 N 0.58256 0.75513 0.82034 0.0
N469 N 0.45613 0.60051 0.86817 0.0
C470 C 0.56476 0.70861 0.8327 0.0
C471 C 0.49127 0.63599 0.85557 0.0
N472 N 0.56785 0.68645 0.70763 0.0
N473 N 0.47661 0.67825 0.96667 0.0
H474 H 0.44359 0.57609 0.82877 0.0
H475 H 0.44281 0.59281 0.91938 0.0
H476 H 0.48407 0.70754 0.00159 0.0
H477 H 0.44134 0.66307 0.97117 0.0
H478 H 0.59825 0.70945 0.69829 0.0
H479 H 0.55478 0.66829 0.66216 0.0
H480 H 0.58815 0.76954 0.76925 0.0
H481 H 0.58441 0.7814 0.86123 0.0
C482 C 0.35282 0.50798 0.79454 0.0
C483 C 0.35396 0.532 0.7271 0.0
C484 C 0.32765 0.60757 0.78475 0.0
C485 C 0.32081 0.58209 0.85043 0.0
N486 N 0.30939 0.50219 0.90654 0.0
N487 N 0.32045 0.59777 0.65721 0.0
C488 C 0.32798 0.53039 0.85207 0.0
C489 C 0.3349 0.57987 0.72162 0.0
N490 N 0.37664 0.46493 0.80511 0.0
N491 N 0.32957 0.65778 0.78214 0.0
H492 H 0.32136 0.5766 0.61054 0.0
H493 H 0.30252 0.6312 0.65247 0.0
H494 H 0.32898 0.67984 0.82783 0.0
H495 H 0.33761 0.67681 0.73493 0.0
H496 H 0.37966 0.44868 0.85542 0.0
H497 H 0.39798 0.44874 0.76581 0.0
H498 H 0.31121 0.46385 0.9067 0.0
H499 H 0.28685 0.51644 0.94629 0.0
C500 C 0.41882 0.3225 0.7098 0.0
C501 C 0.4509 0.36414 0.71216 0.0
C502 C 0.45781 0.35447 0.84169 0.0
C503 C 0.4173 0.32096 0.84155 0.0
N504 N 0.39319 0.24917 0.77332 0.0
N505 N 0.49791 0.42293 0.78253 0.0
C506 C 0.40615 0.29797 0.77478 0.0
C507 C 0.46923 0.38117 0.7789 0.0
N508 N 0.40178 0.3052 0.64571 0.0
N509 N 0.49117 0.35349 0.89582 0.0
H510 H 0.50593 0.44453 0.73769 0.0
H511 H 0.50911 0.43843 0.83109 0.0
H512 H 0.49019 0.32567 0.93436 0.0
H513 H 0.52315 0.37515 0.89609 0.0
H514 H 0.3743 0.2781 0.64177 0.0
H515 H 0.41264 0.32041 0.59687 0.0
H516 H 0.38889 0.22893 0.72624 0.0
H517 H 0.39431 0.22749 0.81937 0.0
C518 C 0.67806 0.46636 0.78919 0.0
C519 C 0.64339 0.43795 0.74912 0.0
C520 C 0.63783 0.37713 0.84525 0.0
C521 C 0.66922 0.40733 0.88761 0.0
N522 N 0.72794 0.47461 0.89647 0.0
N523 N 0.61067 0.35716 0.72582 0.0
C524 C 0.6922 0.45017 0.85839 0.0
C525 C 0.62917 0.3905 0.77322 0.0
N526 N 0.69697 0.50897 0.76043 0.0
N527 N 0.61566 0.33615 0.87417 0.0
H528 H 0.61142 0.36495 0.67169 0.0
H529 H 0.60237 0.32053 0.73809 0.0
H530 H 0.62134 0.32497 0.92684 0.0
H531 H 0.58872 0.31542 0.84777 0.0
H532 H 0.71775 0.53497 0.7886 0.0
H533 H 0.69134 0.51841 0.70696 0.0
H534 H 0.74906 0.50383 0.87666 0.0
H535 H 0.73862 0.46401 0.94766 0.0
C536 C 0.59607 0.48233 0.20842 0.0
C537 C 0.60426 0.46048 0.2765 0.0
C538 C 0.67599 0.41962 0.22683 0.0
C539 C 0.6604 0.43111 0.15655 0.0
N540 N 0.6345 0.5043 0.09629 0.0
N541 N 0.65241 0.40625 0.34972 0.0
C542 C 0.62799 0.47119 0.15055 0.0
C543 C 0.6444 0.42861 0.28551 0.0
N544 N 0.55929 0.51508 0.19893 0.0
N545 N 0.72386 0.409 0.23912 0.0
H546 H 0.63027 0.41148 0.39451 0.0
H547 H 0.67865 0.3792 0.35616 0.0
H548 H 0.75031 0.41237 0.19886 0.0
H549 H 0.73824 0.40469 0.29033 0.0
H550 H 0.54835 0.52685 0.14847 0.0
H551 H 0.53815 0.52897 0.24047 0.0
H552 H 0.61388 0.53587 0.09038 0.0
H553 H 0.66538 0.50359 0.06323 0.0
C554 C 0.52944 0.70056 0.26743 0.0
C555 C 0.54939 0.65928 0.30276 0.0
C556 C 0.606 0.64585 0.20299 0.0
C557 C 0.58575 0.68675 0.16775 0.0
N558 N 0.53653 0.7595 0.17045 0.0
N559 N 0.61226 0.59888 0.31254 0.0
C560 C 0.54999 0.71615 0.20131 0.0
C561 C 0.58941 0.63372 0.27288 0.0
N562 N 0.48944 0.72346 0.29535 0.0
N563 N 0.64048 0.61833 0.16896 0.0
H564 H 0.60065 0.58966 0.36381 0.0
H565 H 0.64441 0.58168 0.29757 0.0
H566 H 0.65389 0.6267 0.11799 0.0
H567 H 0.65432 0.58579 0.18912 0.0
H568 H 0.46965 0.74981 0.26803 0.0
H569 H 0.47302 0.71349 0.34372 0.0
H570 H 0.51505 0.78552 0.1959 0.0
H571 H 0.55 0.77163 0.12112 0.0
C572 C 0.32575 0.5283 0.20013 0.0
C573 C 0.35856 0.55462 0.24557 0.0
C574 C 0.36831 0.61921 0.15486 0.0
C575 C 0.33078 0.59601 0.11428 0.0
N576 N 0.26797 0.5325 0.10265 0.0
N577 N 0.40656 0.62815 0.27048 0.0
C578 C 0.30785 0.55161 0.13806 0.0
C579 C 0.37912 0.60066 0.22384 0.0
N580 N 0.31312 0.48036 0.2149 0.0
N581 N 0.39392 0.65859 0.12723 0.0
H582 H 0.4161 0.61561 0.32091 0.0
H583 H 0.41594 0.6649 0.26128 0.0
H584 H 0.38573 0.67406 0.07772 0.0
H585 H 0.42548 0.67345 0.15083 0.0
H586 H 0.29294 0.45793 0.18005 0.0
H587 H 0.32745 0.46114 0.25811 0.0
H588 H 0.24664 0.50322 0.12214 0.0
H589 H 0.25337 0.54859 0.05701 0.0
C590 C 0.42407 0.40236 0.19008 0.0
C591 C 0.438 0.36646 0.241 0.0
C592 C 0.4137 0.3007 0.15818 0.0
C593 C 0.39506 0.33611 0.10999 0.0
N594 N 0.37498 0.42055 0.08546 0.0
N595 N 0.43365 0.282 0.28087 0.0
C596 C 0.39786 0.38704 0.12769 0.0
C597 C 0.42886 0.3158 0.22734 0.0
N598 N 0.43775 0.4506 0.19961 0.0
N599 N 0.41998 0.2531 0.13667 0.0
H600 H 0.4435 0.29171 0.33302 0.0
H601 H 0.42266 0.24519 0.27534 0.0
H602 H 0.41269 0.24092 0.08484 0.0
H603 H 0.43784 0.22719 0.16773 0.0
H604 H 0.43308 0.47768 0.16097 0.0
H605 H 0.45763 0.4629 0.24392 0.0
H606 H 0.37318 0.45788 0.09765 0.0
H607 H 0.35417 0.41036 0.04086 0.0
loop_
_geom_bond_atom_site_label_1
_geom_bond_atom_site_label_2
_geom_bond_distance
_geom_bond_site_symmetry_2
_ccdc_geom_bond_type
Zn0 O2 1.933 1_556 S
Zn0 O20 1.985 . S
Zn0 O31 1.955 . S
Zn1 O2 1.911 . S
Zn1 O21 1.970 . S
Zn1 O37 1.945 . S
Zn1 O44 1.981 . S
O2 Zn0 1.933 1_554 S
O2 Zn1 1.911 . S
O2 H3 0.841 1_655 S
H3 O2 0.841 1_455 S
C4 O5 1.246 . S
C4 O33 1.276 1_545 S
O5 C4 1.246 . S
Zn6 O8 1.911 . S
Zn6 O23 1.970 . S
Zn6 O40 1.945 . S
Zn6 O47 1.981 . S
Zn7 O8 1.933 1_556 S
Zn7 O22 1.985 . S
Zn7 O29 1.955 . S
O8 Zn6 1.911 . S
O8 Zn7 1.933 1_554 S
O8 H9 0.841 1_455 S
H9 O8 0.841 1_655 S
Zn10 O11 1.933 1_556 S
Zn10 O24 1.985 . S
Zn10 O33 1.955 . S
O11 Zn10 1.933 1_554 S
O11 Zn12 1.911 . S
O11 H13 0.841 1_565 S
Zn12 O11 1.911 . S
Zn12 O25 1.970 . S
Zn12 O41 1.981 . S
Zn12 O43 1.945 . S
H13 O11 0.841 1_545 S
Zn14 O15 1.933 1_556 S
Zn14 O27 1.985 . S
Zn14 O35 1.955 . S
O15 Zn14 1.933 1_554 S
O15 H16 0.841 1_545 S
O15 Zn17 1.911 . S
H16 O15 0.841 1_565 S
Zn17 O15 1.911 . S
Zn17 O28 1.970 . S
Zn17 O38 1.981 . S
Zn17 O46 1.945 . S
C18 O19 1.246 . S
C18 O35 1.276 1_565 S
O19 C18 1.246 . S
O20 Zn0 1.985 . S
O20 C30 1.245 1_556 S
O21 Zn1 1.970 . S
O21 C30 1.263 . S
O22 Zn7 1.985 . S
O22 C34 1.245 1_556 S
O23 Zn6 1.970 . S
O23 C34 1.263 . S
O24 Zn10 1.985 . S
O24 C39 1.245 1_556 S
O25 Zn12 1.970 . S
O25 C39 1.263 . S
C26 O37 1.262 1_455 S
C26 O38 1.245 . S
O27 Zn14 1.985 . S
O27 C45 1.245 1_556 S
O28 Zn17 1.970 . S
O28 C45 1.263 . S
O29 Zn7 1.955 . S
O29 C48 1.276 1_455 S
C30 O20 1.245 1_554 S
C30 O21 1.263 . S
O31 Zn0 1.955 . S
O31 C50 1.276 1_655 S
C32 O40 1.262 1_655 S
C32 O41 1.245 . S
O33 C4 1.276 1_565 S
O33 Zn10 1.955 . S
C34 O22 1.245 1_554 S
C34 O23 1.263 . S
O35 Zn14 1.955 . S
O35 C18 1.276 1_545 S
C36 O43 1.262 1_545 S
C36 O44 1.245 . S
O37 Zn1 1.945 . S
O37 C26 1.262 1_655 S
O38 Zn17 1.981 . S
O38 C26 1.245 . S
C39 O24 1.245 1_554 S
C39 O25 1.263 . S
O40 Zn6 1.945 . S
O40 C32 1.262 1_455 S
O41 Zn12 1.981 . S
O41 C32 1.245 . S
C42 O46 1.262 1_565 S
C42 O47 1.245 . S
O43 Zn12 1.945 . S
O43 C36 1.262 1_565 S
O44 Zn1 1.981 . S
O44 C36 1.245 . S
C45 O27 1.245 1_554 S
C45 O28 1.263 . S
O46 Zn17 1.945 . S
O46 C42 1.262 1_545 S
O47 Zn6 1.981 . S
O47 C42 1.245 . S
C48 O29 1.276 1_655 S
C48 O49 1.246 . S
O49 C48 1.246 . S
C50 O31 1.276 1_455 S
C50 O51 1.246 . S
O51 C50 1.246 . S
Zn52 O54 1.933 . S
Zn52 O72 1.985 . S
Zn52 O83 1.955 . S
Zn53 O54 1.911 . S
Zn53 O73 1.970 . S
Zn53 O89 1.945 . S
Zn53 O96 1.981 . S
O54 Zn52 1.933 . S
O54 Zn53 1.911 . S
O54 H55 0.841 . S
H55 O54 0.841 . S
C56 O57 1.246 . S
C56 O85 1.276 . S
O57 C56 1.246 . S
Zn58 O60 1.911 . S
Zn58 O75 1.970 . S
Zn58 O92 1.945 . S
Zn58 O99 1.981 . S
Zn59 O60 1.933 . S
Zn59 O74 1.985 . S
Zn59 O81 1.955 . S
O60 Zn58 1.911 . S
O60 Zn59 1.933 . S
O60 H61 0.841 . S
H61 O60 0.841 . S
Zn62 O63 1.933 . S
Zn62 O76 1.985 . S
Zn62 O85 1.955 . S
O63 Zn62 1.933 . S
O63 Zn64 1.911 . S
O63 H65 0.841 . S
Zn64 O63 1.911 . S
Zn64 O77 1.970 . S
Zn64 O93 1.981 . S
Zn64 O95 1.945 . S
H65 O63 0.841 . S
Zn66 O67 1.933 . S
Zn66 O79 1.985 . S
Zn66 O87 1.955 . S
O67 Zn66 1.933 . S
O67 H68 0.841 . S
O67 Zn69 1.911 . S
H68 O67 0.841 . S
Zn69 O67 1.911 . S
Zn69 O80 1.970 . S
Zn69 O90 1.981 . S
Zn69 O98 1.945 . S
C70 O71 1.246 . S
C70 O87 1.276 . S
O71 C70 1.246 . S
O72 Zn52 1.985 . S
O72 C82 1.245 . S
O73 Zn53 1.970 . S
O73 C82 1.263 . S
O74 Zn59 1.985 . S
O74 C86 1.245 . S
O75 Zn58 1.970 . S
O75 C86 1.263 . S
O76 Zn62 1.985 . S
O76 C91 1.245 . S
O77 Zn64 1.970 . S
O77 C91 1.263 . S
C78 O89 1.262 . S
C78 O90 1.245 . S
O79 Zn66 1.985 . S
O79 C97 1.245 . S
O80 Zn69 1.970 . S
O80 C97 1.263 . S
O81 Zn59 1.955 . S
O81 C100 1.276 . S
C82 O72 1.245 . S
C82 O73 1.263 . S
O83 Zn52 1.955 . S
O83 C102 1.276 . S
C84 O92 1.262 . S
C84 O93 1.245 . S
O85 C56 1.276 . S
O85 Zn62 1.955 . S
C86 O74 1.245 . S
C86 O75 1.263 . S
O87 Zn66 1.955 . S
O87 C70 1.276 . S
C88 O95 1.262 . S
C88 O96 1.245 . S
O89 Zn53 1.945 . S
O89 C78 1.262 . S
O90 Zn69 1.981 . S
O90 C78 1.245 . S
C91 O76 1.245 . S
C91 O77 1.263 . S
O92 Zn58 1.945 . S
O92 C84 1.262 . S
O93 Zn64 1.981 . S
O93 C84 1.245 . S
C94 O98 1.262 . S
C94 O99 1.245 . S
O95 Zn64 1.945 . S
O95 C88 1.262 . S
O96 Zn53 1.981 . S
O96 C88 1.245 . S
C97 O79 1.245 . S
C97 O80 1.263 . S
O98 Zn69 1.945 . S
O98 C94 1.262 . S
O99 Zn58 1.981 . S
O99 C94 1.245 . S
C100 O81 1.276 . S
C100 O101 1.246 . S
O101 C100 1.246 . S
C102 O83 1.276 . S
C102 O103 1.246 . S
O103 C102 1.246 . S
H104 C107 0.931 . S
H105 C110 0.928 . S
H106 C112 0.930 . S
C107 H104 0.931 . S
C107 C108 1.413 1_554 S
C107 C109 1.360 . S
C108 C107 1.413 1_556 S
C108 C112 1.429 . S
C109 C107 1.360 . S
C109 C110 1.372 . S
C110 H105 0.928 . S
C110 C109 1.372 . S
C110 C111 1.404 . S
C111 C110 1.404 . S
C111 C112 1.391 1_554 S
C112 H106 0.930 . S
C112 C108 1.429 . S
C112 C111 1.391 1_556 S
H113 C116 0.931 . S
H114 C119 0.928 . S
H115 C121 0.930 . S
C116 H113 0.931 . S
C116 C117 1.413 1_554 S
C116 C118 1.360 . S
C117 C116 1.413 1_556 S
C117 C121 1.429 . S
C118 C116 1.360 . S
C118 C119 1.372 . S
C119 H114 0.928 . S
C119 C118 1.372 . S
C119 C120 1.404 . S
C120 C119 1.404 . S
C120 C121 1.391 1_554 S
C121 H115 0.930 . S
C121 C117 1.429 . S
C121 C120 1.391 1_556 S
H122 C125 0.931 . S
H123 C128 0.928 . S
H124 C130 0.930 . S
C125 H122 0.931 . S
C125 C126 1.413 . S
C125 C127 1.360 1_554 S
C126 C125 1.413 . S
C126 C130 1.429 . S
C127 C125 1.360 1_556 S
C127 C128 1.372 . S
C128 H123 0.928 . S
C128 C127 1.372 . S
C128 C129 1.404 1_556 S
C129 C128 1.404 1_554 S
C129 C130 1.391 . S
C130 H124 0.930 . S
C130 C126 1.429 . S
C130 C129 1.391 . S
H131 C134 0.931 . S
H132 C137 0.928 . S
H133 C139 0.930 . S
C134 H131 0.931 . S
C134 C135 1.413 1_554 S
C134 C136 1.360 . S
C135 C134 1.413 1_556 S
C135 C139 1.429 . S
C136 C134 1.360 . S
C136 C137 1.372 . S
C137 H132 0.928 . S
C137 C136 1.372 . S
C137 C138 1.404 . S
C138 C137 1.404 . S
C138 C139 1.391 1_554 S
C139 H133 0.930 . S
C139 C135 1.429 . S
C139 C138 1.391 1_556 S
H140 C143 0.931 . S
H141 C146 0.928 . S
H142 C148 0.930 . S
C143 H140 0.931 . S
C143 C144 1.413 . S
C143 C145 1.360 . S
C144 C143 1.413 . S
C144 C148 1.429 . S
C145 C143 1.360 . S
C145 C146 1.372 . S
C146 H141 0.928 . S
C146 C145 1.372 . S
C146 C147 1.404 . S
C147 C146 1.404 . S
C147 C148 1.391 . S
C148 H142 0.930 . S
C148 C144 1.429 . S
C148 C147 1.391 . S
H149 C152 0.931 . S
H150 C155 0.928 . S
H151 C157 0.930 . S
C152 H149 0.931 . S
C152 C153 1.413 . S
C152 C154 1.360 . S
C153 C152 1.413 . S
C153 C157 1.429 . S
C154 C152 1.360 . S
C154 C155 1.372 . S
C155 H150 0.928 . S
C155 C154 1.372 . S
C155 C156 1.404 . S
C156 C155 1.404 . S
C156 C157 1.391 . S
C157 H151 0.930 . S
C157 C153 1.429 . S
C157 C156 1.391 . S
H158 C161 0.931 . S
H159 C164 0.928 . S
H160 C166 0.930 . S
C161 H158 0.931 . S
C161 C162 1.413 . S
C161 C163 1.360 . S
C162 C161 1.413 . S
C162 C166 1.429 . S
C163 C161 1.360 . S
C163 C164 1.372 . S
C164 H159 0.928 . S
C164 C163 1.372 . S
C164 C165 1.404 . S
C165 C164 1.404 . S
C165 C166 1.391 . S
C166 H160 0.930 . S
C166 C162 1.429 . S
C166 C165 1.391 . S
H167 C170 0.931 . S
H168 C173 0.928 . S
H169 C175 0.930 . S
C170 H167 0.931 . S
C170 C171 1.413 . S
C170 C172 1.360 . S
C171 C170 1.413 . S
C171 C175 1.429 . S
C172 C170 1.360 . S
C172 C173 1.372 . S
C173 H168 0.928 . S
C173 C172 1.372 . S
C173 C174 1.404 . S
C174 C173 1.404 . S
C174 C175 1.391 . S
C175 H169 0.930 . S
C175 C171 1.429 . S
C175 C174 1.391 . S
C176 C177 1.363 . S
C176 C182 1.379 . S
C176 N184 1.356 . S
C177 C176 1.363 . S
C177 C183 1.363 1_554 S
C178 C179 1.363 1_556 S
C178 C183 1.379 . S
C178 N185 1.356 . S
C179 C178 1.363 1_554 S
C179 C182 1.363 . S
N180 C182 1.356 . S
N180 H192 0.984 . S
N180 H193 0.985 . S
N181 C183 1.356 . S
N181 H186 0.984 . S
N181 H187 0.985 . S
C182 C176 1.379 . S
C182 C179 1.363 . S
C182 N180 1.356 . S
C183 C177 1.363 1_556 S
C183 C178 1.379 . S
C183 N181 1.356 . S
N184 C176 1.356 . S
N184 H190 0.984 . S
N184 H191 0.984 . S
N185 C178 1.356 . S
N185 H188 0.984 . S
N185 H189 0.985 . S
H186 N181 0.984 . S
H187 N181 0.985 . S
H188 N185 0.984 . S
H189 N185 0.985 . S
H190 N184 0.984 . S
H191 N184 0.984 . S
H192 N180 0.984 . S
H193 N180 0.985 . S
C194 C195 1.363 . S
C194 C200 1.379 . S
C194 N202 1.356 . S
C195 C194 1.363 . S
C195 C201 1.363 1_554 S
C196 C197 1.363 1_556 S
C196 C201 1.379 . S
C196 N203 1.356 . S
C197 C196 1.363 1_554 S
C197 C200 1.363 . S
N198 C200 1.356 . S
N198 H210 0.984 . S
N198 H211 0.985 . S
N199 C201 1.356 . S
N199 H204 0.984 . S
N199 H205 0.985 . S
C200 C194 1.379 . S
C200 C197 1.363 . S
C200 N198 1.356 . S
C201 C195 1.363 1_556 S
C201 C196 1.379 . S
C201 N199 1.356 . S
N202 C194 1.356 . S
N202 H208 0.984 . S
N202 H209 0.984 . S
N203 C196 1.356 . S
N203 H206 0.984 . S
N203 H207 0.985 . S
H204 N199 0.984 . S
H205 N199 0.985 . S
H206 N203 0.984 . S
H207 N203 0.985 . S
H208 N202 0.984 . S
H209 N202 0.984 . S
H210 N198 0.984 . S
H211 N198 0.985 . S
C212 C213 1.363 1_556 S
C212 C218 1.379 . S
C212 N220 1.356 . S
C213 C212 1.363 1_554 S
C213 C219 1.363 . S
C214 C215 1.363 . S
C214 C219 1.379 . S
C214 N221 1.356 . S
C215 C214 1.363 . S
C215 C218 1.363 1_554 S
N216 C218 1.356 . S
N216 H228 0.984 . S
N216 H229 0.985 . S
N217 C219 1.356 . S
N217 H222 0.984 . S
N217 H223 0.985 . S
C218 C212 1.379 . S
C218 C215 1.363 1_556 S
C218 N216 1.356 . S
C219 C213 1.363 . S
C219 C214 1.379 . S
C219 N217 1.356 . S
N220 C212 1.356 . S
N220 H226 0.984 . S
N220 H227 0.984 . S
N221 C214 1.356 . S
N221 H224 0.984 . S
N221 H225 0.985 . S
H222 N217 0.984 . S
H223 N217 0.985 . S
H224 N221 0.984 . S
H225 N221 0.985 . S
H226 N220 0.984 . S
H227 N220 0.984 . S
H228 N216 0.984 . S
H229 N216 0.985 . S
C230 C231 1.363 1_556 S
C230 C236 1.379 . S
C230 N238 1.356 . S
C231 C230 1.363 1_554 S
C231 C237 1.363 . S
C232 C233 1.363 . S
C232 C237 1.379 . S
C232 N239 1.356 . S
C233 C232 1.363 . S
C233 C236 1.363 1_554 S
N234 C236 1.356 . S
N234 H246 0.984 . S
N234 H247 0.985 . S
N235 C237 1.356 . S
N235 H240 0.984 . S
N235 H241 0.985 . S
C236 C230 1.379 . S
C236 C233 1.363 1_556 S
C236 N234 1.356 . S
C237 C231 1.363 . S
C237 C232 1.379 . S
C237 N235 1.356 . S
N238 C230 1.356 . S
N238 H244 0.984 . S
N238 H245 0.984 . S
N239 C232 1.356 . S
N239 H242 0.984 . S
N239 H243 0.985 . S
H240 N235 0.984 . S
H241 N235 0.985 . S
H242 N239 0.984 . S
H243 N239 0.985 . S
H244 N238 0.984 . S
H245 N238 0.984 . S
H246 N234 0.984 . S
H247 N234 0.985 . S
C248 C249 1.363 . S
C248 C254 1.379 . S
C248 N256 1.356 . S
C249 C248 1.363 . S
C249 C255 1.363 . S
C250 C251 1.363 . S
C250 C255 1.379 . S
C250 N257 1.356 . S
C251 C250 1.363 . S
C251 C254 1.363 . S
N252 C254 1.356 . S
N252 H264 0.984 . S
N252 H265 0.985 . S
N253 C255 1.356 . S
N253 H258 0.984 . S
N253 H259 0.985 . S
C254 C248 1.379 . S
C254 C251 1.363 . S
C254 N252 1.356 . S
C255 C249 1.363 . S
C255 C250 1.379 . S
C255 N253 1.356 . S
N256 C248 1.356 . S
N256 H262 0.984 . S
N256 H263 0.984 . S
N257 C250 1.356 . S
N257 H260 0.984 . S
N257 H261 0.985 . S
H258 N253 0.984 . S
H259 N253 0.985 . S
H260 N257 0.984 . S
H261 N257 0.985 . S
H262 N256 0.984 . S
H263 N256 0.984 . S
H264 N252 0.984 . S
H265 N252 0.985 . S
C266 C267 1.363 . S
C266 C272 1.379 . S
C266 N274 1.356 . S
C267 C266 1.363 . S
C267 C273 1.363 . S
C268 C269 1.363 . S
C268 C273 1.379 . S
C268 N275 1.356 . S
C269 C268 1.363 . S
C269 C272 1.363 . S
N270 C272 1.356 . S
N270 H282 0.984 . S
N270 H283 0.985 . S
N271 C273 1.356 . S
N271 H276 0.984 . S
N271 H277 0.985 . S
C272 C266 1.379 . S
C272 C269 1.363 . S
C272 N270 1.356 . S
C273 C267 1.363 . S
C273 C268 1.379 . S
C273 N271 1.356 . S
N274 C266 1.356 . S
N274 H280 0.984 . S
N274 H281 0.984 . S
N275 C268 1.356 . S
N275 H278 0.984 . S
N275 H279 0.985 . S
H276 N271 0.984 . S
H277 N271 0.985 . S
H278 N275 0.984 . S
H279 N275 0.985 . S
H280 N274 0.984 . S
H281 N274 0.984 . S
H282 N270 0.984 . S
H283 N270 0.985 . S
C284 C285 1.363 . S
C284 C290 1.379 . S
C284 N292 1.356 . S
C285 C284 1.363 . S
C285 C291 1.363 . S
C286 C287 1.363 . S
C286 C291 1.379 . S
C286 N293 1.356 . S
C287 C286 1.363 . S
C287 C290 1.363 . S
N288 C290 1.356 . S
N288 H300 0.984 . S
N288 H301 0.985 . S
N289 C291 1.356 . S
N289 H294 0.984 . S
N289 H295 0.985 . S
C290 C284 1.379 . S
C290 C287 1.363 . S
C290 N288 1.356 . S
C291 C285 1.363 . S
C291 C286 1.379 . S
C291 N289 1.356 . S
N292 C284 1.356 . S
N292 H298 0.984 . S
N292 H299 0.984 . S
N293 C286 1.356 . S
N293 H296 0.984 . S
N293 H297 0.985 . S
H294 N289 0.984 . S
H295 N289 0.985 . S
H296 N293 0.984 . S
H297 N293 0.985 . S
H298 N292 0.984 . S
H299 N292 0.984 . S
H300 N288 0.984 . S
H301 N288 0.985 . S
C302 C303 1.363 . S
C302 C308 1.379 . S
C302 N310 1.356 . S
C303 C302 1.363 . S
C303 C309 1.363 . S
C304 C305 1.363 . S
C304 C309 1.379 . S
C304 N311 1.356 . S
C305 C304 1.363 . S
C305 C308 1.363 . S
N306 C308 1.356 . S
N306 H318 0.984 . S
N306 H319 0.985 . S
N307 C309 1.356 . S
N307 H312 0.984 . S
N307 H313 0.985 . S
C308 C302 1.379 . S
C308 C305 1.363 . S
C308 N306 1.356 . S
C309 C303 1.363 . S
C309 C304 1.379 . S
C309 N307 1.356 . S
N310 C302 1.356 . S
N310 H316 0.984 . S
N310 H317 0.984 . S
N311 C304 1.356 . S
N311 H314 0.984 . S
N311 H315 0.985 . S
H312 N307 0.984 . S
H313 N307 0.985 . S
H314 N311 0.984 . S
H315 N311 0.985 . S
H316 N310 0.984 . S
H317 N310 0.984 . S
H318 N306 0.984 . S
H319 N306 0.985 . S
C320 C321 1.363 . S
C320 C326 1.379 . S
C320 N328 1.356 . S
C321 C320 1.363 . S
C321 C327 1.363 . S
C322 C323 1.363 . S
C322 C327 1.379 . S
C322 N329 1.356 . S
C323 C322 1.363 . S
C323 C326 1.363 . S
N324 C326 1.356 . S
N324 H336 0.984 . S
N324 H337 0.985 . S
N325 C327 1.356 . S
N325 H330 0.984 . S
N325 H331 0.984 1_455 S
C326 C320 1.379 . S
C326 C323 1.363 . S
C326 N324 1.356 . S
C327 C321 1.363 . S
C327 C322 1.379 . S
C327 N325 1.356 . S
N328 C320 1.356 . S
N328 H334 0.984 . S
N328 H335 0.984 . S
N329 C322 1.356 . S
N329 H332 0.984 . S
N329 H333 0.985 . S
H330 N325 0.984 . S
H331 N325 0.984 1_655 S
H332 N329 0.984 . S
H333 N329 0.985 . S
H334 N328 0.984 . S
H335 N328 0.984 . S
H336 N324 0.984 . S
H337 N324 0.985 . S
C338 C339 1.363 . S
C338 C344 1.379 . S
C338 N346 1.356 1_545 S
C339 C338 1.363 . S
C339 C345 1.363 . S
C340 C341 1.363 . S
C340 C345 1.379 . S
C340 N347 1.356 . S
C341 C340 1.363 . S
C341 C344 1.363 . S
N342 C344 1.356 . S
N342 H354 0.984 1_545 S
N342 H355 0.985 . S
N343 C345 1.356 . S
N343 H348 0.984 . S
N343 H349 0.985 . S
C344 C338 1.379 . S
C344 C341 1.363 . S
C344 N342 1.356 . S
C345 C339 1.363 . S
C345 C340 1.379 . S
C345 N343 1.356 . S
N346 C338 1.356 1_565 S
N346 H352 0.984 . S
N346 H353 0.984 . S
N347 C340 1.356 . S
N347 H350 0.984 . S
N347 H351 0.985 . S
H348 N343 0.984 . S
H349 N343 0.985 . S
H350 N347 0.984 . S
H351 N347 0.985 . S
H352 N346 0.984 . S
H353 N346 0.984 . S
H354 N342 0.984 1_565 S
H355 N342 0.985 . S
C356 C357 1.363 . S
C356 C362 1.379 . S
C356 N364 1.356 . S
C357 C356 1.363 . S
C357 C363 1.363 . S
C358 C359 1.363 . S
C358 C363 1.379 . S
C358 N365 1.356 . S
C359 C358 1.363 . S
C359 C362 1.363 . S
N360 C362 1.356 . S
N360 H372 0.984 . S
N360 H373 0.985 . S
N361 C363 1.356 . S
N361 H366 0.984 . S
N361 H367 0.985 . S
C362 C356 1.379 . S
C362 C359 1.363 . S
C362 N360 1.356 . S
C363 C357 1.363 . S
C363 C358 1.379 . S
C363 N361 1.356 . S
N364 C356 1.356 . S
N364 H370 0.984 . S
N364 H371 0.984 . S
N365 C358 1.356 . S
N365 H368 0.984 . S
N365 H369 0.985 . S
H366 N361 0.984 . S
H367 N361 0.985 . S
H368 N365 0.984 . S
H369 N365 0.985 . S
H370 N364 0.984 . S
H371 N364 0.984 . S
H372 N360 0.984 . S
H373 N360 0.985 . S
C374 C375 1.363 . S
C374 C380 1.379 . S
C374 N382 1.356 . S
C375 C374 1.363 . S
C375 C381 1.363 . S
C376 C377 1.363 . S
C376 C381 1.379 . S
C376 N383 1.356 . S
C377 C376 1.363 . S
C377 C380 1.363 . S
N378 C380 1.356 . S
N378 H390 0.984 . S
N378 H391 0.985 . S
N379 C381 1.356 1_545 S
N379 H384 0.984 . S
N379 H385 0.985 . S
C380 C374 1.379 . S
C380 C377 1.363 . S
C380 N378 1.356 . S
C381 C375 1.363 . S
C381 C376 1.379 . S
C381 N379 1.356 1_565 S
N382 C374 1.356 . S
N382 H388 0.984 . S
N382 H389 0.984 . S
N383 C376 1.356 . S
N383 H386 0.984 . S
N383 H387 0.985 1_565 S
H384 N379 0.984 . S
H385 N379 0.985 . S
H386 N383 0.984 . S
H387 N383 0.985 1_545 S
H388 N382 0.984 . S
H389 N382 0.984 . S
H390 N378 0.984 . S
H391 N378 0.985 . S
C392 C393 1.363 . S
C392 C398 1.379 . S
C392 N400 1.356 . S
C393 C392 1.363 . S
C393 C399 1.363 . S
C394 C395 1.363 . S
C394 C399 1.379 . S
C394 N401 1.356 . S
C395 C394 1.363 . S
C395 C398 1.363 . S
N396 C398 1.356 . S
N396 H408 0.984 . S
N396 H409 0.985 . S
N397 C399 1.356 1_545 S
N397 H402 0.984 . S
N397 H403 0.985 . S
C398 C392 1.379 . S
C398 C395 1.363 . S
C398 N396 1.356 . S
C399 C393 1.363 . S
C399 C394 1.379 . S
C399 N397 1.356 1_565 S
N400 C392 1.356 . S
N400 H406 0.984 . S
N400 H407 0.984 . S
N401 C394 1.356 . S
N401 H404 0.984 . S
N401 H405 0.985 1_565 S
H402 N397 0.984 . S
H403 N397 0.985 . S
H404 N401 0.984 . S
H405 N401 0.985 1_545 S
H406 N400 0.984 . S
H407 N400 0.984 . S
H408 N396 0.984 . S
H409 N396 0.985 . S
C410 C411 1.363 . S
C410 C416 1.379 . S
C410 N418 1.356 . S
C411 C410 1.363 . S
C411 C417 1.363 . S
C412 C413 1.363 . S
C412 C417 1.379 . S
C412 N419 1.357 . S
C413 C412 1.363 . S
C413 C416 1.363 . S
N414 C416 1.356 . S
N414 H426 0.984 . S
N414 H427 0.985 . S
N415 C417 1.356 1_655 S
N415 H420 0.984 . S
N415 H421 0.985 . S
C416 C410 1.379 . S
C416 C413 1.363 . S
C416 N414 1.356 . S
C417 C411 1.363 . S
C417 C412 1.379 . S
C417 N415 1.356 1_455 S
N418 C410 1.356 . S
N418 H424 0.984 . S
N418 H425 0.984 . S
N419 C412 1.357 . S
N419 H422 0.985 . S
N419 H423 0.984 1_455 S
H420 N415 0.984 . S
H421 N415 0.985 . S
H422 N419 0.985 . S
H423 N419 0.984 1_655 S
H424 N418 0.984 . S
H425 N418 0.984 . S
H426 N414 0.984 . S
H427 N414 0.985 . S
C428 C429 1.363 . S
C428 C434 1.379 . S
C428 N436 1.356 . S
C429 C428 1.363 . S
C429 C435 1.363 . S
C430 C431 1.363 . S
C430 C435 1.379 . S
C430 N437 1.356 . S
C431 C430 1.363 . S
C431 C434 1.363 . S
N432 C434 1.356 . S
N432 H444 0.984 . S
N432 H445 0.985 . S
N433 C435 1.356 . S
N433 H438 0.984 . S
N433 H439 0.985 1_545 S
C434 C428 1.379 . S
C434 C431 1.363 . S
C434 N432 1.356 . S
C435 C429 1.363 . S
C435 C430 1.379 . S
C435 N433 1.356 . S
N436 C428 1.356 . S
N436 H442 0.984 . S
N436 H443 0.984 . S
N437 C430 1.356 . S
N437 H440 0.984 . S
N437 H441 0.985 1_545 S
H438 N433 0.984 . S
H439 N433 0.985 1_565 S
H440 N437 0.984 . S
H441 N437 0.985 1_565 S
H442 N436 0.984 . S
H443 N436 0.984 . S
H444 N432 0.984 . S
H445 N432 0.985 . S
C446 C447 1.363 . S
C446 C452 1.379 . S
C446 N454 1.356 . S
C447 C446 1.363 . S
C447 C453 1.363 . S
C448 C449 1.363 . S
C448 C453 1.379 . S
C448 N455 1.356 . S
C449 C448 1.363 . S
C449 C452 1.363 . S
N450 C452 1.356 . S
N450 H462 0.984 . S
N450 H463 0.985 . S
N451 C453 1.356 . S
N451 H456 0.984 . S
N451 H457 0.985 . S
C452 C446 1.379 . S
C452 C449 1.363 . S
C452 N450 1.356 . S
C453 C447 1.363 . S
C453 C448 1.379 . S
C453 N451 1.356 . S
N454 C446 1.356 . S
N454 H460 0.984 . S
N454 H461 0.984 . S
N455 C448 1.356 . S
N455 H458 0.984 . S
N455 H459 0.985 . S
H456 N451 0.984 . S
H457 N451 0.985 . S
H458 N455 0.984 . S
H459 N455 0.985 . S
H460 N454 0.984 . S
H461 N454 0.984 . S
H462 N450 0.984 . S
H463 N450 0.985 . S
C464 C465 1.363 . S
C464 C470 1.379 . S
C464 N472 1.356 . S
C465 C464 1.363 . S
C465 C471 1.363 . S
C466 C467 1.363 . S
C466 C471 1.379 . S
C466 N473 1.356 . S
C467 C466 1.363 . S
C467 C470 1.363 . S
N468 C470 1.356 . S
N468 H480 0.984 . S
N468 H481 0.985 . S
N469 C471 1.356 . S
N469 H474 0.984 . S
N469 H475 0.985 . S
C470 C464 1.379 . S
C470 C467 1.363 . S
C470 N468 1.356 . S
C471 C465 1.363 . S
C471 C466 1.379 . S
C471 N469 1.356 . S
N472 C464 1.356 . S
N472 H478 0.984 . S
N472 H479 0.984 . S
N473 C466 1.356 . S
N473 H476 0.984 . S
N473 H477 0.985 . S
H474 N469 0.984 . S
H475 N469 0.985 . S
H476 N473 0.984 . S
H477 N473 0.985 . S
H478 N472 0.984 . S
H479 N472 0.984 . S
H480 N468 0.984 . S
H481 N468 0.985 . S
C482 C483 1.363 . S
C482 C488 1.379 . S
C482 N490 1.356 . S
C483 C482 1.363 . S
C483 C489 1.363 . S
C484 C485 1.363 . S
C484 C489 1.379 . S
C484 N491 1.356 . S
C485 C484 1.363 . S
C485 C488 1.363 . S
N486 C488 1.356 . S
N486 H498 0.984 . S
N486 H499 0.985 . S
N487 C489 1.356 . S
N487 H492 0.984 . S
N487 H493 0.985 . S
C488 C482 1.379 . S
C488 C485 1.363 . S
C488 N486 1.356 . S
C489 C483 1.363 . S
C489 C484 1.379 . S
C489 N487 1.356 . S
N490 C482 1.356 . S
N490 H496 0.984 . S
N490 H497 0.984 . S
N491 C484 1.356 . S
N491 H494 0.984 . S
N491 H495 0.985 . S
H492 N487 0.984 . S
H493 N487 0.985 . S
H494 N491 0.984 . S
H495 N491 0.985 . S
H496 N490 0.984 . S
H497 N490 0.984 . S
H498 N486 0.984 . S
H499 N486 0.985 . S
C500 C501 1.363 . S
C500 C506 1.379 . S
C500 N508 1.356 . S
C501 C500 1.363 . S
C501 C507 1.363 . S
C502 C503 1.363 . S
C502 C507 1.379 . S
C502 N509 1.356 . S
C503 C502 1.363 . S
C503 C506 1.363 . S
N504 C506 1.356 . S
N504 H516 0.984 . S
N504 H517 0.985 . S
N505 C507 1.356 . S
N505 H510 0.984 . S
N505 H511 0.985 . S
C506 C500 1.379 . S
C506 C503 1.363 . S
C506 N504 1.356 . S
C507 C501 1.363 . S
C507 C502 1.379 . S
C507 N505 1.356 . S
N508 C500 1.356 . S
N508 H514 0.984 . S
N508 H515 0.984 . S
N509 C502 1.356 . S
N509 H512 0.984 . S
N509 H513 0.985 . S
H510 N505 0.984 . S
H511 N505 0.985 . S
H512 N509 0.984 . S
H513 N509 0.985 . S
H514 N508 0.984 . S
H515 N508 0.984 . S
H516 N504 0.984 . S
H517 N504 0.985 . S
C518 C519 1.363 . S
C518 C524 1.379 . S
C518 N526 1.356 . S
C519 C518 1.363 . S
C519 C525 1.363 . S
C520 C521 1.363 . S
C520 C525 1.379 . S
C520 N527 1.356 . S
C521 C520 1.363 . S
C521 C524 1.363 . S
N522 C524 1.356 . S
N522 H534 0.984 . S
N522 H535 0.985 . S
N523 C525 1.356 . S
N523 H528 0.984 . S
N523 H529 0.985 . S
C524 C518 1.379 . S
C524 C521 1.363 . S
C524 N522 1.356 . S
C525 C519 1.363 . S
C525 C520 1.379 . S
C525 N523 1.356 . S
N526 C518 1.356 . S
N526 H532 0.984 . S
N526 H533 0.984 . S
N527 C520 1.356 . S
N527 H530 0.984 . S
N527 H531 0.985 . S
H528 N523 0.984 . S
H529 N523 0.985 . S
H530 N527 0.984 . S
H531 N527 0.985 . S
H532 N526 0.984 . S
H533 N526 0.984 . S
H534 N522 0.984 . S
H535 N522 0.985 . S
C536 C537 1.363 . S
C536 C542 1.379 . S
C536 N544 1.356 . S
C537 C536 1.363 . S
C537 C543 1.363 . S
C538 C539 1.363 . S
C538 C543 1.379 . S
C538 N545 1.356 . S
C539 C538 1.363 . S
C539 C542 1.363 . S
N540 C542 1.356 . S
N540 H552 0.984 . S
N540 H553 0.985 . S
N541 C543 1.356 . S
N541 H546 0.984 . S
N541 H547 0.985 . S
C542 C536 1.379 . S
C542 C539 1.363 . S
C542 N540 1.356 . S
C543 C537 1.363 . S
C543 C538 1.379 . S
C543 N541 1.356 . S
N544 C536 1.356 . S
N544 H550 0.984 . S
N544 H551 0.984 . S
N545 C538 1.356 . S
N545 H548 0.984 . S
N545 H549 0.985 . S
H546 N541 0.984 . S
H547 N541 0.985 . S
H548 N545 0.984 . S
H549 N545 0.985 . S
H550 N544 0.984 . S
H551 N544 0.984 . S
H552 N540 0.984 . S
H553 N540 0.985 . S
C554 C555 1.363 . S
C554 C560 1.379 . S
C554 N562 1.356 . S
C555 C554 1.363 . S
C555 C561 1.363 . S
C556 C557 1.363 . S
C556 C561 1.379 . S
C556 N563 1.356 . S
C557 C556 1.363 . S
C557 C560 1.363 . S
N558 C560 1.356 . S
N558 H570 0.984 . S
N558 H571 0.985 . S
N559 C561 1.356 . S
N559 H564 0.984 . S
N559 H565 0.985 . S
C560 C554 1.379 . S
C560 C557 1.363 . S
C560 N558 1.356 . S
C561 C555 1.363 . S
C561 C556 1.379 . S
C561 N559 1.356 . S
N562 C554 1.356 . S
N562 H568 0.984 . S
N562 H569 0.984 . S
N563 C556 1.356 . S
N563 H566 0.984 . S
N563 H567 0.985 . S
H564 N559 0.984 . S
H565 N559 0.985 . S
H566 N563 0.984 . S
H567 N563 0.985 . S
H568 N562 0.984 . S
H569 N562 0.984 . S
H570 N558 0.984 . S
H571 N558 0.985 . S
C572 C573 1.363 . S
C572 C578 1.379 . S
C572 N580 1.356 . S
C573 C572 1.363 . S
C573 C579 1.363 . S
C574 C575 1.363 . S
C574 C579 1.379 . S
C574 N581 1.356 . S
C575 C574 1.363 . S
C575 C578 1.363 . S
N576 C578 1.356 . S
N576 H588 0.984 . S
N576 H589 0.985 . S
N577 C579 1.356 . S
N577 H582 0.984 . S
N577 H583 0.985 . S
C578 C572 1.379 . S
C578 C575 1.363 . S
C578 N576 1.356 . S
C579 C573 1.363 . S
C579 C574 1.379 . S
C579 N577 1.356 . S
N580 C572 1.356 . S
N580 H586 0.984 . S
N580 H587 0.984 . S
N581 C574 1.356 . S
N581 H584 0.984 . S
N581 H585 0.985 . S
H582 N577 0.984 . S
H583 N577 0.985 . S
H584 N581 0.984 . S
H585 N581 0.985 . S
H586 N580 0.984 . S
H587 N580 0.984 . S
H588 N576 0.984 . S
H589 N576 0.985 . S
C590 C591 1.363 . S
C590 C596 1.379 . S
C590 N598 1.356 . S
C591 C590 1.363 . S
C591 C597 1.363 . S
C592 C593 1.363 . S
C592 C597 1.379 . S
C592 N599 1.356 . S
C593 C592 1.363 . S
C593 C596 1.363 . S
N594 C596 1.356 . S
N594 H606 0.984 . S
N594 H607 0.985 . S
N595 C597 1.356 . S
N595 H600 0.984 . S
N595 H601 0.985 . S
C596 C590 1.379 . S
C596 C593 1.363 . S
C596 N594 1.356 . S
C597 C591 1.363 . S
C597 C592 1.379 . S
C597 N595 1.356 . S
N598 C590 1.356 . S
N598 H604 0.984 . S
N598 H605 0.984 . S
N599 C592 1.356 . S
N599 H602 0.984 . S
N599 H603 0.985 . S
H600 N595 0.984 . S
H601 N595 0.985 . S
H602 N599 0.984 . S
H603 N599 0.985 . S
H604 N598 0.984 . S
H605 N598 0.984 . S
H606 N594 0.984 . S
H607 N594 0.985 . S
C177 C45 1.533 . S
C179 C111 1.545 . S
C195 C30 1.533 . S
C197 C120 1.545 . S
C213 C39 1.533 . S
C215 C129 1.541 . S
C233 C138 1.545 . S
C231 C34 1.533 . S
C249 C97 1.533 . S
C251 C147 1.546 . S
C269 C156 1.545 . S
C267 C82 1.533 . S
C287 C165 1.541 . S
C285 C91 1.533 . S
C305 C174 1.545 . S
C303 C86 1.533 . S
C323 C163 1.477 . S
C321 C26 1.438 . S
C341 C171 1.479 . S
C339 C36 1.436 . S
C359 C144 1.481 . S
C357 C32 1.438 . S
C377 C153 1.479 . S
C375 C42 1.437 . S
C393 C18 1.482 . S
C395 C154 1.546 . S
C413 C162 1.539 . S
C411 C50 1.480 . S
C429 C4 1.482 . S
C431 C172 1.545 . S
C447 C48 1.481 . S
C449 C145 1.545 . S
C467 C127 1.477 . S
C465 C78 1.438 . S
C483 C88 1.436 . S
C485 C135 1.479 . S
C503 C108 1.481 . S
C501 C84 1.438 . S
C521 C117 1.479 . S
C519 C94 1.436 . S
C539 C118 1.545 . S
C537 C70 1.482 . S
C557 C126 1.539 . S
C555 C102 1.481 . S
C573 C56 1.482 . S
C575 C136 1.545 . S
C591 C100 1.481 . S
C593 C109 1.544 . S
