# Generated by pormake.
# Topology pth, (4,4)-cn, num edge types: 1
# Building blocks:
#     Node 0, Type 0, BuildingBlock: UXUYUI_clean_sbu_0, # of connection points: 4
#     Node 1, Type 0, BuildingBlock: UXUYUI_clean_sbu_0, # of connection points: 4
#     Node 2, Type 0, BuildingBlock: UXUYUI_clean_sbu_0, # of connection points: 4
#     Node 3, Type 1, BuildingBlock: NAWXER_clean_linker_0, # of connection points: 4
#     Node 4, Type 1, BuildingBlock: NAWXER_clean_linker_0, # of connection points: 4
#     Node 5, Type 1, BuildingBlock: NAWXER_clean_linker_0, # of connection points: 4
#     Edge 6, Type (0, 1), BuildingBlock: EZIPEK_clean_linker_0, # of connection points: 2
#     Edge 7, Type (0, 1), BuildingBlock: EZIPEK_clean_linker_0, # of connection points: 2
#     Edge 8, Type (0, 1), BuildingBlock: EZIPEK_clean_linker_0, # of connection points: 2
#     Edge 9, Type (0, 1), BuildingBlock: EZIPEK_clean_linker_0, # of connection points: 2
#     Edge 10, Type (0, 1), BuildingBlock: EZIPEK_clean_linker_0, # of connection points: 2
#     Edge 11, Type (0, 1), BuildingBlock: EZIPEK_clean_linker_0, # of connection points: 2
#     Edge 12, Type (0, 1), BuildingBlock: EZIPEK_clean_linker_0, # of connection points: 2
#     Edge 13, Type (0, 1), BuildingBlock: EZIPEK_clean_linker_0, # of connection points: 2
#     Edge 14, Type (0, 1), BuildingBlock: EZIPEK_clean_linker_0, # of connection points: 2
#     Edge 15, Type (0, 1), BuildingBlock: EZIPEK_clean_linker_0, # of connection points: 2
#     Edge 16, Type (0, 1), BuildingBlock: EZIPEK_clean_linker_0, # of connection points: 2
#     Edge 17, Type (0, 1), BuildingBlock: EZIPEK_clean_linker_0, # of connection points: 2
# Relax obj value: 0.074
# Max RMSD: 0.209
# Mean RMSD: 0.112
data_MOF--net-pth--node1-UXUYUI_clean_sbu_0--node2-NAWXER_clean_linker_0--edge1-EZIPEK_clean_linker_0
_symmetry_space_group_name_H-M    P1
_symmetry_Int_Tables_number       1
_symmetry_cell_setting            triclinic
loop_
_symmetry_equiv_pos_as_xyz
'x, y, z'
_cell_length_a     28.023276
_cell_length_b     28.028195
_cell_length_c     63.232609
_cell_angle_alpha  90.017281
_cell_angle_beta   90.007954
_cell_angle_gamma 120.02259
loop_
_atom_site_label
_atom_site_type_symbol
_atom_site_fract_x
_atom_site_fract_y
_atom_site_fract_z
_atom_type_partial_charge
Li0 Li 0.04604 0.03419 0.04191 0.0
Li1 Li 0.98608 0.03211 0.0696 0.0
Li2 Li 0.01116 0.96068 0.06888 0.0
Li3 Li 0.94781 0.96156 0.04238 0.0
C4 C 0.11362 0.05439 0.07751 0.0
N5 N 0.2206 0.08082 0.08641 0.0
C6 C 0.14652 0.09907 0.09065 0.0
C7 C 0.13501 0.02298 0.06898 0.0
C8 C 0.20056 0.11184 0.09493 0.0
C9 C 0.1892 0.03703 0.07365 0.0
C10 C 0.99674 0.09653 0.03434 0.0
C11 C 0.98937 0.16536 0.01402 0.0
N12 N 0.03268 0.20561 0.02493 0.0
C13 C 0.04122 0.13859 0.04534 0.0
C14 C 0.97061 0.10996 0.01854 0.0
C15 C 0.05874 0.19347 0.04036 0.0
C16 C 0.08958 0.07334 1.00191 0.0
N17 N 0.10311 0.08091 0.02278 0.0
C18 C 0.18951 0.16109 0.01497 0.0
C19 C 0.15204 0.12363 0.02952 0.0
C20 C 0.17596 0.15489 0.99342 0.0
C21 C 0.12563 0.11016 0.98683 0.0
H22 H 0.04988 0.03968 0.99708 0.0
H23 H 0.16127 0.13008 0.04618 0.0
C24 C 0.00087 0.08835 0.10734 0.0
N25 N 0.97396 0.07764 0.08852 0.0
C26 C 0.99941 0.12583 0.12147 0.0
C27 C 0.94117 0.13942 0.09683 0.0
C28 C 0.94364 0.10149 0.08317 0.0
C29 C 0.97001 0.15233 0.11605 0.0
H30 H 0.02469 0.06877 0.11111 0.0
H31 H 0.92274 0.0923 0.06808 0.0
C32 C 0.02431 0.9211 0.02571 0.0
N33 N 0.04562 0.8537 1.00026 0.0
C34 C 0.98275 0.86712 0.02146 0.0
C35 C 0.07665 0.94088 0.0169 0.0
C36 C 0.99434 0.83368 0.00858 0.0
C37 C 0.08663 0.90613 0.00413 0.0
C38 C 0.88563 0.94116 0.07938 0.0
C39 C 0.85992 0.9088 0.09715 0.0
C40 C 0.85884 0.96321 0.0677 0.0
C41 C 0.80764 0.89892 0.10295 0.0
C42 C 0.8066 0.9524 0.07402 0.0
N43 N 0.78229 0.92074 0.09137 0.0
C44 C 0.04375 0.92949 0.10604 0.0
C45 C 0.00603 0.86014 0.07961 0.0
C46 C 0.04644 0.89281 0.12027 0.0
N47 N 0.02346 0.9125 0.08621 0.0
C48 C 0.00797 0.82211 0.09332 0.0
C49 C 0.02756 0.83829 0.11397 0.0
H50 H 0.05606 0.971 0.11102 0.0
H51 H 0.98869 0.84728 0.06401 0.0
C52 C 0.88953 0.9266 0.00396 0.0
N53 N 0.88828 0.91331 0.02471 0.0
C54 C 0.85091 0.88839 0.98985 0.0
C55 C 0.80989 0.8242 0.01886 0.0
C56 C 0.8492 0.8636 0.0324 0.0
C57 C 0.81121 0.83629 0.99729 0.0
H58 H 0.92175 0.9661 0.99827 0.0
H59 H 0.85007 0.85363 0.04886 0.0
O60 O 0.06074 0.0417 0.07317 0.0
O61 O 0.97923 0.04239 0.03865 0.0
O62 O 0.01351 0.955 0.03788 0.0
O63 O 0.93693 0.95132 0.07362 0.0
H64 H 0.13052 0.12378 0.09737 0.0
H65 H 0.10999 0.98796 0.05899 0.0
H66 H 0.22655 0.14642 0.10502 0.0
H67 H 0.20628 0.01306 0.06716 0.0
H68 H 0.96954 0.17635 1.00182 0.0
H69 H 0.06212 0.12911 0.05758 0.0
H70 H 0.93626 0.07785 0.00984 0.0
H71 H 0.09311 0.2264 0.04874 0.0
H72 H 0.22788 0.1956 0.02051 0.0
H73 H 0.11391 0.10462 0.9703 0.0
H74 H 0.02211 0.13518 0.13619 0.0
H75 H 0.91824 0.15947 0.09228 0.0
H76 H 0.94209 0.85099 0.02816 0.0
H77 H 0.10925 0.98268 0.01985 0.0
H78 H 0.96256 0.79179 0.00521 0.0
H79 H 0.12697 0.9209 0.99725 0.0
H80 H 0.88022 0.89152 0.10636 0.0
H81 H 0.87806 0.98837 0.05391 0.0
H82 H 0.78723 0.87392 0.11667 0.0
H83 H 0.78539 0.96918 0.06514 0.0
H84 H 0.06142 0.90621 0.1362 0.0
H85 H 0.99273 0.7801 0.08813 0.0
H86 H 0.85294 0.89864 0.97323 0.0
H87 H 0.77987 0.78414 0.02498 0.0
Li88 Li 0.99093 0.95064 0.37564 0.0
Li89 Li 0.05265 0.01387 0.40261 0.0
Li90 Li 0.95417 0.98772 0.40211 0.0
Li91 Li 0.01635 0.04853 0.37502 0.0
C92 C 0.95684 0.88649 0.4127 0.0
N93 N 0.89597 0.77711 0.42443 0.0
C94 C 0.98295 0.86008 0.42174 0.0
C95 C 0.89975 0.85756 0.40988 0.0
C96 C 0.95147 0.80466 0.42749 0.0
C97 C 0.8697 0.80221 0.41584 0.0
C98 C 0.11755 0.05773 0.36662 0.0
C99 C 0.19499 0.14864 0.37273 0.0
N100 N 0.22231 0.14117 0.35645 0.0
C101 C 0.14637 0.05094 0.34996 0.0
C102 C 0.14199 0.10694 0.37813 0.0
C103 C 0.19931 0.09361 0.34507 0.0
C104 C 0.95882 0.88649 0.33836 0.0
N105 N 0.98028 0.89115 0.35806 0.0
C106 C 0.9993 0.8186 0.35083 0.0
C107 C 1.00045 0.85835 0.36447 0.0
C108 C 0.97789 0.81338 0.3304 0.0
C109 C 0.95688 0.84729 0.3242 0.0
H110 H 0.94483 0.91439 0.33343 0.0
H111 H 0.0193 0.86442 0.37987 0.0
C112 C 0.11601 0.04766 0.4401 0.0
N113 N 0.11158 0.02565 0.42054 0.0
C114 C 0.15513 0.04997 0.45441 0.0
C115 C 0.18484 0.00792 0.42797 0.0
C116 C 0.14515 0.00634 0.4142 0.0
C117 C 0.1894 0.02917 0.4484 0.0
H118 H 0.08799 0.06174 0.44479 0.0
H119 H 0.13988 0.98818 0.39866 0.0
C120 C 0.8915 0.96252 0.36303 0.0
N121 N 0.78654 0.92164 0.34682 0.0
C122 C 0.87366 0.99859 0.35634 0.0
C123 C 0.85615 0.90566 0.36118 0.0
C124 C 0.82039 0.97711 0.34828 0.0
C125 C 0.8032 0.88581 0.35303 0.0
C126 C 0.00765 0.1021 0.4113 0.0
C127 C 0.96038 0.0999 0.40302 0.0
C128 C 0.04156 0.14475 0.42506 0.0
C129 C 0.94769 0.14045 0.40866 0.0
C130 C 0.02754 0.18463 0.4303 0.0
N131 N 0.98127 0.18165 0.42207 0.0
C132 C 0.91192 0.99166 0.44121 0.0
C133 C 0.84349 0.96018 0.41444 0.0
C134 C 0.87523 0.99236 0.45596 0.0
N135 N 0.89585 0.97657 0.42083 0.0
C136 C 0.8054 0.96013 0.42869 0.0
C137 C 0.82161 0.97719 0.44959 0.0
H138 H 0.95395 0.005 0.44578 0.0
H139 H 0.83145 0.94859 0.39823 0.0
C140 C 0.00778 0.09043 0.33642 0.0
N141 N 0.02907 0.10648 0.35617 0.0
C142 C 0.00902 0.12883 0.32208 0.0
C143 C 0.05638 0.20011 0.34834 0.0
C144 C 0.05426 0.16027 0.3622 0.0
C145 C 0.03264 0.18408 0.3282 0.0
H146 H 0.98817 0.04736 0.33208 0.0
H147 H 0.07139 0.17205 0.37791 0.0
O148 O 0.98717 0.94067 0.40696 0.0
O149 O 0.06564 0.01625 0.3715 0.0
O150 O 0.94367 0.98284 0.37087 0.0
O151 O 0.0208 0.06268 0.40612 0.0
H152 H 0.02714 0.88213 0.42416 0.0
H153 H 0.87882 0.87765 0.40328 0.0
H154 H 0.97115 0.78358 0.43439 0.0
H155 H 0.82548 0.77926 0.41369 0.0
H156 H 0.21439 0.18693 0.38149 0.0
H157 H 0.12796 0.01305 0.34091 0.0
H158 H 0.12045 0.11301 0.39109 0.0
H159 H 0.22211 0.08893 0.33221 0.0
H160 H 0.01639 0.79334 0.35592 0.0
H161 H 0.94064 0.84443 0.30841 0.0
H162 H 0.15769 0.06634 0.47015 0.0
H163 H 0.21063 0.99134 0.42299 0.0
H164 H 0.90059 0.04274 0.35733 0.0
H165 H 0.86946 0.87708 0.36591 0.0
H166 H 0.80601 0.00456 0.34315 0.0
H167 H 0.77538 0.84191 0.35158 0.0
H168 H 0.93366 0.06708 0.39244 0.0
H169 H 0.07837 0.14704 0.43159 0.0
H170 H 0.91111 0.13913 0.4024 0.0
H171 H 0.05343 0.21793 0.44092 0.0
H172 H 0.88885 0.00591 0.472 0.0
H173 H 0.7642 0.9483 0.42337 0.0
H174 H 0.9904 0.1154 0.30661 0.0
H175 H 0.07498 0.24263 0.35342 0.0
Li176 Li 0.04058 0.98356 0.71125 0.0
Li177 Li 0.03941 0.04819 0.73709 0.0
Li178 Li 0.96886 0.94877 0.73773 0.0
Li179 Li 0.96398 0.00668 0.71023 0.0
C180 C 0.08934 0.97096 0.74617 0.0
N181 N 0.17145 0.94533 0.75262 0.0
C182 C 0.13956 0.00982 0.75513 0.0
C183 C 0.08065 0.91891 0.74069 0.0
C184 C 0.18061 0.9961 0.75822 0.0
C185 C 0.12275 0.90679 0.744 0.0
C186 C 0.07423 0.10423 0.69556 0.0
C187 C 0.08021 0.18391 0.67833 0.0
N188 N 0.1342 0.20251 0.67393 0.0
C189 C 0.1296 0.12388 0.69061 0.0
C190 C 0.04915 0.13424 0.68914 0.0
C191 C 0.15929 0.17374 0.67979 0.0
C192 C 0.06863 0.94078 0.67583 0.0
N193 N 0.08917 0.97234 0.69349 0.0
C194 C 0.18119 0.99798 0.68347 0.0
C195 C 0.14422 1.00038 0.69758 0.0
C196 C 0.16122 0.96695 0.66491 0.0
C197 C 0.10427 0.93749 0.66117 0.0
H198 H 0.02476 0.91964 0.6728 0.0
H199 H 0.15972 0.02642 0.71139 0.0
C200 C 0.06772 0.11784 0.77294 0.0
N201 N 0.08566 0.11132 0.75383 0.0
C202 C 0.10131 0.16347 0.78556 0.0
C203 C 0.17254 0.19273 0.75934 0.0
C204 C 0.13769 0.14661 0.74724 0.0
C205 C 0.1536 0.20491 0.77824 0.0
H206 H 0.02757 0.08693 0.77862 0.0
H207 H 0.15284 0.13807 0.73288 0.0
C208 C 0.91803 0.88109 0.70625 0.0
N209 N 0.83214 0.77346 0.70672 0.0
C210 C 0.86357 0.86985 0.70501 0.0
C211 C 0.92888 0.83764 0.70743 0.0
C212 C 0.8207 0.81514 0.70534 0.0
C213 C 0.88486 0.78349 0.70774 0.0
C214 C 0.94043 0.04933 0.74699 0.0
C215 C 0.89517 0.03242 0.76043 0.0
C216 C 0.96839 0.10352 0.73957 0.0
C217 C 0.87818 0.0699 0.76596 0.0
C218 C 0.95021 0.13979 0.74547 0.0
N219 N 0.9058 0.12235 0.75841 0.0
C220 C 0.93795 0.85902 0.76693 0.0
C221 C 0.86934 0.88124 0.7576 0.0
C222 C 0.9014 0.81811 0.7808 0.0
N223 N 0.92132 0.88962 0.75577 0.0
C224 C 0.83167 0.84107 0.77127 0.0
C225 C 0.84784 0.8094 0.78312 0.0
H226 H 0.97965 0.86688 0.76534 0.0
H227 H 0.85736 0.90624 0.74853 0.0
C228 C 0.92424 0.01376 0.67052 0.0
N229 N 0.91535 0.01523 0.6916 0.0
C230 C 0.88718 0.014 0.6558 0.0
C231 C 0.83307 0.01835 0.68475 0.0
C232 C 0.87087 0.01751 0.69891 0.0
C233 C 0.84081 0.0159 0.66295 0.0
H234 H 0.95949 0.01102 0.6652 0.0
H235 H 0.86361 0.01692 0.71568 0.0
O236 O 0.04892 0.98389 0.74284 0.0
O237 O 0.04413 0.05484 0.7058 0.0
O238 O 0.96048 0.93441 0.70651 0.0
O239 O 0.95749 0.01303 0.74144 0.0
H240 H 0.14683 0.05019 0.75958 0.0
H241 H 0.04202 0.88839 0.73378 0.0
H242 H 0.21977 0.02583 0.76506 0.0
H243 H 0.11672 0.86678 0.73971 0.0
H244 H 0.06131 0.20757 0.67336 0.0
H245 H 0.14972 0.10124 0.69526 0.0
H246 H 0.00608 0.11935 0.69235 0.0
H247 H 0.20228 0.18955 0.67603 0.0
H248 H 0.22504 0.02149 0.68664 0.0
H249 H 0.08785 0.91344 0.64687 0.0
H250 H 0.08605 0.16398 0.80114 0.0
H251 H 0.21451 0.21704 0.75392 0.0
H252 H 0.85446 0.90301 0.70409 0.0
H253 H 0.97081 0.84564 0.70814 0.0
H254 H 0.77833 0.80583 0.70457 0.0
H255 H 0.89261 0.74943 0.70877 0.0
H256 H 0.87334 0.9908 0.76653 0.0
H257 H 0.00426 0.11767 0.72965 0.0
H258 H 0.84309 0.0573 0.77628 0.0
H259 H 0.97157 0.18187 0.73983 0.0
H260 H 0.91488 0.79419 0.78985 0.0
H261 H 0.79053 0.83512 0.77278 0.0
H262 H 0.89397 0.0117 0.63906 0.0
H263 H 0.79734 0.01935 0.69071 0.0
C264 C 0.97429 0.32149 0.25748 0.0
C265 C 0.01798 0.33904 0.2719 0.0
C266 C 0.97011 0.3598 0.24459 0.0
C267 C 0.00994 0.41606 0.24584 0.0
C268 C 0.0576 0.39511 0.27322 0.0
C269 C 0.05344 0.43336 0.26036 0.0
C270 C 0.00532 0.45778 0.23305 0.0
C271 C 0.02787 0.34895 0.186 0.0
C272 C 0.9836 0.3224 0.17185 0.0
C273 C 0.03228 0.39141 0.19897 0.0
C274 C 0.9922 0.40752 0.19803 0.0
C275 C 0.94369 0.3385 0.17084 0.0
C276 C 0.94815 0.38099 0.18375 0.0
C277 C 0.99706 0.4538 0.21092 0.0
C278 C 0.04835 0.68273 0.18857 0.0
C279 C 0.01202 0.6707 0.17155 0.0
C280 C 0.04372 0.64043 0.20164 0.0
C281 C 0.00225 0.58555 0.19801 0.0
C282 C 0.97072 0.61605 0.16783 0.0
C283 C 0.96607 0.57374 0.1809 0.0
C284 C 0.9991 0.54 0.21096 0.0
C285 C 0.95601 0.63646 0.25594 0.0
C286 C 0.99267 0.66065 0.27289 0.0
C287 C 0.96015 0.59863 0.24279 0.0
C288 C 0.00141 0.58487 0.24627 0.0
C289 C 0.03377 0.64698 0.27646 0.0
C290 C 0.0379 0.6091 0.26332 0.0
C291 C 0.00408 0.54235 0.23322 0.0
H292 H 0.94313 0.27833 0.25643 0.0
H293 H 0.93535 0.3456 0.23394 0.0
H294 H 0.09136 0.40926 0.28437 0.0
H295 H 0.08429 0.47658 0.26173 0.0
H296 H 0.05923 0.33719 0.1868 0.0
H297 H 0.06737 0.41219 0.20946 0.0
H298 H 0.90948 0.31856 0.1599 0.0
H299 H 0.9171 0.39312 0.18262 0.0
H300 H 0.08065 0.72472 0.19154 0.0
H301 H 0.0733 0.65053 0.2143 0.0
H302 H 0.94248 0.60619 0.15469 0.0
H303 H 0.93424 0.53172 0.17763 0.0
H304 H 0.92384 0.6464 0.25309 0.0
H305 H 0.93039 0.5793 0.23017 0.0
H306 H 0.06225 0.66525 0.28954 0.0
H307 H 0.06959 0.59866 0.26647 0.0
N308 N 0.00806 0.50169 0.24333 0.0
N309 N 0.99471 0.4953 0.20075 0.0
C310 C 0.68272 0.03303 0.52147 0.0
C311 C 0.66672 0.99213 0.50589 0.0
C312 C 0.643 0.03518 0.5342 0.0
C313 C 0.58687 0.99591 0.53171 0.0
C314 C 0.61072 0.95345 0.50319 0.0
C315 C 0.5711 0.95549 0.51593 0.0
C316 C 0.54385 0.99756 0.54475 0.0
C317 C 0.65096 0.96697 0.58963 0.0
C318 C 0.67394 0.00588 0.60599 0.0
C319 C 0.60913 0.96496 0.57692 0.0
C320 C 0.59064 0.00275 0.58006 0.0
C321 C 0.65487 0.04294 0.60939 0.0
C322 C 0.61353 0.04133 0.59656 0.0
C323 C 0.54574 0.00105 0.56709 0.0
C324 C 0.31592 0.94825 0.58892 0.0
C325 C 0.32718 0.98313 0.60638 0.0
C326 C 0.35883 0.95403 0.5759 0.0
C327 C 0.41356 0.99508 0.5801 0.0
C328 C 0.38166 0.02404 0.61064 0.0
C329 C 0.42459 0.02973 0.59768 0.0
C330 C 0.45971 0.99955 0.56716 0.0
C331 C 0.36476 0.04775 0.5233 0.0
C332 C 0.34155 0.01299 0.50578 0.0
C333 C 0.40236 0.04258 0.53626 0.0
C334 C 0.41686 0.00221 0.53196 0.0
C335 C 0.35601 0.9728 0.5014 0.0
C336 C 0.39367 0.96768 0.51432 0.0
C337 C 0.459 0.99835 0.54483 0.0
H338 H 0.72582 0.06343 0.52362 0.0
H339 H 0.65608 0.06766 0.54587 0.0
H340 H 0.59775 0.92182 0.49116 0.0
H341 H 0.52804 0.92516 0.51359 0.0
H342 H 0.6649 0.93773 0.58692 0.0
H343 H 0.59092 0.93353 0.56481 0.0
H344 H 0.67193 0.073 0.62203 0.0
H345 H 0.59952 0.07044 0.59946 0.0
H346 H 0.27406 0.91626 0.58553 0.0
H347 H 0.34934 0.92571 0.56283 0.0
H348 H 0.39093 0.05113 0.62413 0.0
H349 H 0.46647 0.06122 0.60136 0.0
H350 H 0.3542 0.07919 0.52679 0.0
H351 H 0.42088 0.07085 0.54937 0.0
H352 H 0.3385 0.94579 0.48786 0.0
H353 H 0.40468 0.93671 0.51055 0.0
N354 N 0.50064 0.99652 0.53454 0.0
N355 N 0.50345 0.00173 0.57737 0.0
C356 C 0.34225 0.33149 0.8489 0.0
C357 C 0.31927 0.35499 0.83568 0.0
C358 C 0.38555 0.36491 0.86263 0.0
C359 C 0.40609 0.42208 0.86324 0.0
C360 C 0.33958 0.41192 0.83644 0.0
C361 C 0.38288 0.44521 0.84998 0.0
C362 C 0.4536 0.45918 0.87662 0.0
C363 C 0.31529 0.34979 0.92117 0.0
C364 C 0.33036 0.32327 0.9364 0.0
C365 C 0.35564 0.39223 0.90881 0.0
C366 C 0.41152 0.4078 0.91114 0.0
C367 C 0.3861 0.33926 0.93894 0.0
C368 C 0.42628 0.38117 0.92644 0.0
C369 C 0.45555 0.45362 0.89877 0.0
C370 C 0.63933 0.67838 0.92259 0.0
C371 C 0.66046 0.66509 0.9403 0.0
C372 C 0.60169 0.6368 0.90926 0.0
C373 C 0.58518 0.58125 0.91324 0.0
C374 C 0.64388 0.60976 0.94445 0.0
C375 C 0.60628 0.56811 0.93107 0.0
C376 C 0.54294 0.53675 0.89981 0.0
C377 C 0.68851 0.62964 0.85694 0.0
C378 C 0.67919 0.65453 0.83942 0.0
C379 C 0.64437 0.59281 0.86955 0.0
C380 C 0.59036 0.58092 0.86496 0.0
C381 C 0.62541 0.64242 0.83466 0.0
C382 C 0.5813 0.60574 0.84728 0.0
C383 C 0.54277 0.5398 0.87751 0.0
H384 H 0.32709 0.28758 0.8484 0.0
H385 H 0.40353 0.34637 0.87247 0.0
H386 H 0.32234 0.43066 0.8263 0.0
H387 H 0.39835 0.48922 0.85011 0.0
H388 H 0.27246 0.33824 0.91914 0.0
H389 H 0.34317 0.41336 0.89772 0.0
H390 H 0.39846 0.31943 0.95069 0.0
H391 H 0.46909 0.39282 0.92873 0.0
H392 H 0.65141 0.72088 0.91929 0.0
H393 H 0.58468 0.64806 0.89607 0.0
H394 H 0.65968 0.59887 0.95814 0.0
H395 H 0.59363 0.5256 0.93464 0.0
H396 H 0.72981 0.63831 0.86069 0.0
H397 H 0.65238 0.57291 0.88264 0.0
H398 H 0.61764 0.66124 0.82112 0.0
H399 H 0.54004 0.59677 0.84326 0.0
N400 N 0.49754 0.50165 0.86688 0.0
N401 N 0.49997 0.49305 0.9095 0.0
C402 C 0.93828 0.18089 0.1483 0.0
C403 C 0.97218 0.19585 0.13005 0.0
C404 C 0.0103 0.29375 0.13838 0.0
C405 C 0.9798 0.27871 0.15752 0.0
N406 N 0.92013 0.20891 0.1823 0.0
N407 N 0.04597 0.26541 0.10898 0.0
C408 C 0.94518 0.22247 0.16293 0.0
C409 C 0.00969 0.25203 0.1254 0.0
N410 N 0.89859 0.12708 0.15133 0.0
N411 N 0.0387 0.34786 0.13235 0.0
H412 H 0.04625 0.23612 0.09888 0.0
H413 H 0.07854 0.30509 0.10627 0.0
H414 H 0.04101 0.37973 0.14163 0.0
H415 H 0.05652 0.36092 0.11749 0.0
H416 H 0.86862 0.11415 0.16307 0.0
H417 H 0.89284 0.09554 0.14103 0.0
H418 H 0.89924 0.16887 0.18818 0.0
H419 H 0.92363 0.23832 0.19327 0.0
C420 C 0.75662 0.94167 0.48051 0.0
C421 C 0.7833 0.98192 0.46451 0.0
C422 C 0.73232 0.02799 0.4752 0.0
C423 C 0.70843 0.98992 0.49209 0.0
N424 N 0.7047 0.91667 0.51329 0.0
N425 N 0.80498 0.0691 0.44898 0.0
C426 C 0.72262 0.9485 0.49548 0.0
C427 C 0.77361 0.02681 0.46254 0.0
N428 N 0.76239 0.89604 0.48097 0.0
N429 N 0.71411 0.06396 0.47077 0.0
H430 H 0.83558 0.06969 0.4394 0.0
H431 H 0.80405 0.10576 0.44851 0.0
H432 H 0.68418 0.06638 0.47976 0.0
H433 H 0.72536 0.08834 0.45723 0.0
H434 H 0.73927 0.8623 0.49075 0.0
H435 H 0.78732 0.88988 0.47037 0.0
H436 H 0.71828 0.88974 0.51782 0.0
H437 H 0.67969 0.92054 0.52459 0.0
C438 C 0.80308 0.78582 0.81879 0.0
C439 C 0.80858 0.76824 0.79835 0.0
C440 C 0.73534 0.67412 0.80633 0.0
C441 C 0.72572 0.69313 0.8258 0.0
N442 N 0.74634 0.76734 0.85008 0.0
N443 N 0.77802 0.69759 0.77163 0.0
C444 C 0.75874 0.74903 0.83198 0.0
C445 C 0.77438 0.71278 0.79186 0.0
N446 N 0.84077 0.83751 0.82564 0.0
N447 N 0.70783 0.61895 0.80192 0.0
H448 H 0.80725 0.72439 0.7608 0.0
H449 H 0.75002 0.65962 0.76509 0.0
H450 H 0.67857 0.58958 0.81209 0.0
H451 H 0.71696 0.60169 0.78907 0.0
H452 H 0.84264 0.85098 0.84112 0.0
H453 H 0.87327 0.86581 0.81625 0.0
H454 H 0.7646 0.80874 0.85424 0.0
H455 H 0.71484 0.7414 0.86035 0.0
C456 C 0.98195 0.77393 0.14444 0.0
C457 C 0.02516 0.79712 0.12932 0.0
C458 C 0.05855 0.73586 0.14132 0.0
C459 C 0.01758 0.71532 0.15734 0.0
N460 N 0.94648 0.72094 0.17671 0.0
N461 N 0.10985 0.8074 0.11541 0.0
C462 C 0.98107 0.73621 0.15966 0.0
C463 C 0.06507 0.78018 0.12836 0.0
N464 N 0.94064 0.78644 0.14376 0.0
N465 N 0.08998 0.71175 0.13806 0.0
H466 H 0.11565 0.83977 0.10558 0.0
H467 H 0.14341 0.80105 0.11562 0.0
H468 H 0.08684 0.67962 0.14739 0.0
H469 H 0.11619 0.72062 0.12516 0.0
H470 H 0.90482 0.76615 0.15276 0.0
H471 H 0.93995 0.8142 0.13296 0.0
H472 H 0.92321 0.73926 0.18057 0.0
H473 H 0.94439 0.69299 0.18809 0.0
C474 C 0.28512 0.06642 0.4627 0.0
C475 C 0.22816 0.02685 0.4638 0.0
C476 C 0.245 0.98281 0.49417 0.0
C477 C 0.30245 0.019 0.49173 0.0
N478 N 0.37849 0.0912 0.47242 0.0
N479 N 0.15396 0.94311 0.47857 0.0
C480 C 0.32292 0.05987 0.47568 0.0
C481 C 0.20804 0.98393 0.47905 0.0
N482 N 0.30281 0.11088 0.44958 0.0
N483 N 0.22578 0.94821 0.51122 0.0
H484 H 0.1254 0.94276 0.46789 0.0
H485 H 0.13818 0.9074 0.48763 0.0
H486 H 0.25174 0.94581 0.52247 0.0
H487 H 0.18423 0.92515 0.51519 0.0
H488 H 0.34284 0.14426 0.44965 0.0
H489 H 0.27626 0.11662 0.43971 0.0
H490 H 0.39592 0.11729 0.4595 0.0
H491 H 0.40747 0.08826 0.48185 0.0
C492 C 0.17682 0.26467 0.81189 0.0
C493 C 0.19105 0.2561 0.79127 0.0
C494 C 0.28748 0.32366 0.79857 0.0
C495 C 0.27487 0.32094 0.82043 0.0
N496 N 0.20631 0.29094 0.84807 0.0
N497 N 0.25038 0.31341 0.76338 0.0
C498 C 0.21912 0.29211 0.82718 0.0
C499 C 0.24394 0.29602 0.78386 0.0
N500 N 0.12526 0.25624 0.81564 0.0
N501 N 0.34093 0.35141 0.79182 0.0
H502 H 0.21666 0.29971 0.7532 0.0
H503 H 0.28692 0.34616 0.75755 0.0
H504 H 0.37425 0.37218 0.80209 0.0
H505 H 0.35202 0.34982 0.77621 0.0
H506 H 0.11378 0.26643 0.82987 0.0
H507 H 0.09711 0.24717 0.80333 0.0
H508 H 0.16657 0.2658 0.8539 0.0
H509 H 0.23594 0.31221 0.85969 0.0
C510 C 0.8113 0.05782 0.63421 0.0
C511 C 0.79886 0.01265 0.64773 0.0
C512 C 0.70371 0.96425 0.63469 0.0
C513 C 0.71737 0.00736 0.61994 0.0
N514 N 0.78664 0.08997 0.60273 0.0
N515 N 0.73703 0.91811 0.65767 0.0
C516 C 0.77197 0.05268 0.61884 0.0
C517 C 0.74613 0.9644 0.64704 0.0
N518 N 0.85982 0.10632 0.63658 0.0
N519 N 0.64991 0.92431 0.63754 0.0
H520 H 0.76728 0.91631 0.66667 0.0
H521 H 0.70125 0.88004 0.65594 0.0
H522 H 0.61745 0.92295 0.62897 0.0
H523 H 0.63692 0.8954 0.64969 0.0
H524 H 0.86855 0.1425 0.62876 0.0
H525 H 0.88956 0.1118 0.64774 0.0
H526 H 0.82715 0.1206 0.59983 0.0
H527 H 0.75905 0.08723 0.59106 0.0
C528 C 0.79226 0.76539 0.9693 0.0
C529 C 0.77277 0.7932 0.98239 0.0
C530 C 0.67886 0.73379 0.96917 0.0
C531 C 0.6992 0.70926 0.9548 0.0
N532 N 0.77612 0.70738 0.93859 0.0
N533 N 0.69985 0.81034 0.99263 0.0
C534 C 0.75621 0.72668 0.95413 0.0
C535 C 0.71665 0.77922 0.98172 0.0
N536 N 0.84467 0.77457 0.97189 0.0
N537 N 0.62328 0.71248 0.97131 0.0
H538 H 0.72638 0.84374 0.00207 0.0
H539 H 0.66091 0.80602 0.991 0.0
H540 H 0.5943 0.67933 0.96235 0.0
H541 H 0.60565 0.72457 0.98312 0.0
H542 H 0.85923 0.75115 0.9645 0.0
H543 H 0.87242 0.80268 0.98281 0.0
H544 H 0.81798 0.72306 0.93583 0.0
H545 H 0.7509 0.67871 0.92728 0.0
C546 C 0.94125 0.71732 0.31659 0.0
C547 C 0.9803 0.77436 0.31516 0.0
C548 C 0.02326 0.75729 0.28449 0.0
C549 C 0.98755 0.69985 0.28718 0.0
N550 N 0.91709 0.62398 0.30714 0.0
N551 N 0.06313 0.84859 0.29986 0.0
C552 C 0.94764 0.67947 0.30359 0.0
C553 C 0.02255 0.79441 0.29964 0.0
N554 N 0.89733 0.69957 0.33001 0.0
N555 N 0.0569 0.77636 0.26717 0.0
H556 H 0.06383 0.87722 0.31058 0.0
H557 H 0.09842 0.86438 0.29053 0.0
H558 H 0.05897 0.75031 0.25587 0.0
H559 H 0.07944 0.81784 0.26305 0.0
H560 H 0.86423 0.65938 0.33017 0.0
H561 H 0.89168 0.72614 0.3399 0.0
H562 H 0.89181 0.60677 0.32029 0.0
H563 H 0.92004 0.59495 0.29776 0.0
C564 C 0.22094 0.9311 0.6508 0.0
C565 C 0.20056 0.96813 0.64894 0.0
C566 C 0.25765 0.00964 0.61743 0.0
C567 C 0.28197 0.97634 0.62055 0.0
N568 N 0.29135 0.90891 0.641 0.0
N569 N 0.20238 0.04616 0.63204 0.0
C570 C 0.26468 0.93779 0.63741 0.0
C571 C 0.21952 0.00826 0.6326 0.0
N572 N 0.19778 0.88906 0.66516 0.0
N573 N 0.27031 0.04177 0.59973 0.0
H574 H 0.17326 0.04552 0.64249 0.0
H575 H 0.2195 0.08044 0.62215 0.0
H576 H 0.29879 0.04449 0.58847 0.0
H577 H 0.24972 0.06247 0.59529 0.0
H578 H 0.20654 0.85713 0.66586 0.0
H579 H 0.16639 0.88367 0.67547 0.0
H580 H 0.28519 0.8849 0.65438 0.0
H581 H 0.32266 0.91173 0.63123 0.0
C582 C 0.24294 0.18414 0.96306 0.0
C583 C 0.21325 0.19706 0.97797 0.0
C584 C 0.26143 0.29319 0.96607 0.0
C585 C 0.2881 0.27938 0.95012 0.0
N586 N 0.29591 0.20972 0.93056 0.0
N587 N 0.18486 0.26038 0.99052 0.0
C588 C 0.27633 0.22417 0.94775 0.0
C589 C 0.21968 0.25059 0.97853 0.0
N590 N 0.24092 0.13443 0.96403 0.0
N591 N 0.27755 0.34717 0.96996 0.0
H592 H 0.15327 0.23004 0.99967 0.0
H593 H 0.18389 0.29701 0.98984 0.0
H594 H 0.30837 0.37975 0.96135 0.0
H595 H 0.26382 0.35996 0.9829 0.0
H596 H 0.26635 0.12503 0.95509 0.0
H597 H 0.21709 0.1041 0.97506 0.0
H598 H 0.2841 0.1691 0.92682 0.0
H599 H 0.32004 0.23786 0.91891 0.0
C600 C 0.9886 0.2392 0.31742 0.0
C601 C 0.02953 0.22438 0.31389 0.0
C602 C 0.05927 0.28057 0.28168 0.0
C603 C 0.02147 0.29893 0.2862 0.0
N604 N 0.9561 0.30293 0.30988 0.0
N605 N 0.10885 0.23606 0.29462 0.0
C606 C 0.98773 0.28023 0.3045 0.0
C607 C 0.06632 0.2465 0.29654 0.0
N608 N 0.94945 0.21276 0.33268 0.0
N609 N 0.08723 0.2945 0.2629 0.0
H610 H 0.1149 0.21087 0.30513 0.0
H611 H 0.14057 0.25561 0.28366 0.0
H612 H 0.08336 0.31974 0.25173 0.0
H613 H 0.11087 0.27772 0.25763 0.0
H614 H 0.91491 0.21717 0.33441 0.0
H615 H 0.94895 0.18284 0.34263 0.0
H616 H 0.9355 0.29566 0.32426 0.0
H617 H 0.95383 0.33263 0.30069 0.0
loop_
_geom_bond_atom_site_label_1
_geom_bond_atom_site_label_2
_geom_bond_distance
_geom_bond_site_symmetry_2
_ccdc_geom_bond_type
Li0 N17 1.990 . S
Li0 O60 1.956 . S
Li0 O61 1.970 1_455 S
Li0 O62 1.961 1_545 S
Li1 N25 1.990 . S
Li1 O60 1.970 1_655 S
Li1 O61 1.956 . S
Li1 O63 1.961 1_545 S
Li2 N47 1.990 . S
Li2 O60 1.961 1_565 S
Li2 O62 1.956 . S
Li2 O63 1.970 1_455 S
Li3 N53 1.990 . S
Li3 O61 1.961 1_565 S
Li3 O62 1.970 1_655 S
Li3 O63 1.956 . S
C4 C6 1.348 . S
C4 C7 1.356 . S
C4 O60 1.325 . S
N5 C8 1.314 . S
N5 C9 1.279 . S
C6 C4 1.348 . S
C6 C8 1.353 . S
C6 H64 0.929 . S
C7 C4 1.356 . S
C7 C9 1.358 . S
C7 H65 0.930 . S
C8 N5 1.314 . S
C8 C6 1.353 . S
C8 H66 0.930 . S
C9 N5 1.279 . S
C9 C7 1.358 . S
C9 H67 0.930 . S
C10 C13 1.348 1_655 S
C10 C14 1.356 . S
C10 O61 1.325 . S
C11 N12 1.279 . S
C11 C14 1.358 . S
C11 H68 0.930 . S
N12 C11 1.279 . S
N12 C15 1.314 . S
C13 C10 1.348 1_455 S
C13 C15 1.353 1_455 S
C13 H69 0.929 . S
C14 C10 1.356 . S
C14 C11 1.358 . S
C14 H70 0.930 . S
C15 N12 1.314 . S
C15 C13 1.353 1_655 S
C15 H71 0.930 1_654 S
C16 N17 1.314 . S
C16 C21 1.353 1_554 S
C16 H22 0.930 1_554 S
N17 Li0 1.990 . S
N17 C16 1.314 . S
N17 C19 1.279 . S
C18 C19 1.358 . S
C18 C20 1.356 1_554 S
C18 H72 0.930 . S
C19 N17 1.279 . S
C19 C18 1.358 . S
C19 H23 0.930 . S
C20 C18 1.356 1_556 S
C20 C21 1.348 . S
C21 C16 1.353 1_556 S
C21 C20 1.348 . S
C21 H73 0.929 . S
H22 C16 0.930 1_556 S
H23 C19 0.930 . S
C24 N25 1.314 . S
C24 C26 1.353 . S
C24 H30 0.930 . S
N25 Li1 1.990 . S
N25 C24 1.314 . S
N25 C28 1.279 . S
C26 C24 1.353 . S
C26 C29 1.348 . S
C26 H74 0.929 . S
C27 C28 1.358 . S
C27 C29 1.356 . S
C27 H75 0.930 . S
C28 N25 1.279 . S
C28 C27 1.358 . S
C28 H31 0.930 . S
C29 C26 1.348 . S
C29 C27 1.356 . S
H30 C24 0.930 . S
H31 C28 0.930 . S
C32 C34 1.348 1_455 S
C32 C35 1.356 . S
C32 O62 1.325 . S
N33 C36 1.314 . S
N33 C37 1.279 . S
C34 C32 1.348 1_655 S
C34 C36 1.353 1_655 S
C34 H76 0.929 . S
C35 C32 1.356 . S
C35 C37 1.358 . S
C35 H77 0.930 . S
C36 N33 1.314 . S
C36 C34 1.353 1_455 S
C36 H78 0.930 1_454 S
C37 N33 1.279 . S
C37 C35 1.358 . S
C37 H79 0.930 . S
C38 C39 1.348 . S
C38 C40 1.356 . S
C38 O63 1.325 . S
C39 C38 1.348 . S
C39 C41 1.353 . S
C39 H80 0.929 . S
C40 C38 1.356 . S
C40 C42 1.358 . S
C40 H81 0.930 . S
C41 C39 1.353 . S
C41 N43 1.314 . S
C41 H82 0.930 . S
C42 C40 1.358 . S
C42 N43 1.279 . S
C42 H83 0.930 . S
N43 C41 1.314 . S
N43 C42 1.279 . S
C44 C46 1.353 . S
C44 N47 1.314 . S
C44 H50 0.930 . S
C45 N47 1.279 . S
C45 C48 1.358 . S
C45 H51 0.930 . S
C46 C44 1.353 . S
C46 C49 1.348 . S
C46 H84 0.929 . S
N47 Li2 1.990 . S
N47 C44 1.314 . S
N47 C45 1.279 . S
C48 C45 1.358 . S
C48 C49 1.356 . S
C48 H85 0.930 . S
C49 C46 1.348 . S
C49 C48 1.356 . S
H50 C44 0.930 . S
H51 C45 0.930 . S
C52 N53 1.314 . S
C52 C54 1.353 1_554 S
C52 H58 0.930 1_554 S
N53 Li3 1.990 . S
N53 C52 1.314 . S
N53 C56 1.279 . S
C54 C52 1.353 1_556 S
C54 C57 1.348 . S
C54 H86 0.929 . S
C55 C56 1.358 . S
C55 C57 1.356 1_554 S
C55 H87 0.930 . S
C56 N53 1.279 . S
C56 C55 1.358 . S
C56 H59 0.930 . S
C57 C54 1.348 . S
C57 C55 1.356 1_556 S
H58 C52 0.930 1_556 S
H59 C56 0.930 . S
O60 Li0 1.956 . S
O60 Li1 1.970 1_455 S
O60 Li2 1.961 1_545 S
O60 C4 1.325 . S
O61 Li0 1.970 1_655 S
O61 Li1 1.956 . S
O61 Li3 1.961 1_545 S
O61 C10 1.325 . S
O62 Li0 1.961 1_565 S
O62 Li2 1.956 . S
O62 Li3 1.970 1_455 S
O62 C32 1.325 . S
O63 Li1 1.961 1_565 S
O63 Li2 1.970 1_655 S
O63 Li3 1.956 . S
O63 C38 1.325 . S
H64 C6 0.929 . S
H65 C7 0.930 . S
H66 C8 0.930 . S
H67 C9 0.930 . S
H68 C11 0.930 . S
H69 C13 0.929 . S
H70 C14 0.930 . S
H71 C15 0.930 1_456 S
H72 C18 0.930 . S
H73 C21 0.929 . S
H74 C26 0.929 . S
H75 C27 0.930 . S
H76 C34 0.929 . S
H77 C35 0.930 . S
H78 C36 0.930 1_656 S
H79 C37 0.930 . S
H80 C39 0.929 . S
H81 C40 0.930 . S
H82 C41 0.930 . S
H83 C42 0.930 . S
H84 C46 0.929 . S
H85 C48 0.930 . S
H86 C54 0.929 . S
H87 C55 0.930 . S
Li88 N105 1.990 . S
Li88 O148 1.956 . S
Li88 O149 1.970 1_665 S
Li88 O150 1.961 . S
Li89 N113 1.990 . S
Li89 O148 1.970 1_445 S
Li89 O149 1.956 . S
Li89 O151 1.961 . S
Li90 N135 1.990 . S
Li90 O148 1.961 . S
Li90 O150 1.956 . S
Li90 O151 1.970 1_665 S
Li91 N141 1.990 . S
Li91 O149 1.961 . S
Li91 O150 1.970 1_445 S
Li91 O151 1.956 . S
C92 C94 1.348 1_655 S
C92 C95 1.356 . S
C92 O148 1.325 . S
N93 C96 1.314 . S
N93 C97 1.279 . S
C94 C92 1.348 1_455 S
C94 C96 1.353 1_455 S
C94 H152 0.929 . S
C95 C92 1.356 . S
C95 C97 1.358 . S
C95 H153 0.930 . S
C96 N93 1.314 . S
C96 C94 1.353 1_655 S
C96 H154 0.930 1_655 S
C97 N93 1.279 . S
C97 C95 1.358 . S
C97 H155 0.930 . S
C98 C101 1.348 1_545 S
C98 C102 1.356 . S
C98 O149 1.325 . S
C99 N100 1.279 . S
C99 C102 1.358 . S
C99 H156 0.930 . S
N100 C99 1.279 . S
N100 C103 1.314 . S
C101 C98 1.348 1_565 S
C101 C103 1.353 1_565 S
C101 H157 0.929 . S
C102 C98 1.356 . S
C102 C99 1.358 . S
C102 H158 0.930 . S
C103 N100 1.314 . S
C103 C101 1.353 1_545 S
C103 H159 0.930 1_545 S
C104 N105 1.314 . S
C104 C109 1.353 . S
C104 H110 0.930 . S
N105 Li88 1.990 . S
N105 C104 1.314 . S
N105 C107 1.279 . S
C106 C107 1.358 . S
C106 C108 1.356 . S
C106 H160 0.930 . S
C107 N105 1.279 . S
C107 C106 1.358 . S
C107 H111 0.930 . S
C108 C106 1.356 . S
C108 C109 1.348 . S
C109 C104 1.353 . S
C109 C108 1.348 . S
C109 H161 0.929 . S
H110 C104 0.930 . S
H111 C107 0.930 . S
C112 N113 1.314 . S
C112 C114 1.353 . S
C112 H118 0.930 . S
N113 Li89 1.990 . S
N113 C112 1.314 . S
N113 C116 1.279 . S
C114 C112 1.353 . S
C114 C117 1.348 . S
C114 H162 0.929 . S
C115 C116 1.358 . S
C115 C117 1.356 . S
C115 H163 0.930 . S
C116 N113 1.279 . S
C116 C115 1.358 . S
C116 H119 0.930 . S
C117 C114 1.348 . S
C117 C115 1.356 . S
H118 C112 0.930 . S
H119 C116 0.930 . S
C120 C122 1.348 1_565 S
C120 C123 1.356 . S
C120 O150 1.325 . S
N121 C124 1.314 . S
N121 C125 1.279 . S
C122 C120 1.348 1_545 S
C122 C124 1.353 1_545 S
C122 H164 0.929 . S
C123 C120 1.356 . S
C123 C125 1.358 . S
C123 H165 0.930 . S
C124 N121 1.314 . S
C124 C122 1.353 1_565 S
C124 H166 0.930 1_565 S
C125 N121 1.279 . S
C125 C123 1.358 . S
C125 H167 0.930 . S
C126 C127 1.348 1_455 S
C126 C128 1.356 . S
C126 O151 1.325 . S
C127 C126 1.348 1_655 S
C127 C129 1.353 1_655 S
C127 H168 0.929 . S
C128 C126 1.356 . S
C128 C130 1.358 . S
C128 H169 0.930 . S
C129 C127 1.353 1_455 S
C129 N131 1.314 . S
C129 H170 0.930 1_455 S
C130 C128 1.358 . S
C130 N131 1.279 . S
C130 H171 0.930 . S
N131 C129 1.314 . S
N131 C130 1.279 . S
C132 C134 1.353 . S
C132 N135 1.314 . S
C132 H138 0.930 . S
C133 N135 1.279 . S
C133 C136 1.358 . S
C133 H139 0.930 . S
C134 C132 1.353 . S
C134 C137 1.348 . S
C134 H172 0.929 . S
N135 Li90 1.990 . S
N135 C132 1.314 . S
N135 C133 1.279 . S
C136 C133 1.358 . S
C136 C137 1.356 . S
C136 H173 0.930 . S
C137 C134 1.348 . S
C137 C136 1.356 . S
H138 C132 0.930 . S
H139 C133 0.930 . S
C140 N141 1.314 . S
C140 C142 1.353 . S
C140 H146 0.930 . S
N141 Li91 1.990 . S
N141 C140 1.314 . S
N141 C144 1.279 . S
C142 C140 1.353 . S
C142 C145 1.348 . S
C142 H174 0.929 . S
C143 C144 1.358 . S
C143 C145 1.356 . S
C143 H175 0.930 . S
C144 N141 1.279 . S
C144 C143 1.358 . S
C144 H147 0.930 . S
C145 C142 1.348 . S
C145 C143 1.356 . S
H146 C140 0.930 . S
H147 C144 0.930 . S
O148 Li88 1.956 . S
O148 Li89 1.970 1_665 S
O148 Li90 1.961 . S
O148 C92 1.325 . S
O149 Li88 1.970 1_445 S
O149 Li89 1.956 . S
O149 Li91 1.961 . S
O149 C98 1.325 . S
O150 Li88 1.961 . S
O150 Li90 1.956 . S
O150 Li91 1.970 1_665 S
O150 C120 1.325 . S
O151 Li89 1.961 . S
O151 Li90 1.970 1_445 S
O151 Li91 1.956 . S
O151 C126 1.325 . S
H152 C94 0.929 . S
H153 C95 0.930 . S
H154 C96 0.930 1_455 S
H155 C97 0.930 . S
H156 C99 0.930 . S
H157 C101 0.929 . S
H158 C102 0.930 . S
H159 C103 0.930 1_565 S
H160 C106 0.930 . S
H161 C109 0.929 . S
H162 C114 0.929 . S
H163 C115 0.930 . S
H164 C122 0.929 . S
H165 C123 0.930 . S
H166 C124 0.930 1_545 S
H167 C125 0.930 . S
H168 C127 0.929 . S
H169 C128 0.930 . S
H170 C129 0.930 1_655 S
H171 C130 0.930 . S
H172 C134 0.929 . S
H173 C136 0.930 . S
H174 C142 0.929 . S
H175 C143 0.930 . S
Li176 N193 1.990 . S
Li176 O236 1.956 . S
Li176 O237 1.970 1_565 S
Li176 O238 1.961 1_455 S
Li177 N201 1.990 . S
Li177 O236 1.970 1_545 S
Li177 O237 1.956 . S
Li177 O239 1.961 1_455 S
Li178 N223 1.990 . S
Li178 O236 1.961 1_655 S
Li178 O238 1.956 . S
Li178 O239 1.970 1_565 S
Li179 N229 1.990 . S
Li179 O237 1.961 1_655 S
Li179 O238 1.970 1_545 S
Li179 O239 1.956 . S
C180 C182 1.348 1_565 S
C180 C183 1.356 . S
C180 O236 1.325 . S
N181 C184 1.314 . S
N181 C185 1.279 . S
C182 C180 1.348 1_545 S
C182 C184 1.353 1_545 S
C182 H240 0.929 . S
C183 C180 1.356 . S
C183 C185 1.358 . S
C183 H241 0.930 . S
C184 N181 1.314 . S
C184 C182 1.353 1_565 S
C184 H242 0.930 1_565 S
C185 N181 1.279 . S
C185 C183 1.358 . S
C185 H243 0.930 . S
C186 C189 1.348 . S
C186 C190 1.356 . S
C186 O237 1.325 . S
C187 N188 1.279 . S
C187 C190 1.358 . S
C187 H244 0.930 . S
N188 C187 1.279 . S
N188 C191 1.314 . S
C189 C186 1.348 . S
C189 C191 1.353 . S
C189 H245 0.929 . S
C190 C186 1.356 . S
C190 C187 1.358 . S
C190 H246 0.930 . S
C191 N188 1.314 . S
C191 C189 1.353 . S
C191 H247 0.930 . S
C192 N193 1.314 . S
C192 C197 1.353 . S
C192 H198 0.930 . S
N193 Li176 1.990 . S
N193 C192 1.314 . S
N193 C195 1.279 . S
C194 C195 1.358 . S
C194 C196 1.356 . S
C194 H248 0.930 . S
C195 N193 1.279 . S
C195 C194 1.358 . S
C195 H199 0.930 . S
C196 C194 1.356 . S
C196 C197 1.348 . S
C197 C192 1.353 . S
C197 C196 1.348 . S
C197 H249 0.929 . S
H198 C192 0.930 . S
H199 C195 0.930 . S
C200 N201 1.314 . S
C200 C202 1.353 . S
C200 H206 0.930 . S
N201 Li177 1.990 . S
N201 C200 1.314 . S
N201 C204 1.279 . S
C202 C200 1.353 . S
C202 C205 1.348 . S
C202 H250 0.929 . S
C203 C204 1.358 . S
C203 C205 1.356 . S
C203 H251 0.930 . S
C204 N201 1.279 . S
C204 C203 1.358 . S
C204 H207 0.930 . S
C205 C202 1.348 . S
C205 C203 1.356 . S
H206 C200 0.930 . S
H207 C204 0.930 . S
C208 C210 1.348 . S
C208 C211 1.356 . S
C208 O238 1.325 . S
N209 C212 1.314 . S
N209 C213 1.279 . S
C210 C208 1.348 . S
C210 C212 1.353 . S
C210 H252 0.929 . S
C211 C208 1.356 . S
C211 C213 1.358 . S
C211 H253 0.930 . S
C212 N209 1.314 . S
C212 C210 1.353 . S
C212 H254 0.930 . S
C213 N209 1.279 . S
C213 C211 1.358 . S
C213 H255 0.930 . S
C214 C215 1.348 1_545 S
C214 C216 1.356 . S
C214 O239 1.325 . S
C215 C214 1.348 1_565 S
C215 C217 1.353 1_565 S
C215 H256 0.929 . S
C216 C214 1.356 . S
C216 C218 1.358 . S
C216 H257 0.930 . S
C217 C215 1.353 1_545 S
C217 N219 1.314 . S
C217 H258 0.930 1_545 S
C218 C216 1.358 . S
C218 N219 1.279 . S
C218 H259 0.930 . S
N219 C217 1.314 . S
N219 C218 1.279 . S
C220 C222 1.353 . S
C220 N223 1.314 . S
C220 H226 0.930 . S
C221 N223 1.279 . S
C221 C224 1.358 . S
C221 H227 0.930 . S
C222 C220 1.353 . S
C222 C225 1.348 . S
C222 H260 0.929 . S
N223 Li178 1.990 . S
N223 C220 1.314 . S
N223 C221 1.279 . S
C224 C221 1.358 . S
C224 C225 1.356 . S
C224 H261 0.930 . S
C225 C222 1.348 . S
C225 C224 1.356 . S
H226 C220 0.930 . S
H227 C221 0.930 . S
C228 N229 1.314 . S
C228 C230 1.353 . S
C228 H234 0.930 . S
N229 Li179 1.990 . S
N229 C228 1.314 . S
N229 C232 1.279 . S
C230 C228 1.353 . S
C230 C233 1.348 . S
C230 H262 0.929 . S
C231 C232 1.358 . S
C231 C233 1.356 . S
C231 H263 0.930 . S
C232 N229 1.279 . S
C232 C231 1.358 . S
C232 H235 0.930 . S
C233 C230 1.348 . S
C233 C231 1.356 . S
H234 C228 0.930 . S
H235 C232 0.930 . S
O236 Li176 1.956 . S
O236 Li177 1.970 1_565 S
O236 Li178 1.961 1_455 S
O236 C180 1.325 . S
O237 Li176 1.970 1_545 S
O237 Li177 1.956 . S
O237 Li179 1.961 1_455 S
O237 C186 1.325 . S
O238 Li176 1.961 1_655 S
O238 Li178 1.956 . S
O238 Li179 1.970 1_565 S
O238 C208 1.325 . S
O239 Li177 1.961 1_655 S
O239 Li178 1.970 1_545 S
O239 Li179 1.956 . S
O239 C214 1.325 . S
H240 C182 0.929 . S
H241 C183 0.930 . S
H242 C184 0.930 1_545 S
H243 C185 0.930 . S
H244 C187 0.930 . S
H245 C189 0.929 . S
H246 C190 0.930 . S
H247 C191 0.930 . S
H248 C194 0.930 . S
H249 C197 0.929 . S
H250 C202 0.929 . S
H251 C203 0.930 . S
H252 C210 0.929 . S
H253 C211 0.930 . S
H254 C212 0.930 . S
H255 C213 0.930 . S
H256 C215 0.929 . S
H257 C216 0.930 . S
H258 C217 0.930 1_565 S
H259 C218 0.930 . S
H260 C222 0.929 . S
H261 C224 0.930 . S
H262 C230 0.929 . S
H263 C231 0.930 . S
C264 C265 1.384 1_655 S
C264 C266 1.384 . S
C264 H292 0.931 . S
C265 C264 1.384 1_455 S
C265 C268 1.382 . S
C266 C264 1.384 . S
C266 C267 1.381 1_655 S
C266 H293 0.930 . S
C267 C266 1.381 1_455 S
C267 C269 1.381 . S
C267 C270 1.487 . S
C268 C265 1.382 . S
C268 C269 1.387 . S
C268 H294 0.930 . S
C269 C267 1.381 . S
C269 C268 1.387 . S
C269 H295 0.931 . S
C270 C267 1.487 . S
C270 C277 1.399 1_455 S
C270 N308 1.343 . S
C271 C272 1.384 1_455 S
C271 C273 1.384 . S
C271 H296 0.931 . S
C272 C271 1.384 1_655 S
C272 C275 1.382 . S
C273 C271 1.384 . S
C273 C274 1.381 1_455 S
C273 H297 0.930 . S
C274 C273 1.381 1_655 S
C274 C276 1.381 . S
C274 C277 1.487 . S
C275 C272 1.382 . S
C275 C276 1.387 . S
C275 H298 0.930 . S
C276 C274 1.381 . S
C276 C275 1.387 . S
C276 H299 0.931 . S
C277 C270 1.399 1_655 S
C277 C274 1.487 . S
C277 N309 1.343 . S
C278 C279 1.384 1_455 S
C278 C280 1.384 . S
C278 H300 0.931 . S
C279 C278 1.384 1_655 S
C279 C282 1.382 . S
C280 C278 1.384 . S
C280 C281 1.381 1_455 S
C280 H301 0.930 . S
C281 C280 1.381 1_655 S
C281 C283 1.381 . S
C281 C284 1.487 . S
C282 C279 1.382 . S
C282 C283 1.387 . S
C282 H302 0.930 . S
C283 C281 1.381 . S
C283 C282 1.387 . S
C283 H303 0.931 . S
C284 C281 1.487 . S
C284 C291 1.399 1_655 S
C284 N309 1.343 . S
C285 C286 1.384 1_655 S
C285 C287 1.384 . S
C285 H304 0.931 . S
C286 C285 1.384 1_455 S
C286 C289 1.382 . S
C287 C285 1.384 . S
C287 C288 1.381 1_655 S
C287 H305 0.930 . S
C288 C287 1.381 1_455 S
C288 C290 1.381 . S
C288 C291 1.487 . S
C289 C286 1.382 . S
C289 C290 1.387 . S
C289 H306 0.930 . S
C290 C288 1.381 . S
C290 C289 1.387 . S
C290 H307 0.931 . S
C291 C284 1.399 1_455 S
C291 C288 1.487 . S
C291 N308 1.343 . S
H292 C264 0.931 . S
H293 C266 0.930 . S
H294 C268 0.930 . S
H295 C269 0.931 . S
H296 C271 0.931 . S
H297 C273 0.930 . S
H298 C275 0.930 . S
H299 C276 0.931 . S
H300 C278 0.931 . S
H301 C280 0.930 . S
H302 C282 0.930 . S
H303 C283 0.931 . S
H304 C285 0.931 . S
H305 C287 0.930 . S
H306 C289 0.930 . S
H307 C290 0.931 . S
N308 C270 1.343 . S
N308 C291 1.343 . S
N309 C277 1.343 . S
N309 C284 1.343 . S
C310 C311 1.384 1_545 S
C310 C312 1.384 . S
C310 H338 0.931 . S
C311 C310 1.384 1_565 S
C311 C314 1.382 . S
C312 C310 1.384 . S
C312 C313 1.381 1_545 S
C312 H339 0.930 . S
C313 C312 1.381 1_565 S
C313 C315 1.381 . S
C313 C316 1.487 . S
C314 C311 1.382 . S
C314 C315 1.387 . S
C314 H340 0.930 . S
C315 C313 1.381 . S
C315 C314 1.387 . S
C315 H341 0.931 . S
C316 C313 1.487 . S
C316 C323 1.399 1_565 S
C316 N354 1.343 . S
C317 C318 1.384 1_565 S
C317 C319 1.384 . S
C317 H342 0.931 . S
C318 C317 1.384 1_545 S
C318 C321 1.382 . S
C319 C317 1.384 . S
C319 C320 1.381 1_565 S
C319 H343 0.930 . S
C320 C319 1.381 1_545 S
C320 C322 1.381 . S
C320 C323 1.487 . S
C321 C318 1.382 . S
C321 C322 1.387 . S
C321 H344 0.930 . S
C322 C320 1.381 . S
C322 C321 1.387 . S
C322 H345 0.931 . S
C323 C316 1.399 1_545 S
C323 C320 1.487 . S
C323 N355 1.343 . S
C324 C325 1.384 1_565 S
C324 C326 1.384 . S
C324 H346 0.931 . S
C325 C324 1.384 1_545 S
C325 C328 1.382 . S
C326 C324 1.384 . S
C326 C327 1.381 1_565 S
C326 H347 0.930 . S
C327 C326 1.381 1_545 S
C327 C329 1.381 . S
C327 C330 1.487 . S
C328 C325 1.382 . S
C328 C329 1.387 . S
C328 H348 0.930 . S
C329 C327 1.381 . S
C329 C328 1.387 . S
C329 H349 0.931 . S
C330 C327 1.487 . S
C330 C337 1.399 1_545 S
C330 N355 1.343 . S
C331 C332 1.384 1_545 S
C331 C333 1.384 . S
C331 H350 0.931 . S
C332 C331 1.384 1_565 S
C332 C335 1.382 . S
C333 C331 1.384 . S
C333 C334 1.381 1_545 S
C333 H351 0.930 . S
C334 C333 1.381 1_565 S
C334 C336 1.381 . S
C334 C337 1.487 . S
C335 C332 1.382 . S
C335 C336 1.387 . S
C335 H352 0.930 . S
C336 C334 1.381 . S
C336 C335 1.387 . S
C336 H353 0.931 . S
C337 C330 1.399 1_565 S
C337 C334 1.487 . S
C337 N354 1.343 . S
H338 C310 0.931 . S
H339 C312 0.930 . S
H340 C314 0.930 . S
H341 C315 0.931 . S
H342 C317 0.931 . S
H343 C319 0.930 . S
H344 C321 0.930 . S
H345 C322 0.931 . S
H346 C324 0.931 . S
H347 C326 0.930 . S
H348 C328 0.930 . S
H349 C329 0.931 . S
H350 C331 0.931 . S
H351 C333 0.930 . S
H352 C335 0.930 . S
H353 C336 0.931 . S
N354 C316 1.343 . S
N354 C337 1.343 . S
N355 C323 1.343 . S
N355 C330 1.343 . S
C356 C357 1.384 . S
C356 C358 1.384 . S
C356 H384 0.931 . S
C357 C356 1.384 . S
C357 C360 1.382 . S
C358 C356 1.384 . S
C358 C359 1.381 . S
C358 H385 0.930 . S
C359 C358 1.381 . S
C359 C361 1.381 . S
C359 C362 1.487 . S
C360 C357 1.382 . S
C360 C361 1.387 . S
C360 H386 0.930 . S
C361 C359 1.381 . S
C361 C360 1.387 . S
C361 H387 0.931 . S
C362 C359 1.487 . S
C362 C369 1.399 . S
C362 N400 1.343 . S
C363 C364 1.384 . S
C363 C365 1.384 . S
C363 H388 0.931 . S
C364 C363 1.384 . S
C364 C367 1.382 . S
C365 C363 1.384 . S
C365 C366 1.381 . S
C365 H389 0.930 . S
C366 C365 1.381 . S
C366 C368 1.381 . S
C366 C369 1.487 . S
C367 C364 1.382 . S
C367 C368 1.387 . S
C367 H390 0.930 . S
C368 C366 1.381 . S
C368 C367 1.387 . S
C368 H391 0.931 . S
C369 C362 1.399 . S
C369 C366 1.487 . S
C369 N401 1.343 . S
C370 C371 1.384 . S
C370 C372 1.384 . S
C370 H392 0.931 . S
C371 C370 1.384 . S
C371 C374 1.382 . S
C372 C370 1.384 . S
C372 C373 1.381 . S
C372 H393 0.930 . S
C373 C372 1.381 . S
C373 C375 1.381 . S
C373 C376 1.487 . S
C374 C371 1.382 . S
C374 C375 1.387 . S
C374 H394 0.930 . S
C375 C373 1.381 . S
C375 C374 1.387 . S
C375 H395 0.931 . S
C376 C373 1.487 . S
C376 C383 1.399 . S
C376 N401 1.343 . S
C377 C378 1.384 . S
C377 C379 1.384 . S
C377 H396 0.931 . S
C378 C377 1.384 . S
C378 C381 1.382 . S
C379 C377 1.384 . S
C379 C380 1.381 . S
C379 H397 0.930 . S
C380 C379 1.381 . S
C380 C382 1.381 . S
C380 C383 1.487 . S
C381 C378 1.382 . S
C381 C382 1.387 . S
C381 H398 0.930 . S
C382 C380 1.381 . S
C382 C381 1.387 . S
C382 H399 0.931 . S
C383 C376 1.399 . S
C383 C380 1.487 . S
C383 N400 1.343 . S
H384 C356 0.931 . S
H385 C358 0.930 . S
H386 C360 0.930 . S
H387 C361 0.931 . S
H388 C363 0.931 . S
H389 C365 0.930 . S
H390 C367 0.930 . S
H391 C368 0.931 . S
H392 C370 0.931 . S
H393 C372 0.930 . S
H394 C374 0.930 . S
H395 C375 0.931 . S
H396 C377 0.931 . S
H397 C379 0.930 . S
H398 C381 0.930 . S
H399 C382 0.931 . S
N400 C362 1.343 . S
N400 C383 1.343 . S
N401 C369 1.343 . S
N401 C376 1.343 . S
C402 C403 1.363 . S
C402 C408 1.379 . S
C402 N410 1.356 . S
C403 C402 1.363 . S
C403 C409 1.363 . S
C404 C405 1.363 1_455 S
C404 C409 1.379 1_455 S
C404 N411 1.356 . S
C405 C404 1.363 1_655 S
C405 C408 1.363 . S
N406 C408 1.356 . S
N406 H418 0.984 . S
N406 H419 0.985 . S
N407 C409 1.356 1_455 S
N407 H412 0.984 1_455 S
N407 H413 0.985 . S
C408 C402 1.379 . S
C408 C405 1.363 . S
C408 N406 1.356 . S
C409 C403 1.363 . S
C409 C404 1.379 1_655 S
C409 N407 1.356 1_655 S
N410 C402 1.356 . S
N410 H416 0.984 . S
N410 H417 0.984 . S
N411 C404 1.356 . S
N411 H414 0.984 . S
N411 H415 0.985 . S
H412 N407 0.984 1_655 S
H413 N407 0.985 . S
H414 N411 0.984 . S
H415 N411 0.985 . S
H416 N410 0.984 . S
H417 N410 0.984 . S
H418 N406 0.984 . S
H419 N406 0.985 . S
C420 C421 1.363 . S
C420 C426 1.379 . S
C420 N428 1.356 . S
C421 C420 1.363 . S
C421 C427 1.366 . S
C422 C423 1.363 1_545 S
C422 C427 1.377 1_545 S
C422 N429 1.356 . S
C423 C422 1.363 1_565 S
C423 C426 1.363 . S
N424 C426 1.356 . S
N424 H436 0.984 . S
N424 H437 0.985 . S
N425 C427 1.357 1_545 S
N425 H430 0.984 1_545 S
N425 H431 0.985 . S
C426 C420 1.379 . S
C426 C423 1.363 . S
C426 N424 1.356 . S
C427 C421 1.366 . S
C427 C422 1.377 1_565 S
C427 N425 1.357 1_565 S
N428 C420 1.356 . S
N428 H434 0.984 . S
N428 H435 0.984 . S
N429 C422 1.356 . S
N429 H432 0.984 . S
N429 H433 0.985 . S
H430 N425 0.984 1_565 S
H431 N425 0.985 . S
H432 N429 0.984 . S
H433 N429 0.985 . S
H434 N428 0.984 . S
H435 N428 0.984 . S
H436 N424 0.984 . S
H437 N424 0.985 . S
C438 C439 1.363 . S
C438 C444 1.379 . S
C438 N446 1.356 . S
C439 C438 1.363 . S
C439 C445 1.363 . S
C440 C441 1.363 . S
C440 C445 1.379 . S
C440 N447 1.356 . S
C441 C440 1.363 . S
C441 C444 1.363 . S
N442 C444 1.356 . S
N442 H454 0.984 . S
N442 H455 0.985 . S
N443 C445 1.356 . S
N443 H448 0.984 . S
N443 H449 0.985 . S
C444 C438 1.379 . S
C444 C441 1.363 . S
C444 N442 1.356 . S
C445 C439 1.363 . S
C445 C440 1.379 . S
C445 N443 1.356 . S
N446 C438 1.356 . S
N446 H452 0.984 . S
N446 H453 0.984 . S
N447 C440 1.356 . S
N447 H450 0.984 . S
N447 H451 0.985 . S
H448 N443 0.984 . S
H449 N443 0.985 . S
H450 N447 0.984 . S
H451 N447 0.985 . S
H452 N446 0.984 . S
H453 N446 0.984 . S
H454 N442 0.984 . S
H455 N442 0.985 . S
C456 C457 1.363 1_655 S
C456 C462 1.379 . S
C456 N464 1.356 . S
C457 C456 1.363 1_455 S
C457 C463 1.363 . S
C458 C459 1.363 . S
C458 C463 1.379 . S
C458 N465 1.356 . S
C459 C458 1.363 . S
C459 C462 1.363 1_455 S
N460 C462 1.356 . S
N460 H472 0.984 . S
N460 H473 0.985 . S
N461 C463 1.356 . S
N461 H466 0.984 . S
N461 H467 0.985 . S
C462 C456 1.379 . S
C462 C459 1.363 1_655 S
C462 N460 1.356 . S
C463 C457 1.363 . S
C463 C458 1.379 . S
C463 N461 1.356 . S
N464 C456 1.356 . S
N464 H470 0.984 . S
N464 H471 0.984 1_655 S
N465 C458 1.356 . S
N465 H468 0.984 . S
N465 H469 0.985 . S
H466 N461 0.984 . S
H467 N461 0.985 . S
H468 N465 0.984 . S
H469 N465 0.985 . S
H470 N464 0.984 . S
H471 N464 0.984 1_455 S
H472 N460 0.984 . S
H473 N460 0.985 . S
C474 C475 1.363 . S
C474 C480 1.379 . S
C474 N482 1.356 . S
C475 C474 1.363 . S
C475 C481 1.363 . S
C476 C477 1.363 1_565 S
C476 C481 1.379 1_565 S
C476 N483 1.356 . S
C477 C476 1.363 1_545 S
C477 C480 1.363 . S
N478 C480 1.356 . S
N478 H490 0.984 . S
N478 H491 0.985 . S
N479 C481 1.356 . S
N479 H484 0.984 . S
N479 H485 0.985 1_545 S
C480 C474 1.379 . S
C480 C477 1.363 . S
C480 N478 1.356 . S
C481 C475 1.363 . S
C481 C476 1.379 1_545 S
C481 N479 1.356 . S
N482 C474 1.356 . S
N482 H488 0.984 . S
N482 H489 0.984 . S
N483 C476 1.356 . S
N483 H486 0.984 . S
N483 H487 0.985 . S
H484 N479 0.984 . S
H485 N479 0.985 1_565 S
H486 N483 0.984 . S
H487 N483 0.985 . S
H488 N482 0.984 . S
H489 N482 0.984 . S
H490 N478 0.984 . S
H491 N478 0.985 . S
C492 C493 1.363 . S
C492 C498 1.379 . S
C492 N500 1.356 . S
C493 C492 1.363 . S
C493 C499 1.363 . S
C494 C495 1.363 . S
C494 C499 1.379 . S
C494 N501 1.356 . S
C495 C494 1.363 . S
C495 C498 1.363 . S
N496 C498 1.356 . S
N496 H508 0.984 . S
N496 H509 0.985 . S
N497 C499 1.356 . S
N497 H502 0.984 . S
N497 H503 0.985 . S
C498 C492 1.379 . S
C498 C495 1.363 . S
C498 N496 1.356 . S
C499 C493 1.363 . S
C499 C494 1.379 . S
C499 N497 1.356 . S
N500 C492 1.356 . S
N500 H506 0.984 . S
N500 H507 0.984 . S
N501 C494 1.356 . S
N501 H504 0.984 . S
N501 H505 0.985 . S
H502 N497 0.984 . S
H503 N497 0.985 . S
H504 N501 0.984 . S
H505 N501 0.985 . S
H506 N500 0.984 . S
H507 N500 0.984 . S
H508 N496 0.984 . S
H509 N496 0.985 . S
C510 C511 1.363 . S
C510 C516 1.379 . S
C510 N518 1.356 . S
C511 C510 1.363 . S
C511 C517 1.363 1_545 S
C512 C513 1.363 1_565 S
C512 C517 1.379 . S
C512 N519 1.356 . S
C513 C512 1.363 1_545 S
C513 C516 1.363 . S
N514 C516 1.356 . S
N514 H526 0.984 . S
N514 H527 0.985 . S
N515 C517 1.356 . S
N515 H520 0.990 . S
N515 H521 0.985 . S
C516 C510 1.379 . S
C516 C513 1.363 . S
C516 N514 1.356 . S
C517 C511 1.363 1_565 S
C517 C512 1.379 . S
C517 N515 1.356 . S
N518 C510 1.356 . S
N518 H524 0.984 . S
N518 H525 0.984 . S
N519 C512 1.356 . S
N519 H522 0.984 . S
N519 H523 0.985 . S
H520 N515 0.990 . S
H521 N515 0.985 . S
H522 N519 0.984 . S
H523 N519 0.985 . S
H524 N518 0.984 . S
H525 N518 0.984 . S
H526 N514 0.984 . S
H527 N514 0.985 . S
C528 C529 1.363 . S
C528 C534 1.379 . S
C528 N536 1.356 1_556 S
C529 C528 1.363 . S
C529 C535 1.363 . S
C530 C531 1.363 . S
C530 C535 1.379 . S
C530 N537 1.356 . S
C531 C530 1.363 . S
C531 C534 1.363 . S
N532 C534 1.356 . S
N532 H544 0.984 . S
N532 H545 0.985 . S
N533 C535 1.356 . S
N533 H538 0.984 . S
N533 H539 0.985 . S
C534 C528 1.379 . S
C534 C531 1.363 . S
C534 N532 1.356 . S
C535 C529 1.363 . S
C535 C530 1.379 . S
C535 N533 1.356 . S
N536 C528 1.356 1_554 S
N536 H542 0.984 . S
N536 H543 0.984 . S
N537 C530 1.356 . S
N537 H540 0.984 . S
N537 H541 0.985 . S
H538 N533 0.984 . S
H539 N533 0.985 . S
H540 N537 0.984 . S
H541 N537 0.985 . S
H542 N536 0.984 . S
H543 N536 0.984 . S
H544 N532 0.984 . S
H545 N532 0.985 . S
C546 C547 1.363 . S
C546 C552 1.379 . S
C546 N554 1.356 . S
C547 C546 1.363 . S
C547 C553 1.346 1_655 S
C548 C549 1.363 1_455 S
C548 C553 1.394 . S
C548 N555 1.356 . S
C549 C548 1.363 1_655 S
C549 C552 1.363 . S
N550 C552 1.356 . S
N550 H562 0.984 . S
N550 H563 0.985 . S
N551 C553 1.353 . S
N551 H556 0.984 1_455 S
N551 H557 0.985 . S
C552 C546 1.379 . S
C552 C549 1.363 . S
C552 N550 1.356 . S
C553 C547 1.346 1_455 S
C553 C548 1.394 . S
C553 N551 1.353 . S
N554 C546 1.356 . S
N554 H560 0.984 . S
N554 H561 0.984 . S
N555 C548 1.356 . S
N555 H558 0.984 . S
N555 H559 0.985 . S
H556 N551 0.984 1_655 S
H557 N551 0.985 . S
H558 N555 0.984 . S
H559 N555 0.985 . S
H560 N554 0.984 . S
H561 N554 0.984 . S
H562 N550 0.984 . S
H563 N550 0.985 . S
C564 C565 1.363 . S
C564 C570 1.379 . S
C564 N572 1.356 . S
C565 C564 1.363 . S
C565 C571 1.363 1_565 S
C566 C567 1.363 1_545 S
C566 C571 1.379 . S
C566 N573 1.356 . S
C567 C566 1.363 1_565 S
C567 C570 1.363 . S
N568 C570 1.356 . S
N568 H580 0.984 . S
N568 H581 0.985 . S
N569 C571 1.356 . S
N569 H574 0.984 . S
N569 H575 0.985 . S
C570 C564 1.379 . S
C570 C567 1.363 . S
C570 N568 1.356 . S
C571 C565 1.363 1_545 S
C571 C566 1.379 . S
C571 N569 1.356 . S
N572 C564 1.356 . S
N572 H578 0.984 . S
N572 H579 0.984 . S
N573 C566 1.356 . S
N573 H576 0.984 . S
N573 H577 0.985 . S
H574 N569 0.984 . S
H575 N569 0.985 . S
H576 N573 0.984 . S
H577 N573 0.985 . S
H578 N572 0.984 . S
H579 N572 0.984 . S
H580 N568 0.984 . S
H581 N568 0.985 . S
C582 C583 1.363 . S
C582 C588 1.379 . S
C582 N590 1.356 . S
C583 C582 1.363 . S
C583 C589 1.363 . S
C584 C585 1.363 . S
C584 C589 1.379 . S
C584 N591 1.356 . S
C585 C584 1.363 . S
C585 C588 1.363 . S
N586 C588 1.356 . S
N586 H598 0.984 . S
N586 H599 0.985 . S
N587 C589 1.356 . S
N587 H592 0.985 1_556 S
N587 H593 0.985 . S
C588 C582 1.379 . S
C588 C585 1.363 . S
C588 N586 1.356 . S
C589 C583 1.363 . S
C589 C584 1.379 . S
C589 N587 1.356 . S
N590 C582 1.356 . S
N590 H596 0.984 . S
N590 H597 0.984 . S
N591 C584 1.356 . S
N591 H594 0.984 . S
N591 H595 0.985 . S
H592 N587 0.985 1_554 S
H593 N587 0.985 . S
H594 N591 0.984 . S
H595 N591 0.985 . S
H596 N590 0.984 . S
H597 N590 0.984 . S
H598 N586 0.984 . S
H599 N586 0.985 . S
C600 C601 1.363 . S
C600 C606 1.379 1_455 S
C600 N608 1.356 1_455 S
C601 C600 1.363 . S
C601 C607 1.363 . S
C602 C603 1.363 . S
C602 C607 1.379 . S
C602 N609 1.356 . S
C603 C602 1.363 . S
C603 C606 1.363 1_455 S
N604 C606 1.356 . S
N604 H616 0.984 . S
N604 H617 0.985 . S
N605 C607 1.356 . S
N605 H610 0.984 . S
N605 H611 0.985 . S
C606 C600 1.379 1_655 S
C606 C603 1.363 1_655 S
C606 N604 1.356 . S
C607 C601 1.363 . S
C607 C602 1.379 . S
C607 N605 1.356 . S
N608 C600 1.356 1_655 S
N608 H614 0.984 . S
N608 H615 0.984 1_655 S
N609 C602 1.356 . S
N609 H612 0.984 . S
N609 H613 0.985 . S
H610 N605 0.984 . S
H611 N605 0.985 . S
H612 N609 0.984 . S
H613 N609 0.985 . S
H614 N608 0.984 . S
H615 N608 0.984 1_455 S
H616 N604 0.984 . S
H617 N604 0.985 . S
C405 C272 1.531 . S
C403 C29 1.505 . S
C421 C137 1.507 . S
C423 C311 1.533 . S
C439 C225 1.507 . S
C441 C378 1.546 . S
C457 C49 1.507 . S
C459 C279 1.546 1_455 S
C477 C332 1.544 1_545 S
C475 C117 1.505 . S
C493 C205 1.507 . S
C495 C357 1.529 . S
C513 C318 1.531 . S
C511 C233 1.509 . S
C529 C57 1.507 . S
C531 C371 1.546 . S
C549 C286 1.544 1_655 S
C547 C108 1.509 . S
C567 C325 1.544 1_565 S
C565 C196 1.505 . S
C585 C364 1.531 . S
C583 C20 1.505 . S
C601 C145 1.507 . S
C603 C265 1.529 . S
