# Generated by pormake.
# Topology anh, (6,3)-cn, num edge types: 1
# Building blocks:
#     Node 0, Type 0, BuildingBlock: BETDAH_clean_sbu_0, # of connection points: 6
#     Node 1, Type 0, BuildingBlock: BETDAH_clean_sbu_0, # of connection points: 6
#     Node 2, Type 0, BuildingBlock: BETDAH_clean_sbu_0, # of connection points: 6
#     Node 3, Type 1, BuildingBlock: PAMTOO_clean_linker_0, # of connection points: 3
#     Node 4, Type 1, BuildingBlock: PAMTOO_clean_linker_0, # of connection points: 3
#     Node 5, Type 1, BuildingBlock: PAMTOO_clean_linker_0, # of connection points: 3
#     Node 6, Type 1, BuildingBlock: PAMTOO_clean_linker_0, # of connection points: 3
#     Node 7, Type 1, BuildingBlock: PAMTOO_clean_linker_0, # of connection points: 3
#     Node 8, Type 1, BuildingBlock: PAMTOO_clean_linker_0, # of connection points: 3
#     Edge 9, Type (0, 1), BuildingBlock: KIFKEQ_clean_linker_1, # of connection points: 2
#     Edge 10, Type (0, 1), BuildingBlock: KIFKEQ_clean_linker_1, # of connection points: 2
#     Edge 11, Type (0, 1), BuildingBlock: KIFKEQ_clean_linker_1, # of connection points: 2
#     Edge 12, Type (0, 1), BuildingBlock: KIFKEQ_clean_linker_1, # of connection points: 2
#     Edge 13, Type (0, 1), BuildingBlock: KIFKEQ_clean_linker_1, # of connection points: 2
#     Edge 14, Type (0, 1), BuildingBlock: KIFKEQ_clean_linker_1, # of connection points: 2
#     Edge 15, Type (0, 1), BuildingBlock: KIFKEQ_clean_linker_1, # of connection points: 2
#     Edge 16, Type (0, 1), BuildingBlock: KIFKEQ_clean_linker_1, # of connection points: 2
#     Edge 17, Type (0, 1), BuildingBlock: KIFKEQ_clean_linker_1, # of connection points: 2
#     Edge 18, Type (0, 1), BuildingBlock: KIFKEQ_clean_linker_1, # of connection points: 2
#     Edge 19, Type (0, 1), BuildingBlock: KIFKEQ_clean_linker_1, # of connection points: 2
#     Edge 20, Type (0, 1), BuildingBlock: KIFKEQ_clean_linker_1, # of connection points: 2
#     Edge 21, Type (0, 1), BuildingBlock: KIFKEQ_clean_linker_1, # of connection points: 2
#     Edge 22, Type (0, 1), BuildingBlock: KIFKEQ_clean_linker_1, # of connection points: 2
#     Edge 23, Type (0, 1), BuildingBlock: KIFKEQ_clean_linker_1, # of connection points: 2
#     Edge 24, Type (0, 1), BuildingBlock: KIFKEQ_clean_linker_1, # of connection points: 2
#     Edge 25, Type (0, 1), BuildingBlock: KIFKEQ_clean_linker_1, # of connection points: 2
#     Edge 26, Type (0, 1), BuildingBlock: KIFKEQ_clean_linker_1, # of connection points: 2
# Relax obj value: 0.164
# Max RMSD: 0.186
# Mean RMSD: 0.126
data_MOF--net-anh--node1-BETDAH_clean_sbu_0--node2-PAMTOO_clean_linker_0--edge1-KIFKEQ_clean_linker_1
_symmetry_space_group_name_H-M    P1
_symmetry_Int_Tables_number       1
_symmetry_cell_setting            triclinic
loop_
_symmetry_equiv_pos_as_xyz
'x, y, z'
_cell_length_a     32.351485
_cell_length_b     38.434275
_cell_length_c     50.009387
_cell_angle_alpha  88.132995
_cell_angle_beta   91.914119
_cell_angle_gamma 130.1396
loop_
_atom_site_label
_atom_site_type_symbol
_atom_site_fract_x
_atom_site_fract_y
_atom_site_fract_z
_atom_type_partial_charge
Ho0 Ho 0.10716 0.48208 0.15541 0.0
Ho1 Ho 1.05097 0.51768 0.15095 0.0
C2 C 0.1787 0.59287 0.15214 0.0
C3 C 0.17398 0.46832 0.15454 0.0
C4 C 0.23227 0.50359 0.15775 0.0
C5 C 0.26136 0.54308 0.14152 0.0
C6 C 0.31707 0.57644 0.14494 0.0
C7 C 0.34437 0.56991 0.16409 0.0
C8 C 0.31349 0.53393 0.18298 0.0
C9 C 0.2581 0.50058 0.17943 0.0
C10 C 0.07097 0.48497 0.20224 0.0
C11 C 0.98026 0.40793 0.1493 0.0
C12 C 0.99872 0.54126 0.16753 0.0
C13 C 0.94044 0.50992 0.17156 0.0
C14 C 0.918 0.47941 0.1936 0.0
C15 C 0.86279 0.44259 0.19414 0.0
C16 C 0.82967 0.43581 0.17264 0.0
C17 C 0.85204 0.46709 0.15105 0.0
C18 C 0.90675 0.504 0.15065 0.0
C19 C 1.06608 0.50817 0.09952 0.0
O20 O 0.17936 0.55885 0.15566 0.0
O21 O 0.13292 0.58504 0.14918 0.0
O22 O 0.14724 0.46083 0.17596 0.0
O23 O 0.15248 0.47038 0.13256 0.0
O24 O 1.06254 0.44935 0.19383 0.0
O25 O 0.09559 0.5162 0.18459 0.0
O26 O 0.97998 0.44133 0.15478 0.0
O27 O 1.02604 0.4168 0.14441 0.0
O28 O 1.01336 0.54707 0.14262 0.0
O29 O 1.02593 0.53495 0.18371 0.0
O30 O 1.04237 0.5234 0.10671 0.0
O31 O 0.08122 0.49857 0.12007 0.0
H32 H 0.24157 0.54752 0.12557 0.0
H33 H 0.33933 0.60451 0.13068 0.0
H34 H 0.33219 0.528 0.19871 0.0
H35 H 0.23569 0.47163 0.19312 0.0
H36 H 0.94317 0.4831 0.21004 0.0
H37 H 0.84589 0.41969 0.21131 0.0
H38 H 0.82694 0.46384 0.1347 0.0
H39 H 0.92296 0.52694 0.13346 0.0
Ho40 Ho 0.67753 0.01991 0.47772 0.0
Ho41 Ho 0.6118 0.04631 0.47102 0.0
C42 C 0.54509 0.94106 0.47214 0.0
C43 C 0.71144 0.97648 0.48995 0.0
C44 C 0.68547 0.92787 0.48817 0.0
C45 C 0.65669 0.89804 0.50995 0.0
C46 C 0.63656 0.85327 0.50926 0.0
C47 C 0.64467 0.83759 0.48679 0.0
C48 C 0.67002 0.86612 0.46432 0.0
C49 C 0.6904 0.91103 0.465 0.0
C50 C 0.66271 0.03433 0.42638 0.0
C51 C 0.74402 0.12562 0.47674 0.0
C52 C 0.58116 0.09085 0.45553 0.0
C53 C 0.60644 0.13868 0.45978 0.0
C54 C 0.62359 0.16846 0.43773 0.0
C55 C 0.64294 0.21265 0.44135 0.0
C56 C 0.64539 0.22734 0.46706 0.0
C57 C 0.63298 0.19912 0.48929 0.0
C58 C 0.6138 0.15511 0.48571 0.0
C59 C 0.62182 0.02981 0.5226 0.0
O60 O 0.59094 0.95232 0.48187 0.0
O61 O 0.54419 0.97286 0.46236 0.0
O62 O 0.72243 0.99859 0.46731 0.0
O63 O 0.69206 0.98684 0.50759 0.0
O64 O 0.70888 0.04901 0.43624 0.0
O65 O 0.62714 1.01274 0.44395 0.0
O66 O 0.69731 0.11368 0.46836 0.0
O67 O 0.74683 0.09428 0.48524 0.0
O68 O 0.56142 0.06389 0.47661 0.0
O69 O 0.60769 0.08465 0.44011 0.0
O70 O 0.57806 0.019 0.51173 0.0
O71 O 0.65984 0.05136 0.50594 0.0
H72 H 0.65169 0.90976 0.52799 0.0
H73 H 0.61769 0.83172 0.52691 0.0
H74 H 0.6774 0.85467 0.447 0.0
H75 H 0.71197 0.933 0.4478 0.0
H76 H 0.61965 0.15686 0.41762 0.0
H77 H 0.65196 0.23402 0.42401 0.0
H78 H 0.63416 0.20993 0.50925 0.0
H79 H 0.60244 0.13344 0.5032 0.0
Ho80 Ho 0.71863 0.62287 0.82384 0.0
Ho81 Ho 0.64192 0.52316 0.82507 0.0
C82 C 0.58378 0.56773 0.8277 0.0
C83 C 0.76293 0.70619 0.81318 0.0
C84 C 0.74149 0.73051 0.81376 0.0
C85 C 0.71604 0.73193 0.79092 0.0
C86 C 0.69745 0.75608 0.79108 0.0
C87 C 0.70378 0.7792 0.81404 0.0
C88 C 0.72687 0.77628 0.83729 0.0
C89 C 0.74586 0.7523 0.83712 0.0
C90 C 0.69397 0.58509 0.8724 0.0
C91 C 0.77662 0.57773 0.8266 0.0
C92 C 0.59679 0.43992 0.83656 0.0
C93 C 0.61525 0.41353 0.83427 0.0
C94 C 0.63345 0.40426 0.85709 0.0
C95 C 0.64982 0.37851 0.85516 0.0
C96 C 0.64802 0.36128 0.83038 0.0
C97 C 0.63155 0.37191 0.80744 0.0
C98 C 0.61535 0.3977 0.80935 0.0
C99 C 0.65961 0.55935 0.7759 0.0
O100 O 0.63411 0.6063 0.82217 0.0
O101 O 0.57703 0.5299 0.83237 0.0
O102 O 0.76881 0.69286 0.8363 0.0
O103 O 0.7429 0.67546 0.79465 0.0
O104 O 0.7428 0.62064 0.86623 0.0
O105 O 0.66185 0.57318 0.85327 0.0
O106 O 0.72529 0.53888 0.82854 0.0
O107 O 0.78519 0.61653 0.82271 0.0
O108 O 0.58721 0.45238 0.81414 0.0
O109 O 0.62224 0.47211 0.85441 0.0
O110 O 0.6127 0.52387 0.78432 0.0
O111 O 0.696 0.57293 0.79347 0.0
H112 H 0.71152 0.71524 0.77268 0.0
H113 H 0.67979 0.75808 0.77292 0.0
H114 H 0.73266 0.79439 0.8551 0.0
H115 H 0.76501 0.7517 0.85511 0.0
H116 H 0.63441 0.41644 0.87653 0.0
H117 H 0.663 0.37143 0.87315 0.0
H118 H 0.62897 0.35872 0.78808 0.0
H119 H 0.60198 0.40445 0.79129 0.0
H120 H 0.68002 0.10628 0.22308 0.0
H121 H 0.54208 0.96263 0.22223 0.0
H122 H 0.61107 0.03702 0.14838 0.0
H123 H 0.48074 0.95234 0.14853 0.0
C124 C 0.48284 0.93531 0.16628 0.0
O125 O 0.53644 0.955 0.17086 0.0
H126 H 0.46713 0.94097 0.18359 0.0
C127 C 0.64894 0.07537 0.2124 0.0
C128 C 0.64932 0.07703 0.18434 0.0
C129 C 0.6106 0.03456 0.22663 0.0
C130 C 0.57251 0.99457 0.21203 0.0
C131 C 0.57239 0.99503 0.18398 0.0
C132 C 0.61084 0.0365 0.17004 0.0
H133 H 0.63424 0.60336 0.57156 0.0
H134 H 0.65791 0.50516 0.57294 0.0
H135 H 0.64243 0.55365 0.49781 0.0
H136 H 0.5888 0.4606 0.49398 0.0
C137 C 0.60489 0.45547 0.51229 0.0
O138 O 0.65159 0.49685 0.52079 0.0
H139 H 0.57345 0.43946 0.52798 0.0
C140 C 0.6379 0.5812 0.56109 0.0
C141 C 0.63681 0.58118 0.53308 0.0
C142 C 0.64658 0.55457 0.57562 0.0
C143 C 0.65215 0.52655 0.56194 0.0
C144 C 0.64957 0.5257 0.53393 0.0
C145 C 0.64318 0.55376 0.5195 0.0
H146 H 1.06401 0.55455 0.89691 0.0
H147 H 0.18866 0.54588 0.89727 0.0
H148 H 0.14044 0.57214 0.82219 0.0
H149 H 0.2445 0.54628 0.87585 0.0
C150 C 0.2581 0.5687 0.85793 0.0
O151 O 0.21054 0.55831 0.84505 0.0
H152 H 0.28325 0.60378 0.86581 0.0
C153 C 0.09311 0.55612 0.88548 0.0
C154 C 0.09605 0.56439 0.85769 0.0
C155 C 0.12657 0.54995 0.89923 0.0
C156 C 0.16473 0.55133 0.88545 0.0
C157 C 0.17242 0.55958 0.85756 0.0
C158 C 0.13676 0.5661 0.84359 0.0
H159 H 1.02227 0.43351 0.40873 0.0
H160 H 0.1724 0.57199 0.40746 0.0
H161 H 0.11128 0.49731 0.48197 0.0
H162 H 0.17749 0.603 0.48954 0.0
C163 C 0.19099 0.61123 0.46844 0.0
O164 O 0.19001 0.57719 0.4589 0.0
H165 H 0.16176 0.61236 0.45694 0.0
C166 C 1.05715 0.46305 0.41904 0.0
C167 C 1.06193 0.46026 0.44687 0.0
C168 C 0.09685 0.50275 0.40434 0.0
C169 C 0.141 0.5411 0.41827 0.0
C170 C 0.14609 0.53968 0.44621 0.0
C171 C 0.10684 0.49886 0.4605 0.0
H172 H 0.64361 0.97239 0.72958 0.0
H173 H 0.6533 0.08985 0.72742 0.0
H174 H 0.65513 0.03424 0.80268 0.0
H175 H 0.58835 0.06314 0.80094 0.0
C176 C 0.61182 0.09123 0.78586 0.0
O177 O 0.65697 0.09704 0.77924 0.0
H178 H 0.58583 0.0821 0.76776 0.0
C179 C 0.64607 0.99824 0.73965 0.0
C180 C 0.64881 0.99948 0.76772 0.0
C181 C 0.64753 0.03062 0.72465 0.0
C182 C 0.65113 0.06393 0.73836 0.0
C183 C 0.65296 0.06466 0.76637 0.0
C184 C 0.6521 0.03264 0.78103 0.0
H185 H 0.66976 0.51326 0.07105 0.0
H186 H 0.51628 0.48138 0.05867 0.0
H187 H 0.56699 0.47533 0.13746 0.0
H188 H 0.47133 0.40555 0.12901 0.0
C189 C 0.45181 0.41759 0.11823 0.0
O190 O 0.4896 0.46146 0.1084 0.0
H191 H 0.42626 0.39397 0.10158 0.0
C192 C 0.63405 0.50594 0.07902 0.0
C193 C 0.62258 0.49472 0.10611 0.0
C194 C 0.59608 0.50169 0.06175 0.0
C195 C 0.54746 0.48733 0.0719 0.0
C196 C 0.53775 0.47848 0.09912 0.0
C197 C 0.57663 0.48494 0.11654 0.0
H198 H 0.38906 0.58322 0.1149 0.0
H199 H 0.42824 0.59461 0.19892 0.0
H200 H 0.41028 0.5342 0.10963 0.0
H201 H 0.44575 0.54256 0.19447 0.0
H202 H 0.47962 0.44772 0.16923 0.0
H203 H 0.47675 0.50681 0.18078 0.0
H204 H 0.34967 0.45595 0.12144 0.0
H205 H 0.35609 0.39924 0.1087 0.0
C206 C 0.40452 0.57697 0.13226 0.0
C207 C 0.39914 0.58653 0.15822 0.0
C208 C 0.41475 0.54729 0.12933 0.0
C209 C 0.42365 0.53044 0.15218 0.0
C210 C 0.43571 0.55258 0.17662 0.0
C211 C 0.42691 0.58344 0.17906 0.0
C212 C 0.44875 0.44748 0.15986 0.0
C213 C 0.42007 0.42082 0.1372 0.0
C214 C 0.44809 0.48222 0.16599 0.0
C215 C 0.41598 0.48823 0.15058 0.0
C216 C 0.37779 0.45421 0.13236 0.0
C217 C 0.37965 0.42038 0.12579 0.0
H218 H 0.84818 0.16984 0.49689 0.0
H219 H 0.75085 0.19482 0.45468 0.0
H220 H 0.92538 0.25148 0.49585 0.0
H221 H 0.82724 0.27458 0.45187 0.0
H222 H 0.95806 0.42209 0.45669 0.0
H223 H 0.88344 0.3434 0.46851 0.0
H224 H 0.99449 0.31658 0.4754 0.0
H225 H 0.06932 0.39671 0.46564 0.0
C226 C 0.84323 0.19264 0.48728 0.0
C227 C 0.7928 0.17534 0.47608 0.0
C228 C 0.88785 0.23983 0.48647 0.0
C229 C 0.88367 0.27115 0.47406 0.0
C230 C 0.83304 0.25308 0.46255 0.0
C231 C 0.78863 0.20646 0.46381 0.0
C232 C 0.96653 0.39956 0.46168 0.0
C233 C 1.0196 0.41571 0.46044 0.0
C234 C 0.92338 0.35373 0.46784 0.0
C235 C 0.93142 0.32185 0.47199 0.0
C236 C 0.98546 0.33905 0.47235 0.0
C237 C 1.02886 0.38534 0.46678 0.0
H238 H 0.75386 0.8518 0.78125 0.0
H239 H 0.63316 0.78018 0.84253 0.0
H240 H 0.73992 0.90659 0.77616 0.0
H241 H 0.61889 0.83588 0.8376 0.0
H242 H 0.56955 0.91215 0.78514 0.0
H243 H 0.58246 0.859 0.80233 0.0
H244 H 0.75566 0.96778 0.80062 0.0
H245 H 0.74235 0.02 0.78313 0.0
C246 C 0.72435 0.84803 0.79368 0.0
C247 C 0.69437 0.81192 0.81212 0.0
C248 C 0.71675 0.87965 0.79103 0.0
C249 C 0.6788 0.87591 0.80673 0.0
C250 C 0.64852 0.83961 0.8253 0.0
C251 C 0.65668 0.80797 0.82818 0.0
C252 C 0.61015 0.9245 0.78903 0.0
C253 C 0.65511 0.96961 0.78266 0.0
C254 C 0.6176 0.89436 0.79898 0.0
C255 C 0.67009 0.9091 0.8023 0.0
C256 C 0.71476 0.95527 0.79778 0.0
C257 C 0.70729 0.98519 0.78793 0.0
H258 H 0.76936 0.42669 0.21282 0.0
H259 H 0.75705 0.37242 0.13618 0.0
H260 H 0.69508 0.42503 0.20042 0.0
H261 H 0.68665 0.37429 0.12257 0.0
H262 H 0.59677 0.4166 0.09304 0.0
H263 H 0.61736 0.37393 0.11748 0.0
H264 H 0.71455 0.48427 0.1739 0.0
H265 H 0.68873 0.52458 0.1504 0.0
C266 C 0.74838 0.41157 0.19393 0.0
C267 C 0.77076 0.4028 0.17454 0.0
C268 C 0.70684 0.41191 0.18649 0.0
C269 C 0.68812 0.40327 0.15979 0.0
C270 C 0.70099 0.38269 0.1431 0.0
C271 C 0.74124 0.38099 0.15098 0.0
C272 C 0.62264 0.43148 0.11072 0.0
C273 C 0.64253 0.474 0.11973 0.0
C274 C 0.63421 0.407 0.12482 0.0
C275 C 0.66753 0.42529 0.14776 0.0
C276 C 0.68744 0.46826 0.15676 0.0
C277 C 0.67414 0.49212 0.14304 0.0
H278 H 0.52913 0.86592 0.49277 0.0
H279 H 0.44635 0.90495 0.44981 0.0
H280 H 0.44766 0.78623 0.49036 0.0
H281 H 0.36434 0.82584 0.44835 0.0
H282 H 0.23216 0.67812 0.42962 0.0
H283 H 0.31816 0.75581 0.42968 0.0
H284 H 0.36183 0.72798 0.50514 0.0
H285 H 0.27651 0.64972 0.50416 0.0
C286 C 0.49346 0.85756 0.48287 0.0
C287 C 0.49471 0.89215 0.47137 0.0
C288 C 0.44624 0.81159 0.48166 0.0
C289 C 0.39855 0.79863 0.46898 0.0
C290 C 0.39999 0.83358 0.45775 0.0
C291 C 0.44721 0.87942 0.45885 0.0
C292 C 0.2606 0.68855 0.446 0.0
C293 C 0.24724 0.65786 0.46702 0.0
C294 C 0.30988 0.73348 0.44629 0.0
C295 C 0.34745 0.74934 0.46771 0.0
C296 C 0.33475 0.71771 0.48816 0.0
C297 C 0.28555 0.67264 0.48773 0.0
H298 H 0.70154 0.35614 0.79147 0.0
H299 H 0.61576 0.29197 0.86522 0.0
H300 H 0.7001 0.29337 0.78382 0.0
H301 H 0.61817 0.23102 0.85885 0.0
H302 H 0.55335 0.0989 0.81884 0.0
H303 H 0.57133 0.16742 0.83296 0.0
H304 H 0.72418 0.24953 0.79198 0.0
H305 H 0.70383 0.1806 0.77637 0.0
C306 C 0.68334 0.32902 0.80634 0.0
C307 C 0.65772 0.32858 0.82864 0.0
C308 C 0.68312 0.29315 0.80216 0.0
C309 C 0.65791 0.25624 0.82042 0.0
C310 C 0.63645 0.25796 0.84388 0.0
C311 C 0.63594 0.29347 0.84782 0.0
C312 C 0.59105 0.13169 0.81319 0.0
C313 C 0.62747 0.13434 0.79694 0.0
C314 C 0.60179 0.17117 0.82147 0.0
C315 C 0.64953 0.21448 0.81381 0.0
C316 C 0.68667 0.217 0.79804 0.0
C317 C 0.67536 0.1774 0.78934 0.0
H318 H 0.56576 0.75239 0.46614 0.0
H319 H 0.71303 0.83251 0.51346 0.0
H320 H 0.56159 0.68617 0.47133 0.0
H321 H 0.70886 0.76742 0.51922 0.0
H322 H 0.72012 0.66178 0.51185 0.0
H323 H 0.71975 0.72183 0.49497 0.0
H324 H 0.54681 0.63293 0.50606 0.0
H325 H 0.54765 0.57249 0.52233 0.0
C326 C 0.59707 0.75558 0.47757 0.0
C327 C 0.63968 0.79696 0.48949 0.0
C328 C 0.59475 0.71796 0.4806 0.0
C329 C 0.63538 0.72178 0.49532 0.0
C330 C 0.6777 0.76352 0.50716 0.0
C331 C 0.67983 0.80066 0.5042 0.0
C332 C 0.682 0.65492 0.50988 0.0
C333 C 0.63401 0.61317 0.51837 0.0
C334 C 0.68169 0.68923 0.50049 0.0
C335 C 0.63339 0.68243 0.49976 0.0
C336 C 0.58463 0.63923 0.50642 0.0
C337 C 0.58503 0.6048 0.51583 0.0
H338 H 0.77903 0.50626 0.81955 0.0
H339 H 0.88743 0.64778 0.8398 0.0
H340 H 0.85356 0.50476 0.82387 0.0
H341 H 0.96213 0.64663 0.84439 0.0
H342 H 0.09063 0.63177 0.86941 0.0
H343 H 1.01841 0.63517 0.86204 0.0
H344 H 0.92955 0.51311 0.81559 0.0
H345 H 1.00243 0.50979 0.82355 0.0
C346 C 0.81872 0.53747 0.82494 0.0
C347 C 0.82514 0.57723 0.82905 0.0
C348 C 0.86274 0.53672 0.82737 0.0
C349 C 0.91675 0.57551 0.83462 0.0
C350 C 0.92281 0.61522 0.83894 0.0
C351 C 0.87895 0.61611 0.83607 0.0
C352 C 1.05665 0.60616 0.85682 0.0
C353 C 1.05557 0.57147 0.84642 0.0
C354 C 1.01376 0.60788 0.85263 0.0
C355 C 0.96526 0.57451 0.83798 0.0
C356 C 0.96441 0.53996 0.82719 0.0
C357 C 1.00772 0.53841 0.83134 0.0
H358 H 0.1904 0.66461 0.13143 0.0
H359 H 0.28108 0.63261 0.17356 0.0
H360 H 0.26627 0.74471 0.13473 0.0
H361 H 0.35955 0.71453 0.17611 0.0
H362 H 0.46454 0.86877 0.20064 0.0
H363 H 0.39588 0.78571 0.19646 0.0
H364 H 0.35035 0.80393 0.11838 0.0
H365 H 0.41704 0.88599 0.12317 0.0
C366 C 0.22701 0.67466 0.14117 0.0
C367 C 0.22924 0.64174 0.15221 0.0
C368 C 0.27121 0.72111 0.14283 0.0
C369 C 0.32002 0.7369 0.15541 0.0
C370 C 0.32279 0.70399 0.16632 0.0
C371 C 0.27798 0.65692 0.16461 0.0
C372 C 0.44025 0.85474 0.18246 0.0
C373 C 0.44655 0.88408 0.16218 0.0
C374 C 0.40086 0.80706 0.17999 0.0
C375 C 0.36651 0.78746 0.15721 0.0
C376 C 0.37472 0.81718 0.13655 0.0
C377 C 0.41367 0.86454 0.13909 0.0
H378 H 0.73158 0.31941 0.46912 0.0
H379 H 0.5577 0.21835 0.47229 0.0
H380 H 0.72667 0.37895 0.47977 0.0
H381 H 0.55239 0.2768 0.48237 0.0
H382 H 0.56262 0.37328 0.53523 0.0
H383 H 0.57832 0.32188 0.52295 0.0
H384 H 0.68995 0.41798 0.46234 0.0
H385 H 0.67446 0.46995 0.47501 0.0
C386 C 0.69254 0.31031 0.47177 0.0
C387 C 0.64496 0.26478 0.47028 0.0
C388 C 0.68964 0.34405 0.47778 0.0
C389 C 0.63918 0.33213 0.48246 0.0
C390 C 0.59184 0.28674 0.47955 0.0
C391 C 0.59476 0.25342 0.47362 0.0
C392 C 0.59074 0.3835 0.51943 0.0
C393 C 0.61702 0.42517 0.50584 0.0
C394 C 0.59964 0.35414 0.51233 0.0
C395 C 0.6348 0.36581 0.49145 0.0
C396 C 0.66273 0.40829 0.47851 0.0
C397 C 0.65369 0.43774 0.48561 0.0
H398 H 0.57618 0.63632 0.81619 0.0
H399 H 0.47651 0.49754 0.84409 0.0
H400 H 0.49993 0.63487 0.81928 0.0
H401 H 0.40014 0.49558 0.84755 0.0
H402 H 0.25686 0.4941 0.85689 0.0
H403 H 0.33036 0.49341 0.84955 0.0
H404 H 0.43124 0.63391 0.82369 0.0
H405 H 0.35715 0.63388 0.83125 0.0
C406 C 0.53804 0.6051 0.82305 0.0
C407 C 0.53463 0.56706 0.8297 0.0
C408 C 0.49283 0.60408 0.82492 0.0
C409 C 0.44039 0.56495 0.83372 0.0
C410 C 0.43755 0.527 0.84047 0.0
C411 C 0.48266 0.52802 0.83847 0.0
C412 C 0.29389 0.52462 0.84859 0.0
C413 C 0.29816 0.56364 0.84399 0.0
C414 C 0.33792 0.52465 0.84477 0.0
C415 C 0.39038 0.56388 0.83615 0.0
C416 C 0.39365 0.60231 0.83046 0.0
C417 C 0.34958 0.60221 0.83437 0.0
H418 H 0.87337 0.37152 0.14627 0.0
H419 H 0.97204 0.33313 0.15702 0.0
H420 H 0.79237 0.29198 0.1491 0.0
H421 H 0.89259 0.25466 0.16233 0.0
H422 H 0.74538 0.10821 0.16398 0.0
H423 H 0.82237 0.18605 0.1521 0.0
H424 H 0.72791 0.22686 0.1676 0.0
H425 H 0.6508 0.14828 0.1775 0.0
C426 C 0.87776 0.34601 0.14937 0.0
C427 C 0.92955 0.35904 0.15097 0.0
C428 C 0.83087 0.29977 0.15134 0.0
C429 C 0.83397 0.26485 0.15588 0.0
C430 C 0.88644 0.27873 0.15794 0.0
C431 C 0.93297 0.32459 0.15515 0.0
C432 C 0.7409 0.13384 0.1638 0.0
C433 C 0.69174 0.12196 0.17117 0.0
C434 C 0.78582 0.17931 0.15765 0.0
C435 C 0.78366 0.21491 0.15938 0.0
C436 C 0.73299 0.20193 0.16569 0.0
C437 C 0.688 0.15634 0.17142 0.0
H438 H 0.129 0.58554 0.07034 0.0
H439 H 1.03978 0.44138 0.0652 0.0
H440 H 0.14636 0.59472 0.02281 0.0
H441 H 1.05865 0.45008 0.01726 0.0
H442 H 1.04797 0.4725 0.92696 0.0
H443 H 1.03811 0.46093 0.9754 0.0
H444 H 0.18775 0.59881 0.98632 0.0
H445 H 0.19533 0.61013 0.93795 0.0
C446 C 0.11414 0.55583 0.05897 0.0
C447 C 0.08354 0.5129 0.07155 0.0
C448 C 0.12438 0.56102 0.03151 0.0
C449 C 0.10407 0.52325 0.01548 0.0
C450 C 0.07456 0.48016 0.02844 0.0
C451 C 1.06438 0.47507 0.05612 0.0
C452 C 0.0784 0.50022 0.93991 0.0
C453 C 0.12198 0.54234 0.92879 0.0
C454 C 0.07326 0.49357 0.96782 0.0
C455 C 0.11168 0.52897 0.98546 0.0
C456 C 0.15624 0.57079 0.97392 0.0
C457 C 0.16113 0.57737 0.94605 0.0
H458 H 0.56788 0.97339 0.39926 0.0
H459 H 0.73174 0.09843 0.38924 0.0
H460 H 0.55037 0.97322 0.35118 0.0
H461 H 0.71385 0.09899 0.34127 0.0
H462 H 0.64214 0.10291 0.26113 0.0
H463 H 0.65252 0.10392 0.30956 0.0
H464 H 0.58856 0.96486 0.3094 0.0
H465 H 0.58165 0.96433 0.26087 0.0
C466 C 0.59991 1.00107 0.38677 0.0
C467 C 0.65133 0.03574 0.39777 0.0
C468 C 0.58994 1.00089 0.35932 0.0
C469 C 0.6308 0.03602 0.34253 0.0
C470 C 0.6816 0.07158 0.35378 0.0
C471 C 0.69196 0.07114 0.38112 0.0
C472 C 0.631 0.07261 0.27117 0.0
C473 C 0.61184 0.03376 0.25662 0.0
C474 C 0.63651 0.07319 0.29904 0.0
C475 C 0.62155 0.03456 0.31319 0.0
C476 C 0.60008 0.99506 0.29897 0.0
C477 C 0.59581 0.99478 0.27105 0.0
H478 H 0.73566 0.57215 0.7445 0.0
H479 H 0.60272 0.57241 0.74346 0.0
H480 H 0.73495 0.57287 0.69595 0.0
H481 H 0.60524 0.57859 0.6951 0.0
H482 H 0.57006 0.53166 0.61051 0.0
H483 H 0.57828 0.53847 0.65871 0.0
H484 H 0.74598 0.59711 0.65428 0.0
H485 H 0.73462 0.58525 0.60628 0.0
C486 C 0.70765 0.57415 0.73369 0.0
C487 C 0.66887 0.57171 0.74742 0.0
C488 C 0.7071 0.5747 0.70568 0.0
C489 C 0.66879 0.57434 0.6909 0.0
C490 C 0.63356 0.5764 0.70521 0.0
C491 C 0.63274 0.57391 0.73308 0.0
C492 C 0.60828 0.54539 0.62013 0.0
C493 C 0.65153 0.55755 0.60498 0.0
C494 C 0.61368 0.55027 0.64785 0.0
C495 C 0.66331 0.56918 0.66107 0.0
C496 C 0.70672 0.58164 0.64545 0.0
C497 C 0.70054 0.57517 0.6178 0.0
H498 H 0.54295 0.99003 0.55912 0.0
H499 H 0.71385 0.06265 0.55231 0.0
H500 H 0.55089 0.98897 0.60749 0.0
H501 H 0.72207 0.06204 0.6014 0.0
H502 H 0.69847 0.01379 0.69109 0.0
H503 H 0.69405 1.01172 0.64216 0.0
H504 H 0.59052 0.04604 0.64197 0.0
H505 H 0.59313 0.04634 0.69059 0.0
C506 C 0.58236 1.00578 0.56799 0.0
C507 C 0.62793 0.02702 0.5519 0.0
C508 C 0.58694 1.00537 0.59579 0.0
C509 C 0.63726 0.02617 0.60837 0.0
C510 C 0.68272 0.0458 0.5923 0.0
C511 C 0.67811 0.04633 0.56424 0.0
C512 C 0.67433 0.02044 0.68058 0.0
C513 C 0.64593 0.03004 0.69483 0.0
C514 C 0.67237 0.01979 0.65253 0.0
C515 C 0.64173 0.02847 0.63813 0.0
C516 C 0.61391 0.03854 0.65242 0.0
C517 C 0.61589 0.03923 0.68034 0.0
H518 H 0.7529 0.58699 0.91316 0.0
H519 H 0.59325 0.53794 0.89061 0.0
H520 H 0.72115 0.55644 0.95857 0.0
H521 H 0.56203 0.50822 0.93579 0.0
H522 H 0.57896 0.54682 0.0268 0.0
H523 H 0.5958 0.55761 0.97882 0.0
H524 H 0.64758 0.47831 0.9839 0.0
H525 H 0.62955 0.46648 0.03181 0.0
C526 C 0.71117 0.5695 0.91799 0.0
C527 C 0.6756 0.5652 0.89892 0.0
C528 C 0.69293 0.5517 0.94363 0.0
C529 C 0.63942 0.53037 0.95029 0.0
C530 C 0.60345 0.5247 0.93088 0.0
C531 C 0.62136 0.54172 0.90522 0.0
C532 C 0.59322 0.53123 0.01754 0.0
C533 C 0.60416 0.50674 0.03285 0.0
C534 C 0.60254 0.53717 0.99025 0.0
C535 C 0.62312 0.51885 0.97812 0.0
C536 C 0.63223 0.493 -0.00683 0.0
C537 C 0.62247 0.48672 0.02043 0.0
H538 H 0.14111 0.56302 0.23132 0.0
H539 H 0.99842 0.42177 0.23836 0.0
H540 H 0.14694 0.56942 0.28012 0.0
H541 H 1.00196 0.42841 0.2868 0.0
H542 H 1.06217 0.43385 0.37045 0.0
H543 H 1.05304 0.43225 0.32225 0.0
H544 H 0.11365 0.57064 0.3214 0.0
H545 H 0.12303 0.57221 0.37016 0.0
C546 C 0.11013 0.5337 0.24331 0.0
C547 C 0.06952 0.49178 0.2311 0.0
C548 C 0.11336 0.5373 0.27132 0.0
C549 C 0.07553 0.4992 0.2877 0.0
C550 C 1.03296 0.45816 0.27511 0.0
C551 C 1.03044 0.45439 0.24726 0.0
C552 C 0.07289 0.46385 0.36014 0.0
C553 C 0.09265 0.50295 0.37444 0.0
C554 C 1.06753 0.46292 0.33229 0.0
C555 C 0.08171 0.50106 0.31763 0.0
C556 C 0.10245 0.5406 0.33184 0.0
C557 C 0.10789 0.54154 0.35988 0.0
loop_
_geom_bond_atom_site_label_1
_geom_bond_atom_site_label_2
_geom_bond_distance
_geom_bond_site_symmetry_2
_ccdc_geom_bond_type
Ho0 C3 2.811 . S
Ho0 O20 2.322 . S
Ho0 O22 2.378 . S
Ho0 O23 2.524 . S
Ho0 O24 2.381 . S
Ho0 O25 2.669 1_455 S
Ho0 O27 2.346 1_455 S
Ho0 O31 2.305 . S
Ho1 C12 2.811 . S
Ho1 O21 2.346 1_655 S
Ho1 O25 2.305 . S
Ho1 O26 2.322 . S
Ho1 O28 2.378 . S
Ho1 O29 2.524 . S
Ho1 O30 2.381 . S
Ho1 O31 2.669 1_655 S
C2 O20 1.259 . S
C2 O21 1.268 . S
C3 Ho0 2.811 . S
C3 C4 1.488 . S
C3 O22 1.215 . S
C3 O23 1.289 . S
C4 C3 1.488 . S
C4 C5 1.348 . S
C4 C9 1.413 . S
C5 C4 1.348 . S
C5 C6 1.442 . S
C5 H32 0.930 . S
C6 C5 1.442 . S
C6 C7 1.381 . S
C6 H33 0.931 . S
C7 C6 1.381 . S
C7 C8 1.321 . S
C8 C7 1.321 . S
C8 C9 1.403 . S
C8 H34 0.934 . S
C9 C4 1.413 . S
C9 C8 1.403 . S
C9 H35 0.930 . S
C10 O24 1.275 . S
C10 O25 1.256 1_455 S
C11 O26 1.259 . S
C11 O27 1.268 . S
C12 Ho1 2.811 . S
C12 C13 1.488 . S
C12 O28 1.215 . S
C12 O29 1.289 . S
C13 C12 1.488 . S
C13 C14 1.348 . S
C13 C18 1.413 . S
C14 C13 1.348 . S
C14 C15 1.442 . S
C14 H36 0.930 . S
C15 C14 1.442 . S
C15 C16 1.381 . S
C15 H37 0.931 . S
C16 C15 1.381 . S
C16 C17 1.321 . S
C17 C16 1.321 . S
C17 C18 1.403 . S
C17 H38 0.934 . S
C18 C13 1.413 . S
C18 C17 1.403 . S
C18 H39 0.930 . S
C19 O30 1.275 1_455 S
C19 O31 1.256 . S
O20 Ho0 2.322 . S
O20 C2 1.259 . S
O21 Ho1 2.346 1_455 S
O21 C2 1.268 . S
O22 Ho0 2.378 . S
O22 C3 1.215 . S
O23 Ho0 2.524 . S
O23 C3 1.289 . S
O24 Ho0 2.381 . S
O24 C10 1.275 . S
O25 Ho0 2.669 1_655 S
O25 Ho1 2.305 . S
O25 C10 1.256 1_655 S
O26 Ho1 2.322 . S
O26 C11 1.259 . S
O27 Ho0 2.346 1_655 S
O27 C11 1.268 . S
O28 Ho1 2.378 . S
O28 C12 1.215 . S
O29 Ho1 2.524 . S
O29 C12 1.289 . S
O30 Ho1 2.381 . S
O30 C19 1.275 1_655 S
O31 Ho0 2.305 . S
O31 Ho1 2.669 1_455 S
O31 C19 1.256 . S
H32 C5 0.930 . S
H33 C6 0.931 . S
H34 C8 0.934 . S
H35 C9 0.930 . S
H36 C14 0.930 . S
H37 C15 0.931 . S
H38 C17 0.934 . S
H39 C18 0.930 . S
Ho40 C43 2.786 1_545 S
Ho40 O60 2.318 1_545 S
Ho40 O62 2.353 1_545 S
Ho40 O63 2.504 1_545 S
Ho40 O64 2.384 . S
Ho40 O65 2.689 . S
Ho40 O67 2.366 . S
Ho40 O71 2.318 . S
Ho41 C52 2.811 . S
Ho41 O61 2.346 1_545 S
Ho41 O65 2.305 . S
Ho41 O66 2.322 . S
Ho41 O68 2.378 . S
Ho41 O69 2.524 . S
Ho41 O70 2.381 . S
Ho41 O71 2.669 . S
C42 O60 1.259 . S
C42 O61 1.268 . S
C43 Ho40 2.786 1_565 S
C43 C44 1.488 . S
C43 O62 1.215 . S
C43 O63 1.289 . S
C44 C43 1.488 . S
C44 C45 1.348 . S
C44 C49 1.413 . S
C45 C44 1.348 . S
C45 C46 1.442 . S
C45 H72 0.930 . S
C46 C45 1.442 . S
C46 C47 1.381 . S
C46 H73 0.931 . S
C47 C46 1.381 . S
C47 C48 1.321 . S
C48 C47 1.321 . S
C48 C49 1.403 . S
C48 H74 0.934 . S
C49 C44 1.413 . S
C49 C48 1.403 . S
C49 H75 0.930 . S
C50 O64 1.275 . S
C50 O65 1.256 . S
C51 O66 1.259 . S
C51 O67 1.268 . S
C52 Ho41 2.811 . S
C52 C53 1.488 . S
C52 O68 1.215 . S
C52 O69 1.289 . S
C53 C52 1.488 . S
C53 C54 1.348 . S
C53 C58 1.413 . S
C54 C53 1.348 . S
C54 C55 1.442 . S
C54 H76 0.930 . S
C55 C54 1.442 . S
C55 C56 1.381 . S
C55 H77 0.931 . S
C56 C55 1.381 . S
C56 C57 1.321 . S
C57 C56 1.321 . S
C57 C58 1.403 . S
C57 H78 0.934 . S
C58 C53 1.413 . S
C58 C57 1.403 . S
C58 H79 0.930 . S
C59 O70 1.275 . S
C59 O71 1.256 . S
O60 Ho40 2.318 1_565 S
O60 C42 1.259 . S
O61 Ho41 2.346 1_565 S
O61 C42 1.268 . S
O62 Ho40 2.353 1_565 S
O62 C43 1.215 . S
O63 Ho40 2.504 1_565 S
O63 C43 1.289 . S
O64 Ho40 2.384 . S
O64 C50 1.275 . S
O65 Ho40 2.689 . S
O65 Ho41 2.305 . S
O65 C50 1.256 . S
O66 Ho41 2.322 . S
O66 C51 1.259 . S
O67 Ho40 2.366 . S
O67 C51 1.268 . S
O68 Ho41 2.378 . S
O68 C52 1.215 . S
O69 Ho41 2.524 . S
O69 C52 1.289 . S
O70 Ho41 2.381 . S
O70 C59 1.275 . S
O71 Ho40 2.318 . S
O71 Ho41 2.669 . S
O71 C59 1.256 . S
H72 C45 0.930 . S
H73 C46 0.931 . S
H74 C48 0.934 . S
H75 C49 0.930 . S
H76 C54 0.930 . S
H77 C55 0.931 . S
H78 C57 0.934 . S
H79 C58 0.930 . S
Ho80 C83 2.811 . S
Ho80 O100 2.322 . S
Ho80 O102 2.378 . S
Ho80 O103 2.524 . S
Ho80 O104 2.381 . S
Ho80 O105 2.669 . S
Ho80 O107 2.346 . S
Ho80 O111 2.305 . S
Ho81 C92 2.811 . S
Ho81 O101 2.346 . S
Ho81 O105 2.305 . S
Ho81 O106 2.322 . S
Ho81 O108 2.378 . S
Ho81 O109 2.524 . S
Ho81 O110 2.381 . S
Ho81 O111 2.669 . S
C82 O100 1.259 . S
C82 O101 1.268 . S
C83 Ho80 2.811 . S
C83 C84 1.488 . S
C83 O102 1.215 . S
C83 O103 1.289 . S
C84 C83 1.488 . S
C84 C85 1.348 . S
C84 C89 1.413 . S
C85 C84 1.348 . S
C85 C86 1.442 . S
C85 H112 0.930 . S
C86 C85 1.442 . S
C86 C87 1.381 . S
C86 H113 0.931 . S
C87 C86 1.381 . S
C87 C88 1.321 . S
C88 C87 1.321 . S
C88 C89 1.403 . S
C88 H114 0.934 . S
C89 C84 1.413 . S
C89 C88 1.403 . S
C89 H115 0.930 . S
C90 O104 1.275 . S
C90 O105 1.256 . S
C91 O106 1.259 . S
C91 O107 1.268 . S
C92 Ho81 2.811 . S
C92 C93 1.488 . S
C92 O108 1.215 . S
C92 O109 1.289 . S
C93 C92 1.488 . S
C93 C94 1.348 . S
C93 C98 1.413 . S
C94 C93 1.348 . S
C94 C95 1.442 . S
C94 H116 0.930 . S
C95 C94 1.442 . S
C95 C96 1.381 . S
C95 H117 0.931 . S
C96 C95 1.381 . S
C96 C97 1.321 . S
C97 C96 1.321 . S
C97 C98 1.403 . S
C97 H118 0.934 . S
C98 C93 1.413 . S
C98 C97 1.403 . S
C98 H119 0.930 . S
C99 O110 1.275 . S
C99 O111 1.256 . S
O100 Ho80 2.322 . S
O100 C82 1.259 . S
O101 Ho81 2.346 . S
O101 C82 1.268 . S
O102 Ho80 2.378 . S
O102 C83 1.215 . S
O103 Ho80 2.524 . S
O103 C83 1.289 . S
O104 Ho80 2.381 . S
O104 C90 1.275 . S
O105 Ho80 2.669 . S
O105 Ho81 2.305 . S
O105 C90 1.256 . S
O106 Ho81 2.322 . S
O106 C91 1.259 . S
O107 Ho80 2.346 . S
O107 C91 1.268 . S
O108 Ho81 2.378 . S
O108 C92 1.215 . S
O109 Ho81 2.524 . S
O109 C92 1.289 . S
O110 Ho81 2.381 . S
O110 C99 1.275 . S
O111 Ho80 2.305 . S
O111 Ho81 2.669 . S
O111 C99 1.256 . S
H112 C85 0.930 . S
H113 C86 0.931 . S
H114 C88 0.934 . S
H115 C89 0.930 . S
H116 C94 0.930 . S
H117 C95 0.931 . S
H118 C97 0.934 . S
H119 C98 0.930 . S
H120 C127 0.929 . S
H121 C130 0.930 . S
H122 C132 0.929 . S
H123 C124 0.969 . S
C124 H123 0.969 . S
C124 O125 1.550 . S
C124 H126 0.973 . S
O125 C124 1.550 . S
O125 C131 1.412 . S
H126 C124 0.973 . S
C127 H120 0.929 . S
C127 C128 1.400 . S
C127 C129 1.364 . S
C128 C127 1.400 . S
C128 C132 1.377 . S
C129 C127 1.364 . S
C129 C130 1.374 1_545 S
C130 H121 0.930 . S
C130 C129 1.374 1_565 S
C130 C131 1.383 . S
C131 O125 1.412 . S
C131 C130 1.383 . S
C131 C132 1.394 1_565 S
C132 H122 0.929 . S
C132 C128 1.377 . S
C132 C131 1.394 1_545 S
H133 C140 0.929 . S
H134 C143 0.930 . S
H135 C145 0.929 . S
H136 C137 0.969 . S
C137 H136 0.969 . S
C137 O138 1.550 . S
C137 H139 0.973 . S
O138 C137 1.550 . S
O138 C144 1.412 . S
H139 C137 0.973 . S
C140 H133 0.929 . S
C140 C141 1.400 . S
C140 C142 1.364 . S
C141 C140 1.400 . S
C141 C145 1.377 . S
C142 C140 1.364 . S
C142 C143 1.374 . S
C143 H134 0.930 . S
C143 C142 1.374 . S
C143 C144 1.383 . S
C144 O138 1.412 . S
C144 C143 1.383 . S
C144 C145 1.394 . S
C145 H135 0.929 . S
C145 C141 1.377 . S
C145 C144 1.394 . S
H146 C153 0.929 . S
H147 C156 0.930 . S
H148 C158 0.929 . S
H149 C150 0.969 . S
C150 H149 0.969 . S
C150 O151 1.550 . S
C150 H152 0.973 . S
O151 C150 1.550 . S
O151 C157 1.412 . S
H152 C150 0.973 . S
C153 H146 0.929 . S
C153 C154 1.400 . S
C153 C155 1.364 . S
C154 C153 1.400 . S
C154 C158 1.377 . S
C155 C153 1.364 . S
C155 C156 1.374 . S
C156 H147 0.930 . S
C156 C155 1.374 . S
C156 C157 1.383 . S
C157 O151 1.412 . S
C157 C156 1.383 . S
C157 C158 1.394 . S
C158 H148 0.929 . S
C158 C154 1.377 . S
C158 C157 1.394 . S
H159 C166 0.929 . S
H160 C169 0.930 . S
H161 C171 0.929 . S
H162 C163 0.969 . S
C163 H162 0.969 . S
C163 O164 1.550 . S
C163 H165 0.973 . S
O164 C163 1.550 . S
O164 C170 1.412 . S
H165 C163 0.973 . S
C166 H159 0.929 . S
C166 C167 1.400 . S
C166 C168 1.364 1_655 S
C167 C166 1.400 . S
C167 C171 1.377 1_655 S
C168 C166 1.364 1_455 S
C168 C169 1.374 . S
C169 H160 0.930 . S
C169 C168 1.374 . S
C169 C170 1.383 . S
C170 O164 1.412 . S
C170 C169 1.383 . S
C170 C171 1.394 . S
C171 H161 0.929 . S
C171 C167 1.377 1_455 S
C171 C170 1.394 . S
H172 C179 0.929 . S
H173 C182 0.930 . S
H174 C184 0.929 . S
H175 C176 0.969 . S
C176 H175 0.969 . S
C176 O177 1.550 . S
C176 H178 0.973 . S
O177 C176 1.550 . S
O177 C183 1.412 . S
H178 C176 0.973 . S
C179 H172 0.929 . S
C179 C180 1.400 . S
C179 C181 1.364 1_565 S
C180 C179 1.400 . S
C180 C184 1.377 1_565 S
C181 C179 1.364 1_545 S
C181 C182 1.374 . S
C182 H173 0.930 . S
C182 C181 1.374 . S
C182 C183 1.383 . S
C183 O177 1.412 . S
C183 C182 1.383 . S
C183 C184 1.394 . S
C184 H174 0.929 . S
C184 C180 1.377 1_545 S
C184 C183 1.394 . S
H185 C192 0.929 . S
H186 C195 0.930 . S
H187 C197 0.929 . S
H188 C189 0.969 . S
C189 H188 0.969 . S
C189 O190 1.550 . S
C189 H191 0.973 . S
O190 C189 1.550 . S
O190 C196 1.412 . S
H191 C189 0.973 . S
C192 H185 0.929 . S
C192 C193 1.400 . S
C192 C194 1.364 . S
C193 C192 1.400 . S
C193 C197 1.377 . S
C194 C192 1.364 . S
C194 C195 1.374 . S
C195 H186 0.930 . S
C195 C194 1.374 . S
C195 C196 1.383 . S
C196 O190 1.412 . S
C196 C195 1.383 . S
C196 C197 1.394 . S
C197 H187 0.929 . S
C197 C193 1.377 . S
C197 C196 1.394 . S
H198 C206 0.950 . S
H199 C211 0.950 . S
H200 C208 0.950 . S
H201 C210 0.950 . S
H202 C212 0.950 . S
H203 C214 0.950 . S
H204 C216 0.950 . S
H205 C217 0.950 . S
C206 H198 0.950 . S
C206 C207 1.386 . S
C206 C208 1.391 . S
C207 C206 1.386 . S
C207 C211 1.393 . S
C208 H200 0.950 . S
C208 C206 1.391 . S
C208 C209 1.400 . S
C209 C208 1.400 . S
C209 C210 1.398 . S
C209 C215 1.491 . S
C210 H201 0.950 . S
C210 C209 1.398 . S
C210 C211 1.391 . S
C211 H199 0.950 . S
C211 C207 1.393 . S
C211 C210 1.391 . S
C212 H202 0.950 . S
C212 C213 1.386 . S
C212 C214 1.391 . S
C213 C212 1.386 . S
C213 C217 1.393 . S
C214 H203 0.950 . S
C214 C212 1.391 . S
C214 C215 1.400 . S
C215 C209 1.491 . S
C215 C214 1.400 . S
C215 C216 1.398 . S
C216 H204 0.950 . S
C216 C215 1.398 . S
C216 C217 1.391 . S
C217 H205 0.950 . S
C217 C213 1.393 . S
C217 C216 1.391 . S
H218 C226 0.950 . S
H219 C231 0.950 . S
H220 C228 0.950 . S
H221 C230 0.950 . S
H222 C232 0.950 . S
H223 C234 0.950 . S
H224 C236 0.950 . S
H225 C237 0.950 . S
C226 H218 0.950 . S
C226 C227 1.386 . S
C226 C228 1.391 . S
C227 C226 1.386 . S
C227 C231 1.393 . S
C228 H220 0.950 . S
C228 C226 1.391 . S
C228 C229 1.400 . S
C229 C228 1.400 . S
C229 C230 1.398 . S
C229 C235 1.491 . S
C230 H221 0.950 . S
C230 C229 1.398 . S
C230 C231 1.391 . S
C231 H219 0.950 . S
C231 C227 1.393 . S
C231 C230 1.391 . S
C232 H222 0.950 . S
C232 C233 1.386 . S
C232 C234 1.391 . S
C233 C232 1.386 . S
C233 C237 1.393 . S
C234 H223 0.950 . S
C234 C232 1.391 . S
C234 C235 1.400 . S
C235 C229 1.491 . S
C235 C234 1.400 . S
C235 C236 1.398 . S
C236 H224 0.950 . S
C236 C235 1.398 . S
C236 C237 1.391 . S
C237 H225 0.950 . S
C237 C233 1.393 . S
C237 C236 1.391 . S
H238 C246 0.950 . S
H239 C251 0.950 . S
H240 C248 0.950 . S
H241 C250 0.950 . S
H242 C252 0.950 . S
H243 C254 0.950 . S
H244 C256 0.950 . S
H245 C257 0.950 . S
C246 H238 0.950 . S
C246 C247 1.386 . S
C246 C248 1.391 . S
C247 C246 1.386 . S
C247 C251 1.393 . S
C248 H240 0.950 . S
C248 C246 1.391 . S
C248 C249 1.400 . S
C249 C248 1.400 . S
C249 C250 1.398 . S
C249 C255 1.491 . S
C250 H241 0.950 . S
C250 C249 1.398 . S
C250 C251 1.391 . S
C251 H239 0.950 . S
C251 C247 1.393 . S
C251 C250 1.391 . S
C252 H242 0.950 . S
C252 C253 1.386 . S
C252 C254 1.391 . S
C253 C252 1.386 . S
C253 C257 1.393 . S
C254 H243 0.950 . S
C254 C252 1.391 . S
C254 C255 1.400 . S
C255 C249 1.491 . S
C255 C254 1.400 . S
C255 C256 1.398 . S
C256 H244 0.950 . S
C256 C255 1.398 . S
C256 C257 1.391 . S
C257 H245 0.950 . S
C257 C253 1.393 . S
C257 C256 1.391 . S
H258 C266 0.950 . S
H259 C271 0.950 . S
H260 C268 0.950 . S
H261 C270 0.950 . S
H262 C272 0.950 . S
H263 C274 0.950 . S
H264 C276 0.950 . S
H265 C277 0.950 . S
C266 H258 0.950 . S
C266 C267 1.386 . S
C266 C268 1.391 . S
C267 C266 1.386 . S
C267 C271 1.393 . S
C268 H260 0.950 . S
C268 C266 1.391 . S
C268 C269 1.400 . S
C269 C268 1.400 . S
C269 C270 1.398 . S
C269 C275 1.491 . S
C270 H261 0.950 . S
C270 C269 1.398 . S
C270 C271 1.391 . S
C271 H259 0.950 . S
C271 C267 1.393 . S
C271 C270 1.391 . S
C272 H262 0.950 . S
C272 C273 1.386 . S
C272 C274 1.391 . S
C273 C272 1.386 . S
C273 C277 1.393 . S
C274 H263 0.950 . S
C274 C272 1.391 . S
C274 C275 1.400 . S
C275 C269 1.491 . S
C275 C274 1.400 . S
C275 C276 1.398 . S
C276 H264 0.950 . S
C276 C275 1.398 . S
C276 C277 1.391 . S
C277 H265 0.950 . S
C277 C273 1.393 . S
C277 C276 1.391 . S
H278 C286 0.950 . S
H279 C291 0.950 . S
H280 C288 0.950 . S
H281 C290 0.950 . S
H282 C292 0.950 . S
H283 C294 0.950 . S
H284 C296 0.950 . S
H285 C297 0.950 . S
C286 H278 0.950 . S
C286 C287 1.386 . S
C286 C288 1.391 . S
C287 C286 1.386 . S
C287 C291 1.393 . S
C288 H280 0.950 . S
C288 C286 1.391 . S
C288 C289 1.400 . S
C289 C288 1.400 . S
C289 C290 1.398 . S
C289 C295 1.491 . S
C290 H281 0.950 . S
C290 C289 1.398 . S
C290 C291 1.391 . S
C291 H279 0.950 . S
C291 C287 1.393 . S
C291 C290 1.391 . S
C292 H282 0.950 . S
C292 C293 1.386 . S
C292 C294 1.391 . S
C293 C292 1.386 . S
C293 C297 1.393 . S
C294 H283 0.950 . S
C294 C292 1.391 . S
C294 C295 1.400 . S
C295 C289 1.491 . S
C295 C294 1.400 . S
C295 C296 1.398 . S
C296 H284 0.950 . S
C296 C295 1.398 . S
C296 C297 1.391 . S
C297 H285 0.950 . S
C297 C293 1.393 . S
C297 C296 1.391 . S
H298 C306 0.950 . S
H299 C311 0.950 . S
H300 C308 0.950 . S
H301 C310 0.950 . S
H302 C312 0.950 . S
H303 C314 0.950 . S
H304 C316 0.950 . S
H305 C317 0.950 . S
C306 H298 0.950 . S
C306 C307 1.386 . S
C306 C308 1.391 . S
C307 C306 1.386 . S
C307 C311 1.393 . S
C308 H300 0.950 . S
C308 C306 1.391 . S
C308 C309 1.400 . S
C309 C308 1.400 . S
C309 C310 1.398 . S
C309 C315 1.491 . S
C310 H301 0.950 . S
C310 C309 1.398 . S
C310 C311 1.391 . S
C311 H299 0.950 . S
C311 C307 1.393 . S
C311 C310 1.391 . S
C312 H302 0.950 . S
C312 C313 1.386 . S
C312 C314 1.391 . S
C313 C312 1.386 . S
C313 C317 1.393 . S
C314 H303 0.950 . S
C314 C312 1.391 . S
C314 C315 1.400 . S
C315 C309 1.491 . S
C315 C314 1.400 . S
C315 C316 1.398 . S
C316 H304 0.950 . S
C316 C315 1.398 . S
C316 C317 1.391 . S
C317 H305 0.950 . S
C317 C313 1.393 . S
C317 C316 1.391 . S
H318 C326 0.950 . S
H319 C331 0.950 . S
H320 C328 0.950 . S
H321 C330 0.950 . S
H322 C332 0.950 . S
H323 C334 0.950 . S
H324 C336 0.950 . S
H325 C337 0.950 . S
C326 H318 0.950 . S
C326 C327 1.386 . S
C326 C328 1.391 . S
C327 C326 1.386 . S
C327 C331 1.393 . S
C328 H320 0.950 . S
C328 C326 1.391 . S
C328 C329 1.400 . S
C329 C328 1.400 . S
C329 C330 1.398 . S
C329 C335 1.491 . S
C330 H321 0.950 . S
C330 C329 1.398 . S
C330 C331 1.391 . S
C331 H319 0.950 . S
C331 C327 1.393 . S
C331 C330 1.391 . S
C332 H322 0.950 . S
C332 C333 1.386 . S
C332 C334 1.391 . S
C333 C332 1.386 . S
C333 C337 1.393 . S
C334 H323 0.950 . S
C334 C332 1.391 . S
C334 C335 1.400 . S
C335 C329 1.491 . S
C335 C334 1.400 . S
C335 C336 1.398 . S
C336 H324 0.950 . S
C336 C335 1.398 . S
C336 C337 1.391 . S
C337 H325 0.950 . S
C337 C333 1.393 . S
C337 C336 1.391 . S
H338 C346 0.950 . S
H339 C351 0.950 . S
H340 C348 0.950 . S
H341 C350 0.950 . S
H342 C352 0.950 . S
H343 C354 0.950 . S
H344 C356 0.950 . S
H345 C357 0.950 . S
C346 H338 0.950 . S
C346 C347 1.386 . S
C346 C348 1.391 . S
C347 C346 1.386 . S
C347 C351 1.393 . S
C348 H340 0.950 . S
C348 C346 1.391 . S
C348 C349 1.400 . S
C349 C348 1.400 . S
C349 C350 1.398 . S
C349 C355 1.491 . S
C350 H341 0.950 . S
C350 C349 1.398 . S
C350 C351 1.391 . S
C351 H339 0.950 . S
C351 C347 1.393 . S
C351 C350 1.391 . S
C352 H342 0.950 . S
C352 C353 1.386 . S
C352 C354 1.391 . S
C353 C352 1.386 . S
C353 C357 1.393 . S
C354 H343 0.950 . S
C354 C352 1.391 . S
C354 C355 1.400 . S
C355 C349 1.491 . S
C355 C354 1.400 . S
C355 C356 1.398 . S
C356 H344 0.950 . S
C356 C355 1.398 . S
C356 C357 1.391 . S
C357 H345 0.950 . S
C357 C353 1.393 . S
C357 C356 1.391 . S
H358 C366 0.950 . S
H359 C371 0.950 . S
H360 C368 0.950 . S
H361 C370 0.950 . S
H362 C372 0.950 . S
H363 C374 0.950 . S
H364 C376 0.950 . S
H365 C377 0.950 . S
C366 H358 0.950 . S
C366 C367 1.386 . S
C366 C368 1.391 . S
C367 C366 1.386 . S
C367 C371 1.393 . S
C368 H360 0.950 . S
C368 C366 1.391 . S
C368 C369 1.400 . S
C369 C368 1.400 . S
C369 C370 1.398 . S
C369 C375 1.491 . S
C370 H361 0.950 . S
C370 C369 1.398 . S
C370 C371 1.391 . S
C371 H359 0.950 . S
C371 C367 1.393 . S
C371 C370 1.391 . S
C372 H362 0.950 . S
C372 C373 1.386 . S
C372 C374 1.391 . S
C373 C372 1.386 . S
C373 C377 1.393 . S
C374 H363 0.950 . S
C374 C372 1.391 . S
C374 C375 1.400 . S
C375 C369 1.491 . S
C375 C374 1.400 . S
C375 C376 1.398 . S
C376 H364 0.950 . S
C376 C375 1.398 . S
C376 C377 1.391 . S
C377 H365 0.950 . S
C377 C373 1.393 . S
C377 C376 1.391 . S
H378 C386 0.950 . S
H379 C391 0.950 . S
H380 C388 0.950 . S
H381 C390 0.950 . S
H382 C392 0.950 . S
H383 C394 0.950 . S
H384 C396 0.950 . S
H385 C397 0.950 . S
C386 H378 0.950 . S
C386 C387 1.386 . S
C386 C388 1.391 . S
C387 C386 1.386 . S
C387 C391 1.393 . S
C388 H380 0.950 . S
C388 C386 1.391 . S
C388 C389 1.400 . S
C389 C388 1.400 . S
C389 C390 1.398 . S
C389 C395 1.491 . S
C390 H381 0.950 . S
C390 C389 1.398 . S
C390 C391 1.391 . S
C391 H379 0.950 . S
C391 C387 1.393 . S
C391 C390 1.391 . S
C392 H382 0.950 . S
C392 C393 1.386 . S
C392 C394 1.391 . S
C393 C392 1.386 . S
C393 C397 1.393 . S
C394 H383 0.950 . S
C394 C392 1.391 . S
C394 C395 1.400 . S
C395 C389 1.491 . S
C395 C394 1.400 . S
C395 C396 1.398 . S
C396 H384 0.950 . S
C396 C395 1.398 . S
C396 C397 1.391 . S
C397 H385 0.950 . S
C397 C393 1.393 . S
C397 C396 1.391 . S
H398 C406 0.950 . S
H399 C411 0.950 . S
H400 C408 0.950 . S
H401 C410 0.950 . S
H402 C412 0.950 . S
H403 C414 0.950 . S
H404 C416 0.950 . S
H405 C417 0.950 . S
C406 H398 0.950 . S
C406 C407 1.386 . S
C406 C408 1.391 . S
C407 C406 1.386 . S
C407 C411 1.393 . S
C408 H400 0.950 . S
C408 C406 1.391 . S
C408 C409 1.400 . S
C409 C408 1.400 . S
C409 C410 1.398 . S
C409 C415 1.491 . S
C410 H401 0.950 . S
C410 C409 1.398 . S
C410 C411 1.391 . S
C411 H399 0.950 . S
C411 C407 1.393 . S
C411 C410 1.391 . S
C412 H402 0.950 . S
C412 C413 1.386 . S
C412 C414 1.391 . S
C413 C412 1.386 . S
C413 C417 1.393 . S
C414 H403 0.950 . S
C414 C412 1.391 . S
C414 C415 1.400 . S
C415 C409 1.491 . S
C415 C414 1.400 . S
C415 C416 1.398 . S
C416 H404 0.950 . S
C416 C415 1.398 . S
C416 C417 1.391 . S
C417 H405 0.950 . S
C417 C413 1.393 . S
C417 C416 1.391 . S
H418 C426 0.950 . S
H419 C431 0.950 . S
H420 C428 0.950 . S
H421 C430 0.950 . S
H422 C432 0.950 . S
H423 C434 0.950 . S
H424 C436 0.950 . S
H425 C437 0.950 . S
C426 H418 0.950 . S
C426 C427 1.386 . S
C426 C428 1.391 . S
C427 C426 1.386 . S
C427 C431 1.393 . S
C428 H420 0.950 . S
C428 C426 1.391 . S
C428 C429 1.400 . S
C429 C428 1.400 . S
C429 C430 1.398 . S
C429 C435 1.491 . S
C430 H421 0.950 . S
C430 C429 1.398 . S
C430 C431 1.391 . S
C431 H419 0.950 . S
C431 C427 1.393 . S
C431 C430 1.391 . S
C432 H422 0.950 . S
C432 C433 1.386 . S
C432 C434 1.391 . S
C433 C432 1.386 . S
C433 C437 1.393 . S
C434 H423 0.950 . S
C434 C432 1.391 . S
C434 C435 1.400 . S
C435 C429 1.491 . S
C435 C434 1.400 . S
C435 C436 1.398 . S
C436 H424 0.950 . S
C436 C435 1.398 . S
C436 C437 1.391 . S
C437 H425 0.950 . S
C437 C433 1.393 . S
C437 C436 1.391 . S
H438 C446 0.950 . S
H439 C451 0.950 . S
H440 C448 0.950 . S
H441 C450 0.950 . S
H442 C452 0.950 . S
H443 C454 0.950 1_655 S
H444 C456 0.950 . S
H445 C457 0.950 . S
C446 H438 0.950 . S
C446 C447 1.386 . S
C446 C448 1.391 . S
C447 C446 1.386 . S
C447 C451 1.393 1_455 S
C448 H440 0.950 . S
C448 C446 1.391 . S
C448 C449 1.400 . S
C449 C448 1.400 . S
C449 C450 1.396 1_455 S
C449 C455 1.491 1_554 S
C450 H441 0.950 . S
C450 C449 1.396 1_655 S
C450 C451 1.393 . S
C451 H439 0.950 . S
C451 C447 1.393 1_655 S
C451 C450 1.393 . S
C452 H442 0.950 . S
C452 C453 1.386 . S
C452 C454 1.391 . S
C453 C452 1.386 . S
C453 C457 1.393 . S
C454 H443 0.950 1_455 S
C454 C452 1.391 . S
C454 C455 1.400 . S
C455 C449 1.491 1_556 S
C455 C454 1.400 . S
C455 C456 1.398 . S
C456 H444 0.950 . S
C456 C455 1.398 . S
C456 C457 1.391 . S
C457 H445 0.950 . S
C457 C453 1.393 . S
C457 C456 1.391 . S
H458 C466 0.950 . S
H459 C471 0.950 . S
H460 C468 0.950 . S
H461 C470 0.950 . S
H462 C472 0.950 . S
H463 C474 0.950 . S
H464 C476 0.950 . S
H465 C477 0.950 . S
C466 H458 0.950 . S
C466 C467 1.386 1_565 S
C466 C468 1.391 . S
C467 C466 1.386 1_545 S
C467 C471 1.393 . S
C468 H460 0.950 . S
C468 C466 1.391 . S
C468 C469 1.400 1_565 S
C469 C468 1.400 1_545 S
C469 C470 1.398 . S
C469 C475 1.491 . S
C470 H461 0.950 . S
C470 C469 1.398 . S
C470 C471 1.391 . S
C471 H459 0.950 . S
C471 C467 1.393 . S
C471 C470 1.391 . S
C472 H462 0.950 . S
C472 C473 1.386 . S
C472 C474 1.391 . S
C473 C472 1.386 . S
C473 C477 1.393 1_545 S
C474 H463 0.950 . S
C474 C472 1.391 . S
C474 C475 1.400 . S
C475 C469 1.491 . S
C475 C474 1.400 . S
C475 C476 1.398 1_545 S
C476 H464 0.950 . S
C476 C475 1.398 1_565 S
C476 C477 1.391 . S
C477 H465 0.950 . S
C477 C473 1.393 1_565 S
C477 C476 1.391 . S
H478 C486 0.950 . S
H479 C491 0.950 . S
H480 C488 0.950 . S
H481 C490 0.950 . S
H482 C492 0.950 . S
H483 C494 0.950 . S
H484 C496 0.950 . S
H485 C497 0.950 . S
C486 H478 0.950 . S
C486 C487 1.386 . S
C486 C488 1.391 . S
C487 C486 1.386 . S
C487 C491 1.393 . S
C488 H480 0.950 . S
C488 C486 1.391 . S
C488 C489 1.400 . S
C489 C488 1.400 . S
C489 C490 1.398 . S
C489 C495 1.491 . S
C490 H481 0.950 . S
C490 C489 1.398 . S
C490 C491 1.391 . S
C491 H479 0.950 . S
C491 C487 1.393 . S
C491 C490 1.391 . S
C492 H482 0.950 . S
C492 C493 1.386 . S
C492 C494 1.391 . S
C493 C492 1.386 . S
C493 C497 1.393 . S
C494 H483 0.950 . S
C494 C492 1.391 . S
C494 C495 1.400 . S
C495 C489 1.491 . S
C495 C494 1.400 . S
C495 C496 1.398 . S
C496 H484 0.950 . S
C496 C495 1.398 . S
C496 C497 1.391 . S
C497 H485 0.950 . S
C497 C493 1.393 . S
C497 C496 1.391 . S
H498 C506 0.950 . S
H499 C511 0.950 . S
H500 C508 0.950 . S
H501 C510 0.950 . S
H502 C512 0.950 . S
H503 C514 0.950 . S
H504 C516 0.950 . S
H505 C517 0.950 . S
C506 H498 0.950 . S
C506 C507 1.386 . S
C506 C508 1.391 . S
C507 C506 1.386 . S
C507 C511 1.393 . S
C508 H500 0.950 . S
C508 C506 1.391 . S
C508 C509 1.400 . S
C509 C508 1.400 . S
C509 C510 1.398 . S
C509 C515 1.491 . S
C510 H501 0.950 . S
C510 C509 1.398 . S
C510 C511 1.391 . S
C511 H499 0.950 . S
C511 C507 1.393 . S
C511 C510 1.391 . S
C512 H502 0.950 . S
C512 C513 1.386 . S
C512 C514 1.391 . S
C513 C512 1.386 . S
C513 C517 1.393 . S
C514 H503 0.950 . S
C514 C512 1.391 . S
C514 C515 1.400 . S
C515 C509 1.491 . S
C515 C514 1.400 . S
C515 C516 1.398 . S
C516 H504 0.950 . S
C516 C515 1.398 . S
C516 C517 1.391 . S
C517 H505 0.950 . S
C517 C513 1.393 . S
C517 C516 1.391 . S
H518 C526 0.950 . S
H519 C531 0.950 . S
H520 C528 0.950 . S
H521 C530 0.950 . S
H522 C532 0.950 . S
H523 C534 0.950 1_556 S
H524 C536 0.950 . S
H525 C537 0.950 . S
C526 H518 0.950 . S
C526 C527 1.386 . S
C526 C528 1.391 . S
C527 C526 1.386 . S
C527 C531 1.393 . S
C528 H520 0.950 . S
C528 C526 1.391 . S
C528 C529 1.400 . S
C529 C528 1.400 . S
C529 C530 1.398 . S
C529 C535 1.491 . S
C530 H521 0.950 . S
C530 C529 1.398 . S
C530 C531 1.391 . S
C531 H519 0.950 . S
C531 C527 1.393 . S
C531 C530 1.391 . S
C532 H522 0.950 . S
C532 C533 1.386 . S
C532 C534 1.391 . S
C533 C532 1.386 . S
C533 C537 1.393 . S
C534 H523 0.950 1_554 S
C534 C532 1.391 . S
C534 C535 1.400 1_554 S
C535 C529 1.491 . S
C535 C534 1.400 1_556 S
C535 C536 1.398 1_556 S
C536 H524 0.950 . S
C536 C535 1.398 1_554 S
C536 C537 1.391 . S
C537 H525 0.950 . S
C537 C533 1.393 . S
C537 C536 1.391 . S
H538 C546 0.950 . S
H539 C551 0.950 . S
H540 C548 0.950 . S
H541 C550 0.950 . S
H542 C552 0.950 . S
H543 C554 0.950 . S
H544 C556 0.950 . S
H545 C557 0.950 . S
C546 H538 0.950 . S
C546 C547 1.386 1_455 S
C546 C548 1.391 . S
C547 C546 1.386 1_655 S
C547 C551 1.393 . S
C548 H540 0.950 . S
C548 C546 1.391 . S
C548 C549 1.400 . S
C549 C548 1.400 . S
C549 C550 1.398 1_455 S
C549 C555 1.491 . S
C550 H541 0.950 . S
C550 C549 1.398 1_655 S
C550 C551 1.391 . S
C551 H539 0.950 . S
C551 C547 1.393 . S
C551 C550 1.391 . S
C552 H542 0.950 . S
C552 C553 1.386 1_655 S
C552 C554 1.391 . S
C553 C552 1.386 1_455 S
C553 C557 1.393 . S
C554 H543 0.950 . S
C554 C552 1.391 . S
C554 C555 1.400 1_655 S
C555 C549 1.491 . S
C555 C554 1.400 1_455 S
C555 C556 1.398 . S
C556 H544 0.950 . S
C556 C555 1.398 . S
C556 C557 1.391 . S
C557 H545 0.950 . S
C557 C553 1.393 . S
C557 C556 1.391 . S
C207 C7 0.653 . S
C213 C189 0.648 . S
C227 C51 1.835 . S
C233 C167 1.813 . S
C247 C87 1.170 . S
C253 C180 1.181 . S
C267 C16 0.366 . S
C273 C193 0.259 . S
C293 C163 1.867 . S
C287 C42 2.021 . S
C313 C176 1.256 . S
C307 C96 1.342 . S
C327 C47 1.094 . S
C333 C141 1.080 . S
C347 C91 3.034 . S
C353 C154 2.994 1_655 S
C367 C2 2.021 . S
C373 C124 1.900 . S
C393 C137 1.301 . S
C387 C56 1.358 . S
C413 C150 2.884 . S
C407 C82 3.062 . S
C427 C11 1.836 . S
C433 C128 1.818 . S
C453 C155 1.744 . S
C447 C19 1.717 . S
C467 C50 1.473 . S
C473 C129 1.491 . S
C487 C99 1.502 . S
C493 C142 1.600 . S
C513 C181 1.545 . S
C507 C59 1.483 . S
C533 C194 1.327 . S
C527 C90 1.308 . S
C547 C10 1.447 1_655 S
C553 C168 1.481 . S
