# Generated by pormake.
# Topology anh, (6,3)-cn, num edge types: 1
# Building blocks:
#     Node 0, Type 0, BuildingBlock: NUHQIS_clean_sbu_0, # of connection points: 6
#     Node 1, Type 0, BuildingBlock: NUHQIS_clean_sbu_0, # of connection points: 6
#     Node 2, Type 0, BuildingBlock: NUHQIS_clean_sbu_0, # of connection points: 6
#     Node 3, Type 1, BuildingBlock: BELTOD_clean_linker_0, # of connection points: 3
#     Node 4, Type 1, BuildingBlock: BELTOD_clean_linker_0, # of connection points: 3
#     Node 5, Type 1, BuildingBlock: BELTOD_clean_linker_0, # of connection points: 3
#     Node 6, Type 1, BuildingBlock: BELTOD_clean_linker_0, # of connection points: 3
#     Node 7, Type 1, BuildingBlock: BELTOD_clean_linker_0, # of connection points: 3
#     Node 8, Type 1, BuildingBlock: BELTOD_clean_linker_0, # of connection points: 3
#     Edge 9, Type (0, 1), BuildingBlock: XIVTED_clean_linker_0, # of connection points: 2
#     Edge 10, Type (0, 1), BuildingBlock: XIVTED_clean_linker_0, # of connection points: 2
#     Edge 11, Type (0, 1), BuildingBlock: XIVTED_clean_linker_0, # of connection points: 2
#     Edge 12, Type (0, 1), BuildingBlock: XIVTED_clean_linker_0, # of connection points: 2
#     Edge 13, Type (0, 1), BuildingBlock: XIVTED_clean_linker_0, # of connection points: 2
#     Edge 14, Type (0, 1), BuildingBlock: XIVTED_clean_linker_0, # of connection points: 2
#     Edge 15, Type (0, 1), BuildingBlock: XIVTED_clean_linker_0, # of connection points: 2
#     Edge 16, Type (0, 1), BuildingBlock: XIVTED_clean_linker_0, # of connection points: 2
#     Edge 17, Type (0, 1), BuildingBlock: XIVTED_clean_linker_0, # of connection points: 2
#     Edge 18, Type (0, 1), BuildingBlock: XIVTED_clean_linker_0, # of connection points: 2
#     Edge 19, Type (0, 1), BuildingBlock: XIVTED_clean_linker_0, # of connection points: 2
#     Edge 20, Type (0, 1), BuildingBlock: XIVTED_clean_linker_0, # of connection points: 2
#     Edge 21, Type (0, 1), BuildingBlock: XIVTED_clean_linker_0, # of connection points: 2
#     Edge 22, Type (0, 1), BuildingBlock: XIVTED_clean_linker_0, # of connection points: 2
#     Edge 23, Type (0, 1), BuildingBlock: XIVTED_clean_linker_0, # of connection points: 2
#     Edge 24, Type (0, 1), BuildingBlock: XIVTED_clean_linker_0, # of connection points: 2
#     Edge 25, Type (0, 1), BuildingBlock: XIVTED_clean_linker_0, # of connection points: 2
#     Edge 26, Type (0, 1), BuildingBlock: XIVTED_clean_linker_0, # of connection points: 2
# Relax obj value: 0.244
# Max RMSD: 0.184
# Mean RMSD: 0.148
data_MOF--net-anh--node1-NUHQIS_clean_sbu_0--node2-BELTOD_clean_linker_0--edge1-XIVTED_clean_linker_0
_symmetry_space_group_name_H-M    P1
_symmetry_Int_Tables_number       1
_symmetry_cell_setting            triclinic
loop_
_symmetry_equiv_pos_as_xyz
'x, y, z'
_cell_length_a     35.001988
_cell_length_b     35.054889
_cell_length_c     60.865072
_cell_angle_alpha  89.672639
_cell_angle_beta   93.64052
_cell_angle_gamma 120.04611
loop_
_atom_site_label
_atom_site_type_symbol
_atom_site_fract_x
_atom_site_fract_y
_atom_site_fract_z
_atom_type_partial_charge
Tb0 Tb 0.12771 0.58186 0.15588 0.0
Eu1 Eu 1.0778 0.63694 0.162 0.0
C2 C 0.11781 0.60663 0.20255 0.0
C3 C 1.02289 0.5295 0.16283 0.0
C4 C 0.20598 0.5368 0.1573 0.0
C5 C 0.24372 0.50923 0.18181 0.0
C6 C 0.20949 0.51829 0.17737 0.0
C7 C 0.23895 0.54874 0.14245 0.0
C8 C 0.27327 0.53987 0.14694 0.0
C9 C 0.27499 0.51847 0.16627 0.0
C10 C 0.16525 0.53765 0.15037 0.0
O11 O 0.09119 0.57676 0.12482 0.0
O12 O 0.09555 0.64336 0.12642 0.0
O13 O 0.15011 0.69046 0.16623 0.0
O14 O 0.18307 0.65152 0.15541 0.0
C15 C 0.09184 0.61013 0.11479 0.0
O16 O 1.03137 0.65733 0.14934 0.0
O17 O 1.06372 0.67932 0.18206 0.0
O18 O 0.08314 0.60893 0.19491 0.0
O19 O 0.14606 0.60757 0.18924 0.0
O20 O 1.06141 0.53098 0.16565 0.0
O21 O 1.02151 0.56544 0.1578 0.0
C22 C 0.18573 0.68915 0.16157 0.0
O23 O 0.13735 0.52977 0.16533 0.0
O24 O 0.16865 0.56869 0.13728 0.0
C25 C 0.98727 0.65425 0.1771 0.0
C26 C 0.89772 0.59601 0.18385 0.0
C27 C 0.90988 0.63158 0.16965 0.0
C28 C 0.95437 0.66046 0.16631 0.0
C29 C 0.97549 0.62146 0.19288 0.0
C30 C 0.93109 0.59278 0.19633 0.0
C31 C 1.03115 0.67426 0.16834 0.0
H32 H 0.24451 0.49306 0.19691 0.0
H33 H 0.18457 0.50863 0.18918 0.0
H34 H 0.23687 0.56264 0.12678 0.0
H35 H 0.29657 0.54689 0.13451 0.0
H36 H 0.88509 0.63487 0.1596 0.0
H37 H 0.96277 0.6852 0.1539 0.0
H38 H 1.00028 0.61572 0.20131 0.0
H39 H 0.92283 0.56621 0.20764 0.0
Tb40 Tb 0.64186 0.14269 0.49683 0.0
Eu41 Eu 0.53525 0.08627 0.49393 0.0
C42 C 0.59294 0.11531 0.53885 0.0
C43 C 0.59271 1.03581 0.4983 0.0
C44 C 0.7538 0.23279 0.5122 0.0
C45 C 0.76572 0.30369 0.52497 0.0
C46 C 0.73704 0.26038 0.51734 0.0
C47 C 0.7989 0.24772 0.51623 0.0
C48 C 0.82754 0.29081 0.52405 0.0
C49 C 0.81145 0.31971 0.5278 0.0
C50 C 0.72471 0.18914 0.5019 0.0
O51 O 0.62299 0.11709 0.46299 0.0
O52 O 0.55429 0.10985 0.45945 0.0
O53 O 0.55046 0.15682 0.50064 0.0
O54 O 0.62347 0.19461 0.49265 0.0
C55 C 0.58936 0.11386 0.45057 0.0
O56 O 0.472 1.03787 0.47749 0.0
O57 O 0.47347 0.0673 0.50899 0.0
O58 O 0.56135 0.0809 0.52789 0.0
O59 O 0.62 0.1497 0.52819 0.0
O60 O 0.62878 0.07458 0.50274 0.0
O61 O 0.55486 1.03342 0.4919 0.0
C62 C 0.58696 0.19438 0.49748 0.0
O63 O 0.70085 0.15841 0.51528 0.0
O64 O 0.70165 0.18837 0.48401 0.0
C65 C 0.42912 0.9905 0.50411 0.0
C66 C 0.39882 0.90226 0.5148 0.0
C67 C 0.37251 0.91331 0.50075 0.0
C68 C 0.38776 0.95725 0.49531 0.0
C69 C 0.4539 0.9797 0.51932 0.0
C70 C 0.43892 0.93599 0.5246 0.0
C71 C 0.45047 1.03458 0.49481 0.0
H72 H 0.75245 0.32517 0.52775 0.0
H73 H 0.70204 0.24897 0.51467 0.0
H74 H 0.81221 0.22664 0.51251 0.0
H75 H 0.86267 0.30232 0.52569 0.0
H76 H 0.34164 0.88777 0.4928 0.0
H77 H 0.36854 0.96489 0.48331 0.0
H78 H 0.48617 1.00475 0.52614 0.0
H79 H 0.4597 0.92835 0.53552 0.0
Tb80 Tb 0.58467 0.60552 0.83541 0.0
Eu81 Eu 0.53555 0.50264 0.8217 0.0
C82 C 0.56135 0.53497 0.87048 0.0
C83 C 0.6441 0.56004 0.82968 0.0
C84 C 0.60014 0.70796 0.85962 0.0
C85 C 0.53578 0.71 0.87078 0.0
C86 C 0.55512 0.68611 0.86374 0.0
C87 C 0.62642 0.75314 0.86435 0.0
C88 C 0.60725 0.77701 0.87153 0.0
C89 C 0.56134 0.75602 0.87389 0.0
C90 C 0.61864 0.68465 0.84844 0.0
O91 O 0.59514 0.60238 0.80032 0.0
O92 O 0.53234 0.53718 0.79114 0.0
O93 O 0.47985 0.51406 0.83193 0.0
O94 O 0.51534 0.58904 0.82863 0.0
C95 C 0.5654 0.57465 0.78532 0.0
O96 O 0.52232 0.44855 0.79919 0.0
O97 O 0.49148 0.4345 0.83028 0.0
O98 O 0.5675 0.51259 0.85559 0.0
O99 O 0.55495 0.56737 0.86446 0.0
O100 O 0.64054 0.59275 0.83806 0.0
O101 O 0.60914 0.52512 0.82021 0.0
C102 C 0.4788 0.55126 0.83126 0.0
O103 O 0.62201 0.65474 0.85979 0.0
O104 O 0.60179 0.67054 0.82843 0.0
C105 C 0.52446 0.39388 0.82023 0.0
C106 C 0.57648 0.35429 0.82827 0.0
C107 C 0.5374 0.33305 0.81434 0.0
C108 C 0.51162 0.35296 0.81022 0.0
C109 C 0.5623 0.41391 0.83491 0.0
C110 C 0.58811 0.39438 0.83887 0.0
C111 C 0.50243 0.41891 0.81387 0.0
H112 H 0.50046 0.69292 0.87253 0.0
H113 H 0.53447 0.65099 0.8604 0.0
H114 H 0.66123 0.77038 0.8613 0.0
H115 H 0.62787 0.81249 0.87342 0.0
H116 H 0.528 0.30222 0.80584 0.0
H117 H 0.48278 0.3373 0.79868 0.0
H118 H 0.57297 0.44563 0.84271 0.0
H119 H 0.61784 0.41123 0.84978 0.0
P120 P 0.62158 0.10004 0.21046 0.0
H121 H 0.52873 0.08441 0.20882 0.0
H122 H 0.45702 1.01887 0.19906 0.0
H123 H 0.52346 0.95739 0.17046 0.0
H124 H 0.59457 1.02205 0.18118 0.0
H125 H 0.63797 0.19337 0.21158 0.0
H126 H 0.70173 0.26416 0.20238 0.0
H127 H 0.75854 0.19431 0.17261 0.0
H128 H 0.69563 0.12445 0.18217 0.0
H129 H 0.5536 1.04443 0.2407 0.0
H130 H 0.6746 0.17006 0.24469 0.0
O131 O 0.64961 0.07315 0.21347 0.0
H132 H 0.54613 1.05061 0.27969 0.0
H133 H 0.66722 0.17633 0.2839 0.0
C134 C 0.56802 0.05888 0.19609 0.0
C135 C 0.52796 0.0573 0.19997 0.0
C136 C 0.48642 1.01907 0.19439 0.0
C137 C 0.48312 0.98103 0.1843 0.0
C138 C 0.52344 0.98445 0.17888 0.0
C139 C 0.5648 1.02237 0.1847 0.0
C140 C 0.66136 0.15263 0.19791 0.0
C141 C 0.66363 0.19313 0.20266 0.0
C142 C 0.70068 0.23404 0.19741 0.0
C143 C 0.73687 0.23607 0.18712 0.0
C144 C 0.73276 0.19518 0.18113 0.0
C145 C 0.69592 0.15457 0.18636 0.0
C146 C 0.61308 0.1082 0.23897 0.0
C147 C 0.57764 0.07441 0.24957 0.0
C148 C 0.57357 0.07771 0.27215 0.0
C149 C 0.60566 0.11429 0.28503 0.0
C150 C 0.64165 0.14777 0.27454 0.0
C151 C 0.64548 0.14456 0.25187 0.0
P152 P 0.61859 0.62851 0.54598 0.0
H153 H 0.64449 0.59729 0.50738 0.0
H154 H 0.63737 0.52643 0.49714 0.0
H155 H 0.55047 0.46498 0.54941 0.0
H156 H 0.55716 0.53518 0.55923 0.0
H157 H 0.66061 0.69956 0.51392 0.0
H158 H 0.65385 0.76384 0.50456 0.0
H159 H 0.53945 0.71471 0.54263 0.0
H160 H 0.54615 0.65031 0.55175 0.0
H161 H 0.67982 0.65787 0.58587 0.0
H162 H 0.53843 0.59016 0.57147 0.0
O163 O 0.67346 0.65417 0.5448 0.0
H164 H 0.66939 0.65097 0.62504 0.0
H165 H 0.52775 0.58454 0.61091 0.0
C166 C 0.60113 0.57285 0.53407 0.0
C167 C 0.62277 0.56842 0.5163 0.0
C168 C 0.61927 0.5275 0.51066 0.0
C169 C 0.59375 0.48894 0.52251 0.0
C170 C 0.5703 0.49306 0.53958 0.0
C171 C 0.57406 0.53401 0.54526 0.0
C172 C 0.60416 0.66899 0.53379 0.0
C173 C 0.63338 0.70181 0.52001 0.0
C174 C 0.62983 0.73942 0.51485 0.0
C175 C 0.59656 0.74594 0.52307 0.0
C176 C 0.56569 0.71172 0.53582 0.0
C177 C 0.56949 0.67419 0.54111 0.0
C178 C 0.60993 0.62472 0.57539 0.0
C179 C 0.64638 0.64188 0.59101 0.0
C180 C 0.64038 0.63821 0.61364 0.0
C181 C 0.59769 0.61728 0.62139 0.0
C182 C 0.56117 0.60047 0.6057 0.0
C183 C 0.56725 0.60415 0.58302 0.0
P184 P 0.08806 0.59889 0.87187 0.0
H185 H 0.13342 0.60733 0.8312 0.0
H186 H 0.19459 0.59595 0.8228 0.0
H187 H 0.1842 0.53225 0.88473 0.0
H188 H 0.12344 0.54381 0.89302 0.0
H189 H 1.05319 0.64439 0.84298 0.0
H190 H 0.97993 0.63438 0.83459 0.0
H191 H 0.92227 0.51023 0.86731 0.0
H192 H 0.99635 0.5202 0.87549 0.0
H193 H 1.04764 0.52771 0.90394 0.0
H194 H 0.12609 0.66968 0.90615 0.0
O195 O 0.11887 0.65199 0.86593 0.0
H196 H 1.04438 0.52827 0.94393 0.0
H197 H 0.12445 0.67038 0.94595 0.0
C198 C 0.12235 0.57603 0.86268 0.0
C199 C 0.14319 0.58964 0.84275 0.0
C200 C 0.17909 0.58374 0.8381 0.0
C201 C 0.19555 0.56358 0.85314 0.0
C202 C 0.17296 0.54771 0.87253 0.0
C203 C 0.13742 0.55414 0.87728 0.0
C204 C 1.03162 0.58334 0.86015 0.0
C205 C 1.02511 0.61442 0.84815 0.0
C206 C 0.98257 0.60892 0.84353 0.0
C207 C 0.94426 0.57191 0.85062 0.0
C208 C 0.95044 0.53938 0.86152 0.0
C209 C 0.99331 0.54507 0.86626 0.0
C210 C 0.08688 0.59856 0.90176 0.0
C211 C 1.06409 0.55902 0.91293 0.0
C212 C 1.06268 0.55941 0.93594 0.0
C213 C 0.08407 0.59944 0.94837 0.0
C214 C 0.10689 0.63893 0.93706 0.0
C215 C 0.10818 0.63848 0.91411 0.0
P216 P 0.16438 0.49692 0.43152 0.0
H217 H 0.20529 0.49305 0.47374 0.0
H218 H 0.2655 0.55166 0.49713 0.0
H219 H 0.30022 0.63918 0.44244 0.0
H220 H 0.23952 0.58166 0.41955 0.0
H221 H 1.07061 0.43673 0.43586 0.0
H222 H 1.01578 0.44102 0.4572 0.0
H223 H 0.11596 0.56876 0.48389 0.0
H224 H 0.17033 0.56547 0.46181 0.0
H225 H 0.21356 0.50668 0.393 0.0
H226 H 0.10234 0.52031 0.40862 0.0
O227 O 0.15526 0.44544 0.43127 0.0
H228 H 0.20738 0.52853 0.35536 0.0
H229 H 0.09422 0.53934 0.371 0.0
C230 C 0.21804 0.53286 0.44489 0.0
C231 C 0.22714 0.52427 0.46654 0.0
C232 C 0.26137 0.5577 0.4799 0.0
C233 C 0.28739 0.59978 0.47154 0.0
C234 C 0.28106 0.60681 0.44919 0.0
C235 C 0.24622 0.57377 0.43603 0.0
C236 C 0.12475 0.50005 0.44773 0.0
C237 C 0.08078 0.46564 0.44627 0.0
C238 C 1.04951 0.46835 0.45825 0.0
C239 C 1.06194 0.50533 0.47204 0.0
C240 C 0.10583 0.54002 0.47334 0.0
C241 C 0.13689 0.53779 0.4609 0.0
C242 C 0.15873 0.5121 0.40369 0.0
C243 C 0.18761 0.51401 0.38827 0.0
C244 C 0.18374 0.52619 0.3667 0.0
C245 C 0.15023 0.53577 0.36003 0.0
C246 C 0.12099 0.53316 0.37556 0.0
C247 C 0.12537 0.52171 0.39718 0.0
P248 P 0.7265 0.09024 0.7682 0.0
H249 H 0.76142 0.12497 0.81271 0.0
H250 H 0.76525 0.1876 0.83248 0.0
H251 H 0.74105 0.23584 0.77075 0.0
H252 H 0.73653 0.17337 0.75126 0.0
H253 H 0.68353 0.99497 0.77172 0.0
H254 H 0.62187 0.94202 0.79236 0.0
H255 H 0.60511 1.04742 0.81728 0.0
H256 H 0.66552 0.10001 0.79595 0.0
H257 H 0.77059 0.10825 0.7271 0.0
H258 H 0.64079 0.0709 0.74735 0.0
O259 O 0.76589 0.07658 0.76991 0.0
H260 H 0.74561 0.11041 0.68881 0.0
H261 H 0.61574 0.073 0.70932 0.0
C262 C 0.74772 0.14405 0.78063 0.0
C263 C 0.75884 0.15008 0.80338 0.0
C264 C 0.7609 0.18573 0.81466 0.0
C265 C 0.75286 0.21613 0.80316 0.0
C266 C 0.74755 0.213 0.78004 0.0
C267 C 0.74467 0.17697 0.76885 0.0
C268 C 0.68033 1.05156 0.78301 0.0
C269 C 0.66646 1.00664 0.78152 0.0
C270 C 0.63093 0.97644 0.79309 0.0
C271 C 0.60888 0.99083 0.80639 0.0
C272 C 0.62177 1.03566 0.80723 0.0
C273 C 0.65674 0.06572 0.79528 0.0
C274 C 0.70729 0.0884 0.73994 0.0
C275 C 0.73661 0.09995 0.72326 0.0
C276 C 0.72239 0.10149 0.70147 0.0
C277 C 0.67863 0.0916 0.6961 0.0
C278 C 0.64938 0.07998 0.71291 0.0
C279 C 0.66372 0.07877 0.73467 0.0
P280 P 0.48349 0.30371 0.07761 0.0
H281 H 0.51565 0.27274 0.11495 0.0
H282 H 0.58584 0.31123 0.13755 0.0
H283 H 0.64121 0.40784 0.08737 0.0
H284 H 0.57184 0.36973 0.06494 0.0
H285 H 0.39275 0.27875 0.0865 0.0
H286 H 0.36289 0.31214 0.11037 0.0
H287 H 0.49562 0.40592 0.13607 0.0
H288 H 0.52505 0.37399 0.11186 0.0
H289 H 0.48481 0.2798 0.03186 0.0
H290 H 0.48977 0.38852 0.06735 0.0
O291 O 0.45244 0.24912 0.07405 0.0
H292 H 0.49659 0.32028 0.99771 0.0
H293 H 0.50221 0.42926 0.03355 0.0
C294 C 0.53834 0.31845 0.08834 0.0
C295 C 0.54363 0.30094 0.10835 0.0
C296 C 0.58356 0.32304 0.1213 0.0
C297 C 0.6183 0.36286 0.1143 0.0
C298 C 0.6145 0.37747 0.09319 0.0
C299 C 0.5748 0.35542 0.08029 0.0
C300 C 0.46098 0.32317 0.09764 0.0
C301 C 0.41523 0.30592 0.09761 0.0
C302 C 0.39827 0.32493 0.11132 0.0
C303 C 0.42698 0.3617 0.1251 0.0
C304 C 0.47268 0.3779 0.12552 0.0
C305 C 0.48952 0.35914 0.11178 0.0
C306 C 0.48549 0.33065 0.05206 0.0
C307 C 0.48764 0.312 0.03224 0.0
C308 C 0.49483 0.3354 0.01279 0.0
C309 C 0.50043 0.37809 0.01292 0.0
C310 C 0.49735 0.39624 0.03279 0.0
C311 C 0.49021 0.37285 0.05218 0.0
H312 H 0.36258 0.55828 0.15772 0.0
H313 H 0.35273 0.32734 0.14851 0.0
H314 H 0.25476 0.43603 0.17887 0.0
H315 H 0.46213 0.45076 0.12948 0.0
H316 H 0.32151 0.36807 0.16522 0.0
H317 H 0.40548 0.52153 0.15344 0.0
C318 C 0.3483 0.52392 0.16184 0.0
C319 C 0.3049 0.50003 0.16836 0.0
C320 C 0.35269 0.38626 0.15766 0.0
C321 C 0.35334 0.45758 0.16323 0.0
C322 C 0.37033 0.36299 0.14801 0.0
C323 C 0.40985 0.38563 0.13742 0.0
C324 C 0.37452 0.43244 0.1565 0.0
C325 C 0.43172 0.4319 0.13758 0.0
C326 C 0.37273 0.50291 0.1594 0.0
C327 C 0.28814 0.45574 0.17381 0.0
N328 N 0.41349 0.4537 0.14672 0.0
N329 N 0.3121 0.43573 0.17075 0.0
H330 H 0.808 0.38654 0.50634 0.0
H331 H 1.06643 0.51003 0.51681 0.0
H332 H 0.88794 0.36189 0.55476 0.0
H333 H 0.98317 0.49924 0.45916 0.0
H334 H 1.0032 0.48663 0.53939 0.0
H335 H 0.87213 0.45778 0.49965 0.0
C336 C 0.83855 0.39686 0.51628 0.0
C337 C 0.84324 0.36757 0.53049 0.0
C338 C 0.99921 0.491 0.52192 0.0
C339 C 0.91678 0.44837 0.52245 0.0
C340 C 1.03521 0.50438 0.50908 0.0
C341 C 1.02931 0.50533 0.48614 0.0
C342 C 0.95739 0.47853 0.51161 0.0
C343 C 0.98849 0.49788 0.4768 0.0
C344 C 0.87528 0.4375 0.51233 0.0
C345 C 0.88351 0.38294 0.54303 0.0
N346 N 0.95375 0.48393 0.48953 0.0
N347 N 0.91923 0.42184 0.53825 0.0
H348 H 0.48718 0.74388 0.84996 0.0
H349 H 0.60816 0.99949 0.85079 0.0
H350 H 0.58727 0.83114 0.89908 0.0
H351 H 0.5362 0.91066 0.79545 0.0
H352 H 0.56987 0.93877 0.87569 0.0
H353 H 0.47312 0.80301 0.8395 0.0
C354 C 0.50493 0.77487 0.85927 0.0
C355 C 0.53999 0.78331 0.87473 0.0
C356 C 0.56123 0.93293 0.85814 0.0
C357 C 0.52493 0.85136 0.86228 0.0
C358 C 0.58298 0.96757 0.84394 0.0
C359 C 0.57618 0.95946 0.82109 0.0
C360 C 0.53291 0.89015 0.84931 0.0
C361 C 0.54317 0.91774 0.81301 0.0
C362 C 0.49705 0.80881 0.85313 0.0
C363 C 0.56128 0.82394 0.88638 0.0
N364 N 0.52342 0.88431 0.8271 0.0
N365 N 0.55449 0.85707 0.87941 0.0
H366 H 0.82049 0.59895 0.18046 0.0
H367 H 0.67644 0.34647 0.13948 0.0
H368 H 0.86954 0.50782 0.18345 0.0
H369 H 0.64256 0.44692 0.12503 0.0
H370 H 0.74009 0.40015 0.16356 0.0
H371 H 0.74701 0.53789 0.16892 0.0
C372 C 0.81567 0.56601 0.17905 0.0
C373 C 0.85147 0.5587 0.18244 0.0
C374 C 0.71839 0.4102 0.15526 0.0
C375 C 0.76766 0.48877 0.1691 0.0
C376 C 0.68231 0.3797 0.14155 0.0
C377 C 0.65519 0.39285 0.12994 0.0
C378 C 0.72665 0.45369 0.15748 0.0
C379 C 0.66354 0.43596 0.1333 0.0
C380 C 0.77375 0.53116 0.17245 0.0
C381 C 0.84303 0.5151 0.1809 0.0
N382 N 0.69867 0.46489 0.14663 0.0
N383 N 0.80216 0.48188 0.17394 0.0
H384 H 0.31919 0.83087 0.5236 0.0
H385 H 0.37287 0.66626 0.46851 0.0
H386 H 0.45273 0.86818 0.5099 0.0
H387 H 0.26056 0.62203 0.50769 0.0
H388 H 0.40654 0.73915 0.48669 0.0
H389 H 0.29893 0.75322 0.52081 0.0
C390 C 0.34433 0.82262 0.52037 0.0
C391 C 0.38749 0.85578 0.51679 0.0
C392 C 0.37512 0.71315 0.49179 0.0
C393 C 0.36467 0.76746 0.51329 0.0
C394 C 0.35605 0.67161 0.48145 0.0
C395 C 0.31388 0.63842 0.48654 0.0
C396 C 0.35116 0.72164 0.50678 0.0
C397 C 0.29323 0.64683 0.50336 0.0
C398 C 0.33292 0.77842 0.51892 0.0
C399 C 0.41905 0.84354 0.51281 0.0
N400 N 0.31156 0.688 0.51251 0.0
N401 N 0.4068 0.8003 0.51073 0.0
H402 H 0.55712 0.26998 0.83688 0.0
H403 H 0.78 0.30348 0.79721 0.0
H404 H 0.66537 0.39914 0.82413 0.0
H405 H 0.69388 0.19136 0.83456 0.0
H406 H 0.74177 0.34154 0.80893 0.0
H407 H 0.60813 0.24119 0.83738 0.0
C408 C 0.5917 0.29224 0.83436 0.0
C409 C 0.60711 0.33681 0.83034 0.0
C410 C 0.73202 0.30906 0.81503 0.0
C411 C 0.66542 0.30437 0.83077 0.0
C412 C 0.75392 0.28748 0.8084 0.0
C413 C 0.73987 0.24424 0.81484 0.0
C414 C 0.69527 0.28671 0.82771 0.0
C415 C 0.70587 0.2248 0.8293 0.0
C416 C 0.62085 0.27598 0.83483 0.0
C417 C 0.65227 0.36453 0.82736 0.0
N418 N 0.68403 0.2458 0.83487 0.0
N419 N 0.67976 0.34772 0.82731 0.0
H420 H 0.6652 1.02406 0.50722 0.0
H421 H 0.5236 0.75853 0.51745 0.0
H422 H 0.52309 0.94909 0.497 0.0
H423 H 0.66609 0.83208 0.51932 0.0
H424 H 0.52259 0.82739 0.51141 0.0
H425 H 0.66598 0.9549 0.51286 0.0
C426 C 0.63407 0.99322 0.50609 0.0
C427 C 0.59405 0.99322 0.50145 0.0
C428 C 0.55414 0.82854 0.5131 0.0
C429 C 0.5947 0.91254 0.50821 0.0
C430 C 0.55481 0.78893 0.5167 0.0
C431 C 0.59502 0.78843 0.51893 0.0
C432 C 0.59398 0.86896 0.51185 0.0
C433 C 0.63405 0.82977 0.51743 0.0
C434 C 0.63456 0.95344 0.50934 0.0
C435 C 0.55495 0.95145 0.50036 0.0
N436 N 0.6325 0.86778 0.51412 0.0
N437 N 0.5563 0.91334 0.50374 0.0
H438 H 0.72664 0.63049 0.84287 0.0
H439 H 0.86043 0.49766 0.84161 0.0
H440 H 0.66407 0.49366 0.82226 0.0
H441 H 0.92317 0.63844 0.85206 0.0
H442 H 0.7884 0.49414 0.83619 0.0
H443 H 0.79778 0.63265 0.84768 0.0
C444 C 0.72764 0.6008 0.83927 0.0
C445 C 0.68857 0.56189 0.83198 0.0
C446 C 0.81795 0.52584 0.83962 0.0
C447 C 0.77137 0.56407 0.83781 0.0
C448 C 0.85938 0.5279 0.84286 0.0
C449 C 0.89892 0.5685 0.84722 0.0
C450 C 0.81521 0.56456 0.84096 0.0
C451 C 0.8944 0.60633 0.84839 0.0
C452 C 0.76861 0.60209 0.84205 0.0
C453 C 0.69288 0.52463 0.82773 0.0
N454 N 0.85385 0.60338 0.84538 0.0
N455 N 0.73309 0.52662 0.83077 0.0
H456 H 0.27113 0.7022 0.16025 0.0
H457 H 0.3971 0.96775 0.17747 0.0
H458 H 0.20323 0.77473 0.16839 0.0
H459 H 0.46535 0.89369 0.18153 0.0
H460 H 0.32684 0.89841 0.17188 0.0
H461 H 0.34227 0.77179 0.1653 0.0
C462 C 0.2709 0.73258 0.16297 0.0
C463 C 0.23032 0.7318 0.16384 0.0
C464 C 0.35721 0.8973 0.17394 0.0
C465 C 0.3129 0.81282 0.16965 0.0
C466 C 0.39787 0.9373 0.17731 0.0
C467 C 0.43863 0.93795 0.18008 0.0
C468 C 0.35624 0.85663 0.1731 0.0
C469 C 0.43583 0.89618 0.17913 0.0
C470 C 0.31182 0.77255 0.16594 0.0
C471 C 0.23309 0.77295 0.16756 0.0
N472 N 0.39592 0.85785 0.17574 0.0
N473 N 0.27315 0.81124 0.17024 0.0
H474 H 0.5192 0.20833 0.5088 0.0
H475 H 0.65983 0.47506 0.50749 0.0
H476 H 0.6554 0.2808 0.49275 0.0
H477 H 0.52565 0.40182 0.52666 0.0
H478 H 0.65816 0.40528 0.50085 0.0
H479 H 0.52057 0.27832 0.51428 0.0
C480 C 0.54947 0.23881 0.5063 0.0
C481 C 0.5872 0.23779 0.50017 0.0
C482 C 0.629 0.40437 0.50648 0.0
C483 C 0.58899 0.31963 0.50662 0.0
C484 C 0.62973 0.44457 0.51016 0.0
C485 C 0.59279 0.44546 0.51773 0.0
C486 C 0.59097 0.36375 0.51021 0.0
C487 C 0.55536 0.40384 0.52115 0.0
C488 C 0.55022 0.27909 0.50951 0.0
C489 C 0.6253 0.27919 0.49738 0.0
N490 N 0.55547 0.36529 0.51738 0.0
N491 N 0.62516 0.31792 0.50059 0.0
H492 H 0.397 0.48289 0.84258 0.0
H493 H 0.27192 0.62442 0.83381 0.0
H494 H 0.46162 0.62012 0.82631 0.0
H495 H 0.21535 0.49719 0.86342 0.0
H496 H 0.33884 0.62083 0.82825 0.0
H497 H 0.32886 0.48506 0.84767 0.0
C498 C 0.39704 0.51348 0.83993 0.0
C499 C 0.43581 0.55131 0.83388 0.0
C500 C 0.31182 0.59357 0.83593 0.0
C501 C 0.35666 0.55398 0.83969 0.0
C502 C 0.27309 0.59541 0.839 0.0
C503 C 0.23697 0.56101 0.84911 0.0
C504 C 0.31517 0.55679 0.84272 0.0
C505 C 0.24189 0.52485 0.85573 0.0
C506 C 0.35789 0.51471 0.84294 0.0
C507 C 0.43305 0.58991 0.8309 0.0
N508 N 0.27973 0.52365 0.85235 0.0
N509 N 0.39457 0.59014 0.83372 0.0
H510 H 0.93597 0.51267 0.15966 0.0
H511 H 0.82405 0.25413 0.18791 0.0
H512 H 1.01055 0.44685 0.17343 0.0
H513 H 0.74822 0.31974 0.17785 0.0
H514 H 0.89137 0.3235 0.18171 0.0
H515 H 0.86739 0.44296 0.16512 0.0
C516 C 0.93823 0.48375 0.16382 0.0
C517 C 0.97996 0.48644 0.16598 0.0
C518 C 0.86008 0.3229 0.1808 0.0
C519 C 0.90015 0.40534 0.17259 0.0
C520 C 0.82106 0.28279 0.1842 0.0
C521 C 0.77917 0.27983 0.18332 0.0
C522 C 0.85834 0.3615 0.17634 0.0
C523 C 0.77907 0.31951 0.17893 0.0
C524 C 0.89873 0.44374 0.16703 0.0
C525 C 0.97973 0.44711 0.17149 0.0
N526 N 0.81755 0.35814 0.17558 0.0
N527 N 0.94094 0.40874 0.17456 0.0
H528 H 0.09037 0.67175 0.08655 0.0
H529 H 0.08738 0.54093 0.97779 0.0
H530 H 0.08613 0.54656 0.08678 0.0
H531 H 0.07919 0.65976 0.97544 0.0
H532 H 0.08734 0.54333 0.01783 0.0
H533 H 0.08708 0.66916 0.04606 0.0
C534 C 0.0886 0.6437 0.07815 0.0
C535 C 0.08851 0.60935 0.09022 0.0
C536 C 0.08546 0.56889 0.00858 0.0
C537 C 0.08497 0.60625 0.04385 0.0
C538 C 0.08518 0.56737 0.9856 0.0
C539 C 0.08325 0.60015 0.97298 0.0
C540 C 0.08393 0.60352 0.01928 0.0
C541 C 0.08138 0.63404 0.98435 0.0
C542 C 0.08674 0.64223 0.05502 0.0
C543 C 0.08625 0.57387 0.07833 0.0
N544 N 0.08183 0.63487 0.00676 0.0
N545 N 0.08469 0.57334 0.05595 0.0
H546 H 0.66022 0.131 0.42702 0.0
H547 H 0.53174 0.09052 0.30792 0.0
H548 H 0.52386 0.09872 0.41813 0.0
H549 H 0.67239 0.14182 0.31802 0.0
H550 H 0.52716 0.09081 0.34793 0.0
H551 H 0.66411 0.13246 0.38713 0.0
C552 C 0.63097 0.12413 0.41672 0.0
C553 C 0.59158 0.11465 0.42612 0.0
C554 C 0.55905 0.10217 0.3414 0.0
C555 C 0.59593 0.11627 0.38001 0.0
C556 C 0.5617 0.10185 0.31851 0.0
C557 C 0.60256 0.11619 0.30943 0.0
C558 C 0.59746 0.11658 0.35548 0.0
C559 C 0.64024 0.13097 0.32412 0.0
C560 C 0.63331 0.12511 0.39385 0.0
C561 C 0.55495 0.10622 0.41172 0.0
N562 N 0.63673 0.13055 0.3463 0.0
N563 N 0.55797 0.10708 0.38945 0.0
H564 H 0.63073 0.64696 0.76522 0.0
H565 H 0.53301 0.54712 0.64265 0.0
H566 H 0.51075 0.52295 0.75044 0.0
H567 H 0.64833 0.67551 0.65586 0.0
H568 H 0.52448 0.53857 0.68216 0.0
H569 H 0.63813 0.65875 0.72551 0.0
C570 C 0.60585 0.6223 0.7537 0.0
C571 C 0.57008 0.58385 0.76134 0.0
C572 C 0.55163 0.56871 0.67645 0.0
C573 C 0.57848 0.59708 0.71574 0.0
C574 C 0.55637 0.57378 0.65377 0.0
C575 C 0.59147 0.61216 0.64566 0.0
C576 C 0.58221 0.60215 0.69139 0.0
C577 C 0.62109 0.64503 0.66118 0.0
C578 C 0.61013 0.62904 0.731 0.0
C579 C 0.53896 0.5531 0.74549 0.0
N580 N 0.61584 0.63925 0.6832 0.0
N581 N 0.54396 0.56032 0.72359 0.0
H582 H 0.65883 0.17998 0.5656 0.0
H583 H 0.60084 1.03392 0.673 0.0
H584 H 0.54771 1.04738 0.56655 0.0
H585 H 0.72253 0.15678 0.66718 0.0
H586 H 0.57671 1.04082 0.63527 0.0
H587 H 0.67789 0.17489 0.60424 0.0
C588 C 0.63815 0.14988 0.57399 0.0
C589 C 0.60173 0.11392 0.56279 0.0
C590 C 0.60869 0.06622 0.64226 0.0
C591 C 0.62368 0.10781 0.60709 0.0
C592 C 0.6224 0.06239 0.66379 0.0
C593 C 0.66383 0.09475 0.67317 0.0
C594 C 0.63648 0.10286 0.63012 0.0
C595 C 0.69062 0.13077 0.66047 0.0
C596 C 0.64921 0.14695 0.59606 0.0
C597 C 0.57615 0.07584 0.57455 0.0
N598 N 0.67645 0.13388 0.63962 0.0
N599 N 0.58774 0.07369 0.59607 0.0
H600 H 0.51954 0.54846 0.90408 0.0
H601 H 0.55767 0.38439 0.98272 0.0
H602 H 0.59496 0.48655 0.88873 0.0
H603 H 0.47015 0.43285 0.99731 0.0
H604 H 0.57659 0.42774 0.94969 0.0
H605 H 0.50699 0.51362 0.94018 0.0
C606 C 0.53398 0.52816 0.90844 0.0
C607 C 0.55797 0.52003 0.89336 0.0
C608 C 0.55321 0.42899 0.96007 0.0
C609 C 0.54364 0.48009 0.93428 0.0
C610 C 0.54209 0.40387 0.97888 0.0
C611 C 0.51184 0.40449 0.9927 0.0
C612 C 0.53399 0.45508 0.9549 0.0
C613 C 0.49372 0.43146 0.98715 0.0
C614 C 0.52659 0.50807 0.92893 0.0
C615 C 0.57582 0.49333 0.89974 0.0
N616 N 0.50491 0.45554 0.96861 0.0
N617 N 0.56812 0.47423 0.9196 0.0
H618 H 0.17198 0.57867 0.22093 0.0
H619 H 0.12435 0.59451 0.34523 0.0
H620 H 1.07722 0.61658 0.23766 0.0
H621 H 0.16485 0.50475 0.32198 0.0
H622 H 0.11565 0.6127 0.30707 0.0
H623 H 0.17993 0.56265 0.25932 0.0
C624 C 0.15303 0.58398 0.23271 0.0
C625 C 0.12383 0.59902 0.22607 0.0
C626 C 0.12638 0.58902 0.31044 0.0
C627 C 0.13295 0.58063 0.27014 0.0
C628 C 0.13119 0.57838 0.33219 0.0
C629 C 0.14542 0.54794 0.33697 0.0
C630 C 0.13658 0.5697 0.29337 0.0
C631 C 0.15469 0.52901 0.31929 0.0
C632 C 0.15744 0.57452 0.25461 0.0
C633 C 0.09999 0.60494 0.2421 0.0
N634 N 0.15031 0.54036 0.29832 0.0
N635 N 0.1052 0.59587 0.2635 0.0
loop_
_geom_bond_atom_site_label_1
_geom_bond_atom_site_label_2
_geom_bond_distance
_geom_bond_site_symmetry_2
_ccdc_geom_bond_type
Tb0 C10 2.825 . S
Tb0 O11 2.347 . S
Tb0 O14 2.366 . S
Tb0 O19 2.418 . S
Tb0 O20 2.384 1_455 S
Tb0 O23 2.479 . S
Tb0 O24 2.471 . S
Eu1 O12 2.421 . S
Eu1 O13 2.384 1_655 S
Eu1 O16 2.479 . S
Eu1 O17 2.471 . S
Eu1 O18 2.347 1_655 S
Eu1 O21 2.366 . S
Eu1 C31 2.825 . S
C2 O18 1.259 . S
C2 O19 1.265 . S
C3 O20 1.255 . S
C3 O21 1.265 . S
C4 C6 1.380 . S
C4 C7 1.374 . S
C4 C10 1.507 . S
C5 C6 1.384 . S
C5 C9 1.387 . S
C5 H32 0.930 . S
C6 C4 1.380 . S
C6 C5 1.384 . S
C6 H33 0.931 . S
C7 C4 1.374 . S
C7 C8 1.390 . S
C7 H34 0.930 . S
C8 C7 1.390 . S
C8 C9 1.391 . S
C8 H35 0.930 . S
C9 C5 1.387 . S
C9 C8 1.391 . S
C10 Tb0 2.825 . S
C10 C4 1.507 . S
C10 O23 1.238 . S
C10 O24 1.247 . S
O11 Tb0 2.347 . S
O11 C15 1.259 . S
O12 Eu1 2.421 . S
O12 C15 1.252 1_655 S
O13 Eu1 2.384 1_455 S
O13 C22 1.255 . S
O14 Tb0 2.366 . S
O14 C22 1.265 . S
C15 O11 1.259 . S
C15 O12 1.252 1_455 S
O16 Eu1 2.479 . S
O16 C31 1.238 . S
O17 Eu1 2.471 . S
O17 C31 1.247 . S
O18 Eu1 2.347 1_455 S
O18 C2 1.259 . S
O19 Tb0 2.418 . S
O19 C2 1.265 . S
O20 Tb0 2.384 1_655 S
O20 C3 1.255 . S
O21 Eu1 2.366 . S
O21 C3 1.265 . S
C22 O13 1.255 . S
C22 O14 1.265 . S
O23 Tb0 2.479 . S
O23 C10 1.238 . S
O24 Tb0 2.471 . S
O24 C10 1.247 . S
C25 C28 1.380 . S
C25 C29 1.374 . S
C25 C31 1.507 . S
C26 C27 1.387 . S
C26 C30 1.391 . S
C27 C26 1.387 . S
C27 C28 1.384 . S
C27 H36 0.930 . S
C28 C25 1.380 . S
C28 C27 1.384 . S
C28 H37 0.931 . S
C29 C25 1.374 . S
C29 C30 1.390 . S
C29 H38 0.930 . S
C30 C26 1.391 . S
C30 C29 1.390 . S
C30 H39 0.930 . S
C31 Eu1 2.825 . S
C31 O16 1.238 . S
C31 O17 1.247 . S
C31 C25 1.507 . S
H32 C5 0.930 . S
H33 C6 0.931 . S
H34 C7 0.930 . S
H35 C8 0.930 . S
H36 C27 0.930 . S
H37 C28 0.931 . S
H38 C29 0.930 . S
H39 C30 0.930 . S
Tb40 C50 2.825 . S
Tb40 O51 2.347 . S
Tb40 O54 2.366 . S
Tb40 O59 2.418 . S
Tb40 O60 2.384 1_545 S
Tb40 O63 2.479 . S
Tb40 O64 2.471 . S
Eu41 O52 2.418 . S
Eu41 O53 2.384 . S
Eu41 O56 2.479 1_545 S
Eu41 O57 2.471 1_545 S
Eu41 O58 2.347 . S
Eu41 O61 2.366 1_545 S
Eu41 C71 2.825 1_545 S
C42 O58 1.259 . S
C42 O59 1.265 . S
C43 O60 1.255 . S
C43 O61 1.265 . S
C44 C46 1.380 . S
C44 C47 1.374 . S
C44 C50 1.507 . S
C45 C46 1.384 . S
C45 C49 1.387 . S
C45 H72 0.930 . S
C46 C44 1.380 . S
C46 C45 1.384 . S
C46 H73 0.931 . S
C47 C44 1.374 . S
C47 C48 1.390 . S
C47 H74 0.930 . S
C48 C47 1.390 . S
C48 C49 1.391 . S
C48 H75 0.930 . S
C49 C45 1.387 . S
C49 C48 1.391 . S
C50 Tb40 2.825 . S
C50 C44 1.507 . S
C50 O63 1.238 . S
C50 O64 1.247 . S
O51 Tb40 2.347 . S
O51 C55 1.259 . S
O52 Eu41 2.418 . S
O52 C55 1.265 . S
O53 Eu41 2.384 . S
O53 C62 1.255 . S
O54 Tb40 2.366 . S
O54 C62 1.265 . S
C55 O51 1.259 . S
C55 O52 1.265 . S
O56 Eu41 2.479 1_565 S
O56 C71 1.238 . S
O57 Eu41 2.471 1_565 S
O57 C71 1.247 . S
O58 Eu41 2.347 . S
O58 C42 1.259 . S
O59 Tb40 2.418 . S
O59 C42 1.265 . S
O60 Tb40 2.384 1_565 S
O60 C43 1.255 . S
O61 Eu41 2.366 1_565 S
O61 C43 1.265 . S
C62 O53 1.255 . S
C62 O54 1.265 . S
O63 Tb40 2.479 . S
O63 C50 1.238 . S
O64 Tb40 2.471 . S
O64 C50 1.247 . S
C65 C68 1.380 . S
C65 C69 1.374 . S
C65 C71 1.507 . S
C66 C67 1.387 . S
C66 C70 1.391 . S
C67 C66 1.387 . S
C67 C68 1.384 . S
C67 H76 0.930 . S
C68 C65 1.380 . S
C68 C67 1.384 . S
C68 H77 0.931 . S
C69 C65 1.374 . S
C69 C70 1.390 . S
C69 H78 0.930 . S
C70 C66 1.391 . S
C70 C69 1.390 . S
C70 H79 0.930 . S
C71 Eu41 2.825 1_565 S
C71 O56 1.238 . S
C71 O57 1.247 . S
C71 C65 1.507 . S
H72 C45 0.930 . S
H73 C46 0.931 . S
H74 C47 0.930 . S
H75 C48 0.930 . S
H76 C67 0.930 . S
H77 C68 0.931 . S
H78 C69 0.930 . S
H79 C70 0.930 . S
Tb80 C90 2.825 . S
Tb80 O91 2.347 . S
Tb80 O94 2.366 . S
Tb80 O99 2.418 . S
Tb80 O100 2.384 . S
Tb80 O103 2.479 . S
Tb80 O104 2.471 . S
Eu81 O92 2.418 . S
Eu81 O93 2.384 . S
Eu81 O96 2.479 . S
Eu81 O97 2.471 . S
Eu81 O98 2.347 . S
Eu81 O101 2.366 . S
Eu81 C111 2.825 . S
C82 O98 1.259 . S
C82 O99 1.265 . S
C83 O100 1.255 . S
C83 O101 1.265 . S
C84 C86 1.380 . S
C84 C87 1.374 . S
C84 C90 1.507 . S
C85 C86 1.384 . S
C85 C89 1.387 . S
C85 H112 0.930 . S
C86 C84 1.380 . S
C86 C85 1.384 . S
C86 H113 0.931 . S
C87 C84 1.374 . S
C87 C88 1.390 . S
C87 H114 0.930 . S
C88 C87 1.390 . S
C88 C89 1.391 . S
C88 H115 0.930 . S
C89 C85 1.387 . S
C89 C88 1.391 . S
C90 Tb80 2.825 . S
C90 C84 1.507 . S
C90 O103 1.238 . S
C90 O104 1.247 . S
O91 Tb80 2.347 . S
O91 C95 1.259 . S
O92 Eu81 2.418 . S
O92 C95 1.265 . S
O93 Eu81 2.384 . S
O93 C102 1.255 . S
O94 Tb80 2.366 . S
O94 C102 1.265 . S
C95 O91 1.259 . S
C95 O92 1.265 . S
O96 Eu81 2.479 . S
O96 C111 1.238 . S
O97 Eu81 2.471 . S
O97 C111 1.247 . S
O98 Eu81 2.347 . S
O98 C82 1.259 . S
O99 Tb80 2.418 . S
O99 C82 1.265 . S
O100 Tb80 2.384 . S
O100 C83 1.255 . S
O101 Eu81 2.366 . S
O101 C83 1.265 . S
C102 O93 1.255 . S
C102 O94 1.265 . S
O103 Tb80 2.479 . S
O103 C90 1.238 . S
O104 Tb80 2.471 . S
O104 C90 1.247 . S
C105 C108 1.380 . S
C105 C109 1.374 . S
C105 C111 1.507 . S
C106 C107 1.387 . S
C106 C110 1.391 . S
C107 C106 1.387 . S
C107 C108 1.384 . S
C107 H116 0.930 . S
C108 C105 1.380 . S
C108 C107 1.384 . S
C108 H117 0.931 . S
C109 C105 1.374 . S
C109 C110 1.390 . S
C109 H118 0.930 . S
C110 C106 1.391 . S
C110 C109 1.390 . S
C110 H119 0.930 . S
C111 Eu81 2.825 . S
C111 O96 1.238 . S
C111 O97 1.247 . S
C111 C105 1.507 . S
H112 C85 0.930 . S
H113 C86 0.931 . S
H114 C87 0.930 . S
H115 C88 0.930 . S
H116 C107 0.930 . S
H117 C108 0.931 . S
H118 C109 0.930 . S
H119 C110 0.930 . S
P120 O131 1.490 . S
P120 C134 1.812 . S
P120 C140 1.803 1_565 S
P120 C146 1.819 1_565 S
H121 C135 0.941 . S
H122 C136 0.939 . S
H123 C138 0.940 . S
H124 C139 0.940 . S
H125 C141 0.939 . S
H126 C142 0.942 . S
H127 C144 0.940 . S
H128 C145 0.939 . S
H129 C147 0.941 . S
H130 C151 0.939 . S
O131 P120 1.490 . S
H132 C148 0.939 . S
H133 C150 0.940 . S
C134 P120 1.812 . S
C134 C135 1.389 . S
C134 C139 1.391 . S
C135 H121 0.941 . S
C135 C134 1.389 . S
C135 C136 1.397 . S
C136 H122 0.939 . S
C136 C135 1.397 . S
C136 C137 1.378 . S
C137 C136 1.378 . S
C137 C138 1.378 . S
C138 H123 0.940 . S
C138 C137 1.378 . S
C138 C139 1.396 . S
C139 H124 0.940 . S
C139 C134 1.391 . S
C139 C138 1.396 . S
C140 P120 1.803 1_545 S
C140 C141 1.378 . S
C140 C145 1.400 . S
C141 H125 0.939 . S
C141 C140 1.378 . S
C141 C142 1.361 . S
C142 H126 0.942 . S
C142 C141 1.361 . S
C142 C143 1.369 . S
C143 C142 1.369 . S
C143 C144 1.404 . S
C144 H127 0.940 . S
C144 C143 1.404 . S
C144 C145 1.389 . S
C145 H128 0.939 . S
C145 C140 1.400 . S
C145 C144 1.389 . S
C146 P120 1.819 1_545 S
C146 C147 1.391 1_545 S
C146 C151 1.391 . S
C147 H129 0.941 . S
C147 C146 1.391 1_565 S
C147 C148 1.396 . S
C148 H132 0.939 . S
C148 C147 1.396 . S
C148 C149 1.397 1_565 S
C149 C148 1.397 1_545 S
C149 C150 1.385 . S
C150 H133 0.940 . S
C150 C149 1.385 . S
C150 C151 1.388 . S
C151 H130 0.939 . S
C151 C146 1.391 . S
C151 C150 1.388 . S
P152 O163 1.490 . S
P152 C166 1.812 . S
P152 C172 1.803 . S
P152 C178 1.819 . S
H153 C167 0.941 . S
H154 C168 0.939 . S
H155 C170 0.940 . S
H156 C171 0.940 . S
H157 C173 0.939 . S
H158 C174 0.942 . S
H159 C176 0.940 . S
H160 C177 0.939 . S
H161 C179 0.941 . S
H162 C183 0.939 . S
O163 P152 1.490 . S
H164 C180 0.939 . S
H165 C182 0.940 . S
C166 P152 1.812 . S
C166 C167 1.389 . S
C166 C171 1.391 . S
C167 H153 0.941 . S
C167 C166 1.389 . S
C167 C168 1.397 . S
C168 H154 0.939 . S
C168 C167 1.397 . S
C168 C169 1.378 . S
C169 C168 1.378 . S
C169 C170 1.378 . S
C170 H155 0.940 . S
C170 C169 1.378 . S
C170 C171 1.396 . S
C171 H156 0.940 . S
C171 C166 1.391 . S
C171 C170 1.396 . S
C172 P152 1.803 . S
C172 C173 1.378 . S
C172 C177 1.400 . S
C173 H157 0.939 . S
C173 C172 1.378 . S
C173 C174 1.361 . S
C174 H158 0.942 . S
C174 C173 1.361 . S
C174 C175 1.369 . S
C175 C174 1.369 . S
C175 C176 1.404 . S
C176 H159 0.940 . S
C176 C175 1.404 . S
C176 C177 1.389 . S
C177 H160 0.939 . S
C177 C172 1.400 . S
C177 C176 1.389 . S
C178 P152 1.819 . S
C178 C179 1.391 . S
C178 C183 1.391 . S
C179 H161 0.941 . S
C179 C178 1.391 . S
C179 C180 1.396 . S
C180 H164 0.939 . S
C180 C179 1.396 . S
C180 C181 1.397 . S
C181 C180 1.397 . S
C181 C182 1.385 . S
C182 H165 0.940 . S
C182 C181 1.385 . S
C182 C183 1.388 . S
C183 H162 0.939 . S
C183 C178 1.391 . S
C183 C182 1.388 . S
P184 O195 1.490 . S
P184 C198 1.812 . S
P184 C204 1.803 1_455 S
P184 C210 1.819 . S
H185 C199 0.941 . S
H186 C200 0.939 . S
H187 C202 0.940 . S
H188 C203 0.940 . S
H189 C205 0.939 . S
H190 C206 0.942 . S
H191 C208 0.940 . S
H192 C209 0.939 . S
H193 C211 0.941 . S
H194 C215 0.939 . S
O195 P184 1.490 . S
H196 C212 0.939 . S
H197 C214 0.940 . S
C198 P184 1.812 . S
C198 C199 1.389 . S
C198 C203 1.391 . S
C199 H185 0.941 . S
C199 C198 1.389 . S
C199 C200 1.397 . S
C200 H186 0.939 . S
C200 C199 1.397 . S
C200 C201 1.378 . S
C201 C200 1.378 . S
C201 C202 1.378 . S
C202 H187 0.940 . S
C202 C201 1.378 . S
C202 C203 1.396 . S
C203 H188 0.940 . S
C203 C198 1.391 . S
C203 C202 1.396 . S
C204 P184 1.803 1_655 S
C204 C205 1.378 . S
C204 C209 1.400 . S
C205 H189 0.939 . S
C205 C204 1.378 . S
C205 C206 1.361 . S
C206 H190 0.942 . S
C206 C205 1.361 . S
C206 C207 1.369 . S
C207 C206 1.369 . S
C207 C208 1.404 . S
C208 H191 0.940 . S
C208 C207 1.404 . S
C208 C209 1.389 . S
C209 H192 0.939 . S
C209 C204 1.400 . S
C209 C208 1.389 . S
C210 P184 1.819 . S
C210 C211 1.391 . S
C210 C215 1.391 1_455 S
C211 H193 0.941 . S
C211 C210 1.391 . S
C211 C212 1.396 . S
C212 H196 0.939 . S
C212 C211 1.396 . S
C212 C213 1.397 . S
C213 C212 1.397 . S
C213 C214 1.385 1_455 S
C214 H197 0.940 . S
C214 C213 1.385 1_655 S
C214 C215 1.388 . S
C215 H194 0.939 . S
C215 C210 1.391 1_655 S
C215 C214 1.388 . S
P216 O227 1.490 . S
P216 C230 1.812 . S
P216 C236 1.803 1_455 S
P216 C242 1.819 . S
H217 C231 0.941 . S
H218 C232 0.939 . S
H219 C234 0.940 . S
H220 C235 0.940 . S
H221 C237 0.939 . S
H222 C238 0.942 . S
H223 C240 0.940 . S
H224 C241 0.939 . S
H225 C243 0.941 . S
H226 C247 0.939 . S
O227 P216 1.490 . S
H228 C244 0.939 . S
H229 C246 0.940 . S
C230 P216 1.812 . S
C230 C231 1.389 . S
C230 C235 1.391 . S
C231 H217 0.941 . S
C231 C230 1.389 . S
C231 C232 1.397 . S
C232 H218 0.939 . S
C232 C231 1.397 . S
C232 C233 1.378 . S
C233 C232 1.378 . S
C233 C234 1.378 . S
C234 H219 0.940 . S
C234 C233 1.378 . S
C234 C235 1.396 . S
C235 H220 0.940 . S
C235 C230 1.391 . S
C235 C234 1.396 . S
C236 P216 1.803 1_655 S
C236 C237 1.378 . S
C236 C241 1.400 . S
C237 H221 0.939 . S
C237 C236 1.378 . S
C237 C238 1.361 . S
C238 H222 0.942 . S
C238 C237 1.361 . S
C238 C239 1.369 . S
C239 C238 1.369 . S
C239 C240 1.404 . S
C240 H223 0.940 . S
C240 C239 1.404 . S
C240 C241 1.389 . S
C241 H224 0.939 . S
C241 C236 1.400 . S
C241 C240 1.389 . S
C242 P216 1.819 . S
C242 C243 1.391 . S
C242 C247 1.391 1_455 S
C243 H225 0.941 . S
C243 C242 1.391 . S
C243 C244 1.396 . S
C244 H228 0.939 . S
C244 C243 1.396 . S
C244 C245 1.397 . S
C245 C244 1.397 . S
C245 C246 1.385 1_455 S
C246 H229 0.940 . S
C246 C245 1.385 1_655 S
C246 C247 1.388 . S
C247 H226 0.939 . S
C247 C242 1.391 1_655 S
C247 C246 1.388 . S
P248 O259 1.490 . S
P248 C262 1.812 . S
P248 C268 1.803 1_545 S
P248 C274 1.819 . S
H249 C263 0.941 . S
H250 C264 0.939 . S
H251 C266 0.940 . S
H252 C267 0.940 . S
H253 C269 0.939 . S
H254 C270 0.942 . S
H255 C272 0.940 . S
H256 C273 0.939 . S
H257 C275 0.941 . S
H258 C279 0.939 . S
O259 P248 1.490 . S
H260 C276 0.939 . S
H261 C278 0.940 . S
C262 P248 1.812 . S
C262 C263 1.389 . S
C262 C267 1.391 . S
C263 H249 0.941 . S
C263 C262 1.389 . S
C263 C264 1.397 . S
C264 H250 0.939 . S
C264 C263 1.397 . S
C264 C265 1.378 . S
C265 C264 1.378 . S
C265 C266 1.378 . S
C266 H251 0.940 . S
C266 C265 1.378 . S
C266 C267 1.396 . S
C267 H252 0.940 . S
C267 C262 1.391 . S
C267 C266 1.396 . S
C268 P248 1.803 1_565 S
C268 C269 1.378 . S
C268 C273 1.400 . S
C269 H253 0.939 . S
C269 C268 1.378 . S
C269 C270 1.361 . S
C270 H254 0.942 . S
C270 C269 1.361 . S
C270 C271 1.369 . S
C271 C270 1.369 . S
C271 C272 1.404 . S
C272 H255 0.940 . S
C272 C271 1.404 . S
C272 C273 1.389 . S
C273 H256 0.939 . S
C273 C268 1.400 . S
C273 C272 1.389 . S
C274 P248 1.819 . S
C274 C275 1.391 . S
C274 C279 1.391 1_545 S
C275 H257 0.941 . S
C275 C274 1.391 . S
C275 C276 1.396 . S
C276 H260 0.939 . S
C276 C275 1.396 . S
C276 C277 1.397 . S
C277 C276 1.397 . S
C277 C278 1.385 1_545 S
C278 H261 0.940 . S
C278 C277 1.385 1_565 S
C278 C279 1.388 . S
C279 H258 0.939 . S
C279 C274 1.391 1_565 S
C279 C278 1.388 . S
P280 O291 1.490 . S
P280 C294 1.812 . S
P280 C300 1.803 . S
P280 C306 1.819 . S
H281 C295 0.941 . S
H282 C296 0.939 . S
H283 C298 0.940 . S
H284 C299 0.940 . S
H285 C301 0.939 . S
H286 C302 0.942 . S
H287 C304 0.940 . S
H288 C305 0.939 . S
H289 C307 0.941 . S
H290 C311 0.939 . S
O291 P280 1.490 . S
H292 C308 0.939 . S
H293 C310 0.940 . S
C294 P280 1.812 . S
C294 C295 1.389 . S
C294 C299 1.391 . S
C295 H281 0.941 . S
C295 C294 1.389 . S
C295 C296 1.397 . S
C296 H282 0.939 . S
C296 C295 1.397 . S
C296 C297 1.378 . S
C297 C296 1.378 . S
C297 C298 1.378 . S
C298 H283 0.940 . S
C298 C297 1.378 . S
C298 C299 1.396 . S
C299 H284 0.940 . S
C299 C294 1.391 . S
C299 C298 1.396 . S
C300 P280 1.803 . S
C300 C301 1.378 . S
C300 C305 1.400 . S
C301 H285 0.939 . S
C301 C300 1.378 . S
C301 C302 1.361 . S
C302 H286 0.942 . S
C302 C301 1.361 . S
C302 C303 1.369 . S
C303 C302 1.369 . S
C303 C304 1.404 . S
C304 H287 0.940 . S
C304 C303 1.404 . S
C304 C305 1.389 . S
C305 H288 0.939 . S
C305 C300 1.400 . S
C305 C304 1.389 . S
C306 P280 1.819 . S
C306 C307 1.391 . S
C306 C311 1.391 . S
C307 H289 0.941 . S
C307 C306 1.391 . S
C307 C308 1.396 . S
C308 H292 0.939 . S
C308 C307 1.396 . S
C308 C309 1.397 . S
C309 C308 1.397 . S
C309 C310 1.385 . S
C310 H293 0.940 . S
C310 C309 1.385 . S
C310 C311 1.388 . S
C311 H290 0.939 . S
C311 C306 1.391 . S
C311 C310 1.388 . S
H312 C318 0.930 . S
H313 C322 0.930 . S
H314 C327 0.929 . S
H315 C325 0.929 . S
H316 C320 0.929 . S
H317 C326 0.929 . S
C318 H312 0.930 . S
C318 C319 1.367 . S
C318 C326 1.378 . S
C319 C318 1.367 . S
C319 C327 1.433 . S
C320 H316 0.929 . S
C320 C322 1.378 . S
C320 C324 1.350 . S
C321 C324 1.463 . S
C321 C326 1.350 . S
C321 N329 1.427 . S
C322 H313 0.930 . S
C322 C320 1.378 . S
C322 C323 1.367 . S
C323 C322 1.367 . S
C323 C325 1.433 . S
C324 C320 1.350 . S
C324 C321 1.463 . S
C324 N328 1.427 . S
C325 H315 0.929 . S
C325 C323 1.433 . S
C325 N328 1.384 . S
C326 H317 0.929 . S
C326 C318 1.378 . S
C326 C321 1.350 . S
C327 H314 0.929 . S
C327 C319 1.433 . S
C327 N329 1.384 . S
N328 C324 1.427 . S
N328 C325 1.384 . S
N329 C321 1.427 . S
N329 C327 1.384 . S
H330 C336 0.930 . S
H331 C340 0.930 . S
H332 C345 0.929 . S
H333 C343 0.929 . S
H334 C338 0.929 . S
H335 C344 0.929 . S
C336 H330 0.930 . S
C336 C337 1.367 . S
C336 C344 1.378 . S
C337 C336 1.367 . S
C337 C345 1.433 . S
C338 H334 0.929 . S
C338 C340 1.378 . S
C338 C342 1.350 . S
C339 C342 1.463 . S
C339 C344 1.350 . S
C339 N347 1.427 . S
C340 H331 0.930 . S
C340 C338 1.378 . S
C340 C341 1.367 . S
C341 C340 1.367 . S
C341 C343 1.433 . S
C342 C338 1.350 . S
C342 C339 1.463 . S
C342 N346 1.427 . S
C343 H333 0.929 . S
C343 C341 1.433 . S
C343 N346 1.384 . S
C344 H335 0.929 . S
C344 C336 1.378 . S
C344 C339 1.350 . S
C345 H332 0.929 . S
C345 C337 1.433 . S
C345 N347 1.384 . S
N346 C342 1.427 . S
N346 C343 1.384 . S
N347 C339 1.427 . S
N347 C345 1.384 . S
H348 C354 0.930 . S
H349 C358 0.930 . S
H350 C363 0.929 . S
H351 C361 0.929 . S
H352 C356 0.929 . S
H353 C362 0.929 . S
C354 H348 0.930 . S
C354 C355 1.367 . S
C354 C362 1.378 . S
C355 C354 1.367 . S
C355 C363 1.433 . S
C356 H352 0.929 . S
C356 C358 1.378 . S
C356 C360 1.350 . S
C357 C360 1.463 . S
C357 C362 1.350 . S
C357 N365 1.427 . S
C358 H349 0.930 . S
C358 C356 1.378 . S
C358 C359 1.367 . S
C359 C358 1.367 . S
C359 C361 1.433 . S
C360 C356 1.350 . S
C360 C357 1.463 . S
C360 N364 1.427 . S
C361 H351 0.929 . S
C361 C359 1.433 . S
C361 N364 1.384 . S
C362 H353 0.929 . S
C362 C354 1.378 . S
C362 C357 1.350 . S
C363 H350 0.929 . S
C363 C355 1.433 . S
C363 N365 1.384 . S
N364 C360 1.427 . S
N364 C361 1.384 . S
N365 C357 1.427 . S
N365 C363 1.384 . S
H366 C372 0.930 . S
H367 C376 0.930 . S
H368 C381 0.929 . S
H369 C379 0.929 . S
H370 C374 0.929 . S
H371 C380 0.929 . S
C372 H366 0.930 . S
C372 C373 1.367 . S
C372 C380 1.378 . S
C373 C372 1.367 . S
C373 C381 1.433 . S
C374 H370 0.929 . S
C374 C376 1.378 . S
C374 C378 1.350 . S
C375 C378 1.463 . S
C375 C380 1.350 . S
C375 N383 1.427 . S
C376 H367 0.930 . S
C376 C374 1.378 . S
C376 C377 1.367 . S
C377 C376 1.367 . S
C377 C379 1.433 . S
C378 C374 1.350 . S
C378 C375 1.463 . S
C378 N382 1.427 . S
C379 H369 0.929 . S
C379 C377 1.433 . S
C379 N382 1.384 . S
C380 H371 0.929 . S
C380 C372 1.378 . S
C380 C375 1.350 . S
C381 H368 0.929 . S
C381 C373 1.433 . S
C381 N383 1.384 . S
N382 C378 1.427 . S
N382 C379 1.384 . S
N383 C375 1.427 . S
N383 C381 1.384 . S
H384 C390 0.930 . S
H385 C394 0.930 . S
H386 C399 0.929 . S
H387 C397 0.929 . S
H388 C392 0.929 . S
H389 C398 0.929 . S
C390 H384 0.930 . S
C390 C391 1.367 . S
C390 C398 1.378 . S
C391 C390 1.367 . S
C391 C399 1.433 . S
C392 H388 0.929 . S
C392 C394 1.378 . S
C392 C396 1.350 . S
C393 C396 1.463 . S
C393 C398 1.350 . S
C393 N401 1.427 . S
C394 H385 0.930 . S
C394 C392 1.378 . S
C394 C395 1.367 . S
C395 C394 1.367 . S
C395 C397 1.433 . S
C396 C392 1.350 . S
C396 C393 1.463 . S
C396 N400 1.427 . S
C397 H387 0.929 . S
C397 C395 1.433 . S
C397 N400 1.384 . S
C398 H389 0.929 . S
C398 C390 1.378 . S
C398 C393 1.350 . S
C399 H386 0.929 . S
C399 C391 1.433 . S
C399 N401 1.384 . S
N400 C396 1.427 . S
N400 C397 1.384 . S
N401 C393 1.427 . S
N401 C399 1.384 . S
H402 C408 0.930 . S
H403 C412 0.930 . S
H404 C417 0.929 . S
H405 C415 0.929 . S
H406 C410 0.929 . S
H407 C416 0.929 . S
C408 H402 0.930 . S
C408 C409 1.367 . S
C408 C416 1.378 . S
C409 C408 1.367 . S
C409 C417 1.433 . S
C410 H406 0.929 . S
C410 C412 1.378 . S
C410 C414 1.350 . S
C411 C414 1.463 . S
C411 C416 1.350 . S
C411 N419 1.427 . S
C412 H403 0.930 . S
C412 C410 1.378 . S
C412 C413 1.367 . S
C413 C412 1.367 . S
C413 C415 1.433 . S
C414 C410 1.350 . S
C414 C411 1.463 . S
C414 N418 1.427 . S
C415 H405 0.929 . S
C415 C413 1.433 . S
C415 N418 1.384 . S
C416 H407 0.929 . S
C416 C408 1.378 . S
C416 C411 1.350 . S
C417 H404 0.929 . S
C417 C409 1.433 . S
C417 N419 1.384 . S
N418 C414 1.427 . S
N418 C415 1.384 . S
N419 C411 1.427 . S
N419 C417 1.384 . S
H420 C426 0.930 . S
H421 C430 0.930 . S
H422 C435 0.929 . S
H423 C433 0.929 . S
H424 C428 0.929 . S
H425 C434 0.929 . S
C426 H420 0.930 . S
C426 C427 1.367 . S
C426 C434 1.378 . S
C427 C426 1.367 . S
C427 C435 1.433 . S
C428 H424 0.929 . S
C428 C430 1.378 . S
C428 C432 1.350 . S
C429 C432 1.463 . S
C429 C434 1.350 . S
C429 N437 1.427 . S
C430 H421 0.930 . S
C430 C428 1.378 . S
C430 C431 1.367 . S
C431 C430 1.367 . S
C431 C433 1.433 . S
C432 C428 1.350 . S
C432 C429 1.463 . S
C432 N436 1.427 . S
C433 H423 0.929 . S
C433 C431 1.433 . S
C433 N436 1.384 . S
C434 H425 0.929 . S
C434 C426 1.378 . S
C434 C429 1.350 . S
C435 H422 0.929 . S
C435 C427 1.433 . S
C435 N437 1.384 . S
N436 C432 1.427 . S
N436 C433 1.384 . S
N437 C429 1.427 . S
N437 C435 1.384 . S
H438 C444 0.930 . S
H439 C448 0.930 . S
H440 C453 0.929 . S
H441 C451 0.929 . S
H442 C446 0.929 . S
H443 C452 0.929 . S
C444 H438 0.930 . S
C444 C445 1.367 . S
C444 C452 1.378 . S
C445 C444 1.367 . S
C445 C453 1.433 . S
C446 H442 0.929 . S
C446 C448 1.378 . S
C446 C450 1.350 . S
C447 C450 1.463 . S
C447 C452 1.350 . S
C447 N455 1.427 . S
C448 H439 0.930 . S
C448 C446 1.378 . S
C448 C449 1.367 . S
C449 C448 1.367 . S
C449 C451 1.433 . S
C450 C446 1.350 . S
C450 C447 1.463 . S
C450 N454 1.427 . S
C451 H441 0.929 . S
C451 C449 1.433 . S
C451 N454 1.384 . S
C452 H443 0.929 . S
C452 C444 1.378 . S
C452 C447 1.350 . S
C453 H440 0.929 . S
C453 C445 1.433 . S
C453 N455 1.384 . S
N454 C450 1.427 . S
N454 C451 1.384 . S
N455 C447 1.427 . S
N455 C453 1.384 . S
H456 C462 0.930 . S
H457 C466 0.930 . S
H458 C471 0.929 . S
H459 C469 0.929 . S
H460 C464 0.929 . S
H461 C470 0.929 . S
C462 H456 0.930 . S
C462 C463 1.367 . S
C462 C470 1.378 . S
C463 C462 1.367 . S
C463 C471 1.433 . S
C464 H460 0.929 . S
C464 C466 1.378 . S
C464 C468 1.350 . S
C465 C468 1.463 . S
C465 C470 1.350 . S
C465 N473 1.427 . S
C466 H457 0.930 . S
C466 C464 1.378 . S
C466 C467 1.367 . S
C467 C466 1.367 . S
C467 C469 1.433 . S
C468 C464 1.350 . S
C468 C465 1.463 . S
C468 N472 1.427 . S
C469 H459 0.929 . S
C469 C467 1.433 . S
C469 N472 1.384 . S
C470 H461 0.929 . S
C470 C462 1.378 . S
C470 C465 1.350 . S
C471 H458 0.929 . S
C471 C463 1.433 . S
C471 N473 1.384 . S
N472 C468 1.427 . S
N472 C469 1.384 . S
N473 C465 1.427 . S
N473 C471 1.384 . S
H474 C480 0.930 . S
H475 C484 0.930 . S
H476 C489 0.929 . S
H477 C487 0.929 . S
H478 C482 0.929 . S
H479 C488 0.929 . S
C480 H474 0.930 . S
C480 C481 1.367 . S
C480 C488 1.378 . S
C481 C480 1.367 . S
C481 C489 1.433 . S
C482 H478 0.929 . S
C482 C484 1.378 . S
C482 C486 1.350 . S
C483 C486 1.463 . S
C483 C488 1.350 . S
C483 N491 1.427 . S
C484 H475 0.930 . S
C484 C482 1.378 . S
C484 C485 1.367 . S
C485 C484 1.367 . S
C485 C487 1.433 . S
C486 C482 1.350 . S
C486 C483 1.463 . S
C486 N490 1.427 . S
C487 H477 0.929 . S
C487 C485 1.433 . S
C487 N490 1.384 . S
C488 H479 0.929 . S
C488 C480 1.378 . S
C488 C483 1.350 . S
C489 H476 0.929 . S
C489 C481 1.433 . S
C489 N491 1.384 . S
N490 C486 1.427 . S
N490 C487 1.384 . S
N491 C483 1.427 . S
N491 C489 1.384 . S
H492 C498 0.930 . S
H493 C502 0.930 . S
H494 C507 0.929 . S
H495 C505 0.929 . S
H496 C500 0.929 . S
H497 C506 0.929 . S
C498 H492 0.930 . S
C498 C499 1.367 . S
C498 C506 1.378 . S
C499 C498 1.367 . S
C499 C507 1.433 . S
C500 H496 0.929 . S
C500 C502 1.378 . S
C500 C504 1.350 . S
C501 C504 1.463 . S
C501 C506 1.350 . S
C501 N509 1.427 . S
C502 H493 0.930 . S
C502 C500 1.378 . S
C502 C503 1.367 . S
C503 C502 1.367 . S
C503 C505 1.433 . S
C504 C500 1.350 . S
C504 C501 1.463 . S
C504 N508 1.427 . S
C505 H495 0.929 . S
C505 C503 1.433 . S
C505 N508 1.384 . S
C506 H497 0.929 . S
C506 C498 1.378 . S
C506 C501 1.350 . S
C507 H494 0.929 . S
C507 C499 1.433 . S
C507 N509 1.384 . S
N508 C504 1.427 . S
N508 C505 1.384 . S
N509 C501 1.427 . S
N509 C507 1.384 . S
H510 C516 0.930 . S
H511 C520 0.930 . S
H512 C525 0.929 . S
H513 C523 0.929 . S
H514 C518 0.929 . S
H515 C524 0.929 . S
C516 H510 0.930 . S
C516 C517 1.367 . S
C516 C524 1.378 . S
C517 C516 1.367 . S
C517 C525 1.433 . S
C518 H514 0.929 . S
C518 C520 1.378 . S
C518 C522 1.350 . S
C519 C522 1.463 . S
C519 C524 1.350 . S
C519 N527 1.427 . S
C520 H511 0.930 . S
C520 C518 1.378 . S
C520 C521 1.367 . S
C521 C520 1.367 . S
C521 C523 1.433 . S
C522 C518 1.350 . S
C522 C519 1.463 . S
C522 N526 1.427 . S
C523 H513 0.929 . S
C523 C521 1.433 . S
C523 N526 1.384 . S
C524 H515 0.929 . S
C524 C516 1.378 . S
C524 C519 1.350 . S
C525 H512 0.929 . S
C525 C517 1.433 . S
C525 N527 1.384 . S
N526 C522 1.427 . S
N526 C523 1.384 . S
N527 C519 1.427 . S
N527 C525 1.384 . S
H528 C534 0.930 . S
H529 C538 0.930 . S
H530 C543 0.929 . S
H531 C541 0.929 . S
H532 C536 0.929 . S
H533 C542 0.929 . S
C534 H528 0.930 . S
C534 C535 1.367 1_655 S
C534 C542 1.378 . S
C535 C534 1.367 1_455 S
C535 C543 1.433 . S
C536 H532 0.929 . S
C536 C538 1.378 1_554 S
C536 C540 1.350 . S
C537 C540 1.463 . S
C537 C542 1.350 1_455 S
C537 N545 1.427 . S
C538 H529 0.930 . S
C538 C536 1.378 1_556 S
C538 C539 1.367 . S
C539 C538 1.367 . S
C539 C541 1.433 1_455 S
C540 C536 1.350 . S
C540 C537 1.463 . S
C540 N544 1.427 1_455 S
C541 H531 0.929 . S
C541 C539 1.433 1_655 S
C541 N544 1.384 1_556 S
C542 H533 0.929 . S
C542 C534 1.378 . S
C542 C537 1.350 1_655 S
C543 H530 0.929 . S
C543 C535 1.433 . S
C543 N545 1.384 . S
N544 C540 1.427 1_655 S
N544 C541 1.384 1_554 S
N545 C537 1.427 . S
N545 C543 1.384 . S
H546 C552 0.930 . S
H547 C556 0.930 . S
H548 C561 0.929 1_565 S
H549 C559 0.929 . S
H550 C554 0.923 1_565 S
H551 C560 0.929 . S
C552 H546 0.930 . S
C552 C553 1.367 . S
C552 C560 1.378 . S
C553 C552 1.367 . S
C553 C561 1.433 . S
C554 H550 0.923 1_545 S
C554 C556 1.377 1_545 S
C554 C558 1.357 . S
C555 C558 1.463 . S
C555 C560 1.350 . S
C555 N563 1.427 . S
C556 H547 0.930 . S
C556 C554 1.377 1_565 S
C556 C557 1.367 1_565 S
C557 C556 1.367 1_545 S
C557 C559 1.433 . S
C558 C554 1.357 . S
C558 C555 1.463 . S
C558 N562 1.427 . S
C559 H549 0.929 . S
C559 C557 1.433 . S
C559 N562 1.384 . S
C560 H551 0.929 . S
C560 C552 1.378 . S
C560 C555 1.350 . S
C561 H548 0.929 1_545 S
C561 C553 1.433 . S
C561 N563 1.384 . S
N562 C558 1.427 . S
N562 C559 1.384 . S
N563 C555 1.427 . S
N563 C561 1.384 . S
H564 C570 0.930 . S
H565 C574 0.930 . S
H566 C579 0.929 . S
H567 C577 0.929 . S
H568 C572 0.929 . S
H569 C578 0.929 . S
C570 H564 0.930 . S
C570 C571 1.367 . S
C570 C578 1.378 . S
C571 C570 1.367 . S
C571 C579 1.433 . S
C572 H568 0.929 . S
C572 C574 1.378 . S
C572 C576 1.350 . S
C573 C576 1.463 . S
C573 C578 1.350 . S
C573 N581 1.427 . S
C574 H565 0.930 . S
C574 C572 1.378 . S
C574 C575 1.367 . S
C575 C574 1.367 . S
C575 C577 1.433 . S
C576 C572 1.350 . S
C576 C573 1.463 . S
C576 N580 1.427 . S
C577 H567 0.929 . S
C577 C575 1.433 . S
C577 N580 1.384 . S
C578 H569 0.929 . S
C578 C570 1.378 . S
C578 C573 1.350 . S
C579 H566 0.929 . S
C579 C571 1.433 . S
C579 N581 1.384 . S
N580 C576 1.427 . S
N580 C577 1.384 . S
N581 C573 1.427 . S
N581 C579 1.384 . S
H582 C588 0.930 . S
H583 C592 0.930 . S
H584 C597 0.929 . S
H585 C595 0.929 . S
H586 C590 0.929 . S
H587 C596 0.929 . S
C588 H582 0.930 . S
C588 C589 1.367 . S
C588 C596 1.378 . S
C589 C588 1.367 . S
C589 C597 1.433 1_545 S
C590 H586 0.929 . S
C590 C592 1.378 . S
C590 C594 1.350 1_565 S
C591 C594 1.463 . S
C591 C596 1.350 . S
C591 N599 1.427 1_545 S
C592 H583 0.930 . S
C592 C590 1.378 . S
C592 C593 1.367 1_565 S
C593 C592 1.367 1_545 S
C593 C595 1.433 . S
C594 C590 1.350 1_545 S
C594 C591 1.463 . S
C594 N598 1.427 . S
C595 H585 0.929 . S
C595 C593 1.433 . S
C595 N598 1.384 . S
C596 H587 0.929 . S
C596 C588 1.378 . S
C596 C591 1.350 . S
C597 H584 0.929 . S
C597 C589 1.433 1_565 S
C597 N599 1.384 . S
N598 C594 1.427 . S
N598 C595 1.384 . S
N599 C591 1.427 1_565 S
N599 C597 1.384 . S
H600 C606 0.930 . S
H601 C610 0.930 . S
H602 C615 0.929 . S
H603 C613 0.929 1_554 S
H604 C608 0.929 . S
H605 C614 0.929 . S
C606 H600 0.930 . S
C606 C607 1.367 . S
C606 C614 1.378 . S
C607 C606 1.367 . S
C607 C615 1.433 . S
C608 H604 0.929 . S
C608 C610 1.378 . S
C608 C612 1.350 . S
C609 C612 1.463 . S
C609 C614 1.350 . S
C609 N617 1.427 . S
C610 H601 0.930 . S
C610 C608 1.378 . S
C610 C611 1.367 1_556 S
C611 C610 1.367 1_554 S
C611 C613 1.433 1_554 S
C612 C608 1.350 . S
C612 C609 1.463 . S
C612 N616 1.427 . S
C613 H603 0.929 1_556 S
C613 C611 1.433 1_556 S
C613 N616 1.384 . S
C614 H605 0.929 . S
C614 C606 1.378 . S
C614 C609 1.350 . S
C615 H602 0.929 . S
C615 C607 1.433 . S
C615 N617 1.384 . S
N616 C612 1.427 . S
N616 C613 1.384 . S
N617 C609 1.427 . S
N617 C615 1.384 . S
H618 C624 0.930 . S
H619 C628 0.930 1_655 S
H620 C633 0.929 . S
H621 C631 0.929 . S
H622 C626 0.929 . S
H623 C632 0.929 . S
C624 H618 0.930 . S
C624 C625 1.367 . S
C624 C632 1.378 . S
C625 C624 1.367 . S
C625 C633 1.433 . S
C626 H622 0.929 . S
C626 C628 1.378 . S
C626 C630 1.350 . S
C627 C630 1.463 . S
C627 C632 1.350 . S
C627 N635 1.427 . S
C628 H619 0.930 1_455 S
C628 C626 1.378 . S
C628 C629 1.367 . S
C629 C628 1.367 . S
C629 C631 1.433 . S
C630 C626 1.350 . S
C630 C627 1.463 . S
C630 N634 1.427 . S
C631 H621 0.929 . S
C631 C629 1.433 . S
C631 N634 1.384 . S
C632 H623 0.929 . S
C632 C624 1.378 . S
C632 C627 1.350 . S
C633 H620 0.929 . S
C633 C625 1.433 . S
C633 N635 1.384 . S
N634 C630 1.427 . S
N634 C631 1.384 . S
N635 C627 1.427 . S
N635 C633 1.384 . S
C319 C9 0.503 . S
C323 C303 0.419 . S
C337 C49 0.344 . S
C341 C239 0.371 . S
C355 C89 0.344 . S
C359 C271 0.383 . S
C373 C26 0.467 . S
C377 C297 0.364 . S
C395 C233 0.475 . S
C391 C66 0.526 . S
C413 C265 0.518 . S
C409 C106 0.564 . S
C427 C43 2.941 . S
C431 C175 2.885 . S
C445 C83 3.038 . S
C449 C207 2.961 . S
C463 C22 3.099 . S
C467 C137 3.032 . S
C485 C169 3.027 . S
C481 C62 3.095 . S
C503 C201 2.935 . S
C499 C102 2.996 . S
C517 C3 2.939 . S
C521 C143 2.885 . S
C539 C213 1.755 . S
C535 C15 1.735 . S
C553 C55 1.751 . S
C557 C149 1.757 . S
C571 C95 1.744 . S
C575 C181 1.757 . S
C593 C277 1.053 . S
C589 C42 1.061 . S
C611 C309 1.072 . S
C607 C82 1.064 . S
C625 C2 1.055 . S
C629 C245 1.054 . S
