# Generated by pormake.
# Topology ant, (3,6)-cn, num edge types: 1
# Building blocks:
#     Node 0, Type 0, BuildingBlock: KAKCAD_clean_linker_0, # of connection points: 3
#     Node 1, Type 0, BuildingBlock: KAKCAD_clean_linker_0, # of connection points: 3
#     Node 2, Type 0, BuildingBlock: KAKCAD_clean_linker_0, # of connection points: 3
#     Node 3, Type 0, BuildingBlock: KAKCAD_clean_linker_0, # of connection points: 3
#     Node 4, Type 0, BuildingBlock: KAKCAD_clean_linker_0, # of connection points: 3
#     Node 5, Type 0, BuildingBlock: KAKCAD_clean_linker_0, # of connection points: 3
#     Node 6, Type 0, BuildingBlock: KAKCAD_clean_linker_0, # of connection points: 3
#     Node 7, Type 0, BuildingBlock: KAKCAD_clean_linker_0, # of connection points: 3
#     Node 8, Type 1, BuildingBlock: MIDCAF_clean_sbu_0, # of connection points: 6
#     Node 9, Type 1, BuildingBlock: MIDCAF_clean_sbu_0, # of connection points: 6
#     Node 10, Type 1, BuildingBlock: MIDCAF_clean_sbu_0, # of connection points: 6
#     Node 11, Type 1, BuildingBlock: MIDCAF_clean_sbu_0, # of connection points: 6
#     Edge 12, Type (0, 1), BuildingBlock: KIFKEQ_clean_linker_1, # of connection points: 2
#     Edge 13, Type (0, 1), BuildingBlock: KIFKEQ_clean_linker_1, # of connection points: 2
#     Edge 14, Type (0, 1), BuildingBlock: KIFKEQ_clean_linker_1, # of connection points: 2
#     Edge 15, Type (0, 1), BuildingBlock: KIFKEQ_clean_linker_1, # of connection points: 2
#     Edge 16, Type (0, 1), BuildingBlock: KIFKEQ_clean_linker_1, # of connection points: 2
#     Edge 17, Type (0, 1), BuildingBlock: KIFKEQ_clean_linker_1, # of connection points: 2
#     Edge 18, Type (0, 1), BuildingBlock: KIFKEQ_clean_linker_1, # of connection points: 2
#     Edge 19, Type (0, 1), BuildingBlock: KIFKEQ_clean_linker_1, # of connection points: 2
#     Edge 20, Type (0, 1), BuildingBlock: KIFKEQ_clean_linker_1, # of connection points: 2
#     Edge 21, Type (0, 1), BuildingBlock: KIFKEQ_clean_linker_1, # of connection points: 2
#     Edge 22, Type (0, 1), BuildingBlock: KIFKEQ_clean_linker_1, # of connection points: 2
#     Edge 23, Type (0, 1), BuildingBlock: KIFKEQ_clean_linker_1, # of connection points: 2
#     Edge 24, Type (0, 1), BuildingBlock: KIFKEQ_clean_linker_1, # of connection points: 2
#     Edge 25, Type (0, 1), BuildingBlock: KIFKEQ_clean_linker_1, # of connection points: 2
#     Edge 26, Type (0, 1), BuildingBlock: KIFKEQ_clean_linker_1, # of connection points: 2
#     Edge 27, Type (0, 1), BuildingBlock: KIFKEQ_clean_linker_1, # of connection points: 2
#     Edge 28, Type (0, 1), BuildingBlock: KIFKEQ_clean_linker_1, # of connection points: 2
#     Edge 29, Type (0, 1), BuildingBlock: KIFKEQ_clean_linker_1, # of connection points: 2
#     Edge 30, Type (0, 1), BuildingBlock: KIFKEQ_clean_linker_1, # of connection points: 2
#     Edge 31, Type (0, 1), BuildingBlock: KIFKEQ_clean_linker_1, # of connection points: 2
#     Edge 32, Type (0, 1), BuildingBlock: KIFKEQ_clean_linker_1, # of connection points: 2
#     Edge 33, Type (0, 1), BuildingBlock: KIFKEQ_clean_linker_1, # of connection points: 2
#     Edge 34, Type (0, 1), BuildingBlock: KIFKEQ_clean_linker_1, # of connection points: 2
#     Edge 35, Type (0, 1), BuildingBlock: KIFKEQ_clean_linker_1, # of connection points: 2
# Relax obj value: 0.103
# Max RMSD: 0.159
# Mean RMSD: 0.105
data_MOF--net-ant--node1-MIDCAF_clean_sbu_0--node2-KAKCAD_clean_linker_0--edge1-KIFKEQ_clean_linker_1
_symmetry_space_group_name_H-M    P1
_symmetry_Int_Tables_number       1
_symmetry_cell_setting            triclinic
loop_
_symmetry_equiv_pos_as_xyz
'x, y, z'
_cell_length_a     34.637492
_cell_length_b     34.540977
_cell_length_c     95.056884
_cell_angle_alpha  90.219614
_cell_angle_beta   93.860117
_cell_angle_gamma 90.127146
loop_
_atom_site_label
_atom_site_type_symbol
_atom_site_fract_x
_atom_site_fract_y
_atom_site_fract_z
_atom_type_partial_charge
C0 C 0.14128 0.16549 0.01948 0.0
C1 C 0.14691 0.19082 0.00831 0.0
C2 C 0.15539 0.17499 0.0332 0.0
C3 C 0.17622 0.20964 0.03598 0.0
C4 C 0.18209 0.23464 0.02465 0.0
C5 C 0.16728 0.2255 0.01102 0.0
C6 C 0.19228 0.21954 0.05053 0.0
C7 C 0.2058 0.19034 0.05984 0.0
C8 C 0.22129 0.19938 0.07346 0.0
C9 C 0.22415 0.23821 0.07781 0.0
C10 C 0.21049 0.26804 0.06872 0.0
C11 C 0.19436 0.25828 0.05518 0.0
C12 C 0.21181 0.3093 0.07339 0.0
C13 C 0.20254 0.31958 0.08708 0.0
C14 C 0.22106 0.3389 0.06403 0.0
C15 C 0.2206 0.37779 0.0682 0.0
C16 C 0.21106 0.38805 0.08186 0.0
C17 C 0.23303 0.1675 0.08315 0.0
C18 C 0.20526 0.14042 0.08681 0.0
C19 C 0.272 0.16181 0.0877 0.0
C20 C 0.28322 0.12839 0.09524 0.0
C21 C 0.25548 0.10063 0.09855 0.0
C22 C 0.21629 0.1075 0.09451 0.0
C23 C 0.20217 0.35844 0.09125 0.0
H24 H 0.12545 0.13866 0.01761 0.0
H25 H 0.14958 0.15529 0.04164 0.0
H26 H 0.19869 0.26107 0.02623 0.0
H27 H 0.1724 0.24525 0.00251 0.0
H28 H 0.20492 0.16031 0.05648 0.0
H29 H 0.18241 0.28096 0.04837 0.0
H30 H 0.23655 0.24502 0.0883 0.0
H31 H 0.19461 0.29766 0.09448 0.0
H32 H 0.22889 0.332 0.05347 0.0
H33 H 0.22811 0.39981 0.06077 0.0
H34 H 0.17506 0.14422 0.08334 0.0
H35 H 0.29388 0.18231 0.08488 0.0
H36 H 0.19409 0.36532 0.10178 0.0
H37 H 0.19428 0.08642 0.09668 0.0
H38 H 0.3136 0.12382 0.09821 0.0
C39 C 0.08233 0.80165 0.24843 0.0
C40 C 0.05347 0.82394 0.24137 0.0
C41 C 0.08497 0.79964 0.26309 0.0
C42 C 0.05906 0.82036 0.27106 0.0
C43 C 0.03053 0.84338 0.2639 0.0
C44 C 0.0276 0.84494 0.24914 0.0
C45 C 0.06072 0.8157 0.28668 0.0
C46 C 0.09636 0.81024 0.29435 0.0
C47 C 0.09822 0.79951 0.30865 0.0
C48 C 0.06359 0.79649 0.31553 0.0
C49 C 0.02777 0.80382 0.30815 0.0
C50 C 0.02662 0.81314 0.29377 0.0
C51 C 0.99082 0.79963 0.31495 0.0
C52 C 0.98052 0.76421 0.32084 0.0
C53 C 0.96394 0.82999 0.31424 0.0
C54 C 0.92704 0.82481 0.31901 0.0
C55 C 0.91583 0.78884 0.32437 0.0
C56 C 0.13639 0.78934 0.31587 0.0
C57 C 0.16339 0.7683 0.30853 0.0
C58 C 0.14664 0.80088 0.32984 0.0
C59 C 0.18336 0.79213 0.33618 0.0
C60 C 0.21048 0.7715 0.3287 0.0
C61 C 0.19989 0.75981 0.31479 0.0
C62 C 0.94331 0.75875 0.32542 0.0
H63 H 0.1023 0.78497 0.24255 0.0
H64 H 0.10665 0.7808 0.26812 0.0
H65 H 0.01034 0.86002 0.26968 0.0
H66 H 1.00513 0.86227 0.24379 0.0
H67 H 0.12292 0.81371 0.28909 0.0
H68 H 0.99878 0.81643 0.28798 0.0
H69 H 0.06432 0.78782 0.32649 0.0
H70 H 1.00065 0.74022 0.32131 0.0
H71 H 0.97135 0.85763 0.30977 0.0
H72 H 0.90723 0.84903 0.31839 0.0
H73 H 0.15635 0.75827 0.29785 0.0
H74 H 0.12657 0.81723 0.33577 0.0
H75 H 0.93576 0.73053 0.32933 0.0
H76 H 0.22006 0.74446 0.30858 0.0
H77 H 0.19039 0.80129 0.34696 0.0
C78 C 0.69167 0.6765 0.50836 0.0
C79 C 0.70365 0.70196 0.498 0.0
C80 C 0.7004 0.68435 0.52267 0.0
C81 C 0.72115 0.71792 0.52693 0.0
C82 C 0.73338 0.7432 0.51657 0.0
C83 C 0.72477 0.7353 0.50228 0.0
C84 C 0.72949 0.72685 0.54214 0.0
C85 C 0.74166 0.69757 0.5516 0.0
C86 C 0.74821 0.70547 0.56603 0.0
C87 C 0.7429 0.74319 0.5711 0.0
C88 C 0.73152 0.77326 0.56173 0.0
C89 C 0.72464 0.7646 0.54729 0.0
C90 C 0.72643 0.81365 0.56688 0.0
C91 C 0.70925 0.82091 0.57961 0.0
C92 C 0.73818 0.84538 0.55893 0.0
C93 C 0.7327 0.88335 0.56354 0.0
C94 C 0.71556 0.89059 0.57627 0.0
C95 C 0.75943 0.67338 0.57566 0.0
C96 C 0.73203 0.65686 0.58403 0.0
C97 C 0.79577 0.65589 0.5751 0.0
C98 C 0.80408 0.62141 0.58234 0.0
C99 C 0.77581 0.60317 0.59003 0.0
C100 C 0.74001 0.62201 0.59108 0.0
C101 C 0.70391 0.8589 0.58425 0.0
H102 H 0.67557 0.65047 0.50542 0.0
H103 H 0.69026 0.66448 0.53041 0.0
H104 H 0.74971 0.76911 0.51951 0.0
H105 H 0.73399 0.75578 0.49458 0.0
H106 H 0.74585 0.66837 0.54776 0.0
H107 H 0.71436 0.7871 0.54007 0.0
H108 H 0.74837 0.74912 0.58226 0.0
H109 H 0.69928 0.79726 0.58588 0.0
H110 H 0.7521 0.8409 0.54919 0.0
H111 H 0.74256 0.90705 0.55726 0.0
H112 H 0.70362 0.66972 0.58444 0.0
H113 H 0.81728 0.66826 0.56866 0.0
H114 H 0.69015 0.86348 0.59401 0.0
H115 H 0.71718 0.60882 0.59667 0.0
H116 H 0.83226 0.60843 0.58152 0.0
C117 C 0.59574 0.27444 0.75673 0.0
C118 C 0.57647 0.3004 0.74735 0.0
C119 C 0.59602 0.28038 0.77126 0.0
C120 C 0.57654 0.31209 0.77672 0.0
C121 C 0.55686 0.33789 0.76737 0.0
C122 C 0.5572 0.33234 0.75277 0.0
C123 C 0.57654 0.31768 0.79216 0.0
C124 C 0.61143 0.31705 0.80053 0.0
C125 C 0.61178 0.31995 0.81528 0.0
C126 C 0.57642 0.32362 0.82165 0.0
C127 C 0.54096 0.32369 0.81339 0.0
C128 C 0.54155 0.3212 0.79863 0.0
C129 C 0.5031 0.32333 0.82002 0.0
C130 C 0.49813 0.30103 0.83212 0.0
C131 C 0.47082 0.34289 0.81369 0.0
C132 C 0.43432 0.33916 0.81902 0.0
C133 C 0.42927 0.31615 0.83091 0.0
C134 C 0.64921 0.31716 0.82387 0.0
C135 C 0.67595 0.28832 0.82078 0.0
C136 C 0.65913 0.3436 0.83482 0.0
C137 C 0.69542 0.34166 0.84231 0.0
C138 C 0.72219 0.31285 0.83912 0.0
C139 C 0.71188 0.28616 0.82831 0.0
C140 C 0.46169 0.29759 0.83752 0.0
H141 H 0.61117 0.24983 0.7528 0.0
H142 H 0.61114 0.25994 0.77826 0.0
H143 H 0.54168 0.36257 0.77136 0.0
H144 H 0.54219 0.35274 0.74573 0.0
H145 H 0.63848 0.31435 0.79549 0.0
H146 H 0.51465 0.31989 0.79212 0.0
H147 H 0.57651 0.32541 0.83304 0.0
H148 H 0.52206 0.285 0.83714 0.0
H149 H 0.47365 0.36087 0.80451 0.0
H150 H 0.41003 0.35434 0.81384 0.0
H151 H 0.66906 0.26731 0.81249 0.0
H152 H 0.63916 0.36624 0.83739 0.0
H153 H 0.45867 0.27934 0.84662 0.0
H154 H 0.73193 0.26388 0.82547 0.0
H155 H 0.70246 0.36249 0.85064 0.0
C156 C 0.07297 0.7148 0.98988 0.0
C157 C 0.09394 0.68057 0.99276 0.0
C158 C 0.06298 0.72592 0.976 0.0
C159 C 0.07361 0.70303 0.96466 0.0
C160 C 0.09459 0.66878 0.96751 0.0
C161 C 0.10476 0.65773 0.98142 0.0
C162 C 0.06247 0.71463 0.9499 0.0
C163 C 0.06614 0.75328 0.94559 0.0
C164 C 0.05582 0.76431 0.93158 0.0
C165 C 0.04182 0.7359 0.92184 0.0
C166 C 0.03775 0.69738 0.9261 0.0
C167 C 0.04802 0.68696 0.94007 0.0
C168 C 0.02359 0.66705 0.9161 0.0
C169 C 0.98576 0.65282 0.91653 0.0
C170 C 0.04962 0.64812 0.90779 0.0
C171 C 0.03877 0.61386 0.9007 0.0
C172 C 1.00157 0.59796 0.90178 0.0
C173 C 0.05989 0.80541 0.92721 0.0
C174 C 0.04972 0.83576 0.93615 0.0
C175 C 0.07429 0.81466 0.91416 0.0
C176 C 0.07852 0.8533 0.91016 0.0
C177 C 0.06842 0.88366 0.91911 0.0
C178 C 0.05393 0.87438 0.93215 0.0
C179 C 0.9747 0.61876 0.90932 0.0
H180 H 0.06474 0.73339 -0.00163 0.0
H181 H 0.04656 0.75228 0.97415 0.0
H182 H 0.10351 0.6507 0.95899 0.0
H183 H 0.12085 0.63119 0.98329 0.0
H184 H 0.07803 0.77463 0.95307 0.0
H185 H 0.04455 0.65712 0.94328 0.0
H186 H 0.0335 0.74371 0.91103 0.0
H187 H 0.96537 0.66704 0.92298 0.0
H188 H 0.07911 0.65847 0.90752 0.0
H189 H 0.06049 0.59853 0.89521 0.0
H190 H 0.03815 0.82969 0.94621 0.0
H191 H 0.08275 0.79204 0.90708 0.0
H192 H 0.94566 0.6078 0.9102 0.0
H193 H 0.04616 0.897 0.93935 0.0
H194 H 0.08929 0.85935 0.89996 0.0
C195 C 0.71724 0.82674 0.2419 0.0
C196 C 0.68432 0.8113 0.24767 0.0
C197 C 0.71784 0.8322 0.22732 0.0
C198 C 0.68577 0.82158 0.21819 0.0
C199 C 0.65302 0.8058 0.22408 0.0
C200 C 0.6522 0.80108 0.23863 0.0
C201 C 0.68651 0.82601 0.20258 0.0
C202 C 0.72073 0.81955 0.19576 0.0
C203 C 0.7212 0.82204 0.181 0.0
C204 C 0.6866 0.83024 0.17295 0.0
C205 C 0.65215 0.83682 0.17958 0.0
C206 C 0.65256 0.83537 0.19435 0.0
C207 C 0.61487 0.84283 0.17125 0.0
C208 C 0.59063 0.8737 0.17446 0.0
C209 C 0.60141 0.81534 0.16116 0.0
C210 C 0.56349 0.81724 0.15509 0.0
C211 C 0.53833 0.84698 0.15886 0.0
C212 C 0.75809 0.81636 0.17412 0.0
C213 C 0.76925 0.84233 0.1638 0.0
C214 C 0.78323 0.786 0.1783 0.0
C215 C 0.81904 0.78211 0.17247 0.0
C216 C 0.83072 0.80862 0.16238 0.0
C217 C 0.80519 0.8386 0.15804 0.0
C218 C 0.55296 0.87598 0.16824 0.0
H219 H 0.74233 0.83495 0.24869 0.0
H220 H 0.74336 0.84498 0.22325 0.0
H221 H 0.62815 0.79626 0.21745 0.0
H222 H 0.62669 0.78847 0.2428 0.0
H223 H 0.74715 0.81234 0.20192 0.0
H224 H 0.62595 0.84077 0.19939 0.0
H225 H 0.68639 0.83126 0.16155 0.0
H226 H 0.6005 0.89549 0.18211 0.0
H227 H 0.61944 0.79106 0.15859 0.0
H228 H 0.55335 0.79411 0.14805 0.0
H229 H 0.7507 0.86628 0.16049 0.0
H230 H 0.77518 0.76518 0.18608 0.0
H231 H 0.53492 0.89988 0.17114 0.0
H232 H 0.81334 0.85989 0.15044 0.0
H233 H 0.83752 0.75819 0.17586 0.0
C234 C 0.57033 0.14719 0.48403 0.0
C235 C 0.60505 0.16175 0.49053 0.0
C236 C 0.55996 0.15526 0.46988 0.0
C237 C 0.58393 0.1783 0.46196 0.0
C238 C 0.61885 0.19249 0.4684 0.0
C239 C 0.62937 0.18419 0.48252 0.0
C240 C 0.57255 0.1874 0.447 0.0
C241 C 0.57613 0.22518 0.44184 0.0
C242 C 0.56547 0.23394 0.42765 0.0
C243 C 0.55197 0.2039 0.41848 0.0
C244 C 0.54777 0.16611 0.42362 0.0
C245 C 0.55797 0.15822 0.43784 0.0
C246 C 0.53317 0.1339 0.41443 0.0
C247 C 0.4998 0.11376 0.41777 0.0
C248 C 0.55565 0.11921 0.40391 0.0
C249 C 0.54652 0.0833 0.3976 0.0
C250 C 0.51459 0.06165 0.40166 0.0
C251 C 0.56797 0.27466 0.42268 0.0
C252 C 0.55549 0.30528 0.43104 0.0
C253 C 0.58365 0.28342 0.40981 0.0
C254 C 0.58742 0.32197 0.40555 0.0
C255 C 0.5753 0.3526 0.41401 0.0
C256 C 0.55905 0.34372 0.42676 0.0
C257 C 0.49039 0.07821 0.41136 0.0
H258 H 0.55108 0.12971 0.48992 0.0
H259 H 0.53276 0.14409 0.46522 0.0
H260 H 0.6381 0.20996 0.46251 0.0
H261 H 0.65606 0.19624 0.48728 0.0
H262 H 0.58706 0.24792 0.44893 0.0
H263 H 0.55541 0.12887 0.44169 0.0
H264 H 0.54362 0.21003 0.40752 0.0
H265 H 0.48204 0.12465 0.42586 0.0
H266 H 0.58176 0.13412 0.40131 0.0
H267 H 0.566 0.07142 0.39027 0.0
H268 H 0.54284 0.29952 0.44094 0.0
H269 H 0.5937 0.26053 0.40316 0.0
H270 H 0.4651 0.06286 0.4145 0.0
H271 H 0.54964 0.36655 0.43357 0.0
H272 H 0.59962 0.32777 0.39557 0.0
C273 C 0.22283 0.30863 0.7446 0.0
C274 C 0.19821 0.2818 0.75056 0.0
C275 C 0.22249 0.31263 0.72995 0.0
C276 C 0.197 0.29038 0.72106 0.0
C277 C 0.17242 0.26359 0.72704 0.0
C278 C 0.17319 0.25917 0.74164 0.0
C279 C 0.1961 0.29471 0.70555 0.0
C280 C 0.23037 0.29276 0.69861 0.0
C281 C 0.22975 0.29513 0.68385 0.0
C282 C 0.19413 0.3002 0.67601 0.0
C283 C 0.15927 0.30211 0.68285 0.0
C284 C 0.16082 0.29961 0.69766 0.0
C285 C 0.121 0.30582 0.67474 0.0
C286 C 0.11618 0.32947 0.66271 0.0
C287 C 0.08846 0.28622 0.6793 0.0
C288 C 0.05199 0.2912 0.67241 0.0
C289 C 0.047 0.31542 0.66061 0.0
C290 C 0.26664 0.29164 0.67686 0.0
C291 C 0.27657 0.31852 0.66666 0.0
C292 C 0.29328 0.26257 0.68104 0.0
C293 C 0.32956 0.26109 0.67549 0.0
C294 C 0.3402 0.28878 0.66566 0.0
C295 C 0.31304 0.31721 0.66116 0.0
C296 C 0.07955 0.33404 0.65566 0.0
H297 H 0.24234 0.32643 0.75126 0.0
H298 H 0.24165 0.33355 0.72556 0.0
H299 H 0.15275 0.24588 0.7204 0.0
H300 H 0.15355 0.23864 0.74598 0.0
H301 H 0.25765 0.28894 0.70473 0.0
H302 H 0.13452 0.30198 0.70316 0.0
H303 H 0.19353 0.30125 0.66461 0.0
H304 H 0.14049 0.34517 0.65892 0.0
H305 H 0.09108 0.26683 0.68824 0.0
H306 H 0.02761 0.2757 0.67625 0.0
H307 H 0.2567 0.34141 0.66334 0.0
H308 H 0.28615 0.24106 0.68872 0.0
H309 H 0.0765 0.3528 0.64655 0.0
H310 H 0.32034 0.33922 0.6537 0.0
H311 H 0.34931 0.23825 0.67895 0.0
Zn312 Zn 0.20628 0.71034 0.14351 0.0
Zn313 Zn 0.14596 0.79577 0.1014 0.0
Zn314 Zn 0.17942 0.75216 0.12179 0.0
C315 C 0.16075 0.72251 0.08999 0.0
C316 C 0.21506 0.8325 0.11066 0.0
O317 O 0.14104 0.75702 0.1395 0.0
O318 O 0.16715 0.72192 0.15708 0.0
C319 C 0.19513 0.6595 0.1206 0.0
O320 O 0.17283 0.71478 0.10278 0.0
O321 O 0.14841 0.75578 0.08665 0.0
O322 O 0.18594 0.83655 0.10208 0.0
O323 O 0.21808 0.80264 0.11877 0.0
O324 O 0.20337 0.6598 0.13374 0.0
O325 O 0.18692 0.69143 0.11406 0.0
O326 O 0.23671 0.77741 0.12857 0.0
O327 O 0.25671 0.73813 0.14587 0.0
C328 C 0.26272 0.7669 0.13813 0.0
O329 O 0.12052 0.77058 0.12723 0.0
O330 O 0.09538 0.80572 0.1095 0.0
C331 C 0.14102 0.74458 0.15228 0.0
C332 C 0.09202 0.78995 0.12132 0.0
Zn333 Zn 0.55548 0.66421 0.34924 0.0
Zn334 Zn 0.62931 0.79726 0.39387 0.0
Zn335 Zn 0.57565 0.71249 0.36855 0.0
C336 C 0.54853 0.781 0.38001 0.0
C337 C 0.65952 0.77165 0.36647 0.0
O338 O 0.58031 0.65346 0.37833 0.0
O339 O 0.57253 0.61644 0.35933 0.0
C340 C 0.4891 0.70828 0.35552 0.0
O341 O 0.53087 0.75637 0.3719 0.0
O342 O 0.582 0.77115 0.38469 0.0
O343 O 0.66265 0.7947 0.37712 0.0
O344 O 0.63154 0.74638 0.36433 0.0
O345 O 0.499 0.67824 0.34902 0.0
O346 O 0.51459 0.72797 0.36301 0.0
O347 O 0.61253 0.72497 0.35161 0.0
O348 O 0.58889 0.68565 0.33479 0.0
C349 C 0.61213 0.71226 0.3389 0.0
O350 O 0.59237 0.6822 0.38834 0.0
O351 O 0.60861 0.74182 0.39117 0.0
C352 C 0.57969 0.61965 0.37248 0.0
C353 C 0.60887 0.70799 0.39628 0.0
Zn354 Zn 0.64645 0.29337 0.60191 0.0
Zn355 Zn 0.72486 0.208 0.63825 0.0
Zn356 Zn 0.68756 0.25177 0.62053 0.0
C357 C 0.77734 0.26295 0.62957 0.0
C358 C 0.69957 0.15854 0.61729 0.0
O359 O 0.63179 0.26747 0.62958 0.0
O360 O 0.60048 0.30149 0.61278 0.0
C361 C 0.71553 0.33358 0.608 0.0
O362 O 0.74572 0.27849 0.62439 0.0
O363 O 0.77674 0.22992 0.63519 0.0
O364 O 0.7116 0.15687 0.63008 0.0
O365 O 0.69205 0.1917 0.61151 0.0
O366 O 0.68401 0.33584 0.60059 0.0
O367 O 0.72258 0.30419 0.61609 0.0
O368 O 0.67593 0.21623 0.60115 0.0
O369 O 0.64282 0.25532 0.58639 0.0
C370 C 0.65855 0.22304 0.58899 0.0
O371 O 0.65715 0.25279 0.64037 0.0
O372 O 0.69868 0.22289 0.65527 0.0
C373 C 0.60145 0.28621 0.62483 0.0
C374 C 0.66763 0.24156 0.65297 0.0
Zn375 Zn 0.0466 0.20433 0.85849 0.0
Zn376 Zn 0.12807 0.28441 0.89585 0.0
Zn377 Zn 0.08491 0.24502 0.87707 0.0
C378 C 0.11121 0.2155 0.90872 0.0
C379 C 0.0599 0.32711 0.88935 0.0
O380 O 0.11651 0.2453 0.85764 0.0
O381 O 0.07125 0.22491 0.84179 0.0
C382 C 0.07273 0.15277 0.87889 0.0
O383 O 0.09351 0.2092 0.89654 0.0
O384 O 0.12911 0.24682 0.91125 0.0
O385 O 0.09177 0.32863 0.89662 0.0
O386 O 0.05142 0.29757 0.88141 0.0
O387 O 0.06235 0.15257 0.8659 0.0
O388 O 0.07898 0.18525 0.88541 0.0
O389 O 0.02701 0.27263 0.87328 0.0
O390 O 0.99475 0.22442 0.86253 0.0
C391 C 0.99492 0.25741 0.86828 0.0
O392 O 0.14143 0.26092 0.8682 0.0
O393 O 0.17578 0.2894 0.88582 0.0
C394 C 0.10439 0.23915 0.84471 0.0
C395 C 0.17315 0.2768 0.87333 0.0
H396 H 0.18215 0.45069 0.0668 0.0
H397 H 0.23828 0.41908 0.10706 0.0
H398 H 0.17738 0.51778 0.07493 0.0
H399 H 0.23353 0.48568 0.11513 0.0
H400 H 0.17643 0.59083 0.13169 0.0
H401 H 0.18027 0.52683 0.12134 0.0
H402 H 0.21589 0.57717 0.08273 0.0
H403 H 0.21203 0.64206 0.09328 0.0
C404 C 0.19388 0.45812 0.07731 0.0
C405 C 0.21015 0.42938 0.08635 0.0
C406 C 0.19114 0.49655 0.08196 0.0
C407 C 0.20454 0.50696 0.09574 0.0
C408 C 0.22204 0.47846 0.10456 0.0
C409 C 0.22475 0.44023 0.09994 0.0
C410 C 0.18491 0.5884 0.12096 0.0
C411 C 0.19397 0.62153 0.1133 0.0
C412 C 0.1873 0.55163 0.11504 0.0
C413 C 0.19909 0.54679 0.10131 0.0
C414 C 0.20665 0.57998 0.09335 0.0
C415 C 0.20421 0.61712 0.09933 0.0
H416 H 0.8916 0.74486 0.34622 0.0
H417 H 0.84823 0.81881 0.31211 0.0
H418 H 0.82596 0.73725 0.35362 0.0
H419 H 0.78298 0.81243 0.32002 0.0
H420 H 0.69515 0.83449 0.35615 0.0
H421 H 0.75477 0.83555 0.34374 0.0
H422 H 0.75724 0.71062 0.34391 0.0
H423 H 0.69704 0.70958 0.35612 0.0
C424 C 0.86819 0.75913 0.34017 0.0
C425 C 0.87554 0.7828 0.32863 0.0
C426 C 0.83057 0.75475 0.34444 0.0
C427 C 0.79952 0.77431 0.33739 0.0
C428 C 0.80653 0.7973 0.32569 0.0
C429 C 0.84402 0.80121 0.32128 0.0
C430 C 0.70803 0.8073 0.35325 0.0
C431 C 0.6916 0.77197 0.35704 0.0
C432 C 0.74199 0.80788 0.34612 0.0
C433 C 0.76064 0.77316 0.34297 0.0
C434 C 0.74346 0.73776 0.3463 0.0
C435 C 0.709 0.73717 0.35319 0.0
H436 H 0.81609 0.54375 0.57854 0.0
H437 H 0.74889 0.57074 0.61401 0.0
H438 H 0.81714 0.47616 0.58523 0.0
H439 H 0.74744 0.50243 0.62004 0.0
H440 H 0.74074 0.36521 0.58454 0.0
H441 H 0.76749 0.42957 0.58227 0.0
H442 H 0.77613 0.44206 0.62766 0.0
H443 H 0.74788 0.37728 0.62977 0.0
C444 C 0.80216 0.53561 0.58795 0.0
C445 C 0.78179 0.563 0.59556 0.0
C446 C 0.80235 0.49652 0.59168 0.0
C447 C 0.78166 0.48352 0.60299 0.0
C448 C 0.76378 0.51122 0.61127 0.0
C449 C 0.76403 0.55047 0.60765 0.0
C450 C 0.74974 0.38118 0.59404 0.0
C451 C 0.74265 0.36627 0.60732 0.0
C452 C 0.76522 0.41817 0.59278 0.0
C453 C 0.77376 0.44139 0.60479 0.0
C454 C 0.76947 0.42517 0.61819 0.0
C455 C 0.75398 0.38785 0.61944 0.0
H456 H 0.77349 0.37183 0.8462 0.0
H457 H 0.75885 0.24809 0.84933 0.0
H458 H 0.83976 0.36606 0.85679 0.0
H459 H 0.82478 0.24212 0.85942 0.0
H460 H 0.93573 0.2352 0.88335 0.0
H461 H 0.86825 0.25483 0.87947 0.0
H462 H 0.90152 0.34072 0.8496 0.0
H463 H 0.96933 0.32161 0.85396 0.0
C464 C 0.78422 0.3435 0.84933 0.0
C465 C 0.76101 0.31037 0.84683 0.0
C466 C 0.82228 0.34016 0.85528 0.0
C467 C 0.83773 0.30365 0.85899 0.0
C468 C 0.81385 0.27081 0.85693 0.0
C469 C 0.77609 0.27413 0.85096 0.0
C470 C 0.92866 0.25932 0.8764 0.0
C471 C 0.95754 0.27718 0.86904 0.0
C472 C 0.88999 0.27027 0.87401 0.0
C473 C 0.87924 0.29876 0.86397 0.0
C474 C 0.90868 0.31881 0.85745 0.0
C475 C 0.94757 0.30804 0.85998 0.0
H476 H 0.02409 0.56161 0.87782 0.0
H477 H 0.96043 0.54224 0.91476 0.0
H478 H 0.02405 0.49212 0.87324 0.0
H479 H 0.95872 0.47332 0.90973 0.0
H480 H 0.043 0.36705 0.91249 0.0
H481 H 0.01456 0.43105 0.91332 0.0
H482 H 0.99152 0.4286 0.86806 0.0
H483 H 0.02047 0.36375 0.86732 0.0
C484 C 0.0092 0.54273 0.88475 0.0
C485 C 0.99308 0.55761 0.89685 0.0
C486 C 0.0087 0.50289 0.882 0.0
C487 C 0.99192 0.47712 0.89126 0.0
C488 C 0.9724 0.49238 0.90252 0.0
C489 C 0.9731 0.5321 0.90532 0.0
C490 C 0.03071 0.37967 0.90277 0.0
C491 C 0.03391 0.36067 0.88985 0.0
C492 C 0.01419 0.41632 0.90323 0.0
C493 C 1.00091 0.43509 0.89074 0.0
C494 C 1.00169 0.41493 0.87785 0.0
C495 C 0.01785 0.37776 0.87743 0.0
H496 H 0.84992 0.82172 0.13526 0.0
H497 H 0.89973 0.78823 0.17633 0.0
H498 H 0.91359 0.81789 0.12591 0.0
H499 H 0.96331 0.78366 0.16683 0.0
H500 H 0.05983 0.73821 0.13889 0.0
H501 H 0.99758 0.74319 0.14945 0.0
H502 H 0.97673 0.85279 0.12862 0.0
H503 H 0.03939 0.84828 0.11841 0.0
C504 C 0.87441 0.81379 0.14233 0.0
C505 C 0.86955 0.80538 0.15657 0.0
C506 C 0.91093 0.81154 0.13695 0.0
C507 C 0.94348 0.80057 0.14564 0.0
C508 C 0.93869 0.79178 0.15984 0.0
C509 C 0.90219 0.7943 0.16525 0.0
C510 C 0.04237 0.76381 0.13686 0.0
C511 C 0.05488 0.79326 0.12808 0.0
C512 C 0.00662 0.76653 0.14283 0.0
C513 C 0.98223 0.79837 0.13985 0.0
C514 C 0.99471 0.82772 0.13101 0.0
C515 C 0.03062 0.8252 0.12519 0.0
H516 H 0.63716 0.38641 0.40235 0.0
H517 H 0.52323 0.41183 0.41574 0.0
H518 H 0.64338 0.45305 0.3944 0.0
H519 H 0.52925 0.47837 0.40768 0.0
H520 H 0.55866 0.60353 0.39919 0.0
H521 H 0.56191 0.54055 0.41107 0.0
H522 H 0.61555 0.49126 0.37538 0.0
H523 H 0.61348 0.55398 0.36392 0.0
C524 C 0.61337 0.40618 0.40354 0.0
C525 C 0.57957 0.39365 0.40957 0.0
C526 C 0.61696 0.44445 0.39903 0.0
C527 C 0.58677 0.47116 0.40035 0.0
C528 C 0.55334 0.45885 0.40669 0.0
C529 C 0.54981 0.42059 0.41126 0.0
C530 C 0.57236 0.57948 0.39418 0.0
C531 C 0.58624 0.58376 0.38074 0.0
C532 C 0.57364 0.54325 0.40084 0.0
C533 C 0.58889 0.51069 0.39417 0.0
C534 C 0.60409 0.51562 0.38095 0.0
C535 C 0.60269 0.5516 0.37432 0.0
H536 H 0.98032 0.33223 0.67293 0.0
H537 H 0.02505 0.30934 0.63245 0.0
H538 H 0.91447 0.33021 0.66217 0.0
H539 H 0.95885 0.3076 0.62156 0.0
H540 H 0.84206 0.23431 0.61936 0.0
H541 H 0.90797 0.25777 0.6243 0.0
H542 H 0.86408 0.35821 0.64519 0.0
H543 H 0.79779 0.33419 0.64022 0.0
C544 C 0.97601 0.32747 0.66167 0.0
C545 C 0.00774 0.32041 0.65356 0.0
C546 C 0.93829 0.32675 0.65546 0.0
C547 C 0.93138 0.31861 0.64101 0.0
C548 C 0.96326 0.31374 0.63274 0.0
C549 C 1.00112 0.31488 0.63894 0.0
C550 C 0.84651 0.2621 0.62455 0.0
C551 C 0.81501 0.28268 0.62931 0.0
C552 C 0.88425 0.27564 0.62735 0.0
C553 C 0.89133 0.30976 0.63522 0.0
C554 C 0.85953 0.33173 0.63916 0.0
C555 C 0.82159 0.31833 0.63617 0.0
H556 H 0.40923 0.27317 0.68045 0.0
H557 H 0.36083 0.30344 0.63886 0.0
H558 H 0.47399 0.27312 0.67177 0.0
H559 H 0.42554 0.30399 0.6303 0.0
H560 H 0.54699 0.34252 0.62309 0.0
H561 H 0.485 0.34351 0.63371 0.0
H562 H 0.51372 0.23618 0.65505 0.0
H563 H 0.57598 0.23501 0.64425 0.0
C564 C 0.4123 0.27949 0.66943 0.0
C565 C 0.37971 0.28837 0.66035 0.0
C566 C 0.44945 0.27955 0.66449 0.0
C567 C 0.4549 0.2888 0.65039 0.0
C568 C 0.42236 0.29743 0.6413 0.0
C569 C 0.38524 0.29717 0.64621 0.0
C570 C 0.54028 0.3193 0.63015 0.0
C571 C 0.56643 0.28876 0.63288 0.0
C572 C 0.50467 0.31976 0.63618 0.0
C573 C 0.49425 0.28968 0.64507 0.0
C574 C 0.52102 0.25987 0.64829 0.0
C575 C 0.55671 0.25929 0.64216 0.0
H576 H 0.47696 0.86743 0.17403 0.0
H577 H 0.50371 0.82252 0.1333 0.0
H578 H 0.40862 0.85755 0.16791 0.0
H579 H 0.43495 0.81046 0.12753 0.0
H580 H 0.30315 0.80763 0.11894 0.0
H581 H 0.36825 0.83568 0.12288 0.0
H582 H 0.37189 0.79854 0.16631 0.0
H583 H 0.30733 0.77187 0.16249 0.0
C584 C 0.46839 0.85613 0.16364 0.0
C585 C 0.49623 0.84548 0.15423 0.0
C586 C 0.42903 0.84998 0.16021 0.0
C587 C 0.41627 0.83257 0.14733 0.0
C588 C 0.44374 0.82399 0.13754 0.0
C589 C 0.48326 0.83042 0.14094 0.0
C590 C 0.31761 0.80643 0.12939 0.0
C591 C 0.30007 0.78769 0.14041 0.0
C592 C 0.35502 0.82208 0.13161 0.0
C593 C 0.37532 0.81947 0.14492 0.0
C594 C 0.35703 0.80174 0.15598 0.0
C595 C 0.32003 0.78608 0.15376 0.0
H596 H 0.36047 0.30154 0.81578 0.0
H597 H 0.40994 0.31906 0.85824 0.0
H598 H 0.29709 0.28976 0.82489 0.0
H599 H 0.34685 0.30822 0.86732 0.0
H600 H 0.24287 0.24821 0.88162 0.0
H601 H 0.30358 0.25639 0.87052 0.0
H602 H 0.24364 0.31895 0.83634 0.0
H603 H 0.18234 0.30956 0.84748 0.0
C604 C 0.35769 0.30332 0.82705 0.0
C605 C 0.39028 0.31092 0.83631 0.0
C606 C 0.32137 0.2966 0.83226 0.0
C607 C 0.31685 0.29751 0.84686 0.0
C608 C 0.34935 0.30619 0.85604 0.0
C609 C 0.38557 0.31258 0.85085 0.0
C610 C 0.24267 0.26321 0.87162 0.0
C611 C 0.20809 0.27804 0.86533 0.0
C612 C 0.27749 0.26828 0.86532 0.0
C613 C 0.27878 0.28904 0.85266 0.0
C614 C 0.24375 0.30271 0.84606 0.0
C615 C 0.20865 0.2973 0.85238 0.0
H616 H 0.25885 0.81666 0.34626 0.0
H617 H 0.25152 0.70488 0.3257 0.0
H618 H 0.32497 0.80215 0.35526 0.0
H619 H 0.31778 0.69165 0.33369 0.0
H620 H 0.42786 0.66014 0.3563 0.0
H621 H 0.3596 0.67572 0.35261 0.0
H622 H 0.38889 0.79664 0.34804 0.0
H623 H 0.45744 0.78077 0.35263 0.0
C624 C 0.27118 0.78893 0.34372 0.0
C625 C 0.24983 0.76211 0.33513 0.0
C626 C 0.30934 0.7808 0.34873 0.0
C627 C 0.32708 0.74572 0.34522 0.0
C628 C 0.30524 0.71871 0.33688 0.0
C629 C 0.26719 0.72661 0.33205 0.0
C630 C 0.41959 0.69012 0.35468 0.0
C631 C 0.44784 0.71926 0.35464 0.0
C632 C 0.38043 0.6991 0.35245 0.0
C633 C 0.36845 0.73739 0.34967 0.0
C634 C 0.39679 0.76686 0.35022 0.0
C635 C 0.43613 0.75787 0.35281 0.0
H636 H 0.72964 0.91824 0.60303 0.0
H637 H 0.69073 0.95441 0.56102 0.0
H638 H 0.72169 0.98386 0.61161 0.0
H639 H 0.68228 0.02051 0.56967 0.0
H640 H 0.71683 0.14188 0.59009 0.0
H641 H 0.71788 0.07743 0.57914 0.0
H642 H 0.67138 0.02819 0.61618 0.0
H643 H 0.67129 0.09193 0.62707 0.0
C644 C 0.71889 0.94015 0.59565 0.0
C645 C 0.71054 0.93096 0.58137 0.0
C646 C 0.71424 0.97786 0.60056 0.0
C647 C 0.70083 0.0075 0.59137 0.0
C648 C 0.69286 0.99849 0.57702 0.0
C649 C 0.69768 0.96062 0.57208 0.0
C650 C 0.70598 0.11731 0.59567 0.0
C651 C 0.69416 0.12176 0.60942 0.0
C652 C 0.70671 0.08038 0.58946 0.0
C653 C 0.69553 0.04743 0.59692 0.0
C654 C 0.68132 0.05264 0.6103 0.0
C655 C 0.68096 0.08923 0.6165 0.0
H656 H 0.31322 0.05251 0.09104 0.0
H657 H 0.2229 0.06259 0.11997 0.0
H658 H 0.32131 0.98427 0.09724 0.0
H659 H 0.23039 0.99441 0.12597 0.0
H660 H 0.24841 0.868 0.0894 0.0
H661 H 0.27429 0.93342 0.0899 0.0
H662 H 0.26768 0.93723 0.13511 0.0
H663 H 0.24183 0.87095 0.13451 0.0
C664 C 0.29601 0.0405 0.09907 0.0
C665 C 0.26696 0.0627 0.10485 0.0
C666 C 0.3005 1.00136 0.10257 0.0
C667 C 0.27617 0.98374 0.11196 0.0
C668 C 0.2498 0.00701 0.11877 0.0
C669 C 0.24518 0.04603 0.11522 0.0
C670 C 0.25418 0.88219 0.09951 0.0
C671 C 0.24296 0.86473 0.11189 0.0
C672 C 0.26911 0.91973 0.09983 0.0
C673 C 0.27249 0.94084 0.11253 0.0
C674 C 0.265 0.92181 0.12515 0.0
C675 C 0.25054 0.88383 0.12484 0.0
H676 H 0.52503 0.02832 0.37573 0.0
H677 H 0.49334 1.00092 0.41777 0.0
H678 H 0.52555 0.95912 0.37001 0.0
H679 H 0.49255 0.93253 0.41187 0.0
H680 H 0.50227 0.82813 0.36276 0.0
H681 H 0.48617 0.8963 0.36716 0.0
H682 H 0.54804 0.88989 0.40808 0.0
H683 H 0.56367 0.82257 0.40372 0.0
C684 C 0.51756 0.0077 0.38367 0.0
C685 C 0.50939 0.02035 0.39725 0.0
C686 C 0.51744 0.9681 0.38033 0.0
C687 C 0.50938 0.94038 0.39053 0.0
C688 C 0.49924 0.95316 0.40383 0.0
C689 C 0.49931 0.99254 0.40715 0.0
C690 C 0.51144 0.84119 0.3728 0.0
C691 C 0.5339 0.8201 0.38295 0.0
C692 C 0.50267 0.88023 0.37525 0.0
C693 C 0.51572 0.89843 0.38799 0.0
C694 C 0.53705 0.87668 0.39825 0.0
C695 C 0.54618 0.83813 0.39573 0.0
H696 H 0.01851 0.94388 0.92273 0.0
H697 H 0.12776 0.91665 0.90566 0.0
H698 H 0.0237 0.01035 0.9145 0.0
H699 H 0.13282 0.98309 0.89739 0.0
H700 H 0.09701 0.08518 0.86802 0.0
H701 H 0.09905 0.0216 0.879 0.0
H702 H 0.06016 0.07163 0.91729 0.0
H703 H 0.05688 0.13528 0.90598 0.0
C704 C 0.04392 0.95219 0.91741 0.0
C705 C 0.07256 0.92478 0.91476 0.0
C706 C 0.04692 0.99036 0.91272 0.0
C707 C 0.07859 1.00202 0.90524 0.0
C708 C 0.10775 0.9749 0.90293 0.0
C709 C 0.10478 0.93677 0.90763 0.0
C710 C 0.08928 0.08266 0.87884 0.0
C711 C 0.07734 0.11528 0.88625 0.0
C712 C 0.09073 0.04626 0.88517 0.0
C713 C 0.07994 0.04149 0.89905 0.0
C714 C 0.06858 0.0743 0.90657 0.0
C715 C 0.06732 0.11087 0.90021 0.0
H716 H 0.09938 0.23442 0.99103 0.0
H717 H 0.16188 0.12649 0.99281 0.0
H718 H 0.08245 0.22413 0.96598 0.0
H719 H 0.1453 0.11619 0.96752 0.0
H720 H 0.16879 0.17522 0.92245 0.0
H721 H 0.16948 0.15578 0.94712 0.0
H722 H 0.04761 0.18168 0.94727 0.0
H723 H 0.04714 0.20092 0.9225 0.0
C724 C 0.10879 0.2081 0.98606 0.0
C725 C 0.1321 0.18138 0.99375 0.0
C726 C 0.09881 0.20195 0.97177 0.0
C727 C 0.11243 0.16923 0.9648 0.0
C728 C 0.13432 0.14156 0.97265 0.0
C729 C 0.14376 0.14742 0.98707 0.0
C730 C 0.14176 0.17459 0.92756 0.0
C731 C 0.10787 0.18917 0.92064 0.0
C732 C 0.14211 0.16359 0.94169 0.0
C733 C 0.1087 0.1678 0.94917 0.0
C734 C 0.07382 0.17844 0.94178 0.0
C735 C 0.07342 0.18905 0.92759 0.0
H736 H 1.00477 0.78024 0.2244 0.0
H737 H 0.097 0.86405 0.22385 0.0
H738 H 0.01229 0.76515 0.19949 0.0
H739 H 0.10462 0.84932 0.19902 0.0
H740 H 0.10689 0.70403 0.1724 0.0
H741 H 0.07127 0.73021 0.19151 0.0
H742 H 0.07717 0.84444 0.17343 0.0
H743 H 0.1128 0.81792 0.15416 0.0
C744 C 0.02551 0.79651 0.21874 0.0
C745 C 0.05028 0.82331 0.22587 0.0
C746 C 0.02995 0.7878 0.20456 0.0
C747 C 0.05918 0.80589 0.19736 0.0
C748 C 0.08154 0.83525 0.20423 0.0
C749 C 0.07733 0.84365 0.21843 0.0
C750 C 0.09958 0.73452 0.17231 0.0
C751 C 0.11275 0.75904 0.16192 0.0
C752 C 0.0789 0.74949 0.18317 0.0
C753 C 0.07161 0.78942 0.18399 0.0
C754 C 0.08252 0.81358 0.17305 0.0
C755 C 0.10278 0.79843 0.16204 0.0
H756 H 0.74921 0.71096 0.47583 0.0
H757 H 0.63421 0.67667 0.48579 0.0
H758 H 0.72994 0.70574 0.45074 0.0
H759 H 0.61497 0.67141 0.46068 0.0
H760 H 0.59797 0.64586 0.41354 0.0
H761 H 0.62425 0.63755 0.43795 0.0
H762 H 0.68691 0.74528 0.43529 0.0
H763 H 0.66132 0.75308 0.41109 0.0
C764 C 0.71987 0.70214 0.47266 0.0
C765 C 0.69312 0.69471 0.4828 0.0
C766 C 0.70886 0.69905 0.45829 0.0
C767 C 0.67084 0.68848 0.45373 0.0
C768 C 0.64459 0.67921 0.46386 0.0
C769 C 0.65561 0.68231 0.47825 0.0
C770 C 0.61785 0.66729 0.41813 0.0
C771 C 0.62734 0.70019 0.41044 0.0
C772 C 0.63268 0.66273 0.43212 0.0
C773 C 0.65763 0.69079 0.43856 0.0
C774 C 0.66817 0.72288 0.43062 0.0
C775 C 0.65316 0.72754 0.41676 0.0
H776 H 0.59795 0.3522 0.72769 0.0
H777 H 0.5584 0.23475 0.73243 0.0
H778 H 0.61109 0.33848 0.70322 0.0
H779 H 0.57011 0.22123 0.70788 0.0
H780 H 0.66062 0.19667 0.67581 0.0
H781 H 0.62959 0.2123 0.69718 0.0
H782 H 0.59032 0.32102 0.679 0.0
H783 H 0.62311 0.30563 0.65758 0.0
C784 C 0.59105 0.32378 0.72334 0.0
C785 C 0.57781 0.29432 0.73196 0.0
C786 C 0.59838 0.31593 0.70931 0.0
C787 C 0.59226 0.27854 0.70364 0.0
C788 C 0.57607 0.25005 0.71201 0.0
C789 C 0.56924 0.25777 0.72605 0.0
C790 C 0.64498 0.22374 0.67629 0.0
C791 C 0.64416 0.24989 0.66502 0.0
C792 C 0.62677 0.23256 0.68851 0.0
C793 C 0.60723 0.26788 0.68983 0.0
C794 C 0.60531 0.29366 0.67836 0.0
C795 C 0.6237 0.28474 0.66605 0.0
H796 H 0.04974 0.68352 0.01545 0.0
H797 H 0.16397 0.65309 0.00357 0.0
H798 H 0.07107 0.67617 0.04015 0.0
H799 H 0.18514 0.64428 0.02838 0.0
H800 H 0.21173 0.71897 0.07 0.0
H801 H 0.19782 0.69286 0.04643 0.0
H802 H 0.0947 0.6379 0.06018 0.0
H803 H 0.10876 0.66499 0.08384 0.0
C804 C 0.07926 0.67455 0.01812 0.0
C805 C 0.10536 0.6697 0.00757 0.0
C806 C 0.09139 0.66966 0.0323 0.0
C807 C 0.12995 0.65978 0.0363 0.0
C808 C 0.15534 0.65224 0.02567 0.0
C809 C 0.14316 0.65712 0.01145 0.0
C810 C 0.18724 0.6996 0.06813 0.0
C811 C 0.16131 0.69383 0.07862 0.0
C812 C 0.17912 0.68463 0.0546 0.0
C813 C 0.14463 0.66397 0.05131 0.0
C814 C 0.12112 0.65433 0.06232 0.0
C815 C 0.12936 0.66934 0.0759 0.0
H816 H 0.73683 0.77204 0.26492 0.0
H817 H 0.6292 0.83472 0.26487 0.0
H818 H 0.72977 0.7526 0.28943 0.0
H819 H 0.62224 0.81565 0.28928 0.0
H820 H 0.62455 0.78928 0.33512 0.0
H821 H 0.6519 0.81962 0.31474 0.0
H822 H 0.67849 0.7066 0.29846 0.0
H823 H 0.65107 0.67647 0.31876 0.0
C824 C 0.7122 0.7824 0.27028 0.0
C825 C 0.68336 0.80457 0.26302 0.0
C826 C 0.70811 0.77122 0.28425 0.0
C827 C 0.67546 0.78261 0.29124 0.0
C828 C 0.64792 0.8068 0.28423 0.0
C829 C 0.65169 0.81743 0.27023 0.0
C830 C 0.6374 0.77109 0.3274 0.0
C831 C 0.63577 0.73061 0.32845 0.0
C832 C 0.65281 0.7884 0.31572 0.0
C833 C 0.66709 0.76544 0.30499 0.0
C834 C 0.66802 0.72504 0.30662 0.0
C835 C 0.65214 0.70777 0.31818 0.0
H836 H 0.67506 0.14207 0.5037 0.0
H837 H 0.55693 0.16866 0.5119 0.0
H838 H 0.69246 0.141 0.52904 0.0
H839 H 0.57419 0.1685 0.53706 0.0
H840 H 0.60553 0.16709 0.58189 0.0
H841 H 0.59514 0.13737 0.5585 0.0
H842 H 0.70043 0.19121 0.5461 0.0
H843 H 0.711 0.21934 0.56953 0.0
C844 C 0.65276 0.14731 0.51093 0.0
C845 C 0.61473 0.15586 0.50582 0.0
C846 C 0.66268 0.14665 0.52544 0.0
C847 C 0.63485 0.15493 0.53515 0.0
C848 C 0.59635 0.1613 0.52998 0.0
C849 C 0.58641 0.16164 0.51551 0.0
C850 C 0.6272 0.17087 0.5743 0.0
C851 C 0.6591 0.19515 0.57739 0.0
C852 C 0.62109 0.15435 0.56087 0.0
C853 C 0.64648 0.16256 0.55028 0.0
C854 C 0.68036 0.18392 0.55394 0.0
C855 C 0.68652 0.20012 0.56737 0.0
H856 H 0.20045 0.21601 0.76638 0.0
H857 H 0.19198 0.34037 0.76956 0.0
H858 H 0.18722 0.21009 0.79123 0.0
H859 H 0.17871 0.33444 0.79443 0.0
H860 H 0.08329 0.29012 0.82441 0.0
H861 H 0.1165 0.30464 0.80321 0.0
H862 H 0.2097 0.22822 0.81728 0.0
H863 H 0.17632 0.21422 0.83879 0.0
C864 C 0.19651 0.24207 0.77249 0.0
C865 C 0.19678 0.2786 0.76605 0.0
C866 C 0.18934 0.23872 0.78672 0.0
C867 C 0.18182 0.27182 0.7947 0.0
C868 C 0.18434 0.3085 0.78848 0.0
C869 C 0.19203 0.31188 0.77429 0.0
C870 C 0.11128 0.27713 0.82308 0.0
C871 C 0.12742 0.25115 0.8331 0.0
C872 C 0.1304 0.2856 0.81103 0.0
C873 C 0.16567 0.26759 0.80864 0.0
C874 C 0.1825 0.24243 0.81891 0.0
C875 C 0.16357 0.23448 0.83115 0.0
loop_
_geom_bond_atom_site_label_1
_geom_bond_atom_site_label_2
_geom_bond_distance
_geom_bond_site_symmetry_2
_ccdc_geom_bond_type
C0 C1 1.386 . S
C0 C2 1.397 . S
C0 H24 0.931 . S
C1 C0 1.386 . S
C1 C5 1.397 . S
C2 C0 1.397 . S
C2 C3 1.384 . S
C2 H25 0.930 . S
C3 C2 1.384 . S
C3 C4 1.377 . S
C3 C6 1.481 . S
C4 C3 1.377 . S
C4 C5 1.389 . S
C4 H26 0.929 . S
C5 C1 1.397 . S
C5 C4 1.389 . S
C5 H27 0.931 . S
C6 C3 1.481 . S
C6 C7 1.387 . S
C6 C11 1.390 . S
C7 C6 1.387 . S
C7 C8 1.401 . S
C7 H28 0.930 . S
C8 C7 1.401 . S
C8 C9 1.376 . S
C8 C17 1.511 . S
C9 C8 1.376 . S
C9 C10 1.392 . S
C9 H30 0.931 . S
C10 C9 1.392 . S
C10 C11 1.361 . S
C10 C12 1.500 . S
C11 C6 1.390 . S
C11 C10 1.361 . S
C11 H29 0.931 . S
C12 C10 1.500 . S
C12 C13 1.371 . S
C12 C14 1.365 . S
C13 C12 1.371 . S
C13 C23 1.386 . S
C13 H31 0.931 . S
C14 C12 1.365 . S
C14 C15 1.409 . S
C14 H32 0.929 . S
C15 C14 1.409 . S
C15 C16 1.380 . S
C15 H33 0.930 . S
C16 C15 1.380 . S
C16 C23 1.357 . S
C17 C8 1.511 . S
C17 C18 1.341 . S
C17 C19 1.371 . S
C18 C17 1.341 . S
C18 C22 1.394 . S
C18 H34 0.930 . S
C19 C17 1.371 . S
C19 C20 1.392 . S
C19 H35 0.931 . S
C20 C19 1.392 . S
C20 C21 1.331 . S
C20 H38 0.932 . S
C21 C20 1.331 . S
C21 C22 1.336 . S
C22 C18 1.394 . S
C22 C21 1.336 . S
C22 H37 0.929 . S
C23 C13 1.386 . S
C23 C16 1.357 . S
C23 H36 0.928 . S
H24 C0 0.931 . S
H25 C2 0.930 . S
H26 C4 0.929 . S
H27 C5 0.931 . S
H28 C7 0.930 . S
H29 C11 0.931 . S
H30 C9 0.931 . S
H31 C13 0.931 . S
H32 C14 0.929 . S
H33 C15 0.930 . S
H34 C18 0.930 . S
H35 C19 0.931 . S
H36 C23 0.928 . S
H37 C22 0.929 . S
H38 C20 0.932 . S
C39 C40 1.386 . S
C39 C41 1.397 . S
C39 H63 0.931 . S
C40 C39 1.386 . S
C40 C44 1.397 . S
C41 C39 1.397 . S
C41 C42 1.384 . S
C41 H64 0.930 . S
C42 C41 1.384 . S
C42 C43 1.377 . S
C42 C45 1.481 . S
C43 C42 1.377 . S
C43 C44 1.389 . S
C43 H65 0.929 . S
C44 C40 1.397 . S
C44 C43 1.389 . S
C44 H66 0.931 . S
C45 C42 1.481 . S
C45 C46 1.387 . S
C45 C50 1.390 . S
C46 C45 1.387 . S
C46 C47 1.401 . S
C46 H67 0.930 . S
C47 C46 1.401 . S
C47 C48 1.376 . S
C47 C56 1.511 . S
C48 C47 1.376 . S
C48 C49 1.392 . S
C48 H69 0.931 . S
C49 C48 1.392 . S
C49 C50 1.361 . S
C49 C51 1.500 . S
C50 C45 1.390 . S
C50 C49 1.361 . S
C50 H68 0.931 . S
C51 C49 1.500 . S
C51 C52 1.371 . S
C51 C53 1.365 . S
C52 C51 1.371 . S
C52 C62 1.386 . S
C52 H70 0.931 . S
C53 C51 1.365 . S
C53 C54 1.409 1_455 S
C53 H71 0.929 . S
C54 C53 1.409 1_655 S
C54 C55 1.380 . S
C54 H72 0.930 . S
C55 C54 1.380 . S
C55 C62 1.357 1_655 S
C56 C47 1.511 . S
C56 C57 1.341 . S
C56 C58 1.371 . S
C57 C56 1.341 . S
C57 C61 1.394 . S
C57 H73 0.930 . S
C58 C56 1.371 . S
C58 C59 1.392 . S
C58 H74 0.931 . S
C59 C58 1.392 . S
C59 C60 1.331 . S
C59 H77 0.932 . S
C60 C59 1.331 . S
C60 C61 1.336 . S
C61 C57 1.394 . S
C61 C60 1.336 . S
C61 H76 0.929 . S
C62 C52 1.386 . S
C62 C55 1.357 1_455 S
C62 H75 0.928 . S
H63 C39 0.931 . S
H64 C41 0.930 . S
H65 C43 0.929 . S
H66 C44 0.931 . S
H67 C46 0.930 . S
H68 C50 0.931 . S
H69 C48 0.931 . S
H70 C52 0.931 . S
H71 C53 0.929 . S
H72 C54 0.930 . S
H73 C57 0.930 . S
H74 C58 0.931 . S
H75 C62 0.928 . S
H76 C61 0.929 . S
H77 C59 0.932 . S
C78 C79 1.386 . S
C78 C80 1.397 . S
C78 H102 0.931 . S
C79 C78 1.386 . S
C79 C83 1.397 . S
C80 C78 1.397 . S
C80 C81 1.384 . S
C80 H103 0.930 . S
C81 C80 1.384 . S
C81 C82 1.377 . S
C81 C84 1.481 . S
C82 C81 1.377 . S
C82 C83 1.389 . S
C82 H104 0.929 . S
C83 C79 1.397 . S
C83 C82 1.389 . S
C83 H105 0.931 . S
C84 C81 1.481 . S
C84 C85 1.387 . S
C84 C89 1.390 . S
C85 C84 1.387 . S
C85 C86 1.401 . S
C85 H106 0.930 . S
C86 C85 1.401 . S
C86 C87 1.376 . S
C86 C95 1.511 . S
C87 C86 1.376 . S
C87 C88 1.392 . S
C87 H108 0.931 . S
C88 C87 1.392 . S
C88 C89 1.361 . S
C88 C90 1.500 . S
C89 C84 1.390 . S
C89 C88 1.361 . S
C89 H107 0.931 . S
C90 C88 1.500 . S
C90 C91 1.371 . S
C90 C92 1.365 . S
C91 C90 1.371 . S
C91 C101 1.386 . S
C91 H109 0.931 . S
C92 C90 1.365 . S
C92 C93 1.409 . S
C92 H110 0.929 . S
C93 C92 1.409 . S
C93 C94 1.380 . S
C93 H111 0.930 . S
C94 C93 1.380 . S
C94 C101 1.357 . S
C95 C86 1.511 . S
C95 C96 1.341 . S
C95 C97 1.371 . S
C96 C95 1.341 . S
C96 C100 1.394 . S
C96 H112 0.930 . S
C97 C95 1.371 . S
C97 C98 1.392 . S
C97 H113 0.931 . S
C98 C97 1.392 . S
C98 C99 1.331 . S
C98 H116 0.932 . S
C99 C98 1.331 . S
C99 C100 1.336 . S
C100 C96 1.394 . S
C100 C99 1.336 . S
C100 H115 0.929 . S
C101 C91 1.386 . S
C101 C94 1.357 . S
C101 H114 0.928 . S
H102 C78 0.931 . S
H103 C80 0.930 . S
H104 C82 0.929 . S
H105 C83 0.931 . S
H106 C85 0.930 . S
H107 C89 0.931 . S
H108 C87 0.931 . S
H109 C91 0.931 . S
H110 C92 0.929 . S
H111 C93 0.930 . S
H112 C96 0.930 . S
H113 C97 0.931 . S
H114 C101 0.928 . S
H115 C100 0.929 . S
H116 C98 0.932 . S
C117 C118 1.386 . S
C117 C119 1.397 . S
C117 H141 0.931 . S
C118 C117 1.386 . S
C118 C122 1.397 . S
C119 C117 1.397 . S
C119 C120 1.384 . S
C119 H142 0.930 . S
C120 C119 1.384 . S
C120 C121 1.377 . S
C120 C123 1.481 . S
C121 C120 1.377 . S
C121 C122 1.389 . S
C121 H143 0.929 . S
C122 C118 1.397 . S
C122 C121 1.389 . S
C122 H144 0.931 . S
C123 C120 1.481 . S
C123 C124 1.387 . S
C123 C128 1.390 . S
C124 C123 1.387 . S
C124 C125 1.401 . S
C124 H145 0.930 . S
C125 C124 1.401 . S
C125 C126 1.376 . S
C125 C134 1.511 . S
C126 C125 1.376 . S
C126 C127 1.392 . S
C126 H147 0.931 . S
C127 C126 1.392 . S
C127 C128 1.361 . S
C127 C129 1.500 . S
C128 C123 1.390 . S
C128 C127 1.361 . S
C128 H146 0.931 . S
C129 C127 1.500 . S
C129 C130 1.371 . S
C129 C131 1.365 . S
C130 C129 1.371 . S
C130 C140 1.386 . S
C130 H148 0.931 . S
C131 C129 1.365 . S
C131 C132 1.409 . S
C131 H149 0.929 . S
C132 C131 1.409 . S
C132 C133 1.380 . S
C132 H150 0.930 . S
C133 C132 1.380 . S
C133 C140 1.357 . S
C134 C125 1.511 . S
C134 C135 1.341 . S
C134 C136 1.371 . S
C135 C134 1.341 . S
C135 C139 1.394 . S
C135 H151 0.930 . S
C136 C134 1.371 . S
C136 C137 1.392 . S
C136 H152 0.931 . S
C137 C136 1.392 . S
C137 C138 1.331 . S
C137 H155 0.932 . S
C138 C137 1.331 . S
C138 C139 1.336 . S
C139 C135 1.394 . S
C139 C138 1.336 . S
C139 H154 0.929 . S
C140 C130 1.386 . S
C140 C133 1.357 . S
C140 H153 0.928 . S
H141 C117 0.931 . S
H142 C119 0.930 . S
H143 C121 0.929 . S
H144 C122 0.931 . S
H145 C124 0.930 . S
H146 C128 0.931 . S
H147 C126 0.931 . S
H148 C130 0.931 . S
H149 C131 0.929 . S
H150 C132 0.930 . S
H151 C135 0.930 . S
H152 C136 0.931 . S
H153 C140 0.928 . S
H154 C139 0.929 . S
H155 C137 0.932 . S
C156 C157 1.386 . S
C156 C158 1.397 . S
C156 H180 0.931 . S
C157 C156 1.386 . S
C157 C161 1.397 . S
C158 C156 1.397 . S
C158 C159 1.384 . S
C158 H181 0.930 . S
C159 C158 1.384 . S
C159 C160 1.377 . S
C159 C162 1.481 . S
C160 C159 1.377 . S
C160 C161 1.389 . S
C160 H182 0.929 . S
C161 C157 1.397 . S
C161 C160 1.389 . S
C161 H183 0.931 . S
C162 C159 1.481 . S
C162 C163 1.387 . S
C162 C167 1.390 . S
C163 C162 1.387 . S
C163 C164 1.401 . S
C163 H184 0.930 . S
C164 C163 1.401 . S
C164 C165 1.376 . S
C164 C173 1.511 . S
C165 C164 1.376 . S
C165 C166 1.392 . S
C165 H186 0.931 . S
C166 C165 1.392 . S
C166 C167 1.361 . S
C166 C168 1.500 . S
C167 C162 1.390 . S
C167 C166 1.361 . S
C167 H185 0.931 . S
C168 C166 1.500 . S
C168 C169 1.371 . S
C168 C170 1.365 . S
C169 C168 1.371 . S
C169 C179 1.386 . S
C169 H187 0.931 . S
C170 C168 1.365 . S
C170 C171 1.409 . S
C170 H188 0.929 . S
C171 C170 1.409 . S
C171 C172 1.380 . S
C171 H189 0.930 . S
C172 C171 1.380 . S
C172 C179 1.357 . S
C173 C164 1.511 . S
C173 C174 1.341 . S
C173 C175 1.371 . S
C174 C173 1.341 . S
C174 C178 1.394 . S
C174 H190 0.930 . S
C175 C173 1.371 . S
C175 C176 1.392 . S
C175 H191 0.931 . S
C176 C175 1.392 . S
C176 C177 1.331 . S
C176 H194 0.932 . S
C177 C176 1.331 . S
C177 C178 1.336 . S
C178 C174 1.394 . S
C178 C177 1.336 . S
C178 H193 0.929 . S
C179 C169 1.386 . S
C179 C172 1.357 . S
C179 H192 0.928 . S
H180 C156 0.931 . S
H181 C158 0.930 . S
H182 C160 0.929 . S
H183 C161 0.931 . S
H184 C163 0.930 . S
H185 C167 0.931 . S
H186 C165 0.931 . S
H187 C169 0.931 . S
H188 C170 0.929 . S
H189 C171 0.930 . S
H190 C174 0.930 . S
H191 C175 0.931 . S
H192 C179 0.928 . S
H193 C178 0.929 . S
H194 C176 0.932 . S
C195 C196 1.386 . S
C195 C197 1.397 . S
C195 H219 0.931 . S
C196 C195 1.386 . S
C196 C200 1.397 . S
C197 C195 1.397 . S
C197 C198 1.384 . S
C197 H220 0.930 . S
C198 C197 1.384 . S
C198 C199 1.377 . S
C198 C201 1.481 . S
C199 C198 1.377 . S
C199 C200 1.389 . S
C199 H221 0.929 . S
C200 C196 1.397 . S
C200 C199 1.389 . S
C200 H222 0.931 . S
C201 C198 1.481 . S
C201 C202 1.387 . S
C201 C206 1.390 . S
C202 C201 1.387 . S
C202 C203 1.401 . S
C202 H223 0.930 . S
C203 C202 1.401 . S
C203 C204 1.376 . S
C203 C212 1.511 . S
C204 C203 1.376 . S
C204 C205 1.392 . S
C204 H225 0.931 . S
C205 C204 1.392 . S
C205 C206 1.361 . S
C205 C207 1.500 . S
C206 C201 1.390 . S
C206 C205 1.361 . S
C206 H224 0.931 . S
C207 C205 1.500 . S
C207 C208 1.371 . S
C207 C209 1.365 . S
C208 C207 1.371 . S
C208 C218 1.386 . S
C208 H226 0.931 . S
C209 C207 1.365 . S
C209 C210 1.409 . S
C209 H227 0.929 . S
C210 C209 1.409 . S
C210 C211 1.380 . S
C210 H228 0.930 . S
C211 C210 1.380 . S
C211 C218 1.357 . S
C212 C203 1.511 . S
C212 C213 1.341 . S
C212 C214 1.371 . S
C213 C212 1.341 . S
C213 C217 1.394 . S
C213 H229 0.930 . S
C214 C212 1.371 . S
C214 C215 1.392 . S
C214 H230 0.931 . S
C215 C214 1.392 . S
C215 C216 1.331 . S
C215 H233 0.932 . S
C216 C215 1.331 . S
C216 C217 1.336 . S
C217 C213 1.394 . S
C217 C216 1.336 . S
C217 H232 0.929 . S
C218 C208 1.386 . S
C218 C211 1.357 . S
C218 H231 0.928 . S
H219 C195 0.931 . S
H220 C197 0.930 . S
H221 C199 0.929 . S
H222 C200 0.931 . S
H223 C202 0.930 . S
H224 C206 0.931 . S
H225 C204 0.931 . S
H226 C208 0.931 . S
H227 C209 0.929 . S
H228 C210 0.930 . S
H229 C213 0.930 . S
H230 C214 0.931 . S
H231 C218 0.928 . S
H232 C217 0.929 . S
H233 C215 0.932 . S
C234 C235 1.386 . S
C234 C236 1.397 . S
C234 H258 0.931 . S
C235 C234 1.386 . S
C235 C239 1.397 . S
C236 C234 1.397 . S
C236 C237 1.384 . S
C236 H259 0.930 . S
C237 C236 1.384 . S
C237 C238 1.377 . S
C237 C240 1.481 . S
C238 C237 1.377 . S
C238 C239 1.389 . S
C238 H260 0.929 . S
C239 C235 1.397 . S
C239 C238 1.389 . S
C239 H261 0.931 . S
C240 C237 1.481 . S
C240 C241 1.387 . S
C240 C245 1.390 . S
C241 C240 1.387 . S
C241 C242 1.401 . S
C241 H262 0.930 . S
C242 C241 1.401 . S
C242 C243 1.376 . S
C242 C251 1.511 . S
C243 C242 1.376 . S
C243 C244 1.392 . S
C243 H264 0.931 . S
C244 C243 1.392 . S
C244 C245 1.361 . S
C244 C246 1.500 . S
C245 C240 1.390 . S
C245 C244 1.361 . S
C245 H263 0.931 . S
C246 C244 1.500 . S
C246 C247 1.371 . S
C246 C248 1.365 . S
C247 C246 1.371 . S
C247 C257 1.386 . S
C247 H265 0.931 . S
C248 C246 1.365 . S
C248 C249 1.409 . S
C248 H266 0.929 . S
C249 C248 1.409 . S
C249 C250 1.380 . S
C249 H267 0.930 . S
C250 C249 1.380 . S
C250 C257 1.357 . S
C251 C242 1.511 . S
C251 C252 1.341 . S
C251 C253 1.371 . S
C252 C251 1.341 . S
C252 C256 1.394 . S
C252 H268 0.930 . S
C253 C251 1.371 . S
C253 C254 1.392 . S
C253 H269 0.931 . S
C254 C253 1.392 . S
C254 C255 1.331 . S
C254 H272 0.932 . S
C255 C254 1.331 . S
C255 C256 1.336 . S
C256 C252 1.394 . S
C256 C255 1.336 . S
C256 H271 0.929 . S
C257 C247 1.386 . S
C257 C250 1.357 . S
C257 H270 0.928 . S
H258 C234 0.931 . S
H259 C236 0.930 . S
H260 C238 0.929 . S
H261 C239 0.931 . S
H262 C241 0.930 . S
H263 C245 0.931 . S
H264 C243 0.931 . S
H265 C247 0.931 . S
H266 C248 0.929 . S
H267 C249 0.930 . S
H268 C252 0.930 . S
H269 C253 0.931 . S
H270 C257 0.928 . S
H271 C256 0.929 . S
H272 C254 0.932 . S
C273 C274 1.386 . S
C273 C275 1.397 . S
C273 H297 0.931 . S
C274 C273 1.386 . S
C274 C278 1.397 . S
C275 C273 1.397 . S
C275 C276 1.384 . S
C275 H298 0.930 . S
C276 C275 1.384 . S
C276 C277 1.377 . S
C276 C279 1.481 . S
C277 C276 1.377 . S
C277 C278 1.389 . S
C277 H299 0.929 . S
C278 C274 1.397 . S
C278 C277 1.389 . S
C278 H300 0.931 . S
C279 C276 1.481 . S
C279 C280 1.387 . S
C279 C284 1.390 . S
C280 C279 1.387 . S
C280 C281 1.401 . S
C280 H301 0.930 . S
C281 C280 1.401 . S
C281 C282 1.376 . S
C281 C290 1.511 . S
C282 C281 1.376 . S
C282 C283 1.392 . S
C282 H303 0.931 . S
C283 C282 1.392 . S
C283 C284 1.361 . S
C283 C285 1.500 . S
C284 C279 1.390 . S
C284 C283 1.361 . S
C284 H302 0.931 . S
C285 C283 1.500 . S
C285 C286 1.371 . S
C285 C287 1.365 . S
C286 C285 1.371 . S
C286 C296 1.386 . S
C286 H304 0.931 . S
C287 C285 1.365 . S
C287 C288 1.409 . S
C287 H305 0.929 . S
C288 C287 1.409 . S
C288 C289 1.380 1_455 S
C288 H306 0.930 1_455 S
C289 C288 1.380 1_655 S
C289 C296 1.357 1_655 S
C290 C281 1.511 . S
C290 C291 1.341 . S
C290 C292 1.371 . S
C291 C290 1.341 . S
C291 C295 1.394 . S
C291 H307 0.930 . S
C292 C290 1.371 . S
C292 C293 1.392 . S
C292 H308 0.931 . S
C293 C292 1.392 . S
C293 C294 1.331 . S
C293 H311 0.932 . S
C294 C293 1.331 . S
C294 C295 1.336 . S
C295 C291 1.394 . S
C295 C294 1.336 . S
C295 H310 0.929 . S
C296 C286 1.386 . S
C296 C289 1.357 1_455 S
C296 H309 0.928 . S
H297 C273 0.931 . S
H298 C275 0.930 . S
H299 C277 0.929 . S
H300 C278 0.931 . S
H301 C280 0.930 . S
H302 C284 0.931 . S
H303 C282 0.931 . S
H304 C286 0.931 . S
H305 C287 0.929 . S
H306 C288 0.930 1_655 S
H307 C291 0.930 . S
H308 C292 0.931 . S
H309 C296 0.928 . S
H310 C295 0.929 . S
H311 C293 0.932 . S
Zn312 O318 1.920 . S
Zn312 O324 1.898 . S
Zn312 O327 1.905 . S
Zn313 O321 1.905 . S
Zn313 O322 1.898 . S
Zn313 O330 1.920 . S
Zn314 O317 2.080 . S
Zn314 O320 2.114 . S
Zn314 O323 2.120 . S
Zn314 O325 2.120 . S
Zn314 O326 2.114 . S
Zn314 O329 2.080 . S
C315 O320 1.166 . S
C315 O321 1.182 . S
C316 O322 1.167 . S
C316 O323 1.299 . S
O317 Zn314 2.080 . S
O317 C331 1.305 . S
O318 Zn312 1.920 . S
O318 C331 1.234 . S
C319 O324 1.167 . S
C319 O325 1.299 . S
O320 Zn314 2.114 . S
O320 C315 1.166 . S
O321 Zn313 1.905 . S
O321 C315 1.182 . S
O322 Zn313 1.898 . S
O322 C316 1.167 . S
O323 Zn314 2.120 . S
O323 C316 1.299 . S
O324 Zn312 1.898 . S
O324 C319 1.167 . S
O325 Zn314 2.120 . S
O325 C319 1.299 . S
O326 Zn314 2.114 . S
O326 C328 1.166 . S
O327 Zn312 1.905 . S
O327 C328 1.182 . S
C328 O326 1.166 . S
C328 O327 1.182 . S
O329 Zn314 2.080 . S
O329 C332 1.305 . S
O330 Zn313 1.920 . S
O330 C332 1.234 . S
C331 O317 1.305 . S
C331 O318 1.234 . S
C332 O329 1.305 . S
C332 O330 1.234 . S
Zn333 O339 1.920 . S
Zn333 O345 1.898 . S
Zn333 O348 1.905 . S
Zn334 O342 1.905 . S
Zn334 O343 1.898 . S
Zn334 O351 1.920 . S
Zn335 O338 2.080 . S
Zn335 O341 2.114 . S
Zn335 O344 2.120 . S
Zn335 O346 2.120 . S
Zn335 O347 2.114 . S
Zn335 O350 2.080 . S
C336 O341 1.166 . S
C336 O342 1.182 . S
C337 O343 1.167 . S
C337 O344 1.299 . S
O338 Zn335 2.080 . S
O338 C352 1.305 . S
O339 Zn333 1.920 . S
O339 C352 1.234 . S
C340 O345 1.167 . S
C340 O346 1.299 . S
O341 Zn335 2.114 . S
O341 C336 1.166 . S
O342 Zn334 1.905 . S
O342 C336 1.182 . S
O343 Zn334 1.898 . S
O343 C337 1.167 . S
O344 Zn335 2.120 . S
O344 C337 1.299 . S
O345 Zn333 1.898 . S
O345 C340 1.167 . S
O346 Zn335 2.120 . S
O346 C340 1.299 . S
O347 Zn335 2.114 . S
O347 C349 1.166 . S
O348 Zn333 1.905 . S
O348 C349 1.182 . S
C349 O347 1.166 . S
C349 O348 1.182 . S
O350 Zn335 2.080 . S
O350 C353 1.305 . S
O351 Zn334 1.920 . S
O351 C353 1.234 . S
C352 O338 1.305 . S
C352 O339 1.234 . S
C353 O350 1.305 . S
C353 O351 1.234 . S
Zn354 O360 1.920 . S
Zn354 O366 1.898 . S
Zn354 O369 1.905 . S
Zn355 O363 1.905 . S
Zn355 O364 1.898 . S
Zn355 O372 1.920 . S
Zn356 O359 2.080 . S
Zn356 O362 2.114 . S
Zn356 O365 2.120 . S
Zn356 O367 2.120 . S
Zn356 O368 2.114 . S
Zn356 O371 2.080 . S
C357 O362 1.166 . S
C357 O363 1.182 . S
C358 O364 1.167 . S
C358 O365 1.299 . S
O359 Zn356 2.080 . S
O359 C373 1.305 . S
O360 Zn354 1.920 . S
O360 C373 1.234 . S
C361 O366 1.167 . S
C361 O367 1.299 . S
O362 Zn356 2.114 . S
O362 C357 1.166 . S
O363 Zn355 1.905 . S
O363 C357 1.182 . S
O364 Zn355 1.898 . S
O364 C358 1.167 . S
O365 Zn356 2.120 . S
O365 C358 1.299 . S
O366 Zn354 1.898 . S
O366 C361 1.167 . S
O367 Zn356 2.120 . S
O367 C361 1.299 . S
O368 Zn356 2.114 . S
O368 C370 1.166 . S
O369 Zn354 1.905 . S
O369 C370 1.182 . S
C370 O368 1.166 . S
C370 O369 1.182 . S
O371 Zn356 2.080 . S
O371 C374 1.305 . S
O372 Zn355 1.920 . S
O372 C374 1.234 . S
C373 O359 1.305 . S
C373 O360 1.234 . S
C374 O371 1.305 . S
C374 O372 1.234 . S
Zn375 O381 1.920 . S
Zn375 O387 1.898 . S
Zn375 O390 1.905 . S
Zn376 O384 1.905 . S
Zn376 O385 1.898 . S
Zn376 O393 1.920 . S
Zn377 O380 2.080 . S
Zn377 O383 2.114 . S
Zn377 O386 2.120 . S
Zn377 O388 2.120 . S
Zn377 O389 2.114 . S
Zn377 O392 2.080 . S
C378 O383 1.166 . S
C378 O384 1.182 . S
C379 O385 1.167 . S
C379 O386 1.299 . S
O380 Zn377 2.080 . S
O380 C394 1.305 . S
O381 Zn375 1.920 . S
O381 C394 1.234 . S
C382 O387 1.167 . S
C382 O388 1.299 . S
O383 Zn377 2.114 . S
O383 C378 1.166 . S
O384 Zn376 1.905 . S
O384 C378 1.182 . S
O385 Zn376 1.898 . S
O385 C379 1.167 . S
O386 Zn377 2.120 . S
O386 C379 1.299 . S
O387 Zn375 1.898 . S
O387 C382 1.167 . S
O388 Zn377 2.120 . S
O388 C382 1.299 . S
O389 Zn377 2.114 . S
O389 C391 1.166 . S
O390 Zn375 1.905 . S
O390 C391 1.182 . S
C391 O389 1.166 . S
C391 O390 1.182 . S
O392 Zn377 2.080 . S
O392 C395 1.305 . S
O393 Zn376 1.920 . S
O393 C395 1.234 . S
C394 O380 1.305 . S
C394 O381 1.234 . S
C395 O392 1.305 . S
C395 O393 1.234 . S
H396 C404 0.950 . S
H397 C409 0.950 . S
H398 C406 0.950 . S
H399 C408 0.950 . S
H400 C410 0.950 . S
H401 C412 0.950 . S
H402 C414 0.950 . S
H403 C415 0.950 . S
C404 H396 0.950 . S
C404 C405 1.386 . S
C404 C406 1.391 . S
C405 C404 1.386 . S
C405 C409 1.393 . S
C406 H398 0.950 . S
C406 C404 1.391 . S
C406 C407 1.400 . S
C407 C406 1.400 . S
C407 C408 1.398 . S
C407 C413 1.491 . S
C408 H399 0.950 . S
C408 C407 1.398 . S
C408 C409 1.391 . S
C409 H397 0.950 . S
C409 C405 1.393 . S
C409 C408 1.391 . S
C410 H400 0.950 . S
C410 C411 1.386 . S
C410 C412 1.391 . S
C411 C410 1.386 . S
C411 C415 1.393 . S
C412 H401 0.950 . S
C412 C410 1.391 . S
C412 C413 1.400 . S
C413 C407 1.491 . S
C413 C412 1.400 . S
C413 C414 1.398 . S
C414 H402 0.950 . S
C414 C413 1.398 . S
C414 C415 1.391 . S
C415 H403 0.950 . S
C415 C411 1.393 . S
C415 C414 1.391 . S
H416 C424 0.950 . S
H417 C429 0.950 . S
H418 C426 0.950 . S
H419 C428 0.950 . S
H420 C430 0.950 . S
H421 C432 0.950 . S
H422 C434 0.950 . S
H423 C435 0.950 . S
C424 H416 0.950 . S
C424 C425 1.386 . S
C424 C426 1.391 . S
C425 C424 1.386 . S
C425 C429 1.393 . S
C426 H418 0.950 . S
C426 C424 1.391 . S
C426 C427 1.400 . S
C427 C426 1.400 . S
C427 C428 1.398 . S
C427 C433 1.491 . S
C428 H419 0.950 . S
C428 C427 1.398 . S
C428 C429 1.391 . S
C429 H417 0.950 . S
C429 C425 1.393 . S
C429 C428 1.391 . S
C430 H420 0.950 . S
C430 C431 1.386 . S
C430 C432 1.391 . S
C431 C430 1.386 . S
C431 C435 1.393 . S
C432 H421 0.950 . S
C432 C430 1.391 . S
C432 C433 1.400 . S
C433 C427 1.491 . S
C433 C432 1.400 . S
C433 C434 1.398 . S
C434 H422 0.950 . S
C434 C433 1.398 . S
C434 C435 1.391 . S
C435 H423 0.950 . S
C435 C431 1.393 . S
C435 C434 1.391 . S
H436 C444 0.950 . S
H437 C449 0.950 . S
H438 C446 0.950 . S
H439 C448 0.950 . S
H440 C450 0.950 . S
H441 C452 0.950 . S
H442 C454 0.950 . S
H443 C455 0.950 . S
C444 H436 0.950 . S
C444 C445 1.386 . S
C444 C446 1.391 . S
C445 C444 1.386 . S
C445 C449 1.393 . S
C446 H438 0.950 . S
C446 C444 1.391 . S
C446 C447 1.400 . S
C447 C446 1.400 . S
C447 C448 1.398 . S
C447 C453 1.491 . S
C448 H439 0.950 . S
C448 C447 1.398 . S
C448 C449 1.391 . S
C449 H437 0.950 . S
C449 C445 1.393 . S
C449 C448 1.391 . S
C450 H440 0.950 . S
C450 C451 1.386 . S
C450 C452 1.391 . S
C451 C450 1.386 . S
C451 C455 1.393 . S
C452 H441 0.950 . S
C452 C450 1.391 . S
C452 C453 1.400 . S
C453 C447 1.491 . S
C453 C452 1.400 . S
C453 C454 1.398 . S
C454 H442 0.950 . S
C454 C453 1.398 . S
C454 C455 1.391 . S
C455 H443 0.950 . S
C455 C451 1.393 . S
C455 C454 1.391 . S
H456 C464 0.950 . S
H457 C469 0.950 . S
H458 C466 0.950 . S
H459 C468 0.950 . S
H460 C470 0.950 . S
H461 C472 0.950 . S
H462 C474 0.950 . S
H463 C475 0.950 1_455 S
C464 H456 0.950 . S
C464 C465 1.386 . S
C464 C466 1.391 . S
C465 C464 1.386 . S
C465 C469 1.393 . S
C466 H458 0.950 . S
C466 C464 1.391 . S
C466 C467 1.400 . S
C467 C466 1.400 . S
C467 C468 1.398 . S
C467 C473 1.491 . S
C468 H459 0.950 . S
C468 C467 1.398 . S
C468 C469 1.391 . S
C469 H457 0.950 . S
C469 C465 1.393 . S
C469 C468 1.391 . S
C470 H460 0.950 . S
C470 C471 1.386 1_655 S
C470 C472 1.391 . S
C471 C470 1.386 1_455 S
C471 C475 1.393 1_455 S
C472 H461 0.950 . S
C472 C470 1.391 . S
C472 C473 1.400 . S
C473 C467 1.491 . S
C473 C472 1.400 . S
C473 C474 1.398 . S
C474 H462 0.950 . S
C474 C473 1.398 . S
C474 C475 1.391 . S
C475 H463 0.950 1_655 S
C475 C471 1.393 1_655 S
C475 C474 1.391 . S
H476 C484 0.950 . S
H477 C489 0.934 1_655 S
H478 C486 0.950 . S
H479 C488 0.950 . S
H480 C490 0.950 . S
H481 C492 0.950 . S
H482 C494 0.950 . S
H483 C495 0.950 . S
C484 H476 0.950 . S
C484 C485 1.386 . S
C484 C486 1.391 . S
C485 C484 1.386 . S
C485 C489 1.393 . S
C486 H478 0.950 . S
C486 C484 1.391 . S
C486 C487 1.400 . S
C487 C486 1.400 . S
C487 C488 1.398 . S
C487 C493 1.491 . S
C488 H479 0.950 . S
C488 C487 1.398 . S
C488 C489 1.391 . S
C489 H477 0.934 1_455 S
C489 C485 1.393 . S
C489 C488 1.391 . S
C490 H480 0.950 . S
C490 C491 1.386 . S
C490 C492 1.391 . S
C491 C490 1.386 . S
C491 C495 1.393 . S
C492 H481 0.950 . S
C492 C490 1.391 . S
C492 C493 1.400 . S
C493 C487 1.491 . S
C493 C492 1.400 . S
C493 C494 1.398 . S
C494 H482 0.950 . S
C494 C493 1.398 . S
C494 C495 1.391 . S
C495 H483 0.950 . S
C495 C491 1.393 . S
C495 C494 1.391 . S
H496 C504 0.950 . S
H497 C509 0.950 . S
H498 C506 0.950 . S
H499 C508 0.950 . S
H500 C510 0.950 1_455 S
H501 C512 0.950 . S
H502 C514 0.950 . S
H503 C515 0.950 1_455 S
C504 H496 0.950 . S
C504 C505 1.386 . S
C504 C506 1.391 . S
C505 C504 1.386 . S
C505 C509 1.393 . S
C506 H498 0.950 . S
C506 C504 1.391 . S
C506 C507 1.400 . S
C507 C506 1.400 . S
C507 C508 1.398 . S
C507 C513 1.491 . S
C508 H499 0.950 . S
C508 C507 1.398 . S
C508 C509 1.391 . S
C509 H497 0.950 . S
C509 C505 1.393 . S
C509 C508 1.391 . S
C510 H500 0.950 1_655 S
C510 C511 1.386 1_655 S
C510 C512 1.391 . S
C511 C510 1.386 1_455 S
C511 C515 1.393 1_455 S
C512 H501 0.950 . S
C512 C510 1.391 . S
C512 C513 1.400 . S
C513 C507 1.491 . S
C513 C512 1.400 . S
C513 C514 1.398 . S
C514 H502 0.950 . S
C514 C513 1.398 . S
C514 C515 1.391 . S
C515 H503 0.950 1_655 S
C515 C511 1.393 1_655 S
C515 C514 1.391 . S
H516 C524 0.950 . S
H517 C529 0.950 . S
H518 C526 0.950 . S
H519 C528 0.950 . S
H520 C530 0.950 . S
H521 C532 0.950 . S
H522 C534 0.950 . S
H523 C535 0.950 . S
C524 H516 0.950 . S
C524 C525 1.386 . S
C524 C526 1.391 . S
C525 C524 1.386 . S
C525 C529 1.393 . S
C526 H518 0.950 . S
C526 C524 1.391 . S
C526 C527 1.400 . S
C527 C526 1.400 . S
C527 C528 1.398 . S
C527 C533 1.491 . S
C528 H519 0.950 . S
C528 C527 1.398 . S
C528 C529 1.391 . S
C529 H517 0.950 . S
C529 C525 1.393 . S
C529 C528 1.391 . S
C530 H520 0.950 . S
C530 C531 1.386 . S
C530 C532 1.391 . S
C531 C530 1.386 . S
C531 C535 1.393 . S
C532 H521 0.950 . S
C532 C530 1.391 . S
C532 C533 1.400 . S
C533 C527 1.491 . S
C533 C532 1.400 . S
C533 C534 1.398 . S
C534 H522 0.950 . S
C534 C533 1.398 . S
C534 C535 1.391 . S
C535 H523 0.950 . S
C535 C531 1.393 . S
C535 C534 1.391 . S
H536 C544 0.950 . S
H537 C549 0.950 . S
H538 C546 0.950 . S
H539 C548 0.950 . S
H540 C550 0.950 . S
H541 C552 0.950 . S
H542 C554 0.950 . S
H543 C555 0.950 . S
C544 H536 0.950 . S
C544 C545 1.386 . S
C544 C546 1.391 . S
C545 C544 1.386 . S
C545 C549 1.393 . S
C546 H538 0.950 . S
C546 C544 1.391 . S
C546 C547 1.400 . S
C547 C546 1.400 . S
C547 C548 1.398 . S
C547 C553 1.491 . S
C548 H539 0.950 . S
C548 C547 1.398 . S
C548 C549 1.391 . S
C549 H537 0.950 . S
C549 C545 1.393 . S
C549 C548 1.391 . S
C550 H540 0.950 . S
C550 C551 1.386 . S
C550 C552 1.391 . S
C551 C550 1.386 . S
C551 C555 1.393 . S
C552 H541 0.950 . S
C552 C550 1.391 . S
C552 C553 1.400 . S
C553 C547 1.491 . S
C553 C552 1.400 . S
C553 C554 1.398 . S
C554 H542 0.950 . S
C554 C553 1.398 . S
C554 C555 1.391 . S
C555 H543 0.950 . S
C555 C551 1.393 . S
C555 C554 1.391 . S
H556 C564 0.950 . S
H557 C569 0.950 . S
H558 C566 0.950 . S
H559 C568 0.950 . S
H560 C570 0.950 . S
H561 C572 0.950 . S
H562 C574 0.950 . S
H563 C575 0.950 . S
C564 H556 0.950 . S
C564 C565 1.386 . S
C564 C566 1.391 . S
C565 C564 1.386 . S
C565 C569 1.393 . S
C566 H558 0.950 . S
C566 C564 1.391 . S
C566 C567 1.400 . S
C567 C566 1.400 . S
C567 C568 1.398 . S
C567 C573 1.491 . S
C568 H559 0.950 . S
C568 C567 1.398 . S
C568 C569 1.391 . S
C569 H557 0.950 . S
C569 C565 1.393 . S
C569 C568 1.391 . S
C570 H560 0.950 . S
C570 C571 1.386 . S
C570 C572 1.391 . S
C571 C570 1.386 . S
C571 C575 1.393 . S
C572 H561 0.950 . S
C572 C570 1.391 . S
C572 C573 1.400 . S
C573 C567 1.491 . S
C573 C572 1.400 . S
C573 C574 1.398 . S
C574 H562 0.950 . S
C574 C573 1.398 . S
C574 C575 1.391 . S
C575 H563 0.950 . S
C575 C571 1.393 . S
C575 C574 1.391 . S
H576 C584 0.950 . S
H577 C589 0.950 . S
H578 C586 0.950 . S
H579 C588 0.950 . S
H580 C590 0.950 . S
H581 C592 0.950 . S
H582 C594 0.950 . S
H583 C595 0.950 . S
C584 H576 0.950 . S
C584 C585 1.386 . S
C584 C586 1.391 . S
C585 C584 1.386 . S
C585 C589 1.393 . S
C586 H578 0.950 . S
C586 C584 1.391 . S
C586 C587 1.400 . S
C587 C586 1.400 . S
C587 C588 1.398 . S
C587 C593 1.491 . S
C588 H579 0.950 . S
C588 C587 1.398 . S
C588 C589 1.391 . S
C589 H577 0.950 . S
C589 C585 1.393 . S
C589 C588 1.391 . S
C590 H580 0.950 . S
C590 C591 1.386 . S
C590 C592 1.391 . S
C591 C590 1.386 . S
C591 C595 1.393 . S
C592 H581 0.950 . S
C592 C590 1.391 . S
C592 C593 1.400 . S
C593 C587 1.491 . S
C593 C592 1.400 . S
C593 C594 1.398 . S
C594 H582 0.950 . S
C594 C593 1.398 . S
C594 C595 1.391 . S
C595 H583 0.950 . S
C595 C591 1.393 . S
C595 C594 1.391 . S
H596 C604 0.950 . S
H597 C609 0.950 . S
H598 C606 0.950 . S
H599 C608 0.950 . S
H600 C610 0.950 . S
H601 C612 0.950 . S
H602 C614 0.950 . S
H603 C615 0.950 . S
C604 H596 0.950 . S
C604 C605 1.386 . S
C604 C606 1.391 . S
C605 C604 1.386 . S
C605 C609 1.393 . S
C606 H598 0.950 . S
C606 C604 1.391 . S
C606 C607 1.400 . S
C607 C606 1.400 . S
C607 C608 1.398 . S
C607 C613 1.491 . S
C608 H599 0.950 . S
C608 C607 1.398 . S
C608 C609 1.391 . S
C609 H597 0.950 . S
C609 C605 1.393 . S
C609 C608 1.391 . S
C610 H600 0.950 . S
C610 C611 1.386 . S
C610 C612 1.391 . S
C611 C610 1.386 . S
C611 C615 1.393 . S
C612 H601 0.950 . S
C612 C610 1.391 . S
C612 C613 1.400 . S
C613 C607 1.491 . S
C613 C612 1.400 . S
C613 C614 1.398 . S
C614 H602 0.950 . S
C614 C613 1.398 . S
C614 C615 1.391 . S
C615 H603 0.950 . S
C615 C611 1.393 . S
C615 C614 1.391 . S
H616 C624 0.950 . S
H617 C629 0.950 . S
H618 C626 0.950 . S
H619 C628 0.950 . S
H620 C630 0.950 . S
H621 C632 0.950 . S
H622 C634 0.950 . S
H623 C635 0.950 . S
C624 H616 0.950 . S
C624 C625 1.386 . S
C624 C626 1.391 . S
C625 C624 1.386 . S
C625 C629 1.393 . S
C626 H618 0.950 . S
C626 C624 1.391 . S
C626 C627 1.400 . S
C627 C626 1.400 . S
C627 C628 1.398 . S
C627 C633 1.491 . S
C628 H619 0.950 . S
C628 C627 1.398 . S
C628 C629 1.391 . S
C629 H617 0.950 . S
C629 C625 1.393 . S
C629 C628 1.391 . S
C630 H620 0.950 . S
C630 C631 1.386 . S
C630 C632 1.391 . S
C631 C630 1.386 . S
C631 C635 1.393 . S
C632 H621 0.950 . S
C632 C630 1.391 . S
C632 C633 1.400 . S
C633 C627 1.491 . S
C633 C632 1.400 . S
C633 C634 1.398 . S
C634 H622 0.950 . S
C634 C633 1.398 . S
C634 C635 1.391 . S
C635 H623 0.950 . S
C635 C631 1.393 . S
C635 C634 1.391 . S
H636 C644 0.950 . S
H637 C649 0.950 . S
H638 C646 0.950 . S
H639 C648 0.956 . S
H640 C650 0.950 . S
H641 C652 0.950 . S
H642 C654 0.950 . S
H643 C655 0.950 . S
C644 H636 0.950 . S
C644 C645 1.386 . S
C644 C646 1.391 . S
C645 C644 1.386 . S
C645 C649 1.393 . S
C646 H638 0.950 . S
C646 C644 1.391 . S
C646 C647 1.400 . S
C647 C646 1.400 . S
C647 C648 1.398 . S
C647 C653 1.491 1_565 S
C648 H639 0.956 . S
C648 C647 1.398 . S
C648 C649 1.391 . S
C649 H637 0.950 . S
C649 C645 1.393 . S
C649 C648 1.391 . S
C650 H640 0.950 . S
C650 C651 1.386 . S
C650 C652 1.391 . S
C651 C650 1.386 . S
C651 C655 1.393 . S
C652 H641 0.950 . S
C652 C650 1.391 . S
C652 C653 1.400 . S
C653 C647 1.491 1_545 S
C653 C652 1.400 . S
C653 C654 1.398 . S
C654 H642 0.950 . S
C654 C653 1.398 . S
C654 C655 1.391 . S
C655 H643 0.950 . S
C655 C651 1.393 . S
C655 C654 1.391 . S
H656 C664 0.950 . S
H657 C669 0.950 . S
H658 C666 0.950 . S
H659 C668 0.950 . S
H660 C670 0.950 . S
H661 C672 0.950 . S
H662 C674 0.950 . S
H663 C675 0.950 . S
C664 H656 0.950 . S
C664 C665 1.386 . S
C664 C666 1.391 1_545 S
C665 C664 1.386 . S
C665 C669 1.393 . S
C666 H658 0.950 . S
C666 C664 1.391 1_565 S
C666 C667 1.400 . S
C667 C666 1.400 . S
C667 C668 1.398 1_565 S
C667 C673 1.491 . S
C668 H659 0.950 . S
C668 C667 1.398 1_545 S
C668 C669 1.391 . S
C669 H657 0.950 . S
C669 C665 1.393 . S
C669 C668 1.391 . S
C670 H660 0.950 . S
C670 C671 1.386 . S
C670 C672 1.391 . S
C671 C670 1.386 . S
C671 C675 1.393 . S
C672 H661 0.950 . S
C672 C670 1.391 . S
C672 C673 1.400 . S
C673 C667 1.491 . S
C673 C672 1.400 . S
C673 C674 1.398 . S
C674 H662 0.950 . S
C674 C673 1.398 . S
C674 C675 1.391 . S
C675 H663 0.950 . S
C675 C671 1.393 . S
C675 C674 1.391 . S
H676 C684 0.950 . S
H677 C689 0.950 . S
H678 C686 0.957 . S
H679 C688 0.950 . S
H680 C690 0.950 . S
H681 C692 0.950 . S
H682 C694 0.950 . S
H683 C695 0.950 . S
C684 H676 0.950 . S
C684 C685 1.386 . S
C684 C686 1.391 . S
C685 C684 1.386 . S
C685 C689 1.393 . S
C686 H678 0.957 . S
C686 C684 1.391 . S
C686 C687 1.400 1_545 S
C687 C686 1.400 1_565 S
C687 C688 1.398 . S
C687 C693 1.491 . S
C688 H679 0.950 . S
C688 C687 1.398 . S
C688 C689 1.391 1_565 S
C689 H677 0.950 . S
C689 C685 1.393 . S
C689 C688 1.391 1_545 S
C690 H680 0.950 . S
C690 C691 1.386 . S
C690 C692 1.391 . S
C691 C690 1.386 . S
C691 C695 1.393 . S
C692 H681 0.950 . S
C692 C690 1.391 . S
C692 C693 1.400 . S
C693 C687 1.491 . S
C693 C692 1.400 . S
C693 C694 1.398 . S
C694 H682 0.950 . S
C694 C693 1.398 . S
C694 C695 1.391 . S
C695 H683 0.950 . S
C695 C691 1.393 . S
C695 C694 1.391 . S
H696 C704 0.976 . S
H697 C709 0.950 . S
H698 C706 0.950 1_545 S
H699 C708 0.950 . S
H700 C710 0.950 . S
H701 C712 0.950 . S
H702 C714 0.950 . S
H703 C715 0.950 . S
C704 H696 0.976 . S
C704 C705 1.386 . S
C704 C706 1.391 . S
C705 C704 1.386 . S
C705 C709 1.393 . S
C706 H698 0.950 1_565 S
C706 C704 1.391 . S
C706 C707 1.400 1_565 S
C707 C706 1.400 1_545 S
C707 C708 1.398 1_545 S
C707 C713 1.491 . S
C708 H699 0.950 . S
C708 C707 1.398 1_565 S
C708 C709 1.391 . S
C709 H697 0.950 . S
C709 C705 1.393 . S
C709 C708 1.391 . S
C710 H700 0.950 . S
C710 C711 1.386 . S
C710 C712 1.391 . S
C711 C710 1.386 . S
C711 C715 1.393 . S
C712 H701 0.950 . S
C712 C710 1.391 . S
C712 C713 1.400 . S
C713 C707 1.491 . S
C713 C712 1.400 . S
C713 C714 1.398 . S
C714 H702 0.950 . S
C714 C713 1.398 . S
C714 C715 1.391 . S
C715 H703 0.950 . S
C715 C711 1.393 . S
C715 C714 1.391 . S
H716 C724 0.950 . S
H717 C729 0.950 . S
H718 C726 0.950 . S
H719 C728 0.950 . S
H720 C730 0.950 . S
H721 C732 0.950 . S
H722 C734 0.950 . S
H723 C735 0.950 . S
C724 H716 0.950 . S
C724 C725 1.386 . S
C724 C726 1.391 . S
C725 C724 1.386 . S
C725 C729 1.393 . S
C726 H718 0.950 . S
C726 C724 1.391 . S
C726 C727 1.400 . S
C727 C726 1.400 . S
C727 C728 1.398 . S
C727 C733 1.491 . S
C728 H719 0.950 . S
C728 C727 1.398 . S
C728 C729 1.391 . S
C729 H717 0.950 . S
C729 C725 1.393 . S
C729 C728 1.391 . S
C730 H720 0.950 . S
C730 C731 1.386 . S
C730 C732 1.391 . S
C731 C730 1.386 . S
C731 C735 1.393 . S
C732 H721 0.950 . S
C732 C730 1.391 . S
C732 C733 1.400 . S
C733 C727 1.491 . S
C733 C732 1.400 . S
C733 C734 1.398 . S
C734 H722 0.950 . S
C734 C733 1.398 . S
C734 C735 1.391 . S
C735 H723 0.950 . S
C735 C731 1.393 . S
C735 C734 1.391 . S
H736 C744 0.950 . S
H737 C749 0.950 . S
H738 C746 0.950 . S
H739 C748 0.950 . S
H740 C750 0.950 . S
H741 C752 0.950 . S
H742 C754 0.950 . S
H743 C755 0.950 . S
C744 H736 0.950 . S
C744 C745 1.386 . S
C744 C746 1.391 . S
C745 C744 1.386 . S
C745 C749 1.393 . S
C746 H738 0.950 . S
C746 C744 1.391 . S
C746 C747 1.400 . S
C747 C746 1.400 . S
C747 C748 1.398 . S
C747 C753 1.491 . S
C748 H739 0.950 . S
C748 C747 1.398 . S
C748 C749 1.391 . S
C749 H737 0.950 . S
C749 C745 1.393 . S
C749 C748 1.391 . S
C750 H740 0.950 . S
C750 C751 1.386 . S
C750 C752 1.391 . S
C751 C750 1.386 . S
C751 C755 1.393 . S
C752 H741 0.950 . S
C752 C750 1.391 . S
C752 C753 1.400 . S
C753 C747 1.491 . S
C753 C752 1.400 . S
C753 C754 1.398 . S
C754 H742 0.950 . S
C754 C753 1.398 . S
C754 C755 1.391 . S
C755 H743 0.950 . S
C755 C751 1.393 . S
C755 C754 1.391 . S
H756 C764 0.950 . S
H757 C769 0.950 . S
H758 C766 0.950 . S
H759 C768 0.950 . S
H760 C770 0.950 . S
H761 C772 0.950 . S
H762 C774 0.950 . S
H763 C775 0.950 . S
C764 H756 0.950 . S
C764 C765 1.386 . S
C764 C766 1.391 . S
C765 C764 1.386 . S
C765 C769 1.393 . S
C766 H758 0.950 . S
C766 C764 1.391 . S
C766 C767 1.400 . S
C767 C766 1.400 . S
C767 C768 1.398 . S
C767 C773 1.491 . S
C768 H759 0.950 . S
C768 C767 1.398 . S
C768 C769 1.391 . S
C769 H757 0.950 . S
C769 C765 1.393 . S
C769 C768 1.391 . S
C770 H760 0.950 . S
C770 C771 1.386 . S
C770 C772 1.391 . S
C771 C770 1.386 . S
C771 C775 1.393 . S
C772 H761 0.950 . S
C772 C770 1.391 . S
C772 C773 1.400 . S
C773 C767 1.491 . S
C773 C772 1.400 . S
C773 C774 1.398 . S
C774 H762 0.950 . S
C774 C773 1.398 . S
C774 C775 1.391 . S
C775 H763 0.950 . S
C775 C771 1.393 . S
C775 C774 1.391 . S
H776 C784 0.950 . S
H777 C789 0.950 . S
H778 C786 0.950 . S
H779 C788 0.950 . S
H780 C790 0.950 . S
H781 C792 0.950 . S
H782 C794 0.950 . S
H783 C795 0.950 . S
C784 H776 0.950 . S
C784 C785 1.386 . S
C784 C786 1.391 . S
C785 C784 1.386 . S
C785 C789 1.393 . S
C786 H778 0.950 . S
C786 C784 1.391 . S
C786 C787 1.400 . S
C787 C786 1.400 . S
C787 C788 1.398 . S
C787 C793 1.491 . S
C788 H779 0.950 . S
C788 C787 1.398 . S
C788 C789 1.391 . S
C789 H777 0.950 . S
C789 C785 1.393 . S
C789 C788 1.391 . S
C790 H780 0.950 . S
C790 C791 1.386 . S
C790 C792 1.391 . S
C791 C790 1.386 . S
C791 C795 1.393 . S
C792 H781 0.950 . S
C792 C790 1.391 . S
C792 C793 1.400 . S
C793 C787 1.491 . S
C793 C792 1.400 . S
C793 C794 1.398 . S
C794 H782 0.950 . S
C794 C793 1.398 . S
C794 C795 1.391 . S
C795 H783 0.950 . S
C795 C791 1.393 . S
C795 C794 1.391 . S
H796 C804 0.950 1_655 S
H797 C809 0.950 . S
H798 C806 0.950 . S
H799 C808 0.950 . S
H800 C810 0.950 . S
H801 C812 0.950 . S
H802 C814 0.950 . S
H803 C815 0.950 . S
C804 H796 0.950 1_455 S
C804 C805 1.386 . S
C804 C806 1.391 . S
C805 C804 1.386 . S
C805 C809 1.393 . S
C806 H798 0.950 . S
C806 C804 1.391 . S
C806 C807 1.400 . S
C807 C806 1.400 . S
C807 C808 1.398 . S
C807 C813 1.491 . S
C808 H799 0.950 . S
C808 C807 1.398 . S
C808 C809 1.391 . S
C809 H797 0.950 . S
C809 C805 1.393 . S
C809 C808 1.391 . S
C810 H800 0.950 . S
C810 C811 1.386 . S
C810 C812 1.391 . S
C811 C810 1.386 . S
C811 C815 1.393 . S
C812 H801 0.950 . S
C812 C810 1.391 . S
C812 C813 1.400 . S
C813 C807 1.491 . S
C813 C812 1.400 . S
C813 C814 1.398 . S
C814 H802 0.950 . S
C814 C813 1.398 . S
C814 C815 1.391 . S
C815 H803 0.950 . S
C815 C811 1.393 . S
C815 C814 1.391 . S
H816 C824 0.950 . S
H817 C829 0.950 . S
H818 C826 0.950 . S
H819 C828 0.950 . S
H820 C830 0.950 . S
H821 C832 0.950 . S
H822 C834 0.950 . S
H823 C835 0.950 . S
C824 H816 0.950 . S
C824 C825 1.386 . S
C824 C826 1.391 . S
C825 C824 1.386 . S
C825 C829 1.393 . S
C826 H818 0.950 . S
C826 C824 1.391 . S
C826 C827 1.400 . S
C827 C826 1.400 . S
C827 C828 1.398 . S
C827 C833 1.491 . S
C828 H819 0.950 . S
C828 C827 1.398 . S
C828 C829 1.391 . S
C829 H817 0.950 . S
C829 C825 1.393 . S
C829 C828 1.391 . S
C830 H820 0.950 . S
C830 C831 1.386 . S
C830 C832 1.391 . S
C831 C830 1.386 . S
C831 C835 1.393 . S
C832 H821 0.950 . S
C832 C830 1.391 . S
C832 C833 1.400 . S
C833 C827 1.491 . S
C833 C832 1.400 . S
C833 C834 1.398 . S
C834 H822 0.950 . S
C834 C833 1.398 . S
C834 C835 1.391 . S
C835 H823 0.950 . S
C835 C831 1.393 . S
C835 C834 1.391 . S
H836 C844 0.950 . S
H837 C849 0.950 . S
H838 C846 0.950 . S
H839 C848 0.950 . S
H840 C850 0.950 . S
H841 C852 0.950 . S
H842 C854 0.950 . S
H843 C855 0.950 . S
C844 H836 0.950 . S
C844 C845 1.386 . S
C844 C846 1.391 . S
C845 C844 1.386 . S
C845 C849 1.393 . S
C846 H838 0.950 . S
C846 C844 1.391 . S
C846 C847 1.400 . S
C847 C846 1.400 . S
C847 C848 1.398 . S
C847 C853 1.491 . S
C848 H839 0.950 . S
C848 C847 1.398 . S
C848 C849 1.391 . S
C849 H837 0.950 . S
C849 C845 1.393 . S
C849 C848 1.391 . S
C850 H840 0.950 . S
C850 C851 1.386 . S
C850 C852 1.391 . S
C851 C850 1.386 . S
C851 C855 1.393 . S
C852 H841 0.950 . S
C852 C850 1.391 . S
C852 C853 1.400 . S
C853 C847 1.491 . S
C853 C852 1.400 . S
C853 C854 1.398 . S
C854 H842 0.950 . S
C854 C853 1.398 . S
C854 C855 1.391 . S
C855 H843 0.950 . S
C855 C851 1.393 . S
C855 C854 1.391 . S
H856 C864 0.950 . S
H857 C869 0.950 . S
H858 C866 0.950 . S
H859 C868 0.950 . S
H860 C870 0.950 . S
H861 C872 0.950 . S
H862 C874 0.950 . S
H863 C875 0.950 . S
C864 H856 0.950 . S
C864 C865 1.386 . S
C864 C866 1.391 . S
C865 C864 1.386 . S
C865 C869 1.393 . S
C866 H858 0.950 . S
C866 C864 1.391 . S
C866 C867 1.400 . S
C867 C866 1.400 . S
C867 C868 1.398 . S
C867 C873 1.491 . S
C868 H859 0.950 . S
C868 C867 1.398 . S
C868 C869 1.391 . S
C869 H857 0.950 . S
C869 C865 1.393 . S
C869 C868 1.391 . S
C870 H860 0.950 . S
C870 C871 1.386 . S
C870 C872 1.391 . S
C871 C870 1.386 . S
C871 C875 1.393 . S
C872 H861 0.950 . S
C872 C870 1.391 . S
C872 C873 1.400 . S
C873 C867 1.491 . S
C873 C872 1.400 . S
C873 C874 1.398 . S
C874 H862 0.950 . S
C874 C873 1.398 . S
C874 C875 1.391 . S
C875 H863 0.950 . S
C875 C871 1.393 . S
C875 C874 1.391 . S
C411 C319 1.494 . S
C405 C16 1.648 . S
C431 C337 1.316 . S
C425 C55 1.406 . S
C445 C99 1.408 . S
C451 C361 1.314 . S
C471 C391 1.297 . S
C465 C138 1.457 . S
C491 C379 1.339 . S
C485 C172 1.398 . S
C505 C216 1.394 . S
C511 C332 1.298 . S
C525 C255 1.659 . S
C531 C352 1.530 . S
C545 C289 1.470 . S
C551 C357 1.311 . S
C565 C294 1.399 . S
C571 C373 1.315 . S
C585 C211 1.476 . S
C591 C328 1.307 . S
C611 C395 1.306 . S
C605 C133 1.405 . S
C631 C340 1.306 . S
C625 C60 1.460 . S
C645 C94 1.654 . S
C651 C358 1.517 . S
C665 C21 1.418 . S
C671 C316 1.329 . S
C691 C336 1.329 . S
C685 C250 1.386 . S
C711 C382 1.505 . S
C705 C177 1.661 . S
C731 C378 1.346 . S
C725 C1 1.508 1_556 S
C751 C331 1.359 . S
C745 C40 1.451 . S
C765 C79 1.484 . S
C771 C353 1.290 . S
C785 C118 1.462 . S
C791 C374 1.390 . S
C811 C315 1.307 . S
C805 C157 1.507 1_554 S
C825 C196 1.491 . S
C831 C349 1.381 . S
C851 C370 1.342 . S
C845 C235 1.519 . S
C871 C394 1.347 . S
C865 C274 1.467 . S
