# Generated by pormake.
# Topology eea, (3,6)-cn, num edge types: 1
# Building blocks:
#     Node 0, Type 0, BuildingBlock: MIDCAF_clean_linker_0, # of connection points: 3
#     Node 1, Type 0, BuildingBlock: MIDCAF_clean_linker_0, # of connection points: 3
#     Node 2, Type 0, BuildingBlock: MIDCAF_clean_linker_0, # of connection points: 3
#     Node 3, Type 0, BuildingBlock: MIDCAF_clean_linker_0, # of connection points: 3
#     Node 4, Type 0, BuildingBlock: MIDCAF_clean_linker_0, # of connection points: 3
#     Node 5, Type 0, BuildingBlock: MIDCAF_clean_linker_0, # of connection points: 3
#     Node 6, Type 0, BuildingBlock: MIDCAF_clean_linker_0, # of connection points: 3
#     Node 7, Type 0, BuildingBlock: MIDCAF_clean_linker_0, # of connection points: 3
#     Node 8, Type 0, BuildingBlock: MIDCAF_clean_linker_0, # of connection points: 3
#     Node 9, Type 0, BuildingBlock: MIDCAF_clean_linker_0, # of connection points: 3
#     Node 10, Type 0, BuildingBlock: MIDCAF_clean_linker_0, # of connection points: 3
#     Node 11, Type 0, BuildingBlock: MIDCAF_clean_linker_0, # of connection points: 3
#     Node 12, Type 0, BuildingBlock: MIDCAF_clean_linker_0, # of connection points: 3
#     Node 13, Type 0, BuildingBlock: MIDCAF_clean_linker_0, # of connection points: 3
#     Node 14, Type 0, BuildingBlock: MIDCAF_clean_linker_0, # of connection points: 3
#     Node 15, Type 0, BuildingBlock: MIDCAF_clean_linker_0, # of connection points: 3
#     Node 16, Type 0, BuildingBlock: MIDCAF_clean_linker_0, # of connection points: 3
#     Node 17, Type 0, BuildingBlock: MIDCAF_clean_linker_0, # of connection points: 3
#     Node 18, Type 1, BuildingBlock: KUMJIN_clean_sbu_0, # of connection points: 6
#     Node 19, Type 1, BuildingBlock: KUMJIN_clean_sbu_0, # of connection points: 6
#     Node 20, Type 1, BuildingBlock: KUMJIN_clean_sbu_0, # of connection points: 6
#     Node 21, Type 1, BuildingBlock: KUMJIN_clean_sbu_0, # of connection points: 6
#     Node 22, Type 1, BuildingBlock: KUMJIN_clean_sbu_0, # of connection points: 6
#     Node 23, Type 1, BuildingBlock: KUMJIN_clean_sbu_0, # of connection points: 6
#     Node 24, Type 1, BuildingBlock: KUMJIN_clean_sbu_0, # of connection points: 6
#     Node 25, Type 1, BuildingBlock: KUMJIN_clean_sbu_0, # of connection points: 6
#     Node 26, Type 1, BuildingBlock: KUMJIN_clean_sbu_0, # of connection points: 6
#     Edge 27, Type (0, 1), BuildingBlock: XUDNAN_clean_linker_2, # of connection points: 2
#     Edge 28, Type (0, 1), BuildingBlock: XUDNAN_clean_linker_2, # of connection points: 2
#     Edge 29, Type (0, 1), BuildingBlock: XUDNAN_clean_linker_2, # of connection points: 2
#     Edge 30, Type (0, 1), BuildingBlock: XUDNAN_clean_linker_2, # of connection points: 2
#     Edge 31, Type (0, 1), BuildingBlock: XUDNAN_clean_linker_2, # of connection points: 2
#     Edge 32, Type (0, 1), BuildingBlock: XUDNAN_clean_linker_2, # of connection points: 2
#     Edge 33, Type (0, 1), BuildingBlock: XUDNAN_clean_linker_2, # of connection points: 2
#     Edge 34, Type (0, 1), BuildingBlock: XUDNAN_clean_linker_2, # of connection points: 2
#     Edge 35, Type (0, 1), BuildingBlock: XUDNAN_clean_linker_2, # of connection points: 2
#     Edge 36, Type (0, 1), BuildingBlock: XUDNAN_clean_linker_2, # of connection points: 2
#     Edge 37, Type (0, 1), BuildingBlock: XUDNAN_clean_linker_2, # of connection points: 2
#     Edge 38, Type (0, 1), BuildingBlock: XUDNAN_clean_linker_2, # of connection points: 2
#     Edge 39, Type (0, 1), BuildingBlock: XUDNAN_clean_linker_2, # of connection points: 2
#     Edge 40, Type (0, 1), BuildingBlock: XUDNAN_clean_linker_2, # of connection points: 2
#     Edge 41, Type (0, 1), BuildingBlock: XUDNAN_clean_linker_2, # of connection points: 2
#     Edge 42, Type (0, 1), BuildingBlock: XUDNAN_clean_linker_2, # of connection points: 2
#     Edge 43, Type (0, 1), BuildingBlock: XUDNAN_clean_linker_2, # of connection points: 2
#     Edge 44, Type (0, 1), BuildingBlock: XUDNAN_clean_linker_2, # of connection points: 2
#     Edge 45, Type (0, 1), BuildingBlock: XUDNAN_clean_linker_2, # of connection points: 2
#     Edge 46, Type (0, 1), BuildingBlock: XUDNAN_clean_linker_2, # of connection points: 2
#     Edge 47, Type (0, 1), BuildingBlock: XUDNAN_clean_linker_2, # of connection points: 2
#     Edge 48, Type (0, 1), BuildingBlock: XUDNAN_clean_linker_2, # of connection points: 2
#     Edge 49, Type (0, 1), BuildingBlock: XUDNAN_clean_linker_2, # of connection points: 2
#     Edge 50, Type (0, 1), BuildingBlock: XUDNAN_clean_linker_2, # of connection points: 2
#     Edge 51, Type (0, 1), BuildingBlock: XUDNAN_clean_linker_2, # of connection points: 2
#     Edge 52, Type (0, 1), BuildingBlock: XUDNAN_clean_linker_2, # of connection points: 2
#     Edge 53, Type (0, 1), BuildingBlock: XUDNAN_clean_linker_2, # of connection points: 2
#     Edge 54, Type (0, 1), BuildingBlock: XUDNAN_clean_linker_2, # of connection points: 2
#     Edge 55, Type (0, 1), BuildingBlock: XUDNAN_clean_linker_2, # of connection points: 2
#     Edge 56, Type (0, 1), BuildingBlock: XUDNAN_clean_linker_2, # of connection points: 2
#     Edge 57, Type (0, 1), BuildingBlock: XUDNAN_clean_linker_2, # of connection points: 2
#     Edge 58, Type (0, 1), BuildingBlock: XUDNAN_clean_linker_2, # of connection points: 2
#     Edge 59, Type (0, 1), BuildingBlock: XUDNAN_clean_linker_2, # of connection points: 2
#     Edge 60, Type (0, 1), BuildingBlock: XUDNAN_clean_linker_2, # of connection points: 2
#     Edge 61, Type (0, 1), BuildingBlock: XUDNAN_clean_linker_2, # of connection points: 2
#     Edge 62, Type (0, 1), BuildingBlock: XUDNAN_clean_linker_2, # of connection points: 2
#     Edge 63, Type (0, 1), BuildingBlock: XUDNAN_clean_linker_2, # of connection points: 2
#     Edge 64, Type (0, 1), BuildingBlock: XUDNAN_clean_linker_2, # of connection points: 2
#     Edge 65, Type (0, 1), BuildingBlock: XUDNAN_clean_linker_2, # of connection points: 2
#     Edge 66, Type (0, 1), BuildingBlock: XUDNAN_clean_linker_2, # of connection points: 2
#     Edge 67, Type (0, 1), BuildingBlock: XUDNAN_clean_linker_2, # of connection points: 2
#     Edge 68, Type (0, 1), BuildingBlock: XUDNAN_clean_linker_2, # of connection points: 2
#     Edge 69, Type (0, 1), BuildingBlock: XUDNAN_clean_linker_2, # of connection points: 2
#     Edge 70, Type (0, 1), BuildingBlock: XUDNAN_clean_linker_2, # of connection points: 2
#     Edge 71, Type (0, 1), BuildingBlock: XUDNAN_clean_linker_2, # of connection points: 2
#     Edge 72, Type (0, 1), BuildingBlock: XUDNAN_clean_linker_2, # of connection points: 2
#     Edge 73, Type (0, 1), BuildingBlock: XUDNAN_clean_linker_2, # of connection points: 2
#     Edge 74, Type (0, 1), BuildingBlock: XUDNAN_clean_linker_2, # of connection points: 2
#     Edge 75, Type (0, 1), BuildingBlock: XUDNAN_clean_linker_2, # of connection points: 2
#     Edge 76, Type (0, 1), BuildingBlock: XUDNAN_clean_linker_2, # of connection points: 2
#     Edge 77, Type (0, 1), BuildingBlock: XUDNAN_clean_linker_2, # of connection points: 2
#     Edge 78, Type (0, 1), BuildingBlock: XUDNAN_clean_linker_2, # of connection points: 2
#     Edge 79, Type (0, 1), BuildingBlock: XUDNAN_clean_linker_2, # of connection points: 2
#     Edge 80, Type (0, 1), BuildingBlock: XUDNAN_clean_linker_2, # of connection points: 2
# Relax obj value: 0.009
# Max RMSD: 0.095
# Mean RMSD: 0.062
data_MOF--net-eea--node1-KUMJIN_clean_sbu_0--node2-MIDCAF_clean_linker_0--edge1-XUDNAN_clean_linker_2
_symmetry_space_group_name_H-M    P1
_symmetry_Int_Tables_number       1
_symmetry_cell_setting            triclinic
loop_
_symmetry_equiv_pos_as_xyz
'x, y, z'
_cell_length_a     62.378146
_cell_length_b     63.477279
_cell_length_c     88.448048
_cell_angle_alpha  90.271964
_cell_angle_beta   90.267207
_cell_angle_gamma 120.0177
loop_
_atom_site_label
_atom_site_type_symbol
_atom_site_fract_x
_atom_site_fract_y
_atom_site_fract_z
_atom_type_partial_charge
C0 C 0.23314 0.0406 0.41729 0.0
C1 C 0.22092 0.03377 0.40321 0.0
C2 C 0.21778 0.05092 0.395 0.0
C3 C 0.22582 0.07414 0.40105 0.0
H4 H 0.23801 0.14224 0.39127 0.0
H5 H 0.22484 0.16648 0.37724 0.0
H6 H 0.2278 0.20539 0.41811 0.0
H7 H 0.24151 0.18108 0.43234 0.0
H8 H 0.27826 0.17375 0.46061 0.0
H9 H 0.30011 0.18228 0.48507 0.0
H10 H 0.28981 0.10983 0.48501 0.0
H11 H 0.26825 0.1012 0.46101 0.0
H12 H 0.25015 0.0681 0.43432 0.0
H13 H 0.23627 0.02792 0.42376 0.0
H14 H 0.20838 0.04613 0.38413 0.0
H15 H 0.22259 0.08676 0.39459 0.0
N16 N 0.24025 0.1209 0.41502 0.0
N17 N 0.25594 0.1479 0.43576 0.0
N18 N 0.25433 0.11016 0.43648 0.0
C19 C 0.24596 0.14255 0.42152 0.0
C20 C 0.26025 0.13165 0.44329 0.0
C21 C 0.24434 0.1046 0.42239 0.0
C22 C 0.24048 0.15943 0.41302 0.0
C23 C 0.23599 0.15599 0.39735 0.0
C24 C 0.22831 0.16985 0.38927 0.0
C25 C 0.22477 0.18752 0.3966 0.0
C26 C 0.23035 0.19187 0.41214 0.0
C27 C 0.23817 0.17794 0.42029 0.0
C28 C 0.27176 0.13691 0.45865 0.0
C29 C 0.28047 0.1596 0.4659 0.0
C30 C 0.29288 0.16447 0.47991 0.0
C31 C 0.29692 0.14681 0.48681 0.0
C32 C 0.28734 0.12393 0.47984 0.0
C33 C 0.27493 0.11903 0.46602 0.0
C34 C 0.23726 0.08067 0.41541 0.0
C35 C 0.2412 0.06372 0.42332 0.0
C36 C 0.97237 0.20025 0.40887 0.0
C37 C 0.97668 0.19392 0.39439 0.0
C38 C 0.9586 0.17182 0.38788 0.0
C39 C 0.93706 0.15618 0.39573 0.0
H40 H 0.87186 0.09419 0.38981 0.0
H41 H 0.84066 0.05802 0.37664 0.0
H42 H 0.79887 0.03232 0.41786 0.0
H43 H 0.83036 0.06856 0.43123 0.0
H44 H 0.85412 0.09959 0.4615 0.0
H45 H 0.84763 0.10653 0.48774 0.0
H46 H 0.9041 0.18205 0.48404 0.0
H47 H 0.91073 0.17518 0.45764 0.0
H48 H 0.94829 0.18973 0.42804 0.0
H49 H 0.986 0.21709 0.41425 0.0
H50 H 0.96114 0.16652 0.37667 0.0
H51 H 0.9238 0.13924 0.39031 0.0
N52 N 0.89304 0.12371 0.412 0.0
N53 N 0.8696 0.11157 0.43414 0.0
N54 N 0.90702 0.14888 0.43355 0.0
C55 C 0.87259 0.1071 0.41949 0.0
C56 C 0.88666 0.13239 0.44128 0.0
C57 C 0.91038 0.14461 0.41887 0.0
C58 C 0.85367 0.08451 0.41162 0.0
C59 C 0.85611 0.08089 0.39615 0.0
C60 C 0.8381 0.06014 0.38854 0.0
C61 C 0.81712 0.04234 0.39615 0.0
C62 C 0.81486 0.04561 0.41168 0.0
C63 C 0.83288 0.06649 0.41931 0.0
C64 C 0.88298 0.13681 0.45737 0.0
C65 C 0.86522 0.11771 0.46621 0.0
C66 C 0.86158 0.12164 0.48133 0.0
C67 C 0.8754 0.14482 0.48801 0.0
C68 C 0.89306 0.164 0.47919 0.0
C69 C 0.89694 0.16001 0.46408 0.0
C70 C 0.93295 0.16208 0.4104 0.0
C71 C 0.9508 0.18447 0.41681 0.0
C72 C 0.82026 0.78726 0.41082 0.0
C73 C 0.82862 0.80306 0.39839 0.0
C74 C 0.85303 0.81213 0.39346 0.0
C75 C 0.8687 0.80546 0.4007 0.0
H76 H 0.93623 0.80852 0.39573 0.0
H77 H 0.97189 0.81263 0.38179 0.0
H78 H 0.97611 0.7614 0.4118 0.0
H79 H 0.94067 0.75733 0.42582 0.0
H80 H 0.91574 0.75336 0.4589 0.0
H81 H 0.90709 0.73564 0.48395 0.0
H82 H 0.83738 0.73471 0.48409 0.0
H83 H 0.84629 0.75307 0.45907 0.0
H84 H 0.82903 0.76863 0.42775 0.0
H85 H 0.80159 0.78013 0.41495 0.0
H86 H 0.85995 0.82418 0.38384 0.0
H87 H 0.88737 0.81275 0.39651 0.0
N88 N 0.89797 0.78612 0.41357 0.0
N89 N 0.90778 0.76907 0.43402 0.0
N90 N 0.87189 0.77226 0.43466 0.0
C91 C 0.91331 0.77932 0.42009 0.0
C92 C 0.88721 0.76558 0.44145 0.0
C93 C 0.87719 0.78259 0.42071 0.0
C94 C 0.93549 0.78252 0.41189 0.0
C95 C 0.94478 0.79816 0.3994 0.0
C96 C 0.96528 0.80063 0.39144 0.0
C97 C 0.97667 0.78723 0.39565 0.0
C98 C 0.96752 0.77175 0.40819 0.0
C99 C 0.9473 0.76955 0.41628 0.0
C100 C 0.8817 0.75464 0.45683 0.0
C101 C 0.89853 0.74942 0.46421 0.0
C102 C 0.8935 0.73909 0.47861 0.0
C103 C 0.87145 0.73356 0.48608 0.0
C104 C 0.85468 0.73895 0.47878 0.0
C105 C 0.85974 0.74936 0.46435 0.0
C106 C 0.86045 0.78976 0.41319 0.0
C107 C 0.83605 0.78082 0.41821 0.0
C108 C 0.03919 0.22731 0.60519 0.0
C109 C 0.02991 0.21232 0.61791 0.0
C110 C 0.04205 0.20012 0.62313 0.0
C111 C 0.06352 0.20342 0.61597 0.0
H112 H 0.12467 0.1939 0.62142 0.0
H113 H 0.15319 0.18432 0.6345 0.0
H114 H 0.21036 0.22758 0.60252 0.0
H115 H 0.18186 0.23722 0.58934 0.0
H116 H 0.16069 0.24364 0.5559 0.0
H117 H 0.16757 0.25807 0.52985 0.0
H118 H 0.1031 0.26648 0.53211 0.0
H119 H 0.09588 0.25168 0.55786 0.0
H120 H 0.06703 0.24217 0.58821 0.0
H121 H 0.03005 0.23675 0.60085 0.0
H122 H 0.03529 0.18852 0.63295 0.0
H123 H 0.07269 0.19405 0.62036 0.0
N124 N 0.11197 0.21743 0.60295 0.0
N125 N 0.13848 0.2313 0.58202 0.0
N126 N 0.10138 0.23223 0.58167 0.0
C127 C 0.13336 0.2218 0.5962 0.0
C128 C 0.1225 0.23648 0.57465 0.0
C129 C 0.09593 0.2227 0.59578 0.0
C130 C 0.15089 0.21626 0.60426 0.0
C131 C 0.14332 0.20147 0.61717 0.0
C132 C 0.15963 0.19589 0.62465 0.0
C133 C 0.18399 0.20519 0.61953 0.0
C134 C 0.19175 0.22033 0.6068 0.0
C135 C 0.17534 0.22568 0.59919 0.0
C136 C 0.12761 0.24629 0.55902 0.0
C137 C 0.14801 0.24862 0.55086 0.0
C138 C 0.15203 0.257 0.53593 0.0
C139 C 0.13577 0.26323 0.52882 0.0
C140 C 0.11571 0.26136 0.5371 0.0
C141 C 0.11166 0.25298 0.55196 0.0
C142 C 0.07295 0.21864 0.6033 0.0
C143 C 0.06034 0.23031 0.59791 0.0
C144 C 0.76915 0.80416 0.59617 0.0
C145 C 0.7794 0.80646 0.61069 0.0
C146 C 0.78735 0.82822 0.61884 0.0
C147 C 0.78471 0.8471 0.6127 0.0
H148 H 0.7867 0.9116 0.62418 0.0
H149 H 0.79311 0.94641 0.63947 0.0
H150 H 0.77897 0.97805 0.60026 0.0
H151 H 0.77298 0.94366 0.58493 0.0
H152 H 0.7697 0.91681 0.55126 0.0
H153 H 0.75227 0.91326 0.52611 0.0
H154 H 0.70727 0.83534 0.53174 0.0
H155 H 0.72613 0.83894 0.55648 0.0
H156 H 0.75852 0.82047 0.57882 0.0
H157 H 0.76317 0.78777 0.58951 0.0
H158 H 0.79513 0.83047 0.6301 0.0
H159 H 0.79082 0.86351 0.61936 0.0
N160 N 0.77685 0.88483 0.6 0.0
N161 N 0.76545 0.9008 0.57965 0.0
N162 N 0.76207 0.86244 0.5774 0.0
C163 C 0.77404 0.90304 0.59405 0.0
C164 C 0.75937 0.88057 0.57129 0.0
C165 C 0.77104 0.86452 0.59171 0.0
C166 C 0.77924 0.92471 0.6033 0.0
C167 C 0.78514 0.92605 0.61878 0.0
C168 C 0.78866 0.94593 0.62758 0.0
C169 C 0.78649 0.96497 0.62109 0.0
C170 C 0.78106 0.96384 0.60558 0.0
C171 C 0.77747 0.94398 0.5968 0.0
C172 C 0.74925 0.87816 0.55583 0.0
C173 C 0.75619 0.89892 0.54704 0.0
C174 C 0.74598 0.89686 0.53264 0.0
C175 C 0.72804 0.87402 0.52681 0.0
C176 C 0.72129 0.85322 0.53563 0.0
C177 C 0.73199 0.85525 0.5499 0.0
C178 C 0.77418 0.84468 0.59823 0.0
C179 C 0.7666 0.82302 0.59002 0.0
C180 C 0.18273 0.96446 0.59671 0.0
C181 C 0.18389 0.96983 0.61222 0.0
C182 C 0.16467 0.95334 0.62158 0.0
C183 C 0.14536 0.93144 0.61563 0.0
H184 H 0.06782 0.87089 0.62085 0.0
H185 H 0.03363 0.84053 0.6362 0.0
H186 H 0.03327 0.78298 0.6099 0.0
H187 H 0.06683 0.81297 0.59442 0.0
H188 H 0.10029 0.82701 0.56333 0.0
H189 H 0.10634 0.81602 0.53769 0.0
H190 H 0.13918 0.89106 0.52436 0.0
H191 H 0.13392 0.90229 0.55003 0.0
H192 H 0.16369 0.93912 0.57881 0.0
H193 H 0.19692 0.97699 0.58912 0.0
H194 H 0.16504 0.95691 0.63359 0.0
H195 H 0.13129 0.91879 0.62324 0.0
N196 N 0.10692 0.88508 0.60258 0.0
N197 N 0.09426 0.85613 0.58292 0.0
N198 N 0.12881 0.8949 0.57976 0.0
C199 C 0.09087 0.86241 0.59707 0.0
C200 C 0.11307 0.87234 0.57416 0.0
C201 C 0.12607 0.90142 0.59398 0.0
C202 C 0.07012 0.84437 0.60643 0.0
C203 C 0.06038 0.85176 0.61833 0.0
C204 C 0.04074 0.83445 0.62704 0.0
C205 C 0.03091 0.80949 0.62421 0.0
C206 C 0.04059 0.80214 0.61233 0.0
C207 C 0.05979 0.81935 0.60345 0.0
C208 C 0.1166 0.86552 0.55869 0.0
C209 C 0.10887 0.84117 0.55494 0.0
C210 C 0.11245 0.83488 0.54034 0.0
C211 C 0.12325 0.85273 0.52915 0.0
C212 C 0.13084 0.87701 0.53284 0.0
C213 C 0.12784 0.8834 0.54751 0.0
C214 C 0.14486 0.92561 0.6002 0.0
C215 C 0.16353 0.9427 0.59079 0.0
C216 C 0.91211 0.37616 0.73741 0.0
C217 C 0.89938 0.37089 0.72353 0.0
C218 C 0.88866 0.3848 0.71908 0.0
C219 C 0.89137 0.40417 0.72815 0.0
H220 H 0.87354 0.46264 0.73349 0.0
H221 H 0.86476 0.49395 0.7246 0.0
H222 H 0.92599 0.54763 0.7516 0.0
H223 H 0.93358 0.51617 0.76109 0.0
H224 H 0.93667 0.49131 0.79424 0.0
H225 H 0.95203 0.49481 0.82006 0.0
H226 H 0.94879 0.42556 0.81508 0.0
H227 H 0.93312 0.42179 0.7894 0.0
H228 H 0.9248 0.39888 0.75706 0.0
H229 H 0.92027 0.36551 0.74122 0.0
H230 H 0.87877 0.38111 0.70841 0.0
H231 H 0.8833 0.41487 0.7243 0.0
N232 N 0.90365 0.44795 0.74581 0.0
N233 N 0.91857 0.47059 0.76835 0.0
N234 N 0.91835 0.43381 0.76552 0.0
C235 C 0.90872 0.46791 0.75424 0.0
C236 C 0.92328 0.45352 0.77413 0.0
C237 C 0.90861 0.43086 0.75136 0.0
C238 C 0.90404 0.48691 0.74813 0.0
C239 C 0.88505 0.48117 0.7375 0.0
C240 C 0.88013 0.49919 0.73234 0.0
C241 C 0.89442 0.52342 0.73749 0.0
C242 C 0.91399 0.52913 0.74772 0.0
C243 C 0.91852 0.51109 0.7531 0.0
C244 C 0.93349 0.45619 0.78969 0.0
C245 C 0.93926 0.47682 0.79861 0.0
C246 C 0.94822 0.47892 0.81341 0.0
C247 C 0.95153 0.46042 0.81966 0.0
C248 C 0.94609 0.43998 0.81069 0.0
C249 C 0.93721 0.4379 0.7959 0.0
C250 C 0.90455 0.40974 0.74194 0.0
C251 C 0.91457 0.39525 0.74652 0.0
C252 C 0.63957 0.52648 0.7419 0.0
C253 C 0.64638 0.517 0.72962 0.0
C254 C 0.63098 0.49242 0.72557 0.0
C255 C 0.60933 0.47765 0.73364 0.0
H256 H 0.54684 0.4074 0.73467 0.0
H257 H 0.51579 0.36715 0.72546 0.0
H258 H 0.46287 0.36706 0.75689 0.0
H259 H 0.49408 0.40656 0.76649 0.0
H260 H 0.52296 0.43648 0.79883 0.0
H261 H 0.51833 0.44903 0.82405 0.0
H262 H 0.57608 0.52256 0.81473 0.0
H263 H 0.58136 0.50977 0.78971 0.0
H264 H 0.61356 0.51955 0.75955 0.0
H265 H 0.65116 0.54528 0.74539 0.0
H266 H 0.63562 0.48463 0.71608 0.0
H267 H 0.59799 0.45879 0.73021 0.0
N268 N 0.56281 0.4489 0.74947 0.0
N269 N 0.53891 0.44206 0.77125 0.0
N270 N 0.57647 0.47862 0.76867 0.0
C271 C 0.5421 0.43431 0.75752 0.0
C272 C 0.55601 0.46413 0.77695 0.0
C273 C 0.58005 0.47115 0.75493 0.0
C274 C 0.52308 0.41017 0.75144 0.0
C275 C 0.52856 0.39875 0.73961 0.0
C276 C 0.51067 0.37568 0.73426 0.0
C277 C 0.48676 0.36357 0.74049 0.0
C278 C 0.4812 0.37537 0.75205 0.0
C279 C 0.49913 0.39821 0.75753 0.0
C280 C 0.55261 0.47207 0.79219 0.0
C281 C 0.53466 0.45535 0.80212 0.0
C282 C 0.5319 0.46261 0.81662 0.0
C283 C 0.54683 0.48686 0.82155 0.0
C284 C 0.56454 0.50363 0.81151 0.0
C285 C 0.56748 0.49632 0.79707 0.0
C286 C 0.60269 0.48701 0.74608 0.0
C287 C 0.61808 0.51165 0.75008 0.0
C288 C 0.47907 0.10937 0.73984 0.0
C289 C 0.48489 0.12523 0.72756 0.0
C290 C 0.5098 0.14002 0.72354 0.0
C291 C 0.52847 0.1382 0.73129 0.0
H292 H 0.6033 0.15445 0.72807 0.0
H293 H 0.6419 0.16534 0.71499 0.0
H294 H 0.64966 0.11219 0.741 0.0
H295 H 0.61128 0.10153 0.75435 0.0
H296 H 0.58545 0.0935 0.7886 0.0
H297 H 0.57878 0.07714 0.81406 0.0
H298 H 0.50877 0.07549 0.81573 0.0
H299 H 0.51512 0.09137 0.79013 0.0
H300 H 0.49249 0.09514 0.75699 0.0
H301 H 0.45998 0.09783 0.74318 0.0
H302 H 0.51472 0.1523 0.71407 0.0
H303 H 0.54747 0.14937 0.72769 0.0
N304 N 0.56365 0.12495 0.74386 0.0
N305 N 0.5766 0.11052 0.76433 0.0
N306 N 0.53798 0.10842 0.76494 0.0
C307 C 0.58096 0.1208 0.7504 0.0
C308 C 0.55522 0.10444 0.77176 0.0
C309 C 0.54204 0.11867 0.75101 0.0
C310 C 0.60424 0.12719 0.74231 0.0
C311 C 0.61318 0.14503 0.731 0.0
C312 C 0.63529 0.15132 0.72353 0.0
C313 C 0.6487 0.13955 0.72696 0.0
C314 C 0.63958 0.1214 0.73806 0.0
C315 C 0.61771 0.11546 0.74576 0.0
C316 C 0.55088 0.09387 0.78722 0.0
C317 C 0.56857 0.0896 0.79433 0.0
C318 C 0.56482 0.08034 0.80902 0.0
C319 C 0.54329 0.07508 0.81704 0.0
C320 C 0.52545 0.07906 0.80987 0.0
C321 C 0.52919 0.08833 0.79517 0.0
C322 C 0.5226 0.12191 0.74339 0.0
C323 C 0.49772 0.10789 0.74776 0.0
C324 C 0.70535 0.56401 0.93908 0.0
C325 C 0.69714 0.55002 0.95229 0.0
C326 C 0.70993 0.53846 0.95751 0.0
C327 C 0.73086 0.54134 0.94988 0.0
H328 H 0.78818 0.52684 0.95294 0.0
H329 H 0.81555 0.51556 0.96577 0.0
H330 H 0.87389 0.55902 0.93449 0.0
H331 H 0.84649 0.57042 0.92154 0.0
H332 H 0.82613 0.58063 0.88854 0.0
H333 H 0.83477 0.59871 0.86338 0.0
H334 H 0.77225 0.61001 0.86712 0.0
H335 H 0.76377 0.59236 0.89219 0.0
H336 H 0.73191 0.57777 0.92131 0.0
H337 H 0.69568 0.57288 0.93466 0.0
H338 H 0.70409 0.52764 0.96769 0.0
H339 H 0.74047 0.53243 0.95433 0.0
N340 N 0.77727 0.55269 0.93549 0.0
N341 N 0.80385 0.56712 0.91462 0.0
N342 N 0.76769 0.56985 0.91501 0.0
C343 C 0.79832 0.55658 0.92851 0.0
C344 C 0.78853 0.57374 0.90776 0.0
C345 C 0.76188 0.55932 0.92885 0.0
C346 C 0.81507 0.54954 0.93616 0.0
C347 C 0.80683 0.53406 0.94875 0.0
C348 C 0.82248 0.52747 0.95609 0.0
C349 C 0.84687 0.53639 0.95115 0.0
C350 C 0.85524 0.55202 0.93864 0.0
C351 C 0.83947 0.55839 0.93116 0.0
C352 C 0.79424 0.585 0.89248 0.0
C353 C 0.81427 0.58705 0.88403 0.0
C354 C 0.81916 0.5973 0.86956 0.0
C355 C 0.80427 0.60592 0.86323 0.0
C356 C 0.78435 0.60393 0.87171 0.0
C357 C 0.77938 0.59361 0.8861 0.0
C358 C 0.73927 0.55561 0.93675 0.0
C359 C 0.72607 0.56669 0.93138 0.0
C360 C 0.42714 0.13843 0.93982 0.0
C361 C 0.43765 0.14303 0.95439 0.0
C362 C 0.44669 0.16621 0.96087 0.0
C363 C 0.4445 0.1842 0.95311 0.0
H364 H 0.44724 0.24785 0.95996 0.0
H365 H 0.45322 0.28276 0.97454 0.0
H366 H 0.42835 0.30759 0.93653 0.0
H367 H 0.42256 0.2725 0.92163 0.0
H368 H 0.40629 0.2387 0.89021 0.0
H369 H 0.39255 0.23043 0.86374 0.0
H370 H 0.39493 0.16365 0.86515 0.0
H371 H 0.40878 0.17182 0.8912 0.0
H372 H 0.41662 0.15206 0.92088 0.0
H373 H 0.42036 0.12082 0.93445 0.0
H374 H 0.45483 0.17021 0.97211 0.0
H375 H 0.45124 0.20175 0.95853 0.0
N376 N 0.43403 0.21847 0.93798 0.0
N377 N 0.42188 0.23134 0.91636 0.0
N378 N 0.42174 0.19429 0.91615 0.0
C379 C 0.43009 0.23526 0.93098 0.0
C380 C 0.41772 0.21081 0.90885 0.0
C381 C 0.42991 0.19796 0.93068 0.0
C382 C 0.43426 0.25719 0.93957 0.0
C383 C 0.44299 0.26065 0.9546 0.0
C384 C 0.4463 0.28065 0.96306 0.0
C385 C 0.441 0.2978 0.95677 0.0
C386 C 0.43268 0.2947 0.94167 0.0
C387 C 0.42929 0.27455 0.93315 0.0
C388 C 0.40885 0.20605 0.89289 0.0
C389 C 0.40388 0.22226 0.88486 0.0
C390 C 0.3959 0.21749 0.86972 0.0
C391 C 0.39291 0.19651 0.8623 0.0
C392 C 0.39752 0.18021 0.87042 0.0
C393 C 0.40536 0.1849 0.88546 0.0
C394 C 0.43344 0.17941 0.93864 0.0
C395 C 0.42513 0.15641 0.93201 0.0
C396 C 0.85661 0.29248 0.93351 0.0
C397 C 0.85447 0.29788 0.94865 0.0
C398 C 0.83232 0.28284 0.95634 0.0
C399 C 0.81289 0.26256 0.94907 0.0
H400 H 0.73928 0.20877 0.95284 0.0
H401 H 0.70163 0.18188 0.96651 0.0
H402 H 0.68185 0.1264 0.93224 0.0
H403 H 0.71963 0.15337 0.91841 0.0
H404 H 0.75152 0.1714 0.88546 0.0
H405 H 0.75817 0.16693 0.85855 0.0
H406 H 0.82165 0.23945 0.85883 0.0
H407 H 0.81516 0.24405 0.88529 0.0
H408 H 0.83975 0.26884 0.91459 0.0
H409 H 0.87325 0.30396 0.92719 0.0
H410 H 0.83018 0.28649 0.96804 0.0
H411 H 0.79616 0.2512 0.95534 0.0
N412 N 0.77389 0.21978 0.93344 0.0
N413 N 0.75836 0.19577 0.91139 0.0
N414 N 0.79737 0.23114 0.91137 0.0
C415 C 0.75552 0.1999 0.92621 0.0
C416 C 0.77932 0.21151 0.90388 0.0
C417 C 0.79493 0.23544 0.9261 0.0
C418 C 0.73253 0.18327 0.93448 0.0
C419 C 0.727 0.19084 0.94818 0.0
C420 C 0.70534 0.17548 0.956 0.0
C421 C 0.6888 0.15206 0.95044 0.0
C422 C 0.69438 0.14431 0.93685 0.0
C423 C 0.71593 0.15982 0.92888 0.0
C424 C 0.78274 0.20809 0.8876 0.0
C425 C 0.76684 0.18638 0.87974 0.0
C426 C 0.77069 0.18377 0.86437 0.0
C427 C 0.79029 0.20294 0.85655 0.0
C428 C 0.80613 0.2245 0.86444 0.0
C429 C 0.80246 0.22703 0.87971 0.0
C430 C 0.81518 0.25703 0.93394 0.0
C431 C 0.83726 0.27235 0.92625 0.0
C432 C 0.59746 0.72319 0.0686 0.0
C433 C 0.58677 0.71855 0.05404 0.0
C434 C 0.58049 0.7351 0.04786 0.0
C435 C 0.58488 0.7558 0.05593 0.0
H436 H 0.59029 0.82075 0.04914 0.0
H437 H 0.57515 0.84452 0.03637 0.0
H438 H 0.5748 0.87829 0.0788 0.0
H439 H 0.59045 0.8546 0.09173 0.0
H440 H 0.62361 0.84725 0.11841 0.0
H441 H 0.63637 0.85424 0.14481 0.0
H442 H 0.62916 0.78303 0.14694 0.0
H443 H 0.61608 0.77578 0.12045 0.0
H444 H 0.61006 0.74704 0.08793 0.0
H445 H 0.60269 0.71088 0.07365 0.0
H446 H 0.57171 0.73188 0.03684 0.0
H447 H 0.57959 0.76795 0.05072 0.0
N448 N 0.59493 0.79881 0.07198 0.0
N449 N 0.6055 0.82259 0.09399 0.0
N450 N 0.60747 0.78654 0.09359 0.0
C451 C 0.59778 0.81883 0.07934 0.0
C452 C 0.61051 0.8066 0.10119 0.0
C453 C 0.59966 0.78256 0.07893 0.0
C454 C 0.59122 0.83545 0.07153 0.0
C455 C 0.5872 0.83334 0.05581 0.0
C456 C 0.57844 0.84693 0.04846 0.0
C457 C 0.57336 0.86293 0.05662 0.0
C458 C 0.57858 0.86609 0.07222 0.0
C459 C 0.58746 0.85247 0.07962 0.0
C460 C 0.61877 0.81092 0.11724 0.0
C461 C 0.62473 0.83302 0.12444 0.0
C462 C 0.63223 0.83714 0.13958 0.0
C463 C 0.63386 0.81923 0.14795 0.0
C464 C 0.6279 0.79711 0.14081 0.0
C465 C 0.62054 0.79303 0.1256 0.0
C466 C 0.59554 0.76054 0.0705 0.0
C467 C 0.60179 0.74397 0.07676 0.0
C468 C 0.30491 0.85811 0.07449 0.0
C469 C 0.3091 0.85062 0.06036 0.0
C470 C 0.29165 0.82753 0.05473 0.0
C471 C 0.27065 0.81216 0.06308 0.0
H472 H 0.21136 0.73276 0.0706 0.0
H473 H 0.17811 0.69343 0.06141 0.0
H474 H 0.12414 0.70978 0.08037 0.0
H475 H 0.15739 0.74778 0.09049 0.0
H476 H 0.21114 0.762 0.13242 0.0
H477 H 0.20217 0.76759 0.15833 0.0
H478 H 0.21526 0.8394 0.14721 0.0
H479 H 0.22607 0.83417 0.12143 0.0
H480 H 0.28144 0.84893 0.09382 0.0
H481 H 0.31814 0.87572 0.07919 0.0
H482 H 0.29419 0.82134 0.0438 0.0
H483 H 0.25773 0.79445 0.05837 0.0
N484 N 0.22685 0.78122 0.08012 0.0
N485 N 0.20435 0.77149 0.10263 0.0
N486 N 0.24187 0.80837 0.10083 0.0
C487 C 0.20663 0.76574 0.08819 0.0
C488 C 0.22188 0.79263 0.10904 0.0
C489 C 0.24453 0.80268 0.08632 0.0
C490 C 0.18684 0.74303 0.08139 0.0
C491 C 0.19231 0.72775 0.07274 0.0
C492 C 0.17319 0.70528 0.06741 0.0
C493 C 0.14822 0.69799 0.07031 0.0
C494 C 0.143 0.71408 0.07837 0.0
C495 C 0.16206 0.73608 0.08405 0.0
C496 C 0.21914 0.79761 0.12499 0.0
C497 C 0.21243 0.77911 0.13563 0.0
C498 C 0.207 0.78226 0.15045 0.0
C499 C 0.20729 0.80373 0.15491 0.0
C500 C 0.21494 0.82266 0.14431 0.0
C501 C 0.22106 0.8197 0.12951 0.0
C502 C 0.26659 0.81942 0.07734 0.0
C503 C 0.28394 0.84266 0.08291 0.0
C504 C 0.15163 0.4609 0.07504 0.0
C505 C 0.15073 0.45969 0.05918 0.0
C506 C 0.16851 0.4566 0.0514 0.0
C507 C 0.1868 0.45455 0.05933 0.0
H508 H 0.26663 0.48369 0.06036 0.0
H509 H 0.30579 0.4944 0.04814 0.0
H510 H 0.31341 0.44313 0.07622 0.0
H511 H 0.27439 0.43268 0.08879 0.0
H512 H 0.24708 0.42523 0.12191 0.0
H513 H 0.24066 0.41054 0.14771 0.0
H514 H 0.17501 0.4169 0.15044 0.0
H515 H 0.18108 0.43114 0.12438 0.0
H516 H 0.16966 0.45886 0.09527 0.0
H517 H 0.13789 0.46303 0.08125 0.0
H518 H 0.16802 0.45544 0.03916 0.0
H519 H 0.20006 0.45189 0.05295 0.0
N520 N 0.2272 0.45581 0.07638 0.0
N521 N 0.23988 0.44317 0.09779 0.0
N522 N 0.20213 0.44301 0.09794 0.0
C523 C 0.2442 0.45182 0.08343 0.0
C524 C 0.21894 0.43877 0.10517 0.0
C525 C 0.2061 0.4514 0.08349 0.0
C526 C 0.26743 0.4574 0.07561 0.0
C527 C 0.27652 0.47456 0.06389 0.0
C528 C 0.29895 0.48075 0.05691 0.0
C529 C 0.31252 0.46954 0.06124 0.0
C530 C 0.30317 0.45189 0.07263 0.0
C531 C 0.28096 0.44606 0.07987 0.0
C532 C 0.21468 0.42952 0.12098 0.0
C533 C 0.23123 0.42354 0.12795 0.0
C534 C 0.22763 0.41521 0.14284 0.0
C535 C 0.20741 0.41268 0.15127 0.0
C536 C 0.19066 0.4184 0.14427 0.0
C537 C 0.19424 0.42671 0.12932 0.0
C538 C 0.18737 0.45497 0.07524 0.0
C539 C 0.16966 0.45833 0.08303 0.0
C540 C 0.37543 0.85909 0.29094 0.0
C541 C 0.3613 0.86975 0.28672 0.0
C542 C 0.36965 0.88653 0.27479 0.0
C543 C 0.39146 0.89213 0.26706 0.0
H544 H 0.45921 0.85949 0.2885 0.0
H545 H 0.48803 0.84955 0.30081 0.0
H546 H 0.54381 0.89227 0.26796 0.0
H547 H 0.515 0.9023 0.25555 0.0
H548 H 0.49551 0.9126 0.22465 0.0
H549 H 0.50399 0.92777 0.19899 0.0
H550 H 0.43527 0.92873 0.19783 0.0
H551 H 0.4264 0.91297 0.22357 0.0
H552 H 0.40768 0.85629 0.28702 0.0
H553 H 0.36955 0.84622 0.30014 0.0
H554 H 0.35902 0.89491 0.27124 0.0
H555 H 0.39732 0.90496 0.25784 0.0
N556 N 0.44551 0.88239 0.27022 0.0
N557 N 0.47146 0.8969 0.2492 0.0
N558 N 0.4338 0.89695 0.24923 0.0
C559 C 0.46686 0.88726 0.2633 0.0
C560 C 0.45505 0.90174 0.24202 0.0
C561 C 0.42892 0.88725 0.26337 0.0
C562 C 0.48469 0.88166 0.27097 0.0
C563 C 0.47763 0.86688 0.28389 0.0
C564 C 0.49411 0.86106 0.29092 0.0
C565 C 0.51817 0.87008 0.28534 0.0
C566 C 0.52544 0.88519 0.2726 0.0
C567 C 0.50885 0.89079 0.26543 0.0
C568 C 0.46024 0.91154 0.22633 0.0
C569 C 0.48212 0.91602 0.21901 0.0
C570 C 0.4871 0.92489 0.20424 0.0
C571 C 0.47041 0.92963 0.19629 0.0
C572 C 0.44845 0.92507 0.20353 0.0
C573 C 0.44344 0.91618 0.21837 0.0
C574 C 0.40561 0.88142 0.2713 0.0
C575 C 0.39736 0.86496 0.28342 0.0
C576 C 0.11595 0.48413 0.27166 0.0
C577 C 0.12546 0.49024 0.28648 0.0
C578 C 0.12507 0.50967 0.29389 0.0
C579 C 0.11585 0.52296 0.28661 0.0
H580 H 0.1069 0.57972 0.29325 0.0
H581 H 0.11049 0.61433 0.30705 0.0
H582 H 0.08382 0.63524 0.26802 0.0
H583 H 0.08047 0.6004 0.25389 0.0
H584 H 0.0671 0.56616 0.22349 0.0
H585 H 0.05173 0.55591 0.19752 0.0
H586 H 0.05462 0.48946 0.20034 0.0
H587 H 0.07045 0.49984 0.22601 0.0
H588 H 0.0998 0.49248 0.25286 0.0
H589 H 0.11614 0.46935 0.26561 0.0
H590 H 0.13181 0.51457 0.30541 0.0
H591 H 0.11602 0.53787 0.29273 0.0
N592 N 0.0991 0.55164 0.27103 0.0
N593 N 0.08202 0.56004 0.24984 0.0
N594 N 0.08825 0.52644 0.24966 0.0
C595 C 0.09138 0.56577 0.26415 0.0
C596 C 0.08035 0.54031 0.24252 0.0
C597 C 0.09767 0.532 0.26393 0.0
C598 C 0.0933 0.58711 0.27241 0.0
C599 C 0.10172 0.59155 0.2875 0.0
C600 C 0.10364 0.61139 0.29551 0.0
C601 C 0.09719 0.6274 0.2887 0.0
C602 C 0.08899 0.62323 0.27356 0.0
C603 C 0.08697 0.60321 0.2655 0.0
C604 C 0.07022 0.53394 0.22687 0.0
C605 C 0.06443 0.54934 0.21858 0.0
C606 C 0.05548 0.54341 0.2037 0.0
C607 C 0.05209 0.52194 0.19678 0.0
C608 C 0.05748 0.50638 0.20518 0.0
C609 C 0.06646 0.51232 0.21999 0.0
C610 C 0.1067 0.51719 0.27169 0.0
C611 C 0.10669 0.49747 0.26433 0.0
C612 C 0.52606 0.62084 0.27125 0.0
C613 C 0.52123 0.63659 0.28001 0.0
C614 C 0.49637 0.62906 0.28348 0.0
C615 C 0.47699 0.60679 0.27795 0.0
H616 H 0.40637 0.53893 0.29052 0.0
H617 H 0.37246 0.50765 0.30562 0.0
H618 H 0.35878 0.45416 0.27104 0.0
H619 H 0.39197 0.48493 0.25593 0.0
H620 H 0.4164 0.50072 0.22458 0.0
H621 H 0.4231 0.48839 0.19979 0.0
H622 H 0.49378 0.55461 0.19702 0.0
H623 H 0.48697 0.56726 0.22177 0.0
H624 H 0.51128 0.58773 0.25848 0.0
H625 H 0.54483 0.62527 0.26878 0.0
H626 H 0.49176 0.6406 0.2901 0.0
H627 H 0.45805 0.60166 0.28054 0.0
N628 N 0.44127 0.55402 0.26946 0.0
N629 N 0.42711 0.52678 0.24885 0.0
N630 N 0.46503 0.56303 0.24735 0.0
C631 C 0.42375 0.53255 0.26314 0.0
C632 C 0.44755 0.54193 0.2408 0.0
C633 C 0.462 0.56928 0.26158 0.0
C634 C 0.40211 0.51451 0.27202 0.0
C635 C 0.39596 0.52055 0.28608 0.0
C636 C 0.37651 0.50272 0.2947 0.0
C637 C 0.36319 0.47851 0.28953 0.0
C638 C 0.3689 0.47267 0.27535 0.0
C639 C 0.38794 0.49041 0.26667 0.0
C640 C 0.45121 0.53495 0.22532 0.0
C641 C 0.43335 0.51278 0.21871 0.0
C642 C 0.43723 0.50563 0.20448 0.0
C643 C 0.45907 0.5204 0.19643 0.0
C644 C 0.47665 0.54287 0.20283 0.0
C645 C 0.47279 0.55004 0.2171 0.0
C646 C 0.48205 0.5919 0.26857 0.0
C647 C 0.50678 0.59908 0.26543 0.0
Eu648 Eu 0.48883 0.98326 0.98627 0.0
C649 C 0.54544 0.07249 0.02772 0.0
C650 C 0.58799 0.08217 0.02438 0.0
C651 C 0.5788 0.11465 0.02865 0.0
C652 C 0.56245 0.06484 0.02505 0.0
C653 C 0.55357 0.09741 0.02997 0.0
C654 C 0.59596 0.10705 0.02584 0.0
C655 C 0.51154 0.08639 0.03615 0.0
N656 N 0.52112 0.05554 0.02891 0.0
C657 C 0.50438 0.06193 0.03391 0.0
C658 C 0.53617 0.10426 0.03391 0.0
Eu659 Eu 0.51027 0.01486 0.02343 0.0
N660 N 0.55423 0.04059 0.0235 0.0
C661 C 0.57093 0.0326 0.02254 0.0
C662 C 0.60487 0.07402 0.02246 0.0
C663 C 0.59633 0.04914 0.0218 0.0
H664 H 0.48528 0.04806 0.03559 0.0
H665 H 0.60931 0.04264 0.02063 0.0
H666 H 0.61544 0.12056 0.02514 0.0
H667 H 0.49808 0.09144 0.03958 0.0
H668 H 0.56522 0.01361 0.02201 0.0
H669 H 0.38774 0.93815 0.98746 0.0
H670 H 0.62457 0.08676 0.0218 0.0
H671 H 0.52491 0.96147 0.97413 0.0
H672 H 0.43032 0.97265 0.9888 0.0
H673 H 0.52094 0.9223 0.96635 0.0
H674 H 0.58532 0.13388 0.03014 0.0
H675 H 0.38024 0.89676 0.98188 0.0
H676 H 0.39759 0.86976 0.9752 0.0
H677 H 0.5417 0.12321 0.03569 0.0
H678 H 0.43377 0.86547 0.96937 0.0
N679 N 0.44712 0.95121 0.98449 0.0
C680 C 0.42746 0.95482 0.98633 0.0
C681 C 0.39905 0.91191 0.98248 0.0
C682 C 0.4192 0.9085 0.97983 0.0
C683 C 0.4032 0.93523 0.98558 0.0
C684 C 0.44333 0.92881 0.98084 0.0
H685 H 0.47977 0.88497 0.96589 0.0
N686 N 0.48643 0.94645 0.97831 0.0
C687 C 0.50467 0.92316 0.96954 0.0
C688 C 0.46361 0.92636 0.9776 0.0
C689 C 0.50684 0.94534 0.97393 0.0
C690 C 0.4814 0.90213 0.96931 0.0
C691 C 0.46046 0.90359 0.97321 0.0
O692 O 0.50758 0.99526 0.96455 0.0
O693 O 0.51762 0.01601 0.9988 0.0
O694 O 0.49589 0.03519 0.00929 0.0
O695 O 0.47186 0.00705 0.99051 0.0
O696 O 0.53036 0.00077 0.98321 0.0
O697 O 0.4717 0.9921 0.96759 0.0
O698 O 0.50218 0.98816 0.04146 0.0
O699 O 0.48061 0.98344 0.01085 0.0
O700 O 0.49644 0.95956 1.00156 0.0
O701 O 0.52366 0.98759 0.01946 0.0
O702 O 0.46901 0.99991 0.02637 0.0
O703 O 0.51413 0.02524 0.04735 0.0
C704 C 0.53687 0.01856 0.99258 0.0
C705 C 0.48253 0.98663 0.94278 0.0
C706 C 0.48816 0.99234 0.9154 0.0
C707 C 0.49412 0.00166 0.9303 0.0
C708 C 0.47024 0.96765 0.91329 0.0
C709 C 0.46481 0.9621 0.94039 0.0
C710 C 0.45868 0.95272 0.9257 0.0
C711 C 0.4794 0.02754 0.99816 0.0
C712 C 0.48958 0.99681 0.95818 0.0
C713 C 0.43656 0.88315 0.97261 0.0
C714 C 0.41596 0.8856 0.97594 0.0
C715 C 0.46171 0.98173 0.01714 0.0
C716 C 0.48745 0.99532 0.06461 0.0
C717 C 0.49177 0.98712 0.07847 0.0
C718 C 0.47463 0.9804 0.09045 0.0
C719 C 0.4529 0.98155 0.0881 0.0
C720 C 0.46587 0.9968 0.06282 0.0
C721 C 0.44861 0.98963 0.0744 0.0
C722 C 0.51298 0.96595 0.0126 0.0
C723 C 0.50609 0.00342 0.05243 0.0
H724 H 0.50767 0.02066 0.93224 0.0
H725 H 0.46544 0.95971 0.90205 0.0
H726 H 0.45577 0.95023 0.94985 0.0
H727 H 0.44504 0.93374 0.92391 0.0
H728 H 0.50856 0.98623 0.07995 0.0
H729 H 0.43953 0.97703 0.09704 0.0
H730 H 0.46247 0.00399 0.05265 0.0
H731 H 0.43206 0.9909 0.07289 0.0
Eu732 Eu 0.02031 0.50956 0.99198 0.0
C733 C 0.91772 0.45722 0.02605 0.0
C734 C 0.90191 0.48496 0.02361 0.0
C735 C 0.87328 0.4415 0.02557 0.0
C736 C 0.92195 0.4806 0.02446 0.0
C737 C 0.89335 0.43741 0.02693 0.0
C738 C 0.87755 0.46524 0.0239 0.0
C739 C 0.91051 0.41125 0.03139 0.0
N740 N 0.9375 0.45394 0.02732 0.0
C741 C 0.93432 0.4315 0.03048 0.0
C742 C 0.88992 0.41417 0.02946 0.0
Eu743 Eu 0.97728 0.48874 0.02492 0.0
N744 N 0.94569 0.49917 0.02419 0.0
C745 C 0.95071 0.52274 0.02416 0.0
C746 C 0.90696 0.50902 0.02274 0.0
C747 C 0.93148 0.528 0.02321 0.0
H748 H 0.95019 0.42913 0.03188 0.0
H749 H 0.9356 0.5467 0.02277 0.0
H750 H 0.86192 0.4682 0.02312 0.0
H751 H 0.90807 0.39341 0.03353 0.0
H752 H 0.96954 0.53762 0.02443 0.0
H753 H 0.06959 0.45877 0.98906 0.0
H754 H 0.89211 0.51314 0.02198 0.0
H755 H 0.04261 0.56889 0.98545 0.0
H756 H 0.0332 0.46436 0.98884 0.0
H757 H 0.083 0.60663 0.9834 0.0
H758 H 0.85441 0.42649 0.02608 0.0
H759 H 0.1117 0.49454 0.99126 0.0
H760 H 0.13881 0.54007 0.992 0.0
H761 H 0.87149 0.39847 0.03019 0.0
H762 H 0.1425 0.58045 0.99028 0.0
N763 N 0.05433 0.50273 0.99171 0.0
C764 C 0.05145 0.48009 0.98996 0.0
C765 C 0.09577 0.49707 0.99128 0.0
C766 C 0.09867 0.52039 0.99188 0.0
C767 C 0.07204 0.47685 0.99 0.0
C768 C 0.0773 0.52265 0.99191 0.0
H769 H 0.12179 0.60539 0.98657 0.0
N770 N 0.05834 0.54651 0.9898 0.0
C771 C 0.08226 0.58952 0.98558 0.0
C772 C 0.07939 0.54529 0.99086 0.0
C773 C 0.0594 0.56809 0.98673 0.0
C774 C 0.10411 0.58875 0.98743 0.0
C775 C 0.10287 0.56641 0.98988 0.0
O776 O 0.0149 0.52095 0.96974 0.0
O777 O 0.98407 0.50181 1.00126 0.0
O778 O 0.96018 0.46009 0.00647 0.0
O779 O 0.99538 0.46812 0.99259 0.0
O780 O 1.00139 0.53183 0.98769 0.0
O781 O 0.01573 0.48737 0.97194 0.0
O782 O 0.98273 0.47711 0.04714 0.0
O783 O 0.01283 0.49479 0.01538 0.0
O784 O 0.03903 0.53643 0.01125 0.0
O785 O 0.00375 0.52982 0.02415 0.0
O786 O 0.99411 0.46489 0.02937 0.0
O787 O 0.98235 0.51088 0.04499 0.0
C788 C 0.98159 0.5184 0.99525 0.0
C789 C 0.02815 0.50786 0.9486 0.0
C790 C 0.0279 0.50282 0.9212 0.0
C791 C 0.0153 0.49758 0.93505 0.0
C792 C 0.05369 0.51862 0.92116 0.0
C793 C 0.05387 0.52342 0.9484 0.0
C794 C 0.06655 0.52875 0.9347 0.0
C795 C 0.97185 0.45383 0.99648 0.0
C796 C 0.01416 0.5025 0.96271 0.0
C797 C 0.12427 0.56441 0.99082 0.0
C798 C 0.12218 0.54143 0.99181 0.0
C799 C 0.01369 0.47719 0.02138 0.0
C800 C 0.97097 0.49101 0.06858 0.0
C801 C 0.98428 0.49409 0.08201 0.0
C802 C 0.97255 0.48945 0.09613 0.0
C803 C 0.94717 0.48197 0.09657 0.0
C804 C 0.94568 0.48338 0.06918 0.0
C805 C 0.93388 0.47896 0.08316 0.0
C806 C 0.02786 0.54275 0.02154 0.0
C807 C 0.98408 0.49581 0.05417 0.0
H808 H 0.99536 0.4858 0.93528 0.0
H809 H 0.06394 0.52287 0.9107 0.0
H810 H 0.06405 0.5315 0.95877 0.0
H811 H 0.08641 0.5408 0.93456 0.0
H812 H 0.00392 0.5003 0.08141 0.0
H813 H 0.93749 0.47802 0.10723 0.0
H814 H 0.93514 0.48086 0.05889 0.0
H815 H 0.91434 0.47304 0.08361 0.0
Eu816 Eu 0.51445 0.5005 0.02737 0.0
C817 C 0.43731 0.49531 0.9881 0.0
C818 C 0.41379 0.4579 0.97379 0.0
C819 C 0.39293 0.4781 0.98447 0.0
C820 C 0.4363 0.47596 0.98027 0.0
C821 C 0.41574 0.497 0.98986 0.0
C822 C 0.39195 0.45854 0.97646 0.0
C823 C 0.44135 0.53734 1.00025 0.0
N824 N 0.45973 0.5135 0.99286 0.0
C825 C 0.46218 0.53475 0.99835 0.0
C826 C 0.41795 0.51815 0.99632 0.0
Eu827 Eu 0.49401 0.50746 0.98963 0.0
N828 N 0.45781 0.47623 0.97761 0.0
C829 C 0.45867 0.46113 0.96683 0.0
C830 C 0.41419 0.44064 0.96407 0.0
C831 C 0.43684 0.44267 0.96026 0.0
H832 H 0.48005 0.54967 1.00158 0.0
H833 H 0.4375 0.43021 0.95215 0.0
H834 H 0.37441 0.44462 0.97177 0.0
H835 H 0.44335 0.55403 1.00491 0.0
H836 H 0.47627 0.46304 0.96368 0.0
H837 H 0.61398 0.5624 0.02247 0.0
H838 H 0.39732 0.42651 0.95883 0.0
H839 H 0.48627 0.44547 0.04324 0.0
H840 H 0.56997 0.5509 0.02401 0.0
H841 H 0.49515 0.41252 0.04939 0.0
H842 H 0.37613 0.47894 0.98587 0.0
H843 H 0.62604 0.53083 0.02443 0.0
H844 H 0.61341 0.48715 0.02943 0.0
H845 H 0.40184 0.52016 0.99787 0.0
H846 H 0.58087 0.44607 0.03666 0.0
N847 N 0.55716 0.51314 0.02647 0.0
C848 C 0.57498 0.53696 0.02496 0.0
C849 C 0.60669 0.52568 0.02511 0.0
C850 C 0.58844 0.50151 0.02765 0.0
C851 C 0.59997 0.54356 0.02407 0.0
C852 C 0.56352 0.49578 0.02838 0.0
H853 H 0.53673 0.41816 0.04445 0.0
N854 N 0.52194 0.46863 0.03414 0.0
C855 C 0.50937 0.42927 0.04447 0.0
C856 C 0.54528 0.47272 0.03235 0.0
C857 C 0.50439 0.44789 0.041 0.0
C858 C 0.53283 0.4325 0.04161 0.0
C859 C 0.55135 0.45468 0.03586 0.0
O860 O 0.49588 0.49323 0.0493 0.0
O861 O 0.48648 0.50569 0.01442 0.0
O862 O 0.51629 0.54542 0.99982 0.0
O863 O 0.52594 0.5402 0.02459 0.0
O864 O 0.47309 0.47689 0.02947 0.0
O865 O 0.53247 0.52401 0.047 0.0
O866 O 0.49797 0.53595 0.97411 0.0
O867 O 0.52647 0.51359 1.00383 0.0
O868 O 0.50144 0.46523 0.0142 0.0
O869 O 0.47737 0.46718 0.9944 0.0
O870 O 0.52067 0.49449 0.98374 0.0
O871 O 0.51138 0.51198 0.96753 0.0
C872 C 0.467 0.48885 0.02036 0.0
C873 C 0.52213 0.50415 0.07061 0.0
C874 C 0.51623 0.49608 0.09772 0.0
C875 C 0.5103 0.5038 0.08422 0.0
C876 C 0.53434 0.48907 0.09746 0.0
C877 C 0.54031 0.49728 0.07068 0.0
C878 C 0.54637 0.48982 0.08404 0.0
C879 C 0.52578 0.55388 0.01342 0.0
C880 C 0.51478 0.51073 0.05632 0.0
C881 C 0.57588 0.45979 0.03422 0.0
C882 C 0.59441 0.48319 0.03012 0.0
C883 C 0.53553 0.50423 0.9951 0.0
C884 C 0.49441 0.52447 0.94812 0.0
C885 C 0.50656 0.52279 0.93518 0.0
C886 C 0.49517 0.51817 0.92076 0.0
C887 C 0.47136 0.51539 0.9196 0.0
C888 C 0.47052 0.52124 0.94663 0.0
C889 C 0.45917 0.51682 0.93244 0.0
C890 C 0.48526 0.45534 1.00295 0.0
C891 C 0.50652 0.52861 0.96312 0.0
H892 H 0.49611 0.50891 0.08423 0.0
H893 H 0.53927 0.48312 0.1077 0.0
H894 H 0.54975 0.49756 0.06039 0.0
H895 H 0.56034 0.48447 0.08399 0.0
H896 H 0.52471 0.52461 0.93644 0.0
H897 H 0.46216 0.51237 0.90874 0.0
H898 H 0.46056 0.52204 0.95642 0.0
H899 H 0.44082 0.51451 0.93137 0.0
Eu900 Eu 0.15907 0.32119 0.32139 0.0
C901 C 0.21906 0.4077 0.36678 0.0
C902 C 0.2618 0.4173 0.36582 0.0
C903 C 0.25218 0.44905 0.37184 0.0
C904 C 0.2363 0.40049 0.36419 0.0
C905 C 0.22678 0.43199 0.37084 0.0
C906 C 0.26966 0.4417 0.36939 0.0
C907 C 0.18373 0.42031 0.37378 0.0
N908 N 0.19467 0.3907 0.36596 0.0
C909 C 0.17699 0.39641 0.36984 0.0
C910 C 0.20872 0.43824 0.37414 0.0
Eu911 Eu 0.18474 0.35089 0.3587 0.0
N912 N 0.22808 0.3767 0.36101 0.0
C913 C 0.24427 0.36817 0.36046 0.0
C914 C 0.27861 0.40893 0.36427 0.0
C915 C 0.26977 0.38419 0.36181 0.0
H916 H 0.15764 0.38263 0.3695 0.0
H917 H 0.28257 0.37742 0.36094 0.0
H918 H 0.28918 0.45493 0.37056 0.0
H919 H 0.16965 0.42488 0.37653 0.0
H920 H 0.23764 0.34906 0.35862 0.0
H921 H 0.06258 0.29916 0.32561 0.0
H922 H 0.29836 0.42129 0.36536 0.0
H923 H 0.18163 0.28743 0.30721 0.0
H924 H 0.10783 0.32581 0.32557 0.0
H925 H 0.16665 0.24487 0.29925 0.0
H926 H 0.25849 0.46784 0.37485 0.0
H927 H 0.0441 0.25514 0.32027 0.0
H928 H 0.05024 0.2202 0.31294 0.0
H929 H 0.2139 0.45672 0.37727 0.0
H930 H 0.07853 0.20541 0.30574 0.0
N931 N 0.11523 0.29718 0.32069 0.0
C932 C 0.10015 0.30669 0.32318 0.0
C933 C 0.06405 0.26678 0.32023 0.0
C934 C 0.07954 0.25737 0.31686 0.0
C935 C 0.07441 0.29162 0.32322 0.0
C936 C 0.10538 0.27329 0.31709 0.0
H937 H 0.12194 0.21454 0.30041 0.0
N938 N 0.14586 0.28102 0.31307 0.0
C939 C 0.15367 0.25024 0.30321 0.0
C940 C 0.12122 0.26494 0.31318 0.0
C941 C 0.16208 0.27431 0.30769 0.0
C942 C 0.12843 0.23316 0.30391 0.0
C943 C 0.1118 0.24048 0.30875 0.0
O944 O 0.17668 0.32939 0.29921 0.0
O945 O 0.1918 0.34936 0.33418 0.0
O946 O 0.18428 0.37861 0.34302 0.0
O947 O 0.15213 0.35254 0.32696 0.0
O948 O 0.19889 0.33087 0.31742 0.0
O949 O 0.14693 0.33668 0.30355 0.0
O950 O 0.16746 0.34369 0.38092 0.0
O951 O 0.15265 0.32171 0.34607 0.0
O952 O 0.164 0.2944 0.33577 0.0
O953 O 0.19304 0.3203 0.3538 0.0
O954 O 0.14408 0.33897 0.36258 0.0
O955 O 0.19759 0.33665 0.37687 0.0
C956 C 0.20879 0.34768 0.32763 0.0
C957 C 0.15219 0.32757 0.27831 0.0
C958 C 0.15473 0.33374 0.25089 0.0
C959 C 0.16345 0.34234 0.26568 0.0
C960 C 0.13431 0.31008 0.24908 0.0
C961 C 0.13188 0.30413 0.27621 0.0
C962 C 0.12299 0.2955 0.26166 0.0
C963 C 0.16721 0.37448 0.33268 0.0
C964 C 0.16225 0.33673 0.29355 0.0
C965 C 0.08613 0.22433 0.30897 0.0
C966 C 0.07003 0.23275 0.31305 0.0
C967 C 0.13477 0.32142 0.35282 0.0
C968 C 0.19238 0.34669 0.40187 0.0
C969 C 0.18113 0.33233 0.41461 0.0
C970 C 0.18973 0.34141 0.42932 0.0
C971 C 0.2101 0.36512 0.43096 0.0
C972 C 0.21262 0.37023 0.40376 0.0
C973 C 0.22146 0.37933 0.41826 0.0
C974 C 0.18024 0.29889 0.34683 0.0
C975 C 0.18228 0.33691 0.38677 0.0
H976 H 0.17895 0.36055 0.26745 0.0
H977 H 0.12733 0.30258 0.23794 0.0
H978 H 0.12301 0.29251 0.2858 0.0
H979 H 0.10738 0.27732 0.26009 0.0
H980 H 0.16569 0.31403 0.41301 0.0
H981 H 0.217 0.37292 0.44206 0.0
H982 H 0.22148 0.38156 0.39408 0.0
H983 H 0.23702 0.39757 0.41967 0.0
Eu984 Eu 0.69558 0.84653 0.32337 0.0
C985 C 0.59499 0.79272 0.35864 0.0
C986 C 0.57653 0.81812 0.35536 0.0
C987 C 0.55019 0.77449 0.35857 0.0
C988 C 0.59761 0.81542 0.35635 0.0
C989 C 0.57128 0.77208 0.36017 0.0
C990 C 0.55282 0.79747 0.35615 0.0
C991 C 0.59107 0.74865 0.36606 0.0
N992 N 0.61571 0.79102 0.36014 0.0
C993 C 0.61418 0.76963 0.36439 0.0
C994 C 0.56951 0.74978 0.36369 0.0
Eu995 Eu 0.65409 0.82713 0.35681 0.0
N996 N 0.62079 0.835 0.35565 0.0
C997 C 0.62422 0.85798 0.35506 0.0
C998 C 0.57994 0.84154 0.3539 0.0
C999 C 0.6039 0.86158 0.35395 0.0
H1000 H 0.63081 0.76866 0.36612 0.0
H1001 H 0.60674 0.8798 0.35307 0.0
H1002 H 0.53641 0.79915 0.35525 0.0
H1003 H 0.5899 0.73161 0.36908 0.0
H1004 H 0.64261 0.87363 0.35498 0.0
H1005 H 0.73544 0.78694 0.32719 0.0
H1006 H 0.56424 0.84439 0.35302 0.0
H1007 H 0.72401 0.90543 0.31429 0.0
H1008 H 0.70216 0.79669 0.32463 0.0
H1009 H 0.7666 0.94066 0.31288 0.0
H1010 H 0.5318 0.7588 0.35954 0.0
H1011 H 0.77912 0.81996 0.32859 0.0
H1012 H 0.80998 0.86468 0.32745 0.0
H1013 H 0.55163 0.73349 0.36495 0.0
H1014 H 0.8185 0.90657 0.32365 0.0
N1015 N 0.72647 0.83511 0.32488 0.0
C1016 C 0.72104 0.81141 0.32511 0.0
C1017 C 0.76455 0.82441 0.32739 0.0
C1018 C 0.77009 0.8486 0.32625 0.0
C1019 C 0.73992 0.80573 0.32658 0.0
C1020 C 0.75039 0.8534 0.32483 0.0
H1021 H 0.80247 0.93505 0.31803 0.0
N1022 N 0.73581 0.88065 0.32084 0.0
C1023 C 0.76367 0.92287 0.31579 0.0
C1024 C 0.7552 0.87693 0.32282 0.0
C1025 C 0.73964 0.90296 0.3166 0.0
C1026 C 0.78386 0.91964 0.31874 0.0
C1027 C 0.7798 0.89636 0.32201 0.0
O1028 O 0.69096 0.8247 0.3032 0.0
O1029 O 0.65944 0.8387 0.33276 0.0
O1030 O 0.63532 0.79724 0.33913 0.0
O1031 O 0.66915 0.80532 0.32397 0.0
O1032 O 0.67608 0.86804 0.3185 0.0
O1033 O 0.69395 0.85998 0.30094 0.0
O1034 O 0.6616 0.81756 0.37906 0.0
O1035 O 0.69061 0.8357 0.34752 0.0
O1036 O 0.71258 0.8773 0.34038 0.0
O1037 O 0.67894 0.86872 0.35601 0.0
O1038 O 0.67338 0.80537 0.36105 0.0
O1039 O 0.65585 0.84835 0.37683 0.0
C1040 C 0.65658 0.85484 0.32638 0.0
C1041 C 0.66715 0.82919 0.28412 0.0
C1042 C 0.64919 0.82237 0.25875 0.0
C1043 C 0.67005 0.83186 0.26841 0.0
C1044 C 0.6254 0.80997 0.26513 0.0
C1045 C 0.64329 0.81694 0.29024 0.0
C1046 C 0.62254 0.80728 0.28077 0.0
C1047 C 0.64581 0.79122 0.32823 0.0
C1048 C 0.689 0.83979 0.29412 0.0
C1049 C 0.79948 0.89184 0.32406 0.0
C1050 C 0.79463 0.86799 0.3262 0.0
C1051 C 0.69319 0.81915 0.35356 0.0
C1052 C 0.64533 0.82738 0.40011 0.0
C1053 C 0.65728 0.83814 0.41382 0.0
C1054 C 0.64456 0.83019 0.42753 0.0
C1055 C 0.61971 0.81155 0.42746 0.0
C1056 C 0.62036 0.80899 0.40014 0.0
C1057 C 0.60763 0.80115 0.41378 0.0
C1058 C 0.70155 0.88345 0.3508 0.0
C1059 C 0.65966 0.8346 0.38609 0.0
H1060 H 0.68855 0.84127 0.26375 0.0
H1061 H 0.60897 0.80278 0.25806 0.0
H1062 H 0.64075 0.81496 0.30233 0.0
H1063 H 0.60418 0.7979 0.28559 0.0
H1064 H 0.6766 0.85231 0.41387 0.0
H1065 H 0.60967 0.80519 0.43796 0.0
H1066 H 0.61083 0.80051 0.38969 0.0
H1067 H 0.58842 0.78685 0.41375 0.0
Eu1068 Eu 0.18122 0.82689 0.36235 0.0
C1069 C 0.13745 0.87479 0.3217 0.0
C1070 C 0.09321 0.8472 0.32305 0.0
C1071 C 0.10915 0.89057 0.31998 0.0
C1072 C 0.11768 0.85149 0.32343 0.0
C1073 C 0.13341 0.89453 0.31958 0.0
C1074 C 0.08908 0.86694 0.32171 0.0
C1075 C 0.17732 0.92012 0.31531 0.0
N1076 N 0.16064 0.87797 0.32135 0.0
C1077 C 0.18038 0.89996 0.31742 0.0
C1078 C 0.15379 0.9175 0.31665 0.0
Eu1079 Eu 0.16429 0.84302 0.32569 0.0
N1080 N 0.1223 0.83281 0.32453 0.0
C1081 C 0.10335 0.80929 0.32403 0.0
C1082 C 0.07364 0.82315 0.3235 0.0
C1083 C 0.07874 0.8041 0.32371 0.0
H1084 H 0.19859 0.90202 0.31642 0.0
H1085 H 0.06375 0.78542 0.32373 0.0
H1086 H 0.07043 0.86405 0.32159 0.0
H1087 H 0.19309 0.93767 0.31267 0.0
H1088 H 0.10712 0.79446 0.32429 0.0
H1089 H 0.27253 0.90877 0.37328 0.0
H1090 H 0.05457 0.81909 0.32327 0.0
H1091 H 0.16983 0.7683 0.36332 0.0
H1092 H 0.22777 0.88442 0.37455 0.0
H1093 H 0.192 0.74624 0.35868 0.0
H1094 H 0.10567 0.90554 0.31855 0.0
H1095 H 0.29723 0.89028 0.36511 0.0
H1096 H 0.29859 0.85293 0.3579 0.0
H1097 H 0.15147 0.93314 0.31498 0.0
H1098 H 0.27675 0.80862 0.35413 0.0
N1099 N 0.22548 0.85204 0.36515 0.0
C1100 C 0.23752 0.87582 0.37005 0.0
C1101 C 0.27721 0.87935 0.36526 0.0
C1102 C 0.26516 0.85454 0.36179 0.0
C1103 C 0.26333 0.88986 0.36978 0.0
C1104 C 0.23897 0.84109 0.36207 0.0
H1105 H 0.23719 0.76877 0.35461 0.0
N1106 N 0.2016 0.8036 0.36048 0.0
C1107 C 0.20197 0.76593 0.35865 0.0
C1108 C 0.22668 0.81618 0.35973 0.0
C1109 C 0.18939 0.77869 0.36101 0.0
C1110 C 0.22746 0.77869 0.35643 0.0
C1111 C 0.24024 0.80408 0.35733 0.0
O1112 O 0.16068 0.79828 0.37881 0.0
O1113 O 0.15028 0.82416 0.34775 0.0
O1114 O 0.17129 0.87328 0.34226 0.0
O1115 O 0.19065 0.86623 0.36275 0.0
O1116 O 0.15113 0.83436 0.37002 0.0
O1117 O 0.18677 0.83511 0.38662 0.0
O1118 O 0.18607 0.85248 0.30499 0.0
O1119 O 0.1911 0.83555 0.33811 0.0
O1120 O 0.15712 0.79159 0.34948 0.0
O1121 O 0.15049 0.80229 0.32535 0.0
O1122 O 0.20594 0.86728 0.32576 0.0
O1123 O 0.1476 0.82472 0.30419 0.0
C1124 C 0.13897 0.82947 0.35751 0.0
C1125 C 0.1713 0.80359 0.40524 0.0
C1126 C 0.1624 0.80202 0.43232 0.0
C1127 C 0.16444 0.81222 0.41791 0.0
C1128 C 0.16848 0.78353 0.43385 0.0
C1129 C 0.17725 0.78521 0.40699 0.0
C1130 C 0.17603 0.7754 0.4213 0.0
C1131 C 0.18345 0.87962 0.35527 0.0
C1132 C 0.17006 0.81309 0.39034 0.0
C1133 C 0.26613 0.81758 0.35626 0.0
C1134 C 0.27856 0.84278 0.35842 0.0
C1135 C 0.21115 0.85328 0.33356 0.0
C1136 C 0.16515 0.84679 0.28178 0.0
C1137 C 0.16864 0.83681 0.26846 0.0
C1138 C 0.16774 0.84626 0.25427 0.0
C1139 C 0.16332 0.86587 0.25357 0.0
C1140 C 0.16021 0.866 0.28086 0.0
C1141 C 0.1594 0.87554 0.2668 0.0
C1142 C 0.14899 0.78614 0.33534 0.0
C1143 C 0.16768 0.83744 0.29645 0.0
H1144 H 0.16035 0.82678 0.41637 0.0
H1145 H 0.16686 0.77488 0.44463 0.0
H1146 H 0.18249 0.77828 0.39732 0.0
H1147 H 0.18048 0.76106 0.42262 0.0
H1148 H 0.17243 0.82192 0.26916 0.0
H1149 H 0.16242 0.87338 0.24276 0.0
H1150 H 0.15709 0.8737 0.29095 0.0
H1151 H 0.1557 0.89045 0.26617 0.0
Eu1152 Eu 0.82897 0.64534 0.65709 0.0
C1153 C 0.86958 0.74476 0.69046 0.0
C1154 C 0.91411 0.76275 0.69216 0.0
C1155 C 0.89593 0.78878 0.69066 0.0
C1156 C 0.89024 0.74209 0.69117 0.0
C1157 C 0.87215 0.76813 0.69051 0.0
C1158 C 0.91688 0.78609 0.69152 0.0
C1159 C 0.82756 0.74896 0.69154 0.0
N1160 N 0.84689 0.72446 0.69058 0.0
C1161 C 0.82596 0.72619 0.69163 0.0
C1162 C 0.85075 0.77003 0.69088 0.0
Eu1163 Eu 0.84569 0.68658 0.69026 0.0
N1164 N 0.88691 0.71931 0.69196 0.0
C1165 C 0.90643 0.71594 0.69508 0.0
C1166 C 0.93441 0.75934 0.6943 0.0
C1167 C 0.9305 0.73583 0.696 0.0
H1168 H 0.80799 0.70994 0.69211 0.0
H1169 H 0.94599 0.733 0.69804 0.0
H1170 H 0.93509 0.80218 0.69207 0.0
H1171 H 0.81092 0.75026 0.69201 0.0
H1172 H 0.90356 0.69783 0.69653 0.0
H1173 H 0.7274 0.60244 0.65601 0.0
H1174 H 0.95306 0.77473 0.69509 0.0
H1175 H 0.8635 0.61929 0.64937 0.0
H1176 H 0.76984 0.63638 0.65525 0.0
H1177 H 0.85812 0.57816 0.6479 0.0
H1178 H 0.8983 0.80689 0.69054 0.0
H1179 H 0.71929 0.56024 0.6575 0.0
H1180 H 0.73582 0.53158 0.65756 0.0
H1181 H 0.85195 0.78766 0.69094 0.0
H1182 H 0.77128 0.52495 0.65551 0.0
N1183 N 0.7866 0.61422 0.65657 0.0
C1184 C 0.76707 0.61831 0.65572 0.0
C1185 C 0.73821 0.57518 0.65708 0.0
C1186 C 0.75813 0.57091 0.65699 0.0
C1187 C 0.74271 0.59896 0.6562 0.0
C1188 C 0.78246 0.59102 0.65656 0.0
H1189 H 0.81677 0.54211 0.65167 0.0
N1190 N 0.82565 0.60676 0.65442 0.0
C1191 C 0.84236 0.58045 0.65016 0.0
C1192 C 0.80251 0.58721 0.65552 0.0
C1193 C 0.84533 0.60376 0.65104 0.0
C1194 C 0.819 0.56015 0.65233 0.0
C1195 C 0.79863 0.56333 0.65474 0.0
O1196 O 0.8207 0.6324 0.63363 0.0
O1197 O 0.85778 0.67985 0.66784 0.0
O1198 O 0.83834 0.70363 0.66985 0.0
O1199 O 0.81035 0.66838 0.65696 0.0
O1200 O 0.87014 0.65913 0.65649 0.0
O1201 O 0.84445 0.6705 0.63807 0.0
O1202 O 0.86147 0.68449 0.71193 0.0
O1203 O 0.81865 0.65063 0.68027 0.0
O1204 O 0.84104 0.62859 0.67564 0.0
O1205 O 0.86131 0.66108 0.69284 0.0
O1206 O 0.8037 0.6677 0.69245 0.0
O1207 O 0.82662 0.68399 0.71148 0.0
C1208 C 0.87688 0.67894 0.66409 0.0
C1209 C 0.82037 0.65983 0.61578 0.0
C1210 C 0.8196 0.67329 0.58995 0.0
C1211 C 0.8314 0.66743 0.60151 0.0
C1212 C 0.79672 0.6717 0.59307 0.0
C1213 C 0.79745 0.65812 0.61851 0.0
C1214 C 0.78581 0.6642 0.60725 0.0
C1215 C 0.82027 0.69196 0.65986 0.0
C1216 C 0.833 0.65394 0.62775 0.0
C1217 C 0.77455 0.54339 0.6559 0.0
C1218 C 0.75436 0.54717 0.65704 0.0
C1219 C 0.79858 0.64804 0.68521 0.0
C1220 C 0.83117 0.65894 0.72925 0.0
C1221 C 0.83215 0.66076 0.74514 0.0
C1222 C 0.82162 0.63955 0.7541 0.0
C1223 C 0.81007 0.61666 0.7468 0.0
C1224 C 0.81974 0.63589 0.72236 0.0
C1225 C 0.80925 0.61492 0.73107 0.0
C1226 C 0.85464 0.63877 0.68799 0.0
C1227 C 0.84218 0.68081 0.71969 0.0
H1228 H 0.84922 0.66888 0.59948 0.0
H1229 H 0.78692 0.67571 0.58445 0.0
H1230 H 0.78855 0.65199 0.62933 0.0
H1231 H 0.76813 0.66288 0.60947 0.0
H1232 H 0.84129 0.67859 0.75045 0.0
H1233 H 0.80128 0.6 0.75324 0.0
H1234 H 0.81907 0.63416 0.7102 0.0
H1235 H 0.80036 0.59722 0.7256 0.0
Eu1236 Eu 0.359 0.17911 0.65735 0.0
C1237 C 0.25651 0.12822 0.69145 0.0
C1238 C 0.24279 0.15768 0.68964 0.0
C1239 C 0.21248 0.11458 0.69113 0.0
C1240 C 0.26197 0.15205 0.69022 0.0
C1241 C 0.23172 0.10922 0.69226 0.0
C1242 C 0.21801 0.13878 0.6898 0.0
C1243 C 0.24687 0.08131 0.69635 0.0
N1244 N 0.27551 0.12371 0.6925 0.0
C1245 C 0.27113 0.10079 0.69547 0.0
C1246 C 0.22705 0.08549 0.69455 0.0
Eu1247 Eu 0.31612 0.15727 0.69027 0.0
N1248 N 0.2861 0.16982 0.69004 0.0
C1249 C 0.29233 0.19374 0.69045 0.0
C1250 C 0.24909 0.18215 0.68918 0.0
C1251 C 0.27398 0.20026 0.6898 0.0
H1252 H 0.28641 0.09745 0.69676 0.0
H1253 H 0.27907 0.21925 0.68969 0.0
H1254 H 0.20302 0.14272 0.68921 0.0
H1255 H 0.24347 0.06309 0.69836 0.0
H1256 H 0.31147 0.20796 0.69081 0.0
H1257 H 0.40193 0.12257 0.6529 0.0
H1258 H 0.23492 0.18724 0.68863 0.0
H1259 H 0.38518 0.23885 0.65145 0.0
H1260 H 0.36756 0.13123 0.65319 0.0
H1261 H 0.42708 0.27501 0.64981 0.0
H1262 H 0.1933 0.10021 0.69158 0.0
H1263 H 0.44516 0.15624 0.65553 0.0
H1264 H 0.47485 0.20126 0.65703 0.0
H1265 H 0.20826 0.07037 0.69524 0.0
H1266 H 0.48175 0.24295 0.6563 0.0
N1267 N 0.39092 0.16924 0.65686 0.0
C1268 C 0.38631 0.14607 0.65451 0.0
C1269 C 0.43011 0.16012 0.65583 0.0
C1270 C 0.43481 0.18405 0.65707 0.0
C1271 C 0.40575 0.14108 0.65429 0.0
C1272 C 0.41455 0.18809 0.6575 0.0
H1273 H 0.46404 0.27061 0.65316 0.0
N1274 N 0.39845 0.21453 0.65607 0.0
C1275 C 0.42492 0.25728 0.65196 0.0
C1276 C 0.41846 0.21152 0.65709 0.0
C1277 C 0.40125 0.23681 0.65289 0.0
C1278 C 0.44573 0.25474 0.65394 0.0
C1279 C 0.44269 0.23159 0.65621 0.0
O1280 O 0.35549 0.19359 0.63569 0.0
O1281 O 0.32317 0.17173 0.66695 0.0
O1282 O 0.29779 0.12928 0.67155 0.0
O1283 O 0.3318 0.13793 0.65621 0.0
O1284 O 0.34108 0.20261 0.6542 0.0
O1285 O 0.35495 0.15929 0.63624 0.0
O1286 O 0.32068 0.14364 0.71203 0.0
O1287 O 0.35144 0.16289 0.68043 0.0
O1288 O 0.37863 0.20531 0.67691 0.0
O1289 O 0.34433 0.19804 0.69129 0.0
O1290 O 0.33106 0.1316 0.69306 0.0
O1291 O 0.32134 0.17803 0.71097 0.0
C1292 C 0.32109 0.18889 0.66154 0.0
C1293 C 0.37156 0.18356 0.61454 0.0
C1294 C 0.37739 0.18384 0.58722 0.0
C1295 C 0.3616 0.17701 0.59983 0.0
C1296 C 0.40316 0.19767 0.58957 0.0
C1297 C 0.3973 0.19722 0.61657 0.0
C1298 C 0.41298 0.20431 0.60414 0.0
C1299 C 0.30842 0.12367 0.6605 0.0
C1300 C 0.35509 0.17607 0.62772 0.0
C1301 C 0.46298 0.22775 0.65678 0.0
C1302 C 0.45905 0.20401 0.65718 0.0
C1303 C 0.351 0.14402 0.68539 0.0
C1304 C 0.30994 0.15716 0.73418 0.0
C1305 C 0.32406 0.16234 0.74747 0.0
C1306 C 0.31284 0.15796 0.76175 0.0
C1307 C 0.2871 0.14859 0.76247 0.0
C1308 C 0.28432 0.14773 0.73505 0.0
C1309 C 0.273 0.14353 0.74918 0.0
C1310 C 0.36832 0.21074 0.68821 0.0
C1311 C 0.32267 0.16217 0.71963 0.0
H1312 H 0.34172 0.16622 0.59823 0.0
H1313 H 0.41574 0.20342 0.5801 0.0
H1314 H 0.40531 0.20241 0.62772 0.0
H1315 H 0.43283 0.21492 0.60582 0.0
H1316 H 0.34394 0.17004 0.74663 0.0
H1317 H 0.2778 0.14477 0.77326 0.0
H1318 H 0.27319 0.14371 0.72487 0.0
H1319 H 0.2532 0.13622 0.74985 0.0
Eu1320 Eu 0.84764 0.1655 0.68834 0.0
C1321 C 0.76422 0.14745 0.64716 0.0
C1322 C 0.75002 0.11201 0.63101 0.0
C1323 C 0.72028 0.12201 0.64159 0.0
C1324 C 0.76922 0.13217 0.63871 0.0
C1325 C 0.73978 0.14309 0.64823 0.0
C1326 C 0.7254 0.10648 0.63295 0.0
C1327 C 0.75623 0.1825 0.66019 0.0
N1328 N 0.78358 0.16786 0.65308 0.0
C1329 C 0.78011 0.18593 0.65881 0.0
C1330 C 0.73589 0.16071 0.65523 0.0
Eu1331 Eu 0.82337 0.17171 0.6515 0.0
N1332 N 0.79322 0.13832 0.63694 0.0
C1333 C 0.79958 0.12685 0.62623 0.0
C1334 C 0.75629 0.09881 0.62102 0.0
C1335 C 0.78121 0.10663 0.61835 0.0
H1336 H 0.79569 0.20284 0.6627 0.0
H1337 H 0.78627 0.09721 0.61016 0.0
H1338 H 0.71032 0.09085 0.62732 0.0
H1339 H 0.75353 0.1966 0.66516 0.0
H1340 H 0.81884 0.13291 0.62411 0.0
H1341 H 0.94846 0.21204 0.68393 0.0
H1342 H 0.7421 0.08325 0.61483 0.0
H1343 H 0.81097 0.112 0.70553 0.0
H1344 H 0.90745 0.20872 0.68503 0.0
H1345 H 0.81192 0.07505 0.71283 0.0
H1346 H 0.70132 0.11812 0.6425 0.0
H1347 H 0.95234 0.17545 0.68731 0.0
H1348 H 0.9319 0.13086 0.69324 0.0
H1349 H 0.71743 0.15811 0.65627 0.0
H1350 H 0.89458 0.09341 0.70121 0.0
N1351 N 0.88794 0.17037 0.68807 0.0
C1352 C 0.90875 0.19251 0.68628 0.0
C1353 C 0.93421 0.17381 0.68757 0.0
C1354 C 0.91301 0.15146 0.69047 0.0
C1355 C 0.93211 0.19451 0.68574 0.0
C1356 C 0.88989 0.15041 0.69086 0.0
H1357 H 0.84984 0.07257 0.70886 0.0
N1358 N 0.84758 0.1299 0.69676 0.0
C1359 C 0.82806 0.09014 0.70781 0.0
C1360 C 0.86903 0.12948 0.69542 0.0
C1361 C 0.82758 0.11113 0.70363 0.0
C1362 C 0.84947 0.08879 0.70552 0.0
C1363 C 0.87051 0.10883 0.69958 0.0
O1364 O 0.8308 0.1692 0.70918 0.0
O1365 O 0.81863 0.17049 0.67646 0.0
O1366 O 0.83637 0.2059 0.66622 0.0
O1367 O 0.86706 0.20465 0.68023 0.0
O1368 O 0.8064 0.14309 0.69226 0.0
O1369 O 0.8703 0.18857 0.70714 0.0
O1370 O 0.82268 0.20033 0.63814 0.0
O1371 O 0.85674 0.17765 0.66456 0.0
O1372 O 0.83394 0.13024 0.67524 0.0
O1373 O 0.80794 0.13142 0.65631 0.0
O1374 O 0.85129 0.16111 0.64366 0.0
O1375 O 0.84643 0.18671 0.63139 0.0
C1376 C 0.79958 0.15435 0.68307 0.0
C1377 C 0.85369 0.17499 0.73149 0.0
C1378 C 0.84485 0.17412 0.7585 0.0
C1379 C 0.84323 0.18104 0.74359 0.0
C1380 C 0.85696 0.16072 0.76098 0.0
C1381 C 0.86545 0.16144 0.73423 0.0
C1382 C 0.86703 0.15436 0.74891 0.0
C1383 C 0.8566 0.21671 0.67476 0.0
C1384 C 0.85171 0.18257 0.71609 0.0
C1385 C 0.89313 0.1092 0.69824 0.0
C1386 C 0.91437 0.13051 0.6937 0.0
C1387 C 0.86583 0.16915 0.65527 0.0
C1388 C 0.82854 0.19836 0.61167 0.0
C1389 C 0.83797 0.19004 0.60002 0.0
C1390 C 0.83033 0.18911 0.58485 0.0
C1391 C 0.81303 0.19652 0.58153 0.0
C1392 C 0.81143 0.20581 0.60793 0.0
C1393 C 0.80371 0.20479 0.59298 0.0
C1394 C 0.8169 0.12004 0.66448 0.0
C1395 C 0.83697 0.20005 0.6276 0.0
H1396 H 0.83364 0.19098 0.7413 0.0
H1397 H 0.85907 0.15547 0.77228 0.0
H1398 H 0.87344 0.15639 0.72504 0.0
H1399 H 0.87628 0.14406 0.75097 0.0
H1400 H 0.85151 0.18465 0.60269 0.0
H1401 H 0.80642 0.19565 0.57007 0.0
H1402 H 0.804 0.2125 0.61655 0.0
H1403 H 0.79041 0.21044 0.59026 0.0
H1404 H 0.33071 0.89984 0.05543 0.0
H1405 H 0.33917 0.83728 0.04586 0.0
H1406 H 0.37763 0.86358 0.03196 0.0
H1407 H 0.35454 0.93041 0.01933 0.0
H1408 H 0.37011 0.96034 0.0278 0.0
H1409 H 0.34246 0.93639 0.03628 0.0
H1410 H 0.36611 0.94318 0.06173 0.0
H1411 H 0.39367 0.9672 0.05327 0.0
H1412 H 0.3944 0.942 0.06204 0.0
H1413 H 0.417 0.89711 0.02118 0.0
H1414 H 0.45381 0.93539 0.01365 0.0
H1415 H 0.419 0.97601 0.02893 0.0
C1416 C 0.34063 0.89168 0.05038 0.0
C1417 C 0.33188 0.86648 0.05169 0.0
C1418 C 0.34533 0.85647 0.04483 0.0
C1419 C 0.36723 0.87126 0.03695 0.0
C1420 C 0.37536 0.89602 0.03591 0.0
C1421 C 0.36244 0.90616 0.04237 0.0
C1422 C 0.37559 0.93341 0.03995 0.0
C1423 C 0.35972 0.94055 0.03026 0.0
C1424 C 0.38287 0.94725 0.05515 0.0
C1425 C 0.39816 0.93706 0.03141 0.0
C1426 C 0.39765 0.91525 0.02918 0.0
C1427 C 0.41732 0.91422 0.02255 0.0
C1428 C 0.43811 0.93607 0.01818 0.0
C1429 C 0.43883 0.95856 0.02013 0.0
C1430 C 0.41856 0.95897 0.02684 0.0
H1431 H 0.13993 0.49659 0.05619 0.0
H1432 H 0.11503 0.42186 0.04327 0.0
H1433 H 0.07918 0.41971 0.02977 0.0
H1434 H 0.08103 0.49023 0.06261 0.0
H1435 H 0.08835 0.51916 0.05466 0.0
H1436 H 0.11255 0.51508 0.06274 0.0
H1437 H 0.13627 0.52928 0.03774 0.0
H1438 H 0.11178 0.53218 0.02887 0.0
H1439 H 0.12224 0.51298 0.02047 0.0
H1440 H 0.04352 0.42364 0.02109 0.0
H1441 H 0.01156 0.43468 0.01545 0.0
H1442 H 0.06115 0.5084 0.03091 0.0
C1443 C 0.12696 0.47991 0.05038 0.0
C1444 C 0.13002 0.4593 0.05074 0.0
C1445 C 0.11289 0.43777 0.04304 0.0
C1446 C 0.09256 0.43642 0.03535 0.0
C1447 C 0.08994 0.45697 0.0352 0.0
C1448 C 0.10679 0.47844 0.04232 0.0
C1449 C 0.09925 0.49766 0.04055 0.0
C1450 C 0.09504 0.50601 0.05606 0.0
C1451 C 0.11852 0.51931 0.03136 0.0
C1452 C 0.07511 0.48333 0.0318 0.0
C1453 C 0.0701 0.45984 0.02893 0.0
C1454 C 0.04756 0.44217 0.02278 0.0
C1455 C 0.02955 0.44856 0.0196 0.0
C1456 C 0.03448 0.47259 0.02208 0.0
C1457 C 0.05759 0.49028 0.02815 0.0
H1458 H 0.56904 0.67208 0.0647 0.0
H1459 H 0.59239 0.71465 0.02358 0.0
H1460 H 0.57996 0.67729 0.0087 0.0
H1461 H 0.59004 0.62956 0.05369 0.0
H1462 H 0.56421 0.60408 0.06259 0.0
H1463 H 0.57585 0.63437 0.07005 0.0
H1464 H 0.53199 0.62909 0.06762 0.0
H1465 H 0.52028 0.59889 0.06004 0.0
H1466 H 0.51635 0.621 0.04953 0.0
H1467 H 0.5622 0.63491 0.99807 0.0
H1468 H 0.54321 0.59082 0.99277 0.0
H1469 H 0.53353 0.57642 0.04093 0.0
C1470 C 0.57204 0.67367 0.05261 0.0
C1471 C 0.58153 0.69634 0.04532 0.0
C1472 C 0.58474 0.69746 0.02942 0.0
C1473 C 0.57788 0.67635 0.02086 0.0
C1474 C 0.56809 0.65426 0.02837 0.0
C1475 C 0.56547 0.6528 0.04391 0.0
C1476 C 0.55409 0.62675 0.04917 0.0
C1477 C 0.57213 0.6235 0.05948 0.0
C1478 C 0.5292 0.61845 0.05705 0.0
C1479 C 0.55045 0.61379 0.03416 0.0
C1480 C 0.55854 0.62995 0.02228 0.0
C1481 C 0.55606 0.62209 0.00729 0.0
C1482 C 0.54515 0.59704 1.00439 0.0
C1483 C 0.53708 0.58023 0.01643 0.0
C1484 C 0.53984 0.58884 0.03148 0.0
H1485 H 0.85284 0.33202 0.9672 0.0
H1486 H 0.90356 0.31193 0.94716 0.0
H1487 H 0.93891 0.34877 0.95817 0.0
H1488 H 0.88915 0.39516 0.96103 0.0
H1489 H 0.88162 0.4042 0.97866 0.0
H1490 H 0.86002 0.37546 0.97006 0.0
H1491 H 0.85958 0.35287 0.99459 0.0
H1492 H 0.88071 0.38178 1.00319 0.0
H1493 H 0.88849 0.35801 1.00256 0.0
H1494 H 0.96873 0.38879 0.96979 0.0
H1495 H 0.99133 0.42914 0.98203 0.0
H1496 H 0.92147 0.42315 0.99515 0.0
C1497 C 0.87136 0.33515 0.96538 0.0
C1498 C 0.87545 0.31915 0.95627 0.0
C1499 C 0.9 0.3241 0.95393 0.0
C1500 C 0.92019 0.34489 0.96021 0.0
C1501 C 0.91556 0.3605 0.9689 0.0
C1502 C 0.89178 0.35585 0.97159 0.0
C1503 C 0.89204 0.37612 0.98089 0.0
C1504 C 0.88 0.38846 0.97213 0.0
C1505 C 0.87947 0.36661 0.99622 0.0
C1506 C 0.91968 0.39299 0.98279 0.0
C1507 C 0.93287 0.38358 0.97581 0.0
C1508 C 0.95864 0.39626 0.97544 0.0
C1509 C 0.9713 0.41924 0.98237 0.0
C1510 C 0.9582 0.42928 0.9896 0.0
C1511 C 0.93203 0.41584 0.98988 0.0
H1512 H 0.65734 0.50882 0.96386 0.0
H1513 H 0.68825 0.58677 0.95951 0.0
H1514 H 0.6517 0.58373 0.97223 0.0
H1515 H 0.59562 0.49247 0.95589 0.0
H1516 H 0.58193 0.46792 0.96925 0.0
H1517 H 0.61153 0.4764 0.96111 0.0
H1518 H 0.63055 0.48248 0.98793 0.0
H1519 H 0.6011 0.47436 0.99624 0.0
H1520 H 0.62814 0.50304 1.001 0.0
H1521 H 0.61076 0.57212 0.98335 0.0
H1522 H 0.56747 0.5524 0.99209 0.0
H1523 H 0.56258 0.48195 0.98962 0.0
C1524 C 0.65658 0.52529 0.96585 0.0
C1525 C 0.67564 0.54806 0.96069 0.0
C1526 C 0.67377 0.56913 0.96324 0.0
C1527 C 0.65318 0.56761 0.97056 0.0
C1528 C 0.63458 0.54489 0.97532 0.0
C1529 C 0.63603 0.52407 0.9731 0.0
C1530 C 0.61269 0.50172 0.97848 0.0
C1531 C 0.59968 0.48357 0.9654 0.0
C1532 C 0.61847 0.48969 0.9917 0.0
C1533 C 0.59769 0.51318 0.98369 0.0
C1534 C 0.61084 0.53816 0.98193 0.0
C1535 C 0.60046 0.55266 0.98508 0.0
C1536 C 0.57595 0.54135 0.99009 0.0
C1537 C 0.56219 0.51585 0.99204 0.0
C1538 C 0.57312 0.50158 0.9887 0.0
H1539 H 0.4768 0.14517 0.97026 0.0
H1540 H 0.40015 0.09638 0.95746 0.0
H1541 H 0.40158 0.06247 0.96994 0.0
H1542 H 0.49777 0.10443 0.96337 0.0
H1543 H 0.51905 0.11369 0.97915 0.0
H1544 H 0.51141 0.13496 0.97087 0.0
H1545 H 0.49749 0.14205 0.99705 0.0
H1546 H 0.50507 0.12071 0.00541 0.0
H1547 H 0.47441 0.11642 0.00745 0.0
H1548 H 0.41211 0.03333 0.98106 0.0
H1549 H 0.43134 0.01014 0.9904 0.0
H1550 H 0.50112 0.07721 0.99686 0.0
C1551 C 0.4602 0.12745 0.97042 0.0
C1552 C 0.43836 0.12333 0.96288 0.0
C1553 C 0.41712 0.09983 0.96304 0.0
C1554 C 0.41769 0.08053 0.9702 0.0
C1555 C 0.43958 0.08504 0.97726 0.0
C1556 C 0.46046 0.1079 0.97753 0.0
C1557 C 0.48212 0.10724 0.98495 0.0
C1558 C 0.50386 0.11557 0.97393 0.0
C1559 C 0.49025 0.12251 0.99959 0.0
C1560 C 0.47031 0.08033 0.98833 0.0
C1561 C 0.44568 0.06798 0.98393 0.0
C1562 C 0.43126 0.04279 0.98476 0.0
C1563 C 0.44237 0.02977 0.98999 0.0
C1564 C 0.46762 0.04194 0.99434 0.0
C1565 C 0.48164 0.06758 0.99384 0.0
H1566 H 0.66967 0.10388 0.95748 0.0
H1567 H 0.65561 0.16397 0.96199 0.0
H1568 H 0.61641 0.13707 0.97514 0.0
H1569 H 0.60841 0.05803 0.94977 0.0
H1570 H 0.61002 0.03485 0.96057 0.0
H1571 H 0.63767 0.05924 0.95245 0.0
H1572 H 0.65862 0.07012 0.97897 0.0
H1573 H 0.63092 0.04576 0.98716 0.0
H1574 H 0.64366 0.07636 0.99434 0.0
H1575 H 0.57697 0.10265 0.98573 0.0
H1576 H 0.54106 0.06362 0.9936 0.0
H1577 H 0.58163 0.02647 0.98321 0.0
C1578 C 0.65836 0.11136 0.96129 0.0
C1579 C 0.66563 0.13599 0.95871 0.0
C1580 C 0.65046 0.1452 0.96397 0.0
C1581 C 0.62818 0.13006 0.97143 0.0
C1582 C 0.62147 0.10584 0.97373 0.0
C1583 C 0.63622 0.09659 0.96893 0.0
C1584 C 0.62451 0.06977 0.97247 0.0
C1585 C 0.61988 0.05459 0.95795 0.0
C1586 C 0.64038 0.06525 0.98391 0.0
C1587 C 0.60048 0.06517 0.97949 0.0
C1588 C 0.59914 0.08623 0.98025 0.0
C1589 C 0.57805 0.08616 0.98548 0.0
C1590 C 0.5578 0.06396 0.99 0.0
C1591 C 0.55899 0.04227 0.98949 0.0
C1592 C 0.58057 0.04296 0.98411 0.0
H1593 H 0.89541 0.56557 0.96005 0.0
H1594 H 0.83544 0.49062 0.95973 0.0
H1595 H 0.86269 0.47807 0.9723 0.0
H1596 H 0.94408 0.5537 0.9521 0.0
H1597 H 0.96632 0.57714 0.96452 0.0
H1598 H 0.94178 0.58037 0.95613 0.0
H1599 H 0.92803 0.5859 0.98278 0.0
H1600 H 0.95251 0.5826 0.99125 0.0
H1601 H 0.92091 0.563 0.99692 0.0
H1602 H 0.8973 0.47326 0.98321 0.0
H1603 H 0.93635 0.47684 0.99243 0.0
H1604 H 0.9735 0.55502 0.98675 0.0
C1605 C 0.88804 0.54652 0.96263 0.0
C1606 C 0.8633 0.52905 0.9589 0.0
C1607 C 0.85426 0.50433 0.9626 0.0
C1608 C 0.86961 0.49703 0.96971 0.0
C1609 C 0.89391 0.51469 0.9732 0.0
C1610 C 0.90304 0.53895 0.96988 0.0
C1611 C 0.92995 0.55422 0.97469 0.0
C1612 C 0.9465 0.56711 0.96105 0.0
C1613 C 0.93302 0.57252 0.98715 0.0
C1614 C 0.9347 0.53467 0.98081 0.0
C1615 C 0.91363 0.51201 0.97993 0.0
C1616 C 0.91378 0.49098 0.98422 0.0
C1617 C 0.93603 0.4932 0.98955 0.0
C1618 C 0.95772 0.5163 0.99082 0.0
C1619 C 0.957 0.53722 0.98627 0.0
H1620 H 0.46173 0.34569 0.94834 0.0
H1621 H 0.42776 0.2973 0.98629 0.0
H1622 H 0.43534 0.33232 1.00232 0.0
H1623 H 0.50937 0.39483 0.96956 0.0
H1624 H 0.5084 0.41827 0.95867 0.0
H1625 H 0.49976 0.38934 0.94999 0.0
H1626 H 0.45689 0.38375 0.94236 0.0
H1627 H 0.46605 0.413 0.95071 0.0
H1628 H 0.4379 0.38649 0.95666 0.0
H1629 H 0.44798 0.37288 0.01453 0.0
H1630 H 0.46304 0.41597 0.02148 0.0
H1631 H 0.48832 0.43752 0.97564 0.0
C1632 C 0.45555 0.34241 0.95996 0.0
C1633 C 0.44423 0.31876 0.96607 0.0
C1634 C 0.43677 0.3153 0.98141 0.0
C1635 C 0.44089 0.33506 0.99059 0.0
C1636 C 0.45241 0.35816 0.98428 0.0
C1637 C 0.45951 0.36193 0.96929 0.0
C1638 C 0.47194 0.38865 0.96536 0.0
C1639 C 0.49897 0.39833 0.96062 0.0
C1640 C 0.4573 0.39323 0.95305 0.0
C1641 C 0.47056 0.39926 0.98044 0.0
C1642 C 0.45937 0.38143 0.99124 0.0
C1643 C 0.45663 0.38699 0.00614 0.0
C1644 C 0.46536 0.41144 0.01002 0.0
C1645 C 0.47648 0.4298 0.99903 0.0
C1646 C 0.47922 0.42364 0.98411 0.0
H1647 H 0.14566 0.67067 0.04496 0.0
H1648 H 0.10396 0.66924 0.08463 0.0
H1649 H 0.06889 0.63055 0.07592 0.0
H1650 H 0.09554 0.64383 0.01874 0.0
H1651 H 0.10636 0.62577 0.00927 0.0
H1652 H 0.12818 0.65394 0.01833 0.0
H1653 H 0.14512 0.63104 0.03418 0.0
H1654 H 0.12321 0.60285 0.02508 0.0
H1655 H 0.12404 0.6054 0.04541 0.0
H1656 H 0.0374 0.5935 0.06241 0.0
H1657 H 0.01293 0.55741 0.04649 0.0
H1658 H 0.0764 0.57922 0.01735 0.0
C1659 C 0.12937 0.66216 0.05198 0.0
C1660 C 0.12761 0.67363 0.06534 0.0
C1661 C 0.10568 0.6616 0.07405 0.0
C1662 C 0.08563 0.63937 0.06929 0.0
C1663 C 0.08787 0.62893 0.05599 0.0
C1664 C 0.10931 0.63957 0.04761 0.0
C1665 C 0.10695 0.62397 0.03395 0.0
C1666 C 0.10939 0.6377 0.0192 0.0
C1667 C 0.12596 0.6153 0.03471 0.0
C1668 C 0.08078 0.60298 0.03599 0.0
C1669 C 0.07006 0.60649 0.04865 0.0
C1670 C 0.04568 0.59033 0.05258 0.0
C1671 C 0.03191 0.56981 0.0434 0.0
C1672 C 0.04264 0.56528 0.03059 0.0
C1673 C 0.06751 0.58214 0.02693 0.0
H1674 H 0.32836 0.44111 0.04711 0.0
H1675 H 0.3518 0.5155 0.06017 0.0
H1676 H 0.39337 0.52894 0.04975 0.0
H1677 H 0.38483 0.44226 0.05523 0.0
H1678 H 0.3832 0.42413 0.03905 0.0
H1679 H 0.35518 0.42048 0.04724 0.0
H1680 H 0.34222 0.42866 0.02119 0.0
H1681 H 0.37055 0.43343 0.01275 0.0
H1682 H 0.36212 0.45671 0.01161 0.0
H1683 H 0.43329 0.53349 0.04057 0.0
H1684 H 0.46821 0.52964 0.03074 0.0
H1685 H 0.41844 0.4532 0.02128 0.0
C1686 C 0.34229 0.46021 0.04769 0.0
C1687 C 0.33702 0.47733 0.05446 0.0
C1688 C 0.35553 0.5022 0.05496 0.0
C1689 C 0.37915 0.50996 0.0491 0.0
C1690 C 0.38382 0.49268 0.04253 0.0
C1691 C 0.36586 0.46837 0.0416 0.0
C1692 C 0.37579 0.45362 0.03388 0.0
C1693 C 0.37469 0.43397 0.04448 0.0
C1694 C 0.36184 0.44244 0.01897 0.0
C1695 C 0.40229 0.47333 0.03101 0.0
C1696 C 0.40652 0.49569 0.03617 0.0
C1697 C 0.43004 0.51626 0.03604 0.0
C1698 C 0.4497 0.51397 0.03034 0.0
C1699 C 0.44562 0.49148 0.02446 0.0
C1700 C 0.42169 0.47084 0.02502 0.0
H1701 H 0.58401 0.91066 0.05916 0.0
H1702 H 0.53463 0.84185 0.03684 0.0
H1703 H 0.51431 0.86099 0.02332 0.0
H1704 H 0.53827 0.92972 0.06393 0.0
H1705 H 0.55984 0.96133 0.06031 0.0
H1706 H 0.57064 0.94233 0.06847 0.0
H1707 H 0.6023 0.95378 0.0468 0.0
H1708 H 0.59153 0.97274 0.03855 0.0
H1709 H 0.59156 0.94886 0.02745 0.0
H1710 H 0.49938 0.88682 0.01221 0.0
H1711 H 0.49011 0.91821 1.004 0.0
H1712 H 0.54899 0.97116 0.03315 0.0
C1713 C 0.56881 0.89964 0.0515 0.0
C1714 C 0.56106 0.87482 0.04893 0.0
C1715 C 0.54119 0.86099 0.03877 0.0
C1716 C 0.52942 0.87165 0.03111 0.0
C1717 C 0.53766 0.89615 0.03374 0.0
C1718 C 0.55682 0.91004 0.04369 0.0
C1719 C 0.56199 0.93608 0.04426 0.0
C1720 C 0.55741 0.94275 0.06019 0.0
C1721 C 0.58842 0.95392 0.03895 0.0
C1722 C 0.5428 0.93456 0.03304 0.0
C1723 C 0.529 0.9113 0.02716 0.0
C1724 C 0.51011 0.90515 0.01666 0.0
C1725 C 0.50512 0.92325 0.01199 0.0
C1726 C 0.51906 0.94737 0.01771 0.0
C1727 C 0.53811 0.953 0.02845 0.0
H1728 H 1.00185 0.24401 0.39118 0.0
H1729 H 0.00522 0.17929 0.37938 0.0
H1730 H 0.04445 0.2046 0.36601 0.0
H1731 H 0.02793 0.27624 0.35565 0.0
H1732 H 0.04503 0.30558 0.36477 0.0
H1733 H 0.01651 0.28233 0.37285 0.0
H1734 H 0.03933 0.28621 0.3982 0.0
H1735 H 0.06784 0.30946 0.39017 0.0
H1736 H 0.06631 0.28274 0.39827 0.0
H1737 H 0.08468 0.23687 0.3555 0.0
H1738 H 0.12285 0.27394 0.34828 0.0
H1739 H 0.09342 0.31822 0.36567 0.0
C1740 C 0.01085 0.23519 0.38577 0.0
C1741 C 1.00033 0.20959 0.38628 0.0
C1742 C 0.01267 0.19878 0.37897 0.0
C1743 C 0.03503 0.21302 0.37137 0.0
C1744 C 0.04484 0.23812 0.37105 0.0
C1745 C 0.03315 0.24916 0.37798 0.0
C1746 C 0.04803 0.27659 0.37614 0.0
C1747 C 0.0335 0.28572 0.3668 0.0
C1748 C 0.05584 0.28951 0.39162 0.0
C1749 C 0.07017 0.27924 0.36746 0.0
C1750 C 0.06784 0.25678 0.36457 0.0
C1751 C 0.08647 0.25453 0.35745 0.0
C1752 C 0.10811 0.27577 0.35326 0.0
C1753 C 0.11086 0.29903 0.35588 0.0
C1754 C 0.09157 0.30067 0.36313 0.0
H1755 H 0.7803 0.7736 0.38928 0.0
H1756 H 0.8396 0.84883 0.39006 0.0
H1757 H 0.81207 0.86111 0.37752 0.0
H1758 H 0.75521 0.77636 0.35242 0.0
H1759 H 0.72356 0.75633 0.35783 0.0
H1760 H 0.74811 0.75328 0.36642 0.0
H1761 H 0.73377 0.75812 0.39304 0.0
H1762 H 0.7091 0.76103 0.38456 0.0
H1763 H 0.73091 0.78445 0.39716 0.0
H1764 H 0.77713 0.86547 0.36639 0.0
H1765 H 0.7379 0.86123 0.35672 0.0
H1766 H 0.70188 0.78309 0.36231 0.0
C1767 C 0.78746 0.79266 0.38683 0.0
C1768 C 0.81208 0.81029 0.39067 0.0
C1769 C 0.82086 0.83501 0.38711 0.0
C1770 C 0.80535 0.84216 0.38002 0.0
C1771 C 0.78116 0.82434 0.37642 0.0
C1772 C 0.77231 0.80007 0.3796 0.0
C1773 C 0.74553 0.78455 0.37464 0.0
C1774 C 0.74296 0.76656 0.36208 0.0
C1775 C 0.72885 0.77126 0.38816 0.0
C1776 C 0.74049 0.80393 0.36858 0.0
C1777 C 0.76131 0.82677 0.36963 0.0
C1778 C 0.76084 0.84763 0.3653 0.0
C1779 C 0.73853 0.84505 0.35973 0.0
C1780 C 0.71714 0.82177 0.35832 0.0
C1781 C 0.71816 0.80104 0.36295 0.0
H1782 H 0.22334 0.01789 0.37443 0.0
H1783 H 0.19504 0.9924 0.41945 0.0
H1784 H 0.18009 0.95021 0.41121 0.0
H1785 H 0.17251 0.96502 0.35373 0.0
H1786 H 0.19311 0.96467 0.33964 0.0
H1787 H 0.19983 0.99296 0.34855 0.0
H1788 H 0.24305 1.0003 0.35666 0.0
H1789 H 0.23635 0.97201 0.34785 0.0
H1790 H 0.2452 0.97745 0.36753 0.0
H1791 H 0.17197 0.91199 0.3994 0.0
H1792 H 0.16926 0.87842 0.38398 0.0
H1793 H 0.20098 0.92699 0.3459 0.0
C1794 C 0.21357 0.00334 0.38244 0.0
C1795 C 0.21054 0.00842 0.39764 0.0
C1796 C 0.19794 0.98896 0.40785 0.0
C1797 C 0.18919 0.96493 0.40325 0.0
C1798 C 0.19294 0.96056 0.38834 0.0
C1799 C 0.20459 0.97908 0.378 0.0
C1800 C 0.20719 0.96918 0.36285 0.0
C1801 C 0.19227 0.9732 0.35046 0.0
C1802 C 0.23457 0.9804 0.35847 0.0
C1803 C 0.19581 0.94237 0.3665 0.0
C1804 C 0.18763 0.93795 0.38128 0.0
C1805 C 0.17793 0.9151 0.38775 0.0
C1806 C 0.17662 0.8962 0.37893 0.0
C1807 C 0.18476 0.90017 0.36377 0.0
C1808 C 0.19421 0.92346 0.35738 0.0
H1809 H 0.52574 0.66329 0.30624 0.0
H1810 H 0.56428 0.66595 0.26479 0.0
H1811 H 0.60007 0.70427 0.27324 0.0
H1812 H 0.54816 0.72894 0.3071 0.0
H1813 H 0.55057 0.73099 0.32744 0.0
H1814 H 0.52776 0.70311 0.31843 0.0
H1815 H 0.54546 0.67963 0.33286 0.0
H1816 H 0.5684 0.70753 0.34175 0.0
H1817 H 0.57787 0.68924 0.33122 0.0
H1818 H 0.6327 0.74093 0.28643 0.0
H1819 H 0.65857 0.77674 0.30227 0.0
H1820 H 0.59799 0.75402 0.33393 0.0
C1821 C 0.54153 0.67198 0.29882 0.0
C1822 C 0.54217 0.66089 0.28497 0.0
C1823 C 0.56342 0.67323 0.27571 0.0
C1824 C 0.58389 0.69526 0.28033 0.0
C1825 C 0.58284 0.70528 0.29412 0.0
C1826 C 0.56208 0.69442 0.30312 0.0
C1827 C 0.56572 0.70977 0.31719 0.0
C1828 C 0.54693 0.71873 0.31755 0.0
C1829 C 0.56428 0.6957 0.3316 0.0
C1830 C 0.59184 0.7307 0.31469 0.0
C1831 C 0.60137 0.7275 0.30139 0.0
C1832 C 0.62537 0.74379 0.29681 0.0
C1833 C 0.63998 0.76411 0.30598 0.0
C1834 C 0.63049 0.76836 0.31948 0.0
C1835 C 0.606 0.75131 0.32382 0.0
H1836 H 0.34522 0.89959 0.29875 0.0
H1837 H 0.32375 0.82376 0.29224 0.0
H1838 H 0.28405 0.81128 0.30499 0.0
H1839 H 0.31718 0.89144 0.33628 0.0
H1840 H 0.30757 0.91352 0.33311 0.0
H1841 H 0.33477 0.91677 0.3239 0.0
H1842 H 0.31639 0.91792 0.29776 0.0
H1843 H 0.28927 0.91491 0.30689 0.0
H1844 H 0.28612 0.89348 0.29238 0.0
H1845 H 0.24548 0.80696 0.31662 0.0
H1846 H 0.21126 0.81119 0.32722 0.0
H1847 H 0.25821 0.88966 0.3277 0.0
C1848 C 0.33213 0.88038 0.30003 0.0
C1849 C 0.33753 0.86261 0.29448 0.0
C1850 C 0.32005 0.83765 0.29649 0.0
C1851 C 0.29745 0.83039 0.3037 0.0
C1852 C 0.29269 0.84831 0.30906 0.0
C1853 C 0.30959 0.87279 0.30744 0.0
C1854 C 0.29973 0.8883 0.31417 0.0
C1855 C 0.31577 0.90341 0.32766 0.0
C1856 C 0.29776 0.90461 0.30208 0.0
C1857 C 0.27438 0.86873 0.31934 0.0
C1858 C 0.27076 0.84578 0.31635 0.0
C1859 C 0.24829 0.82483 0.31929 0.0
C1860 C 0.22901 0.8274 0.32541 0.0
C1861 C 0.23244 0.85072 0.32881 0.0
C1862 C 0.2554 0.87161 0.32565 0.0
H1863 H 0.10744 0.44077 0.28662 0.0
H1864 H 0.16758 0.50924 0.30382 0.0
H1865 H 0.1846 0.48707 0.31754 0.0
H1866 H 0.09887 0.40611 0.31996 0.0
H1867 H 0.0927 0.37877 0.31002 0.0
H1868 H 0.08535 0.39996 0.30126 0.0
H1869 H 0.11229 0.4032 0.2782 0.0
H1870 H 0.11963 0.38193 0.28686 0.0
H1871 H 0.14416 0.41139 0.28114 0.0
H1872 H 0.19493 0.45764 0.3296 0.0
H1873 H 0.19821 0.42285 0.33891 0.0
H1874 H 0.1314 0.37336 0.31388 0.0
C1875 C 0.12434 0.45111 0.29313 0.0
C1876 C 0.13609 0.47676 0.29421 0.0
C1877 C 0.15803 0.48958 0.30301 0.0
C1878 C 0.16793 0.47717 0.31078 0.0
C1879 C 0.15575 0.45191 0.3096 0.0
C1880 C 0.1345 0.439 0.30096 0.0
C1881 C 0.12494 0.41188 0.30174 0.0
C1882 C 0.09892 0.39839 0.30866 0.0
C1883 C 0.12529 0.4015 0.28605 0.0
C1884 C 0.14406 0.41161 0.31223 0.0
C1885 C 0.16168 0.43489 0.31661 0.0
C1886 C 0.18121 0.4393 0.32627 0.0
C1887 C 0.18282 0.41937 0.33157 0.0
C1888 C 0.16493 0.3953 0.32726 0.0
C1889 C 0.14534 0.39149 0.31744 0.0
H1890 H 0.32083 0.47469 0.30197 0.0
H1891 H 0.3628 0.43739 0.29794 0.0
H1892 H 0.32975 0.40187 0.31107 0.0
H1893 H 0.29253 0.44877 0.33936 0.0
H1894 H 0.26273 0.44512 0.33444 0.0
H1895 H 0.29059 0.46961 0.32646 0.0
H1896 H 0.27426 0.45558 0.29935 0.0
H1897 H 0.2458 0.43162 0.30693 0.0
H1898 H 0.2633 0.42444 0.29381 0.0
H1899 H 0.2904 0.3685 0.32049 0.0
H1900 H 0.2468 0.33916 0.3264 0.0
H1901 H 0.22958 0.39733 0.32576 0.0
C1902 C 0.32326 0.45928 0.30429 0.0
C1903 C 0.34439 0.45876 0.29905 0.0
C1904 C 0.34675 0.43809 0.30189 0.0
C1905 C 0.32814 0.4179 0.30941 0.0
C1906 C 0.30724 0.41863 0.3141 0.0
C1907 C 0.30465 0.43877 0.31175 0.0
C1908 C 0.27921 0.43374 0.31669 0.0
C1909 C 0.28138 0.45029 0.33004 0.0
C1910 C 0.2648 0.4365 0.3034 0.0
C1911 C 0.26766 0.40738 0.32157 0.0
C1912 C 0.28434 0.39918 0.32011 0.0
C1913 C 0.27737 0.37483 0.32213 0.0
C1914 C 0.25261 0.3583 0.32546 0.0
C1915 C 0.23521 0.3662 0.32704 0.0
C1916 C 0.24287 0.3911 0.32529 0.0
H1917 H 0.56737 0.89979 0.29279 0.0
H1918 H 0.5078 0.82472 0.29415 0.0
H1919 H 0.53629 0.81278 0.30566 0.0
H1920 H 0.61578 0.88783 0.28325 0.0
H1921 H 0.63881 0.9118 0.29503 0.0
H1922 H 0.61358 0.91455 0.2873 0.0
H1923 H 0.60181 0.92108 0.31428 0.0
H1924 H 0.62693 0.91821 0.32213 0.0
H1925 H 0.59578 0.89875 0.32864 0.0
H1926 H 0.57189 0.80859 0.31549 0.0
H1927 H 0.61148 0.81288 0.32417 0.0
H1928 H 0.64769 0.8908 0.3175 0.0
C1929 C 0.56035 0.88084 0.2955 0.0
C1930 C 0.53535 0.86316 0.29256 0.0
C1931 C 0.5268 0.83859 0.29643 0.0
C1932 C 0.54286 0.83162 0.30292 0.0
C1933 C 0.56739 0.84947 0.30561 0.0
C1934 C 0.57607 0.8736 0.30214 0.0
C1935 C 0.60329 0.88916 0.3062 0.0
C1936 C 0.61877 0.90156 0.2921 0.0
C1937 C 0.60717 0.90791 0.31855 0.0
C1938 C 0.60866 0.86995 0.3122 0.0
C1939 C 0.5877 0.84717 0.31177 0.0
C1940 C 0.5883 0.82641 0.31613 0.0
C1941 C 0.61087 0.82904 0.32117 0.0
C1942 C 0.63245 0.85228 0.32205 0.0
C1943 C 0.63131 0.87291 0.31732 0.0
H1944 H 0.11627 0.67485 0.2795 0.0
H1945 H 0.08332 0.62738 0.31796 0.0
H1946 H 0.09082 0.66266 0.33364 0.0
H1947 H 0.16401 0.72366 0.29944 0.0
H1948 H 0.16298 0.74727 0.28878 0.0
H1949 H 0.15318 0.71812 0.2801 0.0
H1950 H 0.11056 0.71369 0.27359 0.0
H1951 H 0.12032 0.74295 0.28219 0.0
H1952 H 0.0924 0.7165 0.28843 0.0
H1953 H 0.1054 0.70313 0.34579 0.0
H1954 H 0.12424 0.74634 0.3533 0.0
H1955 H 0.14637 0.76774 0.30688 0.0
C1956 C 0.1101 0.67182 0.29111 0.0
C1957 C 0.09932 0.64836 0.29752 0.0
C1958 C 0.09191 0.64522 0.31286 0.0
C1959 C 0.09595 0.66512 0.32184 0.0
C1960 C 0.10718 0.68806 0.3153 0.0
C1961 C 0.11392 0.69153 0.30026 0.0
C1962 C 0.12669 0.71829 0.29625 0.0
C1963 C 0.15329 0.72736 0.29083 0.0
C1964 C 0.11158 0.72314 0.28441 0.0
C1965 C 0.12652 0.72929 0.31147 0.0
C1966 C 0.11514 0.7115 0.32228 0.0
C1967 C 0.11405 0.71722 0.33738 0.0
C1968 C 0.12492 0.7418 0.34155 0.0
C1969 C 0.13662 0.76032 0.33066 0.0
C1970 C 0.13716 0.75392 0.3154 0.0
H1971 H 0.79191 0.9941 0.40489 0.0
H1972 H 0.79798 0.04197 0.36823 0.0
H1973 H 0.76708 0.00664 0.35347 0.0
H1974 H 0.78647 0.94575 0.38184 0.0
H1975 H 0.76434 0.92177 0.3937 0.0
H1976 H 0.7859 0.95092 0.40186 0.0
H1977 H 0.74943 0.95437 0.41301 0.0
H1978 H 0.72775 0.92521 0.40485 0.0
H1979 H 0.72508 0.95156 0.40063 0.0
H1980 H 0.73751 0.96629 0.342 0.0
H1981 H 0.71099 0.92307 0.33461 0.0
H1982 H 0.72299 0.90082 0.37857 0.0
C1983 C 0.78644 0.99717 0.39386 0.0
C1984 C 0.79751 0.02087 0.3877 0.0
C1985 C 0.79008 0.02402 0.37311 0.0
C1986 C 0.77238 0.00407 0.36467 0.0
C1987 C 0.76209 0.98098 0.37097 0.0
C1988 C 0.76875 0.97738 0.38523 0.0
C1989 C 0.75552 0.95047 0.38904 0.0
C1990 C 0.77417 0.94172 0.39177 0.0
C1991 C 0.73843 0.94509 0.40269 0.0
C1992 C 0.74067 0.93956 0.37461 0.0
C1993 C 0.74469 0.95756 0.36437 0.0
C1994 C 0.73401 0.95206 0.34997 0.0
C1995 C 0.71906 0.92754 0.34585 0.0
C1996 C 0.71491 0.90888 0.35608 0.0
C1997 C 0.72558 0.91491 0.3707 0.0
H1998 H 0.01872 0.82861 0.38658 0.0
H1999 H 0.98252 0.74984 0.38532 0.0
H2000 H 0.01855 0.75242 0.37211 0.0
H2001 H 0.05077 0.83955 0.34963 0.0
H2002 H 0.07843 0.86597 0.35654 0.0
H2003 H 0.04869 0.85835 0.36422 0.0
H2004 H 0.06446 0.85773 0.39126 0.0
H2005 H 0.09431 0.86572 0.38375 0.0
H2006 H 0.07781 0.83881 0.3951 0.0
H2007 H 0.05974 0.76329 0.36146 0.0
H2008 H 0.1041 0.7819 0.35507 0.0
H2009 H 0.1141 0.85358 0.36327 0.0
C2010 C 0.0182 0.81194 0.3832 0.0
C2011 C 0.9978 0.789 0.38691 0.0
C2012 C 0.99801 0.76758 0.38264 0.0
C2013 C 0.01829 0.76887 0.37503 0.0
C2014 C 0.03826 0.79173 0.37172 0.0
C2015 C 0.03843 0.81291 0.37568 0.0
C2016 C 0.06314 0.83513 0.37204 0.0
C2017 C 0.06007 0.85067 0.35988 0.0
C2018 C 0.07566 0.85022 0.38639 0.0
C2019 C 0.07708 0.8231 0.36591 0.0
C2020 C 0.0622 0.79805 0.36555 0.0
C2021 C 0.0714 0.78288 0.36135 0.0
C2022 C 0.09652 0.79356 0.35768 0.0
C2023 C 0.11206 0.81912 0.35812 0.0
C2024 C 0.10223 0.83404 0.36227 0.0
H2025 H 0.23913 0.23634 0.39757 0.0
H2026 H 0.18658 0.16776 0.37621 0.0
H2027 H 0.17011 0.18885 0.36087 0.0
H2028 H 0.19756 0.2609 0.39937 0.0
H2029 H 0.22154 0.29158 0.39544 0.0
H2030 H 0.22912 0.27107 0.40491 0.0
H2031 H 0.26159 0.27862 0.38432 0.0
H2032 H 0.25397 0.29902 0.37474 0.0
H2033 H 0.25215 0.27337 0.36472 0.0
H2034 H 0.1594 0.21718 0.34767 0.0
H2035 H 0.15445 0.25088 0.33806 0.0
H2036 H 0.21402 0.3012 0.36782 0.0
C2037 C 0.22401 0.22575 0.38977 0.0
C2038 C 0.21431 0.20042 0.388 0.0
C2039 C 0.19462 0.18724 0.37758 0.0
C2040 C 0.18504 0.19903 0.36885 0.0
C2041 C 0.19525 0.22402 0.37069 0.0
C2042 C 0.2142 0.23725 0.38093 0.0
C2043 C 0.22184 0.26398 0.38062 0.0
C2044 C 0.21723 0.27237 0.396 0.0
C2045 C 0.249 0.27967 0.37581 0.0
C2046 C 0.2043 0.26363 0.36858 0.0
C2047 C 0.18911 0.24041 0.36301 0.0
C2048 C 0.17125 0.23549 0.35191 0.0
C2049 C 0.16868 0.25481 0.34644 0.0
C2050 C 0.18398 0.2788 0.35203 0.0
C2051 C 0.20207 0.28314 0.36322 0.0
H2052 H 0.66451 0.56386 0.71967 0.0
H2053 H 0.68134 0.50534 0.72105 0.0
H2054 H 0.72118 0.53165 0.70837 0.0
H2055 H 0.69249 0.58745 0.68266 0.0
H2056 H 0.70386 0.61866 0.68817 0.0
H2057 H 0.67608 0.59474 0.69656 0.0
H2058 H 0.69541 0.60945 0.72328 0.0
H2059 H 0.72317 0.63335 0.71494 0.0
H2060 H 0.72494 0.61209 0.7276 0.0
H2061 H 0.76079 0.56558 0.69753 0.0
H2062 H 0.79609 0.60385 0.68832 0.0
H2063 H 0.75289 0.63975 0.69303 0.0
C2064 C 0.67655 0.55656 0.71725 0.0
C2065 C 0.66981 0.53252 0.72135 0.0
C2066 C 0.68599 0.52359 0.71787 0.0
C2067 C 0.70869 0.53843 0.71072 0.0
C2068 C 0.71485 0.56209 0.70695 0.0
C2069 C 0.69915 0.57103 0.70997 0.0
C2070 C 0.71036 0.59725 0.70501 0.0
C2071 C 0.69476 0.59965 0.69235 0.0
C2072 C 0.71367 0.61402 0.71852 0.0
C2073 C 0.73508 0.60187 0.69911 0.0
C2074 C 0.7373 0.58134 0.70027 0.0
C2075 C 0.75903 0.5816 0.69629 0.0
C2076 C 0.77894 0.60338 0.69097 0.0
C2077 C 0.77691 0.62452 0.68947 0.0
C2078 C 0.7547 0.62368 0.69368 0.0
H2079 H 0.47739 0.16348 0.72074 0.0
H2080 H 0.4468 0.08593 0.71397 0.0
H2081 H 0.41196 0.08392 0.69942 0.0
H2082 H 0.41945 0.1601 0.72697 0.0
H2083 H 0.42756 0.18827 0.71761 0.0
H2084 H 0.45134 0.18405 0.72621 0.0
H2085 H 0.47418 0.1945 0.7009 0.0
H2086 H 0.45005 0.19738 0.69153 0.0
H2087 H 0.45921 0.17639 0.68435 0.0
H2088 H 0.37868 0.089 0.68821 0.0
H2089 H 0.34781 0.10077 0.68122 0.0
H2090 H 0.39922 0.17539 0.6943 0.0
C2091 C 0.46351 0.14622 0.71594 0.0
C2092 C 0.46475 0.12483 0.71837 0.0
C2093 C 0.44609 0.10245 0.71223 0.0
C2094 C 0.42635 0.10118 0.70389 0.0
C2095 C 0.42545 0.12247 0.70181 0.0
C2096 C 0.44339 0.14457 0.70771 0.0
C2097 C 0.43674 0.16422 0.70482 0.0
C2098 C 0.43358 0.17477 0.71979 0.0
C2099 C 0.45619 0.18432 0.69479 0.0
C2100 C 0.41214 0.14959 0.69654 0.0
C2101 C 0.40614 0.12555 0.6949 0.0
C2102 C 0.38337 0.10784 0.68908 0.0
C2103 C 0.36598 0.11467 0.68513 0.0
C2104 C 0.37156 0.13906 0.68672 0.0
C2105 C 0.39503 0.15685 0.69233 0.0
H2106 H 0.85835 0.33344 0.70953 0.0
H2107 H 0.9375 0.36397 0.71564 0.0
H2108 H 0.9355 0.32971 0.70117 0.0
H2109 H 0.84226 0.27277 0.71479 0.0
H2110 H 0.81781 0.26004 0.70081 0.0
H2111 H 0.82569 0.28837 0.71002 0.0
H2112 H 0.83287 0.30926 0.68396 0.0
H2113 H 0.82497 0.28091 0.67466 0.0
H2114 H 0.85421 0.30782 0.67089 0.0
H2115 H 0.92465 0.29061 0.68882 0.0
H2116 H 0.90545 0.24858 0.67902 0.0
H2117 H 0.83324 0.24292 0.68007 0.0
C2118 C 0.8753 0.33314 0.70748 0.0
C2119 C 0.8981 0.35132 0.71367 0.0
C2120 C 0.91984 0.35012 0.71106 0.0
C2121 C 0.91891 0.33084 0.70278 0.0
C2122 C 0.89611 0.31293 0.6971 0.0
C2123 C 0.87467 0.31388 0.69925 0.0
C2124 C 0.85232 0.29124 0.6929 0.0
C2125 C 0.83341 0.27729 0.70537 0.0
C2126 C 0.84039 0.2977 0.67982 0.0
C2127 C 0.86451 0.27718 0.68724 0.0
C2128 C 0.88982 0.2902 0.68969 0.0
C2129 C 0.90493 0.2804 0.68659 0.0
C2130 C 0.89386 0.25651 0.68107 0.0
C2131 C 0.86797 0.24272 0.67864 0.0
C2132 C 0.85317 0.25335 0.68148 0.0
H2133 H 0.18513 0.00258 0.63352 0.0
H2134 H 0.23243 0.98699 0.60538 0.0
H2135 H 0.26911 0.02395 0.61506 0.0
H2136 H 0.21899 0.06734 0.62909 0.0
H2137 H 0.21481 0.07403 0.64832 0.0
H2138 H 0.19206 0.04598 0.63948 0.0
H2139 H 0.19706 0.02138 0.66123 0.0
H2140 H 0.21942 0.04954 0.6701 0.0
H2141 H 0.2275 0.02658 0.66593 0.0
H2142 H 0.30059 0.06289 0.62713 0.0
H2143 H 0.32511 0.10152 0.64101 0.0
H2144 H 0.25792 0.09229 0.6617 0.0
C2145 C 0.20323 0.00685 0.62951 0.0
C2146 C 0.20584 0.99193 0.61857 0.0
C2147 C 0.22987 0.9983 0.61353 0.0
C2148 C 0.25087 0.01919 0.61905 0.0
C2149 C 0.24765 0.0336 0.62967 0.0
C2150 C 0.22448 0.02776 0.63489 0.0
C2151 C 0.22631 0.04672 0.64616 0.0
C2152 C 0.2122 0.05926 0.64041 0.0
C2153 C 0.21703 0.03537 0.66178 0.0
C2154 C 0.25407 0.06413 0.64635 0.0
C2155 C 0.26597 0.05614 0.63677 0.0
C2156 C 0.29151 0.0693 0.63473 0.0
C2157 C 0.30528 0.0913 0.64266 0.0
C2158 C 0.29356 0.09998 0.65255 0.0
C2159 C 0.26756 0.08607 0.65441 0.0
H2160 H 0.98743 0.17059 0.62625 0.0
H2161 H 0.02299 0.24934 0.62723 0.0
H2162 H 0.98588 0.24653 0.63902 0.0
H2163 H 0.92784 0.15999 0.6161 0.0
H2164 H 0.91108 0.13311 0.62743 0.0
H2165 H 0.94122 0.14123 0.62034 0.0
H2166 H 0.95561 0.14022 0.64747 0.0
H2167 H 0.9261 0.13334 0.65517 0.0
H2168 H 0.95413 0.15963 0.66181 0.0
H2169 H 0.94427 0.2356 0.6484 0.0
H2170 H 0.90016 0.21695 0.6552 0.0
H2171 H 0.8908 0.14513 0.6486 0.0
C2172 C 0.98749 0.18719 0.62923 0.0
C2173 C 0.00806 0.21021 0.62588 0.0
C2174 C 0.00736 0.23156 0.62964 0.0
C2175 C 0.98644 0.23014 0.63641 0.0
C2176 C 0.96632 0.20722 0.63935 0.0
C2177 C 0.96658 0.18609 0.6359 0.0
C2178 C 0.94178 0.1638 0.63936 0.0
C2179 C 0.92978 0.14865 0.62495 0.0
C2180 C 0.94455 0.14833 0.65169 0.0
C2181 C 0.92751 0.17577 0.64506 0.0
C2182 C 0.94213 0.20084 0.64503 0.0
C2183 C 0.93277 0.21601 0.64881 0.0
C2184 C 0.90777 0.20529 0.6527 0.0
C2185 C 0.89254 0.17969 0.65298 0.0
C2186 C 0.90244 0.16474 0.64899 0.0
H2187 H 0.81836 0.80825 0.62668 0.0
H2188 H 0.7443 0.75823 0.60987 0.0
H2189 H 0.74692 0.72381 0.62062 0.0
H2190 H 0.84352 0.7689 0.61956 0.0
H2191 H 0.86259 0.77803 0.63638 0.0
H2192 H 0.8551 0.79899 0.6274 0.0
H2193 H 0.8364 0.80415 0.65251 0.0
H2194 H 0.84523 0.78409 0.66127 0.0
H2195 H 0.81353 0.77735 0.66216 0.0
H2196 H 0.75728 0.69493 0.63304 0.0
H2197 H 0.77465 0.67308 0.64656 0.0
H2198 H 0.84214 0.74143 0.65564 0.0
C2199 C 0.80263 0.79007 0.62538 0.0
C2200 C 0.78114 0.78592 0.61738 0.0
C2201 C 0.76108 0.76182 0.61575 0.0
C2202 C 0.76233 0.74217 0.62189 0.0
C2203 C 0.78378 0.74687 0.62964 0.0
C2204 C 0.80359 0.77018 0.63142 0.0
C2205 C 0.82457 0.77007 0.64011 0.0
C2206 C 0.84781 0.77956 0.63027 0.0
C2207 C 0.83022 0.78477 0.6549 0.0
C2208 C 0.81325 0.74309 0.64313 0.0
C2209 C 0.78978 0.73008 0.63689 0.0
C2210 C 0.77566 0.7049 0.63797 0.0
C2211 C 0.78578 0.69261 0.64561 0.0
C2212 C 0.80984 0.70545 0.65207 0.0
C2213 C 0.82366 0.73109 0.65087 0.0
H2214 H 0.98429 0.80231 0.62988 0.0
H2215 H 0.03335 0.77419 0.6399 0.0
H2216 H 1.00017 0.74065 0.65436 0.0
H2217 H 0.95034 0.78562 0.66581 0.0
H2218 H 0.92039 0.77585 0.65734 0.0
H2219 H 0.94804 0.79963 0.64872 0.0
H2220 H 0.9381 0.77632 0.62349 0.0
H2221 H 0.90965 0.75279 0.63138 0.0
H2222 H 0.93139 0.7452 0.62323 0.0
H2223 H 0.96113 0.70769 0.66455 0.0
H2224 H 0.91791 0.6768 0.67015 0.0
H2225 H 0.89311 0.72573 0.65457 0.0
C2226 C 0.98811 0.78938 0.63547 0.0
C2227 C 0.01139 0.79087 0.63394 0.0
C2228 C 0.01564 0.77334 0.64102 0.0
C2229 C 0.99696 0.75432 0.6493 0.0
C2230 C 0.97406 0.75304 0.6504 0.0
C2231 C 0.96946 0.77003 0.64369 0.0
C2232 C 0.94246 0.76301 0.64548 0.0
C2233 C 0.94015 0.78215 0.65491 0.0
C2234 C 0.92966 0.75909 0.62998 0.0
C2235 C 0.93256 0.73918 0.65395 0.0
C2236 C 0.95125 0.73394 0.65671 0.0
C2237 C 0.94646 0.71184 0.66284 0.0
C2238 C 0.9219 0.69441 0.66597 0.0
C2239 C 0.90248 0.6993 0.66327 0.0
C2240 C 0.90786 0.72207 0.65735 0.0
H2241 H 0.2326 0.23512 0.62815 0.0
H2242 H 0.17356 0.15974 0.62788 0.0
H2243 H 0.20174 0.14769 0.63967 0.0
H2244 H 0.28172 0.22456 0.61907 0.0
H2245 H 0.30415 0.24788 0.63147 0.0
H2246 H 0.27909 0.25087 0.62369 0.0
H2247 H 0.26596 0.25548 0.65072 0.0
H2248 H 0.291 0.25249 0.6586 0.0
H2249 H 0.25967 0.23236 0.66456 0.0
H2250 H 0.23692 0.14335 0.64942 0.0
H2251 H 0.27622 0.14722 0.65801 0.0
H2252 H 0.3125 0.22556 0.65336 0.0
C2253 C 0.22564 0.2161 0.63062 0.0
C2254 C 0.20089 0.19833 0.62711 0.0
C2255 C 0.19236 0.17365 0.63062 0.0
C2256 C 0.20825 0.16663 0.63726 0.0
C2257 C 0.23254 0.18454 0.6405 0.0
C2258 C 0.24118 0.2088 0.63745 0.0
C2259 C 0.26822 0.22432 0.64196 0.0
C2260 C 0.28423 0.23769 0.62823 0.0
C2261 C 0.27139 0.24222 0.65472 0.0
C2262 C 0.2736 0.20491 0.6476 0.0
C2263 C 0.2527 0.18212 0.64668 0.0
C2264 C 0.25327 0.16116 0.65049 0.0
C2265 C 0.27572 0.16357 0.65548 0.0
C2266 C 0.29723 0.18676 0.65695 0.0
C2267 C 0.29616 0.20766 0.65275 0.0
H2268 H 0.81089 0.01346 0.61386 0.0
H2269 H 0.76812 0.96332 0.64946 0.0
H2270 H 0.77119 0.99759 0.66457 0.0
H2271 H 0.85201 0.06333 0.63856 0.0
H2272 H 0.85313 0.08631 0.62618 0.0
H2273 H 0.84826 0.05794 0.61844 0.0
H2274 H 0.80752 0.05048 0.60536 0.0
H2275 H 0.81313 0.07921 0.61287 0.0
H2276 H 0.78418 0.05189 0.61658 0.0
H2277 H 0.77839 0.03747 0.67563 0.0
H2278 H 0.7897 0.08002 0.68172 0.0
H2279 H 0.82692 0.10353 0.63873 0.0
C2280 C 0.80209 0.00965 0.62482 0.0
C2281 C 0.78925 0.98569 0.63048 0.0
C2282 C 0.77832 0.98156 0.64497 0.0
C2283 C 0.77982 0.00088 0.65359 0.0
C2284 C 0.79237 0.02423 0.64758 0.0
C2285 C 0.80342 0.02869 0.63356 0.0
C2286 C 0.81581 0.05542 0.62966 0.0
C2287 C 0.84397 0.06639 0.62812 0.0
C2288 C 0.80445 0.05946 0.61527 0.0
C2289 C 0.80955 0.06523 0.64353 0.0
C2290 C 0.79621 0.04701 0.65382 0.0
C2291 C 0.78877 0.05185 0.66764 0.0
C2292 C 0.79525 0.07596 0.67102 0.0
C2293 C 0.80879 0.09469 0.66057 0.0
C2294 C 0.81599 0.08928 0.6467 0.0
H2295 H 0.47852 0.34377 0.71151 0.0
H2296 H 0.45193 0.32633 0.75765 0.0
H2297 H 0.41919 0.28592 0.74917 0.0
H2298 H 0.41991 0.31283 0.69284 0.0
H2299 H 0.43019 0.30147 0.67743 0.0
H2300 H 0.45177 0.32935 0.68694 0.0
H2301 H 0.4805 0.31175 0.69262 0.0
H2302 H 0.459 0.28387 0.68307 0.0
H2303 H 0.46824 0.28311 0.7023 0.0
H2304 H 0.38809 0.24818 0.73575 0.0
H2305 H 0.36238 0.21432 0.71844 0.0
H2306 H 0.41036 0.2543 0.68129 0.0
C2307 C 0.46606 0.3314 0.7199 0.0
C2308 C 0.46773 0.33861 0.73526 0.0
C2309 C 0.45077 0.32172 0.74576 0.0
C2310 C 0.43217 0.29855 0.74108 0.0
C2311 C 0.43086 0.29223 0.72589 0.0
C2312 C 0.4475 0.30798 0.71546 0.0
C2313 C 0.442 0.29637 0.69981 0.0
C2314 C 0.43558 0.31087 0.6886 0.0
C2315 C 0.46373 0.29361 0.69412 0.0
C2316 C 0.41954 0.27179 0.7031 0.0
C2317 C 0.41338 0.26992 0.71821 0.0
C2318 C 0.39283 0.2494 0.72391 0.0
C2319 C 0.37817 0.23027 0.71391 0.0
C2320 C 0.38416 0.23156 0.69839 0.0
C2321 C 0.40531 0.25259 0.69302 0.0
H2322 H 0.66317 0.11015 0.71268 0.0
H2323 H 0.68817 0.1854 0.72437 0.0
H2324 H 0.72888 0.19778 0.71296 0.0
H2325 H 0.71933 0.11097 0.72005 0.0
H2326 H 0.7167 0.09179 0.70423 0.0
H2327 H 0.68923 0.08901 0.71271 0.0
H2328 H 0.67517 0.09614 0.68663 0.0
H2329 H 0.70282 0.09953 0.67797 0.0
H2330 H 0.69521 0.1233 0.67626 0.0
H2331 H 0.76805 0.20135 0.70274 0.0
H2332 H 0.80199 0.19631 0.69238 0.0
H2333 H 0.75106 0.1193 0.68561 0.0
C2334 C 0.67721 0.12923 0.71274 0.0
C2335 C 0.67261 0.14686 0.71942 0.0
C2336 C 0.69132 0.17167 0.71921 0.0
C2337 C 0.71448 0.17885 0.71279 0.0
C2338 C 0.7185 0.16103 0.70638 0.0
C2339 C 0.7003 0.13677 0.7061 0.0
C2340 C 0.70952 0.12129 0.69858 0.0
C2341 C 0.70865 0.10214 0.70955 0.0
C2342 C 0.69481 0.10936 0.68399 0.0
C2343 C 0.73595 0.14051 0.69509 0.0
C2344 C 0.74075 0.16333 0.6997 0.0
C2345 C 0.76433 0.18371 0.69872 0.0
C2346 C 0.78345 0.18071 0.69276 0.0
C2347 C 0.77874 0.15765 0.68756 0.0
C2348 C 0.75479 0.13728 0.68893 0.0
H2349 H 0.87655 0.52843 0.70968 0.0
H2350 H 0.89894 0.56195 0.75426 0.0
H2351 H 0.89219 0.59507 0.74607 0.0
H2352 H 0.90226 0.58258 0.688 0.0
H2353 H 0.87665 0.57179 0.67488 0.0
H2354 H 0.88353 0.55048 0.68395 0.0
H2355 H 0.83874 0.52669 0.69414 0.0
H2356 H 0.83172 0.54785 0.68499 0.0
H2357 H 0.82675 0.54258 0.705 0.0
H2358 H 0.8852 0.62558 0.733 0.0
H2359 H 0.87439 0.64987 0.71651 0.0
H2360 H 0.8523 0.59506 0.6811 0.0
C2361 C 0.87976 0.54252 0.71782 0.0
C2362 C 0.88885 0.54267 0.73257 0.0
C2363 C 0.89284 0.56167 0.74275 0.0
C2364 C 0.88883 0.58053 0.73826 0.0
C2365 C 0.88033 0.58001 0.72363 0.0
C2366 C 0.8754 0.56134 0.71361 0.0
C2367 C 0.86573 0.56502 0.69865 0.0
C2368 C 0.88309 0.56762 0.6856 0.0
C2369 C 0.83915 0.5443 0.69552 0.0
C2370 C 0.86637 0.58883 0.70182 0.0
C2371 C 0.87506 0.59718 0.71626 0.0
C2372 C 0.87816 0.61913 0.7217 0.0
C2373 C 0.87202 0.63286 0.71217 0.0
C2374 C 0.86245 0.62447 0.6974 0.0
C2375 C 0.8596 0.60209 0.69223 0.0
H2376 H 0.43851 0.91762 0.17181 0.0
H2377 H 0.51536 0.96419 0.18514 0.0
H2378 H 0.52532 0.98017 0.15921 0.0
H2379 H 0.45027 0.90366 0.13403 0.0
H2380 H 0.42426 0.90444 0.12568 0.0
H2381 H 0.42323 0.89593 0.14518 0.0
H2382 H 0.41404 0.92987 0.15333 0.0
H2383 H 0.4149 0.93837 0.13385 0.0
H2384 H 0.43471 0.96079 0.14764 0.0
H2385 H 0.52677 0.99219 0.13188 0.0
H2386 H 0.51916 1.00033 0.10572 0.0
H2387 H 0.44154 0.94559 0.11 0.0
C2388 C 0.45742 0.93126 0.16932 0.0
C2389 C 0.47616 0.93948 0.18059 0.0
C2390 C 0.50071 0.95723 0.17672 0.0
C2391 C 0.50656 0.96651 0.162 0.0
C2392 C 0.4877 0.95791 0.15118 0.0
C2393 C 0.46361 0.94072 0.15465 0.0
C2394 C 0.44669 0.93495 0.14101 0.0
C2395 C 0.43546 0.90815 0.13619 0.0
C2396 C 0.42639 0.94139 0.14415 0.0
C2397 C 0.46496 0.95183 0.1294 0.0
C2398 C 0.48855 0.9648 0.13545 0.0
C2399 C 0.50839 0.98198 0.12699 0.0
C2400 C 0.50391 0.98634 0.11206 0.0
C2401 C 0.47976 0.97363 0.10568 0.0
C2402 C 0.4602 0.95584 0.1145 0.0
H2403 H 0.0161 0.52769 0.18221 0.0
H2404 H 0.06848 0.50249 0.17512 0.0
H2405 H 0.05338 0.491 0.14891 0.0
H2406 H 0.96637 0.48154 0.16017 0.0
H2407 H 0.95667 0.50168 0.15244 0.0
H2408 H 0.97152 0.50806 0.17073 0.0
H2409 H 0.00481 0.55083 0.16171 0.0
H2410 H 0.98996 0.54465 0.14343 0.0
H2411 H 0.02224 0.55357 0.14491 0.0
H2412 H 0.03236 0.48162 0.12367 0.0
H2413 H 0.00755 0.47606 0.10068 0.0
H2414 H 0.96979 0.50876 0.12362 0.0
C2415 C 0.02457 0.51997 0.17511 0.0
C2416 C 0.04337 0.51582 0.18081 0.0
C2417 C 0.05375 0.50544 0.17114 0.0
C2418 C 0.0454 0.49897 0.15619 0.0
C2419 C 0.02672 0.50308 0.151 0.0
C2420 C 0.0165 0.51345 0.16011 0.0
C2421 C 0.99668 0.51596 0.15167 0.0
C2422 C 0.97131 0.50091 0.1592 0.0
C2423 C 0.00386 0.54285 0.15035 0.0
C2424 C 0.99734 0.5053 0.13641 0.0
C2425 C 0.01479 0.49798 0.13631 0.0
C2426 C 0.01876 0.48746 0.12357 0.0
C2427 C 0.00465 0.48451 0.11053 0.0
C2428 C 0.98682 0.49214 0.11026 0.0
C2429 C 0.9831 0.50256 0.12346 0.0
H2430 H 0.47984 0.54684 0.17044 0.0
H2431 H 0.44981 0.47459 0.18936 0.0
H2432 H 0.45871 0.46015 0.16559 0.0
H2433 H 0.45747 0.52715 0.13178 0.0
H2434 H 0.48492 0.55134 0.12327 0.0
H2435 H 0.47506 0.55591 0.14151 0.0
H2436 H 0.51803 0.56784 0.15289 0.0
H2437 H 0.52804 0.56338 0.13469 0.0
H2438 H 0.52986 0.54724 0.15091 0.0
H2439 H 0.47322 0.454 0.1406 0.0
H2440 H 0.49197 0.45646 0.11564 0.0
H2441 H 0.5121 0.53228 0.11233 0.0
C2442 C 0.47508 0.52797 0.16957 0.0
C2443 C 0.46392 0.51182 0.18179 0.0
C2444 C 0.45792 0.48723 0.18012 0.0
C2445 C 0.46302 0.47886 0.16667 0.0
C2446 C 0.47404 0.49523 0.15489 0.0
C2447 C 0.47994 0.51924 0.15615 0.0
C2448 C 0.49229 0.53315 0.14187 0.0
C2449 C 0.47648 0.54243 0.13415 0.0
C2450 C 0.51862 0.55414 0.1453 0.0
C2451 C 0.49279 0.51329 0.13251 0.0
C2452 C 0.48211 0.49156 0.14027 0.0
C2453 C 0.4814 0.47084 0.13435 0.0
C2454 C 0.49211 0.47241 0.1202 0.0
C2455 C 0.50327 0.49448 0.11206 0.0
C2456 C 0.5033 0.51509 0.11823 0.0
H2457 H 0.98833 0.50047 0.83469 0.0
H2458 H 0.93396 0.42417 0.8407 0.0
H2459 H 0.94806 0.4266 0.86709 0.0
H2460 H 0.03665 0.50079 0.85723 0.0
H2461 H 0.04715 0.53064 0.86513 0.0
H2462 H 0.03292 0.52297 0.84665 0.0
H2463 H 1.00053 0.53462 0.85527 0.0
H2464 H 0.01471 0.54241 0.87377 0.0
H2465 H 0.98221 0.5205 0.87181 0.0
H2466 H 0.96758 0.43733 0.89289 0.0
H2467 H 0.99148 0.45563 0.91636 0.0
H2468 H 0.03296 0.52507 0.89376 0.0
C2469 C 0.97929 0.48431 0.84158 0.0
C2470 C 0.96009 0.46209 0.83558 0.0
C2471 C 0.94894 0.4413 0.84496 0.0
C2472 C 0.95673 0.44252 0.85999 0.0
C2473 C 0.97572 0.46466 0.86552 0.0
C2474 C 0.98688 0.48518 0.85662 0.0
C2475 C 0.0069 0.50673 0.86535 0.0
C2476 C 0.03241 0.51581 0.85816 0.0
C2477 C 1.00071 0.52728 0.86662 0.0
C2478 C 0.0052 0.4951 0.88056 0.0
C2479 C 0.98706 0.47083 0.8804 0.0
C2480 C 0.98182 0.45632 0.89316 0.0
C2481 C 0.99541 0.46691 0.90645 0.0
C2482 C 0.01407 0.49177 0.90691 0.0
C2483 C 0.01903 0.50595 0.89372 0.0
H2484 H 0.50399 0.47112 0.83809 0.0
H2485 H 0.58354 0.51995 0.84053 0.0
H2486 H 0.5791 0.53316 0.866 0.0
H2487 H 0.48603 0.50904 0.85753 0.0
H2488 H 0.46093 0.48442 0.86749 0.0
H2489 H 0.47028 0.47888 0.84936 0.0
H2490 H 0.47692 0.4452 0.86106 0.0
H2491 H 0.46749 0.45056 0.87921 0.0
H2492 H 0.49708 0.45228 0.87727 0.0
H2493 H 0.56585 0.54173 0.89119 0.0
H2494 H 0.54492 0.54442 0.9141 0.0
H2495 H 0.47448 0.48787 0.89592 0.0
C2496 C 0.52058 0.48438 0.84399 0.0
C2497 C 0.54413 0.49456 0.83712 0.0
C2498 C 0.56521 0.51217 0.8453 0.0
C2499 C 0.56292 0.51968 0.85988 0.0
C2500 C 0.53945 0.5093 0.86625 0.0
C2501 C 0.51867 0.49193 0.8586 0.0
C2502 C 0.49558 0.48353 0.86802 0.0
C2503 C 0.47712 0.48932 0.86013 0.0
C2504 C 0.48357 0.45628 0.8716 0.0
C2505 C 0.5066 0.49905 0.88211 0.0
C2506 C 0.53192 0.51381 0.88087 0.0
C2507 C 0.54604 0.53008 0.89234 0.0
C2508 C 0.53397 0.53134 0.90539 0.0
C2509 C 0.50797 0.51633 0.90697 0.0
C2510 C 0.49429 0.49988 0.89511 0.0
H2511 H 0.50022 0.03994 0.83033 0.0
H2512 H 0.57815 0.08944 0.83972 0.0
H2513 H 0.57251 0.07408 0.86582 0.0
H2514 H 0.47791 0.0459 0.86699 0.0
H2515 H 0.45401 0.01437 0.86765 0.0
H2516 H 0.46418 0.02931 0.8497 0.0
H2517 H 0.47398 0.99609 0.84084 0.0
H2518 H 0.4639 0.98108 0.85877 0.0
H2519 H 0.49449 0.99003 0.85203 0.0
H2520 H 0.55847 0.05297 0.89094 0.0
H2521 H 0.5372 0.02752 0.913 0.0
H2522 H 0.46809 0.99274 0.88756 0.0
C2523 C 0.51608 0.04774 0.8379 0.0
C2524 C 0.53969 0.06588 0.83287 0.0
C2525 C 0.55997 0.07529 0.84316 0.0
C2526 C 0.55692 0.06679 0.85806 0.0
C2527 C 0.53344 0.04889 0.8626 0.0
C2528 C 0.51336 0.03949 0.85283 0.0
C2529 C 0.49014 0.0202 0.86052 0.0
C2530 C 0.4704 0.02792 0.86126 0.0
C2531 C 0.48004 0.99538 0.85256 0.0
C2532 C 0.50033 0.02015 0.87611 0.0
C2533 C 0.52533 0.03687 0.87709 0.0
C2534 C 0.53886 0.03993 0.89032 0.0
C2535 C 0.52654 0.02547 0.90285 0.0
C2536 C 0.50089 0.0081 0.90213 0.0
C2537 C 0.48773 0.00561 0.88851 0.0
H2538 H 0.17949 0.29397 0.51428 0.0
H2539 H 0.10003 0.25081 0.50698 0.0
H2540 H 0.1053 0.26549 0.48076 0.0
H2541 H 0.18941 0.34514 0.49274 0.0
H2542 H 0.21851 0.35088 0.48499 0.0
H2543 H 0.20872 0.3365 0.50312 0.0
H2544 H 0.21303 0.30013 0.49361 0.0
H2545 H 0.22297 0.31447 0.47547 0.0
H2546 H 0.19686 0.28405 0.47665 0.0
H2547 H 0.11886 0.28607 0.45569 0.0
H2548 H 0.13988 0.31045 0.43328 0.0
H2549 H 0.21084 0.33875 0.45629 0.0
C2550 C 0.16322 0.28734 0.50712 0.0
C2551 C 0.13931 0.27135 0.51278 0.0
C2552 C 0.1185 0.26339 0.50303 0.0
C2553 C 0.12131 0.27149 0.48807 0.0
C2554 C 0.14506 0.28746 0.48293 0.0
C2555 C 0.16569 0.2952 0.4921 0.0
C2556 C 0.18911 0.31269 0.48381 0.0
C2557 C 0.2022 0.33779 0.49163 0.0
C2558 C 0.20652 0.3022 0.48229 0.0
C2559 C 0.17837 0.31373 0.4686 0.0
C2560 C 0.15294 0.29901 0.46834 0.0
C2561 C 0.13881 0.29744 0.45569 0.0
C2562 C 0.15099 0.31127 0.44295 0.0
C2563 C 0.17711 0.32646 0.44287 0.0
C2564 C 0.19087 0.32753 0.45594 0.0
H2565 H 0.71111 0.83636 0.50586 0.0
H2566 H 0.71727 0.90691 0.51356 0.0
H2567 H 0.69807 0.90393 0.48872 0.0
H2568 H 0.72173 0.84136 0.46599 0.0
H2569 H 0.69883 0.81014 0.46199 0.0
H2570 H 0.71443 0.81833 0.48006 0.0
H2571 H 0.67211 0.7992 0.49362 0.0
H2572 H 0.65638 0.79088 0.47559 0.0
H2573 H 0.65044 0.80908 0.48877 0.0
H2574 H 0.67855 0.89361 0.4628 0.0
H2575 H 0.65747 0.8751 0.43844 0.0
H2576 H 0.6605 0.80999 0.44871 0.0
C2577 C 0.70827 0.85115 0.50248 0.0
C2578 C 0.71614 0.87204 0.51176 0.0
C2579 C 0.71217 0.89099 0.50661 0.0
C2580 C 0.70104 0.8894 0.49252 0.0
C2581 C 0.69356 0.86859 0.48374 0.0
C2582 C 0.69676 0.84968 0.48858 0.0
C2583 C 0.68614 0.82887 0.47724 0.0
C2584 C 0.7065 0.82443 0.47095 0.0
C2585 C 0.66501 0.80564 0.48423 0.0
C2586 C 0.67651 0.83907 0.46525 0.0
C2587 C 0.68122 0.86213 0.46915 0.0
C2588 C 0.67459 0.8755 0.45969 0.0
C2589 C 0.6627 0.86493 0.44592 0.0
C2590 C 0.65732 0.8412 0.44193 0.0
C2591 C 0.6643 0.82812 0.45168 0.0
H2592 H 0.15054 0.83236 0.51932 0.0
H2593 H 0.10197 0.85836 0.50379 0.0
H2594 H 0.10585 0.84727 0.47748 0.0
H2595 H 0.19207 0.85535 0.48759 0.0
H2596 H 0.19757 0.83006 0.48695 0.0
H2597 H 0.19003 0.83896 0.50461 0.0
H2598 H 0.15321 0.79519 0.50796 0.0
H2599 H 0.16059 0.78617 0.49028 0.0
H2600 H 0.13002 0.78169 0.49325 0.0
H2601 H 0.11387 0.83211 0.45315 0.0
H2602 H 0.12803 0.81722 0.43195 0.0
H2603 H 0.175 0.80471 0.46276 0.0
C2604 C 0.14066 0.83553 0.51034 0.0
C2605 C 0.12578 0.846 0.51348 0.0
C2606 C 0.11339 0.85031 0.50152 0.0
C2607 C 0.11544 0.84402 0.48659 0.0
C2608 C 0.13027 0.83375 0.48381 0.0
C2609 C 0.14292 0.8298 0.4953 0.0
C2610 C 0.15851 0.81955 0.4891 0.0
C2611 C 0.18619 0.83703 0.49225 0.0
C2612 C 0.15007 0.79414 0.49553 0.0
C2613 C 0.15252 0.81822 0.47236 0.0
C2614 C 0.136 0.82626 0.46961 0.0
C2615 C 0.12714 0.82615 0.45513 0.0
C2616 C 0.13557 0.81785 0.44309 0.0
C2617 C 0.15316 0.81016 0.44545 0.0
C2618 C 0.16154 0.8103 0.46041 0.0
H2619 H 0.613 0.78788 0.17172 0.0
H2620 H 0.67165 0.86065 0.16074 0.0
H2621 H 0.68297 0.86887 0.1878 0.0
H2622 H 0.59416 0.8038 0.20549 0.0
H2623 H 0.58786 0.77666 0.21551 0.0
H2624 H 0.58519 0.77598 0.19522 0.0
H2625 H 0.61613 0.76012 0.19312 0.0
H2626 H 0.61879 0.76063 0.21343 0.0
H2627 H 0.64614 0.77697 0.20208 0.0
H2628 H 0.68675 0.86976 0.21609 0.0
H2629 H 0.68266 0.86333 0.24366 0.0
H2630 H 0.62214 0.78962 0.23616 0.0
C2631 C 0.62849 0.8054 0.17498 0.0
C2632 C 0.64146 0.82364 0.16412 0.0
C2633 C 0.66131 0.8465 0.16888 0.0
C2634 C 0.66796 0.85129 0.18421 0.0
C2635 C 0.65461 0.83302 0.19463 0.0
C2636 C 0.63533 0.81051 0.19023 0.0
C2637 C 0.62341 0.79433 0.20376 0.0
C2638 C 0.59604 0.78729 0.20507 0.0
C2639 C 0.6263 0.77167 0.20305 0.0
C2640 C 0.63885 0.81135 0.21646 0.0
C2641 C 0.65682 0.83353 0.21095 0.0
C2642 C 0.67292 0.85238 0.22054 0.0
C2643 C 0.67053 0.8485 0.23619 0.0
C2644 C 0.65216 0.82594 0.24212 0.0
C2645 C 0.63625 0.80714 0.23203 0.0
H2646 H 0.22329 0.84474 0.17317 0.0
H2647 H 0.17046 0.76709 0.1715 0.0
H2648 H 0.15617 0.76949 0.1969 0.0
H2649 H 0.23817 0.84946 0.21277 0.0
H2650 H 0.23922 0.87815 0.21536 0.0
H2651 H 0.24653 0.87037 0.19724 0.0
H2652 H 0.21293 0.87701 0.18448 0.0
H2653 H 0.20555 0.88488 0.20255 0.0
H2654 H 0.1816 0.86072 0.19133 0.0
H2655 H 0.1477 0.7798 0.22262 0.0
H2656 H 0.14351 0.7983 0.24629 0.0
H2657 H 0.19904 0.8696 0.23065 0.0
C2658 C 0.20861 0.82823 0.17804 0.0
C2659 C 0.19849 0.80562 0.17028 0.0
C2660 C 0.17929 0.78453 0.17727 0.0
C2661 C 0.1708 0.7857 0.1917 0.0
C2662 C 0.1813 0.80815 0.19901 0.0
C2663 C 0.19956 0.82911 0.19238 0.0
C2664 C 0.20696 0.85109 0.20249 0.0
C2665 C 0.23434 0.86296 0.20724 0.0
C2666 C 0.20142 0.86951 0.19475 0.0
C2667 C 0.18999 0.83915 0.21581 0.0
C2668 C 0.17555 0.81432 0.21362 0.0
C2669 C 0.15881 0.79925 0.22445 0.0
C2670 C 0.15662 0.80987 0.23786 0.0
C2671 C 0.17087 0.83532 0.24022 0.0
C2672 C 0.18776 0.85011 0.22904 0.0
H2673 H 0.16394 0.38157 0.16602 0.0
H2674 H 0.24346 0.42502 0.17297 0.0
H2675 H 0.23857 0.41026 0.19915 0.0
H2676 H 0.14696 0.39139 0.20375 0.0
H2677 H 0.12094 0.36093 0.20501 0.0
H2678 H 0.13063 0.37525 0.18684 0.0
H2679 H 0.13499 0.33896 0.17724 0.0
H2680 H 0.12543 0.3246 0.19538 0.0
H2681 H 0.15448 0.33042 0.18751 0.0
H2682 H 0.22529 0.38967 0.22437 0.0
H2683 H 0.20453 0.36521 0.24682 0.0
H2684 H 0.13337 0.33672 0.22406 0.0
C2685 C 0.18031 0.38826 0.17309 0.0
C2686 C 0.20413 0.40438 0.16731 0.0
C2687 C 0.22505 0.41235 0.17697 0.0
C2688 C 0.22246 0.4042 0.19192 0.0
C2689 C 0.19879 0.38816 0.19718 0.0
C2690 C 0.17806 0.38036 0.1881 0.0
C2691 C 0.15476 0.36282 0.1965 0.0
C2692 C 0.13729 0.37323 0.19812 0.0
C2693 C 0.14165 0.33771 0.18869 0.0
C2694 C 0.16568 0.36183 0.21167 0.0
C2695 C 0.1911 0.37661 0.21182 0.0
C2696 C 0.20534 0.37823 0.22443 0.0
C2697 C 0.19331 0.36436 0.23721 0.0
C2698 C 0.16721 0.34904 0.23738 0.0
C2699 C 0.15333 0.348 0.22436 0.0
H2700 H 0.8168 0.58984 0.83757 0.0
H2701 H 0.80244 0.64616 0.85389 0.0
H2702 H 0.80785 0.66252 0.82804 0.0
H2703 H 0.86379 0.62749 0.80964 0.0
H2704 H 0.85328 0.60284 0.79616 0.0
H2705 H 0.84982 0.59653 0.81612 0.0
H2706 H 0.80274 0.56747 0.81213 0.0
H2707 H 0.80604 0.57375 0.79219 0.0
H2708 H 0.78449 0.57863 0.80303 0.0
H2709 H 0.81241 0.67131 0.80003 0.0
H2710 H 0.81526 0.67141 0.77218 0.0
H2711 H 0.82817 0.61031 0.77433 0.0
C2712 C 0.81527 0.6059 0.83578 0.0
C2713 C 0.80917 0.61668 0.8478 0.0
C2714 C 0.80683 0.63739 0.84486 0.0
C2715 C 0.81004 0.64694 0.83022 0.0
C2716 C 0.81571 0.63568 0.81861 0.0
C2717 C 0.8184 0.61567 0.82123 0.0
C2718 C 0.82347 0.6063 0.80666 0.0
C2719 C 0.84912 0.60843 0.80718 0.0
C2720 C 0.80296 0.57998 0.80331 0.0
C2721 C 0.82279 0.62391 0.79542 0.0
C2722 C 0.81846 0.64082 0.80252 0.0
C2723 C 0.8161 0.65832 0.79437 0.0
C2724 C 0.8179 0.65833 0.77853 0.0
C2725 C 0.82196 0.6409 0.77097 0.0
C2726 C 0.82481 0.62376 0.77967 0.0
H2727 H 0.35631 0.20093 0.84746 0.0
H2728 H 0.4124 0.18052 0.84056 0.0
H2729 H 0.39823 0.16895 0.8142 0.0
H2730 H 0.30886 0.15311 0.82566 0.0
H2731 H 0.2969 0.17129 0.8177 0.0
H2732 H 0.31204 0.17915 0.83592 0.0
H2733 H 0.34286 0.22249 0.82644 0.0
H2734 H 0.32767 0.21484 0.80823 0.0
H2735 H 0.36048 0.22609 0.80959 0.0
H2736 H 0.37697 0.15767 0.78916 0.0
H2737 H 0.35087 0.14888 0.76641 0.0
H2738 H 0.3091 0.17771 0.78889 0.0
C2739 C 0.36584 0.19439 0.84032 0.0
C2740 C 0.38537 0.19147 0.84612 0.0
C2741 C 0.39717 0.18257 0.83645 0.0
C2742 C 0.38934 0.17605 0.82144 0.0
C2743 C 0.36974 0.17866 0.81618 0.0
C2744 C 0.35823 0.18778 0.82524 0.0
C2745 C 0.33727 0.18826 0.81677 0.0
C2746 C 0.31229 0.17198 0.82447 0.0
C2747 C 0.34238 0.21448 0.81516 0.0
C2748 C 0.33866 0.17772 0.80161 0.0
C2749 C 0.35757 0.17238 0.80155 0.0
C2750 C 0.36228 0.16205 0.789 0.0
C2751 C 0.3474 0.15723 0.77609 0.0
C2752 C 0.32805 0.16281 0.77575 0.0
C2753 C 0.32363 0.1731 0.78877 0.0
H2754 H 0.79074 0.16486 0.84172 0.0
H2755 H 0.80045 0.23671 0.83464 0.0
H2756 H 0.81293 0.23598 0.80832 0.0
H2757 H 0.84226 0.17371 0.82125 0.0
H2758 H 0.82806 0.1436 0.81306 0.0
H2759 H 0.81734 0.14841 0.8309 0.0
H2760 H 0.77271 0.1292 0.82014 0.0
H2761 H 0.78324 0.12407 0.80229 0.0
H2762 H 0.76716 0.14103 0.80299 0.0
H2763 H 0.82842 0.22946 0.78381 0.0
H2764 H 0.84421 0.21683 0.76222 0.0
H2765 H 0.82269 0.14821 0.78444 0.0
C2766 C 0.79488 0.18015 0.83449 0.0
C2767 C 0.79469 0.20088 0.84024 0.0
C2768 C 0.8007 0.22074 0.83052 0.0
C2769 C 0.8077 0.22046 0.81553 0.0
C2770 C 0.80842 0.20008 0.81034 0.0
C2771 C 0.80192 0.18016 0.81945 0.0
C2772 C 0.80553 0.16112 0.81125 0.0
C2773 C 0.82442 0.15645 0.81962 0.0
C2774 C 0.78068 0.13746 0.80903 0.0
C2775 C 0.81566 0.17377 0.7963 0.0
C2776 C 0.81703 0.19615 0.79601 0.0
C2777 C 0.82699 0.21176 0.78377 0.0
C2778 C 0.8358 0.20431 0.77149 0.0
C2779 C 0.83455 0.18137 0.77144 0.0
C2780 C 0.82412 0.16591 0.78406 0.0
H2781 H 0.29324 0.16677 0.5139 0.0
H2782 H 0.33532 0.13878 0.491 0.0
H2783 H 0.35976 0.14479 0.51422 0.0
H2784 H 0.34455 0.21295 0.5365 0.0
H2785 H 0.32587 0.20844 0.55298 0.0
H2786 H 0.31201 0.20267 0.5344 0.0
H2787 H 0.27973 0.15889 0.54239 0.0
H2788 H 0.29363 0.16446 0.56095 0.0
H2789 H 0.29019 0.13912 0.54977 0.0
H2790 H 0.37918 0.15295 0.53961 0.0
H2791 H 0.39346 0.16388 0.56601 0.0
H2792 H 0.33904 0.1864 0.57322 0.0
C2793 C 0.3078 0.1622 0.51379 0.0
C2794 C 0.31236 0.15223 0.50068 0.0
C2795 C 0.33138 0.14622 0.50096 0.0
C2796 C 0.34539 0.14961 0.51408 0.0
C2797 C 0.34018 0.159 0.52688 0.0
C2798 C 0.32194 0.16531 0.5269 0.0
C2799 C 0.32002 0.17469 0.54239 0.0
C2800 C 0.32597 0.20127 0.54151 0.0
C2801 C 0.29437 0.15831 0.54928 0.0
C2802 C 0.34004 0.17265 0.55099 0.0
C2803 C 0.35139 0.16358 0.54176 0.0
C2804 C 0.37052 0.16016 0.54695 0.0
C2805 C 0.37854 0.16648 0.56195 0.0
C2806 C 0.36746 0.17608 0.57164 0.0
C2807 C 0.34773 0.17893 0.5661 0.0
H2808 H 0.87047 0.18227 0.49999 0.0
H2809 H 0.87031 0.11615 0.51235 0.0
H2810 H 0.86118 0.12147 0.5388 0.0
H2811 H 0.89835 0.21608 0.53513 0.0
H2812 H 0.87934 0.23007 0.53529 0.0
H2813 H 0.8875 0.22188 0.51758 0.0
H2814 H 0.84102 0.19613 0.51036 0.0
H2815 H 0.83273 0.20418 0.52805 0.0
H2816 H 0.82013 0.17261 0.52295 0.0
H2817 H 0.8504 0.13324 0.56385 0.0
H2818 H 0.83738 0.14969 0.58509 0.0
H2819 H 0.8446 0.20808 0.55635 0.0
C2820 C 0.86893 0.16914 0.50832 0.0
C2821 C 0.87118 0.14882 0.50409 0.0
C2822 C 0.86851 0.13177 0.51529 0.0
C2823 C 0.86346 0.13472 0.53037 0.0
C2824 C 0.86108 0.1548 0.53412 0.0
C2825 C 0.86371 0.17171 0.52341 0.0
C2826 C 0.85905 0.19101 0.53022 0.0
C2827 C 0.88246 0.21625 0.52951 0.0
C2828 C 0.83692 0.19096 0.52243 0.0
C2829 C 0.85308 0.18215 0.54637 0.0
C2830 C 0.85458 0.16137 0.54845 0.0
C2831 C 0.84934 0.14961 0.56237 0.0
C2832 C 0.84208 0.15915 0.5744 0.0
C2833 C 0.83994 0.18018 0.57243 0.0
C2834 C 0.84584 0.19187 0.55822 0.0
H2835 H 0.8495 0.74247 0.51051 0.0
H2836 H 0.88067 0.69798 0.49614 0.0
H2837 H 0.87227 0.67898 0.52128 0.0
H2838 H 0.87221 0.75229 0.54895 0.0
H2839 H 0.84463 0.75026 0.55681 0.0
H2840 H 0.85359 0.76086 0.53777 0.0
H2841 H 0.81066 0.72747 0.52786 0.0
H2842 H 0.80155 0.71682 0.54687 0.0
H2843 H 0.79988 0.69607 0.53232 0.0
H2844 H 0.85987 0.66421 0.54792 0.0
H2845 H 0.84343 0.65409 0.57382 0.0
H2846 H 0.82029 0.7081 0.57098 0.0
C2847 C 0.85443 0.72863 0.51259 0.0
C2848 C 0.86595 0.72191 0.50129 0.0
C2849 C 0.87227 0.70383 0.50462 0.0
C2850 C 0.86744 0.69281 0.51887 0.0
C2851 C 0.85621 0.69995 0.52974 0.0
C2852 C 0.84972 0.71739 0.52677 0.0
C2853 C 0.83753 0.72151 0.54039 0.0
C2854 C 0.85291 0.74779 0.54633 0.0
C2855 C 0.81082 0.71508 0.53663 0.0
C2856 C 0.83805 0.70355 0.55143 0.0
C2857 C 0.849 0.69137 0.54508 0.0
C2858 C 0.85137 0.67373 0.55303 0.0
C2859 C 0.84213 0.66823 0.56781 0.0
C2860 C 0.83059 0.68029 0.57455 0.0
C2861 C 0.82876 0.69833 0.56618 0.0
loop_
_geom_bond_atom_site_label_1
_geom_bond_atom_site_label_2
_geom_bond_distance
_geom_bond_site_symmetry_2
_ccdc_geom_bond_type
C0 C1 1.384 . S
C0 H13 0.947 . S
C0 C35 1.382 . S
C1 C0 1.384 . S
C1 C2 1.378 . S
C2 C1 1.378 . S
C2 C3 1.378 . S
C2 H14 0.952 . S
C3 C2 1.378 . S
C3 H15 0.950 . S
C3 C34 1.383 . S
H4 C23 0.947 . S
H5 C24 0.946 . S
H6 C26 0.953 . S
H7 C27 0.945 . S
H8 C29 0.952 . S
H9 C30 0.949 . S
H10 C32 0.950 . S
H11 C33 0.948 . S
H12 C35 0.951 . S
H13 C0 0.947 . S
H14 C2 0.952 . S
H15 C3 0.950 . S
N16 C19 1.382 . S
N16 C21 1.363 . S
N17 C19 1.371 . S
N17 C20 1.372 . S
N18 C20 1.361 . S
N18 C21 1.377 . S
C19 N16 1.382 . S
C19 N17 1.371 . S
C19 C22 1.480 . S
C20 N17 1.372 . S
C20 N18 1.361 . S
C20 C28 1.457 . S
C21 N16 1.363 . S
C21 N18 1.377 . S
C21 C34 1.479 . S
C22 C19 1.480 . S
C22 C23 1.383 . S
C22 C27 1.385 . S
C23 H4 0.947 . S
C23 C22 1.383 . S
C23 C24 1.388 . S
C24 H5 0.946 . S
C24 C23 1.388 . S
C24 C25 1.384 . S
C25 C24 1.384 . S
C25 C26 1.377 . S
C26 H6 0.953 . S
C26 C25 1.377 . S
C26 C27 1.369 . S
C27 H7 0.945 . S
C27 C22 1.385 . S
C27 C26 1.369 . S
C28 C20 1.457 . S
C28 C29 1.372 . S
C28 C33 1.364 . S
C29 H8 0.952 . S
C29 C28 1.372 . S
C29 C30 1.389 . S
C30 H9 0.949 . S
C30 C29 1.389 . S
C30 C31 1.387 . S
C31 C30 1.387 . S
C31 C32 1.372 . S
C32 H10 0.950 . S
C32 C31 1.372 . S
C32 C33 1.379 . S
C33 H11 0.948 . S
C33 C28 1.364 . S
C33 C32 1.379 . S
C34 C3 1.383 . S
C34 C21 1.479 . S
C34 C35 1.398 . S
C35 C0 1.382 . S
C35 H12 0.951 . S
C35 C34 1.398 . S
C36 C37 1.384 . S
C36 H49 0.947 . S
C36 C71 1.382 . S
C37 C36 1.384 . S
C37 C38 1.378 . S
C38 C37 1.378 . S
C38 C39 1.378 . S
C38 H50 0.952 . S
C39 C38 1.378 . S
C39 H51 0.950 . S
C39 C70 1.383 . S
H40 C59 0.947 . S
H41 C60 0.946 . S
H42 C62 0.953 . S
H43 C63 0.945 . S
H44 C65 0.952 . S
H45 C66 0.949 . S
H46 C68 0.950 . S
H47 C69 0.948 . S
H48 C71 0.951 . S
H49 C36 0.947 . S
H50 C38 0.952 . S
H51 C39 0.950 . S
N52 C55 1.382 . S
N52 C57 1.363 . S
N53 C55 1.371 . S
N53 C56 1.372 . S
N54 C56 1.361 . S
N54 C57 1.377 . S
C55 N52 1.382 . S
C55 N53 1.371 . S
C55 C58 1.480 . S
C56 N53 1.372 . S
C56 N54 1.361 . S
C56 C64 1.457 . S
C57 N52 1.363 . S
C57 N54 1.377 . S
C57 C70 1.479 . S
C58 C55 1.480 . S
C58 C59 1.383 . S
C58 C63 1.385 . S
C59 H40 0.947 . S
C59 C58 1.383 . S
C59 C60 1.388 . S
C60 H41 0.946 . S
C60 C59 1.388 . S
C60 C61 1.384 . S
C61 C60 1.384 . S
C61 C62 1.377 . S
C62 H42 0.953 . S
C62 C61 1.377 . S
C62 C63 1.369 . S
C63 H43 0.945 . S
C63 C58 1.385 . S
C63 C62 1.369 . S
C64 C56 1.457 . S
C64 C65 1.372 . S
C64 C69 1.364 . S
C65 H44 0.952 . S
C65 C64 1.372 . S
C65 C66 1.389 . S
C66 H45 0.949 . S
C66 C65 1.389 . S
C66 C67 1.387 . S
C67 C66 1.387 . S
C67 C68 1.372 . S
C68 H46 0.950 . S
C68 C67 1.372 . S
C68 C69 1.379 . S
C69 H47 0.948 . S
C69 C64 1.364 . S
C69 C68 1.379 . S
C70 C39 1.383 . S
C70 C57 1.479 . S
C70 C71 1.398 . S
C71 C36 1.382 . S
C71 H48 0.951 . S
C71 C70 1.398 . S
C72 C73 1.384 . S
C72 H85 0.947 . S
C72 C107 1.382 . S
C73 C72 1.384 . S
C73 C74 1.378 . S
C74 C73 1.378 . S
C74 C75 1.378 . S
C74 H86 0.952 . S
C75 C74 1.378 . S
C75 H87 0.950 . S
C75 C106 1.383 . S
H76 C95 0.947 . S
H77 C96 0.946 . S
H78 C98 0.953 . S
H79 C99 0.945 . S
H80 C101 0.952 . S
H81 C102 0.949 . S
H82 C104 0.950 . S
H83 C105 0.948 . S
H84 C107 0.951 . S
H85 C72 0.947 . S
H86 C74 0.952 . S
H87 C75 0.950 . S
N88 C91 1.382 . S
N88 C93 1.363 . S
N89 C91 1.371 . S
N89 C92 1.372 . S
N90 C92 1.361 . S
N90 C93 1.377 . S
C91 N88 1.382 . S
C91 N89 1.371 . S
C91 C94 1.480 . S
C92 N89 1.372 . S
C92 N90 1.361 . S
C92 C100 1.457 . S
C93 N88 1.363 . S
C93 N90 1.377 . S
C93 C106 1.479 . S
C94 C91 1.480 . S
C94 C95 1.383 . S
C94 C99 1.385 . S
C95 H76 0.947 . S
C95 C94 1.383 . S
C95 C96 1.388 . S
C96 H77 0.946 . S
C96 C95 1.388 . S
C96 C97 1.384 . S
C97 C96 1.384 . S
C97 C98 1.377 . S
C98 H78 0.953 . S
C98 C97 1.377 . S
C98 C99 1.369 . S
C99 H79 0.945 . S
C99 C94 1.385 . S
C99 C98 1.369 . S
C100 C92 1.457 . S
C100 C101 1.372 . S
C100 C105 1.364 . S
C101 H80 0.952 . S
C101 C100 1.372 . S
C101 C102 1.389 . S
C102 H81 0.949 . S
C102 C101 1.389 . S
C102 C103 1.387 . S
C103 C102 1.387 . S
C103 C104 1.372 . S
C104 H82 0.950 . S
C104 C103 1.372 . S
C104 C105 1.379 . S
C105 H83 0.948 . S
C105 C100 1.364 . S
C105 C104 1.379 . S
C106 C75 1.383 . S
C106 C93 1.479 . S
C106 C107 1.398 . S
C107 C72 1.382 . S
C107 H84 0.951 . S
C107 C106 1.398 . S
C108 C109 1.384 . S
C108 H121 0.947 . S
C108 C143 1.382 . S
C109 C108 1.384 . S
C109 C110 1.378 . S
C110 C109 1.378 . S
C110 C111 1.378 . S
C110 H122 0.952 . S
C111 C110 1.378 . S
C111 H123 0.950 . S
C111 C142 1.383 . S
H112 C131 0.947 . S
H113 C132 0.946 . S
H114 C134 0.953 . S
H115 C135 0.945 . S
H116 C137 0.952 . S
H117 C138 0.949 . S
H118 C140 0.950 . S
H119 C141 0.948 . S
H120 C143 0.951 . S
H121 C108 0.947 . S
H122 C110 0.952 . S
H123 C111 0.950 . S
N124 C127 1.382 . S
N124 C129 1.363 . S
N125 C127 1.371 . S
N125 C128 1.372 . S
N126 C128 1.361 . S
N126 C129 1.377 . S
C127 N124 1.382 . S
C127 N125 1.371 . S
C127 C130 1.480 . S
C128 N125 1.372 . S
C128 N126 1.361 . S
C128 C136 1.457 . S
C129 N124 1.363 . S
C129 N126 1.377 . S
C129 C142 1.479 . S
C130 C127 1.480 . S
C130 C131 1.383 . S
C130 C135 1.385 . S
C131 H112 0.947 . S
C131 C130 1.383 . S
C131 C132 1.388 . S
C132 H113 0.946 . S
C132 C131 1.388 . S
C132 C133 1.384 . S
C133 C132 1.384 . S
C133 C134 1.377 . S
C134 H114 0.953 . S
C134 C133 1.377 . S
C134 C135 1.369 . S
C135 H115 0.945 . S
C135 C130 1.385 . S
C135 C134 1.369 . S
C136 C128 1.457 . S
C136 C137 1.372 . S
C136 C141 1.364 . S
C137 H116 0.952 . S
C137 C136 1.372 . S
C137 C138 1.389 . S
C138 H117 0.949 . S
C138 C137 1.389 . S
C138 C139 1.387 . S
C139 C138 1.387 . S
C139 C140 1.372 . S
C140 H118 0.950 . S
C140 C139 1.372 . S
C140 C141 1.379 . S
C141 H119 0.948 . S
C141 C136 1.364 . S
C141 C140 1.379 . S
C142 C111 1.383 . S
C142 C129 1.479 . S
C142 C143 1.398 . S
C143 C108 1.382 . S
C143 H120 0.951 . S
C143 C142 1.398 . S
C144 C145 1.384 . S
C144 H157 0.947 . S
C144 C179 1.382 . S
C145 C144 1.384 . S
C145 C146 1.378 . S
C146 C145 1.378 . S
C146 C147 1.378 . S
C146 H158 0.952 . S
C147 C146 1.378 . S
C147 H159 0.950 . S
C147 C178 1.383 . S
H148 C167 0.947 . S
H149 C168 0.946 . S
H150 C170 0.953 . S
H151 C171 0.945 . S
H152 C173 0.952 . S
H153 C174 0.949 . S
H154 C176 0.950 . S
H155 C177 0.948 . S
H156 C179 0.951 . S
H157 C144 0.947 . S
H158 C146 0.952 . S
H159 C147 0.950 . S
N160 C163 1.382 . S
N160 C165 1.363 . S
N161 C163 1.371 . S
N161 C164 1.372 . S
N162 C164 1.361 . S
N162 C165 1.377 . S
C163 N160 1.382 . S
C163 N161 1.371 . S
C163 C166 1.480 . S
C164 N161 1.372 . S
C164 N162 1.361 . S
C164 C172 1.457 . S
C165 N160 1.363 . S
C165 N162 1.377 . S
C165 C178 1.479 . S
C166 C163 1.480 . S
C166 C167 1.383 . S
C166 C171 1.385 . S
C167 H148 0.947 . S
C167 C166 1.383 . S
C167 C168 1.388 . S
C168 H149 0.946 . S
C168 C167 1.388 . S
C168 C169 1.384 . S
C169 C168 1.384 . S
C169 C170 1.377 . S
C170 H150 0.953 . S
C170 C169 1.377 . S
C170 C171 1.369 . S
C171 H151 0.945 . S
C171 C166 1.385 . S
C171 C170 1.369 . S
C172 C164 1.457 . S
C172 C173 1.372 . S
C172 C177 1.364 . S
C173 H152 0.952 . S
C173 C172 1.372 . S
C173 C174 1.389 . S
C174 H153 0.949 . S
C174 C173 1.389 . S
C174 C175 1.387 . S
C175 C174 1.387 . S
C175 C176 1.372 . S
C176 H154 0.950 . S
C176 C175 1.372 . S
C176 C177 1.379 . S
C177 H155 0.948 . S
C177 C172 1.364 . S
C177 C176 1.379 . S
C178 C147 1.383 . S
C178 C165 1.479 . S
C178 C179 1.398 . S
C179 C144 1.382 . S
C179 H156 0.951 . S
C179 C178 1.398 . S
C180 C181 1.384 . S
C180 H193 0.947 . S
C180 C215 1.382 . S
C181 C180 1.384 . S
C181 C182 1.378 . S
C182 C181 1.378 . S
C182 C183 1.378 . S
C182 H194 0.952 . S
C183 C182 1.378 . S
C183 H195 0.950 . S
C183 C214 1.383 . S
H184 C203 0.947 . S
H185 C204 0.946 . S
H186 C206 0.953 . S
H187 C207 0.945 . S
H188 C209 0.952 . S
H189 C210 0.949 . S
H190 C212 0.950 . S
H191 C213 0.948 . S
H192 C215 0.951 . S
H193 C180 0.947 . S
H194 C182 0.952 . S
H195 C183 0.950 . S
N196 C199 1.382 . S
N196 C201 1.363 . S
N197 C199 1.371 . S
N197 C200 1.372 . S
N198 C200 1.361 . S
N198 C201 1.377 . S
C199 N196 1.382 . S
C199 N197 1.371 . S
C199 C202 1.480 . S
C200 N197 1.372 . S
C200 N198 1.361 . S
C200 C208 1.457 . S
C201 N196 1.363 . S
C201 N198 1.377 . S
C201 C214 1.479 . S
C202 C199 1.480 . S
C202 C203 1.383 . S
C202 C207 1.385 . S
C203 H184 0.947 . S
C203 C202 1.383 . S
C203 C204 1.388 . S
C204 H185 0.946 . S
C204 C203 1.388 . S
C204 C205 1.384 . S
C205 C204 1.384 . S
C205 C206 1.377 . S
C206 H186 0.953 . S
C206 C205 1.377 . S
C206 C207 1.369 . S
C207 H187 0.945 . S
C207 C202 1.385 . S
C207 C206 1.369 . S
C208 C200 1.457 . S
C208 C209 1.372 . S
C208 C213 1.364 . S
C209 H188 0.952 . S
C209 C208 1.372 . S
C209 C210 1.389 . S
C210 H189 0.949 . S
C210 C209 1.389 . S
C210 C211 1.387 . S
C211 C210 1.387 . S
C211 C212 1.372 . S
C212 H190 0.950 . S
C212 C211 1.372 . S
C212 C213 1.379 . S
C213 H191 0.948 . S
C213 C208 1.364 . S
C213 C212 1.379 . S
C214 C183 1.383 . S
C214 C201 1.479 . S
C214 C215 1.398 . S
C215 C180 1.382 . S
C215 H192 0.951 . S
C215 C214 1.398 . S
C216 C217 1.384 . S
C216 H229 0.947 . S
C216 C251 1.382 . S
C217 C216 1.384 . S
C217 C218 1.378 . S
C218 C217 1.378 . S
C218 C219 1.378 . S
C218 H230 0.952 . S
C219 C218 1.378 . S
C219 H231 0.950 . S
C219 C250 1.383 . S
H220 C239 0.947 . S
H221 C240 0.946 . S
H222 C242 0.953 . S
H223 C243 0.945 . S
H224 C245 0.952 . S
H225 C246 0.949 . S
H226 C248 0.950 . S
H227 C249 0.948 . S
H228 C251 0.951 . S
H229 C216 0.947 . S
H230 C218 0.952 . S
H231 C219 0.950 . S
N232 C235 1.382 . S
N232 C237 1.363 . S
N233 C235 1.371 . S
N233 C236 1.372 . S
N234 C236 1.361 . S
N234 C237 1.377 . S
C235 N232 1.382 . S
C235 N233 1.371 . S
C235 C238 1.480 . S
C236 N233 1.372 . S
C236 N234 1.361 . S
C236 C244 1.457 . S
C237 N232 1.363 . S
C237 N234 1.377 . S
C237 C250 1.479 . S
C238 C235 1.480 . S
C238 C239 1.383 . S
C238 C243 1.385 . S
C239 H220 0.947 . S
C239 C238 1.383 . S
C239 C240 1.388 . S
C240 H221 0.946 . S
C240 C239 1.388 . S
C240 C241 1.384 . S
C241 C240 1.384 . S
C241 C242 1.377 . S
C242 H222 0.953 . S
C242 C241 1.377 . S
C242 C243 1.369 . S
C243 H223 0.945 . S
C243 C238 1.385 . S
C243 C242 1.369 . S
C244 C236 1.457 . S
C244 C245 1.372 . S
C244 C249 1.364 . S
C245 H224 0.952 . S
C245 C244 1.372 . S
C245 C246 1.389 . S
C246 H225 0.949 . S
C246 C245 1.389 . S
C246 C247 1.387 . S
C247 C246 1.387 . S
C247 C248 1.372 . S
C248 H226 0.950 . S
C248 C247 1.372 . S
C248 C249 1.379 . S
C249 H227 0.948 . S
C249 C244 1.364 . S
C249 C248 1.379 . S
C250 C219 1.383 . S
C250 C237 1.479 . S
C250 C251 1.398 . S
C251 C216 1.382 . S
C251 H228 0.951 . S
C251 C250 1.398 . S
C252 C253 1.384 . S
C252 H265 0.947 . S
C252 C287 1.382 . S
C253 C252 1.384 . S
C253 C254 1.378 . S
C254 C253 1.378 . S
C254 C255 1.378 . S
C254 H266 0.952 . S
C255 C254 1.378 . S
C255 H267 0.950 . S
C255 C286 1.383 . S
H256 C275 0.947 . S
H257 C276 0.946 . S
H258 C278 0.953 . S
H259 C279 0.945 . S
H260 C281 0.952 . S
H261 C282 0.949 . S
H262 C284 0.950 . S
H263 C285 0.948 . S
H264 C287 0.951 . S
H265 C252 0.947 . S
H266 C254 0.952 . S
H267 C255 0.950 . S
N268 C271 1.382 . S
N268 C273 1.363 . S
N269 C271 1.371 . S
N269 C272 1.372 . S
N270 C272 1.361 . S
N270 C273 1.377 . S
C271 N268 1.382 . S
C271 N269 1.371 . S
C271 C274 1.480 . S
C272 N269 1.372 . S
C272 N270 1.361 . S
C272 C280 1.457 . S
C273 N268 1.363 . S
C273 N270 1.377 . S
C273 C286 1.479 . S
C274 C271 1.480 . S
C274 C275 1.383 . S
C274 C279 1.385 . S
C275 H256 0.947 . S
C275 C274 1.383 . S
C275 C276 1.388 . S
C276 H257 0.946 . S
C276 C275 1.388 . S
C276 C277 1.384 . S
C277 C276 1.384 . S
C277 C278 1.377 . S
C278 H258 0.953 . S
C278 C277 1.377 . S
C278 C279 1.369 . S
C279 H259 0.945 . S
C279 C274 1.385 . S
C279 C278 1.369 . S
C280 C272 1.457 . S
C280 C281 1.372 . S
C280 C285 1.364 . S
C281 H260 0.952 . S
C281 C280 1.372 . S
C281 C282 1.389 . S
C282 H261 0.949 . S
C282 C281 1.389 . S
C282 C283 1.387 . S
C283 C282 1.387 . S
C283 C284 1.372 . S
C284 H262 0.950 . S
C284 C283 1.372 . S
C284 C285 1.379 . S
C285 H263 0.948 . S
C285 C280 1.364 . S
C285 C284 1.379 . S
C286 C255 1.383 . S
C286 C273 1.479 . S
C286 C287 1.398 . S
C287 C252 1.382 . S
C287 H264 0.951 . S
C287 C286 1.398 . S
C288 C289 1.384 . S
C288 H301 0.947 . S
C288 C323 1.382 . S
C289 C288 1.384 . S
C289 C290 1.378 . S
C290 C289 1.378 . S
C290 C291 1.378 . S
C290 H302 0.952 . S
C291 C290 1.378 . S
C291 H303 0.950 . S
C291 C322 1.383 . S
H292 C311 0.947 . S
H293 C312 0.946 . S
H294 C314 0.953 . S
H295 C315 0.945 . S
H296 C317 0.952 . S
H297 C318 0.949 . S
H298 C320 0.950 . S
H299 C321 0.948 . S
H300 C323 0.951 . S
H301 C288 0.947 . S
H302 C290 0.952 . S
H303 C291 0.950 . S
N304 C307 1.382 . S
N304 C309 1.363 . S
N305 C307 1.371 . S
N305 C308 1.372 . S
N306 C308 1.361 . S
N306 C309 1.377 . S
C307 N304 1.382 . S
C307 N305 1.371 . S
C307 C310 1.480 . S
C308 N305 1.372 . S
C308 N306 1.361 . S
C308 C316 1.457 . S
C309 N304 1.363 . S
C309 N306 1.377 . S
C309 C322 1.479 . S
C310 C307 1.480 . S
C310 C311 1.383 . S
C310 C315 1.385 . S
C311 H292 0.947 . S
C311 C310 1.383 . S
C311 C312 1.388 . S
C312 H293 0.946 . S
C312 C311 1.388 . S
C312 C313 1.384 . S
C313 C312 1.384 . S
C313 C314 1.377 . S
C314 H294 0.953 . S
C314 C313 1.377 . S
C314 C315 1.369 . S
C315 H295 0.945 . S
C315 C310 1.385 . S
C315 C314 1.369 . S
C316 C308 1.457 . S
C316 C317 1.372 . S
C316 C321 1.364 . S
C317 H296 0.952 . S
C317 C316 1.372 . S
C317 C318 1.389 . S
C318 H297 0.949 . S
C318 C317 1.389 . S
C318 C319 1.387 . S
C319 C318 1.387 . S
C319 C320 1.372 . S
C320 H298 0.950 . S
C320 C319 1.372 . S
C320 C321 1.379 . S
C321 H299 0.948 . S
C321 C316 1.364 . S
C321 C320 1.379 . S
C322 C291 1.383 . S
C322 C309 1.479 . S
C322 C323 1.398 . S
C323 C288 1.382 . S
C323 H300 0.951 . S
C323 C322 1.398 . S
C324 C325 1.384 . S
C324 H337 0.947 . S
C324 C359 1.382 . S
C325 C324 1.384 . S
C325 C326 1.378 . S
C326 C325 1.378 . S
C326 C327 1.378 . S
C326 H338 0.952 . S
C327 C326 1.378 . S
C327 H339 0.950 . S
C327 C358 1.383 . S
H328 C347 0.947 . S
H329 C348 0.946 . S
H330 C350 0.953 . S
H331 C351 0.945 . S
H332 C353 0.952 . S
H333 C354 0.949 . S
H334 C356 0.950 . S
H335 C357 0.948 . S
H336 C359 0.951 . S
H337 C324 0.947 . S
H338 C326 0.952 . S
H339 C327 0.950 . S
N340 C343 1.382 . S
N340 C345 1.363 . S
N341 C343 1.371 . S
N341 C344 1.372 . S
N342 C344 1.361 . S
N342 C345 1.377 . S
C343 N340 1.382 . S
C343 N341 1.371 . S
C343 C346 1.480 . S
C344 N341 1.372 . S
C344 N342 1.361 . S
C344 C352 1.457 . S
C345 N340 1.363 . S
C345 N342 1.377 . S
C345 C358 1.479 . S
C346 C343 1.480 . S
C346 C347 1.383 . S
C346 C351 1.385 . S
C347 H328 0.947 . S
C347 C346 1.383 . S
C347 C348 1.388 . S
C348 H329 0.946 . S
C348 C347 1.388 . S
C348 C349 1.384 . S
C349 C348 1.384 . S
C349 C350 1.377 . S
C350 H330 0.953 . S
C350 C349 1.377 . S
C350 C351 1.369 . S
C351 H331 0.945 . S
C351 C346 1.385 . S
C351 C350 1.369 . S
C352 C344 1.457 . S
C352 C353 1.372 . S
C352 C357 1.364 . S
C353 H332 0.952 . S
C353 C352 1.372 . S
C353 C354 1.389 . S
C354 H333 0.949 . S
C354 C353 1.389 . S
C354 C355 1.387 . S
C355 C354 1.387 . S
C355 C356 1.372 . S
C356 H334 0.950 . S
C356 C355 1.372 . S
C356 C357 1.379 . S
C357 H335 0.948 . S
C357 C352 1.364 . S
C357 C356 1.379 . S
C358 C327 1.383 . S
C358 C345 1.479 . S
C358 C359 1.398 . S
C359 C324 1.382 . S
C359 H336 0.951 . S
C359 C358 1.398 . S
C360 C361 1.384 . S
C360 H373 0.947 . S
C360 C395 1.382 . S
C361 C360 1.384 . S
C361 C362 1.378 . S
C362 C361 1.378 . S
C362 C363 1.378 . S
C362 H374 0.952 . S
C363 C362 1.378 . S
C363 H375 0.950 . S
C363 C394 1.383 . S
H364 C383 0.947 . S
H365 C384 0.946 . S
H366 C386 0.953 . S
H367 C387 0.945 . S
H368 C389 0.952 . S
H369 C390 0.949 . S
H370 C392 0.950 . S
H371 C393 0.948 . S
H372 C395 0.951 . S
H373 C360 0.947 . S
H374 C362 0.952 . S
H375 C363 0.950 . S
N376 C379 1.382 . S
N376 C381 1.363 . S
N377 C379 1.371 . S
N377 C380 1.372 . S
N378 C380 1.361 . S
N378 C381 1.377 . S
C379 N376 1.382 . S
C379 N377 1.371 . S
C379 C382 1.480 . S
C380 N377 1.372 . S
C380 N378 1.361 . S
C380 C388 1.457 . S
C381 N376 1.363 . S
C381 N378 1.377 . S
C381 C394 1.479 . S
C382 C379 1.480 . S
C382 C383 1.383 . S
C382 C387 1.385 . S
C383 H364 0.947 . S
C383 C382 1.383 . S
C383 C384 1.388 . S
C384 H365 0.946 . S
C384 C383 1.388 . S
C384 C385 1.384 . S
C385 C384 1.384 . S
C385 C386 1.377 . S
C386 H366 0.953 . S
C386 C385 1.377 . S
C386 C387 1.369 . S
C387 H367 0.945 . S
C387 C382 1.385 . S
C387 C386 1.369 . S
C388 C380 1.457 . S
C388 C389 1.372 . S
C388 C393 1.364 . S
C389 H368 0.952 . S
C389 C388 1.372 . S
C389 C390 1.389 . S
C390 H369 0.949 . S
C390 C389 1.389 . S
C390 C391 1.387 . S
C391 C390 1.387 . S
C391 C392 1.372 . S
C392 H370 0.950 . S
C392 C391 1.372 . S
C392 C393 1.379 . S
C393 H371 0.948 . S
C393 C388 1.364 . S
C393 C392 1.379 . S
C394 C363 1.383 . S
C394 C381 1.479 . S
C394 C395 1.398 . S
C395 C360 1.382 . S
C395 H372 0.951 . S
C395 C394 1.398 . S
C396 C397 1.384 . S
C396 H409 0.947 . S
C396 C431 1.382 . S
C397 C396 1.384 . S
C397 C398 1.378 . S
C398 C397 1.378 . S
C398 C399 1.378 . S
C398 H410 0.952 . S
C399 C398 1.378 . S
C399 H411 0.950 . S
C399 C430 1.383 . S
H400 C419 0.947 . S
H401 C420 0.946 . S
H402 C422 0.953 . S
H403 C423 0.945 . S
H404 C425 0.952 . S
H405 C426 0.949 . S
H406 C428 0.950 . S
H407 C429 0.948 . S
H408 C431 0.951 . S
H409 C396 0.947 . S
H410 C398 0.952 . S
H411 C399 0.950 . S
N412 C415 1.382 . S
N412 C417 1.363 . S
N413 C415 1.371 . S
N413 C416 1.372 . S
N414 C416 1.361 . S
N414 C417 1.377 . S
C415 N412 1.382 . S
C415 N413 1.371 . S
C415 C418 1.480 . S
C416 N413 1.372 . S
C416 N414 1.361 . S
C416 C424 1.457 . S
C417 N412 1.363 . S
C417 N414 1.377 . S
C417 C430 1.479 . S
C418 C415 1.480 . S
C418 C419 1.383 . S
C418 C423 1.385 . S
C419 H400 0.947 . S
C419 C418 1.383 . S
C419 C420 1.388 . S
C420 H401 0.946 . S
C420 C419 1.388 . S
C420 C421 1.384 . S
C421 C420 1.384 . S
C421 C422 1.377 . S
C422 H402 0.953 . S
C422 C421 1.377 . S
C422 C423 1.369 . S
C423 H403 0.945 . S
C423 C418 1.385 . S
C423 C422 1.369 . S
C424 C416 1.457 . S
C424 C425 1.372 . S
C424 C429 1.364 . S
C425 H404 0.952 . S
C425 C424 1.372 . S
C425 C426 1.389 . S
C426 H405 0.949 . S
C426 C425 1.389 . S
C426 C427 1.387 . S
C427 C426 1.387 . S
C427 C428 1.372 . S
C428 H406 0.950 . S
C428 C427 1.372 . S
C428 C429 1.379 . S
C429 H407 0.948 . S
C429 C424 1.364 . S
C429 C428 1.379 . S
C430 C399 1.383 . S
C430 C417 1.479 . S
C430 C431 1.398 . S
C431 C396 1.382 . S
C431 H408 0.951 . S
C431 C430 1.398 . S
C432 C433 1.384 . S
C432 H445 0.947 . S
C432 C467 1.382 . S
C433 C432 1.384 . S
C433 C434 1.378 . S
C434 C433 1.378 . S
C434 C435 1.378 . S
C434 H446 0.952 . S
C435 C434 1.378 . S
C435 H447 0.950 . S
C435 C466 1.383 . S
H436 C455 0.947 . S
H437 C456 0.946 . S
H438 C458 0.953 . S
H439 C459 0.945 . S
H440 C461 0.952 . S
H441 C462 0.949 . S
H442 C464 0.950 . S
H443 C465 0.948 . S
H444 C467 0.951 . S
H445 C432 0.947 . S
H446 C434 0.952 . S
H447 C435 0.950 . S
N448 C451 1.382 . S
N448 C453 1.363 . S
N449 C451 1.371 . S
N449 C452 1.372 . S
N450 C452 1.361 . S
N450 C453 1.377 . S
C451 N448 1.382 . S
C451 N449 1.371 . S
C451 C454 1.480 . S
C452 N449 1.372 . S
C452 N450 1.361 . S
C452 C460 1.457 . S
C453 N448 1.363 . S
C453 N450 1.377 . S
C453 C466 1.479 . S
C454 C451 1.480 . S
C454 C455 1.383 . S
C454 C459 1.385 . S
C455 H436 0.947 . S
C455 C454 1.383 . S
C455 C456 1.388 . S
C456 H437 0.946 . S
C456 C455 1.388 . S
C456 C457 1.384 . S
C457 C456 1.384 . S
C457 C458 1.377 . S
C458 H438 0.953 . S
C458 C457 1.377 . S
C458 C459 1.369 . S
C459 H439 0.945 . S
C459 C454 1.385 . S
C459 C458 1.369 . S
C460 C452 1.457 . S
C460 C461 1.372 . S
C460 C465 1.364 . S
C461 H440 0.952 . S
C461 C460 1.372 . S
C461 C462 1.389 . S
C462 H441 0.949 . S
C462 C461 1.389 . S
C462 C463 1.387 . S
C463 C462 1.387 . S
C463 C464 1.372 . S
C464 H442 0.950 . S
C464 C463 1.372 . S
C464 C465 1.379 . S
C465 H443 0.948 . S
C465 C460 1.364 . S
C465 C464 1.379 . S
C466 C435 1.383 . S
C466 C453 1.479 . S
C466 C467 1.398 . S
C467 C432 1.382 . S
C467 H444 0.951 . S
C467 C466 1.398 . S
C468 C469 1.384 . S
C468 H481 0.947 . S
C468 C503 1.382 . S
C469 C468 1.384 . S
C469 C470 1.378 . S
C470 C469 1.378 . S
C470 C471 1.378 . S
C470 H482 0.952 . S
C471 C470 1.378 . S
C471 H483 0.950 . S
C471 C502 1.383 . S
H472 C491 0.947 . S
H473 C492 0.946 . S
H474 C494 0.953 . S
H475 C495 0.945 . S
H476 C497 0.952 . S
H477 C498 0.949 . S
H478 C500 0.950 . S
H479 C501 0.948 . S
H480 C503 0.951 . S
H481 C468 0.947 . S
H482 C470 0.952 . S
H483 C471 0.950 . S
N484 C487 1.382 . S
N484 C489 1.363 . S
N485 C487 1.371 . S
N485 C488 1.372 . S
N486 C488 1.361 . S
N486 C489 1.377 . S
C487 N484 1.382 . S
C487 N485 1.371 . S
C487 C490 1.480 . S
C488 N485 1.372 . S
C488 N486 1.361 . S
C488 C496 1.457 . S
C489 N484 1.363 . S
C489 N486 1.377 . S
C489 C502 1.479 . S
C490 C487 1.480 . S
C490 C491 1.383 . S
C490 C495 1.385 . S
C491 H472 0.947 . S
C491 C490 1.383 . S
C491 C492 1.388 . S
C492 H473 0.946 . S
C492 C491 1.388 . S
C492 C493 1.384 . S
C493 C492 1.384 . S
C493 C494 1.377 . S
C494 H474 0.953 . S
C494 C493 1.377 . S
C494 C495 1.369 . S
C495 H475 0.945 . S
C495 C490 1.385 . S
C495 C494 1.369 . S
C496 C488 1.457 . S
C496 C497 1.372 . S
C496 C501 1.364 . S
C497 H476 0.952 . S
C497 C496 1.372 . S
C497 C498 1.389 . S
C498 H477 0.949 . S
C498 C497 1.389 . S
C498 C499 1.387 . S
C499 C498 1.387 . S
C499 C500 1.372 . S
C500 H478 0.950 . S
C500 C499 1.372 . S
C500 C501 1.379 . S
C501 H479 0.948 . S
C501 C496 1.364 . S
C501 C500 1.379 . S
C502 C471 1.383 . S
C502 C489 1.479 . S
C502 C503 1.398 . S
C503 C468 1.382 . S
C503 H480 0.951 . S
C503 C502 1.398 . S
C504 C505 1.384 . S
C504 H517 0.947 . S
C504 C539 1.382 . S
C505 C504 1.384 . S
C505 C506 1.378 . S
C506 C505 1.378 . S
C506 C507 1.378 . S
C506 H518 0.952 . S
C507 C506 1.378 . S
C507 H519 0.950 . S
C507 C538 1.383 . S
H508 C527 0.947 . S
H509 C528 0.946 . S
H510 C530 0.953 . S
H511 C531 0.945 . S
H512 C533 0.952 . S
H513 C534 0.949 . S
H514 C536 0.950 . S
H515 C537 0.948 . S
H516 C539 0.951 . S
H517 C504 0.947 . S
H518 C506 0.952 . S
H519 C507 0.950 . S
N520 C523 1.382 . S
N520 C525 1.363 . S
N521 C523 1.371 . S
N521 C524 1.372 . S
N522 C524 1.361 . S
N522 C525 1.377 . S
C523 N520 1.382 . S
C523 N521 1.371 . S
C523 C526 1.480 . S
C524 N521 1.372 . S
C524 N522 1.361 . S
C524 C532 1.457 . S
C525 N520 1.363 . S
C525 N522 1.377 . S
C525 C538 1.479 . S
C526 C523 1.480 . S
C526 C527 1.383 . S
C526 C531 1.385 . S
C527 H508 0.947 . S
C527 C526 1.383 . S
C527 C528 1.388 . S
C528 H509 0.946 . S
C528 C527 1.388 . S
C528 C529 1.384 . S
C529 C528 1.384 . S
C529 C530 1.377 . S
C530 H510 0.953 . S
C530 C529 1.377 . S
C530 C531 1.369 . S
C531 H511 0.945 . S
C531 C526 1.385 . S
C531 C530 1.369 . S
C532 C524 1.457 . S
C532 C533 1.372 . S
C532 C537 1.364 . S
C533 H512 0.952 . S
C533 C532 1.372 . S
C533 C534 1.389 . S
C534 H513 0.949 . S
C534 C533 1.389 . S
C534 C535 1.387 . S
C535 C534 1.387 . S
C535 C536 1.372 . S
C536 H514 0.950 . S
C536 C535 1.372 . S
C536 C537 1.379 . S
C537 H515 0.948 . S
C537 C532 1.364 . S
C537 C536 1.379 . S
C538 C507 1.383 . S
C538 C525 1.479 . S
C538 C539 1.398 . S
C539 C504 1.382 . S
C539 H516 0.951 . S
C539 C538 1.398 . S
C540 C541 1.384 . S
C540 H553 0.947 . S
C540 C575 1.382 . S
C541 C540 1.384 . S
C541 C542 1.378 . S
C542 C541 1.378 . S
C542 C543 1.378 . S
C542 H554 0.952 . S
C543 C542 1.378 . S
C543 H555 0.950 . S
C543 C574 1.383 . S
H544 C563 0.947 . S
H545 C564 0.946 . S
H546 C566 0.953 . S
H547 C567 0.945 . S
H548 C569 0.952 . S
H549 C570 0.949 . S
H550 C572 0.950 . S
H551 C573 0.948 . S
H552 C575 0.951 . S
H553 C540 0.947 . S
H554 C542 0.952 . S
H555 C543 0.950 . S
N556 C559 1.382 . S
N556 C561 1.363 . S
N557 C559 1.371 . S
N557 C560 1.372 . S
N558 C560 1.361 . S
N558 C561 1.377 . S
C559 N556 1.382 . S
C559 N557 1.371 . S
C559 C562 1.480 . S
C560 N557 1.372 . S
C560 N558 1.361 . S
C560 C568 1.457 . S
C561 N556 1.363 . S
C561 N558 1.377 . S
C561 C574 1.479 . S
C562 C559 1.480 . S
C562 C563 1.383 . S
C562 C567 1.385 . S
C563 H544 0.947 . S
C563 C562 1.383 . S
C563 C564 1.388 . S
C564 H545 0.946 . S
C564 C563 1.388 . S
C564 C565 1.384 . S
C565 C564 1.384 . S
C565 C566 1.377 . S
C566 H546 0.953 . S
C566 C565 1.377 . S
C566 C567 1.369 . S
C567 H547 0.945 . S
C567 C562 1.385 . S
C567 C566 1.369 . S
C568 C560 1.457 . S
C568 C569 1.372 . S
C568 C573 1.364 . S
C569 H548 0.952 . S
C569 C568 1.372 . S
C569 C570 1.389 . S
C570 H549 0.949 . S
C570 C569 1.389 . S
C570 C571 1.387 . S
C571 C570 1.387 . S
C571 C572 1.372 . S
C572 H550 0.950 . S
C572 C571 1.372 . S
C572 C573 1.379 . S
C573 H551 0.948 . S
C573 C568 1.364 . S
C573 C572 1.379 . S
C574 C543 1.383 . S
C574 C561 1.479 . S
C574 C575 1.398 . S
C575 C540 1.382 . S
C575 H552 0.951 . S
C575 C574 1.398 . S
C576 C577 1.384 . S
C576 H589 0.947 . S
C576 C611 1.382 . S
C577 C576 1.384 . S
C577 C578 1.378 . S
C578 C577 1.378 . S
C578 C579 1.378 . S
C578 H590 0.952 . S
C579 C578 1.378 . S
C579 H591 0.950 . S
C579 C610 1.383 . S
H580 C599 0.947 . S
H581 C600 0.946 . S
H582 C602 0.953 . S
H583 C603 0.945 . S
H584 C605 0.952 . S
H585 C606 0.949 . S
H586 C608 0.950 . S
H587 C609 0.948 . S
H588 C611 0.951 . S
H589 C576 0.947 . S
H590 C578 0.952 . S
H591 C579 0.950 . S
N592 C595 1.382 . S
N592 C597 1.363 . S
N593 C595 1.371 . S
N593 C596 1.372 . S
N594 C596 1.361 . S
N594 C597 1.377 . S
C595 N592 1.382 . S
C595 N593 1.371 . S
C595 C598 1.480 . S
C596 N593 1.372 . S
C596 N594 1.361 . S
C596 C604 1.457 . S
C597 N592 1.363 . S
C597 N594 1.377 . S
C597 C610 1.479 . S
C598 C595 1.480 . S
C598 C599 1.383 . S
C598 C603 1.385 . S
C599 H580 0.947 . S
C599 C598 1.383 . S
C599 C600 1.388 . S
C600 H581 0.946 . S
C600 C599 1.388 . S
C600 C601 1.384 . S
C601 C600 1.384 . S
C601 C602 1.377 . S
C602 H582 0.953 . S
C602 C601 1.377 . S
C602 C603 1.369 . S
C603 H583 0.945 . S
C603 C598 1.385 . S
C603 C602 1.369 . S
C604 C596 1.457 . S
C604 C605 1.372 . S
C604 C609 1.364 . S
C605 H584 0.952 . S
C605 C604 1.372 . S
C605 C606 1.389 . S
C606 H585 0.949 . S
C606 C605 1.389 . S
C606 C607 1.387 . S
C607 C606 1.387 . S
C607 C608 1.372 . S
C608 H586 0.950 . S
C608 C607 1.372 . S
C608 C609 1.379 . S
C609 H587 0.948 . S
C609 C604 1.364 . S
C609 C608 1.379 . S
C610 C579 1.383 . S
C610 C597 1.479 . S
C610 C611 1.398 . S
C611 C576 1.382 . S
C611 H588 0.951 . S
C611 C610 1.398 . S
C612 C613 1.384 . S
C612 H625 0.947 . S
C612 C647 1.382 . S
C613 C612 1.384 . S
C613 C614 1.378 . S
C614 C613 1.378 . S
C614 C615 1.378 . S
C614 H626 0.952 . S
C615 C614 1.378 . S
C615 H627 0.950 . S
C615 C646 1.383 . S
H616 C635 0.947 . S
H617 C636 0.946 . S
H618 C638 0.953 . S
H619 C639 0.945 . S
H620 C641 0.952 . S
H621 C642 0.949 . S
H622 C644 0.950 . S
H623 C645 0.948 . S
H624 C647 0.951 . S
H625 C612 0.947 . S
H626 C614 0.952 . S
H627 C615 0.950 . S
N628 C631 1.382 . S
N628 C633 1.363 . S
N629 C631 1.371 . S
N629 C632 1.372 . S
N630 C632 1.361 . S
N630 C633 1.377 . S
C631 N628 1.382 . S
C631 N629 1.371 . S
C631 C634 1.480 . S
C632 N629 1.372 . S
C632 N630 1.361 . S
C632 C640 1.457 . S
C633 N628 1.363 . S
C633 N630 1.377 . S
C633 C646 1.479 . S
C634 C631 1.480 . S
C634 C635 1.383 . S
C634 C639 1.385 . S
C635 H616 0.947 . S
C635 C634 1.383 . S
C635 C636 1.388 . S
C636 H617 0.946 . S
C636 C635 1.388 . S
C636 C637 1.384 . S
C637 C636 1.384 . S
C637 C638 1.377 . S
C638 H618 0.953 . S
C638 C637 1.377 . S
C638 C639 1.369 . S
C639 H619 0.945 . S
C639 C634 1.385 . S
C639 C638 1.369 . S
C640 C632 1.457 . S
C640 C641 1.372 . S
C640 C645 1.364 . S
C641 H620 0.952 . S
C641 C640 1.372 . S
C641 C642 1.389 . S
C642 H621 0.949 . S
C642 C641 1.389 . S
C642 C643 1.387 . S
C643 C642 1.387 . S
C643 C644 1.372 . S
C644 H622 0.950 . S
C644 C643 1.372 . S
C644 C645 1.379 . S
C645 H623 0.948 . S
C645 C640 1.364 . S
C645 C644 1.379 . S
C646 C615 1.383 . S
C646 C633 1.479 . S
C646 C647 1.398 . S
C647 C612 1.382 . S
C647 H624 0.951 . S
C647 C646 1.398 . S
Eu648 N679 2.657 . S
Eu648 N686 2.609 . S
Eu648 O692 2.558 . S
Eu648 O693 2.612 1_565 S
Eu648 O695 2.339 1_565 S
Eu648 O696 2.563 1_565 S
Eu648 O697 2.419 . S
Eu648 O699 2.380 1_556 S
Eu648 O700 2.432 . S
Eu648 C712 2.848 . S
C649 C652 1.429 . S
C649 C653 1.411 . S
C649 N656 1.377 . S
C650 C652 1.420 . S
C650 C654 1.423 . S
C650 C662 1.392 . S
C651 C653 1.420 . S
C651 C654 1.351 . S
C651 H674 0.931 . S
C652 C649 1.429 . S
C652 C650 1.420 . S
C652 N660 1.362 . S
C653 C649 1.411 . S
C653 C651 1.420 . S
C653 C658 1.395 . S
C654 C650 1.423 . S
C654 C651 1.351 . S
C654 H666 0.930 . S
C655 C657 1.400 . S
C655 C658 1.386 . S
C655 H667 0.930 . S
N656 C649 1.377 . S
N656 C657 1.321 . S
N656 Eu659 2.609 . S
C657 C655 1.400 . S
C657 N656 1.321 . S
C657 H664 0.930 . S
C658 C653 1.395 . S
C658 C655 1.386 . S
C658 H677 0.930 . S
Eu659 N656 2.609 . S
Eu659 N660 2.657 . S
Eu659 O693 2.380 1_554 S
Eu659 O694 2.432 . S
Eu659 O698 2.558 . S
Eu659 O699 2.612 1_545 S
Eu659 O701 2.339 1_545 S
Eu659 O702 2.563 1_545 S
Eu659 O703 2.419 . S
Eu659 C723 2.848 . S
N660 C652 1.362 . S
N660 Eu659 2.657 . S
N660 C661 1.334 . S
C661 N660 1.334 . S
C661 C663 1.413 . S
C661 H668 0.929 . S
C662 C650 1.392 . S
C662 C663 1.367 . S
C662 H670 0.930 . S
C663 C661 1.413 . S
C663 C662 1.367 . S
C663 H665 0.930 . S
H664 C657 0.930 . S
H665 C663 0.930 . S
H666 C654 0.930 . S
H667 C655 0.930 . S
H668 C661 0.929 . S
H669 C683 0.930 . S
H670 C662 0.930 . S
H671 C689 0.930 . S
H672 C680 0.929 . S
H673 C687 0.930 . S
H674 C651 0.931 . S
H675 C681 0.930 . S
H676 C714 0.930 . S
H677 C658 0.930 . S
H678 C713 0.931 . S
N679 Eu648 2.657 . S
N679 C680 1.334 . S
N679 C684 1.362 . S
C680 H672 0.929 . S
C680 N679 1.334 . S
C680 C683 1.413 . S
C681 H675 0.930 . S
C681 C682 1.392 . S
C681 C683 1.367 . S
C682 C681 1.392 . S
C682 C684 1.420 . S
C682 C714 1.423 . S
C683 H669 0.930 . S
C683 C680 1.413 . S
C683 C681 1.367 . S
C684 N679 1.362 . S
C684 C682 1.420 . S
C684 C688 1.429 . S
H685 C690 0.930 . S
N686 Eu648 2.609 . S
N686 C688 1.377 . S
N686 C689 1.321 . S
C687 H673 0.930 . S
C687 C689 1.400 . S
C687 C690 1.386 . S
C688 C684 1.429 . S
C688 N686 1.377 . S
C688 C691 1.411 . S
C689 H671 0.930 . S
C689 N686 1.321 . S
C689 C687 1.400 . S
C690 H685 0.930 . S
C690 C687 1.386 . S
C690 C691 1.395 . S
C691 C688 1.411 . S
C691 C690 1.395 . S
C691 C713 1.420 . S
O692 Eu648 2.558 . S
O692 C712 1.257 . S
O693 Eu648 2.612 1_545 S
O693 Eu659 2.380 1_556 S
O693 C704 1.276 . S
O694 Eu659 2.432 . S
O694 C711 1.264 1_554 S
O695 Eu648 2.339 1_545 S
O695 C711 1.254 . S
O696 Eu648 2.563 1_545 S
O696 C704 1.235 . S
O697 Eu648 2.419 . S
O697 C712 1.249 . S
O698 Eu659 2.558 . S
O698 C723 1.257 . S
O699 Eu648 2.380 1_554 S
O699 Eu659 2.612 1_565 S
O699 C715 1.276 . S
O700 Eu648 2.432 . S
O700 C722 1.264 1_556 S
O701 Eu659 2.339 1_565 S
O701 C722 1.254 . S
O702 Eu659 2.563 1_565 S
O702 C715 1.235 . S
O703 Eu659 2.419 . S
O703 C723 1.249 . S
C704 O693 1.276 . S
C704 O696 1.235 . S
C705 C707 1.393 1_565 S
C705 C709 1.395 . S
C705 C712 1.492 . S
C706 C707 1.392 . S
C706 C708 1.386 1_545 S
C707 C705 1.393 1_545 S
C707 C706 1.392 . S
C707 H724 0.930 . S
C708 C706 1.386 1_565 S
C708 C710 1.395 . S
C708 H725 0.930 . S
C709 C705 1.395 . S
C709 C710 1.379 . S
C709 H726 0.930 . S
C710 C708 1.395 . S
C710 C709 1.379 . S
C710 H727 0.930 . S
C711 O694 1.264 1_556 S
C711 O695 1.254 . S
C712 Eu648 2.848 . S
C712 O692 1.257 . S
C712 O697 1.249 . S
C712 C705 1.492 . S
C713 H678 0.931 . S
C713 C691 1.420 . S
C713 C714 1.351 . S
C714 H676 0.930 . S
C714 C682 1.423 . S
C714 C713 1.351 . S
C715 O699 1.276 . S
C715 O702 1.235 . S
C716 C717 1.393 1_545 S
C716 C720 1.395 . S
C716 C723 1.492 . S
C717 C716 1.393 1_565 S
C717 C718 1.392 . S
C717 H728 0.930 . S
C718 C717 1.392 . S
C718 C719 1.386 1_565 S
C719 C718 1.386 1_545 S
C719 C721 1.395 . S
C719 H729 0.930 . S
C720 C716 1.395 . S
C720 C721 1.379 . S
C720 H730 0.930 . S
C721 C719 1.395 . S
C721 C720 1.379 . S
C721 H731 0.930 . S
C722 O700 1.264 1_554 S
C722 O701 1.254 . S
C723 Eu659 2.848 . S
C723 O698 1.257 . S
C723 O703 1.249 . S
C723 C716 1.492 . S
H724 C707 0.930 . S
H725 C708 0.930 . S
H726 C709 0.930 . S
H727 C710 0.930 . S
H728 C717 0.930 . S
H729 C719 0.930 . S
H730 C720 0.930 . S
H731 C721 0.930 . S
Eu732 N763 2.657 . S
Eu732 N770 2.609 . S
Eu732 O776 2.558 . S
Eu732 O777 2.612 1_455 S
Eu732 O779 2.339 1_455 S
Eu732 O780 2.563 1_455 S
Eu732 O781 2.419 . S
Eu732 O783 2.380 1_556 S
Eu732 O784 2.432 . S
Eu732 C796 2.848 . S
C733 C736 1.429 . S
C733 C737 1.411 . S
C733 N740 1.377 . S
C734 C736 1.420 . S
C734 C738 1.423 . S
C734 C746 1.392 . S
C735 C737 1.420 . S
C735 C738 1.351 . S
C735 H758 0.931 . S
C736 C733 1.429 . S
C736 C734 1.420 . S
C736 N744 1.362 . S
C737 C733 1.411 . S
C737 C735 1.420 . S
C737 C742 1.395 . S
C738 C734 1.423 . S
C738 C735 1.351 . S
C738 H750 0.930 . S
C739 C741 1.400 . S
C739 C742 1.386 . S
C739 H751 0.930 . S
N740 C733 1.377 . S
N740 C741 1.321 . S
N740 Eu743 2.609 . S
C741 C739 1.400 . S
C741 N740 1.321 . S
C741 H748 0.930 . S
C742 C737 1.395 . S
C742 C739 1.386 . S
C742 H761 0.930 . S
Eu743 N740 2.609 . S
Eu743 N744 2.657 . S
Eu743 O777 2.380 1_554 S
Eu743 O778 2.432 . S
Eu743 O782 2.558 . S
Eu743 O783 2.612 1_655 S
Eu743 O785 2.339 1_655 S
Eu743 O786 2.563 1_655 S
Eu743 O787 2.419 . S
Eu743 C807 2.848 . S
N744 C736 1.362 . S
N744 Eu743 2.657 . S
N744 C745 1.334 . S
C745 N744 1.334 . S
C745 C747 1.413 . S
C745 H752 0.929 . S
C746 C734 1.392 . S
C746 C747 1.367 . S
C746 H754 0.930 . S
C747 C745 1.413 . S
C747 C746 1.367 . S
C747 H749 0.930 . S
H748 C741 0.930 . S
H749 C747 0.930 . S
H750 C738 0.930 . S
H751 C739 0.930 . S
H752 C745 0.929 . S
H753 C767 0.930 . S
H754 C746 0.930 . S
H755 C773 0.930 . S
H756 C764 0.929 . S
H757 C771 0.930 . S
H758 C735 0.931 . S
H759 C765 0.930 . S
H760 C798 0.930 . S
H761 C742 0.930 . S
H762 C797 0.931 . S
N763 Eu732 2.657 . S
N763 C764 1.334 . S
N763 C768 1.362 . S
C764 H756 0.929 . S
C764 N763 1.334 . S
C764 C767 1.413 . S
C765 H759 0.930 . S
C765 C766 1.392 . S
C765 C767 1.367 . S
C766 C765 1.392 . S
C766 C768 1.420 . S
C766 C798 1.423 . S
C767 H753 0.930 . S
C767 C764 1.413 . S
C767 C765 1.367 . S
C768 N763 1.362 . S
C768 C766 1.420 . S
C768 C772 1.429 . S
H769 C774 0.930 . S
N770 Eu732 2.609 . S
N770 C772 1.377 . S
N770 C773 1.321 . S
C771 H757 0.930 . S
C771 C773 1.400 . S
C771 C774 1.386 . S
C772 C768 1.429 . S
C772 N770 1.377 . S
C772 C775 1.411 . S
C773 H755 0.930 . S
C773 N770 1.321 . S
C773 C771 1.400 . S
C774 H769 0.930 . S
C774 C771 1.386 . S
C774 C775 1.395 . S
C775 C772 1.411 . S
C775 C774 1.395 . S
C775 C797 1.420 . S
O776 Eu732 2.558 . S
O776 C796 1.257 . S
O777 Eu732 2.612 1_655 S
O777 Eu743 2.380 1_556 S
O777 C788 1.276 . S
O778 Eu743 2.432 . S
O778 C795 1.264 1_554 S
O779 Eu732 2.339 1_655 S
O779 C795 1.254 . S
O780 Eu732 2.563 1_655 S
O780 C788 1.235 . S
O781 Eu732 2.419 . S
O781 C796 1.249 . S
O782 Eu743 2.558 . S
O782 C807 1.257 . S
O783 Eu732 2.380 1_554 S
O783 Eu743 2.612 1_455 S
O783 C799 1.276 . S
O784 Eu732 2.432 . S
O784 C806 1.264 1_556 S
O785 Eu743 2.339 1_455 S
O785 C806 1.254 . S
O786 Eu743 2.563 1_455 S
O786 C799 1.235 . S
O787 Eu743 2.419 . S
O787 C807 1.249 . S
C788 O777 1.276 . S
C788 O780 1.235 . S
C789 C791 1.393 1_455 S
C789 C793 1.395 . S
C789 C796 1.492 . S
C790 C791 1.392 . S
C790 C792 1.386 1_655 S
C791 C789 1.393 1_655 S
C791 C790 1.392 . S
C791 H808 0.930 . S
C792 C790 1.386 1_455 S
C792 C794 1.395 . S
C792 H809 0.930 . S
C793 C789 1.395 . S
C793 C794 1.379 . S
C793 H810 0.930 . S
C794 C792 1.395 . S
C794 C793 1.379 . S
C794 H811 0.930 . S
C795 O778 1.264 1_556 S
C795 O779 1.254 . S
C796 Eu732 2.848 . S
C796 O776 1.257 . S
C796 O781 1.249 . S
C796 C789 1.492 . S
C797 H762 0.931 . S
C797 C775 1.420 . S
C797 C798 1.351 . S
C798 H760 0.930 . S
C798 C766 1.423 . S
C798 C797 1.351 . S
C799 O783 1.276 . S
C799 O786 1.235 . S
C800 C801 1.393 1_655 S
C800 C804 1.395 . S
C800 C807 1.492 . S
C801 C800 1.393 1_455 S
C801 C802 1.392 . S
C801 H812 0.930 . S
C802 C801 1.392 . S
C802 C803 1.386 1_455 S
C803 C802 1.386 1_655 S
C803 C805 1.395 . S
C803 H813 0.930 . S
C804 C800 1.395 . S
C804 C805 1.379 . S
C804 H814 0.930 . S
C805 C803 1.395 . S
C805 C804 1.379 . S
C805 H815 0.930 . S
C806 O784 1.264 1_554 S
C806 O785 1.254 . S
C807 Eu743 2.848 . S
C807 O782 1.257 . S
C807 O787 1.249 . S
C807 C800 1.492 . S
H808 C791 0.930 . S
H809 C792 0.930 . S
H810 C793 0.930 . S
H811 C794 0.930 . S
H812 C801 0.930 . S
H813 C803 0.930 . S
H814 C804 0.930 . S
H815 C805 0.930 . S
Eu816 N847 2.657 . S
Eu816 N854 2.609 . S
Eu816 O860 2.558 . S
Eu816 O861 2.612 . S
Eu816 O863 2.339 . S
Eu816 O864 2.563 . S
Eu816 O865 2.419 . S
Eu816 O867 2.380 1_554 S
Eu816 O868 2.432 . S
Eu816 C880 2.848 . S
C817 C820 1.429 . S
C817 C821 1.411 . S
C817 N824 1.377 . S
C818 C820 1.420 . S
C818 C822 1.423 . S
C818 C830 1.392 . S
C819 C821 1.420 . S
C819 C822 1.351 . S
C819 H842 0.931 . S
C820 C817 1.429 . S
C820 C818 1.420 . S
C820 N828 1.362 . S
C821 C817 1.411 . S
C821 C819 1.420 . S
C821 C826 1.395 . S
C822 C818 1.423 . S
C822 C819 1.351 . S
C822 H834 0.930 . S
C823 C825 1.400 . S
C823 C826 1.386 . S
C823 H835 0.930 . S
N824 C817 1.377 . S
N824 C825 1.321 . S
N824 Eu827 2.609 . S
C825 C823 1.400 . S
C825 N824 1.321 . S
C825 H832 0.930 . S
C826 C821 1.395 . S
C826 C823 1.386 . S
C826 H845 0.930 . S
Eu827 N824 2.609 . S
Eu827 N828 2.657 . S
Eu827 O861 2.380 1_556 S
Eu827 O862 2.432 . S
Eu827 O866 2.558 . S
Eu827 O867 2.612 . S
Eu827 O869 2.339 . S
Eu827 O870 2.563 . S
Eu827 O871 2.419 . S
Eu827 C891 2.848 . S
N828 C820 1.362 . S
N828 Eu827 2.657 . S
N828 C829 1.334 . S
C829 N828 1.334 . S
C829 C831 1.413 . S
C829 H836 0.929 . S
C830 C818 1.392 . S
C830 C831 1.367 . S
C830 H838 0.930 . S
C831 C829 1.413 . S
C831 C830 1.367 . S
C831 H833 0.930 . S
H832 C825 0.930 . S
H833 C831 0.930 . S
H834 C822 0.930 . S
H835 C823 0.930 . S
H836 C829 0.929 . S
H837 C851 0.930 . S
H838 C830 0.930 . S
H839 C857 0.930 . S
H840 C848 0.929 . S
H841 C855 0.930 . S
H842 C819 0.931 . S
H843 C849 0.930 . S
H844 C882 0.930 . S
H845 C826 0.930 . S
H846 C881 0.931 . S
N847 Eu816 2.657 . S
N847 C848 1.334 . S
N847 C852 1.362 . S
C848 H840 0.929 . S
C848 N847 1.334 . S
C848 C851 1.413 . S
C849 H843 0.930 . S
C849 C850 1.392 . S
C849 C851 1.367 . S
C850 C849 1.392 . S
C850 C852 1.420 . S
C850 C882 1.423 . S
C851 H837 0.930 . S
C851 C848 1.413 . S
C851 C849 1.367 . S
C852 N847 1.362 . S
C852 C850 1.420 . S
C852 C856 1.429 . S
H853 C858 0.930 . S
N854 Eu816 2.609 . S
N854 C856 1.377 . S
N854 C857 1.321 . S
C855 H841 0.930 . S
C855 C857 1.400 . S
C855 C858 1.386 . S
C856 C852 1.429 . S
C856 N854 1.377 . S
C856 C859 1.411 . S
C857 H839 0.930 . S
C857 N854 1.321 . S
C857 C855 1.400 . S
C858 H853 0.930 . S
C858 C855 1.386 . S
C858 C859 1.395 . S
C859 C856 1.411 . S
C859 C858 1.395 . S
C859 C881 1.420 . S
O860 Eu816 2.558 . S
O860 C880 1.257 . S
O861 Eu816 2.612 . S
O861 Eu827 2.380 1_554 S
O861 C872 1.276 . S
O862 Eu827 2.432 . S
O862 C879 1.264 1_556 S
O863 Eu816 2.339 . S
O863 C879 1.254 . S
O864 Eu816 2.563 . S
O864 C872 1.235 . S
O865 Eu816 2.419 . S
O865 C880 1.249 . S
O866 Eu827 2.558 . S
O866 C891 1.257 . S
O867 Eu816 2.380 1_556 S
O867 Eu827 2.612 . S
O867 C883 1.276 . S
O868 Eu816 2.432 . S
O868 C890 1.264 1_554 S
O869 Eu827 2.339 . S
O869 C890 1.254 . S
O870 Eu827 2.563 . S
O870 C883 1.235 . S
O871 Eu827 2.419 . S
O871 C891 1.249 . S
C872 O861 1.276 . S
C872 O864 1.235 . S
C873 C875 1.393 . S
C873 C877 1.395 . S
C873 C880 1.492 . S
C874 C875 1.392 . S
C874 C876 1.386 . S
C875 C873 1.393 . S
C875 C874 1.392 . S
C875 H892 0.930 . S
C876 C874 1.386 . S
C876 C878 1.395 . S
C876 H893 0.930 . S
C877 C873 1.395 . S
C877 C878 1.379 . S
C877 H894 0.930 . S
C878 C876 1.395 . S
C878 C877 1.379 . S
C878 H895 0.930 . S
C879 O862 1.264 1_554 S
C879 O863 1.254 . S
C880 Eu816 2.848 . S
C880 O860 1.257 . S
C880 O865 1.249 . S
C880 C873 1.492 . S
C881 H846 0.931 . S
C881 C859 1.420 . S
C881 C882 1.351 . S
C882 H844 0.930 . S
C882 C850 1.423 . S
C882 C881 1.351 . S
C883 O867 1.276 . S
C883 O870 1.235 . S
C884 C885 1.393 . S
C884 C888 1.395 . S
C884 C891 1.492 . S
C885 C884 1.393 . S
C885 C886 1.392 . S
C885 H896 0.930 . S
C886 C885 1.392 . S
C886 C887 1.386 . S
C887 C886 1.386 . S
C887 C889 1.395 . S
C887 H897 0.930 . S
C888 C884 1.395 . S
C888 C889 1.379 . S
C888 H898 0.930 . S
C889 C887 1.395 . S
C889 C888 1.379 . S
C889 H899 0.930 . S
C890 O868 1.264 1_556 S
C890 O869 1.254 . S
C891 Eu827 2.848 . S
C891 O866 1.257 . S
C891 O871 1.249 . S
C891 C884 1.492 . S
H892 C875 0.930 . S
H893 C876 0.930 . S
H894 C877 0.930 . S
H895 C878 0.930 . S
H896 C885 0.930 . S
H897 C887 0.930 . S
H898 C888 0.930 . S
H899 C889 0.930 . S
Eu900 N931 2.657 . S
Eu900 N938 2.609 . S
Eu900 O944 2.558 . S
Eu900 O945 2.612 . S
Eu900 O947 2.339 . S
Eu900 O948 2.563 . S
Eu900 O949 2.419 . S
Eu900 O951 2.380 . S
Eu900 O952 2.432 . S
Eu900 C964 2.848 . S
C901 C904 1.429 . S
C901 C905 1.411 . S
C901 N908 1.377 . S
C902 C904 1.420 . S
C902 C906 1.423 . S
C902 C914 1.392 . S
C903 C905 1.420 . S
C903 C906 1.351 . S
C903 H926 0.931 . S
C904 C901 1.429 . S
C904 C902 1.420 . S
C904 N912 1.362 . S
C905 C901 1.411 . S
C905 C903 1.420 . S
C905 C910 1.395 . S
C906 C902 1.423 . S
C906 C903 1.351 . S
C906 H918 0.930 . S
C907 C909 1.400 . S
C907 C910 1.386 . S
C907 H919 0.930 . S
N908 C901 1.377 . S
N908 C909 1.321 . S
N908 Eu911 2.609 . S
C909 C907 1.400 . S
C909 N908 1.321 . S
C909 H916 0.930 . S
C910 C905 1.395 . S
C910 C907 1.386 . S
C910 H929 0.930 . S
Eu911 N908 2.609 . S
Eu911 N912 2.657 . S
Eu911 O945 2.380 . S
Eu911 O946 2.432 . S
Eu911 O950 2.558 . S
Eu911 O951 2.612 . S
Eu911 O953 2.339 . S
Eu911 O954 2.563 . S
Eu911 O955 2.419 . S
Eu911 C975 2.848 . S
N912 C904 1.362 . S
N912 Eu911 2.657 . S
N912 C913 1.334 . S
C913 N912 1.334 . S
C913 C915 1.413 . S
C913 H920 0.929 . S
C914 C902 1.392 . S
C914 C915 1.367 . S
C914 H922 0.930 . S
C915 C913 1.413 . S
C915 C914 1.367 . S
C915 H917 0.930 . S
H916 C909 0.930 . S
H917 C915 0.930 . S
H918 C906 0.930 . S
H919 C907 0.930 . S
H920 C913 0.929 . S
H921 C935 0.930 . S
H922 C914 0.930 . S
H923 C941 0.930 . S
H924 C932 0.929 . S
H925 C939 0.930 . S
H926 C903 0.931 . S
H927 C933 0.930 . S
H928 C966 0.930 . S
H929 C910 0.930 . S
H930 C965 0.931 . S
N931 Eu900 2.657 . S
N931 C932 1.334 . S
N931 C936 1.362 . S
C932 H924 0.929 . S
C932 N931 1.334 . S
C932 C935 1.413 . S
C933 H927 0.930 . S
C933 C934 1.392 . S
C933 C935 1.367 . S
C934 C933 1.392 . S
C934 C936 1.420 . S
C934 C966 1.423 . S
C935 H921 0.930 . S
C935 C932 1.413 . S
C935 C933 1.367 . S
C936 N931 1.362 . S
C936 C934 1.420 . S
C936 C940 1.429 . S
H937 C942 0.930 . S
N938 Eu900 2.609 . S
N938 C940 1.377 . S
N938 C941 1.321 . S
C939 H925 0.930 . S
C939 C941 1.400 . S
C939 C942 1.386 . S
C940 C936 1.429 . S
C940 N938 1.377 . S
C940 C943 1.411 . S
C941 H923 0.930 . S
C941 N938 1.321 . S
C941 C939 1.400 . S
C942 H937 0.930 . S
C942 C939 1.386 . S
C942 C943 1.395 . S
C943 C940 1.411 . S
C943 C942 1.395 . S
C943 C965 1.420 . S
O944 Eu900 2.558 . S
O944 C964 1.257 . S
O945 Eu900 2.612 . S
O945 Eu911 2.380 . S
O945 C956 1.276 . S
O946 Eu911 2.432 . S
O946 C963 1.264 . S
O947 Eu900 2.339 . S
O947 C963 1.254 . S
O948 Eu900 2.563 . S
O948 C956 1.235 . S
O949 Eu900 2.419 . S
O949 C964 1.249 . S
O950 Eu911 2.558 . S
O950 C975 1.257 . S
O951 Eu900 2.380 . S
O951 Eu911 2.612 . S
O951 C967 1.276 . S
O952 Eu900 2.432 . S
O952 C974 1.264 . S
O953 Eu911 2.339 . S
O953 C974 1.254 . S
O954 Eu911 2.563 . S
O954 C967 1.235 . S
O955 Eu911 2.419 . S
O955 C975 1.249 . S
C956 O945 1.276 . S
C956 O948 1.235 . S
C957 C959 1.393 . S
C957 C961 1.395 . S
C957 C964 1.492 . S
C958 C959 1.392 . S
C958 C960 1.386 . S
C959 C957 1.393 . S
C959 C958 1.392 . S
C959 H976 0.930 . S
C960 C958 1.386 . S
C960 C962 1.395 . S
C960 H977 0.930 . S
C961 C957 1.395 . S
C961 C962 1.379 . S
C961 H978 0.930 . S
C962 C960 1.395 . S
C962 C961 1.379 . S
C962 H979 0.930 . S
C963 O946 1.264 . S
C963 O947 1.254 . S
C964 Eu900 2.848 . S
C964 O944 1.257 . S
C964 O949 1.249 . S
C964 C957 1.492 . S
C965 H930 0.931 . S
C965 C943 1.420 . S
C965 C966 1.351 . S
C966 H928 0.930 . S
C966 C934 1.423 . S
C966 C965 1.351 . S
C967 O951 1.276 . S
C967 O954 1.235 . S
C968 C969 1.393 . S
C968 C972 1.395 . S
C968 C975 1.492 . S
C969 C968 1.393 . S
C969 C970 1.392 . S
C969 H980 0.930 . S
C970 C969 1.392 . S
C970 C971 1.386 . S
C971 C970 1.386 . S
C971 C973 1.395 . S
C971 H981 0.930 . S
C972 C968 1.395 . S
C972 C973 1.379 . S
C972 H982 0.930 . S
C973 C971 1.395 . S
C973 C972 1.379 . S
C973 H983 0.930 . S
C974 O952 1.264 . S
C974 O953 1.254 . S
C975 Eu911 2.848 . S
C975 O950 1.257 . S
C975 O955 1.249 . S
C975 C968 1.492 . S
H976 C959 0.930 . S
H977 C960 0.930 . S
H978 C961 0.930 . S
H979 C962 0.930 . S
H980 C969 0.930 . S
H981 C971 0.930 . S
H982 C972 0.930 . S
H983 C973 0.930 . S
Eu984 N1015 2.657 . S
Eu984 N1022 2.609 . S
Eu984 O1028 2.558 . S
Eu984 O1029 2.612 . S
Eu984 O1031 2.339 . S
Eu984 O1032 2.563 . S
Eu984 O1033 2.419 . S
Eu984 O1035 2.380 . S
Eu984 O1036 2.432 . S
Eu984 C1048 2.848 . S
C985 C988 1.429 . S
C985 C989 1.411 . S
C985 N992 1.377 . S
C986 C988 1.420 . S
C986 C990 1.423 . S
C986 C998 1.392 . S
C987 C989 1.420 . S
C987 C990 1.351 . S
C987 H1010 0.931 . S
C988 C985 1.429 . S
C988 C986 1.420 . S
C988 N996 1.362 . S
C989 C985 1.411 . S
C989 C987 1.420 . S
C989 C994 1.395 . S
C990 C986 1.423 . S
C990 C987 1.351 . S
C990 H1002 0.930 . S
C991 C993 1.400 . S
C991 C994 1.386 . S
C991 H1003 0.930 . S
N992 C985 1.377 . S
N992 C993 1.321 . S
N992 Eu995 2.609 . S
C993 C991 1.400 . S
C993 N992 1.321 . S
C993 H1000 0.930 . S
C994 C989 1.395 . S
C994 C991 1.386 . S
C994 H1013 0.930 . S
Eu995 N992 2.609 . S
Eu995 N996 2.657 . S
Eu995 O1029 2.380 . S
Eu995 O1030 2.432 . S
Eu995 O1034 2.558 . S
Eu995 O1035 2.612 . S
Eu995 O1037 2.339 . S
Eu995 O1038 2.563 . S
Eu995 O1039 2.419 . S
Eu995 C1059 2.848 . S
N996 C988 1.362 . S
N996 Eu995 2.657 . S
N996 C997 1.334 . S
C997 N996 1.334 . S
C997 C999 1.413 . S
C997 H1004 0.929 . S
C998 C986 1.392 . S
C998 C999 1.367 . S
C998 H1006 0.930 . S
C999 C997 1.413 . S
C999 C998 1.367 . S
C999 H1001 0.930 . S
H1000 C993 0.930 . S
H1001 C999 0.930 . S
H1002 C990 0.930 . S
H1003 C991 0.930 . S
H1004 C997 0.929 . S
H1005 C1019 0.930 . S
H1006 C998 0.930 . S
H1007 C1025 0.930 . S
H1008 C1016 0.929 . S
H1009 C1023 0.930 . S
H1010 C987 0.931 . S
H1011 C1017 0.930 . S
H1012 C1050 0.930 . S
H1013 C994 0.930 . S
H1014 C1049 0.931 . S
N1015 Eu984 2.657 . S
N1015 C1016 1.334 . S
N1015 C1020 1.362 . S
C1016 H1008 0.929 . S
C1016 N1015 1.334 . S
C1016 C1019 1.413 . S
C1017 H1011 0.930 . S
C1017 C1018 1.392 . S
C1017 C1019 1.367 . S
C1018 C1017 1.392 . S
C1018 C1020 1.420 . S
C1018 C1050 1.423 . S
C1019 H1005 0.930 . S
C1019 C1016 1.413 . S
C1019 C1017 1.367 . S
C1020 N1015 1.362 . S
C1020 C1018 1.420 . S
C1020 C1024 1.429 . S
H1021 C1026 0.930 . S
N1022 Eu984 2.609 . S
N1022 C1024 1.377 . S
N1022 C1025 1.321 . S
C1023 H1009 0.930 . S
C1023 C1025 1.400 . S
C1023 C1026 1.386 . S
C1024 C1020 1.429 . S
C1024 N1022 1.377 . S
C1024 C1027 1.411 . S
C1025 H1007 0.930 . S
C1025 N1022 1.321 . S
C1025 C1023 1.400 . S
C1026 H1021 0.930 . S
C1026 C1023 1.386 . S
C1026 C1027 1.395 . S
C1027 C1024 1.411 . S
C1027 C1026 1.395 . S
C1027 C1049 1.420 . S
O1028 Eu984 2.558 . S
O1028 C1048 1.257 . S
O1029 Eu984 2.612 . S
O1029 Eu995 2.380 . S
O1029 C1040 1.276 . S
O1030 Eu995 2.432 . S
O1030 C1047 1.264 . S
O1031 Eu984 2.339 . S
O1031 C1047 1.254 . S
O1032 Eu984 2.563 . S
O1032 C1040 1.235 . S
O1033 Eu984 2.419 . S
O1033 C1048 1.249 . S
O1034 Eu995 2.558 . S
O1034 C1059 1.257 . S
O1035 Eu984 2.380 . S
O1035 Eu995 2.612 . S
O1035 C1051 1.276 . S
O1036 Eu984 2.432 . S
O1036 C1058 1.264 . S
O1037 Eu995 2.339 . S
O1037 C1058 1.254 . S
O1038 Eu995 2.563 . S
O1038 C1051 1.235 . S
O1039 Eu995 2.419 . S
O1039 C1059 1.249 . S
C1040 O1029 1.276 . S
C1040 O1032 1.235 . S
C1041 C1043 1.393 . S
C1041 C1045 1.395 . S
C1041 C1048 1.492 . S
C1042 C1043 1.392 . S
C1042 C1044 1.386 . S
C1043 C1041 1.393 . S
C1043 C1042 1.392 . S
C1043 H1060 0.930 . S
C1044 C1042 1.386 . S
C1044 C1046 1.395 . S
C1044 H1061 0.930 . S
C1045 C1041 1.395 . S
C1045 C1046 1.379 . S
C1045 H1062 0.930 . S
C1046 C1044 1.395 . S
C1046 C1045 1.379 . S
C1046 H1063 0.930 . S
C1047 O1030 1.264 . S
C1047 O1031 1.254 . S
C1048 Eu984 2.848 . S
C1048 O1028 1.257 . S
C1048 O1033 1.249 . S
C1048 C1041 1.492 . S
C1049 H1014 0.931 . S
C1049 C1027 1.420 . S
C1049 C1050 1.351 . S
C1050 H1012 0.930 . S
C1050 C1018 1.423 . S
C1050 C1049 1.351 . S
C1051 O1035 1.276 . S
C1051 O1038 1.235 . S
C1052 C1053 1.393 . S
C1052 C1056 1.395 . S
C1052 C1059 1.492 . S
C1053 C1052 1.393 . S
C1053 C1054 1.392 . S
C1053 H1064 0.930 . S
C1054 C1053 1.392 . S
C1054 C1055 1.386 . S
C1055 C1054 1.386 . S
C1055 C1057 1.395 . S
C1055 H1065 0.930 . S
C1056 C1052 1.395 . S
C1056 C1057 1.379 . S
C1056 H1066 0.930 . S
C1057 C1055 1.395 . S
C1057 C1056 1.379 . S
C1057 H1067 0.930 . S
C1058 O1036 1.264 . S
C1058 O1037 1.254 . S
C1059 Eu995 2.848 . S
C1059 O1034 1.257 . S
C1059 O1039 1.249 . S
C1059 C1052 1.492 . S
H1060 C1043 0.930 . S
H1061 C1044 0.930 . S
H1062 C1045 0.930 . S
H1063 C1046 0.930 . S
H1064 C1053 0.930 . S
H1065 C1055 0.930 . S
H1066 C1056 0.930 . S
H1067 C1057 0.930 . S
Eu1068 N1099 2.657 . S
Eu1068 N1106 2.609 . S
Eu1068 O1112 2.558 . S
Eu1068 O1113 2.612 . S
Eu1068 O1115 2.339 . S
Eu1068 O1116 2.563 . S
Eu1068 O1117 2.419 . S
Eu1068 O1119 2.380 . S
Eu1068 O1120 2.432 . S
Eu1068 C1132 2.848 . S
C1069 C1072 1.429 . S
C1069 C1073 1.411 . S
C1069 N1076 1.377 . S
C1070 C1072 1.420 . S
C1070 C1074 1.423 . S
C1070 C1082 1.392 . S
C1071 C1073 1.420 . S
C1071 C1074 1.351 . S
C1071 H1094 0.931 . S
C1072 C1069 1.429 . S
C1072 C1070 1.420 . S
C1072 N1080 1.362 . S
C1073 C1069 1.411 . S
C1073 C1071 1.420 . S
C1073 C1078 1.395 . S
C1074 C1070 1.423 . S
C1074 C1071 1.351 . S
C1074 H1086 0.930 . S
C1075 C1077 1.400 . S
C1075 C1078 1.386 . S
C1075 H1087 0.930 . S
N1076 C1069 1.377 . S
N1076 C1077 1.321 . S
N1076 Eu1079 2.609 . S
C1077 C1075 1.400 . S
C1077 N1076 1.321 . S
C1077 H1084 0.930 . S
C1078 C1073 1.395 . S
C1078 C1075 1.386 . S
C1078 H1097 0.930 . S
Eu1079 N1076 2.609 . S
Eu1079 N1080 2.657 . S
Eu1079 O1113 2.380 . S
Eu1079 O1114 2.432 . S
Eu1079 O1118 2.558 . S
Eu1079 O1119 2.612 . S
Eu1079 O1121 2.339 . S
Eu1079 O1122 2.563 . S
Eu1079 O1123 2.419 . S
Eu1079 C1143 2.848 . S
N1080 C1072 1.362 . S
N1080 Eu1079 2.657 . S
N1080 C1081 1.334 . S
C1081 N1080 1.334 . S
C1081 C1083 1.413 . S
C1081 H1088 0.929 . S
C1082 C1070 1.392 . S
C1082 C1083 1.367 . S
C1082 H1090 0.930 . S
C1083 C1081 1.413 . S
C1083 C1082 1.367 . S
C1083 H1085 0.930 . S
H1084 C1077 0.930 . S
H1085 C1083 0.930 . S
H1086 C1074 0.930 . S
H1087 C1075 0.930 . S
H1088 C1081 0.929 . S
H1089 C1103 0.930 . S
H1090 C1082 0.930 . S
H1091 C1109 0.930 . S
H1092 C1100 0.929 . S
H1093 C1107 0.930 . S
H1094 C1071 0.931 . S
H1095 C1101 0.930 . S
H1096 C1134 0.930 . S
H1097 C1078 0.930 . S
H1098 C1133 0.931 . S
N1099 Eu1068 2.657 . S
N1099 C1100 1.334 . S
N1099 C1104 1.362 . S
C1100 H1092 0.929 . S
C1100 N1099 1.334 . S
C1100 C1103 1.413 . S
C1101 H1095 0.930 . S
C1101 C1102 1.392 . S
C1101 C1103 1.367 . S
C1102 C1101 1.392 . S
C1102 C1104 1.420 . S
C1102 C1134 1.423 . S
C1103 H1089 0.930 . S
C1103 C1100 1.413 . S
C1103 C1101 1.367 . S
C1104 N1099 1.362 . S
C1104 C1102 1.420 . S
C1104 C1108 1.429 . S
H1105 C1110 0.930 . S
N1106 Eu1068 2.609 . S
N1106 C1108 1.377 . S
N1106 C1109 1.321 . S
C1107 H1093 0.930 . S
C1107 C1109 1.400 . S
C1107 C1110 1.386 . S
C1108 C1104 1.429 . S
C1108 N1106 1.377 . S
C1108 C1111 1.411 . S
C1109 H1091 0.930 . S
C1109 N1106 1.321 . S
C1109 C1107 1.400 . S
C1110 H1105 0.930 . S
C1110 C1107 1.386 . S
C1110 C1111 1.395 . S
C1111 C1108 1.411 . S
C1111 C1110 1.395 . S
C1111 C1133 1.420 . S
O1112 Eu1068 2.558 . S
O1112 C1132 1.257 . S
O1113 Eu1068 2.612 . S
O1113 Eu1079 2.380 . S
O1113 C1124 1.276 . S
O1114 Eu1079 2.432 . S
O1114 C1131 1.264 . S
O1115 Eu1068 2.339 . S
O1115 C1131 1.254 . S
O1116 Eu1068 2.563 . S
O1116 C1124 1.235 . S
O1117 Eu1068 2.419 . S
O1117 C1132 1.249 . S
O1118 Eu1079 2.558 . S
O1118 C1143 1.257 . S
O1119 Eu1068 2.380 . S
O1119 Eu1079 2.612 . S
O1119 C1135 1.276 . S
O1120 Eu1068 2.432 . S
O1120 C1142 1.264 . S
O1121 Eu1079 2.339 . S
O1121 C1142 1.254 . S
O1122 Eu1079 2.563 . S
O1122 C1135 1.235 . S
O1123 Eu1079 2.419 . S
O1123 C1143 1.249 . S
C1124 O1113 1.276 . S
C1124 O1116 1.235 . S
C1125 C1127 1.393 . S
C1125 C1129 1.395 . S
C1125 C1132 1.492 . S
C1126 C1127 1.392 . S
C1126 C1128 1.386 . S
C1127 C1125 1.393 . S
C1127 C1126 1.392 . S
C1127 H1144 0.930 . S
C1128 C1126 1.386 . S
C1128 C1130 1.395 . S
C1128 H1145 0.930 . S
C1129 C1125 1.395 . S
C1129 C1130 1.379 . S
C1129 H1146 0.930 . S
C1130 C1128 1.395 . S
C1130 C1129 1.379 . S
C1130 H1147 0.930 . S
C1131 O1114 1.264 . S
C1131 O1115 1.254 . S
C1132 Eu1068 2.848 . S
C1132 O1112 1.257 . S
C1132 O1117 1.249 . S
C1132 C1125 1.492 . S
C1133 H1098 0.931 . S
C1133 C1111 1.420 . S
C1133 C1134 1.351 . S
C1134 H1096 0.930 . S
C1134 C1102 1.423 . S
C1134 C1133 1.351 . S
C1135 O1119 1.276 . S
C1135 O1122 1.235 . S
C1136 C1137 1.393 . S
C1136 C1140 1.395 . S
C1136 C1143 1.492 . S
C1137 C1136 1.393 . S
C1137 C1138 1.392 . S
C1137 H1148 0.930 . S
C1138 C1137 1.392 . S
C1138 C1139 1.386 . S
C1139 C1138 1.386 . S
C1139 C1141 1.395 . S
C1139 H1149 0.930 . S
C1140 C1136 1.395 . S
C1140 C1141 1.379 . S
C1140 H1150 0.930 . S
C1141 C1139 1.395 . S
C1141 C1140 1.379 . S
C1141 H1151 0.930 . S
C1142 O1120 1.264 . S
C1142 O1121 1.254 . S
C1143 Eu1079 2.848 . S
C1143 O1118 1.257 . S
C1143 O1123 1.249 . S
C1143 C1136 1.492 . S
H1144 C1127 0.930 . S
H1145 C1128 0.930 . S
H1146 C1129 0.930 . S
H1147 C1130 0.930 . S
H1148 C1137 0.930 . S
H1149 C1139 0.930 . S
H1150 C1140 0.930 . S
H1151 C1141 0.930 . S
Eu1152 N1183 2.657 . S
Eu1152 N1190 2.609 . S
Eu1152 O1196 2.558 . S
Eu1152 O1197 2.612 . S
Eu1152 O1199 2.339 . S
Eu1152 O1200 2.563 . S
Eu1152 O1201 2.419 . S
Eu1152 O1203 2.380 . S
Eu1152 O1204 2.432 . S
Eu1152 C1216 2.848 . S
C1153 C1156 1.429 . S
C1153 C1157 1.411 . S
C1153 N1160 1.377 . S
C1154 C1156 1.420 . S
C1154 C1158 1.423 . S
C1154 C1166 1.392 . S
C1155 C1157 1.420 . S
C1155 C1158 1.351 . S
C1155 H1178 0.931 . S
C1156 C1153 1.429 . S
C1156 C1154 1.420 . S
C1156 N1164 1.362 . S
C1157 C1153 1.411 . S
C1157 C1155 1.420 . S
C1157 C1162 1.395 . S
C1158 C1154 1.423 . S
C1158 C1155 1.351 . S
C1158 H1170 0.930 . S
C1159 C1161 1.400 . S
C1159 C1162 1.386 . S
C1159 H1171 0.930 . S
N1160 C1153 1.377 . S
N1160 C1161 1.321 . S
N1160 Eu1163 2.609 . S
C1161 C1159 1.400 . S
C1161 N1160 1.321 . S
C1161 H1168 0.930 . S
C1162 C1157 1.395 . S
C1162 C1159 1.386 . S
C1162 H1181 0.930 . S
Eu1163 N1160 2.609 . S
Eu1163 N1164 2.657 . S
Eu1163 O1197 2.380 . S
Eu1163 O1198 2.432 . S
Eu1163 O1202 2.558 . S
Eu1163 O1203 2.612 . S
Eu1163 O1205 2.339 . S
Eu1163 O1206 2.563 . S
Eu1163 O1207 2.419 . S
Eu1163 C1227 2.848 . S
N1164 C1156 1.362 . S
N1164 Eu1163 2.657 . S
N1164 C1165 1.334 . S
C1165 N1164 1.334 . S
C1165 C1167 1.413 . S
C1165 H1172 0.929 . S
C1166 C1154 1.392 . S
C1166 C1167 1.367 . S
C1166 H1174 0.930 . S
C1167 C1165 1.413 . S
C1167 C1166 1.367 . S
C1167 H1169 0.930 . S
H1168 C1161 0.930 . S
H1169 C1167 0.930 . S
H1170 C1158 0.930 . S
H1171 C1159 0.930 . S
H1172 C1165 0.929 . S
H1173 C1187 0.930 . S
H1174 C1166 0.930 . S
H1175 C1193 0.930 . S
H1176 C1184 0.929 . S
H1177 C1191 0.930 . S
H1178 C1155 0.931 . S
H1179 C1185 0.930 . S
H1180 C1218 0.930 . S
H1181 C1162 0.930 . S
H1182 C1217 0.931 . S
N1183 Eu1152 2.657 . S
N1183 C1184 1.334 . S
N1183 C1188 1.362 . S
C1184 H1176 0.929 . S
C1184 N1183 1.334 . S
C1184 C1187 1.413 . S
C1185 H1179 0.930 . S
C1185 C1186 1.392 . S
C1185 C1187 1.367 . S
C1186 C1185 1.392 . S
C1186 C1188 1.420 . S
C1186 C1218 1.423 . S
C1187 H1173 0.930 . S
C1187 C1184 1.413 . S
C1187 C1185 1.367 . S
C1188 N1183 1.362 . S
C1188 C1186 1.420 . S
C1188 C1192 1.429 . S
H1189 C1194 0.930 . S
N1190 Eu1152 2.609 . S
N1190 C1192 1.377 . S
N1190 C1193 1.321 . S
C1191 H1177 0.930 . S
C1191 C1193 1.400 . S
C1191 C1194 1.386 . S
C1192 C1188 1.429 . S
C1192 N1190 1.377 . S
C1192 C1195 1.411 . S
C1193 H1175 0.930 . S
C1193 N1190 1.321 . S
C1193 C1191 1.400 . S
C1194 H1189 0.930 . S
C1194 C1191 1.386 . S
C1194 C1195 1.395 . S
C1195 C1192 1.411 . S
C1195 C1194 1.395 . S
C1195 C1217 1.420 . S
O1196 Eu1152 2.558 . S
O1196 C1216 1.257 . S
O1197 Eu1152 2.612 . S
O1197 Eu1163 2.380 . S
O1197 C1208 1.276 . S
O1198 Eu1163 2.432 . S
O1198 C1215 1.264 . S
O1199 Eu1152 2.339 . S
O1199 C1215 1.254 . S
O1200 Eu1152 2.563 . S
O1200 C1208 1.235 . S
O1201 Eu1152 2.419 . S
O1201 C1216 1.249 . S
O1202 Eu1163 2.558 . S
O1202 C1227 1.257 . S
O1203 Eu1152 2.380 . S
O1203 Eu1163 2.612 . S
O1203 C1219 1.276 . S
O1204 Eu1152 2.432 . S
O1204 C1226 1.264 . S
O1205 Eu1163 2.339 . S
O1205 C1226 1.254 . S
O1206 Eu1163 2.563 . S
O1206 C1219 1.235 . S
O1207 Eu1163 2.419 . S
O1207 C1227 1.249 . S
C1208 O1197 1.276 . S
C1208 O1200 1.235 . S
C1209 C1211 1.393 . S
C1209 C1213 1.395 . S
C1209 C1216 1.492 . S
C1210 C1211 1.392 . S
C1210 C1212 1.386 . S
C1211 C1209 1.393 . S
C1211 C1210 1.392 . S
C1211 H1228 0.930 . S
C1212 C1210 1.386 . S
C1212 C1214 1.395 . S
C1212 H1229 0.930 . S
C1213 C1209 1.395 . S
C1213 C1214 1.379 . S
C1213 H1230 0.930 . S
C1214 C1212 1.395 . S
C1214 C1213 1.379 . S
C1214 H1231 0.930 . S
C1215 O1198 1.264 . S
C1215 O1199 1.254 . S
C1216 Eu1152 2.848 . S
C1216 O1196 1.257 . S
C1216 O1201 1.249 . S
C1216 C1209 1.492 . S
C1217 H1182 0.931 . S
C1217 C1195 1.420 . S
C1217 C1218 1.351 . S
C1218 H1180 0.930 . S
C1218 C1186 1.423 . S
C1218 C1217 1.351 . S
C1219 O1203 1.276 . S
C1219 O1206 1.235 . S
C1220 C1221 1.393 . S
C1220 C1224 1.395 . S
C1220 C1227 1.492 . S
C1221 C1220 1.393 . S
C1221 C1222 1.392 . S
C1221 H1232 0.930 . S
C1222 C1221 1.392 . S
C1222 C1223 1.386 . S
C1223 C1222 1.386 . S
C1223 C1225 1.395 . S
C1223 H1233 0.930 . S
C1224 C1220 1.395 . S
C1224 C1225 1.379 . S
C1224 H1234 0.930 . S
C1225 C1223 1.395 . S
C1225 C1224 1.379 . S
C1225 H1235 0.930 . S
C1226 O1204 1.264 . S
C1226 O1205 1.254 . S
C1227 Eu1163 2.848 . S
C1227 O1202 1.257 . S
C1227 O1207 1.249 . S
C1227 C1220 1.492 . S
H1228 C1211 0.930 . S
H1229 C1212 0.930 . S
H1230 C1213 0.930 . S
H1231 C1214 0.930 . S
H1232 C1221 0.930 . S
H1233 C1223 0.930 . S
H1234 C1224 0.930 . S
H1235 C1225 0.930 . S
Eu1236 N1267 2.657 . S
Eu1236 N1274 2.609 . S
Eu1236 O1280 2.558 . S
Eu1236 O1281 2.612 . S
Eu1236 O1283 2.339 . S
Eu1236 O1284 2.563 . S
Eu1236 O1285 2.419 . S
Eu1236 O1287 2.380 . S
Eu1236 O1288 2.432 . S
Eu1236 C1300 2.848 . S
C1237 C1240 1.429 . S
C1237 C1241 1.411 . S
C1237 N1244 1.377 . S
C1238 C1240 1.420 . S
C1238 C1242 1.423 . S
C1238 C1250 1.392 . S
C1239 C1241 1.420 . S
C1239 C1242 1.351 . S
C1239 H1262 0.931 . S
C1240 C1237 1.429 . S
C1240 C1238 1.420 . S
C1240 N1248 1.362 . S
C1241 C1237 1.411 . S
C1241 C1239 1.420 . S
C1241 C1246 1.395 . S
C1242 C1238 1.423 . S
C1242 C1239 1.351 . S
C1242 H1254 0.930 . S
C1243 C1245 1.400 . S
C1243 C1246 1.386 . S
C1243 H1255 0.930 . S
N1244 C1237 1.377 . S
N1244 C1245 1.321 . S
N1244 Eu1247 2.609 . S
C1245 C1243 1.400 . S
C1245 N1244 1.321 . S
C1245 H1252 0.930 . S
C1246 C1241 1.395 . S
C1246 C1243 1.386 . S
C1246 H1265 0.930 . S
Eu1247 N1244 2.609 . S
Eu1247 N1248 2.657 . S
Eu1247 O1281 2.380 . S
Eu1247 O1282 2.432 . S
Eu1247 O1286 2.558 . S
Eu1247 O1287 2.612 . S
Eu1247 O1289 2.339 . S
Eu1247 O1290 2.563 . S
Eu1247 O1291 2.419 . S
Eu1247 C1311 2.848 . S
N1248 C1240 1.362 . S
N1248 Eu1247 2.657 . S
N1248 C1249 1.334 . S
C1249 N1248 1.334 . S
C1249 C1251 1.413 . S
C1249 H1256 0.929 . S
C1250 C1238 1.392 . S
C1250 C1251 1.367 . S
C1250 H1258 0.930 . S
C1251 C1249 1.413 . S
C1251 C1250 1.367 . S
C1251 H1253 0.930 . S
H1252 C1245 0.930 . S
H1253 C1251 0.930 . S
H1254 C1242 0.930 . S
H1255 C1243 0.930 . S
H1256 C1249 0.929 . S
H1257 C1271 0.930 . S
H1258 C1250 0.930 . S
H1259 C1277 0.930 . S
H1260 C1268 0.929 . S
H1261 C1275 0.930 . S
H1262 C1239 0.931 . S
H1263 C1269 0.930 . S
H1264 C1302 0.930 . S
H1265 C1246 0.930 . S
H1266 C1301 0.931 . S
N1267 Eu1236 2.657 . S
N1267 C1268 1.334 . S
N1267 C1272 1.362 . S
C1268 H1260 0.929 . S
C1268 N1267 1.334 . S
C1268 C1271 1.413 . S
C1269 H1263 0.930 . S
C1269 C1270 1.392 . S
C1269 C1271 1.367 . S
C1270 C1269 1.392 . S
C1270 C1272 1.420 . S
C1270 C1302 1.423 . S
C1271 H1257 0.930 . S
C1271 C1268 1.413 . S
C1271 C1269 1.367 . S
C1272 N1267 1.362 . S
C1272 C1270 1.420 . S
C1272 C1276 1.429 . S
H1273 C1278 0.930 . S
N1274 Eu1236 2.609 . S
N1274 C1276 1.377 . S
N1274 C1277 1.321 . S
C1275 H1261 0.930 . S
C1275 C1277 1.400 . S
C1275 C1278 1.386 . S
C1276 C1272 1.429 . S
C1276 N1274 1.377 . S
C1276 C1279 1.411 . S
C1277 H1259 0.930 . S
C1277 N1274 1.321 . S
C1277 C1275 1.400 . S
C1278 H1273 0.930 . S
C1278 C1275 1.386 . S
C1278 C1279 1.395 . S
C1279 C1276 1.411 . S
C1279 C1278 1.395 . S
C1279 C1301 1.420 . S
O1280 Eu1236 2.558 . S
O1280 C1300 1.257 . S
O1281 Eu1236 2.612 . S
O1281 Eu1247 2.380 . S
O1281 C1292 1.276 . S
O1282 Eu1247 2.432 . S
O1282 C1299 1.264 . S
O1283 Eu1236 2.339 . S
O1283 C1299 1.254 . S
O1284 Eu1236 2.563 . S
O1284 C1292 1.235 . S
O1285 Eu1236 2.419 . S
O1285 C1300 1.249 . S
O1286 Eu1247 2.558 . S
O1286 C1311 1.257 . S
O1287 Eu1236 2.380 . S
O1287 Eu1247 2.612 . S
O1287 C1303 1.276 . S
O1288 Eu1236 2.432 . S
O1288 C1310 1.264 . S
O1289 Eu1247 2.339 . S
O1289 C1310 1.254 . S
O1290 Eu1247 2.563 . S
O1290 C1303 1.235 . S
O1291 Eu1247 2.419 . S
O1291 C1311 1.249 . S
C1292 O1281 1.276 . S
C1292 O1284 1.235 . S
C1293 C1295 1.393 . S
C1293 C1297 1.395 . S
C1293 C1300 1.492 . S
C1294 C1295 1.392 . S
C1294 C1296 1.386 . S
C1295 C1293 1.393 . S
C1295 C1294 1.392 . S
C1295 H1312 0.930 . S
C1296 C1294 1.386 . S
C1296 C1298 1.395 . S
C1296 H1313 0.930 . S
C1297 C1293 1.395 . S
C1297 C1298 1.379 . S
C1297 H1314 0.930 . S
C1298 C1296 1.395 . S
C1298 C1297 1.379 . S
C1298 H1315 0.930 . S
C1299 O1282 1.264 . S
C1299 O1283 1.254 . S
C1300 Eu1236 2.848 . S
C1300 O1280 1.257 . S
C1300 O1285 1.249 . S
C1300 C1293 1.492 . S
C1301 H1266 0.931 . S
C1301 C1279 1.420 . S
C1301 C1302 1.351 . S
C1302 H1264 0.930 . S
C1302 C1270 1.423 . S
C1302 C1301 1.351 . S
C1303 O1287 1.276 . S
C1303 O1290 1.235 . S
C1304 C1305 1.393 . S
C1304 C1308 1.395 . S
C1304 C1311 1.492 . S
C1305 C1304 1.393 . S
C1305 C1306 1.392 . S
C1305 H1316 0.930 . S
C1306 C1305 1.392 . S
C1306 C1307 1.386 . S
C1307 C1306 1.386 . S
C1307 C1309 1.395 . S
C1307 H1317 0.930 . S
C1308 C1304 1.395 . S
C1308 C1309 1.379 . S
C1308 H1318 0.930 . S
C1309 C1307 1.395 . S
C1309 C1308 1.379 . S
C1309 H1319 0.930 . S
C1310 O1288 1.264 . S
C1310 O1289 1.254 . S
C1311 Eu1247 2.848 . S
C1311 O1286 1.257 . S
C1311 O1291 1.249 . S
C1311 C1304 1.492 . S
H1312 C1295 0.930 . S
H1313 C1296 0.930 . S
H1314 C1297 0.930 . S
H1315 C1298 0.930 . S
H1316 C1305 0.930 . S
H1317 C1307 0.930 . S
H1318 C1308 0.930 . S
H1319 C1309 0.930 . S
Eu1320 N1351 2.657 . S
Eu1320 N1358 2.609 . S
Eu1320 O1364 2.558 . S
Eu1320 O1365 2.612 . S
Eu1320 O1367 2.339 . S
Eu1320 O1368 2.563 . S
Eu1320 O1369 2.419 . S
Eu1320 O1371 2.380 . S
Eu1320 O1372 2.432 . S
Eu1320 C1384 2.848 . S
C1321 C1324 1.429 . S
C1321 C1325 1.411 . S
C1321 N1328 1.377 . S
C1322 C1324 1.420 . S
C1322 C1326 1.423 . S
C1322 C1334 1.392 . S
C1323 C1325 1.420 . S
C1323 C1326 1.351 . S
C1323 H1346 0.931 . S
C1324 C1321 1.429 . S
C1324 C1322 1.420 . S
C1324 N1332 1.362 . S
C1325 C1321 1.411 . S
C1325 C1323 1.420 . S
C1325 C1330 1.395 . S
C1326 C1322 1.423 . S
C1326 C1323 1.351 . S
C1326 H1338 0.930 . S
C1327 C1329 1.400 . S
C1327 C1330 1.386 . S
C1327 H1339 0.930 . S
N1328 C1321 1.377 . S
N1328 C1329 1.321 . S
N1328 Eu1331 2.609 . S
C1329 C1327 1.400 . S
C1329 N1328 1.321 . S
C1329 H1336 0.930 . S
C1330 C1325 1.395 . S
C1330 C1327 1.386 . S
C1330 H1349 0.930 . S
Eu1331 N1328 2.609 . S
Eu1331 N1332 2.657 . S
Eu1331 O1365 2.380 . S
Eu1331 O1366 2.432 . S
Eu1331 O1370 2.558 . S
Eu1331 O1371 2.612 . S
Eu1331 O1373 2.339 . S
Eu1331 O1374 2.563 . S
Eu1331 O1375 2.419 . S
Eu1331 C1395 2.848 . S
N1332 C1324 1.362 . S
N1332 Eu1331 2.657 . S
N1332 C1333 1.334 . S
C1333 N1332 1.334 . S
C1333 C1335 1.413 . S
C1333 H1340 0.929 . S
C1334 C1322 1.392 . S
C1334 C1335 1.367 . S
C1334 H1342 0.930 . S
C1335 C1333 1.413 . S
C1335 C1334 1.367 . S
C1335 H1337 0.930 . S
H1336 C1329 0.930 . S
H1337 C1335 0.930 . S
H1338 C1326 0.930 . S
H1339 C1327 0.930 . S
H1340 C1333 0.929 . S
H1341 C1355 0.930 . S
H1342 C1334 0.930 . S
H1343 C1361 0.930 . S
H1344 C1352 0.929 . S
H1345 C1359 0.930 . S
H1346 C1323 0.931 . S
H1347 C1353 0.930 . S
H1348 C1386 0.930 . S
H1349 C1330 0.930 . S
H1350 C1385 0.931 . S
N1351 Eu1320 2.657 . S
N1351 C1352 1.334 . S
N1351 C1356 1.362 . S
C1352 H1344 0.929 . S
C1352 N1351 1.334 . S
C1352 C1355 1.413 . S
C1353 H1347 0.930 . S
C1353 C1354 1.392 . S
C1353 C1355 1.367 . S
C1354 C1353 1.392 . S
C1354 C1356 1.420 . S
C1354 C1386 1.423 . S
C1355 H1341 0.930 . S
C1355 C1352 1.413 . S
C1355 C1353 1.367 . S
C1356 N1351 1.362 . S
C1356 C1354 1.420 . S
C1356 C1360 1.429 . S
H1357 C1362 0.930 . S
N1358 Eu1320 2.609 . S
N1358 C1360 1.377 . S
N1358 C1361 1.321 . S
C1359 H1345 0.930 . S
C1359 C1361 1.400 . S
C1359 C1362 1.386 . S
C1360 C1356 1.429 . S
C1360 N1358 1.377 . S
C1360 C1363 1.411 . S
C1361 H1343 0.930 . S
C1361 N1358 1.321 . S
C1361 C1359 1.400 . S
C1362 H1357 0.930 . S
C1362 C1359 1.386 . S
C1362 C1363 1.395 . S
C1363 C1360 1.411 . S
C1363 C1362 1.395 . S
C1363 C1385 1.420 . S
O1364 Eu1320 2.558 . S
O1364 C1384 1.257 . S
O1365 Eu1320 2.612 . S
O1365 Eu1331 2.380 . S
O1365 C1376 1.276 . S
O1366 Eu1331 2.432 . S
O1366 C1383 1.264 . S
O1367 Eu1320 2.339 . S
O1367 C1383 1.254 . S
O1368 Eu1320 2.563 . S
O1368 C1376 1.235 . S
O1369 Eu1320 2.419 . S
O1369 C1384 1.249 . S
O1370 Eu1331 2.558 . S
O1370 C1395 1.257 . S
O1371 Eu1320 2.380 . S
O1371 Eu1331 2.612 . S
O1371 C1387 1.276 . S
O1372 Eu1320 2.432 . S
O1372 C1394 1.264 . S
O1373 Eu1331 2.339 . S
O1373 C1394 1.254 . S
O1374 Eu1331 2.563 . S
O1374 C1387 1.235 . S
O1375 Eu1331 2.419 . S
O1375 C1395 1.249 . S
C1376 O1365 1.276 . S
C1376 O1368 1.235 . S
C1377 C1379 1.393 . S
C1377 C1381 1.395 . S
C1377 C1384 1.492 . S
C1378 C1379 1.392 . S
C1378 C1380 1.386 . S
C1379 C1377 1.393 . S
C1379 C1378 1.392 . S
C1379 H1396 0.930 . S
C1380 C1378 1.386 . S
C1380 C1382 1.395 . S
C1380 H1397 0.930 . S
C1381 C1377 1.395 . S
C1381 C1382 1.379 . S
C1381 H1398 0.930 . S
C1382 C1380 1.395 . S
C1382 C1381 1.379 . S
C1382 H1399 0.930 . S
C1383 O1366 1.264 . S
C1383 O1367 1.254 . S
C1384 Eu1320 2.848 . S
C1384 O1364 1.257 . S
C1384 O1369 1.249 . S
C1384 C1377 1.492 . S
C1385 H1350 0.931 . S
C1385 C1363 1.420 . S
C1385 C1386 1.351 . S
C1386 H1348 0.930 . S
C1386 C1354 1.423 . S
C1386 C1385 1.351 . S
C1387 O1371 1.276 . S
C1387 O1374 1.235 . S
C1388 C1389 1.393 . S
C1388 C1392 1.395 . S
C1388 C1395 1.492 . S
C1389 C1388 1.393 . S
C1389 C1390 1.392 . S
C1389 H1400 0.930 . S
C1390 C1389 1.392 . S
C1390 C1391 1.386 . S
C1391 C1390 1.386 . S
C1391 C1393 1.395 . S
C1391 H1401 0.930 . S
C1392 C1388 1.395 . S
C1392 C1393 1.379 . S
C1392 H1402 0.930 . S
C1393 C1391 1.395 . S
C1393 C1392 1.379 . S
C1393 H1403 0.930 . S
C1394 O1372 1.264 . S
C1394 O1373 1.254 . S
C1395 Eu1331 2.848 . S
C1395 O1370 1.257 . S
C1395 O1375 1.249 . S
C1395 C1388 1.492 . S
H1396 C1379 0.930 . S
H1397 C1380 0.930 . S
H1398 C1381 0.930 . S
H1399 C1382 0.930 . S
H1400 C1389 0.930 . S
H1401 C1391 0.930 . S
H1402 C1392 0.930 . S
H1403 C1393 0.930 . S
H1404 C1416 0.930 . S
H1405 C1418 0.930 . S
H1406 C1419 0.930 . S
H1407 C1423 0.959 . S
H1408 C1423 0.959 . S
H1409 C1423 0.961 . S
H1410 C1424 0.960 . S
H1411 C1424 0.961 . S
H1412 C1424 0.959 . S
H1413 C1427 0.929 . S
H1414 C1428 0.931 . S
H1415 C1430 0.930 . S
C1416 H1404 0.930 . S
C1416 C1417 1.399 . S
C1416 C1421 1.399 . S
C1417 C1416 1.399 . S
C1417 C1418 1.376 . S
C1418 H1405 0.930 . S
C1418 C1417 1.376 . S
C1418 C1419 1.388 . S
C1419 H1406 0.930 . S
C1419 C1418 1.388 . S
C1419 C1420 1.390 . S
C1420 C1419 1.390 . S
C1420 C1421 1.394 . S
C1420 C1426 1.465 . S
C1421 C1416 1.399 . S
C1421 C1420 1.394 . S
C1421 C1422 1.516 . S
C1422 C1421 1.516 . S
C1422 C1423 1.502 . S
C1422 C1424 1.561 . S
C1422 C1425 1.526 . S
C1423 H1407 0.959 . S
C1423 H1408 0.959 . S
C1423 H1409 0.961 . S
C1423 C1422 1.502 . S
C1424 H1410 0.960 . S
C1424 H1411 0.961 . S
C1424 H1412 0.959 . S
C1424 C1422 1.561 . S
C1425 C1422 1.526 . S
C1425 C1426 1.396 . S
C1425 C1430 1.390 . S
C1426 C1420 1.465 . S
C1426 C1425 1.396 . S
C1426 C1427 1.399 . S
C1427 H1413 0.929 . S
C1427 C1426 1.399 . S
C1427 C1428 1.385 . S
C1428 H1414 0.931 . S
C1428 C1427 1.385 . S
C1428 C1429 1.389 . S
C1429 C1428 1.389 . S
C1429 C1430 1.387 . S
C1430 H1415 0.930 . S
C1430 C1425 1.390 . S
C1430 C1429 1.387 . S
H1431 C1443 0.930 . S
H1432 C1445 0.930 . S
H1433 C1446 0.930 . S
H1434 C1450 0.959 . S
H1435 C1450 0.959 . S
H1436 C1450 0.961 . S
H1437 C1451 0.960 . S
H1438 C1451 0.961 . S
H1439 C1451 0.959 . S
H1440 C1454 0.929 . S
H1441 C1455 0.931 . S
H1442 C1457 0.930 . S
C1443 H1431 0.930 . S
C1443 C1444 1.399 . S
C1443 C1448 1.399 . S
C1444 C1443 1.399 . S
C1444 C1445 1.376 . S
C1445 H1432 0.930 . S
C1445 C1444 1.376 . S
C1445 C1446 1.388 . S
C1446 H1433 0.930 . S
C1446 C1445 1.388 . S
C1446 C1447 1.390 . S
C1447 C1446 1.390 . S
C1447 C1448 1.394 . S
C1447 C1453 1.465 . S
C1448 C1443 1.399 . S
C1448 C1447 1.394 . S
C1448 C1449 1.516 . S
C1449 C1448 1.516 . S
C1449 C1450 1.502 . S
C1449 C1451 1.561 . S
C1449 C1452 1.526 . S
C1450 H1434 0.959 . S
C1450 H1435 0.959 . S
C1450 H1436 0.961 . S
C1450 C1449 1.502 . S
C1451 H1437 0.960 . S
C1451 H1438 0.961 . S
C1451 H1439 0.959 . S
C1451 C1449 1.561 . S
C1452 C1449 1.526 . S
C1452 C1453 1.396 . S
C1452 C1457 1.390 . S
C1453 C1447 1.465 . S
C1453 C1452 1.396 . S
C1453 C1454 1.399 . S
C1454 H1440 0.929 . S
C1454 C1453 1.399 . S
C1454 C1455 1.385 . S
C1455 H1441 0.931 . S
C1455 C1454 1.385 . S
C1455 C1456 1.389 . S
C1456 C1455 1.389 . S
C1456 C1457 1.387 . S
C1457 H1442 0.930 . S
C1457 C1452 1.390 . S
C1457 C1456 1.387 . S
H1458 C1470 0.930 . S
H1459 C1472 0.930 . S
H1460 C1473 0.930 . S
H1461 C1477 0.959 . S
H1462 C1477 0.959 . S
H1463 C1477 0.961 . S
H1464 C1478 0.960 . S
H1465 C1478 0.961 . S
H1466 C1478 0.959 . S
H1467 C1481 0.931 . S
H1468 C1482 0.931 1_556 S
H1469 C1484 0.930 . S
C1470 H1458 0.930 . S
C1470 C1471 1.399 . S
C1470 C1475 1.399 . S
C1471 C1470 1.399 . S
C1471 C1472 1.376 . S
C1472 H1459 0.930 . S
C1472 C1471 1.376 . S
C1472 C1473 1.388 . S
C1473 H1460 0.930 . S
C1473 C1472 1.388 . S
C1473 C1474 1.390 . S
C1474 C1473 1.390 . S
C1474 C1475 1.394 . S
C1474 C1480 1.465 . S
C1475 C1470 1.399 . S
C1475 C1474 1.394 . S
C1475 C1476 1.516 . S
C1476 C1475 1.516 . S
C1476 C1477 1.502 . S
C1476 C1478 1.561 . S
C1476 C1479 1.526 . S
C1477 H1461 0.959 . S
C1477 H1462 0.959 . S
C1477 H1463 0.961 . S
C1477 C1476 1.502 . S
C1478 H1464 0.960 . S
C1478 H1465 0.961 . S
C1478 H1466 0.959 . S
C1478 C1476 1.561 . S
C1479 C1476 1.526 . S
C1479 C1480 1.396 . S
C1479 C1484 1.390 . S
C1480 C1474 1.465 . S
C1480 C1479 1.396 . S
C1480 C1481 1.399 . S
C1481 H1467 0.931 . S
C1481 C1480 1.399 . S
C1481 C1482 1.385 . S
C1482 H1468 0.931 1_554 S
C1482 C1481 1.385 . S
C1482 C1483 1.389 . S
C1483 C1482 1.389 . S
C1483 C1484 1.387 . S
C1484 H1469 0.930 . S
C1484 C1479 1.390 . S
C1484 C1483 1.387 . S
H1485 C1497 0.930 . S
H1486 C1499 0.930 . S
H1487 C1500 0.930 . S
H1488 C1504 0.959 . S
H1489 C1504 0.959 1_554 S
H1490 C1504 0.961 . S
H1491 C1505 0.958 1_554 S
H1492 C1505 0.948 1_554 S
H1493 C1505 0.964 . S
H1494 C1508 0.929 . S
H1495 C1509 0.931 . S
H1496 C1511 0.916 1_554 S
C1497 H1485 0.930 . S
C1497 C1498 1.399 . S
C1497 C1502 1.399 . S
C1498 C1497 1.399 . S
C1498 C1499 1.376 . S
C1499 H1486 0.930 . S
C1499 C1498 1.376 . S
C1499 C1500 1.388 . S
C1500 H1487 0.930 . S
C1500 C1499 1.388 . S
C1500 C1501 1.390 . S
C1501 C1500 1.390 . S
C1501 C1502 1.394 . S
C1501 C1507 1.465 . S
C1502 C1497 1.399 . S
C1502 C1501 1.394 . S
C1502 C1503 1.516 . S
C1503 C1502 1.516 . S
C1503 C1504 1.502 . S
C1503 C1505 1.572 . S
C1503 C1506 1.526 . S
C1504 H1488 0.959 . S
C1504 H1489 0.959 1_556 S
C1504 H1490 0.961 . S
C1504 C1503 1.502 . S
C1505 H1491 0.958 1_556 S
C1505 H1492 0.948 1_556 S
C1505 H1493 0.964 . S
C1505 C1503 1.572 . S
C1506 C1503 1.526 . S
C1506 C1507 1.396 . S
C1506 C1511 1.390 . S
C1507 C1501 1.465 . S
C1507 C1506 1.396 . S
C1507 C1508 1.399 . S
C1508 H1494 0.929 . S
C1508 C1507 1.399 . S
C1508 C1509 1.385 . S
C1509 H1495 0.931 . S
C1509 C1508 1.385 . S
C1509 C1510 1.389 . S
C1510 C1509 1.389 . S
C1510 C1511 1.387 . S
C1511 H1496 0.916 1_556 S
C1511 C1506 1.390 . S
C1511 C1510 1.387 . S
H1512 C1524 0.930 . S
H1513 C1526 0.930 . S
H1514 C1527 0.930 . S
H1515 C1531 0.959 . S
H1516 C1531 0.959 . S
H1517 C1531 0.961 . S
H1518 C1532 0.960 . S
H1519 C1532 0.961 . S
H1520 C1532 0.959 . S
H1521 C1535 0.929 . S
H1522 C1536 0.931 . S
H1523 C1538 0.930 . S
C1524 H1512 0.930 . S
C1524 C1525 1.399 . S
C1524 C1529 1.399 . S
C1525 C1524 1.399 . S
C1525 C1526 1.376 . S
C1526 H1513 0.930 . S
C1526 C1525 1.376 . S
C1526 C1527 1.388 . S
C1527 H1514 0.930 . S
C1527 C1526 1.388 . S
C1527 C1528 1.390 . S
C1528 C1527 1.390 . S
C1528 C1529 1.394 . S
C1528 C1534 1.465 . S
C1529 C1524 1.399 . S
C1529 C1528 1.394 . S
C1529 C1530 1.516 . S
C1530 C1529 1.516 . S
C1530 C1531 1.502 . S
C1530 C1532 1.561 . S
C1530 C1533 1.526 . S
C1531 H1515 0.959 . S
C1531 H1516 0.959 . S
C1531 H1517 0.961 . S
C1531 C1530 1.502 . S
C1532 H1518 0.960 . S
C1532 H1519 0.961 . S
C1532 H1520 0.959 . S
C1532 C1530 1.561 . S
C1533 C1530 1.526 . S
C1533 C1534 1.396 . S
C1533 C1538 1.390 . S
C1534 C1528 1.465 . S
C1534 C1533 1.396 . S
C1534 C1535 1.399 . S
C1535 H1521 0.929 . S
C1535 C1534 1.399 . S
C1535 C1536 1.385 . S
C1536 H1522 0.931 . S
C1536 C1535 1.385 . S
C1536 C1537 1.389 . S
C1537 C1536 1.389 . S
C1537 C1538 1.387 . S
C1538 H1523 0.930 . S
C1538 C1533 1.390 . S
C1538 C1537 1.387 . S
H1539 C1551 0.930 . S
H1540 C1553 0.930 . S
H1541 C1554 0.930 . S
H1542 C1558 0.959 . S
H1543 C1558 0.959 . S
H1544 C1558 0.961 . S
H1545 C1559 0.960 . S
H1546 C1559 0.961 . S
H1547 C1559 0.959 . S
H1548 C1562 0.929 . S
H1549 C1563 0.931 . S
H1550 C1565 0.930 . S
C1551 H1539 0.930 . S
C1551 C1552 1.399 . S
C1551 C1556 1.399 . S
C1552 C1551 1.399 . S
C1552 C1553 1.376 . S
C1553 H1540 0.930 . S
C1553 C1552 1.376 . S
C1553 C1554 1.388 . S
C1554 H1541 0.930 . S
C1554 C1553 1.388 . S
C1554 C1555 1.390 . S
C1555 C1554 1.390 . S
C1555 C1556 1.394 . S
C1555 C1561 1.465 . S
C1556 C1551 1.399 . S
C1556 C1555 1.394 . S
C1556 C1557 1.516 . S
C1557 C1556 1.516 . S
C1557 C1558 1.502 . S
C1557 C1559 1.561 . S
C1557 C1560 1.526 . S
C1558 H1542 0.959 . S
C1558 H1543 0.959 . S
C1558 H1544 0.961 . S
C1558 C1557 1.502 . S
C1559 H1545 0.960 . S
C1559 H1546 0.961 . S
C1559 H1547 0.959 . S
C1559 C1557 1.561 . S
C1560 C1557 1.526 . S
C1560 C1561 1.396 . S
C1560 C1565 1.390 . S
C1561 C1555 1.465 . S
C1561 C1560 1.396 . S
C1561 C1562 1.399 . S
C1562 H1548 0.929 . S
C1562 C1561 1.399 . S
C1562 C1563 1.385 . S
C1563 H1549 0.931 . S
C1563 C1562 1.385 . S
C1563 C1564 1.389 . S
C1564 C1563 1.389 . S
C1564 C1565 1.387 . S
C1565 H1550 0.930 . S
C1565 C1560 1.390 . S
C1565 C1564 1.387 . S
H1566 C1578 0.930 . S
H1567 C1580 0.930 . S
H1568 C1581 0.930 . S
H1569 C1585 0.959 . S
H1570 C1585 0.959 1_554 S
H1571 C1585 0.961 . S
H1572 C1586 0.960 1_554 S
H1573 C1586 0.957 1_554 S
H1574 C1586 0.960 . S
H1575 C1589 0.929 . S
H1576 C1590 0.931 . S
H1577 C1592 0.903 1_554 S
C1578 H1566 0.930 . S
C1578 C1579 1.399 . S
C1578 C1583 1.399 . S
C1579 C1578 1.399 . S
C1579 C1580 1.376 . S
C1580 H1567 0.930 . S
C1580 C1579 1.376 . S
C1580 C1581 1.388 . S
C1581 H1568 0.930 . S
C1581 C1580 1.388 . S
C1581 C1582 1.390 . S
C1582 C1581 1.390 . S
C1582 C1583 1.394 . S
C1582 C1588 1.465 . S
C1583 C1578 1.399 . S
C1583 C1582 1.394 . S
C1583 C1584 1.516 . S
C1584 C1583 1.516 . S
C1584 C1585 1.502 . S
C1584 C1586 1.564 . S
C1584 C1587 1.526 . S
C1585 H1569 0.959 . S
C1585 H1570 0.959 1_556 S
C1585 H1571 0.961 . S
C1585 C1584 1.502 . S
C1586 H1572 0.960 1_556 S
C1586 H1573 0.957 1_556 S
C1586 H1574 0.960 . S
C1586 C1584 1.564 . S
C1587 C1584 1.526 . S
C1587 C1588 1.396 . S
C1587 C1592 1.390 . S
C1588 C1582 1.465 . S
C1588 C1587 1.396 . S
C1588 C1589 1.399 . S
C1589 H1575 0.929 . S
C1589 C1588 1.399 . S
C1589 C1590 1.385 . S
C1590 H1576 0.931 . S
C1590 C1589 1.385 . S
C1590 C1591 1.389 . S
C1591 C1590 1.389 . S
C1591 C1592 1.387 . S
C1592 H1577 0.903 1_556 S
C1592 C1587 1.390 . S
C1592 C1591 1.387 . S
H1593 C1605 0.930 . S
H1594 C1607 0.930 . S
H1595 C1608 0.930 . S
H1596 C1612 0.959 . S
H1597 C1612 0.907 1_554 S
H1598 C1612 0.961 . S
H1599 C1613 0.969 . S
H1600 C1613 0.961 1_554 S
H1601 C1613 0.959 . S
H1602 C1616 0.929 . S
H1603 C1617 0.931 . S
H1604 C1619 0.997 . S
C1605 H1593 0.930 . S
C1605 C1606 1.399 . S
C1605 C1610 1.399 . S
C1606 C1605 1.399 . S
C1606 C1607 1.376 . S
C1607 H1594 0.930 . S
C1607 C1606 1.376 . S
C1607 C1608 1.388 . S
C1608 H1595 0.930 . S
C1608 C1607 1.388 . S
C1608 C1609 1.390 . S
C1609 C1608 1.390 . S
C1609 C1610 1.394 . S
C1609 C1615 1.465 . S
C1610 C1605 1.399 . S
C1610 C1609 1.394 . S
C1610 C1611 1.516 . S
C1611 C1610 1.516 . S
C1611 C1612 1.502 . S
C1611 C1613 1.561 . S
C1611 C1614 1.526 . S
C1612 H1596 0.959 . S
C1612 H1597 0.907 1_556 S
C1612 H1598 0.961 . S
C1612 C1611 1.502 . S
C1613 H1599 0.969 . S
C1613 H1600 0.961 1_556 S
C1613 H1601 0.959 . S
C1613 C1611 1.561 . S
C1614 C1611 1.526 . S
C1614 C1615 1.396 . S
C1614 C1619 1.390 . S
C1615 C1609 1.465 . S
C1615 C1614 1.396 . S
C1615 C1616 1.399 . S
C1616 H1602 0.929 . S
C1616 C1615 1.399 . S
C1616 C1617 1.385 . S
C1617 H1603 0.931 . S
C1617 C1616 1.385 . S
C1617 C1618 1.389 . S
C1618 C1617 1.389 . S
C1618 C1619 1.387 . S
C1619 H1604 0.997 . S
C1619 C1614 1.390 . S
C1619 C1618 1.387 . S
H1620 C1632 0.930 . S
H1621 C1634 0.930 . S
H1622 C1635 0.930 . S
H1623 C1639 0.959 . S
H1624 C1639 0.959 . S
H1625 C1639 0.961 . S
H1626 C1640 0.960 . S
H1627 C1640 0.961 . S
H1628 C1640 0.959 . S
H1629 C1643 0.929 1_554 S
H1630 C1644 0.876 1_554 S
H1631 C1646 0.930 . S
C1632 H1620 0.930 . S
C1632 C1633 1.399 . S
C1632 C1637 1.399 . S
C1633 C1632 1.399 . S
C1633 C1634 1.376 . S
C1634 H1621 0.930 . S
C1634 C1633 1.376 . S
C1634 C1635 1.388 . S
C1635 H1622 0.930 . S
C1635 C1634 1.388 . S
C1635 C1636 1.390 . S
C1636 C1635 1.390 . S
C1636 C1637 1.394 . S
C1636 C1642 1.465 . S
C1637 C1632 1.399 . S
C1637 C1636 1.394 . S
C1637 C1638 1.516 . S
C1638 C1637 1.516 . S
C1638 C1639 1.502 . S
C1638 C1640 1.561 . S
C1638 C1641 1.526 . S
C1639 H1623 0.959 . S
C1639 H1624 0.959 . S
C1639 H1625 0.961 . S
C1639 C1638 1.502 . S
C1640 H1626 0.960 . S
C1640 H1627 0.961 . S
C1640 H1628 0.959 . S
C1640 C1638 1.561 . S
C1641 C1638 1.526 . S
C1641 C1642 1.396 . S
C1641 C1646 1.390 . S
C1642 C1636 1.465 . S
C1642 C1641 1.396 . S
C1642 C1643 1.399 . S
C1643 H1629 0.929 1_556 S
C1643 C1642 1.399 . S
C1643 C1644 1.394 . S
C1644 H1630 0.876 1_556 S
C1644 C1643 1.394 . S
C1644 C1645 1.436 . S
C1645 C1644 1.436 . S
C1645 C1646 1.387 . S
C1646 H1631 0.930 . S
C1646 C1641 1.390 . S
C1646 C1645 1.387 . S
H1647 C1659 0.930 . S
H1648 C1661 0.930 . S
H1649 C1662 0.930 . S
H1650 C1666 0.959 . S
H1651 C1666 0.959 1_556 S
H1652 C1666 0.961 . S
H1653 C1667 0.960 . S
H1654 C1667 0.961 . S
H1655 C1667 0.959 . S
H1656 C1670 0.929 . S
H1657 C1671 0.931 . S
H1658 C1673 0.930 . S
C1659 H1647 0.930 . S
C1659 C1660 1.399 . S
C1659 C1664 1.399 . S
C1660 C1659 1.399 . S
C1660 C1661 1.376 . S
C1661 H1648 0.930 . S
C1661 C1660 1.376 . S
C1661 C1662 1.388 . S
C1662 H1649 0.930 . S
C1662 C1661 1.388 . S
C1662 C1663 1.390 . S
C1663 C1662 1.390 . S
C1663 C1664 1.394 . S
C1663 C1669 1.465 . S
C1664 C1659 1.399 . S
C1664 C1663 1.394 . S
C1664 C1665 1.516 . S
C1665 C1664 1.516 . S
C1665 C1666 1.502 . S
C1665 C1667 1.561 . S
C1665 C1668 1.526 . S
C1666 H1650 0.959 . S
C1666 H1651 0.959 1_554 S
C1666 H1652 0.961 . S
C1666 C1665 1.502 . S
C1667 H1653 0.960 . S
C1667 H1654 0.961 . S
C1667 H1655 0.959 . S
C1667 C1665 1.561 . S
C1668 C1665 1.526 . S
C1668 C1669 1.396 . S
C1668 C1673 1.390 . S
C1669 C1663 1.465 . S
C1669 C1668 1.396 . S
C1669 C1670 1.399 . S
C1670 H1656 0.929 . S
C1670 C1669 1.399 . S
C1670 C1671 1.385 . S
C1671 H1657 0.931 . S
C1671 C1670 1.385 . S
C1671 C1672 1.389 . S
C1672 C1671 1.389 . S
C1672 C1673 1.387 . S
C1673 H1658 0.930 . S
C1673 C1668 1.390 . S
C1673 C1672 1.387 . S
H1674 C1686 0.930 . S
H1675 C1688 0.930 . S
H1676 C1689 0.930 . S
H1677 C1693 0.959 . S
H1678 C1693 0.959 . S
H1679 C1693 0.961 . S
H1680 C1694 0.960 . S
H1681 C1694 0.961 1_556 S
H1682 C1694 0.959 . S
H1683 C1697 0.929 . S
H1684 C1698 0.931 . S
H1685 C1700 0.930 . S
C1686 H1674 0.930 . S
C1686 C1687 1.399 . S
C1686 C1691 1.399 . S
C1687 C1686 1.399 . S
C1687 C1688 1.376 . S
C1688 H1675 0.930 . S
C1688 C1687 1.376 . S
C1688 C1689 1.388 . S
C1689 H1676 0.930 . S
C1689 C1688 1.388 . S
C1689 C1690 1.390 . S
C1690 C1689 1.390 . S
C1690 C1691 1.394 . S
C1690 C1696 1.465 . S
C1691 C1686 1.399 . S
C1691 C1690 1.394 . S
C1691 C1692 1.516 . S
C1692 C1691 1.516 . S
C1692 C1693 1.502 . S
C1692 C1694 1.561 . S
C1692 C1695 1.526 . S
C1693 H1677 0.959 . S
C1693 H1678 0.959 . S
C1693 H1679 0.961 . S
C1693 C1692 1.502 . S
C1694 H1680 0.960 . S
C1694 H1681 0.961 1_554 S
C1694 H1682 0.959 . S
C1694 C1692 1.561 . S
C1695 C1692 1.526 . S
C1695 C1696 1.396 . S
C1695 C1700 1.390 . S
C1696 C1690 1.465 . S
C1696 C1695 1.396 . S
C1696 C1697 1.399 . S
C1697 H1683 0.929 . S
C1697 C1696 1.399 . S
C1697 C1698 1.385 . S
C1698 H1684 0.931 . S
C1698 C1697 1.385 . S
C1698 C1699 1.389 . S
C1699 C1698 1.389 . S
C1699 C1700 1.387 . S
C1700 H1685 0.930 . S
C1700 C1695 1.390 . S
C1700 C1699 1.387 . S
H1701 C1713 0.930 . S
H1702 C1715 0.930 . S
H1703 C1716 0.930 . S
H1704 C1720 0.959 . S
H1705 C1720 0.959 . S
H1706 C1720 0.961 . S
H1707 C1721 0.960 . S
H1708 C1721 0.961 . S
H1709 C1721 0.959 . S
H1710 C1724 0.929 . S
H1711 C1725 0.931 . S
H1712 C1727 0.930 . S
C1713 H1701 0.930 . S
C1713 C1714 1.399 . S
C1713 C1718 1.399 . S
C1714 C1713 1.399 . S
C1714 C1715 1.376 . S
C1715 H1702 0.930 . S
C1715 C1714 1.376 . S
C1715 C1716 1.388 . S
C1716 H1703 0.930 . S
C1716 C1715 1.388 . S
C1716 C1717 1.390 . S
C1717 C1716 1.390 . S
C1717 C1718 1.394 . S
C1717 C1723 1.465 . S
C1718 C1713 1.399 . S
C1718 C1717 1.394 . S
C1718 C1719 1.516 . S
C1719 C1718 1.516 . S
C1719 C1720 1.502 . S
C1719 C1721 1.561 . S
C1719 C1722 1.526 . S
C1720 H1704 0.959 . S
C1720 H1705 0.959 . S
C1720 H1706 0.961 . S
C1720 C1719 1.502 . S
C1721 H1707 0.960 . S
C1721 H1708 0.961 . S
C1721 H1709 0.959 . S
C1721 C1719 1.561 . S
C1722 C1719 1.526 . S
C1722 C1723 1.396 . S
C1722 C1727 1.390 . S
C1723 C1717 1.465 . S
C1723 C1722 1.396 . S
C1723 C1724 1.399 . S
C1724 H1710 0.929 . S
C1724 C1723 1.399 . S
C1724 C1725 1.385 . S
C1725 H1711 0.931 . S
C1725 C1724 1.385 . S
C1725 C1726 1.389 . S
C1726 C1725 1.389 . S
C1726 C1727 1.387 . S
C1727 H1712 0.930 . S
C1727 C1722 1.390 . S
C1727 C1726 1.387 . S
H1728 C1740 0.930 . S
H1729 C1742 0.930 . S
H1730 C1743 0.930 . S
H1731 C1747 0.959 . S
H1732 C1747 0.959 . S
H1733 C1747 0.961 . S
H1734 C1748 0.960 . S
H1735 C1748 0.961 . S
H1736 C1748 0.959 . S
H1737 C1751 0.929 . S
H1738 C1752 0.931 . S
H1739 C1754 0.930 . S
C1740 H1728 0.930 . S
C1740 C1741 1.399 1_455 S
C1740 C1745 1.399 . S
C1741 C1740 1.399 1_655 S
C1741 C1742 1.376 . S
C1742 H1729 0.930 . S
C1742 C1741 1.376 . S
C1742 C1743 1.388 1_655 S
C1743 H1730 0.930 . S
C1743 C1742 1.388 1_455 S
C1743 C1744 1.390 . S
C1744 C1743 1.390 . S
C1744 C1745 1.394 . S
C1744 C1750 1.465 . S
C1745 C1740 1.399 . S
C1745 C1744 1.394 . S
C1745 C1746 1.516 . S
C1746 C1745 1.516 . S
C1746 C1747 1.502 . S
C1746 C1748 1.561 . S
C1746 C1749 1.526 . S
C1747 H1731 0.959 . S
C1747 H1732 0.959 . S
C1747 H1733 0.961 . S
C1747 C1746 1.502 . S
C1748 H1734 0.960 . S
C1748 H1735 0.961 . S
C1748 H1736 0.959 . S
C1748 C1746 1.561 . S
C1749 C1746 1.526 . S
C1749 C1750 1.396 . S
C1749 C1754 1.390 . S
C1750 C1744 1.465 . S
C1750 C1749 1.396 . S
C1750 C1751 1.399 . S
C1751 H1737 0.929 . S
C1751 C1750 1.399 . S
C1751 C1752 1.385 . S
C1752 H1738 0.931 . S
C1752 C1751 1.385 . S
C1752 C1753 1.389 . S
C1753 C1752 1.389 . S
C1753 C1754 1.387 . S
C1754 H1739 0.930 . S
C1754 C1749 1.390 . S
C1754 C1753 1.387 . S
H1755 C1767 0.930 . S
H1756 C1769 0.930 . S
H1757 C1770 0.930 . S
H1758 C1774 0.959 . S
H1759 C1774 0.959 . S
H1760 C1774 0.961 . S
H1761 C1775 0.960 . S
H1762 C1775 0.961 . S
H1763 C1775 0.959 . S
H1764 C1778 0.929 . S
H1765 C1779 0.931 . S
H1766 C1781 0.930 . S
C1767 H1755 0.930 . S
C1767 C1768 1.399 . S
C1767 C1772 1.399 . S
C1768 C1767 1.399 . S
C1768 C1769 1.376 . S
C1769 H1756 0.930 . S
C1769 C1768 1.376 . S
C1769 C1770 1.388 . S
C1770 H1757 0.930 . S
C1770 C1769 1.388 . S
C1770 C1771 1.390 . S
C1771 C1770 1.390 . S
C1771 C1772 1.394 . S
C1771 C1777 1.465 . S
C1772 C1767 1.399 . S
C1772 C1771 1.394 . S
C1772 C1773 1.516 . S
C1773 C1772 1.516 . S
C1773 C1774 1.502 . S
C1773 C1775 1.561 . S
C1773 C1776 1.526 . S
C1774 H1758 0.959 . S
C1774 H1759 0.959 . S
C1774 H1760 0.961 . S
C1774 C1773 1.502 . S
C1775 H1761 0.960 . S
C1775 H1762 0.961 . S
C1775 H1763 0.959 . S
C1775 C1773 1.561 . S
C1776 C1773 1.526 . S
C1776 C1777 1.396 . S
C1776 C1781 1.390 . S
C1777 C1771 1.465 . S
C1777 C1776 1.396 . S
C1777 C1778 1.399 . S
C1778 H1764 0.929 . S
C1778 C1777 1.399 . S
C1778 C1779 1.385 . S
C1779 H1765 0.931 . S
C1779 C1778 1.385 . S
C1779 C1780 1.389 . S
C1780 C1779 1.389 . S
C1780 C1781 1.387 . S
C1781 H1766 0.930 . S
C1781 C1776 1.390 . S
C1781 C1780 1.387 . S
H1782 C1794 0.930 . S
H1783 C1796 0.930 . S
H1784 C1797 0.930 . S
H1785 C1801 0.959 . S
H1786 C1801 0.959 . S
H1787 C1801 0.961 . S
H1788 C1802 0.960 . S
H1789 C1802 0.961 . S
H1790 C1802 0.959 . S
H1791 C1805 0.929 . S
H1792 C1806 0.931 . S
H1793 C1808 0.930 . S
C1794 H1782 0.930 . S
C1794 C1795 1.399 . S
C1794 C1799 1.399 1_545 S
C1795 C1794 1.399 . S
C1795 C1796 1.376 . S
C1796 H1783 0.930 . S
C1796 C1795 1.376 . S
C1796 C1797 1.388 1_545 S
C1797 H1784 0.930 . S
C1797 C1796 1.388 1_565 S
C1797 C1798 1.390 . S
C1798 C1797 1.390 . S
C1798 C1799 1.394 . S
C1798 C1804 1.465 . S
C1799 C1794 1.399 1_565 S
C1799 C1798 1.394 . S
C1799 C1800 1.516 . S
C1800 C1799 1.516 . S
C1800 C1801 1.502 . S
C1800 C1802 1.561 . S
C1800 C1803 1.526 . S
C1801 H1785 0.959 . S
C1801 H1786 0.959 . S
C1801 H1787 0.961 . S
C1801 C1800 1.502 . S
C1802 H1788 0.960 . S
C1802 H1789 0.961 . S
C1802 H1790 0.959 . S
C1802 C1800 1.561 . S
C1803 C1800 1.526 . S
C1803 C1804 1.396 . S
C1803 C1808 1.390 . S
C1804 C1798 1.465 . S
C1804 C1803 1.396 . S
C1804 C1805 1.399 . S
C1805 H1791 0.929 . S
C1805 C1804 1.399 . S
C1805 C1806 1.385 . S
C1806 H1792 0.931 . S
C1806 C1805 1.385 . S
C1806 C1807 1.389 . S
C1807 C1806 1.389 . S
C1807 C1808 1.387 . S
C1808 H1793 0.930 . S
C1808 C1803 1.390 . S
C1808 C1807 1.387 . S
H1809 C1821 0.930 . S
H1810 C1823 0.930 . S
H1811 C1824 0.930 . S
H1812 C1828 0.959 . S
H1813 C1828 0.959 . S
H1814 C1828 0.961 . S
H1815 C1829 0.960 . S
H1816 C1829 0.961 . S
H1817 C1829 0.959 . S
H1818 C1832 0.929 . S
H1819 C1833 0.931 . S
H1820 C1835 0.930 . S
C1821 H1809 0.930 . S
C1821 C1822 1.399 . S
C1821 C1826 1.399 . S
C1822 C1821 1.399 . S
C1822 C1823 1.376 . S
C1823 H1810 0.930 . S
C1823 C1822 1.376 . S
C1823 C1824 1.388 . S
C1824 H1811 0.930 . S
C1824 C1823 1.388 . S
C1824 C1825 1.390 . S
C1825 C1824 1.390 . S
C1825 C1826 1.394 . S
C1825 C1831 1.465 . S
C1826 C1821 1.399 . S
C1826 C1825 1.394 . S
C1826 C1827 1.516 . S
C1827 C1826 1.516 . S
C1827 C1828 1.502 . S
C1827 C1829 1.561 . S
C1827 C1830 1.526 . S
C1828 H1812 0.959 . S
C1828 H1813 0.959 . S
C1828 H1814 0.961 . S
C1828 C1827 1.502 . S
C1829 H1815 0.960 . S
C1829 H1816 0.961 . S
C1829 H1817 0.959 . S
C1829 C1827 1.561 . S
C1830 C1827 1.526 . S
C1830 C1831 1.396 . S
C1830 C1835 1.390 . S
C1831 C1825 1.465 . S
C1831 C1830 1.396 . S
C1831 C1832 1.399 . S
C1832 H1818 0.929 . S
C1832 C1831 1.399 . S
C1832 C1833 1.385 . S
C1833 H1819 0.931 . S
C1833 C1832 1.385 . S
C1833 C1834 1.389 . S
C1834 C1833 1.389 . S
C1834 C1835 1.387 . S
C1835 H1820 0.930 . S
C1835 C1830 1.390 . S
C1835 C1834 1.387 . S
H1836 C1848 0.930 . S
H1837 C1850 0.930 . S
H1838 C1851 0.930 . S
H1839 C1855 0.959 . S
H1840 C1855 0.959 . S
H1841 C1855 0.961 . S
H1842 C1856 0.960 . S
H1843 C1856 0.961 . S
H1844 C1856 0.959 . S
H1845 C1859 0.929 . S
H1846 C1860 0.931 . S
H1847 C1862 0.930 . S
C1848 H1836 0.930 . S
C1848 C1849 1.399 . S
C1848 C1853 1.399 . S
C1849 C1848 1.399 . S
C1849 C1850 1.376 . S
C1850 H1837 0.930 . S
C1850 C1849 1.376 . S
C1850 C1851 1.388 . S
C1851 H1838 0.930 . S
C1851 C1850 1.388 . S
C1851 C1852 1.390 . S
C1852 C1851 1.390 . S
C1852 C1853 1.394 . S
C1852 C1858 1.465 . S
C1853 C1848 1.399 . S
C1853 C1852 1.394 . S
C1853 C1854 1.516 . S
C1854 C1853 1.516 . S
C1854 C1855 1.502 . S
C1854 C1856 1.561 . S
C1854 C1857 1.526 . S
C1855 H1839 0.959 . S
C1855 H1840 0.959 . S
C1855 H1841 0.961 . S
C1855 C1854 1.502 . S
C1856 H1842 0.960 . S
C1856 H1843 0.961 . S
C1856 H1844 0.959 . S
C1856 C1854 1.561 . S
C1857 C1854 1.526 . S
C1857 C1858 1.396 . S
C1857 C1862 1.390 . S
C1858 C1852 1.465 . S
C1858 C1857 1.396 . S
C1858 C1859 1.399 . S
C1859 H1845 0.929 . S
C1859 C1858 1.399 . S
C1859 C1860 1.385 . S
C1860 H1846 0.931 . S
C1860 C1859 1.385 . S
C1860 C1861 1.389 . S
C1861 C1860 1.389 . S
C1861 C1862 1.387 . S
C1862 H1847 0.930 . S
C1862 C1857 1.390 . S
C1862 C1861 1.387 . S
H1863 C1875 0.930 . S
H1864 C1877 0.930 . S
H1865 C1878 0.930 . S
H1866 C1882 0.959 . S
H1867 C1882 0.959 . S
H1868 C1882 0.961 . S
H1869 C1883 0.960 . S
H1870 C1883 0.961 . S
H1871 C1883 0.959 . S
H1872 C1886 0.929 . S
H1873 C1887 0.931 . S
H1874 C1889 0.930 . S
C1875 H1863 0.930 . S
C1875 C1876 1.399 . S
C1875 C1880 1.399 . S
C1876 C1875 1.399 . S
C1876 C1877 1.376 . S
C1877 H1864 0.930 . S
C1877 C1876 1.376 . S
C1877 C1878 1.388 . S
C1878 H1865 0.930 . S
C1878 C1877 1.388 . S
C1878 C1879 1.390 . S
C1879 C1878 1.390 . S
C1879 C1880 1.394 . S
C1879 C1885 1.465 . S
C1880 C1875 1.399 . S
C1880 C1879 1.394 . S
C1880 C1881 1.516 . S
C1881 C1880 1.516 . S
C1881 C1882 1.502 . S
C1881 C1883 1.561 . S
C1881 C1884 1.526 . S
C1882 H1866 0.959 . S
C1882 H1867 0.959 . S
C1882 H1868 0.961 . S
C1882 C1881 1.502 . S
C1883 H1869 0.960 . S
C1883 H1870 0.961 . S
C1883 H1871 0.959 . S
C1883 C1881 1.561 . S
C1884 C1881 1.526 . S
C1884 C1885 1.396 . S
C1884 C1889 1.390 . S
C1885 C1879 1.465 . S
C1885 C1884 1.396 . S
C1885 C1886 1.399 . S
C1886 H1872 0.929 . S
C1886 C1885 1.399 . S
C1886 C1887 1.385 . S
C1887 H1873 0.931 . S
C1887 C1886 1.385 . S
C1887 C1888 1.389 . S
C1888 C1887 1.389 . S
C1888 C1889 1.387 . S
C1889 H1874 0.930 . S
C1889 C1884 1.390 . S
C1889 C1888 1.387 . S
H1890 C1902 0.930 . S
H1891 C1904 0.930 . S
H1892 C1905 0.930 . S
H1893 C1909 0.959 . S
H1894 C1909 0.959 . S
H1895 C1909 0.961 . S
H1896 C1910 0.960 . S
H1897 C1910 0.961 . S
H1898 C1910 0.959 . S
H1899 C1913 0.929 . S
H1900 C1914 0.931 . S
H1901 C1916 0.930 . S
C1902 H1890 0.930 . S
C1902 C1903 1.399 . S
C1902 C1907 1.399 . S
C1903 C1902 1.399 . S
C1903 C1904 1.376 . S
C1904 H1891 0.930 . S
C1904 C1903 1.376 . S
C1904 C1905 1.388 . S
C1905 H1892 0.930 . S
C1905 C1904 1.388 . S
C1905 C1906 1.390 . S
C1906 C1905 1.390 . S
C1906 C1907 1.394 . S
C1906 C1912 1.465 . S
C1907 C1902 1.399 . S
C1907 C1906 1.394 . S
C1907 C1908 1.516 . S
C1908 C1907 1.516 . S
C1908 C1909 1.502 . S
C1908 C1910 1.561 . S
C1908 C1911 1.526 . S
C1909 H1893 0.959 . S
C1909 H1894 0.959 . S
C1909 H1895 0.961 . S
C1909 C1908 1.502 . S
C1910 H1896 0.960 . S
C1910 H1897 0.961 . S
C1910 H1898 0.959 . S
C1910 C1908 1.561 . S
C1911 C1908 1.526 . S
C1911 C1912 1.396 . S
C1911 C1916 1.390 . S
C1912 C1906 1.465 . S
C1912 C1911 1.396 . S
C1912 C1913 1.399 . S
C1913 H1899 0.929 . S
C1913 C1912 1.399 . S
C1913 C1914 1.385 . S
C1914 H1900 0.931 . S
C1914 C1913 1.385 . S
C1914 C1915 1.389 . S
C1915 C1914 1.389 . S
C1915 C1916 1.387 . S
C1916 H1901 0.930 . S
C1916 C1911 1.390 . S
C1916 C1915 1.387 . S
H1917 C1929 0.930 . S
H1918 C1931 0.930 . S
H1919 C1932 0.930 . S
H1920 C1936 0.959 . S
H1921 C1936 0.959 . S
H1922 C1936 0.961 . S
H1923 C1937 0.960 . S
H1924 C1937 0.961 . S
H1925 C1937 0.959 . S
H1926 C1940 0.929 . S
H1927 C1941 0.931 . S
H1928 C1943 0.930 . S
C1929 H1917 0.930 . S
C1929 C1930 1.399 . S
C1929 C1934 1.399 . S
C1930 C1929 1.399 . S
C1930 C1931 1.376 . S
C1931 H1918 0.930 . S
C1931 C1930 1.376 . S
C1931 C1932 1.388 . S
C1932 H1919 0.930 . S
C1932 C1931 1.388 . S
C1932 C1933 1.390 . S
C1933 C1932 1.390 . S
C1933 C1934 1.394 . S
C1933 C1939 1.465 . S
C1934 C1929 1.399 . S
C1934 C1933 1.394 . S
C1934 C1935 1.516 . S
C1935 C1934 1.516 . S
C1935 C1936 1.502 . S
C1935 C1937 1.561 . S
C1935 C1938 1.526 . S
C1936 H1920 0.959 . S
C1936 H1921 0.959 . S
C1936 H1922 0.961 . S
C1936 C1935 1.502 . S
C1937 H1923 0.960 . S
C1937 H1924 0.961 . S
C1937 H1925 0.959 . S
C1937 C1935 1.561 . S
C1938 C1935 1.526 . S
C1938 C1939 1.396 . S
C1938 C1943 1.390 . S
C1939 C1933 1.465 . S
C1939 C1938 1.396 . S
C1939 C1940 1.399 . S
C1940 H1926 0.929 . S
C1940 C1939 1.399 . S
C1940 C1941 1.385 . S
C1941 H1927 0.931 . S
C1941 C1940 1.385 . S
C1941 C1942 1.389 . S
C1942 C1941 1.389 . S
C1942 C1943 1.387 . S
C1943 H1928 0.930 . S
C1943 C1938 1.390 . S
C1943 C1942 1.387 . S
H1944 C1956 0.930 . S
H1945 C1958 0.930 . S
H1946 C1959 0.930 . S
H1947 C1963 0.959 . S
H1948 C1963 0.959 . S
H1949 C1963 0.961 . S
H1950 C1964 0.960 . S
H1951 C1964 0.961 . S
H1952 C1964 0.959 . S
H1953 C1967 0.929 . S
H1954 C1968 0.931 . S
H1955 C1970 0.930 . S
C1956 H1944 0.930 . S
C1956 C1957 1.399 . S
C1956 C1961 1.399 . S
C1957 C1956 1.399 . S
C1957 C1958 1.376 . S
C1958 H1945 0.930 . S
C1958 C1957 1.376 . S
C1958 C1959 1.388 . S
C1959 H1946 0.930 . S
C1959 C1958 1.388 . S
C1959 C1960 1.390 . S
C1960 C1959 1.390 . S
C1960 C1961 1.394 . S
C1960 C1966 1.465 . S
C1961 C1956 1.399 . S
C1961 C1960 1.394 . S
C1961 C1962 1.516 . S
C1962 C1961 1.516 . S
C1962 C1963 1.502 . S
C1962 C1964 1.561 . S
C1962 C1965 1.526 . S
C1963 H1947 0.959 . S
C1963 H1948 0.959 . S
C1963 H1949 0.961 . S
C1963 C1962 1.502 . S
C1964 H1950 0.960 . S
C1964 H1951 0.961 . S
C1964 H1952 0.959 . S
C1964 C1962 1.561 . S
C1965 C1962 1.526 . S
C1965 C1966 1.396 . S
C1965 C1970 1.390 . S
C1966 C1960 1.465 . S
C1966 C1965 1.396 . S
C1966 C1967 1.399 . S
C1967 H1953 0.929 . S
C1967 C1966 1.399 . S
C1967 C1968 1.385 . S
C1968 H1954 0.931 . S
C1968 C1967 1.385 . S
C1968 C1969 1.389 . S
C1969 C1968 1.389 . S
C1969 C1970 1.387 . S
C1970 H1955 0.930 . S
C1970 C1965 1.390 . S
C1970 C1969 1.387 . S
H1971 C1983 0.930 . S
H1972 C1985 0.930 . S
H1973 C1986 0.930 . S
H1974 C1990 0.959 . S
H1975 C1990 0.959 . S
H1976 C1990 0.961 . S
H1977 C1991 0.960 . S
H1978 C1991 0.961 . S
H1979 C1991 0.959 . S
H1980 C1994 0.929 . S
H1981 C1995 0.931 . S
H1982 C1997 0.930 . S
C1983 H1971 0.930 . S
C1983 C1984 1.399 1_565 S
C1983 C1988 1.399 . S
C1984 C1983 1.399 1_545 S
C1984 C1985 1.376 . S
C1985 H1972 0.930 . S
C1985 C1984 1.376 . S
C1985 C1986 1.388 1_545 S
C1986 H1973 0.930 . S
C1986 C1985 1.388 1_565 S
C1986 C1987 1.390 . S
C1987 C1986 1.390 . S
C1987 C1988 1.394 . S
C1987 C1993 1.465 . S
C1988 C1983 1.399 . S
C1988 C1987 1.394 . S
C1988 C1989 1.516 . S
C1989 C1988 1.516 . S
C1989 C1990 1.502 . S
C1989 C1991 1.561 . S
C1989 C1992 1.526 . S
C1990 H1974 0.959 . S
C1990 H1975 0.959 . S
C1990 H1976 0.961 . S
C1990 C1989 1.502 . S
C1991 H1977 0.960 . S
C1991 H1978 0.961 . S
C1991 H1979 0.959 . S
C1991 C1989 1.561 . S
C1992 C1989 1.526 . S
C1992 C1993 1.396 . S
C1992 C1997 1.390 . S
C1993 C1987 1.465 . S
C1993 C1992 1.396 . S
C1993 C1994 1.399 . S
C1994 H1980 0.929 . S
C1994 C1993 1.399 . S
C1994 C1995 1.385 . S
C1995 H1981 0.931 . S
C1995 C1994 1.385 . S
C1995 C1996 1.389 . S
C1996 C1995 1.389 . S
C1996 C1997 1.387 . S
C1997 H1982 0.930 . S
C1997 C1992 1.390 . S
C1997 C1996 1.387 . S
H1998 C2010 0.930 . S
H1999 C2012 0.930 . S
H2000 C2013 0.930 . S
H2001 C2017 0.959 . S
H2002 C2017 0.959 . S
H2003 C2017 0.961 . S
H2004 C2018 0.960 . S
H2005 C2018 0.961 . S
H2006 C2018 0.959 . S
H2007 C2021 0.929 . S
H2008 C2022 0.931 . S
H2009 C2024 0.930 . S
C2010 H1998 0.930 . S
C2010 C2011 1.399 1_455 S
C2010 C2015 1.399 . S
C2011 C2010 1.399 1_655 S
C2011 C2012 1.376 . S
C2012 H1999 0.930 . S
C2012 C2011 1.376 . S
C2012 C2013 1.388 1_655 S
C2013 H2000 0.930 . S
C2013 C2012 1.388 1_455 S
C2013 C2014 1.390 . S
C2014 C2013 1.390 . S
C2014 C2015 1.394 . S
C2014 C2020 1.465 . S
C2015 C2010 1.399 . S
C2015 C2014 1.394 . S
C2015 C2016 1.516 . S
C2016 C2015 1.516 . S
C2016 C2017 1.502 . S
C2016 C2018 1.561 . S
C2016 C2019 1.526 . S
C2017 H2001 0.959 . S
C2017 H2002 0.959 . S
C2017 H2003 0.961 . S
C2017 C2016 1.502 . S
C2018 H2004 0.960 . S
C2018 H2005 0.961 . S
C2018 H2006 0.959 . S
C2018 C2016 1.561 . S
C2019 C2016 1.526 . S
C2019 C2020 1.396 . S
C2019 C2024 1.390 . S
C2020 C2014 1.465 . S
C2020 C2019 1.396 . S
C2020 C2021 1.399 . S
C2021 H2007 0.929 . S
C2021 C2020 1.399 . S
C2021 C2022 1.385 . S
C2022 H2008 0.931 . S
C2022 C2021 1.385 . S
C2022 C2023 1.389 . S
C2023 C2022 1.389 . S
C2023 C2024 1.387 . S
C2024 H2009 0.930 . S
C2024 C2019 1.390 . S
C2024 C2023 1.387 . S
H2025 C2037 0.930 . S
H2026 C2039 0.930 . S
H2027 C2040 0.930 . S
H2028 C2044 0.959 . S
H2029 C2044 0.959 . S
H2030 C2044 0.961 . S
H2031 C2045 0.960 . S
H2032 C2045 0.961 . S
H2033 C2045 0.959 . S
H2034 C2048 0.929 . S
H2035 C2049 0.931 . S
H2036 C2051 0.930 . S
C2037 H2025 0.930 . S
C2037 C2038 1.399 . S
C2037 C2042 1.399 . S
C2038 C2037 1.399 . S
C2038 C2039 1.376 . S
C2039 H2026 0.930 . S
C2039 C2038 1.376 . S
C2039 C2040 1.388 . S
C2040 H2027 0.930 . S
C2040 C2039 1.388 . S
C2040 C2041 1.390 . S
C2041 C2040 1.390 . S
C2041 C2042 1.394 . S
C2041 C2047 1.465 . S
C2042 C2037 1.399 . S
C2042 C2041 1.394 . S
C2042 C2043 1.516 . S
C2043 C2042 1.516 . S
C2043 C2044 1.502 . S
C2043 C2045 1.561 . S
C2043 C2046 1.526 . S
C2044 H2028 0.959 . S
C2044 H2029 0.959 . S
C2044 H2030 0.961 . S
C2044 C2043 1.502 . S
C2045 H2031 0.960 . S
C2045 H2032 0.961 . S
C2045 H2033 0.959 . S
C2045 C2043 1.561 . S
C2046 C2043 1.526 . S
C2046 C2047 1.396 . S
C2046 C2051 1.390 . S
C2047 C2041 1.465 . S
C2047 C2046 1.396 . S
C2047 C2048 1.399 . S
C2048 H2034 0.929 . S
C2048 C2047 1.399 . S
C2048 C2049 1.385 . S
C2049 H2035 0.931 . S
C2049 C2048 1.385 . S
C2049 C2050 1.389 . S
C2050 C2049 1.389 . S
C2050 C2051 1.387 . S
C2051 H2036 0.930 . S
C2051 C2046 1.390 . S
C2051 C2050 1.387 . S
H2052 C2064 0.930 . S
H2053 C2066 0.930 . S
H2054 C2067 0.930 . S
H2055 C2071 0.959 . S
H2056 C2071 0.959 . S
H2057 C2071 0.961 . S
H2058 C2072 0.960 . S
H2059 C2072 0.961 . S
H2060 C2072 0.959 . S
H2061 C2075 0.929 . S
H2062 C2076 0.931 . S
H2063 C2078 0.930 . S
C2064 H2052 0.930 . S
C2064 C2065 1.399 . S
C2064 C2069 1.399 . S
C2065 C2064 1.399 . S
C2065 C2066 1.376 . S
C2066 H2053 0.930 . S
C2066 C2065 1.376 . S
C2066 C2067 1.388 . S
C2067 H2054 0.930 . S
C2067 C2066 1.388 . S
C2067 C2068 1.390 . S
C2068 C2067 1.390 . S
C2068 C2069 1.394 . S
C2068 C2074 1.465 . S
C2069 C2064 1.399 . S
C2069 C2068 1.394 . S
C2069 C2070 1.516 . S
C2070 C2069 1.516 . S
C2070 C2071 1.502 . S
C2070 C2072 1.561 . S
C2070 C2073 1.526 . S
C2071 H2055 0.959 . S
C2071 H2056 0.959 . S
C2071 H2057 0.961 . S
C2071 C2070 1.502 . S
C2072 H2058 0.960 . S
C2072 H2059 0.961 . S
C2072 H2060 0.959 . S
C2072 C2070 1.561 . S
C2073 C2070 1.526 . S
C2073 C2074 1.396 . S
C2073 C2078 1.390 . S
C2074 C2068 1.465 . S
C2074 C2073 1.396 . S
C2074 C2075 1.399 . S
C2075 H2061 0.929 . S
C2075 C2074 1.399 . S
C2075 C2076 1.385 . S
C2076 H2062 0.931 . S
C2076 C2075 1.385 . S
C2076 C2077 1.389 . S
C2077 C2076 1.389 . S
C2077 C2078 1.387 . S
C2078 H2063 0.930 . S
C2078 C2073 1.390 . S
C2078 C2077 1.387 . S
H2079 C2091 0.930 . S
H2080 C2093 0.930 . S
H2081 C2094 0.930 . S
H2082 C2098 0.959 . S
H2083 C2098 0.959 . S
H2084 C2098 0.961 . S
H2085 C2099 0.960 . S
H2086 C2099 0.961 . S
H2087 C2099 0.959 . S
H2088 C2102 0.929 . S
H2089 C2103 0.931 . S
H2090 C2105 0.930 . S
C2091 H2079 0.930 . S
C2091 C2092 1.399 . S
C2091 C2096 1.399 . S
C2092 C2091 1.399 . S
C2092 C2093 1.376 . S
C2093 H2080 0.930 . S
C2093 C2092 1.376 . S
C2093 C2094 1.388 . S
C2094 H2081 0.930 . S
C2094 C2093 1.388 . S
C2094 C2095 1.390 . S
C2095 C2094 1.390 . S
C2095 C2096 1.394 . S
C2095 C2101 1.465 . S
C2096 C2091 1.399 . S
C2096 C2095 1.394 . S
C2096 C2097 1.516 . S
C2097 C2096 1.516 . S
C2097 C2098 1.502 . S
C2097 C2099 1.561 . S
C2097 C2100 1.526 . S
C2098 H2082 0.959 . S
C2098 H2083 0.959 . S
C2098 H2084 0.961 . S
C2098 C2097 1.502 . S
C2099 H2085 0.960 . S
C2099 H2086 0.961 . S
C2099 H2087 0.959 . S
C2099 C2097 1.561 . S
C2100 C2097 1.526 . S
C2100 C2101 1.396 . S
C2100 C2105 1.390 . S
C2101 C2095 1.465 . S
C2101 C2100 1.396 . S
C2101 C2102 1.399 . S
C2102 H2088 0.929 . S
C2102 C2101 1.399 . S
C2102 C2103 1.385 . S
C2103 H2089 0.931 . S
C2103 C2102 1.385 . S
C2103 C2104 1.389 . S
C2104 C2103 1.389 . S
C2104 C2105 1.387 . S
C2105 H2090 0.930 . S
C2105 C2100 1.390 . S
C2105 C2104 1.387 . S
H2106 C2118 0.930 . S
H2107 C2120 0.930 . S
H2108 C2121 0.930 . S
H2109 C2125 0.959 . S
H2110 C2125 0.959 . S
H2111 C2125 0.961 . S
H2112 C2126 0.960 . S
H2113 C2126 0.961 . S
H2114 C2126 0.959 . S
H2115 C2129 0.929 . S
H2116 C2130 0.931 . S
H2117 C2132 0.930 . S
C2118 H2106 0.930 . S
C2118 C2119 1.399 . S
C2118 C2123 1.399 . S
C2119 C2118 1.399 . S
C2119 C2120 1.376 . S
C2120 H2107 0.930 . S
C2120 C2119 1.376 . S
C2120 C2121 1.388 . S
C2121 H2108 0.930 . S
C2121 C2120 1.388 . S
C2121 C2122 1.390 . S
C2122 C2121 1.390 . S
C2122 C2123 1.394 . S
C2122 C2128 1.465 . S
C2123 C2118 1.399 . S
C2123 C2122 1.394 . S
C2123 C2124 1.516 . S
C2124 C2123 1.516 . S
C2124 C2125 1.502 . S
C2124 C2126 1.561 . S
C2124 C2127 1.526 . S
C2125 H2109 0.959 . S
C2125 H2110 0.959 . S
C2125 H2111 0.961 . S
C2125 C2124 1.502 . S
C2126 H2112 0.960 . S
C2126 H2113 0.961 . S
C2126 H2114 0.959 . S
C2126 C2124 1.561 . S
C2127 C2124 1.526 . S
C2127 C2128 1.396 . S
C2127 C2132 1.390 . S
C2128 C2122 1.465 . S
C2128 C2127 1.396 . S
C2128 C2129 1.399 . S
C2129 H2115 0.929 . S
C2129 C2128 1.399 . S
C2129 C2130 1.385 . S
C2130 H2116 0.931 . S
C2130 C2129 1.385 . S
C2130 C2131 1.389 . S
C2131 C2130 1.389 . S
C2131 C2132 1.387 . S
C2132 H2117 0.930 . S
C2132 C2127 1.390 . S
C2132 C2131 1.387 . S
H2133 C2145 0.930 . S
H2134 C2147 0.930 . S
H2135 C2148 0.930 . S
H2136 C2152 0.959 . S
H2137 C2152 0.959 . S
H2138 C2152 0.961 . S
H2139 C2153 0.960 . S
H2140 C2153 0.961 . S
H2141 C2153 0.959 . S
H2142 C2156 0.929 . S
H2143 C2157 0.931 . S
H2144 C2159 0.930 . S
C2145 H2133 0.930 . S
C2145 C2146 1.399 . S
C2145 C2150 1.399 1_565 S
C2146 C2145 1.399 . S
C2146 C2147 1.376 . S
C2147 H2134 0.930 . S
C2147 C2146 1.376 . S
C2147 C2148 1.388 1_565 S
C2148 H2135 0.930 . S
C2148 C2147 1.388 1_545 S
C2148 C2149 1.390 . S
C2149 C2148 1.390 . S
C2149 C2150 1.394 . S
C2149 C2155 1.465 . S
C2150 C2145 1.399 1_545 S
C2150 C2149 1.394 . S
C2150 C2151 1.516 . S
C2151 C2150 1.516 . S
C2151 C2152 1.502 . S
C2151 C2153 1.561 . S
C2151 C2154 1.526 . S
C2152 H2136 0.959 . S
C2152 H2137 0.959 . S
C2152 H2138 0.961 . S
C2152 C2151 1.502 . S
C2153 H2139 0.960 . S
C2153 H2140 0.961 . S
C2153 H2141 0.959 . S
C2153 C2151 1.561 . S
C2154 C2151 1.526 . S
C2154 C2155 1.396 . S
C2154 C2159 1.390 . S
C2155 C2149 1.465 . S
C2155 C2154 1.396 . S
C2155 C2156 1.399 . S
C2156 H2142 0.929 . S
C2156 C2155 1.399 . S
C2156 C2157 1.385 . S
C2157 H2143 0.931 . S
C2157 C2156 1.385 . S
C2157 C2158 1.389 . S
C2158 C2157 1.389 . S
C2158 C2159 1.387 . S
C2159 H2144 0.930 . S
C2159 C2154 1.390 . S
C2159 C2158 1.387 . S
H2160 C2172 0.930 . S
H2161 C2174 0.930 . S
H2162 C2175 0.930 . S
H2163 C2179 0.959 . S
H2164 C2179 0.959 . S
H2165 C2179 0.961 . S
H2166 C2180 0.960 . S
H2167 C2180 0.961 . S
H2168 C2180 0.959 . S
H2169 C2183 0.929 . S
H2170 C2184 0.931 . S
H2171 C2186 0.930 . S
C2172 H2160 0.930 . S
C2172 C2173 1.399 1_655 S
C2172 C2177 1.399 . S
C2173 C2172 1.399 1_455 S
C2173 C2174 1.376 . S
C2174 H2161 0.930 . S
C2174 C2173 1.376 . S
C2174 C2175 1.388 1_455 S
C2175 H2162 0.930 . S
C2175 C2174 1.388 1_655 S
C2175 C2176 1.390 . S
C2176 C2175 1.390 . S
C2176 C2177 1.394 . S
C2176 C2182 1.465 . S
C2177 C2172 1.399 . S
C2177 C2176 1.394 . S
C2177 C2178 1.516 . S
C2178 C2177 1.516 . S
C2178 C2179 1.502 . S
C2178 C2180 1.561 . S
C2178 C2181 1.526 . S
C2179 H2163 0.959 . S
C2179 H2164 0.959 . S
C2179 H2165 0.961 . S
C2179 C2178 1.502 . S
C2180 H2166 0.960 . S
C2180 H2167 0.961 . S
C2180 H2168 0.959 . S
C2180 C2178 1.561 . S
C2181 C2178 1.526 . S
C2181 C2182 1.396 . S
C2181 C2186 1.390 . S
C2182 C2176 1.465 . S
C2182 C2181 1.396 . S
C2182 C2183 1.399 . S
C2183 H2169 0.929 . S
C2183 C2182 1.399 . S
C2183 C2184 1.385 . S
C2184 H2170 0.931 . S
C2184 C2183 1.385 . S
C2184 C2185 1.389 . S
C2185 C2184 1.389 . S
C2185 C2186 1.387 . S
C2186 H2171 0.930 . S
C2186 C2181 1.390 . S
C2186 C2185 1.387 . S
H2187 C2199 0.930 . S
H2188 C2201 0.930 . S
H2189 C2202 0.930 . S
H2190 C2206 0.959 . S
H2191 C2206 0.959 . S
H2192 C2206 0.961 . S
H2193 C2207 0.960 . S
H2194 C2207 0.961 . S
H2195 C2207 0.959 . S
H2196 C2210 0.929 . S
H2197 C2211 0.931 . S
H2198 C2213 0.930 . S
C2199 H2187 0.930 . S
C2199 C2200 1.399 . S
C2199 C2204 1.399 . S
C2200 C2199 1.399 . S
C2200 C2201 1.376 . S
C2201 H2188 0.930 . S
C2201 C2200 1.376 . S
C2201 C2202 1.388 . S
C2202 H2189 0.930 . S
C2202 C2201 1.388 . S
C2202 C2203 1.390 . S
C2203 C2202 1.390 . S
C2203 C2204 1.394 . S
C2203 C2209 1.465 . S
C2204 C2199 1.399 . S
C2204 C2203 1.394 . S
C2204 C2205 1.516 . S
C2205 C2204 1.516 . S
C2205 C2206 1.502 . S
C2205 C2207 1.561 . S
C2205 C2208 1.526 . S
C2206 H2190 0.959 . S
C2206 H2191 0.959 . S
C2206 H2192 0.961 . S
C2206 C2205 1.502 . S
C2207 H2193 0.960 . S
C2207 H2194 0.961 . S
C2207 H2195 0.959 . S
C2207 C2205 1.561 . S
C2208 C2205 1.526 . S
C2208 C2209 1.396 . S
C2208 C2213 1.390 . S
C2209 C2203 1.465 . S
C2209 C2208 1.396 . S
C2209 C2210 1.399 . S
C2210 H2196 0.929 . S
C2210 C2209 1.399 . S
C2210 C2211 1.385 . S
C2211 H2197 0.931 . S
C2211 C2210 1.385 . S
C2211 C2212 1.389 . S
C2212 C2211 1.389 . S
C2212 C2213 1.387 . S
C2213 H2198 0.930 . S
C2213 C2208 1.390 . S
C2213 C2212 1.387 . S
H2214 C2226 0.930 . S
H2215 C2228 0.930 . S
H2216 C2229 0.930 . S
H2217 C2233 0.959 . S
H2218 C2233 0.959 . S
H2219 C2233 0.961 . S
H2220 C2234 0.960 . S
H2221 C2234 0.961 . S
H2222 C2234 0.959 . S
H2223 C2237 0.929 . S
H2224 C2238 0.931 . S
H2225 C2240 0.930 . S
C2226 H2214 0.930 . S
C2226 C2227 1.399 1_655 S
C2226 C2231 1.399 . S
C2227 C2226 1.399 1_455 S
C2227 C2228 1.376 . S
C2228 H2215 0.930 . S
C2228 C2227 1.376 . S
C2228 C2229 1.388 1_455 S
C2229 H2216 0.930 . S
C2229 C2228 1.388 1_655 S
C2229 C2230 1.390 . S
C2230 C2229 1.390 . S
C2230 C2231 1.394 . S
C2230 C2236 1.465 . S
C2231 C2226 1.399 . S
C2231 C2230 1.394 . S
C2231 C2232 1.516 . S
C2232 C2231 1.516 . S
C2232 C2233 1.502 . S
C2232 C2234 1.561 . S
C2232 C2235 1.526 . S
C2233 H2217 0.959 . S
C2233 H2218 0.959 . S
C2233 H2219 0.961 . S
C2233 C2232 1.502 . S
C2234 H2220 0.960 . S
C2234 H2221 0.961 . S
C2234 H2222 0.959 . S
C2234 C2232 1.561 . S
C2235 C2232 1.526 . S
C2235 C2236 1.396 . S
C2235 C2240 1.390 . S
C2236 C2230 1.465 . S
C2236 C2235 1.396 . S
C2236 C2237 1.399 . S
C2237 H2223 0.929 . S
C2237 C2236 1.399 . S
C2237 C2238 1.385 . S
C2238 H2224 0.931 . S
C2238 C2237 1.385 . S
C2238 C2239 1.389 . S
C2239 C2238 1.389 . S
C2239 C2240 1.387 . S
C2240 H2225 0.930 . S
C2240 C2235 1.390 . S
C2240 C2239 1.387 . S
H2241 C2253 0.930 . S
H2242 C2255 0.930 . S
H2243 C2256 0.930 . S
H2244 C2260 0.959 . S
H2245 C2260 0.959 . S
H2246 C2260 0.961 . S
H2247 C2261 0.960 . S
H2248 C2261 0.961 . S
H2249 C2261 0.959 . S
H2250 C2264 0.929 . S
H2251 C2265 0.931 . S
H2252 C2267 0.930 . S
C2253 H2241 0.930 . S
C2253 C2254 1.399 . S
C2253 C2258 1.399 . S
C2254 C2253 1.399 . S
C2254 C2255 1.376 . S
C2255 H2242 0.930 . S
C2255 C2254 1.376 . S
C2255 C2256 1.388 . S
C2256 H2243 0.930 . S
C2256 C2255 1.388 . S
C2256 C2257 1.390 . S
C2257 C2256 1.390 . S
C2257 C2258 1.394 . S
C2257 C2263 1.465 . S
C2258 C2253 1.399 . S
C2258 C2257 1.394 . S
C2258 C2259 1.516 . S
C2259 C2258 1.516 . S
C2259 C2260 1.502 . S
C2259 C2261 1.561 . S
C2259 C2262 1.526 . S
C2260 H2244 0.959 . S
C2260 H2245 0.959 . S
C2260 H2246 0.961 . S
C2260 C2259 1.502 . S
C2261 H2247 0.960 . S
C2261 H2248 0.961 . S
C2261 H2249 0.959 . S
C2261 C2259 1.561 . S
C2262 C2259 1.526 . S
C2262 C2263 1.396 . S
C2262 C2267 1.390 . S
C2263 C2257 1.465 . S
C2263 C2262 1.396 . S
C2263 C2264 1.399 . S
C2264 H2250 0.929 . S
C2264 C2263 1.399 . S
C2264 C2265 1.385 . S
C2265 H2251 0.931 . S
C2265 C2264 1.385 . S
C2265 C2266 1.389 . S
C2266 C2265 1.389 . S
C2266 C2267 1.387 . S
C2267 H2252 0.930 . S
C2267 C2262 1.390 . S
C2267 C2266 1.387 . S
H2268 C2280 0.930 . S
H2269 C2282 0.930 . S
H2270 C2283 0.930 . S
H2271 C2287 0.959 . S
H2272 C2287 0.959 . S
H2273 C2287 0.961 . S
H2274 C2288 0.960 . S
H2275 C2288 0.961 . S
H2276 C2288 0.959 . S
H2277 C2291 0.929 . S
H2278 C2292 0.931 . S
H2279 C2294 0.930 . S
C2280 H2268 0.930 . S
C2280 C2281 1.399 1_545 S
C2280 C2285 1.399 . S
C2281 C2280 1.399 1_565 S
C2281 C2282 1.376 . S
C2282 H2269 0.930 . S
C2282 C2281 1.376 . S
C2282 C2283 1.388 1_565 S
C2283 H2270 0.930 . S
C2283 C2282 1.388 1_545 S
C2283 C2284 1.390 . S
C2284 C2283 1.390 . S
C2284 C2285 1.394 . S
C2284 C2290 1.465 . S
C2285 C2280 1.399 . S
C2285 C2284 1.394 . S
C2285 C2286 1.516 . S
C2286 C2285 1.516 . S
C2286 C2287 1.502 . S
C2286 C2288 1.561 . S
C2286 C2289 1.526 . S
C2287 H2271 0.959 . S
C2287 H2272 0.959 . S
C2287 H2273 0.961 . S
C2287 C2286 1.502 . S
C2288 H2274 0.960 . S
C2288 H2275 0.961 . S
C2288 H2276 0.959 . S
C2288 C2286 1.561 . S
C2289 C2286 1.526 . S
C2289 C2290 1.396 . S
C2289 C2294 1.390 . S
C2290 C2284 1.465 . S
C2290 C2289 1.396 . S
C2290 C2291 1.399 . S
C2291 H2277 0.929 . S
C2291 C2290 1.399 . S
C2291 C2292 1.385 . S
C2292 H2278 0.931 . S
C2292 C2291 1.385 . S
C2292 C2293 1.389 . S
C2293 C2292 1.389 . S
C2293 C2294 1.387 . S
C2294 H2279 0.930 . S
C2294 C2289 1.390 . S
C2294 C2293 1.387 . S
H2295 C2307 0.930 . S
H2296 C2309 0.930 . S
H2297 C2310 0.930 . S
H2298 C2314 0.959 . S
H2299 C2314 0.959 . S
H2300 C2314 0.961 . S
H2301 C2315 0.960 . S
H2302 C2315 0.961 . S
H2303 C2315 0.959 . S
H2304 C2318 0.929 . S
H2305 C2319 0.931 . S
H2306 C2321 0.930 . S
C2307 H2295 0.930 . S
C2307 C2308 1.399 . S
C2307 C2312 1.399 . S
C2308 C2307 1.399 . S
C2308 C2309 1.376 . S
C2309 H2296 0.930 . S
C2309 C2308 1.376 . S
C2309 C2310 1.388 . S
C2310 H2297 0.930 . S
C2310 C2309 1.388 . S
C2310 C2311 1.390 . S
C2311 C2310 1.390 . S
C2311 C2312 1.394 . S
C2311 C2317 1.465 . S
C2312 C2307 1.399 . S
C2312 C2311 1.394 . S
C2312 C2313 1.516 . S
C2313 C2312 1.516 . S
C2313 C2314 1.502 . S
C2313 C2315 1.561 . S
C2313 C2316 1.526 . S
C2314 H2298 0.959 . S
C2314 H2299 0.959 . S
C2314 H2300 0.961 . S
C2314 C2313 1.502 . S
C2315 H2301 0.960 . S
C2315 H2302 0.961 . S
C2315 H2303 0.959 . S
C2315 C2313 1.561 . S
C2316 C2313 1.526 . S
C2316 C2317 1.396 . S
C2316 C2321 1.390 . S
C2317 C2311 1.465 . S
C2317 C2316 1.396 . S
C2317 C2318 1.399 . S
C2318 H2304 0.929 . S
C2318 C2317 1.399 . S
C2318 C2319 1.385 . S
C2319 H2305 0.931 . S
C2319 C2318 1.385 . S
C2319 C2320 1.389 . S
C2320 C2319 1.389 . S
C2320 C2321 1.387 . S
C2321 H2306 0.930 . S
C2321 C2316 1.390 . S
C2321 C2320 1.387 . S
H2322 C2334 0.930 . S
H2323 C2336 0.930 . S
H2324 C2337 0.930 . S
H2325 C2341 0.959 . S
H2326 C2341 0.959 . S
H2327 C2341 0.961 . S
H2328 C2342 0.960 . S
H2329 C2342 0.961 . S
H2330 C2342 0.959 . S
H2331 C2345 0.929 . S
H2332 C2346 0.931 . S
H2333 C2348 0.930 . S
C2334 H2322 0.930 . S
C2334 C2335 1.399 . S
C2334 C2339 1.399 . S
C2335 C2334 1.399 . S
C2335 C2336 1.376 . S
C2336 H2323 0.930 . S
C2336 C2335 1.376 . S
C2336 C2337 1.388 . S
C2337 H2324 0.930 . S
C2337 C2336 1.388 . S
C2337 C2338 1.390 . S
C2338 C2337 1.390 . S
C2338 C2339 1.394 . S
C2338 C2344 1.465 . S
C2339 C2334 1.399 . S
C2339 C2338 1.394 . S
C2339 C2340 1.516 . S
C2340 C2339 1.516 . S
C2340 C2341 1.502 . S
C2340 C2342 1.561 . S
C2340 C2343 1.526 . S
C2341 H2325 0.959 . S
C2341 H2326 0.959 . S
C2341 H2327 0.961 . S
C2341 C2340 1.502 . S
C2342 H2328 0.960 . S
C2342 H2329 0.961 . S
C2342 H2330 0.959 . S
C2342 C2340 1.561 . S
C2343 C2340 1.526 . S
C2343 C2344 1.396 . S
C2343 C2348 1.390 . S
C2344 C2338 1.465 . S
C2344 C2343 1.396 . S
C2344 C2345 1.399 . S
C2345 H2331 0.929 . S
C2345 C2344 1.399 . S
C2345 C2346 1.385 . S
C2346 H2332 0.931 . S
C2346 C2345 1.385 . S
C2346 C2347 1.389 . S
C2347 C2346 1.389 . S
C2347 C2348 1.387 . S
C2348 H2333 0.930 . S
C2348 C2343 1.390 . S
C2348 C2347 1.387 . S
H2349 C2361 0.930 . S
H2350 C2363 0.930 . S
H2351 C2364 0.930 . S
H2352 C2368 0.959 . S
H2353 C2368 0.959 . S
H2354 C2368 0.961 . S
H2355 C2369 0.960 . S
H2356 C2369 0.961 . S
H2357 C2369 0.959 . S
H2358 C2372 0.929 . S
H2359 C2373 0.931 . S
H2360 C2375 0.930 . S
C2361 H2349 0.930 . S
C2361 C2362 1.399 . S
C2361 C2366 1.399 . S
C2362 C2361 1.399 . S
C2362 C2363 1.376 . S
C2363 H2350 0.930 . S
C2363 C2362 1.376 . S
C2363 C2364 1.388 . S
C2364 H2351 0.930 . S
C2364 C2363 1.388 . S
C2364 C2365 1.390 . S
C2365 C2364 1.390 . S
C2365 C2366 1.394 . S
C2365 C2371 1.465 . S
C2366 C2361 1.399 . S
C2366 C2365 1.394 . S
C2366 C2367 1.516 . S
C2367 C2366 1.516 . S
C2367 C2368 1.502 . S
C2367 C2369 1.561 . S
C2367 C2370 1.526 . S
C2368 H2352 0.959 . S
C2368 H2353 0.959 . S
C2368 H2354 0.961 . S
C2368 C2367 1.502 . S
C2369 H2355 0.960 . S
C2369 H2356 0.961 . S
C2369 H2357 0.959 . S
C2369 C2367 1.561 . S
C2370 C2367 1.526 . S
C2370 C2371 1.396 . S
C2370 C2375 1.390 . S
C2371 C2365 1.465 . S
C2371 C2370 1.396 . S
C2371 C2372 1.399 . S
C2372 H2358 0.929 . S
C2372 C2371 1.399 . S
C2372 C2373 1.385 . S
C2373 H2359 0.931 . S
C2373 C2372 1.385 . S
C2373 C2374 1.389 . S
C2374 C2373 1.389 . S
C2374 C2375 1.387 . S
C2375 H2360 0.930 . S
C2375 C2370 1.390 . S
C2375 C2374 1.387 . S
H2376 C2388 0.930 . S
H2377 C2390 0.930 . S
H2378 C2391 0.930 . S
H2379 C2395 0.959 . S
H2380 C2395 0.959 . S
H2381 C2395 0.961 . S
H2382 C2396 0.960 . S
H2383 C2396 0.961 . S
H2384 C2396 0.959 . S
H2385 C2399 0.929 1_545 S
H2386 C2400 0.931 1_545 S
H2387 C2402 0.930 . S
C2388 H2376 0.930 . S
C2388 C2389 1.399 . S
C2388 C2393 1.399 . S
C2389 C2388 1.399 . S
C2389 C2390 1.376 . S
C2390 H2377 0.930 . S
C2390 C2389 1.376 . S
C2390 C2391 1.388 . S
C2391 H2378 0.930 . S
C2391 C2390 1.388 . S
C2391 C2392 1.390 . S
C2392 C2391 1.390 . S
C2392 C2393 1.394 . S
C2392 C2398 1.465 . S
C2393 C2388 1.399 . S
C2393 C2392 1.394 . S
C2393 C2394 1.516 . S
C2394 C2393 1.516 . S
C2394 C2395 1.502 . S
C2394 C2396 1.561 . S
C2394 C2397 1.526 . S
C2395 H2379 0.959 . S
C2395 H2380 0.959 . S
C2395 H2381 0.961 . S
C2395 C2394 1.502 . S
C2396 H2382 0.960 . S
C2396 H2383 0.961 . S
C2396 H2384 0.959 . S
C2396 C2394 1.561 . S
C2397 C2394 1.526 . S
C2397 C2398 1.396 . S
C2397 C2402 1.390 . S
C2398 C2392 1.465 . S
C2398 C2397 1.396 . S
C2398 C2399 1.399 . S
C2399 H2385 0.929 1_565 S
C2399 C2398 1.399 . S
C2399 C2400 1.385 . S
C2400 H2386 0.931 1_565 S
C2400 C2399 1.385 . S
C2400 C2401 1.389 . S
C2401 C2400 1.389 . S
C2401 C2402 1.387 . S
C2402 H2387 0.930 . S
C2402 C2397 1.390 . S
C2402 C2401 1.387 . S
H2403 C2415 0.930 . S
H2404 C2417 0.930 . S
H2405 C2418 0.930 . S
H2406 C2422 0.959 . S
H2407 C2422 0.959 . S
H2408 C2422 0.961 . S
H2409 C2423 0.960 . S
H2410 C2423 0.961 . S
H2411 C2423 0.959 . S
H2412 C2426 0.929 . S
H2413 C2427 0.931 . S
H2414 C2429 0.930 . S
C2415 H2403 0.930 . S
C2415 C2416 1.399 . S
C2415 C2420 1.399 . S
C2416 C2415 1.399 . S
C2416 C2417 1.376 . S
C2417 H2404 0.930 . S
C2417 C2416 1.376 . S
C2417 C2418 1.388 . S
C2418 H2405 0.930 . S
C2418 C2417 1.388 . S
C2418 C2419 1.390 . S
C2419 C2418 1.390 . S
C2419 C2420 1.394 . S
C2419 C2425 1.465 . S
C2420 C2415 1.399 . S
C2420 C2419 1.394 . S
C2420 C2421 1.516 . S
C2421 C2420 1.516 . S
C2421 C2422 1.502 . S
C2421 C2423 1.561 . S
C2421 C2424 1.526 . S
C2422 H2406 0.959 . S
C2422 H2407 0.959 . S
C2422 H2408 0.961 . S
C2422 C2421 1.502 . S
C2423 H2409 0.960 . S
C2423 H2410 0.961 . S
C2423 H2411 0.959 . S
C2423 C2421 1.561 . S
C2424 C2421 1.526 . S
C2424 C2425 1.396 . S
C2424 C2429 1.390 . S
C2425 C2419 1.465 . S
C2425 C2424 1.396 . S
C2425 C2426 1.399 . S
C2426 H2412 0.929 . S
C2426 C2425 1.399 . S
C2426 C2427 1.385 . S
C2427 H2413 0.931 . S
C2427 C2426 1.385 . S
C2427 C2428 1.389 . S
C2428 C2427 1.389 . S
C2428 C2429 1.387 . S
C2429 H2414 0.930 . S
C2429 C2424 1.390 . S
C2429 C2428 1.387 . S
H2430 C2442 0.930 . S
H2431 C2444 0.930 . S
H2432 C2445 0.930 . S
H2433 C2449 0.959 . S
H2434 C2449 0.959 . S
H2435 C2449 0.961 . S
H2436 C2450 0.960 . S
H2437 C2450 0.961 . S
H2438 C2450 0.959 . S
H2439 C2453 0.929 . S
H2440 C2454 0.931 . S
H2441 C2456 0.930 . S
C2442 H2430 0.930 . S
C2442 C2443 1.399 . S
C2442 C2447 1.399 . S
C2443 C2442 1.399 . S
C2443 C2444 1.376 . S
C2444 H2431 0.930 . S
C2444 C2443 1.376 . S
C2444 C2445 1.388 . S
C2445 H2432 0.930 . S
C2445 C2444 1.388 . S
C2445 C2446 1.390 . S
C2446 C2445 1.390 . S
C2446 C2447 1.394 . S
C2446 C2452 1.465 . S
C2447 C2442 1.399 . S
C2447 C2446 1.394 . S
C2447 C2448 1.516 . S
C2448 C2447 1.516 . S
C2448 C2449 1.502 . S
C2448 C2450 1.561 . S
C2448 C2451 1.526 . S
C2449 H2433 0.959 . S
C2449 H2434 0.959 . S
C2449 H2435 0.961 . S
C2449 C2448 1.502 . S
C2450 H2436 0.960 . S
C2450 H2437 0.961 . S
C2450 H2438 0.959 . S
C2450 C2448 1.561 . S
C2451 C2448 1.526 . S
C2451 C2452 1.396 . S
C2451 C2456 1.390 . S
C2452 C2446 1.465 . S
C2452 C2451 1.396 . S
C2452 C2453 1.399 . S
C2453 H2439 0.929 . S
C2453 C2452 1.399 . S
C2453 C2454 1.385 . S
C2454 H2440 0.931 . S
C2454 C2453 1.385 . S
C2454 C2455 1.389 . S
C2455 C2454 1.389 . S
C2455 C2456 1.387 . S
C2456 H2441 0.930 . S
C2456 C2451 1.390 . S
C2456 C2455 1.387 . S
H2457 C2469 0.930 . S
H2458 C2471 0.930 . S
H2459 C2472 0.930 . S
H2460 C2476 0.959 . S
H2461 C2476 0.959 . S
H2462 C2476 0.961 . S
H2463 C2477 0.960 . S
H2464 C2477 0.962 . S
H2465 C2477 0.959 . S
H2466 C2480 0.929 . S
H2467 C2481 0.931 . S
H2468 C2483 0.930 1_455 S
C2469 H2457 0.930 . S
C2469 C2470 1.399 . S
C2469 C2474 1.399 . S
C2470 C2469 1.399 . S
C2470 C2471 1.376 . S
C2471 H2458 0.930 . S
C2471 C2470 1.376 . S
C2471 C2472 1.388 . S
C2472 H2459 0.930 . S
C2472 C2471 1.388 . S
C2472 C2473 1.390 . S
C2473 C2472 1.390 . S
C2473 C2474 1.394 . S
C2473 C2479 1.465 . S
C2474 C2469 1.399 . S
C2474 C2473 1.394 . S
C2474 C2475 1.516 . S
C2475 C2474 1.516 . S
C2475 C2476 1.502 1_655 S
C2475 C2477 1.561 . S
C2475 C2478 1.526 . S
C2476 H2460 0.959 . S
C2476 H2461 0.959 . S
C2476 H2462 0.961 . S
C2476 C2475 1.502 1_455 S
C2477 H2463 0.960 . S
C2477 H2464 0.962 . S
C2477 H2465 0.959 . S
C2477 C2475 1.561 . S
C2478 C2475 1.526 . S
C2478 C2479 1.396 . S
C2478 C2483 1.390 . S
C2479 C2473 1.465 . S
C2479 C2478 1.396 . S
C2479 C2480 1.399 . S
C2480 H2466 0.929 . S
C2480 C2479 1.399 . S
C2480 C2481 1.385 . S
C2481 H2467 0.931 . S
C2481 C2480 1.385 . S
C2481 C2482 1.389 . S
C2482 C2481 1.389 . S
C2482 C2483 1.387 . S
C2483 H2468 0.930 1_655 S
C2483 C2478 1.390 . S
C2483 C2482 1.387 . S
H2484 C2496 0.930 . S
H2485 C2498 0.930 . S
H2486 C2499 0.930 . S
H2487 C2503 0.959 . S
H2488 C2503 0.959 . S
H2489 C2503 0.961 . S
H2490 C2504 0.960 . S
H2491 C2504 0.961 . S
H2492 C2504 0.959 . S
H2493 C2507 0.929 . S
H2494 C2508 0.931 . S
H2495 C2510 0.930 . S
C2496 H2484 0.930 . S
C2496 C2497 1.399 . S
C2496 C2501 1.399 . S
C2497 C2496 1.399 . S
C2497 C2498 1.376 . S
C2498 H2485 0.930 . S
C2498 C2497 1.376 . S
C2498 C2499 1.388 . S
C2499 H2486 0.930 . S
C2499 C2498 1.388 . S
C2499 C2500 1.390 . S
C2500 C2499 1.390 . S
C2500 C2501 1.394 . S
C2500 C2506 1.465 . S
C2501 C2496 1.399 . S
C2501 C2500 1.394 . S
C2501 C2502 1.516 . S
C2502 C2501 1.516 . S
C2502 C2503 1.502 . S
C2502 C2504 1.561 . S
C2502 C2505 1.526 . S
C2503 H2487 0.959 . S
C2503 H2488 0.959 . S
C2503 H2489 0.961 . S
C2503 C2502 1.502 . S
C2504 H2490 0.960 . S
C2504 H2491 0.961 . S
C2504 H2492 0.959 . S
C2504 C2502 1.561 . S
C2505 C2502 1.526 . S
C2505 C2506 1.396 . S
C2505 C2510 1.390 . S
C2506 C2500 1.465 . S
C2506 C2505 1.396 . S
C2506 C2507 1.399 . S
C2507 H2493 0.929 . S
C2507 C2506 1.399 . S
C2507 C2508 1.385 . S
C2508 H2494 0.931 . S
C2508 C2507 1.385 . S
C2508 C2509 1.389 . S
C2509 C2508 1.389 . S
C2509 C2510 1.387 . S
C2510 H2495 0.930 . S
C2510 C2505 1.390 . S
C2510 C2509 1.387 . S
H2511 C2523 0.930 . S
H2512 C2525 0.930 . S
H2513 C2526 0.930 . S
H2514 C2530 0.959 . S
H2515 C2530 0.959 1_565 S
H2516 C2530 0.961 . S
H2517 C2531 0.968 . S
H2518 C2531 0.990 . S
H2519 C2531 0.966 1_545 S
H2520 C2534 0.929 . S
H2521 C2535 0.931 . S
H2522 C2537 0.935 . S
C2523 H2511 0.930 . S
C2523 C2524 1.399 . S
C2523 C2528 1.399 . S
C2524 C2523 1.399 . S
C2524 C2525 1.376 . S
C2525 H2512 0.930 . S
C2525 C2524 1.376 . S
C2525 C2526 1.388 . S
C2526 H2513 0.930 . S
C2526 C2525 1.388 . S
C2526 C2527 1.390 . S
C2527 C2526 1.390 . S
C2527 C2528 1.394 . S
C2527 C2533 1.465 . S
C2528 C2523 1.399 . S
C2528 C2527 1.394 . S
C2528 C2529 1.516 . S
C2529 C2528 1.516 . S
C2529 C2530 1.502 . S
C2529 C2531 1.519 1_545 S
C2529 C2532 1.526 . S
C2530 H2514 0.959 . S
C2530 H2515 0.959 1_545 S
C2530 H2516 0.961 . S
C2530 C2529 1.502 . S
C2531 H2517 0.968 . S
C2531 H2518 0.990 . S
C2531 H2519 0.966 1_565 S
C2531 C2529 1.519 1_565 S
C2532 C2529 1.526 . S
C2532 C2533 1.396 . S
C2532 C2537 1.390 . S
C2533 C2527 1.465 . S
C2533 C2532 1.396 . S
C2533 C2534 1.399 . S
C2534 H2520 0.929 . S
C2534 C2533 1.399 . S
C2534 C2535 1.385 . S
C2535 H2521 0.931 . S
C2535 C2534 1.385 . S
C2535 C2536 1.389 . S
C2536 C2535 1.389 . S
C2536 C2537 1.387 . S
C2537 H2522 0.935 . S
C2537 C2532 1.390 . S
C2537 C2536 1.387 . S
H2538 C2550 0.930 . S
H2539 C2552 0.930 . S
H2540 C2553 0.930 . S
H2541 C2557 0.959 . S
H2542 C2557 0.959 . S
H2543 C2557 0.961 . S
H2544 C2558 0.960 . S
H2545 C2558 0.961 . S
H2546 C2558 0.959 . S
H2547 C2561 0.929 . S
H2548 C2562 0.931 . S
H2549 C2564 0.930 . S
C2550 H2538 0.930 . S
C2550 C2551 1.399 . S
C2550 C2555 1.399 . S
C2551 C2550 1.399 . S
C2551 C2552 1.376 . S
C2552 H2539 0.930 . S
C2552 C2551 1.376 . S
C2552 C2553 1.388 . S
C2553 H2540 0.930 . S
C2553 C2552 1.388 . S
C2553 C2554 1.390 . S
C2554 C2553 1.390 . S
C2554 C2555 1.394 . S
C2554 C2560 1.465 . S
C2555 C2550 1.399 . S
C2555 C2554 1.394 . S
C2555 C2556 1.516 . S
C2556 C2555 1.516 . S
C2556 C2557 1.502 . S
C2556 C2558 1.561 . S
C2556 C2559 1.526 . S
C2557 H2541 0.959 . S
C2557 H2542 0.959 . S
C2557 H2543 0.961 . S
C2557 C2556 1.502 . S
C2558 H2544 0.960 . S
C2558 H2545 0.961 . S
C2558 H2546 0.959 . S
C2558 C2556 1.561 . S
C2559 C2556 1.526 . S
C2559 C2560 1.396 . S
C2559 C2564 1.390 . S
C2560 C2554 1.465 . S
C2560 C2559 1.396 . S
C2560 C2561 1.399 . S
C2561 H2547 0.929 . S
C2561 C2560 1.399 . S
C2561 C2562 1.385 . S
C2562 H2548 0.931 . S
C2562 C2561 1.385 . S
C2562 C2563 1.389 . S
C2563 C2562 1.389 . S
C2563 C2564 1.387 . S
C2564 H2549 0.930 . S
C2564 C2559 1.390 . S
C2564 C2563 1.387 . S
H2565 C2577 0.930 . S
H2566 C2579 0.930 . S
H2567 C2580 0.930 . S
H2568 C2584 0.959 . S
H2569 C2584 0.959 . S
H2570 C2584 0.961 . S
H2571 C2585 0.960 . S
H2572 C2585 0.961 . S
H2573 C2585 0.959 . S
H2574 C2588 0.929 . S
H2575 C2589 0.931 . S
H2576 C2591 0.930 . S
C2577 H2565 0.930 . S
C2577 C2578 1.399 . S
C2577 C2582 1.399 . S
C2578 C2577 1.399 . S
C2578 C2579 1.376 . S
C2579 H2566 0.930 . S
C2579 C2578 1.376 . S
C2579 C2580 1.388 . S
C2580 H2567 0.930 . S
C2580 C2579 1.388 . S
C2580 C2581 1.390 . S
C2581 C2580 1.390 . S
C2581 C2582 1.394 . S
C2581 C2587 1.465 . S
C2582 C2577 1.399 . S
C2582 C2581 1.394 . S
C2582 C2583 1.516 . S
C2583 C2582 1.516 . S
C2583 C2584 1.502 . S
C2583 C2585 1.561 . S
C2583 C2586 1.526 . S
C2584 H2568 0.959 . S
C2584 H2569 0.959 . S
C2584 H2570 0.961 . S
C2584 C2583 1.502 . S
C2585 H2571 0.960 . S
C2585 H2572 0.961 . S
C2585 H2573 0.959 . S
C2585 C2583 1.561 . S
C2586 C2583 1.526 . S
C2586 C2587 1.396 . S
C2586 C2591 1.390 . S
C2587 C2581 1.465 . S
C2587 C2586 1.396 . S
C2587 C2588 1.399 . S
C2588 H2574 0.929 . S
C2588 C2587 1.399 . S
C2588 C2589 1.385 . S
C2589 H2575 0.931 . S
C2589 C2588 1.385 . S
C2589 C2590 1.389 . S
C2590 C2589 1.389 . S
C2590 C2591 1.387 . S
C2591 H2576 0.930 . S
C2591 C2586 1.390 . S
C2591 C2590 1.387 . S
H2592 C2604 0.930 . S
H2593 C2606 0.930 . S
H2594 C2607 0.930 . S
H2595 C2611 0.959 . S
H2596 C2611 0.959 . S
H2597 C2611 0.961 . S
H2598 C2612 0.960 . S
H2599 C2612 0.961 . S
H2600 C2612 0.959 . S
H2601 C2615 0.929 . S
H2602 C2616 0.931 . S
H2603 C2618 0.930 . S
C2604 H2592 0.930 . S
C2604 C2605 1.399 . S
C2604 C2609 1.399 . S
C2605 C2604 1.399 . S
C2605 C2606 1.376 . S
C2606 H2593 0.930 . S
C2606 C2605 1.376 . S
C2606 C2607 1.388 . S
C2607 H2594 0.930 . S
C2607 C2606 1.388 . S
C2607 C2608 1.390 . S
C2608 C2607 1.390 . S
C2608 C2609 1.394 . S
C2608 C2614 1.465 . S
C2609 C2604 1.399 . S
C2609 C2608 1.394 . S
C2609 C2610 1.516 . S
C2610 C2609 1.516 . S
C2610 C2611 1.502 . S
C2610 C2612 1.561 . S
C2610 C2613 1.526 . S
C2611 H2595 0.959 . S
C2611 H2596 0.959 . S
C2611 H2597 0.961 . S
C2611 C2610 1.502 . S
C2612 H2598 0.960 . S
C2612 H2599 0.961 . S
C2612 H2600 0.959 . S
C2612 C2610 1.561 . S
C2613 C2610 1.526 . S
C2613 C2614 1.396 . S
C2613 C2618 1.390 . S
C2614 C2608 1.465 . S
C2614 C2613 1.396 . S
C2614 C2615 1.399 . S
C2615 H2601 0.929 . S
C2615 C2614 1.399 . S
C2615 C2616 1.385 . S
C2616 H2602 0.931 . S
C2616 C2615 1.385 . S
C2616 C2617 1.389 . S
C2617 C2616 1.389 . S
C2617 C2618 1.387 . S
C2618 H2603 0.930 . S
C2618 C2613 1.390 . S
C2618 C2617 1.387 . S
H2619 C2631 0.930 . S
H2620 C2633 0.930 . S
H2621 C2634 0.930 . S
H2622 C2638 0.959 . S
H2623 C2638 0.959 . S
H2624 C2638 0.961 . S
H2625 C2639 0.960 . S
H2626 C2639 0.961 . S
H2627 C2639 0.959 . S
H2628 C2642 0.929 . S
H2629 C2643 0.931 . S
H2630 C2645 0.930 . S
C2631 H2619 0.930 . S
C2631 C2632 1.399 . S
C2631 C2636 1.399 . S
C2632 C2631 1.399 . S
C2632 C2633 1.376 . S
C2633 H2620 0.930 . S
C2633 C2632 1.376 . S
C2633 C2634 1.388 . S
C2634 H2621 0.930 . S
C2634 C2633 1.388 . S
C2634 C2635 1.390 . S
C2635 C2634 1.390 . S
C2635 C2636 1.394 . S
C2635 C2641 1.465 . S
C2636 C2631 1.399 . S
C2636 C2635 1.394 . S
C2636 C2637 1.516 . S
C2637 C2636 1.516 . S
C2637 C2638 1.502 . S
C2637 C2639 1.561 . S
C2637 C2640 1.526 . S
C2638 H2622 0.959 . S
C2638 H2623 0.959 . S
C2638 H2624 0.961 . S
C2638 C2637 1.502 . S
C2639 H2625 0.960 . S
C2639 H2626 0.961 . S
C2639 H2627 0.959 . S
C2639 C2637 1.561 . S
C2640 C2637 1.526 . S
C2640 C2641 1.396 . S
C2640 C2645 1.390 . S
C2641 C2635 1.465 . S
C2641 C2640 1.396 . S
C2641 C2642 1.399 . S
C2642 H2628 0.929 . S
C2642 C2641 1.399 . S
C2642 C2643 1.385 . S
C2643 H2629 0.931 . S
C2643 C2642 1.385 . S
C2643 C2644 1.389 . S
C2644 C2643 1.389 . S
C2644 C2645 1.387 . S
C2645 H2630 0.930 . S
C2645 C2640 1.390 . S
C2645 C2644 1.387 . S
H2646 C2658 0.930 . S
H2647 C2660 0.930 . S
H2648 C2661 0.930 . S
H2649 C2665 0.959 . S
H2650 C2665 0.959 . S
H2651 C2665 0.961 . S
H2652 C2666 0.960 . S
H2653 C2666 0.961 . S
H2654 C2666 0.959 . S
H2655 C2669 0.929 . S
H2656 C2670 0.931 . S
H2657 C2672 0.930 . S
C2658 H2646 0.930 . S
C2658 C2659 1.399 . S
C2658 C2663 1.399 . S
C2659 C2658 1.399 . S
C2659 C2660 1.376 . S
C2660 H2647 0.930 . S
C2660 C2659 1.376 . S
C2660 C2661 1.388 . S
C2661 H2648 0.930 . S
C2661 C2660 1.388 . S
C2661 C2662 1.390 . S
C2662 C2661 1.390 . S
C2662 C2663 1.394 . S
C2662 C2668 1.465 . S
C2663 C2658 1.399 . S
C2663 C2662 1.394 . S
C2663 C2664 1.516 . S
C2664 C2663 1.516 . S
C2664 C2665 1.502 . S
C2664 C2666 1.561 . S
C2664 C2667 1.526 . S
C2665 H2649 0.959 . S
C2665 H2650 0.959 . S
C2665 H2651 0.961 . S
C2665 C2664 1.502 . S
C2666 H2652 0.960 . S
C2666 H2653 0.961 . S
C2666 H2654 0.959 . S
C2666 C2664 1.561 . S
C2667 C2664 1.526 . S
C2667 C2668 1.396 . S
C2667 C2672 1.390 . S
C2668 C2662 1.465 . S
C2668 C2667 1.396 . S
C2668 C2669 1.399 . S
C2669 H2655 0.929 . S
C2669 C2668 1.399 . S
C2669 C2670 1.385 . S
C2670 H2656 0.931 . S
C2670 C2669 1.385 . S
C2670 C2671 1.389 . S
C2671 C2670 1.389 . S
C2671 C2672 1.387 . S
C2672 H2657 0.930 . S
C2672 C2667 1.390 . S
C2672 C2671 1.387 . S
H2673 C2685 0.930 . S
H2674 C2687 0.930 . S
H2675 C2688 0.930 . S
H2676 C2692 0.959 . S
H2677 C2692 0.959 . S
H2678 C2692 0.961 . S
H2679 C2693 0.960 . S
H2680 C2693 0.961 . S
H2681 C2693 0.959 . S
H2682 C2696 0.929 . S
H2683 C2697 0.931 . S
H2684 C2699 0.930 . S
C2685 H2673 0.930 . S
C2685 C2686 1.399 . S
C2685 C2690 1.399 . S
C2686 C2685 1.399 . S
C2686 C2687 1.376 . S
C2687 H2674 0.930 . S
C2687 C2686 1.376 . S
C2687 C2688 1.388 . S
C2688 H2675 0.930 . S
C2688 C2687 1.388 . S
C2688 C2689 1.390 . S
C2689 C2688 1.390 . S
C2689 C2690 1.394 . S
C2689 C2695 1.465 . S
C2690 C2685 1.399 . S
C2690 C2689 1.394 . S
C2690 C2691 1.516 . S
C2691 C2690 1.516 . S
C2691 C2692 1.502 . S
C2691 C2693 1.561 . S
C2691 C2694 1.526 . S
C2692 H2676 0.959 . S
C2692 H2677 0.959 . S
C2692 H2678 0.961 . S
C2692 C2691 1.502 . S
C2693 H2679 0.960 . S
C2693 H2680 0.961 . S
C2693 H2681 0.959 . S
C2693 C2691 1.561 . S
C2694 C2691 1.526 . S
C2694 C2695 1.396 . S
C2694 C2699 1.390 . S
C2695 C2689 1.465 . S
C2695 C2694 1.396 . S
C2695 C2696 1.399 . S
C2696 H2682 0.929 . S
C2696 C2695 1.399 . S
C2696 C2697 1.385 . S
C2697 H2683 0.931 . S
C2697 C2696 1.385 . S
C2697 C2698 1.389 . S
C2698 C2697 1.389 . S
C2698 C2699 1.387 . S
C2699 H2684 0.930 . S
C2699 C2694 1.390 . S
C2699 C2698 1.387 . S
H2700 C2712 0.930 . S
H2701 C2714 0.930 . S
H2702 C2715 0.930 . S
H2703 C2719 0.959 . S
H2704 C2719 0.959 . S
H2705 C2719 0.961 . S
H2706 C2720 0.960 . S
H2707 C2720 0.961 . S
H2708 C2720 0.959 . S
H2709 C2723 0.929 . S
H2710 C2724 0.931 . S
H2711 C2726 0.930 . S
C2712 H2700 0.930 . S
C2712 C2713 1.399 . S
C2712 C2717 1.399 . S
C2713 C2712 1.399 . S
C2713 C2714 1.376 . S
C2714 H2701 0.930 . S
C2714 C2713 1.376 . S
C2714 C2715 1.388 . S
C2715 H2702 0.930 . S
C2715 C2714 1.388 . S
C2715 C2716 1.390 . S
C2716 C2715 1.390 . S
C2716 C2717 1.394 . S
C2716 C2722 1.465 . S
C2717 C2712 1.399 . S
C2717 C2716 1.394 . S
C2717 C2718 1.516 . S
C2718 C2717 1.516 . S
C2718 C2719 1.502 . S
C2718 C2720 1.561 . S
C2718 C2721 1.526 . S
C2719 H2703 0.959 . S
C2719 H2704 0.959 . S
C2719 H2705 0.961 . S
C2719 C2718 1.502 . S
C2720 H2706 0.960 . S
C2720 H2707 0.961 . S
C2720 H2708 0.959 . S
C2720 C2718 1.561 . S
C2721 C2718 1.526 . S
C2721 C2722 1.396 . S
C2721 C2726 1.390 . S
C2722 C2716 1.465 . S
C2722 C2721 1.396 . S
C2722 C2723 1.399 . S
C2723 H2709 0.929 . S
C2723 C2722 1.399 . S
C2723 C2724 1.385 . S
C2724 H2710 0.931 . S
C2724 C2723 1.385 . S
C2724 C2725 1.389 . S
C2725 C2724 1.389 . S
C2725 C2726 1.387 . S
C2726 H2711 0.930 . S
C2726 C2721 1.390 . S
C2726 C2725 1.387 . S
H2727 C2739 0.930 . S
H2728 C2741 0.930 . S
H2729 C2742 0.930 . S
H2730 C2746 0.959 . S
H2731 C2746 0.959 . S
H2732 C2746 0.961 . S
H2733 C2747 0.960 . S
H2734 C2747 0.961 . S
H2735 C2747 0.959 . S
H2736 C2750 0.929 . S
H2737 C2751 0.931 . S
H2738 C2753 0.930 . S
C2739 H2727 0.930 . S
C2739 C2740 1.399 . S
C2739 C2744 1.399 . S
C2740 C2739 1.399 . S
C2740 C2741 1.376 . S
C2741 H2728 0.930 . S
C2741 C2740 1.376 . S
C2741 C2742 1.388 . S
C2742 H2729 0.930 . S
C2742 C2741 1.388 . S
C2742 C2743 1.390 . S
C2743 C2742 1.390 . S
C2743 C2744 1.394 . S
C2743 C2749 1.465 . S
C2744 C2739 1.399 . S
C2744 C2743 1.394 . S
C2744 C2745 1.516 . S
C2745 C2744 1.516 . S
C2745 C2746 1.502 . S
C2745 C2747 1.561 . S
C2745 C2748 1.526 . S
C2746 H2730 0.959 . S
C2746 H2731 0.959 . S
C2746 H2732 0.961 . S
C2746 C2745 1.502 . S
C2747 H2733 0.960 . S
C2747 H2734 0.961 . S
C2747 H2735 0.959 . S
C2747 C2745 1.561 . S
C2748 C2745 1.526 . S
C2748 C2749 1.396 . S
C2748 C2753 1.390 . S
C2749 C2743 1.465 . S
C2749 C2748 1.396 . S
C2749 C2750 1.399 . S
C2750 H2736 0.929 . S
C2750 C2749 1.399 . S
C2750 C2751 1.385 . S
C2751 H2737 0.931 . S
C2751 C2750 1.385 . S
C2751 C2752 1.389 . S
C2752 C2751 1.389 . S
C2752 C2753 1.387 . S
C2753 H2738 0.930 . S
C2753 C2748 1.390 . S
C2753 C2752 1.387 . S
H2754 C2766 0.930 . S
H2755 C2768 0.930 . S
H2756 C2769 0.930 . S
H2757 C2773 0.959 . S
H2758 C2773 0.959 . S
H2759 C2773 0.961 . S
H2760 C2774 0.960 . S
H2761 C2774 0.961 . S
H2762 C2774 0.959 . S
H2763 C2777 0.929 . S
H2764 C2778 0.931 . S
H2765 C2780 0.930 . S
C2766 H2754 0.930 . S
C2766 C2767 1.399 . S
C2766 C2771 1.399 . S
C2767 C2766 1.399 . S
C2767 C2768 1.376 . S
C2768 H2755 0.930 . S
C2768 C2767 1.376 . S
C2768 C2769 1.388 . S
C2769 H2756 0.930 . S
C2769 C2768 1.388 . S
C2769 C2770 1.390 . S
C2770 C2769 1.390 . S
C2770 C2771 1.394 . S
C2770 C2776 1.465 . S
C2771 C2766 1.399 . S
C2771 C2770 1.394 . S
C2771 C2772 1.516 . S
C2772 C2771 1.516 . S
C2772 C2773 1.502 . S
C2772 C2774 1.561 . S
C2772 C2775 1.526 . S
C2773 H2757 0.959 . S
C2773 H2758 0.959 . S
C2773 H2759 0.961 . S
C2773 C2772 1.502 . S
C2774 H2760 0.960 . S
C2774 H2761 0.961 . S
C2774 H2762 0.959 . S
C2774 C2772 1.561 . S
C2775 C2772 1.526 . S
C2775 C2776 1.396 . S
C2775 C2780 1.390 . S
C2776 C2770 1.465 . S
C2776 C2775 1.396 . S
C2776 C2777 1.399 . S
C2777 H2763 0.929 . S
C2777 C2776 1.399 . S
C2777 C2778 1.385 . S
C2778 H2764 0.931 . S
C2778 C2777 1.385 . S
C2778 C2779 1.389 . S
C2779 C2778 1.389 . S
C2779 C2780 1.387 . S
C2780 H2765 0.930 . S
C2780 C2775 1.390 . S
C2780 C2779 1.387 . S
H2781 C2793 0.930 . S
H2782 C2795 0.930 . S
H2783 C2796 0.930 . S
H2784 C2800 0.959 . S
H2785 C2800 0.959 . S
H2786 C2800 0.961 . S
H2787 C2801 0.960 . S
H2788 C2801 0.961 . S
H2789 C2801 0.959 . S
H2790 C2804 0.929 . S
H2791 C2805 0.931 . S
H2792 C2807 0.930 . S
C2793 H2781 0.930 . S
C2793 C2794 1.399 . S
C2793 C2798 1.399 . S
C2794 C2793 1.399 . S
C2794 C2795 1.376 . S
C2795 H2782 0.930 . S
C2795 C2794 1.376 . S
C2795 C2796 1.388 . S
C2796 H2783 0.930 . S
C2796 C2795 1.388 . S
C2796 C2797 1.390 . S
C2797 C2796 1.390 . S
C2797 C2798 1.394 . S
C2797 C2803 1.465 . S
C2798 C2793 1.399 . S
C2798 C2797 1.394 . S
C2798 C2799 1.516 . S
C2799 C2798 1.516 . S
C2799 C2800 1.502 . S
C2799 C2801 1.561 . S
C2799 C2802 1.526 . S
C2800 H2784 0.959 . S
C2800 H2785 0.959 . S
C2800 H2786 0.961 . S
C2800 C2799 1.502 . S
C2801 H2787 0.960 . S
C2801 H2788 0.961 . S
C2801 H2789 0.959 . S
C2801 C2799 1.561 . S
C2802 C2799 1.526 . S
C2802 C2803 1.396 . S
C2802 C2807 1.390 . S
C2803 C2797 1.465 . S
C2803 C2802 1.396 . S
C2803 C2804 1.399 . S
C2804 H2790 0.929 . S
C2804 C2803 1.399 . S
C2804 C2805 1.385 . S
C2805 H2791 0.931 . S
C2805 C2804 1.385 . S
C2805 C2806 1.389 . S
C2806 C2805 1.389 . S
C2806 C2807 1.387 . S
C2807 H2792 0.930 . S
C2807 C2802 1.390 . S
C2807 C2806 1.387 . S
H2808 C2820 0.930 . S
H2809 C2822 0.930 . S
H2810 C2823 0.930 . S
H2811 C2827 0.959 . S
H2812 C2827 0.959 . S
H2813 C2827 0.961 . S
H2814 C2828 0.960 . S
H2815 C2828 0.961 . S
H2816 C2828 0.959 . S
H2817 C2831 0.929 . S
H2818 C2832 0.931 . S
H2819 C2834 0.930 . S
C2820 H2808 0.930 . S
C2820 C2821 1.399 . S
C2820 C2825 1.399 . S
C2821 C2820 1.399 . S
C2821 C2822 1.376 . S
C2822 H2809 0.930 . S
C2822 C2821 1.376 . S
C2822 C2823 1.388 . S
C2823 H2810 0.930 . S
C2823 C2822 1.388 . S
C2823 C2824 1.390 . S
C2824 C2823 1.390 . S
C2824 C2825 1.394 . S
C2824 C2830 1.465 . S
C2825 C2820 1.399 . S
C2825 C2824 1.394 . S
C2825 C2826 1.516 . S
C2826 C2825 1.516 . S
C2826 C2827 1.502 . S
C2826 C2828 1.561 . S
C2826 C2829 1.526 . S
C2827 H2811 0.959 . S
C2827 H2812 0.959 . S
C2827 H2813 0.961 . S
C2827 C2826 1.502 . S
C2828 H2814 0.960 . S
C2828 H2815 0.961 . S
C2828 H2816 0.959 . S
C2828 C2826 1.561 . S
C2829 C2826 1.526 . S
C2829 C2830 1.396 . S
C2829 C2834 1.390 . S
C2830 C2824 1.465 . S
C2830 C2829 1.396 . S
C2830 C2831 1.399 . S
C2831 H2817 0.929 . S
C2831 C2830 1.399 . S
C2831 C2832 1.385 . S
C2832 H2818 0.931 . S
C2832 C2831 1.385 . S
C2832 C2833 1.389 . S
C2833 C2832 1.389 . S
C2833 C2834 1.387 . S
C2834 H2819 0.930 . S
C2834 C2829 1.390 . S
C2834 C2833 1.387 . S
H2835 C2847 0.930 . S
H2836 C2849 0.930 . S
H2837 C2850 0.930 . S
H2838 C2854 0.959 . S
H2839 C2854 0.959 . S
H2840 C2854 0.961 . S
H2841 C2855 0.960 . S
H2842 C2855 0.961 . S
H2843 C2855 0.959 . S
H2844 C2858 0.929 . S
H2845 C2859 0.931 . S
H2846 C2861 0.930 . S
C2847 H2835 0.930 . S
C2847 C2848 1.399 . S
C2847 C2852 1.399 . S
C2848 C2847 1.399 . S
C2848 C2849 1.376 . S
C2849 H2836 0.930 . S
C2849 C2848 1.376 . S
C2849 C2850 1.388 . S
C2850 H2837 0.930 . S
C2850 C2849 1.388 . S
C2850 C2851 1.390 . S
C2851 C2850 1.390 . S
C2851 C2852 1.394 . S
C2851 C2857 1.465 . S
C2852 C2847 1.399 . S
C2852 C2851 1.394 . S
C2852 C2853 1.516 . S
C2853 C2852 1.516 . S
C2853 C2854 1.502 . S
C2853 C2855 1.561 . S
C2853 C2856 1.526 . S
C2854 H2838 0.959 . S
C2854 H2839 0.959 . S
C2854 H2840 0.961 . S
C2854 C2853 1.502 . S
C2855 H2841 0.960 . S
C2855 H2842 0.961 . S
C2855 H2843 0.959 . S
C2855 C2853 1.561 . S
C2856 C2853 1.526 . S
C2856 C2857 1.396 . S
C2856 C2861 1.390 . S
C2857 C2851 1.465 . S
C2857 C2856 1.396 . S
C2857 C2858 1.399 . S
C2858 H2844 0.929 . S
C2858 C2857 1.399 . S
C2858 C2859 1.385 . S
C2859 H2845 0.931 . S
C2859 C2858 1.385 . S
C2859 C2860 1.389 . S
C2860 C2859 1.389 . S
C2860 C2861 1.387 . S
C2861 H2846 0.930 . S
C2861 C2856 1.390 . S
C2861 C2860 1.387 . S
C1417 C469 1.434 . S
C1429 C715 1.401 . S
C1444 C505 1.462 . S
C1456 C799 1.402 . S
C1471 C433 1.474 . S
C1483 C879 1.426 . S
C1498 C397 1.433 . S
C1510 C795 1.385 . S
C1537 C883 1.321 . S
C1525 C325 1.399 . S
C1552 C361 1.424 . S
C1564 C711 1.327 . S
C1591 C704 1.350 . S
C1579 C421 1.434 . S
C1618 C788 1.376 . S
C1606 C349 1.458 . S
C1633 C385 1.486 . S
C1645 C890 1.404 . S
C1660 C493 1.418 . S
C1672 C806 1.396 . S
C1687 C529 1.400 . S
C1699 C872 1.330 . S
C1726 C722 1.397 . S
C1714 C457 1.420 . S
C1753 C967 1.410 . S
C1741 C37 1.436 . S
C1768 C73 1.459 . S
C1780 C1051 1.432 . S
C1795 C1 1.470 . S
C1807 C1131 1.459 . S
C1822 C613 1.432 . S
C1834 C1047 1.390 . S
C1849 C541 1.395 . S
C1861 C1135 1.368 . S
C1876 C577 1.410 . S
C1888 C963 1.376 . S
C1903 C637 1.447 . S
C1915 C956 1.381 . S
C1930 C565 1.465 . S
C1942 C1040 1.413 . S
C1969 C1142 1.403 . S
C1957 C601 1.486 . S
C1984 C61 1.436 . S
C1996 C1058 1.359 . S
C2023 C1124 1.292 . S
C2011 C97 1.392 . S
C2038 C25 1.425 . S
C2050 C974 1.376 . S
C2077 C1219 1.412 . S
C2065 C253 1.435 . S
C2092 C289 1.463 . S
C2104 C1303 1.385 . S
C2131 C1383 1.411 . S
C2119 C217 1.482 . S
C2158 C1299 1.368 . S
C2146 C181 1.435 . S
C2185 C1387 1.298 . S
C2173 C109 1.401 . S
C2200 C145 1.422 . S
C2212 C1215 1.352 . S
C2227 C205 1.437 . S
C2239 C1208 1.328 . S
C2254 C133 1.461 . S
C2266 C1292 1.395 . S
C2293 C1394 1.403 . S
C2281 C169 1.486 . S
C2308 C277 1.421 . S
C2320 C1310 1.414 . S
C2335 C313 1.400 . S
C2347 C1376 1.333 . S
C2362 C241 1.403 . S
C2374 C1226 1.375 . S
C2389 C571 1.429 . S
C2401 C718 1.274 . S
C2428 C802 1.345 . S
C2416 C607 1.501 . S
C2443 C643 1.462 . S
C2455 C874 1.278 . S
C2470 C247 1.507 . S
C2482 C790 1.420 . S
C2497 C283 1.468 . S
C2509 C886 1.314 . S
C2536 C706 1.371 . S
C2524 C319 1.451 . S
C2551 C139 1.452 . S
C2563 C970 1.389 . S
C2578 C175 1.505 . S
C2590 C1054 1.375 . S
C2605 C211 1.477 . S
C2617 C1126 1.397 . S
C2632 C463 1.500 . S
C2644 C1042 1.297 . S
C2671 C1138 1.357 . S
C2659 C499 1.468 . S
C2686 C535 1.442 . S
C2698 C958 1.318 . S
C2713 C355 1.430 . S
C2725 C1222 1.275 . S
C2740 C391 1.501 . S
C2752 C1306 1.335 . S
C2779 C1378 1.399 . S
C2767 C427 1.475 . S
C2794 C31 1.499 . S
C2806 C1294 1.298 . S
C2821 C67 1.472 . S
C2833 C1390 1.382 . S
C2848 C103 1.429 . S
C2860 C1210 1.273 . S
