# Generated by pormake.
# Topology pyr, (3,6)-cn, num edge types: 1
# Building blocks:
#     Node 0, Type 0, BuildingBlock: BETDIP_clean_linker_0, # of connection points: 3
#     Node 1, Type 0, BuildingBlock: BETDIP_clean_linker_0, # of connection points: 3
#     Node 2, Type 0, BuildingBlock: BETDIP_clean_linker_0, # of connection points: 3
#     Node 3, Type 0, BuildingBlock: BETDIP_clean_linker_0, # of connection points: 3
#     Node 4, Type 0, BuildingBlock: BETDIP_clean_linker_0, # of connection points: 3
#     Node 5, Type 0, BuildingBlock: BETDIP_clean_linker_0, # of connection points: 3
#     Node 6, Type 0, BuildingBlock: BETDIP_clean_linker_0, # of connection points: 3
#     Node 7, Type 0, BuildingBlock: BETDIP_clean_linker_0, # of connection points: 3
#     Node 8, Type 1, BuildingBlock: GEDQOX_clean_sbu_0, # of connection points: 6
#     Node 9, Type 1, BuildingBlock: GEDQOX_clean_sbu_0, # of connection points: 6
#     Node 10, Type 1, BuildingBlock: GEDQOX_clean_sbu_0, # of connection points: 6
#     Node 11, Type 1, BuildingBlock: GEDQOX_clean_sbu_0, # of connection points: 6
#     Edge 12, Type (0, 1), BuildingBlock: XIVTED_clean_linker_0, # of connection points: 2
#     Edge 13, Type (0, 1), BuildingBlock: XIVTED_clean_linker_0, # of connection points: 2
#     Edge 14, Type (0, 1), BuildingBlock: XIVTED_clean_linker_0, # of connection points: 2
#     Edge 15, Type (0, 1), BuildingBlock: XIVTED_clean_linker_0, # of connection points: 2
#     Edge 16, Type (0, 1), BuildingBlock: XIVTED_clean_linker_0, # of connection points: 2
#     Edge 17, Type (0, 1), BuildingBlock: XIVTED_clean_linker_0, # of connection points: 2
#     Edge 18, Type (0, 1), BuildingBlock: XIVTED_clean_linker_0, # of connection points: 2
#     Edge 19, Type (0, 1), BuildingBlock: XIVTED_clean_linker_0, # of connection points: 2
#     Edge 20, Type (0, 1), BuildingBlock: XIVTED_clean_linker_0, # of connection points: 2
#     Edge 21, Type (0, 1), BuildingBlock: XIVTED_clean_linker_0, # of connection points: 2
#     Edge 22, Type (0, 1), BuildingBlock: XIVTED_clean_linker_0, # of connection points: 2
#     Edge 23, Type (0, 1), BuildingBlock: XIVTED_clean_linker_0, # of connection points: 2
#     Edge 24, Type (0, 1), BuildingBlock: XIVTED_clean_linker_0, # of connection points: 2
#     Edge 25, Type (0, 1), BuildingBlock: XIVTED_clean_linker_0, # of connection points: 2
#     Edge 26, Type (0, 1), BuildingBlock: XIVTED_clean_linker_0, # of connection points: 2
#     Edge 27, Type (0, 1), BuildingBlock: XIVTED_clean_linker_0, # of connection points: 2
#     Edge 28, Type (0, 1), BuildingBlock: XIVTED_clean_linker_0, # of connection points: 2
#     Edge 29, Type (0, 1), BuildingBlock: XIVTED_clean_linker_0, # of connection points: 2
#     Edge 30, Type (0, 1), BuildingBlock: XIVTED_clean_linker_0, # of connection points: 2
#     Edge 31, Type (0, 1), BuildingBlock: XIVTED_clean_linker_0, # of connection points: 2
#     Edge 32, Type (0, 1), BuildingBlock: XIVTED_clean_linker_0, # of connection points: 2
#     Edge 33, Type (0, 1), BuildingBlock: XIVTED_clean_linker_0, # of connection points: 2
#     Edge 34, Type (0, 1), BuildingBlock: XIVTED_clean_linker_0, # of connection points: 2
#     Edge 35, Type (0, 1), BuildingBlock: XIVTED_clean_linker_0, # of connection points: 2
# Relax obj value: 0.224
# Max RMSD: 0.191
# Mean RMSD: 0.162
data_MOF--net-pyr--node1-GEDQOX_clean_sbu_0--node2-BETDIP_clean_linker_0--edge1-XIVTED_clean_linker_0
_symmetry_space_group_name_H-M    P1
_symmetry_Int_Tables_number       1
_symmetry_cell_setting            triclinic
loop_
_symmetry_equiv_pos_as_xyz
'x, y, z'
_cell_length_a     39.318608
_cell_length_b     38.747196
_cell_length_c     36.462747
_cell_angle_alpha  91.790682
_cell_angle_beta   87.796313
_cell_angle_gamma 93.361064
loop_
_atom_site_label
_atom_site_type_symbol
_atom_site_fract_x
_atom_site_fract_y
_atom_site_fract_z
_atom_type_partial_charge
H0 H 0.17026 0.19192 0.22881 0.0
H1 H 0.25078 0.19832 0.14545 0.0
H2 H 0.24922 0.1192 0.22753 0.0
H3 H 0.22531 0.25237 0.13136 0.0
C4 C 0.20043 0.25409 0.14505 0.0
C5 C 0.19372 0.18232 0.21712 0.0
C6 C 0.2077 0.15358 0.23336 0.0
C7 C 0.20845 0.1992 0.18576 0.0
C8 C 0.23912 0.18587 0.16931 0.0
C9 C 0.25493 0.1566 0.18386 0.0
C10 C 0.23827 0.14118 0.21592 0.0
N11 N 0.19059 0.22855 0.17252 0.0
H12 H 0.36454 0.8358 0.79974 0.0
H13 H 0.36961 0.74359 0.73238 0.0
H14 H 0.45478 0.77748 0.79752 0.0
H15 H 0.31356 0.74517 0.73148 0.0
C16 C 0.30805 0.77226 0.73419 0.0
C17 C 0.37859 0.81393 0.78979 0.0
C18 C 0.41174 0.80995 0.8015 0.0
C19 C 0.3629 0.78989 0.76564 0.0
C20 C 0.38075 0.76143 0.75254 0.0
C21 C 0.41378 0.75644 0.76412 0.0
C22 C 0.42923 0.7809 0.78867 0.0
N23 N 0.32983 0.79619 0.75388 0.0
H24 H 0.82886 0.45776 0.80076 0.0
H25 H 0.74943 0.37772 0.78996 0.0
H26 H 0.81735 0.37609 0.87898 0.0
H27 H 0.77034 0.38772 0.72556 0.0
C28 C 0.76379 0.4145 0.72947 0.0
C29 C 0.8161 0.43409 0.81055 0.0
C30 C 0.82683 0.41885 0.84246 0.0
C31 C 0.7889 0.41876 0.79095 0.0
C32 C 0.77149 0.38868 0.80403 0.0
C33 C 0.78125 0.37362 0.83613 0.0
C34 C 0.80913 0.38856 0.85492 0.0
N35 N 0.77816 0.43449 0.75899 0.0
H36 H 0.79061 0.79715 0.25302 0.0
H37 H 0.85617 0.88917 0.2656 0.0
H38 H 0.84398 0.81708 0.35292 0.0
H39 H 0.78744 0.84299 0.17046 0.0
C40 C 0.80401 0.83233 0.18981 0.0
C41 C 0.80827 0.81311 0.26917 0.0
C42 C 0.81597 0.80283 0.30438 0.0
C43 C 0.82337 0.84385 0.25472 0.0
C44 C 0.84502 0.86517 0.27645 0.0
C45 C 0.853 0.85525 0.31165 0.0
C46 C 0.83856 0.82406 0.32527 0.0
N47 N 0.8164 0.85448 0.2189 0.0
H48 H 0.82517 0.86552 0.92771 0.0
H49 H 0.90585 0.86083 0.84484 0.0
H50 H 0.83107 0.93791 0.83938 0.0
H51 H 0.92993 0.82456 0.88201 0.0
C52 C 0.91162 0.81291 0.90161 0.0
C53 C 0.83768 0.87582 0.90311 0.0
C54 C 0.82358 0.90452 0.88622 0.0
C55 C 0.86737 0.85946 0.88885 0.0
C56 C 0.88337 0.87268 0.85592 0.0
C57 C 0.87093 0.90109 0.83704 0.0
C58 C 0.84098 0.91645 0.85301 0.0
N59 N 0.87953 0.82971 0.90785 0.0
H60 H 0.70541 0.22435 0.28367 0.0
H61 H 0.696 0.31423 0.35379 0.0
H62 H 0.61519 0.28275 0.28187 0.0
H63 H 0.72803 0.28631 0.3899 0.0
C64 C 0.74572 0.27311 0.37153 0.0
C65 C 0.69062 0.24571 0.29355 0.0
C66 C 0.65863 0.25062 0.27903 0.0
C67 C 0.70382 0.26785 0.32112 0.0
C68 C 0.68562 0.29635 0.33318 0.0
C69 C 0.65369 0.30199 0.31926 0.0
C70 C 0.64007 0.27884 0.29231 0.0
N71 N 0.73536 0.26071 0.33632 0.0
H72 H 0.27595 0.59292 0.2644 0.0
H73 H 0.36697 0.65936 0.26205 0.0
H74 H 0.28821 0.6759 0.18767 0.0
H75 H 0.38904 0.60417 0.26724 0.0
C76 C 0.37342 0.59813 0.29172 0.0
C77 C 0.29071 0.61458 0.25259 0.0
C78 C 0.27733 0.63381 0.22478 0.0
C79 C 0.32359 0.6228 0.26491 0.0
C80 C 0.3424 0.65168 0.25099 0.0
C81 C 0.32968 0.67111 0.22339 0.0
C82 C 0.29732 0.66182 0.21017 0.0
N83 N 0.3377 0.60206 0.29134 0.0
H84 H 0.11498 0.19825 0.76838 0.0
H85 H 0.15333 0.3036 0.77952 0.0
H86 H 0.21697 0.22833 0.72949 0.0
H87 H 0.06249 0.29743 0.80644 0.0
C88 C 0.08834 0.2901 0.81009 0.0
C89 C 0.13622 0.21726 0.76608 0.0
C90 C 0.16669 0.20885 0.74727 0.0
C91 C 0.13128 0.25097 0.77901 0.0
C92 C 0.15728 0.27686 0.77269 0.0
C93 C 0.18859 0.26865 0.75588 0.0
C94 C 0.19333 0.23445 0.74382 0.0
N95 N 0.09836 0.2582 0.79402 0.0
Nd96 Nd 0.05536 0.98586 0.524 0.0
Nd97 Nd 1.02119 0.05042 0.53593 0.0
C98 C 0.07292 0.92121 0.51539 0.0
C99 C 0.08535 0.89651 0.54069 0.0
C100 C 0.10653 0.87083 0.52718 0.0
C101 C 0.12424 0.85184 0.55141 0.0
C102 C 0.12112 0.85845 0.58953 0.0
C103 C 0.09817 0.88277 0.60296 0.0
C104 C 0.08056 0.90176 0.57873 0.0
C105 C 0.09006 0.03211 0.56943 0.0
C106 C 1.00031 0.99209 0.59812 0.0
C107 C 1.0036 0.11501 0.54531 0.0
C108 C 0.98866 0.1396 0.52178 0.0
C109 C 0.9824 0.17292 0.53528 0.0
C110 C 0.96308 0.19438 0.51528 0.0
C111 C 0.94944 0.18261 0.48167 0.0
C112 C 0.95755 0.14981 0.46738 0.0
C113 C 0.97706 0.12853 0.48725 0.0
C114 C 0.98634 1.00371 0.4906 0.0
C115 C 0.0775 0.04584 0.46355 0.0
O116 O 0.04124 0.92952 0.52047 0.0
O117 O 0.0939 0.948 0.50949 0.0
O118 O 0.10504 1.01299 0.54477 0.0
O119 O 0.0584 0.02566 0.5703 0.0
O120 O 1.01623 0.97108 0.57414 0.0
O121 O 1.00213 0.0257 0.5916 0.0
O122 O 0.03482 0.10696 0.53675 0.0
O123 O 0.98347 0.08811 0.55342 0.0
O124 O 0.97148 0.0241 0.51411 0.0
O125 O 1.018 1.0101 0.48972 0.0
O126 O 0.06139 0.06628 0.48779 0.0
O127 O 0.07548 1.01196 0.46903 0.0
H128 H 0.11082 0.86678 0.49787 0.0
H129 H 0.14196 0.83357 0.54015 0.0
H130 H 0.09485 0.8881 0.63217 0.0
H131 H 0.06454 0.92174 0.58968 0.0
H132 H 0.99126 0.1818 0.56191 0.0
H133 H 0.95786 0.21972 0.52675 0.0
H134 H 0.94722 0.13966 0.44187 0.0
H135 H 0.98161 0.10273 0.47654 0.0
Nd136 Nd 0.54044 1.01503 0.05847 0.0
Nd137 Nd 0.54103 0.0548 1.00715 0.0
C138 C 0.54143 0.96113 0.10148 0.0
C139 C 0.51822 0.93255 0.11434 0.0
C140 C 0.52801 0.89858 0.1085 0.0
C141 C 0.50644 0.87075 0.11963 0.0
C142 C 0.4747 0.87635 0.13721 0.0
C143 C 0.46489 0.91049 0.14304 0.0
C144 C 0.48643 0.93839 0.13159 0.0
C145 C 0.48261 0.05595 0.07332 0.0
C146 C 0.50094 0.98676 0.98714 0.0
C147 C 0.54263 0.10862 0.96366 0.0
C148 C 0.56886 0.13339 0.94856 0.0
C149 C 0.56313 0.16876 0.95071 0.0
C150 C 0.58838 0.19304 0.93864 0.0
C151 C 0.61974 0.18232 0.92397 0.0
C152 C 0.62527 0.14681 0.9213 0.0
C153 C 0.60011 0.12251 0.93374 0.0
C154 C 0.59836 1.01326 0.99232 0.0
C155 C 0.57902 0.08317 0.07949 0.0
O156 O 0.55005 0.96009 0.06666 0.0
O157 O 0.53581 0.99231 0.11372 0.0
O158 O 0.50576 0.04936 0.09597 0.0
O159 O 0.49127 0.04242 0.0419 0.0
O160 O 0.5204 0.97755 1.01296 0.0
O161 O 0.49857 0.0198 0.98261 0.0
O162 O 0.537 0.11091 0.99902 0.0
O163 O 0.54295 0.07668 0.95151 0.0
O164 O 0.57502 0.01965 0.9699 0.0
O165 O 0.59009 0.02744 1.02352 0.0
O166 O 0.55905 0.09225 0.05403 0.0
O167 O 0.58244 0.05023 0.08302 0.0
H168 H 0.55234 0.89355 0.09501 0.0
H169 H 0.51453 0.84481 0.11404 0.0
H170 H 0.44077 0.9157 0.15684 0.0
H171 H 0.4782 0.96441 0.13625 0.0
H172 H 0.53924 0.17763 0.96218 0.0
H173 H 0.58331 0.22023 0.94063 0.0
H174 H 0.64933 0.1379 0.91039 0.0
H175 H 0.60528 0.09534 0.93222 0.0
Nd176 Nd 0.50502 0.49806 0.55809 0.0
Nd177 Nd 0.56805 0.54461 0.54741 0.0
C178 C 0.443 0.46857 0.56691 0.0
C179 C 0.41981 0.45435 0.59628 0.0
C180 C 0.39243 0.47316 0.61016 0.0
C181 C 0.36881 0.45859 0.63573 0.0
C182 C 0.37197 0.42481 0.64771 0.0
C183 C 0.39985 0.40638 0.63441 0.0
C184 C 0.42346 0.42094 0.609 0.0
C185 C 0.55947 0.47973 0.59704 0.0
C186 C 0.51555 0.56782 0.61096 0.0
C187 C 0.63052 0.57272 0.53815 0.0
C188 C 0.65104 0.58808 0.50761 0.0
C189 C 0.68577 0.58204 0.50345 0.0
C190 C 0.70593 0.59822 0.47583 0.0
C191 C 0.69169 0.62098 0.45208 0.0
C192 C 0.65655 0.62604 0.45576 0.0
C193 C 0.63641 0.60958 0.48305 0.0
C194 C 0.51421 0.5627 0.50705 0.0
C195 C 0.55639 0.47603 0.49311 0.0
O196 O 0.44912 0.50213 0.56673 0.0
O197 O 0.46997 0.4515 0.55806 0.0
O198 O 0.53773 0.45754 0.58245 0.0
O199 O 0.55077 0.51003 0.59328 0.0
O200 O 0.49336 0.54616 0.59456 0.0
O201 O 0.54835 0.56764 0.60207 0.0
O202 O 0.62351 0.53933 0.53587 0.0
O203 O 0.6046 0.58992 0.55038 0.0
O204 O 0.53683 0.58483 0.52025 0.0
O205 O 0.52247 0.53249 0.51207 0.0
O206 O 0.57904 0.4965 0.51039 0.0
O207 O 0.52367 0.47678 0.5022 0.0
H208 H 0.38886 0.49888 0.6007 0.0
H209 H 0.3478 0.47361 0.64569 0.0
H210 H 0.40274 0.38008 0.64246 0.0
H211 H 0.44405 0.40555 0.59864 0.0
H212 H 0.69742 0.56523 0.52193 0.0
H213 H 0.73274 0.59321 0.47339 0.0
H214 H 0.64469 0.64373 0.43846 0.0
H215 H 0.60953 0.61438 0.48549 0.0
Nd216 Nd 1.01369 0.52401 0.06015 0.0
Nd217 Nd 0.07826 0.54647 1.02086 0.0
C218 C 0.94957 0.51572 0.08313 0.0
C219 C 0.92983 0.54391 0.09912 0.0
C220 C 0.8941 0.5418 0.10152 0.0
C221 C 0.87646 0.57025 0.11526 0.0
C222 C 0.89448 0.60096 0.1268 0.0
C223 C 0.93026 0.60272 0.12404 0.0
C224 C 0.94766 0.57461 0.11035 0.0
C225 C 0.05965 0.5594 0.10396 0.0
C226 C 1.01721 0.60024 1.0151 0.0
C227 C 0.14297 0.56012 1.00176 0.0
C228 C 0.16865 0.53669 0.98651 0.0
C229 C 0.18023 0.51029 1.00764 0.0
C230 C 0.19402 0.48127 0.99043 0.0
C231 C 0.19571 0.47786 0.95184 0.0
C232 C 0.18907 0.50681 0.93133 0.0
C233 C 0.17599 0.53604 0.94857 0.0
C234 C 0.03263 0.51037 0.9769 0.0
C235 C 0.07439 0.46859 0.06258 0.0
O236 O 0.95851 0.51892 0.04843 0.0
O237 O 0.97489 0.50755 0.10275 0.0
O238 O 0.04022 0.53324 0.11451 0.0
O239 O 0.05305 0.56757 0.07191 0.0
O240 O 0.99807 0.5744 0.03008 0.0
O241 O 0.05081 0.59771 1.01253 0.0
O242 O 0.13235 0.55564 0.03587 0.0
O243 O 0.1179 0.5647 0.98018 0.0
O244 O 0.05275 0.53588 0.9657 0.0
O245 O 0.03889 0.50277 1.0092 0.0
O246 O 0.09347 0.49457 0.04772 0.0
O247 O 0.04076 0.47161 0.06658 0.0
H248 H 0.87994 0.51844 0.09255 0.0
H249 H 0.84887 0.56821 0.11701 0.0
H250 H 0.94492 0.62619 0.13173 0.0
H251 H 0.97527 0.57702 0.10806 0.0
H252 H 0.17591 0.51049 0.03717 0.0
H253 H 0.20041 0.46025 1.0073 0.0
H254 H 0.1902 0.50581 0.90163 0.0
H255 H 0.16807 0.55644 0.93169 0.0
H256 H 0.16999 0.18492 0.29119 0.0
H257 H 0.1156 1.0126 0.40742 0.0
H258 H 0.20348 0.08434 0.25811 0.0
H259 H 0.08598 0.11451 0.44022 0.0
H260 H 0.14711 0.03731 0.3536 0.0
H261 H 0.13962 0.15939 0.34451 0.0
C262 C 0.17102 0.15736 0.29451 0.0
C263 C 0.1898 0.1373 0.26844 0.0
C264 C 0.13379 0.05442 0.37246 0.0
C265 C 0.15398 0.10699 0.33228 0.0
C266 C 0.11552 0.04019 0.40362 0.0
C267 C 0.09749 0.06104 0.42948 0.0
C268 C 0.13458 0.09029 0.36601 0.0
C269 C 0.09909 0.09682 0.42183 0.0
C270 C 0.15351 0.14268 0.32572 0.0
C271 C 0.18996 0.10162 0.27657 0.0
N272 N 0.11691 0.10994 0.3914 0.0
N273 N 0.17253 0.08794 0.30707 0.0
H274 H 0.41102 0.8804 0.79878 0.0
H275 H 0.50241 0.91646 0.98992 0.0
H276 H 0.4476 0.79972 0.86321 0.0
H277 H 0.46578 0.99685 0.92502 0.0
H278 H 0.48217 0.87337 0.94428 0.0
H279 H 0.43157 0.92333 0.84436 0.0
C280 C 0.42345 0.87171 0.82254 0.0
C281 C 0.42733 0.83632 0.82731 0.0
C282 C 0.47843 0.9004 0.94004 0.0
C283 C 0.45104 0.88554 0.87978 0.0
C284 C 0.48985 0.92507 0.9662 0.0
C285 C 0.48579 0.9604 0.96132 0.0
C286 C 0.46281 0.91104 0.90864 0.0
C287 C 0.46938 0.96994 0.92998 0.0
C288 C 0.43522 0.89628 0.84856 0.0
C289 C 0.44421 0.82669 0.85831 0.0
N290 N 0.4586 0.94542 0.9048 0.0
N291 N 0.45526 0.85113 0.88347 0.0
H292 H 0.73706 0.47898 0.73134 0.0
H293 H 0.58351 0.41581 0.60311 0.0
H294 H 0.72656 0.37737 0.67987 0.0
H295 H 0.60484 0.52306 0.63386 0.0
H296 H 0.63448 0.40098 0.63404 0.0
H297 H 0.68767 0.49577 0.69824 0.0
C298 C 0.72451 0.46031 0.71289 0.0
C299 C 0.73579 0.42671 0.70827 0.0
C300 C 0.6281 0.42779 0.63402 0.0
C301 C 0.67929 0.44555 0.67078 0.0
C302 C 0.59893 0.43622 0.61648 0.0
C303 C 0.58997 0.47065 0.61609 0.0
C304 C 0.64837 0.45397 0.65153 0.0
C305 C 0.61089 0.49615 0.63368 0.0
C306 C 0.69634 0.46988 0.69405 0.0
C307 C 0.71862 0.40353 0.68412 0.0
N308 N 0.6391 0.48729 0.65084 0.0
N309 N 0.69113 0.41329 0.66647 0.0
H310 H 0.77165 0.78048 0.15068 0.0
H311 H 0.91087 0.64373 0.18524 0.0
H312 H 0.86322 0.80412 0.21021 0.0
H313 H 0.83797 0.62876 0.09985 0.0
H314 H 0.88711 0.69893 0.20234 0.0
H315 H 0.79011 0.72168 0.13794 0.0
C316 C 0.79549 0.77318 0.16129 0.0
C317 C 0.81547 0.79689 0.1823 0.0
C318 C 0.87617 0.68353 0.17997 0.0
C319 C 0.83667 0.72998 0.16797 0.0
C320 C 0.88971 0.652 0.17018 0.0
C321 C 0.87675 0.63184 0.14066 0.0
C322 C 0.84928 0.69508 0.16028 0.0
C323 C 0.84873 0.64346 0.12278 0.0
C324 C 0.80595 0.7397 0.15407 0.0
C325 C 0.84637 0.7864 0.19499 0.0
N326 N 0.83608 0.6745 0.13268 0.0
N327 N 0.85591 0.75368 0.18778 0.0
H328 H 0.30851 0.12512 0.21715 0.0
H329 H 0.42581 0.07707 0.03399 0.0
H330 H 0.28103 0.15395 0.1096 0.0
H331 H 0.45826 0.06937 0.14458 0.0
H332 H 0.37218 0.10136 0.05884 0.0
H333 H 0.36063 0.10159 0.18999 0.0
C334 C 0.31285 0.1265 0.18774 0.0
C335 C 0.28876 0.14206 0.16636 0.0
C336 C 0.39095 0.09433 0.0778 0.0
C337 C 0.35111 0.11394 0.13384 0.0
C338 C 0.42196 0.08018 0.06343 0.0
C339 C 0.44776 0.07057 0.08671 0.0
C340 C 0.3845 0.09897 0.11623 0.0
C341 C 0.44 0.07596 0.12485 0.0
C342 C 0.34334 0.11296 0.17205 0.0
C343 C 0.29793 0.14282 0.12811 0.0
N344 N 0.40982 0.08926 0.13795 0.0
N345 N 0.32758 0.12906 0.11347 0.0
H346 H 0.28246 0.83677 0.73845 0.0
H347 H 0.14169 0.79169 0.58916 0.0
H348 H 0.26498 0.73467 0.68973 0.0
H349 H 0.15456 0.89043 0.64661 0.0
H350 H 0.185 0.76924 0.62711 0.0
H351 H 0.23398 0.85596 0.70645 0.0
C352 C 0.26831 0.81832 0.72111 0.0
C353 C 0.27779 0.78408 0.71653 0.0
C354 C 0.17805 0.7957 0.63163 0.0
C355 C 0.22225 0.80594 0.67965 0.0
C356 C 0.15341 0.80855 0.60992 0.0
C357 C 0.14446 0.843 0.61469 0.0
C358 C 0.19403 0.81756 0.65808 0.0
C359 C 0.16026 0.86359 0.64224 0.0
C360 C 0.24055 0.82929 0.70285 0.0
C361 C 0.25845 0.76131 0.69385 0.0
N362 N 0.1844 0.85064 0.66265 0.0
N363 N 0.23168 0.77268 0.67601 0.0
H364 H 0.83513 0.42303 0.91702 0.0
H365 H 1.01835 0.52229 0.9061 0.0
H366 H 0.8869 0.44898 0.81405 0.0
H367 H 0.98106 0.46488 1.00031 0.0
H368 H 0.96813 0.5006 0.87294 0.0
H369 H 0.88591 0.44382 0.94925 0.0
C370 C 0.85717 0.43295 0.90109 0.0
C371 C 0.85672 0.43387 0.8626 0.0
C372 C 0.97102 0.49261 0.9008 0.0
C373 C 0.91483 0.45835 0.89962 0.0
C374 C 0.99965 0.50494 0.91971 0.0
C375 C 1.00375 0.49535 0.95598 0.0
C376 C 0.94611 0.47093 0.91848 0.0
C377 C 0.97879 0.47289 0.97238 0.0
C378 C 0.88613 0.44491 0.9196 0.0
C379 C 0.88584 0.44801 0.8437 0.0
N380 N 0.95086 0.46163 0.95359 0.0
N381 N 0.9137 0.45968 0.8624 0.0
H382 H 0.7501 0.77622 0.29721 0.0
H383 H 0.75696 0.64868 0.46033 0.0
H384 H 0.84433 0.7562 0.34766 0.0
H385 H 0.67627 0.6402 0.38282 0.0
H386 H 0.78965 0.68763 0.41934 0.0
H387 H 0.72249 0.72642 0.32787 0.0
C388 C 0.76519 0.7611 0.31423 0.0
C389 C 0.79958 0.77076 0.32012 0.0
C390 C 0.76496 0.67689 0.41111 0.0
C391 C 0.76778 0.71413 0.35599 0.0
C392 C 0.74629 0.65441 0.43442 0.0
C393 C 0.71352 0.6413 0.42532 0.0
C394 C 0.75062 0.68681 0.37868 0.0
C395 C 0.70099 0.65032 0.39152 0.0
C396 C 0.74931 0.73272 0.33187 0.0
C397 C 0.81757 0.75033 0.34301 0.0
N398 N 0.71935 0.67289 0.36968 0.0
N399 N 0.80136 0.72327 0.36047 0.0
H400 H 0.13276 0.27239 0.16653 0.0
H401 H 0.14129 0.44964 0.04951 0.0
H402 H 0.21922 0.30764 0.09906 0.0
H403 H 0.04834 0.41149 0.1042 0.0
H404 H 0.16964 0.39901 0.06947 0.0
H405 H 0.10184 0.32246 0.1471 0.0
C406 C 0.14549 0.29045 0.14775 0.0
C407 C 0.17925 0.28493 0.13474 0.0
C408 C 0.14302 0.40143 0.07728 0.0
C409 C 0.14319 0.34379 0.11195 0.0
C410 C 0.12654 0.43079 0.06572 0.0
C411 C 0.09177 0.43588 0.0747 0.0
C412 C 0.12533 0.37592 0.09881 0.0
C413 C 0.07492 0.40946 0.09606 0.0
C414 C 0.1276 0.31934 0.13649 0.0
C415 C 0.19353 0.31006 0.11021 0.0
N416 N 0.09162 0.38126 0.10727 0.0
N417 N 0.17584 0.33774 0.1 0.0
H418 H 0.75888 0.36279 0.90695 0.0
H419 H 0.65898 0.1817 0.8603 0.0
H420 H 0.75807 0.31523 0.79836 0.0
H421 H 0.6416 0.24182 0.96015 0.0
H422 H 0.70175 0.22624 0.83989 0.0
H423 H 0.72244 0.31417 0.9297 0.0
C424 C 0.75136 0.34188 0.888 0.0
C425 C 0.76135 0.34306 0.8507 0.0
C426 C 0.68863 0.22961 0.86631 0.0
C427 C 0.71947 0.28759 0.87643 0.0
C428 C 0.66439 0.20416 0.87802 0.0
C429 C 0.64661 0.20827 0.91182 0.0
C430 C 0.69532 0.25917 0.88873 0.0
C431 C 0.6544 0.23793 0.93365 0.0
C432 C 0.73037 0.31429 0.90093 0.0
C433 C 0.75057 0.31549 0.82725 0.0
N434 N 0.67817 0.26227 0.92172 0.0
N435 N 0.73014 0.28888 0.84049 0.0
H436 H 0.90899 0.83663 0.34628 0.0
H437 H 1.01355 0.95534 0.44437 0.0
H438 H 0.8482 0.92369 0.33066 0.0
H439 H 0.91901 1.00202 0.4739 0.0
H440 H 0.98401 0.91893 0.3981 0.0
H441 H 0.94382 0.87212 0.38891 0.0
C442 C 0.90331 0.8634 0.35157 0.0
C443 C 0.87591 0.87742 0.33487 0.0
C444 C 0.96965 0.93686 0.41497 0.0
C445 C 0.91554 0.91813 0.3834 0.0
C446 C 0.98652 0.95777 0.44117 0.0
C447 C 0.96856 0.98145 0.46307 0.0
C448 C 0.93465 0.93991 0.4105 0.0
C449 C 0.93365 0.98382 0.45773 0.0
C450 C 0.9233 0.88368 0.37564 0.0
C451 C 0.86939 0.91213 0.34271 0.0
N452 N 0.91783 0.96343 0.43175 0.0
N453 N 0.88883 0.93124 0.36684 0.0
H454 H 0.38819 0.68966 0.75607 0.0
H455 H 0.55129 0.62359 0.64212 0.0
H456 H 0.48024 0.75389 0.73759 0.0
H457 H 0.45168 0.5704 0.64331 0.0
H458 H 0.52906 0.66769 0.68476 0.0
H459 H 0.41475 0.64187 0.72319 0.0
C460 C 0.41413 0.69363 0.74529 0.0
C461 C 0.43182 0.72603 0.74913 0.0
C462 C 0.51217 0.64622 0.67586 0.0
C463 C 0.46253 0.67119 0.71138 0.0
C464 C 0.52484 0.62096 0.65159 0.0
C465 C 0.50327 0.59329 0.63891 0.0
C466 C 0.47775 0.64368 0.68777 0.0
C467 C 0.46922 0.59133 0.65211 0.0
C468 C 0.42929 0.6663 0.72651 0.0
C469 C 0.46565 0.72939 0.73528 0.0
N470 N 0.45754 0.61619 0.67569 0.0
N471 N 0.47982 0.70241 0.71669 0.0
H472 H 0.90854 0.86491 0.78215 0.0
H473 H 0.96329 0.02811 0.6524 0.0
H474 H 0.87681 0.96796 0.80659 0.0
H475 H 0.99207 0.92454 0.626 0.0
H476 H 0.9325 1.00695 0.70809 0.0
H477 H 0.93899 0.88601 0.72657 0.0
C478 C 0.9079 0.89209 0.77648 0.0
C479 C 0.88948 0.91424 0.80079 0.0
C480 C 0.94546 0.98866 0.69027 0.0
C481 C 0.92537 0.9392 0.73435 0.0
C482 C 0.96332 1.00084 0.658 0.0
C483 C 0.98089 0.97848 0.63329 0.0
C484 C 0.94456 0.95336 0.69919 0.0
C485 C 0.97926 0.94328 0.64336 0.0
C486 C 0.92544 0.90417 0.74397 0.0
C487 C 0.8899 0.94915 0.78964 0.0
N488 N 0.96179 0.93212 0.67494 0.0
N489 N 0.9073 0.96024 0.758 0.0
H490 H 0.66045 0.18006 0.27651 0.0
H491 H 0.57379 0.15349 0.08151 0.0
H492 H 0.62609 0.26458 0.21599 0.0
H493 H 0.61547 0.07149 0.13996 0.0
H494 H 0.59227 0.1947 0.13007 0.0
H495 H 0.64267 0.14002 0.22709 0.0
C496 C 0.64919 0.19025 0.25275 0.0
C497 C 0.6451 0.22587 0.2503 0.0
C498 C 0.59753 0.16773 0.13216 0.0
C499 C 0.62437 0.17986 0.1934 0.0
C500 C 0.58711 0.14418 0.10437 0.0
C501 C 0.59307 0.10893 0.10665 0.0
C502 C 0.61392 0.15594 0.16256 0.0
C503 C 0.61034 0.09838 0.13698 0.0
C504 C 0.63897 0.1673 0.22452 0.0
C505 C 0.62961 0.23735 0.21916 0.0
N506 N 0.62 0.12173 0.16376 0.0
N507 N 0.61994 0.21444 0.19186 0.0
H508 H 0.34865 0.567 0.35515 0.0
H509 H 0.5142 0.62096 0.46695 0.0
H510 H 0.43811 0.61917 0.30587 0.0
H511 H 0.45924 0.52281 0.4842 0.0
H512 H 0.47705 0.63108 0.41632 0.0
H513 H 0.38054 0.56004 0.4112 0.0
C514 C 0.37487 0.57713 0.35628 0.0
C515 C 0.39099 0.59355 0.32604 0.0
C516 C 0.47298 0.60751 0.43151 0.0
C517 C 0.42686 0.58653 0.38964 0.0
C518 C 0.49398 0.60181 0.46041 0.0
C519 C 0.48983 0.5709 0.47942 0.0
C520 C 0.44727 0.58247 0.42218 0.0
C521 C 0.46331 0.54685 0.46988 0.0
C522 C 0.39296 0.57311 0.38806 0.0
C523 C 0.42495 0.60618 0.32864 0.0
N524 N 0.44291 0.55314 0.44184 0.0
N525 N 0.44172 0.60266 0.36 0.0
H526 H 0.13125 0.2731 0.86348 0.0
H527 H 0.22045 0.46037 0.88191 0.0
H528 H 0.0972 0.35933 0.80568 0.0
H529 H 0.17119 0.41506 0.9786 0.0
H530 H 0.2006 0.4093 0.84591 0.0
H531 H 0.16943 0.31358 0.89876 0.0
C532 C 0.13208 0.30049 0.85815 0.0
C533 C 0.11112 0.31328 0.83206 0.0
C534 C 0.19528 0.41038 0.87529 0.0
C535 C 0.15527 0.35859 0.87037 0.0
C536 C 0.20632 0.43954 0.8959 0.0
C537 C 0.19624 0.44303 0.93321 0.0
C538 C 0.17524 0.38408 0.89241 0.0
C539 C 0.17936 0.41416 0.94995 0.0
C540 C 0.15386 0.32329 0.87794 0.0
C541 C 0.11285 0.34877 0.8259 0.0
N542 N 0.1688 0.38612 0.92924 0.0
N543 N 0.13482 0.37027 0.84475 0.0
H544 H 0.7993 0.91119 0.96034 0.0
H545 H 0.62133 0.99946 0.92094 0.0
H546 H 0.77077 0.9378 0.85241 0.0
H547 H 0.65578 0.99141 0.03071 0.0
H548 H 0.67404 0.97491 0.89667 0.0
H549 H 0.74755 0.93695 0.98638 0.0
C550 C 0.7824 0.92212 0.94166 0.0
C551 C 0.79082 0.92152 0.90331 0.0
C552 C 0.67043 0.97841 0.92611 0.0
C553 C 0.72918 0.95223 0.93436 0.0
C554 C 0.63984 0.99267 0.94033 0.0
C555 C 0.6329 0.99825 0.97851 0.0
C556 C 0.69561 0.9685 0.94966 0.0
C557 C 0.65905 0.98823 1.00122 0.0
C558 C 0.75245 0.93727 0.95698 0.0
C559 C 0.76678 0.93727 0.8819 0.0
N560 N 0.68853 0.97397 0.98667 0.0
N561 N 0.73774 0.95137 0.89741 0.0
H562 H 0.76798 0.2875 0.43981 0.0
H563 H 0.94104 0.19005 0.40766 0.0
H564 H 0.79806 0.23935 0.33627 0.0
H565 H 0.89905 0.22007 0.51435 0.0
H566 H 0.89373 0.21605 0.37921 0.0
H567 H 0.82092 0.27097 0.46564 0.0
C568 C 0.78588 0.27357 0.4225 0.0
C569 C 0.77858 0.26447 0.38605 0.0
C570 C 0.89514 0.21721 0.40882 0.0
C571 C 0.83916 0.24552 0.41526 0.0
C572 C 0.92208 0.20231 0.42512 0.0
C573 C 0.92398 0.20256 0.46353 0.0
C574 C 0.86996 0.23258 0.43108 0.0
C575 C 0.899 0.21948 0.48466 0.0
C576 C 0.81605 0.26414 0.43722 0.0
C577 C 0.80262 0.24662 0.36463 0.0
N578 N 0.87295 0.23356 0.46817 0.0
N579 N 0.83184 0.23756 0.37964 0.0
H580 H 0.23024 0.67668 0.19979 0.0
H581 H 0.08822 0.52832 0.1597 0.0
H582 H 0.24635 0.5687 0.21498 0.0
H583 H 0.10025 0.61858 0.09301 0.0
H584 H 0.14028 0.54714 0.19085 0.0
H585 H 0.17669 0.65975 0.17056 0.0
C586 C 0.22272 0.64943 0.19698 0.0
C587 C 0.24328 0.62409 0.20968 0.0
C588 C 0.13144 0.56288 0.16951 0.0
C589 C 0.18138 0.60486 0.17726 0.0
C590 C 0.10168 0.55231 0.15186 0.0
C591 C 0.09002 0.57202 0.1238 0.0
C592 C 0.1493 0.5937 0.15952 0.0
C593 C 0.10852 0.60273 0.11454 0.0
C594 C 0.19204 0.6399 0.18042 0.0
C595 C 0.23137 0.58927 0.20618 0.0
N596 N 0.1373 0.61281 0.13255 0.0
N597 N 0.20118 0.58071 0.19039 0.0
H598 H 0.17995 0.33158 0.72672 0.0
H599 H 0.37974 0.38089 0.70418 0.0
H600 H 0.25743 0.26843 0.76494 0.0
H601 H 0.30275 0.4291 0.64544 0.0
H602 H 0.33478 0.34654 0.73683 0.0
H603 H 0.22433 0.37463 0.70746 0.0
C604 C 0.20629 0.32704 0.73163 0.0
C605 C 0.21508 0.29631 0.74731 0.0
C606 C 0.32777 0.36492 0.71706 0.0
C607 C 0.266 0.34526 0.72484 0.0
C608 C 0.3534 0.38446 0.69832 0.0
C609 C 0.34507 0.40761 0.67162 0.0
C610 C 0.29355 0.36862 0.70916 0.0
C611 C 0.31045 0.41175 0.66587 0.0
C612 C 0.23162 0.35152 0.72038 0.0
C613 C 0.24965 0.29159 0.75252 0.0
N614 N 0.286 0.3922 0.68423 0.0
N615 N 0.2739 0.31573 0.74111 0.0
H616 H 0.87785 0.76487 0.95176 0.0
H617 H 0.04704 0.65518 0.97502 0.0
H618 H 0.97513 0.78738 0.89701 0.0
H619 H 0.94885 0.61965 1.02003 0.0
H620 H 1.02079 0.7049 0.94984 0.0
H621 H 0.90194 0.71428 0.97972 0.0
C622 C 0.90422 0.75957 0.94558 0.0
C623 C 0.92416 0.78133 0.92155 0.0
C624 C 1.00475 0.68641 0.96526 0.0
C625 C 0.95253 0.72228 0.95421 0.0
C626 C 1.01995 0.65763 0.97993 0.0
C627 C 1.00067 0.63222 1.00015 0.0
C628 C 0.96943 0.69106 0.97052 0.0
C629 C 0.96532 0.63793 1.00482 0.0
C630 C 0.91809 0.73033 0.96164 0.0
C631 C 0.9583 0.77203 0.91511 0.0
N632 N 0.95115 0.66628 0.99043 0.0
N633 N 0.97105 0.74397 0.93105 0.0
H634 H 0.39826 0.67513 0.20711 0.0
H635 H 0.40486 0.86774 0.13475 0.0
H636 H 0.30885 0.73456 0.2049 0.0
H637 H 0.49318 0.81696 0.16783 0.0
H638 H 0.36872 0.81763 0.15445 0.0
H639 H 0.43302 0.72513 0.18574 0.0
C640 C 0.38593 0.69876 0.20227 0.0
C641 C 0.35062 0.70079 0.20824 0.0
C642 C 0.39602 0.81756 0.15736 0.0
C643 C 0.39029 0.75804 0.18323 0.0
C644 C 0.41665 0.84621 0.14634 0.0
C645 C 0.45217 0.84655 0.14951 0.0
C646 C 0.41105 0.78902 0.17139 0.0
C647 C 0.46604 0.81764 0.16419 0.0
C648 C 0.40579 0.72727 0.18994 0.0
C649 C 0.33595 0.73181 0.2005 0.0
N650 N 0.44548 0.79005 0.17447 0.0
N651 N 0.35589 0.75931 0.18846 0.0
H652 H 0.19565 0.1973 0.6786 0.0
H653 H 0.06528 0.04618 0.63833 0.0
H654 H 0.13979 0.14441 0.76666 0.0
H655 H 0.15484 0.06191 0.5674 0.0
H656 H 0.09321 0.08159 0.68614 0.0
H657 H 0.18467 0.14701 0.63837 0.0
C658 C 0.182 0.17479 0.68998 0.0
C659 C 0.16796 0.17553 0.72604 0.0
C660 C 0.10701 0.07689 0.66036 0.0
C661 C 0.15433 0.11834 0.67942 0.0
C662 C 0.09097 0.057 0.63296 0.0
C663 C 0.10776 0.0516 0.59887 0.0
C664 C 0.13971 0.09224 0.65324 0.0
C665 C 0.1411 0.06577 0.59337 0.0
C666 C 0.17555 0.1461 0.66676 0.0
C667 C 0.15015 0.1455 0.73876 0.0
N668 N 0.15584 0.08612 0.62011 0.0
N669 N 0.14308 0.11844 0.7152 0.0
H670 H 0.67719 0.36916 0.32827 0.0
H671 H 0.51942 0.42295 0.45876 0.0
H672 H 0.58778 0.30138 0.34735 0.0
H673 H 0.61922 0.47571 0.45803 0.0
H674 H 0.53957 0.38327 0.41007 0.0
H675 H 0.65108 0.41403 0.36641 0.0
C676 C 0.65174 0.36398 0.34002 0.0
C677 C 0.63477 0.33138 0.33502 0.0
C678 C 0.55695 0.40366 0.42046 0.0
C679 C 0.60481 0.38255 0.37913 0.0
C680 C 0.5455 0.42636 0.44823 0.0
C681 C 0.56774 0.4526 0.46272 0.0
C682 C 0.59079 0.40745 0.40678 0.0
C683 C 0.60123 0.45574 0.44796 0.0
C684 C 0.63692 0.38953 0.36195 0.0
C685 C 0.6017 0.32618 0.35051 0.0
N686 N 0.6117 0.43344 0.42089 0.0
N687 N 0.58792 0.35137 0.3723 0.0
loop_
_geom_bond_atom_site_label_1
_geom_bond_atom_site_label_2
_geom_bond_distance
_geom_bond_site_symmetry_2
_ccdc_geom_bond_type
H0 C5 0.930 . S
H1 C8 0.930 . S
H2 C10 0.930 . S
H3 C4 1.016 . S
C4 H3 1.016 . S
C4 N11 1.286 . S
C5 H0 0.930 . S
C5 C6 1.397 . S
C5 C7 1.361 . S
C6 C5 1.397 . S
C6 C10 1.390 . S
C7 C5 1.361 . S
C7 C8 1.393 . S
C7 N11 1.413 . S
C8 H1 0.930 . S
C8 C7 1.393 . S
C8 C9 1.399 . S
C9 C8 1.399 . S
C9 C10 1.381 . S
C10 H2 0.930 . S
C10 C6 1.390 . S
C10 C9 1.381 . S
N11 C4 1.286 . S
N11 C7 1.413 . S
H12 C17 0.930 . S
H13 C20 0.930 . S
H14 C22 0.930 . S
H15 C16 1.016 . S
C16 H15 1.016 . S
C16 N23 1.286 . S
C17 H12 0.930 . S
C17 C18 1.397 . S
C17 C19 1.361 . S
C18 C17 1.397 . S
C18 C22 1.390 . S
C19 C17 1.361 . S
C19 C20 1.393 . S
C19 N23 1.413 . S
C20 H13 0.930 . S
C20 C19 1.393 . S
C20 C21 1.399 . S
C21 C20 1.399 . S
C21 C22 1.381 . S
C22 H14 0.930 . S
C22 C18 1.390 . S
C22 C21 1.381 . S
N23 C16 1.286 . S
N23 C19 1.413 . S
H24 C29 0.930 . S
H25 C32 0.930 . S
H26 C34 0.930 . S
H27 C28 1.016 . S
C28 H27 1.016 . S
C28 N35 1.286 . S
C29 H24 0.930 . S
C29 C30 1.397 . S
C29 C31 1.361 . S
C30 C29 1.397 . S
C30 C34 1.390 . S
C31 C29 1.361 . S
C31 C32 1.393 . S
C31 N35 1.413 . S
C32 H25 0.930 . S
C32 C31 1.393 . S
C32 C33 1.399 . S
C33 C32 1.399 . S
C33 C34 1.381 . S
C34 H26 0.930 . S
C34 C30 1.390 . S
C34 C33 1.381 . S
N35 C28 1.286 . S
N35 C31 1.413 . S
H36 C41 0.930 . S
H37 C44 0.930 . S
H38 C46 0.930 . S
H39 C40 1.016 . S
C40 H39 1.016 . S
C40 N47 1.286 . S
C41 H36 0.930 . S
C41 C42 1.397 . S
C41 C43 1.361 . S
C42 C41 1.397 . S
C42 C46 1.390 . S
C43 C41 1.361 . S
C43 C44 1.393 . S
C43 N47 1.413 . S
C44 H37 0.930 . S
C44 C43 1.393 . S
C44 C45 1.399 . S
C45 C44 1.399 . S
C45 C46 1.381 . S
C46 H38 0.930 . S
C46 C42 1.390 . S
C46 C45 1.381 . S
N47 C40 1.286 . S
N47 C43 1.413 . S
H48 C53 0.930 . S
H49 C56 0.930 . S
H50 C58 0.930 . S
H51 C52 1.016 . S
C52 H51 1.016 . S
C52 N59 1.286 . S
C53 H48 0.930 . S
C53 C54 1.397 . S
C53 C55 1.361 . S
C54 C53 1.397 . S
C54 C58 1.390 . S
C55 C53 1.361 . S
C55 C56 1.393 . S
C55 N59 1.413 . S
C56 H49 0.930 . S
C56 C55 1.393 . S
C56 C57 1.399 . S
C57 C56 1.399 . S
C57 C58 1.381 . S
C58 H50 0.930 . S
C58 C54 1.390 . S
C58 C57 1.381 . S
N59 C52 1.286 . S
N59 C55 1.413 . S
H60 C65 0.930 . S
H61 C68 0.930 . S
H62 C70 0.930 . S
H63 C64 1.016 . S
C64 H63 1.016 . S
C64 N71 1.286 . S
C65 H60 0.930 . S
C65 C66 1.397 . S
C65 C67 1.361 . S
C66 C65 1.397 . S
C66 C70 1.390 . S
C67 C65 1.361 . S
C67 C68 1.393 . S
C67 N71 1.413 . S
C68 H61 0.930 . S
C68 C67 1.393 . S
C68 C69 1.399 . S
C69 C68 1.399 . S
C69 C70 1.381 . S
C70 H62 0.930 . S
C70 C66 1.390 . S
C70 C69 1.381 . S
N71 C64 1.286 . S
N71 C67 1.413 . S
H72 C77 0.930 . S
H73 C80 0.930 . S
H74 C82 0.930 . S
H75 C76 1.016 . S
C76 H75 1.016 . S
C76 N83 1.286 . S
C77 H72 0.930 . S
C77 C78 1.397 . S
C77 C79 1.361 . S
C78 C77 1.397 . S
C78 C82 1.390 . S
C79 C77 1.361 . S
C79 C80 1.393 . S
C79 N83 1.413 . S
C80 H73 0.930 . S
C80 C79 1.393 . S
C80 C81 1.399 . S
C81 C80 1.399 . S
C81 C82 1.381 . S
C82 H74 0.930 . S
C82 C78 1.390 . S
C82 C81 1.381 . S
N83 C76 1.286 . S
N83 C79 1.413 . S
H84 C89 0.930 . S
H85 C92 0.930 . S
H86 C94 0.930 . S
H87 C88 1.016 . S
C88 H87 1.016 . S
C88 N95 1.286 . S
C89 H84 0.930 . S
C89 C90 1.397 . S
C89 C91 1.361 . S
C90 C89 1.397 . S
C90 C94 1.390 . S
C91 C89 1.361 . S
C91 C92 1.393 . S
C91 N95 1.413 . S
C92 H85 0.930 . S
C92 C91 1.393 . S
C92 C93 1.399 . S
C93 C92 1.399 . S
C93 C94 1.381 . S
C94 H86 0.930 . S
C94 C90 1.390 . S
C94 C93 1.381 . S
N95 C88 1.286 . S
N95 C91 1.413 . S
Nd96 C98 2.836 . S
Nd96 O116 2.500 . S
Nd96 O117 2.492 . S
Nd96 O118 2.487 1_565 S
Nd96 O119 2.682 1_565 S
Nd96 O120 2.410 . S
Nd96 O125 2.414 1_455 S
Nd96 O127 2.424 1_565 S
Nd97 C107 2.836 . S
Nd97 O119 2.414 1_655 S
Nd97 O121 2.424 1_545 S
Nd97 O122 2.500 . S
Nd97 O123 2.492 . S
Nd97 O124 2.487 1_545 S
Nd97 O125 2.682 1_545 S
Nd97 O126 2.410 . S
C98 Nd96 2.836 . S
C98 C99 1.498 . S
C98 O116 1.258 . S
C98 O117 1.239 . S
C99 C98 1.498 . S
C99 C100 1.366 . S
C99 C104 1.407 . S
C100 C99 1.366 . S
C100 C101 1.392 . S
C100 H128 0.930 . S
C101 C100 1.392 . S
C101 C102 1.398 . S
C101 H129 0.929 . S
C102 C101 1.398 . S
C102 C103 1.352 . S
C103 C102 1.352 . S
C103 C104 1.384 . S
C103 H130 0.930 . S
C104 C99 1.407 . S
C104 C103 1.384 . S
C104 H131 0.929 . S
C105 O118 1.241 . S
C105 O119 1.273 . S
C106 O120 1.251 1_655 S
C106 O121 1.268 . S
C107 Nd97 2.836 . S
C107 C108 1.498 . S
C107 O122 1.258 . S
C107 O123 1.239 . S
C108 C107 1.498 . S
C108 C109 1.366 . S
C108 C113 1.407 . S
C109 C108 1.366 . S
C109 C110 1.392 . S
C109 H132 0.930 . S
C110 C109 1.392 . S
C110 C111 1.398 . S
C110 H133 0.929 . S
C111 C110 1.398 . S
C111 C112 1.352 . S
C112 C111 1.352 . S
C112 C113 1.384 . S
C112 H134 0.930 . S
C113 C108 1.407 . S
C113 C112 1.384 . S
C113 H135 0.929 . S
C114 O124 1.241 . S
C114 O125 1.273 . S
C115 O126 1.251 1_455 S
C115 O127 1.268 . S
O116 Nd96 2.500 . S
O116 C98 1.258 . S
O117 Nd96 2.492 . S
O117 C98 1.239 . S
O118 Nd96 2.487 1_545 S
O118 C105 1.241 . S
O119 Nd96 2.682 1_545 S
O119 Nd97 2.414 1_455 S
O119 C105 1.273 . S
O120 Nd96 2.410 . S
O120 C106 1.251 1_455 S
O121 Nd97 2.424 1_565 S
O121 C106 1.268 . S
O122 Nd97 2.500 . S
O122 C107 1.258 . S
O123 Nd97 2.492 . S
O123 C107 1.239 . S
O124 Nd97 2.487 1_565 S
O124 C114 1.241 . S
O125 Nd96 2.414 1_655 S
O125 Nd97 2.682 1_565 S
O125 C114 1.273 . S
O126 Nd97 2.410 . S
O126 C115 1.251 1_655 S
O127 Nd96 2.424 1_545 S
O127 C115 1.268 . S
H128 C100 0.930 . S
H129 C101 0.929 . S
H130 C103 0.930 . S
H131 C104 0.929 . S
H132 C109 0.930 . S
H133 C110 0.929 . S
H134 C112 0.930 . S
H135 C113 0.929 . S
Nd136 C138 2.836 . S
Nd136 O156 2.500 . S
Nd136 O157 2.492 . S
Nd136 O158 2.487 1_565 S
Nd136 O159 2.682 1_565 S
Nd136 O160 2.386 1_554 S
Nd136 O165 2.414 . S
Nd136 O167 2.424 1_565 S
Nd137 C147 2.836 . S
Nd137 O159 2.414 1_556 S
Nd137 O161 2.424 1_545 S
Nd137 O162 2.500 . S
Nd137 O163 2.492 . S
Nd137 O164 2.487 . S
Nd137 O165 2.682 1_546 S
Nd137 O166 2.410 1_556 S
C138 Nd136 2.836 . S
C138 C139 1.498 . S
C138 O156 1.258 . S
C138 O157 1.239 . S
C139 C138 1.498 . S
C139 C140 1.366 . S
C139 C144 1.407 . S
C140 C139 1.366 . S
C140 C141 1.392 . S
C140 H168 0.930 . S
C141 C140 1.392 . S
C141 C142 1.398 . S
C141 H169 0.929 . S
C142 C141 1.398 . S
C142 C143 1.352 . S
C143 C142 1.352 . S
C143 C144 1.384 . S
C143 H170 0.930 . S
C144 C139 1.407 . S
C144 C143 1.384 . S
C144 H171 0.929 . S
C145 O158 1.241 . S
C145 O159 1.273 . S
C146 O160 1.282 . S
C146 O161 1.268 . S
C147 Nd137 2.836 . S
C147 C148 1.498 . S
C147 O162 1.258 . S
C147 O163 1.239 . S
C148 C147 1.498 . S
C148 C149 1.366 . S
C148 C153 1.407 . S
C149 C148 1.366 . S
C149 C150 1.392 . S
C149 H172 0.930 . S
C150 C149 1.392 . S
C150 C151 1.398 . S
C150 H173 0.929 . S
C151 C150 1.398 . S
C151 C152 1.352 . S
C152 C151 1.352 . S
C152 C153 1.384 . S
C152 H174 0.930 . S
C153 C148 1.407 . S
C153 C152 1.384 . S
C153 H175 0.929 . S
C154 O164 1.241 1_565 S
C154 O165 1.273 1_556 S
C155 O166 1.251 . S
C155 O167 1.268 . S
O156 Nd136 2.500 . S
O156 C138 1.258 . S
O157 Nd136 2.492 . S
O157 C138 1.239 . S
O158 Nd136 2.487 1_545 S
O158 C145 1.241 . S
O159 Nd136 2.682 1_545 S
O159 Nd137 2.414 1_554 S
O159 C145 1.273 . S
O160 Nd136 2.386 1_556 S
O160 C146 1.282 . S
O161 Nd137 2.424 1_565 S
O161 C146 1.268 . S
O162 Nd137 2.500 . S
O162 C147 1.258 . S
O163 Nd137 2.492 . S
O163 C147 1.239 . S
O164 Nd137 2.487 . S
O164 C154 1.241 1_545 S
O165 Nd136 2.414 . S
O165 Nd137 2.682 1_564 S
O165 C154 1.273 1_554 S
O166 Nd137 2.410 1_554 S
O166 C155 1.251 . S
O167 Nd136 2.424 1_545 S
O167 C155 1.268 . S
H168 C140 0.930 . S
H169 C141 0.929 . S
H170 C143 0.930 . S
H171 C144 0.929 . S
H172 C149 0.930 . S
H173 C150 0.929 . S
H174 C152 0.930 . S
H175 C153 0.929 . S
Nd176 C178 2.836 . S
Nd176 O196 2.500 . S
Nd176 O197 2.492 . S
Nd176 O198 2.487 . S
Nd176 O199 2.682 . S
Nd176 O200 2.410 . S
Nd176 O205 2.414 . S
Nd176 O207 2.424 . S
Nd177 C187 2.836 . S
Nd177 O199 2.414 . S
Nd177 O201 2.424 . S
Nd177 O202 2.500 . S
Nd177 O203 2.492 . S
Nd177 O204 2.487 . S
Nd177 O205 2.682 . S
Nd177 O206 2.410 . S
C178 Nd176 2.836 . S
C178 C179 1.498 . S
C178 O196 1.258 . S
C178 O197 1.239 . S
C179 C178 1.498 . S
C179 C180 1.366 . S
C179 C184 1.407 . S
C180 C179 1.366 . S
C180 C181 1.392 . S
C180 H208 0.930 . S
C181 C180 1.392 . S
C181 C182 1.398 . S
C181 H209 0.929 . S
C182 C181 1.398 . S
C182 C183 1.352 . S
C183 C182 1.352 . S
C183 C184 1.384 . S
C183 H210 0.930 . S
C184 C179 1.407 . S
C184 C183 1.384 . S
C184 H211 0.929 . S
C185 O198 1.241 . S
C185 O199 1.273 . S
C186 O200 1.251 . S
C186 O201 1.268 . S
C187 Nd177 2.836 . S
C187 C188 1.498 . S
C187 O202 1.258 . S
C187 O203 1.239 . S
C188 C187 1.498 . S
C188 C189 1.366 . S
C188 C193 1.407 . S
C189 C188 1.366 . S
C189 C190 1.392 . S
C189 H212 0.930 . S
C190 C189 1.392 . S
C190 C191 1.398 . S
C190 H213 0.929 . S
C191 C190 1.398 . S
C191 C192 1.352 . S
C192 C191 1.352 . S
C192 C193 1.384 . S
C192 H214 0.930 . S
C193 C188 1.407 . S
C193 C192 1.384 . S
C193 H215 0.929 . S
C194 O204 1.241 . S
C194 O205 1.273 . S
C195 O206 1.251 . S
C195 O207 1.268 . S
O196 Nd176 2.500 . S
O196 C178 1.258 . S
O197 Nd176 2.492 . S
O197 C178 1.239 . S
O198 Nd176 2.487 . S
O198 C185 1.241 . S
O199 Nd176 2.682 . S
O199 Nd177 2.414 . S
O199 C185 1.273 . S
O200 Nd176 2.410 . S
O200 C186 1.251 . S
O201 Nd177 2.424 . S
O201 C186 1.268 . S
O202 Nd177 2.500 . S
O202 C187 1.258 . S
O203 Nd177 2.492 . S
O203 C187 1.239 . S
O204 Nd177 2.487 . S
O204 C194 1.241 . S
O205 Nd176 2.414 . S
O205 Nd177 2.682 . S
O205 C194 1.273 . S
O206 Nd177 2.410 . S
O206 C195 1.251 . S
O207 Nd176 2.424 . S
O207 C195 1.268 . S
H208 C180 0.930 . S
H209 C181 0.929 . S
H210 C183 0.930 . S
H211 C184 0.929 . S
H212 C189 0.930 . S
H213 C190 0.929 . S
H214 C192 0.930 . S
H215 C193 0.929 . S
Nd216 C218 2.841 . S
Nd216 O236 2.507 . S
Nd216 O237 2.494 . S
Nd216 O238 2.479 1_655 S
Nd216 O239 2.675 1_655 S
Nd216 O240 2.410 1_655 S
Nd216 O245 2.417 1_554 S
Nd216 O247 2.421 1_655 S
Nd217 C227 2.836 . S
Nd217 O239 2.414 1_556 S
Nd217 O241 2.424 . S
Nd217 O242 2.500 . S
Nd217 O243 2.492 . S
Nd217 O244 2.487 1_455 S
Nd217 O245 2.682 1_455 S
Nd217 O246 2.410 . S
C218 Nd216 2.841 . S
C218 C219 1.498 . S
C218 O236 1.258 . S
C218 O237 1.239 . S
C219 C218 1.498 . S
C219 C220 1.366 . S
C219 C224 1.407 . S
C220 C219 1.366 . S
C220 C221 1.392 . S
C220 H248 0.930 . S
C221 C220 1.392 . S
C221 C222 1.398 . S
C221 H249 0.929 . S
C222 C221 1.398 . S
C222 C223 1.352 . S
C223 C222 1.352 . S
C223 C224 1.384 . S
C223 H250 0.930 . S
C224 C219 1.407 . S
C224 C223 1.384 . S
C224 H251 0.929 . S
C225 O238 1.241 . S
C225 O239 1.273 . S
C226 O240 1.251 1_556 S
C226 O241 1.268 . S
C227 Nd217 2.836 . S
C227 C228 1.498 . S
C227 O242 1.258 . S
C227 O243 1.239 . S
C228 C227 1.498 . S
C228 C229 1.366 . S
C228 C233 1.407 . S
C229 C228 1.366 . S
C229 C230 1.392 . S
C229 H252 0.930 . S
C230 C229 1.392 . S
C230 C231 1.398 . S
C230 H253 0.929 . S
C231 C230 1.398 . S
C231 C232 1.352 . S
C232 C231 1.352 . S
C232 C233 1.384 . S
C232 H254 0.930 . S
C233 C228 1.407 . S
C233 C232 1.384 . S
C233 H255 0.929 . S
C234 O244 1.241 . S
C234 O245 1.273 . S
C235 O246 1.251 1_554 S
C235 O247 1.268 . S
O236 Nd216 2.507 . S
O236 C218 1.258 . S
O237 Nd216 2.494 . S
O237 C218 1.239 . S
O238 Nd216 2.479 1_455 S
O238 C225 1.241 . S
O239 Nd216 2.675 1_455 S
O239 Nd217 2.414 1_554 S
O239 C225 1.273 . S
O240 Nd216 2.410 1_455 S
O240 C226 1.251 1_554 S
O241 Nd217 2.424 . S
O241 C226 1.268 . S
O242 Nd217 2.500 . S
O242 C227 1.258 . S
O243 Nd217 2.492 . S
O243 C227 1.239 . S
O244 Nd217 2.487 1_655 S
O244 C234 1.241 . S
O245 Nd216 2.417 1_556 S
O245 Nd217 2.682 1_655 S
O245 C234 1.273 . S
O246 Nd217 2.410 . S
O246 C235 1.251 1_556 S
O247 Nd216 2.421 1_455 S
O247 C235 1.268 . S
H248 C220 0.930 . S
H249 C221 0.929 . S
H250 C223 0.930 . S
H251 C224 0.929 . S
H252 C229 0.930 . S
H253 C230 0.929 . S
H254 C232 0.930 . S
H255 C233 0.929 . S
H256 C262 0.930 . S
H257 C266 0.930 . S
H258 C271 0.929 . S
H259 C269 0.929 . S
H260 C264 0.929 . S
H261 C270 0.929 . S
C262 H256 0.930 . S
C262 C263 1.367 . S
C262 C270 1.378 . S
C263 C262 1.367 . S
C263 C271 1.433 . S
C264 H260 0.929 . S
C264 C266 1.378 . S
C264 C268 1.350 . S
C265 C268 1.463 . S
C265 C270 1.350 . S
C265 N273 1.427 . S
C266 H257 0.930 . S
C266 C264 1.378 . S
C266 C267 1.367 . S
C267 C266 1.367 . S
C267 C269 1.433 . S
C268 C264 1.350 . S
C268 C265 1.463 . S
C268 N272 1.427 . S
C269 H259 0.929 . S
C269 C267 1.433 . S
C269 N272 1.384 . S
C270 H261 0.929 . S
C270 C262 1.378 . S
C270 C265 1.350 . S
C271 H258 0.929 . S
C271 C263 1.433 . S
C271 N273 1.384 . S
N272 C268 1.427 . S
N272 C269 1.384 . S
N273 C265 1.427 . S
N273 C271 1.384 . S
H274 C280 0.930 . S
H275 C284 0.930 . S
H276 C289 0.929 . S
H277 C287 0.929 . S
H278 C282 0.929 . S
H279 C288 0.929 . S
C280 H274 0.930 . S
C280 C281 1.367 . S
C280 C288 1.378 . S
C281 C280 1.367 . S
C281 C289 1.433 . S
C282 H278 0.929 . S
C282 C284 1.378 . S
C282 C286 1.350 . S
C283 C286 1.463 . S
C283 C288 1.350 . S
C283 N291 1.427 . S
C284 H275 0.930 . S
C284 C282 1.378 . S
C284 C285 1.367 . S
C285 C284 1.367 . S
C285 C287 1.433 . S
C286 C282 1.350 . S
C286 C283 1.463 . S
C286 N290 1.427 . S
C287 H277 0.929 . S
C287 C285 1.433 . S
C287 N290 1.384 . S
C288 H279 0.929 . S
C288 C280 1.378 . S
C288 C283 1.350 . S
C289 H276 0.929 . S
C289 C281 1.433 . S
C289 N291 1.384 . S
N290 C286 1.427 . S
N290 C287 1.384 . S
N291 C283 1.427 . S
N291 C289 1.384 . S
H292 C298 0.930 . S
H293 C302 0.930 . S
H294 C307 0.929 . S
H295 C305 0.929 . S
H296 C300 0.929 . S
H297 C306 0.929 . S
C298 H292 0.930 . S
C298 C299 1.367 . S
C298 C306 1.378 . S
C299 C298 1.367 . S
C299 C307 1.433 . S
C300 H296 0.929 . S
C300 C302 1.378 . S
C300 C304 1.350 . S
C301 C304 1.463 . S
C301 C306 1.350 . S
C301 N309 1.427 . S
C302 H293 0.930 . S
C302 C300 1.378 . S
C302 C303 1.367 . S
C303 C302 1.367 . S
C303 C305 1.433 . S
C304 C300 1.350 . S
C304 C301 1.463 . S
C304 N308 1.427 . S
C305 H295 0.929 . S
C305 C303 1.433 . S
C305 N308 1.384 . S
C306 H297 0.929 . S
C306 C298 1.378 . S
C306 C301 1.350 . S
C307 H294 0.929 . S
C307 C299 1.433 . S
C307 N309 1.384 . S
N308 C304 1.427 . S
N308 C305 1.384 . S
N309 C301 1.427 . S
N309 C307 1.384 . S
H310 C316 0.930 . S
H311 C320 0.930 . S
H312 C325 0.929 . S
H313 C323 0.929 . S
H314 C318 0.929 . S
H315 C324 0.929 . S
C316 H310 0.930 . S
C316 C317 1.367 . S
C316 C324 1.378 . S
C317 C316 1.367 . S
C317 C325 1.433 . S
C318 H314 0.929 . S
C318 C320 1.378 . S
C318 C322 1.350 . S
C319 C322 1.463 . S
C319 C324 1.350 . S
C319 N327 1.427 . S
C320 H311 0.930 . S
C320 C318 1.378 . S
C320 C321 1.367 . S
C321 C320 1.367 . S
C321 C323 1.433 . S
C322 C318 1.350 . S
C322 C319 1.463 . S
C322 N326 1.427 . S
C323 H313 0.929 . S
C323 C321 1.433 . S
C323 N326 1.384 . S
C324 H315 0.929 . S
C324 C316 1.378 . S
C324 C319 1.350 . S
C325 H312 0.929 . S
C325 C317 1.433 . S
C325 N327 1.384 . S
N326 C322 1.427 . S
N326 C323 1.384 . S
N327 C319 1.427 . S
N327 C325 1.384 . S
H328 C334 0.930 . S
H329 C338 0.930 . S
H330 C343 0.929 . S
H331 C341 0.929 . S
H332 C336 0.929 . S
H333 C342 0.929 . S
C334 H328 0.930 . S
C334 C335 1.367 . S
C334 C342 1.378 . S
C335 C334 1.367 . S
C335 C343 1.433 . S
C336 H332 0.929 . S
C336 C338 1.378 . S
C336 C340 1.350 . S
C337 C340 1.463 . S
C337 C342 1.350 . S
C337 N345 1.427 . S
C338 H329 0.930 . S
C338 C336 1.378 . S
C338 C339 1.367 . S
C339 C338 1.367 . S
C339 C341 1.433 . S
C340 C336 1.350 . S
C340 C337 1.463 . S
C340 N344 1.427 . S
C341 H331 0.929 . S
C341 C339 1.433 . S
C341 N344 1.384 . S
C342 H333 0.929 . S
C342 C334 1.378 . S
C342 C337 1.350 . S
C343 H330 0.929 . S
C343 C335 1.433 . S
C343 N345 1.384 . S
N344 C340 1.427 . S
N344 C341 1.384 . S
N345 C337 1.427 . S
N345 C343 1.384 . S
H346 C352 0.930 . S
H347 C356 0.930 . S
H348 C361 0.929 . S
H349 C359 0.929 . S
H350 C354 0.929 . S
H351 C360 0.929 . S
C352 H346 0.930 . S
C352 C353 1.367 . S
C352 C360 1.378 . S
C353 C352 1.367 . S
C353 C361 1.433 . S
C354 H350 0.929 . S
C354 C356 1.378 . S
C354 C358 1.350 . S
C355 C358 1.463 . S
C355 C360 1.350 . S
C355 N363 1.427 . S
C356 H347 0.930 . S
C356 C354 1.378 . S
C356 C357 1.367 . S
C357 C356 1.367 . S
C357 C359 1.433 . S
C358 C354 1.350 . S
C358 C355 1.463 . S
C358 N362 1.427 . S
C359 H349 0.929 . S
C359 C357 1.433 . S
C359 N362 1.384 . S
C360 H351 0.929 . S
C360 C352 1.378 . S
C360 C355 1.350 . S
C361 H348 0.929 . S
C361 C353 1.433 . S
C361 N363 1.384 . S
N362 C358 1.427 . S
N362 C359 1.384 . S
N363 C355 1.427 . S
N363 C361 1.384 . S
H364 C370 0.930 . S
H365 C374 0.930 . S
H366 C379 0.929 . S
H367 C377 0.929 . S
H368 C372 0.929 . S
H369 C378 0.929 . S
C370 H364 0.930 . S
C370 C371 1.367 . S
C370 C378 1.378 . S
C371 C370 1.367 . S
C371 C379 1.433 . S
C372 H368 0.929 . S
C372 C374 1.378 . S
C372 C376 1.350 . S
C373 C376 1.463 . S
C373 C378 1.350 . S
C373 N381 1.427 . S
C374 H365 0.930 . S
C374 C372 1.378 . S
C374 C375 1.367 . S
C375 C374 1.367 . S
C375 C377 1.433 . S
C376 C372 1.350 . S
C376 C373 1.463 . S
C376 N380 1.427 . S
C377 H367 0.929 . S
C377 C375 1.433 . S
C377 N380 1.384 . S
C378 H369 0.929 . S
C378 C370 1.378 . S
C378 C373 1.350 . S
C379 H366 0.929 . S
C379 C371 1.433 . S
C379 N381 1.384 . S
N380 C376 1.427 . S
N380 C377 1.384 . S
N381 C373 1.427 . S
N381 C379 1.384 . S
H382 C388 0.930 . S
H383 C392 0.930 . S
H384 C397 0.929 . S
H385 C395 0.929 . S
H386 C390 0.929 . S
H387 C396 0.929 . S
C388 H382 0.930 . S
C388 C389 1.367 . S
C388 C396 1.378 . S
C389 C388 1.367 . S
C389 C397 1.433 . S
C390 H386 0.929 . S
C390 C392 1.378 . S
C390 C394 1.350 . S
C391 C394 1.463 . S
C391 C396 1.350 . S
C391 N399 1.427 . S
C392 H383 0.930 . S
C392 C390 1.378 . S
C392 C393 1.367 . S
C393 C392 1.367 . S
C393 C395 1.433 . S
C394 C390 1.350 . S
C394 C391 1.463 . S
C394 N398 1.427 . S
C395 H385 0.929 . S
C395 C393 1.433 . S
C395 N398 1.384 . S
C396 H387 0.929 . S
C396 C388 1.378 . S
C396 C391 1.350 . S
C397 H384 0.929 . S
C397 C389 1.433 . S
C397 N399 1.384 . S
N398 C394 1.427 . S
N398 C395 1.384 . S
N399 C391 1.427 . S
N399 C397 1.384 . S
H400 C406 0.930 . S
H401 C410 0.930 . S
H402 C415 0.929 . S
H403 C413 0.929 . S
H404 C408 0.929 . S
H405 C414 0.929 . S
C406 H400 0.930 . S
C406 C407 1.367 . S
C406 C414 1.378 . S
C407 C406 1.367 . S
C407 C415 1.433 . S
C408 H404 0.929 . S
C408 C410 1.378 . S
C408 C412 1.350 . S
C409 C412 1.463 . S
C409 C414 1.350 . S
C409 N417 1.427 . S
C410 H401 0.930 . S
C410 C408 1.378 . S
C410 C411 1.367 . S
C411 C410 1.367 . S
C411 C413 1.433 . S
C412 C408 1.350 . S
C412 C409 1.463 . S
C412 N416 1.427 . S
C413 H403 0.929 . S
C413 C411 1.433 . S
C413 N416 1.384 . S
C414 H405 0.929 . S
C414 C406 1.378 . S
C414 C409 1.350 . S
C415 H402 0.929 . S
C415 C407 1.433 . S
C415 N417 1.384 . S
N416 C412 1.427 . S
N416 C413 1.384 . S
N417 C409 1.427 . S
N417 C415 1.384 . S
H418 C424 0.930 . S
H419 C428 0.930 . S
H420 C433 0.929 . S
H421 C431 0.929 . S
H422 C426 0.929 . S
H423 C432 0.929 . S
C424 H418 0.930 . S
C424 C425 1.367 . S
C424 C432 1.378 . S
C425 C424 1.367 . S
C425 C433 1.433 . S
C426 H422 0.929 . S
C426 C428 1.378 . S
C426 C430 1.350 . S
C427 C430 1.463 . S
C427 C432 1.350 . S
C427 N435 1.427 . S
C428 H419 0.930 . S
C428 C426 1.378 . S
C428 C429 1.367 . S
C429 C428 1.367 . S
C429 C431 1.433 . S
C430 C426 1.350 . S
C430 C427 1.463 . S
C430 N434 1.427 . S
C431 H421 0.929 . S
C431 C429 1.433 . S
C431 N434 1.384 . S
C432 H423 0.929 . S
C432 C424 1.378 . S
C432 C427 1.350 . S
C433 H420 0.929 . S
C433 C425 1.433 . S
C433 N435 1.384 . S
N434 C430 1.427 . S
N434 C431 1.384 . S
N435 C427 1.427 . S
N435 C433 1.384 . S
H436 C442 0.930 . S
H437 C446 0.930 . S
H438 C451 0.929 . S
H439 C449 0.929 . S
H440 C444 0.929 . S
H441 C450 0.929 . S
C442 H436 0.930 . S
C442 C443 1.367 . S
C442 C450 1.378 . S
C443 C442 1.367 . S
C443 C451 1.433 . S
C444 H440 0.929 . S
C444 C446 1.378 . S
C444 C448 1.350 . S
C445 C448 1.463 . S
C445 C450 1.350 . S
C445 N453 1.427 . S
C446 H437 0.930 . S
C446 C444 1.378 . S
C446 C447 1.367 . S
C447 C446 1.367 . S
C447 C449 1.433 . S
C448 C444 1.350 . S
C448 C445 1.463 . S
C448 N452 1.427 . S
C449 H439 0.929 . S
C449 C447 1.433 . S
C449 N452 1.384 . S
C450 H441 0.929 . S
C450 C442 1.378 . S
C450 C445 1.350 . S
C451 H438 0.929 . S
C451 C443 1.433 . S
C451 N453 1.384 . S
N452 C448 1.427 . S
N452 C449 1.384 . S
N453 C445 1.427 . S
N453 C451 1.384 . S
H454 C460 0.930 . S
H455 C464 0.930 . S
H456 C469 0.929 . S
H457 C467 0.929 . S
H458 C462 0.929 . S
H459 C468 0.929 . S
C460 H454 0.930 . S
C460 C461 1.367 . S
C460 C468 1.378 . S
C461 C460 1.367 . S
C461 C469 1.433 . S
C462 H458 0.929 . S
C462 C464 1.378 . S
C462 C466 1.350 . S
C463 C466 1.463 . S
C463 C468 1.350 . S
C463 N471 1.427 . S
C464 H455 0.930 . S
C464 C462 1.378 . S
C464 C465 1.367 . S
C465 C464 1.367 . S
C465 C467 1.433 . S
C466 C462 1.350 . S
C466 C463 1.463 . S
C466 N470 1.427 . S
C467 H457 0.929 . S
C467 C465 1.433 . S
C467 N470 1.384 . S
C468 H459 0.929 . S
C468 C460 1.378 . S
C468 C463 1.350 . S
C469 H456 0.929 . S
C469 C461 1.433 . S
C469 N471 1.384 . S
N470 C466 1.427 . S
N470 C467 1.384 . S
N471 C463 1.427 . S
N471 C469 1.384 . S
H472 C478 0.930 . S
H473 C482 0.930 . S
H474 C487 0.929 . S
H475 C485 0.929 . S
H476 C480 0.929 . S
H477 C486 0.929 . S
C478 H472 0.930 . S
C478 C479 1.367 . S
C478 C486 1.378 . S
C479 C478 1.367 . S
C479 C487 1.433 . S
C480 H476 0.929 . S
C480 C482 1.378 . S
C480 C484 1.350 . S
C481 C484 1.463 . S
C481 C486 1.350 . S
C481 N489 1.427 . S
C482 H473 0.930 . S
C482 C480 1.378 . S
C482 C483 1.367 . S
C483 C482 1.367 . S
C483 C485 1.433 . S
C484 C480 1.350 . S
C484 C481 1.463 . S
C484 N488 1.427 . S
C485 H475 0.929 . S
C485 C483 1.433 . S
C485 N488 1.384 . S
C486 H477 0.929 . S
C486 C478 1.378 . S
C486 C481 1.350 . S
C487 H474 0.929 . S
C487 C479 1.433 . S
C487 N489 1.384 . S
N488 C484 1.427 . S
N488 C485 1.384 . S
N489 C481 1.427 . S
N489 C487 1.384 . S
H490 C496 0.930 . S
H491 C500 0.930 . S
H492 C505 0.929 . S
H493 C503 0.929 . S
H494 C498 0.929 . S
H495 C504 0.929 . S
C496 H490 0.930 . S
C496 C497 1.367 . S
C496 C504 1.378 . S
C497 C496 1.367 . S
C497 C505 1.433 . S
C498 H494 0.929 . S
C498 C500 1.378 . S
C498 C502 1.350 . S
C499 C502 1.463 . S
C499 C504 1.350 . S
C499 N507 1.427 . S
C500 H491 0.930 . S
C500 C498 1.378 . S
C500 C501 1.367 . S
C501 C500 1.367 . S
C501 C503 1.433 . S
C502 C498 1.350 . S
C502 C499 1.463 . S
C502 N506 1.427 . S
C503 H493 0.929 . S
C503 C501 1.433 . S
C503 N506 1.384 . S
C504 H495 0.929 . S
C504 C496 1.378 . S
C504 C499 1.350 . S
C505 H492 0.929 . S
C505 C497 1.433 . S
C505 N507 1.384 . S
N506 C502 1.427 . S
N506 C503 1.384 . S
N507 C499 1.427 . S
N507 C505 1.384 . S
H508 C514 0.930 . S
H509 C518 0.930 . S
H510 C523 0.929 . S
H511 C521 0.929 . S
H512 C516 0.929 . S
H513 C522 0.929 . S
C514 H508 0.930 . S
C514 C515 1.367 . S
C514 C522 1.378 . S
C515 C514 1.367 . S
C515 C523 1.433 . S
C516 H512 0.929 . S
C516 C518 1.378 . S
C516 C520 1.350 . S
C517 C520 1.463 . S
C517 C522 1.350 . S
C517 N525 1.427 . S
C518 H509 0.930 . S
C518 C516 1.378 . S
C518 C519 1.367 . S
C519 C518 1.367 . S
C519 C521 1.433 . S
C520 C516 1.350 . S
C520 C517 1.463 . S
C520 N524 1.427 . S
C521 H511 0.929 . S
C521 C519 1.433 . S
C521 N524 1.384 . S
C522 H513 0.929 . S
C522 C514 1.378 . S
C522 C517 1.350 . S
C523 H510 0.929 . S
C523 C515 1.433 . S
C523 N525 1.384 . S
N524 C520 1.427 . S
N524 C521 1.384 . S
N525 C517 1.427 . S
N525 C523 1.384 . S
H526 C532 0.930 . S
H527 C536 0.930 . S
H528 C541 0.929 . S
H529 C539 0.929 . S
H530 C534 0.929 . S
H531 C540 0.929 . S
C532 H526 0.930 . S
C532 C533 1.367 . S
C532 C540 1.378 . S
C533 C532 1.367 . S
C533 C541 1.433 . S
C534 H530 0.929 . S
C534 C536 1.378 . S
C534 C538 1.350 . S
C535 C538 1.463 . S
C535 C540 1.350 . S
C535 N543 1.427 . S
C536 H527 0.930 . S
C536 C534 1.378 . S
C536 C537 1.367 . S
C537 C536 1.367 . S
C537 C539 1.433 . S
C538 C534 1.350 . S
C538 C535 1.463 . S
C538 N542 1.427 . S
C539 H529 0.929 . S
C539 C537 1.433 . S
C539 N542 1.384 . S
C540 H531 0.929 . S
C540 C532 1.378 . S
C540 C535 1.350 . S
C541 H528 0.929 . S
C541 C533 1.433 . S
C541 N543 1.384 . S
N542 C538 1.427 . S
N542 C539 1.384 . S
N543 C535 1.427 . S
N543 C541 1.384 . S
H544 C550 0.930 . S
H545 C554 0.930 . S
H546 C559 0.929 . S
H547 C557 0.930 . S
H548 C552 0.929 . S
H549 C558 0.929 . S
C550 H544 0.930 . S
C550 C551 1.367 . S
C550 C558 1.378 . S
C551 C550 1.367 . S
C551 C559 1.433 . S
C552 H548 0.929 . S
C552 C554 1.378 . S
C552 C556 1.350 . S
C553 C556 1.463 . S
C553 C558 1.350 . S
C553 N561 1.427 . S
C554 H545 0.930 . S
C554 C552 1.378 . S
C554 C555 1.367 . S
C555 C554 1.367 . S
C555 C557 1.433 . S
C556 C552 1.350 . S
C556 C553 1.463 . S
C556 N560 1.427 . S
C557 H547 0.930 . S
C557 C555 1.433 . S
C557 N560 1.384 . S
C558 H549 0.929 . S
C558 C550 1.378 . S
C558 C553 1.350 . S
C559 H546 0.929 . S
C559 C551 1.433 . S
C559 N561 1.384 . S
N560 C556 1.427 . S
N560 C557 1.384 . S
N561 C553 1.427 . S
N561 C559 1.384 . S
H562 C568 0.930 . S
H563 C572 0.930 . S
H564 C577 0.929 . S
H565 C575 0.929 . S
H566 C570 0.929 . S
H567 C576 0.929 . S
C568 H562 0.930 . S
C568 C569 1.367 . S
C568 C576 1.378 . S
C569 C568 1.367 . S
C569 C577 1.433 . S
C570 H566 0.929 . S
C570 C572 1.378 . S
C570 C574 1.350 . S
C571 C574 1.463 . S
C571 C576 1.350 . S
C571 N579 1.427 . S
C572 H563 0.930 . S
C572 C570 1.378 . S
C572 C573 1.367 . S
C573 C572 1.367 . S
C573 C575 1.433 . S
C574 C570 1.350 . S
C574 C571 1.463 . S
C574 N578 1.427 . S
C575 H565 0.929 . S
C575 C573 1.433 . S
C575 N578 1.384 . S
C576 H567 0.929 . S
C576 C568 1.378 . S
C576 C571 1.350 . S
C577 H564 0.929 . S
C577 C569 1.433 . S
C577 N579 1.384 . S
N578 C574 1.427 . S
N578 C575 1.384 . S
N579 C571 1.427 . S
N579 C577 1.384 . S
H580 C586 0.930 . S
H581 C590 0.930 . S
H582 C595 0.929 . S
H583 C593 0.929 . S
H584 C588 0.929 . S
H585 C594 0.929 . S
C586 H580 0.930 . S
C586 C587 1.367 . S
C586 C594 1.378 . S
C587 C586 1.367 . S
C587 C595 1.433 . S
C588 H584 0.929 . S
C588 C590 1.378 . S
C588 C592 1.350 . S
C589 C592 1.463 . S
C589 C594 1.350 . S
C589 N597 1.427 . S
C590 H581 0.930 . S
C590 C588 1.378 . S
C590 C591 1.367 . S
C591 C590 1.367 . S
C591 C593 1.433 . S
C592 C588 1.350 . S
C592 C589 1.463 . S
C592 N596 1.427 . S
C593 H583 0.929 . S
C593 C591 1.433 . S
C593 N596 1.384 . S
C594 H585 0.929 . S
C594 C586 1.378 . S
C594 C589 1.350 . S
C595 H582 0.929 . S
C595 C587 1.433 . S
C595 N597 1.384 . S
N596 C592 1.427 . S
N596 C593 1.384 . S
N597 C589 1.427 . S
N597 C595 1.384 . S
H598 C604 0.930 . S
H599 C608 0.930 . S
H600 C613 0.929 . S
H601 C611 0.929 . S
H602 C606 0.929 . S
H603 C612 0.929 . S
C604 H598 0.930 . S
C604 C605 1.367 . S
C604 C612 1.378 . S
C605 C604 1.367 . S
C605 C613 1.433 . S
C606 H602 0.929 . S
C606 C608 1.378 . S
C606 C610 1.350 . S
C607 C610 1.463 . S
C607 C612 1.350 . S
C607 N615 1.427 . S
C608 H599 0.930 . S
C608 C606 1.378 . S
C608 C609 1.367 . S
C609 C608 1.367 . S
C609 C611 1.433 . S
C610 C606 1.350 . S
C610 C607 1.463 . S
C610 N614 1.427 . S
C611 H601 0.929 . S
C611 C609 1.433 . S
C611 N614 1.384 . S
C612 H603 0.929 . S
C612 C604 1.378 . S
C612 C607 1.350 . S
C613 H600 0.929 . S
C613 C605 1.433 . S
C613 N615 1.384 . S
N614 C610 1.427 . S
N614 C611 1.384 . S
N615 C607 1.427 . S
N615 C613 1.384 . S
H616 C622 0.930 . S
H617 C626 0.930 . S
H618 C631 0.929 . S
H619 C629 0.929 1_454 S
H620 C624 0.929 . S
H621 C630 0.929 . S
C622 H616 0.930 . S
C622 C623 1.367 . S
C622 C630 1.378 . S
C623 C622 1.367 . S
C623 C631 1.433 . S
C624 H620 0.929 . S
C624 C626 1.378 . S
C624 C628 1.350 . S
C625 C628 1.463 . S
C625 C630 1.350 . S
C625 N633 1.427 . S
C626 H617 0.930 . S
C626 C624 1.378 . S
C626 C627 1.367 . S
C627 C626 1.367 . S
C627 C629 1.433 . S
C628 C624 1.350 . S
C628 C625 1.463 . S
C628 N632 1.427 . S
C629 H619 0.929 1_656 S
C629 C627 1.433 . S
C629 N632 1.384 . S
C630 H621 0.929 . S
C630 C622 1.378 . S
C630 C625 1.350 . S
C631 H618 0.929 . S
C631 C623 1.433 . S
C631 N633 1.384 . S
N632 C628 1.427 . S
N632 C629 1.384 . S
N633 C625 1.427 . S
N633 C631 1.384 . S
H634 C640 0.930 . S
H635 C644 0.930 . S
H636 C649 0.929 . S
H637 C647 0.929 . S
H638 C642 0.929 . S
H639 C648 0.929 . S
C640 H634 0.930 . S
C640 C641 1.367 . S
C640 C648 1.378 . S
C641 C640 1.367 . S
C641 C649 1.433 . S
C642 H638 0.929 . S
C642 C644 1.378 . S
C642 C646 1.350 . S
C643 C646 1.463 . S
C643 C648 1.350 . S
C643 N651 1.427 . S
C644 H635 0.930 . S
C644 C642 1.378 . S
C644 C645 1.367 . S
C645 C644 1.367 . S
C645 C647 1.433 . S
C646 C642 1.350 . S
C646 C643 1.463 . S
C646 N650 1.427 . S
C647 H637 0.929 . S
C647 C645 1.433 . S
C647 N650 1.384 . S
C648 H639 0.929 . S
C648 C640 1.378 . S
C648 C643 1.350 . S
C649 H636 0.929 . S
C649 C641 1.433 . S
C649 N651 1.384 . S
N650 C646 1.427 . S
N650 C647 1.384 . S
N651 C643 1.427 . S
N651 C649 1.384 . S
H652 C658 0.930 . S
H653 C662 0.930 . S
H654 C667 0.929 . S
H655 C665 0.929 . S
H656 C660 0.929 . S
H657 C666 0.929 . S
C658 H652 0.930 . S
C658 C659 1.367 . S
C658 C666 1.378 . S
C659 C658 1.367 . S
C659 C667 1.433 . S
C660 H656 0.929 . S
C660 C662 1.378 . S
C660 C664 1.350 . S
C661 C664 1.463 . S
C661 C666 1.350 . S
C661 N669 1.427 . S
C662 H653 0.930 . S
C662 C660 1.378 . S
C662 C663 1.367 . S
C663 C662 1.367 . S
C663 C665 1.433 . S
C664 C660 1.350 . S
C664 C661 1.463 . S
C664 N668 1.427 . S
C665 H655 0.929 . S
C665 C663 1.433 . S
C665 N668 1.384 . S
C666 H657 0.929 . S
C666 C658 1.378 . S
C666 C661 1.350 . S
C667 H654 0.929 . S
C667 C659 1.433 . S
C667 N669 1.384 . S
N668 C664 1.427 . S
N668 C665 1.384 . S
N669 C661 1.427 . S
N669 C667 1.384 . S
H670 C676 0.930 . S
H671 C680 0.930 . S
H672 C685 0.929 . S
H673 C683 0.929 . S
H674 C678 0.929 . S
H675 C684 0.929 . S
C676 H670 0.930 . S
C676 C677 1.367 . S
C676 C684 1.378 . S
C677 C676 1.367 . S
C677 C685 1.433 . S
C678 H674 0.929 . S
C678 C680 1.378 . S
C678 C682 1.350 . S
C679 C682 1.463 . S
C679 C684 1.350 . S
C679 N687 1.427 . S
C680 H671 0.930 . S
C680 C678 1.378 . S
C680 C681 1.367 . S
C681 C680 1.367 . S
C681 C683 1.433 . S
C682 C678 1.350 . S
C682 C679 1.463 . S
C682 N686 1.427 . S
C683 H673 0.929 . S
C683 C681 1.433 . S
C683 N686 1.384 . S
C684 H675 0.929 . S
C684 C676 1.378 . S
C684 C679 1.350 . S
C685 H672 0.929 . S
C685 C677 1.433 . S
C685 N687 1.384 . S
N686 C682 1.427 . S
N686 C683 1.384 . S
N687 C679 1.427 . S
N687 C685 1.384 . S
C263 C6 3.039 . S
C267 C115 3.004 . S
C281 C18 2.379 . S
C285 C146 2.432 . S
C303 C185 1.369 . S
C299 C28 1.391 . S
C317 C40 0.284 . S
C321 C222 0.345 . S
C339 C145 3.082 . S
C335 C9 3.171 . S
C357 C102 1.325 . S
C353 C16 1.312 . S
C375 C234 1.440 . S
C371 C30 1.496 . S
C393 C191 0.941 . S
C389 C42 0.935 . S
C407 C4 2.375 . S
C411 C235 2.372 . S
C429 C151 1.413 . S
C425 C33 1.422 . S
C443 C45 0.254 . S
C447 C114 0.495 . S
C461 C21 2.500 . S
C465 C186 2.489 . S
C483 C106 3.035 . S
C479 C57 3.082 . S
C497 C66 2.295 . S
C501 C155 2.392 . S
C515 C76 1.416 . S
C519 C194 1.377 . S
C533 C88 0.427 . S
C537 C231 0.342 . S
C551 C54 3.127 . S
C555 C154 3.017 . S
C573 C111 1.366 . S
C569 C64 1.371 . S
C591 C225 1.280 . S
C587 C78 1.329 . S
C609 C182 0.984 . S
C605 C93 0.992 . S
C623 C52 2.272 . S
C627 C226 2.292 1_655 S
C645 C142 1.417 . S
C641 C81 1.426 . S
C663 C105 0.507 . S
C659 C90 0.322 . S
C677 C69 2.528 . S
C681 C195 2.537 . S
