# Generated by pormake.
# Topology eea, (3,6)-cn, num edge types: 1
# Building blocks:
#     Node 0, Type 0, BuildingBlock: PAMTOO_clean_linker_0, # of connection points: 3
#     Node 1, Type 0, BuildingBlock: PAMTOO_clean_linker_0, # of connection points: 3
#     Node 2, Type 0, BuildingBlock: PAMTOO_clean_linker_0, # of connection points: 3
#     Node 3, Type 0, BuildingBlock: PAMTOO_clean_linker_0, # of connection points: 3
#     Node 4, Type 0, BuildingBlock: PAMTOO_clean_linker_0, # of connection points: 3
#     Node 5, Type 0, BuildingBlock: PAMTOO_clean_linker_0, # of connection points: 3
#     Node 6, Type 0, BuildingBlock: PAMTOO_clean_linker_0, # of connection points: 3
#     Node 7, Type 0, BuildingBlock: PAMTOO_clean_linker_0, # of connection points: 3
#     Node 8, Type 0, BuildingBlock: PAMTOO_clean_linker_0, # of connection points: 3
#     Node 9, Type 0, BuildingBlock: PAMTOO_clean_linker_0, # of connection points: 3
#     Node 10, Type 0, BuildingBlock: PAMTOO_clean_linker_0, # of connection points: 3
#     Node 11, Type 0, BuildingBlock: PAMTOO_clean_linker_0, # of connection points: 3
#     Node 12, Type 0, BuildingBlock: PAMTOO_clean_linker_0, # of connection points: 3
#     Node 13, Type 0, BuildingBlock: PAMTOO_clean_linker_0, # of connection points: 3
#     Node 14, Type 0, BuildingBlock: PAMTOO_clean_linker_0, # of connection points: 3
#     Node 15, Type 0, BuildingBlock: PAMTOO_clean_linker_0, # of connection points: 3
#     Node 16, Type 0, BuildingBlock: PAMTOO_clean_linker_0, # of connection points: 3
#     Node 17, Type 0, BuildingBlock: PAMTOO_clean_linker_0, # of connection points: 3
#     Node 18, Type 1, BuildingBlock: KUMBOL_clean_sbu_0, # of connection points: 6
#     Node 19, Type 1, BuildingBlock: KUMBOL_clean_sbu_0, # of connection points: 6
#     Node 20, Type 1, BuildingBlock: KUMBOL_clean_sbu_0, # of connection points: 6
#     Node 21, Type 1, BuildingBlock: KUMBOL_clean_sbu_0, # of connection points: 6
#     Node 22, Type 1, BuildingBlock: KUMBOL_clean_sbu_0, # of connection points: 6
#     Node 23, Type 1, BuildingBlock: KUMBOL_clean_sbu_0, # of connection points: 6
#     Node 24, Type 1, BuildingBlock: KUMBOL_clean_sbu_0, # of connection points: 6
#     Node 25, Type 1, BuildingBlock: KUMBOL_clean_sbu_0, # of connection points: 6
#     Node 26, Type 1, BuildingBlock: KUMBOL_clean_sbu_0, # of connection points: 6
#     Edge 27, Type (0, 1), BuildingBlock: MIFKUJ_clean_linker_0, # of connection points: 2
#     Edge 28, Type (0, 1), BuildingBlock: MIFKUJ_clean_linker_0, # of connection points: 2
#     Edge 29, Type (0, 1), BuildingBlock: MIFKUJ_clean_linker_0, # of connection points: 2
#     Edge 30, Type (0, 1), BuildingBlock: MIFKUJ_clean_linker_0, # of connection points: 2
#     Edge 31, Type (0, 1), BuildingBlock: MIFKUJ_clean_linker_0, # of connection points: 2
#     Edge 32, Type (0, 1), BuildingBlock: MIFKUJ_clean_linker_0, # of connection points: 2
#     Edge 33, Type (0, 1), BuildingBlock: MIFKUJ_clean_linker_0, # of connection points: 2
#     Edge 34, Type (0, 1), BuildingBlock: MIFKUJ_clean_linker_0, # of connection points: 2
#     Edge 35, Type (0, 1), BuildingBlock: MIFKUJ_clean_linker_0, # of connection points: 2
#     Edge 36, Type (0, 1), BuildingBlock: MIFKUJ_clean_linker_0, # of connection points: 2
#     Edge 37, Type (0, 1), BuildingBlock: MIFKUJ_clean_linker_0, # of connection points: 2
#     Edge 38, Type (0, 1), BuildingBlock: MIFKUJ_clean_linker_0, # of connection points: 2
#     Edge 39, Type (0, 1), BuildingBlock: MIFKUJ_clean_linker_0, # of connection points: 2
#     Edge 40, Type (0, 1), BuildingBlock: MIFKUJ_clean_linker_0, # of connection points: 2
#     Edge 41, Type (0, 1), BuildingBlock: MIFKUJ_clean_linker_0, # of connection points: 2
#     Edge 42, Type (0, 1), BuildingBlock: MIFKUJ_clean_linker_0, # of connection points: 2
#     Edge 43, Type (0, 1), BuildingBlock: MIFKUJ_clean_linker_0, # of connection points: 2
#     Edge 44, Type (0, 1), BuildingBlock: MIFKUJ_clean_linker_0, # of connection points: 2
#     Edge 45, Type (0, 1), BuildingBlock: MIFKUJ_clean_linker_0, # of connection points: 2
#     Edge 46, Type (0, 1), BuildingBlock: MIFKUJ_clean_linker_0, # of connection points: 2
#     Edge 47, Type (0, 1), BuildingBlock: MIFKUJ_clean_linker_0, # of connection points: 2
#     Edge 48, Type (0, 1), BuildingBlock: MIFKUJ_clean_linker_0, # of connection points: 2
#     Edge 49, Type (0, 1), BuildingBlock: MIFKUJ_clean_linker_0, # of connection points: 2
#     Edge 50, Type (0, 1), BuildingBlock: MIFKUJ_clean_linker_0, # of connection points: 2
#     Edge 51, Type (0, 1), BuildingBlock: MIFKUJ_clean_linker_0, # of connection points: 2
#     Edge 52, Type (0, 1), BuildingBlock: MIFKUJ_clean_linker_0, # of connection points: 2
#     Edge 53, Type (0, 1), BuildingBlock: MIFKUJ_clean_linker_0, # of connection points: 2
#     Edge 54, Type (0, 1), BuildingBlock: MIFKUJ_clean_linker_0, # of connection points: 2
#     Edge 55, Type (0, 1), BuildingBlock: MIFKUJ_clean_linker_0, # of connection points: 2
#     Edge 56, Type (0, 1), BuildingBlock: MIFKUJ_clean_linker_0, # of connection points: 2
#     Edge 57, Type (0, 1), BuildingBlock: MIFKUJ_clean_linker_0, # of connection points: 2
#     Edge 58, Type (0, 1), BuildingBlock: MIFKUJ_clean_linker_0, # of connection points: 2
#     Edge 59, Type (0, 1), BuildingBlock: MIFKUJ_clean_linker_0, # of connection points: 2
#     Edge 60, Type (0, 1), BuildingBlock: MIFKUJ_clean_linker_0, # of connection points: 2
#     Edge 61, Type (0, 1), BuildingBlock: MIFKUJ_clean_linker_0, # of connection points: 2
#     Edge 62, Type (0, 1), BuildingBlock: MIFKUJ_clean_linker_0, # of connection points: 2
#     Edge 63, Type (0, 1), BuildingBlock: MIFKUJ_clean_linker_0, # of connection points: 2
#     Edge 64, Type (0, 1), BuildingBlock: MIFKUJ_clean_linker_0, # of connection points: 2
#     Edge 65, Type (0, 1), BuildingBlock: MIFKUJ_clean_linker_0, # of connection points: 2
#     Edge 66, Type (0, 1), BuildingBlock: MIFKUJ_clean_linker_0, # of connection points: 2
#     Edge 67, Type (0, 1), BuildingBlock: MIFKUJ_clean_linker_0, # of connection points: 2
#     Edge 68, Type (0, 1), BuildingBlock: MIFKUJ_clean_linker_0, # of connection points: 2
#     Edge 69, Type (0, 1), BuildingBlock: MIFKUJ_clean_linker_0, # of connection points: 2
#     Edge 70, Type (0, 1), BuildingBlock: MIFKUJ_clean_linker_0, # of connection points: 2
#     Edge 71, Type (0, 1), BuildingBlock: MIFKUJ_clean_linker_0, # of connection points: 2
#     Edge 72, Type (0, 1), BuildingBlock: MIFKUJ_clean_linker_0, # of connection points: 2
#     Edge 73, Type (0, 1), BuildingBlock: MIFKUJ_clean_linker_0, # of connection points: 2
#     Edge 74, Type (0, 1), BuildingBlock: MIFKUJ_clean_linker_0, # of connection points: 2
#     Edge 75, Type (0, 1), BuildingBlock: MIFKUJ_clean_linker_0, # of connection points: 2
#     Edge 76, Type (0, 1), BuildingBlock: MIFKUJ_clean_linker_0, # of connection points: 2
#     Edge 77, Type (0, 1), BuildingBlock: MIFKUJ_clean_linker_0, # of connection points: 2
#     Edge 78, Type (0, 1), BuildingBlock: MIFKUJ_clean_linker_0, # of connection points: 2
#     Edge 79, Type (0, 1), BuildingBlock: MIFKUJ_clean_linker_0, # of connection points: 2
#     Edge 80, Type (0, 1), BuildingBlock: MIFKUJ_clean_linker_0, # of connection points: 2
# Relax obj value: 0.022
# Max RMSD: 0.153
# Mean RMSD: 0.113
data_MOF--net-eea--node1-KUMBOL_clean_sbu_0--node2-PAMTOO_clean_linker_0--edge1-MIFKUJ_clean_linker_0
_symmetry_space_group_name_H-M    P1
_symmetry_Int_Tables_number       1
_symmetry_cell_setting            triclinic
loop_
_symmetry_equiv_pos_as_xyz
'x, y, z'
_cell_length_a     71.438615
_cell_length_b     72.880616
_cell_length_c     82.540367
_cell_angle_alpha  90.196206
_cell_angle_beta   90.163968
_cell_angle_gamma 119.98062
loop_
_atom_site_label
_atom_site_type_symbol
_atom_site_fract_x
_atom_site_fract_y
_atom_site_fract_z
_atom_type_partial_charge
H0 H 0.23267 0.07625 0.4315 0.0
H1 H 0.22992 0.13407 0.43065 0.0
H2 H 0.20151 0.0888 0.39196 0.0
H3 H 0.22181 0.13158 0.38004 0.0
C4 C 0.22293 0.14013 0.39152 0.0
O5 O 0.20956 0.12584 0.40294 0.0
H6 H 0.24008 0.14807 0.39568 0.0
C7 C 0.22796 0.08665 0.42569 0.0
C8 C 0.21679 0.08041 0.41088 0.0
C9 C 0.23261 0.10587 0.43316 0.0
C10 C 0.22606 0.11892 0.42542 0.0
C11 C 0.21494 0.11277 0.41059 0.0
C12 C 0.20999 0.09338 0.40348 0.0
H13 H 0.944 0.16024 0.43281 0.0
H14 H 0.88943 0.09685 0.42938 0.0
H15 H 0.93456 0.12199 0.39032 0.0
H16 H 0.88959 0.09589 0.37869 0.0
C17 C 0.88213 0.08722 0.39009 0.0
O18 O 0.89841 0.08942 0.40041 0.0
H19 H 0.87298 0.0943 0.39564 0.0
C20 C 0.93479 0.14544 0.42625 0.0
C21 C 0.94185 0.14315 0.41085 0.0
C22 C 0.9159 0.12889 0.43317 0.0
C23 C 0.90398 0.1099 0.42436 0.0
C24 C 0.91063 0.10751 0.40895 0.0
C25 C 0.92965 0.12398 0.4023 0.0
H26 H 0.85981 0.79013 0.43418 0.0
H27 H 0.92078 0.79169 0.43165 0.0
H28 H 0.90082 0.81689 0.39255 0.0
H29 H 0.9236 0.79344 0.38204 0.0
C30 C 0.93336 0.79568 0.39317 0.0
O31 O 0.93156 0.80989 0.40332 0.0
H32 H 0.92665 0.78002 0.3992 0.0
C33 C 0.87463 0.79432 0.42776 0.0
C34 C 0.87834 0.80425 0.41258 0.0
C35 C 0.8897 0.78961 0.43479 0.0
C36 C 0.90897 0.79521 0.42648 0.0
C37 C 0.9129 0.8048 0.4112 0.0
C38 C 0.89756 0.80926 0.40426 0.0
H39 H 0.07712 0.22129 0.59418 0.0
H40 H 0.13266 0.21294 0.59668 0.0
H41 H 0.0865 0.19006 0.63514 0.0
H42 H 0.1317 0.20502 0.64795 0.0
C43 C 0.13925 0.20686 0.63586 0.0
O44 O 0.12335 0.19441 0.62472 0.0
H45 H 0.1468 0.22391 0.63258 0.0
C46 C 0.08624 0.21515 0.60033 0.0
C47 C 0.07894 0.20497 0.6154 0.0
C48 C 0.10559 0.2182 0.59336 0.0
C49 C 0.11788 0.21108 0.60182 0.0
C50 C 0.11118 0.20123 0.6169 0.0
C51 C 0.0917 0.19808 0.62362 0.0
H52 H 0.78499 0.85462 0.59397 0.0
H53 H 0.78884 0.91537 0.59864 0.0
H54 H 0.8094 0.89141 0.63787 0.0
H55 H 0.7892 0.91483 0.65001 0.0
C56 C 0.78921 0.92271 0.63849 0.0
O57 O 0.80413 0.92245 0.62805 0.0
H58 H 0.77261 0.91376 0.63322 0.0
C59 C 0.78922 0.86881 0.60094 0.0
C60 C 0.79791 0.87107 0.61664 0.0
C61 C 0.78571 0.88459 0.59425 0.0
C62 C 0.79116 0.90285 0.60349 0.0
C63 C 0.79963 0.90516 0.61913 0.0
C64 C 0.80314 0.88944 0.62563 0.0
H65 H 0.15377 0.92976 0.59414 0.0
H66 H 0.09046 0.87404 0.59512 0.0
H67 H 0.11376 0.91532 0.63641 0.0
H68 H 0.08749 0.87182 0.64688 0.0
C69 C 0.08035 0.86453 0.63494 0.0
O70 O 0.08176 0.88006 0.62461 0.0
H71 H 0.08986 0.85742 0.6301 0.0
C72 C 0.13874 0.91962 0.60032 0.0
C73 C 0.13582 0.92506 0.61612 0.0
C74 C 0.12259 0.90131 0.59244 0.0
C75 C 0.1033 0.88816 0.60082 0.0
C76 C 0.10023 0.89318 0.61663 0.0
C77 C 0.11632 0.91171 0.62416 0.0
H78 H 0.89297 0.40938 0.76855 0.0
H79 H 0.89008 0.46648 0.7619 0.0
H80 H 0.86916 0.42045 0.72369 0.0
H81 H 0.88801 0.4633 0.71026 0.0
C82 C 0.88894 0.47147 0.72189 0.0
O83 O 0.87422 0.45704 0.73262 0.0
H84 H 0.90573 0.47828 0.72669 0.0
C85 C 0.88894 0.41914 0.76109 0.0
C86 C 0.88058 0.41231 0.74538 0.0
C87 C 0.89254 0.43869 0.76717 0.0
C88 C 0.88743 0.45136 0.75745 0.0
C89 C 0.87886 0.44461 0.74191 0.0
C90 C 0.87536 0.42515 0.73591 0.0
H91 H 0.60911 0.48943 0.7647 0.0
H92 H 0.55369 0.42664 0.76106 0.0
H93 H 0.59736 0.45222 0.72119 0.0
H94 H 0.55209 0.42643 0.71026 0.0
C95 C 0.54505 0.41787 0.72176 0.0
O96 O 0.56155 0.41966 0.73162 0.0
H97 H 0.53649 0.42537 0.72763 0.0
C98 C 0.59947 0.4749 0.75792 0.0
C99 C 0.60582 0.47293 0.74215 0.0
C100 C 0.58065 0.45837 0.76493 0.0
C101 C 0.56819 0.43966 0.75595 0.0
C102 C 0.5742 0.43752 0.74025 0.0
C103 C 0.59305 0.45402 0.73343 0.0
H104 H 0.52972 0.13049 0.76626 0.0
H105 H 0.58961 0.12986 0.76266 0.0
H106 H 0.56795 0.15258 0.72294 0.0
H107 H 0.59416 0.13302 0.71141 0.0
C108 C 0.60099 0.13253 0.72341 0.0
O109 O 0.59938 0.1466 0.73383 0.0
H110 H 0.59124 0.11606 0.72806 0.0
C111 C 0.54392 0.13347 0.75946 0.0
C112 C 0.54681 0.14193 0.74377 0.0
C113 C 0.55908 0.1288 0.76644 0.0
C114 C 0.57767 0.13324 0.75756 0.0
C115 C 0.58092 0.14178 0.74191 0.0
C116 C 0.56536 0.14591 0.73498 0.0
H117 H 0.7451 0.55391 0.9267 0.0
H118 H 0.80174 0.5474 0.93004 0.0
H119 H 0.75556 0.52478 0.96852 0.0
H120 H 0.80065 0.54067 0.98143 0.0
C121 C 0.80837 0.54219 0.96945 0.0
O122 O 0.79262 0.52942 0.95832 0.0
H123 H 0.81591 0.55914 0.96586 0.0
C124 C 0.75462 0.54842 0.9331 0.0
C125 C 0.74755 0.53867 0.94833 0.0
C126 C 0.77419 0.55183 0.92631 0.0
C127 C 0.78682 0.54535 0.93507 0.0
C128 C 0.78025 0.53582 0.95028 0.0
C129 C 0.76064 0.53247 0.95686 0.0
H130 H 0.46246 0.18931 0.92142 0.0
H131 H 0.46455 0.24925 0.92458 0.0
H132 H 0.4848 0.22692 0.96517 0.0
H133 H 0.46258 0.24927 0.97542 0.0
C134 C 0.46359 0.25751 0.96386 0.0
O135 O 0.47931 0.25748 0.9542 0.0
H136 H 0.44746 0.24873 0.95783 0.0
C137 C 0.46598 0.20338 0.9283 0.0
C138 C 0.47413 0.20603 0.94421 0.0
C139 C 0.46247 0.21884 0.92108 0.0
C140 C 0.46755 0.23733 0.92981 0.0
C141 C 0.47559 0.24014 0.94563 0.0
C142 C 0.47902 0.22465 0.95277 0.0
H143 H 0.82065 0.2676 0.92615 0.0
H144 H 0.75979 0.20945 0.92958 0.0
H145 H 0.78261 0.25308 0.96957 0.0
H146 H 0.75705 0.20984 0.98107 0.0
C147 C 0.74977 0.20204 0.9693 0.0
O148 O 0.75079 0.21706 0.9586 0.0
H149 H 0.75936 0.19492 0.96465 0.0
C150 C 0.8065 0.2569 0.93306 0.0
C151 C 0.80403 0.26265 0.94887 0.0
C152 C 0.79084 0.23772 0.92592 0.0
C153 C 0.77202 0.22442 0.93469 0.0
C154 C 0.76902 0.23009 0.95032 0.0
C155 C 0.78495 0.24916 0.95736 0.0
H156 H 0.5524 0.73475 0.10266 0.0
H157 H 0.55326 0.79402 0.09816 0.0
H158 H 0.53307 0.75091 0.05793 0.0
H159 H 0.55514 0.79423 0.04699 0.0
C160 C 0.55458 0.80207 0.05842 0.0
O161 O 0.53887 0.78726 0.06839 0.0
H162 H 0.57079 0.80904 0.0643 0.0
C163 C 0.54992 0.74577 0.09546 0.0
C164 C 0.54257 0.74046 0.07938 0.0
C165 C 0.55403 0.76509 0.1024 0.0
C166 C 0.54995 0.7789 0.09319 0.0
C167 C 0.54224 0.77362 0.07726 0.0
C168 C 0.53849 0.75446 0.0704 0.0
H169 H 0.27944 0.82601 0.09958 0.0
H170 H 0.22246 0.76428 0.09586 0.0
H171 H 0.26757 0.78764 0.05674 0.0
H172 H 0.22282 0.76204 0.04441 0.0
C173 C 0.21508 0.75481 0.05614 0.0
O174 O 0.23068 0.75624 0.06683 0.0
H175 H 0.20742 0.76384 0.06084 0.0
C176 C 0.26972 0.81132 0.093 0.0
C177 C 0.27621 0.80881 0.07744 0.0
C178 C 0.25033 0.79545 0.09984 0.0
C179 C 0.23737 0.77684 0.09085 0.0
C180 C 0.24352 0.77417 0.07534 0.0
C181 C 0.26292 0.79004 0.0687 0.0
H182 H 0.19511 0.45846 0.10195 0.0
H183 H 0.25645 0.46067 0.1001 0.0
H184 H 0.23593 0.48405 0.06011 0.0
H185 H 0.259 0.46042 0.0507 0.0
C186 C 0.26916 0.46361 0.06174 0.0
O187 O 0.26707 0.47801 0.07145 0.0
H188 H 0.26305 0.44833 0.06825 0.0
C189 C 0.20996 0.46255 0.09561 0.0
C190 C 0.21353 0.47192 0.08021 0.0
C191 C 0.22518 0.45829 0.10293 0.0
C192 C 0.24451 0.46383 0.0947 0.0
C193 C 0.24833 0.47291 0.07922 0.0
C194 C 0.23279 0.47686 0.07198 0.0
H195 H 0.40807 0.88483 0.26025 0.0
H196 H 0.46617 0.88075 0.26369 0.0
H197 H 0.42114 0.8593 0.30301 0.0
H198 H 0.46699 0.87636 0.31504 0.0
C199 C 0.47422 0.87712 0.30297 0.0
O200 O 0.45804 0.86376 0.29234 0.0
H201 H 0.48172 0.89383 0.29878 0.0
C202 C 0.4183 0.88032 0.2668 0.0
C203 C 0.41203 0.87145 0.28235 0.0
C204 C 0.43798 0.88413 0.25992 0.0
C205 C 0.45123 0.87852 0.26881 0.0
C206 C 0.44526 0.86965 0.28429 0.0
C207 C 0.42575 0.86628 0.29109 0.0
H208 H 0.13351 0.52731 0.25668 0.0
H209 H 0.1336 0.58637 0.25896 0.0
H210 H 0.15229 0.56448 0.30068 0.0
H211 H 0.12792 0.58543 0.30936 0.0
C212 C 0.12984 0.59403 0.29782 0.0
O213 O 0.14647 0.59454 0.28901 0.0
H214 H 0.11428 0.58534 0.29102 0.0
C215 C 0.13623 0.54121 0.26344 0.0
C216 C 0.14337 0.54386 0.27964 0.0
C217 C 0.13264 0.5564 0.25582 0.0
C218 C 0.1367 0.57466 0.26447 0.0
C219 C 0.14379 0.57748 0.28057 0.0
C220 C 0.14727 0.56224 0.28809 0.0
H221 H 0.48708 0.6015 0.26001 0.0
H222 H 0.42596 0.54351 0.26274 0.0
H223 H 0.44852 0.5864 0.3032 0.0
H224 H 0.42275 0.5428 0.31417 0.0
C225 C 0.41545 0.53528 0.30232 0.0
O226 O 0.41672 0.55061 0.29184 0.0
H227 H 0.4249 0.52808 0.29751 0.0
C228 C 0.47282 0.59073 0.26679 0.0
C229 C 0.47018 0.59624 0.28263 0.0
C230 C 0.45715 0.57173 0.25943 0.0
C231 C 0.4382 0.55833 0.26804 0.0
C232 C 0.43507 0.56373 0.28372 0.0
C233 C 0.45098 0.58265 0.29096 0.0
Gd234 Gd 0.51413 0.01361 0.03405 0.0
Gd235 Gd 0.50107 0.9951 0.99148 0.0
C236 C 0.43953 0.9371 0.97341 0.0
C237 C 0.45305 0.9144 0.96366 0.0
C238 C 0.47751 0.94833 0.97629 0.0
C239 C 0.4605 0.95198 0.97881 0.0
C240 C 0.47399 0.92949 0.9687 0.0
C241 C 0.43597 0.91839 0.96574 0.0
C242 C 0.42298 0.94192 0.97522 0.0
C243 C 0.42768 0.96142 0.98183 0.0
N244 N 0.46477 0.9708 0.98535 0.0
C245 C 0.44886 0.97591 0.98655 0.0
H246 H 0.45239 0.99114 0.99127 0.0
C247 C 0.51527 0.96178 0.97667 0.0
N248 N 0.49774 0.96386 0.98028 0.0
C249 C 0.51251 0.94312 0.96962 0.0
C250 C 0.49176 0.92683 0.9657 0.0
H251 H 0.5314 0.97435 0.97949 0.0
H252 H 0.42021 0.90718 0.96093 0.0
H253 H 0.56157 0.01423 0.03427 0.0
H254 H 0.40667 0.93096 0.97119 0.0
H255 H 0.41507 0.96543 0.98305 0.0
H256 H 0.45005 0.89995 0.9576 0.0
H257 H 0.48747 0.03693 0.04841 0.0
H258 H 0.61185 0.07715 0.0455 0.0
H259 H 0.60018 0.03997 0.0383 0.0
H260 H 0.57313 0.11331 0.05831 0.0
H261 H 0.52642 0.94145 0.96702 0.0
H262 H 0.48971 0.91254 0.95996 0.0
H263 H 0.60162 0.10453 0.05275 0.0
H264 H 0.49555 0.07216 0.05854 0.0
N265 N 0.55129 0.03662 0.03879 0.0
C266 C 0.59483 0.06589 0.04379 0.0
C267 C 0.58829 0.04491 0.03976 0.0
C268 C 0.57924 0.07193 0.046 0.0
C269 C 0.55731 0.05668 0.0435 0.0
C270 C 0.56632 0.03033 0.0375 0.0
N271 N 0.52047 0.04623 0.04468 0.0
C272 C 0.54137 0.06166 0.04653 0.0
C273 C 0.50859 0.06945 0.05514 0.0
C274 C 0.53004 0.08584 0.05634 0.0
C275 C 0.50407 0.04953 0.04947 0.0
C276 C 0.54677 0.08197 0.05225 0.0
H277 H 0.53351 0.10124 0.06077 0.0
O278 O 0.49562 0.00328 0.05637 0.0
O279 O 0.48992 0.99009 0.01698 0.0
O280 O 0.48955 0.01817 0.99828 0.0
O281 O 0.51162 0.0385 0.01973 0.0
O282 O 0.47797 1.00088 0.03491 0.0
O283 O 0.52314 0.99888 0.05308 0.0
O284 O 0.5202 0.00759 0.96962 0.0
O285 O 0.52508 0.01876 0.00853 0.0
O286 O 0.52422 0.98937 0.02736 0.0
O287 O 0.50195 0.96943 0.00587 0.0
O288 O 0.53717 0.00806 0.99068 0.0
O289 O 0.49113 0.00941 0.97273 0.0
C290 C 0.47268 0.98801 0.02279 0.0
C291 C 0.56862 0.09752 0.0541 0.0
C292 C 0.58484 0.09252 0.05095 0.0
C293 C 0.50825 0.99728 0.06303 0.0
C294 C 0.5153 0.00462 0.07981 0.0
C295 C 0.53074 0.02584 0.08283 0.0
C296 C 0.50664 0.99045 0.09292 0.0
C297 C 0.51352 0.99751 0.10897 0.0
C298 C 0.53743 0.03298 0.09862 0.0
C299 C 0.52891 0.019 0.11158 0.0
C300 C 0.49874 0.03568 0.00726 0.0
C301 C 0.54238 0.02108 0.00266 0.0
C302 C 0.50692 0.01281 0.96303 0.0
C303 C 0.50105 0.00652 0.94593 0.0
C304 C 0.48783 0.98511 0.94183 0.0
C305 C 0.50862 0.02188 0.93357 0.0
C306 C 0.50271 0.01578 0.91724 0.0
C307 C 0.48216 0.97896 0.92575 0.0
C308 C 0.48952 0.99411 0.91354 0.0
C309 C 0.51474 0.97191 0.01831 0.0
H310 H 0.53764 0.03692 0.07299 0.0
H311 H 0.49486 0.97397 0.09058 0.0
H312 H 0.54926 0.04945 0.10082 0.0
H313 H 0.53423 0.02514 0.12372 0.0
H314 H 0.48188 0.97313 0.95105 0.0
H315 H 0.51873 0.03847 0.9367 0.0
H316 H 0.47203 0.96236 0.92273 0.0
H317 H 0.48503 0.98881 0.90113 0.0
Gd318 Gd 1.00141 0.50026 0.03251 0.0
Gd319 Gd 0.02245 0.50471 0.99135 0.0
C320 C 0.08318 0.50344 0.97676 0.0
C321 C 0.10557 0.53875 0.96578 0.0
C322 C 0.07056 0.52871 0.97744 0.0
C323 C 0.06749 0.50887 0.98113 0.0
C324 C 0.08972 0.54394 0.96984 0.0
C325 C 0.10209 0.51842 0.96892 0.0
C326 C 0.07889 0.48278 0.97961 0.0
C327 C 0.05907 0.46794 0.98618 0.0
N328 N 0.04834 0.49427 0.98761 0.0
C329 C 0.04371 0.47386 0.98978 0.0
H330 H 0.02817 0.46209 0.99437 0.0
C331 C 0.05594 0.5515 0.97591 0.0
N332 N 0.05427 0.5327 0.98045 0.0
C333 C 0.07491 0.56733 0.96886 0.0
C334 C 0.09193 0.56358 0.96586 0.0
H335 H 0.04279 0.55448 0.97797 0.0
H336 H 0.11381 0.51424 0.96475 0.0
H337 H 0.99898 0.54515 0.03032 0.0
H338 H 0.09049 0.47796 0.97639 0.0
H339 H 0.05544 0.45182 0.98817 0.0
H340 H 0.12023 0.55008 0.95967 0.0
H341 H 0.97854 0.45139 0.04778 0.0
H342 H 0.93401 0.53004 0.03978 0.0
H343 H 0.97176 0.55627 0.03282 0.0
H344 H 0.89894 0.45667 0.05435 0.0
H345 H 0.07624 0.58227 0.96551 0.0
H346 H 0.10645 0.57572 0.96009 0.0
H347 H 0.90684 0.49272 0.04757 0.0
H348 H 0.94275 0.42383 0.0576 0.0
N349 N 0.97688 0.51275 0.03547 0.0
C350 C 0.94593 0.52505 0.03874 0.0
C351 C 0.96722 0.53991 0.03485 0.0
C352 C 0.9404 0.50404 0.04166 0.0
C353 C 0.9565 0.49835 0.04003 0.0
C354 C 0.98264 0.53351 0.03346 0.0
N355 N 0.96822 0.47356 0.04274 0.0
C356 C 0.95201 0.47809 0.04377 0.0
C357 C 0.94511 0.43899 0.05368 0.0
C358 C 0.92796 0.44305 0.05406 0.0
C359 C 0.96535 0.45463 0.04817 0.0
C360 C 0.93136 0.4629 0.0493 0.0
H361 H 0.91231 0.43093 0.05837 0.0
O362 O 0.01207 0.49418 0.05548 0.0
O363 O 0.02709 0.50039 0.01732 0.0
O364 O 0.99864 0.4703 0.99813 0.0
O365 O 0.97676 0.47224 0.01815 0.0
O366 O 0.01508 0.47821 0.03532 0.0
O367 O 0.0138 0.52439 0.05135 0.0
O368 O 0.01033 0.50934 0.96848 0.0
O369 O 0.99681 0.5044 0.00656 0.0
O370 O 0.02584 0.53449 0.02576 0.0
O371 O 0.04762 0.53235 0.00575 0.0
O372 O 0.00824 0.52621 0.98831 0.0
O373 O 0.01073 0.48018 0.97283 0.0
C374 C 0.02926 0.486 0.02396 0.0
C375 C 0.91499 0.46819 0.05029 0.0
C376 C 0.9195 0.48872 0.04645 0.0
C377 C 0.01626 0.51229 0.06174 0.0
C378 C 0.00795 0.51141 0.07812 0.0
C379 C 0.98617 0.50515 0.08069 0.0
C380 C 0.0219 0.51621 0.09142 0.0
C381 C 0.01412 0.51445 0.10729 0.0
C382 C 0.97835 0.5034 0.09642 0.0
C383 C 0.9922 0.50791 0.10969 0.0
C384 C 0.98026 0.46198 0.00637 0.0
C385 C 0.99426 0.51847 0.99977 0.0
C386 C 0.00714 0.49148 0.96236 0.0
C387 C 0.01526 0.49257 0.94585 0.0
C388 C 0.03626 0.49632 0.94315 0.0
C389 C 1.00198 0.49039 0.93257 0.0
C390 C 0.00975 0.49227 0.91667 0.0
C391 C 0.0441 0.49833 0.92742 0.0
C392 C 0.03098 0.49642 0.91423 0.0
C393 C 0.04418 0.54273 0.01748 0.0
H394 H 0.97523 0.50153 0.0706 0.0
H395 H 0.0387 0.5209 0.08943 0.0
H396 H 0.96152 0.4985 0.09834 0.0
H397 H 0.98585 0.50653 0.1218 0.0
H398 H 0.04659 0.49764 0.95314 0.0
H399 H 0.98572 0.48746 0.93461 0.0
H400 H 0.06034 0.50129 0.92545 0.0
H401 H 0.03727 0.49774 0.90209 0.0
Gd402 Gd 0.50633 0.5093 0.99162 0.0
Gd403 Gd 0.51887 0.50257 0.03363 0.0
C404 C 0.58043 0.5039 0.05029 0.0
C405 C 0.56662 0.46801 0.06012 0.0
C406 C 0.54222 0.47841 0.0481 0.0
C407 C 0.55939 0.49853 0.04532 0.0
C408 C 0.54563 0.46291 0.05553 0.0
C409 C 0.58389 0.48855 0.05777 0.0
C410 C 0.59717 0.5248 0.04836 0.0
C411 C 0.59256 0.5399 0.04215 0.0
N412 N 0.55523 0.51334 0.0391 0.0
C413 C 0.57131 0.53396 0.0379 0.0
H414 H 0.56788 0.5459 0.0335 0.0
C415 C 0.50436 0.45542 0.04846 0.0
N416 N 0.52198 0.47445 0.04457 0.0
C417 C 0.50698 0.43935 0.05535 0.0
C418 C 0.52772 0.44307 0.05885 0.0
H419 H 0.48825 0.45246 0.04597 0.0
H420 H 0.59971 0.49258 0.0623 0.0
H421 H 0.45759 0.46562 0.99005 0.0
H422 H 0.61355 0.52958 0.05203 0.0
H423 H 0.60531 0.5562 0.04088 0.0
H424 H 0.56954 0.45643 0.06605 0.0
H425 H 0.53669 0.55971 0.97967 0.0
H426 H 0.41144 0.48333 0.97509 0.0
H427 H 0.42006 0.4557 0.98343 0.0
H428 H 0.4545 0.55776 0.96578 0.0
H429 H 0.49299 0.42419 0.05813 0.0
H430 H 0.52969 0.43073 0.06448 0.0
H431 H 0.42416 0.52147 0.96939 0.0
H432 H 0.53154 0.58882 0.96978 0.0
N433 N 0.46999 0.49854 0.98618 0.0
C434 C 0.42783 0.48774 0.97838 0.0
C435 C 0.43268 0.47213 0.98292 0.0
C436 C 0.44437 0.50884 0.97746 0.0
C437 C 0.46561 0.51377 0.9813 0.0
C438 C 0.45401 0.47782 0.98664 0.0
N439 N 0.50301 0.53776 0.98161 0.0
C440 C 0.48267 0.53406 0.97897 0.0
C441 C 0.51765 0.57351 0.97236 0.0
C442 C 0.49678 0.57015 0.97011 0.0
C443 C 0.52051 0.55696 0.97792 0.0
C444 C 0.47896 0.55014 0.97315 0.0
H445 H 0.49461 0.58295 0.96568 0.0
O446 O 0.5241 0.51625 0.96901 0.0
O447 O 0.53047 0.50837 0.0082 0.0
O448 O 0.53058 0.5371 0.02731 0.0
O449 O 0.50752 0.53549 0.00673 0.0
O450 O 0.54264 0.53131 0.99081 0.0
O451 O 0.49589 0.48538 0.97268 0.0
O452 O 0.50068 0.49641 0.05599 0.0
O453 O 0.49464 0.50309 0.01698 0.0
O454 O 0.49473 0.47475 0.99778 0.0
O455 O 0.51689 0.47566 0.01891 0.0
O456 O 0.4826 0.4805 0.03464 0.0
O457 O 0.52955 0.52678 0.05239 0.0
C458 C 0.54788 0.52309 0.0025 0.0
C459 C 0.4577 0.54558 0.97015 0.0
C460 C 0.44043 0.52494 0.97222 0.0
C461 C 0.51069 0.49793 0.96251 0.0
C462 C 0.50325 0.49838 0.94594 0.0
C463 C 0.48808 0.50488 0.94321 0.0
C464 C 0.5113 0.49224 0.93272 0.0
C465 C 0.50415 0.49256 0.91682 0.0
C466 C 0.48101 0.50533 0.92755 0.0
C467 C 0.48897 0.49927 0.91444 0.0
C468 C 0.52074 0.54542 0.01898 0.0
C469 C 0.47727 0.4884 0.02278 0.0
C470 C 0.51426 0.5147 0.06242 0.0
C471 C 0.52095 0.51435 0.07927 0.0
C472 C 0.53575 0.5076 0.08273 0.0
C473 C 0.51256 0.52089 0.09204 0.0
C474 C 0.51907 0.52077 0.10818 0.0
C475 C 0.5421 0.50723 0.09864 0.0
C476 C 0.53384 0.51373 0.11129 0.0
C477 C 0.50385 0.466 0.00648 0.0
H478 H 0.4817 0.50962 0.95313 0.0
H479 H 0.52288 0.48701 0.93484 0.0
H480 H 0.46936 0.51049 0.92557 0.0
H481 H 0.48346 0.50014 0.90238 0.0
H482 H 0.54245 0.50263 0.07317 0.0
H483 H 0.50129 0.52635 0.08936 0.0
H484 H 0.55346 0.50187 0.10118 0.0
H485 H 0.53887 0.51304 0.12356 0.0
Gd486 Gd 0.18266 0.35168 0.37043 0.0
Gd487 Gd 0.16368 0.33061 0.3289 0.0
C488 C 0.09801 0.27156 0.32014 0.0
C489 C 0.1082 0.24605 0.31091 0.0
C490 C 0.13582 0.28219 0.31743 0.0
C491 C 0.12005 0.28702 0.32156 0.0
C492 C 0.1301 0.26179 0.31171 0.0
C493 C 0.09218 0.25093 0.31514 0.0
C494 C 0.08251 0.27744 0.32342 0.0
C495 C 0.08919 0.29847 0.32741 0.0
N496 N 0.12628 0.30714 0.32625 0.0
C497 C 0.11126 0.31326 0.32856 0.0
H498 H 0.11618 0.32941 0.33177 0.0
C499 C 0.17282 0.29453 0.31253 0.0
N500 N 0.15678 0.2978 0.31828 0.0
C501 C 0.16799 0.27453 0.30683 0.0
C502 C 0.14655 0.258 0.30661 0.0
H503 H 0.18943 0.30721 0.3128 0.0
H504 H 0.07532 0.23877 0.31414 0.0
H505 H 0.22939 0.35116 0.3671 0.0
H506 H 0.0654 0.26601 0.32256 0.0
H507 H 0.07734 0.30328 0.32969 0.0
H508 H 0.10347 0.23022 0.3067 0.0
H509 H 0.15863 0.37651 0.38673 0.0
H510 H 0.28168 0.41385 0.376 0.0
H511 H 0.26844 0.37633 0.36886 0.0
H512 H 0.24597 0.45181 0.39219 0.0
H513 H 0.18078 0.27186 0.30265 0.0
H514 H 0.14285 0.24253 0.30216 0.0
H515 H 0.27313 0.44202 0.38449 0.0
H516 H 0.16861 0.41226 0.39689 0.0
N517 N 0.22033 0.37417 0.37285 0.0
C518 C 0.26446 0.40283 0.37529 0.0
C519 C 0.25704 0.38167 0.37129 0.0
C520 C 0.24954 0.4094 0.37875 0.0
C521 C 0.2273 0.39445 0.37753 0.0
C522 C 0.23481 0.36741 0.37033 0.0
N523 N 0.19093 0.3849 0.38103 0.0
C524 C 0.21209 0.4 0.38175 0.0
C525 C 0.181 0.40905 0.3926 0.0
C526 C 0.20266 0.42509 0.39266 0.0
C527 C 0.17541 0.38884 0.38691 0.0
C528 C 0.21857 0.42059 0.38742 0.0
H529 H 0.20696 0.44073 0.3971 0.0
O530 O 0.16623 0.34213 0.3936 0.0
O531 O 0.15624 0.32762 0.35512 0.0
O532 O 0.15436 0.35512 0.33644 0.0
O533 O 0.17901 0.37615 0.35649 0.0
O534 O 0.14692 0.33971 0.37395 0.0
O535 O 0.19337 0.33752 0.38871 0.0
O536 O 0.18054 0.34153 0.306 0.0
O537 O 0.19003 0.35487 0.34418 0.0
O538 O 0.19134 0.32666 0.36309 0.0
O539 O 0.16681 0.3059 0.3429 0.0
O540 O 0.19939 0.34269 0.32545 0.0
O541 O 0.15175 0.34348 0.31044 0.0
C542 C 0.13996 0.32608 0.36227 0.0
C543 C 0.24066 0.43582 0.38804 0.0
C544 C 0.25613 0.43024 0.38367 0.0
C545 C 0.17932 0.33617 0.39941 0.0
C546 C 0.18757 0.34357 0.4159 0.0
C547 C 0.20429 0.36439 0.41858 0.0
C548 C 0.17852 0.32978 0.42914 0.0
C549 C 0.18623 0.33673 0.44503 0.0
C550 C 0.21191 0.37143 0.43424 0.0
C551 C 0.20298 0.35778 0.44738 0.0
C552 C 0.1649 0.37304 0.34487 0.0
C553 C 0.20633 0.35645 0.33704 0.0
C554 C 0.16654 0.34615 0.29996 0.0
C555 C 0.1591 0.33853 0.28334 0.0
C556 C 0.14454 0.31703 0.28042 0.0
C557 C 0.16698 0.35271 0.27024 0.0
C558 C 0.16034 0.34543 0.25421 0.0
C559 C 0.13805 0.30966 0.26465 0.0
C560 C 0.14591 0.32366 0.25164 0.0
C561 C 0.18063 0.30875 0.35468 0.0
H562 H 0.21145 0.37519 0.40858 0.0
H563 H 0.16572 0.31362 0.427 0.0
H564 H 0.22475 0.38757 0.43623 0.0
H565 H 0.20903 0.36382 0.45942 0.0
H566 H 0.13828 0.30593 0.2903 0.0
H567 H 0.17805 0.36937 0.27258 0.0
H568 H 0.12695 0.29299 0.26248 0.0
H569 H 0.14085 0.31732 0.23952 0.0
Gd570 Gd 0.66581 0.83424 0.36706 0.0
Gd571 Gd 0.68736 0.83808 0.32606 0.0
C572 C 0.74822 0.83696 0.31153 0.0
C573 C 0.77025 0.87199 0.3 0.0
C574 C 0.73537 0.86204 0.31189 0.0
C575 C 0.73247 0.84234 0.31582 0.0
C576 C 0.75438 0.87716 0.30406 0.0
C577 C 0.76694 0.8518 0.30342 0.0
C578 C 0.74419 0.81647 0.31477 0.0
C579 C 0.7245 0.80171 0.32157 0.0
N580 N 0.71346 0.82783 0.32252 0.0
C581 C 0.70904 0.80755 0.32502 0.0
H582 H 0.6936 0.79581 0.32978 0.0
C583 C 0.72059 0.88467 0.31016 0.0
N584 N 0.71904 0.86597 0.31486 0.0
C585 C 0.73944 0.90041 0.30291 0.0
C586 C 0.75644 0.89666 0.29985 0.0
H587 H 0.70746 0.88767 0.31225 0.0
H588 H 0.77869 0.84763 0.29928 0.0
H589 H 0.66399 0.8794 0.36427 0.0
H590 H 0.75592 0.81174 0.31171 0.0
H591 H 0.72105 0.7857 0.32386 0.0
H592 H 0.78478 0.88322 0.29371 0.0
H593 H 0.64214 0.78553 0.38262 0.0
H594 H 0.59886 0.86485 0.37213 0.0
H595 H 0.63695 0.89086 0.36592 0.0
H596 H 0.56266 0.79145 0.38669 0.0
H597 H 0.74072 0.91532 0.29948 0.0
H598 H 0.77085 0.90871 0.2939 0.0
H599 H 0.57113 0.82758 0.37958 0.0
H600 H 0.60589 0.75818 0.39191 0.0
N601 N 0.64144 0.84702 0.36913 0.0
C602 C 0.61069 0.8597 0.37144 0.0
C603 C 0.63218 0.87443 0.36798 0.0
C604 C 0.60484 0.83862 0.37443 0.0
C605 C 0.62084 0.83274 0.37329 0.0
C606 C 0.64749 0.86785 0.36706 0.0
N607 N 0.63219 0.80777 0.37682 0.0
C608 C 0.61605 0.81245 0.37725 0.0
C609 C 0.60851 0.77335 0.38776 0.0
C610 C 0.59144 0.77754 0.38752 0.0
C611 C 0.62899 0.78885 0.38256 0.0
C612 C 0.59516 0.7974 0.38247 0.0
H613 H 0.5756 0.76553 0.3916 0.0
O614 O 0.67467 0.82787 0.39071 0.0
O615 O 0.69163 0.8342 0.35219 0.0
O616 O 0.66396 0.80378 0.33328 0.0
O617 O 0.64153 0.806 0.35264 0.0
O618 O 0.67993 0.81261 0.37059 0.0
O619 O 0.67853 0.85875 0.38559 0.0
O620 O 0.67514 0.84202 0.303 0.0
O621 O 0.66158 0.83804 0.34096 0.0
O622 O 0.69061 0.86834 0.36024 0.0
O623 O 0.7124 0.86598 0.34031 0.0
O624 O 0.67319 0.85952 0.32249 0.0
O625 O 0.67515 0.81284 0.30811 0.0
C626 C 0.69402 0.82013 0.35916 0.0
C627 C 0.57888 0.80286 0.38289 0.0
C628 C 0.58371 0.82343 0.37886 0.0
C629 C 0.67947 0.84637 0.39655 0.0
C630 C 0.67021 0.8463 0.41244 0.0
C631 C 0.64885 0.84206 0.41373 0.0
C632 C 0.68279 0.85034 0.42651 0.0
C633 C 0.67409 0.85008 0.44187 0.0
C634 C 0.64006 0.84164 0.42887 0.0
C635 C 0.65252 0.84556 0.44287 0.0
C636 C 0.64534 0.79556 0.34119 0.0
C637 C 0.65913 0.85201 0.33389 0.0
C638 C 0.67139 0.82374 0.29739 0.0
C639 C 0.67874 0.8237 0.28081 0.0
C640 C 0.70022 0.82935 0.27768 0.0
C641 C 0.66404 0.81809 0.26789 0.0
C642 C 0.67073 0.81812 0.25186 0.0
C643 C 0.70705 0.82961 0.26184 0.0
C644 C 0.69246 0.82408 0.24898 0.0
C645 C 0.70893 0.87649 0.35192 0.0
H646 H 0.63897 0.83909 0.40309 0.0
H647 H 0.6994 0.85393 0.42544 0.0
H648 H 0.6235 0.8382 0.42976 0.0
H649 H 0.64516 0.84482 0.45448 0.0
H650 H 0.7117 0.83352 0.28742 0.0
H651 H 0.64735 0.81342 0.27038 0.0
H652 H 0.72371 0.83412 0.25952 0.0
H653 H 0.69824 0.82465 0.23678 0.0
Gd654 Gd 0.17128 0.84553 0.32488 0.0
Gd655 Gd 0.18715 0.84017 0.36634 0.0
C656 C 0.25299 0.84594 0.3756 0.0
C657 C 0.24288 0.81051 0.3847 0.0
C658 C 0.21521 0.81939 0.37797 0.0
C659 C 0.23093 0.83967 0.37397 0.0
C660 C 0.22096 0.80468 0.38374 0.0
C661 C 0.25888 0.8311 0.3806 0.0
C662 C 0.26844 0.86708 0.3726 0.0
C663 C 0.26169 0.88151 0.36875 0.0
N664 N 0.22463 0.85361 0.36932 0.0
C665 C 0.2396 0.87454 0.3674 0.0
H666 H 0.23471 0.8859 0.36435 0.0
C667 C 0.17819 0.79534 0.38253 0.0
N668 N 0.19425 0.81436 0.37694 0.0
C669 C 0.18305 0.7802 0.38837 0.0
C670 C 0.20452 0.78478 0.38878 0.0
H671 H 0.16155 0.79166 0.38206 0.0
H672 H 0.27574 0.83555 0.38174 0.0
H673 H 0.1231 0.8011 0.32448 0.0
H674 H 0.28555 0.87251 0.37365 0.0
H675 H 0.27348 0.89799 0.36676 0.0
H676 H 0.24764 0.79937 0.38894 0.0
H677 H 0.20016 0.89603 0.31274 0.0
H678 H 0.07533 0.81667 0.30974 0.0
H679 H 0.08529 0.79004 0.31823 0.0
H680 H 0.11641 0.89113 0.29954 0.0
H681 H 0.17025 0.76498 0.39247 0.0
H682 H 0.20826 0.77304 0.39331 0.0
H683 H 0.08691 0.85453 0.30358 0.0
H684 H 0.19372 0.92435 0.30286 0.0
N685 N 0.13459 0.83378 0.32012 0.0
C686 C 0.09193 0.82165 0.31281 0.0
C687 C 0.09749 0.80658 0.31747 0.0
C688 C 0.10802 0.84291 0.31155 0.0
C689 C 0.12953 0.84852 0.31514 0.0
C690 C 0.11903 0.81293 0.32098 0.0
N691 N 0.16673 0.87336 0.31507 0.0
C692 C 0.14613 0.86899 0.31259 0.0
C693 C 0.18019 0.90886 0.30557 0.0
C694 C 0.15905 0.90482 0.30351 0.0
C695 C 0.18377 0.89277 0.31114 0.0
C696 C 0.14169 0.88459 0.30676 0.0
H697 H 0.15631 0.91727 0.29908 0.0
O698 O 0.18894 0.8526 0.30223 0.0
O699 O 0.19648 0.84501 0.34041 0.0
O700 O 0.19707 0.87418 0.35978 0.0
O701 O 0.17252 0.8717 0.34015 0.0
O702 O 0.20733 0.86802 0.32301 0.0
O703 O 0.16046 0.82186 0.30571 0.0
O704 O 0.17185 0.83316 0.39004 0.0
O705 O 0.16142 0.83936 0.35067 0.0
O706 O 0.1604 0.81117 0.33102 0.0
O707 O 0.183 0.81214 0.35192 0.0
O708 O 0.15108 0.81754 0.36892 0.0
O709 O 0.19663 0.86516 0.38418 0.0
C710 C 0.21338 0.85969 0.33409 0.0
C711 C 0.12018 0.87934 0.30393 0.0
C712 C 0.10338 0.85851 0.30625 0.0
C713 C 0.17541 0.83442 0.29564 0.0
C714 C 0.16828 0.8352 0.27905 0.0
C715 C 0.15257 0.841 0.27629 0.0
C716 C 0.17737 0.83028 0.26582 0.0
C717 C 0.17073 0.83108 0.24985 0.0
C718 C 0.14603 0.84199 0.26056 0.0
C719 C 0.15503 0.83712 0.24742 0.0
C720 C 0.18625 0.88193 0.35208 0.0
C721 C 0.14466 0.82469 0.3572 0.0
C722 C 0.184 0.85246 0.39537 0.0
C723 C 0.19378 0.85493 0.41151 0.0
C724 C 0.2138 0.85592 0.41335 0.0
C725 C 0.18347 0.85731 0.42518 0.0
C726 C 0.19341 0.86128 0.44052 0.0
C727 C 0.2236 0.85964 0.42859 0.0
C728 C 0.21359 0.8625 0.4421 0.0
C729 C 0.16958 0.80243 0.33967 0.0
H730 H 0.14537 0.84478 0.28626 0.0
H731 H 0.18936 0.82558 0.26799 0.0
H732 H 0.13398 0.84661 0.25854 0.0
H733 H 0.14986 0.83834 0.23532 0.0
H734 H 0.222 0.85414 0.40301 0.0
H735 H 0.16805 0.85668 0.42381 0.0
H736 H 0.23911 0.86051 0.42991 0.0
H737 H 0.22151 0.86551 0.45381 0.0
Gd738 Gd 0.84696 0.68164 0.70143 0.0
Gd739 Gd 0.82686 0.66069 0.65998 0.0
C740 C 0.7606 0.60221 0.65147 0.0
C741 C 0.77019 0.57642 0.64187 0.0
C742 C 0.79825 0.61235 0.64845 0.0
C743 C 0.78274 0.61745 0.65278 0.0
C744 C 0.79218 0.59193 0.64259 0.0
C745 C 0.75443 0.58155 0.64632 0.0
C746 C 0.74536 0.60832 0.65507 0.0
C747 C 0.75236 0.62933 0.65932 0.0
N748 N 0.78931 0.63758 0.65765 0.0
C749 C 0.77451 0.64389 0.66036 0.0
H750 H 0.77962 0.66002 0.66377 0.0
C751 C 0.83508 0.62426 0.64319 0.0
N752 N 0.8193 0.62775 0.64921 0.0
C753 C 0.82989 0.60422 0.63737 0.0
C754 C 0.80837 0.58789 0.63726 0.0
H755 H 0.85176 0.63682 0.64336 0.0
H756 H 0.7375 0.56956 0.6454 0.0
H757 H 0.89432 0.6825 0.6976 0.0
H758 H 0.7282 0.59706 0.6543 0.0
H759 H 0.74071 0.6343 0.66189 0.0
H760 H 0.76519 0.56056 0.63756 0.0
H761 H 0.82193 0.7053 0.71813 0.0
H762 H 0.94561 0.74538 0.70746 0.0
H763 H 0.93319 0.70824 0.69961 0.0
H764 H 0.90841 0.78154 0.72456 0.0
H765 H 0.84248 0.60137 0.63299 0.0
H766 H 0.80437 0.57239 0.63269 0.0
H767 H 0.9362 0.77273 0.71656 0.0
H768 H 0.83107 0.7406 0.72874 0.0
N769 N 0.88452 0.7048 0.70389 0.0
C770 C 0.92845 0.73411 0.70663 0.0
C771 C 0.92151 0.71315 0.70223 0.0
C772 C 0.91317 0.74012 0.71031 0.0
C773 C 0.89104 0.72485 0.70894 0.0
C774 C 0.89937 0.69856 0.70112 0.0
N775 N 0.85446 0.71441 0.71253 0.0
C776 C 0.87549 0.72982 0.7134 0.0
C777 C 0.84372 0.73781 0.72441 0.0
C778 C 0.86525 0.75414 0.7247 0.0
C779 C 0.83861 0.71784 0.71846 0.0
C780 C 0.8815 0.75019 0.71937 0.0
H781 H 0.86918 0.76959 0.72935 0.0
O782 O 0.83137 0.67147 0.72487 0.0
O783 O 0.82024 0.65755 0.68633 0.0
O784 O 0.81762 0.685 0.66818 0.0
O785 O 0.84294 0.70617 0.68781 0.0
O786 O 0.81126 0.66915 0.70568 0.0
O787 O 0.85819 0.66687 0.71878 0.0
O788 O 0.84327 0.67151 0.63692 0.0
O789 O 0.85357 0.68494 0.67504 0.0
O790 O 0.8565 0.65764 0.69304 0.0
O791 O 0.83095 0.63628 0.67362 0.0
O792 O 0.86249 0.67302 0.65581 0.0
O793 O 0.81482 0.67388 0.64185 0.0
C794 C 0.8041 0.65571 0.69389 0.0
C795 C 0.90347 0.76573 0.72015 0.0
C796 C 0.91929 0.76072 0.71561 0.0
C797 C 0.84454 0.66521 0.72995 0.0
C798 C 0.85338 0.67201 0.74642 0.0
C799 C 0.8704 0.69266 0.7492 0.0
C800 C 0.84466 0.65786 0.7595 0.0
C801 C 0.85296 0.66432 0.77535 0.0
C802 C 0.87864 0.69919 0.7648 0.0
C803 C 0.87001 0.68521 0.77778 0.0
C804 C 0.82835 0.70293 0.67655 0.0
C805 C 0.86967 0.68662 0.6675 0.0
C806 C 0.82931 0.67634 0.63115 0.0
C807 C 0.82146 0.66873 0.6146 0.0
C808 C 0.80626 0.64737 0.6118 0.0
C809 C 0.82967 0.68276 0.60142 0.0
C810 C 0.82276 0.67546 0.58544 0.0
C811 C 0.79947 0.63998 0.59607 0.0
C812 C 0.80768 0.65383 0.58298 0.0
C813 C 0.84575 0.63967 0.68473 0.0
H814 H 0.87729 0.70374 0.73933 0.0
H815 H 0.83161 0.64184 0.7573 0.0
H816 H 0.89171 0.7152 0.76687 0.0
H817 H 0.87651 0.69091 0.78979 0.0
H818 H 0.79975 0.63639 0.62174 0.0
H819 H 0.84124 0.69931 0.60368 0.0
H820 H 0.78788 0.62342 0.59399 0.0
H821 H 0.80237 0.64746 0.5709 0.0
Gd822 Gd 0.32903 0.16525 0.69912 0.0
Gd823 Gd 0.35284 0.16646 0.65921 0.0
C824 C 0.41425 0.16178 0.65656 0.0
C825 C 0.44002 0.19593 0.64523 0.0
C826 C 0.40276 0.1869 0.64968 0.0
C827 C 0.39812 0.16754 0.65589 0.0
C828 C 0.42355 0.20101 0.64372 0.0
C829 C 0.4354 0.17635 0.65171 0.0
C830 C 0.40846 0.1413 0.66156 0.0
C831 C 0.38687 0.1269 0.665 0.0
N832 N 0.37745 0.15378 0.66022 0.0
C833 C 0.37143 0.13333 0.66402 0.0
H834 H 0.35486 0.12202 0.66683 0.0
C835 C 0.38913 0.20823 0.63958 0.0
N836 N 0.38642 0.19116 0.64826 0.0
C837 C 0.40945 0.22273 0.6334 0.0
C838 C 0.42686 0.21934 0.63578 0.0
H839 H 0.37573 0.21099 0.63788 0.0
H840 H 0.44808 0.17234 0.65237 0.0
H841 H 0.3275 0.21018 0.69325 0.0
H842 H 0.42038 0.13628 0.66233 0.0
H843 H 0.38211 0.11086 0.66851 0.0
H844 H 0.45619 0.2067 0.64095 0.0
H845 H 0.30481 0.11732 0.71608 0.0
H846 H 0.26281 0.19694 0.70107 0.0
H847 H 0.30077 0.22209 0.69392 0.0
H848 H 0.22599 0.12453 0.71822 0.0
H849 H 0.41169 0.23655 0.6269 0.0
H850 H 0.44257 0.23056 0.63096 0.0
H851 H 0.23485 0.16031 0.70969 0.0
H852 H 0.26845 0.09083 0.72578 0.0
N853 N 0.30487 0.17835 0.6996 0.0
C854 C 0.27446 0.19156 0.70076 0.0
C855 C 0.2959 0.20583 0.69677 0.0
C856 C 0.26845 0.17067 0.70467 0.0
C857 C 0.28428 0.16451 0.70413 0.0
C858 C 0.31103 0.19899 0.69642 0.0
N859 N 0.29519 0.13939 0.70892 0.0
C860 C 0.27925 0.14437 0.70884 0.0
C861 C 0.27124 0.10578 0.72096 0.0
C862 C 0.25435 0.11019 0.72017 0.0
C863 C 0.29178 0.12079 0.7155 0.0
C864 C 0.25831 0.12983 0.71432 0.0
H865 H 0.23847 0.09858 0.72447 0.0
O866 O 0.33944 0.16064 0.72267 0.0
O867 O 0.35596 0.16512 0.68589 0.0
O868 O 0.32796 0.13287 0.66701 0.0
O869 O 0.30508 0.13626 0.68531 0.0
O870 O 0.34268 0.1438 0.70456 0.0
O871 O 0.33878 0.18955 0.71773 0.0
O872 O 0.34236 0.16965 0.63518 0.0
O873 O 0.32662 0.16758 0.67258 0.0
O874 O 0.35422 0.19897 0.69213 0.0
O875 O 0.37584 0.19754 0.67136 0.0
O876 O 0.33875 0.18749 0.65308 0.0
O877 O 0.34188 0.14068 0.6418 0.0
C878 C 0.35797 0.15154 0.69399 0.0
C879 C 0.24224 0.13556 0.71422 0.0
C880 C 0.24729 0.15595 0.7094 0.0
C881 C 0.34211 0.17842 0.72852 0.0
C882 C 0.33329 0.17716 0.74475 0.0
C883 C 0.31111 0.16885 0.74714 0.0
C884 C 0.34725 0.18305 0.75814 0.0
C885 C 0.33915 0.17998 0.77405 0.0
C886 C 0.30288 0.16593 0.76281 0.0
C887 C 0.3167 0.1712 0.77618 0.0
C888 C 0.30916 0.12519 0.67459 0.0
C889 C 0.32438 0.18088 0.66433 0.0
C890 C 0.33945 0.15144 0.6302 0.0
C891 C 0.34921 0.15164 0.61453 0.0
C892 C 0.37055 0.15571 0.61361 0.0
C893 C 0.33722 0.14834 0.60025 0.0
C894 C 0.34646 0.14923 0.58502 0.0
C895 C 0.3799 0.15676 0.59859 0.0
C896 C 0.36801 0.15362 0.58437 0.0
C897 C 0.37199 0.20764 0.68314 0.0
H898 H 0.30015 0.16436 0.73696 0.0
H899 H 0.36442 0.18991 0.75603 0.0
H900 H 0.28569 0.15923 0.7646 0.0
H901 H 0.30963 0.16801 0.78814 0.0
H902 H 0.37998 0.15812 0.62447 0.0
H903 H 0.32061 0.14486 0.60107 0.0
H904 H 0.39644 0.16008 0.59796 0.0
H905 H 0.37579 0.15482 0.57287 0.0
Gd906 Gd 0.83775 0.17824 0.65838 0.0
Gd907 Gd 0.85364 0.17266 0.6998 0.0
C908 C 0.91744 0.17589 0.71241 0.0
C909 C 0.90559 0.1398 0.72082 0.0
C910 C 0.87933 0.14979 0.71226 0.0
C911 C 0.89579 0.17015 0.70922 0.0
C912 C 0.88398 0.13445 0.71836 0.0
C913 C 0.92229 0.16051 0.7179 0.0
C914 C 0.93348 0.19708 0.71054 0.0
C915 C 0.92772 0.21195 0.70575 0.0
N916 N 0.89052 0.18467 0.70408 0.0
C917 C 0.90604 0.20548 0.70269 0.0
H918 H 0.90185 0.21718 0.69908 0.0
C919 C 0.84177 0.12615 0.71464 0.0
N920 N 0.85865 0.14533 0.71009 0.0
C921 C 0.84556 0.11032 0.72055 0.0
C922 C 0.86676 0.11441 0.72225 0.0
H923 H 0.82533 0.12285 0.71332 0.0
H924 H 0.93886 0.16458 0.72027 0.0
H925 H 0.79021 0.13248 0.65901 0.0
H926 H 0.95022 0.20216 0.71322 0.0
H927 H 0.93991 0.22845 0.70451 0.0
H928 H 0.90952 0.1282 0.72539 0.0
H929 H 0.86392 0.22794 0.64468 0.0
H930 H 0.73963 0.14632 0.64982 0.0
H931 H 0.75149 0.1205 0.65606 0.0
H932 H 0.77795 0.22044 0.63748 0.0
H933 H 0.83214 0.09502 0.7238 0.0
H934 H 0.86965 0.10217 0.72693 0.0
H935 H 0.74966 0.18374 0.64309 0.0
H936 H 0.85548 0.25536 0.63566 0.0
N937 N 0.80041 0.16496 0.65485 0.0
C938 C 0.75671 0.15169 0.65106 0.0
C939 C 0.76335 0.13707 0.65455 0.0
C940 C 0.77224 0.17299 0.64879 0.0
C941 C 0.79425 0.17917 0.65066 0.0
C942 C 0.78539 0.14396 0.6562 0.0
N943 N 0.83106 0.2048 0.6488 0.0
C944 C 0.8101 0.19977 0.64754 0.0
C945 C 0.84256 0.23981 0.63902 0.0
C946 C 0.82108 0.23517 0.63839 0.0
C947 C 0.84728 0.22425 0.64406 0.0
C948 C 0.8045 0.21485 0.64244 0.0
H949 H 0.81746 0.24722 0.63444 0.0
O950 O 0.85459 0.18606 0.63534 0.0
O951 O 0.86329 0.17833 0.67391 0.0
O952 O 0.86446 0.20696 0.69346 0.0
O953 O 0.84052 0.2052 0.67348 0.0
O954 O 0.87381 0.20095 0.6562 0.0
O955 O 0.82742 0.15457 0.63927 0.0
O956 O 0.83583 0.166 0.72235 0.0
O957 O 0.8283 0.17268 0.68422 0.0
O958 O 0.82787 0.14406 0.6644 0.0
O959 O 0.8512 0.14572 0.68491 0.0
O960 O 0.8176 0.15001 0.70186 0.0
O961 O 0.86461 0.19649 0.71886 0.0
C962 C 0.8801 0.19312 0.66753 0.0
C963 C 0.7826 0.20903 0.64121 0.0
C964 C 0.76649 0.18814 0.6444 0.0
C965 C 0.84156 0.16759 0.62892 0.0
C966 C 0.83341 0.16773 0.61256 0.0
C967 C 0.8167 0.17229 0.61032 0.0
C968 C 0.84241 0.16327 0.59903 0.0
C969 C 0.83469 0.16324 0.58328 0.0
C970 C 0.80907 0.17244 0.59478 0.0
C971 C 0.81796 0.16796 0.58135 0.0
C972 C 0.85436 0.21523 0.6854 0.0
C973 C 0.81144 0.15793 0.69053 0.0
C974 C 0.84949 0.18415 0.7289 0.0
C975 C 0.85637 0.18336 0.74557 0.0
C976 C 0.87183 0.17729 0.74856 0.0
C977 C 0.84729 0.18858 0.75865 0.0
C978 C 0.85377 0.18791 0.77469 0.0
C979 C 0.87815 0.17636 0.76439 0.0
C980 C 0.86922 0.18162 0.77738 0.0
C981 C 0.8377 0.13575 0.67278 0.0
H982 H 0.80955 0.17571 0.62054 0.0
H983 H 0.85517 0.15952 0.60081 0.0
H984 H 0.79623 0.17607 0.59314 0.0
H985 H 0.81189 0.16845 0.56941 0.0
H986 H 0.87902 0.17328 0.7387 0.0
H987 H 0.8355 0.19348 0.7563 0.0
H988 H 0.89003 0.17156 0.7666 0.0
H989 H 0.8743 0.18058 0.78955 0.0
H990 H 0.31552 0.83307 0.09232 0.0
H991 H 0.34835 0.86238 0.08085 0.0
H992 H 0.31583 0.85303 0.03489 0.0
H993 H 0.28294 0.82369 0.04628 0.0
H994 H 0.35562 0.85999 0.03036 0.0
H995 H 0.32353 0.89327 0.06104 0.0
H996 H 0.30835 0.90044 0.08545 0.0
H997 H 0.36863 0.92241 0.11057 0.0
H998 H 0.38408 0.91509 0.08636 0.0
H999 H 0.43354 0.98478 0.026 0.0
H1000 H 0.39906 0.9528 0.03139 0.0
H1001 H 0.42994 0.91508 0.02652 0.0
H1002 H 0.464 0.94693 0.02014 0.0
H1003 H 0.39034 0.93101 0.05621 0.0
H1004 H 0.40272 0.8703 0.02456 0.0
H1005 H 0.41082 0.85906 0.99849 0.0
H1006 H 0.38277 0.89068 0.97282 0.0
H1007 H 0.37551 0.90295 0.99873 0.0
C1008 C 0.31532 0.8373 0.07979 0.0
C1009 C 0.29653 0.82606 0.07025 0.0
C1010 C 0.33412 0.85407 0.07323 0.0
C1011 C 0.33453 0.86013 0.05704 0.0
C1012 C 0.31595 0.84866 0.0474 0.0
C1013 C 0.29716 0.83183 0.05393 0.0
C1014 C 0.3542 0.87853 0.05016 0.0
C1015 C 0.3632 0.87555 0.03602 0.0
C1016 C 0.36409 0.89889 0.05741 0.0
C1017 C 0.35489 0.90344 0.07194 0.0
C1018 C 0.3335 0.89949 0.0718 0.0
C1019 C 0.32485 0.9036 0.0856 0.0
C1020 C 0.3375 0.91183 0.09956 0.0
C1021 C 0.35884 0.91601 0.09975 0.0
C1022 C 0.36756 0.9119 0.08599 0.0
C1023 C 0.43271 0.96953 0.02551 0.0
C1024 C 0.45138 0.96833 0.02249 0.0
C1025 C 0.41302 0.95123 0.0287 0.0
C1026 C 0.41163 0.93128 0.02942 0.0
C1027 C 0.43016 0.92999 0.02565 0.0
C1028 C 0.44979 0.94832 0.02207 0.0
C1029 C 0.39173 0.91269 0.03611 0.0
C1030 C 0.38279 0.91555 0.05043 0.0
C1031 C 0.38168 0.89228 0.02891 0.0
C1032 C 0.38895 0.8878 0.01347 0.0
C1033 C 0.39877 0.87524 0.01331 0.0
C1034 C 0.40321 0.86871 0.99859 0.0
C1035 C 0.39736 0.8742 0.98401 0.0
C1036 C 0.38747 0.88661 0.98412 0.0
C1037 C 0.3835 0.89363 0.99879 0.0
H1038 H 0.40048 0.86883 0.97263 0.0
H1039 H 0.33078 0.91499 0.11023 0.0
H1040 H 0.19179 0.48947 0.09492 0.0
H1041 H 0.16226 0.49356 0.08399 0.0
H1042 H 0.16734 0.46759 0.03827 0.0
H1043 H 0.19723 0.4638 0.04912 0.0
H1044 H 0.16061 0.49945 0.03307 0.0
H1045 H 0.12716 0.43786 0.06777 0.0
H1046 H 0.12199 0.41922 0.0937 0.0
H1047 H 0.10503 0.46177 0.11677 0.0
H1048 H 0.1103 0.48079 0.09101 0.0
H1049 H 0.03362 0.45199 0.03066 0.0
H1050 H 0.06662 0.45133 0.03741 0.0
H1051 H 0.10413 0.51869 0.02924 0.0
H1052 H 0.07124 0.51902 0.02155 0.0
H1053 H 0.09049 0.46725 0.06174 0.0
H1054 H 0.14695 0.53633 0.02784 0.0
H1055 H 0.15912 0.55508 1.00176 0.0
H1056 H 0.13335 0.49549 0.97674 0.0
H1057 H 0.12021 0.47646 0.00262 0.0
C1058 C 0.18665 0.48464 0.08252 0.0
C1059 C 0.1968 0.47611 0.07295 0.0
C1060 C 0.16966 0.48692 0.07629 0.0
C1061 C 0.16209 0.48044 0.06038 0.0
C1062 C 0.17271 0.47262 0.0506 0.0
C1063 C 0.18988 0.47051 0.0568 0.0
C1064 C 0.14309 0.48167 0.05395 0.0
C1065 C 0.14524 0.49231 0.03935 0.0
C1066 C 0.123 0.47262 0.06211 0.0
C1067 C 0.1193 0.46085 0.07749 0.0
C1068 C 0.1224 0.44328 0.07839 0.0
C1069 C 0.11944 0.43264 0.09305 0.0
C1070 C 0.11322 0.43932 0.10688 0.0
C1071 C 0.10983 0.4566 0.10605 0.0
C1072 C 0.11278 0.4673 0.09142 0.0
C1073 C 0.04902 0.46654 0.02984 0.0
C1074 C 0.04979 0.48547 0.02537 0.0
C1075 C 0.06795 0.46621 0.0338 0.0
C1076 C 0.08824 0.48492 0.0338 0.0
C1077 C 0.08906 0.50383 0.02889 0.0
C1078 C 0.07009 0.50406 0.02458 0.0
C1079 C 0.10774 0.48466 0.04052 0.0
C1080 C 0.10576 0.47431 0.05536 0.0
C1081 C 0.12804 0.49401 0.03263 0.0
C1082 C 0.13213 0.50504 0.01702 0.0
C1083 C 0.14336 0.52728 0.01669 0.0
C1084 C 0.15049 0.53795 1.00198 0.0
C1085 C 0.14702 0.52649 0.98761 0.0
C1086 C 0.13593 0.50434 0.98788 0.0
C1087 C 0.12832 0.4936 0.00252 0.0
H1088 H 0.15289 0.53477 0.97626 0.0
H1089 H 0.111 0.43111 0.11824 0.0
H1090 H 0.56897 0.72363 0.08319 0.0
H1091 H 0.56461 0.6909 0.07177 0.0
H1092 H 0.50699 0.68021 0.04657 0.0
H1093 H 0.51062 0.71259 0.05869 0.0
H1094 H 0.50082 0.64443 0.05959 0.0
H1095 H 0.55521 0.69779 0.02651 0.0
H1096 H 0.58902 0.73077 0.02041 0.0
H1097 H 0.62575 0.70636 0.0438 0.0
H1098 H 0.59212 0.67333 0.05026 0.0
H1099 H 0.49747 0.56378 0.00906 0.0
H1100 H 0.50129 0.59738 0.01802 0.0
H1101 H 0.5543 0.60783 0.04923 0.0
H1102 H 0.55076 0.57417 0.04019 0.0
H1103 H 0.5619 0.64376 0.03163 0.0
H1104 H 0.50608 0.59024 0.06501 0.0
H1105 H 0.47182 0.5571 0.06974 0.0
H1106 H 0.43709 0.58195 0.04402 0.0
H1107 H 0.47122 0.61514 0.03889 0.0
C1108 C 0.55519 0.71423 0.07538 0.0
C1109 C 0.54006 0.72072 0.07194 0.0
C1110 C 0.55289 0.69562 0.06868 0.0
C1111 C 0.53565 0.68323 0.05812 0.0
C1112 C 0.52047 0.68958 0.05464 0.0
C1113 C 0.52268 0.70818 0.06146 0.0
C1114 C 0.53344 0.66351 0.05097 0.0
C1115 C 0.51406 0.64435 0.05324 0.0
C1116 C 0.55082 0.66332 0.04288 0.0
C1117 C 0.57111 0.68315 0.03899 0.0
C1118 C 0.57048 0.69952 0.03046 0.0
C1119 C 0.58962 0.71821 0.02692 0.0
C1120 C 0.60952 0.72068 0.03174 0.0
C1121 C 0.61032 0.70443 0.04009 0.0
C1122 C 0.59122 0.68571 0.04367 0.0
C1123 C 0.51013 0.57328 0.01769 0.0
C1124 C 0.52386 0.56629 0.02389 0.0
C1125 C 0.51217 0.59243 0.02287 0.0
C1126 C 0.52792 0.60495 0.0344 0.0
C1127 C 0.54201 0.59832 0.04034 0.0
C1128 C 0.53992 0.57908 0.03521 0.0
C1129 C 0.52944 0.62479 0.04044 0.0
C1130 C 0.54867 0.64393 0.03793 0.0
C1131 C 0.51185 0.62496 0.04814 0.0
C1132 C 0.49126 0.60512 0.05143 0.0
C1133 C 0.49117 0.58859 0.06025 0.0
C1134 C 0.47177 0.56979 0.06302 0.0
C1135 C 0.4523 0.56739 0.05714 0.0
C1136 C 0.45219 0.58382 0.04854 0.0
C1137 C 0.47156 0.60263 0.0457 0.0
H1138 H 0.43729 0.55283 0.05929 0.0
H1139 H 0.62431 0.73516 0.02899 0.0
H1140 H 0.84774 0.27902 0.94616 0.0
H1141 H 0.87672 0.31224 0.95698 0.0
H1142 H 0.82992 0.32432 0.98026 0.0
H1143 H 0.80057 0.29144 0.96864 0.0
H1144 H 0.85993 0.35939 0.967 0.0
H1145 H 0.86133 0.30807 1.00182 0.0
H1146 H 0.86222 0.27573 0.00906 0.0
H1147 H 0.92357 0.29985 0.98553 0.0
H1148 H 0.9229 0.33223 0.97796 0.0
H1149 H 0.9381 0.44308 0.01598 0.0
H1150 H 0.90816 0.40876 0.00763 0.0
H1151 H 0.95135 0.39812 0.97782 0.0
H1152 H 0.98164 0.43253 0.98628 0.0
H1153 H 0.92256 0.36238 0.99567 0.0
H1154 H 0.91989 0.41401 0.96073 0.0
H1155 H 0.91876 0.44669 0.95524 0.0
H1156 H 0.85893 0.42184 0.98106 0.0
H1157 H 0.85988 0.38914 0.98695 0.0
C1158 C 0.84349 0.28879 0.95344 0.0
C1159 C 0.82169 0.28252 0.95639 0.0
C1160 C 0.86018 0.30772 0.95983 0.0
C1161 C 0.85562 0.32075 0.96966 0.0
C1162 C 0.83391 0.31453 0.97275 0.0
C1163 C 0.81712 0.2956 0.96623 0.0
C1164 C 0.87359 0.34102 0.97635 0.0
C1165 C 0.87343 0.35995 0.97349 0.0
C1166 C 0.89147 0.34194 0.98463 0.0
C1167 C 0.89197 0.32251 0.9892 0.0
C1168 C 0.87493 0.30642 0.99808 0.0
C1169 C 0.87541 0.28808 0.00227 0.0
C1170 C 0.89292 0.28571 0.99773 0.0
C1171 C 0.91001 0.3017 0.98903 0.0
C1172 C 0.9096 0.32006 0.9848 0.0
C1173 C 0.94139 0.4334 0.00781 0.0
C1174 C 0.96236 0.4406 1.00184 0.0
C1175 C 0.92416 0.41379 0.00295 0.0
C1176 C 0.92746 0.40095 0.99198 0.0
C1177 C 0.94844 0.4078 0.98629 0.0
C1178 C 0.96572 0.4275 0.99109 0.0
C1179 C 0.9089 0.3806 0.98618 0.0
C1180 C 0.90899 0.36172 0.98921 0.0
C1181 C 0.89086 0.3797 0.97824 0.0
C1182 C 0.89005 0.39919 0.9744 0.0
C1183 C 0.90656 0.41556 0.96533 0.0
C1184 C 0.90595 0.43409 0.96214 0.0
C1185 C 0.8888 0.43635 0.96782 0.0
C1186 C 0.87221 0.42007 0.97667 0.0
C1187 C 0.87276 0.40153 0.97993 0.0
H1188 H 0.88833 0.45068 0.96533 0.0
H1189 H 0.89326 0.2715 1.00097 0.0
H1190 H 0.70893 0.52528 0.93248 0.0
H1191 H 0.67531 0.52133 0.94331 0.0
H1192 H 0.70485 0.54038 0.99059 0.0
H1193 H 0.73854 0.54423 0.97982 0.0
H1194 H 0.665 0.50895 0.99376 0.0
H1195 H 0.69781 0.57476 0.96481 0.0
H1196 H 0.71392 0.59786 0.94111 0.0
H1197 H 0.65506 0.56113 0.9142 0.0
H1198 H 0.63869 0.53763 0.93768 0.0
H1199 H 0.5873 0.55765 0.9987 0.0
H1200 H 0.62138 0.55896 0.9926 0.0
H1201 H 0.58982 0.49094 0.99696 0.0
H1202 H 0.55605 0.4899 0.00407 0.0
H1203 H 0.63082 0.54622 0.96787 0.0
H1204 H 0.61625 0.47259 0.99815 0.0
H1205 H 0.60713 0.45253 0.02376 0.0
H1206 H 0.63672 0.51088 0.05078 0.0
H1207 H 0.64498 0.53113 0.02535 0.0
C1208 C 0.70835 0.52874 0.94518 0.0
C1209 C 0.72662 0.53526 0.95522 0.0
C1210 C 0.68904 0.52647 0.95138 0.0
C1211 C 0.68749 0.53088 0.96776 0.0
C1212 C 0.70552 0.53687 0.97791 0.0
C1213 C 0.72483 0.53904 0.97173 0.0
C1214 C 0.66722 0.52946 0.97428 0.0
C1215 C 0.65756 0.51714 0.98807 0.0
C1216 C 0.65736 0.54015 0.96704 0.0
C1217 C 0.66711 0.55432 0.95294 0.0
C1218 C 0.68836 0.57153 0.9538 0.0
C1219 C 0.69753 0.5847 0.94041 0.0
C1220 C 0.68554 0.58094 0.92614 0.0
C1221 C 0.66433 0.56401 0.92525 0.0
C1222 C 0.6551 0.55077 0.93859 0.0
C1223 C 0.58785 0.54306 0.99887 0.0
C1224 C 0.56904 0.52373 1.00205 0.0
C1225 C 0.60735 0.54376 0.99525 0.0
C1226 C 0.60855 0.52508 0.99425 0.0
C1227 C 0.58984 0.50574 0.99802 0.0
C1228 C 0.57036 0.5051 1.00203 0.0
C1229 C 0.62863 0.52594 0.98764 0.0
C1230 C 0.6382 0.53803 0.97364 0.0
C1231 C 0.63861 0.51532 0.99481 0.0
C1232 C 0.63082 0.50327 0.00996 0.0
C1233 C 0.62031 0.48104 0.0096 0.0
C1234 C 0.61529 0.46966 0.02406 0.0
C1235 C 0.62127 0.48042 0.03889 0.0
C1236 C 0.6319 0.50256 0.03929 0.0
C1237 C 0.63645 0.51398 0.02489 0.0
H1238 H 0.61769 0.4716 0.05008 0.0
H1239 H 0.69267 0.59115 0.9158 0.0
H1240 H 0.44758 0.16307 0.9415 0.0
H1241 H 0.4522 0.13522 0.95368 0.0
H1242 H 0.5105 0.1823 0.97752 0.0
H1243 H 0.50667 0.2104 0.96457 0.0
H1244 H 0.51654 0.15223 0.96582 0.0
H1245 H 0.46214 0.15346 0.99828 0.0
H1246 H 0.42819 0.15326 0.00405 0.0
H1247 H 0.39174 0.09163 0.98219 0.0
H1248 H 0.4255 0.09158 0.97609 0.0
H1249 H 0.52128 0.07685 0.01763 0.0
H1250 H 0.51679 0.10638 0.0088 0.0
H1251 H 0.46393 0.06416 0.97769 0.0
H1252 H 0.46814 0.03442 0.98654 0.0
H1253 H 0.45604 0.09289 0.995 0.0
H1254 H 0.51214 0.09333 0.96191 0.0
H1255 H 0.54664 0.09398 0.95772 0.0
H1256 H 0.58061 0.15358 0.98285 0.0
H1257 H 0.54625 0.15312 0.98742 0.0
C1258 C 0.46157 0.16758 0.94915 0.0
C1259 C 0.4768 0.18905 0.95198 0.0
C1260 C 0.46402 0.15159 0.95631 0.0
C1261 C 0.48151 0.15663 0.96675 0.0
C1262 C 0.49681 0.17802 0.96958 0.0
C1263 C 0.49448 0.19407 0.96228 0.0
C1264 C 0.48393 0.13951 0.97444 0.0
C1265 C 0.50342 0.13946 0.97243 0.0
C1266 C 0.46674 0.12266 0.98292 0.0
C1267 C 0.44638 0.1226 0.98661 0.0
C1268 C 0.44689 0.13993 0.9946 0.0
C1269 C 0.42768 0.13985 0.99794 0.0
C1270 C 0.40783 0.12247 0.99346 0.0
C1271 C 0.40714 0.1051 0.98565 0.0
C1272 C 0.42631 0.1051 0.98226 0.0
C1273 C 0.50848 0.07374 0.00908 0.0
C1274 C 0.49505 0.05325 0.00278 0.0
C1275 C 0.50604 0.09068 0.00399 0.0
C1276 C 0.49016 0.08745 0.99249 0.0
C1277 C 0.47629 0.06694 0.98656 0.0
C1278 C 0.47879 0.05 0.99159 0.0
C1279 C 0.48848 0.10558 0.98619 0.0
C1280 C 0.46916 0.10578 0.98847 0.0
C1281 C 0.5059 0.12267 0.97814 0.0
C1282 C 0.5266 0.1231 0.97514 0.0
C1283 C 0.52695 0.10651 0.96664 0.0
C1284 C 0.54648 0.10684 0.96419 0.0
C1285 C 0.5658 0.12379 0.97004 0.0
C1286 C 0.56563 0.14046 0.97834 0.0
C1287 C 0.54614 0.14017 0.98085 0.0
H1288 H 0.58091 0.12408 0.96811 0.0
H1289 H 0.39297 0.12244 0.99606 0.0
H1290 H 0.71792 0.20516 0.9854 0.0
H1291 H 0.68108 0.17677 0.99157 0.0
H1292 H 0.69303 0.13206 0.96577 0.0
H1293 H 0.72953 0.16047 0.9593 0.0
H1294 H 0.65365 0.12417 0.95933 0.0
H1295 H 0.69612 0.1373 0.00808 0.0
H1296 H 0.71951 0.1588 0.03071 0.0
H1297 H 0.67063 0.17268 0.04638 0.0
H1298 H 0.64705 0.15148 0.0237 0.0
H1299 H 0.58113 0.02597 0.99452 0.0
H1300 H 0.61484 0.05912 0.98959 0.0
H1301 H 0.58445 0.09475 0.00441 0.0
H1302 H 0.55041 0.0616 0.00872 0.0
H1303 H 0.63047 0.10932 0.01672 0.0
H1304 H 0.58663 0.0929 0.969 0.0
H1305 H 0.56314 0.06971 0.94708 0.0
H1306 H 0.61474 0.06082 0.92988 0.0
H1307 H 0.63844 0.08367 0.9519 0.0
C1308 C 0.71252 0.18928 0.98095 0.0
C1309 C 0.72659 0.18495 0.97201 0.0
C1310 C 0.69154 0.17304 0.98455 0.0
C1311 C 0.68432 0.15212 0.9794 0.0
C1312 C 0.69817 0.148 0.96995 0.0
C1313 C 0.71906 0.16423 0.96629 0.0
C1314 C 0.66262 0.13436 0.9841 0.0
C1315 C 0.6487 0.12092 0.97189 0.0
C1316 C 0.65578 0.13027 1.00047 0.0
C1317 C 0.66995 0.14305 0.01407 0.0
C1318 C 0.69044 0.1451 0.01627 0.0
C1319 C 0.70372 0.1572 0.02912 0.0
C1320 C 0.69659 0.16717 0.03995 0.0
C1321 C 0.67615 0.165 0.03797 0.0
C1322 C 0.66282 0.15294 0.02512 0.0
C1323 C 0.58175 0.04088 0.99697 0.0
C1324 C 0.56327 0.04118 0.00234 0.0
C1325 C 0.60097 0.05977 0.99414 0.0
C1326 C 0.6021 0.07935 0.99663 0.0
C1327 C 0.58392 0.07978 0.00253 0.0
C1328 C 0.56452 0.06082 0.00509 0.0
C1329 C 0.62192 0.09916 0.99199 0.0
C1330 C 0.63541 0.11286 0.00417 0.0
C1331 C 0.62842 0.10346 0.97561 0.0
C1332 C 0.61428 0.08989 0.96221 0.0
C1333 C 0.59294 0.08588 0.96064 0.0
C1334 C 0.57958 0.07281 0.94817 0.0
C1335 C 0.58744 0.06377 0.93711 0.0
C1336 C 0.60868 0.06783 0.93847 0.0
C1337 C 0.62208 0.08085 0.95094 0.0
H1338 H 0.57708 0.05365 0.92747 0.0
H1339 H 0.70689 0.17652 0.04989 0.0
H1340 H 0.80603 0.50791 0.98524 0.0
H1341 H 0.83519 0.5 0.99027 0.0
H1342 H 0.87899 0.55508 0.96275 0.0
H1343 H 0.84976 0.56262 0.95742 0.0
H1344 H 0.88695 0.52441 0.95638 0.0
H1345 H 0.87668 0.5543 0.00551 0.0
H1346 H 0.85635 0.55655 0.02879 0.0
H1347 H 0.843 0.49518 0.04476 0.0
H1348 H 0.86302 0.49244 0.02144 0.0
H1349 H 0.98915 0.55093 0.98966 0.0
H1350 H 0.95538 0.55098 0.98446 0.0
H1351 H 0.91889 0.48649 1.00103 0.0
H1352 H 0.95266 0.48608 0.00559 0.0
H1353 H 0.90536 0.51767 0.01326 0.0
H1354 H 0.91816 0.48918 0.96516 0.0
H1355 H 0.94005 0.48799 0.9426 0.0
H1356 H 0.94967 0.54754 0.9252 0.0
H1357 H 0.9281 0.54925 0.94785 0.0
C1358 C 0.82184 0.51814 0.98013 0.0
C1359 C 0.82567 0.536 0.97109 0.0
C1360 C 0.83856 0.51372 0.9831 0.0
C1361 C 0.85955 0.52718 0.97721 0.0
C1362 C 0.86307 0.54447 0.96754 0.0
C1363 C 0.84634 0.54882 0.96451 0.0
C1364 C 0.87801 0.52372 0.98139 0.0
C1365 C 0.89098 0.52309 0.96884 0.0
C1366 C 0.88319 0.52145 0.99763 0.0
C1367 C 0.87109 0.52305 0.01161 0.0
C1368 C 0.86924 0.54121 0.0139 0.0
C1369 C 0.8578 0.54258 0.02712 0.0
C1370 C 0.84832 0.52598 0.03821 0.0
C1371 C 0.8503 0.508 0.03613 0.0
C1372 C 0.86169 0.50653 0.02292 0.0
C1373 C 0.97393 0.53683 0.99235 0.0
C1374 C 0.97363 0.5187 0.99844 0.0
C1375 C 0.95466 0.53687 0.98936 0.0
C1376 C 0.9346 0.51878 0.99241 0.0
C1377 C 0.93418 0.50069 0.99872 0.0
C1378 C 0.95351 0.50053 1.00144 0.0
C1379 C 0.91424 0.51871 0.98828 0.0
C1380 C 0.90106 0.51875 1.00082 0.0
C1381 C 0.90888 0.52048 0.97207 0.0
C1382 C 0.92165 0.51943 0.9583 0.0
C1383 C 0.92507 0.5021 0.95661 0.0
C1384 C 0.93741 0.50132 0.94379 0.0
C1385 C 0.94629 0.51771 0.93249 0.0
C1386 C 0.94279 0.53487 0.93397 0.0
C1387 C 0.9305 0.53575 0.9468 0.0
H1388 H 0.95584 0.51708 0.92257 0.0
H1389 H 0.83948 0.52709 0.04844 0.0
H1390 H 0.49039 0.28429 0.98739 0.0
H1391 H 0.49816 0.32034 0.99375 0.0
H1392 H 0.45707 0.31716 0.95412 0.0
H1393 H 0.44965 0.28124 0.94759 0.0
H1394 H 0.49286 0.35559 0.95566 0.0
H1395 H 0.43856 0.30897 0.99281 0.0
H1396 H 0.42223 0.28096 0.01343 0.0
H1397 H 0.47494 0.3182 0.04597 0.0
H1398 H 0.49175 0.34632 0.02545 0.0
H1399 H 0.4766 0.43969 0.98277 0.0
H1400 H 0.47052 0.40475 0.97487 0.0
H1401 H 0.51534 0.40889 0.01178 0.0
H1402 H 0.5218 0.44387 0.01963 0.0
H1403 H 0.47729 0.37012 0.01133 0.0
H1404 H 0.53128 0.41705 0.97377 0.0
H1405 H 0.54613 0.44552 0.95344 0.0
H1406 H 0.49254 0.40788 0.92173 0.0
H1407 H 0.4772 0.37926 0.94197 0.0
C1408 C 0.4831 0.29138 0.98006 0.0
C1409 C 0.46903 0.27992 0.96728 0.0
C1410 C 0.48749 0.3119 0.98369 0.0
C1411 C 0.47784 0.32129 0.97461 0.0
C1412 C 0.46456 0.31018 0.96136 0.0
C1413 C 0.46023 0.28967 0.9577 0.0
C1414 C 0.48107 0.34237 0.97928 0.0
C1415 C 0.48922 0.3587 0.96778 0.0
C1416 C 0.47659 0.34653 0.99515 0.0
C1417 C 0.46652 0.32965 0.00753 0.0
C1418 C 0.44676 0.31111 0.00431 0.0
C1419 C 0.4374 0.29522 0.01599 0.0
C1420 C 0.44758 0.29777 0.03098 0.0
C1421 C 0.4671 0.31623 0.03434 0.0
C1422 C 0.47654 0.33216 0.0227 0.0
C1423 C 0.48517 0.43319 0.98923 0.0
C1424 C 0.49958 0.44457 1.00192 0.0
C1425 C 0.4817 0.41324 0.98466 0.0
C1426 C 0.49258 0.40432 0.99269 0.0
C1427 C 0.50675 0.41549 0.00547 0.0
C1428 C 0.51035 0.43548 0.00997 0.0
C1429 C 0.4892 0.3833 0.98777 0.0
C1430 C 0.48097 0.367 0.99923 0.0
C1431 C 0.49349 0.37917 0.97186 0.0
C1432 C 0.50298 0.39609 0.95946 0.0
C1433 C 0.5226 0.41488 0.9625 0.0
C1434 C 0.53111 0.43104 0.95099 0.0
C1435 C 0.52024 0.42855 0.93633 0.0
C1436 C 0.50091 0.40981 0.9331 0.0
C1437 C 0.49232 0.39359 0.94458 0.0
H1438 H 0.52681 0.44112 0.92746 0.0
H1439 H 0.4403 0.28546 0.04001 0.0
H1440 H 0.17387 0.73318 0.0683 0.0
H1441 H 0.14559 0.69674 0.06237 0.0
H1442 H 0.18996 0.68832 0.03214 0.0
H1443 H 0.21813 0.72504 0.0378 0.0
H1444 H 0.15242 0.67337 0.01715 0.0
H1445 H 0.17454 0.66519 0.07008 0.0
H1446 H 0.18297 0.67292 0.09914 0.0
H1447 H 0.11761 0.65764 0.10827 0.0
H1448 H 0.10886 0.65011 0.07921 0.0
H1449 H 0.08619 0.5623 0.00733 0.0
H1450 H 0.11548 0.59751 0.01459 0.0
H1451 H 0.07186 0.60756 0.04439 0.0
H1452 H 0.04245 0.57205 0.03744 0.0
H1453 H 0.10949 0.62134 0.05963 0.0
H1454 H 0.08797 0.63033 0.0062 0.0
H1455 H 0.07977 0.62164 0.9772 0.0
H1456 H 0.14462 0.63465 0.96916 0.0
H1457 H 0.15314 0.64319 0.99816 0.0
C1458 C 0.17757 0.72349 0.06046 0.0
C1459 C 0.19809 0.73193 0.05337 0.0
C1460 C 0.16145 0.70262 0.05713 0.0
C1461 C 0.16562 0.68965 0.04688 0.0
C1462 C 0.18629 0.69799 0.04005 0.0
C1463 C 0.20239 0.7189 0.04332 0.0
C1464 C 0.14823 0.66767 0.04284 0.0
C1465 C 0.14327 0.66192 0.02646 0.0
C1466 C 0.1359 0.65278 0.05494 0.0
C1467 C 0.14111 0.65729 0.07243 0.0
C1468 C 0.16201 0.66365 0.07826 0.0
C1469 C 0.16684 0.66796 0.09474 0.0
C1470 C 0.15085 0.66583 0.10554 0.0
C1471 C 0.12999 0.65932 0.09989 0.0
C1472 C 0.12508 0.65501 0.08341 0.0
C1473 C 0.08272 0.572 0.01535 0.0
C1474 C 0.06185 0.56436 0.02168 0.0
C1475 C 0.09954 0.5922 0.01948 0.0
C1476 C 0.09586 0.60539 0.02986 0.0
C1477 C 0.0751 0.59773 0.03633 0.0
C1478 C 0.05827 0.57743 0.0323 0.0
C1479 C 0.11366 0.62712 0.03397 0.0
C1480 C 0.11868 0.63282 0.05034 0.0
C1481 C 0.1261 0.64194 0.02187 0.0
C1482 C 0.12114 0.63726 0.00437 0.0
C1483 C 0.10045 0.63127 0.99825 0.0
C1484 C 0.09576 0.62639 0.98182 0.0
C1485 C 0.11167 0.62759 0.97135 0.0
C1486 C 0.13232 0.63374 0.97728 0.0
C1487 C 0.13711 0.63864 0.99371 0.0
H1488 H 0.10798 0.62375 0.95864 0.0
H1489 H 0.15462 0.66917 0.1183 0.0
H1490 H 0.3034 0.47119 0.08158 0.0
H1491 H 0.33976 0.47882 0.0736 0.0
H1492 H 0.32357 0.48066 0.02349 0.0
H1493 H 0.28739 0.473 0.03143 0.0
H1494 H 0.33974 0.45507 0.02716 0.0
H1495 H 0.35996 0.52563 0.04448 0.0
H1496 H 0.36348 0.55349 0.06336 0.0
H1497 H 0.40037 0.5382 0.09616 0.0
H1498 H 0.39678 0.51001 0.07761 0.0
H1499 H 0.46742 0.52008 0.01728 0.0
H1500 H 0.43244 0.5181 0.02132 0.0
H1501 H 0.40432 0.45239 0.03461 0.0
H1502 H 0.43882 0.45412 0.02978 0.0
H1503 H 0.41055 0.51175 0.04782 0.0
H1504 H 0.35923 0.42624 0.03144 0.0
H1505 H 0.35455 0.39948 0.01092 0.0
H1506 H 0.37819 0.44718 0.97405 0.0
H1507 H 0.38332 0.47426 0.99452 0.0
C1508 C 0.30784 0.47369 0.06891 0.0
C1509 C 0.29256 0.47155 0.05715 0.0
C1510 C 0.32862 0.47806 0.06434 0.0
C1511 C 0.33454 0.48036 0.0479 0.0
C1512 C 0.31948 0.47893 0.03623 0.0
C1513 C 0.29879 0.47463 0.04079 0.0
C1514 C 0.35564 0.48256 0.04266 0.0
C1515 C 0.35518 0.46754 0.0317 0.0
C1516 C 0.37597 0.49878 0.04846 0.0
C1517 C 0.37787 0.51553 0.05973 0.0
C1518 C 0.36861 0.52804 0.0558 0.0
C1519 C 0.37067 0.54393 0.06643 0.0
C1520 C 0.38208 0.54757 0.08097 0.0
C1521 C 0.39149 0.53534 0.08491 0.0
C1522 C 0.38945 0.51941 0.07434 0.0
C1523 C 0.45357 0.50503 0.02045 0.0
C1524 C 0.45578 0.48708 0.02276 0.0
C1525 C 0.43356 0.50394 0.02296 0.0
C1526 C 0.41536 0.48495 0.028 0.0
C1527 C 0.41765 0.46704 0.03017 0.0
C1528 C 0.43753 0.46808 0.02753 0.0
C1529 C 0.39459 0.48423 0.03234 0.0
C1530 C 0.39508 0.49938 0.04323 0.0
C1531 C 0.37422 0.46818 0.02652 0.0
C1532 C 0.37212 0.45225 0.01446 0.0
C1533 C 0.36362 0.431 0.01897 0.0
C1534 C 0.36092 0.41581 0.00738 0.0
C1535 C 0.36628 0.42168 0.99121 0.0
C1536 C 0.37432 0.44273 0.98661 0.0
C1537 C 0.37732 0.45802 0.99821 0.0
H1538 H 0.36406 0.40989 0.98223 0.0
H1539 H 0.38367 0.5599 0.08917 0.0
H1540 H 0.57254 0.84192 0.07167 0.0
H1541 H 0.56446 0.86998 0.06507 0.0
H1542 H 0.51616 0.82841 0.03055 0.0
H1543 H 0.52465 0.80047 0.03692 0.0
H1544 H 0.54023 0.86631 0.01779 0.0
H1545 H 0.50231 0.84004 0.06751 0.0
H1546 H 0.49725 0.82936 0.09619 0.0
H1547 H 0.54431 0.89273 0.11043 0.0
H1548 H 0.54991 0.90373 0.08179 0.0
H1549 H 0.49347 0.93145 0.00627 0.0
H1550 H 0.49921 0.90215 0.01327 0.0
H1551 H 0.54979 0.94266 0.0467 0.0
H1552 H 0.54402 0.97208 0.0399 0.0
H1553 H 0.52326 0.90453 0.05984 0.0
H1554 H 0.56147 0.93003 0.00936 0.0
H1555 H 0.56482 0.94022 0.9806 0.0
H1556 H 0.51504 0.8773 0.96783 0.0
H1557 H 0.51121 0.86679 0.99655 0.0
C1558 C 0.56024 0.83884 0.06266 0.0
C1559 C 0.54939 0.81921 0.05461 0.0
C1560 C 0.55551 0.8548 0.05897 0.0
C1561 C 0.53957 0.85127 0.04739 0.0
C1562 C 0.52855 0.83153 0.03949 0.0
C1563 C 0.53336 0.8156 0.04313 0.0
C1564 C 0.53481 0.86834 0.04324 0.0
C1565 C 0.53621 0.87445 0.02697 0.0
C1566 C 0.52993 0.87924 0.05524 0.0
C1567 C 0.52669 0.87265 0.07248 0.0
C1568 C 0.51173 0.85165 0.07674 0.0
C1569 C 0.50874 0.84555 0.09299 0.0
C1570 C 0.52049 0.86034 0.10512 0.0
C1571 C 0.53524 0.88128 0.10102 0.0
C1572 C 0.53833 0.88746 0.08478 0.0
C1573 C 0.50595 0.93423 0.01502 0.0
C1574 C 0.51844 0.95421 0.0224 0.0
C1575 C 0.5092 0.91743 0.01901 0.0
C1576 C 0.52512 0.92028 0.03036 0.0
C1577 C 0.53744 0.94012 0.03789 0.0
C1578 C 0.53416 0.95694 0.03395 0.0
C1579 C 0.52888 0.90256 0.03445 0.0
C1580 C 0.52726 0.89635 0.05069 0.0
C1581 C 0.53341 0.89146 0.02242 0.0
C1582 C 0.53596 0.89767 0.00512 0.0
C1583 C 0.55117 0.91839 1.00043 0.0
C1584 C 0.55318 0.92422 0.98413 0.0
C1585 C 0.54016 0.90941 0.9724 0.0
C1586 C 0.52513 0.88874 0.97693 0.0
C1587 C 0.52306 0.88283 0.99321 0.0
H1588 H 0.5417 0.91396 0.95979 0.0
H1589 H 0.51813 0.85559 0.1177 0.0
H1590 H 0.95366 0.18508 0.40993 0.0
H1591 H 0.98685 0.21457 0.39903 0.0
H1592 H 0.00831 0.17118 0.3846 0.0
H1593 H 0.97509 0.14154 0.39563 0.0
H1594 H 0.04028 0.20681 0.40052 0.0
H1595 H 0.99091 0.19154 0.35638 0.0
H1596 H 0.95705 0.18502 0.34328 0.0
H1597 H 0.97018 0.24716 0.35727 0.0
H1598 H 1.00398 0.25395 0.37067 0.0
H1599 H 0.1306 0.28506 0.35747 0.0
H1600 H 0.09644 0.25272 0.36283 0.0
H1601 H 0.06777 0.29027 0.37681 0.0
H1602 H 0.10192 0.32272 0.3711 0.0
H1603 H 0.03957 0.25583 0.35925 0.0
H1604 H 0.08665 0.27044 0.40508 0.0
H1605 H 0.12 0.27749 0.41935 0.0
H1606 H 0.11085 0.2174 0.40338 0.0
H1607 H 0.07758 0.21013 0.38881 0.0
C1608 C 0.96545 0.18181 0.40446 0.0
C1609 C 0.96175 0.16096 0.40368 0.0
C1610 C 0.98436 0.19866 0.39813 0.0
C1611 C 1.00003 0.19509 0.39089 0.0
C1612 C 0.99642 0.17431 0.39009 0.0
C1613 C 0.97739 0.15738 0.39631 0.0
C1614 C 0.02036 0.21317 0.38453 0.0
C1615 C 0.04016 0.2173 0.39127 0.0
C1616 C 0.02018 0.22718 0.37275 0.0
C1617 C 0.9999 0.22318 0.36465 0.0
C1618 C 0.9865 0.20375 0.35678 0.0
C1619 C 0.96733 0.20002 0.34928 0.0
C1620 C 0.96144 0.21564 0.34947 0.0
C1621 C 0.97475 0.23506 0.35714 0.0
C1622 C 0.99393 0.23887 0.36468 0.0
C1623 C 0.1169 0.28644 0.36128 0.0
C1624 C 0.1188 0.30642 0.36357 0.0
C1625 C 0.09742 0.26792 0.36453 0.0
C1626 C 0.07957 0.26904 0.37039 0.0
C1627 C 0.08129 0.28899 0.37227 0.0
C1628 C 0.10078 0.30751 0.36904 0.0
C1629 C 0.05946 0.24956 0.37535 0.0
C1630 C 0.03971 0.2452 0.36837 0.0
C1631 C 0.05967 0.23545 0.38703 0.0
C1632 C 0.07975 0.23984 0.39569 0.0
C1633 C 0.09185 0.25882 0.40448 0.0
C1634 C 0.11072 0.26284 0.41265 0.0
C1635 C 0.11756 0.24793 0.41224 0.0
C1636 C 0.10554 0.22895 0.40367 0.0
C1637 C 0.08668 0.22487 0.39545 0.0
H1638 H 0.13214 0.25104 0.41861 0.0
H1639 H 0.9466 0.21272 0.34366 0.0
H1640 H 0.85636 0.82092 0.42822 0.0
H1641 H 0.82692 0.82551 0.41782 0.0
H1642 H 0.83304 0.80279 0.37095 0.0
H1643 H 0.8627 0.79826 0.38131 0.0
H1644 H 0.8261 0.8353 0.36761 0.0
H1645 H 0.79288 0.77057 0.39838 0.0
H1646 H 0.7875 0.74925 0.42289 0.0
H1647 H 0.76873 0.78817 0.44949 0.0
H1648 H 0.77427 0.8099 0.42518 0.0
H1649 H 0.69878 0.78606 0.3647 0.0
H1650 H 0.73195 0.78552 0.37103 0.0
H1651 H 0.76865 0.85345 0.36569 0.0
H1652 H 0.73572 0.85364 0.35805 0.0
H1653 H 0.75534 0.79948 0.39543 0.0
H1654 H 0.80993 0.87175 0.36449 0.0
H1655 H 0.82186 0.89261 0.3393 0.0
H1656 H 0.80164 0.83551 0.31182 0.0
H1657 H 0.78836 0.81434 0.33675 0.0
C1658 C 0.85147 0.81688 0.41568 0.0
C1659 C 0.8618 0.80897 0.40566 0.0
C1660 C 0.83456 0.8195 0.40975 0.0
C1661 C 0.82734 0.81409 0.39366 0.0
C1662 C 0.83818 0.80699 0.38343 0.0
C1663 C 0.85522 0.80447 0.38935 0.0
C1664 C 0.8083 0.81549 0.3876 0.0
C1665 C 0.81059 0.8274 0.37369 0.0
C1666 C 0.78802 0.80533 0.39549 0.0
C1667 C 0.78416 0.79197 0.41 0.0
C1668 C 0.78769 0.77464 0.40948 0.0
C1669 C 0.78462 0.76248 0.42333 0.0
C1670 C 0.77784 0.76739 0.43775 0.0
C1671 C 0.77401 0.7844 0.43832 0.0
C1672 C 0.77709 0.79663 0.4245 0.0
C1673 C 0.71407 0.80077 0.36436 0.0
C1674 C 0.71463 0.8198 0.36058 0.0
C1675 C 0.73311 0.80052 0.36809 0.0
C1676 C 0.75325 0.81941 0.3687 0.0
C1677 C 0.7538 0.83846 0.36469 0.0
C1678 C 0.73478 0.83862 0.36046 0.0
C1679 C 0.77286 0.81902 0.37508 0.0
C1680 C 0.77075 0.80737 0.38924 0.0
C1681 C 0.79333 0.82935 0.36741 0.0
C1682 C 0.79751 0.84149 0.35233 0.0
C1683 C 0.80738 0.86366 0.35298 0.0
C1684 C 0.8144 0.87553 0.33876 0.0
C1685 C 0.81237 0.86539 0.32393 0.0
C1686 C 0.80294 0.84334 0.32327 0.0
C1687 C 0.79528 0.83137 0.33738 0.0
H1688 H 0.81816 0.8746 0.31296 0.0
H1689 H 0.77552 0.75799 0.44848 0.0
H1690 H 0.178 0.04566 0.40346 0.0
H1691 H 0.17183 0.01167 0.39232 0.0
H1692 H 0.24067 0.03694 0.3894 0.0
H1693 H 0.24687 0.07062 0.40097 0.0
H1694 H 0.21261 0.01231 0.36016 0.0
H1695 H 0.22256 0.0097 0.41863 0.0
H1696 H 0.2139 0.01237 0.44714 0.0
H1697 H 0.14797 0.96407 0.43888 0.0
H1698 H 0.15623 0.96121 0.41027 0.0
H1699 H 0.21414 0.90886 0.37517 0.0
H1700 H 0.21817 0.94258 0.38431 0.0
H1701 H 0.16923 0.93571 0.35018 0.0
H1702 H 0.16471 0.90179 0.34117 0.0
H1703 H 0.1867 0.95121 0.39754 0.0
H1704 H 0.18629 0.98613 0.33562 0.0
H1705 H 0.19388 0.98218 0.30707 0.0
H1706 H 0.2409 0.9654 0.32221 0.0
H1707 H 0.23382 0.96955 0.35083 0.0
C1708 C 0.19174 0.04392 0.40028 0.0
C1709 C 0.21288 0.06057 0.40305 0.0
C1710 C 0.18822 0.02461 0.39396 0.0
C1711 C 0.20582 0.02193 0.39005 0.0
C1712 C 0.22693 0.03881 0.3923 0.0
C1713 C 0.23044 0.05792 0.39893 0.0
C1714 C 0.20233 0.00118 0.38444 0.0
C1715 C 0.20686 0.99891 0.36828 0.0
C1716 C 0.19489 0.9838 0.39509 0.0
C1717 C 0.18995 0.98542 0.41229 0.0
C1718 C 0.20618 0.99977 0.42286 0.0
C1719 C 0.20136 0.00127 0.43905 0.0
C1720 C 0.18039 0.9884 0.44482 0.0
C1721 C 0.16421 0.97399 0.43441 0.0
C1722 C 0.16896 0.97241 0.41821 0.0
C1723 C 0.20422 0.91448 0.36958 0.0
C1724 C 0.18927 0.90269 0.35729 0.0
C1725 C 0.2065 0.93371 0.37488 0.0
C1726 C 0.19407 0.94162 0.36787 0.0
C1727 C 0.1791 0.92992 0.35564 0.0
C1728 C 0.17666 0.91059 0.35044 0.0
C1729 C 0.19701 0.96229 0.37323 0.0
C1730 C 0.19233 0.96455 0.38936 0.0
C1731 C 0.20426 0.97962 0.36252 0.0
C1732 C 0.20939 0.978 0.34536 0.0
C1733 C 0.19836 0.98176 0.33285 0.0
C1734 C 0.20255 0.97945 0.31665 0.0
C1735 C 0.21783 0.97349 0.31283 0.0
C1736 C 0.22904 0.96996 0.32519 0.0
C1737 C 0.22494 0.97228 0.3414 0.0
H1738 H 0.22098 0.97163 0.30029 0.0
H1739 H 0.17669 0.98957 0.45735 0.0
H1740 H 0.5139 0.61246 0.28038 0.0
H1741 H 0.54279 0.64561 0.29143 0.0
H1742 H 0.4957 0.65778 0.31409 0.0
H1743 H 0.46649 0.62494 0.30231 0.0
H1744 H 0.52604 0.69282 0.30068 0.0
H1745 H 0.52656 0.64155 0.33614 0.0
H1746 H 0.52727 0.6092 0.34369 0.0
H1747 H 0.5891 0.63325 0.32095 0.0
H1748 H 0.58863 0.66563 0.31307 0.0
H1749 H 0.60289 0.77678 0.35002 0.0
H1750 H 0.57318 0.7424 0.34151 0.0
H1751 H 0.61725 0.73144 0.31309 0.0
H1752 H 0.64731 0.76588 0.32173 0.0
H1753 H 0.5879 0.69582 0.33056 0.0
H1754 H 0.58631 0.74727 0.29489 0.0
H1755 H 0.58542 0.77992 0.28874 0.0
H1756 H 0.52487 0.75544 0.3135 0.0
H1757 H 0.52558 0.72277 0.32004 0.0
C1758 C 0.50959 0.62222 0.28759 0.0
C1759 C 0.48776 0.616 0.29033 0.0
C1760 C 0.52621 0.64111 0.2941 0.0
C1761 C 0.52153 0.65417 0.3038 0.0
C1762 C 0.49977 0.64798 0.30669 0.0
C1763 C 0.48306 0.62907 0.30007 0.0
C1764 C 0.5394 0.67445 0.31054 0.0
C1765 C 0.53937 0.69339 0.30744 0.0
C1766 C 0.55708 0.67538 0.31914 0.0
C1767 C 0.55746 0.65594 0.32389 0.0
C1768 C 0.54024 0.63987 0.33265 0.0
C1769 C 0.54061 0.62154 0.337 0.0
C1770 C 0.5582 0.61915 0.33277 0.0
C1771 C 0.57548 0.63511 0.32421 0.0
C1772 C 0.57518 0.65347 0.31981 0.0
C1773 C 0.60642 0.767 0.34213 0.0
C1774 C 0.62758 0.77412 0.33661 0.0
C1775 C 0.58932 0.74737 0.33718 0.0
C1776 C 0.59293 0.73442 0.32653 0.0
C1777 C 0.61409 0.74119 0.3213 0.0
C1778 C 0.63124 0.76092 0.32621 0.0
C1779 C 0.57453 0.71405 0.32058 0.0
C1780 C 0.5745 0.69516 0.32384 0.0
C1781 C 0.55671 0.71315 0.31226 0.0
C1782 C 0.55609 0.73264 0.30807 0.0
C1783 C 0.57288 0.7489 0.29912 0.0
C1784 C 0.5724 0.76741 0.29555 0.0
C1785 C 0.55512 0.76976 0.30075 0.0
C1786 C 0.53826 0.75359 0.30949 0.0
C1787 C 0.53868 0.73507 0.31312 0.0
H1788 H 0.55474 0.78407 0.29796 0.0
H1789 H 0.55846 0.60494 0.33615 0.0
H1790 H 0.40492 0.88453 0.31177 0.0
H1791 H 0.37099 0.8806 0.32211 0.0
H1792 H 0.33778 0.84524 0.27912 0.0
H1793 H 0.37192 0.85025 0.26846 0.0
H1794 H 0.32328 0.86892 0.28441 0.0
H1795 H 0.33308 0.82286 0.31958 0.0
H1796 H 0.35168 0.81168 0.33901 0.0
H1797 H 0.35583 0.85794 0.37339 0.0
H1798 H 0.33752 0.86961 0.35407 0.0
H1799 H 0.22193 0.82707 0.33884 0.0
H1800 H 0.2553 0.82691 0.33214 0.0
H1801 H 0.28473 0.89219 0.31743 0.0
H1802 H 0.25157 0.89248 0.32432 0.0
H1803 H 0.29856 0.84963 0.34111 0.0
H1804 H 0.31064 0.89749 0.28189 0.0
H1805 H 0.28814 0.90227 0.26148 0.0
H1806 H 0.23426 0.84139 0.27332 0.0
H1807 H 0.25651 0.83611 0.29361 0.0
C1808 C 0.39031 0.87577 0.30462 0.0
C1809 C 0.39111 0.8677 0.2893 0.0
C1810 C 0.37081 0.8734 0.31058 0.0
C1811 C 0.35146 0.86234 0.30157 0.0
C1812 C 0.3523 0.85394 0.28637 0.0
C1813 C 0.37185 0.85673 0.28027 0.0
C1814 C 0.3306 0.86025 0.30756 0.0
C1815 C 0.31802 0.86466 0.29682 0.0
C1816 C 0.32306 0.85417 0.32366 0.0
C1817 C 0.33413 0.84726 0.3353 0.0
C1818 C 0.33812 0.83077 0.33123 0.0
C1819 C 0.34858 0.82432 0.34224 0.0
C1820 C 0.35498 0.83413 0.35741 0.0
C1821 C 0.35089 0.85038 0.36162 0.0
C1822 C 0.34045 0.8569 0.35066 0.0
C1823 C 0.23569 0.84153 0.33459 0.0
C1824 C 0.2342 0.8599 0.33231 0.0
C1825 C 0.25477 0.8414 0.33069 0.0
C1826 C 0.27252 0.85948 0.32411 0.0
C1827 C 0.27123 0.87798 0.32234 0.0
C1828 C 0.25228 0.87815 0.32632 0.0
C1829 C 0.29187 0.85879 0.31804 0.0
C1830 C 0.30403 0.85387 0.32873 0.0
C1831 C 0.29862 0.86354 0.30173 0.0
C1832 C 0.28521 0.86653 0.2894 0.0
C1833 C 0.29402 0.8851 0.2801 0.0
C1834 C 0.2813 0.88789 0.26855 0.0
C1835 C 0.25976 0.87218 0.26615 0.0
C1836 C 0.25091 0.85359 0.27524 0.0
C1837 C 0.26357 0.85071 0.28678 0.0
H1838 H 0.24995 0.87438 0.25721 0.0
H1839 H 0.36308 0.82911 0.36591 0.0
H1840 H 0.11714 0.50094 0.27688 0.0
H1841 H 0.12136 0.47325 0.28984 0.0
H1842 H 0.17867 0.52063 0.31452 0.0
H1843 H 0.17515 0.54859 0.30093 0.0
H1844 H 0.18494 0.49004 0.30315 0.0
H1845 H 0.13039 0.49256 0.33457 0.0
H1846 H 0.09657 0.4929 0.33962 0.0
H1847 H 0.05993 0.43096 0.31831 0.0
H1848 H 0.09357 0.43036 0.31292 0.0
H1849 H 0.18839 0.4143 0.35496 0.0
H1850 H 0.18443 0.44413 0.34622 0.0
H1851 H 0.13036 0.40226 0.3159 0.0
H1852 H 0.13391 0.37218 0.32479 0.0
H1853 H 0.12358 0.43159 0.33234 0.0
H1854 H 0.1795 0.43071 0.29987 0.0
H1855 H 0.21367 0.43052 0.29625 0.0
H1856 H 0.24822 0.49021 0.32119 0.0
H1857 H 0.21419 0.49059 0.3252 0.0
C1858 C 0.13082 0.50554 0.2849 0.0
C1859 C 0.14586 0.52703 0.28781 0.0
C1860 C 0.13304 0.48965 0.29248 0.0
C1861 C 0.15014 0.49484 0.30335 0.0
C1862 C 0.16528 0.51626 0.30623 0.0
C1863 C 0.16314 0.53222 0.29856 0.0
C1864 C 0.15227 0.47782 0.31147 0.0
C1865 C 0.17164 0.47747 0.30976 0.0
C1866 C 0.13483 0.46124 0.31995 0.0
C1867 C 0.11453 0.46149 0.32322 0.0
C1868 C 0.11514 0.47907 0.33085 0.0
C1869 C 0.096 0.4793 0.33379 0.0
C1870 C 0.07612 0.46198 0.32926 0.0
C1871 C 0.07534 0.44437 0.32181 0.0
C1872 C 0.09444 0.44407 0.31882 0.0
C1873 C 0.17541 0.41131 0.34664 0.0
C1874 C 0.16146 0.39081 0.34057 0.0
C1875 C 0.17328 0.42844 0.34158 0.0
C1876 C 0.15727 0.42542 0.33028 0.0
C1877 C 0.14285 0.4049 0.32462 0.0
C1878 C 0.14496 0.38775 0.32967 0.0
C1879 C 0.15607 0.44373 0.3238 0.0
C1880 C 0.13689 0.44429 0.32582 0.0
C1881 C 0.17373 0.46057 0.31574 0.0
C1882 C 0.19427 0.46059 0.31296 0.0
C1883 C 0.19437 0.44374 0.30466 0.0
C1884 C 0.21371 0.44359 0.30254 0.0
C1885 C 0.2331 0.46032 0.30852 0.0
C1886 C 0.23319 0.47726 0.31658 0.0
C1887 C 0.21388 0.47745 0.31877 0.0
H1888 H 0.24806 0.46021 0.30688 0.0
H1889 H 0.06132 0.46219 0.33155 0.0
H1890 H 0.38389 0.53839 0.31887 0.0
H1891 H 0.34691 0.51014 0.32485 0.0
H1892 H 0.35805 0.4657 0.29785 0.0
H1893 H 0.39471 0.49399 0.29158 0.0
H1894 H 0.3188 0.45848 0.29176 0.0
H1895 H 0.36126 0.4697 0.34017 0.0
H1896 H 0.38486 0.49021 0.36303 0.0
H1897 H 0.33664 0.50441 0.37983 0.0
H1898 H 0.31286 0.48422 0.35693 0.0
H1899 H 0.24357 0.35991 0.32615 0.0
H1900 H 0.27761 0.39239 0.32032 0.0
H1901 H 0.25064 0.42992 0.33802 0.0
H1902 H 0.21631 0.39751 0.34326 0.0
H1903 H 0.29558 0.44251 0.34907 0.0
H1904 H 0.25181 0.42821 0.30173 0.0
H1905 H 0.22803 0.40641 0.27941 0.0
H1906 H 0.27866 0.39686 0.26094 0.0
H1907 H 0.30265 0.41832 0.28335 0.0
C1908 C 0.37828 0.5226 0.31412 0.0
C1909 C 0.39218 0.51831 0.30491 0.0
C1910 C 0.35723 0.50644 0.31761 0.0
C1911 C 0.34974 0.48562 0.31206 0.0
C1912 C 0.36341 0.48156 0.30234 0.0
C1913 C 0.38438 0.49772 0.29879 0.0
C1914 C 0.32794 0.46791 0.31663 0.0
C1915 C 0.31385 0.45494 0.3043 0.0
C1916 C 0.3211 0.46348 0.33299 0.0
C1917 C 0.33542 0.4757 0.34671 0.0
C1918 C 0.35578 0.47737 0.34865 0.0
C1919 C 0.36917 0.4889 0.36163 0.0
C1920 C 0.36229 0.49868 0.37284 0.0
C1921 C 0.34197 0.49688 0.37111 0.0
C1922 C 0.32854 0.4854 0.35814 0.0
C1923 C 0.24501 0.37509 0.32897 0.0
C1924 C 0.22746 0.37614 0.33554 0.0
C1925 C 0.26441 0.3936 0.32561 0.0
C1926 C 0.26663 0.41353 0.32876 0.0
C1927 C 0.24929 0.41468 0.33562 0.0
C1928 C 0.22973 0.39613 0.33872 0.0
C1929 C 0.28684 0.43305 0.32423 0.0
C1930 C 0.30055 0.44627 0.33654 0.0
C1931 C 0.29337 0.43765 0.30788 0.0
C1932 C 0.27899 0.42475 0.29434 0.0
C1933 C 0.25783 0.42132 0.29301 0.0
C1934 C 0.24431 0.40904 0.28032 0.0
C1935 C 0.25182 0.40022 0.26878 0.0
C1936 C 0.27287 0.40369 0.2699 0.0
C1937 C 0.28644 0.41592 0.2826 0.0
H1938 H 0.24134 0.39074 0.25895 0.0
H1939 H 0.37267 0.50759 0.38289 0.0
H1940 H 0.47171 0.84295 0.31906 0.0
H1941 H 0.50065 0.83472 0.32405 0.0
H1942 H 0.54459 0.88933 0.29615 0.0
H1943 H 0.51558 0.89718 0.29086 0.0
H1944 H 0.55204 0.85836 0.28983 0.0
H1945 H 0.54279 0.88896 0.33887 0.0
H1946 H 0.52301 0.89182 0.36228 0.0
H1947 H 0.50913 0.83042 0.37861 0.0
H1948 H 0.52858 0.82707 0.35515 0.0
H1949 H 0.65423 0.88447 0.32349 0.0
H1950 H 0.62057 0.88458 0.31789 0.0
H1951 H 0.58373 0.81999 0.33419 0.0
H1952 H 0.61742 0.81952 0.33914 0.0
H1953 H 0.57075 0.85166 0.34661 0.0
H1954 H 0.58308 0.82281 0.29852 0.0
H1955 H 0.60434 0.82118 0.27567 0.0
H1956 H 0.61374 0.88055 0.25802 0.0
H1957 H 0.59283 0.88271 0.28095 0.0
C1958 C 0.48751 0.85301 0.31386 0.0
C1959 C 0.49143 0.87082 0.30471 0.0
C1960 C 0.50411 0.84841 0.31681 0.0
C1961 C 0.52507 0.86163 0.31078 0.0
C1962 C 0.52869 0.8789 0.30104 0.0
C1963 C 0.51208 0.88342 0.29803 0.0
C1964 C 0.5434 0.85794 0.31488 0.0
C1965 C 0.55615 0.85706 0.30227 0.0
C1966 C 0.54866 0.85569 0.33109 0.0
C1967 C 0.53687 0.85764 0.34513 0.0
C1968 C 0.53533 0.87598 0.34737 0.0
C1969 C 0.52422 0.87771 0.36066 0.0
C1970 C 0.51474 0.86128 0.37189 0.0
C1971 C 0.51642 0.84311 0.36987 0.0
C1972 C 0.52748 0.84128 0.35658 0.0
C1973 C 0.63895 0.87035 0.32601 0.0
C1974 C 0.63852 0.8522 0.3322 0.0
C1975 C 0.61975 0.87042 0.32279 0.0
C1976 C 0.59964 0.85233 0.32568 0.0
C1977 C 0.59907 0.83419 0.332 0.0
C1978 C 0.61835 0.83399 0.33494 0.0
C1979 C 0.57936 0.85244 0.3216 0.0
C1980 C 0.56638 0.85272 0.33419 0.0
C1981 C 0.57394 0.85424 0.3054 0.0
C1982 C 0.58653 0.85301 0.29156 0.0
C1983 C 0.58984 0.83562 0.28986 0.0
C1984 C 0.6018 0.83458 0.27687 0.0
C1985 C 0.61042 0.85077 0.26541 0.0
C1986 C 0.60707 0.86802 0.26691 0.0
C1987 C 0.59515 0.86915 0.2799 0.0
H1988 H 0.61965 0.84994 0.25535 0.0
H1989 H 0.50616 0.86265 0.38218 0.0
H1990 H 0.15289 0.6196 0.32323 0.0
H1991 H 0.15987 0.6554 0.32947 0.0
H1992 H 0.12514 0.65427 0.28625 0.0
H1993 H 0.1185 0.61855 0.27987 0.0
H1994 H 0.16062 0.69244 0.29023 0.0
H1995 H 0.10093 0.64507 0.32283 0.0
H1996 H 0.08076 0.61614 0.3422 0.0
H1997 H 0.12817 0.65076 0.37905 0.0
H1998 H 0.14881 0.67979 0.35982 0.0
H1999 H 0.14219 0.77626 0.31594 0.0
H2000 H 0.13561 0.74108 0.30817 0.0
H2001 H 0.17962 0.74448 0.34546 0.0
H2002 H 0.18696 0.77986 0.35294 0.0
H2003 H 0.13815 0.7052 0.344 0.0
H2004 H 0.19813 0.75236 0.31007 0.0
H2005 H 0.21587 0.78188 0.29076 0.0
H2006 H 0.16484 0.7476 0.25624 0.0
H2007 H 0.1467 0.71793 0.27542 0.0
C2008 C 0.14679 0.62706 0.3151 0.0
C2009 C 0.13471 0.61625 0.30132 0.0
C2010 C 0.15073 0.64745 0.31865 0.0
C2011 C 0.14264 0.65734 0.30849 0.0
C2012 C 0.13139 0.64688 0.29432 0.0
C2013 C 0.12749 0.6265 0.29074 0.0
C2014 C 0.14544 0.67833 0.31293 0.0
C2015 C 0.15547 0.69513 0.30191 0.0
C2016 C 0.13886 0.68194 0.32822 0.0
C2017 C 0.12653 0.6645 0.33983 0.0
C2018 C 0.10716 0.64644 0.33502 0.0
C2019 C 0.09562 0.63004 0.34599 0.0
C2020 C 0.10321 0.63159 0.36184 0.0
C2021 C 0.12233 0.64957 0.36676 0.0
C2022 C 0.13395 0.66601 0.35584 0.0
C2023 C 0.15046 0.76954 0.32253 0.0
C2024 C 0.1649 0.78083 0.33524 0.0
C2025 C 0.14667 0.74945 0.31806 0.0
C2026 C 0.15711 0.74025 0.32628 0.0
C2027 C 0.1713 0.7513 0.33906 0.0
C2028 C 0.17536 0.77149 0.34338 0.0
C2029 C 0.15351 0.71919 0.32142 0.0
C2030 C 0.14328 0.70241 0.33234 0.0
C2031 C 0.15968 0.71557 0.30601 0.0
C2032 C 0.17097 0.73301 0.29422 0.0
C2033 C 0.19066 0.75115 0.29838 0.0
C2034 C 0.2008 0.7679 0.28746 0.0
C2035 C 0.19146 0.76664 0.2723 0.0
C2036 C 0.17206 0.74855 0.26799 0.0
C2037 C 0.16186 0.73174 0.27886 0.0
H2038 H 0.19928 0.77968 0.2639 0.0
H2039 H 0.09425 0.61888 0.37031 0.0
H2040 H 0.8629 0.06943 0.3611 0.0
H2041 H 0.83407 0.0331 0.35564 0.0
H2042 H 0.8356 0.017 0.40566 0.0
H2043 H 0.8645 0.0535 0.41119 0.0
H2044 H 0.8311 0.985 0.38417 0.0
H2045 H 0.79785 0.027 0.39443 0.0
H2046 H 0.79208 0.0574 0.39088 0.0
H2047 H 0.77507 0.04025 0.34095 0.0
H2048 H 0.78105 0.00991 0.34415 0.0
H2049 H 0.70774 0.9052 0.37291 0.0
H2050 H 0.73747 0.94027 0.38045 0.0
H2051 H 0.77983 0.93196 0.34792 0.0
H2052 H 0.75044 0.89684 0.34053 0.0
H2053 H 0.76166 0.97567 0.36315 0.0
H2054 H 0.82982 0.95491 0.36391 0.0
H2055 H 0.83389 0.92366 0.36873 0.0
H2056 H 0.77871 0.89741 0.40004 0.0
H2057 H 0.77442 0.92855 0.39552 0.0
C2058 C 0.85737 0.05804 0.37086 0.0
C2059 C 0.86626 0.06418 0.3865 0.0
C2060 C 0.84083 0.03732 0.36775 0.0
C2061 C 0.83262 0.02233 0.38025 0.0
C2062 C 0.84178 0.02826 0.39581 0.0
C2063 C 0.85829 0.04907 0.39896 0.0
C2064 C 0.81375 1.00087 0.37718 0.0
C2065 C 0.81593 0.98296 0.37957 0.0
C2066 C 0.79379 0.99813 0.37145 0.0
C2067 C 0.79009 0.0163 0.3695 0.0
C2068 C 0.79304 0.02981 0.38266 0.0
C2069 C 0.78971 0.04701 0.38072 0.0
C2070 C 0.78326 0.05078 0.36569 0.0
C2071 C 0.78009 0.03732 0.35258 0.0
C2072 C 0.78343 0.02011 0.35446 0.0
C2073 C 0.72336 0.91081 0.36733 0.0
C2074 C 0.72663 0.89814 0.35609 0.0
C2075 C 0.74034 0.93091 0.37164 0.0
C2076 C 0.76096 0.93868 0.36489 0.0
C2077 C 0.76416 0.92621 0.35347 0.0
C2078 C 0.74723 0.90614 0.34916 0.0
C2079 C 0.77913 0.95981 0.36979 0.0
C2080 C 0.77683 0.97769 0.36774 0.0
C2081 C 0.79882 0.96245 0.37606 0.0
C2082 C 0.80174 0.94401 0.37929 0.0
C2083 C 0.81865 0.94253 0.37191 0.0
C2084 C 0.82096 0.92482 0.37456 0.0
C2085 C 0.80655 0.90856 0.38467 0.0
C2086 C 0.78983 0.90999 0.39218 0.0
C2087 C 0.78744 0.92766 0.38956 0.0
H2088 H 0.80837 0.89487 0.38673 0.0
H2089 H 0.78068 0.06411 0.3642 0.0
H2090 H 0.96784 0.80588 0.41363 0.0
H2091 H 1.00431 0.81312 0.40643 0.0
H2092 H 0.9875 0.8083 0.35575 0.0
H2093 H 0.95122 0.80101 0.36292 0.0
H2094 H 0.00529 0.78476 0.36215 0.0
H2095 H 0.02282 0.85623 0.37381 0.0
H2096 H 0.02458 0.88528 0.39037 0.0
H2097 H 0.06221 0.87547 0.42634 0.0
H2098 H 0.0604 0.84614 0.41009 0.0
H2099 H 0.13248 0.85449 0.35069 0.0
H2100 H 0.09672 0.85076 0.3545 0.0
H2101 H 0.07219 0.78652 0.37058 0.0
H2102 H 0.10741 0.78983 0.36574 0.0
H2103 H 0.07498 0.84564 0.38043 0.0
H2104 H 0.02762 0.75842 0.36882 0.0
H2105 H 0.02391 0.73042 0.34989 0.0
H2106 H 0.04363 0.7744 0.31044 0.0
H2107 H 0.04767 0.80264 0.3293 0.0
C2108 C 0.97215 0.80684 0.40096 0.0
C2109 C 0.95674 0.80314 0.38885 0.0
C2110 C 0.99299 0.81095 0.39684 0.0
C2111 C 0.99881 0.81136 0.3805 0.0
C2112 C 0.9835 0.80808 0.36843 0.0
C2113 C 0.96277 0.80404 0.37254 0.0
C2114 C 0.02024 0.81385 0.3759 0.0
C2115 C 0.02049 0.79812 0.36619 0.0
C2116 C 0.04023 0.83126 0.381 0.0
C2117 C 0.04128 0.84884 0.39081 0.0
C2118 C 0.0313 0.86013 0.38532 0.0
C2119 C 0.03234 0.87668 0.39464 0.0
C2120 C 0.04345 0.88217 0.40942 0.0
C2121 C 0.05358 0.87117 0.4149 0.0
C2122 C 0.05256 0.8546 0.40563 0.0
C2123 C 0.11924 0.83932 0.35441 0.0
C2124 C 0.12266 0.82222 0.35739 0.0
C2125 C 0.09878 0.83725 0.35681 0.0
C2126 C 0.08132 0.81817 0.36255 0.0
C2127 C 0.08487 0.80115 0.36555 0.0
C2128 C 0.10518 0.80312 0.36293 0.0
C2129 C 0.06003 0.81655 0.36662 0.0
C2130 C 0.05977 0.83233 0.37636 0.0
C2131 C 0.03994 0.79927 0.36149 0.0
C2132 C 0.03852 0.78268 0.35043 0.0
C2133 C 0.03138 0.7621 0.35613 0.0
C2134 C 0.02922 0.74622 0.34544 0.0
C2135 C 0.03374 0.75068 0.32899 0.0
C2136 C 0.04038 0.77102 0.32321 0.0
C2137 C 0.04283 0.78701 0.3339 0.0
H2138 H 0.03195 0.73835 0.32072 0.0
H2139 H 0.04424 0.89499 0.41662 0.0
H2140 H 0.23812 0.17849 0.40662 0.0
H2141 H 0.22846 0.20575 0.40111 0.0
H2142 H 0.1826 0.16525 0.36482 0.0
H2143 H 0.19261 0.13814 0.37015 0.0
H2144 H 0.20623 0.20386 0.35336 0.0
H2145 H 0.16606 0.17416 0.40141 0.0
H2146 H 0.15906 0.16154 0.42961 0.0
H2147 H 0.20375 0.22425 0.44677 0.0
H2148 H 0.21131 0.23719 0.41865 0.0
H2149 H 0.15789 0.26793 0.34352 0.0
H2150 H 0.1632 0.23836 0.35045 0.0
H2151 H 0.21534 0.27887 0.38276 0.0
H2152 H 0.21033 0.30873 0.37578 0.0
H2153 H 0.18648 0.23919 0.39604 0.0
H2154 H 0.22705 0.26766 0.34666 0.0
H2155 H 0.23089 0.27945 0.31829 0.0
H2156 H 0.18167 0.21715 0.30358 0.0
H2157 H 0.17731 0.20506 0.33193 0.0
C2158 C 0.22597 0.17548 0.39749 0.0
C2159 C 0.21636 0.15648 0.38857 0.0
C2160 C 0.22035 0.19095 0.39442 0.0
C2161 C 0.20473 0.18752 0.38259 0.0
C2162 C 0.19475 0.16828 0.37395 0.0
C2163 C 0.20043 0.15283 0.37699 0.0
C2164 C 0.19951 0.20437 0.37877 0.0
C2165 C 0.20159 0.21134 0.36268 0.0
C2166 C 0.19372 0.21436 0.39094 0.0
C2167 C 0.18943 0.2066 0.40788 0.0
C2168 C 0.17458 0.18522 0.41118 0.0
C2169 C 0.17048 0.17802 0.42716 0.0
C2170 C 0.181 0.19207 0.43997 0.0
C2171 C 0.19564 0.21337 0.43683 0.0
C2172 C 0.19983 0.22065 0.42087 0.0
C2173 C 0.17068 0.2707 0.35195 0.0
C2174 C 0.18395 0.29085 0.35886 0.0
C2175 C 0.17359 0.25371 0.35597 0.0
C2176 C 0.18978 0.2565 0.367 0.0
C2177 C 0.20276 0.27643 0.3742 0.0
C2178 C 0.19993 0.29349 0.37013 0.0
C2179 C 0.19348 0.23871 0.37076 0.0
C2180 C 0.19108 0.2316 0.38679 0.0
C2181 C 0.19871 0.22841 0.35853 0.0
C2182 C 0.20175 0.2355 0.34143 0.0
C2183 C 0.21698 0.25649 0.33739 0.0
C2184 C 0.21925 0.26323 0.32131 0.0
C2185 C 0.20652 0.24906 0.30914 0.0
C2186 C 0.19153 0.2281 0.31302 0.0
C2187 C 0.18917 0.22129 0.32909 0.0
H2188 H 0.20827 0.25431 0.2967 0.0
H2189 H 0.17777 0.18647 0.45234 0.0
H2190 H 0.61912 0.51529 0.74328 0.0
H2191 H 0.65201 0.54465 0.732 0.0
H2192 H 0.6699 0.50051 0.71272 0.0
H2193 H 0.6372 0.47101 0.72434 0.0
H2194 H 0.70365 0.53325 0.72757 0.0
H2195 H 0.65158 0.52526 0.68774 0.0
H2196 H 0.61758 0.52189 0.67742 0.0
H2197 H 0.63569 0.58351 0.69643 0.0
H2198 H 0.66968 0.58714 0.70708 0.0
H2199 H 0.79404 0.61486 0.6871 0.0
H2200 H 0.75958 0.58251 0.69145 0.0
H2201 H 0.73247 0.61974 0.70973 0.0
H2202 H 0.76665 0.65223 0.70442 0.0
H2203 H 0.7031 0.58825 0.69265 0.0
H2204 H 0.75351 0.59438 0.73483 0.0
H2205 H 0.78721 0.59723 0.74545 0.0
H2206 H 0.77189 0.5387 0.72191 0.0
H2207 H 0.73824 0.53563 0.711 0.0
C2208 C 0.63009 0.5118 0.7367 0.0
C2209 C 0.62554 0.49077 0.73477 0.0
C2210 C 0.64879 0.52862 0.7301 0.0
C2211 C 0.66336 0.52482 0.72134 0.0
C2212 C 0.65887 0.50384 0.71936 0.0
C2213 C 0.6401 0.48699 0.72593 0.0
C2214 C 0.68363 0.54283 0.71481 0.0
C2215 C 0.70351 0.54508 0.71971 0.0
C2216 C 0.68352 0.55848 0.70475 0.0
C2217 C 0.66311 0.55639 0.69833 0.0
C2218 C 0.64824 0.53803 0.68984 0.0
C2219 C 0.62898 0.53608 0.68391 0.0
C2220 C 0.62445 0.55246 0.6863 0.0
C2221 C 0.63921 0.57083 0.6946 0.0
C2222 C 0.65849 0.57285 0.70057 0.0
C2223 C 0.78058 0.61619 0.69161 0.0
C2224 C 0.78287 0.63611 0.69505 0.0
C2225 C 0.76092 0.59763 0.69434 0.0
C2226 C 0.74342 0.59857 0.70119 0.0
C2227 C 0.74565 0.61852 0.70441 0.0
C2228 C 0.7652 0.63708 0.70144 0.0
C2229 C 0.72312 0.57892 0.70571 0.0
C2230 C 0.70323 0.57633 0.70042 0.0
C2231 C 0.72321 0.56296 0.71544 0.0
C2232 C 0.74346 0.56486 0.722 0.0
C2233 C 0.75741 0.58219 0.73184 0.0
C2234 C 0.77649 0.58384 0.73792 0.0
C2235 C 0.78167 0.56815 0.73434 0.0
C2236 C 0.76784 0.55083 0.72466 0.0
C2237 C 0.74877 0.54912 0.71854 0.0
H2238 H 0.79633 0.56932 0.73914 0.0
H2239 H 0.60953 0.55092 0.6817 0.0
H2240 H 0.52364 0.12695 0.71552 0.0
H2241 H 0.49349 0.13127 0.70607 0.0
H2242 H 0.50285 0.17207 0.74701 0.0
H2243 H 0.53211 0.16674 0.75684 0.0
H2244 H 0.46355 0.14855 0.74466 0.0
H2245 H 0.51604 0.18923 0.70507 0.0
H2246 H 0.54325 0.19751 0.68379 0.0
H2247 H 0.4952 0.14856 0.65344 0.0
H2248 H 0.46777 0.13976 0.67463 0.0
H2249 H 0.39939 0.18452 0.6891 0.0
H2250 H 0.43343 0.18595 0.69643 0.0
H2251 H 0.39761 0.12255 0.71537 0.0
H2252 H 0.36363 0.12094 0.70776 0.0
H2253 H 0.45174 0.16165 0.68762 0.0
H2254 H 0.42281 0.1216 0.75091 0.0
H2255 H 0.39896 0.12032 0.77299 0.0
H2256 H 0.40556 0.17931 0.75714 0.0
H2257 H 0.42968 0.18113 0.73516 0.0
C2258 C 0.51939 0.13705 0.72234 0.0
C2259 C 0.53026 0.14654 0.73689 0.0
C2260 C 0.50217 0.13961 0.71691 0.0
C2261 C 0.49578 0.15221 0.72568 0.0
C2262 C 0.50716 0.16215 0.73999 0.0
C2263 C 0.52402 0.15922 0.74559 0.0
C2264 C 0.47667 0.15421 0.72049 0.0
C2265 C 0.46112 0.15143 0.73216 0.0
C2266 C 0.47342 0.15854 0.70427 0.0
C2267 C 0.48991 0.16367 0.69153 0.0
C2268 C 0.51132 0.1801 0.69392 0.0
C2269 C 0.52677 0.18491 0.68186 0.0
C2270 C 0.52097 0.17352 0.6673 0.0
C2271 C 0.49969 0.15733 0.66474 0.0
C2272 C 0.48418 0.15243 0.67677 0.0
C2273 C 0.3988 0.17076 0.69456 0.0
C2274 C 0.37883 0.1524 0.6975 0.0
C2275 C 0.41827 0.17162 0.6988 0.0
C2276 C 0.41814 0.15437 0.70649 0.0
C2277 C 0.39818 0.1361 0.70952 0.0
C2278 C 0.37876 0.13517 0.70514 0.0
C2279 C 0.43871 0.15545 0.71172 0.0
C2280 C 0.45438 0.15877 0.70009 0.0
C2281 C 0.44252 0.15245 0.72807 0.0
C2282 C 0.42785 0.15134 0.74124 0.0
C2283 C 0.41919 0.1343 0.75215 0.0
C2284 C 0.40563 0.13349 0.76466 0.0
C2285 C 0.40067 0.14967 0.76643 0.0
C2286 C 0.4093 0.16672 0.75572 0.0
C2287 C 0.42289 0.16763 0.74321 0.0
H2288 H 0.39019 0.14903 0.77613 0.0
H2289 H 0.53296 0.17728 0.65797 0.0
H2290 H 0.84732 0.38251 0.72674 0.0
H2291 H 0.84344 0.34965 0.71562 0.0
H2292 H 0.90361 0.36331 0.73822 0.0
H2293 H 0.9081 0.39663 0.74876 0.0
H2294 H 0.90161 0.34911 0.70844 0.0
H2295 H 0.85448 0.32679 0.75431 0.0
H2296 H 0.82506 0.32388 0.77163 0.0
H2297 H 0.77956 0.29367 0.73277 0.0
H2298 H 0.80878 0.29665 0.71514 0.0
H2299 H 0.88655 0.24455 0.70494 0.0
H2300 H 0.89138 0.27863 0.71408 0.0
H2301 H 0.83529 0.2675 0.68644 0.0
H2302 H 0.83027 0.23343 0.67728 0.0
H2303 H 0.8351 0.28031 0.7183 0.0
H2304 H 0.88319 0.30194 0.67282 0.0
H2305 H 0.913 0.30402 0.65646 0.0
H2306 H 0.95731 0.33489 0.69587 0.0
H2307 H 0.92768 0.3327 0.71257 0.0
C2308 C 0.85983 0.37862 0.72923 0.0
C2309 C 0.87796 0.39216 0.73874 0.0
C2310 C 0.85748 0.35973 0.72299 0.0
C2311 C 0.87309 0.35387 0.72627 0.0
C2312 C 0.89131 0.36746 0.73559 0.0
C2313 C 0.89373 0.38639 0.74176 0.0
C2314 C 0.87045 0.33359 0.71999 0.0
C2315 C 0.88717 0.33405 0.71077 0.0
C2316 C 0.85146 0.31395 0.72278 0.0
C2317 C 0.83386 0.31215 0.73335 0.0
C2318 C 0.83823 0.31968 0.74941 0.0
C2319 C 0.82159 0.31799 0.7593 0.0
C2320 C 0.80047 0.30865 0.75329 0.0
C2321 C 0.79594 0.30093 0.7374 0.0
C2322 C 0.81253 0.3026 0.72746 0.0
C2323 C 0.87532 0.2494 0.70072 0.0
C2324 C 0.85809 0.23632 0.69032 0.0
C2325 C 0.87814 0.2689 0.70592 0.0
C2326 C 0.86374 0.27559 0.70087 0.0
C2327 C 0.84658 0.26261 0.69046 0.0
C2328 C 0.84384 0.24321 0.68515 0.0
C2329 C 0.86623 0.2959 0.70679 0.0
C2330 C 0.8495 0.29541 0.71595 0.0
C2331 C 0.88528 0.31546 0.70408 0.0
C2332 C 0.90316 0.31697 0.694 0.0
C2333 C 0.89925 0.30902 0.67805 0.0
C2334 C 0.91612 0.31024 0.6687 0.0
C2335 C 0.93703 0.31954 0.67513 0.0
C2336 C 0.94111 0.32768 0.69091 0.0
C2337 C 0.92428 0.32646 0.70032 0.0
H2338 H 0.95007 0.32047 0.66788 0.0
H2339 H 0.7876 0.30735 0.76097 0.0
H2340 H 0.17961 0.94074 0.61512 0.0
H2341 H 0.20825 0.97395 0.62638 0.0
H2342 H 0.16057 0.98683 0.64702 0.0
H2343 H 0.1317 0.95398 0.63505 0.0
H2344 H 0.19138 0.02145 0.63356 0.0
H2345 H 0.19038 0.97079 0.67058 0.0
H2346 H 0.19079 0.93859 0.67908 0.0
H2347 H 0.25352 0.9623 0.65795 0.0
H2348 H 0.25336 0.99453 0.64912 0.0
H2349 H 0.26646 0.10672 0.68277 0.0
H2350 H 0.23697 0.07203 0.67456 0.0
H2351 H 0.28186 0.06002 0.64826 0.0
H2352 H 0.31165 0.09472 0.6566 0.0
H2353 H 0.25189 0.02499 0.66575 0.0
H2354 H 0.25184 0.07559 0.6283 0.0
H2355 H 0.25138 0.10819 0.62111 0.0
H2356 H 0.19 0.08454 0.64447 0.0
H2357 H 0.19025 0.05193 0.65204 0.0
C2358 C 0.17514 0.95066 0.62195 0.0
C2359 C 0.15327 0.94467 0.62407 0.0
C2360 C 0.1916 0.96959 0.62858 0.0
C2361 C 0.18665 0.98287 0.63774 0.0
C2362 C 0.16483 0.97686 0.64004 0.0
C2363 C 0.14832 0.95794 0.63331 0.0
C2364 C 0.20429 0.00326 0.64451 0.0
C2365 C 0.2044 0.02213 0.64082 0.0
C2366 C 0.22158 0.00434 0.65375 0.0
C2367 C 0.22176 0.985 0.65907 0.0
C2368 C 0.20419 0.96907 0.66764 0.0
C2369 C 0.20439 0.95082 0.67254 0.0
C2370 C 0.22215 0.94838 0.66903 0.0
C2371 C 0.23977 0.96421 0.66065 0.0
C2372 C 0.23964 0.98248 0.65571 0.0
C2373 C 0.2702 0.09665 0.67543 0.0
C2374 C 0.2915 0.10356 0.67038 0.0
C2375 C 0.25324 0.07683 0.67065 0.0
C2376 C 0.25716 0.06351 0.66065 0.0
C2377 C 0.27847 0.07006 0.65596 0.0
C2378 C 0.29547 0.08995 0.6607 0.0
C2379 C 0.23895 0.04302 0.65472 0.0
C2380 C 0.23878 0.0242 0.65854 0.0
C2381 C 0.22154 0.04198 0.64572 0.0
C2382 C 0.22115 0.06139 0.64086 0.0
C2383 C 0.2383 0.07739 0.63199 0.0
C2384 C 0.23808 0.09587 0.62784 0.0
C2385 C 0.2207 0.09845 0.63236 0.0
C2386 C 0.20347 0.08252 0.641 0.0
C2387 C 0.20363 0.06403 0.64521 0.0
H2388 H 0.22053 0.11275 0.62913 0.0
H2389 H 0.22228 0.93425 0.67283 0.0
H2390 H 0.06948 0.20805 0.64736 0.0
H2391 H 0.03601 0.20422 0.6585 0.0
H2392 H 0.00816 0.1922 0.61054 0.0
H2393 H 0.04108 0.19498 0.59944 0.0
H2394 H 0.01701 0.22643 0.65451 0.0
H2395 H 0.95341 0.16226 0.61188 0.0
H2396 H 0.94788 0.13104 0.59621 0.0
H2397 H 0.98967 0.12245 0.62896 0.0
H2398 H 0.99521 0.15344 0.64495 0.0
H2399 H 0.91763 0.22662 0.65741 0.0
H2400 H 0.9516 0.22786 0.65117 0.0
H2401 H 0.92541 0.16398 0.66867 0.0
H2402 H 0.89089 0.16232 0.67393 0.0
H2403 H 0.94396 0.16618 0.6422 0.0
H2404 H 0.97311 0.2117 0.68989 0.0
H2405 H 0.98031 0.24177 0.70791 0.0
H2406 H 0.00814 0.28479 0.66815 0.0
H2407 H 1.00135 0.25499 0.65005 0.0
C2408 C 0.05612 0.20419 0.63919 0.0
C2409 C 0.05817 0.20187 0.62245 0.0
C2410 C 0.03699 0.2022 0.64558 0.0
C2411 C 0.01932 0.19774 0.63544 0.0
C2412 C 0.02129 0.1953 0.61874 0.0
C2413 C 0.04035 0.19719 0.61236 0.0
C2414 C 0.99919 0.19637 0.64223 0.0
C2415 C 1.00107 0.21317 0.65183 0.0
C2416 C 0.97822 0.17907 0.63896 0.0
C2417 C 0.97488 0.1603 0.62952 0.0
C2418 C 0.96135 0.15366 0.61577 0.0
C2419 C 0.95822 0.13601 0.60683 0.0
C2420 C 0.96847 0.12481 0.61156 0.0
C2421 C 0.98181 0.13119 0.62528 0.0
C2422 C 0.98497 0.14881 0.63427 0.0
C2423 C 0.91925 0.21296 0.66022 0.0
C2424 C 0.90163 0.19454 0.66651 0.0
C2425 C 0.93885 0.21374 0.65676 0.0
C2426 C 0.94152 0.19617 0.65967 0.0
C2427 C 0.92401 0.17785 0.66633 0.0
C2428 C 0.90426 0.17698 0.66955 0.0
C2429 C 0.96176 0.19628 0.65447 0.0
C2430 C 0.95991 0.17934 0.64502 0.0
C2431 C 0.98278 0.21331 0.65801 0.0
C2432 C 0.98639 0.23115 0.66865 0.0
C2433 C 0.98052 0.22757 0.68503 0.0
C2434 C 0.98466 0.24455 0.69525 0.0
C2435 C 0.99448 0.26514 0.68914 0.0
C2436 C 1.00044 0.26882 0.67285 0.0
C2437 C 0.99656 0.25192 0.66264 0.0
H2438 H 0.9976 0.27825 0.69705 0.0
H2439 H 0.96604 0.11115 0.60462 0.0
H2440 H 0.83178 0.87561 0.63532 0.0
H2441 H 0.83667 0.84774 0.64739 0.0
H2442 H 0.77668 0.80028 0.62575 0.0
H2443 H 0.77113 0.82807 0.61433 0.0
H2444 H 0.77949 0.7898 0.65585 0.0
H2445 H 0.82639 0.81286 0.60969 0.0
H2446 H 0.85546 0.83867 0.59214 0.0
H2447 H 0.90118 0.85532 0.63111 0.0
H2448 H 0.87231 0.8298 0.64897 0.0
H2449 H 0.79533 0.70104 0.65843 0.0
H2450 H 0.7902 0.73044 0.65038 0.0
H2451 H 0.84716 0.77391 0.67745 0.0
H2452 H 0.85254 0.74461 0.68553 0.0
H2453 H 0.84668 0.78729 0.64615 0.0
H2454 H 0.79922 0.76188 0.69172 0.0
H2455 H 0.76982 0.73495 0.70841 0.0
H2456 H 0.72466 0.72154 0.66952 0.0
H2457 H 0.75387 0.74818 0.65249 0.0
C2458 C 0.81951 0.85925 0.63326 0.0
C2459 C 0.80111 0.8541 0.62378 0.0
C2460 C 0.82244 0.84332 0.64004 0.0
C2461 C 0.80719 0.8219 0.63729 0.0
C2462 C 0.78871 0.8167 0.62798 0.0
C2463 C 0.78568 0.83262 0.6213 0.0
C2464 C 0.81049 0.80488 0.64408 0.0
C2465 C 0.79409 0.78913 0.65358 0.0
C2466 C 0.82975 0.80425 0.64143 0.0
C2467 C 0.84714 0.81959 0.63071 0.0
C2468 C 0.84261 0.82215 0.61455 0.0
C2469 C 0.85906 0.8367 0.60454 0.0
C2470 C 0.88014 0.84867 0.61052 0.0
C2471 C 0.88483 0.84606 0.6265 0.0
C2472 C 0.86844 0.83155 0.63657 0.0
C2473 C 0.80668 0.71681 0.6628 0.0
C2474 C 0.82432 0.72045 0.67266 0.0
C2475 C 0.80367 0.73358 0.65823 0.0
C2476 C 0.81823 0.75431 0.6634 0.0
C2477 C 0.83572 0.758 0.67337 0.0
C2478 C 0.83868 0.74121 0.67805 0.0
C2479 C 0.81563 0.7722 0.65779 0.0
C2480 C 0.83216 0.78807 0.6485 0.0
C2481 C 0.79643 0.77283 0.66052 0.0
C2482 C 0.77878 0.75692 0.67078 0.0
C2483 C 0.78305 0.75308 0.68668 0.0
C2484 C 0.76642 0.73788 0.69621 0.0
C2485 C 0.74539 0.72651 0.69002 0.0
C2486 C 0.74096 0.73035 0.67429 0.0
C2487 C 0.75755 0.74552 0.6647 0.0
H2488 H 0.73253 0.71474 0.69742 0.0
H2489 H 0.89286 0.85992 0.60274 0.0
H2490 H 0.04837 0.86761 0.65086 0.0
H2491 H 0.01134 0.83927 0.65657 0.0
H2492 H 0.02334 0.7948 0.63046 0.0
H2493 H 0.06004 0.82316 0.62445 0.0
H2494 H 0.98428 0.78742 0.62365 0.0
H2495 H 0.02545 0.79904 0.67276 0.0
H2496 H 0.04845 0.81968 0.69583 0.0
H2497 H 0.99973 0.83381 0.71146 0.0
H2498 H 0.97655 0.81349 0.68834 0.0
H2499 H 0.90655 0.68929 0.65665 0.0
H2500 H 0.94114 0.72137 0.65133 0.0
H2501 H 0.91552 0.75979 0.66966 0.0
H2502 H 0.88064 0.72775 0.67446 0.0
H2503 H 0.95944 0.77189 0.68064 0.0
H2504 H 0.91731 0.75801 0.6323 0.0
H2505 H 0.89405 0.73607 0.60978 0.0
H2506 H 0.9446 0.72525 0.59307 0.0
H2507 H 0.96804 0.74679 0.61569 0.0
C2508 C 0.04293 0.8518 0.64623 0.0
C2509 C 0.05707 0.84752 0.63733 0.0
C2510 C 0.02186 0.83559 0.64958 0.0
C2511 C 0.01459 0.81474 0.64421 0.0
C2512 C 0.02852 0.81068 0.63481 0.0
C2513 C 0.04952 0.82689 0.6314 0.0
C2514 C 0.99272 0.79702 0.64857 0.0
C2515 C 0.97898 0.78398 0.63613 0.0
C2516 C 0.98544 0.7927 0.66483 0.0
C2517 C 0.9994 0.805 0.67869 0.0
C2518 C 0.01973 0.80672 0.68102 0.0
C2519 C 0.03278 0.81833 0.69413 0.0
C2520 C 0.02559 0.82812 0.70506 0.0
C2521 C 0.00531 0.82627 0.70295 0.0
C2522 C 0.9922 0.81471 0.68985 0.0
C2523 C 0.9084 0.70458 0.65971 0.0
C2524 C 0.89107 0.70599 0.66632 0.0
C2525 C 0.92811 0.72286 0.65665 0.0
C2526 C 0.93086 0.74294 0.66008 0.0
C2527 C 0.91375 0.74443 0.667 0.0
C2528 C 0.89388 0.72611 0.66985 0.0
C2529 C 0.95137 0.76228 0.65575 0.0
C2530 C 0.96476 0.77555 0.66817 0.0
C2531 C 0.95839 0.76676 0.63949 0.0
C2532 C 0.94437 0.75386 0.6258 0.0
C2533 C 0.92341 0.75079 0.62393 0.0
C2534 C 0.91019 0.73845 0.61112 0.0
C2535 C 0.91782 0.72924 0.60002 0.0
C2536 C 0.9387 0.73237 0.60169 0.0
C2537 C 0.95196 0.74466 0.6145 0.0
H2538 H 0.90758 0.71972 0.59011 0.0
H2539 H 0.03572 0.83708 0.71521 0.0
H2540 H 0.13752 0.17279 0.65155 0.0
H2541 H 0.16681 0.16486 0.65575 0.0
H2542 H 0.20941 0.21933 0.62717 0.0
H2543 H 0.18001 0.2269 0.62268 0.0
H2544 H 0.2171 0.1885 0.62062 0.0
H2545 H 0.20906 0.21949 0.6698 0.0
H2546 H 0.19014 0.22269 0.69364 0.0
H2547 H 0.17739 0.16179 0.71034 0.0
H2548 H 0.19597 0.15809 0.68647 0.0
H2549 H 0.32017 0.21307 0.65208 0.0
H2550 H 0.28681 0.21383 0.6465 0.0
H2551 H 0.24921 0.15061 0.66538 0.0
H2552 H 0.28248 0.14948 0.67036 0.0
H2553 H 0.23736 0.1822 0.67702 0.0
H2554 H 0.24764 0.15251 0.62874 0.0
H2555 H 0.26817 0.15027 0.60562 0.0
H2556 H 0.27819 0.20982 0.58788 0.0
H2557 H 0.25797 0.21258 0.61106 0.0
C2558 C 0.15309 0.18288 0.64602 0.0
C2559 C 0.15656 0.2006 0.63696 0.0
C2560 C 0.16989 0.17845 0.64852 0.0
C2561 C 0.1906 0.19175 0.64209 0.0
C2562 C 0.19372 0.20887 0.63237 0.0
C2563 C 0.1769 0.21322 0.62982 0.0
C2564 C 0.20919 0.18832 0.64583 0.0
C2565 C 0.22159 0.18734 0.63298 0.0
C2566 C 0.21495 0.18625 0.66193 0.0
C2567 C 0.20361 0.18837 0.67621 0.0
C2568 C 0.20202 0.20668 0.67847 0.0
C2569 C 0.1914 0.20861 0.692 0.0
C2570 C 0.18249 0.19242 0.70346 0.0
C2571 C 0.18424 0.17429 0.70143 0.0
C2572 C 0.1948 0.17227 0.68789 0.0
C2573 C 0.30479 0.19939 0.65513 0.0
C2574 C 0.30403 0.18149 0.66214 0.0
C2575 C 0.28574 0.19982 0.65192 0.0
C2576 C 0.2655 0.18232 0.65561 0.0
C2577 C 0.26464 0.16437 0.66257 0.0
C2578 C 0.28371 0.16381 0.66554 0.0
C2579 C 0.24532 0.18282 0.65187 0.0
C2580 C 0.23271 0.18325 0.66469 0.0
C2581 C 0.23943 0.18449 0.63579 0.0
C2582 C 0.25145 0.18284 0.62173 0.0
C2583 C 0.25436 0.16522 0.61999 0.0
C2584 C 0.26592 0.16383 0.60686 0.0
C2585 C 0.27453 0.17992 0.59531 0.0
C2586 C 0.27153 0.19739 0.59685 0.0
C2587 C 0.26 0.19886 0.60998 0.0
H2588 H 0.28348 0.17883 0.58515 0.0
H2589 H 0.17429 0.19395 0.71395 0.0
H2590 H 0.77615 0.94657 0.62159 0.0
H2591 H 0.78543 0.98331 0.6268 0.0
H2592 H 0.82538 0.9864 0.66725 0.0
H2593 H 0.81574 0.94949 0.66218 0.0
H2594 H 0.80118 0.00304 0.67544 0.0
H2595 H 0.84758 0.01074 0.63154 0.0
H2596 H 0.85772 0.00405 0.60456 0.0
H2597 H 0.81771 0.02528 0.58201 0.0
H2598 H 0.80705 0.03179 0.60888 0.0
H2599 H 0.85745 0.1148 0.68489 0.0
H2600 H 0.84957 0.07898 0.67846 0.0
H2601 H 0.8013 0.07242 0.6438 0.0
H2602 H 0.80865 0.10819 0.65045 0.0
H2603 H 0.83016 0.05804 0.63271 0.0
H2604 H 0.78397 0.0498 0.678 0.0
H2605 H 0.7769 0.05841 0.70541 0.0
H2606 H 0.82023 0.03975 0.72574 0.0
H2607 H 0.82781 0.03132 0.6984 0.0
C2608 C 0.78683 0.95514 0.63162 0.0
C2609 C 0.79494 0.94522 0.64169 0.0
C2610 C 0.79225 0.97612 0.63452 0.0
C2611 C 0.80619 0.98765 0.64737 0.0
C2612 C 0.81452 0.97778 0.65732 0.0
C2613 C 0.80904 0.95677 0.65444 0.0
C2614 C 0.81174 0.00984 0.65063 0.0
C2615 C 0.80777 0.0151 0.66613 0.0
C2616 C 0.82007 0.02555 0.63844 0.0
C2617 C 0.82632 0.02152 0.62224 0.0
C2618 C 0.84077 0.01378 0.62083 0.0
C2619 C 0.84664 0.01006 0.60556 0.0
C2620 C 0.83831 0.01417 0.59158 0.0
C2621 C 0.82411 0.02206 0.59285 0.0
C2622 C 0.81816 0.02578 0.60811 0.0
C2623 C 0.84495 0.10573 0.67605 0.0
C2624 C 0.83335 0.11425 0.66845 0.0
C2625 C 0.8406 0.08529 0.6723 0.0
C2626 C 0.82474 0.07305 0.66077 0.0
C2627 C 0.81358 0.08167 0.65276 0.0
C2628 C 0.81776 0.10207 0.65663 0.0
C2629 C 0.81946 0.05103 0.65741 0.0
C2630 C 0.82351 0.04588 0.64194 0.0
C2631 C 0.81149 0.03549 0.66967 0.0
C2632 C 0.80657 0.04007 0.68615 0.0
C2633 C 0.79208 0.04764 0.68831 0.0
C2634 C 0.78797 0.05247 0.70383 0.0
C2635 C 0.79811 0.04963 0.7173 0.0
C2636 C 0.81237 0.04192 0.71529 0.0
C2637 C 0.81656 0.03709 0.69978 0.0
H2638 H 0.79493 0.05341 0.72931 0.0
H2639 H 0.8429 0.0113 0.57976 0.0
H2640 H 0.53483 0.39641 0.69273 0.0
H2641 H 0.50589 0.36017 0.68709 0.0
H2642 H 0.48934 0.35145 0.73779 0.0
H2643 H 0.51851 0.38781 0.74347 0.0
H2644 H 0.4869 0.31564 0.72415 0.0
H2645 H 0.46034 0.36286 0.71259 0.0
H2646 H 0.46065 0.39376 0.70024 0.0
H2647 H 0.45958 0.36898 0.65276 0.0
H2648 H 0.45958 0.33805 0.66484 0.0
H2649 H 0.38006 0.22758 0.71253 0.0
H2650 H 0.40975 0.26287 0.71979 0.0
H2651 H 0.43218 0.27249 0.67044 0.0
H2652 H 0.40265 0.23732 0.66318 0.0
H2653 H 0.43101 0.30757 0.68434 0.0
H2654 H 0.4574 0.26 0.69634 0.0
H2655 H 0.45514 0.22839 0.70904 0.0
H2656 H 0.45517 0.25342 0.75621 0.0
H2657 H 0.45699 0.28502 0.74378 0.0
C2658 C 0.52518 0.38667 0.70269 0.0
C2659 C 0.52878 0.39489 0.71853 0.0
C2660 C 0.50861 0.366 0.69946 0.0
C2661 C 0.49523 0.35317 0.71198 0.0
C2662 C 0.49942 0.36105 0.72794 0.0
C2663 C 0.51601 0.38178 0.73117 0.0
C2664 C 0.47625 0.33203 0.70823 0.0
C2665 C 0.47455 0.3139 0.7156 0.0
C2666 C 0.46022 0.32969 0.69694 0.0
C2667 C 0.46019 0.34825 0.68962 0.0
C2668 C 0.46035 0.36408 0.69951 0.0
C2669 C 0.46044 0.38159 0.69256 0.0
C2670 C 0.46019 0.38336 0.67573 0.0
C2671 C 0.4598 0.3676 0.6658 0.0
C2672 C 0.45975 0.35007 0.67269 0.0
C2673 C 0.39118 0.23728 0.70318 0.0
C2674 C 0.38904 0.22955 0.68723 0.0
C2675 C 0.40821 0.25739 0.70738 0.0
C2676 C 0.42326 0.27021 0.69568 0.0
C2677 C 0.42078 0.26281 0.67967 0.0
C2678 C 0.40396 0.24262 0.67554 0.0
C2679 C 0.4418 0.29124 0.70013 0.0
C2680 C 0.44337 0.30933 0.6929 0.0
C2681 C 0.4576 0.29351 0.71159 0.0
C2682 C 0.45711 0.27479 0.71912 0.0
C2683 C 0.45677 0.2587 0.70942 0.0
C2684 C 0.45558 0.24079 0.71657 0.0
C2685 C 0.45496 0.23887 0.73342 0.0
C2686 C 0.45562 0.25491 0.74316 0.0
C2687 C 0.45674 0.27284 0.73607 0.0
H2688 H 0.45401 0.22497 0.73893 0.0
H2689 H 0.46025 0.39692 0.67037 0.0
H2690 H 0.63411 0.16756 0.70877 0.0
H2691 H 0.67096 0.1749 0.70304 0.0
H2692 H 0.65695 0.11682 0.72685 0.0
H2693 H 0.62044 0.10983 0.73289 0.0
H2694 H 0.69619 0.14597 0.73447 0.0
H2695 H 0.65637 0.1221 0.68433 0.0
H2696 H 0.6344 0.12268 0.66145 0.0
H2697 H 0.68473 0.18516 0.64883 0.0
H2698 H 0.7069 0.18506 0.67178 0.0
H2699 H 0.77347 0.12423 0.69952 0.0
H2700 H 0.7391 0.12291 0.70489 0.0
H2701 H 0.767 0.18807 0.69026 0.0
H2702 H 0.80169 0.18968 0.68547 0.0
H2703 H 0.72278 0.15879 0.67784 0.0
H2704 H 0.7634 0.18145 0.72727 0.0
H2705 H 0.78567 0.1797 0.74943 0.0
H2706 H 0.73373 0.11843 0.76287 0.0
H2707 H 0.71127 0.11964 0.74059 0.0
C2708 C 0.63906 0.15654 0.71293 0.0
C2709 C 0.62437 0.13811 0.72123 0.0
C2710 C 0.66006 0.16062 0.70953 0.0
C2711 C 0.66678 0.14624 0.71423 0.0
C2712 C 0.65229 0.12818 0.72302 0.0
C2713 C 0.63137 0.12417 0.72647 0.0
C2714 C 0.68866 0.14963 0.7098 0.0
C2715 C 0.70184 0.14859 0.72205 0.0
C2716 C 0.6965 0.15357 0.69366 0.0
C2717 C 0.68316 0.15368 0.6799 0.0
C2718 C 0.66267 0.13604 0.67677 0.0
C2719 C 0.6502 0.13626 0.66377 0.0
C2720 C 0.65813 0.15398 0.65373 0.0
C2721 C 0.67858 0.17147 0.65664 0.0
C2722 C 0.69111 0.17134 0.66964 0.0
C2723 C 0.77221 0.1382 0.69727 0.0
C2724 C 0.79018 0.1569 0.6917 0.0
C2725 C 0.75257 0.13744 0.70036 0.0
C2726 C 0.75044 0.15539 0.69799 0.0
C2727 C 0.76821 0.17399 0.69208 0.0
C2728 C 0.78801 0.17485 0.68923 0.0
C2729 C 0.72994 0.15482 0.70247 0.0
C2730 C 0.7171 0.15635 0.69026 0.0
C2731 C 0.72235 0.15125 0.71862 0.0
C2732 C 0.73572 0.15055 0.73215 0.0
C2733 C 0.75679 0.16751 0.73486 0.0
C2734 C 0.76944 0.16664 0.74746 0.0
C2735 C 0.76114 0.14894 0.75753 0.0
C2736 C 0.74015 0.13212 0.75504 0.0
C2737 C 0.72744 0.13289 0.74244 0.0
H2738 H 0.77095 0.1483 0.76728 0.0
H2739 H 0.64845 0.15411 0.64367 0.0
H2740 H 0.85377 0.46828 0.70623 0.0
H2741 H 0.84537 0.49645 0.70073 0.0
H2742 H 0.9041 0.54158 0.72526 0.0
H2743 H 0.91217 0.5133 0.73113 0.0
H2744 H 0.87187 0.54844 0.73292 0.0
H2745 H 0.90124 0.53795 0.68376 0.0
H2746 H 0.90391 0.51744 0.66096 0.0
H2747 H 0.83944 0.49964 0.64583 0.0
H2748 H 0.83628 0.51983 0.66869 0.0
H2749 H 0.88041 0.6424 0.70104 0.0
H2750 H 0.88716 0.61358 0.70762 0.0
H2751 H 0.8279 0.56908 0.6834 0.0
H2752 H 0.82126 0.59787 0.67644 0.0
H2753 H 0.8597 0.56162 0.67596 0.0
H2754 H 0.83218 0.57549 0.7248 0.0
H2755 H 0.83198 0.5985 0.74674 0.0
H2756 H 0.89475 0.61139 0.76239 0.0
H2757 H 0.89571 0.58907 0.74025 0.0
C2758 C 0.86479 0.48423 0.71046 0.0
C2759 C 0.88373 0.48876 0.71888 0.0
C2760 C 0.86005 0.5003 0.70729 0.0
C2761 C 0.8743 0.5212 0.71235 0.0
C2762 C 0.89292 0.5256 0.7212 0.0
C2763 C 0.89759 0.50949 0.72445 0.0
C2764 C 0.8701 0.53858 0.70805 0.0
C2765 C 0.8694 0.55147 0.72046 0.0
C2766 C 0.86657 0.54232 0.69181 0.0
C2767 C 0.86845 0.53021 0.67803 0.0
C2768 C 0.88757 0.52953 0.67565 0.0
C2769 C 0.88918 0.51798 0.6627 0.0
C2770 C 0.87183 0.5072 0.65198 0.0
C2771 C 0.85285 0.50798 0.65416 0.0
C2772 C 0.85115 0.51948 0.6671 0.0
C2773 C 0.86884 0.6265 0.69706 0.0
C2774 C 0.85029 0.62243 0.68822 0.0
C2775 C 0.87268 0.61003 0.7009 0.0
C2776 C 0.85785 0.58913 0.69624 0.0
C2777 C 0.83952 0.58508 0.68715 0.0
C2778 C 0.83577 0.60157 0.68317 0.0
C2779 C 0.86143 0.57147 0.70081 0.0
C2780 C 0.86202 0.55853 0.68844 0.0
C2781 C 0.86501 0.56782 0.71708 0.0
C2782 C 0.86409 0.5807 0.73075 0.0
C2783 C 0.846 0.58331 0.73286 0.0
C2784 C 0.84575 0.59624 0.74532 0.0
C2785 C 0.86331 0.60636 0.75595 0.0
C2786 C 0.88116 0.60355 0.75414 0.0
C2787 C 0.88158 0.59078 0.74162 0.0
H2788 H 0.86307 0.61637 0.76557 0.0
H2789 H 0.87311 0.49827 0.64196 0.0
H2790 H 0.47876 0.91367 0.25005 0.0
H2791 H 0.49 0.93056 0.22366 0.0
H2792 H 0.42416 0.89532 0.20648 0.0
H2793 H 0.41288 0.87761 0.23271 0.0
H2794 H 0.45113 0.8969 0.18337 0.0
H2795 H 0.44697 0.94765 0.21771 0.0
H2796 H 0.4542 0.96991 0.24208 0.0
H2797 H 0.52223 0.00179 0.23218 0.0
H2798 H 0.51544 0.9795 0.20786 0.0
H2799 H 0.47159 0.96602 0.11478 0.0
H2800 H 0.45739 0.94462 0.13934 0.0
H2801 H 0.5216 0.97481 0.15984 0.0
H2802 H 0.53588 0.99591 0.13538 0.0
H2803 H 0.49311 0.97535 0.18088 0.0
H2804 H 0.49688 0.92359 0.14672 0.0
H2805 H 0.48918 0.90135 0.12227 0.0
H2806 H 0.42111 0.87176 0.13156 0.0
H2807 H 0.4284 0.89401 0.15598 0.0
C2808 C 0.46666 0.90924 0.24063 0.0
C2809 C 0.44486 0.89426 0.24363 0.0
C2810 C 0.47309 0.91912 0.22554 0.0
C2811 C 0.4579 0.91451 0.21308 0.0
C2812 C 0.4362 0.89926 0.21589 0.0
C2813 C 0.42974 0.88929 0.23099 0.0
C2814 C 0.46469 0.92586 0.19727 0.0
C2815 C 0.46004 0.91406 0.18281 0.0
C2816 C 0.47656 0.94827 0.19646 0.0
C2817 C 0.48071 0.96177 0.21104 0.0
C2818 C 0.46349 0.9593 0.2208 0.0
C2819 C 0.46751 0.97194 0.23459 0.0
C2820 C 0.48866 0.98722 0.2387 0.0
C2821 C 0.50585 0.98993 0.22899 0.0
C2822 C 0.50193 0.97731 0.21519 0.0
C2823 C 0.48273 0.96782 0.1244 0.0
C2824 C 0.50487 0.98289 0.12313 0.0
C2825 C 0.47458 0.95561 0.13847 0.0
C2826 C 0.48841 0.95813 0.15151 0.0
C2827 C 0.51056 0.97269 0.15004 0.0
C2828 C 0.5187 0.98482 0.13603 0.0
C2829 C 0.47989 0.94642 0.16701 0.0
C2830 C 0.48415 0.95819 0.18143 0.0
C2831 C 0.46759 0.92403 0.16773 0.0
C2832 C 0.46318 0.91063 0.15308 0.0
C2833 C 0.48026 0.91246 0.14347 0.0
C2834 C 0.47597 0.89983 0.12964 0.0
C2835 C 0.45467 0.8852 0.12534 0.0
C2836 C 0.4376 0.88312 0.13489 0.0
C2837 C 0.4418 0.89573 0.14874 0.0
H2838 H 0.45138 0.87543 0.11462 0.0
H2839 H 0.49174 0.997 0.24938 0.0
H2840 H 0.14517 0.5844 0.23063 0.0
H2841 H 0.12861 0.57835 0.20367 0.0
H2842 H 0.08267 0.51394 0.21673 0.0
H2843 H 0.09928 0.51982 0.24355 0.0
H2844 H 0.09625 0.51522 0.18666 0.0
H2845 H 0.06971 0.55354 0.21774 0.0
H2846 H 0.07308 0.58314 0.2345 0.0
H2847 H 0.10664 0.62665 0.19595 0.0
H2848 H 0.10373 0.59732 0.17905 0.0
H2849 H 0.00758 0.49035 0.13414 0.0
H2850 H 0.03168 0.49863 0.15757 0.0
H2851 H 0.07776 0.55774 0.13558 0.0
H2852 H 0.05375 0.54946 0.11202 0.0
H2853 H 0.06758 0.56125 0.16829 0.0
H2854 H 0.09059 0.52136 0.13628 0.0
H2855 H 0.08611 0.49107 0.11987 0.0
H2856 H 0.05761 0.44967 0.16045 0.0
H2857 H 0.06168 0.47967 0.17706 0.0
C2858 C 0.13156 0.56895 0.22771 0.0
C2859 C 0.12348 0.5526 0.2392 0.0
C2860 C 0.12213 0.56551 0.21232 0.0
C2861 C 0.10424 0.54576 0.20825 0.0
C2862 C 0.0965 0.52928 0.21958 0.0
C2863 C 0.10602 0.53266 0.23489 0.0
C2864 C 0.093 0.54236 0.19244 0.0
C2865 C 0.08985 0.5252 0.1827 0.0
C2866 C 0.08507 0.55566 0.1871 0.0
C2867 C 0.08672 0.57328 0.19721 0.0
C2868 C 0.07795 0.56944 0.21289 0.0
C2869 C 0.07976 0.58616 0.22241 0.0
C2870 C 0.09013 0.60677 0.21631 0.0
C2871 C 0.09865 0.61068 0.20067 0.0
C2872 C 0.09692 0.59402 0.19111 0.0
C2873 C 0.02286 0.50509 0.13432 0.0
C2874 C 0.02883 0.51929 0.12132 0.0
C2875 C 0.03665 0.50973 0.14762 0.0
C2876 C 0.05653 0.52872 0.14821 0.0
C2877 C 0.06251 0.54297 0.13528 0.0
C2878 C 0.04886 0.5382 0.12185 0.0
C2879 C 0.07059 0.53397 0.16268 0.0
C2880 C 0.07423 0.55145 0.17217 0.0
C2881 C 0.07879 0.52086 0.16784 0.0
C2882 C 0.07626 0.50275 0.15788 0.0
C2883 C 0.08318 0.50577 0.14167 0.0
C2884 C 0.08077 0.48866 0.13234 0.0
C2885 C 0.07152 0.46845 0.1391 0.0
C2886 C 0.06475 0.46533 0.15522 0.0
C2887 C 0.06713 0.48239 0.16461 0.0
H2888 H 0.06964 0.45522 0.13186 0.0
H2889 H 0.09151 0.6197 0.2237 0.0
H2890 H 0.49506 0.57723 0.24696 0.0
H2891 H 0.50201 0.56962 0.21957 0.0
H2892 H 0.43499 0.54488 0.20698 0.0
H2893 H 0.42791 0.55296 0.2344 0.0
H2894 H 0.45141 0.51939 0.19601 0.0
H2895 H 0.47031 0.59198 0.1934 0.0
H2896 H 0.48803 0.62939 0.20204 0.0
H2897 H 0.55033 0.63496 0.19597 0.0
H2898 H 0.53299 0.59747 0.18752 0.0
H2899 H 0.47746 0.51223 0.1134 0.0
H2900 H 0.4636 0.5219 0.13715 0.0
H2901 H 0.52777 0.55442 0.15784 0.0
H2902 H 0.54175 0.54548 0.13401 0.0
H2903 H 0.50823 0.5767 0.16281 0.0
H2904 H 0.48955 0.50346 0.16908 0.0
H2905 H 0.47237 0.46589 0.16091 0.0
H2906 H 0.41019 0.46157 0.16046 0.0
H2907 H 0.42705 0.49923 0.16843 0.0
C2908 C 0.48179 0.57041 0.23835 0.0
C2909 C 0.46096 0.56599 0.24288 0.0
C2910 C 0.4858 0.56599 0.22269 0.0
C2911 C 0.4691 0.55698 0.21115 0.0
C2912 C 0.44813 0.55192 0.21569 0.0
C2913 C 0.4441 0.55646 0.23139 0.0
C2914 C 0.47378 0.55289 0.19442 0.0
C2915 C 0.46351 0.53197 0.18859 0.0
C2916 C 0.4898 0.56926 0.18485 0.0
C2917 C 0.50033 0.59184 0.18993 0.0
C2918 C 0.48779 0.60112 0.19403 0.0
C2919 C 0.49777 0.62235 0.19887 0.0
C2920 C 0.52029 0.63453 0.19958 0.0
C2921 C 0.53289 0.6255 0.19542 0.0
C2922 C 0.52299 0.60426 0.19059 0.0
C2923 C 0.48865 0.52173 0.1229 0.0
C2924 C 0.51067 0.52788 0.12189 0.0
C2925 C 0.48068 0.52708 0.13654 0.0
C2926 C 0.49458 0.53861 0.14942 0.0
C2927 C 0.51669 0.54544 0.14811 0.0
C2928 C 0.52464 0.54014 0.13453 0.0
C2929 C 0.48628 0.54312 0.16456 0.0
C2930 C 0.49588 0.56415 0.1701 0.0
C2931 C 0.46973 0.52683 0.17389 0.0
C2932 C 0.45958 0.5042 0.16915 0.0
C2933 C 0.47223 0.49454 0.16711 0.0
C2934 C 0.46255 0.47322 0.16254 0.0
C2935 C 0.44021 0.46137 0.16012 0.0
C2936 C 0.42749 0.47079 0.16231 0.0
C2937 C 0.4371 0.49211 0.16686 0.0
H2938 H 0.43275 0.44487 0.15658 0.0
H2939 H 0.52799 0.65098 0.20331 0.0
H2940 H 0.8816 0.41654 0.79553 0.0
H2941 H 0.89978 0.42828 0.82187 0.0
H2942 H 0.94413 0.48932 0.80166 0.0
H2943 H 0.9261 0.47765 0.77529 0.0
H2944 H 0.96434 0.47068 0.81807 0.0
H2945 H 0.90693 0.4857 0.82709 0.0
H2946 H 0.86902 0.47746 0.82794 0.0
H2947 H 0.85459 0.42899 0.86315 0.0
H2948 H 0.89237 0.43674 0.86234 0.0
H2949 H 0.01924 0.51792 0.89041 0.0
H2950 H 0.99737 0.51137 0.86592 0.0
H2951 H 0.94702 0.4532 0.88647 0.0
H2952 H 0.96862 0.46008 0.9112 0.0
H2953 H 0.92954 0.47164 0.86977 0.0
H2954 H 0.98466 0.4538 0.85984 0.0
H2955 H 0.02186 0.45994 0.85898 0.0
H2956 H 0.03965 0.51079 0.82534 0.0
H2957 H 1.0026 0.50514 0.82619 0.0
C2958 C 0.89515 0.4325 0.79675 0.0
C2959 C 0.90247 0.44619 0.78338 0.0
C2960 C 0.90541 0.43922 0.8118 0.0
C2961 C 0.92321 0.4597 0.8137 0.0
C2962 C 0.93036 0.47349 0.80043 0.0
C2963 C 0.91999 0.46685 0.78542 0.0
C2964 C 0.9352 0.46627 0.82925 0.0
C2965 C 0.95686 0.47126 0.82934 0.0
C2966 C 0.92516 0.46632 0.84399 0.0
C2967 C 0.90245 0.46167 0.84453 0.0
C2968 C 0.89564 0.47316 0.83491 0.0
C2969 C 0.87418 0.46861 0.8354 0.0
C2970 C 0.85939 0.45268 0.84556 0.0
C2971 C 0.86605 0.44131 0.85527 0.0
C2972 C 0.8875 0.44579 0.85481 0.0
C2973 C 1.00342 0.50384 0.88972 0.0
C2974 C 0.99568 0.48937 0.90258 0.0
C2975 C 0.99096 0.50009 0.87574 0.0
C2976 C 0.97076 0.48154 0.87421 0.0
C2977 C 0.96258 0.46757 0.88736 0.0
C2978 C 0.97492 0.47149 0.90146 0.0
C2979 C 0.95876 0.47614 0.8586 0.0
C2980 C 0.93709 0.47124 0.85849 0.0
C2981 C 0.96867 0.47585 0.84383 0.0
C2982 C 0.99092 0.47919 0.84321 0.0
C2983 C 0.99654 0.46639 0.85235 0.0
C2984 C 0.01759 0.46977 0.85185 0.0
C2985 C 0.03312 0.48578 0.84214 0.0
C2986 C 0.02761 0.49841 0.83288 0.0
C2987 C 0.00659 0.49512 0.83335 0.0
H2988 H 0.04941 0.48837 0.84177 0.0
H2989 H 0.84278 0.44918 0.84593 0.0
H2990 H 0.53962 0.44611 0.77508 0.0
H2991 H 0.5281 0.45078 0.80182 0.0
H2992 H 0.59415 0.48162 0.81872 0.0
H2993 H 0.60576 0.4763 0.79207 0.0
H2994 H 0.56674 0.4547 0.84143 0.0
H2995 H 0.57112 0.51074 0.80869 0.0
H2996 H 0.56412 0.52663 0.78477 0.0
H2997 H 0.49595 0.4911 0.79401 0.0
H2998 H 0.50251 0.47475 0.81786 0.0
H2999 H 0.54592 0.50219 0.91087 0.0
H3000 H 0.56002 0.4949 0.88613 0.0
H3001 H 0.49569 0.46207 0.8658 0.0
H3002 H 0.48147 0.46899 0.89049 0.0
H3003 H 0.5244 0.49161 0.84524 0.0
H3004 H 0.51994 0.43423 0.87706 0.0
H3005 H 0.52687 0.41833 0.90101 0.0
H3006 H 0.59526 0.45729 0.89396 0.0
H3007 H 0.58872 0.4734 0.86991 0.0
C3008 C 0.5517 0.45362 0.78452 0.0
C3009 C 0.57365 0.46088 0.78138 0.0
C3010 C 0.5451 0.45646 0.79978 0.0
C3011 C 0.56029 0.46682 0.81223 0.0
C3012 C 0.58215 0.47367 0.80928 0.0
C3013 C 0.58879 0.4708 0.794 0.0
C3014 C 0.5533 0.47087 0.82814 0.0
C3015 C 0.55775 0.46304 0.8423 0.0
C3016 C 0.54131 0.48149 0.82928 0.0
C3017 C 0.5373 0.49138 0.81498 0.0
C3018 C 0.55462 0.50619 0.80555 0.0
C3019 C 0.55073 0.5153 0.79201 0.0
C3020 C 0.5296 0.50985 0.78785 0.0
C3021 C 0.51231 0.4953 0.79724 0.0
C3022 C 0.51611 0.48612 0.81078 0.0
C3023 C 0.53473 0.49305 0.90126 0.0
C3024 C 0.51259 0.48637 0.9026 0.0
C3025 C 0.54282 0.48894 0.88711 0.0
C3026 C 0.52891 0.47799 0.87409 0.0
C3027 C 0.50674 0.4707 0.87563 0.0
C3028 C 0.49866 0.47474 0.88974 0.0
C3029 C 0.53748 0.47512 0.85849 0.0
C3030 C 0.53342 0.4833 0.84439 0.0
C3031 C 0.54984 0.46489 0.85744 0.0
C3032 C 0.55384 0.45515 0.87179 0.0
C3033 C 0.53646 0.43949 0.88068 0.0
C3034 C 0.54031 0.43042 0.89425 0.0
C3035 C 0.56149 0.43689 0.89907 0.0
C3036 C 0.57886 0.45233 0.89024 0.0
C3037 C 0.57509 0.46138 0.8766 0.0
H3038 H 0.56443 0.4299 0.90962 0.0
H3039 H 0.52662 0.51692 0.77736 0.0
H3040 H 0.52105 0.09748 0.779 0.0
H3041 H 0.51433 0.0824 0.80613 0.0
H3042 H 0.58157 0.12281 0.81847 0.0
H3043 H 0.58843 0.13812 0.79124 0.0
H3044 H 0.56697 0.08322 0.82958 0.0
H3045 H 0.54347 0.13393 0.83264 0.0
H3046 H 0.5237 0.15196 0.82406 0.0
H3047 H 0.46334 0.09418 0.82987 0.0
H3048 H 0.48276 0.0757 0.83826 0.0
H3049 H 0.54313 0.05039 0.9123 0.0
H3050 H 0.5555 0.07382 0.88865 0.0
H3051 H 0.49128 0.03983 0.86817 0.0
H3052 H 0.47879 0.01694 0.89184 0.0
H3053 H 0.50825 0.08096 0.86302 0.0
H3054 H 0.53208 0.02963 0.85673 0.0
H3055 H 0.55171 0.01135 0.86509 0.0
H3056 H 0.61147 0.07058 0.8654 0.0
H3057 H 0.59213 0.08924 0.85723 0.0
C3058 C 0.53441 0.10335 0.7875 0.0
C3059 C 0.55526 0.1192 0.78293 0.0
C3060 C 0.53054 0.09468 0.80305 0.0
C3061 C 0.54736 0.1017 0.8145 0.0
C3062 C 0.5683 0.11717 0.80989 0.0
C3063 C 0.57221 0.12586 0.79429 0.0
C3064 C 0.54292 0.09273 0.83119 0.0
C3065 C 0.5544 0.08309 0.83702 0.0
C3066 C 0.52637 0.0923 0.84089 0.0
C3067 C 0.5146 0.10339 0.83597 0.0
C3068 C 0.52599 0.12503 0.83199 0.0
C3069 C 0.51484 0.13533 0.82717 0.0
C3070 C 0.49228 0.12421 0.82639 0.0
C3071 C 0.48082 0.10277 0.83047 0.0
C3072 C 0.49189 0.09238 0.83528 0.0
C3073 C 0.5316 0.04817 0.90287 0.0
C3074 C 0.51004 0.03159 0.90387 0.0
C3075 C 0.53872 0.06145 0.88928 0.0
C3076 C 0.52442 0.05839 0.87644 0.0
C3077 C 0.50269 0.04249 0.87782 0.0
C3078 C 0.4956 0.02927 0.89134 0.0
C3079 C 0.53193 0.071 0.86123 0.0
C3080 C 0.52102 0.08135 0.85568 0.0
C3081 C 0.54899 0.07207 0.85179 0.0
C3082 C 0.56064 0.06085 0.85656 0.0
C3083 C 0.54939 0.03876 0.85869 0.0
C3084 C 0.56046 0.02833 0.86337 0.0
C3085 C 0.58282 0.0398 0.86582 0.0
C3086 C 0.59415 0.06172 0.86353 0.0
C3087 C 0.58315 0.07223 0.85887 0.0
H3088 H 0.59136 0.0317 0.86946 0.0
H3089 H 0.48368 0.13222 0.82266 0.0
H3090 H 0.14708 0.24642 0.58392 0.0
H3091 H 0.15924 0.26435 0.55797 0.0
H3092 H 0.09338 0.23344 0.54069 0.0
H3093 H 0.08113 0.21458 0.5664 0.0
H3094 H 0.11918 0.23456 0.51706 0.0
H3095 H 0.11923 0.28536 0.55377 0.0
H3096 H 0.1278 0.30646 0.57892 0.0
H3097 H 0.19561 0.33504 0.5689 0.0
H3098 H 0.18745 0.31387 0.54379 0.0
H3099 H 0.1436 0.3077 0.45117 0.0
H3100 H 0.12858 0.28592 0.47541 0.0
H3101 H 0.19281 0.31153 0.49527 0.0
H3102 H 0.2079 0.33315 0.47113 0.0
H3103 H 0.16569 0.31279 0.51719 0.0
H3104 H 0.16462 0.26077 0.48014 0.0
H3105 H 0.15494 0.24074 0.4544 0.0
H3106 H 0.08756 0.21541 0.46457 0.0
H3107 H 0.09685 0.2355 0.4903 0.0
C3108 C 0.13515 0.24315 0.57456 0.0
C3109 C 0.11306 0.22906 0.57737 0.0
C3110 C 0.14213 0.25362 0.55973 0.0
C3111 C 0.12722 0.25056 0.5474 0.0
C3112 C 0.10521 0.23618 0.55001 0.0
C3113 C 0.09821 0.22558 0.56482 0.0
C3114 C 0.13462 0.2627 0.53196 0.0
C3115 C 0.12913 0.25169 0.51709 0.0
C3116 C 0.14774 0.28506 0.5319 0.0
C3117 C 0.15272 0.29788 0.54697 0.0
C3118 C 0.13597 0.29603 0.55699 0.0
C3119 C 0.14076 0.30802 0.57123 0.0
C3120 C 0.16224 0.32204 0.57552 0.0
C3121 C 0.17898 0.32415 0.56557 0.0
C3122 C 0.17428 0.31217 0.55132 0.0
C3123 C 0.15455 0.30847 0.46059 0.0
C3124 C 0.17697 0.32233 0.45922 0.0
C3125 C 0.14593 0.29602 0.47447 0.0
C3126 C 0.15956 0.29704 0.4872 0.0
C3127 C 0.18194 0.31056 0.4857 0.0
C3128 C 0.19054 0.32298 0.47188 0.0
C3129 C 0.15064 0.28465 0.50235 0.0
C3130 C 0.15576 0.29565 0.51717 0.0
C3131 C 0.13705 0.26235 0.50231 0.0
C3132 C 0.13143 0.24979 0.48708 0.0
C3133 C 0.14774 0.251 0.47686 0.0
C3134 C 0.14232 0.23964 0.46227 0.0
C3135 C 0.12065 0.22687 0.45783 0.0
C3136 C 0.10434 0.22533 0.46802 0.0
C3137 C 0.10967 0.23668 0.48261 0.0
H3138 H 0.11649 0.21814 0.4465 0.0
H3139 H 0.16591 0.33132 0.58655 0.0
H3140 H 0.7558 0.89533 0.58442 0.0
H3141 H 0.73882 0.88994 0.55787 0.0
H3142 H 0.77493 0.86091 0.54062 0.0
H3143 H 0.79297 0.86734 0.56697 0.0
H3144 H 0.77335 0.88562 0.51792 0.0
H3145 H 0.72152 0.83081 0.55162 0.0
H3146 H 0.69882 0.8154 0.57577 0.0
H3147 H 0.66629 0.85032 0.56606 0.0
H3148 H 0.68902 0.86619 0.54196 0.0
H3149 H 0.70297 0.83686 0.4493 0.0
H3150 H 0.72367 0.84319 0.47442 0.0
H3151 H 0.69548 0.879 0.49354 0.0
H3152 H 0.67513 0.87318 0.4684 0.0
H3153 H 0.6933 0.84896 0.51484 0.0
H3154 H 0.74666 0.90409 0.48091 0.0
H3155 H 0.76902 0.91789 0.4564 0.0
H3156 H 0.79815 0.87986 0.4662 0.0
H3157 H 0.77573 0.8656 0.49066 0.0
C3158 C 0.76045 0.88812 0.57494 0.0
C3159 C 0.77573 0.8817 0.5779 0.0
C3160 C 0.7505 0.8848 0.55979 0.0
C3161 C 0.75528 0.87465 0.54733 0.0
C3162 C 0.77087 0.86865 0.55009 0.0
C3163 C 0.781 0.87214 0.56522 0.0
C3164 C 0.74374 0.87008 0.53153 0.0
C3165 C 0.75584 0.87733 0.51723 0.0
C3166 C 0.72089 0.85942 0.53061 0.0
C3167 C 0.70711 0.84983 0.54506 0.0
C3168 C 0.70963 0.83533 0.5547 0.0
C3169 C 0.69675 0.82649 0.56837 0.0
C3170 C 0.68116 0.83191 0.57247 0.0
C3171 C 0.67839 0.84615 0.56288 0.0
C3172 C 0.69125 0.85506 0.5492 0.0
C3173 C 0.70142 0.84636 0.45875 0.0
C3174 C 0.68731 0.85445 0.45685 0.0
C3175 C 0.71321 0.84989 0.47311 0.0
C3176 C 0.71112 0.8616 0.48582 0.0
C3177 C 0.69723 0.86983 0.48391 0.0
C3178 C 0.68553 0.8664 0.46955 0.0
C3179 C 0.72291 0.86481 0.50132 0.0
C3180 C 0.71081 0.8572 0.51556 0.0
C3181 C 0.74571 0.87489 0.50213 0.0
C3182 C 0.75935 0.88362 0.48752 0.0
C3183 C 0.75771 0.89854 0.47777 0.0
C3184 C 0.77042 0.90647 0.4639 0.0
C3185 C 0.78495 0.89971 0.45972 0.0
C3186 C 0.78686 0.88506 0.46944 0.0
C3187 C 0.77417 0.87706 0.48331 0.0
H3188 H 0.79476 0.90585 0.44897 0.0
H3189 H 0.6712 0.82505 0.58306 0.0
H3190 H 0.10857 0.86178 0.57901 0.0
H3191 H 0.11594 0.8533 0.55206 0.0
H3192 H 0.15358 0.91993 0.54116 0.0
H3193 H 0.14456 0.92849 0.56743 0.0
H3194 H 0.13433 0.90152 0.51545 0.0
H3195 H 0.17619 0.88763 0.55385 0.0
H3196 H 0.18271 0.87158 0.57791 0.0
H3197 H 0.14226 0.80949 0.55779 0.0
H3198 H 0.13529 0.82517 0.53368 0.0
H3199 H 0.21011 0.8957 0.46044 0.0
H3200 H 0.19375 0.90074 0.48496 0.0
H3201 H 0.13761 0.83906 0.47787 0.0
H3202 H 0.15365 0.83423 0.45299 0.0
H3203 H 0.16355 0.85258 0.51149 0.0
H3204 H 0.12478 0.86971 0.47152 0.0
H3205 H 0.12301 0.88854 0.44732 0.0
H3206 H 0.16356 0.94829 0.47088 0.0
H3207 H 0.16582 0.92978 0.49516 0.0
C3208 C 0.11801 0.87467 0.5708 0.0
C3209 C 0.1262 0.89589 0.57565 0.0
C3210 C 0.12253 0.86978 0.55541 0.0
C3211 C 0.13587 0.88596 0.54464 0.0
C3212 C 0.14342 0.9071 0.54922 0.0
C3213 C 0.13851 0.91199 0.56445 0.0
C3214 C 0.14248 0.88103 0.52881 0.0
C3215 C 0.14081 0.89089 0.51468 0.0
C3216 C 0.15084 0.86703 0.5276 0.0
C3217 C 0.15502 0.85756 0.54206 0.0
C3218 C 0.16856 0.87055 0.55461 0.0
C3219 C 0.17236 0.86152 0.56825 0.0
C3220 C 0.16285 0.83953 0.5694 0.0
C3221 C 0.14958 0.82652 0.55689 0.0
C3222 C 0.14571 0.83546 0.54324 0.0
C3223 C 0.1942 0.88331 0.46407 0.0
C3224 C 0.18308 0.86459 0.4549 0.0
C3225 C 0.1849 0.88621 0.47801 0.0
C3226 C 0.16451 0.87027 0.48316 0.0
C3227 C 0.15335 0.85154 0.47403 0.0
C3228 C 0.16245 0.84883 0.45985 0.0
C3229 C 0.15534 0.87305 0.49841 0.0
C3230 C 0.15674 0.86293 0.51237 0.0
C3231 C 0.14727 0.88718 0.49954 0.0
C3232 C 0.14564 0.89835 0.48508 0.0
C3233 C 0.13347 0.88686 0.47149 0.0
C3234 C 0.13234 0.89747 0.45778 0.0
C3235 C 0.14322 0.9196 0.45755 0.0
C3236 C 0.15517 0.93115 0.47107 0.0
C3237 C 0.15635 0.9206 0.48482 0.0
H3238 H 0.14235 0.92776 0.4469 0.0
H3239 H 0.16581 0.83257 0.57996 0.0
H3240 H 0.58566 0.75921 0.11563 0.0
H3241 H 0.60024 0.76747 0.14307 0.0
H3242 H 0.55894 0.7932 0.15421 0.0
H3243 H 0.54382 0.78456 0.12666 0.0
H3244 H 0.60127 0.81868 0.16511 0.0
H3245 H 0.54588 0.7466 0.16919 0.0
H3246 H 0.52477 0.70891 0.16138 0.0
H3247 H 0.58093 0.70254 0.16774 0.0
H3248 H 0.60248 0.74029 0.17534 0.0
H3249 H 0.6387 0.82799 0.24707 0.0
H3250 H 0.61389 0.81816 0.22394 0.0
H3251 H 0.64325 0.78468 0.2024 0.0
H3252 H 0.6674 0.79368 0.22567 0.0
H3253 H 0.60045 0.76239 0.19929 0.0
H3254 H 0.65667 0.83545 0.19066 0.0
H3255 H 0.67824 0.87323 0.1982 0.0
H3256 H 0.62048 0.8775 0.20039 0.0
H3257 H 0.59855 0.83966 0.19303 0.0
C3258 C 0.57942 0.76637 0.12394 0.0
C3259 C 0.56333 0.77094 0.11901 0.0
C3260 C 0.58784 0.77115 0.13962 0.0
C3261 C 0.5804 0.78061 0.15074 0.0
C3262 C 0.56479 0.78578 0.1458 0.0
C3263 C 0.55625 0.78091 0.13006 0.0
C3264 C 0.58932 0.78521 0.16743 0.0
C3265 C 0.6007 0.80633 0.17276 0.0
C3266 C 0.58874 0.7691 0.17731 0.0
C3267 C 0.57584 0.74634 0.17275 0.0
C3268 C 0.55378 0.73721 0.1688 0.0
C3269 C 0.54173 0.71582 0.16443 0.0
C3270 C 0.55151 0.70334 0.16404 0.0
C3271 C 0.57337 0.71223 0.16804 0.0
C3272 C 0.58551 0.73362 0.1724 0.0
C3273 C 0.63966 0.8183 0.2375 0.0
C3274 C 0.65517 0.81178 0.23814 0.0
C3275 C 0.6256 0.81285 0.22423 0.0
C3276 C 0.6269 0.8009 0.21134 0.0
C3277 C 0.64199 0.79396 0.21217 0.0
C3278 C 0.65596 0.79932 0.22541 0.0
C3279 C 0.61305 0.79594 0.19671 0.0
C3280 C 0.60069 0.7747 0.19179 0.0
C3281 C 0.61277 0.81194 0.18721 0.0
C3282 C 0.62596 0.8347 0.19148 0.0
C3283 C 0.64857 0.84443 0.19285 0.0
C3284 C 0.66086 0.86585 0.19708 0.0
C3285 C 0.65073 0.87774 0.19982 0.0
C3286 C 0.6283 0.86826 0.19829 0.0
C3287 C 0.61593 0.84683 0.19408 0.0
H3288 H 0.66027 0.89433 0.2031 0.0
H3289 H 0.54214 0.68678 0.16067 0.0
H3290 H 0.20946 0.78473 0.10951 0.0
H3291 H 0.19805 0.79056 0.13592 0.0
H3292 H 0.26381 0.81991 0.15332 0.0
H3293 H 0.27527 0.81333 0.12705 0.0
H3294 H 0.2363 0.79464 0.17616 0.0
H3295 H 0.24197 0.8501 0.14234 0.0
H3296 H 0.23581 0.86595 0.11801 0.0
H3297 H 0.16747 0.83187 0.12675 0.0
H3298 H 0.17319 0.81557 0.15101 0.0
H3299 H 0.21306 0.84192 0.2447 0.0
H3300 H 0.22843 0.83549 0.22029 0.0
H3301 H 0.16499 0.8023 0.19848 0.0
H3302 H 0.14951 0.80836 0.22282 0.0
H3303 H 0.19448 0.83219 0.17841 0.0
H3304 H 0.18924 0.77456 0.21096 0.0
H3305 H 0.19584 0.75914 0.23535 0.0
H3306 H 0.26431 0.79924 0.2295 0.0
H3307 H 0.25809 0.81482 0.20497 0.0
C3308 C 0.22149 0.79215 0.119 0.0
C3309 C 0.24332 0.79862 0.1161 0.0
C3310 C 0.21497 0.79568 0.13407 0.0
C3311 C 0.23012 0.80599 0.14655 0.0
C3312 C 0.25184 0.81204 0.14385 0.0
C3313 C 0.25839 0.80844 0.12877 0.0
C3314 C 0.22323 0.81069 0.16226 0.0
C3315 C 0.22744 0.80314 0.17667 0.0
C3316 C 0.21151 0.82162 0.16297 0.0
C3317 C 0.208 0.83147 0.14842 0.0
C3318 C 0.22561 0.84586 0.13901 0.0
C3319 C 0.2222 0.85495 0.12524 0.0
C3320 C 0.20126 0.84989 0.12082 0.0
C3321 C 0.18368 0.83576 0.13018 0.0
C3322 C 0.187 0.82661 0.14395 0.0
C3323 C 0.20234 0.83294 0.23482 0.0
C3324 C 0.18006 0.82585 0.23566 0.0
C3325 C 0.21116 0.82932 0.22086 0.0
C3326 C 0.19786 0.81845 0.20753 0.0
C3327 C 0.17558 0.81088 0.20855 0.0
C3328 C 0.16677 0.81444 0.22246 0.0
C3329 C 0.20707 0.8157 0.19222 0.0
C3330 C 0.20341 0.82377 0.17789 0.0
C3331 C 0.2194 0.8054 0.19162 0.0
C3332 C 0.22319 0.79597 0.20625 0.0
C3333 C 0.20569 0.78016 0.21493 0.0
C3334 C 0.20936 0.77137 0.22876 0.0
C3335 C 0.23047 0.77831 0.23405 0.0
C3336 C 0.24796 0.79392 0.22542 0.0
C3337 C 0.24438 0.80267 0.21151 0.0
H3338 H 0.23326 0.77153 0.2448 0.0
H3339 H 0.19865 0.85694 0.11015 0.0
H3340 H 0.18742 0.42438 0.11316 0.0
H3341 H 0.17893 0.40821 0.13994 0.0
H3342 H 0.24378 0.45207 0.15614 0.0
H3343 H 0.25246 0.46828 0.12918 0.0
H3344 H 0.2306 0.41276 0.16742 0.0
H3345 H 0.20146 0.45936 0.16655 0.0
H3346 H 0.18028 0.47454 0.15508 0.0
H3347 H 0.12237 0.41395 0.15815 0.0
H3348 H 0.14326 0.39832 0.16943 0.0
H3349 H 0.20102 0.37984 0.24926 0.0
H3350 H 0.21421 0.40241 0.2253 0.0
H3351 H 0.15134 0.36639 0.20291 0.0
H3352 H 0.13777 0.34469 0.22707 0.0
H3353 H 0.16661 0.40595 0.19628 0.0
H3354 H 0.19583 0.3586 0.19416 0.0
H3355 H 0.21666 0.34257 0.2048 0.0
H3356 H 0.27386 0.40389 0.20695 0.0
H3357 H 0.25329 0.42031 0.19647 0.0
C3358 C 0.19987 0.43067 0.12243 0.0
C3359 C 0.22055 0.44781 0.11907 0.0
C3360 C 0.19499 0.4214 0.13776 0.0
C3361 C 0.21056 0.42919 0.15021 0.0
C3362 C 0.23145 0.44585 0.14677 0.0
C3363 C 0.2364 0.45508 0.13135 0.0
C3364 C 0.20481 0.41997 0.16678 0.0
C3365 C 0.21683 0.4116 0.17386 0.0
C3366 C 0.18667 0.41817 0.17514 0.0
C3367 C 0.17396 0.42764 0.16874 0.0
C3368 C 0.18423 0.44925 0.16472 0.0
C3369 C 0.17227 0.45794 0.15825 0.0
C3370 C 0.15 0.44521 0.15586 0.0
C3371 C 0.13963 0.42379 0.16 0.0
C3372 C 0.15151 0.41501 0.16646 0.0
C3373 C 0.18989 0.37694 0.23936 0.0
C3374 C 0.16836 0.36018 0.24009 0.0
C3375 C 0.19754 0.38973 0.22555 0.0
C3376 C 0.18392 0.38588 0.21207 0.0
C3377 C 0.16227 0.36965 0.21304 0.0
C3378 C 0.15458 0.35705 0.22685 0.0
C3379 C 0.19206 0.39825 0.19678 0.0
C3380 C 0.18051 0.40728 0.18994 0.0
C3381 C 0.21056 0.40057 0.18862 0.0
C3382 C 0.22299 0.39069 0.1947 0.0
C3383 C 0.21283 0.36867 0.19698 0.0
C3384 C 0.22458 0.35952 0.20297 0.0
C3385 C 0.24655 0.37222 0.20659 0.0
C3386 C 0.25683 0.39408 0.20417 0.0
C3387 C 0.24514 0.40332 0.19819 0.0
H3388 H 0.25562 0.3651 0.21125 0.0
H3389 H 0.14078 0.45195 0.15081 0.0
H3390 H 0.74955 0.54698 0.89917 0.0
H3391 H 0.76158 0.56457 0.87302 0.0
H3392 H 0.82747 0.59726 0.89031 0.0
H3393 H 0.81547 0.58056 0.91673 0.0
H3394 H 0.81977 0.62377 0.87455 0.0
H3395 H 0.80715 0.5537 0.86354 0.0
H3396 H 0.78605 0.51468 0.86258 0.0
H3397 H 0.73946 0.51731 0.83114 0.0
H3398 H 0.76016 0.55638 0.83209 0.0
H3399 H 0.87497 0.65978 0.8008 0.0
H3400 H 0.86016 0.63912 0.82541 0.0
H3401 H 0.79557 0.61476 0.80669 0.0
H3402 H 0.8103 0.63573 0.78201 0.0
H3403 H 0.80095 0.58385 0.82261 0.0
H3404 H 0.81445 0.65416 0.83328 0.0
H3405 H 0.83621 0.69315 0.834 0.0
H3406 H 0.88177 0.68982 0.86615 0.0
H3407 H 0.86045 0.65078 0.86542 0.0
C3408 C 0.76659 0.55806 0.8975 0.0
C3409 C 0.78151 0.56226 0.91015 0.0
C3410 C 0.77349 0.56793 0.88241 0.0
C3411 C 0.79551 0.58207 0.87953 0.0
C3412 C 0.81041 0.58637 0.89215 0.0
C3413 C 0.80352 0.57661 0.90725 0.0
C3414 C 0.80306 0.59277 0.86353 0.0
C3415 C 0.81585 0.61496 0.86324 0.0
C3416 C 0.79753 0.58144 0.84864 0.0
C3417 C 0.78508 0.55796 0.84803 0.0
C3418 C 0.79232 0.54596 0.85653 0.0
C3419 C 0.78045 0.52383 0.85597 0.0
C3420 C 0.76139 0.51352 0.84684 0.0
C3421 C 0.75421 0.52532 0.83822 0.0
C3422 C 0.76601 0.54745 0.83876 0.0
C3423 C 0.8576 0.65008 0.80188 0.0
C3424 C 0.84384 0.64975 0.78949 0.0
C3425 C 0.84915 0.6382 0.81596 0.0
C3426 C 0.82673 0.62566 0.81805 0.0
C3427 C 0.81293 0.62438 0.80539 0.0
C3428 C 0.82139 0.63635 0.79125 0.0
C3429 C 0.81785 0.61473 0.83375 0.0
C3430 C 0.80479 0.59258 0.83396 0.0
C3431 C 0.82318 0.62605 0.84861 0.0
C3432 C 0.83595 0.64954 0.84918 0.0
C3433 C 0.8292 0.66174 0.84041 0.0
C3434 C 0.84144 0.68385 0.84083 0.0
C3435 C 0.86039 0.69396 0.85008 0.0
C3436 C 0.8671 0.68197 0.85897 0.0
C3437 C 0.85493 0.65985 0.85857 0.0
H3438 H 0.86984 0.71108 0.8504 0.0
H3439 H 0.75223 0.49639 0.84642 0.0
H3440 H 0.47495 0.24627 0.89555 0.0
H3441 H 0.45691 0.24051 0.8692 0.0
H3442 H 0.40883 0.17753 0.88384 0.0
H3443 H 0.42708 0.18305 0.90997 0.0
H3444 H 0.41859 0.17649 0.85361 0.0
H3445 H 0.39979 0.22018 0.88552 0.0
H3446 H 0.40707 0.25127 0.90214 0.0
H3447 H 0.44048 0.2924 0.86233 0.0
H3448 H 0.43364 0.26155 0.84554 0.0
H3449 H 0.33532 0.19404 0.80421 0.0
H3450 H 0.3581 0.20059 0.82788 0.0
H3451 H 0.40095 0.18755 0.79967 0.0
H3452 H 0.3769 0.17845 0.77649 0.0
H3453 H 0.39562 0.22733 0.83607 0.0
H3454 H 0.4274 0.17042 0.82212 0.0
H3455 H 0.4164 0.1373 0.80692 0.0
H3456 H 0.34961 0.11823 0.81402 0.0
H3457 H 0.36022 0.15115 0.82936 0.0
C3458 C 0.46058 0.23118 0.89307 0.0
C3459 C 0.45236 0.21513 0.9048 0.0
C3460 C 0.45028 0.22791 0.87804 0.0
C3461 C 0.43133 0.20868 0.87461 0.0
C3462 C 0.42345 0.19246 0.88617 0.0
C3463 C 0.43388 0.19563 0.9011 0.0
C3464 C 0.41915 0.20565 0.85928 0.0
C3465 C 0.41361 0.18764 0.84975 0.0
C3466 C 0.4124 0.22002 0.85431 0.0
C3467 C 0.41641 0.23858 0.86434 0.0
C3468 C 0.40882 0.23587 0.88035 0.0
C3469 C 0.41285 0.25344 0.88979 0.0
C3470 C 0.42428 0.2738 0.88331 0.0
C3471 C 0.43166 0.27662 0.86734 0.0
C3472 C 0.4277 0.2591 0.85786 0.0
C3473 C 0.34926 0.19202 0.80306 0.0
C3474 C 0.35394 0.1854 0.78833 0.0
C3475 C 0.36255 0.19615 0.81661 0.0
C3476 C 0.38114 0.19425 0.81573 0.0
C3477 C 0.38643 0.1886 0.80087 0.0
C3478 C 0.37278 0.18379 0.78744 0.0
C3479 C 0.39468 0.19795 0.83046 0.0
C3480 C 0.40064 0.21619 0.83985 0.0
C3481 C 0.4012 0.18342 0.83556 0.0
C3482 C 0.39462 0.1633 0.82677 0.0
C3483 C 0.41037 0.15908 0.82052 0.0
C3484 C 0.40421 0.14037 0.81186 0.0
C3485 C 0.38232 0.12568 0.8095 0.0
C3486 C 0.36655 0.12964 0.81584 0.0
C3487 C 0.37263 0.14832 0.8245 0.0
H3488 H 0.37759 0.11124 0.80275 0.0
H3489 H 0.42739 0.28739 0.89064 0.0
H3490 H 0.7614 0.21813 0.90112 0.0
H3491 H 0.76831 0.20936 0.87388 0.0
H3492 H 0.83559 0.23519 0.88616 0.0
H3493 H 0.8288 0.24342 0.91339 0.0
H3494 H 0.82952 0.24983 0.85671 0.0
H3495 H 0.80275 0.18298 0.88483 0.0
H3496 H 0.77579 0.15236 0.90041 0.0
H3497 H 0.72934 0.13664 0.8621 0.0
H3498 H 0.75596 0.16736 0.84638 0.0
H3499 H 0.87565 0.21189 0.80102 0.0
H3500 H 0.86104 0.22029 0.82472 0.0
H3501 H 0.79708 0.18661 0.80375 0.0
H3502 H 0.81161 0.17756 0.78004 0.0
H3503 H 0.79645 0.17643 0.83524 0.0
H3504 H 0.82369 0.2402 0.80561 0.0
H3505 H 0.84987 0.27084 0.78966 0.0
H3506 H 0.89399 0.29286 0.82998 0.0
H3507 H 0.86821 0.26219 0.84612 0.0
C3508 C 0.77761 0.2217 0.89809 0.0
C3509 C 0.79457 0.23166 0.90946 0.0
C3510 C 0.78154 0.21676 0.88249 0.0
C3511 C 0.80249 0.2217 0.87798 0.0
C3512 C 0.81935 0.23144 0.88932 0.0
C3513 C 0.81543 0.23622 0.90489 0.0
C3514 C 0.80715 0.21695 0.86145 0.0
C3515 C 0.82239 0.23378 0.85204 0.0
C3516 C 0.79721 0.19609 0.8551 0.0
C3517 C 0.78125 0.17761 0.86453 0.0
C3518 C 0.78673 0.1731 0.8798 0.0
C3519 C 0.77152 0.15571 0.88864 0.0
C3520 C 0.75084 0.1426 0.88228 0.0
C3521 C 0.74535 0.14683 0.86703 0.0
C3522 C 0.76049 0.16422 0.85815 0.0
C3523 C 0.85845 0.20618 0.80144 0.0
C3524 C 0.84479 0.19395 0.78866 0.0
C3525 C 0.85014 0.21119 0.81494 0.0
C3526 C 0.82798 0.20429 0.81597 0.0
C3527 C 0.81425 0.19217 0.8032 0.0
C3528 C 0.82259 0.18715 0.78961 0.0
C3529 C 0.81935 0.20928 0.83069 0.0
C3530 C 0.80335 0.19254 0.83976 0.0
C3531 C 0.82844 0.23027 0.83668 0.0
C3532 C 0.84405 0.24879 0.82704 0.0
C3533 C 0.83904 0.25149 0.81104 0.0
C3534 C 0.85381 0.26888 0.80197 0.0
C3535 C 0.8736 0.28377 0.8088 0.0
C3536 C 0.87866 0.28131 0.82472 0.0
C3537 C 0.86395 0.26394 0.83384 0.0
H3538 H 0.88501 0.29723 0.80176 0.0
H3539 H 0.73909 0.12914 0.88914 0.0
H3540 H 0.22535 0.1251 0.45914 0.0
H3541 H 0.24367 0.13383 0.48551 0.0
H3542 H 0.28413 0.10905 0.46945 0.0
H3543 H 0.26643 0.10086 0.44297 0.0
H3544 H 0.26481 0.09336 0.49945 0.0
H3545 H 0.30469 0.16078 0.47218 0.0
H3546 H 0.30828 0.19175 0.45745 0.0
H3547 H 0.27989 0.20677 0.49744 0.0
H3548 H 0.27586 0.17569 0.51232 0.0
H3549 H 0.34656 0.12745 0.55798 0.0
H3550 H 0.32597 0.12136 0.53303 0.0
H3551 H 0.29591 0.15511 0.55286 0.0
H3552 H 0.31737 0.16227 0.57766 0.0
H3553 H 0.30668 0.16605 0.52227 0.0
H3554 H 0.26833 0.10084 0.55041 0.0
H3555 H 0.26332 0.06966 0.56562 0.0
H3556 H 0.28626 0.04981 0.52491 0.0
H3557 H 0.2917 0.08105 0.50953 0.0
C3558 C 0.23838 0.12183 0.46112 0.0
C3559 C 0.24431 0.11215 0.44895 0.0
C3560 C 0.24875 0.12673 0.47622 0.0
C3561 C 0.26521 0.12204 0.47941 0.0
C3562 C 0.27134 0.11265 0.46726 0.0
C3563 C 0.26112 0.10789 0.45215 0.0
C3564 C 0.27578 0.12638 0.49553 0.0
C3565 C 0.27415 0.10927 0.50439 0.0
C3566 C 0.28723 0.14705 0.50219 0.0
C3567 C 0.28975 0.16577 0.49328 0.0
C3568 C 0.29904 0.17057 0.47777 0.0
C3569 C 0.30119 0.18817 0.46941 0.0
C3570 C 0.29426 0.20118 0.47648 0.0
C3571 C 0.28522 0.19665 0.49196 0.0
C3572 C 0.28301 0.17906 0.50037 0.0
C3573 C 0.33579 0.13383 0.55701 0.0
C3574 C 0.33365 0.14536 0.56986 0.0
C3575 C 0.3238 0.13009 0.54278 0.0
C3576 C 0.30911 0.13747 0.54116 0.0
C3577 C 0.30705 0.14916 0.55388 0.0
C3578 C 0.31918 0.15306 0.56811 0.0
C3579 C 0.29613 0.13305 0.52608 0.0
C3580 C 0.29722 0.15011 0.51742 0.0
C3581 C 0.28391 0.11227 0.51968 0.0
C3582 C 0.28058 0.09339 0.52886 0.0
C3583 C 0.27245 0.08991 0.54474 0.0
C3584 C 0.26951 0.07221 0.55339 0.0
C3585 C 0.27451 0.05778 0.54625 0.0
C3586 C 0.28241 0.061 0.53043 0.0
C3587 C 0.2854 0.0787 0.52173 0.0
H3588 H 0.27222 0.04409 0.55297 0.0
H3589 H 0.29593 0.21479 0.46999 0.0
H3590 H 0.87429 0.11518 0.44289 0.0
H3591 H 0.86196 0.12027 0.46914 0.0
H3592 H 0.92788 0.15481 0.48627 0.0
H3593 H 0.94032 0.14884 0.46024 0.0
H3594 H 0.90247 0.12972 0.50952 0.0
H3595 H 0.90105 0.18065 0.47408 0.0
H3596 H 0.89192 0.19347 0.44935 0.0
H3597 H 0.82431 0.15436 0.45949 0.0
H3598 H 0.83303 0.14107 0.48417 0.0
H3599 H 0.87734 0.17674 0.57679 0.0
H3600 H 0.89239 0.17029 0.55222 0.0
H3601 H 0.8281 0.13255 0.53251 0.0
H3602 H 0.81298 0.13881 0.557 0.0
H3603 H 0.85472 0.16098 0.51092 0.0
H3604 H 0.8572 0.10988 0.54669 0.0
H3605 H 0.86743 0.09844 0.57165 0.0
H3606 H 0.93457 0.13997 0.56125 0.0
H3607 H 0.92473 0.15185 0.53631 0.0
C3608 C 0.88619 0.12358 0.45229 0.0
C3609 C 0.90834 0.13167 0.44936 0.0
C3610 C 0.87911 0.1267 0.46727 0.0
C3611 C 0.89401 0.13826 0.47963 0.0
C3612 C 0.91608 0.14595 0.47691 0.0
C3613 C 0.92318 0.14271 0.46194 0.0
C3614 C 0.8865 0.1426 0.49523 0.0
C3615 C 0.89226 0.13681 0.50984 0.0
C3616 C 0.87301 0.15169 0.4957 0.0
C3617 C 0.8677 0.15972 0.4809 0.0
C3618 C 0.88423 0.17467 0.47097 0.0
C3619 C 0.87913 0.18204 0.45697 0.0
C3620 C 0.85755 0.1747 0.45283 0.0
C3621 C 0.84102 0.16001 0.4627 0.0
C3622 C 0.84603 0.15257 0.47671 0.0
C3623 C 0.86639 0.16681 0.56732 0.0
C3624 C 0.84395 0.15839 0.56883 0.0
C3625 C 0.87503 0.16315 0.55327 0.0
C3626 C 0.86138 0.15087 0.54052 0.0
C3627 C 0.83897 0.14217 0.54214 0.0
C3628 C 0.83035 0.14583 0.55613 0.0
C3629 C 0.87032 0.14773 0.52518 0.0
C3630 C 0.86492 0.15388 0.51061 0.0
C3631 C 0.88429 0.13918 0.5248 0.0
C3632 C 0.89022 0.13191 0.53972 0.0
C3633 C 0.87414 0.11669 0.54979 0.0
C3634 C 0.87987 0.1101 0.56391 0.0
C3635 C 0.90164 0.11852 0.56805 0.0
C3636 C 0.91772 0.13348 0.55804 0.0
C3637 C 0.91208 0.14013 0.5439 0.0
H3638 H 0.90604 0.11341 0.579 0.0
H3639 H 0.85363 0.18042 0.44198 0.0
H3640 H 0.85179 0.75559 0.44465 0.0
H3641 H 0.84307 0.73891 0.47125 0.0
H3642 H 0.90799 0.78201 0.48774 0.0
H3643 H 0.9169 0.79875 0.46097 0.0
H3644 H 0.89408 0.74218 0.49864 0.0
H3645 H 0.86637 0.79001 0.49825 0.0
H3646 H 0.84581 0.80591 0.48687 0.0
H3647 H 0.78722 0.74582 0.48947 0.0
H3648 H 0.80748 0.72949 0.50067 0.0
H3649 H 0.86398 0.70894 0.58036 0.0
H3650 H 0.87763 0.73147 0.55642 0.0
H3651 H 0.81454 0.69694 0.53413 0.0
H3652 H 0.80052 0.67536 0.5583 0.0
H3653 H 0.83066 0.73651 0.52763 0.0
H3654 H 0.8583 0.6879 0.52513 0.0
H3655 H 0.87844 0.67104 0.53554 0.0
H3656 H 0.93652 0.73166 0.53784 0.0
H3657 H 0.91665 0.74891 0.52759 0.0
C3658 C 0.86422 0.76159 0.45394 0.0
C3659 C 0.88497 0.77869 0.45074 0.0
C3660 C 0.85921 0.75203 0.46917 0.0
C3661 C 0.87473 0.75947 0.48165 0.0
C3662 C 0.89571 0.77605 0.47834 0.0
C3663 C 0.90079 0.78558 0.46303 0.0
C3664 C 0.86879 0.75008 0.49814 0.0
C3665 C 0.88044 0.74125 0.50511 0.0
C3666 C 0.85081 0.74859 0.50653 0.0
C3667 C 0.83848 0.7585 0.50021 0.0
C3668 C 0.84911 0.78017 0.49634 0.0
C3669 C 0.83751 0.78926 0.48992 0.0
C3670 C 0.81523 0.77687 0.48742 0.0
C3671 C 0.80448 0.75539 0.49141 0.0
C3672 C 0.81601 0.74622 0.49782 0.0
C3673 C 0.85291 0.70636 0.57049 0.0
C3674 C 0.83116 0.69007 0.57126 0.0
C3675 C 0.86082 0.71911 0.55668 0.0
C3676 C 0.84726 0.71568 0.54325 0.0
C3677 C 0.82543 0.69989 0.54423 0.0
C3678 C 0.81747 0.68734 0.55804 0.0
C3679 C 0.85561 0.7281 0.528 0.0
C3680 C 0.84444 0.73759 0.52126 0.0
C3681 C 0.87395 0.73008 0.5198 0.0
C3682 C 0.88595 0.71971 0.52576 0.0
C3683 C 0.87534 0.69764 0.52794 0.0
C3684 C 0.88671 0.68802 0.5338 0.0
C3685 C 0.90873 0.70028 0.53739 0.0
C3686 C 0.91946 0.72219 0.53507 0.0
C3687 C 0.90816 0.73189 0.52922 0.0
H3688 H 0.9175 0.69281 0.54194 0.0
H3689 H 0.80628 0.78392 0.4824 0.0
loop_
_geom_bond_atom_site_label_1
_geom_bond_atom_site_label_2
_geom_bond_distance
_geom_bond_site_symmetry_2
_ccdc_geom_bond_type
H0 C7 0.929 . S
H1 C10 0.930 . S
H2 C12 0.929 . S
H3 C4 0.969 . S
C4 H3 0.969 . S
C4 O5 1.550 . S
C4 H6 0.973 . S
O5 C4 1.550 . S
O5 C11 1.412 . S
H6 C4 0.973 . S
C7 H0 0.929 . S
C7 C8 1.400 . S
C7 C9 1.364 . S
C8 C7 1.400 . S
C8 C12 1.377 . S
C9 C7 1.364 . S
C9 C10 1.374 . S
C10 H1 0.930 . S
C10 C9 1.374 . S
C10 C11 1.383 . S
C11 O5 1.412 . S
C11 C10 1.383 . S
C11 C12 1.394 . S
C12 H2 0.929 . S
C12 C8 1.377 . S
C12 C11 1.394 . S
H13 C20 0.929 . S
H14 C23 0.930 . S
H15 C25 0.929 . S
H16 C17 0.969 . S
C17 H16 0.969 . S
C17 O18 1.550 . S
C17 H19 0.973 . S
O18 C17 1.550 . S
O18 C24 1.412 . S
H19 C17 0.973 . S
C20 H13 0.929 . S
C20 C21 1.400 . S
C20 C22 1.364 . S
C21 C20 1.400 . S
C21 C25 1.377 . S
C22 C20 1.364 . S
C22 C23 1.374 . S
C23 H14 0.930 . S
C23 C22 1.374 . S
C23 C24 1.383 . S
C24 O18 1.412 . S
C24 C23 1.383 . S
C24 C25 1.394 . S
C25 H15 0.929 . S
C25 C21 1.377 . S
C25 C24 1.394 . S
H26 C33 0.929 . S
H27 C36 0.930 . S
H28 C38 0.929 . S
H29 C30 0.969 . S
C30 H29 0.969 . S
C30 O31 1.550 . S
C30 H32 0.973 . S
O31 C30 1.550 . S
O31 C37 1.412 . S
H32 C30 0.973 . S
C33 H26 0.929 . S
C33 C34 1.400 . S
C33 C35 1.364 . S
C34 C33 1.400 . S
C34 C38 1.377 . S
C35 C33 1.364 . S
C35 C36 1.374 . S
C36 H27 0.930 . S
C36 C35 1.374 . S
C36 C37 1.383 . S
C37 O31 1.412 . S
C37 C36 1.383 . S
C37 C38 1.394 . S
C38 H28 0.929 . S
C38 C34 1.377 . S
C38 C37 1.394 . S
H39 C46 0.929 . S
H40 C49 0.930 . S
H41 C51 0.929 . S
H42 C43 0.969 . S
C43 H42 0.969 . S
C43 O44 1.550 . S
C43 H45 0.973 . S
O44 C43 1.550 . S
O44 C50 1.412 . S
H45 C43 0.973 . S
C46 H39 0.929 . S
C46 C47 1.400 . S
C46 C48 1.364 . S
C47 C46 1.400 . S
C47 C51 1.377 . S
C48 C46 1.364 . S
C48 C49 1.374 . S
C49 H40 0.930 . S
C49 C48 1.374 . S
C49 C50 1.383 . S
C50 O44 1.412 . S
C50 C49 1.383 . S
C50 C51 1.394 . S
C51 H41 0.929 . S
C51 C47 1.377 . S
C51 C50 1.394 . S
H52 C59 0.929 . S
H53 C62 0.930 . S
H54 C64 0.929 . S
H55 C56 0.969 . S
C56 H55 0.969 . S
C56 O57 1.550 . S
C56 H58 0.973 . S
O57 C56 1.550 . S
O57 C63 1.412 . S
H58 C56 0.973 . S
C59 H52 0.929 . S
C59 C60 1.400 . S
C59 C61 1.364 . S
C60 C59 1.400 . S
C60 C64 1.377 . S
C61 C59 1.364 . S
C61 C62 1.374 . S
C62 H53 0.930 . S
C62 C61 1.374 . S
C62 C63 1.383 . S
C63 O57 1.412 . S
C63 C62 1.383 . S
C63 C64 1.394 . S
C64 H54 0.929 . S
C64 C60 1.377 . S
C64 C63 1.394 . S
H65 C72 0.929 . S
H66 C75 0.930 . S
H67 C77 0.929 . S
H68 C69 0.969 . S
C69 H68 0.969 . S
C69 O70 1.550 . S
C69 H71 0.973 . S
O70 C69 1.550 . S
O70 C76 1.412 . S
H71 C69 0.973 . S
C72 H65 0.929 . S
C72 C73 1.400 . S
C72 C74 1.364 . S
C73 C72 1.400 . S
C73 C77 1.377 . S
C74 C72 1.364 . S
C74 C75 1.374 . S
C75 H66 0.930 . S
C75 C74 1.374 . S
C75 C76 1.383 . S
C76 O70 1.412 . S
C76 C75 1.383 . S
C76 C77 1.394 . S
C77 H67 0.929 . S
C77 C73 1.377 . S
C77 C76 1.394 . S
H78 C85 0.929 . S
H79 C88 0.930 . S
H80 C90 0.929 . S
H81 C82 0.969 . S
C82 H81 0.969 . S
C82 O83 1.550 . S
C82 H84 0.973 . S
O83 C82 1.550 . S
O83 C89 1.412 . S
H84 C82 0.973 . S
C85 H78 0.929 . S
C85 C86 1.400 . S
C85 C87 1.364 . S
C86 C85 1.400 . S
C86 C90 1.377 . S
C87 C85 1.364 . S
C87 C88 1.374 . S
C88 H79 0.930 . S
C88 C87 1.374 . S
C88 C89 1.383 . S
C89 O83 1.412 . S
C89 C88 1.383 . S
C89 C90 1.394 . S
C90 H80 0.929 . S
C90 C86 1.377 . S
C90 C89 1.394 . S
H91 C98 0.929 . S
H92 C101 0.930 . S
H93 C103 0.929 . S
H94 C95 0.969 . S
C95 H94 0.969 . S
C95 O96 1.550 . S
C95 H97 0.973 . S
O96 C95 1.550 . S
O96 C102 1.412 . S
H97 C95 0.973 . S
C98 H91 0.929 . S
C98 C99 1.400 . S
C98 C100 1.364 . S
C99 C98 1.400 . S
C99 C103 1.377 . S
C100 C98 1.364 . S
C100 C101 1.374 . S
C101 H92 0.930 . S
C101 C100 1.374 . S
C101 C102 1.383 . S
C102 O96 1.412 . S
C102 C101 1.383 . S
C102 C103 1.394 . S
C103 H93 0.929 . S
C103 C99 1.377 . S
C103 C102 1.394 . S
H104 C111 0.929 . S
H105 C114 0.930 . S
H106 C116 0.929 . S
H107 C108 0.969 . S
C108 H107 0.969 . S
C108 O109 1.550 . S
C108 H110 0.973 . S
O109 C108 1.550 . S
O109 C115 1.412 . S
H110 C108 0.973 . S
C111 H104 0.929 . S
C111 C112 1.400 . S
C111 C113 1.364 . S
C112 C111 1.400 . S
C112 C116 1.377 . S
C113 C111 1.364 . S
C113 C114 1.374 . S
C114 H105 0.930 . S
C114 C113 1.374 . S
C114 C115 1.383 . S
C115 O109 1.412 . S
C115 C114 1.383 . S
C115 C116 1.394 . S
C116 H106 0.929 . S
C116 C112 1.377 . S
C116 C115 1.394 . S
H117 C124 0.929 . S
H118 C127 0.930 . S
H119 C129 0.929 . S
H120 C121 0.969 . S
C121 H120 0.969 . S
C121 O122 1.550 . S
C121 H123 0.973 . S
O122 C121 1.550 . S
O122 C128 1.412 . S
H123 C121 0.973 . S
C124 H117 0.929 . S
C124 C125 1.400 . S
C124 C126 1.364 . S
C125 C124 1.400 . S
C125 C129 1.377 . S
C126 C124 1.364 . S
C126 C127 1.374 . S
C127 H118 0.930 . S
C127 C126 1.374 . S
C127 C128 1.383 . S
C128 O122 1.412 . S
C128 C127 1.383 . S
C128 C129 1.394 . S
C129 H119 0.929 . S
C129 C125 1.377 . S
C129 C128 1.394 . S
H130 C137 0.929 . S
H131 C140 0.930 . S
H132 C142 0.929 . S
H133 C134 0.969 . S
C134 H133 0.969 . S
C134 O135 1.550 . S
C134 H136 0.973 . S
O135 C134 1.550 . S
O135 C141 1.412 . S
H136 C134 0.973 . S
C137 H130 0.929 . S
C137 C138 1.400 . S
C137 C139 1.364 . S
C138 C137 1.400 . S
C138 C142 1.377 . S
C139 C137 1.364 . S
C139 C140 1.374 . S
C140 H131 0.930 . S
C140 C139 1.374 . S
C140 C141 1.383 . S
C141 O135 1.412 . S
C141 C140 1.383 . S
C141 C142 1.394 . S
C142 H132 0.929 . S
C142 C138 1.377 . S
C142 C141 1.394 . S
H143 C150 0.929 . S
H144 C153 0.930 . S
H145 C155 0.929 . S
H146 C147 0.969 . S
C147 H146 0.969 . S
C147 O148 1.550 . S
C147 H149 0.973 . S
O148 C147 1.550 . S
O148 C154 1.412 . S
H149 C147 0.973 . S
C150 H143 0.929 . S
C150 C151 1.400 . S
C150 C152 1.364 . S
C151 C150 1.400 . S
C151 C155 1.377 . S
C152 C150 1.364 . S
C152 C153 1.374 . S
C153 H144 0.930 . S
C153 C152 1.374 . S
C153 C154 1.383 . S
C154 O148 1.412 . S
C154 C153 1.383 . S
C154 C155 1.394 . S
C155 H145 0.929 . S
C155 C151 1.377 . S
C155 C154 1.394 . S
H156 C163 0.929 . S
H157 C166 0.930 . S
H158 C168 0.929 . S
H159 C160 0.969 . S
C160 H159 0.969 . S
C160 O161 1.550 . S
C160 H162 0.973 . S
O161 C160 1.550 . S
O161 C167 1.412 . S
H162 C160 0.973 . S
C163 H156 0.929 . S
C163 C164 1.400 . S
C163 C165 1.364 . S
C164 C163 1.400 . S
C164 C168 1.377 . S
C165 C163 1.364 . S
C165 C166 1.374 . S
C166 H157 0.930 . S
C166 C165 1.374 . S
C166 C167 1.383 . S
C167 O161 1.412 . S
C167 C166 1.383 . S
C167 C168 1.394 . S
C168 H158 0.929 . S
C168 C164 1.377 . S
C168 C167 1.394 . S
H169 C176 0.929 . S
H170 C179 0.930 . S
H171 C181 0.929 . S
H172 C173 0.969 . S
C173 H172 0.969 . S
C173 O174 1.550 . S
C173 H175 0.973 . S
O174 C173 1.550 . S
O174 C180 1.412 . S
H175 C173 0.973 . S
C176 H169 0.929 . S
C176 C177 1.400 . S
C176 C178 1.364 . S
C177 C176 1.400 . S
C177 C181 1.377 . S
C178 C176 1.364 . S
C178 C179 1.374 . S
C179 H170 0.930 . S
C179 C178 1.374 . S
C179 C180 1.383 . S
C180 O174 1.412 . S
C180 C179 1.383 . S
C180 C181 1.394 . S
C181 H171 0.929 . S
C181 C177 1.377 . S
C181 C180 1.394 . S
H182 C189 0.929 . S
H183 C192 0.930 . S
H184 C194 0.929 . S
H185 C186 0.969 . S
C186 H185 0.969 . S
C186 O187 1.550 . S
C186 H188 0.973 . S
O187 C186 1.550 . S
O187 C193 1.412 . S
H188 C186 0.973 . S
C189 H182 0.929 . S
C189 C190 1.400 . S
C189 C191 1.364 . S
C190 C189 1.400 . S
C190 C194 1.377 . S
C191 C189 1.364 . S
C191 C192 1.374 . S
C192 H183 0.930 . S
C192 C191 1.374 . S
C192 C193 1.383 . S
C193 O187 1.412 . S
C193 C192 1.383 . S
C193 C194 1.394 . S
C194 H184 0.929 . S
C194 C190 1.377 . S
C194 C193 1.394 . S
H195 C202 0.929 . S
H196 C205 0.930 . S
H197 C207 0.929 . S
H198 C199 0.969 . S
C199 H198 0.969 . S
C199 O200 1.550 . S
C199 H201 0.973 . S
O200 C199 1.550 . S
O200 C206 1.412 . S
H201 C199 0.973 . S
C202 H195 0.929 . S
C202 C203 1.400 . S
C202 C204 1.364 . S
C203 C202 1.400 . S
C203 C207 1.377 . S
C204 C202 1.364 . S
C204 C205 1.374 . S
C205 H196 0.930 . S
C205 C204 1.374 . S
C205 C206 1.383 . S
C206 O200 1.412 . S
C206 C205 1.383 . S
C206 C207 1.394 . S
C207 H197 0.929 . S
C207 C203 1.377 . S
C207 C206 1.394 . S
H208 C215 0.929 . S
H209 C218 0.930 . S
H210 C220 0.929 . S
H211 C212 0.969 . S
C212 H211 0.969 . S
C212 O213 1.550 . S
C212 H214 0.973 . S
O213 C212 1.550 . S
O213 C219 1.412 . S
H214 C212 0.973 . S
C215 H208 0.929 . S
C215 C216 1.400 . S
C215 C217 1.364 . S
C216 C215 1.400 . S
C216 C220 1.377 . S
C217 C215 1.364 . S
C217 C218 1.374 . S
C218 H209 0.930 . S
C218 C217 1.374 . S
C218 C219 1.383 . S
C219 O213 1.412 . S
C219 C218 1.383 . S
C219 C220 1.394 . S
C220 H210 0.929 . S
C220 C216 1.377 . S
C220 C219 1.394 . S
H221 C228 0.929 . S
H222 C231 0.930 . S
H223 C233 0.929 . S
H224 C225 0.969 . S
C225 H224 0.969 . S
C225 O226 1.550 . S
C225 H227 0.973 . S
O226 C225 1.550 . S
O226 C232 1.412 . S
H227 C225 0.973 . S
C228 H221 0.929 . S
C228 C229 1.400 . S
C228 C230 1.364 . S
C229 C228 1.400 . S
C229 C233 1.377 . S
C230 C228 1.364 . S
C230 C231 1.374 . S
C231 H222 0.930 . S
C231 C230 1.374 . S
C231 C232 1.383 . S
C232 O226 1.412 . S
C232 C231 1.383 . S
C232 C233 1.394 . S
C233 H223 0.929 . S
C233 C229 1.377 . S
C233 C232 1.394 . S
Gd234 N265 2.661 . S
Gd234 N271 2.601 . S
Gd234 O278 2.545 . S
Gd234 O279 2.606 1_545 S
Gd234 O281 2.429 . S
Gd234 O282 2.545 1_545 S
Gd234 O283 2.412 1_545 S
Gd234 O285 2.362 . S
Gd234 O286 2.324 1_545 S
Gd234 C293 2.828 . S
Gd235 N244 2.661 . S
Gd235 N248 2.601 . S
Gd235 O279 2.362 1_556 S
Gd235 O280 2.324 1_565 S
Gd235 O284 2.545 . S
Gd235 O285 2.606 1_566 S
Gd235 O287 2.429 1_556 S
Gd235 O288 2.545 1_565 S
Gd235 O289 2.412 1_565 S
Gd235 C302 2.828 1_565 S
C236 C239 1.417 . S
C236 C241 1.431 . S
C236 C242 1.412 . S
C237 C240 1.437 . S
C237 C241 1.317 . S
C237 H256 0.929 . S
C238 C239 1.426 . S
C238 C240 1.413 . S
C238 N248 1.359 . S
C239 C236 1.417 . S
C239 C238 1.426 . S
C239 N244 1.350 . S
C240 C237 1.437 . S
C240 C238 1.413 . S
C240 C250 1.391 . S
C241 C236 1.431 . S
C241 C237 1.317 . S
C241 H252 0.930 . S
C242 C236 1.412 . S
C242 C243 1.355 . S
C242 H254 0.930 . S
C243 C242 1.355 . S
C243 C245 1.402 . S
C243 H255 0.930 . S
N244 Gd235 2.661 . S
N244 C239 1.350 . S
N244 C245 1.307 . S
C245 C243 1.402 . S
C245 N244 1.307 . S
C245 H246 0.941 . S
H246 C245 0.941 . S
C247 N248 1.334 . S
C247 C249 1.394 . S
C247 H251 0.930 . S
N248 Gd235 2.601 . S
N248 C238 1.359 . S
N248 C247 1.334 . S
C249 C247 1.394 . S
C249 C250 1.359 . S
C249 H261 0.930 . S
C250 C240 1.391 . S
C250 C249 1.359 . S
C250 H262 0.929 . S
H251 C247 0.930 . S
H252 C241 0.930 . S
H253 C270 0.930 . S
H254 C242 0.930 . S
H255 C243 0.930 . S
H256 C237 0.929 . S
H257 C275 0.930 . S
H258 C266 0.930 . S
H259 C267 0.930 . S
H260 C291 0.929 . S
H261 C249 0.930 . S
H262 C250 0.929 . S
H263 C292 0.930 . S
H264 C273 0.930 . S
N265 Gd234 2.661 . S
N265 C269 1.350 . S
N265 C270 1.307 . S
C266 H258 0.930 . S
C266 C267 1.355 . S
C266 C268 1.412 . S
C267 H259 0.930 . S
C267 C266 1.355 . S
C267 C270 1.402 . S
C268 C266 1.412 . S
C268 C269 1.417 . S
C268 C292 1.431 . S
C269 N265 1.350 . S
C269 C268 1.417 . S
C269 C272 1.426 . S
C270 H253 0.930 . S
C270 N265 1.307 . S
C270 C267 1.402 . S
N271 Gd234 2.601 . S
N271 C272 1.359 . S
N271 C275 1.334 . S
C272 C269 1.426 . S
C272 N271 1.359 . S
C272 C276 1.413 . S
C273 H264 0.930 . S
C273 C274 1.359 . S
C273 C275 1.394 . S
C274 C273 1.359 . S
C274 C276 1.391 . S
C274 H277 0.929 . S
C275 H257 0.930 . S
C275 N271 1.334 . S
C275 C273 1.394 . S
C276 C272 1.413 . S
C276 C274 1.391 . S
C276 C291 1.437 . S
H277 C274 0.929 . S
O278 Gd234 2.545 . S
O278 C293 1.258 . S
O279 Gd234 2.606 1_565 S
O279 Gd235 2.362 1_554 S
O279 C290 1.284 . S
O280 Gd235 2.324 1_545 S
O280 C300 1.254 1_556 S
O281 Gd234 2.429 . S
O281 C300 1.268 . S
O282 Gd234 2.545 1_565 S
O282 C290 1.250 . S
O283 Gd234 2.412 1_565 S
O283 C293 1.252 1_565 S
O284 Gd235 2.545 . S
O284 C302 1.258 1_565 S
O285 Gd234 2.362 . S
O285 Gd235 2.606 1_544 S
O285 C301 1.284 1_554 S
O286 Gd234 2.324 1_565 S
O286 C309 1.254 . S
O287 Gd235 2.429 1_554 S
O287 C309 1.268 . S
O288 Gd235 2.545 1_545 S
O288 C301 1.250 . S
O289 Gd235 2.412 1_545 S
O289 C302 1.252 . S
C290 O279 1.284 . S
C290 O282 1.250 . S
C291 H260 0.929 . S
C291 C276 1.437 . S
C291 C292 1.317 . S
C292 H263 0.930 . S
C292 C268 1.431 . S
C292 C291 1.317 . S
C293 Gd234 2.828 . S
C293 O278 1.258 . S
C293 O283 1.252 1_545 S
C293 C294 1.499 . S
C294 C293 1.499 . S
C294 C295 1.403 . S
C294 C296 1.370 1_545 S
C295 C294 1.403 . S
C295 C298 1.398 . S
C295 H310 0.930 . S
C296 C294 1.370 1_565 S
C296 C297 1.391 . S
C296 H311 0.930 . S
C297 C296 1.391 . S
C297 C299 1.387 . S
C298 C295 1.398 . S
C298 C299 1.380 1_545 S
C298 H312 0.930 . S
C299 C297 1.387 . S
C299 C298 1.380 1_565 S
C299 H313 0.930 . S
C300 O280 1.254 1_554 S
C300 O281 1.268 . S
C301 O285 1.284 1_556 S
C301 O288 1.250 . S
C302 Gd235 2.828 1_545 S
C302 O284 1.258 1_545 S
C302 O289 1.252 . S
C302 C303 1.497 . S
C303 C302 1.497 . S
C303 C304 1.395 1_545 S
C303 C305 1.380 . S
C304 C303 1.395 1_565 S
C304 C307 1.401 . S
C304 H314 0.930 . S
C305 C303 1.380 . S
C305 C306 1.391 . S
C305 H315 0.930 . S
C306 C305 1.391 . S
C306 C308 1.387 . S
C307 C304 1.401 . S
C307 C308 1.363 1_565 S
C307 H316 0.944 . S
C308 C306 1.387 . S
C308 C307 1.363 1_545 S
C308 H317 0.930 . S
C309 O286 1.254 . S
C309 O287 1.268 . S
H310 C295 0.930 . S
H311 C296 0.930 . S
H312 C298 0.930 . S
H313 C299 0.930 . S
H314 C304 0.930 . S
H315 C305 0.930 . S
H316 C307 0.944 . S
H317 C308 0.930 . S
Gd318 N349 2.661 . S
Gd318 N355 2.601 . S
Gd318 O362 2.545 . S
Gd318 O363 2.606 1_655 S
Gd318 O365 2.429 . S
Gd318 O366 2.545 1_655 S
Gd318 O367 2.412 1_655 S
Gd318 O369 2.362 . S
Gd318 O370 2.324 1_655 S
Gd318 C377 2.828 1_655 S
Gd319 N328 2.661 . S
Gd319 N332 2.601 . S
Gd319 O363 2.362 1_556 S
Gd319 O364 2.324 1_455 S
Gd319 O368 2.545 . S
Gd319 O369 2.606 1_456 S
Gd319 O371 2.429 1_556 S
Gd319 O372 2.545 1_455 S
Gd319 O373 2.417 . S
Gd319 C386 2.828 . S
C320 C323 1.417 . S
C320 C325 1.431 . S
C320 C326 1.412 . S
C321 C324 1.437 . S
C321 C325 1.317 . S
C321 H340 0.929 . S
C322 C323 1.426 . S
C322 C324 1.413 . S
C322 N332 1.359 . S
C323 C320 1.417 . S
C323 C322 1.426 . S
C323 N328 1.350 . S
C324 C321 1.437 . S
C324 C322 1.413 . S
C324 C334 1.391 . S
C325 C320 1.431 . S
C325 C321 1.317 . S
C325 H336 0.930 . S
C326 C320 1.412 . S
C326 C327 1.355 . S
C326 H338 0.930 . S
C327 C326 1.355 . S
C327 C329 1.402 . S
C327 H339 0.930 . S
N328 Gd319 2.661 . S
N328 C323 1.350 . S
N328 C329 1.307 . S
C329 C327 1.402 . S
C329 N328 1.307 . S
C329 H330 0.930 . S
H330 C329 0.930 . S
C331 N332 1.334 . S
C331 C333 1.394 . S
C331 H335 0.930 . S
N332 Gd319 2.601 . S
N332 C322 1.359 . S
N332 C331 1.334 . S
C333 C331 1.394 . S
C333 C334 1.359 . S
C333 H345 0.930 . S
C334 C324 1.391 . S
C334 C333 1.359 . S
C334 H346 0.929 . S
H335 C331 0.930 . S
H336 C325 0.930 . S
H337 C354 0.925 . S
H338 C326 0.930 . S
H339 C327 0.930 . S
H340 C321 0.929 . S
H341 C359 0.930 . S
H342 C350 0.930 . S
H343 C351 0.930 . S
H344 C375 0.929 . S
H345 C333 0.930 . S
H346 C334 0.929 . S
H347 C376 0.930 . S
H348 C357 0.930 . S
N349 Gd318 2.661 . S
N349 C353 1.350 . S
N349 C354 1.307 . S
C350 H342 0.930 . S
C350 C351 1.355 . S
C350 C352 1.412 . S
C351 H343 0.930 . S
C351 C350 1.355 . S
C351 C354 1.402 . S
C352 C350 1.412 . S
C352 C353 1.417 . S
C352 C376 1.431 . S
C353 N349 1.350 . S
C353 C352 1.417 . S
C353 C356 1.426 . S
C354 H337 0.925 . S
C354 N349 1.307 . S
C354 C351 1.402 . S
N355 Gd318 2.601 . S
N355 C356 1.359 . S
N355 C359 1.334 . S
C356 C353 1.426 . S
C356 N355 1.359 . S
C356 C360 1.413 . S
C357 H348 0.930 . S
C357 C358 1.359 . S
C357 C359 1.394 . S
C358 C357 1.359 . S
C358 C360 1.391 . S
C358 H361 0.929 . S
C359 H341 0.930 . S
C359 N355 1.334 . S
C359 C357 1.394 . S
C360 C356 1.413 . S
C360 C358 1.391 . S
C360 C375 1.437 . S
H361 C358 0.929 . S
O362 Gd318 2.545 . S
O362 C377 1.258 1_655 S
O363 Gd318 2.606 1_455 S
O363 Gd319 2.362 1_554 S
O363 C374 1.284 . S
O364 Gd319 2.324 1_655 S
O364 C384 1.254 1_556 S
O365 Gd318 2.429 . S
O365 C384 1.268 . S
O366 Gd318 2.545 1_455 S
O366 C374 1.250 . S
O367 Gd318 2.412 1_455 S
O367 C377 1.252 . S
O368 Gd319 2.545 . S
O368 C386 1.258 . S
O369 Gd318 2.362 . S
O369 Gd319 2.606 1_654 S
O369 C385 1.284 1_554 S
O370 Gd318 2.324 1_455 S
O370 C393 1.254 . S
O371 Gd319 2.429 1_554 S
O371 C393 1.268 . S
O372 Gd319 2.545 1_655 S
O372 C385 1.250 . S
O373 Gd319 2.417 . S
O373 C386 1.250 . S
C374 O363 1.284 . S
C374 O366 1.250 . S
C375 H344 0.929 . S
C375 C360 1.437 . S
C375 C376 1.317 . S
C376 H347 0.930 . S
C376 C352 1.431 . S
C376 C375 1.317 . S
C377 Gd318 2.828 1_455 S
C377 O362 1.258 1_455 S
C377 O367 1.252 . S
C377 C378 1.497 . S
C378 C377 1.497 . S
C378 C379 1.395 1_455 S
C378 C380 1.380 . S
C379 C378 1.395 1_655 S
C379 C382 1.398 . S
C379 H394 0.930 . S
C380 C378 1.380 . S
C380 C381 1.391 . S
C380 H395 0.930 . S
C381 C380 1.391 . S
C381 C383 1.387 . S
C382 C379 1.398 . S
C382 C383 1.380 1_655 S
C382 H396 0.930 . S
C383 C381 1.387 . S
C383 C382 1.380 1_455 S
C383 H397 0.930 . S
C384 O364 1.254 1_554 S
C384 O365 1.268 . S
C385 O369 1.284 1_556 S
C385 O372 1.250 . S
C386 Gd319 2.828 . S
C386 O368 1.258 . S
C386 O373 1.250 . S
C386 C387 1.497 . S
C387 C386 1.497 . S
C387 C388 1.395 . S
C387 C389 1.380 1_455 S
C388 C387 1.395 . S
C388 C391 1.398 . S
C388 H398 0.930 . S
C389 C387 1.380 1_655 S
C389 C390 1.391 . S
C389 H399 0.930 . S
C390 C389 1.391 . S
C390 C392 1.387 . S
C391 C388 1.398 . S
C391 C392 1.380 1_455 S
C391 H400 0.930 . S
C392 C390 1.387 . S
C392 C391 1.380 1_655 S
C392 H401 0.930 . S
C393 O370 1.254 . S
C393 O371 1.268 . S
H394 C379 0.930 . S
H395 C380 0.930 . S
H396 C382 0.930 . S
H397 C383 0.930 . S
H398 C388 0.930 . S
H399 C389 0.930 . S
H400 C391 0.930 . S
H401 C392 0.930 . S
Gd402 N433 2.661 . S
Gd402 N439 2.601 . S
Gd402 O446 2.545 . S
Gd402 O447 2.606 1_556 S
Gd402 O449 2.429 1_556 S
Gd402 O450 2.545 . S
Gd402 O451 2.412 . S
Gd402 O453 2.362 1_556 S
Gd402 O454 2.324 . S
Gd402 C461 2.828 . S
Gd403 N412 2.661 . S
Gd403 N416 2.601 . S
Gd403 O447 2.362 . S
Gd403 O448 2.324 . S
Gd403 O452 2.545 . S
Gd403 O453 2.606 . S
Gd403 O455 2.429 . S
Gd403 O456 2.545 . S
Gd403 O457 2.412 . S
Gd403 C470 2.828 . S
C404 C407 1.417 . S
C404 C409 1.431 . S
C404 C410 1.412 . S
C405 C408 1.437 . S
C405 C409 1.317 . S
C405 H424 0.929 . S
C406 C407 1.426 . S
C406 C408 1.413 . S
C406 N416 1.359 . S
C407 C404 1.417 . S
C407 C406 1.426 . S
C407 N412 1.350 . S
C408 C405 1.437 . S
C408 C406 1.413 . S
C408 C418 1.391 . S
C409 C404 1.431 . S
C409 C405 1.317 . S
C409 H420 0.930 . S
C410 C404 1.412 . S
C410 C411 1.355 . S
C410 H422 0.930 . S
C411 C410 1.355 . S
C411 C413 1.402 . S
C411 H423 0.930 . S
N412 Gd403 2.661 . S
N412 C407 1.350 . S
N412 C413 1.307 . S
C413 C411 1.402 . S
C413 N412 1.307 . S
C413 H414 0.930 . S
H414 C413 0.930 . S
C415 N416 1.334 . S
C415 C417 1.394 . S
C415 H419 0.930 . S
N416 Gd403 2.601 . S
N416 C406 1.359 . S
N416 C415 1.334 . S
C417 C415 1.394 . S
C417 C418 1.359 . S
C417 H429 0.930 . S
C418 C408 1.391 . S
C418 C417 1.359 . S
C418 H430 0.929 . S
H419 C415 0.930 . S
H420 C409 0.930 . S
H421 C438 0.930 . S
H422 C410 0.930 . S
H423 C411 0.930 . S
H424 C405 0.929 . S
H425 C443 0.930 . S
H426 C434 0.930 . S
H427 C435 0.930 . S
H428 C459 0.929 . S
H429 C417 0.930 . S
H430 C418 0.929 . S
H431 C460 0.930 . S
H432 C441 0.930 . S
N433 Gd402 2.661 . S
N433 C437 1.350 . S
N433 C438 1.307 . S
C434 H426 0.930 . S
C434 C435 1.355 . S
C434 C436 1.412 . S
C435 H427 0.930 . S
C435 C434 1.355 . S
C435 C438 1.402 . S
C436 C434 1.412 . S
C436 C437 1.417 . S
C436 C460 1.431 . S
C437 N433 1.350 . S
C437 C436 1.417 . S
C437 C440 1.426 . S
C438 H421 0.930 . S
C438 N433 1.307 . S
C438 C435 1.402 . S
N439 Gd402 2.601 . S
N439 C440 1.359 . S
N439 C443 1.334 . S
C440 C437 1.426 . S
C440 N439 1.359 . S
C440 C444 1.413 . S
C441 H432 0.930 . S
C441 C442 1.359 . S
C441 C443 1.394 . S
C442 C441 1.359 . S
C442 C444 1.391 . S
C442 H445 0.929 . S
C443 H425 0.930 . S
C443 N439 1.334 . S
C443 C441 1.394 . S
C444 C440 1.413 . S
C444 C442 1.391 . S
C444 C459 1.437 . S
H445 C442 0.929 . S
O446 Gd402 2.545 . S
O446 C461 1.258 . S
O447 Gd402 2.606 1_554 S
O447 Gd403 2.362 . S
O447 C458 1.284 1_554 S
O448 Gd403 2.324 . S
O448 C468 1.254 . S
O449 Gd402 2.429 1_554 S
O449 C468 1.268 . S
O450 Gd402 2.545 . S
O450 C458 1.250 . S
O451 Gd402 2.412 . S
O451 C461 1.252 . S
O452 Gd403 2.545 . S
O452 C470 1.258 . S
O453 Gd402 2.362 1_554 S
O453 Gd403 2.606 . S
O453 C469 1.284 . S
O454 Gd402 2.324 . S
O454 C477 1.254 1_556 S
O455 Gd403 2.429 . S
O455 C477 1.268 . S
O456 Gd403 2.545 . S
O456 C469 1.250 . S
O457 Gd403 2.412 . S
O457 C470 1.252 . S
C458 O447 1.284 1_556 S
C458 O450 1.250 . S
C459 H428 0.929 . S
C459 C444 1.437 . S
C459 C460 1.317 . S
C460 H431 0.930 . S
C460 C436 1.431 . S
C460 C459 1.317 . S
C461 Gd402 2.828 . S
C461 O446 1.258 . S
C461 O451 1.252 . S
C461 C462 1.497 . S
C462 C461 1.497 . S
C462 C463 1.395 . S
C462 C464 1.380 . S
C463 C462 1.395 . S
C463 C466 1.398 . S
C463 H478 0.930 . S
C464 C462 1.380 . S
C464 C465 1.391 . S
C464 H479 0.930 . S
C465 C464 1.391 . S
C465 C467 1.387 . S
C466 C463 1.398 . S
C466 C467 1.380 . S
C466 H480 0.930 . S
C467 C465 1.387 . S
C467 C466 1.380 . S
C467 H481 0.930 . S
C468 O448 1.254 . S
C468 O449 1.268 . S
C469 O453 1.284 . S
C469 O456 1.250 . S
C470 Gd403 2.828 . S
C470 O452 1.258 . S
C470 O457 1.252 . S
C470 C471 1.497 . S
C471 C470 1.497 . S
C471 C472 1.395 . S
C471 C473 1.380 . S
C472 C471 1.395 . S
C472 C475 1.398 . S
C472 H482 0.930 . S
C473 C471 1.380 . S
C473 C474 1.391 . S
C473 H483 0.930 . S
C474 C473 1.391 . S
C474 C476 1.387 . S
C475 C472 1.398 . S
C475 C476 1.380 . S
C475 H484 0.930 . S
C476 C474 1.387 . S
C476 C475 1.380 . S
C476 H485 0.930 . S
C477 O454 1.254 1_554 S
C477 O455 1.268 . S
H478 C463 0.930 . S
H479 C464 0.930 . S
H480 C466 0.930 . S
H481 C467 0.930 . S
H482 C472 0.930 . S
H483 C473 0.930 . S
H484 C475 0.930 . S
H485 C476 0.930 . S
Gd486 N517 2.661 . S
Gd486 N523 2.601 . S
Gd486 O530 2.545 . S
Gd486 O531 2.606 . S
Gd486 O533 2.429 . S
Gd486 O534 2.545 . S
Gd486 O535 2.412 . S
Gd486 O537 2.362 . S
Gd486 O538 2.324 . S
Gd486 C545 2.828 . S
Gd487 N496 2.661 . S
Gd487 N500 2.601 . S
Gd487 O531 2.362 . S
Gd487 O532 2.324 . S
Gd487 O536 2.545 . S
Gd487 O537 2.606 . S
Gd487 O539 2.429 . S
Gd487 O540 2.545 . S
Gd487 O541 2.412 . S
Gd487 C554 2.828 . S
C488 C491 1.417 . S
C488 C493 1.431 . S
C488 C494 1.412 . S
C489 C492 1.437 . S
C489 C493 1.317 . S
C489 H508 0.929 . S
C490 C491 1.426 . S
C490 C492 1.413 . S
C490 N500 1.359 . S
C491 C488 1.417 . S
C491 C490 1.426 . S
C491 N496 1.350 . S
C492 C489 1.437 . S
C492 C490 1.413 . S
C492 C502 1.391 . S
C493 C488 1.431 . S
C493 C489 1.317 . S
C493 H504 0.930 . S
C494 C488 1.412 . S
C494 C495 1.355 . S
C494 H506 0.930 . S
C495 C494 1.355 . S
C495 C497 1.402 . S
C495 H507 0.930 . S
N496 Gd487 2.661 . S
N496 C491 1.350 . S
N496 C497 1.307 . S
C497 C495 1.402 . S
C497 N496 1.307 . S
C497 H498 0.930 . S
H498 C497 0.930 . S
C499 N500 1.334 . S
C499 C501 1.394 . S
C499 H503 0.930 . S
N500 Gd487 2.601 . S
N500 C490 1.359 . S
N500 C499 1.334 . S
C501 C499 1.394 . S
C501 C502 1.359 . S
C501 H513 0.930 . S
C502 C492 1.391 . S
C502 C501 1.359 . S
C502 H514 0.929 . S
H503 C499 0.930 . S
H504 C493 0.930 . S
H505 C522 0.930 . S
H506 C494 0.930 . S
H507 C495 0.930 . S
H508 C489 0.929 . S
H509 C527 0.930 . S
H510 C518 0.930 . S
H511 C519 0.930 . S
H512 C543 0.929 . S
H513 C501 0.930 . S
H514 C502 0.929 . S
H515 C544 0.930 . S
H516 C525 0.930 . S
N517 Gd486 2.661 . S
N517 C521 1.350 . S
N517 C522 1.307 . S
C518 H510 0.930 . S
C518 C519 1.355 . S
C518 C520 1.412 . S
C519 H511 0.930 . S
C519 C518 1.355 . S
C519 C522 1.402 . S
C520 C518 1.412 . S
C520 C521 1.417 . S
C520 C544 1.431 . S
C521 N517 1.350 . S
C521 C520 1.417 . S
C521 C524 1.426 . S
C522 H505 0.930 . S
C522 N517 1.307 . S
C522 C519 1.402 . S
N523 Gd486 2.601 . S
N523 C524 1.359 . S
N523 C527 1.334 . S
C524 C521 1.426 . S
C524 N523 1.359 . S
C524 C528 1.413 . S
C525 H516 0.930 . S
C525 C526 1.359 . S
C525 C527 1.394 . S
C526 C525 1.359 . S
C526 C528 1.391 . S
C526 H529 0.929 . S
C527 H509 0.930 . S
C527 N523 1.334 . S
C527 C525 1.394 . S
C528 C524 1.413 . S
C528 C526 1.391 . S
C528 C543 1.437 . S
H529 C526 0.929 . S
O530 Gd486 2.545 . S
O530 C545 1.258 . S
O531 Gd486 2.606 . S
O531 Gd487 2.362 . S
O531 C542 1.284 . S
O532 Gd487 2.324 . S
O532 C552 1.254 . S
O533 Gd486 2.429 . S
O533 C552 1.268 . S
O534 Gd486 2.545 . S
O534 C542 1.250 . S
O535 Gd486 2.412 . S
O535 C545 1.252 . S
O536 Gd487 2.545 . S
O536 C554 1.258 . S
O537 Gd486 2.362 . S
O537 Gd487 2.606 . S
O537 C553 1.284 . S
O538 Gd486 2.324 . S
O538 C561 1.254 . S
O539 Gd487 2.429 . S
O539 C561 1.268 . S
O540 Gd487 2.545 . S
O540 C553 1.250 . S
O541 Gd487 2.412 . S
O541 C554 1.252 . S
C542 O531 1.284 . S
C542 O534 1.250 . S
C543 H512 0.929 . S
C543 C528 1.437 . S
C543 C544 1.317 . S
C544 H515 0.930 . S
C544 C520 1.431 . S
C544 C543 1.317 . S
C545 Gd486 2.828 . S
C545 O530 1.258 . S
C545 O535 1.252 . S
C545 C546 1.497 . S
C546 C545 1.497 . S
C546 C547 1.395 . S
C546 C548 1.380 . S
C547 C546 1.395 . S
C547 C550 1.398 . S
C547 H562 0.930 . S
C548 C546 1.380 . S
C548 C549 1.391 . S
C548 H563 0.930 . S
C549 C548 1.391 . S
C549 C551 1.387 . S
C550 C547 1.398 . S
C550 C551 1.380 . S
C550 H564 0.930 . S
C551 C549 1.387 . S
C551 C550 1.380 . S
C551 H565 0.930 . S
C552 O532 1.254 . S
C552 O533 1.268 . S
C553 O537 1.284 . S
C553 O540 1.250 . S
C554 Gd487 2.828 . S
C554 O536 1.258 . S
C554 O541 1.252 . S
C554 C555 1.497 . S
C555 C554 1.497 . S
C555 C556 1.395 . S
C555 C557 1.380 . S
C556 C555 1.395 . S
C556 C559 1.398 . S
C556 H566 0.930 . S
C557 C555 1.380 . S
C557 C558 1.391 . S
C557 H567 0.930 . S
C558 C557 1.391 . S
C558 C560 1.387 . S
C559 C556 1.398 . S
C559 C560 1.380 . S
C559 H568 0.930 . S
C560 C558 1.387 . S
C560 C559 1.380 . S
C560 H569 0.930 . S
C561 O538 1.254 . S
C561 O539 1.268 . S
H562 C547 0.930 . S
H563 C548 0.930 . S
H564 C550 0.930 . S
H565 C551 0.930 . S
H566 C556 0.930 . S
H567 C557 0.930 . S
H568 C559 0.930 . S
H569 C560 0.930 . S
Gd570 N601 2.661 . S
Gd570 N607 2.601 . S
Gd570 O614 2.545 . S
Gd570 O615 2.606 . S
Gd570 O617 2.429 . S
Gd570 O618 2.545 . S
Gd570 O619 2.412 . S
Gd570 O621 2.362 . S
Gd570 O622 2.324 . S
Gd570 C629 2.828 . S
Gd571 N580 2.661 . S
Gd571 N584 2.601 . S
Gd571 O615 2.362 . S
Gd571 O616 2.324 . S
Gd571 O620 2.545 . S
Gd571 O621 2.606 . S
Gd571 O623 2.429 . S
Gd571 O624 2.545 . S
Gd571 O625 2.412 . S
Gd571 C638 2.828 . S
C572 C575 1.417 . S
C572 C577 1.431 . S
C572 C578 1.412 . S
C573 C576 1.437 . S
C573 C577 1.317 . S
C573 H592 0.929 . S
C574 C575 1.426 . S
C574 C576 1.413 . S
C574 N584 1.359 . S
C575 C572 1.417 . S
C575 C574 1.426 . S
C575 N580 1.350 . S
C576 C573 1.437 . S
C576 C574 1.413 . S
C576 C586 1.391 . S
C577 C572 1.431 . S
C577 C573 1.317 . S
C577 H588 0.930 . S
C578 C572 1.412 . S
C578 C579 1.355 . S
C578 H590 0.930 . S
C579 C578 1.355 . S
C579 C581 1.402 . S
C579 H591 0.930 . S
N580 Gd571 2.661 . S
N580 C575 1.350 . S
N580 C581 1.307 . S
C581 C579 1.402 . S
C581 N580 1.307 . S
C581 H582 0.930 . S
H582 C581 0.930 . S
C583 N584 1.334 . S
C583 C585 1.394 . S
C583 H587 0.930 . S
N584 Gd571 2.601 . S
N584 C574 1.359 . S
N584 C583 1.334 . S
C585 C583 1.394 . S
C585 C586 1.359 . S
C585 H597 0.930 . S
C586 C576 1.391 . S
C586 C585 1.359 . S
C586 H598 0.929 . S
H587 C583 0.930 . S
H588 C577 0.930 . S
H589 C606 0.930 . S
H590 C578 0.930 . S
H591 C579 0.930 . S
H592 C573 0.929 . S
H593 C611 0.930 . S
H594 C602 0.930 . S
H595 C603 0.930 . S
H596 C627 0.929 . S
H597 C585 0.930 . S
H598 C586 0.929 . S
H599 C628 0.930 . S
H600 C609 0.930 . S
N601 Gd570 2.661 . S
N601 C605 1.350 . S
N601 C606 1.307 . S
C602 H594 0.930 . S
C602 C603 1.355 . S
C602 C604 1.412 . S
C603 H595 0.930 . S
C603 C602 1.355 . S
C603 C606 1.402 . S
C604 C602 1.412 . S
C604 C605 1.417 . S
C604 C628 1.431 . S
C605 N601 1.350 . S
C605 C604 1.417 . S
C605 C608 1.426 . S
C606 H589 0.930 . S
C606 N601 1.307 . S
C606 C603 1.402 . S
N607 Gd570 2.601 . S
N607 C608 1.359 . S
N607 C611 1.334 . S
C608 C605 1.426 . S
C608 N607 1.359 . S
C608 C612 1.413 . S
C609 H600 0.930 . S
C609 C610 1.359 . S
C609 C611 1.394 . S
C610 C609 1.359 . S
C610 C612 1.391 . S
C610 H613 0.929 . S
C611 H593 0.930 . S
C611 N607 1.334 . S
C611 C609 1.394 . S
C612 C608 1.413 . S
C612 C610 1.391 . S
C612 C627 1.437 . S
H613 C610 0.929 . S
O614 Gd570 2.545 . S
O614 C629 1.258 . S
O615 Gd570 2.606 . S
O615 Gd571 2.362 . S
O615 C626 1.284 . S
O616 Gd571 2.324 . S
O616 C636 1.254 . S
O617 Gd570 2.429 . S
O617 C636 1.268 . S
O618 Gd570 2.545 . S
O618 C626 1.250 . S
O619 Gd570 2.412 . S
O619 C629 1.252 . S
O620 Gd571 2.545 . S
O620 C638 1.258 . S
O621 Gd570 2.362 . S
O621 Gd571 2.606 . S
O621 C637 1.284 . S
O622 Gd570 2.324 . S
O622 C645 1.254 . S
O623 Gd571 2.429 . S
O623 C645 1.268 . S
O624 Gd571 2.545 . S
O624 C637 1.250 . S
O625 Gd571 2.412 . S
O625 C638 1.252 . S
C626 O615 1.284 . S
C626 O618 1.250 . S
C627 H596 0.929 . S
C627 C612 1.437 . S
C627 C628 1.317 . S
C628 H599 0.930 . S
C628 C604 1.431 . S
C628 C627 1.317 . S
C629 Gd570 2.828 . S
C629 O614 1.258 . S
C629 O619 1.252 . S
C629 C630 1.497 . S
C630 C629 1.497 . S
C630 C631 1.395 . S
C630 C632 1.380 . S
C631 C630 1.395 . S
C631 C634 1.398 . S
C631 H646 0.930 . S
C632 C630 1.380 . S
C632 C633 1.391 . S
C632 H647 0.930 . S
C633 C632 1.391 . S
C633 C635 1.387 . S
C634 C631 1.398 . S
C634 C635 1.380 . S
C634 H648 0.930 . S
C635 C633 1.387 . S
C635 C634 1.380 . S
C635 H649 0.930 . S
C636 O616 1.254 . S
C636 O617 1.268 . S
C637 O621 1.284 . S
C637 O624 1.250 . S
C638 Gd571 2.828 . S
C638 O620 1.258 . S
C638 O625 1.252 . S
C638 C639 1.497 . S
C639 C638 1.497 . S
C639 C640 1.395 . S
C639 C641 1.380 . S
C640 C639 1.395 . S
C640 C643 1.398 . S
C640 H650 0.930 . S
C641 C639 1.380 . S
C641 C642 1.391 . S
C641 H651 0.930 . S
C642 C641 1.391 . S
C642 C644 1.387 . S
C643 C640 1.398 . S
C643 C644 1.380 . S
C643 H652 0.930 . S
C644 C642 1.387 . S
C644 C643 1.380 . S
C644 H653 0.930 . S
C645 O622 1.254 . S
C645 O623 1.268 . S
H646 C631 0.930 . S
H647 C632 0.930 . S
H648 C634 0.930 . S
H649 C635 0.930 . S
H650 C640 0.930 . S
H651 C641 0.930 . S
H652 C643 0.930 . S
H653 C644 0.930 . S
Gd654 N685 2.661 . S
Gd654 N691 2.601 . S
Gd654 O698 2.545 . S
Gd654 O699 2.606 . S
Gd654 O701 2.429 . S
Gd654 O702 2.545 . S
Gd654 O703 2.412 . S
Gd654 O705 2.362 . S
Gd654 O706 2.324 . S
Gd654 C713 2.828 . S
Gd655 N664 2.661 . S
Gd655 N668 2.601 . S
Gd655 O699 2.362 . S
Gd655 O700 2.324 . S
Gd655 O704 2.545 . S
Gd655 O705 2.606 . S
Gd655 O707 2.429 . S
Gd655 O708 2.545 . S
Gd655 O709 2.412 . S
Gd655 C722 2.828 . S
C656 C659 1.417 . S
C656 C661 1.431 . S
C656 C662 1.412 . S
C657 C660 1.437 . S
C657 C661 1.317 . S
C657 H676 0.929 . S
C658 C659 1.426 . S
C658 C660 1.413 . S
C658 N668 1.359 . S
C659 C656 1.417 . S
C659 C658 1.426 . S
C659 N664 1.350 . S
C660 C657 1.437 . S
C660 C658 1.413 . S
C660 C670 1.391 . S
C661 C656 1.431 . S
C661 C657 1.317 . S
C661 H672 0.930 . S
C662 C656 1.412 . S
C662 C663 1.355 . S
C662 H674 0.930 . S
C663 C662 1.355 . S
C663 C665 1.402 . S
C663 H675 0.930 . S
N664 Gd655 2.661 . S
N664 C659 1.350 . S
N664 C665 1.307 . S
C665 C663 1.402 . S
C665 N664 1.307 . S
C665 H666 0.930 . S
H666 C665 0.930 . S
C667 N668 1.334 . S
C667 C669 1.394 . S
C667 H671 0.930 . S
N668 Gd655 2.601 . S
N668 C658 1.359 . S
N668 C667 1.334 . S
C669 C667 1.394 . S
C669 C670 1.359 . S
C669 H681 0.930 . S
C670 C660 1.391 . S
C670 C669 1.359 . S
C670 H682 0.929 . S
H671 C667 0.930 . S
H672 C661 0.930 . S
H673 C690 0.930 . S
H674 C662 0.930 . S
H675 C663 0.930 . S
H676 C657 0.929 . S
H677 C695 0.930 . S
H678 C686 0.930 . S
H679 C687 0.930 . S
H680 C711 0.929 . S
H681 C669 0.930 . S
H682 C670 0.929 . S
H683 C712 0.930 . S
H684 C693 0.930 . S
N685 Gd654 2.661 . S
N685 C689 1.350 . S
N685 C690 1.307 . S
C686 H678 0.930 . S
C686 C687 1.355 . S
C686 C688 1.412 . S
C687 H679 0.930 . S
C687 C686 1.355 . S
C687 C690 1.402 . S
C688 C686 1.412 . S
C688 C689 1.417 . S
C688 C712 1.431 . S
C689 N685 1.350 . S
C689 C688 1.417 . S
C689 C692 1.426 . S
C690 H673 0.930 . S
C690 N685 1.307 . S
C690 C687 1.402 . S
N691 Gd654 2.601 . S
N691 C692 1.359 . S
N691 C695 1.334 . S
C692 C689 1.426 . S
C692 N691 1.359 . S
C692 C696 1.413 . S
C693 H684 0.930 . S
C693 C694 1.359 . S
C693 C695 1.394 . S
C694 C693 1.359 . S
C694 C696 1.391 . S
C694 H697 0.929 . S
C695 H677 0.930 . S
C695 N691 1.334 . S
C695 C693 1.394 . S
C696 C692 1.413 . S
C696 C694 1.391 . S
C696 C711 1.437 . S
H697 C694 0.929 . S
O698 Gd654 2.545 . S
O698 C713 1.258 . S
O699 Gd654 2.606 . S
O699 Gd655 2.362 . S
O699 C710 1.284 . S
O700 Gd655 2.324 . S
O700 C720 1.254 . S
O701 Gd654 2.429 . S
O701 C720 1.268 . S
O702 Gd654 2.545 . S
O702 C710 1.250 . S
O703 Gd654 2.412 . S
O703 C713 1.252 . S
O704 Gd655 2.545 . S
O704 C722 1.258 . S
O705 Gd654 2.362 . S
O705 Gd655 2.606 . S
O705 C721 1.284 . S
O706 Gd654 2.324 . S
O706 C729 1.254 . S
O707 Gd655 2.429 . S
O707 C729 1.268 . S
O708 Gd655 2.545 . S
O708 C721 1.250 . S
O709 Gd655 2.412 . S
O709 C722 1.252 . S
C710 O699 1.284 . S
C710 O702 1.250 . S
C711 H680 0.929 . S
C711 C696 1.437 . S
C711 C712 1.317 . S
C712 H683 0.930 . S
C712 C688 1.431 . S
C712 C711 1.317 . S
C713 Gd654 2.828 . S
C713 O698 1.258 . S
C713 O703 1.252 . S
C713 C714 1.497 . S
C714 C713 1.497 . S
C714 C715 1.395 . S
C714 C716 1.380 . S
C715 C714 1.395 . S
C715 C718 1.398 . S
C715 H730 0.930 . S
C716 C714 1.380 . S
C716 C717 1.391 . S
C716 H731 0.930 . S
C717 C716 1.391 . S
C717 C719 1.387 . S
C718 C715 1.398 . S
C718 C719 1.380 . S
C718 H732 0.930 . S
C719 C717 1.387 . S
C719 C718 1.380 . S
C719 H733 0.930 . S
C720 O700 1.254 . S
C720 O701 1.268 . S
C721 O705 1.284 . S
C721 O708 1.250 . S
C722 Gd655 2.828 . S
C722 O704 1.258 . S
C722 O709 1.252 . S
C722 C723 1.497 . S
C723 C722 1.497 . S
C723 C724 1.395 . S
C723 C725 1.380 . S
C724 C723 1.395 . S
C724 C727 1.398 . S
C724 H734 0.930 . S
C725 C723 1.380 . S
C725 C726 1.391 . S
C725 H735 0.930 . S
C726 C725 1.391 . S
C726 C728 1.387 . S
C727 C724 1.398 . S
C727 C728 1.380 . S
C727 H736 0.930 . S
C728 C726 1.387 . S
C728 C727 1.380 . S
C728 H737 0.930 . S
C729 O706 1.254 . S
C729 O707 1.268 . S
H730 C715 0.930 . S
H731 C716 0.930 . S
H732 C718 0.930 . S
H733 C719 0.930 . S
H734 C724 0.930 . S
H735 C725 0.930 . S
H736 C727 0.930 . S
H737 C728 0.930 . S
Gd738 N769 2.661 . S
Gd738 N775 2.601 . S
Gd738 O782 2.545 . S
Gd738 O783 2.606 . S
Gd738 O785 2.429 . S
Gd738 O786 2.545 . S
Gd738 O787 2.412 . S
Gd738 O789 2.362 . S
Gd738 O790 2.324 . S
Gd738 C797 2.828 . S
Gd739 N748 2.661 . S
Gd739 N752 2.601 . S
Gd739 O783 2.362 . S
Gd739 O784 2.324 . S
Gd739 O788 2.545 . S
Gd739 O789 2.606 . S
Gd739 O791 2.429 . S
Gd739 O792 2.545 . S
Gd739 O793 2.412 . S
Gd739 C806 2.828 . S
C740 C743 1.417 . S
C740 C745 1.431 . S
C740 C746 1.412 . S
C741 C744 1.437 . S
C741 C745 1.317 . S
C741 H760 0.929 . S
C742 C743 1.426 . S
C742 C744 1.413 . S
C742 N752 1.359 . S
C743 C740 1.417 . S
C743 C742 1.426 . S
C743 N748 1.350 . S
C744 C741 1.437 . S
C744 C742 1.413 . S
C744 C754 1.391 . S
C745 C740 1.431 . S
C745 C741 1.317 . S
C745 H756 0.930 . S
C746 C740 1.412 . S
C746 C747 1.355 . S
C746 H758 0.930 . S
C747 C746 1.355 . S
C747 C749 1.402 . S
C747 H759 0.930 . S
N748 Gd739 2.661 . S
N748 C743 1.350 . S
N748 C749 1.307 . S
C749 C747 1.402 . S
C749 N748 1.307 . S
C749 H750 0.930 . S
H750 C749 0.930 . S
C751 N752 1.334 . S
C751 C753 1.394 . S
C751 H755 0.930 . S
N752 Gd739 2.601 . S
N752 C742 1.359 . S
N752 C751 1.334 . S
C753 C751 1.394 . S
C753 C754 1.359 . S
C753 H765 0.930 . S
C754 C744 1.391 . S
C754 C753 1.359 . S
C754 H766 0.929 . S
H755 C751 0.930 . S
H756 C745 0.930 . S
H757 C774 0.930 . S
H758 C746 0.930 . S
H759 C747 0.930 . S
H760 C741 0.929 . S
H761 C779 0.930 . S
H762 C770 0.930 . S
H763 C771 0.930 . S
H764 C795 0.929 . S
H765 C753 0.930 . S
H766 C754 0.929 . S
H767 C796 0.930 . S
H768 C777 0.930 . S
N769 Gd738 2.661 . S
N769 C773 1.350 . S
N769 C774 1.307 . S
C770 H762 0.930 . S
C770 C771 1.355 . S
C770 C772 1.412 . S
C771 H763 0.930 . S
C771 C770 1.355 . S
C771 C774 1.402 . S
C772 C770 1.412 . S
C772 C773 1.417 . S
C772 C796 1.431 . S
C773 N769 1.350 . S
C773 C772 1.417 . S
C773 C776 1.426 . S
C774 H757 0.930 . S
C774 N769 1.307 . S
C774 C771 1.402 . S
N775 Gd738 2.601 . S
N775 C776 1.359 . S
N775 C779 1.334 . S
C776 C773 1.426 . S
C776 N775 1.359 . S
C776 C780 1.413 . S
C777 H768 0.930 . S
C777 C778 1.359 . S
C777 C779 1.394 . S
C778 C777 1.359 . S
C778 C780 1.391 . S
C778 H781 0.929 . S
C779 H761 0.930 . S
C779 N775 1.334 . S
C779 C777 1.394 . S
C780 C776 1.413 . S
C780 C778 1.391 . S
C780 C795 1.437 . S
H781 C778 0.929 . S
O782 Gd738 2.545 . S
O782 C797 1.258 . S
O783 Gd738 2.606 . S
O783 Gd739 2.362 . S
O783 C794 1.284 . S
O784 Gd739 2.324 . S
O784 C804 1.254 . S
O785 Gd738 2.429 . S
O785 C804 1.268 . S
O786 Gd738 2.545 . S
O786 C794 1.250 . S
O787 Gd738 2.412 . S
O787 C797 1.252 . S
O788 Gd739 2.545 . S
O788 C806 1.258 . S
O789 Gd738 2.362 . S
O789 Gd739 2.606 . S
O789 C805 1.284 . S
O790 Gd738 2.324 . S
O790 C813 1.254 . S
O791 Gd739 2.429 . S
O791 C813 1.268 . S
O792 Gd739 2.545 . S
O792 C805 1.250 . S
O793 Gd739 2.412 . S
O793 C806 1.252 . S
C794 O783 1.284 . S
C794 O786 1.250 . S
C795 H764 0.929 . S
C795 C780 1.437 . S
C795 C796 1.317 . S
C796 H767 0.930 . S
C796 C772 1.431 . S
C796 C795 1.317 . S
C797 Gd738 2.828 . S
C797 O782 1.258 . S
C797 O787 1.252 . S
C797 C798 1.497 . S
C798 C797 1.497 . S
C798 C799 1.395 . S
C798 C800 1.380 . S
C799 C798 1.395 . S
C799 C802 1.398 . S
C799 H814 0.930 . S
C800 C798 1.380 . S
C800 C801 1.391 . S
C800 H815 0.930 . S
C801 C800 1.391 . S
C801 C803 1.387 . S
C802 C799 1.398 . S
C802 C803 1.380 . S
C802 H816 0.930 . S
C803 C801 1.387 . S
C803 C802 1.380 . S
C803 H817 0.930 . S
C804 O784 1.254 . S
C804 O785 1.268 . S
C805 O789 1.284 . S
C805 O792 1.250 . S
C806 Gd739 2.828 . S
C806 O788 1.258 . S
C806 O793 1.252 . S
C806 C807 1.497 . S
C807 C806 1.497 . S
C807 C808 1.395 . S
C807 C809 1.380 . S
C808 C807 1.395 . S
C808 C811 1.398 . S
C808 H818 0.930 . S
C809 C807 1.380 . S
C809 C810 1.391 . S
C809 H819 0.930 . S
C810 C809 1.391 . S
C810 C812 1.387 . S
C811 C808 1.398 . S
C811 C812 1.380 . S
C811 H820 0.930 . S
C812 C810 1.387 . S
C812 C811 1.380 . S
C812 H821 0.930 . S
C813 O790 1.254 . S
C813 O791 1.268 . S
H814 C799 0.930 . S
H815 C800 0.930 . S
H816 C802 0.930 . S
H817 C803 0.930 . S
H818 C808 0.930 . S
H819 C809 0.930 . S
H820 C811 0.930 . S
H821 C812 0.930 . S
Gd822 N853 2.661 . S
Gd822 N859 2.601 . S
Gd822 O866 2.545 . S
Gd822 O867 2.606 . S
Gd822 O869 2.429 . S
Gd822 O870 2.545 . S
Gd822 O871 2.412 . S
Gd822 O873 2.362 . S
Gd822 O874 2.324 . S
Gd822 C881 2.828 . S
Gd823 N832 2.661 . S
Gd823 N836 2.601 . S
Gd823 O867 2.362 . S
Gd823 O868 2.324 . S
Gd823 O872 2.545 . S
Gd823 O873 2.606 . S
Gd823 O875 2.429 . S
Gd823 O876 2.545 . S
Gd823 O877 2.412 . S
Gd823 C890 2.828 . S
C824 C827 1.417 . S
C824 C829 1.431 . S
C824 C830 1.412 . S
C825 C828 1.437 . S
C825 C829 1.317 . S
C825 H844 0.929 . S
C826 C827 1.426 . S
C826 C828 1.413 . S
C826 N836 1.359 . S
C827 C824 1.417 . S
C827 C826 1.426 . S
C827 N832 1.350 . S
C828 C825 1.437 . S
C828 C826 1.413 . S
C828 C838 1.391 . S
C829 C824 1.431 . S
C829 C825 1.317 . S
C829 H840 0.930 . S
C830 C824 1.412 . S
C830 C831 1.355 . S
C830 H842 0.930 . S
C831 C830 1.355 . S
C831 C833 1.402 . S
C831 H843 0.930 . S
N832 Gd823 2.661 . S
N832 C827 1.350 . S
N832 C833 1.307 . S
C833 C831 1.402 . S
C833 N832 1.307 . S
C833 H834 0.930 . S
H834 C833 0.930 . S
C835 N836 1.334 . S
C835 C837 1.394 . S
C835 H839 0.930 . S
N836 Gd823 2.601 . S
N836 C826 1.359 . S
N836 C835 1.334 . S
C837 C835 1.394 . S
C837 C838 1.359 . S
C837 H849 0.930 . S
C838 C828 1.391 . S
C838 C837 1.359 . S
C838 H850 0.929 . S
H839 C835 0.930 . S
H840 C829 0.930 . S
H841 C858 0.930 . S
H842 C830 0.930 . S
H843 C831 0.930 . S
H844 C825 0.929 . S
H845 C863 0.930 . S
H846 C854 0.930 . S
H847 C855 0.930 . S
H848 C879 0.929 . S
H849 C837 0.930 . S
H850 C838 0.929 . S
H851 C880 0.930 . S
H852 C861 0.930 . S
N853 Gd822 2.661 . S
N853 C857 1.350 . S
N853 C858 1.307 . S
C854 H846 0.930 . S
C854 C855 1.355 . S
C854 C856 1.412 . S
C855 H847 0.930 . S
C855 C854 1.355 . S
C855 C858 1.402 . S
C856 C854 1.412 . S
C856 C857 1.417 . S
C856 C880 1.431 . S
C857 N853 1.350 . S
C857 C856 1.417 . S
C857 C860 1.426 . S
C858 H841 0.930 . S
C858 N853 1.307 . S
C858 C855 1.402 . S
N859 Gd822 2.601 . S
N859 C860 1.359 . S
N859 C863 1.334 . S
C860 C857 1.426 . S
C860 N859 1.359 . S
C860 C864 1.413 . S
C861 H852 0.930 . S
C861 C862 1.359 . S
C861 C863 1.394 . S
C862 C861 1.359 . S
C862 C864 1.391 . S
C862 H865 0.929 . S
C863 H845 0.930 . S
C863 N859 1.334 . S
C863 C861 1.394 . S
C864 C860 1.413 . S
C864 C862 1.391 . S
C864 C879 1.437 . S
H865 C862 0.929 . S
O866 Gd822 2.545 . S
O866 C881 1.258 . S
O867 Gd822 2.606 . S
O867 Gd823 2.362 . S
O867 C878 1.284 . S
O868 Gd823 2.324 . S
O868 C888 1.254 . S
O869 Gd822 2.429 . S
O869 C888 1.268 . S
O870 Gd822 2.545 . S
O870 C878 1.250 . S
O871 Gd822 2.412 . S
O871 C881 1.252 . S
O872 Gd823 2.545 . S
O872 C890 1.258 . S
O873 Gd822 2.362 . S
O873 Gd823 2.606 . S
O873 C889 1.284 . S
O874 Gd822 2.324 . S
O874 C897 1.254 . S
O875 Gd823 2.429 . S
O875 C897 1.268 . S
O876 Gd823 2.545 . S
O876 C889 1.250 . S
O877 Gd823 2.412 . S
O877 C890 1.252 . S
C878 O867 1.284 . S
C878 O870 1.250 . S
C879 H848 0.929 . S
C879 C864 1.437 . S
C879 C880 1.317 . S
C880 H851 0.930 . S
C880 C856 1.431 . S
C880 C879 1.317 . S
C881 Gd822 2.828 . S
C881 O866 1.258 . S
C881 O871 1.252 . S
C881 C882 1.497 . S
C882 C881 1.497 . S
C882 C883 1.395 . S
C882 C884 1.380 . S
C883 C882 1.395 . S
C883 C886 1.398 . S
C883 H898 0.930 . S
C884 C882 1.380 . S
C884 C885 1.391 . S
C884 H899 0.930 . S
C885 C884 1.391 . S
C885 C887 1.387 . S
C886 C883 1.398 . S
C886 C887 1.380 . S
C886 H900 0.930 . S
C887 C885 1.387 . S
C887 C886 1.380 . S
C887 H901 0.930 . S
C888 O868 1.254 . S
C888 O869 1.268 . S
C889 O873 1.284 . S
C889 O876 1.250 . S
C890 Gd823 2.828 . S
C890 O872 1.258 . S
C890 O877 1.252 . S
C890 C891 1.497 . S
C891 C890 1.497 . S
C891 C892 1.395 . S
C891 C893 1.380 . S
C892 C891 1.395 . S
C892 C895 1.398 . S
C892 H902 0.930 . S
C893 C891 1.380 . S
C893 C894 1.391 . S
C893 H903 0.930 . S
C894 C893 1.391 . S
C894 C896 1.387 . S
C895 C892 1.398 . S
C895 C896 1.380 . S
C895 H904 0.930 . S
C896 C894 1.387 . S
C896 C895 1.380 . S
C896 H905 0.930 . S
C897 O874 1.254 . S
C897 O875 1.268 . S
H898 C883 0.930 . S
H899 C884 0.930 . S
H900 C886 0.930 . S
H901 C887 0.930 . S
H902 C892 0.930 . S
H903 C893 0.930 . S
H904 C895 0.930 . S
H905 C896 0.930 . S
Gd906 N937 2.661 . S
Gd906 N943 2.601 . S
Gd906 O950 2.545 . S
Gd906 O951 2.606 . S
Gd906 O953 2.429 . S
Gd906 O954 2.545 . S
Gd906 O955 2.412 . S
Gd906 O957 2.362 . S
Gd906 O958 2.324 . S
Gd906 C965 2.828 . S
Gd907 N916 2.661 . S
Gd907 N920 2.601 . S
Gd907 O951 2.362 . S
Gd907 O952 2.324 . S
Gd907 O956 2.545 . S
Gd907 O957 2.606 . S
Gd907 O959 2.429 . S
Gd907 O960 2.545 . S
Gd907 O961 2.412 . S
Gd907 C974 2.828 . S
C908 C911 1.417 . S
C908 C913 1.431 . S
C908 C914 1.412 . S
C909 C912 1.437 . S
C909 C913 1.317 . S
C909 H928 0.929 . S
C910 C911 1.426 . S
C910 C912 1.413 . S
C910 N920 1.359 . S
C911 C908 1.417 . S
C911 C910 1.426 . S
C911 N916 1.350 . S
C912 C909 1.437 . S
C912 C910 1.413 . S
C912 C922 1.391 . S
C913 C908 1.431 . S
C913 C909 1.317 . S
C913 H924 0.930 . S
C914 C908 1.412 . S
C914 C915 1.355 . S
C914 H926 0.930 . S
C915 C914 1.355 . S
C915 C917 1.402 . S
C915 H927 0.930 . S
N916 Gd907 2.661 . S
N916 C911 1.350 . S
N916 C917 1.307 . S
C917 C915 1.402 . S
C917 N916 1.307 . S
C917 H918 0.930 . S
H918 C917 0.930 . S
C919 N920 1.334 . S
C919 C921 1.394 . S
C919 H923 0.930 . S
N920 Gd907 2.601 . S
N920 C910 1.359 . S
N920 C919 1.334 . S
C921 C919 1.394 . S
C921 C922 1.359 . S
C921 H933 0.930 . S
C922 C912 1.391 . S
C922 C921 1.359 . S
C922 H934 0.929 . S
H923 C919 0.930 . S
H924 C913 0.930 . S
H925 C942 0.930 . S
H926 C914 0.930 . S
H927 C915 0.930 . S
H928 C909 0.929 . S
H929 C947 0.930 . S
H930 C938 0.930 . S
H931 C939 0.930 . S
H932 C963 0.929 . S
H933 C921 0.930 . S
H934 C922 0.929 . S
H935 C964 0.930 . S
H936 C945 0.930 . S
N937 Gd906 2.661 . S
N937 C941 1.350 . S
N937 C942 1.307 . S
C938 H930 0.930 . S
C938 C939 1.355 . S
C938 C940 1.412 . S
C939 H931 0.930 . S
C939 C938 1.355 . S
C939 C942 1.402 . S
C940 C938 1.412 . S
C940 C941 1.417 . S
C940 C964 1.431 . S
C941 N937 1.350 . S
C941 C940 1.417 . S
C941 C944 1.426 . S
C942 H925 0.930 . S
C942 N937 1.307 . S
C942 C939 1.402 . S
N943 Gd906 2.601 . S
N943 C944 1.359 . S
N943 C947 1.334 . S
C944 C941 1.426 . S
C944 N943 1.359 . S
C944 C948 1.413 . S
C945 H936 0.930 . S
C945 C946 1.359 . S
C945 C947 1.394 . S
C946 C945 1.359 . S
C946 C948 1.391 . S
C946 H949 0.929 . S
C947 H929 0.930 . S
C947 N943 1.334 . S
C947 C945 1.394 . S
C948 C944 1.413 . S
C948 C946 1.391 . S
C948 C963 1.437 . S
H949 C946 0.929 . S
O950 Gd906 2.545 . S
O950 C965 1.258 . S
O951 Gd906 2.606 . S
O951 Gd907 2.362 . S
O951 C962 1.284 . S
O952 Gd907 2.324 . S
O952 C972 1.254 . S
O953 Gd906 2.429 . S
O953 C972 1.268 . S
O954 Gd906 2.545 . S
O954 C962 1.250 . S
O955 Gd906 2.412 . S
O955 C965 1.252 . S
O956 Gd907 2.545 . S
O956 C974 1.258 . S
O957 Gd906 2.362 . S
O957 Gd907 2.606 . S
O957 C973 1.284 . S
O958 Gd906 2.324 . S
O958 C981 1.254 . S
O959 Gd907 2.429 . S
O959 C981 1.268 . S
O960 Gd907 2.545 . S
O960 C973 1.250 . S
O961 Gd907 2.412 . S
O961 C974 1.252 . S
C962 O951 1.284 . S
C962 O954 1.250 . S
C963 H932 0.929 . S
C963 C948 1.437 . S
C963 C964 1.317 . S
C964 H935 0.930 . S
C964 C940 1.431 . S
C964 C963 1.317 . S
C965 Gd906 2.828 . S
C965 O950 1.258 . S
C965 O955 1.252 . S
C965 C966 1.497 . S
C966 C965 1.497 . S
C966 C967 1.395 . S
C966 C968 1.380 . S
C967 C966 1.395 . S
C967 C970 1.398 . S
C967 H982 0.930 . S
C968 C966 1.380 . S
C968 C969 1.391 . S
C968 H983 0.930 . S
C969 C968 1.391 . S
C969 C971 1.387 . S
C970 C967 1.398 . S
C970 C971 1.380 . S
C970 H984 0.930 . S
C971 C969 1.387 . S
C971 C970 1.380 . S
C971 H985 0.930 . S
C972 O952 1.254 . S
C972 O953 1.268 . S
C973 O957 1.284 . S
C973 O960 1.250 . S
C974 Gd907 2.828 . S
C974 O956 1.258 . S
C974 O961 1.252 . S
C974 C975 1.497 . S
C975 C974 1.497 . S
C975 C976 1.395 . S
C975 C977 1.380 . S
C976 C975 1.395 . S
C976 C979 1.398 . S
C976 H986 0.930 . S
C977 C975 1.380 . S
C977 C978 1.391 . S
C977 H987 0.930 . S
C978 C977 1.391 . S
C978 C980 1.387 . S
C979 C976 1.398 . S
C979 C980 1.380 . S
C979 H988 0.930 . S
C980 C978 1.387 . S
C980 C979 1.380 . S
C980 H989 0.930 . S
C981 O958 1.254 . S
C981 O959 1.268 . S
H982 C967 0.930 . S
H983 C968 0.930 . S
H984 C970 0.930 . S
H985 C971 0.930 . S
H986 C976 0.930 . S
H987 C977 0.930 . S
H988 C979 0.930 . S
H989 C980 0.930 . S
H990 C1008 0.951 . S
H991 C1010 0.951 . S
H992 C1012 0.950 . S
H993 C1013 0.950 . S
H994 C1015 0.950 . S
H995 C1018 0.950 . S
H996 C1019 0.950 . S
H997 C1021 0.950 . S
H998 C1022 0.950 . S
H999 C1023 0.951 . S
H1000 C1025 0.951 . S
H1001 C1027 0.950 . S
H1002 C1028 0.950 . S
H1003 C1030 0.950 . S
H1004 C1033 0.950 . S
H1005 C1034 0.950 . S
H1006 C1036 0.950 . S
H1007 C1037 0.950 . S
C1008 H990 0.951 . S
C1008 C1009 1.366 . S
C1008 C1010 1.388 . S
C1009 C1008 1.366 . S
C1009 C1013 1.385 . S
C1010 H991 0.951 . S
C1010 C1008 1.388 . S
C1010 C1011 1.366 . S
C1011 C1010 1.366 . S
C1011 C1012 1.414 . S
C1011 C1014 1.499 . S
C1012 H992 0.950 . S
C1012 C1011 1.414 . S
C1012 C1013 1.374 . S
C1013 H993 0.950 . S
C1013 C1009 1.385 . S
C1013 C1012 1.374 . S
C1014 C1011 1.499 . S
C1014 C1015 1.373 . S
C1014 C1016 1.389 . S
C1015 H994 0.950 . S
C1015 C1014 1.373 . S
C1015 C1031 1.377 . S
C1016 C1014 1.389 . S
C1016 C1017 1.524 . S
C1016 C1030 1.377 . S
C1017 C1016 1.524 . S
C1017 C1018 1.397 . S
C1017 C1022 1.363 . S
C1018 H995 0.950 . S
C1018 C1017 1.397 . S
C1018 C1019 1.334 . S
C1019 H996 0.950 . S
C1019 C1018 1.334 . S
C1019 C1020 1.287 . S
C1020 C1019 1.287 . S
C1020 C1021 1.524 . S
C1020 H1039 0.913 . S
C1021 H997 0.950 . S
C1021 C1020 1.524 . S
C1021 C1022 1.415 . S
C1022 H998 0.950 . S
C1022 C1017 1.363 . S
C1022 C1021 1.415 . S
C1023 H999 0.951 . S
C1023 C1024 1.366 . S
C1023 C1025 1.388 . S
C1024 C1023 1.366 . S
C1024 C1028 1.385 . S
C1025 H1000 0.951 . S
C1025 C1023 1.388 . S
C1025 C1026 1.366 . S
C1026 C1025 1.366 . S
C1026 C1027 1.414 . S
C1026 C1029 1.499 . S
C1027 H1001 0.950 . S
C1027 C1026 1.414 . S
C1027 C1028 1.374 . S
C1028 H1002 0.950 . S
C1028 C1024 1.385 . S
C1028 C1027 1.374 . S
C1029 C1026 1.499 . S
C1029 C1030 1.373 . S
C1029 C1031 1.389 . S
C1030 H1003 0.950 . S
C1030 C1016 1.377 . S
C1030 C1029 1.373 . S
C1031 C1015 1.377 . S
C1031 C1029 1.389 . S
C1031 C1032 1.524 . S
C1032 C1031 1.524 . S
C1032 C1033 1.397 . S
C1032 C1037 1.363 . S
C1033 H1004 0.950 . S
C1033 C1032 1.397 . S
C1033 C1034 1.334 . S
C1034 H1005 0.950 . S
C1034 C1033 1.334 . S
C1034 C1035 1.287 1_554 S
C1035 C1034 1.287 1_556 S
C1035 C1036 1.524 . S
C1035 H1038 0.999 . S
C1036 H1006 0.950 . S
C1036 C1035 1.524 . S
C1036 C1037 1.415 1_556 S
C1037 H1007 0.950 . S
C1037 C1032 1.363 . S
C1037 C1036 1.415 1_554 S
H1038 C1035 0.999 . S
H1039 C1020 0.913 . S
H1040 C1058 0.951 . S
H1041 C1060 0.951 . S
H1042 C1062 0.950 . S
H1043 C1063 0.950 . S
H1044 C1065 0.950 . S
H1045 C1068 0.950 . S
H1046 C1069 0.950 . S
H1047 C1071 0.950 . S
H1048 C1072 0.950 . S
H1049 C1073 0.951 . S
H1050 C1075 0.951 . S
H1051 C1077 0.950 . S
H1052 C1078 0.950 . S
H1053 C1080 0.950 . S
H1054 C1083 0.950 . S
H1055 C1084 0.950 . S
H1056 C1086 0.950 . S
H1057 C1087 0.950 . S
C1058 H1040 0.951 . S
C1058 C1059 1.366 . S
C1058 C1060 1.388 . S
C1059 C1058 1.366 . S
C1059 C1063 1.385 . S
C1060 H1041 0.951 . S
C1060 C1058 1.388 . S
C1060 C1061 1.366 . S
C1061 C1060 1.366 . S
C1061 C1062 1.414 . S
C1061 C1064 1.499 . S
C1062 H1042 0.950 . S
C1062 C1061 1.414 . S
C1062 C1063 1.374 . S
C1063 H1043 0.950 . S
C1063 C1059 1.385 . S
C1063 C1062 1.374 . S
C1064 C1061 1.499 . S
C1064 C1065 1.373 . S
C1064 C1066 1.389 . S
C1065 H1044 0.950 . S
C1065 C1064 1.373 . S
C1065 C1081 1.377 . S
C1066 C1064 1.389 . S
C1066 C1067 1.524 . S
C1066 C1080 1.377 . S
C1067 C1066 1.524 . S
C1067 C1068 1.397 . S
C1067 C1072 1.363 . S
C1068 H1045 0.950 . S
C1068 C1067 1.397 . S
C1068 C1069 1.334 . S
C1069 H1046 0.950 . S
C1069 C1068 1.334 . S
C1069 C1070 1.287 . S
C1070 C1069 1.287 . S
C1070 C1071 1.524 . S
C1070 H1089 0.913 . S
C1071 H1047 0.950 . S
C1071 C1070 1.524 . S
C1071 C1072 1.415 . S
C1072 H1048 0.950 . S
C1072 C1067 1.363 . S
C1072 C1071 1.415 . S
C1073 H1049 0.951 . S
C1073 C1074 1.366 . S
C1073 C1075 1.388 . S
C1074 C1073 1.366 . S
C1074 C1078 1.385 . S
C1075 H1050 0.951 . S
C1075 C1073 1.388 . S
C1075 C1076 1.366 . S
C1076 C1075 1.366 . S
C1076 C1077 1.414 . S
C1076 C1079 1.499 . S
C1077 H1051 0.950 . S
C1077 C1076 1.414 . S
C1077 C1078 1.374 . S
C1078 H1052 0.950 . S
C1078 C1074 1.385 . S
C1078 C1077 1.374 . S
C1079 C1076 1.499 . S
C1079 C1080 1.373 . S
C1079 C1081 1.389 . S
C1080 H1053 0.950 . S
C1080 C1066 1.377 . S
C1080 C1079 1.373 . S
C1081 C1065 1.377 . S
C1081 C1079 1.389 . S
C1081 C1082 1.524 . S
C1082 C1081 1.524 . S
C1082 C1083 1.397 . S
C1082 C1087 1.363 . S
C1083 H1054 0.950 . S
C1083 C1082 1.397 . S
C1083 C1084 1.334 . S
C1084 H1055 0.950 . S
C1084 C1083 1.334 . S
C1084 C1085 1.304 . S
C1085 C1084 1.304 . S
C1085 C1086 1.518 1_554 S
C1085 H1088 0.985 1_554 S
C1086 H1056 0.950 . S
C1086 C1085 1.518 1_556 S
C1086 C1087 1.415 1_556 S
C1087 H1057 0.950 . S
C1087 C1082 1.363 . S
C1087 C1086 1.415 1_554 S
H1088 C1085 0.985 1_556 S
H1089 C1070 0.913 . S
H1090 C1108 0.951 . S
H1091 C1110 0.951 . S
H1092 C1112 0.950 . S
H1093 C1113 0.950 . S
H1094 C1115 0.950 . S
H1095 C1118 0.950 . S
H1096 C1119 0.950 . S
H1097 C1121 0.950 . S
H1098 C1122 0.950 . S
H1099 C1123 0.951 . S
H1100 C1125 0.951 . S
H1101 C1127 0.950 . S
H1102 C1128 0.950 . S
H1103 C1130 0.950 . S
H1104 C1133 0.950 . S
H1105 C1134 0.950 . S
H1106 C1136 0.950 . S
H1107 C1137 0.950 . S
C1108 H1090 0.951 . S
C1108 C1109 1.366 . S
C1108 C1110 1.388 . S
C1109 C1108 1.366 . S
C1109 C1113 1.385 . S
C1110 H1091 0.951 . S
C1110 C1108 1.388 . S
C1110 C1111 1.366 . S
C1111 C1110 1.366 . S
C1111 C1112 1.414 . S
C1111 C1114 1.499 . S
C1112 H1092 0.950 . S
C1112 C1111 1.414 . S
C1112 C1113 1.374 . S
C1113 H1093 0.950 . S
C1113 C1109 1.385 . S
C1113 C1112 1.374 . S
C1114 C1111 1.499 . S
C1114 C1115 1.373 . S
C1114 C1116 1.389 . S
C1115 H1094 0.950 . S
C1115 C1114 1.373 . S
C1115 C1131 1.377 . S
C1116 C1114 1.389 . S
C1116 C1117 1.524 . S
C1116 C1130 1.377 . S
C1117 C1116 1.524 . S
C1117 C1118 1.397 . S
C1117 C1122 1.363 . S
C1118 H1095 0.950 . S
C1118 C1117 1.397 . S
C1118 C1119 1.334 . S
C1119 H1096 0.950 . S
C1119 C1118 1.334 . S
C1119 C1120 1.287 . S
C1120 C1119 1.287 . S
C1120 C1121 1.524 . S
C1120 H1139 0.913 . S
C1121 H1097 0.950 . S
C1121 C1120 1.524 . S
C1121 C1122 1.415 . S
C1122 H1098 0.950 . S
C1122 C1117 1.363 . S
C1122 C1121 1.415 . S
C1123 H1099 0.951 . S
C1123 C1124 1.366 . S
C1123 C1125 1.388 . S
C1124 C1123 1.366 . S
C1124 C1128 1.385 . S
C1125 H1100 0.951 . S
C1125 C1123 1.388 . S
C1125 C1126 1.366 . S
C1126 C1125 1.366 . S
C1126 C1127 1.414 . S
C1126 C1129 1.499 . S
C1127 H1101 0.950 . S
C1127 C1126 1.414 . S
C1127 C1128 1.374 . S
C1128 H1102 0.950 . S
C1128 C1124 1.385 . S
C1128 C1127 1.374 . S
C1129 C1126 1.499 . S
C1129 C1130 1.373 . S
C1129 C1131 1.389 . S
C1130 H1103 0.950 . S
C1130 C1116 1.377 . S
C1130 C1129 1.373 . S
C1131 C1115 1.377 . S
C1131 C1129 1.389 . S
C1131 C1132 1.524 . S
C1132 C1131 1.524 . S
C1132 C1133 1.397 . S
C1132 C1137 1.363 . S
C1133 H1104 0.950 . S
C1133 C1132 1.397 . S
C1133 C1134 1.334 . S
C1134 H1105 0.950 . S
C1134 C1133 1.334 . S
C1134 C1135 1.287 . S
C1135 C1134 1.287 . S
C1135 C1136 1.524 . S
C1135 H1138 0.999 . S
C1136 H1106 0.950 . S
C1136 C1135 1.524 . S
C1136 C1137 1.415 . S
C1137 H1107 0.950 . S
C1137 C1132 1.363 . S
C1137 C1136 1.415 . S
H1138 C1135 0.999 . S
H1139 C1120 0.913 . S
H1140 C1158 0.951 . S
H1141 C1160 0.951 . S
H1142 C1162 0.950 . S
H1143 C1163 0.950 . S
H1144 C1165 0.950 . S
H1145 C1168 0.950 . S
H1146 C1169 0.938 1_554 S
H1147 C1171 0.950 . S
H1148 C1172 0.950 . S
H1149 C1173 0.951 . S
H1150 C1175 0.931 1_554 S
H1151 C1177 0.950 . S
H1152 C1178 0.950 . S
H1153 C1180 0.950 . S
H1154 C1183 0.950 . S
H1155 C1184 0.950 . S
H1156 C1186 0.950 . S
H1157 C1187 0.950 . S
C1158 H1140 0.951 . S
C1158 C1159 1.366 . S
C1158 C1160 1.388 . S
C1159 C1158 1.366 . S
C1159 C1163 1.385 . S
C1160 H1141 0.951 . S
C1160 C1158 1.388 . S
C1160 C1161 1.366 . S
C1161 C1160 1.366 . S
C1161 C1162 1.414 . S
C1161 C1164 1.499 . S
C1162 H1142 0.950 . S
C1162 C1161 1.414 . S
C1162 C1163 1.374 . S
C1163 H1143 0.950 . S
C1163 C1159 1.385 . S
C1163 C1162 1.374 . S
C1164 C1161 1.499 . S
C1164 C1165 1.373 . S
C1164 C1166 1.389 . S
C1165 H1144 0.950 . S
C1165 C1164 1.373 . S
C1165 C1181 1.377 . S
C1166 C1164 1.389 . S
C1166 C1167 1.524 . S
C1166 C1180 1.377 . S
C1167 C1166 1.524 . S
C1167 C1168 1.397 . S
C1167 C1172 1.363 . S
C1168 H1145 0.950 . S
C1168 C1167 1.397 . S
C1168 C1169 1.341 . S
C1169 H1146 0.938 1_556 S
C1169 C1168 1.341 . S
C1169 C1170 1.293 . S
C1170 C1169 1.293 . S
C1170 C1171 1.524 . S
C1170 H1189 0.913 . S
C1171 H1147 0.950 . S
C1171 C1170 1.524 . S
C1171 C1172 1.415 . S
C1172 H1148 0.950 . S
C1172 C1167 1.363 . S
C1172 C1171 1.415 . S
C1173 H1149 0.951 . S
C1173 C1174 1.366 1_554 S
C1173 C1175 1.388 1_554 S
C1174 C1173 1.366 1_556 S
C1174 C1178 1.385 . S
C1175 H1150 0.931 1_556 S
C1175 C1173 1.388 1_556 S
C1175 C1176 1.366 . S
C1176 C1175 1.366 . S
C1176 C1177 1.414 . S
C1176 C1179 1.499 . S
C1177 H1151 0.950 . S
C1177 C1176 1.414 . S
C1177 C1178 1.374 . S
C1178 H1152 0.950 . S
C1178 C1174 1.385 . S
C1178 C1177 1.374 . S
C1179 C1176 1.499 . S
C1179 C1180 1.373 . S
C1179 C1181 1.389 . S
C1180 H1153 0.950 . S
C1180 C1166 1.377 . S
C1180 C1179 1.373 . S
C1181 C1165 1.377 . S
C1181 C1179 1.389 . S
C1181 C1182 1.524 . S
C1182 C1181 1.524 . S
C1182 C1183 1.397 . S
C1182 C1187 1.363 . S
C1183 H1154 0.950 . S
C1183 C1182 1.397 . S
C1183 C1184 1.334 . S
C1184 H1155 0.950 . S
C1184 C1183 1.334 . S
C1184 C1185 1.287 . S
C1185 C1184 1.287 . S
C1185 C1186 1.524 . S
C1185 H1188 0.999 . S
C1186 H1156 0.950 . S
C1186 C1185 1.524 . S
C1186 C1187 1.415 . S
C1187 H1157 0.950 . S
C1187 C1182 1.363 . S
C1187 C1186 1.415 . S
H1188 C1185 0.999 . S
H1189 C1170 0.913 . S
H1190 C1208 0.951 . S
H1191 C1210 0.951 . S
H1192 C1212 0.950 . S
H1193 C1213 0.950 . S
H1194 C1215 0.950 . S
H1195 C1218 0.950 . S
H1196 C1219 0.950 . S
H1197 C1221 0.950 . S
H1198 C1222 0.950 . S
H1199 C1223 0.951 . S
H1200 C1225 0.951 . S
H1201 C1227 0.950 . S
H1202 C1228 0.950 . S
H1203 C1230 0.950 . S
H1204 C1233 0.950 . S
H1205 C1234 0.950 . S
H1206 C1236 0.950 . S
H1207 C1237 0.950 . S
C1208 H1190 0.951 . S
C1208 C1209 1.366 . S
C1208 C1210 1.388 . S
C1209 C1208 1.366 . S
C1209 C1213 1.385 . S
C1210 H1191 0.951 . S
C1210 C1208 1.388 . S
C1210 C1211 1.366 . S
C1211 C1210 1.366 . S
C1211 C1212 1.414 . S
C1211 C1214 1.499 . S
C1212 H1192 0.950 . S
C1212 C1211 1.414 . S
C1212 C1213 1.374 . S
C1213 H1193 0.950 . S
C1213 C1209 1.385 . S
C1213 C1212 1.374 . S
C1214 C1211 1.499 . S
C1214 C1215 1.373 . S
C1214 C1216 1.389 . S
C1215 H1194 0.950 . S
C1215 C1214 1.373 . S
C1215 C1231 1.377 . S
C1216 C1214 1.389 . S
C1216 C1217 1.524 . S
C1216 C1230 1.377 . S
C1217 C1216 1.524 . S
C1217 C1218 1.397 . S
C1217 C1222 1.363 . S
C1218 H1195 0.950 . S
C1218 C1217 1.397 . S
C1218 C1219 1.334 . S
C1219 H1196 0.950 . S
C1219 C1218 1.334 . S
C1219 C1220 1.287 . S
C1220 C1219 1.287 . S
C1220 C1221 1.524 . S
C1220 H1239 0.913 . S
C1221 H1197 0.950 . S
C1221 C1220 1.524 . S
C1221 C1222 1.415 . S
C1222 H1198 0.950 . S
C1222 C1217 1.363 . S
C1222 C1221 1.415 . S
C1223 H1199 0.951 . S
C1223 C1224 1.366 1_554 S
C1223 C1225 1.388 . S
C1224 C1223 1.366 1_556 S
C1224 C1228 1.385 . S
C1225 H1200 0.951 . S
C1225 C1223 1.388 . S
C1225 C1226 1.366 1_554 S
C1226 C1225 1.366 1_556 S
C1226 C1227 1.414 . S
C1226 C1229 1.499 . S
C1227 H1201 0.950 . S
C1227 C1226 1.414 . S
C1227 C1228 1.374 . S
C1228 H1202 0.950 . S
C1228 C1224 1.385 . S
C1228 C1227 1.374 . S
C1229 C1226 1.499 . S
C1229 C1230 1.373 . S
C1229 C1231 1.389 . S
C1230 H1203 0.950 . S
C1230 C1216 1.377 . S
C1230 C1229 1.373 . S
C1231 C1215 1.377 . S
C1231 C1229 1.389 . S
C1231 C1232 1.524 1_556 S
C1232 C1231 1.524 1_554 S
C1232 C1233 1.397 . S
C1232 C1237 1.363 . S
C1233 H1204 0.950 . S
C1233 C1232 1.397 . S
C1233 C1234 1.334 . S
C1234 H1205 0.950 . S
C1234 C1233 1.334 . S
C1234 C1235 1.287 . S
C1235 C1234 1.287 . S
C1235 C1236 1.524 . S
C1235 H1238 0.999 . S
C1236 H1206 0.950 . S
C1236 C1235 1.524 . S
C1236 C1237 1.415 . S
C1237 H1207 0.950 . S
C1237 C1232 1.363 . S
C1237 C1236 1.415 . S
H1238 C1235 0.999 . S
H1239 C1220 0.913 . S
H1240 C1258 0.951 . S
H1241 C1260 0.951 . S
H1242 C1262 0.950 . S
H1243 C1263 0.950 . S
H1244 C1265 0.950 . S
H1245 C1268 0.950 . S
H1246 C1269 0.950 . S
H1247 C1271 0.950 . S
H1248 C1272 0.950 1_556 S
H1249 C1273 0.947 1_554 S
H1250 C1275 0.951 . S
H1251 C1277 0.950 . S
H1252 C1278 0.950 . S
H1253 C1280 0.952 1_554 S
H1254 C1283 0.950 . S
H1255 C1284 0.950 . S
H1256 C1286 0.950 . S
H1257 C1287 0.950 . S
C1258 H1240 0.951 . S
C1258 C1259 1.366 . S
C1258 C1260 1.388 . S
C1259 C1258 1.366 . S
C1259 C1263 1.385 . S
C1260 H1241 0.951 . S
C1260 C1258 1.388 . S
C1260 C1261 1.366 . S
C1261 C1260 1.366 . S
C1261 C1262 1.414 . S
C1261 C1264 1.499 . S
C1262 H1242 0.950 . S
C1262 C1261 1.414 . S
C1262 C1263 1.374 . S
C1263 H1243 0.950 . S
C1263 C1259 1.385 . S
C1263 C1262 1.374 . S
C1264 C1261 1.499 . S
C1264 C1265 1.373 . S
C1264 C1266 1.389 . S
C1265 H1244 0.950 . S
C1265 C1264 1.373 . S
C1265 C1281 1.377 . S
C1266 C1264 1.389 . S
C1266 C1267 1.561 . S
C1266 C1280 1.377 . S
C1267 C1266 1.561 . S
C1267 C1268 1.368 1_556 S
C1267 C1272 1.355 1_556 S
C1268 H1245 0.950 . S
C1268 C1267 1.368 1_554 S
C1268 C1269 1.334 . S
C1269 H1246 0.950 . S
C1269 C1268 1.334 . S
C1269 C1270 1.287 . S
C1270 C1269 1.287 . S
C1270 C1271 1.524 . S
C1270 H1289 0.913 . S
C1271 H1247 0.950 . S
C1271 C1270 1.524 . S
C1271 C1272 1.415 . S
C1272 H1248 0.950 1_554 S
C1272 C1267 1.355 1_554 S
C1272 C1271 1.415 . S
C1273 H1249 0.947 1_556 S
C1273 C1274 1.372 . S
C1273 C1275 1.388 . S
C1274 C1273 1.372 . S
C1274 C1278 1.398 . S
C1275 H1250 0.951 . S
C1275 C1273 1.388 . S
C1275 C1276 1.366 . S
C1276 C1275 1.366 . S
C1276 C1277 1.414 . S
C1276 C1279 1.499 . S
C1277 H1251 0.950 . S
C1277 C1276 1.414 . S
C1277 C1278 1.374 . S
C1278 H1252 0.950 . S
C1278 C1274 1.398 . S
C1278 C1277 1.374 . S
C1279 C1276 1.499 . S
C1279 C1280 1.373 . S
C1279 C1281 1.389 . S
C1280 H1253 0.952 1_556 S
C1280 C1266 1.377 . S
C1280 C1279 1.373 . S
C1281 C1265 1.377 . S
C1281 C1279 1.389 . S
C1281 C1282 1.524 . S
C1282 C1281 1.524 . S
C1282 C1283 1.397 . S
C1282 C1287 1.363 . S
C1283 H1254 0.950 . S
C1283 C1282 1.397 . S
C1283 C1284 1.334 . S
C1284 H1255 0.950 . S
C1284 C1283 1.334 . S
C1284 C1285 1.287 . S
C1285 C1284 1.287 . S
C1285 C1286 1.524 . S
C1285 H1288 0.999 . S
C1286 H1256 0.950 . S
C1286 C1285 1.524 . S
C1286 C1287 1.415 . S
C1287 H1257 0.950 . S
C1287 C1282 1.363 . S
C1287 C1286 1.415 . S
H1288 C1285 0.999 . S
H1289 C1270 0.913 . S
H1290 C1308 0.951 . S
H1291 C1310 0.951 . S
H1292 C1312 0.950 . S
H1293 C1313 0.950 . S
H1294 C1315 0.950 . S
H1295 C1318 0.950 . S
H1296 C1319 0.950 . S
H1297 C1321 0.950 . S
H1298 C1322 0.950 . S
H1299 C1323 0.951 . S
H1300 C1325 0.951 . S
H1301 C1327 0.950 . S
H1302 C1328 0.950 . S
H1303 C1330 0.950 . S
H1304 C1333 0.950 . S
H1305 C1334 0.950 . S
H1306 C1336 0.950 1_554 S
H1307 C1337 0.950 1_554 S
C1308 H1290 0.951 . S
C1308 C1309 1.366 . S
C1308 C1310 1.388 . S
C1309 C1308 1.366 . S
C1309 C1313 1.385 . S
C1310 H1291 0.951 . S
C1310 C1308 1.388 . S
C1310 C1311 1.366 . S
C1311 C1310 1.366 . S
C1311 C1312 1.414 . S
C1311 C1314 1.499 . S
C1312 H1292 0.950 . S
C1312 C1311 1.414 . S
C1312 C1313 1.374 . S
C1313 H1293 0.950 . S
C1313 C1309 1.385 . S
C1313 C1312 1.374 . S
C1314 C1311 1.499 . S
C1314 C1315 1.373 . S
C1314 C1316 1.389 . S
C1315 H1294 0.950 . S
C1315 C1314 1.373 . S
C1315 C1331 1.377 . S
C1316 C1314 1.389 . S
C1316 C1317 1.524 . S
C1316 C1330 1.377 . S
C1317 C1316 1.524 . S
C1317 C1318 1.397 . S
C1317 C1322 1.363 . S
C1318 H1295 0.950 . S
C1318 C1317 1.397 . S
C1318 C1319 1.334 . S
C1319 H1296 0.950 . S
C1319 C1318 1.334 . S
C1319 C1320 1.287 . S
C1320 C1319 1.287 . S
C1320 C1321 1.524 . S
C1320 H1339 0.913 . S
C1321 H1297 0.950 . S
C1321 C1320 1.524 . S
C1321 C1322 1.415 . S
C1322 H1298 0.950 . S
C1322 C1317 1.363 . S
C1322 C1321 1.415 . S
C1323 H1299 0.951 . S
C1323 C1324 1.366 1_554 S
C1323 C1325 1.388 . S
C1324 C1323 1.366 1_556 S
C1324 C1328 1.385 . S
C1325 H1300 0.951 . S
C1325 C1323 1.388 . S
C1325 C1326 1.366 1_554 S
C1326 C1325 1.366 1_556 S
C1326 C1327 1.414 . S
C1326 C1329 1.499 . S
C1327 H1301 0.950 . S
C1327 C1326 1.414 . S
C1327 C1328 1.374 . S
C1328 H1302 0.950 . S
C1328 C1324 1.385 . S
C1328 C1327 1.374 . S
C1329 C1326 1.499 . S
C1329 C1330 1.373 . S
C1329 C1331 1.389 . S
C1330 H1303 0.950 . S
C1330 C1316 1.377 . S
C1330 C1329 1.373 . S
C1331 C1315 1.377 . S
C1331 C1329 1.389 . S
C1331 C1332 1.524 . S
C1332 C1331 1.524 . S
C1332 C1333 1.397 . S
C1332 C1337 1.363 . S
C1333 H1304 0.950 . S
C1333 C1332 1.397 . S
C1333 C1334 1.334 . S
C1334 H1305 0.950 . S
C1334 C1333 1.334 . S
C1334 C1335 1.287 . S
C1335 C1334 1.287 . S
C1335 C1336 1.524 . S
C1335 H1338 0.999 . S
C1336 H1306 0.950 1_556 S
C1336 C1335 1.524 . S
C1336 C1337 1.415 . S
C1337 H1307 0.950 1_556 S
C1337 C1332 1.363 . S
C1337 C1336 1.415 . S
H1338 C1335 0.999 . S
H1339 C1320 0.913 . S
H1340 C1358 0.951 . S
H1341 C1360 0.951 . S
H1342 C1362 0.950 . S
H1343 C1363 0.950 . S
H1344 C1365 0.950 . S
H1345 C1368 0.950 . S
H1346 C1369 0.950 . S
H1347 C1371 0.950 . S
H1348 C1372 0.950 . S
H1349 C1373 0.951 . S
H1350 C1375 0.951 . S
H1351 C1377 0.950 . S
H1352 C1378 0.950 . S
H1353 C1380 0.950 . S
H1354 C1383 0.950 . S
H1355 C1384 0.950 . S
H1356 C1386 0.950 . S
H1357 C1387 0.950 . S
C1358 H1340 0.951 . S
C1358 C1359 1.366 . S
C1358 C1360 1.388 . S
C1359 C1358 1.366 . S
C1359 C1363 1.385 . S
C1360 H1341 0.951 . S
C1360 C1358 1.388 . S
C1360 C1361 1.366 . S
C1361 C1360 1.366 . S
C1361 C1362 1.414 . S
C1361 C1364 1.499 . S
C1362 H1342 0.950 . S
C1362 C1361 1.414 . S
C1362 C1363 1.374 . S
C1363 H1343 0.950 . S
C1363 C1359 1.385 . S
C1363 C1362 1.374 . S
C1364 C1361 1.499 . S
C1364 C1365 1.373 . S
C1364 C1366 1.389 . S
C1365 H1344 0.950 . S
C1365 C1364 1.373 . S
C1365 C1381 1.377 . S
C1366 C1364 1.389 . S
C1366 C1367 1.524 . S
C1366 C1380 1.377 . S
C1367 C1366 1.524 . S
C1367 C1368 1.397 . S
C1367 C1372 1.363 . S
C1368 H1345 0.950 . S
C1368 C1367 1.397 . S
C1368 C1369 1.334 . S
C1369 H1346 0.950 . S
C1369 C1368 1.334 . S
C1369 C1370 1.287 . S
C1370 C1369 1.287 . S
C1370 C1371 1.524 . S
C1370 H1389 0.913 . S
C1371 H1347 0.950 . S
C1371 C1370 1.524 . S
C1371 C1372 1.415 . S
C1372 H1348 0.950 . S
C1372 C1367 1.363 . S
C1372 C1371 1.415 . S
C1373 H1349 0.951 . S
C1373 C1374 1.366 1_554 S
C1373 C1375 1.388 . S
C1374 C1373 1.366 1_556 S
C1374 C1378 1.385 . S
C1375 H1350 0.951 . S
C1375 C1373 1.388 . S
C1375 C1376 1.366 1_554 S
C1376 C1375 1.366 1_556 S
C1376 C1377 1.414 . S
C1376 C1379 1.499 . S
C1377 H1351 0.950 . S
C1377 C1376 1.414 . S
C1377 C1378 1.374 . S
C1378 H1352 0.950 . S
C1378 C1374 1.385 . S
C1378 C1377 1.374 . S
C1379 C1376 1.499 . S
C1379 C1380 1.373 . S
C1379 C1381 1.389 . S
C1380 H1353 0.950 . S
C1380 C1366 1.377 . S
C1380 C1379 1.373 . S
C1381 C1365 1.377 . S
C1381 C1379 1.389 . S
C1381 C1382 1.524 . S
C1382 C1381 1.524 . S
C1382 C1383 1.397 . S
C1382 C1387 1.363 1_556 S
C1383 H1354 0.950 . S
C1383 C1382 1.397 . S
C1383 C1384 1.334 . S
C1384 H1355 0.950 . S
C1384 C1383 1.334 . S
C1384 C1385 1.287 . S
C1385 C1384 1.287 . S
C1385 C1386 1.524 1_556 S
C1385 H1388 0.999 1_556 S
C1386 H1356 0.950 . S
C1386 C1385 1.524 1_554 S
C1386 C1387 1.415 . S
C1387 H1357 0.950 . S
C1387 C1382 1.363 1_554 S
C1387 C1386 1.415 . S
H1388 C1385 0.999 1_554 S
H1389 C1370 0.913 . S
H1390 C1408 0.951 . S
H1391 C1410 0.951 . S
H1392 C1412 0.950 . S
H1393 C1413 0.950 . S
H1394 C1415 0.950 . S
H1395 C1418 0.950 . S
H1396 C1419 0.950 . S
H1397 C1421 0.950 . S
H1398 C1422 0.950 . S
H1399 C1423 0.951 . S
H1400 C1425 0.951 . S
H1401 C1427 0.950 . S
H1402 C1428 0.950 . S
H1403 C1430 0.950 . S
H1404 C1433 0.950 1_554 S
H1405 C1434 0.950 . S
H1406 C1436 0.950 . S
H1407 C1437 0.950 . S
C1408 H1390 0.951 . S
C1408 C1409 1.366 . S
C1408 C1410 1.388 . S
C1409 C1408 1.366 . S
C1409 C1413 1.385 . S
C1410 H1391 0.951 . S
C1410 C1408 1.388 . S
C1410 C1411 1.366 . S
C1411 C1410 1.366 . S
C1411 C1412 1.414 . S
C1411 C1414 1.499 . S
C1412 H1392 0.950 . S
C1412 C1411 1.414 . S
C1412 C1413 1.374 . S
C1413 H1393 0.950 . S
C1413 C1409 1.385 . S
C1413 C1412 1.374 . S
C1414 C1411 1.499 . S
C1414 C1415 1.373 . S
C1414 C1416 1.389 . S
C1415 H1394 0.950 . S
C1415 C1414 1.373 . S
C1415 C1431 1.377 . S
C1416 C1414 1.389 . S
C1416 C1417 1.524 . S
C1416 C1430 1.377 . S
C1417 C1416 1.524 . S
C1417 C1418 1.397 . S
C1417 C1422 1.363 1_556 S
C1418 H1395 0.950 . S
C1418 C1417 1.397 . S
C1418 C1419 1.334 . S
C1419 H1396 0.950 . S
C1419 C1418 1.334 . S
C1419 C1420 1.287 . S
C1420 C1419 1.287 . S
C1420 C1421 1.524 1_556 S
C1420 H1439 0.913 . S
C1421 H1397 0.950 . S
C1421 C1420 1.524 1_554 S
C1421 C1422 1.415 . S
C1422 H1398 0.950 . S
C1422 C1417 1.363 1_554 S
C1422 C1421 1.415 . S
C1423 H1399 0.951 . S
C1423 C1424 1.392 . S
C1423 C1425 1.388 . S
C1424 C1423 1.392 . S
C1424 C1428 1.365 1_556 S
C1425 H1400 0.951 . S
C1425 C1423 1.388 . S
C1425 C1426 1.366 . S
C1426 C1425 1.366 . S
C1426 C1427 1.414 1_556 S
C1426 C1429 1.499 . S
C1427 H1401 0.950 . S
C1427 C1426 1.414 1_554 S
C1427 C1428 1.374 . S
C1428 H1402 0.950 . S
C1428 C1424 1.365 1_554 S
C1428 C1427 1.374 . S
C1429 C1426 1.499 . S
C1429 C1430 1.373 . S
C1429 C1431 1.389 . S
C1430 H1403 0.950 . S
C1430 C1416 1.377 . S
C1430 C1429 1.373 . S
C1431 C1415 1.377 . S
C1431 C1429 1.389 . S
C1431 C1432 1.524 . S
C1432 C1431 1.524 . S
C1432 C1433 1.397 . S
C1432 C1437 1.363 . S
C1433 H1404 0.950 1_556 S
C1433 C1432 1.397 . S
C1433 C1434 1.334 . S
C1434 H1405 0.950 . S
C1434 C1433 1.334 . S
C1434 C1435 1.287 . S
C1435 C1434 1.287 . S
C1435 C1436 1.524 . S
C1435 H1438 0.999 . S
C1436 H1406 0.950 . S
C1436 C1435 1.524 . S
C1436 C1437 1.415 . S
C1437 H1407 0.950 . S
C1437 C1432 1.363 . S
C1437 C1436 1.415 . S
H1438 C1435 0.999 . S
H1439 C1420 0.913 . S
H1440 C1458 0.951 . S
H1441 C1460 0.951 . S
H1442 C1462 0.950 . S
H1443 C1463 0.950 . S
H1444 C1465 0.950 . S
H1445 C1468 0.950 . S
H1446 C1469 0.950 . S
H1447 C1471 0.950 . S
H1448 C1472 0.950 . S
H1449 C1473 0.951 . S
H1450 C1475 0.951 . S
H1451 C1477 0.950 . S
H1452 C1478 0.950 . S
H1453 C1480 0.950 . S
H1454 C1483 0.950 1_554 S
H1455 C1484 0.950 . S
H1456 C1486 0.950 . S
H1457 C1487 0.950 . S
C1458 H1440 0.951 . S
C1458 C1459 1.366 . S
C1458 C1460 1.388 . S
C1459 C1458 1.366 . S
C1459 C1463 1.385 . S
C1460 H1441 0.951 . S
C1460 C1458 1.388 . S
C1460 C1461 1.366 . S
C1461 C1460 1.366 . S
C1461 C1462 1.414 . S
C1461 C1464 1.499 . S
C1462 H1442 0.950 . S
C1462 C1461 1.414 . S
C1462 C1463 1.374 . S
C1463 H1443 0.950 . S
C1463 C1459 1.385 . S
C1463 C1462 1.374 . S
C1464 C1461 1.499 . S
C1464 C1465 1.373 . S
C1464 C1466 1.389 . S
C1465 H1444 0.950 . S
C1465 C1464 1.373 . S
C1465 C1481 1.377 . S
C1466 C1464 1.389 . S
C1466 C1467 1.524 . S
C1466 C1480 1.377 . S
C1467 C1466 1.524 . S
C1467 C1468 1.397 . S
C1467 C1472 1.363 . S
C1468 H1445 0.950 . S
C1468 C1467 1.397 . S
C1468 C1469 1.334 . S
C1469 H1446 0.950 . S
C1469 C1468 1.334 . S
C1469 C1470 1.287 . S
C1470 C1469 1.287 . S
C1470 C1471 1.524 . S
C1470 H1489 0.913 . S
C1471 H1447 0.950 . S
C1471 C1470 1.524 . S
C1471 C1472 1.415 . S
C1472 H1448 0.950 . S
C1472 C1467 1.363 . S
C1472 C1471 1.415 . S
C1473 H1449 0.951 . S
C1473 C1474 1.366 . S
C1473 C1475 1.388 . S
C1474 C1473 1.366 . S
C1474 C1478 1.385 . S
C1475 H1450 0.951 . S
C1475 C1473 1.388 . S
C1475 C1476 1.366 . S
C1476 C1475 1.366 . S
C1476 C1477 1.414 . S
C1476 C1479 1.499 . S
C1477 H1451 0.950 . S
C1477 C1476 1.414 . S
C1477 C1478 1.374 . S
C1478 H1452 0.950 . S
C1478 C1474 1.385 . S
C1478 C1477 1.374 . S
C1479 C1476 1.499 . S
C1479 C1480 1.373 . S
C1479 C1481 1.389 . S
C1480 H1453 0.950 . S
C1480 C1466 1.377 . S
C1480 C1479 1.373 . S
C1481 C1465 1.377 . S
C1481 C1479 1.389 . S
C1481 C1482 1.524 . S
C1482 C1481 1.524 . S
C1482 C1483 1.397 1_554 S
C1482 C1487 1.363 . S
C1483 H1454 0.950 1_556 S
C1483 C1482 1.397 1_556 S
C1483 C1484 1.334 . S
C1484 H1455 0.950 . S
C1484 C1483 1.334 . S
C1484 C1485 1.287 . S
C1485 C1484 1.287 . S
C1485 C1486 1.524 . S
C1485 H1488 0.999 . S
C1486 H1456 0.950 . S
C1486 C1485 1.524 . S
C1486 C1487 1.415 1_556 S
C1487 H1457 0.950 . S
C1487 C1482 1.363 . S
C1487 C1486 1.415 1_554 S
H1488 C1485 0.999 . S
H1489 C1470 0.913 . S
H1490 C1508 0.951 . S
H1491 C1510 0.951 . S
H1492 C1512 0.950 . S
H1493 C1513 0.950 . S
H1494 C1515 0.950 . S
H1495 C1518 0.950 . S
H1496 C1519 0.950 . S
H1497 C1521 0.950 . S
H1498 C1522 0.950 . S
H1499 C1523 0.951 . S
H1500 C1525 0.951 . S
H1501 C1527 0.950 . S
H1502 C1528 0.950 . S
H1503 C1530 0.950 . S
H1504 C1533 0.950 . S
H1505 C1534 0.950 . S
H1506 C1536 0.950 . S
H1507 C1537 0.961 . S
C1508 H1490 0.951 . S
C1508 C1509 1.366 . S
C1508 C1510 1.388 . S
C1509 C1508 1.366 . S
C1509 C1513 1.385 . S
C1510 H1491 0.951 . S
C1510 C1508 1.388 . S
C1510 C1511 1.366 . S
C1511 C1510 1.366 . S
C1511 C1512 1.414 . S
C1511 C1514 1.499 . S
C1512 H1492 0.950 . S
C1512 C1511 1.414 . S
C1512 C1513 1.374 . S
C1513 H1493 0.950 . S
C1513 C1509 1.385 . S
C1513 C1512 1.374 . S
C1514 C1511 1.499 . S
C1514 C1515 1.373 . S
C1514 C1516 1.389 . S
C1515 H1494 0.950 . S
C1515 C1514 1.373 . S
C1515 C1531 1.377 . S
C1516 C1514 1.389 . S
C1516 C1517 1.524 . S
C1516 C1530 1.377 . S
C1517 C1516 1.524 . S
C1517 C1518 1.397 . S
C1517 C1522 1.363 . S
C1518 H1495 0.950 . S
C1518 C1517 1.397 . S
C1518 C1519 1.334 . S
C1519 H1496 0.950 . S
C1519 C1518 1.334 . S
C1519 C1520 1.287 . S
C1520 C1519 1.287 . S
C1520 C1521 1.524 . S
C1520 H1539 0.913 . S
C1521 H1497 0.950 . S
C1521 C1520 1.524 . S
C1521 C1522 1.415 . S
C1522 H1498 0.950 . S
C1522 C1517 1.363 . S
C1522 C1521 1.415 . S
C1523 H1499 0.951 . S
C1523 C1524 1.366 . S
C1523 C1525 1.388 . S
C1524 C1523 1.366 . S
C1524 C1528 1.385 . S
C1525 H1500 0.951 . S
C1525 C1523 1.388 . S
C1525 C1526 1.366 . S
C1526 C1525 1.366 . S
C1526 C1527 1.414 . S
C1526 C1529 1.499 . S
C1527 H1501 0.950 . S
C1527 C1526 1.414 . S
C1527 C1528 1.374 . S
C1528 H1502 0.950 . S
C1528 C1524 1.385 . S
C1528 C1527 1.374 . S
C1529 C1526 1.499 . S
C1529 C1530 1.373 . S
C1529 C1531 1.389 . S
C1530 H1503 0.950 . S
C1530 C1516 1.377 . S
C1530 C1529 1.373 . S
C1531 C1515 1.377 . S
C1531 C1529 1.389 . S
C1531 C1532 1.524 . S
C1532 C1531 1.524 . S
C1532 C1533 1.397 . S
C1532 C1537 1.363 1_554 S
C1533 H1504 0.950 . S
C1533 C1532 1.397 . S
C1533 C1534 1.334 1_554 S
C1534 H1505 0.950 . S
C1534 C1533 1.334 1_556 S
C1534 C1535 1.287 . S
C1535 C1534 1.287 . S
C1535 C1536 1.524 . S
C1535 H1538 0.999 . S
C1536 H1506 0.950 . S
C1536 C1535 1.524 . S
C1536 C1537 1.415 . S
C1537 H1507 0.961 . S
C1537 C1532 1.363 1_556 S
C1537 C1536 1.415 . S
H1538 C1535 0.999 . S
H1539 C1520 0.913 . S
H1540 C1558 0.951 . S
H1541 C1560 0.951 . S
H1542 C1562 0.950 . S
H1543 C1563 0.950 . S
H1544 C1565 0.950 . S
H1545 C1568 0.950 . S
H1546 C1569 0.950 . S
H1547 C1571 0.950 . S
H1548 C1572 0.950 . S
H1549 C1573 0.951 . S
H1550 C1575 0.951 . S
H1551 C1577 0.950 . S
H1552 C1578 0.950 . S
H1553 C1580 0.950 . S
H1554 C1583 0.947 . S
H1555 C1584 0.950 . S
H1556 C1586 0.950 . S
H1557 C1587 0.980 . S
C1558 H1540 0.951 . S
C1558 C1559 1.366 . S
C1558 C1560 1.388 . S
C1559 C1558 1.366 . S
C1559 C1563 1.385 . S
C1560 H1541 0.951 . S
C1560 C1558 1.388 . S
C1560 C1561 1.366 . S
C1561 C1560 1.366 . S
C1561 C1562 1.414 . S
C1561 C1564 1.499 . S
C1562 H1542 0.950 . S
C1562 C1561 1.414 . S
C1562 C1563 1.374 . S
C1563 H1543 0.950 . S
C1563 C1559 1.385 . S
C1563 C1562 1.374 . S
C1564 C1561 1.499 . S
C1564 C1565 1.373 . S
C1564 C1566 1.389 . S
C1565 H1544 0.950 . S
C1565 C1564 1.373 . S
C1565 C1581 1.377 . S
C1566 C1564 1.389 . S
C1566 C1567 1.524 . S
C1566 C1580 1.377 . S
C1567 C1566 1.524 . S
C1567 C1568 1.397 . S
C1567 C1572 1.363 . S
C1568 H1545 0.950 . S
C1568 C1567 1.397 . S
C1568 C1569 1.334 . S
C1569 H1546 0.950 . S
C1569 C1568 1.334 . S
C1569 C1570 1.287 . S
C1570 C1569 1.287 . S
C1570 C1571 1.524 . S
C1570 H1589 0.913 . S
C1571 H1547 0.950 . S
C1571 C1570 1.524 . S
C1571 C1572 1.415 . S
C1572 H1548 0.950 . S
C1572 C1567 1.363 . S
C1572 C1571 1.415 . S
C1573 H1549 0.951 . S
C1573 C1574 1.366 . S
C1573 C1575 1.388 . S
C1574 C1573 1.366 . S
C1574 C1578 1.385 . S
C1575 H1550 0.951 . S
C1575 C1573 1.388 . S
C1575 C1576 1.366 . S
C1576 C1575 1.366 . S
C1576 C1577 1.414 . S
C1576 C1579 1.499 . S
C1577 H1551 0.950 . S
C1577 C1576 1.414 . S
C1577 C1578 1.374 . S
C1578 H1552 0.950 . S
C1578 C1574 1.385 . S
C1578 C1577 1.374 . S
C1579 C1576 1.499 . S
C1579 C1580 1.373 . S
C1579 C1581 1.389 . S
C1580 H1553 0.950 . S
C1580 C1566 1.377 . S
C1580 C1579 1.373 . S
C1581 C1565 1.377 . S
C1581 C1579 1.389 . S
C1581 C1582 1.524 . S
C1582 C1581 1.524 . S
C1582 C1583 1.397 1_554 S
C1582 C1587 1.378 . S
C1583 H1554 0.947 . S
C1583 C1582 1.397 1_556 S
C1583 C1584 1.334 . S
C1584 H1555 0.950 . S
C1584 C1583 1.334 . S
C1584 C1585 1.287 . S
C1585 C1584 1.287 . S
C1585 C1586 1.524 . S
C1585 H1588 0.999 . S
C1586 H1556 0.950 . S
C1586 C1585 1.524 . S
C1586 C1587 1.372 1_556 S
C1587 H1557 0.980 . S
C1587 C1582 1.378 . S
C1587 C1586 1.372 1_554 S
H1588 C1585 0.999 . S
H1589 C1570 0.913 . S
H1590 C1608 0.951 . S
H1591 C1610 0.951 . S
H1592 C1612 0.950 . S
H1593 C1613 0.950 . S
H1594 C1615 0.950 . S
H1595 C1618 0.950 . S
H1596 C1619 0.950 . S
H1597 C1621 0.950 . S
H1598 C1622 0.950 . S
H1599 C1623 0.951 . S
H1600 C1625 0.951 . S
H1601 C1627 0.950 . S
H1602 C1628 0.950 . S
H1603 C1630 0.950 . S
H1604 C1633 0.950 . S
H1605 C1634 0.950 . S
H1606 C1636 0.950 . S
H1607 C1637 0.950 . S
C1608 H1590 0.951 . S
C1608 C1609 1.366 . S
C1608 C1610 1.388 . S
C1609 C1608 1.366 . S
C1609 C1613 1.385 . S
C1610 H1591 0.951 . S
C1610 C1608 1.388 . S
C1610 C1611 1.366 . S
C1611 C1610 1.366 . S
C1611 C1612 1.414 . S
C1611 C1614 1.499 . S
C1612 H1592 0.950 . S
C1612 C1611 1.414 . S
C1612 C1613 1.374 . S
C1613 H1593 0.950 . S
C1613 C1609 1.385 . S
C1613 C1612 1.374 . S
C1614 C1611 1.499 . S
C1614 C1615 1.373 1_655 S
C1614 C1616 1.389 . S
C1615 H1594 0.950 . S
C1615 C1614 1.373 1_455 S
C1615 C1631 1.377 . S
C1616 C1614 1.389 . S
C1616 C1617 1.524 . S
C1616 C1630 1.377 1_655 S
C1617 C1616 1.524 . S
C1617 C1618 1.397 . S
C1617 C1622 1.363 . S
C1618 H1595 0.950 . S
C1618 C1617 1.397 . S
C1618 C1619 1.334 . S
C1619 H1596 0.950 . S
C1619 C1618 1.334 . S
C1619 C1620 1.287 . S
C1620 C1619 1.287 . S
C1620 C1621 1.524 . S
C1620 H1639 0.913 . S
C1621 H1597 0.950 . S
C1621 C1620 1.524 . S
C1621 C1622 1.415 . S
C1622 H1598 0.950 . S
C1622 C1617 1.363 . S
C1622 C1621 1.415 . S
C1623 H1599 0.951 . S
C1623 C1624 1.366 . S
C1623 C1625 1.388 . S
C1624 C1623 1.366 . S
C1624 C1628 1.385 . S
C1625 H1600 0.951 . S
C1625 C1623 1.388 . S
C1625 C1626 1.366 . S
C1626 C1625 1.366 . S
C1626 C1627 1.414 . S
C1626 C1629 1.499 . S
C1627 H1601 0.950 . S
C1627 C1626 1.414 . S
C1627 C1628 1.374 . S
C1628 H1602 0.950 . S
C1628 C1624 1.385 . S
C1628 C1627 1.374 . S
C1629 C1626 1.499 . S
C1629 C1630 1.373 . S
C1629 C1631 1.389 . S
C1630 H1603 0.950 . S
C1630 C1616 1.377 1_455 S
C1630 C1629 1.373 . S
C1631 C1615 1.377 . S
C1631 C1629 1.389 . S
C1631 C1632 1.524 . S
C1632 C1631 1.524 . S
C1632 C1633 1.397 . S
C1632 C1637 1.363 . S
C1633 H1604 0.950 . S
C1633 C1632 1.397 . S
C1633 C1634 1.334 . S
C1634 H1605 0.950 . S
C1634 C1633 1.334 . S
C1634 C1635 1.287 . S
C1635 C1634 1.287 . S
C1635 C1636 1.524 . S
C1635 H1638 0.999 . S
C1636 H1606 0.950 . S
C1636 C1635 1.524 . S
C1636 C1637 1.415 . S
C1637 H1607 0.950 . S
C1637 C1632 1.363 . S
C1637 C1636 1.415 . S
H1638 C1635 0.999 . S
H1639 C1620 0.913 . S
H1640 C1658 0.951 . S
H1641 C1660 0.951 . S
H1642 C1662 0.950 . S
H1643 C1663 0.950 . S
H1644 C1665 0.950 . S
H1645 C1668 0.950 . S
H1646 C1669 0.950 . S
H1647 C1671 0.950 . S
H1648 C1672 0.950 . S
H1649 C1673 0.951 . S
H1650 C1675 0.951 . S
H1651 C1677 0.950 . S
H1652 C1678 0.950 . S
H1653 C1680 0.950 . S
H1654 C1683 0.950 . S
H1655 C1684 0.950 . S
H1656 C1686 0.950 . S
H1657 C1687 0.950 . S
C1658 H1640 0.951 . S
C1658 C1659 1.366 . S
C1658 C1660 1.388 . S
C1659 C1658 1.366 . S
C1659 C1663 1.385 . S
C1660 H1641 0.951 . S
C1660 C1658 1.388 . S
C1660 C1661 1.366 . S
C1661 C1660 1.366 . S
C1661 C1662 1.414 . S
C1661 C1664 1.499 . S
C1662 H1642 0.950 . S
C1662 C1661 1.414 . S
C1662 C1663 1.374 . S
C1663 H1643 0.950 . S
C1663 C1659 1.385 . S
C1663 C1662 1.374 . S
C1664 C1661 1.499 . S
C1664 C1665 1.373 . S
C1664 C1666 1.389 . S
C1665 H1644 0.950 . S
C1665 C1664 1.373 . S
C1665 C1681 1.377 . S
C1666 C1664 1.389 . S
C1666 C1667 1.524 . S
C1666 C1680 1.377 . S
C1667 C1666 1.524 . S
C1667 C1668 1.397 . S
C1667 C1672 1.363 . S
C1668 H1645 0.950 . S
C1668 C1667 1.397 . S
C1668 C1669 1.334 . S
C1669 H1646 0.950 . S
C1669 C1668 1.334 . S
C1669 C1670 1.287 . S
C1670 C1669 1.287 . S
C1670 C1671 1.524 . S
C1670 H1689 0.913 . S
C1671 H1647 0.950 . S
C1671 C1670 1.524 . S
C1671 C1672 1.415 . S
C1672 H1648 0.950 . S
C1672 C1667 1.363 . S
C1672 C1671 1.415 . S
C1673 H1649 0.951 . S
C1673 C1674 1.366 . S
C1673 C1675 1.388 . S
C1674 C1673 1.366 . S
C1674 C1678 1.385 . S
C1675 H1650 0.951 . S
C1675 C1673 1.388 . S
C1675 C1676 1.366 . S
C1676 C1675 1.366 . S
C1676 C1677 1.414 . S
C1676 C1679 1.499 . S
C1677 H1651 0.950 . S
C1677 C1676 1.414 . S
C1677 C1678 1.374 . S
C1678 H1652 0.950 . S
C1678 C1674 1.385 . S
C1678 C1677 1.374 . S
C1679 C1676 1.499 . S
C1679 C1680 1.373 . S
C1679 C1681 1.389 . S
C1680 H1653 0.950 . S
C1680 C1666 1.377 . S
C1680 C1679 1.373 . S
C1681 C1665 1.377 . S
C1681 C1679 1.389 . S
C1681 C1682 1.524 . S
C1682 C1681 1.524 . S
C1682 C1683 1.397 . S
C1682 C1687 1.363 . S
C1683 H1654 0.950 . S
C1683 C1682 1.397 . S
C1683 C1684 1.334 . S
C1684 H1655 0.950 . S
C1684 C1683 1.334 . S
C1684 C1685 1.287 . S
C1685 C1684 1.287 . S
C1685 C1686 1.524 . S
C1685 H1688 0.999 . S
C1686 H1656 0.950 . S
C1686 C1685 1.524 . S
C1686 C1687 1.415 . S
C1687 H1657 0.950 . S
C1687 C1682 1.363 . S
C1687 C1686 1.415 . S
H1688 C1685 0.999 . S
H1689 C1670 0.913 . S
H1690 C1708 0.951 . S
H1691 C1710 0.951 . S
H1692 C1712 0.950 . S
H1693 C1713 0.950 . S
H1694 C1715 0.950 . S
H1695 C1718 0.950 . S
H1696 C1719 0.950 . S
H1697 C1721 0.950 . S
H1698 C1722 0.950 . S
H1699 C1723 0.951 . S
H1700 C1725 0.951 . S
H1701 C1727 0.950 . S
H1702 C1728 0.950 . S
H1703 C1730 0.950 . S
H1704 C1733 0.950 . S
H1705 C1734 0.950 . S
H1706 C1736 0.950 . S
H1707 C1737 0.950 . S
C1708 H1690 0.951 . S
C1708 C1709 1.366 . S
C1708 C1710 1.388 . S
C1709 C1708 1.366 . S
C1709 C1713 1.385 . S
C1710 H1691 0.951 . S
C1710 C1708 1.388 . S
C1710 C1711 1.366 . S
C1711 C1710 1.366 . S
C1711 C1712 1.414 . S
C1711 C1714 1.499 . S
C1712 H1692 0.950 . S
C1712 C1711 1.414 . S
C1712 C1713 1.374 . S
C1713 H1693 0.950 . S
C1713 C1709 1.385 . S
C1713 C1712 1.374 . S
C1714 C1711 1.499 . S
C1714 C1715 1.373 . S
C1714 C1716 1.389 . S
C1715 H1694 0.950 . S
C1715 C1714 1.373 . S
C1715 C1731 1.377 . S
C1716 C1714 1.389 . S
C1716 C1717 1.524 . S
C1716 C1730 1.377 1_545 S
C1717 C1716 1.524 . S
C1717 C1718 1.397 . S
C1717 C1722 1.363 1_545 S
C1718 H1695 0.950 . S
C1718 C1717 1.397 . S
C1718 C1719 1.334 . S
C1719 H1696 0.950 . S
C1719 C1718 1.334 . S
C1719 C1720 1.287 . S
C1720 C1719 1.287 . S
C1720 C1721 1.524 1_545 S
C1720 H1739 0.913 . S
C1721 H1697 0.950 . S
C1721 C1720 1.524 1_565 S
C1721 C1722 1.415 . S
C1722 H1698 0.950 . S
C1722 C1717 1.363 1_565 S
C1722 C1721 1.415 . S
C1723 H1699 0.951 . S
C1723 C1724 1.366 . S
C1723 C1725 1.388 . S
C1724 C1723 1.366 . S
C1724 C1728 1.385 . S
C1725 H1700 0.951 . S
C1725 C1723 1.388 . S
C1725 C1726 1.366 . S
C1726 C1725 1.366 . S
C1726 C1727 1.414 . S
C1726 C1729 1.499 . S
C1727 H1701 0.950 . S
C1727 C1726 1.414 . S
C1727 C1728 1.374 . S
C1728 H1702 0.950 . S
C1728 C1724 1.385 . S
C1728 C1727 1.374 . S
C1729 C1726 1.499 . S
C1729 C1730 1.373 . S
C1729 C1731 1.389 1_565 S
C1730 H1703 0.950 . S
C1730 C1716 1.377 1_565 S
C1730 C1729 1.373 . S
C1731 C1715 1.377 . S
C1731 C1729 1.389 1_545 S
C1731 C1732 1.538 . S
C1732 C1731 1.538 . S
C1732 C1733 1.373 1_545 S
C1732 C1737 1.382 . S
C1733 H1704 0.950 . S
C1733 C1732 1.373 1_565 S
C1733 C1734 1.334 . S
C1734 H1705 0.950 . S
C1734 C1733 1.334 . S
C1734 C1735 1.303 . S
C1735 C1734 1.303 . S
C1735 C1736 1.503 1_565 S
C1735 H1738 1.011 . S
C1736 H1706 0.950 . S
C1736 C1735 1.503 1_545 S
C1736 C1737 1.415 . S
C1737 H1707 0.950 . S
C1737 C1732 1.382 . S
C1737 C1736 1.415 . S
H1738 C1735 1.011 . S
H1739 C1720 0.913 . S
H1740 C1758 0.951 . S
H1741 C1760 0.951 . S
H1742 C1762 0.950 . S
H1743 C1763 0.950 . S
H1744 C1765 0.950 . S
H1745 C1768 0.950 . S
H1746 C1769 0.950 . S
H1747 C1771 0.950 . S
H1748 C1772 0.950 . S
H1749 C1773 0.951 . S
H1750 C1775 0.951 . S
H1751 C1777 0.950 . S
H1752 C1778 0.950 . S
H1753 C1780 0.950 . S
H1754 C1783 0.950 . S
H1755 C1784 0.950 . S
H1756 C1786 0.950 . S
H1757 C1787 0.950 . S
C1758 H1740 0.951 . S
C1758 C1759 1.366 . S
C1758 C1760 1.388 . S
C1759 C1758 1.366 . S
C1759 C1763 1.385 . S
C1760 H1741 0.951 . S
C1760 C1758 1.388 . S
C1760 C1761 1.366 . S
C1761 C1760 1.366 . S
C1761 C1762 1.414 . S
C1761 C1764 1.499 . S
C1762 H1742 0.950 . S
C1762 C1761 1.414 . S
C1762 C1763 1.374 . S
C1763 H1743 0.950 . S
C1763 C1759 1.385 . S
C1763 C1762 1.374 . S
C1764 C1761 1.499 . S
C1764 C1765 1.373 . S
C1764 C1766 1.389 . S
C1765 H1744 0.950 . S
C1765 C1764 1.373 . S
C1765 C1781 1.377 . S
C1766 C1764 1.389 . S
C1766 C1767 1.524 . S
C1766 C1780 1.377 . S
C1767 C1766 1.524 . S
C1767 C1768 1.397 . S
C1767 C1772 1.363 . S
C1768 H1745 0.950 . S
C1768 C1767 1.397 . S
C1768 C1769 1.334 . S
C1769 H1746 0.950 . S
C1769 C1768 1.334 . S
C1769 C1770 1.287 . S
C1770 C1769 1.287 . S
C1770 C1771 1.524 . S
C1770 H1789 0.913 . S
C1771 H1747 0.950 . S
C1771 C1770 1.524 . S
C1771 C1772 1.415 . S
C1772 H1748 0.950 . S
C1772 C1767 1.363 . S
C1772 C1771 1.415 . S
C1773 H1749 0.951 . S
C1773 C1774 1.366 . S
C1773 C1775 1.388 . S
C1774 C1773 1.366 . S
C1774 C1778 1.385 . S
C1775 H1750 0.951 . S
C1775 C1773 1.388 . S
C1775 C1776 1.366 . S
C1776 C1775 1.366 . S
C1776 C1777 1.414 . S
C1776 C1779 1.499 . S
C1777 H1751 0.950 . S
C1777 C1776 1.414 . S
C1777 C1778 1.374 . S
C1778 H1752 0.950 . S
C1778 C1774 1.385 . S
C1778 C1777 1.374 . S
C1779 C1776 1.499 . S
C1779 C1780 1.373 . S
C1779 C1781 1.389 . S
C1780 H1753 0.950 . S
C1780 C1766 1.377 . S
C1780 C1779 1.373 . S
C1781 C1765 1.377 . S
C1781 C1779 1.389 . S
C1781 C1782 1.524 . S
C1782 C1781 1.524 . S
C1782 C1783 1.397 . S
C1782 C1787 1.363 . S
C1783 H1754 0.950 . S
C1783 C1782 1.397 . S
C1783 C1784 1.334 . S
C1784 H1755 0.950 . S
C1784 C1783 1.334 . S
C1784 C1785 1.287 . S
C1785 C1784 1.287 . S
C1785 C1786 1.524 . S
C1785 H1788 0.999 . S
C1786 H1756 0.950 . S
C1786 C1785 1.524 . S
C1786 C1787 1.415 . S
C1787 H1757 0.950 . S
C1787 C1782 1.363 . S
C1787 C1786 1.415 . S
H1788 C1785 0.999 . S
H1789 C1770 0.913 . S
H1790 C1808 0.951 . S
H1791 C1810 0.951 . S
H1792 C1812 0.950 . S
H1793 C1813 0.950 . S
H1794 C1815 0.950 . S
H1795 C1818 0.950 . S
H1796 C1819 0.950 . S
H1797 C1821 0.950 . S
H1798 C1822 0.950 . S
H1799 C1823 0.951 . S
H1800 C1825 0.951 . S
H1801 C1827 0.950 . S
H1802 C1828 0.950 . S
H1803 C1830 0.950 . S
H1804 C1833 0.950 . S
H1805 C1834 0.950 . S
H1806 C1836 0.950 . S
H1807 C1837 0.950 . S
C1808 H1790 0.951 . S
C1808 C1809 1.366 . S
C1808 C1810 1.388 . S
C1809 C1808 1.366 . S
C1809 C1813 1.385 . S
C1810 H1791 0.951 . S
C1810 C1808 1.388 . S
C1810 C1811 1.366 . S
C1811 C1810 1.366 . S
C1811 C1812 1.414 . S
C1811 C1814 1.499 . S
C1812 H1792 0.950 . S
C1812 C1811 1.414 . S
C1812 C1813 1.374 . S
C1813 H1793 0.950 . S
C1813 C1809 1.385 . S
C1813 C1812 1.374 . S
C1814 C1811 1.499 . S
C1814 C1815 1.373 . S
C1814 C1816 1.389 . S
C1815 H1794 0.950 . S
C1815 C1814 1.373 . S
C1815 C1831 1.377 . S
C1816 C1814 1.389 . S
C1816 C1817 1.524 . S
C1816 C1830 1.377 . S
C1817 C1816 1.524 . S
C1817 C1818 1.397 . S
C1817 C1822 1.363 . S
C1818 H1795 0.950 . S
C1818 C1817 1.397 . S
C1818 C1819 1.334 . S
C1819 H1796 0.950 . S
C1819 C1818 1.334 . S
C1819 C1820 1.287 . S
C1820 C1819 1.287 . S
C1820 C1821 1.524 . S
C1820 H1839 0.913 . S
C1821 H1797 0.950 . S
C1821 C1820 1.524 . S
C1821 C1822 1.415 . S
C1822 H1798 0.950 . S
C1822 C1817 1.363 . S
C1822 C1821 1.415 . S
C1823 H1799 0.951 . S
C1823 C1824 1.366 . S
C1823 C1825 1.388 . S
C1824 C1823 1.366 . S
C1824 C1828 1.385 . S
C1825 H1800 0.951 . S
C1825 C1823 1.388 . S
C1825 C1826 1.366 . S
C1826 C1825 1.366 . S
C1826 C1827 1.414 . S
C1826 C1829 1.499 . S
C1827 H1801 0.950 . S
C1827 C1826 1.414 . S
C1827 C1828 1.374 . S
C1828 H1802 0.950 . S
C1828 C1824 1.385 . S
C1828 C1827 1.374 . S
C1829 C1826 1.499 . S
C1829 C1830 1.373 . S
C1829 C1831 1.389 . S
C1830 H1803 0.950 . S
C1830 C1816 1.377 . S
C1830 C1829 1.373 . S
C1831 C1815 1.377 . S
C1831 C1829 1.389 . S
C1831 C1832 1.524 . S
C1832 C1831 1.524 . S
C1832 C1833 1.397 . S
C1832 C1837 1.363 . S
C1833 H1804 0.950 . S
C1833 C1832 1.397 . S
C1833 C1834 1.334 . S
C1834 H1805 0.950 . S
C1834 C1833 1.334 . S
C1834 C1835 1.287 . S
C1835 C1834 1.287 . S
C1835 C1836 1.524 . S
C1835 H1838 0.999 . S
C1836 H1806 0.950 . S
C1836 C1835 1.524 . S
C1836 C1837 1.415 . S
C1837 H1807 0.950 . S
C1837 C1832 1.363 . S
C1837 C1836 1.415 . S
H1838 C1835 0.999 . S
H1839 C1820 0.913 . S
H1840 C1858 0.951 . S
H1841 C1860 0.951 . S
H1842 C1862 0.950 . S
H1843 C1863 0.950 . S
H1844 C1865 0.950 . S
H1845 C1868 0.950 . S
H1846 C1869 0.950 . S
H1847 C1871 0.950 . S
H1848 C1872 0.950 . S
H1849 C1873 0.951 . S
H1850 C1875 0.951 . S
H1851 C1877 0.950 . S
H1852 C1878 0.950 . S
H1853 C1880 0.950 . S
H1854 C1883 0.950 . S
H1855 C1884 0.950 . S
H1856 C1886 0.950 . S
H1857 C1887 0.950 . S
C1858 H1840 0.951 . S
C1858 C1859 1.366 . S
C1858 C1860 1.388 . S
C1859 C1858 1.366 . S
C1859 C1863 1.385 . S
C1860 H1841 0.951 . S
C1860 C1858 1.388 . S
C1860 C1861 1.366 . S
C1861 C1860 1.366 . S
C1861 C1862 1.414 . S
C1861 C1864 1.499 . S
C1862 H1842 0.950 . S
C1862 C1861 1.414 . S
C1862 C1863 1.374 . S
C1863 H1843 0.950 . S
C1863 C1859 1.385 . S
C1863 C1862 1.374 . S
C1864 C1861 1.499 . S
C1864 C1865 1.373 . S
C1864 C1866 1.389 . S
C1865 H1844 0.950 . S
C1865 C1864 1.373 . S
C1865 C1881 1.377 . S
C1866 C1864 1.389 . S
C1866 C1867 1.524 . S
C1866 C1880 1.377 . S
C1867 C1866 1.524 . S
C1867 C1868 1.397 . S
C1867 C1872 1.363 . S
C1868 H1845 0.950 . S
C1868 C1867 1.397 . S
C1868 C1869 1.334 . S
C1869 H1846 0.950 . S
C1869 C1868 1.334 . S
C1869 C1870 1.287 . S
C1870 C1869 1.287 . S
C1870 C1871 1.524 . S
C1870 H1889 0.913 . S
C1871 H1847 0.950 . S
C1871 C1870 1.524 . S
C1871 C1872 1.415 . S
C1872 H1848 0.950 . S
C1872 C1867 1.363 . S
C1872 C1871 1.415 . S
C1873 H1849 0.951 . S
C1873 C1874 1.366 . S
C1873 C1875 1.388 . S
C1874 C1873 1.366 . S
C1874 C1878 1.385 . S
C1875 H1850 0.951 . S
C1875 C1873 1.388 . S
C1875 C1876 1.366 . S
C1876 C1875 1.366 . S
C1876 C1877 1.414 . S
C1876 C1879 1.499 . S
C1877 H1851 0.950 . S
C1877 C1876 1.414 . S
C1877 C1878 1.374 . S
C1878 H1852 0.950 . S
C1878 C1874 1.385 . S
C1878 C1877 1.374 . S
C1879 C1876 1.499 . S
C1879 C1880 1.373 . S
C1879 C1881 1.389 . S
C1880 H1853 0.950 . S
C1880 C1866 1.377 . S
C1880 C1879 1.373 . S
C1881 C1865 1.377 . S
C1881 C1879 1.389 . S
C1881 C1882 1.524 . S
C1882 C1881 1.524 . S
C1882 C1883 1.397 . S
C1882 C1887 1.363 . S
C1883 H1854 0.950 . S
C1883 C1882 1.397 . S
C1883 C1884 1.334 . S
C1884 H1855 0.950 . S
C1884 C1883 1.334 . S
C1884 C1885 1.287 . S
C1885 C1884 1.287 . S
C1885 C1886 1.524 . S
C1885 H1888 0.999 . S
C1886 H1856 0.950 . S
C1886 C1885 1.524 . S
C1886 C1887 1.415 . S
C1887 H1857 0.950 . S
C1887 C1882 1.363 . S
C1887 C1886 1.415 . S
H1888 C1885 0.999 . S
H1889 C1870 0.913 . S
H1890 C1908 0.951 . S
H1891 C1910 0.951 . S
H1892 C1912 0.950 . S
H1893 C1913 0.950 . S
H1894 C1915 0.950 . S
H1895 C1918 0.950 . S
H1896 C1919 0.950 . S
H1897 C1921 0.950 . S
H1898 C1922 0.950 . S
H1899 C1923 0.951 . S
H1900 C1925 0.951 . S
H1901 C1927 0.950 . S
H1902 C1928 0.950 . S
H1903 C1930 0.950 . S
H1904 C1933 0.950 . S
H1905 C1934 0.950 . S
H1906 C1936 0.950 . S
H1907 C1937 0.950 . S
C1908 H1890 0.951 . S
C1908 C1909 1.366 . S
C1908 C1910 1.388 . S
C1909 C1908 1.366 . S
C1909 C1913 1.385 . S
C1910 H1891 0.951 . S
C1910 C1908 1.388 . S
C1910 C1911 1.366 . S
C1911 C1910 1.366 . S
C1911 C1912 1.414 . S
C1911 C1914 1.499 . S
C1912 H1892 0.950 . S
C1912 C1911 1.414 . S
C1912 C1913 1.374 . S
C1913 H1893 0.950 . S
C1913 C1909 1.385 . S
C1913 C1912 1.374 . S
C1914 C1911 1.499 . S
C1914 C1915 1.373 . S
C1914 C1916 1.389 . S
C1915 H1894 0.950 . S
C1915 C1914 1.373 . S
C1915 C1931 1.377 . S
C1916 C1914 1.389 . S
C1916 C1917 1.524 . S
C1916 C1930 1.377 . S
C1917 C1916 1.524 . S
C1917 C1918 1.397 . S
C1917 C1922 1.363 . S
C1918 H1895 0.950 . S
C1918 C1917 1.397 . S
C1918 C1919 1.334 . S
C1919 H1896 0.950 . S
C1919 C1918 1.334 . S
C1919 C1920 1.287 . S
C1920 C1919 1.287 . S
C1920 C1921 1.524 . S
C1920 H1939 0.913 . S
C1921 H1897 0.950 . S
C1921 C1920 1.524 . S
C1921 C1922 1.415 . S
C1922 H1898 0.950 . S
C1922 C1917 1.363 . S
C1922 C1921 1.415 . S
C1923 H1899 0.951 . S
C1923 C1924 1.366 . S
C1923 C1925 1.388 . S
C1924 C1923 1.366 . S
C1924 C1928 1.385 . S
C1925 H1900 0.951 . S
C1925 C1923 1.388 . S
C1925 C1926 1.366 . S
C1926 C1925 1.366 . S
C1926 C1927 1.414 . S
C1926 C1929 1.499 . S
C1927 H1901 0.950 . S
C1927 C1926 1.414 . S
C1927 C1928 1.374 . S
C1928 H1902 0.950 . S
C1928 C1924 1.385 . S
C1928 C1927 1.374 . S
C1929 C1926 1.499 . S
C1929 C1930 1.373 . S
C1929 C1931 1.389 . S
C1930 H1903 0.950 . S
C1930 C1916 1.377 . S
C1930 C1929 1.373 . S
C1931 C1915 1.377 . S
C1931 C1929 1.389 . S
C1931 C1932 1.524 . S
C1932 C1931 1.524 . S
C1932 C1933 1.397 . S
C1932 C1937 1.363 . S
C1933 H1904 0.950 . S
C1933 C1932 1.397 . S
C1933 C1934 1.334 . S
C1934 H1905 0.950 . S
C1934 C1933 1.334 . S
C1934 C1935 1.287 . S
C1935 C1934 1.287 . S
C1935 C1936 1.524 . S
C1935 H1938 0.999 . S
C1936 H1906 0.950 . S
C1936 C1935 1.524 . S
C1936 C1937 1.415 . S
C1937 H1907 0.950 . S
C1937 C1932 1.363 . S
C1937 C1936 1.415 . S
H1938 C1935 0.999 . S
H1939 C1920 0.913 . S
H1940 C1958 0.951 . S
H1941 C1960 0.951 . S
H1942 C1962 0.950 . S
H1943 C1963 0.950 . S
H1944 C1965 0.950 . S
H1945 C1968 0.950 . S
H1946 C1969 0.950 . S
H1947 C1971 0.950 . S
H1948 C1972 0.950 . S
H1949 C1973 0.951 . S
H1950 C1975 0.951 . S
H1951 C1977 0.950 . S
H1952 C1978 0.950 . S
H1953 C1980 0.950 . S
H1954 C1983 0.950 . S
H1955 C1984 0.950 . S
H1956 C1986 0.950 . S
H1957 C1987 0.950 . S
C1958 H1940 0.951 . S
C1958 C1959 1.366 . S
C1958 C1960 1.388 . S
C1959 C1958 1.366 . S
C1959 C1963 1.385 . S
C1960 H1941 0.951 . S
C1960 C1958 1.388 . S
C1960 C1961 1.366 . S
C1961 C1960 1.366 . S
C1961 C1962 1.414 . S
C1961 C1964 1.499 . S
C1962 H1942 0.950 . S
C1962 C1961 1.414 . S
C1962 C1963 1.374 . S
C1963 H1943 0.950 . S
C1963 C1959 1.385 . S
C1963 C1962 1.374 . S
C1964 C1961 1.499 . S
C1964 C1965 1.373 . S
C1964 C1966 1.389 . S
C1965 H1944 0.950 . S
C1965 C1964 1.373 . S
C1965 C1981 1.377 . S
C1966 C1964 1.389 . S
C1966 C1967 1.524 . S
C1966 C1980 1.377 . S
C1967 C1966 1.524 . S
C1967 C1968 1.397 . S
C1967 C1972 1.363 . S
C1968 H1945 0.950 . S
C1968 C1967 1.397 . S
C1968 C1969 1.334 . S
C1969 H1946 0.950 . S
C1969 C1968 1.334 . S
C1969 C1970 1.287 . S
C1970 C1969 1.287 . S
C1970 C1971 1.524 . S
C1970 H1989 0.913 . S
C1971 H1947 0.950 . S
C1971 C1970 1.524 . S
C1971 C1972 1.415 . S
C1972 H1948 0.950 . S
C1972 C1967 1.363 . S
C1972 C1971 1.415 . S
C1973 H1949 0.951 . S
C1973 C1974 1.366 . S
C1973 C1975 1.388 . S
C1974 C1973 1.366 . S
C1974 C1978 1.385 . S
C1975 H1950 0.951 . S
C1975 C1973 1.388 . S
C1975 C1976 1.366 . S
C1976 C1975 1.366 . S
C1976 C1977 1.414 . S
C1976 C1979 1.499 . S
C1977 H1951 0.950 . S
C1977 C1976 1.414 . S
C1977 C1978 1.374 . S
C1978 H1952 0.950 . S
C1978 C1974 1.385 . S
C1978 C1977 1.374 . S
C1979 C1976 1.499 . S
C1979 C1980 1.373 . S
C1979 C1981 1.389 . S
C1980 H1953 0.950 . S
C1980 C1966 1.377 . S
C1980 C1979 1.373 . S
C1981 C1965 1.377 . S
C1981 C1979 1.389 . S
C1981 C1982 1.524 . S
C1982 C1981 1.524 . S
C1982 C1983 1.397 . S
C1982 C1987 1.363 . S
C1983 H1954 0.950 . S
C1983 C1982 1.397 . S
C1983 C1984 1.334 . S
C1984 H1955 0.950 . S
C1984 C1983 1.334 . S
C1984 C1985 1.287 . S
C1985 C1984 1.287 . S
C1985 C1986 1.524 . S
C1985 H1988 0.999 . S
C1986 H1956 0.950 . S
C1986 C1985 1.524 . S
C1986 C1987 1.415 . S
C1987 H1957 0.950 . S
C1987 C1982 1.363 . S
C1987 C1986 1.415 . S
H1988 C1985 0.999 . S
H1989 C1970 0.913 . S
H1990 C2008 0.951 . S
H1991 C2010 0.951 . S
H1992 C2012 0.950 . S
H1993 C2013 0.950 . S
H1994 C2015 0.950 . S
H1995 C2018 0.950 . S
H1996 C2019 0.950 . S
H1997 C2021 0.950 . S
H1998 C2022 0.950 . S
H1999 C2023 0.951 . S
H2000 C2025 0.951 . S
H2001 C2027 0.950 . S
H2002 C2028 0.950 . S
H2003 C2030 0.950 . S
H2004 C2033 0.950 . S
H2005 C2034 0.950 . S
H2006 C2036 0.950 . S
H2007 C2037 0.950 . S
C2008 H1990 0.951 . S
C2008 C2009 1.366 . S
C2008 C2010 1.388 . S
C2009 C2008 1.366 . S
C2009 C2013 1.385 . S
C2010 H1991 0.951 . S
C2010 C2008 1.388 . S
C2010 C2011 1.366 . S
C2011 C2010 1.366 . S
C2011 C2012 1.414 . S
C2011 C2014 1.499 . S
C2012 H1992 0.950 . S
C2012 C2011 1.414 . S
C2012 C2013 1.374 . S
C2013 H1993 0.950 . S
C2013 C2009 1.385 . S
C2013 C2012 1.374 . S
C2014 C2011 1.499 . S
C2014 C2015 1.373 . S
C2014 C2016 1.389 . S
C2015 H1994 0.950 . S
C2015 C2014 1.373 . S
C2015 C2031 1.377 . S
C2016 C2014 1.389 . S
C2016 C2017 1.524 . S
C2016 C2030 1.377 . S
C2017 C2016 1.524 . S
C2017 C2018 1.397 . S
C2017 C2022 1.363 . S
C2018 H1995 0.950 . S
C2018 C2017 1.397 . S
C2018 C2019 1.334 . S
C2019 H1996 0.950 . S
C2019 C2018 1.334 . S
C2019 C2020 1.287 . S
C2020 C2019 1.287 . S
C2020 C2021 1.524 . S
C2020 H2039 0.913 . S
C2021 H1997 0.950 . S
C2021 C2020 1.524 . S
C2021 C2022 1.415 . S
C2022 H1998 0.950 . S
C2022 C2017 1.363 . S
C2022 C2021 1.415 . S
C2023 H1999 0.951 . S
C2023 C2024 1.366 . S
C2023 C2025 1.388 . S
C2024 C2023 1.366 . S
C2024 C2028 1.385 . S
C2025 H2000 0.951 . S
C2025 C2023 1.388 . S
C2025 C2026 1.366 . S
C2026 C2025 1.366 . S
C2026 C2027 1.414 . S
C2026 C2029 1.499 . S
C2027 H2001 0.950 . S
C2027 C2026 1.414 . S
C2027 C2028 1.374 . S
C2028 H2002 0.950 . S
C2028 C2024 1.385 . S
C2028 C2027 1.374 . S
C2029 C2026 1.499 . S
C2029 C2030 1.373 . S
C2029 C2031 1.389 . S
C2030 H2003 0.950 . S
C2030 C2016 1.377 . S
C2030 C2029 1.373 . S
C2031 C2015 1.377 . S
C2031 C2029 1.389 . S
C2031 C2032 1.524 . S
C2032 C2031 1.524 . S
C2032 C2033 1.397 . S
C2032 C2037 1.363 . S
C2033 H2004 0.950 . S
C2033 C2032 1.397 . S
C2033 C2034 1.334 . S
C2034 H2005 0.950 . S
C2034 C2033 1.334 . S
C2034 C2035 1.287 . S
C2035 C2034 1.287 . S
C2035 C2036 1.524 . S
C2035 H2038 0.999 . S
C2036 H2006 0.950 . S
C2036 C2035 1.524 . S
C2036 C2037 1.415 . S
C2037 H2007 0.950 . S
C2037 C2032 1.363 . S
C2037 C2036 1.415 . S
H2038 C2035 0.999 . S
H2039 C2020 0.913 . S
H2040 C2058 0.951 . S
H2041 C2060 0.951 . S
H2042 C2062 0.950 1_565 S
H2043 C2063 0.950 . S
H2044 C2065 0.950 . S
H2045 C2068 0.950 . S
H2046 C2069 0.950 1_545 S
H2047 C2071 0.950 . S
H2048 C2072 0.950 . S
H2049 C2073 0.951 . S
H2050 C2075 0.951 . S
H2051 C2077 0.950 . S
H2052 C2078 0.950 . S
H2053 C2080 0.950 . S
H2054 C2083 0.950 . S
H2055 C2084 0.950 . S
H2056 C2086 0.950 . S
H2057 C2087 0.950 . S
C2058 H2040 0.951 . S
C2058 C2059 1.366 . S
C2058 C2060 1.388 . S
C2059 C2058 1.366 . S
C2059 C2063 1.385 . S
C2060 H2041 0.951 . S
C2060 C2058 1.388 . S
C2060 C2061 1.366 1_545 S
C2061 C2060 1.366 1_565 S
C2061 C2062 1.414 1_565 S
C2061 C2064 1.499 . S
C2062 H2042 0.950 1_545 S
C2062 C2061 1.414 1_545 S
C2062 C2063 1.374 . S
C2063 H2043 0.950 . S
C2063 C2059 1.385 . S
C2063 C2062 1.374 . S
C2064 C2061 1.499 . S
C2064 C2065 1.373 . S
C2064 C2066 1.389 . S
C2065 H2044 0.950 . S
C2065 C2064 1.373 . S
C2065 C2081 1.377 . S
C2066 C2064 1.389 . S
C2066 C2067 1.524 . S
C2066 C2080 1.377 . S
C2067 C2066 1.524 . S
C2067 C2068 1.397 . S
C2067 C2072 1.363 . S
C2068 H2045 0.950 . S
C2068 C2067 1.397 . S
C2068 C2069 1.334 . S
C2069 H2046 0.950 1_565 S
C2069 C2068 1.334 . S
C2069 C2070 1.286 . S
C2070 C2069 1.286 . S
C2070 C2071 1.524 . S
C2070 H2089 0.915 1_565 S
C2071 H2047 0.950 . S
C2071 C2070 1.524 . S
C2071 C2072 1.415 . S
C2072 H2048 0.950 . S
C2072 C2067 1.363 . S
C2072 C2071 1.415 . S
C2073 H2049 0.951 . S
C2073 C2074 1.366 . S
C2073 C2075 1.388 . S
C2074 C2073 1.366 . S
C2074 C2078 1.385 . S
C2075 H2050 0.951 . S
C2075 C2073 1.388 . S
C2075 C2076 1.366 . S
C2076 C2075 1.366 . S
C2076 C2077 1.414 . S
C2076 C2079 1.499 . S
C2077 H2051 0.950 . S
C2077 C2076 1.414 . S
C2077 C2078 1.374 . S
C2078 H2052 0.950 . S
C2078 C2074 1.385 . S
C2078 C2077 1.374 . S
C2079 C2076 1.499 . S
C2079 C2080 1.373 . S
C2079 C2081 1.389 . S
C2080 H2053 0.950 . S
C2080 C2066 1.377 . S
C2080 C2079 1.373 . S
C2081 C2065 1.377 . S
C2081 C2079 1.389 . S
C2081 C2082 1.524 . S
C2082 C2081 1.524 . S
C2082 C2083 1.397 . S
C2082 C2087 1.363 . S
C2083 H2054 0.950 . S
C2083 C2082 1.397 . S
C2083 C2084 1.334 . S
C2084 H2055 0.950 . S
C2084 C2083 1.334 . S
C2084 C2085 1.287 . S
C2085 C2084 1.287 . S
C2085 C2086 1.524 . S
C2085 H2088 0.999 . S
C2086 H2056 0.950 . S
C2086 C2085 1.524 . S
C2086 C2087 1.415 . S
C2087 H2057 0.950 . S
C2087 C2082 1.363 . S
C2087 C2086 1.415 . S
H2088 C2085 0.999 . S
H2089 C2070 0.915 1_545 S
H2090 C2108 0.951 . S
H2091 C2110 0.951 . S
H2092 C2112 0.950 . S
H2093 C2113 0.950 . S
H2094 C2115 0.950 . S
H2095 C2118 0.950 . S
H2096 C2119 0.950 . S
H2097 C2121 0.950 . S
H2098 C2122 0.950 . S
H2099 C2123 0.951 . S
H2100 C2125 0.951 . S
H2101 C2127 0.950 . S
H2102 C2128 0.950 . S
H2103 C2130 0.950 . S
H2104 C2133 0.950 . S
H2105 C2134 0.950 . S
H2106 C2136 0.950 . S
H2107 C2137 0.950 . S
C2108 H2090 0.951 . S
C2108 C2109 1.366 . S
C2108 C2110 1.388 1_655 S
C2109 C2108 1.366 . S
C2109 C2113 1.385 . S
C2110 H2091 0.951 . S
C2110 C2108 1.388 1_455 S
C2110 C2111 1.366 . S
C2111 C2110 1.366 . S
C2111 C2112 1.414 . S
C2111 C2114 1.499 . S
C2112 H2092 0.950 . S
C2112 C2111 1.414 . S
C2112 C2113 1.374 1_455 S
C2113 H2093 0.950 . S
C2113 C2109 1.385 . S
C2113 C2112 1.374 1_655 S
C2114 C2111 1.499 . S
C2114 C2115 1.373 . S
C2114 C2116 1.389 . S
C2115 H2094 0.950 . S
C2115 C2114 1.373 . S
C2115 C2131 1.377 . S
C2116 C2114 1.389 . S
C2116 C2117 1.524 . S
C2116 C2130 1.377 . S
C2117 C2116 1.524 . S
C2117 C2118 1.397 . S
C2117 C2122 1.363 . S
C2118 H2095 0.950 . S
C2118 C2117 1.397 . S
C2118 C2119 1.334 . S
C2119 H2096 0.950 . S
C2119 C2118 1.334 . S
C2119 C2120 1.287 . S
C2120 C2119 1.287 . S
C2120 C2121 1.524 . S
C2120 H2139 0.913 . S
C2121 H2097 0.950 . S
C2121 C2120 1.524 . S
C2121 C2122 1.415 . S
C2122 H2098 0.950 . S
C2122 C2117 1.363 . S
C2122 C2121 1.415 . S
C2123 H2099 0.951 . S
C2123 C2124 1.366 . S
C2123 C2125 1.388 . S
C2124 C2123 1.366 . S
C2124 C2128 1.385 . S
C2125 H2100 0.951 . S
C2125 C2123 1.388 . S
C2125 C2126 1.366 . S
C2126 C2125 1.366 . S
C2126 C2127 1.414 . S
C2126 C2129 1.499 . S
C2127 H2101 0.950 . S
C2127 C2126 1.414 . S
C2127 C2128 1.374 . S
C2128 H2102 0.950 . S
C2128 C2124 1.385 . S
C2128 C2127 1.374 . S
C2129 C2126 1.499 . S
C2129 C2130 1.373 . S
C2129 C2131 1.389 . S
C2130 H2103 0.950 . S
C2130 C2116 1.377 . S
C2130 C2129 1.373 . S
C2131 C2115 1.377 . S
C2131 C2129 1.389 . S
C2131 C2132 1.524 . S
C2132 C2131 1.524 . S
C2132 C2133 1.397 . S
C2132 C2137 1.363 . S
C2133 H2104 0.950 . S
C2133 C2132 1.397 . S
C2133 C2134 1.334 . S
C2134 H2105 0.950 . S
C2134 C2133 1.334 . S
C2134 C2135 1.287 . S
C2135 C2134 1.287 . S
C2135 C2136 1.524 . S
C2135 H2138 0.999 . S
C2136 H2106 0.950 . S
C2136 C2135 1.524 . S
C2136 C2137 1.415 . S
C2137 H2107 0.950 . S
C2137 C2132 1.363 . S
C2137 C2136 1.415 . S
H2138 C2135 0.999 . S
H2139 C2120 0.913 . S
H2140 C2158 0.951 . S
H2141 C2160 0.951 . S
H2142 C2162 0.950 . S
H2143 C2163 0.950 . S
H2144 C2165 0.950 . S
H2145 C2168 0.950 . S
H2146 C2169 0.950 . S
H2147 C2171 0.950 . S
H2148 C2172 0.950 . S
H2149 C2173 0.951 . S
H2150 C2175 0.951 . S
H2151 C2177 0.950 . S
H2152 C2178 0.950 . S
H2153 C2180 0.950 . S
H2154 C2183 0.950 . S
H2155 C2184 0.950 . S
H2156 C2186 0.950 . S
H2157 C2187 0.950 . S
C2158 H2140 0.951 . S
C2158 C2159 1.366 . S
C2158 C2160 1.388 . S
C2159 C2158 1.366 . S
C2159 C2163 1.385 . S
C2160 H2141 0.951 . S
C2160 C2158 1.388 . S
C2160 C2161 1.366 . S
C2161 C2160 1.366 . S
C2161 C2162 1.414 . S
C2161 C2164 1.499 . S
C2162 H2142 0.950 . S
C2162 C2161 1.414 . S
C2162 C2163 1.374 . S
C2163 H2143 0.950 . S
C2163 C2159 1.385 . S
C2163 C2162 1.374 . S
C2164 C2161 1.499 . S
C2164 C2165 1.373 . S
C2164 C2166 1.389 . S
C2165 H2144 0.950 . S
C2165 C2164 1.373 . S
C2165 C2181 1.377 . S
C2166 C2164 1.389 . S
C2166 C2167 1.524 . S
C2166 C2180 1.377 . S
C2167 C2166 1.524 . S
C2167 C2168 1.397 . S
C2167 C2172 1.363 . S
C2168 H2145 0.950 . S
C2168 C2167 1.397 . S
C2168 C2169 1.334 . S
C2169 H2146 0.950 . S
C2169 C2168 1.334 . S
C2169 C2170 1.287 . S
C2170 C2169 1.287 . S
C2170 C2171 1.524 . S
C2170 H2189 0.913 . S
C2171 H2147 0.950 . S
C2171 C2170 1.524 . S
C2171 C2172 1.415 . S
C2172 H2148 0.950 . S
C2172 C2167 1.363 . S
C2172 C2171 1.415 . S
C2173 H2149 0.951 . S
C2173 C2174 1.366 . S
C2173 C2175 1.388 . S
C2174 C2173 1.366 . S
C2174 C2178 1.385 . S
C2175 H2150 0.951 . S
C2175 C2173 1.388 . S
C2175 C2176 1.366 . S
C2176 C2175 1.366 . S
C2176 C2177 1.414 . S
C2176 C2179 1.499 . S
C2177 H2151 0.950 . S
C2177 C2176 1.414 . S
C2177 C2178 1.374 . S
C2178 H2152 0.950 . S
C2178 C2174 1.385 . S
C2178 C2177 1.374 . S
C2179 C2176 1.499 . S
C2179 C2180 1.373 . S
C2179 C2181 1.389 . S
C2180 H2153 0.950 . S
C2180 C2166 1.377 . S
C2180 C2179 1.373 . S
C2181 C2165 1.377 . S
C2181 C2179 1.389 . S
C2181 C2182 1.524 . S
C2182 C2181 1.524 . S
C2182 C2183 1.397 . S
C2182 C2187 1.363 . S
C2183 H2154 0.950 . S
C2183 C2182 1.397 . S
C2183 C2184 1.334 . S
C2184 H2155 0.950 . S
C2184 C2183 1.334 . S
C2184 C2185 1.287 . S
C2185 C2184 1.287 . S
C2185 C2186 1.524 . S
C2185 H2188 0.999 . S
C2186 H2156 0.950 . S
C2186 C2185 1.524 . S
C2186 C2187 1.415 . S
C2187 H2157 0.950 . S
C2187 C2182 1.363 . S
C2187 C2186 1.415 . S
H2188 C2185 0.999 . S
H2189 C2170 0.913 . S
H2190 C2208 0.951 . S
H2191 C2210 0.951 . S
H2192 C2212 0.950 . S
H2193 C2213 0.950 . S
H2194 C2215 0.950 . S
H2195 C2218 0.950 . S
H2196 C2219 0.950 . S
H2197 C2221 0.950 . S
H2198 C2222 0.950 . S
H2199 C2223 0.951 . S
H2200 C2225 0.951 . S
H2201 C2227 0.950 . S
H2202 C2228 0.950 . S
H2203 C2230 0.950 . S
H2204 C2233 0.950 . S
H2205 C2234 0.950 . S
H2206 C2236 0.950 . S
H2207 C2237 0.950 . S
C2208 H2190 0.951 . S
C2208 C2209 1.366 . S
C2208 C2210 1.388 . S
C2209 C2208 1.366 . S
C2209 C2213 1.385 . S
C2210 H2191 0.951 . S
C2210 C2208 1.388 . S
C2210 C2211 1.366 . S
C2211 C2210 1.366 . S
C2211 C2212 1.414 . S
C2211 C2214 1.499 . S
C2212 H2192 0.950 . S
C2212 C2211 1.414 . S
C2212 C2213 1.374 . S
C2213 H2193 0.950 . S
C2213 C2209 1.385 . S
C2213 C2212 1.374 . S
C2214 C2211 1.499 . S
C2214 C2215 1.373 . S
C2214 C2216 1.389 . S
C2215 H2194 0.950 . S
C2215 C2214 1.373 . S
C2215 C2231 1.377 . S
C2216 C2214 1.389 . S
C2216 C2217 1.524 . S
C2216 C2230 1.377 . S
C2217 C2216 1.524 . S
C2217 C2218 1.397 . S
C2217 C2222 1.363 . S
C2218 H2195 0.950 . S
C2218 C2217 1.397 . S
C2218 C2219 1.334 . S
C2219 H2196 0.950 . S
C2219 C2218 1.334 . S
C2219 C2220 1.287 . S
C2220 C2219 1.287 . S
C2220 C2221 1.524 . S
C2220 H2239 0.913 . S
C2221 H2197 0.950 . S
C2221 C2220 1.524 . S
C2221 C2222 1.415 . S
C2222 H2198 0.950 . S
C2222 C2217 1.363 . S
C2222 C2221 1.415 . S
C2223 H2199 0.951 . S
C2223 C2224 1.366 . S
C2223 C2225 1.388 . S
C2224 C2223 1.366 . S
C2224 C2228 1.385 . S
C2225 H2200 0.951 . S
C2225 C2223 1.388 . S
C2225 C2226 1.366 . S
C2226 C2225 1.366 . S
C2226 C2227 1.414 . S
C2226 C2229 1.499 . S
C2227 H2201 0.950 . S
C2227 C2226 1.414 . S
C2227 C2228 1.374 . S
C2228 H2202 0.950 . S
C2228 C2224 1.385 . S
C2228 C2227 1.374 . S
C2229 C2226 1.499 . S
C2229 C2230 1.373 . S
C2229 C2231 1.389 . S
C2230 H2203 0.950 . S
C2230 C2216 1.377 . S
C2230 C2229 1.373 . S
C2231 C2215 1.377 . S
C2231 C2229 1.389 . S
C2231 C2232 1.524 . S
C2232 C2231 1.524 . S
C2232 C2233 1.397 . S
C2232 C2237 1.363 . S
C2233 H2204 0.950 . S
C2233 C2232 1.397 . S
C2233 C2234 1.334 . S
C2234 H2205 0.950 . S
C2234 C2233 1.334 . S
C2234 C2235 1.287 . S
C2235 C2234 1.287 . S
C2235 C2236 1.524 . S
C2235 H2238 0.999 . S
C2236 H2206 0.950 . S
C2236 C2235 1.524 . S
C2236 C2237 1.415 . S
C2237 H2207 0.950 . S
C2237 C2232 1.363 . S
C2237 C2236 1.415 . S
H2238 C2235 0.999 . S
H2239 C2220 0.913 . S
H2240 C2258 0.951 . S
H2241 C2260 0.951 . S
H2242 C2262 0.950 . S
H2243 C2263 0.950 . S
H2244 C2265 0.950 . S
H2245 C2268 0.950 . S
H2246 C2269 0.950 . S
H2247 C2271 0.950 . S
H2248 C2272 0.950 . S
H2249 C2273 0.951 . S
H2250 C2275 0.951 . S
H2251 C2277 0.950 . S
H2252 C2278 0.950 . S
H2253 C2280 0.950 . S
H2254 C2283 0.950 . S
H2255 C2284 0.950 . S
H2256 C2286 0.950 . S
H2257 C2287 0.950 . S
C2258 H2240 0.951 . S
C2258 C2259 1.366 . S
C2258 C2260 1.388 . S
C2259 C2258 1.366 . S
C2259 C2263 1.385 . S
C2260 H2241 0.951 . S
C2260 C2258 1.388 . S
C2260 C2261 1.366 . S
C2261 C2260 1.366 . S
C2261 C2262 1.414 . S
C2261 C2264 1.499 . S
C2262 H2242 0.950 . S
C2262 C2261 1.414 . S
C2262 C2263 1.374 . S
C2263 H2243 0.950 . S
C2263 C2259 1.385 . S
C2263 C2262 1.374 . S
C2264 C2261 1.499 . S
C2264 C2265 1.373 . S
C2264 C2266 1.389 . S
C2265 H2244 0.950 . S
C2265 C2264 1.373 . S
C2265 C2281 1.377 . S
C2266 C2264 1.389 . S
C2266 C2267 1.524 . S
C2266 C2280 1.377 . S
C2267 C2266 1.524 . S
C2267 C2268 1.397 . S
C2267 C2272 1.363 . S
C2268 H2245 0.950 . S
C2268 C2267 1.397 . S
C2268 C2269 1.334 . S
C2269 H2246 0.950 . S
C2269 C2268 1.334 . S
C2269 C2270 1.287 . S
C2270 C2269 1.287 . S
C2270 C2271 1.524 . S
C2270 H2289 0.913 . S
C2271 H2247 0.950 . S
C2271 C2270 1.524 . S
C2271 C2272 1.415 . S
C2272 H2248 0.950 . S
C2272 C2267 1.363 . S
C2272 C2271 1.415 . S
C2273 H2249 0.951 . S
C2273 C2274 1.366 . S
C2273 C2275 1.388 . S
C2274 C2273 1.366 . S
C2274 C2278 1.385 . S
C2275 H2250 0.951 . S
C2275 C2273 1.388 . S
C2275 C2276 1.366 . S
C2276 C2275 1.366 . S
C2276 C2277 1.414 . S
C2276 C2279 1.499 . S
C2277 H2251 0.950 . S
C2277 C2276 1.414 . S
C2277 C2278 1.374 . S
C2278 H2252 0.950 . S
C2278 C2274 1.385 . S
C2278 C2277 1.374 . S
C2279 C2276 1.499 . S
C2279 C2280 1.373 . S
C2279 C2281 1.389 . S
C2280 H2253 0.950 . S
C2280 C2266 1.377 . S
C2280 C2279 1.373 . S
C2281 C2265 1.377 . S
C2281 C2279 1.389 . S
C2281 C2282 1.524 . S
C2282 C2281 1.524 . S
C2282 C2283 1.397 . S
C2282 C2287 1.363 . S
C2283 H2254 0.950 . S
C2283 C2282 1.397 . S
C2283 C2284 1.334 . S
C2284 H2255 0.950 . S
C2284 C2283 1.334 . S
C2284 C2285 1.287 . S
C2285 C2284 1.287 . S
C2285 C2286 1.524 . S
C2285 H2288 0.999 . S
C2286 H2256 0.950 . S
C2286 C2285 1.524 . S
C2286 C2287 1.415 . S
C2287 H2257 0.950 . S
C2287 C2282 1.363 . S
C2287 C2286 1.415 . S
H2288 C2285 0.999 . S
H2289 C2270 0.913 . S
H2290 C2308 0.951 . S
H2291 C2310 0.951 . S
H2292 C2312 0.950 . S
H2293 C2313 0.950 . S
H2294 C2315 0.950 . S
H2295 C2318 0.950 . S
H2296 C2319 0.950 . S
H2297 C2321 0.950 . S
H2298 C2322 0.950 . S
H2299 C2323 0.951 . S
H2300 C2325 0.951 . S
H2301 C2327 0.950 . S
H2302 C2328 0.950 . S
H2303 C2330 0.950 . S
H2304 C2333 0.950 . S
H2305 C2334 0.950 . S
H2306 C2336 0.950 . S
H2307 C2337 0.950 . S
C2308 H2290 0.951 . S
C2308 C2309 1.366 . S
C2308 C2310 1.388 . S
C2309 C2308 1.366 . S
C2309 C2313 1.385 . S
C2310 H2291 0.951 . S
C2310 C2308 1.388 . S
C2310 C2311 1.366 . S
C2311 C2310 1.366 . S
C2311 C2312 1.414 . S
C2311 C2314 1.499 . S
C2312 H2292 0.950 . S
C2312 C2311 1.414 . S
C2312 C2313 1.374 . S
C2313 H2293 0.950 . S
C2313 C2309 1.385 . S
C2313 C2312 1.374 . S
C2314 C2311 1.499 . S
C2314 C2315 1.373 . S
C2314 C2316 1.389 . S
C2315 H2294 0.950 . S
C2315 C2314 1.373 . S
C2315 C2331 1.377 . S
C2316 C2314 1.389 . S
C2316 C2317 1.524 . S
C2316 C2330 1.377 . S
C2317 C2316 1.524 . S
C2317 C2318 1.397 . S
C2317 C2322 1.363 . S
C2318 H2295 0.950 . S
C2318 C2317 1.397 . S
C2318 C2319 1.334 . S
C2319 H2296 0.950 . S
C2319 C2318 1.334 . S
C2319 C2320 1.287 . S
C2320 C2319 1.287 . S
C2320 C2321 1.524 . S
C2320 H2339 0.913 . S
C2321 H2297 0.950 . S
C2321 C2320 1.524 . S
C2321 C2322 1.415 . S
C2322 H2298 0.950 . S
C2322 C2317 1.363 . S
C2322 C2321 1.415 . S
C2323 H2299 0.951 . S
C2323 C2324 1.366 . S
C2323 C2325 1.388 . S
C2324 C2323 1.366 . S
C2324 C2328 1.385 . S
C2325 H2300 0.951 . S
C2325 C2323 1.388 . S
C2325 C2326 1.366 . S
C2326 C2325 1.366 . S
C2326 C2327 1.414 . S
C2326 C2329 1.499 . S
C2327 H2301 0.950 . S
C2327 C2326 1.414 . S
C2327 C2328 1.374 . S
C2328 H2302 0.950 . S
C2328 C2324 1.385 . S
C2328 C2327 1.374 . S
C2329 C2326 1.499 . S
C2329 C2330 1.373 . S
C2329 C2331 1.389 . S
C2330 H2303 0.950 . S
C2330 C2316 1.377 . S
C2330 C2329 1.373 . S
C2331 C2315 1.377 . S
C2331 C2329 1.389 . S
C2331 C2332 1.524 . S
C2332 C2331 1.524 . S
C2332 C2333 1.397 . S
C2332 C2337 1.363 . S
C2333 H2304 0.950 . S
C2333 C2332 1.397 . S
C2333 C2334 1.334 . S
C2334 H2305 0.950 . S
C2334 C2333 1.334 . S
C2334 C2335 1.287 . S
C2335 C2334 1.287 . S
C2335 C2336 1.524 . S
C2335 H2338 0.999 . S
C2336 H2306 0.950 . S
C2336 C2335 1.524 . S
C2336 C2337 1.415 . S
C2337 H2307 0.950 . S
C2337 C2332 1.363 . S
C2337 C2336 1.415 . S
H2338 C2335 0.999 . S
H2339 C2320 0.913 . S
H2340 C2358 0.951 . S
H2341 C2360 0.951 . S
H2342 C2362 0.950 . S
H2343 C2363 0.950 . S
H2344 C2365 0.950 . S
H2345 C2368 0.950 . S
H2346 C2369 0.950 . S
H2347 C2371 0.950 . S
H2348 C2372 0.950 . S
H2349 C2373 0.951 . S
H2350 C2375 0.951 . S
H2351 C2377 0.950 . S
H2352 C2378 0.950 . S
H2353 C2380 0.950 . S
H2354 C2383 0.950 . S
H2355 C2384 0.950 . S
H2356 C2386 0.950 . S
H2357 C2387 0.950 . S
C2358 H2340 0.951 . S
C2358 C2359 1.366 . S
C2358 C2360 1.388 . S
C2359 C2358 1.366 . S
C2359 C2363 1.385 . S
C2360 H2341 0.951 . S
C2360 C2358 1.388 . S
C2360 C2361 1.366 . S
C2361 C2360 1.366 . S
C2361 C2362 1.414 . S
C2361 C2364 1.499 . S
C2362 H2342 0.950 . S
C2362 C2361 1.414 . S
C2362 C2363 1.374 . S
C2363 H2343 0.950 . S
C2363 C2359 1.385 . S
C2363 C2362 1.374 . S
C2364 C2361 1.499 . S
C2364 C2365 1.373 1_565 S
C2364 C2366 1.389 . S
C2365 H2344 0.950 . S
C2365 C2364 1.373 1_545 S
C2365 C2381 1.377 . S
C2366 C2364 1.389 . S
C2366 C2367 1.524 . S
C2366 C2380 1.377 1_565 S
C2367 C2366 1.524 . S
C2367 C2368 1.397 . S
C2367 C2372 1.363 . S
C2368 H2345 0.950 . S
C2368 C2367 1.397 . S
C2368 C2369 1.334 . S
C2369 H2346 0.950 . S
C2369 C2368 1.334 . S
C2369 C2370 1.287 . S
C2370 C2369 1.287 . S
C2370 C2371 1.524 . S
C2370 H2389 0.913 . S
C2371 H2347 0.950 . S
C2371 C2370 1.524 . S
C2371 C2372 1.415 . S
C2372 H2348 0.950 . S
C2372 C2367 1.363 . S
C2372 C2371 1.415 . S
C2373 H2349 0.951 . S
C2373 C2374 1.366 . S
C2373 C2375 1.388 . S
C2374 C2373 1.366 . S
C2374 C2378 1.385 . S
C2375 H2350 0.951 . S
C2375 C2373 1.388 . S
C2375 C2376 1.366 . S
C2376 C2375 1.366 . S
C2376 C2377 1.414 . S
C2376 C2379 1.499 . S
C2377 H2351 0.950 . S
C2377 C2376 1.414 . S
C2377 C2378 1.374 . S
C2378 H2352 0.950 . S
C2378 C2374 1.385 . S
C2378 C2377 1.374 . S
C2379 C2376 1.499 . S
C2379 C2380 1.373 . S
C2379 C2381 1.389 . S
C2380 H2353 0.950 . S
C2380 C2366 1.377 1_545 S
C2380 C2379 1.373 . S
C2381 C2365 1.377 . S
C2381 C2379 1.389 . S
C2381 C2382 1.524 . S
C2382 C2381 1.524 . S
C2382 C2383 1.397 . S
C2382 C2387 1.363 . S
C2383 H2354 0.950 . S
C2383 C2382 1.397 . S
C2383 C2384 1.334 . S
C2384 H2355 0.950 . S
C2384 C2383 1.334 . S
C2384 C2385 1.287 . S
C2385 C2384 1.287 . S
C2385 C2386 1.524 . S
C2385 H2388 0.999 . S
C2386 H2356 0.950 . S
C2386 C2385 1.524 . S
C2386 C2387 1.415 . S
C2387 H2357 0.950 . S
C2387 C2382 1.363 . S
C2387 C2386 1.415 . S
H2388 C2385 0.999 . S
H2389 C2370 0.913 . S
H2390 C2408 0.951 . S
H2391 C2410 0.951 . S
H2392 C2412 0.950 . S
H2393 C2413 0.950 . S
H2394 C2415 0.950 . S
H2395 C2418 0.950 . S
H2396 C2419 0.950 . S
H2397 C2421 0.950 . S
H2398 C2422 0.952 . S
H2399 C2423 0.951 . S
H2400 C2425 0.951 . S
H2401 C2427 0.950 . S
H2402 C2428 0.950 . S
H2403 C2430 0.950 . S
H2404 C2433 0.950 . S
H2405 C2434 0.950 . S
H2406 C2436 0.950 . S
H2407 C2437 0.950 . S
C2408 H2390 0.951 . S
C2408 C2409 1.366 . S
C2408 C2410 1.388 . S
C2409 C2408 1.366 . S
C2409 C2413 1.385 . S
C2410 H2391 0.951 . S
C2410 C2408 1.388 . S
C2410 C2411 1.366 . S
C2411 C2410 1.366 . S
C2411 C2412 1.414 . S
C2411 C2414 1.499 . S
C2412 H2392 0.950 . S
C2412 C2411 1.414 . S
C2412 C2413 1.374 . S
C2413 H2393 0.950 . S
C2413 C2409 1.385 . S
C2413 C2412 1.374 . S
C2414 C2411 1.499 . S
C2414 C2415 1.373 . S
C2414 C2416 1.406 . S
C2415 H2394 0.950 . S
C2415 C2414 1.373 . S
C2415 C2431 1.377 1_455 S
C2416 C2414 1.406 . S
C2416 C2417 1.551 . S
C2416 C2430 1.332 1_455 S
C2417 C2416 1.551 . S
C2417 C2418 1.397 . S
C2417 C2422 1.363 . S
C2418 H2395 0.950 . S
C2418 C2417 1.397 . S
C2418 C2419 1.334 . S
C2419 H2396 0.950 . S
C2419 C2418 1.334 . S
C2419 C2420 1.287 . S
C2420 C2419 1.287 . S
C2420 C2421 1.524 . S
C2420 H2439 0.913 . S
C2421 H2397 0.950 . S
C2421 C2420 1.524 . S
C2421 C2422 1.415 . S
C2422 H2398 0.952 . S
C2422 C2417 1.363 . S
C2422 C2421 1.415 . S
C2423 H2399 0.951 . S
C2423 C2424 1.366 . S
C2423 C2425 1.388 . S
C2424 C2423 1.366 . S
C2424 C2428 1.385 . S
C2425 H2400 0.951 . S
C2425 C2423 1.388 . S
C2425 C2426 1.366 . S
C2426 C2425 1.366 . S
C2426 C2427 1.414 . S
C2426 C2429 1.499 . S
C2427 H2401 0.950 . S
C2427 C2426 1.414 . S
C2427 C2428 1.374 . S
C2428 H2402 0.950 . S
C2428 C2424 1.385 . S
C2428 C2427 1.374 . S
C2429 C2426 1.499 . S
C2429 C2430 1.373 . S
C2429 C2431 1.389 . S
C2430 H2403 0.950 . S
C2430 C2416 1.332 1_655 S
C2430 C2429 1.373 . S
C2431 C2415 1.377 1_655 S
C2431 C2429 1.389 . S
C2431 C2432 1.524 . S
C2432 C2431 1.524 . S
C2432 C2433 1.397 . S
C2432 C2437 1.363 . S
C2433 H2404 0.950 . S
C2433 C2432 1.397 . S
C2433 C2434 1.334 . S
C2434 H2405 0.950 . S
C2434 C2433 1.334 . S
C2434 C2435 1.287 . S
C2435 C2434 1.287 . S
C2435 C2436 1.524 . S
C2435 H2438 0.999 . S
C2436 H2406 0.950 . S
C2436 C2435 1.524 . S
C2436 C2437 1.415 . S
C2437 H2407 0.950 . S
C2437 C2432 1.363 . S
C2437 C2436 1.415 . S
H2438 C2435 0.999 . S
H2439 C2420 0.913 . S
H2440 C2458 0.951 . S
H2441 C2460 0.951 . S
H2442 C2462 0.950 . S
H2443 C2463 0.950 . S
H2444 C2465 0.950 . S
H2445 C2468 0.950 . S
H2446 C2469 0.950 . S
H2447 C2471 0.950 . S
H2448 C2472 0.950 . S
H2449 C2473 0.951 . S
H2450 C2475 0.951 . S
H2451 C2477 0.950 . S
H2452 C2478 0.950 . S
H2453 C2480 0.950 . S
H2454 C2483 0.950 . S
H2455 C2484 0.950 . S
H2456 C2486 0.950 . S
H2457 C2487 0.950 . S
C2458 H2440 0.951 . S
C2458 C2459 1.366 . S
C2458 C2460 1.388 . S
C2459 C2458 1.366 . S
C2459 C2463 1.385 . S
C2460 H2441 0.951 . S
C2460 C2458 1.388 . S
C2460 C2461 1.366 . S
C2461 C2460 1.366 . S
C2461 C2462 1.414 . S
C2461 C2464 1.499 . S
C2462 H2442 0.950 . S
C2462 C2461 1.414 . S
C2462 C2463 1.374 . S
C2463 H2443 0.950 . S
C2463 C2459 1.385 . S
C2463 C2462 1.374 . S
C2464 C2461 1.499 . S
C2464 C2465 1.373 . S
C2464 C2466 1.389 . S
C2465 H2444 0.950 . S
C2465 C2464 1.373 . S
C2465 C2481 1.377 . S
C2466 C2464 1.389 . S
C2466 C2467 1.524 . S
C2466 C2480 1.377 . S
C2467 C2466 1.524 . S
C2467 C2468 1.397 . S
C2467 C2472 1.363 . S
C2468 H2445 0.950 . S
C2468 C2467 1.397 . S
C2468 C2469 1.334 . S
C2469 H2446 0.950 . S
C2469 C2468 1.334 . S
C2469 C2470 1.287 . S
C2470 C2469 1.287 . S
C2470 C2471 1.524 . S
C2470 H2489 0.913 . S
C2471 H2447 0.950 . S
C2471 C2470 1.524 . S
C2471 C2472 1.415 . S
C2472 H2448 0.950 . S
C2472 C2467 1.363 . S
C2472 C2471 1.415 . S
C2473 H2449 0.951 . S
C2473 C2474 1.366 . S
C2473 C2475 1.388 . S
C2474 C2473 1.366 . S
C2474 C2478 1.385 . S
C2475 H2450 0.951 . S
C2475 C2473 1.388 . S
C2475 C2476 1.366 . S
C2476 C2475 1.366 . S
C2476 C2477 1.414 . S
C2476 C2479 1.499 . S
C2477 H2451 0.950 . S
C2477 C2476 1.414 . S
C2477 C2478 1.374 . S
C2478 H2452 0.950 . S
C2478 C2474 1.385 . S
C2478 C2477 1.374 . S
C2479 C2476 1.499 . S
C2479 C2480 1.373 . S
C2479 C2481 1.389 . S
C2480 H2453 0.950 . S
C2480 C2466 1.377 . S
C2480 C2479 1.373 . S
C2481 C2465 1.377 . S
C2481 C2479 1.389 . S
C2481 C2482 1.524 . S
C2482 C2481 1.524 . S
C2482 C2483 1.397 . S
C2482 C2487 1.363 . S
C2483 H2454 0.950 . S
C2483 C2482 1.397 . S
C2483 C2484 1.334 . S
C2484 H2455 0.950 . S
C2484 C2483 1.334 . S
C2484 C2485 1.287 . S
C2485 C2484 1.287 . S
C2485 C2486 1.524 . S
C2485 H2488 0.999 . S
C2486 H2456 0.950 . S
C2486 C2485 1.524 . S
C2486 C2487 1.415 . S
C2487 H2457 0.950 . S
C2487 C2482 1.363 . S
C2487 C2486 1.415 . S
H2488 C2485 0.999 . S
H2489 C2470 0.913 . S
H2490 C2508 0.951 . S
H2491 C2510 0.951 . S
H2492 C2512 0.950 . S
H2493 C2513 0.950 . S
H2494 C2515 0.950 . S
H2495 C2518 0.950 . S
H2496 C2519 0.950 . S
H2497 C2521 0.950 . S
H2498 C2522 0.950 . S
H2499 C2523 0.951 . S
H2500 C2525 0.951 . S
H2501 C2527 0.950 . S
H2502 C2528 0.950 . S
H2503 C2530 0.950 . S
H2504 C2533 0.950 . S
H2505 C2534 0.950 . S
H2506 C2536 0.950 . S
H2507 C2537 0.950 . S
C2508 H2490 0.951 . S
C2508 C2509 1.366 . S
C2508 C2510 1.388 1_455 S
C2509 C2508 1.366 . S
C2509 C2513 1.385 . S
C2510 H2491 0.951 . S
C2510 C2508 1.388 1_655 S
C2510 C2511 1.366 . S
C2511 C2510 1.366 . S
C2511 C2512 1.414 1_655 S
C2511 C2514 1.499 . S
C2512 H2492 0.950 . S
C2512 C2511 1.414 1_455 S
C2512 C2513 1.374 . S
C2513 H2493 0.950 . S
C2513 C2509 1.385 . S
C2513 C2512 1.374 . S
C2514 C2511 1.499 . S
C2514 C2515 1.373 . S
C2514 C2516 1.389 . S
C2515 H2494 0.950 . S
C2515 C2514 1.373 . S
C2515 C2531 1.377 . S
C2516 C2514 1.389 . S
C2516 C2517 1.524 . S
C2516 C2530 1.377 . S
C2517 C2516 1.524 . S
C2517 C2518 1.397 . S
C2517 C2522 1.363 . S
C2518 H2495 0.950 . S
C2518 C2517 1.397 . S
C2518 C2519 1.334 . S
C2519 H2496 0.950 . S
C2519 C2518 1.334 . S
C2519 C2520 1.287 . S
C2520 C2519 1.287 . S
C2520 C2521 1.524 . S
C2520 H2539 0.913 . S
C2521 H2497 0.950 . S
C2521 C2520 1.524 . S
C2521 C2522 1.415 . S
C2522 H2498 0.950 . S
C2522 C2517 1.363 . S
C2522 C2521 1.415 . S
C2523 H2499 0.951 . S
C2523 C2524 1.366 . S
C2523 C2525 1.388 . S
C2524 C2523 1.366 . S
C2524 C2528 1.385 . S
C2525 H2500 0.951 . S
C2525 C2523 1.388 . S
C2525 C2526 1.366 . S
C2526 C2525 1.366 . S
C2526 C2527 1.414 . S
C2526 C2529 1.499 . S
C2527 H2501 0.950 . S
C2527 C2526 1.414 . S
C2527 C2528 1.374 . S
C2528 H2502 0.950 . S
C2528 C2524 1.385 . S
C2528 C2527 1.374 . S
C2529 C2526 1.499 . S
C2529 C2530 1.373 . S
C2529 C2531 1.389 . S
C2530 H2503 0.950 . S
C2530 C2516 1.377 . S
C2530 C2529 1.373 . S
C2531 C2515 1.377 . S
C2531 C2529 1.389 . S
C2531 C2532 1.524 . S
C2532 C2531 1.524 . S
C2532 C2533 1.397 . S
C2532 C2537 1.363 . S
C2533 H2504 0.950 . S
C2533 C2532 1.397 . S
C2533 C2534 1.334 . S
C2534 H2505 0.950 . S
C2534 C2533 1.334 . S
C2534 C2535 1.287 . S
C2535 C2534 1.287 . S
C2535 C2536 1.524 . S
C2535 H2538 0.999 . S
C2536 H2506 0.950 . S
C2536 C2535 1.524 . S
C2536 C2537 1.415 . S
C2537 H2507 0.950 . S
C2537 C2532 1.363 . S
C2537 C2536 1.415 . S
H2538 C2535 0.999 . S
H2539 C2520 0.913 . S
H2540 C2558 0.951 . S
H2541 C2560 0.951 . S
H2542 C2562 0.950 . S
H2543 C2563 0.950 . S
H2544 C2565 0.950 . S
H2545 C2568 0.950 . S
H2546 C2569 0.950 . S
H2547 C2571 0.950 . S
H2548 C2572 0.950 . S
H2549 C2573 0.951 . S
H2550 C2575 0.951 . S
H2551 C2577 0.950 . S
H2552 C2578 0.950 . S
H2553 C2580 0.950 . S
H2554 C2583 0.950 . S
H2555 C2584 0.950 . S
H2556 C2586 0.950 . S
H2557 C2587 0.950 . S
C2558 H2540 0.951 . S
C2558 C2559 1.366 . S
C2558 C2560 1.388 . S
C2559 C2558 1.366 . S
C2559 C2563 1.385 . S
C2560 H2541 0.951 . S
C2560 C2558 1.388 . S
C2560 C2561 1.366 . S
C2561 C2560 1.366 . S
C2561 C2562 1.414 . S
C2561 C2564 1.499 . S
C2562 H2542 0.950 . S
C2562 C2561 1.414 . S
C2562 C2563 1.374 . S
C2563 H2543 0.950 . S
C2563 C2559 1.385 . S
C2563 C2562 1.374 . S
C2564 C2561 1.499 . S
C2564 C2565 1.373 . S
C2564 C2566 1.389 . S
C2565 H2544 0.950 . S
C2565 C2564 1.373 . S
C2565 C2581 1.377 . S
C2566 C2564 1.389 . S
C2566 C2567 1.524 . S
C2566 C2580 1.377 . S
C2567 C2566 1.524 . S
C2567 C2568 1.397 . S
C2567 C2572 1.363 . S
C2568 H2545 0.950 . S
C2568 C2567 1.397 . S
C2568 C2569 1.334 . S
C2569 H2546 0.950 . S
C2569 C2568 1.334 . S
C2569 C2570 1.287 . S
C2570 C2569 1.287 . S
C2570 C2571 1.524 . S
C2570 H2589 0.913 . S
C2571 H2547 0.950 . S
C2571 C2570 1.524 . S
C2571 C2572 1.415 . S
C2572 H2548 0.950 . S
C2572 C2567 1.363 . S
C2572 C2571 1.415 . S
C2573 H2549 0.951 . S
C2573 C2574 1.366 . S
C2573 C2575 1.388 . S
C2574 C2573 1.366 . S
C2574 C2578 1.385 . S
C2575 H2550 0.951 . S
C2575 C2573 1.388 . S
C2575 C2576 1.366 . S
C2576 C2575 1.366 . S
C2576 C2577 1.414 . S
C2576 C2579 1.499 . S
C2577 H2551 0.950 . S
C2577 C2576 1.414 . S
C2577 C2578 1.374 . S
C2578 H2552 0.950 . S
C2578 C2574 1.385 . S
C2578 C2577 1.374 . S
C2579 C2576 1.499 . S
C2579 C2580 1.373 . S
C2579 C2581 1.389 . S
C2580 H2553 0.950 . S
C2580 C2566 1.377 . S
C2580 C2579 1.373 . S
C2581 C2565 1.377 . S
C2581 C2579 1.389 . S
C2581 C2582 1.524 . S
C2582 C2581 1.524 . S
C2582 C2583 1.397 . S
C2582 C2587 1.363 . S
C2583 H2554 0.950 . S
C2583 C2582 1.397 . S
C2583 C2584 1.334 . S
C2584 H2555 0.950 . S
C2584 C2583 1.334 . S
C2584 C2585 1.287 . S
C2585 C2584 1.287 . S
C2585 C2586 1.524 . S
C2585 H2588 0.999 . S
C2586 H2556 0.950 . S
C2586 C2585 1.524 . S
C2586 C2587 1.415 . S
C2587 H2557 0.950 . S
C2587 C2582 1.363 . S
C2587 C2586 1.415 . S
H2588 C2585 0.999 . S
H2589 C2570 0.913 . S
H2590 C2608 0.951 . S
H2591 C2610 0.951 . S
H2592 C2612 0.950 . S
H2593 C2613 0.950 . S
H2594 C2615 0.950 . S
H2595 C2618 0.950 . S
H2596 C2619 0.950 . S
H2597 C2621 0.950 . S
H2598 C2622 0.950 . S
H2599 C2623 0.951 . S
H2600 C2625 0.951 . S
H2601 C2627 0.950 . S
H2602 C2628 0.950 . S
H2603 C2630 0.950 . S
H2604 C2633 0.950 . S
H2605 C2634 0.950 . S
H2606 C2636 0.950 . S
H2607 C2637 0.950 . S
C2608 H2590 0.951 . S
C2608 C2609 1.366 . S
C2608 C2610 1.388 1_565 S
C2609 C2608 1.366 . S
C2609 C2613 1.385 . S
C2610 H2591 0.951 . S
C2610 C2608 1.388 1_545 S
C2610 C2611 1.366 . S
C2611 C2610 1.366 . S
C2611 C2612 1.414 1_545 S
C2611 C2614 1.499 . S
C2612 H2592 0.950 . S
C2612 C2611 1.414 1_565 S
C2612 C2613 1.374 . S
C2613 H2593 0.950 . S
C2613 C2609 1.385 . S
C2613 C2612 1.374 . S
C2614 C2611 1.499 . S
C2614 C2615 1.373 . S
C2614 C2616 1.389 . S
C2615 H2594 0.950 . S
C2615 C2614 1.373 . S
C2615 C2631 1.377 . S
C2616 C2614 1.389 . S
C2616 C2617 1.524 . S
C2616 C2630 1.377 . S
C2617 C2616 1.524 . S
C2617 C2618 1.397 . S
C2617 C2622 1.363 . S
C2618 H2595 0.950 . S
C2618 C2617 1.397 . S
C2618 C2619 1.334 . S
C2619 H2596 0.950 . S
C2619 C2618 1.334 . S
C2619 C2620 1.287 . S
C2620 C2619 1.287 . S
C2620 C2621 1.524 . S
C2620 H2639 0.913 . S
C2621 H2597 0.950 . S
C2621 C2620 1.524 . S
C2621 C2622 1.415 . S
C2622 H2598 0.950 . S
C2622 C2617 1.363 . S
C2622 C2621 1.415 . S
C2623 H2599 0.951 . S
C2623 C2624 1.366 . S
C2623 C2625 1.388 . S
C2624 C2623 1.366 . S
C2624 C2628 1.385 . S
C2625 H2600 0.951 . S
C2625 C2623 1.388 . S
C2625 C2626 1.366 . S
C2626 C2625 1.366 . S
C2626 C2627 1.414 . S
C2626 C2629 1.499 . S
C2627 H2601 0.950 . S
C2627 C2626 1.414 . S
C2627 C2628 1.374 . S
C2628 H2602 0.950 . S
C2628 C2624 1.385 . S
C2628 C2627 1.374 . S
C2629 C2626 1.499 . S
C2629 C2630 1.373 . S
C2629 C2631 1.389 . S
C2630 H2603 0.950 . S
C2630 C2616 1.377 . S
C2630 C2629 1.373 . S
C2631 C2615 1.377 . S
C2631 C2629 1.389 . S
C2631 C2632 1.524 . S
C2632 C2631 1.524 . S
C2632 C2633 1.397 . S
C2632 C2637 1.363 . S
C2633 H2604 0.950 . S
C2633 C2632 1.397 . S
C2633 C2634 1.334 . S
C2634 H2605 0.950 . S
C2634 C2633 1.334 . S
C2634 C2635 1.287 . S
C2635 C2634 1.287 . S
C2635 C2636 1.524 . S
C2635 H2638 0.999 . S
C2636 H2606 0.950 . S
C2636 C2635 1.524 . S
C2636 C2637 1.415 . S
C2637 H2607 0.950 . S
C2637 C2632 1.363 . S
C2637 C2636 1.415 . S
H2638 C2635 0.999 . S
H2639 C2620 0.913 . S
H2640 C2658 0.951 . S
H2641 C2660 0.951 . S
H2642 C2662 0.950 . S
H2643 C2663 0.950 . S
H2644 C2665 0.950 . S
H2645 C2668 0.950 . S
H2646 C2669 0.950 . S
H2647 C2671 0.950 . S
H2648 C2672 0.950 . S
H2649 C2673 0.951 . S
H2650 C2675 0.951 . S
H2651 C2677 0.950 . S
H2652 C2678 0.950 . S
H2653 C2680 0.950 . S
H2654 C2683 0.950 . S
H2655 C2684 0.950 . S
H2656 C2686 0.950 . S
H2657 C2687 0.950 . S
C2658 H2640 0.951 . S
C2658 C2659 1.366 . S
C2658 C2660 1.388 . S
C2659 C2658 1.366 . S
C2659 C2663 1.385 . S
C2660 H2641 0.951 . S
C2660 C2658 1.388 . S
C2660 C2661 1.366 . S
C2661 C2660 1.366 . S
C2661 C2662 1.414 . S
C2661 C2664 1.499 . S
C2662 H2642 0.950 . S
C2662 C2661 1.414 . S
C2662 C2663 1.374 . S
C2663 H2643 0.950 . S
C2663 C2659 1.385 . S
C2663 C2662 1.374 . S
C2664 C2661 1.499 . S
C2664 C2665 1.373 . S
C2664 C2666 1.389 . S
C2665 H2644 0.950 . S
C2665 C2664 1.373 . S
C2665 C2681 1.377 . S
C2666 C2664 1.389 . S
C2666 C2667 1.524 . S
C2666 C2680 1.377 . S
C2667 C2666 1.524 . S
C2667 C2668 1.397 . S
C2667 C2672 1.363 . S
C2668 H2645 0.950 . S
C2668 C2667 1.397 . S
C2668 C2669 1.334 . S
C2669 H2646 0.950 . S
C2669 C2668 1.334 . S
C2669 C2670 1.287 . S
C2670 C2669 1.287 . S
C2670 C2671 1.524 . S
C2670 H2689 0.913 . S
C2671 H2647 0.950 . S
C2671 C2670 1.524 . S
C2671 C2672 1.415 . S
C2672 H2648 0.950 . S
C2672 C2667 1.363 . S
C2672 C2671 1.415 . S
C2673 H2649 0.951 . S
C2673 C2674 1.366 . S
C2673 C2675 1.388 . S
C2674 C2673 1.366 . S
C2674 C2678 1.385 . S
C2675 H2650 0.951 . S
C2675 C2673 1.388 . S
C2675 C2676 1.366 . S
C2676 C2675 1.366 . S
C2676 C2677 1.414 . S
C2676 C2679 1.499 . S
C2677 H2651 0.950 . S
C2677 C2676 1.414 . S
C2677 C2678 1.374 . S
C2678 H2652 0.950 . S
C2678 C2674 1.385 . S
C2678 C2677 1.374 . S
C2679 C2676 1.499 . S
C2679 C2680 1.373 . S
C2679 C2681 1.389 . S
C2680 H2653 0.950 . S
C2680 C2666 1.377 . S
C2680 C2679 1.373 . S
C2681 C2665 1.377 . S
C2681 C2679 1.389 . S
C2681 C2682 1.524 . S
C2682 C2681 1.524 . S
C2682 C2683 1.397 . S
C2682 C2687 1.363 . S
C2683 H2654 0.950 . S
C2683 C2682 1.397 . S
C2683 C2684 1.334 . S
C2684 H2655 0.950 . S
C2684 C2683 1.334 . S
C2684 C2685 1.287 . S
C2685 C2684 1.287 . S
C2685 C2686 1.524 . S
C2685 H2688 0.999 . S
C2686 H2656 0.950 . S
C2686 C2685 1.524 . S
C2686 C2687 1.415 . S
C2687 H2657 0.950 . S
C2687 C2682 1.363 . S
C2687 C2686 1.415 . S
H2688 C2685 0.999 . S
H2689 C2670 0.913 . S
H2690 C2708 0.951 . S
H2691 C2710 0.951 . S
H2692 C2712 0.950 . S
H2693 C2713 0.950 . S
H2694 C2715 0.950 . S
H2695 C2718 0.950 . S
H2696 C2719 0.950 . S
H2697 C2721 0.950 . S
H2698 C2722 0.950 . S
H2699 C2723 0.951 . S
H2700 C2725 0.951 . S
H2701 C2727 0.950 . S
H2702 C2728 0.950 . S
H2703 C2730 0.950 . S
H2704 C2733 0.950 . S
H2705 C2734 0.950 . S
H2706 C2736 0.950 . S
H2707 C2737 0.950 . S
C2708 H2690 0.951 . S
C2708 C2709 1.366 . S
C2708 C2710 1.388 . S
C2709 C2708 1.366 . S
C2709 C2713 1.385 . S
C2710 H2691 0.951 . S
C2710 C2708 1.388 . S
C2710 C2711 1.366 . S
C2711 C2710 1.366 . S
C2711 C2712 1.414 . S
C2711 C2714 1.499 . S
C2712 H2692 0.950 . S
C2712 C2711 1.414 . S
C2712 C2713 1.374 . S
C2713 H2693 0.950 . S
C2713 C2709 1.385 . S
C2713 C2712 1.374 . S
C2714 C2711 1.499 . S
C2714 C2715 1.373 . S
C2714 C2716 1.389 . S
C2715 H2694 0.950 . S
C2715 C2714 1.373 . S
C2715 C2731 1.377 . S
C2716 C2714 1.389 . S
C2716 C2717 1.524 . S
C2716 C2730 1.377 . S
C2717 C2716 1.524 . S
C2717 C2718 1.397 . S
C2717 C2722 1.363 . S
C2718 H2695 0.950 . S
C2718 C2717 1.397 . S
C2718 C2719 1.334 . S
C2719 H2696 0.950 . S
C2719 C2718 1.334 . S
C2719 C2720 1.287 . S
C2720 C2719 1.287 . S
C2720 C2721 1.524 . S
C2720 H2739 0.913 . S
C2721 H2697 0.950 . S
C2721 C2720 1.524 . S
C2721 C2722 1.415 . S
C2722 H2698 0.950 . S
C2722 C2717 1.363 . S
C2722 C2721 1.415 . S
C2723 H2699 0.951 . S
C2723 C2724 1.366 . S
C2723 C2725 1.388 . S
C2724 C2723 1.366 . S
C2724 C2728 1.385 . S
C2725 H2700 0.951 . S
C2725 C2723 1.388 . S
C2725 C2726 1.366 . S
C2726 C2725 1.366 . S
C2726 C2727 1.414 . S
C2726 C2729 1.499 . S
C2727 H2701 0.950 . S
C2727 C2726 1.414 . S
C2727 C2728 1.374 . S
C2728 H2702 0.950 . S
C2728 C2724 1.385 . S
C2728 C2727 1.374 . S
C2729 C2726 1.499 . S
C2729 C2730 1.373 . S
C2729 C2731 1.389 . S
C2730 H2703 0.950 . S
C2730 C2716 1.377 . S
C2730 C2729 1.373 . S
C2731 C2715 1.377 . S
C2731 C2729 1.389 . S
C2731 C2732 1.524 . S
C2732 C2731 1.524 . S
C2732 C2733 1.397 . S
C2732 C2737 1.363 . S
C2733 H2704 0.950 . S
C2733 C2732 1.397 . S
C2733 C2734 1.334 . S
C2734 H2705 0.950 . S
C2734 C2733 1.334 . S
C2734 C2735 1.287 . S
C2735 C2734 1.287 . S
C2735 C2736 1.524 . S
C2735 H2738 0.999 . S
C2736 H2706 0.950 . S
C2736 C2735 1.524 . S
C2736 C2737 1.415 . S
C2737 H2707 0.950 . S
C2737 C2732 1.363 . S
C2737 C2736 1.415 . S
H2738 C2735 0.999 . S
H2739 C2720 0.913 . S
H2740 C2758 0.951 . S
H2741 C2760 0.951 . S
H2742 C2762 0.950 . S
H2743 C2763 0.950 . S
H2744 C2765 0.950 . S
H2745 C2768 0.950 . S
H2746 C2769 0.950 . S
H2747 C2771 0.950 . S
H2748 C2772 0.950 . S
H2749 C2773 0.951 . S
H2750 C2775 0.951 . S
H2751 C2777 0.950 . S
H2752 C2778 0.950 . S
H2753 C2780 0.950 . S
H2754 C2783 0.950 . S
H2755 C2784 0.950 . S
H2756 C2786 0.950 . S
H2757 C2787 0.950 . S
C2758 H2740 0.951 . S
C2758 C2759 1.366 . S
C2758 C2760 1.388 . S
C2759 C2758 1.366 . S
C2759 C2763 1.385 . S
C2760 H2741 0.951 . S
C2760 C2758 1.388 . S
C2760 C2761 1.366 . S
C2761 C2760 1.366 . S
C2761 C2762 1.414 . S
C2761 C2764 1.499 . S
C2762 H2742 0.950 . S
C2762 C2761 1.414 . S
C2762 C2763 1.374 . S
C2763 H2743 0.950 . S
C2763 C2759 1.385 . S
C2763 C2762 1.374 . S
C2764 C2761 1.499 . S
C2764 C2765 1.373 . S
C2764 C2766 1.389 . S
C2765 H2744 0.950 . S
C2765 C2764 1.373 . S
C2765 C2781 1.377 . S
C2766 C2764 1.389 . S
C2766 C2767 1.524 . S
C2766 C2780 1.377 . S
C2767 C2766 1.524 . S
C2767 C2768 1.397 . S
C2767 C2772 1.363 . S
C2768 H2745 0.950 . S
C2768 C2767 1.397 . S
C2768 C2769 1.334 . S
C2769 H2746 0.950 . S
C2769 C2768 1.334 . S
C2769 C2770 1.287 . S
C2770 C2769 1.287 . S
C2770 C2771 1.524 . S
C2770 H2789 0.913 . S
C2771 H2747 0.950 . S
C2771 C2770 1.524 . S
C2771 C2772 1.415 . S
C2772 H2748 0.950 . S
C2772 C2767 1.363 . S
C2772 C2771 1.415 . S
C2773 H2749 0.951 . S
C2773 C2774 1.366 . S
C2773 C2775 1.388 . S
C2774 C2773 1.366 . S
C2774 C2778 1.385 . S
C2775 H2750 0.951 . S
C2775 C2773 1.388 . S
C2775 C2776 1.366 . S
C2776 C2775 1.366 . S
C2776 C2777 1.414 . S
C2776 C2779 1.499 . S
C2777 H2751 0.950 . S
C2777 C2776 1.414 . S
C2777 C2778 1.374 . S
C2778 H2752 0.950 . S
C2778 C2774 1.385 . S
C2778 C2777 1.374 . S
C2779 C2776 1.499 . S
C2779 C2780 1.373 . S
C2779 C2781 1.389 . S
C2780 H2753 0.950 . S
C2780 C2766 1.377 . S
C2780 C2779 1.373 . S
C2781 C2765 1.377 . S
C2781 C2779 1.389 . S
C2781 C2782 1.524 . S
C2782 C2781 1.524 . S
C2782 C2783 1.397 . S
C2782 C2787 1.363 . S
C2783 H2754 0.950 . S
C2783 C2782 1.397 . S
C2783 C2784 1.334 . S
C2784 H2755 0.950 . S
C2784 C2783 1.334 . S
C2784 C2785 1.287 . S
C2785 C2784 1.287 . S
C2785 C2786 1.524 . S
C2785 H2788 0.999 . S
C2786 H2756 0.950 . S
C2786 C2785 1.524 . S
C2786 C2787 1.415 . S
C2787 H2757 0.950 . S
C2787 C2782 1.363 . S
C2787 C2786 1.415 . S
H2788 C2785 0.999 . S
H2789 C2770 0.913 . S
H2790 C2808 0.951 . S
H2791 C2810 0.951 . S
H2792 C2812 0.950 . S
H2793 C2813 0.950 . S
H2794 C2815 0.950 . S
H2795 C2818 0.950 . S
H2796 C2819 0.950 . S
H2797 C2821 0.950 . S
H2798 C2822 0.950 . S
H2799 C2823 0.951 . S
H2800 C2825 0.951 . S
H2801 C2827 0.950 . S
H2802 C2828 0.950 . S
H2803 C2830 0.950 . S
H2804 C2833 0.950 . S
H2805 C2834 0.950 . S
H2806 C2836 0.950 . S
H2807 C2837 0.950 . S
C2808 H2790 0.951 . S
C2808 C2809 1.366 . S
C2808 C2810 1.388 . S
C2809 C2808 1.366 . S
C2809 C2813 1.385 . S
C2810 H2791 0.951 . S
C2810 C2808 1.388 . S
C2810 C2811 1.366 . S
C2811 C2810 1.366 . S
C2811 C2812 1.414 . S
C2811 C2814 1.499 . S
C2812 H2792 0.950 . S
C2812 C2811 1.414 . S
C2812 C2813 1.374 . S
C2813 H2793 0.950 . S
C2813 C2809 1.385 . S
C2813 C2812 1.374 . S
C2814 C2811 1.499 . S
C2814 C2815 1.373 . S
C2814 C2816 1.389 . S
C2815 H2794 0.950 . S
C2815 C2814 1.373 . S
C2815 C2831 1.377 . S
C2816 C2814 1.389 . S
C2816 C2817 1.524 . S
C2816 C2830 1.377 . S
C2817 C2816 1.524 . S
C2817 C2818 1.397 . S
C2817 C2822 1.363 . S
C2818 H2795 0.950 . S
C2818 C2817 1.397 . S
C2818 C2819 1.334 . S
C2819 H2796 0.950 . S
C2819 C2818 1.334 . S
C2819 C2820 1.287 . S
C2820 C2819 1.287 . S
C2820 C2821 1.524 . S
C2820 H2839 0.913 . S
C2821 H2797 0.950 . S
C2821 C2820 1.524 . S
C2821 C2822 1.415 . S
C2822 H2798 0.950 . S
C2822 C2817 1.363 . S
C2822 C2821 1.415 . S
C2823 H2799 0.951 . S
C2823 C2824 1.366 . S
C2823 C2825 1.388 . S
C2824 C2823 1.366 . S
C2824 C2828 1.385 . S
C2825 H2800 0.951 . S
C2825 C2823 1.388 . S
C2825 C2826 1.366 . S
C2826 C2825 1.366 . S
C2826 C2827 1.414 . S
C2826 C2829 1.499 . S
C2827 H2801 0.950 . S
C2827 C2826 1.414 . S
C2827 C2828 1.374 . S
C2828 H2802 0.950 . S
C2828 C2824 1.385 . S
C2828 C2827 1.374 . S
C2829 C2826 1.499 . S
C2829 C2830 1.373 . S
C2829 C2831 1.389 . S
C2830 H2803 0.950 . S
C2830 C2816 1.377 . S
C2830 C2829 1.373 . S
C2831 C2815 1.377 . S
C2831 C2829 1.389 . S
C2831 C2832 1.524 . S
C2832 C2831 1.524 . S
C2832 C2833 1.397 . S
C2832 C2837 1.363 . S
C2833 H2804 0.950 . S
C2833 C2832 1.397 . S
C2833 C2834 1.334 . S
C2834 H2805 0.950 . S
C2834 C2833 1.334 . S
C2834 C2835 1.287 . S
C2835 C2834 1.287 . S
C2835 C2836 1.524 . S
C2835 H2838 0.999 . S
C2836 H2806 0.950 . S
C2836 C2835 1.524 . S
C2836 C2837 1.415 . S
C2837 H2807 0.950 . S
C2837 C2832 1.363 . S
C2837 C2836 1.415 . S
H2838 C2835 0.999 . S
H2839 C2820 0.913 . S
H2840 C2858 0.951 . S
H2841 C2860 0.951 . S
H2842 C2862 0.950 . S
H2843 C2863 0.950 . S
H2844 C2865 0.950 . S
H2845 C2868 0.950 . S
H2846 C2869 0.950 . S
H2847 C2871 0.950 . S
H2848 C2872 0.950 . S
H2849 C2873 0.951 . S
H2850 C2875 0.951 . S
H2851 C2877 0.950 . S
H2852 C2878 0.950 . S
H2853 C2880 0.950 . S
H2854 C2883 0.950 . S
H2855 C2884 0.950 . S
H2856 C2886 0.950 . S
H2857 C2887 0.950 . S
C2858 H2840 0.951 . S
C2858 C2859 1.366 . S
C2858 C2860 1.388 . S
C2859 C2858 1.366 . S
C2859 C2863 1.385 . S
C2860 H2841 0.951 . S
C2860 C2858 1.388 . S
C2860 C2861 1.366 . S
C2861 C2860 1.366 . S
C2861 C2862 1.414 . S
C2861 C2864 1.499 . S
C2862 H2842 0.950 . S
C2862 C2861 1.414 . S
C2862 C2863 1.374 . S
C2863 H2843 0.950 . S
C2863 C2859 1.385 . S
C2863 C2862 1.374 . S
C2864 C2861 1.499 . S
C2864 C2865 1.373 . S
C2864 C2866 1.389 . S
C2865 H2844 0.950 . S
C2865 C2864 1.373 . S
C2865 C2881 1.377 . S
C2866 C2864 1.389 . S
C2866 C2867 1.524 . S
C2866 C2880 1.377 . S
C2867 C2866 1.524 . S
C2867 C2868 1.397 . S
C2867 C2872 1.363 . S
C2868 H2845 0.950 . S
C2868 C2867 1.397 . S
C2868 C2869 1.334 . S
C2869 H2846 0.950 . S
C2869 C2868 1.334 . S
C2869 C2870 1.287 . S
C2870 C2869 1.287 . S
C2870 C2871 1.524 . S
C2870 H2889 0.913 . S
C2871 H2847 0.950 . S
C2871 C2870 1.524 . S
C2871 C2872 1.415 . S
C2872 H2848 0.950 . S
C2872 C2867 1.363 . S
C2872 C2871 1.415 . S
C2873 H2849 0.951 . S
C2873 C2874 1.366 . S
C2873 C2875 1.388 . S
C2874 C2873 1.366 . S
C2874 C2878 1.385 . S
C2875 H2850 0.951 . S
C2875 C2873 1.388 . S
C2875 C2876 1.366 . S
C2876 C2875 1.366 . S
C2876 C2877 1.414 . S
C2876 C2879 1.499 . S
C2877 H2851 0.950 . S
C2877 C2876 1.414 . S
C2877 C2878 1.374 . S
C2878 H2852 0.950 . S
C2878 C2874 1.385 . S
C2878 C2877 1.374 . S
C2879 C2876 1.499 . S
C2879 C2880 1.373 . S
C2879 C2881 1.389 . S
C2880 H2853 0.950 . S
C2880 C2866 1.377 . S
C2880 C2879 1.373 . S
C2881 C2865 1.377 . S
C2881 C2879 1.389 . S
C2881 C2882 1.524 . S
C2882 C2881 1.524 . S
C2882 C2883 1.397 . S
C2882 C2887 1.363 . S
C2883 H2854 0.950 . S
C2883 C2882 1.397 . S
C2883 C2884 1.334 . S
C2884 H2855 0.950 . S
C2884 C2883 1.334 . S
C2884 C2885 1.287 . S
C2885 C2884 1.287 . S
C2885 C2886 1.524 . S
C2885 H2888 0.999 . S
C2886 H2856 0.950 . S
C2886 C2885 1.524 . S
C2886 C2887 1.415 . S
C2887 H2857 0.950 . S
C2887 C2882 1.363 . S
C2887 C2886 1.415 . S
H2888 C2885 0.999 . S
H2889 C2870 0.913 . S
H2890 C2908 0.951 . S
H2891 C2910 0.951 . S
H2892 C2912 0.950 . S
H2893 C2913 0.950 . S
H2894 C2915 0.950 . S
H2895 C2918 0.950 . S
H2896 C2919 0.950 . S
H2897 C2921 0.950 . S
H2898 C2922 0.950 . S
H2899 C2923 0.951 . S
H2900 C2925 0.951 . S
H2901 C2927 0.950 . S
H2902 C2928 0.950 . S
H2903 C2930 0.950 . S
H2904 C2933 0.950 . S
H2905 C2934 0.950 . S
H2906 C2936 0.950 . S
H2907 C2937 0.950 . S
C2908 H2890 0.951 . S
C2908 C2909 1.366 . S
C2908 C2910 1.388 . S
C2909 C2908 1.366 . S
C2909 C2913 1.385 . S
C2910 H2891 0.951 . S
C2910 C2908 1.388 . S
C2910 C2911 1.366 . S
C2911 C2910 1.366 . S
C2911 C2912 1.414 . S
C2911 C2914 1.499 . S
C2912 H2892 0.950 . S
C2912 C2911 1.414 . S
C2912 C2913 1.374 . S
C2913 H2893 0.950 . S
C2913 C2909 1.385 . S
C2913 C2912 1.374 . S
C2914 C2911 1.499 . S
C2914 C2915 1.373 . S
C2914 C2916 1.389 . S
C2915 H2894 0.950 . S
C2915 C2914 1.373 . S
C2915 C2931 1.377 . S
C2916 C2914 1.389 . S
C2916 C2917 1.524 . S
C2916 C2930 1.377 . S
C2917 C2916 1.524 . S
C2917 C2918 1.397 . S
C2917 C2922 1.363 . S
C2918 H2895 0.950 . S
C2918 C2917 1.397 . S
C2918 C2919 1.334 . S
C2919 H2896 0.950 . S
C2919 C2918 1.334 . S
C2919 C2920 1.287 . S
C2920 C2919 1.287 . S
C2920 C2921 1.524 . S
C2920 H2939 0.913 . S
C2921 H2897 0.950 . S
C2921 C2920 1.524 . S
C2921 C2922 1.415 . S
C2922 H2898 0.950 . S
C2922 C2917 1.363 . S
C2922 C2921 1.415 . S
C2923 H2899 0.951 . S
C2923 C2924 1.366 . S
C2923 C2925 1.388 . S
C2924 C2923 1.366 . S
C2924 C2928 1.385 . S
C2925 H2900 0.951 . S
C2925 C2923 1.388 . S
C2925 C2926 1.366 . S
C2926 C2925 1.366 . S
C2926 C2927 1.414 . S
C2926 C2929 1.499 . S
C2927 H2901 0.950 . S
C2927 C2926 1.414 . S
C2927 C2928 1.374 . S
C2928 H2902 0.950 . S
C2928 C2924 1.385 . S
C2928 C2927 1.374 . S
C2929 C2926 1.499 . S
C2929 C2930 1.373 . S
C2929 C2931 1.389 . S
C2930 H2903 0.950 . S
C2930 C2916 1.377 . S
C2930 C2929 1.373 . S
C2931 C2915 1.377 . S
C2931 C2929 1.389 . S
C2931 C2932 1.524 . S
C2932 C2931 1.524 . S
C2932 C2933 1.397 . S
C2932 C2937 1.363 . S
C2933 H2904 0.950 . S
C2933 C2932 1.397 . S
C2933 C2934 1.334 . S
C2934 H2905 0.950 . S
C2934 C2933 1.334 . S
C2934 C2935 1.287 . S
C2935 C2934 1.287 . S
C2935 C2936 1.524 . S
C2935 H2938 0.999 . S
C2936 H2906 0.950 . S
C2936 C2935 1.524 . S
C2936 C2937 1.415 . S
C2937 H2907 0.950 . S
C2937 C2932 1.363 . S
C2937 C2936 1.415 . S
H2938 C2935 0.999 . S
H2939 C2920 0.913 . S
H2940 C2958 0.951 . S
H2941 C2960 0.951 . S
H2942 C2962 0.950 . S
H2943 C2963 0.950 . S
H2944 C2965 0.950 . S
H2945 C2968 0.950 . S
H2946 C2969 0.950 . S
H2947 C2971 0.950 . S
H2948 C2972 0.950 . S
H2949 C2973 0.951 . S
H2950 C2975 0.951 . S
H2951 C2977 0.950 . S
H2952 C2978 0.950 . S
H2953 C2980 0.950 . S
H2954 C2983 0.950 . S
H2955 C2984 0.950 . S
H2956 C2986 0.950 . S
H2957 C2987 0.950 . S
C2958 H2940 0.951 . S
C2958 C2959 1.366 . S
C2958 C2960 1.388 . S
C2959 C2958 1.366 . S
C2959 C2963 1.385 . S
C2960 H2941 0.951 . S
C2960 C2958 1.388 . S
C2960 C2961 1.366 . S
C2961 C2960 1.366 . S
C2961 C2962 1.414 . S
C2961 C2964 1.499 . S
C2962 H2942 0.950 . S
C2962 C2961 1.414 . S
C2962 C2963 1.374 . S
C2963 H2943 0.950 . S
C2963 C2959 1.385 . S
C2963 C2962 1.374 . S
C2964 C2961 1.499 . S
C2964 C2965 1.373 . S
C2964 C2966 1.389 . S
C2965 H2944 0.950 . S
C2965 C2964 1.373 . S
C2965 C2981 1.377 . S
C2966 C2964 1.389 . S
C2966 C2967 1.524 . S
C2966 C2980 1.377 . S
C2967 C2966 1.524 . S
C2967 C2968 1.397 . S
C2967 C2972 1.363 . S
C2968 H2945 0.950 . S
C2968 C2967 1.397 . S
C2968 C2969 1.334 . S
C2969 H2946 0.950 . S
C2969 C2968 1.334 . S
C2969 C2970 1.287 . S
C2970 C2969 1.287 . S
C2970 C2971 1.524 . S
C2970 H2989 0.913 . S
C2971 H2947 0.950 . S
C2971 C2970 1.524 . S
C2971 C2972 1.415 . S
C2972 H2948 0.950 . S
C2972 C2967 1.363 . S
C2972 C2971 1.415 . S
C2973 H2949 0.951 . S
C2973 C2974 1.366 . S
C2973 C2975 1.388 . S
C2974 C2973 1.366 . S
C2974 C2978 1.385 . S
C2975 H2950 0.951 . S
C2975 C2973 1.388 . S
C2975 C2976 1.366 . S
C2976 C2975 1.366 . S
C2976 C2977 1.414 . S
C2976 C2979 1.499 . S
C2977 H2951 0.950 . S
C2977 C2976 1.414 . S
C2977 C2978 1.374 . S
C2978 H2952 0.950 . S
C2978 C2974 1.385 . S
C2978 C2977 1.374 . S
C2979 C2976 1.499 . S
C2979 C2980 1.373 . S
C2979 C2981 1.389 . S
C2980 H2953 0.950 . S
C2980 C2966 1.377 . S
C2980 C2979 1.373 . S
C2981 C2965 1.377 . S
C2981 C2979 1.389 . S
C2981 C2982 1.524 . S
C2982 C2981 1.524 . S
C2982 C2983 1.397 . S
C2982 C2987 1.363 . S
C2983 H2954 0.950 . S
C2983 C2982 1.397 . S
C2983 C2984 1.334 1_655 S
C2984 H2955 0.950 . S
C2984 C2983 1.334 1_455 S
C2984 C2985 1.287 . S
C2985 C2984 1.287 . S
C2985 C2986 1.524 . S
C2985 H2988 0.999 . S
C2986 H2956 0.950 . S
C2986 C2985 1.524 . S
C2986 C2987 1.415 1_455 S
C2987 H2957 0.950 . S
C2987 C2982 1.363 . S
C2987 C2986 1.415 1_655 S
H2988 C2985 0.999 . S
H2989 C2970 0.913 . S
H2990 C3008 0.951 . S
H2991 C3010 0.951 . S
H2992 C3012 0.950 . S
H2993 C3013 0.950 . S
H2994 C3015 0.950 . S
H2995 C3018 0.950 . S
H2996 C3019 0.950 . S
H2997 C3021 0.950 . S
H2998 C3022 0.950 . S
H2999 C3023 0.951 . S
H3000 C3025 0.951 . S
H3001 C3027 0.950 . S
H3002 C3028 0.950 . S
H3003 C3030 0.950 . S
H3004 C3033 0.950 . S
H3005 C3034 0.950 . S
H3006 C3036 0.950 . S
H3007 C3037 0.950 . S
C3008 H2990 0.951 . S
C3008 C3009 1.366 . S
C3008 C3010 1.388 . S
C3009 C3008 1.366 . S
C3009 C3013 1.385 . S
C3010 H2991 0.951 . S
C3010 C3008 1.388 . S
C3010 C3011 1.366 . S
C3011 C3010 1.366 . S
C3011 C3012 1.414 . S
C3011 C3014 1.499 . S
C3012 H2992 0.950 . S
C3012 C3011 1.414 . S
C3012 C3013 1.374 . S
C3013 H2993 0.950 . S
C3013 C3009 1.385 . S
C3013 C3012 1.374 . S
C3014 C3011 1.499 . S
C3014 C3015 1.373 . S
C3014 C3016 1.389 . S
C3015 H2994 0.950 . S
C3015 C3014 1.373 . S
C3015 C3031 1.377 . S
C3016 C3014 1.389 . S
C3016 C3017 1.524 . S
C3016 C3030 1.377 . S
C3017 C3016 1.524 . S
C3017 C3018 1.397 . S
C3017 C3022 1.363 . S
C3018 H2995 0.950 . S
C3018 C3017 1.397 . S
C3018 C3019 1.334 . S
C3019 H2996 0.950 . S
C3019 C3018 1.334 . S
C3019 C3020 1.287 . S
C3020 C3019 1.287 . S
C3020 C3021 1.524 . S
C3020 H3039 0.913 . S
C3021 H2997 0.950 . S
C3021 C3020 1.524 . S
C3021 C3022 1.415 . S
C3022 H2998 0.950 . S
C3022 C3017 1.363 . S
C3022 C3021 1.415 . S
C3023 H2999 0.951 . S
C3023 C3024 1.366 . S
C3023 C3025 1.388 . S
C3024 C3023 1.366 . S
C3024 C3028 1.385 . S
C3025 H3000 0.951 . S
C3025 C3023 1.388 . S
C3025 C3026 1.366 . S
C3026 C3025 1.366 . S
C3026 C3027 1.414 . S
C3026 C3029 1.499 . S
C3027 H3001 0.950 . S
C3027 C3026 1.414 . S
C3027 C3028 1.374 . S
C3028 H3002 0.950 . S
C3028 C3024 1.385 . S
C3028 C3027 1.374 . S
C3029 C3026 1.499 . S
C3029 C3030 1.373 . S
C3029 C3031 1.389 . S
C3030 H3003 0.950 . S
C3030 C3016 1.377 . S
C3030 C3029 1.373 . S
C3031 C3015 1.377 . S
C3031 C3029 1.389 . S
C3031 C3032 1.524 . S
C3032 C3031 1.524 . S
C3032 C3033 1.397 . S
C3032 C3037 1.363 . S
C3033 H3004 0.950 . S
C3033 C3032 1.397 . S
C3033 C3034 1.334 . S
C3034 H3005 0.950 . S
C3034 C3033 1.334 . S
C3034 C3035 1.287 . S
C3035 C3034 1.287 . S
C3035 C3036 1.524 . S
C3035 H3038 0.999 . S
C3036 H3006 0.950 . S
C3036 C3035 1.524 . S
C3036 C3037 1.415 . S
C3037 H3007 0.950 . S
C3037 C3032 1.363 . S
C3037 C3036 1.415 . S
H3038 C3035 0.999 . S
H3039 C3020 0.913 . S
H3040 C3058 0.951 . S
H3041 C3060 0.951 . S
H3042 C3062 0.950 . S
H3043 C3063 0.950 . S
H3044 C3065 0.950 . S
H3045 C3068 0.950 . S
H3046 C3069 0.950 . S
H3047 C3071 0.950 . S
H3048 C3072 0.950 . S
H3049 C3073 0.951 . S
H3050 C3075 0.951 . S
H3051 C3077 0.950 . S
H3052 C3078 0.950 . S
H3053 C3080 0.950 . S
H3054 C3083 0.950 . S
H3055 C3084 0.950 . S
H3056 C3086 0.950 . S
H3057 C3087 0.950 . S
C3058 H3040 0.951 . S
C3058 C3059 1.366 . S
C3058 C3060 1.388 . S
C3059 C3058 1.366 . S
C3059 C3063 1.385 . S
C3060 H3041 0.951 . S
C3060 C3058 1.388 . S
C3060 C3061 1.366 . S
C3061 C3060 1.366 . S
C3061 C3062 1.414 . S
C3061 C3064 1.499 . S
C3062 H3042 0.950 . S
C3062 C3061 1.414 . S
C3062 C3063 1.374 . S
C3063 H3043 0.950 . S
C3063 C3059 1.385 . S
C3063 C3062 1.374 . S
C3064 C3061 1.499 . S
C3064 C3065 1.373 . S
C3064 C3066 1.389 . S
C3065 H3044 0.950 . S
C3065 C3064 1.373 . S
C3065 C3081 1.377 . S
C3066 C3064 1.389 . S
C3066 C3067 1.524 . S
C3066 C3080 1.377 . S
C3067 C3066 1.524 . S
C3067 C3068 1.397 . S
C3067 C3072 1.363 . S
C3068 H3045 0.950 . S
C3068 C3067 1.397 . S
C3068 C3069 1.334 . S
C3069 H3046 0.950 . S
C3069 C3068 1.334 . S
C3069 C3070 1.287 . S
C3070 C3069 1.287 . S
C3070 C3071 1.524 . S
C3070 H3089 0.913 . S
C3071 H3047 0.950 . S
C3071 C3070 1.524 . S
C3071 C3072 1.415 . S
C3072 H3048 0.950 . S
C3072 C3067 1.363 . S
C3072 C3071 1.415 . S
C3073 H3049 0.951 . S
C3073 C3074 1.366 . S
C3073 C3075 1.388 . S
C3074 C3073 1.366 . S
C3074 C3078 1.385 . S
C3075 H3050 0.951 . S
C3075 C3073 1.388 . S
C3075 C3076 1.366 . S
C3076 C3075 1.366 . S
C3076 C3077 1.414 . S
C3076 C3079 1.499 . S
C3077 H3051 0.950 . S
C3077 C3076 1.414 . S
C3077 C3078 1.374 . S
C3078 H3052 0.950 . S
C3078 C3074 1.385 . S
C3078 C3077 1.374 . S
C3079 C3076 1.499 . S
C3079 C3080 1.373 . S
C3079 C3081 1.389 . S
C3080 H3053 0.950 . S
C3080 C3066 1.377 . S
C3080 C3079 1.373 . S
C3081 C3065 1.377 . S
C3081 C3079 1.389 . S
C3081 C3082 1.524 . S
C3082 C3081 1.524 . S
C3082 C3083 1.397 . S
C3082 C3087 1.363 . S
C3083 H3054 0.950 . S
C3083 C3082 1.397 . S
C3083 C3084 1.334 . S
C3084 H3055 0.950 . S
C3084 C3083 1.334 . S
C3084 C3085 1.287 . S
C3085 C3084 1.287 . S
C3085 C3086 1.524 . S
C3085 H3088 0.999 . S
C3086 H3056 0.950 . S
C3086 C3085 1.524 . S
C3086 C3087 1.415 . S
C3087 H3057 0.950 . S
C3087 C3082 1.363 . S
C3087 C3086 1.415 . S
H3088 C3085 0.999 . S
H3089 C3070 0.913 . S
H3090 C3108 0.951 . S
H3091 C3110 0.951 . S
H3092 C3112 0.950 . S
H3093 C3113 0.950 . S
H3094 C3115 0.950 . S
H3095 C3118 0.950 . S
H3096 C3119 0.950 . S
H3097 C3121 0.950 . S
H3098 C3122 0.950 . S
H3099 C3123 0.951 . S
H3100 C3125 0.951 . S
H3101 C3127 0.950 . S
H3102 C3128 0.950 . S
H3103 C3130 0.950 . S
H3104 C3133 0.950 . S
H3105 C3134 0.950 . S
H3106 C3136 0.950 . S
H3107 C3137 0.950 . S
C3108 H3090 0.951 . S
C3108 C3109 1.366 . S
C3108 C3110 1.388 . S
C3109 C3108 1.366 . S
C3109 C3113 1.385 . S
C3110 H3091 0.951 . S
C3110 C3108 1.388 . S
C3110 C3111 1.366 . S
C3111 C3110 1.366 . S
C3111 C3112 1.414 . S
C3111 C3114 1.499 . S
C3112 H3092 0.950 . S
C3112 C3111 1.414 . S
C3112 C3113 1.374 . S
C3113 H3093 0.950 . S
C3113 C3109 1.385 . S
C3113 C3112 1.374 . S
C3114 C3111 1.499 . S
C3114 C3115 1.373 . S
C3114 C3116 1.389 . S
C3115 H3094 0.950 . S
C3115 C3114 1.373 . S
C3115 C3131 1.377 . S
C3116 C3114 1.389 . S
C3116 C3117 1.524 . S
C3116 C3130 1.377 . S
C3117 C3116 1.524 . S
C3117 C3118 1.397 . S
C3117 C3122 1.363 . S
C3118 H3095 0.950 . S
C3118 C3117 1.397 . S
C3118 C3119 1.334 . S
C3119 H3096 0.950 . S
C3119 C3118 1.334 . S
C3119 C3120 1.287 . S
C3120 C3119 1.287 . S
C3120 C3121 1.524 . S
C3120 H3139 0.913 . S
C3121 H3097 0.950 . S
C3121 C3120 1.524 . S
C3121 C3122 1.415 . S
C3122 H3098 0.950 . S
C3122 C3117 1.363 . S
C3122 C3121 1.415 . S
C3123 H3099 0.951 . S
C3123 C3124 1.366 . S
C3123 C3125 1.388 . S
C3124 C3123 1.366 . S
C3124 C3128 1.385 . S
C3125 H3100 0.951 . S
C3125 C3123 1.388 . S
C3125 C3126 1.366 . S
C3126 C3125 1.366 . S
C3126 C3127 1.414 . S
C3126 C3129 1.499 . S
C3127 H3101 0.950 . S
C3127 C3126 1.414 . S
C3127 C3128 1.374 . S
C3128 H3102 0.950 . S
C3128 C3124 1.385 . S
C3128 C3127 1.374 . S
C3129 C3126 1.499 . S
C3129 C3130 1.373 . S
C3129 C3131 1.389 . S
C3130 H3103 0.950 . S
C3130 C3116 1.377 . S
C3130 C3129 1.373 . S
C3131 C3115 1.377 . S
C3131 C3129 1.389 . S
C3131 C3132 1.524 . S
C3132 C3131 1.524 . S
C3132 C3133 1.397 . S
C3132 C3137 1.363 . S
C3133 H3104 0.950 . S
C3133 C3132 1.397 . S
C3133 C3134 1.334 . S
C3134 H3105 0.950 . S
C3134 C3133 1.334 . S
C3134 C3135 1.287 . S
C3135 C3134 1.287 . S
C3135 C3136 1.524 . S
C3135 H3138 0.999 . S
C3136 H3106 0.950 . S
C3136 C3135 1.524 . S
C3136 C3137 1.415 . S
C3137 H3107 0.950 . S
C3137 C3132 1.363 . S
C3137 C3136 1.415 . S
H3138 C3135 0.999 . S
H3139 C3120 0.913 . S
H3140 C3158 0.951 . S
H3141 C3160 0.951 . S
H3142 C3162 0.950 . S
H3143 C3163 0.950 . S
H3144 C3165 0.950 . S
H3145 C3168 0.950 . S
H3146 C3169 0.950 . S
H3147 C3171 0.950 . S
H3148 C3172 0.950 . S
H3149 C3173 0.951 . S
H3150 C3175 0.951 . S
H3151 C3177 0.950 . S
H3152 C3178 0.950 . S
H3153 C3180 0.950 . S
H3154 C3183 0.950 . S
H3155 C3184 0.950 . S
H3156 C3186 0.950 . S
H3157 C3187 0.950 . S
C3158 H3140 0.951 . S
C3158 C3159 1.366 . S
C3158 C3160 1.388 . S
C3159 C3158 1.366 . S
C3159 C3163 1.385 . S
C3160 H3141 0.951 . S
C3160 C3158 1.388 . S
C3160 C3161 1.366 . S
C3161 C3160 1.366 . S
C3161 C3162 1.414 . S
C3161 C3164 1.499 . S
C3162 H3142 0.950 . S
C3162 C3161 1.414 . S
C3162 C3163 1.374 . S
C3163 H3143 0.950 . S
C3163 C3159 1.385 . S
C3163 C3162 1.374 . S
C3164 C3161 1.499 . S
C3164 C3165 1.373 . S
C3164 C3166 1.389 . S
C3165 H3144 0.950 . S
C3165 C3164 1.373 . S
C3165 C3181 1.377 . S
C3166 C3164 1.389 . S
C3166 C3167 1.524 . S
C3166 C3180 1.377 . S
C3167 C3166 1.524 . S
C3167 C3168 1.397 . S
C3167 C3172 1.363 . S
C3168 H3145 0.950 . S
C3168 C3167 1.397 . S
C3168 C3169 1.334 . S
C3169 H3146 0.950 . S
C3169 C3168 1.334 . S
C3169 C3170 1.287 . S
C3170 C3169 1.287 . S
C3170 C3171 1.524 . S
C3170 H3189 0.913 . S
C3171 H3147 0.950 . S
C3171 C3170 1.524 . S
C3171 C3172 1.415 . S
C3172 H3148 0.950 . S
C3172 C3167 1.363 . S
C3172 C3171 1.415 . S
C3173 H3149 0.951 . S
C3173 C3174 1.366 . S
C3173 C3175 1.388 . S
C3174 C3173 1.366 . S
C3174 C3178 1.385 . S
C3175 H3150 0.951 . S
C3175 C3173 1.388 . S
C3175 C3176 1.366 . S
C3176 C3175 1.366 . S
C3176 C3177 1.414 . S
C3176 C3179 1.499 . S
C3177 H3151 0.950 . S
C3177 C3176 1.414 . S
C3177 C3178 1.374 . S
C3178 H3152 0.950 . S
C3178 C3174 1.385 . S
C3178 C3177 1.374 . S
C3179 C3176 1.499 . S
C3179 C3180 1.373 . S
C3179 C3181 1.389 . S
C3180 H3153 0.950 . S
C3180 C3166 1.377 . S
C3180 C3179 1.373 . S
C3181 C3165 1.377 . S
C3181 C3179 1.389 . S
C3181 C3182 1.524 . S
C3182 C3181 1.524 . S
C3182 C3183 1.397 . S
C3182 C3187 1.363 . S
C3183 H3154 0.950 . S
C3183 C3182 1.397 . S
C3183 C3184 1.334 . S
C3184 H3155 0.950 . S
C3184 C3183 1.334 . S
C3184 C3185 1.287 . S
C3185 C3184 1.287 . S
C3185 C3186 1.524 . S
C3185 H3188 0.999 . S
C3186 H3156 0.950 . S
C3186 C3185 1.524 . S
C3186 C3187 1.415 . S
C3187 H3157 0.950 . S
C3187 C3182 1.363 . S
C3187 C3186 1.415 . S
H3188 C3185 0.999 . S
H3189 C3170 0.913 . S
H3190 C3208 0.951 . S
H3191 C3210 0.951 . S
H3192 C3212 0.950 . S
H3193 C3213 0.950 . S
H3194 C3215 0.950 . S
H3195 C3218 0.950 . S
H3196 C3219 0.950 . S
H3197 C3221 0.950 . S
H3198 C3222 0.950 . S
H3199 C3223 0.951 . S
H3200 C3225 0.951 . S
H3201 C3227 0.950 . S
H3202 C3228 0.950 . S
H3203 C3230 0.950 . S
H3204 C3233 0.950 . S
H3205 C3234 0.950 . S
H3206 C3236 0.950 . S
H3207 C3237 0.950 . S
C3208 H3190 0.951 . S
C3208 C3209 1.366 . S
C3208 C3210 1.388 . S
C3209 C3208 1.366 . S
C3209 C3213 1.385 . S
C3210 H3191 0.951 . S
C3210 C3208 1.388 . S
C3210 C3211 1.366 . S
C3211 C3210 1.366 . S
C3211 C3212 1.414 . S
C3211 C3214 1.499 . S
C3212 H3192 0.950 . S
C3212 C3211 1.414 . S
C3212 C3213 1.374 . S
C3213 H3193 0.950 . S
C3213 C3209 1.385 . S
C3213 C3212 1.374 . S
C3214 C3211 1.499 . S
C3214 C3215 1.373 . S
C3214 C3216 1.389 . S
C3215 H3194 0.950 . S
C3215 C3214 1.373 . S
C3215 C3231 1.377 . S
C3216 C3214 1.389 . S
C3216 C3217 1.524 . S
C3216 C3230 1.377 . S
C3217 C3216 1.524 . S
C3217 C3218 1.397 . S
C3217 C3222 1.363 . S
C3218 H3195 0.950 . S
C3218 C3217 1.397 . S
C3218 C3219 1.334 . S
C3219 H3196 0.950 . S
C3219 C3218 1.334 . S
C3219 C3220 1.287 . S
C3220 C3219 1.287 . S
C3220 C3221 1.524 . S
C3220 H3239 0.913 . S
C3221 H3197 0.950 . S
C3221 C3220 1.524 . S
C3221 C3222 1.415 . S
C3222 H3198 0.950 . S
C3222 C3217 1.363 . S
C3222 C3221 1.415 . S
C3223 H3199 0.951 . S
C3223 C3224 1.366 . S
C3223 C3225 1.388 . S
C3224 C3223 1.366 . S
C3224 C3228 1.385 . S
C3225 H3200 0.951 . S
C3225 C3223 1.388 . S
C3225 C3226 1.366 . S
C3226 C3225 1.366 . S
C3226 C3227 1.414 . S
C3226 C3229 1.499 . S
C3227 H3201 0.950 . S
C3227 C3226 1.414 . S
C3227 C3228 1.374 . S
C3228 H3202 0.950 . S
C3228 C3224 1.385 . S
C3228 C3227 1.374 . S
C3229 C3226 1.499 . S
C3229 C3230 1.373 . S
C3229 C3231 1.389 . S
C3230 H3203 0.950 . S
C3230 C3216 1.377 . S
C3230 C3229 1.373 . S
C3231 C3215 1.377 . S
C3231 C3229 1.389 . S
C3231 C3232 1.524 . S
C3232 C3231 1.524 . S
C3232 C3233 1.397 . S
C3232 C3237 1.363 . S
C3233 H3204 0.950 . S
C3233 C3232 1.397 . S
C3233 C3234 1.334 . S
C3234 H3205 0.950 . S
C3234 C3233 1.334 . S
C3234 C3235 1.287 . S
C3235 C3234 1.287 . S
C3235 C3236 1.524 . S
C3235 H3238 0.999 . S
C3236 H3206 0.950 . S
C3236 C3235 1.524 . S
C3236 C3237 1.415 . S
C3237 H3207 0.950 . S
C3237 C3232 1.363 . S
C3237 C3236 1.415 . S
H3238 C3235 0.999 . S
H3239 C3220 0.913 . S
H3240 C3258 0.951 . S
H3241 C3260 0.951 . S
H3242 C3262 0.950 . S
H3243 C3263 0.950 . S
H3244 C3265 0.950 . S
H3245 C3268 0.950 . S
H3246 C3269 0.950 . S
H3247 C3271 0.950 . S
H3248 C3272 0.950 . S
H3249 C3273 0.951 . S
H3250 C3275 0.951 . S
H3251 C3277 0.950 . S
H3252 C3278 0.950 . S
H3253 C3280 0.950 . S
H3254 C3283 0.950 . S
H3255 C3284 0.950 . S
H3256 C3286 0.950 . S
H3257 C3287 0.950 . S
C3258 H3240 0.951 . S
C3258 C3259 1.366 . S
C3258 C3260 1.388 . S
C3259 C3258 1.366 . S
C3259 C3263 1.385 . S
C3260 H3241 0.951 . S
C3260 C3258 1.388 . S
C3260 C3261 1.366 . S
C3261 C3260 1.366 . S
C3261 C3262 1.414 . S
C3261 C3264 1.499 . S
C3262 H3242 0.950 . S
C3262 C3261 1.414 . S
C3262 C3263 1.374 . S
C3263 H3243 0.950 . S
C3263 C3259 1.385 . S
C3263 C3262 1.374 . S
C3264 C3261 1.499 . S
C3264 C3265 1.373 . S
C3264 C3266 1.389 . S
C3265 H3244 0.950 . S
C3265 C3264 1.373 . S
C3265 C3281 1.377 . S
C3266 C3264 1.389 . S
C3266 C3267 1.524 . S
C3266 C3280 1.377 . S
C3267 C3266 1.524 . S
C3267 C3268 1.397 . S
C3267 C3272 1.363 . S
C3268 H3245 0.950 . S
C3268 C3267 1.397 . S
C3268 C3269 1.334 . S
C3269 H3246 0.950 . S
C3269 C3268 1.334 . S
C3269 C3270 1.287 . S
C3270 C3269 1.287 . S
C3270 C3271 1.524 . S
C3270 H3289 0.913 . S
C3271 H3247 0.950 . S
C3271 C3270 1.524 . S
C3271 C3272 1.415 . S
C3272 H3248 0.950 . S
C3272 C3267 1.363 . S
C3272 C3271 1.415 . S
C3273 H3249 0.951 . S
C3273 C3274 1.366 . S
C3273 C3275 1.388 . S
C3274 C3273 1.366 . S
C3274 C3278 1.385 . S
C3275 H3250 0.951 . S
C3275 C3273 1.388 . S
C3275 C3276 1.366 . S
C3276 C3275 1.366 . S
C3276 C3277 1.414 . S
C3276 C3279 1.499 . S
C3277 H3251 0.950 . S
C3277 C3276 1.414 . S
C3277 C3278 1.374 . S
C3278 H3252 0.950 . S
C3278 C3274 1.385 . S
C3278 C3277 1.374 . S
C3279 C3276 1.499 . S
C3279 C3280 1.373 . S
C3279 C3281 1.389 . S
C3280 H3253 0.950 . S
C3280 C3266 1.377 . S
C3280 C3279 1.373 . S
C3281 C3265 1.377 . S
C3281 C3279 1.389 . S
C3281 C3282 1.524 . S
C3282 C3281 1.524 . S
C3282 C3283 1.397 . S
C3282 C3287 1.363 . S
C3283 H3254 0.950 . S
C3283 C3282 1.397 . S
C3283 C3284 1.334 . S
C3284 H3255 0.950 . S
C3284 C3283 1.334 . S
C3284 C3285 1.287 . S
C3285 C3284 1.287 . S
C3285 C3286 1.524 . S
C3285 H3288 0.999 . S
C3286 H3256 0.950 . S
C3286 C3285 1.524 . S
C3286 C3287 1.415 . S
C3287 H3257 0.950 . S
C3287 C3282 1.363 . S
C3287 C3286 1.415 . S
H3288 C3285 0.999 . S
H3289 C3270 0.913 . S
H3290 C3308 0.951 . S
H3291 C3310 0.951 . S
H3292 C3312 0.950 . S
H3293 C3313 0.950 . S
H3294 C3315 0.950 . S
H3295 C3318 0.950 . S
H3296 C3319 0.950 . S
H3297 C3321 0.950 . S
H3298 C3322 0.950 . S
H3299 C3323 0.951 . S
H3300 C3325 0.951 . S
H3301 C3327 0.950 . S
H3302 C3328 0.950 . S
H3303 C3330 0.950 . S
H3304 C3333 0.950 . S
H3305 C3334 0.950 . S
H3306 C3336 0.950 . S
H3307 C3337 0.950 . S
C3308 H3290 0.951 . S
C3308 C3309 1.366 . S
C3308 C3310 1.388 . S
C3309 C3308 1.366 . S
C3309 C3313 1.385 . S
C3310 H3291 0.951 . S
C3310 C3308 1.388 . S
C3310 C3311 1.366 . S
C3311 C3310 1.366 . S
C3311 C3312 1.414 . S
C3311 C3314 1.499 . S
C3312 H3292 0.950 . S
C3312 C3311 1.414 . S
C3312 C3313 1.374 . S
C3313 H3293 0.950 . S
C3313 C3309 1.385 . S
C3313 C3312 1.374 . S
C3314 C3311 1.499 . S
C3314 C3315 1.373 . S
C3314 C3316 1.389 . S
C3315 H3294 0.950 . S
C3315 C3314 1.373 . S
C3315 C3331 1.377 . S
C3316 C3314 1.389 . S
C3316 C3317 1.524 . S
C3316 C3330 1.377 . S
C3317 C3316 1.524 . S
C3317 C3318 1.397 . S
C3317 C3322 1.363 . S
C3318 H3295 0.950 . S
C3318 C3317 1.397 . S
C3318 C3319 1.334 . S
C3319 H3296 0.950 . S
C3319 C3318 1.334 . S
C3319 C3320 1.287 . S
C3320 C3319 1.287 . S
C3320 C3321 1.524 . S
C3320 H3339 0.913 . S
C3321 H3297 0.950 . S
C3321 C3320 1.524 . S
C3321 C3322 1.415 . S
C3322 H3298 0.950 . S
C3322 C3317 1.363 . S
C3322 C3321 1.415 . S
C3323 H3299 0.951 . S
C3323 C3324 1.366 . S
C3323 C3325 1.388 . S
C3324 C3323 1.366 . S
C3324 C3328 1.385 . S
C3325 H3300 0.951 . S
C3325 C3323 1.388 . S
C3325 C3326 1.366 . S
C3326 C3325 1.366 . S
C3326 C3327 1.414 . S
C3326 C3329 1.499 . S
C3327 H3301 0.950 . S
C3327 C3326 1.414 . S
C3327 C3328 1.374 . S
C3328 H3302 0.950 . S
C3328 C3324 1.385 . S
C3328 C3327 1.374 . S
C3329 C3326 1.499 . S
C3329 C3330 1.373 . S
C3329 C3331 1.389 . S
C3330 H3303 0.950 . S
C3330 C3316 1.377 . S
C3330 C3329 1.373 . S
C3331 C3315 1.377 . S
C3331 C3329 1.389 . S
C3331 C3332 1.524 . S
C3332 C3331 1.524 . S
C3332 C3333 1.397 . S
C3332 C3337 1.363 . S
C3333 H3304 0.950 . S
C3333 C3332 1.397 . S
C3333 C3334 1.334 . S
C3334 H3305 0.950 . S
C3334 C3333 1.334 . S
C3334 C3335 1.287 . S
C3335 C3334 1.287 . S
C3335 C3336 1.524 . S
C3335 H3338 0.999 . S
C3336 H3306 0.950 . S
C3336 C3335 1.524 . S
C3336 C3337 1.415 . S
C3337 H3307 0.950 . S
C3337 C3332 1.363 . S
C3337 C3336 1.415 . S
H3338 C3335 0.999 . S
H3339 C3320 0.913 . S
H3340 C3358 0.951 . S
H3341 C3360 0.951 . S
H3342 C3362 0.950 . S
H3343 C3363 0.950 . S
H3344 C3365 0.950 . S
H3345 C3368 0.950 . S
H3346 C3369 0.950 . S
H3347 C3371 0.950 . S
H3348 C3372 0.950 . S
H3349 C3373 0.951 . S
H3350 C3375 0.951 . S
H3351 C3377 0.950 . S
H3352 C3378 0.950 . S
H3353 C3380 0.950 . S
H3354 C3383 0.950 . S
H3355 C3384 0.950 . S
H3356 C3386 0.950 . S
H3357 C3387 0.950 . S
C3358 H3340 0.951 . S
C3358 C3359 1.366 . S
C3358 C3360 1.388 . S
C3359 C3358 1.366 . S
C3359 C3363 1.385 . S
C3360 H3341 0.951 . S
C3360 C3358 1.388 . S
C3360 C3361 1.366 . S
C3361 C3360 1.366 . S
C3361 C3362 1.414 . S
C3361 C3364 1.499 . S
C3362 H3342 0.950 . S
C3362 C3361 1.414 . S
C3362 C3363 1.374 . S
C3363 H3343 0.950 . S
C3363 C3359 1.385 . S
C3363 C3362 1.374 . S
C3364 C3361 1.499 . S
C3364 C3365 1.373 . S
C3364 C3366 1.389 . S
C3365 H3344 0.950 . S
C3365 C3364 1.373 . S
C3365 C3381 1.377 . S
C3366 C3364 1.389 . S
C3366 C3367 1.524 . S
C3366 C3380 1.377 . S
C3367 C3366 1.524 . S
C3367 C3368 1.397 . S
C3367 C3372 1.363 . S
C3368 H3345 0.950 . S
C3368 C3367 1.397 . S
C3368 C3369 1.334 . S
C3369 H3346 0.950 . S
C3369 C3368 1.334 . S
C3369 C3370 1.287 . S
C3370 C3369 1.287 . S
C3370 C3371 1.524 . S
C3370 H3389 0.913 . S
C3371 H3347 0.950 . S
C3371 C3370 1.524 . S
C3371 C3372 1.415 . S
C3372 H3348 0.950 . S
C3372 C3367 1.363 . S
C3372 C3371 1.415 . S
C3373 H3349 0.951 . S
C3373 C3374 1.366 . S
C3373 C3375 1.388 . S
C3374 C3373 1.366 . S
C3374 C3378 1.385 . S
C3375 H3350 0.951 . S
C3375 C3373 1.388 . S
C3375 C3376 1.366 . S
C3376 C3375 1.366 . S
C3376 C3377 1.414 . S
C3376 C3379 1.499 . S
C3377 H3351 0.950 . S
C3377 C3376 1.414 . S
C3377 C3378 1.374 . S
C3378 H3352 0.950 . S
C3378 C3374 1.385 . S
C3378 C3377 1.374 . S
C3379 C3376 1.499 . S
C3379 C3380 1.373 . S
C3379 C3381 1.389 . S
C3380 H3353 0.950 . S
C3380 C3366 1.377 . S
C3380 C3379 1.373 . S
C3381 C3365 1.377 . S
C3381 C3379 1.389 . S
C3381 C3382 1.524 . S
C3382 C3381 1.524 . S
C3382 C3383 1.397 . S
C3382 C3387 1.363 . S
C3383 H3354 0.950 . S
C3383 C3382 1.397 . S
C3383 C3384 1.334 . S
C3384 H3355 0.950 . S
C3384 C3383 1.334 . S
C3384 C3385 1.287 . S
C3385 C3384 1.287 . S
C3385 C3386 1.524 . S
C3385 H3388 0.999 . S
C3386 H3356 0.950 . S
C3386 C3385 1.524 . S
C3386 C3387 1.415 . S
C3387 H3357 0.950 . S
C3387 C3382 1.363 . S
C3387 C3386 1.415 . S
H3388 C3385 0.999 . S
H3389 C3370 0.913 . S
H3390 C3408 0.951 . S
H3391 C3410 0.951 . S
H3392 C3412 0.950 . S
H3393 C3413 0.950 . S
H3394 C3415 0.950 . S
H3395 C3418 0.950 . S
H3396 C3419 0.950 . S
H3397 C3421 0.950 . S
H3398 C3422 0.950 . S
H3399 C3423 0.951 . S
H3400 C3425 0.951 . S
H3401 C3427 0.950 . S
H3402 C3428 0.950 . S
H3403 C3430 0.950 . S
H3404 C3433 0.950 . S
H3405 C3434 0.950 . S
H3406 C3436 0.950 . S
H3407 C3437 0.950 . S
C3408 H3390 0.951 . S
C3408 C3409 1.366 . S
C3408 C3410 1.388 . S
C3409 C3408 1.366 . S
C3409 C3413 1.385 . S
C3410 H3391 0.951 . S
C3410 C3408 1.388 . S
C3410 C3411 1.366 . S
C3411 C3410 1.366 . S
C3411 C3412 1.414 . S
C3411 C3414 1.499 . S
C3412 H3392 0.950 . S
C3412 C3411 1.414 . S
C3412 C3413 1.374 . S
C3413 H3393 0.950 . S
C3413 C3409 1.385 . S
C3413 C3412 1.374 . S
C3414 C3411 1.499 . S
C3414 C3415 1.373 . S
C3414 C3416 1.389 . S
C3415 H3394 0.950 . S
C3415 C3414 1.373 . S
C3415 C3431 1.377 . S
C3416 C3414 1.389 . S
C3416 C3417 1.524 . S
C3416 C3430 1.377 . S
C3417 C3416 1.524 . S
C3417 C3418 1.397 . S
C3417 C3422 1.363 . S
C3418 H3395 0.950 . S
C3418 C3417 1.397 . S
C3418 C3419 1.334 . S
C3419 H3396 0.950 . S
C3419 C3418 1.334 . S
C3419 C3420 1.287 . S
C3420 C3419 1.287 . S
C3420 C3421 1.524 . S
C3420 H3439 0.913 . S
C3421 H3397 0.950 . S
C3421 C3420 1.524 . S
C3421 C3422 1.415 . S
C3422 H3398 0.950 . S
C3422 C3417 1.363 . S
C3422 C3421 1.415 . S
C3423 H3399 0.951 . S
C3423 C3424 1.366 . S
C3423 C3425 1.388 . S
C3424 C3423 1.366 . S
C3424 C3428 1.385 . S
C3425 H3400 0.951 . S
C3425 C3423 1.388 . S
C3425 C3426 1.366 . S
C3426 C3425 1.366 . S
C3426 C3427 1.414 . S
C3426 C3429 1.499 . S
C3427 H3401 0.950 . S
C3427 C3426 1.414 . S
C3427 C3428 1.374 . S
C3428 H3402 0.950 . S
C3428 C3424 1.385 . S
C3428 C3427 1.374 . S
C3429 C3426 1.499 . S
C3429 C3430 1.373 . S
C3429 C3431 1.389 . S
C3430 H3403 0.950 . S
C3430 C3416 1.377 . S
C3430 C3429 1.373 . S
C3431 C3415 1.377 . S
C3431 C3429 1.389 . S
C3431 C3432 1.524 . S
C3432 C3431 1.524 . S
C3432 C3433 1.397 . S
C3432 C3437 1.363 . S
C3433 H3404 0.950 . S
C3433 C3432 1.397 . S
C3433 C3434 1.334 . S
C3434 H3405 0.950 . S
C3434 C3433 1.334 . S
C3434 C3435 1.287 . S
C3435 C3434 1.287 . S
C3435 C3436 1.524 . S
C3435 H3438 0.999 . S
C3436 H3406 0.950 . S
C3436 C3435 1.524 . S
C3436 C3437 1.415 . S
C3437 H3407 0.950 . S
C3437 C3432 1.363 . S
C3437 C3436 1.415 . S
H3438 C3435 0.999 . S
H3439 C3420 0.913 . S
H3440 C3458 0.951 . S
H3441 C3460 0.951 . S
H3442 C3462 0.950 . S
H3443 C3463 0.950 . S
H3444 C3465 0.950 . S
H3445 C3468 0.950 . S
H3446 C3469 0.950 . S
H3447 C3471 0.950 . S
H3448 C3472 0.950 . S
H3449 C3473 0.951 . S
H3450 C3475 0.951 . S
H3451 C3477 0.950 . S
H3452 C3478 0.950 . S
H3453 C3480 0.950 . S
H3454 C3483 0.950 . S
H3455 C3484 0.950 . S
H3456 C3486 0.950 . S
H3457 C3487 0.950 . S
C3458 H3440 0.951 . S
C3458 C3459 1.366 . S
C3458 C3460 1.388 . S
C3459 C3458 1.366 . S
C3459 C3463 1.385 . S
C3460 H3441 0.951 . S
C3460 C3458 1.388 . S
C3460 C3461 1.366 . S
C3461 C3460 1.366 . S
C3461 C3462 1.414 . S
C3461 C3464 1.499 . S
C3462 H3442 0.950 . S
C3462 C3461 1.414 . S
C3462 C3463 1.374 . S
C3463 H3443 0.950 . S
C3463 C3459 1.385 . S
C3463 C3462 1.374 . S
C3464 C3461 1.499 . S
C3464 C3465 1.373 . S
C3464 C3466 1.389 . S
C3465 H3444 0.950 . S
C3465 C3464 1.373 . S
C3465 C3481 1.377 . S
C3466 C3464 1.389 . S
C3466 C3467 1.524 . S
C3466 C3480 1.377 . S
C3467 C3466 1.524 . S
C3467 C3468 1.397 . S
C3467 C3472 1.363 . S
C3468 H3445 0.950 . S
C3468 C3467 1.397 . S
C3468 C3469 1.334 . S
C3469 H3446 0.950 . S
C3469 C3468 1.334 . S
C3469 C3470 1.287 . S
C3470 C3469 1.287 . S
C3470 C3471 1.524 . S
C3470 H3489 0.913 . S
C3471 H3447 0.950 . S
C3471 C3470 1.524 . S
C3471 C3472 1.415 . S
C3472 H3448 0.950 . S
C3472 C3467 1.363 . S
C3472 C3471 1.415 . S
C3473 H3449 0.951 . S
C3473 C3474 1.366 . S
C3473 C3475 1.388 . S
C3474 C3473 1.366 . S
C3474 C3478 1.385 . S
C3475 H3450 0.951 . S
C3475 C3473 1.388 . S
C3475 C3476 1.366 . S
C3476 C3475 1.366 . S
C3476 C3477 1.414 . S
C3476 C3479 1.499 . S
C3477 H3451 0.950 . S
C3477 C3476 1.414 . S
C3477 C3478 1.374 . S
C3478 H3452 0.950 . S
C3478 C3474 1.385 . S
C3478 C3477 1.374 . S
C3479 C3476 1.499 . S
C3479 C3480 1.373 . S
C3479 C3481 1.389 . S
C3480 H3453 0.950 . S
C3480 C3466 1.377 . S
C3480 C3479 1.373 . S
C3481 C3465 1.377 . S
C3481 C3479 1.389 . S
C3481 C3482 1.524 . S
C3482 C3481 1.524 . S
C3482 C3483 1.397 . S
C3482 C3487 1.363 . S
C3483 H3454 0.950 . S
C3483 C3482 1.397 . S
C3483 C3484 1.334 . S
C3484 H3455 0.950 . S
C3484 C3483 1.334 . S
C3484 C3485 1.287 . S
C3485 C3484 1.287 . S
C3485 C3486 1.524 . S
C3485 H3488 0.999 . S
C3486 H3456 0.950 . S
C3486 C3485 1.524 . S
C3486 C3487 1.415 . S
C3487 H3457 0.950 . S
C3487 C3482 1.363 . S
C3487 C3486 1.415 . S
H3488 C3485 0.999 . S
H3489 C3470 0.913 . S
H3490 C3508 0.951 . S
H3491 C3510 0.951 . S
H3492 C3512 0.950 . S
H3493 C3513 0.950 . S
H3494 C3515 0.950 . S
H3495 C3518 0.950 . S
H3496 C3519 0.950 . S
H3497 C3521 0.950 . S
H3498 C3522 0.950 . S
H3499 C3523 0.951 . S
H3500 C3525 0.951 . S
H3501 C3527 0.950 . S
H3502 C3528 0.950 . S
H3503 C3530 0.950 . S
H3504 C3533 0.950 . S
H3505 C3534 0.950 . S
H3506 C3536 0.950 . S
H3507 C3537 0.950 . S
C3508 H3490 0.951 . S
C3508 C3509 1.366 . S
C3508 C3510 1.388 . S
C3509 C3508 1.366 . S
C3509 C3513 1.385 . S
C3510 H3491 0.951 . S
C3510 C3508 1.388 . S
C3510 C3511 1.366 . S
C3511 C3510 1.366 . S
C3511 C3512 1.414 . S
C3511 C3514 1.499 . S
C3512 H3492 0.950 . S
C3512 C3511 1.414 . S
C3512 C3513 1.374 . S
C3513 H3493 0.950 . S
C3513 C3509 1.385 . S
C3513 C3512 1.374 . S
C3514 C3511 1.499 . S
C3514 C3515 1.373 . S
C3514 C3516 1.389 . S
C3515 H3494 0.950 . S
C3515 C3514 1.373 . S
C3515 C3531 1.377 . S
C3516 C3514 1.389 . S
C3516 C3517 1.524 . S
C3516 C3530 1.377 . S
C3517 C3516 1.524 . S
C3517 C3518 1.397 . S
C3517 C3522 1.363 . S
C3518 H3495 0.950 . S
C3518 C3517 1.397 . S
C3518 C3519 1.334 . S
C3519 H3496 0.950 . S
C3519 C3518 1.334 . S
C3519 C3520 1.287 . S
C3520 C3519 1.287 . S
C3520 C3521 1.524 . S
C3520 H3539 0.913 . S
C3521 H3497 0.950 . S
C3521 C3520 1.524 . S
C3521 C3522 1.415 . S
C3522 H3498 0.950 . S
C3522 C3517 1.363 . S
C3522 C3521 1.415 . S
C3523 H3499 0.951 . S
C3523 C3524 1.366 . S
C3523 C3525 1.388 . S
C3524 C3523 1.366 . S
C3524 C3528 1.385 . S
C3525 H3500 0.951 . S
C3525 C3523 1.388 . S
C3525 C3526 1.366 . S
C3526 C3525 1.366 . S
C3526 C3527 1.414 . S
C3526 C3529 1.499 . S
C3527 H3501 0.950 . S
C3527 C3526 1.414 . S
C3527 C3528 1.374 . S
C3528 H3502 0.950 . S
C3528 C3524 1.385 . S
C3528 C3527 1.374 . S
C3529 C3526 1.499 . S
C3529 C3530 1.373 . S
C3529 C3531 1.389 . S
C3530 H3503 0.950 . S
C3530 C3516 1.377 . S
C3530 C3529 1.373 . S
C3531 C3515 1.377 . S
C3531 C3529 1.389 . S
C3531 C3532 1.524 . S
C3532 C3531 1.524 . S
C3532 C3533 1.397 . S
C3532 C3537 1.363 . S
C3533 H3504 0.950 . S
C3533 C3532 1.397 . S
C3533 C3534 1.334 . S
C3534 H3505 0.950 . S
C3534 C3533 1.334 . S
C3534 C3535 1.287 . S
C3535 C3534 1.287 . S
C3535 C3536 1.524 . S
C3535 H3538 0.999 . S
C3536 H3506 0.950 . S
C3536 C3535 1.524 . S
C3536 C3537 1.415 . S
C3537 H3507 0.950 . S
C3537 C3532 1.363 . S
C3537 C3536 1.415 . S
H3538 C3535 0.999 . S
H3539 C3520 0.913 . S
H3540 C3558 0.951 . S
H3541 C3560 0.951 . S
H3542 C3562 0.950 . S
H3543 C3563 0.950 . S
H3544 C3565 0.950 . S
H3545 C3568 0.950 . S
H3546 C3569 0.950 . S
H3547 C3571 0.950 . S
H3548 C3572 0.950 . S
H3549 C3573 0.951 . S
H3550 C3575 0.951 . S
H3551 C3577 0.950 . S
H3552 C3578 0.950 . S
H3553 C3580 0.950 . S
H3554 C3583 0.950 . S
H3555 C3584 0.950 . S
H3556 C3586 0.950 . S
H3557 C3587 0.950 . S
C3558 H3540 0.951 . S
C3558 C3559 1.366 . S
C3558 C3560 1.388 . S
C3559 C3558 1.366 . S
C3559 C3563 1.385 . S
C3560 H3541 0.951 . S
C3560 C3558 1.388 . S
C3560 C3561 1.366 . S
C3561 C3560 1.366 . S
C3561 C3562 1.414 . S
C3561 C3564 1.499 . S
C3562 H3542 0.950 . S
C3562 C3561 1.414 . S
C3562 C3563 1.374 . S
C3563 H3543 0.950 . S
C3563 C3559 1.385 . S
C3563 C3562 1.374 . S
C3564 C3561 1.499 . S
C3564 C3565 1.373 . S
C3564 C3566 1.389 . S
C3565 H3544 0.950 . S
C3565 C3564 1.373 . S
C3565 C3581 1.377 . S
C3566 C3564 1.389 . S
C3566 C3567 1.524 . S
C3566 C3580 1.377 . S
C3567 C3566 1.524 . S
C3567 C3568 1.397 . S
C3567 C3572 1.363 . S
C3568 H3545 0.950 . S
C3568 C3567 1.397 . S
C3568 C3569 1.334 . S
C3569 H3546 0.950 . S
C3569 C3568 1.334 . S
C3569 C3570 1.287 . S
C3570 C3569 1.287 . S
C3570 C3571 1.524 . S
C3570 H3589 0.913 . S
C3571 H3547 0.950 . S
C3571 C3570 1.524 . S
C3571 C3572 1.415 . S
C3572 H3548 0.950 . S
C3572 C3567 1.363 . S
C3572 C3571 1.415 . S
C3573 H3549 0.951 . S
C3573 C3574 1.366 . S
C3573 C3575 1.388 . S
C3574 C3573 1.366 . S
C3574 C3578 1.385 . S
C3575 H3550 0.951 . S
C3575 C3573 1.388 . S
C3575 C3576 1.366 . S
C3576 C3575 1.366 . S
C3576 C3577 1.414 . S
C3576 C3579 1.499 . S
C3577 H3551 0.950 . S
C3577 C3576 1.414 . S
C3577 C3578 1.374 . S
C3578 H3552 0.950 . S
C3578 C3574 1.385 . S
C3578 C3577 1.374 . S
C3579 C3576 1.499 . S
C3579 C3580 1.373 . S
C3579 C3581 1.389 . S
C3580 H3553 0.950 . S
C3580 C3566 1.377 . S
C3580 C3579 1.373 . S
C3581 C3565 1.377 . S
C3581 C3579 1.389 . S
C3581 C3582 1.524 . S
C3582 C3581 1.524 . S
C3582 C3583 1.397 . S
C3582 C3587 1.363 . S
C3583 H3554 0.950 . S
C3583 C3582 1.397 . S
C3583 C3584 1.334 . S
C3584 H3555 0.950 . S
C3584 C3583 1.334 . S
C3584 C3585 1.287 . S
C3585 C3584 1.287 . S
C3585 C3586 1.524 . S
C3585 H3588 0.999 . S
C3586 H3556 0.950 . S
C3586 C3585 1.524 . S
C3586 C3587 1.415 . S
C3587 H3557 0.950 . S
C3587 C3582 1.363 . S
C3587 C3586 1.415 . S
H3588 C3585 0.999 . S
H3589 C3570 0.913 . S
H3590 C3608 0.951 . S
H3591 C3610 0.951 . S
H3592 C3612 0.950 . S
H3593 C3613 0.950 . S
H3594 C3615 0.950 . S
H3595 C3618 0.950 . S
H3596 C3619 0.950 . S
H3597 C3621 0.950 . S
H3598 C3622 0.950 . S
H3599 C3623 0.951 . S
H3600 C3625 0.951 . S
H3601 C3627 0.950 . S
H3602 C3628 0.950 . S
H3603 C3630 0.950 . S
H3604 C3633 0.950 . S
H3605 C3634 0.950 . S
H3606 C3636 0.950 . S
H3607 C3637 0.950 . S
C3608 H3590 0.951 . S
C3608 C3609 1.366 . S
C3608 C3610 1.388 . S
C3609 C3608 1.366 . S
C3609 C3613 1.385 . S
C3610 H3591 0.951 . S
C3610 C3608 1.388 . S
C3610 C3611 1.366 . S
C3611 C3610 1.366 . S
C3611 C3612 1.414 . S
C3611 C3614 1.499 . S
C3612 H3592 0.950 . S
C3612 C3611 1.414 . S
C3612 C3613 1.374 . S
C3613 H3593 0.950 . S
C3613 C3609 1.385 . S
C3613 C3612 1.374 . S
C3614 C3611 1.499 . S
C3614 C3615 1.373 . S
C3614 C3616 1.389 . S
C3615 H3594 0.950 . S
C3615 C3614 1.373 . S
C3615 C3631 1.377 . S
C3616 C3614 1.389 . S
C3616 C3617 1.524 . S
C3616 C3630 1.377 . S
C3617 C3616 1.524 . S
C3617 C3618 1.397 . S
C3617 C3622 1.363 . S
C3618 H3595 0.950 . S
C3618 C3617 1.397 . S
C3618 C3619 1.334 . S
C3619 H3596 0.950 . S
C3619 C3618 1.334 . S
C3619 C3620 1.287 . S
C3620 C3619 1.287 . S
C3620 C3621 1.524 . S
C3620 H3639 0.913 . S
C3621 H3597 0.950 . S
C3621 C3620 1.524 . S
C3621 C3622 1.415 . S
C3622 H3598 0.950 . S
C3622 C3617 1.363 . S
C3622 C3621 1.415 . S
C3623 H3599 0.951 . S
C3623 C3624 1.366 . S
C3623 C3625 1.388 . S
C3624 C3623 1.366 . S
C3624 C3628 1.385 . S
C3625 H3600 0.951 . S
C3625 C3623 1.388 . S
C3625 C3626 1.366 . S
C3626 C3625 1.366 . S
C3626 C3627 1.414 . S
C3626 C3629 1.499 . S
C3627 H3601 0.950 . S
C3627 C3626 1.414 . S
C3627 C3628 1.374 . S
C3628 H3602 0.950 . S
C3628 C3624 1.385 . S
C3628 C3627 1.374 . S
C3629 C3626 1.499 . S
C3629 C3630 1.373 . S
C3629 C3631 1.389 . S
C3630 H3603 0.950 . S
C3630 C3616 1.377 . S
C3630 C3629 1.373 . S
C3631 C3615 1.377 . S
C3631 C3629 1.389 . S
C3631 C3632 1.524 . S
C3632 C3631 1.524 . S
C3632 C3633 1.397 . S
C3632 C3637 1.363 . S
C3633 H3604 0.950 . S
C3633 C3632 1.397 . S
C3633 C3634 1.334 . S
C3634 H3605 0.950 . S
C3634 C3633 1.334 . S
C3634 C3635 1.287 . S
C3635 C3634 1.287 . S
C3635 C3636 1.524 . S
C3635 H3638 0.999 . S
C3636 H3606 0.950 . S
C3636 C3635 1.524 . S
C3636 C3637 1.415 . S
C3637 H3607 0.950 . S
C3637 C3632 1.363 . S
C3637 C3636 1.415 . S
H3638 C3635 0.999 . S
H3639 C3620 0.913 . S
H3640 C3658 0.951 . S
H3641 C3660 0.951 . S
H3642 C3662 0.950 . S
H3643 C3663 0.950 . S
H3644 C3665 0.950 . S
H3645 C3668 0.950 . S
H3646 C3669 0.950 . S
H3647 C3671 0.950 . S
H3648 C3672 0.950 . S
H3649 C3673 0.951 . S
H3650 C3675 0.951 . S
H3651 C3677 0.950 . S
H3652 C3678 0.950 . S
H3653 C3680 0.950 . S
H3654 C3683 0.950 . S
H3655 C3684 0.950 . S
H3656 C3686 0.950 . S
H3657 C3687 0.950 . S
C3658 H3640 0.951 . S
C3658 C3659 1.366 . S
C3658 C3660 1.388 . S
C3659 C3658 1.366 . S
C3659 C3663 1.385 . S
C3660 H3641 0.951 . S
C3660 C3658 1.388 . S
C3660 C3661 1.366 . S
C3661 C3660 1.366 . S
C3661 C3662 1.414 . S
C3661 C3664 1.499 . S
C3662 H3642 0.950 . S
C3662 C3661 1.414 . S
C3662 C3663 1.374 . S
C3663 H3643 0.950 . S
C3663 C3659 1.385 . S
C3663 C3662 1.374 . S
C3664 C3661 1.499 . S
C3664 C3665 1.373 . S
C3664 C3666 1.389 . S
C3665 H3644 0.950 . S
C3665 C3664 1.373 . S
C3665 C3681 1.377 . S
C3666 C3664 1.389 . S
C3666 C3667 1.524 . S
C3666 C3680 1.377 . S
C3667 C3666 1.524 . S
C3667 C3668 1.397 . S
C3667 C3672 1.363 . S
C3668 H3645 0.950 . S
C3668 C3667 1.397 . S
C3668 C3669 1.334 . S
C3669 H3646 0.950 . S
C3669 C3668 1.334 . S
C3669 C3670 1.287 . S
C3670 C3669 1.287 . S
C3670 C3671 1.524 . S
C3670 H3689 0.913 . S
C3671 H3647 0.950 . S
C3671 C3670 1.524 . S
C3671 C3672 1.415 . S
C3672 H3648 0.950 . S
C3672 C3667 1.363 . S
C3672 C3671 1.415 . S
C3673 H3649 0.951 . S
C3673 C3674 1.366 . S
C3673 C3675 1.388 . S
C3674 C3673 1.366 . S
C3674 C3678 1.385 . S
C3675 H3650 0.951 . S
C3675 C3673 1.388 . S
C3675 C3676 1.366 . S
C3676 C3675 1.366 . S
C3676 C3677 1.414 . S
C3676 C3679 1.499 . S
C3677 H3651 0.950 . S
C3677 C3676 1.414 . S
C3677 C3678 1.374 . S
C3678 H3652 0.950 . S
C3678 C3674 1.385 . S
C3678 C3677 1.374 . S
C3679 C3676 1.499 . S
C3679 C3680 1.373 . S
C3679 C3681 1.389 . S
C3680 H3653 0.950 . S
C3680 C3666 1.377 . S
C3680 C3679 1.373 . S
C3681 C3665 1.377 . S
C3681 C3679 1.389 . S
C3681 C3682 1.524 . S
C3682 C3681 1.524 . S
C3682 C3683 1.397 . S
C3682 C3687 1.363 . S
C3683 H3654 0.950 . S
C3683 C3682 1.397 . S
C3683 C3684 1.334 . S
C3684 H3655 0.950 . S
C3684 C3683 1.334 . S
C3684 C3685 1.287 . S
C3685 C3684 1.287 . S
C3685 C3686 1.524 . S
C3685 H3688 0.999 . S
C3686 H3656 0.950 . S
C3686 C3685 1.524 . S
C3686 C3687 1.415 . S
C3687 H3657 0.950 . S
C3687 C3682 1.363 . S
C3687 C3686 1.415 . S
H3688 C3685 0.999 . S
H3689 C3670 0.913 . S
C1009 C177 1.434 . S
C1024 C290 1.375 . S
C1059 C190 1.461 . S
C1074 C374 1.405 . S
C1109 C164 1.429 . S
C1124 C468 1.420 . S
C1159 C151 1.405 . S
C1174 C384 1.397 1_556 S
C1224 C458 1.353 . S
C1209 C125 1.413 . S
C1259 C138 1.381 . S
C1274 C300 1.354 1_556 S
C1324 C301 1.432 . S
C1309 C147 1.438 . S
C1374 C385 1.459 . S
C1359 C121 1.459 . S
C1409 C134 1.457 . S
C1424 C477 1.468 1_556 S
C1459 C173 1.424 . S
C1474 C393 1.446 . S
C1509 C186 1.407 . S
C1524 C469 1.401 . S
C1574 C309 1.422 . S
C1559 C160 1.405 . S
C1624 C542 1.376 . S
C1609 C21 1.434 . S
C1659 C34 1.461 . S
C1674 C626 1.405 . S
C1709 C8 1.429 . S
C1724 C720 1.420 . S
C1759 C229 1.405 . S
C1774 C636 1.397 . S
C1809 C203 1.412 . S
C1824 C710 1.354 . S
C1859 C216 1.381 . S
C1874 C552 1.372 . S
C1909 C225 1.438 . S
C1924 C553 1.432 . S
C1959 C199 1.459 . S
C1974 C637 1.459 . S
C2024 C729 1.477 . S
C2009 C212 1.458 . S
C2059 C17 1.424 . S
C2074 C645 1.445 . S
C2124 C721 1.401 . S
C2109 C30 1.407 . S
C2159 C4 1.404 . S
C2174 C561 1.423 . S
C2224 C794 1.376 . S
C2209 C99 1.434 . S
C2259 C112 1.461 . S
C2274 C878 1.406 . S
C2324 C972 1.420 . S
C2309 C86 1.429 . S
C2374 C888 1.397 . S
C2359 C73 1.405 . S
C2424 C962 1.354 . S
C2409 C47 1.412 . S
C2459 C60 1.381 . S
C2474 C804 1.372 . S
C2509 C69 1.438 . S
C2524 C805 1.432 . S
C2559 C43 1.459 . S
C2574 C889 1.459 . S
C2624 C981 1.478 . S
C2609 C56 1.456 . S
C2659 C95 1.424 . S
C2674 C897 1.445 . S
C2709 C108 1.407 . S
C2724 C973 1.402 . S
C2759 C82 1.404 . S
C2774 C813 1.422 . S
C2809 C204 1.550 . S
C2824 C297 1.423 . S
C2874 C381 1.477 . S
C2859 C217 1.624 . S
C2909 C230 1.565 . S
C2924 C474 1.387 . S
C2959 C87 1.596 . S
C2974 C390 1.408 . S
C3009 C100 1.580 . S
C3024 C465 1.440 . S
C3074 C306 1.357 . S
C3059 C113 1.522 . S
C3109 C48 1.550 . S
C3124 C549 1.423 . S
C3159 C61 1.624 . S
C3174 C633 1.476 . S
C3209 C74 1.565 . S
C3224 C726 1.385 . S
C3259 C165 1.597 . S
C3274 C642 1.408 . S
C3324 C717 1.440 . S
C3309 C178 1.580 . S
C3359 C191 1.522 . S
C3374 C558 1.358 . S
C3409 C126 1.550 . S
C3424 C801 1.425 . S
C3459 C139 1.624 . S
C3474 C885 1.477 . S
C3524 C978 1.385 . S
C3509 C152 1.565 . S
C3559 C9 1.596 . S
C3574 C894 1.407 . S
C3609 C22 1.580 . S
C3624 C969 1.440 . S
C3659 C35 1.522 . S
C3674 C810 1.358 . S
