# Generated by pormake.
# Topology hwx, (6,3)-cn, num edge types: 1
# Building blocks:
#     Node 0, Type 0, BuildingBlock: OJICUG_clean_sbu_0, # of connection points: 6
#     Node 1, Type 0, BuildingBlock: OJICUG_clean_sbu_0, # of connection points: 6
#     Node 2, Type 0, BuildingBlock: OJICUG_clean_sbu_0, # of connection points: 6
#     Node 3, Type 0, BuildingBlock: OJICUG_clean_sbu_0, # of connection points: 6
#     Node 4, Type 1, BuildingBlock: MIDCAF_clean_linker_0, # of connection points: 3
#     Node 5, Type 1, BuildingBlock: MIDCAF_clean_linker_0, # of connection points: 3
#     Node 6, Type 1, BuildingBlock: MIDCAF_clean_linker_0, # of connection points: 3
#     Node 7, Type 1, BuildingBlock: MIDCAF_clean_linker_0, # of connection points: 3
#     Node 8, Type 1, BuildingBlock: MIDCAF_clean_linker_0, # of connection points: 3
#     Node 9, Type 1, BuildingBlock: MIDCAF_clean_linker_0, # of connection points: 3
#     Node 10, Type 1, BuildingBlock: MIDCAF_clean_linker_0, # of connection points: 3
#     Node 11, Type 1, BuildingBlock: MIDCAF_clean_linker_0, # of connection points: 3
#     Edge 12, Type (0, 1), BuildingBlock: XUDNAN_clean_linker_2, # of connection points: 2
#     Edge 13, Type (0, 1), BuildingBlock: XUDNAN_clean_linker_2, # of connection points: 2
#     Edge 14, Type (0, 1), BuildingBlock: XUDNAN_clean_linker_2, # of connection points: 2
#     Edge 15, Type (0, 1), BuildingBlock: XUDNAN_clean_linker_2, # of connection points: 2
#     Edge 16, Type (0, 1), BuildingBlock: XUDNAN_clean_linker_2, # of connection points: 2
#     Edge 17, Type (0, 1), BuildingBlock: XUDNAN_clean_linker_2, # of connection points: 2
#     Edge 18, Type (0, 1), BuildingBlock: XUDNAN_clean_linker_2, # of connection points: 2
#     Edge 19, Type (0, 1), BuildingBlock: XUDNAN_clean_linker_2, # of connection points: 2
#     Edge 20, Type (0, 1), BuildingBlock: XUDNAN_clean_linker_2, # of connection points: 2
#     Edge 21, Type (0, 1), BuildingBlock: XUDNAN_clean_linker_2, # of connection points: 2
#     Edge 22, Type (0, 1), BuildingBlock: XUDNAN_clean_linker_2, # of connection points: 2
#     Edge 23, Type (0, 1), BuildingBlock: XUDNAN_clean_linker_2, # of connection points: 2
#     Edge 24, Type (0, 1), BuildingBlock: XUDNAN_clean_linker_2, # of connection points: 2
#     Edge 25, Type (0, 1), BuildingBlock: XUDNAN_clean_linker_2, # of connection points: 2
#     Edge 26, Type (0, 1), BuildingBlock: XUDNAN_clean_linker_2, # of connection points: 2
#     Edge 27, Type (0, 1), BuildingBlock: XUDNAN_clean_linker_2, # of connection points: 2
#     Edge 28, Type (0, 1), BuildingBlock: XUDNAN_clean_linker_2, # of connection points: 2
#     Edge 29, Type (0, 1), BuildingBlock: XUDNAN_clean_linker_2, # of connection points: 2
#     Edge 30, Type (0, 1), BuildingBlock: XUDNAN_clean_linker_2, # of connection points: 2
#     Edge 31, Type (0, 1), BuildingBlock: XUDNAN_clean_linker_2, # of connection points: 2
#     Edge 32, Type (0, 1), BuildingBlock: XUDNAN_clean_linker_2, # of connection points: 2
#     Edge 33, Type (0, 1), BuildingBlock: XUDNAN_clean_linker_2, # of connection points: 2
#     Edge 34, Type (0, 1), BuildingBlock: XUDNAN_clean_linker_2, # of connection points: 2
#     Edge 35, Type (0, 1), BuildingBlock: XUDNAN_clean_linker_2, # of connection points: 2
# Relax obj value: 0.078
# Max RMSD: 0.103
# Mean RMSD: 0.095
data_MOF--net-hwx--node1-OJICUG_clean_sbu_0--node2-MIDCAF_clean_linker_0--edge1-XUDNAN_clean_linker_2
_symmetry_space_group_name_H-M    P1
_symmetry_Int_Tables_number       1
_symmetry_cell_setting            triclinic
loop_
_symmetry_equiv_pos_as_xyz
'x, y, z'
_cell_length_a     60.638491
_cell_length_b     60.675592
_cell_length_c     27.534081
_cell_angle_alpha  89.796675
_cell_angle_beta   90.309282
_cell_angle_gamma 90.037021
loop_
_atom_site_label
_atom_site_type_symbol
_atom_site_fract_x
_atom_site_fract_y
_atom_site_fract_z
_atom_type_partial_charge
Sc0 Sc 0.22517 0.2165 0.07192 0.0
Sc1 Sc 0.18153 0.18496 0.02379 0.0
Sc2 Sc 0.21394 0.2184 0.94653 0.0
O3 O 0.20689 0.20658 0.01398 0.0
C4 C 0.2186 0.26117 0.01222 0.0
C5 C 0.17611 0.21712 0.11372 0.0
C6 C 0.16124 0.21693 0.94278 0.0
C7 C 0.21812 0.16586 0.09678 0.0
C8 C 0.26231 0.21205 0.99121 0.0
C9 C 0.20467 0.16721 0.92788 0.0
O10 O 0.22256 0.25035 0.05083 0.0
O11 O 0.16791 0.20382 0.08292 0.0
O12 O 0.17978 0.22421 0.92853 0.0
O13 O 0.2292 0.18358 0.09944 0.0
O14 O 0.24903 0.21395 0.95559 0.0
O15 O 0.1928 0.16435 0.96538 0.0
O16 O 0.25608 0.21263 0.03514 0.0
O17 O 0.20038 0.16427 0.07225 0.0
O18 O 0.21297 0.18577 0.91633 0.0
O19 O 0.19644 0.22213 0.11489 0.0
O20 O 0.21553 0.25217 0.97108 0.0
O21 O 0.15944 0.20264 0.97632 0.0
Sc22 Sc 0.27661 0.72508 0.43048 0.0
Sc23 Sc 0.31664 0.68839 0.47629 0.0
Sc24 Sc 0.28404 0.72049 0.55643 0.0
O25 O 0.29246 0.71125 0.48782 0.0
C26 C 0.28337 0.76628 0.49988 0.0
C27 C 0.3258 0.72305 0.39153 0.0
C28 C 0.33669 0.71823 0.56078 0.0
C29 C 0.27979 0.67469 0.3991 0.0
C30 C 0.23728 0.71699 0.50499 0.0
C31 C 0.29204 0.66866 0.56884 0.0
O32 O 0.28072 0.75759 0.45848 0.0
O33 O 0.33179 0.70717 0.41871 0.0
O34 O 0.31808 0.72505 0.5755 0.0
O35 O 0.27144 0.69384 0.39682 0.0
O36 O 0.2491 0.71689 0.5432 0.0
O37 O 0.30445 0.66687 0.53208 0.0
O38 O 0.24494 0.72022 0.46278 0.0
O39 O 0.29647 0.66999 0.42542 0.0
O40 O 0.28367 0.68688 0.58198 0.0
O41 O 0.30654 0.73115 0.39198 0.0
O42 O 0.28383 0.75526 0.53916 0.0
O43 O 0.33904 0.70459 0.52619 0.0
Sc44 Sc 0.77633 0.78188 0.93341 0.0
Sc45 Sc 0.81805 0.81762 0.97727 0.0
Sc46 Sc 0.78883 0.7833 0.058 0.0
O47 O 0.79446 0.79425 0.98944 0.0
C48 C 0.73983 0.78455 0.01578 0.0
C49 C 0.77865 0.83302 0.90694 0.0
C50 C 0.79486 0.83486 0.07416 0.0
C51 C 0.82383 0.78661 0.8851 0.0
C52 C 0.78685 0.73892 0.99684 0.0
C53 C 0.84142 0.7879 0.05777 0.0
O54 O 0.7458 0.78375 0.97178 0.0
O55 O 0.79632 0.83646 0.9309 0.0
O56 O 0.78724 0.8161 0.08593 0.0
O57 O 0.80437 0.779 0.88734 0.0
O58 O 0.78994 0.74959 0.03588 0.0
O59 O 0.84238 0.80143 0.0225 0.0
O60 O 0.78152 0.74806 0.95673 0.0
O61 O 0.8317 0.8002 0.91574 0.0
O62 O 0.82333 0.78056 0.07426 0.0
O63 O 0.76935 0.81425 0.9047 0.0
O64 O 0.75346 0.78439 0.05093 0.0
O65 O 0.80682 0.83791 0.03685 0.0
Sc66 Sc 0.72765 0.2753 0.56685 0.0
Sc67 Sc 0.68243 0.30656 0.52617 0.0
Sc68 Sc 0.71464 0.27615 0.44237 0.0
O69 O 0.70816 0.28598 0.51166 0.0
C70 C 0.76274 0.28597 0.48509 0.0
C71 C 0.71901 0.32492 0.59881 0.0
C72 C 0.70236 0.32718 0.4291 0.0
C73 C 0.67954 0.27114 0.61208 0.0
C74 C 0.72475 0.23211 0.5012 0.0
C75 C 0.66196 0.2751 0.44431 0.0
O76 O 0.75695 0.28435 0.52913 0.0
O77 O 0.70135 0.32745 0.57441 0.0
O78 O 0.7111 0.3093 0.41467 0.0
O79 O 0.6997 0.26556 0.60932 0.0
O80 O 0.71864 0.24184 0.46244 0.0
O81 O 0.66021 0.28869 0.47914 0.0
O82 O 0.72893 0.2423 0.5403 0.0
O83 O 0.67097 0.28609 0.58544 0.0
O84 O 0.68047 0.26893 0.42765 0.0
O85 O 0.72957 0.30694 0.60001 0.0
O86 O 0.74978 0.28254 0.44938 0.0
O87 O 0.69165 0.32875 0.46854 0.0
C88 C 0.23079 0.57489 0.11473 0.0
C89 C 0.23765 0.56566 0.1591 0.0
C90 C 0.2441 0.54347 0.16091 0.0
C91 C 0.24342 0.53061 0.11889 0.0
H92 H 0.24125 0.46635 0.07005 0.0
H93 H 0.23514 0.42705 0.07819 0.0
H94 H 0.2146 0.42376 0.92785 0.0
H95 H 0.22132 0.46331 0.91916 0.0
H96 H 0.23785 0.5066 0.8525 0.0
H97 H 0.24456 0.52568 0.77568 0.0
H98 H 0.24981 0.58748 0.85246 0.0
H99 H 0.24252 0.56881 0.92826 0.0
H100 H 0.22521 0.56982 0.03895 0.0
H101 H 0.22597 0.59205 0.11244 0.0
H102 H 0.24945 0.53608 0.19484 0.0
H103 H 0.24843 0.5135 0.12117 0.0
N104 N 0.23474 0.50441 0.03182 0.0
N105 N 0.2353 0.50244 0.94666 0.0
N106 N 0.23759 0.53666 0.98561 0.0
C107 C 0.23405 0.49219 0.99059 0.0
C108 C 0.2372 0.52474 0.944 0.0
C109 C 0.23638 0.52664 0.02955 0.0
C110 C 0.23156 0.46802 0.99407 0.0
C111 C 0.23547 0.45731 0.03859 0.0
C112 C 0.23185 0.43476 0.04336 0.0
C113 C 0.224 0.42236 0.0039 0.0
C114 C 0.2207 0.43288 0.95888 0.0
C115 C 0.22451 0.45552 0.95396 0.0
C116 C 0.23975 0.53612 0.89669 0.0
C117 C 0.24019 0.5243 0.85285 0.0
C118 C 0.24413 0.5352 0.80885 0.0
C119 C 0.24769 0.5581 0.8079 0.0
C120 C 0.24673 0.5699 0.85162 0.0
C121 C 0.24273 0.55909 0.89535 0.0
C122 C 0.23675 0.53992 0.07432 0.0
C123 C 0.23051 0.5622 0.07268 0.0
C124 C 0.92171 0.72029 0.59819 0.0
C125 C 0.9267 0.73539 0.6353 0.0
C126 C 0.9483 0.74378 0.6388 0.0
C127 C 0.96404 0.7384 0.60372 0.0
H128 H 0.03298 0.71905 0.57162 0.0
H129 H 0.07248 0.71167 0.5797 0.0
H130 H 0.07677 0.70226 0.42468 0.0
H131 H 0.03758 0.7094 0.41635 0.0
H132 H 0.99804 0.72643 0.34911 0.0
H133 H 0.98153 0.73474 0.26997 0.0
H134 H 0.9171 0.73678 0.33605 0.0
H135 H 0.93329 0.72803 0.41423 0.0
H136 H 0.9325 0.7046 0.53311 0.0
H137 H 0.90549 0.71291 0.59533 0.0
H138 H 0.9527 0.75546 0.66686 0.0
H139 H 0.98021 0.74597 0.60556 0.0
N140 N 0.99491 0.72008 0.52768 0.0
N141 N -0.00107 0.72038 0.44281 0.0
N142 N 0.96397 0.72429 0.47702 0.0
C143 C 0.00806 0.71859 0.48792 0.0
C144 C 0.97689 0.72332 0.43708 0.0
C145 C 0.97281 0.72272 0.52221 0.0
C146 C 0.03205 0.71475 0.49334 0.0
C147 C 0.04235 0.71539 0.53926 0.0
C148 C 0.06495 0.71126 0.54395 0.0
C149 C 0.07759 0.70618 0.5029 0.0
C150 C 0.06734 0.70575 0.45707 0.0
C151 C 0.04487 0.71002 0.45231 0.0
C152 C 0.96703 0.72664 0.38821 0.0
C153 C 0.98031 0.72838 0.34661 0.0
C154 C 0.97089 0.73326 0.30129 0.0
C155 C 0.94801 0.7364 0.29665 0.0
C156 C 0.93474 0.7341 0.33805 0.0
C157 C 0.9441 0.72925 0.38315 0.0
C158 C 0.95824 0.72488 0.56441 0.0
C159 C 0.93721 0.71535 0.56275 0.0
C160 C 0.75969 0.42966 0.87848 0.0
C161 C 0.75244 0.43871 0.83425 0.0
C162 C 0.74446 0.46041 0.83298 0.0
C163 C 0.74388 0.47294 0.87552 0.0
H164 H 0.75653 0.53742 0.92921 0.0
H165 H 0.76675 0.57628 0.93042 0.0
H166 H 0.76195 0.57642 0.08682 0.0
H167 H 0.752 0.53761 0.08601 0.0
H168 H 0.72295 0.49062 0.13116 0.0
H169 H 0.71516 0.46943 0.20447 0.0
H170 H 0.753 0.41493 0.14759 0.0
H171 H 0.75943 0.43565 0.0734 0.0
H172 H 0.76416 0.43445 0.95472 0.0
H173 H 0.76572 0.41287 0.88029 0.0
H174 H 0.73878 0.46764 0.79913 0.0
H175 H 0.7376 0.48964 0.87382 0.0
N176 N 0.75089 0.49861 0.9653 0.0
N177 N 0.74661 0.4991 0.05 0.0
N178 N 0.74648 0.4655 0.00829 0.0
C179 C 0.74978 0.51013 0.00749 0.0
C180 C 0.74495 0.47678 0.05054 0.0
C181 C 0.74923 0.4763 0.96554 0.0
C182 C 0.75365 0.53426 0.00757 0.0
C183 C 0.75745 0.54574 0.96389 0.0
C184 C 0.76323 0.56805 0.96448 0.0
C185 C 0.76542 0.57929 0.00873 0.0
C186 C 0.7608 0.56806 0.05221 0.0
C187 C 0.75495 0.54582 0.05166 0.0
C188 C 0.7416 0.46469 0.0965 0.0
C189 C 0.72961 0.47412 0.13459 0.0
C190 C 0.72527 0.46197 0.17674 0.0
C191 C 0.73327 0.44029 0.18211 0.0
C192 C 0.74597 0.43127 0.14444 0.0
C193 C 0.74984 0.44322 0.10195 0.0
C194 C 0.75073 0.4637 0.92001 0.0
C195 C 0.75866 0.44196 0.92103 0.0
C196 C 0.07791 0.27208 0.39997 0.0
C197 C 0.06961 0.26791 0.35325 0.0
C198 C 0.04679 0.26512 0.34665 0.0
C199 C 0.0325 0.26671 0.38628 0.0
H200 H 0.96625 0.27304 0.42737 0.0
H201 H 0.92713 0.2813 0.41676 0.0
H202 H 0.92272 0.29863 0.56833 0.0
H203 H 0.96178 0.29045 0.57921 0.0
H204 H 0.00255 0.274 0.65109 0.0
H205 H 0.0202 0.26865 0.73046 0.0
H206 H 0.0826 0.25751 0.6596 0.0
H207 H 0.06543 0.26336 0.58146 0.0
H208 H 0.07084 0.2766 0.47493 0.0
H209 H 0.09547 0.27397 0.40618 0.0
H210 H 0.04003 0.26189 0.31088 0.0
H211 H 0.01497 0.26452 0.38031 0.0
N212 N 0.00424 0.27523 0.47058 0.0
N213 N 0.00019 0.2751 0.55552 0.0
N214 N 0.035 0.27023 0.52098 0.0
C215 C 0.99109 0.27689 0.51029 0.0
C216 C 0.02221 0.27165 0.56103 0.0
C217 C 0.02626 0.272 0.47578 0.0
C218 C 0.9672 0.28115 0.50416 0.0
C219 C 0.95696 0.27859 0.4585 0.0
C220 C 0.93455 0.28322 0.45238 0.0
C221 C 0.92198 0.29075 0.49161 0.0
C222 C 0.93212 0.29313 0.5373 0.0
C223 C 0.95446 0.28828 0.54358 0.0
C224 C 0.03251 0.26912 0.60973 0.0
C225 C 0.02007 0.27059 0.65259 0.0
C226 C 0.03016 0.26745 0.69804 0.0
C227 C 0.05286 0.26283 0.70145 0.0
C228 C 0.06521 0.26155 0.65857 0.0
C229 C 0.05523 0.26472 0.61347 0.0
C230 C 0.0409 0.27075 0.43314 0.0
C231 C 0.06376 0.2734 0.43944 0.0
C232 C 0.73265 0.92502 0.35881 0.0
C233 C 0.73528 0.93697 0.3154 0.0
C234 C 0.72883 0.95921 0.31399 0.0
C235 C 0.72034 0.96937 0.35541 0.0
H236 H 0.70758 0.03054 0.41182 0.0
H237 H 0.71175 0.07046 0.41784 0.0
H238 H 0.69891 0.06684 0.57168 0.0
H239 H 0.69483 0.02708 0.56617 0.0
H240 H 0.69803 0.98255 0.62122 0.0
H241 H 0.70538 0.96351 0.69762 0.0
H242 H 0.7235 0.9049 0.61868 0.0
H243 H 0.71568 0.92362 0.54248 0.0
H244 H 0.72278 0.92541 0.43299 0.0
H245 H 0.73777 0.90796 0.36145 0.0
H246 H 0.73037 0.96878 0.28091 0.0
H247 H 0.71584 0.98661 0.35326 0.0
N248 N 0.70741 0.99064 0.44492 0.0
N249 N 0.70161 0.98921 0.52899 0.0
N250 N 0.7099 0.95697 0.48651 0.0
C251 C 0.70259 0.0011 0.48712 0.0
C252 C 0.70515 0.96712 0.52902 0.0
C253 C 0.71096 0.96854 0.44427 0.0
C254 C 0.7013 0.02548 0.4887 0.0
C255 C 0.70525 0.03825 0.44682 0.0
C256 C 0.70755 0.06114 0.45013 0.0
C257 C 0.70602 0.07162 0.49535 0.0
C258 C 0.70058 0.05908 0.53651 0.0
C259 C 0.69819 0.03628 0.53324 0.0
C260 C 0.70654 0.95475 0.57551 0.0
C261 C 0.70324 0.96549 0.62008 0.0
C262 C 0.70756 0.95462 0.66395 0.0
C263 C 0.71528 0.93277 0.66428 0.0
C264 C 0.7174 0.92166 0.61984 0.0
C265 C 0.71304 0.93249 0.576 0.0
C266 C 0.71815 0.95749 0.39912 0.0
C267 C 0.72414 0.93511 0.40005 0.0
C268 C 0.58287 0.21499 0.90479 0.0
C269 C 0.57513 0.21967 0.85774 0.0
C270 C 0.55241 0.22279 0.85015 0.0
C271 C 0.5377 0.22123 0.88906 0.0
H272 H 0.47133 0.22171 0.92742 0.0
H273 H 0.43182 0.21878 0.91439 0.0
H274 H 0.42355 0.19785 0.06346 0.0
H275 H 0.46311 0.20165 0.07702 0.0
H276 H 0.50454 0.21664 0.15222 0.0
H277 H 0.52142 0.22246 0.23213 0.0
H278 H 0.58527 0.22884 0.1645 0.0
H279 H 0.56883 0.22241 0.08597 0.0
H280 H 0.57493 0.21018 0.97939 0.0
H281 H 0.60032 0.21282 0.91187 0.0
H282 H 0.54602 0.22634 0.81415 0.0
H283 H 0.52029 0.22382 0.88224 0.0
N284 N 0.50826 0.21447 0.97195 0.0
N285 N 0.50323 0.21492 0.05661 0.0
N286 N 0.53874 0.21719 0.02395 0.0
C287 C 0.49456 0.21377 0.01091 0.0
C288 C 0.5254 0.21672 0.0633 0.0
C289 C 0.53041 0.21605 0.97829 0.0
C290 C 0.47042 0.21191 0.0033 0.0
C291 C 0.46112 0.21646 0.95748 0.0
C292 C 0.43841 0.21463 0.94989 0.0
C293 C 0.42442 0.20794 0.98775 0.0
C294 C 0.43375 0.20336 0.03361 0.0
C295 C 0.45647 0.20543 0.04136 0.0
C296 C 0.53526 0.21907 0.11249 0.0
C297 C 0.52221 0.21905 0.15459 0.0
C298 C 0.53186 0.22247 0.20036 0.0
C299 C 0.55474 0.22599 0.20488 0.0
C300 C 0.5677 0.22568 0.16277 0.0
C301 C 0.55815 0.22218 0.11737 0.0
C302 C 0.54554 0.21683 0.9363 0.0
C303 C 0.56828 0.21365 0.94358 0.0
C304 C 0.26006 0.0725 0.64421 0.0
C305 C 0.25831 0.06116 0.68858 0.0
C306 C 0.26456 0.03888 0.69084 0.0
C307 C 0.27214 0.0281 0.64933 0.0
H308 H 0.29205 0.96725 0.59725 0.0
H309 H 0.29869 0.92756 0.59633 0.0
H310 H 0.30638 0.93004 0.44049 0.0
H311 H 0.30033 0.96943 0.44128 0.0
H312 H 0.28797 0.01114 0.3829 0.0
H313 H 0.28037 0.02977 0.306 0.0
H314 H 0.26747 0.09027 0.38301 0.0
H315 H 0.2754 0.07194 0.4596 0.0
H316 H 0.26842 0.07107 0.56926 0.0
H317 H 0.25505 0.08958 0.64102 0.0
H318 H 0.26359 0.02978 0.72467 0.0
H319 H 0.2766 0.01086 0.65213 0.0
N320 N 0.28566 0.00618 0.5607 0.0
N321 N 0.28989 0.00663 0.47606 0.0
N322 N 0.27959 0.03876 0.51665 0.0
C323 C 0.29064 0.99547 0.5189 0.0
C324 C 0.28445 0.02829 0.47463 0.0
C325 C 0.28018 0.02789 0.55982 0.0
C326 C 0.29564 0.97159 0.51933 0.0
C327 C 0.29535 0.95935 0.56284 0.0
C328 C 0.29904 0.9366 0.56236 0.0
C329 C 0.30315 0.92569 0.51841 0.0
C330 C 0.30368 0.93799 0.47511 0.0
C331 C 0.30003 0.96063 0.47556 0.0
C332 C 0.2821 0.03998 0.42758 0.0
C333 C 0.28381 0.0285 0.38344 0.0
C334 C 0.27936 0.03911 0.33936 0.0
C335 C 0.27322 0.06143 0.33848 0.0
C336 C 0.2724 0.07311 0.38239 0.0
C337 C 0.27679 0.06252 0.42641 0.0
C338 C 0.27354 0.0394 0.60474 0.0
C339 C 0.26762 0.06179 0.60288 0.0
C340 C 0.42643 0.75123 0.09804 0.0
C341 C 0.43186 0.76268 0.14061 0.0
C342 C 0.45099 0.77566 0.14211 0.0
C343 C 0.46469 0.77695 0.10162 0.0
H344 H 0.52856 0.79136 0.05988 0.0
H345 H 0.56769 0.79587 0.07577 0.0
H346 H 0.58246 0.76442 0.93908 0.0
H347 H 0.54307 0.76066 0.92232 0.0
H348 H 0.49704 0.74975 0.84717 0.0
H349 H 0.47923 0.74672 0.7668 0.0
H350 H 0.41971 0.77483 0.82519 0.0
H351 H 0.43699 0.77739 0.90489 0.0
H352 H 0.43527 0.74396 0.02471 0.0
H353 H 0.41163 0.74125 0.09618 0.0
H354 H 0.45541 0.7846 0.17473 0.0
H355 H 0.47945 0.78699 0.10369 0.0
N356 N 0.49541 0.77089 0.02147 0.0
N357 N 0.50036 0.7687 0.93707 0.0
N358 N 0.4651 0.7644 0.97069 0.0
C359 C 0.50894 0.77163 0.98239 0.0
C360 C 0.47833 0.76532 0.93111 0.0
C361 C 0.47355 0.76708 0.01591 0.0
C362 C 0.53274 0.77549 0.98998 0.0
C363 C 0.54014 0.78548 0.03306 0.0
C364 C 0.5626 0.78796 0.04233 0.0
C365 C 0.57825 0.78026 0.00905 0.0
C366 C 0.57085 0.77074 0.96532 0.0
C367 C 0.54829 0.76851 0.95574 0.0
C368 C 0.46836 0.76372 0.88224 0.0
C369 C 0.48018 0.75529 0.84261 0.0
C370 C 0.47005 0.75351 0.79688 0.0
C371 C 0.44825 0.76071 0.79014 0.0
C372 C 0.43662 0.76936 0.82956 0.0
C373 C 0.44649 0.77068 0.87519 0.0
C374 C 0.45916 0.7657 0.05872 0.0
C375 C 0.43985 0.75291 0.05721 0.0
H376 H 0.13492 0.20451 0.14593 0.0
H377 H 0.18412 0.25634 0.15772 0.0
H378 H 0.16008 0.27667 0.21336 0.0
H379 H 0.08612 0.24026 0.15327 0.0
H380 H 0.07087 0.22099 0.19006 0.0
H381 H 0.091 0.21108 0.14744 0.0
H382 H 0.1112 0.19008 0.21669 0.0
H383 H 0.09105 0.19977 0.25934 0.0
H384 H 0.11995 0.20491 0.27007 0.0
H385 H 0.13223 0.29063 0.27018 0.0
H386 H 0.10289 0.29613 0.3306 0.0
H387 H 0.07168 0.23522 0.28481 0.0
C388 C 0.1405 0.22022 0.15992 0.0
C389 C 0.1614 0.22881 0.14751 0.0
C390 C 0.16825 0.24932 0.16699 0.0
C391 C 0.15464 0.26112 0.1983 0.0
C392 C 0.13422 0.25221 0.20997 0.0
C393 C 0.12717 0.23218 0.19182 0.0
C394 C 0.10512 0.22568 0.21327 0.0
C395 C 0.08722 0.22443 0.17364 0.0
C396 C 0.10695 0.20382 0.24153 0.0
C397 C 0.1012 0.24496 0.24701 0.0
C398 C 0.11807 0.26021 0.24382 0.0
C399 C 0.11882 0.27892 0.27287 0.0
C400 C 0.10216 0.28186 0.30712 0.0
C401 C 0.0851 0.26611 0.31223 0.0
C402 C 0.08435 0.24769 0.28101 0.0
H403 H 0.26193 0.66421 0.64226 0.0
H404 H 0.31009 0.62745 0.55897 0.0
H405 H 0.30132 0.59398 0.60616 0.0
H406 H 0.27348 0.63975 0.75537 0.0
H407 H 0.24521 0.63939 0.77527 0.0
H408 H 0.25423 0.65999 0.73264 0.0
H409 H 0.22352 0.64794 0.67243 0.0
H410 H 0.21446 0.62719 0.71488 0.0
H411 H 0.22182 0.61951 0.6539 0.0
H412 H 0.28922 0.56523 0.66627 0.0
H413 H 0.27546 0.54381 0.73624 0.0
H414 H 0.23414 0.59901 0.77747 0.0
C415 C 0.27059 0.64913 0.63368 0.0
C416 C 0.28674 0.64852 0.59693 0.0
C417 C 0.29763 0.62837 0.58691 0.0
C418 C 0.29271 0.60923 0.61339 0.0
C419 C 0.27673 0.61045 0.6494 0.0
C420 C 0.2658 0.62987 0.65947 0.0
C421 C 0.25 0.62705 0.70133 0.0
C422 C 0.25611 0.64245 0.74364 0.0
C423 C 0.22603 0.63063 0.68462 0.0
C424 C 0.25423 0.60317 0.71415 0.0
C425 C 0.26952 0.5938 0.68351 0.0
C426 C 0.27698 0.57227 0.69009 0.0
C427 C 0.26896 0.56018 0.72975 0.0
C428 C 0.25369 0.56971 0.76233 0.0
C429 C 0.24589 0.59129 0.75344 0.0
H430 H 0.84637 0.75335 0.12055 0.0
H431 H 0.88301 0.80589 0.05015 0.0
H432 H 0.91634 0.7952 0.09683 0.0
H433 H 0.8679 0.76042 0.23514 0.0
H434 H 0.86877 0.73155 0.25066 0.0
H435 H 0.84894 0.74139 0.20699 0.0
H436 H 0.86353 0.71356 0.14359 0.0
H437 H 0.88342 0.70354 0.18724 0.0
H438 H 0.89245 0.71337 0.12877 0.0
H439 H 0.94415 0.78163 0.159 0.0
H440 H 0.96373 0.76656 0.23071 0.0
H441 H 0.90891 0.72225 0.25754 0.0
C442 C 0.86146 0.76245 0.11425 0.0
C443 C 0.86205 0.78052 0.08179 0.0
C444 C 0.88218 0.79194 0.0747 0.0
C445 C 0.9012 0.78595 0.10098 0.0
C446 C 0.89986 0.76834 0.13354 0.0
C447 C 0.88052 0.75664 0.13982 0.0
C448 C 0.88277 0.73944 0.17938 0.0
C449 C 0.86612 0.74346 0.22045 0.0
C450 C 0.88041 0.71609 0.15848 0.0
C451 C 0.90615 0.74387 0.19593 0.0
C452 C 0.91589 0.76037 0.16871 0.0
C453 C 0.93685 0.7684 0.17992 0.0
C454 C 0.94789 0.75967 0.22061 0.0
C455 C 0.93787 0.7432 0.24972 0.0
C456 C 0.91699 0.73487 0.23616 0.0
H457 H 0.69737 0.36066 0.6377 0.0
H458 H 0.76214 0.33121 0.62147 0.0
H459 H 0.77841 0.36064 0.67129 0.0
H460 H 0.71632 0.41938 0.64003 0.0
H461 H 0.69651 0.4268 0.68572 0.0
H462 H 0.69017 0.4053 0.6428 0.0
H463 H 0.68242 0.37827 0.7138 0.0
H464 H 0.6887 0.39964 0.75679 0.0
H465 H 0.70337 0.37383 0.75952 0.0
H466 H 0.78714 0.38983 0.73011 0.0
H467 H 0.78758 0.41719 0.79635 0.0
H468 H 0.7176 0.42849 0.77525 0.0
C469 C 0.71502 0.36075 0.64379 0.0
C470 C 0.72848 0.34367 0.62582 0.0
C471 C 0.75148 0.34405 0.63523 0.0
C472 C 0.76093 0.3608 0.66312 0.0
C473 C 0.7472 0.37713 0.68127 0.0
C474 C 0.72476 0.37733 0.67203 0.0
C475 C 0.71352 0.39562 0.6999 0.0
C476 C 0.70354 0.4128 0.66502 0.0
C477 C 0.69598 0.38628 0.73456 0.0
C478 C 0.73304 0.40504 0.72754 0.0
C479 C 0.75235 0.39431 0.71557 0.0
C480 C 0.77225 0.39869 0.73917 0.0
C481 C 0.77235 0.41415 0.77672 0.0
C482 C 0.7527 0.42501 0.79017 0.0
C483 C 0.73292 0.42076 0.76461 0.0
H484 H 0.65837 0.24252 0.37591 0.0
H485 H 0.61942 0.28926 0.45814 0.0
H486 H 0.58615 0.27796 0.41261 0.0
H487 H 0.6341 0.2522 0.26483 0.0
H488 H 0.63476 0.22403 0.2443 0.0
H489 H 0.65476 0.23348 0.28792 0.0
H490 H 0.64322 0.20234 0.34731 0.0
H491 H 0.62317 0.19272 0.30368 0.0
H492 H 0.61469 0.19961 0.36439 0.0
H493 H 0.55831 0.26526 0.35056 0.0
H494 H 0.53844 0.25215 0.2777 0.0
H495 H 0.59515 0.21241 0.23893 0.0
C496 C 0.6428 0.25012 0.38508 0.0
C497 C 0.64157 0.26682 0.42062 0.0
C498 C 0.62082 0.27637 0.43123 0.0
C499 C 0.60179 0.27002 0.40563 0.0
C500 C 0.6037 0.25386 0.37005 0.0
C501 C 0.62365 0.24388 0.36017 0.0
C502 C 0.62169 0.22816 0.31784 0.0
C503 C 0.63724 0.23488 0.27629 0.0
C504 C 0.62594 0.20429 0.33431 0.0
C505 C 0.59776 0.2316 0.30403 0.0
C506 C 0.58754 0.24625 0.33491 0.0
C507 C 0.56598 0.25339 0.32676 0.0
C508 C 0.55477 0.24576 0.28535 0.0
C509 C 0.56518 0.23121 0.25249 0.0
C510 C 0.58672 0.2236 0.26309 0.0
H511 H 0.23446 0.16525 0.85379 0.0
H512 H 0.18711 0.12544 0.93319 0.0
H513 H 0.197 0.0932 0.88325 0.0
H514 H 0.22471 0.1419 0.73744 0.0
H515 H 0.25324 0.14315 0.71962 0.0
H516 H 0.2426 0.1628 0.76232 0.0
H517 H 0.273 0.15162 0.82427 0.0
H518 H 0.28368 0.13184 0.78182 0.0
H519 H 0.27579 0.12311 0.84191 0.0
H520 H 0.21156 0.06555 0.82278 0.0
H521 H 0.22881 0.04516 0.75531 0.0
H522 H 0.26727 0.10317 0.71853 0.0
C523 C 0.22605 0.14981 0.86073 0.0
C524 C 0.20992 0.14793 0.89733 0.0
C525 C 0.1995 0.12732 0.90532 0.0
C526 C 0.20504 0.10889 0.87724 0.0
C527 C 0.22112 0.11135 0.84165 0.0
C528 C 0.23145 0.13131 0.83339 0.0
C529 C 0.24798 0.12977 0.79269 0.0
C530 C 0.24175 0.14533 0.75053 0.0
C531 C 0.2715 0.13435 0.8113 0.0
C532 C 0.2451 0.10589 0.77872 0.0
C533 C 0.22965 0.09547 0.80748 0.0
C534 C 0.22381 0.0735 0.80027 0.0
C535 C 0.2338 0.06201 0.7621 0.0
C536 C 0.24937 0.07258 0.73167 0.0
C537 C 0.25528 0.09469 0.74085 0.0
H538 H 0.35759 0.70239 0.33828 0.0
H539 H 0.32996 0.76656 0.37061 0.0
H540 H 0.35644 0.78406 0.3146 0.0
H541 H 0.41498 0.71963 0.32189 0.0
H542 H 0.41931 0.70137 0.27134 0.0
H543 H 0.39987 0.69409 0.31803 0.0
H544 H 0.36915 0.68979 0.25292 0.0
H545 H 0.38846 0.69704 0.20609 0.0
H546 H 0.36323 0.71243 0.21233 0.0
H547 H 0.38518 0.79448 0.25421 0.0
H548 H 0.41197 0.79677 0.1868 0.0
H549 H 0.41882 0.72567 0.18889 0.0
C550 C 0.35742 0.72015 0.33403 0.0
C551 C 0.34202 0.73323 0.35898 0.0
C552 C 0.34177 0.75634 0.3518 0.0
C553 C 0.35678 0.76641 0.32033 0.0
C554 C 0.37167 0.75306 0.29585 0.0
C555 C 0.37195 0.73042 0.30181 0.0
C556 C 0.38827 0.71972 0.26785 0.0
C557 C 0.4067 0.70802 0.2965 0.0
C558 C 0.37657 0.70381 0.23272 0.0
C559 C 0.39691 0.73987 0.24158 0.0
C560 C 0.38744 0.75897 0.25897 0.0
C561 C 0.39274 0.77967 0.24027 0.0
C562 C 0.40794 0.78083 0.20222 0.0
C563 C 0.41724 0.7614 0.18299 0.0
C564 C 0.41179 0.74071 0.20311 0.0
H565 H 0.74746 0.83133 0.8343 0.0
H566 H 0.78767 0.87698 0.9177 0.0
H567 H 0.77265 0.90797 0.86977 0.0
H568 H 0.75532 0.85674 0.72175 0.0
H569 H 0.72777 0.85184 0.69935 0.0
H570 H 0.73968 0.83351 0.74374 0.0
H571 H 0.70652 0.84021 0.80082 0.0
H572 H 0.69446 0.85858 0.7565 0.0
H573 H 0.6994 0.86799 0.81762 0.0
H574 H 0.75566 0.93356 0.80908 0.0
H575 H 0.73909 0.95181 0.73764 0.0
H576 H 0.70971 0.88968 0.69363 0.0
C577 C 0.75283 0.84787 0.8431 0.0
C578 C 0.76871 0.8517 0.8799 0.0
C579 C 0.77556 0.8736 0.88965 0.0
C580 C 0.76702 0.89134 0.86282 0.0
C581 C 0.75163 0.88694 0.8264 0.0
C582 C 0.74459 0.86576 0.81647 0.0
C583 C 0.72915 0.86536 0.77304 0.0
C584 C 0.73855 0.85102 0.73206 0.0
C585 C 0.70601 0.85758 0.7879 0.0
C586 C 0.72912 0.88954 0.75929 0.0
C587 C 0.74192 0.90175 0.791 0.0
C588 C 0.74532 0.92425 0.7844 0.0
C589 C 0.73571 0.9345 0.74382 0.0
C590 C 0.72296 0.92223 0.71012 0.0
C591 C 0.71937 0.89952 0.71865 0.0
H592 H 0.86846 0.77774 0.87955 0.0
H593 H 0.8082 0.7816 0.79409 0.0
H594 H 0.82848 0.77021 0.72127 0.0
H595 H 0.90623 0.79657 0.78476 0.0
H596 H 0.9277 0.7774 0.80135 0.0
H597 H 0.90894 0.78735 0.84683 0.0
H598 H 0.89858 0.74715 0.86906 0.0
H599 H 0.91726 0.73708 0.82361 0.0
H600 H 0.88868 0.7289 0.82221 0.0
H601 H 0.85426 0.75841 0.65856 0.0
H602 H 0.8845 0.74491 0.60802 0.0
H603 H 0.92842 0.74577 0.73336 0.0
C604 C 0.85971 0.77642 0.84529 0.0
C605 C 0.83683 0.78057 0.8422 0.0
C606 C 0.82573 0.77836 0.79712 0.0
C607 C 0.8371 0.772 0.75555 0.0
C608 C 0.85953 0.76771 0.75973 0.0
C609 C 0.8708 0.76966 0.80329 0.0
C610 C 0.89472 0.76279 0.79765 0.0
C611 C 0.91032 0.78219 0.80827 0.0
C612 C 0.90012 0.74279 0.83006 0.0
C613 C 0.89497 0.7567 0.74423 0.0
C614 C 0.87449 0.7599 0.72326 0.0
C615 C 0.87037 0.75562 0.67453 0.0
C616 C 0.88765 0.74771 0.64625 0.0
C617 C 0.90879 0.7438 0.66681 0.0
C618 C 0.91248 0.74856 0.71652 0.0
H619 H 0.70961 0.32971 0.33117 0.0
H620 H 0.70217 0.36996 0.46005 0.0
H621 H 0.70914 0.40345 0.41111 0.0
H622 H 0.75281 0.36044 0.27618 0.0
H623 H 0.74235 0.35734 0.21519 0.0
H624 H 0.73662 0.33657 0.26026 0.0
H625 H 0.69467 0.34095 0.24441 0.0
H626 H 0.70028 0.36162 0.19901 0.0
H627 H 0.68224 0.36785 0.24894 0.0
H628 H 0.71915 0.43229 0.34868 0.0
H629 H 0.72853 0.45455 0.27663 0.0
H630 H 0.72615 0.39549 0.1878 0.0
C631 C 0.70941 0.34558 0.34907 0.0
C632 C 0.70544 0.34726 0.3994 0.0
C633 C 0.70508 0.36832 0.42145 0.0
C634 C 0.7091 0.38742 0.39402 0.0
C635 C 0.71313 0.38516 0.34453 0.0
C636 C 0.71301 0.3648 0.32215 0.0
C637 C 0.71737 0.3669 0.26829 0.0
C638 C 0.73855 0.35458 0.25418 0.0
C639 C 0.69745 0.35886 0.23841 0.0
C640 C 0.72029 0.39159 0.26399 0.0
C641 C 0.71794 0.40183 0.30835 0.0
C642 C 0.7207 0.42449 0.31358 0.0
C643 C 0.72589 0.43703 0.27226 0.0
C644 C 0.72801 0.42693 0.22611 0.0
C645 C 0.72503 0.40386 0.22234 0.0
H646 H 0.15786 0.24765 0.86962 0.0
H647 H 0.11856 0.20372 0.95918 0.0
H648 H 0.08523 0.21452 0.9133 0.0
H649 H 0.11513 0.29102 0.85385 0.0
H650 H 0.12318 0.29624 0.79194 0.0
H651 H 0.14341 0.28721 0.83589 0.0
H652 H 0.15365 0.25441 0.78032 0.0
H653 H 0.13348 0.26328 0.73637 0.0
H654 H 0.13234 0.23568 0.76062 0.0
H655 H 0.05706 0.22662 0.85138 0.0
H656 H 0.03669 0.23875 0.77811 0.0
H657 H 0.09405 0.27582 0.73132 0.0
C658 C 0.14221 0.24057 0.88029 0.0
C659 C 0.14091 0.22481 0.91808 0.0
C660 C 0.12006 0.21586 0.93046 0.0
C661 C 0.10097 0.22195 0.90472 0.0
C662 C 0.10294 0.2372 0.86706 0.0
C663 C 0.12301 0.24652 0.85514 0.0
C664 C 0.12102 0.26124 0.81089 0.0
C665 C 0.12598 0.28536 0.82394 0.0
C666 C 0.136 0.25316 0.76963 0.0
C667 C 0.09689 0.25804 0.79859 0.0
C668 C 0.08663 0.24437 0.83175 0.0
C669 C 0.06479 0.23769 0.82569 0.0
C670 C 0.0533 0.24476 0.78406 0.0
C671 C 0.06374 0.25825 0.74892 0.0
C672 C 0.08561 0.26543 0.75731 0.0
H673 H 0.29804 0.637 0.36092 0.0
H674 H 0.23663 0.67329 0.37297 0.0
H675 H 0.21804 0.64596 0.32129 0.0
H676 H 0.29253 0.62514 0.23832 0.0
H677 H 0.30429 0.59789 0.24126 0.0
H678 H 0.31218 0.61825 0.28536 0.0
H679 H 0.3005 0.59189 0.3549 0.0
H680 H 0.29255 0.57139 0.31087 0.0
H681 H 0.27296 0.58068 0.35533 0.0
H682 H 0.20707 0.61801 0.26147 0.0
H683 H 0.20459 0.59096 0.19487 0.0
H684 H 0.27272 0.57231 0.22009 0.0
C685 C 0.28058 0.63884 0.35352 0.0
C686 C 0.26876 0.65721 0.37093 0.0
C687 C 0.24603 0.65939 0.35976 0.0
C688 C 0.23526 0.64386 0.33077 0.0
C689 C 0.24742 0.62622 0.31322 0.0
C690 C 0.26956 0.62354 0.32409 0.0
C691 C 0.2792 0.60428 0.29647 0.0
C692 C 0.29816 0.61185 0.26339 0.0
C693 C 0.28674 0.58597 0.33149 0.0
C694 C 0.25921 0.59716 0.26716 0.0
C695 C 0.24099 0.60984 0.27808 0.0
C696 C 0.22107 0.60767 0.25313 0.0
C697 C 0.21984 0.59239 0.21533 0.0
C698 C 0.23841 0.57955 0.2029 0.0
C699 C 0.25818 0.58162 0.22979 0.0
H700 H 0.37221 0.6977 0.60333 0.0
H701 H 0.34452 0.76172 0.56882 0.0
H702 H 0.37525 0.77985 0.61213 0.0
H703 H 0.38524 0.71018 0.72149 0.0
H704 H 0.41049 0.69457 0.72499 0.0
H705 H 0.38927 0.68666 0.6827 0.0
H706 H 0.41722 0.6893 0.61204 0.0
H707 H 0.43857 0.69731 0.6543 0.0
H708 H 0.43233 0.71454 0.60256 0.0
H709 H 0.40487 0.79088 0.66795 0.0
H710 H 0.4305 0.79412 0.73752 0.0
H711 H 0.43924 0.72327 0.73902 0.0
C712 C 0.37316 0.71552 0.60372 0.0
C713 C 0.35635 0.72843 0.58243 0.0
C714 C 0.35745 0.75167 0.58483 0.0
C715 C 0.37489 0.76208 0.60897 0.0
C716 C 0.39102 0.74898 0.63075 0.0
C717 C 0.39033 0.7262 0.62858 0.0
C718 C 0.40794 0.71605 0.66096 0.0
C719 C 0.39761 0.70099 0.69983 0.0
C720 C 0.42503 0.70356 0.63064 0.0
C721 C 0.41788 0.73663 0.68324 0.0
C722 C 0.40821 0.75545 0.66429 0.0
C723 C 0.41296 0.77635 0.68233 0.0
C724 C 0.42748 0.77805 0.72177 0.0
C725 C 0.43698 0.75898 0.74275 0.0
C726 C 0.43264 0.73809 0.72244 0.0
H727 H 0.76415 0.83558 0.14621 0.0
H728 H 0.81113 0.87734 0.07076 0.0
H729 H 0.79986 0.90885 0.12185 0.0
H730 H 0.72153 0.87639 0.1581 0.0
H731 H 0.71333 0.86671 0.21728 0.0
H732 H 0.72497 0.84777 0.17422 0.0
H733 H 0.75506 0.83669 0.23697 0.0
H734 H 0.74349 0.85553 0.28025 0.0
H735 H 0.77214 0.85776 0.26382 0.0
H736 H 0.78398 0.93544 0.18392 0.0
H737 H 0.76539 0.95448 0.25159 0.0
H738 H 0.72813 0.89501 0.28257 0.0
C739 C 0.77219 0.8513 0.14028 0.0
C740 C 0.78865 0.85393 0.10458 0.0
C741 C 0.79852 0.8749 0.09794 0.0
C742 C 0.79219 0.89289 0.12671 0.0
C743 C 0.77588 0.88963 0.16154 0.0
C744 C 0.76601 0.86934 0.16823 0.0
C745 C 0.74906 0.86991 0.20821 0.0
C746 C 0.72585 0.86491 0.18824 0.0
C747 C 0.75533 0.85404 0.24976 0.0
C748 C 0.75112 0.89367 0.22368 0.0
C749 C 0.76658 0.90486 0.19633 0.0
C750 C 0.77171 0.92688 0.20525 0.0
C751 C 0.76096 0.93759 0.24356 0.0
C752 C 0.74529 0.92625 0.27243 0.0
C753 C 0.74017 0.9041 0.26159 0.0
H754 H 0.63859 0.283 0.64619 0.0
H755 H 0.68871 0.23205 0.65728 0.0
H756 H 0.66578 0.21191 0.71604 0.0
H757 H 0.62507 0.28349 0.77108 0.0
H758 H 0.59599 0.28804 0.7615 0.0
H759 H 0.61554 0.29771 0.71732 0.0
H760 H 0.59506 0.27579 0.6502 0.0
H761 H 0.57549 0.26595 0.6943 0.0
H762 H 0.59068 0.2466 0.65793 0.0
H763 H 0.63863 0.19806 0.77599 0.0
H764 H 0.60947 0.1923 0.8369 0.0
H765 H 0.57705 0.25229 0.78858 0.0
C766 C 0.64463 0.2675 0.6606 0.0
C767 C 0.66546 0.25913 0.64704 0.0
C768 C 0.67288 0.2389 0.66722 0.0
C769 C 0.65991 0.22723 0.70041 0.0
C770 C 0.63956 0.23597 0.71316 0.0
C771 C 0.63195 0.25567 0.69411 0.0
C772 C 0.61002 0.262 0.7162 0.0
C773 C 0.61178 0.28412 0.74313 0.0
C774 C 0.59173 0.26261 0.67733 0.0
C775 C 0.60673 0.24297 0.7512 0.0
C776 C 0.62387 0.22803 0.74838 0.0
C777 C 0.62505 0.20956 0.77841 0.0
C778 C 0.60848 0.20647 0.81297 0.0
C779 C 0.59104 0.22184 0.81739 0.0
C780 C 0.58999 0.2401 0.78544 0.0
H781 H 0.25015 0.16435 0.16733 0.0
H782 H 0.20381 0.12315 0.08806 0.0
H783 H 0.21598 0.09088 0.13588 0.0
H784 H 0.29399 0.12278 0.18152 0.0
H785 H 0.30087 0.13189 0.24198 0.0
H786 H 0.29023 0.15126 0.19796 0.0
H787 H 0.2589 0.16188 0.25712 0.0
H788 H 0.26941 0.14258 0.30123 0.0
H789 H 0.24116 0.14062 0.28097 0.0
H790 H 0.23105 0.06379 0.19631 0.0
H791 H 0.2466 0.04432 0.26748 0.0
H792 H 0.28316 0.10318 0.30692 0.0
C793 C 0.24279 0.14849 0.15939 0.0
C794 C 0.22606 0.14629 0.12383 0.0
C795 C 0.21663 0.12527 0.11517 0.0
C796 C 0.22353 0.1068 0.14193 0.0
C797 C 0.23988 0.10962 0.17707 0.0
C798 C 0.24938 0.12994 0.18588 0.0
C799 C 0.26542 0.1289 0.22811 0.0
C800 C 0.28903 0.134 0.21137 0.0
C801 C 0.25828 0.14441 0.26928 0.0
C802 C 0.26298 0.10496 0.24257 0.0
C803 C 0.24845 0.09403 0.21223 0.0
C804 C 0.2427 0.07207 0.21992 0.0
C805 C 0.25171 0.06112 0.26028 0.0
C806 C 0.26616 0.07221 0.2926 0.0
C807 C 0.27214 0.09428 0.28289 0.0
H808 H 0.22898 0.29341 0.94548 0.0
H809 H 0.20241 0.28293 0.08985 0.0
H810 H 0.19824 0.32299 0.10012 0.0
H811 H 0.26117 0.3401 0.97703 0.0
H812 H 0.25676 0.35452 0.92046 0.0
H813 H 0.25574 0.32488 0.92211 0.0
H814 H 0.21653 0.32577 0.8842 0.0
H815 H 0.21742 0.35546 0.88257 0.0
H816 H 0.19517 0.34155 0.91319 0.0
H817 H 0.19788 0.36354 0.0965 0.0
H818 H 0.20377 0.4031 0.0815 0.0
H819 H 0.23267 0.38805 0.94145 0.0
C820 C 0.22204 0.29962 0.97891 0.0
C821 C 0.21597 0.28517 0.01685 0.0
C822 C 0.20729 0.29379 0.06048 0.0
C823 C 0.2047 0.31648 0.06654 0.0
C824 C 0.21103 0.33033 0.02877 0.0
C825 C 0.21968 0.32234 0.98594 0.0
C826 C 0.22666 0.34104 0.95275 0.0
C827 C 0.25156 0.34007 0.94251 0.0
C828 C 0.21313 0.34095 0.90537 0.0
C829 C 0.22086 0.36068 0.98404 0.0
C830 C 0.21156 0.35405 0.02737 0.0
C831 C 0.2052 0.369 0.06277 0.0
C832 C 0.20878 0.39142 0.05405 0.0
C833 C 0.21892 0.39866 0.01057 0.0
C834 C 0.22471 0.38305 0.97483 0.0
H835 H 0.20339 0.73575 0.55639 0.0
H836 H 0.21963 0.68239 0.45868 0.0
H837 H 0.18064 0.67081 0.45683 0.0
H838 H 0.15778 0.7071 0.62267 0.0
H839 H 0.14118 0.7317 0.62515 0.0
H840 H 0.17084 0.73377 0.62552 0.0
H841 H 0.16912 0.75974 0.55067 0.0
H842 H 0.13953 0.75776 0.55011 0.0
H843 H 0.15493 0.75075 0.49653 0.0
H844 H 0.14031 0.6671 0.45862 0.0
H845 H 0.10006 0.67263 0.4603 0.0
H846 H 0.1089 0.72936 0.55398 0.0
C847 C 0.19867 0.72133 0.53573 0.0
C848 C 0.21429 0.70975 0.50802 0.0
C849 C 0.20771 0.69134 0.48017 0.0
C850 C 0.1857 0.68457 0.47918 0.0
C851 C 0.17049 0.69651 0.50605 0.0
C852 C 0.17657 0.71456 0.53368 0.0
C853 C 0.15648 0.7259 0.55455 0.0
C854 C 0.15658 0.72453 0.61029 0.0
C855 C 0.15493 0.74995 0.53688 0.0
C856 C 0.13824 0.71184 0.53297 0.0
C857 C 0.14678 0.69473 0.50595 0.0
C858 C 0.13336 0.68028 0.48005 0.0
C859 C 0.11057 0.68363 0.48095 0.0
C860 C 0.10144 0.70143 0.50716 0.0
C861 C 0.11545 0.71541 0.53433 0.0
H862 H 0.76592 0.70749 0.94135 0.0
H863 H 0.81295 0.71586 0.05932 0.0
H864 H 0.81458 0.67563 0.07058 0.0
H865 H 0.73558 0.6655 0.99661 0.0
H866 H 0.73027 0.65003 0.94203 0.0
H867 H 0.73475 0.67931 0.93853 0.0
H868 H 0.76659 0.67327 0.87763 0.0
H869 H 0.76211 0.64393 0.88067 0.0
H870 H 0.78903 0.65513 0.89375 0.0
H871 H 0.80885 0.63532 0.07441 0.0
H872 H 0.79634 0.59672 0.06973 0.0
H873 H 0.75238 0.61394 0.95058 0.0
C874 C 0.77695 0.70078 0.96869 0.0
C875 C 0.78935 0.71475 -0.00064 0.0
C876 C 0.80325 0.70544 0.03552 0.0
C877 C 0.80437 0.68261 0.04208 0.0
C878 C 0.7915 0.6693 0.01221 0.0
C879 C 0.77812 0.67795 0.97608 0.0
C880 C 0.76477 0.65997 0.95154 0.0
C881 C 0.73987 0.66395 0.95756 0.0
C882 C 0.77101 0.65796 0.8977 0.0
C883 C 0.77239 0.64003 0.98036 0.0
C884 C 0.78797 0.64581 0.01482 0.0
C885 C 0.79679 0.63052 0.04733 0.0
C886 C 0.78944 0.6087 0.04468 0.0
C887 C 0.77334 0.60238 0.00995 0.0
C888 C 0.76489 0.61826 0.9771 0.0
H889 H 0.79575 0.26388 0.43852 0.0
H890 H 0.78066 0.32397 0.51594 0.0
H891 H 0.82006 0.33423 0.51577 0.0
H892 H 0.84175 0.25115 0.50501 0.0
H893 H 0.85791 0.23992 0.45624 0.0
H894 H 0.82831 0.23936 0.45262 0.0
H895 H 0.82946 0.26026 0.37047 0.0
H896 H 0.85917 0.26069 0.37355 0.0
H897 H 0.84407 0.28608 0.36633 0.0
H898 H 0.86069 0.3353 0.51872 0.0
H899 H 0.90056 0.3274 0.52355 0.0
H900 H 0.89009 0.26608 0.44621 0.0
C901 C 0.80077 0.27959 0.45348 0.0
C902 C 0.78536 0.29346 0.47626 0.0
C903 C 0.79237 0.31343 0.49761 0.0
C904 C 0.81465 0.31937 0.49762 0.0
C905 C 0.82968 0.30506 0.47635 0.0
C906 C 0.8231 0.28563 0.45437 0.0
C907 C 0.84288 0.27196 0.4397 0.0
C908 C 0.84269 0.24926 0.46492 0.0
C909 C 0.84396 0.26962 0.38421 0.0
C910 C 0.86148 0.28631 0.45863 0.0
C911 C 0.85347 0.30548 0.47892 0.0
C912 C 0.86723 0.32055 0.50219 0.0
C913 C 0.8898 0.31584 0.50514 0.0
C914 C 0.89835 0.29618 0.48515 0.0
C915 C 0.88402 0.28143 0.46096 0.0
H916 H 0.70446 0.20154 0.44159 0.0
H917 H 0.74936 0.20785 0.56429 0.0
H918 H 0.75048 0.16757 0.57293 0.0
H919 H 0.67307 0.15801 0.49022 0.0
H920 H 0.6692 0.14352 0.43378 0.0
H921 H 0.67329 0.17291 0.43344 0.0
H922 H 0.70648 0.16854 0.37553 0.0
H923 H 0.7024 0.13911 0.37529 0.0
H924 H 0.72883 0.15041 0.39226 0.0
H925 H 0.74488 0.12752 0.5732 0.0
H926 H 0.73387 0.08876 0.56273 0.0
H927 H 0.69253 0.10723 0.43998 0.0
C928 C 0.71487 0.19439 0.46958 0.0
C929 C 0.72683 0.20785 0.50226 0.0
C930 C 0.73997 0.1979 0.53897 0.0
C931 C 0.74078 0.17501 0.54413 0.0
C932 C 0.72841 0.16224 0.51226 0.0
C933 C 0.71581 0.17143 0.47545 0.0
C934 C 0.70329 0.15375 0.44782 0.0
C935 C 0.67823 0.15726 0.45157 0.0
C936 C 0.7107 0.15291 0.39456 0.0
C937 C 0.71058 0.13334 0.47554 0.0
C938 C 0.72513 0.13872 0.51241 0.0
C939 C 0.73362 0.12301 0.54428 0.0
C940 C 0.72712 0.10109 0.53831 0.0
C941 C 0.71226 0.09507 0.50079 0.0
C942 C 0.70401 0.11141 0.46877 0.0
H943 H 0.29688 0.21991 0.05316 0.0
H944 H 0.28156 0.19803 0.90682 0.0
H945 H 0.32137 0.19353 0.89065 0.0
H946 H 0.34437 0.25156 0.02142 0.0
H947 H 0.35938 0.24464 0.07606 0.0
H948 H 0.3297 0.24524 0.07652 0.0
H949 H 0.32898 0.20498 0.10837 0.0
H950 H 0.35868 0.20423 0.10787 0.0
H951 H 0.3431 0.18379 0.07497 0.0
H952 H 0.3629 0.19124 0.89089 0.0
H953 H 0.40298 0.19299 0.9059 0.0
H954 H 0.39087 0.21838 0.05066 0.0
C955 C 0.30185 0.21402 0.01779 0.0
C956 C 0.2861 0.20923 0.98131 0.0
C957 C 0.29334 0.20185 0.93529 0.0
C958 C 0.3159 0.19917 0.92583 0.0
C959 C 0.33097 0.20409 0.96263 0.0
C960 C 0.32425 0.21149 0.00757 0.0
C961 C 0.34376 0.2164 0.04031 0.0
C962 C 0.34433 0.24091 0.05438 0.0
C963 C 0.34361 0.20146 0.08555 0.0
C964 C 0.36255 0.2106 0.00678 0.0
C965 C 0.35484 0.20338 0.96228 0.0
C966 C 0.36912 0.19702 0.92549 0.0
C967 C 0.39189 0.19823 0.93429 0.0
C968 C 0.40021 0.20598 0.97939 0.0
C969 C 0.38518 0.21213 0.01602 0.0
H970 H 0.26782 0.79997 0.5575 0.0
H971 H 0.31466 0.78445 0.4442 0.0
H972 H 0.32762 0.82292 0.44371 0.0
H973 H 0.25227 0.85174 0.50749 0.0
H974 H 0.24899 0.86534 0.56511 0.0
H975 H 0.24504 0.83601 0.56077 0.0
H976 H 0.27429 0.83 0.62851 0.0
H977 H 0.27845 0.85935 0.63274 0.0
H978 H 0.30154 0.84143 0.62137 0.0
H979 H 0.33475 0.86259 0.45278 0.0
H980 H 0.333 0.90275 0.46457 0.0
H981 H 0.27983 0.89391 0.56791 0.0
C982 C 0.28094 0.80477 0.53309 0.0
C983 C 0.29031 0.78944 0.50084 0.0
C984 C 0.30721 0.79614 0.4688 0.0
C985 C 0.31482 0.81785 0.46861 0.0
C986 C 0.30519 0.8327 0.50041 0.0
C987 C 0.28844 0.82663 0.53166 0.0
C988 C 0.27964 0.84647 0.55866 0.0
C989 C 0.25503 0.8501 0.5473 0.0
C990 C 0.28373 0.84417 0.61359 0.0
C991 C 0.29381 0.86457 0.53695 0.0
C992 C 0.30872 0.85611 0.50422 0.0
C993 C 0.32315 0.86948 0.47831 0.0
C994 C 0.32194 0.89227 0.48503 0.0
C995 C 0.30616 0.90147 0.51681 0.0
C996 C 0.29225 0.88735 0.54387 0.0
H997 H 0.70621 0.7917 0.95101 0.0
H998 H 0.71938 0.7787 0.10371 0.0
H999 H 0.67931 0.77765 0.11927 0.0
H1000 H 0.65821 0.82675 0.96926 0.0
H1001 H 0.64411 0.81622 0.9164 0.0
H1002 H 0.67381 0.81707 0.91803 0.0
H1003 H 0.67513 0.77523 0.89966 0.0
H1004 H 0.64547 0.7742 0.89827 0.0
H1005 H 0.66063 0.75626 0.93868 0.0
H1006 H 0.63796 0.77536 0.11681 0.0
H1007 H 0.59828 0.77354 0.09745 0.0
H1008 H 0.6124 0.78961 0.94691 0.0
C1009 C 0.70074 0.78878 0.98786 0.0
C1010 C 0.71595 0.78519 0.02613 0.0
C1011 C 0.70804 0.78152 0.07381 0.0
C1012 C 0.68533 0.78088 0.08301 0.0
C1013 C 0.67082 0.78415 0.04423 0.0
C1014 C 0.67821 0.78823 0.99771 0.0
C1015 C 0.65926 0.79076 0.96219 0.0
C1016 C 0.65883 0.81409 0.94019 0.0
C1017 C 0.66019 0.77305 0.92237 0.0
C1018 C 0.64 0.78703 0.99585 0.0
C1019 C 0.647 0.7833 0.04301 0.0
C1020 C 0.63225 0.7786 0.08017 0.0
C1021 C 0.60972 0.77772 0.06881 0.0
C1022 C 0.60214 0.78163 0.0207 0.0
C1023 C 0.6176 0.78642 0.98395 0.0
loop_
_geom_bond_atom_site_label_1
_geom_bond_atom_site_label_2
_geom_bond_distance
_geom_bond_site_symmetry_2
_ccdc_geom_bond_type
Sc0 O3 2.035 . S
Sc0 O10 2.105 . S
Sc0 O13 2.105 . S
Sc0 O16 2.105 . S
Sc0 O19 2.105 . S
Sc1 O3 2.025 . S
Sc1 O11 2.113 . S
Sc1 O15 2.097 1_554 S
Sc1 O17 2.113 . S
Sc1 O21 2.097 1_554 S
Sc2 O3 2.015 1_556 S
Sc2 O12 2.105 . S
Sc2 O14 2.105 . S
Sc2 O18 2.105 . S
Sc2 O20 2.105 . S
O3 Sc0 2.035 . S
O3 Sc1 2.025 . S
O3 Sc2 2.015 1_554 S
C4 O10 1.275 . S
C4 O20 1.262 1_554 S
C5 O11 1.268 . S
C5 O19 1.268 . S
C6 O12 1.268 . S
C6 O21 1.268 . S
C7 O13 1.268 . S
C7 O17 1.268 . S
C8 O14 1.254 1_554 S
C8 O16 1.282 . S
C9 O15 1.268 . S
C9 O18 1.268 . S
O10 Sc0 2.105 . S
O10 C4 1.275 . S
O11 Sc1 2.113 . S
O11 C5 1.268 . S
O12 Sc2 2.105 . S
O12 C6 1.268 . S
O13 Sc0 2.105 . S
O13 C7 1.268 . S
O14 Sc2 2.105 . S
O14 C8 1.254 1_556 S
O15 Sc1 2.097 1_556 S
O15 C9 1.268 . S
O16 Sc0 2.105 . S
O16 C8 1.282 . S
O17 Sc1 2.113 . S
O17 C7 1.268 . S
O18 Sc2 2.105 . S
O18 C9 1.268 . S
O19 Sc0 2.105 . S
O19 C5 1.268 . S
O20 Sc2 2.105 . S
O20 C4 1.262 1_556 S
O21 Sc1 2.097 1_556 S
O21 C6 1.268 . S
Sc22 O25 2.025 . S
Sc22 O32 2.105 . S
Sc22 O35 2.105 . S
Sc22 O38 2.105 . S
Sc22 O41 2.105 . S
Sc23 O25 2.025 . S
Sc23 O33 2.105 . S
Sc23 O37 2.105 . S
Sc23 O39 2.105 . S
Sc23 O43 2.105 . S
Sc24 O25 2.025 . S
Sc24 O34 2.105 . S
Sc24 O36 2.105 . S
Sc24 O40 2.105 . S
Sc24 O42 2.105 . S
O25 Sc22 2.025 . S
O25 Sc23 2.025 . S
O25 Sc24 2.025 . S
C26 O32 1.268 . S
C26 O42 1.268 . S
C27 O33 1.268 . S
C27 O41 1.268 . S
C28 O34 1.268 . S
C28 O43 1.268 . S
C29 O35 1.268 . S
C29 O39 1.268 . S
C30 O36 1.268 . S
C30 O38 1.268 . S
C31 O37 1.268 . S
C31 O40 1.268 . S
O32 Sc22 2.105 . S
O32 C26 1.268 . S
O33 Sc23 2.105 . S
O33 C27 1.268 . S
O34 Sc24 2.105 . S
O34 C28 1.268 . S
O35 Sc22 2.105 . S
O35 C29 1.268 . S
O36 Sc24 2.105 . S
O36 C30 1.268 . S
O37 Sc23 2.105 . S
O37 C31 1.268 . S
O38 Sc22 2.105 . S
O38 C30 1.268 . S
O39 Sc23 2.105 . S
O39 C29 1.268 . S
O40 Sc24 2.105 . S
O40 C31 1.268 . S
O41 Sc22 2.105 . S
O41 C27 1.268 . S
O42 Sc24 2.105 . S
O42 C26 1.268 . S
O43 Sc23 2.105 . S
O43 C28 1.268 . S
Sc44 O47 2.015 1_556 S
Sc44 O54 2.105 . S
Sc44 O57 2.105 . S
Sc44 O60 2.105 . S
Sc44 O63 2.105 . S
Sc45 O47 2.025 . S
Sc45 O55 2.097 1_554 S
Sc45 O59 2.113 . S
Sc45 O61 2.097 1_554 S
Sc45 O65 2.113 . S
Sc46 O47 2.035 . S
Sc46 O56 2.105 . S
Sc46 O58 2.105 . S
Sc46 O62 2.105 . S
Sc46 O64 2.105 . S
O47 Sc44 2.015 1_554 S
O47 Sc45 2.025 . S
O47 Sc46 2.035 . S
C48 O54 1.262 1_554 S
C48 O64 1.275 . S
C49 O55 1.268 . S
C49 O63 1.268 . S
C50 O56 1.268 . S
C50 O65 1.268 . S
C51 O57 1.268 . S
C51 O61 1.268 . S
C52 O58 1.282 . S
C52 O60 1.254 1_554 S
C53 O59 1.268 . S
C53 O62 1.268 . S
O54 Sc44 2.105 . S
O54 C48 1.262 1_556 S
O55 Sc45 2.097 1_556 S
O55 C49 1.268 . S
O56 Sc46 2.105 . S
O56 C50 1.268 . S
O57 Sc44 2.105 . S
O57 C51 1.268 . S
O58 Sc46 2.105 . S
O58 C52 1.282 . S
O59 Sc45 2.113 . S
O59 C53 1.268 . S
O60 Sc44 2.105 . S
O60 C52 1.254 1_556 S
O61 Sc45 2.097 1_556 S
O61 C51 1.268 . S
O62 Sc46 2.105 . S
O62 C53 1.268 . S
O63 Sc44 2.105 . S
O63 C49 1.268 . S
O64 Sc46 2.105 . S
O64 C48 1.275 . S
O65 Sc45 2.113 . S
O65 C50 1.268 . S
Sc66 O69 2.025 . S
Sc66 O76 2.105 . S
Sc66 O79 2.105 . S
Sc66 O82 2.105 . S
Sc66 O85 2.105 . S
Sc67 O69 2.025 . S
Sc67 O77 2.105 . S
Sc67 O81 2.105 . S
Sc67 O83 2.105 . S
Sc67 O87 2.105 . S
Sc68 O69 2.025 . S
Sc68 O78 2.105 . S
Sc68 O80 2.105 . S
Sc68 O84 2.105 . S
Sc68 O86 2.105 . S
O69 Sc66 2.025 . S
O69 Sc67 2.025 . S
O69 Sc68 2.025 . S
C70 O76 1.268 . S
C70 O86 1.268 . S
C71 O77 1.268 . S
C71 O85 1.268 . S
C72 O78 1.268 . S
C72 O87 1.268 . S
C73 O79 1.268 . S
C73 O83 1.268 . S
C74 O80 1.268 . S
C74 O82 1.268 . S
C75 O81 1.268 . S
C75 O84 1.268 . S
O76 Sc66 2.105 . S
O76 C70 1.268 . S
O77 Sc67 2.105 . S
O77 C71 1.268 . S
O78 Sc68 2.105 . S
O78 C72 1.268 . S
O79 Sc66 2.105 . S
O79 C73 1.268 . S
O80 Sc68 2.105 . S
O80 C74 1.268 . S
O81 Sc67 2.105 . S
O81 C75 1.268 . S
O82 Sc66 2.105 . S
O82 C74 1.268 . S
O83 Sc67 2.105 . S
O83 C73 1.268 . S
O84 Sc68 2.105 . S
O84 C75 1.268 . S
O85 Sc66 2.105 . S
O85 C71 1.268 . S
O86 Sc68 2.105 . S
O86 C70 1.268 . S
O87 Sc67 2.105 . S
O87 C72 1.268 . S
C88 C89 1.384 . S
C88 H101 0.947 . S
C88 C123 1.382 . S
C89 C88 1.384 . S
C89 C90 1.378 . S
C90 C89 1.378 . S
C90 C91 1.378 . S
C90 H102 0.952 . S
C91 C90 1.378 . S
C91 H103 0.950 . S
C91 C122 1.383 . S
H92 C111 0.947 . S
H93 C112 0.946 . S
H94 C114 0.953 . S
H95 C115 0.945 . S
H96 C117 0.952 . S
H97 C118 0.949 . S
H98 C120 0.950 . S
H99 C121 0.948 . S
H100 C123 0.951 . S
H101 C88 0.947 . S
H102 C90 0.952 . S
H103 C91 0.950 . S
N104 C107 1.367 1_554 S
N104 C109 1.363 . S
N105 C107 1.386 . S
N105 C108 1.372 . S
N106 C108 1.361 . S
N106 C109 1.377 1_556 S
C107 N104 1.367 1_556 S
C107 N105 1.386 . S
C107 C110 1.480 . S
C108 N105 1.372 . S
C108 N106 1.361 . S
C108 C116 1.457 . S
C109 N104 1.363 . S
C109 N106 1.377 1_554 S
C109 C122 1.479 . S
C110 C107 1.480 . S
C110 C111 1.383 1_556 S
C110 C115 1.385 . S
C111 H92 0.947 . S
C111 C110 1.383 1_554 S
C111 C112 1.388 . S
C112 H93 0.946 . S
C112 C111 1.388 . S
C112 C113 1.384 1_554 S
C113 C112 1.384 1_556 S
C113 C114 1.377 . S
C114 H94 0.953 . S
C114 C113 1.377 . S
C114 C115 1.369 . S
C115 H95 0.945 . S
C115 C110 1.385 . S
C115 C114 1.369 . S
C116 C108 1.457 . S
C116 C117 1.372 . S
C116 C121 1.364 . S
C117 H96 0.952 . S
C117 C116 1.372 . S
C117 C118 1.389 . S
C118 H97 0.949 . S
C118 C117 1.389 . S
C118 C119 1.387 . S
C119 C118 1.387 . S
C119 C120 1.372 . S
C120 H98 0.950 . S
C120 C119 1.372 . S
C120 C121 1.379 . S
C121 H99 0.948 . S
C121 C116 1.364 . S
C121 C120 1.379 . S
C122 C91 1.383 . S
C122 C109 1.479 . S
C122 C123 1.398 . S
C123 C88 1.382 . S
C123 H100 0.951 . S
C123 C122 1.398 . S
C124 C125 1.384 . S
C124 H137 0.947 . S
C124 C159 1.382 . S
C125 C124 1.384 . S
C125 C126 1.378 . S
C126 C125 1.378 . S
C126 C127 1.378 . S
C126 H138 0.952 . S
C127 C126 1.378 . S
C127 H139 0.950 . S
C127 C158 1.383 . S
H128 C147 0.947 . S
H129 C148 0.946 . S
H130 C150 0.953 . S
H131 C151 0.945 . S
H132 C153 0.952 . S
H133 C154 0.949 . S
H134 C156 0.950 . S
H135 C157 0.948 . S
H136 C159 0.951 . S
H137 C124 0.947 . S
H138 C126 0.952 . S
H139 C127 0.950 . S
N140 C143 1.382 1_655 S
N140 C145 1.363 . S
N141 C143 1.371 1_655 S
N141 C144 1.372 . S
N142 C144 1.361 . S
N142 C145 1.377 . S
C143 N140 1.382 1_455 S
C143 N141 1.371 1_455 S
C143 C146 1.480 . S
C144 N141 1.372 . S
C144 N142 1.361 . S
C144 C152 1.457 . S
C145 N140 1.363 . S
C145 N142 1.377 . S
C145 C158 1.479 . S
C146 C143 1.480 . S
C146 C147 1.383 . S
C146 C151 1.385 . S
C147 H128 0.947 . S
C147 C146 1.383 . S
C147 C148 1.388 . S
C148 H129 0.946 . S
C148 C147 1.388 . S
C148 C149 1.384 . S
C149 C148 1.384 . S
C149 C150 1.377 . S
C150 H130 0.953 . S
C150 C149 1.377 . S
C150 C151 1.369 . S
C151 H131 0.945 . S
C151 C146 1.385 . S
C151 C150 1.369 . S
C152 C144 1.457 . S
C152 C153 1.372 . S
C152 C157 1.364 . S
C153 H132 0.952 . S
C153 C152 1.372 . S
C153 C154 1.389 . S
C154 H133 0.949 . S
C154 C153 1.389 . S
C154 C155 1.387 . S
C155 C154 1.387 . S
C155 C156 1.372 . S
C156 H134 0.950 . S
C156 C155 1.372 . S
C156 C157 1.379 . S
C157 H135 0.948 . S
C157 C152 1.364 . S
C157 C156 1.379 . S
C158 C127 1.383 . S
C158 C145 1.479 . S
C158 C159 1.398 . S
C159 C124 1.382 . S
C159 H136 0.951 . S
C159 C158 1.398 . S
C160 C161 1.384 . S
C160 H173 0.947 . S
C160 C195 1.382 . S
C161 C160 1.384 . S
C161 C162 1.378 . S
C162 C161 1.378 . S
C162 C163 1.378 . S
C162 H174 0.952 . S
C163 C162 1.378 . S
C163 H175 0.950 . S
C163 C194 1.383 . S
H164 C183 0.947 . S
H165 C184 0.946 . S
H166 C186 0.953 . S
H167 C187 0.945 . S
H168 C189 0.952 . S
H169 C190 0.949 . S
H170 C192 0.950 . S
H171 C193 0.948 . S
H172 C195 0.951 . S
H173 C160 0.947 . S
H174 C162 0.952 . S
H175 C163 0.950 . S
N176 C179 1.382 1_556 S
N176 C181 1.363 . S
N177 C179 1.371 . S
N177 C180 1.372 . S
N178 C180 1.361 . S
N178 C181 1.377 1_554 S
C179 N176 1.382 1_554 S
C179 N177 1.371 . S
C179 C182 1.480 . S
C180 N177 1.372 . S
C180 N178 1.361 . S
C180 C188 1.457 . S
C181 N176 1.363 . S
C181 N178 1.377 1_556 S
C181 C194 1.479 . S
C182 C179 1.480 . S
C182 C183 1.383 1_554 S
C182 C187 1.385 . S
C183 H164 0.947 . S
C183 C182 1.383 1_556 S
C183 C184 1.388 . S
C184 H165 0.946 . S
C184 C183 1.388 . S
C184 C185 1.384 1_556 S
C185 C184 1.384 1_554 S
C185 C186 1.377 . S
C186 H166 0.953 . S
C186 C185 1.377 . S
C186 C187 1.369 . S
C187 H167 0.945 . S
C187 C182 1.385 . S
C187 C186 1.369 . S
C188 C180 1.457 . S
C188 C189 1.372 . S
C188 C193 1.364 . S
C189 H168 0.952 . S
C189 C188 1.372 . S
C189 C190 1.389 . S
C190 H169 0.949 . S
C190 C189 1.389 . S
C190 C191 1.387 . S
C191 C190 1.387 . S
C191 C192 1.372 . S
C192 H170 0.950 . S
C192 C191 1.372 . S
C192 C193 1.379 . S
C193 H171 0.948 . S
C193 C188 1.364 . S
C193 C192 1.379 . S
C194 C163 1.383 . S
C194 C181 1.479 . S
C194 C195 1.398 . S
C195 C160 1.382 . S
C195 H172 0.951 . S
C195 C194 1.398 . S
C196 C197 1.384 . S
C196 H209 0.947 . S
C196 C231 1.382 . S
C197 C196 1.384 . S
C197 C198 1.378 . S
C198 C197 1.378 . S
C198 C199 1.378 . S
C198 H210 0.952 . S
C199 C198 1.378 . S
C199 H211 0.950 . S
C199 C230 1.383 . S
H200 C219 0.947 . S
H201 C220 0.946 . S
H202 C222 0.953 . S
H203 C223 0.945 . S
H204 C225 0.952 . S
H205 C226 0.949 . S
H206 C228 0.950 . S
H207 C229 0.948 . S
H208 C231 0.951 . S
H209 C196 0.947 . S
H210 C198 0.952 . S
H211 C199 0.950 . S
N212 C215 1.382 1_455 S
N212 C217 1.363 . S
N213 C215 1.371 1_455 S
N213 C216 1.372 . S
N214 C216 1.361 . S
N214 C217 1.377 . S
C215 N212 1.382 1_655 S
C215 N213 1.371 1_655 S
C215 C218 1.480 . S
C216 N213 1.372 . S
C216 N214 1.361 . S
C216 C224 1.457 . S
C217 N212 1.363 . S
C217 N214 1.377 . S
C217 C230 1.479 . S
C218 C215 1.480 . S
C218 C219 1.383 . S
C218 C223 1.385 . S
C219 H200 0.947 . S
C219 C218 1.383 . S
C219 C220 1.388 . S
C220 H201 0.946 . S
C220 C219 1.388 . S
C220 C221 1.384 . S
C221 C220 1.384 . S
C221 C222 1.377 . S
C222 H202 0.953 . S
C222 C221 1.377 . S
C222 C223 1.369 . S
C223 H203 0.945 . S
C223 C218 1.385 . S
C223 C222 1.369 . S
C224 C216 1.457 . S
C224 C225 1.372 . S
C224 C229 1.364 . S
C225 H204 0.952 . S
C225 C224 1.372 . S
C225 C226 1.389 . S
C226 H205 0.949 . S
C226 C225 1.389 . S
C226 C227 1.387 . S
C227 C226 1.387 . S
C227 C228 1.372 . S
C228 H206 0.950 . S
C228 C227 1.372 . S
C228 C229 1.379 . S
C229 H207 0.948 . S
C229 C224 1.364 . S
C229 C228 1.379 . S
C230 C199 1.383 . S
C230 C217 1.479 . S
C230 C231 1.398 . S
C231 C196 1.382 . S
C231 H208 0.951 . S
C231 C230 1.398 . S
C232 C233 1.384 . S
C232 H245 0.947 . S
C232 C267 1.382 . S
C233 C232 1.384 . S
C233 C234 1.378 . S
C234 C233 1.378 . S
C234 C235 1.378 . S
C234 H246 0.952 . S
C235 C234 1.378 . S
C235 H247 0.950 . S
C235 C266 1.383 . S
H236 C255 0.947 . S
H237 C256 0.946 . S
H238 C258 0.953 . S
H239 C259 0.945 . S
H240 C261 0.952 . S
H241 C262 0.949 . S
H242 C264 0.950 . S
H243 C265 0.948 . S
H244 C267 0.951 . S
H245 C232 0.947 . S
H246 C234 0.952 . S
H247 C235 0.950 . S
N248 C251 1.382 1_565 S
N248 C253 1.363 . S
N249 C251 1.371 1_565 S
N249 C252 1.372 . S
N250 C252 1.361 . S
N250 C253 1.377 . S
C251 N248 1.382 1_545 S
C251 N249 1.371 1_545 S
C251 C254 1.480 . S
C252 N249 1.372 . S
C252 N250 1.361 . S
C252 C260 1.457 . S
C253 N248 1.363 . S
C253 N250 1.377 . S
C253 C266 1.479 . S
C254 C251 1.480 . S
C254 C255 1.383 . S
C254 C259 1.385 . S
C255 H236 0.947 . S
C255 C254 1.383 . S
C255 C256 1.388 . S
C256 H237 0.946 . S
C256 C255 1.388 . S
C256 C257 1.384 . S
C257 C256 1.384 . S
C257 C258 1.377 . S
C258 H238 0.953 . S
C258 C257 1.377 . S
C258 C259 1.369 . S
C259 H239 0.945 . S
C259 C254 1.385 . S
C259 C258 1.369 . S
C260 C252 1.457 . S
C260 C261 1.372 . S
C260 C265 1.364 . S
C261 H240 0.952 . S
C261 C260 1.372 . S
C261 C262 1.389 . S
C262 H241 0.949 . S
C262 C261 1.389 . S
C262 C263 1.387 . S
C263 C262 1.387 . S
C263 C264 1.372 . S
C264 H242 0.950 . S
C264 C263 1.372 . S
C264 C265 1.379 . S
C265 H243 0.948 . S
C265 C260 1.364 . S
C265 C264 1.379 . S
C266 C235 1.383 . S
C266 C253 1.479 . S
C266 C267 1.398 . S
C267 C232 1.382 . S
C267 H244 0.951 . S
C267 C266 1.398 . S
C268 C269 1.384 . S
C268 H281 0.947 . S
C268 C303 1.382 . S
C269 C268 1.384 . S
C269 C270 1.378 . S
C270 C269 1.378 . S
C270 C271 1.378 . S
C270 H282 0.952 . S
C271 C270 1.378 . S
C271 H283 0.950 . S
C271 C302 1.383 . S
H272 C291 0.947 . S
H273 C292 0.946 . S
H274 C294 0.953 . S
H275 C295 0.945 . S
H276 C297 0.952 . S
H277 C298 0.949 . S
H278 C300 0.950 . S
H279 C301 0.948 . S
H280 C303 0.951 . S
H281 C268 0.947 . S
H282 C270 0.952 . S
H283 C271 0.950 . S
N284 C287 1.382 1_556 S
N284 C289 1.363 . S
N285 C287 1.371 . S
N285 C288 1.372 . S
N286 C288 1.361 . S
N286 C289 1.377 1_554 S
C287 N284 1.382 1_554 S
C287 N285 1.371 . S
C287 C290 1.480 . S
C288 N285 1.372 . S
C288 N286 1.361 . S
C288 C296 1.457 . S
C289 N284 1.363 . S
C289 N286 1.377 1_556 S
C289 C302 1.479 . S
C290 C287 1.480 . S
C290 C291 1.383 1_554 S
C290 C295 1.385 . S
C291 H272 0.947 . S
C291 C290 1.383 1_556 S
C291 C292 1.388 . S
C292 H273 0.946 . S
C292 C291 1.388 . S
C292 C293 1.384 1_556 S
C293 C292 1.384 1_554 S
C293 C294 1.377 . S
C294 H274 0.953 . S
C294 C293 1.377 . S
C294 C295 1.369 . S
C295 H275 0.945 . S
C295 C290 1.385 . S
C295 C294 1.369 . S
C296 C288 1.457 . S
C296 C297 1.372 . S
C296 C301 1.364 . S
C297 H276 0.952 . S
C297 C296 1.372 . S
C297 C298 1.389 . S
C298 H277 0.949 . S
C298 C297 1.389 . S
C298 C299 1.387 . S
C299 C298 1.387 . S
C299 C300 1.372 . S
C300 H278 0.950 . S
C300 C299 1.372 . S
C300 C301 1.379 . S
C301 H279 0.948 . S
C301 C296 1.364 . S
C301 C300 1.379 . S
C302 C271 1.383 . S
C302 C289 1.479 . S
C302 C303 1.398 . S
C303 C268 1.382 . S
C303 H280 0.951 . S
C303 C302 1.398 . S
C304 C305 1.384 . S
C304 H317 0.947 . S
C304 C339 1.382 . S
C305 C304 1.384 . S
C305 C306 1.378 . S
C306 C305 1.378 . S
C306 C307 1.378 . S
C306 H318 0.952 . S
C307 C306 1.378 . S
C307 H319 0.950 . S
C307 C338 1.383 . S
H308 C327 0.947 . S
H309 C328 0.946 . S
H310 C330 0.953 . S
H311 C331 0.945 . S
H312 C333 0.952 . S
H313 C334 0.949 . S
H314 C336 0.950 . S
H315 C337 0.948 . S
H316 C339 0.951 . S
H317 C304 0.947 . S
H318 C306 0.952 . S
H319 C307 0.950 . S
N320 C323 1.382 1_545 S
N320 C325 1.363 . S
N321 C323 1.371 1_545 S
N321 C324 1.372 . S
N322 C324 1.361 . S
N322 C325 1.377 . S
C323 N320 1.382 1_565 S
C323 N321 1.371 1_565 S
C323 C326 1.480 . S
C324 N321 1.372 . S
C324 N322 1.361 . S
C324 C332 1.457 . S
C325 N320 1.363 . S
C325 N322 1.377 . S
C325 C338 1.479 . S
C326 C323 1.480 . S
C326 C327 1.383 . S
C326 C331 1.385 . S
C327 H308 0.947 . S
C327 C326 1.383 . S
C327 C328 1.388 . S
C328 H309 0.946 . S
C328 C327 1.388 . S
C328 C329 1.384 . S
C329 C328 1.384 . S
C329 C330 1.377 . S
C330 H310 0.953 . S
C330 C329 1.377 . S
C330 C331 1.369 . S
C331 H311 0.945 . S
C331 C326 1.385 . S
C331 C330 1.369 . S
C332 C324 1.457 . S
C332 C333 1.372 . S
C332 C337 1.364 . S
C333 H312 0.952 . S
C333 C332 1.372 . S
C333 C334 1.389 . S
C334 H313 0.949 . S
C334 C333 1.389 . S
C334 C335 1.387 . S
C335 C334 1.387 . S
C335 C336 1.372 . S
C336 H314 0.950 . S
C336 C335 1.372 . S
C336 C337 1.379 . S
C337 H315 0.948 . S
C337 C332 1.364 . S
C337 C336 1.379 . S
C338 C307 1.383 . S
C338 C325 1.479 . S
C338 C339 1.398 . S
C339 C304 1.382 . S
C339 H316 0.951 . S
C339 C338 1.398 . S
C340 C341 1.384 . S
C340 H353 0.947 . S
C340 C375 1.382 . S
C341 C340 1.384 . S
C341 C342 1.378 . S
C342 C341 1.378 . S
C342 C343 1.378 . S
C342 H354 0.952 . S
C343 C342 1.378 . S
C343 H355 0.950 . S
C343 C374 1.383 . S
H344 C363 0.947 . S
H345 C364 0.946 . S
H346 C366 0.953 . S
H347 C367 0.945 . S
H348 C369 0.952 . S
H349 C370 0.949 . S
H350 C372 0.950 . S
H351 C373 0.948 . S
H352 C375 0.951 . S
H353 C340 0.947 . S
H354 C342 0.952 . S
H355 C343 0.950 . S
N356 C359 1.366 1_554 S
N356 C361 1.363 . S
N357 C359 1.388 . S
N357 C360 1.372 . S
N358 C360 1.361 . S
N358 C361 1.377 1_556 S
C359 N356 1.366 1_556 S
C359 N357 1.388 . S
C359 C362 1.480 . S
C360 N357 1.372 . S
C360 N358 1.361 . S
C360 C368 1.457 . S
C361 N356 1.363 . S
C361 N358 1.377 1_554 S
C361 C374 1.479 . S
C362 C359 1.480 . S
C362 C363 1.383 1_556 S
C362 C367 1.385 . S
C363 H344 0.947 . S
C363 C362 1.383 1_554 S
C363 C364 1.388 . S
C364 H345 0.946 . S
C364 C363 1.388 . S
C364 C365 1.384 1_554 S
C365 C364 1.384 1_556 S
C365 C366 1.377 . S
C366 H346 0.953 . S
C366 C365 1.377 . S
C366 C367 1.369 . S
C367 H347 0.945 . S
C367 C362 1.385 . S
C367 C366 1.369 . S
C368 C360 1.457 . S
C368 C369 1.372 . S
C368 C373 1.364 . S
C369 H348 0.952 . S
C369 C368 1.372 . S
C369 C370 1.389 . S
C370 H349 0.949 . S
C370 C369 1.389 . S
C370 C371 1.387 . S
C371 C370 1.387 . S
C371 C372 1.372 . S
C372 H350 0.950 . S
C372 C371 1.372 . S
C372 C373 1.379 . S
C373 H351 0.948 . S
C373 C368 1.364 . S
C373 C372 1.379 . S
C374 C343 1.383 . S
C374 C361 1.479 . S
C374 C375 1.398 . S
C375 C340 1.382 . S
C375 H352 0.951 . S
C375 C374 1.398 . S
H376 C388 0.930 . S
H377 C390 0.930 . S
H378 C391 0.930 . S
H379 C395 0.959 . S
H380 C395 0.959 . S
H381 C395 0.961 . S
H382 C396 0.960 . S
H383 C396 0.961 . S
H384 C396 0.959 . S
H385 C399 0.929 . S
H386 C400 0.931 . S
H387 C402 0.930 . S
C388 H376 0.930 . S
C388 C389 1.399 . S
C388 C393 1.399 . S
C389 C388 1.399 . S
C389 C390 1.376 . S
C390 H377 0.930 . S
C390 C389 1.376 . S
C390 C391 1.388 . S
C391 H378 0.930 . S
C391 C390 1.388 . S
C391 C392 1.390 . S
C392 C391 1.390 . S
C392 C393 1.394 . S
C392 C398 1.465 . S
C393 C388 1.399 . S
C393 C392 1.394 . S
C393 C394 1.516 . S
C394 C393 1.516 . S
C394 C395 1.502 . S
C394 C396 1.561 . S
C394 C397 1.526 . S
C395 H379 0.959 . S
C395 H380 0.959 . S
C395 H381 0.961 . S
C395 C394 1.502 . S
C396 H382 0.960 . S
C396 H383 0.961 . S
C396 H384 0.959 . S
C396 C394 1.561 . S
C397 C394 1.526 . S
C397 C398 1.396 . S
C397 C402 1.390 . S
C398 C392 1.465 . S
C398 C397 1.396 . S
C398 C399 1.399 . S
C399 H385 0.929 . S
C399 C398 1.399 . S
C399 C400 1.385 . S
C400 H386 0.931 . S
C400 C399 1.385 . S
C400 C401 1.389 . S
C401 C400 1.389 . S
C401 C402 1.387 . S
C402 H387 0.930 . S
C402 C397 1.390 . S
C402 C401 1.387 . S
H403 C415 0.930 . S
H404 C417 0.930 . S
H405 C418 0.930 . S
H406 C422 0.959 . S
H407 C422 0.959 . S
H408 C422 0.961 . S
H409 C423 0.960 . S
H410 C423 0.961 . S
H411 C423 0.959 . S
H412 C426 0.929 . S
H413 C427 0.931 . S
H414 C429 0.930 . S
C415 H403 0.930 . S
C415 C416 1.399 . S
C415 C420 1.399 . S
C416 C415 1.399 . S
C416 C417 1.376 . S
C417 H404 0.930 . S
C417 C416 1.376 . S
C417 C418 1.388 . S
C418 H405 0.930 . S
C418 C417 1.388 . S
C418 C419 1.390 . S
C419 C418 1.390 . S
C419 C420 1.394 . S
C419 C425 1.465 . S
C420 C415 1.399 . S
C420 C419 1.394 . S
C420 C421 1.516 . S
C421 C420 1.516 . S
C421 C422 1.502 . S
C421 C423 1.561 . S
C421 C424 1.526 . S
C422 H406 0.959 . S
C422 H407 0.959 . S
C422 H408 0.961 . S
C422 C421 1.502 . S
C423 H409 0.960 . S
C423 H410 0.961 . S
C423 H411 0.959 . S
C423 C421 1.561 . S
C424 C421 1.526 . S
C424 C425 1.396 . S
C424 C429 1.390 . S
C425 C419 1.465 . S
C425 C424 1.396 . S
C425 C426 1.399 . S
C426 H412 0.929 . S
C426 C425 1.399 . S
C426 C427 1.385 . S
C427 H413 0.931 . S
C427 C426 1.385 . S
C427 C428 1.389 . S
C428 C427 1.389 . S
C428 C429 1.387 . S
C429 H414 0.930 . S
C429 C424 1.390 . S
C429 C428 1.387 . S
H430 C442 0.930 . S
H431 C444 0.930 . S
H432 C445 0.930 . S
H433 C449 0.959 . S
H434 C449 0.959 . S
H435 C449 0.961 . S
H436 C450 0.960 . S
H437 C450 0.961 . S
H438 C450 0.959 . S
H439 C453 0.929 . S
H440 C454 0.931 . S
H441 C456 0.930 . S
C442 H430 0.930 . S
C442 C443 1.399 . S
C442 C447 1.399 . S
C443 C442 1.399 . S
C443 C444 1.376 . S
C444 H431 0.930 . S
C444 C443 1.376 . S
C444 C445 1.388 . S
C445 H432 0.930 . S
C445 C444 1.388 . S
C445 C446 1.390 . S
C446 C445 1.390 . S
C446 C447 1.394 . S
C446 C452 1.465 . S
C447 C442 1.399 . S
C447 C446 1.394 . S
C447 C448 1.516 . S
C448 C447 1.516 . S
C448 C449 1.502 . S
C448 C450 1.561 . S
C448 C451 1.526 . S
C449 H433 0.959 . S
C449 H434 0.959 . S
C449 H435 0.961 . S
C449 C448 1.502 . S
C450 H436 0.960 . S
C450 H437 0.961 . S
C450 H438 0.959 . S
C450 C448 1.561 . S
C451 C448 1.526 . S
C451 C452 1.396 . S
C451 C456 1.390 . S
C452 C446 1.465 . S
C452 C451 1.396 . S
C452 C453 1.399 . S
C453 H439 0.929 . S
C453 C452 1.399 . S
C453 C454 1.385 . S
C454 H440 0.931 . S
C454 C453 1.385 . S
C454 C455 1.389 . S
C455 C454 1.389 . S
C455 C456 1.387 . S
C456 H441 0.930 . S
C456 C451 1.390 . S
C456 C455 1.387 . S
H457 C469 0.930 . S
H458 C471 0.930 . S
H459 C472 0.930 . S
H460 C476 0.959 . S
H461 C476 0.959 . S
H462 C476 0.961 . S
H463 C477 0.960 . S
H464 C477 0.961 . S
H465 C477 0.959 . S
H466 C480 0.929 . S
H467 C481 0.931 . S
H468 C483 0.930 . S
C469 H457 0.930 . S
C469 C470 1.399 . S
C469 C474 1.399 . S
C470 C469 1.399 . S
C470 C471 1.376 . S
C471 H458 0.930 . S
C471 C470 1.376 . S
C471 C472 1.388 . S
C472 H459 0.930 . S
C472 C471 1.388 . S
C472 C473 1.390 . S
C473 C472 1.390 . S
C473 C474 1.394 . S
C473 C479 1.465 . S
C474 C469 1.399 . S
C474 C473 1.394 . S
C474 C475 1.516 . S
C475 C474 1.516 . S
C475 C476 1.502 . S
C475 C477 1.561 . S
C475 C478 1.526 . S
C476 H460 0.959 . S
C476 H461 0.959 . S
C476 H462 0.961 . S
C476 C475 1.502 . S
C477 H463 0.960 . S
C477 H464 0.961 . S
C477 H465 0.959 . S
C477 C475 1.561 . S
C478 C475 1.526 . S
C478 C479 1.396 . S
C478 C483 1.390 . S
C479 C473 1.465 . S
C479 C478 1.396 . S
C479 C480 1.399 . S
C480 H466 0.929 . S
C480 C479 1.399 . S
C480 C481 1.385 . S
C481 H467 0.931 . S
C481 C480 1.385 . S
C481 C482 1.389 . S
C482 C481 1.389 . S
C482 C483 1.387 . S
C483 H468 0.930 . S
C483 C478 1.390 . S
C483 C482 1.387 . S
H484 C496 0.930 . S
H485 C498 0.930 . S
H486 C499 0.930 . S
H487 C503 0.959 . S
H488 C503 0.959 . S
H489 C503 0.961 . S
H490 C504 0.960 . S
H491 C504 0.961 . S
H492 C504 0.959 . S
H493 C507 0.929 . S
H494 C508 0.931 . S
H495 C510 0.930 . S
C496 H484 0.930 . S
C496 C497 1.399 . S
C496 C501 1.399 . S
C497 C496 1.399 . S
C497 C498 1.376 . S
C498 H485 0.930 . S
C498 C497 1.376 . S
C498 C499 1.388 . S
C499 H486 0.930 . S
C499 C498 1.388 . S
C499 C500 1.390 . S
C500 C499 1.390 . S
C500 C501 1.394 . S
C500 C506 1.465 . S
C501 C496 1.399 . S
C501 C500 1.394 . S
C501 C502 1.516 . S
C502 C501 1.516 . S
C502 C503 1.502 . S
C502 C504 1.561 . S
C502 C505 1.526 . S
C503 H487 0.959 . S
C503 H488 0.959 . S
C503 H489 0.961 . S
C503 C502 1.502 . S
C504 H490 0.960 . S
C504 H491 0.961 . S
C504 H492 0.959 . S
C504 C502 1.561 . S
C505 C502 1.526 . S
C505 C506 1.396 . S
C505 C510 1.390 . S
C506 C500 1.465 . S
C506 C505 1.396 . S
C506 C507 1.399 . S
C507 H493 0.929 . S
C507 C506 1.399 . S
C507 C508 1.385 . S
C508 H494 0.931 . S
C508 C507 1.385 . S
C508 C509 1.389 . S
C509 C508 1.389 . S
C509 C510 1.387 . S
C510 H495 0.930 . S
C510 C505 1.390 . S
C510 C509 1.387 . S
H511 C523 0.930 . S
H512 C525 0.930 . S
H513 C526 0.930 . S
H514 C530 0.959 . S
H515 C530 0.959 . S
H516 C530 0.961 . S
H517 C531 0.960 . S
H518 C531 0.961 . S
H519 C531 0.959 . S
H520 C534 0.929 . S
H521 C535 0.931 . S
H522 C537 0.930 . S
C523 H511 0.930 . S
C523 C524 1.399 . S
C523 C528 1.399 . S
C524 C523 1.399 . S
C524 C525 1.376 . S
C525 H512 0.930 . S
C525 C524 1.376 . S
C525 C526 1.388 . S
C526 H513 0.930 . S
C526 C525 1.388 . S
C526 C527 1.390 . S
C527 C526 1.390 . S
C527 C528 1.394 . S
C527 C533 1.465 . S
C528 C523 1.399 . S
C528 C527 1.394 . S
C528 C529 1.516 . S
C529 C528 1.516 . S
C529 C530 1.502 . S
C529 C531 1.561 . S
C529 C532 1.526 . S
C530 H514 0.959 . S
C530 H515 0.959 . S
C530 H516 0.961 . S
C530 C529 1.502 . S
C531 H517 0.960 . S
C531 H518 0.961 . S
C531 H519 0.959 . S
C531 C529 1.561 . S
C532 C529 1.526 . S
C532 C533 1.396 . S
C532 C537 1.390 . S
C533 C527 1.465 . S
C533 C532 1.396 . S
C533 C534 1.399 . S
C534 H520 0.929 . S
C534 C533 1.399 . S
C534 C535 1.385 . S
C535 H521 0.931 . S
C535 C534 1.385 . S
C535 C536 1.389 . S
C536 C535 1.389 . S
C536 C537 1.387 . S
C537 H522 0.930 . S
C537 C532 1.390 . S
C537 C536 1.387 . S
H538 C550 0.930 . S
H539 C552 0.930 . S
H540 C553 0.930 . S
H541 C557 0.959 . S
H542 C557 0.959 . S
H543 C557 0.961 . S
H544 C558 0.960 . S
H545 C558 0.961 . S
H546 C558 0.959 . S
H547 C561 0.929 . S
H548 C562 0.931 . S
H549 C564 0.930 . S
C550 H538 0.930 . S
C550 C551 1.399 . S
C550 C555 1.399 . S
C551 C550 1.399 . S
C551 C552 1.376 . S
C552 H539 0.930 . S
C552 C551 1.376 . S
C552 C553 1.388 . S
C553 H540 0.930 . S
C553 C552 1.388 . S
C553 C554 1.390 . S
C554 C553 1.390 . S
C554 C555 1.394 . S
C554 C560 1.465 . S
C555 C550 1.399 . S
C555 C554 1.394 . S
C555 C556 1.516 . S
C556 C555 1.516 . S
C556 C557 1.502 . S
C556 C558 1.561 . S
C556 C559 1.526 . S
C557 H541 0.959 . S
C557 H542 0.959 . S
C557 H543 0.961 . S
C557 C556 1.502 . S
C558 H544 0.960 . S
C558 H545 0.961 . S
C558 H546 0.959 . S
C558 C556 1.561 . S
C559 C556 1.526 . S
C559 C560 1.396 . S
C559 C564 1.390 . S
C560 C554 1.465 . S
C560 C559 1.396 . S
C560 C561 1.399 . S
C561 H547 0.929 . S
C561 C560 1.399 . S
C561 C562 1.385 . S
C562 H548 0.931 . S
C562 C561 1.385 . S
C562 C563 1.389 . S
C563 C562 1.389 . S
C563 C564 1.387 . S
C564 H549 0.930 . S
C564 C559 1.390 . S
C564 C563 1.387 . S
H565 C577 0.930 . S
H566 C579 0.930 . S
H567 C580 0.930 . S
H568 C584 0.959 . S
H569 C584 0.959 . S
H570 C584 0.961 . S
H571 C585 0.960 . S
H572 C585 0.961 . S
H573 C585 0.959 . S
H574 C588 0.929 . S
H575 C589 0.931 . S
H576 C591 0.930 . S
C577 H565 0.930 . S
C577 C578 1.399 . S
C577 C582 1.399 . S
C578 C577 1.399 . S
C578 C579 1.376 . S
C579 H566 0.930 . S
C579 C578 1.376 . S
C579 C580 1.388 . S
C580 H567 0.930 . S
C580 C579 1.388 . S
C580 C581 1.390 . S
C581 C580 1.390 . S
C581 C582 1.394 . S
C581 C587 1.465 . S
C582 C577 1.399 . S
C582 C581 1.394 . S
C582 C583 1.516 . S
C583 C582 1.516 . S
C583 C584 1.502 . S
C583 C585 1.561 . S
C583 C586 1.526 . S
C584 H568 0.959 . S
C584 H569 0.959 . S
C584 H570 0.961 . S
C584 C583 1.502 . S
C585 H571 0.960 . S
C585 H572 0.961 . S
C585 H573 0.959 . S
C585 C583 1.561 . S
C586 C583 1.526 . S
C586 C587 1.396 . S
C586 C591 1.390 . S
C587 C581 1.465 . S
C587 C586 1.396 . S
C587 C588 1.399 . S
C588 H574 0.929 . S
C588 C587 1.399 . S
C588 C589 1.385 . S
C589 H575 0.931 . S
C589 C588 1.385 . S
C589 C590 1.389 . S
C590 C589 1.389 . S
C590 C591 1.387 . S
C591 H576 0.930 . S
C591 C586 1.390 . S
C591 C590 1.387 . S
H592 C604 0.930 . S
H593 C606 0.930 . S
H594 C607 0.930 . S
H595 C611 0.959 . S
H596 C611 0.959 . S
H597 C611 0.961 . S
H598 C612 0.960 . S
H599 C612 0.961 . S
H600 C612 0.959 . S
H601 C615 0.929 . S
H602 C616 0.931 . S
H603 C618 0.930 . S
C604 H592 0.930 . S
C604 C605 1.399 . S
C604 C609 1.399 . S
C605 C604 1.399 . S
C605 C606 1.376 . S
C606 H593 0.930 . S
C606 C605 1.376 . S
C606 C607 1.388 . S
C607 H594 0.930 . S
C607 C606 1.388 . S
C607 C608 1.390 . S
C608 C607 1.390 . S
C608 C609 1.394 . S
C608 C614 1.465 . S
C609 C604 1.399 . S
C609 C608 1.394 . S
C609 C610 1.516 . S
C610 C609 1.516 . S
C610 C611 1.502 . S
C610 C612 1.561 . S
C610 C613 1.526 . S
C611 H595 0.959 . S
C611 H596 0.959 . S
C611 H597 0.961 . S
C611 C610 1.502 . S
C612 H598 0.960 . S
C612 H599 0.961 . S
C612 H600 0.959 . S
C612 C610 1.561 . S
C613 C610 1.526 . S
C613 C614 1.396 . S
C613 C618 1.390 . S
C614 C608 1.465 . S
C614 C613 1.396 . S
C614 C615 1.399 . S
C615 H601 0.929 . S
C615 C614 1.399 . S
C615 C616 1.385 . S
C616 H602 0.931 . S
C616 C615 1.385 . S
C616 C617 1.389 . S
C617 C616 1.389 . S
C617 C618 1.387 . S
C618 H603 0.930 . S
C618 C613 1.390 . S
C618 C617 1.387 . S
H619 C631 0.930 . S
H620 C633 0.930 . S
H621 C634 0.930 . S
H622 C638 0.959 . S
H623 C638 0.959 . S
H624 C638 0.961 . S
H625 C639 0.960 . S
H626 C639 0.961 . S
H627 C639 0.959 . S
H628 C642 0.929 . S
H629 C643 0.931 . S
H630 C645 0.930 . S
C631 H619 0.930 . S
C631 C632 1.399 . S
C631 C636 1.399 . S
C632 C631 1.399 . S
C632 C633 1.376 . S
C633 H620 0.930 . S
C633 C632 1.376 . S
C633 C634 1.388 . S
C634 H621 0.930 . S
C634 C633 1.388 . S
C634 C635 1.390 . S
C635 C634 1.390 . S
C635 C636 1.394 . S
C635 C641 1.465 . S
C636 C631 1.399 . S
C636 C635 1.394 . S
C636 C637 1.516 . S
C637 C636 1.516 . S
C637 C638 1.502 . S
C637 C639 1.561 . S
C637 C640 1.526 . S
C638 H622 0.959 . S
C638 H623 0.959 . S
C638 H624 0.961 . S
C638 C637 1.502 . S
C639 H625 0.960 . S
C639 H626 0.961 . S
C639 H627 0.959 . S
C639 C637 1.561 . S
C640 C637 1.526 . S
C640 C641 1.396 . S
C640 C645 1.390 . S
C641 C635 1.465 . S
C641 C640 1.396 . S
C641 C642 1.399 . S
C642 H628 0.929 . S
C642 C641 1.399 . S
C642 C643 1.385 . S
C643 H629 0.931 . S
C643 C642 1.385 . S
C643 C644 1.389 . S
C644 C643 1.389 . S
C644 C645 1.387 . S
C645 H630 0.930 . S
C645 C640 1.390 . S
C645 C644 1.387 . S
H646 C658 0.930 . S
H647 C660 0.930 . S
H648 C661 0.930 . S
H649 C665 0.959 . S
H650 C665 0.959 . S
H651 C665 0.961 . S
H652 C666 0.960 . S
H653 C666 0.961 . S
H654 C666 0.959 . S
H655 C669 0.929 . S
H656 C670 0.931 . S
H657 C672 0.930 . S
C658 H646 0.930 . S
C658 C659 1.399 . S
C658 C663 1.399 . S
C659 C658 1.399 . S
C659 C660 1.376 . S
C660 H647 0.930 . S
C660 C659 1.376 . S
C660 C661 1.388 . S
C661 H648 0.930 . S
C661 C660 1.388 . S
C661 C662 1.390 . S
C662 C661 1.390 . S
C662 C663 1.394 . S
C662 C668 1.465 . S
C663 C658 1.399 . S
C663 C662 1.394 . S
C663 C664 1.516 . S
C664 C663 1.516 . S
C664 C665 1.502 . S
C664 C666 1.561 . S
C664 C667 1.526 . S
C665 H649 0.959 . S
C665 H650 0.959 . S
C665 H651 0.961 . S
C665 C664 1.502 . S
C666 H652 0.960 . S
C666 H653 0.961 . S
C666 H654 0.959 . S
C666 C664 1.561 . S
C667 C664 1.526 . S
C667 C668 1.396 . S
C667 C672 1.390 . S
C668 C662 1.465 . S
C668 C667 1.396 . S
C668 C669 1.399 . S
C669 H655 0.929 . S
C669 C668 1.399 . S
C669 C670 1.385 . S
C670 H656 0.931 . S
C670 C669 1.385 . S
C670 C671 1.389 . S
C671 C670 1.389 . S
C671 C672 1.387 . S
C672 H657 0.930 . S
C672 C667 1.390 . S
C672 C671 1.387 . S
H673 C685 0.930 . S
H674 C687 0.930 . S
H675 C688 0.930 . S
H676 C692 0.959 . S
H677 C692 0.959 . S
H678 C692 0.961 . S
H679 C693 0.960 . S
H680 C693 0.961 . S
H681 C693 0.959 . S
H682 C696 0.929 . S
H683 C697 0.931 . S
H684 C699 0.930 . S
C685 H673 0.930 . S
C685 C686 1.399 . S
C685 C690 1.399 . S
C686 C685 1.399 . S
C686 C687 1.376 . S
C687 H674 0.930 . S
C687 C686 1.376 . S
C687 C688 1.388 . S
C688 H675 0.930 . S
C688 C687 1.388 . S
C688 C689 1.390 . S
C689 C688 1.390 . S
C689 C690 1.394 . S
C689 C695 1.465 . S
C690 C685 1.399 . S
C690 C689 1.394 . S
C690 C691 1.516 . S
C691 C690 1.516 . S
C691 C692 1.502 . S
C691 C693 1.561 . S
C691 C694 1.526 . S
C692 H676 0.959 . S
C692 H677 0.959 . S
C692 H678 0.961 . S
C692 C691 1.502 . S
C693 H679 0.960 . S
C693 H680 0.961 . S
C693 H681 0.959 . S
C693 C691 1.561 . S
C694 C691 1.526 . S
C694 C695 1.396 . S
C694 C699 1.390 . S
C695 C689 1.465 . S
C695 C694 1.396 . S
C695 C696 1.399 . S
C696 H682 0.929 . S
C696 C695 1.399 . S
C696 C697 1.385 . S
C697 H683 0.931 . S
C697 C696 1.385 . S
C697 C698 1.389 . S
C698 C697 1.389 . S
C698 C699 1.387 . S
C699 H684 0.930 . S
C699 C694 1.390 . S
C699 C698 1.387 . S
H700 C712 0.930 . S
H701 C714 0.930 . S
H702 C715 0.930 . S
H703 C719 0.959 . S
H704 C719 0.959 . S
H705 C719 0.961 . S
H706 C720 0.960 . S
H707 C720 0.961 . S
H708 C720 0.959 . S
H709 C723 0.929 . S
H710 C724 0.931 . S
H711 C726 0.930 . S
C712 H700 0.930 . S
C712 C713 1.399 . S
C712 C717 1.399 . S
C713 C712 1.399 . S
C713 C714 1.376 . S
C714 H701 0.930 . S
C714 C713 1.376 . S
C714 C715 1.388 . S
C715 H702 0.930 . S
C715 C714 1.388 . S
C715 C716 1.390 . S
C716 C715 1.390 . S
C716 C717 1.394 . S
C716 C722 1.465 . S
C717 C712 1.399 . S
C717 C716 1.394 . S
C717 C718 1.516 . S
C718 C717 1.516 . S
C718 C719 1.502 . S
C718 C720 1.561 . S
C718 C721 1.526 . S
C719 H703 0.959 . S
C719 H704 0.959 . S
C719 H705 0.961 . S
C719 C718 1.502 . S
C720 H706 0.960 . S
C720 H707 0.961 . S
C720 H708 0.959 . S
C720 C718 1.561 . S
C721 C718 1.526 . S
C721 C722 1.396 . S
C721 C726 1.390 . S
C722 C716 1.465 . S
C722 C721 1.396 . S
C722 C723 1.399 . S
C723 H709 0.929 . S
C723 C722 1.399 . S
C723 C724 1.385 . S
C724 H710 0.931 . S
C724 C723 1.385 . S
C724 C725 1.389 . S
C725 C724 1.389 . S
C725 C726 1.387 . S
C726 H711 0.930 . S
C726 C721 1.390 . S
C726 C725 1.387 . S
H727 C739 0.930 . S
H728 C741 0.930 . S
H729 C742 0.930 . S
H730 C746 0.959 . S
H731 C746 0.959 . S
H732 C746 0.961 . S
H733 C747 0.960 . S
H734 C747 0.961 . S
H735 C747 0.959 . S
H736 C750 0.929 . S
H737 C751 0.931 . S
H738 C753 0.930 . S
C739 H727 0.930 . S
C739 C740 1.399 . S
C739 C744 1.399 . S
C740 C739 1.399 . S
C740 C741 1.376 . S
C741 H728 0.930 . S
C741 C740 1.376 . S
C741 C742 1.388 . S
C742 H729 0.930 . S
C742 C741 1.388 . S
C742 C743 1.390 . S
C743 C742 1.390 . S
C743 C744 1.394 . S
C743 C749 1.465 . S
C744 C739 1.399 . S
C744 C743 1.394 . S
C744 C745 1.516 . S
C745 C744 1.516 . S
C745 C746 1.502 . S
C745 C747 1.561 . S
C745 C748 1.526 . S
C746 H730 0.959 . S
C746 H731 0.959 . S
C746 H732 0.961 . S
C746 C745 1.502 . S
C747 H733 0.960 . S
C747 H734 0.961 . S
C747 H735 0.959 . S
C747 C745 1.561 . S
C748 C745 1.526 . S
C748 C749 1.396 . S
C748 C753 1.390 . S
C749 C743 1.465 . S
C749 C748 1.396 . S
C749 C750 1.399 . S
C750 H736 0.929 . S
C750 C749 1.399 . S
C750 C751 1.385 . S
C751 H737 0.931 . S
C751 C750 1.385 . S
C751 C752 1.389 . S
C752 C751 1.389 . S
C752 C753 1.387 . S
C753 H738 0.930 . S
C753 C748 1.390 . S
C753 C752 1.387 . S
H754 C766 0.930 . S
H755 C768 0.930 . S
H756 C769 0.930 . S
H757 C773 0.959 . S
H758 C773 0.959 . S
H759 C773 0.961 . S
H760 C774 0.960 . S
H761 C774 0.961 . S
H762 C774 0.959 . S
H763 C777 0.929 . S
H764 C778 0.931 . S
H765 C780 0.930 . S
C766 H754 0.930 . S
C766 C767 1.399 . S
C766 C771 1.399 . S
C767 C766 1.399 . S
C767 C768 1.376 . S
C768 H755 0.930 . S
C768 C767 1.376 . S
C768 C769 1.388 . S
C769 H756 0.930 . S
C769 C768 1.388 . S
C769 C770 1.390 . S
C770 C769 1.390 . S
C770 C771 1.394 . S
C770 C776 1.465 . S
C771 C766 1.399 . S
C771 C770 1.394 . S
C771 C772 1.516 . S
C772 C771 1.516 . S
C772 C773 1.502 . S
C772 C774 1.561 . S
C772 C775 1.526 . S
C773 H757 0.959 . S
C773 H758 0.959 . S
C773 H759 0.961 . S
C773 C772 1.502 . S
C774 H760 0.960 . S
C774 H761 0.961 . S
C774 H762 0.959 . S
C774 C772 1.561 . S
C775 C772 1.526 . S
C775 C776 1.396 . S
C775 C780 1.390 . S
C776 C770 1.465 . S
C776 C775 1.396 . S
C776 C777 1.399 . S
C777 H763 0.929 . S
C777 C776 1.399 . S
C777 C778 1.385 . S
C778 H764 0.931 . S
C778 C777 1.385 . S
C778 C779 1.389 . S
C779 C778 1.389 . S
C779 C780 1.387 . S
C780 H765 0.930 . S
C780 C775 1.390 . S
C780 C779 1.387 . S
H781 C793 0.930 . S
H782 C795 0.930 . S
H783 C796 0.930 . S
H784 C800 0.959 . S
H785 C800 0.959 . S
H786 C800 0.961 . S
H787 C801 0.960 . S
H788 C801 0.961 . S
H789 C801 0.959 . S
H790 C804 0.929 . S
H791 C805 0.931 . S
H792 C807 0.930 . S
C793 H781 0.930 . S
C793 C794 1.399 . S
C793 C798 1.399 . S
C794 C793 1.399 . S
C794 C795 1.376 . S
C795 H782 0.930 . S
C795 C794 1.376 . S
C795 C796 1.388 . S
C796 H783 0.930 . S
C796 C795 1.388 . S
C796 C797 1.390 . S
C797 C796 1.390 . S
C797 C798 1.394 . S
C797 C803 1.465 . S
C798 C793 1.399 . S
C798 C797 1.394 . S
C798 C799 1.516 . S
C799 C798 1.516 . S
C799 C800 1.502 . S
C799 C801 1.561 . S
C799 C802 1.526 . S
C800 H784 0.959 . S
C800 H785 0.959 . S
C800 H786 0.961 . S
C800 C799 1.502 . S
C801 H787 0.960 . S
C801 H788 0.961 . S
C801 H789 0.959 . S
C801 C799 1.561 . S
C802 C799 1.526 . S
C802 C803 1.396 . S
C802 C807 1.390 . S
C803 C797 1.465 . S
C803 C802 1.396 . S
C803 C804 1.399 . S
C804 H790 0.929 . S
C804 C803 1.399 . S
C804 C805 1.385 . S
C805 H791 0.931 . S
C805 C804 1.385 . S
C805 C806 1.389 . S
C806 C805 1.389 . S
C806 C807 1.387 . S
C807 H792 0.930 . S
C807 C802 1.390 . S
C807 C806 1.387 . S
H808 C820 0.930 . S
H809 C822 0.930 . S
H810 C823 0.930 . S
H811 C827 0.959 . S
H812 C827 0.959 . S
H813 C827 0.961 . S
H814 C828 0.960 . S
H815 C828 0.961 . S
H816 C828 0.959 . S
H817 C831 0.929 . S
H818 C832 0.931 . S
H819 C834 0.930 . S
C820 H808 0.930 . S
C820 C821 1.399 1_556 S
C820 C825 1.399 . S
C821 C820 1.399 1_554 S
C821 C822 1.376 . S
C822 H809 0.930 . S
C822 C821 1.376 . S
C822 C823 1.388 . S
C823 H810 0.930 . S
C823 C822 1.388 . S
C823 C824 1.390 . S
C824 C823 1.390 . S
C824 C825 1.394 1_554 S
C824 C830 1.465 . S
C825 C820 1.399 . S
C825 C824 1.394 1_556 S
C825 C826 1.516 . S
C826 C825 1.516 . S
C826 C827 1.502 . S
C826 C828 1.561 . S
C826 C829 1.526 . S
C827 H811 0.959 . S
C827 H812 0.959 . S
C827 H813 0.961 . S
C827 C826 1.502 . S
C828 H814 0.960 . S
C828 H815 0.961 . S
C828 H816 0.959 . S
C828 C826 1.561 . S
C829 C826 1.526 . S
C829 C830 1.396 1_556 S
C829 C834 1.390 . S
C830 C824 1.465 . S
C830 C829 1.396 1_554 S
C830 C831 1.399 . S
C831 H817 0.929 . S
C831 C830 1.399 . S
C831 C832 1.385 . S
C832 H818 0.931 . S
C832 C831 1.385 . S
C832 C833 1.389 . S
C833 C832 1.389 . S
C833 C834 1.387 1_554 S
C834 H819 0.930 . S
C834 C829 1.390 . S
C834 C833 1.387 1_556 S
H835 C847 0.930 . S
H836 C849 0.930 . S
H837 C850 0.930 . S
H838 C854 0.959 . S
H839 C854 0.959 . S
H840 C854 0.961 . S
H841 C855 0.960 . S
H842 C855 0.961 . S
H843 C855 0.959 . S
H844 C858 0.929 . S
H845 C859 0.931 . S
H846 C861 0.930 . S
C847 H835 0.930 . S
C847 C848 1.399 . S
C847 C852 1.399 . S
C848 C847 1.399 . S
C848 C849 1.376 . S
C849 H836 0.930 . S
C849 C848 1.376 . S
C849 C850 1.388 . S
C850 H837 0.930 . S
C850 C849 1.388 . S
C850 C851 1.390 . S
C851 C850 1.390 . S
C851 C852 1.394 . S
C851 C857 1.465 . S
C852 C847 1.399 . S
C852 C851 1.394 . S
C852 C853 1.516 . S
C853 C852 1.516 . S
C853 C854 1.502 . S
C853 C855 1.561 . S
C853 C856 1.526 . S
C854 H838 0.959 . S
C854 H839 0.959 . S
C854 H840 0.961 . S
C854 C853 1.502 . S
C855 H841 0.960 . S
C855 H842 0.961 . S
C855 H843 0.959 . S
C855 C853 1.561 . S
C856 C853 1.526 . S
C856 C857 1.396 . S
C856 C861 1.390 . S
C857 C851 1.465 . S
C857 C856 1.396 . S
C857 C858 1.399 . S
C858 H844 0.929 . S
C858 C857 1.399 . S
C858 C859 1.385 . S
C859 H845 0.931 . S
C859 C858 1.385 . S
C859 C860 1.389 . S
C860 C859 1.389 . S
C860 C861 1.387 . S
C861 H846 0.930 . S
C861 C856 1.390 . S
C861 C860 1.387 . S
H862 C874 0.930 . S
H863 C876 0.930 . S
H864 C877 0.930 . S
H865 C881 0.959 . S
H866 C881 0.959 . S
H867 C881 0.961 . S
H868 C882 0.960 . S
H869 C882 0.961 . S
H870 C882 0.959 . S
H871 C885 0.929 . S
H872 C886 0.931 . S
H873 C888 0.930 . S
C874 H862 0.930 . S
C874 C875 1.399 1_556 S
C874 C879 1.399 . S
C875 C874 1.399 1_554 S
C875 C876 1.376 . S
C876 H863 0.930 . S
C876 C875 1.376 . S
C876 C877 1.388 . S
C877 H864 0.930 . S
C877 C876 1.388 . S
C877 C878 1.390 . S
C878 C877 1.390 . S
C878 C879 1.394 1_554 S
C878 C884 1.465 . S
C879 C874 1.399 . S
C879 C878 1.394 1_556 S
C879 C880 1.516 . S
C880 C879 1.516 . S
C880 C881 1.502 . S
C880 C882 1.561 . S
C880 C883 1.526 . S
C881 H865 0.959 . S
C881 H866 0.959 . S
C881 H867 0.961 . S
C881 C880 1.502 . S
C882 H868 0.960 . S
C882 H869 0.961 . S
C882 H870 0.959 . S
C882 C880 1.561 . S
C883 C880 1.526 . S
C883 C884 1.396 1_556 S
C883 C888 1.390 . S
C884 C878 1.465 . S
C884 C883 1.396 1_554 S
C884 C885 1.399 . S
C885 H871 0.929 . S
C885 C884 1.399 . S
C885 C886 1.385 . S
C886 H872 0.931 . S
C886 C885 1.385 . S
C886 C887 1.389 . S
C887 C886 1.389 . S
C887 C888 1.387 1_554 S
C888 H873 0.930 . S
C888 C883 1.390 . S
C888 C887 1.387 1_556 S
H889 C901 0.930 . S
H890 C903 0.930 . S
H891 C904 0.930 . S
H892 C908 0.959 . S
H893 C908 0.959 . S
H894 C908 0.961 . S
H895 C909 0.960 . S
H896 C909 0.961 . S
H897 C909 0.959 . S
H898 C912 0.929 . S
H899 C913 0.931 . S
H900 C915 0.930 . S
C901 H889 0.930 . S
C901 C902 1.399 . S
C901 C906 1.399 . S
C902 C901 1.399 . S
C902 C903 1.376 . S
C903 H890 0.930 . S
C903 C902 1.376 . S
C903 C904 1.388 . S
C904 H891 0.930 . S
C904 C903 1.388 . S
C904 C905 1.390 . S
C905 C904 1.390 . S
C905 C906 1.394 . S
C905 C911 1.465 . S
C906 C901 1.399 . S
C906 C905 1.394 . S
C906 C907 1.516 . S
C907 C906 1.516 . S
C907 C908 1.502 . S
C907 C909 1.561 . S
C907 C910 1.526 . S
C908 H892 0.959 . S
C908 H893 0.959 . S
C908 H894 0.961 . S
C908 C907 1.502 . S
C909 H895 0.960 . S
C909 H896 0.961 . S
C909 H897 0.959 . S
C909 C907 1.561 . S
C910 C907 1.526 . S
C910 C911 1.396 . S
C910 C915 1.390 . S
C911 C905 1.465 . S
C911 C910 1.396 . S
C911 C912 1.399 . S
C912 H898 0.929 . S
C912 C911 1.399 . S
C912 C913 1.385 . S
C913 H899 0.931 . S
C913 C912 1.385 . S
C913 C914 1.389 . S
C914 C913 1.389 . S
C914 C915 1.387 . S
C915 H900 0.930 . S
C915 C910 1.390 . S
C915 C914 1.387 . S
H916 C928 0.930 . S
H917 C930 0.930 . S
H918 C931 0.930 . S
H919 C935 0.959 . S
H920 C935 0.959 . S
H921 C935 0.961 . S
H922 C936 0.960 . S
H923 C936 0.961 . S
H924 C936 0.959 . S
H925 C939 0.929 . S
H926 C940 0.931 . S
H927 C942 0.930 . S
C928 H916 0.930 . S
C928 C929 1.399 . S
C928 C933 1.399 . S
C929 C928 1.399 . S
C929 C930 1.376 . S
C930 H917 0.930 . S
C930 C929 1.376 . S
C930 C931 1.388 . S
C931 H918 0.930 . S
C931 C930 1.388 . S
C931 C932 1.390 . S
C932 C931 1.390 . S
C932 C933 1.394 . S
C932 C938 1.465 . S
C933 C928 1.399 . S
C933 C932 1.394 . S
C933 C934 1.516 . S
C934 C933 1.516 . S
C934 C935 1.502 . S
C934 C936 1.561 . S
C934 C937 1.526 . S
C935 H919 0.959 . S
C935 H920 0.959 . S
C935 H921 0.961 . S
C935 C934 1.502 . S
C936 H922 0.960 . S
C936 H923 0.961 . S
C936 H924 0.959 . S
C936 C934 1.561 . S
C937 C934 1.526 . S
C937 C938 1.396 . S
C937 C942 1.390 . S
C938 C932 1.465 . S
C938 C937 1.396 . S
C938 C939 1.399 . S
C939 H925 0.929 . S
C939 C938 1.399 . S
C939 C940 1.385 . S
C940 H926 0.931 . S
C940 C939 1.385 . S
C940 C941 1.389 . S
C941 C940 1.389 . S
C941 C942 1.387 . S
C942 H927 0.930 . S
C942 C937 1.390 . S
C942 C941 1.387 . S
H943 C955 0.930 . S
H944 C957 0.930 . S
H945 C958 0.930 . S
H946 C962 0.959 . S
H947 C962 0.959 . S
H948 C962 0.961 . S
H949 C963 0.960 . S
H950 C963 0.961 . S
H951 C963 0.959 . S
H952 C966 0.929 . S
H953 C967 0.931 . S
H954 C969 0.930 . S
C955 H943 0.930 . S
C955 C956 1.399 1_554 S
C955 C960 1.399 . S
C956 C955 1.399 1_556 S
C956 C957 1.376 . S
C957 H944 0.930 . S
C957 C956 1.376 . S
C957 C958 1.388 . S
C958 H945 0.930 . S
C958 C957 1.388 . S
C958 C959 1.390 . S
C959 C958 1.390 . S
C959 C960 1.394 1_556 S
C959 C965 1.465 . S
C960 C955 1.399 . S
C960 C959 1.394 1_554 S
C960 C961 1.516 . S
C961 C960 1.516 . S
C961 C962 1.502 . S
C961 C963 1.561 . S
C961 C964 1.526 . S
C962 H946 0.959 . S
C962 H947 0.959 . S
C962 H948 0.961 . S
C962 C961 1.502 . S
C963 H949 0.960 . S
C963 H950 0.961 . S
C963 H951 0.959 . S
C963 C961 1.561 . S
C964 C961 1.526 . S
C964 C965 1.396 1_554 S
C964 C969 1.390 . S
C965 C959 1.465 . S
C965 C964 1.396 1_556 S
C965 C966 1.399 . S
C966 H952 0.929 . S
C966 C965 1.399 . S
C966 C967 1.385 . S
C967 H953 0.931 . S
C967 C966 1.385 . S
C967 C968 1.389 . S
C968 C967 1.389 . S
C968 C969 1.387 1_556 S
C969 H954 0.930 . S
C969 C964 1.390 . S
C969 C968 1.387 1_554 S
H970 C982 0.930 . S
H971 C984 0.930 . S
H972 C985 0.930 . S
H973 C989 0.959 . S
H974 C989 0.959 . S
H975 C989 0.961 . S
H976 C990 0.960 . S
H977 C990 0.961 . S
H978 C990 0.959 . S
H979 C993 0.929 . S
H980 C994 0.931 . S
H981 C996 0.930 . S
C982 H970 0.930 . S
C982 C983 1.399 . S
C982 C987 1.399 . S
C983 C982 1.399 . S
C983 C984 1.376 . S
C984 H971 0.930 . S
C984 C983 1.376 . S
C984 C985 1.388 . S
C985 H972 0.930 . S
C985 C984 1.388 . S
C985 C986 1.390 . S
C986 C985 1.390 . S
C986 C987 1.394 . S
C986 C992 1.465 . S
C987 C982 1.399 . S
C987 C986 1.394 . S
C987 C988 1.516 . S
C988 C987 1.516 . S
C988 C989 1.502 . S
C988 C990 1.561 . S
C988 C991 1.526 . S
C989 H973 0.959 . S
C989 H974 0.959 . S
C989 H975 0.961 . S
C989 C988 1.502 . S
C990 H976 0.960 . S
C990 H977 0.961 . S
C990 H978 0.959 . S
C990 C988 1.561 . S
C991 C988 1.526 . S
C991 C992 1.396 . S
C991 C996 1.390 . S
C992 C986 1.465 . S
C992 C991 1.396 . S
C992 C993 1.399 . S
C993 H979 0.929 . S
C993 C992 1.399 . S
C993 C994 1.385 . S
C994 H980 0.931 . S
C994 C993 1.385 . S
C994 C995 1.389 . S
C995 C994 1.389 . S
C995 C996 1.387 . S
C996 H981 0.930 . S
C996 C991 1.390 . S
C996 C995 1.387 . S
H997 C1009 0.930 . S
H998 C1011 0.930 . S
H999 C1012 0.930 . S
H1000 C1016 0.959 . S
H1001 C1016 0.959 . S
H1002 C1016 0.961 . S
H1003 C1017 0.960 . S
H1004 C1017 0.961 . S
H1005 C1017 0.959 . S
H1006 C1020 0.929 . S
H1007 C1021 0.931 . S
H1008 C1023 0.930 . S
C1009 H997 0.930 . S
C1009 C1010 1.399 1_556 S
C1009 C1014 1.399 . S
C1010 C1009 1.399 1_554 S
C1010 C1011 1.376 . S
C1011 H998 0.930 . S
C1011 C1010 1.376 . S
C1011 C1012 1.388 . S
C1012 H999 0.930 . S
C1012 C1011 1.388 . S
C1012 C1013 1.390 . S
C1013 C1012 1.390 . S
C1013 C1014 1.394 1_554 S
C1013 C1019 1.465 . S
C1014 C1009 1.399 . S
C1014 C1013 1.394 1_556 S
C1014 C1015 1.516 . S
C1015 C1014 1.516 . S
C1015 C1016 1.502 . S
C1015 C1017 1.561 . S
C1015 C1018 1.526 . S
C1016 H1000 0.959 . S
C1016 H1001 0.959 . S
C1016 H1002 0.961 . S
C1016 C1015 1.502 . S
C1017 H1003 0.960 . S
C1017 H1004 0.961 . S
C1017 H1005 0.959 . S
C1017 C1015 1.561 . S
C1018 C1015 1.526 . S
C1018 C1019 1.396 1_556 S
C1018 C1023 1.390 . S
C1019 C1013 1.465 . S
C1019 C1018 1.396 1_554 S
C1019 C1020 1.399 . S
C1020 H1006 0.929 . S
C1020 C1019 1.399 . S
C1020 C1021 1.385 . S
C1021 H1007 0.931 . S
C1021 C1020 1.385 . S
C1021 C1022 1.389 . S
C1022 C1021 1.389 . S
C1022 C1023 1.387 1_554 S
C1023 H1008 0.930 . S
C1023 C1018 1.390 . S
C1023 C1022 1.387 1_556 S
C389 C5 1.452 . S
C401 C197 1.470 . S
C416 C31 1.498 . S
C428 C119 1.479 . S
C455 C155 1.435 . S
C443 C53 1.481 . S
C470 C71 1.448 . S
C482 C161 1.463 . S
C509 C299 1.438 . S
C497 C75 1.484 . S
C536 C305 1.463 . S
C524 C9 1.454 . S
C563 C341 1.481 . S
C551 C27 1.465 . S
C590 C263 1.429 . S
C578 C49 1.477 . S
C605 C51 1.452 . S
C617 C125 1.443 . S
C632 C72 1.489 . S
C644 C191 1.494 . S
C659 C6 1.459 . S
C671 C227 1.466 . S
C698 C89 1.458 . S
C686 C29 1.461 . S
C713 C28 1.487 . S
C725 C371 1.475 . S
C752 C233 1.464 . S
C740 C50 1.480 . S
C779 C269 1.456 . S
C767 C73 1.459 . S
C794 C7 1.481 . S
C806 C335 1.488 . S
C833 C113 1.495 1_554 S
C821 C4 1.506 . S
C860 C149 1.483 . S
C848 C30 1.496 . S
C875 C52 1.506 . S
C887 C185 1.499 . S
C902 C70 1.505 . S
C914 C221 1.498 . S
C941 C257 1.463 . S
C929 C74 1.486 . S
C956 C8 1.503 1_556 S
C968 C293 1.492 1_556 S
C983 C26 1.504 . S
C995 C329 1.498 . S
C1010 C48 1.487 . S
C1022 C365 1.503 1_554 S
