# Generated by pormake.
# Topology ptr, (4,4)-cn, num edge types: 1
# Building blocks:
#     Node 0, Type 0, BuildingBlock: TATPOV_clean_sbu_0, # of connection points: 4
#     Node 1, Type 0, BuildingBlock: TATPOV_clean_sbu_0, # of connection points: 4
#     Node 2, Type 0, BuildingBlock: TATPOV_clean_sbu_0, # of connection points: 4
#     Node 3, Type 0, BuildingBlock: TATPOV_clean_sbu_0, # of connection points: 4
#     Node 4, Type 0, BuildingBlock: TATPOV_clean_sbu_0, # of connection points: 4
#     Node 5, Type 0, BuildingBlock: TATPOV_clean_sbu_0, # of connection points: 4
#     Node 6, Type 0, BuildingBlock: TATPOV_clean_sbu_0, # of connection points: 4
#     Node 7, Type 0, BuildingBlock: TATPOV_clean_sbu_0, # of connection points: 4
#     Node 8, Type 0, BuildingBlock: TATPOV_clean_sbu_0, # of connection points: 4
#     Node 9, Type 0, BuildingBlock: TATPOV_clean_sbu_0, # of connection points: 4
#     Node 10, Type 0, BuildingBlock: TATPOV_clean_sbu_0, # of connection points: 4
#     Node 11, Type 0, BuildingBlock: TATPOV_clean_sbu_0, # of connection points: 4
#     Node 12, Type 0, BuildingBlock: TATPOV_clean_sbu_0, # of connection points: 4
#     Node 13, Type 0, BuildingBlock: TATPOV_clean_sbu_0, # of connection points: 4
#     Node 14, Type 0, BuildingBlock: TATPOV_clean_sbu_0, # of connection points: 4
#     Node 15, Type 0, BuildingBlock: TATPOV_clean_sbu_0, # of connection points: 4
#     Node 16, Type 0, BuildingBlock: TATPOV_clean_sbu_0, # of connection points: 4
#     Node 17, Type 0, BuildingBlock: TATPOV_clean_sbu_0, # of connection points: 4
#     Node 18, Type 1, BuildingBlock: MIFKUJ_clean_linker_1, # of connection points: 4
#     Node 19, Type 1, BuildingBlock: MIFKUJ_clean_linker_1, # of connection points: 4
#     Node 20, Type 1, BuildingBlock: MIFKUJ_clean_linker_1, # of connection points: 4
#     Node 21, Type 1, BuildingBlock: MIFKUJ_clean_linker_1, # of connection points: 4
#     Node 22, Type 1, BuildingBlock: MIFKUJ_clean_linker_1, # of connection points: 4
#     Node 23, Type 1, BuildingBlock: MIFKUJ_clean_linker_1, # of connection points: 4
#     Node 24, Type 1, BuildingBlock: MIFKUJ_clean_linker_1, # of connection points: 4
#     Node 25, Type 1, BuildingBlock: MIFKUJ_clean_linker_1, # of connection points: 4
#     Node 26, Type 1, BuildingBlock: MIFKUJ_clean_linker_1, # of connection points: 4
#     Node 27, Type 1, BuildingBlock: MIFKUJ_clean_linker_1, # of connection points: 4
#     Node 28, Type 1, BuildingBlock: MIFKUJ_clean_linker_1, # of connection points: 4
#     Node 29, Type 1, BuildingBlock: MIFKUJ_clean_linker_1, # of connection points: 4
#     Node 30, Type 1, BuildingBlock: MIFKUJ_clean_linker_1, # of connection points: 4
#     Node 31, Type 1, BuildingBlock: MIFKUJ_clean_linker_1, # of connection points: 4
#     Node 32, Type 1, BuildingBlock: MIFKUJ_clean_linker_1, # of connection points: 4
#     Node 33, Type 1, BuildingBlock: MIFKUJ_clean_linker_1, # of connection points: 4
#     Node 34, Type 1, BuildingBlock: MIFKUJ_clean_linker_1, # of connection points: 4
#     Node 35, Type 1, BuildingBlock: MIFKUJ_clean_linker_1, # of connection points: 4
#     Edge 36, Type (0, 1), BuildingBlock: TEMPAE_clean_linker_10, # of connection points: 2
#     Edge 37, Type (0, 1), BuildingBlock: TEMPAE_clean_linker_10, # of connection points: 2
#     Edge 38, Type (0, 1), BuildingBlock: TEMPAE_clean_linker_10, # of connection points: 2
#     Edge 39, Type (0, 1), BuildingBlock: TEMPAE_clean_linker_10, # of connection points: 2
#     Edge 40, Type (0, 1), BuildingBlock: TEMPAE_clean_linker_10, # of connection points: 2
#     Edge 41, Type (0, 1), BuildingBlock: TEMPAE_clean_linker_10, # of connection points: 2
#     Edge 42, Type (0, 1), BuildingBlock: TEMPAE_clean_linker_10, # of connection points: 2
#     Edge 43, Type (0, 1), BuildingBlock: TEMPAE_clean_linker_10, # of connection points: 2
#     Edge 44, Type (0, 1), BuildingBlock: TEMPAE_clean_linker_10, # of connection points: 2
#     Edge 45, Type (0, 1), BuildingBlock: TEMPAE_clean_linker_10, # of connection points: 2
#     Edge 46, Type (0, 1), BuildingBlock: TEMPAE_clean_linker_10, # of connection points: 2
#     Edge 47, Type (0, 1), BuildingBlock: TEMPAE_clean_linker_10, # of connection points: 2
#     Edge 48, Type (0, 1), BuildingBlock: TEMPAE_clean_linker_10, # of connection points: 2
#     Edge 49, Type (0, 1), BuildingBlock: TEMPAE_clean_linker_10, # of connection points: 2
#     Edge 50, Type (0, 1), BuildingBlock: TEMPAE_clean_linker_10, # of connection points: 2
#     Edge 51, Type (0, 1), BuildingBlock: TEMPAE_clean_linker_10, # of connection points: 2
#     Edge 52, Type (0, 1), BuildingBlock: TEMPAE_clean_linker_10, # of connection points: 2
#     Edge 53, Type (0, 1), BuildingBlock: TEMPAE_clean_linker_10, # of connection points: 2
#     Edge 54, Type (0, 1), BuildingBlock: TEMPAE_clean_linker_10, # of connection points: 2
#     Edge 55, Type (0, 1), BuildingBlock: TEMPAE_clean_linker_10, # of connection points: 2
#     Edge 56, Type (0, 1), BuildingBlock: TEMPAE_clean_linker_10, # of connection points: 2
#     Edge 57, Type (0, 1), BuildingBlock: TEMPAE_clean_linker_10, # of connection points: 2
#     Edge 58, Type (0, 1), BuildingBlock: TEMPAE_clean_linker_10, # of connection points: 2
#     Edge 59, Type (0, 1), BuildingBlock: TEMPAE_clean_linker_10, # of connection points: 2
#     Edge 60, Type (0, 1), BuildingBlock: TEMPAE_clean_linker_10, # of connection points: 2
#     Edge 61, Type (0, 1), BuildingBlock: TEMPAE_clean_linker_10, # of connection points: 2
#     Edge 62, Type (0, 1), BuildingBlock: TEMPAE_clean_linker_10, # of connection points: 2
#     Edge 63, Type (0, 1), BuildingBlock: TEMPAE_clean_linker_10, # of connection points: 2
#     Edge 64, Type (0, 1), BuildingBlock: TEMPAE_clean_linker_10, # of connection points: 2
#     Edge 65, Type (0, 1), BuildingBlock: TEMPAE_clean_linker_10, # of connection points: 2
#     Edge 66, Type (0, 1), BuildingBlock: TEMPAE_clean_linker_10, # of connection points: 2
#     Edge 67, Type (0, 1), BuildingBlock: TEMPAE_clean_linker_10, # of connection points: 2
#     Edge 68, Type (0, 1), BuildingBlock: TEMPAE_clean_linker_10, # of connection points: 2
#     Edge 69, Type (0, 1), BuildingBlock: TEMPAE_clean_linker_10, # of connection points: 2
#     Edge 70, Type (0, 1), BuildingBlock: TEMPAE_clean_linker_10, # of connection points: 2
#     Edge 71, Type (0, 1), BuildingBlock: TEMPAE_clean_linker_10, # of connection points: 2
#     Edge 72, Type (0, 1), BuildingBlock: TEMPAE_clean_linker_10, # of connection points: 2
#     Edge 73, Type (0, 1), BuildingBlock: TEMPAE_clean_linker_10, # of connection points: 2
#     Edge 74, Type (0, 1), BuildingBlock: TEMPAE_clean_linker_10, # of connection points: 2
#     Edge 75, Type (0, 1), BuildingBlock: TEMPAE_clean_linker_10, # of connection points: 2
#     Edge 76, Type (0, 1), BuildingBlock: TEMPAE_clean_linker_10, # of connection points: 2
#     Edge 77, Type (0, 1), BuildingBlock: TEMPAE_clean_linker_10, # of connection points: 2
#     Edge 78, Type (0, 1), BuildingBlock: TEMPAE_clean_linker_10, # of connection points: 2
#     Edge 79, Type (0, 1), BuildingBlock: TEMPAE_clean_linker_10, # of connection points: 2
#     Edge 80, Type (0, 1), BuildingBlock: TEMPAE_clean_linker_10, # of connection points: 2
#     Edge 81, Type (0, 1), BuildingBlock: TEMPAE_clean_linker_10, # of connection points: 2
#     Edge 82, Type (0, 1), BuildingBlock: TEMPAE_clean_linker_10, # of connection points: 2
#     Edge 83, Type (0, 1), BuildingBlock: TEMPAE_clean_linker_10, # of connection points: 2
#     Edge 84, Type (0, 1), BuildingBlock: TEMPAE_clean_linker_10, # of connection points: 2
#     Edge 85, Type (0, 1), BuildingBlock: TEMPAE_clean_linker_10, # of connection points: 2
#     Edge 86, Type (0, 1), BuildingBlock: TEMPAE_clean_linker_10, # of connection points: 2
#     Edge 87, Type (0, 1), BuildingBlock: TEMPAE_clean_linker_10, # of connection points: 2
#     Edge 88, Type (0, 1), BuildingBlock: TEMPAE_clean_linker_10, # of connection points: 2
#     Edge 89, Type (0, 1), BuildingBlock: TEMPAE_clean_linker_10, # of connection points: 2
#     Edge 90, Type (0, 1), BuildingBlock: TEMPAE_clean_linker_10, # of connection points: 2
#     Edge 91, Type (0, 1), BuildingBlock: TEMPAE_clean_linker_10, # of connection points: 2
#     Edge 92, Type (0, 1), BuildingBlock: TEMPAE_clean_linker_10, # of connection points: 2
#     Edge 93, Type (0, 1), BuildingBlock: TEMPAE_clean_linker_10, # of connection points: 2
#     Edge 94, Type (0, 1), BuildingBlock: TEMPAE_clean_linker_10, # of connection points: 2
#     Edge 95, Type (0, 1), BuildingBlock: TEMPAE_clean_linker_10, # of connection points: 2
#     Edge 96, Type (0, 1), BuildingBlock: TEMPAE_clean_linker_10, # of connection points: 2
#     Edge 97, Type (0, 1), BuildingBlock: TEMPAE_clean_linker_10, # of connection points: 2
#     Edge 98, Type (0, 1), BuildingBlock: TEMPAE_clean_linker_10, # of connection points: 2
#     Edge 99, Type (0, 1), BuildingBlock: TEMPAE_clean_linker_10, # of connection points: 2
#     Edge 100, Type (0, 1), BuildingBlock: TEMPAE_clean_linker_10, # of connection points: 2
#     Edge 101, Type (0, 1), BuildingBlock: TEMPAE_clean_linker_10, # of connection points: 2
#     Edge 102, Type (0, 1), BuildingBlock: TEMPAE_clean_linker_10, # of connection points: 2
#     Edge 103, Type (0, 1), BuildingBlock: TEMPAE_clean_linker_10, # of connection points: 2
#     Edge 104, Type (0, 1), BuildingBlock: TEMPAE_clean_linker_10, # of connection points: 2
#     Edge 105, Type (0, 1), BuildingBlock: TEMPAE_clean_linker_10, # of connection points: 2
#     Edge 106, Type (0, 1), BuildingBlock: TEMPAE_clean_linker_10, # of connection points: 2
#     Edge 107, Type (0, 1), BuildingBlock: TEMPAE_clean_linker_10, # of connection points: 2
# Relax obj value: 0.067
# Max RMSD: 0.225
# Mean RMSD: 0.107
data_MOF--net-ptr--node1-TATPOV_clean_sbu_0--node2-MIFKUJ_clean_linker_1--edge1-TEMPAE_clean_linker_10
_symmetry_space_group_name_H-M    P1
_symmetry_Int_Tables_number       1
_symmetry_cell_setting            triclinic
loop_
_symmetry_equiv_pos_as_xyz
'x, y, z'
_cell_length_a     90.277899
_cell_length_b     91.58653
_cell_length_c     61.102087
_cell_angle_alpha  89.730854
_cell_angle_beta   90.698728
_cell_angle_gamma 121.47847
loop_
_atom_site_label
_atom_site_type_symbol
_atom_site_fract_x
_atom_site_fract_y
_atom_site_fract_z
_atom_type_partial_charge
Zn0 Zn 0.96176 0.35309 0.00725 0.0
Zn1 Zn 0.9928 0.35744 0.01757 0.0
O2 O 0.97713 0.33182 0.01017 0.0
O3 O 0.95109 0.32757 0.00432 0.0
O4 O 0.01466 0.35869 0.0279 0.0
O5 O 0.96168 0.36421 0.03585 0.0
O6 O 0.98661 0.36661 0.04435 0.0
C7 C 0.9611 0.32178 0.0055 0.0
C8 C 0.98967 0.37521 0.9774 0.0
O9 O 0.99944 0.37313 0.99064 0.0
O10 O 0.97348 0.36779 0.9807 0.0
C11 C 0.02216 0.35277 0.01674 0.0
O12 O 0.01618 0.34669 0.99704 0.0
C13 C 0.97423 0.36883 0.04917 0.0
Zn14 Zn 0.64118 0.60626 0.99661 0.0
Zn15 Zn 0.64253 0.63504 0.00905 0.0
O16 O 0.66766 0.64313 1.00019 0.0
O17 O 0.66687 0.61958 0.99079 0.0
O18 O 0.64422 0.65673 0.01969 0.0
O19 O 0.63204 0.59578 0.02612 0.0
O20 O 0.63346 0.61949 0.03634 0.0
C21 C 0.67534 0.63567 0.99341 0.0
C22 C 0.61922 0.61399 0.97042 0.0
O23 O 0.62504 0.62688 0.98318 0.0
O24 O 0.62427 0.6035 0.97277 0.0
C25 C 0.65486 0.67135 0.01168 0.0
O26 O 0.66472 0.67244 0.99536 0.0
C27 C 0.62983 0.60432 0.04054 0.0
Zn28 Zn 0.35049 0.96902 0.03147 0.0
Zn29 Zn 0.3555 0.00023 0.02399 0.0
O30 O 0.33002 0.98569 0.03347 0.0
O31 O 0.32564 0.96007 0.03973 0.0
O32 O 0.35695 0.02191 0.01412 0.0
O33 O 0.3567 0.9671 0.00037 0.0
O34 O 0.3622 0.99326 0.9956 0.0
C35 C 0.32003 0.97017 0.03927 0.0
C36 C 0.3772 0.99654 0.05927 0.0
O37 O 0.37323 0.00627 0.04913 0.0
O38 O 0.36955 0.98076 0.05445 0.0
C39 C 0.35469 0.03202 0.02578 0.0
O40 O 0.3524 0.02935 0.04695 0.0
C41 C 0.3619 0.98011 0.98828 0.0
Zn42 Zn 0.04207 0.65291 0.01365 0.0
Zn43 Zn 0.01034 0.64815 0.00791 0.0
O44 O 0.02634 0.67362 0.0156 0.0
O45 O 0.05247 0.67796 0.0207 0.0
O46 O 0.98845 0.64768 0.99982 0.0
O47 O 0.04188 0.64486 0.98274 0.0
O48 O 0.01491 0.63874 0.97989 0.0
C49 C 0.04232 0.68361 0.02048 0.0
C50 C 0.01534 0.62867 0.04421 0.0
O51 O 0.00518 0.63237 0.03437 0.0
O52 O 0.03097 0.63541 0.03813 0.0
C53 C 0.98044 0.65188 0.01287 0.0
O54 O 0.98548 0.6551 0.03346 0.0
C55 C 0.02778 0.63854 0.97193 0.0
Zn56 Zn 0.35101 0.39153 0.02125 0.0
Zn57 Zn 0.35042 0.36257 0.01113 0.0
O58 O 0.32579 0.35398 0.02239 0.0
O59 O 0.32581 0.37751 0.02998 0.0
O60 O 0.34843 0.34083 0.00045 0.0
O61 O 0.35675 0.40007 0.99042 0.0
O62 O 0.35857 0.37754 0.98311 0.0
C63 C 0.31799 0.36135 0.02906 0.0
C64 C 0.37539 0.38576 0.04639 0.0
O65 O 0.36855 0.37166 0.03595 0.0
O66 O 0.3706 0.39633 0.04269 0.0
C67 C 0.34896 0.32978 0.01255 0.0
O68 O 0.35143 0.33251 0.03374 0.0
C69 C 0.36002 0.3916 0.97714 0.0
Zn70 Zn 0.64909 0.0303 0.00229 0.0
Zn71 Zn 0.6455 0.99963 0.00817 0.0
O72 O 0.67116 0.01585 0.99979 0.0
O73 O 0.67421 0.04103 0.99446 0.0
O74 O 0.6453 0.97791 0.01431 0.0
O75 O 0.64214 0.03038 0.03355 0.0
O76 O 0.63728 0.00432 0.03725 0.0
C77 C 0.68061 0.0316 0.99464 0.0
C78 C 0.62387 0.00351 0.97285 0.0
O79 O 0.62824 0.99399 0.98269 0.0
O80 O 0.63071 0.01907 0.97845 0.0
C81 C 0.63407 0.96576 0.02607 0.0
O82 O 0.62107 0.96666 0.03386 0.0
C83 C 0.63701 0.01707 0.04502 0.0
Zn84 Zn 0.62642 0.68856 0.34156 0.0
Zn85 Zn 0.65699 0.69087 0.34945 0.0
O86 O 0.63982 0.66582 0.34051 0.0
O87 O 0.61471 0.6635 0.33383 0.0
O88 O 0.67814 0.6899 0.35794 0.0
O89 O 0.62611 0.69605 0.37257 0.0
O90 O 0.65218 0.70008 0.37753 0.0
C91 C 0.62391 0.6568 0.3347 0.0
C92 C 0.65502 0.71227 0.31297 0.0
O93 O 0.664 0.70746 0.32355 0.0
O94 O 0.63927 0.70636 0.31789 0.0
C95 C 0.67528 0.67796 0.37118 0.0
O96 O 0.6594 0.66785 0.37833 0.0
C97 C 0.63946 0.70101 0.38454 0.0
Zn98 Zn 0.30962 0.94338 0.33141 0.0
Zn99 Zn 0.31122 0.97241 0.34241 0.0
O100 O 0.33629 0.9802 0.33295 0.0
O101 O 0.33456 0.95641 0.32244 0.0
O102 O 0.31301 0.99429 0.35263 0.0
O103 O 0.30333 0.93454 0.36222 0.0
O104 O 0.30228 0.9574 0.37019 0.0
C105 C 0.34341 0.97248 0.32509 0.0
C106 C 0.28636 0.94985 0.30591 0.0
O107 O 0.29323 0.96365 0.31709 0.0
O108 O 0.29092 0.93908 0.30933 0.0
C109 C 0.32446 0.0091 0.3459 0.0
O110 O 0.33542 0.01053 0.33088 0.0
C111 C 0.3003 0.94306 0.37575 0.0
Zn112 Zn 0.0292 0.31338 0.37288 0.0
Zn113 Zn 0.03029 0.34223 0.36188 0.0
O114 O 0.00528 0.32618 0.3725 0.0
O115 O 0.00388 0.30204 0.38037 0.0
O116 O 0.02949 0.36293 0.35249 0.0
O117 O 0.03674 0.31165 0.34261 0.0
O118 O 0.03652 0.33479 0.33326 0.0
C119 C 0.99666 0.31073 0.3791 0.0
C120 C 0.05422 0.34278 0.39831 0.0
O121 O 0.04923 0.35087 0.38625 0.0
O122 O 0.0474 0.32678 0.39589 0.0
C123 C 0.04045 0.3742 0.33953 0.0
O124 O 0.05348 0.37291 0.33273 0.0
C125 C 0.03885 0.32263 0.32835 0.0
Zn126 Zn 0.7104 0.97907 0.3512 0.0
Zn127 Zn 0.68024 0.97673 0.34088 0.0
O128 O 0.69676 0.00199 0.34915 0.0
O129 O 0.72179 0.00444 0.35694 0.0
O130 O 0.6592 0.97702 0.33025 0.0
O131 O 0.71122 0.96987 0.32159 0.0
O132 O 0.68628 0.96765 0.3137 0.0
C133 C 0.71261 0.01113 0.35515 0.0
C134 C 0.68143 0.95619 0.37937 0.0
O135 O 0.67258 0.96043 0.36742 0.0
O136 O 0.6974 0.96236 0.37556 0.0
C137 C 0.64975 0.98 0.34243 0.0
O138 O 0.65294 0.98193 0.36359 0.0
C139 C 0.6987 0.96562 0.30837 0.0
Zn140 Zn 0.01614 0.72447 0.3558 0.0
Zn141 Zn 0.01672 0.69664 0.34452 0.0
O142 O 0.9913 0.68701 0.35405 0.0
O143 O 0.99096 0.70998 0.36346 0.0
O144 O 0.01603 0.67556 0.33346 0.0
O145 O 0.0228 0.73419 0.32549 0.0
O146 O 0.02511 0.71212 0.31708 0.0
C147 C 0.98314 0.6939 0.36118 0.0
C148 C 0.04027 0.71937 0.38174 0.0
O149 O 0.03451 0.70592 0.37005 0.0
O150 O 0.03464 0.72932 0.37857 0.0
C151 C 0.01923 0.66578 0.34469 0.0
O152 O 0.02362 0.66931 0.36543 0.0
C153 C 0.02648 0.72626 0.31181 0.0
Zn154 Zn 0.30958 0.36079 0.32844 0.0
Zn155 Zn 0.30748 0.33153 0.34065 0.0
O156 O 0.33274 0.34717 0.33059 0.0
O157 O 0.33485 0.37135 0.32105 0.0
O158 O 0.30715 0.31044 0.35116 0.0
O159 O 0.30231 0.36331 0.3586 0.0
O160 O 0.3007 0.33936 0.36838 0.0
C161 C 0.34171 0.36239 0.3233 0.0
C162 C 0.28439 0.33105 0.30334 0.0
O163 O 0.28919 0.32301 0.31575 0.0
O164 O 0.29122 0.34708 0.30554 0.0
C165 C 0.31633 0.30539 0.34216 0.0
O166 O 0.32554 0.31357 0.32492 0.0
C167 C 0.29915 0.35207 0.37298 0.0
Zn168 Zn 0.2925 0.02112 0.6781 0.0
Zn169 Zn 0.32311 0.02342 0.6844 0.0
O170 O 0.30591 0.99828 0.67596 0.0
O171 O 0.28075 0.99609 0.67013 0.0
O172 O 0.34441 0.02251 0.69144 0.0
O173 O 0.29298 0.02863 0.70937 0.0
O174 O 0.31917 0.03271 0.71301 0.0
C175 C 0.28992 0.98933 0.67048 0.0
C176 C 0.32024 0.04483 0.64866 0.0
O177 O 0.32941 0.03994 0.65858 0.0
O178 O 0.30463 0.03897 0.65427 0.0
C179 C 0.35928 0.03525 0.69642 0.0
O180 O 0.3617 0.0507 0.6963 0.0
C181 C 0.30664 0.03365 0.72073 0.0
Zn182 Zn 0.98322 0.27836 0.67078 0.0
Zn183 Zn 0.98122 0.30605 0.68007 0.0
O184 O 0.00666 0.31597 0.67039 0.0
O185 O 0.00873 0.29334 0.66473 0.0
O186 O 0.98062 0.32691 0.68945 0.0
O187 O 0.97577 0.26917 0.70115 0.0
O188 O 0.9732 0.2913 0.70824 0.0
C189 C 0.01561 0.30942 0.66527 0.0
C190 C 0.95877 0.28221 0.64315 0.0
O191 O 0.96363 0.29558 0.65467 0.0
O192 O 0.96519 0.27297 0.64682 0.0
C193 C 0.99075 0.34185 0.68191 0.0
O194 O 0.00178 0.34399 0.66657 0.0
C195 C 0.97192 0.27733 0.71423 0.0
Zn196 Zn 0.68824 0.64112 0.70347 0.0
Zn197 Zn 0.69108 0.67118 0.69364 0.0
O198 O 0.66544 0.65502 0.70216 0.0
O199 O 0.66295 0.63047 0.71054 0.0
O200 O 0.69163 0.69261 0.68399 0.0
O201 O 0.69561 0.63957 0.67291 0.0
O202 O 0.69903 0.66472 0.66579 0.0
C203 C 0.65622 0.63955 0.70856 0.0
C204 C 0.71316 0.66975 0.7308 0.0
O205 O 0.70861 0.67848 0.71933 0.0
O206 O 0.7064 0.6539 0.72706 0.0
C207 C 0.68144 0.69691 0.69178 0.0
O208 O 0.67103 0.68785 0.70776 0.0
C209 C 0.69996 0.6519 0.65983 0.0
Zn210 Zn 0.37402 0.31333 0.68879 0.0
Zn211 Zn 0.34315 0.30947 0.67878 0.0
O212 O 0.35883 0.33482 0.68726 0.0
O213 O 0.38447 0.33856 0.69474 0.0
O214 O 0.32168 0.30904 0.66832 0.0
O215 O 0.37523 0.30446 0.6591 0.0
O216 O 0.34972 0.30101 0.6514 0.0
C217 C 0.37463 0.34454 0.69319 0.0
C218 C 0.34557 0.28943 0.717 0.0
O219 O 0.33618 0.29308 0.7052 0.0
O220 O 0.36163 0.29634 0.7131 0.0
C221 C 0.31145 0.31079 0.68061 0.0
O222 O 0.31393 0.31165 0.70192 0.0
C223 C 0.36257 0.29969 0.64596 0.0
Zn224 Zn 0.69346 0.06093 0.69182 0.0
Zn225 Zn 0.69238 0.03207 0.68159 0.0
O226 O 0.66723 0.02413 0.69049 0.0
O227 O 0.66749 0.04813 0.69494 0.0
O228 O 0.69082 0.0102 0.67181 0.0
O229 O 0.70416 0.07148 0.66311 0.0
O230 O 0.70171 0.04714 0.65372 0.0
C231 C 0.65932 0.03195 0.69451 0.0
C232 C 0.71457 0.05355 0.72047 0.0
O233 O 0.70963 0.0408 0.7077 0.0
O234 O 0.70904 0.0636 0.71746 0.0
C235 C 0.67978 0.99553 0.67935 0.0
O236 O 0.66927 0.99437 0.69486 0.0
C237 C 0.70607 0.06248 0.64911 0.0
Zn238 Zn 0.97739 0.6984 0.67275 0.0
Zn239 Zn 0.9752 0.66891 0.68251 0.0
O240 O 4e-05 0.68411 0.67092 0.0
O241 O 0.00149 0.70794 0.66107 0.0
O242 O 0.97541 0.64817 0.69289 0.0
O243 O 0.974 0.70234 0.70421 0.0
O244 O 0.96898 0.67652 0.71094 0.0
C245 C 0.00846 0.69904 0.66259 0.0
C246 C 0.95021 0.66874 0.64886 0.0
O247 O 0.95639 0.66064 0.65843 0.0
O248 O 0.95646 0.68448 0.6529 0.0
C249 C 0.97372 0.63609 0.68089 0.0
O250 O 0.97089 0.63628 0.65978 0.0
C251 C 0.96962 0.69006 0.71736 0.0
H252 H 0.13763 0.32563 0.19113 0.0
H253 H 0.11886 0.33062 0.21369 0.0
H254 H 0.07552 0.29909 0.17023 0.0
H255 H 0.0944 0.29319 0.14831 0.0
H256 H 0.13618 0.29691 0.18471 0.0
H257 H 0.13248 0.33843 0.13652 0.0
H258 H 0.11545 0.34724 0.11479 0.0
H259 H 0.09342 0.30044 0.07727 0.0
H260 H 0.1104 0.29167 0.09915 0.0
H261 H 0.15967 0.29219 0.09581 0.0
H262 H 0.18624 0.29919 0.07715 0.0
H263 H 0.21618 0.32738 0.13435 0.0
H264 H 0.18994 0.32239 0.1514 0.0
H265 H 0.14846 0.31096 0.10612 0.0
H266 H 0.16383 0.27676 0.15204 0.0
H267 H 0.18343 0.27265 0.1761 0.0
H268 H 0.18566 0.30996 0.22115 0.0
H269 H 0.16675 0.31437 0.19714 0.0
C270 C 0.11747 0.30899 0.16802 0.0
C271 C 0.12408 0.31975 0.18639 0.0
C272 C 0.11333 0.32283 0.19914 0.0
C273 C 0.09564 0.31543 0.19372 0.0
C274 C 0.08905 0.30492 0.17498 0.0
C275 C 0.09986 0.30165 0.1623 0.0
C276 C 0.12927 0.30537 0.15564 0.0
C277 C 0.13896 0.29999 0.1675 0.0
C278 C 0.13231 0.30867 0.13304 0.0
C279 C 0.12252 0.31433 0.11954 0.0
C280 C 0.12399 0.3301 0.12359 0.0
C281 C 0.11436 0.33516 0.11109 0.0
C282 C 0.10308 0.32449 0.0944 0.0
C283 C 0.10187 0.30882 0.09019 0.0
C284 C 0.1116 0.30384 0.10257 0.0
C285 C 0.17261 0.30644 0.12527 0.0
C286 C 0.17199 0.29995 0.10427 0.0
C287 C 0.18728 0.3038 0.0937 0.0
C288 C 0.20359 0.31393 0.10408 0.0
C289 C 0.20405 0.31991 0.12543 0.0
C290 C 0.18886 0.31663 0.13558 0.0
C291 C 0.15653 0.30379 0.13564 0.0
C292 C 0.14567 0.30755 0.12324 0.0
C293 C 0.15276 0.29946 0.15806 0.0
C294 C 0.16376 0.29587 0.17274 0.0
C295 C 0.16853 0.284 0.16713 0.0
C296 C 0.17966 0.28162 0.18088 0.0
C297 C 0.18585 0.29081 0.20062 0.0
C298 C 0.18077 0.30239 0.20631 0.0
C299 C 0.16994 0.30493 0.19254 0.0
H300 H 0.71344 0.87951 0.1576 0.0
H301 H 0.71504 0.90169 0.18162 0.0
H302 H 0.65941 0.87824 0.1762 0.0
H303 H 0.6579 0.85617 0.15206 0.0
H304 H 0.69297 0.84355 0.16782 0.0
H305 H 0.69841 0.88254 0.11054 0.0
H306 H 0.6901 0.90131 0.09303 0.0
H307 H 0.63811 0.85798 0.08263 0.0
H308 H 0.64657 0.83925 0.10004 0.0
H309 H 0.65017 0.79763 0.09847 0.0
H310 H 0.64577 0.77213 0.0797 0.0
H311 H 0.69932 0.78814 0.09303 0.0
H312 H 0.70348 0.8134 0.11219 0.0
H313 H 0.67075 0.83102 0.09133 0.0
H314 H 0.6616 0.79251 0.14763 0.0
H315 H 0.66298 0.77312 0.17381 0.0
H316 H 0.71538 0.81246 0.19167 0.0
H317 H 0.71398 0.83189 0.16516 0.0
C318 C 0.68557 0.86628 0.15303 0.0
C319 C 0.70165 0.87932 0.16134 0.0
C320 C 0.70255 0.89201 0.17493 0.0
C321 C 0.68734 0.89164 0.18072 0.0
C322 C 0.67131 0.87877 0.17201 0.0
C323 C 0.67044 0.86622 0.15819 0.0
C324 C 0.68442 0.85202 0.14025 0.0
C325 C 0.68859 0.84101 0.15089 0.0
C326 C 0.6778 0.84833 0.1186 0.0
C327 C 0.67306 0.85953 0.10679 0.0
C328 C 0.68523 0.87709 0.10449 0.0
C329 C 0.68044 0.88781 0.09454 0.0
C330 C 0.6634 0.88116 0.0866 0.0
C331 C 0.65137 0.86348 0.0884 0.0
C332 C 0.65618 0.85276 0.09837 0.0
C333 C 0.67711 0.80736 0.10685 0.0
C334 C 0.66098 0.79567 0.09724 0.0
C335 C 0.65851 0.78113 0.08645 0.0
C336 C 0.67218 0.77805 0.08487 0.0
C337 C 0.68842 0.78994 0.09426 0.0
C338 C 0.69084 0.80443 0.10515 0.0
C339 C 0.67955 0.82254 0.11882 0.0
C340 C 0.67555 0.83369 0.10808 0.0
C341 C 0.68587 0.8261 0.14067 0.0
C342 C 0.68775 0.81363 0.15422 0.0
C343 C 0.67361 0.79683 0.15662 0.0
C344 C 0.6744 0.78573 0.17165 0.0
C345 C 0.68929 0.79126 0.18482 0.0
C346 C 0.70369 0.80789 0.18186 0.0
C347 C 0.70292 0.81897 0.16669 0.0
H348 H 0.10333 0.8456 0.17727 0.0
H349 H 0.08487 0.822 0.20196 0.0
H350 H 0.09928 0.7897 0.16911 0.0
H351 H 0.1184 0.81355 0.14497 0.0
H352 H 0.13736 0.86063 0.17561 0.0
H353 H 0.08995 0.82639 0.12308 0.0
H354 H 0.07146 0.79972 0.10258 0.0
H355 H 0.1169 0.80534 0.0717 0.0
H356 H 0.1353 0.83137 0.09264 0.0
H357 H 0.17101 0.87013 0.0933 0.0
H358 H 0.19732 0.8918 0.07527 0.0
H359 H 0.19502 0.93154 0.1099 0.0
H360 H 0.16807 0.90972 0.12748 0.0
H361 H 0.13971 0.86074 0.09467 0.0
H362 H 0.18532 0.88272 0.14727 0.0
H363 H 0.20866 0.90163 0.17247 0.0
H364 H 0.17408 0.91389 0.2045 0.0
H365 H 0.15068 0.89489 0.17908 0.0
C366 C 0.11212 0.83133 0.15907 0.0
C367 C 0.10241 0.8334 0.1752 0.0
C368 C 0.09189 0.81996 0.18927 0.0
C369 C 0.09071 0.80413 0.18731 0.0
C370 C 0.09989 0.80178 0.17072 0.0
C371 C 0.11072 0.81537 0.15688 0.0
C372 C 0.12494 0.84638 0.14618 0.0
C373 C 0.13763 0.8608 0.15785 0.0
C374 C 0.1258 0.84625 0.12304 0.0
C375 C 0.11407 0.83086 0.1096 0.0
C376 C 0.09592 0.82186 0.11193 0.0
C377 C 0.08537 0.80669 0.10017 0.0
C378 C 0.09278 0.80057 0.08549 0.0
C379 C 0.11083 0.80991 0.08265 0.0
C380 C 0.12135 0.82481 0.09464 0.0
C381 C 0.16756 0.88823 0.11193 0.0
C382 C 0.17583 0.8835 0.09667 0.0
C383 C 0.1909 0.8959 0.08634 0.0
C384 C 0.19815 0.91332 0.09117 0.0
C385 C 0.18968 0.91817 0.10597 0.0
C386 C 0.17436 0.90572 0.11607 0.0
C387 C 0.15243 0.87467 0.12415 0.0
C388 C 0.13919 0.86069 0.1124 0.0
C389 C 0.15169 0.87464 0.14727 0.0
C390 C 0.1663 0.88755 0.1611 0.0
C391 C 0.18286 0.8898 0.15934 0.0
C392 C 0.19622 0.90065 0.17377 0.0
C393 C 0.19324 0.9093 0.19047 0.0
C394 C 0.17674 0.90732 0.1919 0.0
C395 C 0.16339 0.89651 0.17737 0.0
H396 H 0.28825 0.16728 0.8608 0.0
H397 H 0.28683 0.18696 0.83481 0.0
H398 H 0.33858 0.22669 0.85449 0.0
H399 H 0.33997 0.20699 0.88028 0.0
H400 H 0.31046 0.15662 0.85868 0.0
H401 H 0.29821 0.18761 0.91145 0.0
H402 H 0.30312 0.21343 0.9298 0.0
H403 H 0.35329 0.22393 0.9526 0.0
H404 H 0.34869 0.19863 0.93324 0.0
H405 H 0.34959 0.15825 0.9357 0.0
H406 H 0.35536 0.13946 0.95759 0.0
H407 H 0.30741 0.09564 0.93384 0.0
H408 H 0.30106 0.11469 0.91335 0.0
H409 H 0.32679 0.16625 0.93729 0.0
H410 H 0.34102 0.13757 0.88331 0.0
H411 H 0.33978 0.11573 0.85891 0.0
H412 H 0.28891 0.1029 0.83628 0.0
H413 H 0.28977 0.12413 0.86126 0.0
C414 C 0.31417 0.18567 0.87261 0.0
C415 C 0.29919 0.18031 0.85972 0.0
C416 C 0.2984 0.19154 0.84486 0.0
C417 C 0.31259 0.20837 0.8426 0.0
C418 C 0.32732 0.2139 0.8561 0.0
C419 C 0.32814 0.20263 0.87086 0.0
C420 C 0.31578 0.17312 0.88633 0.0
C421 C 0.31366 0.15849 0.87602 0.0
C422 C 0.32065 0.17601 0.90872 0.0
C423 C 0.32317 0.19127 0.92068 0.0
C424 C 0.31034 0.19556 0.92022 0.0
C425 C 0.31309 0.21024 0.93096 0.0
C426 C 0.32864 0.22083 0.94264 0.0
C427 C 0.3413 0.21626 0.94346 0.0
C428 C 0.3386 0.20167 0.93258 0.0
C429 C 0.32497 0.13793 0.92262 0.0
C430 C 0.34021 0.14461 0.93537 0.0
C431 C 0.34361 0.13378 0.94771 0.0
C432 C 0.33195 0.11595 0.94742 0.0
C433 C 0.31662 0.1093 0.93473 0.0
C434 C 0.31308 0.12018 0.92268 0.0
C435 C 0.32156 0.14967 0.9096 0.0
C436 C 0.32336 0.16419 0.92003 0.0
C437 C 0.31665 0.1468 0.88717 0.0
C438 C 0.31542 0.13245 0.87429 0.0
C439 C 0.32938 0.12973 0.8736 0.0
C440 C 0.32872 0.11732 0.85961 0.0
C441 C 0.31429 0.10776 0.84573 0.0
C442 C 0.30021 0.1102 0.84678 0.0
C443 C 0.30072 0.12233 0.86102 0.0
H444 H 0.84891 0.11095 0.84915 0.0
H445 H 0.82571 0.09171 0.82369 0.0
H446 H 0.79015 0.10224 0.85645 0.0
H447 H 0.81336 0.12158 0.88161 0.0
H448 H 0.86143 0.14466 0.85256 0.0
H449 H 0.83131 0.09579 0.90144 0.0
H450 H 0.80479 0.07406 0.91988 0.0
H451 H 0.80265 0.11401 0.95417 0.0
H452 H 0.82855 0.13559 0.93529 0.0
H453 H 0.86541 0.17456 0.93616 0.0
H454 H 0.88479 0.20028 0.95715 0.0
H455 H 0.92898 0.20452 0.92444 0.0
H456 H 0.90951 0.17817 0.90388 0.0
H457 H 0.85995 0.14487 0.93354 0.0
H458 H 0.88126 0.19198 0.88334 0.0
H459 H 0.90006 0.21567 0.8588 0.0
H460 H 0.91338 0.18289 0.82499 0.0
H461 H 0.89521 0.15946 0.85 0.0
C462 C 0.83285 0.11756 0.86746 0.0
C463 C 0.83605 0.10891 0.85103 0.0
C464 C 0.82281 0.09796 0.83649 0.0
C465 C 0.80611 0.09545 0.83812 0.0
C466 C 0.80279 0.10369 0.85502 0.0
C467 C 0.81607 0.11475 0.86942 0.0
C468 C 0.8474 0.13075 0.88111 0.0
C469 C 0.86134 0.14455 0.87032 0.0
C470 C 0.84686 0.13086 0.90425 0.0
C471 C 0.83187 0.11738 0.91676 0.0
C472 C 0.82513 0.09987 0.91293 0.0
C473 C 0.81006 0.08747 0.92352 0.0
C474 C 0.80177 0.09239 0.9385 0.0
C475 C 0.80894 0.10985 0.94296 0.0
C476 C 0.82376 0.1222 0.93215 0.0
C477 C 0.88593 0.17442 0.91827 0.0
C478 C 0.87928 0.18076 0.93375 0.0
C479 C 0.89037 0.19547 0.94578 0.0
C480 C 0.90836 0.20433 0.94246 0.0
C481 C 0.91513 0.19792 0.92724 0.0
C482 C 0.90401 0.18294 0.91543 0.0
C483 C 0.87367 0.15917 0.90495 0.0
C484 C 0.86027 0.14486 0.9158 0.0
C485 C 0.87423 0.15898 0.88179 0.0
C486 C 0.88697 0.17396 0.86871 0.0
C487 C 0.88864 0.19002 0.8711 0.0
C488 C 0.89928 0.20352 0.85703 0.0
C489 C 0.90804 0.201 0.84003 0.0
C490 C 0.90666 0.18508 0.83794 0.0
C491 C 0.8963 0.17172 0.85221 0.0
H492 H 0.83388 0.68924 0.84463 0.0
H493 H 0.81307 0.68978 0.81951 0.0
H494 H 0.8113 0.72717 0.86041 0.0
H495 H 0.83257 0.72683 0.88557 0.0
H496 H 0.86477 0.71115 0.85621 0.0
H497 H 0.81109 0.67876 0.89246 0.0
H498 H 0.78378 0.67213 0.90888 0.0
H499 H 0.81206 0.7125 0.95638 0.0
H500 H 0.8395 0.71917 0.93969 0.0
H501 H 0.90577 0.71981 0.91361 0.0
H502 H 0.92326 0.71099 0.93373 0.0
H503 H 0.87639 0.66685 0.9582 0.0
H504 H 0.85904 0.67493 0.9365 0.0
H505 H 0.85281 0.69838 0.93514 0.0
H506 H 0.8984 0.73023 0.86043 0.0
H507 H 0.91809 0.72741 0.83606 0.0
H508 H 0.89985 0.67679 0.86128 0.0
H509 H 0.87958 0.67928 0.88509 0.0
C510 C 0.83484 0.70799 0.86703 0.0
C511 C 0.82926 0.69778 0.8481 0.0
C512 C 0.81737 0.69812 0.83371 0.0
C513 C 0.81067 0.70864 0.83788 0.0
C514 C 0.81623 0.71891 0.85682 0.0
C515 C 0.82833 0.7187 0.8712 0.0
C516 C 0.84727 0.70703 0.8823 0.0
C517 C 0.8623 0.70856 0.87355 0.0
C518 C 0.84384 0.70332 0.90482 0.0
C519 C 0.82731 0.69966 0.91462 0.0
C520 C 0.81142 0.68638 0.90618 0.0
C521 C 0.79582 0.68262 0.91557 0.0
C522 C 0.79577 0.69191 0.93379 0.0
C523 C 0.81171 0.70511 0.94237 0.0
C524 C 0.82736 0.70894 0.93286 0.0
C525 C 0.88104 0.69788 0.92311 0.0
C526 C 0.89925 0.70814 0.92314 0.0
C527 C 0.90927 0.70319 0.93497 0.0
C528 C 0.90129 0.68807 0.94752 0.0
C529 C 0.88304 0.67832 0.94832 0.0
C530 C 0.87305 0.68309 0.93614 0.0
C531 C 0.87021 0.70204 0.9089 0.0
C532 C 0.85558 0.70134 0.91792 0.0
C533 C 0.87356 0.70568 0.88631 0.0
C534 C 0.88755 0.70502 0.87469 0.0
C535 C 0.89882 0.71862 0.86101 0.0
C536 C 0.91006 0.71704 0.84715 0.0
C537 C 0.91041 0.70191 0.84693 0.0
C538 C 0.89988 0.68864 0.86142 0.0
C539 C 0.88838 0.6901 0.87504 0.0
H540 H 0.81086 0.67222 0.51694 0.0
H541 H 0.79189 0.67588 0.54148 0.0
H542 H 0.74756 0.62947 0.51578 0.0
H543 H 0.76665 0.62624 0.49071 0.0
H544 H 0.81458 0.6439 0.51826 0.0
H545 H 0.8025 0.67555 0.46634 0.0
H546 H 0.78289 0.68237 0.44743 0.0
H547 H 0.7552 0.63157 0.41918 0.0
H548 H 0.77528 0.62504 0.43779 0.0
H549 H 0.82405 0.61917 0.43443 0.0
H550 H 0.84821 0.6205 0.4143 0.0
H551 H 0.88448 0.66638 0.44992 0.0
H552 H 0.86056 0.66523 0.46937 0.0
H553 H 0.81362 0.64323 0.43703 0.0
H554 H 0.83096 0.61435 0.49389 0.0
H555 H 0.85245 0.61279 0.51755 0.0
H556 H 0.87348 0.6653 0.53711 0.0
H557 H 0.8518 0.66664 0.51419 0.0
C558 C 0.79015 0.64891 0.50216 0.0
C559 C 0.79701 0.66297 0.51641 0.0
C560 C 0.78616 0.66499 0.53049 0.0
C561 C 0.76823 0.65282 0.53085 0.0
C562 C 0.76128 0.63913 0.51583 0.0
C563 C 0.77216 0.63722 0.50156 0.0
C564 C 0.80205 0.64589 0.48919 0.0
C565 C 0.81431 0.64367 0.5005 0.0
C566 C 0.80164 0.64554 0.46607 0.0
C567 C 0.7902 0.64974 0.45361 0.0
C568 C 0.79224 0.66591 0.456 0.0
C569 C 0.78096 0.66975 0.44526 0.0
C570 C 0.76735 0.65746 0.43195 0.0
C571 C 0.76564 0.64139 0.42913 0.0
C572 C 0.77703 0.63759 0.43981 0.0
C573 C 0.84056 0.64185 0.45381 0.0
C574 C 0.83724 0.62946 0.43788 0.0
C575 C 0.851 0.63021 0.42644 0.0
C576 C 0.86823 0.64333 0.4309 0.0
C577 C 0.8714 0.65583 0.44659 0.0
C578 C 0.85772 0.65518 0.45775 0.0
C579 C 0.82627 0.64133 0.46617 0.0
C580 C 0.81351 0.64287 0.45477 0.0
C581 C 0.82648 0.64154 0.48931 0.0
C582 C 0.83985 0.64061 0.50237 0.0
C583 C 0.84028 0.6255 0.50322 0.0
C584 C 0.85248 0.62462 0.51666 0.0
C585 C 0.8646 0.63898 0.5289 0.0
C586 C 0.86435 0.65415 0.52761 0.0
C587 C 0.85196 0.65489 0.51465 0.0
H588 H 0.3804 0.21498 0.49601 0.0
H589 H 0.38157 0.23698 0.52003 0.0
H590 H 0.32622 0.21427 0.51183 0.0
H591 H 0.32515 0.19244 0.48761 0.0
H592 H 0.35886 0.17873 0.50563 0.0
H593 H 0.36847 0.21832 0.4469 0.0
H594 H 0.36268 0.23796 0.42679 0.0
H595 H 0.30941 0.197 0.41643 0.0
H596 H 0.31552 0.17733 0.43602 0.0
H597 H 0.31804 0.13419 0.43397 0.0
H598 H 0.3139 0.10894 0.41479 0.0
H599 H 0.36654 0.12355 0.43164 0.0
H600 H 0.37046 0.14859 0.45113 0.0
H601 H 0.33944 0.16757 0.42796 0.0
H602 H 0.32764 0.12799 0.4843 0.0
H603 H 0.32818 0.10804 0.51034 0.0
H604 H 0.3803 0.14676 0.53022 0.0
H605 H 0.37973 0.16673 0.5039 0.0
C606 C 0.35271 0.20216 0.49001 0.0
C607 C 0.36859 0.21494 0.49911 0.0
C608 C 0.36925 0.22751 0.51271 0.0
C609 C 0.35398 0.22728 0.51774 0.0
C610 C 0.33816 0.21469 0.50821 0.0
C611 C 0.33755 0.20229 0.49435 0.0
C612 C 0.35169 0.18788 0.47743 0.0
C613 C 0.35507 0.17647 0.48847 0.0
C614 C 0.3459 0.18459 0.45543 0.0
C615 C 0.3424 0.19641 0.44302 0.0
C616 C 0.35555 0.21361 0.44029 0.0
C617 C 0.35218 0.22483 0.42888 0.0
C618 C 0.33554 0.21911 0.42006 0.0
C619 C 0.32243 0.20181 0.42273 0.0
C620 C 0.32586 0.19055 0.434 0.0
C621 C 0.34451 0.14322 0.44412 0.0
C622 C 0.3287 0.13198 0.43345 0.0
C623 C 0.32638 0.11757 0.42243 0.0
C624 C 0.33988 0.11418 0.42169 0.0
C625 C 0.35577 0.12559 0.4322 0.0
C626 C 0.35806 0.13996 0.44329 0.0
C627 C 0.34683 0.15836 0.45609 0.0
C628 C 0.34359 0.16991 0.44499 0.0
C629 C 0.35241 0.16157 0.47826 0.0
C630 C 0.35371 0.14883 0.49196 0.0
C631 C 0.33939 0.13206 0.49375 0.0
C632 C 0.33972 0.12065 0.50869 0.0
C633 C 0.35429 0.12583 0.52235 0.0
C634 C 0.36884 0.14245 0.52004 0.0
C635 C 0.36854 0.15384 0.50498 0.0
H636 H 0.77316 0.1705 0.50355 0.0
H637 H 0.75403 0.14566 0.5262 0.0
H638 H 0.77816 0.11905 0.50132 0.0
H639 H 0.79727 0.14397 0.47864 0.0
H640 H 0.81071 0.18794 0.50786 0.0
H641 H 0.765 0.15594 0.45341 0.0
H642 H 0.74654 0.12947 0.4327 0.0
H643 H 0.79214 0.13442 0.4031 0.0
H644 H 0.81051 0.16046 0.42416 0.0
H645 H 0.84718 0.20077 0.42698 0.0
H646 H 0.87368 0.22352 0.41044 0.0
H647 H 0.8685 0.26129 0.44584 0.0
H648 H 0.84152 0.23837 0.46207 0.0
H649 H 0.81536 0.19042 0.42701 0.0
H650 H 0.85961 0.21153 0.4808 0.0
H651 H 0.88244 0.22992 0.50689 0.0
H652 H 0.84671 0.24014 0.53985 0.0
H653 H 0.82385 0.22175 0.51347 0.0
C654 C 0.78653 0.159 0.48939 0.0
C655 C 0.77411 0.1592 0.50271 0.0
C656 C 0.76314 0.14498 0.51551 0.0
C657 C 0.7646 0.13043 0.51544 0.0
C658 C 0.77679 0.13011 0.50167 0.0
C659 C 0.78763 0.14428 0.48869 0.0
C660 C 0.79929 0.17467 0.4776 0.0
C661 C 0.81151 0.18872 0.49014 0.0
C662 C 0.80073 0.17519 0.45456 0.0
C663 C 0.78919 0.16011 0.44059 0.0
C664 C 0.77102 0.15132 0.44248 0.0
C665 C 0.76049 0.13626 0.43059 0.0
C666 C 0.76793 0.12993 0.4163 0.0
C667 C 0.78603 0.13912 0.41377 0.0
C668 C 0.79655 0.15401 0.42583 0.0
C669 C 0.84237 0.2178 0.44593 0.0
C670 C 0.85146 0.21394 0.43085 0.0
C671 C 0.86663 0.22697 0.42137 0.0
C672 C 0.87312 0.24416 0.42684 0.0
C673 C 0.8638 0.24812 0.44145 0.0
C674 C 0.84845 0.23504 0.45075 0.0
C675 C 0.82713 0.20364 0.45727 0.0
C676 C 0.81435 0.18991 0.4447 0.0
C677 C 0.82579 0.20292 0.48038 0.0
C678 C 0.84006 0.21545 0.49496 0.0
C679 C 0.85678 0.21807 0.49327 0.0
C680 C 0.86984 0.22859 0.50823 0.0
C681 C 0.8664 0.23652 0.52541 0.0
C682 C 0.84973 0.23412 0.52687 0.0
C683 C 0.83668 0.22366 0.51179 0.0
H684 H 0.96432 0.50777 0.18939 0.0
H685 H 0.96252 0.52738 0.16364 0.0
H686 H 0.01487 0.56689 0.18142 0.0
H687 H 0.01665 0.54729 0.20693 0.0
H688 H 0.98519 0.49614 0.18641 0.0
H689 H 0.97522 0.5269 0.24064 0.0
H690 H 0.97929 0.55202 0.26001 0.0
H691 H 0.03128 0.56549 0.27866 0.0
H692 H 0.02738 0.54075 0.25841 0.0
H693 H 0.03104 0.49945 0.25444 0.0
H694 H 0.03875 0.48053 0.27292 0.0
H695 H 0.98649 0.43775 0.26223 0.0
H696 H 0.97893 0.45671 0.24365 0.0
H697 H 0.0072 0.5081 0.263 0.0
H698 H 0.01908 0.48192 0.20178 0.0
H699 H 0.01638 0.45921 0.17779 0.0
H700 H 0.96096 0.43754 0.17333 0.0
H701 H 0.96376 0.46035 0.19716 0.0
C702 C 0.99057 0.52606 0.20024 0.0
C703 C 0.97532 0.52074 0.18796 0.0
C704 C 0.97431 0.53193 0.17323 0.0
C705 C 0.98855 0.54868 0.17049 0.0
C706 C 0.00357 0.55417 0.1834 0.0
C707 C 0.0046 0.54296 0.19803 0.0
C708 C 0.99251 0.51356 0.21364 0.0
C709 C 0.9896 0.4986 0.20334 0.0
C710 C 0.99873 0.51695 0.23556 0.0
C711 C 0.00106 0.53201 0.24782 0.0
C712 C 0.98756 0.53535 0.24871 0.0
C713 C 0.98984 0.54962 0.26003 0.0
C714 C 0.00562 0.56079 0.27091 0.0
C715 C 0.01905 0.55729 0.27022 0.0
C716 C 0.01678 0.54305 0.25882 0.0
C717 C 0.00447 0.47946 0.24746 0.0
C718 C 0.02123 0.48601 0.2562 0.0
C719 C 0.0256 0.47518 0.2668 0.0
C720 C 0.01326 0.4576 0.26896 0.0
C721 C 0.99639 0.45115 0.2605 0.0
C722 C 0.99203 0.46198 0.24991 0.0
C723 C 7e-05 0.4909 0.2356 0.0
C724 C 0.00252 0.5056 0.24619 0.0
C725 C 0.99343 0.48734 0.21395 0.0
C726 C 0.9916 0.47275 0.20125 0.0
C727 C 0.00634 0.47213 0.19588 0.0
C728 C 0.00479 0.45923 0.18214 0.0
C729 C 0.98847 0.44665 0.17375 0.0
C730 C 0.97367 0.44698 0.17975 0.0
C731 C 0.97525 0.46002 0.19324 0.0
H732 H 0.50848 0.44851 0.17427 0.0
H733 H 0.48518 0.43147 0.14833 0.0
H734 H 0.44868 0.43372 0.1914 0.0
H735 H 0.47244 0.45268 0.21562 0.0
H736 H 0.52129 0.47936 0.18296 0.0
H737 H 0.49227 0.42908 0.22987 0.0
H738 H 0.46631 0.4064 0.24833 0.0
H739 H 0.46336 0.44475 0.28556 0.0
H740 H 0.48873 0.4672 0.26685 0.0
H741 H 0.52455 0.50752 0.26636 0.0
H742 H 0.5434 0.53377 0.28677 0.0
H743 H 0.58827 0.53829 0.25553 0.0
H744 H 0.56931 0.51161 0.23543 0.0
H745 H 0.52012 0.47743 0.26399 0.0
H746 H 0.53654 0.52348 0.20991 0.0
H747 H 0.55598 0.54774 0.18642 0.0
H748 H 0.57945 0.51988 0.16389 0.0
H749 H 0.55991 0.49566 0.1872 0.0
C750 C 0.49234 0.45182 0.19717 0.0
C751 C 0.49544 0.44533 0.17813 0.0
C752 C 0.48194 0.43531 0.16336 0.0
C753 C 0.46483 0.43111 0.16749 0.0
C754 C 0.46165 0.43694 0.18716 0.0
C755 C 0.47527 0.4475 0.20148 0.0
C756 C 0.50717 0.4645 0.21114 0.0
C757 C 0.52114 0.4786 0.20069 0.0
C758 C 0.50696 0.46392 0.23437 0.0
C759 C 0.4924 0.44988 0.24681 0.0
C760 C 0.48607 0.43257 0.24209 0.0
C761 C 0.4713 0.41964 0.25266 0.0
C762 C 0.46291 0.42383 0.26845 0.0
C763 C 0.46973 0.44111 0.27376 0.0
C764 C 0.48425 0.45397 0.26302 0.0
C765 C 0.54546 0.50764 0.24915 0.0
C766 C 0.53846 0.51394 0.26416 0.0
C767 C 0.54925 0.52894 0.27586 0.0
C768 C 0.56729 0.53806 0.27273 0.0
C769 C 0.57438 0.53157 0.25812 0.0
C770 C 0.56356 0.51638 0.24658 0.0
C771 C 0.53353 0.49236 0.23572 0.0
C772 C 0.52033 0.47776 0.24624 0.0
C773 C 0.53407 0.49261 0.21263 0.0
C774 C 0.54689 0.50787 0.20027 0.0
C775 C 0.54606 0.52275 0.20014 0.0
C776 C 0.55711 0.53654 0.18673 0.0
C777 C 0.56923 0.53567 0.17344 0.0
C778 C 0.57039 0.52096 0.1742 0.0
C779 C 0.55919 0.50711 0.18736 0.0
H780 H 0.55544 0.0466 0.18404 0.0
H781 H 0.57431 0.04355 0.1585 0.0
H782 H 0.559 0.99433 0.18636 0.0
H783 H 0.5395 0.99702 0.2114 0.0
H784 H 0.52188 0.02796 0.18526 0.0
H785 H 0.5679 0.03868 0.23651 0.0
H786 H 0.58711 0.03126 0.25527 0.0
H787 H 0.54252 0.98758 0.28457 0.0
H788 H 0.52339 0.99443 0.26464 0.0
H789 H 0.48544 0.99969 0.26596 0.0
H790 H 0.46088 0.9976 0.28517 0.0
H791 H 0.47219 0.04561 0.25687 0.0
H792 H 0.49716 0.04793 0.23802 0.0
H793 H 0.51845 0.01961 0.26564 0.0
H794 H 0.47306 0.00384 0.21317 0.0
H795 H 0.45143 0.00448 0.18947 0.0
H796 H 0.49147 0.05233 0.1618 0.0
H797 H 0.51309 0.05167 0.1857 0.0
C798 C 0.54611 0.02211 0.19979 0.0
C799 C 0.55617 0.03517 0.18477 0.0
C800 C 0.56695 0.03344 0.17021 0.0
C801 C 0.56804 0.01871 0.17053 0.0
C802 C 0.55845 0.00586 0.18598 0.0
C803 C 0.54739 0.00745 0.20033 0.0
C804 C 0.53336 0.0234 0.21355 0.0
C805 C 0.5214 0.02652 0.20292 0.0
C806 C 0.53223 0.02075 0.2365 0.0
C807 C 0.54415 0.01697 0.24885 0.0
C808 C 0.56225 0.0274 0.24679 0.0
C809 C 0.57325 0.02325 0.25778 0.0
C810 C 0.56639 0.00874 0.2714 0.0
C811 C 0.54828 0.99863 0.2739 0.0
C812 C 0.5373 0.00267 0.2627 0.0
C813 C 0.49305 0.02385 0.2503 0.0
C814 C 0.48289 0.00997 0.2642 0.0
C815 C 0.46886 0.00879 0.27521 0.0
C816 C 0.46463 0.02144 0.27248 0.0
C817 C 0.4751 0.03562 0.25911 0.0
C818 C 0.48931 0.03691 0.2483 0.0
C819 C 0.50703 0.02418 0.23728 0.0
C820 C 0.51918 0.02137 0.24803 0.0
C821 C 0.50807 0.02662 0.21433 0.0
C822 C 0.49469 0.0278 0.20138 0.0
C823 C 0.47713 0.01468 0.20238 0.0
C824 C 0.46477 0.01507 0.18882 0.0
C825 C 0.46974 0.02848 0.17377 0.0
C826 C 0.48726 0.04178 0.17311 0.0
C827 C 0.49962 0.04143 0.18677 0.0
H828 H 0.47907 0.01097 0.85334 0.0
H829 H 0.45765 0.01076 0.87746 0.0
H830 H 0.41653 0.96814 0.84109 0.0
H831 H 0.43819 0.96895 0.81636 0.0
H832 H 0.48153 0.9809 0.84888 0.0
H833 H 0.47292 0.02047 0.80798 0.0
H834 H 0.45505 0.02946 0.78892 0.0
H835 H 0.43989 0.98928 0.74121 0.0
H836 H 0.45766 0.98016 0.76057 0.0
H837 H 0.50241 0.97668 0.75923 0.0
H838 H 0.52788 0.98146 0.73962 0.0
H839 H 0.56041 0.01074 0.79468 0.0
H840 H 0.53527 0.00774 0.81274 0.0
H841 H 0.49264 0.99703 0.77062 0.0
H842 H 0.50934 0.96233 0.81429 0.0
H843 H 0.52881 0.95769 0.83795 0.0
H844 H 0.53142 0.99452 0.88411 0.0
H845 H 0.51275 0.9996 0.86041 0.0
C846 C 0.46017 0.98991 0.83323 0.0
C847 C 0.46541 0.00175 0.85039 0.0
C848 C 0.45315 0.00152 0.86423 0.0
C849 C 0.43539 0.98921 0.86148 0.0
C850 C 0.43009 0.97783 0.84361 0.0
C851 C 0.44243 0.97821 0.82953 0.0
C852 C 0.47355 0.98907 0.82054 0.0
C853 C 0.48407 0.98444 0.83175 0.0
C854 C 0.4765 0.99345 0.79819 0.0
C855 C 0.4663 0.99938 0.78598 0.0
C856 C 0.46562 0.01347 0.79354 0.0
C857 C 0.45546 0.01864 0.78261 0.0
C858 C 0.44598 0.00998 0.76368 0.0
C859 C 0.44714 0.99624 0.75569 0.0
C860 C 0.45723 0.99099 0.76676 0.0
C861 C 0.51677 0.99152 0.78773 0.0
C862 C 0.51507 0.98426 0.76697 0.0
C863 C 0.5297 0.98681 0.75588 0.0
C864 C 0.54639 0.99644 0.76547 0.0
C865 C 0.54795 0.00353 0.7864 0.0
C866 C 0.53342 0.00147 0.7971 0.0
C867 C 0.50126 0.98931 0.79915 0.0
C868 C 0.49009 0.99316 0.78763 0.0
C869 C 0.49808 0.98475 0.82159 0.0
C870 C 0.50956 0.98134 0.83553 0.0
C871 C 0.5142 0.96946 0.82945 0.0
C872 C 0.52522 0.96675 0.84296 0.0
C873 C 0.53136 0.97557 0.86295 0.0
C874 C 0.52658 0.9873 0.869 0.0
C875 C 0.51591 0.99021 0.85543 0.0
H876 H 0.04118 0.54259 0.83484 0.0
H877 H 0.04356 0.56499 0.85893 0.0
H878 H 0.99228 0.55257 0.83884 0.0
H879 H 0.98954 0.5296 0.8154 0.0
H880 H 0.02017 0.51021 0.83901 0.0
H881 H 0.02892 0.55054 0.78212 0.0
H882 H 0.02246 0.56978 0.76221 0.0
H883 H 0.9718 0.52678 0.7446 0.0
H884 H 0.97799 0.50778 0.76553 0.0
H885 H 0.97867 0.46473 0.7689 0.0
H886 H 0.97447 0.43918 0.75039 0.0
H887 H 0.02766 0.45486 0.76569 0.0
H888 H 0.03158 0.4801 0.78456 0.0
H889 H 0.00062 0.4986 0.76146 0.0
H890 H 0.98752 0.46082 0.82186 0.0
H891 H 0.98842 0.44122 0.84858 0.0
H892 H 0.04296 0.47724 0.8601 0.0
H893 H 0.04203 0.49705 0.83354 0.0
C894 C 0.01523 0.53442 0.82314 0.0
C895 C 0.03047 0.54472 0.83546 0.0
C896 C 0.03184 0.55752 0.84919 0.0
C897 C 0.0181 0.56044 0.85067 0.0
C898 C 0.0031 0.55063 0.83777 0.0
C899 C 0.00159 0.53758 0.82431 0.0
C900 C 0.01319 0.51954 0.81067 0.0
C901 C 0.01632 0.50797 0.82187 0.0
C902 C 0.00733 0.51607 0.78858 0.0
C903 C 0.00385 0.52774 0.77562 0.0
C904 C 0.01636 0.54528 0.77413 0.0
C905 C 0.01272 0.55624 0.7625 0.0
C906 C 0.99657 0.54985 0.75183 0.0
C907 C 0.98424 0.53219 0.75291 0.0
C908 C 0.98784 0.52128 0.7647 0.0
C909 C 0.00538 0.47424 0.77826 0.0
C910 C 0.98941 0.46265 0.76821 0.0
C911 C 0.98707 0.44808 0.75756 0.0
C912 C 0.00071 0.4449 0.75659 0.0
C913 C 0.01676 0.4567 0.76648 0.0
C914 C 0.01906 0.47118 0.77721 0.0
C915 C 0.00783 0.48958 0.78983 0.0
C916 C 0.00478 0.50114 0.77847 0.0
C917 C 0.01349 0.49298 0.81187 0.0
C918 C 0.01473 0.48032 0.82567 0.0
C919 C 0.99976 0.46436 0.82977 0.0
C920 C 0.00026 0.45323 0.84502 0.0
C921 C 0.01577 0.45782 0.85618 0.0
C922 C 0.03093 0.47346 0.85148 0.0
C923 C 0.03038 0.48474 0.83642 0.0
H924 H 0.43776 0.50989 0.84192 0.0
H925 H 0.41917 0.48642 0.8667 0.0
H926 H 0.43373 0.45395 0.83463 0.0
H927 H 0.45296 0.47767 0.81042 0.0
H928 H 0.4717 0.52517 0.84016 0.0
H929 H 0.42446 0.49065 0.78788 0.0
H930 H 0.40571 0.46357 0.76835 0.0
H931 H 0.45088 0.46786 0.73836 0.0
H932 H 0.46952 0.49439 0.75827 0.0
H933 H 0.50601 0.53409 0.7586 0.0
H934 H 0.53246 0.55587 0.74088 0.0
H935 H 0.52855 0.59548 0.77337 0.0
H936 H 0.50158 0.57353 0.79071 0.0
H937 H 0.47426 0.52411 0.75928 0.0
H938 H 0.51987 0.54777 0.81181 0.0
H939 H 0.54302 0.56735 0.83679 0.0
H940 H 0.50756 0.57869 0.86824 0.0
H941 H 0.48438 0.55913 0.84293 0.0
C942 C 0.44662 0.49553 0.82409 0.0
C943 C 0.43686 0.49769 0.84006 0.0
C944 C 0.42627 0.48432 0.85418 0.0
C945 C 0.42507 0.46846 0.85246 0.0
C946 C 0.43434 0.46604 0.83607 0.0
C947 C 0.44524 0.47956 0.82219 0.0
C948 C 0.45939 0.51048 0.81098 0.0
C949 C 0.47199 0.5251 0.82241 0.0
C950 C 0.46028 0.51005 0.78787 0.0
C951 C 0.44845 0.49451 0.77475 0.0
C952 C 0.43031 0.48576 0.77709 0.0
C953 C 0.41962 0.47035 0.76589 0.0
C954 C 0.42687 0.46369 0.7518 0.0
C955 C 0.44492 0.47282 0.74886 0.0
C956 C 0.45558 0.488 0.76027 0.0
C957 C 0.50183 0.55212 0.77618 0.0
C958 C 0.51053 0.54745 0.76154 0.0
C959 C 0.52568 0.55992 0.75139 0.0
C960 C 0.53255 0.57736 0.75576 0.0
C961 C 0.52356 0.58211 0.76983 0.0
C962 C 0.50821 0.56959 0.77977 0.0
C963 C 0.48677 0.53857 0.78852 0.0
C964 C 0.47367 0.52434 0.77699 0.0
C965 C 0.48597 0.53887 0.81163 0.0
C966 C 0.50043 0.55215 0.82529 0.0
C967 C 0.51717 0.55482 0.82366 0.0
C968 C 0.53041 0.56604 0.83796 0.0
C969 C 0.52712 0.57461 0.85444 0.0
C970 C 0.51045 0.57221 0.85576 0.0
C971 C 0.49722 0.56107 0.84131 0.0
H972 H 0.6209 0.83534 0.52495 0.0
H973 H 0.61953 0.85502 0.4989 0.0
H974 H 0.67174 0.89434 0.51752 0.0
H975 H 0.6731 0.87466 0.54329 0.0
H976 H 0.64232 0.82399 0.52229 0.0
H977 H 0.63093 0.85406 0.57767 0.0
H978 H 0.63545 0.87946 0.59684 0.0
H979 H 0.68836 0.89397 0.61186 0.0
H980 H 0.68358 0.86833 0.59307 0.0
H981 H 0.68418 0.82436 0.59392 0.0
H982 H 0.68943 0.80457 0.61462 0.0
H983 H 0.63655 0.76376 0.60158 0.0
H984 H 0.63157 0.78356 0.58042 0.0
H985 H 0.66131 0.83463 0.60006 0.0
H986 H 0.67255 0.8041 0.54639 0.0
H987 H 0.67037 0.78172 0.52232 0.0
H988 H 0.61971 0.76998 0.50039 0.0
H989 H 0.62145 0.79175 0.52518 0.0
C990 C 0.64705 0.85353 0.53622 0.0
C991 C 0.63194 0.84829 0.52365 0.0
C992 C 0.63118 0.85953 0.50876 0.0
C993 C 0.64551 0.87623 0.50617 0.0
C994 C 0.66036 0.88166 0.5194 0.0
C995 C 0.66115 0.8704 0.53417 0.0
C996 C 0.64873 0.84094 0.54975 0.0
C997 C 0.64601 0.82605 0.53948 0.0
C998 C 0.65431 0.84408 0.57188 0.0
C999 C 0.65695 0.85935 0.58383 0.0
C1000 C 0.64351 0.86274 0.58507 0.0
C1001 C 0.64615 0.87731 0.59597 0.0
C1002 C 0.6623 0.88883 0.60584 0.0
C1003 C 0.67569 0.88528 0.60472 0.0
C1004 C 0.673 0.87066 0.59392 0.0
C1005 C 0.65753 0.80541 0.58551 0.0
C1006 C 0.67372 0.81115 0.59558 0.0
C1007 C 0.67667 0.79983 0.60749 0.0
C1008 C 0.66342 0.78255 0.60978 0.0
C1009 C 0.64714 0.77689 0.59985 0.0
C1010 C 0.64424 0.78821 0.58782 0.0
C1011 C 0.65459 0.81746 0.57266 0.0
C1012 C 0.65723 0.83233 0.58301 0.0
C1013 C 0.64897 0.8143 0.55051 0.0
C1014 C 0.64708 0.79956 0.53783 0.0
C1015 C 0.6607 0.79635 0.537 0.0
C1016 C 0.65952 0.78364 0.52316 0.0
C1017 C 0.6449 0.77424 0.50953 0.0
C1018 C 0.63113 0.77714 0.51071 0.0
C1019 C 0.63216 0.78959 0.52484 0.0
H1020 H 0.17477 0.77754 0.51137 0.0
H1021 H 0.15175 0.75821 0.48578 0.0
H1022 H 0.11629 0.76979 0.51676 0.0
H1023 H 0.13929 0.78908 0.54213 0.0
H1024 H 0.18763 0.81145 0.51402 0.0
H1025 H 0.15728 0.76323 0.56363 0.0
H1026 H 0.13115 0.74149 0.58274 0.0
H1027 H 0.12791 0.78152 0.61511 0.0
H1028 H 0.15347 0.80306 0.59567 0.0
H1029 H 0.19018 0.84247 0.59596 0.0
H1030 H 0.20912 0.8684 0.61685 0.0
H1031 H 0.25402 0.87204 0.58697 0.0
H1032 H 0.23495 0.84553 0.56646 0.0
H1033 H 0.185 0.81265 0.59485 0.0
H1034 H 0.20729 0.85921 0.54366 0.0
H1035 H 0.22681 0.88265 0.51925 0.0
H1036 H 0.24025 0.84924 0.48743 0.0
H1037 H 0.22141 0.82606 0.5124 0.0
C1038 C 0.15872 0.78462 0.52884 0.0
C1039 C 0.16196 0.7757 0.51284 0.0
C1040 C 0.14882 0.7647 0.4982 0.0
C1041 C 0.1322 0.76246 0.49926 0.0
C1042 C 0.12885 0.771 0.51575 0.0
C1043 C 0.14201 0.78205 0.53028 0.0
C1044 C 0.17319 0.79788 0.54253 0.0
C1045 C 0.18729 0.81155 0.53176 0.0
C1046 C 0.17236 0.79826 0.56561 0.0
C1047 C 0.15731 0.78482 0.57807 0.0
C1048 C 0.15092 0.76731 0.57482 0.0
C1049 C 0.13607 0.75491 0.58578 0.0
C1050 C 0.12762 0.75985 0.6005 0.0
C1051 C 0.13434 0.77735 0.60416 0.0
C1052 C 0.14896 0.78968 0.59302 0.0
C1053 C 0.21108 0.84204 0.57949 0.0
C1054 C 0.20411 0.84861 0.59414 0.0
C1055 C 0.21494 0.86344 0.6061 0.0
C1056 C 0.23302 0.87217 0.60356 0.0
C1057 C 0.2401 0.86555 0.58913 0.0
C1058 C 0.22922 0.85048 0.57737 0.0
C1059 C 0.1991 0.8266 0.56629 0.0
C1060 C 0.18557 0.81241 0.57714 0.0
C1061 C 0.20003 0.82611 0.5432 0.0
C1062 C 0.21305 0.8409 0.53009 0.0
C1063 C 0.21484 0.85706 0.53191 0.0
C1064 C 0.2259 0.87041 0.51792 0.0
C1065 C 0.23493 0.86764 0.50154 0.0
C1066 C 0.23336 0.85161 0.49995 0.0
C1067 C 0.22261 0.8384 0.51418 0.0
H1068 H 0.17274 0.35919 0.50528 0.0
H1069 H 0.15406 0.36363 0.48081 0.0
H1070 H 0.15355 0.39881 0.5272 0.0
H1071 H 0.17278 0.39456 0.55178 0.0
H1072 H 0.20314 0.37741 0.52018 0.0
H1073 H 0.14689 0.34879 0.54951 0.0
H1074 H 0.12014 0.34402 0.56495 0.0
H1075 H 0.14814 0.37075 0.62388 0.0
H1076 H 0.17523 0.37737 0.60702 0.0
H1077 H 0.23962 0.37935 0.57769 0.0
H1078 H 0.25599 0.36939 0.59811 0.0
H1079 H 0.20791 0.32424 0.61767 0.0
H1080 H 0.19165 0.33374 0.5959 0.0
H1081 H 0.18623 0.35803 0.59662 0.0
H1082 H 0.23801 0.39257 0.52846 0.0
H1083 H 0.25681 0.38827 0.50418 0.0
H1084 H 0.22761 0.33416 0.51855 0.0
H1085 H 0.20882 0.33852 0.54275 0.0
C1086 C 0.17419 0.37651 0.53044 0.0
C1087 C 0.16897 0.36816 0.51009 0.0
C1088 C 0.15829 0.37074 0.49605 0.0
C1089 C 0.15246 0.38169 0.50198 0.0
C1090 C 0.15785 0.39029 0.52222 0.0
C1091 C 0.16879 0.38785 0.53626 0.0
C1092 C 0.18477 0.37264 0.54552 0.0
C1093 C 0.19954 0.37342 0.53702 0.0
C1094 C 0.17973 0.36681 0.56728 0.0
C1095 C 0.16327 0.36388 0.57677 0.0
C1096 C 0.14741 0.35418 0.56544 0.0
C1097 C 0.13195 0.35109 0.5746 0.0
C1098 C 0.13174 0.35685 0.59588 0.0
C1099 C 0.14766 0.36638 0.60732 0.0
C1100 C 0.16322 0.36999 0.59779 0.0
C1101 C 0.21438 0.3572 0.58492 0.0
C1102 C 0.23259 0.36722 0.58618 0.0
C1103 C 0.24195 0.3616 0.59817 0.0
C1104 C 0.23331 0.34596 0.60958 0.0
C1105 C 0.21504 0.33619 0.60881 0.0
C1106 C 0.20569 0.34173 0.59656 0.0
C1107 C 0.20446 0.36273 0.57114 0.0
C1108 C 0.18997 0.3624 0.57995 0.0
C1109 C 0.20903 0.36798 0.5492 0.0
C1110 C 0.22208 0.36588 0.53745 0.0
C1111 C 0.23592 0.37985 0.52674 0.0
C1112 C 0.24668 0.37739 0.51298 0.0
C1113 C 0.24362 0.36087 0.50946 0.0
C1114 C 0.2302 0.34701 0.52092 0.0
C1115 C 0.21955 0.34951 0.53483 0.0
C1116 C 0.96499 0.38538 0.07165 0.0
C1117 C 0.97517 0.37801 0.06954 0.0
C1118 C 0.96696 0.39561 0.08978 0.0
C1119 C 0.97918 0.3983 0.10643 0.0
C1120 C 0.98895 0.39028 0.10489 0.0
C1121 C 0.98695 0.38036 0.08635 0.0
C1122 C 0.95646 0.40413 0.09066 0.0
C1123 C 0.00185 0.39256 0.12254 0.0
C1124 C 0.99752 0.4395 0.13899 0.0
C1125 C 0.98697 0.43396 0.15752 0.0
C1126 C 0.99533 0.42794 0.12245 0.0
C1127 C 0.98246 0.41038 0.12468 0.0
C1128 C 0.97219 0.40462 0.14375 0.0
C1129 C 0.97444 0.41653 0.15987 0.0
C1130 C 0.00636 0.43465 0.10222 0.0
C1131 C 0.95859 0.38595 0.14691 0.0
H1132 H 0.95591 0.38369 0.05871 0.0
H1133 H 0.99478 0.37461 0.08491 0.0
H1134 H 0.94923 0.40096 0.10622 0.0
H1135 H 0.96531 0.41824 0.09019 0.0
H1136 H 0.94704 0.40022 0.07682 0.0
H1137 H 0.00722 0.38422 0.11989 0.0
H1138 H 0.01277 0.40608 0.12291 0.0
H1139 H 0.99563 0.38966 0.13882 0.0
H1140 H 0.00707 0.45301 0.13705 0.0
H1141 H 0.96637 0.41224 0.17428 0.0
H1142 H 0.99794 0.43233 0.08766 0.0
H1143 H 0.01325 0.42774 0.09952 0.0
H1144 H 0.01613 0.44858 0.10332 0.0
H1145 H 0.94812 0.38187 0.13443 0.0
H1146 H 0.95269 0.38336 0.1634 0.0
H1147 H 0.96438 0.37795 0.1446 0.0
C1148 C 0.61415 0.57843 0.0641 0.0
C1149 C 0.62232 0.59624 0.06187 0.0
C1150 C 0.60631 0.57027 0.08375 0.0
C1151 C 0.60687 0.58017 0.10181 0.0
C1152 C 0.61539 0.5982 0.09988 0.0
C1153 C 0.6229 0.60603 0.07982 0.0
C1154 C 0.59715 0.55098 0.08502 0.0
C1155 C 0.61649 0.60916 0.11893 0.0
C1156 C 0.57127 0.55465 0.14273 0.0
C1157 C 0.57958 0.54931 0.15734 0.0
C1158 C 0.58027 0.56553 0.12519 0.0
C1159 C 0.59807 0.57137 0.12241 0.0
C1160 C 0.60681 0.56693 0.13799 0.0
C1161 C 0.5974 0.5558 0.15518 0.0
C1162 C 0.57042 0.56977 0.10879 0.0
C1163 C 0.62585 0.57316 0.13584 0.0
H1164 H 0.61355 0.57074 0.05029 0.0
H1165 H 0.62927 0.61981 0.07824 0.0
H1166 H 0.60301 0.54722 0.09826 0.0
H1167 H 0.58328 0.54551 0.08908 0.0
H1168 H 0.59783 0.54517 0.06944 0.0
H1169 H 0.62424 0.62305 0.11507 0.0
H1170 H 0.60325 0.6058 0.12368 0.0
H1171 H 0.62245 0.60667 0.13334 0.0
H1172 H 0.55745 0.54952 0.14427 0.0
H1173 H 0.60387 0.55179 0.16662 0.0
H1174 H 0.56919 0.56316 0.09309 0.0
H1175 H 0.57757 0.58371 0.10543 0.0
H1176 H 0.55719 0.56575 0.1145 0.0
H1177 H 0.62767 0.56658 0.12187 0.0
H1178 H 0.63123 0.57063 0.15084 0.0
H1179 H 0.63343 0.5871 0.1324 0.0
C1180 C 0.39911 0.02045 0.08365 0.0
C1181 C 0.39089 0.00337 0.0766 0.0
C1182 C 0.41217 0.02676 0.09998 0.0
C1183 C 0.41714 0.01573 0.10932 0.0
C1184 C 0.40882 0.99849 0.10231 0.0
C1185 C 0.39582 0.99254 0.08614 0.0
C1186 C 0.42071 0.04519 0.10716 0.0
C1187 C 0.41376 0.9863 0.11176 0.0
C1188 C 0.46114 0.03099 0.13548 0.0
C1189 C 0.45688 0.02778 0.1577 0.0
C1190 C 0.44853 0.02818 0.11962 0.0
C1191 C 0.43125 0.02204 0.12614 0.0
C1192 C 0.42713 0.01978 0.14867 0.0
C1193 C 0.43998 0.02262 0.16418 0.0
C1194 C 0.45346 0.03067 0.09577 0.0
C1195 C 0.4089 0.0134 0.15632 0.0
H1196 H 0.39537 0.0289 0.07642 0.0
H1197 H 0.38961 0.97932 0.08085 0.0
H1198 H 0.41933 0.04586 0.12508 0.0
H1199 H 0.43482 0.05204 0.10373 0.0
H1200 H 0.41505 0.05198 0.09874 0.0
H1201 H 0.40596 0.97325 0.10459 0.0
H1202 H 0.4277 0.99125 0.10875 0.0
H1203 H 0.41193 0.98532 0.12974 0.0
H1204 H 0.47412 0.03484 0.13031 0.0
H1205 H 0.43669 0.02037 0.18137 0.0
H1206 H 0.44845 0.03801 0.08735 0.0
H1207 H 0.44747 0.018 0.08761 0.0
H1208 H 0.46775 0.03747 0.09358 0.0
H1209 H 0.40361 0.02063 0.14825 0.0
H1210 H 0.40834 0.01453 0.17434 0.0
H1211 H 0.40033 0.99974 0.15169 0.0
C1212 C 0.37839 0.99609 0.955 0.0
C1213 C 0.36904 0.98058 0.9664 0.0
C1214 C 0.38741 0.99726 0.93589 0.0
C1215 C 0.38693 0.98254 0.9279 0.0
C1216 C 0.37652 0.9666 0.93845 0.0
C1217 C 0.36776 0.96582 0.95764 0.0
C1218 C 0.39841 0.01451 0.92515 0.0
C1219 C 0.3755 0.95056 0.93028 0.0
C1220 C 0.40618 0.98411 0.87218 0.0
C1221 C 0.42277 0.98757 0.87818 0.0
C1222 C 0.39427 0.9824 0.88814 0.0
C1223 C 0.39915 0.98427 0.91055 0.0
C1224 C 0.41585 0.98773 0.91665 0.0
C1225 C 0.42737 0.98921 0.90044 0.0
C1226 C 0.37652 0.9786 0.88108 0.0
C1227 C 0.42158 0.98982 0.94037 0.0
H1228 H 0.37938 0.00755 0.96157 0.0
H1229 H 0.36039 0.95373 0.96619 0.0
H1230 H 0.41235 0.01921 0.92817 0.0
H1231 H 0.39625 0.01347 0.90718 0.0
H1232 H 0.39565 0.02417 0.93158 0.0
H1233 H 0.36504 0.93887 0.93839 0.0
H1234 H 0.37318 0.9492 0.91233 0.0
H1235 H 0.38806 0.95143 0.93354 0.0
H1236 H 0.40256 0.98291 0.85501 0.0
H1237 H 0.43998 0.99145 0.90529 0.0
H1238 H 0.37454 0.98894 0.88675 0.0
H1239 H 0.36634 0.96653 0.88875 0.0
H1240 H 0.37469 0.97737 0.86303 0.0
H1241 H 0.42061 0.00024 0.94805 0.0
H1242 H 0.43515 0.99285 0.94231 0.0
H1243 H 0.4129 0.97789 0.9495 0.0
C1244 C 0.98661 0.3831 0.93942 0.0
C1245 C 0.99693 0.38661 0.95827 0.0
C1246 C 0.99209 0.39474 0.92205 0.0
C1247 C 0.00812 0.41049 0.92379 0.0
C1248 C 0.01902 0.41374 0.94233 0.0
C1249 C 0.01335 0.40164 0.95932 0.0
C1250 C 0.98023 0.39059 0.90238 0.0
C1251 C 0.0361 0.43045 0.94487 0.0
C1252 C 0.02315 0.43709 0.87176 0.0
C1253 C 0.01556 0.44695 0.87415 0.0
C1254 C 0.02149 0.42556 0.88823 0.0
C1255 C 0.01224 0.42416 0.90748 0.0
C1256 C 0.00531 0.43478 0.91027 0.0
C1257 C 0.00692 0.44594 0.89345 0.0
C1258 C 0.02887 0.41432 0.88457 0.0
C1259 C 0.99554 0.43387 0.93064 0.0
H1260 H 0.974 0.37136 0.93846 0.0
H1261 H 0.02132 0.40437 0.97394 0.0
H1262 H 0.97475 0.39897 0.90233 0.0
H1263 H 0.9876 0.39307 0.88702 0.0
H1264 H 0.9693 0.37705 0.90236 0.0
H1265 H 0.04406 0.43008 0.95863 0.0
H1266 H 0.04371 0.43371 0.9296 0.0
H1267 H 0.03359 0.44089 0.94805 0.0
H1268 H 0.02981 0.43795 0.85672 0.0
H1269 H 0.00117 0.45372 0.89518 0.0
H1270 H 0.01808 0.40087 0.88222 0.0
H1271 H 0.0365 0.41458 0.8991 0.0
H1272 H 0.03732 0.41828 0.86996 0.0
H1273 H 0.98318 0.4213 0.9313 0.0
H1274 H 0.99246 0.44413 0.93115 0.0
H1275 H 0.00324 0.43492 0.94548 0.0
C1276 C 0.60086 0.62243 0.9489 0.0
C1277 C 0.60625 0.61079 0.95303 0.0
C1278 C 0.58825 0.61905 0.93267 0.0
C1279 C 0.58082 0.60365 0.92046 0.0
C1280 C 0.58633 0.59196 0.92445 0.0
C1281 C 0.59897 0.5957 0.94058 0.0
C1282 C 0.58277 0.63185 0.92871 0.0
C1283 C 0.5787 0.57534 0.91188 0.0
C1284 C 0.53633 0.58201 0.89359 0.0
C1285 C 0.54061 0.58465 0.87135 0.0
C1286 C 0.54928 0.58916 0.90991 0.0
C1287 C 0.56693 0.59924 0.90382 0.0
C1288 C 0.57124 0.60296 0.88146 0.0
C1289 C 0.55802 0.59555 0.86546 0.0
C1290 C 0.54413 0.58482 0.93356 0.0
C1291 C 0.58988 0.61382 0.87431 0.0
H1292 H 0.60644 0.63414 0.95838 0.0
H1293 H 0.603 0.5866 0.9436 0.0
H1294 H 0.58447 0.63564 0.91122 0.0
H1295 H 0.56878 0.62592 0.93239 0.0
H1296 H 0.59031 0.64354 0.93893 0.0
H1297 H 0.58452 0.56771 0.91686 0.0
H1298 H 0.56447 0.56747 0.9145 0.0
H1299 H 0.58074 0.57797 0.89408 0.0
H1300 H 0.52292 0.57349 0.89825 0.0
H1301 H 0.56136 0.59783 0.84829 0.0
H1302 H 0.55098 0.59647 0.94393 0.0
H1303 H 0.54797 0.57579 0.93953 0.0
H1304 H 0.52991 0.57879 0.93577 0.0
H1305 H 0.59698 0.62555 0.8845 0.0
H1306 H 0.59089 0.61761 0.85684 0.0
H1307 H 0.59646 0.60652 0.87654 0.0
C1308 C 0.00937 0.61631 0.944 0.0
C1309 C 0.02583 0.62948 0.95109 0.0
C1310 C 0.00753 0.60587 0.92614 0.0
C1311 C 0.02249 0.60892 0.91483 0.0
C1312 C 0.03901 0.62291 0.92103 0.0
C1313 C 0.04051 0.63289 0.93926 0.0
C1314 C 0.98972 0.59091 0.92031 0.0
C1315 C 0.05523 0.62685 0.90906 0.0
C1316 C 0.02231 0.57128 0.8889 0.0
C1317 C 0.01902 0.57288 0.86684 0.0
C1318 C 0.02319 0.58278 0.90466 0.0
C1319 C 0.0211 0.59646 0.89812 0.0
C1320 C 0.01784 0.59819 0.8758 0.0
C1321 C 0.01662 0.58622 0.86042 0.0
C1322 C 0.02633 0.58024 0.92834 0.0
C1323 C 0.01589 0.61281 0.86816 0.0
H1324 H 0.99797 0.61356 0.95314 0.0
H1325 H 0.05325 0.64316 0.94454 0.0
H1326 H 0.98714 0.59076 0.9025 0.0
H1327 H 0.98911 0.57877 0.92428 0.0
H1328 H 0.97927 0.59121 0.92933 0.0
H1329 H 0.06667 0.63936 0.91407 0.0
H1330 H 0.05815 0.61669 0.91247 0.0
H1331 H 0.05324 0.62699 0.89112 0.0
H1332 H 0.02397 0.56082 0.89385 0.0
H1333 H 0.01413 0.58745 0.84331 0.0
H1334 H 0.01577 0.5792 0.93861 0.0
H1335 H 0.03868 0.59149 0.93428 0.0
H1336 H 0.02701 0.56858 0.93079 0.0
H1337 H 0.00502 0.61253 0.87681 0.0
H1338 H 0.01343 0.61235 0.85025 0.0
H1339 H 0.02786 0.62518 0.87224 0.0
C1340 C 0.3623 0.41 0.94568 0.0
C1341 C 0.36682 0.39893 0.95534 0.0
C1342 C 0.37058 0.41923 0.92674 0.0
C1343 C 0.38401 0.41768 0.91757 0.0
C1344 C 0.38798 0.40581 0.92656 0.0
C1345 C 0.37917 0.39641 0.94526 0.0
C1346 C 0.36565 0.43144 0.91737 0.0
C1347 C 0.40238 0.40395 0.91744 0.0
C1348 C 0.40149 0.43869 0.86228 0.0
C1349 C 0.41506 0.45494 0.86877 0.0
C1350 C 0.39138 0.4262 0.87795 0.0
C1351 C 0.39525 0.43003 0.9005 0.0
C1352 C 0.4094 0.44625 0.90699 0.0
C1353 C 0.419 0.45856 0.89104 0.0
C1354 C 0.37623 0.40918 0.87044 0.0
C1355 C 0.41418 0.45077 0.93082 0.0
H1356 H 0.3526 0.41183 0.95332 0.0
H1357 H 0.38274 0.38791 0.95276 0.0
H1358 H 0.37622 0.44481 0.92077 0.0
H1359 H 0.36398 0.42993 0.89934 0.0
H1360 H 0.35347 0.42943 0.9245 0.0
H1361 H 0.40233 0.39269 0.92436 0.0
H1362 H 0.40128 0.40271 0.89936 0.0
H1363 H 0.41509 0.41562 0.92138 0.0
H1364 H 0.39847 0.43596 0.845 0.0
H1365 H 0.42966 0.47109 0.89597 0.0
H1366 H 0.36392 0.40788 0.87594 0.0
H1367 H 0.37699 0.39853 0.87792 0.0
H1368 H 0.37568 0.40777 0.85235 0.0
H1369 H 0.40353 0.45105 0.93929 0.0
H1370 H 0.42632 0.46343 0.93301 0.0
H1371 H 0.4159 0.44089 0.93897 0.0
C1372 C 0.60191 0.97928 0.94897 0.0
C1373 C 0.61059 0.99661 0.95506 0.0
C1374 C 0.58879 0.97274 0.93273 0.0
C1375 C 0.58425 0.98379 0.92249 0.0
C1376 C 0.59329 0.00136 0.92819 0.0
C1377 C 0.60632 0.00753 0.94433 0.0
C1378 C 0.57949 0.95397 0.92695 0.0
C1379 C 0.58888 0.01363 0.91769 0.0
C1380 C 0.55912 0.97626 0.86948 0.0
C1381 C 0.54332 0.97338 0.87743 0.0
C1382 C 0.57223 0.97817 0.88397 0.0
C1383 C 0.56935 0.97713 0.90683 0.0
C1384 C 0.55281 0.9726 0.91471 0.0
C1385 C 0.54 0.97083 0.89989 0.0
C1386 C 0.58964 0.98285 0.87491 0.0
C1387 C 0.54911 0.9712 0.93891 0.0
H1388 H 0.60517 0.97076 0.9571 0.0
H1389 H 0.61299 0.02096 0.94877 0.0
H1390 H 0.5658 0.94755 0.93235 0.0
H1391 H 0.57924 0.95229 0.90896 0.0
H1392 H 0.58566 0.94745 0.93478 0.0
H1393 H 0.59763 0.02703 0.92333 0.0
H1394 H 0.58975 0.01328 0.89962 0.0
H1395 H 0.57532 0.0097 0.9216 0.0
H1396 H 0.56169 0.97825 0.85209 0.0
H1397 H 0.52768 0.96838 0.90599 0.0
H1398 H 0.59495 0.9759 0.88367 0.0
H1399 H 0.59896 0.99675 0.87732 0.0
H1400 H 0.58881 0.97998 0.85714 0.0
H1401 H 0.55397 0.96371 0.94725 0.0
H1402 H 0.53501 0.96508 0.94217 0.0
H1403 H 0.55597 0.9842 0.94629 0.0
C1404 C 0.61643 0.00011 0.075 0.0
C1405 C 0.62933 0.01597 0.06667 0.0
C1406 C 0.60702 0.99919 0.09365 0.0
C1407 C 0.61087 0.01448 0.10439 0.0
C1408 C 0.62476 0.03041 0.09695 0.0
C1409 C 0.63369 0.03098 0.07804 0.0
C1410 C 0.59218 0.98198 0.1009 0.0
C1411 C 0.62955 0.04698 0.10821 0.0
C1412 C 0.57523 0.01773 0.13164 0.0
C1413 C 0.57842 0.01647 0.15383 0.0
C1414 C 0.58531 0.01643 0.11541 0.0
C1415 C 0.59915 0.01415 0.12156 0.0
C1416 C 0.60224 0.01255 0.14399 0.0
C1417 C 0.59168 0.01356 0.15991 0.0
C1418 C 0.58136 0.01787 0.09167 0.0
C1419 C 0.61703 0.01039 0.15118 0.0
H1420 H 0.61299 0.98847 0.06623 0.0
H1421 H 0.6438 0.04326 0.0718 0.0
H1422 H 0.59268 0.98049 0.11887 0.0
H1423 H 0.57969 0.98105 0.09695 0.0
H1424 H 0.59228 0.97123 0.09269 0.0
H1425 H 0.64201 0.05794 0.10221 0.0
H1426 H 0.61918 0.04985 0.10523 0.0
H1427 H 0.63064 0.04585 0.12617 0.0
H1428 H 0.56482 0.01977 0.12699 0.0
H1429 H 0.59412 0.01264 0.17713 0.0
H1430 H 0.57976 0.00681 0.08222 0.0
H1431 H 0.59238 0.02964 0.08447 0.0
H1432 H 0.5694 0.01839 0.08961 0.0
H1433 H 0.6164 0.9995 0.1424 0.0
H1434 H 0.61695 0.00817 0.16908 0.0
H1435 H 0.62957 0.02205 0.14694 0.0
C1436 C 0.02004 0.61125 0.07178 0.0
C1437 C 0.0092 0.61657 0.06291 0.0
C1438 C 0.01481 0.60001 0.08959 0.0
C1439 C 0.99833 0.59394 0.09894 0.0
C1440 C 0.98727 0.5992 0.09012 0.0
C1441 C 0.99282 0.61043 0.07213 0.0
C1442 C 0.02698 0.59464 0.09839 0.0
C1443 C 0.96965 0.59302 0.09975 0.0
C1444 C 0.98259 0.55334 0.13178 0.0
C1445 C 0.98847 0.55991 0.15291 0.0
C1446 C 0.98472 0.56417 0.11422 0.0
C1447 C 0.9929 0.58201 0.11788 0.0
C1448 C 0.99787 0.58858 0.13942 0.0
C1449 C 0.99565 0.57746 0.15667 0.0
C1450 C 0.97929 0.55665 0.09151 0.0
C1451 C 0.00649 0.6075 0.14405 0.0
H1452 H 0.03269 0.61584 0.06476 0.0
H1453 H 0.98438 0.6145 0.06543 0.0
H1454 H 0.03015 0.59845 0.11583 0.0
H1455 H 0.02058 0.58051 0.09762 0.0
H1456 H 0.0393 0.60044 0.08915 0.0
H1457 H 0.9626 0.59831 0.09104 0.0
H1458 H 0.96161 0.57884 0.09905 0.0
H1459 H 0.97109 0.59675 0.11726 0.0
H1460 H 0.97718 0.53982 0.1287 0.0
H1461 H -1e-05 0.58256 0.17303 0.0
H1462 H 0.99103 0.56049 0.08168 0.0
H1463 H 0.97189 0.56164 0.08306 0.0
H1464 H 0.9712 0.54244 0.09178 0.0
H1465 H 0.01976 0.61435 0.13717 0.0
H1466 H 0.00751 0.61027 0.16187 0.0
H1467 H 0.99916 0.61275 0.13603 0.0
C1468 C 0.40465 0.40565 0.06212 0.0
C1469 C 0.38889 0.38999 0.06312 0.0
C1470 C 0.41714 0.41068 0.07888 0.0
C1471 C 0.41342 0.40009 0.09751 0.0
C1472 C 0.39758 0.38407 0.09838 0.0
C1473 C 0.38559 0.37907 0.08092 0.0
C1474 C 0.4341 0.42757 0.07694 0.0
C1475 C 0.39285 0.3727 0.11826 0.0
C1476 C 0.45097 0.41009 0.13611 0.0
C1477 C 0.45068 0.42177 0.15073 0.0
C1478 C 0.4388 0.40271 0.11888 0.0
C1479 C 0.42554 0.4065 0.11667 0.0
C1480 C 0.42454 0.41746 0.13202 0.0
C1481 C 0.43727 0.42521 0.1485 0.0
C1482 C 0.44056 0.39141 0.10252 0.0
C1483 C 0.41031 0.42149 0.13062 0.0
H1484 H 0.40714 0.41402 0.04824 0.0
H1485 H 0.37327 0.36702 0.08169 0.0
H1486 H 0.43461 0.43676 0.08913 0.0
H1487 H 0.44519 0.42587 0.0805 0.0
H1488 H 0.43579 0.43328 0.06039 0.0
H1489 H 0.3807 0.36011 0.11568 0.0
H1490 H 0.40348 0.3705 0.12266 0.0
H1491 H 0.39106 0.37914 0.13243 0.0
H1492 H 0.46089 0.40688 0.13783 0.0
H1493 H 0.43692 0.43442 0.15917 0.0
H1494 H 0.44338 0.39754 0.08614 0.0
H1495 H 0.4282 0.37891 0.10101 0.0
H1496 H 0.45111 0.38909 0.10705 0.0
H1497 H 0.41224 0.42948 0.11598 0.0
H1498 H 0.41009 0.42848 0.14529 0.0
H1499 H 0.39744 0.40952 0.1288 0.0
C1500 C 0.62564 0.70558 0.41683 0.0
C1501 C 0.64074 0.70923 0.40584 0.0
C1502 C 0.62652 0.71482 0.43557 0.0
C1503 C 0.64287 0.72833 0.44314 0.0
C1504 C 0.65821 0.73158 0.43266 0.0
C1505 C 0.65697 0.72184 0.41426 0.0
C1506 C 0.60989 0.71065 0.44661 0.0
C1507 C 0.67586 0.74607 0.43997 0.0
C1508 C 0.64233 0.76506 0.47073 0.0
C1509 C 0.64454 0.76242 0.49282 0.0
C1510 C 0.6421 0.75423 0.45444 0.0
C1511 C 0.64373 0.74016 0.46043 0.0
C1512 C 0.64588 0.73738 0.48278 0.0
C1513 C 0.64649 0.74872 0.49873 0.0
C1514 C 0.64014 0.75787 0.43078 0.0
C1515 C 0.64727 0.72232 0.48982 0.0
H1516 H 0.61306 0.69572 0.4105 0.0
H1517 H 0.66867 0.72476 0.40575 0.0
H1518 H 0.61107 0.70972 0.46459 0.0
H1519 H 0.60732 0.72109 0.44353 0.0
H1520 H 0.59855 0.69845 0.44054 0.0
H1521 H 0.68658 0.74591 0.43145 0.0
H1522 H 0.67688 0.75847 0.43654 0.0
H1523 H 0.67763 0.74544 0.45787 0.0
H1524 H 0.64102 0.7758 0.4662 0.0
H1525 H 0.64816 0.7467 0.51586 0.0
H1526 H 0.62797 0.74703 0.42375 0.0
H1527 H 0.65106 0.75914 0.42109 0.0
H1528 H 0.6398 0.76976 0.42883 0.0
H1529 H 0.6354 0.71022 0.48465 0.0
H1530 H 0.64894 0.72199 0.50783 0.0
H1531 H 0.65843 0.72278 0.4817 0.0
C1532 C 0.29717 0.92389 0.40671 0.0
C1533 C 0.29333 0.93558 0.39744 0.0
C1534 C 0.28889 0.91485 0.42575 0.0
C1535 C 0.27614 0.91723 0.43544 0.0
C1536 C 0.27283 0.92965 0.42678 0.0
C1537 C 0.28164 0.93884 0.40797 0.0
C1538 C 0.2931 0.90203 0.43476 0.0
C1539 C 0.25916 0.93239 0.43644 0.0
C1540 C 0.24047 0.8773 0.46289 0.0
C1541 C 0.24498 0.88093 0.48503 0.0
C1542 C 0.25012 0.88933 0.4467 0.0
C1543 C 0.26489 0.90526 0.45281 0.0
C1544 C 0.26934 0.90911 0.47525 0.0
C1545 C 0.25917 0.89692 0.49118 0.0
C1546 C 0.24472 0.88483 0.423 0.0
C1547 C 0.28516 0.92581 0.48235 0.0
H1548 H 0.30636 0.9215 0.39874 0.0
H1549 H 0.2786 0.94784 0.40079 0.0
H1550 H 0.29522 0.90359 0.45274 0.0
H1551 H 0.28198 0.88886 0.43167 0.0
H1552 H 0.30483 0.90332 0.42714 0.0
H1553 H 0.25965 0.94389 0.42959 0.0
H1554 H 0.2461 0.92104 0.43293 0.0
H1555 H 0.26069 0.93376 0.45449 0.0
H1556 H 0.22934 0.86496 0.45825 0.0
H1557 H 0.26262 0.89964 0.50837 0.0
H1558 H 0.25483 0.88387 0.41412 0.0
H1559 H 0.24348 0.89505 0.41502 0.0
H1560 H 0.23217 0.87248 0.42116 0.0
H1561 H 0.29703 0.92643 0.47639 0.0
H1562 H 0.28615 0.92734 0.50043 0.0
H1563 H 0.28488 0.93677 0.475 0.0
C1564 C 0.07691 0.36957 0.41797 0.0
C1565 C 0.06836 0.35179 0.41483 0.0
C1566 C 0.0909 0.37797 0.43293 0.0
C1567 C 0.09652 0.36836 0.44478 0.0
C1568 C 0.08764 0.35038 0.44203 0.0
C1569 C 0.0737 0.34236 0.42722 0.0
C1570 C 0.09993 0.39713 0.43564 0.0
C1571 C 0.09318 0.33958 0.45427 0.0
C1572 C 0.14204 0.38395 0.46477 0.0
C1573 C 0.13979 0.38288 0.48751 0.0
C1574 C 0.12846 0.38092 0.45047 0.0
C1575 C 0.11226 0.3768 0.45915 0.0
C1576 C 0.11053 0.37754 0.48207 0.0
C1577 C 0.12434 0.38053 0.49603 0.0
C1578 C 0.13094 0.38037 0.42616 0.0
C1579 C 0.09359 0.37354 0.49198 0.0
H1580 H 0.07284 0.37696 0.40855 0.0
H1581 H 0.06717 0.32861 0.42508 0.0
H1582 H 0.10161 0.40061 0.45325 0.0
H1583 H 0.11307 0.40332 0.42847 0.0
H1584 H 0.09265 0.40241 0.4275 0.0
H1585 H 0.08461 0.3257 0.45066 0.0
H1586 H 0.10666 0.34358 0.44981 0.0
H1587 H 0.09308 0.3415 0.47217 0.0
H1588 H 0.15413 0.38615 0.45812 0.0
H1589 H 0.12253 0.37972 0.5136 0.0
H1590 H 0.12532 0.38686 0.41699 0.0
H1591 H 0.12405 0.36683 0.42062 0.0
H1592 H 0.14487 0.38648 0.42189 0.0
H1593 H 0.08759 0.37945 0.4823 0.0
H1594 H 0.09537 0.37811 0.50917 0.0
H1595 H 0.08438 0.35948 0.49185 0.0
C1596 C 0.04069 0.3279 0.28785 0.0
C1597 C 0.04498 0.32172 0.30639 0.0
C1598 C 0.0467 0.32706 0.26703 0.0
C1599 C 0.05774 0.32045 0.26496 0.0
C1600 C 0.06214 0.31429 0.28371 0.0
C1601 C 0.05549 0.31476 0.3041 0.0
C1602 C 0.04127 0.3332 0.24731 0.0
C1603 C 0.07423 0.30755 0.28236 0.0
C1604 C 0.06745 0.30417 0.21359 0.0
C1605 C 0.08416 0.31787 0.20869 0.0
C1606 C 0.05788 0.3054 0.23069 0.0
C1607 C 0.06541 0.3205 0.24353 0.0
C1608 C 0.08167 0.33479 0.2376 0.0
C1609 C 0.09068 0.3334 0.22002 0.0
C1610 C 0.0403 0.29008 0.23602 0.0
C1611 C 0.0903 0.35107 0.25099 0.0
H1612 H 0.03245 0.33317 0.2896 0.0
H1613 H 0.05895 0.3101 0.31843 0.0
H1614 H 0.0528 0.34439 0.23994 0.0
H1615 H 0.03543 0.323 0.23465 0.0
H1616 H 0.03174 0.33692 0.25148 0.0
H1617 H 0.07665 0.30361 0.29858 0.0
H1618 H 0.06867 0.29636 0.27119 0.0
H1619 H 0.08688 0.31753 0.27552 0.0
H1620 H 0.0622 0.2921 0.205 0.0
H1621 H 0.10331 0.34427 0.21588 0.0
H1622 H 0.03101 0.29411 0.24015 0.0
H1623 H 0.04149 0.28339 0.2505 0.0
H1624 H 0.03484 0.28083 0.22219 0.0
H1625 H 0.08111 0.35538 0.25416 0.0
H1626 H 0.10195 0.36161 0.24284 0.0
H1627 H 0.09437 0.3486 0.26711 0.0
C1628 C 0.65297 0.73075 0.28443 0.0
C1629 C 0.66265 0.72455 0.29455 0.0
C1630 C 0.6595 0.74191 0.26657 0.0
C1631 C 0.67615 0.74704 0.25848 0.0
C1632 C 0.68611 0.741 0.26868 0.0
C1633 C 0.67925 0.72983 0.28666 0.0
C1634 C 0.64847 0.74812 0.25625 0.0
C1635 C 0.7039 0.74621 0.26046 0.0
C1636 C 0.68135 0.76259 0.19995 0.0
C1637 C 0.68895 0.78026 0.20301 0.0
C1638 C 0.67825 0.75167 0.21778 0.0
C1639 C 0.6828 0.75861 0.23919 0.0
C1640 C 0.69158 0.77657 0.2422 0.0
C1641 C 0.69455 0.78718 0.22407 0.0
C1642 C 0.66903 0.73261 0.21385 0.0
C1643 C 0.69665 0.78448 0.26474 0.0
H1644 H 0.64017 0.72682 0.29042 0.0
H1645 H 0.68681 0.72509 0.29435 0.0
H1646 H 0.65558 0.76231 0.25658 0.0
H1647 H 0.64573 0.74408 0.23884 0.0
H1648 H 0.6359 0.74311 0.26472 0.0
H1649 H 0.71017 0.74071 0.27049 0.0
H1650 H 0.70291 0.74191 0.24327 0.0
H1651 H 0.71243 0.76036 0.26055 0.0
H1652 H 0.67725 0.75721 0.18366 0.0
H1653 H 0.70031 0.80081 0.22661 0.0
H1654 H 0.65551 0.72643 0.21986 0.0
H1655 H 0.67553 0.72699 0.22304 0.0
H1656 H 0.66854 0.72948 0.19621 0.0
H1657 H 0.68481 0.78164 0.27367 0.0
H1658 H 0.70554 0.7986 0.26405 0.0
H1659 H 0.70306 0.77894 0.27433 0.0
C1660 C 0.26774 0.95776 0.28401 0.0
C1661 C 0.27293 0.94608 0.28889 0.0
C1662 C 0.25492 0.954 0.26793 0.0
C1663 C 0.24712 0.93819 0.25658 0.0
C1664 C 0.25237 0.92641 0.26141 0.0
C1665 C 0.26518 0.9305 0.27743 0.0
C1666 C 0.24966 0.96687 0.26315 0.0
C1667 C 0.24436 0.90938 0.24973 0.0
C1668 C 0.20261 0.91684 0.22961 0.0
C1669 C 0.20688 0.9191 0.20735 0.0
C1670 C 0.21559 0.92397 0.24591 0.0
C1671 C 0.23326 0.93359 0.2398 0.0
C1672 C 0.2376 0.93683 0.21739 0.0
C1673 C 0.22435 0.92952 0.20142 0.0
C1674 C 0.21041 0.92018 0.26962 0.0
C1675 C 0.25627 0.94714 0.2102 0.0
H1676 H 0.27366 0.96984 0.29275 0.0
H1677 H 0.26906 0.92136 0.28103 0.0
H1678 H 0.25157 0.97038 0.24557 0.0
H1679 H 0.23564 0.96113 0.26653 0.0
H1680 H 0.25719 0.97871 0.2731 0.0
H1681 H 0.24997 0.9017 0.25533 0.0
H1682 H 0.23015 0.90183 0.25249 0.0
H1683 H 0.24634 0.91144 0.23183 0.0
H1684 H 0.18916 0.90869 0.23434 0.0
H1685 H 0.2277 0.93154 0.18424 0.0
H1686 H 0.21745 0.93203 0.27961 0.0
H1687 H 0.214 0.9111 0.27611 0.0
H1688 H 0.19622 0.91445 0.27178 0.0
H1689 H 0.26355 0.95917 0.2198 0.0
H1690 H 0.25739 0.95039 0.19251 0.0
H1691 H 0.2626 0.93968 0.21326 0.0
C1692 C 0.70844 0.95017 0.28459 0.0
C1693 C 0.69791 0.95707 0.28747 0.0
C1694 C 0.70674 0.94055 0.26593 0.0
C1695 C 0.69442 0.93801 0.2495 0.0
C1696 C 0.68428 0.94558 0.25182 0.0
C1697 C 0.68602 0.95489 0.2709 0.0
C1698 C 0.71764 0.9325 0.26424 0.0
C1699 C 0.67127 0.94344 0.23443 0.0
C1700 C 0.70016 0.92145 0.19531 0.0
C1701 C 0.6881 0.90385 0.19718 0.0
C1702 C 0.70182 0.93289 0.21176 0.0
C1703 C 0.69144 0.92649 0.2307 0.0
C1704 C 0.67899 0.90876 0.2324 0.0
C1705 C 0.67738 0.89768 0.21553 0.0
C1706 C 0.71498 0.95175 0.20917 0.0
C1707 C 0.66788 0.90137 0.25248 0.0
H1708 H 0.71762 0.95174 0.29734 0.0
H1709 H 0.67792 0.96028 0.27294 0.0
H1710 H 0.70907 0.91834 0.26407 0.0
H1711 H 0.72493 0.93628 0.24869 0.0
H1712 H 0.72706 0.93621 0.27805 0.0
H1713 H 0.66563 0.95147 0.2377 0.0
H1714 H 0.67748 0.94686 0.21813 0.0
H1715 H 0.66055 0.92985 0.23361 0.0
H1716 H 0.70837 0.92622 0.18103 0.0
H1717 H 0.66819 0.88404 0.2171 0.0
H1718 H 0.72558 0.95581 0.22144 0.0
H1719 H 0.70885 0.95935 0.2122 0.0
H1720 H 0.72077 0.95486 0.19259 0.0
H1721 H 0.67629 0.90346 0.26698 0.0
H1722 H 0.65832 0.88743 0.25083 0.0
H1723 H 0.66076 0.90798 0.25569 0.0
C1724 C 0.02908 0.74557 0.28132 0.0
C1725 C 0.03345 0.73418 0.29032 0.0
C1726 C 0.03726 0.75501 0.26247 0.0
C1727 C 0.05044 0.75334 0.25271 0.0
C1728 C 0.05432 0.74125 0.2611 0.0
C1729 C 0.04561 0.73165 0.27972 0.0
C1730 C 0.03245 0.76747 0.25374 0.0
C1731 C 0.06847 0.73928 0.25135 0.0
C1732 C 0.06709 0.77444 0.19728 0.0
C1733 C 0.0809 0.79059 0.20365 0.0
C1734 C 0.05716 0.76196 0.21303 0.0
C1735 C 0.06146 0.76569 0.23552 0.0
C1736 C 0.07585 0.78181 0.24186 0.0
C1737 C 0.08527 0.79412 0.22584 0.0
C1738 C 0.04173 0.74505 0.2057 0.0
C1739 C 0.08109 0.7862 0.26561 0.0
H1740 H 0.01952 0.7474 0.28934 0.0
H1741 H 0.04906 0.72289 0.2867 0.0
H1742 H 0.04323 0.78077 0.25705 0.0
H1743 H 0.03042 0.76606 0.23575 0.0
H1744 H 0.02049 0.76564 0.26139 0.0
H1745 H 0.06847 0.72797 0.25802 0.0
H1746 H 0.06702 0.73804 0.23329 0.0
H1747 H 0.08129 0.7509 0.255 0.0
H1748 H 0.06375 0.7718 0.18006 0.0
H1749 H 0.09611 0.80658 0.23066 0.0
H1750 H 0.02962 0.74387 0.21176 0.0
H1751 H 0.04249 0.73428 0.21279 0.0
H1752 H 0.04081 0.74372 0.1876 0.0
H1753 H 0.07069 0.78661 0.27455 0.0
H1754 H 0.09336 0.79878 0.26763 0.0
H1755 H 0.08279 0.77619 0.27341 0.0
C1756 C 0.26499 0.3311 0.274 0.0
C1757 C 0.27039 0.32188 0.28671 0.0
C1758 C 0.25107 0.32283 0.2592 0.0
C1759 C 0.2423 0.30482 0.25683 0.0
C1760 C 0.24805 0.29544 0.26893 0.0
C1761 C 0.26201 0.30408 0.28386 0.0
C1762 C 0.24537 0.33337 0.24666 0.0
C1763 C 0.23917 0.27626 0.2666 0.0
C1764 C 0.19655 0.28875 0.23764 0.0
C1765 C 0.19854 0.28954 0.21487 0.0
C1766 C 0.2103 0.29201 0.25172 0.0
C1767 C 0.22641 0.29608 0.24278 0.0
C1768 C 0.22785 0.29498 0.21986 0.0
C1769 C 0.21386 0.29176 0.20611 0.0
C1770 C 0.20812 0.2929 0.27605 0.0
C1771 C 0.24468 0.29888 0.20971 0.0
H1772 H 0.27141 0.34486 0.27593 0.0
H1773 H 0.26615 0.29686 0.29351 0.0
H1774 H 0.2453 0.33115 0.22882 0.0
H1775 H 0.23193 0.32942 0.25125 0.0
H1776 H 0.25394 0.34731 0.24988 0.0
H1777 H 0.24674 0.27123 0.27453 0.0
H1778 H 0.2262 0.27005 0.27428 0.0
H1779 H 0.23711 0.27251 0.24907 0.0
H1780 H 0.18456 0.2867 0.24444 0.0
H1781 H 0.21544 0.29233 0.1885 0.0
H1782 H 0.21506 0.30652 0.28128 0.0
H1783 H 0.21387 0.28656 0.28528 0.0
H1784 H 0.19425 0.28684 0.28058 0.0
H1785 H 0.25382 0.31295 0.20937 0.0
H1786 H 0.24269 0.29399 0.19265 0.0
H1787 H 0.25089 0.29323 0.2195 0.0
C1788 C 0.28708 0.36478 0.39783 0.0
C1789 C 0.29286 0.35339 0.39474 0.0
C1790 C 0.28006 0.36557 0.4178 0.0
C1791 C 0.27903 0.3549 0.4353 0.0
C1792 C 0.28534 0.34376 0.43256 0.0
C1793 C 0.29206 0.34302 0.41223 0.0
C1794 C 0.27327 0.37747 0.41994 0.0
C1795 C 0.28471 0.33241 0.45098 0.0
C1796 C 0.27123 0.36853 0.49042 0.0
C1797 C 0.25315 0.35794 0.49214 0.0
C1798 C 0.28003 0.36703 0.47259 0.0
C1799 C 0.27045 0.35487 0.45594 0.0
C1800 C 0.25228 0.34372 0.45805 0.0
C1801 C 0.24387 0.34533 0.47619 0.0
C1802 C 0.29945 0.37892 0.47112 0.0
C1803 C 0.24154 0.33076 0.44052 0.0
H1804 H 0.2876 0.37281 0.38441 0.0
H1805 H 0.2966 0.33427 0.41001 0.0
H1806 H 0.25914 0.36994 0.42332 0.0
H1807 H 0.27972 0.38633 0.43394 0.0
H1808 H 0.27538 0.38519 0.40493 0.0
H1809 H 0.29133 0.32545 0.44677 0.0
H1810 H 0.29091 0.34016 0.46594 0.0
H1811 H 0.271 0.32289 0.45498 0.0
H1812 H 0.27843 0.37819 0.50284 0.0
H1813 H 0.22986 0.33726 0.47733 0.0
H1814 H 0.3025 0.38824 0.45769 0.0
H1815 H 0.30575 0.37161 0.46719 0.0
H1816 H 0.30522 0.38615 0.48657 0.0
H1817 H 0.24183 0.33751 0.42525 0.0
H1818 H 0.22779 0.32223 0.44539 0.0
H1819 H 0.24708 0.32274 0.4367 0.0
C1820 C 0.65664 0.93877 0.4051 0.0
C1821 C 0.6734 0.94404 0.39783 0.0
C1822 C 0.6494 0.92754 0.42299 0.0
C1823 C 0.65911 0.92141 0.43367 0.0
C1824 C 0.67594 0.92658 0.42622 0.0
C1825 C 0.68285 0.93782 0.4085 0.0
C1826 C 0.63145 0.92234 0.43057 0.0
C1827 C 0.68671 0.92026 0.43702 0.0
C1828 C 0.65316 0.90503 0.4918 0.0
C1829 C 0.64582 0.88743 0.48828 0.0
C1830 C 0.65624 0.91617 0.47423 0.0
C1831 C 0.65199 0.90956 0.45265 0.0
C1832 C 0.64341 0.89166 0.4492 0.0
C1833 C 0.64042 0.88081 0.46707 0.0
C1834 C 0.66522 0.93515 0.47865 0.0
C1835 C 0.6387 0.88408 0.42647 0.0
H1836 H 0.64926 0.94354 0.39698 0.0
H1837 H 0.69577 0.94171 0.40298 0.0
H1838 H 0.62283 0.90821 0.42999 0.0
H1839 H 0.63205 0.92632 0.44784 0.0
H1840 H 0.62552 0.92811 0.42041 0.0
H1841 H 0.6995 0.92537 0.42906 0.0
H1842 H 0.68902 0.92409 0.45451 0.0
H1843 H 0.67962 0.90607 0.43641 0.0
H1844 H 0.6571 0.91017 0.50821 0.0
H1845 H 0.63485 0.86724 0.46419 0.0
H1846 H 0.65893 0.94087 0.46919 0.0
H1847 H 0.67892 0.94151 0.47329 0.0
H1848 H 0.66516 0.93796 0.4963 0.0
H1849 H 0.63249 0.88978 0.41681 0.0
H1850 H 0.62978 0.86995 0.4268 0.0
H1851 H 0.65069 0.88701 0.41783 0.0
C1852 C 0.05938 0.71247 0.40431 0.0
C1853 C 0.05361 0.72365 0.39906 0.0
C1854 C 0.07205 0.71668 0.42075 0.0
C1855 C 0.07915 0.73244 0.43207 0.0
C1856 C 0.07335 0.74373 0.42685 0.0
C1857 C 0.06067 0.73919 0.4105 0.0
C1858 C 0.07788 0.70431 0.42597 0.0
C1859 C 0.08063 0.76071 0.43845 0.0
C1860 C 0.10131 0.74178 0.48775 0.0
C1861 C 0.11881 0.75252 0.48215 0.0
C1862 C 0.08829 0.73419 0.47153 0.0
C1863 C 0.09288 0.73752 0.44919 0.0
C1864 C 0.11061 0.74757 0.44343 0.0
C1865 C 0.12336 0.75493 0.45998 0.0
C1866 C 0.06955 0.72342 0.47835 0.0
C1867 C 0.11605 0.7515 0.41982 0.0
H1868 H 0.05398 0.70043 0.39561 0.0
H1869 H 0.05635 0.74795 0.4066 0.0
H1870 H 0.092 0.71048 0.42296 0.0
H1871 H 0.0758 0.7008 0.44355 0.0
H1872 H 0.07084 0.69242 0.416 0.0
H1873 H 0.07468 0.76799 0.43249 0.0
H1874 H 0.07842 0.75863 0.45631 0.0
H1875 H 0.09487 0.76867 0.43603 0.0
H1876 H 0.09776 0.73967 0.50486 0.0
H1877 H 0.13683 0.76335 0.45551 0.0
H1878 H 0.06273 0.71134 0.46878 0.0
H1879 H 0.06286 0.73048 0.47491 0.0
H1880 H 0.0683 0.72023 0.49606 0.0
H1881 H 0.10954 0.73962 0.40984 0.0
H1882 H 0.13033 0.75774 0.41798 0.0
H1883 H 0.11202 0.76019 0.41306 0.0
C1884 C 0.32502 0.0545 0.75004 0.0
C1885 C 0.30853 0.04204 0.74209 0.0
C1886 C 0.32684 0.06445 0.76847 0.0
C1887 C 0.31182 0.06161 0.77944 0.0
C1888 C 0.29522 0.04824 0.77235 0.0
C1889 C 0.29376 0.03876 0.75361 0.0
C1890 C 0.34474 0.07875 0.77527 0.0
C1891 C 0.27891 0.04452 0.78389 0.0
C1892 C 0.31626 0.08246 0.83493 0.0
C1893 C 0.31432 0.09616 0.829 0.0
C1894 C 0.31555 0.07106 0.81899 0.0
C1895 C 0.31325 0.07375 0.79665 0.0
C1896 C 0.31177 0.0879 0.79064 0.0
C1897 C 0.31213 0.09881 0.80691 0.0
C1898 C 0.31682 0.05594 0.82606 0.0
C1899 C 0.30966 0.09145 0.76699 0.0
H1900 H 0.33648 0.05713 0.74115 0.0
H1901 H 0.28099 0.02903 0.74765 0.0
H1902 H 0.34606 0.09126 0.77161 0.0
H1903 H 0.34675 0.07834 0.79315 0.0
H1904 H 0.35515 0.07815 0.76658 0.0
H1905 H 0.26731 0.03239 0.77815 0.0
H1906 H 0.28039 0.04371 0.80183 0.0
H1907 H 0.27657 0.05512 0.78089 0.0
H1908 H 0.31789 0.08043 0.85206 0.0
H1909 H 0.31082 0.10954 0.80237 0.0
H1910 H 0.32754 0.05596 0.81737 0.0
H1911 H 0.30464 0.04387 0.82159 0.0
H1912 H 0.31907 0.05593 0.84397 0.0
H1913 H 0.32031 0.09232 0.75709 0.0
H1914 H 0.30966 0.10351 0.76499 0.0
H1915 H 0.29726 0.08074 0.76024 0.0
C1916 C 0.95265 0.27244 0.74606 0.0
C1917 C 0.96494 0.26984 0.73592 0.0
C1918 C 0.94394 0.26315 0.76487 0.0
C1919 C 0.94792 0.2513 0.7739 0.0
C1920 C 0.96123 0.24961 0.76459 0.0
C1921 C 0.96943 0.25875 0.74558 0.0
C1922 C 0.92969 0.26516 0.77415 0.0
C1923 C 0.96615 0.2374 0.77397 0.0
C1924 C 0.93131 0.23077 0.82964 0.0
C1925 C 0.91767 0.21446 0.8235 0.0
C1926 C 0.94111 0.24316 0.81371 0.0
C1927 C 0.93687 0.23914 0.79126 0.0
C1928 C 0.92262 0.22288 0.78513 0.0
C1929 C 0.91331 0.21069 0.80132 0.0
C1930 C 0.95636 0.26025 0.82083 0.0
C1931 C 0.91746 0.21816 0.76142 0.0
H1932 H 0.94911 0.28097 0.73859 0.0
H1933 H 0.97909 0.25688 0.73792 0.0
H1934 H 0.91692 0.25346 0.77053 0.0
H1935 H 0.93101 0.2666 0.7922 0.0
H1936 H 0.92968 0.27636 0.76711 0.0
H1937 H 0.97817 0.23919 0.76657 0.0
H1938 H 0.96811 0.23912 0.79195 0.0
H1939 H 0.95544 0.22401 0.77093 0.0
H1940 H 0.93464 0.23363 0.84683 0.0
H1941 H 0.90259 0.19812 0.79666 0.0
H1942 H 0.95555 0.27083 0.81323 0.0
H1943 H 0.96859 0.26145 0.81519 0.0
H1944 H 0.95711 0.26186 0.8389 0.0
H1945 H 0.91569 0.22801 0.75327 0.0
H1946 H 0.90526 0.20551 0.75955 0.0
H1947 H 0.92795 0.21774 0.75272 0.0
C1948 C 0.736 0.69574 0.7515 0.0
C1949 C 0.72676 0.67796 0.74811 0.0
C1950 C 0.74969 0.70347 0.76694 0.0
C1951 C 0.75425 0.69317 0.77913 0.0
C1952 C 0.74459 0.67519 0.77627 0.0
C1953 C 0.731 0.66783 0.76087 0.0
C1954 C 0.75961 0.72267 0.76971 0.0
C1955 C 0.74899 0.66369 0.78893 0.0
C1956 C 0.79952 0.70803 0.80006 0.0
C1957 C 0.79742 0.70813 0.82275 0.0
C1958 C 0.78592 0.70447 0.78549 0.0
C1959 C 0.76982 0.70096 0.79382 0.0
C1960 C 0.76808 0.70241 0.81659 0.0
C1961 C 0.78192 0.70597 0.83083 0.0
C1962 C 0.78839 0.70315 0.76134 0.0
C1963 C 0.75118 0.69894 0.82609 0.0
H1964 H 0.73278 0.70366 0.74179 0.0
H1965 H 0.72389 0.65407 0.75856 0.0
H1966 H 0.76081 0.72611 0.7873 0.0
H1967 H 0.77297 0.7282 0.76338 0.0
H1968 H 0.7533 0.72865 0.76085 0.0
H1969 H 0.73972 0.64991 0.78548 0.0
H1970 H 0.76224 0.66678 0.78465 0.0
H1971 H 0.74899 0.66589 0.80676 0.0
H1972 H 0.81161 0.71003 0.79373 0.0
H1973 H 0.78023 0.70603 0.84836 0.0
H1974 H 0.78357 0.71012 0.75162 0.0
H1975 H 0.78073 0.68951 0.75623 0.0
H1976 H 0.80222 0.70833 0.75726 0.0
H1977 H 0.74569 0.70522 0.81619 0.0
H1978 H 0.75282 0.70345 0.84329 0.0
H1979 H 0.7416 0.68496 0.82576 0.0
C1980 C 0.70679 0.63709 0.63097 0.0
C1981 C 0.7072 0.65182 0.63822 0.0
C1982 C 0.71527 0.63729 0.6118 0.0
C1983 C 0.72449 0.65262 0.59962 0.0
C1984 C 0.72424 0.66729 0.60621 0.0
C1985 C 0.71555 0.6667 0.62542 0.0
C1986 C 0.71511 0.62133 0.60523 0.0
C1987 C 0.73393 0.68387 0.59364 0.0
C1988 C 0.76351 0.65812 0.56952 0.0
C1989 C 0.75717 0.65373 0.54798 0.0
C1990 C 0.75314 0.65826 0.58627 0.0
C1991 C 0.73588 0.65374 0.58148 0.0
C1992 C 0.72941 0.64954 0.55974 0.0
C1993 C 0.74015 0.6496 0.54321 0.0
C1994 C 0.76054 0.66281 0.60925 0.0
C1995 C 0.71107 0.64466 0.55404 0.0
H1996 H 0.70022 0.62547 0.64061 0.0
H1997 H 0.71589 0.67813 0.63084 0.0
H1998 H 0.71147 0.61837 0.58769 0.0
H1999 H 0.72832 0.62347 0.60736 0.0
H2000 H 0.70593 0.61003 0.61514 0.0
H2001 H 0.73083 0.69346 0.59939 0.0
H2002 H 0.74811 0.68937 0.59561 0.0
H2003 H 0.73082 0.68157 0.57591 0.0
H2004 H 0.7765 0.66099 0.57348 0.0
H2005 H 0.7352 0.64635 0.52657 0.0
H2006 H 0.75319 0.65159 0.62014 0.0
H2007 H 0.75917 0.67331 0.61582 0.0
H2008 H 0.77448 0.66687 0.61002 0.0
H2009 H 0.70174 0.6327 0.5627 0.0
H2010 H 0.70831 0.64263 0.53618 0.0
H2011 H 0.70869 0.65476 0.55959 0.0
C2012 C 0.34412 0.06281 0.62216 0.0
C2013 C 0.32751 0.05719 0.63029 0.0
C2014 C 0.35075 0.0742 0.60438 0.0
C2015 C 0.34054 0.08012 0.59462 0.0
C2016 C 0.32385 0.0746 0.60289 0.0
C2017 C 0.31755 0.06322 0.62056 0.0
C2018 C 0.3686 0.07981 0.59595 0.0
C2019 C 0.31256 0.08067 0.59303 0.0
C2020 C 0.35881 0.12092 0.56154 0.0
C2021 C 0.35351 0.11443 0.54026 0.0
C2022 C 0.35568 0.10995 0.57932 0.0
C2023 C 0.34706 0.09207 0.5757 0.0
C2024 C 0.3427 0.08556 0.55408 0.0
C2025 C 0.34595 0.09682 0.53662 0.0
C2026 C 0.36051 0.11741 0.60211 0.0
C2027 C 0.33364 0.06659 0.54953 0.0
H2028 H 0.3519 0.05821 0.62955 0.0
H2029 H 0.30472 0.05902 0.62672 0.0
H2030 H 0.36767 0.07601 0.57854 0.0
H2031 H 0.37699 0.09397 0.59665 0.0
H2032 H 0.37497 0.07418 0.60547 0.0
H2033 H 0.29995 0.07528 0.60152 0.0
H2034 H 0.31943 0.09485 0.5938 0.0
H2035 H 0.30991 0.07695 0.57551 0.0
H2036 H 0.36451 0.13449 0.56453 0.0
H2037 H 0.34208 0.09177 0.52015 0.0
H2038 H 0.36714 0.11194 0.61135 0.0
H2039 H 0.34855 0.11408 0.61112 0.0
H2040 H 0.36912 0.13158 0.60191 0.0
H2041 H 0.34027 0.06092 0.5583 0.0
H2042 H 0.33315 0.0638 0.53177 0.0
H2043 H 0.32013 0.06016 0.55562 0.0
C2044 C 0.93872 0.28755 0.62024 0.0
C2045 C 0.94546 0.27719 0.62558 0.0
C2046 C 0.92595 0.28265 0.60377 0.0
C2047 C 0.91972 0.26699 0.59249 0.0
C2048 C 0.92653 0.25654 0.59774 0.0
C2049 C 0.93931 0.26178 0.61415 0.0
C2050 C 0.91904 0.29414 0.59853 0.0
C2051 C 0.9202 0.23971 0.58615 0.0
C2052 C 0.8754 0.24317 0.56478 0.0
C2053 C 0.87981 0.24614 0.54259 0.0
C2054 C 0.8882 0.25055 0.58127 0.0
C2055 C 0.90585 0.2612 0.57543 0.0
C2056 C 0.9103 0.26493 0.5531 0.0
C2057 C 0.89723 0.25731 0.53694 0.0
C2058 C 0.88292 0.24619 0.60488 0.0
C2059 C 0.92894 0.27635 0.54621 0.0
H2060 H 0.94341 0.29949 0.62893 0.0
H2061 H 0.94439 0.25365 0.61812 0.0
H2062 H 0.92086 0.29758 0.58092 0.0
H2063 H 0.90489 0.28727 0.60166 0.0
H2064 H 0.92555 0.30611 0.60839 0.0
H2065 H 0.92692 0.23315 0.59207 0.0
H2066 H 0.90604 0.23106 0.58866 0.0
H2067 H 0.92227 0.24186 0.56828 0.0
H2068 H 0.86199 0.23441 0.56927 0.0
H2069 H 0.90067 0.25984 0.51982 0.0
H2070 H 0.88875 0.258 0.61495 0.0
H2071 H 0.88786 0.23819 0.61146 0.0
H2072 H 0.86859 0.23907 0.60681 0.0
H2073 H 0.93526 0.2885 0.55564 0.0
H2074 H 0.93005 0.2794 0.52846 0.0
H2075 H 0.93625 0.26992 0.54981 0.0
C2076 C 0.35043 0.28915 0.60822 0.0
C2077 C 0.36214 0.29134 0.62504 0.0
C2078 C 0.3491 0.28007 0.58907 0.0
C2079 C 0.35943 0.27269 0.58695 0.0
C2080 C 0.37154 0.27519 0.60368 0.0
C2081 C 0.37286 0.28463 0.62239 0.0
C2082 C 0.33634 0.278 0.57135 0.0
C2083 C 0.3826 0.2673 0.60224 0.0
C2084 C 0.34329 0.2328 0.5523 0.0
C2085 C 0.35437 0.23924 0.5343 0.0
C2086 C 0.34451 0.24364 0.56928 0.0
C2087 C 0.3569 0.26141 0.56802 0.0
C2088 C 0.36763 0.26809 0.54941 0.0
C2089 C 0.36639 0.25688 0.53287 0.0
C2090 C 0.33306 0.23594 0.58902 0.0
C2091 C 0.38072 0.287 0.54725 0.0
H2092 H 0.34218 0.2944 0.6101 0.0
H2093 H 0.38189 0.28618 0.63534 0.0
H2094 H 0.34284 0.28166 0.55524 0.0
H2095 H 0.32572 0.26438 0.57019 0.0
H2096 H 0.33051 0.28588 0.57452 0.0
H2097 H 0.39175 0.2709 0.61634 0.0
H2098 H 0.37413 0.25314 0.60174 0.0
H2099 H 0.39019 0.27135 0.58693 0.0
H2100 H 0.33413 0.21913 0.55352 0.0
H2101 H 0.37488 0.26186 0.51886 0.0
H2102 H 0.32574 0.24238 0.59204 0.0
H2103 H 0.34122 0.23797 0.60376 0.0
H2104 H 0.32364 0.22199 0.58707 0.0
H2105 H 0.37443 0.29447 0.55016 0.0
H2106 H 0.38681 0.29034 0.53085 0.0
H2107 H 0.39112 0.29101 0.55981 0.0
C2108 C 0.72262 0.08802 0.62527 0.0
C2109 C 0.71384 0.07019 0.62773 0.0
C2110 C 0.73022 0.09584 0.60539 0.0
C2111 C 0.72884 0.08558 0.58732 0.0
C2112 C 0.71992 0.06754 0.58956 0.0
C2113 C 0.71262 0.06004 0.60984 0.0
C2114 C 0.73983 0.11514 0.60381 0.0
C2115 C 0.71801 0.05622 0.57053 0.0
C2116 C 0.73683 0.1099 0.53424 0.0
C2117 C 0.75458 0.11643 0.53127 0.0
C2118 C 0.72785 0.09863 0.55148 0.0
C2119 C 0.73694 0.09403 0.56626 0.0
C2120 C 0.7546 0.09975 0.56251 0.0
C2121 C 0.76319 0.11083 0.54497 0.0
C2122 C 0.70894 0.09256 0.55471 0.0
C2123 C 0.76482 0.09531 0.578 0.0
H2124 H 0.72375 0.09598 0.63903 0.0
H2125 H 0.7058 0.04625 0.61162 0.0
H2126 H 0.75345 0.1202 0.59884 0.0
H2127 H 0.73368 0.119 0.59108 0.0
H2128 H 0.73998 0.12126 0.61953 0.0
H2129 H 0.71059 0.04242 0.5749 0.0
H2130 H 0.71128 0.05833 0.55669 0.0
H2131 H 0.73101 0.0596 0.56467 0.0
H2132 H 0.7301 0.11407 0.52349 0.0
H2133 H 0.77695 0.11596 0.54281 0.0
H2134 H 0.70768 0.09934 0.5689 0.0
H2135 H 0.70137 0.07866 0.55836 0.0
H2136 H 0.70313 0.09504 0.54009 0.0
H2137 H 0.76706 0.10229 0.59366 0.0
H2138 H 0.77764 0.09881 0.57123 0.0
H2139 H 0.75746 0.08143 0.58177 0.0
C2140 C 0.92519 0.66663 0.62848 0.0
C2141 C 0.93607 0.66022 0.63243 0.0
C2142 C 0.91285 0.66013 0.61149 0.0
C2143 C 0.91154 0.64706 0.59779 0.0
C2144 C 0.92201 0.64003 0.6022 0.0
C2145 C 0.93409 0.64662 0.61965 0.0
C2146 C 0.90171 0.66777 0.60766 0.0
C2147 C 0.92108 0.62621 0.58785 0.0
C2148 C 0.87099 0.62724 0.56215 0.0
C2149 C 0.87704 0.63822 0.54407 0.0
C2150 C 0.88237 0.62904 0.57925 0.0
C2151 C 0.90017 0.64199 0.57797 0.0
C2152 C 0.90652 0.65205 0.55878 0.0
C2153 C 0.89482 0.65017 0.54215 0.0
C2154 C 0.87506 0.61812 0.59945 0.0
C2155 C 0.92545 0.66577 0.55656 0.0
H2156 H 0.92653 0.677 0.6385 0.0
H2157 H 0.94253 0.64167 0.62264 0.0
H2158 H 0.90521 0.67478 0.59188 0.0
H2159 H 0.8878 0.6575 0.60655 0.0
H2160 H 0.90331 0.67679 0.62087 0.0
H2161 H 0.92837 0.6206 0.59505 0.0
H2162 H 0.90738 0.61582 0.58506 0.0
H2163 H 0.92665 0.63168 0.57163 0.0
H2164 H 0.85718 0.61806 0.56362 0.0
H2165 H 0.89945 0.65858 0.52806 0.0
H2166 H 0.87427 0.62591 0.61272 0.0
H2167 H 0.88366 0.61361 0.60536 0.0
H2168 H 0.86185 0.60684 0.59642 0.0
H2169 H 0.92854 0.6767 0.56743 0.0
H2170 H 0.92871 0.6706 0.53951 0.0
H2171 H 0.93387 0.66084 0.56168 0.0
C2172 C 0.95127 0.67615 0.75017 0.0
C2173 C 0.96387 0.69104 0.73955 0.0
C2174 C 0.9436 0.67713 0.76953 0.0
C2175 C 0.94898 0.69337 0.77866 0.0
C2176 C 0.96264 0.70835 0.76887 0.0
C2177 C 0.96977 0.70702 0.74927 0.0
C2178 C 0.92887 0.66088 0.77924 0.0
C2179 C 0.96904 0.72587 0.77839 0.0
C2180 C 0.91606 0.69983 0.80784 0.0
C2181 C 0.92024 0.69933 0.82984 0.0
C2182 C 0.92506 0.69746 0.79111 0.0
C2183 C 0.93885 0.69492 0.79654 0.0
C2184 C 0.94312 0.69437 0.81881 0.0
C2185 C 0.93356 0.69638 0.83528 0.0
C2186 C 0.91986 0.6978 0.7676 0.0
C2187 C 0.95795 0.69204 0.82517 0.0
H2188 H 0.94664 0.66377 0.74266 0.0
H2189 H 0.97967 0.71855 0.74122 0.0
H2190 H 0.93068 0.66057 0.79719 0.0
H2191 H 0.91648 0.66046 0.77645 0.0
H2192 H 0.92767 0.64925 0.77185 0.0
H2193 H 0.98131 0.73589 0.77074 0.0
H2194 H 0.95906 0.72932 0.77575 0.0
H2195 H 0.97121 0.7259 0.7963 0.0
H2196 H 0.90559 0.70192 0.80375 0.0
H2197 H 0.93673 0.69602 0.85238 0.0
H2198 H 0.91703 0.68594 0.75904 0.0
H2199 H 0.93074 0.70875 0.75892 0.0
H2200 H 0.90824 0.69898 0.76624 0.0
H2201 H 0.95603 0.68011 0.81783 0.0
H2202 H 0.95932 0.69148 0.8432 0.0
H2203 H 0.97029 0.70281 0.81866 0.0
C2204 C 0.32125 0.27112 0.74294 0.0
C2205 C 0.33808 0.27709 0.73536 0.0
C2206 C 0.31452 0.25971 0.76073 0.0
C2207 C 0.32485 0.25409 0.77097 0.0
C2208 C 0.34176 0.25997 0.76322 0.0
C2209 C 0.34815 0.27139 0.74562 0.0
C2210 C 0.29647 0.25376 0.76866 0.0
C2211 C 0.35317 0.25421 0.77352 0.0
C2212 C 0.31969 0.23715 0.82877 0.0
C2213 C 0.3128 0.21967 0.82491 0.0
C2214 C 0.3224 0.24839 0.81146 0.0
C2215 C 0.31825 0.242 0.78977 0.0
C2216 C 0.31021 0.22419 0.78596 0.0
C2217 C 0.30756 0.21324 0.80359 0.0
C2218 C 0.33082 0.26727 0.81624 0.0
C2219 C 0.30565 0.21685 0.7631 0.0
H2220 H 0.3134 0.27549 0.73515 0.0
H2221 H 0.36113 0.27582 0.73986 0.0
H2222 H 0.28829 0.23959 0.76782 0.0
H2223 H 0.29704 0.25745 0.78606 0.0
H2224 H 0.29008 0.25926 0.75891 0.0
H2225 H 0.36595 0.25986 0.76538 0.0
H2226 H 0.35548 0.25788 0.79107 0.0
H2227 H 0.34658 0.24006 0.77268 0.0
H2228 H 0.3235 0.24214 0.84527 0.0
H2229 H 0.30234 0.19976 0.80043 0.0
H2230 H 0.32406 0.27269 0.80719 0.0
H2231 H 0.34448 0.27411 0.81066 0.0
H2232 H 0.33081 0.26983 0.834 0.0
H2233 H 0.29891 0.22218 0.7538 0.0
H2234 H 0.29724 0.20267 0.76317 0.0
H2235 H 0.31775 0.22044 0.75424 0.0
C2236 C 0.73345 0.04629 0.74291 0.0
C2237 C 0.72718 0.05718 0.73854 0.0
C2238 C 0.74592 0.05022 0.75953 0.0
C2239 C 0.75233 0.06544 0.77191 0.0
C2240 C 0.74583 0.0763 0.76779 0.0
C2241 C 0.73334 0.07202 0.75126 0.0
C2242 C 0.75245 0.03826 0.76363 0.0
C2243 C 0.75236 0.0927 0.78053 0.0
C2244 C 0.7753 0.07421 0.82698 0.0
C2245 C 0.79262 0.08559 0.82113 0.0
C2246 C 0.76211 0.06657 0.81097 0.0
C2247 C 0.76634 0.07059 0.78863 0.0
C2248 C 0.78392 0.08138 0.78258 0.0
C2249 C 0.79685 0.0887 0.79891 0.0
C2250 C 0.74355 0.05495 0.81806 0.0
C2251 C 0.78897 0.08612 0.75898 0.0
H2252 H 0.72873 0.03477 0.73323 0.0
H2253 H 0.72859 0.08054 0.74809 0.0
H2254 H 0.76648 0.04485 0.75983 0.0
H2255 H 0.75104 0.03461 0.78117 0.0
H2256 H 0.7454 0.02643 0.75355 0.0
H2257 H 0.74573 0.09958 0.77558 0.0
H2258 H 0.75036 0.08991 0.7983 0.0
H2259 H 0.76652 0.10135 0.77803 0.0
H2260 H 0.77202 0.07162 0.84414 0.0
H2261 H 0.81018 0.09762 0.79429 0.0
H2262 H 0.73702 0.04317 0.80788 0.0
H2263 H 0.73629 0.06158 0.8157 0.0
H2264 H 0.74269 0.05124 0.83555 0.0
H2265 H 0.78291 0.0745 0.74852 0.0
H2266 H 0.80327 0.09312 0.75679 0.0
H2267 H 0.78414 0.09438 0.75307 0.0
C2268 C 0.04464 0.34462 0.01468 0.0
C2269 C 0.03608 0.35091 0.02688 0.0
C2270 C 0.05666 0.34128 0.02467 0.0
C2271 C 0.06007 0.34415 0.04742 0.0
C2272 C 0.05189 0.35101 0.05968 0.0
C2273 C 0.04007 0.35439 0.04924 0.0
C2274 C 0.0653 0.33416 0.01103 0.0
C2275 C 0.05511 0.35417 0.084 0.0
C2276 C 0.07451 0.31764 0.0785 0.0
C2277 C 0.09226 0.32947 0.08178 0.0
C2278 C 0.06394 0.32222 0.06716 0.0
C2279 C 0.07134 0.33902 0.05873 0.0
C2280 C 0.08933 0.35096 0.0617 0.0
C2281 C 0.09956 0.34607 0.07331 0.0
C2282 C 0.04478 0.30918 0.06456 0.0
C2283 C 0.09771 0.36891 0.05273 0.0
H2284 H 0.0417 0.34197 0.99738 0.0
H2285 H 0.03354 0.35926 0.05882 0.0
H2286 H 0.07959 0.34186 0.01351 0.0
H2287 H 0.06082 0.32089 0.01629 0.0
H2288 H 0.06236 0.33398 0.99329 0.0
H2289 H 0.04842 0.36037 0.09094 0.0
H2290 H 0.05044 0.34183 0.09257 0.0
H2291 H 0.06923 0.3624 0.0875 0.0
H2292 H 0.06879 0.30486 0.08525 0.0
H2293 H 0.11333 0.35519 0.07565 0.0
H2294 H 0.04107 0.30729 0.04696 0.0
H2295 H 0.03711 0.31392 0.07257 0.0
H2296 H 0.04112 0.29659 0.07179 0.0
H2297 H 0.09522 0.36849 0.03485 0.0
H2298 H 0.11196 0.37645 0.05574 0.0
H2299 H 0.0919 0.37571 0.06038 0.0
C2300 C 0.6452 0.68592 0.03741 0.0
C2301 C 0.65679 0.68706 0.02144 0.0
C2302 C 0.6473 0.70068 0.04739 0.0
C2303 C 0.66142 0.71696 0.04139 0.0
C2304 C 0.67307 0.71822 0.02513 0.0
C2305 C 0.67057 0.70326 0.01528 0.0
C2306 C 0.63451 0.69884 0.06451 0.0
C2307 C 0.68836 0.73534 0.01841 0.0
C2308 C 0.6595 0.75651 0.05429 0.0
C2309 C 0.66949 0.76244 0.07362 0.0
C2310 C 0.65672 0.7417 0.04367 0.0
C2311 C 0.66422 0.73267 0.05246 0.0
C2312 C 0.67439 0.73862 0.07187 0.0
C2313 C 0.67684 0.75337 0.08226 0.0
C2314 C 0.64574 0.73572 0.02303 0.0
C2315 C 0.68266 0.72937 0.08171 0.0
H2316 H 0.63448 0.67346 0.04221 0.0
H2317 H 0.67963 0.70427 0.00302 0.0
H2318 H 0.64134 0.70392 0.08041 0.0
H2319 H 0.62865 0.70647 0.05982 0.0
H2320 H 0.62392 0.68531 0.06683 0.0
H2321 H 0.69604 0.73415 0.00524 0.0
H2322 H 0.6838 0.74385 0.01261 0.0
H2323 H 0.69704 0.74168 0.03275 0.0
H2324 H 0.65398 0.76355 0.04731 0.0
H2325 H 0.68434 0.75768 0.09735 0.0
H2326 H 0.63461 0.72245 0.02521 0.0
H2327 H 0.65351 0.7355 0.00925 0.0
H2328 H 0.64065 0.74406 0.01848 0.0
H2329 H 0.67247 0.71607 0.086 0.0
H2330 H 0.69045 0.73583 0.09667 0.0
H2331 H 0.69124 0.72855 0.06958 0.0
C2332 C 0.29176 0.94742 0.05466 0.0
C2333 C 0.30197 0.96393 0.04598 0.0
C2334 C 0.27475 0.94127 0.06149 0.0
C2335 C 0.26766 0.95183 0.05948 0.0
C2336 C 0.27782 0.9685 0.05067 0.0
C2337 C 0.29491 0.97439 0.04408 0.0
C2338 C 0.26436 0.92342 0.07089 0.0
C2339 C 0.27062 0.98005 0.04817 0.0
C2340 C 0.21863 0.92549 0.05987 0.0
C2341 C 0.21529 0.92601 0.0821 0.0
C2342 C 0.23559 0.93499 0.05184 0.0
C2343 C 0.24952 0.9451 0.06649 0.0
C2344 C 0.24605 0.94666 0.08863 0.0
C2345 C 0.22892 0.93712 0.09617 0.0
C2346 C 0.23871 0.93317 0.02807 0.0
C2347 C 0.26055 0.95728 0.10477 0.0
H2348 H 0.2971 0.93926 0.05628 0.0
H2349 H 0.3027 0.98717 0.03738 0.0
H2350 H 0.26009 0.92394 0.08766 0.0
H2351 H 0.25251 0.91548 0.06078 0.0
H2352 H 0.27189 0.91695 0.07164 0.0
H2353 H 0.28021 0.99267 0.04107 0.0
H2354 H 0.25888 0.97384 0.03747 0.0
H2355 H 0.26656 0.98216 0.06433 0.0
H2356 H 0.20803 0.91703 0.04894 0.0
H2357 H 0.22638 0.93745 0.1134 0.0
H2358 H 0.24462 0.92521 0.02677 0.0
H2359 H 0.24792 0.94585 0.02085 0.0
H2360 H 0.22647 0.927 0.01825 0.0
H2361 H 0.26776 0.95075 0.10839 0.0
H2362 H 0.25559 0.95915 0.1204 0.0
H2363 H 0.26991 0.97 0.09778 0.0
C2364 C 0.34999 0.04491 0.99231 0.0
C2365 C 0.35276 0.04549 0.01503 0.0
C2366 C 0.34691 0.05676 0.98187 0.0
C2367 C 0.3469 0.06973 0.99437 0.0
C2368 C 0.35013 0.07067 0.01722 0.0
C2369 C 0.35286 0.05843 0.02733 0.0
C2370 C 0.34327 0.05515 0.95752 0.0
C2371 C 0.35055 0.08452 0.031 0.0
C2372 C 0.35297 0.108 0.96209 0.0
C2373 C 0.33585 0.10438 0.96015 0.0
C2374 C 0.35683 0.09714 0.9738 0.0
C2375 C 0.3432 0.08207 0.98344 0.0
C2376 C 0.32592 0.07834 0.98167 0.0
C2377 C 0.32247 0.08961 0.97025 0.0
C2378 C 0.37546 0.10165 0.97552 0.0
C2379 C 0.311 0.06227 0.99148 0.0
H2380 H 0.34976 0.03489 0.98267 0.0
H2381 H 0.35505 0.05898 0.04487 0.0
H2382 H 0.33021 0.05313 0.95426 0.0
H2383 H 0.35283 0.06716 0.94916 0.0
H2384 H 0.3438 0.04437 0.95016 0.0
H2385 H 0.35398 0.08394 0.04837 0.0
H2386 H 0.36013 0.09731 0.02433 0.0
H2387 H 0.33767 0.08332 0.0304 0.0
H2388 H 0.3634 0.11917 0.95409 0.0
H2389 H 0.30925 0.08683 0.96927 0.0
H2390 H 0.37698 0.09197 0.96668 0.0
H2391 H 0.37907 0.10146 0.9929 0.0
H2392 H 0.38467 0.11446 0.96857 0.0
H2393 H 0.3102 0.05085 0.98404 0.0
H2394 H 0.29833 0.06136 0.98893 0.0
H2395 H 0.31321 0.06185 0.00931 0.0
C2396 C 0.96519 0.29686 0.00093 0.0
C2397 C 0.95444 0.30369 0.99953 0.0
C2398 C 0.95942 0.28024 0.99334 0.0
C2399 C 0.94261 0.27033 0.98392 0.0
C2400 C 0.93156 0.277 0.98299 0.0
C2401 C 0.93757 0.29353 0.99092 0.0
C2402 C 0.97144 0.27343 0.9949 0.0
C2403 C 0.91355 0.26688 0.973 0.0
C2404 C 0.93072 0.23555 0.94182 0.0
C2405 C 0.91966 0.22082 0.95387 0.0
C2406 C 0.93914 0.25178 0.95173 0.0
C2407 C 0.93655 0.25321 0.97426 0.0
C2408 C 0.92639 0.23825 0.98681 0.0
C2409 C 0.91794 0.22222 0.97642 0.0
C2410 C 0.94978 0.26743 0.93773 0.0
C2411 C 0.92357 0.23921 0.01093 0.0
H2412 H 0.97823 0.3046 0.00761 0.0
H2413 H 0.92916 0.29867 0.98974 0.0
H2414 H 0.9648 0.26072 0.00298 0.0
H2415 H 0.97498 0.27164 0.97823 0.0
H2416 H 0.98356 0.28218 0.00418 0.0
H2417 H 0.90649 0.2738 0.97387 0.0
H2418 H 0.9144 0.26408 0.95556 0.0
H2419 H 0.9058 0.25442 0.9815 0.0
H2420 H 0.93195 0.23449 0.92435 0.0
H2421 H 0.90951 0.21078 0.98578 0.0
H2422 H 0.96253 0.27623 0.94565 0.0
H2423 H 0.94291 0.27449 0.93594 0.0
H2424 H 0.95203 0.26409 0.92115 0.0
H2425 H 0.93606 0.24806 0.01939 0.0
H2426 H 0.91749 0.22646 0.01892 0.0
H2427 H 0.91495 0.24435 0.01318 0.0
C2428 C 0.70235 0.63727 0.98079 0.0
C2429 C 0.69395 0.64573 0.9875 0.0
C2430 C 0.71953 0.64642 0.97351 0.0
C2431 C 0.72859 0.66452 0.97291 0.0
C2432 C 0.72043 0.67321 0.98029 0.0
C2433 C 0.70317 0.6637 0.98752 0.0
C2434 C 0.7278 0.63667 0.96585 0.0
C2435 C 0.72974 0.69251 0.97995 0.0
C2436 C 0.77731 0.68536 0.96699 0.0
C2437 C 0.77909 0.68721 0.94421 0.0
C2438 C 0.76106 0.67887 0.97678 0.0
C2439 C 0.74628 0.67412 0.96343 0.0
C2440 C 0.7482 0.67686 0.94055 0.0
C2441 C 0.76458 0.68337 0.93122 0.0
C2442 C 0.75954 0.67619 0.00123 0.0
C2443 C 0.73278 0.67206 0.92576 0.0
H2444 H 0.69539 0.6234 0.98083 0.0
H2445 H 0.69681 0.67036 0.99272 0.0
H2446 H 0.73085 0.63912 0.94819 0.0
H2447 H 0.74022 0.64114 0.97478 0.0
H2448 H 0.71925 0.62264 0.96829 0.0
H2449 H 0.72206 0.69734 0.98775 0.0
H2450 H 0.74247 0.69815 0.98854 0.0
H2451 H 0.73237 0.6971 0.96279 0.0
H2452 H 0.78847 0.68822 0.9771 0.0
H2453 H 0.76597 0.68508 0.91364 0.0
H2454 H 0.75265 0.66228 0.00483 0.0
H2455 H 0.75179 0.68119 0.00831 0.0
H2456 H 0.77245 0.68252 0.00954 0.0
H2457 H 0.72399 0.65794 0.92553 0.0
H2458 H 0.73671 0.67652 0.90869 0.0
H2459 H 0.72525 0.67757 0.93204 0.0
C2460 C 0.95617 0.65723 0.01833 0.0
C2461 C 0.96724 0.65543 0.00419 0.0
C2462 C 0.94452 0.66184 0.01028 0.0
C2463 C 0.94423 0.66509 0.98764 0.0
C2464 C 0.95525 0.66311 0.97328 0.0
C2465 C 0.96647 0.65813 0.98169 0.0
C2466 C 0.93267 0.66343 0.02601 0.0
C2467 C 0.95554 0.66671 0.94908 0.0
C2468 C 0.906 0.66461 0.96027 0.0
C2469 C 0.91191 0.68216 0.95905 0.0
C2470 C 0.91609 0.65885 0.97031 0.0
C2471 C 0.9327 0.6709 0.97888 0.0
C2472 C 0.93871 0.68859 0.97796 0.0
C2473 C 0.92817 0.69399 0.96829 0.0
C2474 C 0.90912 0.63986 0.97126 0.0
C2475 C 0.95647 0.70186 0.98666 0.0
H2476 H 0.95667 0.6551 0.03572 0.0
H2477 H 0.97508 0.65691 0.97065 0.0
H2478 H 0.93582 0.67687 0.02643 0.0
H2479 H 0.91897 0.65538 0.02039 0.0
H2480 H 0.9338 0.65955 0.0429 0.0
H2481 H 0.96482 0.66449 0.94011 0.0
H2482 H 0.9424 0.65847 0.94178 0.0
H2483 H 0.95923 0.6802 0.94656 0.0
H2484 H 0.89364 0.65532 0.95288 0.0
H2485 H 0.93277 0.70753 0.96788 0.0
H2486 H 0.9101 0.63602 0.98821 0.0
H2487 H 0.91702 0.63673 0.96074 0.0
H2488 H 0.89535 0.63211 0.96569 0.0
H2489 H 0.95775 0.69936 0.00415 0.0
H2490 H 0.95908 0.71509 0.98511 0.0
H2491 H 0.9666 0.70105 0.97761 0.0
C2492 C 0.34861 0.30226 0.01538 0.0
C2493 C 0.34628 0.31376 0.00278 0.0
C2494 C 0.34592 0.28699 0.00626 0.0
C2495 C 0.34064 0.28308 0.98406 0.0
C2496 C 0.33823 0.29462 0.97127 0.0
C2497 C 0.34115 0.30984 0.98075 0.0
C2498 C 0.34877 0.27505 0.02034 0.0
C2499 C 0.33249 0.29085 0.94759 0.0
C2500 C 0.34826 0.2517 0.95319 0.0
C2501 C 0.33178 0.23667 0.9537 0.0
C2502 C 0.3514 0.26679 0.96334 0.0
C2503 C 0.33769 0.26695 0.97409 0.0
C2504 C 0.32104 0.25184 0.97475 0.0
C2505 C 0.3183 0.23688 0.96464 0.0
C2506 C 0.36935 0.28263 0.96232 0.0
C2507 C 0.30606 0.25153 0.98596 0.0
H2508 H 0.3526 0.3052 0.03239 0.0
H2509 H 0.33925 0.31861 0.97089 0.0
H2510 H 0.33661 0.26233 0.02116 0.0
H2511 H 0.35878 0.27312 0.01293 0.0
H2512 H 0.35298 0.28 0.03726 0.0
H2513 H 0.33107 0.30109 0.93995 0.0
H2514 H 0.34204 0.28941 0.93808 0.0
H2515 H 0.31986 0.27857 0.9463 0.0
H2516 H 0.35869 0.25178 0.9445 0.0
H2517 H 0.3056 0.22528 0.96543 0.0
H2518 H 0.37424 0.28753 0.97908 0.0
H2519 H 0.36882 0.29288 0.95326 0.0
H2520 H 0.37878 0.28019 0.95413 0.0
H2521 H 0.30942 0.25531 0.00338 0.0
H2522 H 0.29396 0.23871 0.98522 0.0
H2523 H 0.30348 0.26097 0.97818 0.0
C2524 C 0.70828 0.05544 0.9793 0.0
C2525 C 0.69887 0.03883 0.98793 0.0
C2526 C 0.72531 0.06237 0.97197 0.0
C2527 C 0.73324 0.05254 0.97347 0.0
C2528 C 0.72395 0.03585 0.98242 0.0
C2529 C 0.70681 0.02914 0.98947 0.0
C2530 C 0.73475 0.08021 0.96242 0.0
C2531 C 0.73208 0.02509 0.98445 0.0
C2532 C 0.77106 0.06814 0.93486 0.0
C2533 C 0.78495 0.07967 0.94832 0.0
C2534 C 0.7542 0.05829 0.94319 0.0
C2535 C 0.75127 0.05996 0.96552 0.0
C2536 C 0.7655 0.07061 0.9795 0.0
C2537 C 0.78217 0.08043 0.97069 0.0
C2538 C 0.73938 0.04714 0.92772 0.0
C2539 C 0.76295 0.07256 0.00345 0.0
H2540 H 0.70227 0.06301 0.97796 0.0
H2541 H 0.69964 0.01631 0.99615 0.0
H2542 H 0.74678 0.08859 0.97201 0.0
H2543 H 0.73866 0.07983 0.94539 0.0
H2544 H 0.72667 0.08611 0.96228 0.0
H2545 H 0.72325 0.0125 0.99221 0.0
H2546 H 0.73563 0.02286 0.96803 0.0
H2547 H 0.74424 0.03198 0.99432 0.0
H2548 H 0.77317 0.06763 0.91752 0.0
H2549 H 0.79296 0.08923 0.98114 0.0
H2550 H 0.73148 0.05305 0.92481 0.0
H2551 H 0.73072 0.03433 0.93496 0.0
H2552 H 0.74402 0.04551 0.91169 0.0
H2553 H 0.75651 0.08001 0.00514 0.0
H2554 H 0.77547 0.0793 0.01266 0.0
H2555 H 0.75439 0.05986 0.01106 0.0
C2556 C 0.62535 0.93905 0.04739 0.0
C2557 C 0.63673 0.95169 0.03274 0.0
C2558 C 0.62868 0.92662 0.0554 0.0
C2559 C 0.64375 0.92686 0.0486 0.0
C2560 C 0.65495 0.93922 0.03323 0.0
C2561 C 0.65129 0.95146 0.02547 0.0
C2562 C 0.61639 0.91359 0.0717 0.0
C2563 C 0.67113 0.93989 0.02556 0.0
C2564 C 0.66358 0.90859 0.08666 0.0
C2565 C 0.65813 0.89271 0.07689 0.0
C2566 C 0.65886 0.91974 0.0777 0.0
C2567 C 0.64839 0.91489 0.05852 0.0
C2568 C 0.6427 0.89882 0.04866 0.0
C2569 C 0.64766 0.88792 0.05796 0.0
C2570 C 0.66516 0.93676 0.08873 0.0
C2571 C 0.63155 0.89322 0.02818 0.0
H2572 H 0.61404 0.93909 0.05306 0.0
H2573 H 0.66014 0.96113 0.01409 0.0
H2574 H 0.61224 0.90046 0.06616 0.0
H2575 H 0.62314 0.91565 0.08771 0.0
H2576 H 0.60465 0.91437 0.07416 0.0
H2577 H 0.67791 0.94961 0.01256 0.0
H2578 H 0.68025 0.94302 0.03957 0.0
H2579 H 0.66784 0.9272 0.01919 0.0
H2580 H 0.67142 0.91226 0.1015 0.0
H2581 H 0.64354 0.87574 0.05021 0.0
H2582 H 0.65392 0.93785 0.09333 0.0
H2583 H 0.67313 0.94735 0.0772 0.0
H2584 H 0.67307 0.93853 0.10367 0.0
H2585 H 0.61956 0.89347 0.03096 0.0
H2586 H 0.62781 0.88013 0.02289 0.0
H2587 H 0.63863 0.90228 0.01467 0.0
C2588 C 0.06542 0.71142 0.03673 0.0
C2589 C 0.04875 0.70145 0.02747 0.0
C2590 C 0.07124 0.72778 0.04515 0.0
C2591 C 0.06021 0.73446 0.04409 0.0
C2592 C 0.04355 0.7247 0.03421 0.0
C2593 C 0.03798 0.70826 0.02612 0.0
C2594 C 0.08907 0.73776 0.05566 0.0
C2595 C 0.03154 0.73151 0.03252 0.0
C2596 C 0.0711 0.76914 0.08607 0.0
C2597 C 0.08209 0.78395 0.07409 0.0
C2598 C 0.06316 0.75292 0.07621 0.0
C2599 C 0.06615 0.75155 0.05381 0.0
C2600 C 0.07632 0.76656 0.04133 0.0
C2601 C 0.08428 0.78259 0.05167 0.0
C2602 C 0.0525 0.73721 0.09011 0.0
C2603 C 0.07957 0.76566 0.01733 0.0
H2604 H 0.07383 0.70628 0.03792 0.0
H2605 H 0.02509 0.70066 0.01895 0.0
H2606 H 0.09701 0.75028 0.04736 0.0
H2607 H 0.08793 0.74044 0.07305 0.0
H2608 H 0.0961 0.7308 0.05501 0.0
H2609 H 0.01938 0.7227 0.02335 0.0
H2610 H 0.02808 0.73348 0.04914 0.0
H2611 H 0.03818 0.74414 0.02424 0.0
H2612 H 0.06952 0.77018 0.10345 0.0
H2613 H 0.09266 0.79408 0.04237 0.0
H2614 H 0.05944 0.73023 0.09205 0.0
H2615 H 0.03984 0.72837 0.08203 0.0
H2616 H 0.05006 0.74047 0.10664 0.0
H2617 H 0.08811 0.76039 0.01545 0.0
H2618 H 0.0859 0.77843 0.0094 0.0
H2619 H 0.0672 0.75693 0.00856 0.0
C2620 C 0.29593 0.33907 0.05359 0.0
C2621 C 0.3001 0.35119 0.03704 0.0
C2622 C 0.27972 0.33131 0.06389 0.0
C2623 C 0.26728 0.33537 0.05682 0.0
C2624 C 0.27109 0.34672 0.03903 0.0
C2625 C 0.28763 0.35481 0.02967 0.0
C2626 C 0.27643 0.31977 0.08328 0.0
C2627 C 0.25797 0.35091 0.03048 0.0
C2628 C 0.22069 0.30824 0.0765 0.0
C2629 C 0.22008 0.31896 0.09241 0.0
C2630 C 0.23592 0.31338 0.06469 0.0
C2631 C 0.25111 0.32932 0.06947 0.0
C2632 C 0.2508 0.33994 0.08595 0.0
C2633 C 0.23525 0.33484 0.0968 0.0
C2634 C 0.23563 0.30195 0.04676 0.0
C2635 C 0.26685 0.35687 0.09195 0.0
H2636 H 0.30573 0.33647 0.05939 0.0
H2637 H 0.29092 0.36416 0.01678 0.0
H2638 H 0.27596 0.32621 0.09838 0.0
H2639 H 0.26369 0.30767 0.08155 0.0
H2640 H 0.28671 0.31664 0.08541 0.0
H2641 H 0.26199 0.35792 0.01469 0.0
H2642 H 0.2451 0.33902 0.02816 0.0
H2643 H 0.25637 0.35897 0.04256 0.0
H2644 H 0.20927 0.29582 0.07313 0.0
H2645 H 0.23503 0.34357 0.10848 0.0
H2646 H 0.24557 0.29855 0.05009 0.0
H2647 H 0.23895 0.30888 0.03092 0.0
H2648 H 0.22275 0.28995 0.04501 0.0
H2649 H 0.27793 0.35512 0.09531 0.0
H2650 H 0.26487 0.36281 0.10656 0.0
H2651 H 0.27053 0.36592 0.07806 0.0
C2652 C 0.70681 0.68735 0.37404 0.0
C2653 C 0.68937 0.67525 0.37852 0.0
C2654 C 0.72018 0.68497 0.38162 0.0
C2655 C 0.71595 0.6701 0.39377 0.0
C2656 C 0.69835 0.65771 0.39793 0.0
C2657 C 0.6853 0.66047 0.39034 0.0
C2658 C 0.73882 0.69851 0.377 0.0
C2659 C 0.6933 0.64162 0.41068 0.0
C2660 C 0.7484 0.65574 0.40031 0.0
C2661 C 0.75469 0.66125 0.42167 0.0
C2662 C 0.73604 0.65883 0.39081 0.0
C2663 C 0.72989 0.66771 0.40293 0.0
C2664 C 0.73642 0.67358 0.42433 0.0
C2665 C 0.74865 0.6702 0.43347 0.0
C2666 C 0.72932 0.65231 0.36798 0.0
C2667 C 0.73019 0.68309 0.43778 0.0
H2668 H 0.71005 0.6988 0.36492 0.0
H2669 H 0.67185 0.65098 0.39373 0.0
H2670 H 0.74592 0.70405 0.39263 0.0
H2671 H 0.74537 0.69273 0.36861 0.0
H2672 H 0.7399 0.70904 0.36667 0.0
H2673 H 0.67899 0.63293 0.41175 0.0
H2674 H 0.69879 0.63457 0.40289 0.0
H2675 H 0.69878 0.645 0.42753 0.0
H2676 H 0.75316 0.64902 0.39098 0.0
H2677 H 0.75319 0.67426 0.45011 0.0
H2678 H 0.73122 0.66299 0.35734 0.0
H2679 H 0.71516 0.64282 0.36844 0.0
H2680 H 0.73587 0.64618 0.36044 0.0
H2681 H 0.73182 0.69429 0.42855 0.0
H2682 H 0.73728 0.68765 0.45366 0.0
H2683 H 0.71613 0.6746 0.44114 0.0
C2684 C 0.31369 0.02317 0.37083 0.0
C2685 C 0.32607 0.02462 0.35588 0.0
C2686 C 0.3155 0.03769 0.38114 0.0
C2687 C 0.33009 0.05406 0.37652 0.0
C2688 C 0.34251 0.05564 0.36125 0.0
C2689 C 0.34032 0.04091 0.35105 0.0
C2690 C 0.3019 0.03551 0.3972 0.0
C2691 C 0.3583 0.07285 0.35598 0.0
C2692 C 0.32834 0.09362 0.38999 0.0
C2693 C 0.33738 0.09878 0.41006 0.0
C2694 C 0.32581 0.07907 0.37893 0.0
C2695 C 0.33258 0.06949 0.38807 0.0
C2696 C 0.34176 0.07463 0.40827 0.0
C2697 C 0.34399 0.08916 0.41904 0.0
C2698 C 0.31592 0.07397 0.35745 0.0
C2699 C 0.34921 0.06476 0.41853 0.0
H2700 H 0.30261 0.01065 0.37461 0.0
H2701 H 0.34998 0.04216 0.33957 0.0
H2702 H 0.30789 0.03992 0.41367 0.0
H2703 H 0.29653 0.04352 0.39223 0.0
H2704 H 0.29103 0.02199 0.39844 0.0
H2705 H 0.36654 0.07195 0.34335 0.0
H2706 H 0.35426 0.08174 0.35005 0.0
H2707 H 0.36627 0.07858 0.37102 0.0
H2708 H 0.32339 0.1011 0.38276 0.0
H2709 H 0.35075 0.09287 0.4347 0.0
H2710 H 0.30454 0.06072 0.35855 0.0
H2711 H 0.32431 0.07406 0.34427 0.0
H2712 H 0.31128 0.08265 0.3527 0.0
H2713 H 0.33864 0.05139 0.42174 0.0
H2714 H 0.3562 0.07058 0.43417 0.0
H2715 H 0.35834 0.0642 0.40708 0.0
C2716 C 0.96933 0.28625 0.39425 0.0
C2717 C 0.97826 0.30284 0.38553 0.0
C2718 C 0.95196 0.27848 0.40055 0.0
C2719 C 0.94322 0.28749 0.39802 0.0
C2720 C 0.9521 0.30425 0.38928 0.0
C2721 C 0.96956 0.31176 0.38316 0.0
C2722 C 0.94296 0.26058 0.40988 0.0
C2723 C 0.94314 0.31418 0.3863 0.0
C2724 C 0.89446 0.25756 0.39651 0.0
C2725 C 0.89027 0.25761 0.41852 0.0
C2726 C 0.91151 0.26819 0.38921 0.0
C2727 C 0.92469 0.27903 0.40434 0.0
C2728 C 0.9203 0.27998 0.42625 0.0
C2729 C 0.9031 0.26926 0.43308 0.0
C2730 C 0.91562 0.26693 0.36567 0.0
C2731 C 0.93398 0.29137 0.44288 0.0
H2732 H 0.97593 0.27926 0.39622 0.0
H2733 H 0.97636 0.3246 0.37643 0.0
H2734 H 0.93802 0.26049 0.42645 0.0
H2735 H 0.9316 0.25182 0.39945 0.0
H2736 H 0.95169 0.25544 0.41107 0.0
H2737 H 0.95192 0.32717 0.37949 0.0
H2738 H 0.93178 0.30713 0.37512 0.0
H2739 H 0.93816 0.31549 0.40222 0.0
H2740 H 0.88448 0.24871 0.38517 0.0
H2741 H 0.89993 0.26925 0.45014 0.0
H2742 H 0.92297 0.2603 0.3649 0.0
H2743 H 0.92394 0.27987 0.35856 0.0
H2744 H 0.90369 0.2597 0.35541 0.0
H2745 H 0.94228 0.28606 0.44685 0.0
H2746 H 0.92817 0.2924 0.45829 0.0
H2747 H 0.94253 0.3044 0.43615 0.0
C2748 C 0.023 0.38824 0.33682 0.0
C2749 C 0.03766 0.38771 0.33075 0.0
C2750 C 0.01947 0.40015 0.32745 0.0
C2751 C 0.03089 0.41185 0.31165 0.0
C2752 C 0.04596 0.4117 0.30588 0.0
C2753 C 0.04915 0.39963 0.31548 0.0
C2754 C 0.00327 0.39991 0.33404 0.0
C2755 C 0.05848 0.42403 0.28917 0.0
C2756 C 0.01228 0.42976 0.27099 0.0
C2757 C 0.01798 0.44599 0.27983 0.0
C2758 C 0.01648 0.41858 0.28112 0.0
C2759 C 0.02668 0.42376 0.30055 0.0
C2760 C 0.0326 0.44017 0.30948 0.0
C2761 C 0.02817 0.45109 0.29903 0.0
C2762 C 0.00995 0.4012 0.27106 0.0
C2763 C 0.04349 0.44614 0.33018 0.0
H2764 H 0.01404 0.37912 0.34862 0.0
H2765 H 0.06053 0.39935 0.31072 0.0
H2766 H 0.00667 0.41278 0.33975 0.0
H2767 H 0.99446 0.39662 0.31966 0.0
H2768 H 0.99613 0.3905 0.34724 0.0
H2769 H 0.07001 0.42282 0.28726 0.0
H2770 H 0.05181 0.42166 0.27304 0.0
H2771 H 0.06296 0.4374 0.29394 0.0
H2772 H 0.00464 0.42584 0.25598 0.0
H2773 H 0.03246 0.46353 0.30609 0.0
H2774 H 0.0017 0.39101 0.28292 0.0
H2775 H 0.02106 0.3997 0.26719 0.0
H2776 H 0.00225 0.39916 0.25583 0.0
H2777 H 0.03611 0.4375 0.34392 0.0
H2778 H 0.0474 0.45942 0.33473 0.0
H2779 H 0.05538 0.44558 0.32814 0.0
C2780 C 0.59985 0.62971 0.3181 0.0
C2781 C 0.61643 0.63877 0.32781 0.0
C2782 C 0.59297 0.61302 0.31016 0.0
C2783 C 0.60283 0.60511 0.31213 0.0
C2784 C 0.61941 0.61399 0.32238 0.0
C2785 C 0.62605 0.63076 0.33003 0.0
C2786 C 0.57526 0.60399 0.29925 0.0
C2787 C 0.6302 0.60588 0.32498 0.0
C2788 C 0.57606 0.55684 0.30589 0.0
C2789 C 0.57835 0.55484 0.28368 0.0
C2790 C 0.58472 0.57308 0.31573 0.0
C2791 C 0.59579 0.58765 0.30298 0.0
C2792 C 0.59881 0.58561 0.28083 0.0
C2793 C 0.59008 0.56919 0.27145 0.0
C2794 C 0.58136 0.57471 0.33948 0.0
C2795 C 0.61045 0.60084 0.26666 0.0
H2796 H 0.59233 0.63578 0.31626 0.0
H2797 H 0.63885 0.63764 0.33759 0.0
H2798 H 0.57635 0.60084 0.28206 0.0
H2799 H 0.56649 0.59175 0.30774 0.0
H2800 H 0.56918 0.61187 0.29924 0.0
H2801 H 0.64246 0.61418 0.33426 0.0
H2802 H 0.62267 0.59344 0.33359 0.0
H2803 H 0.63349 0.6032 0.30863 0.0
H2804 H 0.56714 0.54572 0.31543 0.0
H2805 H 0.59176 0.5677 0.25423 0.0
H2806 H 0.57378 0.58107 0.34064 0.0
H2807 H 0.59379 0.58283 0.34846 0.0
H2808 H 0.57401 0.56207 0.34771 0.0
H2809 H 0.60446 0.60866 0.26411 0.0
H2810 H 0.61267 0.59697 0.25041 0.0
H2811 H 0.6232 0.60913 0.27488 0.0
C2812 C 0.36878 0.97349 0.30774 0.0
C2813 C 0.3619 0.98209 0.31856 0.0
C2814 C 0.38612 0.98212 0.30114 0.0
C2815 C 0.397 0.99983 0.30556 0.0
C2816 C 0.39021 0.00866 0.31649 0.0
C2817 C 0.37269 0.99968 0.32282 0.0
C2818 C 0.3928 0.97223 0.2894 0.0
C2819 C 0.40148 0.02752 0.32157 0.0
C2820 C 0.44438 0.01343 0.30401 0.0
C2821 C 0.44855 0.01901 0.28231 0.0
C2822 C 0.428 0.00841 0.31242 0.0
C2823 C 0.41546 0.00881 0.29871 0.0
C2824 C 0.42002 0.01551 0.27725 0.0
C2825 C 0.43655 0.02058 0.26932 0.0
C2826 C 0.42374 0.00155 0.33547 0.0
C2827 C 0.40701 0.01608 0.26207 0.0
H2828 H 0.36057 0.95993 0.30426 0.0
H2829 H 0.36749 0.00642 0.33118 0.0
H2830 H 0.39793 0.97805 0.27317 0.0
H2831 H 0.40366 0.97284 0.2989 0.0
H2832 H 0.38257 0.95856 0.28694 0.0
H2833 H 0.39421 0.03254 0.33004 0.0
H2834 H 0.41264 0.02989 0.33208 0.0
H2835 H 0.4069 0.03485 0.30623 0.0
H2836 H 0.45374 0.01243 0.31418 0.0
H2837 H 0.43969 0.02479 0.25249 0.0
H2838 H 0.41477 0.98745 0.33493 0.0
H2839 H 0.41704 0.00702 0.34424 0.0
H2840 H 0.43553 0.00442 0.34497 0.0
H2841 H 0.39709 0.00287 0.25689 0.0
H2842 H 0.41323 0.02381 0.24719 0.0
H2843 H 0.40014 0.02149 0.27057 0.0
C2844 C 0.636 0.98497 0.30975 0.0
C2845 C 0.6364 0.98283 0.33247 0.0
C2846 C 0.62428 0.98884 0.30013 0.0
C2847 C 0.61246 0.99039 0.31348 0.0
C2848 C 0.61247 0.98781 0.33636 0.0
C2849 C 0.62453 0.98418 0.34561 0.0
C2850 C 0.6248 0.99167 0.2757 0.0
C2851 C 0.59988 0.98909 0.35108 0.0
C2852 C 0.59419 0.01674 0.29134 0.0
C2853 C 0.57804 0.00403 0.28273 0.0
C2854 C 0.60544 0.01247 0.30154 0.0
C2855 C 0.60036 0.99505 0.30348 0.0
C2856 C 0.58398 0.98214 0.2952 0.0
C2857 C 0.57309 0.98678 0.28479 0.0
C2858 C 0.62288 0.02662 0.31001 0.0
C2859 C 0.57804 0.96341 0.29709 0.0
H2860 H 0.64517 0.98403 0.29947 0.0
H2861 H 0.6247 0.98248 0.36316 0.0
H2862 H 0.61189 0.98275 0.26823 0.0
H2863 H 0.62788 0.00487 0.27228 0.0
H2864 H 0.63462 0.98977 0.26758 0.0
H2865 H 0.60106 0.98602 0.36838 0.0
H2866 H 0.6022 0.00223 0.35039 0.0
H2867 H 0.58635 0.98021 0.34532 0.0
H2868 H 0.59803 0.03007 0.29021 0.0
H2869 H 0.5608 0.97686 0.2779 0.0
H2870 H 0.63343 0.02606 0.30169 0.0
H2871 H 0.62415 0.0249 0.32777 0.0
H2872 H 0.62483 0.03951 0.30736 0.0
H2873 H 0.5868 0.96075 0.28766 0.0
H2874 H 0.56455 0.95492 0.29091 0.0
H2875 H 0.57873 0.96012 0.31442 0.0
C2876 C 0.02225 0.64006 0.34609 0.0
C2877 C 0.01772 0.65041 0.3344 0.0
C2878 C 0.02072 0.62541 0.33647 0.0
C2879 C 0.01442 0.62097 0.31469 0.0
C2880 C 0.00985 0.63137 0.3028 0.0
C2881 C 0.01159 0.64597 0.31277 0.0
C2882 C 0.02581 0.61467 0.34962 0.0
C2883 C 0.00301 0.62703 0.27957 0.0
C2884 C 0.02386 0.59184 0.28138 0.0
C2885 C 0.0081 0.57609 0.28276 0.0
C2886 C 0.02621 0.60647 0.29204 0.0
C2887 C 0.01245 0.60537 0.30429 0.0
C2888 C 0.99659 0.58948 0.30596 0.0
C2889 C 0.99462 0.57504 0.29524 0.0
C2890 C 0.04333 0.62318 0.28988 0.0
C2891 C 0.9816 0.58779 0.31885 0.0
H2892 H 0.02704 0.6434 0.36279 0.0
H2893 H 0.00803 0.65386 0.30359 0.0
H2894 H 0.01448 0.60144 0.35121 0.0
H2895 H 0.03608 0.61381 0.34099 0.0
H2896 H 0.03067 0.61996 0.36627 0.0
H2897 H 9e-05 0.63648 0.27255 0.0
H2898 H 0.01265 0.62652 0.26903 0.0
H2899 H 0.99097 0.61417 0.27902 0.0
H2900 H 0.03426 0.59284 0.27156 0.0
H2901 H 0.98251 0.56287 0.29669 0.0
H2902 H 0.04883 0.62845 0.30632 0.0
H2903 H 0.04127 0.63271 0.28136 0.0
H2904 H 0.05299 0.62172 0.28061 0.0
H2905 H 0.98575 0.59197 0.33601 0.0
H2906 H 0.97027 0.57446 0.31894 0.0
H2907 H 0.97742 0.59627 0.31177 0.0
C2908 C 0.36948 0.38607 0.30793 0.0
C2909 C 0.35998 0.36953 0.31674 0.0
C2910 C 0.38656 0.39293 0.30087 0.0
C2911 C 0.39442 0.38304 0.3027 0.0
C2912 C 0.38502 0.36639 0.31175 0.0
C2913 C 0.36787 0.35981 0.31866 0.0
C2914 C 0.39615 0.41076 0.2913 0.0
C2915 C 0.39303 0.35554 0.31401 0.0
C2916 C 0.4325 0.39902 0.26453 0.0
C2917 C 0.44624 0.4106 0.27813 0.0
C2918 C 0.41563 0.38889 0.27272 0.0
C2919 C 0.41251 0.3904 0.29502 0.0
C2920 C 0.42662 0.40101 0.30918 0.0
C2921 C 0.44332 0.41104 0.30054 0.0
C2922 C 0.40095 0.3777 0.25709 0.0
C2923 C 0.42388 0.40283 0.33311 0.0
H2924 H 0.36352 0.39368 0.30636 0.0
H2925 H 0.36063 0.34701 0.32544 0.0
H2926 H 0.40815 0.41908 0.30099 0.0
H2927 H 0.40013 0.41034 0.27432 0.0
H2928 H 0.38815 0.41674 0.29101 0.0
H2929 H 0.38407 0.34294 0.32166 0.0
H2930 H 0.39675 0.35333 0.29768 0.0
H2931 H 0.40509 0.36235 0.32409 0.0
H2932 H 0.43469 0.39872 0.24717 0.0
H2933 H 0.454 0.41984 0.31113 0.0
H2934 H 0.39315 0.38366 0.25378 0.0
H2935 H 0.39216 0.36493 0.26438 0.0
H2936 H 0.40576 0.37596 0.24126 0.0
H2937 H 0.41751 0.41036 0.33473 0.0
H2938 H 0.43633 0.40946 0.34249 0.0
H2939 H 0.41519 0.39011 0.34057 0.0
C2940 C 0.30646 0.28122 0.36873 0.0
C2941 C 0.31782 0.29144 0.35215 0.0
C2942 C 0.30847 0.26871 0.37931 0.0
C2943 C 0.32231 0.26653 0.37334 0.0
C2944 C 0.33361 0.27659 0.35635 0.0
C2945 C 0.33117 0.28885 0.34586 0.0
C2946 C 0.29601 0.25806 0.39716 0.0
C2947 C 0.34862 0.27475 0.34968 0.0
C2948 C 0.33913 0.24804 0.41566 0.0
C2949 C 0.33191 0.23116 0.4082 0.0
C2950 C 0.33611 0.25966 0.40446 0.0
C2951 C 0.3254 0.25423 0.38548 0.0
C2952 C 0.31786 0.23717 0.37799 0.0
C2953 C 0.32129 0.22587 0.38936 0.0
C2954 C 0.34445 0.27779 0.4129 0.0
C2955 C 0.30627 0.23089 0.3579 0.0
H2956 H 0.29606 0.28309 0.3736 0.0
H2957 H 0.34005 0.29674 0.33313 0.0
H2958 H 0.29023 0.24424 0.39364 0.0
H2959 H 0.30311 0.26079 0.413 0.0
H2960 H 0.28536 0.26065 0.39897 0.0
H2961 H 0.35587 0.28314 0.33566 0.0
H2962 H 0.35776 0.27805 0.36371 0.0
H2963 H 0.34386 0.26129 0.34511 0.0
H2964 H 0.34709 0.25217 0.43041 0.0
H2965 H 0.31583 0.21293 0.38328 0.0
H2966 H 0.3343 0.2807 0.41683 0.0
H2967 H 0.35275 0.28694 0.40006 0.0
H2968 H 0.35256 0.28001 0.42778 0.0
H2969 H 0.29529 0.23294 0.35985 0.0
H2970 H 0.30095 0.21708 0.35464 0.0
H2971 H 0.31366 0.23833 0.34338 0.0
C2972 C 0.73659 0.03854 0.37118 0.0
C2973 C 0.72003 0.02929 0.36142 0.0
C2974 C 0.74334 0.05527 0.37883 0.0
C2975 C 0.73337 0.06306 0.37649 0.0
C2976 C 0.71687 0.05402 0.36609 0.0
C2977 C 0.71035 0.03719 0.35875 0.0
C2978 C 0.76097 0.06447 0.38994 0.0
C2979 C 0.70598 0.062 0.36309 0.0
C2980 C 0.74531 0.09876 0.41718 0.0
C2981 C 0.75714 0.1132 0.40516 0.0
C2982 C 0.73682 0.08239 0.40772 0.0
C2983 C 0.74015 0.08046 0.38565 0.0
C2984 C 0.75132 0.09512 0.37308 0.0
C2985 C 0.75977 0.11132 0.38303 0.0
C2986 C 0.7251 0.06707 0.42171 0.0
C2987 C 0.75499 0.09361 0.34942 0.0
H2988 H 0.74417 0.03256 0.37335 0.0
H2989 H 0.69756 0.03016 0.35118 0.0
H2990 H 0.76971 0.07675 0.3815 0.0
H2991 H 0.7597 0.06757 0.40708 0.0
H2992 H 0.7672 0.05673 0.3901 0.0
H2993 H 0.69389 0.05366 0.35351 0.0
H2994 H 0.70237 0.06452 0.3793 0.0
H2995 H 0.71356 0.07449 0.35462 0.0
H2996 H 0.74338 0.10016 0.43435 0.0
H2997 H 0.76878 0.12251 0.37365 0.0
H2998 H 0.73116 0.05932 0.42441 0.0
H2999 H 0.71245 0.05875 0.41329 0.0
H3000 H 0.72267 0.07083 0.43791 0.0
H3001 H 0.76274 0.08742 0.34847 0.0
H3002 H 0.76231 0.10629 0.34127 0.0
H3003 H 0.74269 0.08541 0.34023 0.0
C3004 C 0.95582 0.69139 0.37409 0.0
C3005 C 0.96471 0.68331 0.36781 0.0
C3006 C 0.93898 0.682 0.38238 0.0
C3007 C 0.93069 0.66401 0.38442 0.0
C3008 C 0.93921 0.65562 0.37719 0.0
C3009 C 0.95618 0.66539 0.36898 0.0
C3010 C 0.93035 0.69148 0.38983 0.0
C3011 C 0.9307 0.63645 0.37891 0.0
C3012 C 0.8983 0.6487 0.43017 0.0
C3013 C 0.88307 0.64476 0.41879 0.0
C3014 C 0.91365 0.65357 0.41899 0.0
C3015 C 0.91376 0.65449 0.39585 0.0
C3016 C 0.89803 0.64899 0.38422 0.0
C3017 C 0.88282 0.64419 0.39586 0.0
C3018 C 0.93008 0.65918 0.43206 0.0
C3019 C 0.89755 0.64955 0.35955 0.0
H3020 H 0.96219 0.70519 0.37304 0.0
H3021 H 0.96292 0.65904 0.36408 0.0
H3022 H 0.91742 0.68604 0.38186 0.0
H3023 H 0.9283 0.68996 0.40777 0.0
H3024 H 0.93821 0.70538 0.38607 0.0
H3025 H 0.9379 0.63167 0.36976 0.0
H3026 H 0.93017 0.63281 0.39636 0.0
H3027 H 0.91714 0.62992 0.37262 0.0
H3028 H 0.89841 0.6488 0.44792 0.0
H3029 H 0.87105 0.64111 0.38701 0.0
H3030 H 0.93866 0.67332 0.43111 0.0
H3031 H 0.9373 0.65353 0.42522 0.0
H3032 H 0.92739 0.65552 0.44958 0.0
H3033 H 0.90322 0.663 0.35414 0.0
H3034 H 0.88408 0.64188 0.35296 0.0
H3035 H 0.90543 0.64473 0.35237 0.0
C3036 C 0.38982 0.04618 0.70937 0.0
C3037 C 0.37321 0.03236 0.70401 0.0
C3038 C 0.40269 0.04344 0.71794 0.0
C3039 C 0.39878 0.02649 0.7214 0.0
C3040 C 0.38218 0.0125 0.71553 0.0
C3041 C 0.36964 0.0156 0.70684 0.0
C3042 C 0.42032 0.05866 0.7238 0.0
C3043 C 0.37747 0.99423 0.71907 0.0
C3044 C 0.43438 0.01651 0.72993 0.0
C3045 C 0.43447 0.01494 0.75277 0.0
C3046 C 0.42316 0.02074 0.71949 0.0
C3047 C 0.41167 0.02327 0.73219 0.0
C3048 C 0.41187 0.02189 0.75527 0.0
C3049 C 0.4233 0.0178 0.76527 0.0
C3050 C 0.42344 0.02226 0.69487 0.0
C3051 C 0.39968 0.02431 0.76938 0.0
H3052 H 0.39272 0.05916 0.70715 0.0
H3053 H 0.35685 0.00482 0.70274 0.0
H3054 H 0.42248 0.05902 0.74176 0.0
H3055 H 0.43068 0.05751 0.71595 0.0
H3056 H 0.42169 0.07097 0.71872 0.0
H3057 H 0.36422 0.9848 0.71285 0.0
H3058 H 0.38692 0.99192 0.71077 0.0
H3059 H 0.3781 0.99191 0.7368 0.0
H3060 H 0.44313 0.01448 0.72024 0.0
H3061 H 0.42319 0.0164 0.78291 0.0
H3062 H 0.42548 0.03487 0.69005 0.0
H3063 H 0.41072 0.01229 0.68789 0.0
H3064 H 0.43379 0.02082 0.68747 0.0
H3065 H 0.4013 0.03699 0.76616 0.0
H3066 H 0.40188 0.02336 0.78713 0.0
H3067 H 0.38603 0.01444 0.76521 0.0
C3068 C 0.0043 0.37352 0.68623 0.0
C3069 C 0.99099 0.35683 0.69147 0.0
C3070 C 0.00539 0.38782 0.69627 0.0
C3071 C 0.99278 0.38539 0.71178 0.0
C3072 C 0.97903 0.36862 0.71669 0.0
C3073 C 0.97834 0.35454 0.70656 0.0
C3074 C 0.02031 0.4055 0.6907 0.0
C3075 C 0.96523 0.36552 0.73296 0.0
C3076 C 0.00562 0.42038 0.75415 0.0
C3077 C 0.99829 0.4294 0.7453 0.0
C3078 C 0.00386 0.40602 0.74344 0.0
C3079 C 0.99438 0.40039 0.72349 0.0
C3080 C 0.98671 0.40924 0.71462 0.0
C3081 C 0.98882 0.42368 0.72557 0.0
C3082 C 0.01227 0.39695 0.75343 0.0
C3083 C 0.97642 0.40357 0.69344 0.0
H3084 H 0.01414 0.37543 0.67463 0.0
H3085 H 0.96796 0.3417 0.71063 0.0
H3086 H 0.01532 0.41369 0.68508 0.0
H3087 H 0.02841 0.41161 0.70554 0.0
H3088 H 0.02871 0.40524 0.67775 0.0
H3089 H 0.95491 0.35178 0.73411 0.0
H3090 H 0.97122 0.37004 0.74941 0.0
H3091 H 0.95913 0.37295 0.72829 0.0
H3092 H 0.01268 0.42449 0.76957 0.0
H3093 H 0.98328 0.43067 0.71845 0.0
H3094 H 0.02169 0.39708 0.7418 0.0
H3095 H 0.00229 0.38335 0.7566 0.0
H3096 H 0.0192 0.40295 0.76904 0.0
H3097 H 0.98491 0.40442 0.6799 0.0
H3098 H 0.97075 0.41145 0.68914 0.0
H3099 H 0.96575 0.38998 0.69465 0.0
C3100 C 0.62825 0.61577 0.72336 0.0
C3101 C 0.63774 0.63221 0.71427 0.0
C3102 C 0.61089 0.60863 0.72936 0.0
C3103 C 0.60271 0.61811 0.7261 0.0
C3104 C 0.61212 0.63468 0.71683 0.0
C3105 C 0.62957 0.64158 0.71106 0.0
C3106 C 0.60132 0.59092 0.73929 0.0
C3107 C 0.60377 0.64509 0.71301 0.0
C3108 C 0.55377 0.58941 0.72514 0.0
C3109 C 0.54978 0.59023 0.74703 0.0
C3110 C 0.57085 0.59943 0.71762 0.0
C3111 C 0.58425 0.6104 0.73243 0.0
C3112 C 0.5801 0.61213 0.75416 0.0
C3113 C 0.56287 0.60204 0.7612 0.0
C3114 C 0.57471 0.59738 0.69425 0.0
C3115 C 0.59401 0.62364 0.77047 0.0
H3116 H 0.63444 0.60844 0.72597 0.0
H3117 H 0.6368 0.65429 0.70403 0.0
H3118 H 0.59652 0.5914 0.75574 0.0
H3119 H 0.58983 0.58223 0.72901 0.0
H3120 H 0.60963 0.58533 0.74092 0.0
H3121 H 0.61286 0.65777 0.70562 0.0
H3122 H 0.59229 0.63802 0.70202 0.0
H3123 H 0.59907 0.64714 0.72872 0.0
H3124 H 0.54361 0.58042 0.71409 0.0
H3125 H 0.55985 0.60261 0.77818 0.0
H3126 H 0.58155 0.59024 0.69397 0.0
H3127 H 0.58339 0.61006 0.68667 0.0
H3128 H 0.56269 0.59028 0.6841 0.0
H3129 H 0.60196 0.61802 0.77487 0.0
H3130 H 0.58845 0.62529 0.78571 0.0
H3131 H 0.60286 0.63642 0.76326 0.0
C3132 C 0.69189 0.72133 0.66545 0.0
C3133 C 0.68002 0.7108 0.68142 0.0
C3134 C 0.68988 0.73365 0.65432 0.0
C3135 C 0.67556 0.73537 0.65913 0.0
C3136 C 0.66375 0.72504 0.67556 0.0
C3137 C 0.66616 0.71294 0.68658 0.0
C3138 C 0.70287 0.74457 0.63708 0.0
C3139 C 0.64825 0.72641 0.68105 0.0
C3140 C 0.67643 0.77576 0.64192 0.0
C3141 C 0.66658 0.77047 0.62245 0.0
C3142 C 0.67959 0.76453 0.65394 0.0
C3143 C 0.67258 0.74754 0.64644 0.0
C3144 C 0.66259 0.7421 0.62685 0.0
C3145 C 0.65979 0.75364 0.61505 0.0
C3146 C 0.69037 0.77082 0.67471 0.0
C3147 C 0.65484 0.72406 0.61835 0.0
H3148 H 0.70267 0.7198 0.66142 0.0
H3149 H 0.65688 0.70483 0.69884 0.0
H3150 H 0.69633 0.74182 0.62084 0.0
H3151 H 0.70827 0.75833 0.64062 0.0
H3152 H 0.71378 0.74229 0.6361 0.0
H3153 H 0.64062 0.71788 0.69477 0.0
H3154 H 0.65254 0.73979 0.68552 0.0
H3155 H 0.63959 0.723 0.66648 0.0
H3156 H 0.68153 0.78865 0.64796 0.0
H3157 H 0.65241 0.74951 0.59985 0.0
H3158 H 0.70167 0.76916 0.67358 0.0
H3159 H 0.68254 0.76311 0.68883 0.0
H3160 H 0.69522 0.78452 0.67804 0.0
H3161 H 0.66531 0.72142 0.61522 0.0
H3162 H 0.64723 0.72178 0.60299 0.0
H3163 H 0.64621 0.71475 0.63084 0.0
C3164 C 0.2919 0.96329 0.66457 0.0
C3165 C 0.28233 0.97139 0.66305 0.0
C3166 C 0.28522 0.94672 0.65617 0.0
C3167 C 0.26868 0.93813 0.64582 0.0
C3168 C 0.25885 0.94612 0.64457 0.0
C3169 C 0.26575 0.96259 0.6533 0.0
C3170 C 0.29596 0.93849 0.65805 0.0
C3171 C 0.24118 0.93742 0.63358 0.0
C3172 C 0.25601 0.90325 0.60348 0.0
C3173 C 0.24416 0.88862 0.61516 0.0
C3174 C 0.26473 0.91943 0.61355 0.0
C3175 C 0.26162 0.92092 0.63586 0.0
C3176 C 0.25044 0.90603 0.64804 0.0
C3177 C 0.24175 0.89006 0.6375 0.0
C3178 C 0.27646 0.93501 0.59996 0.0
C3179 C 0.24699 0.90705 0.67194 0.0
H3180 H 0.3047 0.96997 0.67213 0.0
H3181 H 0.25826 0.96873 0.65198 0.0
H3182 H 0.28836 0.92583 0.66612 0.0
H3183 H 0.29929 0.93625 0.64149 0.0
H3184 H 0.30819 0.94652 0.66751 0.0
H3185 H 0.23515 0.94533 0.63414 0.0
H3186 H 0.24231 0.93471 0.6162 0.0
H3187 H 0.23234 0.92498 0.64159 0.0
H3188 H 0.25778 0.90217 0.58617 0.0
H3189 H 0.2327 0.87871 0.64659 0.0
H3190 H 0.28919 0.94304 0.60833 0.0
H3191 H 0.27052 0.94293 0.598 0.0
H3192 H 0.2787 0.93156 0.58344 0.0
H3193 H 0.25939 0.91492 0.68108 0.0
H3194 H 0.2396 0.8942 0.67964 0.0
H3195 H 0.23941 0.91337 0.67361 0.0
C3196 C 0.03822 0.33254 0.64203 0.0
C3197 C 0.03379 0.3203 0.65849 0.0
C3198 C 0.05469 0.34055 0.63237 0.0
C3199 C 0.06709 0.33657 0.63993 0.0
C3200 C 0.06303 0.32521 0.65778 0.0
C3201 C 0.04629 0.31693 0.66653 0.0
C3202 C 0.05831 0.35218 0.61299 0.0
C3203 C 0.07605 0.32107 0.66685 0.0
C3204 C 0.09969 0.33663 0.60141 0.0
C3205 C 0.11496 0.35225 0.6064 0.0
C3206 C 0.08392 0.33183 0.61148 0.0
C3207 C 0.08342 0.34254 0.62769 0.0
C3208 C 0.09867 0.35833 0.63287 0.0
C3209 C 0.11417 0.36313 0.6219 0.0
C3210 C 0.06785 0.31503 0.6051 0.0
C3211 C 0.09874 0.36989 0.65045 0.0
H3212 H 0.02843 0.33495 0.63569 0.0
H3213 H 0.0428 0.30748 0.67934 0.0
H3214 H 0.07119 0.36411 0.61472 0.0
H3215 H 0.05858 0.34563 0.5979 0.0
H3216 H 0.04826 0.35562 0.61085 0.0
H3217 H 0.0718 0.31408 0.68263 0.0
H3218 H 0.07782 0.31299 0.65498 0.0
H3219 H 0.08888 0.33297 0.66936 0.0
H3220 H 0.10002 0.32782 0.58996 0.0
H3221 H 0.12568 0.3754 0.62566 0.0
H3222 H 0.05695 0.31698 0.60129 0.0
H3223 H 0.06379 0.30593 0.61899 0.0
H3224 H 0.07001 0.30906 0.59067 0.0
H3225 H 0.08867 0.37306 0.64687 0.0
H3226 H 0.11153 0.382 0.65207 0.0
H3227 H 0.09549 0.36314 0.66641 0.0
C3228 C 0.29887 0.31769 0.6484 0.0
C3229 C 0.29821 0.31383 0.67075 0.0
C3230 C 0.28749 0.32215 0.63908 0.0
C3231 C 0.27493 0.3225 0.65234 0.0
C3232 C 0.27377 0.31803 0.67474 0.0
C3233 C 0.28552 0.31388 0.68373 0.0
C3234 C 0.2893 0.32704 0.61518 0.0
C3235 C 0.26033 0.31795 0.68929 0.0
C3236 C 0.25879 0.35132 0.63299 0.0
C3237 C 0.24338 0.33975 0.62178 0.0
C3238 C 0.269 0.34582 0.64334 0.0
C3239 C 0.26355 0.32826 0.64284 0.0
C3240 C 0.24772 0.3164 0.63225 0.0
C3241 C 0.23792 0.3223 0.62169 0.0
C3242 C 0.28587 0.3589 0.65432 0.0
C3243 C 0.24137 0.29754 0.63158 0.0
H3244 H 0.30866 0.31776 0.63824 0.0
H3245 H 0.28487 0.31083 0.70099 0.0
H3246 H 0.27677 0.31894 0.60641 0.0
H3247 H 0.29272 0.34052 0.61358 0.0
H3248 H 0.29944 0.32568 0.60699 0.0
H3249 H 0.26035 0.31305 0.70595 0.0
H3250 H 0.26286 0.33113 0.69081 0.0
H3251 H 0.24719 0.30992 0.68191 0.0
H3252 H 0.26297 0.36476 0.6336 0.0
H3253 H 0.22618 0.31324 0.61287 0.0
H3254 H 0.2969 0.35909 0.64619 0.0
H3255 H 0.286 0.35538 0.67168 0.0
H3256 H 0.28806 0.37201 0.65373 0.0
H3257 H 0.25036 0.29546 0.62173 0.0
H3258 H 0.22812 0.28982 0.62433 0.0
H3259 H 0.24126 0.29275 0.64833 0.0
C3260 C 0.68996 0.981 0.65429 0.0
C3261 C 0.67802 0.97984 0.66975 0.0
C3262 C 0.68794 0.96628 0.64429 0.0
C3263 C 0.67356 0.94999 0.64975 0.0
C3264 C 0.66159 0.9487 0.66556 0.0
C3265 C 0.66401 0.96362 0.67543 0.0
C3266 C 0.70107 0.96816 0.62766 0.0
C3267 C 0.64604 0.93158 0.67172 0.0
C3268 C 0.65838 0.91398 0.60828 0.0
C3269 C 0.66522 0.90452 0.61714 0.0
C3270 C 0.66096 0.92876 0.61875 0.0
C3271 C 0.67075 0.93434 0.63849 0.0
C3272 C 0.67778 0.92493 0.64747 0.0
C3273 C 0.67487 0.91011 0.63675 0.0
C3274 C 0.65321 0.93841 0.60868 0.0
C3275 C 0.68835 0.93051 0.66844 0.0
H3276 H 0.70086 0.99346 0.64985 0.0
H3277 H 0.65469 0.96258 0.68731 0.0
H3278 H 0.70658 0.96025 0.63248 0.0
H3279 H 0.69461 0.96344 0.61148 0.0
H3280 H 0.71188 0.98166 0.62586 0.0
H3281 H 0.63818 0.93272 0.6847 0.0
H3282 H 0.6376 0.92553 0.65711 0.0
H3283 H 0.6503 0.92285 0.67755 0.0
H3284 H 0.65115 0.90995 0.59297 0.0
H3285 H 0.68 0.90277 0.64389 0.0
H3286 H 0.66365 0.95171 0.60487 0.0
H3287 H 0.64442 0.9392 0.6205 0.0
H3288 H 0.64575 0.93227 0.59341 0.0
H3289 H 0.69964 0.94375 0.6667 0.0
H3290 H 0.69319 0.92197 0.67306 0.0
H3291 H 0.68036 0.93064 0.682 0.0
C3292 C 0.03469 0.69679 0.6565 0.0
C3293 C 0.02625 0.70598 0.65423 0.0
C3294 C 0.05153 0.70338 0.64842 0.0
C3295 C 0.06005 0.71946 0.63779 0.0
C3296 C 0.05155 0.72872 0.63536 0.0
C3297 C 0.03481 0.72189 0.64364 0.0
C3298 C 0.06025 0.69322 0.65136 0.0
C3299 C 0.06017 0.74591 0.62406 0.0
C3300 C 0.1087 0.7486 0.63334 0.0
C3301 C 0.11119 0.74706 0.61107 0.0
C3302 C 0.09227 0.73867 0.64274 0.0
C3303 C 0.07799 0.72703 0.62947 0.0
C3304 C 0.0807 0.72452 0.60736 0.0
C3305 C 0.09732 0.73457 0.59841 0.0
C3306 C 0.08998 0.74158 0.66644 0.0
C3307 C 0.06581 0.71223 0.59268 0.0
H3308 H 0.02816 0.68448 0.66464 0.0
H3309 H 0.02841 0.72907 0.64171 0.0
H3310 H 0.06397 0.6907 0.63521 0.0
H3311 H 0.07237 0.70072 0.66115 0.0
H3312 H 0.05175 0.68079 0.65967 0.0
H3313 H 0.05165 0.75131 0.62316 0.0
H3314 H 0.07231 0.75514 0.63293 0.0
H3315 H 0.06381 0.74471 0.60718 0.0
H3316 H 0.1195 0.75811 0.64321 0.0
H3317 H 0.0992 0.73341 0.58116 0.0
H3318 H 0.082 0.7292 0.67502 0.0
H3319 H 0.08301 0.74858 0.66738 0.0
H3320 H 0.10262 0.74919 0.67522 0.0
H3321 H 0.05756 0.69978 0.60101 0.0
H3322 H 0.0704 0.70993 0.57702 0.0
H3323 H 0.05751 0.71757 0.58887 0.0
C3324 C 0.98185 0.62405 0.71238 0.0
C3325 C 0.97599 0.62252 0.69064 0.0
C3326 C 0.98479 0.61177 0.72172 0.0
C3327 C 0.98165 0.59749 0.70912 0.0
C3328 C 0.97546 0.59567 0.68729 0.0
C3329 C 0.97278 0.60827 0.67826 0.0
C3330 C 0.99151 0.61423 0.74501 0.0
C3331 C 0.97178 0.5805 0.67346 0.0
C3332 C 0.00524 0.57521 0.72753 0.0
C3333 C 0.9925 0.56158 0.73995 0.0
C3334 C 0.00177 0.58679 0.71704 0.0
C3335 C 0.98511 0.58461 0.71883 0.0
C3336 C 0.97206 0.57066 0.73086 0.0
C3337 C 0.97593 0.55937 0.74137 0.0
C3338 C 0.01606 0.60158 0.70444 0.0
C3339 C 0.95412 0.56787 0.73307 0.0
H3340 H 0.98442 0.63503 0.72207 0.0
H3341 H 0.9682 0.60696 0.66149 0.0
H3342 H 0.98243 0.60305 0.75511 0.0
H3343 H 0.00422 0.61505 0.7454 0.0
H3344 H 0.99318 0.62599 0.75264 0.0
H3345 H 0.96657 0.58073 0.65699 0.0
H3346 H 0.98386 0.58029 0.67144 0.0
H3347 H 0.96227 0.56843 0.68177 0.0
H3348 H 0.01797 0.57685 0.72602 0.0
H3349 H 0.96607 0.54903 0.75116 0.0
H3350 H 0.01914 0.61386 0.71202 0.0
H3351 H 0.01169 0.60153 0.68738 0.0
H3352 H 0.02812 0.60115 0.70403 0.0
H3353 H 0.95491 0.57867 0.74229 0.0
H3354 H 0.9451 0.55575 0.7417 0.0
H3355 H 0.94856 0.56759 0.71667 0.0
C3356 C 0.37085 0.36969 0.69695 0.0
C3357 C 0.38125 0.36255 0.69953 0.0
C3358 C 0.37669 0.38642 0.70414 0.0
C3359 C 0.39324 0.39614 0.71431 0.0
C3360 C 0.40387 0.38909 0.71667 0.0
C3361 C 0.39779 0.37243 0.70917 0.0
C3362 C 0.36509 0.39361 0.70113 0.0
C3363 C 0.42158 0.39902 0.72751 0.0
C3364 C 0.4183 0.4445 0.71912 0.0
C3365 C 0.416 0.44673 0.74124 0.0
C3366 C 0.41009 0.42811 0.70972 0.0
C3367 C 0.3995 0.41363 0.72287 0.0
C3368 C 0.39641 0.41588 0.74491 0.0
C3369 C 0.40465 0.43244 0.75382 0.0
C3370 C 0.41351 0.42627 0.68608 0.0
C3371 C 0.38529 0.40075 0.7595 0.0
H3372 H 0.35806 0.36217 0.68949 0.0
H3373 H 0.40591 0.36703 0.7113 0.0
H3374 H 0.36166 0.39637 0.71733 0.0
H3375 H 0.37205 0.4059 0.69208 0.0
H3376 H 0.3529 0.38468 0.69209 0.0
H3377 H 0.42827 0.39172 0.72797 0.0
H3378 H 0.4299 0.4112 0.71866 0.0
H3379 H 0.42031 0.40236 0.74454 0.0
H3380 H 0.42695 0.45558 0.70932 0.0
H3381 H 0.40297 0.43413 0.77098 0.0
H3382 H 0.40116 0.41751 0.67729 0.0
H3383 H 0.42172 0.42056 0.68522 0.0
H3384 H 0.42026 0.43877 0.67744 0.0
H3385 H 0.37265 0.39185 0.75138 0.0
H3386 H 0.38278 0.4047 0.77552 0.0
H3387 H 0.3919 0.39355 0.76254 0.0
C3388 C 0.62948 0.02669 0.69149 0.0
C3389 C 0.64096 0.02241 0.70078 0.0
C3390 C 0.6128 0.02002 0.69997 0.0
C3391 C 0.60787 0.00949 0.7188 0.0
C3392 C 0.61916 0.00449 0.72758 0.0
C3393 C 0.63552 0.01081 0.71818 0.0
C3394 C 0.60089 0.02511 0.6896 0.0
C3395 C 0.61464 0.99373 0.74803 0.0
C3396 C 0.57813 0.01489 0.75666 0.0
C3397 C 0.56214 0.99952 0.75356 0.0
C3398 C 0.59312 0.01797 0.74595 0.0
C3399 C 0.59208 0.00574 0.73094 0.0
C3400 C 0.57601 0.99035 0.7273 0.0
C3401 C 0.56132 0.98728 0.73894 0.0
C3402 C 0.61011 0.03443 0.75066 0.0
C3403 C 0.5743 0.97726 0.7109 0.0
H3404 H 0.63376 0.03565 0.67796 0.0
H3405 H 0.64456 0.00771 0.72547 0.0
H3406 H 0.58748 0.01386 0.68809 0.0
H3407 H 0.60038 0.03468 0.70011 0.0
H3408 H 0.60538 0.03081 0.67312 0.0
H3409 H 0.62379 0.98926 0.75119 0.0
H3410 H 0.61511 0.00143 0.76228 0.0
H3411 H 0.60126 0.98242 0.74688 0.0
H3412 H 0.57899 0.02473 0.76729 0.0
H3413 H 0.5492 0.97522 0.73658 0.0
H3414 H 0.61451 0.04252 0.73576 0.0
H3415 H 0.62031 0.03162 0.7552 0.0
H3416 H 0.609 0.04192 0.7641 0.0
H3417 H 0.57837 0.98327 0.69452 0.0
H3418 H 0.56079 0.96611 0.70961 0.0
H3419 H 0.58302 0.97259 0.71554 0.0
loop_
_geom_bond_atom_site_label_1
_geom_bond_atom_site_label_2
_geom_bond_distance
_geom_bond_site_symmetry_2
_ccdc_geom_bond_type
Zn0 O3 2.031 1_554 S
Zn0 O5 2.049 . S
Zn0 O10 2.067 1_554 S
Zn1 O2 1.962 1_455 S
Zn1 O4 1.986 . S
Zn1 O6 1.996 1_455 S
Zn1 O9 1.943 1_554 S
O2 Zn1 1.962 1_655 S
O2 C7 1.261 . S
O3 Zn0 2.031 1_556 S
O3 C7 1.266 1_556 S
O4 Zn1 1.986 . S
O4 C11 1.262 . S
O5 Zn0 2.049 . S
O5 C13 1.260 . S
O6 Zn1 1.996 1_655 S
O6 C13 1.257 . S
C7 O2 1.261 . S
C7 O3 1.266 1_554 S
C8 O9 1.249 . S
C8 O10 1.270 1_455 S
O9 Zn1 1.943 1_556 S
O9 C8 1.249 . S
O10 Zn0 2.067 1_556 S
O10 C8 1.270 1_655 S
C11 O4 1.262 . S
C11 O12 1.232 . S
O12 C11 1.232 . S
C13 O5 1.260 . S
C13 O6 1.257 . S
Zn14 O17 2.031 1_554 S
Zn14 O19 2.049 . S
Zn14 O24 2.067 1_554 S
Zn15 O16 1.962 . S
Zn15 O18 1.986 . S
Zn15 O20 1.996 . S
Zn15 O23 1.943 1_554 S
O16 Zn15 1.962 . S
O16 C21 1.254 1_554 S
O17 Zn14 2.031 1_556 S
O17 C21 1.269 . S
O18 Zn15 1.986 . S
O18 C25 1.262 . S
O19 Zn14 2.049 . S
O19 C27 1.260 . S
O20 Zn15 1.996 . S
O20 C27 1.257 . S
C21 O16 1.254 1_556 S
C21 O17 1.269 . S
C22 O23 1.249 . S
C22 O24 1.270 . S
O23 Zn15 1.943 1_556 S
O23 C22 1.249 . S
O24 Zn14 2.067 1_556 S
O24 C22 1.270 . S
C25 O18 1.262 . S
C25 O26 1.232 . S
O26 C25 1.232 . S
C27 O19 1.260 . S
C27 O20 1.257 . S
Zn28 O31 2.031 . S
Zn28 O33 2.049 1_554 S
Zn28 O38 2.067 . S
Zn29 O30 1.962 1_545 S
Zn29 O32 1.986 1_554 S
Zn29 O34 1.996 1_544 S
Zn29 O37 1.943 . S
O30 Zn29 1.962 1_565 S
O30 C35 1.254 . S
O31 Zn28 2.031 . S
O31 C35 1.269 . S
O32 Zn29 1.986 1_556 S
O32 C39 1.262 . S
O33 Zn28 2.049 1_556 S
O33 C41 1.260 . S
O34 Zn29 1.996 1_566 S
O34 C41 1.257 . S
C35 O30 1.254 . S
C35 O31 1.269 . S
C36 O37 1.249 . S
C36 O38 1.270 1_545 S
O37 Zn29 1.943 . S
O37 C36 1.249 . S
O38 Zn28 2.067 . S
O38 C36 1.270 1_565 S
C39 O32 1.262 . S
C39 O40 1.232 1_556 S
O40 C39 1.232 1_554 S
C41 O33 1.260 . S
C41 O34 1.257 . S
Zn42 O45 2.031 . S
Zn42 O47 2.049 1_554 S
Zn42 O52 2.067 . S
Zn43 O44 1.962 1_655 S
Zn43 O46 1.986 1_554 S
Zn43 O48 1.996 1_654 S
Zn43 O51 1.943 . S
O44 Zn43 1.962 1_455 S
O44 C49 1.254 . S
O45 Zn42 2.031 . S
O45 C49 1.269 . S
O46 Zn43 1.986 1_556 S
O46 C53 1.262 . S
O47 Zn42 2.049 1_556 S
O47 C55 1.260 . S
O48 Zn43 1.996 1_456 S
O48 C55 1.257 . S
C49 O44 1.254 . S
C49 O45 1.269 . S
C50 O51 1.249 . S
C50 O52 1.270 1_655 S
O51 Zn43 1.943 . S
O51 C50 1.249 . S
O52 Zn42 2.067 . S
O52 C50 1.270 1_455 S
C53 O46 1.262 . S
C53 O54 1.232 1_556 S
O54 C53 1.232 1_554 S
C55 O47 1.260 . S
C55 O48 1.257 . S
Zn56 O59 2.031 . S
Zn56 O61 2.049 1_554 S
Zn56 O66 2.067 . S
Zn57 O58 1.962 . S
Zn57 O60 1.986 1_554 S
Zn57 O62 1.996 1_554 S
Zn57 O65 1.943 . S
O58 Zn57 1.962 . S
O58 C63 1.254 . S
O59 Zn56 2.031 . S
O59 C63 1.269 . S
O60 Zn57 1.986 1_556 S
O60 C67 1.262 . S
O61 Zn56 2.049 1_556 S
O61 C69 1.260 . S
O62 Zn57 1.996 1_556 S
O62 C69 1.257 . S
C63 O58 1.254 . S
C63 O59 1.269 . S
C64 O65 1.249 . S
C64 O66 1.270 . S
O65 Zn57 1.943 . S
O65 C64 1.249 . S
O66 Zn56 2.067 . S
O66 C64 1.270 . S
C67 O60 1.262 . S
C67 O68 1.232 1_556 S
O68 C67 1.232 1_554 S
C69 O61 1.260 . S
C69 O62 1.257 . S
Zn70 O73 2.031 1_554 S
Zn70 O75 2.049 . S
Zn70 O80 2.067 1_554 S
Zn71 O72 1.962 1_565 S
Zn71 O74 1.986 . S
Zn71 O76 1.996 1_565 S
Zn71 O79 1.938 1_554 S
O72 Zn71 1.962 1_545 S
O72 C77 1.254 . S
O73 Zn70 2.031 1_556 S
O73 C77 1.269 1_556 S
O74 Zn71 1.986 . S
O74 C81 1.262 . S
O75 Zn70 2.049 . S
O75 C83 1.260 . S
O76 Zn71 1.996 1_545 S
O76 C83 1.257 . S
C77 O72 1.254 . S
C77 O73 1.269 1_554 S
C78 O79 1.252 . S
C78 O80 1.270 1_565 S
O79 Zn71 1.938 1_556 S
O79 C78 1.252 . S
O80 Zn70 2.067 1_556 S
O80 C78 1.270 1_545 S
C81 O74 1.262 . S
C81 O82 1.232 . S
O82 C81 1.232 . S
C83 O75 1.260 . S
C83 O76 1.257 . S
Zn84 O87 2.031 . S
Zn84 O89 2.049 . S
Zn84 O94 2.067 . S
Zn85 O86 1.962 . S
Zn85 O88 1.986 . S
Zn85 O90 1.996 . S
Zn85 O93 1.943 . S
O86 Zn85 1.962 . S
O86 C91 1.254 . S
O87 Zn84 2.031 . S
O87 C91 1.269 . S
O88 Zn85 1.986 . S
O88 C95 1.262 . S
O89 Zn84 2.049 . S
O89 C97 1.260 . S
O90 Zn85 1.996 . S
O90 C97 1.257 . S
C91 O86 1.254 . S
C91 O87 1.269 . S
C92 O93 1.249 . S
C92 O94 1.270 . S
O93 Zn85 1.943 . S
O93 C92 1.249 . S
O94 Zn84 2.067 . S
O94 C92 1.270 . S
C95 O88 1.262 . S
C95 O96 1.232 . S
O96 C95 1.232 . S
C97 O89 1.260 . S
C97 O90 1.257 . S
Zn98 O101 2.031 . S
Zn98 O103 2.049 . S
Zn98 O108 2.067 . S
Zn99 O100 1.962 . S
Zn99 O102 1.986 1_565 S
Zn99 O104 1.996 . S
Zn99 O107 1.943 . S
O100 Zn99 1.962 . S
O100 C105 1.254 . S
O101 Zn98 2.031 . S
O101 C105 1.269 . S
O102 Zn99 1.986 1_545 S
O102 C109 1.262 . S
O103 Zn98 2.049 . S
O103 C111 1.260 . S
O104 Zn99 1.996 . S
O104 C111 1.257 . S
C105 O100 1.254 . S
C105 O101 1.269 . S
C106 O107 1.249 . S
C106 O108 1.270 . S
O107 Zn99 1.943 . S
O107 C106 1.249 . S
O108 Zn98 2.067 . S
O108 C106 1.270 . S
C109 O102 1.262 . S
C109 O110 1.232 . S
O110 C109 1.232 . S
C111 O103 1.260 . S
C111 O104 1.257 . S
Zn112 O115 2.031 . S
Zn112 O117 2.049 . S
Zn112 O122 2.067 . S
Zn113 O114 1.962 1_455 S
Zn113 O116 1.986 . S
Zn113 O118 1.996 . S
Zn113 O121 1.943 . S
O114 Zn113 1.962 1_655 S
O114 C119 1.254 . S
O115 Zn112 2.031 . S
O115 C119 1.269 1_455 S
O116 Zn113 1.986 . S
O116 C123 1.262 . S
O117 Zn112 2.049 . S
O117 C125 1.260 . S
O118 Zn113 1.996 . S
O118 C125 1.257 . S
C119 O114 1.254 . S
C119 O115 1.269 1_655 S
C120 O121 1.249 . S
C120 O122 1.270 . S
O121 Zn113 1.943 . S
O121 C120 1.249 . S
O122 Zn112 2.067 . S
O122 C120 1.270 . S
C123 O116 1.262 . S
C123 O124 1.232 . S
O124 C123 1.232 . S
C125 O117 1.260 . S
C125 O118 1.257 . S
Zn126 O129 2.031 . S
Zn126 O131 2.049 . S
Zn126 O136 2.067 . S
Zn127 O128 1.962 1_565 S
Zn127 O130 1.986 . S
Zn127 O132 1.996 . S
Zn127 O135 1.943 . S
O128 Zn127 1.962 1_545 S
O128 C133 1.254 . S
O129 Zn126 2.031 . S
O129 C133 1.269 1_565 S
O130 Zn127 1.986 . S
O130 C137 1.262 . S
O131 Zn126 2.049 . S
O131 C139 1.260 . S
O132 Zn127 1.996 . S
O132 C139 1.257 . S
C133 O128 1.254 . S
C133 O129 1.269 1_545 S
C134 O135 1.249 . S
C134 O136 1.270 . S
O135 Zn127 1.943 . S
O135 C134 1.249 . S
O136 Zn126 2.067 . S
O136 C134 1.270 . S
C137 O130 1.262 . S
C137 O138 1.232 . S
O138 C137 1.232 . S
C139 O131 1.260 . S
C139 O132 1.257 . S
Zn140 O143 2.031 . S
Zn140 O145 2.049 . S
Zn140 O150 2.067 . S
Zn141 O142 1.962 1_455 S
Zn141 O144 1.986 . S
Zn141 O146 1.996 . S
Zn141 O149 1.943 . S
O142 Zn141 1.962 1_655 S
O142 C147 1.254 . S
O143 Zn140 2.031 . S
O143 C147 1.269 1_455 S
O144 Zn141 1.986 . S
O144 C151 1.262 . S
O145 Zn140 2.049 . S
O145 C153 1.260 . S
O146 Zn141 1.996 . S
O146 C153 1.257 . S
C147 O142 1.254 . S
C147 O143 1.269 1_655 S
C148 O149 1.249 . S
C148 O150 1.270 . S
O149 Zn141 1.943 . S
O149 C148 1.249 . S
O150 Zn140 2.067 . S
O150 C148 1.270 . S
C151 O144 1.262 . S
C151 O152 1.232 . S
O152 C151 1.232 . S
C153 O145 1.260 . S
C153 O146 1.257 . S
Zn154 O157 2.031 . S
Zn154 O159 2.049 . S
Zn154 O164 2.067 . S
Zn155 O156 1.962 . S
Zn155 O158 1.986 . S
Zn155 O160 1.996 . S
Zn155 O163 1.943 . S
O156 Zn155 1.962 . S
O156 C161 1.254 . S
O157 Zn154 2.031 . S
O157 C161 1.269 . S
O158 Zn155 1.986 . S
O158 C165 1.262 . S
O159 Zn154 2.049 . S
O159 C167 1.260 . S
O160 Zn155 1.996 . S
O160 C167 1.257 . S
C161 O156 1.254 . S
C161 O157 1.269 . S
C162 O163 1.249 . S
C162 O164 1.270 . S
O163 Zn155 1.943 . S
O163 C162 1.249 . S
O164 Zn154 2.067 . S
O164 C162 1.270 . S
C165 O158 1.262 . S
C165 O166 1.232 . S
O166 C165 1.232 . S
C167 O159 1.260 . S
C167 O160 1.257 . S
Zn168 O171 2.031 . S
Zn168 O173 2.049 . S
Zn168 O178 2.067 . S
Zn169 O170 1.962 1_545 S
Zn169 O172 1.986 . S
Zn169 O174 1.996 . S
Zn169 O177 1.943 . S
O170 Zn169 1.962 1_565 S
O170 C175 1.254 . S
O171 Zn168 2.031 . S
O171 C175 1.269 1_545 S
O172 Zn169 1.986 . S
O172 C179 1.262 . S
O173 Zn168 2.049 . S
O173 C181 1.260 . S
O174 Zn169 1.996 . S
O174 C181 1.257 . S
C175 O170 1.254 . S
C175 O171 1.269 1_565 S
C176 O177 1.249 . S
C176 O178 1.270 . S
O177 Zn169 1.943 . S
O177 C176 1.249 . S
O178 Zn168 2.067 . S
O178 C176 1.270 . S
C179 O172 1.262 . S
C179 O180 1.232 . S
O180 C179 1.232 . S
C181 O173 1.260 . S
C181 O174 1.257 . S
Zn182 O185 2.045 . S
Zn182 O187 2.049 . S
Zn182 O192 2.067 . S
Zn183 O184 1.962 1_655 S
Zn183 O186 1.986 . S
Zn183 O188 1.996 . S
Zn183 O191 1.943 . S
O184 Zn183 1.962 1_455 S
O184 C189 1.254 . S
O185 Zn182 2.045 . S
O185 C189 1.254 1_655 S
O186 Zn183 1.986 . S
O186 C193 1.262 . S
O187 Zn182 2.049 . S
O187 C195 1.260 . S
O188 Zn183 1.996 . S
O188 C195 1.257 . S
C189 O184 1.254 . S
C189 O185 1.254 1_455 S
C190 O191 1.249 . S
C190 O192 1.270 . S
O191 Zn183 1.943 . S
O191 C190 1.249 . S
O192 Zn182 2.067 . S
O192 C190 1.270 . S
C193 O186 1.262 . S
C193 O194 1.232 . S
O194 C193 1.232 . S
C195 O187 1.260 . S
C195 O188 1.257 . S
Zn196 O199 2.031 . S
Zn196 O201 2.049 . S
Zn196 O206 2.067 . S
Zn197 O198 1.962 . S
Zn197 O200 1.986 . S
Zn197 O202 1.996 . S
Zn197 O205 1.943 . S
O198 Zn197 1.962 . S
O198 C203 1.254 . S
O199 Zn196 2.031 . S
O199 C203 1.269 . S
O200 Zn197 1.986 . S
O200 C207 1.262 . S
O201 Zn196 2.049 . S
O201 C209 1.260 . S
O202 Zn197 1.996 . S
O202 C209 1.257 . S
C203 O198 1.254 . S
C203 O199 1.269 . S
C204 O205 1.249 . S
C204 O206 1.270 . S
O205 Zn197 1.943 . S
O205 C204 1.249 . S
O206 Zn196 2.067 . S
O206 C204 1.270 . S
C207 O200 1.262 . S
C207 O208 1.232 . S
O208 C207 1.232 . S
C209 O201 1.260 . S
C209 O202 1.257 . S
Zn210 O213 2.031 . S
Zn210 O215 2.049 . S
Zn210 O220 2.067 . S
Zn211 O212 1.962 . S
Zn211 O214 1.986 . S
Zn211 O216 1.996 . S
Zn211 O219 1.943 . S
O212 Zn211 1.962 . S
O212 C217 1.254 . S
O213 Zn210 2.031 . S
O213 C217 1.269 . S
O214 Zn211 1.986 . S
O214 C221 1.262 . S
O215 Zn210 2.049 . S
O215 C223 1.260 . S
O216 Zn211 1.996 . S
O216 C223 1.257 . S
C217 O212 1.254 . S
C217 O213 1.269 . S
C218 O219 1.249 . S
C218 O220 1.270 . S
O219 Zn211 1.943 . S
O219 C218 1.249 . S
O220 Zn210 2.067 . S
O220 C218 1.270 . S
C221 O214 1.262 . S
C221 O222 1.232 . S
O222 C221 1.232 . S
C223 O215 1.260 . S
C223 O216 1.257 . S
Zn224 O227 2.031 . S
Zn224 O229 2.049 . S
Zn224 O234 2.067 . S
Zn225 O226 1.962 . S
Zn225 O228 1.986 1_545 S
Zn225 O230 1.996 . S
Zn225 O233 1.943 . S
O226 Zn225 1.962 . S
O226 C231 1.254 . S
O227 Zn224 2.031 . S
O227 C231 1.269 . S
O228 Zn225 1.986 1_565 S
O228 C235 1.262 . S
O229 Zn224 2.049 . S
O229 C237 1.260 . S
O230 Zn225 1.996 . S
O230 C237 1.257 . S
C231 O226 1.254 . S
C231 O227 1.269 . S
C232 O233 1.249 . S
C232 O234 1.270 . S
O233 Zn225 1.943 . S
O233 C232 1.249 . S
O234 Zn224 2.067 . S
O234 C232 1.270 . S
C235 O228 1.262 . S
C235 O236 1.232 . S
O236 C235 1.232 . S
C237 O229 1.260 . S
C237 O230 1.257 . S
Zn238 O241 2.031 . S
Zn238 O243 2.049 . S
Zn238 O248 2.067 . S
Zn239 O240 1.962 1_655 S
Zn239 O242 1.986 . S
Zn239 O244 1.996 . S
Zn239 O247 1.943 . S
O240 Zn239 1.962 1_455 S
O240 C245 1.254 . S
O241 Zn238 2.031 . S
O241 C245 1.269 1_655 S
O242 Zn239 1.986 . S
O242 C249 1.262 . S
O243 Zn238 2.049 . S
O243 C251 1.260 . S
O244 Zn239 1.996 . S
O244 C251 1.257 . S
C245 O240 1.254 . S
C245 O241 1.269 1_455 S
C246 O247 1.249 . S
C246 O248 1.270 . S
O247 Zn239 1.943 . S
O247 C246 1.249 . S
O248 Zn238 2.067 . S
O248 C246 1.270 . S
C249 O242 1.262 . S
C249 O250 1.232 . S
O250 C249 1.232 . S
C251 O243 1.260 . S
C251 O244 1.257 . S
H252 C271 0.949 . S
H253 C272 0.950 . S
H254 C274 0.950 . S
H255 C275 0.950 . S
H256 C277 0.950 . S
H257 C280 0.950 . S
H258 C281 0.950 . S
H259 C283 0.951 . S
H260 C284 0.949 . S
H261 C286 0.949 . S
H262 C287 0.950 . S
H263 C289 0.950 . S
H264 C290 0.950 . S
H265 C292 0.950 . S
H266 C295 0.950 . S
H267 C296 0.950 . S
H268 C298 0.951 . S
H269 C299 0.949 . S
C270 C271 1.376 . S
C270 C275 1.386 . S
C270 C276 1.483 . S
C271 H252 0.949 . S
C271 C270 1.376 . S
C271 C272 1.397 . S
C272 H253 0.950 . S
C272 C271 1.397 . S
C272 C273 1.391 . S
C273 C272 1.391 . S
C273 C274 1.405 . S
C274 H254 0.950 . S
C274 C273 1.405 . S
C274 C275 1.367 . S
C275 H255 0.950 . S
C275 C270 1.386 . S
C275 C274 1.367 . S
C276 C270 1.483 . S
C276 C277 1.382 . S
C276 C278 1.403 . S
C277 H256 0.950 . S
C277 C276 1.382 . S
C277 C293 1.411 . S
C278 C276 1.403 . S
C278 C279 1.489 . S
C278 C292 1.411 . S
C279 C278 1.489 . S
C279 C280 1.383 . S
C279 C284 1.382 . S
C280 H257 0.950 . S
C280 C279 1.383 . S
C280 C281 1.395 . S
C281 H258 0.950 . S
C281 C280 1.395 . S
C281 C282 1.288 . S
C282 C281 1.288 . S
C282 C283 1.392 . S
C283 H259 0.951 . S
C283 C282 1.392 . S
C283 C284 1.392 . S
C284 H260 0.949 . S
C284 C279 1.382 . S
C284 C283 1.392 . S
C285 C286 1.376 . S
C285 C290 1.386 . S
C285 C291 1.483 . S
C286 H261 0.949 . S
C286 C285 1.376 . S
C286 C287 1.397 . S
C287 H262 0.950 . S
C287 C286 1.397 . S
C287 C288 1.391 . S
C288 C287 1.391 . S
C288 C289 1.405 . S
C289 H263 0.950 . S
C289 C288 1.405 . S
C289 C290 1.367 . S
C290 H264 0.950 . S
C290 C285 1.386 . S
C290 C289 1.367 . S
C291 C285 1.483 . S
C291 C292 1.382 . S
C291 C293 1.403 . S
C292 H265 0.950 . S
C292 C278 1.411 . S
C292 C291 1.382 . S
C293 C277 1.411 . S
C293 C291 1.403 . S
C293 C294 1.489 . S
C294 C293 1.489 . S
C294 C295 1.383 . S
C294 C299 1.382 . S
C295 H266 0.950 . S
C295 C294 1.383 . S
C295 C296 1.395 . S
C296 H267 0.950 . S
C296 C295 1.395 . S
C296 C297 1.288 . S
C297 C296 1.288 . S
C297 C298 1.392 . S
C298 H268 0.951 . S
C298 C297 1.392 . S
C298 C299 1.392 . S
C299 H269 0.949 . S
C299 C294 1.382 . S
C299 C298 1.392 . S
H300 C319 0.949 . S
H301 C320 0.950 . S
H302 C322 0.950 . S
H303 C323 0.950 . S
H304 C325 0.950 . S
H305 C328 0.950 . S
H306 C329 0.950 . S
H307 C331 0.951 . S
H308 C332 0.949 . S
H309 C334 0.949 . S
H310 C335 0.950 . S
H311 C337 0.950 . S
H312 C338 0.950 . S
H313 C340 0.950 . S
H314 C343 0.950 . S
H315 C344 0.950 . S
H316 C346 0.951 . S
H317 C347 0.949 . S
C318 C319 1.376 . S
C318 C323 1.386 . S
C318 C324 1.483 . S
C319 H300 0.949 . S
C319 C318 1.376 . S
C319 C320 1.397 . S
C320 H301 0.950 . S
C320 C319 1.397 . S
C320 C321 1.391 . S
C321 C320 1.391 . S
C321 C322 1.405 . S
C322 H302 0.950 . S
C322 C321 1.405 . S
C322 C323 1.367 . S
C323 H303 0.950 . S
C323 C318 1.386 . S
C323 C322 1.367 . S
C324 C318 1.483 . S
C324 C325 1.382 . S
C324 C326 1.403 . S
C325 H304 0.950 . S
C325 C324 1.382 . S
C325 C341 1.411 . S
C326 C324 1.403 . S
C326 C327 1.489 . S
C326 C340 1.411 . S
C327 C326 1.489 . S
C327 C328 1.383 . S
C327 C332 1.382 . S
C328 H305 0.950 . S
C328 C327 1.383 . S
C328 C329 1.395 . S
C329 H306 0.950 . S
C329 C328 1.395 . S
C329 C330 1.288 . S
C330 C329 1.288 . S
C330 C331 1.392 . S
C331 H307 0.951 . S
C331 C330 1.392 . S
C331 C332 1.392 . S
C332 H308 0.949 . S
C332 C327 1.382 . S
C332 C331 1.392 . S
C333 C334 1.376 . S
C333 C338 1.386 . S
C333 C339 1.483 . S
C334 H309 0.949 . S
C334 C333 1.376 . S
C334 C335 1.397 . S
C335 H310 0.950 . S
C335 C334 1.397 . S
C335 C336 1.391 . S
C336 C335 1.391 . S
C336 C337 1.405 . S
C337 H311 0.950 . S
C337 C336 1.405 . S
C337 C338 1.367 . S
C338 H312 0.950 . S
C338 C333 1.386 . S
C338 C337 1.367 . S
C339 C333 1.483 . S
C339 C340 1.382 . S
C339 C341 1.403 . S
C340 H313 0.950 . S
C340 C326 1.411 . S
C340 C339 1.382 . S
C341 C325 1.411 . S
C341 C339 1.403 . S
C341 C342 1.489 . S
C342 C341 1.489 . S
C342 C343 1.383 . S
C342 C347 1.382 . S
C343 H314 0.950 . S
C343 C342 1.383 . S
C343 C344 1.395 . S
C344 H315 0.950 . S
C344 C343 1.395 . S
C344 C345 1.288 . S
C345 C344 1.288 . S
C345 C346 1.392 . S
C346 H316 0.951 . S
C346 C345 1.392 . S
C346 C347 1.392 . S
C347 H317 0.949 . S
C347 C342 1.382 . S
C347 C346 1.392 . S
H348 C367 0.949 . S
H349 C368 0.950 . S
H350 C370 0.950 . S
H351 C371 0.950 . S
H352 C373 0.950 . S
H353 C376 0.950 . S
H354 C377 0.950 . S
H355 C379 0.951 . S
H356 C380 0.949 . S
H357 C382 0.949 . S
H358 C383 0.950 . S
H359 C385 0.950 . S
H360 C386 0.950 . S
H361 C388 0.950 . S
H362 C391 0.950 . S
H363 C392 0.950 . S
H364 C394 0.951 . S
H365 C395 0.949 . S
C366 C367 1.376 . S
C366 C371 1.386 . S
C366 C372 1.483 . S
C367 H348 0.949 . S
C367 C366 1.376 . S
C367 C368 1.397 . S
C368 H349 0.950 . S
C368 C367 1.397 . S
C368 C369 1.391 . S
C369 C368 1.391 . S
C369 C370 1.405 . S
C370 H350 0.950 . S
C370 C369 1.405 . S
C370 C371 1.367 . S
C371 H351 0.950 . S
C371 C366 1.386 . S
C371 C370 1.367 . S
C372 C366 1.483 . S
C372 C373 1.382 . S
C372 C374 1.403 . S
C373 H352 0.950 . S
C373 C372 1.382 . S
C373 C389 1.411 . S
C374 C372 1.403 . S
C374 C375 1.489 . S
C374 C388 1.411 . S
C375 C374 1.489 . S
C375 C376 1.383 . S
C375 C380 1.382 . S
C376 H353 0.950 . S
C376 C375 1.383 . S
C376 C377 1.395 . S
C377 H354 0.950 . S
C377 C376 1.395 . S
C377 C378 1.288 . S
C378 C377 1.288 . S
C378 C379 1.392 . S
C379 H355 0.951 . S
C379 C378 1.392 . S
C379 C380 1.392 . S
C380 H356 0.949 . S
C380 C375 1.382 . S
C380 C379 1.392 . S
C381 C382 1.376 . S
C381 C386 1.386 . S
C381 C387 1.483 . S
C382 H357 0.949 . S
C382 C381 1.376 . S
C382 C383 1.397 . S
C383 H358 0.950 . S
C383 C382 1.397 . S
C383 C384 1.391 . S
C384 C383 1.391 . S
C384 C385 1.405 . S
C385 H359 0.950 . S
C385 C384 1.405 . S
C385 C386 1.367 . S
C386 H360 0.950 . S
C386 C381 1.386 . S
C386 C385 1.367 . S
C387 C381 1.483 . S
C387 C388 1.382 . S
C387 C389 1.403 . S
C388 H361 0.950 . S
C388 C374 1.411 . S
C388 C387 1.382 . S
C389 C373 1.411 . S
C389 C387 1.403 . S
C389 C390 1.489 . S
C390 C389 1.489 . S
C390 C391 1.383 . S
C390 C395 1.382 . S
C391 H362 0.950 . S
C391 C390 1.383 . S
C391 C392 1.395 . S
C392 H363 0.950 . S
C392 C391 1.395 . S
C392 C393 1.288 . S
C393 C392 1.288 . S
C393 C394 1.392 . S
C394 H364 0.951 . S
C394 C393 1.392 . S
C394 C395 1.392 . S
C395 H365 0.949 . S
C395 C390 1.382 . S
C395 C394 1.392 . S
H396 C415 0.949 . S
H397 C416 0.950 . S
H398 C418 0.950 . S
H399 C419 0.950 . S
H400 C421 0.950 . S
H401 C424 0.950 . S
H402 C425 0.950 . S
H403 C427 0.951 . S
H404 C428 0.949 . S
H405 C430 0.949 . S
H406 C431 0.950 . S
H407 C433 0.950 . S
H408 C434 0.950 . S
H409 C436 0.950 . S
H410 C439 0.950 . S
H411 C440 0.950 . S
H412 C442 0.951 . S
H413 C443 0.949 . S
C414 C415 1.376 . S
C414 C419 1.386 . S
C414 C420 1.483 . S
C415 H396 0.949 . S
C415 C414 1.376 . S
C415 C416 1.397 . S
C416 H397 0.950 . S
C416 C415 1.397 . S
C416 C417 1.391 . S
C417 C416 1.391 . S
C417 C418 1.405 . S
C418 H398 0.950 . S
C418 C417 1.405 . S
C418 C419 1.367 . S
C419 H399 0.950 . S
C419 C414 1.386 . S
C419 C418 1.367 . S
C420 C414 1.483 . S
C420 C421 1.382 . S
C420 C422 1.403 . S
C421 H400 0.950 . S
C421 C420 1.382 . S
C421 C437 1.411 . S
C422 C420 1.403 . S
C422 C423 1.489 . S
C422 C436 1.411 . S
C423 C422 1.489 . S
C423 C424 1.383 . S
C423 C428 1.382 . S
C424 H401 0.950 . S
C424 C423 1.383 . S
C424 C425 1.395 . S
C425 H402 0.950 . S
C425 C424 1.395 . S
C425 C426 1.288 . S
C426 C425 1.288 . S
C426 C427 1.392 . S
C427 H403 0.951 . S
C427 C426 1.392 . S
C427 C428 1.392 . S
C428 H404 0.949 . S
C428 C423 1.382 . S
C428 C427 1.392 . S
C429 C430 1.376 . S
C429 C434 1.386 . S
C429 C435 1.483 . S
C430 H405 0.949 . S
C430 C429 1.376 . S
C430 C431 1.397 . S
C431 H406 0.950 . S
C431 C430 1.397 . S
C431 C432 1.391 . S
C432 C431 1.391 . S
C432 C433 1.405 . S
C433 H407 0.950 . S
C433 C432 1.405 . S
C433 C434 1.367 . S
C434 H408 0.950 . S
C434 C429 1.386 . S
C434 C433 1.367 . S
C435 C429 1.483 . S
C435 C436 1.382 . S
C435 C437 1.403 . S
C436 H409 0.950 . S
C436 C422 1.411 . S
C436 C435 1.382 . S
C437 C421 1.411 . S
C437 C435 1.403 . S
C437 C438 1.489 . S
C438 C437 1.489 . S
C438 C439 1.383 . S
C438 C443 1.382 . S
C439 H410 0.950 . S
C439 C438 1.383 . S
C439 C440 1.395 . S
C440 H411 0.950 . S
C440 C439 1.395 . S
C440 C441 1.288 . S
C441 C440 1.288 . S
C441 C442 1.392 . S
C442 H412 0.951 . S
C442 C441 1.392 . S
C442 C443 1.392 . S
C443 H413 0.949 . S
C443 C438 1.382 . S
C443 C442 1.392 . S
H444 C463 0.949 . S
H445 C464 0.950 . S
H446 C466 0.950 . S
H447 C467 0.950 . S
H448 C469 0.950 . S
H449 C472 0.950 . S
H450 C473 0.950 . S
H451 C475 0.951 . S
H452 C476 0.949 . S
H453 C478 0.949 . S
H454 C479 0.950 . S
H455 C481 0.950 . S
H456 C482 0.950 . S
H457 C484 0.950 . S
H458 C487 0.950 . S
H459 C488 0.950 . S
H460 C490 0.951 . S
H461 C491 0.949 . S
C462 C463 1.376 . S
C462 C467 1.386 . S
C462 C468 1.483 . S
C463 H444 0.949 . S
C463 C462 1.376 . S
C463 C464 1.397 . S
C464 H445 0.950 . S
C464 C463 1.397 . S
C464 C465 1.391 . S
C465 C464 1.391 . S
C465 C466 1.405 . S
C466 H446 0.950 . S
C466 C465 1.405 . S
C466 C467 1.367 . S
C467 H447 0.950 . S
C467 C462 1.386 . S
C467 C466 1.367 . S
C468 C462 1.483 . S
C468 C469 1.382 . S
C468 C470 1.403 . S
C469 H448 0.950 . S
C469 C468 1.382 . S
C469 C485 1.411 . S
C470 C468 1.403 . S
C470 C471 1.489 . S
C470 C484 1.411 . S
C471 C470 1.489 . S
C471 C472 1.383 . S
C471 C476 1.382 . S
C472 H449 0.950 . S
C472 C471 1.383 . S
C472 C473 1.395 . S
C473 H450 0.950 . S
C473 C472 1.395 . S
C473 C474 1.288 . S
C474 C473 1.288 . S
C474 C475 1.392 . S
C475 H451 0.951 . S
C475 C474 1.392 . S
C475 C476 1.392 . S
C476 H452 0.949 . S
C476 C471 1.382 . S
C476 C475 1.392 . S
C477 C478 1.376 . S
C477 C482 1.386 . S
C477 C483 1.483 . S
C478 H453 0.949 . S
C478 C477 1.376 . S
C478 C479 1.397 . S
C479 H454 0.950 . S
C479 C478 1.397 . S
C479 C480 1.391 . S
C480 C479 1.391 . S
C480 C481 1.405 . S
C481 H455 0.950 . S
C481 C480 1.405 . S
C481 C482 1.367 . S
C482 H456 0.950 . S
C482 C477 1.386 . S
C482 C481 1.367 . S
C483 C477 1.483 . S
C483 C484 1.382 . S
C483 C485 1.403 . S
C484 H457 0.950 . S
C484 C470 1.411 . S
C484 C483 1.382 . S
C485 C469 1.411 . S
C485 C483 1.403 . S
C485 C486 1.489 . S
C486 C485 1.489 . S
C486 C487 1.383 . S
C486 C491 1.382 . S
C487 H458 0.950 . S
C487 C486 1.383 . S
C487 C488 1.395 . S
C488 H459 0.950 . S
C488 C487 1.395 . S
C488 C489 1.288 . S
C489 C488 1.288 . S
C489 C490 1.392 . S
C490 H460 0.951 . S
C490 C489 1.392 . S
C490 C491 1.392 . S
C491 H461 0.949 . S
C491 C486 1.382 . S
C491 C490 1.392 . S
H492 C511 0.949 . S
H493 C512 0.950 . S
H494 C514 0.950 . S
H495 C515 0.950 . S
H496 C517 0.950 . S
H497 C520 0.950 . S
H498 C521 0.950 . S
H499 C523 0.951 . S
H500 C524 0.949 . S
H501 C526 0.949 . S
H502 C527 0.950 . S
H503 C529 0.950 . S
H504 C530 0.950 . S
H505 C532 0.950 . S
H506 C535 0.950 . S
H507 C536 0.950 . S
H508 C538 0.951 . S
H509 C539 0.949 . S
C510 C511 1.376 . S
C510 C515 1.386 . S
C510 C516 1.483 . S
C511 H492 0.949 . S
C511 C510 1.376 . S
C511 C512 1.397 . S
C512 H493 0.950 . S
C512 C511 1.397 . S
C512 C513 1.391 . S
C513 C512 1.391 . S
C513 C514 1.405 . S
C514 H494 0.950 . S
C514 C513 1.405 . S
C514 C515 1.367 . S
C515 H495 0.950 . S
C515 C510 1.386 . S
C515 C514 1.367 . S
C516 C510 1.483 . S
C516 C517 1.382 . S
C516 C518 1.403 . S
C517 H496 0.950 . S
C517 C516 1.382 . S
C517 C533 1.411 . S
C518 C516 1.403 . S
C518 C519 1.489 . S
C518 C532 1.411 . S
C519 C518 1.489 . S
C519 C520 1.383 . S
C519 C524 1.382 . S
C520 H497 0.950 . S
C520 C519 1.383 . S
C520 C521 1.395 . S
C521 H498 0.950 . S
C521 C520 1.395 . S
C521 C522 1.288 . S
C522 C521 1.288 . S
C522 C523 1.392 . S
C523 H499 0.951 . S
C523 C522 1.392 . S
C523 C524 1.392 . S
C524 H500 0.949 . S
C524 C519 1.382 . S
C524 C523 1.392 . S
C525 C526 1.376 . S
C525 C530 1.386 . S
C525 C531 1.483 . S
C526 H501 0.949 . S
C526 C525 1.376 . S
C526 C527 1.397 . S
C527 H502 0.950 . S
C527 C526 1.397 . S
C527 C528 1.391 . S
C528 C527 1.391 . S
C528 C529 1.405 . S
C529 H503 0.950 . S
C529 C528 1.405 . S
C529 C530 1.367 . S
C530 H504 0.950 . S
C530 C525 1.386 . S
C530 C529 1.367 . S
C531 C525 1.483 . S
C531 C532 1.382 . S
C531 C533 1.403 . S
C532 H505 0.950 . S
C532 C518 1.411 . S
C532 C531 1.382 . S
C533 C517 1.411 . S
C533 C531 1.403 . S
C533 C534 1.489 . S
C534 C533 1.489 . S
C534 C535 1.383 . S
C534 C539 1.382 . S
C535 H506 0.950 . S
C535 C534 1.383 . S
C535 C536 1.395 . S
C536 H507 0.950 . S
C536 C535 1.395 . S
C536 C537 1.288 . S
C537 C536 1.288 . S
C537 C538 1.392 . S
C538 H508 0.951 . S
C538 C537 1.392 . S
C538 C539 1.392 . S
C539 H509 0.949 . S
C539 C534 1.382 . S
C539 C538 1.392 . S
H540 C559 0.949 . S
H541 C560 0.950 . S
H542 C562 0.950 . S
H543 C563 0.950 . S
H544 C565 0.950 . S
H545 C568 0.950 . S
H546 C569 0.950 . S
H547 C571 0.951 . S
H548 C572 0.949 . S
H549 C574 0.949 . S
H550 C575 0.950 . S
H551 C577 0.950 . S
H552 C578 0.950 . S
H553 C580 0.950 . S
H554 C583 0.950 . S
H555 C584 0.950 . S
H556 C586 0.951 . S
H557 C587 0.949 . S
C558 C559 1.376 . S
C558 C563 1.386 . S
C558 C564 1.483 . S
C559 H540 0.949 . S
C559 C558 1.376 . S
C559 C560 1.397 . S
C560 H541 0.950 . S
C560 C559 1.397 . S
C560 C561 1.391 . S
C561 C560 1.391 . S
C561 C562 1.405 . S
C562 H542 0.950 . S
C562 C561 1.405 . S
C562 C563 1.367 . S
C563 H543 0.950 . S
C563 C558 1.386 . S
C563 C562 1.367 . S
C564 C558 1.483 . S
C564 C565 1.382 . S
C564 C566 1.403 . S
C565 H544 0.950 . S
C565 C564 1.382 . S
C565 C581 1.411 . S
C566 C564 1.403 . S
C566 C567 1.489 . S
C566 C580 1.411 . S
C567 C566 1.489 . S
C567 C568 1.383 . S
C567 C572 1.382 . S
C568 H545 0.950 . S
C568 C567 1.383 . S
C568 C569 1.395 . S
C569 H546 0.950 . S
C569 C568 1.395 . S
C569 C570 1.288 . S
C570 C569 1.288 . S
C570 C571 1.392 . S
C571 H547 0.951 . S
C571 C570 1.392 . S
C571 C572 1.392 . S
C572 H548 0.949 . S
C572 C567 1.382 . S
C572 C571 1.392 . S
C573 C574 1.376 . S
C573 C578 1.386 . S
C573 C579 1.483 . S
C574 H549 0.949 . S
C574 C573 1.376 . S
C574 C575 1.397 . S
C575 H550 0.950 . S
C575 C574 1.397 . S
C575 C576 1.391 . S
C576 C575 1.391 . S
C576 C577 1.405 . S
C577 H551 0.950 . S
C577 C576 1.405 . S
C577 C578 1.367 . S
C578 H552 0.950 . S
C578 C573 1.386 . S
C578 C577 1.367 . S
C579 C573 1.483 . S
C579 C580 1.382 . S
C579 C581 1.403 . S
C580 H553 0.950 . S
C580 C566 1.411 . S
C580 C579 1.382 . S
C581 C565 1.411 . S
C581 C579 1.403 . S
C581 C582 1.489 . S
C582 C581 1.489 . S
C582 C583 1.383 . S
C582 C587 1.382 . S
C583 H554 0.950 . S
C583 C582 1.383 . S
C583 C584 1.395 . S
C584 H555 0.950 . S
C584 C583 1.395 . S
C584 C585 1.288 . S
C585 C584 1.288 . S
C585 C586 1.392 . S
C586 H556 0.951 . S
C586 C585 1.392 . S
C586 C587 1.392 . S
C587 H557 0.949 . S
C587 C582 1.382 . S
C587 C586 1.392 . S
H588 C607 0.949 . S
H589 C608 0.950 . S
H590 C610 0.950 . S
H591 C611 0.950 . S
H592 C613 0.950 . S
H593 C616 0.950 . S
H594 C617 0.950 . S
H595 C619 0.951 . S
H596 C620 0.949 . S
H597 C622 0.949 . S
H598 C623 0.950 . S
H599 C625 0.950 . S
H600 C626 0.950 . S
H601 C628 0.950 . S
H602 C631 0.950 . S
H603 C632 0.950 . S
H604 C634 0.951 . S
H605 C635 0.949 . S
C606 C607 1.376 . S
C606 C611 1.386 . S
C606 C612 1.483 . S
C607 H588 0.949 . S
C607 C606 1.376 . S
C607 C608 1.397 . S
C608 H589 0.950 . S
C608 C607 1.397 . S
C608 C609 1.391 . S
C609 C608 1.391 . S
C609 C610 1.405 . S
C610 H590 0.950 . S
C610 C609 1.405 . S
C610 C611 1.367 . S
C611 H591 0.950 . S
C611 C606 1.386 . S
C611 C610 1.367 . S
C612 C606 1.483 . S
C612 C613 1.382 . S
C612 C614 1.403 . S
C613 H592 0.950 . S
C613 C612 1.382 . S
C613 C629 1.411 . S
C614 C612 1.403 . S
C614 C615 1.489 . S
C614 C628 1.411 . S
C615 C614 1.489 . S
C615 C616 1.383 . S
C615 C620 1.382 . S
C616 H593 0.950 . S
C616 C615 1.383 . S
C616 C617 1.395 . S
C617 H594 0.950 . S
C617 C616 1.395 . S
C617 C618 1.288 . S
C618 C617 1.288 . S
C618 C619 1.392 . S
C619 H595 0.951 . S
C619 C618 1.392 . S
C619 C620 1.392 . S
C620 H596 0.949 . S
C620 C615 1.382 . S
C620 C619 1.392 . S
C621 C622 1.376 . S
C621 C626 1.386 . S
C621 C627 1.483 . S
C622 H597 0.949 . S
C622 C621 1.376 . S
C622 C623 1.397 . S
C623 H598 0.950 . S
C623 C622 1.397 . S
C623 C624 1.391 . S
C624 C623 1.391 . S
C624 C625 1.405 . S
C625 H599 0.950 . S
C625 C624 1.405 . S
C625 C626 1.367 . S
C626 H600 0.950 . S
C626 C621 1.386 . S
C626 C625 1.367 . S
C627 C621 1.483 . S
C627 C628 1.382 . S
C627 C629 1.403 . S
C628 H601 0.950 . S
C628 C614 1.411 . S
C628 C627 1.382 . S
C629 C613 1.411 . S
C629 C627 1.403 . S
C629 C630 1.489 . S
C630 C629 1.489 . S
C630 C631 1.383 . S
C630 C635 1.382 . S
C631 H602 0.950 . S
C631 C630 1.383 . S
C631 C632 1.395 . S
C632 H603 0.950 . S
C632 C631 1.395 . S
C632 C633 1.288 . S
C633 C632 1.288 . S
C633 C634 1.392 . S
C634 H604 0.951 . S
C634 C633 1.392 . S
C634 C635 1.392 . S
C635 H605 0.949 . S
C635 C630 1.382 . S
C635 C634 1.392 . S
H636 C655 0.949 . S
H637 C656 0.950 . S
H638 C658 0.950 . S
H639 C659 0.950 . S
H640 C661 0.950 . S
H641 C664 0.950 . S
H642 C665 0.950 . S
H643 C667 0.951 . S
H644 C668 0.949 . S
H645 C670 0.949 . S
H646 C671 0.950 . S
H647 C673 0.950 . S
H648 C674 0.950 . S
H649 C676 0.950 . S
H650 C679 0.950 . S
H651 C680 0.950 . S
H652 C682 0.951 . S
H653 C683 0.949 . S
C654 C655 1.376 . S
C654 C659 1.386 . S
C654 C660 1.483 . S
C655 H636 0.949 . S
C655 C654 1.376 . S
C655 C656 1.397 . S
C656 H637 0.950 . S
C656 C655 1.397 . S
C656 C657 1.391 . S
C657 C656 1.391 . S
C657 C658 1.405 . S
C658 H638 0.950 . S
C658 C657 1.405 . S
C658 C659 1.367 . S
C659 H639 0.950 . S
C659 C654 1.386 . S
C659 C658 1.367 . S
C660 C654 1.483 . S
C660 C661 1.382 . S
C660 C662 1.403 . S
C661 H640 0.950 . S
C661 C660 1.382 . S
C661 C677 1.411 . S
C662 C660 1.403 . S
C662 C663 1.489 . S
C662 C676 1.411 . S
C663 C662 1.489 . S
C663 C664 1.383 . S
C663 C668 1.382 . S
C664 H641 0.950 . S
C664 C663 1.383 . S
C664 C665 1.395 . S
C665 H642 0.950 . S
C665 C664 1.395 . S
C665 C666 1.288 . S
C666 C665 1.288 . S
C666 C667 1.392 . S
C667 H643 0.951 . S
C667 C666 1.392 . S
C667 C668 1.392 . S
C668 H644 0.949 . S
C668 C663 1.382 . S
C668 C667 1.392 . S
C669 C670 1.376 . S
C669 C674 1.386 . S
C669 C675 1.483 . S
C670 H645 0.949 . S
C670 C669 1.376 . S
C670 C671 1.397 . S
C671 H646 0.950 . S
C671 C670 1.397 . S
C671 C672 1.391 . S
C672 C671 1.391 . S
C672 C673 1.405 . S
C673 H647 0.950 . S
C673 C672 1.405 . S
C673 C674 1.367 . S
C674 H648 0.950 . S
C674 C669 1.386 . S
C674 C673 1.367 . S
C675 C669 1.483 . S
C675 C676 1.382 . S
C675 C677 1.403 . S
C676 H649 0.950 . S
C676 C662 1.411 . S
C676 C675 1.382 . S
C677 C661 1.411 . S
C677 C675 1.403 . S
C677 C678 1.489 . S
C678 C677 1.489 . S
C678 C679 1.383 . S
C678 C683 1.382 . S
C679 H650 0.950 . S
C679 C678 1.383 . S
C679 C680 1.395 . S
C680 H651 0.950 . S
C680 C679 1.395 . S
C680 C681 1.288 . S
C681 C680 1.288 . S
C681 C682 1.392 . S
C682 H652 0.951 . S
C682 C681 1.392 . S
C682 C683 1.392 . S
C683 H653 0.949 . S
C683 C678 1.382 . S
C683 C682 1.392 . S
H684 C703 0.949 . S
H685 C704 0.950 . S
H686 C706 0.950 . S
H687 C707 0.950 . S
H688 C709 0.950 . S
H689 C712 0.950 . S
H690 C713 0.950 . S
H691 C715 0.951 . S
H692 C716 0.949 . S
H693 C718 0.949 . S
H694 C719 0.950 . S
H695 C721 0.950 . S
H696 C722 0.950 . S
H697 C724 0.950 . S
H698 C727 0.950 . S
H699 C728 0.950 . S
H700 C730 0.951 . S
H701 C731 0.949 . S
C702 C703 1.376 . S
C702 C707 1.386 1_655 S
C702 C708 1.483 . S
C703 H684 0.949 . S
C703 C702 1.376 . S
C703 C704 1.397 . S
C704 H685 0.950 . S
C704 C703 1.397 . S
C704 C705 1.391 . S
C705 C704 1.391 . S
C705 C706 1.405 1_655 S
C706 H686 0.950 . S
C706 C705 1.405 1_455 S
C706 C707 1.367 . S
C707 H687 0.950 . S
C707 C702 1.386 1_455 S
C707 C706 1.367 . S
C708 C702 1.483 . S
C708 C709 1.382 . S
C708 C710 1.403 1_655 S
C709 H688 0.950 . S
C709 C708 1.382 . S
C709 C725 1.411 . S
C710 C708 1.403 1_455 S
C710 C711 1.489 . S
C710 C724 1.411 . S
C711 C710 1.489 . S
C711 C712 1.383 1_455 S
C711 C716 1.382 . S
C712 H689 0.950 . S
C712 C711 1.383 1_655 S
C712 C713 1.395 . S
C713 H690 0.950 . S
C713 C712 1.395 . S
C713 C714 1.288 1_655 S
C714 C713 1.288 1_455 S
C714 C715 1.392 . S
C715 H691 0.951 . S
C715 C714 1.392 . S
C715 C716 1.392 . S
C716 H692 0.949 . S
C716 C711 1.382 . S
C716 C715 1.392 . S
C717 C718 1.376 . S
C717 C722 1.386 1_455 S
C717 C723 1.483 . S
C718 H693 0.949 . S
C718 C717 1.376 . S
C718 C719 1.397 . S
C719 H694 0.950 . S
C719 C718 1.397 . S
C719 C720 1.391 . S
C720 C719 1.391 . S
C720 C721 1.405 1_455 S
C721 H695 0.950 . S
C721 C720 1.405 1_655 S
C721 C722 1.367 . S
C722 H696 0.950 . S
C722 C717 1.386 1_655 S
C722 C721 1.367 . S
C723 C717 1.483 . S
C723 C724 1.382 . S
C723 C725 1.403 1_455 S
C724 H697 0.950 . S
C724 C710 1.411 . S
C724 C723 1.382 . S
C725 C709 1.411 . S
C725 C723 1.403 1_655 S
C725 C726 1.489 . S
C726 C725 1.489 . S
C726 C727 1.383 1_655 S
C726 C731 1.382 . S
C727 H698 0.950 . S
C727 C726 1.383 1_455 S
C727 C728 1.395 . S
C728 H699 0.950 . S
C728 C727 1.395 . S
C728 C729 1.288 1_455 S
C729 C728 1.288 1_655 S
C729 C730 1.392 . S
C730 H700 0.951 . S
C730 C729 1.392 . S
C730 C731 1.392 . S
C731 H701 0.949 . S
C731 C726 1.382 . S
C731 C730 1.392 . S
H732 C751 0.949 . S
H733 C752 0.950 . S
H734 C754 0.950 . S
H735 C755 0.950 . S
H736 C757 0.950 . S
H737 C760 0.950 . S
H738 C761 0.950 . S
H739 C763 0.951 . S
H740 C764 0.949 . S
H741 C766 0.949 . S
H742 C767 0.950 . S
H743 C769 0.950 . S
H744 C770 0.950 . S
H745 C772 0.950 . S
H746 C775 0.950 . S
H747 C776 0.950 . S
H748 C778 0.951 . S
H749 C779 0.949 . S
C750 C751 1.376 . S
C750 C755 1.386 . S
C750 C756 1.483 . S
C751 H732 0.949 . S
C751 C750 1.376 . S
C751 C752 1.397 . S
C752 H733 0.950 . S
C752 C751 1.397 . S
C752 C753 1.391 . S
C753 C752 1.391 . S
C753 C754 1.405 . S
C754 H734 0.950 . S
C754 C753 1.405 . S
C754 C755 1.367 . S
C755 H735 0.950 . S
C755 C750 1.386 . S
C755 C754 1.367 . S
C756 C750 1.483 . S
C756 C757 1.382 . S
C756 C758 1.403 . S
C757 H736 0.950 . S
C757 C756 1.382 . S
C757 C773 1.411 . S
C758 C756 1.403 . S
C758 C759 1.489 . S
C758 C772 1.411 . S
C759 C758 1.489 . S
C759 C760 1.383 . S
C759 C764 1.382 . S
C760 H737 0.950 . S
C760 C759 1.383 . S
C760 C761 1.395 . S
C761 H738 0.950 . S
C761 C760 1.395 . S
C761 C762 1.288 . S
C762 C761 1.288 . S
C762 C763 1.392 . S
C763 H739 0.951 . S
C763 C762 1.392 . S
C763 C764 1.392 . S
C764 H740 0.949 . S
C764 C759 1.382 . S
C764 C763 1.392 . S
C765 C766 1.376 . S
C765 C770 1.386 . S
C765 C771 1.483 . S
C766 H741 0.949 . S
C766 C765 1.376 . S
C766 C767 1.397 . S
C767 H742 0.950 . S
C767 C766 1.397 . S
C767 C768 1.391 . S
C768 C767 1.391 . S
C768 C769 1.405 . S
C769 H743 0.950 . S
C769 C768 1.405 . S
C769 C770 1.367 . S
C770 H744 0.950 . S
C770 C765 1.386 . S
C770 C769 1.367 . S
C771 C765 1.483 . S
C771 C772 1.382 . S
C771 C773 1.403 . S
C772 H745 0.950 . S
C772 C758 1.411 . S
C772 C771 1.382 . S
C773 C757 1.411 . S
C773 C771 1.403 . S
C773 C774 1.489 . S
C774 C773 1.489 . S
C774 C775 1.383 . S
C774 C779 1.382 . S
C775 H746 0.950 . S
C775 C774 1.383 . S
C775 C776 1.395 . S
C776 H747 0.950 . S
C776 C775 1.395 . S
C776 C777 1.288 . S
C777 C776 1.288 . S
C777 C778 1.392 . S
C778 H748 0.951 . S
C778 C777 1.392 . S
C778 C779 1.392 . S
C779 H749 0.949 . S
C779 C774 1.382 . S
C779 C778 1.392 . S
H780 C799 0.949 . S
H781 C800 0.950 . S
H782 C802 0.950 . S
H783 C803 0.950 . S
H784 C805 0.950 . S
H785 C808 0.950 . S
H786 C809 0.950 . S
H787 C811 0.951 . S
H788 C812 0.949 . S
H789 C814 0.949 . S
H790 C815 0.950 . S
H791 C817 0.950 . S
H792 C818 0.950 . S
H793 C820 0.950 . S
H794 C823 0.950 . S
H795 C824 0.950 . S
H796 C826 0.951 . S
H797 C827 0.949 . S
C798 C799 1.376 . S
C798 C803 1.386 1_545 S
C798 C804 1.483 . S
C799 H780 0.949 . S
C799 C798 1.376 . S
C799 C800 1.397 . S
C800 H781 0.950 . S
C800 C799 1.397 . S
C800 C801 1.391 . S
C801 C800 1.391 . S
C801 C802 1.405 1_545 S
C802 H782 0.950 . S
C802 C801 1.405 1_565 S
C802 C803 1.367 . S
C803 H783 0.950 . S
C803 C798 1.386 1_565 S
C803 C802 1.367 . S
C804 C798 1.483 . S
C804 C805 1.382 . S
C804 C806 1.403 1_545 S
C805 H784 0.950 . S
C805 C804 1.382 . S
C805 C821 1.411 . S
C806 C804 1.403 1_565 S
C806 C807 1.489 . S
C806 C820 1.411 . S
C807 C806 1.489 . S
C807 C808 1.383 1_565 S
C807 C812 1.382 . S
C808 H785 0.950 . S
C808 C807 1.383 1_545 S
C808 C809 1.395 . S
C809 H786 0.950 . S
C809 C808 1.395 . S
C809 C810 1.288 1_545 S
C810 C809 1.288 1_565 S
C810 C811 1.392 . S
C811 H787 0.951 . S
C811 C810 1.392 . S
C811 C812 1.392 . S
C812 H788 0.949 . S
C812 C807 1.382 . S
C812 C811 1.392 . S
C813 C814 1.376 . S
C813 C818 1.386 1_565 S
C813 C819 1.483 . S
C814 H789 0.949 . S
C814 C813 1.376 . S
C814 C815 1.397 . S
C815 H790 0.950 . S
C815 C814 1.397 . S
C815 C816 1.391 . S
C816 C815 1.391 . S
C816 C817 1.405 1_565 S
C817 H791 0.950 . S
C817 C816 1.405 1_545 S
C817 C818 1.367 . S
C818 H792 0.950 . S
C818 C813 1.386 1_545 S
C818 C817 1.367 . S
C819 C813 1.483 . S
C819 C820 1.382 . S
C819 C821 1.403 1_565 S
C820 H793 0.950 . S
C820 C806 1.411 . S
C820 C819 1.382 . S
C821 C805 1.411 . S
C821 C819 1.403 1_545 S
C821 C822 1.489 . S
C822 C821 1.489 . S
C822 C823 1.383 1_545 S
C822 C827 1.382 . S
C823 H794 0.950 . S
C823 C822 1.383 1_565 S
C823 C824 1.395 . S
C824 H795 0.950 . S
C824 C823 1.395 . S
C824 C825 1.288 1_565 S
C825 C824 1.288 1_545 S
C825 C826 1.392 . S
C826 H796 0.951 . S
C826 C825 1.392 . S
C826 C827 1.392 . S
C827 H797 0.949 . S
C827 C822 1.382 . S
C827 C826 1.392 . S
H828 C847 0.949 . S
H829 C848 0.950 . S
H830 C850 0.950 . S
H831 C851 0.950 . S
H832 C853 0.950 . S
H833 C856 0.950 . S
H834 C857 0.950 . S
H835 C859 0.951 . S
H836 C860 0.949 . S
H837 C862 0.949 . S
H838 C863 0.950 . S
H839 C865 0.950 . S
H840 C866 0.950 . S
H841 C868 0.950 . S
H842 C871 0.950 . S
H843 C872 0.950 . S
H844 C874 0.951 . S
H845 C875 0.949 . S
C846 C847 1.411 . S
C846 C851 1.371 1_545 S
C846 C852 1.498 . S
C847 H828 0.949 . S
C847 C846 1.411 . S
C847 C848 1.397 . S
C848 H829 0.950 . S
C848 C847 1.397 . S
C848 C849 1.391 1_545 S
C849 C848 1.391 1_565 S
C849 C850 1.405 . S
C850 H830 0.950 . S
C850 C849 1.405 . S
C850 C851 1.367 . S
C851 H831 0.950 . S
C851 C846 1.371 1_565 S
C851 C850 1.367 . S
C852 C846 1.498 . S
C852 C853 1.349 . S
C852 C854 1.398 1_545 S
C853 H832 0.950 . S
C853 C852 1.349 . S
C853 C869 1.438 . S
C854 C852 1.398 1_565 S
C854 C855 1.476 . S
C854 C868 1.428 . S
C855 C854 1.476 . S
C855 C856 1.381 1_565 S
C855 C860 1.383 . S
C856 H833 0.950 . S
C856 C855 1.381 1_545 S
C856 C857 1.395 . S
C857 H834 0.950 . S
C857 C856 1.395 . S
C857 C858 1.288 . S
C858 C857 1.288 . S
C858 C859 1.392 1_545 S
C859 H835 0.951 . S
C859 C858 1.392 1_565 S
C859 C860 1.392 . S
C860 H836 0.949 . S
C860 C855 1.383 . S
C860 C859 1.392 . S
C861 C862 1.398 . S
C861 C866 1.377 1_565 S
C861 C867 1.498 . S
C862 H837 0.949 . S
C862 C861 1.398 . S
C862 C863 1.397 . S
C863 H838 0.950 . S
C863 C862 1.397 . S
C863 C864 1.391 1_565 S
C864 C863 1.391 1_545 S
C864 C865 1.405 . S
C865 H839 0.950 . S
C865 C864 1.405 . S
C865 C866 1.367 . S
C866 H840 0.950 . S
C866 C861 1.377 1_545 S
C866 C865 1.367 . S
C867 C861 1.498 . S
C867 C868 1.356 . S
C867 C869 1.398 1_565 S
C868 H841 0.950 . S
C868 C854 1.428 . S
C868 C867 1.356 . S
C869 C853 1.438 . S
C869 C867 1.398 1_545 S
C869 C870 1.476 . S
C870 C869 1.476 . S
C870 C871 1.363 1_545 S
C870 C875 1.392 . S
C871 H842 0.950 . S
C871 C870 1.363 1_565 S
C871 C872 1.395 . S
C872 H843 0.950 . S
C872 C871 1.395 . S
C872 C873 1.288 . S
C873 C872 1.288 . S
C873 C874 1.392 1_565 S
C874 H844 0.951 . S
C874 C873 1.392 1_545 S
C874 C875 1.392 . S
C875 H845 0.949 . S
C875 C870 1.392 . S
C875 C874 1.392 . S
H876 C895 0.949 . S
H877 C896 0.950 . S
H878 C898 0.950 . S
H879 C899 0.950 . S
H880 C901 0.950 . S
H881 C904 0.950 . S
H882 C905 0.950 . S
H883 C907 0.951 . S
H884 C908 0.949 . S
H885 C910 0.949 . S
H886 C911 0.950 . S
H887 C913 0.950 . S
H888 C914 0.950 . S
H889 C916 0.950 . S
H890 C919 0.950 . S
H891 C920 0.950 . S
H892 C922 0.951 . S
H893 C923 0.949 . S
C894 C895 1.376 . S
C894 C899 1.386 1_455 S
C894 C900 1.483 . S
C895 H876 0.949 . S
C895 C894 1.376 . S
C895 C896 1.397 . S
C896 H877 0.950 . S
C896 C895 1.397 . S
C896 C897 1.391 . S
C897 C896 1.391 . S
C897 C898 1.405 1_455 S
C898 H878 0.950 . S
C898 C897 1.405 1_655 S
C898 C899 1.367 . S
C899 H879 0.950 . S
C899 C894 1.386 1_655 S
C899 C898 1.367 . S
C900 C894 1.483 . S
C900 C901 1.382 . S
C900 C902 1.403 1_455 S
C901 H880 0.950 . S
C901 C900 1.382 . S
C901 C917 1.411 . S
C902 C900 1.403 1_655 S
C902 C903 1.489 . S
C902 C916 1.411 . S
C903 C902 1.489 . S
C903 C904 1.383 1_655 S
C903 C908 1.382 . S
C904 H881 0.950 . S
C904 C903 1.383 1_455 S
C904 C905 1.395 . S
C905 H882 0.950 . S
C905 C904 1.395 . S
C905 C906 1.288 1_455 S
C906 C905 1.288 1_655 S
C906 C907 1.392 . S
C907 H883 0.951 . S
C907 C906 1.392 . S
C907 C908 1.392 . S
C908 H884 0.949 . S
C908 C903 1.382 . S
C908 C907 1.392 . S
C909 C910 1.376 . S
C909 C914 1.386 1_655 S
C909 C915 1.483 . S
C910 H885 0.949 . S
C910 C909 1.376 . S
C910 C911 1.397 . S
C911 H886 0.950 . S
C911 C910 1.397 . S
C911 C912 1.391 . S
C912 C911 1.391 . S
C912 C913 1.405 1_655 S
C913 H887 0.950 . S
C913 C912 1.405 1_455 S
C913 C914 1.367 . S
C914 H888 0.950 . S
C914 C909 1.386 1_455 S
C914 C913 1.367 . S
C915 C909 1.483 . S
C915 C916 1.382 . S
C915 C917 1.403 1_655 S
C916 H889 0.950 . S
C916 C902 1.411 . S
C916 C915 1.382 . S
C917 C901 1.411 . S
C917 C915 1.403 1_455 S
C917 C918 1.489 . S
C918 C917 1.489 . S
C918 C919 1.383 1_455 S
C918 C923 1.382 . S
C919 H890 0.950 . S
C919 C918 1.383 1_655 S
C919 C920 1.395 . S
C920 H891 0.950 . S
C920 C919 1.395 . S
C920 C921 1.288 1_655 S
C921 C920 1.288 1_455 S
C921 C922 1.392 . S
C922 H892 0.951 . S
C922 C921 1.392 . S
C922 C923 1.392 . S
C923 H893 0.949 . S
C923 C918 1.382 . S
C923 C922 1.392 . S
H924 C943 0.949 . S
H925 C944 0.950 . S
H926 C946 0.950 . S
H927 C947 0.950 . S
H928 C949 0.950 . S
H929 C952 0.950 . S
H930 C953 0.950 . S
H931 C955 0.951 . S
H932 C956 0.949 . S
H933 C958 0.949 . S
H934 C959 0.950 . S
H935 C961 0.950 . S
H936 C962 0.950 . S
H937 C964 0.950 . S
H938 C967 0.950 . S
H939 C968 0.950 . S
H940 C970 0.951 . S
H941 C971 0.949 . S
C942 C943 1.376 . S
C942 C947 1.386 . S
C942 C948 1.483 . S
C943 H924 0.949 . S
C943 C942 1.376 . S
C943 C944 1.397 . S
C944 H925 0.950 . S
C944 C943 1.397 . S
C944 C945 1.391 . S
C945 C944 1.391 . S
C945 C946 1.405 . S
C946 H926 0.950 . S
C946 C945 1.405 . S
C946 C947 1.367 . S
C947 H927 0.950 . S
C947 C942 1.386 . S
C947 C946 1.367 . S
C948 C942 1.483 . S
C948 C949 1.382 . S
C948 C950 1.403 . S
C949 H928 0.950 . S
C949 C948 1.382 . S
C949 C965 1.411 . S
C950 C948 1.403 . S
C950 C951 1.489 . S
C950 C964 1.411 . S
C951 C950 1.489 . S
C951 C952 1.383 . S
C951 C956 1.382 . S
C952 H929 0.950 . S
C952 C951 1.383 . S
C952 C953 1.395 . S
C953 H930 0.950 . S
C953 C952 1.395 . S
C953 C954 1.288 . S
C954 C953 1.288 . S
C954 C955 1.392 . S
C955 H931 0.951 . S
C955 C954 1.392 . S
C955 C956 1.392 . S
C956 H932 0.949 . S
C956 C951 1.382 . S
C956 C955 1.392 . S
C957 C958 1.376 . S
C957 C962 1.386 . S
C957 C963 1.483 . S
C958 H933 0.949 . S
C958 C957 1.376 . S
C958 C959 1.397 . S
C959 H934 0.950 . S
C959 C958 1.397 . S
C959 C960 1.391 . S
C960 C959 1.391 . S
C960 C961 1.405 . S
C961 H935 0.950 . S
C961 C960 1.405 . S
C961 C962 1.367 . S
C962 H936 0.950 . S
C962 C957 1.386 . S
C962 C961 1.367 . S
C963 C957 1.483 . S
C963 C964 1.382 . S
C963 C965 1.403 . S
C964 H937 0.950 . S
C964 C950 1.411 . S
C964 C963 1.382 . S
C965 C949 1.411 . S
C965 C963 1.403 . S
C965 C966 1.489 . S
C966 C965 1.489 . S
C966 C967 1.383 . S
C966 C971 1.382 . S
C967 H938 0.950 . S
C967 C966 1.383 . S
C967 C968 1.395 . S
C968 H939 0.950 . S
C968 C967 1.395 . S
C968 C969 1.288 . S
C969 C968 1.288 . S
C969 C970 1.392 . S
C970 H940 0.951 . S
C970 C969 1.392 . S
C970 C971 1.392 . S
C971 H941 0.949 . S
C971 C966 1.382 . S
C971 C970 1.392 . S
H972 C991 0.949 . S
H973 C992 0.950 . S
H974 C994 0.950 . S
H975 C995 0.950 . S
H976 C997 0.950 . S
H977 C1000 0.950 . S
H978 C1001 0.950 . S
H979 C1003 0.951 . S
H980 C1004 0.949 . S
H981 C1006 0.949 . S
H982 C1007 0.950 . S
H983 C1009 0.950 . S
H984 C1010 0.950 . S
H985 C1012 0.950 . S
H986 C1015 0.950 . S
H987 C1016 0.950 . S
H988 C1018 0.951 . S
H989 C1019 0.949 . S
C990 C991 1.376 . S
C990 C995 1.386 . S
C990 C996 1.483 . S
C991 H972 0.949 . S
C991 C990 1.376 . S
C991 C992 1.397 . S
C992 H973 0.950 . S
C992 C991 1.397 . S
C992 C993 1.391 . S
C993 C992 1.391 . S
C993 C994 1.405 . S
C994 H974 0.950 . S
C994 C993 1.405 . S
C994 C995 1.367 . S
C995 H975 0.950 . S
C995 C990 1.386 . S
C995 C994 1.367 . S
C996 C990 1.483 . S
C996 C997 1.382 . S
C996 C998 1.403 . S
C997 H976 0.950 . S
C997 C996 1.382 . S
C997 C1013 1.411 . S
C998 C996 1.403 . S
C998 C999 1.489 . S
C998 C1012 1.411 . S
C999 C998 1.489 . S
C999 C1000 1.383 . S
C999 C1004 1.382 . S
C1000 H977 0.950 . S
C1000 C999 1.383 . S
C1000 C1001 1.395 . S
C1001 H978 0.950 . S
C1001 C1000 1.395 . S
C1001 C1002 1.288 . S
C1002 C1001 1.288 . S
C1002 C1003 1.392 . S
C1003 H979 0.951 . S
C1003 C1002 1.392 . S
C1003 C1004 1.392 . S
C1004 H980 0.949 . S
C1004 C999 1.382 . S
C1004 C1003 1.392 . S
C1005 C1006 1.376 . S
C1005 C1010 1.386 . S
C1005 C1011 1.483 . S
C1006 H981 0.949 . S
C1006 C1005 1.376 . S
C1006 C1007 1.397 . S
C1007 H982 0.950 . S
C1007 C1006 1.397 . S
C1007 C1008 1.391 . S
C1008 C1007 1.391 . S
C1008 C1009 1.405 . S
C1009 H983 0.950 . S
C1009 C1008 1.405 . S
C1009 C1010 1.367 . S
C1010 H984 0.950 . S
C1010 C1005 1.386 . S
C1010 C1009 1.367 . S
C1011 C1005 1.483 . S
C1011 C1012 1.382 . S
C1011 C1013 1.403 . S
C1012 H985 0.950 . S
C1012 C998 1.411 . S
C1012 C1011 1.382 . S
C1013 C997 1.411 . S
C1013 C1011 1.403 . S
C1013 C1014 1.489 . S
C1014 C1013 1.489 . S
C1014 C1015 1.383 . S
C1014 C1019 1.382 . S
C1015 H986 0.950 . S
C1015 C1014 1.383 . S
C1015 C1016 1.395 . S
C1016 H987 0.950 . S
C1016 C1015 1.395 . S
C1016 C1017 1.288 . S
C1017 C1016 1.288 . S
C1017 C1018 1.392 . S
C1018 H988 0.951 . S
C1018 C1017 1.392 . S
C1018 C1019 1.392 . S
C1019 H989 0.949 . S
C1019 C1014 1.382 . S
C1019 C1018 1.392 . S
H1020 C1039 0.949 . S
H1021 C1040 0.950 . S
H1022 C1042 0.950 . S
H1023 C1043 0.950 . S
H1024 C1045 0.950 . S
H1025 C1048 0.950 . S
H1026 C1049 0.950 . S
H1027 C1051 0.951 . S
H1028 C1052 0.949 . S
H1029 C1054 0.949 . S
H1030 C1055 0.950 . S
H1031 C1057 0.950 . S
H1032 C1058 0.950 . S
H1033 C1060 0.950 . S
H1034 C1063 0.950 . S
H1035 C1064 0.950 . S
H1036 C1066 0.951 . S
H1037 C1067 0.949 . S
C1038 C1039 1.376 . S
C1038 C1043 1.386 . S
C1038 C1044 1.483 . S
C1039 H1020 0.949 . S
C1039 C1038 1.376 . S
C1039 C1040 1.397 . S
C1040 H1021 0.950 . S
C1040 C1039 1.397 . S
C1040 C1041 1.391 . S
C1041 C1040 1.391 . S
C1041 C1042 1.405 . S
C1042 H1022 0.950 . S
C1042 C1041 1.405 . S
C1042 C1043 1.367 . S
C1043 H1023 0.950 . S
C1043 C1038 1.386 . S
C1043 C1042 1.367 . S
C1044 C1038 1.483 . S
C1044 C1045 1.382 . S
C1044 C1046 1.403 . S
C1045 H1024 0.950 . S
C1045 C1044 1.382 . S
C1045 C1061 1.411 . S
C1046 C1044 1.403 . S
C1046 C1047 1.489 . S
C1046 C1060 1.411 . S
C1047 C1046 1.489 . S
C1047 C1048 1.383 . S
C1047 C1052 1.382 . S
C1048 H1025 0.950 . S
C1048 C1047 1.383 . S
C1048 C1049 1.395 . S
C1049 H1026 0.950 . S
C1049 C1048 1.395 . S
C1049 C1050 1.288 . S
C1050 C1049 1.288 . S
C1050 C1051 1.392 . S
C1051 H1027 0.951 . S
C1051 C1050 1.392 . S
C1051 C1052 1.392 . S
C1052 H1028 0.949 . S
C1052 C1047 1.382 . S
C1052 C1051 1.392 . S
C1053 C1054 1.376 . S
C1053 C1058 1.386 . S
C1053 C1059 1.483 . S
C1054 H1029 0.949 . S
C1054 C1053 1.376 . S
C1054 C1055 1.397 . S
C1055 H1030 0.950 . S
C1055 C1054 1.397 . S
C1055 C1056 1.391 . S
C1056 C1055 1.391 . S
C1056 C1057 1.405 . S
C1057 H1031 0.950 . S
C1057 C1056 1.405 . S
C1057 C1058 1.367 . S
C1058 H1032 0.950 . S
C1058 C1053 1.386 . S
C1058 C1057 1.367 . S
C1059 C1053 1.483 . S
C1059 C1060 1.382 . S
C1059 C1061 1.403 . S
C1060 H1033 0.950 . S
C1060 C1046 1.411 . S
C1060 C1059 1.382 . S
C1061 C1045 1.411 . S
C1061 C1059 1.403 . S
C1061 C1062 1.489 . S
C1062 C1061 1.489 . S
C1062 C1063 1.383 . S
C1062 C1067 1.382 . S
C1063 H1034 0.950 . S
C1063 C1062 1.383 . S
C1063 C1064 1.395 . S
C1064 H1035 0.950 . S
C1064 C1063 1.395 . S
C1064 C1065 1.288 . S
C1065 C1064 1.288 . S
C1065 C1066 1.392 . S
C1066 H1036 0.951 . S
C1066 C1065 1.392 . S
C1066 C1067 1.392 . S
C1067 H1037 0.949 . S
C1067 C1062 1.382 . S
C1067 C1066 1.392 . S
H1068 C1087 0.949 . S
H1069 C1088 0.950 . S
H1070 C1090 0.950 . S
H1071 C1091 0.950 . S
H1072 C1093 0.950 . S
H1073 C1096 0.950 . S
H1074 C1097 0.950 . S
H1075 C1099 0.951 . S
H1076 C1100 0.949 . S
H1077 C1102 0.949 . S
H1078 C1103 0.950 . S
H1079 C1105 0.950 . S
H1080 C1106 0.950 . S
H1081 C1108 0.950 . S
H1082 C1111 0.950 . S
H1083 C1112 0.950 . S
H1084 C1114 0.951 . S
H1085 C1115 0.949 . S
C1086 C1087 1.376 . S
C1086 C1091 1.386 . S
C1086 C1092 1.483 . S
C1087 H1068 0.949 . S
C1087 C1086 1.376 . S
C1087 C1088 1.397 . S
C1088 H1069 0.950 . S
C1088 C1087 1.397 . S
C1088 C1089 1.391 . S
C1089 C1088 1.391 . S
C1089 C1090 1.405 . S
C1090 H1070 0.950 . S
C1090 C1089 1.405 . S
C1090 C1091 1.367 . S
C1091 H1071 0.950 . S
C1091 C1086 1.386 . S
C1091 C1090 1.367 . S
C1092 C1086 1.483 . S
C1092 C1093 1.382 . S
C1092 C1094 1.403 . S
C1093 H1072 0.950 . S
C1093 C1092 1.382 . S
C1093 C1109 1.411 . S
C1094 C1092 1.403 . S
C1094 C1095 1.489 . S
C1094 C1108 1.411 . S
C1095 C1094 1.489 . S
C1095 C1096 1.383 . S
C1095 C1100 1.382 . S
C1096 H1073 0.950 . S
C1096 C1095 1.383 . S
C1096 C1097 1.395 . S
C1097 H1074 0.950 . S
C1097 C1096 1.395 . S
C1097 C1098 1.288 . S
C1098 C1097 1.288 . S
C1098 C1099 1.392 . S
C1099 H1075 0.951 . S
C1099 C1098 1.392 . S
C1099 C1100 1.392 . S
C1100 H1076 0.949 . S
C1100 C1095 1.382 . S
C1100 C1099 1.392 . S
C1101 C1102 1.376 . S
C1101 C1106 1.386 . S
C1101 C1107 1.483 . S
C1102 H1077 0.949 . S
C1102 C1101 1.376 . S
C1102 C1103 1.397 . S
C1103 H1078 0.950 . S
C1103 C1102 1.397 . S
C1103 C1104 1.391 . S
C1104 C1103 1.391 . S
C1104 C1105 1.405 . S
C1105 H1079 0.950 . S
C1105 C1104 1.405 . S
C1105 C1106 1.367 . S
C1106 H1080 0.950 . S
C1106 C1101 1.386 . S
C1106 C1105 1.367 . S
C1107 C1101 1.483 . S
C1107 C1108 1.382 . S
C1107 C1109 1.403 . S
C1108 H1081 0.950 . S
C1108 C1094 1.411 . S
C1108 C1107 1.382 . S
C1109 C1093 1.411 . S
C1109 C1107 1.403 . S
C1109 C1110 1.489 . S
C1110 C1109 1.489 . S
C1110 C1111 1.383 . S
C1110 C1115 1.382 . S
C1111 H1082 0.950 . S
C1111 C1110 1.383 . S
C1111 C1112 1.395 . S
C1112 H1083 0.950 . S
C1112 C1111 1.395 . S
C1112 C1113 1.288 . S
C1113 C1112 1.288 . S
C1113 C1114 1.392 . S
C1114 H1084 0.951 . S
C1114 C1113 1.392 . S
C1114 C1115 1.392 . S
C1115 H1085 0.949 . S
C1115 C1110 1.382 . S
C1115 C1114 1.392 . S
C1116 C1117 1.391 . S
C1116 C1118 1.394 . S
C1116 H1132 0.931 1_655 S
C1117 C1116 1.391 . S
C1117 C1121 1.376 . S
C1118 C1116 1.394 . S
C1118 C1119 1.369 . S
C1118 C1122 1.531 1_655 S
C1119 C1118 1.369 . S
C1119 C1120 1.410 . S
C1119 C1127 1.503 . S
C1120 C1119 1.410 . S
C1120 C1121 1.392 . S
C1120 C1123 1.511 . S
C1121 C1117 1.376 . S
C1121 C1120 1.392 . S
C1121 H1133 0.929 . S
C1122 C1118 1.531 1_455 S
C1122 H1134 0.960 1_455 S
C1122 H1135 0.962 . S
C1122 H1136 0.960 . S
C1123 C1120 1.511 . S
C1123 H1137 0.961 . S
C1123 H1138 0.961 . S
C1123 H1139 0.961 . S
C1124 C1125 1.370 1_455 S
C1124 C1126 1.363 . S
C1124 H1140 0.931 . S
C1125 C1124 1.370 1_655 S
C1125 C1129 1.408 . S
C1126 C1124 1.363 . S
C1126 C1127 1.370 1_455 S
C1126 C1130 1.524 . S
C1127 C1119 1.503 . S
C1127 C1126 1.370 1_655 S
C1127 C1128 1.403 . S
C1128 C1127 1.403 . S
C1128 C1129 1.404 . S
C1128 C1131 1.539 . S
C1129 C1125 1.408 . S
C1129 C1128 1.404 . S
C1129 H1141 0.930 . S
C1130 C1126 1.524 . S
C1130 H1142 0.956 . S
C1130 H1143 0.961 . S
C1130 H1144 0.961 . S
C1131 C1128 1.539 . S
C1131 H1145 0.958 . S
C1131 H1146 0.961 . S
C1131 H1147 0.960 . S
H1132 C1116 0.931 1_455 S
H1133 C1121 0.929 . S
H1134 C1122 0.960 1_655 S
H1135 C1122 0.962 . S
H1136 C1122 0.960 . S
H1137 C1123 0.961 . S
H1138 C1123 0.961 . S
H1139 C1123 0.961 . S
H1140 C1124 0.931 . S
H1141 C1129 0.930 . S
H1142 C1130 0.956 . S
H1143 C1130 0.961 . S
H1144 C1130 0.961 . S
H1145 C1131 0.958 . S
H1146 C1131 0.961 . S
H1147 C1131 0.960 . S
C1148 C1149 1.391 . S
C1148 C1150 1.394 . S
C1148 H1164 0.931 . S
C1149 C1148 1.391 . S
C1149 C1153 1.376 . S
C1150 C1148 1.394 . S
C1150 C1151 1.369 . S
C1150 C1154 1.531 . S
C1151 C1150 1.369 . S
C1151 C1152 1.410 . S
C1151 C1159 1.503 . S
C1152 C1151 1.410 . S
C1152 C1153 1.392 . S
C1152 C1155 1.511 . S
C1153 C1149 1.376 . S
C1153 C1152 1.392 . S
C1153 H1165 0.929 . S
C1154 C1150 1.531 . S
C1154 H1166 0.960 . S
C1154 H1167 0.962 . S
C1154 H1168 0.960 . S
C1155 C1152 1.511 . S
C1155 H1169 0.961 . S
C1155 H1170 0.961 . S
C1155 H1171 0.961 . S
C1156 C1157 1.370 . S
C1156 C1158 1.363 . S
C1156 H1172 0.931 . S
C1157 C1156 1.370 . S
C1157 C1161 1.408 . S
C1158 C1156 1.363 . S
C1158 C1159 1.370 . S
C1158 C1162 1.524 . S
C1159 C1151 1.503 . S
C1159 C1158 1.370 . S
C1159 C1160 1.403 . S
C1160 C1159 1.403 . S
C1160 C1161 1.404 . S
C1160 C1163 1.539 . S
C1161 C1157 1.408 . S
C1161 C1160 1.404 . S
C1161 H1173 0.930 . S
C1162 C1158 1.524 . S
C1162 H1174 0.956 . S
C1162 H1175 0.961 . S
C1162 H1176 0.961 . S
C1163 C1160 1.539 . S
C1163 H1177 0.958 . S
C1163 H1178 0.961 . S
C1163 H1179 0.960 . S
H1164 C1148 0.931 . S
H1165 C1153 0.929 . S
H1166 C1154 0.960 . S
H1167 C1154 0.962 . S
H1168 C1154 0.960 . S
H1169 C1155 0.961 . S
H1170 C1155 0.961 . S
H1171 C1155 0.961 . S
H1172 C1156 0.931 . S
H1173 C1161 0.930 . S
H1174 C1162 0.956 . S
H1175 C1162 0.961 . S
H1176 C1162 0.961 . S
H1177 C1163 0.958 . S
H1178 C1163 0.961 . S
H1179 C1163 0.960 . S
C1180 C1181 1.391 . S
C1180 C1182 1.394 . S
C1180 H1196 0.931 . S
C1181 C1180 1.391 . S
C1181 C1185 1.376 1_545 S
C1182 C1180 1.394 . S
C1182 C1183 1.369 . S
C1182 C1186 1.531 . S
C1183 C1182 1.369 . S
C1183 C1184 1.410 1_545 S
C1183 C1191 1.503 . S
C1184 C1183 1.410 1_565 S
C1184 C1185 1.392 . S
C1184 C1187 1.511 . S
C1185 C1181 1.376 1_565 S
C1185 C1184 1.392 . S
C1185 H1197 0.929 . S
C1186 C1182 1.531 . S
C1186 H1198 0.960 . S
C1186 H1199 0.962 . S
C1186 H1200 0.960 . S
C1187 C1184 1.511 . S
C1187 H1201 0.961 . S
C1187 H1202 0.961 . S
C1187 H1203 0.961 . S
C1188 C1189 1.370 . S
C1188 C1190 1.363 . S
C1188 H1204 0.906 1_545 S
C1189 C1188 1.370 . S
C1189 C1193 1.408 . S
C1190 C1188 1.363 . S
C1190 C1191 1.370 . S
C1190 C1194 1.526 . S
C1191 C1183 1.503 . S
C1191 C1190 1.370 . S
C1191 C1192 1.403 . S
C1192 C1191 1.403 . S
C1192 C1193 1.404 . S
C1192 C1195 1.539 . S
C1193 C1189 1.408 . S
C1193 C1192 1.404 . S
C1193 H1205 0.930 . S
C1194 C1190 1.526 . S
C1194 H1206 0.960 . S
C1194 H1207 0.959 1_545 S
C1194 H1208 0.956 1_545 S
C1195 C1192 1.539 . S
C1195 H1209 0.958 . S
C1195 H1210 0.961 . S
C1195 H1211 0.960 . S
H1196 C1180 0.931 . S
H1197 C1185 0.929 . S
H1198 C1186 0.960 . S
H1199 C1186 0.962 . S
H1200 C1186 0.960 . S
H1201 C1187 0.961 . S
H1202 C1187 0.961 . S
H1203 C1187 0.961 . S
H1204 C1188 0.906 1_565 S
H1205 C1193 0.930 . S
H1206 C1194 0.960 . S
H1207 C1194 0.959 1_565 S
H1208 C1194 0.956 1_565 S
H1209 C1195 0.958 . S
H1210 C1195 0.961 . S
H1211 C1195 0.960 . S
C1212 C1213 1.391 1_545 S
C1212 C1214 1.394 . S
C1212 H1228 0.931 . S
C1213 C1212 1.391 1_565 S
C1213 C1217 1.376 . S
C1214 C1212 1.394 . S
C1214 C1215 1.425 . S
C1214 C1218 1.531 . S
C1215 C1214 1.425 . S
C1215 C1216 1.379 1_545 S
C1215 C1223 1.473 . S
C1216 C1215 1.379 1_565 S
C1216 C1217 1.392 . S
C1216 C1219 1.511 . S
C1217 C1213 1.376 . S
C1217 C1216 1.392 . S
C1217 H1229 0.929 . S
C1218 C1214 1.531 . S
C1218 H1230 0.960 . S
C1218 H1231 0.962 . S
C1218 H1232 0.960 . S
C1219 C1216 1.511 . S
C1219 H1233 0.961 . S
C1219 H1234 0.961 . S
C1219 H1235 0.961 . S
C1220 C1221 1.370 . S
C1220 C1222 1.363 . S
C1220 H1236 0.931 . S
C1221 C1220 1.370 . S
C1221 C1225 1.408 1_565 S
C1222 C1220 1.363 . S
C1222 C1223 1.375 1_565 S
C1222 C1226 1.524 . S
C1223 C1215 1.473 . S
C1223 C1222 1.375 1_545 S
C1223 C1224 1.401 . S
C1224 C1223 1.401 . S
C1224 C1225 1.404 . S
C1224 C1227 1.539 . S
C1225 C1221 1.408 1_545 S
C1225 C1224 1.404 . S
C1225 H1237 0.930 . S
C1226 C1222 1.524 . S
C1226 H1238 0.956 . S
C1226 H1239 0.961 . S
C1226 H1240 0.961 . S
C1227 C1224 1.539 . S
C1227 H1241 0.958 . S
C1227 H1242 0.961 . S
C1227 H1243 0.960 . S
H1228 C1212 0.931 . S
H1229 C1217 0.929 . S
H1230 C1218 0.960 . S
H1231 C1218 0.962 . S
H1232 C1218 0.960 . S
H1233 C1219 0.961 . S
H1234 C1219 0.961 . S
H1235 C1219 0.961 . S
H1236 C1220 0.931 . S
H1237 C1225 0.930 . S
H1238 C1226 0.956 . S
H1239 C1226 0.961 . S
H1240 C1226 0.961 . S
H1241 C1227 0.958 . S
H1242 C1227 0.961 . S
H1243 C1227 0.960 . S
C1244 C1245 1.391 1_655 S
C1244 C1246 1.394 . S
C1244 H1260 0.931 . S
C1245 C1244 1.391 1_455 S
C1245 C1249 1.376 . S
C1246 C1244 1.394 . S
C1246 C1247 1.369 1_655 S
C1246 C1250 1.531 . S
C1247 C1246 1.369 1_455 S
C1247 C1248 1.410 . S
C1247 C1255 1.503 . S
C1248 C1247 1.410 . S
C1248 C1249 1.392 . S
C1248 C1251 1.511 . S
C1249 C1245 1.376 . S
C1249 C1248 1.392 . S
C1249 H1261 0.929 . S
C1250 C1246 1.531 . S
C1250 H1262 0.960 . S
C1250 H1263 0.962 . S
C1250 H1264 0.960 . S
C1251 C1248 1.511 . S
C1251 H1265 0.961 . S
C1251 H1266 0.961 . S
C1251 H1267 0.961 . S
C1252 C1253 1.370 . S
C1252 C1254 1.363 . S
C1252 H1268 0.931 . S
C1253 C1252 1.370 . S
C1253 C1257 1.408 1_455 S
C1254 C1252 1.363 . S
C1254 C1255 1.370 . S
C1254 C1258 1.524 . S
C1255 C1247 1.503 . S
C1255 C1254 1.370 . S
C1255 C1256 1.403 1_455 S
C1256 C1255 1.403 1_655 S
C1256 C1257 1.404 . S
C1256 C1259 1.539 . S
C1257 C1253 1.408 1_655 S
C1257 C1256 1.404 . S
C1257 H1269 0.930 . S
C1258 C1254 1.524 . S
C1258 H1270 0.956 . S
C1258 H1271 0.961 . S
C1258 H1272 0.961 . S
C1259 C1256 1.539 . S
C1259 H1273 0.958 . S
C1259 H1274 0.961 . S
C1259 H1275 0.960 . S
H1260 C1244 0.931 . S
H1261 C1249 0.929 . S
H1262 C1250 0.960 . S
H1263 C1250 0.962 . S
H1264 C1250 0.960 . S
H1265 C1251 0.961 . S
H1266 C1251 0.961 . S
H1267 C1251 0.961 . S
H1268 C1252 0.931 . S
H1269 C1257 0.930 . S
H1270 C1258 0.956 . S
H1271 C1258 0.961 . S
H1272 C1258 0.961 . S
H1273 C1259 0.958 . S
H1274 C1259 0.961 . S
H1275 C1259 0.960 . S
C1276 C1277 1.391 . S
C1276 C1278 1.394 . S
C1276 H1292 0.931 . S
C1277 C1276 1.391 . S
C1277 C1281 1.376 . S
C1278 C1276 1.394 . S
C1278 C1279 1.369 . S
C1278 C1282 1.531 . S
C1279 C1278 1.369 . S
C1279 C1280 1.410 . S
C1279 C1287 1.503 . S
C1280 C1279 1.410 . S
C1280 C1281 1.392 . S
C1280 C1283 1.511 . S
C1281 C1277 1.376 . S
C1281 C1280 1.392 . S
C1281 H1293 0.929 . S
C1282 C1278 1.531 . S
C1282 H1294 0.960 . S
C1282 H1295 0.962 . S
C1282 H1296 0.960 . S
C1283 C1280 1.511 . S
C1283 H1297 0.961 . S
C1283 H1298 0.961 . S
C1283 H1299 0.961 . S
C1284 C1285 1.370 . S
C1284 C1286 1.363 . S
C1284 H1300 0.931 . S
C1285 C1284 1.370 . S
C1285 C1289 1.408 . S
C1286 C1284 1.363 . S
C1286 C1287 1.370 . S
C1286 C1290 1.524 . S
C1287 C1279 1.503 . S
C1287 C1286 1.370 . S
C1287 C1288 1.403 . S
C1288 C1287 1.403 . S
C1288 C1289 1.404 . S
C1288 C1291 1.539 . S
C1289 C1285 1.408 . S
C1289 C1288 1.404 . S
C1289 H1301 0.930 . S
C1290 C1286 1.524 . S
C1290 H1302 0.956 . S
C1290 H1303 0.961 . S
C1290 H1304 0.961 . S
C1291 C1288 1.539 . S
C1291 H1305 0.958 . S
C1291 H1306 0.961 . S
C1291 H1307 0.960 . S
H1292 C1276 0.931 . S
H1293 C1281 0.929 . S
H1294 C1282 0.960 . S
H1295 C1282 0.962 . S
H1296 C1282 0.960 . S
H1297 C1283 0.961 . S
H1298 C1283 0.961 . S
H1299 C1283 0.961 . S
H1300 C1284 0.931 . S
H1301 C1289 0.930 . S
H1302 C1290 0.956 . S
H1303 C1290 0.961 . S
H1304 C1290 0.961 . S
H1305 C1291 0.958 . S
H1306 C1291 0.961 . S
H1307 C1291 0.960 . S
C1308 C1309 1.391 1_655 S
C1308 C1310 1.394 . S
C1308 H1324 0.931 . S
C1309 C1308 1.391 1_455 S
C1309 C1313 1.376 . S
C1310 C1308 1.394 . S
C1310 C1311 1.369 1_655 S
C1310 C1314 1.531 . S
C1311 C1310 1.369 1_455 S
C1311 C1312 1.410 . S
C1311 C1319 1.503 . S
C1312 C1311 1.410 . S
C1312 C1313 1.392 . S
C1312 C1315 1.511 . S
C1313 C1309 1.376 . S
C1313 C1312 1.392 . S
C1313 H1325 0.929 . S
C1314 C1310 1.531 . S
C1314 H1326 0.960 . S
C1314 H1327 0.962 . S
C1314 H1328 0.960 . S
C1315 C1312 1.511 . S
C1315 H1329 0.961 . S
C1315 H1330 0.961 . S
C1315 H1331 0.961 . S
C1316 C1317 1.370 . S
C1316 C1318 1.363 . S
C1316 H1332 0.931 . S
C1317 C1316 1.370 . S
C1317 C1321 1.444 . S
C1318 C1316 1.363 . S
C1318 C1319 1.370 . S
C1318 C1322 1.524 . S
C1319 C1311 1.503 . S
C1319 C1318 1.370 . S
C1319 C1320 1.403 . S
C1320 C1319 1.403 . S
C1320 C1321 1.382 . S
C1320 C1323 1.519 1_455 S
C1321 C1317 1.444 . S
C1321 C1320 1.382 . S
C1321 H1333 0.920 1_455 S
C1322 C1318 1.524 . S
C1322 H1334 0.956 . S
C1322 H1335 0.961 . S
C1322 H1336 0.961 . S
C1323 C1320 1.519 1_655 S
C1323 H1337 0.995 . S
C1323 H1338 0.950 1_655 S
C1323 H1339 0.957 1_655 S
H1324 C1308 0.931 . S
H1325 C1313 0.929 . S
H1326 C1314 0.960 . S
H1327 C1314 0.962 . S
H1328 C1314 0.960 . S
H1329 C1315 0.961 . S
H1330 C1315 0.961 . S
H1331 C1315 0.961 . S
H1332 C1316 0.931 . S
H1333 C1321 0.920 1_655 S
H1334 C1322 0.956 . S
H1335 C1322 0.961 . S
H1336 C1322 0.961 . S
H1337 C1323 0.995 . S
H1338 C1323 0.950 1_455 S
H1339 C1323 0.957 1_455 S
C1340 C1341 1.391 . S
C1340 C1342 1.394 . S
C1340 H1356 0.931 . S
C1341 C1340 1.391 . S
C1341 C1345 1.376 . S
C1342 C1340 1.394 . S
C1342 C1343 1.369 . S
C1342 C1346 1.531 . S
C1343 C1342 1.369 . S
C1343 C1344 1.410 . S
C1343 C1351 1.503 . S
C1344 C1343 1.410 . S
C1344 C1345 1.392 . S
C1344 C1347 1.511 . S
C1345 C1341 1.376 . S
C1345 C1344 1.392 . S
C1345 H1357 0.929 . S
C1346 C1342 1.531 . S
C1346 H1358 0.960 . S
C1346 H1359 0.962 . S
C1346 H1360 0.960 . S
C1347 C1344 1.511 . S
C1347 H1361 0.961 . S
C1347 H1362 0.961 . S
C1347 H1363 0.961 . S
C1348 C1349 1.370 . S
C1348 C1350 1.363 . S
C1348 H1364 0.931 . S
C1349 C1348 1.370 . S
C1349 C1353 1.408 . S
C1350 C1348 1.363 . S
C1350 C1351 1.370 . S
C1350 C1354 1.524 . S
C1351 C1343 1.503 . S
C1351 C1350 1.370 . S
C1351 C1352 1.403 . S
C1352 C1351 1.403 . S
C1352 C1353 1.404 . S
C1352 C1355 1.539 . S
C1353 C1349 1.408 . S
C1353 C1352 1.404 . S
C1353 H1365 0.930 . S
C1354 C1350 1.524 . S
C1354 H1366 0.956 . S
C1354 H1367 0.961 . S
C1354 H1368 0.961 . S
C1355 C1352 1.539 . S
C1355 H1369 0.958 . S
C1355 H1370 0.961 . S
C1355 H1371 0.960 . S
H1356 C1340 0.931 . S
H1357 C1345 0.929 . S
H1358 C1346 0.960 . S
H1359 C1346 0.962 . S
H1360 C1346 0.960 . S
H1361 C1347 0.961 . S
H1362 C1347 0.961 . S
H1363 C1347 0.961 . S
H1364 C1348 0.931 . S
H1365 C1353 0.930 . S
H1366 C1354 0.956 . S
H1367 C1354 0.961 . S
H1368 C1354 0.961 . S
H1369 C1355 0.958 . S
H1370 C1355 0.961 . S
H1371 C1355 0.960 . S
C1372 C1373 1.391 . S
C1372 C1374 1.394 . S
C1372 H1388 0.931 . S
C1373 C1372 1.391 . S
C1373 C1377 1.376 . S
C1374 C1372 1.394 . S
C1374 C1375 1.369 . S
C1374 C1378 1.531 . S
C1375 C1374 1.369 . S
C1375 C1376 1.410 . S
C1375 C1383 1.503 . S
C1376 C1375 1.410 . S
C1376 C1377 1.392 . S
C1376 C1379 1.558 . S
C1377 C1373 1.376 . S
C1377 C1376 1.392 . S
C1377 H1389 0.929 . S
C1378 C1374 1.531 . S
C1378 H1390 0.960 . S
C1378 H1391 0.962 . S
C1378 H1392 0.960 . S
C1379 C1376 1.558 . S
C1379 H1393 0.927 1_565 S
C1379 H1394 0.920 1_565 S
C1379 H1395 0.994 . S
C1380 C1381 1.370 1_545 S
C1380 C1382 1.363 . S
C1380 H1396 0.931 . S
C1381 C1380 1.370 1_565 S
C1381 C1385 1.408 . S
C1382 C1380 1.363 . S
C1382 C1383 1.370 1_545 S
C1382 C1386 1.524 . S
C1383 C1375 1.503 . S
C1383 C1382 1.370 1_565 S
C1383 C1384 1.403 . S
C1384 C1383 1.403 . S
C1384 C1385 1.404 . S
C1384 C1387 1.539 . S
C1385 C1381 1.408 . S
C1385 C1384 1.404 . S
C1385 H1397 0.930 . S
C1386 C1382 1.524 . S
C1386 H1398 0.956 . S
C1386 H1399 0.961 . S
C1386 H1400 0.961 . S
C1387 C1384 1.539 . S
C1387 H1401 0.958 . S
C1387 H1402 0.961 . S
C1387 H1403 0.960 . S
H1388 C1372 0.931 . S
H1389 C1377 0.929 . S
H1390 C1378 0.960 . S
H1391 C1378 0.962 . S
H1392 C1378 0.960 . S
H1393 C1379 0.927 1_545 S
H1394 C1379 0.920 1_545 S
H1395 C1379 0.994 . S
H1396 C1380 0.931 . S
H1397 C1385 0.930 . S
H1398 C1386 0.956 . S
H1399 C1386 0.961 . S
H1400 C1386 0.961 . S
H1401 C1387 0.958 . S
H1402 C1387 0.961 . S
H1403 C1387 0.960 . S
C1404 C1405 1.391 1_565 S
C1404 C1406 1.394 . S
C1404 H1420 0.931 . S
C1405 C1404 1.391 1_545 S
C1405 C1409 1.376 . S
C1406 C1404 1.394 . S
C1406 C1407 1.369 1_565 S
C1406 C1410 1.531 . S
C1407 C1406 1.369 1_545 S
C1407 C1408 1.410 . S
C1407 C1415 1.503 . S
C1408 C1407 1.410 . S
C1408 C1409 1.392 . S
C1408 C1411 1.511 . S
C1409 C1405 1.376 . S
C1409 C1408 1.392 . S
C1409 H1421 0.929 . S
C1410 C1406 1.531 . S
C1410 H1422 0.960 . S
C1410 H1423 0.962 . S
C1410 H1424 0.960 . S
C1411 C1408 1.511 . S
C1411 H1425 0.961 . S
C1411 H1426 0.961 . S
C1411 H1427 0.961 . S
C1412 C1413 1.370 . S
C1412 C1414 1.363 . S
C1412 H1428 0.931 . S
C1413 C1412 1.370 . S
C1413 C1417 1.408 1_545 S
C1414 C1412 1.363 . S
C1414 C1415 1.370 . S
C1414 C1418 1.524 . S
C1415 C1407 1.503 . S
C1415 C1414 1.370 . S
C1415 C1416 1.403 1_545 S
C1416 C1415 1.403 1_565 S
C1416 C1417 1.404 . S
C1416 C1419 1.539 . S
C1417 C1413 1.408 1_565 S
C1417 C1416 1.404 . S
C1417 H1429 0.930 . S
C1418 C1414 1.524 . S
C1418 H1430 0.956 . S
C1418 H1431 0.961 . S
C1418 H1432 0.961 . S
C1419 C1416 1.539 . S
C1419 H1433 0.958 . S
C1419 H1434 0.961 . S
C1419 H1435 0.960 . S
H1420 C1404 0.931 . S
H1421 C1409 0.929 . S
H1422 C1410 0.960 . S
H1423 C1410 0.962 . S
H1424 C1410 0.960 . S
H1425 C1411 0.961 . S
H1426 C1411 0.961 . S
H1427 C1411 0.961 . S
H1428 C1412 0.931 . S
H1429 C1417 0.930 . S
H1430 C1418 0.956 . S
H1431 C1418 0.961 . S
H1432 C1418 0.961 . S
H1433 C1419 0.958 . S
H1434 C1419 0.961 . S
H1435 C1419 0.960 . S
C1436 C1437 1.391 1_455 S
C1436 C1438 1.394 . S
C1436 H1452 0.931 . S
C1437 C1436 1.391 1_655 S
C1437 C1441 1.376 . S
C1438 C1436 1.394 . S
C1438 C1439 1.369 1_455 S
C1438 C1442 1.531 . S
C1439 C1438 1.369 1_655 S
C1439 C1440 1.410 . S
C1439 C1447 1.503 . S
C1440 C1439 1.410 . S
C1440 C1441 1.392 . S
C1440 C1443 1.511 . S
C1441 C1437 1.376 . S
C1441 C1440 1.392 . S
C1441 H1453 0.929 . S
C1442 C1438 1.531 . S
C1442 H1454 0.960 . S
C1442 H1455 0.962 . S
C1442 H1456 0.960 . S
C1443 C1440 1.511 . S
C1443 H1457 0.961 . S
C1443 H1458 0.961 . S
C1443 H1459 0.961 . S
C1444 C1445 1.370 . S
C1444 C1446 1.363 . S
C1444 H1460 0.941 . S
C1445 C1444 1.370 . S
C1445 C1449 1.408 . S
C1446 C1444 1.363 . S
C1446 C1447 1.370 . S
C1446 C1450 1.524 . S
C1447 C1439 1.503 . S
C1447 C1446 1.370 . S
C1447 C1448 1.403 . S
C1448 C1447 1.403 . S
C1448 C1449 1.404 . S
C1448 C1451 1.539 . S
C1449 C1445 1.408 . S
C1449 C1448 1.404 . S
C1449 H1461 0.930 . S
C1450 C1446 1.524 . S
C1450 H1462 0.956 1_655 S
C1450 H1463 0.961 . S
C1450 H1464 0.961 . S
C1451 C1448 1.539 . S
C1451 H1465 0.932 1_655 S
C1451 H1466 0.961 . S
C1451 H1467 0.960 . S
H1452 C1436 0.931 . S
H1453 C1441 0.929 . S
H1454 C1442 0.960 . S
H1455 C1442 0.962 . S
H1456 C1442 0.960 . S
H1457 C1443 0.961 . S
H1458 C1443 0.961 . S
H1459 C1443 0.961 . S
H1460 C1444 0.941 . S
H1461 C1449 0.930 . S
H1462 C1450 0.956 1_455 S
H1463 C1450 0.961 . S
H1464 C1450 0.961 . S
H1465 C1451 0.932 1_455 S
H1466 C1451 0.961 . S
H1467 C1451 0.960 . S
C1468 C1469 1.391 . S
C1468 C1470 1.394 . S
C1468 H1484 0.931 . S
C1469 C1468 1.391 . S
C1469 C1473 1.376 . S
C1470 C1468 1.394 . S
C1470 C1471 1.369 . S
C1470 C1474 1.531 . S
C1471 C1470 1.369 . S
C1471 C1472 1.410 . S
C1471 C1479 1.503 . S
C1472 C1471 1.410 . S
C1472 C1473 1.392 . S
C1472 C1475 1.511 . S
C1473 C1469 1.376 . S
C1473 C1472 1.392 . S
C1473 H1485 0.929 . S
C1474 C1470 1.531 . S
C1474 H1486 0.960 . S
C1474 H1487 0.962 . S
C1474 H1488 0.960 . S
C1475 C1472 1.511 . S
C1475 H1489 0.961 . S
C1475 H1490 0.961 . S
C1475 H1491 0.961 . S
C1476 C1477 1.370 . S
C1476 C1478 1.363 . S
C1476 H1492 0.931 . S
C1477 C1476 1.370 . S
C1477 C1481 1.408 . S
C1478 C1476 1.363 . S
C1478 C1479 1.370 . S
C1478 C1482 1.524 . S
C1479 C1471 1.503 . S
C1479 C1478 1.370 . S
C1479 C1480 1.403 . S
C1480 C1479 1.403 . S
C1480 C1481 1.404 . S
C1480 C1483 1.539 . S
C1481 C1477 1.408 . S
C1481 C1480 1.404 . S
C1481 H1493 0.930 . S
C1482 C1478 1.524 . S
C1482 H1494 0.956 . S
C1482 H1495 0.961 . S
C1482 H1496 0.961 . S
C1483 C1480 1.539 . S
C1483 H1497 0.958 . S
C1483 H1498 0.961 . S
C1483 H1499 0.960 . S
H1484 C1468 0.931 . S
H1485 C1473 0.929 . S
H1486 C1474 0.960 . S
H1487 C1474 0.962 . S
H1488 C1474 0.960 . S
H1489 C1475 0.961 . S
H1490 C1475 0.961 . S
H1491 C1475 0.961 . S
H1492 C1476 0.931 . S
H1493 C1481 0.930 . S
H1494 C1482 0.956 . S
H1495 C1482 0.961 . S
H1496 C1482 0.961 . S
H1497 C1483 0.958 . S
H1498 C1483 0.961 . S
H1499 C1483 0.960 . S
C1500 C1501 1.391 . S
C1500 C1502 1.394 . S
C1500 H1516 0.931 . S
C1501 C1500 1.391 . S
C1501 C1505 1.376 . S
C1502 C1500 1.394 . S
C1502 C1503 1.369 . S
C1502 C1506 1.531 . S
C1503 C1502 1.369 . S
C1503 C1504 1.410 . S
C1503 C1511 1.503 . S
C1504 C1503 1.410 . S
C1504 C1505 1.392 . S
C1504 C1507 1.511 . S
C1505 C1501 1.376 . S
C1505 C1504 1.392 . S
C1505 H1517 0.929 . S
C1506 C1502 1.531 . S
C1506 H1518 0.960 . S
C1506 H1519 0.962 . S
C1506 H1520 0.960 . S
C1507 C1504 1.511 . S
C1507 H1521 0.961 . S
C1507 H1522 0.961 . S
C1507 H1523 0.961 . S
C1508 C1509 1.370 . S
C1508 C1510 1.363 . S
C1508 H1524 0.931 . S
C1509 C1508 1.370 . S
C1509 C1513 1.408 . S
C1510 C1508 1.363 . S
C1510 C1511 1.370 . S
C1510 C1514 1.524 . S
C1511 C1503 1.503 . S
C1511 C1510 1.370 . S
C1511 C1512 1.403 . S
C1512 C1511 1.403 . S
C1512 C1513 1.404 . S
C1512 C1515 1.539 . S
C1513 C1509 1.408 . S
C1513 C1512 1.404 . S
C1513 H1525 0.930 . S
C1514 C1510 1.524 . S
C1514 H1526 0.956 . S
C1514 H1527 0.961 . S
C1514 H1528 0.961 . S
C1515 C1512 1.539 . S
C1515 H1529 0.958 . S
C1515 H1530 0.961 . S
C1515 H1531 0.960 . S
H1516 C1500 0.931 . S
H1517 C1505 0.929 . S
H1518 C1506 0.960 . S
H1519 C1506 0.962 . S
H1520 C1506 0.960 . S
H1521 C1507 0.961 . S
H1522 C1507 0.961 . S
H1523 C1507 0.961 . S
H1524 C1508 0.931 . S
H1525 C1513 0.930 . S
H1526 C1514 0.956 . S
H1527 C1514 0.961 . S
H1528 C1514 0.961 . S
H1529 C1515 0.958 . S
H1530 C1515 0.961 . S
H1531 C1515 0.960 . S
C1532 C1533 1.391 . S
C1532 C1534 1.394 . S
C1532 H1548 0.931 . S
C1533 C1532 1.391 . S
C1533 C1537 1.376 . S
C1534 C1532 1.394 . S
C1534 C1535 1.369 . S
C1534 C1538 1.531 . S
C1535 C1534 1.369 . S
C1535 C1536 1.410 . S
C1535 C1543 1.503 . S
C1536 C1535 1.410 . S
C1536 C1537 1.392 . S
C1536 C1539 1.511 . S
C1537 C1533 1.376 . S
C1537 C1536 1.392 . S
C1537 H1549 0.929 . S
C1538 C1534 1.531 . S
C1538 H1550 0.960 . S
C1538 H1551 0.962 . S
C1538 H1552 0.960 . S
C1539 C1536 1.511 . S
C1539 H1553 0.961 . S
C1539 H1554 0.961 . S
C1539 H1555 0.961 . S
C1540 C1541 1.370 . S
C1540 C1542 1.363 . S
C1540 H1556 0.931 . S
C1541 C1540 1.370 . S
C1541 C1545 1.408 . S
C1542 C1540 1.363 . S
C1542 C1543 1.370 . S
C1542 C1546 1.524 . S
C1543 C1535 1.503 . S
C1543 C1542 1.370 . S
C1543 C1544 1.403 . S
C1544 C1543 1.403 . S
C1544 C1545 1.404 . S
C1544 C1547 1.539 . S
C1545 C1541 1.408 . S
C1545 C1544 1.404 . S
C1545 H1557 0.930 . S
C1546 C1542 1.524 . S
C1546 H1558 0.956 . S
C1546 H1559 0.961 . S
C1546 H1560 0.961 . S
C1547 C1544 1.539 . S
C1547 H1561 0.958 . S
C1547 H1562 0.961 . S
C1547 H1563 0.960 . S
H1548 C1532 0.931 . S
H1549 C1537 0.929 . S
H1550 C1538 0.960 . S
H1551 C1538 0.962 . S
H1552 C1538 0.960 . S
H1553 C1539 0.961 . S
H1554 C1539 0.961 . S
H1555 C1539 0.961 . S
H1556 C1540 0.931 . S
H1557 C1545 0.930 . S
H1558 C1546 0.956 . S
H1559 C1546 0.961 . S
H1560 C1546 0.961 . S
H1561 C1547 0.958 . S
H1562 C1547 0.961 . S
H1563 C1547 0.960 . S
C1564 C1565 1.391 . S
C1564 C1566 1.394 . S
C1564 H1580 0.931 . S
C1565 C1564 1.391 . S
C1565 C1569 1.376 . S
C1566 C1564 1.394 . S
C1566 C1567 1.369 . S
C1566 C1570 1.531 . S
C1567 C1566 1.369 . S
C1567 C1568 1.410 . S
C1567 C1575 1.503 . S
C1568 C1567 1.410 . S
C1568 C1569 1.392 . S
C1568 C1571 1.511 . S
C1569 C1565 1.376 . S
C1569 C1568 1.392 . S
C1569 H1581 0.929 . S
C1570 C1566 1.531 . S
C1570 H1582 0.960 . S
C1570 H1583 0.962 . S
C1570 H1584 0.960 . S
C1571 C1568 1.511 . S
C1571 H1585 0.961 . S
C1571 H1586 0.961 . S
C1571 H1587 0.961 . S
C1572 C1573 1.370 . S
C1572 C1574 1.363 . S
C1572 H1588 0.931 . S
C1573 C1572 1.370 . S
C1573 C1577 1.408 . S
C1574 C1572 1.363 . S
C1574 C1575 1.370 . S
C1574 C1578 1.524 . S
C1575 C1567 1.503 . S
C1575 C1574 1.370 . S
C1575 C1576 1.403 . S
C1576 C1575 1.403 . S
C1576 C1577 1.404 . S
C1576 C1579 1.539 . S
C1577 C1573 1.408 . S
C1577 C1576 1.404 . S
C1577 H1589 0.930 . S
C1578 C1574 1.524 . S
C1578 H1590 0.956 . S
C1578 H1591 0.961 . S
C1578 H1592 0.961 . S
C1579 C1576 1.539 . S
C1579 H1593 0.958 . S
C1579 H1594 0.961 . S
C1579 H1595 0.960 . S
H1580 C1564 0.931 . S
H1581 C1569 0.929 . S
H1582 C1570 0.960 . S
H1583 C1570 0.962 . S
H1584 C1570 0.960 . S
H1585 C1571 0.961 . S
H1586 C1571 0.961 . S
H1587 C1571 0.961 . S
H1588 C1572 0.931 . S
H1589 C1577 0.930 . S
H1590 C1578 0.956 . S
H1591 C1578 0.961 . S
H1592 C1578 0.961 . S
H1593 C1579 0.958 . S
H1594 C1579 0.961 . S
H1595 C1579 0.960 . S
C1596 C1597 1.391 . S
C1596 C1598 1.394 . S
C1596 H1612 0.931 . S
C1597 C1596 1.391 . S
C1597 C1601 1.376 . S
C1598 C1596 1.394 . S
C1598 C1599 1.369 . S
C1598 C1602 1.531 . S
C1599 C1598 1.369 . S
C1599 C1600 1.410 . S
C1599 C1607 1.503 . S
C1600 C1599 1.410 . S
C1600 C1601 1.392 . S
C1600 C1603 1.511 . S
C1601 C1597 1.376 . S
C1601 C1600 1.392 . S
C1601 H1613 0.929 . S
C1602 C1598 1.531 . S
C1602 H1614 0.960 . S
C1602 H1615 0.962 . S
C1602 H1616 0.960 . S
C1603 C1600 1.511 . S
C1603 H1617 0.961 . S
C1603 H1618 0.961 . S
C1603 H1619 0.961 . S
C1604 C1605 1.370 . S
C1604 C1606 1.363 . S
C1604 H1620 0.931 . S
C1605 C1604 1.370 . S
C1605 C1609 1.408 . S
C1606 C1604 1.363 . S
C1606 C1607 1.370 . S
C1606 C1610 1.524 . S
C1607 C1599 1.503 . S
C1607 C1606 1.370 . S
C1607 C1608 1.403 . S
C1608 C1607 1.403 . S
C1608 C1609 1.404 . S
C1608 C1611 1.539 . S
C1609 C1605 1.408 . S
C1609 C1608 1.404 . S
C1609 H1621 0.930 . S
C1610 C1606 1.524 . S
C1610 H1622 0.956 . S
C1610 H1623 0.961 . S
C1610 H1624 0.961 . S
C1611 C1608 1.539 . S
C1611 H1625 0.958 . S
C1611 H1626 0.961 . S
C1611 H1627 0.960 . S
H1612 C1596 0.931 . S
H1613 C1601 0.929 . S
H1614 C1602 0.960 . S
H1615 C1602 0.962 . S
H1616 C1602 0.960 . S
H1617 C1603 0.961 . S
H1618 C1603 0.961 . S
H1619 C1603 0.961 . S
H1620 C1604 0.931 . S
H1621 C1609 0.930 . S
H1622 C1610 0.956 . S
H1623 C1610 0.961 . S
H1624 C1610 0.961 . S
H1625 C1611 0.958 . S
H1626 C1611 0.961 . S
H1627 C1611 0.960 . S
C1628 C1629 1.391 . S
C1628 C1630 1.394 . S
C1628 H1644 0.931 . S
C1629 C1628 1.391 . S
C1629 C1633 1.376 . S
C1630 C1628 1.394 . S
C1630 C1631 1.369 . S
C1630 C1634 1.531 . S
C1631 C1630 1.369 . S
C1631 C1632 1.410 . S
C1631 C1639 1.503 . S
C1632 C1631 1.410 . S
C1632 C1633 1.392 . S
C1632 C1635 1.511 . S
C1633 C1629 1.376 . S
C1633 C1632 1.392 . S
C1633 H1645 0.929 . S
C1634 C1630 1.531 . S
C1634 H1646 0.960 . S
C1634 H1647 0.962 . S
C1634 H1648 0.960 . S
C1635 C1632 1.511 . S
C1635 H1649 0.961 . S
C1635 H1650 0.961 . S
C1635 H1651 0.961 . S
C1636 C1637 1.370 . S
C1636 C1638 1.363 . S
C1636 H1652 0.931 . S
C1637 C1636 1.370 . S
C1637 C1641 1.408 . S
C1638 C1636 1.363 . S
C1638 C1639 1.370 . S
C1638 C1642 1.524 . S
C1639 C1631 1.503 . S
C1639 C1638 1.370 . S
C1639 C1640 1.403 . S
C1640 C1639 1.403 . S
C1640 C1641 1.404 . S
C1640 C1643 1.539 . S
C1641 C1637 1.408 . S
C1641 C1640 1.404 . S
C1641 H1653 0.930 . S
C1642 C1638 1.524 . S
C1642 H1654 0.956 . S
C1642 H1655 0.961 . S
C1642 H1656 0.961 . S
C1643 C1640 1.539 . S
C1643 H1657 0.958 . S
C1643 H1658 0.961 . S
C1643 H1659 0.960 . S
H1644 C1628 0.931 . S
H1645 C1633 0.929 . S
H1646 C1634 0.960 . S
H1647 C1634 0.962 . S
H1648 C1634 0.960 . S
H1649 C1635 0.961 . S
H1650 C1635 0.961 . S
H1651 C1635 0.961 . S
H1652 C1636 0.931 . S
H1653 C1641 0.930 . S
H1654 C1642 0.956 . S
H1655 C1642 0.961 . S
H1656 C1642 0.961 . S
H1657 C1643 0.958 . S
H1658 C1643 0.961 . S
H1659 C1643 0.960 . S
C1660 C1661 1.391 . S
C1660 C1662 1.394 . S
C1660 H1676 0.931 . S
C1661 C1660 1.391 . S
C1661 C1665 1.376 . S
C1662 C1660 1.394 . S
C1662 C1663 1.369 . S
C1662 C1666 1.531 . S
C1663 C1662 1.369 . S
C1663 C1664 1.410 . S
C1663 C1671 1.503 . S
C1664 C1663 1.410 . S
C1664 C1665 1.392 . S
C1664 C1667 1.511 . S
C1665 C1661 1.376 . S
C1665 C1664 1.392 . S
C1665 H1677 0.929 . S
C1666 C1662 1.531 . S
C1666 H1678 0.960 . S
C1666 H1679 0.962 . S
C1666 H1680 0.960 . S
C1667 C1664 1.511 . S
C1667 H1681 0.961 . S
C1667 H1682 0.961 . S
C1667 H1683 0.961 . S
C1668 C1669 1.370 . S
C1668 C1670 1.363 . S
C1668 H1684 0.931 . S
C1669 C1668 1.370 . S
C1669 C1673 1.408 . S
C1670 C1668 1.363 . S
C1670 C1671 1.370 . S
C1670 C1674 1.524 . S
C1671 C1663 1.503 . S
C1671 C1670 1.370 . S
C1671 C1672 1.403 . S
C1672 C1671 1.403 . S
C1672 C1673 1.404 . S
C1672 C1675 1.539 . S
C1673 C1669 1.408 . S
C1673 C1672 1.404 . S
C1673 H1685 0.930 . S
C1674 C1670 1.524 . S
C1674 H1686 0.956 . S
C1674 H1687 0.961 . S
C1674 H1688 0.961 . S
C1675 C1672 1.539 . S
C1675 H1689 0.958 . S
C1675 H1690 0.961 . S
C1675 H1691 0.960 . S
H1676 C1660 0.931 . S
H1677 C1665 0.929 . S
H1678 C1666 0.960 . S
H1679 C1666 0.962 . S
H1680 C1666 0.960 . S
H1681 C1667 0.961 . S
H1682 C1667 0.961 . S
H1683 C1667 0.961 . S
H1684 C1668 0.931 . S
H1685 C1673 0.930 . S
H1686 C1674 0.956 . S
H1687 C1674 0.961 . S
H1688 C1674 0.961 . S
H1689 C1675 0.958 . S
H1690 C1675 0.961 . S
H1691 C1675 0.960 . S
C1692 C1693 1.391 . S
C1692 C1694 1.394 . S
C1692 H1708 0.931 . S
C1693 C1692 1.391 . S
C1693 C1697 1.376 . S
C1694 C1692 1.394 . S
C1694 C1695 1.369 . S
C1694 C1698 1.531 . S
C1695 C1694 1.369 . S
C1695 C1696 1.410 . S
C1695 C1703 1.503 . S
C1696 C1695 1.410 . S
C1696 C1697 1.392 . S
C1696 C1699 1.511 . S
C1697 C1693 1.376 . S
C1697 C1696 1.392 . S
C1697 H1709 0.929 . S
C1698 C1694 1.531 . S
C1698 H1710 0.960 . S
C1698 H1711 0.962 . S
C1698 H1712 0.960 . S
C1699 C1696 1.511 . S
C1699 H1713 0.961 . S
C1699 H1714 0.961 . S
C1699 H1715 0.961 . S
C1700 C1701 1.370 . S
C1700 C1702 1.363 . S
C1700 H1716 0.931 . S
C1701 C1700 1.370 . S
C1701 C1705 1.408 . S
C1702 C1700 1.363 . S
C1702 C1703 1.370 . S
C1702 C1706 1.524 . S
C1703 C1695 1.503 . S
C1703 C1702 1.370 . S
C1703 C1704 1.403 . S
C1704 C1703 1.403 . S
C1704 C1705 1.404 . S
C1704 C1707 1.539 . S
C1705 C1701 1.408 . S
C1705 C1704 1.404 . S
C1705 H1717 0.930 . S
C1706 C1702 1.524 . S
C1706 H1718 0.956 . S
C1706 H1719 0.961 . S
C1706 H1720 0.961 . S
C1707 C1704 1.539 . S
C1707 H1721 0.958 . S
C1707 H1722 0.961 . S
C1707 H1723 0.960 . S
H1708 C1692 0.931 . S
H1709 C1697 0.929 . S
H1710 C1698 0.960 . S
H1711 C1698 0.962 . S
H1712 C1698 0.960 . S
H1713 C1699 0.961 . S
H1714 C1699 0.961 . S
H1715 C1699 0.961 . S
H1716 C1700 0.931 . S
H1717 C1705 0.930 . S
H1718 C1706 0.956 . S
H1719 C1706 0.961 . S
H1720 C1706 0.961 . S
H1721 C1707 0.958 . S
H1722 C1707 0.961 . S
H1723 C1707 0.960 . S
C1724 C1725 1.391 . S
C1724 C1726 1.394 . S
C1724 H1740 0.931 . S
C1725 C1724 1.391 . S
C1725 C1729 1.376 . S
C1726 C1724 1.394 . S
C1726 C1727 1.369 . S
C1726 C1730 1.531 . S
C1727 C1726 1.369 . S
C1727 C1728 1.410 . S
C1727 C1735 1.503 . S
C1728 C1727 1.410 . S
C1728 C1729 1.392 . S
C1728 C1731 1.511 . S
C1729 C1725 1.376 . S
C1729 C1728 1.392 . S
C1729 H1741 0.929 . S
C1730 C1726 1.531 . S
C1730 H1742 0.960 . S
C1730 H1743 0.962 . S
C1730 H1744 0.960 . S
C1731 C1728 1.511 . S
C1731 H1745 0.961 . S
C1731 H1746 0.961 . S
C1731 H1747 0.961 . S
C1732 C1733 1.370 . S
C1732 C1734 1.363 . S
C1732 H1748 0.931 . S
C1733 C1732 1.370 . S
C1733 C1737 1.408 . S
C1734 C1732 1.363 . S
C1734 C1735 1.370 . S
C1734 C1738 1.524 . S
C1735 C1727 1.503 . S
C1735 C1734 1.370 . S
C1735 C1736 1.403 . S
C1736 C1735 1.403 . S
C1736 C1737 1.404 . S
C1736 C1739 1.539 . S
C1737 C1733 1.408 . S
C1737 C1736 1.404 . S
C1737 H1749 0.930 . S
C1738 C1734 1.524 . S
C1738 H1750 0.956 . S
C1738 H1751 0.961 . S
C1738 H1752 0.961 . S
C1739 C1736 1.539 . S
C1739 H1753 0.958 . S
C1739 H1754 0.961 . S
C1739 H1755 0.960 . S
H1740 C1724 0.931 . S
H1741 C1729 0.929 . S
H1742 C1730 0.960 . S
H1743 C1730 0.962 . S
H1744 C1730 0.960 . S
H1745 C1731 0.961 . S
H1746 C1731 0.961 . S
H1747 C1731 0.961 . S
H1748 C1732 0.931 . S
H1749 C1737 0.930 . S
H1750 C1738 0.956 . S
H1751 C1738 0.961 . S
H1752 C1738 0.961 . S
H1753 C1739 0.958 . S
H1754 C1739 0.961 . S
H1755 C1739 0.960 . S
C1756 C1757 1.391 . S
C1756 C1758 1.394 . S
C1756 H1772 0.931 . S
C1757 C1756 1.391 . S
C1757 C1761 1.376 . S
C1758 C1756 1.394 . S
C1758 C1759 1.369 . S
C1758 C1762 1.531 . S
C1759 C1758 1.369 . S
C1759 C1760 1.410 . S
C1759 C1767 1.503 . S
C1760 C1759 1.410 . S
C1760 C1761 1.392 . S
C1760 C1763 1.511 . S
C1761 C1757 1.376 . S
C1761 C1760 1.392 . S
C1761 H1773 0.929 . S
C1762 C1758 1.531 . S
C1762 H1774 0.960 . S
C1762 H1775 0.962 . S
C1762 H1776 0.960 . S
C1763 C1760 1.511 . S
C1763 H1777 0.961 . S
C1763 H1778 0.961 . S
C1763 H1779 0.961 . S
C1764 C1765 1.370 . S
C1764 C1766 1.363 . S
C1764 H1780 0.931 . S
C1765 C1764 1.370 . S
C1765 C1769 1.408 . S
C1766 C1764 1.363 . S
C1766 C1767 1.370 . S
C1766 C1770 1.524 . S
C1767 C1759 1.503 . S
C1767 C1766 1.370 . S
C1767 C1768 1.403 . S
C1768 C1767 1.403 . S
C1768 C1769 1.404 . S
C1768 C1771 1.539 . S
C1769 C1765 1.408 . S
C1769 C1768 1.404 . S
C1769 H1781 0.930 . S
C1770 C1766 1.524 . S
C1770 H1782 0.956 . S
C1770 H1783 0.961 . S
C1770 H1784 0.961 . S
C1771 C1768 1.539 . S
C1771 H1785 0.958 . S
C1771 H1786 0.961 . S
C1771 H1787 0.960 . S
H1772 C1756 0.931 . S
H1773 C1761 0.929 . S
H1774 C1762 0.960 . S
H1775 C1762 0.962 . S
H1776 C1762 0.960 . S
H1777 C1763 0.961 . S
H1778 C1763 0.961 . S
H1779 C1763 0.961 . S
H1780 C1764 0.931 . S
H1781 C1769 0.930 . S
H1782 C1770 0.956 . S
H1783 C1770 0.961 . S
H1784 C1770 0.961 . S
H1785 C1771 0.958 . S
H1786 C1771 0.961 . S
H1787 C1771 0.960 . S
C1788 C1789 1.391 . S
C1788 C1790 1.394 . S
C1788 H1804 0.931 . S
C1789 C1788 1.391 . S
C1789 C1793 1.376 . S
C1790 C1788 1.394 . S
C1790 C1791 1.369 . S
C1790 C1794 1.531 . S
C1791 C1790 1.369 . S
C1791 C1792 1.410 . S
C1791 C1799 1.503 . S
C1792 C1791 1.410 . S
C1792 C1793 1.392 . S
C1792 C1795 1.511 . S
C1793 C1789 1.376 . S
C1793 C1792 1.392 . S
C1793 H1805 0.929 . S
C1794 C1790 1.531 . S
C1794 H1806 0.960 . S
C1794 H1807 0.962 . S
C1794 H1808 0.960 . S
C1795 C1792 1.511 . S
C1795 H1809 0.961 . S
C1795 H1810 0.961 . S
C1795 H1811 0.961 . S
C1796 C1797 1.370 . S
C1796 C1798 1.363 . S
C1796 H1812 0.931 . S
C1797 C1796 1.370 . S
C1797 C1801 1.408 . S
C1798 C1796 1.363 . S
C1798 C1799 1.370 . S
C1798 C1802 1.524 . S
C1799 C1791 1.503 . S
C1799 C1798 1.370 . S
C1799 C1800 1.403 . S
C1800 C1799 1.403 . S
C1800 C1801 1.404 . S
C1800 C1803 1.539 . S
C1801 C1797 1.408 . S
C1801 C1800 1.404 . S
C1801 H1813 0.930 . S
C1802 C1798 1.524 . S
C1802 H1814 0.956 . S
C1802 H1815 0.961 . S
C1802 H1816 0.961 . S
C1803 C1800 1.539 . S
C1803 H1817 0.958 . S
C1803 H1818 0.961 . S
C1803 H1819 0.960 . S
H1804 C1788 0.931 . S
H1805 C1793 0.929 . S
H1806 C1794 0.960 . S
H1807 C1794 0.962 . S
H1808 C1794 0.960 . S
H1809 C1795 0.961 . S
H1810 C1795 0.961 . S
H1811 C1795 0.961 . S
H1812 C1796 0.931 . S
H1813 C1801 0.930 . S
H1814 C1802 0.956 . S
H1815 C1802 0.961 . S
H1816 C1802 0.961 . S
H1817 C1803 0.958 . S
H1818 C1803 0.961 . S
H1819 C1803 0.960 . S
C1820 C1821 1.391 . S
C1820 C1822 1.394 . S
C1820 H1836 0.931 . S
C1821 C1820 1.391 . S
C1821 C1825 1.376 . S
C1822 C1820 1.394 . S
C1822 C1823 1.369 . S
C1822 C1826 1.531 . S
C1823 C1822 1.369 . S
C1823 C1824 1.410 . S
C1823 C1831 1.503 . S
C1824 C1823 1.410 . S
C1824 C1825 1.392 . S
C1824 C1827 1.511 . S
C1825 C1821 1.376 . S
C1825 C1824 1.392 . S
C1825 H1837 0.929 . S
C1826 C1822 1.531 . S
C1826 H1838 0.960 . S
C1826 H1839 0.962 . S
C1826 H1840 0.960 . S
C1827 C1824 1.511 . S
C1827 H1841 0.961 . S
C1827 H1842 0.961 . S
C1827 H1843 0.961 . S
C1828 C1829 1.370 . S
C1828 C1830 1.363 . S
C1828 H1844 0.931 . S
C1829 C1828 1.370 . S
C1829 C1833 1.408 . S
C1830 C1828 1.363 . S
C1830 C1831 1.370 . S
C1830 C1834 1.524 . S
C1831 C1823 1.503 . S
C1831 C1830 1.370 . S
C1831 C1832 1.403 . S
C1832 C1831 1.403 . S
C1832 C1833 1.404 . S
C1832 C1835 1.539 . S
C1833 C1829 1.408 . S
C1833 C1832 1.404 . S
C1833 H1845 0.930 . S
C1834 C1830 1.524 . S
C1834 H1846 0.956 . S
C1834 H1847 0.961 . S
C1834 H1848 0.961 . S
C1835 C1832 1.539 . S
C1835 H1849 0.958 . S
C1835 H1850 0.961 . S
C1835 H1851 0.960 . S
H1836 C1820 0.931 . S
H1837 C1825 0.929 . S
H1838 C1826 0.960 . S
H1839 C1826 0.962 . S
H1840 C1826 0.960 . S
H1841 C1827 0.961 . S
H1842 C1827 0.961 . S
H1843 C1827 0.961 . S
H1844 C1828 0.931 . S
H1845 C1833 0.930 . S
H1846 C1834 0.956 . S
H1847 C1834 0.961 . S
H1848 C1834 0.961 . S
H1849 C1835 0.958 . S
H1850 C1835 0.961 . S
H1851 C1835 0.960 . S
C1852 C1853 1.391 . S
C1852 C1854 1.394 . S
C1852 H1868 0.931 . S
C1853 C1852 1.391 . S
C1853 C1857 1.376 . S
C1854 C1852 1.394 . S
C1854 C1855 1.369 . S
C1854 C1858 1.531 . S
C1855 C1854 1.369 . S
C1855 C1856 1.410 . S
C1855 C1863 1.503 . S
C1856 C1855 1.410 . S
C1856 C1857 1.392 . S
C1856 C1859 1.511 . S
C1857 C1853 1.376 . S
C1857 C1856 1.392 . S
C1857 H1869 0.929 . S
C1858 C1854 1.531 . S
C1858 H1870 0.960 . S
C1858 H1871 0.962 . S
C1858 H1872 0.960 . S
C1859 C1856 1.511 . S
C1859 H1873 0.961 . S
C1859 H1874 0.961 . S
C1859 H1875 0.961 . S
C1860 C1861 1.370 . S
C1860 C1862 1.363 . S
C1860 H1876 0.931 . S
C1861 C1860 1.370 . S
C1861 C1865 1.408 . S
C1862 C1860 1.363 . S
C1862 C1863 1.370 . S
C1862 C1866 1.524 . S
C1863 C1855 1.503 . S
C1863 C1862 1.370 . S
C1863 C1864 1.403 . S
C1864 C1863 1.403 . S
C1864 C1865 1.404 . S
C1864 C1867 1.539 . S
C1865 C1861 1.408 . S
C1865 C1864 1.404 . S
C1865 H1877 0.930 . S
C1866 C1862 1.524 . S
C1866 H1878 0.956 . S
C1866 H1879 0.961 . S
C1866 H1880 0.961 . S
C1867 C1864 1.539 . S
C1867 H1881 0.958 . S
C1867 H1882 0.961 . S
C1867 H1883 0.960 . S
H1868 C1852 0.931 . S
H1869 C1857 0.929 . S
H1870 C1858 0.960 . S
H1871 C1858 0.962 . S
H1872 C1858 0.960 . S
H1873 C1859 0.961 . S
H1874 C1859 0.961 . S
H1875 C1859 0.961 . S
H1876 C1860 0.931 . S
H1877 C1865 0.930 . S
H1878 C1866 0.956 . S
H1879 C1866 0.961 . S
H1880 C1866 0.961 . S
H1881 C1867 0.958 . S
H1882 C1867 0.961 . S
H1883 C1867 0.960 . S
C1884 C1885 1.391 . S
C1884 C1886 1.394 . S
C1884 H1900 0.931 . S
C1885 C1884 1.391 . S
C1885 C1889 1.376 . S
C1886 C1884 1.394 . S
C1886 C1887 1.369 . S
C1886 C1890 1.531 . S
C1887 C1886 1.369 . S
C1887 C1888 1.410 . S
C1887 C1895 1.503 . S
C1888 C1887 1.410 . S
C1888 C1889 1.392 . S
C1888 C1891 1.511 . S
C1889 C1885 1.376 . S
C1889 C1888 1.392 . S
C1889 H1901 0.929 . S
C1890 C1886 1.531 . S
C1890 H1902 0.960 . S
C1890 H1903 0.962 . S
C1890 H1904 0.960 . S
C1891 C1888 1.511 . S
C1891 H1905 0.961 . S
C1891 H1906 0.961 . S
C1891 H1907 0.961 . S
C1892 C1893 1.370 . S
C1892 C1894 1.363 . S
C1892 H1908 0.931 . S
C1893 C1892 1.370 . S
C1893 C1897 1.408 . S
C1894 C1892 1.363 . S
C1894 C1895 1.370 . S
C1894 C1898 1.524 . S
C1895 C1887 1.503 . S
C1895 C1894 1.370 . S
C1895 C1896 1.403 . S
C1896 C1895 1.403 . S
C1896 C1897 1.404 . S
C1896 C1899 1.539 . S
C1897 C1893 1.408 . S
C1897 C1896 1.404 . S
C1897 H1909 0.930 . S
C1898 C1894 1.524 . S
C1898 H1910 0.956 . S
C1898 H1911 0.961 . S
C1898 H1912 0.961 . S
C1899 C1896 1.539 . S
C1899 H1913 0.958 . S
C1899 H1914 0.961 . S
C1899 H1915 0.960 . S
H1900 C1884 0.931 . S
H1901 C1889 0.929 . S
H1902 C1890 0.960 . S
H1903 C1890 0.962 . S
H1904 C1890 0.960 . S
H1905 C1891 0.961 . S
H1906 C1891 0.961 . S
H1907 C1891 0.961 . S
H1908 C1892 0.931 . S
H1909 C1897 0.930 . S
H1910 C1898 0.956 . S
H1911 C1898 0.961 . S
H1912 C1898 0.961 . S
H1913 C1899 0.958 . S
H1914 C1899 0.961 . S
H1915 C1899 0.960 . S
C1916 C1917 1.391 . S
C1916 C1918 1.394 . S
C1916 H1932 0.931 . S
C1917 C1916 1.391 . S
C1917 C1921 1.376 . S
C1918 C1916 1.394 . S
C1918 C1919 1.369 . S
C1918 C1922 1.531 . S
C1919 C1918 1.369 . S
C1919 C1920 1.410 . S
C1919 C1927 1.503 . S
C1920 C1919 1.410 . S
C1920 C1921 1.392 . S
C1920 C1923 1.511 . S
C1921 C1917 1.376 . S
C1921 C1920 1.392 . S
C1921 H1933 0.929 . S
C1922 C1918 1.531 . S
C1922 H1934 0.960 . S
C1922 H1935 0.962 . S
C1922 H1936 0.960 . S
C1923 C1920 1.511 . S
C1923 H1937 0.961 . S
C1923 H1938 0.961 . S
C1923 H1939 0.961 . S
C1924 C1925 1.370 . S
C1924 C1926 1.363 . S
C1924 H1940 0.931 . S
C1925 C1924 1.370 . S
C1925 C1929 1.408 . S
C1926 C1924 1.363 . S
C1926 C1927 1.370 . S
C1926 C1930 1.524 . S
C1927 C1919 1.503 . S
C1927 C1926 1.370 . S
C1927 C1928 1.403 . S
C1928 C1927 1.403 . S
C1928 C1929 1.404 . S
C1928 C1931 1.539 . S
C1929 C1925 1.408 . S
C1929 C1928 1.404 . S
C1929 H1941 0.930 . S
C1930 C1926 1.524 . S
C1930 H1942 0.956 . S
C1930 H1943 0.961 . S
C1930 H1944 0.961 . S
C1931 C1928 1.539 . S
C1931 H1945 0.958 . S
C1931 H1946 0.961 . S
C1931 H1947 0.960 . S
H1932 C1916 0.931 . S
H1933 C1921 0.929 . S
H1934 C1922 0.960 . S
H1935 C1922 0.962 . S
H1936 C1922 0.960 . S
H1937 C1923 0.961 . S
H1938 C1923 0.961 . S
H1939 C1923 0.961 . S
H1940 C1924 0.931 . S
H1941 C1929 0.930 . S
H1942 C1930 0.956 . S
H1943 C1930 0.961 . S
H1944 C1930 0.961 . S
H1945 C1931 0.958 . S
H1946 C1931 0.961 . S
H1947 C1931 0.960 . S
C1948 C1949 1.391 . S
C1948 C1950 1.394 . S
C1948 H1964 0.931 . S
C1949 C1948 1.391 . S
C1949 C1953 1.376 . S
C1950 C1948 1.394 . S
C1950 C1951 1.369 . S
C1950 C1954 1.531 . S
C1951 C1950 1.369 . S
C1951 C1952 1.410 . S
C1951 C1959 1.503 . S
C1952 C1951 1.410 . S
C1952 C1953 1.392 . S
C1952 C1955 1.511 . S
C1953 C1949 1.376 . S
C1953 C1952 1.392 . S
C1953 H1965 0.929 . S
C1954 C1950 1.531 . S
C1954 H1966 0.960 . S
C1954 H1967 0.962 . S
C1954 H1968 0.960 . S
C1955 C1952 1.511 . S
C1955 H1969 0.961 . S
C1955 H1970 0.961 . S
C1955 H1971 0.961 . S
C1956 C1957 1.370 . S
C1956 C1958 1.363 . S
C1956 H1972 0.931 . S
C1957 C1956 1.370 . S
C1957 C1961 1.408 . S
C1958 C1956 1.363 . S
C1958 C1959 1.370 . S
C1958 C1962 1.524 . S
C1959 C1951 1.503 . S
C1959 C1958 1.370 . S
C1959 C1960 1.403 . S
C1960 C1959 1.403 . S
C1960 C1961 1.404 . S
C1960 C1963 1.539 . S
C1961 C1957 1.408 . S
C1961 C1960 1.404 . S
C1961 H1973 0.930 . S
C1962 C1958 1.524 . S
C1962 H1974 0.956 . S
C1962 H1975 0.961 . S
C1962 H1976 0.961 . S
C1963 C1960 1.539 . S
C1963 H1977 0.958 . S
C1963 H1978 0.961 . S
C1963 H1979 0.960 . S
H1964 C1948 0.931 . S
H1965 C1953 0.929 . S
H1966 C1954 0.960 . S
H1967 C1954 0.962 . S
H1968 C1954 0.960 . S
H1969 C1955 0.961 . S
H1970 C1955 0.961 . S
H1971 C1955 0.961 . S
H1972 C1956 0.931 . S
H1973 C1961 0.930 . S
H1974 C1962 0.956 . S
H1975 C1962 0.961 . S
H1976 C1962 0.961 . S
H1977 C1963 0.958 . S
H1978 C1963 0.961 . S
H1979 C1963 0.960 . S
C1980 C1981 1.391 . S
C1980 C1982 1.394 . S
C1980 H1996 0.931 . S
C1981 C1980 1.391 . S
C1981 C1985 1.376 . S
C1982 C1980 1.394 . S
C1982 C1983 1.369 . S
C1982 C1986 1.531 . S
C1983 C1982 1.369 . S
C1983 C1984 1.410 . S
C1983 C1991 1.503 . S
C1984 C1983 1.410 . S
C1984 C1985 1.392 . S
C1984 C1987 1.511 . S
C1985 C1981 1.376 . S
C1985 C1984 1.392 . S
C1985 H1997 0.929 . S
C1986 C1982 1.531 . S
C1986 H1998 0.960 . S
C1986 H1999 0.962 . S
C1986 H2000 0.960 . S
C1987 C1984 1.511 . S
C1987 H2001 0.961 . S
C1987 H2002 0.961 . S
C1987 H2003 0.961 . S
C1988 C1989 1.370 . S
C1988 C1990 1.363 . S
C1988 H2004 0.931 . S
C1989 C1988 1.370 . S
C1989 C1993 1.408 . S
C1990 C1988 1.363 . S
C1990 C1991 1.370 . S
C1990 C1994 1.524 . S
C1991 C1983 1.503 . S
C1991 C1990 1.370 . S
C1991 C1992 1.403 . S
C1992 C1991 1.403 . S
C1992 C1993 1.404 . S
C1992 C1995 1.539 . S
C1993 C1989 1.408 . S
C1993 C1992 1.404 . S
C1993 H2005 0.930 . S
C1994 C1990 1.524 . S
C1994 H2006 0.956 . S
C1994 H2007 0.961 . S
C1994 H2008 0.961 . S
C1995 C1992 1.539 . S
C1995 H2009 0.958 . S
C1995 H2010 0.961 . S
C1995 H2011 0.960 . S
H1996 C1980 0.931 . S
H1997 C1985 0.929 . S
H1998 C1986 0.960 . S
H1999 C1986 0.962 . S
H2000 C1986 0.960 . S
H2001 C1987 0.961 . S
H2002 C1987 0.961 . S
H2003 C1987 0.961 . S
H2004 C1988 0.931 . S
H2005 C1993 0.930 . S
H2006 C1994 0.956 . S
H2007 C1994 0.961 . S
H2008 C1994 0.961 . S
H2009 C1995 0.958 . S
H2010 C1995 0.961 . S
H2011 C1995 0.960 . S
C2012 C2013 1.391 . S
C2012 C2014 1.394 . S
C2012 H2028 0.931 . S
C2013 C2012 1.391 . S
C2013 C2017 1.376 . S
C2014 C2012 1.394 . S
C2014 C2015 1.369 . S
C2014 C2018 1.531 . S
C2015 C2014 1.369 . S
C2015 C2016 1.410 . S
C2015 C2023 1.503 . S
C2016 C2015 1.410 . S
C2016 C2017 1.392 . S
C2016 C2019 1.511 . S
C2017 C2013 1.376 . S
C2017 C2016 1.392 . S
C2017 H2029 0.929 . S
C2018 C2014 1.531 . S
C2018 H2030 0.960 . S
C2018 H2031 0.962 . S
C2018 H2032 0.960 . S
C2019 C2016 1.511 . S
C2019 H2033 0.961 . S
C2019 H2034 0.961 . S
C2019 H2035 0.961 . S
C2020 C2021 1.370 . S
C2020 C2022 1.363 . S
C2020 H2036 0.931 . S
C2021 C2020 1.370 . S
C2021 C2025 1.408 . S
C2022 C2020 1.363 . S
C2022 C2023 1.370 . S
C2022 C2026 1.524 . S
C2023 C2015 1.503 . S
C2023 C2022 1.370 . S
C2023 C2024 1.403 . S
C2024 C2023 1.403 . S
C2024 C2025 1.404 . S
C2024 C2027 1.539 . S
C2025 C2021 1.408 . S
C2025 C2024 1.404 . S
C2025 H2037 0.930 . S
C2026 C2022 1.524 . S
C2026 H2038 0.956 . S
C2026 H2039 0.961 . S
C2026 H2040 0.961 . S
C2027 C2024 1.539 . S
C2027 H2041 0.958 . S
C2027 H2042 0.961 . S
C2027 H2043 0.960 . S
H2028 C2012 0.931 . S
H2029 C2017 0.929 . S
H2030 C2018 0.960 . S
H2031 C2018 0.962 . S
H2032 C2018 0.960 . S
H2033 C2019 0.961 . S
H2034 C2019 0.961 . S
H2035 C2019 0.961 . S
H2036 C2020 0.931 . S
H2037 C2025 0.930 . S
H2038 C2026 0.956 . S
H2039 C2026 0.961 . S
H2040 C2026 0.961 . S
H2041 C2027 0.958 . S
H2042 C2027 0.961 . S
H2043 C2027 0.960 . S
C2044 C2045 1.391 . S
C2044 C2046 1.394 . S
C2044 H2060 0.931 . S
C2045 C2044 1.391 . S
C2045 C2049 1.376 . S
C2046 C2044 1.394 . S
C2046 C2047 1.369 . S
C2046 C2050 1.531 . S
C2047 C2046 1.369 . S
C2047 C2048 1.410 . S
C2047 C2055 1.503 . S
C2048 C2047 1.410 . S
C2048 C2049 1.392 . S
C2048 C2051 1.511 . S
C2049 C2045 1.376 . S
C2049 C2048 1.392 . S
C2049 H2061 0.929 . S
C2050 C2046 1.531 . S
C2050 H2062 0.960 . S
C2050 H2063 0.962 . S
C2050 H2064 0.960 . S
C2051 C2048 1.511 . S
C2051 H2065 0.961 . S
C2051 H2066 0.961 . S
C2051 H2067 0.961 . S
C2052 C2053 1.370 . S
C2052 C2054 1.363 . S
C2052 H2068 0.931 . S
C2053 C2052 1.370 . S
C2053 C2057 1.408 . S
C2054 C2052 1.363 . S
C2054 C2055 1.370 . S
C2054 C2058 1.524 . S
C2055 C2047 1.503 . S
C2055 C2054 1.370 . S
C2055 C2056 1.403 . S
C2056 C2055 1.403 . S
C2056 C2057 1.404 . S
C2056 C2059 1.539 . S
C2057 C2053 1.408 . S
C2057 C2056 1.404 . S
C2057 H2069 0.930 . S
C2058 C2054 1.524 . S
C2058 H2070 0.956 . S
C2058 H2071 0.961 . S
C2058 H2072 0.961 . S
C2059 C2056 1.539 . S
C2059 H2073 0.958 . S
C2059 H2074 0.961 . S
C2059 H2075 0.960 . S
H2060 C2044 0.931 . S
H2061 C2049 0.929 . S
H2062 C2050 0.960 . S
H2063 C2050 0.962 . S
H2064 C2050 0.960 . S
H2065 C2051 0.961 . S
H2066 C2051 0.961 . S
H2067 C2051 0.961 . S
H2068 C2052 0.931 . S
H2069 C2057 0.930 . S
H2070 C2058 0.956 . S
H2071 C2058 0.961 . S
H2072 C2058 0.961 . S
H2073 C2059 0.958 . S
H2074 C2059 0.961 . S
H2075 C2059 0.960 . S
C2076 C2077 1.391 . S
C2076 C2078 1.394 . S
C2076 H2092 0.931 . S
C2077 C2076 1.391 . S
C2077 C2081 1.376 . S
C2078 C2076 1.394 . S
C2078 C2079 1.369 . S
C2078 C2082 1.531 . S
C2079 C2078 1.369 . S
C2079 C2080 1.410 . S
C2079 C2087 1.503 . S
C2080 C2079 1.410 . S
C2080 C2081 1.392 . S
C2080 C2083 1.511 . S
C2081 C2077 1.376 . S
C2081 C2080 1.392 . S
C2081 H2093 0.929 . S
C2082 C2078 1.531 . S
C2082 H2094 0.960 . S
C2082 H2095 0.962 . S
C2082 H2096 0.960 . S
C2083 C2080 1.511 . S
C2083 H2097 0.961 . S
C2083 H2098 0.961 . S
C2083 H2099 0.961 . S
C2084 C2085 1.370 . S
C2084 C2086 1.363 . S
C2084 H2100 0.931 . S
C2085 C2084 1.370 . S
C2085 C2089 1.408 . S
C2086 C2084 1.363 . S
C2086 C2087 1.370 . S
C2086 C2090 1.524 . S
C2087 C2079 1.503 . S
C2087 C2086 1.370 . S
C2087 C2088 1.403 . S
C2088 C2087 1.403 . S
C2088 C2089 1.404 . S
C2088 C2091 1.539 . S
C2089 C2085 1.408 . S
C2089 C2088 1.404 . S
C2089 H2101 0.930 . S
C2090 C2086 1.524 . S
C2090 H2102 0.956 . S
C2090 H2103 0.961 . S
C2090 H2104 0.961 . S
C2091 C2088 1.539 . S
C2091 H2105 0.958 . S
C2091 H2106 0.961 . S
C2091 H2107 0.960 . S
H2092 C2076 0.931 . S
H2093 C2081 0.929 . S
H2094 C2082 0.960 . S
H2095 C2082 0.962 . S
H2096 C2082 0.960 . S
H2097 C2083 0.961 . S
H2098 C2083 0.961 . S
H2099 C2083 0.961 . S
H2100 C2084 0.931 . S
H2101 C2089 0.930 . S
H2102 C2090 0.956 . S
H2103 C2090 0.961 . S
H2104 C2090 0.961 . S
H2105 C2091 0.958 . S
H2106 C2091 0.961 . S
H2107 C2091 0.960 . S
C2108 C2109 1.391 . S
C2108 C2110 1.394 . S
C2108 H2124 0.931 . S
C2109 C2108 1.391 . S
C2109 C2113 1.376 . S
C2110 C2108 1.394 . S
C2110 C2111 1.369 . S
C2110 C2114 1.531 . S
C2111 C2110 1.369 . S
C2111 C2112 1.410 . S
C2111 C2119 1.503 . S
C2112 C2111 1.410 . S
C2112 C2113 1.392 . S
C2112 C2115 1.511 . S
C2113 C2109 1.376 . S
C2113 C2112 1.392 . S
C2113 H2125 0.929 . S
C2114 C2110 1.531 . S
C2114 H2126 0.960 . S
C2114 H2127 0.962 . S
C2114 H2128 0.960 . S
C2115 C2112 1.511 . S
C2115 H2129 0.961 . S
C2115 H2130 0.961 . S
C2115 H2131 0.961 . S
C2116 C2117 1.370 . S
C2116 C2118 1.363 . S
C2116 H2132 0.931 . S
C2117 C2116 1.370 . S
C2117 C2121 1.408 . S
C2118 C2116 1.363 . S
C2118 C2119 1.370 . S
C2118 C2122 1.524 . S
C2119 C2111 1.503 . S
C2119 C2118 1.370 . S
C2119 C2120 1.403 . S
C2120 C2119 1.403 . S
C2120 C2121 1.404 . S
C2120 C2123 1.539 . S
C2121 C2117 1.408 . S
C2121 C2120 1.404 . S
C2121 H2133 0.930 . S
C2122 C2118 1.524 . S
C2122 H2134 0.956 . S
C2122 H2135 0.961 . S
C2122 H2136 0.961 . S
C2123 C2120 1.539 . S
C2123 H2137 0.958 . S
C2123 H2138 0.961 . S
C2123 H2139 0.960 . S
H2124 C2108 0.931 . S
H2125 C2113 0.929 . S
H2126 C2114 0.960 . S
H2127 C2114 0.962 . S
H2128 C2114 0.960 . S
H2129 C2115 0.961 . S
H2130 C2115 0.961 . S
H2131 C2115 0.961 . S
H2132 C2116 0.931 . S
H2133 C2121 0.930 . S
H2134 C2122 0.956 . S
H2135 C2122 0.961 . S
H2136 C2122 0.961 . S
H2137 C2123 0.958 . S
H2138 C2123 0.961 . S
H2139 C2123 0.960 . S
C2140 C2141 1.391 . S
C2140 C2142 1.394 . S
C2140 H2156 0.931 . S
C2141 C2140 1.391 . S
C2141 C2145 1.376 . S
C2142 C2140 1.394 . S
C2142 C2143 1.369 . S
C2142 C2146 1.531 . S
C2143 C2142 1.369 . S
C2143 C2144 1.410 . S
C2143 C2151 1.503 . S
C2144 C2143 1.410 . S
C2144 C2145 1.392 . S
C2144 C2147 1.511 . S
C2145 C2141 1.376 . S
C2145 C2144 1.392 . S
C2145 H2157 0.929 . S
C2146 C2142 1.531 . S
C2146 H2158 0.960 . S
C2146 H2159 0.962 . S
C2146 H2160 0.960 . S
C2147 C2144 1.511 . S
C2147 H2161 0.961 . S
C2147 H2162 0.961 . S
C2147 H2163 0.961 . S
C2148 C2149 1.370 . S
C2148 C2150 1.363 . S
C2148 H2164 0.931 . S
C2149 C2148 1.370 . S
C2149 C2153 1.408 . S
C2150 C2148 1.363 . S
C2150 C2151 1.370 . S
C2150 C2154 1.524 . S
C2151 C2143 1.503 . S
C2151 C2150 1.370 . S
C2151 C2152 1.403 . S
C2152 C2151 1.403 . S
C2152 C2153 1.404 . S
C2152 C2155 1.539 . S
C2153 C2149 1.408 . S
C2153 C2152 1.404 . S
C2153 H2165 0.930 . S
C2154 C2150 1.524 . S
C2154 H2166 0.956 . S
C2154 H2167 0.961 . S
C2154 H2168 0.961 . S
C2155 C2152 1.539 . S
C2155 H2169 0.958 . S
C2155 H2170 0.961 . S
C2155 H2171 0.960 . S
H2156 C2140 0.931 . S
H2157 C2145 0.929 . S
H2158 C2146 0.960 . S
H2159 C2146 0.962 . S
H2160 C2146 0.960 . S
H2161 C2147 0.961 . S
H2162 C2147 0.961 . S
H2163 C2147 0.961 . S
H2164 C2148 0.931 . S
H2165 C2153 0.930 . S
H2166 C2154 0.956 . S
H2167 C2154 0.961 . S
H2168 C2154 0.961 . S
H2169 C2155 0.958 . S
H2170 C2155 0.961 . S
H2171 C2155 0.960 . S
C2172 C2173 1.391 . S
C2172 C2174 1.394 . S
C2172 H2188 0.931 . S
C2173 C2172 1.391 . S
C2173 C2177 1.376 . S
C2174 C2172 1.394 . S
C2174 C2175 1.369 . S
C2174 C2178 1.531 . S
C2175 C2174 1.369 . S
C2175 C2176 1.410 . S
C2175 C2183 1.503 . S
C2176 C2175 1.410 . S
C2176 C2177 1.392 . S
C2176 C2179 1.511 . S
C2177 C2173 1.376 . S
C2177 C2176 1.392 . S
C2177 H2189 0.929 . S
C2178 C2174 1.531 . S
C2178 H2190 0.960 . S
C2178 H2191 0.962 . S
C2178 H2192 0.960 . S
C2179 C2176 1.511 . S
C2179 H2193 0.961 . S
C2179 H2194 0.961 . S
C2179 H2195 0.961 . S
C2180 C2181 1.370 . S
C2180 C2182 1.363 . S
C2180 H2196 0.931 . S
C2181 C2180 1.370 . S
C2181 C2185 1.408 . S
C2182 C2180 1.363 . S
C2182 C2183 1.370 . S
C2182 C2186 1.524 . S
C2183 C2175 1.503 . S
C2183 C2182 1.370 . S
C2183 C2184 1.403 . S
C2184 C2183 1.403 . S
C2184 C2185 1.404 . S
C2184 C2187 1.539 . S
C2185 C2181 1.408 . S
C2185 C2184 1.404 . S
C2185 H2197 0.930 . S
C2186 C2182 1.524 . S
C2186 H2198 0.956 . S
C2186 H2199 0.961 . S
C2186 H2200 0.961 . S
C2187 C2184 1.539 . S
C2187 H2201 0.958 . S
C2187 H2202 0.961 . S
C2187 H2203 0.960 . S
H2188 C2172 0.931 . S
H2189 C2177 0.929 . S
H2190 C2178 0.960 . S
H2191 C2178 0.962 . S
H2192 C2178 0.960 . S
H2193 C2179 0.961 . S
H2194 C2179 0.961 . S
H2195 C2179 0.961 . S
H2196 C2180 0.931 . S
H2197 C2185 0.930 . S
H2198 C2186 0.956 . S
H2199 C2186 0.961 . S
H2200 C2186 0.961 . S
H2201 C2187 0.958 . S
H2202 C2187 0.961 . S
H2203 C2187 0.960 . S
C2204 C2205 1.391 . S
C2204 C2206 1.394 . S
C2204 H2220 0.931 . S
C2205 C2204 1.391 . S
C2205 C2209 1.376 . S
C2206 C2204 1.394 . S
C2206 C2207 1.369 . S
C2206 C2210 1.531 . S
C2207 C2206 1.369 . S
C2207 C2208 1.410 . S
C2207 C2215 1.503 . S
C2208 C2207 1.410 . S
C2208 C2209 1.392 . S
C2208 C2211 1.511 . S
C2209 C2205 1.376 . S
C2209 C2208 1.392 . S
C2209 H2221 0.929 . S
C2210 C2206 1.531 . S
C2210 H2222 0.960 . S
C2210 H2223 0.962 . S
C2210 H2224 0.960 . S
C2211 C2208 1.511 . S
C2211 H2225 0.961 . S
C2211 H2226 0.961 . S
C2211 H2227 0.961 . S
C2212 C2213 1.370 . S
C2212 C2214 1.363 . S
C2212 H2228 0.931 . S
C2213 C2212 1.370 . S
C2213 C2217 1.408 . S
C2214 C2212 1.363 . S
C2214 C2215 1.370 . S
C2214 C2218 1.524 . S
C2215 C2207 1.503 . S
C2215 C2214 1.370 . S
C2215 C2216 1.403 . S
C2216 C2215 1.403 . S
C2216 C2217 1.404 . S
C2216 C2219 1.539 . S
C2217 C2213 1.408 . S
C2217 C2216 1.404 . S
C2217 H2229 0.930 . S
C2218 C2214 1.524 . S
C2218 H2230 0.956 . S
C2218 H2231 0.961 . S
C2218 H2232 0.961 . S
C2219 C2216 1.539 . S
C2219 H2233 0.958 . S
C2219 H2234 0.961 . S
C2219 H2235 0.960 . S
H2220 C2204 0.931 . S
H2221 C2209 0.929 . S
H2222 C2210 0.960 . S
H2223 C2210 0.962 . S
H2224 C2210 0.960 . S
H2225 C2211 0.961 . S
H2226 C2211 0.961 . S
H2227 C2211 0.961 . S
H2228 C2212 0.931 . S
H2229 C2217 0.930 . S
H2230 C2218 0.956 . S
H2231 C2218 0.961 . S
H2232 C2218 0.961 . S
H2233 C2219 0.958 . S
H2234 C2219 0.961 . S
H2235 C2219 0.960 . S
C2236 C2237 1.391 . S
C2236 C2238 1.394 . S
C2236 H2252 0.931 . S
C2237 C2236 1.391 . S
C2237 C2241 1.376 . S
C2238 C2236 1.394 . S
C2238 C2239 1.369 . S
C2238 C2242 1.531 . S
C2239 C2238 1.369 . S
C2239 C2240 1.410 . S
C2239 C2247 1.503 . S
C2240 C2239 1.410 . S
C2240 C2241 1.392 . S
C2240 C2243 1.511 . S
C2241 C2237 1.376 . S
C2241 C2240 1.392 . S
C2241 H2253 0.929 . S
C2242 C2238 1.531 . S
C2242 H2254 0.960 . S
C2242 H2255 0.962 . S
C2242 H2256 0.960 . S
C2243 C2240 1.511 . S
C2243 H2257 0.961 . S
C2243 H2258 0.961 . S
C2243 H2259 0.961 . S
C2244 C2245 1.370 . S
C2244 C2246 1.363 . S
C2244 H2260 0.931 . S
C2245 C2244 1.370 . S
C2245 C2249 1.408 . S
C2246 C2244 1.363 . S
C2246 C2247 1.370 . S
C2246 C2250 1.524 . S
C2247 C2239 1.503 . S
C2247 C2246 1.370 . S
C2247 C2248 1.403 . S
C2248 C2247 1.403 . S
C2248 C2249 1.404 . S
C2248 C2251 1.539 . S
C2249 C2245 1.408 . S
C2249 C2248 1.404 . S
C2249 H2261 0.930 . S
C2250 C2246 1.524 . S
C2250 H2262 0.956 . S
C2250 H2263 0.961 . S
C2250 H2264 0.961 . S
C2251 C2248 1.539 . S
C2251 H2265 0.958 . S
C2251 H2266 0.961 . S
C2251 H2267 0.960 . S
H2252 C2236 0.931 . S
H2253 C2241 0.929 . S
H2254 C2242 0.960 . S
H2255 C2242 0.962 . S
H2256 C2242 0.960 . S
H2257 C2243 0.961 . S
H2258 C2243 0.961 . S
H2259 C2243 0.961 . S
H2260 C2244 0.931 . S
H2261 C2249 0.930 . S
H2262 C2250 0.956 . S
H2263 C2250 0.961 . S
H2264 C2250 0.961 . S
H2265 C2251 0.958 . S
H2266 C2251 0.961 . S
H2267 C2251 0.960 . S
C2268 C2269 1.391 . S
C2268 C2270 1.394 . S
C2268 H2284 0.931 . S
C2269 C2268 1.391 . S
C2269 C2273 1.376 . S
C2270 C2268 1.394 . S
C2270 C2271 1.369 . S
C2270 C2274 1.531 . S
C2271 C2270 1.369 . S
C2271 C2272 1.410 . S
C2271 C2279 1.503 . S
C2272 C2271 1.410 . S
C2272 C2273 1.392 . S
C2272 C2275 1.511 . S
C2273 C2269 1.376 . S
C2273 C2272 1.392 . S
C2273 H2285 0.929 . S
C2274 C2270 1.531 . S
C2274 H2286 0.960 . S
C2274 H2287 0.962 . S
C2274 H2288 0.960 . S
C2275 C2272 1.511 . S
C2275 H2289 0.961 . S
C2275 H2290 0.961 . S
C2275 H2291 0.961 . S
C2276 C2277 1.370 . S
C2276 C2278 1.363 . S
C2276 H2292 0.931 . S
C2277 C2276 1.370 . S
C2277 C2281 1.408 . S
C2278 C2276 1.363 . S
C2278 C2279 1.370 . S
C2278 C2282 1.524 . S
C2279 C2271 1.503 . S
C2279 C2278 1.370 . S
C2279 C2280 1.403 . S
C2280 C2279 1.403 . S
C2280 C2281 1.404 . S
C2280 C2283 1.539 . S
C2281 C2277 1.408 . S
C2281 C2280 1.404 . S
C2281 H2293 0.930 . S
C2282 C2278 1.524 . S
C2282 H2294 0.956 . S
C2282 H2295 0.961 . S
C2282 H2296 0.961 . S
C2283 C2280 1.539 . S
C2283 H2297 0.958 . S
C2283 H2298 0.961 . S
C2283 H2299 0.960 . S
H2284 C2268 0.931 . S
H2285 C2273 0.929 . S
H2286 C2274 0.960 . S
H2287 C2274 0.962 . S
H2288 C2274 0.960 . S
H2289 C2275 0.961 . S
H2290 C2275 0.961 . S
H2291 C2275 0.961 . S
H2292 C2276 0.931 . S
H2293 C2281 0.930 . S
H2294 C2282 0.956 . S
H2295 C2282 0.961 . S
H2296 C2282 0.961 . S
H2297 C2283 0.958 . S
H2298 C2283 0.961 . S
H2299 C2283 0.960 . S
C2300 C2301 1.391 . S
C2300 C2302 1.394 . S
C2300 H2316 0.931 . S
C2301 C2300 1.391 . S
C2301 C2305 1.376 . S
C2302 C2300 1.394 . S
C2302 C2303 1.369 . S
C2302 C2306 1.531 . S
C2303 C2302 1.369 . S
C2303 C2304 1.410 . S
C2303 C2311 1.503 . S
C2304 C2303 1.410 . S
C2304 C2305 1.392 . S
C2304 C2307 1.511 . S
C2305 C2301 1.376 . S
C2305 C2304 1.392 . S
C2305 H2317 0.929 . S
C2306 C2302 1.531 . S
C2306 H2318 0.960 . S
C2306 H2319 0.962 . S
C2306 H2320 0.960 . S
C2307 C2304 1.511 . S
C2307 H2321 0.961 . S
C2307 H2322 0.961 . S
C2307 H2323 0.961 . S
C2308 C2309 1.370 . S
C2308 C2310 1.363 . S
C2308 H2324 0.931 . S
C2309 C2308 1.370 . S
C2309 C2313 1.408 . S
C2310 C2308 1.363 . S
C2310 C2311 1.370 . S
C2310 C2314 1.524 . S
C2311 C2303 1.503 . S
C2311 C2310 1.370 . S
C2311 C2312 1.403 . S
C2312 C2311 1.403 . S
C2312 C2313 1.404 . S
C2312 C2315 1.539 . S
C2313 C2309 1.408 . S
C2313 C2312 1.404 . S
C2313 H2325 0.930 . S
C2314 C2310 1.524 . S
C2314 H2326 0.956 . S
C2314 H2327 0.961 . S
C2314 H2328 0.961 . S
C2315 C2312 1.539 . S
C2315 H2329 0.958 . S
C2315 H2330 0.961 . S
C2315 H2331 0.960 . S
H2316 C2300 0.931 . S
H2317 C2305 0.929 . S
H2318 C2306 0.960 . S
H2319 C2306 0.962 . S
H2320 C2306 0.960 . S
H2321 C2307 0.961 . S
H2322 C2307 0.961 . S
H2323 C2307 0.961 . S
H2324 C2308 0.931 . S
H2325 C2313 0.930 . S
H2326 C2314 0.956 . S
H2327 C2314 0.961 . S
H2328 C2314 0.961 . S
H2329 C2315 0.958 . S
H2330 C2315 0.961 . S
H2331 C2315 0.960 . S
C2332 C2333 1.391 . S
C2332 C2334 1.394 . S
C2332 H2348 0.931 . S
C2333 C2332 1.391 . S
C2333 C2337 1.376 . S
C2334 C2332 1.394 . S
C2334 C2335 1.369 . S
C2334 C2338 1.531 . S
C2335 C2334 1.369 . S
C2335 C2336 1.410 . S
C2335 C2343 1.503 . S
C2336 C2335 1.410 . S
C2336 C2337 1.392 . S
C2336 C2339 1.511 . S
C2337 C2333 1.376 . S
C2337 C2336 1.392 . S
C2337 H2349 0.929 . S
C2338 C2334 1.531 . S
C2338 H2350 0.960 . S
C2338 H2351 0.962 . S
C2338 H2352 0.960 . S
C2339 C2336 1.511 . S
C2339 H2353 0.961 . S
C2339 H2354 0.961 . S
C2339 H2355 0.961 . S
C2340 C2341 1.370 . S
C2340 C2342 1.363 . S
C2340 H2356 0.931 . S
C2341 C2340 1.370 . S
C2341 C2345 1.408 . S
C2342 C2340 1.363 . S
C2342 C2343 1.370 . S
C2342 C2346 1.524 . S
C2343 C2335 1.503 . S
C2343 C2342 1.370 . S
C2343 C2344 1.403 . S
C2344 C2343 1.403 . S
C2344 C2345 1.404 . S
C2344 C2347 1.539 . S
C2345 C2341 1.408 . S
C2345 C2344 1.404 . S
C2345 H2357 0.930 . S
C2346 C2342 1.524 . S
C2346 H2358 0.956 . S
C2346 H2359 0.961 . S
C2346 H2360 0.961 . S
C2347 C2344 1.539 . S
C2347 H2361 0.958 . S
C2347 H2362 0.961 . S
C2347 H2363 0.960 . S
H2348 C2332 0.931 . S
H2349 C2337 0.929 . S
H2350 C2338 0.960 . S
H2351 C2338 0.962 . S
H2352 C2338 0.960 . S
H2353 C2339 0.961 . S
H2354 C2339 0.961 . S
H2355 C2339 0.961 . S
H2356 C2340 0.931 . S
H2357 C2345 0.930 . S
H2358 C2346 0.956 . S
H2359 C2346 0.961 . S
H2360 C2346 0.961 . S
H2361 C2347 0.958 . S
H2362 C2347 0.961 . S
H2363 C2347 0.960 . S
C2364 C2365 1.391 . S
C2364 C2366 1.394 . S
C2364 H2380 0.931 . S
C2365 C2364 1.391 . S
C2365 C2369 1.376 1_556 S
C2366 C2364 1.394 . S
C2366 C2367 1.369 . S
C2366 C2370 1.531 . S
C2367 C2366 1.369 . S
C2367 C2368 1.410 . S
C2367 C2375 1.503 . S
C2368 C2367 1.410 . S
C2368 C2369 1.392 1_556 S
C2368 C2371 1.511 1_556 S
C2369 C2365 1.376 1_554 S
C2369 C2368 1.392 1_554 S
C2369 H2381 0.929 . S
C2370 C2366 1.531 . S
C2370 H2382 0.960 . S
C2370 H2383 0.962 . S
C2370 H2384 0.960 . S
C2371 C2368 1.511 1_554 S
C2371 H2385 0.961 . S
C2371 H2386 0.961 1_554 S
C2371 H2387 0.961 . S
C2372 C2373 1.370 . S
C2372 C2374 1.363 . S
C2372 H2388 0.931 . S
C2373 C2372 1.370 . S
C2373 C2377 1.408 . S
C2374 C2372 1.363 . S
C2374 C2375 1.370 . S
C2374 C2378 1.524 . S
C2375 C2367 1.503 . S
C2375 C2374 1.370 . S
C2375 C2376 1.403 . S
C2376 C2375 1.403 . S
C2376 C2377 1.404 . S
C2376 C2379 1.539 . S
C2377 C2373 1.408 . S
C2377 C2376 1.404 . S
C2377 H2389 0.930 . S
C2378 C2374 1.524 . S
C2378 H2390 0.956 . S
C2378 H2391 0.961 . S
C2378 H2392 0.961 . S
C2379 C2376 1.539 . S
C2379 H2393 0.958 . S
C2379 H2394 0.961 . S
C2379 H2395 0.960 . S
H2380 C2364 0.931 . S
H2381 C2369 0.929 . S
H2382 C2370 0.960 . S
H2383 C2370 0.962 . S
H2384 C2370 0.960 . S
H2385 C2371 0.961 . S
H2386 C2371 0.961 1_556 S
H2387 C2371 0.961 . S
H2388 C2372 0.931 . S
H2389 C2377 0.930 . S
H2390 C2378 0.956 . S
H2391 C2378 0.961 . S
H2392 C2378 0.961 . S
H2393 C2379 0.958 . S
H2394 C2379 0.961 . S
H2395 C2379 0.960 . S
C2396 C2397 1.391 . S
C2396 C2398 1.394 . S
C2396 H2412 0.931 . S
C2397 C2396 1.391 . S
C2397 C2401 1.376 . S
C2398 C2396 1.394 . S
C2398 C2399 1.369 . S
C2398 C2402 1.531 . S
C2399 C2398 1.369 . S
C2399 C2400 1.410 . S
C2399 C2407 1.503 . S
C2400 C2399 1.410 . S
C2400 C2401 1.392 . S
C2400 C2403 1.511 . S
C2401 C2397 1.376 . S
C2401 C2400 1.392 . S
C2401 H2413 0.914 1_556 S
C2402 C2398 1.531 . S
C2402 H2414 0.960 . S
C2402 H2415 0.962 . S
C2402 H2416 0.960 . S
C2403 C2400 1.511 . S
C2403 H2417 0.961 . S
C2403 H2418 0.961 . S
C2403 H2419 0.961 1_556 S
C2404 C2405 1.370 . S
C2404 C2406 1.363 . S
C2404 H2420 0.931 . S
C2405 C2404 1.370 . S
C2405 C2409 1.408 . S
C2406 C2404 1.363 . S
C2406 C2407 1.370 . S
C2406 C2410 1.524 . S
C2407 C2399 1.503 . S
C2407 C2406 1.370 . S
C2407 C2408 1.403 . S
C2408 C2407 1.403 . S
C2408 C2409 1.404 . S
C2408 C2411 1.539 . S
C2409 C2405 1.408 . S
C2409 C2408 1.404 . S
C2409 H2421 0.930 . S
C2410 C2406 1.524 . S
C2410 H2422 0.956 . S
C2410 H2423 0.961 . S
C2410 H2424 0.961 . S
C2411 C2408 1.539 . S
C2411 H2425 0.958 . S
C2411 H2426 0.961 1_556 S
C2411 H2427 0.960 1_556 S
H2412 C2396 0.931 . S
H2413 C2401 0.914 1_554 S
H2414 C2402 0.960 . S
H2415 C2402 0.962 . S
H2416 C2402 0.960 . S
H2417 C2403 0.961 . S
H2418 C2403 0.961 . S
H2419 C2403 0.961 1_554 S
H2420 C2404 0.931 . S
H2421 C2409 0.930 . S
H2422 C2410 0.956 . S
H2423 C2410 0.961 . S
H2424 C2410 0.961 . S
H2425 C2411 0.958 . S
H2426 C2411 0.961 1_554 S
H2427 C2411 0.960 1_554 S
C2428 C2429 1.391 . S
C2428 C2430 1.394 . S
C2428 H2444 0.931 . S
C2429 C2428 1.391 . S
C2429 C2433 1.376 . S
C2430 C2428 1.394 . S
C2430 C2431 1.369 . S
C2430 C2434 1.531 . S
C2431 C2430 1.369 . S
C2431 C2432 1.410 . S
C2431 C2439 1.503 . S
C2432 C2431 1.410 . S
C2432 C2433 1.392 . S
C2432 C2435 1.518 . S
C2433 C2429 1.376 . S
C2433 C2432 1.392 . S
C2433 H2445 0.929 1_556 S
C2434 C2430 1.531 . S
C2434 H2446 0.960 . S
C2434 H2447 0.962 . S
C2434 H2448 0.960 . S
C2435 C2432 1.518 . S
C2435 H2449 0.947 1_556 S
C2435 H2450 0.965 . S
C2435 H2451 0.964 . S
C2436 C2437 1.370 . S
C2436 C2438 1.363 . S
C2436 H2452 0.931 . S
C2437 C2436 1.370 . S
C2437 C2441 1.408 . S
C2438 C2436 1.363 . S
C2438 C2439 1.370 . S
C2438 C2442 1.524 . S
C2439 C2431 1.503 . S
C2439 C2438 1.370 . S
C2439 C2440 1.403 . S
C2440 C2439 1.403 . S
C2440 C2441 1.404 . S
C2440 C2443 1.539 . S
C2441 C2437 1.408 . S
C2441 C2440 1.404 . S
C2441 H2453 0.930 . S
C2442 C2438 1.524 . S
C2442 H2454 0.956 . S
C2442 H2455 0.961 . S
C2442 H2456 0.961 . S
C2443 C2440 1.539 . S
C2443 H2457 0.958 . S
C2443 H2458 0.961 . S
C2443 H2459 0.960 . S
H2444 C2428 0.931 . S
H2445 C2433 0.929 1_554 S
H2446 C2434 0.960 . S
H2447 C2434 0.962 . S
H2448 C2434 0.960 . S
H2449 C2435 0.947 1_554 S
H2450 C2435 0.965 . S
H2451 C2435 0.964 . S
H2452 C2436 0.931 . S
H2453 C2441 0.930 . S
H2454 C2442 0.956 . S
H2455 C2442 0.961 . S
H2456 C2442 0.961 . S
H2457 C2443 0.958 . S
H2458 C2443 0.961 . S
H2459 C2443 0.960 . S
C2460 C2461 1.405 . S
C2460 C2462 1.407 . S
C2460 H2476 0.905 1_556 S
C2461 C2460 1.405 . S
C2461 C2465 1.376 . S
C2462 C2460 1.407 . S
C2462 C2463 1.369 . S
C2462 C2466 1.533 1_556 S
C2463 C2462 1.369 . S
C2463 C2464 1.410 . S
C2463 C2471 1.503 . S
C2464 C2463 1.410 . S
C2464 C2465 1.392 . S
C2464 C2467 1.511 . S
C2465 C2461 1.376 . S
C2465 C2464 1.392 . S
C2465 H2477 0.929 . S
C2466 C2462 1.533 1_554 S
C2466 H2478 0.961 1_554 S
C2466 H2479 0.965 1_554 S
C2466 H2480 0.955 . S
C2467 C2464 1.511 . S
C2467 H2481 0.961 . S
C2467 H2482 0.961 . S
C2467 H2483 0.961 . S
C2468 C2469 1.370 . S
C2468 C2470 1.363 . S
C2468 H2484 0.931 . S
C2469 C2468 1.370 . S
C2469 C2473 1.408 . S
C2470 C2468 1.363 . S
C2470 C2471 1.370 . S
C2470 C2474 1.524 . S
C2471 C2463 1.503 . S
C2471 C2470 1.370 . S
C2471 C2472 1.403 . S
C2472 C2471 1.403 . S
C2472 C2473 1.404 . S
C2472 C2475 1.539 . S
C2473 C2469 1.408 . S
C2473 C2472 1.404 . S
C2473 H2485 0.930 . S
C2474 C2470 1.524 . S
C2474 H2486 0.956 . S
C2474 H2487 0.961 . S
C2474 H2488 0.961 . S
C2475 C2472 1.539 . S
C2475 H2489 0.923 1_556 S
C2475 H2490 0.961 . S
C2475 H2491 0.960 . S
H2476 C2460 0.905 1_554 S
H2477 C2465 0.929 . S
H2478 C2466 0.961 1_556 S
H2479 C2466 0.965 1_556 S
H2480 C2466 0.955 . S
H2481 C2467 0.961 . S
H2482 C2467 0.961 . S
H2483 C2467 0.961 . S
H2484 C2468 0.931 . S
H2485 C2473 0.930 . S
H2486 C2474 0.956 . S
H2487 C2474 0.961 . S
H2488 C2474 0.961 . S
H2489 C2475 0.923 1_554 S
H2490 C2475 0.961 . S
H2491 C2475 0.960 . S
C2492 C2493 1.391 . S
C2492 C2494 1.394 . S
C2492 H2508 0.931 1_556 S
C2493 C2492 1.391 . S
C2493 C2497 1.376 . S
C2494 C2492 1.394 . S
C2494 C2495 1.369 . S
C2494 C2498 1.531 . S
C2495 C2494 1.369 . S
C2495 C2496 1.410 . S
C2495 C2503 1.503 . S
C2496 C2495 1.410 . S
C2496 C2497 1.392 . S
C2496 C2499 1.511 . S
C2497 C2493 1.376 . S
C2497 C2496 1.392 . S
C2497 H2509 0.929 . S
C2498 C2494 1.531 . S
C2498 H2510 0.960 . S
C2498 H2511 0.962 . S
C2498 H2512 0.960 1_556 S
C2499 C2496 1.511 . S
C2499 H2513 0.961 . S
C2499 H2514 0.961 . S
C2499 H2515 0.961 . S
C2500 C2501 1.370 . S
C2500 C2502 1.363 . S
C2500 H2516 0.931 . S
C2501 C2500 1.370 . S
C2501 C2505 1.408 . S
C2502 C2500 1.363 . S
C2502 C2503 1.370 . S
C2502 C2506 1.524 . S
C2503 C2495 1.503 . S
C2503 C2502 1.370 . S
C2503 C2504 1.403 . S
C2504 C2503 1.403 . S
C2504 C2505 1.404 . S
C2504 C2507 1.539 . S
C2505 C2501 1.408 . S
C2505 C2504 1.404 . S
C2505 H2517 0.930 . S
C2506 C2502 1.524 . S
C2506 H2518 0.956 . S
C2506 H2519 0.961 . S
C2506 H2520 0.961 . S
C2507 C2504 1.539 . S
C2507 H2521 0.958 1_556 S
C2507 H2522 0.961 . S
C2507 H2523 0.960 . S
H2508 C2492 0.931 1_554 S
H2509 C2497 0.929 . S
H2510 C2498 0.960 . S
H2511 C2498 0.962 . S
H2512 C2498 0.960 1_554 S
H2513 C2499 0.961 . S
H2514 C2499 0.961 . S
H2515 C2499 0.961 . S
H2516 C2500 0.931 . S
H2517 C2505 0.930 . S
H2518 C2506 0.956 . S
H2519 C2506 0.961 . S
H2520 C2506 0.961 . S
H2521 C2507 0.958 1_554 S
H2522 C2507 0.961 . S
H2523 C2507 0.960 . S
C2524 C2525 1.391 . S
C2524 C2526 1.394 . S
C2524 H2540 0.932 . S
C2525 C2524 1.391 . S
C2525 C2529 1.376 . S
C2526 C2524 1.394 . S
C2526 C2527 1.369 . S
C2526 C2530 1.531 . S
C2527 C2526 1.369 . S
C2527 C2528 1.410 . S
C2527 C2535 1.503 . S
C2528 C2527 1.410 . S
C2528 C2529 1.392 . S
C2528 C2531 1.511 . S
C2529 C2525 1.376 . S
C2529 C2528 1.392 . S
C2529 H2541 0.929 . S
C2530 C2526 1.531 . S
C2530 H2542 0.960 . S
C2530 H2543 0.962 . S
C2530 H2544 0.960 . S
C2531 C2528 1.511 . S
C2531 H2545 0.961 . S
C2531 H2546 0.961 . S
C2531 H2547 0.961 . S
C2532 C2533 1.370 . S
C2532 C2534 1.363 . S
C2532 H2548 0.931 . S
C2533 C2532 1.370 . S
C2533 C2537 1.408 . S
C2534 C2532 1.363 . S
C2534 C2535 1.370 . S
C2534 C2538 1.524 . S
C2535 C2527 1.503 . S
C2535 C2534 1.370 . S
C2535 C2536 1.403 . S
C2536 C2535 1.403 . S
C2536 C2537 1.404 . S
C2536 C2539 1.525 1_556 S
C2537 C2533 1.408 . S
C2537 C2536 1.404 . S
C2537 H2549 0.930 . S
C2538 C2534 1.524 . S
C2538 H2550 0.956 . S
C2538 H2551 0.961 . S
C2538 H2552 0.961 . S
C2539 C2536 1.525 1_554 S
C2539 H2553 0.966 . S
C2539 H2554 0.964 . S
C2539 H2555 0.964 . S
H2540 C2524 0.932 . S
H2541 C2529 0.929 . S
H2542 C2530 0.960 . S
H2543 C2530 0.962 . S
H2544 C2530 0.960 . S
H2545 C2531 0.961 . S
H2546 C2531 0.961 . S
H2547 C2531 0.961 . S
H2548 C2532 0.931 . S
H2549 C2537 0.930 . S
H2550 C2538 0.956 . S
H2551 C2538 0.961 . S
H2552 C2538 0.961 . S
H2553 C2539 0.966 . S
H2554 C2539 0.964 . S
H2555 C2539 0.964 . S
C2556 C2557 1.391 . S
C2556 C2558 1.394 . S
C2556 H2572 0.931 . S
C2557 C2556 1.391 . S
C2557 C2561 1.376 . S
C2558 C2556 1.394 . S
C2558 C2559 1.369 . S
C2558 C2562 1.531 . S
C2559 C2558 1.369 . S
C2559 C2560 1.410 . S
C2559 C2567 1.503 . S
C2560 C2559 1.410 . S
C2560 C2561 1.392 . S
C2560 C2563 1.511 . S
C2561 C2557 1.376 . S
C2561 C2560 1.392 . S
C2561 H2573 0.929 . S
C2562 C2558 1.531 . S
C2562 H2574 0.960 . S
C2562 H2575 0.962 . S
C2562 H2576 0.960 . S
C2563 C2560 1.511 . S
C2563 H2577 0.961 . S
C2563 H2578 0.961 . S
C2563 H2579 0.961 . S
C2564 C2565 1.370 . S
C2564 C2566 1.363 . S
C2564 H2580 0.931 . S
C2565 C2564 1.370 . S
C2565 C2569 1.408 . S
C2566 C2564 1.363 . S
C2566 C2567 1.370 . S
C2566 C2570 1.524 . S
C2567 C2559 1.503 . S
C2567 C2566 1.370 . S
C2567 C2568 1.403 . S
C2568 C2567 1.403 . S
C2568 C2569 1.404 . S
C2568 C2571 1.539 . S
C2569 C2565 1.408 . S
C2569 C2568 1.404 . S
C2569 H2581 0.930 . S
C2570 C2566 1.524 . S
C2570 H2582 0.956 . S
C2570 H2583 0.961 . S
C2570 H2584 0.961 . S
C2571 C2568 1.539 . S
C2571 H2585 0.958 . S
C2571 H2586 0.961 . S
C2571 H2587 0.960 . S
H2572 C2556 0.931 . S
H2573 C2561 0.929 . S
H2574 C2562 0.960 . S
H2575 C2562 0.962 . S
H2576 C2562 0.960 . S
H2577 C2563 0.961 . S
H2578 C2563 0.961 . S
H2579 C2563 0.961 . S
H2580 C2564 0.931 . S
H2581 C2569 0.930 . S
H2582 C2570 0.956 . S
H2583 C2570 0.961 . S
H2584 C2570 0.961 . S
H2585 C2571 0.958 . S
H2586 C2571 0.961 . S
H2587 C2571 0.960 . S
C2588 C2589 1.391 . S
C2588 C2590 1.394 . S
C2588 H2604 0.931 . S
C2589 C2588 1.391 . S
C2589 C2593 1.376 . S
C2590 C2588 1.394 . S
C2590 C2591 1.369 . S
C2590 C2594 1.531 . S
C2591 C2590 1.369 . S
C2591 C2592 1.410 . S
C2591 C2599 1.503 . S
C2592 C2591 1.410 . S
C2592 C2593 1.392 . S
C2592 C2595 1.511 . S
C2593 C2589 1.376 . S
C2593 C2592 1.392 . S
C2593 H2605 0.929 . S
C2594 C2590 1.531 . S
C2594 H2606 0.960 . S
C2594 H2607 0.962 . S
C2594 H2608 0.960 . S
C2595 C2592 1.511 . S
C2595 H2609 0.961 . S
C2595 H2610 0.961 . S
C2595 H2611 0.961 . S
C2596 C2597 1.370 . S
C2596 C2598 1.363 . S
C2596 H2612 0.931 . S
C2597 C2596 1.370 . S
C2597 C2601 1.408 . S
C2598 C2596 1.363 . S
C2598 C2599 1.370 . S
C2598 C2602 1.524 . S
C2599 C2591 1.503 . S
C2599 C2598 1.370 . S
C2599 C2600 1.403 . S
C2600 C2599 1.403 . S
C2600 C2601 1.404 . S
C2600 C2603 1.539 . S
C2601 C2597 1.408 . S
C2601 C2600 1.404 . S
C2601 H2613 0.930 . S
C2602 C2598 1.524 . S
C2602 H2614 0.956 . S
C2602 H2615 0.961 . S
C2602 H2616 0.961 . S
C2603 C2600 1.539 . S
C2603 H2617 0.958 . S
C2603 H2618 0.961 . S
C2603 H2619 0.960 . S
H2604 C2588 0.931 . S
H2605 C2593 0.929 . S
H2606 C2594 0.960 . S
H2607 C2594 0.962 . S
H2608 C2594 0.960 . S
H2609 C2595 0.961 . S
H2610 C2595 0.961 . S
H2611 C2595 0.961 . S
H2612 C2596 0.931 . S
H2613 C2601 0.930 . S
H2614 C2602 0.956 . S
H2615 C2602 0.961 . S
H2616 C2602 0.961 . S
H2617 C2603 0.958 . S
H2618 C2603 0.961 . S
H2619 C2603 0.960 . S
C2620 C2621 1.391 . S
C2620 C2622 1.394 . S
C2620 H2636 0.931 . S
C2621 C2620 1.391 . S
C2621 C2625 1.376 . S
C2622 C2620 1.394 . S
C2622 C2623 1.369 . S
C2622 C2626 1.531 . S
C2623 C2622 1.369 . S
C2623 C2624 1.410 . S
C2623 C2631 1.503 . S
C2624 C2623 1.410 . S
C2624 C2625 1.392 . S
C2624 C2627 1.511 . S
C2625 C2621 1.376 . S
C2625 C2624 1.392 . S
C2625 H2637 0.929 . S
C2626 C2622 1.531 . S
C2626 H2638 0.960 . S
C2626 H2639 0.962 . S
C2626 H2640 0.960 . S
C2627 C2624 1.511 . S
C2627 H2641 0.961 . S
C2627 H2642 0.961 . S
C2627 H2643 0.961 . S
C2628 C2629 1.370 . S
C2628 C2630 1.363 . S
C2628 H2644 0.931 . S
C2629 C2628 1.370 . S
C2629 C2633 1.408 . S
C2630 C2628 1.363 . S
C2630 C2631 1.370 . S
C2630 C2634 1.524 . S
C2631 C2623 1.503 . S
C2631 C2630 1.370 . S
C2631 C2632 1.403 . S
C2632 C2631 1.403 . S
C2632 C2633 1.404 . S
C2632 C2635 1.539 . S
C2633 C2629 1.408 . S
C2633 C2632 1.404 . S
C2633 H2645 0.930 . S
C2634 C2630 1.524 . S
C2634 H2646 0.956 . S
C2634 H2647 0.961 . S
C2634 H2648 0.961 . S
C2635 C2632 1.539 . S
C2635 H2649 0.958 . S
C2635 H2650 0.961 . S
C2635 H2651 0.960 . S
H2636 C2620 0.931 . S
H2637 C2625 0.929 . S
H2638 C2626 0.960 . S
H2639 C2626 0.962 . S
H2640 C2626 0.960 . S
H2641 C2627 0.961 . S
H2642 C2627 0.961 . S
H2643 C2627 0.961 . S
H2644 C2628 0.931 . S
H2645 C2633 0.930 . S
H2646 C2634 0.956 . S
H2647 C2634 0.961 . S
H2648 C2634 0.961 . S
H2649 C2635 0.958 . S
H2650 C2635 0.961 . S
H2651 C2635 0.960 . S
C2652 C2653 1.391 . S
C2652 C2654 1.394 . S
C2652 H2668 0.931 . S
C2653 C2652 1.391 . S
C2653 C2657 1.376 . S
C2654 C2652 1.394 . S
C2654 C2655 1.369 . S
C2654 C2658 1.531 . S
C2655 C2654 1.369 . S
C2655 C2656 1.410 . S
C2655 C2663 1.503 . S
C2656 C2655 1.410 . S
C2656 C2657 1.392 . S
C2656 C2659 1.511 . S
C2657 C2653 1.376 . S
C2657 C2656 1.392 . S
C2657 H2669 0.929 . S
C2658 C2654 1.531 . S
C2658 H2670 0.960 . S
C2658 H2671 0.962 . S
C2658 H2672 0.960 . S
C2659 C2656 1.511 . S
C2659 H2673 0.961 . S
C2659 H2674 0.961 . S
C2659 H2675 0.961 . S
C2660 C2661 1.370 . S
C2660 C2662 1.363 . S
C2660 H2676 0.931 . S
C2661 C2660 1.370 . S
C2661 C2665 1.408 . S
C2662 C2660 1.363 . S
C2662 C2663 1.370 . S
C2662 C2666 1.524 . S
C2663 C2655 1.503 . S
C2663 C2662 1.370 . S
C2663 C2664 1.403 . S
C2664 C2663 1.403 . S
C2664 C2665 1.404 . S
C2664 C2667 1.539 . S
C2665 C2661 1.408 . S
C2665 C2664 1.404 . S
C2665 H2677 0.930 . S
C2666 C2662 1.524 . S
C2666 H2678 0.956 . S
C2666 H2679 0.961 . S
C2666 H2680 0.961 . S
C2667 C2664 1.539 . S
C2667 H2681 0.958 . S
C2667 H2682 0.961 . S
C2667 H2683 0.960 . S
H2668 C2652 0.931 . S
H2669 C2657 0.929 . S
H2670 C2658 0.960 . S
H2671 C2658 0.962 . S
H2672 C2658 0.960 . S
H2673 C2659 0.961 . S
H2674 C2659 0.961 . S
H2675 C2659 0.961 . S
H2676 C2660 0.931 . S
H2677 C2665 0.930 . S
H2678 C2666 0.956 . S
H2679 C2666 0.961 . S
H2680 C2666 0.961 . S
H2681 C2667 0.958 . S
H2682 C2667 0.961 . S
H2683 C2667 0.960 . S
C2684 C2685 1.391 . S
C2684 C2686 1.394 . S
C2684 H2700 0.931 . S
C2685 C2684 1.391 . S
C2685 C2689 1.376 . S
C2686 C2684 1.394 . S
C2686 C2687 1.369 . S
C2686 C2690 1.531 . S
C2687 C2686 1.369 . S
C2687 C2688 1.410 . S
C2687 C2695 1.503 . S
C2688 C2687 1.410 . S
C2688 C2689 1.392 . S
C2688 C2691 1.511 . S
C2689 C2685 1.376 . S
C2689 C2688 1.392 . S
C2689 H2701 0.929 . S
C2690 C2686 1.531 . S
C2690 H2702 0.960 . S
C2690 H2703 0.962 . S
C2690 H2704 0.960 . S
C2691 C2688 1.511 . S
C2691 H2705 0.961 . S
C2691 H2706 0.961 . S
C2691 H2707 0.961 . S
C2692 C2693 1.370 . S
C2692 C2694 1.363 . S
C2692 H2708 0.931 . S
C2693 C2692 1.370 . S
C2693 C2697 1.408 . S
C2694 C2692 1.363 . S
C2694 C2695 1.370 . S
C2694 C2698 1.524 . S
C2695 C2687 1.503 . S
C2695 C2694 1.370 . S
C2695 C2696 1.403 . S
C2696 C2695 1.403 . S
C2696 C2697 1.404 . S
C2696 C2699 1.539 . S
C2697 C2693 1.408 . S
C2697 C2696 1.404 . S
C2697 H2709 0.930 . S
C2698 C2694 1.524 . S
C2698 H2710 0.956 . S
C2698 H2711 0.961 . S
C2698 H2712 0.961 . S
C2699 C2696 1.539 . S
C2699 H2713 0.958 . S
C2699 H2714 0.961 . S
C2699 H2715 0.960 . S
H2700 C2684 0.931 . S
H2701 C2689 0.929 . S
H2702 C2690 0.960 . S
H2703 C2690 0.962 . S
H2704 C2690 0.960 . S
H2705 C2691 0.961 . S
H2706 C2691 0.961 . S
H2707 C2691 0.961 . S
H2708 C2692 0.931 . S
H2709 C2697 0.930 . S
H2710 C2698 0.956 . S
H2711 C2698 0.961 . S
H2712 C2698 0.961 . S
H2713 C2699 0.958 . S
H2714 C2699 0.961 . S
H2715 C2699 0.960 . S
C2716 C2717 1.391 . S
C2716 C2718 1.394 . S
C2716 H2732 0.931 . S
C2717 C2716 1.391 . S
C2717 C2721 1.376 . S
C2718 C2716 1.394 . S
C2718 C2719 1.369 . S
C2718 C2722 1.531 . S
C2719 C2718 1.369 . S
C2719 C2720 1.410 . S
C2719 C2727 1.503 . S
C2720 C2719 1.410 . S
C2720 C2721 1.392 . S
C2720 C2723 1.511 . S
C2721 C2717 1.376 . S
C2721 C2720 1.392 . S
C2721 H2733 0.929 . S
C2722 C2718 1.531 . S
C2722 H2734 0.960 . S
C2722 H2735 0.962 . S
C2722 H2736 0.960 . S
C2723 C2720 1.511 . S
C2723 H2737 0.961 . S
C2723 H2738 0.961 . S
C2723 H2739 0.961 . S
C2724 C2725 1.370 . S
C2724 C2726 1.363 . S
C2724 H2740 0.931 . S
C2725 C2724 1.370 . S
C2725 C2729 1.408 . S
C2726 C2724 1.363 . S
C2726 C2727 1.370 . S
C2726 C2730 1.524 . S
C2727 C2719 1.503 . S
C2727 C2726 1.370 . S
C2727 C2728 1.403 . S
C2728 C2727 1.403 . S
C2728 C2729 1.404 . S
C2728 C2731 1.539 . S
C2729 C2725 1.408 . S
C2729 C2728 1.404 . S
C2729 H2741 0.930 . S
C2730 C2726 1.524 . S
C2730 H2742 0.956 . S
C2730 H2743 0.961 . S
C2730 H2744 0.961 . S
C2731 C2728 1.539 . S
C2731 H2745 0.958 . S
C2731 H2746 0.961 . S
C2731 H2747 0.960 . S
H2732 C2716 0.931 . S
H2733 C2721 0.929 . S
H2734 C2722 0.960 . S
H2735 C2722 0.962 . S
H2736 C2722 0.960 . S
H2737 C2723 0.961 . S
H2738 C2723 0.961 . S
H2739 C2723 0.961 . S
H2740 C2724 0.931 . S
H2741 C2729 0.930 . S
H2742 C2730 0.956 . S
H2743 C2730 0.961 . S
H2744 C2730 0.961 . S
H2745 C2731 0.958 . S
H2746 C2731 0.961 . S
H2747 C2731 0.960 . S
C2748 C2749 1.364 1_655 S
C2748 C2750 1.412 . S
C2748 H2764 0.940 . S
C2749 C2748 1.364 1_455 S
C2749 C2753 1.376 . S
C2750 C2748 1.412 . S
C2750 C2751 1.369 1_655 S
C2750 C2754 1.531 . S
C2751 C2750 1.369 1_455 S
C2751 C2752 1.410 . S
C2751 C2759 1.503 . S
C2752 C2751 1.410 . S
C2752 C2753 1.392 . S
C2752 C2755 1.511 . S
C2753 C2749 1.376 . S
C2753 C2752 1.392 . S
C2753 H2765 0.929 . S
C2754 C2750 1.531 . S
C2754 H2766 0.960 . S
C2754 H2767 0.962 . S
C2754 H2768 0.960 . S
C2755 C2752 1.511 . S
C2755 H2769 0.961 . S
C2755 H2770 0.961 . S
C2755 H2771 0.961 . S
C2756 C2757 1.370 . S
C2756 C2758 1.363 . S
C2756 H2772 0.931 . S
C2757 C2756 1.370 . S
C2757 C2761 1.407 1_455 S
C2758 C2756 1.363 . S
C2758 C2759 1.370 . S
C2758 C2762 1.524 . S
C2759 C2751 1.503 . S
C2759 C2758 1.370 . S
C2759 C2760 1.403 . S
C2760 C2759 1.403 . S
C2760 C2761 1.401 1_455 S
C2760 C2763 1.539 1_455 S
C2761 C2757 1.407 1_655 S
C2761 C2760 1.401 1_655 S
C2761 H2773 0.934 . S
C2762 C2758 1.524 . S
C2762 H2774 0.956 . S
C2762 H2775 0.961 . S
C2762 H2776 0.961 . S
C2763 C2760 1.539 1_655 S
C2763 H2777 0.958 . S
C2763 H2778 0.961 1_655 S
C2763 H2779 0.960 1_655 S
H2764 C2748 0.940 . S
H2765 C2753 0.929 . S
H2766 C2754 0.960 . S
H2767 C2754 0.962 . S
H2768 C2754 0.960 . S
H2769 C2755 0.961 . S
H2770 C2755 0.961 . S
H2771 C2755 0.961 . S
H2772 C2756 0.931 . S
H2773 C2761 0.934 . S
H2774 C2762 0.956 . S
H2775 C2762 0.961 . S
H2776 C2762 0.961 . S
H2777 C2763 0.958 . S
H2778 C2763 0.961 1_455 S
H2779 C2763 0.960 1_455 S
C2780 C2781 1.391 . S
C2780 C2782 1.394 . S
C2780 H2796 0.931 . S
C2781 C2780 1.391 . S
C2781 C2785 1.376 . S
C2782 C2780 1.394 . S
C2782 C2783 1.369 . S
C2782 C2786 1.531 . S
C2783 C2782 1.369 . S
C2783 C2784 1.410 . S
C2783 C2791 1.503 . S
C2784 C2783 1.410 . S
C2784 C2785 1.392 . S
C2784 C2787 1.511 . S
C2785 C2781 1.376 . S
C2785 C2784 1.392 . S
C2785 H2797 0.929 . S
C2786 C2782 1.531 . S
C2786 H2798 0.960 . S
C2786 H2799 0.962 . S
C2786 H2800 0.960 . S
C2787 C2784 1.511 . S
C2787 H2801 0.961 . S
C2787 H2802 0.961 . S
C2787 H2803 0.961 . S
C2788 C2789 1.370 . S
C2788 C2790 1.363 . S
C2788 H2804 0.931 . S
C2789 C2788 1.370 . S
C2789 C2793 1.408 . S
C2790 C2788 1.363 . S
C2790 C2791 1.370 . S
C2790 C2794 1.524 . S
C2791 C2783 1.503 . S
C2791 C2790 1.370 . S
C2791 C2792 1.403 . S
C2792 C2791 1.403 . S
C2792 C2793 1.404 . S
C2792 C2795 1.539 . S
C2793 C2789 1.408 . S
C2793 C2792 1.404 . S
C2793 H2805 0.930 . S
C2794 C2790 1.524 . S
C2794 H2806 0.956 . S
C2794 H2807 0.961 . S
C2794 H2808 0.961 . S
C2795 C2792 1.539 . S
C2795 H2809 0.958 . S
C2795 H2810 0.961 . S
C2795 H2811 0.960 . S
H2796 C2780 0.931 . S
H2797 C2785 0.929 . S
H2798 C2786 0.960 . S
H2799 C2786 0.962 . S
H2800 C2786 0.960 . S
H2801 C2787 0.961 . S
H2802 C2787 0.961 . S
H2803 C2787 0.961 . S
H2804 C2788 0.931 . S
H2805 C2793 0.930 . S
H2806 C2794 0.956 . S
H2807 C2794 0.961 . S
H2808 C2794 0.961 . S
H2809 C2795 0.958 . S
H2810 C2795 0.961 . S
H2811 C2795 0.960 . S
C2812 C2813 1.391 . S
C2812 C2814 1.394 . S
C2812 H2828 0.931 . S
C2813 C2812 1.391 . S
C2813 C2817 1.376 . S
C2814 C2812 1.394 . S
C2814 C2815 1.369 . S
C2814 C2818 1.531 . S
C2815 C2814 1.369 . S
C2815 C2816 1.410 . S
C2815 C2823 1.503 . S
C2816 C2815 1.410 . S
C2816 C2817 1.392 . S
C2816 C2819 1.511 . S
C2817 C2813 1.376 . S
C2817 C2816 1.392 . S
C2817 H2829 0.929 . S
C2818 C2814 1.531 . S
C2818 H2830 0.960 . S
C2818 H2831 0.962 . S
C2818 H2832 0.960 . S
C2819 C2816 1.511 . S
C2819 H2833 0.961 . S
C2819 H2834 0.961 . S
C2819 H2835 0.961 . S
C2820 C2821 1.370 1_545 S
C2820 C2822 1.363 . S
C2820 H2836 0.931 . S
C2821 C2820 1.370 1_565 S
C2821 C2825 1.408 . S
C2822 C2820 1.363 . S
C2822 C2823 1.370 1_545 S
C2822 C2826 1.524 . S
C2823 C2815 1.503 . S
C2823 C2822 1.370 1_565 S
C2823 C2824 1.403 . S
C2824 C2823 1.403 . S
C2824 C2825 1.404 . S
C2824 C2827 1.539 . S
C2825 C2821 1.408 . S
C2825 C2824 1.404 . S
C2825 H2837 0.930 . S
C2826 C2822 1.524 . S
C2826 H2838 0.956 . S
C2826 H2839 0.961 . S
C2826 H2840 0.961 . S
C2827 C2824 1.539 . S
C2827 H2841 0.958 . S
C2827 H2842 0.961 . S
C2827 H2843 0.960 . S
H2828 C2812 0.931 . S
H2829 C2817 0.929 . S
H2830 C2818 0.960 . S
H2831 C2818 0.962 . S
H2832 C2818 0.960 . S
H2833 C2819 0.961 . S
H2834 C2819 0.961 . S
H2835 C2819 0.961 . S
H2836 C2820 0.931 . S
H2837 C2825 0.930 . S
H2838 C2826 0.956 . S
H2839 C2826 0.961 . S
H2840 C2826 0.961 . S
H2841 C2827 0.958 . S
H2842 C2827 0.961 . S
H2843 C2827 0.960 . S
C2844 C2845 1.391 . S
C2844 C2846 1.394 . S
C2844 H2860 0.931 . S
C2845 C2844 1.391 . S
C2845 C2849 1.376 . S
C2846 C2844 1.394 . S
C2846 C2847 1.369 . S
C2846 C2850 1.531 . S
C2847 C2846 1.369 . S
C2847 C2848 1.410 . S
C2847 C2855 1.503 . S
C2848 C2847 1.410 . S
C2848 C2849 1.392 . S
C2848 C2851 1.511 . S
C2849 C2845 1.376 . S
C2849 C2848 1.392 . S
C2849 H2861 0.929 . S
C2850 C2846 1.531 . S
C2850 H2862 0.960 . S
C2850 H2863 0.962 . S
C2850 H2864 0.960 . S
C2851 C2848 1.511 . S
C2851 H2865 0.961 1_565 S
C2851 H2866 0.961 1_565 S
C2851 H2867 0.961 . S
C2852 C2853 1.370 1_545 S
C2852 C2854 1.363 . S
C2852 H2868 0.931 . S
C2853 C2852 1.370 1_565 S
C2853 C2857 1.408 . S
C2854 C2852 1.363 . S
C2854 C2855 1.370 1_545 S
C2854 C2858 1.524 . S
C2855 C2847 1.503 . S
C2855 C2854 1.370 1_565 S
C2855 C2856 1.403 . S
C2856 C2855 1.403 . S
C2856 C2857 1.404 . S
C2856 C2859 1.539 . S
C2857 C2853 1.408 . S
C2857 C2856 1.404 . S
C2857 H2869 0.930 . S
C2858 C2854 1.524 . S
C2858 H2870 0.956 . S
C2858 H2871 0.961 . S
C2858 H2872 0.961 . S
C2859 C2856 1.539 . S
C2859 H2873 0.958 . S
C2859 H2874 0.961 . S
C2859 H2875 0.960 . S
H2860 C2844 0.931 . S
H2861 C2849 0.929 . S
H2862 C2850 0.960 . S
H2863 C2850 0.962 . S
H2864 C2850 0.960 . S
H2865 C2851 0.961 1_545 S
H2866 C2851 0.961 1_545 S
H2867 C2851 0.961 . S
H2868 C2852 0.931 . S
H2869 C2857 0.930 . S
H2870 C2858 0.956 . S
H2871 C2858 0.961 . S
H2872 C2858 0.961 . S
H2873 C2859 0.958 . S
H2874 C2859 0.961 . S
H2875 C2859 0.960 . S
C2876 C2877 1.391 . S
C2876 C2878 1.394 . S
C2876 H2892 0.931 . S
C2877 C2876 1.391 . S
C2877 C2881 1.376 . S
C2878 C2876 1.394 . S
C2878 C2879 1.369 . S
C2878 C2882 1.531 . S
C2879 C2878 1.369 . S
C2879 C2880 1.410 . S
C2879 C2887 1.503 . S
C2880 C2879 1.410 . S
C2880 C2881 1.392 . S
C2880 C2883 1.511 1_455 S
C2881 C2877 1.376 . S
C2881 C2880 1.392 . S
C2881 H2893 0.929 . S
C2882 C2878 1.531 . S
C2882 H2894 0.960 . S
C2882 H2895 0.962 . S
C2882 H2896 0.960 . S
C2883 C2880 1.511 1_655 S
C2883 H2897 0.961 1_655 S
C2883 H2898 0.961 1_655 S
C2883 H2899 0.961 . S
C2884 C2885 1.370 . S
C2884 C2886 1.363 . S
C2884 H2900 0.931 . S
C2885 C2884 1.370 . S
C2885 C2889 1.408 1_455 S
C2886 C2884 1.363 . S
C2886 C2887 1.370 . S
C2886 C2890 1.524 . S
C2887 C2879 1.503 . S
C2887 C2886 1.370 . S
C2887 C2888 1.403 1_455 S
C2888 C2887 1.403 1_655 S
C2888 C2889 1.404 . S
C2888 C2891 1.539 . S
C2889 C2885 1.408 1_655 S
C2889 C2888 1.404 . S
C2889 H2901 0.930 . S
C2890 C2886 1.524 . S
C2890 H2902 0.956 . S
C2890 H2903 0.961 . S
C2890 H2904 0.961 . S
C2891 C2888 1.539 . S
C2891 H2905 0.958 . S
C2891 H2906 0.961 . S
C2891 H2907 0.960 . S
H2892 C2876 0.931 . S
H2893 C2881 0.929 . S
H2894 C2882 0.960 . S
H2895 C2882 0.962 . S
H2896 C2882 0.960 . S
H2897 C2883 0.961 1_455 S
H2898 C2883 0.961 1_455 S
H2899 C2883 0.961 . S
H2900 C2884 0.931 . S
H2901 C2889 0.930 . S
H2902 C2890 0.956 . S
H2903 C2890 0.961 . S
H2904 C2890 0.961 . S
H2905 C2891 0.958 . S
H2906 C2891 0.961 . S
H2907 C2891 0.960 . S
C2908 C2909 1.391 . S
C2908 C2910 1.394 . S
C2908 H2924 0.931 . S
C2909 C2908 1.391 . S
C2909 C2913 1.376 . S
C2910 C2908 1.394 . S
C2910 C2911 1.369 . S
C2910 C2914 1.531 . S
C2911 C2910 1.369 . S
C2911 C2912 1.410 . S
C2911 C2919 1.503 . S
C2912 C2911 1.410 . S
C2912 C2913 1.392 . S
C2912 C2915 1.511 . S
C2913 C2909 1.376 . S
C2913 C2912 1.392 . S
C2913 H2925 0.929 . S
C2914 C2910 1.531 . S
C2914 H2926 0.960 . S
C2914 H2927 0.962 . S
C2914 H2928 0.960 . S
C2915 C2912 1.511 . S
C2915 H2929 0.961 . S
C2915 H2930 0.961 . S
C2915 H2931 0.961 . S
C2916 C2917 1.370 . S
C2916 C2918 1.363 . S
C2916 H2932 0.931 . S
C2917 C2916 1.370 . S
C2917 C2921 1.408 . S
C2918 C2916 1.363 . S
C2918 C2919 1.370 . S
C2918 C2922 1.524 . S
C2919 C2911 1.503 . S
C2919 C2918 1.370 . S
C2919 C2920 1.403 . S
C2920 C2919 1.403 . S
C2920 C2921 1.404 . S
C2920 C2923 1.539 . S
C2921 C2917 1.408 . S
C2921 C2920 1.404 . S
C2921 H2933 0.930 . S
C2922 C2918 1.524 . S
C2922 H2934 0.956 . S
C2922 H2935 0.961 . S
C2922 H2936 0.961 . S
C2923 C2920 1.539 . S
C2923 H2937 0.958 . S
C2923 H2938 0.961 . S
C2923 H2939 0.960 . S
H2924 C2908 0.931 . S
H2925 C2913 0.929 . S
H2926 C2914 0.960 . S
H2927 C2914 0.962 . S
H2928 C2914 0.960 . S
H2929 C2915 0.961 . S
H2930 C2915 0.961 . S
H2931 C2915 0.961 . S
H2932 C2916 0.931 . S
H2933 C2921 0.930 . S
H2934 C2922 0.956 . S
H2935 C2922 0.961 . S
H2936 C2922 0.961 . S
H2937 C2923 0.958 . S
H2938 C2923 0.961 . S
H2939 C2923 0.960 . S
C2940 C2941 1.391 . S
C2940 C2942 1.394 . S
C2940 H2956 0.931 . S
C2941 C2940 1.391 . S
C2941 C2945 1.376 . S
C2942 C2940 1.394 . S
C2942 C2943 1.369 . S
C2942 C2946 1.531 . S
C2943 C2942 1.369 . S
C2943 C2944 1.410 . S
C2943 C2951 1.503 . S
C2944 C2943 1.410 . S
C2944 C2945 1.392 . S
C2944 C2947 1.511 . S
C2945 C2941 1.376 . S
C2945 C2944 1.392 . S
C2945 H2957 0.929 . S
C2946 C2942 1.531 . S
C2946 H2958 0.960 . S
C2946 H2959 0.962 . S
C2946 H2960 0.960 . S
C2947 C2944 1.511 . S
C2947 H2961 0.961 . S
C2947 H2962 0.961 . S
C2947 H2963 0.961 . S
C2948 C2949 1.370 . S
C2948 C2950 1.363 . S
C2948 H2964 0.931 . S
C2949 C2948 1.370 . S
C2949 C2953 1.408 . S
C2950 C2948 1.363 . S
C2950 C2951 1.370 . S
C2950 C2954 1.524 . S
C2951 C2943 1.503 . S
C2951 C2950 1.370 . S
C2951 C2952 1.403 . S
C2952 C2951 1.403 . S
C2952 C2953 1.404 . S
C2952 C2955 1.539 . S
C2953 C2949 1.408 . S
C2953 C2952 1.404 . S
C2953 H2965 0.930 . S
C2954 C2950 1.524 . S
C2954 H2966 0.956 . S
C2954 H2967 0.961 . S
C2954 H2968 0.961 . S
C2955 C2952 1.539 . S
C2955 H2969 0.958 . S
C2955 H2970 0.961 . S
C2955 H2971 0.960 . S
H2956 C2940 0.931 . S
H2957 C2945 0.929 . S
H2958 C2946 0.960 . S
H2959 C2946 0.962 . S
H2960 C2946 0.960 . S
H2961 C2947 0.961 . S
H2962 C2947 0.961 . S
H2963 C2947 0.961 . S
H2964 C2948 0.931 . S
H2965 C2953 0.930 . S
H2966 C2954 0.956 . S
H2967 C2954 0.961 . S
H2968 C2954 0.961 . S
H2969 C2955 0.958 . S
H2970 C2955 0.961 . S
H2971 C2955 0.960 . S
C2972 C2973 1.391 . S
C2972 C2974 1.394 . S
C2972 H2988 0.931 . S
C2973 C2972 1.391 . S
C2973 C2977 1.376 . S
C2974 C2972 1.394 . S
C2974 C2975 1.369 . S
C2974 C2978 1.531 . S
C2975 C2974 1.369 . S
C2975 C2976 1.410 . S
C2975 C2983 1.503 . S
C2976 C2975 1.410 . S
C2976 C2977 1.392 . S
C2976 C2979 1.511 . S
C2977 C2973 1.376 . S
C2977 C2976 1.392 . S
C2977 H2989 0.929 . S
C2978 C2974 1.531 . S
C2978 H2990 0.960 . S
C2978 H2991 0.962 . S
C2978 H2992 0.960 . S
C2979 C2976 1.511 . S
C2979 H2993 0.961 . S
C2979 H2994 0.961 . S
C2979 H2995 0.961 . S
C2980 C2981 1.370 . S
C2980 C2982 1.363 . S
C2980 H2996 0.931 . S
C2981 C2980 1.370 . S
C2981 C2985 1.408 . S
C2982 C2980 1.363 . S
C2982 C2983 1.370 . S
C2982 C2986 1.524 . S
C2983 C2975 1.503 . S
C2983 C2982 1.370 . S
C2983 C2984 1.403 . S
C2984 C2983 1.403 . S
C2984 C2985 1.404 . S
C2984 C2987 1.539 . S
C2985 C2981 1.408 . S
C2985 C2984 1.404 . S
C2985 H2997 0.930 . S
C2986 C2982 1.524 . S
C2986 H2998 0.956 . S
C2986 H2999 0.961 . S
C2986 H3000 0.961 . S
C2987 C2984 1.539 . S
C2987 H3001 0.958 . S
C2987 H3002 0.961 . S
C2987 H3003 0.960 . S
H2988 C2972 0.931 . S
H2989 C2977 0.929 . S
H2990 C2978 0.960 . S
H2991 C2978 0.962 . S
H2992 C2978 0.960 . S
H2993 C2979 0.961 . S
H2994 C2979 0.961 . S
H2995 C2979 0.961 . S
H2996 C2980 0.931 . S
H2997 C2985 0.930 . S
H2998 C2986 0.956 . S
H2999 C2986 0.961 . S
H3000 C2986 0.961 . S
H3001 C2987 0.958 . S
H3002 C2987 0.961 . S
H3003 C2987 0.960 . S
C3004 C3005 1.391 . S
C3004 C3006 1.394 . S
C3004 H3020 0.931 . S
C3005 C3004 1.391 . S
C3005 C3009 1.376 . S
C3006 C3004 1.394 . S
C3006 C3007 1.369 . S
C3006 C3010 1.531 . S
C3007 C3006 1.369 . S
C3007 C3008 1.410 . S
C3007 C3015 1.503 . S
C3008 C3007 1.410 . S
C3008 C3009 1.392 . S
C3008 C3011 1.511 . S
C3009 C3005 1.376 . S
C3009 C3008 1.392 . S
C3009 H3021 0.929 . S
C3010 C3006 1.531 . S
C3010 H3022 0.960 . S
C3010 H3023 0.962 . S
C3010 H3024 0.960 . S
C3011 C3008 1.511 . S
C3011 H3025 0.961 . S
C3011 H3026 0.961 . S
C3011 H3027 0.961 . S
C3012 C3013 1.370 . S
C3012 C3014 1.363 . S
C3012 H3028 0.931 . S
C3013 C3012 1.370 . S
C3013 C3017 1.408 . S
C3014 C3012 1.363 . S
C3014 C3015 1.370 . S
C3014 C3018 1.524 . S
C3015 C3007 1.503 . S
C3015 C3014 1.370 . S
C3015 C3016 1.403 . S
C3016 C3015 1.403 . S
C3016 C3017 1.404 . S
C3016 C3019 1.539 . S
C3017 C3013 1.408 . S
C3017 C3016 1.404 . S
C3017 H3029 0.930 . S
C3018 C3014 1.524 . S
C3018 H3030 0.956 . S
C3018 H3031 0.961 . S
C3018 H3032 0.961 . S
C3019 C3016 1.539 . S
C3019 H3033 0.958 . S
C3019 H3034 0.961 . S
C3019 H3035 0.960 . S
H3020 C3004 0.931 . S
H3021 C3009 0.929 . S
H3022 C3010 0.960 . S
H3023 C3010 0.962 . S
H3024 C3010 0.960 . S
H3025 C3011 0.961 . S
H3026 C3011 0.961 . S
H3027 C3011 0.961 . S
H3028 C3012 0.931 . S
H3029 C3017 0.930 . S
H3030 C3018 0.956 . S
H3031 C3018 0.961 . S
H3032 C3018 0.961 . S
H3033 C3019 0.958 . S
H3034 C3019 0.961 . S
H3035 C3019 0.960 . S
C3036 C3037 1.391 . S
C3036 C3038 1.394 . S
C3036 H3052 0.931 . S
C3037 C3036 1.391 . S
C3037 C3041 1.376 . S
C3038 C3036 1.394 . S
C3038 C3039 1.369 . S
C3038 C3042 1.531 . S
C3039 C3038 1.369 . S
C3039 C3040 1.410 . S
C3039 C3047 1.503 . S
C3040 C3039 1.410 . S
C3040 C3041 1.392 . S
C3040 C3043 1.511 1_545 S
C3041 C3037 1.376 . S
C3041 C3040 1.392 . S
C3041 H3053 0.929 1_545 S
C3042 C3038 1.531 . S
C3042 H3054 0.960 . S
C3042 H3055 0.962 . S
C3042 H3056 0.960 . S
C3043 C3040 1.511 1_565 S
C3043 H3057 0.961 . S
C3043 H3058 0.961 . S
C3043 H3059 0.961 . S
C3044 C3045 1.368 1_565 S
C3044 C3046 1.352 1_565 S
C3044 H3060 0.945 . S
C3045 C3044 1.368 1_545 S
C3045 C3049 1.408 . S
C3046 C3044 1.352 1_545 S
C3046 C3047 1.370 . S
C3046 C3050 1.524 1_545 S
C3047 C3039 1.503 . S
C3047 C3046 1.370 . S
C3047 C3048 1.403 . S
C3048 C3047 1.403 . S
C3048 C3049 1.404 . S
C3048 C3051 1.539 . S
C3049 C3045 1.408 . S
C3049 C3048 1.404 . S
C3049 H3061 0.930 . S
C3050 C3046 1.524 1_565 S
C3050 H3062 0.956 1_565 S
C3050 H3063 0.961 . S
C3050 H3064 0.961 . S
C3051 C3048 1.539 . S
C3051 H3065 0.958 . S
C3051 H3066 0.961 . S
C3051 H3067 0.960 . S
H3052 C3036 0.931 . S
H3053 C3041 0.929 1_565 S
H3054 C3042 0.960 . S
H3055 C3042 0.962 . S
H3056 C3042 0.960 . S
H3057 C3043 0.961 . S
H3058 C3043 0.961 . S
H3059 C3043 0.961 . S
H3060 C3044 0.945 . S
H3061 C3049 0.930 . S
H3062 C3050 0.956 1_545 S
H3063 C3050 0.961 . S
H3064 C3050 0.961 . S
H3065 C3051 0.958 . S
H3066 C3051 0.961 . S
H3067 C3051 0.960 . S
C3068 C3069 1.391 . S
C3068 C3070 1.375 . S
C3068 H3084 0.931 1_655 S
C3069 C3068 1.391 . S
C3069 C3073 1.376 . S
C3070 C3068 1.375 . S
C3070 C3071 1.396 . S
C3070 C3074 1.523 1_655 S
C3071 C3070 1.396 . S
C3071 C3072 1.410 . S
C3071 C3079 1.503 . S
C3072 C3071 1.410 . S
C3072 C3073 1.392 . S
C3072 C3075 1.511 . S
C3073 C3069 1.376 . S
C3073 C3072 1.392 . S
C3073 H3085 0.929 . S
C3074 C3070 1.523 1_455 S
C3074 H3086 0.960 . S
C3074 H3087 0.962 . S
C3074 H3088 0.960 . S
C3075 C3072 1.511 . S
C3075 H3089 0.961 . S
C3075 H3090 0.961 . S
C3075 H3091 0.961 . S
C3076 C3077 1.370 1_455 S
C3076 C3078 1.363 . S
C3076 H3092 0.931 . S
C3077 C3076 1.370 1_655 S
C3077 C3081 1.408 . S
C3078 C3076 1.363 . S
C3078 C3079 1.370 1_455 S
C3078 C3082 1.524 . S
C3079 C3071 1.503 . S
C3079 C3078 1.370 1_655 S
C3079 C3080 1.403 . S
C3080 C3079 1.403 . S
C3080 C3081 1.404 . S
C3080 C3083 1.539 . S
C3081 C3077 1.408 . S
C3081 C3080 1.404 . S
C3081 H3093 0.930 . S
C3082 C3078 1.524 . S
C3082 H3094 0.956 . S
C3082 H3095 0.961 . S
C3082 H3096 0.961 . S
C3083 C3080 1.539 . S
C3083 H3097 0.958 . S
C3083 H3098 0.961 . S
C3083 H3099 0.960 . S
H3084 C3068 0.931 1_455 S
H3085 C3073 0.929 . S
H3086 C3074 0.960 . S
H3087 C3074 0.962 . S
H3088 C3074 0.960 . S
H3089 C3075 0.961 . S
H3090 C3075 0.961 . S
H3091 C3075 0.961 . S
H3092 C3076 0.931 . S
H3093 C3081 0.930 . S
H3094 C3082 0.956 . S
H3095 C3082 0.961 . S
H3096 C3082 0.961 . S
H3097 C3083 0.958 . S
H3098 C3083 0.961 . S
H3099 C3083 0.960 . S
C3100 C3101 1.391 . S
C3100 C3102 1.394 . S
C3100 H3116 0.931 . S
C3101 C3100 1.391 . S
C3101 C3105 1.376 . S
C3102 C3100 1.394 . S
C3102 C3103 1.369 . S
C3102 C3106 1.531 . S
C3103 C3102 1.369 . S
C3103 C3104 1.410 . S
C3103 C3111 1.503 . S
C3104 C3103 1.410 . S
C3104 C3105 1.392 . S
C3104 C3107 1.511 . S
C3105 C3101 1.376 . S
C3105 C3104 1.392 . S
C3105 H3117 0.929 . S
C3106 C3102 1.531 . S
C3106 H3118 0.960 . S
C3106 H3119 0.962 . S
C3106 H3120 0.960 . S
C3107 C3104 1.511 . S
C3107 H3121 0.961 . S
C3107 H3122 0.961 . S
C3107 H3123 0.961 . S
C3108 C3109 1.370 . S
C3108 C3110 1.363 . S
C3108 H3124 0.931 . S
C3109 C3108 1.370 . S
C3109 C3113 1.408 . S
C3110 C3108 1.363 . S
C3110 C3111 1.370 . S
C3110 C3114 1.524 . S
C3111 C3103 1.503 . S
C3111 C3110 1.370 . S
C3111 C3112 1.403 . S
C3112 C3111 1.403 . S
C3112 C3113 1.404 . S
C3112 C3115 1.539 . S
C3113 C3109 1.408 . S
C3113 C3112 1.404 . S
C3113 H3125 0.930 . S
C3114 C3110 1.524 . S
C3114 H3126 0.956 . S
C3114 H3127 0.961 . S
C3114 H3128 0.961 . S
C3115 C3112 1.539 . S
C3115 H3129 0.958 . S
C3115 H3130 0.961 . S
C3115 H3131 0.960 . S
H3116 C3100 0.931 . S
H3117 C3105 0.929 . S
H3118 C3106 0.960 . S
H3119 C3106 0.962 . S
H3120 C3106 0.960 . S
H3121 C3107 0.961 . S
H3122 C3107 0.961 . S
H3123 C3107 0.961 . S
H3124 C3108 0.931 . S
H3125 C3113 0.930 . S
H3126 C3114 0.956 . S
H3127 C3114 0.961 . S
H3128 C3114 0.961 . S
H3129 C3115 0.958 . S
H3130 C3115 0.961 . S
H3131 C3115 0.960 . S
C3132 C3133 1.391 . S
C3132 C3134 1.394 . S
C3132 H3148 0.931 . S
C3133 C3132 1.391 . S
C3133 C3137 1.376 . S
C3134 C3132 1.394 . S
C3134 C3135 1.369 . S
C3134 C3138 1.531 . S
C3135 C3134 1.369 . S
C3135 C3136 1.410 . S
C3135 C3143 1.503 . S
C3136 C3135 1.410 . S
C3136 C3137 1.392 . S
C3136 C3139 1.511 . S
C3137 C3133 1.376 . S
C3137 C3136 1.392 . S
C3137 H3149 0.929 . S
C3138 C3134 1.531 . S
C3138 H3150 0.960 . S
C3138 H3151 0.962 . S
C3138 H3152 0.960 . S
C3139 C3136 1.511 . S
C3139 H3153 0.961 . S
C3139 H3154 0.961 . S
C3139 H3155 0.961 . S
C3140 C3141 1.370 . S
C3140 C3142 1.363 . S
C3140 H3156 0.931 . S
C3141 C3140 1.370 . S
C3141 C3145 1.408 . S
C3142 C3140 1.363 . S
C3142 C3143 1.370 . S
C3142 C3146 1.524 . S
C3143 C3135 1.503 . S
C3143 C3142 1.370 . S
C3143 C3144 1.403 . S
C3144 C3143 1.403 . S
C3144 C3145 1.404 . S
C3144 C3147 1.539 . S
C3145 C3141 1.408 . S
C3145 C3144 1.404 . S
C3145 H3157 0.930 . S
C3146 C3142 1.524 . S
C3146 H3158 0.956 . S
C3146 H3159 0.961 . S
C3146 H3160 0.961 . S
C3147 C3144 1.539 . S
C3147 H3161 0.958 . S
C3147 H3162 0.961 . S
C3147 H3163 0.960 . S
H3148 C3132 0.931 . S
H3149 C3137 0.929 . S
H3150 C3138 0.960 . S
H3151 C3138 0.962 . S
H3152 C3138 0.960 . S
H3153 C3139 0.961 . S
H3154 C3139 0.961 . S
H3155 C3139 0.961 . S
H3156 C3140 0.931 . S
H3157 C3145 0.930 . S
H3158 C3146 0.956 . S
H3159 C3146 0.961 . S
H3160 C3146 0.961 . S
H3161 C3147 0.958 . S
H3162 C3147 0.961 . S
H3163 C3147 0.960 . S
C3164 C3165 1.391 . S
C3164 C3166 1.394 . S
C3164 H3180 0.931 . S
C3165 C3164 1.391 . S
C3165 C3169 1.376 . S
C3166 C3164 1.394 . S
C3166 C3167 1.369 . S
C3166 C3170 1.531 . S
C3167 C3166 1.369 . S
C3167 C3168 1.410 . S
C3167 C3175 1.503 . S
C3168 C3167 1.410 . S
C3168 C3169 1.392 . S
C3168 C3171 1.511 . S
C3169 C3165 1.376 . S
C3169 C3168 1.392 . S
C3169 H3181 0.929 . S
C3170 C3166 1.531 . S
C3170 H3182 0.960 . S
C3170 H3183 0.962 . S
C3170 H3184 0.960 . S
C3171 C3168 1.511 . S
C3171 H3185 0.961 . S
C3171 H3186 0.961 . S
C3171 H3187 0.961 . S
C3172 C3173 1.370 . S
C3172 C3174 1.363 . S
C3172 H3188 0.931 . S
C3173 C3172 1.370 . S
C3173 C3177 1.408 . S
C3174 C3172 1.363 . S
C3174 C3175 1.370 . S
C3174 C3178 1.524 . S
C3175 C3167 1.503 . S
C3175 C3174 1.370 . S
C3175 C3176 1.403 . S
C3176 C3175 1.403 . S
C3176 C3177 1.404 . S
C3176 C3179 1.539 . S
C3177 C3173 1.408 . S
C3177 C3176 1.404 . S
C3177 H3189 0.930 . S
C3178 C3174 1.524 . S
C3178 H3190 0.956 . S
C3178 H3191 0.961 . S
C3178 H3192 0.961 . S
C3179 C3176 1.539 . S
C3179 H3193 0.958 . S
C3179 H3194 0.961 . S
C3179 H3195 0.960 . S
H3180 C3164 0.931 . S
H3181 C3169 0.929 . S
H3182 C3170 0.960 . S
H3183 C3170 0.962 . S
H3184 C3170 0.960 . S
H3185 C3171 0.961 . S
H3186 C3171 0.961 . S
H3187 C3171 0.961 . S
H3188 C3172 0.931 . S
H3189 C3177 0.930 . S
H3190 C3178 0.956 . S
H3191 C3178 0.961 . S
H3192 C3178 0.961 . S
H3193 C3179 0.958 . S
H3194 C3179 0.961 . S
H3195 C3179 0.960 . S
C3196 C3197 1.391 . S
C3196 C3198 1.394 . S
C3196 H3212 0.931 . S
C3197 C3196 1.391 . S
C3197 C3201 1.376 . S
C3198 C3196 1.394 . S
C3198 C3199 1.369 . S
C3198 C3202 1.531 . S
C3199 C3198 1.369 . S
C3199 C3200 1.410 . S
C3199 C3207 1.503 . S
C3200 C3199 1.410 . S
C3200 C3201 1.392 . S
C3200 C3203 1.511 . S
C3201 C3197 1.376 . S
C3201 C3200 1.392 . S
C3201 H3213 0.929 . S
C3202 C3198 1.531 . S
C3202 H3214 0.960 . S
C3202 H3215 0.962 . S
C3202 H3216 0.960 . S
C3203 C3200 1.511 . S
C3203 H3217 0.961 . S
C3203 H3218 0.961 . S
C3203 H3219 0.961 . S
C3204 C3205 1.370 . S
C3204 C3206 1.363 . S
C3204 H3220 0.931 . S
C3205 C3204 1.370 . S
C3205 C3209 1.408 . S
C3206 C3204 1.363 . S
C3206 C3207 1.370 . S
C3206 C3210 1.524 . S
C3207 C3199 1.503 . S
C3207 C3206 1.370 . S
C3207 C3208 1.403 . S
C3208 C3207 1.403 . S
C3208 C3209 1.404 . S
C3208 C3211 1.539 . S
C3209 C3205 1.408 . S
C3209 C3208 1.404 . S
C3209 H3221 0.930 . S
C3210 C3206 1.524 . S
C3210 H3222 0.956 . S
C3210 H3223 0.961 . S
C3210 H3224 0.961 . S
C3211 C3208 1.539 . S
C3211 H3225 0.958 . S
C3211 H3226 0.961 . S
C3211 H3227 0.960 . S
H3212 C3196 0.931 . S
H3213 C3201 0.929 . S
H3214 C3202 0.960 . S
H3215 C3202 0.962 . S
H3216 C3202 0.960 . S
H3217 C3203 0.961 . S
H3218 C3203 0.961 . S
H3219 C3203 0.961 . S
H3220 C3204 0.931 . S
H3221 C3209 0.930 . S
H3222 C3210 0.956 . S
H3223 C3210 0.961 . S
H3224 C3210 0.961 . S
H3225 C3211 0.958 . S
H3226 C3211 0.961 . S
H3227 C3211 0.960 . S
C3228 C3229 1.391 . S
C3228 C3230 1.394 . S
C3228 H3244 0.931 . S
C3229 C3228 1.391 . S
C3229 C3233 1.376 . S
C3230 C3228 1.394 . S
C3230 C3231 1.369 . S
C3230 C3234 1.531 . S
C3231 C3230 1.369 . S
C3231 C3232 1.410 . S
C3231 C3239 1.503 . S
C3232 C3231 1.410 . S
C3232 C3233 1.392 . S
C3232 C3235 1.511 . S
C3233 C3229 1.376 . S
C3233 C3232 1.392 . S
C3233 H3245 0.929 . S
C3234 C3230 1.531 . S
C3234 H3246 0.960 . S
C3234 H3247 0.962 . S
C3234 H3248 0.960 . S
C3235 C3232 1.511 . S
C3235 H3249 0.961 . S
C3235 H3250 0.961 . S
C3235 H3251 0.961 . S
C3236 C3237 1.370 . S
C3236 C3238 1.363 . S
C3236 H3252 0.931 . S
C3237 C3236 1.370 . S
C3237 C3241 1.408 . S
C3238 C3236 1.363 . S
C3238 C3239 1.370 . S
C3238 C3242 1.524 . S
C3239 C3231 1.503 . S
C3239 C3238 1.370 . S
C3239 C3240 1.403 . S
C3240 C3239 1.403 . S
C3240 C3241 1.404 . S
C3240 C3243 1.539 . S
C3241 C3237 1.408 . S
C3241 C3240 1.404 . S
C3241 H3253 0.930 . S
C3242 C3238 1.524 . S
C3242 H3254 0.956 . S
C3242 H3255 0.961 . S
C3242 H3256 0.961 . S
C3243 C3240 1.539 . S
C3243 H3257 0.958 . S
C3243 H3258 0.961 . S
C3243 H3259 0.960 . S
H3244 C3228 0.931 . S
H3245 C3233 0.929 . S
H3246 C3234 0.960 . S
H3247 C3234 0.962 . S
H3248 C3234 0.960 . S
H3249 C3235 0.961 . S
H3250 C3235 0.961 . S
H3251 C3235 0.961 . S
H3252 C3236 0.931 . S
H3253 C3241 0.930 . S
H3254 C3242 0.956 . S
H3255 C3242 0.961 . S
H3256 C3242 0.961 . S
H3257 C3243 0.958 . S
H3258 C3243 0.961 . S
H3259 C3243 0.960 . S
C3260 C3261 1.391 . S
C3260 C3262 1.394 . S
C3260 H3276 0.931 . S
C3261 C3260 1.391 . S
C3261 C3265 1.376 . S
C3262 C3260 1.394 . S
C3262 C3263 1.369 . S
C3262 C3266 1.531 . S
C3263 C3262 1.369 . S
C3263 C3264 1.410 . S
C3263 C3271 1.503 . S
C3264 C3263 1.410 . S
C3264 C3265 1.392 . S
C3264 C3267 1.511 . S
C3265 C3261 1.376 . S
C3265 C3264 1.392 . S
C3265 H3277 0.929 . S
C3266 C3262 1.531 . S
C3266 H3278 0.960 . S
C3266 H3279 0.962 . S
C3266 H3280 0.960 . S
C3267 C3264 1.511 . S
C3267 H3281 0.961 . S
C3267 H3282 0.961 . S
C3267 H3283 0.961 . S
C3268 C3269 1.370 . S
C3268 C3270 1.363 . S
C3268 H3284 0.931 . S
C3269 C3268 1.370 . S
C3269 C3273 1.408 . S
C3270 C3268 1.363 . S
C3270 C3271 1.370 . S
C3270 C3274 1.524 . S
C3271 C3263 1.503 . S
C3271 C3270 1.370 . S
C3271 C3272 1.403 . S
C3272 C3271 1.403 . S
C3272 C3273 1.404 . S
C3272 C3275 1.539 . S
C3273 C3269 1.408 . S
C3273 C3272 1.404 . S
C3273 H3285 0.930 . S
C3274 C3270 1.524 . S
C3274 H3286 0.956 . S
C3274 H3287 0.961 . S
C3274 H3288 0.961 . S
C3275 C3272 1.539 . S
C3275 H3289 0.958 . S
C3275 H3290 0.961 . S
C3275 H3291 0.960 . S
H3276 C3260 0.931 . S
H3277 C3265 0.929 . S
H3278 C3266 0.960 . S
H3279 C3266 0.962 . S
H3280 C3266 0.960 . S
H3281 C3267 0.961 . S
H3282 C3267 0.961 . S
H3283 C3267 0.961 . S
H3284 C3268 0.931 . S
H3285 C3273 0.930 . S
H3286 C3274 0.956 . S
H3287 C3274 0.961 . S
H3288 C3274 0.961 . S
H3289 C3275 0.958 . S
H3290 C3275 0.961 . S
H3291 C3275 0.960 . S
C3292 C3293 1.391 . S
C3292 C3294 1.394 . S
C3292 H3308 0.931 . S
C3293 C3292 1.391 . S
C3293 C3297 1.376 . S
C3294 C3292 1.394 . S
C3294 C3295 1.369 . S
C3294 C3298 1.531 . S
C3295 C3294 1.369 . S
C3295 C3296 1.410 . S
C3295 C3303 1.503 . S
C3296 C3295 1.410 . S
C3296 C3297 1.392 . S
C3296 C3299 1.511 . S
C3297 C3293 1.376 . S
C3297 C3296 1.392 . S
C3297 H3309 0.929 . S
C3298 C3294 1.531 . S
C3298 H3310 0.960 . S
C3298 H3311 0.962 . S
C3298 H3312 0.960 . S
C3299 C3296 1.511 . S
C3299 H3313 0.961 . S
C3299 H3314 0.961 . S
C3299 H3315 0.961 . S
C3300 C3301 1.370 . S
C3300 C3302 1.363 . S
C3300 H3316 0.931 . S
C3301 C3300 1.370 . S
C3301 C3305 1.408 . S
C3302 C3300 1.363 . S
C3302 C3303 1.370 . S
C3302 C3306 1.524 . S
C3303 C3295 1.503 . S
C3303 C3302 1.370 . S
C3303 C3304 1.403 . S
C3304 C3303 1.403 . S
C3304 C3305 1.404 . S
C3304 C3307 1.539 . S
C3305 C3301 1.408 . S
C3305 C3304 1.404 . S
C3305 H3317 0.930 . S
C3306 C3302 1.524 . S
C3306 H3318 0.956 . S
C3306 H3319 0.961 . S
C3306 H3320 0.961 . S
C3307 C3304 1.539 . S
C3307 H3321 0.958 . S
C3307 H3322 0.961 . S
C3307 H3323 0.960 . S
H3308 C3292 0.931 . S
H3309 C3297 0.929 . S
H3310 C3298 0.960 . S
H3311 C3298 0.962 . S
H3312 C3298 0.960 . S
H3313 C3299 0.961 . S
H3314 C3299 0.961 . S
H3315 C3299 0.961 . S
H3316 C3300 0.931 . S
H3317 C3305 0.930 . S
H3318 C3306 0.956 . S
H3319 C3306 0.961 . S
H3320 C3306 0.961 . S
H3321 C3307 0.958 . S
H3322 C3307 0.961 . S
H3323 C3307 0.960 . S
C3324 C3325 1.391 . S
C3324 C3326 1.395 1_655 S
C3324 H3340 0.931 1_655 S
C3325 C3324 1.391 . S
C3325 C3329 1.376 . S
C3326 C3324 1.395 1_455 S
C3326 C3327 1.370 1_455 S
C3326 C3330 1.528 . S
C3327 C3326 1.370 1_655 S
C3327 C3328 1.410 . S
C3327 C3335 1.503 . S
C3328 C3327 1.410 . S
C3328 C3329 1.392 . S
C3328 C3331 1.511 . S
C3329 C3325 1.376 . S
C3329 C3328 1.392 . S
C3329 H3341 0.929 . S
C3330 C3326 1.528 . S
C3330 H3342 0.960 . S
C3330 H3343 0.962 . S
C3330 H3344 0.960 . S
C3331 C3328 1.511 . S
C3331 H3345 0.961 . S
C3331 H3346 0.961 . S
C3331 H3347 0.961 . S
C3332 C3333 1.362 1_455 S
C3332 C3334 1.330 1_455 S
C3332 H3348 0.975 . S
C3333 C3332 1.362 1_655 S
C3333 C3337 1.408 . S
C3334 C3332 1.330 1_655 S
C3334 C3335 1.370 . S
C3334 C3338 1.524 1_655 S
C3335 C3327 1.503 . S
C3335 C3334 1.370 . S
C3335 C3336 1.403 . S
C3336 C3335 1.403 . S
C3336 C3337 1.404 . S
C3336 C3339 1.539 . S
C3337 C3333 1.408 . S
C3337 C3336 1.404 . S
C3337 H3349 0.930 . S
C3338 C3334 1.524 1_455 S
C3338 H3350 0.956 . S
C3338 H3351 0.961 1_455 S
C3338 H3352 0.961 . S
C3339 C3336 1.539 . S
C3339 H3353 0.958 . S
C3339 H3354 0.961 . S
C3339 H3355 0.960 . S
H3340 C3324 0.931 1_455 S
H3341 C3329 0.929 . S
H3342 C3330 0.960 . S
H3343 C3330 0.962 . S
H3344 C3330 0.960 . S
H3345 C3331 0.961 . S
H3346 C3331 0.961 . S
H3347 C3331 0.961 . S
H3348 C3332 0.975 . S
H3349 C3337 0.930 . S
H3350 C3338 0.956 . S
H3351 C3338 0.961 1_655 S
H3352 C3338 0.961 . S
H3353 C3339 0.958 . S
H3354 C3339 0.961 . S
H3355 C3339 0.960 . S
C3356 C3357 1.391 . S
C3356 C3358 1.394 . S
C3356 H3372 0.931 . S
C3357 C3356 1.391 . S
C3357 C3361 1.376 . S
C3358 C3356 1.394 . S
C3358 C3359 1.369 . S
C3358 C3362 1.531 . S
C3359 C3358 1.369 . S
C3359 C3360 1.410 . S
C3359 C3367 1.503 . S
C3360 C3359 1.410 . S
C3360 C3361 1.392 . S
C3360 C3363 1.511 . S
C3361 C3357 1.376 . S
C3361 C3360 1.392 . S
C3361 H3373 0.929 . S
C3362 C3358 1.531 . S
C3362 H3374 0.960 . S
C3362 H3375 0.962 . S
C3362 H3376 0.960 . S
C3363 C3360 1.511 . S
C3363 H3377 0.961 . S
C3363 H3378 0.961 . S
C3363 H3379 0.961 . S
C3364 C3365 1.370 . S
C3364 C3366 1.363 . S
C3364 H3380 0.931 . S
C3365 C3364 1.370 . S
C3365 C3369 1.408 . S
C3366 C3364 1.363 . S
C3366 C3367 1.370 . S
C3366 C3370 1.524 . S
C3367 C3359 1.503 . S
C3367 C3366 1.370 . S
C3367 C3368 1.403 . S
C3368 C3367 1.403 . S
C3368 C3369 1.404 . S
C3368 C3371 1.539 . S
C3369 C3365 1.408 . S
C3369 C3368 1.404 . S
C3369 H3381 0.930 . S
C3370 C3366 1.524 . S
C3370 H3382 0.956 . S
C3370 H3383 0.961 . S
C3370 H3384 0.961 . S
C3371 C3368 1.539 . S
C3371 H3385 0.958 . S
C3371 H3386 0.961 . S
C3371 H3387 0.960 . S
H3372 C3356 0.931 . S
H3373 C3361 0.929 . S
H3374 C3362 0.960 . S
H3375 C3362 0.962 . S
H3376 C3362 0.960 . S
H3377 C3363 0.961 . S
H3378 C3363 0.961 . S
H3379 C3363 0.961 . S
H3380 C3364 0.931 . S
H3381 C3369 0.930 . S
H3382 C3370 0.956 . S
H3383 C3370 0.961 . S
H3384 C3370 0.961 . S
H3385 C3371 0.958 . S
H3386 C3371 0.961 . S
H3387 C3371 0.960 . S
C3388 C3389 1.391 . S
C3388 C3390 1.394 . S
C3388 H3404 0.931 . S
C3389 C3388 1.391 . S
C3389 C3393 1.376 . S
C3390 C3388 1.394 . S
C3390 C3391 1.369 . S
C3390 C3394 1.531 . S
C3391 C3390 1.369 . S
C3391 C3392 1.410 . S
C3391 C3399 1.503 . S
C3392 C3391 1.410 . S
C3392 C3393 1.392 . S
C3392 C3395 1.511 . S
C3393 C3389 1.376 . S
C3393 C3392 1.392 . S
C3393 H3405 0.929 . S
C3394 C3390 1.531 . S
C3394 H3406 0.960 . S
C3394 H3407 0.962 . S
C3394 H3408 0.960 . S
C3395 C3392 1.511 . S
C3395 H3409 0.961 . S
C3395 H3410 0.961 . S
C3395 H3411 0.961 1_545 S
C3396 C3397 1.370 . S
C3396 C3398 1.363 . S
C3396 H3412 0.931 . S
C3397 C3396 1.370 . S
C3397 C3401 1.408 1_545 S
C3398 C3396 1.363 . S
C3398 C3399 1.370 . S
C3398 C3402 1.524 . S
C3399 C3391 1.503 . S
C3399 C3398 1.370 . S
C3399 C3400 1.403 1_545 S
C3400 C3399 1.403 1_565 S
C3400 C3401 1.404 . S
C3400 C3403 1.539 . S
C3401 C3397 1.408 1_565 S
C3401 C3400 1.404 . S
C3401 H3413 0.930 . S
C3402 C3398 1.524 . S
C3402 H3414 0.956 . S
C3402 H3415 0.961 . S
C3402 H3416 0.961 . S
C3403 C3400 1.539 . S
C3403 H3417 0.958 . S
C3403 H3418 0.961 . S
C3403 H3419 0.960 . S
H3404 C3388 0.931 . S
H3405 C3393 0.929 . S
H3406 C3394 0.960 . S
H3407 C3394 0.962 . S
H3408 C3394 0.960 . S
H3409 C3395 0.961 . S
H3410 C3395 0.961 . S
H3411 C3395 0.961 1_565 S
H3412 C3396 0.931 . S
H3413 C3401 0.930 . S
H3414 C3402 0.956 . S
H3415 C3402 0.961 . S
H3416 C3402 0.961 . S
H3417 C3403 0.958 . S
H3418 C3403 0.961 . S
H3419 C3403 0.960 . S
C1117 C13 1.403 . S
C1125 C729 1.501 . S
C1149 C27 1.319 . S
C1157 C777 1.432 . S
C1189 C825 1.488 . S
C1181 C36 1.429 . S
C1213 C41 1.421 . S
C1221 C849 1.501 . S
C1245 C8 1.442 . S
C1253 C921 1.587 . S
C1277 C22 1.473 . S
C1285 C969 1.524 . S
C1309 C55 1.469 . S
C1317 C897 1.508 . S
C1349 C945 1.435 . S
C1341 C69 1.325 . S
C1381 C873 1.500 . S
C1373 C78 1.424 . S
C1405 C83 1.447 . S
C1413 C801 1.488 . S
C1445 C705 1.611 . S
C1437 C50 1.536 . S
C1469 C64 1.431 . S
C1477 C753 1.522 . S
C1501 C97 1.578 . S
C1509 C1017 1.648 . S
C1533 C111 1.426 . S
C1541 C1065 1.494 . S
C1573 C1089 1.577 . S
C1565 C120 1.506 . S
C1597 C125 1.496 . S
C1605 C273 1.549 . S
C1629 C92 1.634 . S
C1637 C345 1.725 . S
C1661 C106 1.521 . S
C1669 C393 1.569 . S
C1693 C139 1.512 . S
C1701 C321 1.586 . S
C1725 C153 1.378 . S
C1733 C369 1.473 . S
C1765 C297 1.574 . S
C1757 C162 1.549 . S
C1797 C1113 1.588 . S
C1789 C167 1.475 . S
C1829 C993 1.716 . S
C1821 C134 1.627 . S
C1861 C1041 1.582 . S
C1853 C148 1.497 . S
C1885 C181 1.462 . S
C1893 C441 1.592 . S
C1917 C195 1.347 . S
C1925 C489 1.460 . S
C1949 C204 1.507 . S
C1957 C513 1.584 . S
C1981 C209 1.549 . S
C1989 C561 1.604 . S
C2021 C633 1.735 . S
C2013 C176 1.688 . S
C2053 C681 1.585 . S
C2045 C190 1.534 . S
C2085 C609 1.663 . S
C2077 C223 1.537 . S
C2117 C657 1.499 . S
C2109 C237 1.417 . S
C2141 C246 1.513 . S
C2149 C585 1.547 . S
C2181 C537 1.523 . S
C2173 C251 1.494 . S
C2205 C218 1.629 . S
C2213 C417 1.725 . S
C2245 C465 1.573 . S
C2237 C232 1.489 . S
C2277 C282 1.480 . S
C2269 C11 1.467 . S
C2301 C25 1.326 . S
C2309 C336 1.329 . S
C2341 C384 1.431 . S
C2333 C35 1.450 . S
C2373 C432 1.471 . S
C2365 C39 1.435 . S
C2405 C480 1.535 . S
C2397 C7 1.549 1_556 S
C2437 C522 1.417 . S
C2429 C21 1.414 . S
C2461 C53 1.448 . S
C2469 C528 1.495 . S
C2493 C67 1.317 . S
C2501 C426 1.326 . S
C2525 C77 1.433 1_556 S
C2533 C474 1.401 . S
C2557 C81 1.470 . S
C2565 C330 1.481 . S
C2597 C378 1.522 . S
C2589 C49 1.546 . S
C2621 C63 1.420 . S
C2629 C288 1.399 . S
C2661 C570 1.439 . S
C2653 C95 1.427 . S
C2685 C109 1.410 . S
C2693 C624 1.398 . S
C2717 C119 1.511 . S
C2725 C672 1.490 . S
C2757 C720 1.285 . S
C2749 C123 1.271 . S
C2781 C91 1.506 . S
C2789 C768 1.481 . S
C2813 C105 1.250 . S
C2821 C816 1.264 . S
C2845 C137 1.319 . S
C2853 C810 1.298 . S
C2877 C151 1.164 . S
C2885 C714 1.186 . S
C2917 C762 1.390 . S
C2909 C161 1.409 . S
C2941 C165 1.467 . S
C2949 C618 1.428 . S
C2973 C133 1.579 . S
C2981 C666 1.556 . S
C3013 C576 1.497 . S
C3005 C147 1.503 . S
C3045 C858 1.326 . S
C3037 C179 1.322 . S
C3069 C193 1.181 . S
C3077 C912 1.173 . S
C3101 C203 1.411 . S
C3109 C960 1.398 . S
C3141 C1008 1.430 . S
C3133 C207 1.430 . S
C3173 C1056 1.564 . S
C3165 C175 1.585 . S
C3197 C189 1.504 . S
C3205 C1098 1.506 . S
C3229 C221 1.453 . S
C3237 C1104 1.437 . S
C3261 C235 1.421 . S
C3269 C1002 1.386 . S
C3301 C1050 1.456 . S
C3293 C245 1.490 . S
C3333 C906 1.250 . S
C3325 C249 1.259 . S
C3365 C954 1.474 . S
C3357 C217 1.511 . S
C3389 C231 1.292 . S
C3397 C864 1.288 . S
