# Generated by pormake.
# Topology zzz, (3,6)-cn, num edge types: 1
# Building blocks:
#     Node 0, Type 0, BuildingBlock: MIDCAF_clean_linker_0, # of connection points: 3
#     Node 1, Type 0, BuildingBlock: MIDCAF_clean_linker_0, # of connection points: 3
#     Node 2, Type 0, BuildingBlock: MIDCAF_clean_linker_0, # of connection points: 3
#     Node 3, Type 0, BuildingBlock: MIDCAF_clean_linker_0, # of connection points: 3
#     Node 4, Type 0, BuildingBlock: MIDCAF_clean_linker_0, # of connection points: 3
#     Node 5, Type 0, BuildingBlock: MIDCAF_clean_linker_0, # of connection points: 3
#     Node 6, Type 0, BuildingBlock: MIDCAF_clean_linker_0, # of connection points: 3
#     Node 7, Type 0, BuildingBlock: MIDCAF_clean_linker_0, # of connection points: 3
#     Node 8, Type 1, BuildingBlock: NUHQIS_clean_sbu_0, # of connection points: 6
#     Node 9, Type 1, BuildingBlock: NUHQIS_clean_sbu_0, # of connection points: 6
#     Node 10, Type 1, BuildingBlock: NUHQIS_clean_sbu_0, # of connection points: 6
#     Node 11, Type 1, BuildingBlock: NUHQIS_clean_sbu_0, # of connection points: 6
#     Edge 12, Type (0, 1), BuildingBlock: XIVTED_clean_linker_0, # of connection points: 2
#     Edge 13, Type (0, 1), BuildingBlock: XIVTED_clean_linker_0, # of connection points: 2
#     Edge 14, Type (0, 1), BuildingBlock: XIVTED_clean_linker_0, # of connection points: 2
#     Edge 15, Type (0, 1), BuildingBlock: XIVTED_clean_linker_0, # of connection points: 2
#     Edge 16, Type (0, 1), BuildingBlock: XIVTED_clean_linker_0, # of connection points: 2
#     Edge 17, Type (0, 1), BuildingBlock: XIVTED_clean_linker_0, # of connection points: 2
#     Edge 18, Type (0, 1), BuildingBlock: XIVTED_clean_linker_0, # of connection points: 2
#     Edge 19, Type (0, 1), BuildingBlock: XIVTED_clean_linker_0, # of connection points: 2
#     Edge 20, Type (0, 1), BuildingBlock: XIVTED_clean_linker_0, # of connection points: 2
#     Edge 21, Type (0, 1), BuildingBlock: XIVTED_clean_linker_0, # of connection points: 2
#     Edge 22, Type (0, 1), BuildingBlock: XIVTED_clean_linker_0, # of connection points: 2
#     Edge 23, Type (0, 1), BuildingBlock: XIVTED_clean_linker_0, # of connection points: 2
#     Edge 24, Type (0, 1), BuildingBlock: XIVTED_clean_linker_0, # of connection points: 2
#     Edge 25, Type (0, 1), BuildingBlock: XIVTED_clean_linker_0, # of connection points: 2
#     Edge 26, Type (0, 1), BuildingBlock: XIVTED_clean_linker_0, # of connection points: 2
#     Edge 27, Type (0, 1), BuildingBlock: XIVTED_clean_linker_0, # of connection points: 2
#     Edge 28, Type (0, 1), BuildingBlock: XIVTED_clean_linker_0, # of connection points: 2
#     Edge 29, Type (0, 1), BuildingBlock: XIVTED_clean_linker_0, # of connection points: 2
#     Edge 30, Type (0, 1), BuildingBlock: XIVTED_clean_linker_0, # of connection points: 2
#     Edge 31, Type (0, 1), BuildingBlock: XIVTED_clean_linker_0, # of connection points: 2
#     Edge 32, Type (0, 1), BuildingBlock: XIVTED_clean_linker_0, # of connection points: 2
#     Edge 33, Type (0, 1), BuildingBlock: XIVTED_clean_linker_0, # of connection points: 2
#     Edge 34, Type (0, 1), BuildingBlock: XIVTED_clean_linker_0, # of connection points: 2
#     Edge 35, Type (0, 1), BuildingBlock: XIVTED_clean_linker_0, # of connection points: 2
# Relax obj value: 0.423
# Max RMSD: 0.256
# Mean RMSD: 0.233
data_MOF--net-zzz--node1-NUHQIS_clean_sbu_0--node2-MIDCAF_clean_linker_0--edge1-XIVTED_clean_linker_0
_symmetry_space_group_name_H-M    P1
_symmetry_Int_Tables_number       1
_symmetry_cell_setting            triclinic
loop_
_symmetry_equiv_pos_as_xyz
'x, y, z'
_cell_length_a     59.604402
_cell_length_b     59.631601
_cell_length_c     19.130554
_cell_angle_alpha  89.69822
_cell_angle_beta   89.95265
_cell_angle_gamma 90.01356
loop_
_atom_site_label
_atom_site_type_symbol
_atom_site_fract_x
_atom_site_fract_y
_atom_site_fract_z
_atom_type_partial_charge
C0 C 0.79233 0.48393 0.45592 0.0
C1 C 0.8013 0.50572 0.45955 0.0
C2 C 0.78986 0.52318 0.42438 0.0
C3 C 0.77082 0.51864 0.38323 0.0
H4 H 0.67604 0.48917 0.31004 0.0
H5 H 0.63906 0.49607 0.25783 0.0
H6 H 0.67082 0.5286 0.08157 0.0
H7 H 0.70763 0.52132 0.13345 0.0
H8 H 0.72962 0.45652 0.0859 0.0
H9 H 0.75008 0.43383 1.00132 0.0
H10 H 0.79848 0.4165 0.16097 0.0
H11 H 0.77783 0.43832 0.24514 0.0
H12 H 0.76806 0.46219 0.40961 0.0
H13 H 0.80065 0.46995 0.48123 0.0
H14 H 0.79608 0.54022 0.42659 0.0
H15 H 0.76327 0.5321 0.35316 0.0
N16 N 0.72846 0.5011 0.30226 0.0
N17 N 0.72381 0.47782 0.20384 0.0
N18 N 0.75487 0.47305 0.27646 0.0
C19 C 0.71625 0.49468 0.24512 0.0
C20 C 0.74306 0.46683 0.21944 0.0
C21 C 0.74796 0.49007 0.31789 0.0
C22 C 0.6946 0.50511 0.22634 0.0
C23 C 0.67498 0.49863 0.26165 0.0
C24 C 0.65387 0.50233 0.23128 0.0
C25 C 0.65199 0.51277 0.1653 0.0
C26 C 0.67162 0.52074 0.13268 0.0
C27 C 0.6927 0.51668 0.16249 0.0
C28 C 0.75242 0.44972 0.17184 0.0
C29 C 0.74429 0.44735 0.1033 0.0
C30 C 0.75607 0.43441 0.05472 0.0
C31 C 0.77616 0.42362 0.07385 0.0
C32 C 0.78303 0.42438 0.14409 0.0
C33 C 0.77129 0.43722 0.19245 0.0
C34 C 0.76301 0.49654 0.37609 0.0
C35 C 0.77355 0.47943 0.41469 0.0
C36 C 0.99845 0.80351 0.35309 0.0
C37 C 0.99966 0.80205 0.42643 0.0
C38 C 0.0058 0.78136 0.45692 0.0
C39 C 0.0117 0.763 0.41488 0.0
H40 H 0.0498 0.67544 0.22536 0.0
H41 H 0.038 0.64174 0.16334 0.0
H42 H 0.97246 0.67075 0.1313 0.0
H43 H 0.98421 0.7044 0.1953 0.0
H44 H 0.07226 0.72702 0.09881 0.0
H45 H 0.09631 0.74801 0.01853 0.0
H46 H 0.10234 0.80086 0.17108 0.0
H47 H 0.07887 0.77984 0.25129 0.0
H48 H 0.00483 0.78747 0.25513 0.0
H49 H 0.99415 0.81917 0.3275 0.0
H50 H 0.00675 0.77957 0.51319 0.0
H51 H 0.01764 0.74771 0.43945 0.0
N52 N 0.01536 0.72808 0.28262 0.0
N53 N 0.04611 0.72184 0.20755 0.0
N54 N 0.04287 0.7559 0.26634 0.0
C55 C 0.02685 0.7144 0.23797 0.0
C56 C 0.05424 0.74257 0.22152 0.0
C57 C 0.02371 0.74884 0.29756 0.0
C58 C 0.01787 0.69245 0.21546 0.0
C59 C 0.03264 0.67429 0.20709 0.0
C60 C 0.02587 0.655 0.17161 0.0
C61 C 1.00434 0.65364 0.14212 0.0
C62 C 0.98917 0.67137 0.15337 0.0
C63 C 0.99581 0.69051 0.19048 0.0
C64 C 0.07316 0.75205 0.18075 0.0
C65 C 0.07933 0.74278 0.11607 0.0
C66 C 0.09304 0.75485 0.06988 0.0
C67 C 0.10091 0.77631 0.08775 0.0
C68 C 0.09669 0.78437 0.15544 0.0
C69 C 0.08297 0.77239 0.20136 0.0
C70 C 0.01164 0.76507 0.34177 0.0
C71 C 1.00451 0.78532 0.31142 0.0
C72 C 0.71135 0.98292 0.40923 0.0
C73 C 0.69884 0.99978 0.44295 0.0
C74 C 0.70528 0.02225 0.43336 0.0
C75 C 0.72287 0.02785 0.3884 0.0
H76 H 0.79375 0.97197 0.19423 0.0
H77 H 0.82875 0.95945 0.13857 0.0
H78 H 0.85751 0.02507 0.17152 0.0
H79 H 0.82278 0.03731 0.22628 0.0
H80 H 0.77289 0.05307 0.06892 0.0
H81 H 0.75386 0.07453 0.9777 0.0
H82 H 0.70019 0.0896 0.122 0.0
H83 H 0.71925 0.06867 0.21301 0.0
H84 H 0.73806 0.97539 0.33706 0.0
H85 H 0.70688 0.96543 0.41587 0.0
H86 H 0.69593 0.0357 0.45766 0.0
H87 H 0.72664 0.04543 0.37971 0.0
N88 N 0.77013 0.00769 0.28294 0.0
N89 N 0.77639 0.03224 0.18787 0.0
N90 N 0.74338 0.03509 0.25271 0.0
C91 C 0.78351 0.01521 0.2297 0.0
C92 C 0.75628 0.04215 0.19865 0.0
C93 C 0.75005 0.01803 0.2951 0.0
C94 C 0.80575 0.00551 0.21496 0.0
C95 C 0.80793 0.98333 0.19178 0.0
C96 C 0.82784 0.9763 0.15921 0.0
C97 C 0.84591 0.9913 0.15014 0.0
C98 C 0.84411 0.01297 0.17821 0.0
C99 C 0.82421 0.02002 0.20964 0.0
C100 C 0.74735 0.05874 0.14793 0.0
C101 C 0.75732 0.06146 0.08172 0.0
C102 C 0.7464 0.0737 0.02929 0.0
C103 C 0.72539 0.08356 0.0422 0.0
C104 C 0.71643 0.08242 0.11018 0.0
C105 C 0.72728 0.07016 0.16238 0.0
C106 C 0.73476 0.01116 0.3524 0.0
C107 C 0.72932 0.98856 0.36476 0.0
C108 C 0.40976 0.71227 0.22779 0.0
C109 C 0.40341 0.71954 0.1606 0.0
C110 C 0.4094 0.74132 0.13902 0.0
C111 C 0.42348 0.75451 0.18043 0.0
H112 H 0.52117 0.79973 0.25377 0.0
H113 H 0.5322 0.83353 0.18806 0.0
H114 H 0.46297 0.85482 0.18261 0.0
H115 H 0.45211 0.82138 0.2474 0.0
H116 H 0.47995 0.7517 0.49339 0.0
H117 H 0.48943 0.71932 0.56675 0.0
H118 H 0.52046 0.68748 0.38875 0.0
H119 H 0.5114 0.72012 0.31679 0.0
H120 H 0.42947 0.71858 0.31852 0.0
H121 H 0.4056 0.69559 0.24636 0.0
H122 H 0.40439 0.74763 0.08818 0.0
H123 H 0.42908 0.77054 0.16005 0.0
N124 N 0.45857 0.77733 0.25814 0.0
N125 N 0.49051 0.77366 0.32994 0.0
N126 N 0.46333 0.74508 0.32606 0.0
C127 C 0.47807 0.78594 0.28341 0.0
C128 C 0.4828 0.75324 0.35199 0.0
C129 C 0.4511 0.75692 0.27914 0.0
C130 C 0.48577 0.80788 0.25553 0.0
C131 C 0.50846 0.81195 0.2399 0.0
C132 C 0.51472 0.83118 0.20176 0.0
C133 C 0.49845 0.84685 0.1798 0.0
C134 C 0.47598 0.84328 0.19913 0.0
C135 C 0.46973 0.82401 0.23604 0.0
C136 C 0.49544 0.73858 0.4 0.0
C137 C 0.48979 0.73822 0.47118 0.0
C138 C 0.49485 0.71945 0.51272 0.0
C139 C 0.5054 0.70051 0.48358 0.0
C140 C 0.51255 0.70173 0.41346 0.0
C141 C 0.50751 0.72052 0.37212 0.0
C142 C 0.43181 0.7461 0.24413 0.0
C143 C 0.42375 0.72541 0.26909 0.0
C144 C 0.21217 0.53266 0.93074 0.0
C145 C 0.20203 0.51156 0.93995 0.0
C146 C 0.21129 0.49676 0.99009 0.0
C147 C 0.22936 0.50347 0.03252 0.0
H148 H 0.32088 0.5595 0.18933 0.0
H149 H 0.35388 0.54697 0.25297 0.0
H150 H 0.32793 0.47935 0.25595 0.0
H151 H 0.29457 0.4921 0.19105 0.0
H152 H 0.27045 0.58478 0.28375 0.0
H153 H 0.24865 0.61049 0.35556 0.0
H154 H 0.19799 0.61376 0.19416 0.0
H155 H 0.21996 0.58901 0.1221 0.0
H156 H 0.23636 0.5563 0.96768 0.0
H157 H 0.20548 0.54467 0.89358 0.0
H158 H 0.20407 0.48029 0.99819 0.0
H159 H 0.23523 0.49231 0.07345 0.0
N160 N 0.2716 0.52532 0.10638 0.0
N161 N 0.27599 0.5554 0.18486 0.0
N162 N 0.24524 0.55467 0.1097 0.0
C163 C 0.28371 0.53587 0.15744 0.0
C164 C 0.25671 0.56483 0.16165 0.0
C165 C 0.2524 0.53512 0.08162 0.0
C166 C 0.30513 0.52678 0.18515 0.0
C167 C 0.32239 0.54185 0.20229 0.0
C168 C 0.34139 0.53463 0.23861 0.0
C169 C 0.34359 0.51215 0.25986 0.0
C170 C 0.32668 0.49682 0.24069 0.0
C171 C 0.3077 0.50403 0.20298 0.0
C172 C 0.24664 0.58429 0.19796 0.0
C173 C 0.25497 0.59154 0.2628 0.0
C174 C 0.24241 0.60621 0.30418 0.0
C175 C 0.22128 0.61386 0.28158 0.0
C176 C 0.21418 0.6084 0.21364 0.0
C177 C 0.22673 0.59387 0.17232 0.0
C178 C 0.23832 0.52516 0.02599 0.0
C179 C 0.22995 0.53938 0.97334 0.0
C180 C 0.00784 0.21018 0.95951 0.0
C181 C 0.02527 0.19923 0.92325 0.0
C182 C 0.0465 0.20956 0.92126 0.0
C183 C 0.05078 0.22892 0.96 0.0
H184 H 0.04957 0.32656 0.0971 0.0
H185 H 0.04107 0.3609 0.16183 0.0
H186 H 0.99367 0.32411 0.28917 0.0
H187 H 1.00252 0.28992 0.22491 0.0
H188 H 0.06473 0.26509 0.3058 0.0
H189 H 0.07003 0.23777 0.39915 0.0
H190 H 0.08719 0.18765 0.24526 0.0
H191 H 0.08322 0.21504 0.15375 0.0
H192 H 0.99893 0.23667 0.03031 0.0
H193 H 0.99129 0.20275 0.96256 0.0
H194 H 0.06021 0.20204 0.89254 0.0
H195 H 0.06779 0.23531 0.962 0.0
N196 N 0.03081 0.27327 0.0746 0.0
N197 N 0.05123 0.27475 0.18012 0.0
N198 N 0.05545 0.24414 0.10605 0.0
C199 C 0.03671 0.28438 0.1343 0.0
C200 C 0.06076 0.25465 0.16631 0.0
C201 C 0.04066 0.25311 0.06004 0.0
C202 C 0.02633 0.30576 0.15516 0.0
C203 C 0.03662 0.32614 0.13687 0.0
C204 C 0.03185 0.34576 0.17439 0.0
C205 C 0.01692 0.34523 0.23152 0.0
C206 C 0.00552 0.32508 0.24631 0.0
C207 C 0.01028 0.30556 0.2088 0.0
C208 C 0.07238 0.24187 0.22206 0.0
C209 C 0.07058 0.24847 0.29229 0.0
C210 C 0.07343 0.2327 0.34592 0.0
C211 C 0.07775 0.21008 0.3299 0.0
C212 C 0.08341 0.20468 0.26049 0.0
C213 C 0.08089 0.22047 0.20722 0.0
C214 C 0.03389 0.23877 1.0008 0.0
C215 C 0.01212 0.22978 0.99791 0.0
C216 C 0.30208 0.99963 0.01796 0.0
C217 C 0.30581 0.01606 0.96628 0.0
C218 C 0.29052 0.03406 0.961 0.0
C219 C 0.27249 0.03596 0.00819 0.0
H220 H 0.19075 0.99551 0.1372 0.0
H221 H 0.15304 0.99045 0.18575 0.0
H222 H 0.15491 0.05809 0.26525 0.0
H223 H 0.19232 0.06296 0.21641 0.0
H224 H 0.22998 0.00964 0.36096 0.0
H225 H 0.24782 0.99621 0.46827 0.0
H226 H 0.31182 0.02029 0.39344 0.0
H227 H 0.29419 0.03328 0.28551 0.0
H228 H 0.28275 0.98936 0.10682 0.0
H229 H 0.31358 0.98572 0.02444 0.0
H230 H 0.29284 0.04694 0.92155 0.0
H231 H 0.2616 0.05047 0.00522 0.0
N232 N 0.23191 0.02669 0.11501 0.0
N233 N 0.22866 0.02865 0.23757 0.0
N234 N 0.26387 0.02367 0.18687 0.0
C235 C 0.21897 0.02923 0.17356 0.0
C236 C 0.25102 0.02595 0.24475 0.0
C237 C 0.25463 0.0242 0.12204 0.0
C238 C 0.19427 0.02973 0.17222 0.0
C239 C 0.18251 0.00966 0.16153 0.0
C240 C 0.16109 0.00664 0.19065 0.0
C241 C 0.15108 0.0237 0.23073 0.0
C242 C 0.16195 0.0446 0.23455 0.0
C243 C 0.18337 0.04751 0.206 0.0
C244 C 0.26081 0.02224 0.31456 0.0
C245 C 0.24775 0.01262 0.36821 0.0
C246 C 0.25789 0.00492 0.42956 0.0
C247 C 0.2811 0.00724 0.43881 0.0
C248 C 0.29382 0.01852 0.38773 0.0
C249 C 0.28379 0.02578 0.32579 0.0
C250 C 0.26968 0.02006 0.06193 0.0
C251 C 0.28438 1.0017 0.06533 0.0
C252 C 0.52237 0.28941 0.35395 0.0
C253 C 0.53565 0.2774 0.40168 0.0
C254 C 0.53919 0.25438 0.39175 0.0
C255 C 0.5293 0.24349 0.33489 0.0
H256 H 0.456 0.19613 0.24717 0.0
H257 H 0.45358 0.15818 0.29511 0.0
H258 H 0.51025 0.13852 0.16868 0.0
H259 H 0.51251 0.17668 0.12082 0.0
H260 H 0.4551 0.26036 0.04499 0.0
H261 H 0.45117 0.2924 0.96456 0.0
H262 H 0.52332 0.29846 0.95464 0.0
H263 H 0.52702 0.26671 0.03452 0.0
H264 H 0.50297 0.28847 0.26019 0.0
H265 H 0.51965 0.30725 0.36033 0.0
H266 H 0.5495 0.2449 0.42794 0.0
H267 H 0.53219 0.22571 0.32798 0.0
N268 N 0.50002 0.22296 0.22795 0.0
N269 N 0.48734 0.22484 0.11126 0.0
N270 N 0.50343 0.25643 0.16495 0.0
C271 C 0.49045 0.21294 0.17184 0.0
C272 C 0.494 0.24677 0.1081 0.0
C273 C 0.50647 0.24468 0.22489 0.0
C274 C 0.48416 0.18916 0.17942 0.0
C275 C 0.46721 0.18337 0.22717 0.0
C276 C 0.46593 0.16163 0.25488 0.0
C277 C 0.48189 0.14534 0.2364 0.0
C278 C 0.49783 0.15074 0.18452 0.0
C279 C 0.49894 0.17246 0.15625 0.0
C280 C 0.49136 0.26089 0.04494 0.0
C281 C 0.47004 0.26803 0.02316 0.0
C282 C 0.46783 0.28658 0.978 0.0
C283 C 0.48694 0.29817 0.95345 0.0
C284 C 0.50824 0.28988 0.97168 0.0
C285 C 0.5104 0.27162 0.01733 0.0
C286 C 0.51634 0.25567 0.28638 0.0
C287 C 0.51298 0.27871 0.29649 0.0
Tb288 Tb 0.0216 0.98921 0.75479 0.0
Eu289 Eu 0.98232 0.00546 0.64707 0.0
C290 C 0.0332 1.00322 0.60247 0.0
C291 C 0.00687 0.04026 0.74925 0.0
C292 C 0.06726 0.9572 0.84064 0.0
C293 C 0.08954 0.93165 0.91079 0.0
C294 C 0.07737 0.95155 0.90426 0.0
C295 C 0.07021 0.94325 0.78252 0.0
C296 C 0.08251 0.92338 0.78884 0.0
C297 C 0.09185 0.91704 0.8536 0.0
C298 C 0.05216 0.97658 0.83737 0.0
O299 O 0.99107 0.99508 0.81614 0.0
O300 O 0.96423 0.98775 0.73386 0.0
O301 O 0.98817 0.96921 0.62021 0.0
O302 O 0.00934 0.95731 0.71413 0.0
C303 C 0.97042 0.98928 0.79942 0.0
O304 O 0.954 0.02707 0.61933 0.0
O305 O 0.96758 1.00424 0.54287 0.0
O306 O 0.01581 0.01655 0.60517 0.0
O307 O 0.03565 0.9873 0.64947 0.0
O308 O 0.02347 0.02587 0.75605 0.0
O309 O 0.98784 0.03442 0.72024 0.0
C310 C 0.99789 0.95322 0.65675 0.0
O311 O 0.05537 0.9906 0.7858 0.0
O312 O 0.03097 0.97198 0.84605 0.0
C313 C 0.96303 0.04204 0.50873 0.0
C314 C 0.98701 0.08035 0.46419 0.0
C315 C 0.96682 0.08259 0.50189 0.0
C316 C 0.95499 0.06358 0.52418 0.0
C317 C 0.9816 0.03997 0.46373 0.0
C318 C 0.99354 0.05885 0.44233 0.0
C319 C 0.95632 0.02272 0.55285 0.0
H320 H 0.09607 0.9272 0.9618 0.0
H321 H 0.0751 0.96208 0.94971 0.0
H322 H 0.06241 0.94738 0.73294 0.0
H323 H 0.08415 0.91269 0.74355 0.0
H324 H 0.96077 0.09893 0.51745 0.0
H325 H 0.94063 0.06571 0.55827 0.0
H326 H 0.98828 0.02367 0.45013 0.0
H327 H 0.0089 0.05624 0.41333 0.0
Tb328 Tb 0.50937 0.0146 0.74949 0.0
Eu329 Eu 0.49391 0.9725 0.6532 0.0
C330 C 0.49701 0.02219 0.59318 0.0
C331 C 0.45861 0.9996 0.74742 0.0
C332 C 0.54304 0.06147 0.81506 0.0
C333 C 0.57755 0.07123 0.75465 0.0
C334 C 0.55679 0.06036 0.75559 0.0
C335 C 0.54972 0.07441 0.87211 0.0
C336 C 0.57049 0.08523 0.87136 0.0
C337 C 0.58496 0.08323 0.81344 0.0
C338 C 0.52303 0.04731 0.82073 0.0
O339 O 0.50181 0.98687 0.8207 0.0
O340 O 0.51255 0.95918 0.7469 0.0
O341 O 0.52896 0.97981 0.6164 0.0
O342 O 0.54079 0.99954 0.71283 0.0
C343 C 0.50858 0.96621 0.81043 0.0
O344 O 0.48958 0.93634 0.64218 0.0
O345 O 0.47906 0.95842 0.55865 0.0
O346 O 0.484 0.00445 0.59654 0.0
O347 O 0.51215 0.02576 0.64149 0.0
O348 O 0.47269 0.0166 0.74831 0.0
O349 O 0.46486 0.97981 0.7249 0.0
C350 C 0.545 0.98893 0.65387 0.0
O351 O 0.50849 0.04915 0.77013 0.0
O352 O 0.52705 0.0264 0.83653 0.0
C353 C 0.45425 0.92968 0.59075 0.0
C354 C 0.40725 0.92732 0.60175 0.0
C355 C 0.42065 0.92565 0.66184 0.0
C356 C 0.44395 0.92693 0.65647 0.0
C357 C 0.44104 0.92868 0.53029 0.0
C358 C 0.41769 0.9275 0.53569 0.0
C359 C 0.47733 0.93843 0.58614 0.0
H360 H 0.58816 0.06952 0.70899 0.0
H361 H 0.55187 0.05033 0.71106 0.0
H362 H 0.53934 0.07529 0.91856 0.0
H363 H 0.57576 0.09398 0.91802 0.0
H364 H 0.41308 0.92518 0.71333 0.0
H365 H 0.45366 0.92763 0.70424 0.0
H366 H 0.44861 0.93085 0.47918 0.0
H367 H 0.40784 0.92893 0.48832 0.0
Tb368 Tb 0.47508 0.50648 0.76983 0.0
Eu369 Eu 0.51693 0.49248 0.66914 0.0
C370 C 0.46734 0.49545 0.61275 0.0
C371 C 0.48976 0.45544 0.75918 0.0
C372 C 0.43259 0.53939 0.86746 0.0
C373 C 0.40175 0.5605 0.91731 0.0
C374 C 0.41108 0.54006 0.89686 0.0
C375 C 0.44471 0.55933 0.85828 0.0
C376 C 0.43543 0.57975 0.87877 0.0
C377 C 0.41382 0.58059 0.90845 0.0
C378 C 0.44168 0.51804 0.84281 0.0
O379 O 0.5059 0.51695 0.82328 0.0
O380 O 0.52745 0.48861 0.7813 0.0
O381 O 0.51828 0.53021 0.67301 0.0
O382 O 0.48236 0.5372 0.71136 0.0
C383 C 0.52358 0.50388 0.82864 0.0
O384 O 0.55292 0.49283 0.64833 0.0
O385 O 0.5304 0.47575 0.57726 0.0
O386 O 0.48797 0.50167 0.59891 0.0
O387 O 0.46164 0.49006 0.67698 0.0
O388 O 0.4815 0.47155 0.79836 0.0
O389 O 0.50067 0.45978 0.7009 0.0
C390 C 0.50145 0.54402 0.68375 0.0
O391 O 0.44115 0.51543 0.77539 0.0
O392 O 0.46088 0.5118 0.86908 0.0
C393 C 0.56404 0.45778 0.60404 0.0
C394 C 0.57856 0.41294 0.61068 0.0
C395 C 0.57143 0.42397 0.6715 0.0
C396 C 0.56408 0.44617 0.66812 0.0
C397 C 0.57296 0.44752 0.54459 0.0
C398 C 0.58023 0.42527 0.54784 0.0
C399 C 0.55117 0.47862 0.59689 0.0
H400 H 0.38501 0.56059 0.93937 0.0
H401 H 0.40142 0.52479 0.90343 0.0
H402 H 0.46131 0.55908 0.83512 0.0
H403 H 0.44536 0.59484 0.87235 0.0
H404 H 0.57015 0.41502 0.72076 0.0
H405 H 0.55707 0.45374 0.71463 0.0
H406 H 0.57283 0.45617 0.49463 0.0
H407 H 0.58535 0.41724 0.49976 0.0
Tb408 Tb 0.99798 0.48425 0.72807 0.0
Eu409 Eu 0.01228 0.52399 0.61681 0.0
C410 C 0.01065 0.47316 0.57476 0.0
C411 C 0.04855 0.50072 0.72199 0.0
C412 C 0.9628 0.44379 0.82275 0.0
C413 C 0.93789 0.41318 0.85452 0.0
C414 C 0.95955 0.42134 0.84219 0.0
C415 C 0.94423 0.45803 0.81567 0.0
C416 C 0.92264 0.44994 0.82802 0.0
C417 C 0.91918 0.42738 0.84719 0.0
C418 C 0.98522 0.45179 0.80351 0.0
O419 O 0.98822 0.51549 0.77934 0.0
O420 O 0.01271 0.53934 0.72362 0.0
O421 O 0.97447 0.52492 0.61765 0.0
O422 O 0.9672 0.49072 0.66935 0.0
C423 C 0.99904 0.53471 0.7755 0.0
O424 O 0.01129 0.55894 0.58197 0.0
O425 O 0.0298 0.53428 0.52216 0.0
O426 O 1.00382 0.49306 0.55511 0.0
O427 O 0.01608 0.46959 0.6403 0.0
O428 O 0.03212 0.49219 0.75971 0.0
O429 O 0.04494 0.51044 0.66096 0.0
C430 C 0.96053 0.50877 0.6353 0.0
O431 O 0.98983 0.45016 0.7373 0.0
O432 O 0.99117 0.47123 0.82826 0.0
C433 C 0.04473 0.57082 0.52748 0.0
C434 C 0.08241 0.59904 0.51192 0.0
C435 C 0.06114 0.60596 0.48813 0.0
C436 C 0.04248 0.59191 0.49565 0.0
C437 C 0.0656 0.56431 0.55451 0.0
C438 C 0.08428 0.57819 0.54644 0.0
C439 C 0.02541 0.55554 0.53102 0.0
H440 H 0.93579 0.3957 0.86872 0.0
H441 H 0.97373 0.41005 0.84674 0.0
H442 H 0.94642 0.47538 0.79992 0.0
H443 H 0.90867 0.46146 0.82326 0.0
H444 H 0.05897 0.62202 0.46239 0.0
H445 H 0.02639 0.59732 0.47534 0.0
H446 H 0.06764 0.54817 0.58002 0.0
H447 H 0.10035 0.57204 0.56452 0.0
H448 H 0.14276 0.98589 0.30863 0.0
H449 H 0.0354 0.03679 0.50432 0.0
H450 H 0.11479 0.05087 0.26013 0.0
H451 H 0.06862 0.97578 0.56845 0.0
H452 H 0.06225 0.04077 0.40847 0.0
H453 H 0.11329 0.98016 0.39554 0.0
C454 C 0.13017 0.9988 0.31514 0.0
C455 C 0.13133 0.01892 0.27662 0.0
C456 C 0.06367 0.02649 0.4434 0.0
C457 C 0.09766 0.01261 0.37784 0.0
C458 C 0.04831 0.02418 0.49823 0.0
C459 C 0.04971 0.00591 0.54474 0.0
C460 C 0.08062 0.01037 0.43457 0.0
C461 C 0.0669 0.99018 0.53418 0.0
C462 C 0.11346 0.99561 0.36554 0.0
C463 C 0.11474 0.03519 0.28888 0.0
N464 N 0.08164 0.99277 0.48029 0.0
N465 N 0.09868 0.03172 0.33848 0.0
H466 H 0.44815 0.11705 0.28216 0.0
H467 H 0.52794 0.05309 0.55063 0.0
H468 H 0.51996 0.12587 0.28825 0.0
H469 H 0.46179 0.02839 0.50148 0.0
H470 H 0.52443 0.08081 0.45718 0.0
H471 H 0.45182 0.08529 0.36371 0.0
C472 C 0.4647 0.11216 0.29997 0.0
C473 C 0.48378 0.12418 0.27808 0.0
C474 C 0.5107 0.06926 0.46639 0.0
C475 C 0.48805 0.08806 0.37214 0.0
C476 C 0.51265 0.05345 0.52006 0.0
C477 C 0.4951 0.03838 0.53418 0.0
C478 C 0.49089 0.07039 0.42681 0.0
C479 C 0.47575 0.03964 0.49235 0.0
C480 C 0.46678 0.09401 0.34639 0.0
C481 C 0.5048 0.11701 0.30279 0.0
N482 N 0.47406 0.05552 0.44099 0.0
N483 N 0.50632 0.09965 0.34892 0.0
H484 H 0.34279 0.4857 0.37803 0.0
H485 H 0.47162 0.50942 0.47622 0.0
H486 H 0.38804 0.52388 0.24769 0.0
H487 H 0.42376 0.48052 0.62015 0.0
H488 H 0.44245 0.51062 0.38634 0.0
H489 H 0.37352 0.47908 0.4607 0.0
C490 C 0.35927 0.49237 0.36614 0.0
C491 C 0.36275 0.50549 0.30586 0.0
C492 C 0.43835 0.5039 0.43747 0.0
C493 C 0.39802 0.4982 0.40094 0.0
C494 C 0.45504 0.50316 0.48888 0.0
C495 C 0.45019 0.49494 0.55618 0.0
C496 C 0.41658 0.49629 0.45307 0.0
C497 C 0.42832 0.48709 0.56923 0.0
C498 C 0.37677 0.48876 0.41373 0.0
C499 C 0.38446 0.51393 0.29384 0.0
N500 N 0.41236 0.48801 0.51834 0.0
N501 N 0.40118 0.51023 0.34095 0.0
H502 H 0.01432 0.39045 0.19942 0.0
H503 H 0.01936 0.42879 0.60054 0.0
H504 H 0.01583 0.34459 0.37455 0.0
H505 H 0.0051 0.47493 0.4318 0.0
H506 H 0.0205 0.39813 0.51662 0.0
H507 H 0.01304 0.42193 0.28167 0.0
C508 C 0.01432 0.38697 0.25504 0.0
C509 C 0.015 0.36475 0.27989 0.0
C510 C 0.01713 0.41495 0.49778 0.0
C511 C 0.01372 0.40074 0.37438 0.0
C512 C 0.01657 0.43253 0.54577 0.0
C513 C 0.01214 0.45456 0.52338 0.0
C514 C 0.01339 0.4193 0.42645 0.0
C515 C 0.00856 0.45825 0.45156 0.0
C516 C 0.01353 0.40496 0.30197 0.0
C517 C 0.0149 0.36134 0.35269 0.0
N518 N 0.0093 0.44083 0.40569 0.0
N519 N 0.01437 0.37906 0.39709 0.0
H520 H 0.84573 0.9696 0.02417 0.0
H521 H 0.97474 0.99691 0.94041 0.0
H522 H 0.89059 1.00081 0.17143 0.0
H523 H 0.92703 0.97457 0.78607 0.0
H524 H 0.9456 0.99366 0.0301 0.0
H525 H 0.87691 0.96589 0.94196 0.0
C526 C 0.86223 0.97525 0.03989 0.0
C527 C 0.86547 0.98566 0.10481 0.0
C528 C 0.94155 0.98936 0.97666 0.0
C529 C 0.90124 0.98187 0.01006 0.0
C530 C 0.9582 0.99119 0.92534 0.0
C531 C 0.95333 0.98621 0.85528 0.0
C532 C 0.91985 0.98237 0.95803 0.0
C533 C 0.93156 0.9788 0.83917 0.0
C534 C 0.88 0.97335 0.99253 0.0
C535 C 0.88722 0.99296 0.12163 0.0
N536 N 0.91565 0.97719 0.88999 0.0
N537 N 0.90421 0.99107 0.07445 0.0
H538 H 0.52578 0.84646 0.06431 0.0
H539 H 0.4949 0.97209 0.94637 0.0
H540 H 0.48382 0.89053 0.18567 0.0
H541 H 0.5258 0.92356 0.81018 0.0
H542 H 0.4954 0.94431 0.04113 0.0
H543 H 0.53101 0.87654 0.97823 0.0
C544 C 0.51799 0.86259 0.07355 0.0
C545 C 0.50423 0.8659 0.13223 0.0
C546 C 0.50219 0.93979 0.99061 0.0
C547 C 0.50991 0.90039 0.03321 0.0
C548 C 0.50197 0.95568 0.93647 0.0
C549 C 0.5102 0.95015 0.86993 0.0
C550 C 0.51085 0.91823 0.97843 0.0
C551 C 0.51914 0.92857 0.86038 0.0
C552 C 0.52081 0.8797 0.024 0.0
C553 C 0.49433 0.88711 0.1408 0.0
N554 N 0.51917 0.91342 0.91385 0.0
N555 N 0.49727 0.90348 0.09177 0.0
H556 H 0.62271 0.47796 0.14928 0.0
H557 H 0.5349 0.54187 0.90245 0.0
H558 H 0.63214 0.54728 0.09093 0.0
H559 H 0.54952 0.47125 0.88677 0.0
H560 H 0.56456 0.54523 0.99176 0.0
H561 H 0.58947 0.47652 0.07446 0.0
C562 C 0.61755 0.49302 0.12181 0.0
C563 C 0.63026 0.51278 0.12651 0.0
C564 C 0.56108 0.52901 0.96898 0.0
C565 C 0.59217 0.51118 0.0403 0.0
C566 C 0.54411 0.52706 0.91847 0.0
C567 C 0.5398 0.50627 0.88701 0.0
C568 C 0.57337 0.50993 0.98925 0.0
C569 C 0.55236 0.48763 0.9093 0.0
C570 C 0.59868 0.49212 0.07861 0.0
C571 C 0.6229 0.53167 0.08857 0.0
N572 N 0.56845 0.48988 0.95909 0.0
N573 N 0.60433 0.53043 0.04708 0.0
H574 H 0.01004 0.60825 0.16205 0.0
H575 H 1.0017 0.58003 0.76071 0.0
H576 H 0.98712 0.65676 0.01027 0.0
H577 H 0.99004 0.52853 0.91564 0.0
H578 H 0.99943 0.60839 0.85222 0.0
H579 H 0.00552 0.57856 0.07437 0.0
C580 C 1.00378 0.61259 0.11058 0.0
C581 C 0.99889 0.635 0.09345 0.0
C582 C 0.99717 0.59092 0.86621 0.0
C583 C 0.99418 0.60128 0.99275 0.0
C584 C 0.99856 0.5747 0.81406 0.0
C585 C 0.99607 0.55187 0.8306 0.0
C586 C 0.99383 0.58432 0.93598 0.0
C587 C 0.99195 0.54596 0.90063 0.0
C588 C 1.00117 0.59566 0.06072 0.0
C589 C 0.99088 0.6397 0.02594 0.0
N590 N 0.99128 0.56206 0.95103 0.0
N591 N 0.98911 0.62307 0.97783 0.0
H592 H 0.04407 0.21071 0.42847 0.0
H593 H 0.01581 0.08857 0.35404 0.0
H594 H 0.09497 0.16706 0.34273 0.0
H595 H 0.99386 0.11649 0.55083 0.0
H596 H 0.04312 0.11876 0.3434 0.0
H597 H 0.02482 0.17812 0.47543 0.0
C598 C 0.05176 0.19446 0.42122 0.0
C599 C 0.07093 0.19178 0.37894 0.0
C600 C 0.03241 0.11807 0.38915 0.0
C601 C 0.04811 0.15432 0.43045 0.0
C602 C 0.01672 0.10088 0.39531 0.0
C603 C 1.00236 0.0998 0.45354 0.0
C604 C 0.03341 0.13472 0.44045 0.0
C605 C 1.00412 0.11678 0.50416 0.0
C606 C 0.04049 0.17578 0.44768 0.0
C607 C 0.07972 0.17001 0.37198 0.0
N608 N 0.01918 0.13371 0.496 0.0
N609 N 0.06782 0.15203 0.39527 0.0
H610 H 0.31182 0.02324 0.53194 0.0
H611 H 0.38874 0.95718 0.69207 0.0
H612 H 0.27778 0.96286 0.46894 0.0
H613 H 0.37136 0.91266 0.52365 0.0
H614 H 0.35211 0.97496 0.68201 0.0
H615 H 0.33804 1.0006 0.60021 0.0
C616 C 0.30945 0.00524 0.53467 0.0
C617 C 0.2928 0.99483 0.49476 0.0
C618 C 0.35617 0.9611 0.64793 0.0
C619 C 0.32271 0.96876 0.57183 0.0
C620 C 0.37696 0.95066 0.65438 0.0
C621 C 0.38329 0.93366 0.60779 0.0
C622 C 0.34172 0.95461 0.59393 0.0
C623 C 0.36736 0.92606 0.55951 0.0
C624 C 0.3243 0.99228 0.57397 0.0
C625 C 0.29041 0.97147 0.49936 0.0
N626 N 0.34739 0.93686 0.55304 0.0
N627 N 0.30565 0.95912 0.53556 0.0
H628 H 0.58041 0.28138 0.42933 0.0
H629 H 0.6088 0.38646 0.54003 0.0
H630 H 0.51519 0.30153 0.50318 0.0
H631 H 0.55097 0.38278 0.67564 0.0
H632 H 0.60354 0.34709 0.51092 0.0
H633 H 0.59768 0.30936 0.50605 0.0
C634 C 0.56983 0.29136 0.46311 0.0
C635 C 0.54641 0.28961 0.45936 0.0
C636 C 0.59254 0.35454 0.5493 0.0
C637 C 0.56575 0.32192 0.54492 0.0
C638 C 0.59543 0.37717 0.56539 0.0
C639 C 0.58004 0.3881 0.60911 0.0
C640 C 0.574 0.34287 0.57684 0.0
C641 C 0.56324 0.37516 0.64144 0.0
C642 C 0.57962 0.30751 0.50611 0.0
C643 C 0.53332 0.30274 0.50401 0.0
N644 N 0.56034 0.35341 0.62323 0.0
N645 N 0.54317 0.31855 0.54431 0.0
H646 H 0.18896 0.64616 0.25712 0.0
H647 H 0.12076 0.60457 0.59067 0.0
H648 H 0.21567 0.60365 0.42053 0.0
H649 H 0.09131 0.62325 0.39247 0.0
H650 H 0.15706 0.61813 0.5484 0.0
H651 H 0.15529 0.65196 0.32792 0.0
C652 C 0.18804 0.63847 0.30845 0.0
C653 C 0.2049 0.62371 0.3316 0.0
C654 C 0.14248 0.61972 0.51498 0.0
C655 C 0.16661 0.63061 0.41306 0.0
C656 C 0.12178 0.61183 0.53876 0.0
C657 C 0.103 0.61208 0.49435 0.0
C658 C 0.14439 0.62807 0.44656 0.0
C659 C 0.10523 0.6225 0.42862 0.0
C660 C 0.16885 0.64187 0.34885 0.0
C661 C 0.20311 0.61494 0.39977 0.0
N662 N 0.12564 0.62972 0.4063 0.0
N663 N 0.18408 0.61814 0.43745 0.0
H664 H 0.13474 0.80766 0.09837 0.0
H665 H 0.07778 0.87735 0.79651 0.0
H666 H 0.08604 0.78133 0.9535 0.0
H667 H 0.1277 0.90449 0.93603 0.0
H668 H 0.08829 0.83977 0.83333 0.0
H669 H 0.13996 0.84011 0.0214 0.0
C670 C 0.12555 0.80842 0.04959 0.0
C671 C 0.1095 0.792 0.03336 0.0
C672 C 0.09727 0.85389 0.85508 0.0
C673 C 0.11526 0.82914 0.94534 0.0
C674 C 0.09137 0.87547 0.83359 0.0
C675 C 0.10148 0.89426 0.86437 0.0
C676 C 0.11315 0.85101 0.90858 0.0
C677 C 0.1189 0.89055 0.91255 0.0
C678 C 0.12855 0.82695 0.00562 0.0
C679 C 0.09849 0.79359 0.96864 0.0
N680 N 0.12386 0.86939 0.93426 0.0
N681 N 0.1012 0.81207 0.92783 0.0
H682 H 0.72033 0.06499 0.91271 0.0
H683 H 0.60132 0.12178 0.87363 0.0
H684 H 0.69723 0.12017 0.03897 0.0
H685 H 0.62274 0.06183 0.76699 0.0
H686 H 0.64024 0.1288 0.90736 0.0
H687 H 0.68959 0.07179 0.83177 0.0
C688 C 0.70924 0.07902 0.9224 0.0
C689 C 0.71105 0.09167 0.98384 0.0
C690 C 0.63646 0.11439 0.87522 0.0
C691 C 0.67533 0.09908 0.89219 0.0
C692 C 0.61423 0.11032 0.85618 0.0
C693 C 0.60862 0.09087 0.81897 0.0
C694 C 0.65316 0.09885 0.85719 0.0
C695 C 0.62615 0.07698 0.79604 0.0
C696 C 0.6915 0.08275 0.87633 0.0
C697 C 0.69605 0.10956 0.99338 0.0
N698 N 0.64754 0.081 0.81668 0.0
N699 N 0.67851 0.11242 0.94892 0.0
H700 H 0.37299 0.68536 0.18318 0.0
H701 H 0.41652 0.62178 0.84427 0.0
H702 H 0.41431 0.71529 0.0223 0.0
H703 H 0.38961 0.58887 0.02762 0.0
H704 H 0.40568 0.65795 0.89323 0.0
H705 H 0.36835 0.65225 0.1097 0.0
C706 C 0.38067 0.68522 0.13186 0.0
C707 C 0.39458 0.70293 0.10986 0.0
C708 C 0.40184 0.64277 0.92221 0.0
C709 C 0.38927 0.66516 0.02563 0.0
C710 C 0.40817 0.62213 0.89457 0.0
C711 C 0.40443 0.60228 0.9326 0.0
C712 C 0.39173 0.6436 0.98845 0.0
C713 C 0.39292 0.60372 0.99651 0.0
C714 C 0.37801 0.66631 0.08998 0.0
C715 C 0.40355 0.70207 0.04195 0.0
N716 N 0.38727 0.62406 0.02289 0.0
N717 N 0.4011 0.68331 1.00285 0.0
H718 H 0.80424 0.38691 0.08125 0.0
H719 H 0.88033 0.43717 0.77651 0.0
H720 H 0.78476 0.44126 0.94408 0.0
H721 H 0.90545 0.3988 0.95174 0.0
H722 H 0.84204 0.42871 0.81397 0.0
H723 H 0.83758 0.38094 0.00909 0.0
C724 C 0.80667 0.39726 0.03517 0.0
C725 C 0.79199 0.41509 0.0201 0.0
C726 C 0.85596 0.42183 0.84346 0.0
C727 C 0.82993 0.40817 0.93721 0.0
C728 C 0.87781 0.42678 0.82247 0.0
C729 C 0.89614 0.41918 0.86213 0.0
C730 C 0.85239 0.40918 0.90449 0.0
C731 C 0.89187 0.40515 0.9198 0.0
C732 C 0.82568 0.3938 0.99401 0.0
C733 C 0.79561 0.42744 0.95836 0.0
N734 N 0.87041 0.40089 0.9399 0.0
N735 N 0.81445 0.42404 0.91998 0.0
H736 H 0.98836 0.18142 0.85495 0.0
H737 H 0.04347 0.05908 0.8139 0.0
H738 H 0.05489 0.16398 0.92561 0.0
H739 H 0.97692 0.07536 0.74072 0.0
H740 H 0.04785 0.09769 0.85375 0.0
H741 H 0.98368 0.143 0.81184 0.0
C742 C 1.002 0.1696 0.86136 0.0
C743 C 0.02213 0.17619 0.89361 0.0
C744 C 0.03227 0.09286 0.82897 0.0
C745 C 0.01687 0.13203 0.8442 0.0
C746 C 0.02974 0.07073 0.80616 0.0
C747 C 0.00976 0.06379 0.77394 0.0
C748 C 0.0147 0.10834 0.8197 0.0
C749 C 0.99262 0.07982 0.76543 0.0
C750 C 0.99934 0.14765 0.83649 0.0
C751 C 0.03923 0.16001 0.89989 0.0
N752 N 0.99547 0.10127 0.78815 0.0
N753 N 0.03619 0.13882 0.87565 0.0
H754 H 0.33456 0.05034 0.92949 0.0
H755 H 0.42653 0.96727 0.76742 0.0
H756 H 0.32478 0.97917 0.90422 0.0
H757 H 0.43725 0.03852 0.78781 0.0
H758 H 0.38865 0.97192 0.8133 0.0
H759 H 0.371 0.04711 0.87086 0.0
C760 C 0.33987 0.0341 0.91062 0.0
C761 C 0.32656 0.01497 0.92241 0.0
C762 C 0.39918 0.9866 0.80721 0.0
C763 C 0.36855 0.01109 0.85617 0.0
C764 C 0.42091 0.98395 0.78106 0.0
C765 C 0.43525 1.00252 0.77367 0.0
C766 C 0.39145 0.008 0.82584 0.0
C767 C 0.42688 0.02369 0.79268 0.0
C768 C 0.3608 0.03224 0.87767 0.0
C769 C 0.33456 0.99433 0.89743 0.0
N770 N 0.40557 0.02585 0.81789 0.0
N771 N 0.35499 0.99293 0.86602 0.0
H772 H 0.51171 0.31363 0.84132 0.0
H773 H 0.4635 0.43875 0.86537 0.0
H774 H 0.45807 0.33299 0.98 0.0
H775 H 0.51088 0.41788 0.70782 0.0
H776 H 0.46099 0.39998 0.90664 0.0
H777 H 0.51118 0.35133 0.78986 0.0
C778 C 0.49969 0.32574 0.86062 0.0
C779 C 0.48494 0.32004 0.91532 0.0
C780 C 0.47185 0.40383 0.86278 0.0
C781 C 0.48435 0.36343 0.85675 0.0
C782 C 0.47333 0.42604 0.83921 0.0
C783 C 0.48743 0.43171 0.78293 0.0
C784 C 0.48469 0.38706 0.8304 0.0
C785 C 0.49971 0.41437 0.75117 0.0
C786 C 0.49938 0.34727 0.8311 0.0
C787 C 0.4696 0.33644 0.93755 0.0
N788 N 0.49815 0.39291 0.77557 0.0
N789 N 0.46985 0.35737 0.90871 0.0
H790 H 0.19075 0.5214 0.80331 0.0
H791 H 0.06269 0.48212 0.84603 0.0
H792 H 0.16434 0.48999 0.98972 0.0
H793 H 0.0877 0.51733 0.66423 0.0
H794 H 0.10046 0.48216 0.8951 0.0
H795 H 0.15409 0.51715 0.74755 0.0
C796 C 0.17731 0.51347 0.83251 0.0
C797 C 0.18075 0.50621 0.90179 0.0
C798 C 0.09774 0.4898 0.84434 0.0
C799 C 0.13851 0.50123 0.83772 0.0
C800 C 0.0761 0.4898 0.81609 0.0
C801 C 0.07182 0.49982 0.75072 0.0
C802 C 0.11545 0.4999 0.80724 0.0
C803 C 0.09007 0.50943 0.71475 0.0
C804 C 0.15635 0.51102 0.80046 0.0
C805 C 0.16269 0.4957 0.93619 0.0
N806 N 0.111 0.5093 0.74353 0.0
N807 N 0.14239 0.4937 0.90408 0.0
H808 H 0.96838 0.83556 0.40921 0.0
H809 H 0.02108 0.91585 0.70197 0.0
H810 H 0.02368 0.81591 0.54144 0.0
H811 H 0.97141 0.93698 0.5513 0.0
H812 H 0.01963 0.87796 0.65308 0.0
H813 H 0.96649 0.87136 0.4703 0.0
C814 C 0.98007 0.83869 0.45136 0.0
C815 C 0.99635 0.82265 0.46958 0.0
C816 C 0.00897 0.89087 0.63103 0.0
C817 C 0.99424 0.86384 0.54027 0.0
C818 C 0.00974 0.91253 0.65904 0.0
C819 C 0.9964 0.92976 0.63065 0.0
C820 C 0.99469 0.88631 0.57437 0.0
C821 C 0.98211 0.92437 0.5748 0.0
C822 C 0.97896 0.85917 0.48637 0.0
C823 C 0.01074 0.82761 0.52571 0.0
N824 N 0.98168 0.90321 0.54855 0.0
N825 N 0.00946 0.8478 0.55861 0.0
H826 H 0.68483 0.01769 0.56762 0.0
H827 H 0.56138 0.96541 0.54172 0.0
H828 H 0.66504 0.97041 0.40932 0.0
H829 H 0.5824 0.00992 0.70649 0.0
H830 H 0.59974 0.96531 0.49648 0.0
H831 H 0.64822 0.01309 0.62359 0.0
C832 C 0.67285 0.00617 0.54495 0.0
C833 C 0.67803 0.99454 0.4833 0.0
C834 C 0.59601 0.97498 0.54281 0.0
C835 C 0.63586 0.98925 0.54711 0.0
C836 C 0.57405 0.97508 0.5687 0.0
C837 C 0.56853 0.98774 0.62805 0.0
C838 C 0.61266 0.98773 0.57609 0.0
C839 C 0.58579 0.99987 0.6607 0.0
C840 C 0.65193 1.00353 0.57701 0.0
C841 C 0.6619 0.97962 0.45694 0.0
N842 N 0.60698 0.99967 0.63409 0.0
N843 N 0.6415 0.97759 0.48853 0.0
H844 H 0.47398 0.6824 0.57259 0.0
H845 H 0.53682 0.5643 0.61571 0.0
H846 H 0.53902 0.66853 0.48327 0.0
H847 H 0.47109 0.57833 0.69983 0.0
H848 H 0.53917 0.60305 0.57383 0.0
H849 H 0.47418 0.64542 0.6274 0.0
C850 C 0.48853 0.67178 0.56537 0.0
C851 C 0.50654 0.67879 0.52302 0.0
C852 C 0.52428 0.59768 0.60171 0.0
C853 C 0.50658 0.63585 0.58486 0.0
C854 C 0.52291 0.57551 0.62577 0.0
C855 C 0.50365 0.56787 0.66115 0.0
C856 C 0.50628 0.61245 0.61302 0.0
C857 C 0.48623 0.58332 0.67255 0.0
C858 C 0.4885 0.65049 0.59626 0.0
C859 C 0.52462 0.66386 0.51466 0.0
N860 N 0.48793 0.60477 0.64839 0.0
N861 N 0.52413 0.64313 0.54495 0.0
H862 H 0.81761 0.4862 0.58031 0.0
H863 H 0.94089 0.53934 0.54591 0.0
H864 H 0.83607 0.53337 0.41828 0.0
H865 H 0.92515 0.48215 0.67627 0.0
H866 H 0.90158 0.54089 0.50889 0.0
H867 H 0.85572 0.48831 0.62664 0.0
C868 C 0.82959 0.49711 0.55453 0.0
C869 C 0.82349 0.50943 0.49455 0.0
C870 C 0.90673 0.52806 0.54579 0.0
C871 C 0.86741 0.51205 0.54818 0.0
C872 C 0.9292 0.52717 0.56712 0.0
C873 C 0.9365 0.51051 0.61416 0.0
C874 C 0.89128 0.51231 0.57202 0.0
C875 C 0.92044 0.49523 0.63967 0.0
C876 C 0.85141 0.49832 0.58121 0.0
C877 C 0.83979 0.52366 0.46478 0.0
N878 N 0.89868 0.4965 0.61831 0.0
N879 N 0.86098 0.52445 0.49155 0.0
loop_
_geom_bond_atom_site_label_1
_geom_bond_atom_site_label_2
_geom_bond_distance
_geom_bond_site_symmetry_2
_ccdc_geom_bond_type
C0 C1 1.384 . S
C0 H13 0.947 . S
C0 C35 1.382 . S
C1 C0 1.384 . S
C1 C2 1.378 . S
C2 C1 1.378 . S
C2 C3 1.378 . S
C2 H14 0.952 . S
C3 C2 1.378 . S
C3 H15 0.950 . S
C3 C34 1.383 . S
H4 C23 0.947 . S
H5 C24 0.946 . S
H6 C26 0.953 . S
H7 C27 0.945 . S
H8 C29 0.952 . S
H9 C30 0.949 . S
H10 C32 0.950 . S
H11 C33 0.948 . S
H12 C35 0.951 . S
H13 C0 0.947 . S
H14 C2 0.952 . S
H15 C3 0.950 . S
N16 C19 1.382 . S
N16 C21 1.363 . S
N17 C19 1.371 . S
N17 C20 1.372 . S
N18 C20 1.361 . S
N18 C21 1.377 . S
C19 N16 1.382 . S
C19 N17 1.371 . S
C19 C22 1.480 . S
C20 N17 1.372 . S
C20 N18 1.361 . S
C20 C28 1.457 . S
C21 N16 1.363 . S
C21 N18 1.377 . S
C21 C34 1.479 . S
C22 C19 1.480 . S
C22 C23 1.383 . S
C22 C27 1.385 . S
C23 H4 0.947 . S
C23 C22 1.383 . S
C23 C24 1.388 . S
C24 H5 0.946 . S
C24 C23 1.388 . S
C24 C25 1.384 . S
C25 C24 1.384 . S
C25 C26 1.377 . S
C26 H6 0.953 . S
C26 C25 1.377 . S
C26 C27 1.369 . S
C27 H7 0.945 . S
C27 C22 1.385 . S
C27 C26 1.369 . S
C28 C20 1.457 . S
C28 C29 1.372 . S
C28 C33 1.364 . S
C29 H8 0.952 . S
C29 C28 1.372 . S
C29 C30 1.389 . S
C30 H9 0.949 . S
C30 C29 1.389 . S
C30 C31 1.387 . S
C31 C30 1.387 . S
C31 C32 1.372 . S
C32 H10 0.950 . S
C32 C31 1.372 . S
C32 C33 1.379 . S
C33 H11 0.948 . S
C33 C28 1.364 . S
C33 C32 1.379 . S
C34 C3 1.383 . S
C34 C21 1.479 . S
C34 C35 1.398 . S
C35 C0 1.382 . S
C35 H12 0.951 . S
C35 C34 1.398 . S
C36 C37 1.384 1_655 S
C36 H49 0.948 . S
C36 C71 1.382 1_655 S
C37 C36 1.384 1_455 S
C37 C38 1.378 . S
C38 C37 1.378 . S
C38 C39 1.378 . S
C38 H50 0.952 . S
C39 C38 1.378 . S
C39 H51 0.950 . S
C39 C70 1.383 . S
H40 C59 0.947 . S
H41 C60 0.952 . S
H42 C62 0.953 . S
H43 C63 0.945 . S
H44 C65 0.949 1_655 S
H45 C66 0.956 . S
H46 C68 0.950 . S
H47 C69 0.948 . S
H48 C71 0.951 1_655 S
H49 C36 0.948 . S
H50 C38 0.952 . S
H51 C39 0.950 . S
N52 C55 1.382 . S
N52 C57 1.363 . S
N53 C55 1.371 . S
N53 C56 1.372 . S
N54 C56 1.361 . S
N54 C57 1.377 . S
C55 N52 1.382 . S
C55 N53 1.371 . S
C55 C58 1.480 . S
C56 N53 1.372 . S
C56 N54 1.361 . S
C56 C64 1.457 . S
C57 N52 1.363 . S
C57 N54 1.377 . S
C57 C70 1.479 . S
C58 C55 1.480 . S
C58 C59 1.383 . S
C58 C63 1.385 . S
C59 H40 0.947 . S
C59 C58 1.383 . S
C59 C60 1.386 1_455 S
C60 H41 0.952 . S
C60 C59 1.386 1_655 S
C60 C61 1.381 1_655 S
C61 C60 1.381 1_455 S
C61 C62 1.377 . S
C62 H42 0.953 . S
C62 C61 1.377 . S
C62 C63 1.369 . S
C63 H43 0.945 . S
C63 C58 1.385 . S
C63 C62 1.369 . S
C64 C56 1.457 . S
C64 C65 1.376 . S
C64 C69 1.364 . S
C65 H44 0.949 1_455 S
C65 C64 1.376 . S
C65 C66 1.386 1_455 S
C66 H45 0.956 . S
C66 C65 1.386 1_655 S
C66 C67 1.383 1_655 S
C67 C66 1.383 1_455 S
C67 C68 1.372 . S
C68 H46 0.950 . S
C68 C67 1.372 . S
C68 C69 1.379 . S
C69 H47 0.948 . S
C69 C64 1.364 . S
C69 C68 1.379 . S
C70 C39 1.383 . S
C70 C57 1.479 . S
C70 C71 1.398 . S
C71 C36 1.382 1_455 S
C71 H48 0.951 1_455 S
C71 C70 1.398 . S
C72 C73 1.384 1_565 S
C72 H85 0.948 . S
C72 C107 1.382 1_565 S
C73 C72 1.384 1_545 S
C73 C74 1.378 . S
C74 C73 1.378 . S
C74 C75 1.378 . S
C74 H86 0.952 . S
C75 C74 1.378 . S
C75 H87 0.950 . S
C75 C106 1.383 . S
H76 C95 0.947 . S
H77 C96 0.952 . S
H78 C98 0.953 . S
H79 C99 0.945 . S
H80 C101 0.949 1_565 S
H81 C102 0.957 . S
H82 C104 0.950 . S
H83 C105 0.948 . S
H84 C107 0.951 1_565 S
H85 C72 0.948 . S
H86 C74 0.952 . S
H87 C75 0.950 . S
N88 C91 1.382 . S
N88 C93 1.363 . S
N89 C91 1.371 . S
N89 C92 1.372 . S
N90 C92 1.361 . S
N90 C93 1.377 . S
C91 N88 1.382 . S
C91 N89 1.371 . S
C91 C94 1.480 . S
C92 N89 1.372 . S
C92 N90 1.361 . S
C92 C100 1.457 . S
C93 N88 1.363 . S
C93 N90 1.377 . S
C93 C106 1.479 . S
C94 C91 1.480 . S
C94 C95 1.383 . S
C94 C99 1.385 . S
C95 H76 0.947 . S
C95 C94 1.383 . S
C95 C96 1.386 1_545 S
C96 H77 0.952 . S
C96 C95 1.386 1_565 S
C96 C97 1.382 1_565 S
C97 C96 1.382 1_545 S
C97 C98 1.377 . S
C98 H78 0.953 . S
C98 C97 1.377 . S
C98 C99 1.369 . S
C99 H79 0.945 . S
C99 C94 1.385 . S
C99 C98 1.369 . S
C100 C92 1.457 . S
C100 C101 1.376 . S
C100 C105 1.364 . S
C101 H80 0.949 1_545 S
C101 C100 1.376 . S
C101 C102 1.386 1_545 S
C102 H81 0.957 . S
C102 C101 1.386 1_565 S
C102 C103 1.383 1_565 S
C103 C102 1.383 1_545 S
C103 C104 1.372 . S
C104 H82 0.950 . S
C104 C103 1.372 . S
C104 C105 1.379 . S
C105 H83 0.948 . S
C105 C100 1.364 . S
C105 C104 1.379 . S
C106 C75 1.383 . S
C106 C93 1.479 . S
C106 C107 1.398 . S
C107 C72 1.382 1_545 S
C107 H84 0.951 1_545 S
C107 C106 1.398 . S
C108 C109 1.384 . S
C108 H121 0.947 . S
C108 C143 1.382 . S
C109 C108 1.384 . S
C109 C110 1.378 . S
C110 C109 1.378 . S
C110 C111 1.378 . S
C110 H122 0.952 . S
C111 C110 1.378 . S
C111 H123 0.950 . S
C111 C142 1.383 . S
H112 C131 0.947 . S
H113 C132 0.946 . S
H114 C134 0.953 . S
H115 C135 0.945 . S
H116 C137 0.952 . S
H117 C138 0.949 . S
H118 C140 0.950 . S
H119 C141 0.948 . S
H120 C143 0.951 . S
H121 C108 0.947 . S
H122 C110 0.952 . S
H123 C111 0.950 . S
N124 C127 1.382 . S
N124 C129 1.363 . S
N125 C127 1.371 . S
N125 C128 1.372 . S
N126 C128 1.361 . S
N126 C129 1.377 . S
C127 N124 1.382 . S
C127 N125 1.371 . S
C127 C130 1.480 . S
C128 N125 1.372 . S
C128 N126 1.361 . S
C128 C136 1.457 . S
C129 N124 1.363 . S
C129 N126 1.377 . S
C129 C142 1.479 . S
C130 C127 1.480 . S
C130 C131 1.383 . S
C130 C135 1.385 . S
C131 H112 0.947 . S
C131 C130 1.383 . S
C131 C132 1.388 . S
C132 H113 0.946 . S
C132 C131 1.388 . S
C132 C133 1.384 . S
C133 C132 1.384 . S
C133 C134 1.377 . S
C134 H114 0.953 . S
C134 C133 1.377 . S
C134 C135 1.369 . S
C135 H115 0.945 . S
C135 C130 1.385 . S
C135 C134 1.369 . S
C136 C128 1.457 . S
C136 C137 1.372 . S
C136 C141 1.364 . S
C137 H116 0.952 . S
C137 C136 1.372 . S
C137 C138 1.389 . S
C138 H117 0.949 . S
C138 C137 1.389 . S
C138 C139 1.387 . S
C139 C138 1.387 . S
C139 C140 1.372 . S
C140 H118 0.950 . S
C140 C139 1.372 . S
C140 C141 1.379 . S
C141 H119 0.948 . S
C141 C136 1.364 . S
C141 C140 1.379 . S
C142 C111 1.383 . S
C142 C129 1.479 . S
C142 C143 1.398 . S
C143 C108 1.382 . S
C143 H120 0.951 . S
C143 C142 1.398 . S
C144 C145 1.384 . S
C144 H157 0.947 . S
C144 C179 1.382 . S
C145 C144 1.384 . S
C145 C146 1.378 . S
C146 C145 1.378 . S
C146 C147 1.378 . S
C146 H158 0.952 . S
C147 C146 1.378 . S
C147 H159 0.950 . S
C147 C178 1.383 . S
H148 C167 0.947 1_556 S
H149 C168 0.946 . S
H150 C170 0.953 . S
H151 C171 0.945 . S
H152 C173 0.952 . S
H153 C174 0.949 . S
H154 C176 0.950 . S
H155 C177 0.948 . S
H156 C179 0.951 . S
H157 C144 0.947 . S
H158 C146 0.952 . S
H159 C147 0.950 . S
N160 C163 1.382 . S
N160 C165 1.363 1_554 S
N161 C163 1.371 . S
N161 C164 1.372 . S
N162 C164 1.361 . S
N162 C165 1.377 1_554 S
C163 N160 1.382 . S
C163 N161 1.371 . S
C163 C166 1.480 . S
C164 N161 1.372 . S
C164 N162 1.361 . S
C164 C172 1.457 . S
C165 N160 1.363 1_556 S
C165 N162 1.377 1_556 S
C165 C178 1.479 . S
C166 C163 1.480 . S
C166 C167 1.383 . S
C166 C171 1.385 . S
C167 H148 0.947 1_554 S
C167 C166 1.383 . S
C167 C168 1.388 . S
C168 H149 0.946 . S
C168 C167 1.388 . S
C168 C169 1.384 . S
C169 C168 1.384 . S
C169 C170 1.377 . S
C170 H150 0.953 . S
C170 C169 1.377 . S
C170 C171 1.369 . S
C171 H151 0.945 . S
C171 C166 1.385 . S
C171 C170 1.369 . S
C172 C164 1.457 . S
C172 C173 1.372 . S
C172 C177 1.364 . S
C173 H152 0.952 . S
C173 C172 1.372 . S
C173 C174 1.389 . S
C174 H153 0.949 . S
C174 C173 1.389 . S
C174 C175 1.387 . S
C175 C174 1.387 . S
C175 C176 1.372 . S
C176 H154 0.950 . S
C176 C175 1.372 . S
C176 C177 1.379 . S
C177 H155 0.948 . S
C177 C172 1.364 . S
C177 C176 1.379 . S
C178 C147 1.383 . S
C178 C165 1.479 . S
C178 C179 1.398 . S
C179 C144 1.382 . S
C179 H156 0.951 . S
C179 C178 1.398 . S
C180 C181 1.384 . S
C180 H193 0.948 1_455 S
C180 C215 1.382 . S
C181 C180 1.384 . S
C181 C182 1.378 . S
C182 C181 1.378 . S
C182 C183 1.378 . S
C182 H194 0.952 . S
C183 C182 1.378 . S
C183 H195 0.950 . S
C183 C214 1.383 . S
H184 C203 0.947 1_556 S
H185 C204 0.949 . S
H186 C206 0.953 . S
H187 C207 0.945 . S
H188 C209 0.947 1_655 S
H189 C210 0.954 . S
H190 C212 0.950 . S
H191 C213 0.948 . S
H192 C215 0.950 1_655 S
H193 C180 0.948 1_655 S
H194 C182 0.952 . S
H195 C183 0.950 . S
N196 C199 1.382 . S
N196 C201 1.363 1_554 S
N197 C199 1.371 . S
N197 C200 1.372 . S
N198 C200 1.361 . S
N198 C201 1.377 1_554 S
C199 N196 1.382 . S
C199 N197 1.371 . S
C199 C202 1.480 . S
C200 N197 1.372 . S
C200 N198 1.361 . S
C200 C208 1.457 . S
C201 N196 1.363 1_556 S
C201 N198 1.377 1_556 S
C201 C214 1.479 . S
C202 C199 1.480 . S
C202 C203 1.383 . S
C202 C207 1.385 . S
C203 H184 0.947 1_554 S
C203 C202 1.383 . S
C203 C204 1.387 1_455 S
C204 H185 0.949 . S
C204 C203 1.387 1_655 S
C204 C205 1.382 1_655 S
C205 C204 1.382 1_455 S
C205 C206 1.377 . S
C206 H186 0.953 . S
C206 C205 1.377 . S
C206 C207 1.369 . S
C207 H187 0.945 . S
C207 C202 1.385 . S
C207 C206 1.369 . S
C208 C200 1.457 . S
C208 C209 1.379 . S
C208 C213 1.364 . S
C209 H188 0.947 1_455 S
C209 C208 1.379 . S
C209 C210 1.387 1_455 S
C210 H189 0.954 . S
C210 C209 1.387 1_655 S
C210 C211 1.384 1_655 S
C211 C210 1.384 1_455 S
C211 C212 1.372 . S
C212 H190 0.950 . S
C212 C211 1.372 . S
C212 C213 1.379 . S
C213 H191 0.948 . S
C213 C208 1.364 . S
C213 C212 1.379 . S
C214 C183 1.383 . S
C214 C201 1.479 . S
C214 C215 1.399 . S
C215 C180 1.382 . S
C215 H192 0.950 1_455 S
C215 C214 1.399 . S
C216 C217 1.384 . S
C216 H229 0.948 1_545 S
C216 C251 1.382 . S
C217 C216 1.384 . S
C217 C218 1.378 . S
C218 C217 1.378 . S
C218 C219 1.378 . S
C218 H230 0.952 . S
C219 C218 1.378 . S
C219 H231 0.950 . S
C219 C250 1.383 . S
H220 C239 0.947 1_556 S
H221 C240 0.949 . S
H222 C242 0.953 . S
H223 C243 0.945 . S
H224 C245 0.947 1_565 S
H225 C246 0.954 . S
H226 C248 0.950 . S
H227 C249 0.948 . S
H228 C251 0.950 1_565 S
H229 C216 0.948 1_565 S
H230 C218 0.952 . S
H231 C219 0.950 . S
N232 C235 1.382 . S
N232 C237 1.363 1_554 S
N233 C235 1.371 . S
N233 C236 1.372 . S
N234 C236 1.361 . S
N234 C237 1.377 1_554 S
C235 N232 1.382 . S
C235 N233 1.371 . S
C235 C238 1.480 . S
C236 N233 1.372 . S
C236 N234 1.361 . S
C236 C244 1.457 . S
C237 N232 1.363 1_556 S
C237 N234 1.377 1_556 S
C237 C250 1.479 . S
C238 C235 1.480 . S
C238 C239 1.383 . S
C238 C243 1.385 . S
C239 H220 0.947 1_554 S
C239 C238 1.383 . S
C239 C240 1.387 1_545 S
C240 H221 0.949 . S
C240 C239 1.387 1_565 S
C240 C241 1.382 1_565 S
C241 C240 1.382 1_545 S
C241 C242 1.377 . S
C242 H222 0.953 . S
C242 C241 1.377 . S
C242 C243 1.369 . S
C243 H223 0.945 . S
C243 C238 1.385 . S
C243 C242 1.369 . S
C244 C236 1.457 . S
C244 C245 1.379 . S
C244 C249 1.364 . S
C245 H224 0.947 1_545 S
C245 C244 1.379 . S
C245 C246 1.387 1_545 S
C246 H225 0.954 . S
C246 C245 1.387 1_565 S
C246 C247 1.384 1_565 S
C247 C246 1.384 1_545 S
C247 C248 1.372 . S
C248 H226 0.950 . S
C248 C247 1.372 . S
C248 C249 1.379 . S
C249 H227 0.948 . S
C249 C244 1.364 . S
C249 C248 1.379 . S
C250 C219 1.383 . S
C250 C237 1.479 . S
C250 C251 1.399 . S
C251 C216 1.382 . S
C251 H228 0.950 1_545 S
C251 C250 1.399 . S
C252 C253 1.384 . S
C252 H265 0.947 . S
C252 C287 1.382 . S
C253 C252 1.384 . S
C253 C254 1.378 . S
C254 C253 1.378 . S
C254 C255 1.378 . S
C254 H266 0.952 . S
C255 C254 1.378 . S
C255 H267 0.950 . S
C255 C286 1.383 . S
H256 C275 0.947 . S
H257 C276 0.946 . S
H258 C278 0.953 . S
H259 C279 0.945 1_556 S
H260 C281 0.952 . S
H261 C282 0.949 . S
H262 C284 0.950 . S
H263 C285 0.948 . S
H264 C287 0.951 . S
H265 C252 0.947 . S
H266 C254 0.952 . S
H267 C255 0.950 . S
N268 C271 1.382 . S
N268 C273 1.363 . S
N269 C271 1.371 1_556 S
N269 C272 1.372 . S
N270 C272 1.361 1_554 S
N270 C273 1.377 . S
C271 N268 1.382 . S
C271 N269 1.371 1_554 S
C271 C274 1.480 . S
C272 N269 1.372 . S
C272 N270 1.361 1_556 S
C272 C280 1.457 . S
C273 N268 1.363 . S
C273 N270 1.377 . S
C273 C286 1.479 . S
C274 C271 1.480 . S
C274 C275 1.383 . S
C274 C279 1.385 . S
C275 H256 0.947 . S
C275 C274 1.383 . S
C275 C276 1.388 . S
C276 H257 0.946 . S
C276 C275 1.388 . S
C276 C277 1.384 . S
C277 C276 1.384 . S
C277 C278 1.377 . S
C278 H258 0.953 . S
C278 C277 1.377 . S
C278 C279 1.369 . S
C279 H259 0.945 1_554 S
C279 C274 1.385 . S
C279 C278 1.369 . S
C280 C272 1.457 . S
C280 C281 1.372 . S
C280 C285 1.364 . S
C281 H260 0.952 . S
C281 C280 1.372 . S
C281 C282 1.389 . S
C282 H261 0.949 . S
C282 C281 1.389 . S
C282 C283 1.387 . S
C283 C282 1.387 . S
C283 C284 1.372 . S
C284 H262 0.950 . S
C284 C283 1.372 . S
C284 C285 1.379 . S
C285 H263 0.948 . S
C285 C280 1.364 . S
C285 C284 1.379 . S
C286 C255 1.383 . S
C286 C273 1.479 . S
C286 C287 1.398 . S
C287 C252 1.382 . S
C287 H264 0.951 . S
C287 C286 1.398 . S
Tb288 C298 2.825 . S
Tb288 O299 2.347 1_455 S
Tb288 O302 2.366 . S
Tb288 O307 2.418 . S
Tb288 O308 2.384 1_565 S
Tb288 O311 2.479 . S
Tb288 O312 2.471 . S
Eu289 O300 2.418 . S
Eu289 O301 2.384 1_545 S
Eu289 O304 2.479 . S
Eu289 O305 2.471 . S
Eu289 O306 2.347 1_655 S
Eu289 O309 2.366 . S
Eu289 C319 2.825 . S
C290 O306 1.259 1_565 S
C290 O307 1.265 . S
C291 O308 1.255 . S
C291 O309 1.265 1_455 S
C292 C294 1.380 . S
C292 C295 1.374 . S
C292 C298 1.507 . S
C293 C294 1.384 . S
C293 C297 1.387 . S
C293 H320 0.930 . S
C294 C292 1.380 . S
C294 C293 1.384 . S
C294 H321 0.931 . S
C295 C292 1.374 . S
C295 C296 1.390 . S
C295 H322 0.930 1_455 S
C296 C295 1.390 . S
C296 C297 1.391 . S
C296 H323 0.930 1_455 S
C297 C293 1.387 . S
C297 C296 1.391 . S
C298 Tb288 2.825 . S
C298 C292 1.507 . S
C298 O311 1.238 . S
C298 O312 1.247 . S
O299 Tb288 2.347 1_655 S
O299 C303 1.259 1_565 S
O300 Eu289 2.418 . S
O300 C303 1.265 . S
O301 Eu289 2.384 1_565 S
O301 C310 1.255 . S
O302 Tb288 2.366 . S
O302 C310 1.265 1_455 S
C303 O299 1.259 1_545 S
C303 O300 1.265 . S
O304 Eu289 2.479 . S
O304 C319 1.238 . S
O305 Eu289 2.471 . S
O305 C319 1.247 . S
O306 Eu289 2.347 1_455 S
O306 C290 1.259 1_545 S
O307 Tb288 2.418 . S
O307 C290 1.265 . S
O308 Tb288 2.384 1_545 S
O308 C291 1.255 . S
O309 Eu289 2.366 . S
O309 C291 1.265 1_655 S
C310 O301 1.255 . S
C310 O302 1.265 1_655 S
O311 Tb288 2.479 . S
O311 C298 1.238 . S
O312 Tb288 2.471 . S
O312 C298 1.247 . S
C313 C316 1.380 . S
C313 C317 1.374 . S
C313 C319 1.507 . S
C314 C315 1.387 . S
C314 C318 1.391 . S
C315 C314 1.387 . S
C315 C316 1.384 . S
C315 H324 0.930 . S
C316 C313 1.380 . S
C316 C315 1.384 . S
C316 H325 0.931 . S
C317 C313 1.374 . S
C317 C318 1.390 . S
C317 H326 0.930 1_655 S
C318 C314 1.391 . S
C318 C317 1.390 . S
C318 H327 0.930 1_655 S
C319 Eu289 2.825 . S
C319 O304 1.238 . S
C319 O305 1.247 . S
C319 C313 1.507 . S
H320 C293 0.930 . S
H321 C294 0.931 . S
H322 C295 0.930 1_655 S
H323 C296 0.930 1_655 S
H324 C315 0.930 . S
H325 C316 0.931 . S
H326 C317 0.930 1_455 S
H327 C318 0.930 1_455 S
Tb328 C338 2.825 . S
Tb328 O339 2.347 1_545 S
Tb328 O342 2.366 . S
Tb328 O347 2.418 . S
Tb328 O348 2.384 . S
Tb328 O351 2.479 . S
Tb328 O352 2.471 . S
Eu329 O340 2.418 . S
Eu329 O341 2.384 . S
Eu329 O344 2.479 . S
Eu329 O345 2.471 . S
Eu329 O346 2.347 1_565 S
Eu329 O349 2.366 . S
Eu329 C359 2.825 . S
C330 O346 1.259 . S
C330 O347 1.265 . S
C331 O348 1.255 . S
C331 O349 1.265 1_545 S
C332 C334 1.380 . S
C332 C335 1.374 . S
C332 C338 1.507 . S
C333 C334 1.384 . S
C333 C337 1.387 . S
C333 H360 0.930 . S
C334 C332 1.380 . S
C334 C333 1.384 . S
C334 H361 0.931 . S
C335 C332 1.374 . S
C335 C336 1.390 . S
C335 H362 0.930 1_545 S
C336 C335 1.390 . S
C336 C337 1.391 . S
C336 H363 0.930 1_545 S
C337 C333 1.387 . S
C337 C336 1.391 . S
C338 Tb328 2.825 . S
C338 C332 1.507 . S
C338 O351 1.238 . S
C338 O352 1.247 . S
O339 Tb328 2.347 1_565 S
O339 C343 1.259 . S
O340 Eu329 2.418 . S
O340 C343 1.265 . S
O341 Eu329 2.384 . S
O341 C350 1.255 . S
O342 Tb328 2.366 . S
O342 C350 1.265 1_545 S
C343 O339 1.259 . S
C343 O340 1.265 . S
O344 Eu329 2.479 . S
O344 C359 1.238 . S
O345 Eu329 2.471 . S
O345 C359 1.247 . S
O346 Eu329 2.347 1_545 S
O346 C330 1.259 . S
O347 Tb328 2.418 . S
O347 C330 1.265 . S
O348 Tb328 2.384 . S
O348 C331 1.255 . S
O349 Eu329 2.366 . S
O349 C331 1.265 1_565 S
C350 O341 1.255 . S
C350 O342 1.265 1_565 S
O351 Tb328 2.479 . S
O351 C338 1.238 . S
O352 Tb328 2.471 . S
O352 C338 1.247 . S
C353 C356 1.380 . S
C353 C357 1.374 . S
C353 C359 1.507 . S
C354 C355 1.387 . S
C354 C358 1.391 . S
C355 C354 1.387 . S
C355 C356 1.384 . S
C355 H364 0.930 . S
C356 C353 1.380 . S
C356 C355 1.384 . S
C356 H365 0.931 . S
C357 C353 1.374 . S
C357 C358 1.390 . S
C357 H366 0.930 1_565 S
C358 C354 1.391 . S
C358 C357 1.390 . S
C358 H367 0.930 1_565 S
C359 Eu329 2.825 . S
C359 O344 1.238 . S
C359 O345 1.247 . S
C359 C353 1.507 . S
H360 C333 0.930 . S
H361 C334 0.931 . S
H362 C335 0.930 1_565 S
H363 C336 0.930 1_565 S
H364 C355 0.930 . S
H365 C356 0.931 . S
H366 C357 0.930 1_545 S
H367 C358 0.930 1_545 S
Tb368 C378 2.825 . S
Tb368 O379 2.347 . S
Tb368 O382 2.366 . S
Tb368 O387 2.418 . S
Tb368 O388 2.384 . S
Tb368 O391 2.479 . S
Tb368 O392 2.471 . S
Eu369 O380 2.418 . S
Eu369 O381 2.384 . S
Eu369 O384 2.479 . S
Eu369 O385 2.471 . S
Eu369 O386 2.347 . S
Eu369 O389 2.366 . S
Eu369 C399 2.825 . S
C370 O386 1.259 . S
C370 O387 1.265 . S
C371 O388 1.255 . S
C371 O389 1.265 . S
C372 C374 1.380 . S
C372 C375 1.374 . S
C372 C378 1.507 . S
C373 C374 1.384 . S
C373 C377 1.387 . S
C373 H400 0.930 . S
C374 C372 1.380 . S
C374 C373 1.384 . S
C374 H401 0.931 . S
C375 C372 1.374 . S
C375 C376 1.390 . S
C375 H402 0.930 . S
C376 C375 1.390 . S
C376 C377 1.391 . S
C376 H403 0.930 . S
C377 C373 1.387 . S
C377 C376 1.391 . S
C378 Tb368 2.825 . S
C378 C372 1.507 . S
C378 O391 1.238 . S
C378 O392 1.247 . S
O379 Tb368 2.347 . S
O379 C383 1.259 . S
O380 Eu369 2.418 . S
O380 C383 1.265 . S
O381 Eu369 2.384 . S
O381 C390 1.255 . S
O382 Tb368 2.366 . S
O382 C390 1.265 . S
C383 O379 1.259 . S
C383 O380 1.265 . S
O384 Eu369 2.479 . S
O384 C399 1.238 . S
O385 Eu369 2.471 . S
O385 C399 1.247 . S
O386 Eu369 2.347 . S
O386 C370 1.259 . S
O387 Tb368 2.418 . S
O387 C370 1.265 . S
O388 Tb368 2.384 . S
O388 C371 1.255 . S
O389 Eu369 2.366 . S
O389 C371 1.265 . S
C390 O381 1.255 . S
C390 O382 1.265 . S
O391 Tb368 2.479 . S
O391 C378 1.238 . S
O392 Tb368 2.471 . S
O392 C378 1.247 . S
C393 C396 1.380 . S
C393 C397 1.374 . S
C393 C399 1.507 . S
C394 C395 1.387 . S
C394 C398 1.391 . S
C395 C394 1.387 . S
C395 C396 1.384 . S
C395 H404 0.930 . S
C396 C393 1.380 . S
C396 C395 1.384 . S
C396 H405 0.931 . S
C397 C393 1.374 . S
C397 C398 1.390 . S
C397 H406 0.930 . S
C398 C394 1.391 . S
C398 C397 1.390 . S
C398 H407 0.930 . S
C399 Eu369 2.825 . S
C399 O384 1.238 . S
C399 O385 1.247 . S
C399 C393 1.507 . S
H400 C373 0.930 . S
H401 C374 0.931 . S
H402 C375 0.930 . S
H403 C376 0.930 . S
H404 C395 0.930 . S
H405 C396 0.931 . S
H406 C397 0.930 . S
H407 C398 0.930 . S
Tb408 C418 2.825 . S
Tb408 O419 2.347 . S
Tb408 O422 2.366 . S
Tb408 O427 2.418 . S
Tb408 O428 2.384 1_655 S
Tb408 O431 2.479 . S
Tb408 O432 2.471 . S
Eu409 O420 2.418 . S
Eu409 O421 2.384 1_455 S
Eu409 O424 2.479 . S
Eu409 O425 2.471 . S
Eu409 O426 2.347 . S
Eu409 O429 2.366 . S
Eu409 C439 2.825 . S
C410 O426 1.259 1_655 S
C410 O427 1.265 . S
C411 O428 1.255 . S
C411 O429 1.265 . S
C412 C414 1.380 . S
C412 C415 1.374 . S
C412 C418 1.507 . S
C413 C414 1.384 . S
C413 C417 1.387 . S
C413 H440 0.930 . S
C414 C412 1.380 . S
C414 C413 1.384 . S
C414 H441 0.931 . S
C415 C412 1.374 . S
C415 C416 1.390 . S
C415 H442 0.930 . S
C416 C415 1.390 . S
C416 C417 1.391 . S
C416 H443 0.930 . S
C417 C413 1.387 . S
C417 C416 1.391 . S
C418 Tb408 2.825 . S
C418 C412 1.507 . S
C418 O431 1.238 . S
C418 O432 1.247 . S
O419 Tb408 2.347 . S
O419 C423 1.259 1_655 S
O420 Eu409 2.418 . S
O420 C423 1.265 . S
O421 Eu409 2.384 1_655 S
O421 C430 1.255 . S
O422 Tb408 2.366 . S
O422 C430 1.265 . S
C423 O419 1.259 1_455 S
C423 O420 1.265 . S
O424 Eu409 2.479 . S
O424 C439 1.238 . S
O425 Eu409 2.471 . S
O425 C439 1.247 . S
O426 Eu409 2.347 . S
O426 C410 1.259 1_455 S
O427 Tb408 2.418 . S
O427 C410 1.265 . S
O428 Tb408 2.384 1_455 S
O428 C411 1.255 . S
O429 Eu409 2.366 . S
O429 C411 1.265 . S
C430 O421 1.255 . S
C430 O422 1.265 . S
O431 Tb408 2.479 . S
O431 C418 1.238 . S
O432 Tb408 2.471 . S
O432 C418 1.247 . S
C433 C436 1.380 . S
C433 C437 1.374 . S
C433 C439 1.507 . S
C434 C435 1.387 . S
C434 C438 1.391 . S
C435 C434 1.387 . S
C435 C436 1.384 . S
C435 H444 0.930 . S
C436 C433 1.380 . S
C436 C435 1.384 . S
C436 H445 0.931 . S
C437 C433 1.374 . S
C437 C438 1.390 . S
C437 H446 0.930 . S
C438 C434 1.391 . S
C438 C437 1.390 . S
C438 H447 0.930 . S
C439 Eu409 2.825 . S
C439 O424 1.238 . S
C439 O425 1.247 . S
C439 C433 1.507 . S
H440 C413 0.930 . S
H441 C414 0.931 . S
H442 C415 0.930 . S
H443 C416 0.930 . S
H444 C435 0.930 . S
H445 C436 0.931 . S
H446 C437 0.930 . S
H447 C438 0.930 . S
H448 C454 0.930 . S
H449 C458 0.930 . S
H450 C463 0.929 . S
H451 C461 0.929 . S
H452 C456 0.929 . S
H453 C462 0.929 . S
C454 H448 0.930 . S
C454 C455 1.367 1_565 S
C454 C462 1.378 . S
C455 C454 1.367 1_545 S
C455 C463 1.433 . S
C456 H452 0.929 . S
C456 C458 1.378 . S
C456 C460 1.355 . S
C457 C460 1.462 . S
C457 C462 1.349 1_545 S
C457 N465 1.428 . S
C458 H449 0.930 . S
C458 C456 1.378 . S
C458 C459 1.373 . S
C459 C458 1.373 . S
C459 C461 1.428 1_545 S
C460 C456 1.355 . S
C460 C457 1.462 . S
C460 N464 1.423 1_545 S
C461 H451 0.929 . S
C461 C459 1.428 1_565 S
C461 N464 1.384 . S
C462 H453 0.929 . S
C462 C454 1.378 . S
C462 C457 1.349 1_565 S
C463 H450 0.929 . S
C463 C455 1.433 . S
C463 N465 1.384 . S
N464 C460 1.423 1_565 S
N464 C461 1.384 . S
N465 C457 1.428 . S
N465 C463 1.384 . S
H466 C472 0.930 . S
H467 C476 0.930 . S
H468 C481 0.929 . S
H469 C479 0.929 . S
H470 C474 0.929 . S
H471 C480 0.929 . S
C472 H466 0.930 . S
C472 C473 1.367 . S
C472 C480 1.378 . S
C473 C472 1.367 . S
C473 C481 1.433 . S
C474 H470 0.929 . S
C474 C476 1.378 . S
C474 C478 1.350 . S
C475 C478 1.463 . S
C475 C480 1.350 . S
C475 N483 1.427 . S
C476 H467 0.930 . S
C476 C474 1.378 . S
C476 C477 1.367 . S
C477 C476 1.367 . S
C477 C479 1.433 . S
C478 C474 1.350 . S
C478 C475 1.463 . S
C478 N482 1.427 . S
C479 H469 0.929 . S
C479 C477 1.433 . S
C479 N482 1.384 . S
C480 H471 0.929 . S
C480 C472 1.378 . S
C480 C475 1.350 . S
C481 H468 0.929 . S
C481 C473 1.433 . S
C481 N483 1.384 . S
N482 C478 1.427 . S
N482 C479 1.384 . S
N483 C475 1.427 . S
N483 C481 1.384 . S
H484 C490 0.930 . S
H485 C494 0.930 . S
H486 C499 0.929 . S
H487 C497 0.929 . S
H488 C492 0.929 . S
H489 C498 0.929 . S
C490 H484 0.930 . S
C490 C491 1.367 . S
C490 C498 1.378 . S
C491 C490 1.367 . S
C491 C499 1.433 . S
C492 H488 0.929 . S
C492 C494 1.378 . S
C492 C496 1.350 . S
C493 C496 1.463 . S
C493 C498 1.350 . S
C493 N501 1.427 . S
C494 H485 0.930 . S
C494 C492 1.378 . S
C494 C495 1.367 . S
C495 C494 1.367 . S
C495 C497 1.433 . S
C496 C492 1.350 . S
C496 C493 1.463 . S
C496 N500 1.427 . S
C497 H487 0.929 . S
C497 C495 1.433 . S
C497 N500 1.384 . S
C498 H489 0.929 . S
C498 C490 1.378 . S
C498 C493 1.350 . S
C499 H486 0.929 . S
C499 C491 1.433 . S
C499 N501 1.384 . S
N500 C496 1.427 . S
N500 C497 1.384 . S
N501 C493 1.427 . S
N501 C499 1.384 . S
H502 C508 0.930 . S
H503 C512 0.930 . S
H504 C517 0.929 . S
H505 C515 0.929 . S
H506 C510 0.929 . S
H507 C516 0.929 . S
C508 H502 0.930 . S
C508 C509 1.364 . S
C508 C516 1.378 . S
C509 C508 1.364 . S
C509 C517 1.436 1_655 S
C510 H506 0.929 . S
C510 C512 1.378 . S
C510 C514 1.350 . S
C511 C514 1.463 . S
C511 C516 1.348 1_455 S
C511 N519 1.429 . S
C512 H503 0.930 . S
C512 C510 1.378 . S
C512 C513 1.367 . S
C513 C512 1.367 . S
C513 C515 1.433 1_455 S
C514 C510 1.350 . S
C514 C511 1.463 . S
C514 N518 1.427 1_455 S
C515 H505 0.929 . S
C515 C513 1.433 1_655 S
C515 N518 1.384 . S
C516 H507 0.929 . S
C516 C508 1.378 . S
C516 C511 1.348 1_655 S
C517 H504 0.929 . S
C517 C509 1.436 1_455 S
C517 N519 1.384 . S
N518 C514 1.427 1_655 S
N518 C515 1.384 . S
N519 C511 1.429 . S
N519 C517 1.384 . S
H520 C526 0.930 . S
H521 C530 0.930 . S
H522 C535 0.929 . S
H523 C533 0.929 . S
H524 C528 0.929 1_554 S
H525 C534 0.929 . S
C526 H520 0.930 . S
C526 C527 1.384 . S
C526 C534 1.378 . S
C527 C526 1.384 . S
C527 C535 1.416 1_565 S
C528 H524 0.929 1_556 S
C528 C530 1.378 . S
C528 C532 1.369 1_556 S
C529 C532 1.461 1_565 S
C529 C534 1.384 . S
C529 N537 1.393 1_565 S
C530 H521 0.930 . S
C530 C528 1.378 . S
C530 C531 1.369 . S
C531 C530 1.369 . S
C531 C533 1.431 1_545 S
C532 C528 1.369 1_554 S
C532 C529 1.461 1_545 S
C532 N536 1.408 1_544 S
C533 H523 0.929 . S
C533 C531 1.431 1_565 S
C533 N536 1.384 . S
C534 H525 0.929 . S
C534 C526 1.378 . S
C534 C529 1.384 . S
C535 H522 0.929 . S
C535 C527 1.416 1_545 S
C535 N537 1.384 . S
N536 C532 1.408 1_566 S
N536 C533 1.384 . S
N537 C529 1.393 1_545 S
N537 C535 1.384 . S
H538 C544 0.930 . S
H539 C548 0.930 . S
H540 C553 0.929 . S
H541 C551 0.929 . S
H542 C546 0.929 1_554 S
H543 C552 0.929 . S
C544 H538 0.930 . S
C544 C545 1.367 . S
C544 C552 1.378 . S
C545 C544 1.367 . S
C545 C553 1.433 . S
C546 H542 0.929 1_556 S
C546 C548 1.378 . S
C546 C550 1.350 1_556 S
C547 C550 1.463 . S
C547 C552 1.350 . S
C547 N555 1.427 . S
C548 H539 0.930 . S
C548 C546 1.378 . S
C548 C549 1.367 . S
C549 C548 1.367 . S
C549 C551 1.433 . S
C550 C546 1.350 1_554 S
C550 C547 1.463 . S
C550 N554 1.427 1_554 S
C551 H541 0.929 . S
C551 C549 1.433 . S
C551 N554 1.384 . S
C552 H543 0.929 . S
C552 C544 1.378 . S
C552 C547 1.350 . S
C553 H540 0.929 . S
C553 C545 1.433 . S
C553 N555 1.384 . S
N554 C550 1.427 1_556 S
N554 C551 1.384 . S
N555 C547 1.427 . S
N555 C553 1.384 . S
H556 C562 0.930 . S
H557 C566 0.930 . S
H558 C571 0.929 . S
H559 C569 0.929 . S
H560 C564 0.929 1_554 S
H561 C570 0.929 . S
C562 H556 0.930 . S
C562 C563 1.367 . S
C562 C570 1.378 . S
C563 C562 1.367 . S
C563 C571 1.433 . S
C564 H560 0.929 1_556 S
C564 C566 1.378 . S
C564 C568 1.350 1_556 S
C565 C568 1.463 . S
C565 C570 1.350 . S
C565 N573 1.427 . S
C566 H557 0.930 . S
C566 C564 1.378 . S
C566 C567 1.367 . S
C567 C566 1.367 . S
C567 C569 1.433 . S
C568 C564 1.350 1_554 S
C568 C565 1.463 . S
C568 N572 1.427 1_554 S
C569 H559 0.929 . S
C569 C567 1.433 . S
C569 N572 1.384 . S
C570 H561 0.929 . S
C570 C562 1.378 . S
C570 C565 1.350 . S
C571 H558 0.929 . S
C571 C563 1.433 . S
C571 N573 1.384 . S
N572 C568 1.427 1_556 S
N572 C569 1.384 . S
N573 C565 1.427 . S
N573 C571 1.384 . S
H574 C580 0.930 . S
H575 C584 0.930 . S
H576 C589 0.929 . S
H577 C587 0.929 . S
H578 C582 0.929 . S
H579 C588 0.929 . S
C580 H574 0.930 . S
C580 C581 1.373 . S
C580 C588 1.378 . S
C581 C580 1.373 . S
C581 C589 1.428 1_655 S
C582 H578 0.929 . S
C582 C584 1.378 . S
C582 C586 1.342 1_456 S
C583 C586 1.463 . S
C583 C588 1.362 . S
C583 N591 1.416 1_655 S
C584 H575 0.930 . S
C584 C582 1.378 . S
C584 C585 1.354 1_455 S
C585 C584 1.354 1_655 S
C585 C587 1.447 . S
C586 C582 1.342 1_654 S
C586 C583 1.463 . S
C586 N590 1.435 1_554 S
C587 H577 0.929 . S
C587 C585 1.447 . S
C587 N590 1.384 . S
C588 H579 0.929 . S
C588 C580 1.378 . S
C588 C583 1.362 . S
C589 H576 0.929 . S
C589 C581 1.428 1_455 S
C589 N591 1.384 . S
N590 C586 1.435 1_556 S
N590 C587 1.384 . S
N591 C583 1.416 1_455 S
N591 C589 1.384 . S
H592 C598 0.930 . S
H593 C602 0.930 . S
H594 C607 0.929 . S
H595 C605 0.929 . S
H596 C600 0.929 1_455 S
H597 C606 0.929 . S
C598 H592 0.930 . S
C598 C599 1.367 1_655 S
C598 C606 1.378 . S
C599 C598 1.367 1_455 S
C599 C607 1.433 . S
C600 H596 0.929 1_655 S
C600 C602 1.378 . S
C600 C604 1.350 . S
C601 C604 1.463 . S
C601 C606 1.350 . S
C601 N609 1.427 1_655 S
C602 H593 0.930 . S
C602 C600 1.378 . S
C602 C603 1.367 . S
C603 C602 1.367 . S
C603 C605 1.433 . S
C604 C600 1.350 . S
C604 C601 1.463 . S
C604 N608 1.427 . S
C605 H595 0.929 . S
C605 C603 1.433 . S
C605 N608 1.384 . S
C606 H597 0.929 . S
C606 C598 1.378 . S
C606 C601 1.350 . S
C607 H594 0.929 . S
C607 C599 1.433 . S
C607 N609 1.384 . S
N608 C604 1.427 . S
N608 C605 1.384 . S
N609 C601 1.427 1_455 S
N609 C607 1.384 . S
H610 C616 0.930 . S
H611 C620 0.930 . S
H612 C625 0.929 . S
H613 C623 0.929 . S
H614 C618 0.929 . S
H615 C624 0.929 . S
C616 H610 0.930 . S
C616 C617 1.367 . S
C616 C624 1.378 . S
C617 C616 1.367 . S
C617 C625 1.433 1_545 S
C618 H614 0.929 . S
C618 C620 1.378 . S
C618 C622 1.350 . S
C619 C622 1.463 . S
C619 C624 1.350 1_565 S
C619 N627 1.427 . S
C620 H611 0.930 . S
C620 C618 1.378 . S
C620 C621 1.367 . S
C621 C620 1.367 . S
C621 C623 1.433 . S
C622 C618 1.350 . S
C622 C619 1.463 . S
C622 N626 1.427 . S
C623 H613 0.929 . S
C623 C621 1.433 . S
C623 N626 1.384 . S
C624 H615 0.929 . S
C624 C616 1.378 . S
C624 C619 1.350 1_545 S
C625 H612 0.929 . S
C625 C617 1.433 1_565 S
C625 N627 1.384 . S
N626 C622 1.427 . S
N626 C623 1.384 . S
N627 C619 1.427 . S
N627 C625 1.384 . S
H628 C634 0.930 . S
H629 C638 0.930 . S
H630 C643 0.929 . S
H631 C641 0.929 . S
H632 C636 0.929 . S
H633 C642 0.929 . S
C634 H628 0.930 . S
C634 C635 1.367 . S
C634 C642 1.378 . S
C635 C634 1.367 . S
C635 C643 1.433 . S
C636 H632 0.929 . S
C636 C638 1.378 . S
C636 C640 1.350 . S
C637 C640 1.463 . S
C637 C642 1.350 . S
C637 N645 1.427 . S
C638 H629 0.930 . S
C638 C636 1.378 . S
C638 C639 1.367 . S
C639 C638 1.367 . S
C639 C641 1.433 . S
C640 C636 1.350 . S
C640 C637 1.463 . S
C640 N644 1.427 . S
C641 H631 0.929 . S
C641 C639 1.433 . S
C641 N644 1.384 . S
C642 H633 0.929 . S
C642 C634 1.378 . S
C642 C637 1.350 . S
C643 H630 0.929 . S
C643 C635 1.433 . S
C643 N645 1.384 . S
N644 C640 1.427 . S
N644 C641 1.384 . S
N645 C637 1.427 . S
N645 C643 1.384 . S
H646 C652 0.930 . S
H647 C656 0.930 . S
H648 C661 0.929 . S
H649 C659 0.929 . S
H650 C654 0.929 . S
H651 C660 0.929 . S
C652 H646 0.930 . S
C652 C653 1.367 . S
C652 C660 1.378 . S
C653 C652 1.367 . S
C653 C661 1.433 . S
C654 H650 0.929 . S
C654 C656 1.378 . S
C654 C658 1.350 . S
C655 C658 1.463 . S
C655 C660 1.350 . S
C655 N663 1.427 . S
C656 H647 0.930 . S
C656 C654 1.378 . S
C656 C657 1.367 . S
C657 C656 1.367 . S
C657 C659 1.433 . S
C658 C654 1.350 . S
C658 C655 1.463 . S
C658 N662 1.427 . S
C659 H649 0.929 . S
C659 C657 1.433 . S
C659 N662 1.384 . S
C660 H651 0.929 . S
C660 C652 1.378 . S
C660 C655 1.350 . S
C661 H648 0.929 . S
C661 C653 1.433 . S
C661 N663 1.384 . S
N662 C658 1.427 . S
N662 C659 1.384 . S
N663 C655 1.427 . S
N663 C661 1.384 . S
H664 C670 0.930 . S
H665 C674 0.930 1_655 S
H666 C679 0.929 . S
H667 C677 0.929 . S
H668 C672 0.929 1_655 S
H669 C678 0.929 . S
C670 H664 0.930 . S
C670 C671 1.367 1_455 S
C670 C678 1.378 . S
C671 C670 1.367 1_655 S
C671 C679 1.433 . S
C672 H668 0.929 1_455 S
C672 C674 1.378 1_554 S
C672 C676 1.350 . S
C673 C676 1.463 . S
C673 C678 1.350 . S
C673 N681 1.427 1_455 S
C674 H665 0.930 1_455 S
C674 C672 1.378 1_556 S
C674 C675 1.367 . S
C675 C674 1.367 . S
C675 C677 1.433 . S
C676 C672 1.350 . S
C676 C673 1.463 . S
C676 N680 1.427 1_554 S
C677 H667 0.929 . S
C677 C675 1.433 . S
C677 N680 1.384 . S
C678 H669 0.929 . S
C678 C670 1.378 . S
C678 C673 1.350 . S
C679 H666 0.929 . S
C679 C671 1.433 . S
C679 N681 1.384 . S
N680 C676 1.427 1_556 S
N680 C677 1.384 . S
N681 C673 1.427 1_655 S
N681 C679 1.384 . S
H682 C688 0.930 . S
H683 C692 0.930 . S
H684 C697 0.929 . S
H685 C695 0.929 . S
H686 C690 0.929 . S
H687 C696 0.929 1_556 S
C688 H682 0.930 . S
C688 C689 1.367 . S
C688 C696 1.378 . S
C689 C688 1.367 . S
C689 C697 1.433 1_565 S
C690 H686 0.929 . S
C690 C692 1.378 . S
C690 C694 1.350 . S
C691 C694 1.463 . S
C691 C696 1.350 1_545 S
C691 N699 1.427 . S
C692 H683 0.930 . S
C692 C690 1.378 . S
C692 C693 1.367 1_554 S
C693 C692 1.367 1_556 S
C693 C695 1.433 . S
C694 C690 1.350 . S
C694 C691 1.463 . S
C694 N698 1.427 1_554 S
C695 H685 0.929 . S
C695 C693 1.433 . S
C695 N698 1.384 . S
C696 H687 0.929 1_554 S
C696 C688 1.378 . S
C696 C691 1.350 1_565 S
C697 H684 0.929 . S
C697 C689 1.433 1_545 S
C697 N699 1.384 . S
N698 C694 1.427 1_556 S
N698 C695 1.384 . S
N699 C691 1.427 . S
N699 C697 1.384 . S
H700 C706 0.930 . S
H701 C710 0.930 . S
H702 C715 0.929 . S
H703 C713 0.929 . S
H704 C708 0.929 . S
H705 C714 0.929 . S
C706 H700 0.930 . S
C706 C707 1.367 . S
C706 C714 1.378 . S
C707 C706 1.367 . S
C707 C715 1.433 . S
C708 H704 0.929 . S
C708 C710 1.378 . S
C708 C712 1.350 1_556 S
C709 C712 1.463 . S
C709 C714 1.350 . S
C709 N717 1.427 . S
C710 H701 0.930 . S
C710 C708 1.378 . S
C710 C711 1.367 . S
C711 C710 1.367 . S
C711 C713 1.433 1_556 S
C712 C708 1.350 1_554 S
C712 C709 1.463 . S
C712 N716 1.427 . S
C713 H703 0.929 . S
C713 C711 1.433 1_554 S
C713 N716 1.384 . S
C714 H705 0.929 . S
C714 C706 1.378 . S
C714 C709 1.350 . S
C715 H702 0.929 . S
C715 C707 1.433 . S
C715 N717 1.384 . S
N716 C712 1.427 . S
N716 C713 1.384 . S
N717 C709 1.427 . S
N717 C715 1.384 . S
H718 C724 0.930 . S
H719 C728 0.930 . S
H720 C733 0.929 . S
H721 C731 0.929 . S
H722 C726 0.929 . S
H723 C732 0.929 . S
C724 H718 0.930 . S
C724 C725 1.367 . S
C724 C732 1.378 . S
C725 C724 1.367 . S
C725 C733 1.433 . S
C726 H722 0.929 . S
C726 C728 1.378 . S
C726 C730 1.350 1_556 S
C727 C730 1.463 . S
C727 C732 1.350 . S
C727 N735 1.427 . S
C728 H719 0.930 . S
C728 C726 1.378 . S
C728 C729 1.367 . S
C729 C728 1.367 . S
C729 C731 1.433 1_556 S
C730 C726 1.350 1_554 S
C730 C727 1.463 . S
C730 N734 1.427 . S
C731 H721 0.929 . S
C731 C729 1.433 1_554 S
C731 N734 1.384 . S
C732 H723 0.929 . S
C732 C724 1.378 . S
C732 C727 1.350 . S
C733 H720 0.929 . S
C733 C725 1.433 . S
C733 N735 1.384 . S
N734 C730 1.427 . S
N734 C731 1.384 . S
N735 C727 1.427 . S
N735 C733 1.384 . S
H736 C742 0.930 . S
H737 C746 0.930 . S
H738 C751 0.929 . S
H739 C749 0.943 . S
H740 C744 0.929 . S
H741 C750 0.929 . S
C742 H736 0.930 . S
C742 C743 1.367 1_655 S
C742 C750 1.378 . S
C743 C742 1.367 1_455 S
C743 C751 1.433 . S
C744 H740 0.929 . S
C744 C746 1.378 . S
C744 C748 1.350 . S
C745 C748 1.463 . S
C745 C750 1.350 1_455 S
C745 N753 1.427 . S
C746 H737 0.930 . S
C746 C744 1.378 . S
C746 C747 1.367 . S
C747 C746 1.367 . S
C747 C749 1.419 1_455 S
C748 C744 1.350 . S
C748 C745 1.463 . S
C748 N752 1.427 1_455 S
C749 H739 0.943 . S
C749 C747 1.419 1_655 S
C749 N752 1.386 . S
C750 H741 0.929 . S
C750 C742 1.378 . S
C750 C745 1.350 1_655 S
C751 H738 0.929 . S
C751 C743 1.433 . S
C751 N753 1.384 . S
N752 C748 1.427 1_655 S
N752 C749 1.386 . S
N753 C745 1.427 . S
N753 C751 1.384 . S
H754 C760 0.930 . S
H755 C764 0.930 . S
H756 C769 0.929 . S
H757 C767 0.929 . S
H758 C762 0.929 . S
H759 C768 0.929 . S
C760 H754 0.930 . S
C760 C761 1.367 . S
C760 C768 1.378 . S
C761 C760 1.367 . S
C761 C769 1.433 1_545 S
C762 H758 0.929 . S
C762 C764 1.378 . S
C762 C766 1.350 1_565 S
C763 C766 1.463 . S
C763 C768 1.350 . S
C763 N771 1.427 1_545 S
C764 H755 0.930 . S
C764 C762 1.378 . S
C764 C765 1.367 1_565 S
C765 C764 1.367 1_545 S
C765 C767 1.433 . S
C766 C762 1.350 1_545 S
C766 C763 1.463 . S
C766 N770 1.427 . S
C767 H757 0.929 . S
C767 C765 1.433 . S
C767 N770 1.384 . S
C768 H759 0.929 . S
C768 C760 1.378 . S
C768 C763 1.350 . S
C769 H756 0.929 . S
C769 C761 1.433 1_565 S
C769 N771 1.384 . S
N770 C766 1.427 . S
N770 C767 1.384 . S
N771 C763 1.427 1_565 S
N771 C769 1.384 . S
H772 C778 0.930 . S
H773 C782 0.930 . S
H774 C787 0.929 . S
H775 C785 0.929 . S
H776 C780 0.929 . S
H777 C786 0.929 . S
C778 H772 0.930 . S
C778 C779 1.367 . S
C778 C786 1.378 . S
C779 C778 1.367 . S
C779 C787 1.433 . S
C780 H776 0.929 . S
C780 C782 1.378 . S
C780 C784 1.350 . S
C781 C784 1.463 . S
C781 C786 1.350 . S
C781 N789 1.427 . S
C782 H773 0.930 . S
C782 C780 1.378 . S
C782 C783 1.367 . S
C783 C782 1.367 . S
C783 C785 1.433 . S
C784 C780 1.350 . S
C784 C781 1.463 . S
C784 N788 1.427 . S
C785 H775 0.929 . S
C785 C783 1.433 . S
C785 N788 1.384 . S
C786 H777 0.929 . S
C786 C778 1.378 . S
C786 C781 1.350 . S
C787 H774 0.929 . S
C787 C779 1.433 . S
C787 N789 1.384 . S
N788 C784 1.427 . S
N788 C785 1.384 . S
N789 C781 1.427 . S
N789 C787 1.384 . S
H790 C796 0.930 . S
H791 C800 0.930 . S
H792 C805 0.929 . S
H793 C803 0.929 . S
H794 C798 0.929 . S
H795 C804 0.929 . S
C796 H790 0.930 . S
C796 C797 1.367 . S
C796 C804 1.378 . S
C797 C796 1.367 . S
C797 C805 1.433 . S
C798 H794 0.929 . S
C798 C800 1.378 . S
C798 C802 1.350 . S
C799 C802 1.463 . S
C799 C804 1.350 . S
C799 N807 1.427 . S
C800 H791 0.930 . S
C800 C798 1.378 . S
C800 C801 1.367 . S
C801 C800 1.367 . S
C801 C803 1.433 . S
C802 C798 1.350 . S
C802 C799 1.463 . S
C802 N806 1.427 . S
C803 H793 0.929 . S
C803 C801 1.433 . S
C803 N806 1.384 . S
C804 H795 0.929 . S
C804 C796 1.378 . S
C804 C799 1.350 . S
C805 H792 0.929 . S
C805 C797 1.433 . S
C805 N807 1.384 . S
N806 C802 1.427 . S
N806 C803 1.384 . S
N807 C799 1.427 . S
N807 C805 1.384 . S
H808 C814 0.930 . S
H809 C818 0.930 . S
H810 C823 0.929 . S
H811 C821 0.929 . S
H812 C816 0.929 . S
H813 C822 0.929 . S
C814 H808 0.930 . S
C814 C815 1.367 . S
C814 C822 1.378 . S
C815 C814 1.367 . S
C815 C823 1.433 1_655 S
C816 H812 0.929 . S
C816 C818 1.378 . S
C816 C820 1.350 1_455 S
C817 C820 1.463 . S
C817 C822 1.350 . S
C817 N825 1.427 1_655 S
C818 H809 0.930 . S
C818 C816 1.378 . S
C818 C819 1.367 1_455 S
C819 C818 1.367 1_655 S
C819 C821 1.433 . S
C820 C816 1.350 1_655 S
C820 C817 1.463 . S
C820 N824 1.427 . S
C821 H811 0.929 . S
C821 C819 1.433 . S
C821 N824 1.384 . S
C822 H813 0.929 . S
C822 C814 1.378 . S
C822 C817 1.350 . S
C823 H810 0.929 . S
C823 C815 1.433 1_455 S
C823 N825 1.384 . S
N824 C820 1.427 . S
N824 C821 1.384 . S
N825 C817 1.427 1_455 S
N825 C823 1.384 . S
H826 C832 0.930 . S
H827 C836 0.930 . S
H828 C841 0.929 . S
H829 C839 0.929 . S
H830 C834 0.929 . S
H831 C840 0.929 . S
C832 H826 0.930 . S
C832 C833 1.367 . S
C832 C840 1.378 . S
C833 C832 1.367 . S
C833 C841 1.433 1_565 S
C834 H830 0.929 . S
C834 C836 1.378 . S
C834 C838 1.350 1_545 S
C835 C838 1.463 . S
C835 C840 1.350 . S
C835 N843 1.427 1_565 S
C836 H827 0.930 . S
C836 C834 1.378 . S
C836 C837 1.367 1_545 S
C837 C836 1.367 1_565 S
C837 C839 1.433 . S
C838 C834 1.350 1_565 S
C838 C835 1.463 . S
C838 N842 1.427 . S
C839 H829 0.929 . S
C839 C837 1.433 . S
C839 N842 1.384 . S
C840 H831 0.929 . S
C840 C832 1.378 . S
C840 C835 1.350 . S
C841 H828 0.929 . S
C841 C833 1.433 1_545 S
C841 N843 1.384 . S
N842 C838 1.427 . S
N842 C839 1.384 . S
N843 C835 1.427 1_545 S
N843 C841 1.384 . S
H844 C850 0.930 . S
H845 C854 0.930 . S
H846 C859 0.929 . S
H847 C857 0.929 . S
H848 C852 0.929 . S
H849 C858 0.929 . S
C850 H844 0.930 . S
C850 C851 1.367 . S
C850 C858 1.378 . S
C851 C850 1.367 . S
C851 C859 1.433 . S
C852 H848 0.929 . S
C852 C854 1.378 . S
C852 C856 1.350 . S
C853 C856 1.463 . S
C853 C858 1.350 . S
C853 N861 1.427 . S
C854 H845 0.930 . S
C854 C852 1.378 . S
C854 C855 1.367 . S
C855 C854 1.367 . S
C855 C857 1.433 . S
C856 C852 1.350 . S
C856 C853 1.463 . S
C856 N860 1.427 . S
C857 H847 0.929 . S
C857 C855 1.433 . S
C857 N860 1.384 . S
C858 H849 0.929 . S
C858 C850 1.378 . S
C858 C853 1.350 . S
C859 H846 0.929 . S
C859 C851 1.433 . S
C859 N861 1.384 . S
N860 C856 1.427 . S
N860 C857 1.384 . S
N861 C853 1.427 . S
N861 C859 1.384 . S
H862 C868 0.930 . S
H863 C872 0.930 . S
H864 C877 0.929 . S
H865 C875 0.929 . S
H866 C870 0.929 . S
H867 C876 0.929 . S
C868 H862 0.930 . S
C868 C869 1.367 . S
C868 C876 1.378 . S
C869 C868 1.367 . S
C869 C877 1.433 . S
C870 H866 0.929 . S
C870 C872 1.378 . S
C870 C874 1.350 . S
C871 C874 1.463 . S
C871 C876 1.350 . S
C871 N879 1.427 . S
C872 H863 0.930 . S
C872 C870 1.378 . S
C872 C873 1.367 . S
C873 C872 1.367 . S
C873 C875 1.433 . S
C874 C870 1.350 . S
C874 C871 1.463 . S
C874 N878 1.427 . S
C875 H865 0.929 . S
C875 C873 1.433 . S
C875 N878 1.384 . S
C876 H867 0.929 . S
C876 C868 1.378 . S
C876 C871 1.350 . S
C877 H864 0.929 . S
C877 C869 1.433 . S
C877 N879 1.384 . S
N878 C874 1.427 . S
N878 C875 1.384 . S
N879 C871 1.427 . S
N879 C877 1.384 . S
C455 C241 2.121 . S
C459 C290 2.358 1_545 S
C477 C330 2.392 . S
C473 C277 2.224 . S
C495 C370 2.378 . S
C491 C169 2.140 . S
C513 C410 2.379 1_455 S
C509 C205 2.150 1_655 S
C531 C303 2.362 . S
C527 C97 2.130 1_565 S
C545 C133 2.210 . S
C549 C343 2.394 . S
C563 C25 2.141 . S
C567 C383 2.377 . S
C581 C61 2.150 1_655 S
C585 C423 2.376 1_655 S
C603 C314 0.359 . S
C599 C211 0.389 . S
C621 C354 0.401 . S
C617 C247 0.388 . S
C639 C394 0.354 . S
C635 C253 0.398 . S
C653 C175 0.360 . S
C657 C434 0.365 . S
C671 C67 0.432 1_655 S
C675 C297 0.356 . S
C693 C337 0.394 . S
C689 C103 0.469 1_565 S
C711 C377 0.368 . S
C707 C109 0.337 . S
C725 C31 0.412 . S
C729 C417 0.371 . S
C743 C181 2.837 . S
C747 C291 3.199 . S
C761 C217 2.810 . S
C765 C331 3.171 . S
C783 C371 3.173 . S
C779 C283 2.748 . S
C801 C411 3.188 . S
C797 C145 2.817 . S
C815 C37 2.848 1_655 S
C819 C310 3.210 . S
C837 C350 3.173 . S
C833 C73 2.820 1_565 S
C855 C390 3.173 . S
C851 C139 2.730 . S
C869 C1 2.838 . S
C873 C430 3.194 . S
