# Generated by pormake.
# Topology apo, (3,6)-cn, num edge types: 1
# Building blocks:
#     Node 0, Type 0, BuildingBlock: MIDCAF_clean_linker_0, # of connection points: 3
#     Node 1, Type 0, BuildingBlock: MIDCAF_clean_linker_0, # of connection points: 3
#     Node 2, Type 0, BuildingBlock: MIDCAF_clean_linker_0, # of connection points: 3
#     Node 3, Type 0, BuildingBlock: MIDCAF_clean_linker_0, # of connection points: 3
#     Node 4, Type 0, BuildingBlock: MIDCAF_clean_linker_0, # of connection points: 3
#     Node 5, Type 0, BuildingBlock: MIDCAF_clean_linker_0, # of connection points: 3
#     Node 6, Type 0, BuildingBlock: MIDCAF_clean_linker_0, # of connection points: 3
#     Node 7, Type 0, BuildingBlock: MIDCAF_clean_linker_0, # of connection points: 3
#     Node 8, Type 1, BuildingBlock: KUMJIN_clean_sbu_1, # of connection points: 6
#     Node 9, Type 1, BuildingBlock: KUMJIN_clean_sbu_1, # of connection points: 6
#     Node 10, Type 1, BuildingBlock: KUMJIN_clean_sbu_1, # of connection points: 6
#     Node 11, Type 1, BuildingBlock: KUMJIN_clean_sbu_1, # of connection points: 6
#     Edge 12, Type (0, 1), BuildingBlock: UVAHIK_clean_linker_0, # of connection points: 2
#     Edge 13, Type (0, 1), BuildingBlock: UVAHIK_clean_linker_0, # of connection points: 2
#     Edge 14, Type (0, 1), BuildingBlock: UVAHIK_clean_linker_0, # of connection points: 2
#     Edge 15, Type (0, 1), BuildingBlock: UVAHIK_clean_linker_0, # of connection points: 2
#     Edge 16, Type (0, 1), BuildingBlock: UVAHIK_clean_linker_0, # of connection points: 2
#     Edge 17, Type (0, 1), BuildingBlock: UVAHIK_clean_linker_0, # of connection points: 2
#     Edge 18, Type (0, 1), BuildingBlock: UVAHIK_clean_linker_0, # of connection points: 2
#     Edge 19, Type (0, 1), BuildingBlock: UVAHIK_clean_linker_0, # of connection points: 2
#     Edge 20, Type (0, 1), BuildingBlock: UVAHIK_clean_linker_0, # of connection points: 2
#     Edge 21, Type (0, 1), BuildingBlock: UVAHIK_clean_linker_0, # of connection points: 2
#     Edge 22, Type (0, 1), BuildingBlock: UVAHIK_clean_linker_0, # of connection points: 2
#     Edge 23, Type (0, 1), BuildingBlock: UVAHIK_clean_linker_0, # of connection points: 2
#     Edge 24, Type (0, 1), BuildingBlock: UVAHIK_clean_linker_0, # of connection points: 2
#     Edge 25, Type (0, 1), BuildingBlock: UVAHIK_clean_linker_0, # of connection points: 2
#     Edge 26, Type (0, 1), BuildingBlock: UVAHIK_clean_linker_0, # of connection points: 2
#     Edge 27, Type (0, 1), BuildingBlock: UVAHIK_clean_linker_0, # of connection points: 2
#     Edge 28, Type (0, 1), BuildingBlock: UVAHIK_clean_linker_0, # of connection points: 2
#     Edge 29, Type (0, 1), BuildingBlock: UVAHIK_clean_linker_0, # of connection points: 2
#     Edge 30, Type (0, 1), BuildingBlock: UVAHIK_clean_linker_0, # of connection points: 2
#     Edge 31, Type (0, 1), BuildingBlock: UVAHIK_clean_linker_0, # of connection points: 2
#     Edge 32, Type (0, 1), BuildingBlock: UVAHIK_clean_linker_0, # of connection points: 2
#     Edge 33, Type (0, 1), BuildingBlock: UVAHIK_clean_linker_0, # of connection points: 2
#     Edge 34, Type (0, 1), BuildingBlock: UVAHIK_clean_linker_0, # of connection points: 2
#     Edge 35, Type (0, 1), BuildingBlock: UVAHIK_clean_linker_0, # of connection points: 2
# Relax obj value: 0.010
# Max RMSD: 0.083
# Mean RMSD: 0.068
data_MOF--net-apo--node1-KUMJIN_clean_sbu_1--node2-MIDCAF_clean_linker_0--edge1-UVAHIK_clean_linker_0
_symmetry_space_group_name_H-M    P1
_symmetry_Int_Tables_number       1
_symmetry_cell_setting            triclinic
loop_
_symmetry_equiv_pos_as_xyz
'x, y, z'
_cell_length_a     35.715035
_cell_length_b     65.091504
_cell_length_c     77.570814
_cell_angle_alpha  89.995499
_cell_angle_beta   90.044367
_cell_angle_gamma 90.262034
loop_
_atom_site_label
_atom_site_type_symbol
_atom_site_fract_x
_atom_site_fract_y
_atom_site_fract_z
_atom_type_partial_charge
C0 C 0.33985 0.38812 0.47679 0.0
C1 C 0.32303 0.37338 0.48757 0.0
C2 C 0.29927 0.35853 0.48014 0.0
C3 C 0.29189 0.35871 0.46239 0.0
H4 H 0.22366 0.33198 0.4216 0.0
H5 H 0.19019 0.30449 0.40623 0.0
H6 H 0.24438 0.32245 0.35884 0.0
H7 H 0.27717 0.34999 0.37394 0.0
H8 H 0.27835 0.40428 0.37457 0.0
H9 H 0.29798 0.43418 0.35785 0.0
H10 H 0.37429 0.45172 0.3985 0.0
H11 H 0.35469 0.42185 0.41534 0.0
H12 H 0.34575 0.40009 0.45133 0.0
H13 H 0.35891 0.39953 0.482 0.0
H14 H 0.2856 0.34706 0.48809 0.0
H15 H 0.273 0.34725 0.45714 0.0
N16 N 0.28016 0.35924 0.42508 0.0
N17 N 0.28424 0.37681 0.3987 0.0
N18 N 0.31076 0.39119 0.42354 0.0
C19 C 0.27275 0.36017 0.40788 0.0
C20 C 0.3031 0.39242 0.40643 0.0
C21 C 0.2994 0.3747 0.43298 0.0
C22 C 0.25298 0.34318 0.39898 0.0
C23 C 0.22845 0.33 0.40791 0.0
C24 C 0.2092 0.31437 0.39914 0.0
C25 C 0.21487 0.31138 0.3814 0.0
C26 C 0.23974 0.32436 0.37255 0.0
C27 C 0.25833 0.34019 0.3812 0.0
C28 C 0.31499 0.41062 0.3963 0.0
C29 C 0.29934 0.41447 0.37997 0.0
C30 C 0.31036 0.43167 0.37043 0.0
C31 C 0.33762 0.44525 0.37689 0.0
C32 C 0.35339 0.44141 0.39317 0.0
C33 C 0.34202 0.42435 0.40283 0.0
C34 C 0.30804 0.37381 0.45171 0.0
C35 C 0.33238 0.38837 0.45913 0.0
C36 C 0.18081 0.10233 0.97576 0.0
C37 C 0.1974 0.11747 0.98625 0.0
C38 C 0.2229 0.13135 0.97872 0.0
C39 C 0.23096 0.13041 0.9611 0.0
H40 H 0.29637 0.15759 0.91976 0.0
H41 H 0.32824 0.18587 0.9047 0.0
H42 H 0.26407 0.17275 0.85883 0.0
H43 H 0.23288 0.14435 0.87359 0.0
H44 H 0.20428 0.09788 0.86964 0.0
H45 H 0.18334 0.06912 0.85199 0.0
H46 H 0.17092 0.03174 0.89762 0.0
H47 H 0.19196 0.06055 0.91544 0.0
H48 H 0.17527 0.08962 0.95047 0.0
H49 H 0.16067 0.09155 0.98103 0.0
H50 H 0.23678 0.14296 0.98645 0.0
H51 H 0.2505 0.14147 0.95575 0.0
N52 N 0.23891 0.13104 0.92389 0.0
N53 N 0.23061 0.11522 0.897 0.0
N54 N 0.20847 0.09905 0.92199 0.0
C55 C 0.24364 0.13122 0.90651 0.0
C56 C 0.21329 0.099 0.90462 0.0
C57 C 0.22106 0.11505 0.93172 0.0
C58 C 0.26221 0.14874 0.89783 0.0
C59 C 0.28902 0.16082 0.90648 0.0
C60 C 0.30734 0.17689 0.89789 0.0
C61 C 0.29844 0.18144 0.88067 0.0
C62 C 0.27121 0.1696 0.87214 0.0
C63 C 0.25355 0.1533 0.88058 0.0
C64 C 0.19983 0.08154 0.89399 0.0
C65 C 0.19711 0.08356 0.87597 0.0
C66 C 0.1849 0.06712 0.86584 0.0
C67 C 0.17549 0.04822 0.87343 0.0
C68 C 0.17827 0.04611 0.89142 0.0
C69 C 0.19009 0.06265 0.90161 0.0
C70 C 0.21395 0.11545 0.95058 0.0
C71 C 0.18908 0.10129 0.95817 0.0
C72 C 0.83723 0.11074 0.52428 0.0
C73 C 0.823 0.12754 0.51499 0.0
C74 C 0.80006 0.1417 0.52363 0.0
C75 C 0.79184 0.13927 0.54112 0.0
H76 H 0.73075 0.16515 0.58111 0.0
H77 H 0.69596 0.19143 0.59664 0.0
H78 H 0.72915 0.16406 0.64503 0.0
H79 H 0.76267 0.13748 0.62957 0.0
H80 H 0.78057 0.08853 0.62712 0.0
H81 H 0.80193 0.05881 0.64318 0.0
H82 H 0.87531 0.04251 0.60112 0.0
H83 H 0.85293 0.07198 0.58474 0.0
H84 H 0.84063 0.09521 0.54854 0.0
H85 H 0.85529 0.09964 0.51809 0.0
H86 H 0.78804 0.15462 0.51682 0.0
H87 H 0.77406 0.15053 0.54727 0.0
N88 N 0.77798 0.13483 0.57762 0.0
N89 N 0.78251 0.11597 0.60325 0.0
N90 N 0.80978 0.10334 0.57792 0.0
C91 C 0.77036 0.13289 0.59471 0.0
C92 C 0.80214 0.10111 0.59499 0.0
C93 C 0.79772 0.12014 0.56912 0.0
C94 C 0.74943 0.1491 0.60405 0.0
C95 C 0.73058 0.16473 0.59506 0.0
C96 C 0.71078 0.17989 0.60399 0.0
C97 C 0.70956 0.17989 0.62213 0.0
C98 C 0.72874 0.16436 0.63108 0.0
C99 C 0.74822 0.14913 0.62217 0.0
C100 C 0.8151 0.08275 0.60463 0.0
C101 C 0.80126 0.07864 0.62125 0.0
C102 C 0.8137 0.0616 0.63053 0.0
C103 C 0.84063 0.04829 0.62354 0.0
C104 C 0.85425 0.05228 0.60685 0.0
C105 C 0.84154 0.06926 0.59748 0.0
C106 C 0.80623 0.12255 0.55046 0.0
C107 C 0.82894 0.10826 0.5418 0.0
C108 C 0.67573 0.38677 0.02443 0.0
C109 C 0.68436 0.36835 0.01589 0.0
C110 C 0.70285 0.35279 0.0251 0.0
C111 C 0.71207 0.35546 0.04248 0.0
H112 H 0.78425 0.33375 0.08335 0.0
H113 H 0.81651 0.30705 0.09993 0.0
H114 H 0.76558 0.32948 0.14666 0.0
H115 H 0.73387 0.35625 0.13031 0.0
H116 H 0.72963 0.40939 0.12701 0.0
H117 H 0.70754 0.43911 0.14284 0.0
H118 H 0.63085 0.45317 0.10139 0.0
H119 H 0.6541 0.42378 0.0852 0.0
H120 H 0.67731 0.40374 0.04802 0.0
H121 H 0.66122 0.39899 0.01775 0.0
H122 H 0.7104 0.33852 0.01883 0.0
H123 H 0.72611 0.34306 0.04914 0.0
N124 N 0.73025 0.36146 0.07856 0.0
N125 N 0.72519 0.38064 0.10403 0.0
N126 N 0.69964 0.39332 0.07835 0.0
C127 C 0.73712 0.36352 0.09573 0.0
C128 C 0.70659 0.39564 0.09546 0.0
C129 C 0.71143 0.3763 0.06977 0.0
C130 C 0.75654 0.34715 0.10551 0.0
C131 C 0.77992 0.33295 0.09716 0.0
C132 C 0.79851 0.31775 0.10662 0.0
C133 C 0.7934 0.31621 0.12454 0.0
C134 C 0.76977 0.33024 0.13284 0.0
C135 C 0.7518 0.34564 0.12347 0.0
C136 C 0.69353 0.41411 0.10485 0.0
C137 C 0.7081 0.41882 0.12122 0.0
C138 C 0.69522 0.43584 0.13038 0.0
C139 C 0.66708 0.4485 0.12351 0.0
C140 C 0.65284 0.44394 0.10702 0.0
C141 C 0.66604 0.427 0.09776 0.0
C142 C 0.70291 0.37375 0.05113 0.0
C143 C 0.68481 0.38942 0.04184 0.0
C144 C 0.66632 0.60872 0.52359 0.0
C145 C 0.68186 0.62483 0.51384 0.0
C146 C 0.70554 0.63908 0.52208 0.0
C147 C 0.71355 0.63723 0.53967 0.0
H148 H 0.78154 0.66139 0.58043 0.0
H149 H 0.81675 0.68741 0.59637 0.0
H150 H 0.76621 0.66622 0.64385 0.0
H151 H 0.73278 0.63975 0.62807 0.0
H152 H 0.72736 0.58713 0.62567 0.0
H153 H 0.70737 0.55696 0.64181 0.0
H154 H 0.63243 0.54007 0.60043 0.0
H155 H 0.65238 0.57036 0.58414 0.0
H156 H 0.66213 0.59411 0.54819 0.0
H157 H 0.64833 0.59735 0.51758 0.0
H158 H 0.71767 0.65177 0.51496 0.0
H159 H 0.73193 0.64849 0.54557 0.0
N160 N 0.72653 0.63383 0.57649 0.0
N161 N 0.72255 0.61497 0.60218 0.0
N162 N 0.6955 0.60194 0.57692 0.0
C163 C 0.73417 0.63201 0.5936 0.0
C164 C 0.70337 0.59983 0.59397 0.0
C165 C 0.70702 0.61888 0.56806 0.0
C166 C 0.7546 0.6484 0.60299 0.0
C167 C 0.77804 0.66234 0.59428 0.0
C168 C 0.79808 0.67733 0.60343 0.0
C169 C 0.79467 0.67891 0.62148 0.0
C170 C 0.77048 0.6652 0.63006 0.0
C171 C 0.75101 0.65005 0.62097 0.0
C172 C 0.69142 0.58124 0.6036 0.0
C173 C 0.70663 0.57703 0.61995 0.0
C174 C 0.69539 0.55964 0.62918 0.0
C175 C 0.6684 0.54615 0.62237 0.0
C176 C 0.65313 0.5503 0.60603 0.0
C177 C 0.6647 0.56759 0.59668 0.0
C178 C 0.69826 0.62101 0.54942 0.0
C179 C 0.67449 0.60679 0.54114 0.0
C180 C 0.8385 0.88596 0.02562 0.0
C181 C 0.82375 0.86983 0.01562 0.0
C182 C 0.79978 0.85546 0.02351 0.0
C183 C 0.79064 0.85722 0.04098 0.0
H184 H 0.74716 0.82357 0.08273 0.0
H185 H 0.71183 0.79692 0.09801 0.0
H186 H 0.69818 0.83782 0.14135 0.0
H187 H 0.73292 0.86437 0.12622 0.0
H188 H 0.796 0.89852 0.13058 0.0
H189 H 0.81603 0.92791 0.1476 0.0
H190 H 0.84602 0.96044 0.10109 0.0
H191 H 0.82585 0.93089 0.08384 0.0
H192 H 0.84093 0.90051 0.05031 0.0
H193 H 0.85672 0.89741 0.01987 0.0
H194 H 0.78826 0.84274 0.01621 0.0
H195 H 0.77205 0.84586 0.04658 0.0
N196 N 0.77454 0.86056 0.07745 0.0
N197 N 0.77658 0.87916 0.10327 0.0
N198 N 0.80605 0.89231 0.07865 0.0
C199 C 0.76518 0.86233 0.09437 0.0
C200 C 0.79697 0.89421 0.09559 0.0
C201 C 0.79497 0.8755 0.06948 0.0
C202 C 0.743 0.84614 0.10323 0.0
C203 C 0.73645 0.82691 0.09548 0.0
C204 C 0.71639 0.8116 0.10425 0.0
C205 C 0.70214 0.8153 0.12086 0.0
C206 C 0.70835 0.83458 0.12849 0.0
C207 C 0.72857 0.84977 0.11982 0.0
C208 C 0.80934 0.91229 0.1058 0.0
C209 C 0.8068 0.9119 0.12389 0.0
C210 C 0.81848 0.92871 0.1337 0.0
C211 C 0.83271 0.94643 0.12568 0.0
C212 C 0.83496 0.947 0.10759 0.0
C213 C 0.82362 0.93003 0.09774 0.0
C214 C 0.80509 0.87348 0.05097 0.0
C215 C 0.82921 0.8878 0.04306 0.0
C216 C 0.1771 0.88657 0.47957 0.0
C217 C 0.19093 0.86965 0.48882 0.0
C218 C 0.21226 0.8549 0.48002 0.0
C219 C 0.21957 0.85696 0.46241 0.0
H220 H 0.28159 0.83145 0.42207 0.0
H221 H 0.31614 0.8052 0.40636 0.0
H222 H 0.27631 0.83035 0.35818 0.0
H223 H 0.2431 0.85691 0.37377 0.0
H224 H 0.22414 0.90538 0.37515 0.0
H225 H 0.20092 0.93448 0.35884 0.0
H226 H 0.13452 0.95329 0.40258 0.0
H227 H 0.15865 0.92439 0.41916 0.0
H228 H 0.17338 0.90193 0.45525 0.0
H229 H 0.16089 0.89832 0.48599 0.0
H230 H 0.22289 0.84152 0.4867 0.0
H231 H 0.23597 0.8452 0.4561 0.0
N232 N 0.23262 0.86109 0.42581 0.0
N233 N 0.22627 0.87937 0.39997 0.0
N234 N 0.20049 0.89249 0.42544 0.0
C235 C 0.23914 0.86269 0.4086 0.0
C236 C 0.20704 0.89437 0.40825 0.0
C237 C 0.21324 0.87591 0.43434 0.0
C238 C 0.2597 0.8464 0.3992 0.0
C239 C 0.28025 0.83138 0.40812 0.0
C240 C 0.29992 0.81623 0.3991 0.0
C241 C 0.29924 0.81565 0.38096 0.0
C242 C 0.27825 0.83054 0.37211 0.0
C243 C 0.25895 0.84576 0.38109 0.0
C244 C 0.19317 0.91242 0.39849 0.0
C245 C 0.20462 0.91569 0.38135 0.0
C246 C 0.19111 0.93236 0.37193 0.0
C247 C 0.16558 0.94617 0.37932 0.0
C248 C 0.15445 0.94309 0.39653 0.0
C249 C 0.16816 0.92643 0.40602 0.0
C250 C 0.20574 0.87387 0.45311 0.0
C251 C 0.18447 0.88868 0.46193 0.0
C252 C 0.32853 0.60797 0.97869 0.0
C253 C 0.31781 0.62594 0.9874 0.0
C254 C 0.29805 0.64108 0.97827 0.0
C255 C 0.28985 0.63853 0.96077 0.0
H256 H 0.22553 0.66243 0.9196 0.0
H257 H 0.19189 0.68855 0.9033 0.0
H258 H 0.23964 0.6652 0.85604 0.0
H259 H 0.27184 0.63871 0.8722 0.0
H260 H 0.30983 0.59531 0.87236 0.0
H261 H 0.33248 0.56552 0.85678 0.0
H262 H 0.34685 0.53304 0.90492 0.0
H263 H 0.32539 0.56321 0.9206 0.0
H264 H 0.32962 0.59151 0.95483 0.0
H265 H 0.34404 0.59607 0.9853 0.0
H266 H 0.28881 0.65495 0.98466 0.0
H267 H 0.27488 0.65064 0.95417 0.0
N268 N 0.27606 0.63355 0.92426 0.0
N269 N 0.28393 0.61519 0.89853 0.0
N270 N 0.30683 0.60176 0.92449 0.0
C271 C 0.27083 0.63198 0.90694 0.0
C272 C 0.30179 0.59997 0.90719 0.0
C273 C 0.29419 0.61854 0.93313 0.0
C274 C 0.25123 0.64837 0.89722 0.0
C275 C 0.22883 0.6629 0.90572 0.0
C276 C 0.20967 0.67796 0.89637 0.0
C277 C 0.21276 0.679 0.87829 0.0
C278 C 0.23575 0.66465 0.86987 0.0
C279 C 0.25449 0.64948 0.87918 0.0
C280 C 0.31571 0.58169 0.89776 0.0
C281 C 0.31779 0.58184 0.87966 0.0
C282 C 0.3306 0.56465 0.87069 0.0
C283 C 0.34132 0.54675 0.87954 0.0
C284 C 0.33933 0.54662 0.89766 0.0
C285 C 0.32682 0.56391 0.90667 0.0
C286 C 0.30125 0.62076 0.95193 0.0
C287 C 0.3204 0.60542 0.96116 0.0
Eu288 Eu 0.04744 0.1346 0.23803 0.0
C289 C 0.88482 0.11177 0.24859 0.0
N290 N 0.89868 0.13126 0.248 0.0
C291 C 0.851 0.14106 0.22794 0.0
C292 C 0.85389 0.10604 0.23833 0.0
C293 C 0.88197 0.14601 0.23819 0.0
C294 C 0.83704 0.12097 0.22793 0.0
C295 C 0.88882 0.07702 0.25975 0.0
C296 C 0.90248 0.09739 0.25907 0.0
C297 C 0.85852 0.07116 0.24926 0.0
C298 C 0.84109 0.08562 0.2386 0.0
Eu299 Eu 0.95133 0.13812 0.26543 0.0
N300 N 0.93221 0.10339 0.26893 0.0
C301 C 0.90541 0.06326 0.27127 0.0
C302 C 0.94576 0.09058 0.28137 0.0
C303 C 0.93345 0.0702 0.28239 0.0
H304 H 0.89284 0.16153 0.23819 0.0
H305 H 0.94507 0.05999 0.292 0.0
H306 H 0.0995 0.09587 0.25312 0.0
H307 H 0.07992 0.21661 0.23286 0.0
H308 H 0.96523 0.09607 0.29093 0.0
H309 H 0.89572 0.04749 0.27218 0.0
H310 H 0.04194 0.18534 0.2289 0.0
H311 H 0.83801 0.15272 0.22002 0.0
H312 H 0.84796 0.05552 0.2495 0.0
H313 H 0.81759 0.08088 0.23068 0.0
H314 H 0.16108 0.0909 0.26707 0.0
H315 H 0.81323 0.11715 0.21985 0.0
H316 H 0.1422 0.21448 0.24668 0.0
N317 N 0.106 0.12819 0.25087 0.0
C318 C 0.12864 0.14479 0.25328 0.0
C319 C 0.15223 0.10614 0.26331 0.0
C320 C 0.16418 0.14265 0.26097 0.0
C321 C 0.11726 0.10901 0.25559 0.0
C322 C 0.17577 0.12303 0.26605 0.0
N323 N 0.08125 0.16572 0.24112 0.0
C324 C 0.06857 0.18418 0.23529 0.0
C325 C 0.13896 0.18156 0.25048 0.0
C326 C 0.1161 0.16407 0.24813 0.0
C327 C 0.1255 0.20067 0.24509 0.0
C328 C 0.09028 0.20195 0.23734 0.0
H329 H 0.20288 0.12075 0.27202 0.0
H330 H 0.21429 0.15872 0.26931 0.0
H331 H 0.19225 0.19275 0.26012 0.0
O332 O 0.04798 0.13907 0.21008 0.0
O333 O 0.05114 0.15134 0.26373 0.0
O334 O 0.99241 0.1641 0.27019 0.0
O335 O 0.08679 0.11786 0.22174 0.0
O336 O 0.00031 0.15423 0.22705 0.0
O337 O 0.96476 0.1665 0.24983 0.0
O338 O 0.93247 0.1377 0.29258 0.0
O339 O 0.95244 0.12605 0.23777 0.0
O340 O 0.00678 0.10801 0.23725 0.0
O341 O 0.9054 0.15764 0.27372 0.0
O342 O 0.00222 0.12311 0.27806 0.0
O343 O 0.03166 0.10773 0.25504 0.0
C344 C 0.02894 0.16382 0.27223 0.0
C345 C 0.10688 0.13545 0.19672 0.0
C346 C 0.13386 0.14104 0.16816 0.0
C347 C 0.16311 0.15238 0.17578 0.0
C348 C 0.13659 0.14662 0.20403 0.0
C349 C 0.16446 0.15507 0.1936 0.0
C350 C 0.10574 0.13256 0.17876 0.0
C351 C 0.97614 0.16728 0.23372 0.0
C352 C 0.07667 0.12711 0.20762 0.0
C353 C 0.18692 0.16007 0.2634 0.0
C354 C 0.17436 0.17946 0.25816 0.0
C355 C 0.97182 0.11017 0.23262 0.0
C356 C 0.88065 0.15925 0.30279 0.0
C357 C 0.86109 0.16299 0.33283 0.0
C358 C 0.83253 0.17635 0.32748 0.0
C359 C 0.85174 0.17259 0.29781 0.0
C360 C 0.88494 0.15426 0.32038 0.0
C361 C 0.82783 0.181 0.31008 0.0
C362 C 0.02517 0.10922 0.27168 0.0
C363 C 0.90669 0.15134 0.28959 0.0
H364 H 0.18532 0.15888 0.16796 0.0
H365 H 0.13838 0.14877 0.21776 0.0
H366 H 0.18726 0.16367 0.19937 0.0
H367 H 0.0828 0.12397 0.17305 0.0
H368 H 0.81358 0.18308 0.33678 0.0
H369 H 0.84768 0.17665 0.28439 0.0
H370 H 0.90726 0.14412 0.32442 0.0
H371 H 0.80568 0.19126 0.3061 0.0
Eu372 Eu 0.45654 0.35944 0.73658 0.0
C373 C 0.63259 0.366 0.75118 0.0
N374 N 0.61002 0.34914 0.75053 0.0
C375 C 0.65618 0.33089 0.73428 0.0
C376 C 0.66793 0.36598 0.74307 0.0
C377 C 0.62137 0.33164 0.74247 0.0
C378 C 0.67955 0.34815 0.73455 0.0
C379 C 0.64226 0.40147 0.7599 0.0
C380 C 0.61977 0.3836 0.75948 0.0
C381 C 0.67756 0.40143 0.75193 0.0
C382 C 0.69035 0.38375 0.74355 0.0
Eu383 Eu 0.5521 0.35177 0.76485 0.0
N384 N 0.58493 0.38342 0.76666 0.0
C385 C 0.62855 0.41893 0.76824 0.0
C386 C 0.57205 0.40022 0.7753 0.0
C387 C 0.59342 0.41824 0.77607 0.0
H388 H 0.60391 0.31807 0.74269 0.0
H389 H 0.58286 0.43156 0.78283 0.0
H390 H 0.39259 0.37936 0.76305 0.0
H391 H 0.45274 0.28603 0.70154 0.0
H392 H 0.5457 0.39985 0.7819 0.0
H393 H 0.64499 0.43295 0.76885 0.0
H394 H 0.47248 0.32158 0.70684 0.0
H395 H 0.66506 0.31697 0.72787 0.0
H396 H 0.69515 0.41503 0.75212 0.0
H397 H 0.71756 0.38401 0.73738 0.0
H398 H 0.3342 0.3686 0.77779 0.0
H399 H 0.7065 0.34754 0.72816 0.0
H400 H 0.40145 0.27073 0.71872 0.0
N401 N 0.40084 0.35039 0.75109 0.0
C402 C 0.38749 0.33107 0.74838 0.0
C403 C 0.34897 0.35789 0.7696 0.0
C404 C 0.35465 0.3242 0.75671 0.0
C405 C 0.38191 0.36395 0.76126 0.0
C406 C 0.33542 0.33788 0.76742 0.0
N407 N 0.4378 0.32549 0.72896 0.0
C408 C 0.45234 0.31471 0.71543 0.0
C409 C 0.39323 0.29813 0.73406 0.0
C410 C 0.40694 0.31814 0.73731 0.0
C411 C 0.41113 0.28615 0.7216 0.0
C412 C 0.44023 0.29468 0.71195 0.0
H413 H 0.31005 0.33318 0.77401 0.0
H414 H 0.31705 0.29837 0.76048 0.0
H415 H 0.35063 0.2756 0.74055 0.0
O416 O 0.4419 0.36432 0.7091 0.0
O417 O 0.45221 0.34464 0.7631 0.0
O418 O 0.50719 0.32731 0.76353 0.0
O419 O 0.41317 0.38112 0.72943 0.0
O420 O 0.50786 0.34537 0.7236 0.0
O421 O 0.53367 0.32724 0.74602 0.0
O422 O 0.55974 0.35092 0.79327 0.0
O423 O 0.55756 0.37063 0.74018 0.0
O424 O 0.49935 0.38511 0.73754 0.0
O425 O 0.58998 0.32983 0.77638 0.0
O426 O 0.50538 0.37013 0.77773 0.0
O427 O 0.46918 0.38462 0.75591 0.0
C428 C 0.47346 0.33019 0.76954 0.0
C429 C 0.39279 0.38868 0.70038 0.0
C430 C 0.37266 0.39545 0.67077 0.0
C431 C 0.34765 0.41032 0.67705 0.0
C432 C 0.36759 0.40366 0.70624 0.0
C433 C 0.3452 0.41436 0.69464 0.0
C434 C 0.39511 0.38453 0.68257 0.0
C435 C 0.52949 0.33056 0.72943 0.0
C436 C 0.41637 0.37773 0.71304 0.0
C437 C 0.34201 0.30399 0.75406 0.0
C438 C 0.36126 0.29099 0.74278 0.0
C439 C 0.53484 0.38423 0.73335 0.0
C440 C 0.6022 0.32573 0.8068 0.0
C441 C 0.61604 0.32281 0.83758 0.0
C442 C 0.63619 0.30474 0.83423 0.0
C443 C 0.62264 0.30764 0.80387 0.0
C444 C 0.59922 0.33341 0.82375 0.0
C445 C 0.63952 0.29729 0.81749 0.0
C446 C 0.48033 0.38347 0.77211 0.0
C447 C 0.58353 0.33583 0.79206 0.0
H448 H 0.32955 0.4187 0.66835 0.0
H449 H 0.36513 0.40718 0.71984 0.0
H450 H 0.3258 0.42581 0.6993 0.0
H451 H 0.41458 0.37309 0.6779 0.0
H452 H 0.64977 0.29645 0.8446 0.0
H453 H 0.62541 0.30133 0.79101 0.0
H454 H 0.58347 0.34729 0.82622 0.0
H455 H 0.65516 0.28338 0.81507 0.0
Eu456 Eu 0.04978 0.85287 0.73666 0.0
C457 C 0.88103 0.83533 0.75153 0.0
N458 N 0.89827 0.85386 0.74959 0.0
C459 C 0.84871 0.86551 0.73126 0.0
C460 C 0.84692 0.83108 0.74304 0.0
C461 C 0.88261 0.86899 0.73982 0.0
C462 C 0.83082 0.84647 0.73284 0.0
C463 C 0.88101 0.80095 0.76362 0.0
C464 C 0.89826 0.82036 0.76158 0.0
C465 C 0.84727 0.7966 0.75501 0.0
C466 C 0.83028 0.81162 0.74476 0.0
Eu467 Eu 0.95457 0.85865 0.76488 0.0
N468 N 0.93114 0.82491 0.76973 0.0
C469 C 0.89764 0.7866 0.77461 0.0
C470 C 0.9454 0.81159 0.78164 0.0
C471 C 0.92959 0.7921 0.78389 0.0
H472 H 0.89625 0.88378 0.73874 0.0
H473 H 0.94156 0.7815 0.7931 0.0
H474 H 0.10753 0.8274 0.76286 0.0
H475 H 0.06487 0.92998 0.70864 0.0
H476 H 0.96805 0.81602 0.79 0.0
H477 H 0.88524 0.77155 0.77652 0.0
H478 H 0.03881 0.89521 0.71107 0.0
H479 H 0.8364 0.8775 0.72346 0.0
H480 H 0.83382 0.78174 0.75637 0.0
H481 H 0.80419 0.80805 0.73826 0.0
H482 H 0.16538 0.83394 0.7796 0.0
H483 H 0.80465 0.84378 0.72611 0.0
H484 H 0.11911 0.94024 0.72654 0.0
N485 N 0.1055 0.85754 0.7525 0.0
C486 C 0.12246 0.87622 0.75112 0.0
C487 C 0.15351 0.84598 0.77171 0.0
C488 C 0.1554 0.88065 0.76047 0.0
C489 C 0.12071 0.84234 0.76233 0.0
C490 C 0.17083 0.86525 0.77086 0.0
N491 N 0.07405 0.88646 0.73195 0.0
C492 C 0.06065 0.89975 0.71983 0.0
C493 C 0.12283 0.91074 0.73932 0.0
C494 C 0.10597 0.89117 0.7408 0.0
C495 C 0.10698 0.92505 0.72806 0.0
C496 C 0.0762 0.91938 0.71802 0.0
H497 H 0.19611 0.86806 0.77824 0.0
H498 H 0.19676 0.90402 0.76651 0.0
H499 H 0.16845 0.9303 0.7479 0.0
O500 O 0.0625 0.85035 0.70882 0.0
O501 O 0.05296 0.86812 0.76303 0.0
O502 O 0.99676 0.88473 0.76538 0.0
O503 O 0.09245 0.83168 0.72771 0.0
O504 O 0.00046 0.86948 0.72413 0.0
O505 O 0.96937 0.88482 0.7469 0.0
O506 O 0.94106 0.86064 0.79271 0.0
O507 O 0.94998 0.84362 0.73839 0.0
O508 O 0.0064 0.8275 0.73642 0.0
O509 O 0.91186 0.87973 0.77391 0.0
O510 O 0.00463 0.8427 0.77739 0.0
O511 O 0.03367 0.82675 0.75446 0.0
C512 C 0.03274 0.88351 0.76855 0.0
C513 C 0.11018 0.8265 0.69788 0.0
C514 C 0.12861 0.82286 0.66767 0.0
C515 C 0.15147 0.80621 0.6723 0.0
C516 C 0.13334 0.80984 0.70212 0.0
C517 C 0.15382 0.79981 0.6894 0.0
C518 C 0.10809 0.83308 0.68059 0.0
C519 C 0.97779 0.8836 0.73041 0.0
C520 C 0.08793 0.83643 0.71158 0.0
C521 C 0.17159 0.90029 0.75934 0.0
C522 C 0.15536 0.91529 0.7488 0.0
C523 C 0.97163 0.82965 0.73145 0.0
C524 C 0.89266 0.88416 0.8036 0.0
C525 C 0.87071 0.88618 0.8334 0.0
C526 C 0.84616 0.90199 0.82858 0.0
C527 C 0.8679 0.90005 0.79917 0.0
C528 C 0.89431 0.87741 0.82086 0.0
C529 C 0.84495 0.90891 0.81161 0.0
C530 C 0.02698 0.82846 0.77107 0.0
C531 C 0.91556 0.87453 0.78997 0.0
H532 H 0.16796 0.79826 0.6627 0.0
H533 H 0.13549 0.80442 0.71529 0.0
H534 H 0.17158 0.787 0.69281 0.0
H535 H 0.09022 0.84585 0.67715 0.0
H536 H 0.82806 0.90914 0.83803 0.0
H537 H 0.86606 0.90562 0.78604 0.0
H538 H 0.91309 0.8651 0.82445 0.0
H539 H 0.826 0.92114 0.80805 0.0
Eu540 Eu 0.45177 0.64232 0.2377 0.0
C541 C 0.61719 0.66258 0.2493 0.0
N542 N 0.60253 0.64332 0.24797 0.0
C543 C 0.6509 0.63371 0.22821 0.0
C544 C 0.649 0.6683 0.23964 0.0
C545 C 0.61907 0.62879 0.23787 0.0
C546 C 0.66583 0.65358 0.22903 0.0
C547 C 0.61414 0.69686 0.26148 0.0
C548 C 0.59949 0.67676 0.25995 0.0
C549 C 0.64542 0.70271 0.25164 0.0
C550 C 0.66279 0.68848 0.24075 0.0
Eu551 Eu 0.54874 0.63634 0.26457 0.0
N552 N 0.56892 0.67074 0.26924 0.0
C553 C 0.5976 0.71033 0.27324 0.0
C554 C 0.55538 0.68318 0.28194 0.0
C555 C 0.56863 0.7033 0.28378 0.0
H556 H 0.6074 0.61345 0.23721 0.0
H557 H 0.55705 0.71323 0.2936 0.0
H558 H 0.39854 0.67333 0.26175 0.0
H559 H 0.42542 0.5633 0.21604 0.0
H560 H 0.53532 0.67758 0.29117 0.0
H561 H 0.60805 0.72587 0.27481 0.0
H562 H 0.45906 0.59611 0.21715 0.0
H563 H 0.6638 0.62223 0.2201 0.0
H564 H 0.65678 0.71814 0.25256 0.0
H565 H 0.68704 0.6932 0.23334 0.0
H566 H 0.33863 0.6719 0.27761 0.0
H567 H 0.69032 0.65739 0.22142 0.0
H568 H 0.36608 0.55889 0.23202 0.0
N569 N 0.39488 0.64249 0.25302 0.0
C570 C 0.37399 0.625 0.25221 0.0
C571 C 0.34835 0.65857 0.27061 0.0
C572 C 0.33944 0.62356 0.26093 0.0
C573 C 0.38247 0.65926 0.26182 0.0
C574 C 0.32678 0.64062 0.27022 0.0
N575 N 0.42171 0.60989 0.23509 0.0
C576 C 0.43446 0.59428 0.22495 0.0
C577 C 0.36706 0.58975 0.24242 0.0
C578 C 0.38788 0.60822 0.24312 0.0
C579 C 0.38125 0.57331 0.23288 0.0
C580 C 0.41485 0.57569 0.22394 0.0
H581 H 0.30039 0.64011 0.27709 0.0
H582 H 0.29237 0.60373 0.26701 0.0
H583 H 0.31644 0.5742 0.25076 0.0
O584 O 0.44171 0.64355 0.20949 0.0
O585 O 0.44831 0.62452 0.26302 0.0
O586 O 0.50686 0.61024 0.26611 0.0
O587 O 0.411 0.66345 0.22718 0.0
O588 O 0.49909 0.62444 0.22478 0.0
O589 O 0.53333 0.60985 0.24707 0.0
O590 O 0.56658 0.63451 0.29182 0.0
O591 O 0.54976 0.65023 0.23764 0.0
O592 O 0.49495 0.66781 0.23773 0.0
O593 O 0.59328 0.6155 0.27224 0.0
O594 O 0.49868 0.65071 0.27824 0.0
O595 O 0.46951 0.66762 0.25597 0.0
C596 C 0.47098 0.6108 0.26974 0.0
C597 C 0.39583 0.66762 0.19701 0.0
C598 C 0.37996 0.67075 0.16646 0.0
C599 C 0.35747 0.6878 0.17039 0.0
C600 C 0.37303 0.68467 0.20054 0.0
C601 C 0.35399 0.69462 0.18732 0.0
C602 C 0.39897 0.66055 0.17989 0.0
C603 C 0.52276 0.61061 0.23081 0.0
C604 C 0.41664 0.6579 0.21132 0.0
C605 C 0.31891 0.60514 0.26034 0.0
C606 C 0.33268 0.58829 0.25112 0.0
C607 C 0.52903 0.66533 0.23199 0.0
C608 C 0.61695 0.61153 0.30136 0.0
C609 C 0.64091 0.60916 0.33084 0.0
C610 C 0.66681 0.59436 0.32531 0.0
C611 C 0.64309 0.59667 0.29621 0.0
C612 C 0.61574 0.61761 0.31879 0.0
C613 C 0.66774 0.58814 0.30813 0.0
C614 C 0.47569 0.66494 0.27251 0.0
C615 C 0.5919 0.62079 0.28835 0.0
H616 H 0.3422 0.69574 0.16035 0.0
H617 H 0.37004 0.69047 0.21356 0.0
H618 H 0.33653 0.70773 0.19019 0.0
H619 H 0.41653 0.64747 0.17697 0.0
H620 H 0.68614 0.58742 0.33434 0.0
H621 H 0.64467 0.59166 0.28291 0.0
H622 H 0.59587 0.62915 0.32291 0.0
H623 H 0.68774 0.57669 0.30403 0.0
C624 C 0.14461 0.98294 0.37635 0.0
C625 C 0.15026 0.96347 0.36895 0.0
C626 C 0.13042 -0.00086 0.36648 0.0
C627 C 0.07873 0.00969 0.32588 0.0
H628 H 0.11917 0.06472 0.33127 0.0
C629 C 0.05 0.0739 0.27673 0.0
C630 C 0.04045 0.0933 0.28328 0.0
C631 C 0.06303 0.05851 0.2877 0.0
C632 C 0.10736 0.04947 0.32975 0.0
H633 H 0.14471 0.94577 0.34538 0.0
H634 H 0.12124 0.97404 0.32811 0.0
H635 H 0.14239 0.03695 0.34951 0.0
H636 H 0.03742 0.1119 0.3064 0.0
H637 H 0.06046 0.08492 0.32564 0.0
H638 H 0.04421 0.02215 0.30592 0.0
C639 C 0.12723 0.97678 0.3416 0.0
C640 C 0.12058 0.03356 0.34022 0.0
C641 C 0.14124 0.96061 0.35147 0.0
C642 C 0.04459 0.09707 0.30101 0.0
C643 C 0.05793 0.08169 0.31199 0.0
C644 C 0.06573 0.02555 0.31536 0.0
C645 C 0.12156 0.99626 0.34897 0.0
C646 C 0.10662 0.01343 0.33832 0.0
C647 C 0.06698 0.06218 0.30546 0.0
C648 C 0.08009 0.04557 0.31708 0.0
H649 H 0.15157 0.98576 0.38974 0.0
H650 H 0.12607 0.01388 0.37262 0.0
H651 H 0.06673 0.9945 0.3243 0.0
H652 H 0.04683 0.07047 0.26314 0.0
H653 H 0.07016 0.04371 0.28226 0.0
C654 C 0.338 0.52303 0.85397 0.0
C655 C 0.35444 0.52836 0.86985 0.0
C656 C 0.35093 0.50619 0.84458 0.0
C657 C 0.43324 0.47201 0.83999 0.0
H658 H 0.36391 0.43943 0.81275 0.0
C659 C 0.4774 0.39937 0.80169 0.0
C660 C 0.46519 0.39879 0.78443 0.0
C661 C 0.4635 0.41415 0.81309 0.0
C662 C 0.38359 0.44844 0.82026 0.0
H663 H 0.39734 0.51986 0.88831 0.0
H664 H 0.41891 0.49003 0.87225 0.0
H665 H 0.3401 0.46677 0.83113 0.0
H666 H 0.42828 0.41326 0.7658 0.0
H667 H 0.40374 0.43866 0.78575 0.0
H668 H 0.47667 0.45342 0.82913 0.0
C669 C 0.39648 0.49916 0.86688 0.0
C670 C 0.37001 0.46418 0.83075 0.0
C671 C 0.38374 0.51613 0.87622 0.0
C672 C 0.43834 0.41315 0.77897 0.0
C673 C 0.4241 0.42769 0.79042 0.0
C674 C 0.44677 0.4561 0.82963 0.0
C675 C 0.3804 0.49404 0.85087 0.0
C676 C 0.39469 0.4764 0.84056 0.0
C677 C 0.43665 0.42843 0.80757 0.0
C678 C 0.42213 0.44435 0.81947 0.0
H679 H 0.31499 0.53185 0.84876 0.0
H680 H 0.33814 0.50295 0.83221 0.0
H681 H 0.45318 0.48124 0.84714 0.0
H682 H 0.49794 0.38853 0.80638 0.0
H683 H 0.47348 0.4143 0.82628 0.0
C684 C 0.61748 0.52361 0.63425 0.0
C685 C 0.6558 0.52806 0.6325 0.0
C686 C 0.60552 0.5072 0.64452 0.0
C687 C 0.63763 0.47321 0.67999 0.0
H688 H 0.5496 0.44151 0.66739 0.0
C689 C 0.58836 0.40072 0.71734 0.0
C690 C 0.55004 0.40003 0.72146 0.0
C691 C 0.60236 0.41576 0.70615 0.0
C692 C 0.57413 0.4503 0.67111 0.0
H693 H 0.71169 0.51842 0.63963 0.0
H694 H 0.69096 0.48946 0.6572 0.0
H695 H 0.57225 0.46841 0.64814 0.0
H696 H 0.49624 0.4144 0.71666 0.0
H697 H 0.52064 0.44036 0.69702 0.0
H698 H 0.63958 0.45482 0.7029 0.0
C699 C 0.67002 0.49896 0.65105 0.0
C700 C 0.58706 0.46579 0.66011 0.0
C701 C 0.68194 0.5155 0.64093 0.0
C702 C 0.52596 0.41451 0.71389 0.0
C703 C 0.53986 0.42934 0.70254 0.0
C704 C 0.62489 0.45757 0.6909 0.0
C705 C 0.63162 0.4947 0.65313 0.0
C706 C 0.61877 0.4776 0.66449 0.0
C707 C 0.5782 0.43017 0.69859 0.0
C708 C 0.59278 0.44611 0.68666 0.0
H709 H 0.59669 0.53319 0.62808 0.0
H710 H 0.57572 0.50465 0.64602 0.0
H711 H 0.66176 0.48217 0.68395 0.0
H712 H 0.60761 0.38962 0.72263 0.0
H713 H 0.632 0.41591 0.70319 0.0
C714 C 0.83441 0.98424 0.13224 0.0
C715 C 0.84533 0.96411 0.13631 0.0
C716 C 0.8451 0.0007 0.14279 0.0
C717 C 0.88071 0.01209 0.18692 0.0
H718 H 0.90927 0.06441 0.16683 0.0
C719 C 0.96542 0.07362 0.22357 0.0
C720 C 0.95387 0.09411 0.22204 0.0
C721 C 0.94869 0.05829 0.21356 0.0
C722 C 0.90091 0.04996 0.17263 0.0
H723 H 0.87705 0.9455 0.15424 0.0
H724 H 0.89647 0.97413 0.17237 0.0
H725 H 0.88754 0.03661 0.14817 0.0
H726 H 0.91599 0.11478 0.20891 0.0
H727 H 0.88691 0.08791 0.19117 0.0
H728 H 0.89525 0.02532 0.21132 0.0
C729 C 0.87867 0.97725 0.16137 0.0
C730 C 0.8884 0.03402 0.16195 0.0
C731 C 0.86772 0.96082 0.15093 0.0
C732 C 0.92528 0.09905 0.21034 0.0
C733 C 0.90881 0.08373 0.20016 0.0
C734 C 0.89354 0.02794 0.19755 0.0
C735 C 0.86722 -0.00261 0.15756 0.0
C736 C 0.87859 0.01478 0.16894 0.0
C737 C 0.92045 0.06321 0.20165 0.0
C738 C 0.90418 0.04695 0.1905 0.0
H739 H 0.81684 0.98719 0.12113 0.0
H740 H 0.83541 0.01596 0.13954 0.0
H741 H 0.87253 -0.00232 0.19282 0.0
H742 H 0.98725 0.06941 0.23259 0.0
H743 H 0.95843 0.04263 0.21488 0.0
C744 C 0.86236 0.01154 0.62584 0.0
C745 C 0.85459 0.03049 0.63377 0.0
C746 C 0.87496 0.99484 0.63559 0.0
C747 C 0.87508 0.97445 0.67982 0.0
H748 H 0.95983 0.94207 0.66475 0.0
C749 C 0.94892 0.91801 0.72542 0.0
C750 C 0.96252 0.89946 0.71869 0.0
C751 C 0.93485 0.93318 0.7145 0.0
C752 C 0.93575 0.95074 0.66903 0.0
H753 H 0.8552 0.04679 0.6582 0.0
H754 H 0.8764 0.01762 0.67515 0.0
H755 H 0.93688 0.96997 0.64659 0.0
H756 H 0.97151 0.88212 0.69521 0.0
H757 H 0.94627 0.9085 0.67609 0.0
H758 H 0.87357 0.95526 0.70216 0.0
C759 C 0.8723 0.01562 0.66142 0.0
C760 C 0.92269 0.96676 0.65863 0.0
C761 C 0.86003 0.03233 0.65167 0.0
C762 C 0.96148 0.89633 0.70077 0.0
C763 C 0.94716 0.91149 0.68982 0.0
C764 C 0.88791 0.95837 0.69014 0.0
C765 C 0.87978 0.99667 0.65351 0.0
C766 C 0.89253 0.97896 0.66403 0.0
C767 C 0.93368 0.93013 0.69655 0.0
C768 C 0.91876 0.94647 0.68501 0.0
H769 H 0.85805 0.00945 0.61213 0.0
H770 H 0.88023 0.98036 0.62917 0.0
H771 H 0.85135 0.98335 0.68418 0.0
H772 H 0.94962 0.921 0.73915 0.0
H773 H 0.92544 0.94746 0.72015 0.0
C774 C 0.64232 0.48468 0.12563 0.0
C775 C 0.65235 0.46611 0.1337 0.0
C776 C 0.62872 0.50116 0.13534 0.0
C777 C 0.62999 0.52258 0.17906 0.0
H778 H 0.53948 0.55104 0.16551 0.0
C779 C 0.55457 0.57706 0.22555 0.0
C780 C 0.53772 0.59486 0.21893 0.0
C781 C 0.56904 0.56218 0.2145 0.0
C782 C 0.56513 0.5435 0.16935 0.0
H783 H 0.65478 0.4503 0.15833 0.0
H784 H 0.63207 0.47917 0.17519 0.0
H785 H 0.5642 0.52372 0.14723 0.0
H786 H 0.52305 0.61104 0.19546 0.0
H787 H 0.5491 0.5852 0.1761 0.0
H788 H 0.63143 0.54235 0.20103 0.0
C789 C 0.63507 0.48099 0.16138 0.0
C790 C 0.5792 0.52781 0.15889 0.0
C791 C 0.64824 0.46447 0.15169 0.0
C792 C 0.53567 0.59743 0.20096 0.0
C793 C 0.55047 0.58257 0.18987 0.0
C794 C 0.6162 0.53836 0.18942 0.0
C795 C 0.62525 0.49952 0.15333 0.0
C796 C 0.61146 0.517 0.16378 0.0
C797 C 0.56743 0.56477 0.19651 0.0
C798 C 0.58324 0.54882 0.18486 0.0
H799 H 0.64554 0.48662 0.11185 0.0
H800 H 0.6216 0.51534 0.12882 0.0
H801 H 0.65529 0.51474 0.183 0.0
H802 H 0.55632 0.57449 0.23932 0.0
H803 H 0.58111 0.54848 0.22011 0.0
C804 C 0.38821 0.46746 0.36442 0.0
C805 C 0.34993 0.46321 0.36657 0.0
C806 C 0.39993 0.48411 0.35439 0.0
C807 C 0.36668 0.52029 0.32061 0.0
H808 H 0.45663 0.55024 0.33336 0.0
C809 C 0.41772 0.59471 0.28624 0.0
C810 C 0.45553 0.59462 0.28119 0.0
C811 C 0.40342 0.57921 0.29689 0.0
C812 C 0.43153 0.54196 0.32962 0.0
H813 H 0.29385 0.47326 0.36023 0.0
H814 H 0.31418 0.50272 0.34311 0.0
H815 H 0.434 0.52256 0.3518 0.0
H816 H 0.50818 0.57829 0.28383 0.0
H817 H 0.48339 0.55166 0.3027 0.0
H818 H 0.3641 0.54012 0.29855 0.0
C819 C 0.33527 0.4929 0.34876 0.0
C820 C 0.41862 0.52601 0.34013 0.0
C821 C 0.32357 0.47607 0.35863 0.0
C822 C 0.47887 0.57888 0.28736 0.0
C823 C 0.46475 0.56362 0.29823 0.0
C824 C 0.37936 0.53645 0.31022 0.0
C825 C 0.37364 0.4971 0.34645 0.0
C826 C 0.3863 0.51476 0.33565 0.0
C827 C 0.42689 0.56359 0.30305 0.0
C828 C 0.41217 0.54724 0.31452 0.0
H829 H 0.40914 0.45763 0.37021 0.0
H830 H 0.42969 0.48655 0.35263 0.0
H831 H 0.34201 0.51183 0.31658 0.0
H832 H 0.3992 0.60684 0.28217 0.0
H833 H 0.37419 0.57966 0.30058 0.0
C834 C 0.13617 0.03391 0.84951 0.0
C835 C 0.16284 0.03079 0.86254 0.0
C836 C 0.12466 0.01764 0.839 0.0
C837 C 0.12275 0.96071 0.83655 0.0
H838 H 0.10032 0.97129 0.78843 0.0
C839 C 0.08326 0.89628 0.78824 0.0
C840 C 0.05091 0.90011 0.77847 0.0
C841 C 0.09984 0.91198 0.79793 0.0
C842 C 0.1064 0.96814 0.80186 0.0
H843 H 0.19868 0.00828 0.87472 0.0
H844 H 0.17918 0.97989 0.85615 0.0
H845 H 0.12394 -0.00093 0.80656 0.0
H846 H 0.01092 0.92336 0.77085 0.0
H847 H 0.0399 0.9508 0.78775 0.0
H848 H 0.10539 0.92969 0.83169 0.0
C849 C 0.1665 0.9948 0.85426 0.0
C850 C 0.11976 0.98406 0.81229 0.0
C851 C 0.17774 0.01106 0.86489 0.0
C852 C 0.03574 0.91996 0.77836 0.0
C853 C 0.05249 0.9357 0.78789 0.0
C854 C 0.10973 0.94474 0.82606 0.0
C855 C 0.13984 -0.0021 0.84115 0.0
C856 C 0.12758 0.98064 0.82984 0.0
C857 C 0.08451 0.93183 0.7979 0.0
C858 C 0.10094 0.94837 0.80868 0.0
H859 H 0.12383 0.0489 0.84756 0.0
H860 H 0.10347 0.02053 0.82932 0.0
H861 H 0.12798 0.95755 0.85004 0.0
H862 H 0.09534 0.88105 0.78866 0.0
H863 H 0.12464 0.90862 0.80545 0.0
C864 C 0.18374 0.13833 0.01279 0.0
C865 C 0.18762 0.11902 0.00488 0.0
C866 C 0.17441 0.13986 0.03023 0.0
C867 C 0.17407 0.11006 0.07097 0.0
H868 H 0.11021 0.15434 0.08658 0.0
C869 C 0.12793 0.11828 0.14216 0.0
C870 C 0.13333 0.13795 0.14922 0.0
C871 C 0.13073 0.11518 0.12435 0.0
C872 C 0.12815 0.14193 0.08241 0.0
H873 H 0.18482 0.08612 0.00928 0.0
H874 H 0.16737 0.08879 0.03954 0.0
H875 H 0.12259 0.15025 0.05586 0.0
H876 H 0.14425 0.16992 0.14316 0.0
H877 H 0.14892 0.16455 0.1121 0.0
H878 H 0.1795 0.10178 0.09758 0.0
C879 C 0.17214 0.10279 0.03231 0.0
C880 C 0.13541 0.13962 0.06481 0.0
C881 C 0.18171 0.10126 0.01487 0.0
C882 C 0.14026 0.15456 0.13808 0.0
C883 C 0.14264 0.15151 0.1203 0.0
C884 C 0.16655 0.11228 0.08856 0.0
C885 C 0.16841 0.12212 0.04023 0.0
C886 C 0.15892 0.12384 0.05888 0.0
C887 C 0.13848 0.13174 0.11325 0.0
C888 C 0.14394 0.12841 0.09449 0.0
H889 H 0.18754 0.15235 0.00547 0.0
H890 H 0.17235 0.15501 0.03591 0.0
H891 H 0.19271 0.0979 0.06693 0.0
H892 H 0.12275 0.10518 0.15046 0.0
H893 H 0.1271 0.0998 0.11926 0.0
C894 C 0.3342 0.35595 0.51619 0.0
C895 C 0.32947 0.37406 0.50654 0.0
C896 C 0.34022 0.35685 0.53403 0.0
C897 C 0.3271 0.39157 0.57136 0.0
H898 H 0.40045 0.35699 0.59395 0.0
C899 C 0.37395 0.40812 0.64034 0.0
C900 C 0.37447 0.39153 0.65192 0.0
C901 C 0.37069 0.40476 0.62265 0.0
C902 C 0.37965 0.36661 0.58782 0.0
H903 H 0.32684 0.4073 0.50821 0.0
H904 H 0.33824 0.4089 0.53902 0.0
H905 H 0.3893 0.35329 0.56293 0.0
H906 H 0.374 0.35832 0.65393 0.0
H907 H 0.36846 0.3524 0.6228 0.0
H908 H 0.31764 0.40504 0.59608 0.0
C909 C 0.33691 0.39395 0.53291 0.0
C910 C 0.37319 0.36447 0.57008 0.0
C911 C 0.33086 0.39305 0.51515 0.0
C912 C 0.37378 0.37141 0.64531 0.0
C913 C 0.37054 0.36802 0.62751 0.0
C914 C 0.33365 0.39376 0.58899 0.0
C915 C 0.34148 0.37589 0.54261 0.0
C916 C 0.34717 0.37714 0.5616 0.0
C917 C 0.36792 0.38471 0.61605 0.0
C918 C 0.36035 0.38152 0.59739 0.0
H919 H 0.3336 0.34108 0.50994 0.0
H920 H 0.34338 0.34264 0.54113 0.0
H921 H 0.30617 0.40122 0.56536 0.0
H922 H 0.37528 0.4238 0.645 0.0
H923 H 0.3697 0.41793 0.61412 0.0
C924 C 0.67825 0.38094 0.98529 0.0
C925 C 0.6736 0.36519 0.99754 0.0
C926 C 0.6688 0.37768 0.96798 0.0
C927 C 0.65496 0.33559 0.93661 0.0
H928 H 0.60693 0.37727 0.90864 0.0
C929 C 0.60384 0.31634 0.86879 0.0
C930 C 0.61337 0.33021 0.85562 0.0
C931 C 0.60726 0.32197 0.88606 0.0
C932 C 0.62058 0.36555 0.91626 0.0
H933 H 0.65395 0.33394 0.00127 0.0
H934 H 0.63737 0.32828 0.9712 0.0
H935 H 0.62123 0.38442 0.93894 0.0
H936 H 0.63186 0.36125 0.85015 0.0
H937 H 0.63818 0.37118 0.88053 0.0
H938 H 0.65462 0.31676 0.91408 0.0
C939 C 0.64911 0.34302 0.97486 0.0
C940 C 0.62882 0.36964 0.93361 0.0
C941 C 0.65863 0.34626 0.99212 0.0
C942 C 0.62421 0.3503 0.86007 0.0
C943 C 0.62784 0.35595 0.87745 0.0
C944 C 0.64671 0.33151 0.91936 0.0
C945 C 0.65443 0.3586 0.96253 0.0
C946 C 0.64591 0.35463 0.94402 0.0
C947 C 0.62055 0.3416 0.89063 0.0
C948 C 0.62916 0.34635 0.90899 0.0
H949 H 0.69001 0.39565 0.98902 0.0
H950 H 0.67363 0.38994 0.95879 0.0
H951 H 0.66895 0.32386 0.94409 0.0
H952 H 0.59485 0.30085 0.8657 0.0
H953 H 0.60045 0.31073 0.89588 0.0
C954 C 0.83291 0.11352 0.48503 0.0
C955 C 0.83194 0.13038 0.49637 0.0
C956 C 0.83984 0.11642 0.46742 0.0
C957 C 0.83223 0.15588 0.43372 0.0
H958 H 0.8971 0.12032 0.40713 0.0
C959 C 0.86597 0.1748 0.36338 0.0
C960 C 0.86559 0.15856 0.35147 0.0
C961 C 0.86574 0.17088 0.38107 0.0
C962 C 0.87861 0.13026 0.41433 0.0
H963 H 0.83923 0.16342 0.49814 0.0
H964 H 0.85089 0.16847 0.4675 0.0
H965 H 0.88887 0.1142 0.43803 0.0
H966 H 0.86617 0.12548 0.34867 0.0
H967 H 0.865 0.1185 0.3797 0.0
H968 H 0.82123 0.17173 0.41019 0.0
C969 C 0.84569 0.15303 0.47217 0.0
C970 C 0.87394 0.12677 0.43204 0.0
C971 C 0.83891 0.15014 0.48973 0.0
C972 C 0.86662 0.13827 0.35761 0.0
C973 C 0.866 0.13431 0.37538 0.0
C974 C 0.8367 0.1593 0.41608 0.0
C975 C 0.84582 0.13625 0.46076 0.0
C976 C 0.85086 0.13964 0.44194 0.0
C977 C 0.86464 0.1506 0.38732 0.0
C978 C 0.86015 0.14665 0.40615 0.0
H979 H 0.82729 0.09811 0.48965 0.0
H980 H 0.83943 0.1032 0.45894 0.0
H981 H 0.81362 0.16581 0.44089 0.0
H982 H 0.8658 0.1906 0.35899 0.0
H983 H 0.8658 0.18381 0.38985 0.0
C984 C 0.80447 0.86361 0.98492 0.0
C985 C 0.83273 0.86823 0.99694 0.0
C986 C 0.81254 0.86265 0.96731 0.0
C987 C 0.88173 0.88045 0.93503 0.0
H988 H 0.82925 0.84176 0.90554 0.0
C989 C 0.9044 0.87834 0.86108 0.0
C990 C 0.87096 0.87905 0.85156 0.0
C991 C 0.90359 0.87411 0.8788 0.0
C992 C 0.84414 0.85265 0.91362 0.0
H993 H 0.89188 0.87496 0.9999 0.0
H994 H 0.90611 0.87308 0.96916 0.0
H995 H 0.82071 0.84004 0.9367 0.0
H996 H 0.81083 0.87481 0.85278 0.0
H997 H 0.8094 0.86726 0.88356 0.0
H998 H 0.90481 0.89316 0.91185 0.0
C999 C 0.87752 0.87057 0.97332 0.0
C1000 C 0.83913 0.85174 0.93147 0.0
C1001 C 0.86938 0.87163 0.99094 0.0
C1002 C 0.83699 0.87448 0.85986 0.0
C1003 C 0.83622 0.87002 0.87745 0.0
C1004 C 0.88692 0.88127 0.91716 0.0
C1005 C 0.84914 0.86618 0.96125 0.0
C1006 C 0.85721 0.86592 0.9424 0.0
C1007 C 0.86939 0.8702 0.88721 0.0
C1008 C 0.86757 0.86765 0.90624 0.0
H1009 H 0.77583 0.86123 0.98908 0.0
H1010 H 0.78979 0.85965 0.95841 0.0
H1011 H 0.8958 0.89177 0.94298 0.0
H1012 H 0.93092 0.8819 0.85498 0.0
H1013 H 0.92962 0.87421 0.88597 0.0
C1014 C 0.70288 0.631 0.48338 0.0
C1015 C 0.67393 0.62651 0.49506 0.0
C1016 C 0.69579 0.63185 0.46567 0.0
C1017 C 0.62829 0.61373 0.43274 0.0
H1018 H 0.68185 0.65223 0.40352 0.0
C1019 C 0.6072 0.61588 0.35871 0.0
C1020 C 0.64066 0.61557 0.3492 0.0
C1021 C 0.60786 0.61984 0.37646 0.0
C1022 C 0.66671 0.64137 0.41151 0.0
H1023 H 0.61456 0.61999 0.49733 0.0
H1024 H 0.60205 0.62167 0.46643 0.0
H1025 H 0.68926 0.65414 0.43474 0.0
H1026 H 0.70072 0.62018 0.35058 0.0
H1027 H 0.7019 0.62713 0.38145 0.0
H1028 H 0.60607 0.60085 0.40944 0.0
C1029 C 0.63043 0.62414 0.47092 0.0
C1030 C 0.67105 0.6424 0.42941 0.0
C1031 C 0.63757 0.6232 0.48864 0.0
C1032 C 0.67453 0.62015 0.35762 0.0
C1033 C 0.67515 0.6243 0.37528 0.0
C1034 C 0.62379 0.61277 0.41484 0.0
C1035 C 0.65951 0.62833 0.45919 0.0
C1036 C 0.65246 0.62834 0.44024 0.0
C1037 C 0.64194 0.62383 0.38497 0.0
C1038 C 0.6435 0.62634 0.40401 0.0
H1039 H 0.73129 0.63333 0.48789 0.0
H1040 H 0.71903 0.63473 0.45703 0.0
H1041 H 0.61388 0.60248 0.44063 0.0
H1042 H 0.58072 0.61232 0.35255 0.0
H1043 H 0.58178 0.61954 0.38358 0.0
C1044 C 0.32487 0.61303 0.01788 0.0
C1045 C 0.32781 0.62914 0.00584 0.0
C1046 C 0.33361 0.61633 0.03527 0.0
C1047 C 0.34122 0.65819 0.0672 0.0
H1048 H 0.39537 0.61836 0.0947 0.0
C1049 C 0.38956 0.67852 0.13526 0.0
C1050 C 0.38281 0.66396 0.14826 0.0
C1051 C 0.38659 0.6731 0.11792 0.0
C1052 C 0.37997 0.62955 0.08721 0.0
H1053 H 0.34373 0.66109 0.00257 0.0
H1054 H 0.35888 0.66683 0.03278 0.0
H1055 H 0.38217 0.61111 0.0643 0.0
H1056 H 0.36964 0.63203 0.15334 0.0
H1057 H 0.36404 0.62248 0.12286 0.0
H1058 H 0.33865 0.67657 0.08996 0.0
C1059 C 0.34908 0.65176 0.02888 0.0
C1060 C 0.37237 0.6254 0.06981 0.0
C1061 C 0.34034 0.64847 0.01155 0.0
C1062 C 0.37512 0.64352 0.14355 0.0
C1063 C 0.3719 0.63809 0.12611 0.0
C1064 C 0.34878 0.66232 0.08451 0.0
C1065 C 0.34547 0.6358 0.041 0.0
C1066 C 0.35314 0.63977 0.05958 0.0
C1067 C 0.3765 0.653 0.11312 0.0
C1068 C 0.36852 0.64817 0.09471 0.0
H1069 H 0.31501 0.59799 0.01393 0.0
H1070 H 0.33017 0.60377 0.0443 0.0
H1071 H 0.32558 0.66938 0.05983 0.0
H1072 H 0.39613 0.69431 0.13854 0.0
H1073 H 0.39133 0.68483 0.10825 0.0
C1074 C 0.14717 0.87138 0.51423 0.0
C1075 C 0.18295 0.86722 0.50755 0.0
C1076 C 0.1393 0.86807 0.53169 0.0
C1077 C 0.17231 0.83765 0.56876 0.0
H1078 H 0.11025 0.87427 0.59578 0.0
C1079 C 0.12347 0.81456 0.63628 0.0
C1080 C 0.12699 0.82938 0.64934 0.0
C1081 C 0.12676 0.82009 0.61897 0.0
C1082 C 0.12775 0.86395 0.58842 0.0
H1083 H 0.23897 0.85722 0.51419 0.0
H1084 H 0.22532 0.85146 0.54456 0.0
H1085 H 0.12474 0.8828 0.56577 0.0
H1086 H 0.13493 0.86182 0.65449 0.0
H1087 H 0.14103 0.87156 0.62412 0.0
H1088 H 0.17605 0.819 0.59133 0.0
C1089 C 0.20308 0.85688 0.53625 0.0
C1090 C 0.13578 0.86874 0.57119 0.0
C1091 C 0.21091 0.86018 0.51883 0.0
C1092 C 0.13195 0.85008 0.64468 0.0
C1093 C 0.13544 0.85564 0.62729 0.0
C1094 C 0.16425 0.83286 0.58589 0.0
C1095 C 0.16705 0.86051 0.54286 0.0
C1096 C 0.15828 0.85566 0.56118 0.0
C1097 C 0.13387 0.8406 0.61426 0.0
C1098 C 0.14182 0.8459 0.59595 0.0
H1099 H 0.12489 0.87663 0.50586 0.0
H1100 H 0.11117 0.87082 0.53632 0.0
H1101 H 0.18931 0.82709 0.56138 0.0
H1102 H 0.11893 0.79854 0.63948 0.0
H1103 H 0.12443 0.8082 0.60926 0.0
C1104 C 0.21473 0.28131 0.36139 0.0
C1105 C 0.19479 0.29496 0.3719 0.0
C1106 C 0.19584 0.26671 0.35143 0.0
C1107 C 0.10271 0.24141 0.34514 0.0
H1108 H 0.14446 0.22891 0.30022 0.0
C1109 C 0.02538 0.1947 0.29166 0.0
C1110 C 0.04638 0.17867 0.28434 0.0
C1111 C 0.04233 0.20886 0.30283 0.0
C1112 C 0.13259 0.23221 0.31276 0.0
H1113 H 0.13961 0.304 0.38044 0.0
H1114 H 0.10628 0.27898 0.36259 0.0
H1115 H 0.176 0.25365 0.3188 0.0
H1116 H 0.10122 0.16442 0.28389 0.0
H1117 H 0.13095 0.18962 0.3026 0.0
H1118 H 0.0586 0.22026 0.33864 0.0
C1119 C 0.13658 0.27911 0.36233 0.0
C1120 C 0.15077 0.24628 0.3235 0.0
C1121 C 0.1556 0.29351 0.37253 0.0
C1122 C 0.08445 0.17694 0.28873 0.0
C1123 C 0.10149 0.19128 0.29959 0.0
C1124 C 0.08419 0.22755 0.33424 0.0
C1125 C 0.15644 0.26565 0.35147 0.0
C1126 C 0.13636 0.25092 0.33994 0.0
C1127 C 0.08065 0.2074 0.30671 0.0
C1128 C 0.09919 0.22269 0.31803 0.0
H1129 H 0.24503 0.28199 0.36085 0.0
H1130 H 0.21224 0.25629 0.34365 0.0
H1131 H 0.09096 0.24434 0.35775 0.0
H1132 H 0.99594 0.19643 0.28867 0.0
H1133 H 0.02568 0.22119 0.30816 0.0
C1134 C 0.35693 0.19862 0.87011 0.0
C1135 C 0.31774 0.19824 0.87135 0.0
C1136 C 0.37489 0.21348 0.86 0.0
C1137 C 0.35504 0.25037 0.8244 0.0
H1138 H 0.45363 0.27157 0.83584 0.0
C1139 C 0.42217 0.3194 0.78958 0.0
C1140 C 0.45777 0.31588 0.78251 0.0
C1141 C 0.40613 0.30532 0.80098 0.0
C1142 C 0.42617 0.26566 0.83249 0.0
H1143 H 0.26661 0.2135 0.8638 0.0
H1144 H 0.29777 0.24004 0.84686 0.0
H1145 H 0.42304 0.24709 0.8552 0.0
H1146 H 0.50555 0.29539 0.78278 0.0
H1147 H 0.47782 0.27104 0.80324 0.0
H1148 H 0.35788 0.26951 0.80197 0.0
C1149 C 0.3148 0.22846 0.85304 0.0
C1150 C 0.40864 0.25157 0.84351 0.0
C1151 C 0.29688 0.21338 0.86287 0.0
C1152 C 0.47786 0.29845 0.78783 0.0
C1153 C 0.4621 0.28455 0.79955 0.0
C1154 C 0.37226 0.2647 0.81358 0.0
C1155 C 0.35403 0.22849 0.85115 0.0
C1156 C 0.3728 0.24371 0.83961 0.0
C1157 C 0.42582 0.2877 0.80597 0.0
C1158 C 0.40796 0.27245 0.81751 0.0
H1159 H 0.37356 0.18696 0.87644 0.0
H1160 H 0.40504 0.21277 0.85872 0.0
H1161 H 0.32794 0.24432 0.82065 0.0
H1162 H 0.40655 0.33302 0.7863 0.0
H1163 H 0.37834 0.30827 0.80598 0.0
C1164 C 0.66896 0.19092 0.64693 0.0
C1165 C 0.68845 0.19596 0.63175 0.0
C1166 C 0.65007 0.20599 0.65629 0.0
C1167 C 0.64538 0.26251 0.6626 0.0
H1168 H 0.55363 0.24852 0.68669 0.0
C1169 C 0.55599 0.32194 0.7004 0.0
C1170 C 0.54593 0.31579 0.71713 0.0
C1171 C 0.57211 0.30788 0.68896 0.0
C1172 C 0.5793 0.25262 0.68007 0.0
H1173 H 0.70293 0.221 0.61449 0.0
H1174 H 0.6688 0.24714 0.63045 0.0
H1175 H 0.58342 0.22304 0.6683 0.0
H1176 H 0.54403 0.29013 0.73493 0.0
H1177 H 0.57166 0.26558 0.71492 0.0
H1178 H 0.64077 0.29223 0.67435 0.0
C1179 C 0.66878 0.23155 0.63533 0.0
C1180 C 0.59651 0.238 0.66958 0.0
C1181 C 0.68797 0.21647 0.62602 0.0
C1182 C 0.55172 0.29532 0.72213 0.0
C1183 C 0.56729 0.28123 0.71065 0.0
C1184 C 0.62788 0.27722 0.67296 0.0
C1185 C 0.64973 0.22654 0.65065 0.0
C1186 C 0.63013 0.24261 0.66092 0.0
C1187 C 0.57779 0.28736 0.69397 0.0
C1188 C 0.59497 0.27232 0.682 0.0
H1189 H 0.66815 0.17526 0.65163 0.0
H1190 H 0.63623 0.20154 0.66813 0.0
H1191 H 0.67146 0.26657 0.65634 0.0
H1192 H 0.55184 0.33766 0.69625 0.0
H1193 H 0.57979 0.31298 0.67615 0.0
C1194 C 0.79247 0.28781 0.1463 0.0
C1195 C 0.81271 0.30012 0.1347 0.0
C1196 C 0.81073 0.27324 0.15648 0.0
C1197 C 0.90133 0.24526 0.16131 0.0
H1198 H 0.86318 0.23551 0.20736 0.0
C1199 C 0.95898 0.18013 0.20435 0.0
C1200 C 0.95981 0.18309 0.22228 0.0
C1201 C 0.94185 0.19452 0.19357 0.0
C1202 C 0.87465 0.2382 0.19464 0.0
H1203 H 0.86787 0.30691 0.12461 0.0
H1204 H 0.90016 0.28203 0.1428 0.0
H1205 H 0.83264 0.26043 0.18896 0.0
H1206 H 0.94429 0.20374 0.24295 0.0
H1207 H 0.91584 0.22927 0.22417 0.0
H1208 H 0.94448 0.22377 0.16733 0.0
C1209 C 0.87 0.28312 0.14375 0.0
C1210 C 0.85661 0.25229 0.18391 0.0
C1211 C 0.85158 0.29746 0.13335 0.0
C1212 C 0.94382 0.20095 0.22919 0.0
C1213 C 0.92723 0.21552 0.21839 0.0
C1214 C 0.91972 0.23138 0.17214 0.0
C1215 C 0.84986 0.27087 0.15555 0.0
C1216 C 0.8695 0.25594 0.16703 0.0
C1217 C 0.92562 0.21242 0.20043 0.0
C1218 C 0.90655 0.22756 0.18895 0.0
H1219 H 0.76238 0.2894 0.14744 0.0
H1220 H 0.79403 0.2638 0.16504 0.0
H1221 H 0.91193 0.24741 0.14836 0.0
H1222 H 0.97071 0.1664 0.19865 0.0
H1223 H 0.94063 0.19131 0.17989 0.0
C1224 C 0.82944 0.69021 0.6481 0.0
C1225 C 0.8162 0.69465 0.63143 0.0
C1226 C 0.84818 0.70511 0.6578 0.0
C1227 C 0.86395 0.76162 0.66043 0.0
H1228 H 0.93932 0.74506 0.69353 0.0
C1229 C 0.91904 0.81732 0.71258 0.0
C1230 C 0.95586 0.81511 0.71863 0.0
C1231 C 0.90361 0.80304 0.70113 0.0
C1232 C 0.9188 0.7501 0.68419 0.0
H1233 H 0.8132 0.71841 0.61184 0.0
H1234 H 0.84769 0.74401 0.62836 0.0
H1235 H 0.91162 0.7196 0.67461 0.0
H1236 H 0.00628 0.79682 0.71644 0.0
H1237 H 0.98023 0.7726 0.6958 0.0
H1238 H 0.87247 0.7923 0.66945 0.0
C1239 C 0.84252 0.72914 0.63417 0.0
C1240 C 0.90232 0.73535 0.67349 0.0
C1241 C 0.8232 0.71431 0.62455 0.0
C1242 C 0.97755 0.79881 0.7123 0.0
C1243 C 0.96243 0.78477 0.70055 0.0
C1244 C 0.88093 0.77645 0.67093 0.0
C1245 C 0.85497 0.72482 0.65101 0.0
C1246 C 0.87423 0.74082 0.66164 0.0
C1247 C 0.92503 0.78647 0.69499 0.0
C1248 C 0.90824 0.77087 0.68314 0.0
H1249 H 0.82535 0.67516 0.65375 0.0
H1250 H 0.85673 0.70119 0.67077 0.0
H1251 H 0.84218 0.76648 0.65164 0.0
H1252 H 0.90199 0.83007 0.71668 0.0
H1253 H 0.87464 0.80487 0.69734 0.0
C1254 C 0.6492 0.80401 0.13991 0.0
C1255 C 0.68155 0.79909 0.13049 0.0
C1256 C 0.63128 0.78919 0.15002 0.0
C1257 C 0.62365 0.73305 0.15755 0.0
H1258 H 0.58906 0.75006 0.20271 0.0
C1259 C 0.57696 0.67526 0.20999 0.0
C1260 C 0.54513 0.6803 0.21972 0.0
C1261 C 0.59285 0.68954 0.1987 0.0
C1262 C 0.59817 0.74511 0.19006 0.0
H1263 H 0.72011 0.77464 0.12409 0.0
H1264 H 0.68899 0.74874 0.14185 0.0
H1265 H 0.6178 0.77519 0.18352 0.0
H1266 H 0.50451 0.70413 0.22499 0.0
H1267 H 0.53197 0.72903 0.20509 0.0
H1268 H 0.6043 0.70289 0.16423 0.0
C1269 C 0.67716 0.76401 0.14124 0.0
C1270 C 0.61461 0.75952 0.17904 0.0
C1271 C 0.69501 0.77884 0.13105 0.0
C1272 C 0.52911 0.69981 0.2177 0.0
C1273 C 0.54501 0.71413 0.20641 0.0
C1274 C 0.60728 0.71861 0.16861 0.0
C1275 C 0.64536 0.76908 0.15103 0.0
C1276 C 0.62752 0.75369 0.16263 0.0
C1277 C 0.57714 0.70918 0.19682 0.0
C1278 C 0.59434 0.72449 0.18499 0.0
H1279 H 0.63778 0.81939 0.1395 0.0
H1280 H 0.6064 0.79351 0.15708 0.0
H1281 H 0.63284 0.72808 0.14492 0.0
H1282 H 0.58957 0.66022 0.21107 0.0
H1283 H 0.61777 0.68531 0.19161 0.0
C1284 C 0.33775 0.80458 0.35548 0.0
C1285 C 0.32032 0.79968 0.37122 0.0
C1286 C 0.35644 0.78957 0.34599 0.0
C1287 C 0.36386 0.73299 0.34078 0.0
H1288 H 0.45127 0.74788 0.31382 0.0
C1289 C 0.45259 0.67416 0.30201 0.0
C1290 C 0.45967 0.67981 0.28484 0.0
C1291 C 0.43694 0.68828 0.31352 0.0
C1292 C 0.42682 0.74352 0.32126 0.0
H1293 H 0.30943 0.77496 0.38933 0.0
H1294 H 0.34333 0.74897 0.37312 0.0
H1295 H 0.42238 0.77337 0.3325 0.0
H1296 H 0.45668 0.70468 0.2663 0.0
H1297 H 0.42995 0.72938 0.28645 0.0
H1298 H 0.36888 0.70299 0.32957 0.0
C1299 C 0.34181 0.76438 0.36792 0.0
C1300 C 0.4101 0.75815 0.33191 0.0
C1301 C 0.32277 0.77939 0.37736 0.0
C1302 C 0.45133 0.69987 0.27944 0.0
C1303 C 0.43627 0.71405 0.29099 0.0
C1304 C 0.38091 0.71828 0.33026 0.0
C1305 C 0.35871 0.76923 0.35204 0.0
C1306 C 0.378 0.7532 0.34161 0.0
C1307 C 0.42879 0.7084 0.30813 0.0
C1308 C 0.41221 0.7235 0.3202 0.0
H1309 H 0.33706 0.82009 0.35044 0.0
H1310 H 0.36858 0.79389 0.33372 0.0
H1311 H 0.33892 0.72864 0.34784 0.0
H1312 H 0.45871 0.65877 0.30647 0.0
H1313 H 0.4316 0.68357 0.32669 0.0
C1314 C 0.17761 0.69008 0.85175 0.0
C1315 C 0.1921 0.69483 0.86816 0.0
C1316 C 0.15953 0.70502 0.8419 0.0
C1317 C 0.10838 0.75349 0.84428 0.0
H1318 H 0.13873 0.75962 0.79657 0.0
C1319 C 0.05037 0.81823 0.80035 0.0
C1320 C 0.04454 0.81348 0.78289 0.0
C1321 C 0.06838 0.80424 0.81125 0.0
C1322 C 0.12942 0.75795 0.80978 0.0
H1323 H 0.19824 0.7192 0.88709 0.0
H1324 H 0.16563 0.74512 0.87001 0.0
H1325 H 0.16928 0.73418 0.81469 0.0
H1326 H 0.05193 0.79015 0.76326 0.0
H1327 H 0.08202 0.76557 0.78227 0.0
H1328 H 0.06779 0.77686 0.8393 0.0
C1329 C 0.16854 0.72975 0.86483 0.0
C1330 C 0.14712 0.74341 0.82018 0.0
C1331 C 0.1871 0.71486 0.87462 0.0
C1332 C 0.05639 0.79435 0.77662 0.0
C1333 C 0.07393 0.7803 0.78753 0.0
C1334 C 0.09027 0.76789 0.83381 0.0
C1335 C 0.15498 0.72503 0.84828 0.0
C1336 C 0.13667 0.74093 0.8375 0.0
C1337 C 0.08058 0.78511 0.80496 0.0
C1338 C 0.10039 0.77022 0.81637 0.0
H1339 H 0.17999 0.67474 0.84648 0.0
H1340 H 0.1488 0.70086 0.8293 0.0
H1341 H 0.0996 0.7518 0.85757 0.0
H1342 H 0.04174 0.83293 0.8055 0.0
H1343 H 0.07338 0.80862 0.82452 0.0
loop_
_geom_bond_atom_site_label_1
_geom_bond_atom_site_label_2
_geom_bond_distance
_geom_bond_site_symmetry_2
_ccdc_geom_bond_type
C0 C1 1.384 . S
C0 H13 0.947 . S
C0 C35 1.382 . S
C1 C0 1.384 . S
C1 C2 1.378 . S
C2 C1 1.378 . S
C2 C3 1.378 . S
C2 H14 0.952 . S
C3 C2 1.378 . S
C3 H15 0.950 . S
C3 C34 1.383 . S
H4 C23 0.947 . S
H5 C24 0.946 . S
H6 C26 0.953 . S
H7 C27 0.945 . S
H8 C29 0.952 . S
H9 C30 0.949 . S
H10 C32 0.950 . S
H11 C33 0.948 . S
H12 C35 0.951 . S
H13 C0 0.947 . S
H14 C2 0.952 . S
H15 C3 0.950 . S
N16 C19 1.382 . S
N16 C21 1.363 . S
N17 C19 1.371 . S
N17 C20 1.372 . S
N18 C20 1.361 . S
N18 C21 1.377 . S
C19 N16 1.382 . S
C19 N17 1.371 . S
C19 C22 1.480 . S
C20 N17 1.372 . S
C20 N18 1.361 . S
C20 C28 1.457 . S
C21 N16 1.363 . S
C21 N18 1.377 . S
C21 C34 1.479 . S
C22 C19 1.480 . S
C22 C23 1.383 . S
C22 C27 1.385 . S
C23 H4 0.947 . S
C23 C22 1.383 . S
C23 C24 1.388 . S
C24 H5 0.946 . S
C24 C23 1.388 . S
C24 C25 1.384 . S
C25 C24 1.384 . S
C25 C26 1.377 . S
C26 H6 0.953 . S
C26 C25 1.377 . S
C26 C27 1.369 . S
C27 H7 0.945 . S
C27 C22 1.385 . S
C27 C26 1.369 . S
C28 C20 1.457 . S
C28 C29 1.372 . S
C28 C33 1.364 . S
C29 H8 0.952 . S
C29 C28 1.372 . S
C29 C30 1.389 . S
C30 H9 0.949 . S
C30 C29 1.389 . S
C30 C31 1.387 . S
C31 C30 1.387 . S
C31 C32 1.372 . S
C32 H10 0.950 . S
C32 C31 1.372 . S
C32 C33 1.379 . S
C33 H11 0.948 . S
C33 C28 1.364 . S
C33 C32 1.379 . S
C34 C3 1.383 . S
C34 C21 1.479 . S
C34 C35 1.398 . S
C35 C0 1.382 . S
C35 H12 0.951 . S
C35 C34 1.398 . S
C36 C37 1.384 . S
C36 H49 0.947 . S
C36 C71 1.382 . S
C37 C36 1.384 . S
C37 C38 1.378 . S
C38 C37 1.378 . S
C38 C39 1.378 . S
C38 H50 0.952 . S
C39 C38 1.378 . S
C39 H51 0.950 . S
C39 C70 1.383 . S
H40 C59 0.947 . S
H41 C60 0.946 . S
H42 C62 0.953 . S
H43 C63 0.945 . S
H44 C65 0.952 . S
H45 C66 0.949 . S
H46 C68 0.950 . S
H47 C69 0.948 . S
H48 C71 0.951 . S
H49 C36 0.947 . S
H50 C38 0.952 . S
H51 C39 0.950 . S
N52 C55 1.382 . S
N52 C57 1.363 . S
N53 C55 1.371 . S
N53 C56 1.372 . S
N54 C56 1.361 . S
N54 C57 1.377 . S
C55 N52 1.382 . S
C55 N53 1.371 . S
C55 C58 1.480 . S
C56 N53 1.372 . S
C56 N54 1.361 . S
C56 C64 1.457 . S
C57 N52 1.363 . S
C57 N54 1.377 . S
C57 C70 1.479 . S
C58 C55 1.480 . S
C58 C59 1.383 . S
C58 C63 1.385 . S
C59 H40 0.947 . S
C59 C58 1.383 . S
C59 C60 1.388 . S
C60 H41 0.946 . S
C60 C59 1.388 . S
C60 C61 1.384 . S
C61 C60 1.384 . S
C61 C62 1.377 . S
C62 H42 0.953 . S
C62 C61 1.377 . S
C62 C63 1.369 . S
C63 H43 0.945 . S
C63 C58 1.385 . S
C63 C62 1.369 . S
C64 C56 1.457 . S
C64 C65 1.372 . S
C64 C69 1.364 . S
C65 H44 0.952 . S
C65 C64 1.372 . S
C65 C66 1.389 . S
C66 H45 0.949 . S
C66 C65 1.389 . S
C66 C67 1.387 . S
C67 C66 1.387 . S
C67 C68 1.372 . S
C68 H46 0.950 . S
C68 C67 1.372 . S
C68 C69 1.379 . S
C69 H47 0.948 . S
C69 C64 1.364 . S
C69 C68 1.379 . S
C70 C39 1.383 . S
C70 C57 1.479 . S
C70 C71 1.398 . S
C71 C36 1.382 . S
C71 H48 0.951 . S
C71 C70 1.398 . S
C72 C73 1.384 . S
C72 H85 0.947 . S
C72 C107 1.382 . S
C73 C72 1.384 . S
C73 C74 1.378 . S
C74 C73 1.378 . S
C74 C75 1.378 . S
C74 H86 0.952 . S
C75 C74 1.378 . S
C75 H87 0.950 . S
C75 C106 1.383 . S
H76 C95 0.947 . S
H77 C96 0.946 . S
H78 C98 0.953 . S
H79 C99 0.945 . S
H80 C101 0.952 . S
H81 C102 0.949 . S
H82 C104 0.950 . S
H83 C105 0.948 . S
H84 C107 0.951 . S
H85 C72 0.947 . S
H86 C74 0.952 . S
H87 C75 0.950 . S
N88 C91 1.382 . S
N88 C93 1.363 . S
N89 C91 1.371 . S
N89 C92 1.372 . S
N90 C92 1.361 . S
N90 C93 1.377 . S
C91 N88 1.382 . S
C91 N89 1.371 . S
C91 C94 1.480 . S
C92 N89 1.372 . S
C92 N90 1.361 . S
C92 C100 1.457 . S
C93 N88 1.363 . S
C93 N90 1.377 . S
C93 C106 1.479 . S
C94 C91 1.480 . S
C94 C95 1.383 . S
C94 C99 1.385 . S
C95 H76 0.947 . S
C95 C94 1.383 . S
C95 C96 1.388 . S
C96 H77 0.946 . S
C96 C95 1.388 . S
C96 C97 1.384 . S
C97 C96 1.384 . S
C97 C98 1.377 . S
C98 H78 0.953 . S
C98 C97 1.377 . S
C98 C99 1.369 . S
C99 H79 0.945 . S
C99 C94 1.385 . S
C99 C98 1.369 . S
C100 C92 1.457 . S
C100 C101 1.372 . S
C100 C105 1.364 . S
C101 H80 0.952 . S
C101 C100 1.372 . S
C101 C102 1.389 . S
C102 H81 0.949 . S
C102 C101 1.389 . S
C102 C103 1.387 . S
C103 C102 1.387 . S
C103 C104 1.372 . S
C104 H82 0.950 . S
C104 C103 1.372 . S
C104 C105 1.379 . S
C105 H83 0.948 . S
C105 C100 1.364 . S
C105 C104 1.379 . S
C106 C75 1.383 . S
C106 C93 1.479 . S
C106 C107 1.398 . S
C107 C72 1.382 . S
C107 H84 0.951 . S
C107 C106 1.398 . S
C108 C109 1.384 . S
C108 H121 0.947 . S
C108 C143 1.382 . S
C109 C108 1.384 . S
C109 C110 1.378 . S
C110 C109 1.378 . S
C110 C111 1.378 . S
C110 H122 0.952 . S
C111 C110 1.378 . S
C111 H123 0.950 . S
C111 C142 1.383 . S
H112 C131 0.947 . S
H113 C132 0.946 . S
H114 C134 0.953 . S
H115 C135 0.945 . S
H116 C137 0.952 . S
H117 C138 0.949 . S
H118 C140 0.950 . S
H119 C141 0.948 . S
H120 C143 0.951 . S
H121 C108 0.947 . S
H122 C110 0.952 . S
H123 C111 0.950 . S
N124 C127 1.382 . S
N124 C129 1.363 . S
N125 C127 1.371 . S
N125 C128 1.372 . S
N126 C128 1.361 . S
N126 C129 1.377 . S
C127 N124 1.382 . S
C127 N125 1.371 . S
C127 C130 1.480 . S
C128 N125 1.372 . S
C128 N126 1.361 . S
C128 C136 1.457 . S
C129 N124 1.363 . S
C129 N126 1.377 . S
C129 C142 1.479 . S
C130 C127 1.480 . S
C130 C131 1.383 . S
C130 C135 1.385 . S
C131 H112 0.947 . S
C131 C130 1.383 . S
C131 C132 1.388 . S
C132 H113 0.946 . S
C132 C131 1.388 . S
C132 C133 1.384 . S
C133 C132 1.384 . S
C133 C134 1.377 . S
C134 H114 0.953 . S
C134 C133 1.377 . S
C134 C135 1.369 . S
C135 H115 0.945 . S
C135 C130 1.385 . S
C135 C134 1.369 . S
C136 C128 1.457 . S
C136 C137 1.372 . S
C136 C141 1.364 . S
C137 H116 0.952 . S
C137 C136 1.372 . S
C137 C138 1.389 . S
C138 H117 0.949 . S
C138 C137 1.389 . S
C138 C139 1.387 . S
C139 C138 1.387 . S
C139 C140 1.372 . S
C140 H118 0.950 . S
C140 C139 1.372 . S
C140 C141 1.379 . S
C141 H119 0.948 . S
C141 C136 1.364 . S
C141 C140 1.379 . S
C142 C111 1.383 . S
C142 C129 1.479 . S
C142 C143 1.398 . S
C143 C108 1.382 . S
C143 H120 0.951 . S
C143 C142 1.398 . S
C144 C145 1.384 . S
C144 H157 0.947 . S
C144 C179 1.382 . S
C145 C144 1.384 . S
C145 C146 1.378 . S
C146 C145 1.378 . S
C146 C147 1.378 . S
C146 H158 0.952 . S
C147 C146 1.378 . S
C147 H159 0.950 . S
C147 C178 1.383 . S
H148 C167 0.947 . S
H149 C168 0.946 . S
H150 C170 0.953 . S
H151 C171 0.945 . S
H152 C173 0.952 . S
H153 C174 0.949 . S
H154 C176 0.950 . S
H155 C177 0.948 . S
H156 C179 0.951 . S
H157 C144 0.947 . S
H158 C146 0.952 . S
H159 C147 0.950 . S
N160 C163 1.382 . S
N160 C165 1.363 . S
N161 C163 1.371 . S
N161 C164 1.372 . S
N162 C164 1.361 . S
N162 C165 1.377 . S
C163 N160 1.382 . S
C163 N161 1.371 . S
C163 C166 1.480 . S
C164 N161 1.372 . S
C164 N162 1.361 . S
C164 C172 1.457 . S
C165 N160 1.363 . S
C165 N162 1.377 . S
C165 C178 1.479 . S
C166 C163 1.480 . S
C166 C167 1.383 . S
C166 C171 1.385 . S
C167 H148 0.947 . S
C167 C166 1.383 . S
C167 C168 1.388 . S
C168 H149 0.946 . S
C168 C167 1.388 . S
C168 C169 1.384 . S
C169 C168 1.384 . S
C169 C170 1.377 . S
C170 H150 0.953 . S
C170 C169 1.377 . S
C170 C171 1.369 . S
C171 H151 0.945 . S
C171 C166 1.385 . S
C171 C170 1.369 . S
C172 C164 1.457 . S
C172 C173 1.372 . S
C172 C177 1.364 . S
C173 H152 0.952 . S
C173 C172 1.372 . S
C173 C174 1.389 . S
C174 H153 0.949 . S
C174 C173 1.389 . S
C174 C175 1.387 . S
C175 C174 1.387 . S
C175 C176 1.372 . S
C176 H154 0.950 . S
C176 C175 1.372 . S
C176 C177 1.379 . S
C177 H155 0.948 . S
C177 C172 1.364 . S
C177 C176 1.379 . S
C178 C147 1.383 . S
C178 C165 1.479 . S
C178 C179 1.398 . S
C179 C144 1.382 . S
C179 H156 0.951 . S
C179 C178 1.398 . S
C180 C181 1.384 . S
C180 H193 0.947 . S
C180 C215 1.382 . S
C181 C180 1.384 . S
C181 C182 1.378 . S
C182 C181 1.378 . S
C182 C183 1.378 . S
C182 H194 0.952 . S
C183 C182 1.378 . S
C183 H195 0.950 . S
C183 C214 1.383 . S
H184 C203 0.947 . S
H185 C204 0.946 . S
H186 C206 0.953 . S
H187 C207 0.945 . S
H188 C209 0.952 . S
H189 C210 0.949 . S
H190 C212 0.950 . S
H191 C213 0.948 . S
H192 C215 0.951 . S
H193 C180 0.947 . S
H194 C182 0.952 . S
H195 C183 0.950 . S
N196 C199 1.382 . S
N196 C201 1.363 . S
N197 C199 1.371 . S
N197 C200 1.372 . S
N198 C200 1.361 . S
N198 C201 1.377 . S
C199 N196 1.382 . S
C199 N197 1.371 . S
C199 C202 1.480 . S
C200 N197 1.372 . S
C200 N198 1.361 . S
C200 C208 1.457 . S
C201 N196 1.363 . S
C201 N198 1.377 . S
C201 C214 1.479 . S
C202 C199 1.480 . S
C202 C203 1.383 . S
C202 C207 1.385 . S
C203 H184 0.947 . S
C203 C202 1.383 . S
C203 C204 1.388 . S
C204 H185 0.946 . S
C204 C203 1.388 . S
C204 C205 1.384 . S
C205 C204 1.384 . S
C205 C206 1.377 . S
C206 H186 0.953 . S
C206 C205 1.377 . S
C206 C207 1.369 . S
C207 H187 0.945 . S
C207 C202 1.385 . S
C207 C206 1.369 . S
C208 C200 1.457 . S
C208 C209 1.372 . S
C208 C213 1.364 . S
C209 H188 0.952 . S
C209 C208 1.372 . S
C209 C210 1.389 . S
C210 H189 0.949 . S
C210 C209 1.389 . S
C210 C211 1.387 . S
C211 C210 1.387 . S
C211 C212 1.372 . S
C212 H190 0.950 . S
C212 C211 1.372 . S
C212 C213 1.379 . S
C213 H191 0.948 . S
C213 C208 1.364 . S
C213 C212 1.379 . S
C214 C183 1.383 . S
C214 C201 1.479 . S
C214 C215 1.398 . S
C215 C180 1.382 . S
C215 H192 0.951 . S
C215 C214 1.398 . S
C216 C217 1.384 . S
C216 H229 0.947 . S
C216 C251 1.382 . S
C217 C216 1.384 . S
C217 C218 1.378 . S
C218 C217 1.378 . S
C218 C219 1.378 . S
C218 H230 0.952 . S
C219 C218 1.378 . S
C219 H231 0.950 . S
C219 C250 1.383 . S
H220 C239 0.947 . S
H221 C240 0.946 . S
H222 C242 0.953 . S
H223 C243 0.945 . S
H224 C245 0.952 . S
H225 C246 0.949 . S
H226 C248 0.950 . S
H227 C249 0.948 . S
H228 C251 0.951 . S
H229 C216 0.947 . S
H230 C218 0.952 . S
H231 C219 0.950 . S
N232 C235 1.382 . S
N232 C237 1.363 . S
N233 C235 1.371 . S
N233 C236 1.372 . S
N234 C236 1.361 . S
N234 C237 1.377 . S
C235 N232 1.382 . S
C235 N233 1.371 . S
C235 C238 1.480 . S
C236 N233 1.372 . S
C236 N234 1.361 . S
C236 C244 1.457 . S
C237 N232 1.363 . S
C237 N234 1.377 . S
C237 C250 1.479 . S
C238 C235 1.480 . S
C238 C239 1.383 . S
C238 C243 1.385 . S
C239 H220 0.947 . S
C239 C238 1.383 . S
C239 C240 1.388 . S
C240 H221 0.946 . S
C240 C239 1.388 . S
C240 C241 1.384 . S
C241 C240 1.384 . S
C241 C242 1.377 . S
C242 H222 0.953 . S
C242 C241 1.377 . S
C242 C243 1.369 . S
C243 H223 0.945 . S
C243 C238 1.385 . S
C243 C242 1.369 . S
C244 C236 1.457 . S
C244 C245 1.372 . S
C244 C249 1.364 . S
C245 H224 0.952 . S
C245 C244 1.372 . S
C245 C246 1.389 . S
C246 H225 0.949 . S
C246 C245 1.389 . S
C246 C247 1.387 . S
C247 C246 1.387 . S
C247 C248 1.372 . S
C248 H226 0.950 . S
C248 C247 1.372 . S
C248 C249 1.379 . S
C249 H227 0.948 . S
C249 C244 1.364 . S
C249 C248 1.379 . S
C250 C219 1.383 . S
C250 C237 1.479 . S
C250 C251 1.398 . S
C251 C216 1.382 . S
C251 H228 0.951 . S
C251 C250 1.398 . S
C252 C253 1.384 . S
C252 H265 0.947 . S
C252 C287 1.382 . S
C253 C252 1.384 . S
C253 C254 1.378 . S
C254 C253 1.378 . S
C254 C255 1.378 . S
C254 H266 0.952 . S
C255 C254 1.378 . S
C255 H267 0.950 . S
C255 C286 1.383 . S
H256 C275 0.947 . S
H257 C276 0.946 . S
H258 C278 0.953 . S
H259 C279 0.945 . S
H260 C281 0.952 . S
H261 C282 0.949 . S
H262 C284 0.950 . S
H263 C285 0.948 . S
H264 C287 0.951 . S
H265 C252 0.947 . S
H266 C254 0.952 . S
H267 C255 0.950 . S
N268 C271 1.382 . S
N268 C273 1.363 . S
N269 C271 1.371 . S
N269 C272 1.372 . S
N270 C272 1.361 . S
N270 C273 1.377 . S
C271 N268 1.382 . S
C271 N269 1.371 . S
C271 C274 1.480 . S
C272 N269 1.372 . S
C272 N270 1.361 . S
C272 C280 1.457 . S
C273 N268 1.363 . S
C273 N270 1.377 . S
C273 C286 1.479 . S
C274 C271 1.480 . S
C274 C275 1.383 . S
C274 C279 1.385 . S
C275 H256 0.947 . S
C275 C274 1.383 . S
C275 C276 1.388 . S
C276 H257 0.946 . S
C276 C275 1.388 . S
C276 C277 1.384 . S
C277 C276 1.384 . S
C277 C278 1.377 . S
C278 H258 0.953 . S
C278 C277 1.377 . S
C278 C279 1.369 . S
C279 H259 0.945 . S
C279 C274 1.385 . S
C279 C278 1.369 . S
C280 C272 1.457 . S
C280 C281 1.372 . S
C280 C285 1.364 . S
C281 H260 0.952 . S
C281 C280 1.372 . S
C281 C282 1.389 . S
C282 H261 0.949 . S
C282 C281 1.389 . S
C282 C283 1.387 . S
C283 C282 1.387 . S
C283 C284 1.372 . S
C284 H262 0.950 . S
C284 C283 1.372 . S
C284 C285 1.379 . S
C285 H263 0.948 . S
C285 C280 1.364 . S
C285 C284 1.379 . S
C286 C255 1.383 . S
C286 C273 1.479 . S
C286 C287 1.398 . S
C287 C252 1.382 . S
C287 H264 0.951 . S
C287 C286 1.398 . S
Eu288 N317 2.600 . S
Eu288 N323 2.562 . S
Eu288 O332 2.462 . S
Eu288 O333 2.373 . S
Eu288 O335 2.432 . S
Eu288 O336 2.291 . S
Eu288 O340 2.335 . S
Eu288 O343 2.372 . S
Eu288 C352 2.787 . S
C289 N290 1.365 . S
C289 C292 1.405 . S
C289 C296 1.448 . S
N290 C289 1.365 . S
N290 C293 1.319 . S
N290 Eu299 2.600 . S
C291 C293 1.397 . S
C291 C294 1.367 . S
C291 H311 0.931 . S
C292 C289 1.405 . S
C292 C294 1.403 . S
C292 C298 1.439 . S
C293 N290 1.319 . S
C293 C291 1.397 . S
C293 H304 0.930 . S
C294 C291 1.367 . S
C294 C292 1.403 . S
C294 H315 0.929 . S
C295 C296 1.430 . S
C295 C297 1.387 . S
C295 C301 1.404 . S
C296 C289 1.448 . S
C296 C295 1.430 . S
C296 N300 1.351 . S
C297 C295 1.387 . S
C297 C298 1.374 . S
C297 H312 0.931 . S
C298 C292 1.439 . S
C298 C297 1.374 . S
C298 H313 0.931 . S
Eu299 N290 2.600 . S
Eu299 N300 2.562 . S
Eu299 O334 2.320 1_655 S
Eu299 O337 2.372 . S
Eu299 O338 2.462 . S
Eu299 O339 2.373 . S
Eu299 O341 2.432 . S
Eu299 O342 2.291 1_655 S
Eu299 C363 2.787 . S
N300 C296 1.351 . S
N300 Eu299 2.562 . S
N300 C302 1.325 . S
C301 C295 1.404 . S
C301 C303 1.366 . S
C301 H309 0.930 . S
C302 N300 1.325 . S
C302 C303 1.416 . S
C302 H308 0.929 . S
C303 C301 1.366 . S
C303 C302 1.416 . S
C303 H305 0.930 . S
H304 C293 0.930 . S
H305 C303 0.930 . S
H306 C321 0.930 . S
H307 C328 0.930 . S
H308 C302 0.929 . S
H309 C301 0.930 . S
H310 C324 0.929 . S
H311 C291 0.931 . S
H312 C297 0.931 . S
H313 C298 0.931 . S
H314 C319 0.931 . S
H315 C294 0.929 . S
H316 C327 0.930 . S
N317 Eu288 2.600 . S
N317 C318 1.365 . S
N317 C321 1.319 . S
C318 N317 1.365 . S
C318 C320 1.405 . S
C318 C326 1.448 . S
C319 H314 0.931 . S
C319 C321 1.397 . S
C319 C322 1.367 . S
C320 C318 1.405 . S
C320 C322 1.403 . S
C320 C353 1.439 . S
C321 H306 0.930 . S
C321 N317 1.319 . S
C321 C319 1.397 . S
C322 C319 1.367 . S
C322 C320 1.403 . S
C322 H329 0.929 . S
N323 Eu288 2.562 . S
N323 C324 1.325 . S
N323 C326 1.351 . S
C324 H310 0.929 . S
C324 N323 1.325 . S
C324 C328 1.416 . S
C325 C326 1.430 . S
C325 C327 1.404 . S
C325 C354 1.387 . S
C326 C318 1.448 . S
C326 N323 1.351 . S
C326 C325 1.430 . S
C327 H316 0.930 . S
C327 C325 1.404 . S
C327 C328 1.366 . S
C328 H307 0.930 . S
C328 C324 1.416 . S
C328 C327 1.366 . S
H329 C322 0.929 . S
H330 C353 0.931 . S
H331 C354 0.931 . S
O332 Eu288 2.462 . S
O332 C352 1.252 . S
O333 Eu288 2.373 . S
O333 C344 1.249 . S
O334 Eu299 2.320 1_455 S
O334 C344 1.283 . S
O335 Eu288 2.432 . S
O335 C352 1.268 . S
O336 Eu288 2.291 . S
O336 C351 1.255 1_455 S
O337 Eu299 2.372 . S
O337 C351 1.257 . S
O338 Eu299 2.462 . S
O338 C363 1.252 . S
O339 Eu299 2.373 . S
O339 C355 1.249 . S
O340 Eu288 2.335 . S
O340 C355 1.264 1_455 S
O341 Eu299 2.432 . S
O341 C363 1.268 . S
O342 Eu299 2.291 1_455 S
O342 C362 1.255 . S
O343 Eu288 2.372 . S
O343 C362 1.257 . S
C344 O333 1.249 . S
C344 O334 1.283 . S
C345 C348 1.382 . S
C345 C350 1.390 . S
C345 C352 1.506 . S
C346 C347 1.398 . S
C346 C350 1.392 . S
C347 C346 1.398 . S
C347 C349 1.372 . S
C347 H364 0.931 . S
C348 C345 1.382 . S
C348 C349 1.390 . S
C348 H365 0.931 . S
C349 C347 1.372 . S
C349 C348 1.390 . S
C349 H366 0.929 . S
C350 C345 1.390 . S
C350 C346 1.392 . S
C350 H367 0.930 . S
C351 O336 1.255 1_655 S
C351 O337 1.257 . S
C352 Eu288 2.787 . S
C352 O332 1.252 . S
C352 O335 1.268 . S
C352 C345 1.506 . S
C353 C320 1.439 . S
C353 H330 0.931 . S
C353 C354 1.374 . S
C354 C325 1.387 . S
C354 H331 0.931 . S
C354 C353 1.374 . S
C355 O339 1.249 . S
C355 O340 1.264 1_655 S
C356 C359 1.382 . S
C356 C360 1.390 . S
C356 C363 1.506 . S
C357 C358 1.398 . S
C357 C360 1.392 . S
C358 C357 1.398 . S
C358 C361 1.372 . S
C358 H368 0.931 . S
C359 C356 1.382 . S
C359 C361 1.390 . S
C359 H369 0.931 . S
C360 C356 1.390 . S
C360 C357 1.392 . S
C360 H370 0.930 . S
C361 C358 1.372 . S
C361 C359 1.390 . S
C361 H371 0.929 . S
C362 O342 1.255 . S
C362 O343 1.257 . S
C363 Eu299 2.787 . S
C363 O338 1.252 . S
C363 O341 1.268 . S
C363 C356 1.506 . S
H364 C347 0.931 . S
H365 C348 0.931 . S
H366 C349 0.929 . S
H367 C350 0.930 . S
H368 C358 0.931 . S
H369 C359 0.931 . S
H370 C360 0.930 . S
H371 C361 0.929 . S
Eu372 N401 2.600 . S
Eu372 N407 2.562 . S
Eu372 O416 2.462 . S
Eu372 O417 2.373 . S
Eu372 O419 2.432 . S
Eu372 O420 2.291 . S
Eu372 O424 2.335 . S
Eu372 O427 2.372 . S
Eu372 C436 2.787 . S
C373 N374 1.365 . S
C373 C376 1.405 . S
C373 C380 1.448 . S
N374 C373 1.365 . S
N374 C377 1.319 . S
N374 Eu383 2.600 . S
C375 C377 1.397 . S
C375 C378 1.367 . S
C375 H395 0.931 . S
C376 C373 1.405 . S
C376 C378 1.403 . S
C376 C382 1.439 . S
C377 N374 1.319 . S
C377 C375 1.397 . S
C377 H388 0.930 . S
C378 C375 1.367 . S
C378 C376 1.403 . S
C378 H399 0.929 . S
C379 C380 1.430 . S
C379 C381 1.387 . S
C379 C385 1.404 . S
C380 C373 1.448 . S
C380 C379 1.430 . S
C380 N384 1.351 . S
C381 C379 1.387 . S
C381 C382 1.374 . S
C381 H396 0.931 . S
C382 C376 1.439 . S
C382 C381 1.374 . S
C382 H397 0.931 . S
Eu383 N374 2.600 . S
Eu383 N384 2.562 . S
Eu383 O418 2.335 . S
Eu383 O421 2.372 . S
Eu383 O422 2.462 . S
Eu383 O423 2.373 . S
Eu383 O425 2.432 . S
Eu383 O426 2.291 . S
Eu383 C447 2.787 . S
N384 C380 1.351 . S
N384 Eu383 2.562 . S
N384 C386 1.325 . S
C385 C379 1.404 . S
C385 C387 1.366 . S
C385 H393 0.930 . S
C386 N384 1.325 . S
C386 C387 1.416 . S
C386 H392 0.929 . S
C387 C385 1.366 . S
C387 C386 1.416 . S
C387 H389 0.930 . S
H388 C377 0.930 . S
H389 C387 0.930 . S
H390 C405 0.930 . S
H391 C412 0.930 . S
H392 C386 0.929 . S
H393 C385 0.930 . S
H394 C408 0.929 . S
H395 C375 0.931 . S
H396 C381 0.931 . S
H397 C382 0.931 . S
H398 C403 0.931 . S
H399 C378 0.929 . S
H400 C411 0.930 . S
N401 Eu372 2.600 . S
N401 C402 1.365 . S
N401 C405 1.319 . S
C402 N401 1.365 . S
C402 C404 1.405 . S
C402 C410 1.448 . S
C403 H398 0.931 . S
C403 C405 1.397 . S
C403 C406 1.367 . S
C404 C402 1.405 . S
C404 C406 1.403 . S
C404 C437 1.439 . S
C405 H390 0.930 . S
C405 N401 1.319 . S
C405 C403 1.397 . S
C406 C403 1.367 . S
C406 C404 1.403 . S
C406 H413 0.929 . S
N407 Eu372 2.562 . S
N407 C408 1.325 . S
N407 C410 1.351 . S
C408 H394 0.929 . S
C408 N407 1.325 . S
C408 C412 1.416 . S
C409 C410 1.430 . S
C409 C411 1.404 . S
C409 C438 1.387 . S
C410 C402 1.448 . S
C410 N407 1.351 . S
C410 C409 1.430 . S
C411 H400 0.930 . S
C411 C409 1.404 . S
C411 C412 1.366 . S
C412 H391 0.930 . S
C412 C408 1.416 . S
C412 C411 1.366 . S
H413 C406 0.929 . S
H414 C437 0.931 . S
H415 C438 0.931 . S
O416 Eu372 2.462 . S
O416 C436 1.252 . S
O417 Eu372 2.373 . S
O417 C428 1.249 . S
O418 Eu383 2.335 . S
O418 C428 1.264 . S
O419 Eu372 2.432 . S
O419 C436 1.268 . S
O420 Eu372 2.291 . S
O420 C435 1.255 . S
O421 Eu383 2.372 . S
O421 C435 1.257 . S
O422 Eu383 2.462 . S
O422 C447 1.252 . S
O423 Eu383 2.373 . S
O423 C439 1.249 . S
O424 Eu372 2.335 . S
O424 C439 1.264 . S
O425 Eu383 2.432 . S
O425 C447 1.268 . S
O426 Eu383 2.291 . S
O426 C446 1.255 . S
O427 Eu372 2.372 . S
O427 C446 1.257 . S
C428 O417 1.249 . S
C428 O418 1.264 . S
C429 C432 1.382 . S
C429 C434 1.390 . S
C429 C436 1.506 . S
C430 C431 1.398 . S
C430 C434 1.392 . S
C431 C430 1.398 . S
C431 C433 1.372 . S
C431 H448 0.931 . S
C432 C429 1.382 . S
C432 C433 1.390 . S
C432 H449 0.931 . S
C433 C431 1.372 . S
C433 C432 1.390 . S
C433 H450 0.929 . S
C434 C429 1.390 . S
C434 C430 1.392 . S
C434 H451 0.930 . S
C435 O420 1.255 . S
C435 O421 1.257 . S
C436 Eu372 2.787 . S
C436 O416 1.252 . S
C436 O419 1.268 . S
C436 C429 1.506 . S
C437 C404 1.439 . S
C437 H414 0.931 . S
C437 C438 1.374 . S
C438 C409 1.387 . S
C438 H415 0.931 . S
C438 C437 1.374 . S
C439 O423 1.249 . S
C439 O424 1.264 . S
C440 C443 1.382 . S
C440 C444 1.390 . S
C440 C447 1.506 . S
C441 C442 1.398 . S
C441 C444 1.392 . S
C442 C441 1.398 . S
C442 C445 1.372 . S
C442 H452 0.931 . S
C443 C440 1.382 . S
C443 C445 1.390 . S
C443 H453 0.931 . S
C444 C440 1.390 . S
C444 C441 1.392 . S
C444 H454 0.930 . S
C445 C442 1.372 . S
C445 C443 1.390 . S
C445 H455 0.929 . S
C446 O426 1.255 . S
C446 O427 1.257 . S
C447 Eu383 2.787 . S
C447 O422 1.252 . S
C447 O425 1.268 . S
C447 C440 1.506 . S
H448 C431 0.931 . S
H449 C432 0.931 . S
H450 C433 0.929 . S
H451 C434 0.930 . S
H452 C442 0.931 . S
H453 C443 0.931 . S
H454 C444 0.930 . S
H455 C445 0.929 . S
Eu456 N485 2.600 . S
Eu456 N491 2.562 . S
Eu456 O500 2.462 . S
Eu456 O501 2.373 . S
Eu456 O503 2.432 . S
Eu456 O504 2.291 . S
Eu456 O508 2.335 . S
Eu456 O511 2.372 . S
Eu456 C520 2.787 . S
C457 N458 1.365 . S
C457 C460 1.405 . S
C457 C464 1.448 . S
N458 C457 1.365 . S
N458 C461 1.319 . S
N458 Eu467 2.600 . S
C459 C461 1.397 . S
C459 C462 1.367 . S
C459 H479 0.931 . S
C460 C457 1.405 . S
C460 C462 1.403 . S
C460 C466 1.439 . S
C461 N458 1.319 . S
C461 C459 1.397 . S
C461 H472 0.930 . S
C462 C459 1.367 . S
C462 C460 1.403 . S
C462 H483 0.929 . S
C463 C464 1.430 . S
C463 C465 1.387 . S
C463 C469 1.404 . S
C464 C457 1.448 . S
C464 C463 1.430 . S
C464 N468 1.351 . S
C465 C463 1.387 . S
C465 C466 1.374 . S
C465 H480 0.931 . S
C466 C460 1.439 . S
C466 C465 1.374 . S
C466 H481 0.931 . S
Eu467 N458 2.600 . S
Eu467 N468 2.562 . S
Eu467 O502 2.335 1_655 S
Eu467 O505 2.372 . S
Eu467 O506 2.462 . S
Eu467 O507 2.373 . S
Eu467 O509 2.432 . S
Eu467 O510 2.291 1_655 S
Eu467 C531 2.787 . S
N468 C464 1.351 . S
N468 Eu467 2.562 . S
N468 C470 1.325 . S
C469 C463 1.404 . S
C469 C471 1.366 . S
C469 H477 0.930 . S
C470 N468 1.325 . S
C470 C471 1.416 . S
C470 H476 0.929 . S
C471 C469 1.366 . S
C471 C470 1.416 . S
C471 H473 0.930 . S
H472 C461 0.930 . S
H473 C471 0.930 . S
H474 C489 0.930 . S
H475 C496 0.930 . S
H476 C470 0.929 . S
H477 C469 0.930 . S
H478 C492 0.929 . S
H479 C459 0.931 . S
H480 C465 0.931 . S
H481 C466 0.931 . S
H482 C487 0.931 . S
H483 C462 0.929 . S
H484 C495 0.930 . S
N485 Eu456 2.600 . S
N485 C486 1.365 . S
N485 C489 1.319 . S
C486 N485 1.365 . S
C486 C488 1.405 . S
C486 C494 1.448 . S
C487 H482 0.931 . S
C487 C489 1.397 . S
C487 C490 1.367 . S
C488 C486 1.405 . S
C488 C490 1.403 . S
C488 C521 1.439 . S
C489 H474 0.930 . S
C489 N485 1.319 . S
C489 C487 1.397 . S
C490 C487 1.367 . S
C490 C488 1.403 . S
C490 H497 0.929 . S
N491 Eu456 2.562 . S
N491 C492 1.325 . S
N491 C494 1.351 . S
C492 H478 0.929 . S
C492 N491 1.325 . S
C492 C496 1.416 . S
C493 C494 1.430 . S
C493 C495 1.404 . S
C493 C522 1.387 . S
C494 C486 1.448 . S
C494 N491 1.351 . S
C494 C493 1.430 . S
C495 H484 0.930 . S
C495 C493 1.404 . S
C495 C496 1.366 . S
C496 H475 0.930 . S
C496 C492 1.416 . S
C496 C495 1.366 . S
H497 C490 0.929 . S
H498 C521 0.931 . S
H499 C522 0.931 . S
O500 Eu456 2.462 . S
O500 C520 1.252 . S
O501 Eu456 2.373 . S
O501 C512 1.249 . S
O502 Eu467 2.335 1_455 S
O502 C512 1.264 . S
O503 Eu456 2.432 . S
O503 C520 1.268 . S
O504 Eu456 2.291 . S
O504 C519 1.255 1_455 S
O505 Eu467 2.372 . S
O505 C519 1.257 . S
O506 Eu467 2.462 . S
O506 C531 1.252 . S
O507 Eu467 2.373 . S
O507 C523 1.249 . S
O508 Eu456 2.335 . S
O508 C523 1.264 1_455 S
O509 Eu467 2.432 . S
O509 C531 1.268 . S
O510 Eu467 2.291 1_455 S
O510 C530 1.255 . S
O511 Eu456 2.372 . S
O511 C530 1.257 . S
C512 O501 1.249 . S
C512 O502 1.264 . S
C513 C516 1.382 . S
C513 C518 1.390 . S
C513 C520 1.506 . S
C514 C515 1.398 . S
C514 C518 1.392 . S
C515 C514 1.398 . S
C515 C517 1.372 . S
C515 H532 0.931 . S
C516 C513 1.382 . S
C516 C517 1.390 . S
C516 H533 0.931 . S
C517 C515 1.372 . S
C517 C516 1.390 . S
C517 H534 0.929 . S
C518 C513 1.390 . S
C518 C514 1.392 . S
C518 H535 0.930 . S
C519 O504 1.255 1_655 S
C519 O505 1.257 . S
C520 Eu456 2.787 . S
C520 O500 1.252 . S
C520 O503 1.268 . S
C520 C513 1.506 . S
C521 C488 1.439 . S
C521 H498 0.931 . S
C521 C522 1.374 . S
C522 C493 1.387 . S
C522 H499 0.931 . S
C522 C521 1.374 . S
C523 O507 1.249 . S
C523 O508 1.264 1_655 S
C524 C527 1.382 . S
C524 C528 1.390 . S
C524 C531 1.506 . S
C525 C526 1.398 . S
C525 C528 1.392 . S
C526 C525 1.398 . S
C526 C529 1.372 . S
C526 H536 0.931 . S
C527 C524 1.382 . S
C527 C529 1.390 . S
C527 H537 0.931 . S
C528 C524 1.390 . S
C528 C525 1.392 . S
C528 H538 0.930 . S
C529 C526 1.372 . S
C529 C527 1.390 . S
C529 H539 0.929 . S
C530 O510 1.255 . S
C530 O511 1.257 . S
C531 Eu467 2.787 . S
C531 O506 1.252 . S
C531 O509 1.268 . S
C531 C524 1.506 . S
H532 C515 0.931 . S
H533 C516 0.931 . S
H534 C517 0.929 . S
H535 C518 0.930 . S
H536 C526 0.931 . S
H537 C527 0.931 . S
H538 C528 0.930 . S
H539 C529 0.929 . S
Eu540 N569 2.600 . S
Eu540 N575 2.562 . S
Eu540 O584 2.462 . S
Eu540 O585 2.373 . S
Eu540 O587 2.432 . S
Eu540 O588 2.291 . S
Eu540 O592 2.335 . S
Eu540 O595 2.372 . S
Eu540 C604 2.787 . S
C541 N542 1.365 . S
C541 C544 1.405 . S
C541 C548 1.448 . S
N542 C541 1.365 . S
N542 C545 1.319 . S
N542 Eu551 2.600 . S
C543 C545 1.397 . S
C543 C546 1.367 . S
C543 H563 0.931 . S
C544 C541 1.405 . S
C544 C546 1.403 . S
C544 C550 1.439 . S
C545 N542 1.319 . S
C545 C543 1.397 . S
C545 H556 0.930 . S
C546 C543 1.367 . S
C546 C544 1.403 . S
C546 H567 0.929 . S
C547 C548 1.430 . S
C547 C549 1.387 . S
C547 C553 1.404 . S
C548 C541 1.448 . S
C548 C547 1.430 . S
C548 N552 1.351 . S
C549 C547 1.387 . S
C549 C550 1.374 . S
C549 H564 0.931 . S
C550 C544 1.439 . S
C550 C549 1.374 . S
C550 H565 0.931 . S
Eu551 N542 2.600 . S
Eu551 N552 2.562 . S
Eu551 O586 2.335 . S
Eu551 O589 2.372 . S
Eu551 O590 2.462 . S
Eu551 O591 2.373 . S
Eu551 O593 2.432 . S
Eu551 O594 2.291 . S
Eu551 C615 2.787 . S
N552 C548 1.351 . S
N552 Eu551 2.562 . S
N552 C554 1.325 . S
C553 C547 1.404 . S
C553 C555 1.366 . S
C553 H561 0.930 . S
C554 N552 1.325 . S
C554 C555 1.416 . S
C554 H560 0.929 . S
C555 C553 1.366 . S
C555 C554 1.416 . S
C555 H557 0.930 . S
H556 C545 0.930 . S
H557 C555 0.930 . S
H558 C573 0.930 . S
H559 C580 0.930 . S
H560 C554 0.929 . S
H561 C553 0.930 . S
H562 C576 0.929 . S
H563 C543 0.931 . S
H564 C549 0.931 . S
H565 C550 0.931 . S
H566 C571 0.931 . S
H567 C546 0.929 . S
H568 C579 0.930 . S
N569 Eu540 2.600 . S
N569 C570 1.365 . S
N569 C573 1.319 . S
C570 N569 1.365 . S
C570 C572 1.405 . S
C570 C578 1.448 . S
C571 H566 0.931 . S
C571 C573 1.397 . S
C571 C574 1.367 . S
C572 C570 1.405 . S
C572 C574 1.403 . S
C572 C605 1.439 . S
C573 H558 0.930 . S
C573 N569 1.319 . S
C573 C571 1.397 . S
C574 C571 1.367 . S
C574 C572 1.403 . S
C574 H581 0.929 . S
N575 Eu540 2.562 . S
N575 C576 1.325 . S
N575 C578 1.351 . S
C576 H562 0.929 . S
C576 N575 1.325 . S
C576 C580 1.416 . S
C577 C578 1.430 . S
C577 C579 1.404 . S
C577 C606 1.387 . S
C578 C570 1.448 . S
C578 N575 1.351 . S
C578 C577 1.430 . S
C579 H568 0.930 . S
C579 C577 1.404 . S
C579 C580 1.366 . S
C580 H559 0.930 . S
C580 C576 1.416 . S
C580 C579 1.366 . S
H581 C574 0.929 . S
H582 C605 0.931 . S
H583 C606 0.931 . S
O584 Eu540 2.462 . S
O584 C604 1.252 . S
O585 Eu540 2.373 . S
O585 C596 1.249 . S
O586 Eu551 2.335 . S
O586 C596 1.264 . S
O587 Eu540 2.432 . S
O587 C604 1.268 . S
O588 Eu540 2.291 . S
O588 C603 1.255 . S
O589 Eu551 2.372 . S
O589 C603 1.257 . S
O590 Eu551 2.462 . S
O590 C615 1.252 . S
O591 Eu551 2.373 . S
O591 C607 1.249 . S
O592 Eu540 2.335 . S
O592 C607 1.264 . S
O593 Eu551 2.432 . S
O593 C615 1.268 . S
O594 Eu551 2.291 . S
O594 C614 1.255 . S
O595 Eu540 2.372 . S
O595 C614 1.257 . S
C596 O585 1.249 . S
C596 O586 1.264 . S
C597 C600 1.382 . S
C597 C602 1.390 . S
C597 C604 1.506 . S
C598 C599 1.398 . S
C598 C602 1.392 . S
C599 C598 1.398 . S
C599 C601 1.372 . S
C599 H616 0.931 . S
C600 C597 1.382 . S
C600 C601 1.390 . S
C600 H617 0.931 . S
C601 C599 1.372 . S
C601 C600 1.390 . S
C601 H618 0.929 . S
C602 C597 1.390 . S
C602 C598 1.392 . S
C602 H619 0.930 . S
C603 O588 1.255 . S
C603 O589 1.257 . S
C604 Eu540 2.787 . S
C604 O584 1.252 . S
C604 O587 1.268 . S
C604 C597 1.506 . S
C605 C572 1.439 . S
C605 H582 0.931 . S
C605 C606 1.374 . S
C606 C577 1.387 . S
C606 H583 0.931 . S
C606 C605 1.374 . S
C607 O591 1.249 . S
C607 O592 1.264 . S
C608 C611 1.382 . S
C608 C612 1.390 . S
C608 C615 1.506 . S
C609 C610 1.398 . S
C609 C612 1.392 . S
C610 C609 1.398 . S
C610 C613 1.372 . S
C610 H620 0.931 . S
C611 C608 1.382 . S
C611 C613 1.390 . S
C611 H621 0.931 . S
C612 C608 1.390 . S
C612 C609 1.392 . S
C612 H622 0.930 . S
C613 C610 1.372 . S
C613 C611 1.390 . S
C613 H623 0.929 . S
C614 O594 1.255 . S
C614 O595 1.257 . S
C615 Eu551 2.787 . S
C615 O590 1.252 . S
C615 O593 1.268 . S
C615 C608 1.506 . S
H616 C599 0.931 . S
H617 C600 0.931 . S
H618 C601 0.929 . S
H619 C602 0.930 . S
H620 C610 0.931 . S
H621 C611 0.931 . S
H622 C612 0.930 . S
H623 C613 0.929 . S
C624 C625 1.349 . S
C624 C626 1.328 . S
C624 H649 0.950 . S
C625 C624 1.349 . S
C625 C641 1.349 . S
C626 C624 1.328 . S
C626 C645 1.428 . S
C626 H650 0.948 1_565 S
C627 C644 1.574 . S
C627 C646 1.368 . S
C627 H651 0.949 . S
H628 C632 0.949 . S
C629 C630 1.349 . S
C629 C631 1.327 . S
C629 H652 0.950 . S
C630 C629 1.349 . S
C630 C642 1.349 . S
C631 C629 1.327 . S
C631 C647 1.429 . S
C631 H653 0.950 . S
C632 H628 0.949 . S
C632 C640 1.574 . S
C632 C648 1.368 . S
H633 C641 0.950 . S
H634 C639 0.950 . S
H635 C640 0.949 . S
H636 C642 0.950 . S
H637 C643 0.950 . S
H638 C644 0.949 . S
C639 H634 0.950 . S
C639 C641 1.327 . S
C639 C645 1.442 . S
C640 C632 1.574 . S
C640 H635 0.949 . S
C640 C646 1.368 . S
C641 C625 1.349 . S
C641 H633 0.950 . S
C641 C639 1.327 . S
C642 C630 1.349 . S
C642 H636 0.950 . S
C642 C643 1.327 . S
C643 H637 0.950 . S
C643 C642 1.327 . S
C643 C647 1.429 . S
C644 C627 1.574 . S
C644 H638 0.949 . S
C644 C648 1.368 . S
C645 C626 1.428 . S
C645 C639 1.442 . S
C645 C646 1.511 1_565 S
C646 C627 1.368 . S
C646 C640 1.368 . S
C646 C645 1.511 1_545 S
C647 C631 1.429 . S
C647 C643 1.429 . S
C647 C648 1.523 . S
C648 C632 1.368 . S
C648 C644 1.368 . S
C648 C647 1.523 . S
H649 C624 0.950 . S
H650 C626 0.948 1_545 S
H651 C627 0.949 . S
H652 C629 0.950 . S
H653 C631 0.950 . S
C654 C655 1.349 . S
C654 C656 1.327 . S
C654 H679 0.950 . S
C655 C654 1.349 . S
C655 C671 1.349 . S
C656 C654 1.327 . S
C656 C675 1.429 . S
C656 H680 0.950 . S
C657 C674 1.574 . S
C657 C676 1.368 . S
C657 H681 0.949 . S
H658 C662 0.949 . S
C659 C660 1.349 . S
C659 C661 1.327 . S
C659 H682 0.950 . S
C660 C659 1.349 . S
C660 C672 1.349 . S
C661 C659 1.327 . S
C661 C677 1.429 . S
C661 H683 0.950 . S
C662 H658 0.949 . S
C662 C670 1.574 . S
C662 C678 1.368 . S
H663 C671 0.950 . S
H664 C669 0.950 . S
H665 C670 0.949 . S
H666 C672 0.950 . S
H667 C673 0.950 . S
H668 C674 0.949 . S
C669 H664 0.950 . S
C669 C671 1.327 . S
C669 C675 1.429 . S
C670 C662 1.574 . S
C670 H665 0.949 . S
C670 C676 1.368 . S
C671 C655 1.349 . S
C671 H663 0.950 . S
C671 C669 1.327 . S
C672 C660 1.349 . S
C672 H666 0.950 . S
C672 C673 1.327 . S
C673 H667 0.950 . S
C673 C672 1.327 . S
C673 C677 1.429 . S
C674 C657 1.574 . S
C674 H668 0.949 . S
C674 C678 1.368 . S
C675 C656 1.429 . S
C675 C669 1.429 . S
C675 C676 1.523 . S
C676 C657 1.368 . S
C676 C670 1.368 . S
C676 C675 1.523 . S
C677 C661 1.429 . S
C677 C673 1.429 . S
C677 C678 1.523 . S
C678 C662 1.368 . S
C678 C674 1.368 . S
C678 C677 1.523 . S
H679 C654 0.950 . S
H680 C656 0.950 . S
H681 C657 0.949 . S
H682 C659 0.950 . S
H683 C661 0.950 . S
C684 C685 1.349 . S
C684 C686 1.327 . S
C684 H709 0.950 . S
C685 C684 1.349 . S
C685 C701 1.349 . S
C686 C684 1.327 . S
C686 C705 1.429 . S
C686 H710 0.950 . S
C687 C704 1.574 . S
C687 C706 1.368 . S
C687 H711 0.949 . S
H688 C692 0.949 . S
C689 C690 1.349 . S
C689 C691 1.327 . S
C689 H712 0.950 . S
C690 C689 1.349 . S
C690 C702 1.349 . S
C691 C689 1.327 . S
C691 C707 1.429 . S
C691 H713 0.950 . S
C692 H688 0.949 . S
C692 C700 1.574 . S
C692 C708 1.368 . S
H693 C701 0.950 . S
H694 C699 0.950 . S
H695 C700 0.949 . S
H696 C702 0.950 . S
H697 C703 0.950 . S
H698 C704 0.949 . S
C699 H694 0.950 . S
C699 C701 1.327 . S
C699 C705 1.429 . S
C700 C692 1.574 . S
C700 H695 0.949 . S
C700 C706 1.368 . S
C701 C685 1.349 . S
C701 H693 0.950 . S
C701 C699 1.327 . S
C702 C690 1.349 . S
C702 H696 0.950 . S
C702 C703 1.327 . S
C703 H697 0.950 . S
C703 C702 1.327 . S
C703 C707 1.429 . S
C704 C687 1.574 . S
C704 H698 0.949 . S
C704 C708 1.368 . S
C705 C686 1.429 . S
C705 C699 1.429 . S
C705 C706 1.523 . S
C706 C687 1.368 . S
C706 C700 1.368 . S
C706 C705 1.523 . S
C707 C691 1.429 . S
C707 C703 1.429 . S
C707 C708 1.523 . S
C708 C692 1.368 . S
C708 C704 1.368 . S
C708 C707 1.523 . S
H709 C684 0.950 . S
H710 C686 0.950 . S
H711 C687 0.949 . S
H712 C689 0.950 . S
H713 C691 0.950 . S
C714 C715 1.349 . S
C714 C716 1.327 1_565 S
C714 H739 0.950 . S
C715 C714 1.349 . S
C715 C731 1.349 . S
C716 C714 1.327 1_545 S
C716 C735 1.435 . S
C716 H740 0.950 . S
C717 C734 1.574 . S
C717 C736 1.368 . S
C717 H741 0.949 1_545 S
H718 C722 0.949 . S
C719 C720 1.349 . S
C719 C721 1.327 . S
C719 H742 0.950 . S
C720 C719 1.349 . S
C720 C732 1.349 . S
C721 C719 1.327 . S
C721 C737 1.429 . S
C721 H743 0.950 . S
C722 H718 0.949 . S
C722 C730 1.574 . S
C722 C738 1.368 . S
H723 C731 0.950 . S
H724 C729 0.950 . S
H725 C730 0.949 . S
H726 C732 0.950 . S
H727 C733 0.950 . S
H728 C734 0.949 . S
C729 H724 0.950 . S
C729 C731 1.327 . S
C729 C735 1.385 1_565 S
C730 C722 1.574 . S
C730 H725 0.949 . S
C730 C736 1.368 . S
C731 C715 1.349 . S
C731 H723 0.950 . S
C731 C729 1.327 . S
C732 C720 1.349 . S
C732 H726 0.950 . S
C732 C733 1.327 . S
C733 H727 0.950 . S
C733 C732 1.327 . S
C733 C737 1.429 . S
C734 C717 1.574 . S
C734 H728 0.949 . S
C734 C738 1.368 . S
C735 C716 1.435 . S
C735 C729 1.385 1_545 S
C735 C736 1.558 . S
C736 C717 1.368 . S
C736 C730 1.368 . S
C736 C735 1.558 . S
C737 C721 1.429 . S
C737 C733 1.429 . S
C737 C738 1.523 . S
C738 C722 1.368 . S
C738 C734 1.368 . S
C738 C737 1.523 . S
H739 C714 0.950 . S
H740 C716 0.950 . S
H741 C717 0.949 1_565 S
H742 C719 0.950 . S
H743 C721 0.950 . S
C744 C745 1.349 . S
C744 C746 1.360 . S
C744 H769 0.950 . S
C745 C744 1.349 . S
C745 C761 1.349 . S
C746 C744 1.360 . S
C746 C765 1.428 . S
C746 H770 0.917 1_545 S
C747 C764 1.574 . S
C747 C766 1.368 . S
C747 H771 0.949 . S
H748 C752 0.949 . S
C749 C750 1.349 . S
C749 C751 1.327 . S
C749 H772 0.950 . S
C750 C749 1.349 . S
C750 C762 1.349 . S
C751 C749 1.327 . S
C751 C767 1.429 . S
C751 H773 0.950 . S
C752 H748 0.949 . S
C752 C760 1.574 . S
C752 C768 1.368 . S
H753 C761 0.950 . S
H754 C759 0.950 . S
H755 C760 0.949 . S
H756 C762 0.950 . S
H757 C763 0.950 . S
H758 C764 0.949 . S
C759 H754 0.950 . S
C759 C761 1.327 . S
C759 C765 1.442 . S
C760 C752 1.574 . S
C760 H755 0.949 . S
C760 C766 1.368 . S
C761 C745 1.349 . S
C761 H753 0.950 . S
C761 C759 1.327 . S
C762 C750 1.349 . S
C762 H756 0.950 . S
C762 C763 1.327 . S
C763 H757 0.950 . S
C763 C762 1.327 . S
C763 C767 1.429 . S
C764 C747 1.574 . S
C764 H758 0.949 . S
C764 C768 1.368 . S
C765 C746 1.428 . S
C765 C759 1.442 . S
C765 C766 1.511 1_545 S
C766 C747 1.368 . S
C766 C760 1.368 . S
C766 C765 1.511 1_565 S
C767 C751 1.429 . S
C767 C763 1.429 . S
C767 C768 1.523 . S
C768 C752 1.368 . S
C768 C764 1.368 . S
C768 C767 1.523 . S
H769 C744 0.950 . S
H770 C746 0.917 1_565 S
H771 C747 0.949 . S
H772 C749 0.950 . S
H773 C751 0.950 . S
C774 C775 1.349 . S
C774 C776 1.327 . S
C774 H799 0.950 . S
C775 C774 1.349 . S
C775 C791 1.349 . S
C776 C774 1.327 . S
C776 C795 1.429 . S
C776 H800 0.950 . S
C777 C794 1.574 . S
C777 C796 1.368 . S
C777 H801 0.949 . S
H778 C782 0.949 . S
C779 C780 1.349 . S
C779 C781 1.327 . S
C779 H802 0.950 . S
C780 C779 1.349 . S
C780 C792 1.349 . S
C781 C779 1.327 . S
C781 C797 1.429 . S
C781 H803 0.950 . S
C782 H778 0.949 . S
C782 C790 1.574 . S
C782 C798 1.368 . S
H783 C791 0.950 . S
H784 C789 0.950 . S
H785 C790 0.949 . S
H786 C792 0.950 . S
H787 C793 0.950 . S
H788 C794 0.949 . S
C789 H784 0.950 . S
C789 C791 1.327 . S
C789 C795 1.429 . S
C790 C782 1.574 . S
C790 H785 0.949 . S
C790 C796 1.368 . S
C791 C775 1.349 . S
C791 H783 0.950 . S
C791 C789 1.327 . S
C792 C780 1.349 . S
C792 H786 0.950 . S
C792 C793 1.327 . S
C793 H787 0.950 . S
C793 C792 1.327 . S
C793 C797 1.429 . S
C794 C777 1.574 . S
C794 H788 0.949 . S
C794 C798 1.368 . S
C795 C776 1.429 . S
C795 C789 1.429 . S
C795 C796 1.523 . S
C796 C777 1.368 . S
C796 C790 1.368 . S
C796 C795 1.523 . S
C797 C781 1.429 . S
C797 C793 1.429 . S
C797 C798 1.523 . S
C798 C782 1.368 . S
C798 C794 1.368 . S
C798 C797 1.523 . S
H799 C774 0.950 . S
H800 C776 0.950 . S
H801 C777 0.949 . S
H802 C779 0.950 . S
H803 C781 0.950 . S
C804 C805 1.349 . S
C804 C806 1.327 . S
C804 H829 0.950 . S
C805 C804 1.349 . S
C805 C821 1.349 . S
C806 C804 1.327 . S
C806 C825 1.429 . S
C806 H830 0.950 . S
C807 C824 1.574 . S
C807 C826 1.368 . S
C807 H831 0.949 . S
H808 C812 0.949 . S
C809 C810 1.349 . S
C809 C811 1.327 . S
C809 H832 0.950 . S
C810 C809 1.349 . S
C810 C822 1.349 . S
C811 C809 1.327 . S
C811 C827 1.429 . S
C811 H833 0.950 . S
C812 H808 0.949 . S
C812 C820 1.574 . S
C812 C828 1.368 . S
H813 C821 0.950 . S
H814 C819 0.950 . S
H815 C820 0.949 . S
H816 C822 0.950 . S
H817 C823 0.950 . S
H818 C824 0.949 . S
C819 H814 0.950 . S
C819 C821 1.327 . S
C819 C825 1.429 . S
C820 C812 1.574 . S
C820 H815 0.949 . S
C820 C826 1.368 . S
C821 C805 1.349 . S
C821 H813 0.950 . S
C821 C819 1.327 . S
C822 C810 1.349 . S
C822 H816 0.950 . S
C822 C823 1.327 . S
C823 H817 0.950 . S
C823 C822 1.327 . S
C823 C827 1.429 . S
C824 C807 1.574 . S
C824 H818 0.949 . S
C824 C828 1.368 . S
C825 C806 1.429 . S
C825 C819 1.429 . S
C825 C826 1.523 . S
C826 C807 1.368 . S
C826 C820 1.368 . S
C826 C825 1.523 . S
C827 C811 1.429 . S
C827 C823 1.429 . S
C827 C828 1.523 . S
C828 C812 1.368 . S
C828 C824 1.368 . S
C828 C827 1.523 . S
H829 C804 0.950 . S
H830 C806 0.950 . S
H831 C807 0.949 . S
H832 C809 0.950 . S
H833 C811 0.950 . S
C834 C835 1.349 . S
C834 C836 1.327 . S
C834 H859 0.950 . S
C835 C834 1.349 . S
C835 C851 1.349 . S
C836 C834 1.327 . S
C836 C855 1.395 1_545 S
C836 H860 0.950 . S
C837 C854 1.574 . S
C837 C856 1.368 . S
C837 H861 0.949 . S
H838 C842 0.949 . S
C839 C840 1.349 . S
C839 C841 1.327 . S
C839 H862 0.950 . S
C840 C839 1.349 . S
C840 C852 1.349 . S
C841 C839 1.327 . S
C841 C857 1.429 . S
C841 H863 0.950 . S
C842 H838 0.949 . S
C842 C850 1.574 . S
C842 C858 1.368 . S
H843 C851 0.950 . S
H844 C849 0.923 1_565 S
H845 C850 0.949 . S
H846 C852 0.950 . S
H847 C853 0.950 . S
H848 C854 0.949 . S
C849 H844 0.923 1_545 S
C849 C851 1.357 . S
C849 C855 1.425 1_545 S
C850 C842 1.574 . S
C850 H845 0.949 . S
C850 C856 1.368 . S
C851 C835 1.349 . S
C851 H843 0.950 . S
C851 C849 1.357 . S
C852 C840 1.349 . S
C852 H846 0.950 . S
C852 C853 1.327 . S
C853 H847 0.950 . S
C853 C852 1.327 . S
C853 C857 1.429 . S
C854 C837 1.574 . S
C854 H848 0.949 . S
C854 C858 1.368 . S
C855 C836 1.395 1_565 S
C855 C849 1.425 1_565 S
C855 C856 1.558 . S
C856 C837 1.368 . S
C856 C850 1.368 . S
C856 C855 1.558 . S
C857 C841 1.429 . S
C857 C853 1.429 . S
C857 C858 1.523 . S
C858 C842 1.368 . S
C858 C854 1.368 . S
C858 C857 1.523 . S
H859 C834 0.950 . S
H860 C836 0.950 . S
H861 C837 0.949 . S
H862 C839 0.950 . S
H863 C841 0.950 . S
C864 C865 1.349 . S
C864 C866 1.327 . S
C864 H889 0.950 1_554 S
C865 C864 1.349 . S
C865 C881 1.349 . S
C866 C864 1.327 . S
C866 C885 1.429 . S
C866 H890 0.950 . S
C867 C884 1.574 . S
C867 C886 1.368 . S
C867 H891 0.949 . S
H868 C872 0.949 . S
C869 C870 1.349 . S
C869 C871 1.327 . S
C869 H892 0.950 . S
C870 C869 1.349 . S
C870 C882 1.349 . S
C871 C869 1.327 . S
C871 C887 1.429 . S
C871 H893 0.950 . S
C872 H868 0.949 . S
C872 C880 1.574 . S
C872 C888 1.368 . S
H873 C881 0.950 . S
H874 C879 0.950 . S
H875 C880 0.949 . S
H876 C882 0.950 . S
H877 C883 0.950 . S
H878 C884 0.949 . S
C879 H874 0.950 . S
C879 C881 1.327 . S
C879 C885 1.429 . S
C880 C872 1.574 . S
C880 H875 0.949 . S
C880 C886 1.368 . S
C881 C865 1.349 . S
C881 H873 0.950 . S
C881 C879 1.327 . S
C882 C870 1.349 . S
C882 H876 0.950 . S
C882 C883 1.327 . S
C883 H877 0.950 . S
C883 C882 1.327 . S
C883 C887 1.429 . S
C884 C867 1.574 . S
C884 H878 0.949 . S
C884 C888 1.368 . S
C885 C866 1.429 . S
C885 C879 1.429 . S
C885 C886 1.523 . S
C886 C867 1.368 . S
C886 C880 1.368 . S
C886 C885 1.523 . S
C887 C871 1.429 . S
C887 C883 1.429 . S
C887 C888 1.523 . S
C888 C872 1.368 . S
C888 C884 1.368 . S
C888 C887 1.523 . S
H889 C864 0.950 1_556 S
H890 C866 0.950 . S
H891 C867 0.949 . S
H892 C869 0.950 . S
H893 C871 0.950 . S
C894 C895 1.349 . S
C894 C896 1.327 . S
C894 H919 0.950 . S
C895 C894 1.349 . S
C895 C911 1.349 . S
C896 C894 1.327 . S
C896 C915 1.429 . S
C896 H920 0.950 . S
C897 C914 1.574 . S
C897 C916 1.368 . S
C897 H921 0.949 . S
H898 C902 0.949 . S
C899 C900 1.349 . S
C899 C901 1.327 . S
C899 H922 0.950 . S
C900 C899 1.349 . S
C900 C912 1.349 . S
C901 C899 1.327 . S
C901 C917 1.429 . S
C901 H923 0.950 . S
C902 H898 0.949 . S
C902 C910 1.574 . S
C902 C918 1.368 . S
H903 C911 0.950 . S
H904 C909 0.950 . S
H905 C910 0.949 . S
H906 C912 0.950 . S
H907 C913 0.950 . S
H908 C914 0.949 . S
C909 H904 0.950 . S
C909 C911 1.327 . S
C909 C915 1.429 . S
C910 C902 1.574 . S
C910 H905 0.949 . S
C910 C916 1.368 . S
C911 C895 1.349 . S
C911 H903 0.950 . S
C911 C909 1.327 . S
C912 C900 1.349 . S
C912 H906 0.950 . S
C912 C913 1.327 . S
C913 H907 0.950 . S
C913 C912 1.327 . S
C913 C917 1.429 . S
C914 C897 1.574 . S
C914 H908 0.949 . S
C914 C918 1.368 . S
C915 C896 1.429 . S
C915 C909 1.429 . S
C915 C916 1.523 . S
C916 C897 1.368 . S
C916 C910 1.368 . S
C916 C915 1.523 . S
C917 C901 1.429 . S
C917 C913 1.429 . S
C917 C918 1.523 . S
C918 C902 1.368 . S
C918 C914 1.368 . S
C918 C917 1.523 . S
H919 C894 0.950 . S
H920 C896 0.950 . S
H921 C897 0.949 . S
H922 C899 0.950 . S
H923 C901 0.950 . S
C924 C925 1.320 1_556 S
C924 C926 1.327 . S
C924 H949 0.950 . S
C925 C924 1.320 1_554 S
C925 C941 1.339 1_554 S
C926 C924 1.327 . S
C926 C945 1.429 . S
C926 H950 0.950 . S
C927 C944 1.574 . S
C927 C946 1.368 . S
C927 H951 0.949 . S
H928 C932 0.949 . S
C929 C930 1.349 . S
C929 C931 1.327 . S
C929 H952 0.950 . S
C930 C929 1.349 . S
C930 C942 1.349 . S
C931 C929 1.327 . S
C931 C947 1.429 . S
C931 H953 0.950 . S
C932 H928 0.949 . S
C932 C940 1.574 . S
C932 C948 1.368 . S
H933 C941 0.950 1_554 S
H934 C939 0.950 . S
H935 C940 0.949 . S
H936 C942 0.950 . S
H937 C943 0.950 . S
H938 C944 0.949 . S
C939 H934 0.950 . S
C939 C941 1.327 . S
C939 C945 1.429 . S
C940 C932 1.574 . S
C940 H935 0.949 . S
C940 C946 1.368 . S
C941 C925 1.339 1_556 S
C941 H933 0.950 1_556 S
C941 C939 1.327 . S
C942 C930 1.349 . S
C942 H936 0.950 . S
C942 C943 1.327 . S
C943 H937 0.950 . S
C943 C942 1.327 . S
C943 C947 1.429 . S
C944 C927 1.574 . S
C944 H938 0.949 . S
C944 C948 1.368 . S
C945 C926 1.429 . S
C945 C939 1.429 . S
C945 C946 1.523 . S
C946 C927 1.368 . S
C946 C940 1.368 . S
C946 C945 1.523 . S
C947 C931 1.429 . S
C947 C943 1.429 . S
C947 C948 1.523 . S
C948 C932 1.368 . S
C948 C944 1.368 . S
C948 C947 1.523 . S
H949 C924 0.950 . S
H950 C926 0.950 . S
H951 C927 0.949 . S
H952 C929 0.950 . S
H953 C931 0.950 . S
C954 C955 1.349 . S
C954 C956 1.327 . S
C954 H979 0.950 . S
C955 C954 1.349 . S
C955 C971 1.349 . S
C956 C954 1.327 . S
C956 C975 1.429 . S
C956 H980 0.950 . S
C957 C974 1.574 . S
C957 C976 1.368 . S
C957 H981 0.949 . S
H958 C962 0.949 . S
C959 C960 1.349 . S
C959 C961 1.327 . S
C959 H982 0.950 . S
C960 C959 1.349 . S
C960 C972 1.349 . S
C961 C959 1.327 . S
C961 C977 1.429 . S
C961 H983 0.950 . S
C962 H958 0.949 . S
C962 C970 1.574 . S
C962 C978 1.368 . S
H963 C971 0.950 . S
H964 C969 0.950 . S
H965 C970 0.949 . S
H966 C972 0.950 . S
H967 C973 0.950 . S
H968 C974 0.949 . S
C969 H964 0.950 . S
C969 C971 1.327 . S
C969 C975 1.429 . S
C970 C962 1.574 . S
C970 H965 0.949 . S
C970 C976 1.368 . S
C971 C955 1.349 . S
C971 H963 0.950 . S
C971 C969 1.327 . S
C972 C960 1.349 . S
C972 H966 0.950 . S
C972 C973 1.327 . S
C973 H967 0.950 . S
C973 C972 1.327 . S
C973 C977 1.429 . S
C974 C957 1.574 . S
C974 H968 0.949 . S
C974 C978 1.368 . S
C975 C956 1.429 . S
C975 C969 1.429 . S
C975 C976 1.523 . S
C976 C957 1.368 . S
C976 C970 1.368 . S
C976 C975 1.523 . S
C977 C961 1.429 . S
C977 C973 1.429 . S
C977 C978 1.523 . S
C978 C962 1.368 . S
C978 C974 1.368 . S
C978 C977 1.523 . S
H979 C954 0.950 . S
H980 C956 0.950 . S
H981 C957 0.949 . S
H982 C959 0.950 . S
H983 C961 0.950 . S
C984 C985 1.349 . S
C984 C986 1.327 . S
C984 H1009 0.950 . S
C985 C984 1.349 . S
C985 C1001 1.349 . S
C986 C984 1.327 . S
C986 C1005 1.429 . S
C986 H1010 0.950 . S
C987 C1004 1.574 . S
C987 C1006 1.368 . S
C987 H1011 0.949 . S
H988 C992 0.949 . S
C989 C990 1.349 . S
C989 C991 1.327 . S
C989 H1012 0.950 . S
C990 C989 1.349 . S
C990 C1002 1.349 . S
C991 C989 1.327 . S
C991 C1007 1.429 . S
C991 H1013 0.950 . S
C992 H988 0.949 . S
C992 C1000 1.574 . S
C992 C1008 1.368 . S
H993 C1001 0.966 . S
H994 C999 0.950 . S
H995 C1000 0.949 . S
H996 C1002 0.950 . S
H997 C1003 0.950 . S
H998 C1004 0.949 . S
C999 H994 0.950 . S
C999 C1001 1.327 . S
C999 C1005 1.429 . S
C1000 C992 1.574 . S
C1000 H995 0.949 . S
C1000 C1006 1.368 . S
C1001 C985 1.349 . S
C1001 H993 0.966 . S
C1001 C999 1.327 . S
C1002 C990 1.349 . S
C1002 H996 0.950 . S
C1002 C1003 1.327 . S
C1003 H997 0.950 . S
C1003 C1002 1.327 . S
C1003 C1007 1.429 . S
C1004 C987 1.574 . S
C1004 H998 0.949 . S
C1004 C1008 1.368 . S
C1005 C986 1.429 . S
C1005 C999 1.429 . S
C1005 C1006 1.523 . S
C1006 C987 1.368 . S
C1006 C1000 1.368 . S
C1006 C1005 1.523 . S
C1007 C991 1.429 . S
C1007 C1003 1.429 . S
C1007 C1008 1.523 . S
C1008 C992 1.368 . S
C1008 C1004 1.368 . S
C1008 C1007 1.523 . S
H1009 C984 0.950 . S
H1010 C986 0.950 . S
H1011 C987 0.949 . S
H1012 C989 0.950 . S
H1013 C991 0.950 . S
C1014 C1015 1.349 . S
C1014 C1016 1.327 . S
C1014 H1039 0.950 . S
C1015 C1014 1.349 . S
C1015 C1031 1.349 . S
C1016 C1014 1.327 . S
C1016 C1035 1.429 . S
C1016 H1040 0.950 . S
C1017 C1034 1.574 . S
C1017 C1036 1.368 . S
C1017 H1041 0.949 . S
H1018 C1022 0.949 . S
C1019 C1020 1.349 . S
C1019 C1021 1.327 . S
C1019 H1042 0.950 . S
C1020 C1019 1.349 . S
C1020 C1032 1.349 . S
C1021 C1019 1.327 . S
C1021 C1037 1.429 . S
C1021 H1043 0.950 . S
C1022 H1018 0.949 . S
C1022 C1030 1.574 . S
C1022 C1038 1.368 . S
H1023 C1031 0.950 . S
H1024 C1029 0.950 . S
H1025 C1030 0.949 . S
H1026 C1032 0.950 . S
H1027 C1033 0.950 . S
H1028 C1034 0.949 . S
C1029 H1024 0.950 . S
C1029 C1031 1.327 . S
C1029 C1035 1.429 . S
C1030 C1022 1.574 . S
C1030 H1025 0.949 . S
C1030 C1036 1.368 . S
C1031 C1015 1.349 . S
C1031 H1023 0.950 . S
C1031 C1029 1.327 . S
C1032 C1020 1.349 . S
C1032 H1026 0.950 . S
C1032 C1033 1.327 . S
C1033 H1027 0.950 . S
C1033 C1032 1.327 . S
C1033 C1037 1.429 . S
C1034 C1017 1.574 . S
C1034 H1028 0.949 . S
C1034 C1038 1.368 . S
C1035 C1016 1.429 . S
C1035 C1029 1.429 . S
C1035 C1036 1.523 . S
C1036 C1017 1.368 . S
C1036 C1030 1.368 . S
C1036 C1035 1.523 . S
C1037 C1021 1.429 . S
C1037 C1033 1.429 . S
C1037 C1038 1.523 . S
C1038 C1022 1.368 . S
C1038 C1034 1.368 . S
C1038 C1037 1.523 . S
H1039 C1014 0.950 . S
H1040 C1016 0.950 . S
H1041 C1017 0.949 . S
H1042 C1019 0.950 . S
H1043 C1021 0.950 . S
C1044 C1045 1.330 1_554 S
C1044 C1046 1.327 . S
C1044 H1069 0.950 1_554 S
C1045 C1044 1.330 1_556 S
C1045 C1061 1.318 1_556 S
C1046 C1044 1.327 . S
C1046 C1065 1.429 . S
C1046 H1070 0.950 . S
C1047 C1064 1.574 . S
C1047 C1066 1.368 . S
C1047 H1071 0.949 . S
H1048 C1052 0.949 . S
C1049 C1050 1.349 . S
C1049 C1051 1.327 . S
C1049 H1072 0.950 . S
C1050 C1049 1.349 . S
C1050 C1062 1.349 . S
C1051 C1049 1.327 . S
C1051 C1067 1.429 . S
C1051 H1073 0.950 . S
C1052 H1048 0.949 . S
C1052 C1060 1.574 . S
C1052 C1068 1.368 . S
H1053 C1061 0.950 . S
H1054 C1059 0.950 . S
H1055 C1060 0.949 . S
H1056 C1062 0.950 . S
H1057 C1063 0.950 . S
H1058 C1064 0.949 . S
C1059 H1054 0.950 . S
C1059 C1061 1.327 . S
C1059 C1065 1.429 . S
C1060 C1052 1.574 . S
C1060 H1055 0.949 . S
C1060 C1066 1.368 . S
C1061 C1045 1.318 1_554 S
C1061 H1053 0.950 . S
C1061 C1059 1.327 . S
C1062 C1050 1.349 . S
C1062 H1056 0.950 . S
C1062 C1063 1.327 . S
C1063 H1057 0.950 . S
C1063 C1062 1.327 . S
C1063 C1067 1.429 . S
C1064 C1047 1.574 . S
C1064 H1058 0.949 . S
C1064 C1068 1.368 . S
C1065 C1046 1.429 . S
C1065 C1059 1.429 . S
C1065 C1066 1.523 . S
C1066 C1047 1.368 . S
C1066 C1060 1.368 . S
C1066 C1065 1.523 . S
C1067 C1051 1.429 . S
C1067 C1063 1.429 . S
C1067 C1068 1.523 . S
C1068 C1052 1.368 . S
C1068 C1064 1.368 . S
C1068 C1067 1.523 . S
H1069 C1044 0.950 1_556 S
H1070 C1046 0.950 . S
H1071 C1047 0.949 . S
H1072 C1049 0.950 . S
H1073 C1051 0.950 . S
C1074 C1075 1.349 . S
C1074 C1076 1.327 . S
C1074 H1099 0.950 . S
C1075 C1074 1.349 . S
C1075 C1091 1.349 . S
C1076 C1074 1.327 . S
C1076 C1095 1.429 . S
C1076 H1100 0.950 . S
C1077 C1094 1.574 . S
C1077 C1096 1.368 . S
C1077 H1101 0.949 . S
H1078 C1082 0.949 . S
C1079 C1080 1.349 . S
C1079 C1081 1.327 . S
C1079 H1102 0.950 . S
C1080 C1079 1.349 . S
C1080 C1092 1.349 . S
C1081 C1079 1.327 . S
C1081 C1097 1.429 . S
C1081 H1103 0.950 . S
C1082 H1078 0.949 . S
C1082 C1090 1.574 . S
C1082 C1098 1.368 . S
H1083 C1091 0.950 . S
H1084 C1089 0.950 . S
H1085 C1090 0.949 . S
H1086 C1092 0.950 . S
H1087 C1093 0.950 . S
H1088 C1094 0.949 . S
C1089 H1084 0.950 . S
C1089 C1091 1.327 . S
C1089 C1095 1.429 . S
C1090 C1082 1.574 . S
C1090 H1085 0.949 . S
C1090 C1096 1.368 . S
C1091 C1075 1.349 . S
C1091 H1083 0.950 . S
C1091 C1089 1.327 . S
C1092 C1080 1.349 . S
C1092 H1086 0.950 . S
C1092 C1093 1.327 . S
C1093 H1087 0.950 . S
C1093 C1092 1.327 . S
C1093 C1097 1.429 . S
C1094 C1077 1.574 . S
C1094 H1088 0.949 . S
C1094 C1098 1.368 . S
C1095 C1076 1.429 . S
C1095 C1089 1.429 . S
C1095 C1096 1.523 . S
C1096 C1077 1.368 . S
C1096 C1090 1.368 . S
C1096 C1095 1.523 . S
C1097 C1081 1.429 . S
C1097 C1093 1.429 . S
C1097 C1098 1.523 . S
C1098 C1082 1.368 . S
C1098 C1094 1.368 . S
C1098 C1097 1.523 . S
H1099 C1074 0.950 . S
H1100 C1076 0.950 . S
H1101 C1077 0.949 . S
H1102 C1079 0.950 . S
H1103 C1081 0.950 . S
C1104 C1105 1.349 . S
C1104 C1106 1.327 . S
C1104 H1129 0.950 . S
C1105 C1104 1.349 . S
C1105 C1121 1.349 . S
C1106 C1104 1.327 . S
C1106 C1125 1.429 . S
C1106 H1130 0.950 . S
C1107 C1124 1.574 . S
C1107 C1126 1.368 . S
C1107 H1131 0.949 . S
H1108 C1112 0.949 . S
C1109 C1110 1.349 . S
C1109 C1111 1.327 . S
C1109 H1132 0.950 . S
C1110 C1109 1.349 . S
C1110 C1122 1.349 . S
C1111 C1109 1.327 . S
C1111 C1127 1.429 . S
C1111 H1133 0.950 . S
C1112 H1108 0.949 . S
C1112 C1120 1.574 . S
C1112 C1128 1.368 . S
H1113 C1121 0.950 . S
H1114 C1119 0.950 . S
H1115 C1120 0.949 . S
H1116 C1122 0.950 . S
H1117 C1123 0.950 . S
H1118 C1124 0.949 . S
C1119 H1114 0.950 . S
C1119 C1121 1.327 . S
C1119 C1125 1.429 . S
C1120 C1112 1.574 . S
C1120 H1115 0.949 . S
C1120 C1126 1.368 . S
C1121 C1105 1.349 . S
C1121 H1113 0.950 . S
C1121 C1119 1.327 . S
C1122 C1110 1.349 . S
C1122 H1116 0.950 . S
C1122 C1123 1.327 . S
C1123 H1117 0.950 . S
C1123 C1122 1.327 . S
C1123 C1127 1.429 . S
C1124 C1107 1.574 . S
C1124 H1118 0.949 . S
C1124 C1128 1.368 . S
C1125 C1106 1.429 . S
C1125 C1119 1.429 . S
C1125 C1126 1.523 . S
C1126 C1107 1.368 . S
C1126 C1120 1.368 . S
C1126 C1125 1.523 . S
C1127 C1111 1.429 . S
C1127 C1123 1.429 . S
C1127 C1128 1.523 . S
C1128 C1112 1.368 . S
C1128 C1124 1.368 . S
C1128 C1127 1.523 . S
H1129 C1104 0.950 . S
H1130 C1106 0.950 . S
H1131 C1107 0.949 . S
H1132 C1109 0.950 . S
H1133 C1111 0.950 . S
C1134 C1135 1.349 . S
C1134 C1136 1.327 . S
C1134 H1159 0.950 . S
C1135 C1134 1.349 . S
C1135 C1151 1.349 . S
C1136 C1134 1.327 . S
C1136 C1155 1.429 . S
C1136 H1160 0.950 . S
C1137 C1154 1.574 . S
C1137 C1156 1.368 . S
C1137 H1161 0.949 . S
H1138 C1142 0.949 . S
C1139 C1140 1.349 . S
C1139 C1141 1.327 . S
C1139 H1162 0.950 . S
C1140 C1139 1.349 . S
C1140 C1152 1.349 . S
C1141 C1139 1.327 . S
C1141 C1157 1.429 . S
C1141 H1163 0.950 . S
C1142 H1138 0.949 . S
C1142 C1150 1.574 . S
C1142 C1158 1.368 . S
H1143 C1151 0.950 . S
H1144 C1149 0.950 . S
H1145 C1150 0.949 . S
H1146 C1152 0.950 . S
H1147 C1153 0.950 . S
H1148 C1154 0.949 . S
C1149 H1144 0.950 . S
C1149 C1151 1.327 . S
C1149 C1155 1.429 . S
C1150 C1142 1.574 . S
C1150 H1145 0.949 . S
C1150 C1156 1.368 . S
C1151 C1135 1.349 . S
C1151 H1143 0.950 . S
C1151 C1149 1.327 . S
C1152 C1140 1.349 . S
C1152 H1146 0.950 . S
C1152 C1153 1.327 . S
C1153 H1147 0.950 . S
C1153 C1152 1.327 . S
C1153 C1157 1.429 . S
C1154 C1137 1.574 . S
C1154 H1148 0.949 . S
C1154 C1158 1.368 . S
C1155 C1136 1.429 . S
C1155 C1149 1.429 . S
C1155 C1156 1.523 . S
C1156 C1137 1.368 . S
C1156 C1150 1.368 . S
C1156 C1155 1.523 . S
C1157 C1141 1.429 . S
C1157 C1153 1.429 . S
C1157 C1158 1.523 . S
C1158 C1142 1.368 . S
C1158 C1154 1.368 . S
C1158 C1157 1.523 . S
H1159 C1134 0.950 . S
H1160 C1136 0.950 . S
H1161 C1137 0.949 . S
H1162 C1139 0.950 . S
H1163 C1141 0.950 . S
C1164 C1165 1.349 . S
C1164 C1166 1.327 . S
C1164 H1189 0.950 . S
C1165 C1164 1.349 . S
C1165 C1181 1.349 . S
C1166 C1164 1.327 . S
C1166 C1185 1.429 . S
C1166 H1190 0.950 . S
C1167 C1184 1.574 . S
C1167 C1186 1.368 . S
C1167 H1191 0.949 . S
H1168 C1172 0.949 . S
C1169 C1170 1.349 . S
C1169 C1171 1.327 . S
C1169 H1192 0.950 . S
C1170 C1169 1.349 . S
C1170 C1182 1.349 . S
C1171 C1169 1.327 . S
C1171 C1187 1.429 . S
C1171 H1193 0.950 . S
C1172 H1168 0.949 . S
C1172 C1180 1.574 . S
C1172 C1188 1.368 . S
H1173 C1181 0.950 . S
H1174 C1179 0.950 . S
H1175 C1180 0.949 . S
H1176 C1182 0.950 . S
H1177 C1183 0.950 . S
H1178 C1184 0.949 . S
C1179 H1174 0.950 . S
C1179 C1181 1.327 . S
C1179 C1185 1.429 . S
C1180 C1172 1.574 . S
C1180 H1175 0.949 . S
C1180 C1186 1.368 . S
C1181 C1165 1.349 . S
C1181 H1173 0.950 . S
C1181 C1179 1.327 . S
C1182 C1170 1.349 . S
C1182 H1176 0.950 . S
C1182 C1183 1.327 . S
C1183 H1177 0.950 . S
C1183 C1182 1.327 . S
C1183 C1187 1.429 . S
C1184 C1167 1.574 . S
C1184 H1178 0.949 . S
C1184 C1188 1.368 . S
C1185 C1166 1.429 . S
C1185 C1179 1.429 . S
C1185 C1186 1.523 . S
C1186 C1167 1.368 . S
C1186 C1180 1.368 . S
C1186 C1185 1.523 . S
C1187 C1171 1.429 . S
C1187 C1183 1.429 . S
C1187 C1188 1.523 . S
C1188 C1172 1.368 . S
C1188 C1184 1.368 . S
C1188 C1187 1.523 . S
H1189 C1164 0.950 . S
H1190 C1166 0.950 . S
H1191 C1167 0.949 . S
H1192 C1169 0.950 . S
H1193 C1171 0.950 . S
C1194 C1195 1.349 . S
C1194 C1196 1.327 . S
C1194 H1219 0.950 . S
C1195 C1194 1.349 . S
C1195 C1211 1.349 . S
C1196 C1194 1.327 . S
C1196 C1215 1.429 . S
C1196 H1220 0.950 . S
C1197 C1214 1.574 . S
C1197 C1216 1.368 . S
C1197 H1221 0.949 . S
H1198 C1202 0.949 . S
C1199 C1200 1.349 . S
C1199 C1201 1.327 . S
C1199 H1222 0.950 . S
C1200 C1199 1.349 . S
C1200 C1212 1.349 . S
C1201 C1199 1.327 . S
C1201 C1217 1.429 . S
C1201 H1223 0.950 . S
C1202 H1198 0.949 . S
C1202 C1210 1.574 . S
C1202 C1218 1.368 . S
H1203 C1211 0.950 . S
H1204 C1209 0.950 . S
H1205 C1210 0.949 . S
H1206 C1212 0.950 . S
H1207 C1213 0.950 . S
H1208 C1214 0.949 . S
C1209 H1204 0.950 . S
C1209 C1211 1.327 . S
C1209 C1215 1.429 . S
C1210 C1202 1.574 . S
C1210 H1205 0.949 . S
C1210 C1216 1.368 . S
C1211 C1195 1.349 . S
C1211 H1203 0.950 . S
C1211 C1209 1.327 . S
C1212 C1200 1.349 . S
C1212 H1206 0.950 . S
C1212 C1213 1.327 . S
C1213 H1207 0.950 . S
C1213 C1212 1.327 . S
C1213 C1217 1.429 . S
C1214 C1197 1.574 . S
C1214 H1208 0.949 . S
C1214 C1218 1.368 . S
C1215 C1196 1.429 . S
C1215 C1209 1.429 . S
C1215 C1216 1.523 . S
C1216 C1197 1.368 . S
C1216 C1210 1.368 . S
C1216 C1215 1.523 . S
C1217 C1201 1.429 . S
C1217 C1213 1.429 . S
C1217 C1218 1.523 . S
C1218 C1202 1.368 . S
C1218 C1214 1.368 . S
C1218 C1217 1.523 . S
H1219 C1194 0.950 . S
H1220 C1196 0.950 . S
H1221 C1197 0.949 . S
H1222 C1199 0.950 . S
H1223 C1201 0.950 . S
C1224 C1225 1.349 . S
C1224 C1226 1.327 . S
C1224 H1249 0.950 . S
C1225 C1224 1.349 . S
C1225 C1241 1.349 . S
C1226 C1224 1.327 . S
C1226 C1245 1.429 . S
C1226 H1250 0.950 . S
C1227 C1244 1.574 . S
C1227 C1246 1.368 . S
C1227 H1251 0.949 . S
H1228 C1232 0.949 . S
C1229 C1230 1.349 . S
C1229 C1231 1.327 . S
C1229 H1252 0.950 . S
C1230 C1229 1.349 . S
C1230 C1242 1.349 . S
C1231 C1229 1.327 . S
C1231 C1247 1.429 . S
C1231 H1253 0.950 . S
C1232 H1228 0.949 . S
C1232 C1240 1.574 . S
C1232 C1248 1.368 . S
H1233 C1241 0.950 . S
H1234 C1239 0.950 . S
H1235 C1240 0.949 . S
H1236 C1242 0.950 1_455 S
H1237 C1243 0.950 . S
H1238 C1244 0.949 . S
C1239 H1234 0.950 . S
C1239 C1241 1.327 . S
C1239 C1245 1.429 . S
C1240 C1232 1.574 . S
C1240 H1235 0.949 . S
C1240 C1246 1.368 . S
C1241 C1225 1.349 . S
C1241 H1233 0.950 . S
C1241 C1239 1.327 . S
C1242 C1230 1.349 . S
C1242 H1236 0.950 1_655 S
C1242 C1243 1.327 . S
C1243 H1237 0.950 . S
C1243 C1242 1.327 . S
C1243 C1247 1.429 . S
C1244 C1227 1.574 . S
C1244 H1238 0.949 . S
C1244 C1248 1.368 . S
C1245 C1226 1.429 . S
C1245 C1239 1.429 . S
C1245 C1246 1.523 . S
C1246 C1227 1.368 . S
C1246 C1240 1.368 . S
C1246 C1245 1.523 . S
C1247 C1231 1.429 . S
C1247 C1243 1.429 . S
C1247 C1248 1.523 . S
C1248 C1232 1.368 . S
C1248 C1244 1.368 . S
C1248 C1247 1.523 . S
H1249 C1224 0.950 . S
H1250 C1226 0.950 . S
H1251 C1227 0.949 . S
H1252 C1229 0.950 . S
H1253 C1231 0.950 . S
C1254 C1255 1.349 . S
C1254 C1256 1.327 . S
C1254 H1279 0.950 . S
C1255 C1254 1.349 . S
C1255 C1271 1.349 . S
C1256 C1254 1.327 . S
C1256 C1275 1.429 . S
C1256 H1280 0.950 . S
C1257 C1274 1.574 . S
C1257 C1276 1.368 . S
C1257 H1281 0.949 . S
H1258 C1262 0.949 . S
C1259 C1260 1.349 . S
C1259 C1261 1.327 . S
C1259 H1282 0.950 . S
C1260 C1259 1.349 . S
C1260 C1272 1.349 . S
C1261 C1259 1.327 . S
C1261 C1277 1.429 . S
C1261 H1283 0.950 . S
C1262 H1258 0.949 . S
C1262 C1270 1.574 . S
C1262 C1278 1.368 . S
H1263 C1271 0.950 . S
H1264 C1269 0.950 . S
H1265 C1270 0.949 . S
H1266 C1272 0.950 . S
H1267 C1273 0.950 . S
H1268 C1274 0.949 . S
C1269 H1264 0.950 . S
C1269 C1271 1.327 . S
C1269 C1275 1.429 . S
C1270 C1262 1.574 . S
C1270 H1265 0.949 . S
C1270 C1276 1.368 . S
C1271 C1255 1.349 . S
C1271 H1263 0.950 . S
C1271 C1269 1.327 . S
C1272 C1260 1.349 . S
C1272 H1266 0.950 . S
C1272 C1273 1.327 . S
C1273 H1267 0.950 . S
C1273 C1272 1.327 . S
C1273 C1277 1.429 . S
C1274 C1257 1.574 . S
C1274 H1268 0.949 . S
C1274 C1278 1.368 . S
C1275 C1256 1.429 . S
C1275 C1269 1.429 . S
C1275 C1276 1.523 . S
C1276 C1257 1.368 . S
C1276 C1270 1.368 . S
C1276 C1275 1.523 . S
C1277 C1261 1.429 . S
C1277 C1273 1.429 . S
C1277 C1278 1.523 . S
C1278 C1262 1.368 . S
C1278 C1274 1.368 . S
C1278 C1277 1.523 . S
H1279 C1254 0.950 . S
H1280 C1256 0.950 . S
H1281 C1257 0.949 . S
H1282 C1259 0.950 . S
H1283 C1261 0.950 . S
C1284 C1285 1.349 . S
C1284 C1286 1.327 . S
C1284 H1309 0.950 . S
C1285 C1284 1.349 . S
C1285 C1301 1.349 . S
C1286 C1284 1.327 . S
C1286 C1305 1.429 . S
C1286 H1310 0.950 . S
C1287 C1304 1.574 . S
C1287 C1306 1.368 . S
C1287 H1311 0.949 . S
H1288 C1292 0.949 . S
C1289 C1290 1.349 . S
C1289 C1291 1.327 . S
C1289 H1312 0.950 . S
C1290 C1289 1.349 . S
C1290 C1302 1.349 . S
C1291 C1289 1.327 . S
C1291 C1307 1.429 . S
C1291 H1313 0.950 . S
C1292 H1288 0.949 . S
C1292 C1300 1.574 . S
C1292 C1308 1.368 . S
H1293 C1301 0.950 . S
H1294 C1299 0.950 . S
H1295 C1300 0.949 . S
H1296 C1302 0.950 . S
H1297 C1303 0.950 . S
H1298 C1304 0.949 . S
C1299 H1294 0.950 . S
C1299 C1301 1.327 . S
C1299 C1305 1.429 . S
C1300 C1292 1.574 . S
C1300 H1295 0.949 . S
C1300 C1306 1.368 . S
C1301 C1285 1.349 . S
C1301 H1293 0.950 . S
C1301 C1299 1.327 . S
C1302 C1290 1.349 . S
C1302 H1296 0.950 . S
C1302 C1303 1.327 . S
C1303 H1297 0.950 . S
C1303 C1302 1.327 . S
C1303 C1307 1.429 . S
C1304 C1287 1.574 . S
C1304 H1298 0.949 . S
C1304 C1308 1.368 . S
C1305 C1286 1.429 . S
C1305 C1299 1.429 . S
C1305 C1306 1.523 . S
C1306 C1287 1.368 . S
C1306 C1300 1.368 . S
C1306 C1305 1.523 . S
C1307 C1291 1.429 . S
C1307 C1303 1.429 . S
C1307 C1308 1.523 . S
C1308 C1292 1.368 . S
C1308 C1304 1.368 . S
C1308 C1307 1.523 . S
H1309 C1284 0.950 . S
H1310 C1286 0.950 . S
H1311 C1287 0.949 . S
H1312 C1289 0.950 . S
H1313 C1291 0.950 . S
C1314 C1315 1.349 . S
C1314 C1316 1.327 . S
C1314 H1339 0.950 . S
C1315 C1314 1.349 . S
C1315 C1331 1.349 . S
C1316 C1314 1.327 . S
C1316 C1335 1.429 . S
C1316 H1340 0.950 . S
C1317 C1334 1.574 . S
C1317 C1336 1.368 . S
C1317 H1341 0.949 . S
H1318 C1322 0.949 . S
C1319 C1320 1.349 . S
C1319 C1321 1.327 . S
C1319 H1342 0.950 . S
C1320 C1319 1.349 . S
C1320 C1332 1.349 . S
C1321 C1319 1.327 . S
C1321 C1337 1.429 . S
C1321 H1343 0.950 . S
C1322 H1318 0.949 . S
C1322 C1330 1.574 . S
C1322 C1338 1.368 . S
H1323 C1331 0.950 . S
H1324 C1329 0.950 . S
H1325 C1330 0.949 . S
H1326 C1332 0.950 . S
H1327 C1333 0.950 . S
H1328 C1334 0.949 . S
C1329 H1324 0.950 . S
C1329 C1331 1.327 . S
C1329 C1335 1.429 . S
C1330 C1322 1.574 . S
C1330 H1325 0.949 . S
C1330 C1336 1.368 . S
C1331 C1315 1.349 . S
C1331 H1323 0.950 . S
C1331 C1329 1.327 . S
C1332 C1320 1.349 . S
C1332 H1326 0.950 . S
C1332 C1333 1.327 . S
C1333 H1327 0.950 . S
C1333 C1332 1.327 . S
C1333 C1337 1.429 . S
C1334 C1317 1.574 . S
C1334 H1328 0.949 . S
C1334 C1338 1.368 . S
C1335 C1316 1.429 . S
C1335 C1329 1.429 . S
C1335 C1336 1.523 . S
C1336 C1317 1.368 . S
C1336 C1330 1.368 . S
C1336 C1335 1.523 . S
C1337 C1321 1.429 . S
C1337 C1333 1.429 . S
C1337 C1338 1.523 . S
C1338 C1322 1.368 . S
C1338 C1334 1.368 . S
C1338 C1337 1.523 . S
H1339 C1314 0.950 . S
H1340 C1316 0.950 . S
H1341 C1317 0.949 . S
H1342 C1319 0.950 . S
H1343 C1321 0.950 . S
C625 C247 1.473 . S
C630 C362 1.453 . S
C660 C446 1.453 . S
C655 C283 1.473 . S
C690 C439 1.459 . S
C685 C175 1.464 . S
C715 C211 1.464 . S
C720 C355 1.460 . S
C750 C519 1.454 . S
C745 C103 1.461 . S
C780 C603 1.453 . S
C775 C139 1.460 . S
C805 C31 1.450 . S
C810 C596 1.459 . S
C835 C67 1.450 . S
C840 C512 1.459 . S
C870 C346 1.347 . S
C865 C37 1.511 1_554 S
C900 C430 1.347 . S
C895 C1 1.510 . S
C930 C441 1.406 . S
C925 C109 1.574 . S
C960 C357 1.406 . S
C955 C73 1.533 . S
C990 C525 1.347 . S
C985 C181 1.522 1_556 S
C1015 C145 1.522 . S
C1020 C609 1.347 . S
C1050 C598 1.406 . S
C1045 C253 1.595 . S
C1075 C217 1.544 . S
C1080 C514 1.406 . S
C1110 C344 1.588 . S
C1105 C25 1.567 . S
C1140 C428 1.588 . S
C1135 C61 1.567 . S
C1165 C97 1.559 . S
C1170 C435 1.565 . S
C1200 C351 1.566 . S
C1195 C133 1.559 . S
C1230 C523 1.589 . S
C1225 C169 1.584 . S
C1255 C205 1.583 . S
C1260 C607 1.588 . S
C1285 C241 1.574 . S
C1290 C614 1.566 . S
C1315 C277 1.574 . S
C1320 C530 1.565 . S
