# Generated by pormake.
# Topology wbl, (4,4)-cn, num edge types: 1
# Building blocks:
#     Node 0, Type 0, BuildingBlock: MIFKUJ_clean_linker_1, # of connection points: 4
#     Node 1, Type 0, BuildingBlock: MIFKUJ_clean_linker_1, # of connection points: 4
#     Node 2, Type 0, BuildingBlock: MIFKUJ_clean_linker_1, # of connection points: 4
#     Node 3, Type 0, BuildingBlock: MIFKUJ_clean_linker_1, # of connection points: 4
#     Node 4, Type 0, BuildingBlock: MIFKUJ_clean_linker_1, # of connection points: 4
#     Node 5, Type 0, BuildingBlock: MIFKUJ_clean_linker_1, # of connection points: 4
#     Node 6, Type 0, BuildingBlock: MIFKUJ_clean_linker_1, # of connection points: 4
#     Node 7, Type 0, BuildingBlock: MIFKUJ_clean_linker_1, # of connection points: 4
#     Node 8, Type 1, BuildingBlock: KUFVIS_clean_sbu_0, # of connection points: 4
#     Node 9, Type 1, BuildingBlock: KUFVIS_clean_sbu_0, # of connection points: 4
#     Node 10, Type 1, BuildingBlock: KUFVIS_clean_sbu_0, # of connection points: 4
#     Node 11, Type 1, BuildingBlock: KUFVIS_clean_sbu_0, # of connection points: 4
#     Node 12, Type 1, BuildingBlock: KUFVIS_clean_sbu_0, # of connection points: 4
#     Node 13, Type 1, BuildingBlock: KUFVIS_clean_sbu_0, # of connection points: 4
#     Node 14, Type 1, BuildingBlock: KUFVIS_clean_sbu_0, # of connection points: 4
#     Node 15, Type 1, BuildingBlock: KUFVIS_clean_sbu_0, # of connection points: 4
#     Edge 16, Type (0, 1), BuildingBlock: TEMPAE_clean_linker_10, # of connection points: 2
#     Edge 17, Type (0, 1), BuildingBlock: TEMPAE_clean_linker_10, # of connection points: 2
#     Edge 18, Type (0, 1), BuildingBlock: TEMPAE_clean_linker_10, # of connection points: 2
#     Edge 19, Type (0, 1), BuildingBlock: TEMPAE_clean_linker_10, # of connection points: 2
#     Edge 20, Type (0, 1), BuildingBlock: TEMPAE_clean_linker_10, # of connection points: 2
#     Edge 21, Type (0, 1), BuildingBlock: TEMPAE_clean_linker_10, # of connection points: 2
#     Edge 22, Type (0, 1), BuildingBlock: TEMPAE_clean_linker_10, # of connection points: 2
#     Edge 23, Type (0, 1), BuildingBlock: TEMPAE_clean_linker_10, # of connection points: 2
#     Edge 24, Type (0, 1), BuildingBlock: TEMPAE_clean_linker_10, # of connection points: 2
#     Edge 25, Type (0, 1), BuildingBlock: TEMPAE_clean_linker_10, # of connection points: 2
#     Edge 26, Type (0, 1), BuildingBlock: TEMPAE_clean_linker_10, # of connection points: 2
#     Edge 27, Type (0, 1), BuildingBlock: TEMPAE_clean_linker_10, # of connection points: 2
#     Edge 28, Type (0, 1), BuildingBlock: TEMPAE_clean_linker_10, # of connection points: 2
#     Edge 29, Type (0, 1), BuildingBlock: TEMPAE_clean_linker_10, # of connection points: 2
#     Edge 30, Type (0, 1), BuildingBlock: TEMPAE_clean_linker_10, # of connection points: 2
#     Edge 31, Type (0, 1), BuildingBlock: TEMPAE_clean_linker_10, # of connection points: 2
#     Edge 32, Type (0, 1), BuildingBlock: TEMPAE_clean_linker_10, # of connection points: 2
#     Edge 33, Type (0, 1), BuildingBlock: TEMPAE_clean_linker_10, # of connection points: 2
#     Edge 34, Type (0, 1), BuildingBlock: TEMPAE_clean_linker_10, # of connection points: 2
#     Edge 35, Type (0, 1), BuildingBlock: TEMPAE_clean_linker_10, # of connection points: 2
#     Edge 36, Type (0, 1), BuildingBlock: TEMPAE_clean_linker_10, # of connection points: 2
#     Edge 37, Type (0, 1), BuildingBlock: TEMPAE_clean_linker_10, # of connection points: 2
#     Edge 38, Type (0, 1), BuildingBlock: TEMPAE_clean_linker_10, # of connection points: 2
#     Edge 39, Type (0, 1), BuildingBlock: TEMPAE_clean_linker_10, # of connection points: 2
#     Edge 40, Type (0, 1), BuildingBlock: TEMPAE_clean_linker_10, # of connection points: 2
#     Edge 41, Type (0, 1), BuildingBlock: TEMPAE_clean_linker_10, # of connection points: 2
#     Edge 42, Type (0, 1), BuildingBlock: TEMPAE_clean_linker_10, # of connection points: 2
#     Edge 43, Type (0, 1), BuildingBlock: TEMPAE_clean_linker_10, # of connection points: 2
#     Edge 44, Type (0, 1), BuildingBlock: TEMPAE_clean_linker_10, # of connection points: 2
#     Edge 45, Type (0, 1), BuildingBlock: TEMPAE_clean_linker_10, # of connection points: 2
#     Edge 46, Type (0, 1), BuildingBlock: TEMPAE_clean_linker_10, # of connection points: 2
#     Edge 47, Type (0, 1), BuildingBlock: TEMPAE_clean_linker_10, # of connection points: 2
# Relax obj value: 0.148
# Max RMSD: 0.142
# Mean RMSD: 0.130
data_MOF--net-wbl--node1-KUFVIS_clean_sbu_0--node2-MIFKUJ_clean_linker_1--edge1-TEMPAE_clean_linker_10
_symmetry_space_group_name_H-M    P1
_symmetry_Int_Tables_number       1
_symmetry_cell_setting            triclinic
loop_
_symmetry_equiv_pos_as_xyz
'x, y, z'
_cell_length_a     46.568725
_cell_length_b     46.57636
_cell_length_c     74.971815
_cell_angle_alpha  90.040318
_cell_angle_beta   90.69961
_cell_angle_gamma 90.012453
loop_
_atom_site_label
_atom_site_type_symbol
_atom_site_fract_x
_atom_site_fract_y
_atom_site_fract_z
_atom_type_partial_charge
H0 H 0.01729 0.09013 0.35093 0.0
H1 H 0.98457 0.11425 0.3709 0.0
H2 H 0.9123 0.07955 0.34111 0.0
H3 H 0.94551 0.05338 0.32206 0.0
H4 H 0.02209 0.03349 0.34813 0.0
H5 H 0.99229 0.11077 0.30694 0.0
H6 H 0.94976 0.13414 0.29393 0.0
H7 H 0.92764 0.05535 0.26665 0.0
H8 H 0.96958 0.03195 0.27996 0.0
H9 H 0.04063 0.9819 0.27801 0.0
H10 H 0.07907 0.95287 0.26483 0.0
H11 H 0.14092 0.99358 0.29999 0.0
H12 H 0.10283 0.02262 0.31286 0.0
H13 H 0.02727 0.03762 0.28212 0.0
H14 H 0.04399 0.95966 0.32055 0.0
H15 H 0.06631 0.92383 0.34015 0.0
H16 H 0.10119 0.99174 0.37316 0.0
H17 H 0.07901 0.02751 0.35342 0.0
C18 C 0.98396 0.07003 0.33492 0.0
C19 C 0.99438 0.08782 0.34863 0.0
C20 C 0.97551 0.10201 0.35992 0.0
C21 C 0.94558 0.09912 0.35767 0.0
C22 C 0.93515 0.08207 0.34346 0.0
C23 C 0.95414 0.06734 0.33237 0.0
C24 C 0.00462 0.05289 0.32432 0.0
C25 C 0.02362 0.03494 0.33373 0.0
C26 C 0.00537 0.05331 0.30541 0.0
C27 C 0.98375 0.06943 0.29473 0.0
C28 C 0.97852 0.09869 0.29792 0.0
C29 C 0.95427 0.11202 0.2905 0.0
C30 C 0.93529 0.09646 0.27943 0.0
C31 C 0.94198 0.06792 0.27504 0.0
C32 C 0.96597 0.05452 0.28265 0.0
C33 C 0.06879 0.00405 0.29664 0.0
C34 C 0.06255 0.98486 0.28265 0.0
C35 C 0.08446 0.96829 0.27516 0.0
C36 C 0.11284 0.97068 0.28162 0.0
C37 C 0.11914 0.99088 0.29502 0.0
C38 C 0.0974 0.0075 0.30235 0.0
C39 C 0.04559 0.01939 0.30612 0.0
C40 C 0.02609 0.03673 0.29655 0.0
C41 C 0.04348 0.01767 0.32489 0.0
C42 C 0.05988 0.99625 0.33552 0.0
C43 C 0.05696 0.96684 0.33178 0.0
C44 C 0.06957 0.9464 0.34303 0.0
C45 C 0.08541 0.95502 0.35818 0.0
C46 C 0.08935 0.98449 0.36147 0.0
C47 C 0.07654 0.00493 0.3503 0.0
H48 H 0.00959 0.43561 0.53645 0.0
H49 H 0.98482 0.39385 0.5237 0.0
H50 H 0.90395 0.42686 0.54248 0.0
H51 H 0.92878 0.4687 0.55502 0.0
H52 H 0.00602 0.49563 0.53316 0.0
H53 H 0.98759 0.42324 0.58218 0.0
H54 H 0.95945 0.39588 0.60377 0.0
H55 H 0.90839 0.4714 0.61428 0.0
H56 H 0.93715 0.49865 0.59316 0.0
H57 H 0.00505 0.55879 0.60097 0.0
H58 H 0.0376 0.58485 0.62112 0.0
H59 H 0.11039 0.54797 0.59428 0.0
H60 H 0.07779 0.52162 0.57437 0.0
H61 H 0.99969 0.50242 0.5991 0.0
H62 H 0.00757 0.57444 0.55727 0.0
H63 H 0.03415 0.61402 0.54422 0.0
H64 H 0.09376 0.55381 0.52115 0.0
H65 H 0.06641 0.51382 0.53416 0.0
C66 C 0.97111 0.45502 0.54694 0.0
C67 C 0.98645 0.43414 0.53749 0.0
C68 C 0.97227 0.4103 0.53021 0.0
C69 C 0.94249 0.40693 0.53229 0.0
C70 C 0.92698 0.42864 0.54094 0.0
C71 C 0.94114 0.45256 0.54809 0.0
C72 C 0.98678 0.47789 0.55683 0.0
C73 C 0.00489 0.49685 0.54758 0.0
C74 C 0.98408 0.48087 0.57553 0.0
C75 C 0.96452 0.46295 0.58622 0.0
C76 C 0.96998 0.43365 0.58893 0.0
C77 C 0.95378 0.41806 0.6012 0.0
C78 C 0.93189 0.43158 0.61092 0.0
C79 C 0.92545 0.4605 0.60729 0.0
C80 C 0.94175 0.47607 0.59518 0.0
C81 C 0.03897 0.53825 0.58617 0.0
C82 C 0.02802 0.55667 0.59926 0.0
C83 C 0.04663 0.57172 0.61067 0.0
C84 C 0.07654 0.56836 0.6093 0.0
C85 C 0.08745 0.55082 0.59571 0.0
C86 C 0.06883 0.53593 0.58425 0.0
C87 C 0.01947 0.51943 0.57558 0.0
C88 C 0.00077 0.50123 0.58466 0.0
C89 C 0.02051 0.5182 0.55677 0.0
C90 C 0.03519 0.54126 0.54681 0.0
C91 C 0.02621 0.56969 0.54926 0.0
C92 C 0.04159 0.59231 0.54193 0.0
C93 C 0.06646 0.58708 0.532 0.0
C94 C 0.07474 0.55848 0.5288 0.0
C95 C 0.05915 0.53566 0.53616 0.0
H96 H 0.51757 0.57669 0.85471 0.0
H97 H 0.48538 0.60002 0.87531 0.0
H98 H 0.4124 0.5681 0.84498 0.0
H99 H 0.4451 0.5426 0.82524 0.0
H100 H 0.52235 0.52099 0.85058 0.0
H101 H 0.49211 0.60009 0.81166 0.0
H102 H 0.4504 0.62516 0.79885 0.0
H103 H 0.42818 0.5492 0.76868 0.0
H104 H 0.46915 0.52391 0.78193 0.0
H105 H 0.54042 0.47139 0.78014 0.0
H106 H 0.57916 0.44323 0.76658 0.0
H107 H 0.64104 0.48592 0.8008 0.0
H108 H 0.6026 0.51396 0.8141 0.0
H109 H 0.52642 0.52816 0.78464 0.0
H110 H 0.54653 0.44863 0.82213 0.0
H111 H 0.5706 0.41343 0.8414 0.0
H112 H 0.60299 0.48222 0.87468 0.0
H113 H 0.57928 0.51731 0.85523 0.0
C114 C 0.48387 0.55796 0.83834 0.0
C115 C 0.49463 0.57478 0.85244 0.0
C116 C 0.47604 0.58853 0.86411 0.0
C117 C 0.44606 0.58626 0.86186 0.0
C118 C 0.43529 0.57012 0.84733 0.0
C119 C 0.454 0.55579 0.83585 0.0
C120 C 0.50428 0.54131 0.82725 0.0
C121 C 0.52357 0.52308 0.83619 0.0
C122 C 0.50478 0.54271 0.80834 0.0
C123 C 0.48337 0.55988 0.79808 0.0
C124 C 0.47844 0.58893 0.80214 0.0
C125 C 0.45468 0.60325 0.79481 0.0
C126 C 0.43599 0.58902 0.7829 0.0
C127 C 0.44234 0.56073 0.77775 0.0
C128 C 0.46577 0.54627 0.78531 0.0
C129 C 0.56857 0.49442 0.79834 0.0
C130 C 0.5624 0.47497 0.78449 0.0
C131 C 0.5845 0.45888 0.77678 0.0
C132 C 0.61302 0.46204 0.78288 0.0
C133 C 0.61919 0.48256 0.79612 0.0
C134 C 0.59725 0.49866 0.80368 0.0
C135 C 0.54527 0.50902 0.80821 0.0
C136 C 0.52542 0.52657 0.79905 0.0
C137 C 0.54361 0.50657 0.82696 0.0
C138 C 0.56112 0.48559 0.83726 0.0
C139 C 0.55938 0.45615 0.83334 0.0
C140 C 0.57298 0.43606 0.8444 0.0
C141 C 0.5886 0.44507 0.85957 0.0
C142 C 0.5914 0.47463 0.86298 0.0
C143 C 0.57767 0.49469 0.85197 0.0
H144 H 0.50356 0.91523 0.06703 0.0
H145 H 0.47908 0.87332 0.05453 0.0
H146 H 0.42694 0.92859 0.02121 0.0
H147 H 0.45101 0.97084 0.03417 0.0
H148 H 0.5031 0.99259 0.03628 0.0
H149 H 0.51487 0.94396 0.10795 0.0
H150 H 0.48889 0.91606 0.13012 0.0
H151 H 0.40982 0.92918 0.10064 0.0
H152 H 0.43576 0.95792 0.0786 0.0
H153 H 0.50655 0.05498 0.10364 0.0
H154 H 0.53864 0.08393 0.12249 0.0
H155 H 0.61138 0.05402 0.09252 0.0
H156 H 0.57916 0.0251 0.07367 0.0
H157 H 0.50936 0.99719 0.10235 0.0
H158 H 0.50636 0.07278 0.06284 0.0
H159 H 0.52855 0.11354 0.04835 0.0
H160 H 0.57805 0.05579 0.0156 0.0
H161 H 0.55661 0.01471 0.03106 0.0
C162 C 0.47869 0.94627 0.05186 0.0
C163 C 0.48678 0.91844 0.05709 0.0
C164 C 0.47283 0.89449 0.04993 0.0
C165 C 0.45089 0.89778 0.03709 0.0
C166 C 0.44379 0.92551 0.03111 0.0
C167 C 0.45754 0.94961 0.03849 0.0
C168 C 0.49169 0.9716 0.06093 0.0
C169 C 0.50445 0.99348 0.05072 0.0
C170 C 0.49257 0.97361 0.07981 0.0
C171 C 0.47729 0.95321 0.09164 0.0
C172 C 0.49198 0.94069 0.10613 0.0
C173 C 0.47716 0.92475 0.11878 0.0
C174 C 0.44737 0.92076 0.11712 0.0
C175 C 0.43282 0.9319 0.10214 0.0
C176 C 0.44764 0.94823 0.08955 0.0
C177 C 0.54049 0.03786 0.08731 0.0
C178 C 0.52934 0.05515 0.10091 0.0
C179 C 0.54766 0.07181 0.11157 0.0
C180 C 0.57749 0.07113 0.10897 0.0
C181 C 0.58848 0.05484 0.09482 0.0
C182 C 0.5701 0.03843 0.08403 0.0
C183 C 0.52178 0.01696 0.07779 0.0
C184 C 0.50793 0.99606 0.08791 0.0
C185 C 0.51906 0.01646 0.05901 0.0
C186 C 0.53011 0.04069 0.04823 0.0
C187 C 0.52193 0.06883 0.0525 0.0
C188 C 0.53447 0.09219 0.04402 0.0
C189 C 0.55515 0.08807 0.03074 0.0
C190 C 0.56249 0.05977 0.02593 0.0
C191 C 0.55003 0.03626 0.03459 0.0
H192 H 0.01712 0.59566 0.92484 0.0
H193 H 0.04861 0.61909 0.90321 0.0
H194 H 0.05776 0.5386 0.87527 0.0
H195 H 0.02698 0.51518 0.89697 0.0
H196 H 0.97426 0.52261 0.90241 0.0
H197 H 0.00709 0.58422 0.9678 0.0
H198 H 0.05213 0.60531 0.97927 0.0
H199 H 0.10035 0.54279 0.94938 0.0
H200 H 0.05569 0.52195 0.93811 0.0
H201 H 0.96169 0.47544 0.97402 0.0
H202 H 0.9224 0.44926 0.98845 0.0
H203 H 0.86067 0.49714 0.95702 0.0
H204 H 0.89965 0.52333 0.94289 0.0
H205 H 0.98171 0.52943 0.9684 0.0
H206 H 0.95035 0.45308 0.93375 0.0
H207 H 0.92524 0.41751 0.91534 0.0
H208 H 0.89288 0.48532 0.88136 0.0
H209 H 0.91763 0.52089 0.90002 0.0
C210 C 0.01952 0.55366 0.91249 0.0
C211 C 0.02633 0.58295 0.91424 0.0
C212 C 0.04425 0.59634 0.90189 0.0
C213 C 0.05526 0.5807 0.88747 0.0
C214 C 0.04915 0.55125 0.88609 0.0
C215 C 0.03155 0.53787 0.89849 0.0
C216 C 0.99861 0.53967 0.92456 0.0
C217 C 0.97574 0.52442 0.91682 0.0
C218 C 0.00146 0.54057 0.94338 0.0
C219 C 0.02809 0.55183 0.95189 0.0
C220 C 0.0274 0.57493 0.96392 0.0
C221 C 0.05309 0.58697 0.97041 0.0
C222 C 0.07975 0.57604 0.96494 0.0
C223 C 0.08019 0.55216 0.95348 0.0
C224 C 0.05467 0.54013 0.94711 0.0
C225 C 0.9336 0.50105 0.95719 0.0
C226 C 0.93967 0.48078 0.97059 0.0
C227 C 0.91726 0.4658 0.97878 0.0
C228 C 0.88858 0.47086 0.97359 0.0
C229 C 0.8826 0.49245 0.96102 0.0
C230 C 0.90486 0.50748 0.95299 0.0
C231 C 0.95676 0.51328 0.94607 0.0
C232 C 0.97997 0.52816 0.95398 0.0
C233 C 0.95556 0.51025 0.9273 0.0
C234 C 0.93586 0.48966 0.91826 0.0
C235 C 0.93706 0.4604 0.9227 0.0
C236 C 0.9229 0.44006 0.9121 0.0
C237 C 0.90731 0.44863 0.89685 0.0
C238 C 0.90452 0.47809 0.89312 0.0
C239 C 0.9188 0.49843 0.90369 0.0
H240 H 0.49872 0.5569 0.22074 0.0
H241 H 0.4707 0.59644 0.23315 0.0
H242 H 0.39272 0.55781 0.21272 0.0
H243 H 0.42099 0.51817 0.20011 0.0
H244 H 0.49626 0.49335 0.2226 0.0
H245 H 0.47005 0.57465 0.18176 0.0
H246 H 0.43599 0.60195 0.16338 0.0
H247 H 0.41445 0.52426 0.13444 0.0
H248 H 0.4461 0.49707 0.15383 0.0
H249 H 0.51748 0.42198 0.17424 0.0
H250 H 0.54599 0.39514 0.15259 0.0
H251 H 0.59296 0.47251 0.14019 0.0
H252 H 0.56393 0.49921 0.16147 0.0
H253 H 0.50198 0.50084 0.15674 0.0
H254 H 0.4945 0.43476 0.2196 0.0
H255 H 0.5198 0.39347 0.23234 0.0
H256 H 0.60005 0.42682 0.2128 0.0
H257 H 0.57465 0.4683 0.20024 0.0
C258 C 0.46193 0.53478 0.20944 0.0
C259 C 0.47554 0.55652 0.21933 0.0
C260 C 0.45957 0.57915 0.22628 0.0
C261 C 0.42968 0.58019 0.22368 0.0
C262 C 0.41576 0.55737 0.21489 0.0
C263 C 0.43184 0.53481 0.20773 0.0
C264 C 0.47978 0.51467 0.19908 0.0
C265 C 0.49743 0.49488 0.20819 0.0
C266 C 0.48078 0.51621 0.18025 0.0
C267 C 0.46032 0.53364 0.16941 0.0
C268 C 0.45735 0.56344 0.17177 0.0
C269 C 0.43811 0.57912 0.16104 0.0
C270 C 0.42206 0.56541 0.14743 0.0
C271 C 0.42553 0.53562 0.14507 0.0
C272 C 0.44411 0.51998 0.15601 0.0
C273 C 0.53856 0.46256 0.16935 0.0
C274 C 0.53431 0.43295 0.16709 0.0
C275 C 0.55071 0.41765 0.15477 0.0
C276 C 0.57154 0.43178 0.14452 0.0
C277 C 0.57675 0.46111 0.14763 0.0
C278 C 0.56028 0.47637 0.15983 0.0
C279 C 0.51865 0.47989 0.1802 0.0
C280 C 0.50075 0.49931 0.17116 0.0
C281 C 0.51641 0.47692 0.1989 0.0
C282 C 0.5326 0.45439 0.20873 0.0
C283 C 0.51762 0.43351 0.2184 0.0
C284 C 0.53211 0.40992 0.22568 0.0
C285 C 0.56186 0.40677 0.2234 0.0
C286 C 0.57704 0.42847 0.21451 0.0
C287 C 0.56257 0.45216 0.20735 0.0
H288 H 0.48447 0.97097 0.40245 0.0
H289 H 0.45984 0.93631 0.38366 0.0
H290 H 0.37922 0.95829 0.40826 0.0
H291 H 0.40412 0.9947 0.42642 0.0
H292 H 0.47877 0.02722 0.40331 0.0
H293 H 0.46037 0.94739 0.44513 0.0
H294 H 0.42307 0.91718 0.45825 0.0
H295 H 0.38552 0.99214 0.48261 0.0
H296 H 0.42257 0.02225 0.46927 0.0
H297 H 0.51458 0.09999 0.44562 0.0
H298 H 0.55849 0.12238 0.45745 0.0
H299 H 0.58437 0.04112 0.48021 0.0
H300 H 0.54097 0.01873 0.46805 0.0
H301 H 0.48393 0.02298 0.46937 0.0
H302 H 0.48375 0.08866 0.40565 0.0
H303 H 0.51381 0.11493 0.38469 0.0
H304 H 0.58753 0.06556 0.40214 0.0
H305 H 0.55734 0.03973 0.4233 0.0
C306 C 0.44623 0.98541 0.41591 0.0
C307 C 0.46145 0.96849 0.40379 0.0
C308 C 0.44733 0.94827 0.39321 0.0
C309 C 0.41753 0.94403 0.39462 0.0
C310 C 0.40216 0.96101 0.40679 0.0
C311 C 0.41638 0.98168 0.41728 0.0
C312 C 0.46235 0.0068 0.42681 0.0
C313 C 0.47961 0.02654 0.41778 0.0
C314 C 0.46318 0.00616 0.4457 0.0
C315 C 0.4439 0.98714 0.45596 0.0
C316 C 0.4443 0.95725 0.45348 0.0
C317 C 0.42298 0.94003 0.46094 0.0
C318 C 0.40122 0.95235 0.4713 0.0
C319 C 0.40208 0.98201 0.47478 0.0
C320 C 0.42323 0.99925 0.46715 0.0
C321 C 0.52469 0.05754 0.45568 0.0
C322 C 0.52956 0.08708 0.45333 0.0
C323 C 0.55463 0.09985 0.46008 0.0
C324 C 0.57495 0.08343 0.46961 0.0
C325 C 0.56901 0.05437 0.47303 0.0
C326 C 0.54416 0.04155 0.4661 0.0
C327 C 0.50141 0.04243 0.44572 0.0
C328 C 0.48268 0.02405 0.45493 0.0
C329 C 0.4992 0.04416 0.42691 0.0
C330 C 0.51834 0.06233 0.41602 0.0
C331 C 0.50649 0.08388 0.40515 0.0
C332 C 0.52367 0.09877 0.39315 0.0
C333 C 0.55301 0.09217 0.39164 0.0
C334 C 0.56509 0.0714 0.40311 0.0
C335 C 0.54786 0.05653 0.41516 0.0
H336 H 0.00069 0.06914 0.69549 0.0
H337 H 0.97662 0.11068 0.70826 0.0
H338 H 0.91111 0.05506 0.72958 0.0
H339 H 0.93612 0.01326 0.71713 0.0
H340 H 0.00043 0.99324 0.71888 0.0
H341 H 0.99623 0.05281 0.65179 0.0
H342 H 0.96433 0.08093 0.6323 0.0
H343 H 0.89067 0.04588 0.65914 0.0
H344 H 0.92268 0.01781 0.67858 0.0
H345 H 0.99022 0.93493 0.65128 0.0
H346 H 0.01658 0.90722 0.62909 0.0
H347 H 0.0968 0.93435 0.6531 0.0
H348 H 0.07038 0.96284 0.67496 0.0
H349 H 0.99431 0.99233 0.6527 0.0
H350 H 0.99277 0.91854 0.70161 0.0
H351 H 0.01847 0.87782 0.7151 0.0
H352 H 0.09367 0.93092 0.72234 0.0
H353 H 0.06747 0.97199 0.70941 0.0
C354 C 0.97019 0.03823 0.70543 0.0
C355 C 0.98143 0.06587 0.7032 0.0
C356 C 0.96741 0.08961 0.71031 0.0
C357 C 0.94159 0.08628 0.71965 0.0
C358 C 0.93097 0.05836 0.7225 0.0
C359 C 0.94523 0.03447 0.71545 0.0
C360 C 0.98296 0.01413 0.69545 0.0
C361 C 0.99908 0.99297 0.70443 0.0
C362 C 0.98074 0.01338 0.67667 0.0
C363 C 0.96179 0.03329 0.6666 0.0
C364 C 0.97323 0.05165 0.65368 0.0
C365 C 0.95502 0.06782 0.64266 0.0
C366 C 0.92505 0.06552 0.64422 0.0
C367 C 0.91369 0.04797 0.65764 0.0
C368 C 0.93193 0.03206 0.66878 0.0
C369 C 0.02828 0.95075 0.66491 0.0
C370 C 0.01347 0.93447 0.65201 0.0
C371 C 0.02851 0.91873 0.63933 0.0
C372 C 0.05868 0.91882 0.63938 0.0
C373 C 0.07354 0.93373 0.65291 0.0
C374 C 0.05844 0.94983 0.66548 0.0
C375 C 0.01234 0.97166 0.67598 0.0
C376 C 0.99573 0.99248 0.66716 0.0
C377 C 0.01356 0.97154 0.69483 0.0
C378 C 0.0283 0.94814 0.70455 0.0
C379 C 0.01459 0.92153 0.70645 0.0
C380 C 0.02922 0.89838 0.71414 0.0
C381 C 0.05796 0.90137 0.71971 0.0
C382 C 0.0715 0.92819 0.71813 0.0
C383 C 0.0566 0.95157 0.71082 0.0
Mn384 Mn 0.33235 0.66674 0.00812 0.0
Mn385 Mn 0.33688 0.59456 0.01018 0.0
C386 C 0.33598 0.64427 0.03572 0.0
C387 C 0.35473 0.71139 0.00572 0.0
C388 C 0.28143 0.62682 0.00199 0.0
O389 O 0.34272 0.65548 0.98265 0.0
O390 O 0.35049 0.6081 0.98662 0.0
C391 C 0.39994 0.58682 0.00885 0.0
N392 N 0.37444 0.58194 0.01699 0.0
C393 C 0.39663 0.54984 0.03816 0.0
C394 C 0.42309 0.55412 0.02981 0.0
C395 C 0.42479 0.57292 0.01521 0.0
C396 C 0.37269 0.56449 0.03132 0.0
H397 H 0.40127 0.60121 0.99762 0.0
C398 C 0.35084 0.6309 0.97707 0.0
O399 O 0.32786 0.70796 0.00137 0.0
O400 O 0.3687 0.68874 0.01089 0.0
N401 N 0.32475 0.57837 0.03227 0.0
C402 C 0.2981 0.57834 0.03955 0.0
C403 C 0.29296 0.56162 0.05475 0.0
C404 C 0.31515 0.54483 0.06214 0.0
C405 C 0.34251 0.5455 0.05455 0.0
C406 C 0.34635 0.5626 0.03943 0.0
H407 H 0.28081 0.59073 0.03369 0.0
O408 O 0.32573 0.67007 0.03432 0.0
O409 O 0.34406 0.63237 0.02089 0.0
O410 O 0.29125 0.65216 0.0041 0.0
O411 O 0.29707 0.60441 0.00332 0.0
C412 C 0.36612 0.52985 0.06134 0.0
C413 C 0.39318 0.53208 0.05319 0.0
H414 H 0.44229 0.54341 0.03467 0.0
H415 H 0.44519 0.57659 0.00883 0.0
H416 H 0.27185 0.56135 0.06062 0.0
H417 H 0.31098 0.53166 0.07372 0.0
H418 H 0.36378 0.51622 0.07293 0.0
H419 H 0.41127 0.52035 0.05873 0.0
Mn420 Mn 0.32992 0.82991 0.25914 0.0
Mn421 Mn 0.40191 0.82644 0.26426 0.0
C422 C 0.35076 0.8357 0.28716 0.0
C423 C 0.28778 0.85584 0.25402 0.0
C424 C 0.36454 0.77389 0.25967 0.0
O425 O 0.34357 0.83614 0.23381 0.0
O426 O 0.39126 0.83242 0.23873 0.0
C427 C 0.41611 0.88627 0.25432 0.0
N428 N 0.41761 0.86422 0.26621 0.0
C429 C 0.44932 0.89105 0.28553 0.0
C430 C 0.44819 0.91405 0.27348 0.0
C431 C 0.43137 0.9117 0.25785 0.0
C432 C 0.43343 0.86639 0.28138 0.0
H433 H 0.40348 0.88442 0.24219 0.0
C434 C 0.36943 0.83608 0.2284 0.0
O435 O 0.28889 0.82835 0.25118 0.0
O436 O 0.31133 0.86826 0.25925 0.0
N437 N 0.41563 0.82107 0.28816 0.0
C438 C 0.41272 0.79776 0.29895 0.0
C439 C 0.42767 0.79689 0.31531 0.0
C440 C 0.44562 0.81983 0.3203 0.0
C441 C 0.44787 0.84382 0.30912 0.0
C442 C 0.43249 0.84345 0.29297 0.0
H443 H 0.3992 0.77996 0.29505 0.0
O444 O 0.32439 0.82707 0.28542 0.0
O445 O 0.36447 0.8403 0.27239 0.0
O446 O 0.34075 0.78713 0.2576 0.0
O447 O 0.38838 0.78655 0.26268 0.0
C448 C 0.46473 0.86808 0.31334 0.0
C449 C 0.46534 0.89174 0.3016 0.0
H450 H 0.46001 0.93365 0.27613 0.0
H451 H 0.43034 0.92937 0.2485 0.0
H452 H 0.4256 0.77844 0.32397 0.0
H453 H 0.45745 0.81884 0.33281 0.0
H454 H 0.47708 0.86892 0.32566 0.0
H455 H 0.47799 0.91046 0.30513 0.0
Mn456 Mn 0.16807 0.83372 0.49295 0.0
Mn457 Mn 0.0957 0.83688 0.49167 0.0
C458 C 0.14404 0.84197 0.4662 0.0
C459 C 0.21301 0.85565 0.49589 0.0
C460 C 0.12838 0.78096 0.49363 0.0
O461 O 0.15857 0.84041 0.51907 0.0
O462 O 0.11027 0.84047 0.51658 0.0
C463 C 0.08912 0.89733 0.50318 0.0
N464 N 0.08376 0.8761 0.49109 0.0
C465 C 0.05307 0.90706 0.47368 0.0
C466 C 0.05819 0.92926 0.48596 0.0
C467 C 0.07642 0.92441 0.50072 0.0
C468 C 0.06656 0.88064 0.47673 0.0
H469 H 0.10289 0.8936 0.51464 0.0
C470 C 0.13357 0.84186 0.52579 0.0
O471 O 0.20974 0.82833 0.49872 0.0
O472 O 0.19006 0.87022 0.49203 0.0
N473 N 0.07825 0.83392 0.46854 0.0
C474 C 0.07686 0.81075 0.45746 0.0
C475 C 0.05999 0.81223 0.44184 0.0
C476 C 0.04439 0.83731 0.43795 0.0
C477 C 0.04625 0.86093 0.44952 0.0
C478 C 0.06349 0.85822 0.46484 0.0
H479 H 0.08841 0.79125 0.46059 0.0
O480 O 0.16969 0.8311 0.46643 0.0
O481 O 0.13296 0.84747 0.48169 0.0
O482 O 0.15347 0.79201 0.4946 0.0
O483 O 0.10556 0.79592 0.492 0.0
C484 C 0.03169 0.88703 0.44648 0.0
C485 C 0.03527 0.91015 0.45847 0.0
H486 H 0.04833 0.95013 0.48415 0.0
H487 H 0.08052 0.94144 0.51025 0.0
H488 H 0.05874 0.79397 0.43293 0.0
H489 H 0.03109 0.8382 0.42601 0.0
H490 H 0.01787 0.88967 0.43487 0.0
H491 H 0.02436 0.93026 0.45582 0.0
Mn492 Mn 0.17695 0.66819 0.74647 0.0
Mn493 Mn 0.17507 0.59582 0.74824 0.0
C494 C 0.17309 0.64162 0.72039 0.0
C495 C 0.15401 0.71272 0.74639 0.0
C496 C 0.22991 0.63003 0.75269 0.0
O497 O 0.16658 0.66081 0.77238 0.0
O498 O 0.16637 0.61246 0.77194 0.0
C499 C 0.11304 0.58837 0.75514 0.0
N500 N 0.13651 0.58265 0.74507 0.0
C501 C 0.10982 0.54927 0.72684 0.0
C502 C 0.08536 0.55473 0.73703 0.0
C503 C 0.08695 0.5745 0.75118 0.0
C504 C 0.13512 0.56397 0.73129 0.0
H505 H 0.11426 0.6033 0.76615 0.0
C506 C 0.16348 0.63653 0.77999 0.0
O507 O 0.18086 0.71025 0.75104 0.0
O508 O 0.1404 0.68928 0.74231 0.0
N509 N 0.18272 0.57653 0.72629 0.0
C510 C 0.20774 0.5751 0.71712 0.0
C511 C 0.20954 0.55692 0.70222 0.0
C512 C 0.18578 0.54008 0.69713 0.0
C513 C 0.16022 0.54201 0.70675 0.0
C514 C 0.15965 0.56063 0.72139 0.0
H515 H 0.22621 0.58762 0.72121 0.0
O516 O 0.18336 0.66753 0.72021 0.0
O517 O 0.16558 0.63184 0.73591 0.0
O518 O 0.21846 0.65484 0.75127 0.0
O519 O 0.21558 0.60676 0.75147 0.0
C520 C 0.13528 0.52618 0.70242 0.0
C521 C 0.11004 0.52998 0.71236 0.0
H522 H 0.06524 0.54398 0.73407 0.0
H523 H 0.06816 0.57887 0.75909 0.0
H524 H 0.2293 0.55563 0.69481 0.0
H525 H 0.1874 0.52582 0.68577 0.0
H526 H 0.13519 0.51119 0.69138 0.0
H527 H 0.09087 0.51809 0.70869 0.0
Mn528 Mn 0.8321 0.16885 0.50598 0.0
Mn529 Mn 0.83728 0.09674 0.50442 0.0
C530 C 0.83559 0.14281 0.53234 0.0
C531 C 0.85406 0.2139 0.50565 0.0
C532 C 0.78179 0.12949 0.49724 0.0
O533 O 0.84288 0.16085 0.48008 0.0
O534 O 0.85172 0.11329 0.48184 0.0
C535 C 0.90049 0.08987 0.50385 0.0
N536 N 0.87469 0.08376 0.5113 0.0
C537 C 0.89653 0.05027 0.53176 0.0
C538 C 0.92329 0.05579 0.52408 0.0
C539 C 0.92531 0.0759 0.51019 0.0
C540 C 0.87261 0.06502 0.52497 0.0
H541 H 0.90208 0.10536 0.49322 0.0
C542 C 0.85173 0.13723 0.47343 0.0
O543 O 0.8273 0.21064 0.501 0.0
O544 O 0.86816 0.1909 0.51003 0.0
N545 N 0.82438 0.07792 0.52551 0.0
C546 C 0.79741 0.07681 0.53232 0.0
C547 C 0.79193 0.05872 0.54686 0.0
C548 C 0.8141 0.04171 0.55406 0.0
C549 C 0.84174 0.04341 0.54692 0.0
C550 C 0.84594 0.06191 0.53249 0.0
H551 H 0.78017 0.08943 0.52662 0.0
O552 O 0.82522 0.16867 0.53229 0.0
O553 O 0.84384 0.1331 0.51698 0.0
O554 O 0.79126 0.15441 0.50112 0.0
O555 O 0.7976 0.1071 0.49731 0.0
C556 C 0.86531 0.02753 0.55355 0.0
C557 C 0.89272 0.03109 0.54605 0.0
H558 H 0.94247 0.04503 0.52892 0.0
H559 H 0.94593 0.08054 0.50434 0.0
H560 H 0.77059 0.05765 0.55238 0.0
H561 H 0.80971 0.0276 0.56519 0.0
H562 H 0.86265 0.01268 0.56451 0.0
H563 H 0.91077 0.0192 0.55151 0.0
Mn564 Mn 0.83659 0.33314 0.75777 0.0
Mn565 Mn 0.90867 0.33702 0.76214 0.0
C566 C 0.85746 0.34047 0.78564 0.0
C567 C 0.79234 0.35569 0.75304 0.0
C568 C 0.87656 0.28086 0.7575 0.0
O569 O 0.84908 0.34031 0.73223 0.0
O570 O 0.89683 0.34316 0.73689 0.0
C571 C 0.91637 0.39846 0.75329 0.0
N572 N 0.92043 0.37609 0.76474 0.0
C573 C 0.94936 0.40518 0.78446 0.0
C574 C 0.94558 0.42853 0.77287 0.0
C575 C 0.92886 0.42519 0.75727 0.0
C576 C 0.93613 0.37917 0.77989 0.0
H577 H 0.90381 0.39588 0.74119 0.0
C578 C 0.87461 0.34393 0.72666 0.0
O579 O 0.79548 0.32834 0.75023 0.0
O580 O 0.81503 0.36985 0.75799 0.0
N581 N 0.92344 0.33183 0.78582 0.0
C582 C 0.92341 0.30772 0.79609 0.0
C583 C 0.93848 0.30769 0.81243 0.0
C584 C 0.95377 0.33226 0.81787 0.0
C585 C 0.95336 0.35686 0.8071 0.0
C586 C 0.93785 0.35567 0.79102 0.0
H587 H 0.9121 0.28864 0.7918 0.0
O588 O 0.83182 0.32983 0.78409 0.0
O589 O 0.87029 0.34653 0.77078 0.0
O590 O 0.85132 0.29149 0.75634 0.0
O591 O 0.89907 0.2961 0.75982 0.0
C592 C 0.96771 0.38253 0.81167 0.0
C593 C 0.96554 0.40673 0.80043 0.0
H594 H 0.95528 0.44915 0.77585 0.0
H595 H 0.92579 0.44312 0.74828 0.0
H596 H 0.93859 0.28868 0.82071 0.0
H597 H 0.96567 0.332 0.83037 0.0
H598 H 0.98031 0.384 0.82387 0.0
H599 H 0.97624 0.42649 0.80425 0.0
Mn600 Mn 0.66846 0.3343 0.99805 0.0
Mn601 Mn 0.59613 0.33319 0.99434 0.0
C602 C 0.64635 0.3399 0.97038 0.0
C603 C 0.71153 0.35922 0.0023 0.0
C604 C 0.63199 0.27958 0.99855 0.0
O605 O 0.65623 0.34113 0.02366 0.0
O606 O 0.6083 0.33967 0.01954 0.0
C607 C 0.585 0.39391 0.00376 0.0
N608 N 0.58194 0.37152 0.99219 0.0
C609 C 0.55087 0.3992 0.97297 0.0
C610 C 0.5536 0.42254 0.98469 0.0
C611 C 0.57089 0.41992 0.0001 0.0
C612 C 0.5657 0.37393 0.97722 0.0
H613 H 0.59802 0.39189 0.01571 0.0
C614 C 0.63066 0.34251 0.02952 0.0
O615 O 0.70984 0.3318 0.00524 0.0
O616 O 0.68806 0.37216 0.99744 0.0
N617 N 0.58096 0.32753 0.97079 0.0
C618 C 0.58203 0.30361 0.96035 0.0
C619 C 0.56647 0.30294 0.9442 0.0
C620 C 0.54964 0.32665 0.93911 0.0
C621 C 0.54899 0.35108 0.95003 0.0
C622 C 0.56503 0.35055 0.96593 0.0
H623 H 0.59453 0.28516 0.96438 0.0
O624 O 0.67263 0.33087 0.97168 0.0
O625 O 0.63359 0.34533 0.98536 0.0
O626 O 0.65636 0.29193 -7e-05 0.0
O627 O 0.60833 0.29285 0.99617 0.0
C628 C 0.53305 0.37594 0.9458 0.0
C629 C 0.53418 0.40006 0.95718 0.0
H630 H 0.54265 0.4426 0.98196 0.0
H631 H 0.57316 0.43786 0.0092 0.0
H632 H 0.56717 0.28406 0.93579 0.0
H633 H 0.53736 0.32587 0.92676 0.0
H634 H 0.52004 0.37686 0.93375 0.0
H635 H 0.52226 0.41922 0.95361 0.0
Mn636 Mn 0.67367 0.16958 0.24755 0.0
Mn637 Mn 0.67239 0.09711 0.24772 0.0
C638 C 0.66985 0.14462 0.22086 0.0
C639 C 0.65076 0.21402 0.24889 0.0
C640 C 0.72685 0.13181 0.25298 0.0
O641 O 0.66399 0.16041 0.27338 0.0
O642 O 0.66243 0.11221 0.27162 0.0
C643 C 0.61026 0.0881 0.25352 0.0
N644 N 0.63421 0.0834 0.2437 0.0
C645 C 0.60899 0.05025 0.22453 0.0
C646 C 0.58404 0.05466 0.23445 0.0
C647 C 0.58464 0.07382 0.24894 0.0
C648 C 0.63377 0.06534 0.22959 0.0
H649 H 0.61074 0.10253 0.26481 0.0
C650 C 0.65991 0.13574 0.28031 0.0
O651 O 0.67771 0.21116 0.25314 0.0
O652 O 0.63694 0.19089 0.24434 0.0
N653 N 0.68122 0.07928 0.22549 0.0
C654 C 0.7066 0.07889 0.21665 0.0
C655 C 0.70939 0.06143 0.2015 0.0
C656 C 0.68625 0.04422 0.1958 0.0
C657 C 0.66028 0.04513 0.20505 0.0
C658 C 0.65872 0.06306 0.21999 0.0
H659 H 0.72461 0.09166 0.22121 0.0
O660 O 0.67958 0.17073 0.22126 0.0
O661 O 0.66255 0.13376 0.23616 0.0
O662 O 0.71525 0.15649 0.25158 0.0
O663 O 0.7127 0.10842 0.2518 0.0
C664 C 0.63589 0.02893 0.20009 0.0
C665 C 0.61021 0.03164 0.20974 0.0
H666 H 0.56429 0.04358 0.23101 0.0
H667 H 0.56547 0.07739 0.25665 0.0
H668 H 0.72945 0.06093 0.19437 0.0
H669 H 0.68865 0.03047 0.18426 0.0
H670 H 0.63654 0.01447 0.18878 0.0
H671 H 0.59146 0.01947 0.20559 0.0
C672 C 0.15391 0.9376 0.28745 0.0
C673 C 0.13586 0.95149 0.27511 0.0
C674 C 0.17704 0.92081 0.28182 0.0
C675 C 0.1824 0.91794 0.26336 0.0
C676 C 0.16372 0.93117 0.25077 0.0
C677 C 0.14051 0.94774 0.25682 0.0
C678 C 0.19622 0.9068 0.29569 0.0
C679 C 0.16882 0.92866 0.231 0.0
C680 C 0.26067 0.90198 0.25469 0.0
C681 C 0.26044 0.87198 0.25316 0.0
C682 C 0.23509 0.91744 0.25679 0.0
C683 C 0.20865 0.9025 0.25753 0.0
C684 C 0.2081 0.8724 0.25487 0.0
C685 C 0.23405 0.85748 0.25264 0.0
C686 C 0.2366 0.94957 0.25937 0.0
C687 C 0.18036 0.8557 0.25557 0.0
H688 H 0.15002 0.94006 0.3016 0.0
H689 H 0.12659 0.95852 0.24727 0.0
H690 H 0.19803 0.88345 0.29301 0.0
H691 H 0.21814 0.91603 0.29501 0.0
H692 H 0.18813 0.90981 0.30945 0.0
H693 H 0.15101 0.93811 0.22295 0.0
H694 H 0.18904 0.93988 0.22759 0.0
H695 H 0.17142 0.90581 0.22715 0.0
H696 H 0.28098 0.91337 0.25493 0.0
H697 H 0.23372 0.83428 0.25144 0.0
H698 H 0.23157 0.95492 0.27341 0.0
H699 H 0.22044 0.96049 0.25076 0.0
H700 H 0.25819 0.9583 0.25631 0.0
H701 H 0.17269 0.85511 0.26952 0.0
H702 H 0.18299 0.83327 0.25082 0.0
H703 H 0.16345 0.86632 0.24738 0.0
C704 C 0.08808 0.63561 0.53658 0.0
C705 C 0.08351 0.61181 0.52542 0.0
C706 C 0.1001 0.66101 0.53006 0.0
C707 C 0.10821 0.6626 0.51195 0.0
C708 C 0.10589 0.6379 0.50098 0.0
C709 C 0.0934 0.61275 0.50783 0.0
C710 C 0.10219 0.68678 0.54226 0.0
C711 C 0.11492 0.63854 0.48173 0.0
C712 C 0.09738 0.73721 0.49337 0.0
C713 C 0.12478 0.74941 0.49558 0.0
C714 C 0.09217 0.70846 0.49766 0.0
C715 C 0.11497 0.69117 0.50415 0.0
C716 C 0.14313 0.70262 0.50517 0.0
C717 C 0.14771 0.73171 0.50095 0.0
C718 C 0.06177 0.69719 0.49638 0.0
C719 C 0.16811 0.68465 0.51163 0.0
H720 H 0.08124 0.63471 0.55034 0.0
H721 H 0.09009 0.59438 0.49917 0.0
H722 H 0.12401 0.69626 0.54182 0.0
H723 H 0.08679 0.70349 0.53769 0.0
H724 H 0.0973 0.68129 0.55632 0.0
H725 H 0.11695 0.61659 0.47608 0.0
H726 H 0.09866 0.65044 0.47371 0.0
H727 H 0.13572 0.6499 0.48033 0.0
H728 H 0.07954 0.75046 0.48893 0.0
H729 H 0.16902 0.74079 0.50255 0.0
H730 H 0.05373 0.69264 0.50997 0.0
H731 H 0.06114 0.67677 0.48878 0.0
H732 H 0.04691 0.7127 0.48982 0.0
H733 H 0.16692 0.68202 0.52631 0.0
H734 H 0.18906 0.69475 0.50846 0.0
H735 H 0.16732 0.6629 0.5056 0.0
C736 C 0.38976 0.61299 0.79032 0.0
C737 C 0.40832 0.6022 0.77736 0.0
C738 C 0.36158 0.62117 0.78584 0.0
C739 C 0.35189 0.61882 0.76792 0.0
C740 C 0.37119 0.60976 0.75459 0.0
C741 C 0.39912 0.60126 0.7595 0.0
C742 C 0.34161 0.63032 0.80051 0.0
C743 C 0.36186 0.60743 0.73529 0.0
C744 C 0.27325 0.60083 0.76061 0.0
C745 C 0.26129 0.62763 0.75623 0.0
C746 C 0.30262 0.59781 0.76436 0.0
C747 C 0.32078 0.62213 0.76357 0.0
C748 C 0.30907 0.64922 0.75896 0.0
C749 C 0.27941 0.6517 0.75543 0.0
C750 C 0.31417 0.56854 0.76938 0.0
C751 C 0.32786 0.67554 0.75779 0.0
H752 H 0.39672 0.61342 0.80418 0.0
H753 H 0.41355 0.5931 0.74945 0.0
H754 H 0.33002 0.65024 0.79672 0.0
H755 H 0.32524 0.61336 0.80259 0.0
H756 H 0.3532 0.63404 0.81334 0.0
H757 H 0.38035 0.60403 0.7263 0.0
H758 H 0.34685 0.58909 0.73366 0.0
H759 H 0.35023 0.6271 0.73104 0.0
H760 H 0.25957 0.58205 0.76134 0.0
H761 H 0.27046 0.67248 0.75199 0.0
H762 H 0.32441 0.56942 0.78281 0.0
H763 H 0.33092 0.56188 0.75983 0.0
H764 H 0.29714 0.55183 0.76949 0.0
H765 H 0.33804 0.67994 0.77096 0.0
H766 H 0.31562 0.69487 0.75352 0.0
H767 H 0.34542 0.67175 0.7482 0.0
C768 C 0.42396 0.85252 0.04284 0.0
C769 C 0.43493 0.87222 0.03056 0.0
C770 C 0.40985 0.82752 0.03711 0.0
C771 C 0.40695 0.82185 0.01861 0.0
C772 C 0.41755 0.84193 0.00611 0.0
C773 C 0.43125 0.86705 0.01225 0.0
C774 C 0.39848 0.80692 0.05089 0.0
C775 C 0.41515 0.83647 0.98631 0.0
C776 C 0.39819 0.74256 0.00841 0.0
C777 C 0.36833 0.74011 0.00635 0.0
C778 C 0.41121 0.76934 0.01138 0.0
C779 C 0.3939 0.79425 0.01257 0.0
C780 C 0.36386 0.79209 0.00968 0.0
C781 C 0.35144 0.76503 0.00648 0.0
C782 C 0.44336 0.77076 0.0141 0.0
C783 C 0.34464 0.81808 0.011 0.0
H784 H 0.42644 0.85672 0.05701 0.0
H785 H 0.43985 0.88224 0.00276 0.0
H786 H 0.37536 0.80262 0.04833 0.0
H787 H 0.40995 0.78611 0.04994 0.0
H788 H 0.40111 0.81526 0.0647 0.0
H789 H 0.42317 0.85484 0.97834 0.0
H790 H 0.42771 0.81706 0.98282 0.0
H791 H 0.39248 0.83222 0.98244 0.0
H792 H 0.41139 0.72339 0.00818 0.0
H793 H 0.32833 0.76327 0.00493 0.0
H794 H 0.44836 0.77616 0.02821 0.0
H795 H 0.45267 0.78794 0.00571 0.0
H796 H 0.45403 0.75011 0.01084 0.0
H797 H 0.34428 0.82566 0.02503 0.0
H798 H 0.32225 0.81337 0.00662 0.0
H799 H 0.35308 0.83593 0.00279 0.0
C800 C 0.12923 0.5937 0.95854 0.0
C801 C 0.10726 0.58929 0.97088 0.0
C802 C 0.1565 0.60314 0.96405 0.0
C803 C 0.162 0.60836 0.98238 0.0
C804 C 0.13948 0.60546 0.99479 0.0
C805 C 0.11231 0.59597 0.98888 0.0
C806 C 0.17983 0.60611 0.95035 0.0
C807 C 0.14447 0.61091 0.01443 0.0
C808 C 0.23885 0.59483 0.99726 0.0
C809 C 0.25041 0.62269 0.99783 0.0
C810 C 0.20997 0.59006 0.99273 0.0
C811 C 0.19199 0.6137 0.98864 0.0
C812 C 0.20319 0.64194 0.98959 0.0
C813 C 0.23229 0.64612 0.99418 0.0
C814 C 0.1989 0.55958 0.9919 0.0
C815 C 0.18461 0.66765 0.98536 0.0
H816 H 0.12523 0.58913 0.94454 0.0
H817 H 0.09541 0.59255 0.99847 0.0
H818 H 0.1906 0.62726 0.95167 0.0
H819 H 0.19639 0.58934 0.95265 0.0
H820 H 0.17141 0.60387 0.93649 0.0
H821 H 0.12409 0.61113 0.02198 0.0
H822 H 0.15853 0.59384 0.02004 0.0
H823 H 0.15565 0.63169 0.01652 0.0
H824 H 0.25246 0.57653 0.00021 0.0
H825 H 0.24092 0.66772 0.99463 0.0
H826 H 0.19206 0.55436 0.97804 0.0
H827 H 0.1798 0.55723 0.00048 0.0
H828 H 0.21532 0.54368 0.99624 0.0
H829 H 0.17782 0.667 0.97113 0.0
H830 H 0.19597 0.68825 0.98792 0.0
H831 H 0.16482 0.66713 0.99345 0.0
C832 C 0.39067 0.60524 0.24048 0.0
C833 C 0.41381 0.60638 0.22873 0.0
C834 C 0.37735 0.63062 0.24634 0.0
C835 C 0.38725 0.65751 0.24005 0.0
C836 C 0.40965 0.65848 0.22745 0.0
C837 C 0.42276 0.63293 0.22206 0.0
C838 C 0.35369 0.62875 0.25985 0.0
C839 C 0.4206 0.68662 0.22017 0.0
C840 C 0.34851 0.72884 0.24425 0.0
C841 C 0.3656 0.74241 0.25728 0.0
C842 C 0.35389 0.70023 0.23927 0.0
C843 C 0.37653 0.6849 0.24773 0.0
C844 C 0.39203 0.69778 0.26199 0.0
C845 C 0.38657 0.72644 0.26645 0.0
C846 C 0.33696 0.68731 0.22397 0.0
C847 C 0.41599 0.68209 0.27161 0.0
H848 H 0.38376 0.58462 0.24558 0.0
H849 H 0.44038 0.63368 0.21274 0.0
H850 H 0.36166 0.637 0.27289 0.0
H851 H 0.33519 0.64232 0.25575 0.0
H852 H 0.3461 0.60635 0.26173 0.0
H853 H 0.43637 0.68349 0.20934 0.0
H854 H 0.4025 0.69973 0.21492 0.0
H855 H 0.43113 0.69908 0.23105 0.0
H856 H 0.33235 0.74115 0.23708 0.0
H857 H 0.39964 0.73675 0.27666 0.0
H858 H 0.33098 0.66476 0.2269 0.0
H859 H 0.35044 0.6871 0.21187 0.0
H860 H 0.31713 0.69974 0.22095 0.0
H861 H 0.40914 0.66006 0.27523 0.0
H862 H 0.42306 0.69348 0.28393 0.0
H863 H 0.43471 0.68011 0.26267 0.0
C864 C 0.36546 0.93774 0.49442 0.0
C865 C 0.37632 0.93494 0.47714 0.0
C866 C 0.34021 0.92347 0.49942 0.0
C867 C 0.32527 0.90634 0.48674 0.0
C868 C 0.33666 0.90274 0.46945 0.0
C869 C 0.36208 0.91697 0.46489 0.0
C870 C 0.32899 0.92751 0.51806 0.0
C871 C 0.32126 0.88493 0.45547 0.0
C872 C 0.26664 0.85354 0.49962 0.0
C873 C 0.24175 0.8693 0.49552 0.0
C874 C 0.29406 0.86566 0.49751 0.0
C875 C 0.2966 0.89406 0.49096 0.0
C876 C 0.27152 0.91034 0.48737 0.0
C877 C 0.24445 0.89782 0.48977 0.0
C878 C 0.3203 0.84778 0.50172 0.0
C879 C 0.27324 0.94063 0.48027 0.0
H880 H 0.37654 0.95143 0.50397 0.0
H881 H 0.37016 0.91504 0.45144 0.0
H882 H 0.30867 0.93993 0.51752 0.0
H883 H 0.32407 0.9064 0.52416 0.0
H884 H 0.34452 0.9391 0.52682 0.0
H885 H 0.33381 0.88288 0.44302 0.0
H886 H 0.31684 0.86311 0.46068 0.0
H887 H 0.30026 0.89494 0.45212 0.0
H888 H 0.26472 0.83152 0.50411 0.0
H889 H 0.22535 0.91018 0.48657 0.0
H890 H 0.33526 0.85984 0.51059 0.0
H891 H 0.33193 0.84303 0.48923 0.0
H892 H 0.31474 0.82713 0.50824 0.0
H893 H 0.28677 0.95409 0.48923 0.0
H894 H 0.25176 0.95082 0.47889 0.0
H895 H 0.28354 0.9405 0.467 0.0
C896 C 0.09851 0.86687 0.71677 0.0
C897 C 0.07418 0.87594 0.726 0.0
C898 C 0.11235 0.84105 0.72124 0.0
C899 C 0.10195 0.82429 0.73555 0.0
C900 C 0.07815 0.83411 0.74543 0.0
C901 C 0.06426 0.85966 0.74036 0.0
C902 C 0.13724 0.83105 0.71011 0.0
C903 C 0.06685 0.81724 0.76103 0.0
C904 C 0.11539 0.74396 0.73379 0.0
C905 C 0.13994 0.74106 0.74464 0.0
C906 C 0.10279 0.77091 0.73081 0.0
C907 C 0.11461 0.7955 0.73924 0.0
C908 C 0.13888 0.79259 0.75067 0.0
C909 C 0.15151 0.76541 0.75305 0.0
C910 C 0.07728 0.77314 0.71824 0.0
C911 C 0.15164 0.8182 0.76024 0.0
H912 H 0.10593 0.8794 0.70554 0.0
H913 H 0.04546 0.86681 0.74751 0.0
H914 H 0.15617 0.82642 0.71875 0.0
H915 H 0.13138 0.81078 0.70317 0.0
H916 H 0.14347 0.84716 0.69994 0.0
H917 H 0.0502 0.82926 0.76845 0.0
H918 H 0.05732 0.79678 0.75622 0.0
H919 H 0.08465 0.81169 0.77038 0.0
H920 H 0.10649 0.72523 0.72714 0.0
H921 H 0.17042 0.76322 0.76152 0.0
H922 H 0.08252 0.78761 0.70698 0.0
H923 H 0.05872 0.78264 0.72524 0.0
H924 H 0.07073 0.75195 0.71272 0.0
H925 H 0.16013 0.83369 0.75039 0.0
H926 H 0.16934 0.81205 0.76954 0.0
H927 H 0.13479 0.82948 0.76789 0.0
C928 C 0.65562 0.4306 0.78825 0.0
C929 C 0.63638 0.4434 0.77613 0.0
C930 C 0.67914 0.41461 0.78234 0.0
C931 C 0.68368 0.41135 0.76381 0.0
C932 C 0.66373 0.4233 0.75147 0.0
C933 C 0.6402 0.43914 0.75779 0.0
C934 C 0.69969 0.40202 0.79598 0.0
C935 C 0.66785 0.4203 0.73162 0.0
C936 C 0.76226 0.39993 0.75364 0.0
C937 C 0.76391 0.36992 0.75249 0.0
C938 C 0.7359 0.41382 0.75612 0.0
C939 C 0.71052 0.3973 0.75762 0.0
C940 C 0.71177 0.36712 0.75533 0.0
C941 C 0.7385 0.35376 0.75274 0.0
C942 C 0.73553 0.44606 0.7583 0.0
C943 C 0.6852 0.34876 0.7568 0.0
H944 H 0.65241 0.43338 0.80245 0.0
H945 H 0.62538 0.44904 0.74838 0.0
H946 H 0.70267 0.37873 0.7935 0.0
H947 H 0.72103 0.41241 0.7948 0.0
H948 H 0.69211 0.40496 0.80986 0.0
H949 H 0.64901 0.42825 0.72385 0.0
H950 H 0.68707 0.43267 0.72759 0.0
H951 H 0.67173 0.39752 0.72805 0.0
H952 H 0.78178 0.41259 0.75328 0.0
H953 H 0.73962 0.33056 0.75185 0.0
H954 H 0.73078 0.45154 0.77236 0.0
H955 H 0.71836 0.45569 0.74984 0.0
H956 H 0.75638 0.45601 0.75476 0.0
H957 H 0.67838 0.34805 0.77092 0.0
H958 H 0.68898 0.32642 0.7522 0.0
H959 H 0.66722 0.3581 0.74889 0.0
C960 C 0.55403 0.13875 0.01951 0.0
C961 C 0.56959 0.11342 0.02267 0.0
C962 C 0.56779 0.16407 0.01425 0.0
C963 C 0.59783 0.164 0.01157 0.0
C964 C 0.61347 0.13813 0.01364 0.0
C965 C 0.59922 0.11319 0.01934 0.0
C966 C 0.55026 0.19122 0.01229 0.0
C967 C 0.64538 0.13703 0.01044 0.0
C968 C 0.6219 0.23064 0.98695 0.0
C969 C 0.63008 0.24844 0.00117 0.0
C970 C 0.61369 0.20205 0.98996 0.0
C971 C 0.61272 0.19154 0.00767 0.0
C972 C 0.62249 0.20912 0.02196 0.0
C973 C 0.63129 0.23737 0.01849 0.0
C974 C 0.60425 0.18379 0.97433 0.0
C975 C 0.62134 0.19898 0.04106 0.0
H976 H 0.53104 0.139 0.02155 0.0
H977 H 0.61153 0.09384 0.02183 0.0
H978 H 0.55816 0.20762 0.02192 0.0
H979 H 0.55274 0.20025 0.99871 0.0
H980 H 0.52704 0.18755 0.01466 0.0
H981 H 0.65366 0.11467 0.01031 0.0
H982 H 0.65057 0.14743 0.99757 0.0
H983 H 0.65686 0.14909 0.02112 0.0
H984 H 0.62083 0.23943 0.97357 0.0
H985 H 0.6372 0.25145 0.02946 0.0
H986 H 0.58049 0.18197 0.97414 0.0
H987 H 0.61312 0.16176 0.97553 0.0
H988 H 0.61106 0.19312 0.96142 0.0
H989 H 0.59858 0.19678 0.04508 0.0
H990 H 0.63223 0.21412 0.05039 0.0
H991 H 0.63149 0.17755 0.04245 0.0
C992 C 0.89627 0.10498 0.25674 0.0
C993 C 0.90698 0.10852 0.27416 0.0
C994 C 0.86777 0.1122 0.25239 0.0
C995 C 0.84951 0.1228 0.26585 0.0
C996 C 0.86067 0.1278 0.28323 0.0
C997 C 0.88933 0.12071 0.28715 0.0
C998 C 0.85679 0.10697 0.23364 0.0
C999 C 0.84185 0.1388 0.29801 0.0
C1000 C 0.77619 0.15376 0.25369 0.0
C1001 C 0.75829 0.12988 0.2562 0.0
C1002 C 0.80602 0.15181 0.25659 0.0
C1003 C 0.81812 0.12546 0.26234 0.0
C1004 C 0.80015 0.10136 0.26497 0.0
C1005 C 0.77055 0.10381 0.26177 0.0
C1006 C 0.82459 0.17784 0.25346 0.0
C1007 C 0.81217 0.07293 0.27128 0.0
H1008 H 0.90997 0.09575 0.24665 0.0
H1009 H 0.89743 0.12313 0.30069 0.0
H1010 H 0.84173 0.0885 0.2336 0.0
H1011 H 0.84473 0.12593 0.22866 0.0
H1012 H 0.87446 0.10218 0.22427 0.0
H1013 H 0.85445 0.14436 0.31021 0.0
H1014 H 0.82973 0.15805 0.29356 0.0
H1015 H 0.82589 0.12209 0.30151 0.0
H1016 H 0.76696 0.17394 0.24928 0.0
H1017 H 0.75695 0.08525 0.26384 0.0
H1018 H 0.84116 0.1728 0.24342 0.0
H1019 H 0.83605 0.18384 0.26598 0.0
H1020 H 0.81193 0.19662 0.24873 0.0
H1021 H 0.82817 0.06488 0.26165 0.0
H1022 H 0.79523 0.05636 0.27284 0.0
H1023 H 0.82343 0.07577 0.28429 0.0
C1024 C 0.93383 0.3675 0.50995 0.0
C1025 C 0.92801 0.37995 0.52656 0.0
C1026 C 0.92146 0.34112 0.50496 0.0
C1027 C 0.90312 0.32673 0.51695 0.0
C1028 C 0.89684 0.33944 0.53362 0.0
C1029 C 0.90928 0.36592 0.53819 0.0
C1030 C 0.92841 0.32839 0.487 0.0
C1031 C 0.87764 0.32468 0.54687 0.0
C1032 C 0.85238 0.26733 0.50169 0.0
C1033 C 0.86748 0.24268 0.50703 0.0
C1034 C 0.86411 0.29485 0.50426 0.0
C1035 C 0.89147 0.29776 0.51253 0.0
C1036 C 0.90712 0.27291 0.5175 0.0
C1037 C 0.895 0.24569 0.51462 0.0
C1038 C 0.84691 0.32083 0.49861 0.0
C1039 C 0.93629 0.27508 0.52644 0.0
H1040 H 0.94813 0.3784 0.50088 0.0
H1041 H 0.90505 0.37523 0.55115 0.0
H1042 H 0.94021 0.3079 0.48884 0.0
H1043 H 0.90832 0.32339 0.47952 0.0
H1044 H 0.9417 0.34303 0.47881 0.0
H1045 H 0.87415 0.33788 0.559 0.0
H1046 H 0.85647 0.31987 0.54062 0.0
H1047 H 0.88733 0.30391 0.55097 0.0
H1048 H 0.83115 0.26517 0.49575 0.0
H1049 H 0.90681 0.22675 0.5188 0.0
H1050 H 0.86005 0.33505 0.49009 0.0
H1051 H 0.84085 0.33343 0.51056 0.0
H1052 H 0.82701 0.3149 0.49116 0.0
H1053 H 0.95097 0.2881 0.51818 0.0
H1054 H 0.94622 0.2537 0.52876 0.0
H1055 H 0.93428 0.28615 0.53948 0.0
C1056 C 0.61948 0.11056 0.46198 0.0
C1057 C 0.60337 0.09562 0.47465 0.0
C1058 C 0.64791 0.11892 0.46567 0.0
C1059 C 0.66042 0.11235 0.48248 0.0
C1060 C 0.64377 0.09855 0.49563 0.0
C1061 C 0.61548 0.09021 0.49152 0.0
C1062 C 0.665 0.13336 0.45123 0.0
C1063 C 0.65622 0.09146 0.51379 0.0
C1064 C 0.74087 0.09998 0.48542 0.0
C1065 C 0.7508 0.12586 0.49286 0.0
C1066 C 0.71161 0.09558 0.48175 0.0
C1067 C 0.69161 0.11747 0.48576 0.0
C1068 C 0.70142 0.14376 0.49311 0.0
C1069 C 0.73093 0.14771 0.4965 0.0
C1070 C 0.70207 0.06732 0.47373 0.0
C1071 C 0.68069 0.16749 0.49767 0.0
H1072 H 0.61033 0.11448 0.44883 0.0
H1073 H 0.60298 0.07889 0.50139 0.0
H1074 H 0.67558 0.15302 0.45648 0.0
H1075 H 0.68221 0.11869 0.4467 0.0
H1076 H 0.65143 0.13928 0.43951 0.0
H1077 H 0.6397 0.08323 0.52305 0.0
H1078 H 0.67318 0.0749 0.51242 0.0
H1079 H 0.66643 0.11074 0.51982 0.0
H1080 H 0.75599 0.08301 0.48245 0.0
H1081 H 0.73834 0.16773 0.50232 0.0
H1082 H 0.68997 0.07115 0.46111 0.0
H1083 H 0.68737 0.05618 0.48298 0.0
H1084 H 0.72042 0.05286 0.47089 0.0
H1085 H 0.66792 0.17362 0.48568 0.0
H1086 H 0.6918 0.1869 0.50293 0.0
H1087 H 0.66535 0.15982 0.50782 0.0
C1088 C 0.92418 0.13654 0.71496 0.0
C1089 C 0.92576 0.11211 0.72587 0.0
C1090 C 0.9121 0.16219 0.72111 0.0
C1091 C 0.90084 0.16342 0.73855 0.0
C1092 C 0.90063 0.13835 0.74923 0.0
C1093 C 0.91324 0.11298 0.7428 0.0
C1094 C 0.91284 0.1884 0.70926 0.0
C1095 C 0.88836 0.13868 0.76776 0.0
C1096 C 0.90784 0.23738 0.7589 0.0
C1097 C 0.88082 0.24948 0.75512 0.0
C1098 C 0.91404 0.20888 0.75446 0.0
C1099 C 0.89265 0.19178 0.74612 0.0
C1100 C 0.86473 0.20314 0.74335 0.0
C1101 C 0.85913 0.23194 0.74785 0.0
C1102 C 0.94411 0.19767 0.75769 0.0
C1103 C 0.84123 0.18539 0.73477 0.0
H1104 H 0.93301 0.13582 0.70166 0.0
H1105 H 0.91429 0.0942 0.75131 0.0
H1106 H 0.89117 0.19815 0.70815 0.0
H1107 H 0.92737 0.20476 0.71525 0.0
H1108 H 0.92048 0.18336 0.69563 0.0
H1109 H 0.88566 0.11667 0.77319 0.0
H1110 H 0.90295 0.1508 0.77683 0.0
H1111 H 0.86725 0.14973 0.76779 0.0
H1112 H 0.92467 0.25053 0.7648 0.0
H1113 H 0.83814 0.24099 0.74497 0.0
H1114 H 0.95465 0.19381 0.74471 0.0
H1115 H 0.94346 0.17688 0.76487 0.0
H1116 H 0.95756 0.2129 0.76556 0.0
H1117 H 0.84564 0.18278 0.72035 0.0
H1118 H 0.8198 0.19558 0.73616 0.0
H1119 H 0.84057 0.16361 0.74073 0.0
C1120 C 0.8611 0.44763 0.99841 0.0
C1121 C 0.86488 0.45254 0.98014 0.0
C1122 C 0.83757 0.43155 0.0045 0.0
C1123 C 0.81771 0.41988 0.99198 0.0
C1124 C 0.82212 0.42399 0.9735 0.0
C1125 C 0.84554 0.44035 0.96784 0.0
C1126 C 0.83346 0.42779 0.02429 0.0
C1127 C 0.80173 0.41162 0.95967 0.0
C1128 C 0.76532 0.35975 0.00226 0.0
C1129 C 0.73926 0.37479 0.00276 0.0
C1130 C 0.79143 0.3743 -0.00023 0.0
C1131 C 0.79143 0.40457 0.99794 0.0
C1132 C 0.76538 0.41994 0.99968 0.0
C1133 C 0.7396 0.40486 0.00195 0.0
C1134 C 0.81871 0.3571 0.99792 0.0
C1135 C 0.76445 0.45225 0.99805 0.0
H1136 H 0.87606 0.45708 0.00793 0.0
H1137 H 0.84873 0.4437 0.95368 0.0
H1138 H 0.81355 0.43894 0.0284 0.0
H1139 H 0.83081 0.40473 0.02757 0.0
H1140 H 0.85178 0.43653 0.03222 0.0
H1141 H 0.80908 0.41548 0.94583 0.0
H1142 H 0.79939 0.38814 0.96167 0.0
H1143 H 0.78015 0.42135 0.96115 0.0
H1144 H 0.7652 0.3365 0.00288 0.0
H1145 H 0.71955 0.41663 0.0025 0.0
H1146 H 0.83628 0.36666 0.00609 0.0
H1147 H 0.82561 0.35755 0.98381 0.0
H1148 H 0.81581 0.33436 0.00197 0.0
H1149 H 0.78137 0.4622 0.00656 0.0
H1150 H 0.74328 0.46118 0.00188 0.0
H1151 H 0.76873 0.45851 0.98405 0.0
C1152 C 0.57087 0.36757 0.24576 0.0
C1153 C 0.57652 0.37994 0.22911 0.0
C1154 C 0.58312 0.34112 0.25068 0.0
C1155 C 0.60119 0.32662 0.23858 0.0
C1156 C 0.60738 0.33929 0.22189 0.0
C1157 C 0.59504 0.36582 0.21739 0.0
C1158 C 0.57628 0.32843 0.26865 0.0
C1159 C 0.62636 0.32443 0.20855 0.0
C1160 C 0.65205 0.26726 0.25343 0.0
C1161 C 0.63697 0.24263 0.24799 0.0
C1162 C 0.64022 0.29476 0.25107 0.0
C1163 C 0.61278 0.29766 0.24294 0.0
C1164 C 0.59707 0.27281 0.23797 0.0
C1165 C 0.60932 0.24559 0.24062 0.0
C1166 C 0.65749 0.32073 0.25671 0.0
C1167 C 0.56778 0.27501 0.22921 0.0
H1168 H 0.55675 0.37854 0.25491 0.0
H1169 H 0.59913 0.37507 0.2044 0.0
H1170 H 0.56433 0.308 0.26684 0.0
H1171 H 0.59642 0.3233 0.27604 0.0
H1172 H 0.56318 0.34314 0.27691 0.0
H1173 H 0.62978 0.33759 0.19641 0.0
H1174 H 0.64757 0.31953 0.21471 0.0
H1175 H 0.61653 0.30369 0.20449 0.0
H1176 H 0.67339 0.26513 0.25921 0.0
H1177 H 0.59753 0.22666 0.23638 0.0
H1178 H 0.6444 0.33501 0.26523 0.0
H1179 H 0.66359 0.33325 0.24476 0.0
H1180 H 0.67738 0.31477 0.26416 0.0
H1181 H 0.55328 0.28818 0.23751 0.0
H1182 H 0.55773 0.25364 0.22702 0.0
H1183 H 0.56964 0.28593 0.21612 0.0
C1184 C 0.12297 0.93526 0.37907 0.0
C1185 C 0.09536 0.93357 0.3715 0.0
C1186 C 0.13119 0.91717 0.39321 0.0
C1187 C 0.1111 0.89738 0.40017 0.0
C1188 C 0.08375 0.89458 0.3919 0.0
C1189 C 0.07623 0.9127 0.37767 0.0
C1190 C 0.16099 0.92003 0.40117 0.0
C1191 C 0.06148 0.87406 0.39878 0.0
C1192 C 0.13702 0.84057 0.43315 0.0
C1193 C 0.1327 0.8545 0.44947 0.0
C1194 C 0.12976 0.85404 0.41693 0.0
C1195 C 0.11769 0.88195 0.41713 0.0
C1196 C 0.1129 0.89584 0.43363 0.0
C1197 C 0.12119 0.88224 0.44955 0.0
C1198 C 0.13578 0.83881 0.3996 0.0
C1199 C 0.09955 0.92535 0.43447 0.0
H1200 H 0.13794 0.95114 0.37414 0.0
H1201 H 0.05474 0.9115 0.37198 0.0
H1202 H 0.15972 0.9299 0.41461 0.0
H1203 H 0.17102 0.89857 0.40281 0.0
H1204 H 0.17515 0.93357 0.39282 0.0
H1205 H 0.04522 0.86865 0.38835 0.0
H1206 H 0.07128 0.85389 0.40379 0.0
H1207 H 0.05024 0.88452 0.40997 0.0
H1208 H 0.14667 0.81939 0.43308 0.0
H1209 H 0.11934 0.89365 0.46208 0.0
H1210 H 0.15116 0.85161 0.39168 0.0
H1211 H 0.11575 0.83685 0.39154 0.0
H1212 H 0.14488 0.81702 0.40174 0.0
H1213 H 0.09627 0.93268 0.4484 0.0
H1214 H 0.07851 0.92526 0.42736 0.0
H1215 H 0.11346 0.94116 0.42768 0.0
C1216 C 0.09242 0.60892 0.62918 0.0
C1217 C 0.09598 0.58066 0.62315 0.0
C1218 C 0.10841 0.61938 0.64381 0.0
C1219 C 0.12795 0.60093 0.65283 0.0
C1220 C 0.13281 0.57297 0.64609 0.0
C1221 C 0.11676 0.56319 0.63136 0.0
C1222 C 0.10353 0.64979 0.65005 0.0
C1223 C 0.15326 0.55237 0.65509 0.0
C1224 C 0.1792 0.63183 0.68791 0.0
C1225 C 0.16319 0.6285 0.70348 0.0
C1226 C 0.1682 0.62276 0.67128 0.0
C1227 C 0.14071 0.6098 0.67031 0.0
C1228 C 0.12469 0.60608 0.68607 0.0
C1229 C 0.13582 0.6162 0.70236 0.0
C1230 C 0.18561 0.6277 0.65472 0.0
C1231 C 0.09555 0.59185 0.68571 0.0
H1232 H 0.07669 0.62264 0.62267 0.0
H1233 H 0.11944 0.54122 0.62688 0.0
H1234 H 0.09178 0.64956 0.66283 0.0
H1235 H 0.12437 0.66075 0.65252 0.0
H1236 H 0.09085 0.66251 0.64021 0.0
H1237 H 0.1718 0.56352 0.66138 0.0
H1238 H 0.14149 0.5408 0.66562 0.0
H1239 H 0.16146 0.53615 0.64554 0.0
H1240 H 0.20007 0.64211 0.68871 0.0
H1241 H 0.12274 0.61515 0.71418 0.0
H1242 H 0.17338 0.64155 0.64528 0.0
H1243 H 0.18957 0.607 0.64785 0.0
H1244 H 0.20661 0.63805 0.65774 0.0
H1245 H 0.0804 0.60445 0.6773 0.0
H1246 H 0.08631 0.58975 0.69923 0.0
H1247 H 0.09726 0.57015 0.67967 0.0
C1248 C 0.43438 0.6238 0.88487 0.0
C1249 C 0.42658 0.59871 0.87556 0.0
C1250 C 0.41958 0.63251 0.90014 0.0
C1251 C 0.3957 0.61637 0.90592 0.0
C1252 C 0.38587 0.59284 0.89556 0.0
C1253 C 0.40164 0.58403 0.88068 0.0
C1254 C 0.43107 0.6575 0.91091 0.0
C1255 C 0.35993 0.5756 0.90095 0.0
C1256 C 0.38424 0.60833 0.95559 0.0
C1257 C 0.36238 0.62826 0.95884 0.0
C1258 C 0.39559 0.60488 0.93852 0.0
C1259 C 0.38412 0.62103 0.92413 0.0
C1260 C 0.36182 0.64106 0.92724 0.0
C1261 C 0.35151 0.6448 0.94467 0.0
C1262 C 0.41991 0.58384 0.93595 0.0
C1263 C 0.34842 0.65794 0.91212 0.0
H1264 H 0.45295 0.63599 0.88072 0.0
H1265 H 0.39524 0.56461 0.87374 0.0
H1266 H 0.41345 0.6721 0.91484 0.0
H1267 H 0.44128 0.64931 0.92335 0.0
H1268 H 0.44731 0.67006 0.90348 0.0
H1269 H 0.35189 0.56176 0.88989 0.0
H1270 H 0.36571 0.5616 0.91241 0.0
H1271 H 0.34231 0.58996 0.90525 0.0
H1272 H 0.39279 0.59553 0.96647 0.0
H1273 H 0.33439 0.66002 0.94713 0.0
H1274 H 0.4383 0.5947 0.92952 0.0
H1275 H 0.41283 0.56619 0.92698 0.0
H1276 H 0.42751 0.5743 0.94873 0.0
H1277 H 0.36512 0.66999 0.90483 0.0
H1278 H 0.33193 0.67332 0.91683 0.0
H1279 H 0.33818 0.64295 0.90244 0.0
C1280 C 0.413 0.88373 0.12857 0.0
C1281 C 0.4315 0.90694 0.13179 0.0
C1282 C 0.39933 0.86973 0.14276 0.0
C1283 C 0.404 0.87959 0.16045 0.0
C1284 C 0.42183 0.90374 0.16361 0.0
C1285 C 0.43549 0.91696 0.14926 0.0
C1286 C 0.38072 0.84387 0.13892 0.0
C1287 C 0.42707 0.91524 0.18222 0.0
C1288 C 0.35713 0.86152 0.19992 0.0
C1289 C 0.3752 0.84287 0.20951 0.0
C1290 C 0.36531 0.87235 0.18324 0.0
C1291 C 0.39194 0.86392 0.17594 0.0
C1292 C 0.40907 0.84328 0.18494 0.0
C1293 C 0.40062 0.83321 0.20169 0.0
C1294 C 0.34655 0.89447 0.17414 0.0
C1295 C 0.43735 0.8333 0.17748 0.0
H1296 H 0.40996 0.87601 0.11503 0.0
H1297 H 0.44946 0.93523 0.1517 0.0
H1298 H 0.39092 0.82444 0.14475 0.0
H1299 H 0.35947 0.84636 0.14526 0.0
H1300 H 0.37743 0.84033 0.12438 0.0
H1301 H 0.43999 0.9353 0.18224 0.0
H1302 H 0.40632 0.91964 0.18881 0.0
H1303 H 0.4386 0.89895 0.19038 0.0
H1304 H 0.33748 0.86911 0.20594 0.0
H1305 H 0.41448 0.8185 0.20896 0.0
H1306 H 0.34436 0.88982 0.15968 0.0
H1307 H 0.3567 0.91594 0.1755 0.0
H1308 H 0.32479 0.89546 0.18002 0.0
H1309 H 0.43493 0.82773 0.16315 0.0
H1310 H 0.44601 0.81435 0.18475 0.0
H1311 H 0.45332 0.85094 0.17852 0.0
C1312 C 0.06462 0.59014 0.85539 0.0
C1313 C 0.07198 0.59499 0.87331 0.0
C1314 C 0.08118 0.60148 0.84163 0.0
C1315 C 0.1059 0.61797 0.84587 0.0
C1316 C 0.11283 0.62394 0.86395 0.0
C1317 C 0.09566 0.61244 0.87751 0.0
C1318 C 0.07281 0.59482 0.82253 0.0
C1319 C 0.13903 0.64135 0.86898 0.0
C1320 C 0.15989 0.61109 0.80903 0.0
C1321 C 0.15366 0.63539 0.79865 0.0
C1322 C 0.14623 0.60644 0.82531 0.0
C1323 C 0.12554 0.62641 0.83127 0.0
C1324 C 0.12085 0.65212 0.82157 0.0
C1325 C 0.13512 0.6564 0.80536 0.0
C1326 C 0.15225 0.57895 0.83536 0.0
C1327 C 0.09903 0.67396 0.82751 0.0
H1328 H 0.046 0.57708 0.85214 0.0
H1329 H 0.10135 0.61618 0.89138 0.0
H1330 H 0.07147 0.6149 0.81461 0.0
H1331 H 0.08948 0.58108 0.81639 0.0
H1332 H 0.05186 0.58349 0.82148 0.0
H1333 H 0.13942 0.64711 0.88336 0.0
H1334 H 0.15865 0.62879 0.86603 0.0
H1335 H 0.13994 0.66132 0.86096 0.0
H1336 H 0.17454 0.59499 0.80401 0.0
H1337 H 0.13022 0.67521 0.79738 0.0
H1338 H 0.1336 0.56427 0.83388 0.0
H1339 H 0.15529 0.58333 0.8498 0.0
H1340 H 0.17162 0.56776 0.83036 0.0
H1341 H 0.07711 0.66565 0.82468 0.0
H1342 H 0.10154 0.69476 0.82045 0.0
H1343 H 0.10079 0.67776 0.84209 0.0
C1344 C 0.37859 0.5686 0.1274 0.0
C1345 C 0.40301 0.5818 0.13491 0.0
C1346 C 0.36396 0.58075 0.11284 0.0
C1347 C 0.37319 0.60748 0.10599 0.0
C1348 C 0.39505 0.62289 0.11518 0.0
C1349 C 0.41025 0.60958 0.12922 0.0
C1350 C 0.33975 0.56361 0.10459 0.0
C1351 C 0.40346 0.65288 0.10968 0.0
C1352 C 0.37135 0.62065 0.05604 0.0
C1353 C 0.34437 0.63326 0.05349 0.0
C1354 C 0.38065 0.61172 0.073 0.0
C1355 C 0.36327 0.61721 0.08801 0.0
C1356 C 0.33663 0.63147 0.08565 0.0
C1357 C 0.32731 0.63898 0.06836 0.0
C1358 C 0.40909 0.59632 0.07482 0.0
C1359 C 0.31811 0.63886 0.10137 0.0
H1360 H 0.37154 0.54793 0.13234 0.0
H1361 H 0.42864 0.6205 0.13504 0.0
H1362 H 0.32366 0.55858 0.11495 0.0
H1363 H 0.32867 0.57463 0.09342 0.0
H1364 H 0.34824 0.54278 0.09977 0.0
H1365 H 0.4133 0.66487 0.12102 0.0
H1366 H 0.41951 0.65183 0.0989 0.0
H1367 H 0.3846 0.6651 0.1046 0.0
H1368 H 0.38546 0.6182 0.04478 0.0
H1369 H 0.30686 0.64975 0.06647 0.0
H1370 H 0.40593 0.57529 0.08147 0.0
H1371 H 0.42414 0.60893 0.08326 0.0
H1372 H 0.41944 0.59277 0.06175 0.0
H1373 H 0.30896 0.61893 0.10706 0.0
H1374 H 0.30011 0.65337 0.09758 0.0
H1375 H 0.33122 0.64932 0.112 0.0
C1376 C 0.41713 0.89727 0.37811 0.0
C1377 C 0.40299 0.92278 0.38269 0.0
C1378 C 0.40694 0.87975 0.36423 0.0
C1379 C 0.38149 0.88748 0.35492 0.0
C1380 C 0.36526 0.91129 0.3609 0.0
C1381 C 0.37642 0.92896 0.37453 0.0
C1382 C 0.42515 0.85452 0.35885 0.0
C1383 C 0.33693 0.91912 0.3522 0.0
C1384 C 0.3754 0.87346 0.30516 0.0
C1385 C 0.36058 0.84734 0.30452 0.0
C1386 C 0.38301 0.8862 0.32149 0.0
C1387 C 0.37404 0.87339 0.33762 0.0
C1388 C 0.35805 0.84753 0.33706 0.0
C1389 C 0.35175 0.83464 0.32049 0.0
C1390 C 0.40055 0.91348 0.32144 0.0
C1391 C 0.3473 0.83376 0.35392 0.0
H1392 H 0.4371 0.8916 0.38481 0.0
H1393 H 0.36504 0.9484 0.37807 0.0
H1394 H 0.41301 0.83812 0.35117 0.0
H1395 H 0.44294 0.86254 0.35053 0.0
H1396 H 0.43495 0.84409 0.37077 0.0
H1397 H 0.32437 0.93411 0.3606 0.0
H1398 H 0.34081 0.92965 0.33919 0.0
H1399 H 0.32386 0.89959 0.34959 0.0
H1400 H 0.38056 0.88429 0.29284 0.0
H1401 H 0.33945 0.81488 0.31998 0.0
H1402 H 0.42043 0.91043 0.32955 0.0
H1403 H 0.3883 0.93123 0.3276 0.0
H1404 H 0.40656 0.92016 0.30777 0.0
H1405 H 0.36574 0.8272 0.36249 0.0
H1406 H 0.33379 0.81457 0.35115 0.0
H1407 H 0.33453 0.8495 0.36162 0.0
C1408 C 0.09664 0.88619 0.62713 0.0
C1409 C 0.07429 0.90588 0.62428 0.0
C1410 C 0.11074 0.87344 0.61263 0.0
C1411 C 0.10257 0.88108 0.59499 0.0
C1412 C 0.08065 0.90171 0.59216 0.0
C1413 C 0.06666 0.91366 0.60682 0.0
C1414 C 0.13371 0.85126 0.61615 0.0
C1415 C 0.07154 0.91083 0.57359 0.0
C1416 C 0.14672 0.86881 0.5535 0.0
C1417 C 0.13051 0.84733 0.54504 0.0
C1418 C 0.13922 0.87879 0.57053 0.0
C1419 C 0.11534 0.86653 0.57929 0.0
C1420 C 0.10073 0.84298 0.57142 0.0
C1421 C 0.10826 0.83392 0.55428 0.0
C1422 C 0.15518 0.9041 0.57838 0.0
C1423 C 0.07559 0.82885 0.58044 0.0
H1424 H 0.10254 0.88024 0.64067 0.0
H1425 H 0.04972 0.92929 0.60465 0.0
H1426 H 0.12634 0.83006 0.61113 0.0
H1427 H 0.15355 0.85679 0.60887 0.0
H1428 H 0.13902 0.84923 0.63059 0.0
H1429 H 0.0555 0.92849 0.57374 0.0
H1430 H 0.09047 0.91807 0.56595 0.0
H1431 H 0.062 0.8923 0.56634 0.0
H1432 H 0.16381 0.8793 0.54629 0.0
H1433 H 0.09587 0.81712 0.54775 0.0
H1434 H 0.15952 0.90086 0.59281 0.0
H1435 H 0.14171 0.92365 0.57699 0.0
H1436 H 0.17586 0.90798 0.57154 0.0
H1437 H 0.08053 0.82489 0.59474 0.0
H1438 H 0.06966 0.80815 0.57401 0.0
H1439 H 0.0567 0.84334 0.57974 0.0
C1440 C 0.62641 0.42715 0.88094 0.0
C1441 C 0.59929 0.42391 0.87286 0.0
C1442 C 0.63482 0.40982 0.89541 0.0
C1443 C 0.61544 0.38913 0.90213 0.0
C1444 C 0.58888 0.38448 0.89321 0.0
C1445 C 0.58112 0.40195 0.87872 0.0
C1446 C 0.66388 0.41464 0.90405 0.0
C1447 C 0.56744 0.36275 0.89969 0.0
C1448 C 0.64201 0.336 0.93725 0.0
C1449 C 0.63559 0.35064 0.95304 0.0
C1450 C 0.63523 0.34798 0.92051 0.0
C1451 C 0.62153 0.37509 0.91962 0.0
C1452 C 0.61462 0.38967 0.93559 0.0
C1453 C 0.62243 0.37759 0.95207 0.0
C1454 C 0.64349 0.33209 0.90379 0.0
C1455 C 0.59951 0.41836 0.93528 0.0
H1456 H 0.64073 0.44379 0.87625 0.0
H1457 H 0.56002 0.39945 0.87263 0.0
H1458 H 0.66116 0.42526 0.91717 0.0
H1459 H 0.67484 0.39383 0.90648 0.0
H1460 H 0.67791 0.42836 0.89574 0.0
H1461 H 0.55302 0.35539 0.8887 0.0
H1462 H 0.57804 0.34377 0.90576 0.0
H1463 H 0.55399 0.37309 0.90993 0.0
H1464 H 0.65291 0.31547 0.93801 0.0
H1465 H 0.61892 0.38963 0.96421 0.0
H1466 H 0.65882 0.34523 0.89605 0.0
H1467 H 0.62428 0.32855 0.89517 0.0
H1468 H 0.65356 0.31098 0.90675 0.0
H1469 H 0.59466 0.4263 0.94889 0.0
H1470 H 0.57911 0.41659 0.92755 0.0
H1471 H 0.61304 0.43456 0.92854 0.0
C1472 C 0.59218 0.11232 0.12863 0.0
C1473 C 0.59704 0.08442 0.12236 0.0
C1474 C 0.60786 0.12323 0.14326 0.0
C1475 C 0.62824 0.10548 0.1521 0.0
C1476 C 0.63456 0.07804 0.145 0.0
C1477 C 0.6189 0.06789 0.13022 0.0
C1478 C 0.60163 0.15325 0.14975 0.0
C1479 C 0.65605 0.05815 0.15368 0.0
C1480 C 0.6772 0.13666 0.18832 0.0
C1481 C 0.66082 0.13206 0.20361 0.0
C1482 C 0.66703 0.12806 0.1714 0.0
C1483 C 0.64005 0.11418 0.16986 0.0
C1484 C 0.62364 0.10925 0.18534 0.0
C1485 C 0.63388 0.119 0.20193 0.0
C1486 C 0.68475 0.13442 0.15516 0.0
C1487 C 0.59502 0.09403 0.18436 0.0
H1488 H 0.57556 0.12531 0.12239 0.0
H1489 H 0.62262 0.0462 0.12549 0.0
H1490 H 0.58923 0.15221 0.16227 0.0
H1491 H 0.62194 0.16486 0.15276 0.0
H1492 H 0.58899 0.16581 0.13981 0.0
H1493 H 0.66622 0.044 0.14363 0.0
H1494 H 0.67317 0.06986 0.16105 0.0
H1495 H 0.64456 0.04421 0.16318 0.0
H1496 H 0.69771 0.14755 0.18956 0.0
H1497 H 0.62045 0.11703 0.21355 0.0
H1498 H 0.67215 0.14787 0.14568 0.0
H1499 H 0.69006 0.11416 0.14815 0.0
H1500 H 0.70506 0.14577 0.15859 0.0
H1501 H 0.57968 0.10647 0.176 0.0
H1502 H 0.58543 0.09099 0.19771 0.0
H1503 H 0.59767 0.0727 0.17796 0.0
C1504 C 0.90147 0.0963 0.37664 0.0
C1505 C 0.92584 0.11159 0.37119 0.0
C1506 C 0.88586 0.10491 0.39162 0.0
C1507 C 0.89528 0.12889 0.40172 0.0
C1508 C 0.91832 0.14578 0.39549 0.0
C1509 C 0.93301 0.13718 0.38014 0.0
C1510 C 0.8608 0.08682 0.3975 0.0
C1511 C 0.92923 0.1714 0.40589 0.0
C1512 C 0.85141 0.15375 0.44153 0.0
C1513 C 0.86353 0.13705 0.45523 0.0
C1514 C 0.86148 0.15157 0.42394 0.0
C1515 C 0.88469 0.1329 0.4202 0.0
C1516 C 0.89762 0.11691 0.4342 0.0
C1517 C 0.88658 0.11883 0.45141 0.0
C1518 C 0.84663 0.16831 0.40928 0.0
C1519 C 0.92292 0.09732 0.43096 0.0
H1520 H 0.89554 0.07649 0.36997 0.0
H1521 H 0.95112 0.14981 0.37571 0.0
H1522 H 0.86757 0.07314 0.40891 0.0
H1523 H 0.84288 0.10059 0.40205 0.0
H1524 H 0.85278 0.0726 0.38663 0.0
H1525 H 0.94407 0.18481 0.39794 0.0
H1526 H 0.91118 0.18499 0.41042 0.0
H1527 H 0.94095 0.1638 0.41797 0.0
H1528 H 0.83339 0.16765 0.44443 0.0
H1529 H 0.8961 0.10597 0.46196 0.0
H1530 H 0.83506 0.15321 0.40027 0.0
H1531 H 0.86251 0.17997 0.4011 0.0
H1532 H 0.83092 0.18399 0.4146 0.0
H1533 H 0.91629 0.07938 0.42208 0.0
H1534 H 0.93179 0.08808 0.44353 0.0
H1535 H 0.94028 0.10924 0.42417 0.0
C1536 C 0.91427 0.43131 0.64224 0.0
C1537 C 0.91798 0.41667 0.62607 0.0
C1538 C 0.90382 0.41724 0.65733 0.0
C1539 C 0.89697 0.38768 0.65631 0.0
C1540 C 0.89953 0.37296 0.63987 0.0
C1541 C 0.91013 0.38762 0.62493 0.0
C1542 C 0.90156 0.43374 0.67462 0.0
C1543 C 0.89221 0.3415 0.63825 0.0
C1544 C 0.90716 0.3507 0.70078 0.0
C1545 C 0.87923 0.3511 0.70762 0.0
C1546 C 0.91288 0.36095 0.68364 0.0
C1547 C 0.89014 0.37191 0.67298 0.0
C1548 C 0.86163 0.37076 0.67931 0.0
C1549 C 0.85648 0.36034 0.69659 0.0
C1550 C 0.9436 0.36166 0.67739 0.0
C1551 C 0.8368 0.38205 0.66827 0.0
H1552 H 0.92073 0.4536 0.64337 0.0
H1553 H 0.91265 0.37626 0.61243 0.0
H1554 H 0.87994 0.43088 0.68041 0.0
H1555 H 0.91746 0.42529 0.68443 0.0
H1556 H 0.90555 0.45707 0.67283 0.0
H1557 H 0.8919 0.33413 0.62416 0.0
H1558 H 0.90834 0.32862 0.64576 0.0
H1559 H 0.87096 0.33708 0.64419 0.0
H1560 H 0.92487 0.34322 0.70906 0.0
H1561 H 0.83481 0.36062 0.7017 0.0
H1562 H 0.951 0.38426 0.67654 0.0
H1563 H 0.94521 0.35219 0.66386 0.0
H1564 H 0.95837 0.34985 0.68653 0.0
H1565 H 0.83788 0.40584 0.66777 0.0
H1566 H 0.81573 0.37578 0.67388 0.0
H1567 H 0.83801 0.37408 0.65435 0.0
C1568 C 0.55827 0.10649 0.35973 0.0
C1569 C 0.57019 0.10471 0.37697 0.0
C1570 C 0.5748 0.11527 0.34523 0.0
C1571 C 0.60406 0.12247 0.34797 0.0
C1572 C 0.61593 0.12202 0.36545 0.0
C1573 C 0.59887 0.11302 0.37976 0.0
C1574 C 0.5613 0.11527 0.3268 0.0
C1575 C 0.64695 0.12983 0.36893 0.0
C1576 C 0.64878 0.1068 0.30737 0.0
C1577 C 0.64968 0.13369 0.29894 0.0
C1578 C 0.63542 0.10325 0.32386 0.0
C1579 C 0.62263 0.1272 0.33223 0.0
C1580 C 0.62503 0.15476 0.32441 0.0
C1581 C 0.63854 0.1577 0.30782 0.0
C1582 C 0.63346 0.07348 0.33174 0.0
C1583 C 0.61192 0.18085 0.33304 0.0
H1584 H 0.53627 0.09972 0.35739 0.0
H1585 H 0.60811 0.11201 0.39308 0.0
H1586 H 0.56521 0.13608 0.32006 0.0
H1587 H 0.57129 0.09825 0.31857 0.0
H1588 H 0.53777 0.1114 0.32711 0.0
H1589 H 0.65184 0.13209 0.38341 0.0
H1590 H 0.66104 0.11289 0.36341 0.0
H1591 H 0.65238 0.15023 0.36213 0.0
H1592 H 0.65766 0.08813 0.30079 0.0
H1593 H 0.6392 0.17859 0.30148 0.0
H1594 H 0.61078 0.06615 0.33138 0.0
H1595 H 0.64058 0.07367 0.34591 0.0
H1596 H 0.64666 0.05763 0.3244 0.0
H1597 H 0.58818 0.17969 0.33177 0.0
H1598 H 0.61926 0.20113 0.32677 0.0
H1599 H 0.61731 0.18149 0.34749 0.0
C1600 C 0.90981 0.10732 0.62526 0.0
C1601 C 0.90596 0.07876 0.63056 0.0
C1602 C 0.89435 0.11865 0.61067 0.0
C1603 C 0.87546 0.10063 0.60078 0.0
C1604 C 0.87012 0.07236 0.60689 0.0
C1605 C 0.88533 0.06187 0.62176 0.0
C1606 C 0.89893 0.14962 0.60551 0.0
C1607 C 0.84922 0.05232 0.59776 0.0
C1608 C 0.82661 0.13137 0.56433 0.0
C1609 C 0.84436 0.12954 0.54942 0.0
C1610 C 0.83629 0.12197 0.5812 0.0
C1611 C 0.86426 0.11032 0.58307 0.0
C1612 C 0.88205 0.10816 0.56795 0.0
C1613 C 0.87214 0.11851 0.55144 0.0
C1614 C 0.8168 0.12476 0.59702 0.0
C1615 C 0.91167 0.09505 0.56921 0.0
H1616 H 0.92531 0.12063 0.63232 0.0
H1617 H 0.88209 0.0398 0.62588 0.0
H1618 H 0.91202 0.15074 0.59327 0.0
H1619 H 0.87804 0.16015 0.60252 0.0
H1620 H 0.91019 0.16191 0.61621 0.0
H1621 H 0.83174 0.04695 0.60712 0.0
H1622 H 0.83944 0.06135 0.58549 0.0
H1623 H 0.8602 0.03187 0.59448 0.0
H1624 H 0.80534 0.14058 0.56284 0.0
H1625 H 0.88643 0.11858 0.54015 0.0
H1626 H 0.82801 0.13642 0.60799 0.0
H1627 H 0.8113 0.10308 0.60207 0.0
H1628 H 0.79657 0.13626 0.59363 0.0
H1629 H 0.92551 0.10779 0.57837 0.0
H1630 H 0.92234 0.09397 0.55606 0.0
H1631 H 0.91022 0.07304 0.5748 0.0
C1632 C 0.87049 0.42947 0.87516 0.0
C1633 C 0.89746 0.42708 0.88354 0.0
C1634 C 0.86304 0.41179 0.86063 0.0
C1635 C 0.88331 0.39178 0.85411 0.0
C1636 C 0.90975 0.38802 0.86331 0.0
C1637 C 0.91649 0.40571 0.87789 0.0
C1638 C 0.83402 0.41551 0.85174 0.0
C1639 C 0.93217 0.36712 0.85705 0.0
C1640 C 0.86064 0.33719 0.81881 0.0
C1641 C 0.86697 0.35198 0.80307 0.0
C1642 C 0.86597 0.34971 0.83559 0.0
C1643 C 0.87823 0.3775 0.83658 0.0
C1644 C 0.885 0.39229 0.82067 0.0
C1645 C 0.87852 0.37965 0.80413 0.0
C1646 C 0.85781 0.33359 0.85223 0.0
C1647 C 0.89865 0.4217 0.82111 0.0
H1648 H 0.85555 0.4457 0.87968 0.0
H1649 H 0.93751 0.40393 0.88418 0.0
H1650 H 0.83662 0.42637 0.8387 0.0
H1651 H 0.82396 0.3943 0.84912 0.0
H1652 H 0.81925 0.42858 0.85998 0.0
H1653 H 0.94616 0.35986 0.86828 0.0
H1654 H 0.92255 0.348 0.85052 0.0
H1655 H 0.94593 0.37817 0.84728 0.0
H1656 H 0.85091 0.31607 0.81796 0.0
H1657 H 0.88181 0.39177 0.79201 0.0
H1658 H 0.842 0.3463 0.85989 0.0
H1659 H 0.87696 0.33056 0.86097 0.0
H1660 H 0.84837 0.31221 0.84918 0.0
H1661 H 0.8842 0.43723 0.82771 0.0
H1662 H 0.90344 0.42986 0.80755 0.0
H1663 H 0.91893 0.42095 0.82904 0.0
C1664 C 0.58795 0.43088 0.11293 0.0
C1665 C 0.58561 0.41687 0.12941 0.0
C1666 C 0.59861 0.41664 0.09795 0.0
C1667 C 0.60715 0.38756 0.0994 0.0
C1668 C 0.60593 0.37355 0.11614 0.0
C1669 C 0.59505 0.38835 0.13096 0.0
C1670 C 0.5994 0.43236 0.08034 0.0
C1671 C 0.61507 0.34264 0.11823 0.0
C1672 C 0.59834 0.34796 0.05566 0.0
C1673 C 0.62603 0.34983 0.04855 0.0
C1674 C 0.59234 0.35859 0.07269 0.0
C1675 C 0.61458 0.37143 0.08296 0.0
C1676 C 0.64297 0.37173 0.0764 0.0
C1677 C 0.64839 0.36091 0.05924 0.0
C1678 C 0.56177 0.35771 0.0792 0.0
C1679 C 0.66728 0.38502 0.08703 0.0
H1680 H 0.58027 0.45273 0.11151 0.0
H1681 H 0.59358 0.3775 0.1437 0.0
H1682 H 0.62102 0.4306 0.07439 0.0
H1683 H 0.58387 0.42242 0.07084 0.0
H1684 H 0.59397 0.45547 0.08173 0.0
H1685 H 0.61603 0.33593 0.13244 0.0
H1686 H 0.59962 0.32851 0.11104 0.0
H1687 H 0.63645 0.3392 0.11222 0.0
H1688 H 0.58095 0.33907 0.04765 0.0
H1689 H 0.66988 0.36235 0.05393 0.0
H1690 H 0.553 0.37985 0.07967 0.0
H1691 H 0.56103 0.3489 0.09292 0.0
H1692 H 0.5476 0.34453 0.07042 0.0
H1693 H 0.66478 0.40871 0.0871 0.0
H1694 H 0.68857 0.37975 0.08136 0.0
H1695 H 0.66681 0.37767 0.10109 0.0
loop_
_geom_bond_atom_site_label_1
_geom_bond_atom_site_label_2
_geom_bond_distance
_geom_bond_site_symmetry_2
_ccdc_geom_bond_type
H0 C19 0.949 . S
H1 C20 0.950 . S
H2 C22 0.950 . S
H3 C23 0.950 . S
H4 C25 0.950 . S
H5 C28 0.950 . S
H6 C29 0.950 . S
H7 C31 0.951 . S
H8 C32 0.949 1_565 S
H9 C34 0.949 . S
H10 C35 0.950 . S
H11 C37 0.950 . S
H12 C38 0.950 . S
H13 C40 0.950 1_655 S
H14 C43 0.950 . S
H15 C44 0.950 . S
H16 C46 0.951 . S
H17 C47 0.949 1_545 S
C18 C19 1.376 . S
C18 C23 1.386 . S
C18 C24 1.483 . S
C19 H0 0.949 . S
C19 C18 1.376 . S
C19 C20 1.397 . S
C20 H1 0.950 . S
C20 C19 1.397 . S
C20 C21 1.391 . S
C21 C20 1.391 . S
C21 C22 1.405 . S
C22 H2 0.950 . S
C22 C21 1.405 . S
C22 C23 1.367 . S
C23 H3 0.950 . S
C23 C18 1.386 . S
C23 C22 1.367 . S
C24 C18 1.483 . S
C24 C25 1.382 1_655 S
C24 C26 1.403 . S
C25 H4 0.950 . S
C25 C24 1.382 1_455 S
C25 C41 1.411 1_545 S
C26 C24 1.403 . S
C26 C27 1.489 . S
C26 C40 1.412 1_645 S
C27 C26 1.489 . S
C27 C28 1.383 . S
C27 C32 1.382 . S
C28 H5 0.950 . S
C28 C27 1.383 . S
C28 C29 1.395 . S
C29 H6 0.950 . S
C29 C28 1.395 . S
C29 C30 1.288 . S
C30 C29 1.288 . S
C30 C31 1.392 . S
C31 H7 0.951 . S
C31 C30 1.392 . S
C31 C32 1.392 . S
C32 H8 0.949 1_545 S
C32 C27 1.382 . S
C32 C31 1.392 . S
C33 C34 1.376 . S
C33 C38 1.386 . S
C33 C39 1.483 . S
C34 H9 0.949 . S
C34 C33 1.376 . S
C34 C35 1.397 . S
C35 H10 0.950 . S
C35 C34 1.397 . S
C35 C36 1.391 . S
C36 C35 1.391 . S
C36 C37 1.405 . S
C37 H11 0.950 . S
C37 C36 1.405 . S
C37 C38 1.367 . S
C38 H12 0.950 . S
C38 C33 1.386 . S
C38 C37 1.367 . S
C39 C33 1.483 . S
C39 C40 1.381 . S
C39 C41 1.403 . S
C40 H13 0.950 1_455 S
C40 C26 1.412 1_465 S
C40 C39 1.381 . S
C41 C25 1.411 1_565 S
C41 C39 1.403 . S
C41 C42 1.489 . S
C42 C41 1.489 . S
C42 C43 1.383 . S
C42 C47 1.382 . S
C43 H14 0.950 . S
C43 C42 1.383 . S
C43 C44 1.395 . S
C44 H15 0.950 . S
C44 C43 1.395 . S
C44 C45 1.288 . S
C45 C44 1.288 . S
C45 C46 1.392 . S
C46 H16 0.951 . S
C46 C45 1.392 . S
C46 C47 1.392 . S
C47 H17 0.949 1_565 S
C47 C42 1.382 . S
C47 C46 1.392 . S
H48 C67 0.949 1_455 S
H49 C68 0.950 . S
H50 C70 0.950 . S
H51 C71 0.950 . S
H52 C73 0.950 . S
H53 C76 0.950 . S
H54 C77 0.950 . S
H55 C79 0.951 . S
H56 C80 0.949 . S
H57 C82 0.949 1_655 S
H58 C83 0.950 . S
H59 C85 0.950 . S
H60 C86 0.950 . S
H61 C88 0.950 . S
H62 C91 0.950 . S
H63 C92 0.950 . S
H64 C94 0.951 . S
H65 C95 0.949 . S
C66 C67 1.376 . S
C66 C71 1.386 . S
C66 C72 1.483 . S
C67 H48 0.949 1_655 S
C67 C66 1.376 . S
C67 C68 1.397 . S
C68 H49 0.950 . S
C68 C67 1.397 . S
C68 C69 1.391 . S
C69 C68 1.391 . S
C69 C70 1.405 . S
C70 H50 0.950 . S
C70 C69 1.405 . S
C70 C71 1.367 . S
C71 H51 0.950 . S
C71 C66 1.386 . S
C71 C70 1.367 . S
C72 C66 1.483 . S
C72 C73 1.382 1_655 S
C72 C74 1.403 . S
C73 H52 0.950 . S
C73 C72 1.382 1_455 S
C73 C89 1.411 . S
C74 C72 1.403 . S
C74 C75 1.489 . S
C74 C88 1.411 . S
C75 C74 1.489 . S
C75 C76 1.383 . S
C75 C80 1.382 . S
C76 H53 0.950 . S
C76 C75 1.383 . S
C76 C77 1.395 . S
C77 H54 0.950 . S
C77 C76 1.395 . S
C77 C78 1.288 . S
C78 C77 1.288 . S
C78 C79 1.392 . S
C79 H55 0.951 . S
C79 C78 1.392 . S
C79 C80 1.392 . S
C80 H56 0.949 . S
C80 C75 1.382 . S
C80 C79 1.392 . S
C81 C82 1.376 . S
C81 C86 1.386 . S
C81 C87 1.483 . S
C82 H57 0.949 1_455 S
C82 C81 1.376 . S
C82 C83 1.397 . S
C83 H58 0.950 . S
C83 C82 1.397 . S
C83 C84 1.391 . S
C84 C83 1.391 . S
C84 C85 1.405 . S
C85 H59 0.950 . S
C85 C84 1.405 . S
C85 C86 1.367 . S
C86 H60 0.950 . S
C86 C81 1.386 . S
C86 C85 1.367 . S
C87 C81 1.483 . S
C87 C88 1.382 1_455 S
C87 C89 1.403 . S
C88 H61 0.950 . S
C88 C74 1.411 . S
C88 C87 1.382 1_655 S
C89 C73 1.411 . S
C89 C87 1.403 . S
C89 C90 1.489 . S
C90 C89 1.489 . S
C90 C91 1.383 . S
C90 C95 1.382 . S
C91 H62 0.950 . S
C91 C90 1.383 . S
C91 C92 1.395 . S
C92 H63 0.950 . S
C92 C91 1.395 . S
C92 C93 1.288 . S
C93 C92 1.288 . S
C93 C94 1.392 . S
C94 H64 0.951 . S
C94 C93 1.392 . S
C94 C95 1.392 . S
C95 H65 0.949 . S
C95 C90 1.382 . S
C95 C94 1.392 . S
H96 C115 0.949 . S
H97 C116 0.950 . S
H98 C118 0.950 . S
H99 C119 0.950 . S
H100 C121 0.950 . S
H101 C124 0.950 . S
H102 C125 0.950 . S
H103 C127 0.951 . S
H104 C128 0.949 . S
H105 C130 0.949 . S
H106 C131 0.950 . S
H107 C133 0.950 . S
H108 C134 0.950 . S
H109 C136 0.950 . S
H110 C139 0.950 . S
H111 C140 0.950 . S
H112 C142 0.951 . S
H113 C143 0.949 . S
C114 C115 1.376 . S
C114 C119 1.386 . S
C114 C120 1.483 . S
C115 H96 0.949 . S
C115 C114 1.376 . S
C115 C116 1.397 . S
C116 H97 0.950 . S
C116 C115 1.397 . S
C116 C117 1.391 . S
C117 C116 1.391 . S
C117 C118 1.405 . S
C118 H98 0.950 . S
C118 C117 1.405 . S
C118 C119 1.367 . S
C119 H99 0.950 . S
C119 C114 1.386 . S
C119 C118 1.367 . S
C120 C114 1.483 . S
C120 C121 1.382 . S
C120 C122 1.403 . S
C121 H100 0.950 . S
C121 C120 1.382 . S
C121 C137 1.411 . S
C122 C120 1.403 . S
C122 C123 1.489 . S
C122 C136 1.411 . S
C123 C122 1.489 . S
C123 C124 1.383 . S
C123 C128 1.382 . S
C124 H101 0.950 . S
C124 C123 1.383 . S
C124 C125 1.395 . S
C125 H102 0.950 . S
C125 C124 1.395 . S
C125 C126 1.288 . S
C126 C125 1.288 . S
C126 C127 1.392 . S
C127 H103 0.951 . S
C127 C126 1.392 . S
C127 C128 1.392 . S
C128 H104 0.949 . S
C128 C123 1.382 . S
C128 C127 1.392 . S
C129 C130 1.376 . S
C129 C134 1.386 . S
C129 C135 1.483 . S
C130 H105 0.949 . S
C130 C129 1.376 . S
C130 C131 1.397 . S
C131 H106 0.950 . S
C131 C130 1.397 . S
C131 C132 1.391 . S
C132 C131 1.391 . S
C132 C133 1.405 . S
C133 H107 0.950 . S
C133 C132 1.405 . S
C133 C134 1.367 . S
C134 H108 0.950 . S
C134 C129 1.386 . S
C134 C133 1.367 . S
C135 C129 1.483 . S
C135 C136 1.382 . S
C135 C137 1.403 . S
C136 H109 0.950 . S
C136 C122 1.411 . S
C136 C135 1.382 . S
C137 C121 1.411 . S
C137 C135 1.403 . S
C137 C138 1.489 . S
C138 C137 1.489 . S
C138 C139 1.383 . S
C138 C143 1.382 . S
C139 H110 0.950 . S
C139 C138 1.383 . S
C139 C140 1.395 . S
C140 H111 0.950 . S
C140 C139 1.395 . S
C140 C141 1.288 . S
C141 C140 1.288 . S
C141 C142 1.392 . S
C142 H112 0.951 . S
C142 C141 1.392 . S
C142 C143 1.392 . S
C143 H113 0.949 . S
C143 C138 1.382 . S
C143 C142 1.392 . S
H144 C163 0.949 . S
H145 C164 0.950 . S
H146 C166 0.950 . S
H147 C167 0.950 . S
H148 C169 0.946 1_565 S
H149 C172 0.950 . S
H150 C173 0.950 . S
H151 C175 0.951 . S
H152 C176 0.949 . S
H153 C178 0.949 . S
H154 C179 0.950 . S
H155 C181 0.950 . S
H156 C182 0.950 . S
H157 C184 0.950 . S
H158 C187 0.950 . S
H159 C188 0.950 . S
H160 C190 0.951 . S
H161 C191 0.949 . S
C162 C163 1.376 . S
C162 C167 1.386 . S
C162 C168 1.483 . S
C163 H144 0.949 . S
C163 C162 1.376 . S
C163 C164 1.397 . S
C164 H145 0.950 . S
C164 C163 1.397 . S
C164 C165 1.391 . S
C165 C164 1.391 . S
C165 C166 1.405 . S
C166 H146 0.950 . S
C166 C165 1.405 . S
C166 C167 1.367 . S
C167 H147 0.950 . S
C167 C162 1.386 . S
C167 C166 1.367 . S
C168 C162 1.483 . S
C168 C169 1.382 1_565 S
C168 C170 1.403 . S
C169 H148 0.946 1_545 S
C169 C168 1.382 1_545 S
C169 C185 1.411 . S
C170 C168 1.403 . S
C170 C171 1.489 . S
C170 C184 1.411 1_565 S
C171 C170 1.489 . S
C171 C172 1.383 . S
C171 C176 1.382 . S
C172 H149 0.950 . S
C172 C171 1.383 . S
C172 C173 1.395 . S
C173 H150 0.950 . S
C173 C172 1.395 . S
C173 C174 1.288 . S
C174 C173 1.288 . S
C174 C175 1.392 . S
C175 H151 0.951 . S
C175 C174 1.392 . S
C175 C176 1.392 . S
C176 H152 0.949 . S
C176 C171 1.382 . S
C176 C175 1.392 . S
C177 C178 1.376 . S
C177 C182 1.386 . S
C177 C183 1.483 . S
C178 H153 0.949 . S
C178 C177 1.376 . S
C178 C179 1.397 . S
C179 H154 0.950 . S
C179 C178 1.397 . S
C179 C180 1.391 . S
C180 C179 1.391 . S
C180 C181 1.405 . S
C181 H155 0.950 . S
C181 C180 1.405 . S
C181 C182 1.367 . S
C182 H156 0.950 . S
C182 C177 1.386 . S
C182 C181 1.367 . S
C183 C177 1.483 . S
C183 C184 1.382 . S
C183 C185 1.403 . S
C184 H157 0.950 . S
C184 C170 1.411 1_545 S
C184 C183 1.382 . S
C185 C169 1.411 . S
C185 C183 1.403 . S
C185 C186 1.489 . S
C186 C185 1.489 . S
C186 C187 1.383 . S
C186 C191 1.382 . S
C187 H158 0.950 . S
C187 C186 1.383 . S
C187 C188 1.395 . S
C188 H159 0.950 . S
C188 C187 1.395 . S
C188 C189 1.288 . S
C189 C188 1.288 . S
C189 C190 1.392 . S
C190 H160 0.951 . S
C190 C189 1.392 . S
C190 C191 1.392 . S
C191 H161 0.949 . S
C191 C186 1.382 . S
C191 C190 1.392 . S
H192 C211 0.949 . S
H193 C212 0.950 . S
H194 C214 0.950 . S
H195 C215 0.950 . S
H196 C217 0.952 . S
H197 C220 0.950 . S
H198 C221 0.950 . S
H199 C223 0.951 . S
H200 C224 0.949 . S
H201 C226 0.949 . S
H202 C227 0.950 . S
H203 C229 0.950 . S
H204 C230 0.950 . S
H205 C232 0.950 . S
H206 C235 0.950 . S
H207 C236 0.950 . S
H208 C238 0.951 . S
H209 C239 0.949 . S
C210 C211 1.376 . S
C210 C215 1.386 . S
C210 C216 1.483 . S
C211 H192 0.949 . S
C211 C210 1.376 . S
C211 C212 1.397 . S
C212 H193 0.950 . S
C212 C211 1.397 . S
C212 C213 1.391 . S
C213 C212 1.391 . S
C213 C214 1.405 . S
C214 H194 0.950 . S
C214 C213 1.405 . S
C214 C215 1.367 . S
C215 H195 0.950 . S
C215 C210 1.386 . S
C215 C214 1.367 . S
C216 C210 1.483 . S
C216 C217 1.366 1_455 S
C216 C218 1.403 . S
C217 H196 0.952 . S
C217 C216 1.366 1_655 S
C217 C233 1.425 . S
C218 C216 1.403 . S
C218 C219 1.489 . S
C218 C232 1.411 . S
C219 C218 1.489 . S
C219 C220 1.383 . S
C219 C224 1.382 . S
C220 H197 0.950 . S
C220 C219 1.383 . S
C220 C221 1.395 . S
C221 H198 0.950 . S
C221 C220 1.395 . S
C221 C222 1.288 . S
C222 C221 1.288 . S
C222 C223 1.392 . S
C223 H199 0.951 . S
C223 C222 1.392 . S
C223 C224 1.392 . S
C224 H200 0.949 . S
C224 C219 1.382 . S
C224 C223 1.392 . S
C225 C226 1.376 . S
C225 C230 1.386 . S
C225 C231 1.483 . S
C226 H201 0.949 . S
C226 C225 1.376 . S
C226 C227 1.397 . S
C227 H202 0.950 . S
C227 C226 1.397 . S
C227 C228 1.391 . S
C228 C227 1.391 . S
C228 C229 1.405 . S
C229 H203 0.950 . S
C229 C228 1.405 . S
C229 C230 1.367 . S
C230 H204 0.950 . S
C230 C225 1.386 . S
C230 C229 1.367 . S
C231 C225 1.483 . S
C231 C232 1.382 1_655 S
C231 C233 1.403 . S
C232 H205 0.950 . S
C232 C218 1.411 . S
C232 C231 1.382 1_455 S
C233 C217 1.425 . S
C233 C231 1.403 . S
C233 C234 1.489 . S
C234 C233 1.489 . S
C234 C235 1.383 . S
C234 C239 1.382 . S
C235 H206 0.950 . S
C235 C234 1.383 . S
C235 C236 1.395 . S
C236 H207 0.950 . S
C236 C235 1.395 . S
C236 C237 1.288 . S
C237 C236 1.288 . S
C237 C238 1.392 . S
C238 H208 0.951 . S
C238 C237 1.392 . S
C238 C239 1.392 . S
C239 H209 0.949 . S
C239 C234 1.382 . S
C239 C238 1.392 . S
H240 C259 0.949 . S
H241 C260 0.950 . S
H242 C262 0.950 . S
H243 C263 0.950 . S
H244 C265 0.950 . S
H245 C268 0.950 . S
H246 C269 0.950 . S
H247 C271 0.951 . S
H248 C272 0.949 . S
H249 C274 0.949 . S
H250 C275 0.950 . S
H251 C277 0.950 . S
H252 C278 0.950 . S
H253 C280 0.950 . S
H254 C283 0.950 . S
H255 C284 0.950 . S
H256 C286 0.951 . S
H257 C287 0.949 . S
C258 C259 1.376 . S
C258 C263 1.386 . S
C258 C264 1.483 . S
C259 H240 0.949 . S
C259 C258 1.376 . S
C259 C260 1.397 . S
C260 H241 0.950 . S
C260 C259 1.397 . S
C260 C261 1.391 . S
C261 C260 1.391 . S
C261 C262 1.405 . S
C262 H242 0.950 . S
C262 C261 1.405 . S
C262 C263 1.367 . S
C263 H243 0.950 . S
C263 C258 1.386 . S
C263 C262 1.367 . S
C264 C258 1.483 . S
C264 C265 1.382 . S
C264 C266 1.403 . S
C265 H244 0.950 . S
C265 C264 1.382 . S
C265 C281 1.411 . S
C266 C264 1.403 . S
C266 C267 1.489 . S
C266 C280 1.411 . S
C267 C266 1.489 . S
C267 C268 1.383 . S
C267 C272 1.382 . S
C268 H245 0.950 . S
C268 C267 1.383 . S
C268 C269 1.395 . S
C269 H246 0.950 . S
C269 C268 1.395 . S
C269 C270 1.288 . S
C270 C269 1.288 . S
C270 C271 1.392 . S
C271 H247 0.951 . S
C271 C270 1.392 . S
C271 C272 1.392 . S
C272 H248 0.949 . S
C272 C267 1.382 . S
C272 C271 1.392 . S
C273 C274 1.376 . S
C273 C278 1.386 . S
C273 C279 1.483 . S
C274 H249 0.949 . S
C274 C273 1.376 . S
C274 C275 1.397 . S
C275 H250 0.950 . S
C275 C274 1.397 . S
C275 C276 1.391 . S
C276 C275 1.391 . S
C276 C277 1.405 . S
C277 H251 0.950 . S
C277 C276 1.405 . S
C277 C278 1.367 . S
C278 H252 0.950 . S
C278 C273 1.386 . S
C278 C277 1.367 . S
C279 C273 1.483 . S
C279 C280 1.382 . S
C279 C281 1.403 . S
C280 H253 0.950 . S
C280 C266 1.411 . S
C280 C279 1.382 . S
C281 C265 1.411 . S
C281 C279 1.403 . S
C281 C282 1.489 . S
C282 C281 1.489 . S
C282 C283 1.383 . S
C282 C287 1.382 . S
C283 H254 0.950 . S
C283 C282 1.383 . S
C283 C284 1.395 . S
C284 H255 0.950 . S
C284 C283 1.395 . S
C284 C285 1.288 . S
C285 C284 1.288 . S
C285 C286 1.392 . S
C286 H256 0.951 . S
C286 C285 1.392 . S
C286 C287 1.392 . S
C287 H257 0.949 . S
C287 C282 1.382 . S
C287 C286 1.392 . S
H288 C307 0.949 . S
H289 C308 0.950 . S
H290 C310 0.950 . S
H291 C311 0.950 . S
H292 C313 0.950 . S
H293 C316 0.950 . S
H294 C317 0.950 . S
H295 C319 0.951 . S
H296 C320 0.949 1_545 S
H297 C322 0.949 . S
H298 C323 0.950 . S
H299 C325 0.950 . S
H300 C326 0.950 . S
H301 C328 0.950 . S
H302 C331 0.950 . S
H303 C332 0.950 . S
H304 C334 0.951 . S
H305 C335 0.949 1_565 S
C306 C307 1.376 . S
C306 C311 1.386 . S
C306 C312 1.483 . S
C307 H288 0.949 . S
C307 C306 1.376 . S
C307 C308 1.397 . S
C308 H289 0.950 . S
C308 C307 1.397 . S
C308 C309 1.391 . S
C309 C308 1.391 . S
C309 C310 1.405 . S
C310 H290 0.950 . S
C310 C309 1.405 . S
C310 C311 1.367 . S
C311 H291 0.950 . S
C311 C306 1.386 . S
C311 C310 1.367 . S
C312 C306 1.483 . S
C312 C313 1.382 . S
C312 C314 1.403 . S
C313 H292 0.950 . S
C313 C312 1.382 . S
C313 C329 1.411 1_565 S
C314 C312 1.403 . S
C314 C315 1.489 . S
C314 C328 1.411 1_565 S
C315 C314 1.489 . S
C315 C316 1.383 . S
C315 C320 1.382 . S
C316 H293 0.950 . S
C316 C315 1.383 . S
C316 C317 1.395 . S
C317 H294 0.950 . S
C317 C316 1.395 . S
C317 C318 1.288 . S
C318 C317 1.288 . S
C318 C319 1.392 . S
C319 H295 0.951 . S
C319 C318 1.392 . S
C319 C320 1.392 . S
C320 H296 0.949 1_565 S
C320 C315 1.382 . S
C320 C319 1.392 . S
C321 C322 1.376 . S
C321 C326 1.386 . S
C321 C327 1.483 . S
C322 H297 0.949 . S
C322 C321 1.376 . S
C322 C323 1.397 . S
C323 H298 0.950 . S
C323 C322 1.397 . S
C323 C324 1.391 . S
C324 C323 1.391 . S
C324 C325 1.405 . S
C325 H299 0.950 . S
C325 C324 1.405 . S
C325 C326 1.367 . S
C326 H300 0.950 . S
C326 C321 1.386 . S
C326 C325 1.367 . S
C327 C321 1.483 . S
C327 C328 1.382 . S
C327 C329 1.403 . S
C328 H301 0.950 . S
C328 C314 1.411 1_545 S
C328 C327 1.382 . S
C329 C313 1.411 1_545 S
C329 C327 1.403 . S
C329 C330 1.489 . S
C330 C329 1.489 . S
C330 C331 1.383 . S
C330 C335 1.382 . S
C331 H302 0.950 . S
C331 C330 1.383 . S
C331 C332 1.395 . S
C332 H303 0.950 . S
C332 C331 1.395 . S
C332 C333 1.288 . S
C333 C332 1.288 . S
C333 C334 1.392 . S
C334 H304 0.951 . S
C334 C333 1.392 . S
C334 C335 1.392 . S
C335 H305 0.949 1_545 S
C335 C330 1.382 . S
C335 C334 1.392 . S
H336 C355 0.949 1_455 S
H337 C356 0.950 . S
H338 C358 0.950 . S
H339 C359 0.950 . S
H340 C361 0.950 . S
H341 C364 0.950 . S
H342 C365 0.950 . S
H343 C367 0.951 . S
H344 C368 0.949 . S
H345 C370 0.973 . S
H346 C371 0.950 . S
H347 C373 0.950 . S
H348 C374 0.950 . S
H349 C376 0.948 1_665 S
H350 C379 0.950 . S
H351 C380 0.950 . S
H352 C382 0.951 . S
H353 C383 0.949 . S
C354 C355 1.376 . S
C354 C359 1.386 . S
C354 C360 1.483 . S
C355 H336 0.949 1_655 S
C355 C354 1.376 . S
C355 C356 1.397 . S
C356 H337 0.950 . S
C356 C355 1.397 . S
C356 C357 1.391 . S
C357 C356 1.391 . S
C357 C358 1.405 . S
C358 H338 0.950 . S
C358 C357 1.405 . S
C358 C359 1.367 . S
C359 H339 0.950 . S
C359 C354 1.386 . S
C359 C358 1.367 . S
C360 C354 1.483 . S
C360 C361 1.382 1_655 S
C360 C362 1.403 . S
C361 H340 0.950 . S
C361 C360 1.382 1_455 S
C361 C377 1.411 1_545 S
C362 C360 1.403 . S
C362 C363 1.489 . S
C362 C376 1.397 1_655 S
C363 C362 1.489 . S
C363 C364 1.383 . S
C363 C368 1.382 . S
C364 H341 0.950 . S
C364 C363 1.383 . S
C364 C365 1.395 . S
C365 H342 0.950 . S
C365 C364 1.395 . S
C365 C366 1.288 . S
C366 C365 1.288 . S
C366 C367 1.392 . S
C367 H343 0.951 . S
C367 C366 1.392 . S
C367 C368 1.392 . S
C368 H344 0.949 . S
C368 C363 1.382 . S
C368 C367 1.392 . S
C369 C370 1.376 . S
C369 C374 1.386 . S
C369 C375 1.483 . S
C370 H345 0.973 . S
C370 C369 1.376 . S
C370 C371 1.397 . S
C371 H346 0.950 . S
C371 C370 1.397 . S
C371 C372 1.391 . S
C372 C371 1.391 . S
C372 C373 1.405 . S
C373 H347 0.950 . S
C373 C372 1.405 . S
C373 C374 1.367 . S
C374 H348 0.950 . S
C374 C369 1.386 . S
C374 C373 1.367 . S
C375 C369 1.483 . S
C375 C376 1.399 1_565 S
C375 C377 1.403 . S
C376 H349 0.948 1_445 S
C376 C362 1.397 1_455 S
C376 C375 1.399 1_545 S
C377 C361 1.411 1_565 S
C377 C375 1.403 . S
C377 C378 1.489 . S
C378 C377 1.489 . S
C378 C379 1.383 . S
C378 C383 1.382 . S
C379 H350 0.950 . S
C379 C378 1.383 . S
C379 C380 1.395 . S
C380 H351 0.950 . S
C380 C379 1.395 . S
C380 C381 1.288 . S
C381 C380 1.288 . S
C381 C382 1.392 . S
C382 H352 0.951 . S
C382 C381 1.392 . S
C382 C383 1.392 . S
C383 H353 0.949 . S
C383 C378 1.382 . S
C383 C382 1.392 . S
Mn384 O389 2.095 1_554 S
Mn384 O399 2.162 . S
Mn384 O400 2.297 . S
Mn384 O408 2.385 . S
Mn384 O409 2.209 . S
Mn384 O410 2.094 1_554 S
Mn385 O390 2.121 . S
Mn385 N392 2.257 1_556 S
Mn385 N401 2.282 1_556 S
Mn385 O409 2.215 1_556 S
Mn385 O411 2.117 . S
C386 O408 1.234 . S
C386 O409 1.283 . S
C387 O399 1.281 . S
C387 O400 1.236 . S
C388 O410 1.240 . S
C388 O411 1.264 . S
O389 Mn384 2.095 1_556 S
O389 C398 1.250 . S
O390 Mn385 2.121 . S
O390 C398 1.258 . S
C391 N392 1.326 1_556 S
C391 C395 1.460 1_556 S
C391 H397 0.929 . S
N392 Mn385 2.257 1_554 S
N392 C391 1.326 1_554 S
N392 C396 1.362 . S
C393 C394 1.258 . S
C393 C396 1.431 . S
C393 C413 1.449 . S
C394 C393 1.258 . S
C394 C395 1.477 . S
C394 H414 0.931 . S
C395 C391 1.460 1_554 S
C395 C394 1.477 . S
C395 H415 0.930 1_554 S
C396 N392 1.362 . S
C396 C393 1.431 . S
C396 C406 1.476 . S
H397 C391 0.929 . S
C398 O389 1.250 . S
C398 O390 1.258 . S
O399 Mn384 2.162 . S
O399 C387 1.281 . S
O400 Mn384 2.297 . S
O400 C387 1.236 . S
N401 Mn385 2.282 1_554 S
N401 C402 1.328 . S
N401 C406 1.318 . S
C402 N401 1.328 . S
C402 C403 1.457 . S
C402 H407 0.929 . S
C403 C402 1.457 . S
C403 C404 1.291 . S
C403 H416 0.931 . S
C404 C403 1.291 . S
C404 C405 1.373 . S
C404 H417 0.929 . S
C405 C404 1.373 . S
C405 C406 1.396 . S
C405 C412 1.403 . S
C406 C396 1.476 . S
C406 N401 1.318 . S
C406 C405 1.396 . S
H407 C402 0.929 . S
O408 Mn384 2.385 . S
O408 C386 1.234 . S
O409 Mn384 2.209 . S
O409 Mn385 2.215 1_554 S
O409 C386 1.283 . S
O410 Mn384 2.094 1_556 S
O410 C388 1.240 . S
O411 Mn385 2.117 . S
O411 C388 1.264 . S
C412 C405 1.403 . S
C412 C413 1.399 . S
C412 H418 0.929 . S
C413 C393 1.449 . S
C413 C412 1.399 . S
C413 H419 0.930 . S
H414 C394 0.931 . S
H415 C395 0.930 1_556 S
H416 C403 0.931 . S
H417 C404 0.929 . S
H418 C412 0.929 . S
H419 C413 0.930 . S
Mn420 O425 2.095 . S
Mn420 O435 2.162 . S
Mn420 O436 2.297 . S
Mn420 O444 2.385 . S
Mn420 O445 2.209 . S
Mn420 O446 2.094 . S
Mn421 O426 2.121 . S
Mn421 N428 2.257 . S
Mn421 N437 2.282 . S
Mn421 O445 2.215 . S
Mn421 O447 2.117 . S
C422 O444 1.234 . S
C422 O445 1.283 . S
C423 O435 1.281 . S
C423 O436 1.236 . S
C424 O446 1.240 . S
C424 O447 1.264 . S
O425 Mn420 2.095 . S
O425 C434 1.250 . S
O426 Mn421 2.121 . S
O426 C434 1.258 . S
C427 N428 1.326 . S
C427 C431 1.460 . S
C427 H433 0.929 . S
N428 Mn421 2.257 . S
N428 C427 1.326 . S
N428 C432 1.362 . S
C429 C430 1.258 . S
C429 C432 1.431 . S
C429 C449 1.449 . S
C430 C429 1.258 . S
C430 C431 1.477 . S
C430 H450 0.931 . S
C431 C427 1.460 . S
C431 C430 1.477 . S
C431 H451 0.930 . S
C432 N428 1.362 . S
C432 C429 1.431 . S
C432 C442 1.476 . S
H433 C427 0.929 . S
C434 O425 1.250 . S
C434 O426 1.258 . S
O435 Mn420 2.162 . S
O435 C423 1.281 . S
O436 Mn420 2.297 . S
O436 C423 1.236 . S
N437 Mn421 2.282 . S
N437 C438 1.328 . S
N437 C442 1.318 . S
C438 N437 1.328 . S
C438 C439 1.457 . S
C438 H443 0.929 . S
C439 C438 1.457 . S
C439 C440 1.291 . S
C439 H452 0.931 . S
C440 C439 1.291 . S
C440 C441 1.373 . S
C440 H453 0.929 . S
C441 C440 1.373 . S
C441 C442 1.396 . S
C441 C448 1.403 . S
C442 C432 1.476 . S
C442 N437 1.318 . S
C442 C441 1.396 . S
H443 C438 0.929 . S
O444 Mn420 2.385 . S
O444 C422 1.234 . S
O445 Mn420 2.209 . S
O445 Mn421 2.215 . S
O445 C422 1.283 . S
O446 Mn420 2.094 . S
O446 C424 1.240 . S
O447 Mn421 2.117 . S
O447 C424 1.264 . S
C448 C441 1.403 . S
C448 C449 1.399 . S
C448 H454 0.929 . S
C449 C429 1.449 . S
C449 C448 1.399 . S
C449 H455 0.930 . S
H450 C430 0.931 . S
H451 C431 0.930 . S
H452 C439 0.931 . S
H453 C440 0.929 . S
H454 C448 0.929 . S
H455 C449 0.930 . S
Mn456 O461 2.095 . S
Mn456 O471 2.162 . S
Mn456 O472 2.297 . S
Mn456 O480 2.385 . S
Mn456 O481 2.209 . S
Mn456 O482 2.094 . S
Mn457 O462 2.121 . S
Mn457 N464 2.257 . S
Mn457 N473 2.282 . S
Mn457 O481 2.215 . S
Mn457 O483 2.117 . S
C458 O480 1.234 . S
C458 O481 1.283 . S
C459 O471 1.281 . S
C459 O472 1.236 . S
C460 O482 1.240 . S
C460 O483 1.264 . S
O461 Mn456 2.095 . S
O461 C470 1.250 . S
O462 Mn457 2.121 . S
O462 C470 1.258 . S
C463 N464 1.326 . S
C463 C467 1.460 . S
C463 H469 0.929 . S
N464 Mn457 2.257 . S
N464 C463 1.326 . S
N464 C468 1.362 . S
C465 C466 1.258 . S
C465 C468 1.431 . S
C465 C485 1.449 . S
C466 C465 1.258 . S
C466 C467 1.477 . S
C466 H486 0.931 . S
C467 C463 1.460 . S
C467 C466 1.477 . S
C467 H487 0.930 . S
C468 N464 1.362 . S
C468 C465 1.431 . S
C468 C478 1.476 . S
H469 C463 0.929 . S
C470 O461 1.250 . S
C470 O462 1.258 . S
O471 Mn456 2.162 . S
O471 C459 1.281 . S
O472 Mn456 2.297 . S
O472 C459 1.236 . S
N473 Mn457 2.282 . S
N473 C474 1.328 . S
N473 C478 1.318 . S
C474 N473 1.328 . S
C474 C475 1.457 . S
C474 H479 0.929 . S
C475 C474 1.457 . S
C475 C476 1.291 . S
C475 H488 0.931 . S
C476 C475 1.291 . S
C476 C477 1.373 . S
C476 H489 0.929 . S
C477 C476 1.373 . S
C477 C478 1.396 . S
C477 C484 1.403 . S
C478 C468 1.476 . S
C478 N473 1.318 . S
C478 C477 1.396 . S
H479 C474 0.929 . S
O480 Mn456 2.385 . S
O480 C458 1.234 . S
O481 Mn456 2.209 . S
O481 Mn457 2.215 . S
O481 C458 1.283 . S
O482 Mn456 2.094 . S
O482 C460 1.240 . S
O483 Mn457 2.117 . S
O483 C460 1.264 . S
C484 C477 1.403 . S
C484 C485 1.399 . S
C484 H490 0.929 . S
C485 C465 1.449 . S
C485 C484 1.399 . S
C485 H491 0.930 . S
H486 C466 0.931 . S
H487 C467 0.930 . S
H488 C475 0.931 . S
H489 C476 0.929 . S
H490 C484 0.929 . S
H491 C485 0.930 . S
Mn492 O497 2.095 . S
Mn492 O507 2.162 . S
Mn492 O508 2.297 . S
Mn492 O516 2.385 . S
Mn492 O517 2.209 . S
Mn492 O518 2.094 . S
Mn493 O498 2.121 . S
Mn493 N500 2.257 . S
Mn493 N509 2.282 . S
Mn493 O517 2.215 . S
Mn493 O519 2.117 . S
C494 O516 1.234 . S
C494 O517 1.283 . S
C495 O507 1.281 . S
C495 O508 1.236 . S
C496 O518 1.240 . S
C496 O519 1.264 . S
O497 Mn492 2.095 . S
O497 C506 1.250 . S
O498 Mn493 2.121 . S
O498 C506 1.258 . S
C499 N500 1.326 . S
C499 C503 1.460 . S
C499 H505 0.929 . S
N500 Mn493 2.257 . S
N500 C499 1.326 . S
N500 C504 1.362 . S
C501 C502 1.258 . S
C501 C504 1.431 . S
C501 C521 1.449 . S
C502 C501 1.258 . S
C502 C503 1.477 . S
C502 H522 0.931 . S
C503 C499 1.460 . S
C503 C502 1.477 . S
C503 H523 0.930 . S
C504 N500 1.362 . S
C504 C501 1.431 . S
C504 C514 1.476 . S
H505 C499 0.929 . S
C506 O497 1.250 . S
C506 O498 1.258 . S
O507 Mn492 2.162 . S
O507 C495 1.281 . S
O508 Mn492 2.297 . S
O508 C495 1.236 . S
N509 Mn493 2.282 . S
N509 C510 1.328 . S
N509 C514 1.318 . S
C510 N509 1.328 . S
C510 C511 1.457 . S
C510 H515 0.929 . S
C511 C510 1.457 . S
C511 C512 1.291 . S
C511 H524 0.931 . S
C512 C511 1.291 . S
C512 C513 1.373 . S
C512 H525 0.929 . S
C513 C512 1.373 . S
C513 C514 1.396 . S
C513 C520 1.403 . S
C514 C504 1.476 . S
C514 N509 1.318 . S
C514 C513 1.396 . S
H515 C510 0.929 . S
O516 Mn492 2.385 . S
O516 C494 1.234 . S
O517 Mn492 2.209 . S
O517 Mn493 2.215 . S
O517 C494 1.283 . S
O518 Mn492 2.094 . S
O518 C496 1.240 . S
O519 Mn493 2.117 . S
O519 C496 1.264 . S
C520 C513 1.403 . S
C520 C521 1.399 . S
C520 H526 0.929 . S
C521 C501 1.449 . S
C521 C520 1.399 . S
C521 H527 0.930 . S
H522 C502 0.931 . S
H523 C503 0.930 . S
H524 C511 0.931 . S
H525 C512 0.929 . S
H526 C520 0.929 . S
H527 C521 0.930 . S
Mn528 O533 2.095 . S
Mn528 O543 2.162 . S
Mn528 O544 2.297 . S
Mn528 O552 2.385 . S
Mn528 O553 2.209 . S
Mn528 O554 2.094 . S
Mn529 O534 2.121 . S
Mn529 N536 2.257 . S
Mn529 N545 2.282 . S
Mn529 O553 2.215 . S
Mn529 O555 2.117 . S
C530 O552 1.234 . S
C530 O553 1.283 . S
C531 O543 1.281 . S
C531 O544 1.236 . S
C532 O554 1.240 . S
C532 O555 1.264 . S
O533 Mn528 2.095 . S
O533 C542 1.250 . S
O534 Mn529 2.121 . S
O534 C542 1.258 . S
C535 N536 1.326 . S
C535 C539 1.460 . S
C535 H541 0.929 . S
N536 Mn529 2.257 . S
N536 C535 1.326 . S
N536 C540 1.362 . S
C537 C538 1.258 . S
C537 C540 1.431 . S
C537 C557 1.449 . S
C538 C537 1.258 . S
C538 C539 1.477 . S
C538 H558 0.931 . S
C539 C535 1.460 . S
C539 C538 1.477 . S
C539 H559 0.930 . S
C540 N536 1.362 . S
C540 C537 1.431 . S
C540 C550 1.476 . S
H541 C535 0.929 . S
C542 O533 1.250 . S
C542 O534 1.258 . S
O543 Mn528 2.162 . S
O543 C531 1.281 . S
O544 Mn528 2.297 . S
O544 C531 1.236 . S
N545 Mn529 2.282 . S
N545 C546 1.328 . S
N545 C550 1.318 . S
C546 N545 1.328 . S
C546 C547 1.457 . S
C546 H551 0.929 . S
C547 C546 1.457 . S
C547 C548 1.291 . S
C547 H560 0.931 . S
C548 C547 1.291 . S
C548 C549 1.373 . S
C548 H561 0.929 . S
C549 C548 1.373 . S
C549 C550 1.396 . S
C549 C556 1.403 . S
C550 C540 1.476 . S
C550 N545 1.318 . S
C550 C549 1.396 . S
H551 C546 0.929 . S
O552 Mn528 2.385 . S
O552 C530 1.234 . S
O553 Mn528 2.209 . S
O553 Mn529 2.215 . S
O553 C530 1.283 . S
O554 Mn528 2.094 . S
O554 C532 1.240 . S
O555 Mn529 2.117 . S
O555 C532 1.264 . S
C556 C549 1.403 . S
C556 C557 1.399 . S
C556 H562 0.929 . S
C557 C537 1.449 . S
C557 C556 1.399 . S
C557 H563 0.930 . S
H558 C538 0.931 . S
H559 C539 0.930 . S
H560 C547 0.931 . S
H561 C548 0.929 . S
H562 C556 0.929 . S
H563 C557 0.930 . S
Mn564 O569 2.095 . S
Mn564 O579 2.162 . S
Mn564 O580 2.297 . S
Mn564 O588 2.385 . S
Mn564 O589 2.209 . S
Mn564 O590 2.094 . S
Mn565 O570 2.121 . S
Mn565 N572 2.257 . S
Mn565 N581 2.282 . S
Mn565 O589 2.215 . S
Mn565 O591 2.117 . S
C566 O588 1.234 . S
C566 O589 1.283 . S
C567 O579 1.281 . S
C567 O580 1.236 . S
C568 O590 1.240 . S
C568 O591 1.264 . S
O569 Mn564 2.095 . S
O569 C578 1.250 . S
O570 Mn565 2.121 . S
O570 C578 1.258 . S
C571 N572 1.326 . S
C571 C575 1.460 . S
C571 H577 0.929 . S
N572 Mn565 2.257 . S
N572 C571 1.326 . S
N572 C576 1.362 . S
C573 C574 1.258 . S
C573 C576 1.431 . S
C573 C593 1.449 . S
C574 C573 1.258 . S
C574 C575 1.477 . S
C574 H594 0.931 . S
C575 C571 1.460 . S
C575 C574 1.477 . S
C575 H595 0.930 . S
C576 N572 1.362 . S
C576 C573 1.431 . S
C576 C586 1.476 . S
H577 C571 0.929 . S
C578 O569 1.250 . S
C578 O570 1.258 . S
O579 Mn564 2.162 . S
O579 C567 1.281 . S
O580 Mn564 2.297 . S
O580 C567 1.236 . S
N581 Mn565 2.282 . S
N581 C582 1.328 . S
N581 C586 1.318 . S
C582 N581 1.328 . S
C582 C583 1.457 . S
C582 H587 0.929 . S
C583 C582 1.457 . S
C583 C584 1.291 . S
C583 H596 0.931 . S
C584 C583 1.291 . S
C584 C585 1.373 . S
C584 H597 0.929 . S
C585 C584 1.373 . S
C585 C586 1.396 . S
C585 C592 1.403 . S
C586 C576 1.476 . S
C586 N581 1.318 . S
C586 C585 1.396 . S
H587 C582 0.929 . S
O588 Mn564 2.385 . S
O588 C566 1.234 . S
O589 Mn564 2.209 . S
O589 Mn565 2.215 . S
O589 C566 1.283 . S
O590 Mn564 2.094 . S
O590 C568 1.240 . S
O591 Mn565 2.117 . S
O591 C568 1.264 . S
C592 C585 1.403 . S
C592 C593 1.399 . S
C592 H598 0.929 . S
C593 C573 1.449 . S
C593 C592 1.399 . S
C593 H599 0.930 . S
H594 C574 0.931 . S
H595 C575 0.930 . S
H596 C583 0.931 . S
H597 C584 0.929 . S
H598 C592 0.929 . S
H599 C593 0.930 . S
Mn600 O605 2.095 . S
Mn600 O615 2.164 . S
Mn600 O616 2.297 1_554 S
Mn600 O624 2.385 1_554 S
Mn600 O625 2.209 1_554 S
Mn600 O626 2.094 . S
Mn601 O606 2.121 . S
Mn601 N608 2.257 1_554 S
Mn601 N617 2.282 1_554 S
Mn601 O625 2.215 1_554 S
Mn601 O627 2.117 . S
C602 O624 1.234 . S
C602 O625 1.283 . S
C603 O615 1.276 1_556 S
C603 O616 1.236 . S
C604 O626 1.240 . S
C604 O627 1.264 . S
O605 Mn600 2.095 . S
O605 C614 1.250 . S
O606 Mn601 2.121 . S
O606 C614 1.258 . S
C607 N608 1.326 1_554 S
C607 C611 1.480 . S
C607 H613 0.929 . S
N608 Mn601 2.257 1_556 S
N608 C607 1.326 1_556 S
N608 C612 1.362 . S
C609 C610 1.258 . S
C609 C612 1.431 . S
C609 C629 1.449 . S
C610 C609 1.258 . S
C610 C611 1.426 1_556 S
C610 H630 0.931 . S
C611 C607 1.480 . S
C611 C610 1.426 1_554 S
C611 H631 0.964 . S
C612 N608 1.362 . S
C612 C609 1.431 . S
C612 C622 1.476 . S
H613 C607 0.929 . S
C614 O605 1.250 . S
C614 O606 1.258 . S
O615 Mn600 2.164 . S
O615 C603 1.276 1_554 S
O616 Mn600 2.297 1_556 S
O616 C603 1.236 . S
N617 Mn601 2.282 1_556 S
N617 C618 1.328 . S
N617 C622 1.318 . S
C618 N617 1.328 . S
C618 C619 1.457 . S
C618 H623 0.929 . S
C619 C618 1.457 . S
C619 C620 1.291 . S
C619 H632 0.931 . S
C620 C619 1.291 . S
C620 C621 1.373 . S
C620 H633 0.929 . S
C621 C620 1.373 . S
C621 C622 1.396 . S
C621 C628 1.403 . S
C622 C612 1.476 . S
C622 N617 1.318 . S
C622 C621 1.396 . S
H623 C618 0.929 . S
O624 Mn600 2.385 1_556 S
O624 C602 1.234 . S
O625 Mn600 2.209 1_556 S
O625 Mn601 2.215 1_556 S
O625 C602 1.283 . S
O626 Mn600 2.094 . S
O626 C604 1.240 . S
O627 Mn601 2.117 . S
O627 C604 1.264 . S
C628 C621 1.403 . S
C628 C629 1.399 . S
C628 H634 0.929 . S
C629 C609 1.449 . S
C629 C628 1.399 . S
C629 H635 0.930 . S
H630 C610 0.931 . S
H631 C611 0.964 . S
H632 C619 0.931 . S
H633 C620 0.929 . S
H634 C628 0.929 . S
H635 C629 0.930 . S
Mn636 O641 2.095 . S
Mn636 O651 2.162 . S
Mn636 O652 2.297 . S
Mn636 O660 2.385 . S
Mn636 O661 2.209 . S
Mn636 O662 2.094 . S
Mn637 O642 2.121 . S
Mn637 N644 2.257 . S
Mn637 N653 2.282 . S
Mn637 O661 2.215 . S
Mn637 O663 2.117 . S
C638 O660 1.234 . S
C638 O661 1.283 . S
C639 O651 1.281 . S
C639 O652 1.236 . S
C640 O662 1.240 . S
C640 O663 1.264 . S
O641 Mn636 2.095 . S
O641 C650 1.250 . S
O642 Mn637 2.121 . S
O642 C650 1.258 . S
C643 N644 1.326 . S
C643 C647 1.460 . S
C643 H649 0.929 . S
N644 Mn637 2.257 . S
N644 C643 1.326 . S
N644 C648 1.362 . S
C645 C646 1.258 . S
C645 C648 1.431 . S
C645 C665 1.449 . S
C646 C645 1.258 . S
C646 C647 1.477 . S
C646 H666 0.931 . S
C647 C643 1.460 . S
C647 C646 1.477 . S
C647 H667 0.930 . S
C648 N644 1.362 . S
C648 C645 1.431 . S
C648 C658 1.476 . S
H649 C643 0.929 . S
C650 O641 1.250 . S
C650 O642 1.258 . S
O651 Mn636 2.162 . S
O651 C639 1.281 . S
O652 Mn636 2.297 . S
O652 C639 1.236 . S
N653 Mn637 2.282 . S
N653 C654 1.328 . S
N653 C658 1.318 . S
C654 N653 1.328 . S
C654 C655 1.457 . S
C654 H659 0.929 . S
C655 C654 1.457 . S
C655 C656 1.291 . S
C655 H668 0.931 . S
C656 C655 1.291 . S
C656 C657 1.373 . S
C656 H669 0.929 . S
C657 C656 1.373 . S
C657 C658 1.396 . S
C657 C664 1.403 . S
C658 C648 1.476 . S
C658 N653 1.318 . S
C658 C657 1.396 . S
H659 C654 0.929 . S
O660 Mn636 2.385 . S
O660 C638 1.234 . S
O661 Mn636 2.209 . S
O661 Mn637 2.215 . S
O661 C638 1.283 . S
O662 Mn636 2.094 . S
O662 C640 1.240 . S
O663 Mn637 2.117 . S
O663 C640 1.264 . S
C664 C657 1.403 . S
C664 C665 1.399 . S
C664 H670 0.929 . S
C665 C645 1.449 . S
C665 C664 1.399 . S
C665 H671 0.930 . S
H666 C646 0.931 . S
H667 C647 0.930 . S
H668 C655 0.931 . S
H669 C656 0.929 . S
H670 C664 0.929 . S
H671 C665 0.930 . S
C672 C673 1.391 . S
C672 C674 1.394 . S
C672 H688 0.931 . S
C673 C672 1.391 . S
C673 C677 1.376 . S
C674 C672 1.394 . S
C674 C675 1.369 . S
C674 C678 1.531 . S
C675 C674 1.369 . S
C675 C676 1.410 . S
C675 C683 1.503 . S
C676 C675 1.410 . S
C676 C677 1.392 . S
C676 C679 1.511 . S
C677 C673 1.376 . S
C677 C676 1.392 . S
C677 H689 0.929 . S
C678 C674 1.531 . S
C678 H690 0.960 . S
C678 H691 0.962 . S
C678 H692 0.960 . S
C679 C676 1.511 . S
C679 H693 0.961 . S
C679 H694 0.961 . S
C679 H695 0.961 . S
C680 C681 1.370 . S
C680 C682 1.363 . S
C680 H696 0.931 . S
C681 C680 1.370 . S
C681 C685 1.408 . S
C682 C680 1.363 . S
C682 C683 1.370 . S
C682 C686 1.524 . S
C683 C675 1.503 . S
C683 C682 1.370 . S
C683 C684 1.403 . S
C684 C683 1.403 . S
C684 C685 1.404 . S
C684 C687 1.539 . S
C685 C681 1.408 . S
C685 C684 1.404 . S
C685 H697 0.930 . S
C686 C682 1.524 . S
C686 H698 0.956 . S
C686 H699 0.961 . S
C686 H700 0.961 . S
C687 C684 1.539 . S
C687 H701 0.958 . S
C687 H702 0.961 . S
C687 H703 0.960 . S
H688 C672 0.931 . S
H689 C677 0.929 . S
H690 C678 0.960 . S
H691 C678 0.962 . S
H692 C678 0.960 . S
H693 C679 0.961 . S
H694 C679 0.961 . S
H695 C679 0.961 . S
H696 C680 0.931 . S
H697 C685 0.930 . S
H698 C686 0.956 . S
H699 C686 0.961 . S
H700 C686 0.961 . S
H701 C687 0.958 . S
H702 C687 0.961 . S
H703 C687 0.960 . S
C704 C705 1.391 . S
C704 C706 1.394 . S
C704 H720 0.931 . S
C705 C704 1.391 . S
C705 C709 1.376 . S
C706 C704 1.394 . S
C706 C707 1.369 . S
C706 C710 1.531 . S
C707 C706 1.369 . S
C707 C708 1.410 . S
C707 C715 1.503 . S
C708 C707 1.410 . S
C708 C709 1.392 . S
C708 C711 1.511 . S
C709 C705 1.376 . S
C709 C708 1.392 . S
C709 H721 0.929 . S
C710 C706 1.531 . S
C710 H722 0.960 . S
C710 H723 0.962 . S
C710 H724 0.960 . S
C711 C708 1.511 . S
C711 H725 0.961 . S
C711 H726 0.961 . S
C711 H727 0.961 . S
C712 C713 1.370 . S
C712 C714 1.363 . S
C712 H728 0.931 . S
C713 C712 1.370 . S
C713 C717 1.408 . S
C714 C712 1.363 . S
C714 C715 1.370 . S
C714 C718 1.524 . S
C715 C707 1.503 . S
C715 C714 1.370 . S
C715 C716 1.403 . S
C716 C715 1.403 . S
C716 C717 1.404 . S
C716 C719 1.539 . S
C717 C713 1.408 . S
C717 C716 1.404 . S
C717 H729 0.930 . S
C718 C714 1.524 . S
C718 H730 0.956 . S
C718 H731 0.961 . S
C718 H732 0.961 . S
C719 C716 1.539 . S
C719 H733 0.958 . S
C719 H734 0.961 . S
C719 H735 0.960 . S
H720 C704 0.931 . S
H721 C709 0.929 . S
H722 C710 0.960 . S
H723 C710 0.962 . S
H724 C710 0.960 . S
H725 C711 0.961 . S
H726 C711 0.961 . S
H727 C711 0.961 . S
H728 C712 0.931 . S
H729 C717 0.930 . S
H730 C718 0.956 . S
H731 C718 0.961 . S
H732 C718 0.961 . S
H733 C719 0.958 . S
H734 C719 0.961 . S
H735 C719 0.960 . S
C736 C737 1.391 . S
C736 C738 1.394 . S
C736 H752 0.931 . S
C737 C736 1.391 . S
C737 C741 1.376 . S
C738 C736 1.394 . S
C738 C739 1.369 . S
C738 C742 1.531 . S
C739 C738 1.369 . S
C739 C740 1.410 . S
C739 C747 1.503 . S
C740 C739 1.410 . S
C740 C741 1.392 . S
C740 C743 1.511 . S
C741 C737 1.376 . S
C741 C740 1.392 . S
C741 H753 0.929 . S
C742 C738 1.531 . S
C742 H754 0.960 . S
C742 H755 0.962 . S
C742 H756 0.960 . S
C743 C740 1.511 . S
C743 H757 0.961 . S
C743 H758 0.961 . S
C743 H759 0.961 . S
C744 C745 1.370 . S
C744 C746 1.363 . S
C744 H760 0.931 . S
C745 C744 1.370 . S
C745 C749 1.408 . S
C746 C744 1.363 . S
C746 C747 1.370 . S
C746 C750 1.524 . S
C747 C739 1.503 . S
C747 C746 1.370 . S
C747 C748 1.403 . S
C748 C747 1.403 . S
C748 C749 1.404 . S
C748 C751 1.539 . S
C749 C745 1.408 . S
C749 C748 1.404 . S
C749 H761 0.930 . S
C750 C746 1.524 . S
C750 H762 0.956 . S
C750 H763 0.961 . S
C750 H764 0.961 . S
C751 C748 1.539 . S
C751 H765 0.958 . S
C751 H766 0.961 . S
C751 H767 0.960 . S
H752 C736 0.931 . S
H753 C741 0.929 . S
H754 C742 0.960 . S
H755 C742 0.962 . S
H756 C742 0.960 . S
H757 C743 0.961 . S
H758 C743 0.961 . S
H759 C743 0.961 . S
H760 C744 0.931 . S
H761 C749 0.930 . S
H762 C750 0.956 . S
H763 C750 0.961 . S
H764 C750 0.961 . S
H765 C751 0.958 . S
H766 C751 0.961 . S
H767 C751 0.960 . S
C768 C769 1.391 . S
C768 C770 1.394 . S
C768 H784 0.931 . S
C769 C768 1.391 . S
C769 C773 1.376 . S
C770 C768 1.394 . S
C770 C771 1.369 . S
C770 C774 1.531 . S
C771 C770 1.369 . S
C771 C772 1.410 . S
C771 C779 1.503 . S
C772 C771 1.410 . S
C772 C773 1.392 . S
C772 C775 1.511 . S
C773 C769 1.376 . S
C773 C772 1.392 . S
C773 H785 0.929 . S
C774 C770 1.531 . S
C774 H786 0.960 . S
C774 H787 0.962 . S
C774 H788 0.960 . S
C775 C772 1.511 . S
C775 H789 0.961 1_554 S
C775 H790 0.961 1_554 S
C775 H791 0.961 . S
C776 C777 1.370 . S
C776 C778 1.363 . S
C776 H792 0.931 1_554 S
C777 C776 1.370 . S
C777 C781 1.408 . S
C778 C776 1.363 . S
C778 C779 1.370 . S
C778 C782 1.524 1_554 S
C779 C771 1.503 . S
C779 C778 1.370 . S
C779 C780 1.403 . S
C780 C779 1.403 . S
C780 C781 1.404 . S
C780 C783 1.539 . S
C781 C777 1.408 . S
C781 C780 1.404 . S
C781 H793 0.930 . S
C782 C778 1.524 1_556 S
C782 H794 0.956 1_556 S
C782 H795 0.961 . S
C782 H796 0.961 . S
C783 C780 1.539 . S
C783 H797 0.958 . S
C783 H798 0.961 . S
C783 H799 0.960 . S
H784 C768 0.931 . S
H785 C773 0.929 . S
H786 C774 0.960 . S
H787 C774 0.962 . S
H788 C774 0.960 . S
H789 C775 0.961 1_556 S
H790 C775 0.961 1_556 S
H791 C775 0.961 . S
H792 C776 0.931 1_556 S
H793 C781 0.930 . S
H794 C782 0.956 1_554 S
H795 C782 0.961 . S
H796 C782 0.961 . S
H797 C783 0.958 . S
H798 C783 0.961 . S
H799 C783 0.960 . S
C800 C801 1.391 . S
C800 C802 1.394 . S
C800 H816 0.931 . S
C801 C800 1.391 . S
C801 C805 1.376 . S
C802 C800 1.394 . S
C802 C803 1.369 . S
C802 C806 1.531 . S
C803 C802 1.369 . S
C803 C804 1.410 . S
C803 C811 1.503 . S
C804 C803 1.410 . S
C804 C805 1.392 . S
C804 C807 1.511 . S
C805 C801 1.376 . S
C805 C804 1.392 . S
C805 H817 0.929 . S
C806 C802 1.531 . S
C806 H818 0.960 . S
C806 H819 0.962 . S
C806 H820 0.960 . S
C807 C804 1.511 . S
C807 H821 0.961 1_556 S
C807 H822 0.961 1_556 S
C807 H823 0.961 . S
C808 C809 1.370 1_554 S
C808 C810 1.363 1_554 S
C808 H824 0.931 . S
C809 C808 1.370 1_556 S
C809 C813 1.408 . S
C810 C808 1.363 1_556 S
C810 C811 1.370 . S
C810 C814 1.524 1_556 S
C811 C803 1.503 . S
C811 C810 1.370 . S
C811 C812 1.403 . S
C812 C811 1.403 . S
C812 C813 1.404 . S
C812 C815 1.539 . S
C813 C809 1.408 . S
C813 C812 1.404 . S
C813 H825 0.930 . S
C814 C810 1.524 1_554 S
C814 H826 0.956 . S
C814 H827 0.961 . S
C814 H828 0.961 . S
C815 C812 1.539 . S
C815 H829 0.958 . S
C815 H830 0.961 . S
C815 H831 0.960 . S
H816 C800 0.931 . S
H817 C805 0.929 . S
H818 C806 0.960 . S
H819 C806 0.962 . S
H820 C806 0.960 . S
H821 C807 0.961 1_554 S
H822 C807 0.961 1_554 S
H823 C807 0.961 . S
H824 C808 0.931 . S
H825 C813 0.930 . S
H826 C814 0.956 . S
H827 C814 0.961 . S
H828 C814 0.961 . S
H829 C815 0.958 . S
H830 C815 0.961 . S
H831 C815 0.960 . S
C832 C833 1.391 . S
C832 C834 1.394 . S
C832 H848 0.931 . S
C833 C832 1.391 . S
C833 C837 1.376 . S
C834 C832 1.394 . S
C834 C835 1.369 . S
C834 C838 1.531 . S
C835 C834 1.369 . S
C835 C836 1.410 . S
C835 C843 1.503 . S
C836 C835 1.410 . S
C836 C837 1.392 . S
C836 C839 1.511 . S
C837 C833 1.376 . S
C837 C836 1.392 . S
C837 H849 0.929 . S
C838 C834 1.531 . S
C838 H850 0.960 . S
C838 H851 0.962 . S
C838 H852 0.960 . S
C839 C836 1.511 . S
C839 H853 0.961 . S
C839 H854 0.961 . S
C839 H855 0.961 . S
C840 C841 1.370 . S
C840 C842 1.363 . S
C840 H856 0.931 . S
C841 C840 1.370 . S
C841 C845 1.408 . S
C842 C840 1.363 . S
C842 C843 1.370 . S
C842 C846 1.524 . S
C843 C835 1.503 . S
C843 C842 1.370 . S
C843 C844 1.403 . S
C844 C843 1.403 . S
C844 C845 1.404 . S
C844 C847 1.539 . S
C845 C841 1.408 . S
C845 C844 1.404 . S
C845 H857 0.930 . S
C846 C842 1.524 . S
C846 H858 0.956 . S
C846 H859 0.961 . S
C846 H860 0.961 . S
C847 C844 1.539 . S
C847 H861 0.958 . S
C847 H862 0.961 . S
C847 H863 0.960 . S
H848 C832 0.931 . S
H849 C837 0.929 . S
H850 C838 0.960 . S
H851 C838 0.962 . S
H852 C838 0.960 . S
H853 C839 0.961 . S
H854 C839 0.961 . S
H855 C839 0.961 . S
H856 C840 0.931 . S
H857 C845 0.930 . S
H858 C846 0.956 . S
H859 C846 0.961 . S
H860 C846 0.961 . S
H861 C847 0.958 . S
H862 C847 0.961 . S
H863 C847 0.960 . S
C864 C865 1.391 . S
C864 C866 1.394 . S
C864 H880 0.931 . S
C865 C864 1.391 . S
C865 C869 1.376 . S
C866 C864 1.394 . S
C866 C867 1.369 . S
C866 C870 1.531 . S
C867 C866 1.369 . S
C867 C868 1.410 . S
C867 C875 1.503 . S
C868 C867 1.410 . S
C868 C869 1.392 . S
C868 C871 1.511 . S
C869 C865 1.376 . S
C869 C868 1.392 . S
C869 H881 0.929 . S
C870 C866 1.531 . S
C870 H882 0.960 . S
C870 H883 0.962 . S
C870 H884 0.960 . S
C871 C868 1.511 . S
C871 H885 0.961 . S
C871 H886 0.961 . S
C871 H887 0.961 . S
C872 C873 1.370 . S
C872 C874 1.363 . S
C872 H888 0.931 . S
C873 C872 1.370 . S
C873 C877 1.408 . S
C874 C872 1.363 . S
C874 C875 1.370 . S
C874 C878 1.524 . S
C875 C867 1.503 . S
C875 C874 1.370 . S
C875 C876 1.403 . S
C876 C875 1.403 . S
C876 C877 1.404 . S
C876 C879 1.539 . S
C877 C873 1.408 . S
C877 C876 1.404 . S
C877 H889 0.930 . S
C878 C874 1.524 . S
C878 H890 0.956 . S
C878 H891 0.961 . S
C878 H892 0.961 . S
C879 C876 1.539 . S
C879 H893 0.958 . S
C879 H894 0.961 . S
C879 H895 0.960 . S
H880 C864 0.931 . S
H881 C869 0.929 . S
H882 C870 0.960 . S
H883 C870 0.962 . S
H884 C870 0.960 . S
H885 C871 0.961 . S
H886 C871 0.961 . S
H887 C871 0.961 . S
H888 C872 0.931 . S
H889 C877 0.930 . S
H890 C878 0.956 . S
H891 C878 0.961 . S
H892 C878 0.961 . S
H893 C879 0.958 . S
H894 C879 0.961 . S
H895 C879 0.960 . S
C896 C897 1.391 . S
C896 C898 1.394 . S
C896 H912 0.931 . S
C897 C896 1.391 . S
C897 C901 1.376 . S
C898 C896 1.394 . S
C898 C899 1.369 . S
C898 C902 1.531 . S
C899 C898 1.369 . S
C899 C900 1.410 . S
C899 C907 1.503 . S
C900 C899 1.410 . S
C900 C901 1.392 . S
C900 C903 1.511 . S
C901 C897 1.376 . S
C901 C900 1.392 . S
C901 H913 0.929 . S
C902 C898 1.531 . S
C902 H914 0.960 . S
C902 H915 0.962 . S
C902 H916 0.960 . S
C903 C900 1.511 . S
C903 H917 0.961 . S
C903 H918 0.961 . S
C903 H919 0.961 . S
C904 C905 1.370 . S
C904 C906 1.363 . S
C904 H920 0.931 . S
C905 C904 1.370 . S
C905 C909 1.408 . S
C906 C904 1.363 . S
C906 C907 1.370 . S
C906 C910 1.524 . S
C907 C899 1.503 . S
C907 C906 1.370 . S
C907 C908 1.403 . S
C908 C907 1.403 . S
C908 C909 1.404 . S
C908 C911 1.539 . S
C909 C905 1.408 . S
C909 C908 1.404 . S
C909 H921 0.930 . S
C910 C906 1.524 . S
C910 H922 0.956 . S
C910 H923 0.961 . S
C910 H924 0.961 . S
C911 C908 1.539 . S
C911 H925 0.958 . S
C911 H926 0.961 . S
C911 H927 0.960 . S
H912 C896 0.931 . S
H913 C901 0.929 . S
H914 C902 0.960 . S
H915 C902 0.962 . S
H916 C902 0.960 . S
H917 C903 0.961 . S
H918 C903 0.961 . S
H919 C903 0.961 . S
H920 C904 0.931 . S
H921 C909 0.930 . S
H922 C910 0.956 . S
H923 C910 0.961 . S
H924 C910 0.961 . S
H925 C911 0.958 . S
H926 C911 0.961 . S
H927 C911 0.960 . S
C928 C929 1.391 . S
C928 C930 1.394 . S
C928 H944 0.931 . S
C929 C928 1.391 . S
C929 C933 1.376 . S
C930 C928 1.394 . S
C930 C931 1.369 . S
C930 C934 1.531 . S
C931 C930 1.369 . S
C931 C932 1.410 . S
C931 C939 1.503 . S
C932 C931 1.410 . S
C932 C933 1.392 . S
C932 C935 1.511 . S
C933 C929 1.376 . S
C933 C932 1.392 . S
C933 H945 0.929 . S
C934 C930 1.531 . S
C934 H946 0.960 . S
C934 H947 0.962 . S
C934 H948 0.960 . S
C935 C932 1.511 . S
C935 H949 0.961 . S
C935 H950 0.961 . S
C935 H951 0.961 . S
C936 C937 1.370 . S
C936 C938 1.363 . S
C936 H952 0.931 . S
C937 C936 1.370 . S
C937 C941 1.408 . S
C938 C936 1.363 . S
C938 C939 1.370 . S
C938 C942 1.524 . S
C939 C931 1.503 . S
C939 C938 1.370 . S
C939 C940 1.403 . S
C940 C939 1.403 . S
C940 C941 1.404 . S
C940 C943 1.539 . S
C941 C937 1.408 . S
C941 C940 1.404 . S
C941 H953 0.930 . S
C942 C938 1.524 . S
C942 H954 0.956 . S
C942 H955 0.961 . S
C942 H956 0.961 . S
C943 C940 1.539 . S
C943 H957 0.958 . S
C943 H958 0.961 . S
C943 H959 0.960 . S
H944 C928 0.931 . S
H945 C933 0.929 . S
H946 C934 0.960 . S
H947 C934 0.962 . S
H948 C934 0.960 . S
H949 C935 0.961 . S
H950 C935 0.961 . S
H951 C935 0.961 . S
H952 C936 0.931 . S
H953 C941 0.930 . S
H954 C942 0.956 . S
H955 C942 0.961 . S
H956 C942 0.961 . S
H957 C943 0.958 . S
H958 C943 0.961 . S
H959 C943 0.960 . S
C960 C961 1.391 . S
C960 C962 1.394 . S
C960 H976 0.931 . S
C961 C960 1.391 . S
C961 C965 1.376 . S
C962 C960 1.394 . S
C962 C963 1.369 . S
C962 C966 1.531 . S
C963 C962 1.369 . S
C963 C964 1.410 . S
C963 C971 1.503 . S
C964 C963 1.410 . S
C964 C965 1.392 . S
C964 C967 1.511 . S
C965 C961 1.376 . S
C965 C964 1.392 . S
C965 H977 0.929 . S
C966 C962 1.531 . S
C966 H978 0.960 . S
C966 H979 0.962 . S
C966 H980 0.960 . S
C967 C964 1.511 . S
C967 H981 0.961 . S
C967 H982 0.961 . S
C967 H983 0.961 . S
C968 C969 1.370 . S
C968 C970 1.363 . S
C968 H984 0.931 1_554 S
C969 C968 1.370 . S
C969 C973 1.408 . S
C970 C968 1.363 . S
C970 C971 1.370 . S
C970 C974 1.524 1_554 S
C971 C963 1.503 . S
C971 C970 1.370 . S
C971 C972 1.403 . S
C972 C971 1.403 . S
C972 C973 1.404 . S
C972 C975 1.539 . S
C973 C969 1.408 . S
C973 C972 1.404 . S
C973 H985 0.930 . S
C974 C970 1.524 1_556 S
C974 H986 0.956 . S
C974 H987 0.961 . S
C974 H988 0.961 . S
C975 C972 1.539 . S
C975 H989 0.958 . S
C975 H990 0.961 . S
C975 H991 0.960 . S
H976 C960 0.931 . S
H977 C965 0.929 . S
H978 C966 0.960 . S
H979 C966 0.962 . S
H980 C966 0.960 . S
H981 C967 0.961 . S
H982 C967 0.961 . S
H983 C967 0.961 . S
H984 C968 0.931 1_556 S
H985 C973 0.930 . S
H986 C974 0.956 . S
H987 C974 0.961 . S
H988 C974 0.961 . S
H989 C975 0.958 . S
H990 C975 0.961 . S
H991 C975 0.960 . S
C992 C993 1.391 . S
C992 C994 1.394 . S
C992 H1008 0.931 . S
C993 C992 1.391 . S
C993 C997 1.376 . S
C994 C992 1.394 . S
C994 C995 1.369 . S
C994 C998 1.531 . S
C995 C994 1.369 . S
C995 C996 1.410 . S
C995 C1003 1.503 . S
C996 C995 1.410 . S
C996 C997 1.392 . S
C996 C999 1.511 . S
C997 C993 1.376 . S
C997 C996 1.392 . S
C997 H1009 0.929 . S
C998 C994 1.531 . S
C998 H1010 0.960 . S
C998 H1011 0.962 . S
C998 H1012 0.960 . S
C999 C996 1.511 . S
C999 H1013 0.961 . S
C999 H1014 0.961 . S
C999 H1015 0.961 . S
C1000 C1001 1.370 . S
C1000 C1002 1.363 . S
C1000 H1016 0.931 . S
C1001 C1000 1.370 . S
C1001 C1005 1.408 . S
C1002 C1000 1.363 . S
C1002 C1003 1.370 . S
C1002 C1006 1.524 . S
C1003 C995 1.503 . S
C1003 C1002 1.370 . S
C1003 C1004 1.403 . S
C1004 C1003 1.403 . S
C1004 C1005 1.404 . S
C1004 C1007 1.539 . S
C1005 C1001 1.408 . S
C1005 C1004 1.404 . S
C1005 H1017 0.930 . S
C1006 C1002 1.524 . S
C1006 H1018 0.956 . S
C1006 H1019 0.961 . S
C1006 H1020 0.961 . S
C1007 C1004 1.539 . S
C1007 H1021 0.958 . S
C1007 H1022 0.961 . S
C1007 H1023 0.960 . S
H1008 C992 0.931 . S
H1009 C997 0.929 . S
H1010 C998 0.960 . S
H1011 C998 0.962 . S
H1012 C998 0.960 . S
H1013 C999 0.961 . S
H1014 C999 0.961 . S
H1015 C999 0.961 . S
H1016 C1000 0.931 . S
H1017 C1005 0.930 . S
H1018 C1006 0.956 . S
H1019 C1006 0.961 . S
H1020 C1006 0.961 . S
H1021 C1007 0.958 . S
H1022 C1007 0.961 . S
H1023 C1007 0.960 . S
C1024 C1025 1.391 . S
C1024 C1026 1.394 . S
C1024 H1040 0.931 . S
C1025 C1024 1.391 . S
C1025 C1029 1.376 . S
C1026 C1024 1.394 . S
C1026 C1027 1.369 . S
C1026 C1030 1.531 . S
C1027 C1026 1.369 . S
C1027 C1028 1.410 . S
C1027 C1035 1.503 . S
C1028 C1027 1.410 . S
C1028 C1029 1.392 . S
C1028 C1031 1.511 . S
C1029 C1025 1.376 . S
C1029 C1028 1.392 . S
C1029 H1041 0.929 . S
C1030 C1026 1.531 . S
C1030 H1042 0.960 . S
C1030 H1043 0.962 . S
C1030 H1044 0.960 . S
C1031 C1028 1.511 . S
C1031 H1045 0.961 . S
C1031 H1046 0.961 . S
C1031 H1047 0.961 . S
C1032 C1033 1.370 . S
C1032 C1034 1.363 . S
C1032 H1048 0.931 . S
C1033 C1032 1.370 . S
C1033 C1037 1.408 . S
C1034 C1032 1.363 . S
C1034 C1035 1.370 . S
C1034 C1038 1.524 . S
C1035 C1027 1.503 . S
C1035 C1034 1.370 . S
C1035 C1036 1.403 . S
C1036 C1035 1.403 . S
C1036 C1037 1.404 . S
C1036 C1039 1.539 . S
C1037 C1033 1.408 . S
C1037 C1036 1.404 . S
C1037 H1049 0.930 . S
C1038 C1034 1.524 . S
C1038 H1050 0.956 . S
C1038 H1051 0.961 . S
C1038 H1052 0.961 . S
C1039 C1036 1.539 . S
C1039 H1053 0.958 . S
C1039 H1054 0.961 . S
C1039 H1055 0.960 . S
H1040 C1024 0.931 . S
H1041 C1029 0.929 . S
H1042 C1030 0.960 . S
H1043 C1030 0.962 . S
H1044 C1030 0.960 . S
H1045 C1031 0.961 . S
H1046 C1031 0.961 . S
H1047 C1031 0.961 . S
H1048 C1032 0.931 . S
H1049 C1037 0.930 . S
H1050 C1038 0.956 . S
H1051 C1038 0.961 . S
H1052 C1038 0.961 . S
H1053 C1039 0.958 . S
H1054 C1039 0.961 . S
H1055 C1039 0.960 . S
C1056 C1057 1.391 . S
C1056 C1058 1.394 . S
C1056 H1072 0.931 . S
C1057 C1056 1.391 . S
C1057 C1061 1.376 . S
C1058 C1056 1.394 . S
C1058 C1059 1.369 . S
C1058 C1062 1.531 . S
C1059 C1058 1.369 . S
C1059 C1060 1.410 . S
C1059 C1067 1.503 . S
C1060 C1059 1.410 . S
C1060 C1061 1.392 . S
C1060 C1063 1.511 . S
C1061 C1057 1.376 . S
C1061 C1060 1.392 . S
C1061 H1073 0.929 . S
C1062 C1058 1.531 . S
C1062 H1074 0.960 . S
C1062 H1075 0.962 . S
C1062 H1076 0.960 . S
C1063 C1060 1.511 . S
C1063 H1077 0.961 . S
C1063 H1078 0.961 . S
C1063 H1079 0.961 . S
C1064 C1065 1.370 . S
C1064 C1066 1.363 . S
C1064 H1080 0.931 . S
C1065 C1064 1.370 . S
C1065 C1069 1.408 . S
C1066 C1064 1.363 . S
C1066 C1067 1.370 . S
C1066 C1070 1.524 . S
C1067 C1059 1.503 . S
C1067 C1066 1.370 . S
C1067 C1068 1.403 . S
C1068 C1067 1.403 . S
C1068 C1069 1.404 . S
C1068 C1071 1.539 . S
C1069 C1065 1.408 . S
C1069 C1068 1.404 . S
C1069 H1081 0.930 . S
C1070 C1066 1.524 . S
C1070 H1082 0.956 . S
C1070 H1083 0.961 . S
C1070 H1084 0.961 . S
C1071 C1068 1.539 . S
C1071 H1085 0.958 . S
C1071 H1086 0.961 . S
C1071 H1087 0.960 . S
H1072 C1056 0.931 . S
H1073 C1061 0.929 . S
H1074 C1062 0.960 . S
H1075 C1062 0.962 . S
H1076 C1062 0.960 . S
H1077 C1063 0.961 . S
H1078 C1063 0.961 . S
H1079 C1063 0.961 . S
H1080 C1064 0.931 . S
H1081 C1069 0.930 . S
H1082 C1070 0.956 . S
H1083 C1070 0.961 . S
H1084 C1070 0.961 . S
H1085 C1071 0.958 . S
H1086 C1071 0.961 . S
H1087 C1071 0.960 . S
C1088 C1089 1.391 . S
C1088 C1090 1.394 . S
C1088 H1104 0.931 . S
C1089 C1088 1.391 . S
C1089 C1093 1.376 . S
C1090 C1088 1.394 . S
C1090 C1091 1.369 . S
C1090 C1094 1.531 . S
C1091 C1090 1.369 . S
C1091 C1092 1.410 . S
C1091 C1099 1.503 . S
C1092 C1091 1.410 . S
C1092 C1093 1.392 . S
C1092 C1095 1.511 . S
C1093 C1089 1.376 . S
C1093 C1092 1.392 . S
C1093 H1105 0.929 . S
C1094 C1090 1.531 . S
C1094 H1106 0.960 . S
C1094 H1107 0.962 . S
C1094 H1108 0.960 . S
C1095 C1092 1.511 . S
C1095 H1109 0.961 . S
C1095 H1110 0.961 . S
C1095 H1111 0.961 . S
C1096 C1097 1.370 . S
C1096 C1098 1.363 . S
C1096 H1112 0.931 . S
C1097 C1096 1.370 . S
C1097 C1101 1.408 . S
C1098 C1096 1.363 . S
C1098 C1099 1.370 . S
C1098 C1102 1.524 . S
C1099 C1091 1.503 . S
C1099 C1098 1.370 . S
C1099 C1100 1.403 . S
C1100 C1099 1.403 . S
C1100 C1101 1.404 . S
C1100 C1103 1.539 . S
C1101 C1097 1.408 . S
C1101 C1100 1.404 . S
C1101 H1113 0.930 . S
C1102 C1098 1.524 . S
C1102 H1114 0.956 . S
C1102 H1115 0.961 . S
C1102 H1116 0.961 . S
C1103 C1100 1.539 . S
C1103 H1117 0.958 . S
C1103 H1118 0.961 . S
C1103 H1119 0.960 . S
H1104 C1088 0.931 . S
H1105 C1093 0.929 . S
H1106 C1094 0.960 . S
H1107 C1094 0.962 . S
H1108 C1094 0.960 . S
H1109 C1095 0.961 . S
H1110 C1095 0.961 . S
H1111 C1095 0.961 . S
H1112 C1096 0.931 . S
H1113 C1101 0.930 . S
H1114 C1102 0.956 . S
H1115 C1102 0.961 . S
H1116 C1102 0.961 . S
H1117 C1103 0.958 . S
H1118 C1103 0.961 . S
H1119 C1103 0.960 . S
C1120 C1121 1.391 . S
C1120 C1122 1.394 . S
C1120 H1136 0.931 1_556 S
C1121 C1120 1.391 . S
C1121 C1125 1.376 . S
C1122 C1120 1.394 . S
C1122 C1123 1.369 . S
C1122 C1126 1.531 1_556 S
C1123 C1122 1.369 . S
C1123 C1124 1.410 . S
C1123 C1131 1.503 . S
C1124 C1123 1.410 . S
C1124 C1125 1.392 . S
C1124 C1127 1.511 . S
C1125 C1121 1.376 . S
C1125 C1124 1.392 . S
C1125 H1137 0.929 . S
C1126 C1122 1.531 1_554 S
C1126 H1138 0.960 . S
C1126 H1139 0.962 . S
C1126 H1140 0.960 . S
C1127 C1124 1.511 . S
C1127 H1141 0.961 . S
C1127 H1142 0.961 . S
C1127 H1143 0.961 . S
C1128 C1129 1.370 . S
C1128 C1130 1.363 . S
C1128 H1144 0.931 . S
C1129 C1128 1.370 . S
C1129 C1133 1.408 . S
C1130 C1128 1.363 . S
C1130 C1131 1.370 . S
C1130 C1134 1.524 . S
C1131 C1123 1.503 . S
C1131 C1130 1.370 . S
C1131 C1132 1.403 . S
C1132 C1131 1.403 . S
C1132 C1133 1.404 . S
C1132 C1135 1.539 . S
C1133 C1129 1.408 . S
C1133 C1132 1.404 . S
C1133 H1145 0.930 . S
C1134 C1130 1.524 . S
C1134 H1146 0.956 . S
C1134 H1147 0.961 . S
C1134 H1148 0.961 . S
C1135 C1132 1.539 . S
C1135 H1149 0.952 . S
C1135 H1150 0.961 . S
C1135 H1151 0.960 . S
H1136 C1120 0.931 1_554 S
H1137 C1125 0.929 . S
H1138 C1126 0.960 . S
H1139 C1126 0.962 . S
H1140 C1126 0.960 . S
H1141 C1127 0.961 . S
H1142 C1127 0.961 . S
H1143 C1127 0.961 . S
H1144 C1128 0.931 . S
H1145 C1133 0.930 . S
H1146 C1134 0.956 . S
H1147 C1134 0.961 . S
H1148 C1134 0.961 . S
H1149 C1135 0.952 . S
H1150 C1135 0.961 . S
H1151 C1135 0.960 . S
C1152 C1153 1.391 . S
C1152 C1154 1.394 . S
C1152 H1168 0.931 . S
C1153 C1152 1.391 . S
C1153 C1157 1.376 . S
C1154 C1152 1.394 . S
C1154 C1155 1.369 . S
C1154 C1158 1.531 . S
C1155 C1154 1.369 . S
C1155 C1156 1.410 . S
C1155 C1163 1.503 . S
C1156 C1155 1.410 . S
C1156 C1157 1.392 . S
C1156 C1159 1.511 . S
C1157 C1153 1.376 . S
C1157 C1156 1.392 . S
C1157 H1169 0.929 . S
C1158 C1154 1.531 . S
C1158 H1170 0.960 . S
C1158 H1171 0.962 . S
C1158 H1172 0.960 . S
C1159 C1156 1.511 . S
C1159 H1173 0.961 . S
C1159 H1174 0.961 . S
C1159 H1175 0.961 . S
C1160 C1161 1.370 . S
C1160 C1162 1.363 . S
C1160 H1176 0.931 . S
C1161 C1160 1.370 . S
C1161 C1165 1.408 . S
C1162 C1160 1.363 . S
C1162 C1163 1.370 . S
C1162 C1166 1.524 . S
C1163 C1155 1.503 . S
C1163 C1162 1.370 . S
C1163 C1164 1.403 . S
C1164 C1163 1.403 . S
C1164 C1165 1.404 . S
C1164 C1167 1.539 . S
C1165 C1161 1.408 . S
C1165 C1164 1.404 . S
C1165 H1177 0.930 . S
C1166 C1162 1.524 . S
C1166 H1178 0.956 . S
C1166 H1179 0.961 . S
C1166 H1180 0.961 . S
C1167 C1164 1.539 . S
C1167 H1181 0.958 . S
C1167 H1182 0.961 . S
C1167 H1183 0.960 . S
H1168 C1152 0.931 . S
H1169 C1157 0.929 . S
H1170 C1158 0.960 . S
H1171 C1158 0.962 . S
H1172 C1158 0.960 . S
H1173 C1159 0.961 . S
H1174 C1159 0.961 . S
H1175 C1159 0.961 . S
H1176 C1160 0.931 . S
H1177 C1165 0.930 . S
H1178 C1166 0.956 . S
H1179 C1166 0.961 . S
H1180 C1166 0.961 . S
H1181 C1167 0.958 . S
H1182 C1167 0.961 . S
H1183 C1167 0.960 . S
C1184 C1185 1.391 . S
C1184 C1186 1.394 . S
C1184 H1200 0.931 . S
C1185 C1184 1.391 . S
C1185 C1189 1.376 . S
C1186 C1184 1.394 . S
C1186 C1187 1.369 . S
C1186 C1190 1.531 . S
C1187 C1186 1.369 . S
C1187 C1188 1.410 . S
C1187 C1195 1.503 . S
C1188 C1187 1.410 . S
C1188 C1189 1.392 . S
C1188 C1191 1.511 . S
C1189 C1185 1.376 . S
C1189 C1188 1.392 . S
C1189 H1201 0.929 . S
C1190 C1186 1.531 . S
C1190 H1202 0.960 . S
C1190 H1203 0.962 . S
C1190 H1204 0.960 . S
C1191 C1188 1.511 . S
C1191 H1205 0.961 . S
C1191 H1206 0.961 . S
C1191 H1207 0.961 . S
C1192 C1193 1.370 . S
C1192 C1194 1.363 . S
C1192 H1208 0.931 . S
C1193 C1192 1.370 . S
C1193 C1197 1.408 . S
C1194 C1192 1.363 . S
C1194 C1195 1.370 . S
C1194 C1198 1.524 . S
C1195 C1187 1.503 . S
C1195 C1194 1.370 . S
C1195 C1196 1.403 . S
C1196 C1195 1.403 . S
C1196 C1197 1.404 . S
C1196 C1199 1.539 . S
C1197 C1193 1.408 . S
C1197 C1196 1.404 . S
C1197 H1209 0.930 . S
C1198 C1194 1.524 . S
C1198 H1210 0.956 . S
C1198 H1211 0.961 . S
C1198 H1212 0.961 . S
C1199 C1196 1.539 . S
C1199 H1213 0.958 . S
C1199 H1214 0.961 . S
C1199 H1215 0.960 . S
H1200 C1184 0.931 . S
H1201 C1189 0.929 . S
H1202 C1190 0.960 . S
H1203 C1190 0.962 . S
H1204 C1190 0.960 . S
H1205 C1191 0.961 . S
H1206 C1191 0.961 . S
H1207 C1191 0.961 . S
H1208 C1192 0.931 . S
H1209 C1197 0.930 . S
H1210 C1198 0.956 . S
H1211 C1198 0.961 . S
H1212 C1198 0.961 . S
H1213 C1199 0.958 . S
H1214 C1199 0.961 . S
H1215 C1199 0.960 . S
C1216 C1217 1.391 . S
C1216 C1218 1.394 . S
C1216 H1232 0.931 . S
C1217 C1216 1.391 . S
C1217 C1221 1.376 . S
C1218 C1216 1.394 . S
C1218 C1219 1.369 . S
C1218 C1222 1.531 . S
C1219 C1218 1.369 . S
C1219 C1220 1.410 . S
C1219 C1227 1.503 . S
C1220 C1219 1.410 . S
C1220 C1221 1.392 . S
C1220 C1223 1.511 . S
C1221 C1217 1.376 . S
C1221 C1220 1.392 . S
C1221 H1233 0.929 . S
C1222 C1218 1.531 . S
C1222 H1234 0.960 . S
C1222 H1235 0.962 . S
C1222 H1236 0.960 . S
C1223 C1220 1.511 . S
C1223 H1237 0.961 . S
C1223 H1238 0.961 . S
C1223 H1239 0.961 . S
C1224 C1225 1.370 . S
C1224 C1226 1.363 . S
C1224 H1240 0.931 . S
C1225 C1224 1.370 . S
C1225 C1229 1.408 . S
C1226 C1224 1.363 . S
C1226 C1227 1.370 . S
C1226 C1230 1.524 . S
C1227 C1219 1.503 . S
C1227 C1226 1.370 . S
C1227 C1228 1.403 . S
C1228 C1227 1.403 . S
C1228 C1229 1.404 . S
C1228 C1231 1.539 . S
C1229 C1225 1.408 . S
C1229 C1228 1.404 . S
C1229 H1241 0.930 . S
C1230 C1226 1.524 . S
C1230 H1242 0.956 . S
C1230 H1243 0.961 . S
C1230 H1244 0.961 . S
C1231 C1228 1.539 . S
C1231 H1245 0.958 . S
C1231 H1246 0.961 . S
C1231 H1247 0.960 . S
H1232 C1216 0.931 . S
H1233 C1221 0.929 . S
H1234 C1222 0.960 . S
H1235 C1222 0.962 . S
H1236 C1222 0.960 . S
H1237 C1223 0.961 . S
H1238 C1223 0.961 . S
H1239 C1223 0.961 . S
H1240 C1224 0.931 . S
H1241 C1229 0.930 . S
H1242 C1230 0.956 . S
H1243 C1230 0.961 . S
H1244 C1230 0.961 . S
H1245 C1231 0.958 . S
H1246 C1231 0.961 . S
H1247 C1231 0.960 . S
C1248 C1249 1.391 . S
C1248 C1250 1.394 . S
C1248 H1264 0.931 . S
C1249 C1248 1.391 . S
C1249 C1253 1.376 . S
C1250 C1248 1.394 . S
C1250 C1251 1.369 . S
C1250 C1254 1.531 . S
C1251 C1250 1.369 . S
C1251 C1252 1.410 . S
C1251 C1259 1.503 . S
C1252 C1251 1.410 . S
C1252 C1253 1.392 . S
C1252 C1255 1.511 . S
C1253 C1249 1.376 . S
C1253 C1252 1.392 . S
C1253 H1265 0.929 . S
C1254 C1250 1.531 . S
C1254 H1266 0.960 . S
C1254 H1267 0.962 . S
C1254 H1268 0.960 . S
C1255 C1252 1.511 . S
C1255 H1269 0.961 . S
C1255 H1270 0.961 . S
C1255 H1271 0.961 . S
C1256 C1257 1.370 . S
C1256 C1258 1.363 . S
C1256 H1272 0.931 . S
C1257 C1256 1.370 . S
C1257 C1261 1.408 . S
C1258 C1256 1.363 . S
C1258 C1259 1.370 . S
C1258 C1262 1.524 . S
C1259 C1251 1.503 . S
C1259 C1258 1.370 . S
C1259 C1260 1.403 . S
C1260 C1259 1.403 . S
C1260 C1261 1.404 . S
C1260 C1263 1.539 . S
C1261 C1257 1.408 . S
C1261 C1260 1.404 . S
C1261 H1273 0.930 . S
C1262 C1258 1.524 . S
C1262 H1274 0.956 . S
C1262 H1275 0.961 . S
C1262 H1276 0.961 . S
C1263 C1260 1.539 . S
C1263 H1277 0.958 . S
C1263 H1278 0.961 . S
C1263 H1279 0.960 . S
H1264 C1248 0.931 . S
H1265 C1253 0.929 . S
H1266 C1254 0.960 . S
H1267 C1254 0.962 . S
H1268 C1254 0.960 . S
H1269 C1255 0.961 . S
H1270 C1255 0.961 . S
H1271 C1255 0.961 . S
H1272 C1256 0.931 . S
H1273 C1261 0.930 . S
H1274 C1262 0.956 . S
H1275 C1262 0.961 . S
H1276 C1262 0.961 . S
H1277 C1263 0.958 . S
H1278 C1263 0.961 . S
H1279 C1263 0.960 . S
C1280 C1281 1.391 . S
C1280 C1282 1.394 . S
C1280 H1296 0.931 . S
C1281 C1280 1.391 . S
C1281 C1285 1.376 . S
C1282 C1280 1.394 . S
C1282 C1283 1.369 . S
C1282 C1286 1.531 . S
C1283 C1282 1.369 . S
C1283 C1284 1.410 . S
C1283 C1291 1.503 . S
C1284 C1283 1.410 . S
C1284 C1285 1.392 . S
C1284 C1287 1.511 . S
C1285 C1281 1.376 . S
C1285 C1284 1.392 . S
C1285 H1297 0.929 . S
C1286 C1282 1.531 . S
C1286 H1298 0.960 . S
C1286 H1299 0.962 . S
C1286 H1300 0.960 . S
C1287 C1284 1.511 . S
C1287 H1301 0.961 . S
C1287 H1302 0.961 . S
C1287 H1303 0.961 . S
C1288 C1289 1.370 . S
C1288 C1290 1.363 . S
C1288 H1304 0.931 . S
C1289 C1288 1.370 . S
C1289 C1293 1.408 . S
C1290 C1288 1.363 . S
C1290 C1291 1.370 . S
C1290 C1294 1.524 . S
C1291 C1283 1.503 . S
C1291 C1290 1.370 . S
C1291 C1292 1.403 . S
C1292 C1291 1.403 . S
C1292 C1293 1.404 . S
C1292 C1295 1.539 . S
C1293 C1289 1.408 . S
C1293 C1292 1.404 . S
C1293 H1305 0.930 . S
C1294 C1290 1.524 . S
C1294 H1306 0.956 . S
C1294 H1307 0.961 . S
C1294 H1308 0.961 . S
C1295 C1292 1.539 . S
C1295 H1309 0.958 . S
C1295 H1310 0.961 . S
C1295 H1311 0.960 . S
H1296 C1280 0.931 . S
H1297 C1285 0.929 . S
H1298 C1286 0.960 . S
H1299 C1286 0.962 . S
H1300 C1286 0.960 . S
H1301 C1287 0.961 . S
H1302 C1287 0.961 . S
H1303 C1287 0.961 . S
H1304 C1288 0.931 . S
H1305 C1293 0.930 . S
H1306 C1294 0.956 . S
H1307 C1294 0.961 . S
H1308 C1294 0.961 . S
H1309 C1295 0.958 . S
H1310 C1295 0.961 . S
H1311 C1295 0.960 . S
C1312 C1313 1.391 . S
C1312 C1314 1.394 . S
C1312 H1328 0.931 . S
C1313 C1312 1.391 . S
C1313 C1317 1.376 . S
C1314 C1312 1.394 . S
C1314 C1315 1.369 . S
C1314 C1318 1.531 . S
C1315 C1314 1.369 . S
C1315 C1316 1.410 . S
C1315 C1323 1.503 . S
C1316 C1315 1.410 . S
C1316 C1317 1.392 . S
C1316 C1319 1.511 . S
C1317 C1313 1.376 . S
C1317 C1316 1.392 . S
C1317 H1329 0.929 . S
C1318 C1314 1.531 . S
C1318 H1330 0.960 . S
C1318 H1331 0.962 . S
C1318 H1332 0.960 . S
C1319 C1316 1.511 . S
C1319 H1333 0.961 . S
C1319 H1334 0.961 . S
C1319 H1335 0.961 . S
C1320 C1321 1.370 . S
C1320 C1322 1.363 . S
C1320 H1336 0.931 . S
C1321 C1320 1.370 . S
C1321 C1325 1.408 . S
C1322 C1320 1.363 . S
C1322 C1323 1.370 . S
C1322 C1326 1.524 . S
C1323 C1315 1.503 . S
C1323 C1322 1.370 . S
C1323 C1324 1.403 . S
C1324 C1323 1.403 . S
C1324 C1325 1.404 . S
C1324 C1327 1.539 . S
C1325 C1321 1.408 . S
C1325 C1324 1.404 . S
C1325 H1337 0.930 . S
C1326 C1322 1.524 . S
C1326 H1338 0.956 . S
C1326 H1339 0.961 . S
C1326 H1340 0.961 . S
C1327 C1324 1.539 . S
C1327 H1341 0.958 . S
C1327 H1342 0.961 . S
C1327 H1343 0.960 . S
H1328 C1312 0.931 . S
H1329 C1317 0.929 . S
H1330 C1318 0.960 . S
H1331 C1318 0.962 . S
H1332 C1318 0.960 . S
H1333 C1319 0.961 . S
H1334 C1319 0.961 . S
H1335 C1319 0.961 . S
H1336 C1320 0.931 . S
H1337 C1325 0.930 . S
H1338 C1326 0.956 . S
H1339 C1326 0.961 . S
H1340 C1326 0.961 . S
H1341 C1327 0.958 . S
H1342 C1327 0.961 . S
H1343 C1327 0.960 . S
C1344 C1345 1.391 . S
C1344 C1346 1.394 . S
C1344 H1360 0.931 . S
C1345 C1344 1.391 . S
C1345 C1349 1.376 . S
C1346 C1344 1.394 . S
C1346 C1347 1.369 . S
C1346 C1350 1.531 . S
C1347 C1346 1.369 . S
C1347 C1348 1.410 . S
C1347 C1355 1.503 . S
C1348 C1347 1.410 . S
C1348 C1349 1.392 . S
C1348 C1351 1.511 . S
C1349 C1345 1.376 . S
C1349 C1348 1.392 . S
C1349 H1361 0.929 . S
C1350 C1346 1.531 . S
C1350 H1362 0.960 . S
C1350 H1363 0.962 . S
C1350 H1364 0.960 . S
C1351 C1348 1.511 . S
C1351 H1365 0.961 . S
C1351 H1366 0.961 . S
C1351 H1367 0.961 . S
C1352 C1353 1.370 . S
C1352 C1354 1.363 . S
C1352 H1368 0.931 . S
C1353 C1352 1.370 . S
C1353 C1357 1.408 . S
C1354 C1352 1.363 . S
C1354 C1355 1.370 . S
C1354 C1358 1.524 . S
C1355 C1347 1.503 . S
C1355 C1354 1.370 . S
C1355 C1356 1.403 . S
C1356 C1355 1.403 . S
C1356 C1357 1.404 . S
C1356 C1359 1.539 . S
C1357 C1353 1.408 . S
C1357 C1356 1.404 . S
C1357 H1369 0.930 . S
C1358 C1354 1.524 . S
C1358 H1370 0.956 . S
C1358 H1371 0.961 . S
C1358 H1372 0.961 . S
C1359 C1356 1.539 . S
C1359 H1373 0.958 . S
C1359 H1374 0.961 . S
C1359 H1375 0.960 . S
H1360 C1344 0.931 . S
H1361 C1349 0.929 . S
H1362 C1350 0.960 . S
H1363 C1350 0.962 . S
H1364 C1350 0.960 . S
H1365 C1351 0.961 . S
H1366 C1351 0.961 . S
H1367 C1351 0.961 . S
H1368 C1352 0.931 . S
H1369 C1357 0.930 . S
H1370 C1358 0.956 . S
H1371 C1358 0.961 . S
H1372 C1358 0.961 . S
H1373 C1359 0.958 . S
H1374 C1359 0.961 . S
H1375 C1359 0.960 . S
C1376 C1377 1.391 . S
C1376 C1378 1.394 . S
C1376 H1392 0.931 . S
C1377 C1376 1.391 . S
C1377 C1381 1.376 . S
C1378 C1376 1.394 . S
C1378 C1379 1.369 . S
C1378 C1382 1.531 . S
C1379 C1378 1.369 . S
C1379 C1380 1.410 . S
C1379 C1387 1.503 . S
C1380 C1379 1.410 . S
C1380 C1381 1.392 . S
C1380 C1383 1.511 . S
C1381 C1377 1.376 . S
C1381 C1380 1.392 . S
C1381 H1393 0.929 . S
C1382 C1378 1.531 . S
C1382 H1394 0.960 . S
C1382 H1395 0.962 . S
C1382 H1396 0.960 . S
C1383 C1380 1.511 . S
C1383 H1397 0.961 . S
C1383 H1398 0.961 . S
C1383 H1399 0.961 . S
C1384 C1385 1.370 . S
C1384 C1386 1.363 . S
C1384 H1400 0.931 . S
C1385 C1384 1.370 . S
C1385 C1389 1.408 . S
C1386 C1384 1.363 . S
C1386 C1387 1.370 . S
C1386 C1390 1.524 . S
C1387 C1379 1.503 . S
C1387 C1386 1.370 . S
C1387 C1388 1.403 . S
C1388 C1387 1.403 . S
C1388 C1389 1.404 . S
C1388 C1391 1.539 . S
C1389 C1385 1.408 . S
C1389 C1388 1.404 . S
C1389 H1401 0.930 . S
C1390 C1386 1.524 . S
C1390 H1402 0.956 . S
C1390 H1403 0.961 . S
C1390 H1404 0.961 . S
C1391 C1388 1.539 . S
C1391 H1405 0.958 . S
C1391 H1406 0.961 . S
C1391 H1407 0.960 . S
H1392 C1376 0.931 . S
H1393 C1381 0.929 . S
H1394 C1382 0.960 . S
H1395 C1382 0.962 . S
H1396 C1382 0.960 . S
H1397 C1383 0.961 . S
H1398 C1383 0.961 . S
H1399 C1383 0.961 . S
H1400 C1384 0.931 . S
H1401 C1389 0.930 . S
H1402 C1390 0.956 . S
H1403 C1390 0.961 . S
H1404 C1390 0.961 . S
H1405 C1391 0.958 . S
H1406 C1391 0.961 . S
H1407 C1391 0.960 . S
C1408 C1409 1.391 . S
C1408 C1410 1.394 . S
C1408 H1424 0.931 . S
C1409 C1408 1.391 . S
C1409 C1413 1.376 . S
C1410 C1408 1.394 . S
C1410 C1411 1.369 . S
C1410 C1414 1.531 . S
C1411 C1410 1.369 . S
C1411 C1412 1.410 . S
C1411 C1419 1.503 . S
C1412 C1411 1.410 . S
C1412 C1413 1.392 . S
C1412 C1415 1.511 . S
C1413 C1409 1.376 . S
C1413 C1412 1.392 . S
C1413 H1425 0.929 . S
C1414 C1410 1.531 . S
C1414 H1426 0.960 . S
C1414 H1427 0.962 . S
C1414 H1428 0.960 . S
C1415 C1412 1.511 . S
C1415 H1429 0.961 . S
C1415 H1430 0.961 . S
C1415 H1431 0.961 . S
C1416 C1417 1.370 . S
C1416 C1418 1.363 . S
C1416 H1432 0.931 . S
C1417 C1416 1.370 . S
C1417 C1421 1.408 . S
C1418 C1416 1.363 . S
C1418 C1419 1.370 . S
C1418 C1422 1.524 . S
C1419 C1411 1.503 . S
C1419 C1418 1.370 . S
C1419 C1420 1.403 . S
C1420 C1419 1.403 . S
C1420 C1421 1.404 . S
C1420 C1423 1.539 . S
C1421 C1417 1.408 . S
C1421 C1420 1.404 . S
C1421 H1433 0.930 . S
C1422 C1418 1.524 . S
C1422 H1434 0.956 . S
C1422 H1435 0.961 . S
C1422 H1436 0.961 . S
C1423 C1420 1.539 . S
C1423 H1437 0.958 . S
C1423 H1438 0.961 . S
C1423 H1439 0.960 . S
H1424 C1408 0.931 . S
H1425 C1413 0.929 . S
H1426 C1414 0.960 . S
H1427 C1414 0.962 . S
H1428 C1414 0.960 . S
H1429 C1415 0.961 . S
H1430 C1415 0.961 . S
H1431 C1415 0.961 . S
H1432 C1416 0.931 . S
H1433 C1421 0.930 . S
H1434 C1422 0.956 . S
H1435 C1422 0.961 . S
H1436 C1422 0.961 . S
H1437 C1423 0.958 . S
H1438 C1423 0.961 . S
H1439 C1423 0.960 . S
C1440 C1441 1.391 . S
C1440 C1442 1.394 . S
C1440 H1456 0.931 . S
C1441 C1440 1.391 . S
C1441 C1445 1.376 . S
C1442 C1440 1.394 . S
C1442 C1443 1.369 . S
C1442 C1446 1.531 . S
C1443 C1442 1.369 . S
C1443 C1444 1.410 . S
C1443 C1451 1.503 . S
C1444 C1443 1.410 . S
C1444 C1445 1.392 . S
C1444 C1447 1.511 . S
C1445 C1441 1.376 . S
C1445 C1444 1.392 . S
C1445 H1457 0.929 . S
C1446 C1442 1.531 . S
C1446 H1458 0.960 . S
C1446 H1459 0.962 . S
C1446 H1460 0.960 . S
C1447 C1444 1.511 . S
C1447 H1461 0.961 . S
C1447 H1462 0.961 . S
C1447 H1463 0.961 . S
C1448 C1449 1.370 . S
C1448 C1450 1.363 . S
C1448 H1464 0.931 . S
C1449 C1448 1.370 . S
C1449 C1453 1.408 . S
C1450 C1448 1.363 . S
C1450 C1451 1.370 . S
C1450 C1454 1.524 . S
C1451 C1443 1.503 . S
C1451 C1450 1.370 . S
C1451 C1452 1.403 . S
C1452 C1451 1.403 . S
C1452 C1453 1.404 . S
C1452 C1455 1.539 . S
C1453 C1449 1.408 . S
C1453 C1452 1.404 . S
C1453 H1465 0.930 . S
C1454 C1450 1.524 . S
C1454 H1466 0.956 . S
C1454 H1467 0.961 . S
C1454 H1468 0.961 . S
C1455 C1452 1.539 . S
C1455 H1469 0.958 . S
C1455 H1470 0.961 . S
C1455 H1471 0.960 . S
H1456 C1440 0.931 . S
H1457 C1445 0.929 . S
H1458 C1446 0.960 . S
H1459 C1446 0.962 . S
H1460 C1446 0.960 . S
H1461 C1447 0.961 . S
H1462 C1447 0.961 . S
H1463 C1447 0.961 . S
H1464 C1448 0.931 . S
H1465 C1453 0.930 . S
H1466 C1454 0.956 . S
H1467 C1454 0.961 . S
H1468 C1454 0.961 . S
H1469 C1455 0.958 . S
H1470 C1455 0.961 . S
H1471 C1455 0.960 . S
C1472 C1473 1.391 . S
C1472 C1474 1.394 . S
C1472 H1488 0.931 . S
C1473 C1472 1.391 . S
C1473 C1477 1.376 . S
C1474 C1472 1.394 . S
C1474 C1475 1.369 . S
C1474 C1478 1.531 . S
C1475 C1474 1.369 . S
C1475 C1476 1.410 . S
C1475 C1483 1.503 . S
C1476 C1475 1.410 . S
C1476 C1477 1.392 . S
C1476 C1479 1.511 . S
C1477 C1473 1.376 . S
C1477 C1476 1.392 . S
C1477 H1489 0.929 . S
C1478 C1474 1.531 . S
C1478 H1490 0.960 . S
C1478 H1491 0.962 . S
C1478 H1492 0.960 . S
C1479 C1476 1.511 . S
C1479 H1493 0.961 . S
C1479 H1494 0.961 . S
C1479 H1495 0.961 . S
C1480 C1481 1.370 . S
C1480 C1482 1.363 . S
C1480 H1496 0.931 . S
C1481 C1480 1.370 . S
C1481 C1485 1.408 . S
C1482 C1480 1.363 . S
C1482 C1483 1.370 . S
C1482 C1486 1.524 . S
C1483 C1475 1.503 . S
C1483 C1482 1.370 . S
C1483 C1484 1.403 . S
C1484 C1483 1.403 . S
C1484 C1485 1.404 . S
C1484 C1487 1.539 . S
C1485 C1481 1.408 . S
C1485 C1484 1.404 . S
C1485 H1497 0.930 . S
C1486 C1482 1.524 . S
C1486 H1498 0.956 . S
C1486 H1499 0.961 . S
C1486 H1500 0.961 . S
C1487 C1484 1.539 . S
C1487 H1501 0.958 . S
C1487 H1502 0.961 . S
C1487 H1503 0.960 . S
H1488 C1472 0.931 . S
H1489 C1477 0.929 . S
H1490 C1478 0.960 . S
H1491 C1478 0.962 . S
H1492 C1478 0.960 . S
H1493 C1479 0.961 . S
H1494 C1479 0.961 . S
H1495 C1479 0.961 . S
H1496 C1480 0.931 . S
H1497 C1485 0.930 . S
H1498 C1486 0.956 . S
H1499 C1486 0.961 . S
H1500 C1486 0.961 . S
H1501 C1487 0.958 . S
H1502 C1487 0.961 . S
H1503 C1487 0.960 . S
C1504 C1505 1.391 . S
C1504 C1506 1.394 . S
C1504 H1520 0.931 . S
C1505 C1504 1.391 . S
C1505 C1509 1.376 . S
C1506 C1504 1.394 . S
C1506 C1507 1.369 . S
C1506 C1510 1.531 . S
C1507 C1506 1.369 . S
C1507 C1508 1.410 . S
C1507 C1515 1.503 . S
C1508 C1507 1.410 . S
C1508 C1509 1.392 . S
C1508 C1511 1.511 . S
C1509 C1505 1.376 . S
C1509 C1508 1.392 . S
C1509 H1521 0.929 . S
C1510 C1506 1.531 . S
C1510 H1522 0.960 . S
C1510 H1523 0.962 . S
C1510 H1524 0.960 . S
C1511 C1508 1.511 . S
C1511 H1525 0.961 . S
C1511 H1526 0.961 . S
C1511 H1527 0.961 . S
C1512 C1513 1.370 . S
C1512 C1514 1.363 . S
C1512 H1528 0.931 . S
C1513 C1512 1.370 . S
C1513 C1517 1.408 . S
C1514 C1512 1.363 . S
C1514 C1515 1.370 . S
C1514 C1518 1.524 . S
C1515 C1507 1.503 . S
C1515 C1514 1.370 . S
C1515 C1516 1.403 . S
C1516 C1515 1.403 . S
C1516 C1517 1.404 . S
C1516 C1519 1.539 . S
C1517 C1513 1.408 . S
C1517 C1516 1.404 . S
C1517 H1529 0.930 . S
C1518 C1514 1.524 . S
C1518 H1530 0.956 . S
C1518 H1531 0.961 . S
C1518 H1532 0.961 . S
C1519 C1516 1.539 . S
C1519 H1533 0.958 . S
C1519 H1534 0.961 . S
C1519 H1535 0.960 . S
H1520 C1504 0.931 . S
H1521 C1509 0.929 . S
H1522 C1510 0.960 . S
H1523 C1510 0.962 . S
H1524 C1510 0.960 . S
H1525 C1511 0.961 . S
H1526 C1511 0.961 . S
H1527 C1511 0.961 . S
H1528 C1512 0.931 . S
H1529 C1517 0.930 . S
H1530 C1518 0.956 . S
H1531 C1518 0.961 . S
H1532 C1518 0.961 . S
H1533 C1519 0.958 . S
H1534 C1519 0.961 . S
H1535 C1519 0.960 . S
C1536 C1537 1.391 . S
C1536 C1538 1.394 . S
C1536 H1552 0.931 . S
C1537 C1536 1.391 . S
C1537 C1541 1.376 . S
C1538 C1536 1.394 . S
C1538 C1539 1.369 . S
C1538 C1542 1.531 . S
C1539 C1538 1.369 . S
C1539 C1540 1.410 . S
C1539 C1547 1.503 . S
C1540 C1539 1.410 . S
C1540 C1541 1.392 . S
C1540 C1543 1.511 . S
C1541 C1537 1.376 . S
C1541 C1540 1.392 . S
C1541 H1553 0.929 . S
C1542 C1538 1.531 . S
C1542 H1554 0.960 . S
C1542 H1555 0.962 . S
C1542 H1556 0.960 . S
C1543 C1540 1.511 . S
C1543 H1557 0.961 . S
C1543 H1558 0.961 . S
C1543 H1559 0.961 . S
C1544 C1545 1.370 . S
C1544 C1546 1.363 . S
C1544 H1560 0.931 . S
C1545 C1544 1.370 . S
C1545 C1549 1.408 . S
C1546 C1544 1.363 . S
C1546 C1547 1.370 . S
C1546 C1550 1.524 . S
C1547 C1539 1.503 . S
C1547 C1546 1.370 . S
C1547 C1548 1.403 . S
C1548 C1547 1.403 . S
C1548 C1549 1.404 . S
C1548 C1551 1.539 . S
C1549 C1545 1.408 . S
C1549 C1548 1.404 . S
C1549 H1561 0.930 . S
C1550 C1546 1.524 . S
C1550 H1562 0.956 . S
C1550 H1563 0.961 . S
C1550 H1564 0.961 . S
C1551 C1548 1.539 . S
C1551 H1565 0.958 . S
C1551 H1566 0.961 . S
C1551 H1567 0.960 . S
H1552 C1536 0.931 . S
H1553 C1541 0.929 . S
H1554 C1542 0.960 . S
H1555 C1542 0.962 . S
H1556 C1542 0.960 . S
H1557 C1543 0.961 . S
H1558 C1543 0.961 . S
H1559 C1543 0.961 . S
H1560 C1544 0.931 . S
H1561 C1549 0.930 . S
H1562 C1550 0.956 . S
H1563 C1550 0.961 . S
H1564 C1550 0.961 . S
H1565 C1551 0.958 . S
H1566 C1551 0.961 . S
H1567 C1551 0.960 . S
C1568 C1569 1.391 . S
C1568 C1570 1.394 . S
C1568 H1584 0.931 . S
C1569 C1568 1.391 . S
C1569 C1573 1.376 . S
C1570 C1568 1.394 . S
C1570 C1571 1.369 . S
C1570 C1574 1.531 . S
C1571 C1570 1.369 . S
C1571 C1572 1.410 . S
C1571 C1579 1.503 . S
C1572 C1571 1.410 . S
C1572 C1573 1.392 . S
C1572 C1575 1.511 . S
C1573 C1569 1.376 . S
C1573 C1572 1.392 . S
C1573 H1585 0.929 . S
C1574 C1570 1.531 . S
C1574 H1586 0.960 . S
C1574 H1587 0.962 . S
C1574 H1588 0.960 . S
C1575 C1572 1.511 . S
C1575 H1589 0.961 . S
C1575 H1590 0.961 . S
C1575 H1591 0.961 . S
C1576 C1577 1.370 . S
C1576 C1578 1.363 . S
C1576 H1592 0.931 . S
C1577 C1576 1.370 . S
C1577 C1581 1.408 . S
C1578 C1576 1.363 . S
C1578 C1579 1.370 . S
C1578 C1582 1.524 . S
C1579 C1571 1.503 . S
C1579 C1578 1.370 . S
C1579 C1580 1.403 . S
C1580 C1579 1.403 . S
C1580 C1581 1.404 . S
C1580 C1583 1.539 . S
C1581 C1577 1.408 . S
C1581 C1580 1.404 . S
C1581 H1593 0.930 . S
C1582 C1578 1.524 . S
C1582 H1594 0.956 . S
C1582 H1595 0.961 . S
C1582 H1596 0.961 . S
C1583 C1580 1.539 . S
C1583 H1597 0.958 . S
C1583 H1598 0.961 . S
C1583 H1599 0.960 . S
H1584 C1568 0.931 . S
H1585 C1573 0.929 . S
H1586 C1574 0.960 . S
H1587 C1574 0.962 . S
H1588 C1574 0.960 . S
H1589 C1575 0.961 . S
H1590 C1575 0.961 . S
H1591 C1575 0.961 . S
H1592 C1576 0.931 . S
H1593 C1581 0.930 . S
H1594 C1582 0.956 . S
H1595 C1582 0.961 . S
H1596 C1582 0.961 . S
H1597 C1583 0.958 . S
H1598 C1583 0.961 . S
H1599 C1583 0.960 . S
C1600 C1601 1.391 . S
C1600 C1602 1.394 . S
C1600 H1616 0.931 . S
C1601 C1600 1.391 . S
C1601 C1605 1.376 . S
C1602 C1600 1.394 . S
C1602 C1603 1.369 . S
C1602 C1606 1.531 . S
C1603 C1602 1.369 . S
C1603 C1604 1.410 . S
C1603 C1611 1.503 . S
C1604 C1603 1.410 . S
C1604 C1605 1.392 . S
C1604 C1607 1.511 . S
C1605 C1601 1.376 . S
C1605 C1604 1.392 . S
C1605 H1617 0.929 . S
C1606 C1602 1.531 . S
C1606 H1618 0.960 . S
C1606 H1619 0.962 . S
C1606 H1620 0.960 . S
C1607 C1604 1.511 . S
C1607 H1621 0.961 . S
C1607 H1622 0.961 . S
C1607 H1623 0.961 . S
C1608 C1609 1.370 . S
C1608 C1610 1.363 . S
C1608 H1624 0.931 . S
C1609 C1608 1.370 . S
C1609 C1613 1.408 . S
C1610 C1608 1.363 . S
C1610 C1611 1.370 . S
C1610 C1614 1.524 . S
C1611 C1603 1.503 . S
C1611 C1610 1.370 . S
C1611 C1612 1.403 . S
C1612 C1611 1.403 . S
C1612 C1613 1.404 . S
C1612 C1615 1.539 . S
C1613 C1609 1.408 . S
C1613 C1612 1.404 . S
C1613 H1625 0.930 . S
C1614 C1610 1.524 . S
C1614 H1626 0.956 . S
C1614 H1627 0.961 . S
C1614 H1628 0.961 . S
C1615 C1612 1.539 . S
C1615 H1629 0.958 . S
C1615 H1630 0.961 . S
C1615 H1631 0.960 . S
H1616 C1600 0.931 . S
H1617 C1605 0.929 . S
H1618 C1606 0.960 . S
H1619 C1606 0.962 . S
H1620 C1606 0.960 . S
H1621 C1607 0.961 . S
H1622 C1607 0.961 . S
H1623 C1607 0.961 . S
H1624 C1608 0.931 . S
H1625 C1613 0.930 . S
H1626 C1614 0.956 . S
H1627 C1614 0.961 . S
H1628 C1614 0.961 . S
H1629 C1615 0.958 . S
H1630 C1615 0.961 . S
H1631 C1615 0.960 . S
C1632 C1633 1.391 . S
C1632 C1634 1.394 . S
C1632 H1648 0.931 . S
C1633 C1632 1.391 . S
C1633 C1637 1.376 . S
C1634 C1632 1.394 . S
C1634 C1635 1.369 . S
C1634 C1638 1.531 . S
C1635 C1634 1.369 . S
C1635 C1636 1.410 . S
C1635 C1643 1.503 . S
C1636 C1635 1.410 . S
C1636 C1637 1.392 . S
C1636 C1639 1.511 . S
C1637 C1633 1.376 . S
C1637 C1636 1.392 . S
C1637 H1649 0.929 . S
C1638 C1634 1.531 . S
C1638 H1650 0.960 . S
C1638 H1651 0.962 . S
C1638 H1652 0.960 . S
C1639 C1636 1.511 . S
C1639 H1653 0.961 . S
C1639 H1654 0.961 . S
C1639 H1655 0.961 . S
C1640 C1641 1.370 . S
C1640 C1642 1.363 . S
C1640 H1656 0.931 . S
C1641 C1640 1.370 . S
C1641 C1645 1.408 . S
C1642 C1640 1.363 . S
C1642 C1643 1.370 . S
C1642 C1646 1.524 . S
C1643 C1635 1.503 . S
C1643 C1642 1.370 . S
C1643 C1644 1.403 . S
C1644 C1643 1.403 . S
C1644 C1645 1.404 . S
C1644 C1647 1.539 . S
C1645 C1641 1.408 . S
C1645 C1644 1.404 . S
C1645 H1657 0.930 . S
C1646 C1642 1.524 . S
C1646 H1658 0.956 . S
C1646 H1659 0.961 . S
C1646 H1660 0.961 . S
C1647 C1644 1.539 . S
C1647 H1661 0.958 . S
C1647 H1662 0.961 . S
C1647 H1663 0.960 . S
H1648 C1632 0.931 . S
H1649 C1637 0.929 . S
H1650 C1638 0.960 . S
H1651 C1638 0.962 . S
H1652 C1638 0.960 . S
H1653 C1639 0.961 . S
H1654 C1639 0.961 . S
H1655 C1639 0.961 . S
H1656 C1640 0.931 . S
H1657 C1645 0.930 . S
H1658 C1646 0.956 . S
H1659 C1646 0.961 . S
H1660 C1646 0.961 . S
H1661 C1647 0.958 . S
H1662 C1647 0.961 . S
H1663 C1647 0.960 . S
C1664 C1665 1.391 . S
C1664 C1666 1.394 . S
C1664 H1680 0.931 . S
C1665 C1664 1.391 . S
C1665 C1669 1.376 . S
C1666 C1664 1.394 . S
C1666 C1667 1.369 . S
C1666 C1670 1.531 . S
C1667 C1666 1.369 . S
C1667 C1668 1.410 . S
C1667 C1675 1.503 . S
C1668 C1667 1.410 . S
C1668 C1669 1.392 . S
C1668 C1671 1.511 . S
C1669 C1665 1.376 . S
C1669 C1668 1.392 . S
C1669 H1681 0.929 . S
C1670 C1666 1.531 . S
C1670 H1682 0.960 . S
C1670 H1683 0.962 . S
C1670 H1684 0.960 . S
C1671 C1668 1.511 . S
C1671 H1685 0.961 . S
C1671 H1686 0.961 . S
C1671 H1687 0.961 . S
C1672 C1673 1.370 . S
C1672 C1674 1.363 . S
C1672 H1688 0.931 . S
C1673 C1672 1.370 . S
C1673 C1677 1.408 . S
C1674 C1672 1.363 . S
C1674 C1675 1.370 . S
C1674 C1678 1.524 . S
C1675 C1667 1.503 . S
C1675 C1674 1.370 . S
C1675 C1676 1.403 . S
C1676 C1675 1.403 . S
C1676 C1677 1.404 . S
C1676 C1679 1.539 . S
C1677 C1673 1.408 . S
C1677 C1676 1.404 . S
C1677 H1689 0.930 . S
C1678 C1674 1.524 . S
C1678 H1690 0.956 . S
C1678 H1691 0.961 . S
C1678 H1692 0.961 . S
C1679 C1676 1.539 . S
C1679 H1693 0.958 . S
C1679 H1694 0.961 . S
C1679 H1695 0.960 . S
H1680 C1664 0.931 . S
H1681 C1669 0.929 . S
H1682 C1670 0.960 . S
H1683 C1670 0.962 . S
H1684 C1670 0.960 . S
H1685 C1671 0.961 . S
H1686 C1671 0.961 . S
H1687 C1671 0.961 . S
H1688 C1672 0.931 . S
H1689 C1677 0.930 . S
H1690 C1678 0.956 . S
H1691 C1678 0.961 . S
H1692 C1678 0.961 . S
H1693 C1679 0.958 . S
H1694 C1679 0.961 . S
H1695 C1679 0.960 . S
C681 C423 1.350 . S
C673 C36 1.307 . S
C713 C460 1.336 . S
C705 C93 1.321 . S
C745 C496 1.348 . S
C737 C126 1.310 . S
C769 C165 1.301 . S
C777 C387 1.367 . S
C801 C222 1.321 . S
C809 C388 1.352 . S
C833 C261 1.340 . S
C841 C424 1.319 . S
C873 C459 1.339 . S
C865 C318 1.313 . S
C905 C495 1.365 . S
C897 C381 1.352 . S
C929 C132 1.284 . S
C937 C567 1.349 . S
C969 C604 1.332 . S
C961 C189 1.303 . S
C993 C30 1.346 . S
C1001 C640 1.334 . S
C1033 C531 1.359 . S
C1025 C69 1.347 . S
C1057 C324 1.356 . S
C1065 C532 1.343 . S
C1089 C357 1.300 . S
C1097 C568 1.335 . S
C1129 C603 1.339 . S
C1121 C228 1.311 . S
C1153 C285 1.314 . S
C1161 C639 1.367 . S
C1193 C458 1.713 . S
C1185 C45 1.679 . S
C1225 C494 1.693 . S
C1217 C84 1.691 . S
C1249 C117 1.644 . S
C1257 C398 1.528 . S
C1281 C174 1.650 . S
C1289 C434 1.530 . S
C1313 C213 1.624 . S
C1321 C506 1.522 . S
C1353 C386 1.694 . S
C1345 C270 1.674 . S
C1385 C422 1.710 . S
C1377 C309 1.704 . S
C1417 C470 1.523 . S
C1409 C372 1.673 . S
C1449 C602 1.715 . S
C1441 C141 1.680 . S
C1481 C638 1.696 . S
C1473 C180 1.684 . S
C1505 C21 1.628 . S
C1513 C542 1.516 . S
C1545 C578 1.553 . S
C1537 C78 1.612 . S
C1577 C650 1.517 . S
C1569 C333 1.654 . S
C1601 C366 1.677 . S
C1609 C530 1.691 . S
C1641 C566 1.711 . S
C1633 C237 1.677 . S
C1673 C614 1.544 . S
C1665 C276 1.668 . S
