# Generated by pormake.
# Topology eea, (3,6)-cn, num edge types: 1
# Building blocks:
#     Node 0, Type 0, BuildingBlock: KAKCAD_clean_linker_0, # of connection points: 3
#     Node 1, Type 0, BuildingBlock: KAKCAD_clean_linker_0, # of connection points: 3
#     Node 2, Type 0, BuildingBlock: KAKCAD_clean_linker_0, # of connection points: 3
#     Node 3, Type 0, BuildingBlock: KAKCAD_clean_linker_0, # of connection points: 3
#     Node 4, Type 0, BuildingBlock: KAKCAD_clean_linker_0, # of connection points: 3
#     Node 5, Type 0, BuildingBlock: KAKCAD_clean_linker_0, # of connection points: 3
#     Node 6, Type 0, BuildingBlock: KAKCAD_clean_linker_0, # of connection points: 3
#     Node 7, Type 0, BuildingBlock: KAKCAD_clean_linker_0, # of connection points: 3
#     Node 8, Type 0, BuildingBlock: KAKCAD_clean_linker_0, # of connection points: 3
#     Node 9, Type 0, BuildingBlock: KAKCAD_clean_linker_0, # of connection points: 3
#     Node 10, Type 0, BuildingBlock: KAKCAD_clean_linker_0, # of connection points: 3
#     Node 11, Type 0, BuildingBlock: KAKCAD_clean_linker_0, # of connection points: 3
#     Node 12, Type 0, BuildingBlock: KAKCAD_clean_linker_0, # of connection points: 3
#     Node 13, Type 0, BuildingBlock: KAKCAD_clean_linker_0, # of connection points: 3
#     Node 14, Type 0, BuildingBlock: KAKCAD_clean_linker_0, # of connection points: 3
#     Node 15, Type 0, BuildingBlock: KAKCAD_clean_linker_0, # of connection points: 3
#     Node 16, Type 0, BuildingBlock: KAKCAD_clean_linker_0, # of connection points: 3
#     Node 17, Type 0, BuildingBlock: KAKCAD_clean_linker_0, # of connection points: 3
#     Node 18, Type 1, BuildingBlock: KUMJIN_clean_sbu_0, # of connection points: 6
#     Node 19, Type 1, BuildingBlock: KUMJIN_clean_sbu_0, # of connection points: 6
#     Node 20, Type 1, BuildingBlock: KUMJIN_clean_sbu_0, # of connection points: 6
#     Node 21, Type 1, BuildingBlock: KUMJIN_clean_sbu_0, # of connection points: 6
#     Node 22, Type 1, BuildingBlock: KUMJIN_clean_sbu_0, # of connection points: 6
#     Node 23, Type 1, BuildingBlock: KUMJIN_clean_sbu_0, # of connection points: 6
#     Node 24, Type 1, BuildingBlock: KUMJIN_clean_sbu_0, # of connection points: 6
#     Node 25, Type 1, BuildingBlock: KUMJIN_clean_sbu_0, # of connection points: 6
#     Node 26, Type 1, BuildingBlock: KUMJIN_clean_sbu_0, # of connection points: 6
#     Edge 27, Type (0, 1), BuildingBlock: KIFKEQ_clean_linker_1, # of connection points: 2
#     Edge 28, Type (0, 1), BuildingBlock: KIFKEQ_clean_linker_1, # of connection points: 2
#     Edge 29, Type (0, 1), BuildingBlock: KIFKEQ_clean_linker_1, # of connection points: 2
#     Edge 30, Type (0, 1), BuildingBlock: KIFKEQ_clean_linker_1, # of connection points: 2
#     Edge 31, Type (0, 1), BuildingBlock: KIFKEQ_clean_linker_1, # of connection points: 2
#     Edge 32, Type (0, 1), BuildingBlock: KIFKEQ_clean_linker_1, # of connection points: 2
#     Edge 33, Type (0, 1), BuildingBlock: KIFKEQ_clean_linker_1, # of connection points: 2
#     Edge 34, Type (0, 1), BuildingBlock: KIFKEQ_clean_linker_1, # of connection points: 2
#     Edge 35, Type (0, 1), BuildingBlock: KIFKEQ_clean_linker_1, # of connection points: 2
#     Edge 36, Type (0, 1), BuildingBlock: KIFKEQ_clean_linker_1, # of connection points: 2
#     Edge 37, Type (0, 1), BuildingBlock: KIFKEQ_clean_linker_1, # of connection points: 2
#     Edge 38, Type (0, 1), BuildingBlock: KIFKEQ_clean_linker_1, # of connection points: 2
#     Edge 39, Type (0, 1), BuildingBlock: KIFKEQ_clean_linker_1, # of connection points: 2
#     Edge 40, Type (0, 1), BuildingBlock: KIFKEQ_clean_linker_1, # of connection points: 2
#     Edge 41, Type (0, 1), BuildingBlock: KIFKEQ_clean_linker_1, # of connection points: 2
#     Edge 42, Type (0, 1), BuildingBlock: KIFKEQ_clean_linker_1, # of connection points: 2
#     Edge 43, Type (0, 1), BuildingBlock: KIFKEQ_clean_linker_1, # of connection points: 2
#     Edge 44, Type (0, 1), BuildingBlock: KIFKEQ_clean_linker_1, # of connection points: 2
#     Edge 45, Type (0, 1), BuildingBlock: KIFKEQ_clean_linker_1, # of connection points: 2
#     Edge 46, Type (0, 1), BuildingBlock: KIFKEQ_clean_linker_1, # of connection points: 2
#     Edge 47, Type (0, 1), BuildingBlock: KIFKEQ_clean_linker_1, # of connection points: 2
#     Edge 48, Type (0, 1), BuildingBlock: KIFKEQ_clean_linker_1, # of connection points: 2
#     Edge 49, Type (0, 1), BuildingBlock: KIFKEQ_clean_linker_1, # of connection points: 2
#     Edge 50, Type (0, 1), BuildingBlock: KIFKEQ_clean_linker_1, # of connection points: 2
#     Edge 51, Type (0, 1), BuildingBlock: KIFKEQ_clean_linker_1, # of connection points: 2
#     Edge 52, Type (0, 1), BuildingBlock: KIFKEQ_clean_linker_1, # of connection points: 2
#     Edge 53, Type (0, 1), BuildingBlock: KIFKEQ_clean_linker_1, # of connection points: 2
#     Edge 54, Type (0, 1), BuildingBlock: KIFKEQ_clean_linker_1, # of connection points: 2
#     Edge 55, Type (0, 1), BuildingBlock: KIFKEQ_clean_linker_1, # of connection points: 2
#     Edge 56, Type (0, 1), BuildingBlock: KIFKEQ_clean_linker_1, # of connection points: 2
#     Edge 57, Type (0, 1), BuildingBlock: KIFKEQ_clean_linker_1, # of connection points: 2
#     Edge 58, Type (0, 1), BuildingBlock: KIFKEQ_clean_linker_1, # of connection points: 2
#     Edge 59, Type (0, 1), BuildingBlock: KIFKEQ_clean_linker_1, # of connection points: 2
#     Edge 60, Type (0, 1), BuildingBlock: KIFKEQ_clean_linker_1, # of connection points: 2
#     Edge 61, Type (0, 1), BuildingBlock: KIFKEQ_clean_linker_1, # of connection points: 2
#     Edge 62, Type (0, 1), BuildingBlock: KIFKEQ_clean_linker_1, # of connection points: 2
#     Edge 63, Type (0, 1), BuildingBlock: KIFKEQ_clean_linker_1, # of connection points: 2
#     Edge 64, Type (0, 1), BuildingBlock: KIFKEQ_clean_linker_1, # of connection points: 2
#     Edge 65, Type (0, 1), BuildingBlock: KIFKEQ_clean_linker_1, # of connection points: 2
#     Edge 66, Type (0, 1), BuildingBlock: KIFKEQ_clean_linker_1, # of connection points: 2
#     Edge 67, Type (0, 1), BuildingBlock: KIFKEQ_clean_linker_1, # of connection points: 2
#     Edge 68, Type (0, 1), BuildingBlock: KIFKEQ_clean_linker_1, # of connection points: 2
#     Edge 69, Type (0, 1), BuildingBlock: KIFKEQ_clean_linker_1, # of connection points: 2
#     Edge 70, Type (0, 1), BuildingBlock: KIFKEQ_clean_linker_1, # of connection points: 2
#     Edge 71, Type (0, 1), BuildingBlock: KIFKEQ_clean_linker_1, # of connection points: 2
#     Edge 72, Type (0, 1), BuildingBlock: KIFKEQ_clean_linker_1, # of connection points: 2
#     Edge 73, Type (0, 1), BuildingBlock: KIFKEQ_clean_linker_1, # of connection points: 2
#     Edge 74, Type (0, 1), BuildingBlock: KIFKEQ_clean_linker_1, # of connection points: 2
#     Edge 75, Type (0, 1), BuildingBlock: KIFKEQ_clean_linker_1, # of connection points: 2
#     Edge 76, Type (0, 1), BuildingBlock: KIFKEQ_clean_linker_1, # of connection points: 2
#     Edge 77, Type (0, 1), BuildingBlock: KIFKEQ_clean_linker_1, # of connection points: 2
#     Edge 78, Type (0, 1), BuildingBlock: KIFKEQ_clean_linker_1, # of connection points: 2
#     Edge 79, Type (0, 1), BuildingBlock: KIFKEQ_clean_linker_1, # of connection points: 2
#     Edge 80, Type (0, 1), BuildingBlock: KIFKEQ_clean_linker_1, # of connection points: 2
# Relax obj value: 0.009
# Max RMSD: 0.095
# Mean RMSD: 0.061
data_MOF--net-eea--node1-KUMJIN_clean_sbu_0--node2-KAKCAD_clean_linker_0--edge1-KIFKEQ_clean_linker_1
_symmetry_space_group_name_H-M    P1
_symmetry_Int_Tables_number       1
_symmetry_cell_setting            triclinic
loop_
_symmetry_equiv_pos_as_xyz
'x, y, z'
_cell_length_a     63.584074
_cell_length_b     64.927278
_cell_length_c     89.544217
_cell_angle_alpha  90.307049
_cell_angle_beta   90.098117
_cell_angle_gamma 119.99421
loop_
_atom_site_label
_atom_site_type_symbol
_atom_site_fract_x
_atom_site_fract_y
_atom_site_fract_z
_atom_type_partial_charge
C0 C 0.27854 0.15235 0.48441 0.0
C1 C 0.2966 0.14656 0.48773 0.0
C2 C 0.26742 0.14721 0.47034 0.0
C3 C 0.27413 0.13621 0.45924 0.0
C4 C 0.2925 0.13085 0.46247 0.0
C5 C 0.30355 0.1359 0.47654 0.0
C6 C 0.26145 0.12965 0.44454 0.0
C7 C 0.25513 0.145 0.43732 0.0
C8 C 0.24235 0.13848 0.42367 0.0
C9 C 0.23596 0.11628 0.41727 0.0
C10 C 0.24258 0.101 0.42415 0.0
C11 C 0.25525 0.10775 0.43776 0.0
C12 C 0.23637 0.07801 0.41703 0.0
C13 C 0.21271 0.0626 0.41182 0.0
C14 C 0.25422 0.07153 0.4152 0.0
C15 C 0.24858 0.05013 0.40814 0.0
C16 C 0.22486 0.03458 0.40293 0.0
C17 C 0.23573 0.15477 0.41603 0.0
C18 C 0.22821 0.1684 0.42429 0.0
C19 C 0.23662 0.15662 0.40037 0.0
C20 C 0.22985 0.17144 0.39315 0.0
C21 C 0.2223 0.18507 0.4014 0.0
C22 C 0.22171 0.18345 0.41707 0.0
C23 C 0.20697 0.04106 0.40492 0.0
H24 H 0.27296 0.16084 0.49269 0.0
H25 H 0.25318 0.15138 0.46829 0.0
H26 H 0.29833 0.12265 0.45413 0.0
H27 H 0.3172 0.13097 0.47874 0.0
H28 H 0.26063 0.16228 0.44221 0.0
H29 H 0.25967 0.09556 0.44328 0.0
H30 H 0.22587 0.11084 0.40685 0.0
H31 H 0.19856 0.06711 0.41324 0.0
H32 H 0.27268 0.08326 0.41896 0.0
H33 H 0.26294 0.04598 0.40657 0.0
H34 H 0.22704 0.16726 0.43635 0.0
H35 H 0.24268 0.14669 0.39364 0.0
H36 H 0.18842 0.02936 0.40133 0.0
H37 H 0.21638 0.19395 0.42383 0.0
H38 H 0.23029 0.17197 0.38106 0.0
C39 C 0.88225 0.15975 0.47759 0.0
C40 C 0.8742 0.1425 0.48887 0.0
C41 C 0.88807 0.15495 0.4634 0.0
C42 C 0.88574 0.1327 0.46013 0.0
C43 C 0.87788 0.11552 0.47146 0.0
C44 C 0.87228 0.12039 0.48567 0.0
C45 C 0.89105 0.12719 0.44491 0.0
C46 C 0.91184 0.14378 0.43717 0.0
C47 C 0.91702 0.13849 0.42286 0.0
C48 C 0.90109 0.1163 0.4163 0.0
C49 C 0.87986 0.09963 0.42369 0.0
C50 C 0.87511 0.1053 0.43803 0.0
C51 C 0.86231 0.07661 0.41633 0.0
C52 C 0.8579 0.0754 0.40084 0.0
C53 C 0.8494 0.05572 0.42477 0.0
C54 C 0.83228 0.03438 0.41797 0.0
C55 C 0.82794 0.03331 0.40253 0.0
C56 C 0.93884 0.15633 0.41463 0.0
C57 C 0.94447 0.18016 0.41407 0.0
C58 C 0.954 0.14968 0.40717 0.0
C59 C 0.97453 0.16658 0.39947 0.0
C60 C 0.98028 0.19051 0.39896 0.0
C61 C 0.96483 0.19699 0.40628 0.0
C62 C 0.84106 0.05396 0.39401 0.0
H63 H 0.88413 0.17703 0.47974 0.0
H64 H 0.89393 0.1685 0.45489 0.0
H65 H 0.87611 0.09828 0.46933 0.0
H66 H 0.86595 0.10665 0.49407 0.0
H67 H 0.9243 0.16066 0.44242 0.0
H68 H 0.85854 0.09297 0.44372 0.0
H69 H 0.90516 0.11218 0.40531 0.0
H70 H 0.86705 0.09112 0.39398 0.0
H71 H 0.8526 0.05575 0.43666 0.0
H72 H 0.8226 0.01863 0.42476 0.0
H73 H 0.9329 0.18575 0.41948 0.0
H74 H 0.95023 0.13147 0.40751 0.0
H75 H 0.83787 0.05366 0.3821 0.0
H76 H 0.9683 0.2151 0.40588 0.0
H77 H 0.98613 0.16096 0.39416 0.0
C78 C 0.89409 0.75259 0.48334 0.0
C79 C 0.87041 0.73449 0.48685 0.0
C80 C 0.89955 0.76278 0.46907 0.0
C81 C 0.88147 0.7552 0.45793 0.0
C82 C 0.85783 0.73709 0.46146 0.0
C83 C 0.85238 0.72693 0.47569 0.0
C84 C 0.88706 0.76624 0.44275 0.0
C85 C 0.90896 0.77197 0.43551 0.0
C86 C 0.91432 0.78228 0.42117 0.0
C87 C 0.89718 0.78681 0.4141 0.0
C88 C 0.87499 0.78083 0.42101 0.0
C89 C 0.87026 0.77075 0.43534 0.0
C90 C 0.85637 0.78461 0.41326 0.0
C91 C 0.86276 0.80609 0.40598 0.0
C92 C 0.83182 0.76669 0.41334 0.0
C93 C 0.81405 0.77024 0.40657 0.0
C94 C 0.82022 0.79193 0.39961 0.0
C95 C 0.93748 0.78767 0.41349 0.0
C96 C 0.95912 0.79551 0.42171 0.0
C97 C 0.93811 0.78448 0.39794 0.0
C98 C 0.95958 0.78864 0.39089 0.0
C99 C 0.98095 0.79584 0.39921 0.0
C100 C 0.98047 0.7994 0.41469 0.0
C101 C 0.84491 0.80975 0.39929 0.0
H102 H 0.90853 0.75875 0.49156 0.0
H103 H 0.9179 0.77683 0.46683 0.0
H104 H 0.84346 0.73054 0.45317 0.0
H105 H 0.83388 0.71327 0.47798 0.0
H106 H 0.92152 0.76764 0.44089 0.0
H107 H 0.85351 0.7668 0.44087 0.0
H108 H 0.90094 0.79476 0.40312 0.0
H109 H 0.8815 0.82032 0.40579 0.0
H110 H 0.82632 0.74976 0.4186 0.0
H111 H 0.79541 0.75581 0.40674 0.0
H112 H 0.95965 0.79872 0.43361 0.0
H113 H 0.92185 0.77811 0.3912 0.0
H114 H 0.85042 0.82678 0.3942 0.0
H115 H 0.9967 0.80528 0.4214 0.0
H116 H 0.95925 0.7855 0.37898 0.0
C117 C 0.14291 0.24661 0.53628 0.0
C118 C 0.13849 0.26497 0.53204 0.0
C119 C 0.13748 0.23717 0.55071 0.0
C120 C 0.12747 0.24579 0.56138 0.0
C121 C 0.12274 0.26393 0.55709 0.0
C122 C 0.12818 0.27338 0.54264 0.0
C123 C 0.12226 0.23602 0.57691 0.0
C124 C 0.13854 0.23069 0.58427 0.0
C125 C 0.13384 0.22105 0.59877 0.0
C126 C 0.11234 0.21688 0.60595 0.0
C127 C 0.096 0.22254 0.59897 0.0
C128 C 0.10114 0.23205 0.58445 0.0
C129 C 0.07365 0.21877 0.60686 0.0
C130 C 0.05869 0.19756 0.61456 0.0
C131 C 0.0671 0.23648 0.6067 0.0
C132 C 0.0461 0.23306 0.61395 0.0
C133 C 0.03078 0.21167 0.62145 0.0
C134 C 0.15169 0.21582 0.6064 0.0
C135 C 0.16493 0.2076 0.59816 0.0
C136 C 0.1562 0.21959 0.62188 0.0
C137 C 0.1737 0.21568 0.62882 0.0
C138 C 0.18737 0.20817 0.62045 0.0
C139 C 0.18261 0.204 0.60506 0.0
C140 C 0.03749 0.194 0.62169 0.0
H141 H 0.15039 0.23933 0.52838 0.0
H142 H 0.14095 0.22292 0.55347 0.0
H143 H 0.11534 0.27124 0.56502 0.0
H144 H 0.12482 0.28771 0.5399 0.0
H145 H 0.15534 0.23474 0.57879 0.0
H146 H 0.08831 0.23581 0.57887 0.0
H147 H 0.10834 0.20939 0.61706 0.0
H148 H 0.0631 0.18346 0.61479 0.0
H149 H 0.07842 0.2532 0.6011 0.0
H150 H 0.04204 0.24738 0.61377 0.0
H151 H 0.16167 0.20388 0.58632 0.0
H152 H 0.14671 0.22622 0.62863 0.0
H153 H 0.02612 0.17716 0.62713 0.0
H154 H 0.19254 0.19784 0.59833 0.0
H155 H 0.17707 0.21925 0.64068 0.0
C156 C 0.71419 0.84461 0.54139 0.0
C157 C 0.72294 0.86201 0.53021 0.0
C158 C 0.72554 0.84948 0.55538 0.0
C159 C 0.74571 0.87194 0.55851 0.0
C160 C 0.75457 0.88929 0.5473 0.0
C161 C 0.74337 0.88434 0.53326 0.0
C162 C 0.75708 0.87743 0.57357 0.0
C163 C 0.76212 0.86123 0.58081 0.0
C164 C 0.77241 0.86611 0.59522 0.0
C165 C 0.7773 0.88735 0.60241 0.0
C166 C 0.7725 0.90377 0.59529 0.0
C167 C 0.76255 0.89877 0.58084 0.0
C168 C 0.77778 0.9261 0.60302 0.0
C169 C 0.77059 0.92566 0.6179 0.0
C170 C 0.79022 0.94799 0.59562 0.0
C171 C 0.79557 0.96908 0.60301 0.0
C172 C 0.78835 0.96864 0.61788 0.0
C173 C 0.77821 0.84918 0.60276 0.0
C174 C 0.76234 0.82451 0.60162 0.0
C175 C 0.79969 0.85761 0.6112 0.0
C176 C 0.80509 0.84177 0.6184 0.0
C177 C 0.78925 0.81713 0.61722 0.0
C178 C 0.76784 0.80866 0.60874 0.0
C179 C 0.77572 0.94672 0.62524 0.0
H180 H 0.69859 0.82719 0.53931 0.0
H181 H 0.71822 0.83583 0.56385 0.0
H182 H 0.77019 0.9067 0.54937 0.0
H183 H 0.75041 0.89814 0.52488 0.0
H184 H 0.75855 0.84506 0.57505 0.0
H185 H 0.75834 0.91118 0.57542 0.0
H186 H 0.78492 0.89119 0.6136 0.0
H187 H 0.7608 0.909 0.62383 0.0
H188 H 0.7961 0.94883 0.58418 0.0
H189 H 0.80515 0.98572 0.59703 0.0
H190 H 0.74548 0.81742 0.59541 0.0
H191 H 0.81254 0.87648 0.61209 0.0
H192 H 0.77007 0.94589 0.63673 0.0
H193 H 0.75514 0.78975 0.60779 0.0
H194 H 0.82189 0.8488 0.62467 0.0
C195 C 0.11341 0.85107 0.53582 0.0
C196 C 0.13745 0.85721 0.53242 0.0
C197 C 0.10751 0.85595 0.54998 0.0
C198 C 0.12554 0.86719 0.56105 0.0
C199 C 0.1495 0.87316 0.55766 0.0
C200 C 0.15538 0.86827 0.54355 0.0
C201 C 0.11962 0.87314 0.57601 0.0
C202 C 0.09844 0.85689 0.58361 0.0
C203 C 0.09312 0.86235 0.59788 0.0
C204 C 0.10941 0.88447 0.60446 0.0
C205 C 0.13076 0.90086 0.5971 0.0
C206 C 0.13554 0.89508 0.58284 0.0
C207 C 0.14835 0.92383 0.60438 0.0
C208 C 0.14025 0.93712 0.6125 0.0
C209 C 0.17348 0.93255 0.60334 0.0
C210 C 0.19008 0.95402 0.61021 0.0
C211 C 0.18201 0.96732 0.61835 0.0
C212 C 0.07088 0.84482 0.60606 0.0
C213 C 0.04894 0.83044 0.59836 0.0
C214 C 0.07141 0.84222 0.62165 0.0
C215 C 0.05063 0.82571 0.6293 0.0
C216 C 0.02888 0.81115 0.62154 0.0
C217 C 0.02825 0.81375 0.606 0.0
C218 C 0.15687 0.9586 0.6194 0.0
H219 H 0.09911 0.84234 0.52757 0.0
H220 H 0.08891 0.85127 0.55219 0.0
H221 H 0.1638 0.88156 0.56595 0.0
H222 H 0.17413 0.87352 0.5413 0.0
H223 H 0.08651 0.83966 0.5786 0.0
H224 H 0.15159 0.90793 0.57692 0.0
H225 H 0.10558 0.8889 0.61542 0.0
H226 H 0.12104 0.93105 0.61341 0.0
H227 H 0.18036 0.92264 0.59734 0.0
H228 H 0.20929 0.9603 0.60901 0.0
H229 H 0.04764 0.8322 0.58643 0.0
H230 H 0.08804 0.8526 0.62796 0.0
H231 H 0.14999 0.96825 0.62569 0.0
H232 H 0.01165 0.80296 0.59973 0.0
H233 H 0.05177 0.82389 0.64125 0.0
C234 C 0.94551 0.48387 0.818 0.0
C235 C 0.96322 0.47759 0.82123 0.0
C236 C 0.9343 0.47895 0.80397 0.0
C237 C 0.94058 0.46771 0.7928 0.0
C238 C 0.95863 0.46185 0.79594 0.0
C239 C 0.96977 0.46668 0.80999 0.0
C240 C 0.92775 0.46141 0.77814 0.0
C241 C 0.92168 0.47707 0.77109 0.0
C242 C 0.90843 0.47071 0.7576 0.0
C243 C 0.90137 0.44836 0.75119 0.0
C244 C 0.90792 0.43286 0.75783 0.0
C245 C 0.92103 0.43943 0.77129 0.0
C246 C 0.90121 0.40984 0.7506 0.0
C247 C 0.87715 0.39433 0.74607 0.0
C248 C 0.91899 0.4035 0.7479 0.0
C249 C 0.91288 0.38214 0.7406 0.0
C250 C 0.88881 0.3666 0.73611 0.0
C251 C 0.90204 0.48734 0.75016 0.0
C252 C 0.89594 0.50191 0.75862 0.0
C253 C 0.90179 0.48866 0.73449 0.0
C254 C 0.89526 0.50381 0.72747 0.0
C255 C 0.88923 0.51844 0.73592 0.0
C256 C 0.88982 0.51738 0.75161 0.0
C257 C 0.87096 0.37278 0.73899 0.0
H258 H 0.94025 0.49259 0.82632 0.0
H259 H 0.9203 0.48351 0.802 0.0
H260 H 0.96413 0.45344 0.78754 0.0
H261 H 0.98316 0.46138 0.81212 0.0
H262 H 0.92772 0.49444 0.776 0.0
H263 H 0.92534 0.42704 0.77663 0.0
H264 H 0.89086 0.44295 0.74093 0.0
H265 H 0.86312 0.39882 0.74809 0.0
H266 H 0.9377 0.41526 0.75121 0.0
H267 H 0.92692 0.37766 0.73858 0.0
H268 H 0.89562 0.50121 0.77071 0.0
H269 H 0.90678 0.47807 0.72757 0.0
H270 H 0.85229 0.36111 0.73557 0.0
H271 H 0.88572 0.52863 0.75853 0.0
H272 H 0.89471 0.50381 0.71539 0.0
C273 C 0.55036 0.49163 0.81273 0.0
C274 C 0.54087 0.47376 0.82364 0.0
C275 C 0.55649 0.48709 0.79857 0.0
C276 C 0.55301 0.4645 0.79495 0.0
C277 C 0.54394 0.44676 0.80594 0.0
C278 C 0.53806 0.45138 0.82015 0.0
C279 C 0.55771 0.45914 0.77953 0.0
C280 C 0.57897 0.47513 0.77194 0.0
C281 C 0.5829 0.47087 0.757 0.0
C282 C 0.56514 0.44978 0.74994 0.0
C283 C 0.54402 0.43323 0.75749 0.0
C284 C 0.54044 0.43827 0.77224 0.0
C285 C 0.52568 0.41068 0.75 0.0
C286 C 0.52043 0.41009 0.73467 0.0
C287 C 0.51335 0.38944 0.75814 0.0
C288 C 0.49623 0.36827 0.75119 0.0
C289 C 0.49119 0.36759 0.73583 0.0
C290 C 0.60516 0.48853 0.74871 0.0
C291 C 0.61675 0.51295 0.75225 0.0
C292 C 0.61485 0.48132 0.73698 0.0
C293 C 0.63481 0.49797 0.72877 0.0
C294 C 0.64644 0.5224 0.73235 0.0
C295 C 0.63726 0.52947 0.74443 0.0
C296 C 0.50357 0.38882 0.72767 0.0
H297 H 0.55295 0.50912 0.81513 0.0
H298 H 0.56329 0.50107 0.79031 0.0
H299 H 0.54123 0.42923 0.8035 0.0
H300 H 0.53065 0.4372 0.82827 0.0
H301 H 0.59256 0.49073 0.77787 0.0
H302 H 0.52377 0.42626 0.77796 0.0
H303 H 0.56764 0.44615 0.73849 0.0
H304 H 0.52919 0.42609 0.72804 0.0
H305 H 0.51708 0.38903 0.7699 0.0
H306 H 0.48683 0.35247 0.75796 0.0
H307 H 0.60991 0.5196 0.76096 0.0
H308 H 0.60712 0.46275 0.73402 0.0
H309 H 0.50051 0.38906 0.71579 0.0
H310 H 0.64583 0.54785 0.74802 0.0
H311 H 0.64081 0.49149 0.7195 0.0
C312 C 0.5589 0.08563 0.8171 0.0
C313 C 0.53508 0.06781 0.82061 0.0
C314 C 0.56454 0.09582 0.80284 0.0
C315 C 0.54652 0.08853 0.79168 0.0
C316 C 0.52273 0.07071 0.7952 0.0
C317 C 0.5171 0.06056 0.80943 0.0
C318 C 0.55235 0.09955 0.77648 0.0
C319 C 0.57428 0.10505 0.76935 0.0
C320 C 0.57992 0.11541 0.75502 0.0
C321 C 0.56309 0.12028 0.74789 0.0
C322 C 0.54089 0.11456 0.75468 0.0
C323 C 0.53581 0.10435 0.76898 0.0
C324 C 0.52268 0.11878 0.74679 0.0
C325 C 0.52961 0.14052 0.73969 0.0
C326 C 0.49806 0.10097 0.74641 0.0
C327 C 0.48081 0.10477 0.73912 0.0
C328 C 0.48764 0.12658 0.73215 0.0
C329 C 0.60308 0.12056 0.74743 0.0
C330 C 0.62463 0.12823 0.7557 0.0
C331 C 0.60378 0.1174 0.73188 0.0
C332 C 0.62525 0.1215 0.72488 0.0
C333 C 0.64657 0.12861 0.73324 0.0
C334 C 0.646 0.13207 0.74873 0.0
C335 C 0.51226 0.14445 0.73255 0.0
H336 H 0.5733 0.09156 0.82533 0.0
H337 H 0.583 0.10965 0.80062 0.0
H338 H 0.5084 0.06439 0.7869 0.0
H339 H 0.4985 0.04714 0.8117 0.0
H340 H 0.58663 0.10051 0.77479 0.0
H341 H 0.51903 0.10056 0.77439 0.0
H342 H 0.5671 0.12833 0.73693 0.0
H343 H 0.54841 0.15464 0.73985 0.0
H344 H 0.49214 0.08396 0.75167 0.0
H345 H 0.46198 0.09071 0.73914 0.0
H346 H 0.62509 0.13139 0.76761 0.0
H347 H 0.58757 0.11115 0.72511 0.0
H348 H 0.51815 0.1614 0.72723 0.0
H349 H 0.66218 0.13788 0.75547 0.0
H350 H 0.62497 0.1184 0.71297 0.0
C351 C 0.80809 0.58097 0.86908 0.0
C352 C 0.80495 0.60039 0.86561 0.0
C353 C 0.80288 0.57103 0.8834 0.0
C354 C 0.79414 0.58006 0.89462 0.0
C355 C 0.79066 0.59924 0.89109 0.0
C356 C 0.79609 0.60933 0.87681 0.0
C357 C 0.78892 0.56965 0.90995 0.0
C358 C 0.80513 0.56398 0.91704 0.0
C359 C 0.80053 0.55411 0.93149 0.0
C360 C 0.77907 0.54983 0.93879 0.0
C361 C 0.76274 0.5557 0.93202 0.0
C362 C 0.76788 0.5656 0.91761 0.0
C363 C 0.74041 0.5518 0.94001 0.0
C364 C 0.72545 0.53044 0.94758 0.0
C365 C 0.73382 0.56948 0.94003 0.0
C366 C 0.71275 0.56587 0.94727 0.0
C367 C 0.6974 0.54432 0.9546 0.0
C368 C 0.81849 0.54891 0.939 0.0
C369 C 0.83184 0.54091 0.93067 0.0
C370 C 0.82303 0.55254 0.95449 0.0
C371 C 0.84061 0.54866 0.96134 0.0
C372 C 0.85435 0.54133 0.95289 0.0
C373 C 0.84959 0.53734 0.93749 0.0
C374 C 0.70418 0.52671 0.95472 0.0
H375 H 0.81505 0.57374 0.86079 0.0
H376 H 0.80557 0.55613 0.88567 0.0
H377 H 0.78413 0.60677 0.89946 0.0
H378 H 0.79323 0.62411 0.87452 0.0
H379 H 0.82183 0.56802 0.91143 0.0
H380 H 0.75515 0.56968 0.91219 0.0
H381 H 0.7751 0.54211 0.94984 0.0
H382 H 0.72988 0.51636 0.94769 0.0
H383 H 0.74514 0.58631 0.93455 0.0
H384 H 0.70864 0.58016 0.9472 0.0
H385 H 0.82858 0.53734 0.91881 0.0
H386 H 0.81349 0.55902 0.96131 0.0
H387 H 0.69279 0.50977 0.96005 0.0
H388 H 0.85958 0.53132 0.93068 0.0
H389 H 0.84397 0.55211 0.97321 0.0
C390 C 0.3811 0.17673 0.87432 0.0
C391 C 0.38964 0.19417 0.86316 0.0
C392 C 0.39235 0.18174 0.88834 0.0
C393 C 0.41221 0.20438 0.89153 0.0
C394 C 0.42085 0.22177 0.88034 0.0
C395 C 0.40976 0.21668 0.86627 0.0
C396 C 0.42354 0.21002 0.9066 0.0
C397 C 0.42904 0.19412 0.91384 0.0
C398 C 0.43951 0.19927 0.9282 0.0
C399 C 0.44417 0.22047 0.93534 0.0
C400 C 0.43883 0.23656 0.92826 0.0
C401 C 0.42864 0.23126 0.91386 0.0
C402 C 0.44383 0.25885 0.93596 0.0
C403 C 0.43775 0.25859 0.95107 0.0
C404 C 0.45489 0.28056 0.9283 0.0
C405 C 0.45989 0.30159 0.93562 0.0
C406 C 0.45384 0.30136 0.95074 0.0
C407 C 0.44568 0.18263 0.93576 0.0
C408 C 0.42994 0.15791 0.93482 0.0
C409 C 0.46731 0.19137 0.94408 0.0
C410 C 0.47297 0.17578 0.95138 0.0
C411 C 0.45724 0.1511 0.95042 0.0
C412 C 0.43569 0.14233 0.94204 0.0
C413 C 0.44267 0.2796 0.95837 0.0
H414 H 0.36574 0.15917 0.87219 0.0
H415 H 0.38522 0.16806 0.89679 0.0
H416 H 0.43625 0.23931 0.88246 0.0
H417 H 0.41662 0.23052 0.85792 0.0
H418 H 0.4257 0.17801 0.9081 0.0
H419 H 0.42399 0.24338 0.90846 0.0
H420 H 0.452 0.22451 0.94646 0.0
H421 H 0.42888 0.24206 0.9572 0.0
H422 H 0.46007 0.28134 0.91671 0.0
H423 H 0.46885 0.3181 0.92947 0.0
H424 H 0.41297 0.1506 0.9287 0.0
H425 H 0.48005 0.21028 0.94482 0.0
H426 H 0.4374 0.27874 0.96995 0.0
H427 H 0.42306 0.12339 0.94126 0.0
H428 H 0.48987 0.18304 0.95758 0.0
C429 C 0.78095 0.18594 0.8689 0.0
C430 C 0.80515 0.19294 0.86534 0.0
C431 C 0.77485 0.18993 0.88324 0.0
C432 C 0.79282 0.20099 0.89436 0.0
C433 C 0.8169 0.20746 0.89086 0.0
C434 C 0.82298 0.20352 0.87656 0.0
C435 C 0.7868 0.20642 0.90943 0.0
C436 C 0.76561 0.18991 0.91693 0.0
C437 C 0.76017 0.19501 0.93127 0.0
C438 C 0.7763 0.21702 0.93802 0.0
C439 C 0.79763 0.23366 0.93076 0.0
C440 C 0.80256 0.22825 0.91644 0.0
C441 C 0.81505 0.25654 0.9382 0.0
C442 C 0.80675 0.26963 0.94635 0.0
C443 C 0.8402 0.2654 0.93723 0.0
C444 C 0.85665 0.28683 0.94419 0.0
C445 C 0.84838 0.29996 0.95233 0.0
C446 C 0.73791 0.17727 0.93933 0.0
C447 C 0.71599 0.16308 0.93157 0.0
C448 C 0.73838 0.17436 0.95489 0.0
C449 C 0.71755 0.15778 0.96246 0.0
C450 C 0.69579 0.14346 0.95465 0.0
C451 C 0.69523 0.14632 0.93912 0.0
C452 C 0.82322 0.29109 0.95333 0.0
H453 H 0.76679 0.1779 0.86049 0.0
H454 H 0.75617 0.18491 0.88551 0.0
H455 H 0.83113 0.21553 0.89923 0.0
H456 H 0.8417 0.20865 0.87433 0.0
H457 H 0.75376 0.17278 0.91178 0.0
H458 H 0.81859 0.24132 0.9106 0.0
H459 H 0.77237 0.2212 0.94902 0.0
H460 H 0.78751 0.26344 0.94721 0.0
H461 H 0.84722 0.25564 0.93119 0.0
H462 H 0.8759 0.29325 0.94304 0.0
H463 H 0.71475 0.16507 0.91966 0.0
H464 H 0.75499 0.18458 0.96124 0.0
H465 H 0.8162 0.30062 0.95963 0.0
H466 H 0.67863 0.13572 0.93282 0.0
H467 H 0.71863 0.15575 0.97439 0.0
C468 C 0.60683 0.81383 0.15224 0.0
C469 C 0.62308 0.80595 0.15606 0.0
C470 C 0.597 0.8101 0.13783 0.0
C471 C 0.60329 0.79846 0.12693 0.0
C472 C 0.61975 0.79083 0.13074 0.0
C473 C 0.62948 0.79449 0.14513 0.0
C474 C 0.59281 0.79419 0.11161 0.0
C475 C 0.59028 0.81181 0.10416 0.0
C476 C 0.58103 0.808 0.08952 0.0
C477 C 0.57502 0.78652 0.0822 0.0
C478 C 0.57722 0.76852 0.08946 0.0
C479 C 0.58568 0.77247 0.10431 0.0
C480 C 0.57087 0.74574 0.08159 0.0
C481 C 0.55296 0.73643 0.07031 0.0
C482 C 0.58287 0.73314 0.08519 0.0
C483 C 0.57683 0.71174 0.078 0.0
C484 C 0.55928 0.70266 0.06651 0.0
C485 C 0.57697 0.82611 0.08197 0.0
C486 C 0.56795 0.83867 0.09006 0.0
C487 C 0.58098 0.83024 0.06654 0.0
C488 C 0.57539 0.84593 0.05931 0.0
C489 C 0.56607 0.85814 0.0674 0.0
C490 C 0.5627 0.85462 0.08286 0.0
C491 C 0.5476 0.71551 0.06271 0.0
H492 H 0.60139 0.82252 0.16047 0.0
H493 H 0.58417 0.81596 0.1353 0.0
H494 H 0.62537 0.78225 0.12254 0.0
H495 H 0.64231 0.78861 0.14764 0.0
H496 H 0.59601 0.82871 0.10967 0.0
H497 H 0.58645 0.75849 0.11039 0.0
H498 H 0.56844 0.78382 0.07081 0.0
H499 H 0.54282 0.74511 0.06733 0.0
H500 H 0.59715 0.73976 0.09352 0.0
H501 H 0.58595 0.70235 0.08164 0.0
H502 H 0.56424 0.83569 0.10189 0.0
H503 H 0.5884 0.8213 0.06001 0.0
H504 H 0.53434 0.70963 0.05377 0.0
H505 H 0.55532 0.86367 0.08931 0.0
H506 H 0.57844 0.8486 0.04741 0.0
C507 C 0.21536 0.8255 0.14423 0.0
C508 C 0.20713 0.80819 0.15549 0.0
C509 C 0.22134 0.82074 0.13009 0.0
C510 C 0.219 0.79847 0.12684 0.0
C511 C 0.21099 0.78125 0.13814 0.0
C512 C 0.20522 0.78609 0.15231 0.0
C513 C 0.22444 0.793 0.11164 0.0
C514 C 0.24532 0.80959 0.10398 0.0
C515 C 0.2506 0.80435 0.08968 0.0
C516 C 0.23468 0.78222 0.08305 0.0
C517 C 0.21335 0.76556 0.09037 0.0
C518 C 0.20851 0.77116 0.1047 0.0
C519 C 0.19579 0.74264 0.08292 0.0
C520 C 0.19146 0.74162 0.06744 0.0
C521 C 0.1828 0.72168 0.09125 0.0
C522 C 0.16568 0.70043 0.08436 0.0
C523 C 0.1613 0.69942 0.06888 0.0
C524 C 0.27247 0.8222 0.08152 0.0
C525 C 0.27809 0.84602 0.08092 0.0
C526 C 0.28769 0.81555 0.07411 0.0
C527 C 0.30824 0.83245 0.06643 0.0
C528 C 0.31396 0.85636 0.06589 0.0
C529 C 0.29847 0.86285 0.07315 0.0
C530 C 0.17461 0.72029 0.06051 0.0
H531 H 0.21723 0.84277 0.14637 0.0
H532 H 0.22732 0.83432 0.1216 0.0
H533 H 0.20921 0.76401 0.13602 0.0
H534 H 0.19875 0.77232 0.1607 0.0
H535 H 0.25778 0.82643 0.10927 0.0
H536 H 0.19187 0.75884 0.11033 0.0
H537 H 0.23882 0.77815 0.07208 0.0
H538 H 0.20079 0.75739 0.06064 0.0
H539 H 0.18583 0.7216 0.10315 0.0
H540 H 0.15564 0.68489 0.09126 0.0
H541 H 0.26648 0.8516 0.08629 0.0
H542 H 0.28392 0.79735 0.07447 0.0
H543 H 0.17212 0.72023 0.04855 0.0
H544 H 0.30192 0.88094 0.07272 0.0
H545 H 0.31988 0.82683 0.06117 0.0
C546 C 0.22639 0.41898 0.14988 0.0
C547 C 0.20267 0.40114 0.15355 0.0
C548 C 0.23176 0.42892 0.13554 0.0
C549 C 0.21355 0.42136 0.12449 0.0
C550 C 0.18987 0.40351 0.12818 0.0
C551 C 0.18451 0.39361 0.14248 0.0
C552 C 0.219 0.43207 0.10921 0.0
C553 C 0.24071 0.43742 0.10186 0.0
C554 C 0.24562 0.44697 0.08732 0.0
C555 C 0.22843 0.45135 0.08021 0.0
C556 C 0.20657 0.44602 0.08731 0.0
C557 C 0.20214 0.43652 0.1018 0.0
C558 C 0.18799 0.44989 0.0796 0.0
C559 C 0.19454 0.47124 0.07212 0.0
C560 C 0.16335 0.43223 0.07994 0.0
C561 C 0.14566 0.43591 0.07318 0.0
C562 C 0.152 0.4575 0.06601 0.0
C563 C 0.26836 0.45174 0.07944 0.0
C564 C 0.29065 0.46151 0.08716 0.0
C565 C 0.26793 0.44619 0.06418 0.0
C566 C 0.2891 0.45009 0.05689 0.0
C567 C 0.31136 0.45971 0.06463 0.0
C568 C 0.31183 0.46546 0.07986 0.0
C569 C 0.17677 0.47505 0.06546 0.0
H570 H 0.24092 0.42511 0.15803 0.0
H571 H 0.25016 0.44277 0.13317 0.0
H572 H 0.17539 0.39696 0.11996 0.0
H573 H 0.16596 0.38017 0.14488 0.0
H574 H 0.25344 0.43334 0.10726 0.0
H575 H 0.1856 0.43297 0.10743 0.0
H576 H 0.23193 0.45871 0.06906 0.0
H577 H 0.21336 0.48527 0.07174 0.0
H578 H 0.15773 0.41541 0.08537 0.0
H579 H 0.12695 0.42167 0.07353 0.0
H580 H 0.29178 0.46623 0.09887 0.0
H581 H 0.2511 0.43841 0.05789 0.0
H582 H 0.18243 0.492 0.06021 0.0
H583 H 0.32852 0.47264 0.08626 0.0
H584 H 0.28802 0.44565 0.04513 0.0
C585 C 0.47543 0.91439 0.20245 0.0
C586 C 0.47233 0.93384 0.19904 0.0
C587 C 0.47018 0.90436 0.21675 0.0
C588 C 0.46144 0.91335 0.228 0.0
C589 C 0.45797 0.93256 0.22452 0.0
C590 C 0.46346 0.94274 0.21026 0.0
C591 C 0.45623 0.90287 0.24331 0.0
C592 C 0.47254 0.89729 0.25038 0.0
C593 C 0.46794 0.88727 0.26478 0.0
C594 C 0.44635 0.88268 0.27204 0.0
C595 C 0.42993 0.88845 0.2653 0.0
C596 C 0.4351 0.8986 0.25096 0.0
C597 C 0.40748 0.88411 0.27331 0.0
C598 C 0.39261 0.86243 0.28058 0.0
C599 C 0.40081 0.90175 0.2738 0.0
C600 C 0.37994 0.89789 0.28144 0.0
C601 C 0.36498 0.87617 0.28864 0.0
C602 C 0.48597 0.88218 0.27231 0.0
C603 C 0.49952 0.87441 0.26398 0.0
C604 C 0.49028 0.88562 0.28782 0.0
C605 C 0.5078 0.88171 0.29473 0.0
C606 C 0.5217 0.87454 0.2863 0.0
C607 C 0.51721 0.8708 0.27086 0.0
C608 C 0.37153 0.85843 0.28806 0.0
H609 H 0.4824 0.90719 0.19415 0.0
H610 H 0.47285 0.88945 0.21899 0.0
H611 H 0.45142 0.94003 0.23291 0.0
H612 H 0.46065 0.95756 0.20801 0.0
H613 H 0.48929 0.9015 0.24477 0.0
H614 H 0.42231 0.90264 0.24559 0.0
H615 H 0.44236 0.87479 0.28303 0.0
H616 H 0.39714 0.84841 0.28034 0.0
H617 H 0.41193 0.91871 0.26841 0.0
H618 H 0.37532 0.91185 0.28154 0.0
H619 H 0.49645 0.87102 0.2521 0.0
H620 H 0.4806 0.89195 0.29463 0.0
H621 H 0.3605 0.84155 0.29355 0.0
H622 H 0.52734 0.86492 0.26408 0.0
H623 H 0.51096 0.88499 0.30662 0.0
C624 C 0.04579 0.50832 0.20764 0.0
C625 C 0.0541 0.52565 0.19641 0.0
C626 C 0.05721 0.51355 0.22163 0.0
C627 C 0.07696 0.5363 0.2247 0.0
C628 C 0.08533 0.55358 0.21345 0.0
C629 C 0.0741 0.54827 0.19943 0.0
C630 C 0.08856 0.54222 0.23969 0.0
C631 C 0.09482 0.52679 0.24681 0.0
C632 C 0.10605 0.5325 0.26095 0.0
C633 C 0.11083 0.55385 0.26795 0.0
C634 C 0.10447 0.56939 0.26107 0.0
C635 C 0.09336 0.56339 0.24691 0.0
C636 C 0.10937 0.59179 0.26872 0.0
C637 C 0.10662 0.59241 0.28428 0.0
C638 C 0.11702 0.61279 0.26054 0.0
C639 C 0.1218 0.63384 0.26775 0.0
C640 C 0.11934 0.63444 0.2833 0.0
C641 C 0.11262 0.51617 0.26855 0.0
C642 C 0.09671 0.49147 0.26823 0.0
C643 C 0.13458 0.52523 0.27656 0.0
C644 C 0.14026 0.50999 0.28427 0.0
C645 C 0.1242 0.48531 0.28411 0.0
C646 C 0.10245 0.47621 0.27589 0.0
C647 C 0.11173 0.61355 0.2915 0.0
H648 H 0.03051 0.49069 0.20559 0.0
H649 H 0.05031 0.49995 0.23013 0.0
H650 H 0.10063 0.57121 0.21549 0.0
H651 H 0.08078 0.56203 0.19102 0.0
H652 H 0.09149 0.51062 0.24116 0.0
H653 H 0.08783 0.57492 0.24162 0.0
H654 H 0.11948 0.55834 0.27883 0.0
H655 H 0.10027 0.57651 0.29091 0.0
H656 H 0.11973 0.61311 0.24859 0.0
H657 H 0.12789 0.6498 0.26119 0.0
H658 H 0.07956 0.48391 0.26228 0.0
H659 H 0.14742 0.54415 0.27687 0.0
H660 H 0.10942 0.6135 0.30349 0.0
H661 H 0.08983 0.45726 0.27533 0.0
H662 H 0.15708 0.51763 0.29057 0.0
C663 C 0.44809 0.51777 0.20258 0.0
C664 C 0.47218 0.52411 0.19914 0.0
C665 C 0.44211 0.52238 0.2168 0.0
C666 C 0.46011 0.53357 0.22789 0.0
C667 C 0.48412 0.5397 0.22446 0.0
C668 C 0.49007 0.53509 0.2103 0.0
C669 C 0.45418 0.53928 0.24291 0.0
C670 C 0.43304 0.5229 0.25052 0.0
C671 C 0.42801 0.52808 0.26495 0.0
C672 C 0.44436 0.55005 0.27164 0.0
C673 C 0.4655 0.56667 0.26422 0.0
C674 C 0.47013 0.56116 0.24984 0.0
C675 C 0.48299 0.58965 0.27154 0.0
C676 C 0.47474 0.60265 0.27985 0.0
C677 C 0.50816 0.59871 0.27032 0.0
C678 C 0.52465 0.62026 0.27716 0.0
C679 C 0.51642 0.63328 0.28544 0.0
C680 C 0.40598 0.51047 0.27319 0.0
C681 C 0.38345 0.49752 0.26586 0.0
C682 C 0.40729 0.50669 0.28855 0.0
C683 C 0.3866 0.4905 0.29638 0.0
C684 C 0.36402 0.47763 0.28909 0.0
C685 C 0.36273 0.48132 0.27372 0.0
C686 C 0.49126 0.6242 0.28673 0.0
H687 H 0.4338 0.50909 0.19431 0.0
H688 H 0.42347 0.51755 0.21903 0.0
H689 H 0.4984 0.54806 0.23277 0.0
H690 H 0.50885 0.54051 0.20804 0.0
H691 H 0.42092 0.50579 0.24543 0.0
H692 H 0.48608 0.57415 0.2439 0.0
H693 H 0.44068 0.55417 0.28274 0.0
H694 H 0.4555 0.59637 0.28085 0.0
H695 H 0.51515 0.58897 0.26423 0.0
H696 H 0.54389 0.62653 0.27615 0.0
H697 H 0.38174 0.50011 0.25408 0.0
H698 H 0.4244 0.51612 0.29452 0.0
H699 H 0.48431 0.63394 0.29286 0.0
H700 H 0.34572 0.4715 0.26768 0.0
H701 H 0.38827 0.48827 0.30822 0.0
Eu702 Eu 0.49328 0.98331 0.99207 0.0
C703 C 0.5493 0.07412 0.03261 0.0
C704 C 0.59136 0.08401 0.0313 0.0
C705 C 0.58148 0.11533 0.03502 0.0
C706 C 0.56636 0.06708 0.03078 0.0
C707 C 0.55664 0.09826 0.03508 0.0
C708 C 0.59881 0.10822 0.03311 0.0
C709 C 0.51446 0.0866 0.03867 0.0
N710 N 0.52548 0.05718 0.0327 0.0
C711 C 0.5081 0.06288 0.03622 0.0
C712 C 0.53882 0.10441 0.03792 0.0
Eu713 Eu 0.51599 0.01762 0.02775 0.0
N714 N 0.55854 0.04355 0.02914 0.0
C715 C 0.57475 0.03557 0.02905 0.0
C716 C 0.6081 0.07605 0.03033 0.0
C717 C 0.59974 0.05169 0.02942 0.0
H718 H 0.48923 0.04915 0.03672 0.0
H719 H 0.61252 0.0453 0.02895 0.0
H720 H 0.61793 0.12152 0.03339 0.0
H721 H 0.50059 0.09112 0.04111 0.0
H722 H 0.56857 0.01682 0.02827 0.0
H723 H 0.39658 0.9555 0.99256 0.0
H724 H 0.62746 0.08849 0.03062 0.0
H725 H 0.5189 0.95245 0.97982 0.0
H726 H 0.44045 0.98392 0.99254 0.0
H727 H 0.50743 0.91076 0.97423 0.0
H728 H 0.58749 0.134 0.03676 0.0
H729 H 0.38153 0.91231 0.9907 0.0
H730 H 0.39091 0.87933 0.98694 0.0
H731 H 0.54372 0.12277 0.03987 0.0
H732 H 0.42115 0.86708 0.98187 0.0
N733 N 0.45055 0.95725 0.99119 0.0
C734 C 0.43432 0.9652 0.99167 0.0
C735 C 0.4009 0.92474 0.99071 0.0
C736 C 0.41757 0.9168 0.98916 0.0
C737 C 0.40932 0.9491 0.99171 0.0
C738 C 0.44259 0.93374 0.98932 0.0
H739 H 0.46464 0.87874 0.97679 0.0
N740 N 0.48317 0.94391 0.9859 0.0
C741 C 0.49376 0.91499 0.97779 0.0
C742 C 0.45949 0.92683 0.98659 0.0
C743 C 0.50019 0.93856 0.98094 0.0
C744 C 0.46961 0.89697 0.9793 0.0
C745 C 0.45203 0.90283 0.98347 0.0
O746 O 0.51135 0.98978 0.97039 0.0
O747 O 0.52378 0.01398 1.00393 0.0
O748 O 0.51192 0.04123 0.01088 0.0
O749 O 0.48311 0.01222 0.99499 0.0
O750 O 0.53316 0.99503 0.98952 0.0
O751 O 0.48084 0.99529 0.97294 0.0
O752 O 0.49744 0.012 0.04916 0.0
O753 O 0.48573 0.98638 0.0161 0.0
O754 O 0.50034 0.96013 0.00779 0.0
O755 O 0.52539 0.98813 0.02586 0.0
O756 O 0.47609 0.00577 0.03004 0.0
O757 O 0.52891 0.00769 0.04763 0.0
C758 C 0.54157 0.01314 0.99841 0.0
C759 C 0.4872 0.98391 0.94899 0.0
C760 C 0.48592 0.98681 0.92171 0.0
C761 C 0.49498 0.99754 0.93582 0.0
C762 C 0.46925 0.9622 0.92111 0.0
C763 C 0.47044 0.95952 0.94801 0.0
C764 C 0.4616 0.94875 0.93414 0.0
C765 C 0.49523 0.03431 1.00024 0.0
C766 C 0.49658 0.99518 0.96369 0.0
C767 C 0.42724 0.88566 0.98406 0.0
C768 C 0.41003 0.89264 0.98694 0.0
C769 C 0.46787 0.98717 0.02158 0.0
C770 C 0.52083 0.0192 0.07112 0.0
C771 C 0.51381 0.00557 0.08431 0.0
C772 C 0.52136 0.01667 0.09848 0.0
C773 C 0.53585 0.04165 0.09908 0.0
C774 C 0.53547 0.04396 0.07212 0.0
C775 C 0.54287 0.05508 0.08602 0.0
C776 C 0.51539 0.96684 0.0194 0.0
C777 C 0.51248 0.00752 0.05642 0.0
H778 H 0.50775 0.01646 0.93661 0.0
H779 H 0.46226 0.95321 0.91051 0.0
H780 H 0.46421 0.94879 0.95798 0.0
H781 H 0.44878 0.92986 0.93348 0.0
H782 H 0.50272 0.98639 0.08348 0.0
H783 H 0.54154 0.05097 0.10969 0.0
H784 H 0.54105 0.0547 0.06215 0.0
H785 H 0.554 0.07425 0.0867 0.0
Eu786 Eu 0.02345 0.50594 0.99336 0.0
C787 C 0.92598 0.47209 0.02765 0.0
C788 C 0.91633 0.50339 0.02393 0.0
C789 C 0.88383 0.46262 0.02727 0.0
C790 C 0.93352 0.49579 0.02515 0.0
C791 C 0.90108 0.45532 0.02909 0.0
C792 C 0.89144 0.4866 0.02468 0.0
C793 C 0.91224 0.42581 0.03523 0.0
N794 N 0.94308 0.46565 0.02943 0.0
C795 C 0.93671 0.44312 0.03375 0.0
C796 C 0.89431 0.43186 0.0327 0.0
Eu797 Eu 0.98402 0.49569 0.02625 0.0
N798 N 0.9577 0.51156 0.02453 0.0
C799 C 0.96596 0.5354 0.02375 0.0
C800 C 0.92469 0.52769 0.02232 0.0
C801 C 0.94962 0.54379 0.02243 0.0
H802 H 0.95055 0.43838 0.03564 0.0
H803 H 0.95627 0.56266 0.02143 0.0
H804 H 0.87797 0.49207 0.0236 0.0
H805 H 0.90722 0.40784 0.0383 0.0
H806 H 0.98517 0.54803 0.02373 0.0
H807 H 0.05022 0.4383 0.99939 0.0
H808 H 0.91207 0.53424 0.02127 0.0
H809 H 0.0573 0.56152 0.98122 0.0
H810 H 0.0218 0.45328 0.99637 0.0
H811 H 0.10069 0.5915 0.97792 0.0
H812 H 0.8646 0.44995 0.02819 0.0
H813 H 0.0945 0.46635 0.99997 0.0
H814 H 0.12899 0.50828 0.99733 0.0
H815 H 0.87537 0.41844 0.0339 0.0
H816 H 0.14281 0.55015 0.9915 0.0
N817 N 0.04952 0.48971 0.99567 0.0
C818 C 0.04102 0.46582 0.99654 0.0
C819 C 0.08208 0.47308 0.99863 0.0
C820 C 0.09073 0.49738 0.99674 0.0
C821 C 0.05711 0.45719 0.99827 0.0
C822 C 0.07376 0.50521 0.99514 0.0
H823 H 0.13238 0.58127 0.98392 0.0
N824 N 0.06457 0.53509 0.98948 0.0
C825 C 0.09558 0.57395 0.98199 0.0
C826 C 0.08154 0.5287 0.99199 0.0
C827 C 0.07107 0.55697 0.98384 0.0
C828 C 0.11341 0.56813 0.98544 0.0
C829 C 0.10648 0.54511 0.9902 0.0
O830 O 0.02115 0.51681 0.97064 0.0
O831 O 0.9905 0.50538 1.00225 0.0
O832 O 0.96195 0.46741 0.00909 0.0
O833 O 0.99299 0.4671 0.99544 0.0
O834 O 0.01123 0.53253 0.98774 0.0
O835 O 0.01504 0.4814 0.97458 0.0
O836 O 0.98639 0.48384 0.04863 0.0
O837 O 0.01745 0.49693 0.01754 0.0
O838 O 0.04512 0.53658 0.00934 0.0
O839 O 0.01462 0.53442 0.02511 0.0
O840 O 0.99602 0.46888 0.0314 0.0
O841 O 0.99053 0.5188 0.0456 0.0
C842 C 0.99165 0.52297 0.99557 0.0
C843 C 0.03237 0.49927 0.95154 0.0
C844 C 0.03666 0.49956 0.92444 0.0
C845 C 0.02259 0.49695 0.93718 0.0
C846 C 0.06075 0.50457 0.92637 0.0
C847 C 0.05634 0.5041 0.95323 0.0
C848 C 0.07044 0.50676 0.94069 0.0
C849 C 0.96989 0.4573 0.99951 0.0
C850 C 0.01744 0.49698 0.96461 0.0
C851 C 0.12355 0.53774 0.99262 0.0
C852 C 0.11568 0.5139 0.99592 0.0
C853 C 0.01609 0.47912 0.02405 0.0
C854 C 0.97452 0.49943 0.06856 0.0
C855 C 0.98541 0.5025 0.08264 0.0
C856 C 0.97171 0.49819 0.09578 0.0
C857 C 0.94686 0.4909 0.0945 0.0
C858 C 0.94982 0.4923 0.06752 0.0
C859 C 0.93608 0.48807 0.08046 0.0
C860 C 0.03713 0.54539 0.01985 0.0
C861 C 0.98917 0.50305 0.05515 0.0
H862 H 0.00391 0.49284 0.93597 0.0
H863 H 0.07221 0.50706 0.91684 0.0
H864 H 0.06414 0.50583 0.9642 0.0
H865 H 0.08898 0.51062 0.94206 0.0
H866 H 0.00463 0.5084 0.08331 0.0
H867 H 0.93565 0.48704 0.10433 0.0
H868 H 0.94115 0.4899 0.05676 0.0
H869 H 0.91696 0.48241 0.07961 0.0
Eu870 Eu 0.51699 0.49478 0.02739 0.0
C871 C 0.45919 0.53131 0.98972 0.0
C872 C 0.41683 0.50127 0.99226 0.0
C873 C 0.42805 0.54257 0.98853 0.0
C874 C 0.4416 0.50787 0.99196 0.0
C875 C 0.45261 0.54888 0.9877 0.0
C876 C 0.41019 0.51881 0.99081 0.0
C877 C 0.49487 0.57726 0.98317 0.0
N878 N 0.48271 0.53677 0.9889 0.0
C879 C 0.50047 0.55919 0.98516 0.0
C880 C 0.47086 0.57215 0.98459 0.0
Eu881 Eu 0.49095 0.50554 0.99318 0.0
N882 N 0.44862 0.49137 0.99326 0.0
C883 C 0.43171 0.46774 0.99388 0.0
C884 C 0.39946 0.47718 0.99368 0.0
C885 C 0.40693 0.46032 0.9943 0.0
H886 H 0.51908 0.56326 0.98413 0.0
H887 H 0.39363 0.44161 0.99517 0.0
H888 H 0.39127 0.51411 0.99114 0.0
H889 H 0.50907 0.59511 0.98053 0.0
H890 H 0.4372 0.45452 0.99445 0.0
H891 H 0.61427 0.55889 0.02506 0.0
H892 H 0.38026 0.47139 0.99402 0.0
H893 H 0.48929 0.43748 0.03721 0.0
H894 H 0.57072 0.54592 0.02605 0.0
H895 H 0.49945 0.40575 0.04106 0.0
H896 H 0.42264 0.55584 0.98713 0.0
H897 H 0.62776 0.52918 0.02606 0.0
H898 H 0.61688 0.48652 0.02905 0.0
H899 H 0.46656 0.58616 0.98298 0.0
H900 H 0.58566 0.44485 0.03348 0.0
N901 N 0.55936 0.50906 0.02719 0.0
C902 C 0.57624 0.53271 0.02654 0.0
C903 C 0.60856 0.52335 0.0265 0.0
C904 C 0.59125 0.49927 0.02803 0.0
C905 C 0.60102 0.54017 0.02597 0.0
C906 C 0.56648 0.49262 0.02846 0.0
H907 H 0.54187 0.41463 0.03819 0.0
N908 N 0.52549 0.46378 0.03192 0.0
C909 C 0.51354 0.42351 0.03815 0.0
C910 C 0.54898 0.46923 0.03091 0.0
C911 C 0.50787 0.44151 0.03602 0.0
C912 C 0.5375 0.42858 0.03649 0.0
C913 C 0.55564 0.45175 0.03304 0.0
O914 O 0.5012 0.48425 0.04962 0.0
O915 O 0.48562 0.4959 0.01721 0.0
O916 O 0.49688 0.53359 0.01027 0.0
O917 O 0.52803 0.53394 0.02431 0.0
O918 O 0.47704 0.4686 0.03189 0.0
O919 O 0.53247 0.51917 0.0464 0.0
O920 O 0.50717 0.51611 0.97108 0.0
O921 O 0.52237 0.50424 1.00327 0.0
O922 O 0.51028 0.46601 0.01058 0.0
O923 O 0.48006 0.46647 0.996 0.0
O924 O 0.53079 0.53193 0.98887 0.0
O925 O 0.47505 0.48163 0.97398 0.0
C926 C 0.46812 0.47847 0.02353 0.0
C927 C 0.52775 0.50141 0.07008 0.0
C928 C 0.52855 0.50212 0.09742 0.0
C929 C 0.51915 0.50491 0.08378 0.0
C930 C 0.54663 0.49564 0.09704 0.0
C931 C 0.54581 0.49505 0.07 0.0
C932 C 0.55517 0.49218 0.08342 0.0
C933 C 0.51523 0.5438 0.0198 0.0
C934 C 0.51736 0.50396 0.05601 0.0
C935 C 0.58019 0.45807 0.03202 0.0
C936 C 0.59796 0.48179 0.0295 0.0
C937 C 0.53979 0.52189 0.99702 0.0
C938 C 0.48105 0.49996 0.95037 0.0
C939 C 0.48934 0.49564 0.93682 0.0
C940 C 0.48126 0.49963 0.92303 0.0
C941 C 0.46461 0.50795 0.92314 0.0
C942 C 0.46439 0.5081 0.9502 0.0
C943 C 0.45621 0.51204 0.93663 0.0
C944 C 0.4924 0.45619 1.00067 0.0
C945 C 0.4907 0.49673 0.96453 0.0
H946 H 0.50533 0.51004 0.08377 0.0
H947 H 0.55399 0.4929 0.10727 0.0
H948 H 0.55259 0.49223 0.05957 0.0
H949 H 0.56903 0.48714 0.08329 0.0
H950 H 0.50201 0.48907 0.93708 0.0
H951 H 0.45832 0.5117 0.91282 0.0
H952 H 0.45786 0.51156 0.96052 0.0
H953 H 0.44347 0.51849 0.93655 0.0
Eu954 Eu 0.15996 0.31769 0.32522 0.0
C955 C 0.21699 0.40745 0.36638 0.0
C956 C 0.25877 0.41647 0.365 0.0
C957 C 0.2498 0.44834 0.36905 0.0
C958 C 0.23366 0.39994 0.36441 0.0
C959 C 0.22484 0.43166 0.36905 0.0
C960 C 0.26674 0.44076 0.36701 0.0
C961 C 0.18289 0.42079 0.37273 0.0
N962 N 0.19306 0.39087 0.36643 0.0
C963 C 0.17602 0.39699 0.3701 0.0
C964 C 0.2074 0.43826 0.37203 0.0
Eu965 Eu 0.18267 0.35115 0.36115 0.0
N966 N 0.22534 0.37635 0.36259 0.0
C967 C 0.24116 0.36789 0.36239 0.0
C968 C 0.2751 0.40802 0.36392 0.0
C969 C 0.26623 0.38358 0.36283 0.0
H970 H 0.15705 0.38352 0.37055 0.0
H971 H 0.27869 0.37682 0.36226 0.0
H972 H 0.28595 0.45375 0.36735 0.0
H973 H 0.1693 0.42565 0.37529 0.0
H974 H 0.23459 0.34907 0.36146 0.0
H975 H 0.06325 0.28977 0.32586 0.0
H976 H 0.29453 0.42014 0.36427 0.0
H977 H 0.18574 0.28728 0.31242 0.0
H978 H 0.10713 0.31825 0.32597 0.0
H979 H 0.17427 0.24581 0.30611 0.0
H980 H 0.2562 0.46705 0.37095 0.0
H981 H 0.04827 0.24664 0.32353 0.0
H982 H 0.05772 0.21381 0.31924 0.0
H983 H 0.21269 0.45668 0.37413 0.0
H984 H 0.08801 0.20178 0.31376 0.0
N985 N 0.11726 0.29164 0.32425 0.0
C986 C 0.101 0.29955 0.32491 0.0
C987 C 0.06763 0.25909 0.3236 0.0
C988 C 0.08434 0.25122 0.32186 0.0
C989 C 0.07601 0.28342 0.32487 0.0
C990 C 0.10934 0.26818 0.32213 0.0
H991 H 0.1315 0.21368 0.30849 0.0
N992 N 0.14997 0.2785 0.3186 0.0
C993 C 0.1606 0.24991 0.30987 0.0
C994 C 0.12629 0.26138 0.31919 0.0
C995 C 0.16702 0.27336 0.31342 0.0
C996 C 0.13646 0.23181 0.31128 0.0
C997 C 0.11886 0.23749 0.31572 0.0
O998 O 0.17818 0.32476 0.30357 0.0
O999 O 0.19045 0.34803 0.33728 0.0
O1000 O 0.17866 0.37516 0.34457 0.0
O1001 O 0.14992 0.34665 0.32839 0.0
O1002 O 0.19991 0.3294 0.32268 0.0
O1003 O 0.14729 0.32969 0.30621 0.0
O1004 O 0.16459 0.34625 0.3827 0.0
O1005 O 0.15224 0.32038 0.34928 0.0
O1006 O 0.16602 0.2937 0.34079 0.0
O1007 O 0.19137 0.32116 0.359 0.0
O1008 O 0.14285 0.33965 0.36349 0.0
O1009 O 0.19468 0.33981 0.38076 0.0
C1010 C 0.20828 0.34734 0.33171 0.0
C1011 C 0.15387 0.31864 0.28221 0.0
C1012 C 0.15294 0.32144 0.25492 0.0
C1013 C 0.16192 0.3322 0.26903 0.0
C1014 C 0.13611 0.29687 0.25432 0.0
C1015 C 0.13694 0.29428 0.28124 0.0
C1016 C 0.1282 0.28349 0.26737 0.0
C1017 C 0.16203 0.36858 0.33391 0.0
C1018 C 0.16317 0.32991 0.29692 0.0
C1019 C 0.09408 0.22029 0.31622 0.0
C1020 C 0.07684 0.22714 0.31932 0.0
C1021 C 0.13447 0.32124 0.35485 0.0
C1022 C 0.18801 0.35174 0.40447 0.0
C1023 C 0.1801 0.33792 0.41756 0.0
C1024 C 0.18895 0.34844 0.43173 0.0
C1025 C 0.20559 0.37304 0.4325 0.0
C1026 C 0.20467 0.37614 0.40559 0.0
C1027 C 0.21334 0.3867 0.41954 0.0
C1028 C 0.18084 0.29986 0.35249 0.0
C1029 C 0.1789 0.34054 0.38972 0.0
H1030 H 0.17482 0.35109 0.26981 0.0
H1031 H 0.12919 0.28786 0.24372 0.0
H1032 H 0.13049 0.28361 0.2912 0.0
H1033 H 0.11524 0.26463 0.26671 0.0
H1034 H 0.1674 0.319 0.41665 0.0
H1035 H 0.21246 0.38185 0.44317 0.0
H1036 H 0.21096 0.38701 0.39569 0.0
H1037 H 0.22612 0.40559 0.42033 0.0
Eu1038 Eu 0.69038 0.83918 0.3273 0.0
C1039 C 0.59299 0.80473 0.3617 0.0
C1040 C 0.58308 0.83586 0.35804 0.0
C1041 C 0.55076 0.795 0.36135 0.0
C1042 C 0.60039 0.8284 0.35923 0.0
C1043 C 0.56812 0.78784 0.36314 0.0
C1044 C 0.55823 0.81896 0.35879 0.0
C1045 C 0.57955 0.7585 0.36922 0.0
N1046 N 0.6102 0.79843 0.36345 0.0
C1047 C 0.60398 0.77592 0.36774 0.0
C1048 C 0.56151 0.76441 0.36672 0.0
Eu1049 Eu 0.65106 0.82865 0.36026 0.0
N1050 N 0.62454 0.84429 0.3586 0.0
C1051 C 0.63266 0.8681 0.35787 0.0
C1052 C 0.59129 0.86014 0.35645 0.0
C1053 C 0.6162 0.87636 0.35658 0.0
H1054 H 0.6179 0.77129 0.3696 0.0
H1055 H 0.62274 0.89521 0.35561 0.0
H1056 H 0.54466 0.82432 0.35773 0.0
H1057 H 0.57464 0.74054 0.37227 0.0
H1058 H 0.65185 0.88082 0.35786 0.0
H1059 H 0.71797 0.77209 0.33306 0.0
H1060 H 0.57859 0.86658 0.35543 0.0
H1061 H 0.72366 0.89476 0.31506 0.0
H1062 H 0.68925 0.78675 0.33028 0.0
H1063 H 0.7669 0.92495 0.31146 0.0
H1064 H 0.53155 0.78225 0.36227 0.0
H1065 H 0.7622 0.80038 0.33329 0.0
H1066 H 0.79641 0.84239 0.33038 0.0
H1067 H 0.5426 0.7509 0.36792 0.0
H1068 H 0.80981 0.88415 0.3245 0.0
N1069 N 0.71674 0.82324 0.32937 0.0
C1070 C 0.70844 0.79939 0.3303 0.0
C1071 C 0.74964 0.80697 0.33205 0.0
C1072 C 0.75807 0.83122 0.3301 0.0
C1073 C 0.7247 0.79095 0.33189 0.0
C1074 C 0.74094 0.83886 0.32864 0.0
H1075 H 0.79892 0.91502 0.31711 0.0
N1076 N 0.73134 0.8685 0.32313 0.0
C1077 C 0.762 0.90744 0.31551 0.0
C1078 C 0.74849 0.86229 0.32546 0.0
C1079 C 0.73757 0.89033 0.31753 0.0
C1080 C 0.78001 0.9018 0.31876 0.0
C1081 C 0.77335 0.87883 0.3235 0.0
O1082 O 0.6874 0.84986 0.30467 0.0
O1083 O 0.65736 0.83842 0.33626 0.0
O1084 O 0.62905 0.80032 0.34307 0.0
O1085 O 0.66025 0.80025 0.32949 0.0
O1086 O 0.67813 0.8658 0.3219 0.0
O1087 O 0.68172 0.81458 0.30855 0.0
O1088 O 0.65332 0.81681 0.38265 0.0
O1089 O 0.68455 0.83014 0.35147 0.0
O1090 O 0.71207 0.86983 0.34327 0.0
O1091 O 0.68156 0.86745 0.35912 0.0
O1092 O 0.6634 0.80207 0.36538 0.0
O1093 O 0.65775 0.85187 0.37955 0.0
C1094 C 0.65851 0.85609 0.32969 0.0
C1095 C 0.69798 0.83225 0.2853 0.0
C1096 C 0.70076 0.83167 0.25815 0.0
C1097 C 0.68736 0.8293 0.27115 0.0
C1098 C 0.72505 0.83708 0.25957 0.0
C1099 C 0.72217 0.83756 0.28652 0.0
C1100 C 0.73562 0.83998 0.27368 0.0
C1101 C 0.63712 0.79032 0.33349 0.0
C1102 C 0.68361 0.83001 0.29861 0.0
C1103 C 0.7906 0.87165 0.32576 0.0
C1104 C 0.78297 0.84787 0.32909 0.0
C1105 C 0.68341 0.81242 0.35797 0.0
C1106 C 0.64181 0.83276 0.40256 0.0
C1107 C 0.65297 0.83649 0.4166 0.0
C1108 C 0.63948 0.83257 0.42979 0.0
C1109 C 0.61455 0.82498 0.42861 0.0
C1110 C 0.61702 0.82532 0.40161 0.0
C1111 C 0.60348 0.82147 0.41461 0.0
C1112 C 0.70405 0.87855 0.35382 0.0
C1113 C 0.6563 0.83612 0.38912 0.0
H1114 H 0.66853 0.82485 0.27032 0.0
H1115 H 0.73596 0.83933 0.24979 0.0
H1116 H 0.73062 0.83982 0.29734 0.0
H1117 H 0.75433 0.84418 0.27467 0.0
H1118 H 0.67224 0.84262 0.4172 0.0
H1119 H 0.60351 0.82142 0.4385 0.0
H1120 H 0.60815 0.8224 0.39088 0.0
H1121 H 0.5843 0.81559 0.41382 0.0
Eu1122 Eu 0.18362 0.82778 0.36074 0.0
C1123 C 0.12595 0.86368 0.32222 0.0
C1124 C 0.08417 0.83266 0.32547 0.0
C1125 C 0.09358 0.87323 0.32081 0.0
C1126 C 0.10917 0.84019 0.32502 0.0
C1127 C 0.1183 0.88032 0.31957 0.0
C1128 C 0.07654 0.84943 0.3238 0.0
C1129 C 0.15961 0.90887 0.31291 0.0
N1130 N 0.1496 0.86983 0.32091 0.0
C1131 C 0.16625 0.89168 0.31563 0.0
C1132 C 0.1356 0.9033 0.31516 0.0
Eu1133 Eu 0.15988 0.84026 0.32605 0.0
N1134 N 0.11717 0.82444 0.32635 0.0
C1135 C 0.10095 0.8006 0.3269 0.0
C1136 C 0.06757 0.8084 0.32709 0.0
C1137 C 0.07599 0.79227 0.32754 0.0
H1138 H 0.18486 0.89604 0.31397 0.0
H1139 H 0.06328 0.7734 0.32845 0.0
H1140 H 0.05744 0.84403 0.32431 0.0
H1141 H 0.17301 0.92639 0.30911 0.0
H1142 H 0.10713 0.78788 0.32735 0.0
H1143 H 0.27985 0.89597 0.35905 0.0
H1144 H 0.04823 0.8019 0.32756 0.0
H1145 H 0.15935 0.77175 0.37221 0.0
H1146 H 0.23587 0.88074 0.35981 0.0
H1147 H 0.17185 0.74181 0.37678 0.0
H1148 H 0.08737 0.88582 0.31901 0.0
H1149 H 0.29566 0.86808 0.35995 0.0
H1150 H 0.2872 0.82616 0.36294 0.0
H1151 H 0.13047 0.91661 0.31298 0.0
H1152 H 0.25775 0.78406 0.36775 0.0
N1153 N 0.22645 0.84432 0.36067 0.0
C1154 C 0.24234 0.86826 0.36026 0.0
C1155 C 0.27625 0.86124 0.36028 0.0
C1156 C 0.25996 0.83687 0.36169 0.0
C1157 C 0.2674 0.87703 0.35981 0.0
C1158 C 0.23485 0.82888 0.36197 0.0
H1159 H 0.21473 0.75251 0.37323 0.0
N1160 N 0.19457 0.79862 0.36566 0.0
C1161 C 0.1851 0.75954 0.37322 0.0
C1162 C 0.21836 0.80524 0.36451 0.0
C1163 C 0.17809 0.77649 0.37066 0.0
C1164 C 0.2093 0.76563 0.37116 0.0
C1165 C 0.22639 0.78886 0.36706 0.0
O1166 O 0.16645 0.81529 0.38251 0.0
O1167 O 0.15307 0.83005 0.35009 0.0
O1168 O 0.1678 0.87048 0.34198 0.0
O1169 O 0.19304 0.86657 0.35949 0.0
O1170 O 0.14365 0.80117 0.36373 0.0
O1171 O 0.19746 0.85063 0.38052 0.0
O1172 O 0.17718 0.85186 0.30425 0.0
O1173 O 0.19039 0.838 0.33673 0.0
O1174 O 0.17577 0.79772 0.34468 0.0
O1175 O 0.15006 0.80139 0.32743 0.0
O1176 O 0.1999 0.86674 0.32296 0.0
O1177 O 0.14506 0.8173 0.30638 0.0
C1178 C 0.13526 0.812 0.35579 0.0
C1179 C 0.19167 0.83136 0.4037 0.0
C1180 C 0.19224 0.83205 0.43103 0.0
C1181 C 0.18313 0.8351 0.41735 0.0
C1182 C 0.20988 0.82499 0.43074 0.0
C1183 C 0.20937 0.82453 0.40371 0.0
C1184 C 0.21836 0.8213 0.41718 0.0
C1185 C 0.18313 0.87834 0.35343 0.0
C1186 C 0.18191 0.83461 0.38957 0.0
C1187 C 0.25125 0.79644 0.36602 0.0
C1188 C 0.26801 0.82041 0.3633 0.0
C1189 C 0.20825 0.85598 0.33102 0.0
C1190 C 0.15175 0.83657 0.28311 0.0
C1191 C 0.15989 0.83223 0.2695 0.0
C1192 C 0.15162 0.83618 0.25577 0.0
C1193 C 0.13511 0.84468 0.25599 0.0
C1194 C 0.13512 0.84476 0.28302 0.0
C1195 C 0.12691 0.84883 0.26952 0.0
C1196 C 0.16019 0.78975 0.33336 0.0
C1197 C 0.16103 0.8328 0.29727 0.0
H1198 H 0.16968 0.84071 0.41728 0.0
H1199 H 0.21699 0.82206 0.44101 0.0
H1200 H 0.21623 0.8217 0.39333 0.0
H1201 H 0.23193 0.81589 0.41711 0.0
H1202 H 0.17245 0.82553 0.26967 0.0
H1203 H 0.12871 0.84841 0.2457 0.0
H1204 H 0.12853 0.84804 0.29337 0.0
H1205 H 0.1142 0.85533 0.26952 0.0
Eu1206 Eu 0.82755 0.64985 0.65832 0.0
C1207 C 0.88077 0.74035 0.69917 0.0
C1208 C 0.92302 0.75074 0.6985 0.0
C1209 C 0.91251 0.78169 0.70182 0.0
C1210 C 0.89811 0.73359 0.69769 0.0
C1211 C 0.88774 0.7644 0.70159 0.0
C1212 C 0.93012 0.77488 0.70025 0.0
C1213 C 0.84531 0.75223 0.70458 0.0
N1214 N 0.85703 0.7232 0.699 0.0
C1215 C 0.83933 0.7286 0.7022 0.0
C1216 C 0.86961 0.77026 0.7041 0.0
Eu1217 Eu 0.84822 0.68381 0.69417 0.0
N1218 N 0.89062 0.71012 0.6961 0.0
C1219 C 0.90705 0.70241 0.69637 0.0
C1220 C 0.94001 0.74306 0.6979 0.0
C1221 C 0.93196 0.71875 0.69704 0.0
H1222 H 0.82051 0.7147 0.70249 0.0
H1223 H 0.94493 0.71258 0.69685 0.0
H1224 H 0.94917 0.78834 0.70076 0.0
H1225 H 0.8312 0.75651 0.70677 0.0
H1226 H 0.90109 0.6837 0.69564 0.0
H1227 H 0.73029 0.61912 0.65637 0.0
H1228 H 0.95931 0.75567 0.69842 0.0
H1229 H 0.85541 0.62083 0.64644 0.0
H1230 H 0.77394 0.6486 0.65721 0.0
H1231 H 0.84548 0.57971 0.64043 0.0
H1232 H 0.91824 0.80031 0.70352 0.0
H1233 H 0.71668 0.57619 0.65492 0.0
H1234 H 0.72766 0.54419 0.65181 0.0
H1235 H 0.87422 0.78854 0.70599 0.0
H1236 H 0.75914 0.5334 0.64727 0.0
N1237 N 0.78516 0.62274 0.65676 0.0
C1238 C 0.76836 0.62998 0.65654 0.0
C1239 C 0.73592 0.58908 0.65533 0.0
C1240 C 0.75326 0.58188 0.65439 0.0
C1241 C 0.74353 0.61329 0.65607 0.0
C1242 C 0.77806 0.5994 0.65501 0.0
H1243 H 0.80311 0.54664 0.64254 0.0
N1244 N 0.81914 0.61099 0.65209 0.0
C1245 C 0.8313 0.58326 0.64392 0.0
C1246 C 0.79566 0.59332 0.65253 0.0
C1247 C 0.83686 0.60652 0.6473 0.0
C1248 C 0.80739 0.56463 0.64519 0.0
C1249 C 0.78912 0.56958 0.64927 0.0
O1250 O 0.84652 0.6571 0.63692 0.0
O1251 O 0.85733 0.68066 0.67055 0.0
O1252 O 0.84435 0.70726 0.67709 0.0
O1253 O 0.81651 0.67822 0.66078 0.0
O1254 O 0.86762 0.66189 0.65664 0.0
O1255 O 0.81514 0.66136 0.63895 0.0
O1256 O 0.82894 0.67791 0.71534 0.0
O1257 O 0.81872 0.65272 0.68207 0.0
O1258 O 0.83292 0.62629 0.67468 0.0
O1259 O 0.85801 0.65448 0.69258 0.0
O1260 O 0.808 0.67136 0.69583 0.0
O1261 O 0.86068 0.67399 0.71428 0.0
C1262 C 0.87548 0.68001 0.66547 0.0
C1263 C 0.82279 0.6505 0.61519 0.0
C1264 C 0.82196 0.65336 0.5879 0.0
C1265 C 0.83049 0.66418 0.60205 0.0
C1266 C 0.80594 0.62861 0.58723 0.0
C1267 C 0.80668 0.62596 0.61416 0.0
C1268 C 0.7984 0.61511 0.60025 0.0
C1269 C 0.82809 0.70025 0.66618 0.0
C1270 C 0.83148 0.66186 0.62995 0.0
C1271 C 0.76453 0.5518 0.64956 0.0
C1272 C 0.74661 0.55794 0.65215 0.0
C1273 C 0.80043 0.6531 0.68713 0.0
C1274 C 0.85183 0.68536 0.73757 0.0
C1275 C 0.84512 0.67172 0.75075 0.0
C1276 C 0.85239 0.68287 0.76492 0.0
C1277 C 0.86627 0.7079 0.76554 0.0
C1278 C 0.86587 0.71018 0.73857 0.0
C1279 C 0.87297 0.72134 0.75249 0.0
C1280 C 0.8476 0.63288 0.68648 0.0
C1281 C 0.84392 0.67362 0.72284 0.0
H1282 H 0.84274 0.6832 0.60288 0.0
H1283 H 0.79939 0.61957 0.5766 0.0
H1284 H 0.8005 0.61519 0.6241 0.0
H1285 H 0.78607 0.59611 0.59954 0.0
H1286 H 0.8345 0.65251 0.74991 0.0
H1287 H 0.87173 0.71722 0.77615 0.0
H1288 H 0.87122 0.72093 0.72861 0.0
H1289 H 0.88364 0.74054 0.75317 0.0
Eu1290 Eu 0.35694 0.17321 0.66001 0.0
C1291 C 0.25952 0.13757 0.69471 0.0
C1292 C 0.24914 0.16844 0.69143 0.0
C1293 C 0.21716 0.1274 0.69459 0.0
C1294 C 0.26665 0.16122 0.69242 0.0
C1295 C 0.23473 0.12046 0.69617 0.0
C1296 C 0.22435 0.15134 0.6922 0.0
C1297 C 0.24662 0.09134 0.70186 0.0
N1298 N 0.27693 0.13148 0.69627 0.0
C1299 C 0.27097 0.10896 0.70037 0.0
C1300 C 0.22839 0.09704 0.69956 0.0
Eu1301 Eu 0.31764 0.16206 0.69309 0.0
N1302 N 0.29075 0.1773 0.69176 0.0
C1303 C 0.29861 0.20108 0.69118 0.0
C1304 C 0.25709 0.1927 0.69001 0.0
C1305 C 0.28194 0.2091 0.69009 0.0
H1306 H 0.28504 0.10449 0.70207 0.0
H1307 H 0.28828 0.22793 0.68924 0.0
H1308 H 0.21064 0.15652 0.6913 0.0
H1309 H 0.24193 0.07338 0.70475 0.0
H1310 H 0.31775 0.21396 0.69114 0.0
H1311 H 0.38458 0.10609 0.6652 0.0
H1312 H 0.24421 0.19896 0.68914 0.0
H1313 H 0.39029 0.22905 0.64821 0.0
H1314 H 0.35585 0.12078 0.66262 0.0
H1315 H 0.43356 0.25938 0.64488 0.0
H1316 H 0.198 0.11448 0.69553 0.0
H1317 H 0.42879 0.13441 0.66558 0.0
H1318 H 0.463 0.17649 0.663 0.0
H1319 H 0.20954 0.08337 0.70076 0.0
H1320 H 0.47642 0.21838 0.65752 0.0
N1321 N 0.38333 0.1573 0.66199 0.0
C1322 C 0.37503 0.13343 0.66272 0.0
C1323 C 0.41623 0.14101 0.66444 0.0
C1324 C 0.42466 0.1653 0.66272 0.0
C1325 C 0.3913 0.12497 0.66419 0.0
C1326 C 0.40752 0.17296 0.66138 0.0
H1327 H 0.46555 0.24939 0.65045 0.0
N1328 N 0.39793 0.20269 0.65612 0.0
C1329 C 0.42864 0.2418 0.6488 0.0
C1330 C 0.41508 0.19646 0.6584 0.0
C1331 C 0.4042 0.22462 0.65067 0.0
C1332 C 0.44664 0.23611 0.652 0.0
C1333 C 0.43995 0.21305 0.65656 0.0
O1334 O 0.35435 0.18436 0.63742 0.0
O1335 O 0.32385 0.17213 0.66913 0.0
O1336 O 0.29565 0.13404 0.67577 0.0
O1337 O 0.32676 0.13421 0.66194 0.0
O1338 O 0.3443 0.19957 0.65472 0.0
O1339 O 0.34859 0.14901 0.64105 0.0
O1340 O 0.32016 0.15005 0.71538 0.0
O1341 O 0.35124 0.16393 0.68415 0.0
O1342 O 0.37835 0.20383 0.67606 0.0
O1343 O 0.34772 0.20099 0.69199 0.0
O1344 O 0.33034 0.13567 0.69798 0.0
O1345 O 0.32429 0.18503 0.71252 0.0
C1346 C 0.32479 0.18974 0.66262 0.0
C1347 C 0.36568 0.16732 0.61807 0.0
C1348 C 0.36985 0.16806 0.59094 0.0
C1349 C 0.35579 0.1651 0.60374 0.0
C1350 C 0.39404 0.17333 0.59278 0.0
C1351 C 0.38974 0.1724 0.61965 0.0
C1352 C 0.40384 0.17542 0.60705 0.0
C1353 C 0.30367 0.12419 0.66605 0.0
C1354 C 0.35077 0.16468 0.63121 0.0
C1355 C 0.4572 0.20584 0.65871 0.0
C1356 C 0.44956 0.18198 0.66181 0.0
C1357 C 0.35031 0.14623 0.69055 0.0
C1358 C 0.30855 0.16559 0.73547 0.0
C1359 C 0.31982 0.16949 0.74948 0.0
C1360 C 0.30631 0.16522 0.76266 0.0
C1361 C 0.28127 0.157 0.7616 0.0
C1362 C 0.28362 0.15759 0.73459 0.0
C1363 C 0.27006 0.15333 0.74763 0.0
C1364 C 0.37017 0.21234 0.68665 0.0
C1365 C 0.32302 0.16923 0.72198 0.0
H1366 H 0.33704 0.1608 0.60261 0.0
H1367 H 0.4055 0.1761 0.58319 0.0
H1368 H 0.39763 0.17405 0.63058 0.0
H1369 H 0.42246 0.17948 0.60834 0.0
H1370 H 0.33906 0.17542 0.75011 0.0
H1371 H 0.27044 0.15371 0.77157 0.0
H1372 H 0.27465 0.15456 0.72389 0.0
H1373 H 0.25081 0.14712 0.7469 0.0
Eu1374 Eu 0.84966 0.16153 0.69397 0.0
C1375 C 0.79171 0.19713 0.65507 0.0
C1376 C 0.74977 0.16688 0.65882 0.0
C1377 C 0.75992 0.20747 0.65344 0.0
C1378 C 0.77464 0.17392 0.65827 0.0
C1379 C 0.7845 0.21403 0.65215 0.0
C1380 C 0.74258 0.18393 0.65681 0.0
C1381 C 0.82594 0.24177 0.64526 0.0
N1382 N 0.8152 0.20275 0.65373 0.0
C1383 C 0.83214 0.22434 0.64827 0.0
C1384 C 0.80209 0.23673 0.64746 0.0
Eu1385 Eu 0.8248 0.17286 0.65946 0.0
N1386 N 0.78223 0.15789 0.65991 0.0
C1387 C 0.76566 0.13418 0.66089 0.0
C1388 C 0.73283 0.14281 0.66086 0.0
C1389 C 0.7408 0.12634 0.66164 0.0
H1390 H 0.85063 0.22834 0.64663 0.0
H1391 H 0.72783 0.10761 0.66288 0.0
H1392 H 0.72359 0.17892 0.65737 0.0
H1393 H 0.83956 0.25907 0.64129 0.0
H1394 H 0.77148 0.12122 0.66158 0.0
H1395 H 0.94612 0.2286 0.69292 0.0
H1396 H 0.71358 0.13669 0.66142 0.0
H1397 H 0.82365 0.10394 0.7028 0.0
H1398 H 0.90216 0.21395 0.69345 0.0
H1399 H 0.83542 0.07324 0.70628 0.0
H1400 H 0.75406 0.22027 0.65142 0.0
H1401 H 0.96125 0.20015 0.69368 0.0
H1402 H 0.95203 0.1579 0.69606 0.0
H1403 H 0.7973 0.25022 0.64507 0.0
H1404 H 0.92194 0.11563 0.69972 0.0
N1405 N 0.89227 0.17744 0.69414 0.0
C1406 C 0.90843 0.2013 0.69385 0.0
C1407 C 0.94188 0.19359 0.69394 0.0
C1408 C 0.92527 0.16924 0.69507 0.0
C1409 C 0.93342 0.20971 0.69354 0.0
C1410 C 0.90025 0.16163 0.69526 0.0
H1411 H 0.87846 0.08395 0.70375 0.0
N1412 N 0.85956 0.13141 0.69803 0.0
C1413 C 0.84907 0.09133 0.70368 0.0
C1414 C 0.88336 0.13787 0.69725 0.0
C1415 C 0.84247 0.10872 0.70175 0.0
C1416 C 0.87338 0.09744 0.70221 0.0
C1417 C 0.89094 0.12102 0.69918 0.0
O1418 O 0.83317 0.14881 0.71583 0.0
O1419 O 0.81864 0.16331 0.68363 0.0
O1420 O 0.83277 0.20332 0.67521 0.0
O1421 O 0.85888 0.20027 0.69251 0.0
O1422 O 0.80979 0.13475 0.69742 0.0
O1423 O 0.86399 0.18438 0.71371 0.0
O1424 O 0.84196 0.18272 0.63753 0.0
O1425 O 0.856 0.1718 0.67004 0.0
O1426 O 0.84443 0.1337 0.67686 0.0
O1427 O 0.81423 0.13384 0.66219 0.0
O1428 O 0.86467 0.19979 0.65587 0.0
O1429 O 0.80927 0.14882 0.64029 0.0
C1430 C 0.80107 0.14537 0.68958 0.0
C1431 C 0.8586 0.16516 0.73691 0.0
C1432 C 0.85941 0.16621 0.76422 0.0
C1433 C 0.85028 0.16918 0.75054 0.0
C1434 C 0.87693 0.15899 0.76396 0.0
C1435 C 0.87611 0.15807 0.73692 0.0
C1436 C 0.88518 0.15498 0.7504 0.0
C1437 C 0.84845 0.21161 0.6865 0.0
C1438 C 0.84866 0.16824 0.72281 0.0
C1439 C 0.91577 0.12835 0.69841 0.0
C1440 C 0.9329 0.15241 0.69633 0.0
C1441 C 0.87357 0.18982 0.66418 0.0
C1442 C 0.81612 0.16714 0.61665 0.0
C1443 C 0.82559 0.16422 0.60314 0.0
C1444 C 0.81779 0.16857 0.58938 0.0
C1445 C 0.80027 0.17577 0.58938 0.0
C1446 C 0.79857 0.17419 0.6164 0.0
C1447 C 0.79071 0.17847 0.60281 0.0
C1448 C 0.8268 0.1238 0.66683 0.0
C1449 C 0.82532 0.16357 0.63091 0.0
H1450 H 0.83695 0.17494 0.75046 0.0
H1451 H 0.88409 0.15617 0.77425 0.0
H1452 H 0.88272 0.15491 0.72654 0.0
H1453 H 0.89863 0.14941 0.75035 0.0
H1454 H 0.83933 0.15899 0.60337 0.0
H1455 H 0.79373 0.17902 0.57899 0.0
H1456 H 0.79103 0.17646 0.62667 0.0
H1457 H 0.77717 0.18392 0.60268 0.0
H1458 H 0.34462 0.90248 0.07444 0.0
H1459 H 0.33394 0.85171 0.03963 0.0
H1460 H 0.38021 0.93274 0.06157 0.0
H1461 H 0.37025 0.88214 0.02692 0.0
H1462 H 0.42712 0.98801 0.0284 0.0
H1463 H 0.38892 0.95536 0.03765 0.0
H1464 H 0.41637 0.90703 0.03164 0.0
H1465 H 0.45483 0.93993 0.02246 0.0
C1466 C 0.34966 0.89778 0.06397 0.0
C1467 C 0.33614 0.87463 0.05804 0.0
C1468 C 0.37016 0.91516 0.0566 0.0
C1469 C 0.37788 0.90988 0.04316 0.0
C1470 C 0.36475 0.88668 0.0373 0.0
C1471 C 0.34401 0.86926 0.04462 0.0
C1472 C 0.42481 0.97032 0.02883 0.0
C1473 C 0.44379 0.96643 0.02463 0.0
C1474 C 0.40302 0.95167 0.03418 0.0
C1475 C 0.39977 0.92871 0.03554 0.0
C1476 C 0.41834 0.92453 0.03066 0.0
C1477 C 0.44029 0.94331 0.02538 0.0
H1478 H 0.15394 0.4821 0.04042 0.0
H1479 H 0.10619 0.44261 0.07671 0.0
H1480 H 0.12196 0.48811 0.02974 0.0
H1481 H 0.07429 0.44804 0.06578 0.0
H1482 H 0.01476 0.43886 0.03311 0.0
H1483 H 0.04809 0.43419 0.04279 0.0
H1484 H 0.09777 0.50903 0.03609 0.0
H1485 H 0.06418 0.51371 0.02661 0.0
C1486 C 0.13677 0.47481 0.04619 0.0
C1487 C 0.13274 0.46165 0.05941 0.0
C1488 C 0.11842 0.47822 0.04003 0.0
C1489 C 0.09552 0.46838 0.04684 0.0
C1490 C 0.09157 0.45548 0.0601 0.0
C1491 C 0.10992 0.45229 0.06633 0.0
C1492 C 0.03284 0.45427 0.03363 0.0
C1493 C 0.03697 0.47652 0.02881 0.0
C1494 C 0.05191 0.45163 0.03922 0.0
C1495 C 0.0756 0.47123 0.04021 0.0
C1496 C 0.07979 0.49354 0.03533 0.0
C1497 C 0.06059 0.49621 0.02986 0.0
H1498 H 0.51584 0.67003 0.05321 0.0
H1499 H 0.58857 0.68307 0.06173 0.0
H1500 H 0.50622 0.6338 0.04025 0.0
H1501 H 0.57768 0.64506 0.05088 0.0
H1502 H 0.56009 0.58285 0.02118 0.0
H1503 H 0.57091 0.62209 0.03077 0.0
H1504 H 0.49559 0.59565 0.04254 0.0
H1505 H 0.48491 0.55746 0.03143 0.0
C1506 C 0.52987 0.6653 0.05243 0.0
C1507 C 0.55309 0.67988 0.05867 0.0
C1508 C 0.52408 0.64395 0.04523 0.0
C1509 C 0.54095 0.63594 0.04455 0.0
C1510 C 0.56414 0.6505 0.05084 0.0
C1511 C 0.57025 0.67228 0.0575 0.0
C1512 C 0.54598 0.58573 0.02574 0.0
C1513 C 0.52176 0.56736 0.02565 0.0
C1514 C 0.55212 0.60815 0.03141 0.0
C1515 C 0.53426 0.61238 0.03767 0.0
C1516 C 0.50994 0.59363 0.03756 0.0
C1517 C 0.50373 0.57154 0.03134 0.0
H1518 H 0.8465 0.34119 0.95387 0.0
H1519 H 0.89019 0.3106 0.96745 0.0
H1520 H 0.87567 0.37883 0.96557 0.0
H1521 H 0.91942 0.3483 0.97906 0.0
H1522 H 0.979 0.42693 0.98305 0.0
H1523 H 0.94953 0.38891 0.9719 0.0
H1524 H 0.89096 0.39658 0.99019 0.0
H1525 H 0.92032 0.43483 1.001 0.0
C1526 C 0.86219 0.3424 0.95948 0.0
C1527 C 0.86598 0.32285 0.95969 0.0
C1528 C 0.87893 0.364 0.96618 0.0
C1529 C 0.8999 0.36659 0.97323 0.0
C1530 C 0.90365 0.34702 0.97351 0.0
C1531 C 0.88689 0.3254 0.96684 0.0
C1532 C 0.95984 0.42052 0.98472 0.0
C1533 C 0.95207 0.43391 0.99302 0.0
C1534 C 0.94295 0.39864 0.9784 0.0
C1535 C 0.91788 0.38968 0.98017 0.0
C1536 C 0.91012 0.40306 0.98849 0.0
C1537 C 0.927 0.4249 0.99483 0.0
H1538 H 0.67555 0.51957 0.98042 0.0
H1539 H 0.66639 0.55955 0.94508 0.0
H1540 H 0.63808 0.5136 0.99204 0.0
H1541 H 0.62964 0.55416 0.95692 0.0
H1542 H 0.55355 0.4878 0.99585 0.0
H1543 H 0.59228 0.49292 0.98678 0.0
H1544 H 0.6185 0.56769 0.98018 0.0
H1545 H 0.58007 0.56258 0.9894 0.0
C1546 C 0.6656 0.527 0.97505 0.0
C1547 C 0.67433 0.54027 0.96181 0.0
C1548 C 0.64413 0.52362 0.98177 0.0
C1549 C 0.631 0.53362 0.9755 0.0
C1550 C 0.63957 0.54663 0.96223 0.0
C1551 C 0.66079 0.5498 0.95545 0.0
C1552 C 0.56785 0.50541 0.99282 0.0
C1553 C 0.56395 0.52489 0.99355 0.0
C1554 C 0.58999 0.50833 0.98756 0.0
C1555 C 0.60843 0.53068 0.98261 0.0
C1556 C 0.6046 0.55018 0.98371 0.0
C1557 C 0.58265 0.5473 0.98906 0.0
H1558 H 0.4537 0.11038 0.93918 0.0
H1559 H 0.47466 0.1545 0.97883 0.0
H1560 H 0.46323 0.08281 0.95168 0.0
H1561 H 0.48386 0.12667 0.9915 0.0
H1562 H 0.5207 0.08288 1.0034 0.0
H1563 H 0.51193 0.11162 0.99162 0.0
H1564 H 0.44762 0.05398 0.97118 0.0
H1565 H 0.4566 0.02545 0.98258 0.0
C1566 C 0.46014 0.11405 0.95063 0.0
C1567 C 0.46332 0.13452 0.95805 0.0
C1568 C 0.46557 0.09824 0.95781 0.0
C1569 C 0.47414 0.10242 0.97264 0.0
C1570 C 0.47755 0.12305 0.98003 0.0
C1571 C 0.47224 0.13896 0.97279 0.0
C1572 C 0.5046 0.07637 0.99648 0.0
C1573 C 0.4894 0.05186 0.9939 0.0
C1574 C 0.49954 0.09283 0.98975 0.0
C1575 C 0.47918 0.08511 0.98034 0.0
C1576 C 0.46374 0.06058 0.97808 0.0
C1577 C 0.46883 0.04418 0.98473 0.0
H1578 H 0.67639 0.1481 0.98097 0.0
H1579 H 0.66588 0.09736 0.94625 0.0
H1580 H 0.64033 0.11749 0.99392 0.0
H1581 H 0.63 0.067 0.95908 0.0
H1582 H 0.58223 0.01174 0.99215 0.0
H1583 H 0.62082 0.04414 0.98311 0.0
H1584 H 0.59418 0.09317 0.98884 0.0
H1585 H 0.55538 0.06057 0.9977 0.0
C1586 C 0.66643 0.1304 0.97615 0.0
C1587 C 0.67392 0.12512 0.96257 0.0
C1588 C 0.64577 0.11297 0.98351 0.0
C1589 C 0.63247 0.08983 0.97756 0.0
C1590 C 0.64006 0.08459 0.96404 0.0
C1591 C 0.66046 0.10204 0.95661 0.0
C1592 C 0.58483 0.02955 0.99175 0.0
C1593 C 0.56596 0.03371 0.99578 0.0
C1594 C 0.60683 0.04804 0.9865 0.0
C1595 C 0.61042 0.07112 0.98512 0.0
C1596 C 0.59198 0.07558 0.98986 0.0
C1597 C 0.5698 0.05696 0.995 0.0
H1598 H 0.85305 0.51895 0.97916 0.0
H1599 H 0.90039 0.55758 0.94262 0.0
H1600 H 0.88574 0.51457 0.99056 0.0
H1601 H 0.93289 0.55321 0.95395 0.0
H1602 H 0.9929 0.5633 0.98664 0.0
H1603 H 0.95944 0.56792 0.97705 0.0
H1604 H 0.90975 0.49327 0.98431 0.0
H1605 H 0.94337 0.48859 0.99356 0.0
C1606 C 0.87044 0.52657 0.9736 0.0
C1607 C 0.87408 0.53856 0.95995 0.0
C1608 C 0.88908 0.52392 0.98007 0.0
C1609 C 0.91192 0.53359 0.97317 0.0
C1610 C 0.91559 0.54573 0.95961 0.0
C1611 C 0.89689 0.54806 0.95305 0.0
C1612 C 0.97477 0.54794 0.98631 0.0
C1613 C 0.97068 0.52572 0.9912 0.0
C1614 C 0.95564 0.55055 0.98077 0.0
C1615 C 0.93192 0.53097 0.97993 0.0
C1616 C 0.92775 0.50875 0.98497 0.0
C1617 C 0.947 0.50609 0.99034 0.0
H1618 H 0.44848 0.33777 0.93986 0.0
H1619 H 0.47116 0.31559 0.9792 0.0
H1620 H 0.45778 0.37475 0.95239 0.0
H1621 H 0.4794 0.35215 0.99199 0.0
H1622 H 0.51757 0.4323 1.00311 0.0
H1623 H 0.50789 0.39457 0.99146 0.0
H1624 H 0.44287 0.3891 0.97226 0.0
H1625 H 0.4527 0.42694 0.98367 0.0
C1626 C 0.45546 0.34078 0.95118 0.0
C1627 C 0.45912 0.32373 0.95851 0.0
C1628 C 0.46049 0.36185 0.95844 0.0
C1629 C 0.46924 0.36636 0.97322 0.0
C1630 C 0.47288 0.34931 0.98057 0.0
C1631 C 0.46789 0.32824 0.97329 0.0
C1632 C 0.50108 0.42294 0.99653 0.0
C1633 C 0.48592 0.43267 0.99433 0.0
C1634 C 0.49551 0.40128 0.98987 0.0
C1635 C 0.47467 0.38887 0.98086 0.0
C1636 C 0.45929 0.3984 0.97891 0.0
C1637 C 0.46487 0.42006 0.98553 0.0
H1638 H 0.13076 0.69368 0.04543 0.0
H1639 H 0.14968 0.65361 0.07562 0.0
H1640 H 0.10085 0.65674 0.03335 0.0
H1641 H 0.11891 0.61673 0.06392 0.0
H1642 H 0.04174 0.55691 0.0493 0.0
H1643 H 0.07177 0.59427 0.0612 0.0
H1644 H 0.10168 0.62302 0.01798 0.0
H1645 H 0.07164 0.5857 1.00614 0.0
C1646 C 0.12875 0.6771 0.04946 0.0
C1647 C 0.14282 0.6768 0.06154 0.0
C1648 C 0.11147 0.65593 0.04257 0.0
C1649 C 0.10755 0.63392 0.04773 0.0
C1650 C 0.12139 0.63348 0.05983 0.0
C1651 C 0.13894 0.65465 0.06658 0.0
C1652 C 0.05468 0.57128 0.04236 0.0
C1653 C 0.0546 0.56836 0.0268 0.0
C1654 C 0.07193 0.59254 0.04917 0.0
C1655 C 0.08911 0.61145 0.04051 0.0
C1656 C 0.08865 0.60871 0.02491 0.0
C1657 C 0.07165 0.58729 0.01814 0.0
H1658 H 0.35805 0.49702 0.0678 0.0
H1659 H 0.31582 0.43056 0.04405 0.0
H1660 H 0.39499 0.50179 0.05636 0.0
H1661 H 0.35265 0.43578 0.03218 0.0
H1662 H 0.4268 0.43816 0.03074 0.0
H1663 H 0.38849 0.4341 0.03936 0.0
H1664 H 0.41735 0.50946 0.03315 0.0
H1665 H 0.45583 0.51343 0.02491 0.0
C1666 C 0.35659 0.48345 0.0601 0.0
C1667 C 0.33386 0.46331 0.05697 0.0
C1668 C 0.37779 0.48634 0.05337 0.0
C1669 C 0.3769 0.46916 0.04333 0.0
C1670 C 0.35412 0.44926 0.03997 0.0
C1671 C 0.33291 0.44639 0.04668 0.0
C1672 C 0.42478 0.45377 0.03103 0.0
C1673 C 0.44416 0.47602 0.02689 0.0
C1674 C 0.40279 0.45146 0.0359 0.0
C1675 C 0.39972 0.47145 0.03698 0.0
C1676 C 0.41909 0.49371 0.03263 0.0
C1677 C 0.44108 0.49597 0.02771 0.0
H1678 H 0.57859 0.90345 0.0752 0.0
H1679 H 0.53821 0.84871 0.04234 0.0
H1680 H 0.56644 0.9294 0.06307 0.0
H1681 H 0.5251 0.8742 0.03047 0.0
H1682 H 0.52475 0.93504 1.00491 0.0
H1683 H 0.53748 0.90878 0.01602 0.0
H1684 H 0.53237 0.93393 0.05996 0.0
H1685 H 0.52049 0.96059 0.04871 0.0
C1686 C 0.56696 0.89696 0.06541 0.0
C1687 C 0.5593 0.87412 0.05971 0.0
C1688 C 0.55984 0.91174 0.0585 0.0
C1689 C 0.54455 0.90385 0.04585 0.0
C1690 C 0.53712 0.88102 0.04006 0.0
C1691 C 0.54455 0.86637 0.04687 0.0
C1692 C 0.52603 0.93465 0.01691 0.0
C1693 C 0.52159 0.94976 0.02593 0.0
C1694 C 0.53338 0.91964 0.02333 0.0
C1695 C 0.53616 0.91931 0.03892 0.0
C1696 C 0.53107 0.9341 0.0479 0.0
C1697 C 0.52408 0.94928 0.04147 0.0
H1698 H 0.01103 0.23657 0.40758 0.0
H1699 H 1.00017 0.18593 0.37264 0.0
H1700 H 0.04666 0.26683 0.39474 0.0
H1701 H 0.0365 0.21637 0.35995 0.0
H1702 H 0.12106 0.27388 0.35541 0.0
H1703 H 0.08253 0.24105 0.36453 0.0
H1704 H 0.05558 0.28971 0.37099 0.0
H1705 H 0.09388 0.3223 0.36182 0.0
C1706 C 0.01604 0.2319 0.39708 0.0
C1707 C 1.00246 0.20879 0.39111 0.0
C1708 C 0.03655 0.24929 0.38973 0.0
C1709 C 0.04424 0.24405 0.37625 0.0
C1710 C 0.03103 0.22088 0.37035 0.0
C1711 C 0.01029 0.20345 0.37766 0.0
C1712 C 0.10663 0.27735 0.35841 0.0
C1713 C 0.1103 0.30055 0.35782 0.0
C1714 C 0.08462 0.2586 0.36366 0.0
C1715 C 0.06617 0.26289 0.36866 0.0
C1716 C 0.0696 0.28593 0.36744 0.0
C1717 C 0.09144 0.30455 0.36213 0.0
H1718 H 0.77425 0.77641 0.4102 0.0
H1719 H 0.82209 0.81679 0.37417 0.0
H1720 H 0.74216 0.78156 0.3993 0.0
H1721 H 0.78987 0.82245 0.36347 0.0
H1722 H 0.73148 0.84717 0.36027 0.0
H1723 H 0.76529 0.84275 0.36963 0.0
H1724 H 0.71599 0.76786 0.37649 0.0
H1725 H 0.68243 0.7723 0.36697 0.0
C1726 C 0.77794 0.78622 0.39988 0.0
C1727 C 0.80085 0.79592 0.39303 0.0
C1728 C 0.75949 0.78924 0.39365 0.0
C1729 C 0.76338 0.80228 0.38046 0.0
C1730 C 0.78636 0.81245 0.37371 0.0
C1731 C 0.80484 0.80923 0.37988 0.0
C1732 C 0.72802 0.82972 0.36353 0.0
C1733 C 0.70443 0.80995 0.36259 0.0
C1734 C 0.74734 0.82719 0.36892 0.0
C1735 C 0.74333 0.80495 0.37384 0.0
C1736 C 0.71968 0.78527 0.37292 0.0
C1737 C 0.70048 0.78776 0.36741 0.0
H1738 H 0.19409 0.01284 0.37918 0.0
H1739 H 0.24196 0.00444 0.40972 0.0
H1740 H 0.18347 0.975 0.36744 0.0
H1741 H 0.23274 0.96754 0.39728 0.0
H1742 H 0.19198 0.89028 0.38276 0.0
H1743 H 0.20159 0.92775 0.39464 0.0
H1744 H 0.19861 0.95616 0.35162 0.0
H1745 H 0.1883 0.91833 0.33991 0.0
C1746 C 0.20238 0.00296 0.3834 0.0
C1747 C 0.21883 0.01172 0.39546 0.0
C1748 C 0.19657 0.9814 0.3765 0.0
C1749 C 0.20723 0.96815 0.38138 0.0
C1750 C 0.22386 0.97703 0.39334 0.0
C1751 C 0.22946 0.99845 0.40035 0.0
C1752 C 0.19345 0.90456 0.37585 0.0
C1753 C 0.18923 0.90132 0.36039 0.0
C1754 C 0.19906 0.92612 0.38265 0.0
C1755 C 0.20096 0.94509 0.37411 0.0
C1756 C 0.19685 0.94183 0.35861 0.0
C1757 C 0.19092 0.92012 0.35185 0.0
H1758 H 0.51398 0.64956 0.31334 0.0
H1759 H 0.55876 0.66905 0.27391 0.0
H1760 H 0.5431 0.68708 0.32523 0.0
H1761 H 0.58779 0.70659 0.28574 0.0
H1762 H 0.64665 0.76043 0.31684 0.0
H1763 H 0.61756 0.72239 0.30562 0.0
H1764 H 0.55844 0.72945 0.3236 0.0
H1765 H 0.58749 0.76734 0.33496 0.0
C1766 C 0.52993 0.66194 0.30716 0.0
C1767 C 0.53405 0.65627 0.29268 0.0
C1768 C 0.54663 0.68347 0.31397 0.0
C1769 C 0.56784 0.69987 0.30646 0.0
C1770 C 0.57189 0.69421 0.29196 0.0
C1771 C 0.55522 0.67268 0.28516 0.0
C1772 C 0.62746 0.75387 0.31845 0.0
C1773 C 0.61945 0.76692 0.32691 0.0
C1774 C 0.61075 0.73208 0.31193 0.0
C1775 C 0.58563 0.72283 0.31367 0.0
C1776 C 0.57764 0.73584 0.32221 0.0
C1777 C 0.59434 0.75762 0.32872 0.0
H1778 H 0.3599 0.90634 0.30784 0.0
H1779 H 0.31941 0.83674 0.28756 0.0
H1780 H 0.32313 0.90062 0.32002 0.0
H1781 H 0.28234 0.8312 0.29932 0.0
H1782 H 0.22063 0.82094 0.3296 0.0
H1783 H 0.25919 0.82507 0.32125 0.0
H1784 H 0.28706 0.90011 0.31407 0.0
H1785 H 0.2491 0.89599 0.32311 0.0
C1786 C 0.34307 0.88984 0.30592 0.0
C1787 C 0.3426 0.87209 0.29662 0.0
C1788 C 0.3219 0.88655 0.31287 0.0
C1789 C 0.29949 0.86552 0.31059 0.0
C1790 C 0.29918 0.84752 0.30156 0.0
C1791 C 0.32046 0.85072 0.29473 0.0
C1792 C 0.23526 0.83837 0.32657 0.0
C1793 C 0.23206 0.85826 0.32733 0.0
C1794 C 0.25729 0.84073 0.32156 0.0
C1795 C 0.27648 0.86297 0.31694 0.0
C1796 C 0.2731 0.88279 0.3178 0.0
C1797 C 0.25122 0.88044 0.32289 0.0
H1798 H 0.16838 0.48779 0.2871 0.0
H1799 H 0.09322 0.44617 0.30034 0.0
H1800 H 0.17755 0.46055 0.30047 0.0
H1801 H 0.10239 0.41877 0.31346 0.0
H1802 H 0.12318 0.36028 0.31663 0.0
H1803 H 0.11436 0.38929 0.30566 0.0
H1804 H 0.17882 0.44622 0.32636 0.0
H1805 H 0.18793 0.41709 0.33731 0.0
C1806 C 0.15386 0.47301 0.29299 0.0
C1807 C 0.13001 0.46909 0.29255 0.0
C1808 C 0.15914 0.45741 0.30065 0.0
C1809 C 0.14067 0.4375 0.30796 0.0
C1810 C 0.11693 0.43379 0.30774 0.0
C1811 C 0.11167 0.44944 0.30017 0.0
C1812 C 0.13547 0.37895 0.31894 0.0
C1813 C 0.15626 0.38635 0.32788 0.0
C1814 C 0.1303 0.39557 0.31271 0.0
C1815 C 0.14586 0.42001 0.31518 0.0
C1816 C 0.16658 0.42748 0.3242 0.0
C1817 C 0.17168 0.4108 0.33055 0.0
H1818 H 0.36052 0.44611 0.31059 0.0
H1819 H 0.31757 0.46975 0.28654 0.0
H1820 H 0.32426 0.41684 0.32365 0.0
H1821 H 0.28118 0.43986 0.29916 0.0
H1822 H 0.22126 0.39448 0.33104 0.0
H1823 H 0.26009 0.42776 0.32297 0.0
H1824 H 0.2881 0.37981 0.31705 0.0
H1825 H 0.24952 0.34682 0.32552 0.0
C1826 C 0.34339 0.44522 0.30816 0.0
C1827 C 0.34199 0.46024 0.29743 0.0
C1828 C 0.32255 0.42827 0.31557 0.0
C1829 C 0.29975 0.42591 0.31244 0.0
C1830 C 0.29845 0.44133 0.30198 0.0
C1831 C 0.31928 0.45826 0.29457 0.0
C1832 C 0.23596 0.39123 0.32842 0.0
C1833 C 0.23256 0.36815 0.32913 0.0
C1834 C 0.25811 0.41022 0.32361 0.0
C1835 C 0.27721 0.40647 0.31926 0.0
C1836 C 0.27395 0.38346 0.32048 0.0
C1837 C 0.25183 0.36451 0.32526 0.0
H1838 H 0.51995 0.85186 0.31253 0.0
H1839 H 0.5679 0.89084 0.2763 0.0
H1840 H 0.55247 0.84742 0.32413 0.0
H1841 H 0.60021 0.88638 0.28783 0.0
H1842 H 0.65973 0.89642 0.32082 0.0
H1843 H 0.62634 0.901 0.31106 0.0
H1844 H 0.57669 0.82628 0.31814 0.0
H1845 H 0.61026 0.82165 0.32757 0.0
C1846 C 0.53743 0.85953 0.30707 0.0
C1847 C 0.5413 0.87165 0.29346 0.0
C1848 C 0.55598 0.85685 0.31366 0.0
C1849 C 0.57893 0.8666 0.30692 0.0
C1850 C 0.58281 0.87885 0.29338 0.0
C1851 C 0.56422 0.88122 0.2867 0.0
C1852 C 0.64162 0.88104 0.32042 0.0
C1853 C 0.63753 0.85881 0.32529 0.0
C1854 C 0.62254 0.88362 0.31478 0.0
C1855 C 0.59885 0.86401 0.31383 0.0
C1856 C 0.59466 0.84179 0.31888 0.0
C1857 C 0.61387 0.83915 0.32436 0.0
H1858 H 0.14795 0.65451 0.30785 0.0
H1859 H 0.1031 0.66475 0.27596 0.0
H1860 H 0.15799 0.69202 0.32007 0.0
H1861 H 0.11221 0.70176 0.28846 0.0
H1862 H 0.1532 0.77857 0.30392 0.0
H1863 H 0.14354 0.74112 0.29196 0.0
H1864 H 0.14264 0.71129 0.3352 0.0
H1865 H 0.15306 0.74912 0.34698 0.0
C1866 C 0.14002 0.66471 0.30359 0.0
C1867 C 0.12485 0.65685 0.29095 0.0
C1868 C 0.14566 0.68615 0.31062 0.0
C1869 C 0.13597 0.70003 0.30526 0.0
C1870 C 0.12045 0.69186 0.29272 0.0
C1871 C 0.11511 0.6706 0.28558 0.0
C1872 C 0.15089 0.76396 0.31085 0.0
C1873 C 0.15408 0.7668 0.32638 0.0
C1874 C 0.14523 0.74243 0.30401 0.0
C1875 C 0.14222 0.72305 0.31259 0.0
C1876 C 0.14528 0.72592 0.32818 0.0
C1877 C 0.15128 0.74762 0.33499 0.0
H1878 H 0.83333 0.01192 0.37768 0.0
H1879 H 0.78117 0.00395 0.41118 0.0
H1880 H 0.80333 0.97463 0.36599 0.0
H1881 H 0.75066 0.96723 0.39918 0.0
H1882 H 0.70862 0.89031 0.38323 0.0
H1883 H 0.7386 0.92742 0.39506 0.0
H1884 H 0.76791 0.9563 0.35163 0.0
H1885 H 0.73843 0.91881 0.34004 0.0
C1886 C 0.8153 0.00225 0.38243 0.0
C1887 C 0.80957 0.01074 0.39534 0.0
C1888 C 0.79801 0.98093 0.37569 0.0
C1889 C 0.7744 0.96777 0.38158 0.0
C1890 C 0.76871 0.97651 0.39446 0.0
C1891 C 0.78614 0.99763 0.40133 0.0
C1892 C 0.72147 0.90468 0.37625 0.0
C1893 C 0.72145 0.9016 0.36073 0.0
C1894 C 0.73863 0.92604 0.38301 0.0
C1895 C 0.7559 0.94502 0.37436 0.0
C1896 C 0.7554 0.94198 0.35875 0.0
C1897 C 0.73848 0.92046 0.35204 0.0
H1898 H 0.01067 0.77959 0.409 0.0
H1899 H 1.00199 0.8186 0.37292 0.0
H1900 H 0.04718 0.78382 0.39722 0.0
H1901 H 0.03874 0.82281 0.36106 0.0
H1902 H 0.12306 0.84719 0.35724 0.0
H1903 H 0.08502 0.84343 0.36659 0.0
H1904 H 0.0569 0.76848 0.37379 0.0
H1905 H 0.09456 0.77218 0.36419 0.0
C1906 C 0.01664 0.7892 0.39858 0.0
C1907 C 1.00341 0.79879 0.39193 0.0
C1908 C 0.03746 0.79144 0.39176 0.0
C1909 C 0.04582 0.80357 0.37816 0.0
C1910 C 0.0328 0.81345 0.37155 0.0
C1911 C 0.0117 0.8109 0.3783 0.0
C1912 C 0.1085 0.82984 0.36049 0.0
C1913 C 0.11161 0.80988 0.35975 0.0
C1914 C 0.08676 0.82769 0.36589 0.0
C1915 C 0.068 0.80568 0.37103 0.0
C1916 C 0.07108 0.78573 0.37006 0.0
C1917 C 0.09259 0.78781 0.36451 0.0
H1918 H 0.18587 0.19411 0.40896 0.0
H1919 H 0.24238 0.21195 0.37631 0.0
H1920 H 0.17507 0.2211 0.39682 0.0
H1921 H 0.23079 0.23818 0.3639 0.0
H1922 H 0.18457 0.26416 0.33846 0.0
H1923 H 0.19349 0.23524 0.3499 0.0
H1924 H 0.19737 0.26651 0.39321 0.0
H1925 H 0.18843 0.29529 0.38179 0.0
C1926 C 0.19606 0.2038 0.39925 0.0
C1927 C 0.21513 0.20091 0.39369 0.0
C1928 C 0.18974 0.21913 0.39225 0.0
C1929 C 0.20209 0.23166 0.37944 0.0
C1930 C 0.22079 0.22848 0.37367 0.0
C1931 C 0.22736 0.2134 0.38078 0.0
C1932 C 0.18707 0.26469 0.35039 0.0
C1933 C 0.18578 0.28197 0.35919 0.0
C1934 C 0.19238 0.24829 0.35693 0.0
C1935 C 0.19607 0.24866 0.37243 0.0
C1936 C 0.19443 0.26573 0.38125 0.0
C1937 C 0.18951 0.28231 0.37468 0.0
H1938 H 0.66156 0.56987 0.72791 0.0
H1939 H 0.68045 0.51632 0.7164 0.0
H1940 H 0.69747 0.59945 0.71581 0.0
H1941 H 0.71447 0.54536 0.70218 0.0
H1942 H 0.79036 0.60786 0.69287 0.0
H1943 H 0.75256 0.57549 0.70236 0.0
H1944 H 0.7184 0.61825 0.69591 0.0
H1945 H 0.75712 0.65125 0.68813 0.0
C1946 C 0.67319 0.56418 0.72275 0.0
C1947 C 0.66787 0.5404 0.72357 0.0
C1948 C 0.69375 0.5813 0.71529 0.0
C1949 C 0.70935 0.57521 0.70775 0.0
C1950 C 0.70351 0.55122 0.70803 0.0
C1951 C 0.6834 0.53422 0.71602 0.0
C1952 C 0.77459 0.61008 0.69337 0.0
C1953 C 0.77654 0.63196 0.68979 0.0
C1954 C 0.75269 0.59142 0.69876 0.0
C1955 C 0.73202 0.59402 0.70033 0.0
C1956 C 0.73386 0.61557 0.69564 0.0
C1957 C 0.75599 0.63449 0.69089 0.0
H1958 H 0.48195 0.1657 0.73416 0.0
H1959 H 0.45113 0.09657 0.71321 0.0
H1960 H 0.44979 0.17108 0.7233 0.0
H1961 H 0.41942 0.10213 0.70194 0.0
H1962 H 0.35004 0.10635 0.69937 0.0
H1963 H 0.38385 0.10235 0.70866 0.0
H1964 H 0.43241 0.17747 0.70166 0.0
H1965 H 0.39811 0.18145 0.69303 0.0
C1966 C 0.46851 0.1518 0.72703 0.0
C1967 C 0.469 0.13061 0.72467 0.0
C1968 C 0.45006 0.1549 0.72074 0.0
C1969 C 0.43172 0.13697 0.71179 0.0
C1970 C 0.43277 0.11611 0.70905 0.0
C1971 C 0.45104 0.11293 0.71547 0.0
C1972 C 0.368 0.12195 0.69975 0.0
C1973 C 0.37154 0.14407 0.69513 0.0
C1974 C 0.38749 0.11967 0.70497 0.0
C1975 C 0.4111 0.13953 0.70582 0.0
C1976 C 0.41454 0.16178 0.70131 0.0
C1977 C 0.39495 0.16405 0.69616 0.0
H1978 H 0.91084 0.36005 0.71193 0.0
H1979 H 0.85227 0.32223 0.74306 0.0
H1980 H 0.90052 0.32243 0.69947 0.0
H1981 H 0.8421 0.2846 0.7307 0.0
H1982 H 0.85607 0.22335 0.71588 0.0
H1983 H 0.86524 0.26098 0.72765 0.0
H1984 H 0.86317 0.28927 0.68451 0.0
H1985 H 0.85396 0.25156 0.67274 0.0
C1986 C 0.8958 0.34367 0.71609 0.0
C1987 C 0.88235 0.34395 0.72844 0.0
C1988 C 0.88981 0.32224 0.70893 0.0
C1989 C 0.87055 0.30071 0.71417 0.0
C1990 C 0.85711 0.30099 0.72651 0.0
C1991 C 0.86282 0.32245 0.73351 0.0
C1992 C 0.85763 0.23762 0.70891 0.0
C1993 C 0.85417 0.23451 0.69338 0.0
C1994 C 0.86269 0.25905 0.71566 0.0
C1995 C 0.86482 0.27792 0.70697 0.0
C1996 C 0.86164 0.27495 0.69143 0.0
C1997 C 0.85615 0.25333 0.68471 0.0
H1998 H 0.18034 0.00867 0.61999 0.0
H1999 H 0.22396 0.97785 0.63327 0.0
H2000 H 0.20962 0.04621 0.63175 0.0
H2001 H 0.25332 0.01547 0.64492 0.0
H2002 H 0.31289 0.09416 0.64928 0.0
H2003 H 0.28347 0.05628 0.63792 0.0
H2004 H 0.22482 0.06349 0.65652 0.0
H2005 H 0.25411 0.10156 0.66756 0.0
C2006 C 0.19605 0.00981 0.62553 0.0
C2007 C 0.19977 0.9902 0.62566 0.0
C2008 C 0.21285 0.03135 0.63227 0.0
C2009 C 0.23383 0.03385 0.63927 0.0
C2010 C 0.23754 0.01425 0.63942 0.0
C2011 C 0.2207 0.99268 0.63273 0.0
C2012 C 0.29373 0.08767 0.65097 0.0
C2013 C 0.28591 0.10088 0.65942 0.0
C2014 C 0.27687 0.06587 0.64452 0.0
C2015 C 0.25179 0.05684 0.64632 0.0
C2016 C 0.24399 0.07004 0.65479 0.0
C2017 C 0.26083 0.09178 0.66126 0.0
H2018 H 0.99986 0.2271 0.61202 0.0
H2019 H 0.00912 0.18721 0.64739 0.0
H2020 H 0.9633 0.22197 0.62397 0.0
H2021 H 0.9718 0.18145 0.65909 0.0
H2022 H 0.91398 0.23054 0.6567 0.0
H2023 H 0.95237 0.23561 0.64741 0.0
H2024 H 0.92592 0.16074 0.6537 0.0
H2025 H 0.88724 0.15565 0.66278 0.0
C2026 C 0.99433 0.21743 0.62241 0.0
C2027 C 0.00784 0.20783 0.62874 0.0
C2028 C 0.97321 0.21441 0.62926 0.0
C2029 C 0.9647 0.20146 0.64256 0.0
C2030 C 0.97781 0.19142 0.6488 0.0
C2031 C 0.99918 0.19467 0.64203 0.0
C2032 C 0.9165 0.21523 0.65629 0.0
C2033 C 0.89774 0.1928 0.6607 0.0
C2034 C 0.93843 0.2181 0.65089 0.0
C2035 C 0.94218 0.19856 0.6497 0.0
C2036 C 0.92369 0.17619 0.65457 0.0
C2037 C 0.90156 0.17328 0.65984 0.0
H2038 H 0.80615 0.81975 0.64568 0.0
H2039 H 0.78576 0.77661 0.60561 0.0
H2040 H 0.81537 0.79173 0.65804 0.0
H2041 H 0.79535 0.74885 0.61781 0.0
H2042 H 0.7897 0.69111 0.64817 0.0
H2043 H 0.78027 0.71948 0.63692 0.0
H2044 H 0.84375 0.77728 0.65798 0.0
H2045 H 0.85292 0.74874 0.66957 0.0
C2046 C 0.80385 0.80437 0.63948 0.0
C2047 C 0.79513 0.80029 0.62471 0.0
C2048 C 0.80918 0.78835 0.64655 0.0
C2049 C 0.80601 0.76797 0.63895 0.0
C2050 C 0.79753 0.76409 0.6241 0.0
C2051 C 0.79206 0.78001 0.61709 0.0
C2052 C 0.80165 0.70985 0.65046 0.0
C2053 C 0.82208 0.71764 0.65978 0.0
C2054 C 0.79631 0.72616 0.64392 0.0
C2055 C 0.81135 0.75069 0.64643 0.0
C2056 C 0.83162 0.7585 0.65593 0.0
C2057 C 0.83692 0.74214 0.66255 0.0
H2058 H 0.00925 0.81591 0.64774 0.0
H2059 H 0.99946 0.76484 0.61343 0.0
H2060 H 0.97339 0.7852 0.66081 0.0
H2061 H 0.96381 0.73438 0.62638 0.0
H2062 H 0.91668 0.67937 0.65972 0.0
H2063 H 0.95508 0.71205 0.65067 0.0
H2064 H 0.92715 0.76015 0.65565 0.0
H2065 H 0.88852 0.72726 0.6645 0.0
C2066 C 0.9995 0.79813 0.64303 0.0
C2067 C 0.00712 0.79278 0.62954 0.0
C2068 C 0.97895 0.78063 0.65046 0.0
C2069 C 0.96592 0.75738 0.64467 0.0
C2070 C 0.97366 0.75207 0.63122 0.0
C2071 C 0.99393 0.76957 0.62372 0.0
C2072 C 0.91895 0.69704 0.65915 0.0
C2073 C 0.89975 0.70084 0.66295 0.0
C2074 C 0.94085 0.71569 0.65391 0.0
C2075 C 0.94401 0.73858 0.65229 0.0
C2076 C 0.92526 0.74271 0.65684 0.0
C2077 C 0.90319 0.72392 0.66197 0.0
H2078 H 0.18598 0.18574 0.64672 0.0
H2079 H 0.23344 0.22454 0.61027 0.0
H2080 H 0.21865 0.18129 0.65812 0.0
H2081 H 0.26591 0.22015 0.62161 0.0
H2082 H 0.32581 0.23017 0.65425 0.0
H2083 H 0.29226 0.23483 0.64489 0.0
H2084 H 0.2428 0.15997 0.65161 0.0
H2085 H 0.27654 0.15526 0.66062 0.0
C2086 C 0.20339 0.19339 0.64118 0.0
C2087 C 0.20708 0.20543 0.62756 0.0
C2088 C 0.22201 0.19071 0.64765 0.0
C2089 C 0.24487 0.20042 0.64078 0.0
C2090 C 0.24858 0.21264 0.62725 0.0
C2091 C 0.22991 0.21498 0.62068 0.0
C2092 C 0.30771 0.21478 0.65386 0.0
C2093 C 0.30372 0.19248 0.65851 0.0
C2094 C 0.28853 0.21741 0.64845 0.0
C2095 C 0.26486 0.19778 0.64752 0.0
C2096 C 0.26077 0.17549 0.65235 0.0
C2097 C 0.28007 0.17281 0.65759 0.0
H2098 H 0.83148 0.01046 0.61853 0.0
H2099 H 0.7579 0.97723 0.63487 0.0
H2100 H 0.84057 0.04757 0.63106 0.0
H2101 H 0.76707 0.01427 0.64754 0.0
H2102 H 0.78639 0.0932 0.65079 0.0
H2103 H 0.77709 0.05527 0.63957 0.0
H2104 H 0.84412 0.06347 0.65724 0.0
H2105 H 0.85362 0.10156 0.66839 0.0
C2106 C 0.81727 0.01112 0.62479 0.0
C2107 C 0.79397 0.99101 0.6257 0.0
C2108 C 0.82253 0.03226 0.63207 0.0
C2109 C 0.80452 0.03377 0.64027 0.0
C2110 C 0.78124 0.01363 0.64121 0.0
C2111 C 0.77605 0.99242 0.63406 0.0
C2112 C 0.79912 0.08691 0.65234 0.0
C2113 C 0.82073 0.10039 0.66051 0.0
C2114 C 0.79371 0.06511 0.64599 0.0
C2115 C 0.80989 0.05645 0.64754 0.0
C2116 C 0.83142 0.06983 0.65578 0.0
C2117 C 0.83675 0.09155 0.66225 0.0
H2118 H 0.45955 0.36103 0.71282 0.0
H2119 H 0.48187 0.32228 0.74183 0.0
H2120 H 0.43049 0.32381 0.7006 0.0
H2121 H 0.45192 0.28512 0.73004 0.0
H2122 H 0.37513 0.22363 0.71612 0.0
H2123 H 0.40442 0.26135 0.72797 0.0
H2124 H 0.43282 0.29091 0.68464 0.0
H2125 H 0.40353 0.25318 0.67284 0.0
C2126 C 0.45845 0.3447 0.71657 0.0
C2127 C 0.47319 0.34484 0.72838 0.0
C2128 C 0.44167 0.32337 0.7096 0.0
C2129 C 0.43893 0.30164 0.71443 0.0
C2130 C 0.45348 0.30163 0.72623 0.0
C2131 C 0.47055 0.32297 0.73303 0.0
C2132 C 0.38759 0.23824 0.70915 0.0
C2133 C 0.38731 0.23544 0.69357 0.0
C2134 C 0.40441 0.25972 0.71592 0.0
C2135 C 0.42093 0.27896 0.70721 0.0
C2136 C 0.42027 0.27634 0.6916 0.0
C2137 C 0.40373 0.25469 0.68486 0.0
H2138 H 0.67659 0.11272 0.74311 0.0
H2139 H 0.66746 0.1512 0.70688 0.0
H2140 H 0.71314 0.11708 0.73133 0.0
H2141 H 0.7042 0.15547 0.69499 0.0
H2142 H 0.78832 0.18019 0.69065 0.0
H2143 H 0.75028 0.17627 0.70011 0.0
H2144 H 0.72314 0.1017 0.70822 0.0
H2145 H 0.76082 0.10556 0.69853 0.0
C2146 C 0.68246 0.12223 0.73266 0.0
C2147 C 0.66908 0.13164 0.72597 0.0
C2148 C 0.7033 0.12454 0.72583 0.0
C2149 C 0.71154 0.13653 0.71218 0.0
C2150 C 0.69838 0.14622 0.70553 0.0
C2151 C 0.67726 0.14362 0.71229 0.0
C2152 C 0.77398 0.16288 0.69413 0.0
C2153 C 0.77738 0.14308 0.69364 0.0
C2154 C 0.75224 0.16064 0.6996 0.0
C2155 C 0.73374 0.1387 0.70503 0.0
C2156 C 0.7371 0.1189 0.70429 0.0
C2157 C 0.75863 0.12107 0.69868 0.0
H2158 H 0.9071 0.54304 0.70975 0.0
H2159 H 0.85571 0.53084 0.74499 0.0
H2160 H 0.89552 0.56934 0.69743 0.0
H2161 H 0.84538 0.55829 0.73299 0.0
H2162 H 0.86365 0.63389 0.71488 0.0
H2163 H 0.87265 0.6054 0.72666 0.0
H2164 H 0.85289 0.56384 0.68601 0.0
H2165 H 0.84302 0.59189 0.67432 0.0
C2166 C 0.89324 0.54574 0.71484 0.0
C2167 C 0.88237 0.5347 0.72842 0.0
C2168 C 0.88674 0.56092 0.7078 0.0
C2169 C 0.86962 0.56575 0.71431 0.0
C2170 C 0.85879 0.55491 0.72784 0.0
C2171 C 0.86489 0.53936 0.73475 0.0
C2172 C 0.8612 0.61873 0.70839 0.0
C2173 C 0.85287 0.61536 0.69352 0.0
C2174 C 0.86625 0.60238 0.7152 0.0
C2175 C 0.86354 0.58258 0.70719 0.0
C2176 C 0.85525 0.57912 0.69235 0.0
C2177 C 0.84963 0.59519 0.68566 0.0
H2178 H 0.46266 0.91203 0.17145 0.0
H2179 H 0.49691 0.98134 0.19248 0.0
H2180 H 0.4743 0.9308 0.14689 0.0
H2181 H 0.50823 2e-05 0.16801 0.0
H2182 H 0.54877 0.02473 0.12387 0.0
H2183 H 0.53644 0.00434 0.14768 0.0
H2184 H 0.46564 0.95584 0.12936 0.0
H2185 H 0.47776 0.97666 0.10548 0.0
C2186 C 0.47268 0.93126 0.17084 0.0
C2187 C 0.47886 0.94515 0.18398 0.0
C2188 C 0.47918 0.94201 0.15675 0.0
C2189 C 0.4923 0.96693 0.15545 0.0
C2190 C 0.49837 0.98079 0.16858 0.0
C2191 C 0.49166 0.97006 0.18263 0.0
C2192 C 0.53046 0.00987 0.12487 0.0
C2193 C 0.51419 0.00266 0.11269 0.0
C2194 C 0.52341 0.99812 0.13858 0.0
C2195 C 0.49995 0.9786 0.14053 0.0
C2196 C 0.48389 0.97076 0.12824 0.0
C2197 C 0.49089 0.98268 0.11451 0.0
H2198 H 0.07492 0.53564 0.16879 0.0
H2199 H 0.00537 0.50391 0.1908 0.0
H2200 H 0.05459 0.52826 0.14453 0.0
H2201 H 0.98503 0.49636 0.16652 0.0
H2202 H 0.96326 0.51614 0.12147 0.0
H2203 H 0.98259 0.52148 0.14583 0.0
H2204 H 0.02629 0.49323 0.1283 0.0
H2205 H 0.00652 0.48717 0.10403 0.0
C2206 C 0.05529 0.52707 0.16842 0.0
C2207 C 0.04172 0.52037 0.18167 0.0
C2208 C 0.04366 0.52269 0.15455 0.0
C2209 C 0.01824 0.51176 0.15365 0.0
C2210 C 0.00466 0.50497 0.1669 0.0
C2211 C 0.01627 0.5091 0.18076 0.0
C2212 C 0.97671 0.51071 0.12283 0.0
C2213 C 0.98332 0.50126 0.11072 0.0
C2214 C 0.98783 0.51384 0.13679 0.0
C2215 C 0.00598 0.50782 0.13894 0.0
C2216 C 0.01257 0.49832 0.1269 0.0
C2217 C 1.00129 0.49495 0.11298 0.0
H2218 H 0.45574 0.52942 0.17179 0.0
H2219 H 0.50381 0.50851 0.19213 0.0
H2220 H 0.46857 0.52405 0.14706 0.0
H2221 H 0.5167 0.50333 0.1675 0.0
H2222 H 0.55512 0.52383 0.12261 0.0
H2223 H 0.54056 0.52841 0.14682 0.0
H2224 H 0.46714 0.49367 0.12969 0.0
H2225 H 0.48169 0.48888 0.1054 0.0
C2226 C 0.46882 0.52342 0.17101 0.0
C2227 C 0.47888 0.5196 0.184 0.0
C2228 C 0.4762 0.52038 0.15682 0.0
C2229 C 0.49386 0.51349 0.15528 0.0
C2230 C 0.50346 0.50915 0.16826 0.0
C2231 C 0.49606 0.51212 0.18241 0.0
C2232 C 0.53583 0.51697 0.124 0.0
C2233 C 0.51959 0.50581 0.11203 0.0
C2234 C 0.52747 0.51961 0.13791 0.0
C2235 C 0.50264 0.51122 0.14026 0.0
C2236 C 0.48641 0.5005 0.12823 0.0
C2237 C 0.49477 0.49779 0.11429 0.0
H2238 H 0.01072 0.49274 0.82846 0.0
H2239 H 0.94106 0.47207 0.8483 0.0
H2240 H 0.02868 0.49849 0.85331 0.0
H2241 H 0.95917 0.47821 0.87311 0.0
H2242 H 0.0066 0.51552 0.91437 0.0
H2243 H 0.9891 0.51083 0.88946 0.0
H2244 H 0.02589 0.47354 0.87501 0.0
H2245 H 0.04308 0.47784 0.89995 0.0
C2246 C 0.9992 0.48932 0.8381 0.0
C2247 C 0.97442 0.4819 0.83636 0.0
C2248 C 0.00952 0.49266 0.85234 0.0
C2249 C 0.99533 0.48878 0.86516 0.0
C2250 C 0.97064 0.48165 0.86344 0.0
C2251 C 0.96029 0.47818 0.84921 0.0
C2252 C 0.01078 0.50611 0.90593 0.0
C2253 C 0.02624 0.49703 0.90919 0.0
C2254 C 1.00079 0.50348 0.89165 0.0
C2255 C 0.00615 0.49184 0.88028 0.0
C2256 C 0.02171 0.4829 0.88349 0.0
C2257 C 0.03159 0.4854 0.89778 0.0
H2258 H 0.51427 0.49539 0.82926 0.0
H2259 H 0.54964 0.46185 0.85136 0.0
H2260 H 0.50035 0.50164 0.85336 0.0
H2261 H 0.53548 0.46792 0.87551 0.0
H2262 H 0.52716 0.50805 0.91639 0.0
H2263 H 0.5419 0.50169 0.89264 0.0
H2264 H 0.47097 0.47598 0.87303 0.0
H2265 H 0.45594 0.48162 0.89682 0.0
C2266 C 0.51922 0.48951 0.83928 0.0
C2267 C 0.53308 0.47815 0.8384 0.0
C2268 C 0.51105 0.49288 0.85307 0.0
C2269 C 0.51674 0.48519 0.86633 0.0
C2270 C 0.53092 0.47416 0.8655 0.0
C2271 C 0.53887 0.47053 0.85167 0.0
C2272 C 0.51456 0.5007 0.90711 0.0
C2273 C 0.49031 0.49542 0.90859 0.0
C2274 C 0.52307 0.49714 0.89347 0.0
C2275 C 0.50764 0.48846 0.88094 0.0
C2276 C 0.48341 0.48306 0.88242 0.0
C2277 C 0.47483 0.48637 0.89607 0.0
H2278 H 0.50418 0.02106 0.82763 0.0
H2279 H 0.55204 0.08927 0.84811 0.0
H2280 H 0.49293 0.00306 0.85219 0.0
H2281 H 0.54087 0.0711 0.87279 0.0
H2282 H 0.53158 0.02248 0.91361 0.0
H2283 H 0.54414 0.04284 0.88957 0.0
H2284 H 0.47004 0.00315 0.87377 0.0
H2285 H 0.45755 0.98301 0.89765 0.0
C2286 C 0.51219 0.03231 0.83736 0.0
C2287 C 0.5289 0.05673 0.83578 0.0
C2288 C 0.50573 0.02195 0.8515 0.0
C2289 C 0.5158 0.03563 0.86455 0.0
C2290 C 0.53288 0.05996 0.86301 0.0
C2291 C 0.53931 0.07038 0.84882 0.0
C2292 C 0.51793 0.01834 0.90507 0.0
C2293 C 0.49358 0.00083 0.90756 0.0
C2294 C 0.52514 0.03 0.89127 0.0
C2295 C 0.50818 0.02442 0.8796 0.0
C2296 C 0.48374 0.0075 0.88231 0.0
C2297 C 0.47655 0.99594 0.89606 0.0
H2298 H 0.11334 0.2794 0.51385 0.0
H2299 H 0.17872 0.27474 0.51547 0.0
H2300 H 0.12505 0.2981 0.48938 0.0
H2301 H 0.18992 0.29255 0.49082 0.0
H2302 H 0.21705 0.35151 0.45579 0.0
H2303 H 0.20426 0.33061 0.47942 0.0
H2304 H 0.13036 0.29139 0.46319 0.0
H2305 H 0.14311 0.31302 0.4396 0.0
C2306 C 0.13019 0.2823 0.509 0.0
C2307 C 0.14509 0.27559 0.51675 0.0
C2308 C 0.13676 0.29278 0.49485 0.0
C2309 C 0.15849 0.29694 0.48806 0.0
C2310 C 0.17321 0.28993 0.49573 0.0
C2311 C 0.16662 0.27942 0.50984 0.0
C2312 C 0.19803 0.3385 0.45724 0.0
C2313 C 0.18111 0.33414 0.44577 0.0
C2314 C 0.19072 0.32628 0.47078 0.0
C2315 C 0.16623 0.30926 0.47331 0.0
C2316 C 0.14932 0.30456 0.46174 0.0
C2317 C 0.15668 0.31677 0.44813 0.0
H2318 H 0.74366 0.87179 0.50254 0.0
H2319 H 0.67427 0.84116 0.52467 0.0
H2320 H 0.72323 0.86435 0.4783 0.0
H2321 H 0.65384 0.83349 0.50044 0.0
H2322 H 0.63143 0.85151 0.45516 0.0
H2323 H 0.65124 0.85787 0.47945 0.0
H2324 H 0.69476 0.82909 0.46241 0.0
H2325 H 0.67456 0.82207 0.43823 0.0
C2326 C 0.72405 0.86349 0.50221 0.0
C2327 C 0.71055 0.85706 0.51548 0.0
C2328 C 0.71236 0.85906 0.48835 0.0
C2329 C 0.68695 0.84835 0.4875 0.0
C2330 C 0.67345 0.84194 0.50077 0.0
C2331 C 0.68513 0.84613 0.51462 0.0
C2332 C 0.64497 0.84621 0.45662 0.0
C2333 C 0.6514 0.83631 0.44468 0.0
C2334 C 0.65636 0.84993 0.47053 0.0
C2335 C 0.67458 0.84403 0.4728 0.0
C2336 C 0.68101 0.83411 0.46092 0.0
C2337 C 0.66947 0.83017 0.44705 0.0
H2338 H 0.16864 0.84099 0.52564 0.0
H2339 H 0.12118 0.86241 0.505 0.0
H2340 H 0.18115 0.83504 0.50107 0.0
H2341 H 0.13366 0.85631 0.48035 0.0
H2342 H 0.14568 0.81985 0.43901 0.0
H2343 H 0.13154 0.82545 0.46325 0.0
H2344 H 0.20505 0.85929 0.48021 0.0
H2345 H 0.21916 0.85386 0.45606 0.0
C2346 C 0.16095 0.84456 0.51586 0.0
C2347 C 0.14403 0.85237 0.51734 0.0
C2348 C 0.16814 0.84115 0.50175 0.0
C2349 C 0.15859 0.8454 0.48871 0.0
C2350 C 0.14123 0.85268 0.49015 0.0
C2351 C 0.13405 0.85614 0.5043 0.0
C2352 C 0.15886 0.82872 0.44786 0.0
C2353 C 0.18355 0.83622 0.44559 0.0
C2354 C 0.15074 0.8319 0.46177 0.0
C2355 C 0.16712 0.84262 0.47373 0.0
C2356 C 0.19184 0.8505 0.47135 0.0
C2357 C 0.19995 0.84738 0.45748 0.0
H2358 H 0.6286 0.77421 0.1731 0.0
H2359 H 0.64099 0.84596 0.17356 0.0
H2360 H 0.647 0.78055 0.1978 0.0
H2361 H 0.65964 0.85243 0.19827 0.0
H2362 H 0.67019 0.84722 0.2485 0.0
H2363 H 0.65046 0.84058 0.22417 0.0
H2364 H 0.68657 0.80275 0.20939 0.0
H2365 H 0.70542 0.80846 0.23391 0.0
C2366 C 0.6354 0.7914 0.17845 0.0
C2367 C 0.63346 0.80963 0.17135 0.0
C2368 C 0.64599 0.79505 0.1926 0.0
C2369 C 0.65496 0.81705 0.19998 0.0
C2370 C 0.65267 0.83518 0.19297 0.0
C2371 C 0.642 0.83149 0.17882 0.0
C2372 C 0.67373 0.83728 0.2401 0.0
C2373 C 0.68933 0.8283 0.24317 0.0
C2374 C 0.66264 0.83371 0.2261 0.0
C2375 C 0.6669 0.82109 0.21484 0.0
C2376 C 0.68264 0.81227 0.21788 0.0
C2377 C 0.6937 0.81581 0.23187 0.0
H2378 H 0.21798 0.79786 0.18311 0.0
H2379 H 0.17988 0.82906 0.16151 0.0
H2380 H 0.20485 0.80437 0.20748 0.0
H2381 H 0.1671 0.8359 0.18584 0.0
H2382 H 0.12524 0.81733 0.23004 0.0
H2383 H 0.1393 0.81117 0.20606 0.0
H2384 H 0.21113 0.83777 0.22452 0.0
H2385 H 0.19726 0.8445 0.24851 0.0
C2386 C 0.20682 0.80612 0.18357 0.0
C2387 C 0.19994 0.81291 0.17038 0.0
C2388 C 0.19947 0.81003 0.19753 0.0
C2389 C 0.18487 0.82058 0.19859 0.0
C2390 C 0.17813 0.82751 0.18539 0.0
C2391 C 0.18566 0.82381 0.17146 0.0
C2392 C 0.14411 0.82215 0.22899 0.0
C2393 C 0.16012 0.83159 0.24125 0.0
C2394 C 0.15215 0.81856 0.21522 0.0
C2395 C 0.17636 0.8241 0.21335 0.0
C2396 C 0.1923 0.83312 0.22564 0.0
C2397 C 0.18431 0.83691 0.23941 0.0
H2398 H 0.17212 0.35446 0.16082 0.0
H2399 H 0.21979 0.42305 0.18092 0.0
H2400 H 0.16085 0.33686 0.18548 0.0
H2401 H 0.20861 0.40525 0.20572 0.0
H2402 H 0.19881 0.3568 0.2469 0.0
H2403 H 0.21171 0.37694 0.2228 0.0
H2404 H 0.13769 0.33769 0.20682 0.0
H2405 H 0.12486 0.3178 0.23076 0.0
C2406 C 0.18009 0.36588 0.17049 0.0
C2407 C 0.19671 0.39029 0.16878 0.0
C2408 C 0.17362 0.35574 0.18468 0.0
C2409 C 0.1836 0.36965 0.19765 0.0
C2410 C 0.20067 0.39396 0.19599 0.0
C2411 C 0.20711 0.40416 0.18175 0.0
C2412 C 0.18526 0.35272 0.23831 0.0
C2413 C 0.16083 0.33539 0.24075 0.0
C2414 C 0.19266 0.36424 0.22447 0.0
C2415 C 0.17581 0.35869 0.21275 0.0
C2416 C 0.15129 0.342 0.21542 0.0
C2417 C 0.14392 0.33058 0.2292 0.0
H2418 H 0.79539 0.57842 0.83806 0.0
H2419 H 0.82919 0.64784 0.85893 0.0
H2420 H 0.80677 0.59706 0.81346 0.0
H2421 H 0.84019 0.66638 0.83442 0.0
H2422 H 0.88009 0.69149 0.79021 0.0
H2423 H 0.86826 0.6711 0.81405 0.0
H2424 H 0.79766 0.62157 0.79589 0.0
H2425 H 0.80931 0.64234 0.77197 0.0
C2426 C 0.80527 0.59764 0.83742 0.0
C2427 C 0.81138 0.61161 0.85052 0.0
C2428 C 0.8116 0.60832 0.8233 0.0
C2429 C 0.82449 0.63324 0.82193 0.0
C2430 C 0.83052 0.64716 0.83504 0.0
C2431 C 0.82399 0.63651 0.84911 0.0
C2432 C 0.86193 0.67638 0.79126 0.0
C2433 C 0.84558 0.66886 0.77912 0.0
C2434 C 0.85517 0.66465 0.80498 0.0
C2435 C 0.8319 0.64485 0.80699 0.0
C2436 C 0.81577 0.6367 0.79473 0.0
C2437 C 0.8225 0.64859 0.78098 0.0
H2438 H 0.4106 0.20453 0.83557 0.0
H2439 H 0.34096 0.17246 0.85744 0.0
H2440 H 0.39047 0.19694 0.81132 0.0
H2441 H 0.32076 0.16537 0.83325 0.0
H2442 H 0.29076 0.13591 0.78687 0.0
H2443 H 0.31096 0.14213 0.81102 0.0
H2444 H 0.369 0.2101 0.79602 0.0
H2445 H 0.34904 0.20349 0.77179 0.0
C2446 C 0.39098 0.196 0.83517 0.0
C2447 C 0.37735 0.18909 0.84839 0.0
C2448 C 0.37942 0.19171 0.82128 0.0
C2449 C 0.35395 0.18061 0.82029 0.0
C2450 C 0.34035 0.1736 0.83355 0.0
C2451 C 0.35192 0.1777 0.84743 0.0
C2452 C 0.30778 0.15221 0.7888 0.0
C2453 C 0.31834 0.1692 0.77745 0.0
C2454 C 0.31935 0.15583 0.80264 0.0
C2455 C 0.34166 0.17662 0.80551 0.0
C2456 C 0.3521 0.19367 0.79415 0.0
C2457 C 0.34063 0.18995 0.78027 0.0
H2458 H 0.78098 0.15425 0.84668 0.0
H2459 H 0.84484 0.224 0.84921 0.0
H2460 H 0.79343 0.14822 0.822 0.0
H2461 H 0.85721 0.21806 0.8246 0.0
H2462 H 0.88652 0.1884 0.78913 0.0
H2463 H 0.87264 0.19468 0.81312 0.0
H2464 H 0.79915 0.16133 0.79613 0.0
H2465 H 0.81295 0.15418 0.77223 0.0
C2466 C 0.79752 0.1684 0.8419 0.0
C2467 C 0.81202 0.18952 0.85 0.0
C2468 C 0.80466 0.16496 0.82774 0.0
C2469 C 0.82644 0.18257 0.82133 0.0
C2470 C 0.8406 0.2039 0.8293 0.0
C2471 C 0.8335 0.20731 0.84344 0.0
C2472 C 0.86736 0.18221 0.79053 0.0
C2473 C 0.85086 0.17069 0.77874 0.0
C2474 C 0.85942 0.18608 0.80425 0.0
C2475 C 0.83476 0.17858 0.80658 0.0
C2476 C 0.81823 0.16715 0.79478 0.0
C2477 C 0.8262 0.16329 0.78101 0.0
H2478 H 0.34423 0.16261 0.49506 0.0
H2479 H 0.27417 0.14059 0.51476 0.0
H2480 H 0.36206 0.1683 0.51993 0.0
H2481 H 0.29216 0.14669 0.53961 0.0
H2482 H 0.33926 0.18358 0.58116 0.0
H2483 H 0.32175 0.17914 0.55627 0.0
H2484 H 0.35937 0.14291 0.54135 0.0
H2485 H 0.37656 0.14694 0.56626 0.0
C2486 C 0.3326 0.1589 0.50468 0.0
C2487 C 0.30773 0.15107 0.50289 0.0
C2488 C 0.34284 0.1622 0.51893 0.0
C2489 C 0.32849 0.15789 0.53172 0.0
C2490 C 0.30374 0.15044 0.52996 0.0
C2491 C 0.29346 0.147 0.51571 0.0
C2492 C 0.34361 0.17445 0.57262 0.0
C2493 C 0.35933 0.16561 0.57573 0.0
C2494 C 0.33362 0.17197 0.55836 0.0
C2495 C 0.33923 0.16073 0.54685 0.0
C2496 C 0.355 0.15198 0.54992 0.0
C2497 C 0.36488 0.15433 0.5642 0.0
H2498 H 0.84704 0.16336 0.49517 0.0
H2499 H 0.88555 0.13231 0.51638 0.0
H2500 H 0.83446 0.17005 0.51952 0.0
H2501 H 0.87347 0.13947 0.54084 0.0
H2502 H 0.82486 0.13193 0.5808 0.0
H2503 H 0.83928 0.12618 0.55676 0.0
H2504 H 0.84834 0.19325 0.54162 0.0
H2505 H 0.83333 0.19858 0.56551 0.0
C2506 C 0.85311 0.15827 0.50506 0.0
C2507 C 0.86729 0.1473 0.50382 0.0
C2508 C 0.84595 0.16215 0.51907 0.0
C2509 C 0.85294 0.15535 0.53223 0.0
C2510 C 0.86737 0.14459 0.53097 0.0
C2511 C 0.87437 0.14054 0.51695 0.0
C2512 C 0.83013 0.14551 0.57236 0.0
C2513 C 0.8278 0.16563 0.57502 0.0
C2514 C 0.83847 0.14227 0.55857 0.0
C2515 C 0.8449 0.15918 0.54715 0.0
C2516 C 0.84307 0.17957 0.54999 0.0
C2517 C 0.83454 0.1827 0.56372 0.0
H2518 H 0.88691 0.75613 0.51434 0.0
H2519 H 0.84038 0.68758 0.49386 0.0
H2520 H 0.87588 0.73795 0.53904 0.0
H2521 H 0.82931 0.66956 0.51843 0.0
H2522 H 0.79358 0.64883 0.56371 0.0
H2523 H 0.80593 0.66904 0.53985 0.0
H2524 H 0.87973 0.71023 0.55597 0.0
H2525 H 0.8673 0.68983 0.58 0.0
C2526 C 0.87451 0.73717 0.51507 0.0
C2527 C 0.86441 0.72341 0.50203 0.0
C2528 C 0.86816 0.72674 0.52926 0.0
C2529 C 0.85149 0.7023 0.53079 0.0
C2530 C 0.84176 0.68852 0.51774 0.0
C2531 C 0.84813 0.6989 0.5036 0.0
C2532 C 0.81249 0.66211 0.56219 0.0
C2533 C 0.82948 0.66742 0.57377 0.0
C2534 C 0.81959 0.67372 0.54846 0.0
C2535 C 0.84392 0.69107 0.54584 0.0
C2536 C 0.86082 0.69705 0.55758 0.0
C2537 C 0.85368 0.68537 0.57138 0.0
loop_
_geom_bond_atom_site_label_1
_geom_bond_atom_site_label_2
_geom_bond_distance
_geom_bond_site_symmetry_2
_ccdc_geom_bond_type
C0 C1 1.386 . S
C0 C2 1.397 . S
C0 H24 0.931 . S
C1 C0 1.386 . S
C1 C5 1.397 . S
C2 C0 1.397 . S
C2 C3 1.384 . S
C2 H25 0.930 . S
C3 C2 1.384 . S
C3 C4 1.377 . S
C3 C6 1.481 . S
C4 C3 1.377 . S
C4 C5 1.389 . S
C4 H26 0.929 . S
C5 C1 1.397 . S
C5 C4 1.389 . S
C5 H27 0.931 . S
C6 C3 1.481 . S
C6 C7 1.387 . S
C6 C11 1.390 . S
C7 C6 1.387 . S
C7 C8 1.401 . S
C7 H28 0.930 . S
C8 C7 1.401 . S
C8 C9 1.376 . S
C8 C17 1.511 . S
C9 C8 1.376 . S
C9 C10 1.392 . S
C9 H30 0.931 . S
C10 C9 1.392 . S
C10 C11 1.361 . S
C10 C12 1.500 . S
C11 C6 1.390 . S
C11 C10 1.361 . S
C11 H29 0.931 . S
C12 C10 1.500 . S
C12 C13 1.371 . S
C12 C14 1.365 . S
C13 C12 1.371 . S
C13 C23 1.386 . S
C13 H31 0.931 . S
C14 C12 1.365 . S
C14 C15 1.409 . S
C14 H32 0.929 . S
C15 C14 1.409 . S
C15 C16 1.380 . S
C15 H33 0.930 . S
C16 C15 1.380 . S
C16 C23 1.357 . S
C17 C8 1.511 . S
C17 C18 1.341 . S
C17 C19 1.371 . S
C18 C17 1.341 . S
C18 C22 1.394 . S
C18 H34 0.930 . S
C19 C17 1.371 . S
C19 C20 1.392 . S
C19 H35 0.931 . S
C20 C19 1.392 . S
C20 C21 1.331 . S
C20 H38 0.932 . S
C21 C20 1.331 . S
C21 C22 1.336 . S
C22 C18 1.394 . S
C22 C21 1.336 . S
C22 H37 0.929 . S
C23 C13 1.386 . S
C23 C16 1.357 . S
C23 H36 0.928 . S
H24 C0 0.931 . S
H25 C2 0.930 . S
H26 C4 0.929 . S
H27 C5 0.931 . S
H28 C7 0.930 . S
H29 C11 0.931 . S
H30 C9 0.931 . S
H31 C13 0.931 . S
H32 C14 0.929 . S
H33 C15 0.930 . S
H34 C18 0.930 . S
H35 C19 0.931 . S
H36 C23 0.928 . S
H37 C22 0.929 . S
H38 C20 0.932 . S
C39 C40 1.386 . S
C39 C41 1.397 . S
C39 H63 0.931 . S
C40 C39 1.386 . S
C40 C44 1.397 . S
C41 C39 1.397 . S
C41 C42 1.384 . S
C41 H64 0.930 . S
C42 C41 1.384 . S
C42 C43 1.377 . S
C42 C45 1.481 . S
C43 C42 1.377 . S
C43 C44 1.389 . S
C43 H65 0.929 . S
C44 C40 1.397 . S
C44 C43 1.389 . S
C44 H66 0.931 . S
C45 C42 1.481 . S
C45 C46 1.387 . S
C45 C50 1.390 . S
C46 C45 1.387 . S
C46 C47 1.401 . S
C46 H67 0.930 . S
C47 C46 1.401 . S
C47 C48 1.376 . S
C47 C56 1.511 . S
C48 C47 1.376 . S
C48 C49 1.392 . S
C48 H69 0.931 . S
C49 C48 1.392 . S
C49 C50 1.361 . S
C49 C51 1.500 . S
C50 C45 1.390 . S
C50 C49 1.361 . S
C50 H68 0.931 . S
C51 C49 1.500 . S
C51 C52 1.371 . S
C51 C53 1.365 . S
C52 C51 1.371 . S
C52 C62 1.386 . S
C52 H70 0.931 . S
C53 C51 1.365 . S
C53 C54 1.409 . S
C53 H71 0.929 . S
C54 C53 1.409 . S
C54 C55 1.380 . S
C54 H72 0.930 . S
C55 C54 1.380 . S
C55 C62 1.357 . S
C56 C47 1.511 . S
C56 C57 1.341 . S
C56 C58 1.371 . S
C57 C56 1.341 . S
C57 C61 1.394 . S
C57 H73 0.930 . S
C58 C56 1.371 . S
C58 C59 1.392 . S
C58 H74 0.931 . S
C59 C58 1.392 . S
C59 C60 1.331 . S
C59 H77 0.932 . S
C60 C59 1.331 . S
C60 C61 1.336 . S
C61 C57 1.394 . S
C61 C60 1.336 . S
C61 H76 0.929 . S
C62 C52 1.386 . S
C62 C55 1.357 . S
C62 H75 0.928 . S
H63 C39 0.931 . S
H64 C41 0.930 . S
H65 C43 0.929 . S
H66 C44 0.931 . S
H67 C46 0.930 . S
H68 C50 0.931 . S
H69 C48 0.931 . S
H70 C52 0.931 . S
H71 C53 0.929 . S
H72 C54 0.930 . S
H73 C57 0.930 . S
H74 C58 0.931 . S
H75 C62 0.928 . S
H76 C61 0.929 . S
H77 C59 0.932 . S
C78 C79 1.386 . S
C78 C80 1.397 . S
C78 H102 0.931 . S
C79 C78 1.386 . S
C79 C83 1.397 . S
C80 C78 1.397 . S
C80 C81 1.384 . S
C80 H103 0.930 . S
C81 C80 1.384 . S
C81 C82 1.377 . S
C81 C84 1.481 . S
C82 C81 1.377 . S
C82 C83 1.389 . S
C82 H104 0.929 . S
C83 C79 1.397 . S
C83 C82 1.389 . S
C83 H105 0.931 . S
C84 C81 1.481 . S
C84 C85 1.387 . S
C84 C89 1.390 . S
C85 C84 1.387 . S
C85 C86 1.401 . S
C85 H106 0.930 . S
C86 C85 1.401 . S
C86 C87 1.376 . S
C86 C95 1.511 . S
C87 C86 1.376 . S
C87 C88 1.392 . S
C87 H108 0.931 . S
C88 C87 1.392 . S
C88 C89 1.361 . S
C88 C90 1.500 . S
C89 C84 1.390 . S
C89 C88 1.361 . S
C89 H107 0.931 . S
C90 C88 1.500 . S
C90 C91 1.371 . S
C90 C92 1.365 . S
C91 C90 1.371 . S
C91 C101 1.386 . S
C91 H109 0.931 . S
C92 C90 1.365 . S
C92 C93 1.409 . S
C92 H110 0.929 . S
C93 C92 1.409 . S
C93 C94 1.380 . S
C93 H111 0.930 . S
C94 C93 1.380 . S
C94 C101 1.357 . S
C95 C86 1.511 . S
C95 C96 1.341 . S
C95 C97 1.371 . S
C96 C95 1.341 . S
C96 C100 1.394 . S
C96 H112 0.930 . S
C97 C95 1.371 . S
C97 C98 1.392 . S
C97 H113 0.931 . S
C98 C97 1.392 . S
C98 C99 1.331 . S
C98 H116 0.932 . S
C99 C98 1.331 . S
C99 C100 1.336 . S
C100 C96 1.394 . S
C100 C99 1.336 . S
C100 H115 0.929 . S
C101 C91 1.386 . S
C101 C94 1.357 . S
C101 H114 0.928 . S
H102 C78 0.931 . S
H103 C80 0.930 . S
H104 C82 0.929 . S
H105 C83 0.931 . S
H106 C85 0.930 . S
H107 C89 0.931 . S
H108 C87 0.931 . S
H109 C91 0.931 . S
H110 C92 0.929 . S
H111 C93 0.930 . S
H112 C96 0.930 . S
H113 C97 0.931 . S
H114 C101 0.928 . S
H115 C100 0.929 . S
H116 C98 0.932 . S
C117 C118 1.386 . S
C117 C119 1.397 . S
C117 H141 0.931 . S
C118 C117 1.386 . S
C118 C122 1.397 . S
C119 C117 1.397 . S
C119 C120 1.384 . S
C119 H142 0.930 . S
C120 C119 1.384 . S
C120 C121 1.377 . S
C120 C123 1.481 . S
C121 C120 1.377 . S
C121 C122 1.389 . S
C121 H143 0.929 . S
C122 C118 1.397 . S
C122 C121 1.389 . S
C122 H144 0.931 . S
C123 C120 1.481 . S
C123 C124 1.387 . S
C123 C128 1.390 . S
C124 C123 1.387 . S
C124 C125 1.401 . S
C124 H145 0.930 . S
C125 C124 1.401 . S
C125 C126 1.376 . S
C125 C134 1.511 . S
C126 C125 1.376 . S
C126 C127 1.392 . S
C126 H147 0.931 . S
C127 C126 1.392 . S
C127 C128 1.361 . S
C127 C129 1.500 . S
C128 C123 1.390 . S
C128 C127 1.361 . S
C128 H146 0.931 . S
C129 C127 1.500 . S
C129 C130 1.371 . S
C129 C131 1.365 . S
C130 C129 1.371 . S
C130 C140 1.386 . S
C130 H148 0.931 . S
C131 C129 1.365 . S
C131 C132 1.409 . S
C131 H149 0.929 . S
C132 C131 1.409 . S
C132 C133 1.380 . S
C132 H150 0.930 . S
C133 C132 1.380 . S
C133 C140 1.357 . S
C134 C125 1.511 . S
C134 C135 1.341 . S
C134 C136 1.371 . S
C135 C134 1.341 . S
C135 C139 1.394 . S
C135 H151 0.930 . S
C136 C134 1.371 . S
C136 C137 1.392 . S
C136 H152 0.931 . S
C137 C136 1.392 . S
C137 C138 1.331 . S
C137 H155 0.932 . S
C138 C137 1.331 . S
C138 C139 1.336 . S
C139 C135 1.394 . S
C139 C138 1.336 . S
C139 H154 0.929 . S
C140 C130 1.386 . S
C140 C133 1.357 . S
C140 H153 0.928 . S
H141 C117 0.931 . S
H142 C119 0.930 . S
H143 C121 0.929 . S
H144 C122 0.931 . S
H145 C124 0.930 . S
H146 C128 0.931 . S
H147 C126 0.931 . S
H148 C130 0.931 . S
H149 C131 0.929 . S
H150 C132 0.930 . S
H151 C135 0.930 . S
H152 C136 0.931 . S
H153 C140 0.928 . S
H154 C139 0.929 . S
H155 C137 0.932 . S
C156 C157 1.386 . S
C156 C158 1.397 . S
C156 H180 0.931 . S
C157 C156 1.386 . S
C157 C161 1.397 . S
C158 C156 1.397 . S
C158 C159 1.384 . S
C158 H181 0.930 . S
C159 C158 1.384 . S
C159 C160 1.377 . S
C159 C162 1.481 . S
C160 C159 1.377 . S
C160 C161 1.389 . S
C160 H182 0.929 . S
C161 C157 1.397 . S
C161 C160 1.389 . S
C161 H183 0.931 . S
C162 C159 1.481 . S
C162 C163 1.387 . S
C162 C167 1.390 . S
C163 C162 1.387 . S
C163 C164 1.401 . S
C163 H184 0.930 . S
C164 C163 1.401 . S
C164 C165 1.376 . S
C164 C173 1.511 . S
C165 C164 1.376 . S
C165 C166 1.392 . S
C165 H186 0.931 . S
C166 C165 1.392 . S
C166 C167 1.361 . S
C166 C168 1.500 . S
C167 C162 1.390 . S
C167 C166 1.361 . S
C167 H185 0.931 . S
C168 C166 1.500 . S
C168 C169 1.371 . S
C168 C170 1.365 . S
C169 C168 1.371 . S
C169 C179 1.386 . S
C169 H187 0.931 . S
C170 C168 1.365 . S
C170 C171 1.409 . S
C170 H188 0.929 . S
C171 C170 1.409 . S
C171 C172 1.380 . S
C171 H189 0.930 . S
C172 C171 1.380 . S
C172 C179 1.357 . S
C173 C164 1.511 . S
C173 C174 1.341 . S
C173 C175 1.371 . S
C174 C173 1.341 . S
C174 C178 1.394 . S
C174 H190 0.930 . S
C175 C173 1.371 . S
C175 C176 1.392 . S
C175 H191 0.931 . S
C176 C175 1.392 . S
C176 C177 1.331 . S
C176 H194 0.932 . S
C177 C176 1.331 . S
C177 C178 1.336 . S
C178 C174 1.394 . S
C178 C177 1.336 . S
C178 H193 0.929 . S
C179 C169 1.386 . S
C179 C172 1.357 . S
C179 H192 0.928 . S
H180 C156 0.931 . S
H181 C158 0.930 . S
H182 C160 0.929 . S
H183 C161 0.931 . S
H184 C163 0.930 . S
H185 C167 0.931 . S
H186 C165 0.931 . S
H187 C169 0.931 . S
H188 C170 0.929 . S
H189 C171 0.930 . S
H190 C174 0.930 . S
H191 C175 0.931 . S
H192 C179 0.928 . S
H193 C178 0.929 . S
H194 C176 0.932 . S
C195 C196 1.386 . S
C195 C197 1.397 . S
C195 H219 0.931 . S
C196 C195 1.386 . S
C196 C200 1.397 . S
C197 C195 1.397 . S
C197 C198 1.384 . S
C197 H220 0.930 . S
C198 C197 1.384 . S
C198 C199 1.377 . S
C198 C201 1.481 . S
C199 C198 1.377 . S
C199 C200 1.389 . S
C199 H221 0.929 . S
C200 C196 1.397 . S
C200 C199 1.389 . S
C200 H222 0.931 . S
C201 C198 1.481 . S
C201 C202 1.387 . S
C201 C206 1.390 . S
C202 C201 1.387 . S
C202 C203 1.401 . S
C202 H223 0.930 . S
C203 C202 1.401 . S
C203 C204 1.376 . S
C203 C212 1.511 . S
C204 C203 1.376 . S
C204 C205 1.392 . S
C204 H225 0.931 . S
C205 C204 1.392 . S
C205 C206 1.361 . S
C205 C207 1.500 . S
C206 C201 1.390 . S
C206 C205 1.361 . S
C206 H224 0.931 . S
C207 C205 1.500 . S
C207 C208 1.371 . S
C207 C209 1.365 . S
C208 C207 1.371 . S
C208 C218 1.386 . S
C208 H226 0.931 . S
C209 C207 1.365 . S
C209 C210 1.409 . S
C209 H227 0.929 . S
C210 C209 1.409 . S
C210 C211 1.380 . S
C210 H228 0.930 . S
C211 C210 1.380 . S
C211 C218 1.357 . S
C212 C203 1.511 . S
C212 C213 1.341 . S
C212 C214 1.371 . S
C213 C212 1.341 . S
C213 C217 1.394 . S
C213 H229 0.930 . S
C214 C212 1.371 . S
C214 C215 1.392 . S
C214 H230 0.931 . S
C215 C214 1.392 . S
C215 C216 1.331 . S
C215 H233 0.932 . S
C216 C215 1.331 . S
C216 C217 1.336 . S
C217 C213 1.394 . S
C217 C216 1.336 . S
C217 H232 0.929 . S
C218 C208 1.386 . S
C218 C211 1.357 . S
C218 H231 0.928 . S
H219 C195 0.931 . S
H220 C197 0.930 . S
H221 C199 0.929 . S
H222 C200 0.931 . S
H223 C202 0.930 . S
H224 C206 0.931 . S
H225 C204 0.931 . S
H226 C208 0.931 . S
H227 C209 0.929 . S
H228 C210 0.930 . S
H229 C213 0.930 . S
H230 C214 0.931 . S
H231 C218 0.928 . S
H232 C217 0.929 . S
H233 C215 0.932 . S
C234 C235 1.386 . S
C234 C236 1.397 . S
C234 H258 0.931 . S
C235 C234 1.386 . S
C235 C239 1.397 . S
C236 C234 1.397 . S
C236 C237 1.384 . S
C236 H259 0.930 . S
C237 C236 1.384 . S
C237 C238 1.377 . S
C237 C240 1.481 . S
C238 C237 1.377 . S
C238 C239 1.389 . S
C238 H260 0.929 . S
C239 C235 1.397 . S
C239 C238 1.389 . S
C239 H261 0.931 . S
C240 C237 1.481 . S
C240 C241 1.387 . S
C240 C245 1.390 . S
C241 C240 1.387 . S
C241 C242 1.401 . S
C241 H262 0.930 . S
C242 C241 1.401 . S
C242 C243 1.376 . S
C242 C251 1.511 . S
C243 C242 1.376 . S
C243 C244 1.392 . S
C243 H264 0.931 . S
C244 C243 1.392 . S
C244 C245 1.361 . S
C244 C246 1.500 . S
C245 C240 1.390 . S
C245 C244 1.361 . S
C245 H263 0.931 . S
C246 C244 1.500 . S
C246 C247 1.371 . S
C246 C248 1.365 . S
C247 C246 1.371 . S
C247 C257 1.386 . S
C247 H265 0.931 . S
C248 C246 1.365 . S
C248 C249 1.409 . S
C248 H266 0.929 . S
C249 C248 1.409 . S
C249 C250 1.380 . S
C249 H267 0.930 . S
C250 C249 1.380 . S
C250 C257 1.357 . S
C251 C242 1.511 . S
C251 C252 1.341 . S
C251 C253 1.371 . S
C252 C251 1.341 . S
C252 C256 1.394 . S
C252 H268 0.930 . S
C253 C251 1.371 . S
C253 C254 1.392 . S
C253 H269 0.931 . S
C254 C253 1.392 . S
C254 C255 1.331 . S
C254 H272 0.932 . S
C255 C254 1.331 . S
C255 C256 1.336 . S
C256 C252 1.394 . S
C256 C255 1.336 . S
C256 H271 0.929 . S
C257 C247 1.386 . S
C257 C250 1.357 . S
C257 H270 0.928 . S
H258 C234 0.931 . S
H259 C236 0.930 . S
H260 C238 0.929 . S
H261 C239 0.931 . S
H262 C241 0.930 . S
H263 C245 0.931 . S
H264 C243 0.931 . S
H265 C247 0.931 . S
H266 C248 0.929 . S
H267 C249 0.930 . S
H268 C252 0.930 . S
H269 C253 0.931 . S
H270 C257 0.928 . S
H271 C256 0.929 . S
H272 C254 0.932 . S
C273 C274 1.386 . S
C273 C275 1.397 . S
C273 H297 0.931 . S
C274 C273 1.386 . S
C274 C278 1.397 . S
C275 C273 1.397 . S
C275 C276 1.384 . S
C275 H298 0.930 . S
C276 C275 1.384 . S
C276 C277 1.377 . S
C276 C279 1.481 . S
C277 C276 1.377 . S
C277 C278 1.389 . S
C277 H299 0.929 . S
C278 C274 1.397 . S
C278 C277 1.389 . S
C278 H300 0.931 . S
C279 C276 1.481 . S
C279 C280 1.387 . S
C279 C284 1.390 . S
C280 C279 1.387 . S
C280 C281 1.401 . S
C280 H301 0.930 . S
C281 C280 1.401 . S
C281 C282 1.376 . S
C281 C290 1.511 . S
C282 C281 1.376 . S
C282 C283 1.392 . S
C282 H303 0.931 . S
C283 C282 1.392 . S
C283 C284 1.361 . S
C283 C285 1.500 . S
C284 C279 1.390 . S
C284 C283 1.361 . S
C284 H302 0.931 . S
C285 C283 1.500 . S
C285 C286 1.371 . S
C285 C287 1.365 . S
C286 C285 1.371 . S
C286 C296 1.386 . S
C286 H304 0.931 . S
C287 C285 1.365 . S
C287 C288 1.409 . S
C287 H305 0.929 . S
C288 C287 1.409 . S
C288 C289 1.380 . S
C288 H306 0.930 . S
C289 C288 1.380 . S
C289 C296 1.357 . S
C290 C281 1.511 . S
C290 C291 1.341 . S
C290 C292 1.371 . S
C291 C290 1.341 . S
C291 C295 1.394 . S
C291 H307 0.930 . S
C292 C290 1.371 . S
C292 C293 1.392 . S
C292 H308 0.931 . S
C293 C292 1.392 . S
C293 C294 1.331 . S
C293 H311 0.932 . S
C294 C293 1.331 . S
C294 C295 1.336 . S
C295 C291 1.394 . S
C295 C294 1.336 . S
C295 H310 0.929 . S
C296 C286 1.386 . S
C296 C289 1.357 . S
C296 H309 0.928 . S
H297 C273 0.931 . S
H298 C275 0.930 . S
H299 C277 0.929 . S
H300 C278 0.931 . S
H301 C280 0.930 . S
H302 C284 0.931 . S
H303 C282 0.931 . S
H304 C286 0.931 . S
H305 C287 0.929 . S
H306 C288 0.930 . S
H307 C291 0.930 . S
H308 C292 0.931 . S
H309 C296 0.928 . S
H310 C295 0.929 . S
H311 C293 0.932 . S
C312 C313 1.386 . S
C312 C314 1.397 . S
C312 H336 0.931 . S
C313 C312 1.386 . S
C313 C317 1.397 . S
C314 C312 1.397 . S
C314 C315 1.384 . S
C314 H337 0.930 . S
C315 C314 1.384 . S
C315 C316 1.377 . S
C315 C318 1.481 . S
C316 C315 1.377 . S
C316 C317 1.389 . S
C316 H338 0.929 . S
C317 C313 1.397 . S
C317 C316 1.389 . S
C317 H339 0.931 . S
C318 C315 1.481 . S
C318 C319 1.387 . S
C318 C323 1.390 . S
C319 C318 1.387 . S
C319 C320 1.401 . S
C319 H340 0.930 . S
C320 C319 1.401 . S
C320 C321 1.376 . S
C320 C329 1.511 . S
C321 C320 1.376 . S
C321 C322 1.392 . S
C321 H342 0.931 . S
C322 C321 1.392 . S
C322 C323 1.361 . S
C322 C324 1.500 . S
C323 C318 1.390 . S
C323 C322 1.361 . S
C323 H341 0.931 . S
C324 C322 1.500 . S
C324 C325 1.371 . S
C324 C326 1.365 . S
C325 C324 1.371 . S
C325 C335 1.386 . S
C325 H343 0.931 . S
C326 C324 1.365 . S
C326 C327 1.409 . S
C326 H344 0.929 . S
C327 C326 1.409 . S
C327 C328 1.380 . S
C327 H345 0.930 . S
C328 C327 1.380 . S
C328 C335 1.357 . S
C329 C320 1.511 . S
C329 C330 1.341 . S
C329 C331 1.371 . S
C330 C329 1.341 . S
C330 C334 1.394 . S
C330 H346 0.930 . S
C331 C329 1.371 . S
C331 C332 1.392 . S
C331 H347 0.931 . S
C332 C331 1.392 . S
C332 C333 1.331 . S
C332 H350 0.932 . S
C333 C332 1.331 . S
C333 C334 1.336 . S
C334 C330 1.394 . S
C334 C333 1.336 . S
C334 H349 0.929 . S
C335 C325 1.386 . S
C335 C328 1.357 . S
C335 H348 0.928 . S
H336 C312 0.931 . S
H337 C314 0.930 . S
H338 C316 0.929 . S
H339 C317 0.931 . S
H340 C319 0.930 . S
H341 C323 0.931 . S
H342 C321 0.931 . S
H343 C325 0.931 . S
H344 C326 0.929 . S
H345 C327 0.930 . S
H346 C330 0.930 . S
H347 C331 0.931 . S
H348 C335 0.928 . S
H349 C334 0.929 . S
H350 C332 0.932 . S
C351 C352 1.386 . S
C351 C353 1.397 . S
C351 H375 0.931 . S
C352 C351 1.386 . S
C352 C356 1.397 . S
C353 C351 1.397 . S
C353 C354 1.384 . S
C353 H376 0.930 . S
C354 C353 1.384 . S
C354 C355 1.377 . S
C354 C357 1.481 . S
C355 C354 1.377 . S
C355 C356 1.389 . S
C355 H377 0.929 . S
C356 C352 1.397 . S
C356 C355 1.389 . S
C356 H378 0.931 . S
C357 C354 1.481 . S
C357 C358 1.387 . S
C357 C362 1.390 . S
C358 C357 1.387 . S
C358 C359 1.401 . S
C358 H379 0.930 . S
C359 C358 1.401 . S
C359 C360 1.376 . S
C359 C368 1.511 . S
C360 C359 1.376 . S
C360 C361 1.392 . S
C360 H381 0.931 . S
C361 C360 1.392 . S
C361 C362 1.361 . S
C361 C363 1.500 . S
C362 C357 1.390 . S
C362 C361 1.361 . S
C362 H380 0.931 . S
C363 C361 1.500 . S
C363 C364 1.371 . S
C363 C365 1.365 . S
C364 C363 1.371 . S
C364 C374 1.386 . S
C364 H382 0.931 . S
C365 C363 1.365 . S
C365 C366 1.409 . S
C365 H383 0.929 . S
C366 C365 1.409 . S
C366 C367 1.380 . S
C366 H384 0.930 . S
C367 C366 1.380 . S
C367 C374 1.357 . S
C368 C359 1.511 . S
C368 C369 1.341 . S
C368 C370 1.371 . S
C369 C368 1.341 . S
C369 C373 1.394 . S
C369 H385 0.930 . S
C370 C368 1.371 . S
C370 C371 1.392 . S
C370 H386 0.931 . S
C371 C370 1.392 . S
C371 C372 1.331 . S
C371 H389 0.932 . S
C372 C371 1.331 . S
C372 C373 1.336 . S
C373 C369 1.394 . S
C373 C372 1.336 . S
C373 H388 0.929 . S
C374 C364 1.386 . S
C374 C367 1.357 . S
C374 H387 0.928 . S
H375 C351 0.931 . S
H376 C353 0.930 . S
H377 C355 0.929 . S
H378 C356 0.931 . S
H379 C358 0.930 . S
H380 C362 0.931 . S
H381 C360 0.931 . S
H382 C364 0.931 . S
H383 C365 0.929 . S
H384 C366 0.930 . S
H385 C369 0.930 . S
H386 C370 0.931 . S
H387 C374 0.928 . S
H388 C373 0.929 . S
H389 C371 0.932 . S
C390 C391 1.386 . S
C390 C392 1.397 . S
C390 H414 0.931 . S
C391 C390 1.386 . S
C391 C395 1.397 . S
C392 C390 1.397 . S
C392 C393 1.384 . S
C392 H415 0.930 . S
C393 C392 1.384 . S
C393 C394 1.377 . S
C393 C396 1.481 . S
C394 C393 1.377 . S
C394 C395 1.389 . S
C394 H416 0.929 . S
C395 C391 1.397 . S
C395 C394 1.389 . S
C395 H417 0.931 . S
C396 C393 1.481 . S
C396 C397 1.387 . S
C396 C401 1.390 . S
C397 C396 1.387 . S
C397 C398 1.401 . S
C397 H418 0.930 . S
C398 C397 1.401 . S
C398 C399 1.376 . S
C398 C407 1.511 . S
C399 C398 1.376 . S
C399 C400 1.392 . S
C399 H420 0.931 . S
C400 C399 1.392 . S
C400 C401 1.361 . S
C400 C402 1.500 . S
C401 C396 1.390 . S
C401 C400 1.361 . S
C401 H419 0.931 . S
C402 C400 1.500 . S
C402 C403 1.371 . S
C402 C404 1.365 . S
C403 C402 1.371 . S
C403 C413 1.386 . S
C403 H421 0.931 . S
C404 C402 1.365 . S
C404 C405 1.409 . S
C404 H422 0.929 . S
C405 C404 1.409 . S
C405 C406 1.380 . S
C405 H423 0.930 . S
C406 C405 1.380 . S
C406 C413 1.357 . S
C407 C398 1.511 . S
C407 C408 1.341 . S
C407 C409 1.371 . S
C408 C407 1.341 . S
C408 C412 1.394 . S
C408 H424 0.930 . S
C409 C407 1.371 . S
C409 C410 1.392 . S
C409 H425 0.931 . S
C410 C409 1.392 . S
C410 C411 1.331 . S
C410 H428 0.932 . S
C411 C410 1.331 . S
C411 C412 1.336 . S
C412 C408 1.394 . S
C412 C411 1.336 . S
C412 H427 0.929 . S
C413 C403 1.386 . S
C413 C406 1.357 . S
C413 H426 0.928 . S
H414 C390 0.931 . S
H415 C392 0.930 . S
H416 C394 0.929 . S
H417 C395 0.931 . S
H418 C397 0.930 . S
H419 C401 0.931 . S
H420 C399 0.931 . S
H421 C403 0.931 . S
H422 C404 0.929 . S
H423 C405 0.930 . S
H424 C408 0.930 . S
H425 C409 0.931 . S
H426 C413 0.928 . S
H427 C412 0.929 . S
H428 C410 0.932 . S
C429 C430 1.386 . S
C429 C431 1.397 . S
C429 H453 0.931 . S
C430 C429 1.386 . S
C430 C434 1.397 . S
C431 C429 1.397 . S
C431 C432 1.384 . S
C431 H454 0.930 . S
C432 C431 1.384 . S
C432 C433 1.377 . S
C432 C435 1.481 . S
C433 C432 1.377 . S
C433 C434 1.389 . S
C433 H455 0.929 . S
C434 C430 1.397 . S
C434 C433 1.389 . S
C434 H456 0.931 . S
C435 C432 1.481 . S
C435 C436 1.387 . S
C435 C440 1.390 . S
C436 C435 1.387 . S
C436 C437 1.401 . S
C436 H457 0.930 . S
C437 C436 1.401 . S
C437 C438 1.376 . S
C437 C446 1.511 . S
C438 C437 1.376 . S
C438 C439 1.392 . S
C438 H459 0.931 . S
C439 C438 1.392 . S
C439 C440 1.361 . S
C439 C441 1.500 . S
C440 C435 1.390 . S
C440 C439 1.361 . S
C440 H458 0.931 . S
C441 C439 1.500 . S
C441 C442 1.371 . S
C441 C443 1.365 . S
C442 C441 1.371 . S
C442 C452 1.386 . S
C442 H460 0.931 . S
C443 C441 1.365 . S
C443 C444 1.409 . S
C443 H461 0.929 . S
C444 C443 1.409 . S
C444 C445 1.380 . S
C444 H462 0.930 . S
C445 C444 1.380 . S
C445 C452 1.357 . S
C446 C437 1.511 . S
C446 C447 1.341 . S
C446 C448 1.371 . S
C447 C446 1.341 . S
C447 C451 1.394 . S
C447 H463 0.930 . S
C448 C446 1.371 . S
C448 C449 1.392 . S
C448 H464 0.931 . S
C449 C448 1.392 . S
C449 C450 1.331 . S
C449 H467 0.932 . S
C450 C449 1.331 . S
C450 C451 1.336 . S
C451 C447 1.394 . S
C451 C450 1.336 . S
C451 H466 0.929 . S
C452 C442 1.386 . S
C452 C445 1.357 . S
C452 H465 0.928 . S
H453 C429 0.931 . S
H454 C431 0.930 . S
H455 C433 0.929 . S
H456 C434 0.931 . S
H457 C436 0.930 . S
H458 C440 0.931 . S
H459 C438 0.931 . S
H460 C442 0.931 . S
H461 C443 0.929 . S
H462 C444 0.930 . S
H463 C447 0.930 . S
H464 C448 0.931 . S
H465 C452 0.928 . S
H466 C451 0.929 . S
H467 C449 0.932 . S
C468 C469 1.386 . S
C468 C470 1.397 . S
C468 H492 0.931 . S
C469 C468 1.386 . S
C469 C473 1.397 . S
C470 C468 1.397 . S
C470 C471 1.384 . S
C470 H493 0.930 . S
C471 C470 1.384 . S
C471 C472 1.377 . S
C471 C474 1.481 . S
C472 C471 1.377 . S
C472 C473 1.389 . S
C472 H494 0.929 . S
C473 C469 1.397 . S
C473 C472 1.389 . S
C473 H495 0.931 . S
C474 C471 1.481 . S
C474 C475 1.387 . S
C474 C479 1.390 . S
C475 C474 1.387 . S
C475 C476 1.401 . S
C475 H496 0.930 . S
C476 C475 1.401 . S
C476 C477 1.376 . S
C476 C485 1.511 . S
C477 C476 1.376 . S
C477 C478 1.392 . S
C477 H498 0.931 . S
C478 C477 1.392 . S
C478 C479 1.361 . S
C478 C480 1.500 . S
C479 C474 1.390 . S
C479 C478 1.361 . S
C479 H497 0.931 . S
C480 C478 1.500 . S
C480 C481 1.371 . S
C480 C482 1.365 . S
C481 C480 1.371 . S
C481 C491 1.386 . S
C481 H499 0.931 . S
C482 C480 1.365 . S
C482 C483 1.409 . S
C482 H500 0.929 . S
C483 C482 1.409 . S
C483 C484 1.380 . S
C483 H501 0.930 . S
C484 C483 1.380 . S
C484 C491 1.357 . S
C485 C476 1.511 . S
C485 C486 1.341 . S
C485 C487 1.371 . S
C486 C485 1.341 . S
C486 C490 1.394 . S
C486 H502 0.930 . S
C487 C485 1.371 . S
C487 C488 1.392 . S
C487 H503 0.931 . S
C488 C487 1.392 . S
C488 C489 1.331 . S
C488 H506 0.932 . S
C489 C488 1.331 . S
C489 C490 1.336 . S
C490 C486 1.394 . S
C490 C489 1.336 . S
C490 H505 0.929 . S
C491 C481 1.386 . S
C491 C484 1.357 . S
C491 H504 0.928 . S
H492 C468 0.931 . S
H493 C470 0.930 . S
H494 C472 0.929 . S
H495 C473 0.931 . S
H496 C475 0.930 . S
H497 C479 0.931 . S
H498 C477 0.931 . S
H499 C481 0.931 . S
H500 C482 0.929 . S
H501 C483 0.930 . S
H502 C486 0.930 . S
H503 C487 0.931 . S
H504 C491 0.928 . S
H505 C490 0.929 . S
H506 C488 0.932 . S
C507 C508 1.386 . S
C507 C509 1.397 . S
C507 H531 0.931 . S
C508 C507 1.386 . S
C508 C512 1.397 . S
C509 C507 1.397 . S
C509 C510 1.384 . S
C509 H532 0.930 . S
C510 C509 1.384 . S
C510 C511 1.377 . S
C510 C513 1.481 . S
C511 C510 1.377 . S
C511 C512 1.389 . S
C511 H533 0.929 . S
C512 C508 1.397 . S
C512 C511 1.389 . S
C512 H534 0.931 . S
C513 C510 1.481 . S
C513 C514 1.387 . S
C513 C518 1.390 . S
C514 C513 1.387 . S
C514 C515 1.401 . S
C514 H535 0.930 . S
C515 C514 1.401 . S
C515 C516 1.376 . S
C515 C524 1.511 . S
C516 C515 1.376 . S
C516 C517 1.392 . S
C516 H537 0.931 . S
C517 C516 1.392 . S
C517 C518 1.361 . S
C517 C519 1.500 . S
C518 C513 1.390 . S
C518 C517 1.361 . S
C518 H536 0.931 . S
C519 C517 1.500 . S
C519 C520 1.371 . S
C519 C521 1.365 . S
C520 C519 1.371 . S
C520 C530 1.386 . S
C520 H538 0.931 . S
C521 C519 1.365 . S
C521 C522 1.409 . S
C521 H539 0.929 . S
C522 C521 1.409 . S
C522 C523 1.380 . S
C522 H540 0.930 . S
C523 C522 1.380 . S
C523 C530 1.357 . S
C524 C515 1.511 . S
C524 C525 1.341 . S
C524 C526 1.371 . S
C525 C524 1.341 . S
C525 C529 1.394 . S
C525 H541 0.930 . S
C526 C524 1.371 . S
C526 C527 1.392 . S
C526 H542 0.931 . S
C527 C526 1.392 . S
C527 C528 1.331 . S
C527 H545 0.932 . S
C528 C527 1.331 . S
C528 C529 1.336 . S
C529 C525 1.394 . S
C529 C528 1.336 . S
C529 H544 0.929 . S
C530 C520 1.386 . S
C530 C523 1.357 . S
C530 H543 0.928 . S
H531 C507 0.931 . S
H532 C509 0.930 . S
H533 C511 0.929 . S
H534 C512 0.931 . S
H535 C514 0.930 . S
H536 C518 0.931 . S
H537 C516 0.931 . S
H538 C520 0.931 . S
H539 C521 0.929 . S
H540 C522 0.930 . S
H541 C525 0.930 . S
H542 C526 0.931 . S
H543 C530 0.928 . S
H544 C529 0.929 . S
H545 C527 0.932 . S
C546 C547 1.386 . S
C546 C548 1.397 . S
C546 H570 0.931 . S
C547 C546 1.386 . S
C547 C551 1.397 . S
C548 C546 1.397 . S
C548 C549 1.384 . S
C548 H571 0.930 . S
C549 C548 1.384 . S
C549 C550 1.377 . S
C549 C552 1.481 . S
C550 C549 1.377 . S
C550 C551 1.389 . S
C550 H572 0.929 . S
C551 C547 1.397 . S
C551 C550 1.389 . S
C551 H573 0.931 . S
C552 C549 1.481 . S
C552 C553 1.387 . S
C552 C557 1.390 . S
C553 C552 1.387 . S
C553 C554 1.401 . S
C553 H574 0.930 . S
C554 C553 1.401 . S
C554 C555 1.376 . S
C554 C563 1.511 . S
C555 C554 1.376 . S
C555 C556 1.392 . S
C555 H576 0.931 . S
C556 C555 1.392 . S
C556 C557 1.361 . S
C556 C558 1.500 . S
C557 C552 1.390 . S
C557 C556 1.361 . S
C557 H575 0.931 . S
C558 C556 1.500 . S
C558 C559 1.371 . S
C558 C560 1.365 . S
C559 C558 1.371 . S
C559 C569 1.386 . S
C559 H577 0.931 . S
C560 C558 1.365 . S
C560 C561 1.409 . S
C560 H578 0.929 . S
C561 C560 1.409 . S
C561 C562 1.380 . S
C561 H579 0.930 . S
C562 C561 1.380 . S
C562 C569 1.357 . S
C563 C554 1.511 . S
C563 C564 1.341 . S
C563 C565 1.371 . S
C564 C563 1.341 . S
C564 C568 1.394 . S
C564 H580 0.930 . S
C565 C563 1.371 . S
C565 C566 1.392 . S
C565 H581 0.931 . S
C566 C565 1.392 . S
C566 C567 1.331 . S
C566 H584 0.932 . S
C567 C566 1.331 . S
C567 C568 1.336 . S
C568 C564 1.394 . S
C568 C567 1.336 . S
C568 H583 0.929 . S
C569 C559 1.386 . S
C569 C562 1.357 . S
C569 H582 0.928 . S
H570 C546 0.931 . S
H571 C548 0.930 . S
H572 C550 0.929 . S
H573 C551 0.931 . S
H574 C553 0.930 . S
H575 C557 0.931 . S
H576 C555 0.931 . S
H577 C559 0.931 . S
H578 C560 0.929 . S
H579 C561 0.930 . S
H580 C564 0.930 . S
H581 C565 0.931 . S
H582 C569 0.928 . S
H583 C568 0.929 . S
H584 C566 0.932 . S
C585 C586 1.386 . S
C585 C587 1.397 . S
C585 H609 0.931 . S
C586 C585 1.386 . S
C586 C590 1.397 . S
C587 C585 1.397 . S
C587 C588 1.384 . S
C587 H610 0.930 . S
C588 C587 1.384 . S
C588 C589 1.377 . S
C588 C591 1.481 . S
C589 C588 1.377 . S
C589 C590 1.389 . S
C589 H611 0.929 . S
C590 C586 1.397 . S
C590 C589 1.389 . S
C590 H612 0.931 . S
C591 C588 1.481 . S
C591 C592 1.387 . S
C591 C596 1.390 . S
C592 C591 1.387 . S
C592 C593 1.401 . S
C592 H613 0.930 . S
C593 C592 1.401 . S
C593 C594 1.376 . S
C593 C602 1.511 . S
C594 C593 1.376 . S
C594 C595 1.392 . S
C594 H615 0.931 . S
C595 C594 1.392 . S
C595 C596 1.361 . S
C595 C597 1.500 . S
C596 C591 1.390 . S
C596 C595 1.361 . S
C596 H614 0.931 . S
C597 C595 1.500 . S
C597 C598 1.371 . S
C597 C599 1.365 . S
C598 C597 1.371 . S
C598 C608 1.386 . S
C598 H616 0.931 . S
C599 C597 1.365 . S
C599 C600 1.409 . S
C599 H617 0.929 . S
C600 C599 1.409 . S
C600 C601 1.380 . S
C600 H618 0.930 . S
C601 C600 1.380 . S
C601 C608 1.357 . S
C602 C593 1.511 . S
C602 C603 1.341 . S
C602 C604 1.371 . S
C603 C602 1.341 . S
C603 C607 1.394 . S
C603 H619 0.930 . S
C604 C602 1.371 . S
C604 C605 1.392 . S
C604 H620 0.931 . S
C605 C604 1.392 . S
C605 C606 1.331 . S
C605 H623 0.932 . S
C606 C605 1.331 . S
C606 C607 1.336 . S
C607 C603 1.394 . S
C607 C606 1.336 . S
C607 H622 0.929 . S
C608 C598 1.386 . S
C608 C601 1.357 . S
C608 H621 0.928 . S
H609 C585 0.931 . S
H610 C587 0.930 . S
H611 C589 0.929 . S
H612 C590 0.931 . S
H613 C592 0.930 . S
H614 C596 0.931 . S
H615 C594 0.931 . S
H616 C598 0.931 . S
H617 C599 0.929 . S
H618 C600 0.930 . S
H619 C603 0.930 . S
H620 C604 0.931 . S
H621 C608 0.928 . S
H622 C607 0.929 . S
H623 C605 0.932 . S
C624 C625 1.386 . S
C624 C626 1.397 . S
C624 H648 0.931 . S
C625 C624 1.386 . S
C625 C629 1.397 . S
C626 C624 1.397 . S
C626 C627 1.384 . S
C626 H649 0.930 . S
C627 C626 1.384 . S
C627 C628 1.377 . S
C627 C630 1.481 . S
C628 C627 1.377 . S
C628 C629 1.389 . S
C628 H650 0.929 . S
C629 C625 1.397 . S
C629 C628 1.389 . S
C629 H651 0.931 . S
C630 C627 1.481 . S
C630 C631 1.387 . S
C630 C635 1.390 . S
C631 C630 1.387 . S
C631 C632 1.401 . S
C631 H652 0.930 . S
C632 C631 1.401 . S
C632 C633 1.376 . S
C632 C641 1.511 . S
C633 C632 1.376 . S
C633 C634 1.392 . S
C633 H654 0.931 . S
C634 C633 1.392 . S
C634 C635 1.361 . S
C634 C636 1.500 . S
C635 C630 1.390 . S
C635 C634 1.361 . S
C635 H653 0.931 . S
C636 C634 1.500 . S
C636 C637 1.371 . S
C636 C638 1.365 . S
C637 C636 1.371 . S
C637 C647 1.386 . S
C637 H655 0.931 . S
C638 C636 1.365 . S
C638 C639 1.409 . S
C638 H656 0.929 . S
C639 C638 1.409 . S
C639 C640 1.380 . S
C639 H657 0.930 . S
C640 C639 1.380 . S
C640 C647 1.357 . S
C641 C632 1.511 . S
C641 C642 1.341 . S
C641 C643 1.371 . S
C642 C641 1.341 . S
C642 C646 1.394 . S
C642 H658 0.930 . S
C643 C641 1.371 . S
C643 C644 1.392 . S
C643 H659 0.931 . S
C644 C643 1.392 . S
C644 C645 1.331 . S
C644 H662 0.932 . S
C645 C644 1.331 . S
C645 C646 1.336 . S
C646 C642 1.394 . S
C646 C645 1.336 . S
C646 H661 0.929 . S
C647 C637 1.386 . S
C647 C640 1.357 . S
C647 H660 0.928 . S
H648 C624 0.931 . S
H649 C626 0.930 . S
H650 C628 0.929 . S
H651 C629 0.931 . S
H652 C631 0.930 . S
H653 C635 0.931 . S
H654 C633 0.931 . S
H655 C637 0.931 . S
H656 C638 0.929 . S
H657 C639 0.930 . S
H658 C642 0.930 . S
H659 C643 0.931 . S
H660 C647 0.928 . S
H661 C646 0.929 . S
H662 C644 0.932 . S
C663 C664 1.386 . S
C663 C665 1.397 . S
C663 H687 0.931 . S
C664 C663 1.386 . S
C664 C668 1.397 . S
C665 C663 1.397 . S
C665 C666 1.384 . S
C665 H688 0.930 . S
C666 C665 1.384 . S
C666 C667 1.377 . S
C666 C669 1.481 . S
C667 C666 1.377 . S
C667 C668 1.389 . S
C667 H689 0.929 . S
C668 C664 1.397 . S
C668 C667 1.389 . S
C668 H690 0.931 . S
C669 C666 1.481 . S
C669 C670 1.387 . S
C669 C674 1.390 . S
C670 C669 1.387 . S
C670 C671 1.401 . S
C670 H691 0.930 . S
C671 C670 1.401 . S
C671 C672 1.376 . S
C671 C680 1.511 . S
C672 C671 1.376 . S
C672 C673 1.392 . S
C672 H693 0.931 . S
C673 C672 1.392 . S
C673 C674 1.361 . S
C673 C675 1.500 . S
C674 C669 1.390 . S
C674 C673 1.361 . S
C674 H692 0.931 . S
C675 C673 1.500 . S
C675 C676 1.371 . S
C675 C677 1.365 . S
C676 C675 1.371 . S
C676 C686 1.386 . S
C676 H694 0.931 . S
C677 C675 1.365 . S
C677 C678 1.409 . S
C677 H695 0.929 . S
C678 C677 1.409 . S
C678 C679 1.380 . S
C678 H696 0.930 . S
C679 C678 1.380 . S
C679 C686 1.357 . S
C680 C671 1.511 . S
C680 C681 1.341 . S
C680 C682 1.371 . S
C681 C680 1.341 . S
C681 C685 1.394 . S
C681 H697 0.930 . S
C682 C680 1.371 . S
C682 C683 1.392 . S
C682 H698 0.931 . S
C683 C682 1.392 . S
C683 C684 1.331 . S
C683 H701 0.932 . S
C684 C683 1.331 . S
C684 C685 1.336 . S
C685 C681 1.394 . S
C685 C684 1.336 . S
C685 H700 0.929 . S
C686 C676 1.386 . S
C686 C679 1.357 . S
C686 H699 0.928 . S
H687 C663 0.931 . S
H688 C665 0.930 . S
H689 C667 0.929 . S
H690 C668 0.931 . S
H691 C670 0.930 . S
H692 C674 0.931 . S
H693 C672 0.931 . S
H694 C676 0.931 . S
H695 C677 0.929 . S
H696 C678 0.930 . S
H697 C681 0.930 . S
H698 C682 0.931 . S
H699 C686 0.928 . S
H700 C685 0.929 . S
H701 C683 0.932 . S
Eu702 N733 2.657 . S
Eu702 N740 2.609 . S
Eu702 O746 2.558 . S
Eu702 O747 2.612 1_565 S
Eu702 O749 2.339 1_565 S
Eu702 O750 2.563 1_565 S
Eu702 O751 2.419 . S
Eu702 O753 2.380 1_556 S
Eu702 O754 2.432 . S
Eu702 C766 2.848 . S
C703 C706 1.429 . S
C703 C707 1.411 . S
C703 N710 1.377 . S
C704 C706 1.420 . S
C704 C708 1.423 . S
C704 C716 1.392 . S
C705 C707 1.420 . S
C705 C708 1.351 . S
C705 H728 0.931 . S
C706 C703 1.429 . S
C706 C704 1.420 . S
C706 N714 1.362 . S
C707 C703 1.411 . S
C707 C705 1.420 . S
C707 C712 1.395 . S
C708 C704 1.423 . S
C708 C705 1.351 . S
C708 H720 0.930 . S
C709 C711 1.400 . S
C709 C712 1.386 . S
C709 H721 0.930 . S
N710 C703 1.377 . S
N710 C711 1.321 . S
N710 Eu713 2.609 . S
C711 C709 1.400 . S
C711 N710 1.321 . S
C711 H718 0.930 . S
C712 C707 1.395 . S
C712 C709 1.386 . S
C712 H731 0.930 . S
Eu713 N710 2.609 . S
Eu713 N714 2.657 . S
Eu713 O747 2.380 1_554 S
Eu713 O748 2.432 . S
Eu713 O752 2.558 . S
Eu713 O753 2.612 1_545 S
Eu713 O755 2.339 1_545 S
Eu713 O756 2.563 1_545 S
Eu713 O757 2.419 . S
Eu713 C777 2.848 . S
N714 C706 1.362 . S
N714 Eu713 2.657 . S
N714 C715 1.334 . S
C715 N714 1.334 . S
C715 C717 1.413 . S
C715 H722 0.929 . S
C716 C704 1.392 . S
C716 C717 1.367 . S
C716 H724 0.930 . S
C717 C715 1.413 . S
C717 C716 1.367 . S
C717 H719 0.930 . S
H718 C711 0.930 . S
H719 C717 0.930 . S
H720 C708 0.930 . S
H721 C709 0.930 . S
H722 C715 0.929 . S
H723 C737 0.930 . S
H724 C716 0.930 . S
H725 C743 0.930 . S
H726 C734 0.929 . S
H727 C741 0.930 . S
H728 C705 0.931 . S
H729 C735 0.930 . S
H730 C768 0.930 . S
H731 C712 0.930 . S
H732 C767 0.931 . S
N733 Eu702 2.657 . S
N733 C734 1.334 . S
N733 C738 1.362 . S
C734 H726 0.929 . S
C734 N733 1.334 . S
C734 C737 1.413 . S
C735 H729 0.930 . S
C735 C736 1.392 . S
C735 C737 1.367 . S
C736 C735 1.392 . S
C736 C738 1.420 . S
C736 C768 1.423 . S
C737 H723 0.930 . S
C737 C734 1.413 . S
C737 C735 1.367 . S
C738 N733 1.362 . S
C738 C736 1.420 . S
C738 C742 1.429 . S
H739 C744 0.930 . S
N740 Eu702 2.609 . S
N740 C742 1.377 . S
N740 C743 1.321 . S
C741 H727 0.930 . S
C741 C743 1.400 . S
C741 C744 1.386 . S
C742 C738 1.429 . S
C742 N740 1.377 . S
C742 C745 1.411 . S
C743 H725 0.930 . S
C743 N740 1.321 . S
C743 C741 1.400 . S
C744 H739 0.930 . S
C744 C741 1.386 . S
C744 C745 1.395 . S
C745 C742 1.411 . S
C745 C744 1.395 . S
C745 C767 1.420 . S
O746 Eu702 2.558 . S
O746 C766 1.257 . S
O747 Eu702 2.612 1_545 S
O747 Eu713 2.380 1_556 S
O747 C758 1.276 . S
O748 Eu713 2.432 . S
O748 C765 1.264 1_554 S
O749 Eu702 2.339 1_545 S
O749 C765 1.254 . S
O750 Eu702 2.563 1_545 S
O750 C758 1.235 . S
O751 Eu702 2.419 . S
O751 C766 1.249 . S
O752 Eu713 2.558 . S
O752 C777 1.257 . S
O753 Eu702 2.380 1_554 S
O753 Eu713 2.612 1_565 S
O753 C769 1.276 . S
O754 Eu702 2.432 . S
O754 C776 1.264 1_556 S
O755 Eu713 2.339 1_565 S
O755 C776 1.254 . S
O756 Eu713 2.563 1_565 S
O756 C769 1.235 . S
O757 Eu713 2.419 . S
O757 C777 1.249 . S
C758 O747 1.276 . S
C758 O750 1.235 . S
C759 C761 1.393 1_565 S
C759 C763 1.395 . S
C759 C766 1.492 . S
C760 C761 1.392 . S
C760 C762 1.386 1_545 S
C761 C759 1.393 1_545 S
C761 C760 1.392 . S
C761 H778 0.930 . S
C762 C760 1.386 1_565 S
C762 C764 1.395 . S
C762 H779 0.930 . S
C763 C759 1.395 . S
C763 C764 1.379 . S
C763 H780 0.930 . S
C764 C762 1.395 . S
C764 C763 1.379 . S
C764 H781 0.930 . S
C765 O748 1.264 1_556 S
C765 O749 1.254 . S
C766 Eu702 2.848 . S
C766 O746 1.257 . S
C766 O751 1.249 . S
C766 C759 1.492 . S
C767 H732 0.931 . S
C767 C745 1.420 . S
C767 C768 1.351 . S
C768 H730 0.930 . S
C768 C736 1.423 . S
C768 C767 1.351 . S
C769 O753 1.276 . S
C769 O756 1.235 . S
C770 C771 1.393 1_545 S
C770 C774 1.395 . S
C770 C777 1.492 . S
C771 C770 1.393 1_565 S
C771 C772 1.392 . S
C771 H782 0.930 . S
C772 C771 1.392 . S
C772 C773 1.386 1_565 S
C773 C772 1.386 1_545 S
C773 C775 1.395 . S
C773 H783 0.930 . S
C774 C770 1.395 . S
C774 C775 1.379 . S
C774 H784 0.930 . S
C775 C773 1.395 . S
C775 C774 1.379 . S
C775 H785 0.930 . S
C776 O754 1.264 1_554 S
C776 O755 1.254 . S
C777 Eu713 2.848 . S
C777 O752 1.257 . S
C777 O757 1.249 . S
C777 C770 1.492 . S
H778 C761 0.930 . S
H779 C762 0.930 . S
H780 C763 0.930 . S
H781 C764 0.930 . S
H782 C771 0.930 . S
H783 C773 0.930 . S
H784 C774 0.930 . S
H785 C775 0.930 . S
Eu786 N817 2.657 . S
Eu786 N824 2.609 . S
Eu786 O830 2.558 . S
Eu786 O831 2.612 1_455 S
Eu786 O833 2.339 1_455 S
Eu786 O834 2.563 1_455 S
Eu786 O835 2.419 . S
Eu786 O837 2.380 1_556 S
Eu786 O838 2.432 . S
Eu786 C850 2.848 . S
C787 C790 1.429 . S
C787 C791 1.411 . S
C787 N794 1.377 . S
C788 C790 1.420 . S
C788 C792 1.423 . S
C788 C800 1.392 . S
C789 C791 1.420 . S
C789 C792 1.351 . S
C789 H812 0.931 . S
C790 C787 1.429 . S
C790 C788 1.420 . S
C790 N798 1.362 . S
C791 C787 1.411 . S
C791 C789 1.420 . S
C791 C796 1.395 . S
C792 C788 1.423 . S
C792 C789 1.351 . S
C792 H804 0.930 . S
C793 C795 1.400 . S
C793 C796 1.386 . S
C793 H805 0.930 . S
N794 C787 1.377 . S
N794 C795 1.321 . S
N794 Eu797 2.609 . S
C795 C793 1.400 . S
C795 N794 1.321 . S
C795 H802 0.930 . S
C796 C791 1.395 . S
C796 C793 1.386 . S
C796 H815 0.930 . S
Eu797 N794 2.609 . S
Eu797 N798 2.657 . S
Eu797 O831 2.380 1_554 S
Eu797 O832 2.432 . S
Eu797 O836 2.558 . S
Eu797 O837 2.612 1_655 S
Eu797 O839 2.339 1_655 S
Eu797 O840 2.563 1_655 S
Eu797 O841 2.419 . S
Eu797 C861 2.848 . S
N798 C790 1.362 . S
N798 Eu797 2.657 . S
N798 C799 1.334 . S
C799 N798 1.334 . S
C799 C801 1.413 . S
C799 H806 0.929 . S
C800 C788 1.392 . S
C800 C801 1.367 . S
C800 H808 0.930 . S
C801 C799 1.413 . S
C801 C800 1.367 . S
C801 H803 0.930 . S
H802 C795 0.930 . S
H803 C801 0.930 . S
H804 C792 0.930 . S
H805 C793 0.930 . S
H806 C799 0.929 . S
H807 C821 0.930 . S
H808 C800 0.930 . S
H809 C827 0.930 . S
H810 C818 0.929 . S
H811 C825 0.930 . S
H812 C789 0.931 . S
H813 C819 0.930 . S
H814 C852 0.930 . S
H815 C796 0.930 . S
H816 C851 0.931 . S
N817 Eu786 2.657 . S
N817 C818 1.334 . S
N817 C822 1.362 . S
C818 H810 0.929 . S
C818 N817 1.334 . S
C818 C821 1.413 . S
C819 H813 0.930 . S
C819 C820 1.392 . S
C819 C821 1.367 . S
C820 C819 1.392 . S
C820 C822 1.420 . S
C820 C852 1.423 . S
C821 H807 0.930 . S
C821 C818 1.413 . S
C821 C819 1.367 . S
C822 N817 1.362 . S
C822 C820 1.420 . S
C822 C826 1.429 . S
H823 C828 0.930 . S
N824 Eu786 2.609 . S
N824 C826 1.377 . S
N824 C827 1.321 . S
C825 H811 0.930 . S
C825 C827 1.400 . S
C825 C828 1.386 . S
C826 C822 1.429 . S
C826 N824 1.377 . S
C826 C829 1.411 . S
C827 H809 0.930 . S
C827 N824 1.321 . S
C827 C825 1.400 . S
C828 H823 0.930 . S
C828 C825 1.386 . S
C828 C829 1.395 . S
C829 C826 1.411 . S
C829 C828 1.395 . S
C829 C851 1.420 . S
O830 Eu786 2.558 . S
O830 C850 1.257 . S
O831 Eu786 2.612 1_655 S
O831 Eu797 2.380 1_556 S
O831 C842 1.276 . S
O832 Eu797 2.432 . S
O832 C849 1.264 1_554 S
O833 Eu786 2.339 1_655 S
O833 C849 1.254 . S
O834 Eu786 2.563 1_655 S
O834 C842 1.235 . S
O835 Eu786 2.419 . S
O835 C850 1.249 . S
O836 Eu797 2.558 . S
O836 C861 1.257 . S
O837 Eu786 2.380 1_554 S
O837 Eu797 2.612 1_455 S
O837 C853 1.276 . S
O838 Eu786 2.432 . S
O838 C860 1.264 1_556 S
O839 Eu797 2.339 1_455 S
O839 C860 1.254 . S
O840 Eu797 2.563 1_455 S
O840 C853 1.235 . S
O841 Eu797 2.419 . S
O841 C861 1.249 . S
C842 O831 1.276 . S
C842 O834 1.235 . S
C843 C845 1.393 1_455 S
C843 C847 1.395 . S
C843 C850 1.492 . S
C844 C845 1.392 . S
C844 C846 1.386 1_655 S
C845 C843 1.393 1_655 S
C845 C844 1.392 . S
C845 H862 0.930 . S
C846 C844 1.386 1_455 S
C846 C848 1.395 . S
C846 H863 0.930 . S
C847 C843 1.395 . S
C847 C848 1.379 . S
C847 H864 0.930 . S
C848 C846 1.395 . S
C848 C847 1.379 . S
C848 H865 0.930 . S
C849 O832 1.264 1_556 S
C849 O833 1.254 . S
C850 Eu786 2.848 . S
C850 O830 1.257 . S
C850 O835 1.249 . S
C850 C843 1.492 . S
C851 H816 0.931 . S
C851 C829 1.420 . S
C851 C852 1.351 . S
C852 H814 0.930 . S
C852 C820 1.423 . S
C852 C851 1.351 . S
C853 O837 1.276 . S
C853 O840 1.235 . S
C854 C855 1.393 1_655 S
C854 C858 1.395 . S
C854 C861 1.492 . S
C855 C854 1.393 1_455 S
C855 C856 1.392 . S
C855 H866 0.930 . S
C856 C855 1.392 . S
C856 C857 1.386 1_455 S
C857 C856 1.386 1_655 S
C857 C859 1.395 . S
C857 H867 0.930 . S
C858 C854 1.395 . S
C858 C859 1.379 . S
C858 H868 0.930 . S
C859 C857 1.395 . S
C859 C858 1.379 . S
C859 H869 0.930 . S
C860 O838 1.264 1_554 S
C860 O839 1.254 . S
C861 Eu797 2.848 . S
C861 O836 1.257 . S
C861 O841 1.249 . S
C861 C854 1.492 . S
H862 C845 0.930 . S
H863 C846 0.930 . S
H864 C847 0.930 . S
H865 C848 0.930 . S
H866 C855 0.930 . S
H867 C857 0.930 . S
H868 C858 0.930 . S
H869 C859 0.930 . S
Eu870 N901 2.657 . S
Eu870 N908 2.609 . S
Eu870 O914 2.558 . S
Eu870 O915 2.612 . S
Eu870 O917 2.339 . S
Eu870 O918 2.563 . S
Eu870 O919 2.419 . S
Eu870 O921 2.380 1_554 S
Eu870 O922 2.432 . S
Eu870 C934 2.848 . S
C871 C874 1.429 . S
C871 C875 1.411 . S
C871 N878 1.377 . S
C872 C874 1.420 . S
C872 C876 1.423 . S
C872 C884 1.392 . S
C873 C875 1.420 . S
C873 C876 1.351 . S
C873 H896 0.931 . S
C874 C871 1.429 . S
C874 C872 1.420 . S
C874 N882 1.362 . S
C875 C871 1.411 . S
C875 C873 1.420 . S
C875 C880 1.395 . S
C876 C872 1.423 . S
C876 C873 1.351 . S
C876 H888 0.930 . S
C877 C879 1.400 . S
C877 C880 1.386 . S
C877 H889 0.930 . S
N878 C871 1.377 . S
N878 C879 1.321 . S
N878 Eu881 2.609 . S
C879 C877 1.400 . S
C879 N878 1.321 . S
C879 H886 0.930 . S
C880 C875 1.395 . S
C880 C877 1.386 . S
C880 H899 0.930 . S
Eu881 N878 2.609 . S
Eu881 N882 2.657 . S
Eu881 O915 2.380 1_556 S
Eu881 O916 2.432 . S
Eu881 O920 2.558 . S
Eu881 O921 2.612 . S
Eu881 O923 2.339 . S
Eu881 O924 2.563 . S
Eu881 O925 2.419 . S
Eu881 C945 2.848 . S
N882 C874 1.362 . S
N882 Eu881 2.657 . S
N882 C883 1.334 . S
C883 N882 1.334 . S
C883 C885 1.413 . S
C883 H890 0.929 . S
C884 C872 1.392 . S
C884 C885 1.367 . S
C884 H892 0.930 . S
C885 C883 1.413 . S
C885 C884 1.367 . S
C885 H887 0.930 . S
H886 C879 0.930 . S
H887 C885 0.930 . S
H888 C876 0.930 . S
H889 C877 0.930 . S
H890 C883 0.929 . S
H891 C905 0.930 . S
H892 C884 0.930 . S
H893 C911 0.930 . S
H894 C902 0.929 . S
H895 C909 0.930 . S
H896 C873 0.931 . S
H897 C903 0.930 . S
H898 C936 0.930 . S
H899 C880 0.930 . S
H900 C935 0.931 . S
N901 Eu870 2.657 . S
N901 C902 1.334 . S
N901 C906 1.362 . S
C902 H894 0.929 . S
C902 N901 1.334 . S
C902 C905 1.413 . S
C903 H897 0.930 . S
C903 C904 1.392 . S
C903 C905 1.367 . S
C904 C903 1.392 . S
C904 C906 1.420 . S
C904 C936 1.423 . S
C905 H891 0.930 . S
C905 C902 1.413 . S
C905 C903 1.367 . S
C906 N901 1.362 . S
C906 C904 1.420 . S
C906 C910 1.429 . S
H907 C912 0.930 . S
N908 Eu870 2.609 . S
N908 C910 1.377 . S
N908 C911 1.321 . S
C909 H895 0.930 . S
C909 C911 1.400 . S
C909 C912 1.386 . S
C910 C906 1.429 . S
C910 N908 1.377 . S
C910 C913 1.411 . S
C911 H893 0.930 . S
C911 N908 1.321 . S
C911 C909 1.400 . S
C912 H907 0.930 . S
C912 C909 1.386 . S
C912 C913 1.395 . S
C913 C910 1.411 . S
C913 C912 1.395 . S
C913 C935 1.420 . S
O914 Eu870 2.558 . S
O914 C934 1.257 . S
O915 Eu870 2.612 . S
O915 Eu881 2.380 1_554 S
O915 C926 1.276 . S
O916 Eu881 2.432 . S
O916 C933 1.264 1_556 S
O917 Eu870 2.339 . S
O917 C933 1.254 . S
O918 Eu870 2.563 . S
O918 C926 1.235 . S
O919 Eu870 2.419 . S
O919 C934 1.249 . S
O920 Eu881 2.558 . S
O920 C945 1.257 . S
O921 Eu870 2.380 1_556 S
O921 Eu881 2.612 . S
O921 C937 1.276 . S
O922 Eu870 2.432 . S
O922 C944 1.264 1_554 S
O923 Eu881 2.339 . S
O923 C944 1.254 . S
O924 Eu881 2.563 . S
O924 C937 1.235 . S
O925 Eu881 2.419 . S
O925 C945 1.249 . S
C926 O915 1.276 . S
C926 O918 1.235 . S
C927 C929 1.393 . S
C927 C931 1.395 . S
C927 C934 1.492 . S
C928 C929 1.392 . S
C928 C930 1.386 . S
C929 C927 1.393 . S
C929 C928 1.392 . S
C929 H946 0.930 . S
C930 C928 1.386 . S
C930 C932 1.395 . S
C930 H947 0.930 . S
C931 C927 1.395 . S
C931 C932 1.379 . S
C931 H948 0.930 . S
C932 C930 1.395 . S
C932 C931 1.379 . S
C932 H949 0.930 . S
C933 O916 1.264 1_554 S
C933 O917 1.254 . S
C934 Eu870 2.848 . S
C934 O914 1.257 . S
C934 O919 1.249 . S
C934 C927 1.492 . S
C935 H900 0.931 . S
C935 C913 1.420 . S
C935 C936 1.351 . S
C936 H898 0.930 . S
C936 C904 1.423 . S
C936 C935 1.351 . S
C937 O921 1.276 . S
C937 O924 1.235 . S
C938 C939 1.393 . S
C938 C942 1.395 . S
C938 C945 1.492 . S
C939 C938 1.393 . S
C939 C940 1.392 . S
C939 H950 0.930 . S
C940 C939 1.392 . S
C940 C941 1.386 . S
C941 C940 1.386 . S
C941 C943 1.395 . S
C941 H951 0.930 . S
C942 C938 1.395 . S
C942 C943 1.379 . S
C942 H952 0.930 . S
C943 C941 1.395 . S
C943 C942 1.379 . S
C943 H953 0.930 . S
C944 O922 1.264 1_556 S
C944 O923 1.254 . S
C945 Eu881 2.848 . S
C945 O920 1.257 . S
C945 O925 1.249 . S
C945 C938 1.492 . S
H946 C929 0.930 . S
H947 C930 0.930 . S
H948 C931 0.930 . S
H949 C932 0.930 . S
H950 C939 0.930 . S
H951 C941 0.930 . S
H952 C942 0.930 . S
H953 C943 0.930 . S
Eu954 N985 2.657 . S
Eu954 N992 2.609 . S
Eu954 O998 2.558 . S
Eu954 O999 2.612 . S
Eu954 O1001 2.339 . S
Eu954 O1002 2.563 . S
Eu954 O1003 2.419 . S
Eu954 O1005 2.380 . S
Eu954 O1006 2.432 . S
Eu954 C1018 2.848 . S
C955 C958 1.429 . S
C955 C959 1.411 . S
C955 N962 1.377 . S
C956 C958 1.420 . S
C956 C960 1.423 . S
C956 C968 1.392 . S
C957 C959 1.420 . S
C957 C960 1.351 . S
C957 H980 0.931 . S
C958 C955 1.429 . S
C958 C956 1.420 . S
C958 N966 1.362 . S
C959 C955 1.411 . S
C959 C957 1.420 . S
C959 C964 1.395 . S
C960 C956 1.423 . S
C960 C957 1.351 . S
C960 H972 0.930 . S
C961 C963 1.400 . S
C961 C964 1.386 . S
C961 H973 0.930 . S
N962 C955 1.377 . S
N962 C963 1.321 . S
N962 Eu965 2.609 . S
C963 C961 1.400 . S
C963 N962 1.321 . S
C963 H970 0.930 . S
C964 C959 1.395 . S
C964 C961 1.386 . S
C964 H983 0.930 . S
Eu965 N962 2.609 . S
Eu965 N966 2.657 . S
Eu965 O999 2.380 . S
Eu965 O1000 2.432 . S
Eu965 O1004 2.558 . S
Eu965 O1005 2.612 . S
Eu965 O1007 2.339 . S
Eu965 O1008 2.563 . S
Eu965 O1009 2.419 . S
Eu965 C1029 2.848 . S
N966 C958 1.362 . S
N966 Eu965 2.657 . S
N966 C967 1.334 . S
C967 N966 1.334 . S
C967 C969 1.413 . S
C967 H974 0.929 . S
C968 C956 1.392 . S
C968 C969 1.367 . S
C968 H976 0.930 . S
C969 C967 1.413 . S
C969 C968 1.367 . S
C969 H971 0.930 . S
H970 C963 0.930 . S
H971 C969 0.930 . S
H972 C960 0.930 . S
H973 C961 0.930 . S
H974 C967 0.929 . S
H975 C989 0.930 . S
H976 C968 0.930 . S
H977 C995 0.930 . S
H978 C986 0.929 . S
H979 C993 0.930 . S
H980 C957 0.931 . S
H981 C987 0.930 . S
H982 C1020 0.930 . S
H983 C964 0.930 . S
H984 C1019 0.931 . S
N985 Eu954 2.657 . S
N985 C986 1.334 . S
N985 C990 1.362 . S
C986 H978 0.929 . S
C986 N985 1.334 . S
C986 C989 1.413 . S
C987 H981 0.930 . S
C987 C988 1.392 . S
C987 C989 1.367 . S
C988 C987 1.392 . S
C988 C990 1.420 . S
C988 C1020 1.423 . S
C989 H975 0.930 . S
C989 C986 1.413 . S
C989 C987 1.367 . S
C990 N985 1.362 . S
C990 C988 1.420 . S
C990 C994 1.429 . S
H991 C996 0.930 . S
N992 Eu954 2.609 . S
N992 C994 1.377 . S
N992 C995 1.321 . S
C993 H979 0.930 . S
C993 C995 1.400 . S
C993 C996 1.386 . S
C994 C990 1.429 . S
C994 N992 1.377 . S
C994 C997 1.411 . S
C995 H977 0.930 . S
C995 N992 1.321 . S
C995 C993 1.400 . S
C996 H991 0.930 . S
C996 C993 1.386 . S
C996 C997 1.395 . S
C997 C994 1.411 . S
C997 C996 1.395 . S
C997 C1019 1.420 . S
O998 Eu954 2.558 . S
O998 C1018 1.257 . S
O999 Eu954 2.612 . S
O999 Eu965 2.380 . S
O999 C1010 1.276 . S
O1000 Eu965 2.432 . S
O1000 C1017 1.264 . S
O1001 Eu954 2.339 . S
O1001 C1017 1.254 . S
O1002 Eu954 2.563 . S
O1002 C1010 1.235 . S
O1003 Eu954 2.419 . S
O1003 C1018 1.249 . S
O1004 Eu965 2.558 . S
O1004 C1029 1.257 . S
O1005 Eu954 2.380 . S
O1005 Eu965 2.612 . S
O1005 C1021 1.276 . S
O1006 Eu954 2.432 . S
O1006 C1028 1.264 . S
O1007 Eu965 2.339 . S
O1007 C1028 1.254 . S
O1008 Eu965 2.563 . S
O1008 C1021 1.235 . S
O1009 Eu965 2.419 . S
O1009 C1029 1.249 . S
C1010 O999 1.276 . S
C1010 O1002 1.235 . S
C1011 C1013 1.393 . S
C1011 C1015 1.395 . S
C1011 C1018 1.492 . S
C1012 C1013 1.392 . S
C1012 C1014 1.386 . S
C1013 C1011 1.393 . S
C1013 C1012 1.392 . S
C1013 H1030 0.930 . S
C1014 C1012 1.386 . S
C1014 C1016 1.395 . S
C1014 H1031 0.930 . S
C1015 C1011 1.395 . S
C1015 C1016 1.379 . S
C1015 H1032 0.930 . S
C1016 C1014 1.395 . S
C1016 C1015 1.379 . S
C1016 H1033 0.930 . S
C1017 O1000 1.264 . S
C1017 O1001 1.254 . S
C1018 Eu954 2.848 . S
C1018 O998 1.257 . S
C1018 O1003 1.249 . S
C1018 C1011 1.492 . S
C1019 H984 0.931 . S
C1019 C997 1.420 . S
C1019 C1020 1.351 . S
C1020 H982 0.930 . S
C1020 C988 1.423 . S
C1020 C1019 1.351 . S
C1021 O1005 1.276 . S
C1021 O1008 1.235 . S
C1022 C1023 1.393 . S
C1022 C1026 1.395 . S
C1022 C1029 1.492 . S
C1023 C1022 1.393 . S
C1023 C1024 1.392 . S
C1023 H1034 0.930 . S
C1024 C1023 1.392 . S
C1024 C1025 1.386 . S
C1025 C1024 1.386 . S
C1025 C1027 1.395 . S
C1025 H1035 0.930 . S
C1026 C1022 1.395 . S
C1026 C1027 1.379 . S
C1026 H1036 0.930 . S
C1027 C1025 1.395 . S
C1027 C1026 1.379 . S
C1027 H1037 0.930 . S
C1028 O1006 1.264 . S
C1028 O1007 1.254 . S
C1029 Eu965 2.848 . S
C1029 O1004 1.257 . S
C1029 O1009 1.249 . S
C1029 C1022 1.492 . S
H1030 C1013 0.930 . S
H1031 C1014 0.930 . S
H1032 C1015 0.930 . S
H1033 C1016 0.930 . S
H1034 C1023 0.930 . S
H1035 C1025 0.930 . S
H1036 C1026 0.930 . S
H1037 C1027 0.930 . S
Eu1038 N1069 2.657 . S
Eu1038 N1076 2.609 . S
Eu1038 O1082 2.558 . S
Eu1038 O1083 2.612 . S
Eu1038 O1085 2.339 . S
Eu1038 O1086 2.563 . S
Eu1038 O1087 2.419 . S
Eu1038 O1089 2.380 . S
Eu1038 O1090 2.432 . S
Eu1038 C1102 2.848 . S
C1039 C1042 1.429 . S
C1039 C1043 1.411 . S
C1039 N1046 1.377 . S
C1040 C1042 1.420 . S
C1040 C1044 1.423 . S
C1040 C1052 1.392 . S
C1041 C1043 1.420 . S
C1041 C1044 1.351 . S
C1041 H1064 0.931 . S
C1042 C1039 1.429 . S
C1042 C1040 1.420 . S
C1042 N1050 1.362 . S
C1043 C1039 1.411 . S
C1043 C1041 1.420 . S
C1043 C1048 1.395 . S
C1044 C1040 1.423 . S
C1044 C1041 1.351 . S
C1044 H1056 0.930 . S
C1045 C1047 1.400 . S
C1045 C1048 1.386 . S
C1045 H1057 0.930 . S
N1046 C1039 1.377 . S
N1046 C1047 1.321 . S
N1046 Eu1049 2.609 . S
C1047 C1045 1.400 . S
C1047 N1046 1.321 . S
C1047 H1054 0.930 . S
C1048 C1043 1.395 . S
C1048 C1045 1.386 . S
C1048 H1067 0.930 . S
Eu1049 N1046 2.609 . S
Eu1049 N1050 2.657 . S
Eu1049 O1083 2.380 . S
Eu1049 O1084 2.432 . S
Eu1049 O1088 2.558 . S
Eu1049 O1089 2.612 . S
Eu1049 O1091 2.339 . S
Eu1049 O1092 2.563 . S
Eu1049 O1093 2.419 . S
Eu1049 C1113 2.848 . S
N1050 C1042 1.362 . S
N1050 Eu1049 2.657 . S
N1050 C1051 1.334 . S
C1051 N1050 1.334 . S
C1051 C1053 1.413 . S
C1051 H1058 0.929 . S
C1052 C1040 1.392 . S
C1052 C1053 1.367 . S
C1052 H1060 0.930 . S
C1053 C1051 1.413 . S
C1053 C1052 1.367 . S
C1053 H1055 0.930 . S
H1054 C1047 0.930 . S
H1055 C1053 0.930 . S
H1056 C1044 0.930 . S
H1057 C1045 0.930 . S
H1058 C1051 0.929 . S
H1059 C1073 0.930 . S
H1060 C1052 0.930 . S
H1061 C1079 0.930 . S
H1062 C1070 0.929 . S
H1063 C1077 0.930 . S
H1064 C1041 0.931 . S
H1065 C1071 0.930 . S
H1066 C1104 0.930 . S
H1067 C1048 0.930 . S
H1068 C1103 0.931 . S
N1069 Eu1038 2.657 . S
N1069 C1070 1.334 . S
N1069 C1074 1.362 . S
C1070 H1062 0.929 . S
C1070 N1069 1.334 . S
C1070 C1073 1.413 . S
C1071 H1065 0.930 . S
C1071 C1072 1.392 . S
C1071 C1073 1.367 . S
C1072 C1071 1.392 . S
C1072 C1074 1.420 . S
C1072 C1104 1.423 . S
C1073 H1059 0.930 . S
C1073 C1070 1.413 . S
C1073 C1071 1.367 . S
C1074 N1069 1.362 . S
C1074 C1072 1.420 . S
C1074 C1078 1.429 . S
H1075 C1080 0.930 . S
N1076 Eu1038 2.609 . S
N1076 C1078 1.377 . S
N1076 C1079 1.321 . S
C1077 H1063 0.930 . S
C1077 C1079 1.400 . S
C1077 C1080 1.386 . S
C1078 C1074 1.429 . S
C1078 N1076 1.377 . S
C1078 C1081 1.411 . S
C1079 H1061 0.930 . S
C1079 N1076 1.321 . S
C1079 C1077 1.400 . S
C1080 H1075 0.930 . S
C1080 C1077 1.386 . S
C1080 C1081 1.395 . S
C1081 C1078 1.411 . S
C1081 C1080 1.395 . S
C1081 C1103 1.420 . S
O1082 Eu1038 2.558 . S
O1082 C1102 1.257 . S
O1083 Eu1038 2.612 . S
O1083 Eu1049 2.380 . S
O1083 C1094 1.276 . S
O1084 Eu1049 2.432 . S
O1084 C1101 1.264 . S
O1085 Eu1038 2.339 . S
O1085 C1101 1.254 . S
O1086 Eu1038 2.563 . S
O1086 C1094 1.235 . S
O1087 Eu1038 2.419 . S
O1087 C1102 1.249 . S
O1088 Eu1049 2.558 . S
O1088 C1113 1.257 . S
O1089 Eu1038 2.380 . S
O1089 Eu1049 2.612 . S
O1089 C1105 1.276 . S
O1090 Eu1038 2.432 . S
O1090 C1112 1.264 . S
O1091 Eu1049 2.339 . S
O1091 C1112 1.254 . S
O1092 Eu1049 2.563 . S
O1092 C1105 1.235 . S
O1093 Eu1049 2.419 . S
O1093 C1113 1.249 . S
C1094 O1083 1.276 . S
C1094 O1086 1.235 . S
C1095 C1097 1.393 . S
C1095 C1099 1.395 . S
C1095 C1102 1.492 . S
C1096 C1097 1.392 . S
C1096 C1098 1.386 . S
C1097 C1095 1.393 . S
C1097 C1096 1.392 . S
C1097 H1114 0.930 . S
C1098 C1096 1.386 . S
C1098 C1100 1.395 . S
C1098 H1115 0.930 . S
C1099 C1095 1.395 . S
C1099 C1100 1.379 . S
C1099 H1116 0.930 . S
C1100 C1098 1.395 . S
C1100 C1099 1.379 . S
C1100 H1117 0.930 . S
C1101 O1084 1.264 . S
C1101 O1085 1.254 . S
C1102 Eu1038 2.848 . S
C1102 O1082 1.257 . S
C1102 O1087 1.249 . S
C1102 C1095 1.492 . S
C1103 H1068 0.931 . S
C1103 C1081 1.420 . S
C1103 C1104 1.351 . S
C1104 H1066 0.930 . S
C1104 C1072 1.423 . S
C1104 C1103 1.351 . S
C1105 O1089 1.276 . S
C1105 O1092 1.235 . S
C1106 C1107 1.393 . S
C1106 C1110 1.395 . S
C1106 C1113 1.492 . S
C1107 C1106 1.393 . S
C1107 C1108 1.392 . S
C1107 H1118 0.930 . S
C1108 C1107 1.392 . S
C1108 C1109 1.386 . S
C1109 C1108 1.386 . S
C1109 C1111 1.395 . S
C1109 H1119 0.930 . S
C1110 C1106 1.395 . S
C1110 C1111 1.379 . S
C1110 H1120 0.930 . S
C1111 C1109 1.395 . S
C1111 C1110 1.379 . S
C1111 H1121 0.930 . S
C1112 O1090 1.264 . S
C1112 O1091 1.254 . S
C1113 Eu1049 2.848 . S
C1113 O1088 1.257 . S
C1113 O1093 1.249 . S
C1113 C1106 1.492 . S
H1114 C1097 0.930 . S
H1115 C1098 0.930 . S
H1116 C1099 0.930 . S
H1117 C1100 0.930 . S
H1118 C1107 0.930 . S
H1119 C1109 0.930 . S
H1120 C1110 0.930 . S
H1121 C1111 0.930 . S
Eu1122 N1153 2.657 . S
Eu1122 N1160 2.609 . S
Eu1122 O1166 2.558 . S
Eu1122 O1167 2.612 . S
Eu1122 O1169 2.339 . S
Eu1122 O1170 2.563 . S
Eu1122 O1171 2.419 . S
Eu1122 O1173 2.380 . S
Eu1122 O1174 2.432 . S
Eu1122 C1186 2.848 . S
C1123 C1126 1.429 . S
C1123 C1127 1.411 . S
C1123 N1130 1.377 . S
C1124 C1126 1.420 . S
C1124 C1128 1.423 . S
C1124 C1136 1.392 . S
C1125 C1127 1.420 . S
C1125 C1128 1.351 . S
C1125 H1148 0.931 . S
C1126 C1123 1.429 . S
C1126 C1124 1.420 . S
C1126 N1134 1.362 . S
C1127 C1123 1.411 . S
C1127 C1125 1.420 . S
C1127 C1132 1.395 . S
C1128 C1124 1.423 . S
C1128 C1125 1.351 . S
C1128 H1140 0.930 . S
C1129 C1131 1.400 . S
C1129 C1132 1.386 . S
C1129 H1141 0.930 . S
N1130 C1123 1.377 . S
N1130 C1131 1.321 . S
N1130 Eu1133 2.609 . S
C1131 C1129 1.400 . S
C1131 N1130 1.321 . S
C1131 H1138 0.930 . S
C1132 C1127 1.395 . S
C1132 C1129 1.386 . S
C1132 H1151 0.930 . S
Eu1133 N1130 2.609 . S
Eu1133 N1134 2.657 . S
Eu1133 O1167 2.380 . S
Eu1133 O1168 2.432 . S
Eu1133 O1172 2.558 . S
Eu1133 O1173 2.612 . S
Eu1133 O1175 2.339 . S
Eu1133 O1176 2.563 . S
Eu1133 O1177 2.419 . S
Eu1133 C1197 2.848 . S
N1134 C1126 1.362 . S
N1134 Eu1133 2.657 . S
N1134 C1135 1.334 . S
C1135 N1134 1.334 . S
C1135 C1137 1.413 . S
C1135 H1142 0.929 . S
C1136 C1124 1.392 . S
C1136 C1137 1.367 . S
C1136 H1144 0.930 . S
C1137 C1135 1.413 . S
C1137 C1136 1.367 . S
C1137 H1139 0.930 . S
H1138 C1131 0.930 . S
H1139 C1137 0.930 . S
H1140 C1128 0.930 . S
H1141 C1129 0.930 . S
H1142 C1135 0.929 . S
H1143 C1157 0.930 . S
H1144 C1136 0.930 . S
H1145 C1163 0.930 . S
H1146 C1154 0.929 . S
H1147 C1161 0.930 . S
H1148 C1125 0.931 . S
H1149 C1155 0.930 . S
H1150 C1188 0.930 . S
H1151 C1132 0.930 . S
H1152 C1187 0.931 . S
N1153 Eu1122 2.657 . S
N1153 C1154 1.334 . S
N1153 C1158 1.362 . S
C1154 H1146 0.929 . S
C1154 N1153 1.334 . S
C1154 C1157 1.413 . S
C1155 H1149 0.930 . S
C1155 C1156 1.392 . S
C1155 C1157 1.367 . S
C1156 C1155 1.392 . S
C1156 C1158 1.420 . S
C1156 C1188 1.423 . S
C1157 H1143 0.930 . S
C1157 C1154 1.413 . S
C1157 C1155 1.367 . S
C1158 N1153 1.362 . S
C1158 C1156 1.420 . S
C1158 C1162 1.429 . S
H1159 C1164 0.930 . S
N1160 Eu1122 2.609 . S
N1160 C1162 1.377 . S
N1160 C1163 1.321 . S
C1161 H1147 0.930 . S
C1161 C1163 1.400 . S
C1161 C1164 1.386 . S
C1162 C1158 1.429 . S
C1162 N1160 1.377 . S
C1162 C1165 1.411 . S
C1163 H1145 0.930 . S
C1163 N1160 1.321 . S
C1163 C1161 1.400 . S
C1164 H1159 0.930 . S
C1164 C1161 1.386 . S
C1164 C1165 1.395 . S
C1165 C1162 1.411 . S
C1165 C1164 1.395 . S
C1165 C1187 1.420 . S
O1166 Eu1122 2.558 . S
O1166 C1186 1.257 . S
O1167 Eu1122 2.612 . S
O1167 Eu1133 2.380 . S
O1167 C1178 1.276 . S
O1168 Eu1133 2.432 . S
O1168 C1185 1.264 . S
O1169 Eu1122 2.339 . S
O1169 C1185 1.254 . S
O1170 Eu1122 2.563 . S
O1170 C1178 1.235 . S
O1171 Eu1122 2.419 . S
O1171 C1186 1.249 . S
O1172 Eu1133 2.558 . S
O1172 C1197 1.257 . S
O1173 Eu1122 2.380 . S
O1173 Eu1133 2.612 . S
O1173 C1189 1.276 . S
O1174 Eu1122 2.432 . S
O1174 C1196 1.264 . S
O1175 Eu1133 2.339 . S
O1175 C1196 1.254 . S
O1176 Eu1133 2.563 . S
O1176 C1189 1.235 . S
O1177 Eu1133 2.419 . S
O1177 C1197 1.249 . S
C1178 O1167 1.276 . S
C1178 O1170 1.235 . S
C1179 C1181 1.393 . S
C1179 C1183 1.395 . S
C1179 C1186 1.492 . S
C1180 C1181 1.392 . S
C1180 C1182 1.386 . S
C1181 C1179 1.393 . S
C1181 C1180 1.392 . S
C1181 H1198 0.930 . S
C1182 C1180 1.386 . S
C1182 C1184 1.395 . S
C1182 H1199 0.930 . S
C1183 C1179 1.395 . S
C1183 C1184 1.379 . S
C1183 H1200 0.930 . S
C1184 C1182 1.395 . S
C1184 C1183 1.379 . S
C1184 H1201 0.930 . S
C1185 O1168 1.264 . S
C1185 O1169 1.254 . S
C1186 Eu1122 2.848 . S
C1186 O1166 1.257 . S
C1186 O1171 1.249 . S
C1186 C1179 1.492 . S
C1187 H1152 0.931 . S
C1187 C1165 1.420 . S
C1187 C1188 1.351 . S
C1188 H1150 0.930 . S
C1188 C1156 1.423 . S
C1188 C1187 1.351 . S
C1189 O1173 1.276 . S
C1189 O1176 1.235 . S
C1190 C1191 1.393 . S
C1190 C1194 1.395 . S
C1190 C1197 1.492 . S
C1191 C1190 1.393 . S
C1191 C1192 1.392 . S
C1191 H1202 0.930 . S
C1192 C1191 1.392 . S
C1192 C1193 1.386 . S
C1193 C1192 1.386 . S
C1193 C1195 1.395 . S
C1193 H1203 0.930 . S
C1194 C1190 1.395 . S
C1194 C1195 1.379 . S
C1194 H1204 0.930 . S
C1195 C1193 1.395 . S
C1195 C1194 1.379 . S
C1195 H1205 0.930 . S
C1196 O1174 1.264 . S
C1196 O1175 1.254 . S
C1197 Eu1133 2.848 . S
C1197 O1172 1.257 . S
C1197 O1177 1.249 . S
C1197 C1190 1.492 . S
H1198 C1181 0.930 . S
H1199 C1182 0.930 . S
H1200 C1183 0.930 . S
H1201 C1184 0.930 . S
H1202 C1191 0.930 . S
H1203 C1193 0.930 . S
H1204 C1194 0.930 . S
H1205 C1195 0.930 . S
Eu1206 N1237 2.657 . S
Eu1206 N1244 2.609 . S
Eu1206 O1250 2.558 . S
Eu1206 O1251 2.612 . S
Eu1206 O1253 2.339 . S
Eu1206 O1254 2.563 . S
Eu1206 O1255 2.419 . S
Eu1206 O1257 2.380 . S
Eu1206 O1258 2.432 . S
Eu1206 C1270 2.848 . S
C1207 C1210 1.429 . S
C1207 C1211 1.411 . S
C1207 N1214 1.377 . S
C1208 C1210 1.420 . S
C1208 C1212 1.423 . S
C1208 C1220 1.392 . S
C1209 C1211 1.420 . S
C1209 C1212 1.351 . S
C1209 H1232 0.931 . S
C1210 C1207 1.429 . S
C1210 C1208 1.420 . S
C1210 N1218 1.362 . S
C1211 C1207 1.411 . S
C1211 C1209 1.420 . S
C1211 C1216 1.395 . S
C1212 C1208 1.423 . S
C1212 C1209 1.351 . S
C1212 H1224 0.930 . S
C1213 C1215 1.400 . S
C1213 C1216 1.386 . S
C1213 H1225 0.930 . S
N1214 C1207 1.377 . S
N1214 C1215 1.321 . S
N1214 Eu1217 2.609 . S
C1215 C1213 1.400 . S
C1215 N1214 1.321 . S
C1215 H1222 0.930 . S
C1216 C1211 1.395 . S
C1216 C1213 1.386 . S
C1216 H1235 0.930 . S
Eu1217 N1214 2.609 . S
Eu1217 N1218 2.657 . S
Eu1217 O1251 2.380 . S
Eu1217 O1252 2.432 . S
Eu1217 O1256 2.558 . S
Eu1217 O1257 2.612 . S
Eu1217 O1259 2.339 . S
Eu1217 O1260 2.563 . S
Eu1217 O1261 2.419 . S
Eu1217 C1281 2.848 . S
N1218 C1210 1.362 . S
N1218 Eu1217 2.657 . S
N1218 C1219 1.334 . S
C1219 N1218 1.334 . S
C1219 C1221 1.413 . S
C1219 H1226 0.929 . S
C1220 C1208 1.392 . S
C1220 C1221 1.367 . S
C1220 H1228 0.930 . S
C1221 C1219 1.413 . S
C1221 C1220 1.367 . S
C1221 H1223 0.930 . S
H1222 C1215 0.930 . S
H1223 C1221 0.930 . S
H1224 C1212 0.930 . S
H1225 C1213 0.930 . S
H1226 C1219 0.929 . S
H1227 C1241 0.930 . S
H1228 C1220 0.930 . S
H1229 C1247 0.930 . S
H1230 C1238 0.929 . S
H1231 C1245 0.930 . S
H1232 C1209 0.931 . S
H1233 C1239 0.930 . S
H1234 C1272 0.930 . S
H1235 C1216 0.930 . S
H1236 C1271 0.931 . S
N1237 Eu1206 2.657 . S
N1237 C1238 1.334 . S
N1237 C1242 1.362 . S
C1238 H1230 0.929 . S
C1238 N1237 1.334 . S
C1238 C1241 1.413 . S
C1239 H1233 0.930 . S
C1239 C1240 1.392 . S
C1239 C1241 1.367 . S
C1240 C1239 1.392 . S
C1240 C1242 1.420 . S
C1240 C1272 1.423 . S
C1241 H1227 0.930 . S
C1241 C1238 1.413 . S
C1241 C1239 1.367 . S
C1242 N1237 1.362 . S
C1242 C1240 1.420 . S
C1242 C1246 1.429 . S
H1243 C1248 0.930 . S
N1244 Eu1206 2.609 . S
N1244 C1246 1.377 . S
N1244 C1247 1.321 . S
C1245 H1231 0.930 . S
C1245 C1247 1.400 . S
C1245 C1248 1.386 . S
C1246 C1242 1.429 . S
C1246 N1244 1.377 . S
C1246 C1249 1.411 . S
C1247 H1229 0.930 . S
C1247 N1244 1.321 . S
C1247 C1245 1.400 . S
C1248 H1243 0.930 . S
C1248 C1245 1.386 . S
C1248 C1249 1.395 . S
C1249 C1246 1.411 . S
C1249 C1248 1.395 . S
C1249 C1271 1.420 . S
O1250 Eu1206 2.558 . S
O1250 C1270 1.257 . S
O1251 Eu1206 2.612 . S
O1251 Eu1217 2.380 . S
O1251 C1262 1.276 . S
O1252 Eu1217 2.432 . S
O1252 C1269 1.264 . S
O1253 Eu1206 2.339 . S
O1253 C1269 1.254 . S
O1254 Eu1206 2.563 . S
O1254 C1262 1.235 . S
O1255 Eu1206 2.419 . S
O1255 C1270 1.249 . S
O1256 Eu1217 2.558 . S
O1256 C1281 1.257 . S
O1257 Eu1206 2.380 . S
O1257 Eu1217 2.612 . S
O1257 C1273 1.276 . S
O1258 Eu1206 2.432 . S
O1258 C1280 1.264 . S
O1259 Eu1217 2.339 . S
O1259 C1280 1.254 . S
O1260 Eu1217 2.563 . S
O1260 C1273 1.235 . S
O1261 Eu1217 2.419 . S
O1261 C1281 1.249 . S
C1262 O1251 1.276 . S
C1262 O1254 1.235 . S
C1263 C1265 1.393 . S
C1263 C1267 1.395 . S
C1263 C1270 1.492 . S
C1264 C1265 1.392 . S
C1264 C1266 1.386 . S
C1265 C1263 1.393 . S
C1265 C1264 1.392 . S
C1265 H1282 0.930 . S
C1266 C1264 1.386 . S
C1266 C1268 1.395 . S
C1266 H1283 0.930 . S
C1267 C1263 1.395 . S
C1267 C1268 1.379 . S
C1267 H1284 0.930 . S
C1268 C1266 1.395 . S
C1268 C1267 1.379 . S
C1268 H1285 0.930 . S
C1269 O1252 1.264 . S
C1269 O1253 1.254 . S
C1270 Eu1206 2.848 . S
C1270 O1250 1.257 . S
C1270 O1255 1.249 . S
C1270 C1263 1.492 . S
C1271 H1236 0.931 . S
C1271 C1249 1.420 . S
C1271 C1272 1.351 . S
C1272 H1234 0.930 . S
C1272 C1240 1.423 . S
C1272 C1271 1.351 . S
C1273 O1257 1.276 . S
C1273 O1260 1.235 . S
C1274 C1275 1.393 . S
C1274 C1278 1.395 . S
C1274 C1281 1.492 . S
C1275 C1274 1.393 . S
C1275 C1276 1.392 . S
C1275 H1286 0.930 . S
C1276 C1275 1.392 . S
C1276 C1277 1.386 . S
C1277 C1276 1.386 . S
C1277 C1279 1.395 . S
C1277 H1287 0.930 . S
C1278 C1274 1.395 . S
C1278 C1279 1.379 . S
C1278 H1288 0.930 . S
C1279 C1277 1.395 . S
C1279 C1278 1.379 . S
C1279 H1289 0.930 . S
C1280 O1258 1.264 . S
C1280 O1259 1.254 . S
C1281 Eu1217 2.848 . S
C1281 O1256 1.257 . S
C1281 O1261 1.249 . S
C1281 C1274 1.492 . S
H1282 C1265 0.930 . S
H1283 C1266 0.930 . S
H1284 C1267 0.930 . S
H1285 C1268 0.930 . S
H1286 C1275 0.930 . S
H1287 C1277 0.930 . S
H1288 C1278 0.930 . S
H1289 C1279 0.930 . S
Eu1290 N1321 2.657 . S
Eu1290 N1328 2.609 . S
Eu1290 O1334 2.558 . S
Eu1290 O1335 2.612 . S
Eu1290 O1337 2.339 . S
Eu1290 O1338 2.563 . S
Eu1290 O1339 2.419 . S
Eu1290 O1341 2.380 . S
Eu1290 O1342 2.432 . S
Eu1290 C1354 2.848 . S
C1291 C1294 1.429 . S
C1291 C1295 1.411 . S
C1291 N1298 1.377 . S
C1292 C1294 1.420 . S
C1292 C1296 1.423 . S
C1292 C1304 1.392 . S
C1293 C1295 1.420 . S
C1293 C1296 1.351 . S
C1293 H1316 0.931 . S
C1294 C1291 1.429 . S
C1294 C1292 1.420 . S
C1294 N1302 1.362 . S
C1295 C1291 1.411 . S
C1295 C1293 1.420 . S
C1295 C1300 1.395 . S
C1296 C1292 1.423 . S
C1296 C1293 1.351 . S
C1296 H1308 0.930 . S
C1297 C1299 1.400 . S
C1297 C1300 1.386 . S
C1297 H1309 0.930 . S
N1298 C1291 1.377 . S
N1298 C1299 1.321 . S
N1298 Eu1301 2.609 . S
C1299 C1297 1.400 . S
C1299 N1298 1.321 . S
C1299 H1306 0.930 . S
C1300 C1295 1.395 . S
C1300 C1297 1.386 . S
C1300 H1319 0.930 . S
Eu1301 N1298 2.609 . S
Eu1301 N1302 2.657 . S
Eu1301 O1335 2.380 . S
Eu1301 O1336 2.432 . S
Eu1301 O1340 2.558 . S
Eu1301 O1341 2.612 . S
Eu1301 O1343 2.339 . S
Eu1301 O1344 2.563 . S
Eu1301 O1345 2.419 . S
Eu1301 C1365 2.848 . S
N1302 C1294 1.362 . S
N1302 Eu1301 2.657 . S
N1302 C1303 1.334 . S
C1303 N1302 1.334 . S
C1303 C1305 1.413 . S
C1303 H1310 0.929 . S
C1304 C1292 1.392 . S
C1304 C1305 1.367 . S
C1304 H1312 0.930 . S
C1305 C1303 1.413 . S
C1305 C1304 1.367 . S
C1305 H1307 0.930 . S
H1306 C1299 0.930 . S
H1307 C1305 0.930 . S
H1308 C1296 0.930 . S
H1309 C1297 0.930 . S
H1310 C1303 0.929 . S
H1311 C1325 0.930 . S
H1312 C1304 0.930 . S
H1313 C1331 0.930 . S
H1314 C1322 0.929 . S
H1315 C1329 0.930 . S
H1316 C1293 0.931 . S
H1317 C1323 0.930 . S
H1318 C1356 0.930 . S
H1319 C1300 0.930 . S
H1320 C1355 0.931 . S
N1321 Eu1290 2.657 . S
N1321 C1322 1.334 . S
N1321 C1326 1.362 . S
C1322 H1314 0.929 . S
C1322 N1321 1.334 . S
C1322 C1325 1.413 . S
C1323 H1317 0.930 . S
C1323 C1324 1.392 . S
C1323 C1325 1.367 . S
C1324 C1323 1.392 . S
C1324 C1326 1.420 . S
C1324 C1356 1.423 . S
C1325 H1311 0.930 . S
C1325 C1322 1.413 . S
C1325 C1323 1.367 . S
C1326 N1321 1.362 . S
C1326 C1324 1.420 . S
C1326 C1330 1.429 . S
H1327 C1332 0.930 . S
N1328 Eu1290 2.609 . S
N1328 C1330 1.377 . S
N1328 C1331 1.321 . S
C1329 H1315 0.930 . S
C1329 C1331 1.400 . S
C1329 C1332 1.386 . S
C1330 C1326 1.429 . S
C1330 N1328 1.377 . S
C1330 C1333 1.411 . S
C1331 H1313 0.930 . S
C1331 N1328 1.321 . S
C1331 C1329 1.400 . S
C1332 H1327 0.930 . S
C1332 C1329 1.386 . S
C1332 C1333 1.395 . S
C1333 C1330 1.411 . S
C1333 C1332 1.395 . S
C1333 C1355 1.420 . S
O1334 Eu1290 2.558 . S
O1334 C1354 1.257 . S
O1335 Eu1290 2.612 . S
O1335 Eu1301 2.380 . S
O1335 C1346 1.276 . S
O1336 Eu1301 2.432 . S
O1336 C1353 1.264 . S
O1337 Eu1290 2.339 . S
O1337 C1353 1.254 . S
O1338 Eu1290 2.563 . S
O1338 C1346 1.235 . S
O1339 Eu1290 2.419 . S
O1339 C1354 1.249 . S
O1340 Eu1301 2.558 . S
O1340 C1365 1.257 . S
O1341 Eu1290 2.380 . S
O1341 Eu1301 2.612 . S
O1341 C1357 1.276 . S
O1342 Eu1290 2.432 . S
O1342 C1364 1.264 . S
O1343 Eu1301 2.339 . S
O1343 C1364 1.254 . S
O1344 Eu1301 2.563 . S
O1344 C1357 1.235 . S
O1345 Eu1301 2.419 . S
O1345 C1365 1.249 . S
C1346 O1335 1.276 . S
C1346 O1338 1.235 . S
C1347 C1349 1.393 . S
C1347 C1351 1.395 . S
C1347 C1354 1.492 . S
C1348 C1349 1.392 . S
C1348 C1350 1.386 . S
C1349 C1347 1.393 . S
C1349 C1348 1.392 . S
C1349 H1366 0.930 . S
C1350 C1348 1.386 . S
C1350 C1352 1.395 . S
C1350 H1367 0.930 . S
C1351 C1347 1.395 . S
C1351 C1352 1.379 . S
C1351 H1368 0.930 . S
C1352 C1350 1.395 . S
C1352 C1351 1.379 . S
C1352 H1369 0.930 . S
C1353 O1336 1.264 . S
C1353 O1337 1.254 . S
C1354 Eu1290 2.848 . S
C1354 O1334 1.257 . S
C1354 O1339 1.249 . S
C1354 C1347 1.492 . S
C1355 H1320 0.931 . S
C1355 C1333 1.420 . S
C1355 C1356 1.351 . S
C1356 H1318 0.930 . S
C1356 C1324 1.423 . S
C1356 C1355 1.351 . S
C1357 O1341 1.276 . S
C1357 O1344 1.235 . S
C1358 C1359 1.393 . S
C1358 C1362 1.395 . S
C1358 C1365 1.492 . S
C1359 C1358 1.393 . S
C1359 C1360 1.392 . S
C1359 H1370 0.930 . S
C1360 C1359 1.392 . S
C1360 C1361 1.386 . S
C1361 C1360 1.386 . S
C1361 C1363 1.395 . S
C1361 H1371 0.930 . S
C1362 C1358 1.395 . S
C1362 C1363 1.379 . S
C1362 H1372 0.930 . S
C1363 C1361 1.395 . S
C1363 C1362 1.379 . S
C1363 H1373 0.930 . S
C1364 O1342 1.264 . S
C1364 O1343 1.254 . S
C1365 Eu1301 2.848 . S
C1365 O1340 1.257 . S
C1365 O1345 1.249 . S
C1365 C1358 1.492 . S
H1366 C1349 0.930 . S
H1367 C1350 0.930 . S
H1368 C1351 0.930 . S
H1369 C1352 0.930 . S
H1370 C1359 0.930 . S
H1371 C1361 0.930 . S
H1372 C1362 0.930 . S
H1373 C1363 0.930 . S
Eu1374 N1405 2.657 . S
Eu1374 N1412 2.609 . S
Eu1374 O1418 2.558 . S
Eu1374 O1419 2.612 . S
Eu1374 O1421 2.339 . S
Eu1374 O1422 2.563 . S
Eu1374 O1423 2.419 . S
Eu1374 O1425 2.380 . S
Eu1374 O1426 2.432 . S
Eu1374 C1438 2.848 . S
C1375 C1378 1.429 . S
C1375 C1379 1.411 . S
C1375 N1382 1.377 . S
C1376 C1378 1.420 . S
C1376 C1380 1.423 . S
C1376 C1388 1.392 . S
C1377 C1379 1.420 . S
C1377 C1380 1.351 . S
C1377 H1400 0.931 . S
C1378 C1375 1.429 . S
C1378 C1376 1.420 . S
C1378 N1386 1.362 . S
C1379 C1375 1.411 . S
C1379 C1377 1.420 . S
C1379 C1384 1.395 . S
C1380 C1376 1.423 . S
C1380 C1377 1.351 . S
C1380 H1392 0.930 . S
C1381 C1383 1.400 . S
C1381 C1384 1.386 . S
C1381 H1393 0.930 . S
N1382 C1375 1.377 . S
N1382 C1383 1.321 . S
N1382 Eu1385 2.609 . S
C1383 C1381 1.400 . S
C1383 N1382 1.321 . S
C1383 H1390 0.930 . S
C1384 C1379 1.395 . S
C1384 C1381 1.386 . S
C1384 H1403 0.930 . S
Eu1385 N1382 2.609 . S
Eu1385 N1386 2.657 . S
Eu1385 O1419 2.380 . S
Eu1385 O1420 2.432 . S
Eu1385 O1424 2.558 . S
Eu1385 O1425 2.612 . S
Eu1385 O1427 2.339 . S
Eu1385 O1428 2.563 . S
Eu1385 O1429 2.419 . S
Eu1385 C1449 2.848 . S
N1386 C1378 1.362 . S
N1386 Eu1385 2.657 . S
N1386 C1387 1.334 . S
C1387 N1386 1.334 . S
C1387 C1389 1.413 . S
C1387 H1394 0.929 . S
C1388 C1376 1.392 . S
C1388 C1389 1.367 . S
C1388 H1396 0.930 . S
C1389 C1387 1.413 . S
C1389 C1388 1.367 . S
C1389 H1391 0.930 . S
H1390 C1383 0.930 . S
H1391 C1389 0.930 . S
H1392 C1380 0.930 . S
H1393 C1381 0.930 . S
H1394 C1387 0.929 . S
H1395 C1409 0.930 . S
H1396 C1388 0.930 . S
H1397 C1415 0.930 . S
H1398 C1406 0.929 . S
H1399 C1413 0.930 . S
H1400 C1377 0.931 . S
H1401 C1407 0.930 . S
H1402 C1440 0.930 . S
H1403 C1384 0.930 . S
H1404 C1439 0.931 . S
N1405 Eu1374 2.657 . S
N1405 C1406 1.334 . S
N1405 C1410 1.362 . S
C1406 H1398 0.929 . S
C1406 N1405 1.334 . S
C1406 C1409 1.413 . S
C1407 H1401 0.930 . S
C1407 C1408 1.392 . S
C1407 C1409 1.367 . S
C1408 C1407 1.392 . S
C1408 C1410 1.420 . S
C1408 C1440 1.423 . S
C1409 H1395 0.930 . S
C1409 C1406 1.413 . S
C1409 C1407 1.367 . S
C1410 N1405 1.362 . S
C1410 C1408 1.420 . S
C1410 C1414 1.429 . S
H1411 C1416 0.930 . S
N1412 Eu1374 2.609 . S
N1412 C1414 1.377 . S
N1412 C1415 1.321 . S
C1413 H1399 0.930 . S
C1413 C1415 1.400 . S
C1413 C1416 1.386 . S
C1414 C1410 1.429 . S
C1414 N1412 1.377 . S
C1414 C1417 1.411 . S
C1415 H1397 0.930 . S
C1415 N1412 1.321 . S
C1415 C1413 1.400 . S
C1416 H1411 0.930 . S
C1416 C1413 1.386 . S
C1416 C1417 1.395 . S
C1417 C1414 1.411 . S
C1417 C1416 1.395 . S
C1417 C1439 1.420 . S
O1418 Eu1374 2.558 . S
O1418 C1438 1.257 . S
O1419 Eu1374 2.612 . S
O1419 Eu1385 2.380 . S
O1419 C1430 1.276 . S
O1420 Eu1385 2.432 . S
O1420 C1437 1.264 . S
O1421 Eu1374 2.339 . S
O1421 C1437 1.254 . S
O1422 Eu1374 2.563 . S
O1422 C1430 1.235 . S
O1423 Eu1374 2.419 . S
O1423 C1438 1.249 . S
O1424 Eu1385 2.558 . S
O1424 C1449 1.257 . S
O1425 Eu1374 2.380 . S
O1425 Eu1385 2.612 . S
O1425 C1441 1.276 . S
O1426 Eu1374 2.432 . S
O1426 C1448 1.264 . S
O1427 Eu1385 2.339 . S
O1427 C1448 1.254 . S
O1428 Eu1385 2.563 . S
O1428 C1441 1.235 . S
O1429 Eu1385 2.419 . S
O1429 C1449 1.249 . S
C1430 O1419 1.276 . S
C1430 O1422 1.235 . S
C1431 C1433 1.393 . S
C1431 C1435 1.395 . S
C1431 C1438 1.492 . S
C1432 C1433 1.392 . S
C1432 C1434 1.386 . S
C1433 C1431 1.393 . S
C1433 C1432 1.392 . S
C1433 H1450 0.930 . S
C1434 C1432 1.386 . S
C1434 C1436 1.395 . S
C1434 H1451 0.930 . S
C1435 C1431 1.395 . S
C1435 C1436 1.379 . S
C1435 H1452 0.930 . S
C1436 C1434 1.395 . S
C1436 C1435 1.379 . S
C1436 H1453 0.930 . S
C1437 O1420 1.264 . S
C1437 O1421 1.254 . S
C1438 Eu1374 2.848 . S
C1438 O1418 1.257 . S
C1438 O1423 1.249 . S
C1438 C1431 1.492 . S
C1439 H1404 0.931 . S
C1439 C1417 1.420 . S
C1439 C1440 1.351 . S
C1440 H1402 0.930 . S
C1440 C1408 1.423 . S
C1440 C1439 1.351 . S
C1441 O1425 1.276 . S
C1441 O1428 1.235 . S
C1442 C1443 1.393 . S
C1442 C1446 1.395 . S
C1442 C1449 1.492 . S
C1443 C1442 1.393 . S
C1443 C1444 1.392 . S
C1443 H1454 0.930 . S
C1444 C1443 1.392 . S
C1444 C1445 1.386 . S
C1445 C1444 1.386 . S
C1445 C1447 1.395 . S
C1445 H1455 0.930 . S
C1446 C1442 1.395 . S
C1446 C1447 1.379 . S
C1446 H1456 0.930 . S
C1447 C1445 1.395 . S
C1447 C1446 1.379 . S
C1447 H1457 0.930 . S
C1448 O1426 1.264 . S
C1448 O1427 1.254 . S
C1449 Eu1385 2.848 . S
C1449 O1424 1.257 . S
C1449 O1429 1.249 . S
C1449 C1442 1.492 . S
H1450 C1433 0.930 . S
H1451 C1434 0.930 . S
H1452 C1435 0.930 . S
H1453 C1436 0.930 . S
H1454 C1443 0.930 . S
H1455 C1445 0.930 . S
H1456 C1446 0.930 . S
H1457 C1447 0.930 . S
H1458 C1466 0.950 . S
H1459 C1471 0.950 . S
H1460 C1468 0.950 . S
H1461 C1470 0.950 . S
H1462 C1472 0.983 . S
H1463 C1474 0.950 . S
H1464 C1476 0.950 . S
H1465 C1477 0.950 . S
C1466 H1458 0.950 . S
C1466 C1467 1.386 . S
C1466 C1468 1.391 . S
C1467 C1466 1.386 . S
C1467 C1471 1.393 . S
C1468 H1460 0.950 . S
C1468 C1466 1.391 . S
C1468 C1469 1.400 . S
C1469 C1468 1.400 . S
C1469 C1470 1.398 . S
C1469 C1475 1.491 . S
C1470 H1461 0.950 . S
C1470 C1469 1.398 . S
C1470 C1471 1.391 . S
C1471 H1459 0.950 . S
C1471 C1467 1.393 . S
C1471 C1470 1.391 . S
C1472 H1462 0.983 . S
C1472 C1473 1.386 . S
C1472 C1474 1.391 . S
C1473 C1472 1.386 . S
C1473 C1477 1.393 . S
C1474 H1463 0.950 . S
C1474 C1472 1.391 . S
C1474 C1475 1.400 . S
C1475 C1469 1.491 . S
C1475 C1474 1.400 . S
C1475 C1476 1.398 . S
C1476 H1464 0.950 . S
C1476 C1475 1.398 . S
C1476 C1477 1.391 . S
C1477 H1465 0.950 . S
C1477 C1473 1.393 . S
C1477 C1476 1.391 . S
H1478 C1486 0.950 . S
H1479 C1491 0.950 . S
H1480 C1488 0.950 . S
H1481 C1490 0.950 . S
H1482 C1492 0.950 . S
H1483 C1494 0.950 . S
H1484 C1496 0.950 . S
H1485 C1497 0.950 . S
C1486 H1478 0.950 . S
C1486 C1487 1.386 . S
C1486 C1488 1.391 . S
C1487 C1486 1.386 . S
C1487 C1491 1.393 . S
C1488 H1480 0.950 . S
C1488 C1486 1.391 . S
C1488 C1489 1.400 . S
C1489 C1488 1.400 . S
C1489 C1490 1.398 . S
C1489 C1495 1.491 . S
C1490 H1481 0.950 . S
C1490 C1489 1.398 . S
C1490 C1491 1.391 . S
C1491 H1479 0.950 . S
C1491 C1487 1.393 . S
C1491 C1490 1.391 . S
C1492 H1482 0.950 . S
C1492 C1493 1.386 . S
C1492 C1494 1.391 . S
C1493 C1492 1.386 . S
C1493 C1497 1.393 . S
C1494 H1483 0.950 . S
C1494 C1492 1.391 . S
C1494 C1495 1.400 . S
C1495 C1489 1.491 . S
C1495 C1494 1.400 . S
C1495 C1496 1.398 . S
C1496 H1484 0.950 . S
C1496 C1495 1.398 . S
C1496 C1497 1.391 . S
C1497 H1485 0.950 . S
C1497 C1493 1.393 . S
C1497 C1496 1.391 . S
H1498 C1506 0.950 . S
H1499 C1511 0.950 . S
H1500 C1508 0.950 . S
H1501 C1510 0.950 . S
H1502 C1512 0.950 . S
H1503 C1514 0.950 . S
H1504 C1516 0.950 . S
H1505 C1517 0.950 . S
C1506 H1498 0.950 . S
C1506 C1507 1.386 . S
C1506 C1508 1.391 . S
C1507 C1506 1.386 . S
C1507 C1511 1.393 . S
C1508 H1500 0.950 . S
C1508 C1506 1.391 . S
C1508 C1509 1.400 . S
C1509 C1508 1.400 . S
C1509 C1510 1.398 . S
C1509 C1515 1.491 . S
C1510 H1501 0.950 . S
C1510 C1509 1.398 . S
C1510 C1511 1.391 . S
C1511 H1499 0.950 . S
C1511 C1507 1.393 . S
C1511 C1510 1.391 . S
C1512 H1502 0.950 . S
C1512 C1513 1.386 . S
C1512 C1514 1.391 . S
C1513 C1512 1.386 . S
C1513 C1517 1.393 . S
C1514 H1503 0.950 . S
C1514 C1512 1.391 . S
C1514 C1515 1.400 . S
C1515 C1509 1.491 . S
C1515 C1514 1.400 . S
C1515 C1516 1.398 . S
C1516 H1504 0.950 . S
C1516 C1515 1.398 . S
C1516 C1517 1.391 . S
C1517 H1505 0.950 . S
C1517 C1513 1.393 . S
C1517 C1516 1.391 . S
H1518 C1526 0.950 . S
H1519 C1531 0.950 . S
H1520 C1528 0.950 . S
H1521 C1530 0.950 . S
H1522 C1532 0.950 . S
H1523 C1534 0.950 . S
H1524 C1536 0.950 . S
H1525 C1537 0.950 . S
C1526 H1518 0.950 . S
C1526 C1527 1.386 . S
C1526 C1528 1.391 . S
C1527 C1526 1.386 . S
C1527 C1531 1.393 . S
C1528 H1520 0.950 . S
C1528 C1526 1.391 . S
C1528 C1529 1.400 . S
C1529 C1528 1.400 . S
C1529 C1530 1.398 . S
C1529 C1535 1.491 . S
C1530 H1521 0.950 . S
C1530 C1529 1.398 . S
C1530 C1531 1.391 . S
C1531 H1519 0.950 . S
C1531 C1527 1.393 . S
C1531 C1530 1.391 . S
C1532 H1522 0.950 . S
C1532 C1533 1.386 . S
C1532 C1534 1.391 . S
C1533 C1532 1.386 . S
C1533 C1537 1.393 . S
C1534 H1523 0.950 . S
C1534 C1532 1.391 . S
C1534 C1535 1.400 . S
C1535 C1529 1.491 . S
C1535 C1534 1.400 . S
C1535 C1536 1.398 . S
C1536 H1524 0.950 . S
C1536 C1535 1.398 . S
C1536 C1537 1.391 . S
C1537 H1525 0.950 . S
C1537 C1533 1.393 . S
C1537 C1536 1.391 . S
H1538 C1546 0.950 . S
H1539 C1551 0.950 . S
H1540 C1548 0.950 . S
H1541 C1550 0.950 . S
H1542 C1552 0.950 . S
H1543 C1554 0.950 . S
H1544 C1556 0.950 . S
H1545 C1557 0.950 1_554 S
C1546 H1538 0.950 . S
C1546 C1547 1.386 . S
C1546 C1548 1.391 . S
C1547 C1546 1.386 . S
C1547 C1551 1.393 . S
C1548 H1540 0.950 . S
C1548 C1546 1.391 . S
C1548 C1549 1.400 . S
C1549 C1548 1.400 . S
C1549 C1550 1.398 . S
C1549 C1555 1.491 . S
C1550 H1541 0.950 . S
C1550 C1549 1.398 . S
C1550 C1551 1.391 . S
C1551 H1539 0.950 . S
C1551 C1547 1.393 . S
C1551 C1550 1.391 . S
C1552 H1542 0.950 . S
C1552 C1553 1.386 . S
C1552 C1554 1.391 . S
C1553 C1552 1.386 . S
C1553 C1557 1.393 . S
C1554 H1543 0.950 . S
C1554 C1552 1.391 . S
C1554 C1555 1.400 . S
C1555 C1549 1.491 . S
C1555 C1554 1.400 . S
C1555 C1556 1.398 . S
C1556 H1544 0.950 . S
C1556 C1555 1.398 . S
C1556 C1557 1.391 . S
C1557 H1545 0.950 1_556 S
C1557 C1553 1.393 . S
C1557 C1556 1.391 . S
H1558 C1566 0.950 . S
H1559 C1571 0.950 . S
H1560 C1568 0.950 . S
H1561 C1570 0.950 . S
H1562 C1572 0.950 1_554 S
H1563 C1574 0.950 . S
H1564 C1576 0.950 . S
H1565 C1577 0.950 . S
C1566 H1558 0.950 . S
C1566 C1567 1.386 . S
C1566 C1568 1.391 . S
C1567 C1566 1.386 . S
C1567 C1571 1.393 . S
C1568 H1560 0.950 . S
C1568 C1566 1.391 . S
C1568 C1569 1.400 . S
C1569 C1568 1.400 . S
C1569 C1570 1.398 . S
C1569 C1575 1.491 . S
C1570 H1561 0.950 . S
C1570 C1569 1.398 . S
C1570 C1571 1.391 . S
C1571 H1559 0.950 . S
C1571 C1567 1.393 . S
C1571 C1570 1.391 . S
C1572 H1562 0.950 1_556 S
C1572 C1573 1.386 . S
C1572 C1574 1.391 . S
C1573 C1572 1.386 . S
C1573 C1577 1.393 . S
C1574 H1563 0.950 . S
C1574 C1572 1.391 . S
C1574 C1575 1.400 . S
C1575 C1569 1.491 . S
C1575 C1574 1.400 . S
C1575 C1576 1.398 . S
C1576 H1564 0.950 . S
C1576 C1575 1.398 . S
C1576 C1577 1.391 . S
C1577 H1565 0.950 . S
C1577 C1573 1.393 . S
C1577 C1576 1.391 . S
H1578 C1586 0.950 . S
H1579 C1591 0.950 . S
H1580 C1588 0.950 . S
H1581 C1590 0.950 . S
H1582 C1592 0.950 . S
H1583 C1594 0.950 . S
H1584 C1596 0.950 . S
H1585 C1597 0.950 1_554 S
C1586 H1578 0.950 . S
C1586 C1587 1.386 . S
C1586 C1588 1.391 . S
C1587 C1586 1.386 . S
C1587 C1591 1.393 . S
C1588 H1580 0.950 . S
C1588 C1586 1.391 . S
C1588 C1589 1.400 . S
C1589 C1588 1.400 . S
C1589 C1590 1.398 . S
C1589 C1595 1.491 . S
C1590 H1581 0.950 . S
C1590 C1589 1.398 . S
C1590 C1591 1.391 . S
C1591 H1579 0.950 . S
C1591 C1587 1.393 . S
C1591 C1590 1.391 . S
C1592 H1582 0.950 . S
C1592 C1593 1.386 . S
C1592 C1594 1.391 . S
C1593 C1592 1.386 . S
C1593 C1597 1.393 . S
C1594 H1583 0.950 . S
C1594 C1592 1.391 . S
C1594 C1595 1.400 . S
C1595 C1589 1.491 . S
C1595 C1594 1.400 . S
C1595 C1596 1.398 . S
C1596 H1584 0.950 . S
C1596 C1595 1.398 . S
C1596 C1597 1.391 . S
C1597 H1585 0.950 1_556 S
C1597 C1593 1.393 . S
C1597 C1596 1.391 . S
H1598 C1606 0.950 . S
H1599 C1611 0.950 . S
H1600 C1608 0.950 . S
H1601 C1610 0.950 . S
H1602 C1612 0.950 . S
H1603 C1614 0.950 . S
H1604 C1616 0.950 . S
H1605 C1617 0.950 1_554 S
C1606 H1598 0.950 . S
C1606 C1607 1.386 . S
C1606 C1608 1.391 . S
C1607 C1606 1.386 . S
C1607 C1611 1.393 . S
C1608 H1600 0.950 . S
C1608 C1606 1.391 . S
C1608 C1609 1.400 . S
C1609 C1608 1.400 . S
C1609 C1610 1.398 . S
C1609 C1615 1.491 . S
C1610 H1601 0.950 . S
C1610 C1609 1.398 . S
C1610 C1611 1.391 . S
C1611 H1599 0.950 . S
C1611 C1607 1.393 . S
C1611 C1610 1.391 . S
C1612 H1602 0.950 . S
C1612 C1613 1.386 . S
C1612 C1614 1.391 . S
C1613 C1612 1.386 . S
C1613 C1617 1.393 . S
C1614 H1603 0.950 . S
C1614 C1612 1.391 . S
C1614 C1615 1.400 . S
C1615 C1609 1.491 . S
C1615 C1614 1.400 . S
C1615 C1616 1.398 . S
C1616 H1604 0.950 . S
C1616 C1615 1.398 . S
C1616 C1617 1.391 . S
C1617 H1605 0.950 1_556 S
C1617 C1613 1.393 . S
C1617 C1616 1.391 . S
H1618 C1626 0.950 . S
H1619 C1631 0.950 . S
H1620 C1628 0.950 . S
H1621 C1630 0.950 . S
H1622 C1632 0.950 . S
H1623 C1634 0.950 . S
H1624 C1636 0.950 . S
H1625 C1637 0.950 . S
C1626 H1618 0.950 . S
C1626 C1627 1.386 . S
C1626 C1628 1.391 . S
C1627 C1626 1.386 . S
C1627 C1631 1.393 . S
C1628 H1620 0.950 . S
C1628 C1626 1.391 . S
C1628 C1629 1.400 . S
C1629 C1628 1.400 . S
C1629 C1630 1.398 . S
C1629 C1635 1.491 . S
C1630 H1621 0.950 . S
C1630 C1629 1.398 . S
C1630 C1631 1.391 . S
C1631 H1619 0.950 . S
C1631 C1627 1.393 . S
C1631 C1630 1.391 . S
C1632 H1622 0.950 . S
C1632 C1633 1.386 . S
C1632 C1634 1.391 . S
C1633 C1632 1.386 . S
C1633 C1637 1.393 . S
C1634 H1623 0.950 . S
C1634 C1632 1.391 . S
C1634 C1635 1.400 . S
C1635 C1629 1.491 . S
C1635 C1634 1.400 . S
C1635 C1636 1.398 . S
C1636 H1624 0.950 . S
C1636 C1635 1.398 . S
C1636 C1637 1.391 . S
C1637 H1625 0.950 . S
C1637 C1633 1.393 . S
C1637 C1636 1.391 . S
H1638 C1646 0.950 . S
H1639 C1651 0.950 . S
H1640 C1648 0.950 . S
H1641 C1650 0.950 . S
H1642 C1652 0.950 . S
H1643 C1654 0.950 . S
H1644 C1656 0.950 . S
H1645 C1657 0.950 . S
C1646 H1638 0.950 . S
C1646 C1647 1.386 . S
C1646 C1648 1.391 . S
C1647 C1646 1.386 . S
C1647 C1651 1.393 . S
C1648 H1640 0.950 . S
C1648 C1646 1.391 . S
C1648 C1649 1.400 . S
C1649 C1648 1.400 . S
C1649 C1650 1.398 . S
C1649 C1655 1.491 . S
C1650 H1641 0.950 . S
C1650 C1649 1.398 . S
C1650 C1651 1.391 . S
C1651 H1639 0.950 . S
C1651 C1647 1.393 . S
C1651 C1650 1.391 . S
C1652 H1642 0.950 . S
C1652 C1653 1.386 . S
C1652 C1654 1.391 . S
C1653 C1652 1.386 . S
C1653 C1657 1.393 . S
C1654 H1643 0.950 . S
C1654 C1652 1.391 . S
C1654 C1655 1.400 . S
C1655 C1649 1.491 . S
C1655 C1654 1.400 . S
C1655 C1656 1.398 . S
C1656 H1644 0.950 . S
C1656 C1655 1.398 . S
C1656 C1657 1.391 . S
C1657 H1645 0.950 . S
C1657 C1653 1.393 . S
C1657 C1656 1.391 . S
H1658 C1666 0.950 . S
H1659 C1671 0.950 . S
H1660 C1668 0.950 . S
H1661 C1670 0.950 . S
H1662 C1672 0.950 . S
H1663 C1674 0.950 . S
H1664 C1676 0.950 . S
H1665 C1677 0.950 . S
C1666 H1658 0.950 . S
C1666 C1667 1.386 . S
C1666 C1668 1.391 . S
C1667 C1666 1.386 . S
C1667 C1671 1.393 . S
C1668 H1660 0.950 . S
C1668 C1666 1.391 . S
C1668 C1669 1.400 . S
C1669 C1668 1.400 . S
C1669 C1670 1.398 . S
C1669 C1675 1.491 . S
C1670 H1661 0.950 . S
C1670 C1669 1.398 . S
C1670 C1671 1.391 . S
C1671 H1659 0.950 . S
C1671 C1667 1.393 . S
C1671 C1670 1.391 . S
C1672 H1662 0.950 . S
C1672 C1673 1.386 . S
C1672 C1674 1.391 . S
C1673 C1672 1.386 . S
C1673 C1677 1.393 . S
C1674 H1663 0.950 . S
C1674 C1672 1.391 . S
C1674 C1675 1.400 . S
C1675 C1669 1.491 . S
C1675 C1674 1.400 . S
C1675 C1676 1.398 . S
C1676 H1664 0.950 . S
C1676 C1675 1.398 . S
C1676 C1677 1.391 . S
C1677 H1665 0.950 . S
C1677 C1673 1.393 . S
C1677 C1676 1.391 . S
H1678 C1686 0.950 . S
H1679 C1691 0.950 . S
H1680 C1688 0.950 . S
H1681 C1690 0.950 . S
H1682 C1692 0.922 1_556 S
H1683 C1694 0.950 . S
H1684 C1696 0.950 . S
H1685 C1697 0.950 . S
C1686 H1678 0.950 . S
C1686 C1687 1.386 . S
C1686 C1688 1.391 . S
C1687 C1686 1.386 . S
C1687 C1691 1.393 . S
C1688 H1680 0.950 . S
C1688 C1686 1.391 . S
C1688 C1689 1.400 . S
C1689 C1688 1.400 . S
C1689 C1690 1.398 . S
C1689 C1695 1.491 . S
C1690 H1681 0.950 . S
C1690 C1689 1.398 . S
C1690 C1691 1.391 . S
C1691 H1679 0.950 . S
C1691 C1687 1.393 . S
C1691 C1690 1.391 . S
C1692 H1682 0.922 1_554 S
C1692 C1693 1.386 . S
C1692 C1694 1.391 . S
C1693 C1692 1.386 . S
C1693 C1697 1.393 . S
C1694 H1683 0.950 . S
C1694 C1692 1.391 . S
C1694 C1695 1.400 . S
C1695 C1689 1.491 . S
C1695 C1694 1.400 . S
C1695 C1696 1.398 . S
C1696 H1684 0.950 . S
C1696 C1695 1.398 . S
C1696 C1697 1.391 . S
C1697 H1685 0.950 . S
C1697 C1693 1.393 . S
C1697 C1696 1.391 . S
H1698 C1706 0.950 . S
H1699 C1711 0.950 . S
H1700 C1708 0.950 . S
H1701 C1710 0.950 . S
H1702 C1712 0.950 . S
H1703 C1714 0.950 . S
H1704 C1716 0.950 . S
H1705 C1717 0.950 . S
C1706 H1698 0.950 . S
C1706 C1707 1.386 1_455 S
C1706 C1708 1.391 . S
C1707 C1706 1.386 1_655 S
C1707 C1711 1.393 . S
C1708 H1700 0.950 . S
C1708 C1706 1.391 . S
C1708 C1709 1.400 . S
C1709 C1708 1.400 . S
C1709 C1710 1.398 . S
C1709 C1715 1.491 . S
C1710 H1701 0.950 . S
C1710 C1709 1.398 . S
C1710 C1711 1.391 1_455 S
C1711 H1699 0.950 . S
C1711 C1707 1.393 . S
C1711 C1710 1.391 1_655 S
C1712 H1702 0.950 . S
C1712 C1713 1.386 . S
C1712 C1714 1.391 . S
C1713 C1712 1.386 . S
C1713 C1717 1.393 . S
C1714 H1703 0.950 . S
C1714 C1712 1.391 . S
C1714 C1715 1.400 . S
C1715 C1709 1.491 . S
C1715 C1714 1.400 . S
C1715 C1716 1.398 . S
C1716 H1704 0.950 . S
C1716 C1715 1.398 . S
C1716 C1717 1.391 . S
C1717 H1705 0.950 . S
C1717 C1713 1.393 . S
C1717 C1716 1.391 . S
H1718 C1726 0.950 . S
H1719 C1731 0.950 . S
H1720 C1728 0.950 . S
H1721 C1730 0.950 . S
H1722 C1732 0.950 . S
H1723 C1734 0.950 . S
H1724 C1736 0.950 . S
H1725 C1737 0.950 . S
C1726 H1718 0.950 . S
C1726 C1727 1.386 . S
C1726 C1728 1.391 . S
C1727 C1726 1.386 . S
C1727 C1731 1.393 . S
C1728 H1720 0.950 . S
C1728 C1726 1.391 . S
C1728 C1729 1.400 . S
C1729 C1728 1.400 . S
C1729 C1730 1.398 . S
C1729 C1735 1.491 . S
C1730 H1721 0.950 . S
C1730 C1729 1.398 . S
C1730 C1731 1.391 . S
C1731 H1719 0.950 . S
C1731 C1727 1.393 . S
C1731 C1730 1.391 . S
C1732 H1722 0.950 . S
C1732 C1733 1.386 . S
C1732 C1734 1.391 . S
C1733 C1732 1.386 . S
C1733 C1737 1.393 . S
C1734 H1723 0.950 . S
C1734 C1732 1.391 . S
C1734 C1735 1.400 . S
C1735 C1729 1.491 . S
C1735 C1734 1.400 . S
C1735 C1736 1.398 . S
C1736 H1724 0.950 . S
C1736 C1735 1.398 . S
C1736 C1737 1.391 . S
C1737 H1725 0.950 . S
C1737 C1733 1.393 . S
C1737 C1736 1.391 . S
H1738 C1746 0.950 . S
H1739 C1751 0.950 . S
H1740 C1748 0.950 . S
H1741 C1750 0.950 . S
H1742 C1752 0.950 . S
H1743 C1754 0.950 . S
H1744 C1756 0.950 . S
H1745 C1757 0.950 . S
C1746 H1738 0.950 . S
C1746 C1747 1.386 . S
C1746 C1748 1.391 1_545 S
C1747 C1746 1.386 . S
C1747 C1751 1.393 . S
C1748 H1740 0.950 . S
C1748 C1746 1.391 1_565 S
C1748 C1749 1.400 . S
C1749 C1748 1.400 . S
C1749 C1750 1.398 . S
C1749 C1755 1.491 . S
C1750 H1741 0.950 . S
C1750 C1749 1.398 . S
C1750 C1751 1.391 1_565 S
C1751 H1739 0.950 . S
C1751 C1747 1.393 . S
C1751 C1750 1.391 1_545 S
C1752 H1742 0.950 . S
C1752 C1753 1.386 . S
C1752 C1754 1.391 . S
C1753 C1752 1.386 . S
C1753 C1757 1.393 . S
C1754 H1743 0.950 . S
C1754 C1752 1.391 . S
C1754 C1755 1.400 . S
C1755 C1749 1.491 . S
C1755 C1754 1.400 . S
C1755 C1756 1.398 . S
C1756 H1744 0.950 . S
C1756 C1755 1.398 . S
C1756 C1757 1.391 . S
C1757 H1745 0.950 . S
C1757 C1753 1.393 . S
C1757 C1756 1.391 . S
H1758 C1766 0.950 . S
H1759 C1771 0.950 . S
H1760 C1768 0.950 . S
H1761 C1770 0.950 . S
H1762 C1772 0.950 . S
H1763 C1774 0.950 . S
H1764 C1776 0.950 . S
H1765 C1777 0.950 . S
C1766 H1758 0.950 . S
C1766 C1767 1.386 . S
C1766 C1768 1.391 . S
C1767 C1766 1.386 . S
C1767 C1771 1.393 . S
C1768 H1760 0.950 . S
C1768 C1766 1.391 . S
C1768 C1769 1.400 . S
C1769 C1768 1.400 . S
C1769 C1770 1.398 . S
C1769 C1775 1.491 . S
C1770 H1761 0.950 . S
C1770 C1769 1.398 . S
C1770 C1771 1.391 . S
C1771 H1759 0.950 . S
C1771 C1767 1.393 . S
C1771 C1770 1.391 . S
C1772 H1762 0.950 . S
C1772 C1773 1.386 . S
C1772 C1774 1.391 . S
C1773 C1772 1.386 . S
C1773 C1777 1.393 . S
C1774 H1763 0.950 . S
C1774 C1772 1.391 . S
C1774 C1775 1.400 . S
C1775 C1769 1.491 . S
C1775 C1774 1.400 . S
C1775 C1776 1.398 . S
C1776 H1764 0.950 . S
C1776 C1775 1.398 . S
C1776 C1777 1.391 . S
C1777 H1765 0.950 . S
C1777 C1773 1.393 . S
C1777 C1776 1.391 . S
H1778 C1786 0.950 . S
H1779 C1791 0.950 . S
H1780 C1788 0.950 . S
H1781 C1790 0.950 . S
H1782 C1792 0.950 . S
H1783 C1794 0.950 . S
H1784 C1796 0.950 . S
H1785 C1797 0.950 . S
C1786 H1778 0.950 . S
C1786 C1787 1.386 . S
C1786 C1788 1.391 . S
C1787 C1786 1.386 . S
C1787 C1791 1.393 . S
C1788 H1780 0.950 . S
C1788 C1786 1.391 . S
C1788 C1789 1.400 . S
C1789 C1788 1.400 . S
C1789 C1790 1.398 . S
C1789 C1795 1.491 . S
C1790 H1781 0.950 . S
C1790 C1789 1.398 . S
C1790 C1791 1.391 . S
C1791 H1779 0.950 . S
C1791 C1787 1.393 . S
C1791 C1790 1.391 . S
C1792 H1782 0.950 . S
C1792 C1793 1.386 . S
C1792 C1794 1.391 . S
C1793 C1792 1.386 . S
C1793 C1797 1.393 . S
C1794 H1783 0.950 . S
C1794 C1792 1.391 . S
C1794 C1795 1.400 . S
C1795 C1789 1.491 . S
C1795 C1794 1.400 . S
C1795 C1796 1.398 . S
C1796 H1784 0.950 . S
C1796 C1795 1.398 . S
C1796 C1797 1.391 . S
C1797 H1785 0.950 . S
C1797 C1793 1.393 . S
C1797 C1796 1.391 . S
H1798 C1806 0.950 . S
H1799 C1811 0.950 . S
H1800 C1808 0.950 . S
H1801 C1810 0.950 . S
H1802 C1812 0.950 . S
H1803 C1814 0.950 . S
H1804 C1816 0.950 . S
H1805 C1817 0.950 . S
C1806 H1798 0.950 . S
C1806 C1807 1.386 . S
C1806 C1808 1.391 . S
C1807 C1806 1.386 . S
C1807 C1811 1.393 . S
C1808 H1800 0.950 . S
C1808 C1806 1.391 . S
C1808 C1809 1.400 . S
C1809 C1808 1.400 . S
C1809 C1810 1.398 . S
C1809 C1815 1.491 . S
C1810 H1801 0.950 . S
C1810 C1809 1.398 . S
C1810 C1811 1.391 . S
C1811 H1799 0.950 . S
C1811 C1807 1.393 . S
C1811 C1810 1.391 . S
C1812 H1802 0.950 . S
C1812 C1813 1.386 . S
C1812 C1814 1.391 . S
C1813 C1812 1.386 . S
C1813 C1817 1.393 . S
C1814 H1803 0.950 . S
C1814 C1812 1.391 . S
C1814 C1815 1.400 . S
C1815 C1809 1.491 . S
C1815 C1814 1.400 . S
C1815 C1816 1.398 . S
C1816 H1804 0.950 . S
C1816 C1815 1.398 . S
C1816 C1817 1.391 . S
C1817 H1805 0.950 . S
C1817 C1813 1.393 . S
C1817 C1816 1.391 . S
H1818 C1826 0.950 . S
H1819 C1831 0.950 . S
H1820 C1828 0.950 . S
H1821 C1830 0.950 . S
H1822 C1832 0.950 . S
H1823 C1834 0.950 . S
H1824 C1836 0.950 . S
H1825 C1837 0.950 . S
C1826 H1818 0.950 . S
C1826 C1827 1.386 . S
C1826 C1828 1.391 . S
C1827 C1826 1.386 . S
C1827 C1831 1.393 . S
C1828 H1820 0.950 . S
C1828 C1826 1.391 . S
C1828 C1829 1.400 . S
C1829 C1828 1.400 . S
C1829 C1830 1.398 . S
C1829 C1835 1.491 . S
C1830 H1821 0.950 . S
C1830 C1829 1.398 . S
C1830 C1831 1.391 . S
C1831 H1819 0.950 . S
C1831 C1827 1.393 . S
C1831 C1830 1.391 . S
C1832 H1822 0.950 . S
C1832 C1833 1.386 . S
C1832 C1834 1.391 . S
C1833 C1832 1.386 . S
C1833 C1837 1.393 . S
C1834 H1823 0.950 . S
C1834 C1832 1.391 . S
C1834 C1835 1.400 . S
C1835 C1829 1.491 . S
C1835 C1834 1.400 . S
C1835 C1836 1.398 . S
C1836 H1824 0.950 . S
C1836 C1835 1.398 . S
C1836 C1837 1.391 . S
C1837 H1825 0.950 . S
C1837 C1833 1.393 . S
C1837 C1836 1.391 . S
H1838 C1846 0.950 . S
H1839 C1851 0.950 . S
H1840 C1848 0.950 . S
H1841 C1850 0.950 . S
H1842 C1852 0.950 . S
H1843 C1854 0.950 . S
H1844 C1856 0.950 . S
H1845 C1857 0.950 . S
C1846 H1838 0.950 . S
C1846 C1847 1.386 . S
C1846 C1848 1.391 . S
C1847 C1846 1.386 . S
C1847 C1851 1.393 . S
C1848 H1840 0.950 . S
C1848 C1846 1.391 . S
C1848 C1849 1.400 . S
C1849 C1848 1.400 . S
C1849 C1850 1.398 . S
C1849 C1855 1.491 . S
C1850 H1841 0.950 . S
C1850 C1849 1.398 . S
C1850 C1851 1.391 . S
C1851 H1839 0.950 . S
C1851 C1847 1.393 . S
C1851 C1850 1.391 . S
C1852 H1842 0.950 . S
C1852 C1853 1.386 . S
C1852 C1854 1.391 . S
C1853 C1852 1.386 . S
C1853 C1857 1.393 . S
C1854 H1843 0.950 . S
C1854 C1852 1.391 . S
C1854 C1855 1.400 . S
C1855 C1849 1.491 . S
C1855 C1854 1.400 . S
C1855 C1856 1.398 . S
C1856 H1844 0.950 . S
C1856 C1855 1.398 . S
C1856 C1857 1.391 . S
C1857 H1845 0.950 . S
C1857 C1853 1.393 . S
C1857 C1856 1.391 . S
H1858 C1866 0.950 . S
H1859 C1871 0.950 . S
H1860 C1868 0.950 . S
H1861 C1870 0.950 . S
H1862 C1872 0.950 . S
H1863 C1874 0.950 . S
H1864 C1876 0.950 . S
H1865 C1877 0.950 . S
C1866 H1858 0.950 . S
C1866 C1867 1.386 . S
C1866 C1868 1.391 . S
C1867 C1866 1.386 . S
C1867 C1871 1.393 . S
C1868 H1860 0.950 . S
C1868 C1866 1.391 . S
C1868 C1869 1.400 . S
C1869 C1868 1.400 . S
C1869 C1870 1.398 . S
C1869 C1875 1.491 . S
C1870 H1861 0.950 . S
C1870 C1869 1.398 . S
C1870 C1871 1.391 . S
C1871 H1859 0.950 . S
C1871 C1867 1.393 . S
C1871 C1870 1.391 . S
C1872 H1862 0.950 . S
C1872 C1873 1.386 . S
C1872 C1874 1.391 . S
C1873 C1872 1.386 . S
C1873 C1877 1.393 . S
C1874 H1863 0.950 . S
C1874 C1872 1.391 . S
C1874 C1875 1.400 . S
C1875 C1869 1.491 . S
C1875 C1874 1.400 . S
C1875 C1876 1.398 . S
C1876 H1864 0.950 . S
C1876 C1875 1.398 . S
C1876 C1877 1.391 . S
C1877 H1865 0.950 . S
C1877 C1873 1.393 . S
C1877 C1876 1.391 . S
H1878 C1886 0.950 . S
H1879 C1891 0.950 . S
H1880 C1888 0.950 . S
H1881 C1890 0.950 . S
H1882 C1892 0.950 . S
H1883 C1894 0.950 . S
H1884 C1896 0.950 . S
H1885 C1897 0.950 . S
C1886 H1878 0.950 . S
C1886 C1887 1.386 . S
C1886 C1888 1.391 1_545 S
C1887 C1886 1.386 . S
C1887 C1891 1.393 1_545 S
C1888 H1880 0.950 . S
C1888 C1886 1.391 1_565 S
C1888 C1889 1.400 . S
C1889 C1888 1.400 . S
C1889 C1890 1.398 . S
C1889 C1895 1.491 . S
C1890 H1881 0.950 . S
C1890 C1889 1.398 . S
C1890 C1891 1.391 . S
C1891 H1879 0.950 . S
C1891 C1887 1.393 1_565 S
C1891 C1890 1.391 . S
C1892 H1882 0.950 . S
C1892 C1893 1.386 . S
C1892 C1894 1.391 . S
C1893 C1892 1.386 . S
C1893 C1897 1.393 . S
C1894 H1883 0.950 . S
C1894 C1892 1.391 . S
C1894 C1895 1.400 . S
C1895 C1889 1.491 . S
C1895 C1894 1.400 . S
C1895 C1896 1.398 . S
C1896 H1884 0.950 . S
C1896 C1895 1.398 . S
C1896 C1897 1.391 . S
C1897 H1885 0.950 . S
C1897 C1893 1.393 . S
C1897 C1896 1.391 . S
H1898 C1906 0.950 . S
H1899 C1911 0.966 . S
H1900 C1908 0.950 . S
H1901 C1910 0.950 . S
H1902 C1912 0.950 . S
H1903 C1914 0.950 . S
H1904 C1916 0.950 . S
H1905 C1917 0.950 . S
C1906 H1898 0.950 . S
C1906 C1907 1.386 1_455 S
C1906 C1908 1.391 . S
C1907 C1906 1.386 1_655 S
C1907 C1911 1.393 . S
C1908 H1900 0.950 . S
C1908 C1906 1.391 . S
C1908 C1909 1.400 . S
C1909 C1908 1.400 . S
C1909 C1910 1.398 . S
C1909 C1915 1.491 . S
C1910 H1901 0.950 . S
C1910 C1909 1.398 . S
C1910 C1911 1.374 1_455 S
C1911 H1899 0.966 . S
C1911 C1907 1.393 . S
C1911 C1910 1.374 1_655 S
C1912 H1902 0.950 . S
C1912 C1913 1.386 . S
C1912 C1914 1.391 . S
C1913 C1912 1.386 . S
C1913 C1917 1.393 . S
C1914 H1903 0.950 . S
C1914 C1912 1.391 . S
C1914 C1915 1.400 . S
C1915 C1909 1.491 . S
C1915 C1914 1.400 . S
C1915 C1916 1.398 . S
C1916 H1904 0.950 . S
C1916 C1915 1.398 . S
C1916 C1917 1.391 . S
C1917 H1905 0.950 . S
C1917 C1913 1.393 . S
C1917 C1916 1.391 . S
H1918 C1926 0.950 . S
H1919 C1931 0.950 . S
H1920 C1928 0.950 . S
H1921 C1930 0.950 . S
H1922 C1932 0.950 . S
H1923 C1934 0.950 . S
H1924 C1936 0.950 . S
H1925 C1937 0.950 . S
C1926 H1918 0.950 . S
C1926 C1927 1.386 . S
C1926 C1928 1.391 . S
C1927 C1926 1.386 . S
C1927 C1931 1.393 . S
C1928 H1920 0.950 . S
C1928 C1926 1.391 . S
C1928 C1929 1.400 . S
C1929 C1928 1.400 . S
C1929 C1930 1.398 . S
C1929 C1935 1.491 . S
C1930 H1921 0.950 . S
C1930 C1929 1.398 . S
C1930 C1931 1.391 . S
C1931 H1919 0.950 . S
C1931 C1927 1.393 . S
C1931 C1930 1.391 . S
C1932 H1922 0.950 . S
C1932 C1933 1.386 . S
C1932 C1934 1.391 . S
C1933 C1932 1.386 . S
C1933 C1937 1.393 . S
C1934 H1923 0.950 . S
C1934 C1932 1.391 . S
C1934 C1935 1.400 . S
C1935 C1929 1.491 . S
C1935 C1934 1.400 . S
C1935 C1936 1.398 . S
C1936 H1924 0.950 . S
C1936 C1935 1.398 . S
C1936 C1937 1.391 . S
C1937 H1925 0.950 . S
C1937 C1933 1.393 . S
C1937 C1936 1.391 . S
H1938 C1946 0.950 . S
H1939 C1951 0.950 . S
H1940 C1948 0.950 . S
H1941 C1950 0.950 . S
H1942 C1952 0.950 . S
H1943 C1954 0.950 . S
H1944 C1956 0.950 . S
H1945 C1957 0.950 . S
C1946 H1938 0.950 . S
C1946 C1947 1.386 . S
C1946 C1948 1.391 . S
C1947 C1946 1.386 . S
C1947 C1951 1.393 . S
C1948 H1940 0.950 . S
C1948 C1946 1.391 . S
C1948 C1949 1.400 . S
C1949 C1948 1.400 . S
C1949 C1950 1.398 . S
C1949 C1955 1.491 . S
C1950 H1941 0.950 . S
C1950 C1949 1.398 . S
C1950 C1951 1.391 . S
C1951 H1939 0.950 . S
C1951 C1947 1.393 . S
C1951 C1950 1.391 . S
C1952 H1942 0.950 . S
C1952 C1953 1.386 . S
C1952 C1954 1.391 . S
C1953 C1952 1.386 . S
C1953 C1957 1.393 . S
C1954 H1943 0.950 . S
C1954 C1952 1.391 . S
C1954 C1955 1.400 . S
C1955 C1949 1.491 . S
C1955 C1954 1.400 . S
C1955 C1956 1.398 . S
C1956 H1944 0.950 . S
C1956 C1955 1.398 . S
C1956 C1957 1.391 . S
C1957 H1945 0.950 . S
C1957 C1953 1.393 . S
C1957 C1956 1.391 . S
H1958 C1966 0.950 . S
H1959 C1971 0.950 . S
H1960 C1968 0.950 . S
H1961 C1970 0.950 . S
H1962 C1972 0.950 . S
H1963 C1974 0.950 . S
H1964 C1976 0.950 . S
H1965 C1977 0.950 . S
C1966 H1958 0.950 . S
C1966 C1967 1.386 . S
C1966 C1968 1.391 . S
C1967 C1966 1.386 . S
C1967 C1971 1.393 . S
C1968 H1960 0.950 . S
C1968 C1966 1.391 . S
C1968 C1969 1.400 . S
C1969 C1968 1.400 . S
C1969 C1970 1.398 . S
C1969 C1975 1.491 . S
C1970 H1961 0.950 . S
C1970 C1969 1.398 . S
C1970 C1971 1.391 . S
C1971 H1959 0.950 . S
C1971 C1967 1.393 . S
C1971 C1970 1.391 . S
C1972 H1962 0.950 . S
C1972 C1973 1.386 . S
C1972 C1974 1.391 . S
C1973 C1972 1.386 . S
C1973 C1977 1.393 . S
C1974 H1963 0.950 . S
C1974 C1972 1.391 . S
C1974 C1975 1.400 . S
C1975 C1969 1.491 . S
C1975 C1974 1.400 . S
C1975 C1976 1.398 . S
C1976 H1964 0.950 . S
C1976 C1975 1.398 . S
C1976 C1977 1.391 . S
C1977 H1965 0.950 . S
C1977 C1973 1.393 . S
C1977 C1976 1.391 . S
H1978 C1986 0.950 . S
H1979 C1991 0.950 . S
H1980 C1988 0.950 . S
H1981 C1990 0.950 . S
H1982 C1992 0.950 . S
H1983 C1994 0.950 . S
H1984 C1996 0.950 . S
H1985 C1997 0.950 . S
C1986 H1978 0.950 . S
C1986 C1987 1.386 . S
C1986 C1988 1.391 . S
C1987 C1986 1.386 . S
C1987 C1991 1.393 . S
C1988 H1980 0.950 . S
C1988 C1986 1.391 . S
C1988 C1989 1.400 . S
C1989 C1988 1.400 . S
C1989 C1990 1.398 . S
C1989 C1995 1.491 . S
C1990 H1981 0.950 . S
C1990 C1989 1.398 . S
C1990 C1991 1.391 . S
C1991 H1979 0.950 . S
C1991 C1987 1.393 . S
C1991 C1990 1.391 . S
C1992 H1982 0.950 . S
C1992 C1993 1.386 . S
C1992 C1994 1.391 . S
C1993 C1992 1.386 . S
C1993 C1997 1.393 . S
C1994 H1983 0.950 . S
C1994 C1992 1.391 . S
C1994 C1995 1.400 . S
C1995 C1989 1.491 . S
C1995 C1994 1.400 . S
C1995 C1996 1.398 . S
C1996 H1984 0.950 . S
C1996 C1995 1.398 . S
C1996 C1997 1.391 . S
C1997 H1985 0.950 . S
C1997 C1993 1.393 . S
C1997 C1996 1.391 . S
H1998 C2006 0.950 . S
H1999 C2011 0.950 . S
H2000 C2008 0.950 . S
H2001 C2010 0.950 . S
H2002 C2012 0.950 . S
H2003 C2014 0.950 . S
H2004 C2016 0.950 . S
H2005 C2017 0.950 . S
C2006 H1998 0.950 . S
C2006 C2007 1.385 . S
C2006 C2008 1.392 1_565 S
C2007 C2006 1.385 . S
C2007 C2011 1.393 . S
C2008 H2000 0.950 . S
C2008 C2006 1.392 1_545 S
C2008 C2009 1.400 . S
C2009 C2008 1.400 . S
C2009 C2010 1.398 . S
C2009 C2015 1.491 . S
C2010 H2001 0.950 . S
C2010 C2009 1.398 . S
C2010 C2011 1.391 1_545 S
C2011 H1999 0.950 . S
C2011 C2007 1.393 . S
C2011 C2010 1.391 1_565 S
C2012 H2002 0.950 . S
C2012 C2013 1.386 . S
C2012 C2014 1.391 . S
C2013 C2012 1.386 . S
C2013 C2017 1.393 . S
C2014 H2003 0.950 . S
C2014 C2012 1.391 . S
C2014 C2015 1.400 . S
C2015 C2009 1.491 . S
C2015 C2014 1.400 . S
C2015 C2016 1.398 . S
C2016 H2004 0.950 . S
C2016 C2015 1.398 . S
C2016 C2017 1.391 . S
C2017 H2005 0.950 . S
C2017 C2013 1.393 . S
C2017 C2016 1.391 . S
H2018 C2026 0.950 . S
H2019 C2031 0.950 . S
H2020 C2028 0.950 . S
H2021 C2030 0.950 . S
H2022 C2032 0.950 . S
H2023 C2034 0.950 . S
H2024 C2036 0.950 . S
H2025 C2037 0.950 . S
C2026 H2018 0.950 . S
C2026 C2027 1.386 1_655 S
C2026 C2028 1.391 . S
C2027 C2026 1.386 1_455 S
C2027 C2031 1.393 . S
C2028 H2020 0.950 . S
C2028 C2026 1.391 . S
C2028 C2029 1.400 . S
C2029 C2028 1.400 . S
C2029 C2030 1.398 . S
C2029 C2035 1.491 . S
C2030 H2021 0.950 . S
C2030 C2029 1.398 . S
C2030 C2031 1.391 1_655 S
C2031 H2019 0.950 . S
C2031 C2027 1.393 . S
C2031 C2030 1.391 1_455 S
C2032 H2022 0.950 . S
C2032 C2033 1.386 . S
C2032 C2034 1.391 . S
C2033 C2032 1.386 . S
C2033 C2037 1.393 . S
C2034 H2023 0.950 . S
C2034 C2032 1.391 . S
C2034 C2035 1.400 . S
C2035 C2029 1.491 . S
C2035 C2034 1.400 . S
C2035 C2036 1.398 . S
C2036 H2024 0.950 . S
C2036 C2035 1.398 . S
C2036 C2037 1.391 . S
C2037 H2025 0.950 . S
C2037 C2033 1.393 . S
C2037 C2036 1.391 . S
H2038 C2046 0.950 . S
H2039 C2051 0.950 . S
H2040 C2048 0.950 . S
H2041 C2050 0.950 . S
H2042 C2052 0.950 . S
H2043 C2054 0.950 . S
H2044 C2056 0.950 . S
H2045 C2057 0.950 . S
C2046 H2038 0.950 . S
C2046 C2047 1.386 . S
C2046 C2048 1.391 . S
C2047 C2046 1.386 . S
C2047 C2051 1.393 . S
C2048 H2040 0.950 . S
C2048 C2046 1.391 . S
C2048 C2049 1.400 . S
C2049 C2048 1.400 . S
C2049 C2050 1.398 . S
C2049 C2055 1.491 . S
C2050 H2041 0.950 . S
C2050 C2049 1.398 . S
C2050 C2051 1.391 . S
C2051 H2039 0.950 . S
C2051 C2047 1.393 . S
C2051 C2050 1.391 . S
C2052 H2042 0.950 . S
C2052 C2053 1.386 . S
C2052 C2054 1.391 . S
C2053 C2052 1.386 . S
C2053 C2057 1.393 . S
C2054 H2043 0.950 . S
C2054 C2052 1.391 . S
C2054 C2055 1.400 . S
C2055 C2049 1.491 . S
C2055 C2054 1.400 . S
C2055 C2056 1.398 . S
C2056 H2044 0.950 . S
C2056 C2055 1.398 . S
C2056 C2057 1.391 . S
C2057 H2045 0.950 . S
C2057 C2053 1.393 . S
C2057 C2056 1.391 . S
H2058 C2066 0.950 . S
H2059 C2071 0.950 . S
H2060 C2068 0.950 . S
H2061 C2070 0.950 . S
H2062 C2072 0.950 . S
H2063 C2074 0.950 . S
H2064 C2076 0.950 . S
H2065 C2077 0.950 . S
C2066 H2058 0.950 . S
C2066 C2067 1.386 . S
C2066 C2068 1.391 1_455 S
C2067 C2066 1.386 . S
C2067 C2071 1.393 1_455 S
C2068 H2060 0.950 . S
C2068 C2066 1.391 1_655 S
C2068 C2069 1.400 . S
C2069 C2068 1.400 . S
C2069 C2070 1.398 . S
C2069 C2075 1.491 . S
C2070 H2061 0.950 . S
C2070 C2069 1.398 . S
C2070 C2071 1.391 . S
C2071 H2059 0.950 . S
C2071 C2067 1.393 1_655 S
C2071 C2070 1.391 . S
C2072 H2062 0.950 . S
C2072 C2073 1.386 . S
C2072 C2074 1.391 . S
C2073 C2072 1.386 . S
C2073 C2077 1.393 . S
C2074 H2063 0.950 . S
C2074 C2072 1.391 . S
C2074 C2075 1.400 . S
C2075 C2069 1.491 . S
C2075 C2074 1.400 . S
C2075 C2076 1.398 . S
C2076 H2064 0.950 . S
C2076 C2075 1.398 . S
C2076 C2077 1.391 . S
C2077 H2065 0.950 . S
C2077 C2073 1.393 . S
C2077 C2076 1.391 . S
H2078 C2086 0.950 . S
H2079 C2091 0.950 . S
H2080 C2088 0.950 . S
H2081 C2090 0.950 . S
H2082 C2092 0.950 . S
H2083 C2094 0.950 . S
H2084 C2096 0.950 . S
H2085 C2097 0.950 . S
C2086 H2078 0.950 . S
C2086 C2087 1.386 . S
C2086 C2088 1.391 . S
C2087 C2086 1.386 . S
C2087 C2091 1.393 . S
C2088 H2080 0.950 . S
C2088 C2086 1.391 . S
C2088 C2089 1.400 . S
C2089 C2088 1.400 . S
C2089 C2090 1.398 . S
C2089 C2095 1.491 . S
C2090 H2081 0.950 . S
C2090 C2089 1.398 . S
C2090 C2091 1.391 . S
C2091 H2079 0.950 . S
C2091 C2087 1.393 . S
C2091 C2090 1.391 . S
C2092 H2082 0.950 . S
C2092 C2093 1.386 . S
C2092 C2094 1.391 . S
C2093 C2092 1.386 . S
C2093 C2097 1.393 . S
C2094 H2083 0.950 . S
C2094 C2092 1.391 . S
C2094 C2095 1.400 . S
C2095 C2089 1.491 . S
C2095 C2094 1.400 . S
C2095 C2096 1.398 . S
C2096 H2084 0.950 . S
C2096 C2095 1.398 . S
C2096 C2097 1.391 . S
C2097 H2085 0.950 . S
C2097 C2093 1.393 . S
C2097 C2096 1.391 . S
H2098 C2106 0.950 . S
H2099 C2111 0.950 . S
H2100 C2108 0.950 . S
H2101 C2110 0.950 . S
H2102 C2112 0.950 . S
H2103 C2114 0.950 . S
H2104 C2116 0.950 . S
H2105 C2117 0.950 . S
C2106 H2098 0.950 . S
C2106 C2107 1.386 . S
C2106 C2108 1.391 1_565 S
C2107 C2106 1.386 . S
C2107 C2111 1.393 . S
C2108 H2100 0.950 . S
C2108 C2106 1.391 1_545 S
C2108 C2109 1.400 . S
C2109 C2108 1.400 . S
C2109 C2110 1.398 . S
C2109 C2115 1.491 . S
C2110 H2101 0.950 . S
C2110 C2109 1.398 . S
C2110 C2111 1.391 1_545 S
C2111 H2099 0.950 . S
C2111 C2107 1.393 . S
C2111 C2110 1.391 1_565 S
C2112 H2102 0.950 . S
C2112 C2113 1.386 . S
C2112 C2114 1.391 . S
C2113 C2112 1.386 . S
C2113 C2117 1.393 . S
C2114 H2103 0.950 . S
C2114 C2112 1.391 . S
C2114 C2115 1.400 . S
C2115 C2109 1.491 . S
C2115 C2114 1.400 . S
C2115 C2116 1.398 . S
C2116 H2104 0.950 . S
C2116 C2115 1.398 . S
C2116 C2117 1.391 . S
C2117 H2105 0.950 . S
C2117 C2113 1.393 . S
C2117 C2116 1.391 . S
H2118 C2126 0.950 . S
H2119 C2131 0.950 . S
H2120 C2128 0.950 . S
H2121 C2130 0.950 . S
H2122 C2132 0.950 . S
H2123 C2134 0.950 . S
H2124 C2136 0.950 . S
H2125 C2137 0.950 . S
C2126 H2118 0.950 . S
C2126 C2127 1.386 . S
C2126 C2128 1.391 . S
C2127 C2126 1.386 . S
C2127 C2131 1.393 . S
C2128 H2120 0.950 . S
C2128 C2126 1.391 . S
C2128 C2129 1.400 . S
C2129 C2128 1.400 . S
C2129 C2130 1.398 . S
C2129 C2135 1.491 . S
C2130 H2121 0.950 . S
C2130 C2129 1.398 . S
C2130 C2131 1.391 . S
C2131 H2119 0.950 . S
C2131 C2127 1.393 . S
C2131 C2130 1.391 . S
C2132 H2122 0.950 . S
C2132 C2133 1.386 . S
C2132 C2134 1.391 . S
C2133 C2132 1.386 . S
C2133 C2137 1.393 . S
C2134 H2123 0.950 . S
C2134 C2132 1.391 . S
C2134 C2135 1.400 . S
C2135 C2129 1.491 . S
C2135 C2134 1.400 . S
C2135 C2136 1.398 . S
C2136 H2124 0.950 . S
C2136 C2135 1.398 . S
C2136 C2137 1.391 . S
C2137 H2125 0.950 . S
C2137 C2133 1.393 . S
C2137 C2136 1.391 . S
H2138 C2146 0.950 . S
H2139 C2151 0.950 . S
H2140 C2148 0.950 . S
H2141 C2150 0.950 . S
H2142 C2152 0.950 . S
H2143 C2154 0.950 . S
H2144 C2156 0.950 . S
H2145 C2157 0.950 . S
C2146 H2138 0.950 . S
C2146 C2147 1.386 . S
C2146 C2148 1.391 . S
C2147 C2146 1.386 . S
C2147 C2151 1.393 . S
C2148 H2140 0.950 . S
C2148 C2146 1.391 . S
C2148 C2149 1.400 . S
C2149 C2148 1.400 . S
C2149 C2150 1.398 . S
C2149 C2155 1.491 . S
C2150 H2141 0.950 . S
C2150 C2149 1.398 . S
C2150 C2151 1.391 . S
C2151 H2139 0.950 . S
C2151 C2147 1.393 . S
C2151 C2150 1.391 . S
C2152 H2142 0.950 . S
C2152 C2153 1.386 . S
C2152 C2154 1.391 . S
C2153 C2152 1.386 . S
C2153 C2157 1.393 . S
C2154 H2143 0.950 . S
C2154 C2152 1.391 . S
C2154 C2155 1.400 . S
C2155 C2149 1.491 . S
C2155 C2154 1.400 . S
C2155 C2156 1.398 . S
C2156 H2144 0.950 . S
C2156 C2155 1.398 . S
C2156 C2157 1.391 . S
C2157 H2145 0.950 . S
C2157 C2153 1.393 . S
C2157 C2156 1.391 . S
H2158 C2166 0.950 . S
H2159 C2171 0.950 . S
H2160 C2168 0.950 . S
H2161 C2170 0.950 . S
H2162 C2172 0.950 . S
H2163 C2174 0.950 . S
H2164 C2176 0.950 . S
H2165 C2177 0.950 . S
C2166 H2158 0.950 . S
C2166 C2167 1.386 . S
C2166 C2168 1.391 . S
C2167 C2166 1.386 . S
C2167 C2171 1.393 . S
C2168 H2160 0.950 . S
C2168 C2166 1.391 . S
C2168 C2169 1.400 . S
C2169 C2168 1.400 . S
C2169 C2170 1.398 . S
C2169 C2175 1.491 . S
C2170 H2161 0.950 . S
C2170 C2169 1.398 . S
C2170 C2171 1.391 . S
C2171 H2159 0.950 . S
C2171 C2167 1.393 . S
C2171 C2170 1.391 . S
C2172 H2162 0.950 . S
C2172 C2173 1.386 . S
C2172 C2174 1.391 . S
C2173 C2172 1.386 . S
C2173 C2177 1.393 . S
C2174 H2163 0.950 . S
C2174 C2172 1.391 . S
C2174 C2175 1.400 . S
C2175 C2169 1.491 . S
C2175 C2174 1.400 . S
C2175 C2176 1.398 . S
C2176 H2164 0.950 . S
C2176 C2175 1.398 . S
C2176 C2177 1.391 . S
C2177 H2165 0.950 . S
C2177 C2173 1.393 . S
C2177 C2176 1.391 . S
H2178 C2186 0.950 . S
H2179 C2191 0.950 . S
H2180 C2188 0.950 . S
H2181 C2190 0.950 . S
H2182 C2192 0.950 1_545 S
H2183 C2194 0.950 . S
H2184 C2196 0.950 . S
H2185 C2197 0.950 . S
C2186 H2178 0.950 . S
C2186 C2187 1.386 . S
C2186 C2188 1.391 . S
C2187 C2186 1.386 . S
C2187 C2191 1.393 . S
C2188 H2180 0.950 . S
C2188 C2186 1.391 . S
C2188 C2189 1.400 . S
C2189 C2188 1.400 . S
C2189 C2190 1.398 . S
C2189 C2195 1.491 . S
C2190 H2181 0.950 . S
C2190 C2189 1.398 . S
C2190 C2191 1.391 . S
C2191 H2179 0.950 . S
C2191 C2187 1.393 . S
C2191 C2190 1.391 . S
C2192 H2182 0.950 1_565 S
C2192 C2193 1.386 . S
C2192 C2194 1.391 . S
C2193 C2192 1.386 . S
C2193 C2197 1.393 . S
C2194 H2183 0.950 . S
C2194 C2192 1.391 . S
C2194 C2195 1.400 . S
C2195 C2189 1.491 . S
C2195 C2194 1.400 . S
C2195 C2196 1.398 . S
C2196 H2184 0.950 . S
C2196 C2195 1.398 . S
C2196 C2197 1.391 . S
C2197 H2185 0.950 . S
C2197 C2193 1.393 . S
C2197 C2196 1.391 . S
H2198 C2206 0.950 . S
H2199 C2211 0.950 . S
H2200 C2208 0.950 . S
H2201 C2210 0.950 . S
H2202 C2212 0.950 1_655 S
H2203 C2214 0.950 . S
H2204 C2216 0.950 . S
H2205 C2217 0.950 . S
C2206 H2198 0.950 . S
C2206 C2207 1.386 . S
C2206 C2208 1.391 . S
C2207 C2206 1.386 . S
C2207 C2211 1.393 . S
C2208 H2200 0.950 . S
C2208 C2206 1.391 . S
C2208 C2209 1.400 . S
C2209 C2208 1.400 . S
C2209 C2210 1.398 . S
C2209 C2215 1.491 . S
C2210 H2201 0.950 . S
C2210 C2209 1.398 . S
C2210 C2211 1.391 . S
C2211 H2199 0.950 . S
C2211 C2207 1.393 . S
C2211 C2210 1.391 . S
C2212 H2202 0.950 1_455 S
C2212 C2213 1.386 . S
C2212 C2214 1.391 . S
C2213 C2212 1.386 . S
C2213 C2217 1.393 . S
C2214 H2203 0.950 . S
C2214 C2212 1.391 . S
C2214 C2215 1.400 . S
C2215 C2209 1.491 . S
C2215 C2214 1.400 . S
C2215 C2216 1.398 . S
C2216 H2204 0.950 . S
C2216 C2215 1.398 . S
C2216 C2217 1.391 . S
C2217 H2205 0.950 . S
C2217 C2213 1.393 . S
C2217 C2216 1.391 . S
H2218 C2226 0.950 . S
H2219 C2231 0.950 . S
H2220 C2228 0.950 . S
H2221 C2230 0.950 . S
H2222 C2232 0.950 . S
H2223 C2234 0.950 . S
H2224 C2236 0.950 . S
H2225 C2237 0.950 . S
C2226 H2218 0.950 . S
C2226 C2227 1.386 . S
C2226 C2228 1.391 . S
C2227 C2226 1.386 . S
C2227 C2231 1.393 . S
C2228 H2220 0.950 . S
C2228 C2226 1.391 . S
C2228 C2229 1.400 . S
C2229 C2228 1.400 . S
C2229 C2230 1.398 . S
C2229 C2235 1.491 . S
C2230 H2221 0.950 . S
C2230 C2229 1.398 . S
C2230 C2231 1.391 . S
C2231 H2219 0.950 . S
C2231 C2227 1.393 . S
C2231 C2230 1.391 . S
C2232 H2222 0.950 . S
C2232 C2233 1.386 . S
C2232 C2234 1.391 . S
C2233 C2232 1.386 . S
C2233 C2237 1.393 . S
C2234 H2223 0.950 . S
C2234 C2232 1.391 . S
C2234 C2235 1.400 . S
C2235 C2229 1.491 . S
C2235 C2234 1.400 . S
C2235 C2236 1.398 . S
C2236 H2224 0.950 . S
C2236 C2235 1.398 . S
C2236 C2237 1.391 . S
C2237 H2225 0.950 . S
C2237 C2233 1.393 . S
C2237 C2236 1.391 . S
H2238 C2246 0.950 . S
H2239 C2251 0.950 . S
H2240 C2248 0.950 . S
H2241 C2250 0.950 . S
H2242 C2252 0.950 . S
H2243 C2254 0.950 . S
H2244 C2256 0.950 1_455 S
H2245 C2257 0.950 1_455 S
C2246 H2238 0.950 . S
C2246 C2247 1.386 . S
C2246 C2248 1.391 . S
C2247 C2246 1.386 . S
C2247 C2251 1.393 . S
C2248 H2240 0.950 . S
C2248 C2246 1.391 . S
C2248 C2249 1.400 . S
C2249 C2248 1.400 . S
C2249 C2250 1.398 . S
C2249 C2255 1.491 . S
C2250 H2241 0.950 . S
C2250 C2249 1.398 . S
C2250 C2251 1.391 . S
C2251 H2239 0.950 . S
C2251 C2247 1.393 . S
C2251 C2250 1.391 . S
C2252 H2242 0.950 . S
C2252 C2253 1.386 . S
C2252 C2254 1.391 . S
C2253 C2252 1.386 . S
C2253 C2257 1.393 . S
C2254 H2243 0.950 . S
C2254 C2252 1.391 . S
C2254 C2255 1.400 . S
C2255 C2249 1.491 . S
C2255 C2254 1.400 . S
C2255 C2256 1.398 . S
C2256 H2244 0.950 1_655 S
C2256 C2255 1.398 . S
C2256 C2257 1.391 . S
C2257 H2245 0.950 1_655 S
C2257 C2253 1.393 . S
C2257 C2256 1.391 . S
H2258 C2266 0.950 . S
H2259 C2271 0.950 . S
H2260 C2268 0.950 . S
H2261 C2270 0.950 . S
H2262 C2272 0.950 . S
H2263 C2274 0.950 . S
H2264 C2276 0.950 . S
H2265 C2277 0.950 . S
C2266 H2258 0.950 . S
C2266 C2267 1.386 . S
C2266 C2268 1.391 . S
C2267 C2266 1.386 . S
C2267 C2271 1.393 . S
C2268 H2260 0.950 . S
C2268 C2266 1.391 . S
C2268 C2269 1.400 . S
C2269 C2268 1.400 . S
C2269 C2270 1.398 . S
C2269 C2275 1.491 . S
C2270 H2261 0.950 . S
C2270 C2269 1.398 . S
C2270 C2271 1.391 . S
C2271 H2259 0.950 . S
C2271 C2267 1.393 . S
C2271 C2270 1.391 . S
C2272 H2262 0.950 . S
C2272 C2273 1.386 . S
C2272 C2274 1.391 . S
C2273 C2272 1.386 . S
C2273 C2277 1.393 . S
C2274 H2263 0.950 . S
C2274 C2272 1.391 . S
C2274 C2275 1.400 . S
C2275 C2269 1.491 . S
C2275 C2274 1.400 . S
C2275 C2276 1.398 . S
C2276 H2264 0.950 . S
C2276 C2275 1.398 . S
C2276 C2277 1.391 . S
C2277 H2265 0.950 . S
C2277 C2273 1.393 . S
C2277 C2276 1.391 . S
H2278 C2286 0.950 . S
H2279 C2291 0.950 . S
H2280 C2288 0.950 . S
H2281 C2290 0.950 . S
H2282 C2292 0.950 . S
H2283 C2294 0.950 . S
H2284 C2296 0.950 . S
H2285 C2297 0.950 1_565 S
C2286 H2278 0.950 . S
C2286 C2287 1.386 . S
C2286 C2288 1.391 . S
C2287 C2286 1.386 . S
C2287 C2291 1.393 . S
C2288 H2280 0.950 . S
C2288 C2286 1.391 . S
C2288 C2289 1.400 . S
C2289 C2288 1.400 . S
C2289 C2290 1.398 . S
C2289 C2295 1.491 . S
C2290 H2281 0.950 . S
C2290 C2289 1.398 . S
C2290 C2291 1.391 . S
C2291 H2279 0.950 . S
C2291 C2287 1.393 . S
C2291 C2290 1.391 . S
C2292 H2282 0.950 . S
C2292 C2293 1.386 . S
C2292 C2294 1.391 . S
C2293 C2292 1.386 . S
C2293 C2297 1.393 . S
C2294 H2283 0.950 . S
C2294 C2292 1.391 . S
C2294 C2295 1.400 . S
C2295 C2289 1.491 . S
C2295 C2294 1.400 . S
C2295 C2296 1.398 . S
C2296 H2284 0.950 . S
C2296 C2295 1.398 . S
C2296 C2297 1.391 . S
C2297 H2285 0.950 1_545 S
C2297 C2293 1.393 . S
C2297 C2296 1.391 . S
H2298 C2306 0.950 . S
H2299 C2311 0.950 . S
H2300 C2308 0.950 . S
H2301 C2310 0.950 . S
H2302 C2312 0.950 . S
H2303 C2314 0.950 . S
H2304 C2316 0.950 . S
H2305 C2317 0.950 . S
C2306 H2298 0.950 . S
C2306 C2307 1.386 . S
C2306 C2308 1.391 . S
C2307 C2306 1.386 . S
C2307 C2311 1.393 . S
C2308 H2300 0.950 . S
C2308 C2306 1.391 . S
C2308 C2309 1.400 . S
C2309 C2308 1.400 . S
C2309 C2310 1.398 . S
C2309 C2315 1.491 . S
C2310 H2301 0.950 . S
C2310 C2309 1.398 . S
C2310 C2311 1.391 . S
C2311 H2299 0.950 . S
C2311 C2307 1.393 . S
C2311 C2310 1.391 . S
C2312 H2302 0.950 . S
C2312 C2313 1.386 . S
C2312 C2314 1.391 . S
C2313 C2312 1.386 . S
C2313 C2317 1.393 . S
C2314 H2303 0.950 . S
C2314 C2312 1.391 . S
C2314 C2315 1.400 . S
C2315 C2309 1.491 . S
C2315 C2314 1.400 . S
C2315 C2316 1.398 . S
C2316 H2304 0.950 . S
C2316 C2315 1.398 . S
C2316 C2317 1.391 . S
C2317 H2305 0.950 . S
C2317 C2313 1.393 . S
C2317 C2316 1.391 . S
H2318 C2326 0.950 . S
H2319 C2331 0.950 . S
H2320 C2328 0.950 . S
H2321 C2330 0.950 . S
H2322 C2332 0.950 . S
H2323 C2334 0.950 . S
H2324 C2336 0.950 . S
H2325 C2337 0.950 . S
C2326 H2318 0.950 . S
C2326 C2327 1.386 . S
C2326 C2328 1.391 . S
C2327 C2326 1.386 . S
C2327 C2331 1.393 . S
C2328 H2320 0.950 . S
C2328 C2326 1.391 . S
C2328 C2329 1.400 . S
C2329 C2328 1.400 . S
C2329 C2330 1.398 . S
C2329 C2335 1.491 . S
C2330 H2321 0.950 . S
C2330 C2329 1.398 . S
C2330 C2331 1.391 . S
C2331 H2319 0.950 . S
C2331 C2327 1.393 . S
C2331 C2330 1.391 . S
C2332 H2322 0.950 . S
C2332 C2333 1.386 . S
C2332 C2334 1.391 . S
C2333 C2332 1.386 . S
C2333 C2337 1.393 . S
C2334 H2323 0.950 . S
C2334 C2332 1.391 . S
C2334 C2335 1.400 . S
C2335 C2329 1.491 . S
C2335 C2334 1.400 . S
C2335 C2336 1.398 . S
C2336 H2324 0.950 . S
C2336 C2335 1.398 . S
C2336 C2337 1.391 . S
C2337 H2325 0.950 . S
C2337 C2333 1.393 . S
C2337 C2336 1.391 . S
H2338 C2346 0.950 . S
H2339 C2351 0.950 . S
H2340 C2348 0.950 . S
H2341 C2350 0.950 . S
H2342 C2352 0.950 . S
H2343 C2354 0.950 . S
H2344 C2356 0.950 . S
H2345 C2357 0.950 . S
C2346 H2338 0.950 . S
C2346 C2347 1.386 . S
C2346 C2348 1.391 . S
C2347 C2346 1.386 . S
C2347 C2351 1.393 . S
C2348 H2340 0.950 . S
C2348 C2346 1.391 . S
C2348 C2349 1.400 . S
C2349 C2348 1.400 . S
C2349 C2350 1.398 . S
C2349 C2355 1.491 . S
C2350 H2341 0.950 . S
C2350 C2349 1.398 . S
C2350 C2351 1.391 . S
C2351 H2339 0.950 . S
C2351 C2347 1.393 . S
C2351 C2350 1.391 . S
C2352 H2342 0.950 . S
C2352 C2353 1.386 . S
C2352 C2354 1.391 . S
C2353 C2352 1.386 . S
C2353 C2357 1.393 . S
C2354 H2343 0.950 . S
C2354 C2352 1.391 . S
C2354 C2355 1.400 . S
C2355 C2349 1.491 . S
C2355 C2354 1.400 . S
C2355 C2356 1.398 . S
C2356 H2344 0.950 . S
C2356 C2355 1.398 . S
C2356 C2357 1.391 . S
C2357 H2345 0.950 . S
C2357 C2353 1.393 . S
C2357 C2356 1.391 . S
H2358 C2366 0.950 . S
H2359 C2371 0.950 . S
H2360 C2368 0.950 . S
H2361 C2370 0.950 . S
H2362 C2372 0.950 . S
H2363 C2374 0.950 . S
H2364 C2376 0.950 . S
H2365 C2377 0.950 . S
C2366 H2358 0.950 . S
C2366 C2367 1.386 . S
C2366 C2368 1.391 . S
C2367 C2366 1.386 . S
C2367 C2371 1.393 . S
C2368 H2360 0.950 . S
C2368 C2366 1.391 . S
C2368 C2369 1.400 . S
C2369 C2368 1.400 . S
C2369 C2370 1.398 . S
C2369 C2375 1.491 . S
C2370 H2361 0.950 . S
C2370 C2369 1.398 . S
C2370 C2371 1.391 . S
C2371 H2359 0.950 . S
C2371 C2367 1.393 . S
C2371 C2370 1.391 . S
C2372 H2362 0.950 . S
C2372 C2373 1.386 . S
C2372 C2374 1.391 . S
C2373 C2372 1.386 . S
C2373 C2377 1.393 . S
C2374 H2363 0.950 . S
C2374 C2372 1.391 . S
C2374 C2375 1.400 . S
C2375 C2369 1.491 . S
C2375 C2374 1.400 . S
C2375 C2376 1.398 . S
C2376 H2364 0.950 . S
C2376 C2375 1.398 . S
C2376 C2377 1.391 . S
C2377 H2365 0.950 . S
C2377 C2373 1.393 . S
C2377 C2376 1.391 . S
H2378 C2386 0.950 . S
H2379 C2391 0.950 . S
H2380 C2388 0.950 . S
H2381 C2390 0.950 . S
H2382 C2392 0.950 . S
H2383 C2394 0.950 . S
H2384 C2396 0.950 . S
H2385 C2397 0.950 . S
C2386 H2378 0.950 . S
C2386 C2387 1.386 . S
C2386 C2388 1.391 . S
C2387 C2386 1.386 . S
C2387 C2391 1.393 . S
C2388 H2380 0.950 . S
C2388 C2386 1.391 . S
C2388 C2389 1.400 . S
C2389 C2388 1.400 . S
C2389 C2390 1.398 . S
C2389 C2395 1.491 . S
C2390 H2381 0.950 . S
C2390 C2389 1.398 . S
C2390 C2391 1.391 . S
C2391 H2379 0.950 . S
C2391 C2387 1.393 . S
C2391 C2390 1.391 . S
C2392 H2382 0.950 . S
C2392 C2393 1.386 . S
C2392 C2394 1.391 . S
C2393 C2392 1.386 . S
C2393 C2397 1.393 . S
C2394 H2383 0.950 . S
C2394 C2392 1.391 . S
C2394 C2395 1.400 . S
C2395 C2389 1.491 . S
C2395 C2394 1.400 . S
C2395 C2396 1.398 . S
C2396 H2384 0.950 . S
C2396 C2395 1.398 . S
C2396 C2397 1.391 . S
C2397 H2385 0.950 . S
C2397 C2393 1.393 . S
C2397 C2396 1.391 . S
H2398 C2406 0.950 . S
H2399 C2411 0.950 . S
H2400 C2408 0.950 . S
H2401 C2410 0.950 . S
H2402 C2412 0.950 . S
H2403 C2414 0.950 . S
H2404 C2416 0.950 . S
H2405 C2417 0.950 . S
C2406 H2398 0.950 . S
C2406 C2407 1.386 . S
C2406 C2408 1.391 . S
C2407 C2406 1.386 . S
C2407 C2411 1.393 . S
C2408 H2400 0.950 . S
C2408 C2406 1.391 . S
C2408 C2409 1.400 . S
C2409 C2408 1.400 . S
C2409 C2410 1.398 . S
C2409 C2415 1.491 . S
C2410 H2401 0.950 . S
C2410 C2409 1.398 . S
C2410 C2411 1.391 . S
C2411 H2399 0.950 . S
C2411 C2407 1.393 . S
C2411 C2410 1.391 . S
C2412 H2402 0.950 . S
C2412 C2413 1.386 . S
C2412 C2414 1.391 . S
C2413 C2412 1.386 . S
C2413 C2417 1.393 . S
C2414 H2403 0.950 . S
C2414 C2412 1.391 . S
C2414 C2415 1.400 . S
C2415 C2409 1.491 . S
C2415 C2414 1.400 . S
C2415 C2416 1.398 . S
C2416 H2404 0.950 . S
C2416 C2415 1.398 . S
C2416 C2417 1.391 . S
C2417 H2405 0.950 . S
C2417 C2413 1.393 . S
C2417 C2416 1.391 . S
H2418 C2426 0.950 . S
H2419 C2431 0.950 . S
H2420 C2428 0.950 . S
H2421 C2430 0.950 . S
H2422 C2432 0.950 . S
H2423 C2434 0.950 . S
H2424 C2436 0.950 . S
H2425 C2437 0.950 . S
C2426 H2418 0.950 . S
C2426 C2427 1.386 . S
C2426 C2428 1.391 . S
C2427 C2426 1.386 . S
C2427 C2431 1.393 . S
C2428 H2420 0.950 . S
C2428 C2426 1.391 . S
C2428 C2429 1.400 . S
C2429 C2428 1.400 . S
C2429 C2430 1.398 . S
C2429 C2435 1.491 . S
C2430 H2421 0.950 . S
C2430 C2429 1.398 . S
C2430 C2431 1.391 . S
C2431 H2419 0.950 . S
C2431 C2427 1.393 . S
C2431 C2430 1.391 . S
C2432 H2422 0.950 . S
C2432 C2433 1.386 . S
C2432 C2434 1.391 . S
C2433 C2432 1.386 . S
C2433 C2437 1.393 . S
C2434 H2423 0.950 . S
C2434 C2432 1.391 . S
C2434 C2435 1.400 . S
C2435 C2429 1.491 . S
C2435 C2434 1.400 . S
C2435 C2436 1.398 . S
C2436 H2424 0.950 . S
C2436 C2435 1.398 . S
C2436 C2437 1.391 . S
C2437 H2425 0.950 . S
C2437 C2433 1.393 . S
C2437 C2436 1.391 . S
H2438 C2446 0.950 . S
H2439 C2451 0.950 . S
H2440 C2448 0.950 . S
H2441 C2450 0.950 . S
H2442 C2452 0.950 . S
H2443 C2454 0.950 . S
H2444 C2456 0.950 . S
H2445 C2457 0.950 . S
C2446 H2438 0.950 . S
C2446 C2447 1.386 . S
C2446 C2448 1.391 . S
C2447 C2446 1.386 . S
C2447 C2451 1.393 . S
C2448 H2440 0.950 . S
C2448 C2446 1.391 . S
C2448 C2449 1.400 . S
C2449 C2448 1.400 . S
C2449 C2450 1.398 . S
C2449 C2455 1.491 . S
C2450 H2441 0.950 . S
C2450 C2449 1.398 . S
C2450 C2451 1.391 . S
C2451 H2439 0.950 . S
C2451 C2447 1.393 . S
C2451 C2450 1.391 . S
C2452 H2442 0.950 . S
C2452 C2453 1.386 . S
C2452 C2454 1.391 . S
C2453 C2452 1.386 . S
C2453 C2457 1.393 . S
C2454 H2443 0.950 . S
C2454 C2452 1.391 . S
C2454 C2455 1.400 . S
C2455 C2449 1.491 . S
C2455 C2454 1.400 . S
C2455 C2456 1.398 . S
C2456 H2444 0.950 . S
C2456 C2455 1.398 . S
C2456 C2457 1.391 . S
C2457 H2445 0.950 . S
C2457 C2453 1.393 . S
C2457 C2456 1.391 . S
H2458 C2466 0.950 . S
H2459 C2471 0.950 . S
H2460 C2468 0.950 . S
H2461 C2470 0.950 . S
H2462 C2472 0.950 . S
H2463 C2474 0.950 . S
H2464 C2476 0.950 . S
H2465 C2477 0.950 . S
C2466 H2458 0.950 . S
C2466 C2467 1.386 . S
C2466 C2468 1.391 . S
C2467 C2466 1.386 . S
C2467 C2471 1.393 . S
C2468 H2460 0.950 . S
C2468 C2466 1.391 . S
C2468 C2469 1.400 . S
C2469 C2468 1.400 . S
C2469 C2470 1.398 . S
C2469 C2475 1.491 . S
C2470 H2461 0.950 . S
C2470 C2469 1.398 . S
C2470 C2471 1.391 . S
C2471 H2459 0.950 . S
C2471 C2467 1.393 . S
C2471 C2470 1.391 . S
C2472 H2462 0.950 . S
C2472 C2473 1.386 . S
C2472 C2474 1.391 . S
C2473 C2472 1.386 . S
C2473 C2477 1.393 . S
C2474 H2463 0.950 . S
C2474 C2472 1.391 . S
C2474 C2475 1.400 . S
C2475 C2469 1.491 . S
C2475 C2474 1.400 . S
C2475 C2476 1.398 . S
C2476 H2464 0.950 . S
C2476 C2475 1.398 . S
C2476 C2477 1.391 . S
C2477 H2465 0.950 . S
C2477 C2473 1.393 . S
C2477 C2476 1.391 . S
H2478 C2486 0.950 . S
H2479 C2491 0.950 . S
H2480 C2488 0.950 . S
H2481 C2490 0.950 . S
H2482 C2492 0.950 . S
H2483 C2494 0.950 . S
H2484 C2496 0.950 . S
H2485 C2497 0.950 . S
C2486 H2478 0.950 . S
C2486 C2487 1.386 . S
C2486 C2488 1.391 . S
C2487 C2486 1.386 . S
C2487 C2491 1.393 . S
C2488 H2480 0.950 . S
C2488 C2486 1.391 . S
C2488 C2489 1.400 . S
C2489 C2488 1.400 . S
C2489 C2490 1.398 . S
C2489 C2495 1.491 . S
C2490 H2481 0.950 . S
C2490 C2489 1.398 . S
C2490 C2491 1.391 . S
C2491 H2479 0.950 . S
C2491 C2487 1.393 . S
C2491 C2490 1.391 . S
C2492 H2482 0.950 . S
C2492 C2493 1.386 . S
C2492 C2494 1.391 . S
C2493 C2492 1.386 . S
C2493 C2497 1.393 . S
C2494 H2483 0.950 . S
C2494 C2492 1.391 . S
C2494 C2495 1.400 . S
C2495 C2489 1.491 . S
C2495 C2494 1.400 . S
C2495 C2496 1.398 . S
C2496 H2484 0.950 . S
C2496 C2495 1.398 . S
C2496 C2497 1.391 . S
C2497 H2485 0.950 . S
C2497 C2493 1.393 . S
C2497 C2496 1.391 . S
H2498 C2506 0.950 . S
H2499 C2511 0.950 . S
H2500 C2508 0.950 . S
H2501 C2510 0.950 . S
H2502 C2512 0.950 . S
H2503 C2514 0.950 . S
H2504 C2516 0.950 . S
H2505 C2517 0.950 . S
C2506 H2498 0.950 . S
C2506 C2507 1.386 . S
C2506 C2508 1.391 . S
C2507 C2506 1.386 . S
C2507 C2511 1.393 . S
C2508 H2500 0.950 . S
C2508 C2506 1.391 . S
C2508 C2509 1.400 . S
C2509 C2508 1.400 . S
C2509 C2510 1.398 . S
C2509 C2515 1.491 . S
C2510 H2501 0.950 . S
C2510 C2509 1.398 . S
C2510 C2511 1.391 . S
C2511 H2499 0.950 . S
C2511 C2507 1.393 . S
C2511 C2510 1.391 . S
C2512 H2502 0.950 . S
C2512 C2513 1.386 . S
C2512 C2514 1.391 . S
C2513 C2512 1.386 . S
C2513 C2517 1.393 . S
C2514 H2503 0.950 . S
C2514 C2512 1.391 . S
C2514 C2515 1.400 . S
C2515 C2509 1.491 . S
C2515 C2514 1.400 . S
C2515 C2516 1.398 . S
C2516 H2504 0.950 . S
C2516 C2515 1.398 . S
C2516 C2517 1.391 . S
C2517 H2505 0.950 . S
C2517 C2513 1.393 . S
C2517 C2516 1.391 . S
H2518 C2526 0.950 . S
H2519 C2531 0.950 . S
H2520 C2528 0.950 . S
H2521 C2530 0.950 . S
H2522 C2532 0.950 . S
H2523 C2534 0.950 . S
H2524 C2536 0.950 . S
H2525 C2537 0.950 . S
C2526 H2518 0.950 . S
C2526 C2527 1.386 . S
C2526 C2528 1.391 . S
C2527 C2526 1.386 . S
C2527 C2531 1.393 . S
C2528 H2520 0.950 . S
C2528 C2526 1.391 . S
C2528 C2529 1.400 . S
C2529 C2528 1.400 . S
C2529 C2530 1.398 . S
C2529 C2535 1.491 . S
C2530 H2521 0.950 . S
C2530 C2529 1.398 . S
C2530 C2531 1.391 . S
C2531 H2519 0.950 . S
C2531 C2527 1.393 . S
C2531 C2530 1.391 . S
C2532 H2522 0.950 . S
C2532 C2533 1.386 . S
C2532 C2534 1.391 . S
C2533 C2532 1.386 . S
C2533 C2537 1.393 . S
C2534 H2523 0.950 . S
C2534 C2532 1.391 . S
C2534 C2535 1.400 . S
C2535 C2529 1.491 . S
C2535 C2534 1.400 . S
C2535 C2536 1.398 . S
C2536 H2524 0.950 . S
C2536 C2535 1.398 . S
C2536 C2537 1.391 . S
C2537 H2525 0.950 . S
C2537 C2533 1.393 . S
C2537 C2536 1.391 . S
C1467 C528 1.418 . S
C1473 C769 1.331 . S
C1487 C562 1.490 . S
C1493 C853 1.423 . S
C1507 C484 1.476 . S
C1513 C933 1.436 . S
C1527 C445 1.432 . S
C1533 C849 1.398 . S
C1553 C937 1.364 . S
C1547 C367 1.426 . S
C1567 C411 1.387 . S
C1573 C765 1.335 . S
C1593 C758 1.361 . S
C1587 C450 1.429 . S
C1613 C842 1.402 . S
C1607 C372 1.464 . S
C1627 C406 1.473 . S
C1633 C944 1.432 . S
C1647 C523 1.427 . S
C1653 C860 1.388 . S
C1667 C567 1.407 . S
C1673 C926 1.351 . S
C1693 C776 1.382 . S
C1687 C489 1.413 . S
C1713 C1021 1.334 . S
C1707 C60 1.417 . S
C1727 C94 1.484 . S
C1733 C1105 1.410 . S
C1747 C16 1.478 . S
C1753 C1185 1.442 . S
C1767 C679 1.433 . S
C1773 C1101 1.402 . S
C1787 C601 1.425 . S
C1793 C1189 1.366 . S
C1807 C645 1.397 . S
C1813 C1017 1.360 . S
C1827 C684 1.436 . S
C1833 C1010 1.349 . S
C1847 C606 1.465 . S
C1853 C1094 1.408 . S
C1873 C1196 1.415 . S
C1867 C640 1.465 . S
C1887 C55 1.423 . S
C1893 C1112 1.376 . S
C1913 C1178 1.335 . S
C1907 C99 1.409 . S
C1927 C21 1.412 . S
C1933 C1028 1.380 . S
C1953 C1273 1.357 . S
C1947 C294 1.417 . S
C1967 C328 1.489 . S
C1973 C1357 1.403 . S
C1993 C1437 1.432 . S
C1987 C250 1.472 . S
C2013 C1353 1.397 . S
C2007 C211 1.432 . S
C2033 C1441 1.334 . S
C2027 C133 1.423 . S
C2047 C177 1.396 . S
C2053 C1269 1.362 . S
C2067 C216 1.429 . S
C2073 C1262 1.363 . S
C2087 C138 1.467 . S
C2093 C1346 1.415 . S
C2113 C1448 1.421 . S
C2107 C172 1.466 . S
C2127 C289 1.427 . S
C2133 C1364 1.387 . S
C2147 C333 1.409 . S
C2153 C1430 1.336 . S
C2167 C255 1.400 . S
C2173 C1280 1.355 . S
C2187 C586 1.461 . S
C2193 C772 1.345 . S
C2213 C856 1.370 . S
C2207 C625 1.496 . S
C2227 C664 1.476 . S
C2233 C928 1.332 . S
C2247 C235 1.509 . S
C2253 C844 1.374 . S
C2267 C274 1.463 . S
C2273 C940 1.323 . S
C2293 C760 1.348 . S
C2287 C313 1.458 . S
C2307 C118 1.460 . S
C2313 C1024 1.357 . S
C2327 C157 1.495 . S
C2333 C1108 1.364 . S
C2347 C196 1.476 . S
C2353 C1180 1.351 . S
C2367 C469 1.512 . S
C2373 C1096 1.385 . S
C2393 C1192 1.349 . S
C2387 C508 1.462 . S
C2407 C547 1.459 . S
C2413 C1012 1.360 . S
C2427 C352 1.461 . S
C2433 C1276 1.359 . S
C2447 C391 1.495 . S
C2453 C1360 1.347 . S
C2473 C1432 1.324 . S
C2467 C430 1.475 . S
C2487 C1 1.509 . S
C2493 C1348 1.378 . S
C2507 C40 1.463 . S
C2513 C1444 1.335 . S
C2527 C79 1.460 . S
C2533 C1264 1.343 . S
