# Generated by pormake.
# Topology pyr, (3,6)-cn, num edge types: 1
# Building blocks:
#     Node 0, Type 0, BuildingBlock: MIDCAF_clean_linker_0, # of connection points: 3
#     Node 1, Type 0, BuildingBlock: MIDCAF_clean_linker_0, # of connection points: 3
#     Node 2, Type 0, BuildingBlock: MIDCAF_clean_linker_0, # of connection points: 3
#     Node 3, Type 0, BuildingBlock: MIDCAF_clean_linker_0, # of connection points: 3
#     Node 4, Type 0, BuildingBlock: MIDCAF_clean_linker_0, # of connection points: 3
#     Node 5, Type 0, BuildingBlock: MIDCAF_clean_linker_0, # of connection points: 3
#     Node 6, Type 0, BuildingBlock: MIDCAF_clean_linker_0, # of connection points: 3
#     Node 7, Type 0, BuildingBlock: MIDCAF_clean_linker_0, # of connection points: 3
#     Node 8, Type 1, BuildingBlock: MIFKUJ_clean_sbu_0, # of connection points: 6
#     Node 9, Type 1, BuildingBlock: MIFKUJ_clean_sbu_0, # of connection points: 6
#     Node 10, Type 1, BuildingBlock: MIFKUJ_clean_sbu_0, # of connection points: 6
#     Node 11, Type 1, BuildingBlock: MIFKUJ_clean_sbu_0, # of connection points: 6
#     Edge 12, Type (0, 1), BuildingBlock: TEMPAE_clean_linker_10, # of connection points: 2
#     Edge 13, Type (0, 1), BuildingBlock: TEMPAE_clean_linker_10, # of connection points: 2
#     Edge 14, Type (0, 1), BuildingBlock: TEMPAE_clean_linker_10, # of connection points: 2
#     Edge 15, Type (0, 1), BuildingBlock: TEMPAE_clean_linker_10, # of connection points: 2
#     Edge 16, Type (0, 1), BuildingBlock: TEMPAE_clean_linker_10, # of connection points: 2
#     Edge 17, Type (0, 1), BuildingBlock: TEMPAE_clean_linker_10, # of connection points: 2
#     Edge 18, Type (0, 1), BuildingBlock: TEMPAE_clean_linker_10, # of connection points: 2
#     Edge 19, Type (0, 1), BuildingBlock: TEMPAE_clean_linker_10, # of connection points: 2
#     Edge 20, Type (0, 1), BuildingBlock: TEMPAE_clean_linker_10, # of connection points: 2
#     Edge 21, Type (0, 1), BuildingBlock: TEMPAE_clean_linker_10, # of connection points: 2
#     Edge 22, Type (0, 1), BuildingBlock: TEMPAE_clean_linker_10, # of connection points: 2
#     Edge 23, Type (0, 1), BuildingBlock: TEMPAE_clean_linker_10, # of connection points: 2
#     Edge 24, Type (0, 1), BuildingBlock: TEMPAE_clean_linker_10, # of connection points: 2
#     Edge 25, Type (0, 1), BuildingBlock: TEMPAE_clean_linker_10, # of connection points: 2
#     Edge 26, Type (0, 1), BuildingBlock: TEMPAE_clean_linker_10, # of connection points: 2
#     Edge 27, Type (0, 1), BuildingBlock: TEMPAE_clean_linker_10, # of connection points: 2
#     Edge 28, Type (0, 1), BuildingBlock: TEMPAE_clean_linker_10, # of connection points: 2
#     Edge 29, Type (0, 1), BuildingBlock: TEMPAE_clean_linker_10, # of connection points: 2
#     Edge 30, Type (0, 1), BuildingBlock: TEMPAE_clean_linker_10, # of connection points: 2
#     Edge 31, Type (0, 1), BuildingBlock: TEMPAE_clean_linker_10, # of connection points: 2
#     Edge 32, Type (0, 1), BuildingBlock: TEMPAE_clean_linker_10, # of connection points: 2
#     Edge 33, Type (0, 1), BuildingBlock: TEMPAE_clean_linker_10, # of connection points: 2
#     Edge 34, Type (0, 1), BuildingBlock: TEMPAE_clean_linker_10, # of connection points: 2
#     Edge 35, Type (0, 1), BuildingBlock: TEMPAE_clean_linker_10, # of connection points: 2
# Relax obj value: 0.027
# Max RMSD: 0.080
# Mean RMSD: 0.047
data_MOF--net-pyr--node1-MIFKUJ_clean_sbu_0--node2-MIDCAF_clean_linker_0--edge1-TEMPAE_clean_linker_10
_symmetry_space_group_name_H-M    P1
_symmetry_Int_Tables_number       1
_symmetry_cell_setting            triclinic
loop_
_symmetry_equiv_pos_as_xyz
'x, y, z'
_cell_length_a     48.349755
_cell_length_b     43.407838
_cell_length_c     46.912597
_cell_angle_alpha  86.243635
_cell_angle_beta   88.448458
_cell_angle_gamma 95.966755
loop_
_atom_site_label
_atom_site_type_symbol
_atom_site_fract_x
_atom_site_fract_y
_atom_site_fract_z
_atom_type_partial_charge
C0 C 0.15192 0.16212 0.30311 0.0
C1 C 0.16458 0.13939 0.3191 0.0
C2 C 0.19234 0.13495 0.31263 0.0
C3 C 0.20678 0.15206 0.28956 0.0
H4 H 0.26415 0.13917 0.22612 0.0
H5 H 0.30042 0.11523 0.2014 0.0
H6 H 0.31064 0.1928 0.13824 0.0
H7 H 0.27427 0.21701 0.16288 0.0
H8 H 0.2187 0.25251 0.15254 0.0
H9 H 0.19037 0.28528 0.12391 0.0
H10 H 0.13194 0.28422 0.19531 0.0
H11 H 0.15985 0.25138 0.22387 0.0
H12 H 0.15566 0.19629 0.26811 0.0
H13 H 0.13061 0.16616 0.30797 0.0
H14 H 0.20247 0.1175 0.32476 0.0
H15 H 0.2279 0.14752 0.28447 0.0
N16 N 0.23094 0.18008 0.23528 0.0
N17 N 0.22988 0.21591 0.1957 0.0
N18 N 0.19566 0.21306 0.23231 0.0
C19 C 0.24226 0.19296 0.20985 0.0
C20 C 0.20659 0.22617 0.2069 0.0
C21 C 0.20769 0.19014 0.2467 0.0
C22 C 0.26613 0.17996 0.19639 0.0
C23 C 0.27426 0.15138 0.20715 0.0
C24 C 0.29492 0.13752 0.19292 0.0
C25 C 0.30809 0.15207 0.16783 0.0
C26 C 0.30082 0.18117 0.15762 0.0
C27 C 0.27992 0.19493 0.17168 0.0
C28 C 0.19144 0.24897 0.19044 0.0
C29 C 0.19998 0.25952 0.16227 0.0
C30 C 0.1838 0.27835 0.14586 0.0
C31 C 0.15878 0.28693 0.1573 0.0
C32 C 0.15085 0.27745 0.18578 0.0
C33 C 0.16699 0.25874 0.20217 0.0
C34 C 0.19377 0.17415 0.27288 0.0
C35 C 0.16638 0.17945 0.28036 0.0
C36 C 0.24478 0.89299 0.67316 0.0
C37 C 0.23161 0.87977 0.64986 0.0
C38 C 0.24345 0.8558 0.63682 0.0
C39 C 0.26801 0.84533 0.64678 0.0
H40 H 0.33152 0.79426 0.6238 0.0
H41 H 0.35345 0.7549 0.59915 0.0
H42 H 0.40807 0.74364 0.66951 0.0
H43 H 0.3862 0.78283 0.69435 0.0
H44 H 0.38999 0.83225 0.73968 0.0
H45 H 0.411 0.85215 0.78212 0.0
H46 H 0.34578 0.91214 0.79044 0.0
H47 H 0.32428 0.89189 0.74809 0.0
H48 H 0.27885 0.89315 0.70125 0.0
H49 H 0.23598 0.91131 0.6838 0.0
H50 H 0.23394 0.84543 0.6186 0.0
H51 H 0.27657 0.82689 0.63612 0.0
N52 N 0.31978 0.82582 0.6667 0.0
N53 N 0.35485 0.82663 0.70021 0.0
N54 N 0.31893 0.85852 0.70451 0.0
C55 C 0.34357 0.81532 0.67634 0.0
C56 C 0.34272 0.84825 0.7144 0.0
C57 C 0.30731 0.84738 0.68069 0.0
C58 C 0.35703 0.7917 0.66111 0.0
C59 C 0.3482 0.78344 0.63406 0.0
C60 C 0.36086 0.76104 0.61983 0.0
C61 C 0.38243 0.74625 0.63244 0.0
C62 C 0.39131 0.75451 0.65942 0.0
C63 C 0.37884 0.77708 0.67355 0.0
C64 C 0.35542 0.86047 0.74035 0.0
C65 C 0.38003 0.84968 0.75045 0.0
C66 C 0.39221 0.86122 0.77473 0.0
C67 C 0.38013 0.88384 0.78952 0.0
C68 C 0.35544 0.89454 0.7796 0.0
C69 C 0.34322 0.88301 0.75524 0.0
C70 C 0.28124 0.85853 0.67011 0.0
C71 C 0.26929 0.88245 0.68322 0.0
C72 C 0.62607 0.27202 0.89073 0.0
C73 C 0.61384 0.24823 0.87461 0.0
C74 C 0.616 0.25253 0.84455 0.0
C75 C 0.62979 0.27978 0.8311 0.0
H76 H 0.61627 0.34977 0.76761 0.0
H77 H 0.59698 0.37318 0.72533 0.0
H78 H 0.66473 0.44662 0.71999 0.0
H79 H 0.68452 0.42293 0.76254 0.0
H80 H 0.73279 0.42007 0.81142 0.0
H81 H 0.77658 0.43943 0.83216 0.0
H82 H 0.76103 0.37039 0.90286 0.0
H83 H 0.71779 0.3508 0.88223 0.0
H84 H 0.64988 0.31655 0.8903 0.0
H85 H 0.62433 0.2702 0.91384 0.0
H86 H 0.60751 0.23467 0.83124 0.0
H87 H 0.63119 0.28232 0.80796 0.0
N88 N 0.64904 0.34408 0.8084 0.0
N89 N 0.68646 0.38333 0.8072 0.0
N90 N 0.68104 0.34465 0.84494 0.0
C91 C 0.66299 0.37026 0.79531 0.0
C92 C 0.69567 0.37049 0.83205 0.0
C93 C 0.65786 0.33128 0.83321 0.0
C94 C 0.65199 0.38447 0.76875 0.0
C95 C 0.62724 0.37089 0.75757 0.0
C96 C 0.61599 0.38444 0.73332 0.0
C97 C 0.62912 0.41195 0.71943 0.0
C98 C 0.65415 0.42534 0.73016 0.0
C99 C 0.66543 0.4118 0.75461 0.0
C100 C 0.7217 0.38371 0.84497 0.0
C101 C 0.73865 0.40909 0.83144 0.0
C102 C 0.76371 0.42028 0.84339 0.0
C103 C 0.77242 0.4063 0.86908 0.0
C104 C 0.75522 0.38135 0.88281 0.0
C105 C 0.73026 0.37023 0.87096 0.0
C106 C 0.64245 0.30299 0.84735 0.0
C107 C 0.64055 0.29881 0.87726 0.0
C108 C 0.75647 0.62898 0.36686 0.0
C109 C 0.74181 0.6028 0.35615 0.0
C110 C 0.7541 0.58865 0.33354 0.0
C111 C 0.78035 0.60055 0.32184 0.0
H112 H 0.83881 0.59056 0.2571 0.0
H113 H 0.85953 0.56899 0.21597 0.0
H114 H 0.92952 0.63948 0.21558 0.0
H115 H 0.90918 0.6607 0.25708 0.0
H116 H 0.90691 0.71715 0.30075 0.0
H117 H 0.92998 0.76144 0.32388 0.0
H118 H 0.87537 0.73881 0.39828 0.0
H119 H 0.85243 0.69488 0.37547 0.0
H120 H 0.79323 0.66096 0.36429 0.0
H121 H 0.74782 0.6402 0.3845 0.0
H122 H 0.74325 0.56858 0.32463 0.0
H123 H 0.78911 0.58914 0.3044 0.0
N124 N 0.83436 0.62813 0.29717 0.0
N125 N 0.87376 0.66458 0.29864 0.0
N126 N 0.83732 0.66363 0.33276 0.0
C127 C 0.85979 0.64041 0.28607 0.0
C128 C 0.86267 0.67623 0.3221 0.0
C129 C 0.82294 0.63971 0.3205 0.0
C130 C 0.87226 0.62744 0.26061 0.0
C131 C 0.85862 0.60154 0.24831 0.0
C132 C 0.87046 0.58921 0.22454 0.0
C133 C 0.89625 0.60243 0.21236 0.0
C134 C 0.90984 0.62837 0.2246 0.0
C135 C 0.89804 0.64069 0.24837 0.0
C136 C 0.87772 0.70245 0.33616 0.0
C137 C 0.89997 0.72151 0.32211 0.0
C138 C 0.91311 0.74695 0.33529 0.0
C139 C 0.90457 0.75354 0.36295 0.0
C140 C 0.8827 0.73414 0.37712 0.0
C141 C 0.86939 0.70905 0.36388 0.0
C142 C 0.79501 0.62677 0.33262 0.0
C143 C 0.78268 0.64076 0.35532 0.0
C144 C 0.71779 0.87464 0.8271 0.0
C145 C 0.70435 0.85946 0.85181 0.0
C146 C 0.71098 0.82977 0.86102 0.0
C147 C 0.73113 0.81577 0.84609 0.0
H148 H 0.79394 0.75966 0.86225 0.0
H149 H 0.82062 0.72281 0.88791 0.0
H150 H 0.86458 0.70831 0.80941 0.0
H151 H 0.83792 0.74515 0.7835 0.0
H152 H 0.83399 0.79361 0.72969 0.0
H153 H 0.85821 0.82043 0.68745 0.0
H154 H 0.8146 0.90073 0.69948 0.0
H155 H 0.7903 0.87409 0.7418 0.0
H156 H 0.74785 0.87304 0.79317 0.0
H157 H 0.71281 0.89743 0.8194 0.0
H158 H 0.70098 0.81765 0.8801 0.0
H159 H 0.73603 0.79302 0.85394 0.0
N160 N 0.77854 0.79251 0.81901 0.0
N161 N 0.80938 0.79253 0.77963 0.0
N162 N 0.77705 0.82914 0.78024 0.0
C163 C 0.79973 0.78018 0.80579 0.0
C164 C 0.79813 0.81696 0.76668 0.0
C165 C 0.76698 0.81687 0.80631 0.0
C166 C 0.8139 0.75555 0.82082 0.0
C167 C 0.80905 0.74842 0.85032 0.0
C168 C 0.82445 0.72748 0.8651 0.0
C169 C 0.8448 0.713 0.85065 0.0
C170 C 0.84895 0.71914 0.82101 0.0
C171 C 0.83374 0.74032 0.80624 0.0
C172 C 0.8104 0.8318 0.7393 0.0
C173 C 0.8293 0.81685 0.72319 0.0
C174 C 0.84305 0.8321 0.6989 0.0
C175 C 0.83835 0.86267 0.69037 0.0
C176 C 0.81874 0.87724 0.7058 0.0
C177 C 0.80476 0.86189 0.72994 0.0
C178 C 0.74482 0.83107 0.82148 0.0
C179 C 0.73772 0.86055 0.812 0.0
C180 C 0.65719 0.10487 0.2303 0.0
C181 C 0.63194 0.11434 0.22063 0.0
C182 C 0.6195 0.13697 0.23502 0.0
C183 C 0.63179 0.14967 0.25871 0.0
H184 H 0.62472 0.21901 0.31218 0.0
H185 H 0.60161 0.25775 0.33652 0.0
H186 H 0.65517 0.24775 0.40795 0.0
H187 H 0.67832 0.20898 0.38383 0.0
H188 H 0.73577 0.18232 0.37004 0.0
H189 H 0.77831 0.166 0.38949 0.0
H190 H 0.77674 0.09318 0.33087 0.0
H191 H 0.73428 0.10992 0.31078 0.0
H192 H 0.68891 0.10965 0.26119 0.0
H193 H 0.66719 0.08735 0.21968 0.0
H194 H 0.60031 0.14519 0.22776 0.0
H195 H 0.62147 0.16706 0.26916 0.0
N196 N 0.65674 0.17516 0.30773 0.0
N197 N 0.69186 0.17843 0.34103 0.0
N198 N 0.69379 0.1446 0.30419 0.0
C199 C 0.6677 0.18762 0.33121 0.0
C200 C 0.7051 0.15703 0.32766 0.0
C201 C 0.66956 0.15362 0.29409 0.0
C202 C 0.65343 0.2109 0.34602 0.0
C203 C 0.63154 0.22495 0.33311 0.0
C204 C 0.61836 0.24723 0.34696 0.0
C205 C 0.6266 0.25566 0.3741 0.0
C206 C 0.64824 0.24142 0.38715 0.0
C207 C 0.66161 0.21938 0.37321 0.0
C208 C 0.73144 0.14733 0.3389 0.0
C209 C 0.74441 0.16283 0.36118 0.0
C210 C 0.76879 0.15341 0.37247 0.0
C211 C 0.78079 0.12816 0.36189 0.0
C212 C 0.76813 0.11291 0.33931 0.0
C213 C 0.74371 0.12242 0.3279 0.0
C214 C 0.65693 0.14011 0.26866 0.0
C215 C 0.66955 0.11758 0.25414 0.0
C216 C 0.24328 0.58931 0.17053 0.0
C217 C 0.23201 0.60557 0.1474 0.0
C218 C 0.24643 0.63371 0.13622 0.0
C219 C 0.27146 0.64527 0.14769 0.0
H220 H 0.32632 0.72692 0.1504 0.0
H221 H 0.35079 0.77467 0.12741 0.0
H222 H 0.42929 0.7446 0.15283 0.0
H223 H 0.4049 0.69707 0.17649 0.0
H224 H 0.39779 0.65266 0.23604 0.0
H225 H 0.41848 0.62827 0.277 0.0
H226 H 0.34606 0.56109 0.2893 0.0
H227 H 0.32484 0.58594 0.24827 0.0
H228 H 0.2765 0.58773 0.19979 0.0
H229 H 0.23256 0.56771 0.17987 0.0
H230 H 0.23863 0.64664 0.11816 0.0
H231 H 0.28192 0.66694 0.13822 0.0
N232 N 0.32378 0.66795 0.16979 0.0
N233 N 0.36026 0.66381 0.20111 0.0
N234 N 0.32159 0.62607 0.20438 0.0
C235 C 0.34888 0.6793 0.17908 0.0
C236 C 0.34676 0.63731 0.21406 0.0
C237 C 0.31001 0.64129 0.1821 0.0
C238 C 0.36369 0.70824 0.16526 0.0
C239 C 0.34879 0.73049 0.15114 0.0
C240 C 0.36273 0.75785 0.13811 0.0
C241 C 0.39185 0.76317 0.13842 0.0
C242 C 0.40681 0.7409 0.15229 0.0
C243 C 0.39284 0.71383 0.16589 0.0
C244 C 0.35952 0.62136 0.23871 0.0
C245 C 0.38615 0.63264 0.2473 0.0
C246 C 0.39819 0.6185 0.27078 0.0
C247 C 0.38403 0.59261 0.28641 0.0
C248 C 0.35745 0.58115 0.27785 0.0
C249 C 0.34535 0.59531 0.25422 0.0
C250 C 0.2829 0.629 0.1707 0.0
C251 C 0.26842 0.6009 0.18207 0.0
C252 C 0.14507 0.24045 0.64206 0.0
C253 C 0.11611 0.23299 0.64453 0.0
C254 C 0.10017 0.252 0.65998 0.0
C255 C 0.11305 0.2778 0.67288 0.0
H256 H 0.10185 0.35183 0.73006 0.0
H257 H 0.08083 0.37642 0.76929 0.0
H258 H 0.16285 0.40597 0.79851 0.0
H259 H 0.18359 0.3831 0.75832 0.0
H260 H 0.22819 0.40162 0.69974 0.0
H261 H 0.27349 0.42342 0.67924 0.0
H262 H 0.27197 0.34956 0.62179 0.0
H263 H 0.22703 0.32744 0.64244 0.0
H264 H 0.18024 0.27136 0.65197 0.0
H265 H 0.15787 0.22644 0.63006 0.0
H266 H 0.0778 0.24673 0.66229 0.0
H267 H 0.10026 0.29199 0.68466 0.0
N268 N 0.14376 0.32661 0.70459 0.0
N269 N 0.18336 0.36273 0.70649 0.0
N270 N 0.18204 0.32484 0.67312 0.0
C271 C 0.15739 0.35135 0.71664 0.0
C272 C 0.19577 0.34974 0.68457 0.0
C273 C 0.15614 0.31307 0.68291 0.0
C274 C 0.1444 0.36562 0.74093 0.0
C275 C 0.11534 0.36367 0.74486 0.0
C276 C 0.10329 0.37765 0.76757 0.0
C277 C 0.11999 0.39342 0.78736 0.0
C278 C 0.14912 0.39485 0.78351 0.0
C279 C 0.16111 0.38147 0.76049 0.0
C280 C 0.22379 0.36274 0.67278 0.0
C281 C 0.23752 0.38991 0.68283 0.0
C282 C 0.26346 0.40255 0.67094 0.0
C283 C 0.27637 0.3883 0.6488 0.0
C284 C 0.2628 0.36096 0.63902 0.0
C285 C 0.23687 0.34837 0.65081 0.0
C286 C 0.14206 0.28541 0.6701 0.0
C287 C 0.15785 0.26637 0.6545 0.0
Zn288 Zn 0.02981 0.98725 0.52161 0.0
Zn289 Zn 0.97851 0.00423 0.48393 0.0
C290 C 0.0539 0.04785 0.53448 0.0
O291 O 0.07349 0.04034 0.51709 0.0
C292 C 0.95497 0.9468 0.46637 0.0
O293 O 0.93358 0.95775 0.47856 0.0
O294 O 0.06078 0.96596 0.5388 0.0
O295 O 0.99439 0.96129 0.53499 0.0
O296 O 0.9661 0.99687 0.52505 0.0
C297 C 0.06172 0.96156 0.56577 0.0
O298 O 0.04174 0.97031 0.58193 0.0
O299 O 0.03205 0.02899 0.53936 0.0
C300 C 0.94866 0.05264 0.45607 0.0
O301 O 0.9707 0.07162 0.46106 0.0
O302 O 0.94788 0.02405 0.46418 0.0
O303 O 0.01381 0.03184 0.47402 0.0
O304 O 0.03959 0.99338 0.47947 0.0
O305 O 0.9787 0.96255 0.4665 0.0
C306 C 0.97161 0.97262 0.53946 0.0
C307 C 0.03553 0.01948 0.46748 0.0
Zn308 Zn 0.52275 0.98628 0.99295 0.0
Zn309 Zn 0.4821 0.02262 0.0188 0.0
C310 C 0.48489 0.94887 0.96128 0.0
O311 O 0.49645 0.92715 0.97606 0.0
C312 C 0.52238 0.05659 0.05051 0.0
O313 O 0.51107 0.07951 0.03723 0.0
O314 O 0.5542 0.96413 0.97874 0.0
O315 O 0.53643 0.03171 0.98696 0.0
O316 O 0.49439 0.0457 0.9813 0.0
C317 C 0.56021 0.96888 0.95216 0.0
O318 O 0.54631 0.98798 0.93672 0.0
O319 O 0.49232 0.97715 0.96532 0.0
C320 C 0.44706 0.0397 0.06265 0.0
O321 O 0.46149 0.02041 0.0772 0.0
O322 O 0.45167 0.04437 0.03583 0.0
O323 O 0.46772 0.97727 0.0208 0.0
O324 O 0.50942 0.96593 0.03173 0.0
O325 O 0.51376 0.02886 0.04557 0.0
C326 C 0.5205 0.05065 0.97638 0.0
C327 C 0.48318 0.95934 0.03366 0.0
Zn328 Zn 0.51855 0.47668 0.48606 0.0
Zn329 Zn 0.49495 0.52808 0.51975 0.0
C330 C 0.55542 0.51097 0.44409 0.0
O331 O 0.53773 0.49633 0.42752 0.0
C332 C 0.45896 0.49135 0.5608 0.0
O333 O 0.47601 0.50644 0.57768 0.0
O334 O 0.52691 0.43708 0.46963 0.0
O335 O 0.52124 0.46835 0.52873 0.0
O336 O 0.5308 0.51733 0.53728 0.0
C337 C 0.5513 0.42948 0.47336 0.0
O338 O 0.5685 0.447 0.48824 0.0
O339 O 0.55086 0.50776 0.47103 0.0
C340 C 0.46031 0.57349 0.53326 0.0
O341 O 0.44359 0.5555 0.5183 0.0
O342 O 0.48504 0.56688 0.5368 0.0
O343 O 0.4929 0.53716 0.4771 0.0
O344 O 0.4829 0.48825 0.46863 0.0
O345 O 0.46348 0.49544 0.53389 0.0
C346 C 0.53316 0.48885 0.54369 0.0
C347 C 0.48095 0.51677 0.46204 0.0
Zn348 Zn 0.99336 0.52535 0.97766 0.0
Zn349 Zn 0.02376 0.47834 0.02165 0.0
C350 C 0.95703 0.48829 0.94574 0.0
O351 O 0.97487 0.50246 0.92632 0.0
C352 C 0.05609 0.51356 0.05938 0.0
O353 O 0.03695 0.49816 0.07676 0.0
O354 O 0.9804 0.56248 0.95641 0.0
O355 O 0.99502 0.53722 0.01868 0.0
O356 O 0.98687 0.48948 0.03746 0.0
C357 C 0.95607 0.56779 0.96429 0.0
O358 O 0.94345 0.55069 0.98593 0.0
O359 O 0.96133 0.49241 0.97196 0.0
C360 C 0.04078 0.41649 0.03534 0.0
O361 O 0.04048 0.41364 0.00766 0.0
O362 O 0.03283 0.44072 0.04538 0.0
O363 O 0.02956 0.46882 0.98019 0.0
O364 O 0.02725 0.51399 0.95625 0.0
O365 O 0.05435 0.5106 0.03263 0.0
C366 C 0.98454 0.51823 0.0388 0.0
C367 C 0.03463 0.48668 0.95766 0.0
C368 C 0.1224 0.10423 0.33501 0.0
C369 C 0.14816 0.1195 0.34154 0.0
C370 C 0.10563 0.08653 0.35614 0.0
C371 C 0.11473 0.08445 0.38454 0.0
C372 C 0.14105 0.09928 0.39116 0.0
C373 C 0.15762 0.1165 0.36943 0.0
C374 C 0.07788 0.07067 0.34817 0.0
C375 C 0.15123 0.09781 0.4213 0.0
C376 C 0.05636 0.06811 0.44056 0.0
C377 C 0.05663 0.03619 0.44719 0.0
C378 C 0.0759 0.08432 0.42099 0.0
C379 C 0.0959 0.0681 0.40743 0.0
C380 C 0.09661 0.03598 0.41439 0.0
C381 C 0.07704 0.02041 0.43439 0.0
C382 C 0.07475 0.11869 0.41438 0.0
C383 C 0.11745 0.0179 0.40007 0.0
H384 H 0.11532 0.10628 0.31329 0.0
H385 H 0.17755 0.12844 0.37438 0.0
H386 H 0.07618 0.04562 0.35522 0.0
H387 H 0.0608 0.08087 0.35926 0.0
H388 H 0.07472 0.07298 0.32479 0.0
H389 H 0.17278 0.10921 0.42259 0.0
H390 H 0.13727 0.10941 0.43532 0.0
H391 H 0.15061 0.07331 0.42988 0.0
H392 H 0.04085 0.08049 0.45069 0.0
H393 H 0.07733 0.99573 0.4395 0.0
H394 H 0.06925 0.12306 0.39177 0.0
H395 H 0.09546 0.13156 0.4171 0.0
H396 H 0.05921 0.12823 0.42827 0.0
H397 H 0.11366 0.01789 0.37684 0.0
H398 H 0.11625 0.99345 0.40904 0.0
H399 H 0.13888 0.0291 0.40238 0.0
C400 C 0.42231 0.90324 0.81532 0.0
C401 C 0.39337 0.89605 0.81522 0.0
C402 C 0.43543 0.91316 0.83987 0.0
C403 C 0.4192 0.91606 0.86492 0.0
C404 C 0.3899 0.90965 0.86478 0.0
C405 C 0.37731 0.89969 0.83989 0.0
C406 C 0.46675 0.91993 0.83915 0.0
C407 C 0.37195 0.91254 0.89111 0.0
C408 C 0.45826 0.90929 0.93355 0.0
C409 C 0.46552 0.94056 0.93849 0.0
C410 C 0.44222 0.90099 0.91026 0.0
C411 C 0.43321 0.92452 0.89151 0.0
C412 C 0.43941 0.95609 0.89709 0.0
C413 C 0.45552 0.96376 0.92055 0.0
C414 C 0.43595 0.86704 0.90504 0.0
C415 C 0.43 0.98181 0.87764 0.0
H416 H 0.43476 0.90099 0.79615 0.0
H417 H 0.35494 0.89392 0.83998 0.0
H418 H 0.47273 0.94384 0.84543 0.0
H419 H 0.47569 0.90377 0.85481 0.0
H420 H 0.47623 0.91752 0.81768 0.0
H421 H 0.3494 0.90857 0.88696 0.0
H422 H 0.37686 0.8954 0.90833 0.0
H423 H 0.37644 0.93594 0.89917 0.0
H424 H 0.46573 0.89122 0.94743 0.0
H425 H 0.46094 0.98798 0.92432 0.0
H426 H 0.44678 0.86207 0.88495 0.0
H427 H 0.41333 0.86125 0.90234 0.0
H428 H 0.44269 0.85158 0.92276 0.0
H429 H 0.44088 0.98239 0.85646 0.0
H430 H 0.43434 0.00494 0.88637 0.0
H431 H 0.40737 0.97747 0.87416 0.0
C432 C 0.63274 0.43744 0.66948 0.0
C433 C 0.61641 0.42639 0.69393 0.0
C434 C 0.62053 0.44923 0.64472 0.0
C435 C 0.59132 0.45012 0.64446 0.0
C436 C 0.57486 0.43981 0.66935 0.0
C437 C 0.58758 0.4281 0.69372 0.0
C438 C 0.63879 0.45994 0.6186 0.0
C439 C 0.54369 0.44055 0.67007 0.0
C440 C 0.55887 0.50113 0.58812 0.0
C441 C 0.54897 0.47936 0.56896 0.0
C442 C 0.57312 0.49209 0.61253 0.0
C443 C 0.57769 0.46055 0.61786 0.0
C444 C 0.56819 0.43859 0.59832 0.0
C445 C 0.55392 0.44823 0.57419 0.0
C446 C 0.58284 0.51618 0.63288 0.0
C447 C 0.57271 0.40476 0.60314 0.0
H448 H 0.65499 0.43599 0.6694 0.0
H449 H 0.57488 0.42012 0.71269 0.0
H450 H 0.63322 0.4449 0.60094 0.0
H451 H 0.63529 0.48397 0.61118 0.0
H452 H 0.66125 0.45928 0.62272 0.0
H453 H 0.53401 0.43292 0.69146 0.0
H454 H 0.53851 0.46438 0.66411 0.0
H455 H 0.53423 0.42516 0.65419 0.0
H456 H 0.55516 0.52523 0.58429 0.0
H457 H 0.54653 0.43125 0.55945 0.0
H458 H 0.60549 0.51617 0.63601 0.0
H459 H 0.57218 0.5104 0.65409 0.0
H460 H 0.57864 0.53992 0.62513 0.0
H461 H 0.59517 0.40241 0.60554 0.0
H462 H 0.56507 0.39087 0.58533 0.0
H463 H 0.56173 0.39479 0.62325 0.0
C464 C 0.93767 0.58697 0.18507 0.0
C465 C 0.90892 0.58925 0.18703 0.0
C466 C 0.94992 0.57493 0.16123 0.0
C467 C 0.93307 0.5648 0.1387 0.0
C468 C 0.90403 0.56682 0.1406 0.0
C469 C 0.89234 0.57902 0.16466 0.0
C470 C 0.98096 0.57317 0.1601 0.0
C471 C 0.88532 0.55636 0.11705 0.0
C472 C 0.96778 0.56162 0.06519 0.0
C473 C 0.97093 0.52989 0.06423 0.0
C474 C 0.95543 0.57321 0.08918 0.0
C475 C 0.94592 0.55265 0.11292 0.0
C476 C 0.94888 0.52057 0.11207 0.0
C477 C 0.96132 0.50959 0.08778 0.0
C478 C 0.9527 0.60755 0.08916 0.0
C479 C 0.939 0.49786 0.13691 0.0
H480 H 0.95065 0.59433 0.20237 0.0
H481 H 0.87018 0.58103 0.16571 0.0
H482 H 0.98537 0.54884 0.15795 0.0
H483 H 0.99053 0.58718 0.14105 0.0
H484 H 0.99113 0.58171 0.17945 0.0
H485 H 0.86308 0.55877 0.12204 0.0
H486 H 0.89167 0.57023 0.09679 0.0
H487 H 0.88742 0.53171 0.11336 0.0
H488 H 0.97505 0.57754 0.04714 0.0
H489 H 0.96366 0.48506 0.08732 0.0
H490 H 0.96415 0.6175 0.10717 0.0
H491 H 0.93053 0.61139 0.09235 0.0
H492 H 0.96088 0.62042 0.06892 0.0
H493 H 0.94999 0.5044 0.15643 0.0
H494 H 0.94255 0.47364 0.13283 0.0
H495 H 0.91645 0.49871 0.14138 0.0
C496 C 0.32222 0.10521 0.14563 0.0
C497 C 0.32858 0.13626 0.15178 0.0
C498 C 0.34126 0.08975 0.13042 0.0
C499 C 0.36739 0.10567 0.12144 0.0
C500 C 0.37391 0.13707 0.12753 0.0
C501 C 0.3543 0.15209 0.14249 0.0
C502 C 0.33343 0.05638 0.12401 0.0
C503 C 0.40172 0.15463 0.11857 0.0
C504 C 0.42573 0.05611 0.10745 0.0
C505 C 0.4266 0.05657 0.07753 0.0
C506 C 0.4068 0.07236 0.12199 0.0
C507 C 0.38808 0.08917 0.10621 0.0
C508 C 0.38879 0.08969 0.076 0.0
C509 C 0.40818 0.0735 0.06198 0.0
C510 C 0.40681 0.07151 0.15423 0.0
C511 C 0.36891 0.10711 0.05852 0.0
H512 H 0.30215 0.09311 0.15247 0.0
H513 H 0.35925 0.17606 0.1474 0.0
H514 H 0.33502 0.05403 0.10063 0.0
H515 H 0.34813 0.04136 0.13416 0.0
H516 H 0.31197 0.04764 0.13181 0.0
H517 H 0.40342 0.17902 0.12473 0.0
H518 H 0.41869 0.14285 0.12857 0.0
H519 H 0.40506 0.15477 0.09508 0.0
H520 H 0.44005 0.04325 0.11959 0.0
H521 H 0.40873 0.07391 0.03885 0.0
H522 H 0.38632 0.06095 0.16332 0.0
H523 H 0.41007 0.09548 0.1613 0.0
H524 H 0.42324 0.05804 0.16325 0.0
H525 H 0.34714 0.09791 0.06463 0.0
H526 H 0.37224 0.1053 0.03519 0.0
H527 H 0.37138 0.13201 0.063 0.0
C528 C 0.20367 0.92315 0.63507 0.0
C529 C 0.20579 0.89119 0.63891 0.0
C530 C 0.17972 0.93431 0.6239 0.0
C531 C 0.15734 0.91297 0.6165 0.0
C532 C 0.15917 0.88067 0.62072 0.0
C533 C 0.18342 0.87016 0.63184 0.0
C534 C 0.17857 0.96893 0.61954 0.0
C535 C 0.13564 0.85724 0.61324 0.0
C536 C 0.0866 0.94261 0.60851 0.0
C537 C 0.08568 0.94807 0.57877 0.0
C538 C 0.10967 0.93083 0.62111 0.0
C539 C 0.13236 0.92449 0.60352 0.0
C540 C 0.13143 0.92964 0.57348 0.0
C541 C 0.10809 0.94132 0.56146 0.0
C542 C 0.10991 0.92548 0.65323 0.0
C543 C 0.15528 0.92321 0.55405 0.0
H544 H 0.22104 0.93948 0.64022 0.0
H545 H 0.18485 0.84543 0.63513 0.0
H546 H 0.17649 0.97554 0.5965 0.0
H547 H 0.16003 0.97569 0.63105 0.0
H548 H 0.19742 0.9824 0.62714 0.0
H549 H 0.14003 0.83296 0.61863 0.0
H550 H 0.11617 0.86133 0.62478 0.0
H551 H 0.13186 0.85999 0.59004 0.0
H552 H 0.06935 0.94772 0.62203 0.0
H553 H 0.10757 0.94549 0.53846 0.0
H554 H 0.12752 0.94027 0.66165 0.0
H555 H 0.11309 0.90098 0.65922 0.0
H556 H 0.09029 0.93078 0.66382 0.0
H557 H 0.17451 0.93773 0.55922 0.0
H558 H 0.15112 0.92804 0.5311 0.0
H559 H 0.15937 0.89859 0.55749 0.0
C560 C 0.81679 0.39559 0.89262 0.0
C561 C 0.79951 0.41717 0.88143 0.0
C562 C 0.84235 0.40531 0.90445 0.0
C563 C 0.85095 0.43742 0.90512 0.0
C564 C 0.83357 0.45935 0.89401 0.0
C565 C 0.80811 0.44897 0.88224 0.0
C566 C 0.86036 0.38119 0.91583 0.0
C567 C 0.84197 0.49382 0.89438 0.0
C568 C 0.90742 0.46564 0.95537 0.0
C569 C 0.93064 0.47196 0.93652 0.0
C570 C 0.88141 0.45386 0.94559 0.0
C571 C 0.87864 0.44812 0.91635 0.0
C572 C 0.90226 0.45338 0.89751 0.0
C573 C 0.92791 0.46527 0.90781 0.0
C574 C 0.8567 0.44852 0.96634 0.0
C575 C 0.90031 0.44732 0.86625 0.0
H576 H 0.81051 0.37097 0.89172 0.0
H577 H 0.79475 0.46578 0.87396 0.0
H578 H 0.88043 0.38356 0.90345 0.0
H579 H 0.86521 0.38486 0.93842 0.0
H580 H 0.85025 0.35715 0.91463 0.0
H581 H 0.82577 0.50784 0.88569 0.0
H582 H 0.84605 0.50003 0.91656 0.0
H583 H 0.86157 0.50026 0.88154 0.0
H584 H 0.9093 0.47093 0.97754 0.0
H585 H 0.94576 0.46994 0.89311 0.0
H586 H 0.84668 0.42439 0.96582 0.0
H587 H 0.84095 0.46428 0.95994 0.0
H588 H 0.86255 0.45264 0.98861 0.0
H589 H 0.89134 0.42307 0.8639 0.0
H590 H 0.92089 0.4512 0.85473 0.0
H591 H 0.88618 0.46283 0.85581 0.0
C592 C 0.69421 0.61057 0.37548 0.0
C593 C 0.71391 0.59034 0.36873 0.0
C594 C 0.66804 0.59926 0.38793 0.0
C595 C 0.66136 0.56691 0.39391 0.0
C596 C 0.6811 0.54634 0.38709 0.0
C597 C 0.70708 0.55828 0.37453 0.0
C598 C 0.64751 0.62195 0.3946 0.0
C599 C 0.67484 0.5117 0.39321 0.0
C600 C 0.60375 0.53715 0.44902 0.0
C601 C 0.58174 0.52777 0.43156 0.0
C602 C 0.62964 0.55035 0.43708 0.0
C603 C 0.6336 0.55447 0.40698 0.0
C604 C 0.6112 0.54591 0.38929 0.0
C605 C 0.58562 0.53261 0.40177 0.0
C606 C 0.653 0.55914 0.45668 0.0
C607 C 0.61443 0.55015 0.35712 0.0
H608 H 0.69917 0.63534 0.37074 0.0
H609 H 0.72228 0.54252 0.36972 0.0
H610 H 0.62815 0.61666 0.38288 0.0
H611 H 0.64172 0.6196 0.41775 0.0
H612 H 0.65593 0.6464 0.38874 0.0
H613 H 0.69246 0.49885 0.3868 0.0
H614 H 0.67004 0.50628 0.41637 0.0
H615 H 0.65619 0.50307 0.38164 0.0
H616 H 0.60101 0.53341 0.47204 0.0
H617 H 0.56873 0.52555 0.38808 0.0
H618 H 0.66115 0.58386 0.45208 0.0
H619 H 0.67044 0.54505 0.45282 0.0
H620 H 0.64631 0.55551 0.47961 0.0
H621 H 0.62185 0.57467 0.35043 0.0
H622 H 0.59464 0.54368 0.34643 0.0
H623 H 0.63032 0.53564 0.34948 0.0
C624 C 0.11167 0.29572 0.13989 0.0
C625 C 0.1404 0.30477 0.13937 0.0
C626 C 0.09388 0.3123 0.12318 0.0
C627 C 0.10511 0.33858 0.1056 0.0
C628 C 0.13412 0.34775 0.10487 0.0
C629 C 0.15146 0.33065 0.12173 0.0
C630 C 0.06308 0.30175 0.12438 0.0
C631 C 0.1468 0.37581 0.0865 0.0
C632 C 0.06513 0.36869 0.04305 0.0
C633 C 0.05443 0.3944 0.05416 0.0
C634 C 0.08109 0.34977 0.05981 0.0
C635 C 0.0865 0.35684 0.08829 0.0
C636 C 0.07494 0.38208 0.09995 0.0
C637 C 0.05896 0.4005 0.08277 0.0
C638 C 0.09291 0.32285 0.04678 0.0
C639 C 0.08027 0.39031 0.13025 0.0
H640 H 0.10312 0.27541 0.15318 0.0
H641 H 0.17362 0.33783 0.12148 0.0
H642 H 0.05131 0.3205 0.13184 0.0
H643 H 0.05598 0.29685 0.10268 0.0
H644 H 0.05773 0.28057 0.13889 0.0
H645 H 0.16977 0.37962 0.0881 0.0
H646 H 0.14182 0.37306 0.0638 0.0
H647 H 0.13777 0.39688 0.09297 0.0
H648 H 0.06168 0.36379 0.02099 0.0
H649 H 0.05078 0.42032 0.09156 0.0
H650 H 0.08728 0.30115 0.06044 0.0
H651 H 0.11596 0.327 0.04555 0.0
H652 H 0.08537 0.31933 0.02495 0.0
H653 H 0.0742 0.36987 0.14539 0.0
H654 H 0.06869 0.40977 0.13649 0.0
H655 H 0.10283 0.39706 0.13257 0.0
C656 C 0.60801 0.20712 0.9155 0.0
C657 C 0.59919 0.21906 0.88907 0.0
C658 C 0.59429 0.18002 0.92952 0.0
C659 C 0.57178 0.16364 0.91641 0.0
C660 C 0.56298 0.1751 0.8896 0.0
C661 C 0.57643 0.2029 0.87652 0.0
C662 C 0.60392 0.16892 0.95843 0.0
C663 C 0.53949 0.15785 0.8746 0.0
C664 C 0.5562 0.07861 0.94207 0.0
C665 C 0.5326 0.0792 0.95993 0.0
C666 C 0.56857 0.10576 0.92697 0.0
C667 C 0.55767 0.13433 0.93071 0.0
C668 C 0.53383 0.13501 0.94881 0.0
C669 C 0.52127 0.10728 0.96282 0.0
C670 C 0.5934 0.10388 0.90717 0.0
C671 C 0.52212 0.16513 0.95408 0.0
H672 H 0.6259 0.21872 0.92525 0.0
H673 H 0.56889 0.21199 0.85648 0.0
H674 H 0.58615 0.16577 0.9742 0.0
H675 H 0.61197 0.14603 0.9571 0.0
H676 H 0.62056 0.18537 0.96653 0.0
H677 H 0.53591 0.16917 0.85328 0.0
H678 H 0.54413 0.1337 0.8718 0.0
H679 H 0.51997 0.15643 0.8878 0.0
H680 H 0.56484 0.0568 0.93972 0.0
H681 H 0.50316 0.10774 0.97688 0.0
H682 H 0.61204 0.11719 0.91528 0.0
H683 H 0.58967 0.11451 0.88563 0.0
H684 H 0.59801 0.07958 0.90505 0.0
H685 H 0.53818 0.18117 0.96356 0.0
H686 H 0.50343 0.16165 0.9687 0.0
H687 H 0.51646 0.17668 0.9336 0.0
C688 C 0.92424 0.77871 0.40571 0.0
C689 C 0.91744 0.78117 0.37682 0.0
C690 C 0.93349 0.80511 0.42002 0.0
C691 C 0.93575 0.83479 0.40518 0.0
C692 C 0.93006 0.83727 0.37569 0.0
C693 C 0.9211 0.81042 0.36183 0.0
C694 C 0.93963 0.80134 0.45137 0.0
C695 C 0.932 0.86846 0.35911 0.0
C696 C 0.9236 0.90317 0.44879 0.0
C697 C 0.95068 0.91766 0.45134 0.0
C698 C 0.91859 0.87634 0.4338 0.0
C699 C 0.9412 0.86333 0.42116 0.0
C700 C 0.96866 0.87756 0.42389 0.0
C701 C 0.97308 0.90465 0.43886 0.0
C702 C 0.88896 0.86205 0.43132 0.0
C703 C 0.99332 0.86421 0.41093 0.0
H704 H 0.92183 0.7561 0.41731 0.0
H705 H 0.91569 0.81251 0.33956 0.0
H706 H 0.96009 0.81401 0.45554 0.0
H707 H 0.92364 0.81152 0.46412 0.0
H708 H 0.93975 0.77659 0.45901 0.0
H709 H 0.92947 0.86626 0.33584 0.0
H710 H 0.91554 0.88204 0.36711 0.0
H711 H 0.95233 0.88191 0.36233 0.0
H712 H 0.90611 0.91301 0.45825 0.0
H713 H 0.99406 0.91566 0.44073 0.0
H714 H 0.88661 0.83781 0.44083 0.0
H715 H 0.88377 0.86123 0.40847 0.0
H716 H 0.87369 0.87517 0.44218 0.0
H717 H 0.99382 0.83983 0.41947 0.0
H718 H 0.01337 0.87769 0.41536 0.0
H719 H 0.99134 0.86386 0.38745 0.0
C720 C 0.4033 0.72655 0.58867 0.0
C721 C 0.39532 0.72188 0.61771 0.0
C722 C 0.41501 0.70338 0.57437 0.0
C723 C 0.41854 0.6748 0.58945 0.0
C724 C 0.41071 0.67006 0.61883 0.0
C725 C 0.39929 0.69373 0.63264 0.0
C726 C 0.42338 0.70936 0.54309 0.0
C727 C 0.41387 0.63975 0.63554 0.0
C728 C 0.42141 0.60351 0.54734 0.0
C729 C 0.44994 0.60004 0.54687 0.0
C730 C 0.41096 0.62783 0.56102 0.0
C731 C 0.42952 0.64941 0.57429 0.0
C732 C 0.4584 0.64636 0.57352 0.0
C733 C 0.46826 0.62158 0.55993 0.0
C734 C 0.38 0.63016 0.56164 0.0
C735 C 0.47881 0.66913 0.58723 0.0
H736 H 0.40053 0.74845 0.57718 0.0
H737 H 0.39286 0.68995 0.65503 0.0
H738 H 0.4456 0.70582 0.53969 0.0
H739 H 0.411 0.69259 0.53037 0.0
H740 H 0.42027 0.73327 0.53477 0.0
H741 H 0.40738 0.64007 0.6584 0.0
H742 H 0.40112 0.6205 0.62608 0.0
H743 H 0.43585 0.63459 0.63427 0.0
H744 H 0.4071 0.58688 0.5374 0.0
H745 H 0.49034 0.61909 0.55956 0.0
H746 H 0.37567 0.65304 0.55181 0.0
H747 H 0.37187 0.62852 0.58409 0.0
H748 H 0.36841 0.61162 0.5501 0.0
H749 H 0.47688 0.69309 0.5783 0.0
H750 H 0.50069 0.66408 0.58395 0.0
H751 H 0.47401 0.66851 0.61053 0.0
C752 C 0.85954 0.86637 0.64086 0.0
C753 C 0.85535 0.87999 0.66668 0.0
C754 C 0.87727 0.88177 0.61911 0.0
C755 C 0.89136 0.91123 0.62355 0.0
C756 C 0.88678 0.92532 0.64939 0.0
C757 C 0.8687 0.90956 0.67061 0.0
C758 C 0.88138 0.86627 0.59164 0.0
C759 C 0.90168 0.95656 0.655 0.0
C760 C 0.95925 0.93565 0.58197 0.0
C761 C 0.95107 0.95701 0.56096 0.0
C762 C 0.93999 0.92062 0.6025 0.0
C763 C 0.91183 0.92678 0.60172 0.0
C764 C 0.90338 0.94808 0.58039 0.0
C765 C 0.92317 0.96313 0.56036 0.0
C766 C 0.94982 0.89832 0.62517 0.0
C767 C 0.87345 0.9549 0.57872 0.0
H768 H 0.84904 0.84359 0.63777 0.0
H769 H 0.86574 0.91992 0.69073 0.0
H770 H 0.87724 0.88209 0.57305 0.0
H771 H 0.9033 0.86116 0.5893 0.0
H772 H 0.86759 0.84423 0.59088 0.0
H773 H 0.89503 0.96479 0.67578 0.0
H774 H 0.92446 0.95511 0.65505 0.0
H775 H 0.89781 0.97412 0.63772 0.0
H776 H 0.98082 0.93095 0.58258 0.0
H777 H 0.9167 0.97942 0.544 0.0
H778 H 0.93836 0.87496 0.62405 0.0
H779 H 0.94537 0.90618 0.6467 0.0
H780 H 0.97248 0.89626 0.62289 0.0
H781 H 0.85975 0.93308 0.57659 0.0
H782 H 0.87017 0.97153 0.56041 0.0
H783 H 0.86681 0.96472 0.59873 0.0
C784 C 0.58959 0.0933 0.19603 0.0
C785 C 0.61848 0.10113 0.19545 0.0
C786 C 0.57599 0.08376 0.17163 0.0
C787 C 0.5917 0.08183 0.14603 0.0
C788 C 0.62102 0.0883 0.14562 0.0
C789 C 0.6341 0.09793 0.17039 0.0
C790 C 0.54468 0.07693 0.17297 0.0
C791 C 0.63843 0.08629 0.11874 0.0
C792 C 0.55291 0.03849 0.08908 0.0
C793 C 0.54277 0.06295 0.07286 0.0
C794 C 0.57001 0.04431 0.11226 0.0
C795 C 0.57701 0.07528 0.11935 0.0
C796 C 0.56788 0.1001 0.10225 0.0
C797 C 0.55091 0.09363 0.07919 0.0
C798 C 0.57955 0.01728 0.12989 0.0
C799 C 0.57494 0.13347 0.10911 0.0
H800 H 0.57751 0.09514 0.21554 0.0
H801 H 0.65643 0.1041 0.1698 0.0
H802 H 0.53538 0.0941 0.15862 0.0
H803 H 0.53847 0.05361 0.1654 0.0
H804 H 0.53574 0.07783 0.19493 0.0
H805 H 0.66107 0.0889 0.12272 0.0
H806 H 0.63297 0.06374 0.10936 0.0
H807 H 0.63403 0.10485 0.10261 0.0
H808 H 0.54684 0.01471 0.08422 0.0
H809 H 0.54333 0.11267 0.06663 0.0
H810 H 0.56896 0.01524 0.15131 0.0
H811 H 0.60225 0.02116 0.13314 0.0
H812 H 0.57491 0.99497 0.11977 0.0
H813 H 0.56482 0.13738 0.12989 0.0
H814 H 0.56797 0.15012 0.0925 0.0
H815 H 0.59771 0.1386 0.11127 0.0
C816 C 0.38127 0.56954 0.33719 0.0
C817 C 0.39698 0.57823 0.3118 0.0
C818 C 0.39379 0.55802 0.36186 0.0
C819 C 0.42271 0.5551 0.36114 0.0
C820 C 0.43852 0.56304 0.33537 0.0
C821 C 0.42548 0.57444 0.31107 0.0
C822 C 0.37621 0.54979 0.3889 0.0
C823 C 0.46937 0.56015 0.33363 0.0
C824 C 0.46221 0.55779 0.43015 0.0
C825 C 0.46541 0.52634 0.4366 0.0
C826 C 0.44804 0.56735 0.40592 0.0
C827 C 0.43676 0.54498 0.38758 0.0
C828 C 0.43962 0.51317 0.3941 0.0
C829 C 0.45389 0.50423 0.41852 0.0
C830 C 0.44544 0.6015 0.39977 0.0
C831 C 0.42789 0.48862 0.3751 0.0
H832 H 0.35932 0.57265 0.33807 0.0
H833 H 0.43769 0.58059 0.29142 0.0
H834 H 0.37866 0.52574 0.3972 0.0
H835 H 0.38332 0.56546 0.40561 0.0
H836 H 0.35378 0.55173 0.38554 0.0
H837 H 0.47847 0.56614 0.31173 0.0
H838 H 0.4803 0.57575 0.34848 0.0
H839 H 0.47341 0.53609 0.34038 0.0
H840 H 0.47091 0.57506 0.44401 0.0
H841 H 0.45621 0.47989 0.42329 0.0
H842 H 0.4232 0.6054 0.39811 0.0
H843 H 0.45596 0.60967 0.37893 0.0
H844 H 0.4547 0.61587 0.41655 0.0
H845 H 0.40525 0.48988 0.37277 0.0
H846 H 0.43117 0.46481 0.38356 0.0
H847 H 0.43785 0.49283 0.35341 0.0
C848 C 0.08195 0.39503 0.82521 0.0
C849 C 0.10724 0.40819 0.81189 0.0
C850 C 0.06992 0.40857 0.84833 0.0
C851 C 0.08376 0.43555 0.85907 0.0
C852 C 0.10929 0.44892 0.84591 0.0
C853 C 0.12047 0.4354 0.82234 0.0
C854 C 0.04241 0.39384 0.8614 0.0
C855 C 0.12499 0.47738 0.85696 0.0
C856 C 0.04291 0.4861 0.90463 0.0
C857 C 0.0482 0.47477 0.93243 0.0
C858 C 0.05415 0.47343 0.88057 0.0
C859 C 0.07178 0.44945 0.88437 0.0
C860 C 0.07779 0.43854 0.91242 0.0
C861 C 0.06565 0.45102 0.93606 0.0
C862 C 0.04664 0.48521 0.85109 0.0
C863 C 0.09703 0.41362 0.9175 0.0
H864 H 0.07162 0.37378 0.81789 0.0
H865 H 0.13962 0.44638 0.81202 0.0
H866 H 0.04514 0.3854 0.88387 0.0
H867 H 0.02723 0.41132 0.86174 0.0
H868 H 0.03349 0.37401 0.84956 0.0
H869 H 0.14489 0.48457 0.84478 0.0
H870 H 0.11203 0.49702 0.85568 0.0
H871 H 0.12959 0.47277 0.8798 0.0
H872 H 0.0293 0.50429 0.90165 0.0
H873 H 0.07003 0.44234 0.95747 0.0
H874 H 0.03635 0.46577 0.83969 0.0
H875 H 0.06573 0.49447 0.8384 0.0
H876 H 0.03248 0.50375 0.85176 0.0
H877 H 0.08825 0.39187 0.90846 0.0
H878 H 0.10048 0.40858 0.94058 0.0
H879 H 0.11746 0.42084 0.90639 0.0
C880 C 0.65776 0.8587 0.87641 0.0
C881 C 0.68365 0.87476 0.86806 0.0
C882 C 0.63766 0.87332 0.89104 0.0
C883 C 0.64382 0.90458 0.89769 0.0
C884 C 0.67016 0.92069 0.88983 0.0
C885 C 0.68973 0.90561 0.87495 0.0
C886 C 0.60966 0.85556 0.89881 0.0
C887 C 0.67756 0.95394 0.89685 0.0
C888 C 0.58426 0.95327 0.90858 0.0
C889 C 0.58173 0.95248 0.93847 0.0
C890 C 0.60423 0.93753 0.89506 0.0
C891 C 0.62232 0.92089 0.91186 0.0
C892 C 0.61998 0.92009 0.94205 0.0
C893 C 0.59957 0.93577 0.95503 0.0
C894 C 0.60594 0.93866 0.8628 0.0
C895 C 0.63913 0.9028 0.9606 0.0
H896 H 0.653 0.83491 0.87089 0.0
H897 H 0.70991 0.91789 0.8688 0.0
H898 H 0.60519 0.85554 0.92213 0.0
H899 H 0.59309 0.86711 0.88782 0.0
H900 H 0.60848 0.83113 0.89282 0.0
H901 H 0.69938 0.96267 0.89034 0.0
H902 H 0.66348 0.96909 0.88584 0.0
H903 H 0.67463 0.95606 0.92015 0.0
H904 H 0.57042 0.96598 0.89564 0.0
H905 H 0.59774 0.93514 0.97814 0.0
H906 H 0.60316 0.91477 0.85551 0.0
H907 H 0.6268 0.94932 0.85486 0.0
H908 H 0.58997 0.95217 0.85289 0.0
H909 H 0.63709 0.87792 0.95609 0.0
H910 H 0.63467 0.90455 0.98376 0.0
H911 H 0.66108 0.91216 0.95556 0.0
C912 C 0.80851 0.11586 0.40464 0.0
C913 C 0.80611 0.11749 0.37486 0.0
C914 C 0.83222 0.10593 0.41736 0.0
C915 C 0.85402 0.09724 0.3999 0.0
C916 C 0.85178 0.09881 0.36982 0.0
C917 C 0.82783 0.10895 0.35764 0.0
C918 C 0.83382 0.10445 0.44953 0.0
C919 C 0.87463 0.08966 0.35055 0.0
C920 C 0.92485 0.09576 0.43273 0.0
C921 C 0.92482 0.06415 0.44109 0.0
C922 C 0.9021 0.10684 0.41889 0.0
C923 C 0.87884 0.08577 0.41327 0.0
C924 C 0.87884 0.05379 0.42132 0.0
C925 C 0.9018 0.04337 0.43515 0.0
C926 C 0.90277 0.14113 0.41063 0.0
C927 C 0.85442 0.03061 0.41565 0.0
H928 H 0.79161 0.12194 0.4181 0.0
H929 H 0.82623 0.1105 0.3346 0.0
H930 H 0.83543 0.08021 0.45784 0.0
H931 H 0.85277 0.11874 0.4558 0.0
H932 H 0.81538 0.11279 0.46 0.0
H933 H 0.8698 0.09253 0.32757 0.0
H934 H 0.89447 0.10395 0.35409 0.0
H935 H 0.87798 0.06506 0.3558 0.0
H936 H 0.94257 0.11195 0.43718 0.0
H937 H 0.90162 0.01887 0.44143 0.0
H938 H 0.8856 0.15079 0.42208 0.0
H939 H 0.89945 0.14489 0.3874 0.0
H940 H 0.92277 0.1543 0.41568 0.0
H941 H 0.83551 0.03635 0.42722 0.0
H942 H 0.85807 0.00641 0.42245 0.0
H943 H 0.85007 0.03182 0.39252 0.0
C944 C 0.18579 0.61324 0.12618 0.0
C945 C 0.20555 0.5932 0.13461 0.0
C946 C 0.16115 0.60211 0.11331 0.0
C947 C 0.15601 0.57013 0.1088 0.0
C948 C 0.17576 0.54974 0.11737 0.0
C949 C 0.20027 0.5615 0.13015 0.0
C950 C 0.14055 0.62458 0.10464 0.0
C951 C 0.17105 0.51546 0.11298 0.0
C952 C 0.08188 0.53369 0.10097 0.0
C953 C 0.08077 0.53079 0.07137 0.0
C954 C 0.106 0.54702 0.11331 0.0
C955 C 0.1297 0.5578 0.09568 0.0
C956 C 0.12847 0.55587 0.06568 0.0
C957 C 0.10401 0.54241 0.05387 0.0
C958 C 0.10635 0.54877 0.14535 0.0
C959 C 0.15327 0.56724 0.04615 0.0
H960 H 0.18948 0.63768 0.12989 0.0
H961 H 0.21554 0.54592 0.13621 0.0
H962 H 0.13676 0.62386 0.08146 0.0
H963 H 0.12031 0.61772 0.11621 0.0
H964 H 0.14786 0.64884 0.10916 0.0
H965 H 0.18848 0.50273 0.1207 0.0
H966 H 0.15157 0.50513 0.12444 0.0
H967 H 0.16851 0.51193 0.08995 0.0
H968 H 0.06402 0.52492 0.11469 0.0
H969 H 0.10338 0.54026 0.03101 0.0
H970 H 0.11256 0.57296 0.15076 0.0
H971 H 0.12199 0.53421 0.15434 0.0
H972 H 0.08578 0.54075 0.15592 0.0
H973 H 0.1604 0.59179 0.04964 0.0
H974 H 0.14856 0.56547 0.02323 0.0
H975 H 0.17078 0.55341 0.05119 0.0
C976 C 0.3089 0.43425 0.62933 0.0
C977 C 0.30367 0.40208 0.63564 0.0
C978 C 0.33439 0.44755 0.61661 0.0
C979 C 0.35527 0.42827 0.61005 0.0
C980 C 0.35015 0.39579 0.61634 0.0
C981 C 0.32444 0.38309 0.62901 0.0
C982 C 0.33896 0.48228 0.61018 0.0
C983 C 0.37192 0.37446 0.60987 0.0
C984 C 0.41208 0.46176 0.55539 0.0
C985 C 0.43338 0.47271 0.57306 0.0
C986 C 0.38675 0.44667 0.5671 0.0
C987 C 0.38266 0.44228 0.59718 0.0
C988 C 0.40443 0.45239 0.61507 0.0
C989 C 0.42945 0.4675 0.60281 0.0
C990 C 0.36407 0.43621 0.5473 0.0
C991 C 0.40103 0.448 0.64722 0.0
H992 H 0.29285 0.44905 0.63397 0.0
H993 H 0.32072 0.35827 0.63411 0.0
H994 H 0.35707 0.49217 0.62189 0.0
H995 H 0.34384 0.4877 0.58703 0.0
H996 H 0.32052 0.49399 0.61624 0.0
H997 H 0.36453 0.34967 0.61559 0.0
H998 H 0.378 0.37718 0.5868 0.0
H999 H 0.39091 0.38079 0.62187 0.0
H1000 H 0.41488 0.46572 0.53239 0.0
H1001 H 0.44581 0.47573 0.61666 0.0
H1002 H 0.34579 0.44917 0.55076 0.0
H1003 H 0.35707 0.41121 0.55207 0.0
H1004 H 0.37097 0.43996 0.52444 0.0
H1005 H 0.38424 0.46142 0.65471 0.0
H1006 H 0.42043 0.45569 0.65808 0.0
H1007 H 0.39475 0.42321 0.65389 0.0
C1008 C 0.87482 0.70189 0.89169 0.0
C1009 C 0.86227 0.69235 0.8667 0.0
C1010 C 0.89133 0.68264 0.90731 0.0
C1011 C 0.89513 0.65305 0.89781 0.0
C1012 C 0.8827 0.64338 0.87244 0.0
C1013 C 0.86651 0.66328 0.85707 0.0
C1014 C 0.90448 0.69383 0.93413 0.0
C1015 C 0.88603 0.61181 0.86188 0.0
C1016 C 0.95467 0.61078 0.92623 0.0
C1017 C 0.94101 0.59058 0.94791 0.0
C1018 C 0.94004 0.63148 0.90983 0.0
C1019 C 0.91109 0.63168 0.91512 0.0
C1020 C 0.89725 0.61143 0.93704 0.0
C1021 C 0.9124 0.59125 0.95327 0.0
C1022 C 0.95549 0.65302 0.88678 0.0
C1023 C 0.86634 0.6108 0.94313 0.0
H1024 H 0.87187 0.72459 0.89891 0.0
H1025 H 0.85668 0.65585 0.83781 0.0
H1026 H 0.8962 0.67843 0.9529 0.0
H1027 H 0.9273 0.69275 0.93275 0.0
H1028 H 0.90047 0.718 0.93789 0.0
H1029 H 0.87571 0.60822 0.84131 0.0
H1030 H 0.90842 0.60884 0.85897 0.0
H1031 H 0.877 0.59342 0.87802 0.0
H1032 H 0.97677 0.61036 0.92201 0.0
H1033 H 0.90165 0.57557 0.96986 0.0
H1034 H 0.95277 0.67748 0.89065 0.0
H1035 H 0.94675 0.64837 0.86567 0.0
H1036 H 0.9781 0.65039 0.88575 0.0
H1037 H 0.8613 0.63406 0.94874 0.0
H1038 H 0.85873 0.59356 0.9609 0.0
H1039 H 0.85479 0.60505 0.92372 0.0
C1040 C 0.39964 0.82097 0.13113 0.0
C1041 C 0.40654 0.79182 0.12399 0.0
C1042 C 0.41303 0.84834 0.11724 0.0
C1043 C 0.43327 0.84641 0.0952 0.0
C1044 C 0.44029 0.81695 0.08793 0.0
C1045 C 0.42705 0.78999 0.10268 0.0
C1046 C 0.40541 0.8793 0.12603 0.0
C1047 C 0.46127 0.81389 0.06413 0.0
C1048 C 0.44547 0.91555 0.04075 0.0
C1049 C 0.47077 0.93032 0.04926 0.0
C1050 C 0.43334 0.8879 0.05518 0.0
C1051 C 0.44646 0.87518 0.07919 0.0
C1052 C 0.47195 0.89014 0.08799 0.0
C1053 C 0.48402 0.91734 0.07264 0.0
C1054 C 0.40652 0.87225 0.04466 0.0
C1055 C 0.48624 0.87769 0.11385 0.0
H1056 H 0.38389 0.8223 0.14777 0.0
H1057 H 0.43219 0.76737 0.09707 0.0
H1058 H 0.42438 0.89403 0.13161 0.0
H1059 H 0.39603 0.89173 0.10792 0.0
H1060 H 0.39042 0.87682 0.14462 0.0
H1061 H 0.46449 0.78931 0.06123 0.0
H1062 H 0.45418 0.82438 0.04375 0.0
H1063 H 0.48156 0.82675 0.06858 0.0
H1064 H 0.43535 0.92537 0.02245 0.0
H1065 H 0.50352 0.92885 0.07933 0.0
H1066 H 0.3898 0.87147 0.06143 0.0
H1067 H 0.40914 0.8479 0.04022 0.0
H1068 H 0.39965 0.8844 0.02493 0.0
H1069 H 0.47207 0.87652 0.13299 0.0
H1070 H 0.50577 0.89227 0.11809 0.0
H1071 H 0.49124 0.85372 0.11085 0.0
C1072 C 0.08024 0.20835 0.61286 0.0
C1073 C 0.10289 0.20561 0.63058 0.0
C1074 C 0.06942 0.18335 0.5974 0.0
C1075 C 0.08132 0.15484 0.60003 0.0
C1076 C 0.10344 0.15163 0.61883 0.0
C1077 C 0.11404 0.17707 0.6337 0.0
C1078 C 0.04603 0.18784 0.57739 0.0
C1079 C 0.11648 0.12155 0.62263 0.0
C1080 C 0.04389 0.07993 0.5755 0.0
C1081 C 0.0586 0.07665 0.54987 0.0
C1082 C 0.05048 0.10569 0.59174 0.0
C1083 C 0.072 0.12893 0.58189 0.0
C1084 C 0.08602 0.12637 0.55537 0.0
C1085 C 0.0793 0.1002 0.53983 0.0
C1086 C 0.03522 0.10737 0.62 0.0
C1087 C 0.10879 0.15081 0.54382 0.0
H1088 H 0.07168 0.23044 0.61023 0.0
H1089 H 0.13134 0.17475 0.64764 0.0
H1090 H 0.05358 0.1865 0.55501 0.0
H1091 H 0.02876 0.16907 0.58175 0.0
H1092 H 0.03775 0.21058 0.57928 0.0
H1093 H 0.13212 0.12212 0.63956 0.0
H1094 H 0.10021 0.10196 0.62819 0.0
H1095 H 0.12687 0.11677 0.60225 0.0
H1096 H 0.02794 0.06176 0.58346 0.0
H1097 H 0.09059 0.09799 0.51991 0.0
H1098 H 0.02702 0.13021 0.62109 0.0
H1099 H 0.04987 0.10516 0.63764 0.0
H1100 H 0.01766 0.08875 0.62363 0.0
H1101 H 0.10136 0.17417 0.54348 0.0
H1102 H 0.11608 0.14667 0.52187 0.0
H1103 H 0.12679 0.15103 0.55801 0.0
C1104 C 0.60951 0.30804 0.37364 0.0
C1105 C 0.61313 0.27978 0.38855 0.0
C1106 C 0.59819 0.33177 0.38744 0.0
C1107 C 0.59008 0.32694 0.41675 0.0
C1108 C 0.59301 0.29814 0.43171 0.0
C1109 C 0.60467 0.27493 0.41745 0.0
C1110 C 0.59565 0.36232 0.37087 0.0
C1111 C 0.5843 0.29205 0.46289 0.0
C1112 C 0.58916 0.39804 0.45936 0.0
C1113 C 0.56085 0.4025 0.45979 0.0
C1114 C 0.5989 0.37343 0.44553 0.0
C1115 C 0.57981 0.35259 0.43207 0.0
C1116 C 0.55113 0.35661 0.43284 0.0
C1117 C 0.54199 0.38166 0.44658 0.0
C1118 C 0.62969 0.37004 0.44493 0.0
C1119 C 0.53017 0.33461 0.41894 0.0
H1120 H 0.6163 0.31191 0.35136 0.0
H1121 H 0.60718 0.25293 0.42889 0.0
H1122 H 0.5739 0.36821 0.37232 0.0
H1123 H 0.60895 0.38116 0.3803 0.0
H1124 H 0.60193 0.36191 0.34795 0.0
H1125 H 0.58651 0.26783 0.47097 0.0
H1126 H 0.59717 0.30812 0.47588 0.0
H1127 H 0.56232 0.29657 0.46623 0.0
H1128 H 0.60388 0.41413 0.46942 0.0
H1129 H 0.52006 0.38494 0.44693 0.0
H1130 H 0.63784 0.37162 0.42248 0.0
H1131 H 0.63338 0.34688 0.4546 0.0
H1132 H 0.64174 0.38811 0.45661 0.0
H1133 H 0.53493 0.33535 0.39562 0.0
H1134 H 0.50851 0.34035 0.42229 0.0
H1135 H 0.53148 0.31044 0.42765 0.0
loop_
_geom_bond_atom_site_label_1
_geom_bond_atom_site_label_2
_geom_bond_distance
_geom_bond_site_symmetry_2
_ccdc_geom_bond_type
C0 C1 1.384 . S
C0 H13 0.947 . S
C0 C35 1.382 . S
C1 C0 1.384 . S
C1 C2 1.378 . S
C2 C1 1.378 . S
C2 C3 1.378 . S
C2 H14 0.952 . S
C3 C2 1.378 . S
C3 H15 0.950 . S
C3 C34 1.383 . S
H4 C23 0.947 . S
H5 C24 0.946 . S
H6 C26 0.953 . S
H7 C27 0.945 . S
H8 C29 0.952 . S
H9 C30 0.949 . S
H10 C32 0.950 . S
H11 C33 0.948 . S
H12 C35 0.951 . S
H13 C0 0.947 . S
H14 C2 0.952 . S
H15 C3 0.950 . S
N16 C19 1.382 . S
N16 C21 1.363 . S
N17 C19 1.371 . S
N17 C20 1.372 . S
N18 C20 1.361 . S
N18 C21 1.377 . S
C19 N16 1.382 . S
C19 N17 1.371 . S
C19 C22 1.480 . S
C20 N17 1.372 . S
C20 N18 1.361 . S
C20 C28 1.457 . S
C21 N16 1.363 . S
C21 N18 1.377 . S
C21 C34 1.479 . S
C22 C19 1.480 . S
C22 C23 1.383 . S
C22 C27 1.385 . S
C23 H4 0.947 . S
C23 C22 1.383 . S
C23 C24 1.388 . S
C24 H5 0.946 . S
C24 C23 1.388 . S
C24 C25 1.384 . S
C25 C24 1.384 . S
C25 C26 1.377 . S
C26 H6 0.953 . S
C26 C25 1.377 . S
C26 C27 1.369 . S
C27 H7 0.945 . S
C27 C22 1.385 . S
C27 C26 1.369 . S
C28 C20 1.457 . S
C28 C29 1.372 . S
C28 C33 1.364 . S
C29 H8 0.952 . S
C29 C28 1.372 . S
C29 C30 1.389 . S
C30 H9 0.949 . S
C30 C29 1.389 . S
C30 C31 1.387 . S
C31 C30 1.387 . S
C31 C32 1.372 . S
C32 H10 0.950 . S
C32 C31 1.372 . S
C32 C33 1.379 . S
C33 H11 0.948 . S
C33 C28 1.364 . S
C33 C32 1.379 . S
C34 C3 1.383 . S
C34 C21 1.479 . S
C34 C35 1.398 . S
C35 C0 1.382 . S
C35 H12 0.951 . S
C35 C34 1.398 . S
C36 C37 1.384 . S
C36 H49 0.947 . S
C36 C71 1.382 . S
C37 C36 1.384 . S
C37 C38 1.378 . S
C38 C37 1.378 . S
C38 C39 1.378 . S
C38 H50 0.952 . S
C39 C38 1.378 . S
C39 H51 0.950 . S
C39 C70 1.383 . S
H40 C59 0.947 . S
H41 C60 0.946 . S
H42 C62 0.953 . S
H43 C63 0.945 . S
H44 C65 0.952 . S
H45 C66 0.949 . S
H46 C68 0.950 . S
H47 C69 0.948 . S
H48 C71 0.951 . S
H49 C36 0.947 . S
H50 C38 0.952 . S
H51 C39 0.950 . S
N52 C55 1.382 . S
N52 C57 1.363 . S
N53 C55 1.371 . S
N53 C56 1.372 . S
N54 C56 1.361 . S
N54 C57 1.377 . S
C55 N52 1.382 . S
C55 N53 1.371 . S
C55 C58 1.480 . S
C56 N53 1.372 . S
C56 N54 1.361 . S
C56 C64 1.457 . S
C57 N52 1.363 . S
C57 N54 1.377 . S
C57 C70 1.479 . S
C58 C55 1.480 . S
C58 C59 1.383 . S
C58 C63 1.385 . S
C59 H40 0.947 . S
C59 C58 1.383 . S
C59 C60 1.388 . S
C60 H41 0.946 . S
C60 C59 1.388 . S
C60 C61 1.384 . S
C61 C60 1.384 . S
C61 C62 1.377 . S
C62 H42 0.953 . S
C62 C61 1.377 . S
C62 C63 1.369 . S
C63 H43 0.945 . S
C63 C58 1.385 . S
C63 C62 1.369 . S
C64 C56 1.457 . S
C64 C65 1.372 . S
C64 C69 1.364 . S
C65 H44 0.952 . S
C65 C64 1.372 . S
C65 C66 1.389 . S
C66 H45 0.949 . S
C66 C65 1.389 . S
C66 C67 1.387 . S
C67 C66 1.387 . S
C67 C68 1.372 . S
C68 H46 0.950 . S
C68 C67 1.372 . S
C68 C69 1.379 . S
C69 H47 0.948 . S
C69 C64 1.364 . S
C69 C68 1.379 . S
C70 C39 1.383 . S
C70 C57 1.479 . S
C70 C71 1.398 . S
C71 C36 1.382 . S
C71 H48 0.951 . S
C71 C70 1.398 . S
C72 C73 1.384 . S
C72 H85 0.947 . S
C72 C107 1.382 . S
C73 C72 1.384 . S
C73 C74 1.378 . S
C74 C73 1.378 . S
C74 C75 1.378 . S
C74 H86 0.952 . S
C75 C74 1.378 . S
C75 H87 0.950 . S
C75 C106 1.383 . S
H76 C95 0.947 . S
H77 C96 0.946 . S
H78 C98 0.953 . S
H79 C99 0.945 . S
H80 C101 0.952 . S
H81 C102 0.949 . S
H82 C104 0.950 . S
H83 C105 0.948 . S
H84 C107 0.951 . S
H85 C72 0.947 . S
H86 C74 0.952 . S
H87 C75 0.950 . S
N88 C91 1.382 . S
N88 C93 1.363 . S
N89 C91 1.371 . S
N89 C92 1.372 . S
N90 C92 1.361 . S
N90 C93 1.377 . S
C91 N88 1.382 . S
C91 N89 1.371 . S
C91 C94 1.480 . S
C92 N89 1.372 . S
C92 N90 1.361 . S
C92 C100 1.457 . S
C93 N88 1.363 . S
C93 N90 1.377 . S
C93 C106 1.479 . S
C94 C91 1.480 . S
C94 C95 1.383 . S
C94 C99 1.385 . S
C95 H76 0.947 . S
C95 C94 1.383 . S
C95 C96 1.388 . S
C96 H77 0.946 . S
C96 C95 1.388 . S
C96 C97 1.384 . S
C97 C96 1.384 . S
C97 C98 1.377 . S
C98 H78 0.953 . S
C98 C97 1.377 . S
C98 C99 1.369 . S
C99 H79 0.945 . S
C99 C94 1.385 . S
C99 C98 1.369 . S
C100 C92 1.457 . S
C100 C101 1.372 . S
C100 C105 1.364 . S
C101 H80 0.952 . S
C101 C100 1.372 . S
C101 C102 1.389 . S
C102 H81 0.949 . S
C102 C101 1.389 . S
C102 C103 1.387 . S
C103 C102 1.387 . S
C103 C104 1.372 . S
C104 H82 0.950 . S
C104 C103 1.372 . S
C104 C105 1.379 . S
C105 H83 0.948 . S
C105 C100 1.364 . S
C105 C104 1.379 . S
C106 C75 1.383 . S
C106 C93 1.479 . S
C106 C107 1.398 . S
C107 C72 1.382 . S
C107 H84 0.951 . S
C107 C106 1.398 . S
C108 C109 1.384 . S
C108 H121 0.947 . S
C108 C143 1.382 . S
C109 C108 1.384 . S
C109 C110 1.378 . S
C110 C109 1.378 . S
C110 C111 1.378 . S
C110 H122 0.952 . S
C111 C110 1.378 . S
C111 H123 0.950 . S
C111 C142 1.383 . S
H112 C131 0.947 . S
H113 C132 0.946 . S
H114 C134 0.953 . S
H115 C135 0.945 . S
H116 C137 0.952 . S
H117 C138 0.949 . S
H118 C140 0.950 . S
H119 C141 0.948 . S
H120 C143 0.951 . S
H121 C108 0.947 . S
H122 C110 0.952 . S
H123 C111 0.950 . S
N124 C127 1.382 . S
N124 C129 1.363 . S
N125 C127 1.371 . S
N125 C128 1.372 . S
N126 C128 1.361 . S
N126 C129 1.377 . S
C127 N124 1.382 . S
C127 N125 1.371 . S
C127 C130 1.480 . S
C128 N125 1.372 . S
C128 N126 1.361 . S
C128 C136 1.457 . S
C129 N124 1.363 . S
C129 N126 1.377 . S
C129 C142 1.479 . S
C130 C127 1.480 . S
C130 C131 1.383 . S
C130 C135 1.385 . S
C131 H112 0.947 . S
C131 C130 1.383 . S
C131 C132 1.388 . S
C132 H113 0.946 . S
C132 C131 1.388 . S
C132 C133 1.384 . S
C133 C132 1.384 . S
C133 C134 1.377 . S
C134 H114 0.953 . S
C134 C133 1.377 . S
C134 C135 1.369 . S
C135 H115 0.945 . S
C135 C130 1.385 . S
C135 C134 1.369 . S
C136 C128 1.457 . S
C136 C137 1.372 . S
C136 C141 1.364 . S
C137 H116 0.952 . S
C137 C136 1.372 . S
C137 C138 1.389 . S
C138 H117 0.949 . S
C138 C137 1.389 . S
C138 C139 1.387 . S
C139 C138 1.387 . S
C139 C140 1.372 . S
C140 H118 0.950 . S
C140 C139 1.372 . S
C140 C141 1.379 . S
C141 H119 0.948 . S
C141 C136 1.364 . S
C141 C140 1.379 . S
C142 C111 1.383 . S
C142 C129 1.479 . S
C142 C143 1.398 . S
C143 C108 1.382 . S
C143 H120 0.951 . S
C143 C142 1.398 . S
C144 C145 1.384 . S
C144 H157 0.947 . S
C144 C179 1.382 . S
C145 C144 1.384 . S
C145 C146 1.378 . S
C146 C145 1.378 . S
C146 C147 1.378 . S
C146 H158 0.952 . S
C147 C146 1.378 . S
C147 H159 0.950 . S
C147 C178 1.383 . S
H148 C167 0.947 . S
H149 C168 0.946 . S
H150 C170 0.953 . S
H151 C171 0.945 . S
H152 C173 0.952 . S
H153 C174 0.949 . S
H154 C176 0.950 . S
H155 C177 0.948 . S
H156 C179 0.951 . S
H157 C144 0.947 . S
H158 C146 0.952 . S
H159 C147 0.950 . S
N160 C163 1.382 . S
N160 C165 1.363 . S
N161 C163 1.371 . S
N161 C164 1.372 . S
N162 C164 1.361 . S
N162 C165 1.377 . S
C163 N160 1.382 . S
C163 N161 1.371 . S
C163 C166 1.480 . S
C164 N161 1.372 . S
C164 N162 1.361 . S
C164 C172 1.457 . S
C165 N160 1.363 . S
C165 N162 1.377 . S
C165 C178 1.479 . S
C166 C163 1.480 . S
C166 C167 1.383 . S
C166 C171 1.385 . S
C167 H148 0.947 . S
C167 C166 1.383 . S
C167 C168 1.388 . S
C168 H149 0.946 . S
C168 C167 1.388 . S
C168 C169 1.384 . S
C169 C168 1.384 . S
C169 C170 1.377 . S
C170 H150 0.953 . S
C170 C169 1.377 . S
C170 C171 1.369 . S
C171 H151 0.945 . S
C171 C166 1.385 . S
C171 C170 1.369 . S
C172 C164 1.457 . S
C172 C173 1.372 . S
C172 C177 1.364 . S
C173 H152 0.952 . S
C173 C172 1.372 . S
C173 C174 1.389 . S
C174 H153 0.949 . S
C174 C173 1.389 . S
C174 C175 1.387 . S
C175 C174 1.387 . S
C175 C176 1.372 . S
C176 H154 0.950 . S
C176 C175 1.372 . S
C176 C177 1.379 . S
C177 H155 0.948 . S
C177 C172 1.364 . S
C177 C176 1.379 . S
C178 C147 1.383 . S
C178 C165 1.479 . S
C178 C179 1.398 . S
C179 C144 1.382 . S
C179 H156 0.951 . S
C179 C178 1.398 . S
C180 C181 1.384 . S
C180 H193 0.947 . S
C180 C215 1.382 . S
C181 C180 1.384 . S
C181 C182 1.378 . S
C182 C181 1.378 . S
C182 C183 1.378 . S
C182 H194 0.952 . S
C183 C182 1.378 . S
C183 H195 0.950 . S
C183 C214 1.383 . S
H184 C203 0.947 . S
H185 C204 0.946 . S
H186 C206 0.953 . S
H187 C207 0.945 . S
H188 C209 0.952 . S
H189 C210 0.949 . S
H190 C212 0.950 . S
H191 C213 0.948 . S
H192 C215 0.951 . S
H193 C180 0.947 . S
H194 C182 0.952 . S
H195 C183 0.950 . S
N196 C199 1.382 . S
N196 C201 1.363 . S
N197 C199 1.371 . S
N197 C200 1.372 . S
N198 C200 1.361 . S
N198 C201 1.377 . S
C199 N196 1.382 . S
C199 N197 1.371 . S
C199 C202 1.480 . S
C200 N197 1.372 . S
C200 N198 1.361 . S
C200 C208 1.457 . S
C201 N196 1.363 . S
C201 N198 1.377 . S
C201 C214 1.479 . S
C202 C199 1.480 . S
C202 C203 1.383 . S
C202 C207 1.385 . S
C203 H184 0.947 . S
C203 C202 1.383 . S
C203 C204 1.388 . S
C204 H185 0.946 . S
C204 C203 1.388 . S
C204 C205 1.384 . S
C205 C204 1.384 . S
C205 C206 1.377 . S
C206 H186 0.953 . S
C206 C205 1.377 . S
C206 C207 1.369 . S
C207 H187 0.945 . S
C207 C202 1.385 . S
C207 C206 1.369 . S
C208 C200 1.457 . S
C208 C209 1.372 . S
C208 C213 1.364 . S
C209 H188 0.952 . S
C209 C208 1.372 . S
C209 C210 1.389 . S
C210 H189 0.949 . S
C210 C209 1.389 . S
C210 C211 1.387 . S
C211 C210 1.387 . S
C211 C212 1.372 . S
C212 H190 0.950 . S
C212 C211 1.372 . S
C212 C213 1.379 . S
C213 H191 0.948 . S
C213 C208 1.364 . S
C213 C212 1.379 . S
C214 C183 1.383 . S
C214 C201 1.479 . S
C214 C215 1.398 . S
C215 C180 1.382 . S
C215 H192 0.951 . S
C215 C214 1.398 . S
C216 C217 1.384 . S
C216 H229 0.947 . S
C216 C251 1.382 . S
C217 C216 1.384 . S
C217 C218 1.378 . S
C218 C217 1.378 . S
C218 C219 1.378 . S
C218 H230 0.952 . S
C219 C218 1.378 . S
C219 H231 0.950 . S
C219 C250 1.383 . S
H220 C239 0.947 . S
H221 C240 0.946 . S
H222 C242 0.953 . S
H223 C243 0.945 . S
H224 C245 0.952 . S
H225 C246 0.949 . S
H226 C248 0.950 . S
H227 C249 0.948 . S
H228 C251 0.951 . S
H229 C216 0.947 . S
H230 C218 0.952 . S
H231 C219 0.950 . S
N232 C235 1.382 . S
N232 C237 1.363 . S
N233 C235 1.371 . S
N233 C236 1.372 . S
N234 C236 1.361 . S
N234 C237 1.377 . S
C235 N232 1.382 . S
C235 N233 1.371 . S
C235 C238 1.480 . S
C236 N233 1.372 . S
C236 N234 1.361 . S
C236 C244 1.457 . S
C237 N232 1.363 . S
C237 N234 1.377 . S
C237 C250 1.479 . S
C238 C235 1.480 . S
C238 C239 1.383 . S
C238 C243 1.385 . S
C239 H220 0.947 . S
C239 C238 1.383 . S
C239 C240 1.388 . S
C240 H221 0.946 . S
C240 C239 1.388 . S
C240 C241 1.384 . S
C241 C240 1.384 . S
C241 C242 1.377 . S
C242 H222 0.953 . S
C242 C241 1.377 . S
C242 C243 1.369 . S
C243 H223 0.945 . S
C243 C238 1.385 . S
C243 C242 1.369 . S
C244 C236 1.457 . S
C244 C245 1.372 . S
C244 C249 1.364 . S
C245 H224 0.952 . S
C245 C244 1.372 . S
C245 C246 1.389 . S
C246 H225 0.949 . S
C246 C245 1.389 . S
C246 C247 1.387 . S
C247 C246 1.387 . S
C247 C248 1.372 . S
C248 H226 0.950 . S
C248 C247 1.372 . S
C248 C249 1.379 . S
C249 H227 0.948 . S
C249 C244 1.364 . S
C249 C248 1.379 . S
C250 C219 1.383 . S
C250 C237 1.479 . S
C250 C251 1.398 . S
C251 C216 1.382 . S
C251 H228 0.951 . S
C251 C250 1.398 . S
C252 C253 1.384 . S
C252 H265 0.947 . S
C252 C287 1.382 . S
C253 C252 1.384 . S
C253 C254 1.378 . S
C254 C253 1.378 . S
C254 C255 1.378 . S
C254 H266 0.952 . S
C255 C254 1.378 . S
C255 H267 0.950 . S
C255 C286 1.383 . S
H256 C275 0.947 . S
H257 C276 0.946 . S
H258 C278 0.953 . S
H259 C279 0.945 . S
H260 C281 0.952 . S
H261 C282 0.949 . S
H262 C284 0.950 . S
H263 C285 0.948 . S
H264 C287 0.951 . S
H265 C252 0.947 . S
H266 C254 0.952 . S
H267 C255 0.950 . S
N268 C271 1.382 . S
N268 C273 1.363 . S
N269 C271 1.371 . S
N269 C272 1.372 . S
N270 C272 1.361 . S
N270 C273 1.377 . S
C271 N268 1.382 . S
C271 N269 1.371 . S
C271 C274 1.480 . S
C272 N269 1.372 . S
C272 N270 1.361 . S
C272 C280 1.457 . S
C273 N268 1.363 . S
C273 N270 1.377 . S
C273 C286 1.479 . S
C274 C271 1.480 . S
C274 C275 1.383 . S
C274 C279 1.385 . S
C275 H256 0.947 . S
C275 C274 1.383 . S
C275 C276 1.388 . S
C276 H257 0.946 . S
C276 C275 1.388 . S
C276 C277 1.384 . S
C277 C276 1.384 . S
C277 C278 1.377 . S
C278 H258 0.953 . S
C278 C277 1.377 . S
C278 C279 1.369 . S
C279 H259 0.945 . S
C279 C274 1.385 . S
C279 C278 1.369 . S
C280 C272 1.457 . S
C280 C281 1.372 . S
C280 C285 1.364 . S
C281 H260 0.952 . S
C281 C280 1.372 . S
C281 C282 1.389 . S
C282 H261 0.949 . S
C282 C281 1.389 . S
C282 C283 1.387 . S
C283 C282 1.387 . S
C283 C284 1.372 . S
C284 H262 0.950 . S
C284 C283 1.372 . S
C284 C285 1.379 . S
C285 H263 0.948 . S
C285 C280 1.364 . S
C285 C284 1.379 . S
C286 C255 1.383 . S
C286 C273 1.479 . S
C286 C287 1.398 . S
C287 C252 1.382 . S
C287 H264 0.951 . S
C287 C286 1.398 . S
Zn288 O294 1.969 1_545 S
Zn288 O295 1.965 1_545 S
Zn288 O299 2.024 . S
Zn288 O304 1.969 . S
Zn289 O296 1.969 . S
Zn289 O302 1.969 1_565 S
Zn289 O303 1.951 1_665 S
Zn289 O305 2.024 . S
C290 O291 1.229 . S
C290 O299 1.058 . S
O291 C290 1.229 . S
C292 O293 1.229 . S
C292 O305 1.058 . S
O293 C292 1.229 . S
O294 Zn288 1.969 1_565 S
O294 C297 1.267 . S
O295 Zn288 1.965 1_565 S
O295 C306 1.260 1_455 S
O296 Zn289 1.969 . S
O296 C306 1.258 . S
C297 O294 1.267 . S
C297 O298 1.228 . S
O298 C297 1.228 . S
O299 Zn288 2.024 . S
O299 C290 1.058 . S
C300 O301 1.228 . S
C300 O302 1.267 . S
O301 C300 1.228 . S
O302 Zn289 1.969 1_545 S
O302 C300 1.267 . S
O303 Zn289 1.951 1_445 S
O303 C307 1.278 . S
O304 Zn288 1.969 . S
O304 C307 1.258 . S
O305 Zn289 2.024 . S
O305 C292 1.058 . S
C306 O295 1.260 1_655 S
C306 O296 1.258 . S
C307 O303 1.278 . S
C307 O304 1.258 . S
Zn308 O314 1.969 . S
Zn308 O315 1.965 1_565 S
Zn308 O319 2.024 . S
Zn308 O324 1.969 1_556 S
Zn309 O316 1.969 . S
Zn309 O322 1.969 . S
Zn309 O323 1.965 1_545 S
Zn309 O325 2.024 . S
C310 O311 1.229 . S
C310 O319 1.058 . S
O311 C310 1.229 . S
C312 O313 1.229 . S
C312 O325 1.058 . S
O313 C312 1.229 . S
O314 Zn308 1.969 . S
O314 C317 1.267 . S
O315 Zn308 1.965 1_545 S
O315 C326 1.260 . S
O316 Zn309 1.969 . S
O316 C326 1.258 1_554 S
C317 O314 1.267 . S
C317 O318 1.228 . S
O318 C317 1.228 . S
O319 Zn308 2.024 . S
O319 C310 1.058 . S
C320 O321 1.228 . S
C320 O322 1.267 . S
O321 C320 1.228 . S
O322 Zn309 1.969 . S
O322 C320 1.267 . S
O323 Zn309 1.965 1_565 S
O323 C327 1.260 . S
O324 Zn308 1.969 1_554 S
O324 C327 1.258 . S
O325 Zn309 2.024 . S
O325 C312 1.058 . S
C326 O315 1.260 . S
C326 O316 1.258 1_556 S
C327 O323 1.260 . S
C327 O324 1.258 . S
Zn328 O334 1.969 . S
Zn328 O335 1.965 . S
Zn328 O339 2.024 . S
Zn328 O344 1.969 . S
Zn329 O336 1.969 . S
Zn329 O342 1.969 . S
Zn329 O343 1.965 . S
Zn329 O345 2.024 . S
C330 O331 1.229 . S
C330 O339 1.058 . S
O331 C330 1.229 . S
C332 O333 1.229 . S
C332 O345 1.058 . S
O333 C332 1.229 . S
O334 Zn328 1.969 . S
O334 C337 1.267 . S
O335 Zn328 1.965 . S
O335 C346 1.260 . S
O336 Zn329 1.969 . S
O336 C346 1.258 . S
C337 O334 1.267 . S
C337 O338 1.228 . S
O338 C337 1.228 . S
O339 Zn328 2.024 . S
O339 C330 1.058 . S
C340 O341 1.228 . S
C340 O342 1.267 . S
O341 C340 1.228 . S
O342 Zn329 1.969 . S
O342 C340 1.267 . S
O343 Zn329 1.965 . S
O343 C347 1.260 . S
O344 Zn328 1.969 . S
O344 C347 1.258 . S
O345 Zn329 2.024 . S
O345 C332 1.058 . S
C346 O335 1.260 . S
C346 O336 1.258 . S
C347 O343 1.260 . S
C347 O344 1.258 . S
Zn348 O354 1.969 . S
Zn348 O355 1.965 1_556 S
Zn348 O359 2.024 . S
Zn348 O364 1.969 1_655 S
Zn349 O356 1.969 . S
Zn349 O362 1.969 . S
Zn349 O363 1.965 1_554 S
Zn349 O365 2.024 . S
C350 O351 1.229 . S
C350 O359 1.058 . S
O351 C350 1.229 . S
C352 O353 1.229 . S
C352 O365 1.058 . S
O353 C352 1.229 . S
O354 Zn348 1.969 . S
O354 C357 1.267 . S
O355 Zn348 1.965 1_554 S
O355 C366 1.260 . S
O356 Zn349 1.969 . S
O356 C366 1.258 1_455 S
C357 O354 1.267 . S
C357 O358 1.228 . S
O358 C357 1.228 . S
O359 Zn348 2.024 . S
O359 C350 1.058 . S
C360 O361 1.228 . S
C360 O362 1.267 . S
O361 C360 1.228 . S
O362 Zn349 1.969 . S
O362 C360 1.267 . S
O363 Zn349 1.965 1_556 S
O363 C367 1.260 . S
O364 Zn348 1.969 1_455 S
O364 C367 1.258 . S
O365 Zn349 2.024 . S
O365 C352 1.058 . S
C366 O355 1.260 . S
C366 O356 1.258 1_655 S
C367 O363 1.260 . S
C367 O364 1.258 . S
C368 C369 1.391 . S
C368 C370 1.394 . S
C368 H384 0.931 . S
C369 C368 1.391 . S
C369 C373 1.376 . S
C370 C368 1.394 . S
C370 C371 1.369 . S
C370 C374 1.531 . S
C371 C370 1.369 . S
C371 C372 1.410 . S
C371 C379 1.503 . S
C372 C371 1.410 . S
C372 C373 1.392 . S
C372 C375 1.511 . S
C373 C369 1.376 . S
C373 C372 1.392 . S
C373 H385 0.929 . S
C374 C370 1.531 . S
C374 H386 0.960 . S
C374 H387 0.962 . S
C374 H388 0.960 . S
C375 C372 1.511 . S
C375 H389 0.961 . S
C375 H390 0.961 . S
C375 H391 0.961 . S
C376 C377 1.370 . S
C376 C378 1.363 . S
C376 H392 0.931 . S
C377 C376 1.370 . S
C377 C381 1.408 . S
C378 C376 1.363 . S
C378 C379 1.370 . S
C378 C382 1.524 . S
C379 C371 1.503 . S
C379 C378 1.370 . S
C379 C380 1.403 . S
C380 C379 1.403 . S
C380 C381 1.404 . S
C380 C383 1.539 . S
C381 C377 1.408 . S
C381 C380 1.404 . S
C381 H393 0.928 . S
C382 C378 1.524 . S
C382 H394 0.956 . S
C382 H395 0.961 . S
C382 H396 0.961 . S
C383 C380 1.539 . S
C383 H397 0.958 . S
C383 H398 0.976 . S
C383 H399 0.960 . S
H384 C368 0.931 . S
H385 C373 0.929 . S
H386 C374 0.960 . S
H387 C374 0.962 . S
H388 C374 0.960 . S
H389 C375 0.961 . S
H390 C375 0.961 . S
H391 C375 0.961 . S
H392 C376 0.931 . S
H393 C381 0.928 . S
H394 C382 0.956 . S
H395 C382 0.961 . S
H396 C382 0.961 . S
H397 C383 0.958 . S
H398 C383 0.976 . S
H399 C383 0.960 . S
C400 C401 1.391 . S
C400 C402 1.394 . S
C400 H416 0.931 . S
C401 C400 1.391 . S
C401 C405 1.376 . S
C402 C400 1.394 . S
C402 C403 1.369 . S
C402 C406 1.531 . S
C403 C402 1.369 . S
C403 C404 1.410 . S
C403 C411 1.503 . S
C404 C403 1.410 . S
C404 C405 1.392 . S
C404 C407 1.511 . S
C405 C401 1.376 . S
C405 C404 1.392 . S
C405 H417 0.929 . S
C406 C402 1.531 . S
C406 H418 0.960 . S
C406 H419 0.962 . S
C406 H420 0.960 . S
C407 C404 1.511 . S
C407 H421 0.961 . S
C407 H422 0.961 . S
C407 H423 0.961 . S
C408 C409 1.370 . S
C408 C410 1.363 . S
C408 H424 0.931 . S
C409 C408 1.370 . S
C409 C413 1.408 . S
C410 C408 1.363 . S
C410 C411 1.370 . S
C410 C414 1.524 . S
C411 C403 1.503 . S
C411 C410 1.370 . S
C411 C412 1.403 . S
C412 C411 1.403 . S
C412 C413 1.404 . S
C412 C415 1.539 . S
C413 C409 1.408 . S
C413 C412 1.404 . S
C413 H425 0.930 . S
C414 C410 1.524 . S
C414 H426 0.956 . S
C414 H427 0.961 . S
C414 H428 0.961 . S
C415 C412 1.539 . S
C415 H429 0.958 . S
C415 H430 0.961 . S
C415 H431 0.960 . S
H416 C400 0.931 . S
H417 C405 0.929 . S
H418 C406 0.960 . S
H419 C406 0.962 . S
H420 C406 0.960 . S
H421 C407 0.961 . S
H422 C407 0.961 . S
H423 C407 0.961 . S
H424 C408 0.931 . S
H425 C413 0.930 . S
H426 C414 0.956 . S
H427 C414 0.961 . S
H428 C414 0.961 . S
H429 C415 0.958 . S
H430 C415 0.961 . S
H431 C415 0.960 . S
C432 C433 1.391 . S
C432 C434 1.394 . S
C432 H448 0.931 . S
C433 C432 1.391 . S
C433 C437 1.376 . S
C434 C432 1.394 . S
C434 C435 1.369 . S
C434 C438 1.531 . S
C435 C434 1.369 . S
C435 C436 1.410 . S
C435 C443 1.503 . S
C436 C435 1.410 . S
C436 C437 1.392 . S
C436 C439 1.511 . S
C437 C433 1.376 . S
C437 C436 1.392 . S
C437 H449 0.929 . S
C438 C434 1.531 . S
C438 H450 0.960 . S
C438 H451 0.962 . S
C438 H452 0.960 . S
C439 C436 1.511 . S
C439 H453 0.961 . S
C439 H454 0.961 . S
C439 H455 0.961 . S
C440 C441 1.370 . S
C440 C442 1.363 . S
C440 H456 0.931 . S
C441 C440 1.370 . S
C441 C445 1.408 . S
C442 C440 1.363 . S
C442 C443 1.370 . S
C442 C446 1.524 . S
C443 C435 1.503 . S
C443 C442 1.370 . S
C443 C444 1.403 . S
C444 C443 1.403 . S
C444 C445 1.404 . S
C444 C447 1.539 . S
C445 C441 1.408 . S
C445 C444 1.404 . S
C445 H457 0.930 . S
C446 C442 1.524 . S
C446 H458 0.956 . S
C446 H459 0.961 . S
C446 H460 0.961 . S
C447 C444 1.539 . S
C447 H461 0.958 . S
C447 H462 0.961 . S
C447 H463 0.960 . S
H448 C432 0.931 . S
H449 C437 0.929 . S
H450 C438 0.960 . S
H451 C438 0.962 . S
H452 C438 0.960 . S
H453 C439 0.961 . S
H454 C439 0.961 . S
H455 C439 0.961 . S
H456 C440 0.931 . S
H457 C445 0.930 . S
H458 C446 0.956 . S
H459 C446 0.961 . S
H460 C446 0.961 . S
H461 C447 0.958 . S
H462 C447 0.961 . S
H463 C447 0.960 . S
C464 C465 1.391 . S
C464 C466 1.394 . S
C464 H480 0.931 . S
C465 C464 1.391 . S
C465 C469 1.376 . S
C466 C464 1.394 . S
C466 C467 1.369 . S
C466 C470 1.531 . S
C467 C466 1.369 . S
C467 C468 1.410 . S
C467 C475 1.503 . S
C468 C467 1.410 . S
C468 C469 1.392 . S
C468 C471 1.511 . S
C469 C465 1.376 . S
C469 C468 1.392 . S
C469 H481 0.929 . S
C470 C466 1.531 . S
C470 H482 0.960 . S
C470 H483 0.962 . S
C470 H484 0.960 . S
C471 C468 1.511 . S
C471 H485 0.961 . S
C471 H486 0.961 . S
C471 H487 0.961 . S
C472 C473 1.370 . S
C472 C474 1.363 . S
C472 H488 0.931 . S
C473 C472 1.370 . S
C473 C477 1.408 . S
C474 C472 1.363 . S
C474 C475 1.370 . S
C474 C478 1.524 . S
C475 C467 1.503 . S
C475 C474 1.370 . S
C475 C476 1.403 . S
C476 C475 1.403 . S
C476 C477 1.404 . S
C476 C479 1.539 . S
C477 C473 1.408 . S
C477 C476 1.404 . S
C477 H489 0.930 . S
C478 C474 1.524 . S
C478 H490 0.956 . S
C478 H491 0.961 . S
C478 H492 0.961 . S
C479 C476 1.539 . S
C479 H493 0.958 . S
C479 H494 0.961 . S
C479 H495 0.960 . S
H480 C464 0.931 . S
H481 C469 0.929 . S
H482 C470 0.960 . S
H483 C470 0.962 . S
H484 C470 0.960 . S
H485 C471 0.961 . S
H486 C471 0.961 . S
H487 C471 0.961 . S
H488 C472 0.931 . S
H489 C477 0.930 . S
H490 C478 0.956 . S
H491 C478 0.961 . S
H492 C478 0.961 . S
H493 C479 0.958 . S
H494 C479 0.961 . S
H495 C479 0.960 . S
C496 C497 1.391 . S
C496 C498 1.394 . S
C496 H512 0.931 . S
C497 C496 1.391 . S
C497 C501 1.376 . S
C498 C496 1.394 . S
C498 C499 1.369 . S
C498 C502 1.531 . S
C499 C498 1.369 . S
C499 C500 1.410 . S
C499 C507 1.503 . S
C500 C499 1.410 . S
C500 C501 1.392 . S
C500 C503 1.511 . S
C501 C497 1.376 . S
C501 C500 1.392 . S
C501 H513 0.929 . S
C502 C498 1.531 . S
C502 H514 0.960 . S
C502 H515 0.962 . S
C502 H516 0.960 . S
C503 C500 1.511 . S
C503 H517 0.961 . S
C503 H518 0.961 . S
C503 H519 0.961 . S
C504 C505 1.370 . S
C504 C506 1.363 . S
C504 H520 0.931 . S
C505 C504 1.370 . S
C505 C509 1.408 . S
C506 C504 1.363 . S
C506 C507 1.370 . S
C506 C510 1.524 . S
C507 C499 1.503 . S
C507 C506 1.370 . S
C507 C508 1.403 . S
C508 C507 1.403 . S
C508 C509 1.404 . S
C508 C511 1.539 . S
C509 C505 1.408 . S
C509 C508 1.404 . S
C509 H521 0.930 . S
C510 C506 1.524 . S
C510 H522 0.956 . S
C510 H523 0.961 . S
C510 H524 0.961 . S
C511 C508 1.539 . S
C511 H525 0.958 . S
C511 H526 0.961 . S
C511 H527 0.960 . S
H512 C496 0.931 . S
H513 C501 0.929 . S
H514 C502 0.960 . S
H515 C502 0.962 . S
H516 C502 0.960 . S
H517 C503 0.961 . S
H518 C503 0.961 . S
H519 C503 0.961 . S
H520 C504 0.931 . S
H521 C509 0.930 . S
H522 C510 0.956 . S
H523 C510 0.961 . S
H524 C510 0.961 . S
H525 C511 0.958 . S
H526 C511 0.961 . S
H527 C511 0.960 . S
C528 C529 1.391 . S
C528 C530 1.394 . S
C528 H544 0.931 . S
C529 C528 1.391 . S
C529 C533 1.376 . S
C530 C528 1.394 . S
C530 C531 1.369 . S
C530 C534 1.531 . S
C531 C530 1.369 . S
C531 C532 1.410 . S
C531 C539 1.503 . S
C532 C531 1.410 . S
C532 C533 1.392 . S
C532 C535 1.511 . S
C533 C529 1.376 . S
C533 C532 1.392 . S
C533 H545 0.929 . S
C534 C530 1.531 . S
C534 H546 0.960 . S
C534 H547 0.962 . S
C534 H548 0.960 . S
C535 C532 1.511 . S
C535 H549 0.961 . S
C535 H550 0.961 . S
C535 H551 0.961 . S
C536 C537 1.370 . S
C536 C538 1.363 . S
C536 H552 0.931 . S
C537 C536 1.370 . S
C537 C541 1.408 . S
C538 C536 1.363 . S
C538 C539 1.370 . S
C538 C542 1.524 . S
C539 C531 1.503 . S
C539 C538 1.370 . S
C539 C540 1.403 . S
C540 C539 1.403 . S
C540 C541 1.404 . S
C540 C543 1.539 . S
C541 C537 1.408 . S
C541 C540 1.404 . S
C541 H553 0.930 . S
C542 C538 1.524 . S
C542 H554 0.956 . S
C542 H555 0.961 . S
C542 H556 0.961 . S
C543 C540 1.539 . S
C543 H557 0.958 . S
C543 H558 0.961 . S
C543 H559 0.960 . S
H544 C528 0.931 . S
H545 C533 0.929 . S
H546 C534 0.960 . S
H547 C534 0.962 . S
H548 C534 0.960 . S
H549 C535 0.961 . S
H550 C535 0.961 . S
H551 C535 0.961 . S
H552 C536 0.931 . S
H553 C541 0.930 . S
H554 C542 0.956 . S
H555 C542 0.961 . S
H556 C542 0.961 . S
H557 C543 0.958 . S
H558 C543 0.961 . S
H559 C543 0.960 . S
C560 C561 1.391 . S
C560 C562 1.394 . S
C560 H576 0.931 . S
C561 C560 1.391 . S
C561 C565 1.376 . S
C562 C560 1.394 . S
C562 C563 1.369 . S
C562 C566 1.531 . S
C563 C562 1.369 . S
C563 C564 1.410 . S
C563 C571 1.503 . S
C564 C563 1.410 . S
C564 C565 1.392 . S
C564 C567 1.511 . S
C565 C561 1.376 . S
C565 C564 1.392 . S
C565 H577 0.929 . S
C566 C562 1.531 . S
C566 H578 0.960 . S
C566 H579 0.962 . S
C566 H580 0.960 . S
C567 C564 1.511 . S
C567 H581 0.961 . S
C567 H582 0.961 . S
C567 H583 0.961 . S
C568 C569 1.370 . S
C568 C570 1.363 . S
C568 H584 0.931 . S
C569 C568 1.370 . S
C569 C573 1.408 . S
C570 C568 1.363 . S
C570 C571 1.370 . S
C570 C574 1.524 . S
C571 C563 1.503 . S
C571 C570 1.370 . S
C571 C572 1.403 . S
C572 C571 1.403 . S
C572 C573 1.404 . S
C572 C575 1.539 . S
C573 C569 1.408 . S
C573 C572 1.404 . S
C573 H585 0.930 . S
C574 C570 1.524 . S
C574 H586 0.956 . S
C574 H587 0.961 . S
C574 H588 0.961 . S
C575 C572 1.539 . S
C575 H589 0.958 . S
C575 H590 0.961 . S
C575 H591 0.960 . S
H576 C560 0.931 . S
H577 C565 0.929 . S
H578 C566 0.960 . S
H579 C566 0.962 . S
H580 C566 0.960 . S
H581 C567 0.961 . S
H582 C567 0.961 . S
H583 C567 0.961 . S
H584 C568 0.931 . S
H585 C573 0.930 . S
H586 C574 0.956 . S
H587 C574 0.961 . S
H588 C574 0.961 . S
H589 C575 0.958 . S
H590 C575 0.961 . S
H591 C575 0.960 . S
C592 C593 1.391 . S
C592 C594 1.394 . S
C592 H608 0.931 . S
C593 C592 1.391 . S
C593 C597 1.376 . S
C594 C592 1.394 . S
C594 C595 1.369 . S
C594 C598 1.531 . S
C595 C594 1.369 . S
C595 C596 1.410 . S
C595 C603 1.503 . S
C596 C595 1.410 . S
C596 C597 1.392 . S
C596 C599 1.511 . S
C597 C593 1.376 . S
C597 C596 1.392 . S
C597 H609 0.929 . S
C598 C594 1.531 . S
C598 H610 0.960 . S
C598 H611 0.962 . S
C598 H612 0.960 . S
C599 C596 1.511 . S
C599 H613 0.961 . S
C599 H614 0.961 . S
C599 H615 0.961 . S
C600 C601 1.370 . S
C600 C602 1.363 . S
C600 H616 0.931 . S
C601 C600 1.370 . S
C601 C605 1.408 . S
C602 C600 1.363 . S
C602 C603 1.370 . S
C602 C606 1.524 . S
C603 C595 1.503 . S
C603 C602 1.370 . S
C603 C604 1.403 . S
C604 C603 1.403 . S
C604 C605 1.404 . S
C604 C607 1.539 . S
C605 C601 1.408 . S
C605 C604 1.404 . S
C605 H617 0.930 . S
C606 C602 1.524 . S
C606 H618 0.956 . S
C606 H619 0.961 . S
C606 H620 0.961 . S
C607 C604 1.539 . S
C607 H621 0.958 . S
C607 H622 0.961 . S
C607 H623 0.960 . S
H608 C592 0.931 . S
H609 C597 0.929 . S
H610 C598 0.960 . S
H611 C598 0.962 . S
H612 C598 0.960 . S
H613 C599 0.961 . S
H614 C599 0.961 . S
H615 C599 0.961 . S
H616 C600 0.931 . S
H617 C605 0.930 . S
H618 C606 0.956 . S
H619 C606 0.961 . S
H620 C606 0.961 . S
H621 C607 0.958 . S
H622 C607 0.961 . S
H623 C607 0.960 . S
C624 C625 1.391 . S
C624 C626 1.394 . S
C624 H640 0.931 . S
C625 C624 1.391 . S
C625 C629 1.376 . S
C626 C624 1.394 . S
C626 C627 1.369 . S
C626 C630 1.531 . S
C627 C626 1.369 . S
C627 C628 1.410 . S
C627 C635 1.503 . S
C628 C627 1.410 . S
C628 C629 1.392 . S
C628 C631 1.511 . S
C629 C625 1.376 . S
C629 C628 1.392 . S
C629 H641 0.929 . S
C630 C626 1.531 . S
C630 H642 0.960 . S
C630 H643 0.962 . S
C630 H644 0.960 . S
C631 C628 1.511 . S
C631 H645 0.961 . S
C631 H646 0.961 . S
C631 H647 0.961 . S
C632 C633 1.370 . S
C632 C634 1.363 . S
C632 H648 0.931 . S
C633 C632 1.370 . S
C633 C637 1.408 . S
C634 C632 1.363 . S
C634 C635 1.370 . S
C634 C638 1.524 . S
C635 C627 1.503 . S
C635 C634 1.370 . S
C635 C636 1.403 . S
C636 C635 1.403 . S
C636 C637 1.404 . S
C636 C639 1.539 . S
C637 C633 1.408 . S
C637 C636 1.404 . S
C637 H649 0.930 . S
C638 C634 1.524 . S
C638 H650 0.956 . S
C638 H651 0.961 . S
C638 H652 0.961 . S
C639 C636 1.539 . S
C639 H653 0.958 . S
C639 H654 0.961 . S
C639 H655 0.960 . S
H640 C624 0.931 . S
H641 C629 0.929 . S
H642 C630 0.960 . S
H643 C630 0.962 . S
H644 C630 0.960 . S
H645 C631 0.961 . S
H646 C631 0.961 . S
H647 C631 0.961 . S
H648 C632 0.931 . S
H649 C637 0.930 . S
H650 C638 0.956 . S
H651 C638 0.961 . S
H652 C638 0.961 . S
H653 C639 0.958 . S
H654 C639 0.961 . S
H655 C639 0.960 . S
C656 C657 1.391 . S
C656 C658 1.394 . S
C656 H672 0.931 . S
C657 C656 1.391 . S
C657 C661 1.376 . S
C658 C656 1.394 . S
C658 C659 1.369 . S
C658 C662 1.531 . S
C659 C658 1.369 . S
C659 C660 1.410 . S
C659 C667 1.503 . S
C660 C659 1.410 . S
C660 C661 1.392 . S
C660 C663 1.511 . S
C661 C657 1.376 . S
C661 C660 1.392 . S
C661 H673 0.929 . S
C662 C658 1.531 . S
C662 H674 0.960 . S
C662 H675 0.962 . S
C662 H676 0.960 . S
C663 C660 1.511 . S
C663 H677 0.961 . S
C663 H678 0.961 . S
C663 H679 0.961 . S
C664 C665 1.370 . S
C664 C666 1.363 . S
C664 H680 0.931 . S
C665 C664 1.370 . S
C665 C669 1.408 . S
C666 C664 1.363 . S
C666 C667 1.370 . S
C666 C670 1.524 . S
C667 C659 1.503 . S
C667 C666 1.370 . S
C667 C668 1.403 . S
C668 C667 1.403 . S
C668 C669 1.404 . S
C668 C671 1.539 . S
C669 C665 1.408 . S
C669 C668 1.404 . S
C669 H681 0.930 . S
C670 C666 1.524 . S
C670 H682 0.956 . S
C670 H683 0.961 . S
C670 H684 0.961 . S
C671 C668 1.539 . S
C671 H685 0.958 . S
C671 H686 0.961 . S
C671 H687 0.960 . S
H672 C656 0.931 . S
H673 C661 0.929 . S
H674 C662 0.960 . S
H675 C662 0.962 . S
H676 C662 0.960 . S
H677 C663 0.961 . S
H678 C663 0.961 . S
H679 C663 0.961 . S
H680 C664 0.931 . S
H681 C669 0.930 . S
H682 C670 0.956 . S
H683 C670 0.961 . S
H684 C670 0.961 . S
H685 C671 0.958 . S
H686 C671 0.961 . S
H687 C671 0.960 . S
C688 C689 1.391 . S
C688 C690 1.394 . S
C688 H704 0.931 . S
C689 C688 1.391 . S
C689 C693 1.376 . S
C690 C688 1.394 . S
C690 C691 1.369 . S
C690 C694 1.531 . S
C691 C690 1.369 . S
C691 C692 1.410 . S
C691 C699 1.503 . S
C692 C691 1.410 . S
C692 C693 1.392 . S
C692 C695 1.511 . S
C693 C689 1.376 . S
C693 C692 1.392 . S
C693 H705 0.929 . S
C694 C690 1.531 . S
C694 H706 0.960 . S
C694 H707 0.962 . S
C694 H708 0.960 . S
C695 C692 1.511 . S
C695 H709 0.961 . S
C695 H710 0.961 . S
C695 H711 0.961 . S
C696 C697 1.370 . S
C696 C698 1.363 . S
C696 H712 0.931 . S
C697 C696 1.370 . S
C697 C701 1.408 . S
C698 C696 1.363 . S
C698 C699 1.370 . S
C698 C702 1.524 . S
C699 C691 1.503 . S
C699 C698 1.370 . S
C699 C700 1.403 . S
C700 C699 1.403 . S
C700 C701 1.404 . S
C700 C703 1.539 . S
C701 C697 1.408 . S
C701 C700 1.404 . S
C701 H713 0.930 . S
C702 C698 1.524 . S
C702 H714 0.956 . S
C702 H715 0.961 . S
C702 H716 0.961 . S
C703 C700 1.539 . S
C703 H717 0.958 . S
C703 H718 0.961 1_655 S
C703 H719 0.960 . S
H704 C688 0.931 . S
H705 C693 0.929 . S
H706 C694 0.960 . S
H707 C694 0.962 . S
H708 C694 0.960 . S
H709 C695 0.961 . S
H710 C695 0.961 . S
H711 C695 0.961 . S
H712 C696 0.931 . S
H713 C701 0.930 . S
H714 C702 0.956 . S
H715 C702 0.961 . S
H716 C702 0.961 . S
H717 C703 0.958 . S
H718 C703 0.961 1_455 S
H719 C703 0.960 . S
C720 C721 1.391 . S
C720 C722 1.394 . S
C720 H736 0.931 . S
C721 C720 1.391 . S
C721 C725 1.376 . S
C722 C720 1.394 . S
C722 C723 1.369 . S
C722 C726 1.531 . S
C723 C722 1.369 . S
C723 C724 1.410 . S
C723 C731 1.503 . S
C724 C723 1.410 . S
C724 C725 1.392 . S
C724 C727 1.511 . S
C725 C721 1.376 . S
C725 C724 1.392 . S
C725 H737 0.929 . S
C726 C722 1.531 . S
C726 H738 0.960 . S
C726 H739 0.962 . S
C726 H740 0.960 . S
C727 C724 1.511 . S
C727 H741 0.961 . S
C727 H742 0.961 . S
C727 H743 0.961 . S
C728 C729 1.370 . S
C728 C730 1.363 . S
C728 H744 0.931 . S
C729 C728 1.370 . S
C729 C733 1.408 . S
C730 C728 1.363 . S
C730 C731 1.370 . S
C730 C734 1.524 . S
C731 C723 1.503 . S
C731 C730 1.370 . S
C731 C732 1.403 . S
C732 C731 1.403 . S
C732 C733 1.404 . S
C732 C735 1.539 . S
C733 C729 1.408 . S
C733 C732 1.404 . S
C733 H745 0.930 . S
C734 C730 1.524 . S
C734 H746 0.956 . S
C734 H747 0.961 . S
C734 H748 0.961 . S
C735 C732 1.539 . S
C735 H749 0.958 . S
C735 H750 0.961 . S
C735 H751 0.960 . S
H736 C720 0.931 . S
H737 C725 0.929 . S
H738 C726 0.960 . S
H739 C726 0.962 . S
H740 C726 0.960 . S
H741 C727 0.961 . S
H742 C727 0.961 . S
H743 C727 0.961 . S
H744 C728 0.931 . S
H745 C733 0.930 . S
H746 C734 0.956 . S
H747 C734 0.961 . S
H748 C734 0.961 . S
H749 C735 0.958 . S
H750 C735 0.961 . S
H751 C735 0.960 . S
C752 C753 1.391 . S
C752 C754 1.394 . S
C752 H768 0.931 . S
C753 C752 1.391 . S
C753 C757 1.376 . S
C754 C752 1.394 . S
C754 C755 1.369 . S
C754 C758 1.531 . S
C755 C754 1.369 . S
C755 C756 1.410 . S
C755 C763 1.503 . S
C756 C755 1.410 . S
C756 C757 1.392 . S
C756 C759 1.511 . S
C757 C753 1.376 . S
C757 C756 1.392 . S
C757 H769 0.929 . S
C758 C754 1.531 . S
C758 H770 0.960 . S
C758 H771 0.962 . S
C758 H772 0.960 . S
C759 C756 1.511 . S
C759 H773 0.961 . S
C759 H774 0.961 . S
C759 H775 0.961 . S
C760 C761 1.370 . S
C760 C762 1.363 . S
C760 H776 0.931 . S
C761 C760 1.370 . S
C761 C765 1.408 . S
C762 C760 1.363 . S
C762 C763 1.370 . S
C762 C766 1.524 . S
C763 C755 1.503 . S
C763 C762 1.370 . S
C763 C764 1.403 . S
C764 C763 1.403 . S
C764 C765 1.404 . S
C764 C767 1.539 . S
C765 C761 1.408 . S
C765 C764 1.404 . S
C765 H777 0.930 . S
C766 C762 1.524 . S
C766 H778 0.956 . S
C766 H779 0.961 . S
C766 H780 0.961 . S
C767 C764 1.539 . S
C767 H781 0.958 . S
C767 H782 0.934 1_565 S
C767 H783 0.960 . S
H768 C752 0.931 . S
H769 C757 0.929 . S
H770 C758 0.960 . S
H771 C758 0.962 . S
H772 C758 0.960 . S
H773 C759 0.961 . S
H774 C759 0.961 . S
H775 C759 0.961 . S
H776 C760 0.931 . S
H777 C765 0.930 . S
H778 C766 0.956 . S
H779 C766 0.961 . S
H780 C766 0.961 . S
H781 C767 0.958 . S
H782 C767 0.934 1_545 S
H783 C767 0.960 . S
C784 C785 1.391 . S
C784 C786 1.394 . S
C784 H800 0.931 . S
C785 C784 1.391 . S
C785 C789 1.376 . S
C786 C784 1.394 . S
C786 C787 1.369 . S
C786 C790 1.531 . S
C787 C786 1.369 . S
C787 C788 1.410 . S
C787 C795 1.503 . S
C788 C787 1.410 . S
C788 C789 1.392 . S
C788 C791 1.511 . S
C789 C785 1.376 . S
C789 C788 1.392 . S
C789 H801 0.929 . S
C790 C786 1.531 . S
C790 H802 0.960 . S
C790 H803 0.962 . S
C790 H804 0.960 . S
C791 C788 1.511 . S
C791 H805 0.961 . S
C791 H806 0.961 . S
C791 H807 0.961 . S
C792 C793 1.370 . S
C792 C794 1.363 . S
C792 H808 0.931 . S
C793 C792 1.370 . S
C793 C797 1.408 . S
C794 C792 1.363 . S
C794 C795 1.370 . S
C794 C798 1.524 . S
C795 C787 1.503 . S
C795 C794 1.370 . S
C795 C796 1.403 . S
C796 C795 1.403 . S
C796 C797 1.404 . S
C796 C799 1.539 . S
C797 C793 1.408 . S
C797 C796 1.404 . S
C797 H809 0.930 . S
C798 C794 1.524 . S
C798 H810 0.956 . S
C798 H811 0.961 . S
C798 H812 0.961 . S
C799 C796 1.539 . S
C799 H813 0.958 . S
C799 H814 0.961 . S
C799 H815 0.960 . S
H800 C784 0.931 . S
H801 C789 0.929 . S
H802 C790 0.960 . S
H803 C790 0.962 . S
H804 C790 0.960 . S
H805 C791 0.961 . S
H806 C791 0.961 . S
H807 C791 0.961 . S
H808 C792 0.931 . S
H809 C797 0.930 . S
H810 C798 0.956 . S
H811 C798 0.961 . S
H812 C798 0.961 . S
H813 C799 0.958 . S
H814 C799 0.961 . S
H815 C799 0.960 . S
C816 C817 1.391 . S
C816 C818 1.394 . S
C816 H832 0.931 . S
C817 C816 1.391 . S
C817 C821 1.376 . S
C818 C816 1.394 . S
C818 C819 1.369 . S
C818 C822 1.531 . S
C819 C818 1.369 . S
C819 C820 1.410 . S
C819 C827 1.503 . S
C820 C819 1.410 . S
C820 C821 1.392 . S
C820 C823 1.511 . S
C821 C817 1.376 . S
C821 C820 1.392 . S
C821 H833 0.929 . S
C822 C818 1.531 . S
C822 H834 0.960 . S
C822 H835 0.962 . S
C822 H836 0.960 . S
C823 C820 1.511 . S
C823 H837 0.961 . S
C823 H838 0.961 . S
C823 H839 0.961 . S
C824 C825 1.370 . S
C824 C826 1.363 . S
C824 H840 0.931 . S
C825 C824 1.370 . S
C825 C829 1.408 . S
C826 C824 1.363 . S
C826 C827 1.370 . S
C826 C830 1.524 . S
C827 C819 1.503 . S
C827 C826 1.370 . S
C827 C828 1.403 . S
C828 C827 1.403 . S
C828 C829 1.404 . S
C828 C831 1.539 . S
C829 C825 1.408 . S
C829 C828 1.404 . S
C829 H841 0.930 . S
C830 C826 1.524 . S
C830 H842 0.956 . S
C830 H843 0.961 . S
C830 H844 0.961 . S
C831 C828 1.539 . S
C831 H845 0.958 . S
C831 H846 0.961 . S
C831 H847 0.960 . S
H832 C816 0.931 . S
H833 C821 0.929 . S
H834 C822 0.960 . S
H835 C822 0.962 . S
H836 C822 0.960 . S
H837 C823 0.961 . S
H838 C823 0.961 . S
H839 C823 0.961 . S
H840 C824 0.931 . S
H841 C829 0.930 . S
H842 C830 0.956 . S
H843 C830 0.961 . S
H844 C830 0.961 . S
H845 C831 0.958 . S
H846 C831 0.961 . S
H847 C831 0.960 . S
C848 C849 1.391 . S
C848 C850 1.394 . S
C848 H864 0.931 . S
C849 C848 1.391 . S
C849 C853 1.376 . S
C850 C848 1.394 . S
C850 C851 1.369 . S
C850 C854 1.531 . S
C851 C850 1.369 . S
C851 C852 1.410 . S
C851 C859 1.503 . S
C852 C851 1.410 . S
C852 C853 1.392 . S
C852 C855 1.511 . S
C853 C849 1.376 . S
C853 C852 1.392 . S
C853 H865 0.929 . S
C854 C850 1.531 . S
C854 H866 0.960 . S
C854 H867 0.962 . S
C854 H868 0.960 . S
C855 C852 1.511 . S
C855 H869 0.961 . S
C855 H870 0.961 . S
C855 H871 0.961 . S
C856 C857 1.370 . S
C856 C858 1.363 . S
C856 H872 0.931 . S
C857 C856 1.370 . S
C857 C861 1.408 . S
C858 C856 1.363 . S
C858 C859 1.370 . S
C858 C862 1.524 . S
C859 C851 1.503 . S
C859 C858 1.370 . S
C859 C860 1.403 . S
C860 C859 1.403 . S
C860 C861 1.404 . S
C860 C863 1.539 . S
C861 C857 1.408 . S
C861 C860 1.404 . S
C861 H873 0.930 . S
C862 C858 1.524 . S
C862 H874 0.956 . S
C862 H875 0.961 . S
C862 H876 0.961 . S
C863 C860 1.539 . S
C863 H877 0.958 . S
C863 H878 0.961 . S
C863 H879 0.960 . S
H864 C848 0.931 . S
H865 C853 0.929 . S
H866 C854 0.960 . S
H867 C854 0.962 . S
H868 C854 0.960 . S
H869 C855 0.961 . S
H870 C855 0.961 . S
H871 C855 0.961 . S
H872 C856 0.931 . S
H873 C861 0.930 . S
H874 C862 0.956 . S
H875 C862 0.961 . S
H876 C862 0.961 . S
H877 C863 0.958 . S
H878 C863 0.961 . S
H879 C863 0.960 . S
C880 C881 1.391 . S
C880 C882 1.394 . S
C880 H896 0.931 . S
C881 C880 1.391 . S
C881 C885 1.376 . S
C882 C880 1.394 . S
C882 C883 1.369 . S
C882 C886 1.531 . S
C883 C882 1.369 . S
C883 C884 1.410 . S
C883 C891 1.503 . S
C884 C883 1.410 . S
C884 C885 1.392 . S
C884 C887 1.511 . S
C885 C881 1.376 . S
C885 C884 1.392 . S
C885 H897 0.929 . S
C886 C882 1.531 . S
C886 H898 0.960 . S
C886 H899 0.962 . S
C886 H900 0.960 . S
C887 C884 1.511 . S
C887 H901 0.961 . S
C887 H902 0.961 . S
C887 H903 0.961 . S
C888 C889 1.370 . S
C888 C890 1.363 . S
C888 H904 0.931 . S
C889 C888 1.370 . S
C889 C893 1.408 . S
C890 C888 1.363 . S
C890 C891 1.370 . S
C890 C894 1.524 . S
C891 C883 1.503 . S
C891 C890 1.370 . S
C891 C892 1.403 . S
C892 C891 1.403 . S
C892 C893 1.404 . S
C892 C895 1.539 . S
C893 C889 1.408 . S
C893 C892 1.404 . S
C893 H905 0.930 . S
C894 C890 1.524 . S
C894 H906 0.956 . S
C894 H907 0.961 . S
C894 H908 0.961 . S
C895 C892 1.539 . S
C895 H909 0.958 . S
C895 H910 0.961 . S
C895 H911 0.960 . S
H896 C880 0.931 . S
H897 C885 0.929 . S
H898 C886 0.960 . S
H899 C886 0.962 . S
H900 C886 0.960 . S
H901 C887 0.961 . S
H902 C887 0.961 . S
H903 C887 0.961 . S
H904 C888 0.931 . S
H905 C893 0.930 . S
H906 C894 0.956 . S
H907 C894 0.961 . S
H908 C894 0.961 . S
H909 C895 0.958 . S
H910 C895 0.961 . S
H911 C895 0.960 . S
C912 C913 1.391 . S
C912 C914 1.394 . S
C912 H928 0.931 . S
C913 C912 1.391 . S
C913 C917 1.376 . S
C914 C912 1.394 . S
C914 C915 1.369 . S
C914 C918 1.531 . S
C915 C914 1.369 . S
C915 C916 1.410 . S
C915 C923 1.503 . S
C916 C915 1.410 . S
C916 C917 1.392 . S
C916 C919 1.511 . S
C917 C913 1.376 . S
C917 C916 1.392 . S
C917 H929 0.929 . S
C918 C914 1.531 . S
C918 H930 0.960 . S
C918 H931 0.962 . S
C918 H932 0.960 . S
C919 C916 1.511 . S
C919 H933 0.961 . S
C919 H934 0.961 . S
C919 H935 0.961 . S
C920 C921 1.370 . S
C920 C922 1.363 . S
C920 H936 0.931 . S
C921 C920 1.370 . S
C921 C925 1.408 . S
C922 C920 1.363 . S
C922 C923 1.370 . S
C922 C926 1.524 . S
C923 C915 1.503 . S
C923 C922 1.370 . S
C923 C924 1.403 . S
C924 C923 1.403 . S
C924 C925 1.404 . S
C924 C927 1.539 . S
C925 C921 1.408 . S
C925 C924 1.404 . S
C925 H937 0.930 . S
C926 C922 1.524 . S
C926 H938 0.956 . S
C926 H939 0.961 . S
C926 H940 0.961 . S
C927 C924 1.539 . S
C927 H941 0.958 . S
C927 H942 0.961 1_545 S
C927 H943 0.960 . S
H928 C912 0.931 . S
H929 C917 0.929 . S
H930 C918 0.960 . S
H931 C918 0.962 . S
H932 C918 0.960 . S
H933 C919 0.961 . S
H934 C919 0.961 . S
H935 C919 0.961 . S
H936 C920 0.931 . S
H937 C925 0.930 . S
H938 C926 0.956 . S
H939 C926 0.961 . S
H940 C926 0.961 . S
H941 C927 0.958 . S
H942 C927 0.961 1_565 S
H943 C927 0.960 . S
C944 C945 1.391 . S
C944 C946 1.394 . S
C944 H960 0.931 . S
C945 C944 1.391 . S
C945 C949 1.376 . S
C946 C944 1.394 . S
C946 C947 1.369 . S
C946 C950 1.531 . S
C947 C946 1.369 . S
C947 C948 1.410 . S
C947 C955 1.503 . S
C948 C947 1.410 . S
C948 C949 1.392 . S
C948 C951 1.511 . S
C949 C945 1.376 . S
C949 C948 1.392 . S
C949 H961 0.929 . S
C950 C946 1.531 . S
C950 H962 0.960 . S
C950 H963 0.962 . S
C950 H964 0.960 . S
C951 C948 1.511 . S
C951 H965 0.961 . S
C951 H966 0.961 . S
C951 H967 0.961 . S
C952 C953 1.370 . S
C952 C954 1.363 . S
C952 H968 0.931 . S
C953 C952 1.370 . S
C953 C957 1.408 . S
C954 C952 1.363 . S
C954 C955 1.370 . S
C954 C958 1.524 . S
C955 C947 1.503 . S
C955 C954 1.370 . S
C955 C956 1.403 . S
C956 C955 1.403 . S
C956 C957 1.404 . S
C956 C959 1.539 . S
C957 C953 1.408 . S
C957 C956 1.404 . S
C957 H969 0.930 . S
C958 C954 1.524 . S
C958 H970 0.956 . S
C958 H971 0.961 . S
C958 H972 0.961 . S
C959 C956 1.539 . S
C959 H973 0.958 . S
C959 H974 0.961 . S
C959 H975 0.960 . S
H960 C944 0.931 . S
H961 C949 0.929 . S
H962 C950 0.960 . S
H963 C950 0.962 . S
H964 C950 0.960 . S
H965 C951 0.961 . S
H966 C951 0.961 . S
H967 C951 0.961 . S
H968 C952 0.931 . S
H969 C957 0.930 . S
H970 C958 0.956 . S
H971 C958 0.961 . S
H972 C958 0.961 . S
H973 C959 0.958 . S
H974 C959 0.961 . S
H975 C959 0.960 . S
C976 C977 1.391 . S
C976 C978 1.394 . S
C976 H992 0.931 . S
C977 C976 1.391 . S
C977 C981 1.376 . S
C978 C976 1.394 . S
C978 C979 1.369 . S
C978 C982 1.531 . S
C979 C978 1.369 . S
C979 C980 1.410 . S
C979 C987 1.503 . S
C980 C979 1.410 . S
C980 C981 1.392 . S
C980 C983 1.511 . S
C981 C977 1.376 . S
C981 C980 1.392 . S
C981 H993 0.929 . S
C982 C978 1.531 . S
C982 H994 0.960 . S
C982 H995 0.962 . S
C982 H996 0.960 . S
C983 C980 1.511 . S
C983 H997 0.961 . S
C983 H998 0.961 . S
C983 H999 0.961 . S
C984 C985 1.370 . S
C984 C986 1.363 . S
C984 H1000 0.931 . S
C985 C984 1.370 . S
C985 C989 1.408 . S
C986 C984 1.363 . S
C986 C987 1.370 . S
C986 C990 1.524 . S
C987 C979 1.503 . S
C987 C986 1.370 . S
C987 C988 1.403 . S
C988 C987 1.403 . S
C988 C989 1.404 . S
C988 C991 1.539 . S
C989 C985 1.408 . S
C989 C988 1.404 . S
C989 H1001 0.930 . S
C990 C986 1.524 . S
C990 H1002 0.956 . S
C990 H1003 0.961 . S
C990 H1004 0.961 . S
C991 C988 1.539 . S
C991 H1005 0.958 . S
C991 H1006 0.961 . S
C991 H1007 0.960 . S
H992 C976 0.931 . S
H993 C981 0.929 . S
H994 C982 0.960 . S
H995 C982 0.962 . S
H996 C982 0.960 . S
H997 C983 0.961 . S
H998 C983 0.961 . S
H999 C983 0.961 . S
H1000 C984 0.931 . S
H1001 C989 0.930 . S
H1002 C990 0.956 . S
H1003 C990 0.961 . S
H1004 C990 0.961 . S
H1005 C991 0.958 . S
H1006 C991 0.961 . S
H1007 C991 0.960 . S
C1008 C1009 1.391 . S
C1008 C1010 1.394 . S
C1008 H1024 0.931 . S
C1009 C1008 1.391 . S
C1009 C1013 1.376 . S
C1010 C1008 1.394 . S
C1010 C1011 1.369 . S
C1010 C1014 1.531 . S
C1011 C1010 1.369 . S
C1011 C1012 1.410 . S
C1011 C1019 1.503 . S
C1012 C1011 1.410 . S
C1012 C1013 1.392 . S
C1012 C1015 1.511 . S
C1013 C1009 1.376 . S
C1013 C1012 1.392 . S
C1013 H1025 0.929 . S
C1014 C1010 1.531 . S
C1014 H1026 0.960 . S
C1014 H1027 0.962 . S
C1014 H1028 0.960 . S
C1015 C1012 1.511 . S
C1015 H1029 0.961 . S
C1015 H1030 0.961 . S
C1015 H1031 0.961 . S
C1016 C1017 1.370 . S
C1016 C1018 1.363 . S
C1016 H1032 0.931 . S
C1017 C1016 1.370 . S
C1017 C1021 1.408 . S
C1018 C1016 1.363 . S
C1018 C1019 1.370 . S
C1018 C1022 1.524 . S
C1019 C1011 1.503 . S
C1019 C1018 1.370 . S
C1019 C1020 1.403 . S
C1020 C1019 1.403 . S
C1020 C1021 1.404 . S
C1020 C1023 1.539 . S
C1021 C1017 1.408 . S
C1021 C1020 1.404 . S
C1021 H1033 0.930 . S
C1022 C1018 1.524 . S
C1022 H1034 0.956 . S
C1022 H1035 0.961 . S
C1022 H1036 0.961 . S
C1023 C1020 1.539 . S
C1023 H1037 0.958 . S
C1023 H1038 0.961 . S
C1023 H1039 0.960 . S
H1024 C1008 0.931 . S
H1025 C1013 0.929 . S
H1026 C1014 0.960 . S
H1027 C1014 0.962 . S
H1028 C1014 0.960 . S
H1029 C1015 0.961 . S
H1030 C1015 0.961 . S
H1031 C1015 0.961 . S
H1032 C1016 0.931 . S
H1033 C1021 0.930 . S
H1034 C1022 0.956 . S
H1035 C1022 0.961 . S
H1036 C1022 0.961 . S
H1037 C1023 0.958 . S
H1038 C1023 0.961 . S
H1039 C1023 0.960 . S
C1040 C1041 1.391 . S
C1040 C1042 1.394 . S
C1040 H1056 0.931 . S
C1041 C1040 1.391 . S
C1041 C1045 1.376 . S
C1042 C1040 1.394 . S
C1042 C1043 1.369 . S
C1042 C1046 1.531 . S
C1043 C1042 1.369 . S
C1043 C1044 1.410 . S
C1043 C1051 1.503 . S
C1044 C1043 1.410 . S
C1044 C1045 1.392 . S
C1044 C1047 1.511 . S
C1045 C1041 1.376 . S
C1045 C1044 1.392 . S
C1045 H1057 0.929 . S
C1046 C1042 1.531 . S
C1046 H1058 0.960 . S
C1046 H1059 0.962 . S
C1046 H1060 0.960 . S
C1047 C1044 1.511 . S
C1047 H1061 0.961 . S
C1047 H1062 0.961 . S
C1047 H1063 0.961 . S
C1048 C1049 1.370 . S
C1048 C1050 1.363 . S
C1048 H1064 0.931 . S
C1049 C1048 1.370 . S
C1049 C1053 1.408 . S
C1050 C1048 1.363 . S
C1050 C1051 1.370 . S
C1050 C1054 1.524 . S
C1051 C1043 1.503 . S
C1051 C1050 1.370 . S
C1051 C1052 1.403 . S
C1052 C1051 1.403 . S
C1052 C1053 1.404 . S
C1052 C1055 1.539 . S
C1053 C1049 1.408 . S
C1053 C1052 1.404 . S
C1053 H1065 0.930 . S
C1054 C1050 1.524 . S
C1054 H1066 0.956 . S
C1054 H1067 0.961 . S
C1054 H1068 0.961 . S
C1055 C1052 1.539 . S
C1055 H1069 0.958 . S
C1055 H1070 0.961 . S
C1055 H1071 0.960 . S
H1056 C1040 0.931 . S
H1057 C1045 0.929 . S
H1058 C1046 0.960 . S
H1059 C1046 0.962 . S
H1060 C1046 0.960 . S
H1061 C1047 0.961 . S
H1062 C1047 0.961 . S
H1063 C1047 0.961 . S
H1064 C1048 0.931 . S
H1065 C1053 0.930 . S
H1066 C1054 0.956 . S
H1067 C1054 0.961 . S
H1068 C1054 0.961 . S
H1069 C1055 0.958 . S
H1070 C1055 0.961 . S
H1071 C1055 0.960 . S
C1072 C1073 1.391 . S
C1072 C1074 1.394 . S
C1072 H1088 0.931 . S
C1073 C1072 1.391 . S
C1073 C1077 1.376 . S
C1074 C1072 1.394 . S
C1074 C1075 1.369 . S
C1074 C1078 1.531 . S
C1075 C1074 1.369 . S
C1075 C1076 1.410 . S
C1075 C1083 1.503 . S
C1076 C1075 1.410 . S
C1076 C1077 1.392 . S
C1076 C1079 1.511 . S
C1077 C1073 1.376 . S
C1077 C1076 1.392 . S
C1077 H1089 0.929 . S
C1078 C1074 1.531 . S
C1078 H1090 0.960 . S
C1078 H1091 0.962 . S
C1078 H1092 0.960 . S
C1079 C1076 1.511 . S
C1079 H1093 0.961 . S
C1079 H1094 0.961 . S
C1079 H1095 0.961 . S
C1080 C1081 1.370 . S
C1080 C1082 1.363 . S
C1080 H1096 0.931 . S
C1081 C1080 1.370 . S
C1081 C1085 1.408 . S
C1082 C1080 1.363 . S
C1082 C1083 1.370 . S
C1082 C1086 1.524 . S
C1083 C1075 1.503 . S
C1083 C1082 1.370 . S
C1083 C1084 1.403 . S
C1084 C1083 1.403 . S
C1084 C1085 1.404 . S
C1084 C1087 1.539 . S
C1085 C1081 1.408 . S
C1085 C1084 1.404 . S
C1085 H1097 0.930 . S
C1086 C1082 1.524 . S
C1086 H1098 0.956 . S
C1086 H1099 0.961 . S
C1086 H1100 0.961 . S
C1087 C1084 1.539 . S
C1087 H1101 0.958 . S
C1087 H1102 0.961 . S
C1087 H1103 0.960 . S
H1088 C1072 0.931 . S
H1089 C1077 0.929 . S
H1090 C1078 0.960 . S
H1091 C1078 0.962 . S
H1092 C1078 0.960 . S
H1093 C1079 0.961 . S
H1094 C1079 0.961 . S
H1095 C1079 0.961 . S
H1096 C1080 0.931 . S
H1097 C1085 0.930 . S
H1098 C1086 0.956 . S
H1099 C1086 0.961 . S
H1100 C1086 0.961 . S
H1101 C1087 0.958 . S
H1102 C1087 0.961 . S
H1103 C1087 0.960 . S
C1104 C1105 1.391 . S
C1104 C1106 1.394 . S
C1104 H1120 0.931 . S
C1105 C1104 1.391 . S
C1105 C1109 1.376 . S
C1106 C1104 1.394 . S
C1106 C1107 1.369 . S
C1106 C1110 1.531 . S
C1107 C1106 1.369 . S
C1107 C1108 1.410 . S
C1107 C1115 1.503 . S
C1108 C1107 1.410 . S
C1108 C1109 1.392 . S
C1108 C1111 1.511 . S
C1109 C1105 1.376 . S
C1109 C1108 1.392 . S
C1109 H1121 0.929 . S
C1110 C1106 1.531 . S
C1110 H1122 0.960 . S
C1110 H1123 0.962 . S
C1110 H1124 0.960 . S
C1111 C1108 1.511 . S
C1111 H1125 0.961 . S
C1111 H1126 0.961 . S
C1111 H1127 0.961 . S
C1112 C1113 1.370 . S
C1112 C1114 1.363 . S
C1112 H1128 0.931 . S
C1113 C1112 1.370 . S
C1113 C1117 1.408 . S
C1114 C1112 1.363 . S
C1114 C1115 1.370 . S
C1114 C1118 1.524 . S
C1115 C1107 1.503 . S
C1115 C1114 1.370 . S
C1115 C1116 1.403 . S
C1116 C1115 1.403 . S
C1116 C1117 1.404 . S
C1116 C1119 1.539 . S
C1117 C1113 1.408 . S
C1117 C1116 1.404 . S
C1117 H1129 0.930 . S
C1118 C1114 1.524 . S
C1118 H1130 0.956 . S
C1118 H1131 0.961 . S
C1118 H1132 0.961 . S
C1119 C1116 1.539 . S
C1119 H1133 0.958 . S
C1119 H1134 0.961 . S
C1119 H1135 0.960 . S
H1120 C1104 0.931 . S
H1121 C1109 0.929 . S
H1122 C1110 0.960 . S
H1123 C1110 0.962 . S
H1124 C1110 0.960 . S
H1125 C1111 0.961 . S
H1126 C1111 0.961 . S
H1127 C1111 0.961 . S
H1128 C1112 0.931 . S
H1129 C1117 0.930 . S
H1130 C1118 0.956 . S
H1131 C1118 0.961 . S
H1132 C1118 0.961 . S
H1133 C1119 0.958 . S
H1134 C1119 0.961 . S
H1135 C1119 0.960 . S
C369 C1 1.519 . S
C377 C307 1.482 . S
C401 C67 1.307 . S
C409 C310 1.275 . S
C441 C346 1.736 . S
C433 C97 1.756 . S
C465 C133 1.659 . S
C473 C366 1.662 . S
C505 C320 1.694 . S
C497 C25 1.717 . S
C537 C297 1.518 . S
C529 C37 1.528 . S
C569 C350 1.536 . S
C561 C103 1.682 . S
C601 C330 1.371 . S
C593 C109 1.480 . S
C625 C31 1.376 . S
C633 C360 1.311 . S
C665 C326 1.599 . S
C657 C73 1.622 . S
C689 C139 1.647 . S
C697 C292 1.615 . S
C721 C61 1.335 . S
C729 C340 1.318 . S
C761 C306 1.490 . S
C753 C175 1.503 . S
C785 C181 1.277 . S
C793 C312 1.237 . S
C817 C247 1.762 . S
C825 C347 1.752 . S
C849 C277 1.662 . S
C857 C367 1.653 . S
C881 C145 1.688 . S
C889 C317 1.695 . S
C921 C300 1.511 . S
C913 C211 1.539 . S
C953 C352 1.559 . S
C945 C217 1.629 . S
C985 C332 1.387 . S
C977 C283 1.486 . S
C1009 C169 1.363 . S
C1017 C357 1.297 . S
C1049 C327 1.616 . S
C1041 C241 1.619 . S
C1081 C290 1.585 . S
C1073 C253 1.631 . S
C1105 C205 1.342 . S
C1113 C337 1.322 . S
