# Generated by pormake.
# Topology pth, (4,4)-cn, num edge types: 1
# Building blocks:
#     Node 0, Type 0, BuildingBlock: KUFVIS_clean_sbu_0, # of connection points: 4
#     Node 1, Type 0, BuildingBlock: KUFVIS_clean_sbu_0, # of connection points: 4
#     Node 2, Type 0, BuildingBlock: KUFVIS_clean_sbu_0, # of connection points: 4
#     Node 3, Type 1, BuildingBlock: AZAVOO_clean_linker_0, # of connection points: 4
#     Node 4, Type 1, BuildingBlock: AZAVOO_clean_linker_0, # of connection points: 4
#     Node 5, Type 1, BuildingBlock: AZAVOO_clean_linker_0, # of connection points: 4
#     Edge 6, Type (0, 1), BuildingBlock: MIFKUJ_clean_linker_0, # of connection points: 2
#     Edge 7, Type (0, 1), BuildingBlock: MIFKUJ_clean_linker_0, # of connection points: 2
#     Edge 8, Type (0, 1), BuildingBlock: MIFKUJ_clean_linker_0, # of connection points: 2
#     Edge 9, Type (0, 1), BuildingBlock: MIFKUJ_clean_linker_0, # of connection points: 2
#     Edge 10, Type (0, 1), BuildingBlock: MIFKUJ_clean_linker_0, # of connection points: 2
#     Edge 11, Type (0, 1), BuildingBlock: MIFKUJ_clean_linker_0, # of connection points: 2
#     Edge 12, Type (0, 1), BuildingBlock: MIFKUJ_clean_linker_0, # of connection points: 2
#     Edge 13, Type (0, 1), BuildingBlock: MIFKUJ_clean_linker_0, # of connection points: 2
#     Edge 14, Type (0, 1), BuildingBlock: MIFKUJ_clean_linker_0, # of connection points: 2
#     Edge 15, Type (0, 1), BuildingBlock: MIFKUJ_clean_linker_0, # of connection points: 2
#     Edge 16, Type (0, 1), BuildingBlock: MIFKUJ_clean_linker_0, # of connection points: 2
#     Edge 17, Type (0, 1), BuildingBlock: MIFKUJ_clean_linker_0, # of connection points: 2
# Relax obj value: 0.103
# Max RMSD: 0.224
# Mean RMSD: 0.161
data_MOF--net-pth--node1-KUFVIS_clean_sbu_0--node2-AZAVOO_clean_linker_0--edge1-MIFKUJ_clean_linker_0
_symmetry_space_group_name_H-M    P1
_symmetry_Int_Tables_number       1
_symmetry_cell_setting            triclinic
loop_
_symmetry_equiv_pos_as_xyz
'x, y, z'
_cell_length_a     32.537265
_cell_length_b     32.825095
_cell_length_c     89.429332
_cell_angle_alpha  92.51831
_cell_angle_beta   90.998605
_cell_angle_gamma 120.24081
loop_
_atom_site_label
_atom_site_type_symbol
_atom_site_fract_x
_atom_site_fract_y
_atom_site_fract_z
_atom_type_partial_charge
Mn0 Mn 0.07257 0.0941 0.07105 0.0
Mn1 Mn 0.02078 0.15433 0.05901 0.0
C2 C 0.03047 0.07192 0.04838 0.0
C3 C 0.072 0.03614 0.0852 0.0
C4 C 0.12393 0.18611 0.05476 0.0
O5 O 0.07389 0.13068 0.08991 0.0
O6 O 0.04556 0.17393 0.08019 0.0
C7 C 0.93992 0.11191 0.07917 0.0
N8 N 0.95633 0.1216 0.06509 0.0
C9 C 0.87647 0.08552 0.05433 0.0
C10 C 0.8588 0.0753 0.0687 0.0
C11 C 0.89068 0.08848 0.08117 0.0
C12 C 0.92591 0.10874 0.05302 0.0
H13 H 0.9641 0.12198 0.08882 0.0
C14 C 0.06295 0.16267 0.09113 0.0
O15 O 0.11171 0.07237 0.0816 0.0
O16 O 0.03275 0.03356 0.08049 0.0
N17 N 0.99365 0.14005 0.03898 0.0
C18 C 0.01633 0.15389 0.02593 0.0
C19 C 0.98961 0.14442 0.01244 0.0
C20 C 0.93973 0.1215 0.01252 0.0
C21 C 0.91709 0.10834 0.0261 0.0
C22 C 0.9457 0.11919 0.03922 0.0
H23 H 0.05451 0.17254 0.02584 0.0
O24 O 0.06186 0.05976 0.05134 0.0
O25 O 0.02281 0.09538 0.05907 0.0
O26 O 0.12494 0.15487 0.06252 0.0
O27 O 0.08644 0.18842 0.05205 0.0
C28 C 0.86727 0.08523 0.02715 0.0
C29 C 0.84696 0.07359 0.04125 0.0
H30 H 0.82084 0.05734 0.0703 0.0
H31 H 0.87733 0.08071 0.09231 0.0
H32 H 0.00757 0.15553 0.00207 0.0
H33 H 0.91917 0.11491 0.00214 0.0
H34 H 0.84426 0.0762 0.01718 0.0
H35 H 0.8086 0.05566 0.04191 0.0
Mn36 Mn 0.99679 0.06277 0.40128 0.0
Mn37 Mn 0.06541 0.16974 0.41949 0.0
C38 C 0.05149 0.07158 0.41974 0.0
C39 C 0.98179 0.00833 0.38143 0.0
C40 C 0.96463 0.10168 0.42759 0.0
O41 O 0.98783 0.10612 0.38786 0.0
O42 O 0.033 0.17473 0.40124 0.0
C43 C 0.136 0.21076 0.39607 0.0
N44 N 0.12596 0.20058 0.41062 0.0
C45 C 0.20923 0.23888 0.41797 0.0
C46 C 0.2205 0.25009 0.40308 0.0
C47 C 0.1837 0.23579 0.39208 0.0
C48 C 0.16105 0.21379 0.42126 0.0
H49 H 0.10783 0.1999 0.38759 0.0
C50 C 0.00526 0.15045 0.39 0.0
O51 O 0.9475 0.00593 0.38927 0.0
O52 O 0.02443 0.04333 0.38477 0.0
N53 N 0.1 0.17285 0.4374 0.0
C54 C 0.08304 0.15814 0.45114 0.0
C55 C 0.1152 0.17002 0.46343 0.0
C56 C 0.16444 0.19659 0.46149 0.0
C57 C 0.18107 0.21172 0.44728 0.0
C58 C 0.14729 0.19986 0.43551 0.0
H59 H 0.04527 0.13789 0.45274 0.0
O60 O 0.01578 0.03039 0.41552 0.0
O61 O 0.05576 0.10737 0.41258 0.0
O62 O 0.95573 0.07014 0.41715 0.0
O63 O 0.00457 0.1401 0.42951 0.0
C64 C 0.2298 0.23776 0.4443 0.0
C65 C 0.24388 0.25111 0.42963 0.0
H66 H 0.25725 0.26937 0.39995 0.0
H67 H 0.1921 0.24411 0.38055 0.0
H68 H 0.10198 0.15919 0.4744 0.0
H69 H 0.18914 0.20535 0.471 0.0
H70 H 0.25674 0.24727 0.45317 0.0
H71 H 0.28144 0.27062 0.42744 0.0
Mn72 Mn 0.0593 0.09289 0.73843 0.0
Mn73 Mn 0.02163 0.15264 0.76032 0.0
C74 C 0.108 0.1431 0.7579 0.0
C75 C 0.09897 0.08912 0.71754 0.0
C76 C 0.9863 0.04806 0.76219 0.0
O77 O 0.00394 0.08805 0.72609 0.0
O78 O 0.98549 0.13404 0.74064 0.0
C79 C 0.05417 0.2385 0.74347 0.0
N80 N 0.05457 0.2181 0.75637 0.0
C81 C 0.1076 0.29386 0.76895 0.0
C82 C 0.10753 0.3157 0.75583 0.0
C83 C 0.08072 0.28789 0.74304 0.0
C84 C 0.07993 0.24453 0.76878 0.0
H85 H 0.03386 0.21722 0.73359 0.0
C86 C 0.97999 0.10855 0.72863 0.0
O87 O 0.06824 0.05091 0.72368 0.0
O88 O 0.10435 0.12877 0.72304 0.0
N89 N 0.05466 0.17285 0.77954 0.0
C90 C 0.05415 0.14607 0.79083 0.0
C91 C 0.08113 0.16838 0.80418 0.0
C92 C 0.10828 0.21792 0.80579 0.0
C93 C 0.10805 0.24473 0.79404 0.0
C94 C 0.08011 0.22055 0.78105 0.0
H95 H 0.03363 0.10798 0.78962 0.0
O96 O 0.11414 0.10931 0.75252 0.0
O97 O 0.07313 0.1461 0.75179 0.0
O98 O 0.01328 0.04498 0.7526 0.0
O99 O 0.986 0.08612 0.76552 0.0
C100 C 0.13544 0.29443 0.79456 0.0
C101 C 0.13515 0.31898 0.78203 0.0
H102 H 0.1284 0.35375 0.75539 0.0
H103 H 0.08072 0.30448 0.73284 0.0
H104 H 0.08122 0.14743 0.81319 0.0
H105 H 0.1295 0.23498 0.81604 0.0
H106 H 0.15751 0.31407 0.80444 0.0
H107 H 0.15699 0.35713 0.78248 0.0
H108 H 0.00589 0.49008 0.13833 0.0
H109 H 0.10994 0.87675 0.2625 0.0
H110 H 0.95328 0.4568 0.21696 0.0
H111 H 0.95883 0.38931 0.20682 0.0
H112 H 0.1005 0.45086 0.22727 0.0
H113 H 0.09477 0.51849 0.23723 0.0
H114 H 0.96361 0.54158 0.19714 0.0
H115 H 0.96834 0.51804 0.17117 0.0
H116 H 0.10813 0.53894 0.18177 0.0
H117 H 0.10318 0.56302 0.20765 0.0
H118 H 0.96705 0.6338 0.21434 0.0
H119 H 0.97465 0.68721 0.19501 0.0
H120 H 0.11552 0.71169 0.18646 0.0
H121 H 0.10821 0.65958 0.20629 0.0
H122 H 0.96257 0.64569 0.24755 0.0
H123 H 0.9754 0.72294 0.25655 0.0
H124 H 0.12487 0.78623 0.24765 0.0
H125 H 0.1117 0.70865 0.23898 0.0
H126 H 0.94168 0.56277 0.26495 0.0
H127 H 0.93108 0.60488 0.28641 0.0
H128 H 0.08354 0.6982 0.29117 0.0
H129 H 0.09363 0.6562 0.26957 0.0
H130 H 0.93881 0.46818 0.25189 0.0
H131 H 0.92882 0.41073 0.27024 0.0
H132 H 0.07598 0.49992 0.28554 0.0
H133 H 0.08557 0.55713 0.26718 0.0
O134 O 0.00487 0.49974 0.14863 0.0
O135 O 0.07647 0.5107 0.1547 0.0
O136 O 0.02697 0.81135 0.26367 0.0
O137 O 0.10366 0.84599 0.2587 0.0
C138 C 0.02387 0.53692 0.23149 0.0
C139 C 0.02968 0.56754 0.22005 0.0
C140 C 0.0323 0.6111 0.22366 0.0
C141 C 0.02968 0.62419 0.23869 0.0
C142 C 0.02297 0.59307 0.25008 0.0
C143 C 0.01977 0.54936 0.24646 0.0
C144 C 0.02372 0.49247 0.22773 0.0
C145 C 0.985 0.45505 0.21953 0.0
C146 C 0.98817 0.4165 0.21383 0.0
C147 C 0.03023 0.41503 0.2162 0.0
C148 C 0.06785 0.45133 0.22518 0.0
C149 C 0.06455 0.48974 0.23094 0.0
C150 C 0.03299 0.55388 0.20426 0.0
C151 C 0.99528 0.54123 0.1938 0.0
C152 C 0.99805 0.5277 0.17899 0.0
C153 C 0.03859 0.52653 0.17439 0.0
C154 C 0.07639 0.5394 0.18493 0.0
C155 C 0.07362 0.55307 0.19972 0.0
C156 C 0.03706 0.64289 0.21169 0.0
C157 C -0.00041 0.65087 0.20831 0.0
C158 C 0.00386 0.68104 0.19717 0.0
C159 C 0.04563 0.70357 0.18914 0.0
C160 C 0.0831 0.69529 0.19254 0.0
C161 C 0.07887 0.66528 0.20376 0.0
C162 C 0.03626 0.67161 0.24269 0.0
C163 C 0.99799 0.67634 0.2475 0.0
C164 C 0.00543 0.72047 0.25264 0.0
C165 C 0.05125 0.76073 0.25288 0.0
C166 C 0.0892 0.75596 0.24765 0.0
C167 C 0.08175 0.71176 0.24261 0.0
C168 C 0.01835 0.60683 0.26567 0.0
C169 C 0.97286 0.59096 0.27106 0.0
C170 C 0.9669 0.61519 0.28328 0.0
C171 C 0.00644 0.65548 0.29024 0.0
C172 C 0.05237 0.66785 0.28582 0.0
C173 C 0.05828 0.64361 0.27362 0.0
C174 C 0.01284 0.5167 0.2583 0.0
C175 C 0.96865 0.47542 0.25934 0.0
C176 C 0.96302 0.44279 0.26979 0.0
C177 C 0.00172 0.45083 0.27922 0.0
C178 C 0.04576 0.49264 0.27828 0.0
C179 C 0.0512 0.52544 0.26792 0.0
C180 C 0.04131 0.51189 0.15867 0.0
C181 C 0.05968 0.80745 0.25872 0.0
H182 H 0.51961 0.98537 0.47803 0.0
H183 H 0.33982 0.21342 0.59611 0.0
H184 H 0.54953 0.00013 0.55949 0.0
H185 H 0.60399 0.98351 0.54558 0.0
H186 H 0.70992 0.13237 0.54942 0.0
H187 H 0.65583 0.14802 0.56382 0.0
H188 H 0.47133 0.00629 0.53952 0.0
H189 H 0.47909 0.98478 0.51359 0.0
H190 H 0.60826 0.11984 0.51123 0.0
H191 H 0.59964 0.14112 0.53708 0.0
H192 H 0.40074 0.03742 0.55757 0.0
H193 H 0.34452 0.03201 0.53813 0.0
H194 H 0.46001 0.14707 0.51646 0.0
H195 H 0.51519 0.1545 0.53668 0.0
H196 H 0.41211 0.05598 0.59054 0.0
H197 H 0.35539 0.07847 0.59964 0.0
H198 H 0.43295 0.21136 0.57868 0.0
H199 H 0.49 0.18881 0.56991 0.0
H200 H 0.48743 0.04436 0.60751 0.0
H201 H 0.45085 0.05171 0.63031 0.0
H202 H 0.50616 0.19963 0.62356 0.0
H203 H 0.54266 0.19187 0.60072 0.0
H204 H 0.56275 0.02093 0.59077 0.0
H205 H 0.61691 0.01896 0.6097 0.0
H206 H 0.68018 0.16939 0.6192 0.0
H207 H 0.62622 0.17114 0.60011 0.0
O208 O 0.51689 0.99479 0.48819 0.0
O209 O 0.58352 0.06439 0.48766 0.0
O210 O 0.32419 0.13554 0.60365 0.0
O211 O 0.3612 0.20323 0.5924 0.0
C212 C 0.56222 0.08669 0.56721 0.0
C213 C 0.53119 0.08731 0.55609 0.0
C214 C 0.49605 0.0983 0.56016 0.0
C215 C 0.49223 0.10911 0.57533 0.0
C216 C 0.52366 0.10885 0.58645 0.0
C217 C 0.55851 0.09738 0.5824 0.0
C218 C 0.59885 0.07525 0.56257 0.0
C219 C 0.58521 0.02875 0.55779 0.0
C220 C 0.61614 0.01949 0.54969 0.0
C221 C 0.66097 0.05672 0.54611 0.0
C222 C 0.67587 0.10276 0.55205 0.0
C223 C 0.64505 0.11188 0.56029 0.0
C224 C 0.53496 0.07517 0.54016 0.0
C225 C 0.50105 0.03127 0.53333 0.0
C226 C 0.50569 0.01904 0.51855 0.0
C227 C 0.5444 0.05053 0.51035 0.0
C228 C 0.57808 0.09472 0.51723 0.0
C229 C 0.57329 0.10695 0.53198 0.0
C230 C 0.46196 0.09642 0.54856 0.0
C231 C 0.41366 0.06195 0.54875 0.0
C232 C 0.38174 0.05846 0.53748 0.0
C233 C 0.39772 0.08876 0.52558 0.0
C234 C 0.44625 0.1235 0.5255 0.0
C235 C 0.47797 0.12757 0.53697 0.0
C236 C 0.45533 0.12091 0.57966 0.0
C237 C 0.4167 0.08987 0.5879 0.0
C238 C 0.38435 0.10279 0.59307 0.0
C239 C 0.38977 0.14683 0.58993 0.0
C240 C 0.42782 0.17726 0.58132 0.0
C241 C 0.46033 0.1644 0.57624 0.0
C242 C 0.517 0.1174 0.60239 0.0
C243 C 0.49354 0.07883 0.61134 0.0
C244 C 0.47259 0.08311 0.62435 0.0
C245 C 0.47491 0.12605 0.62851 0.0
C246 C 0.50324 0.16597 0.62045 0.0
C247 C 0.52438 0.1617 0.60749 0.0
C248 C 0.59081 0.09622 0.59402 0.0
C249 C 0.58855 0.05348 0.59687 0.0
C250 C 0.61946 0.05243 0.60765 0.0
C251 C 0.65277 0.09405 0.61588 0.0
C252 C 0.65457 0.13674 0.61311 0.0
C253 C 0.62393 0.13782 0.60222 0.0
C254 C 0.5496 0.03719 0.49472 0.0
C255 C 0.35628 0.16131 0.59574 0.0
H256 H 0.64101 0.68759 0.00211 0.0
H257 H 0.29839 0.30653 0.90165 0.0
H258 H 0.61383 0.70424 0.91532 0.0
H259 H 0.67666 0.77688 0.92818 0.0
H260 H 0.76986 0.71858 0.92779 0.0
H261 H 0.70721 0.6468 0.91425 0.0
H262 H 0.55741 0.63822 0.94083 0.0
H263 H 0.58241 0.66312 0.96725 0.0
H264 H 0.68218 0.613 0.96381 0.0
H265 H 0.65701 0.58858 0.9374 0.0
H266 H 0.46151 0.53846 0.92744 0.0
H267 H 0.41653 0.49313 0.9484 0.0
H268 H 0.52569 0.4588 0.95811 0.0
H269 H 0.56977 0.50291 0.93684 0.0
H270 H 0.45 0.53382 0.89185 0.0
H271 H 0.36925 0.46571 0.88921 0.0
H272 H 0.42125 0.37674 0.90522 0.0
H273 H 0.50213 0.44507 0.90752 0.0
H274 H 0.52239 0.60227 0.87172 0.0
H275 H 0.48207 0.56731 0.84719 0.0
H276 H 0.51048 0.45311 0.85171 0.0
H277 H 0.55119 0.4886 0.87606 0.0
H278 H 0.60951 0.69137 0.88683 0.0
H279 H 0.65895 0.74158 0.8676 0.0
H280 H 0.69836 0.63747 0.85495 0.0
H281 H 0.65097 0.5889 0.87497 0.0
O282 O 0.63232 0.67845 0.99159 0.0
O283 O 0.67387 0.64159 0.99004 0.0
O284 O 0.30623 0.37921 0.89184 0.0
O285 O 0.33039 0.33355 0.90186 0.0
C286 C 0.61475 0.62341 0.90977 0.0
C287 C 0.589 0.59506 0.92144 0.0
C288 C 0.54646 0.55197 0.91815 0.0
C289 C 0.52961 0.53701 0.90312 0.0
C290 C 0.55669 0.5644 0.89137 0.0
C291 C 0.59922 0.60781 0.8947 0.0
C292 C 0.65627 0.67063 0.91378 0.0
C293 C 0.64852 0.70806 0.91745 0.0
C294 C 0.6842 0.74917 0.92499 0.0
C295 C 0.72789 0.75308 0.92926 0.0
C296 C 0.73673 0.71681 0.92457 0.0
C297 C 0.70108 0.67581 0.91683 0.0
C298 C 0.60544 0.61165 0.93728 0.0
C299 C 0.58482 0.63292 0.94582 0.0
C300 C 0.59918 0.64709 0.96087 0.0
C301 C 0.63411 0.63981 0.96764 0.0
C302 C 0.65502 0.61889 0.95895 0.0
C303 C 0.64085 0.60505 0.94388 0.0
C304 C 0.51873 0.52374 0.93061 0.0
C305 C 0.47542 0.52074 0.934 0.0
C306 C 0.44994 0.49506 0.94596 0.0
C307 C 0.4679 0.47278 0.95485 0.0
C308 C 0.51145 0.47613 0.9515 0.0
C309 C 0.53648 0.5011 0.93938 0.0
C310 C 0.48194 0.49439 0.89985 0.0
C311 C 0.44408 0.49942 0.89448 0.0
C312 C 0.39791 0.46051 0.8931 0.0
C313 C 0.38872 0.41589 0.89719 0.0
C314 C 0.42704 0.41068 0.9021 0.0
C315 C 0.47329 0.44959 0.90337 0.0
C316 C 0.5394 0.54775 0.87564 0.0
C317 C 0.52102 0.57043 0.86719 0.0
C318 C 0.49791 0.55038 0.85325 0.0
C319 C 0.49309 0.50748 0.84757 0.0
C320 C 0.51424 0.48652 0.85569 0.0
C321 C 0.53714 0.50649 0.86963 0.0
C322 C 0.62739 0.63697 0.88247 0.0
C323 C 0.6293 0.67973 0.88002 0.0
C324 C 0.65705 0.70803 0.86885 0.0
C325 C 0.68279 0.69367 0.85968 0.0
C326 C 0.67976 0.65008 0.86195 0.0
C327 C 0.65243 0.62209 0.8733 0.0
C328 C 0.64816 0.65336 0.98375 0.0
C329 C 0.33927 0.37524 0.89676 0.0
H330 H 0.07909 0.13649 0.11834 0.0
H331 H 0.07442 0.16801 0.14317 0.0
H332 H 0.05065 0.27139 0.12271 0.0
H333 H 0.05442 0.23987 0.09794 0.0
H334 H 0.12154 0.25321 0.15887 0.0
H335 H 0.96414 0.27852 0.13952 0.0
H336 H 0.89686 0.24145 0.1208 0.0
H337 H 0.89776 0.11116 0.1213 0.0
H338 H 0.96442 0.14714 0.14021 0.0
H339 H 0.1066 0.4298 0.20044 0.0
H340 H 0.11308 0.37378 0.18335 0.0
H341 H 0.97507 0.26298 0.1955 0.0
H342 H 0.96806 0.31962 0.21251 0.0
H343 H 0.97665 0.26386 0.16701 0.0
H344 H 0.07946 0.26026 0.20388 0.0
H345 H 0.14472 0.29061 0.2232 0.0
H346 H 0.24671 0.36353 0.19016 0.0
H347 H 0.18204 0.33423 0.17067 0.0
C348 C 0.07347 0.16634 0.11913 0.0
C349 C 0.06654 0.18532 0.10614 0.0
C350 C 0.07085 0.18427 0.13333 0.0
C351 C 0.06124 0.22134 0.13474 0.0
C352 C 0.05708 0.24206 0.12183 0.0
C353 C 0.0594 0.22407 0.10767 0.0
C354 C 0.0533 0.2374 0.14955 0.0
C355 C 0.08982 0.25535 0.16076 0.0
C356 C 0.01093 0.23813 0.15219 0.0
C357 C 0.96953 0.21569 0.14123 0.0
C358 C 0.94972 0.24185 0.13574 0.0
C359 C 0.91173 0.22103 0.12507 0.0
C360 C 0.89314 0.17402 0.11983 0.0
C361 C 0.91228 0.14761 0.12533 0.0
C362 C 0.95016 0.1682 0.13603 0.0
C363 C 0.07823 0.3932 0.19982 0.0
C364 C 0.03684 0.37901 0.20781 0.0
C365 C 0.08202 0.36109 0.19005 0.0
C366 C 0.04479 0.31394 0.18824 0.0
C367 C 0.00427 0.29916 0.19673 0.0
C368 C 0.00026 0.33147 0.20642 0.0
C369 C 0.04607 0.2822 0.17615 0.0
C370 C 0.00811 0.26106 0.16538 0.0
C371 C 0.08656 0.27739 0.17414 0.0
C372 C 0.12578 0.29515 0.18581 0.0
C373 C 0.11577 0.28302 0.20074 0.0
C374 C 0.15268 0.30001 0.21173 0.0
C375 C 0.19983 0.32902 0.20791 0.0
C376 C 0.21017 0.34104 0.1931 0.0
C377 C 0.17339 0.32417 0.18207 0.0
H378 H 0.22835 0.34214 0.21644 0.0
H379 H 0.86387 0.15803 0.11153 0.0
H380 H 0.87133 0.02946 0.4268 0.0
H381 H 0.81423 0.01112 0.44656 0.0
H382 H 0.91932 0.13261 0.47363 0.0
H383 H 0.97607 0.15183 0.45403 0.0
H384 H 0.87297 0.04512 0.48858 0.0
H385 H 0.83748 0.14209 0.45723 0.0
H386 H 0.81403 0.1614 0.43339 0.0
H387 H 0.68249 0.02875 0.43119 0.0
H388 H 0.70552 0.00836 0.45493 0.0
H389 H 0.75821 0.09779 0.54575 0.0
H390 H 0.80449 0.09384 0.52518 0.0
H391 H 0.67482 0.99273 0.50045 0.0
H392 H 0.62826 -0.00104 0.52051 0.0
H393 H 0.72735 0.0568 0.48311 0.0
H394 H 0.75587 0.96236 0.51556 0.0
H395 H 0.77756 0.93975 0.53905 0.0
H396 H 0.91871 0.06013 0.5389 0.0
H397 H 0.8977 0.08391 0.51552 0.0
C398 C 0.88216 0.0525 0.4369 0.0
C399 C 0.92839 0.09204 0.43882 0.0
C400 C 0.84954 0.04189 0.44816 0.0
C401 C 0.86288 0.07039 0.46153 0.0
C402 C 0.90862 0.11005 0.46341 0.0
C403 C 0.94091 0.12106 0.45213 0.0
C404 C 0.8295 0.05924 0.47372 0.0
C405 C 0.84115 0.04779 0.48748 0.0
C406 C 0.78731 0.06113 0.47199 0.0
C407 C 0.77349 0.07344 0.45774 0.0
C408 C 0.80378 0.11683 0.45158 0.0
C409 C 0.79052 0.12802 0.43811 0.0
C410 C 0.74688 0.09625 0.43075 0.0
C411 C 0.71634 0.05328 0.43688 0.0
C412 C 0.72946 0.0419 0.45035 0.0
C413 C 0.73953 0.07451 0.53598 0.0
C414 C 0.6895 0.04874 0.53481 0.0
C415 C 0.76607 0.0718 0.52428 0.0
C416 C 0.74317 0.04256 0.5113 0.0
C417 C 0.69329 0.01541 0.51036 0.0
C418 C 0.66672 0.01858 0.52196 0.0
C419 C 0.77112 0.04352 0.49825 0.0
C420 C 0.75856 0.05313 0.48427 0.0
C421 C 0.81216 0.03925 0.49974 0.0
C422 C 0.82506 0.0251 0.51382 0.0
C423 C 0.79143 0.98423 0.52059 0.0
C424 C 0.80363 0.97117 0.53388 0.0
C425 C 0.84945 0.99853 0.54048 0.0
C426 C 0.88322 0.03898 0.53378 0.0
C427 C 0.8712 0.05223 0.52049 0.0
H428 H 0.85882 0.98835 0.55077 0.0
H429 H 0.73666 0.10498 0.42032 0.0
H430 H 0.90114 0.02688 0.77325 0.0
H431 H 0.85055 0.96137 0.7884 0.0
H432 H 0.94872 0.90962 0.78506 0.0
H433 H -0.00125 0.97446 0.76927 0.0
H434 H 0.86059 0.83762 0.78411 0.0
H435 H 0.95027 0.97554 0.81623 0.0
H436 H 0.98387 0.05895 0.82505 0.0
H437 H 0.84309 0.03507 0.83143 0.0
H438 H 0.80855 0.95169 0.82237 0.0
H439 H 0.76998 0.70867 0.85125 0.0
H440 H 0.82185 0.76318 0.83313 0.0
H441 H 0.71823 0.8051 0.82419 0.0
H442 H 0.6651 0.74924 0.8417 0.0
H443 H 0.81512 0.88098 0.83236 0.0
H444 H 0.72783 0.74077 0.79881 0.0
H445 H 0.69876 0.65757 0.79071 0.0
H446 H 0.84277 0.68653 0.78889 0.0
H447 H 0.87269 0.76982 0.79721 0.0
C448 C 0.91179 0.00135 0.77564 0.0
C449 C 0.95414 0.00603 0.77024 0.0
C450 C 0.88294 0.964 0.78434 0.0
C451 C 0.8965 0.9313 0.78821 0.0
C452 C 0.93774 0.93464 0.7823 0.0
C453 C 0.96628 0.97166 0.77331 0.0
C454 C 0.86833 0.89499 0.79889 0.0
C455 C 0.85126 0.84718 0.79475 0.0
C456 C 0.85616 0.9074 0.81281 0.0
C457 C 0.8768 0.9574 0.81851 0.0
C458 C 0.92644 0.98812 0.81943 0.0
C459 C 0.94567 0.03541 0.82447 0.0
C460 C 0.91563 0.05231 0.82878 0.0
C461 C 0.86631 0.02193 0.82808 0.0
C462 C 0.84689 0.97464 0.823 0.0
C463 C 0.75765 0.72864 0.84521 0.0
C464 C 0.71336 0.72468 0.84805 0.0
C465 C 0.78751 0.75997 0.83492 0.0
C466 C 0.7738 0.78812 0.82741 0.0
C467 C 0.72945 0.78378 0.82999 0.0
C468 C 0.69932 0.75206 0.84009 0.0
C469 C 0.80651 0.82386 0.81737 0.0
C470 C 0.82471 0.87161 0.82172 0.0
C471 C 0.82047 0.81138 0.80385 0.0
C472 C 0.80247 0.76139 0.7988 0.0
C473 C 0.75329 0.7293 0.79683 0.0
C474 C 0.73666 0.68215 0.79216 0.0
C475 C 0.76889 0.66673 0.78933 0.0
C476 C 0.81784 0.69849 0.79112 0.0
C477 C 0.83465 0.74568 0.79579 0.0
H478 H 0.75595 0.63021 0.78572 0.0
H479 H 0.93057 0.08893 0.83267 0.0
H480 H 0.99574 0.9505 0.0905 0.0
H481 H 0.99331 0.89241 0.10714 0.0
H482 H 0.14346 0.98263 0.11827 0.0
H483 H 0.14643 0.04033 0.10123 0.0
H484 H 0.12208 0.89354 0.11517 0.0
H485 H 0.05815 0.97739 0.1418 0.0
H486 H 0.00519 0.01001 0.14564 0.0
H487 H 0.88305 0.87011 0.14132 0.0
H488 H 0.93527 0.83668 0.13724 0.0
H489 H 0.12379 0.78827 0.18341 0.0
H490 H 0.12999 0.8427 0.16459 0.0
H491 H 0.98379 0.74742 0.14975 0.0
H492 H 0.97752 0.69232 0.1683 0.0
H493 H 0.00421 0.8393 0.15486 0.0
H494 H 0.0708 0.75628 0.12868 0.0
H495 H 0.12564 0.7256 0.12554 0.0
H496 H 0.24539 0.8669 0.13014 0.0
H497 H 0.19126 0.8984 0.13352 0.0
C498 C 0.0283 0.95787 0.09643 0.0
C499 C 0.07121 0.0001 0.09466 0.0
C500 C 0.02683 0.92473 0.10598 0.0
C501 C 0.06801 0.9336 0.11418 0.0
C502 C 0.11122 0.97514 0.1121 0.0
C503 C 0.11285 0.0081 0.10239 0.0
C504 C 0.06567 0.90001 0.12516 0.0
C505 C 0.09672 0.88214 0.12397 0.0
C506 C 0.0321 0.8846 0.13651 0.0
C507 C 0.00061 0.90458 0.13907 0.0
C508 C 0.01998 0.95361 0.14156 0.0
C509 C 0.99009 0.97224 0.1438 0.0
C510 C 0.94078 0.94216 0.14369 0.0
C511 C 0.92126 0.89337 0.14139 0.0
C512 C 0.95098 0.87456 0.13912 0.0
C513 C 0.09318 0.77851 0.17598 0.0
C514 C 0.05012 0.73596 0.17738 0.0
C515 C 0.09675 0.80973 0.16527 0.0
C516 C 0.05739 0.79893 0.15576 0.0
C517 C 0.0145 0.75642 0.15704 0.0
C518 C 0.01095 0.72511 0.16769 0.0
C519 C 0.06036 0.83269 0.14479 0.0
C520 C 0.0295 0.85069 0.14604 0.0
C521 C 0.0944 0.84852 0.13361 0.0
C522 C 0.12698 0.82966 0.1315 0.0
C523 C 0.10884 0.78079 0.12914 0.0
C524 C 0.13979 0.76325 0.1273 0.0
C525 C 0.18897 0.79427 0.12768 0.0
C526 C 0.20729 0.84291 0.12987 0.0
C527 C 0.17649 0.86063 0.13173 0.0
H528 H 0.21288 0.78063 0.12625 0.0
H529 H 0.9177 0.95666 0.14542 0.0
H530 H 0.03375 0.01688 0.44315 0.0
H531 H 0.09082 0.0119 0.45955 0.0
H532 H 0.20577 0.12885 0.4384 0.0
H533 H 0.14837 0.12523 0.41977 0.0
H534 H 0.23913 0.08457 0.44425 0.0
H535 H 0.15378 0.12618 0.48292 0.0
H536 H 0.08264 0.1142 0.4962 0.0
H537 H 0.04184 0.96962 0.50172 0.0
H538 H 0.11279 0.98105 0.48863 0.0
H539 H 0.39702 0.15934 0.51037 0.0
H540 H 0.33936 0.15123 0.49089 0.0
H541 H 0.26241 0.00027 0.49418 0.0
H542 H 0.3213 0.0074 0.51301 0.0
H543 H 0.21015 0.05458 0.49794 0.0
H544 H 0.31106 0.02656 0.46539 0.0
H545 H 0.38798 0.04578 0.45494 0.0
H546 H 0.40488 0.1756 0.43991 0.0
H547 H 0.32837 0.1575 0.45049 0.0
C548 C 0.07133 0.04173 0.44212 0.0
C549 C 0.08669 0.07406 0.43086 0.0
C550 C 0.1042 0.0397 0.45183 0.0
C551 C 0.15325 0.07196 0.45114 0.0
C552 C 0.1684 0.10373 0.43959 0.0
C553 C 0.13555 0.10313 0.42917 0.0
C554 C 0.189 0.07087 0.46166 0.0
C555 C 0.23268 0.07922 0.45604 0.0
C556 C 0.1809 0.06142 0.47705 0.0
C557 C 0.13766 0.05422 0.48447 0.0
C558 C 0.12906 0.09175 0.48675 0.0
C559 C 0.08904 0.08512 0.49431 0.0
C560 C 0.05746 0.04105 0.4996 0.0
C561 C 0.06612 0.00365 0.49752 0.0
C562 C 0.1063 0.01024 0.4901 0.0
C563 C 0.36858 0.12426 0.50674 0.0
C564 C 0.36376 0.08404 0.51337 0.0
C565 C 0.33557 0.11979 0.49566 0.0
C566 C 0.29694 0.07519 0.49118 0.0
C567 C 0.29213 0.03496 0.49758 0.0
C568 C 0.32557 0.03925 0.50845 0.0
C569 C 0.2598 0.071 0.48053 0.0
C570 C 0.21607 0.06089 0.48614 0.0
C571 C 0.26835 0.08013 0.46532 0.0
C572 C 0.31422 0.09089 0.45888 0.0
C573 C 0.3314 0.05943 0.45999 0.0
C574 C 0.37488 0.07007 0.45401 0.0
C575 C 0.40137 0.11194 0.4468 0.0
C576 C 0.38436 0.14321 0.44552 0.0
C577 C 0.34092 0.13275 0.45149 0.0
H578 H 0.43502 0.12012 0.44217 0.0
H579 H 0.0265 0.036 0.50543 0.0
H580 H 0.14867 0.23594 0.75302 0.0
H581 H 0.21635 0.30197 0.76687 0.0
H582 H 0.23053 0.20366 0.79407 0.0
H583 H 0.15878 0.13829 0.7814 0.0
H584 H 0.249 0.27125 0.81089 0.0
H585 H 0.30188 0.26229 0.76217 0.0
H586 H 0.29901 0.25926 0.73456 0.0
H587 H 0.31819 0.39861 0.73541 0.0
H588 H 0.31962 0.402 0.76303 0.0
H589 H 0.50749 0.46071 0.82391 0.0
H590 H 0.44643 0.4031 0.80561 0.0
H591 H 0.34386 0.43567 0.82392 0.0
H592 H 0.40419 0.49282 0.84216 0.0
H593 H 0.37672 0.40015 0.78365 0.0
H594 H 0.25444 0.32758 0.83438 0.0
H595 H 0.26249 0.31901 0.86141 0.0
H596 H 0.39686 0.32716 0.85504 0.0
H597 H 0.38919 0.3348 0.828 0.0
C598 C 0.16509 0.22886 0.76242 0.0
C599 C 0.14721 0.18262 0.76676 0.0
C600 C 0.20471 0.26643 0.77003 0.0
C601 C 0.22936 0.258 0.78139 0.0
C602 C 0.21204 0.21136 0.78545 0.0
C603 C 0.17119 0.17399 0.77822 0.0
C604 C 0.27288 0.29762 0.78914 0.0
C605 C 0.27678 0.29916 0.80483 0.0
C606 C 0.31017 0.33374 0.78131 0.0
C607 C 0.31056 0.33227 0.76469 0.0
C608 C 0.3053 0.29223 0.75648 0.0
C609 C 0.3039 0.29043 0.74082 0.0
C610 C 0.30857 0.32874 0.73324 0.0
C611 C 0.31461 0.36896 0.7413 0.0
C612 C 0.31564 0.37083 0.75696 0.0
C613 C 0.4722 0.45637 0.82374 0.0
C614 C 0.46045 0.48095 0.8345 0.0
C615 C 0.43757 0.42379 0.81324 0.0
C616 C 0.39075 0.41503 0.81357 0.0
C617 C 0.3799 0.44205 0.82355 0.0
C618 C 0.41448 0.47482 0.83391 0.0
C619 C 0.35163 0.37341 0.80516 0.0
C620 C 0.34867 0.37178 0.7895 0.0
C621 C 0.31636 0.33575 0.81287 0.0
C622 C 0.3215 0.3324 0.82921 0.0
C623 C 0.28571 0.32762 0.83877 0.0
C624 C 0.29017 0.32283 0.85408 0.0
C625 C 0.33016 0.32254 0.85991 0.0
C626 C 0.36598 0.3275 0.8505 0.0
C627 C 0.36163 0.33216 0.8352 0.0
H628 H 0.33324 0.31797 0.87168 0.0
H629 H 0.30749 0.32724 0.72111 0.0
H630 H 0.96011 0.06222 0.70084 0.0
H631 H 0.9029 0.05593 0.68151 0.0
H632 H 0.86256 0.13708 0.71057 0.0
H633 H 0.91922 0.14329 0.73003 0.0
H634 H 0.78536 0.06094 0.69659 0.0
H635 H 0.93646 0.1888 0.68303 0.0
H636 H 0.02113 0.22662 0.67707 0.0
H637 H 0.98554 0.12646 0.6396 0.0
H638 H 0.90066 0.08759 0.64548 0.0
H639 H 0.67452 0.13539 0.64423 0.0
H640 H 0.7288 0.13352 0.66312 0.0
H641 H 0.75889 0.0481 0.63227 0.0
H642 H 0.70498 0.05027 0.61326 0.0
H643 H 0.84016 0.12213 0.64662 0.0
H644 H 0.68812 0.9966 0.6596 0.0
H645 H 0.60355 0.95955 0.6656 0.0
H646 H 0.6409 0.05602 0.7042 0.0
H647 H 0.72569 0.09415 0.6983 0.0
C648 C 0.93899 0.07861 0.70317 0.0
C649 C 0.94447 0.10343 0.717 0.0
C650 C 0.90642 0.07508 0.69208 0.0
C651 C 0.87888 0.09642 0.69458 0.0
C652 C 0.88352 0.12037 0.70843 0.0
C653 C 0.9161 0.12401 0.71952 0.0
C654 C 0.84567 0.09447 0.68268 0.0
C655 C 0.79738 0.07475 0.68571 0.0
C656 C 0.86131 0.11152 0.66839 0.0
C657 C 0.91228 0.13497 0.66479 0.0
C658 C 0.94673 0.1746 0.67359 0.0
C659 C 0.99476 0.19627 0.67022 0.0
C660 C 0.00873 0.17887 0.65799 0.0
C661 C 0.97467 0.13985 0.64909 0.0
C662 C 0.9266 0.118 0.65243 0.0
C663 C 0.69291 0.11643 0.64147 0.0
C664 C 0.68554 0.0929 0.62731 0.0
C665 C 0.72359 0.1151 0.65228 0.0
C666 C 0.74745 0.09031 0.64911 0.0
C667 C 0.74062 0.06726 0.63493 0.0
C668 C 0.70966 0.06828 0.62414 0.0
C669 C 0.77994 0.08895 0.66058 0.0
C670 C 0.82809 0.10807 0.65747 0.0
C671 C 0.76419 0.07145 0.6748 0.0
C672 C 0.71323 0.04853 0.67842 0.0
C673 C 0.67828 0.01019 0.66929 0.0
C674 C 0.6303 0.98894 0.67269 0.0
C675 C 0.61685 0.0055 0.68526 0.0
C676 C 0.65137 0.04327 0.69447 0.0
C677 C 0.6994 0.06469 0.6911 0.0
H678 H 0.57969 0.98899 0.68787 0.0
H679 H 0.04592 0.1957 0.6554 0.0
H680 H 0.06047 0.06768 0.02067 0.0
H681 H 0.0113 0.02106 -0.0014 0.0
H682 H 0.88463 0.98516 0.02271 0.0
H683 H 0.93413 0.02782 0.0452 0.0
H684 H 0.87729 0.91086 0.01184 0.0
H685 H 0.91169 0.05348 0.98493 0.0
H686 H 0.96501 0.13255 0.97574 0.0
H687 H 0.05297 0.08259 0.95667 0.0
H688 H -0.00036 0.00325 0.96558 0.0
H689 H 0.70576 0.78921 0.95375 0.0
H690 H 0.76001 0.8496 0.97241 0.0
H691 H 0.88014 0.86314 0.94864 0.0
H692 H 0.82569 0.80375 0.92941 0.0
H693 H 0.89437 0.94825 0.9584 0.0
H694 H 0.84443 0.80014 0.97987 0.0
H695 H 0.79021 0.72143 0.98892 0.0
H696 H 0.73057 0.78163 0.01889 0.0
H697 H 0.78383 0.86056 0.00986 0.0
C698 C 0.02208 0.05063 0.02108 0.0
C699 C 0.00091 0.05246 0.03443 0.0
C700 C 0.99392 0.0245 0.00838 0.0
C701 C 0.94402 0.00019 0.00878 0.0
C702 C 0.923 0.00376 0.02203 0.0
C703 C 0.9512 0.02871 0.03483 0.0
C704 C 0.91395 0.96537 0.99641 0.0
C705 C 0.88037 0.91956 0.00019 0.0
C706 C 0.91953 0.97544 0.9811 0.0
C707 C 0.95247 0.02313 0.9762 0.0
C708 C 0.94283 0.0598 0.97896 0.0
C709 C 0.97276 0.10442 0.97369 0.0
C710 C 0.01263 0.11272 0.96576 0.0
C711 C 0.02227 0.07622 0.9629 0.0
C712 C 0.99206 0.03139 0.96798 0.0
C713 C 0.74369 0.80568 0.95227 0.0
C714 C 0.76144 0.7919 0.94002 0.0
C715 C 0.77467 0.83973 0.96309 0.0
C716 C 0.82405 0.86021 0.96205 0.0
C717 C 0.84207 0.84747 0.94968 0.0
C718 C 0.81099 0.81343 0.93876 0.0
C719 C 0.85656 0.89472 0.97398 0.0
C720 C 0.89101 0.93996 0.97009 0.0
C721 C 0.85165 0.88415 0.98923 0.0
C722 C 0.818 0.83627 0.99413 0.0
C723 C 0.81935 0.79652 0.98825 0.0
C724 C 0.78887 0.75188 0.99342 0.0
C725 C 0.75717 0.74663 0.00452 0.0
C726 C 0.75529 0.78582 0.01033 0.0
C727 C 0.78559 0.83049 0.00519 0.0
H728 H 0.73424 0.71227 0.00872 0.0
H729 H 0.03588 0.14734 0.96175 0.0
H730 H 0.90811 0.91727 0.37936 0.0
H731 H 0.90161 0.85169 0.36324 0.0
H732 H 0.03076 0.94815 0.34228 0.0
H733 H 0.03818 0.01365 0.35859 0.0
H734 H 0.95013 0.87538 0.3222 0.0
H735 H 0.04524 0.89566 0.36777 0.0
H736 H 0.05785 0.90084 0.39522 0.0
H737 H 0.93584 0.76213 0.39756 0.0
H738 H 0.92208 0.75649 0.37012 0.0
H739 H 0.05059 0.75103 0.28971 0.0
H740 H 0.03542 0.80513 0.30486 0.0
H741 H 0.92933 0.68838 0.32828 0.0
H742 H 0.9453 0.63377 0.31329 0.0
H743 H 0.98444 0.76325 0.34738 0.0
H744 H 0.89587 0.7356 0.30208 0.0
H745 H 0.87799 0.7282 0.27489 0.0
H746 H 0.9782 0.87587 0.27184 0.0
H747 H 0.99778 0.88396 0.29895 0.0
C748 C 0.9346 0.92461 0.37111 0.0
C749 C 0.97376 0.97044 0.37023 0.0
C750 C 0.9309 0.88715 0.36197 0.0
C751 C 0.96585 0.89524 0.35167 0.0
C752 C 0.00346 0.94138 0.35018 0.0
C753 C 0.0077 0.97865 0.35951 0.0
C754 C 0.96546 0.85538 0.34321 0.0
C755 C 0.95789 0.85094 0.32762 0.0
C756 C 0.97379 0.82264 0.35047 0.0
C757 C 0.98226 0.82592 0.36693 0.0
C758 C 0.02082 0.86648 0.37416 0.0
C759 C 0.02824 0.86945 0.38971 0.0
C760 C 0.99756 0.8319 0.39814 0.0
C761 C 0.9595 0.79123 0.39102 0.0
C762 C 0.95188 0.78812 0.37547 0.0
C763 C 0.0247 0.73688 0.29828 0.0
C764 C -0.00057 0.68816 0.30041 0.0
C765 C 0.01557 0.76779 0.30679 0.0
C766 C 0.98071 0.75067 0.31753 0.0
C767 C 0.95618 0.70223 0.31998 0.0
C768 C 0.96524 0.67112 0.31141 0.0
C769 C 0.9705 0.78385 0.32619 0.0
C770 C 0.97601 0.7871 0.34187 0.0
C771 C 0.95956 0.81508 0.31899 0.0
C772 C 0.9486 0.8103 0.30258 0.0
C773 C 0.91457 0.76642 0.2956 0.0
C774 C 0.90406 0.7621 0.28019 0.0
C775 C 0.9269 0.80155 0.27164 0.0
C776 C 0.96044 0.84537 0.27848 0.0
C777 C 0.97136 0.84981 0.29387 0.0
H778 H 0.91867 0.79815 0.25972 0.0
H779 H 0.00337 0.83426 0.41017 0.0
H780 H 0.10193 0.01297 0.70492 0.0
H781 H 0.16513 0.01535 0.68972 0.0
H782 H 0.23335 0.16712 0.69008 0.0
H783 H 0.17059 0.16518 0.70505 0.0
H784 H 0.20321 0.05482 0.66169 0.0
H785 H 0.35364 0.20903 0.69879 0.0
H786 H 0.36789 0.24266 0.72484 0.0
H787 H 0.26387 0.10757 0.73966 0.0
H788 H 0.24987 0.07283 0.71377 0.0
H789 H 0.41828 0.164 0.62513 0.0
H790 H 0.35388 0.15463 0.64083 0.0
H791 H 0.38922 0.07832 0.67167 0.0
H792 H 0.45436 0.08789 0.65598 0.0
H793 H 0.36602 0.14273 0.68575 0.0
H794 H 0.30441 0.01774 0.64735 0.0
H795 H 0.29189 0.98432 0.62133 0.0
H796 H 0.21718 0.05605 0.60968 0.0
H797 H 0.23045 0.09104 0.63553 0.0
C798 C 0.12986 0.04671 0.70148 0.0
C799 C 0.13148 0.08889 0.70627 0.0
C800 C 0.1659 0.048 0.69283 0.0
C801 C 0.20416 0.09148 0.68904 0.0
C802 C 0.20438 0.1333 0.69309 0.0
C803 C 0.16833 0.13204 0.70159 0.0
C804 C 0.2454 0.09382 0.68158 0.0
C805 C 0.23878 0.07387 0.66694 0.0
C806 C 0.29161 0.11813 0.6886 0.0
C807 C 0.30034 0.13846 0.70428 0.0
C808 C 0.334 0.18642 0.70761 0.0
C809 C 0.34208 0.20567 0.72236 0.0
C810 C 0.31669 0.17731 0.73389 0.0
C811 C 0.28339 0.12955 0.73071 0.0
C812 C 0.27537 0.11006 0.716 0.0
C813 C 0.41326 0.14634 0.63546 0.0
C814 C 0.44145 0.12678 0.63938 0.0
C815 C 0.37614 0.14062 0.64433 0.0
C816 C 0.36653 0.11526 0.65727 0.0
C817 C 0.39609 0.09784 0.66167 0.0
C818 C 0.43312 0.10323 0.65272 0.0
C819 C 0.32403 0.10499 0.6657 0.0
C820 C 0.33041 0.12343 0.68053 0.0
C821 C 0.27759 0.07905 0.65889 0.0
C822 C 0.2688 0.05736 0.64337 0.0
C823 C 0.28568 0.02674 0.63922 0.0
C824 C 0.27844 0.00751 0.62449 0.0
C825 C 0.25381 0.0181 0.61386 0.0
C826 C 0.23625 0.04786 0.61793 0.0
C827 C 0.2437 0.06748 0.63262 0.0
H828 H 0.2483 0.00323 0.60246 0.0
H829 H 0.32283 0.19235 0.74529 0.0
H830 H 0.21386 0.24422 0.06707 0.0
H831 H 0.28575 0.29613 0.05357 0.0
H832 H 0.20239 0.24877 0.0118 0.0
H833 H 0.13165 0.1976 0.0251 0.0
H834 H 0.28801 0.24755 0.01096 0.0
H835 H 0.22727 0.35015 0.02717 0.0
H836 H 0.20395 0.39055 0.04617 0.0
H837 H 0.34514 0.45981 0.06663 0.0
H838 H 0.36908 0.41923 0.04785 0.0
H839 H 0.37472 0.40437 0.9541 0.0
H840 H 0.32941 0.35774 0.97472 0.0
H841 H 0.45413 0.43257 0.00451 0.0
H842 H 0.49998 0.47925 0.98378 0.0
H843 H 0.36511 0.4223 0.01584 0.0
H844 H 0.42877 0.33026 0.99565 0.0
H845 H 0.4501 0.29084 0.97572 0.0
H846 H 0.30239 0.20166 0.96226 0.0
H847 H 0.28019 0.24108 0.98195 0.0
C848 C 0.21121 0.24535 0.05502 0.0
C849 C 0.16716 0.21802 0.04711 0.0
C850 C 0.25204 0.27479 0.04736 0.0
C851 C 0.24913 0.27623 0.03172 0.0
C852 C 0.20527 0.2482 0.02388 0.0
C853 C 0.16468 0.21953 0.03151 0.0
C854 C 0.29112 0.30705 0.02322 0.0
C855 C 0.30514 0.28577 0.01207 0.0
C856 C 0.31414 0.35686 0.02498 0.0
C857 C 0.29975 0.38114 0.03626 0.0
C858 C 0.25319 0.3736 0.03582 0.0
C859 C 0.23989 0.39662 0.04652 0.0
C860 C 0.27299 0.42758 0.05764 0.0
C861 C 0.3195 0.43571 0.05804 0.0
C862 C 0.33295 0.41271 0.04737 0.0
C863 C 0.39238 0.41097 0.96506 0.0
C864 C 0.44071 0.44524 0.9674 0.0
C865 C 0.36663 0.38426 0.97678 0.0
C866 C 0.38866 0.39165 0.99106 0.0
C867 C 0.43672 0.4264 0.99354 0.0
C868 C 0.46277 0.45274 0.98172 0.0
C869 C 0.36068 0.36263 0.00325 0.0
C870 C 0.34921 0.38417 0.01505 0.0
C871 C 0.33979 0.31297 0.00206 0.0
C872 C 0.35285 0.28886 0.99024 0.0
C873 C 0.40085 0.3025 0.98837 0.0
C874 C 0.41309 0.28011 0.97712 0.0
C875 C 0.37763 0.24381 0.96772 0.0
C876 C 0.32982 0.22978 0.96956 0.0
C877 C 0.31738 0.2521 0.98077 0.0
H878 H 0.38718 0.22651 0.95902 0.0
H879 H 0.26264 0.4454 0.06591 0.0
H880 H 0.01343 0.23694 0.39392 0.0
H881 H 0.00406 0.28312 0.37499 0.0
H882 H 0.96675 0.16979 0.3415 0.0
H883 H 0.97477 0.12261 0.36057 0.0
H884 H 0.05474 0.3167 0.35207 0.0
H885 H 0.89874 0.17622 0.31303 0.0
H886 H 0.82421 0.10012 0.31471 0.0
H887 H 0.81478 0.13687 0.36069 0.0
H888 H 0.88887 0.21342 0.35923 0.0
H889 H 0.061 0.41607 0.28373 0.0
H890 H 0.05442 0.36003 0.302 0.0
H891 H 0.92448 0.34995 0.31705 0.0
H892 H 0.93047 0.40542 0.29855 0.0
H893 H 0.91709 0.26522 0.31618 0.0
H894 H 0.03056 0.4211 0.33636 0.0
H895 H 0.10194 0.5004 0.3363 0.0
H896 H 0.19022 0.43836 0.33152 0.0
H897 H 0.11925 0.35864 0.33133 0.0
C898 C 0.00268 0.22154 0.38257 0.0
C899 C 0.99507 0.17619 0.37872 0.0
C900 C 0.9974 0.24804 0.37175 0.0
C901 C 0.98473 0.23 0.35682 0.0
C902 C 0.9759 0.18421 0.35299 0.0
C903 C 0.98062 0.15733 0.36389 0.0
C904 C 0.984 0.26057 0.3452 0.0
C905 C 0.02455 0.30535 0.34424 0.0
C906 C 0.94449 0.24608 0.33508 0.0
C907 C 0.89964 0.20034 0.33605 0.0
C908 C 0.88067 0.16812 0.32348 0.0
C909 C 0.83851 0.1249 0.3244 0.0
C910 C 0.81487 0.1136 0.33782 0.0
C911 C 0.83324 0.14558 0.35033 0.0
C912 C 0.87535 0.18886 0.34946 0.0
C913 C 0.03105 0.40188 0.29095 0.0
C914 C 0.99654 0.41545 0.28987 0.0
C915 C 0.02726 0.36982 0.30134 0.0
C916 C 0.98936 0.3514 0.31105 0.0
C917 C 0.95401 0.36374 0.30967 0.0
C918 C 0.95752 0.39546 0.29914 0.0
C919 C 0.98789 0.32104 0.32306 0.0
C920 C 0.94715 0.27638 0.32404 0.0
C921 C 0.02676 0.336 0.33348 0.0
C922 C 0.06955 0.38391 0.3337 0.0
C923 C 0.06517 0.42437 0.33519 0.0
C924 C 0.10555 0.46939 0.33521 0.0
C925 C 0.15057 0.47442 0.33387 0.0
C926 C 0.15532 0.43442 0.33254 0.0
C927 C 0.11503 0.38931 0.33249 0.0
H928 H 0.1818 0.5093 0.33388 0.0
H929 H 0.78225 0.08011 0.33851 0.0
loop_
_geom_bond_atom_site_label_1
_geom_bond_atom_site_label_2
_geom_bond_distance
_geom_bond_site_symmetry_2
_ccdc_geom_bond_type
Mn0 O5 2.095 . S
Mn0 O15 2.162 . S
Mn0 O16 2.297 . S
Mn0 O24 2.385 . S
Mn0 O25 2.209 . S
Mn0 O26 2.094 . S
Mn1 O6 2.121 . S
Mn1 N8 2.257 1_455 S
Mn1 N17 2.282 . S
Mn1 O25 2.215 . S
Mn1 O27 2.117 . S
C2 O24 1.234 . S
C2 O25 1.283 . S
C3 O15 1.281 . S
C3 O16 1.236 . S
C4 O26 1.240 . S
C4 O27 1.264 . S
O5 Mn0 2.095 . S
O5 C14 1.250 . S
O6 Mn1 2.121 . S
O6 C14 1.258 . S
C7 N8 1.326 . S
C7 C11 1.460 . S
C7 H13 0.929 . S
N8 Mn1 2.257 1_655 S
N8 C7 1.326 . S
N8 C12 1.362 . S
C9 C10 1.258 . S
C9 C12 1.431 . S
C9 C29 1.449 . S
C10 C9 1.258 . S
C10 C11 1.477 . S
C10 H30 0.931 . S
C11 C7 1.460 . S
C11 C10 1.477 . S
C11 H31 0.930 . S
C12 N8 1.362 . S
C12 C9 1.431 . S
C12 C22 1.476 . S
H13 C7 0.929 . S
C14 O5 1.250 . S
C14 O6 1.258 . S
O15 Mn0 2.162 . S
O15 C3 1.281 . S
O16 Mn0 2.297 . S
O16 C3 1.236 . S
N17 Mn1 2.282 . S
N17 C18 1.328 . S
N17 C22 1.318 1_455 S
C18 N17 1.328 . S
C18 C19 1.457 . S
C18 H23 0.929 . S
C19 C18 1.457 . S
C19 C20 1.291 1_455 S
C19 H32 0.931 . S
C20 C19 1.291 1_655 S
C20 C21 1.373 . S
C20 H33 0.929 1_554 S
C21 C20 1.373 . S
C21 C22 1.396 . S
C21 C28 1.403 . S
C22 C12 1.476 . S
C22 N17 1.318 1_655 S
C22 C21 1.396 . S
H23 C18 0.929 . S
O24 Mn0 2.385 . S
O24 C2 1.234 . S
O25 Mn0 2.209 . S
O25 Mn1 2.215 . S
O25 C2 1.283 . S
O26 Mn0 2.094 . S
O26 C4 1.240 . S
O27 Mn1 2.117 . S
O27 C4 1.264 . S
C28 C21 1.403 . S
C28 C29 1.399 . S
C28 H34 0.929 . S
C29 C9 1.449 . S
C29 C28 1.399 . S
C29 H35 0.930 . S
H30 C10 0.931 . S
H31 C11 0.930 . S
H32 C19 0.931 . S
H33 C20 0.929 1_556 S
H34 C28 0.929 . S
H35 C29 0.930 . S
Mn36 O41 2.095 . S
Mn36 O51 2.162 1_545 S
Mn36 O52 2.297 1_655 S
Mn36 O60 2.385 1_655 S
Mn36 O61 2.209 1_655 S
Mn36 O62 2.094 . S
Mn37 O42 2.121 . S
Mn37 N44 2.257 . S
Mn37 N53 2.282 . S
Mn37 O61 2.215 . S
Mn37 O63 2.117 1_455 S
C38 O60 1.234 . S
C38 O61 1.283 . S
C39 O51 1.281 . S
C39 O52 1.236 1_665 S
C40 O62 1.240 . S
C40 O63 1.264 . S
O41 Mn36 2.095 . S
O41 C50 1.250 1_655 S
O42 Mn37 2.121 . S
O42 C50 1.258 . S
C43 N44 1.326 . S
C43 C47 1.460 . S
C43 H49 0.929 . S
N44 Mn37 2.257 . S
N44 C43 1.326 . S
N44 C48 1.362 . S
C45 C46 1.258 . S
C45 C48 1.431 . S
C45 C65 1.449 . S
C46 C45 1.258 . S
C46 C47 1.477 . S
C46 H66 0.931 . S
C47 C43 1.460 . S
C47 C46 1.477 . S
C47 H67 0.930 . S
C48 N44 1.362 . S
C48 C45 1.431 . S
C48 C58 1.476 . S
H49 C43 0.929 . S
C50 O41 1.250 1_455 S
C50 O42 1.258 . S
O51 Mn36 2.162 1_565 S
O51 C39 1.281 . S
O52 Mn36 2.297 1_455 S
O52 C39 1.236 1_445 S
N53 Mn37 2.282 . S
N53 C54 1.328 . S
N53 C58 1.318 . S
C54 N53 1.328 . S
C54 C55 1.457 . S
C54 H59 0.929 . S
C55 C54 1.457 . S
C55 C56 1.291 . S
C55 H68 0.931 . S
C56 C55 1.291 . S
C56 C57 1.373 . S
C56 H69 0.929 . S
C57 C56 1.373 . S
C57 C58 1.396 . S
C57 C64 1.403 . S
C58 C48 1.476 . S
C58 N53 1.318 . S
C58 C57 1.396 . S
H59 C54 0.929 . S
O60 Mn36 2.385 1_455 S
O60 C38 1.234 . S
O61 Mn36 2.209 1_455 S
O61 Mn37 2.215 . S
O61 C38 1.283 . S
O62 Mn36 2.094 . S
O62 C40 1.240 . S
O63 Mn37 2.117 1_655 S
O63 C40 1.264 . S
C64 C57 1.403 . S
C64 C65 1.399 . S
C64 H70 0.929 . S
C65 C45 1.449 . S
C65 C64 1.399 . S
C65 H71 0.930 . S
H66 C46 0.931 . S
H67 C47 0.930 . S
H68 C55 0.931 . S
H69 C56 0.929 . S
H70 C64 0.929 . S
H71 C65 0.930 . S
Mn72 O77 2.095 . S
Mn72 O87 2.162 . S
Mn72 O88 2.297 . S
Mn72 O96 2.385 . S
Mn72 O97 2.209 . S
Mn72 O98 2.094 . S
Mn73 O78 2.121 . S
Mn73 N80 2.257 . S
Mn73 N89 2.282 . S
Mn73 O97 2.215 . S
Mn73 O99 2.117 . S
C74 O96 1.234 . S
C74 O97 1.283 . S
C75 O87 1.281 . S
C75 O88 1.236 . S
C76 O98 1.240 . S
C76 O99 1.264 . S
O77 Mn72 2.095 . S
O77 C86 1.250 . S
O78 Mn73 2.121 . S
O78 C86 1.258 . S
C79 N80 1.326 . S
C79 C83 1.460 . S
C79 H85 0.929 . S
N80 Mn73 2.257 . S
N80 C79 1.326 . S
N80 C84 1.362 . S
C81 C82 1.258 . S
C81 C84 1.431 . S
C81 C101 1.449 . S
C82 C81 1.258 . S
C82 C83 1.477 . S
C82 H102 0.931 . S
C83 C79 1.460 . S
C83 C82 1.477 . S
C83 H103 0.930 . S
C84 N80 1.362 . S
C84 C81 1.431 . S
C84 C94 1.476 . S
H85 C79 0.929 . S
C86 O77 1.250 . S
C86 O78 1.258 . S
O87 Mn72 2.162 . S
O87 C75 1.281 . S
O88 Mn72 2.297 . S
O88 C75 1.236 . S
N89 Mn73 2.282 . S
N89 C90 1.328 . S
N89 C94 1.318 . S
C90 N89 1.328 . S
C90 C91 1.457 . S
C90 H95 0.929 . S
C91 C90 1.457 . S
C91 C92 1.291 . S
C91 H104 0.931 . S
C92 C91 1.291 . S
C92 C93 1.373 . S
C92 H105 0.929 . S
C93 C92 1.373 . S
C93 C94 1.396 . S
C93 C100 1.403 . S
C94 C84 1.476 . S
C94 N89 1.318 . S
C94 C93 1.396 . S
H95 C90 0.929 . S
O96 Mn72 2.385 . S
O96 C74 1.234 . S
O97 Mn72 2.209 . S
O97 Mn73 2.215 . S
O97 C74 1.283 . S
O98 Mn72 2.094 . S
O98 C76 1.240 . S
O99 Mn73 2.117 . S
O99 C76 1.264 . S
C100 C93 1.403 . S
C100 C101 1.399 . S
C100 H106 0.929 . S
C101 C81 1.449 . S
C101 C100 1.399 . S
C101 H107 0.930 . S
H102 C82 0.931 . S
H103 C83 0.930 . S
H104 C91 0.931 . S
H105 C92 0.929 . S
H106 C100 0.929 . S
H107 C101 0.930 . S
H108 O134 0.856 . S
H109 O137 0.854 . S
H110 C145 0.930 . S
H111 C146 0.930 . S
H112 C148 0.930 . S
H113 C149 0.930 . S
H114 C151 0.931 1_655 S
H115 C152 0.930 1_655 S
H116 C154 0.930 . S
H117 C155 0.929 . S
H118 C157 0.930 1_655 S
H119 C158 0.931 1_655 S
H120 C160 0.930 . S
H121 C161 0.929 . S
H122 C163 0.931 . S
H123 C164 0.948 . S
H124 C166 0.930 . S
H125 C167 0.932 . S
H126 C169 0.930 . S
H127 C170 0.929 . S
H128 C172 0.931 . S
H129 C173 0.930 . S
H130 C175 0.929 . S
H131 C176 0.931 . S
H132 C178 0.930 . S
H133 C179 0.929 . S
O134 H108 0.856 . S
O134 C180 1.300 . S
O135 C180 1.209 . S
O136 C181 1.199 . S
O137 H109 0.854 . S
O137 C181 1.297 . S
C138 C139 1.404 . S
C138 C143 1.397 . S
C138 C144 1.492 . S
C139 C138 1.404 . S
C139 C140 1.396 . S
C139 C150 1.492 . S
C140 C139 1.396 . S
C140 C141 1.397 . S
C140 C156 1.509 . S
C141 C140 1.397 . S
C141 C142 1.412 . S
C141 C162 1.485 . S
C142 C141 1.412 . S
C142 C143 1.388 . S
C142 C168 1.490 . S
C143 C138 1.397 . S
C143 C142 1.388 . S
C143 C174 1.519 . S
C144 C138 1.492 . S
C144 C145 1.363 1_455 S
C144 C149 1.390 . S
C145 H110 0.930 . S
C145 C144 1.363 1_655 S
C145 C146 1.372 . S
C146 H111 0.930 . S
C146 C145 1.372 . S
C146 C147 1.383 1_655 S
C147 C146 1.383 1_455 S
C147 C148 1.395 . S
C148 H112 0.930 . S
C148 C147 1.395 . S
C148 C149 1.362 . S
C149 H113 0.930 . S
C149 C144 1.390 . S
C149 C148 1.362 . S
C150 C139 1.492 . S
C150 C151 1.377 . S
C150 C155 1.397 . S
C151 H114 0.931 1_455 S
C151 C150 1.377 . S
C151 C152 1.376 . S
C152 H115 0.930 1_455 S
C152 C151 1.376 . S
C152 C153 1.376 . S
C153 C152 1.376 . S
C153 C154 1.378 . S
C153 C180 1.486 . S
C154 H116 0.930 . S
C154 C153 1.378 . S
C154 C155 1.376 . S
C155 H117 0.929 . S
C155 C150 1.397 . S
C155 C154 1.376 . S
C156 C140 1.509 . S
C156 C157 1.391 . S
C156 C161 1.386 . S
C157 H118 0.930 1_455 S
C157 C156 1.391 . S
C157 C158 1.375 . S
C158 H119 0.931 1_455 S
C158 C157 1.375 . S
C158 C159 1.375 . S
C159 C158 1.375 . S
C159 C160 1.361 . S
C160 H120 0.930 . S
C160 C159 1.361 . S
C160 C161 1.399 . S
C161 H121 0.929 . S
C161 C156 1.386 . S
C161 C160 1.399 . S
C162 C141 1.485 . S
C162 C163 1.394 1_455 S
C162 C167 1.360 . S
C163 H122 0.931 . S
C163 C162 1.394 1_655 S
C163 C164 1.362 . S
C164 H123 0.948 . S
C164 C163 1.362 . S
C164 C165 1.388 1_655 S
C165 C164 1.388 1_455 S
C165 C166 1.390 . S
C165 C181 1.476 . S
C166 H124 0.930 . S
C166 C165 1.390 . S
C166 C167 1.366 . S
C167 H125 0.932 . S
C167 C162 1.360 . S
C167 C166 1.366 . S
C168 C142 1.490 . S
C168 C169 1.380 1_455 S
C168 C173 1.386 . S
C169 H126 0.930 . S
C169 C168 1.380 1_655 S
C169 C170 1.381 . S
C170 H127 0.929 . S
C170 C169 1.381 . S
C170 C171 1.371 1_655 S
C171 C170 1.371 1_455 S
C171 C172 1.380 . S
C172 H128 0.931 . S
C172 C171 1.380 . S
C172 C173 1.387 . S
C173 H129 0.930 . S
C173 C168 1.386 . S
C173 C172 1.387 . S
C174 C143 1.519 . S
C174 C175 1.377 1_455 S
C174 C179 1.361 . S
C175 H130 0.929 . S
C175 C174 1.377 1_655 S
C175 C176 1.386 . S
C176 H131 0.931 . S
C176 C175 1.386 . S
C176 C177 1.363 1_655 S
C177 C176 1.363 1_455 S
C177 C178 1.385 . S
C178 H132 0.930 . S
C178 C177 1.385 . S
C178 C179 1.396 . S
C179 H133 0.929 . S
C179 C174 1.361 . S
C179 C178 1.396 . S
C180 O134 1.300 . S
C180 O135 1.209 . S
C180 C153 1.486 . S
C181 O136 1.199 . S
C181 O137 1.297 . S
C181 C165 1.476 . S
H182 O208 0.856 . S
H183 O211 0.854 . S
H184 C219 0.930 . S
H185 C220 0.930 . S
H186 C222 0.930 . S
H187 C223 0.930 . S
H188 C225 0.931 . S
H189 C226 0.930 . S
H190 C228 0.930 . S
H191 C229 0.929 . S
H192 C231 0.930 . S
H193 C232 0.931 . S
H194 C234 0.930 . S
H195 C235 0.929 . S
H196 C237 0.931 . S
H197 C238 0.930 . S
H198 C240 0.930 . S
H199 C241 0.932 . S
H200 C243 0.930 . S
H201 C244 0.929 . S
H202 C246 0.931 . S
H203 C247 0.930 . S
H204 C249 0.929 . S
H205 C250 0.931 . S
H206 C252 0.930 . S
H207 C253 0.929 . S
O208 H182 0.856 . S
O208 C254 1.300 . S
O209 C254 1.209 . S
O210 C255 1.199 . S
O211 H183 0.854 . S
O211 C255 1.297 . S
C212 C213 1.404 . S
C212 C217 1.397 . S
C212 C218 1.492 . S
C213 C212 1.404 . S
C213 C214 1.396 . S
C213 C224 1.492 . S
C214 C213 1.396 . S
C214 C215 1.397 . S
C214 C230 1.509 . S
C215 C214 1.397 . S
C215 C216 1.412 . S
C215 C236 1.485 . S
C216 C215 1.412 . S
C216 C217 1.388 . S
C216 C242 1.490 . S
C217 C212 1.397 . S
C217 C216 1.388 . S
C217 C248 1.519 . S
C218 C212 1.492 . S
C218 C219 1.363 . S
C218 C223 1.390 . S
C219 H184 0.930 . S
C219 C218 1.363 . S
C219 C220 1.372 . S
C220 H185 0.930 . S
C220 C219 1.372 . S
C220 C221 1.383 . S
C221 C220 1.383 . S
C221 C222 1.395 . S
C222 H186 0.930 . S
C222 C221 1.395 . S
C222 C223 1.362 . S
C223 H187 0.930 . S
C223 C218 1.390 . S
C223 C222 1.362 . S
C224 C213 1.492 . S
C224 C225 1.377 . S
C224 C229 1.397 . S
C225 H188 0.931 . S
C225 C224 1.377 . S
C225 C226 1.376 . S
C226 H189 0.930 . S
C226 C225 1.376 . S
C226 C227 1.376 . S
C227 C226 1.376 . S
C227 C228 1.378 . S
C227 C254 1.486 . S
C228 H190 0.930 . S
C228 C227 1.378 . S
C228 C229 1.376 . S
C229 H191 0.929 . S
C229 C224 1.397 . S
C229 C228 1.376 . S
C230 C214 1.509 . S
C230 C231 1.391 . S
C230 C235 1.386 . S
C231 H192 0.930 . S
C231 C230 1.391 . S
C231 C232 1.375 . S
C232 H193 0.931 . S
C232 C231 1.375 . S
C232 C233 1.375 . S
C233 C232 1.375 . S
C233 C234 1.361 . S
C234 H194 0.930 . S
C234 C233 1.361 . S
C234 C235 1.399 . S
C235 H195 0.929 . S
C235 C230 1.386 . S
C235 C234 1.399 . S
C236 C215 1.485 . S
C236 C237 1.394 . S
C236 C241 1.360 . S
C237 H196 0.931 . S
C237 C236 1.394 . S
C237 C238 1.372 . S
C238 H197 0.930 . S
C238 C237 1.372 . S
C238 C239 1.397 . S
C239 C238 1.397 . S
C239 C240 1.390 . S
C239 C255 1.476 . S
C240 H198 0.930 . S
C240 C239 1.390 . S
C240 C241 1.366 . S
C241 H199 0.932 . S
C241 C236 1.360 . S
C241 C240 1.366 . S
C242 C216 1.490 . S
C242 C243 1.380 . S
C242 C247 1.386 . S
C243 H200 0.930 . S
C243 C242 1.380 . S
C243 C244 1.381 . S
C244 H201 0.929 . S
C244 C243 1.381 . S
C244 C245 1.371 . S
C245 C244 1.371 . S
C245 C246 1.380 . S
C246 H202 0.931 . S
C246 C245 1.380 . S
C246 C247 1.387 . S
C247 H203 0.930 . S
C247 C242 1.386 . S
C247 C246 1.387 . S
C248 C217 1.519 . S
C248 C249 1.377 . S
C248 C253 1.361 . S
C249 H204 0.929 . S
C249 C248 1.377 . S
C249 C250 1.386 . S
C250 H205 0.931 . S
C250 C249 1.386 . S
C250 C251 1.363 . S
C251 C250 1.363 . S
C251 C252 1.385 . S
C252 H206 0.930 . S
C252 C251 1.385 . S
C252 C253 1.396 . S
C253 H207 0.929 . S
C253 C248 1.361 . S
C253 C252 1.396 . S
C254 O208 1.300 . S
C254 O209 1.209 . S
C254 C227 1.486 . S
C255 O210 1.199 . S
C255 O211 1.297 . S
C255 C239 1.476 . S
H256 O282 0.856 . S
H257 O285 0.854 . S
H258 C293 0.930 . S
H259 C294 0.930 . S
H260 C296 0.930 . S
H261 C297 0.930 . S
H262 C299 0.931 . S
H263 C300 0.930 . S
H264 C302 0.930 . S
H265 C303 0.929 . S
H266 C305 0.930 . S
H267 C306 0.931 . S
H268 C308 0.930 . S
H269 C309 0.929 . S
H270 C311 0.931 . S
H271 C312 0.930 . S
H272 C314 0.930 . S
H273 C315 0.932 . S
H274 C317 0.930 . S
H275 C318 0.929 . S
H276 C320 0.931 . S
H277 C321 0.930 . S
H278 C323 0.929 . S
H279 C324 0.931 . S
H280 C326 0.930 . S
H281 C327 0.929 . S
O282 H256 0.856 . S
O282 C328 1.300 1_554 S
O283 C328 1.188 1_554 S
O284 C329 1.199 . S
O285 H257 0.854 . S
O285 C329 1.297 . S
C286 C287 1.404 . S
C286 C291 1.397 . S
C286 C292 1.492 . S
C287 C286 1.404 . S
C287 C288 1.396 . S
C287 C298 1.492 . S
C288 C287 1.396 . S
C288 C289 1.397 . S
C288 C304 1.509 . S
C289 C288 1.397 . S
C289 C290 1.412 . S
C289 C310 1.485 . S
C290 C289 1.412 . S
C290 C291 1.388 . S
C290 C316 1.490 . S
C291 C286 1.397 . S
C291 C290 1.388 . S
C291 C322 1.519 . S
C292 C286 1.492 . S
C292 C293 1.363 . S
C292 C297 1.390 . S
C293 H258 0.930 . S
C293 C292 1.363 . S
C293 C294 1.372 . S
C294 H259 0.930 . S
C294 C293 1.372 . S
C294 C295 1.383 . S
C295 C294 1.383 . S
C295 C296 1.395 . S
C296 H260 0.930 . S
C296 C295 1.395 . S
C296 C297 1.362 . S
C297 H261 0.930 . S
C297 C292 1.390 . S
C297 C296 1.362 . S
C298 C287 1.492 . S
C298 C299 1.377 . S
C298 C303 1.397 . S
C299 H262 0.931 . S
C299 C298 1.377 . S
C299 C300 1.376 . S
C300 H263 0.930 . S
C300 C299 1.376 . S
C300 C301 1.376 . S
C301 C300 1.376 . S
C301 C302 1.378 . S
C301 C328 1.486 . S
C302 H264 0.930 . S
C302 C301 1.378 . S
C302 C303 1.376 . S
C303 H265 0.929 . S
C303 C298 1.397 . S
C303 C302 1.376 . S
C304 C288 1.509 . S
C304 C305 1.391 . S
C304 C309 1.386 . S
C305 H266 0.930 . S
C305 C304 1.391 . S
C305 C306 1.375 . S
C306 H267 0.931 . S
C306 C305 1.375 . S
C306 C307 1.375 . S
C307 C306 1.375 . S
C307 C308 1.361 . S
C308 H268 0.930 . S
C308 C307 1.361 . S
C308 C309 1.399 . S
C309 H269 0.929 . S
C309 C304 1.386 . S
C309 C308 1.399 . S
C310 C289 1.485 . S
C310 C311 1.394 . S
C310 C315 1.360 . S
C311 H270 0.931 . S
C311 C310 1.394 . S
C311 C312 1.372 . S
C312 H271 0.930 . S
C312 C311 1.372 . S
C312 C313 1.397 . S
C313 C312 1.397 . S
C313 C314 1.390 . S
C313 C329 1.476 . S
C314 H272 0.930 . S
C314 C313 1.390 . S
C314 C315 1.366 . S
C315 H273 0.932 . S
C315 C310 1.360 . S
C315 C314 1.366 . S
C316 C290 1.490 . S
C316 C317 1.380 . S
C316 C321 1.386 . S
C317 H274 0.930 . S
C317 C316 1.380 . S
C317 C318 1.381 . S
C318 H275 0.929 . S
C318 C317 1.381 . S
C318 C319 1.371 . S
C319 C318 1.371 . S
C319 C320 1.380 . S
C320 H276 0.931 . S
C320 C319 1.380 . S
C320 C321 1.387 . S
C321 H277 0.930 . S
C321 C316 1.386 . S
C321 C320 1.387 . S
C322 C291 1.519 . S
C322 C323 1.377 . S
C322 C327 1.361 . S
C323 H278 0.929 . S
C323 C322 1.377 . S
C323 C324 1.386 . S
C324 H279 0.931 . S
C324 C323 1.386 . S
C324 C325 1.363 . S
C325 C324 1.363 . S
C325 C326 1.385 . S
C326 H280 0.930 . S
C326 C325 1.385 . S
C326 C327 1.396 . S
C327 H281 0.929 . S
C327 C322 1.361 . S
C327 C326 1.396 . S
C328 O282 1.300 1_556 S
C328 O283 1.188 1_556 S
C328 C301 1.486 . S
C329 O284 1.199 . S
C329 O285 1.297 . S
C329 C313 1.476 . S
H330 C348 0.952 . S
H331 C350 0.951 1_655 S
H332 C352 0.950 . S
H333 C353 0.950 . S
H334 C355 0.950 . S
H335 C358 0.950 1_455 S
H336 C359 0.950 . S
H337 C361 0.950 . S
H338 C362 0.950 . S
H339 C363 0.951 . S
H340 C365 0.951 . S
H341 C367 0.950 . S
H342 C368 0.950 . S
H343 C370 0.969 . S
H344 C373 0.950 . S
H345 C374 0.950 . S
H346 C376 0.950 . S
H347 C377 0.950 . S
C348 H330 0.952 . S
C348 C349 1.366 . S
C348 C350 1.388 . S
C349 C348 1.366 . S
C349 C353 1.385 . S
C350 H331 0.951 1_455 S
C350 C348 1.388 . S
C350 C351 1.366 . S
C351 C350 1.366 . S
C351 C352 1.414 . S
C351 C354 1.499 . S
C352 H332 0.950 . S
C352 C351 1.414 . S
C352 C353 1.374 . S
C353 H333 0.950 . S
C353 C349 1.385 . S
C353 C352 1.374 . S
C354 C351 1.499 . S
C354 C355 1.373 . S
C354 C356 1.389 . S
C355 H334 0.950 . S
C355 C354 1.373 . S
C355 C371 1.377 . S
C356 C354 1.389 . S
C356 C357 1.524 1_455 S
C356 C370 1.369 1_455 S
C357 C356 1.524 1_655 S
C357 C358 1.397 . S
C357 C362 1.363 . S
C358 H335 0.950 1_655 S
C358 C357 1.397 . S
C358 C359 1.334 . S
C359 H336 0.950 . S
C359 C358 1.334 . S
C359 C360 1.287 . S
C360 C359 1.287 . S
C360 C361 1.524 . S
C360 H379 0.913 . S
C361 H337 0.950 . S
C361 C360 1.524 . S
C361 C362 1.415 . S
C362 H338 0.950 . S
C362 C357 1.363 . S
C362 C361 1.415 . S
C363 H339 0.951 . S
C363 C364 1.366 . S
C363 C365 1.388 . S
C364 C363 1.366 . S
C364 C368 1.385 1_455 S
C365 H340 0.951 . S
C365 C363 1.388 . S
C365 C366 1.366 . S
C366 C365 1.366 . S
C366 C367 1.414 1_455 S
C366 C369 1.499 . S
C367 H341 0.950 . S
C367 C366 1.414 1_655 S
C367 C368 1.374 . S
C368 H342 0.950 . S
C368 C364 1.385 1_655 S
C368 C367 1.374 . S
C369 C366 1.499 . S
C369 C370 1.363 1_455 S
C369 C371 1.389 . S
C370 H343 0.969 . S
C370 C356 1.369 1_655 S
C370 C369 1.363 1_655 S
C371 C355 1.377 . S
C371 C369 1.389 . S
C371 C372 1.524 . S
C372 C371 1.524 . S
C372 C373 1.397 . S
C372 C377 1.363 . S
C373 H344 0.950 . S
C373 C372 1.397 . S
C373 C374 1.334 . S
C374 H345 0.950 . S
C374 C373 1.334 . S
C374 C375 1.287 . S
C375 C374 1.287 . S
C375 C376 1.524 . S
C375 H378 0.999 . S
C376 H346 0.950 . S
C376 C375 1.524 . S
C376 C377 1.415 . S
C377 H347 0.950 . S
C377 C372 1.363 . S
C377 C376 1.415 . S
H378 C375 0.999 . S
H379 C360 0.913 . S
H380 C398 0.951 . S
H381 C400 0.951 . S
H382 C402 0.950 . S
H383 C403 0.950 . S
H384 C405 0.950 . S
H385 C408 0.950 . S
H386 C409 0.950 . S
H387 C411 0.950 . S
H388 C412 0.950 . S
H389 C413 0.951 . S
H390 C415 0.951 . S
H391 C417 0.950 . S
H392 C418 0.950 . S
H393 C420 0.950 . S
H394 C423 0.953 1_565 S
H395 C424 0.950 . S
H396 C426 0.950 . S
H397 C427 0.950 . S
C398 H380 0.951 . S
C398 C399 1.366 . S
C398 C400 1.388 . S
C399 C398 1.366 . S
C399 C403 1.385 . S
C400 H381 0.951 . S
C400 C398 1.388 . S
C400 C401 1.366 . S
C401 C400 1.366 . S
C401 C402 1.414 . S
C401 C404 1.499 . S
C402 H382 0.950 . S
C402 C401 1.414 . S
C402 C403 1.374 . S
C403 H383 0.950 . S
C403 C399 1.385 . S
C403 C402 1.374 . S
C404 C401 1.499 . S
C404 C405 1.373 . S
C404 C406 1.389 . S
C405 H384 0.950 . S
C405 C404 1.373 . S
C405 C421 1.377 . S
C406 C404 1.389 . S
C406 C407 1.524 . S
C406 C420 1.377 . S
C407 C406 1.524 . S
C407 C408 1.397 . S
C407 C412 1.363 . S
C408 H385 0.950 . S
C408 C407 1.397 . S
C408 C409 1.334 . S
C409 H386 0.950 . S
C409 C408 1.334 . S
C409 C410 1.287 . S
C410 C409 1.287 . S
C410 C411 1.524 . S
C410 H429 0.913 . S
C411 H387 0.950 . S
C411 C410 1.524 . S
C411 C412 1.415 . S
C412 H388 0.950 . S
C412 C407 1.363 . S
C412 C411 1.415 . S
C413 H389 0.951 . S
C413 C414 1.366 . S
C413 C415 1.388 . S
C414 C413 1.366 . S
C414 C418 1.385 . S
C415 H390 0.951 . S
C415 C413 1.388 . S
C415 C416 1.366 . S
C416 C415 1.366 . S
C416 C417 1.414 . S
C416 C419 1.499 . S
C417 H391 0.950 . S
C417 C416 1.414 . S
C417 C418 1.374 . S
C418 H392 0.950 . S
C418 C414 1.385 . S
C418 C417 1.374 . S
C419 C416 1.499 . S
C419 C420 1.373 . S
C419 C421 1.389 . S
C420 H393 0.950 . S
C420 C406 1.377 . S
C420 C419 1.373 . S
C421 C405 1.377 . S
C421 C419 1.389 . S
C421 C422 1.524 . S
C422 C421 1.524 . S
C422 C423 1.407 . S
C422 C427 1.363 . S
C423 H394 0.953 1_545 S
C423 C422 1.407 . S
C423 C424 1.321 1_545 S
C424 H395 0.950 . S
C424 C423 1.321 1_565 S
C424 C425 1.287 . S
C425 C424 1.287 . S
C425 C426 1.524 1_565 S
C425 H428 0.999 . S
C426 H396 0.950 . S
C426 C425 1.524 1_545 S
C426 C427 1.415 . S
C427 H397 0.950 . S
C427 C422 1.363 . S
C427 C426 1.415 . S
H428 C425 0.999 . S
H429 C410 0.913 . S
H430 C448 0.951 . S
H431 C450 0.951 . S
H432 C452 0.950 . S
H433 C453 0.950 1_455 S
H434 C455 0.950 . S
H435 C458 0.950 . S
H436 C459 0.950 . S
H437 C461 0.950 . S
H438 C462 0.950 . S
H439 C463 0.951 . S
H440 C465 0.951 . S
H441 C467 0.950 . S
H442 C468 0.950 . S
H443 C470 0.950 . S
H444 C473 0.950 . S
H445 C474 0.950 . S
H446 C476 0.950 . S
H447 C477 0.950 . S
C448 H430 0.951 . S
C448 C449 1.366 . S
C448 C450 1.388 . S
C449 C448 1.366 . S
C449 C453 1.385 . S
C450 H431 0.951 . S
C450 C448 1.388 . S
C450 C451 1.366 . S
C451 C450 1.366 . S
C451 C452 1.414 . S
C451 C454 1.499 . S
C452 H432 0.950 . S
C452 C451 1.414 . S
C452 C453 1.374 . S
C453 H433 0.950 1_655 S
C453 C449 1.385 . S
C453 C452 1.374 . S
C454 C451 1.499 . S
C454 C455 1.373 . S
C454 C456 1.389 . S
C455 H434 0.950 . S
C455 C454 1.373 . S
C455 C471 1.377 . S
C456 C454 1.389 . S
C456 C457 1.524 . S
C456 C470 1.377 . S
C457 C456 1.524 . S
C457 C458 1.397 . S
C457 C462 1.363 . S
C458 H435 0.950 . S
C458 C457 1.397 . S
C458 C459 1.334 1_565 S
C459 H436 0.950 . S
C459 C458 1.334 1_545 S
C459 C460 1.287 . S
C460 C459 1.287 . S
C460 C461 1.524 . S
C460 H479 0.913 . S
C461 H437 0.950 . S
C461 C460 1.524 . S
C461 C462 1.415 1_545 S
C462 H438 0.950 . S
C462 C457 1.363 . S
C462 C461 1.415 1_565 S
C463 H439 0.951 . S
C463 C464 1.366 . S
C463 C465 1.388 . S
C464 C463 1.366 . S
C464 C468 1.385 . S
C465 H440 0.951 . S
C465 C463 1.388 . S
C465 C466 1.366 . S
C466 C465 1.366 . S
C466 C467 1.414 . S
C466 C469 1.499 . S
C467 H441 0.950 . S
C467 C466 1.414 . S
C467 C468 1.374 . S
C468 H442 0.950 . S
C468 C464 1.385 . S
C468 C467 1.374 . S
C469 C466 1.499 . S
C469 C470 1.373 . S
C469 C471 1.389 . S
C470 H443 0.950 . S
C470 C456 1.377 . S
C470 C469 1.373 . S
C471 C455 1.377 . S
C471 C469 1.389 . S
C471 C472 1.524 . S
C472 C471 1.524 . S
C472 C473 1.397 . S
C472 C477 1.363 . S
C473 H444 0.950 . S
C473 C472 1.397 . S
C473 C474 1.334 . S
C474 H445 0.950 . S
C474 C473 1.334 . S
C474 C475 1.287 . S
C475 C474 1.287 . S
C475 C476 1.524 . S
C475 H478 0.999 . S
C476 H446 0.950 . S
C476 C475 1.524 . S
C476 C477 1.415 . S
C477 H447 0.950 . S
C477 C472 1.363 . S
C477 C476 1.415 . S
H478 C475 0.999 . S
H479 C460 0.913 . S
H480 C498 0.951 . S
H481 C500 0.951 . S
H482 C502 0.950 1_545 S
H483 C503 0.950 . S
H484 C505 0.950 . S
H485 C508 0.950 1_455 S
H486 C509 0.950 . S
H487 C511 0.950 . S
H488 C512 0.950 . S
H489 C513 0.951 . S
H490 C515 0.951 . S
H491 C517 0.950 . S
H492 C518 0.950 . S
H493 C520 0.950 . S
H494 C523 0.950 . S
H495 C524 0.950 . S
H496 C526 0.950 . S
H497 C527 0.950 . S
C498 H480 0.951 . S
C498 C499 1.366 1_565 S
C498 C500 1.388 . S
C499 C498 1.366 1_545 S
C499 C503 1.385 . S
C500 H481 0.951 . S
C500 C498 1.388 . S
C500 C501 1.366 . S
C501 C500 1.366 . S
C501 C502 1.414 . S
C501 C504 1.499 . S
C502 H482 0.950 1_565 S
C502 C501 1.414 . S
C502 C503 1.374 1_565 S
C503 H483 0.950 . S
C503 C499 1.385 . S
C503 C502 1.374 1_545 S
C504 C501 1.499 . S
C504 C505 1.373 . S
C504 C506 1.389 . S
C505 H484 0.950 . S
C505 C504 1.373 . S
C505 C521 1.377 . S
C506 C504 1.389 . S
C506 C507 1.524 1_455 S
C506 C520 1.377 . S
C507 C506 1.524 1_655 S
C507 C508 1.397 . S
C507 C512 1.363 . S
C508 H485 0.950 1_655 S
C508 C507 1.397 . S
C508 C509 1.334 . S
C509 H486 0.950 . S
C509 C508 1.334 . S
C509 C510 1.287 . S
C510 C509 1.287 . S
C510 C511 1.524 . S
C510 H529 0.913 . S
C511 H487 0.950 . S
C511 C510 1.524 . S
C511 C512 1.415 . S
C512 H488 0.950 . S
C512 C507 1.363 . S
C512 C511 1.415 . S
C513 H489 0.951 . S
C513 C514 1.366 . S
C513 C515 1.388 . S
C514 C513 1.366 . S
C514 C518 1.385 . S
C515 H490 0.951 . S
C515 C513 1.388 . S
C515 C516 1.366 . S
C516 C515 1.366 . S
C516 C517 1.414 . S
C516 C519 1.499 . S
C517 H491 0.950 . S
C517 C516 1.414 . S
C517 C518 1.374 . S
C518 H492 0.950 . S
C518 C514 1.385 . S
C518 C517 1.374 . S
C519 C516 1.499 . S
C519 C520 1.373 . S
C519 C521 1.389 . S
C520 H493 0.950 . S
C520 C506 1.377 . S
C520 C519 1.373 . S
C521 C505 1.377 . S
C521 C519 1.389 . S
C521 C522 1.524 . S
C522 C521 1.524 . S
C522 C523 1.397 . S
C522 C527 1.363 . S
C523 H494 0.950 . S
C523 C522 1.397 . S
C523 C524 1.334 . S
C524 H495 0.950 . S
C524 C523 1.334 . S
C524 C525 1.287 . S
C525 C524 1.287 . S
C525 C526 1.524 . S
C525 H528 0.999 . S
C526 H496 0.950 . S
C526 C525 1.524 . S
C526 C527 1.415 . S
C527 H497 0.950 . S
C527 C522 1.363 . S
C527 C526 1.415 . S
H528 C525 0.999 . S
H529 C510 0.913 . S
H530 C548 0.951 1_565 S
H531 C550 0.951 . S
H532 C552 0.950 . S
H533 C553 0.950 . S
H534 C555 0.950 . S
H535 C558 0.950 . S
H536 C559 0.950 . S
H537 C561 0.950 . S
H538 C562 0.950 . S
H539 C563 0.951 . S
H540 C565 0.951 . S
H541 C567 0.950 . S
H542 C568 0.950 . S
H543 C570 0.950 . S
H544 C573 0.950 . S
H545 C574 0.950 . S
H546 C576 0.950 . S
H547 C577 0.950 . S
C548 H530 0.951 1_545 S
C548 C549 1.366 . S
C548 C550 1.388 . S
C549 C548 1.366 . S
C549 C553 1.385 . S
C550 H531 0.951 . S
C550 C548 1.388 . S
C550 C551 1.366 . S
C551 C550 1.366 . S
C551 C552 1.414 . S
C551 C554 1.499 . S
C552 H532 0.950 . S
C552 C551 1.414 . S
C552 C553 1.374 . S
C553 H533 0.950 . S
C553 C549 1.385 . S
C553 C552 1.374 . S
C554 C551 1.499 . S
C554 C555 1.373 . S
C554 C556 1.389 . S
C555 H534 0.950 . S
C555 C554 1.373 . S
C555 C571 1.377 . S
C556 C554 1.389 . S
C556 C557 1.524 . S
C556 C570 1.377 . S
C557 C556 1.524 . S
C557 C558 1.397 . S
C557 C562 1.363 1_545 S
C558 H535 0.950 . S
C558 C557 1.397 . S
C558 C559 1.334 1_545 S
C559 H536 0.950 . S
C559 C558 1.334 1_565 S
C559 C560 1.287 . S
C560 C559 1.287 . S
C560 C561 1.524 . S
C560 H579 0.913 . S
C561 H537 0.950 . S
C561 C560 1.524 . S
C561 C562 1.415 . S
C562 H538 0.950 . S
C562 C557 1.363 1_565 S
C562 C561 1.415 . S
C563 H539 0.951 . S
C563 C564 1.366 . S
C563 C565 1.388 . S
C564 C563 1.366 . S
C564 C568 1.385 . S
C565 H540 0.951 . S
C565 C563 1.388 . S
C565 C566 1.366 . S
C566 C565 1.366 . S
C566 C567 1.414 . S
C566 C569 1.499 . S
C567 H541 0.950 . S
C567 C566 1.414 . S
C567 C568 1.374 . S
C568 H542 0.950 . S
C568 C564 1.385 . S
C568 C567 1.374 . S
C569 C566 1.499 . S
C569 C570 1.373 . S
C569 C571 1.389 . S
C570 H543 0.950 . S
C570 C556 1.377 . S
C570 C569 1.373 . S
C571 C555 1.377 . S
C571 C569 1.389 . S
C571 C572 1.524 . S
C572 C571 1.524 . S
C572 C573 1.397 . S
C572 C577 1.363 . S
C573 H544 0.950 . S
C573 C572 1.397 . S
C573 C574 1.334 . S
C574 H545 0.950 . S
C574 C573 1.334 . S
C574 C575 1.287 . S
C575 C574 1.287 . S
C575 C576 1.524 . S
C575 H578 0.999 . S
C576 H546 0.950 . S
C576 C575 1.524 . S
C576 C577 1.415 . S
C577 H547 0.950 . S
C577 C572 1.363 . S
C577 C576 1.415 . S
H578 C575 0.999 . S
H579 C560 0.913 . S
H580 C598 0.951 . S
H581 C600 0.951 . S
H582 C602 0.950 . S
H583 C603 0.950 . S
H584 C605 0.950 . S
H585 C608 0.950 . S
H586 C609 0.950 . S
H587 C611 0.950 . S
H588 C612 0.950 . S
H589 C613 0.951 . S
H590 C615 0.951 . S
H591 C617 0.950 . S
H592 C618 0.950 . S
H593 C620 0.950 . S
H594 C623 0.950 . S
H595 C624 0.950 . S
H596 C626 0.950 . S
H597 C627 0.950 . S
C598 H580 0.951 . S
C598 C599 1.366 . S
C598 C600 1.388 . S
C599 C598 1.366 . S
C599 C603 1.385 . S
C600 H581 0.951 . S
C600 C598 1.388 . S
C600 C601 1.366 . S
C601 C600 1.366 . S
C601 C602 1.414 . S
C601 C604 1.499 . S
C602 H582 0.950 . S
C602 C601 1.414 . S
C602 C603 1.374 . S
C603 H583 0.950 . S
C603 C599 1.385 . S
C603 C602 1.374 . S
C604 C601 1.499 . S
C604 C605 1.373 . S
C604 C606 1.389 . S
C605 H584 0.950 . S
C605 C604 1.373 . S
C605 C621 1.377 . S
C606 C604 1.389 . S
C606 C607 1.524 . S
C606 C620 1.377 . S
C607 C606 1.524 . S
C607 C608 1.397 . S
C607 C612 1.363 . S
C608 H585 0.950 . S
C608 C607 1.397 . S
C608 C609 1.334 . S
C609 H586 0.950 . S
C609 C608 1.334 . S
C609 C610 1.287 . S
C610 C609 1.287 . S
C610 C611 1.524 . S
C610 H629 0.913 . S
C611 H587 0.950 . S
C611 C610 1.524 . S
C611 C612 1.415 . S
C612 H588 0.950 . S
C612 C607 1.363 . S
C612 C611 1.415 . S
C613 H589 0.951 . S
C613 C614 1.366 . S
C613 C615 1.388 . S
C614 C613 1.366 . S
C614 C618 1.385 . S
C615 H590 0.951 . S
C615 C613 1.388 . S
C615 C616 1.366 . S
C616 C615 1.366 . S
C616 C617 1.414 . S
C616 C619 1.499 . S
C617 H591 0.950 . S
C617 C616 1.414 . S
C617 C618 1.374 . S
C618 H592 0.950 . S
C618 C614 1.385 . S
C618 C617 1.374 . S
C619 C616 1.499 . S
C619 C620 1.373 . S
C619 C621 1.389 . S
C620 H593 0.950 . S
C620 C606 1.377 . S
C620 C619 1.373 . S
C621 C605 1.377 . S
C621 C619 1.389 . S
C621 C622 1.524 . S
C622 C621 1.524 . S
C622 C623 1.397 . S
C622 C627 1.363 . S
C623 H594 0.950 . S
C623 C622 1.397 . S
C623 C624 1.334 . S
C624 H595 0.950 . S
C624 C623 1.334 . S
C624 C625 1.287 . S
C625 C624 1.287 . S
C625 C626 1.524 . S
C625 H628 0.999 . S
C626 H596 0.950 . S
C626 C625 1.524 . S
C626 C627 1.415 . S
C627 H597 0.950 . S
C627 C622 1.363 . S
C627 C626 1.415 . S
H628 C625 0.999 . S
H629 C610 0.913 . S
H630 C648 0.951 1_455 S
H631 C650 0.951 . S
H632 C652 0.950 . S
H633 C653 0.950 . S
H634 C655 0.950 . S
H635 C658 0.950 . S
H636 C659 0.950 . S
H637 C661 0.950 . S
H638 C662 0.950 . S
H639 C663 0.951 . S
H640 C665 0.951 . S
H641 C667 0.950 . S
H642 C668 0.950 . S
H643 C670 0.950 . S
H644 C673 0.950 . S
H645 C674 0.950 . S
H646 C676 0.950 1_565 S
H647 C677 0.950 . S
C648 H630 0.951 1_655 S
C648 C649 1.366 . S
C648 C650 1.388 . S
C649 C648 1.366 . S
C649 C653 1.385 . S
C650 H631 0.951 . S
C650 C648 1.388 . S
C650 C651 1.366 . S
C651 C650 1.366 . S
C651 C652 1.414 . S
C651 C654 1.499 . S
C652 H632 0.950 . S
C652 C651 1.414 . S
C652 C653 1.374 . S
C653 H633 0.950 . S
C653 C649 1.385 . S
C653 C652 1.374 . S
C654 C651 1.499 . S
C654 C655 1.373 . S
C654 C656 1.389 . S
C655 H634 0.950 . S
C655 C654 1.373 . S
C655 C671 1.377 . S
C656 C654 1.389 . S
C656 C657 1.524 . S
C656 C670 1.377 . S
C657 C656 1.524 . S
C657 C658 1.397 . S
C657 C662 1.363 . S
C658 H635 0.950 . S
C658 C657 1.397 . S
C658 C659 1.334 1_655 S
C659 H636 0.950 . S
C659 C658 1.334 1_455 S
C659 C660 1.287 . S
C660 C659 1.287 . S
C660 C661 1.524 . S
C660 H679 0.913 . S
C661 H637 0.950 . S
C661 C660 1.524 . S
C661 C662 1.415 1_455 S
C662 H638 0.950 . S
C662 C657 1.363 . S
C662 C661 1.415 1_655 S
C663 H639 0.951 . S
C663 C664 1.366 . S
C663 C665 1.388 . S
C664 C663 1.366 . S
C664 C668 1.385 . S
C665 H640 0.951 . S
C665 C663 1.388 . S
C665 C666 1.366 . S
C666 C665 1.366 . S
C666 C667 1.414 . S
C666 C669 1.499 . S
C667 H641 0.950 . S
C667 C666 1.414 . S
C667 C668 1.374 . S
C668 H642 0.950 . S
C668 C664 1.385 . S
C668 C667 1.374 . S
C669 C666 1.499 . S
C669 C670 1.373 . S
C669 C671 1.389 . S
C670 H643 0.950 . S
C670 C656 1.377 . S
C670 C669 1.373 . S
C671 C655 1.377 . S
C671 C669 1.389 . S
C671 C672 1.524 . S
C672 C671 1.524 . S
C672 C673 1.397 . S
C672 C677 1.363 . S
C673 H644 0.950 . S
C673 C672 1.397 . S
C673 C674 1.334 1_545 S
C674 H645 0.950 . S
C674 C673 1.334 1_565 S
C674 C675 1.287 . S
C675 C674 1.287 . S
C675 C676 1.514 1_565 S
C675 H678 0.999 . S
C676 H646 0.950 1_545 S
C676 C675 1.514 1_545 S
C676 C677 1.425 . S
C677 H647 0.950 . S
C677 C672 1.363 . S
C677 C676 1.425 . S
H678 C675 0.999 . S
H679 C660 0.913 . S
H680 C698 0.951 1_455 S
H681 C700 0.951 . S
H682 C702 0.950 . S
H683 C703 0.950 1_545 S
H684 C705 0.950 . S
H685 C708 0.924 1_554 S
H686 C709 0.950 1_455 S
H687 C711 0.950 . S
H688 C712 0.950 . S
H689 C713 0.951 . S
H690 C715 0.951 . S
H691 C717 0.950 . S
H692 C718 0.950 . S
H693 C720 0.950 . S
H694 C723 0.950 . S
H695 C724 0.932 1_556 S
H696 C726 0.950 . S
H697 C727 0.950 . S
C698 H680 0.951 1_655 S
C698 C699 1.366 1_565 S
C698 C700 1.388 . S
C699 C698 1.366 1_545 S
C699 C703 1.385 1_545 S
C700 H681 0.951 . S
C700 C698 1.388 . S
C700 C701 1.366 . S
C701 C700 1.366 . S
C701 C702 1.414 . S
C701 C704 1.499 . S
C702 H682 0.950 . S
C702 C701 1.414 . S
C702 C703 1.374 . S
C703 H683 0.950 1_565 S
C703 C699 1.385 1_565 S
C703 C702 1.374 . S
C704 C701 1.499 . S
C704 C705 1.373 . S
C704 C706 1.389 1_554 S
C705 H684 0.950 . S
C705 C704 1.373 . S
C705 C721 1.377 1_554 S
C706 C704 1.389 1_556 S
C706 C707 1.524 . S
C706 C720 1.377 . S
C707 C706 1.524 . S
C707 C708 1.397 1_565 S
C707 C712 1.363 . S
C708 H685 0.924 1_556 S
C708 C707 1.397 1_545 S
C708 C709 1.334 . S
C709 H686 0.950 1_655 S
C709 C708 1.334 . S
C709 C710 1.287 1_655 S
C710 C709 1.287 1_455 S
C710 C711 1.524 . S
C710 H729 0.913 . S
C711 H687 0.950 . S
C711 C710 1.524 . S
C711 C712 1.415 1_445 S
C712 H688 0.950 . S
C712 C707 1.363 . S
C712 C711 1.415 1_665 S
C713 H689 0.951 . S
C713 C714 1.366 . S
C713 C715 1.388 . S
C714 C713 1.366 . S
C714 C718 1.385 . S
C715 H690 0.951 . S
C715 C713 1.388 . S
C715 C716 1.366 . S
C716 C715 1.366 . S
C716 C717 1.414 . S
C716 C719 1.499 . S
C717 H691 0.950 . S
C717 C716 1.414 . S
C717 C718 1.374 . S
C718 H692 0.950 . S
C718 C714 1.385 . S
C718 C717 1.374 . S
C719 C716 1.499 . S
C719 C720 1.373 . S
C719 C721 1.389 . S
C720 H693 0.950 . S
C720 C706 1.377 . S
C720 C719 1.373 . S
C721 C705 1.377 1_556 S
C721 C719 1.389 . S
C721 C722 1.524 1_556 S
C722 C721 1.524 1_554 S
C722 C723 1.397 1_554 S
C722 C727 1.363 . S
C723 H694 0.950 . S
C723 C722 1.397 1_556 S
C723 C724 1.319 1_556 S
C724 H695 0.932 1_554 S
C724 C723 1.319 1_554 S
C724 C725 1.323 . S
C725 C724 1.323 . S
C725 C726 1.524 . S
C725 H728 0.999 . S
C726 H696 0.950 . S
C726 C725 1.524 . S
C726 C727 1.415 . S
C727 H697 0.950 . S
C727 C722 1.363 . S
C727 C726 1.415 . S
H728 C725 0.999 . S
H729 C710 0.913 . S
H730 C748 0.951 . S
H731 C750 0.951 . S
H732 C752 0.950 . S
H733 C753 0.950 . S
H734 C755 0.950 . S
H735 C758 0.950 . S
H736 C759 0.950 . S
H737 C761 0.950 . S
H738 C762 0.950 . S
H739 C763 0.951 . S
H740 C765 0.951 . S
H741 C767 0.950 . S
H742 C768 0.950 . S
H743 C770 0.950 . S
H744 C773 0.950 . S
H745 C774 0.950 . S
H746 C776 0.950 . S
H747 C777 0.950 . S
C748 H730 0.951 . S
C748 C749 1.366 . S
C748 C750 1.388 . S
C749 C748 1.366 . S
C749 C753 1.385 1_655 S
C750 H731 0.951 . S
C750 C748 1.388 . S
C750 C751 1.366 . S
C751 C750 1.366 . S
C751 C752 1.414 1_655 S
C751 C754 1.499 . S
C752 H732 0.950 . S
C752 C751 1.414 1_455 S
C752 C753 1.374 . S
C753 H733 0.950 . S
C753 C749 1.385 1_455 S
C753 C752 1.374 . S
C754 C751 1.499 . S
C754 C755 1.373 . S
C754 C756 1.389 1_655 S
C755 H734 0.950 . S
C755 C754 1.373 . S
C755 C771 1.377 . S
C756 C754 1.389 1_455 S
C756 C757 1.524 . S
C756 C770 1.377 . S
C757 C756 1.524 . S
C757 C758 1.397 . S
C757 C762 1.363 . S
C758 H735 0.950 . S
C758 C757 1.397 . S
C758 C759 1.334 . S
C759 H736 0.950 . S
C759 C758 1.334 . S
C759 C760 1.287 . S
C760 C759 1.287 . S
C760 C761 1.524 . S
C760 H779 0.913 . S
C761 H737 0.950 . S
C761 C760 1.524 . S
C761 C762 1.415 . S
C762 H738 0.950 . S
C762 C757 1.363 . S
C762 C761 1.415 . S
C763 H739 0.951 . S
C763 C764 1.366 1_455 S
C763 C765 1.388 . S
C764 C763 1.366 1_655 S
C764 C768 1.385 . S
C765 H740 0.951 . S
C765 C763 1.388 . S
C765 C766 1.366 1_455 S
C766 C765 1.366 1_655 S
C766 C767 1.414 . S
C766 C769 1.499 . S
C767 H741 0.950 . S
C767 C766 1.414 . S
C767 C768 1.374 . S
C768 H742 0.950 . S
C768 C764 1.385 . S
C768 C767 1.374 . S
C769 C766 1.499 . S
C769 C770 1.373 1_655 S
C769 C771 1.389 . S
C770 H743 0.950 . S
C770 C756 1.377 . S
C770 C769 1.373 1_455 S
C771 C755 1.377 . S
C771 C769 1.389 . S
C771 C772 1.524 . S
C772 C771 1.524 . S
C772 C773 1.397 . S
C772 C777 1.363 . S
C773 H744 0.950 . S
C773 C772 1.397 . S
C773 C774 1.334 . S
C774 H745 0.950 . S
C774 C773 1.334 . S
C774 C775 1.287 . S
C775 C774 1.287 . S
C775 C776 1.524 . S
C775 H778 0.999 . S
C776 H746 0.950 . S
C776 C775 1.524 . S
C776 C777 1.415 . S
C777 H747 0.950 . S
C777 C772 1.363 . S
C777 C776 1.415 . S
H778 C775 0.999 . S
H779 C760 0.913 . S
H780 C798 0.951 . S
H781 C800 0.951 . S
H782 C802 0.950 . S
H783 C803 0.950 . S
H784 C805 0.950 . S
H785 C808 0.950 . S
H786 C809 0.950 . S
H787 C811 0.950 . S
H788 C812 0.950 . S
H789 C813 0.951 . S
H790 C815 0.951 . S
H791 C817 0.950 . S
H792 C818 0.950 . S
H793 C820 0.950 . S
H794 C823 0.950 . S
H795 C824 0.950 . S
H796 C826 0.950 . S
H797 C827 0.950 . S
C798 H780 0.951 . S
C798 C799 1.366 . S
C798 C800 1.388 . S
C799 C798 1.366 . S
C799 C803 1.385 . S
C800 H781 0.951 . S
C800 C798 1.388 . S
C800 C801 1.366 . S
C801 C800 1.366 . S
C801 C802 1.414 . S
C801 C804 1.499 . S
C802 H782 0.950 . S
C802 C801 1.414 . S
C802 C803 1.374 . S
C803 H783 0.950 . S
C803 C799 1.385 . S
C803 C802 1.374 . S
C804 C801 1.499 . S
C804 C805 1.373 . S
C804 C806 1.389 . S
C805 H784 0.950 . S
C805 C804 1.373 . S
C805 C821 1.377 . S
C806 C804 1.389 . S
C806 C807 1.524 . S
C806 C820 1.377 . S
C807 C806 1.524 . S
C807 C808 1.397 . S
C807 C812 1.363 . S
C808 H785 0.950 . S
C808 C807 1.397 . S
C808 C809 1.334 . S
C809 H786 0.950 . S
C809 C808 1.334 . S
C809 C810 1.287 . S
C810 C809 1.287 . S
C810 C811 1.524 . S
C810 H829 0.913 . S
C811 H787 0.950 . S
C811 C810 1.524 . S
C811 C812 1.415 . S
C812 H788 0.950 . S
C812 C807 1.363 . S
C812 C811 1.415 . S
C813 H789 0.951 . S
C813 C814 1.366 . S
C813 C815 1.388 . S
C814 C813 1.366 . S
C814 C818 1.385 . S
C815 H790 0.951 . S
C815 C813 1.388 . S
C815 C816 1.366 . S
C816 C815 1.366 . S
C816 C817 1.414 . S
C816 C819 1.499 . S
C817 H791 0.950 . S
C817 C816 1.414 . S
C817 C818 1.374 . S
C818 H792 0.950 . S
C818 C814 1.385 . S
C818 C817 1.374 . S
C819 C816 1.499 . S
C819 C820 1.373 . S
C819 C821 1.389 . S
C820 H793 0.950 . S
C820 C806 1.377 . S
C820 C819 1.373 . S
C821 C805 1.377 . S
C821 C819 1.389 . S
C821 C822 1.524 . S
C822 C821 1.524 . S
C822 C823 1.397 . S
C822 C827 1.363 . S
C823 H794 0.950 . S
C823 C822 1.397 . S
C823 C824 1.334 1_545 S
C824 H795 0.950 . S
C824 C823 1.334 1_565 S
C824 C825 1.287 . S
C825 C824 1.287 . S
C825 C826 1.524 1_565 S
C825 H828 0.999 . S
C826 H796 0.950 . S
C826 C825 1.524 1_545 S
C826 C827 1.415 . S
C827 H797 0.950 . S
C827 C822 1.363 . S
C827 C826 1.415 . S
H828 C825 0.999 . S
H829 C810 0.913 . S
H830 C848 0.951 . S
H831 C850 0.951 . S
H832 C852 0.950 . S
H833 C853 0.950 . S
H834 C855 0.950 . S
H835 C858 0.950 . S
H836 C859 0.950 . S
H837 C861 0.950 . S
H838 C862 0.950 . S
H839 C863 0.951 . S
H840 C865 0.951 . S
H841 C867 0.950 1_554 S
H842 C868 0.950 . S
H843 C870 0.950 . S
H844 C873 0.950 . S
H845 C874 0.950 . S
H846 C876 0.950 . S
H847 C877 0.950 . S
C848 H830 0.951 . S
C848 C849 1.366 . S
C848 C850 1.388 . S
C849 C848 1.366 . S
C849 C853 1.385 . S
C850 H831 0.951 . S
C850 C848 1.388 . S
C850 C851 1.366 . S
C851 C850 1.366 . S
C851 C852 1.414 . S
C851 C854 1.499 . S
C852 H832 0.950 . S
C852 C851 1.414 . S
C852 C853 1.374 . S
C853 H833 0.950 . S
C853 C849 1.385 . S
C853 C852 1.374 . S
C854 C851 1.499 . S
C854 C855 1.373 . S
C854 C856 1.389 . S
C855 H834 0.950 . S
C855 C854 1.373 . S
C855 C871 1.374 1_554 S
C856 C854 1.389 . S
C856 C857 1.524 . S
C856 C870 1.377 . S
C857 C856 1.524 . S
C857 C858 1.397 . S
C857 C862 1.363 . S
C858 H835 0.950 . S
C858 C857 1.397 . S
C858 C859 1.334 . S
C859 H836 0.950 . S
C859 C858 1.334 . S
C859 C860 1.287 . S
C860 C859 1.287 . S
C860 C861 1.524 . S
C860 H879 0.913 . S
C861 H837 0.950 . S
C861 C860 1.524 . S
C861 C862 1.415 . S
C862 H838 0.950 . S
C862 C857 1.363 . S
C862 C861 1.415 . S
C863 H839 0.951 . S
C863 C864 1.366 . S
C863 C865 1.388 . S
C864 C863 1.366 . S
C864 C868 1.385 . S
C865 H840 0.951 . S
C865 C863 1.388 . S
C865 C866 1.366 . S
C866 C865 1.366 . S
C866 C867 1.414 . S
C866 C869 1.490 1_556 S
C867 H841 0.950 1_556 S
C867 C866 1.414 . S
C867 C868 1.374 . S
C868 H842 0.950 . S
C868 C864 1.385 . S
C868 C867 1.374 . S
C869 C866 1.490 1_554 S
C869 C870 1.381 . S
C869 C871 1.390 1_554 S
C870 H843 0.950 . S
C870 C856 1.377 . S
C870 C869 1.381 . S
C871 C855 1.374 1_556 S
C871 C869 1.390 1_556 S
C871 C872 1.527 . S
C872 C871 1.527 . S
C872 C873 1.397 . S
C872 C877 1.363 . S
C873 H844 0.950 . S
C873 C872 1.397 . S
C873 C874 1.334 . S
C874 H845 0.950 . S
C874 C873 1.334 . S
C874 C875 1.287 . S
C875 C874 1.287 . S
C875 C876 1.524 . S
C875 H878 0.999 . S
C876 H846 0.950 . S
C876 C875 1.524 . S
C876 C877 1.415 . S
C877 H847 0.950 . S
C877 C872 1.363 . S
C877 C876 1.415 . S
H878 C875 0.999 . S
H879 C860 0.913 . S
H880 C898 0.951 . S
H881 C900 0.951 . S
H882 C902 0.950 . S
H883 C903 0.950 . S
H884 C905 0.950 . S
H885 C908 0.950 . S
H886 C909 0.950 . S
H887 C911 0.950 . S
H888 C912 0.950 . S
H889 C913 0.951 . S
H890 C915 0.951 . S
H891 C917 0.950 . S
H892 C918 0.950 . S
H893 C920 0.950 . S
H894 C923 0.950 . S
H895 C924 0.950 . S
H896 C926 0.950 . S
H897 C927 0.950 . S
C898 H880 0.951 . S
C898 C899 1.366 1_655 S
C898 C900 1.388 . S
C899 C898 1.366 1_455 S
C899 C903 1.385 . S
C900 H881 0.951 . S
C900 C898 1.388 . S
C900 C901 1.366 1_655 S
C901 C900 1.366 1_455 S
C901 C902 1.414 . S
C901 C904 1.499 . S
C902 H882 0.950 . S
C902 C901 1.414 . S
C902 C903 1.374 . S
C903 H883 0.950 . S
C903 C899 1.385 . S
C903 C902 1.374 . S
C904 C901 1.499 . S
C904 C905 1.373 . S
C904 C906 1.389 1_455 S
C905 H884 0.950 . S
C905 C904 1.373 . S
C905 C921 1.377 . S
C906 C904 1.389 1_655 S
C906 C907 1.524 . S
C906 C920 1.377 . S
C907 C906 1.524 . S
C907 C908 1.397 . S
C907 C912 1.363 . S
C908 H885 0.950 . S
C908 C907 1.397 . S
C908 C909 1.334 . S
C909 H886 0.950 . S
C909 C908 1.334 . S
C909 C910 1.287 . S
C910 C909 1.287 . S
C910 C911 1.524 . S
C910 H929 0.913 . S
C911 H887 0.950 . S
C911 C910 1.524 . S
C911 C912 1.415 . S
C912 H888 0.950 . S
C912 C907 1.363 . S
C912 C911 1.415 . S
C913 H889 0.951 . S
C913 C914 1.366 . S
C913 C915 1.388 . S
C914 C913 1.366 . S
C914 C918 1.385 1_455 S
C915 H890 0.951 . S
C915 C913 1.388 . S
C915 C916 1.366 . S
C916 C915 1.366 . S
C916 C917 1.414 1_455 S
C916 C919 1.499 . S
C917 H891 0.950 . S
C917 C916 1.414 1_655 S
C917 C918 1.374 . S
C918 H892 0.950 . S
C918 C914 1.385 1_655 S
C918 C917 1.374 . S
C919 C916 1.499 . S
C919 C920 1.373 1_455 S
C919 C921 1.389 . S
C920 H893 0.950 . S
C920 C906 1.377 . S
C920 C919 1.373 1_655 S
C921 C905 1.377 . S
C921 C919 1.389 . S
C921 C922 1.524 . S
C922 C921 1.524 . S
C922 C923 1.397 . S
C922 C927 1.363 . S
C923 H894 0.950 . S
C923 C922 1.397 . S
C923 C924 1.334 . S
C924 H895 0.950 . S
C924 C923 1.334 . S
C924 C925 1.287 . S
C925 C924 1.287 . S
C925 C926 1.524 . S
C925 H928 0.999 . S
C926 H896 0.950 . S
C926 C925 1.524 . S
C926 C927 1.415 . S
C927 H897 0.950 . S
C927 C922 1.363 . S
C927 C926 1.415 . S
H928 C925 0.999 . S
H929 C910 0.913 . S
C364 C147 1.383 . S
C349 C14 1.438 . S
C399 C40 1.351 . S
C414 C221 1.317 . S
C449 C76 2.152 1_665 S
C464 C325 2.171 . S
C499 C3 0.679 . S
C514 C159 0.679 . S
C564 C233 0.724 . S
C549 C38 0.724 . S
C599 C74 1.426 . S
C614 C319 1.346 . S
C664 C251 2.180 . S
C649 C86 2.142 1_655 S
C699 C2 1.442 1_655 S
C714 C295 1.384 . S
C764 C171 1.342 1_655 S
C749 C39 1.425 . S
C814 C245 1.278 . S
C799 C75 1.349 . S
C864 C307 0.698 . S
C849 C4 0.701 . S
C899 C50 2.214 . S
C914 C177 2.261 . S
