# Generated by pormake.
# Topology bwt, (3,3)-cn, num edge types: 1
# Building blocks:
#     Node 0, Type 0, BuildingBlock: OLANEW_clean_sbu_2, # of connection points: 3
#     Node 1, Type 0, BuildingBlock: OLANEW_clean_sbu_2, # of connection points: 3
#     Node 2, Type 0, BuildingBlock: OLANEW_clean_sbu_2, # of connection points: 3
#     Node 3, Type 0, BuildingBlock: OLANEW_clean_sbu_2, # of connection points: 3
#     Node 4, Type 0, BuildingBlock: OLANEW_clean_sbu_2, # of connection points: 3
#     Node 5, Type 0, BuildingBlock: OLANEW_clean_sbu_2, # of connection points: 3
#     Node 6, Type 0, BuildingBlock: OLANEW_clean_sbu_2, # of connection points: 3
#     Node 7, Type 0, BuildingBlock: OLANEW_clean_sbu_2, # of connection points: 3
#     Node 8, Type 0, BuildingBlock: OLANEW_clean_sbu_2, # of connection points: 3
#     Node 9, Type 0, BuildingBlock: OLANEW_clean_sbu_2, # of connection points: 3
#     Node 10, Type 0, BuildingBlock: OLANEW_clean_sbu_2, # of connection points: 3
#     Node 11, Type 0, BuildingBlock: OLANEW_clean_sbu_2, # of connection points: 3
#     Node 12, Type 0, BuildingBlock: OLANEW_clean_sbu_2, # of connection points: 3
#     Node 13, Type 0, BuildingBlock: OLANEW_clean_sbu_2, # of connection points: 3
#     Node 14, Type 0, BuildingBlock: OLANEW_clean_sbu_2, # of connection points: 3
#     Node 15, Type 0, BuildingBlock: OLANEW_clean_sbu_2, # of connection points: 3
#     Node 16, Type 0, BuildingBlock: OLANEW_clean_sbu_2, # of connection points: 3
#     Node 17, Type 0, BuildingBlock: OLANEW_clean_sbu_2, # of connection points: 3
#     Node 18, Type 0, BuildingBlock: OLANEW_clean_sbu_2, # of connection points: 3
#     Node 19, Type 0, BuildingBlock: OLANEW_clean_sbu_2, # of connection points: 3
#     Node 20, Type 0, BuildingBlock: OLANEW_clean_sbu_2, # of connection points: 3
#     Node 21, Type 0, BuildingBlock: OLANEW_clean_sbu_2, # of connection points: 3
#     Node 22, Type 0, BuildingBlock: OLANEW_clean_sbu_2, # of connection points: 3
#     Node 23, Type 0, BuildingBlock: OLANEW_clean_sbu_2, # of connection points: 3
#     Node 24, Type 1, BuildingBlock: BETDAH_clean_linker_0, # of connection points: 3
#     Node 25, Type 1, BuildingBlock: BETDAH_clean_linker_0, # of connection points: 3
#     Node 26, Type 1, BuildingBlock: BETDAH_clean_linker_0, # of connection points: 3
#     Node 27, Type 1, BuildingBlock: BETDAH_clean_linker_0, # of connection points: 3
#     Node 28, Type 1, BuildingBlock: BETDAH_clean_linker_0, # of connection points: 3
#     Node 29, Type 1, BuildingBlock: BETDAH_clean_linker_0, # of connection points: 3
#     Node 30, Type 1, BuildingBlock: BETDAH_clean_linker_0, # of connection points: 3
#     Node 31, Type 1, BuildingBlock: BETDAH_clean_linker_0, # of connection points: 3
#     Node 32, Type 1, BuildingBlock: BETDAH_clean_linker_0, # of connection points: 3
#     Node 33, Type 1, BuildingBlock: BETDAH_clean_linker_0, # of connection points: 3
#     Node 34, Type 1, BuildingBlock: BETDAH_clean_linker_0, # of connection points: 3
#     Node 35, Type 1, BuildingBlock: BETDAH_clean_linker_0, # of connection points: 3
#     Node 36, Type 1, BuildingBlock: BETDAH_clean_linker_0, # of connection points: 3
#     Node 37, Type 1, BuildingBlock: BETDAH_clean_linker_0, # of connection points: 3
#     Node 38, Type 1, BuildingBlock: BETDAH_clean_linker_0, # of connection points: 3
#     Node 39, Type 1, BuildingBlock: BETDAH_clean_linker_0, # of connection points: 3
#     Node 40, Type 1, BuildingBlock: BETDAH_clean_linker_0, # of connection points: 3
#     Node 41, Type 1, BuildingBlock: BETDAH_clean_linker_0, # of connection points: 3
#     Node 42, Type 1, BuildingBlock: BETDAH_clean_linker_0, # of connection points: 3
#     Node 43, Type 1, BuildingBlock: BETDAH_clean_linker_0, # of connection points: 3
#     Node 44, Type 1, BuildingBlock: BETDAH_clean_linker_0, # of connection points: 3
#     Node 45, Type 1, BuildingBlock: BETDAH_clean_linker_0, # of connection points: 3
#     Node 46, Type 1, BuildingBlock: BETDAH_clean_linker_0, # of connection points: 3
#     Node 47, Type 1, BuildingBlock: BETDAH_clean_linker_0, # of connection points: 3
#     Edge 48, Type (0, 1), BuildingBlock: UVAHIK_clean_linker_0, # of connection points: 2
#     Edge 49, Type (0, 1), BuildingBlock: UVAHIK_clean_linker_0, # of connection points: 2
#     Edge 50, Type (0, 1), BuildingBlock: UVAHIK_clean_linker_0, # of connection points: 2
#     Edge 51, Type (0, 1), BuildingBlock: UVAHIK_clean_linker_0, # of connection points: 2
#     Edge 52, Type (0, 1), BuildingBlock: UVAHIK_clean_linker_0, # of connection points: 2
#     Edge 53, Type (0, 1), BuildingBlock: UVAHIK_clean_linker_0, # of connection points: 2
#     Edge 54, Type (0, 1), BuildingBlock: UVAHIK_clean_linker_0, # of connection points: 2
#     Edge 55, Type (0, 1), BuildingBlock: UVAHIK_clean_linker_0, # of connection points: 2
#     Edge 56, Type (0, 1), BuildingBlock: UVAHIK_clean_linker_0, # of connection points: 2
#     Edge 57, Type (0, 1), BuildingBlock: UVAHIK_clean_linker_0, # of connection points: 2
#     Edge 58, Type (0, 1), BuildingBlock: UVAHIK_clean_linker_0, # of connection points: 2
#     Edge 59, Type (0, 1), BuildingBlock: UVAHIK_clean_linker_0, # of connection points: 2
#     Edge 60, Type (0, 1), BuildingBlock: UVAHIK_clean_linker_0, # of connection points: 2
#     Edge 61, Type (0, 1), BuildingBlock: UVAHIK_clean_linker_0, # of connection points: 2
#     Edge 62, Type (0, 1), BuildingBlock: UVAHIK_clean_linker_0, # of connection points: 2
#     Edge 63, Type (0, 1), BuildingBlock: UVAHIK_clean_linker_0, # of connection points: 2
#     Edge 64, Type (0, 1), BuildingBlock: UVAHIK_clean_linker_0, # of connection points: 2
#     Edge 65, Type (0, 1), BuildingBlock: UVAHIK_clean_linker_0, # of connection points: 2
#     Edge 66, Type (0, 1), BuildingBlock: UVAHIK_clean_linker_0, # of connection points: 2
#     Edge 67, Type (0, 1), BuildingBlock: UVAHIK_clean_linker_0, # of connection points: 2
#     Edge 68, Type (0, 1), BuildingBlock: UVAHIK_clean_linker_0, # of connection points: 2
#     Edge 69, Type (0, 1), BuildingBlock: UVAHIK_clean_linker_0, # of connection points: 2
#     Edge 70, Type (0, 1), BuildingBlock: UVAHIK_clean_linker_0, # of connection points: 2
#     Edge 71, Type (0, 1), BuildingBlock: UVAHIK_clean_linker_0, # of connection points: 2
#     Edge 72, Type (0, 1), BuildingBlock: UVAHIK_clean_linker_0, # of connection points: 2
#     Edge 73, Type (0, 1), BuildingBlock: UVAHIK_clean_linker_0, # of connection points: 2
#     Edge 74, Type (0, 1), BuildingBlock: UVAHIK_clean_linker_0, # of connection points: 2
#     Edge 75, Type (0, 1), BuildingBlock: UVAHIK_clean_linker_0, # of connection points: 2
#     Edge 76, Type (0, 1), BuildingBlock: UVAHIK_clean_linker_0, # of connection points: 2
#     Edge 77, Type (0, 1), BuildingBlock: UVAHIK_clean_linker_0, # of connection points: 2
#     Edge 78, Type (0, 1), BuildingBlock: UVAHIK_clean_linker_0, # of connection points: 2
#     Edge 79, Type (0, 1), BuildingBlock: UVAHIK_clean_linker_0, # of connection points: 2
#     Edge 80, Type (0, 1), BuildingBlock: UVAHIK_clean_linker_0, # of connection points: 2
#     Edge 81, Type (0, 1), BuildingBlock: UVAHIK_clean_linker_0, # of connection points: 2
#     Edge 82, Type (0, 1), BuildingBlock: UVAHIK_clean_linker_0, # of connection points: 2
#     Edge 83, Type (0, 1), BuildingBlock: UVAHIK_clean_linker_0, # of connection points: 2
#     Edge 84, Type (0, 1), BuildingBlock: UVAHIK_clean_linker_0, # of connection points: 2
#     Edge 85, Type (0, 1), BuildingBlock: UVAHIK_clean_linker_0, # of connection points: 2
#     Edge 86, Type (0, 1), BuildingBlock: UVAHIK_clean_linker_0, # of connection points: 2
#     Edge 87, Type (0, 1), BuildingBlock: UVAHIK_clean_linker_0, # of connection points: 2
#     Edge 88, Type (0, 1), BuildingBlock: UVAHIK_clean_linker_0, # of connection points: 2
#     Edge 89, Type (0, 1), BuildingBlock: UVAHIK_clean_linker_0, # of connection points: 2
#     Edge 90, Type (0, 1), BuildingBlock: UVAHIK_clean_linker_0, # of connection points: 2
#     Edge 91, Type (0, 1), BuildingBlock: UVAHIK_clean_linker_0, # of connection points: 2
#     Edge 92, Type (0, 1), BuildingBlock: UVAHIK_clean_linker_0, # of connection points: 2
#     Edge 93, Type (0, 1), BuildingBlock: UVAHIK_clean_linker_0, # of connection points: 2
#     Edge 94, Type (0, 1), BuildingBlock: UVAHIK_clean_linker_0, # of connection points: 2
#     Edge 95, Type (0, 1), BuildingBlock: UVAHIK_clean_linker_0, # of connection points: 2
#     Edge 96, Type (0, 1), BuildingBlock: UVAHIK_clean_linker_0, # of connection points: 2
#     Edge 97, Type (0, 1), BuildingBlock: UVAHIK_clean_linker_0, # of connection points: 2
#     Edge 98, Type (0, 1), BuildingBlock: UVAHIK_clean_linker_0, # of connection points: 2
#     Edge 99, Type (0, 1), BuildingBlock: UVAHIK_clean_linker_0, # of connection points: 2
#     Edge 100, Type (0, 1), BuildingBlock: UVAHIK_clean_linker_0, # of connection points: 2
#     Edge 101, Type (0, 1), BuildingBlock: UVAHIK_clean_linker_0, # of connection points: 2
#     Edge 102, Type (0, 1), BuildingBlock: UVAHIK_clean_linker_0, # of connection points: 2
#     Edge 103, Type (0, 1), BuildingBlock: UVAHIK_clean_linker_0, # of connection points: 2
#     Edge 104, Type (0, 1), BuildingBlock: UVAHIK_clean_linker_0, # of connection points: 2
#     Edge 105, Type (0, 1), BuildingBlock: UVAHIK_clean_linker_0, # of connection points: 2
#     Edge 106, Type (0, 1), BuildingBlock: UVAHIK_clean_linker_0, # of connection points: 2
#     Edge 107, Type (0, 1), BuildingBlock: UVAHIK_clean_linker_0, # of connection points: 2
#     Edge 108, Type (0, 1), BuildingBlock: UVAHIK_clean_linker_0, # of connection points: 2
#     Edge 109, Type (0, 1), BuildingBlock: UVAHIK_clean_linker_0, # of connection points: 2
#     Edge 110, Type (0, 1), BuildingBlock: UVAHIK_clean_linker_0, # of connection points: 2
#     Edge 111, Type (0, 1), BuildingBlock: UVAHIK_clean_linker_0, # of connection points: 2
#     Edge 112, Type (0, 1), BuildingBlock: UVAHIK_clean_linker_0, # of connection points: 2
#     Edge 113, Type (0, 1), BuildingBlock: UVAHIK_clean_linker_0, # of connection points: 2
#     Edge 114, Type (0, 1), BuildingBlock: UVAHIK_clean_linker_0, # of connection points: 2
#     Edge 115, Type (0, 1), BuildingBlock: UVAHIK_clean_linker_0, # of connection points: 2
#     Edge 116, Type (0, 1), BuildingBlock: UVAHIK_clean_linker_0, # of connection points: 2
#     Edge 117, Type (0, 1), BuildingBlock: UVAHIK_clean_linker_0, # of connection points: 2
#     Edge 118, Type (0, 1), BuildingBlock: UVAHIK_clean_linker_0, # of connection points: 2
#     Edge 119, Type (0, 1), BuildingBlock: UVAHIK_clean_linker_0, # of connection points: 2
# Relax obj value: 0.068
# Max RMSD: 0.121
# Mean RMSD: 0.061
data_MOF--net-bwt--node1-OLANEW_clean_sbu_2--node2-BETDAH_clean_linker_0--edge1-UVAHIK_clean_linker_0
_symmetry_space_group_name_H-M    P1
_symmetry_Int_Tables_number       1
_symmetry_cell_setting            triclinic
loop_
_symmetry_equiv_pos_as_xyz
'x, y, z'
_cell_length_a     76.685006
_cell_length_b     76.680677
_cell_length_c     76.693498
_cell_angle_alpha  94.949642
_cell_angle_beta   94.947465
_cell_angle_gamma 94.948806
loop_
_atom_site_label
_atom_site_type_symbol
_atom_site_fract_x
_atom_site_fract_y
_atom_site_fract_z
_atom_type_partial_charge
O0 O 0.28189 0.5782 0.39782 0.0
Cd1 Cd 0.27535 0.58529 0.3676 0.0
O2 O 0.30892 0.58757 0.39409 0.0
Cd3 Cd 0.33729 0.59248 0.40096 0.0
O4 O 0.36592 0.59557 0.40207 0.0
C5 C 0.37277 0.58832 0.38914 0.0
O6 O 0.36239 0.57946 0.37626 0.0
C7 C 0.29786 0.58149 0.40399 0.0
C8 C 0.23959 0.58231 0.35644 0.0
O9 O 0.24892 0.56948 0.35345 0.0
O10 O 0.24716 0.59649 0.3649 0.0
O11 O 0.22019 0.35098 0.75297 0.0
Cd12 Cd 0.21039 0.33335 0.7252 0.0
O13 O 0.2113 0.37514 0.74309 0.0
Cd14 Cd 0.19533 0.36208 0.71999 0.0
O15 O 0.17018 0.35803 0.70392 0.0
C16 C 0.16385 0.37164 0.69865 0.0
O17 O 0.17322 0.38692 0.70212 0.0
C18 C 0.21935 0.36751 0.75501 0.0
C19 C 0.23673 0.33912 0.70292 0.0
O20 O 0.22363 0.34841 0.70293 0.0
O21 O 0.23702 0.3266 0.71295 0.0
O22 O 0.71801 0.01109 0.5942 0.0
Cd23 Cd 0.73051 0.01605 0.62482 0.0
O24 O 0.71706 0.98238 0.59488 0.0
Cd25 Cd 0.73352 0.9844 0.61984 0.0
O26 O 0.75601 0.98917 0.63979 0.0
C27 C 0.76789 0.00121 0.63763 0.0
O28 O 0.76593 0.01017 0.62385 0.0
C29 C 0.7135 0.99566 0.58683 0.0
C30 C 0.70395 0.01772 0.64734 0.0
O31 O 0.71199 0.03174 0.64284 0.0
O32 O 0.70855 0.00287 0.64132 0.0
O33 O 0.78718 0.99854 0.2509 0.0
Cd34 Cd 0.79857 0.0075 0.28137 0.0
O35 O 0.76071 0.00057 0.25903 0.0
Cd36 Cd 0.73205 0.99794 0.2551 0.0
O37 O 0.70349 0.99675 0.25395 0.0
C38 C 0.69414 0.99718 0.23951 0.0
O39 O 0.70188 0.99818 0.22495 0.0
C40 C 0.77067 0.9974 0.24695 0.0
C41 C 0.83244 0.99778 0.28816 0.0
O42 O 0.81898 0.9876 0.29086 0.0
O43 O 0.82986 0.01262 0.28237 0.0
O44 O 0.38948 0.27028 0.54783 0.0
Cd45 Cd 0.35857 0.26315 0.55191 0.0
O46 O 0.38619 0.29705 0.55841 0.0
Cd47 Cd 0.39391 0.32432 0.56877 0.0
O48 O 0.39571 0.35225 0.5776 0.0
C49 C 0.39868 0.36353 0.56676 0.0
O50 O 0.40123 0.35805 0.55055 0.0
C51 C 0.39605 0.28598 0.55224 0.0
C52 C 0.35204 0.22832 0.55901 0.0
O53 O 0.35059 0.23267 0.54322 0.0
O54 O 0.35655 0.24049 0.57151 0.0
O55 O 0.26056 0.78701 0.01674 0.0
Cd56 Cd 0.28824 0.80139 0.0315 0.0
O57 O 0.26734 0.76226 0.02646 0.0
Cd58 Cd 0.26485 0.73452 0.03158 0.0
O59 O 0.26589 0.70608 0.03024 0.0
C60 C 0.28068 0.70014 0.02857 0.0
O61 O 0.29463 0.71132 0.02836 0.0
C62 C 0.25666 0.77068 0.01758 0.0
C63 C 0.29573 0.83458 0.02021 0.0
O64 O 0.30088 0.82084 0.01223 0.0
O65 O 0.2871 0.83262 0.03361 0.0
O66 O 0.74349 0.2347 0.34703 0.0
Cd67 Cd 0.71269 0.23164 0.33499 0.0
O68 O 0.74197 0.20784 0.35519 0.0
Cd69 Cd 0.71469 0.19948 0.3456 0.0
O70 O 0.69453 0.17768 0.34602 0.0
C71 C 0.69513 0.1703 0.36025 0.0
O72 O 0.70671 0.17691 0.37328 0.0
C73 C 0.75071 0.22254 0.35432 0.0
C74 C 0.6969 0.26099 0.34765 0.0
O75 O 0.69757 0.24745 0.3563 0.0
O76 O 0.70334 0.26049 0.33276 0.0
O77 O 0.58326 0.67729 0.95669 0.0
Cd78 Cd 0.61139 0.67265 0.94526 0.0
O79 O 0.59403 0.70415 0.96592 0.0
Cd80 Cd 0.59531 0.73079 0.97901 0.0
O81 O 0.60696 0.75725 0.9886 0.0
C82 C 0.60221 0.76638 0.00168 0.0
O83 O 0.58924 0.75997 0.01007 0.0
C84 C 0.58123 0.69225 0.96431 0.0
C85 C 0.62591 0.64391 0.95853 0.0
O86 O 0.62878 0.6593 0.96678 0.0
O87 O 0.61617 0.64211 0.94393 0.0
O88 O 0.64325 0.42068 0.26923 0.0
Cd89 Cd 0.6596 0.39671 0.25822 0.0
O90 O 0.6443 0.40897 0.2943 0.0
Cd91 Cd 0.63819 0.40693 0.32138 0.0
O92 O 0.63203 0.40305 0.34809 0.0
C93 C 0.63159 0.38779 0.35342 0.0
O94 O 0.63491 0.37447 0.34265 0.0
C95 C 0.63973 0.42116 0.28514 0.0
C96 C 0.64397 0.37939 0.22659 0.0
O97 O 0.63992 0.37437 0.24136 0.0
O98 O 0.65538 0.39267 0.22681 0.0
O99 O 0.01983 0.24957 0.79266 0.0
Cd100 Cd 0.03487 0.27866 0.80212 0.0
O101 O 0.025 0.25334 0.76558 0.0
Cd102 Cd 0.02589 0.24695 0.73731 0.0
O103 O 0.02073 0.24231 0.70878 0.0
C104 C 0.02326 0.25492 0.69931 0.0
O105 O 0.02954 0.27048 0.70691 0.0
C106 C 0.01836 0.24374 0.77653 0.0
C107 C 0.02839 0.2894 0.83641 0.0
O108 O 0.01836 0.29302 0.82322 0.0
O109 O 0.0416 0.28082 0.83336 0.0
O110 O 0.40059 0.80644 0.23517 0.0
Cd111 Cd 0.38385 0.77829 0.22495 0.0
O112 O 0.42153 0.80287 0.21766 0.0
Cd113 Cd 0.40921 0.77772 0.20503 0.0
O114 O 0.39861 0.75696 0.18472 0.0
C115 C 0.40822 0.74527 0.17939 0.0
O116 O 0.42427 0.74535 0.18696 0.0
C117 C 0.41497 0.81207 0.22959 0.0
C118 C 0.3822 0.75678 0.25235 0.0
O119 O 0.39443 0.75605 0.24199 0.0
O120 O 0.37061 0.76757 0.24962 0.0
O121 O 0.92202 0.5857 0.6774 0.0
Cd122 Cd 0.9094 0.61363 0.67483 0.0
O123 O 0.93645 0.59738 0.70206 0.0
Cd124 Cd 0.95502 0.59973 0.72564 0.0
O125 O 0.96996 0.61307 0.74932 0.0
C126 C 0.9821 0.60663 0.75832 0.0
O127 O 0.98625 0.59078 0.75346 0.0
C128 C 0.93275 0.58425 0.69066 0.0
C129 C 0.92719 0.63317 0.65181 0.0
O130 O 0.93261 0.63409 0.66818 0.0
O131 O 0.91319 0.62315 0.64636 0.0
O132 O 0.68536 0.34972 0.62801 0.0
Cd133 Cd 0.69494 0.33345 0.65254 0.0
O134 O 0.67978 0.37183 0.64619 0.0
Cd135 Cd 0.66792 0.39652 0.65076 0.0
O136 O 0.64647 0.41339 0.64968 0.0
C137 C 0.63704 0.41455 0.66248 0.0
O138 O 0.64128 0.4065 0.67647 0.0
C139 C 0.6803 0.365 0.63056 0.0
C140 C 0.73142 0.33857 0.65908 0.0
O141 O 0.72401 0.32624 0.64784 0.0
O142 O 0.72155 0.34834 0.66744 0.0
O143 O 0.75927 0.66022 0.18921 0.0
Cd144 Cd 0.76148 0.68793 0.2079 0.0
O145 O 0.77855 0.65089 0.2081 0.0
Cd146 Cd 0.79458 0.63179 0.21962 0.0
O147 O 0.81533 0.61668 0.2299 0.0
C148 C 0.82216 0.62055 0.24559 0.0
O149 O 0.81605 0.63314 0.25537 0.0
C150 C 0.76839 0.64808 0.19393 0.0
C151 C 0.74035 0.68403 0.23536 0.0
O152 O 0.7344 0.68984 0.22106 0.0
O153 O 0.75639 0.68041 0.23678 0.0
O154 O 0.2721 0.09021 0.37855 0.0
Cd155 Cd 0.27603 0.10705 0.35336 0.0
O156 O 0.27342 0.06585 0.36167 0.0
Cd157 Cd 0.26932 0.03726 0.35641 0.0
O158 O 0.25255 0.0128 0.34939 0.0
C159 C 0.24588 0.00964 0.33356 0.0
O160 O 0.25049 0.02046 0.32202 0.0
C161 C 0.27177 0.07355 0.37672 0.0
C162 C 0.30431 0.09622 0.33617 0.0
O163 O 0.30651 0.10874 0.34859 0.0
O164 O 0.28867 0.089 0.33174 0.0
O165 O 0.2288 0.00526 0.74169 0.0
Cd166 Cd 0.21361 0.00507 0.71234 0.0
O167 O 0.24945 0.02434 0.73467 0.0
Cd168 Cd 0.27545 0.03875 0.74058 0.0
O169 O 0.30373 0.04528 0.74652 0.0
C170 C 0.31184 0.03709 0.75794 0.0
O171 O 0.30281 0.02552 0.76614 0.0
C172 C 0.24303 0.01504 0.74593 0.0
C173 C 0.17803 0.00908 0.7143 0.0
O174 O 0.1834 0.99374 0.71205 0.0
O175 O 0.18946 0.02245 0.71547 0.0
O176 O 0.61631 0.69851 0.34937 0.0
Cd177 Cd 0.64139 0.70946 0.33454 0.0
O178 O 0.63388 0.69211 0.37152 0.0
Cd179 Cd 0.63963 0.68003 0.39589 0.0
O180 O 0.64434 0.66162 0.41549 0.0
C181 C 0.65998 0.65826 0.41981 0.0
O182 O 0.67299 0.66668 0.41295 0.0
C183 C 0.61838 0.69269 0.36435 0.0
C184 C 0.64553 0.74607 0.33953 0.0
O185 O 0.63537 0.73801 0.32666 0.0
O186 O 0.65397 0.73681 0.34989 0.0
O187 O 0.76747 0.22253 0.97411 0.0
Cd188 Cd 0.73853 0.20716 0.96476 0.0
O189 O 0.75866 0.22996 -6e-05 0.0
Cd190 Cd 0.76132 0.24648 0.02486 0.0
O191 O 0.75986 0.27024 0.04222 0.0
C192 C 0.77235 0.28246 0.04387 0.0
O193 O 0.78657 0.28004 0.0359 0.0
C194 C 0.7706 0.23047 0.98944 0.0
C195 C 0.73452 0.17412 0.97714 0.0
O196 O 0.74043 0.17609 0.96222 0.0
O197 O 0.73056 0.18781 0.9862 0.0
O198 O 0.20884 0.76626 0.66796 0.0
Cd199 Cd 0.23308 0.7681 0.69112 0.0
O200 O 0.22671 0.78027 0.65206 0.0
Cd201 Cd 0.236 0.7924 0.62936 0.0
O202 O 0.24644 0.81142 0.61245 0.0
C203 C 0.26286 0.81605 0.61412 0.0
O204 O 0.27304 0.8086 0.62537 0.0
C205 C 0.21148 0.77293 0.6537 0.0
C206 C 0.25631 0.74313 0.68335 0.0
O207 O 0.24354 0.73967 0.69263 0.0
O208 O 0.25817 0.75846 0.6779 0.0
O209 O 0.34363 0.30806 0.08083 0.0
Cd210 Cd 0.31531 0.31682 0.08895 0.0
O211 O 0.33243 0.29359 0.05582 0.0
Cd212 Cd 0.33473 0.27533 0.03273 0.0
O213 O 0.33814 0.25237 0.01483 0.0
C214 C 0.32505 0.24118 0.00992 0.0
O215 O 0.30964 0.24411 0.01523 0.0
C216 C 0.34569 0.29891 0.06666 0.0
C217 C 0.30515 0.34471 0.07068 0.0
O218 O 0.31543 0.34747 0.08492 0.0
O219 O 0.2996 0.32877 0.06516 0.0
O220 O 0.36025 0.62296 0.71154 0.0
Cd221 Cd 0.34368 0.64777 0.71959 0.0
O222 O 0.37203 0.63756 0.69151 0.0
Cd223 Cd 0.38886 0.64213 0.67042 0.0
O224 O 0.40031 0.64454 0.64558 0.0
C225 C 0.40801 0.63205 0.63863 0.0
O226 O 0.40959 0.6179 0.64693 0.0
C227 C 0.37032 0.62357 0.69926 0.0
C228 C 0.34483 0.65441 0.75598 0.0
O229 O 0.33309 0.64321 0.74746 0.0
O230 O 0.35595 0.66256 0.74726 0.0
O231 O 0.99734 0.73058 0.20658 0.0
Cd232 Cd 0.99299 0.69991 0.1943 0.0
O233 O 0.0127 0.72187 0.22904 0.0
Cd234 Cd 0.02693 0.72442 0.25524 0.0
O235 O 0.03938 0.7261 0.28206 0.0
C236 C 0.03645 0.73842 0.2933 0.0
O237 O 0.02614 0.7503 0.28841 0.0
C238 C 0.00655 0.73431 0.22122 0.0
C239 C 0.00198 0.69694 0.15985 0.0
O240 O 0.98596 0.69796 0.16308 0.0
O241 O 0.01365 0.69713 0.17289 0.0
O242 O 0.64967 0.22616 0.7761 0.0
Cd243 Cd 0.67446 0.24792 0.77404 0.0
O244 O 0.63343 0.24614 0.78643 0.0
Cd245 Cd 0.61063 0.25408 0.79927 0.0
O246 O 0.59224 0.25907 0.81885 0.0
C247 C 0.58283 0.24631 0.82384 0.0
O248 O 0.58376 0.23038 0.8164 0.0
C249 C 0.63523 0.23016 0.7816 0.0
C250 C 0.66968 0.26438 0.74327 0.0
O251 O 0.67636 0.24963 0.7433 0.0
O252 O 0.66545 0.27148 0.75786 0.0
O253 O 0.06648 0.36881 0.34019 0.0
Cd254 Cd 0.0818 0.34332 0.34725 0.0
O255 O 0.0522 0.35428 0.31668 0.0
Cd256 Cd 0.03582 0.35031 0.29156 0.0
O257 O 0.02155 0.34501 0.26549 0.0
C258 C 0.01607 0.35744 0.25722 0.0
O259 O 0.01882 0.37363 0.26471 0.0
C260 C 0.05541 0.36846 0.32681 0.0
C261 C 0.06631 0.32691 0.3738 0.0
O262 O 0.07861 0.33943 0.3775 0.0
O263 O 0.06153 0.32205 0.35755 0.0
H264 H 0.33481 0.60588 0.59122 0.0
H265 H 0.35228 0.5541 0.59128 0.0
H266 H 0.35384 0.58696 0.63983 0.0
C267 C 0.34028 0.59565 0.59826 0.0
C268 C 0.34393 0.59837 0.61661 0.0
C269 C 0.34322 0.5797 0.58898 0.0
C270 C 0.35023 0.56651 0.5983 0.0
C271 C 0.35408 0.56915 0.61667 0.0
C272 C 0.35091 0.58504 0.62568 0.0
N273 N 0.36079 0.556 0.62657 0.0
C274 C 0.36423 0.53958 0.61929 0.0
H275 H 0.27423 0.4491 0.93195 0.0
H276 H 0.28763 0.49575 0.90679 0.0
H277 H 0.28945 0.49828 0.96314 0.0
C278 C 0.27829 0.46306 0.93281 0.0
C279 C 0.28162 0.47266 0.9494 0.0
C280 C 0.28031 0.47121 0.91733 0.0
C281 C 0.28576 0.48925 0.91858 0.0
C282 C 0.28889 0.49912 0.93495 0.0
C283 C 0.28686 0.49079 0.95041 0.0
N284 N 0.29433 0.51731 0.93529 0.0
C285 C 0.29376 0.52949 0.94967 0.0
H286 H 0.6523 0.92997 0.4094 0.0
H287 H 0.63988 0.98155 0.39752 0.0
H288 H 0.63512 0.9392 0.3564 0.0
C289 C 0.64801 0.93881 0.39996 0.0
C290 C 0.6439 0.93234 0.38226 0.0
C291 C 0.64657 0.95652 0.40566 0.0
C292 C 0.6412 0.96794 0.39326 0.0
C293 C 0.63699 0.9616 0.37547 0.0
C294 C 0.63822 0.94386 0.37016 0.0
N295 N 0.63129 0.97258 0.36255 0.0
C296 C 0.63332 0.99083 0.36482 0.0
H297 H 0.72019 0.01135 0.06612 0.0
H298 H 0.70076 0.95663 0.05698 0.0
H299 H 0.69534 0.99043 0.01537 0.0
C300 C 0.7138 0.00032 0.05742 0.0
C301 C 0.70824 0.00291 0.04 0.0
C302 C 0.71124 0.98367 0.06371 0.0
C303 C 0.70269 0.96953 0.05232 0.0
C304 C 0.697 0.97202 0.03484 0.0
C305 C 0.6999 0.98863 0.02882 0.0
N306 N 0.68836 0.95821 0.02283 0.0
C307 C 0.68374 0.94126 0.027 0.0
H308 H 0.5821 0.32065 0.58655 0.0
H309 H 0.58468 0.35357 0.54392 0.0
H310 H 0.62876 0.35459 0.58271 0.0
C311 C 0.58932 0.33017 0.57958 0.0
C312 C 0.60649 0.33667 0.58619 0.0
C313 C 0.5812 0.33642 0.56451 0.0
C314 C 0.59073 0.34887 0.55569 0.0
C315 C 0.60801 0.35535 0.56222 0.0
C316 C 0.61554 0.34956 0.57768 0.0
N317 N 0.6182 0.36759 0.5535 0.0
C318 C 0.61569 0.36887 0.53554 0.0
H319 H 0.08294 0.70262 0.99352 0.0
H320 H 0.07179 0.71119 0.93923 0.0
H321 H 0.0296 0.70639 0.97234 0.0
C322 C 0.07344 0.70419 0.98259 0.0
C323 C 0.05547 0.70395 0.98511 0.0
C324 C 0.07942 0.70713 0.96622 0.0
C325 C 0.06723 0.70885 0.95189 0.0
C326 C 0.04918 0.70813 0.95409 0.0
C327 C 0.04348 0.70615 0.97072 0.0
N328 N 0.0365 0.71001 0.93999 0.0
C329 C 0.03789 0.70328 0.92283 0.0
H330 H 0.92665 0.2604 0.45339 0.0
H331 H 0.89736 0.22994 0.48747 0.0
H332 H 0.95165 0.24809 0.50258 0.0
C333 C 0.92589 0.25454 0.4657 0.0
C334 C 0.94094 0.25554 0.47769 0.0
C335 C 0.91012 0.24528 0.46902 0.0
C336 C 0.90948 0.23705 0.48464 0.0
C337 C 0.92426 0.23811 0.49686 0.0
C338 C 0.94006 0.24733 0.49332 0.0
N339 N 0.92277 0.22964 0.51248 0.0
C340 C 0.93552 0.23175 0.52669 0.0
H341 H 0.40128 0.68728 0.94068 0.0
H342 H 0.39151 0.67948 0.9938 0.0
H343 H 0.3494 0.66849 0.95242 0.0
C344 C 0.3921 0.68383 0.9501 0.0
C345 C 0.37454 0.67797 0.94424 0.0
C346 C 0.39826 0.68439 0.96792 0.0
C347 C 0.38667 0.67914 0.98008 0.0
C348 C 0.36895 0.67346 0.97446 0.0
C349 C 0.36306 0.67283 0.9566 0.0
N350 N 0.35676 0.66818 0.98638 0.0
C351 C 0.3604 0.67074 0.00452 0.0
H352 H 0.62257 0.59404 0.33587 0.0
H353 H 0.57253 0.59033 0.35711 0.0
H354 H 0.59966 0.64116 0.35289 0.0
C355 C 0.61218 0.60043 0.34182 0.0
C356 C 0.61293 0.61886 0.34379 0.0
C357 C 0.59762 0.59013 0.34653 0.0
C358 C 0.58377 0.59834 0.35353 0.0
C359 C 0.58465 0.61684 0.35609 0.0
C360 C 0.59918 0.62694 0.35112 0.0
N361 N 0.5712 0.62577 0.3635 0.0
C362 C 0.55533 0.61757 0.36736 0.0
H363 H 0.00396 0.06648 0.73331 0.0
H364 H 0.95048 0.05145 0.74203 0.0
H365 H 0.98718 0.01219 0.73858 0.0
C366 C 0.99383 0.05626 0.73528 0.0
C367 C 0.99786 0.03875 0.73568 0.0
C368 C 0.9769 0.06088 0.7378 0.0
C369 C 0.96355 0.04781 0.74 0.0
C370 C 0.96721 0.03013 0.73986 0.0
C371 C 0.9844 0.02577 0.7381 0.0
N372 N 0.95394 0.01649 0.74164 0.0
C373 C 0.93633 0.01754 0.73622 0.0
H374 H 0.44182 0.99664 0.27271 0.0
H375 H 0.49462 0.99811 0.25769 0.0
H376 H 0.4698 0.04606 0.26522 0.0
C377 C 0.45361 0.00404 0.2695 0.0
C378 C 0.45405 0.02238 0.26961 0.0
C379 C 0.46817 0.99515 0.26523 0.0
C380 C 0.48334 0.00488 0.26095 0.0
C381 C 0.48394 0.02331 0.261 0.0
C382 C 0.46931 0.0319 0.26535 0.0
N383 N 0.49895 0.03362 0.25667 0.0
C384 C 0.51472 0.02691 0.25341 0.0
H385 H 0.91692 0.40657 0.68385 0.0
H386 H 0.9686 0.39543 0.67154 0.0
H387 H 0.92599 0.35442 0.66319 0.0
C388 C 0.92575 0.39715 0.67946 0.0
C389 C 0.91913 0.37976 0.67372 0.0
C390 C 0.94354 0.40283 0.6787 0.0
C391 C 0.95493 0.39094 0.67228 0.0
C392 C 0.94854 0.37339 0.66676 0.0
C393 C 0.93073 0.36798 0.66744 0.0
N394 N 0.95951 0.36083 0.66021 0.0
C395 C 0.97773 0.36349 0.66132 0.0
H396 H 0.66024 0.41274 0.4631 0.0
H397 H 0.67894 0.46739 0.47327 0.0
H398 H 0.68602 0.43932 0.42384 0.0
C399 C 0.66635 0.42459 0.45862 0.0
C400 C 0.67248 0.42402 0.44186 0.0
C401 C 0.66879 0.44009 0.47009 0.0
C402 C 0.67687 0.45545 0.46441 0.0
C403 C 0.68278 0.45517 0.44753 0.0
C404 C 0.68077 0.43946 0.43651 0.0
N405 N 0.6914 0.47027 0.44144 0.0
C406 C 0.68966 0.48732 0.44826 0.0
H407 H 0.71854 0.52758 0.05801 0.0
H408 H 0.72252 0.47733 0.07833 0.0
H409 H 0.68752 0.48185 0.03228 0.0
C410 C 0.71513 0.51348 0.05692 0.0
C411 C 0.70265 0.50586 0.04339 0.0
C412 C 0.72224 0.50339 0.06974 0.0
C413 C 0.71714 0.48523 0.06851 0.0
C414 C 0.70467 0.47743 0.05487 0.0
C415 C 0.69727 0.48786 0.04261 0.0
N416 N 0.69891 0.45924 0.05336 0.0
C417 C 0.70865 0.44665 0.0604 0.0
H418 H 0.30152 0.04977 0.54474 0.0
H419 H 0.31298 0.99594 0.54494 0.0
H420 H 0.33848 0.03505 0.58489 0.0
C421 C 0.30804 0.03963 0.55102 0.0
C422 C 0.31989 0.0444 0.56595 0.0
C423 C 0.3056 0.02226 0.54324 0.0
C424 C 0.3147 0.00934 0.551 0.0
C425 C 0.32637 0.01391 0.56627 0.0
C426 C 0.32919 0.03149 0.5734 0.0
N427 N 0.33576 0.00122 0.57452 0.0
C428 C 0.33027 0.98337 0.5725 0.0
H429 H 0.31073 0.9913 0.92545 0.0
H430 H 0.33399 0.04467 0.92685 0.0
H431 H 0.34181 0.01572 0.97184 0.0
C432 C 0.3186 0.00262 0.93233 0.0
C433 C 0.32595 0.00154 0.94958 0.0
C434 C 0.32151 0.01803 0.92383 0.0
C435 C 0.3314 0.03276 0.93319 0.0
C436 C 0.33867 0.03187 0.95053 0.0
C437 C 0.33616 0.01622 0.95846 0.0
N438 N 0.34884 0.04638 0.96027 0.0
C439 C 0.34684 0.06379 0.95749 0.0
H440 H 0.44627 0.67929 0.39799 0.0
H441 H 0.44636 0.64641 0.44068 0.0
H442 H 0.39761 0.65427 0.41154 0.0
C443 C 0.43919 0.67121 0.40649 0.0
C444 C 0.42084 0.66812 0.40344 0.0
C445 C 0.44856 0.66336 0.41977 0.0
C446 C 0.43927 0.65249 0.43035 0.0
C447 C 0.42085 0.64928 0.42741 0.0
C448 C 0.41179 0.65679 0.41373 0.0
N449 N 0.41107 0.63861 0.43802 0.0
C450 C 0.41637 0.63721 0.45558 0.0
H451 H 0.94531 0.31102 0.99638 0.0
H452 H 0.94905 0.32361 0.05245 0.0
H453 H 0.99472 0.33179 0.02424 0.0
C454 C 0.95294 0.31622 0.00856 0.0
C455 C 0.97087 0.3215 0.00833 0.0
C456 C 0.94487 0.317 0.02436 0.0
C457 C 0.95514 0.3229 0.04021 0.0
C458 C 0.97319 0.32821 0.04012 0.0
C459 C 0.98087 0.32751 0.0242 0.0
N460 N 0.98411 0.33449 0.05566 0.0
C461 C 0.97901 0.33455 0.0726 0.0
H462 H 0.05406 0.7286 0.55296 0.0
H463 H 0.07344 0.72691 0.5019 0.0
H464 H 0.02645 0.69499 0.50973 0.0
C465 C 0.05266 0.72368 0.53919 0.0
C466 C 0.0385 0.71132 0.53273 0.0
C467 C 0.06545 0.72923 0.52826 0.0
C468 C 0.06359 0.72281 0.51039 0.0
C469 C 0.04927 0.71065 0.50371 0.0
C470 C 0.03703 0.70483 0.51494 0.0
N471 N 0.04711 0.70335 0.48596 0.0
C472 C 0.05427 0.71115 0.4722 0.0
H473 H 0.53149 0.29739 0.07348 0.0
H474 H 0.5293 0.27924 0.01856 0.0
H475 H 0.57913 0.29567 0.048 0.0
C476 C 0.53811 0.29413 0.06186 0.0
C477 C 0.55648 0.29713 0.06275 0.0
C478 C 0.52814 0.2876 0.04602 0.0
C479 C 0.53683 0.28434 0.0308 0.0
C480 C 0.55527 0.28734 0.03156 0.0
C481 C 0.56493 0.29359 0.04752 0.0
N482 N 0.56468 0.28413 0.01666 0.0
C483 C 0.55702 0.28005 -0.00043 0.0
H484 H 0.3869 0.4433 0.66481 0.0
H485 H 0.43666 0.45116 0.64329 0.0
H486 H 0.40946 0.39939 0.63984 0.0
C487 C 0.3975 0.43808 0.65814 0.0
C488 C 0.39646 0.42 0.65291 0.0
C489 C 0.41177 0.44955 0.65457 0.0
C490 C 0.42563 0.44251 0.64632 0.0
C491 C 0.42477 0.42437 0.64104 0.0
C492 C 0.41004 0.41331 0.64401 0.0
N493 N 0.43834 0.4169 0.63237 0.0
C494 C 0.45574 0.424 0.63475 0.0
H495 H 0.99546 0.91231 0.29013 0.0
H496 H 0.05174 0.92202 0.29369 0.0
H497 H 0.02033 0.96448 0.30568 0.0
C498 C 0.00724 0.92129 0.29328 0.0
C499 C 0.00578 0.93914 0.29818 0.0
C500 C 0.02375 0.91505 0.29161 0.0
C501 C 0.039 0.92682 0.29499 0.0
C502 C 0.03771 0.94469 0.30012 0.0
C503 C 0.02115 0.9507 0.30163 0.0
N504 N 0.0527 0.95708 0.30378 0.0
C505 C 0.06995 0.95287 0.30395 0.0
H506 H 0.56522 0.07123 0.74522 0.0
H507 H 0.51566 0.06145 0.76631 0.0
H508 H 0.54374 0.01801 0.74843 0.0
C509 C 0.55488 0.06197 0.7487 0.0
C510 C 0.55643 0.04386 0.746 0.0
C511 C 0.54034 0.0684 0.7561 0.0
C512 C 0.52686 0.05649 0.76051 0.0
C513 C 0.52796 0.03823 0.75744 0.0
C514 C 0.54282 0.03205 0.75041 0.0
N515 N 0.51444 0.02575 0.7614 0.0
C516 C 0.49753 0.02989 0.76408 0.0
H517 H 0.05588 0.53426 0.30054 0.0
H518 H 0.00347 0.55009 0.29697 0.0
H519 H 0.04787 0.58924 0.30412 0.0
C520 C 0.04716 0.54464 0.29999 0.0
C521 C 0.05422 0.56227 0.30233 0.0
C522 C 0.02892 0.54016 0.298 0.0
C523 C 0.01754 0.55356 0.29831 0.0
C524 C 0.02445 0.57133 0.30044 0.0
C525 C 0.0427 0.57554 0.30247 0.0
N526 N 0.01351 0.58535 0.30086 0.0
C527 C 0.99532 0.58314 0.29761 0.0
C528 C 0.21331 0.5668 0.3381 0.0
C529 C 0.2207 0.58089 0.35014 0.0
C530 C 0.19553 0.56558 0.33193 0.0
C531 C 0.15697 0.59185 0.32836 0.0
H532 H 0.13086 0.54581 0.32099 0.0
C533 C 0.08082 0.57997 0.31844 0.0
C534 C 0.07359 0.56657 0.30551 0.0
C535 C 0.09901 0.58274 0.32268 0.0
C536 C 0.13803 0.55874 0.3228 0.0
H537 H 0.21521 0.60467 0.36529 0.0
H538 H 0.18407 0.60225 0.35497 0.0
H539 H 0.16197 0.54837 0.33125 0.0
H540 H 0.07991 0.5463 0.28615 0.0
H541 H 0.1116 0.55094 0.2938 0.0
H542 H 0.13272 0.60217 0.32036 0.0
C543 C 0.19208 0.59237 0.34992 0.0
C544 C 0.15589 0.56022 0.32864 0.0
C545 C 0.20992 0.59369 0.35594 0.0
C546 C 0.08501 0.55648 0.29644 0.0
C547 C 0.10316 0.55914 0.30079 0.0
C548 C 0.13903 0.59037 0.32269 0.0
C549 C 0.18465 0.57831 0.33781 0.0
C550 C 0.16562 0.57679 0.33148 0.0
C551 C 0.11031 0.57208 0.31417 0.0
C552 C 0.1294 0.57379 0.31983 0.0
H553 H 0.22131 0.5568 0.33326 0.0
H554 H 0.19037 0.55474 0.32238 0.0
H555 H 0.16408 0.6048 0.33012 0.0
H556 H 0.07241 0.58785 0.32582 0.0
H557 H 0.10418 0.59273 0.33314 0.0
C558 C 0.25164 0.35813 0.68267 0.0
C559 C 0.2518 0.34375 0.69284 0.0
C560 C 0.26679 0.36427 0.67536 0.0
C561 C 0.30328 0.38271 0.67641 0.0
H562 H 0.33727 0.35422 0.65626 0.0
C563 C 0.37406 0.41076 0.67298 0.0
C564 C 0.381 0.40836 0.65667 0.0
C565 C 0.35847 0.4013 0.67604 0.0
C566 C 0.32783 0.36232 0.66176 0.0
H567 H 0.26765 0.32379 0.70232 0.0
H568 H 0.29416 0.33462 0.68966 0.0
H569 H 0.30875 0.34025 0.66251 0.0
H570 H 0.37747 0.3934 0.63108 0.0
H571 H 0.35012 0.37666 0.63654 0.0
H572 H 0.32226 0.40471 0.6759 0.0
C573 C 0.28229 0.34109 0.68727 0.0
C574 C 0.31158 0.35433 0.66542 0.0
C575 C 0.26711 0.33494 0.6946 0.0
C576 C 0.37246 0.39555 0.64379 0.0
C577 C 0.35682 0.38597 0.6469 0.0
C578 C 0.31948 0.39062 0.67291 0.0
C579 C 0.28244 0.35616 0.67807 0.0
C580 C 0.29919 0.36447 0.67289 0.0
C581 C 0.34946 0.38912 0.6629 0.0
C582 C 0.33201 0.38051 0.66575 0.0
H583 H 0.24002 0.36511 0.68092 0.0
H584 H 0.26643 0.37573 0.66806 0.0
H585 H 0.29414 0.39086 0.68239 0.0
H586 H 0.38057 0.4202 0.68334 0.0
H587 H 0.3533 0.40369 0.68865 0.0
C588 C 0.67686 0.00433 0.65898 0.0
C589 C 0.68953 0.01868 0.65889 0.0
C590 C 0.6627 0.00564 0.66921 0.0
C591 C 0.63858 0.03933 0.69254 0.0
H592 H 0.61744 0.99923 0.71333 0.0
C593 C 0.58887 0.04683 0.74339 0.0
C594 C 0.57226 0.03766 0.7384 0.0
C595 C 0.60339 0.04286 0.73457 0.0
C596 C 0.62323 0.01048 0.70751 0.0
H597 H 0.69778 0.04536 0.66997 0.0
H598 H 0.67368 0.04741 0.68842 0.0
H599 H 0.64284 0.99587 0.69647 0.0
H600 H 0.5582 0.01623 0.72101 0.0
H601 H 0.58391 0.00893 0.70589 0.0
H602 H 0.61932 0.05401 0.70411 0.0
C603 C 0.67414 0.03536 0.68009 0.0
C604 C 0.6377 0.00858 0.69778 0.0
C605 C 0.68808 0.03416 0.66961 0.0
C606 C 0.5708 0.02353 0.7252 0.0
C607 C 0.58547 0.01937 0.71652 0.0
C608 C 0.62439 0.04127 0.7025 0.0
C609 C 0.66106 0.02123 0.67982 0.0
C610 C 0.64562 0.02302 0.6902 0.0
C611 C 0.60173 0.02939 0.72079 0.0
C612 C 0.61662 0.02691 0.71011 0.0
H613 H 0.67762 0.99225 0.65077 0.0
H614 H 0.65282 0.99455 0.66843 0.0
H615 H 0.6439 0.05064 0.68652 0.0
H616 H 0.59058 0.05746 0.75383 0.0
H617 H 0.61588 0.05058 0.73827 0.0
C618 C 0.85318 0.97649 0.29846 0.0
C619 C 0.85042 0.99239 0.29128 0.0
C620 C 0.87009 0.9711 0.30082 0.0
C621 C 0.91733 0.98721 0.30323 0.0
H622 H 0.92316 0.93813 0.29059 0.0
C623 C 0.98471 0.96182 0.2927 0.0
C624 C 0.98821 0.94576 0.29921 0.0
C625 C 0.96804 0.96779 0.29312 0.0
C626 C 0.92173 0.95183 0.2944 0.0
H627 H 0.86328 0.0152 0.28113 0.0
H628 H 0.89273 0.00564 0.28496 0.0
H629 H 0.8938 0.94806 0.2888 0.0
H630 H 0.97704 0.92363 0.31172 0.0
H631 H 0.94786 0.93399 0.31229 0.0
H632 H 0.94535 0.99098 0.30851 0.0
C633 C 0.88187 0.99747 0.28904 0.0
C634 C 0.9049 0.95753 0.29339 0.0
C635 C 0.86496 0.0029 0.28674 0.0
C636 C 0.9747 0.93591 0.30634 0.0
C637 C 0.958 0.94185 0.30669 0.0
C638 C 0.93418 0.98151 0.30417 0.0
C639 C 0.88462 0.98144 0.29599 0.0
C640 C 0.9025 0.97531 0.2977 0.0
C641 C 0.95447 0.9578 0.29999 0.0
C642 C 0.93656 0.96377 0.29967 0.0
H643 H 0.84226 0.96815 0.3022 0.0
H644 H 0.87178 0.95881 0.30646 0.0
H645 H 0.91593 0.00094 0.30691 0.0
H646 H 0.99474 0.96959 0.28687 0.0
H647 H 0.96565 0.98 0.28762 0.0
C648 C 0.34296 0.19673 0.54882 0.0
C649 C 0.34857 0.20976 0.56265 0.0
C650 C 0.33955 0.17922 0.55216 0.0
C651 C 0.34932 0.14757 0.5842 0.0
H652 H 0.30866 0.12038 0.55865 0.0
C653 C 0.30917 0.07337 0.57488 0.0
C654 C 0.32331 0.0632 0.57258 0.0
C655 C 0.31201 0.09166 0.57757 0.0
C656 C 0.31992 0.1278 0.56614 0.0
H657 H 0.35514 0.21461 0.59084 0.0
H658 H 0.34912 0.18393 0.59667 0.0
H659 H 0.31382 0.15155 0.55531 0.0
H660 H 0.35158 0.06398 0.57241 0.0
H661 H 0.35659 0.09602 0.57687 0.0
H662 H 0.35543 0.12367 0.59495 0.0
C663 C 0.34746 0.1873 0.58324 0.0
C664 C 0.32301 0.14564 0.56401 0.0
C665 C 0.35082 0.20487 0.5799 0.0
C666 C 0.34048 0.07154 0.57427 0.0
C667 C 0.34332 0.08989 0.57683 0.0
C668 C 0.34624 0.12964 0.58631 0.0
C669 C 0.3417 0.17431 0.5694 0.0
C670 C 0.33788 0.15566 0.57277 0.0
C671 C 0.32903 0.10017 0.57783 0.0
C672 C 0.33161 0.11951 0.57712 0.0
H673 H 0.34117 0.20003 0.53537 0.0
H674 H 0.3354 0.16948 0.54118 0.0
H675 H 0.36094 0.15495 0.59107 0.0
H676 H 0.29582 0.0672 0.57383 0.0
H677 H 0.30076 0.09918 0.57871 0.0
C678 C 0.30796 0.85397 0.99866 0.0
C679 C 0.29948 0.85215 0.01402 0.0
C680 C 0.31121 0.87051 0.99261 0.0
C681 C 0.29649 0.9152 0.99574 0.0
H682 H 0.33994 0.92717 0.97527 0.0
C683 C 0.33686 0.97865 0.96827 0.0
C684 C 0.32301 0.98504 0.95821 0.0
C685 C 0.3342 0.96289 0.97599 0.0
C686 C 0.32781 0.92413 0.98111 0.0
H687 H 0.28795 0.86631 0.0352 0.0
H688 H 0.29386 0.89519 0.02478 0.0
H689 H 0.33528 0.899 0.98738 0.0
H690 H 0.29539 0.98008 0.94875 0.0
H691 H 0.29087 0.95239 0.96181 0.0
H692 H 0.28915 0.94046 0.98974 0.0
C693 C 0.29775 0.8838 0.01725 0.0
C694 C 0.32504 0.90787 0.98786 0.0
C695 C 0.29445 0.86725 0.02328 0.0
C696 C 0.3064 0.97541 0.95623 0.0
C697 C 0.30375 0.95965 0.96391 0.0
C698 C 0.29927 0.93148 0.98902 0.0
C699 C 0.30611 0.88562 0.00181 0.0
C700 C 0.3093 0.90315 0.99515 0.0
C701 C 0.31764 0.95315 0.97381 0.0
C702 C 0.31492 0.93609 0.98152 0.0
H703 H 0.31194 0.8426 0.99118 0.0
H704 H 0.31745 0.87139 0.98053 0.0
H705 H 0.28414 0.91193 0.00111 0.0
H706 H 0.34986 0.98567 0.96994 0.0
H707 H 0.34513 0.95837 0.9837 0.0
C708 C 0.68643 0.27882 0.37285 0.0
C709 C 0.68977 0.27704 0.3551 0.0
C710 C 0.68122 0.29453 0.38038 0.0
C711 C 0.6829 0.34191 0.37398 0.0
H712 H 0.65402 0.34272 0.41306 0.0
C713 C 0.66817 0.40675 0.41203 0.0
C714 C 0.67115 0.40712 0.43044 0.0
C715 C 0.6678 0.39095 0.40136 0.0
C716 C 0.66208 0.34269 0.40214 0.0
H717 H 0.68947 0.29007 0.33109 0.0
H718 H 0.67984 0.31735 0.3441 0.0
H719 H 0.6574 0.31482 0.39655 0.0
H720 H 0.67594 0.39092 0.45194 0.0
H721 H 0.67459 0.36347 0.43342 0.0
H722 H 0.68752 0.36984 0.37964 0.0
C723 C 0.68171 0.30677 0.35235 0.0
C724 C 0.6641 0.3267 0.39271 0.0
C725 C 0.68713 0.29109 0.34486 0.0
C726 C 0.67325 0.3912 0.43788 0.0
C727 C 0.67254 0.37541 0.42725 0.0
C728 C 0.68066 0.35794 0.38326 0.0
C729 C 0.679 0.30882 0.37031 0.0
C730 C 0.67495 0.32602 0.37883 0.0
C731 C 0.67002 0.37513 0.40888 0.0
C732 C 0.67059 0.35844 0.39771 0.0
H733 H 0.68843 0.26827 0.38112 0.0
H734 H 0.67958 0.29566 0.3943 0.0
H735 H 0.69154 0.34194 0.36353 0.0
H736 H 0.66612 0.41866 0.40582 0.0
H737 H 0.6657 0.3911 0.38723 0.0
C738 C 0.64262 0.6305 0.98259 0.0
C739 C 0.63367 0.62871 0.96568 0.0
C740 C 0.65005 0.61623 0.98938 0.0
C741 C 0.64855 0.56765 0.98375 0.0
H742 H 0.69319 0.57645 0.01231 0.0
C743 C 0.70553 0.52901 0.02257 0.0
C744 C 0.69473 0.51713 0.03076 0.0
C745 C 0.69819 0.54125 0.01241 0.0
C746 C 0.68085 0.57365 0.00415 0.0
H747 H 0.62549 0.61052 0.94259 0.0
H748 H 0.6388 0.58567 0.9543 0.0
H749 H 0.68046 0.60053 0.99891 0.0
H750 H 0.66781 0.50823 0.0343 0.0
H751 H 0.6549 0.5299 0.01688 0.0
H752 H 0.64917 0.54065 0.98875 0.0
C753 C 0.63981 0.59804 0.96245 0.0
C754 C 0.6734 0.58756 0.99669 0.0
C755 C 0.63227 0.61231 0.9557 0.0
C756 C 0.6764 0.51718 0.02799 0.0
C757 C 0.66904 0.52958 0.01798 0.0
C758 C 0.65607 0.55368 0.99115 0.0
C759 C 0.64885 0.59985 0.97936 0.0
C760 C 0.65706 0.58479 0.98658 0.0
C761 C 0.67987 0.54204 0.01042 0.0
C762 C 0.67225 0.55655 0.00157 0.0
H763 H 0.64382 0.64293 0.99068 0.0
H764 H 0.65661 0.61802 0.00258 0.0
H765 H 0.63588 0.56507 0.97614 0.0
H766 H 0.71971 0.52907 0.02434 0.0
H767 H 0.70691 0.55035 0.00642 0.0
C768 C 0.62309 0.3557 0.20972 0.0
C769 C 0.6357 0.37015 0.20979 0.0
C770 C 0.61515 0.34707 0.19386 0.0
C771 C 0.62057 0.34032 0.14642 0.0
H772 H 0.57027 0.32741 0.14216 0.0
C773 C 0.58032 0.31783 0.07981 0.0
C774 C 0.56671 0.30427 0.07954 0.0
C775 C 0.58936 0.32512 0.09573 0.0
C776 C 0.58436 0.3307 0.1432 0.0
H777 H 0.64994 0.3868 0.19326 0.0
H778 H 0.63595 0.37183 0.16559 0.0
H779 H 0.58482 0.34156 0.16989 0.0
H780 H 0.55236 0.2873 0.09566 0.0
H781 H 0.56817 0.29997 0.12343 0.0
H782 H 0.62007 0.32953 0.11966 0.0
C783 C 0.63235 0.36705 0.1778 0.0
C784 C 0.5927 0.33883 0.1591 0.0
C785 C 0.64028 0.3757 0.19366 0.0
C786 C 0.56258 0.29793 0.09548 0.0
C787 C 0.57163 0.3052 0.11138 0.0
C788 C 0.61223 0.33217 0.13051 0.0
C789 C 0.61964 0.35269 0.17772 0.0
C790 C 0.61089 0.34377 0.16088 0.0
C791 C 0.585 0.31901 0.11171 0.0
C792 C 0.59401 0.32731 0.1287 0.0
H793 H 0.61932 0.35104 0.22192 0.0
H794 H 0.60557 0.3359 0.19425 0.0
H795 H 0.63465 0.34375 0.14745 0.0
H796 H 0.58366 0.32314 0.06776 0.0
H797 H 0.59944 0.33589 0.09555 0.0
C798 C 0.03543 0.29029 0.86903 0.0
C799 C 0.02459 0.29463 0.85462 0.0
C800 C 0.03143 0.29464 0.88621 0.0
C801 C 0.00514 0.3234 0.91263 0.0
H802 H 0.00829 0.28787 0.94553 0.0
C803 C 0.97032 0.32589 0.97628 0.0
C804 C 0.97906 0.32048 0.99147 0.0
C805 C 0.9775 0.32408 0.96018 0.0
C806 C 0.0076 0.29804 0.9366 0.0
H807 H 0.00117 0.30716 0.84697 0.0
H808 H 0.99409 0.31457 0.87689 0.0
H809 H 0.01787 0.28222 0.91626 0.0
H810 H 0.00234 0.30916 0.00172 0.0
H811 H 0.01501 0.30617 0.97358 0.0
H812 H 0.99457 0.33909 0.9329 0.0
C813 C 0.00582 0.30801 0.87494 0.0
C814 C 0.01309 0.29481 0.91982 0.0
C815 C 0.00981 0.30365 0.85777 0.0
C816 C 0.99535 0.31355 0.99027 0.0
C817 C 0.00251 0.31168 0.97413 0.0
C818 C -0.00036 0.32663 0.92941 0.0
C819 C 0.0165 0.30344 0.88936 0.0
C820 C 0.01172 0.30736 0.90756 0.0
C821 C 0.99359 0.31678 0.95888 0.0
C822 C 0.0006 0.3139 0.94151 0.0
H823 H 0.04695 0.28339 0.86705 0.0
H824 H 0.04004 0.29113 0.89704 0.0
H825 H 0.00421 0.33346 0.90361 0.0
H826 H 0.95784 0.33145 0.97683 0.0
H827 H 0.9702 0.32797 0.94865 0.0
C828 C 0.39414 0.73352 0.26967 0.0
C829 C 0.38182 0.74586 0.26733 0.0
C830 C 0.39443 0.72387 0.2843 0.0
C831 C 0.38284 0.72617 0.3297 0.0
H832 H 0.39388 0.67766 0.32659 0.0
C833 C 0.41581 0.69461 0.38753 0.0
C834 C 0.41141 0.67674 0.38935 0.0
C835 C 0.40841 0.70246 0.37328 0.0
C836 C 0.3905 0.69111 0.32769 0.0
H837 H 0.35985 0.75743 0.27832 0.0
H838 H 0.3604 0.74054 0.30392 0.0
H839 H 0.38782 0.69185 0.29975 0.0
H840 H 0.39526 0.65322 0.37808 0.0
H841 H 0.38219 0.66699 0.35307 0.0
H842 H 0.38582 0.72552 0.35764 0.0
C843 C 0.36989 0.73844 0.29446 0.0
C844 C 0.38723 0.6993 0.31231 0.0
C845 C 0.36954 0.74806 0.27976 0.0
C846 C 0.39885 0.66703 0.37702 0.0
C847 C 0.39149 0.67488 0.36265 0.0
C848 C 0.38615 0.718 0.34508 0.0
C849 C 0.38245 0.72636 0.29697 0.0
C850 C 0.38378 0.71704 0.31316 0.0
C851 C 0.39646 0.6926 0.36046 0.0
C852 C 0.39044 0.7005 0.34425 0.0
H853 H 0.40377 0.73151 0.26034 0.0
H854 H 0.40443 0.71484 0.28597 0.0
H855 H 0.3803 0.73989 0.3308 0.0
H856 H 0.4253 0.70246 0.39697 0.0
H857 H 0.41266 0.71607 0.37191 0.0
C858 C 0.92996 0.64391 0.62214 0.0
C859 C 0.93708 0.64304 0.63951 0.0
C860 C 0.93962 0.65272 0.61036 0.0
C861 C 0.9788 0.68454 0.60845 0.0
H862 H 0.97717 0.66345 0.56044 0.0
C863 C 0.03154 0.7016 0.56202 0.0
C864 C 0.02574 0.70467 0.54474 0.0
C865 C 0.01966 0.69527 0.5733 0.0
C866 C 0.97758 0.66959 0.57375 0.0
H867 H 0.95988 0.65075 0.65819 0.0
H868 H 0.97691 0.66563 0.6376 0.0
H869 H 0.95836 0.65021 0.58076 0.0
H870 H 0.00278 0.70355 0.52588 0.0
H871 H 0.9821 0.69199 0.54554 0.0
H872 H 0.99852 0.70355 0.60151 0.0
C873 C 0.9637 0.65993 0.63311 0.0
C874 C 0.96678 0.66206 0.5854 0.0
C875 C 0.95398 0.65128 0.64492 0.0
C876 C 0.00775 0.70113 0.53901 0.0
C877 C 0.99589 0.69458 0.55026 0.0
C878 C 0.98973 0.69194 0.59686 0.0
C879 C 0.95669 0.6607 0.61566 0.0
C880 C 0.96739 0.66933 0.60296 0.0
C881 C 0.00174 0.69164 0.56753 0.0
C882 C 0.98935 0.68444 0.57946 0.0
H883 H 0.91692 0.63777 0.61761 0.0
H884 H 0.93369 0.65328 0.59712 0.0
H885 H 0.97935 0.69073 0.62175 0.0
H886 H 0.04533 0.70376 0.56678 0.0
H887 H 0.02457 0.69284 0.58646 0.0
C888 C 0.76144 0.33293 0.65079 0.0
C889 C 0.75081 0.34169 0.66202 0.0
C890 C 0.77973 0.33637 0.65311 0.0
C891 C 0.81485 0.36987 0.67384 0.0
H892 H 0.84494 0.33267 0.66453 0.0
C893 C 0.89049 0.38041 0.68739 0.0
C894 C 0.90005 0.37415 0.67369 0.0
C895 C 0.87239 0.37585 0.68689 0.0
C896 C 0.83668 0.34319 0.66709 0.0
H897 H 0.75103 0.36064 0.68474 0.0
H898 H 0.78294 0.36632 0.68908 0.0
H899 H 0.81313 0.32575 0.66224 0.0
H900 H 0.89798 0.3581 0.64872 0.0
H901 H 0.8665 0.34989 0.64806 0.0
H902 H 0.83849 0.38726 0.67882 0.0
C903 C 0.77716 0.35709 0.67822 0.0
C904 C 0.81845 0.33926 0.66572 0.0
C905 C 0.75886 0.35375 0.6758 0.0
C906 C 0.89112 0.36293 0.65965 0.0
C907 C 0.87306 0.35825 0.65923 0.0
C908 C 0.83309 0.37376 0.67535 0.0
C909 C 0.78783 0.34855 0.66681 0.0
C910 C 0.80728 0.35258 0.66894 0.0
C911 C 0.86349 0.3648 0.67276 0.0
C912 C 0.84418 0.36049 0.67186 0.0
H913 H 0.75564 0.32364 0.63998 0.0
H914 H 0.78747 0.32976 0.64389 0.0
H915 H 0.80668 0.38053 0.67611 0.0
H916 H 0.89698 0.38882 0.69856 0.0
H917 H 0.86537 0.38091 0.6976 0.0
C918 C 0.71149 0.68558 0.24822 0.0
C919 C 0.72883 0.68084 0.2495 0.0
C920 C 0.70021 0.68135 0.26093 0.0
C921 C 0.69306 0.64876 0.29217 0.0
H922 H 0.66042 0.68 0.31051 0.0
C923 C 0.64495 0.62536 0.34028 0.0
C924 C 0.62754 0.62946 0.33706 0.0
C925 C 0.65842 0.63381 0.33209 0.0
C926 C 0.66937 0.67108 0.30542 0.0
H927 H 0.74811 0.66846 0.26543 0.0
H928 H 0.72838 0.66102 0.28754 0.0
H929 H 0.68188 0.69076 0.29119 0.0
H930 H 0.61067 0.64612 0.32333 0.0
H931 H 0.63409 0.66063 0.30873 0.0
H932 H 0.6803 0.62889 0.30571 0.0
C933 C 0.7235 0.66791 0.27665 0.0
C934 C 0.68167 0.67726 0.29439 0.0
C935 C 0.73481 0.67225 0.26402 0.0
C936 C 0.624 0.64278 0.32615 0.0
C937 C 0.63745 0.65112 0.3178 0.0
C938 C 0.68071 0.64255 0.30304 0.0
C939 C 0.70601 0.67218 0.27509 0.0
C940 C 0.69357 0.66612 0.28758 0.0
C941 C 0.65476 0.64641 0.32032 0.0
C942 C 0.66863 0.65357 0.30973 0.0
H943 H 0.7065 0.69224 0.2372 0.0
H944 H 0.68676 0.68468 0.2593 0.0
H945 H 0.70185 0.63977 0.28687 0.0
H946 H 0.64808 0.61534 0.34887 0.0
H947 H 0.67167 0.63017 0.33469 0.0
C948 C 0.33659 0.09769 0.33277 0.0
C949 C 0.31944 0.08997 0.32753 0.0
C950 C 0.35095 0.09125 0.32516 0.0
C951 C 0.36432 0.05117 0.30215 0.0
H952 H 0.40351 0.08227 0.29084 0.0
C953 C 0.42153 0.02451 0.26766 0.0
C954 C 0.43858 0.03148 0.27435 0.0
C955 C 0.40687 0.0324 0.27295 0.0
C956 C 0.39273 0.07342 0.29406 0.0
H957 H 0.30387 0.06968 0.30993 0.0
H958 H 0.32892 0.05854 0.29657 0.0
H959 H 0.37803 0.09469 0.30226 0.0
H960 H 0.45365 0.05236 0.29158 0.0
H961 H 0.42801 0.06614 0.30091 0.0
H962 H 0.37902 0.02991 0.29417 0.0
C963 C 0.33128 0.06943 0.30672 0.0
C964 C 0.37814 0.08053 0.3006 0.0
C965 C 0.31692 0.07588 0.31431 0.0
C966 C 0.44067 0.04679 0.28608 0.0
C967 C 0.42599 0.05468 0.2914 0.0
C968 C 0.37888 0.04408 0.29563 0.0
C969 C 0.34847 0.07693 0.31218 0.0
C970 C 0.36379 0.06948 0.30476 0.0
C971 C 0.40891 0.04743 0.28507 0.0
C972 C 0.39328 0.05511 0.29155 0.0
H973 H 0.33897 0.10856 0.34294 0.0
H974 H 0.36404 0.09719 0.32979 0.0
H975 H 0.35362 0.0423 0.30552 0.0
H976 H 0.41951 0.01291 0.25835 0.0
H977 H 0.3939 0.0267 0.26757 0.0
C978 C 0.15407 0.02771 0.72186 0.0
C979 C 0.15923 0.01133 0.71574 0.0
C980 C 0.13638 0.02987 0.72352 0.0
C981 C 0.09311 0.00478 0.72613 0.0
H982 H 0.07566 0.04941 0.71695 0.0
C983 C 0.01939 0.01863 0.724 0.0
C984 C 0.01614 0.03425 0.73372 0.0
C985 C 0.03663 0.01494 0.72157 0.0
C986 C 0.08039 0.0369 0.71962 0.0
H987 H 0.14987 0.98439 0.70635 0.0
H988 H 0.1189 0.98828 0.70869 0.0
H989 H 0.10601 0.04469 0.71246 0.0
H990 H 0.02863 0.05778 0.74922 0.0
H991 H 0.05853 0.05157 0.74447 0.0
H992 H 0.06719 0.997 0.73294 0.0
C993 C 0.12855 0.99937 0.71264 0.0
C994 C 0.09781 0.0342 0.71715 0.0
C995 C 0.1463 0.99716 0.71119 0.0
C996 C 0.03056 0.04586 0.74125 0.0
C997 C 0.04772 0.04229 0.73862 0.0
C998 C 0.07559 0.00742 0.72838 0.0
C999 C 0.12336 0.01576 0.71886 0.0
C1000 C 0.1045 0.01821 0.72062 0.0
C1001 C 0.05092 0.02689 0.72863 0.0
C1002 C 0.06916 0.0236 0.72538 0.0
H1003 H 0.16373 0.03885 0.72563 0.0
H1004 H 0.13298 0.04259 0.72872 0.0
H1005 H 0.09783 0.99238 0.72915 0.0
H1006 H 0.00863 0.00946 0.71787 0.0
H1007 H 0.03877 0.00299 0.71375 0.0
C1008 C 0.63556 0.77529 0.33311 0.0
C1009 C 0.64704 0.76548 0.34265 0.0
C1010 C 0.63636 0.79354 0.33664 0.0
C1011 C 0.65226 0.82924 0.37149 0.0
H1012 H 0.64301 0.85926 0.33421 0.0
C1013 C 0.65955 0.90492 0.38362 0.0
C1014 C 0.64548 0.91354 0.37654 0.0
C1015 C 0.66064 0.88708 0.37886 0.0
C1016 C 0.64552 0.85101 0.34475 0.0
H1017 H 0.6687 0.76718 0.36304 0.0
H1018 H 0.67042 0.79905 0.3689 0.0
H1019 H 0.64369 0.82771 0.32696 0.0
H1020 H 0.62163 0.9101 0.3587 0.0
H1021 H 0.62374 0.87901 0.35016 0.0
H1022 H 0.65422 0.8526 0.38924 0.0
C1023 C 0.6605 0.79262 0.35897 0.0
C1024 C 0.64587 0.83293 0.34063 0.0
C1025 C 0.65959 0.77435 0.35554 0.0
C1026 C 0.63275 0.90396 0.36424 0.0
C1027 C 0.63394 0.88614 0.35937 0.0
C1028 C 0.65206 0.84732 0.37559 0.0
C1029 C 0.64876 0.80244 0.3497 0.0
C1030 C 0.64911 0.82179 0.35396 0.0
C1031 C 0.64779 0.87748 0.36677 0.0
C1032 C 0.64857 0.85838 0.36228 0.0
H1033 H 0.62567 0.76884 0.32315 0.0
H1034 H 0.62694 0.8006 0.32942 0.0
H1035 H 0.65447 0.82106 0.38214 0.0
H1036 H 0.66978 0.91197 0.39283 0.0
H1037 H 0.6716 0.88081 0.38458 0.0
C1038 C 0.73612 0.14153 0.97339 0.0
C1039 C 0.73223 0.15653 0.98365 0.0
C1040 C 0.73377 0.1249 0.97946 0.0
C1041 C 0.72986 0.10276 0.01998 0.0
H1042 H 0.70851 0.0633 0.98794 0.0
C1043 C 0.7079 0.03571 0.04386 0.0
C1044 C 0.71113 0.02052 0.03349 0.0
C1045 C 0.71064 0.05228 0.03774 0.0
C1046 C 0.71468 0.07414 0.99701 0.0
H1047 H 0.72287 0.16585 0.00836 0.0
H1048 H 0.71867 0.13683 0.0189 0.0
H1049 H 0.71311 0.09227 0.97734 0.0
H1050 H 0.72001 0.01081 0.0087 0.0
H1051 H 0.72486 0.03973 0.99804 0.0
H1052 H 0.73146 0.08464 0.03964 0.0
C1053 C 0.72371 0.13794 0.00623 0.0
C1054 C 0.71731 0.09074 0.99093 0.0
C1055 C 0.72602 0.15456 0.00014 0.0
C1056 C 0.71716 0.02225 0.01688 0.0
C1057 C 0.71993 0.03882 0.01078 0.0
C1058 C 0.72726 0.08616 0.02605 0.0
C1059 C 0.72752 0.12292 0.99595 0.0
C1060 C 0.7249 0.10524 0.00236 0.0
C1061 C 0.7167 0.05403 0.02114 0.0
C1062 C 0.7196 0.07166 0.01464 0.0
H1063 H 0.74097 0.1426 0.96063 0.0
H1064 H 0.73703 0.11361 0.97132 0.0
H1065 H 0.73598 0.11362 0.02904 0.0
H1066 H 0.70299 0.03478 0.0566 0.0
H1067 H 0.70775 0.0637 0.04593 0.0
C1068 C 0.2667 0.7132 0.68545 0.0
C1069 C 0.26827 0.72967 0.67868 0.0
C1070 C 0.27744 0.7002 0.68037 0.0
C1071 C 0.30242 0.68615 0.64393 0.0
H1072 H 0.32256 0.65581 0.67662 0.0
C1073 C 0.34326 0.63112 0.61995 0.0
C1074 C 0.3394 0.61471 0.62627 0.0
C1075 C 0.33718 0.64624 0.62787 0.0
C1076 C 0.31694 0.6641 0.66731 0.0
H1077 H 0.28263 0.74554 0.66157 0.0
H1078 H 0.30133 0.72283 0.65269 0.0
H1079 H 0.3067 0.68017 0.68757 0.0
H1080 H 0.32673 0.60136 0.64626 0.0
H1081 H 0.31592 0.62766 0.65996 0.0
H1082 H 0.31209 0.66988 0.6236 0.0
C1083 C 0.29171 0.71995 0.66183 0.0
C1084 C 0.30787 0.67806 0.67359 0.0
C1085 C 0.28104 0.73298 0.66699 0.0
C1086 C 0.33003 0.61385 0.64118 0.0
C1087 C 0.32386 0.62895 0.64904 0.0
C1088 C 0.31137 0.67217 0.63764 0.0
C1089 C 0.28991 0.70336 0.66833 0.0
C1090 C 0.30039 0.68914 0.66193 0.0
C1091 C 0.327 0.64527 0.64222 0.0
C1092 C 0.31862 0.66087 0.64922 0.0
H1093 H 0.257 0.71025 0.69449 0.0
H1094 H 0.27562 0.6875 0.68546 0.0
H1095 H 0.29657 0.69427 0.63458 0.0
H1096 H 0.35074 0.63221 0.60867 0.0
H1097 H 0.34019 0.65866 0.62253 0.0
C1098 C 0.30974 0.37603 0.06384 0.0
C1099 C 0.30016 0.35943 0.06066 0.0
C1100 C 0.30569 0.38963 0.05359 0.0
C1101 C 0.28333 0.39649 0.01027 0.0
H1102 H 0.28975 0.44563 0.02851 0.0
C1103 C 0.26655 0.45018 0.96623 0.0
C1104 C 0.2804 0.46328 0.96546 0.0
C1105 C 0.26695 0.4391 0.97973 0.0
C1106 C 0.28791 0.43195 0.02328 0.0
H1107 H 0.27832 0.34427 0.04485 0.0
H1108 H 0.27084 0.36809 0.02742 0.0
H1109 H 0.29401 0.42286 0.04852 0.0
H1110 H 0.30487 0.47585 0.97893 0.0
H1111 H 0.30545 0.45653 0.00271 0.0
H1112 H 0.2772 0.40556 0.98509 0.0
C1113 C 0.28187 0.37052 0.0374 0.0
C1114 C 0.29043 0.4189 0.03469 0.0
C1115 C 0.28608 0.35686 0.04746 0.0
C1116 C 0.29398 0.46593 0.97922 0.0
C1117 C 0.29433 0.45486 0.99281 0.0
C1118 C 0.28063 0.40949 0.99896 0.0
C1119 C 0.29183 0.38698 0.04009 0.0
C1120 C 0.2883 0.40099 0.02829 0.0
C1121 C 0.28113 0.44094 0.99282 0.0
C1122 C 0.283 0.42735 0.0053 0.0
H1123 H 0.32071 0.37839 0.0739 0.0
H1124 H 0.31381 0.40202 0.05592 0.0
H1125 H 0.28199 0.38292 0.00474 0.0
H1126 H 0.25571 0.44807 0.95602 0.0
H1127 H 0.25644 0.42868 0.97961 0.0
C1128 C 0.33544 0.64664 0.78505 0.0
C1129 C 0.3457 0.65762 0.77535 0.0
C1130 C 0.33674 0.64929 0.80339 0.0
C1131 C 0.35036 0.68235 0.84079 0.0
H1132 H 0.35692 0.64206 0.86708 0.0
C1133 C 0.37465 0.68948 0.91454 0.0
C1134 C 0.3685 0.67666 0.92517 0.0
C1135 C 0.37011 0.68758 0.8964 0.0
C1136 C 0.35477 0.65342 0.86 0.0
H1137 H 0.36509 0.68021 0.77725 0.0
H1138 H 0.36724 0.68489 0.80928 0.0
H1139 H 0.35213 0.63797 0.83513 0.0
H1140 H 0.35231 0.65199 0.92501 0.0
H1141 H 0.34385 0.64901 0.8935 0.0
H1142 H 0.35292 0.69783 0.8656 0.0
C1143 C 0.35819 0.67426 0.80268 0.0
C1144 C 0.35208 0.65106 0.84167 0.0
C1145 C 0.35703 0.6715 0.78435 0.0
C1146 C 0.35719 0.6622 0.91727 0.0
C1147 C 0.35253 0.66036 0.89914 0.0
C1148 C 0.35288 0.6847 0.85913 0.0
C1149 C 0.34817 0.66309 0.81239 0.0
C1150 C 0.35005 0.66552 0.83187 0.0
C1151 C 0.35917 0.67288 0.88843 0.0
C1152 C 0.35533 0.67029 0.86897 0.0
H1153 H 0.32658 0.63583 0.7785 0.0
H1154 H 0.32876 0.64056 0.81055 0.0
H1155 H 0.34861 0.6937 0.83356 0.0
H1156 H 0.38316 0.70094 0.92021 0.0
H1157 H 0.37562 0.69741 0.88859 0.0
C1158 C 0.02456 0.69972 0.1384 0.0
C1159 C 0.00695 0.69597 0.14163 0.0
C1160 C 0.02927 0.69941 0.1212 0.0
C1161 C 0.01031 0.70073 0.07507 0.0
H1162 H 0.05601 0.68683 0.06461 0.0
C1163 C 0.03314 0.69257 0.0047 0.0
C1164 C 0.04938 0.70198 0.00283 0.0
C1165 C 0.02742 0.69093 0.02135 0.0
C1166 C 0.04322 0.69076 0.06739 0.0
H1167 H 0.98049 0.68858 0.12941 0.0
H1168 H 0.98877 0.68735 0.09938 0.0
H1169 H 0.04689 0.68495 0.09411 0.0
H1170 H 0.07207 0.71735 0.01722 0.0
H1171 H 0.06235 0.71381 0.0462 0.0
H1172 H 0.00663 0.70612 0.04808 0.0
C1173 C 0.99891 0.69105 0.11009 0.0
C1174 C 0.03801 0.6898 0.0843 0.0
C1175 C 0.99417 0.69164 0.12731 0.0
C1176 C 0.05972 0.70963 0.01808 0.0
C1177 C 0.05413 0.70771 0.03471 0.0
C1178 C 0.01543 0.70139 0.05806 0.0
C1179 C 0.01652 0.69506 0.10679 0.0
C1180 C 0.0216 0.69505 0.08846 0.0
C1181 C 0.03792 0.69839 0.03649 0.0
C1182 C 0.03202 0.69665 0.05416 0.0
H1183 H 0.03469 0.70326 0.14916 0.0
H1184 H 0.04289 0.70295 0.11925 0.0
H1185 H 0.9977 0.70514 0.07778 0.0
H1186 H 0.02493 0.68627 0.99331 0.0
H1187 H 0.0149 0.68358 0.02244 0.0
C1188 C 0.66306 0.29039 0.72705 0.0
C1189 C 0.66628 0.27259 0.72674 0.0
C1190 C 0.65879 0.29782 0.7114 0.0
C1191 C 0.63627 0.28618 0.66849 0.0
H1192 H 0.65958 0.32901 0.6546 0.0
C1193 C 0.61493 0.31147 0.60255 0.0
C1194 C 0.61507 0.32968 0.6018 0.0
C1195 C 0.62279 0.30472 0.61729 0.0
C1196 C 0.65276 0.31717 0.65839 0.0
H1197 H 0.66788 0.24872 0.70981 0.0
H1198 H 0.65989 0.26162 0.68252 0.0
H1199 H 0.67056 0.31711 0.6816 0.0
H1200 H 0.62375 0.35519 0.61563 0.0
H1201 H 0.63685 0.34347 0.64177 0.0
H1202 H 0.61796 0.28645 0.64601 0.0
C1203 C 0.66089 0.26981 0.69487 0.0
C1204 C 0.65914 0.31034 0.67378 0.0
C1205 C 0.66549 0.26247 0.71047 0.0
C1206 C 0.62347 0.34107 0.61593 0.0
C1207 C 0.63108 0.33432 0.63084 0.0
C1208 C 0.6297 0.29314 0.65333 0.0
C1209 C 0.65734 0.28748 0.69523 0.0
C1210 C 0.65097 0.29474 0.67888 0.0
C1211 C 0.63067 0.31602 0.63179 0.0
C1212 C 0.63789 0.30868 0.64799 0.0
H1213 H 0.66365 0.29851 0.7394 0.0
H1214 H 0.65599 0.31146 0.71197 0.0
H1215 H 0.62959 0.27427 0.67234 0.0
H1216 H 0.60886 0.30242 0.59165 0.0
H1217 H 0.62266 0.29059 0.61725 0.0
C1218 C 0.04467 0.30434 0.38357 0.0
C1219 C 0.05743 0.3187 0.38783 0.0
C1220 C 0.03547 0.29724 0.39662 0.0
C1221 C 0.02073 0.30952 0.43963 0.0
H1222 H 0.00705 0.25949 0.4381 0.0
C1223 C 0.97325 0.25602 0.47454 0.0
C1224 C 0.95768 0.26443 0.47322 0.0
C1225 C 0.98836 0.26321 0.46781 0.0
C1226 C 0.01099 0.27347 0.43895 0.0
H1227 H 0.07089 0.33656 0.40922 0.0
H1228 H 0.05472 0.32413 0.43205 0.0
H1229 H 0.02856 0.27017 0.41895 0.0
H1230 H 0.94604 0.28752 0.46501 0.0
H1231 H 0.9723 0.29999 0.45315 0.0
H1232 H 0.00284 0.31284 0.45935 0.0
C1233 C 0.05181 0.31846 0.41857 0.0
C1234 C 0.02316 0.27959 0.42783 0.0
C1235 C 0.0611 0.32553 0.40551 0.0
C1236 C 0.95782 0.28067 0.46603 0.0
C1237 C 0.97292 0.28789 0.45939 0.0
C1238 C 0.00851 0.30339 0.45072 0.0
C1239 C 0.03876 0.30436 0.41423 0.0
C1240 C 0.0278 0.29771 0.42771 0.0
C1241 C 0.98821 0.279 0.45975 0.0
C1242 C 0.00317 0.28534 0.45017 0.0
H1243 H 0.04154 0.29877 0.37008 0.0
H1244 H 0.02533 0.28653 0.39281 0.0
H1245 H 0.02398 0.32356 0.43979 0.0
H1246 H 0.97349 0.24345 0.47997 0.0
H1247 H 1e-05 0.25616 0.46843 0.0
C1248 C 0.2947 0.56474 0.43031 0.0
C1249 C 0.30332 0.57841 0.42232 0.0
C1250 C 0.29949 0.56223 0.44788 0.0
C1251 C 0.33493 0.57462 0.48428 0.0
H1252 H 0.29767 0.56423 0.51397 0.0
C1253 C 0.32284 0.58243 0.56216 0.0
C1254 C 0.33848 0.57674 0.56967 0.0
C1255 C 0.31859 0.58027 0.54399 0.0
C1256 C 0.30824 0.56719 0.50587 0.0
H1257 H 0.32309 0.60068 0.42667 0.0
H1258 H 0.33146 0.59637 0.45718 0.0
H1259 H 0.29049 0.56523 0.48255 0.0
H1260 H 0.36177 0.56397 0.56396 0.0
H1261 H 0.35416 0.55982 0.5322 0.0
H1262 H 0.35257 0.57742 0.50772 0.0
C1263 C 0.32144 0.58716 0.44979 0.0
C1264 C 0.30414 0.56754 0.4878 0.0
C1265 C 0.3167 0.5896 0.43224 0.0
C1266 C 0.34958 0.56844 0.55859 0.0
C1267 C 0.3453 0.56622 0.54038 0.0
C1268 C 0.33901 0.57436 0.50236 0.0
C1269 C 0.31287 0.57348 0.45786 0.0
C1270 C 0.3174 0.57156 0.47682 0.0
C1271 C 0.32982 0.57226 0.53284 0.0
C1272 C 0.32568 0.57094 0.51343 0.0
H1273 H 0.28429 0.55596 0.42296 0.0
H1274 H 0.29271 0.55148 0.45362 0.0
H1275 H 0.34551 0.57748 0.47617 0.0
H1276 H 0.31384 0.58861 0.57032 0.0
H1277 H 0.30667 0.58527 0.53866 0.0
C1278 C 0.2254 0.396 0.77397 0.0
C1279 C 0.2275 0.37797 0.77127 0.0
C1280 C 0.23276 0.40592 0.78937 0.0
C1281 C 0.24906 0.4015 0.83529 0.0
H1282 H 0.26853 0.44969 0.83392 0.0
C1283 C 0.28168 0.44372 0.89735 0.0
C1284 C 0.27653 0.46084 0.89992 0.0
C1285 C 0.27721 0.43357 0.88132 0.0
C1286 C 0.26305 0.4363 0.8345 0.0
H1287 H 0.23923 0.35626 0.78258 0.0
H1288 H 0.25229 0.37364 0.80942 0.0
H1289 H 0.25813 0.43186 0.80651 0.0
H1290 H 0.26284 0.48081 0.88754 0.0
H1291 H 0.25517 0.46315 0.85949 0.0
H1292 H 0.25393 0.40599 0.8633 0.0
C1293 C 0.24471 0.38005 0.79969 0.0
C1294 C 0.25706 0.42606 0.81883 0.0
C1295 C 0.23729 0.3701 0.78428 0.0
C1296 C 0.2672 0.46776 0.88592 0.0
C1297 C 0.26279 0.45763 0.86986 0.0
C1298 C 0.25512 0.41172 0.85095 0.0
C1299 C 0.24247 0.39806 0.80245 0.0
C1300 C 0.24981 0.40861 0.81904 0.0
C1301 C 0.26757 0.44036 0.86745 0.0
C1302 C 0.26201 0.42927 0.85075 0.0
H1303 H 0.21789 0.4025 0.76425 0.0
H1304 H 0.23052 0.41967 0.79117 0.0
H1305 H 0.24333 0.38821 0.83595 0.0
H1306 H 0.28918 0.43812 0.90775 0.0
H1307 H 0.28132 0.42041 0.87976 0.0
C1308 C 0.70523 0.00679 0.5577 0.0
C1309 C 0.70465 0.99308 0.56874 0.0
C1310 C 0.69782 0.00393 0.54025 0.0
C1311 C 0.68375 0.96744 0.50547 0.0
H1312 H 0.66167 0.0035 0.48148 0.0
C1313 C 0.64577 0.95204 0.43759 0.0
C1314 C 0.65079 0.96281 0.42458 0.0
C1315 C 0.65127 0.95689 0.45528 0.0
C1316 C 0.66789 0.99337 0.48803 0.0
H1317 H 0.69513 0.96588 0.57041 0.0
H1318 H 0.68169 0.96105 0.5403 0.0
H1319 H 0.67303 0.00958 0.51242 0.0
H1320 H 0.66477 0.98762 0.42013 0.0
H1321 H 0.67412 0.99625 0.45127 0.0
H1322 H 0.67831 0.95115 0.48121 0.0
C1323 C 0.68839 0.97386 0.54483 0.0
C1324 C 0.67446 0.99684 0.50573 0.0
C1325 C 0.696 0.97665 0.56216 0.0
C1326 C 0.66063 0.97905 0.42982 0.0
C1327 C 0.66601 0.98399 0.44762 0.0
C1328 C 0.67701 0.96392 0.48793 0.0
C1329 C 0.68948 0.98735 0.53352 0.0
C1330 C 0.68242 0.98387 0.5147 0.0
C1331 C 0.66175 0.97271 0.46044 0.0
C1332 C 0.66896 0.9768 0.47904 0.0
H1333 H 0.71185 0.0196 0.56238 0.0
H1334 H 0.69909 0.01458 0.53192 0.0
H1335 H 0.69022 0.95728 0.51173 0.0
H1336 H 0.63779 0.93968 0.43407 0.0
H1337 H 0.64752 0.94811 0.46494 0.0
C1338 C 0.77148 0.98078 0.21762 0.0
C1339 C 0.76337 0.99262 0.22855 0.0
C1340 C 0.76519 0.97691 0.19993 0.0
C1341 C 0.72705 0.9815 0.16751 0.0
H1342 H 0.76188 0.97762 0.13399 0.0
C1343 C 0.73377 0.98974 0.08972 0.0
C1344 C 0.71755 0.98128 0.08216 0.0
C1345 C 0.73924 0.98869 0.10739 0.0
C1346 C 0.75197 0.97875 0.14315 0.0
H1347 H 0.74274 0.01018 0.22945 0.0
H1348 H 0.73187 0.00366 0.19861 0.0
H1349 H 0.77122 0.98087 0.16526 0.0
H1350 H 0.69459 0.96458 0.08719 0.0
H1351 H 0.70439 0.96227 0.11799 0.0
H1352 H 0.7079 0.98036 0.14534 0.0
C1353 C 0.74267 0.99682 0.20376 0.0
C1354 C 0.7573 0.98036 0.16114 0.0
C1355 C 0.74887 0.00054 0.22148 0.0
C1356 C 0.7072 0.9712 0.09258 0.0
C1357 C 0.71272 0.97005 0.11029 0.0
C1358 C 0.72172 0.98004 0.1495 0.0
C1359 C 0.75083 0.98505 0.1927 0.0
C1360 C 0.74495 0.982 0.17357 0.0
C1361 C 0.72871 0.97899 0.11798 0.0
C1362 C 0.73415 0.97892 0.13709 0.0
H1363 H 0.78271 0.9745 0.22276 0.0
H1364 H 0.77165 0.96759 0.19191 0.0
H1365 H 0.71712 0.98245 0.17668 0.0
H1366 H 0.74223 0.99738 0.08201 0.0
H1367 H 0.75152 0.99592 0.11285 0.0
C1368 C 0.42124 0.30801 0.54821 0.0
C1369 C 0.41494 0.2908 0.55091 0.0
C1370 C 0.43923 0.31247 0.54753 0.0
C1371 C 0.48228 0.29781 0.5618 0.0
H1372 H 0.50008 0.32982 0.52959 0.0
C1373 C 0.55637 0.3126 0.5585 0.0
C1374 C 0.56254 0.3304 0.55865 0.0
C1375 C 0.53843 0.30723 0.55527 0.0
C1376 C 0.49529 0.32095 0.53872 0.0
H1377 H 0.42239 0.26455 0.55413 0.0
H1378 H 0.45371 0.27223 0.5527 0.0
H1379 H 0.46846 0.32153 0.52849 0.0
H1380 H 0.55484 0.35644 0.5548 0.0
H1381 H 0.52345 0.34709 0.54922 0.0
H1382 H 0.50896 0.29733 0.5722 0.0
C1383 C 0.44484 0.28242 0.55155 0.0
C1384 C 0.47719 0.31622 0.53811 0.0
C1385 C 0.42689 0.27799 0.55225 0.0
C1386 C 0.55048 0.34261 0.55463 0.0
C1387 C 0.5325 0.33724 0.55144 0.0
C1388 C 0.50032 0.30251 0.5624 0.0
C1389 C 0.45127 0.29977 0.54942 0.0
C1390 C 0.47048 0.30462 0.54968 0.0
C1391 C 0.52624 0.31956 0.55217 0.0
C1392 C 0.50705 0.31415 0.5509 0.0
H1393 H 0.41231 0.318 0.54638 0.0
H1394 H 0.44374 0.32595 0.54585 0.0
H1395 H 0.47755 0.28912 0.57113 0.0
H1396 H 0.56539 0.30285 0.56125 0.0
H1397 H 0.53407 0.29345 0.55554 0.0
C1398 C 0.22589 0.77248 0.00463 0.0
C1399 C 0.23971 0.76215 0.00874 0.0
C1400 C 0.2097 0.76471 0.99664 0.0
C1401 C 0.18076 0.725 0.99413 0.0
H1402 H 0.15701 0.74222 0.95325 0.0
C1403 C 0.10988 0.69787 0.97018 0.0
C1404 C 0.09853 0.71023 0.96492 0.0
C1405 C 0.12808 0.70216 0.97204 0.0
C1406 C 0.16334 0.73734 0.96477 0.0
H1407 H 0.24765 0.73565 0.00602 0.0
H1408 H 0.21898 0.72196 0.99322 0.0
H1409 H 0.187 0.75419 0.96368 0.0
H1410 H 0.09711 0.73648 0.95694 0.0
H1411 H 0.12871 0.74432 0.96083 0.0
H1412 H 0.15698 0.70903 0.99613 0.0
C1413 C 0.22076 0.73608 0.99642 0.0
C1414 C 0.18056 0.74414 0.97065 0.0
C1415 C 0.23709 0.74391 0.0041 0.0
C1416 C 0.10566 0.72665 0.96079 0.0
C1417 C 0.12382 0.73109 0.96299 0.0
C1418 C 0.16344 0.71845 0.9885 0.0
C1419 C 0.2069 0.74642 0.99272 0.0
C1420 C 0.18932 0.73817 0.9855 0.0
C1421 C 0.13529 0.71907 0.96911 0.0
C1422 C 0.15436 0.7247 0.97388 0.0
H1423 H 0.22748 0.7866 0.00785 0.0
H1424 H 0.19918 0.77296 0.99397 0.0
H1425 H 0.1872 0.72032 0.00573 0.0
H1426 H 0.10463 0.6851 0.9734 0.0
H1427 H 0.13644 0.69236 0.97629 0.0
C1428 C 0.77816 0.24243 0.36457 0.0
C1429 C 0.76896 0.22561 0.36279 0.0
C1430 C 0.79476 0.24545 0.37403 0.0
C1431 C 0.83192 0.22257 0.39252 0.0
H1432 H 0.83969 0.26335 0.4268 0.0
C1433 C 0.88448 0.22765 0.4514 0.0
C1434 C 0.89453 0.24386 0.45592 0.0
C1435 C 0.87009 0.22619 0.43872 0.0
C1436 C 0.83783 0.25204 0.41713 0.0
H1437 H 0.77028 0.19863 0.36901 0.0
H1438 H 0.79898 0.20391 0.38551 0.0
H1439 H 0.81325 0.25954 0.40623 0.0
H1440 H 0.89722 0.27131 0.45089 0.0
H1441 H 0.87208 0.26874 0.42866 0.0
H1442 H 0.8563 0.21486 0.40371 0.0
C1443 C 0.79351 0.21476 0.37951 0.0
C1444 C 0.82271 0.24987 0.40531 0.0
C1445 C 0.77697 0.21177 0.37013 0.0
C1446 C 0.8898 0.25862 0.44757 0.0
C1447 C 0.87534 0.25718 0.43495 0.0
C1448 C 0.847 0.22471 0.40437 0.0
C1449 C 0.80251 0.23168 0.3818 0.0
C1450 C 0.81943 0.23495 0.39307 0.0
C1451 C 0.86538 0.24093 0.43034 0.0
C1452 C 0.84997 0.23931 0.41699 0.0
H1453 H 0.77237 0.25337 0.35905 0.0
H1454 H 0.80145 0.25859 0.37539 0.0
H1455 H 0.82994 0.21109 0.38305 0.0
H1456 H 0.88791 0.21601 0.45747 0.0
H1457 H 0.86254 0.21354 0.43562 0.0
C1458 C 0.55739 0.71194 0.96955 0.0
C1459 C 0.56406 0.69554 0.97065 0.0
C1460 C 0.54015 0.71418 0.97334 0.0
C1461 C 0.50231 0.69497 0.99429 0.0
H1462 H 0.47421 0.71141 0.95567 0.0
C1463 C 0.42729 0.67827 0.9824 0.0
C1464 C 0.41709 0.6896 0.97343 0.0
C1465 C 0.44554 0.68198 0.98536 0.0
C1466 C 0.48181 0.7072 0.96684 0.0
H1467 H 0.55833 0.66889 0.9773 0.0
H1468 H 0.52834 0.67286 0.98417 0.0
H1469 H 0.50594 0.71298 0.95551 0.0
H1470 H 0.41762 0.71424 0.96161 0.0
H1471 H 0.44936 0.72118 0.9674 0.0
H1472 H 0.47819 0.68905 0.0056 0.0
C1473 C 0.53639 0.68399 0.98041 0.0
C1474 C 0.50006 0.70807 0.96669 0.0
C1475 C 0.5535 0.68168 0.97637 0.0
C1476 C 0.42528 0.70521 0.96839 0.0
C1477 C 0.44347 0.70909 0.9716 0.0
C1478 C 0.48405 0.69432 0.99458 0.0
C1479 C 0.5294 0.70012 0.97852 0.0
C1480 C 0.51045 0.70157 0.98018 0.0
C1481 C 0.45393 0.69725 0.97962 0.0
C1482 C 0.4735 0.70001 0.98062 0.0
H1483 H 0.56512 0.72275 0.96485 0.0
H1484 H 0.53506 0.72676 0.97177 0.0
H1485 H 0.51006 0.69001 0.00494 0.0
H1486 H 0.42127 0.66608 0.98629 0.0
H1487 H 0.45309 0.67241 0.99135 0.0
C1488 C 0.63636 0.44351 0.30998 0.0
C1489 C 0.63095 0.43597 0.29285 0.0
C1490 C 0.62921 0.45854 0.31675 0.0
C1491 C 0.60593 0.49596 0.3018 0.0
H1492 H 0.60377 0.5066 0.35189 0.0
C1493 C 0.58381 0.56153 0.3312 0.0
C1494 C 0.59687 0.57079 0.34329 0.0
C1495 C 0.58474 0.54369 0.32607 0.0
C1496 C 0.60421 0.50372 0.33786 0.0
H1497 H 0.61352 0.43782 0.26948 0.0
H1498 H 0.60038 0.46359 0.28149 0.0
H1499 H 0.61086 0.47754 0.34066 0.0
H1500 H 0.62058 0.56872 0.36015 0.0
H1501 H 0.62192 0.53738 0.35161 0.0
H1502 H 0.59914 0.52219 0.29912 0.0
C1503 C 0.61052 0.45829 0.28961 0.0
C1504 C 0.60841 0.48714 0.33141 0.0
C1505 C 0.61793 0.44344 0.28274 0.0
C1506 C 0.61034 0.56178 0.35086 0.0
C1507 C 0.61106 0.54389 0.34601 0.0
C1508 C 0.60141 0.51241 0.30824 0.0
C1509 C 0.6163 0.46628 0.3066 0.0
C1510 C 0.60979 0.48316 0.31332 0.0
C1511 C 0.59853 0.53479 0.33324 0.0
C1512 C 0.60091 0.51658 0.32636 0.0
H1513 H 0.64673 0.4383 0.31788 0.0
H1514 H 0.63436 0.46445 0.3297 0.0
H1515 H 0.60712 0.49363 0.28786 0.0
H1516 H 0.5734 0.5683 0.3251 0.0
H1517 H 0.57492 0.53694 0.31621 0.0
C1518 C 0.00219 0.22094 0.7538 0.0
C1519 C 0.00969 0.22582 0.77109 0.0
C1520 C 0.99492 0.2037 0.74874 0.0
C1521 C 0.97563 0.16367 0.76488 0.0
H1522 H 0.99685 0.13861 0.72736 0.0
C1523 C 0.97201 0.08813 0.75597 0.0
C1524 C 0.97386 0.07964 0.73941 0.0
C1525 C 0.97272 0.10646 0.75836 0.0
C1526 C 0.99036 0.1454 0.73755 0.0
H1527 H 0.01427 0.21669 0.79696 0.0
H1528 H 0.00112 0.18674 0.78821 0.0
H1529 H 0.00466 0.16999 0.73428 0.0
H1530 H 0.97681 0.08321 0.71214 0.0
H1531 H 0.97699 0.1152 0.71595 0.0
H1532 H 0.96116 0.13925 0.76813 0.0
C1533 C 0.00122 0.1962 0.7785 0.0
C1534 C 0.99497 0.16341 0.74157 0.0
C1535 C 0.00879 0.21333 0.78347 0.0
C1536 C 0.97533 0.08959 0.72503 0.0
C1537 C 0.97567 0.1079 0.72731 0.0
C1538 C 0.97073 0.14571 0.76064 0.0
C1539 C 0.99451 0.19115 0.76102 0.0
C1540 C 0.98797 0.17261 0.75553 0.0
C1541 C 0.97503 0.11666 0.74415 0.0
C1542 C 0.97837 0.13621 0.7472 0.0
H1543 H 0.00162 0.23042 0.7442 0.0
H1544 H 0.98953 0.20016 0.73524 0.0
H1545 H 0.96992 0.17056 0.77561 0.0
H1546 H 0.97112 0.08065 0.76727 0.0
H1547 H 0.97244 0.11259 0.77157 0.0
C1548 C 0.41817 0.83882 0.25124 0.0
C1549 C 0.42361 0.82966 0.23631 0.0
C1550 C 0.42541 0.85595 0.25679 0.0
C1551 C 0.46197 0.8896 0.25046 0.0
H1552 H 0.42882 0.92205 0.26519 0.0
C1553 C 0.4731 0.96548 0.25085 0.0
C1554 C 0.4671 0.97568 0.26484 0.0
C1555 C 0.4701 0.94713 0.24944 0.0
C1556 C 0.43831 0.91313 0.26136 0.0
H1557 H 0.44129 0.83115 0.21576 0.0
H1558 H 0.45351 0.86116 0.22509 0.0
H1559 H 0.41911 0.89099 0.25893 0.0
H1560 H 0.45446 0.97456 0.28902 0.0
H1561 H 0.44904 0.9426 0.28641 0.0
H1562 H 0.48097 0.91209 0.25228 0.0
C1563 C 0.44393 0.85503 0.23278 0.0
C1564 C 0.43277 0.89527 0.25781 0.0
C1565 C 0.43683 0.83782 0.22735 0.0
C1566 C 0.45888 0.9671 0.27786 0.0
C1567 C 0.4558 0.94881 0.2764 0.0
C1568 C 0.46747 0.90755 0.25386 0.0
C1569 C 0.43811 0.86442 0.24741 0.0
C1570 C 0.44447 0.88327 0.25221 0.0
C1571 C 0.46098 0.93866 0.26195 0.0
C1572 C 0.45566 0.91949 0.25926 0.0
H1573 H 0.40815 0.83283 0.25855 0.0
H1574 H 0.42088 0.86262 0.26834 0.0
H1575 H 0.47141 0.88072 0.24643 0.0
H1576 H 0.47938 0.9717 0.24056 0.0
H1577 H 0.47414 0.93965 0.2381 0.0
C1578 C 0.94354 0.55682 0.67752 0.0
C1579 C 0.9404 0.56743 0.69257 0.0
C1580 C 0.94896 0.54004 0.67893 0.0
C1581 C 0.9428 0.50386 0.70525 0.0
H1582 H 0.97825 0.48356 0.6789 0.0
C1583 C 0.94711 0.42944 0.70033 0.0
C1584 C 0.94967 0.42154 0.68368 0.0
C1585 C 0.95034 0.44763 0.70417 0.0
C1586 C 0.96821 0.48896 0.68624 0.0
H1587 H 0.94065 0.56892 0.72093 0.0
H1588 H 0.94985 0.53934 0.72339 0.0
H1589 H 0.97594 0.51522 0.68036 0.0
H1590 H 0.95815 0.42617 0.65817 0.0
H1591 H 0.96309 0.45799 0.66447 0.0
H1592 H 0.93413 0.47775 0.71019 0.0
C1593 C 0.94838 0.54419 0.71054 0.0
C1594 C 0.967 0.50712 0.68717 0.0
C1595 C 0.94325 0.56114 0.70915 0.0
C1596 C 0.95624 0.432 0.67117 0.0
C1597 C 0.95914 0.45025 0.67486 0.0
C1598 C 0.94379 0.48571 0.70409 0.0
C1599 C 0.95101 0.5334 0.6954 0.0
C1600 C 0.95407 0.51468 0.69642 0.0
C1601 C 0.95577 0.45838 0.69127 0.0
C1602 C 0.95628 0.47793 0.69428 0.0
H1603 H 0.94143 0.56137 0.66458 0.0
H1604 H 0.9507 0.53194 0.66704 0.0
H1605 H 0.93254 0.50932 0.71226 0.0
H1606 H 0.94214 0.42155 0.71021 0.0
H1607 H 0.94805 0.4533 0.71711 0.0
C1608 C 0.68057 0.39267 0.61563 0.0
C1609 C 0.67521 0.37469 0.61542 0.0
C1610 C 0.67686 0.40164 0.60083 0.0
C1611 C 0.66298 0.39299 0.55247 0.0
H1612 H 0.66124 0.44358 0.55644 0.0
C1613 C 0.64884 0.43041 0.49228 0.0
C1614 C 0.6647 0.43928 0.48856 0.0
C1615 C 0.64692 0.42519 0.50905 0.0
C1616 C 0.66154 0.42943 0.55524 0.0
H1617 H 0.66164 0.35196 0.59975 0.0
H1618 H 0.65465 0.36756 0.57413 0.0
H1619 H 0.66346 0.4282 0.58302 0.0
H1620 H 0.69019 0.45144 0.4999 0.0
H1621 H 0.68654 0.4428 0.52948 0.0
H1622 H 0.66034 0.39434 0.52461 0.0
C1623 C 0.66197 0.37486 0.58551 0.0
C1624 C 0.66306 0.42057 0.57043 0.0
C1625 C 0.6659 0.36585 0.60023 0.0
C1626 C 0.67781 0.44464 0.50241 0.0
C1627 C 0.67576 0.43966 0.51929 0.0
C1628 C 0.66089 0.40177 0.53735 0.0
C1629 C 0.6675 0.39287 0.58548 0.0
C1630 C 0.66425 0.40223 0.56931 0.0
C1631 C 0.66065 0.42918 0.52247 0.0
C1632 C 0.66053 0.42007 0.53862 0.0
H1633 H 0.68824 0.39967 0.62702 0.0
H1634 H 0.68193 0.4153 0.60134 0.0
H1635 H 0.66422 0.37902 0.55076 0.0
H1636 H 0.63834 0.42667 0.48195 0.0
H1637 H 0.6351 0.4173 0.51135 0.0
C1638 C 0.75027 0.62473 0.17399 0.0
C1639 C 0.76646 0.63082 0.18341 0.0
C1640 C 0.74812 0.60841 0.16411 0.0
C1641 C 0.77279 0.57526 0.14189 0.0
H1642 H 0.72791 0.54726 0.13931 0.0
C1643 C 0.74596 0.52644 0.08294 0.0
C1644 C 0.73345 0.5125 0.08517 0.0
C1645 C 0.75338 0.53787 0.09732 0.0
C1646 C 0.74069 0.55464 0.1401 0.0
H1647 H 0.79344 0.62504 0.18894 0.0
H1648 H 0.78956 0.5962 0.17218 0.0
H1649 H 0.7337 0.57327 0.16006 0.0
H1650 H 0.72027 0.49855 0.10447 0.0
H1651 H 0.7337 0.51816 0.1297 0.0
H1652 H 0.77973 0.55659 0.12186 0.0
C1653 C 0.77846 0.60401 0.17255 0.0
C1654 C 0.74389 0.56977 0.15183 0.0
C1655 C 0.78061 0.6204 0.18243 0.0
C1656 C 0.72985 0.50919 0.1023 0.0
C1657 C 0.73737 0.52057 0.11674 0.0
C1658 C 0.76961 0.56004 0.1302 0.0
C1659 C 0.76215 0.59778 0.16335 0.0
C1660 C 0.75975 0.58056 0.15249 0.0
C1661 C 0.74857 0.53553 0.11431 0.0
C1662 C 0.75332 0.54982 0.12879 0.0
H1663 H 0.73917 0.63255 0.17435 0.0
H1664 H 0.73549 0.60424 0.15684 0.0
H1665 H 0.78515 0.58327 0.14204 0.0
H1666 H 0.74921 0.52914 0.06991 0.0
H1667 H 0.76191 0.54922 0.09487 0.0
C1668 C 0.27916 0.04899 0.39458 0.0
C1669 C 0.26947 0.06341 0.39197 0.0
C1670 C 0.27846 0.04061 0.41003 0.0
C1671 C 0.26851 0.05024 0.45598 0.0
H1672 H 0.27704 0.00147 0.45942 0.0
C1673 C 0.27886 0.02555 0.52323 0.0
C1674 C 0.2951 0.01856 0.52597 0.0
C1675 C 0.2713 0.02671 0.50621 0.0
C1676 C 0.27454 0.01508 0.45862 0.0
H1677 H 0.25081 0.07988 0.40292 0.0
H1678 H 0.24897 0.06487 0.42955 0.0
H1679 H 0.2718 0.0122 0.43046 0.0
H1680 H 0.31529 0.0057 0.51318 0.0
H1681 H 0.30208 0.00772 0.48336 0.0
H1682 H 0.27153 0.05325 0.48402 0.0
C1683 C 0.25756 0.0603 0.42 0.0
C1684 C 0.27164 0.02128 0.44205 0.0
C1685 C 0.25851 0.06886 0.4047 0.0
C1686 C 0.30272 0.01107 0.51143 0.0
C1687 C 0.29515 0.01225 0.49436 0.0
C1688 C 0.27119 0.04402 0.47245 0.0
C1689 C 0.26792 0.04638 0.42312 0.0
C1690 C 0.26895 0.03905 0.44053 0.0
C1691 C 0.27986 0.02093 0.4916 0.0
C1692 C 0.27457 0.02647 0.47399 0.0
H1693 H 0.28798 0.04476 0.38511 0.0
H1694 H 0.28687 0.03018 0.41203 0.0
H1695 H 0.26692 0.06408 0.45546 0.0
H1696 H 0.27262 0.03122 0.53425 0.0
H1697 H 0.25932 0.03314 0.50447 0.0
C1698 C 0.25317 -6e-05 0.772 0.0
C1699 C 0.25205 0.01547 0.76374 0.0
C1700 C 0.26143 0.00044 0.78903 0.0
C1701 C 0.2907 0.0297 0.82313 0.0
H1702 H 0.27268 0.99647 0.85408 0.0
C1703 C 0.30824 0.03384 0.89907 0.0
C1704 C 0.31443 0.01847 0.90514 0.0
C1705 C 0.30124 0.03395 0.88161 0.0
C1706 C 0.27785 0.00579 0.84553 0.0
H1707 H 0.25801 0.04373 0.76687 0.0
H1708 H 0.27182 0.04478 0.79679 0.0
H1709 H 0.25903 0.99574 0.82413 0.0
H1710 H 0.31871 0.99138 0.89717 0.0
H1711 H 0.30572 0.99145 0.86709 0.0
H1712 H 0.30908 0.0401 0.84504 0.0
C1713 C 0.26705 0.03209 0.78999 0.0
C1714 C 0.27015 0.0053 0.8283 0.0
C1715 C 0.25909 0.03152 0.77284 0.0
C1716 C 0.31363 0.00332 0.89321 0.0
C1717 C 0.30632 0.00336 0.87591 0.0
C1718 C 0.29816 0.03039 0.84051 0.0
C1719 C 0.26834 0.01655 0.79835 0.0
C1720 C 0.27654 0.01717 0.81679 0.0
C1721 C 0.30002 0.01863 0.86999 0.0
C1722 C 0.29186 0.01835 0.85178 0.0
H1723 H 0.24785 0.98739 0.7652 0.0
H1724 H 0.26246 0.98814 0.79482 0.0
H1725 H 0.29624 0.03884 0.81463 0.0
H1726 H 0.30843 0.0457 0.90787 0.0
H1727 H 0.29636 0.04587 0.87731 0.0
C1728 C 0.60286 0.68952 0.39152 0.0
C1729 C 0.6028 0.68684 0.37317 0.0
C1730 C 0.58762 0.68528 0.39966 0.0
C1731 C 0.54306 0.66092 0.39167 0.0
H1732 H 0.53176 0.69426 0.42903 0.0
C1733 C 0.47793 0.65128 0.42253 0.0
C1734 C 0.46806 0.66583 0.42154 0.0
C1735 C 0.49593 0.65303 0.42048 0.0
C1736 C 0.53482 0.68477 0.4187 0.0
H1737 H 0.58682 0.67759 0.34893 0.0
H1738 H 0.56015 0.67055 0.36299 0.0
H1739 H 0.56009 0.69831 0.4169 0.0
H1740 H 0.4696 0.69394 0.41954 0.0
H1741 H 0.50096 0.69698 0.41588 0.0
H1742 H 0.51736 0.64804 0.39278 0.0
C1743 C 0.57202 0.67552 0.37123 0.0
C1744 C 0.5511 0.68699 0.41183 0.0
C1745 C 0.58726 0.6797 0.36312 0.0
C1746 C 0.47683 0.68243 0.42003 0.0
C1747 C 0.49481 0.6842 0.41809 0.0
C1748 C 0.52682 0.65871 0.39853 0.0
C1749 C 0.57193 0.67845 0.3896 0.0
C1750 C 0.55532 0.67523 0.39803 0.0
C1751 C 0.50438 0.66939 0.41757 0.0
C1752 C 0.52245 0.67071 0.41197 0.0
H1753 H 0.61443 0.69558 0.39957 0.0
H1754 H 0.58808 0.6876 0.41383 0.0
H1755 H 0.54586 0.65159 0.38112 0.0
H1756 H 0.47157 0.63833 0.42374 0.0
H1757 H 0.50309 0.64146 0.4204 0.0
C1758 C 0.79595 0.25018 0.98212 0.0
C1759 C 0.78763 0.24089 0.99454 0.0
C1760 C 0.81228 0.25973 0.98668 0.0
C1761 C 0.84394 0.27788 0.02501 0.0
H1762 H 0.8767 0.27837 0.98923 0.0
C1763 C 0.91935 0.30045 0.0363 0.0
C1764 C 0.92579 0.31128 0.02393 0.0
C1765 C 0.9018 0.29321 0.03429 0.0
C1766 C 0.86764 0.27845 0.99931 0.0
H1767 H 0.78996 0.2339 0.02135 0.0
H1768 H 0.81874 0.25017 0.02927 0.0
H1769 H 0.84771 0.26264 0.98247 0.0
H1770 H 0.91849 0.32419 0.00064 0.0
H1771 H 0.88811 0.31124 0.99696 0.0
H1772 H 0.86443 0.29328 0.04199 0.0
C1773 C 0.81244 0.25062 0.01615 0.0
C1774 C 0.85095 0.26952 0.99543 0.0
C1775 C 0.79595 0.24127 0.01163 0.0
C1776 C 0.91407 0.31553 0.01014 0.0
C1777 C 0.89667 0.30818 0.00805 0.0
C1778 C 0.86081 0.28663 0.02897 0.0
C1779 C 0.82088 0.25989 0.00369 0.0
C1780 C 0.83878 0.26925 0.00814 0.0
C1781 C 0.89049 0.2966 0.01981 0.0
C1782 C 0.87272 0.28713 0.01608 0.0
H1783 H 0.78975 0.25017 0.96888 0.0
H1784 H 0.81813 0.26701 0.97683 0.0
H1785 H 0.83487 0.27813 0.03508 0.0
H1786 H 0.92806 0.29688 0.04703 0.0
H1787 H 0.89732 0.28428 0.04352 0.0
C1788 C 0.1964 0.78391 0.6268 0.0
C1789 C 0.19706 0.7716 0.63936 0.0
C1790 C 0.18268 0.78232 0.61332 0.0
C1791 C 0.137 0.76405 0.60271 0.0
H1792 H 0.14626 0.76421 0.55378 0.0
C1793 C 0.09821 0.735 0.53352 0.0
C1794 C 0.08148 0.74023 0.53631 0.0
C1795 C 0.11306 0.74265 0.54426 0.0
C1796 C 0.1435 0.76427 0.5674 0.0
H1797 H 0.1835 0.7483 0.64792 0.0
H1798 H 0.15943 0.74575 0.62464 0.0
H1799 H 0.17076 0.76958 0.57696 0.0
H1800 H 0.06738 0.75882 0.55116 0.0
H1801 H 0.09328 0.77219 0.56988 0.0
H1802 H 0.1099 0.75833 0.59334 0.0
C1803 C 0.16964 0.75651 0.62511 0.0
C1804 C 0.15748 0.76742 0.58063 0.0
C1805 C 0.18344 0.75797 0.63842 0.0
C1806 C 0.08009 0.75433 0.54893 0.0
C1807 C 0.09489 0.76195 0.55966 0.0
C1808 C 0.12307 0.76112 0.58956 0.0
C1809 C 0.16914 0.76864 0.6124 0.0
C1810 C 0.15436 0.76696 0.59839 0.0
C1811 C 0.11139 0.75566 0.55795 0.0
C1812 C 0.12616 0.7609 0.57174 0.0
H1813 H 0.20614 0.79507 0.62762 0.0
H1814 H 0.18242 0.79203 0.60386 0.0
H1815 H 0.13422 0.76379 0.61631 0.0
H1816 H 0.09967 0.72409 0.52397 0.0
H1817 H 0.12559 0.73748 0.54267 0.0
C1818 C 0.36909 0.29502 0.04623 0.0
C1819 C 0.36345 0.29444 0.06312 0.0
C1820 C 0.38645 0.29226 0.0433 0.0
C1821 C 0.43056 0.29365 0.0678 0.0
H1822 H 0.44346 0.27161 0.02391 0.0
C1823 C 0.50103 0.2777 0.05987 0.0
C1824 C 0.50868 0.28466 0.04564 0.0
C1825 C 0.48291 0.27699 0.06081 0.0
C1826 C 0.43999 0.27783 0.03619 0.0
H1827 H 0.37121 0.29002 0.09006 0.0
H1828 H 0.40122 0.28446 0.08491 0.0
H1829 H 0.41239 0.27363 0.02815 0.0
H1830 H 0.50313 0.29535 0.02069 0.0
H1831 H 0.47126 0.29378 0.02221 0.0
H1832 H 0.4581 0.29757 0.07593 0.0
C1833 C 0.39252 0.28757 0.07397 0.0
C1834 C 0.42223 0.27907 0.03863 0.0
C1835 C 0.37529 0.29062 0.07693 0.0
C1836 C 0.49764 0.28986 0.03179 0.0
C1837 C 0.47942 0.289 0.03266 0.0
C1838 C 0.44821 0.29219 0.06546 0.0
C1839 C 0.39846 0.28871 0.0572 0.0
C1840 C 0.41728 0.287 0.05449 0.0
C1841 C 0.47198 0.28303 0.04744 0.0
C1842 C 0.45312 0.28426 0.04966 0.0
H1843 H 0.36032 0.29835 0.03544 0.0
H1844 H 0.39057 0.29353 0.03028 0.0
H1845 H 0.42738 0.3003 0.07999 0.0
H1846 H 0.50911 0.27315 0.07054 0.0
H1847 H 0.47746 0.27204 0.07219 0.0
C1848 C 0.38314 0.60407 0.67669 0.0
C1849 C 0.37958 0.60804 0.69416 0.0
C1850 C 0.39099 0.58881 0.67184 0.0
C1851 C 0.41245 0.55105 0.69007 0.0
H1852 H 0.39334 0.52694 0.64516 0.0
C1853 C 0.42682 0.47984 0.6649 0.0
C1854 C 0.41148 0.46888 0.65863 0.0
C1855 C 0.42613 0.49801 0.6686 0.0
C1856 C 0.39878 0.53351 0.65774 0.0
H1857 H 0.3812 0.59903 0.7202 0.0
H1858 H 0.39408 0.57205 0.71166 0.0
H1859 H 0.38622 0.55657 0.65312 0.0
H1860 H 0.38349 0.46861 0.65106 0.0
H1861 H 0.38229 0.49984 0.65788 0.0
H1862 H 0.4241 0.52725 0.69498 0.0
C1863 C 0.39157 0.58101 0.70177 0.0
C1864 C 0.39491 0.55065 0.66224 0.0
C1865 C 0.38396 0.5964 0.70666 0.0
C1866 C 0.39553 0.47651 0.65613 0.0
C1867 C 0.39487 0.49452 0.65974 0.0
C1868 C 0.41619 0.53375 0.6856 0.0
C1869 C 0.39504 0.57689 0.68424 0.0
C1870 C 0.40127 0.55953 0.67866 0.0
C1871 C 0.41013 0.5055 0.66589 0.0
C1872 C 0.40888 0.52464 0.66961 0.0
H1873 H 0.37918 0.61227 0.66657 0.0
H1874 H 0.39349 0.58621 0.65823 0.0
H1875 H 0.41796 0.55759 0.70266 0.0
H1876 H 0.43928 0.47438 0.66716 0.0
H1877 H 0.43808 0.50619 0.6734 0.0
C1878 C 0.02484 0.75875 0.24013 0.0
C1879 C 0.00959 0.75279 0.22898 0.0
C1880 C 0.0276 0.77625 0.24735 0.0
C1881 C 0.0163 0.82048 0.23984 0.0
H1882 H 0.02853 0.83142 0.28998 0.0
C1883 C 0.03441 0.89155 0.27155 0.0
C1884 C 0.02484 0.8963 0.28575 0.0
C1885 C 0.03408 0.87392 0.26501 0.0
C1886 C 0.02517 0.82853 0.27596 0.0
H1887 H 0.98564 0.76068 0.21606 0.0
H1888 H 0.99065 0.79135 0.2284 0.0
H1889 H 0.02459 0.8007 0.27747 0.0
H1890 H 0.00804 0.88642 0.30471 0.0
H1891 H 0.00765 0.85555 0.29343 0.0
H1892 H 0.01679 0.84827 0.23832 0.0
C1893 C 0.00032 0.78239 0.23175 0.0
C1894 C 0.02301 0.811 0.2688 0.0
C1895 C 0.99745 0.76484 0.22474 0.0
C1896 C 0.01545 0.88308 0.29369 0.0
C1897 C 0.01532 0.86545 0.28731 0.0
C1898 C 0.01871 0.838 0.24696 0.0
C1899 C 0.01538 0.78823 0.2432 0.0
C1900 C 0.01836 0.80681 0.2507 0.0
C1901 C 0.02439 0.86073 0.27273 0.0
C1902 C 0.02298 0.84219 0.2651 0.0
H1903 H 0.03493 0.75011 0.24288 0.0
H1904 H 0.0395 0.78051 0.25585 0.0
H1905 H 0.01286 0.8176 0.22583 0.0
H1906 H 0.04166 0.90152 0.26514 0.0
H1907 H 0.04126 0.8706 0.25381 0.0
C1908 C 0.62518 0.19929 0.78634 0.0
C1909 C 0.621 0.21614 0.78271 0.0
C1910 C 0.61192 0.18563 0.78637 0.0
C1911 C 0.56723 0.17111 0.76691 0.0
H1912 H 0.57208 0.13446 0.79831 0.0
C1913 C 0.53902 0.09487 0.77727 0.0
C1914 C 0.54023 0.08763 0.76002 0.0
C1915 C 0.54348 0.11287 0.7819 0.0
C1916 C 0.5702 0.14471 0.78965 0.0
H1917 H 0.59969 0.23181 0.77579 0.0
H1918 H 0.57643 0.208 0.77619 0.0
H1919 H 0.59104 0.16183 0.80403 0.0
H1920 H 0.54524 0.0936 0.73373 0.0
H1921 H 0.55313 0.12482 0.74171 0.0
H1922 H 0.54665 0.1538 0.75229 0.0
C1923 C 0.58997 0.20539 0.77915 0.0
C1924 C 0.58127 0.16032 0.7928 0.0
C1925 C 0.60327 0.2191 0.77918 0.0
C1926 C 0.54433 0.09888 0.74715 0.0
C1927 C 0.54874 0.11681 0.75174 0.0
C1928 C 0.55612 0.1555 0.76377 0.0
C1929 C 0.59416 0.18846 0.78263 0.0
C1930 C 0.58037 0.17341 0.7811 0.0
C1931 C 0.54915 0.12389 0.76933 0.0
C1932 C 0.55794 0.14184 0.77472 0.0
H1933 H 0.63875 0.19661 0.78897 0.0
H1934 H 0.61567 0.17268 0.78874 0.0
H1935 H 0.56618 0.18092 0.75762 0.0
H1936 H 0.53591 0.08645 0.78743 0.0
H1937 H 0.5434 0.11797 0.79551 0.0
C1938 C 0.05584 0.40111 0.32985 0.0
C1939 C 0.04727 0.38471 0.32299 0.0
C1940 C 0.04846 0.41663 0.32656 0.0
C1941 C 0.01971 0.43591 0.29506 0.0
H1942 H 0.02208 0.47359 0.33258 0.0
C1943 C 0.02903 0.50911 0.2853 0.0
C1944 C 0.02222 0.52138 0.29691 0.0
C1945 C 0.02602 0.49114 0.28687 0.0
C1946 C 0.02093 0.46314 0.32198 0.0
H1947 H 0.02353 0.37183 0.30828 0.0
H1948 H 0.01104 0.39908 0.30174 0.0
H1949 H 0.02896 0.44439 0.33943 0.0
H1950 H 0.00579 0.52453 0.31834 0.0
H1951 H 0.00049 0.49298 0.32113 0.0
H1952 H 0.01241 0.45493 0.27751 0.0
C1953 C 0.02361 0.3998 0.30951 0.0
C1954 C 0.02507 0.44647 0.3259 0.0
C1955 C 0.03092 0.3842 0.31301 0.0
C1956 C 0.01115 0.51532 0.3092 0.0
C1957 C 0.00824 0.49729 0.31088 0.0
C1958 C 0.01568 0.45268 0.29111 0.0
C1959 C 0.03232 0.41616 0.3163 0.0
C1960 C 0.02507 0.43285 0.31242 0.0
C1961 C 0.01624 0.48507 0.30018 0.0
C1962 C 0.01679 0.4666 0.30448 0.0
H1963 H 0.06842 0.402 0.33764 0.0
H1964 H 0.05558 0.42906 0.33178 0.0
H1965 H 0.0196 0.42564 0.28442 0.0
H1966 H 0.03754 0.5135 0.27565 0.0
H1967 H 0.03248 0.48211 0.2785 0.0
C1968 C 0.40333 0.59955 0.40198 0.0
C1969 C 0.39205 0.58997 0.38838 0.0
C1970 C 0.42152 0.60118 0.40103 0.0
C1971 C 0.45667 0.58114 0.37795 0.0
H1972 H 0.48322 0.62618 0.39212 0.0
C1973 C 0.52605 0.6024 0.35789 0.0
C1974 C 0.53819 0.61083 0.37132 0.0
C1975 C 0.50867 0.59796 0.36124 0.0
C1976 C 0.476 0.61345 0.38844 0.0
H1977 H 0.39106 0.57464 0.36312 0.0
H1978 H 0.42263 0.57771 0.36133 0.0
H1979 H 0.45182 0.62261 0.39571 0.0
H1980 H 0.54233 0.62072 0.39877 0.0
H1981 H 0.51179 0.61312 0.40466 0.0
H1982 H 0.48086 0.57227 0.37011 0.0
C1983 C 0.41751 0.58369 0.3729 0.0
C1984 C 0.45803 0.61139 0.39047 0.0
C1985 C 0.39936 0.58204 0.37386 0.0
C1986 C 0.53306 0.61418 0.38827 0.0
C1987 C 0.51565 0.60994 0.3916 0.0
C1988 C 0.47462 0.58327 0.37581 0.0
C1989 C 0.42882 0.59326 0.38645 0.0
C1990 C 0.44811 0.59523 0.38513 0.0
C1991 C 0.50322 0.60213 0.37802 0.0
C1992 C 0.48442 0.59946 0.38101 0.0
H1993 H 0.39811 0.60581 0.41336 0.0
H1994 H 0.42987 0.60853 0.41178 0.0
H1995 H 0.44949 0.56843 0.37395 0.0
H1996 H 0.52985 0.59979 0.3447 0.0
H1997 H 0.4993 0.59202 0.35055 0.0
C1998 C 0.13466 0.35479 0.68882 0.0
C1999 C 0.14548 0.37072 0.69066 0.0
C2000 C 0.11681 0.35436 0.68308 0.0
C2001 C 0.08093 0.38317 0.68198 0.0
H2002 H 0.05548 0.34418 0.65213 0.0
C2003 C 0.00632 0.38102 0.66182 0.0
C2004 C 0.99664 0.36484 0.66266 0.0
C2005 C 0.02471 0.38219 0.66343 0.0
C2006 C 0.06239 0.35511 0.66058 0.0
H2007 H 0.14622 0.39853 0.68706 0.0
H2008 H 0.11514 0.39772 0.67688 0.0
H2009 H 0.0874 0.3453 0.65767 0.0
H2010 H 0.99804 0.3372 0.66567 0.0
H2011 H 0.03017 0.33916 0.66869 0.0
H2012 H 0.05594 0.39283 0.68517 0.0
C2013 C 0.12039 0.38562 0.68018 0.0
C2014 C 0.08067 0.35575 0.66373 0.0
C2015 C 0.13823 0.38606 0.68592 0.0
C2016 C 0.00539 0.34981 0.66496 0.0
C2017 C 0.02374 0.35093 0.66655 0.0
C2018 C 0.06266 0.38253 0.67884 0.0
C2019 C 0.1094 0.36984 0.67904 0.0
C2020 C 0.09013 0.36969 0.67463 0.0
C2021 C 0.03363 0.36715 0.66587 0.0
C2022 C 0.05315 0.36839 0.66827 0.0
H2023 H 0.13983 0.34274 0.69236 0.0
H2024 H 0.10869 0.34201 0.68248 0.0
H2025 H 0.08778 0.39396 0.69067 0.0
H2026 H -0.0003 0.39275 0.65999 0.0
H2027 H 0.03194 0.39483 0.66267 0.0
C2028 C 0.79653 0.01868 0.6479 0.0
C2029 C 0.78409 0.0046 0.64986 0.0
C2030 C 0.81231 0.02142 0.65872 0.0
C2031 C 0.83481 0.00979 0.70036 0.0
H2032 H 0.87688 0.02157 0.67752 0.0
C2033 C 0.90542 0.00506 0.73216 0.0
C2034 C 0.91843 0.01809 0.72907 0.0
C2035 C 0.88841 0.00465 0.72383 0.0
C2036 C 0.86525 0.01854 0.68418 0.0
H2037 H 0.77828 0.98258 0.66505 0.0
H2038 H 0.80599 0.98718 0.68378 0.0
H2039 H 0.84835 0.01844 0.66051 0.0
H2040 H 0.92422 0.04112 0.71543 0.0
H2041 H 0.89443 0.04061 0.70094 0.0
H2042 H 0.85188 0.00961 0.72399 0.0
C2043 C 0.80344 0.99626 0.674 0.0
C2044 C 0.84887 0.01675 0.67442 0.0
C2045 C 0.78759 0.99356 0.6632 0.0
C2046 C 0.91426 0.03098 0.71796 0.0
C2047 C 0.89728 0.03059 0.70961 0.0
C2048 C 0.85124 0.01155 0.71014 0.0
C2049 C 0.81609 0.01009 0.67173 0.0
C2050 C 0.83343 0.01233 0.68236 0.0
C2051 C 0.88423 0.01724 0.71222 0.0
C2052 C 0.86665 0.01593 0.70213 0.0
H2053 H 0.79419 0.02755 0.63787 0.0
H2054 H 0.82159 0.0324 0.65684 0.0
H2055 H 0.82317 0.00659 0.70694 0.0
H2056 H 0.90852 0.99493 0.74064 0.0
H2057 H 0.87872 0.99411 0.72598 0.0
C2058 C 0.66444 0.99902 0.22365 0.0
C2059 C 0.67483 0.99729 0.23931 0.0
C2060 C 0.64632 -5e-05 0.2237 0.0
C2061 C 0.60876 0.9908 0.24994 0.0
H2062 H 0.58844 0.02738 0.22528 0.0
C2063 C 0.54238 0.01609 0.26451 0.0
C2064 C 0.53148 0.02072 0.25041 0.0
C2065 C 0.55916 0.01119 0.26187 0.0
C2066 C 0.59381 0.0169 0.23199 0.0
H2067 H 0.67426 0.99478 0.26723 0.0
H2068 H 0.64275 0.99654 0.26733 0.0
H2069 H 0.61911 0.02239 0.22286 0.0
H2070 H 0.5289 0.02361 0.22254 0.0
H2071 H 0.55824 0.01485 0.21776 0.0
H2072 H 0.58352 0.98552 0.25932 0.0
C2073 C 0.64855 0.99701 0.25497 0.0
C2074 C 0.6114 0.01405 0.23061 0.0
C2075 C 0.66665 0.99612 0.25493 0.0
C2076 C 0.53724 0.02007 0.23357 0.0
C2077 C 0.55402 0.01517 0.23089 0.0
C2078 C 0.59115 0.99365 0.25131 0.0
C2079 C 0.6382 0.9991 0.2394 0.0
C2080 C 0.61915 0.00114 0.23976 0.0
C2081 C 0.56526 0.01087 0.24506 0.0
C2082 C 0.58355 0.00689 0.24255 0.0
H2083 H 0.67033 -0.00011 0.21137 0.0
H2084 H 0.63866 0.00137 0.21145 0.0
H2085 H 0.61427 0.98057 0.25693 0.0
H2086 H 0.53808 0.01661 0.27763 0.0
H2087 H 0.56755 0.00819 0.27311 0.0
C2088 C 0.40004 0.39489 0.55968 0.0
C2089 C 0.39794 0.38247 0.57197 0.0
C2090 C 0.39811 0.41261 0.56424 0.0
C2091 C 0.39679 0.44532 0.60256 0.0
H2092 H 0.36954 0.47 0.56929 0.0
C2093 C 0.36505 0.5082 0.62276 0.0
C2094 C 0.36812 0.52235 0.61274 0.0
C2095 C 0.36976 0.49162 0.61709 0.0
C2096 C 0.37734 0.46331 0.57861 0.0
H2097 H 0.39267 0.37904 0.59889 0.0
H2098 H 0.38912 0.40987 0.60676 0.0
H2099 H 0.3764 0.44006 0.56086 0.0
H2100 H 0.37796 0.53065 0.58888 0.0
H2101 H 0.38599 0.50136 0.57867 0.0
H2102 H 0.39746 0.46851 0.62032 0.0
C2103 C 0.39243 0.40596 0.59364 0.0
C2104 C 0.38132 0.4462 0.5738 0.0
C2105 C 0.39436 0.38825 0.58908 0.0
C2106 C 0.37553 0.51978 0.59676 0.0
C2107 C 0.38008 0.50311 0.59095 0.0
C2108 C 0.39275 0.46236 0.60736 0.0
C2109 C 0.39406 0.41831 0.58121 0.0
C2110 C 0.39089 0.43692 0.58582 0.0
C2111 C 0.37746 0.48895 0.60122 0.0
C2112 C 0.38274 0.4714 0.59556 0.0
H2113 H 0.4029 0.39089 0.54641 0.0
H2114 H 0.39973 0.42184 0.55445 0.0
H2115 H 0.4045 0.4387 0.61197 0.0
H2116 H 0.35926 0.51002 0.63512 0.0
H2117 H 0.36732 0.48084 0.62507 0.0
C2118 C 0.29805 0.67464 0.02176 0.0
C2119 C 0.28199 0.68099 0.02547 0.0
C2120 C 0.29906 0.65673 0.01735 0.0
C2121 C 0.27111 0.61728 0.99812 0.0
H2122 H 0.31238 0.59352 0.01069 0.0
C2123 C 0.27684 0.54632 0.9699 0.0
C2124 C 0.29282 0.54369 0.96299 0.0
C2125 C 0.27526 0.56152 0.98089 0.0
C2126 C 0.30077 0.59999 0.00705 0.0
H2127 H 0.25452 0.67338 0.02821 0.0
H2128 H 0.25631 0.64206 0.02065 0.0
H2129 H 0.31001 0.62325 0.02397 0.0
H2130 H 0.3198 0.55417 0.96228 0.0
H2131 H 0.31713 0.58084 0.9814 0.0
H2132 H 0.26207 0.5943 0.98086 0.0
C2133 C 0.26808 0.65099 0.02089 0.0
C2134 C 0.29942 0.61702 0.01464 0.0
C2135 C 0.26707 0.66894 0.02529 0.0
C2136 C 0.3074 0.55598 0.96767 0.0
C2137 C 0.30586 0.57117 0.97865 0.0
C2138 C 0.27245 0.60028 0.99056 0.0
C2139 C 0.28401 0.64472 0.01654 0.0
C2140 C 0.28471 0.62599 0.01001 0.0
C2141 C 0.28965 0.57433 0.98505 0.0
C2142 C 0.28744 0.59155 0.99468 0.0
H2143 H 0.30976 0.68358 0.02174 0.0
H2144 H 0.31149 0.65241 0.01388 0.0
H2145 H 0.25972 0.62388 0.99403 0.0
H2146 H 0.26543 0.53693 0.96632 0.0
H2147 H 0.26266 0.56345 0.98577 0.0
C2148 C 0.68665 0.14469 0.37683 0.0
C2149 C 0.68448 0.1535 0.36157 0.0
C2150 C 0.67808 0.12799 0.37755 0.0
C2151 C 0.65926 0.0892 0.34828 0.0
H2152 H 0.64322 0.07307 0.39126 0.0
C2153 C 0.62935 0.01813 0.35112 0.0
C2154 C 0.63583 0.00969 0.36546 0.0
C2155 C 0.63287 0.03629 0.35095 0.0
C2156 C 0.64771 0.07738 0.37919 0.0
H2157 H 0.67093 0.15202 0.33539 0.0
H2158 H 0.65573 0.12292 0.33675 0.0
H2159 H 0.65314 0.10408 0.39031 0.0
H2160 H 0.65074 0.01316 0.39096 0.0
H2161 H 0.65702 0.04504 0.39075 0.0
H2162 H 0.65407 0.06249 0.33723 0.0
C2163 C 0.66435 0.12881 0.34804 0.0
C2164 C 0.65339 0.09513 0.37864 0.0
C2165 C 0.67297 0.14554 0.3473 0.0
C2166 C 0.64554 0.01955 0.37984 0.0
C2167 C 0.64905 0.03775 0.37971 0.0
C2168 C 0.65352 0.07148 0.34882 0.0
C2169 C 0.66708 0.1197 0.36305 0.0
C2170 C 0.65948 0.10121 0.36324 0.0
C2171 C 0.64296 0.04628 0.36514 0.0
C2172 C 0.6479 0.06533 0.36434 0.0
H2173 H 0.69541 0.15044 0.38807 0.0
H2174 H 0.68067 0.12129 0.38924 0.0
H2175 H 0.66414 0.09333 0.33631 0.0
H2176 H 0.62183 0.01064 0.3399 0.0
H2177 H 0.62784 0.04249 0.33964 0.0
C2178 C 0.6056 0.7949 0.02098 0.0
C2179 C 0.61143 0.78399 0.00741 0.0
C2180 C 0.61429 0.8116 0.02614 0.0
C2181 C 0.65642 0.8385 0.02415 0.0
H2182 H 0.62846 0.8781 0.02914 0.0
C2183 C 0.68434 0.9097 0.01895 0.0
C2184 C 0.67796 0.9233 0.02919 0.0
C2185 C 0.67727 0.89235 0.01931 0.0
C2186 C 0.6365 0.86718 0.02815 0.0
H2187 H 0.63108 0.78202 0.98877 0.0
H2188 H 0.6461 0.81106 0.99769 0.0
H2189 H 0.6139 0.84834 0.02409 0.0
H2190 H 0.65974 0.92985 0.04818 0.0
H2191 H 0.6474 0.89937 0.04909 0.0
H2192 H 0.67901 0.85733 0.02788 0.0
C2193 C 0.63494 0.80668 0.00448 0.0
C2194 C 0.62813 0.85011 0.02522 0.0
C2195 C 0.62622 0.79007 0.99926 0.0
C2196 C 0.66483 0.91942 0.04024 0.0
C2197 C 0.65772 0.90204 0.04063 0.0
C2198 C 0.66479 0.85555 0.02713 0.0
C2199 C 0.62905 0.81767 0.01792 0.0
C2200 C 0.63798 0.83561 0.02282 0.0
C2201 C 0.66364 0.88833 0.02992 0.0
C2202 C 0.65492 0.87012 0.0288 0.0
H2203 H 0.59427 0.7906 0.02755 0.0
H2204 H 0.60951 0.81973 0.03663 0.0
H2205 H 0.66439 0.82756 0.02268 0.0
H2206 H 0.69439 0.91255 0.01022 0.0
H2207 H 0.68197 0.88219 0.01071 0.0
C2208 C 0.62786 0.36845 0.37785 0.0
C2209 C 0.62771 0.38515 0.37163 0.0
C2210 C 0.62475 0.36613 0.39524 0.0
C2211 C 0.62647 0.3916 0.43876 0.0
H2212 H 0.60175 0.34922 0.45204 0.0
C2213 C 0.61072 0.38555 0.5099 0.0
C2214 C 0.61434 0.36984 0.51684 0.0
C2215 C 0.61077 0.3869 0.49185 0.0
C2216 C 0.60879 0.36107 0.44852 0.0
H2217 H 0.62373 0.41244 0.37868 0.0
H2218 H 0.61819 0.40839 0.40885 0.0
H2219 H 0.60466 0.35262 0.421 0.0
H2220 H 0.62042 0.34309 0.51086 0.0
H2221 H 0.62056 0.34536 0.47917 0.0
H2222 H 0.63062 0.39993 0.46617 0.0
C2223 C 0.62099 0.3971 0.40044 0.0
C2224 C 0.6105 0.36302 0.43074 0.0
C2225 C 0.62407 0.39941 0.38308 0.0
C2226 C 0.61754 0.35531 0.50561 0.0
C2227 C 0.61753 0.35661 0.48754 0.0
C2228 C 0.62472 0.38964 0.45643 0.0
C2229 C 0.62154 0.38048 0.40683 0.0
C2230 C 0.61939 0.37833 0.42565 0.0
C2231 C 0.61441 0.37251 0.48049 0.0
C2232 C 0.61585 0.37442 0.46155 0.0
H2233 H 0.63066 0.35718 0.36939 0.0
H2234 H 0.62537 0.35317 0.3997 0.0
H2235 H 0.63366 0.40343 0.43542 0.0
H2236 H 0.60821 0.39687 0.51846 0.0
H2237 H 0.60812 0.39926 0.4868 0.0
C2238 C 0.01984 0.26662 0.66979 0.0
C2239 C 0.01799 0.25244 0.68016 0.0
C2240 C 0.01368 0.26459 0.65198 0.0
C2241 C 0.99892 0.23115 0.6145 0.0
H2242 H 0.97158 0.26766 0.59783 0.0
C2243 C 0.94946 0.22007 0.55269 0.0
C2244 C 0.94785 0.23394 0.54212 0.0
C2245 C 0.96039 0.22253 0.56842 0.0
C2246 C 0.97943 0.25748 0.60215 0.0
H2247 H 0.00869 0.22486 0.67979 0.0
H2248 H 0.99778 0.22138 0.64881 0.0
H2249 H 0.98657 0.2716 0.62739 0.0
H2250 H 0.95638 0.26103 0.53905 0.0
H2251 H 0.9757 0.26541 0.56658 0.0
H2252 H 0.99142 0.21687 0.58935 0.0
C2253 C 0.00417 0.23403 0.65438 0.0
C2254 C 0.98803 0.25974 0.61911 0.0
C2255 C 0.01032 0.23605 0.67219 0.0
C2256 C 0.95752 0.25019 0.54714 0.0
C2257 C 0.96846 0.25269 0.56289 0.0
C2258 C 0.9903 0.22889 0.59753 0.0
C2259 C 0.00554 0.24833 0.64412 0.0
C2260 C 0.99766 0.24649 0.62558 0.0
C2261 C 0.96983 0.23894 0.57383 0.0
C2262 C 0.98025 0.24192 0.59125 0.0
H2263 H 0.02578 0.2794 0.67549 0.0
H2264 H 0.01515 0.2758 0.64438 0.0
H2265 H 0.00647 0.22082 0.619 0.0
H2266 H 0.94197 0.20746 0.54899 0.0
H2267 H 0.96095 0.21175 0.57663 0.0
C2268 C 0.41325 0.72113 0.1567 0.0
C2269 C 0.40211 0.73307 0.1636 0.0
C2270 C 0.40822 0.71099 0.14074 0.0
C2271 C 0.37006 0.69629 0.10794 0.0
H2272 H 0.40552 0.69594 0.07483 0.0
C2273 C 0.35323 0.68397 0.03298 0.0
C2274 C 0.36431 0.6743 0.02322 0.0
C2275 C 0.35746 0.68836 0.051 0.0
C2276 C 0.39553 0.69562 0.08399 0.0
H2277 H 0.37661 0.7431 0.15955 0.0
H2278 H 0.36796 0.72562 0.13168 0.0
H2279 H 0.41352 0.70826 0.10506 0.0
H2280 H 0.38828 0.66135 0.02415 0.0
H2281 H 0.3958 0.66896 0.05579 0.0
H2282 H 0.35196 0.68408 0.08666 0.0
C2283 C 0.38051 0.72394 0.13864 0.0
C2284 C 0.40012 0.70268 0.10134 0.0
C2285 C 0.38553 0.73407 0.15459 0.0
C2286 C 0.37957 0.66881 0.03158 0.0
C2287 C 0.38387 0.67324 0.04961 0.0
C2288 C 0.36546 0.68925 0.09056 0.0
C2289 C 0.39194 0.71256 0.13134 0.0
C2290 C 0.38738 0.70337 0.11345 0.0
C2291 C 0.37294 0.68321 0.05949 0.0
C2292 C 0.37809 0.68911 0.07832 0.0
H2293 H 0.42607 0.71995 0.16338 0.0
H2294 H 0.41721 0.70214 0.13561 0.0
H2295 H 0.35999 0.69637 0.11702 0.0
H2296 H 0.34151 0.68847 0.02661 0.0
H2297 H 0.34891 0.69629 0.05815 0.0
C2298 C 0.98715 0.63413 0.7789 0.0
C2299 C 0.99122 0.61691 0.77426 0.0
C2300 C 0.99533 0.64377 0.79413 0.0
C2301 C 0.01727 0.63814 0.83745 0.0
H2302 H 0.03012 0.6883 0.83856 0.0
C2303 C 0.04497 0.67942 0.90181 0.0
C2304 C 0.03726 0.69512 0.90514 0.0
C2305 C 0.04238 0.67027 0.88507 0.0
C2306 C 0.02655 0.67431 0.83848 0.0
H2307 H 0.00732 0.59642 0.7819 0.0
H2308 H 0.02164 0.61331 0.80856 0.0
H2309 H 0.01984 0.67132 0.81063 0.0
H2310 H 0.02125 0.71398 0.89399 0.0
H2311 H 0.01657 0.69804 0.8647 0.0
H2312 H 0.02352 0.64118 0.86533 0.0
C2313 C 0.012 0.61928 0.80042 0.0
C2314 C 0.02065 0.66459 0.82248 0.0
C2315 C 0.00384 0.60963 0.78512 0.0
C2316 C 0.02744 0.70194 0.89153 0.0
C2317 C 0.02484 0.69282 0.8748 0.0
C2318 C 0.02315 0.64787 0.85345 0.0
C2319 C 0.00776 0.63643 0.80514 0.0
C2320 C 0.01564 0.64645 0.82183 0.0
C2321 C 0.03199 0.6767 0.87145 0.0
C2322 C 0.02755 0.66613 0.8542 0.0
H2323 H 0.97749 0.64017 0.77085 0.0
H2324 H 0.99156 0.65684 0.79751 0.0
H2325 H 0.01332 0.62423 0.83744 0.0
H2326 H 0.05255 0.67397 0.91227 0.0
H2327 H 0.04824 0.65801 0.88287 0.0
C2328 C 0.6147 0.42954 0.64489 0.0
C2329 C 0.62021 0.42263 0.66063 0.0
C2330 C 0.59778 0.43488 0.64221 0.0
C2331 C 0.55798 0.44458 0.66447 0.0
H2332 H 0.53323 0.4247 0.62003 0.0
C2333 C 0.48298 0.42824 0.65445 0.0
C2334 C 0.4742 0.42967 0.63795 0.0
C2335 C 0.50124 0.43171 0.65716 0.0
C2336 C 0.53996 0.4307 0.63236 0.0
H2337 H 0.61267 0.41696 0.68632 0.0
H2338 H 0.58315 0.42607 0.68158 0.0
H2339 H 0.56477 0.4234 0.62502 0.0
H2340 H 0.47702 0.43635 0.61146 0.0
H2341 H 0.50906 0.4427 0.61616 0.0
H2342 H 0.53298 0.45137 0.67199 0.0
C2343 C 0.59191 0.42749 0.67134 0.0
C2344 C 0.5581 0.42995 0.63523 0.0
C2345 C 0.60882 0.42215 0.67401 0.0
C2346 C 0.48367 0.43522 0.62431 0.0
C2347 C 0.50196 0.43873 0.62699 0.0
C2348 C 0.53982 0.44536 0.66159 0.0
C2349 C 0.58602 0.43345 0.65522 0.0
C2350 C 0.56726 0.43651 0.65146 0.0
C2351 C 0.511 0.43664 0.64335 0.0
C2352 C 0.53054 0.43805 0.64565 0.0
H2353 H 0.6232 0.43023 0.63436 0.0
H2354 H 0.59373 0.43968 0.62976 0.0
H2355 H 0.56471 0.44999 0.67702 0.0
H2356 H 0.47579 0.42385 0.66509 0.0
H2357 H 0.50776 0.42972 0.66983 0.0
C2358 C 0.84648 0.6178 0.26887 0.0
C2359 C 0.83777 0.61215 0.25221 0.0
C2360 C 0.86215 0.61107 0.27448 0.0
C2361 C 0.89944 0.59125 0.25639 0.0
H2362 H 0.91259 0.5843 0.30509 0.0
C2363 C 0.96829 0.57224 0.27881 0.0
C2364 C 0.97654 0.58219 0.29389 0.0
C2365 C 0.95028 0.57273 0.2743 0.0
C2366 C 0.90911 0.58623 0.29144 0.0
H2367 H 0.83822 0.59432 0.22871 0.0
H2368 H 0.86546 0.58243 0.2386 0.0
H2369 H 0.88266 0.59073 0.29612 0.0
H2370 H 0.97292 0.60006 0.31638 0.0
H2371 H 0.94145 0.60111 0.30853 0.0
H2372 H 0.92594 0.58719 0.25176 0.0
C2373 C 0.86034 0.59232 0.2472 0.0
C2374 C 0.89198 0.58992 0.28631 0.0
C2375 C 0.84469 0.59908 0.24157 0.0
C2376 C 0.96665 0.59222 0.30473 0.0
C2377 C 0.94866 0.59272 0.30026 0.0
C2378 C 0.91653 0.58755 0.26151 0.0
C2379 C 0.86944 0.59849 0.26357 0.0
C2380 C 0.88703 0.59278 0.26877 0.0
C2381 C 0.94033 0.58322 0.28483 0.0
C2382 C 0.92166 0.5853 0.27915 0.0
H2383 H 0.84151 0.62784 0.2774 0.0
H2384 H 0.86891 0.61626 0.28708 0.0
H2385 H 0.89617 0.59365 0.24283 0.0
H2386 H 0.97582 0.56442 0.27031 0.0
H2387 H 0.94421 0.56512 0.26244 0.0
C2388 C 0.22514 0.98514 0.34157 0.0
C2389 C 0.23103 0.9959 0.32892 0.0
C2390 C 0.20938 0.97431 0.33809 0.0
C2391 C 0.17375 0.9572 0.30287 0.0
H2392 H 0.14374 0.96363 0.34064 0.0
C2393 C 0.09859 0.95646 0.29202 0.0
C2394 C 0.08839 0.95047 0.30495 0.0
C2395 C 0.11689 0.95668 0.29427 0.0
C2396 C 0.15198 0.9613 0.33005 0.0
H2397 H 0.2257 0.0027 0.30222 0.0
H2398 H 0.19814 0.98416 0.2963 0.0
H2399 H 0.17483 0.97335 0.34585 0.0
H2400 H 0.08872 0.93926 0.32988 0.0
H2401 H 0.1208 0.93945 0.33385 0.0
H2402 H 0.15056 0.94589 0.28686 0.0
C2403 C 0.20571 0.9839 0.30886 0.0
C2404 C 0.16988 0.96688 0.33305 0.0
C2405 C 0.22149 0.99466 0.3123 0.0
C2406 C 0.09648 0.94391 0.31976 0.0
C2407 C 0.11479 0.94412 0.32204 0.0
C2408 C 0.1558 0.95165 0.29985 0.0
C2409 C 0.19916 0.97405 0.32192 0.0
C2410 C 0.1809 0.96536 0.31937 0.0
C2411 C 0.12523 0.95097 0.30955 0.0
C2412 C 0.14463 0.95409 0.31329 0.0
H2413 H 0.23229 0.98563 0.35444 0.0
H2414 H 0.20488 0.96662 0.34832 0.0
H2415 H 0.18193 0.95557 0.29213 0.0
H2416 H 0.09249 0.96169 0.28056 0.0
H2417 H 0.12452 0.96225 0.28451 0.0
C2418 C 0.34029 0.0293 0.77246 0.0
C2419 C 0.33127 0.0395 0.76095 0.0
C2420 C 0.35866 0.03056 0.7743 0.0
C2421 C 0.39663 0.04325 0.75026 0.0
H2422 H 0.42343 0.03924 0.79475 0.0
C2423 C 0.47231 0.04639 0.75635 0.0
C2424 C 0.47964 0.03357 0.76584 0.0
C2425 C 0.45456 0.04907 0.75698 0.0
C2426 C 0.41611 0.04028 0.78221 0.0
H2427 H 0.33451 0.05954 0.74287 0.0
H2428 H 0.36655 0.0619 0.74626 0.0
H2429 H 0.39167 0.04062 0.79375 0.0
H2430 H 0.47474 0.01368 0.78361 0.0
H2431 H 0.44362 0.01822 0.78471 0.0
H2432 H 0.42098 0.04267 0.73868 0.0
C2433 C 0.35941 0.05268 0.75362 0.0
C2434 C 0.39791 0.04106 0.78164 0.0
C2435 C 0.34104 0.0514 0.75176 0.0
C2436 C 0.46925 0.02371 0.77628 0.0
C2437 C 0.4515 0.02638 0.77695 0.0
C2438 C 0.4148 0.0425 0.75085 0.0
C2439 C 0.36844 0.04208 0.76471 0.0
C2440 C 0.38793 0.04238 0.76562 0.0
C2441 C 0.44389 0.03894 0.76712 0.0
C2442 C 0.42474 0.04083 0.76679 0.0
H2443 H 0.33317 0.02001 0.77976 0.0
H2444 H 0.36516 0.02206 0.78281 0.0
H2445 H 0.38932 0.04395 0.73765 0.0
H2446 H 0.48023 0.05411 0.74822 0.0
H2447 H 0.44916 0.05898 0.74944 0.0
C2448 C 0.64928 0.63423 0.43751 0.0
C2449 C 0.66324 0.64349 0.43047 0.0
C2450 C 0.65189 0.6188 0.44544 0.0
C2451 C 0.68621 0.59081 0.46156 0.0
H2452 H 0.65104 0.5527 0.4435 0.0
C2453 C 0.70063 0.51854 0.45148 0.0
C2454 C 0.68732 0.50537 0.45339 0.0
C2455 C 0.6975 0.53622 0.4539 0.0
C2456 C 0.66082 0.5632 0.44903 0.0
H2457 H 0.69113 0.64446 0.42728 0.0
H2458 H 0.6956 0.61743 0.44075 0.0
H2459 H 0.64582 0.58269 0.43851 0.0
H2460 H 0.66068 0.49985 0.45998 0.0
H2461 H 0.65512 0.53087 0.46438 0.0
H2462 H 0.70153 0.57107 0.47139 0.0
C2463 C 0.68267 0.62213 0.44035 0.0
C2464 C 0.65782 0.58045 0.44617 0.0
C2465 C 0.68007 0.63759 0.4325 0.0
C2466 C 0.6711 0.50994 0.4585 0.0
C2467 C 0.66793 0.52763 0.46091 0.0
C2468 C 0.68923 0.57351 0.4644 0.0
C2469 C 0.66849 0.61228 0.44644 0.0
C2470 C 0.67066 0.59443 0.45199 0.0
C2471 C 0.68095 0.54095 0.45816 0.0
C2472 C 0.67676 0.55947 0.45775 0.0
H2473 H 0.63618 0.63854 0.43636 0.0
H2474 H 0.64076 0.6117 0.4503 0.0
H2475 H 0.69624 0.60131 0.46647 0.0
H2476 H 0.7132 0.51515 0.4474 0.0
H2477 H 0.70772 0.54612 0.45144 0.0
C2478 C 0.78283 0.31412 0.05274 0.0
C2479 C 0.76983 0.29998 0.05248 0.0
C2480 C 0.77944 0.33116 0.0586 0.0
C2481 C 0.74764 0.35714 0.0813 0.0
H2482 H 0.75974 0.39118 0.04871 0.0
C2483 C 0.70926 0.41702 0.07011 0.0
C2484 C 0.71831 0.43243 0.06572 0.0
C2485 C 0.71821 0.40222 0.07276 0.0
C2486 C 0.75657 0.38201 0.05821 0.0
H2487 H 0.74349 0.2925 0.05923 0.0
H2488 H 0.73751 0.32216 0.06915 0.0
H2489 H 0.77094 0.36252 0.0459 0.0
H2490 H 0.74363 0.44507 0.0613 0.0
H2491 H 0.75948 0.4192 0.06611 0.0
H2492 H 0.73265 0.37651 0.09313 0.0
C2493 C 0.75038 0.32013 0.065 0.0
C2494 C 0.76301 0.36553 0.0566 0.0
C2495 C 0.75377 0.3031 0.05918 0.0
C2496 C 0.73649 0.43323 0.06473 0.0
C2497 C 0.74548 0.41842 0.06737 0.0
C2498 C 0.74116 0.37365 0.0829 0.0
C2499 C 0.76299 0.33444 0.06431 0.0
C2500 C 0.75827 0.35273 0.06783 0.0
C2501 C 0.73635 0.4026 0.07097 0.0
C2502 C 0.7452 0.38611 0.07108 0.0
H2503 H 0.79541 0.31214 0.04782 0.0
H2504 H 0.78954 0.34186 0.05818 0.0
H2505 H 0.74397 0.34767 0.09035 0.0
H2506 H 0.69515 0.4162 0.07076 0.0
H2507 H 0.71073 0.39021 0.07527 0.0
C2508 C 0.28798 0.83709 0.60814 0.0
C2509 C 0.27011 0.83085 0.60494 0.0
C2510 C 0.2945 0.85217 0.60093 0.0
C2511 C 0.27948 0.89271 0.58529 0.0
H2512 H 0.32654 0.89915 0.57054 0.0
C2513 C 0.30708 0.95912 0.56438 0.0
C2514 C 0.32411 0.96505 0.57179 0.0
C2515 C 0.30048 0.94168 0.56524 0.0
C2516 C 0.31338 0.89756 0.57467 0.0
H2517 H 0.24526 0.83506 0.59089 0.0
H2518 H 0.25669 0.86128 0.57816 0.0
H2519 H 0.31492 0.87019 0.57758 0.0
H2520 H 0.34783 0.95782 0.58553 0.0
H2521 H 0.33632 0.92731 0.58724 0.0
H2522 H 0.27806 0.92011 0.58284 0.0
C2523 C 0.26559 0.85467 0.58651 0.0
C2524 C 0.30673 0.88098 0.5787 0.0
C2525 C 0.25907 0.83959 0.59373 0.0
C2526 C 0.33468 0.95336 0.57963 0.0
C2527 C 0.3281 0.93591 0.58051 0.0
C2528 C 0.28612 0.90926 0.58126 0.0
C2529 C 0.2833 0.86134 0.59032 0.0
C2530 C 0.28981 0.87844 0.58433 0.0
C2531 C 0.31081 0.92995 0.57359 0.0
C2532 C 0.30325 0.91196 0.57618 0.0
H2533 H 0.29686 0.83066 0.61669 0.0
H2534 H 0.30816 0.85704 0.60428 0.0
H2535 H 0.2665 0.89129 0.58986 0.0
H2536 H 0.29875 0.96806 0.55831 0.0
H2537 H 0.28719 0.93744 0.5596 0.0
C2538 C 0.34409 0.2208 0.99476 0.0
C2539 C 0.32743 0.2244 -0.0003 0.0
C2540 C 0.34661 0.20436 0.98648 0.0
C2541 C 0.32307 0.16316 0.96352 0.0
H2542 H 0.3638 0.14195 0.98255 0.0
C2543 C 0.32819 0.08826 0.95842 0.0
C2544 C 0.34473 0.08219 0.95685 0.0
C2545 C 0.32646 0.10632 0.96029 0.0
C2546 C 0.35253 0.14775 0.97681 0.0
H2547 H 0.30022 0.21376 0.99916 0.0
H2548 H 0.30466 0.18507 0.98496 0.0
H2549 H 0.36011 0.17239 0.99192 0.0
H2550 H 0.37234 0.08971 0.95533 0.0
H2551 H 0.36939 0.12137 0.95833 0.0
H2552 H 0.31528 0.13828 0.94876 0.0
C2553 C 0.31575 0.19499 0.9873 0.0
C2554 C 0.35041 0.16524 0.9822 0.0
C2555 C 0.31323 0.21143 0.99557 0.0
C2556 C 0.35945 0.09424 0.95648 0.0
C2557 C 0.35776 0.11231 0.95833 0.0
C2558 C 0.32519 0.14563 0.95812 0.0
C2559 C 0.33253 0.19115 0.98294 0.0
C2560 C 0.33552 0.17308 0.97584 0.0
C2561 C 0.3413 0.11856 0.96067 0.0
C2562 C 0.33982 0.13764 0.96492 0.0
H2563 H 0.35529 0.23055 0.99763 0.0
H2564 H 0.35964 0.20192 0.98305 0.0
H2565 H 0.31158 0.16889 0.95817 0.0
H2566 H 0.31671 0.07907 0.95888 0.0
H2567 H 0.31365 0.11065 0.96227 0.0
C2568 C 0.42004 0.61813 0.612 0.0
C2569 C 0.41384 0.63287 0.6208 0.0
C2570 C 0.42412 0.61843 0.5946 0.0
C2571 C 0.4331 0.64805 0.56003 0.0
H2572 H 0.41255 0.60815 0.52815 0.0
C2573 C 0.41891 0.65169 0.48557 0.0
C2574 C 0.42054 0.63679 0.47417 0.0
C2575 C 0.42141 0.65102 0.50375 0.0
C2576 C 0.4187 0.61925 0.53687 0.0
H2577 H 0.40774 0.65973 0.61847 0.0
H2578 H 0.41477 0.66021 0.58814 0.0
H2579 H 0.41118 0.60736 0.55964 0.0
H2580 H 0.4265 0.60968 0.47231 0.0
H2581 H 0.43112 0.60843 0.50421 0.0
H2582 H 0.44028 0.6601 0.53718 0.0
C2583 C 0.41659 0.64846 0.5947 0.0
C2584 C 0.41789 0.6188 0.55495 0.0
C2585 C 0.41244 0.64813 0.61205 0.0
C2586 C 0.42518 0.62131 0.48101 0.0
C2587 C 0.42771 0.6206 0.49921 0.0
C2588 C 0.43395 0.64848 0.54193 0.0
C2589 C 0.42217 0.63351 0.58568 0.0
C2590 C 0.42478 0.63333 0.5667 0.0
C2591 C 0.42557 0.63538 0.51081 0.0
C2592 C 0.42645 0.63422 0.53011 0.0
H2593 H 0.42134 0.60618 0.61838 0.0
H2594 H 0.42858 0.60677 0.58805 0.0
H2595 H 0.43875 0.65934 0.56879 0.0
H2596 H 0.41524 0.66373 0.48043 0.0
H2597 H 0.4194 0.66255 0.51225 0.0
C2598 C 0.05518 0.72637 0.31695 0.0
C2599 C 0.04348 0.73856 0.31191 0.0
C2600 C 0.06065 0.72548 0.33467 0.0
C2601 C 0.06161 0.74892 0.37942 0.0
H2602 H 0.05979 0.70167 0.39396 0.0
C2603 C 0.05129 0.7321 0.44992 0.0
C2604 C 0.05921 0.71779 0.45617 0.0
C2605 C 0.0534 0.73656 0.43289 0.0
C2606 C 0.06074 0.71496 0.39014 0.0
H2607 H 0.02891 0.75986 0.32149 0.0
H2608 H 0.03814 0.75806 0.35242 0.0
H2609 H 0.05588 0.70584 0.36292 0.0
H2610 H 0.07608 0.69731 0.45028 0.0
H2611 H 0.08006 0.70521 0.4205 0.0
H2612 H 0.06585 0.75796 0.40683 0.0
C2613 C 0.04331 0.74935 0.34268 0.0
C2614 C 0.05848 0.71737 0.37229 0.0
C2615 C 0.03791 0.7503 0.32493 0.0
C2616 C 0.06997 0.70848 0.44564 0.0
C2617 C 0.0721 0.71292 0.4286 0.0
C2618 C 0.06383 0.7465 0.39733 0.0
C2619 C 0.05448 0.7367 0.34779 0.0
C2620 C 0.05861 0.73436 0.3667 0.0
C2621 C 0.06339 0.72667 0.42184 0.0
C2622 C 0.06314 0.72948 0.40289 0.0
H2623 H 0.05988 0.71727 0.30722 0.0
H2624 H 0.06952 0.71581 0.33812 0.0
H2625 H 0.06204 0.76219 0.37555 0.0
H2626 H 0.04277 0.73928 0.45787 0.0
H2627 H 0.04636 0.74709 0.42804 0.0
C2628 C 0.56414 0.23471 0.8463 0.0
C2629 C 0.57273 0.24909 0.83928 0.0
C2630 C 0.5566 0.23707 0.86219 0.0
C2631 C 0.54364 0.27085 0.89524 0.0
H2632 H 0.55872 0.23868 0.92857 0.0
C2633 C 0.55415 0.28933 0.96977 0.0
C2634 C 0.55152 0.27623 0.98113 0.0
C2635 C 0.55157 0.28515 0.95159 0.0
C2636 C 0.55399 0.24758 0.9194 0.0
H2637 H 0.57914 0.27736 0.84289 0.0
H2638 H 0.5662 0.28142 0.87063 0.0
H2639 H 0.56337 0.23284 0.89779 0.0
H2640 H 0.54346 0.24878 0.98293 0.0
H2641 H 0.53865 0.24136 0.95103 0.0
H2642 H 0.53486 0.28594 0.91707 0.0
C2643 C 0.56516 0.26834 0.86384 0.0
C2644 C 0.55668 0.24422 0.9017 0.0
C2645 C 0.57271 0.26599 0.84797 0.0
C2646 C 0.54549 0.25905 0.97427 0.0
C2647 C 0.54287 0.25483 0.95606 0.0
C2648 C 0.54092 0.2742 0.91296 0.0
C2649 C 0.55744 0.25385 0.87137 0.0
C2650 C 0.55199 0.25607 0.8895 0.0
C2651 C 0.54637 0.26774 0.9445 0.0
C2652 C 0.54652 0.26285 0.92533 0.0
H2653 H 0.56378 0.22153 0.83986 0.0
H2654 H 0.55052 0.22567 0.86754 0.0
H2655 H 0.53962 0.28009 0.8861 0.0
H2656 H 0.55896 0.30265 0.97492 0.0
H2657 H 0.55463 0.29537 0.94312 0.0
C2658 C 0.00347 0.36766 0.22902 0.0
C2659 C 0.00768 0.3538 0.23898 0.0
C2660 C 0.99673 0.36427 0.2114 0.0
C2661 C 0.99626 0.3309 0.17385 0.0
H2662 H 0.96216 0.35866 0.15184 0.0
C2663 C 0.97597 0.31988 0.0996 0.0
C2664 C 0.97636 0.33526 0.09099 0.0
C2665 C 0.97629 0.32086 0.11792 0.0
C2666 C 0.97171 0.35082 0.15781 0.0
H2667 H 0.00739 0.32544 0.23846 0.0
H2668 H 0.99544 0.31953 0.20784 0.0
H2669 H 0.96935 0.36279 0.18368 0.0
H2670 H 0.97681 0.36358 0.09421 0.0
H2671 H 0.97746 0.36543 0.12626 0.0
H2672 H 0.99898 0.31923 0.14803 0.0
C2673 C 0.99765 0.33305 0.21353 0.0
C2674 C 0.97586 0.3532 0.17603 0.0
C2675 C 0.00444 0.33644 0.23112 0.0
C2676 C 0.97632 0.35156 0.1007 0.0
C2677 C 0.97664 0.35258 0.11901 0.0
C2678 C 0.99211 0.3285 0.15567 0.0
C2679 C 0.994 0.34694 0.20337 0.0
C2680 C 0.98839 0.34345 0.18424 0.0
C2681 C 0.97709 0.33727 0.12788 0.0
C2682 C 0.97999 0.33862 0.14739 0.0
H2683 H 0.00579 0.38119 0.23467 0.0
H2684 H 0.99424 0.3753 0.20392 0.0
H2685 H 0.00618 0.32337 0.17967 0.0
H2686 H 0.97609 0.30718 0.09224 0.0
H2687 H 0.97639 0.30882 0.12433 0.0
loop_
_geom_bond_atom_site_label_1
_geom_bond_atom_site_label_2
_geom_bond_distance
_geom_bond_site_symmetry_2
_ccdc_geom_bond_type
O0 Cd1 2.300 . S
O0 C7 1.275 . S
Cd1 O0 2.300 . S
Cd1 O9 2.381 . S
Cd1 O10 2.378 . S
O2 Cd3 2.385 . S
O2 C7 1.255 . S
Cd3 O2 2.385 . S
Cd3 O4 2.317 . S
O4 Cd3 2.317 . S
O4 C5 1.232 . S
C5 O4 1.232 . S
C5 O6 1.218 . S
O6 C5 1.218 . S
C7 O0 1.275 . S
C7 O2 1.255 . S
C8 O9 1.258 . S
C8 O10 1.256 . S
O9 Cd1 2.381 . S
O9 C8 1.258 . S
O10 Cd1 2.378 . S
O10 C8 1.256 . S
O11 Cd12 2.300 . S
O11 C18 1.275 . S
Cd12 O11 2.300 . S
Cd12 O20 2.381 . S
Cd12 O21 2.378 . S
O13 Cd14 2.385 . S
O13 C18 1.255 . S
Cd14 O13 2.385 . S
Cd14 O15 2.317 . S
O15 Cd14 2.317 . S
O15 C16 1.232 . S
C16 O15 1.232 . S
C16 O17 1.218 . S
O17 C16 1.218 . S
C18 O11 1.275 . S
C18 O13 1.255 . S
C19 O20 1.258 . S
C19 O21 1.256 . S
O20 Cd12 2.381 . S
O20 C19 1.258 . S
O21 Cd12 2.378 . S
O21 C19 1.256 . S
O22 Cd23 2.296 1_545 S
O22 C29 1.270 1_545 S
Cd23 O22 2.296 1_565 S
Cd23 O31 2.381 1_565 S
Cd23 O32 2.378 . S
O24 Cd25 2.385 . S
O24 C29 1.255 . S
Cd25 O24 2.385 . S
Cd25 O26 2.317 . S
O26 Cd25 2.317 . S
O26 C27 1.232 . S
C27 O26 1.232 . S
C27 O28 1.218 . S
O28 C27 1.218 . S
C29 O22 1.270 1_565 S
C29 O24 1.255 . S
C30 O31 1.258 . S
C30 O32 1.256 1_545 S
O31 Cd23 2.381 1_545 S
O31 C30 1.258 . S
O32 Cd23 2.378 . S
O32 C30 1.256 1_565 S
O33 Cd34 2.300 1_565 S
O33 C40 1.275 1_565 S
Cd34 O33 2.300 1_545 S
Cd34 O42 2.381 1_545 S
Cd34 O43 2.378 . S
O35 Cd36 2.385 . S
O35 C40 1.255 . S
Cd36 O35 2.385 . S
Cd36 O37 2.317 . S
O37 Cd36 2.317 . S
O37 C38 1.232 . S
C38 O37 1.232 . S
C38 O39 1.218 . S
O39 C38 1.218 . S
C40 O33 1.275 1_545 S
C40 O35 1.255 . S
C41 O42 1.258 1_545 S
C41 O43 1.256 . S
O42 Cd34 2.381 1_565 S
O42 C41 1.258 1_565 S
O43 Cd34 2.378 . S
O43 C41 1.256 . S
O44 Cd45 2.300 . S
O44 C51 1.275 . S
Cd45 O44 2.300 . S
Cd45 O53 2.381 . S
Cd45 O54 2.378 . S
O46 Cd47 2.385 . S
O46 C51 1.255 . S
Cd47 O46 2.385 . S
Cd47 O48 2.317 . S
O48 Cd47 2.317 . S
O48 C49 1.232 . S
C49 O48 1.232 . S
C49 O50 1.218 . S
O50 C49 1.218 . S
C51 O44 1.275 . S
C51 O46 1.255 . S
C52 O53 1.258 . S
C52 O54 1.256 . S
O53 Cd45 2.381 . S
O53 C52 1.258 . S
O54 Cd45 2.378 . S
O54 C52 1.256 . S
O55 Cd56 2.300 1_556 S
O55 C62 1.275 1_556 S
Cd56 O55 2.300 1_554 S
Cd56 O64 2.381 1_554 S
Cd56 O65 2.378 . S
O57 Cd58 2.385 . S
O57 C62 1.255 . S
Cd58 O57 2.385 . S
Cd58 O59 2.317 . S
O59 Cd58 2.317 . S
O59 C60 1.232 . S
C60 O59 1.232 . S
C60 O61 1.218 . S
O61 C60 1.218 . S
C62 O55 1.275 1_554 S
C62 O57 1.255 . S
C63 O64 1.258 1_554 S
C63 O65 1.256 . S
O64 Cd56 2.381 1_556 S
O64 C63 1.258 1_556 S
O65 Cd56 2.378 . S
O65 C63 1.256 . S
O66 Cd67 2.300 . S
O66 C73 1.275 . S
Cd67 O66 2.300 . S
Cd67 O75 2.381 . S
Cd67 O76 2.378 . S
O68 Cd69 2.385 . S
O68 C73 1.255 . S
Cd69 O68 2.385 . S
Cd69 O70 2.317 . S
O70 Cd69 2.317 . S
O70 C71 1.232 . S
C71 O70 1.232 . S
C71 O72 1.218 . S
O72 C71 1.218 . S
C73 O66 1.275 . S
C73 O68 1.255 . S
C74 O75 1.258 . S
C74 O76 1.256 . S
O75 Cd67 2.381 . S
O75 C74 1.258 . S
O76 Cd67 2.378 . S
O76 C74 1.256 . S
O77 Cd78 2.296 1_554 S
O77 C84 1.270 1_554 S
Cd78 O77 2.296 1_556 S
Cd78 O86 2.381 1_556 S
Cd78 O87 2.378 . S
O79 Cd80 2.385 . S
O79 C84 1.255 . S
Cd80 O79 2.385 . S
Cd80 O81 2.317 . S
O81 Cd80 2.317 . S
O81 C82 1.232 . S
C82 O81 1.232 . S
C82 O83 1.218 . S
O83 C82 1.218 . S
C84 O77 1.270 1_556 S
C84 O79 1.255 . S
C85 O86 1.258 . S
C85 O87 1.256 1_554 S
O86 Cd78 2.381 1_554 S
O86 C85 1.258 . S
O87 Cd78 2.378 . S
O87 C85 1.256 1_556 S
O88 Cd89 2.300 . S
O88 C95 1.275 . S
Cd89 O88 2.300 . S
Cd89 O97 2.381 . S
Cd89 O98 2.378 . S
O90 Cd91 2.385 . S
O90 C95 1.255 . S
Cd91 O90 2.385 . S
Cd91 O92 2.317 . S
O92 Cd91 2.317 . S
O92 C93 1.232 . S
C93 O92 1.232 . S
C93 O94 1.218 . S
O94 C93 1.218 . S
C95 O88 1.275 . S
C95 O90 1.255 . S
C96 O97 1.258 . S
C96 O98 1.256 . S
O97 Cd89 2.381 . S
O97 C96 1.258 . S
O98 Cd89 2.378 . S
O98 C96 1.256 . S
O99 Cd100 2.300 1_655 S
O99 C106 1.275 1_655 S
Cd100 O99 2.300 1_455 S
Cd100 O108 2.381 1_455 S
Cd100 O109 2.378 . S
O101 Cd102 2.385 . S
O101 C106 1.255 . S
Cd102 O101 2.385 . S
Cd102 O103 2.317 . S
O103 Cd102 2.317 . S
O103 C104 1.232 . S
C104 O103 1.232 . S
C104 O105 1.218 . S
O105 C104 1.218 . S
C106 O99 1.275 1_455 S
C106 O101 1.255 . S
C107 O108 1.258 1_455 S
C107 O109 1.256 . S
O108 Cd100 2.381 1_655 S
O108 C107 1.258 1_655 S
O109 Cd100 2.378 . S
O109 C107 1.256 . S
O110 Cd111 2.300 . S
O110 C117 1.275 . S
Cd111 O110 2.300 . S
Cd111 O119 2.381 . S
Cd111 O120 2.378 . S
O112 Cd113 2.385 . S
O112 C117 1.255 . S
Cd113 O112 2.385 . S
Cd113 O114 2.317 . S
O114 Cd113 2.317 . S
O114 C115 1.232 . S
C115 O114 1.232 . S
C115 O116 1.218 . S
O116 C115 1.218 . S
C117 O110 1.275 . S
C117 O112 1.255 . S
C118 O119 1.258 . S
C118 O120 1.256 . S
O119 Cd111 2.381 . S
O119 C118 1.258 . S
O120 Cd111 2.378 . S
O120 C118 1.256 . S
O121 Cd122 2.296 1_455 S
O121 C128 1.270 1_455 S
Cd122 O121 2.296 1_655 S
Cd122 O130 2.381 1_655 S
Cd122 O131 2.378 . S
O123 Cd124 2.385 . S
O123 C128 1.255 . S
Cd124 O123 2.385 . S
Cd124 O125 2.317 . S
O125 Cd124 2.317 . S
O125 C126 1.232 . S
C126 O125 1.232 . S
C126 O127 1.218 . S
O127 C126 1.218 . S
C128 O121 1.270 1_655 S
C128 O123 1.255 . S
C129 O130 1.258 . S
C129 O131 1.256 1_455 S
O130 Cd122 2.381 1_455 S
O130 C129 1.258 . S
O131 Cd122 2.378 . S
O131 C129 1.256 1_655 S
O132 Cd133 2.300 . S
O132 C139 1.275 . S
Cd133 O132 2.300 . S
Cd133 O141 2.381 . S
Cd133 O142 2.378 . S
O134 Cd135 2.385 . S
O134 C139 1.255 . S
Cd135 O134 2.385 . S
Cd135 O136 2.317 . S
O136 Cd135 2.317 . S
O136 C137 1.232 . S
C137 O136 1.232 . S
C137 O138 1.218 . S
O138 C137 1.218 . S
C139 O132 1.275 . S
C139 O134 1.255 . S
C140 O141 1.258 . S
C140 O142 1.256 . S
O141 Cd133 2.381 . S
O141 C140 1.258 . S
O142 Cd133 2.378 . S
O142 C140 1.256 . S
O143 Cd144 2.300 . S
O143 C150 1.275 . S
Cd144 O143 2.300 . S
Cd144 O152 2.381 . S
Cd144 O153 2.378 . S
O145 Cd146 2.385 . S
O145 C150 1.255 . S
Cd146 O145 2.385 . S
Cd146 O147 2.317 . S
O147 Cd146 2.317 . S
O147 C148 1.232 . S
C148 O147 1.232 . S
C148 O149 1.218 . S
O149 C148 1.218 . S
C150 O143 1.275 . S
C150 O145 1.255 . S
C151 O152 1.258 . S
C151 O153 1.256 . S
O152 Cd144 2.381 . S
O152 C151 1.258 . S
O153 Cd144 2.378 . S
O153 C151 1.256 . S
O154 Cd155 2.300 1_545 S
O154 C161 1.275 . S
Cd155 O154 2.300 1_565 S
Cd155 O163 2.381 1_565 S
Cd155 O164 2.378 . S
O156 Cd157 2.385 . S
O156 C161 1.255 1_565 S
Cd157 O156 2.385 . S
Cd157 O158 2.317 . S
O158 Cd157 2.317 . S
O158 C159 1.232 . S
C159 O158 1.232 . S
C159 O160 1.218 . S
O160 C159 1.218 . S
C161 O154 1.275 . S
C161 O156 1.255 1_545 S
C162 O163 1.258 1_565 S
C162 O164 1.256 . S
O163 Cd155 2.381 1_545 S
O163 C162 1.258 1_545 S
O164 Cd155 2.378 . S
O164 C162 1.256 . S
O165 Cd166 2.300 1_565 S
O165 C172 1.275 1_565 S
Cd166 O165 2.300 1_545 S
Cd166 O174 2.381 1_545 S
Cd166 O175 2.378 . S
O167 Cd168 2.385 . S
O167 C172 1.255 . S
Cd168 O167 2.385 . S
Cd168 O169 2.317 . S
O169 Cd168 2.317 . S
O169 C170 1.232 . S
C170 O169 1.232 . S
C170 O171 1.218 . S
O171 C170 1.218 . S
C172 O165 1.275 1_545 S
C172 O167 1.255 . S
C173 O174 1.258 1_545 S
C173 O175 1.256 . S
O174 Cd166 2.381 1_565 S
O174 C173 1.258 1_565 S
O175 Cd166 2.378 . S
O175 C173 1.256 . S
O176 Cd177 2.300 . S
O176 C183 1.275 . S
Cd177 O176 2.300 . S
Cd177 O185 2.381 . S
Cd177 O186 2.378 . S
O178 Cd179 2.385 . S
O178 C183 1.255 . S
Cd179 O178 2.385 . S
Cd179 O180 2.317 . S
O180 Cd179 2.317 . S
O180 C181 1.232 . S
C181 O180 1.232 . S
C181 O182 1.218 . S
O182 C181 1.218 . S
C183 O176 1.275 . S
C183 O178 1.255 . S
C184 O185 1.258 . S
C184 O186 1.256 . S
O185 Cd177 2.381 . S
O185 C184 1.258 . S
O186 Cd177 2.378 . S
O186 C184 1.256 . S
O187 Cd188 2.300 1_556 S
O187 C194 1.275 1_556 S
Cd188 O187 2.300 1_554 S
Cd188 O196 2.381 1_554 S
Cd188 O197 2.378 . S
O189 Cd190 2.385 . S
O189 C194 1.255 . S
Cd190 O189 2.385 . S
Cd190 O191 2.317 . S
O191 Cd190 2.317 . S
O191 C192 1.232 . S
C192 O191 1.232 . S
C192 O193 1.218 . S
O193 C192 1.218 . S
C194 O187 1.275 1_554 S
C194 O189 1.255 . S
C195 O196 1.258 1_554 S
C195 O197 1.256 . S
O196 Cd188 2.381 1_556 S
O196 C195 1.258 1_556 S
O197 Cd188 2.378 . S
O197 C195 1.256 . S
O198 Cd199 2.300 . S
O198 C205 1.275 . S
Cd199 O198 2.300 . S
Cd199 O207 2.381 . S
Cd199 O208 2.378 . S
O200 Cd201 2.385 . S
O200 C205 1.255 . S
Cd201 O200 2.385 . S
Cd201 O202 2.317 . S
O202 Cd201 2.317 . S
O202 C203 1.232 . S
C203 O202 1.232 . S
C203 O204 1.218 . S
O204 C203 1.218 . S
C205 O198 1.275 . S
C205 O200 1.255 . S
C206 O207 1.258 . S
C206 O208 1.256 . S
O207 Cd199 2.381 . S
O207 C206 1.258 . S
O208 Cd199 2.378 . S
O208 C206 1.256 . S
O209 Cd210 2.300 1_554 S
O209 C216 1.275 . S
Cd210 O209 2.300 1_556 S
Cd210 O218 2.381 1_556 S
Cd210 O219 2.378 . S
O211 Cd212 2.385 . S
O211 C216 1.255 1_556 S
Cd212 O211 2.385 . S
Cd212 O213 2.317 . S
O213 Cd212 2.317 . S
O213 C214 1.232 . S
C214 O213 1.232 . S
C214 O215 1.218 . S
O215 C214 1.218 . S
C216 O209 1.275 . S
C216 O211 1.255 1_554 S
C217 O218 1.258 1_556 S
C217 O219 1.256 . S
O218 Cd210 2.381 1_554 S
O218 C217 1.258 1_554 S
O219 Cd210 2.378 . S
O219 C217 1.256 . S
O220 Cd221 2.300 . S
O220 C227 1.275 . S
Cd221 O220 2.300 . S
Cd221 O229 2.381 . S
Cd221 O230 2.378 . S
O222 Cd223 2.385 . S
O222 C227 1.255 . S
Cd223 O222 2.385 . S
Cd223 O224 2.317 . S
O224 Cd223 2.317 . S
O224 C225 1.232 . S
C225 O224 1.232 . S
C225 O226 1.218 . S
O226 C225 1.218 . S
C227 O220 1.275 . S
C227 O222 1.255 . S
C228 O229 1.258 . S
C228 O230 1.256 . S
O229 Cd221 2.381 . S
O229 C228 1.258 . S
O230 Cd221 2.378 . S
O230 C228 1.256 . S
O231 Cd232 2.300 1_655 S
O231 C238 1.275 1_655 S
Cd232 O231 2.300 1_455 S
Cd232 O240 2.381 1_455 S
Cd232 O241 2.378 . S
O233 Cd234 2.385 . S
O233 C238 1.255 . S
Cd234 O233 2.385 . S
Cd234 O235 2.317 . S
O235 Cd234 2.317 . S
O235 C236 1.232 . S
C236 O235 1.232 . S
C236 O237 1.218 . S
O237 C236 1.218 . S
C238 O231 1.275 1_455 S
C238 O233 1.255 . S
C239 O240 1.258 1_455 S
C239 O241 1.256 . S
O240 Cd232 2.381 1_655 S
O240 C239 1.258 1_655 S
O241 Cd232 2.378 . S
O241 C239 1.256 . S
O242 Cd243 2.300 . S
O242 C249 1.275 . S
Cd243 O242 2.300 . S
Cd243 O251 2.381 . S
Cd243 O252 2.378 . S
O244 Cd245 2.385 . S
O244 C249 1.255 . S
Cd245 O244 2.385 . S
Cd245 O246 2.317 . S
O246 Cd245 2.317 . S
O246 C247 1.232 . S
C247 O246 1.232 . S
C247 O248 1.218 . S
O248 C247 1.218 . S
C249 O242 1.275 . S
C249 O244 1.255 . S
C250 O251 1.258 . S
C250 O252 1.256 . S
O251 Cd243 2.381 . S
O251 C250 1.258 . S
O252 Cd243 2.378 . S
O252 C250 1.256 . S
O253 Cd254 2.300 1_455 S
O253 C260 1.275 . S
Cd254 O253 2.300 1_655 S
Cd254 O262 2.381 1_655 S
Cd254 O263 2.378 . S
O255 Cd256 2.385 . S
O255 C260 1.255 1_655 S
Cd256 O255 2.385 . S
Cd256 O257 2.317 . S
O257 Cd256 2.317 . S
O257 C258 1.232 . S
C258 O257 1.232 . S
C258 O259 1.218 . S
O259 C258 1.218 . S
C260 O253 1.275 . S
C260 O255 1.255 1_455 S
C261 O262 1.258 1_655 S
C261 O263 1.256 . S
O262 Cd254 2.381 1_455 S
O262 C261 1.258 1_455 S
O263 Cd254 2.378 . S
O263 C261 1.256 . S
H264 C267 0.929 . S
H265 C270 0.929 . S
H266 C272 0.930 . S
C267 H264 0.929 . S
C267 C268 1.398 . S
C267 C269 1.396 . S
C268 C267 1.398 . S
C268 C272 1.407 . S
C269 C267 1.396 . S
C269 C270 1.394 . S
C270 H265 0.929 . S
C270 C269 1.394 . S
C270 C271 1.382 . S
C271 C270 1.382 . S
C271 C272 1.392 . S
C271 N273 1.420 . S
C272 H266 0.930 . S
C272 C268 1.407 . S
C272 C271 1.392 . S
N273 C271 1.420 . S
N273 C274 1.244 . S
C274 N273 1.244 . S
H275 C278 0.929 . S
H276 C281 0.929 . S
H277 C283 0.930 . S
C278 H275 0.929 . S
C278 C279 1.398 . S
C278 C280 1.396 . S
C279 C278 1.398 . S
C279 C283 1.407 . S
C280 C278 1.396 . S
C280 C281 1.394 . S
C281 H276 0.929 . S
C281 C280 1.394 . S
C281 C282 1.382 . S
C282 C281 1.382 . S
C282 C283 1.392 . S
C282 N284 1.420 . S
C283 H277 0.930 . S
C283 C279 1.407 . S
C283 C282 1.392 . S
N284 C282 1.420 . S
N284 C285 1.244 . S
C285 N284 1.244 . S
H286 C289 0.929 . S
H287 C292 0.929 . S
H288 C294 0.930 . S
C289 H286 0.929 . S
C289 C290 1.398 . S
C289 C291 1.396 . S
C290 C289 1.398 . S
C290 C294 1.407 . S
C291 C289 1.396 . S
C291 C292 1.394 1_565 S
C292 H287 0.929 . S
C292 C291 1.394 1_545 S
C292 C293 1.382 . S
C293 C292 1.382 . S
C293 C294 1.392 1_545 S
C293 N295 1.420 . S
C294 H288 0.930 . S
C294 C290 1.407 . S
C294 C293 1.392 1_565 S
N295 C293 1.420 . S
N295 C296 1.244 . S
C296 N295 1.244 . S
H297 C300 0.929 . S
H298 C303 0.929 . S
H299 C305 0.930 . S
C300 H297 0.929 . S
C300 C301 1.398 . S
C300 C302 1.396 . S
C301 C300 1.398 . S
C301 C305 1.407 . S
C302 C300 1.396 . S
C302 C303 1.394 . S
C303 H298 0.929 . S
C303 C302 1.394 . S
C303 C304 1.382 . S
C304 C303 1.382 . S
C304 C305 1.392 . S
C304 N306 1.420 . S
C305 H299 0.930 . S
C305 C301 1.407 . S
C305 C304 1.392 . S
N306 C304 1.420 . S
N306 C307 1.244 . S
C307 N306 1.244 . S
H308 C311 0.929 . S
H309 C314 0.929 . S
H310 C316 0.930 . S
C311 H308 0.929 . S
C311 C312 1.398 . S
C311 C313 1.396 . S
C312 C311 1.398 . S
C312 C316 1.407 . S
C313 C311 1.396 . S
C313 C314 1.394 . S
C314 H309 0.929 . S
C314 C313 1.394 . S
C314 C315 1.382 . S
C315 C314 1.382 . S
C315 C316 1.392 . S
C315 N317 1.420 . S
C316 H310 0.930 . S
C316 C312 1.407 . S
C316 C315 1.392 . S
N317 C315 1.420 . S
N317 C318 1.244 . S
C318 N317 1.244 . S
H319 C322 0.929 . S
H320 C325 0.929 . S
H321 C327 0.930 . S
C322 H319 0.929 . S
C322 C323 1.398 . S
C322 C324 1.396 . S
C323 C322 1.398 . S
C323 C327 1.407 . S
C324 C322 1.396 . S
C324 C325 1.394 . S
C325 H320 0.929 . S
C325 C324 1.394 . S
C325 C326 1.382 . S
C326 C325 1.382 . S
C326 C327 1.392 . S
C326 N328 1.420 . S
C327 H321 0.930 . S
C327 C323 1.407 . S
C327 C326 1.392 . S
N328 C326 1.420 . S
N328 C329 1.244 . S
C329 N328 1.244 . S
H330 C333 0.929 . S
H331 C336 0.929 . S
H332 C338 0.930 . S
C333 H330 0.929 . S
C333 C334 1.398 . S
C333 C335 1.396 . S
C334 C333 1.398 . S
C334 C338 1.407 . S
C335 C333 1.396 . S
C335 C336 1.394 . S
C336 H331 0.929 . S
C336 C335 1.394 . S
C336 C337 1.382 . S
C337 C336 1.382 . S
C337 C338 1.392 . S
C337 N339 1.420 . S
C338 H332 0.930 . S
C338 C334 1.407 . S
C338 C337 1.392 . S
N339 C337 1.420 . S
N339 C340 1.244 . S
C340 N339 1.244 . S
H341 C344 0.929 . S
H342 C347 0.929 . S
H343 C349 0.930 . S
C344 H341 0.929 . S
C344 C345 1.398 . S
C344 C346 1.396 . S
C345 C344 1.398 . S
C345 C349 1.407 . S
C346 C344 1.396 . S
C346 C347 1.394 1_556 S
C347 H342 0.929 . S
C347 C346 1.394 1_554 S
C347 C348 1.382 . S
C348 C347 1.382 . S
C348 C349 1.392 1_554 S
C348 N350 1.420 . S
C349 H343 0.930 . S
C349 C345 1.407 . S
C349 C348 1.392 1_556 S
N350 C348 1.420 . S
N350 C351 1.244 . S
C351 N350 1.244 . S
H352 C355 0.929 . S
H353 C358 0.929 . S
H354 C360 0.930 . S
C355 H352 0.929 . S
C355 C356 1.398 . S
C355 C357 1.396 . S
C356 C355 1.398 . S
C356 C360 1.407 . S
C357 C355 1.396 . S
C357 C358 1.394 . S
C358 H353 0.929 . S
C358 C357 1.394 . S
C358 C359 1.382 . S
C359 C358 1.382 . S
C359 C360 1.392 . S
C359 N361 1.420 . S
C360 H354 0.930 . S
C360 C356 1.407 . S
C360 C359 1.392 . S
N361 C359 1.420 . S
N361 C362 1.244 . S
C362 N361 1.244 . S
H363 C366 0.929 . S
H364 C369 0.929 . S
H365 C371 0.930 . S
C366 H363 0.929 . S
C366 C367 1.398 . S
C366 C368 1.396 . S
C367 C366 1.398 . S
C367 C371 1.407 . S
C368 C366 1.396 . S
C368 C369 1.394 . S
C369 H364 0.929 . S
C369 C368 1.394 . S
C369 C370 1.382 . S
C370 C369 1.382 . S
C370 C371 1.392 . S
C370 N372 1.420 . S
C371 H365 0.930 . S
C371 C367 1.407 . S
C371 C370 1.392 . S
N372 C370 1.420 . S
N372 C373 1.244 . S
C373 N372 1.244 . S
H374 C377 0.929 . S
H375 C380 0.929 . S
H376 C382 0.930 . S
C377 H374 0.929 . S
C377 C378 1.398 . S
C377 C379 1.396 . S
C378 C377 1.398 . S
C378 C382 1.407 . S
C379 C377 1.396 . S
C379 C380 1.394 . S
C380 H375 0.929 . S
C380 C379 1.394 . S
C380 C381 1.382 . S
C381 C380 1.382 . S
C381 C382 1.392 . S
C381 N383 1.420 . S
C382 H376 0.930 . S
C382 C378 1.407 . S
C382 C381 1.392 . S
N383 C381 1.420 . S
N383 C384 1.244 . S
C384 N383 1.244 . S
H385 C388 0.929 . S
H386 C391 0.929 . S
H387 C393 0.930 . S
C388 H385 0.929 . S
C388 C389 1.398 . S
C388 C390 1.396 . S
C389 C388 1.398 . S
C389 C393 1.407 . S
C390 C388 1.396 . S
C390 C391 1.394 1_655 S
C391 H386 0.929 . S
C391 C390 1.394 1_455 S
C391 C392 1.382 . S
C392 C391 1.382 . S
C392 C393 1.392 1_455 S
C392 N394 1.420 . S
C393 H387 0.930 . S
C393 C389 1.407 . S
C393 C392 1.392 1_655 S
N394 C392 1.420 . S
N394 C395 1.244 . S
C395 N394 1.244 . S
H396 C399 0.929 . S
H397 C402 0.929 . S
H398 C404 0.930 . S
C399 H396 0.929 . S
C399 C400 1.398 . S
C399 C401 1.396 . S
C400 C399 1.398 . S
C400 C404 1.407 . S
C401 C399 1.396 . S
C401 C402 1.394 . S
C402 H397 0.929 . S
C402 C401 1.394 . S
C402 C403 1.382 . S
C403 C402 1.382 . S
C403 C404 1.392 . S
C403 N405 1.420 . S
C404 H398 0.930 . S
C404 C400 1.407 . S
C404 C403 1.392 . S
N405 C403 1.420 . S
N405 C406 1.244 . S
C406 N405 1.244 . S
H407 C410 0.929 . S
H408 C413 0.929 . S
H409 C415 0.930 . S
C410 H407 0.929 . S
C410 C411 1.398 . S
C410 C412 1.396 . S
C411 C410 1.398 . S
C411 C415 1.407 . S
C412 C410 1.396 . S
C412 C413 1.394 . S
C413 H408 0.929 . S
C413 C412 1.394 . S
C413 C414 1.382 . S
C414 C413 1.382 . S
C414 C415 1.392 . S
C414 N416 1.420 . S
C415 H409 0.930 . S
C415 C411 1.407 . S
C415 C414 1.392 . S
N416 C414 1.420 . S
N416 C417 1.244 . S
C417 N416 1.244 . S
H418 C421 0.929 . S
H419 C424 0.929 . S
H420 C426 0.930 . S
C421 H418 0.929 . S
C421 C422 1.398 . S
C421 C423 1.396 . S
C422 C421 1.398 . S
C422 C426 1.407 . S
C423 C421 1.396 . S
C423 C424 1.394 1_545 S
C424 H419 0.929 . S
C424 C423 1.394 1_565 S
C424 C425 1.382 . S
C425 C424 1.382 . S
C425 C426 1.392 1_565 S
C425 N427 1.420 . S
C426 H420 0.930 . S
C426 C422 1.407 . S
C426 C425 1.392 1_545 S
N427 C425 1.420 . S
N427 C428 1.244 . S
C428 N427 1.244 . S
H429 C432 0.929 . S
H430 C435 0.929 . S
H431 C437 0.930 . S
C432 H429 0.929 . S
C432 C433 1.398 . S
C432 C434 1.396 . S
C433 C432 1.398 . S
C433 C437 1.407 . S
C434 C432 1.396 . S
C434 C435 1.394 . S
C435 H430 0.929 . S
C435 C434 1.394 . S
C435 C436 1.382 . S
C436 C435 1.382 . S
C436 C437 1.392 . S
C436 N438 1.420 . S
C437 H431 0.930 . S
C437 C433 1.407 . S
C437 C436 1.392 . S
N438 C436 1.420 . S
N438 C439 1.244 . S
C439 N438 1.244 . S
H440 C443 0.929 . S
H441 C446 0.929 . S
H442 C448 0.930 . S
C443 H440 0.929 . S
C443 C444 1.398 . S
C443 C445 1.396 . S
C444 C443 1.398 . S
C444 C448 1.407 . S
C445 C443 1.396 . S
C445 C446 1.394 . S
C446 H441 0.929 . S
C446 C445 1.394 . S
C446 C447 1.382 . S
C447 C446 1.382 . S
C447 C448 1.392 . S
C447 N449 1.420 . S
C448 H442 0.930 . S
C448 C444 1.407 . S
C448 C447 1.392 . S
N449 C447 1.420 . S
N449 C450 1.244 . S
C450 N449 1.244 . S
H451 C454 0.929 . S
H452 C457 0.929 . S
H453 C459 0.930 . S
C454 H451 0.929 . S
C454 C455 1.398 . S
C454 C456 1.396 . S
C455 C454 1.398 . S
C455 C459 1.407 . S
C456 C454 1.396 . S
C456 C457 1.394 . S
C457 H452 0.929 . S
C457 C456 1.394 . S
C457 C458 1.382 . S
C458 C457 1.382 . S
C458 C459 1.392 . S
C458 N460 1.420 . S
C459 H453 0.930 . S
C459 C455 1.407 . S
C459 C458 1.392 . S
N460 C458 1.420 . S
N460 C461 1.244 . S
C461 N460 1.244 . S
H462 C465 0.929 . S
H463 C468 0.929 . S
H464 C470 0.930 . S
C465 H462 0.929 . S
C465 C466 1.398 . S
C465 C467 1.396 . S
C466 C465 1.398 . S
C466 C470 1.407 . S
C467 C465 1.396 . S
C467 C468 1.394 . S
C468 H463 0.929 . S
C468 C467 1.394 . S
C468 C469 1.382 . S
C469 C468 1.382 . S
C469 C470 1.392 . S
C469 N471 1.420 . S
C470 H464 0.930 . S
C470 C466 1.407 . S
C470 C469 1.392 . S
N471 C469 1.420 . S
N471 C472 1.244 . S
C472 N471 1.244 . S
H473 C476 0.929 . S
H474 C479 0.929 . S
H475 C481 0.930 . S
C476 H473 0.929 . S
C476 C477 1.398 . S
C476 C478 1.396 . S
C477 C476 1.398 . S
C477 C481 1.407 . S
C478 C476 1.396 . S
C478 C479 1.394 1_554 S
C479 H474 0.929 . S
C479 C478 1.394 1_556 S
C479 C480 1.382 . S
C480 C479 1.382 . S
C480 C481 1.392 1_556 S
C480 N482 1.420 . S
C481 H475 0.930 . S
C481 C477 1.407 . S
C481 C480 1.392 1_554 S
N482 C480 1.420 . S
N482 C483 1.244 . S
C483 N482 1.244 . S
H484 C487 0.929 . S
H485 C490 0.929 . S
H486 C492 0.930 . S
C487 H484 0.929 . S
C487 C488 1.398 . S
C487 C489 1.396 . S
C488 C487 1.398 . S
C488 C492 1.407 . S
C489 C487 1.396 . S
C489 C490 1.394 . S
C490 H485 0.929 . S
C490 C489 1.394 . S
C490 C491 1.382 . S
C491 C490 1.382 . S
C491 C492 1.392 . S
C491 N493 1.420 . S
C492 H486 0.930 . S
C492 C488 1.407 . S
C492 C491 1.392 . S
N493 C491 1.420 . S
N493 C494 1.244 . S
C494 N493 1.244 . S
H495 C498 0.929 . S
H496 C501 0.929 . S
H497 C503 0.930 . S
C498 H495 0.929 . S
C498 C499 1.398 . S
C498 C500 1.396 . S
C499 C498 1.398 . S
C499 C503 1.407 . S
C500 C498 1.396 . S
C500 C501 1.394 . S
C501 H496 0.929 . S
C501 C500 1.394 . S
C501 C502 1.382 . S
C502 C501 1.382 . S
C502 C503 1.392 . S
C502 N504 1.420 . S
C503 H497 0.930 . S
C503 C499 1.407 . S
C503 C502 1.392 . S
N504 C502 1.420 . S
N504 C505 1.244 . S
C505 N504 1.244 . S
H506 C509 0.929 . S
H507 C512 0.929 . S
H508 C514 0.930 . S
C509 H506 0.929 . S
C509 C510 1.398 . S
C509 C511 1.396 . S
C510 C509 1.398 . S
C510 C514 1.407 . S
C511 C509 1.396 . S
C511 C512 1.394 . S
C512 H507 0.929 . S
C512 C511 1.394 . S
C512 C513 1.382 . S
C513 C512 1.382 . S
C513 C514 1.392 . S
C513 N515 1.420 . S
C514 H508 0.930 . S
C514 C510 1.407 . S
C514 C513 1.392 . S
N515 C513 1.420 . S
N515 C516 1.244 . S
C516 N515 1.244 . S
H517 C520 0.929 . S
H518 C523 0.929 . S
H519 C525 0.930 . S
C520 H517 0.929 . S
C520 C521 1.398 . S
C520 C522 1.396 . S
C521 C520 1.398 . S
C521 C525 1.407 . S
C522 C520 1.396 . S
C522 C523 1.394 1_455 S
C523 H518 0.929 . S
C523 C522 1.394 1_655 S
C523 C524 1.382 . S
C524 C523 1.382 . S
C524 C525 1.392 1_655 S
C524 N526 1.420 . S
C525 H519 0.930 . S
C525 C521 1.407 . S
C525 C524 1.392 1_455 S
N526 C524 1.420 . S
N526 C527 1.244 . S
C527 N526 1.244 . S
C528 C529 1.349 . S
C528 C530 1.327 . S
C528 H553 0.950 . S
C529 C528 1.349 . S
C529 C545 1.349 . S
C530 C528 1.327 . S
C530 C549 1.429 . S
C530 H554 0.950 . S
C531 C548 1.574 . S
C531 C550 1.368 . S
C531 H555 0.949 . S
H532 C536 0.949 . S
C533 C534 1.349 . S
C533 C535 1.327 . S
C533 H556 0.950 . S
C534 C533 1.349 . S
C534 C546 1.349 . S
C535 C533 1.327 . S
C535 C551 1.429 . S
C535 H557 0.950 . S
C536 H532 0.949 . S
C536 C544 1.574 . S
C536 C552 1.368 . S
H537 C545 0.950 . S
H538 C543 0.950 . S
H539 C544 0.949 . S
H540 C546 0.950 . S
H541 C547 0.950 . S
H542 C548 0.949 . S
C543 H538 0.950 . S
C543 C545 1.327 . S
C543 C549 1.429 . S
C544 C536 1.574 . S
C544 H539 0.949 . S
C544 C550 1.368 . S
C545 C529 1.349 . S
C545 H537 0.950 . S
C545 C543 1.327 . S
C546 C534 1.349 . S
C546 H540 0.950 . S
C546 C547 1.327 . S
C547 H541 0.950 . S
C547 C546 1.327 . S
C547 C551 1.429 . S
C548 C531 1.574 . S
C548 H542 0.949 . S
C548 C552 1.368 . S
C549 C530 1.429 . S
C549 C543 1.429 . S
C549 C550 1.523 . S
C550 C531 1.368 . S
C550 C544 1.368 . S
C550 C549 1.523 . S
C551 C535 1.429 . S
C551 C547 1.429 . S
C551 C552 1.523 . S
C552 C536 1.368 . S
C552 C548 1.368 . S
C552 C551 1.523 . S
H553 C528 0.950 . S
H554 C530 0.950 . S
H555 C531 0.949 . S
H556 C533 0.950 . S
H557 C535 0.950 . S
C558 C559 1.349 . S
C558 C560 1.327 . S
C558 H583 0.950 . S
C559 C558 1.349 . S
C559 C575 1.349 . S
C560 C558 1.327 . S
C560 C579 1.429 . S
C560 H584 0.950 . S
C561 C578 1.574 . S
C561 C580 1.368 . S
C561 H585 0.949 . S
H562 C566 0.949 . S
C563 C564 1.349 . S
C563 C565 1.327 . S
C563 H586 0.950 . S
C564 C563 1.349 . S
C564 C576 1.349 . S
C565 C563 1.327 . S
C565 C581 1.429 . S
C565 H587 0.950 . S
C566 H562 0.949 . S
C566 C574 1.574 . S
C566 C582 1.368 . S
H567 C575 0.950 . S
H568 C573 0.950 . S
H569 C574 0.949 . S
H570 C576 0.950 . S
H571 C577 0.950 . S
H572 C578 0.949 . S
C573 H568 0.950 . S
C573 C575 1.327 . S
C573 C579 1.429 . S
C574 C566 1.574 . S
C574 H569 0.949 . S
C574 C580 1.368 . S
C575 C559 1.349 . S
C575 H567 0.950 . S
C575 C573 1.327 . S
C576 C564 1.349 . S
C576 H570 0.950 . S
C576 C577 1.327 . S
C577 H571 0.950 . S
C577 C576 1.327 . S
C577 C581 1.429 . S
C578 C561 1.574 . S
C578 H572 0.949 . S
C578 C582 1.368 . S
C579 C560 1.429 . S
C579 C573 1.429 . S
C579 C580 1.523 . S
C580 C561 1.368 . S
C580 C574 1.368 . S
C580 C579 1.523 . S
C581 C565 1.429 . S
C581 C577 1.429 . S
C581 C582 1.523 . S
C582 C566 1.368 . S
C582 C578 1.368 . S
C582 C581 1.523 . S
H583 C558 0.950 . S
H584 C560 0.950 . S
H585 C561 0.949 . S
H586 C563 0.950 . S
H587 C565 0.950 . S
C588 C589 1.349 1_565 S
C588 C590 1.327 . S
C588 H613 0.950 . S
C589 C588 1.349 1_545 S
C589 C605 1.349 . S
C590 C588 1.327 . S
C590 C609 1.429 1_565 S
C590 H614 0.950 . S
C591 C608 1.574 . S
C591 C610 1.368 . S
C591 H615 0.949 . S
H592 C596 0.949 . S
C593 C594 1.349 . S
C593 C595 1.327 . S
C593 H616 0.950 . S
C594 C593 1.349 . S
C594 C606 1.349 . S
C595 C593 1.327 . S
C595 C611 1.429 . S
C595 H617 0.950 . S
C596 H592 0.949 . S
C596 C604 1.574 . S
C596 C612 1.368 . S
H597 C605 0.950 . S
H598 C603 0.950 . S
H599 C604 0.949 1_565 S
H600 C606 0.950 . S
H601 C607 0.950 . S
H602 C608 0.949 . S
C603 H598 0.950 . S
C603 C605 1.327 . S
C603 C609 1.429 . S
C604 C596 1.574 . S
C604 H599 0.949 1_545 S
C604 C610 1.368 . S
C605 C589 1.349 . S
C605 H597 0.950 . S
C605 C603 1.327 . S
C606 C594 1.349 . S
C606 H600 0.950 . S
C606 C607 1.327 . S
C607 H601 0.950 . S
C607 C606 1.327 . S
C607 C611 1.429 . S
C608 C591 1.574 . S
C608 H602 0.949 . S
C608 C612 1.368 . S
C609 C590 1.429 1_545 S
C609 C603 1.429 . S
C609 C610 1.523 . S
C610 C591 1.368 . S
C610 C604 1.368 . S
C610 C609 1.523 . S
C611 C595 1.429 . S
C611 C607 1.429 . S
C611 C612 1.523 . S
C612 C596 1.368 . S
C612 C608 1.368 . S
C612 C611 1.523 . S
H613 C588 0.950 . S
H614 C590 0.950 . S
H615 C591 0.949 . S
H616 C593 0.950 . S
H617 C595 0.950 . S
C618 C619 1.349 . S
C618 C620 1.327 . S
C618 H643 0.950 . S
C619 C618 1.349 . S
C619 C635 1.349 1_565 S
C620 C618 1.327 . S
C620 C639 1.429 . S
C620 H644 0.950 . S
C621 C638 1.574 . S
C621 C640 1.368 . S
C621 H645 0.949 1_565 S
H622 C626 0.949 . S
C623 C624 1.349 . S
C623 C625 1.327 . S
C623 H646 0.950 . S
C624 C623 1.349 . S
C624 C636 1.349 . S
C625 C623 1.327 . S
C625 C641 1.429 . S
C625 H647 0.950 . S
C626 H622 0.949 . S
C626 C634 1.574 . S
C626 C642 1.368 . S
H627 C635 0.950 . S
H628 C633 0.950 . S
H629 C634 0.949 . S
H630 C636 0.950 . S
H631 C637 0.950 . S
H632 C638 0.949 . S
C633 H628 0.950 . S
C633 C635 1.327 . S
C633 C639 1.429 1_545 S
C634 C626 1.574 . S
C634 H629 0.949 . S
C634 C640 1.368 . S
C635 C619 1.349 1_545 S
C635 H627 0.950 . S
C635 C633 1.327 . S
C636 C624 1.349 . S
C636 H630 0.950 . S
C636 C637 1.327 . S
C637 H631 0.950 . S
C637 C636 1.327 . S
C637 C641 1.429 . S
C638 C621 1.574 . S
C638 H632 0.949 . S
C638 C642 1.368 . S
C639 C620 1.429 . S
C639 C633 1.429 1_565 S
C639 C640 1.523 . S
C640 C621 1.368 . S
C640 C634 1.368 . S
C640 C639 1.523 . S
C641 C625 1.429 . S
C641 C637 1.429 . S
C641 C642 1.523 . S
C642 C626 1.368 . S
C642 C638 1.368 . S
C642 C641 1.523 . S
H643 C618 0.950 . S
H644 C620 0.950 . S
H645 C621 0.949 1_545 S
H646 C623 0.950 . S
H647 C625 0.950 . S
C648 C649 1.349 . S
C648 C650 1.327 . S
C648 H673 0.950 . S
C649 C648 1.349 . S
C649 C665 1.349 . S
C650 C648 1.327 . S
C650 C669 1.429 . S
C650 H674 0.950 . S
C651 C668 1.574 . S
C651 C670 1.368 . S
C651 H675 0.949 . S
H652 C656 0.949 . S
C653 C654 1.349 . S
C653 C655 1.327 . S
C653 H676 0.950 . S
C654 C653 1.349 . S
C654 C666 1.349 . S
C655 C653 1.327 . S
C655 C671 1.429 . S
C655 H677 0.950 . S
C656 H652 0.949 . S
C656 C664 1.574 . S
C656 C672 1.368 . S
H657 C665 0.950 . S
H658 C663 0.950 . S
H659 C664 0.949 . S
H660 C666 0.950 . S
H661 C667 0.950 . S
H662 C668 0.949 . S
C663 H658 0.950 . S
C663 C665 1.327 . S
C663 C669 1.429 . S
C664 C656 1.574 . S
C664 H659 0.949 . S
C664 C670 1.368 . S
C665 C649 1.349 . S
C665 H657 0.950 . S
C665 C663 1.327 . S
C666 C654 1.349 . S
C666 H660 0.950 . S
C666 C667 1.327 . S
C667 H661 0.950 . S
C667 C666 1.327 . S
C667 C671 1.429 . S
C668 C651 1.574 . S
C668 H662 0.949 . S
C668 C672 1.368 . S
C669 C650 1.429 . S
C669 C663 1.429 . S
C669 C670 1.523 . S
C670 C651 1.368 . S
C670 C664 1.368 . S
C670 C669 1.523 . S
C671 C655 1.429 . S
C671 C667 1.429 . S
C671 C672 1.523 . S
C672 C656 1.368 . S
C672 C668 1.368 . S
C672 C671 1.523 . S
H673 C648 0.950 . S
H674 C650 0.950 . S
H675 C651 0.949 . S
H676 C653 0.950 . S
H677 C655 0.950 . S
C678 C679 1.349 . S
C678 C680 1.327 . S
C678 H703 0.950 . S
C679 C678 1.349 . S
C679 C695 1.349 1_556 S
C680 C678 1.327 . S
C680 C699 1.429 . S
C680 H704 0.950 . S
C681 C698 1.574 1_554 S
C681 C700 1.368 1_554 S
C681 H705 0.949 . S
H682 C686 0.949 . S
C683 C684 1.349 . S
C683 C685 1.327 . S
C683 H706 0.950 . S
C684 C683 1.349 . S
C684 C696 1.349 . S
C685 C683 1.327 . S
C685 C701 1.429 . S
C685 H707 0.950 1_556 S
C686 H682 0.949 . S
C686 C694 1.574 . S
C686 C702 1.368 . S
H687 C695 0.950 . S
H688 C693 0.950 . S
H689 C694 0.949 . S
H690 C696 0.950 . S
H691 C697 0.950 . S
H692 C698 0.949 1_554 S
C693 H688 0.950 . S
C693 C695 1.327 . S
C693 C699 1.429 1_554 S
C694 C686 1.574 . S
C694 H689 0.949 . S
C694 C700 1.368 . S
C695 C679 1.349 1_554 S
C695 H687 0.950 . S
C695 C693 1.327 . S
C696 C684 1.349 . S
C696 H690 0.950 . S
C696 C697 1.327 . S
C697 H691 0.950 . S
C697 C696 1.327 . S
C697 C701 1.429 . S
C698 C681 1.574 1_556 S
C698 H692 0.949 1_556 S
C698 C702 1.368 . S
C699 C680 1.429 . S
C699 C693 1.429 1_556 S
C699 C700 1.523 . S
C700 C681 1.368 1_556 S
C700 C694 1.368 . S
C700 C699 1.523 . S
C701 C685 1.429 . S
C701 C697 1.429 . S
C701 C702 1.523 . S
C702 C686 1.368 . S
C702 C698 1.368 . S
C702 C701 1.523 . S
H703 C678 0.950 . S
H704 C680 0.950 . S
H705 C681 0.949 . S
H706 C683 0.950 . S
H707 C685 0.950 1_554 S
C708 C709 1.349 . S
C708 C710 1.327 . S
C708 H733 0.950 . S
C709 C708 1.349 . S
C709 C725 1.349 . S
C710 C708 1.327 . S
C710 C729 1.429 . S
C710 H734 0.950 . S
C711 C728 1.574 . S
C711 C730 1.368 . S
C711 H735 0.949 . S
H712 C716 0.949 . S
C713 C714 1.349 . S
C713 C715 1.327 . S
C713 H736 0.950 . S
C714 C713 1.349 . S
C714 C726 1.349 . S
C715 C713 1.327 . S
C715 C731 1.429 . S
C715 H737 0.950 . S
C716 H712 0.949 . S
C716 C724 1.574 . S
C716 C732 1.368 . S
H717 C725 0.950 . S
H718 C723 0.950 . S
H719 C724 0.949 . S
H720 C726 0.950 . S
H721 C727 0.950 . S
H722 C728 0.949 . S
C723 H718 0.950 . S
C723 C725 1.327 . S
C723 C729 1.429 . S
C724 C716 1.574 . S
C724 H719 0.949 . S
C724 C730 1.368 . S
C725 C709 1.349 . S
C725 H717 0.950 . S
C725 C723 1.327 . S
C726 C714 1.349 . S
C726 H720 0.950 . S
C726 C727 1.327 . S
C727 H721 0.950 . S
C727 C726 1.327 . S
C727 C731 1.429 . S
C728 C711 1.574 . S
C728 H722 0.949 . S
C728 C732 1.368 . S
C729 C710 1.429 . S
C729 C723 1.429 . S
C729 C730 1.523 . S
C730 C711 1.368 . S
C730 C724 1.368 . S
C730 C729 1.523 . S
C731 C715 1.429 . S
C731 C727 1.429 . S
C731 C732 1.523 . S
C732 C716 1.368 . S
C732 C728 1.368 . S
C732 C731 1.523 . S
H733 C708 0.950 . S
H734 C710 0.950 . S
H735 C711 0.949 . S
H736 C713 0.950 . S
H737 C715 0.950 . S
C738 C739 1.349 . S
C738 C740 1.327 . S
C738 H763 0.950 . S
C739 C738 1.349 . S
C739 C755 1.349 1_554 S
C740 C738 1.327 . S
C740 C759 1.429 . S
C740 H764 0.950 . S
C741 C758 1.574 . S
C741 C760 1.368 . S
C741 H765 0.949 1_554 S
H742 C746 0.949 . S
C743 C744 1.349 . S
C743 C745 1.327 . S
C743 H766 0.950 . S
C744 C743 1.349 . S
C744 C756 1.349 . S
C745 C743 1.327 . S
C745 C761 1.429 . S
C745 H767 0.950 . S
C746 H742 0.949 . S
C746 C754 1.574 . S
C746 C762 1.368 . S
H747 C755 0.950 . S
H748 C753 0.950 . S
H749 C754 0.949 . S
H750 C756 0.950 . S
H751 C757 0.950 . S
H752 C758 0.949 . S
C753 H748 0.950 . S
C753 C755 1.327 . S
C753 C759 1.429 1_556 S
C754 C746 1.574 . S
C754 H749 0.949 . S
C754 C760 1.368 . S
C755 C739 1.349 1_556 S
C755 H747 0.950 . S
C755 C753 1.327 . S
C756 C744 1.349 . S
C756 H750 0.950 . S
C756 C757 1.327 . S
C757 H751 0.950 . S
C757 C756 1.327 . S
C757 C761 1.429 . S
C758 C741 1.574 . S
C758 H752 0.949 . S
C758 C762 1.368 . S
C759 C740 1.429 . S
C759 C753 1.429 1_554 S
C759 C760 1.523 . S
C760 C741 1.368 . S
C760 C754 1.368 . S
C760 C759 1.523 . S
C761 C745 1.429 . S
C761 C757 1.429 . S
C761 C762 1.523 . S
C762 C746 1.368 . S
C762 C758 1.368 . S
C762 C761 1.523 . S
H763 C738 0.950 . S
H764 C740 0.950 . S
H765 C741 0.949 1_556 S
H766 C743 0.950 . S
H767 C745 0.950 . S
C768 C769 1.349 . S
C768 C770 1.327 . S
C768 H793 0.950 . S
C769 C768 1.349 . S
C769 C785 1.349 . S
C770 C768 1.327 . S
C770 C789 1.429 . S
C770 H794 0.950 . S
C771 C788 1.574 . S
C771 C790 1.368 . S
C771 H795 0.949 . S
H772 C776 0.949 . S
C773 C774 1.349 . S
C773 C775 1.327 . S
C773 H796 0.950 . S
C774 C773 1.349 . S
C774 C786 1.349 . S
C775 C773 1.327 . S
C775 C791 1.429 . S
C775 H797 0.950 . S
C776 H772 0.949 . S
C776 C784 1.574 . S
C776 C792 1.368 . S
H777 C785 0.950 . S
H778 C783 0.950 . S
H779 C784 0.949 . S
H780 C786 0.950 . S
H781 C787 0.950 . S
H782 C788 0.949 . S
C783 H778 0.950 . S
C783 C785 1.327 . S
C783 C789 1.429 . S
C784 C776 1.574 . S
C784 H779 0.949 . S
C784 C790 1.368 . S
C785 C769 1.349 . S
C785 H777 0.950 . S
C785 C783 1.327 . S
C786 C774 1.349 . S
C786 H780 0.950 . S
C786 C787 1.327 . S
C787 H781 0.950 . S
C787 C786 1.327 . S
C787 C791 1.429 . S
C788 C771 1.574 . S
C788 H782 0.949 . S
C788 C792 1.368 . S
C789 C770 1.429 . S
C789 C783 1.429 . S
C789 C790 1.523 . S
C790 C771 1.368 . S
C790 C784 1.368 . S
C790 C789 1.523 . S
C791 C775 1.429 . S
C791 C787 1.429 . S
C791 C792 1.523 . S
C792 C776 1.368 . S
C792 C788 1.368 . S
C792 C791 1.523 . S
H793 C768 0.950 . S
H794 C770 0.950 . S
H795 C771 0.949 . S
H796 C773 0.950 . S
H797 C775 0.950 . S
C798 C799 1.349 1_455 S
C798 C800 1.327 . S
C798 H823 0.950 . S
C799 C798 1.349 1_655 S
C799 C815 1.349 . S
C800 C798 1.327 . S
C800 C819 1.429 1_455 S
C800 H824 0.950 . S
C801 C818 1.574 . S
C801 C820 1.368 . S
C801 H825 0.949 . S
H802 C806 0.949 . S
C803 C804 1.349 . S
C803 C805 1.327 . S
C803 H826 0.950 . S
C804 C803 1.349 . S
C804 C816 1.349 . S
C805 C803 1.327 . S
C805 C821 1.429 . S
C805 H827 0.950 . S
C806 H802 0.949 . S
C806 C814 1.574 . S
C806 C822 1.368 . S
H807 C815 0.950 . S
H808 C813 0.950 . S
H809 C814 0.949 1_455 S
H810 C816 0.950 . S
H811 C817 0.950 . S
H812 C818 0.949 . S
C813 H808 0.950 . S
C813 C815 1.327 . S
C813 C819 1.429 . S
C814 C806 1.574 . S
C814 H809 0.949 1_655 S
C814 C820 1.368 . S
C815 C799 1.349 . S
C815 H807 0.950 . S
C815 C813 1.327 . S
C816 C804 1.349 . S
C816 H810 0.950 . S
C816 C817 1.327 . S
C817 H811 0.950 . S
C817 C816 1.327 . S
C817 C821 1.429 . S
C818 C801 1.574 . S
C818 H812 0.949 . S
C818 C822 1.368 . S
C819 C800 1.429 1_655 S
C819 C813 1.429 . S
C819 C820 1.523 . S
C820 C801 1.368 . S
C820 C814 1.368 . S
C820 C819 1.523 . S
C821 C805 1.429 . S
C821 C817 1.429 . S
C821 C822 1.523 . S
C822 C806 1.368 . S
C822 C818 1.368 . S
C822 C821 1.523 . S
H823 C798 0.950 . S
H824 C800 0.950 . S
H825 C801 0.949 . S
H826 C803 0.950 . S
H827 C805 0.950 . S
C828 C829 1.349 . S
C828 C830 1.327 . S
C828 H853 0.950 . S
C829 C828 1.349 . S
C829 C845 1.349 . S
C830 C828 1.327 . S
C830 C849 1.429 . S
C830 H854 0.950 . S
C831 C848 1.574 . S
C831 C850 1.368 . S
C831 H855 0.949 . S
H832 C836 0.949 . S
C833 C834 1.349 . S
C833 C835 1.327 . S
C833 H856 0.950 . S
C834 C833 1.349 . S
C834 C846 1.349 . S
C835 C833 1.327 . S
C835 C851 1.429 . S
C835 H857 0.950 . S
C836 H832 0.949 . S
C836 C844 1.574 . S
C836 C852 1.368 . S
H837 C845 0.950 . S
H838 C843 0.950 . S
H839 C844 0.949 . S
H840 C846 0.950 . S
H841 C847 0.950 . S
H842 C848 0.949 . S
C843 H838 0.950 . S
C843 C845 1.327 . S
C843 C849 1.429 . S
C844 C836 1.574 . S
C844 H839 0.949 . S
C844 C850 1.368 . S
C845 C829 1.349 . S
C845 H837 0.950 . S
C845 C843 1.327 . S
C846 C834 1.349 . S
C846 H840 0.950 . S
C846 C847 1.327 . S
C847 H841 0.950 . S
C847 C846 1.327 . S
C847 C851 1.429 . S
C848 C831 1.574 . S
C848 H842 0.949 . S
C848 C852 1.368 . S
C849 C830 1.429 . S
C849 C843 1.429 . S
C849 C850 1.523 . S
C850 C831 1.368 . S
C850 C844 1.368 . S
C850 C849 1.523 . S
C851 C835 1.429 . S
C851 C847 1.429 . S
C851 C852 1.523 . S
C852 C836 1.368 . S
C852 C848 1.368 . S
C852 C851 1.523 . S
H853 C828 0.950 . S
H854 C830 0.950 . S
H855 C831 0.949 . S
H856 C833 0.950 . S
H857 C835 0.950 . S
C858 C859 1.349 1_655 S
C858 C860 1.327 . S
C858 H883 0.950 . S
C859 C858 1.349 1_455 S
C859 C875 1.349 . S
C860 C858 1.327 . S
C860 C879 1.429 1_655 S
C860 H884 0.950 . S
C861 C878 1.574 . S
C861 C880 1.368 . S
C861 H885 0.949 . S
H862 C866 0.949 1_655 S
C863 C864 1.349 . S
C863 C865 1.327 . S
C863 H886 0.950 . S
C864 C863 1.349 . S
C864 C876 1.349 . S
C865 C863 1.327 . S
C865 C881 1.429 . S
C865 H887 0.950 . S
C866 H862 0.949 1_455 S
C866 C874 1.591 . S
C866 C882 1.368 . S
H867 C875 0.950 . S
H868 C873 0.950 . S
H869 C874 0.887 1_655 S
H870 C876 0.950 . S
H871 C877 0.998 . S
H872 C878 0.949 . S
C873 H868 0.950 . S
C873 C875 1.327 . S
C873 C879 1.429 . S
C874 C866 1.591 . S
C874 H869 0.887 1_455 S
C874 C880 1.421 . S
C875 C859 1.349 . S
C875 H867 0.950 . S
C875 C873 1.327 . S
C876 C864 1.349 . S
C876 H870 0.950 . S
C876 C877 1.327 . S
C877 H871 0.998 . S
C877 C876 1.327 . S
C877 C881 1.429 . S
C878 C861 1.574 . S
C878 H872 0.949 . S
C878 C882 1.368 . S
C879 C860 1.429 1_455 S
C879 C873 1.429 . S
C879 C880 1.523 . S
C880 C861 1.368 . S
C880 C874 1.421 . S
C880 C879 1.523 . S
C881 C865 1.429 . S
C881 C877 1.429 . S
C881 C882 1.523 . S
C882 C866 1.368 . S
C882 C878 1.368 . S
C882 C881 1.523 . S
H883 C858 0.950 . S
H884 C860 0.950 . S
H885 C861 0.949 . S
H886 C863 0.950 . S
H887 C865 0.950 . S
C888 C889 1.349 . S
C888 C890 1.327 . S
C888 H913 0.950 . S
C889 C888 1.349 . S
C889 C905 1.349 . S
C890 C888 1.327 . S
C890 C909 1.429 . S
C890 H914 0.950 . S
C891 C908 1.574 . S
C891 C910 1.368 . S
C891 H915 0.949 . S
H892 C896 0.949 . S
C893 C894 1.349 . S
C893 C895 1.327 . S
C893 H916 0.950 . S
C894 C893 1.349 . S
C894 C906 1.349 . S
C895 C893 1.327 . S
C895 C911 1.429 . S
C895 H917 0.950 . S
C896 H892 0.949 . S
C896 C904 1.574 . S
C896 C912 1.368 . S
H897 C905 0.950 . S
H898 C903 0.950 . S
H899 C904 0.949 . S
H900 C906 0.950 . S
H901 C907 0.950 . S
H902 C908 0.949 . S
C903 H898 0.950 . S
C903 C905 1.327 . S
C903 C909 1.429 . S
C904 C896 1.574 . S
C904 H899 0.949 . S
C904 C910 1.368 . S
C905 C889 1.349 . S
C905 H897 0.950 . S
C905 C903 1.327 . S
C906 C894 1.349 . S
C906 H900 0.950 . S
C906 C907 1.327 . S
C907 H901 0.950 . S
C907 C906 1.327 . S
C907 C911 1.429 . S
C908 C891 1.574 . S
C908 H902 0.949 . S
C908 C912 1.368 . S
C909 C890 1.429 . S
C909 C903 1.429 . S
C909 C910 1.523 . S
C910 C891 1.368 . S
C910 C904 1.368 . S
C910 C909 1.523 . S
C911 C895 1.429 . S
C911 C907 1.429 . S
C911 C912 1.523 . S
C912 C896 1.368 . S
C912 C908 1.368 . S
C912 C911 1.523 . S
H913 C888 0.950 . S
H914 C890 0.950 . S
H915 C891 0.949 . S
H916 C893 0.950 . S
H917 C895 0.950 . S
C918 C919 1.349 . S
C918 C920 1.327 . S
C918 H943 0.950 . S
C919 C918 1.349 . S
C919 C935 1.349 . S
C920 C918 1.327 . S
C920 C939 1.429 . S
C920 H944 0.950 . S
C921 C938 1.574 . S
C921 C940 1.368 . S
C921 H945 0.949 . S
H922 C926 0.949 . S
C923 C924 1.349 . S
C923 C925 1.327 . S
C923 H946 0.950 . S
C924 C923 1.349 . S
C924 C936 1.349 . S
C925 C923 1.327 . S
C925 C941 1.429 . S
C925 H947 0.950 . S
C926 H922 0.949 . S
C926 C934 1.574 . S
C926 C942 1.368 . S
H927 C935 0.950 . S
H928 C933 0.950 . S
H929 C934 0.949 . S
H930 C936 0.950 . S
H931 C937 0.950 . S
H932 C938 0.949 . S
C933 H928 0.950 . S
C933 C935 1.327 . S
C933 C939 1.429 . S
C934 C926 1.574 . S
C934 H929 0.949 . S
C934 C940 1.368 . S
C935 C919 1.349 . S
C935 H927 0.950 . S
C935 C933 1.327 . S
C936 C924 1.349 . S
C936 H930 0.950 . S
C936 C937 1.327 . S
C937 H931 0.950 . S
C937 C936 1.327 . S
C937 C941 1.429 . S
C938 C921 1.574 . S
C938 H932 0.949 . S
C938 C942 1.368 . S
C939 C920 1.429 . S
C939 C933 1.429 . S
C939 C940 1.523 . S
C940 C921 1.368 . S
C940 C934 1.368 . S
C940 C939 1.523 . S
C941 C925 1.429 . S
C941 C937 1.429 . S
C941 C942 1.523 . S
C942 C926 1.368 . S
C942 C938 1.368 . S
C942 C941 1.523 . S
H943 C918 0.950 . S
H944 C920 0.950 . S
H945 C921 0.949 . S
H946 C923 0.950 . S
H947 C925 0.950 . S
C948 C949 1.349 1_545 S
C948 C950 1.327 . S
C948 H973 0.950 . S
C949 C948 1.349 1_565 S
C949 C965 1.349 . S
C950 C948 1.327 . S
C950 C969 1.429 1_545 S
C950 H974 0.950 . S
C951 C968 1.574 . S
C951 C970 1.368 . S
C951 H975 0.949 . S
H952 C956 0.949 1_545 S
C953 C954 1.349 . S
C953 C955 1.327 . S
C953 H976 0.950 . S
C954 C953 1.349 . S
C954 C966 1.349 . S
C955 C953 1.327 . S
C955 C971 1.429 . S
C955 H977 0.950 . S
C956 H952 0.949 1_565 S
C956 C964 1.574 . S
C956 C972 1.368 . S
H957 C965 0.950 . S
H958 C963 0.950 . S
H959 C964 0.949 1_545 S
H960 C966 0.950 . S
H961 C967 0.950 . S
H962 C968 0.949 . S
C963 H958 0.950 . S
C963 C965 1.327 . S
C963 C969 1.429 . S
C964 C956 1.574 . S
C964 H959 0.949 1_565 S
C964 C970 1.368 . S
C965 C949 1.349 . S
C965 H957 0.950 . S
C965 C963 1.327 . S
C966 C954 1.349 . S
C966 H960 0.950 . S
C966 C967 1.327 . S
C967 H961 0.950 . S
C967 C966 1.327 . S
C967 C971 1.429 . S
C968 C951 1.574 . S
C968 H962 0.949 . S
C968 C972 1.368 . S
C969 C950 1.429 1_565 S
C969 C963 1.429 . S
C969 C970 1.523 . S
C970 C951 1.368 . S
C970 C964 1.368 . S
C970 C969 1.523 . S
C971 C955 1.429 . S
C971 C967 1.429 . S
C971 C972 1.523 . S
C972 C956 1.368 . S
C972 C968 1.368 . S
C972 C971 1.523 . S
H973 C948 0.950 . S
H974 C950 0.950 . S
H975 C951 0.949 . S
H976 C953 0.950 . S
H977 C955 0.950 . S
C978 C979 1.349 . S
C978 C980 1.327 . S
C978 H1003 0.950 . S
C979 C978 1.349 . S
C979 C995 1.349 1_545 S
C980 C978 1.327 . S
C980 C999 1.429 . S
C980 H1004 0.950 . S
C981 C998 1.574 . S
C981 C1000 1.368 . S
C981 H1005 0.949 1_545 S
H982 C986 0.949 . S
C983 C984 1.349 . S
C983 C985 1.327 . S
C983 H1006 0.950 . S
C984 C983 1.349 . S
C984 C996 1.349 . S
C985 C983 1.327 . S
C985 C1001 1.429 . S
C985 H1007 0.950 . S
C986 H982 0.949 . S
C986 C994 1.574 . S
C986 C1002 1.368 . S
H987 C995 0.950 . S
H988 C993 0.950 . S
H989 C994 0.949 . S
H990 C996 0.950 . S
H991 C997 0.950 . S
H992 C998 0.948 . S
C993 H988 0.950 . S
C993 C995 1.327 . S
C993 C999 1.429 1_565 S
C994 C986 1.574 . S
C994 H989 0.949 . S
C994 C1000 1.368 . S
C995 C979 1.349 1_565 S
C995 H987 0.950 . S
C995 C993 1.327 . S
C996 C984 1.349 . S
C996 H990 0.950 . S
C996 C997 1.327 . S
C997 H991 0.950 . S
C997 C996 1.327 . S
C997 C1001 1.429 . S
C998 C981 1.574 . S
C998 H992 0.948 . S
C998 C1002 1.368 . S
C999 C980 1.429 . S
C999 C993 1.429 1_545 S
C999 C1000 1.523 . S
C1000 C981 1.368 . S
C1000 C994 1.368 . S
C1000 C999 1.523 . S
C1001 C985 1.429 . S
C1001 C997 1.429 . S
C1001 C1002 1.523 . S
C1002 C986 1.368 . S
C1002 C998 1.368 . S
C1002 C1001 1.523 . S
H1003 C978 0.950 . S
H1004 C980 0.950 . S
H1005 C981 0.949 1_565 S
H1006 C983 0.950 . S
H1007 C985 0.950 . S
C1008 C1009 1.349 . S
C1008 C1010 1.327 . S
C1008 H1033 0.950 . S
C1009 C1008 1.349 . S
C1009 C1025 1.349 . S
C1010 C1008 1.327 . S
C1010 C1029 1.429 . S
C1010 H1034 0.950 . S
C1011 C1028 1.574 . S
C1011 C1030 1.368 . S
C1011 H1035 0.949 . S
H1012 C1016 0.949 . S
C1013 C1014 1.349 . S
C1013 C1015 1.327 . S
C1013 H1036 0.950 . S
C1014 C1013 1.349 . S
C1014 C1026 1.349 . S
C1015 C1013 1.327 . S
C1015 C1031 1.429 . S
C1015 H1037 0.950 . S
C1016 H1012 0.949 . S
C1016 C1024 1.574 . S
C1016 C1032 1.368 . S
H1017 C1025 0.950 . S
H1018 C1023 0.950 . S
H1019 C1024 0.949 . S
H1020 C1026 0.950 . S
H1021 C1027 0.950 . S
H1022 C1028 0.949 . S
C1023 H1018 0.950 . S
C1023 C1025 1.327 . S
C1023 C1029 1.429 . S
C1024 C1016 1.574 . S
C1024 H1019 0.949 . S
C1024 C1030 1.368 . S
C1025 C1009 1.349 . S
C1025 H1017 0.950 . S
C1025 C1023 1.327 . S
C1026 C1014 1.349 . S
C1026 H1020 0.950 . S
C1026 C1027 1.327 . S
C1027 H1021 0.950 . S
C1027 C1026 1.327 . S
C1027 C1031 1.429 . S
C1028 C1011 1.574 . S
C1028 H1022 0.949 . S
C1028 C1032 1.368 . S
C1029 C1010 1.429 . S
C1029 C1023 1.429 . S
C1029 C1030 1.523 . S
C1030 C1011 1.368 . S
C1030 C1024 1.368 . S
C1030 C1029 1.523 . S
C1031 C1015 1.429 . S
C1031 C1027 1.429 . S
C1031 C1032 1.523 . S
C1032 C1016 1.368 . S
C1032 C1028 1.368 . S
C1032 C1031 1.523 . S
H1033 C1008 0.950 . S
H1034 C1010 0.950 . S
H1035 C1011 0.949 . S
H1036 C1013 0.950 . S
H1037 C1015 0.950 . S
C1038 C1039 1.349 1_556 S
C1038 C1040 1.327 . S
C1038 H1063 0.950 . S
C1039 C1038 1.349 1_554 S
C1039 C1055 1.349 . S
C1040 C1038 1.327 . S
C1040 C1059 1.429 1_556 S
C1040 H1064 0.950 . S
C1041 C1058 1.574 . S
C1041 C1060 1.368 . S
C1041 H1065 0.949 . S
H1042 C1046 0.928 1_556 S
C1043 C1044 1.349 . S
C1043 C1045 1.327 . S
C1043 H1066 0.950 . S
C1044 C1043 1.349 . S
C1044 C1056 1.349 . S
C1045 C1043 1.327 . S
C1045 C1061 1.429 . S
C1045 H1067 0.950 . S
C1046 H1042 0.928 1_554 S
C1046 C1054 1.565 1_554 S
C1046 C1062 1.401 . S
H1047 C1055 0.950 . S
H1048 C1053 0.950 . S
H1049 C1054 0.949 . S
H1050 C1056 0.950 . S
H1051 C1057 0.950 1_556 S
H1052 C1058 0.949 . S
C1053 H1048 0.950 . S
C1053 C1055 1.327 . S
C1053 C1059 1.429 . S
C1054 C1046 1.565 1_556 S
C1054 H1049 0.949 . S
C1054 C1060 1.368 1_556 S
C1055 C1039 1.349 . S
C1055 H1047 0.950 . S
C1055 C1053 1.327 . S
C1056 C1044 1.349 . S
C1056 H1050 0.950 . S
C1056 C1057 1.327 . S
C1057 H1051 0.950 1_554 S
C1057 C1056 1.327 . S
C1057 C1061 1.429 . S
C1058 C1041 1.574 . S
C1058 H1052 0.949 . S
C1058 C1062 1.368 . S
C1059 C1040 1.429 1_554 S
C1059 C1053 1.429 . S
C1059 C1060 1.523 . S
C1060 C1041 1.368 . S
C1060 C1054 1.368 1_554 S
C1060 C1059 1.523 . S
C1061 C1045 1.429 . S
C1061 C1057 1.429 . S
C1061 C1062 1.523 . S
C1062 C1046 1.401 . S
C1062 C1058 1.368 . S
C1062 C1061 1.523 . S
H1063 C1038 0.950 . S
H1064 C1040 0.950 . S
H1065 C1041 0.949 . S
H1066 C1043 0.950 . S
H1067 C1045 0.950 . S
C1068 C1069 1.349 . S
C1068 C1070 1.327 . S
C1068 H1093 0.950 . S
C1069 C1068 1.349 . S
C1069 C1085 1.349 . S
C1070 C1068 1.327 . S
C1070 C1089 1.429 . S
C1070 H1094 0.950 . S
C1071 C1088 1.574 . S
C1071 C1090 1.368 . S
C1071 H1095 0.949 . S
H1072 C1076 0.949 . S
C1073 C1074 1.349 . S
C1073 C1075 1.327 . S
C1073 H1096 0.950 . S
C1074 C1073 1.349 . S
C1074 C1086 1.349 . S
C1075 C1073 1.327 . S
C1075 C1091 1.429 . S
C1075 H1097 0.950 . S
C1076 H1072 0.949 . S
C1076 C1084 1.574 . S
C1076 C1092 1.368 . S
H1077 C1085 0.950 . S
H1078 C1083 0.950 . S
H1079 C1084 0.949 . S
H1080 C1086 0.950 . S
H1081 C1087 0.950 . S
H1082 C1088 0.949 . S
C1083 H1078 0.950 . S
C1083 C1085 1.327 . S
C1083 C1089 1.429 . S
C1084 C1076 1.574 . S
C1084 H1079 0.949 . S
C1084 C1090 1.368 . S
C1085 C1069 1.349 . S
C1085 H1077 0.950 . S
C1085 C1083 1.327 . S
C1086 C1074 1.349 . S
C1086 H1080 0.950 . S
C1086 C1087 1.327 . S
C1087 H1081 0.950 . S
C1087 C1086 1.327 . S
C1087 C1091 1.429 . S
C1088 C1071 1.574 . S
C1088 H1082 0.949 . S
C1088 C1092 1.368 . S
C1089 C1070 1.429 . S
C1089 C1083 1.429 . S
C1089 C1090 1.523 . S
C1090 C1071 1.368 . S
C1090 C1084 1.368 . S
C1090 C1089 1.523 . S
C1091 C1075 1.429 . S
C1091 C1087 1.429 . S
C1091 C1092 1.523 . S
C1092 C1076 1.368 . S
C1092 C1088 1.368 . S
C1092 C1091 1.523 . S
H1093 C1068 0.950 . S
H1094 C1070 0.950 . S
H1095 C1071 0.949 . S
H1096 C1073 0.950 . S
H1097 C1075 0.950 . S
C1098 C1099 1.349 1_554 S
C1098 C1100 1.330 . S
C1098 H1123 0.950 . S
C1099 C1098 1.349 1_556 S
C1099 C1115 1.349 . S
C1100 C1098 1.330 . S
C1100 C1119 1.421 1_554 S
C1100 H1124 0.955 . S
C1101 C1118 1.574 . S
C1101 C1120 1.368 . S
C1101 H1125 0.949 . S
H1102 C1106 0.949 . S
C1103 C1104 1.349 . S
C1103 C1105 1.327 . S
C1103 H1126 0.950 . S
C1104 C1103 1.349 . S
C1104 C1116 1.349 . S
C1105 C1103 1.327 . S
C1105 C1121 1.429 . S
C1105 H1127 0.950 . S
C1106 H1102 0.949 . S
C1106 C1114 1.574 . S
C1106 C1122 1.368 . S
H1107 C1115 0.950 . S
H1108 C1113 0.950 . S
H1109 C1114 0.949 1_554 S
H1110 C1116 0.950 . S
H1111 C1117 0.950 . S
H1112 C1118 0.949 . S
C1113 H1108 0.950 . S
C1113 C1115 1.327 . S
C1113 C1119 1.429 . S
C1114 C1106 1.574 . S
C1114 H1109 0.949 1_556 S
C1114 C1120 1.368 . S
C1115 C1099 1.349 . S
C1115 H1107 0.950 . S
C1115 C1113 1.327 . S
C1116 C1104 1.349 . S
C1116 H1110 0.950 . S
C1116 C1117 1.327 . S
C1117 H1111 0.950 . S
C1117 C1116 1.327 . S
C1117 C1121 1.429 . S
C1118 C1101 1.574 . S
C1118 H1112 0.949 . S
C1118 C1122 1.368 . S
C1119 C1100 1.421 1_556 S
C1119 C1113 1.429 . S
C1119 C1120 1.523 . S
C1120 C1101 1.368 . S
C1120 C1114 1.368 . S
C1120 C1119 1.523 . S
C1121 C1105 1.429 . S
C1121 C1117 1.429 . S
C1121 C1122 1.523 . S
C1122 C1106 1.368 . S
C1122 C1118 1.368 . S
C1122 C1121 1.523 . S
H1123 C1098 0.950 . S
H1124 C1100 0.955 . S
H1125 C1101 0.949 . S
H1126 C1103 0.950 . S
H1127 C1105 0.950 . S
C1128 C1129 1.349 . S
C1128 C1130 1.327 . S
C1128 H1153 0.950 . S
C1129 C1128 1.349 . S
C1129 C1145 1.349 . S
C1130 C1128 1.327 . S
C1130 C1149 1.429 . S
C1130 H1154 0.950 . S
C1131 C1148 1.574 . S
C1131 C1150 1.368 . S
C1131 H1155 0.949 . S
H1132 C1136 0.949 . S
C1133 C1134 1.349 . S
C1133 C1135 1.327 . S
C1133 H1156 0.950 . S
C1134 C1133 1.349 . S
C1134 C1146 1.349 . S
C1135 C1133 1.327 . S
C1135 C1151 1.429 . S
C1135 H1157 0.950 . S
C1136 H1132 0.949 . S
C1136 C1144 1.574 . S
C1136 C1152 1.368 . S
H1137 C1145 0.950 . S
H1138 C1143 0.950 . S
H1139 C1144 0.949 . S
H1140 C1146 0.950 . S
H1141 C1147 0.950 . S
H1142 C1148 0.949 . S
C1143 H1138 0.950 . S
C1143 C1145 1.327 . S
C1143 C1149 1.429 . S
C1144 C1136 1.574 . S
C1144 H1139 0.949 . S
C1144 C1150 1.368 . S
C1145 C1129 1.349 . S
C1145 H1137 0.950 . S
C1145 C1143 1.327 . S
C1146 C1134 1.349 . S
C1146 H1140 0.950 . S
C1146 C1147 1.327 . S
C1147 H1141 0.950 . S
C1147 C1146 1.327 . S
C1147 C1151 1.429 . S
C1148 C1131 1.574 . S
C1148 H1142 0.949 . S
C1148 C1152 1.368 . S
C1149 C1130 1.429 . S
C1149 C1143 1.429 . S
C1149 C1150 1.523 . S
C1150 C1131 1.368 . S
C1150 C1144 1.368 . S
C1150 C1149 1.523 . S
C1151 C1135 1.429 . S
C1151 C1147 1.429 . S
C1151 C1152 1.523 . S
C1152 C1136 1.368 . S
C1152 C1148 1.368 . S
C1152 C1151 1.523 . S
H1153 C1128 0.950 . S
H1154 C1130 0.950 . S
H1155 C1131 0.949 . S
H1156 C1133 0.950 . S
H1157 C1135 0.950 . S
C1158 C1159 1.349 . S
C1158 C1160 1.327 . S
C1158 H1183 0.950 . S
C1159 C1158 1.349 . S
C1159 C1175 1.349 1_455 S
C1160 C1158 1.327 . S
C1160 C1179 1.429 . S
C1160 H1184 0.950 . S
C1161 C1178 1.574 . S
C1161 C1180 1.368 . S
C1161 H1185 0.949 1_455 S
H1162 C1166 0.949 . S
C1163 C1164 1.349 . S
C1163 C1165 1.327 . S
C1163 H1186 0.950 . S
C1164 C1163 1.349 . S
C1164 C1176 1.349 . S
C1165 C1163 1.327 . S
C1165 C1181 1.429 . S
C1165 H1187 0.950 . S
C1166 H1162 0.949 . S
C1166 C1174 1.574 . S
C1166 C1182 1.368 . S
H1167 C1175 0.950 . S
H1168 C1173 0.950 . S
H1169 C1174 0.949 . S
H1170 C1176 0.950 . S
H1171 C1177 0.950 . S
H1172 C1178 0.963 . S
C1173 H1168 0.950 . S
C1173 C1175 1.327 . S
C1173 C1179 1.429 1_655 S
C1174 C1166 1.574 . S
C1174 H1169 0.949 . S
C1174 C1180 1.368 . S
C1175 C1159 1.349 1_655 S
C1175 H1167 0.950 . S
C1175 C1173 1.327 . S
C1176 C1164 1.349 . S
C1176 H1170 0.950 . S
C1176 C1177 1.327 . S
C1177 H1171 0.950 . S
C1177 C1176 1.327 . S
C1177 C1181 1.429 . S
C1178 C1161 1.574 . S
C1178 H1172 0.963 . S
C1178 C1182 1.368 . S
C1179 C1160 1.429 . S
C1179 C1173 1.429 1_455 S
C1179 C1180 1.523 . S
C1180 C1161 1.368 . S
C1180 C1174 1.368 . S
C1180 C1179 1.523 . S
C1181 C1165 1.429 . S
C1181 C1177 1.429 . S
C1181 C1182 1.523 . S
C1182 C1166 1.368 . S
C1182 C1178 1.368 . S
C1182 C1181 1.523 . S
H1183 C1158 0.950 . S
H1184 C1160 0.950 . S
H1185 C1161 0.949 1_655 S
H1186 C1163 0.950 . S
H1187 C1165 0.950 . S
C1188 C1189 1.349 . S
C1188 C1190 1.327 . S
C1188 H1213 0.950 . S
C1189 C1188 1.349 . S
C1189 C1205 1.349 . S
C1190 C1188 1.327 . S
C1190 C1209 1.429 . S
C1190 H1214 0.950 . S
C1191 C1208 1.574 . S
C1191 C1210 1.368 . S
C1191 H1215 0.949 . S
H1192 C1196 0.949 . S
C1193 C1194 1.349 . S
C1193 C1195 1.327 . S
C1193 H1216 0.950 . S
C1194 C1193 1.349 . S
C1194 C1206 1.349 . S
C1195 C1193 1.327 . S
C1195 C1211 1.429 . S
C1195 H1217 0.950 . S
C1196 H1192 0.949 . S
C1196 C1204 1.574 . S
C1196 C1212 1.368 . S
H1197 C1205 0.950 . S
H1198 C1203 0.950 . S
H1199 C1204 0.949 . S
H1200 C1206 0.950 . S
H1201 C1207 0.950 . S
H1202 C1208 0.949 . S
C1203 H1198 0.950 . S
C1203 C1205 1.327 . S
C1203 C1209 1.429 . S
C1204 C1196 1.574 . S
C1204 H1199 0.949 . S
C1204 C1210 1.368 . S
C1205 C1189 1.349 . S
C1205 H1197 0.950 . S
C1205 C1203 1.327 . S
C1206 C1194 1.349 . S
C1206 H1200 0.950 . S
C1206 C1207 1.327 . S
C1207 H1201 0.950 . S
C1207 C1206 1.327 . S
C1207 C1211 1.429 . S
C1208 C1191 1.574 . S
C1208 H1202 0.949 . S
C1208 C1212 1.368 . S
C1209 C1190 1.429 . S
C1209 C1203 1.429 . S
C1209 C1210 1.523 . S
C1210 C1191 1.368 . S
C1210 C1204 1.368 . S
C1210 C1209 1.523 . S
C1211 C1195 1.429 . S
C1211 C1207 1.429 . S
C1211 C1212 1.523 . S
C1212 C1196 1.368 . S
C1212 C1208 1.368 . S
C1212 C1211 1.523 . S
H1213 C1188 0.950 . S
H1214 C1190 0.950 . S
H1215 C1191 0.949 . S
H1216 C1193 0.950 . S
H1217 C1195 0.950 . S
C1218 C1219 1.349 . S
C1218 C1220 1.327 . S
C1218 H1243 0.950 . S
C1219 C1218 1.349 . S
C1219 C1235 1.349 . S
C1220 C1218 1.327 . S
C1220 C1239 1.429 . S
C1220 H1244 0.950 . S
C1221 C1238 1.574 . S
C1221 C1240 1.368 . S
C1221 H1245 0.949 . S
H1222 C1226 0.949 . S
C1223 C1224 1.349 . S
C1223 C1225 1.327 . S
C1223 H1246 0.950 . S
C1224 C1223 1.349 . S
C1224 C1236 1.349 . S
C1225 C1223 1.327 . S
C1225 C1241 1.429 . S
C1225 H1247 0.950 . S
C1226 H1222 0.949 . S
C1226 C1234 1.574 . S
C1226 C1242 1.368 . S
H1227 C1235 0.950 1_455 S
H1228 C1233 0.950 . S
H1229 C1234 0.949 . S
H1230 C1236 0.950 . S
H1231 C1237 0.950 . S
H1232 C1238 0.949 . S
C1233 H1228 0.950 . S
C1233 C1235 1.327 . S
C1233 C1239 1.429 . S
C1234 C1226 1.574 . S
C1234 H1229 0.949 . S
C1234 C1240 1.368 . S
C1235 C1219 1.349 . S
C1235 H1227 0.950 1_655 S
C1235 C1233 1.327 . S
C1236 C1224 1.349 . S
C1236 H1230 0.950 . S
C1236 C1237 1.327 . S
C1237 H1231 0.950 . S
C1237 C1236 1.327 . S
C1237 C1241 1.429 . S
C1238 C1221 1.574 . S
C1238 H1232 0.949 . S
C1238 C1242 1.368 . S
C1239 C1220 1.429 . S
C1239 C1233 1.429 . S
C1239 C1240 1.523 . S
C1240 C1221 1.368 . S
C1240 C1234 1.368 . S
C1240 C1239 1.523 . S
C1241 C1225 1.429 . S
C1241 C1237 1.429 . S
C1241 C1242 1.523 . S
C1242 C1226 1.368 . S
C1242 C1238 1.368 . S
C1242 C1241 1.523 . S
H1243 C1218 0.950 . S
H1244 C1220 0.950 . S
H1245 C1221 0.949 . S
H1246 C1223 0.950 . S
H1247 C1225 0.950 . S
C1248 C1249 1.349 . S
C1248 C1250 1.327 . S
C1248 H1273 0.950 . S
C1249 C1248 1.349 . S
C1249 C1265 1.349 . S
C1250 C1248 1.327 . S
C1250 C1269 1.429 . S
C1250 H1274 0.950 . S
C1251 C1268 1.574 . S
C1251 C1270 1.368 . S
C1251 H1275 0.949 . S
H1252 C1256 0.949 . S
C1253 C1254 1.349 . S
C1253 C1255 1.327 . S
C1253 H1276 0.950 . S
C1254 C1253 1.349 . S
C1254 C1266 1.349 . S
C1255 C1253 1.327 . S
C1255 C1271 1.429 . S
C1255 H1277 0.950 . S
C1256 H1252 0.949 . S
C1256 C1264 1.574 . S
C1256 C1272 1.368 . S
H1257 C1265 0.950 . S
H1258 C1263 0.950 . S
H1259 C1264 0.949 . S
H1260 C1266 0.950 . S
H1261 C1267 0.950 . S
H1262 C1268 0.949 . S
C1263 H1258 0.950 . S
C1263 C1265 1.327 . S
C1263 C1269 1.429 . S
C1264 C1256 1.574 . S
C1264 H1259 0.949 . S
C1264 C1270 1.368 . S
C1265 C1249 1.349 . S
C1265 H1257 0.950 . S
C1265 C1263 1.327 . S
C1266 C1254 1.349 . S
C1266 H1260 0.950 . S
C1266 C1267 1.327 . S
C1267 H1261 0.950 . S
C1267 C1266 1.327 . S
C1267 C1271 1.429 . S
C1268 C1251 1.574 . S
C1268 H1262 0.949 . S
C1268 C1272 1.368 . S
C1269 C1250 1.429 . S
C1269 C1263 1.429 . S
C1269 C1270 1.523 . S
C1270 C1251 1.368 . S
C1270 C1264 1.368 . S
C1270 C1269 1.523 . S
C1271 C1255 1.429 . S
C1271 C1267 1.429 . S
C1271 C1272 1.523 . S
C1272 C1256 1.368 . S
C1272 C1268 1.368 . S
C1272 C1271 1.523 . S
H1273 C1248 0.950 . S
H1274 C1250 0.950 . S
H1275 C1251 0.949 . S
H1276 C1253 0.950 . S
H1277 C1255 0.950 . S
C1278 C1279 1.349 . S
C1278 C1280 1.327 . S
C1278 H1303 0.950 . S
C1279 C1278 1.349 . S
C1279 C1295 1.349 . S
C1280 C1278 1.327 . S
C1280 C1299 1.429 . S
C1280 H1304 0.950 . S
C1281 C1298 1.574 . S
C1281 C1300 1.368 . S
C1281 H1305 0.949 . S
H1282 C1286 0.949 . S
C1283 C1284 1.349 . S
C1283 C1285 1.327 . S
C1283 H1306 0.950 . S
C1284 C1283 1.349 . S
C1284 C1296 1.349 . S
C1285 C1283 1.327 . S
C1285 C1301 1.429 . S
C1285 H1307 0.950 . S
C1286 H1282 0.949 . S
C1286 C1294 1.574 . S
C1286 C1302 1.368 . S
H1287 C1295 0.950 . S
H1288 C1293 0.950 . S
H1289 C1294 0.949 . S
H1290 C1296 0.950 . S
H1291 C1297 0.950 . S
H1292 C1298 0.949 . S
C1293 H1288 0.950 . S
C1293 C1295 1.327 . S
C1293 C1299 1.429 . S
C1294 C1286 1.574 . S
C1294 H1289 0.949 . S
C1294 C1300 1.368 . S
C1295 C1279 1.349 . S
C1295 H1287 0.950 . S
C1295 C1293 1.327 . S
C1296 C1284 1.349 . S
C1296 H1290 0.950 . S
C1296 C1297 1.327 . S
C1297 H1291 0.950 . S
C1297 C1296 1.327 . S
C1297 C1301 1.429 . S
C1298 C1281 1.574 . S
C1298 H1292 0.949 . S
C1298 C1302 1.368 . S
C1299 C1280 1.429 . S
C1299 C1293 1.429 . S
C1299 C1300 1.523 . S
C1300 C1281 1.368 . S
C1300 C1294 1.368 . S
C1300 C1299 1.523 . S
C1301 C1285 1.429 . S
C1301 C1297 1.429 . S
C1301 C1302 1.523 . S
C1302 C1286 1.368 . S
C1302 C1298 1.368 . S
C1302 C1301 1.523 . S
H1303 C1278 0.950 . S
H1304 C1280 0.950 . S
H1305 C1281 0.949 . S
H1306 C1283 0.950 . S
H1307 C1285 0.950 . S
C1308 C1309 1.349 1_545 S
C1308 C1310 1.327 . S
C1308 H1333 0.950 . S
C1309 C1308 1.349 1_565 S
C1309 C1325 1.349 . S
C1310 C1308 1.327 . S
C1310 C1329 1.429 1_545 S
C1310 H1334 0.950 . S
C1311 C1328 1.574 . S
C1311 C1330 1.368 . S
C1311 H1335 0.949 . S
H1312 C1316 0.949 . S
C1313 C1314 1.349 . S
C1313 C1315 1.327 . S
C1313 H1336 0.950 . S
C1314 C1313 1.349 . S
C1314 C1326 1.349 1_565 S
C1315 C1313 1.327 . S
C1315 C1331 1.429 . S
C1315 H1337 0.950 . S
C1316 H1312 0.949 . S
C1316 C1324 1.574 . S
C1316 C1332 1.368 1_545 S
H1317 C1325 0.950 . S
H1318 C1323 0.950 . S
H1319 C1324 0.949 . S
H1320 C1326 0.950 . S
H1321 C1327 0.950 . S
H1322 C1328 0.949 . S
C1323 H1318 0.950 . S
C1323 C1325 1.327 . S
C1323 C1329 1.429 . S
C1324 C1316 1.574 . S
C1324 H1319 0.949 . S
C1324 C1330 1.368 1_545 S
C1325 C1309 1.349 . S
C1325 H1317 0.950 . S
C1325 C1323 1.327 . S
C1326 C1314 1.349 1_545 S
C1326 H1320 0.950 . S
C1326 C1327 1.327 . S
C1327 H1321 0.950 . S
C1327 C1326 1.327 . S
C1327 C1331 1.429 1_545 S
C1328 C1311 1.574 . S
C1328 H1322 0.949 . S
C1328 C1332 1.368 . S
C1329 C1310 1.429 1_565 S
C1329 C1323 1.429 . S
C1329 C1330 1.523 . S
C1330 C1311 1.368 . S
C1330 C1324 1.368 1_565 S
C1330 C1329 1.523 . S
C1331 C1315 1.429 . S
C1331 C1327 1.429 1_565 S
C1331 C1332 1.523 . S
C1332 C1316 1.368 1_565 S
C1332 C1328 1.368 . S
C1332 C1331 1.523 . S
H1333 C1308 0.950 . S
H1334 C1310 0.950 . S
H1335 C1311 0.949 . S
H1336 C1313 0.950 . S
H1337 C1315 0.950 . S
C1338 C1339 1.346 . S
C1338 C1340 1.327 . S
C1338 H1363 0.950 . S
C1339 C1338 1.346 . S
C1339 C1355 1.351 1_565 S
C1340 C1338 1.327 . S
C1340 C1359 1.429 . S
C1340 H1364 0.950 . S
C1341 C1358 1.574 1_545 S
C1341 C1360 1.368 1_545 S
C1341 H1365 0.949 . S
H1342 C1346 0.949 . S
C1343 C1344 1.349 . S
C1343 C1345 1.327 . S
C1343 H1366 0.950 . S
C1344 C1343 1.349 . S
C1344 C1356 1.349 . S
C1345 C1343 1.327 . S
C1345 C1361 1.429 . S
C1345 H1367 0.934 1_565 S
C1346 H1342 0.949 . S
C1346 C1354 1.574 . S
C1346 C1362 1.368 . S
H1347 C1355 0.950 . S
H1348 C1353 0.950 . S
H1349 C1354 0.949 . S
H1350 C1356 0.950 . S
H1351 C1357 0.950 . S
H1352 C1358 0.949 1_545 S
C1353 H1348 0.950 . S
C1353 C1355 1.327 . S
C1353 C1359 1.429 1_545 S
C1354 C1346 1.574 . S
C1354 H1349 0.949 . S
C1354 C1360 1.368 . S
C1355 C1339 1.351 1_545 S
C1355 H1347 0.950 . S
C1355 C1353 1.327 . S
C1356 C1344 1.349 . S
C1356 H1350 0.950 . S
C1356 C1357 1.327 . S
C1357 H1351 0.950 . S
C1357 C1356 1.327 . S
C1357 C1361 1.429 . S
C1358 C1341 1.574 1_565 S
C1358 H1352 0.949 1_565 S
C1358 C1362 1.368 . S
C1359 C1340 1.429 . S
C1359 C1353 1.429 1_565 S
C1359 C1360 1.523 . S
C1360 C1341 1.368 1_565 S
C1360 C1354 1.368 . S
C1360 C1359 1.523 . S
C1361 C1345 1.429 . S
C1361 C1357 1.429 . S
C1361 C1362 1.523 . S
C1362 C1346 1.368 . S
C1362 C1358 1.368 . S
C1362 C1361 1.523 . S
H1363 C1338 0.950 . S
H1364 C1340 0.950 . S
H1365 C1341 0.949 . S
H1366 C1343 0.950 . S
H1367 C1345 0.934 1_545 S
C1368 C1369 1.349 . S
C1368 C1370 1.327 . S
C1368 H1393 0.950 . S
C1369 C1368 1.349 . S
C1369 C1385 1.349 . S
C1370 C1368 1.327 . S
C1370 C1389 1.429 . S
C1370 H1394 0.950 . S
C1371 C1388 1.574 . S
C1371 C1390 1.368 . S
C1371 H1395 0.949 . S
H1372 C1376 0.949 . S
C1373 C1374 1.349 . S
C1373 C1375 1.327 . S
C1373 H1396 0.950 . S
C1374 C1373 1.349 . S
C1374 C1386 1.349 . S
C1375 C1373 1.327 . S
C1375 C1391 1.429 . S
C1375 H1397 0.950 . S
C1376 H1372 0.949 . S
C1376 C1384 1.574 . S
C1376 C1392 1.368 . S
H1377 C1385 0.950 . S
H1378 C1383 0.950 . S
H1379 C1384 0.949 . S
H1380 C1386 0.950 . S
H1381 C1387 0.950 . S
H1382 C1388 0.949 . S
C1383 H1378 0.950 . S
C1383 C1385 1.327 . S
C1383 C1389 1.429 . S
C1384 C1376 1.574 . S
C1384 H1379 0.949 . S
C1384 C1390 1.368 . S
C1385 C1369 1.349 . S
C1385 H1377 0.950 . S
C1385 C1383 1.327 . S
C1386 C1374 1.349 . S
C1386 H1380 0.950 . S
C1386 C1387 1.327 . S
C1387 H1381 0.950 . S
C1387 C1386 1.327 . S
C1387 C1391 1.429 . S
C1388 C1371 1.574 . S
C1388 H1382 0.949 . S
C1388 C1392 1.368 . S
C1389 C1370 1.429 . S
C1389 C1383 1.429 . S
C1389 C1390 1.523 . S
C1390 C1371 1.368 . S
C1390 C1384 1.368 . S
C1390 C1389 1.523 . S
C1391 C1375 1.429 . S
C1391 C1387 1.429 . S
C1391 C1392 1.523 . S
C1392 C1376 1.368 . S
C1392 C1388 1.368 . S
C1392 C1391 1.523 . S
H1393 C1368 0.950 . S
H1394 C1370 0.950 . S
H1395 C1371 0.949 . S
H1396 C1373 0.950 . S
H1397 C1375 0.950 . S
C1398 C1399 1.346 . S
C1398 C1400 1.327 . S
C1398 H1423 0.950 . S
C1399 C1398 1.346 . S
C1399 C1415 1.352 1_556 S
C1400 C1398 1.327 . S
C1400 C1419 1.429 . S
C1400 H1424 0.950 . S
C1401 C1418 1.574 1_554 S
C1401 C1420 1.368 1_554 S
C1401 H1425 0.949 . S
H1402 C1406 0.949 . S
C1403 C1404 1.349 . S
C1403 C1405 1.327 . S
C1403 H1426 0.950 . S
C1404 C1403 1.349 . S
C1404 C1416 1.349 . S
C1405 C1403 1.327 . S
C1405 C1421 1.429 . S
C1405 H1427 0.950 1_556 S
C1406 H1402 0.949 . S
C1406 C1414 1.574 . S
C1406 C1422 1.368 . S
H1407 C1415 0.950 . S
H1408 C1413 0.950 . S
H1409 C1414 0.949 . S
H1410 C1416 0.950 . S
H1411 C1417 0.950 . S
H1412 C1418 0.949 1_554 S
C1413 H1408 0.950 . S
C1413 C1415 1.327 . S
C1413 C1419 1.429 1_554 S
C1414 C1406 1.574 . S
C1414 H1409 0.949 . S
C1414 C1420 1.368 . S
C1415 C1399 1.352 1_554 S
C1415 H1407 0.950 . S
C1415 C1413 1.327 . S
C1416 C1404 1.349 . S
C1416 H1410 0.950 . S
C1416 C1417 1.327 . S
C1417 H1411 0.950 . S
C1417 C1416 1.327 . S
C1417 C1421 1.429 . S
C1418 C1401 1.574 1_556 S
C1418 H1412 0.949 1_556 S
C1418 C1422 1.368 . S
C1419 C1400 1.429 . S
C1419 C1413 1.429 1_556 S
C1419 C1420 1.523 . S
C1420 C1401 1.368 1_556 S
C1420 C1414 1.368 . S
C1420 C1419 1.523 . S
C1421 C1405 1.429 . S
C1421 C1417 1.429 . S
C1421 C1422 1.523 . S
C1422 C1406 1.368 . S
C1422 C1418 1.368 . S
C1422 C1421 1.523 . S
H1423 C1398 0.950 . S
H1424 C1400 0.950 . S
H1425 C1401 0.949 . S
H1426 C1403 0.950 . S
H1427 C1405 0.950 1_554 S
C1428 C1429 1.349 . S
C1428 C1430 1.327 . S
C1428 H1453 0.950 . S
C1429 C1428 1.349 . S
C1429 C1445 1.349 . S
C1430 C1428 1.327 . S
C1430 C1449 1.429 . S
C1430 H1454 0.950 . S
C1431 C1448 1.574 . S
C1431 C1450 1.368 . S
C1431 H1455 0.949 . S
H1432 C1436 0.949 . S
C1433 C1434 1.349 . S
C1433 C1435 1.327 . S
C1433 H1456 0.950 . S
C1434 C1433 1.349 . S
C1434 C1446 1.349 . S
C1435 C1433 1.327 . S
C1435 C1451 1.429 . S
C1435 H1457 0.950 . S
C1436 H1432 0.949 . S
C1436 C1444 1.574 . S
C1436 C1452 1.368 . S
H1437 C1445 0.950 . S
H1438 C1443 0.950 . S
H1439 C1444 0.949 . S
H1440 C1446 0.950 . S
H1441 C1447 0.950 . S
H1442 C1448 0.949 . S
C1443 H1438 0.950 . S
C1443 C1445 1.327 . S
C1443 C1449 1.429 . S
C1444 C1436 1.574 . S
C1444 H1439 0.949 . S
C1444 C1450 1.368 . S
C1445 C1429 1.349 . S
C1445 H1437 0.950 . S
C1445 C1443 1.327 . S
C1446 C1434 1.349 . S
C1446 H1440 0.950 . S
C1446 C1447 1.327 . S
C1447 H1441 0.950 . S
C1447 C1446 1.327 . S
C1447 C1451 1.429 . S
C1448 C1431 1.574 . S
C1448 H1442 0.949 . S
C1448 C1452 1.368 . S
C1449 C1430 1.429 . S
C1449 C1443 1.429 . S
C1449 C1450 1.523 . S
C1450 C1431 1.368 . S
C1450 C1444 1.368 . S
C1450 C1449 1.523 . S
C1451 C1435 1.429 . S
C1451 C1447 1.429 . S
C1451 C1452 1.523 . S
C1452 C1436 1.368 . S
C1452 C1448 1.368 . S
C1452 C1451 1.523 . S
H1453 C1428 0.950 . S
H1454 C1430 0.950 . S
H1455 C1431 0.949 . S
H1456 C1433 0.950 . S
H1457 C1435 0.950 . S
C1458 C1459 1.349 . S
C1458 C1460 1.327 . S
C1458 H1483 0.950 . S
C1459 C1458 1.349 . S
C1459 C1475 1.349 1_556 S
C1460 C1458 1.327 . S
C1460 C1479 1.429 . S
C1460 H1484 0.950 . S
C1461 C1478 1.574 . S
C1461 C1480 1.368 1_554 S
C1461 H1485 0.949 . S
H1462 C1466 0.949 . S
C1463 C1464 1.349 1_554 S
C1463 C1465 1.327 . S
C1463 H1486 0.950 . S
C1464 C1463 1.349 1_556 S
C1464 C1476 1.349 . S
C1465 C1463 1.327 . S
C1465 C1481 1.429 1_554 S
C1465 H1487 0.950 . S
C1466 H1462 0.949 . S
C1466 C1474 1.574 . S
C1466 C1482 1.368 . S
H1467 C1475 0.950 . S
H1468 C1473 0.950 . S
H1469 C1474 0.949 . S
H1470 C1476 0.950 . S
H1471 C1477 0.950 . S
H1472 C1478 0.949 . S
C1473 H1468 0.950 . S
C1473 C1475 1.327 . S
C1473 C1479 1.429 1_554 S
C1474 C1466 1.574 . S
C1474 H1469 0.949 . S
C1474 C1480 1.368 . S
C1475 C1459 1.349 1_554 S
C1475 H1467 0.950 . S
C1475 C1473 1.327 . S
C1476 C1464 1.349 . S
C1476 H1470 0.950 . S
C1476 C1477 1.327 . S
C1477 H1471 0.950 . S
C1477 C1476 1.327 . S
C1477 C1481 1.429 . S
C1478 C1461 1.574 . S
C1478 H1472 0.949 . S
C1478 C1482 1.368 1_554 S
C1479 C1460 1.429 . S
C1479 C1473 1.429 1_556 S
C1479 C1480 1.523 . S
C1480 C1461 1.368 1_556 S
C1480 C1474 1.368 . S
C1480 C1479 1.523 . S
C1481 C1465 1.429 1_556 S
C1481 C1477 1.429 . S
C1481 C1482 1.523 . S
C1482 C1466 1.368 . S
C1482 C1478 1.368 1_556 S
C1482 C1481 1.523 . S
H1483 C1458 0.950 . S
H1484 C1460 0.950 . S
H1485 C1461 0.949 . S
H1486 C1463 0.950 . S
H1487 C1465 0.950 . S
C1488 C1489 1.349 . S
C1488 C1490 1.327 . S
C1488 H1513 0.950 . S
C1489 C1488 1.349 . S
C1489 C1505 1.349 . S
C1490 C1488 1.327 . S
C1490 C1509 1.429 . S
C1490 H1514 0.950 . S
C1491 C1508 1.574 . S
C1491 C1510 1.368 . S
C1491 H1515 0.949 . S
H1492 C1496 0.949 . S
C1493 C1494 1.349 . S
C1493 C1495 1.327 . S
C1493 H1516 0.950 . S
C1494 C1493 1.349 . S
C1494 C1506 1.349 . S
C1495 C1493 1.327 . S
C1495 C1511 1.429 . S
C1495 H1517 0.950 . S
C1496 H1492 0.949 . S
C1496 C1504 1.574 . S
C1496 C1512 1.368 . S
H1497 C1505 0.950 . S
H1498 C1503 0.950 . S
H1499 C1504 0.949 . S
H1500 C1506 0.950 . S
H1501 C1507 0.950 . S
H1502 C1508 0.949 . S
C1503 H1498 0.950 . S
C1503 C1505 1.327 . S
C1503 C1509 1.429 . S
C1504 C1496 1.574 . S
C1504 H1499 0.949 . S
C1504 C1510 1.368 . S
C1505 C1489 1.349 . S
C1505 H1497 0.950 . S
C1505 C1503 1.327 . S
C1506 C1494 1.349 . S
C1506 H1500 0.950 . S
C1506 C1507 1.327 . S
C1507 H1501 0.950 . S
C1507 C1506 1.327 . S
C1507 C1511 1.429 . S
C1508 C1491 1.574 . S
C1508 H1502 0.949 . S
C1508 C1512 1.368 . S
C1509 C1490 1.429 . S
C1509 C1503 1.429 . S
C1509 C1510 1.523 . S
C1510 C1491 1.368 . S
C1510 C1504 1.368 . S
C1510 C1509 1.523 . S
C1511 C1495 1.429 . S
C1511 C1507 1.429 . S
C1511 C1512 1.523 . S
C1512 C1496 1.368 . S
C1512 C1508 1.368 . S
C1512 C1511 1.523 . S
H1513 C1488 0.950 . S
H1514 C1490 0.950 . S
H1515 C1491 0.949 . S
H1516 C1493 0.950 . S
H1517 C1495 0.950 . S
C1518 C1519 1.351 1_455 S
C1518 C1520 1.327 . S
C1518 H1543 0.950 . S
C1519 C1518 1.351 1_655 S
C1519 C1535 1.346 . S
C1520 C1518 1.327 . S
C1520 C1539 1.429 1_455 S
C1520 H1544 0.950 . S
C1521 C1538 1.574 . S
C1521 C1540 1.368 . S
C1521 H1545 0.949 . S
H1522 C1526 0.949 1_455 S
C1523 C1524 1.349 . S
C1523 C1525 1.327 . S
C1523 H1546 0.950 . S
C1524 C1523 1.349 . S
C1524 C1536 1.349 . S
C1525 C1523 1.327 . S
C1525 C1541 1.429 . S
C1525 H1547 0.950 . S
C1526 H1522 0.949 1_655 S
C1526 C1534 1.579 . S
C1526 C1542 1.368 . S
H1527 C1535 0.950 . S
H1528 C1533 0.950 . S
H1529 C1534 0.916 1_455 S
H1530 C1536 0.950 . S
H1531 C1537 0.950 . S
H1532 C1538 0.949 . S
C1533 H1528 0.950 . S
C1533 C1535 1.327 . S
C1533 C1539 1.429 . S
C1534 C1526 1.579 . S
C1534 H1529 0.916 1_655 S
C1534 C1540 1.402 . S
C1535 C1519 1.346 . S
C1535 H1527 0.950 . S
C1535 C1533 1.327 . S
C1536 C1524 1.349 . S
C1536 H1530 0.950 . S
C1536 C1537 1.327 . S
C1537 H1531 0.950 . S
C1537 C1536 1.327 . S
C1537 C1541 1.429 . S
C1538 C1521 1.574 . S
C1538 H1532 0.949 . S
C1538 C1542 1.368 . S
C1539 C1520 1.429 1_655 S
C1539 C1533 1.429 . S
C1539 C1540 1.523 . S
C1540 C1521 1.368 . S
C1540 C1534 1.402 . S
C1540 C1539 1.523 . S
C1541 C1525 1.429 . S
C1541 C1537 1.429 . S
C1541 C1542 1.523 . S
C1542 C1526 1.368 . S
C1542 C1538 1.368 . S
C1542 C1541 1.523 . S
H1543 C1518 0.950 . S
H1544 C1520 0.950 . S
H1545 C1521 0.949 . S
H1546 C1523 0.950 . S
H1547 C1525 0.950 . S
C1548 C1549 1.349 . S
C1548 C1550 1.327 . S
C1548 H1573 0.950 . S
C1549 C1548 1.349 . S
C1549 C1565 1.349 . S
C1550 C1548 1.327 . S
C1550 C1569 1.429 . S
C1550 H1574 0.950 . S
C1551 C1568 1.574 . S
C1551 C1570 1.368 . S
C1551 H1575 0.949 . S
H1552 C1556 0.949 . S
C1553 C1554 1.349 . S
C1553 C1555 1.327 . S
C1553 H1576 0.950 . S
C1554 C1553 1.349 . S
C1554 C1566 1.349 . S
C1555 C1553 1.327 . S
C1555 C1571 1.429 . S
C1555 H1577 0.950 . S
C1556 H1552 0.949 . S
C1556 C1564 1.574 . S
C1556 C1572 1.368 . S
H1557 C1565 0.950 . S
H1558 C1563 0.950 . S
H1559 C1564 0.949 . S
H1560 C1566 0.950 . S
H1561 C1567 0.950 . S
H1562 C1568 0.949 . S
C1563 H1558 0.950 . S
C1563 C1565 1.327 . S
C1563 C1569 1.429 . S
C1564 C1556 1.574 . S
C1564 H1559 0.949 . S
C1564 C1570 1.368 . S
C1565 C1549 1.349 . S
C1565 H1557 0.950 . S
C1565 C1563 1.327 . S
C1566 C1554 1.349 . S
C1566 H1560 0.950 . S
C1566 C1567 1.327 . S
C1567 H1561 0.950 . S
C1567 C1566 1.327 . S
C1567 C1571 1.429 . S
C1568 C1551 1.574 . S
C1568 H1562 0.949 . S
C1568 C1572 1.368 . S
C1569 C1550 1.429 . S
C1569 C1563 1.429 . S
C1569 C1570 1.523 . S
C1570 C1551 1.368 . S
C1570 C1564 1.368 . S
C1570 C1569 1.523 . S
C1571 C1555 1.429 . S
C1571 C1567 1.429 . S
C1571 C1572 1.523 . S
C1572 C1556 1.368 . S
C1572 C1568 1.368 . S
C1572 C1571 1.523 . S
H1573 C1548 0.950 . S
H1574 C1550 0.950 . S
H1575 C1551 0.949 . S
H1576 C1553 0.950 . S
H1577 C1555 0.950 . S
C1578 C1579 1.349 1_455 S
C1578 C1580 1.327 . S
C1578 H1603 0.950 . S
C1579 C1578 1.349 1_655 S
C1579 C1595 1.349 . S
C1580 C1578 1.327 . S
C1580 C1599 1.429 1_455 S
C1580 H1604 0.950 . S
C1581 C1598 1.574 . S
C1581 C1600 1.368 . S
C1581 H1605 0.949 . S
H1582 C1586 0.949 . S
C1583 C1584 1.349 . S
C1583 C1585 1.327 . S
C1583 H1606 0.950 . S
C1584 C1583 1.349 . S
C1584 C1596 1.349 1_655 S
C1585 C1583 1.327 . S
C1585 C1601 1.429 . S
C1585 H1607 0.950 . S
C1586 H1582 0.949 . S
C1586 C1594 1.574 . S
C1586 C1602 1.368 1_455 S
H1587 C1595 0.950 . S
H1588 C1593 0.950 . S
H1589 C1594 0.949 . S
H1590 C1596 0.950 . S
H1591 C1597 0.950 . S
H1592 C1598 0.949 . S
C1593 H1588 0.950 . S
C1593 C1595 1.327 . S
C1593 C1599 1.429 . S
C1594 C1586 1.574 . S
C1594 H1589 0.949 . S
C1594 C1600 1.368 1_455 S
C1595 C1579 1.349 . S
C1595 H1587 0.950 . S
C1595 C1593 1.327 . S
C1596 C1584 1.349 1_455 S
C1596 H1590 0.950 . S
C1596 C1597 1.327 . S
C1597 H1591 0.950 . S
C1597 C1596 1.327 . S
C1597 C1601 1.429 1_455 S
C1598 C1581 1.574 . S
C1598 H1592 0.949 . S
C1598 C1602 1.368 . S
C1599 C1580 1.429 1_655 S
C1599 C1593 1.429 . S
C1599 C1600 1.523 . S
C1600 C1581 1.368 . S
C1600 C1594 1.368 1_655 S
C1600 C1599 1.523 . S
C1601 C1585 1.429 . S
C1601 C1597 1.429 1_655 S
C1601 C1602 1.523 . S
C1602 C1586 1.368 1_655 S
C1602 C1598 1.368 . S
C1602 C1601 1.523 . S
H1603 C1578 0.950 . S
H1604 C1580 0.950 . S
H1605 C1581 0.949 . S
H1606 C1583 0.950 . S
H1607 C1585 0.950 . S
C1608 C1609 1.349 . S
C1608 C1610 1.327 . S
C1608 H1633 0.950 . S
C1609 C1608 1.349 . S
C1609 C1625 1.349 . S
C1610 C1608 1.327 . S
C1610 C1629 1.429 . S
C1610 H1634 0.950 . S
C1611 C1628 1.574 . S
C1611 C1630 1.368 . S
C1611 H1635 0.949 . S
H1612 C1616 0.949 . S
C1613 C1614 1.349 . S
C1613 C1615 1.327 . S
C1613 H1636 0.950 . S
C1614 C1613 1.349 . S
C1614 C1626 1.349 . S
C1615 C1613 1.327 . S
C1615 C1631 1.429 . S
C1615 H1637 0.950 . S
C1616 H1612 0.949 . S
C1616 C1624 1.574 . S
C1616 C1632 1.368 . S
H1617 C1625 0.950 . S
H1618 C1623 0.950 . S
H1619 C1624 0.949 . S
H1620 C1626 0.950 . S
H1621 C1627 0.950 . S
H1622 C1628 0.949 . S
C1623 H1618 0.950 . S
C1623 C1625 1.327 . S
C1623 C1629 1.429 . S
C1624 C1616 1.574 . S
C1624 H1619 0.949 . S
C1624 C1630 1.368 . S
C1625 C1609 1.349 . S
C1625 H1617 0.950 . S
C1625 C1623 1.327 . S
C1626 C1614 1.349 . S
C1626 H1620 0.950 . S
C1626 C1627 1.327 . S
C1627 H1621 0.950 . S
C1627 C1626 1.327 . S
C1627 C1631 1.429 . S
C1628 C1611 1.574 . S
C1628 H1622 0.949 . S
C1628 C1632 1.368 . S
C1629 C1610 1.429 . S
C1629 C1623 1.429 . S
C1629 C1630 1.523 . S
C1630 C1611 1.368 . S
C1630 C1624 1.368 . S
C1630 C1629 1.523 . S
C1631 C1615 1.429 . S
C1631 C1627 1.429 . S
C1631 C1632 1.523 . S
C1632 C1616 1.368 . S
C1632 C1628 1.368 . S
C1632 C1631 1.523 . S
H1633 C1608 0.950 . S
H1634 C1610 0.950 . S
H1635 C1611 0.949 . S
H1636 C1613 0.950 . S
H1637 C1615 0.950 . S
C1638 C1639 1.349 . S
C1638 C1640 1.327 . S
C1638 H1663 0.950 . S
C1639 C1638 1.349 . S
C1639 C1655 1.349 . S
C1640 C1638 1.327 . S
C1640 C1659 1.429 . S
C1640 H1664 0.950 . S
C1641 C1658 1.574 . S
C1641 C1660 1.368 . S
C1641 H1665 0.949 . S
H1642 C1646 0.949 . S
C1643 C1644 1.349 . S
C1643 C1645 1.327 . S
C1643 H1666 0.950 . S
C1644 C1643 1.349 . S
C1644 C1656 1.349 . S
C1645 C1643 1.327 . S
C1645 C1661 1.429 . S
C1645 H1667 0.950 . S
C1646 H1642 0.949 . S
C1646 C1654 1.574 . S
C1646 C1662 1.368 . S
H1647 C1655 0.950 . S
H1648 C1653 0.950 . S
H1649 C1654 0.949 . S
H1650 C1656 0.950 . S
H1651 C1657 0.950 . S
H1652 C1658 0.949 . S
C1653 H1648 0.950 . S
C1653 C1655 1.327 . S
C1653 C1659 1.429 . S
C1654 C1646 1.574 . S
C1654 H1649 0.949 . S
C1654 C1660 1.368 . S
C1655 C1639 1.349 . S
C1655 H1647 0.950 . S
C1655 C1653 1.327 . S
C1656 C1644 1.349 . S
C1656 H1650 0.950 . S
C1656 C1657 1.327 . S
C1657 H1651 0.950 . S
C1657 C1656 1.327 . S
C1657 C1661 1.429 . S
C1658 C1641 1.574 . S
C1658 H1652 0.949 . S
C1658 C1662 1.368 . S
C1659 C1640 1.429 . S
C1659 C1653 1.429 . S
C1659 C1660 1.523 . S
C1660 C1641 1.368 . S
C1660 C1654 1.368 . S
C1660 C1659 1.523 . S
C1661 C1645 1.429 . S
C1661 C1657 1.429 . S
C1661 C1662 1.523 . S
C1662 C1646 1.368 . S
C1662 C1658 1.368 . S
C1662 C1661 1.523 . S
H1663 C1638 0.950 . S
H1664 C1640 0.950 . S
H1665 C1641 0.949 . S
H1666 C1643 0.950 . S
H1667 C1645 0.950 . S
C1668 C1669 1.349 1_565 S
C1668 C1670 1.327 . S
C1668 H1693 0.950 . S
C1669 C1668 1.349 1_545 S
C1669 C1685 1.349 . S
C1670 C1668 1.327 . S
C1670 C1689 1.429 1_565 S
C1670 H1694 0.950 . S
C1671 C1688 1.574 . S
C1671 C1690 1.368 . S
C1671 H1695 0.949 . S
H1672 C1676 0.949 . S
C1673 C1674 1.349 . S
C1673 C1675 1.327 . S
C1673 H1696 0.950 . S
C1674 C1673 1.349 . S
C1674 C1686 1.349 1_545 S
C1675 C1673 1.327 . S
C1675 C1691 1.429 . S
C1675 H1697 0.950 . S
C1676 H1672 0.949 . S
C1676 C1684 1.574 . S
C1676 C1692 1.368 1_565 S
H1677 C1685 0.950 . S
H1678 C1683 0.950 . S
H1679 C1684 0.949 . S
H1680 C1686 0.950 . S
H1681 C1687 0.950 . S
H1682 C1688 0.949 . S
C1683 H1678 0.950 . S
C1683 C1685 1.327 . S
C1683 C1689 1.429 . S
C1684 C1676 1.574 . S
C1684 H1679 0.949 . S
C1684 C1690 1.368 1_565 S
C1685 C1669 1.349 . S
C1685 H1677 0.950 . S
C1685 C1683 1.327 . S
C1686 C1674 1.349 1_565 S
C1686 H1680 0.950 . S
C1686 C1687 1.327 . S
C1687 H1681 0.950 . S
C1687 C1686 1.327 . S
C1687 C1691 1.429 1_565 S
C1688 C1671 1.574 . S
C1688 H1682 0.949 . S
C1688 C1692 1.368 . S
C1689 C1670 1.429 1_545 S
C1689 C1683 1.429 . S
C1689 C1690 1.523 . S
C1690 C1671 1.368 . S
C1690 C1684 1.368 1_545 S
C1690 C1689 1.523 . S
C1691 C1675 1.429 . S
C1691 C1687 1.429 1_545 S
C1691 C1692 1.523 . S
C1692 C1676 1.368 1_545 S
C1692 C1688 1.368 . S
C1692 C1691 1.523 . S
H1693 C1668 0.950 . S
H1694 C1670 0.950 . S
H1695 C1671 0.949 . S
H1696 C1673 0.950 . S
H1697 C1675 0.950 . S
C1698 C1699 1.351 1_565 S
C1698 C1700 1.327 . S
C1698 H1723 0.950 . S
C1699 C1698 1.351 1_545 S
C1699 C1715 1.346 . S
C1700 C1698 1.327 . S
C1700 C1719 1.429 1_565 S
C1700 H1724 0.950 . S
C1701 C1718 1.574 . S
C1701 C1720 1.368 . S
C1701 H1725 0.949 . S
H1702 C1706 0.949 1_565 S
C1703 C1704 1.349 . S
C1703 C1705 1.327 . S
C1703 H1726 0.950 . S
C1704 C1703 1.349 . S
C1704 C1716 1.349 . S
C1705 C1703 1.327 . S
C1705 C1721 1.429 . S
C1705 H1727 0.950 . S
C1706 H1702 0.949 1_545 S
C1706 C1714 1.570 1_545 S
C1706 C1722 1.368 . S
H1707 C1715 0.950 . S
H1708 C1713 0.950 . S
H1709 C1714 0.998 . S
H1710 C1716 0.950 . S
H1711 C1717 0.950 . S
H1712 C1718 0.949 . S
C1713 H1708 0.950 . S
C1713 C1715 1.327 . S
C1713 C1719 1.429 . S
C1714 C1706 1.570 1_565 S
C1714 H1709 0.998 . S
C1714 C1720 1.321 1_565 S
C1715 C1699 1.346 . S
C1715 H1707 0.950 . S
C1715 C1713 1.327 . S
C1716 C1704 1.349 . S
C1716 H1710 0.950 . S
C1716 C1717 1.327 . S
C1717 H1711 0.950 . S
C1717 C1716 1.327 . S
C1717 C1721 1.429 . S
C1718 C1701 1.574 . S
C1718 H1712 0.949 . S
C1718 C1722 1.368 . S
C1719 C1700 1.429 1_545 S
C1719 C1713 1.429 . S
C1719 C1720 1.523 . S
C1720 C1701 1.368 . S
C1720 C1714 1.321 1_545 S
C1720 C1719 1.523 . S
C1721 C1705 1.429 . S
C1721 C1717 1.429 . S
C1721 C1722 1.523 . S
C1722 C1706 1.368 . S
C1722 C1718 1.368 . S
C1722 C1721 1.523 . S
H1723 C1698 0.950 . S
H1724 C1700 0.950 . S
H1725 C1701 0.949 . S
H1726 C1703 0.950 . S
H1727 C1705 0.950 . S
C1728 C1729 1.349 . S
C1728 C1730 1.327 . S
C1728 H1753 0.950 . S
C1729 C1728 1.349 . S
C1729 C1745 1.349 . S
C1730 C1728 1.327 . S
C1730 C1749 1.429 . S
C1730 H1754 0.950 . S
C1731 C1748 1.574 . S
C1731 C1750 1.368 . S
C1731 H1755 0.949 . S
H1732 C1736 0.949 . S
C1733 C1734 1.349 . S
C1733 C1735 1.327 . S
C1733 H1756 0.950 . S
C1734 C1733 1.349 . S
C1734 C1746 1.349 . S
C1735 C1733 1.327 . S
C1735 C1751 1.429 . S
C1735 H1757 0.950 . S
C1736 H1732 0.949 . S
C1736 C1744 1.574 . S
C1736 C1752 1.368 . S
H1737 C1745 0.950 . S
H1738 C1743 0.950 . S
H1739 C1744 0.949 . S
H1740 C1746 0.950 . S
H1741 C1747 0.950 . S
H1742 C1748 0.949 . S
C1743 H1738 0.950 . S
C1743 C1745 1.327 . S
C1743 C1749 1.429 . S
C1744 C1736 1.574 . S
C1744 H1739 0.949 . S
C1744 C1750 1.368 . S
C1745 C1729 1.349 . S
C1745 H1737 0.950 . S
C1745 C1743 1.327 . S
C1746 C1734 1.349 . S
C1746 H1740 0.950 . S
C1746 C1747 1.327 . S
C1747 H1741 0.950 . S
C1747 C1746 1.327 . S
C1747 C1751 1.429 . S
C1748 C1731 1.574 . S
C1748 H1742 0.949 . S
C1748 C1752 1.368 . S
C1749 C1730 1.429 . S
C1749 C1743 1.429 . S
C1749 C1750 1.523 . S
C1750 C1731 1.368 . S
C1750 C1744 1.368 . S
C1750 C1749 1.523 . S
C1751 C1735 1.429 . S
C1751 C1747 1.429 . S
C1751 C1752 1.523 . S
C1752 C1736 1.368 . S
C1752 C1748 1.368 . S
C1752 C1751 1.523 . S
H1753 C1728 0.950 . S
H1754 C1730 0.950 . S
H1755 C1731 0.949 . S
H1756 C1733 0.950 . S
H1757 C1735 0.950 . S
C1758 C1759 1.346 . S
C1758 C1760 1.327 . S
C1758 H1783 0.950 . S
C1759 C1758 1.346 . S
C1759 C1775 1.352 1_556 S
C1760 C1758 1.327 . S
C1760 C1779 1.429 1_556 S
C1760 H1784 0.950 . S
C1761 C1778 1.574 . S
C1761 C1780 1.368 . S
C1761 H1785 0.949 . S
H1762 C1766 0.949 1_556 S
C1763 C1764 1.349 . S
C1763 C1765 1.327 . S
C1763 H1786 0.950 . S
C1764 C1763 1.349 . S
C1764 C1776 1.349 . S
C1765 C1763 1.327 . S
C1765 C1781 1.429 . S
C1765 H1787 0.950 . S
C1766 H1762 0.949 1_554 S
C1766 C1774 1.572 1_554 S
C1766 C1782 1.368 . S
H1767 C1775 0.950 . S
H1768 C1773 0.950 . S
H1769 C1774 0.965 . S
H1770 C1776 0.950 . S
H1771 C1777 0.950 . S
H1772 C1778 0.949 . S
C1773 H1768 0.950 . S
C1773 C1775 1.327 . S
C1773 C1779 1.429 . S
C1774 C1766 1.572 1_556 S
C1774 H1769 0.965 . S
C1774 C1780 1.352 1_556 S
C1775 C1759 1.352 1_554 S
C1775 H1767 0.950 . S
C1775 C1773 1.327 . S
C1776 C1764 1.349 . S
C1776 H1770 0.950 . S
C1776 C1777 1.327 . S
C1777 H1771 0.950 . S
C1777 C1776 1.327 . S
C1777 C1781 1.429 . S
C1778 C1761 1.574 . S
C1778 H1772 0.949 . S
C1778 C1782 1.368 . S
C1779 C1760 1.429 1_554 S
C1779 C1773 1.429 . S
C1779 C1780 1.523 . S
C1780 C1761 1.368 . S
C1780 C1774 1.352 1_554 S
C1780 C1779 1.523 . S
C1781 C1765 1.429 . S
C1781 C1777 1.429 . S
C1781 C1782 1.523 . S
C1782 C1766 1.368 . S
C1782 C1778 1.368 . S
C1782 C1781 1.523 . S
H1783 C1758 0.950 . S
H1784 C1760 0.950 . S
H1785 C1761 0.949 . S
H1786 C1763 0.950 . S
H1787 C1765 0.950 . S
C1788 C1789 1.349 . S
C1788 C1790 1.327 . S
C1788 H1813 0.950 . S
C1789 C1788 1.349 . S
C1789 C1805 1.349 . S
C1790 C1788 1.327 . S
C1790 C1809 1.429 . S
C1790 H1814 0.950 . S
C1791 C1808 1.574 . S
C1791 C1810 1.368 . S
C1791 H1815 0.949 . S
H1792 C1796 0.949 . S
C1793 C1794 1.349 . S
C1793 C1795 1.327 . S
C1793 H1816 0.950 . S
C1794 C1793 1.349 . S
C1794 C1806 1.349 . S
C1795 C1793 1.327 . S
C1795 C1811 1.429 . S
C1795 H1817 0.950 . S
C1796 H1792 0.949 . S
C1796 C1804 1.574 . S
C1796 C1812 1.368 . S
H1797 C1805 0.950 . S
H1798 C1803 0.950 . S
H1799 C1804 0.949 . S
H1800 C1806 0.950 . S
H1801 C1807 0.950 . S
H1802 C1808 0.949 . S
C1803 H1798 0.950 . S
C1803 C1805 1.327 . S
C1803 C1809 1.429 . S
C1804 C1796 1.574 . S
C1804 H1799 0.949 . S
C1804 C1810 1.368 . S
C1805 C1789 1.349 . S
C1805 H1797 0.950 . S
C1805 C1803 1.327 . S
C1806 C1794 1.349 . S
C1806 H1800 0.950 . S
C1806 C1807 1.327 . S
C1807 H1801 0.950 . S
C1807 C1806 1.327 . S
C1807 C1811 1.429 . S
C1808 C1791 1.574 . S
C1808 H1802 0.949 . S
C1808 C1812 1.368 . S
C1809 C1790 1.429 . S
C1809 C1803 1.429 . S
C1809 C1810 1.523 . S
C1810 C1791 1.368 . S
C1810 C1804 1.368 . S
C1810 C1809 1.523 . S
C1811 C1795 1.429 . S
C1811 C1807 1.429 . S
C1811 C1812 1.523 . S
C1812 C1796 1.368 . S
C1812 C1808 1.368 . S
C1812 C1811 1.523 . S
H1813 C1788 0.950 . S
H1814 C1790 0.950 . S
H1815 C1791 0.949 . S
H1816 C1793 0.950 . S
H1817 C1795 0.950 . S
C1818 C1819 1.349 1_556 S
C1818 C1820 1.327 . S
C1818 H1843 0.950 . S
C1819 C1818 1.349 1_554 S
C1819 C1835 1.349 . S
C1820 C1818 1.327 . S
C1820 C1839 1.429 1_556 S
C1820 H1844 0.950 . S
C1821 C1838 1.574 . S
C1821 C1840 1.368 . S
C1821 H1845 0.949 . S
H1822 C1826 0.949 . S
C1823 C1824 1.349 . S
C1823 C1825 1.327 . S
C1823 H1846 0.950 . S
C1824 C1823 1.349 . S
C1824 C1836 1.349 1_554 S
C1825 C1823 1.327 . S
C1825 C1841 1.429 . S
C1825 H1847 0.950 . S
C1826 H1822 0.949 . S
C1826 C1834 1.574 . S
C1826 C1842 1.368 1_556 S
H1827 C1835 0.950 . S
H1828 C1833 0.950 . S
H1829 C1834 0.949 . S
H1830 C1836 0.950 . S
H1831 C1837 0.950 . S
H1832 C1838 0.949 . S
C1833 H1828 0.950 . S
C1833 C1835 1.327 . S
C1833 C1839 1.429 . S
C1834 C1826 1.574 . S
C1834 H1829 0.949 . S
C1834 C1840 1.368 1_556 S
C1835 C1819 1.349 . S
C1835 H1827 0.950 . S
C1835 C1833 1.327 . S
C1836 C1824 1.349 1_556 S
C1836 H1830 0.950 . S
C1836 C1837 1.327 . S
C1837 H1831 0.950 . S
C1837 C1836 1.327 . S
C1837 C1841 1.429 1_556 S
C1838 C1821 1.574 . S
C1838 H1832 0.949 . S
C1838 C1842 1.368 . S
C1839 C1820 1.429 1_554 S
C1839 C1833 1.429 . S
C1839 C1840 1.523 . S
C1840 C1821 1.368 . S
C1840 C1834 1.368 1_554 S
C1840 C1839 1.523 . S
C1841 C1825 1.429 . S
C1841 C1837 1.429 1_554 S
C1841 C1842 1.523 . S
C1842 C1826 1.368 1_554 S
C1842 C1838 1.368 . S
C1842 C1841 1.523 . S
H1843 C1818 0.950 . S
H1844 C1820 0.950 . S
H1845 C1821 0.949 . S
H1846 C1823 0.950 . S
H1847 C1825 0.950 . S
C1848 C1849 1.349 . S
C1848 C1850 1.327 . S
C1848 H1873 0.950 . S
C1849 C1848 1.349 . S
C1849 C1865 1.349 . S
C1850 C1848 1.327 . S
C1850 C1869 1.429 . S
C1850 H1874 0.950 . S
C1851 C1868 1.574 . S
C1851 C1870 1.368 . S
C1851 H1875 0.949 . S
H1852 C1856 0.949 . S
C1853 C1854 1.349 . S
C1853 C1855 1.327 . S
C1853 H1876 0.950 . S
C1854 C1853 1.349 . S
C1854 C1866 1.349 . S
C1855 C1853 1.327 . S
C1855 C1871 1.429 . S
C1855 H1877 0.950 . S
C1856 H1852 0.949 . S
C1856 C1864 1.574 . S
C1856 C1872 1.368 . S
H1857 C1865 0.950 . S
H1858 C1863 0.950 . S
H1859 C1864 0.949 . S
H1860 C1866 0.950 . S
H1861 C1867 0.950 . S
H1862 C1868 0.949 . S
C1863 H1858 0.950 . S
C1863 C1865 1.327 . S
C1863 C1869 1.429 . S
C1864 C1856 1.574 . S
C1864 H1859 0.949 . S
C1864 C1870 1.368 . S
C1865 C1849 1.349 . S
C1865 H1857 0.950 . S
C1865 C1863 1.327 . S
C1866 C1854 1.349 . S
C1866 H1860 0.950 . S
C1866 C1867 1.327 . S
C1867 H1861 0.950 . S
C1867 C1866 1.327 . S
C1867 C1871 1.429 . S
C1868 C1851 1.574 . S
C1868 H1862 0.949 . S
C1868 C1872 1.368 . S
C1869 C1850 1.429 . S
C1869 C1863 1.429 . S
C1869 C1870 1.523 . S
C1870 C1851 1.368 . S
C1870 C1864 1.368 . S
C1870 C1869 1.523 . S
C1871 C1855 1.429 . S
C1871 C1867 1.429 . S
C1871 C1872 1.523 . S
C1872 C1856 1.368 . S
C1872 C1868 1.368 . S
C1872 C1871 1.523 . S
H1873 C1848 0.950 . S
H1874 C1850 0.950 . S
H1875 C1851 0.949 . S
H1876 C1853 0.950 . S
H1877 C1855 0.950 . S
C1878 C1879 1.347 . S
C1878 C1880 1.327 . S
C1878 H1903 0.950 . S
C1879 C1878 1.347 . S
C1879 C1895 1.350 1_455 S
C1880 C1878 1.327 . S
C1880 C1899 1.429 . S
C1880 H1904 0.950 . S
C1881 C1898 1.574 . S
C1881 C1900 1.368 . S
C1881 H1905 0.949 1_455 S
H1882 C1886 0.949 . S
C1883 C1884 1.349 . S
C1883 C1885 1.327 . S
C1883 H1906 0.950 . S
C1884 C1883 1.349 . S
C1884 C1896 1.349 . S
C1885 C1883 1.327 . S
C1885 C1901 1.429 . S
C1885 H1907 0.950 . S
C1886 H1882 0.949 . S
C1886 C1894 1.574 . S
C1886 C1902 1.368 . S
H1887 C1895 0.950 . S
H1888 C1893 0.950 . S
H1889 C1894 0.949 . S
H1890 C1896 0.950 . S
H1891 C1897 0.950 . S
H1892 C1898 0.949 . S
C1893 H1888 0.950 . S
C1893 C1895 1.327 . S
C1893 C1899 1.429 1_655 S
C1894 C1886 1.574 . S
C1894 H1889 0.949 . S
C1894 C1900 1.368 . S
C1895 C1879 1.350 1_655 S
C1895 H1887 0.950 . S
C1895 C1893 1.327 . S
C1896 C1884 1.349 . S
C1896 H1890 0.950 . S
C1896 C1897 1.327 . S
C1897 H1891 0.950 . S
C1897 C1896 1.327 . S
C1897 C1901 1.429 . S
C1898 C1881 1.574 . S
C1898 H1892 0.949 . S
C1898 C1902 1.368 . S
C1899 C1880 1.429 . S
C1899 C1893 1.429 1_455 S
C1899 C1900 1.523 . S
C1900 C1881 1.368 . S
C1900 C1894 1.368 . S
C1900 C1899 1.523 . S
C1901 C1885 1.429 . S
C1901 C1897 1.429 . S
C1901 C1902 1.523 . S
C1902 C1886 1.368 . S
C1902 C1898 1.368 . S
C1902 C1901 1.523 . S
H1903 C1878 0.950 . S
H1904 C1880 0.950 . S
H1905 C1881 0.949 1_655 S
H1906 C1883 0.950 . S
H1907 C1885 0.950 . S
C1908 C1909 1.349 . S
C1908 C1910 1.327 . S
C1908 H1933 0.950 . S
C1909 C1908 1.349 . S
C1909 C1925 1.349 . S
C1910 C1908 1.327 . S
C1910 C1929 1.429 . S
C1910 H1934 0.950 . S
C1911 C1928 1.574 . S
C1911 C1930 1.368 . S
C1911 H1935 0.949 . S
H1912 C1916 0.949 . S
C1913 C1914 1.349 . S
C1913 C1915 1.327 . S
C1913 H1936 0.950 . S
C1914 C1913 1.349 . S
C1914 C1926 1.349 . S
C1915 C1913 1.327 . S
C1915 C1931 1.429 . S
C1915 H1937 0.950 . S
C1916 H1912 0.949 . S
C1916 C1924 1.574 . S
C1916 C1932 1.368 . S
H1917 C1925 0.950 . S
H1918 C1923 0.950 . S
H1919 C1924 0.949 . S
H1920 C1926 0.950 . S
H1921 C1927 0.950 . S
H1922 C1928 0.949 . S
C1923 H1918 0.950 . S
C1923 C1925 1.327 . S
C1923 C1929 1.429 . S
C1924 C1916 1.574 . S
C1924 H1919 0.949 . S
C1924 C1930 1.368 . S
C1925 C1909 1.349 . S
C1925 H1917 0.950 . S
C1925 C1923 1.327 . S
C1926 C1914 1.349 . S
C1926 H1920 0.950 . S
C1926 C1927 1.327 . S
C1927 H1921 0.950 . S
C1927 C1926 1.327 . S
C1927 C1931 1.429 . S
C1928 C1911 1.574 . S
C1928 H1922 0.949 . S
C1928 C1932 1.368 . S
C1929 C1910 1.429 . S
C1929 C1923 1.429 . S
C1929 C1930 1.523 . S
C1930 C1911 1.368 . S
C1930 C1924 1.368 . S
C1930 C1929 1.523 . S
C1931 C1915 1.429 . S
C1931 C1927 1.429 . S
C1931 C1932 1.523 . S
C1932 C1916 1.368 . S
C1932 C1928 1.368 . S
C1932 C1931 1.523 . S
H1933 C1908 0.950 . S
H1934 C1910 0.950 . S
H1935 C1911 0.949 . S
H1936 C1913 0.950 . S
H1937 C1915 0.950 . S
C1938 C1939 1.349 . S
C1938 C1940 1.327 . S
C1938 H1963 0.950 . S
C1939 C1938 1.349 . S
C1939 C1955 1.349 1_455 S
C1940 C1938 1.327 . S
C1940 C1959 1.429 . S
C1940 H1964 0.950 . S
C1941 C1958 1.574 . S
C1941 C1960 1.368 1_655 S
C1941 H1965 0.949 . S
H1942 C1946 0.949 . S
C1943 C1944 1.349 1_655 S
C1943 C1945 1.327 . S
C1943 H1966 0.950 . S
C1944 C1943 1.349 1_455 S
C1944 C1956 1.349 . S
C1945 C1943 1.327 . S
C1945 C1961 1.429 1_655 S
C1945 H1967 0.950 . S
C1946 H1942 0.949 . S
C1946 C1954 1.574 . S
C1946 C1962 1.368 . S
H1947 C1955 0.950 . S
H1948 C1953 0.950 . S
H1949 C1954 0.949 . S
H1950 C1956 0.950 . S
H1951 C1957 0.950 . S
H1952 C1958 0.949 . S
C1953 H1948 0.950 . S
C1953 C1955 1.327 . S
C1953 C1959 1.429 1_655 S
C1954 C1946 1.574 . S
C1954 H1949 0.949 . S
C1954 C1960 1.368 . S
C1955 C1939 1.349 1_655 S
C1955 H1947 0.950 . S
C1955 C1953 1.327 . S
C1956 C1944 1.349 . S
C1956 H1950 0.950 . S
C1956 C1957 1.327 . S
C1957 H1951 0.950 . S
C1957 C1956 1.327 . S
C1957 C1961 1.429 . S
C1958 C1941 1.574 . S
C1958 H1952 0.949 . S
C1958 C1962 1.368 1_655 S
C1959 C1940 1.429 . S
C1959 C1953 1.429 1_455 S
C1959 C1960 1.523 . S
C1960 C1941 1.368 1_455 S
C1960 C1954 1.368 . S
C1960 C1959 1.523 . S
C1961 C1945 1.429 1_455 S
C1961 C1957 1.429 . S
C1961 C1962 1.523 . S
C1962 C1946 1.368 . S
C1962 C1958 1.368 1_455 S
C1962 C1961 1.523 . S
H1963 C1938 0.950 . S
H1964 C1940 0.950 . S
H1965 C1941 0.949 . S
H1966 C1943 0.950 . S
H1967 C1945 0.950 . S
C1968 C1969 1.349 . S
C1968 C1970 1.327 . S
C1968 H1993 0.950 . S
C1969 C1968 1.349 . S
C1969 C1985 1.349 . S
C1970 C1968 1.327 . S
C1970 C1989 1.429 . S
C1970 H1994 0.950 . S
C1971 C1988 1.574 . S
C1971 C1990 1.368 . S
C1971 H1995 0.949 . S
H1972 C1976 0.949 . S
C1973 C1974 1.349 . S
C1973 C1975 1.327 . S
C1973 H1996 0.950 . S
C1974 C1973 1.349 . S
C1974 C1986 1.349 . S
C1975 C1973 1.327 . S
C1975 C1991 1.429 . S
C1975 H1997 0.950 . S
C1976 H1972 0.949 . S
C1976 C1984 1.574 . S
C1976 C1992 1.368 . S
H1977 C1985 0.950 . S
H1978 C1983 0.950 . S
H1979 C1984 0.949 . S
H1980 C1986 0.950 . S
H1981 C1987 0.950 . S
H1982 C1988 0.949 . S
C1983 H1978 0.950 . S
C1983 C1985 1.327 . S
C1983 C1989 1.429 . S
C1984 C1976 1.574 . S
C1984 H1979 0.949 . S
C1984 C1990 1.368 . S
C1985 C1969 1.349 . S
C1985 H1977 0.950 . S
C1985 C1983 1.327 . S
C1986 C1974 1.349 . S
C1986 H1980 0.950 . S
C1986 C1987 1.327 . S
C1987 H1981 0.950 . S
C1987 C1986 1.327 . S
C1987 C1991 1.429 . S
C1988 C1971 1.574 . S
C1988 H1982 0.949 . S
C1988 C1992 1.368 . S
C1989 C1970 1.429 . S
C1989 C1983 1.429 . S
C1989 C1990 1.523 . S
C1990 C1971 1.368 . S
C1990 C1984 1.368 . S
C1990 C1989 1.523 . S
C1991 C1975 1.429 . S
C1991 C1987 1.429 . S
C1991 C1992 1.523 . S
C1992 C1976 1.368 . S
C1992 C1988 1.368 . S
C1992 C1991 1.523 . S
H1993 C1968 0.950 . S
H1994 C1970 0.950 . S
H1995 C1971 0.949 . S
H1996 C1973 0.950 . S
H1997 C1975 0.950 . S
C1998 C1999 1.349 . S
C1998 C2000 1.327 . S
C1998 H2023 0.950 . S
C1999 C1998 1.349 . S
C1999 C2015 1.349 . S
C2000 C1998 1.327 . S
C2000 C2019 1.429 . S
C2000 H2024 0.950 . S
C2001 C2018 1.574 . S
C2001 C2020 1.368 . S
C2001 H2025 0.949 . S
H2002 C2006 0.949 . S
C2003 C2004 1.349 . S
C2003 C2005 1.327 . S
C2003 H2026 0.950 . S
C2004 C2003 1.349 . S
C2004 C2016 1.349 . S
C2005 C2003 1.327 . S
C2005 C2021 1.429 . S
C2005 H2027 0.950 . S
C2006 H2002 0.949 . S
C2006 C2014 1.574 . S
C2006 C2022 1.368 . S
H2007 C2015 0.950 . S
H2008 C2013 0.950 . S
H2009 C2014 0.949 . S
H2010 C2016 0.950 . S
H2011 C2017 0.950 . S
H2012 C2018 0.949 . S
C2013 H2008 0.950 . S
C2013 C2015 1.327 . S
C2013 C2019 1.429 . S
C2014 C2006 1.574 . S
C2014 H2009 0.949 . S
C2014 C2020 1.368 . S
C2015 C1999 1.349 . S
C2015 H2007 0.950 . S
C2015 C2013 1.327 . S
C2016 C2004 1.349 . S
C2016 H2010 0.950 . S
C2016 C2017 1.327 . S
C2017 H2011 0.950 . S
C2017 C2016 1.327 . S
C2017 C2021 1.429 . S
C2018 C2001 1.574 . S
C2018 H2012 0.949 . S
C2018 C2022 1.368 . S
C2019 C2000 1.429 . S
C2019 C2013 1.429 . S
C2019 C2020 1.523 . S
C2020 C2001 1.368 . S
C2020 C2014 1.368 . S
C2020 C2019 1.523 . S
C2021 C2005 1.429 . S
C2021 C2017 1.429 . S
C2021 C2022 1.523 . S
C2022 C2006 1.368 . S
C2022 C2018 1.368 . S
C2022 C2021 1.523 . S
H2023 C1998 0.950 . S
H2024 C2000 0.950 . S
H2025 C2001 0.949 . S
H2026 C2003 0.950 . S
H2027 C2005 0.950 . S
C2028 C2029 1.349 1_565 S
C2028 C2030 1.327 . S
C2028 H2053 0.950 . S
C2029 C2028 1.349 1_545 S
C2029 C2045 1.349 . S
C2030 C2028 1.327 . S
C2030 C2049 1.429 1_565 S
C2030 H2054 0.950 . S
C2031 C2048 1.574 . S
C2031 C2050 1.368 . S
C2031 H2055 0.949 . S
H2032 C2036 0.949 1_565 S
C2033 C2034 1.349 . S
C2033 C2035 1.327 . S
C2033 H2056 0.950 . S
C2034 C2033 1.349 . S
C2034 C2046 1.349 . S
C2035 C2033 1.327 . S
C2035 C2051 1.429 . S
C2035 H2057 0.950 . S
C2036 H2032 0.949 1_545 S
C2036 C2044 1.574 1_545 S
C2036 C2052 1.368 . S
H2037 C2045 0.950 . S
H2038 C2043 0.950 . S
H2039 C2044 0.977 . S
H2040 C2046 0.950 . S
H2041 C2047 0.950 1_565 S
H2042 C2048 0.949 . S
C2043 H2038 0.950 . S
C2043 C2045 1.327 . S
C2043 C2049 1.429 . S
C2044 C2036 1.574 1_565 S
C2044 H2039 0.977 . S
C2044 C2050 1.340 1_565 S
C2045 C2029 1.349 . S
C2045 H2037 0.950 . S
C2045 C2043 1.327 . S
C2046 C2034 1.349 . S
C2046 H2040 0.950 . S
C2046 C2047 1.327 . S
C2047 H2041 0.950 1_545 S
C2047 C2046 1.327 . S
C2047 C2051 1.429 . S
C2048 C2031 1.574 . S
C2048 H2042 0.949 . S
C2048 C2052 1.368 . S
C2049 C2030 1.429 1_545 S
C2049 C2043 1.429 . S
C2049 C2050 1.523 . S
C2050 C2031 1.368 . S
C2050 C2044 1.340 1_545 S
C2050 C2049 1.523 . S
C2051 C2035 1.429 . S
C2051 C2047 1.429 . S
C2051 C2052 1.523 . S
C2052 C2036 1.368 . S
C2052 C2048 1.368 . S
C2052 C2051 1.523 . S
H2053 C2028 0.950 . S
H2054 C2030 0.950 . S
H2055 C2031 0.949 . S
H2056 C2033 0.950 . S
H2057 C2035 0.950 . S
C2058 C2059 1.349 . S
C2058 C2060 1.327 . S
C2058 H2083 0.950 . S
C2059 C2058 1.349 . S
C2059 C2075 1.349 1_565 S
C2060 C2058 1.327 . S
C2060 C2079 1.429 . S
C2060 H2084 0.950 . S
C2061 C2078 1.574 . S
C2061 C2080 1.368 . S
C2061 H2085 0.949 . S
H2062 C2066 0.949 . S
C2063 C2064 1.349 . S
C2063 C2065 1.327 . S
C2063 H2086 0.950 . S
C2064 C2063 1.349 . S
C2064 C2076 1.349 . S
C2065 C2063 1.327 . S
C2065 C2081 1.429 . S
C2065 H2087 0.950 . S
C2066 H2062 0.949 . S
C2066 C2074 1.574 . S
C2066 C2082 1.368 . S
H2067 C2075 0.950 . S
H2068 C2073 0.929 1_545 S
H2069 C2074 0.949 . S
H2070 C2076 0.950 . S
H2071 C2077 0.950 . S
H2072 C2078 0.949 . S
C2073 H2068 0.929 1_565 S
C2073 C2075 1.322 1_565 S
C2073 C2079 1.459 . S
C2074 C2066 1.574 . S
C2074 H2069 0.949 . S
C2074 C2080 1.368 . S
C2075 C2059 1.349 1_545 S
C2075 H2067 0.950 . S
C2075 C2073 1.322 1_545 S
C2076 C2064 1.349 . S
C2076 H2070 0.950 . S
C2076 C2077 1.327 . S
C2077 H2071 0.950 . S
C2077 C2076 1.327 . S
C2077 C2081 1.429 . S
C2078 C2061 1.574 . S
C2078 H2072 0.949 . S
C2078 C2082 1.368 . S
C2079 C2060 1.429 . S
C2079 C2073 1.459 . S
C2079 C2080 1.523 . S
C2080 C2061 1.368 . S
C2080 C2074 1.368 . S
C2080 C2079 1.523 . S
C2081 C2065 1.429 . S
C2081 C2077 1.429 . S
C2081 C2082 1.523 . S
C2082 C2066 1.368 . S
C2082 C2078 1.368 . S
C2082 C2081 1.523 . S
H2083 C2058 0.950 . S
H2084 C2060 0.950 . S
H2085 C2061 0.949 . S
H2086 C2063 0.950 . S
H2087 C2065 0.950 . S
C2088 C2089 1.349 . S
C2088 C2090 1.327 . S
C2088 H2113 0.950 . S
C2089 C2088 1.349 . S
C2089 C2105 1.349 . S
C2090 C2088 1.327 . S
C2090 C2109 1.429 . S
C2090 H2114 0.950 . S
C2091 C2108 1.574 . S
C2091 C2110 1.368 . S
C2091 H2115 0.949 . S
H2092 C2096 0.949 . S
C2093 C2094 1.349 . S
C2093 C2095 1.327 . S
C2093 H2116 0.950 . S
C2094 C2093 1.349 . S
C2094 C2106 1.349 . S
C2095 C2093 1.327 . S
C2095 C2111 1.429 . S
C2095 H2117 0.950 . S
C2096 H2092 0.949 . S
C2096 C2104 1.574 . S
C2096 C2112 1.368 . S
H2097 C2105 0.950 . S
H2098 C2103 0.950 . S
H2099 C2104 0.949 . S
H2100 C2106 0.950 . S
H2101 C2107 0.950 . S
H2102 C2108 0.949 . S
C2103 H2098 0.950 . S
C2103 C2105 1.327 . S
C2103 C2109 1.429 . S
C2104 C2096 1.574 . S
C2104 H2099 0.949 . S
C2104 C2110 1.368 . S
C2105 C2089 1.349 . S
C2105 H2097 0.950 . S
C2105 C2103 1.327 . S
C2106 C2094 1.349 . S
C2106 H2100 0.950 . S
C2106 C2107 1.327 . S
C2107 H2101 0.950 . S
C2107 C2106 1.327 . S
C2107 C2111 1.429 . S
C2108 C2091 1.574 . S
C2108 H2102 0.949 . S
C2108 C2112 1.368 . S
C2109 C2090 1.429 . S
C2109 C2103 1.429 . S
C2109 C2110 1.523 . S
C2110 C2091 1.368 . S
C2110 C2104 1.368 . S
C2110 C2109 1.523 . S
C2111 C2095 1.429 . S
C2111 C2107 1.429 . S
C2111 C2112 1.523 . S
C2112 C2096 1.368 . S
C2112 C2108 1.368 . S
C2112 C2111 1.523 . S
H2113 C2088 0.950 . S
H2114 C2090 0.950 . S
H2115 C2091 0.949 . S
H2116 C2093 0.950 . S
H2117 C2095 0.950 . S
C2118 C2119 1.349 . S
C2118 C2120 1.327 . S
C2118 H2143 0.950 . S
C2119 C2118 1.349 . S
C2119 C2135 1.349 1_556 S
C2120 C2118 1.327 . S
C2120 C2139 1.429 . S
C2120 H2144 0.950 . S
C2121 C2138 1.574 . S
C2121 C2140 1.368 . S
C2121 H2145 0.949 1_556 S
H2122 C2126 0.949 . S
C2123 C2124 1.349 . S
C2123 C2125 1.327 . S
C2123 H2146 0.950 . S
C2124 C2123 1.349 . S
C2124 C2136 1.349 . S
C2125 C2123 1.327 . S
C2125 C2141 1.429 . S
C2125 H2147 0.950 . S
C2126 H2122 0.949 . S
C2126 C2134 1.574 . S
C2126 C2142 1.368 . S
H2127 C2135 0.950 . S
H2128 C2133 0.950 . S
H2129 C2134 0.949 . S
H2130 C2136 0.950 . S
H2131 C2137 0.950 . S
H2132 C2138 0.949 . S
C2133 H2128 0.950 . S
C2133 C2135 1.327 . S
C2133 C2139 1.429 1_554 S
C2134 C2126 1.574 . S
C2134 H2129 0.949 . S
C2134 C2140 1.368 . S
C2135 C2119 1.349 1_554 S
C2135 H2127 0.950 . S
C2135 C2133 1.327 . S
C2136 C2124 1.349 . S
C2136 H2130 0.950 . S
C2136 C2137 1.327 . S
C2137 H2131 0.950 . S
C2137 C2136 1.327 . S
C2137 C2141 1.429 . S
C2138 C2121 1.574 . S
C2138 H2132 0.949 . S
C2138 C2142 1.368 . S
C2139 C2120 1.429 . S
C2139 C2133 1.429 1_556 S
C2139 C2140 1.523 . S
C2140 C2121 1.368 . S
C2140 C2134 1.368 . S
C2140 C2139 1.523 . S
C2141 C2125 1.429 . S
C2141 C2137 1.429 . S
C2141 C2142 1.523 . S
C2142 C2126 1.368 . S
C2142 C2138 1.368 . S
C2142 C2141 1.523 . S
H2143 C2118 0.950 . S
H2144 C2120 0.950 . S
H2145 C2121 0.949 1_554 S
H2146 C2123 0.950 . S
H2147 C2125 0.950 . S
C2148 C2149 1.349 . S
C2148 C2150 1.327 . S
C2148 H2173 0.950 . S
C2149 C2148 1.349 . S
C2149 C2165 1.349 . S
C2150 C2148 1.327 . S
C2150 C2169 1.429 . S
C2150 H2174 0.950 . S
C2151 C2168 1.574 . S
C2151 C2170 1.368 . S
C2151 H2175 0.949 . S
H2152 C2156 0.949 . S
C2153 C2154 1.349 . S
C2153 C2155 1.327 . S
C2153 H2176 0.950 . S
C2154 C2153 1.349 . S
C2154 C2166 1.349 . S
C2155 C2153 1.327 . S
C2155 C2171 1.429 . S
C2155 H2177 0.950 . S
C2156 H2152 0.949 . S
C2156 C2164 1.574 . S
C2156 C2172 1.368 . S
H2157 C2165 0.950 . S
H2158 C2163 0.950 . S
H2159 C2164 0.949 . S
H2160 C2166 0.950 . S
H2161 C2167 0.950 . S
H2162 C2168 0.949 . S
C2163 H2158 0.950 . S
C2163 C2165 1.327 . S
C2163 C2169 1.429 . S
C2164 C2156 1.574 . S
C2164 H2159 0.949 . S
C2164 C2170 1.368 . S
C2165 C2149 1.349 . S
C2165 H2157 0.950 . S
C2165 C2163 1.327 . S
C2166 C2154 1.349 . S
C2166 H2160 0.950 . S
C2166 C2167 1.327 . S
C2167 H2161 0.950 . S
C2167 C2166 1.327 . S
C2167 C2171 1.429 . S
C2168 C2151 1.574 . S
C2168 H2162 0.949 . S
C2168 C2172 1.368 . S
C2169 C2150 1.429 . S
C2169 C2163 1.429 . S
C2169 C2170 1.523 . S
C2170 C2151 1.368 . S
C2170 C2164 1.368 . S
C2170 C2169 1.523 . S
C2171 C2155 1.429 . S
C2171 C2167 1.429 . S
C2171 C2172 1.523 . S
C2172 C2156 1.368 . S
C2172 C2168 1.368 . S
C2172 C2171 1.523 . S
H2173 C2148 0.950 . S
H2174 C2150 0.950 . S
H2175 C2151 0.949 . S
H2176 C2153 0.950 . S
H2177 C2155 0.950 . S
C2178 C2179 1.349 . S
C2178 C2180 1.327 . S
C2178 H2203 0.950 . S
C2179 C2178 1.349 . S
C2179 C2195 1.349 1_554 S
C2180 C2178 1.327 . S
C2180 C2199 1.429 . S
C2180 H2204 0.950 . S
C2181 C2198 1.574 . S
C2181 C2200 1.368 . S
C2181 H2205 0.949 1_554 S
H2182 C2186 0.949 . S
C2183 C2184 1.349 . S
C2183 C2185 1.327 . S
C2183 H2206 0.950 . S
C2184 C2183 1.349 . S
C2184 C2196 1.349 . S
C2185 C2183 1.327 . S
C2185 C2201 1.429 . S
C2185 H2207 0.950 . S
C2186 H2182 0.949 . S
C2186 C2194 1.574 . S
C2186 C2202 1.368 . S
H2187 C2195 0.950 . S
H2188 C2193 0.950 . S
H2189 C2194 0.949 . S
H2190 C2196 0.950 . S
H2191 C2197 0.950 . S
H2192 C2198 0.949 1_556 S
C2193 H2188 0.950 . S
C2193 C2195 1.327 . S
C2193 C2199 1.429 1_556 S
C2194 C2186 1.574 . S
C2194 H2189 0.949 . S
C2194 C2200 1.368 . S
C2195 C2179 1.349 1_556 S
C2195 H2187 0.950 . S
C2195 C2193 1.327 . S
C2196 C2184 1.349 . S
C2196 H2190 0.950 . S
C2196 C2197 1.327 . S
C2197 H2191 0.950 . S
C2197 C2196 1.327 . S
C2197 C2201 1.429 . S
C2198 C2181 1.574 . S
C2198 H2192 0.949 1_554 S
C2198 C2202 1.368 . S
C2199 C2180 1.429 . S
C2199 C2193 1.429 1_554 S
C2199 C2200 1.523 . S
C2200 C2181 1.368 . S
C2200 C2194 1.368 . S
C2200 C2199 1.523 . S
C2201 C2185 1.429 . S
C2201 C2197 1.429 . S
C2201 C2202 1.523 . S
C2202 C2186 1.368 . S
C2202 C2198 1.368 . S
C2202 C2201 1.523 . S
H2203 C2178 0.950 . S
H2204 C2180 0.950 . S
H2205 C2181 0.949 1_556 S
H2206 C2183 0.950 . S
H2207 C2185 0.950 . S
C2208 C2209 1.349 . S
C2208 C2210 1.327 . S
C2208 H2233 0.950 . S
C2209 C2208 1.349 . S
C2209 C2225 1.349 . S
C2210 C2208 1.327 . S
C2210 C2229 1.429 . S
C2210 H2234 0.950 . S
C2211 C2228 1.574 . S
C2211 C2230 1.368 . S
C2211 H2235 0.949 . S
H2212 C2216 0.949 . S
C2213 C2214 1.349 . S
C2213 C2215 1.327 . S
C2213 H2236 0.950 . S
C2214 C2213 1.349 . S
C2214 C2226 1.349 . S
C2215 C2213 1.327 . S
C2215 C2231 1.429 . S
C2215 H2237 0.950 . S
C2216 H2212 0.949 . S
C2216 C2224 1.574 . S
C2216 C2232 1.368 . S
H2217 C2225 0.950 . S
H2218 C2223 0.950 . S
H2219 C2224 0.949 . S
H2220 C2226 0.950 . S
H2221 C2227 0.950 . S
H2222 C2228 0.949 . S
C2223 H2218 0.950 . S
C2223 C2225 1.327 . S
C2223 C2229 1.429 . S
C2224 C2216 1.574 . S
C2224 H2219 0.949 . S
C2224 C2230 1.368 . S
C2225 C2209 1.349 . S
C2225 H2217 0.950 . S
C2225 C2223 1.327 . S
C2226 C2214 1.349 . S
C2226 H2220 0.950 . S
C2226 C2227 1.327 . S
C2227 H2221 0.950 . S
C2227 C2226 1.327 . S
C2227 C2231 1.429 . S
C2228 C2211 1.574 . S
C2228 H2222 0.949 . S
C2228 C2232 1.368 . S
C2229 C2210 1.429 . S
C2229 C2223 1.429 . S
C2229 C2230 1.523 . S
C2230 C2211 1.368 . S
C2230 C2224 1.368 . S
C2230 C2229 1.523 . S
C2231 C2215 1.429 . S
C2231 C2227 1.429 . S
C2231 C2232 1.523 . S
C2232 C2216 1.368 . S
C2232 C2228 1.368 . S
C2232 C2231 1.523 . S
H2233 C2208 0.950 . S
H2234 C2210 0.950 . S
H2235 C2211 0.949 . S
H2236 C2213 0.950 . S
H2237 C2215 0.950 . S
C2238 C2239 1.349 . S
C2238 C2240 1.327 . S
C2238 H2263 0.950 . S
C2239 C2238 1.349 . S
C2239 C2255 1.349 1_655 S
C2240 C2238 1.327 . S
C2240 C2259 1.429 . S
C2240 H2264 0.950 . S
C2241 C2258 1.574 . S
C2241 C2260 1.368 . S
C2241 H2265 0.949 . S
H2242 C2246 0.949 . S
C2243 C2244 1.349 . S
C2243 C2245 1.327 . S
C2243 H2266 0.950 . S
C2244 C2243 1.349 . S
C2244 C2256 1.349 . S
C2245 C2243 1.327 . S
C2245 C2261 1.429 . S
C2245 H2267 0.950 . S
C2246 H2242 0.949 . S
C2246 C2254 1.574 . S
C2246 C2262 1.368 . S
H2247 C2255 0.950 . S
H2248 C2253 0.950 1_455 S
H2249 C2254 0.949 . S
H2250 C2256 0.950 . S
H2251 C2257 0.950 . S
H2252 C2258 0.949 . S
C2253 H2248 0.950 1_655 S
C2253 C2255 1.327 1_655 S
C2253 C2259 1.429 . S
C2254 C2246 1.574 . S
C2254 H2249 0.949 . S
C2254 C2260 1.368 . S
C2255 C2239 1.349 1_455 S
C2255 H2247 0.950 . S
C2255 C2253 1.327 1_455 S
C2256 C2244 1.349 . S
C2256 H2250 0.950 . S
C2256 C2257 1.327 . S
C2257 H2251 0.950 . S
C2257 C2256 1.327 . S
C2257 C2261 1.429 . S
C2258 C2241 1.574 . S
C2258 H2252 0.949 . S
C2258 C2262 1.368 . S
C2259 C2240 1.429 . S
C2259 C2253 1.429 . S
C2259 C2260 1.523 . S
C2260 C2241 1.368 . S
C2260 C2254 1.368 . S
C2260 C2259 1.523 . S
C2261 C2245 1.429 . S
C2261 C2257 1.429 . S
C2261 C2262 1.523 . S
C2262 C2246 1.368 . S
C2262 C2258 1.368 . S
C2262 C2261 1.523 . S
H2263 C2238 0.950 . S
H2264 C2240 0.950 . S
H2265 C2241 0.949 . S
H2266 C2243 0.950 . S
H2267 C2245 0.950 . S
C2268 C2269 1.349 . S
C2268 C2270 1.327 . S
C2268 H2293 0.950 . S
C2269 C2268 1.349 . S
C2269 C2285 1.349 . S
C2270 C2268 1.327 . S
C2270 C2289 1.429 . S
C2270 H2294 0.950 . S
C2271 C2288 1.574 . S
C2271 C2290 1.368 . S
C2271 H2295 0.949 . S
H2272 C2276 0.949 . S
C2273 C2274 1.349 . S
C2273 C2275 1.327 . S
C2273 H2296 0.950 . S
C2274 C2273 1.349 . S
C2274 C2286 1.349 . S
C2275 C2273 1.327 . S
C2275 C2291 1.429 . S
C2275 H2297 0.950 . S
C2276 H2272 0.949 . S
C2276 C2284 1.574 . S
C2276 C2292 1.368 . S
H2277 C2285 0.950 . S
H2278 C2283 0.950 . S
H2279 C2284 0.949 . S
H2280 C2286 0.950 . S
H2281 C2287 0.950 . S
H2282 C2288 0.949 . S
C2283 H2278 0.950 . S
C2283 C2285 1.327 . S
C2283 C2289 1.429 . S
C2284 C2276 1.574 . S
C2284 H2279 0.949 . S
C2284 C2290 1.368 . S
C2285 C2269 1.349 . S
C2285 H2277 0.950 . S
C2285 C2283 1.327 . S
C2286 C2274 1.349 . S
C2286 H2280 0.950 . S
C2286 C2287 1.327 . S
C2287 H2281 0.950 . S
C2287 C2286 1.327 . S
C2287 C2291 1.429 . S
C2288 C2271 1.574 . S
C2288 H2282 0.949 . S
C2288 C2292 1.368 . S
C2289 C2270 1.429 . S
C2289 C2283 1.429 . S
C2289 C2290 1.523 . S
C2290 C2271 1.368 . S
C2290 C2284 1.368 . S
C2290 C2289 1.523 . S
C2291 C2275 1.429 . S
C2291 C2287 1.429 . S
C2291 C2292 1.523 . S
C2292 C2276 1.368 . S
C2292 C2288 1.368 . S
C2292 C2291 1.523 . S
H2293 C2268 0.950 . S
H2294 C2270 0.950 . S
H2295 C2271 0.949 . S
H2296 C2273 0.950 . S
H2297 C2275 0.950 . S
C2298 C2299 1.349 1_655 S
C2298 C2300 1.327 . S
C2298 H2323 0.950 . S
C2299 C2298 1.349 1_455 S
C2299 C2315 1.349 . S
C2300 C2298 1.327 . S
C2300 C2319 1.429 1_655 S
C2300 H2324 0.950 . S
C2301 C2318 1.574 . S
C2301 C2320 1.368 . S
C2301 H2325 0.949 . S
H2302 C2306 0.949 1_655 S
C2303 C2304 1.349 . S
C2303 C2305 1.327 . S
C2303 H2326 0.950 . S
C2304 C2303 1.349 . S
C2304 C2316 1.349 . S
C2305 C2303 1.327 . S
C2305 C2321 1.429 . S
C2305 H2327 0.950 . S
C2306 H2302 0.949 1_455 S
C2306 C2314 1.574 . S
C2306 C2322 1.368 . S
H2307 C2315 0.950 . S
H2308 C2313 0.950 . S
H2309 C2314 0.934 1_655 S
H2310 C2316 0.950 . S
H2311 C2317 0.975 . S
H2312 C2318 0.949 . S
C2313 H2308 0.950 . S
C2313 C2315 1.327 . S
C2313 C2319 1.429 . S
C2314 C2306 1.574 . S
C2314 H2309 0.934 1_455 S
C2314 C2320 1.385 . S
C2315 C2299 1.349 . S
C2315 H2307 0.950 . S
C2315 C2313 1.327 . S
C2316 C2304 1.349 . S
C2316 H2310 0.950 . S
C2316 C2317 1.327 . S
C2317 H2311 0.975 . S
C2317 C2316 1.327 . S
C2317 C2321 1.429 . S
C2318 C2301 1.574 . S
C2318 H2312 0.949 . S
C2318 C2322 1.368 . S
C2319 C2300 1.429 1_455 S
C2319 C2313 1.429 . S
C2319 C2320 1.523 . S
C2320 C2301 1.368 . S
C2320 C2314 1.385 . S
C2320 C2319 1.523 . S
C2321 C2305 1.429 . S
C2321 C2317 1.429 . S
C2321 C2322 1.523 . S
C2322 C2306 1.368 . S
C2322 C2318 1.368 . S
C2322 C2321 1.523 . S
H2323 C2298 0.950 . S
H2324 C2300 0.950 . S
H2325 C2301 0.949 . S
H2326 C2303 0.950 . S
H2327 C2305 0.950 . S
C2328 C2329 1.349 . S
C2328 C2330 1.327 . S
C2328 H2353 0.950 . S
C2329 C2328 1.349 . S
C2329 C2345 1.349 . S
C2330 C2328 1.327 . S
C2330 C2349 1.429 . S
C2330 H2354 0.950 . S
C2331 C2348 1.574 . S
C2331 C2350 1.368 . S
C2331 H2355 0.949 . S
H2332 C2336 0.949 . S
C2333 C2334 1.349 . S
C2333 C2335 1.327 . S
C2333 H2356 0.950 . S
C2334 C2333 1.349 . S
C2334 C2346 1.349 . S
C2335 C2333 1.327 . S
C2335 C2351 1.429 . S
C2335 H2357 0.950 . S
C2336 H2332 0.949 . S
C2336 C2344 1.574 . S
C2336 C2352 1.368 . S
H2337 C2345 0.950 . S
H2338 C2343 0.950 . S
H2339 C2344 0.949 . S
H2340 C2346 0.950 . S
H2341 C2347 0.950 . S
H2342 C2348 0.949 . S
C2343 H2338 0.950 . S
C2343 C2345 1.327 . S
C2343 C2349 1.429 . S
C2344 C2336 1.574 . S
C2344 H2339 0.949 . S
C2344 C2350 1.368 . S
C2345 C2329 1.349 . S
C2345 H2337 0.950 . S
C2345 C2343 1.327 . S
C2346 C2334 1.349 . S
C2346 H2340 0.950 . S
C2346 C2347 1.327 . S
C2347 H2341 0.950 . S
C2347 C2346 1.327 . S
C2347 C2351 1.429 . S
C2348 C2331 1.574 . S
C2348 H2342 0.949 . S
C2348 C2352 1.368 . S
C2349 C2330 1.429 . S
C2349 C2343 1.429 . S
C2349 C2350 1.523 . S
C2350 C2331 1.368 . S
C2350 C2344 1.368 . S
C2350 C2349 1.523 . S
C2351 C2335 1.429 . S
C2351 C2347 1.429 . S
C2351 C2352 1.523 . S
C2352 C2336 1.368 . S
C2352 C2348 1.368 . S
C2352 C2351 1.523 . S
H2353 C2328 0.950 . S
H2354 C2330 0.950 . S
H2355 C2331 0.949 . S
H2356 C2333 0.950 . S
H2357 C2335 0.950 . S
C2358 C2359 1.349 . S
C2358 C2360 1.327 . S
C2358 H2383 0.950 . S
C2359 C2358 1.349 . S
C2359 C2375 1.349 . S
C2360 C2358 1.327 . S
C2360 C2379 1.429 . S
C2360 H2384 0.950 . S
C2361 C2378 1.574 . S
C2361 C2380 1.368 . S
C2361 H2385 0.949 . S
H2362 C2366 0.949 . S
C2363 C2364 1.349 . S
C2363 C2365 1.327 . S
C2363 H2386 0.950 . S
C2364 C2363 1.349 . S
C2364 C2376 1.349 . S
C2365 C2363 1.327 . S
C2365 C2381 1.429 . S
C2365 H2387 0.950 . S
C2366 H2362 0.949 . S
C2366 C2374 1.574 . S
C2366 C2382 1.368 . S
H2367 C2375 0.950 . S
H2368 C2373 0.950 . S
H2369 C2374 0.949 . S
H2370 C2376 0.950 . S
H2371 C2377 0.950 . S
H2372 C2378 0.949 . S
C2373 H2368 0.950 . S
C2373 C2375 1.327 . S
C2373 C2379 1.429 . S
C2374 C2366 1.574 . S
C2374 H2369 0.949 . S
C2374 C2380 1.368 . S
C2375 C2359 1.349 . S
C2375 H2367 0.950 . S
C2375 C2373 1.327 . S
C2376 C2364 1.349 . S
C2376 H2370 0.950 . S
C2376 C2377 1.327 . S
C2377 H2371 0.950 . S
C2377 C2376 1.327 . S
C2377 C2381 1.429 . S
C2378 C2361 1.574 . S
C2378 H2372 0.949 . S
C2378 C2382 1.368 . S
C2379 C2360 1.429 . S
C2379 C2373 1.429 . S
C2379 C2380 1.523 . S
C2380 C2361 1.368 . S
C2380 C2374 1.368 . S
C2380 C2379 1.523 . S
C2381 C2365 1.429 . S
C2381 C2377 1.429 . S
C2381 C2382 1.523 . S
C2382 C2366 1.368 . S
C2382 C2378 1.368 . S
C2382 C2381 1.523 . S
H2383 C2358 0.950 . S
H2384 C2360 0.950 . S
H2385 C2361 0.949 . S
H2386 C2363 0.950 . S
H2387 C2365 0.950 . S
C2388 C2389 1.349 . S
C2388 C2390 1.327 . S
C2388 H2413 0.950 . S
C2389 C2388 1.349 . S
C2389 C2405 1.349 1_565 S
C2390 C2388 1.327 . S
C2390 C2409 1.429 . S
C2390 H2414 0.950 . S
C2391 C2408 1.574 1_545 S
C2391 C2410 1.368 1_545 S
C2391 H2415 0.949 . S
H2392 C2396 0.949 . S
C2393 C2394 1.349 . S
C2393 C2395 1.327 . S
C2393 H2416 0.963 . S
C2394 C2393 1.349 . S
C2394 C2406 1.349 . S
C2395 C2393 1.327 . S
C2395 C2411 1.429 . S
C2395 H2417 0.950 1_565 S
C2396 H2392 0.949 . S
C2396 C2404 1.574 . S
C2396 C2412 1.368 . S
H2397 C2405 0.950 . S
H2398 C2403 0.950 . S
H2399 C2404 0.949 . S
H2400 C2406 0.950 . S
H2401 C2407 0.950 . S
H2402 C2408 0.942 1_545 S
C2403 H2398 0.950 . S
C2403 C2405 1.327 . S
C2403 C2409 1.429 1_545 S
C2404 C2396 1.574 . S
C2404 H2399 0.949 . S
C2404 C2410 1.368 . S
C2405 C2389 1.349 1_545 S
C2405 H2397 0.950 . S
C2405 C2403 1.327 . S
C2406 C2394 1.349 . S
C2406 H2400 0.950 . S
C2406 C2407 1.327 . S
C2407 H2401 0.950 . S
C2407 C2406 1.327 . S
C2407 C2411 1.429 . S
C2408 C2391 1.574 1_565 S
C2408 H2402 0.942 1_565 S
C2408 C2412 1.376 . S
C2409 C2390 1.429 . S
C2409 C2403 1.429 1_565 S
C2409 C2410 1.523 . S
C2410 C2391 1.368 1_565 S
C2410 C2404 1.368 . S
C2410 C2409 1.523 . S
C2411 C2395 1.429 . S
C2411 C2407 1.429 . S
C2411 C2412 1.523 . S
C2412 C2396 1.368 . S
C2412 C2408 1.376 . S
C2412 C2411 1.523 . S
H2413 C2388 0.950 . S
H2414 C2390 0.950 . S
H2415 C2391 0.949 . S
H2416 C2393 0.963 . S
H2417 C2395 0.950 1_545 S
C2418 C2419 1.349 1_565 S
C2418 C2420 1.322 1_565 S
C2418 H2443 0.950 . S
C2419 C2418 1.349 1_545 S
C2419 C2435 1.349 . S
C2420 C2418 1.322 1_545 S
C2420 C2439 1.462 . S
C2420 H2444 0.923 1_545 S
C2421 C2438 1.574 . S
C2421 C2440 1.368 . S
C2421 H2445 0.949 . S
H2422 C2426 0.949 . S
C2423 C2424 1.349 . S
C2423 C2425 1.327 . S
C2423 H2446 0.950 . S
C2424 C2423 1.349 . S
C2424 C2436 1.349 . S
C2425 C2423 1.327 . S
C2425 C2441 1.429 . S
C2425 H2447 0.950 . S
C2426 H2422 0.949 . S
C2426 C2434 1.574 . S
C2426 C2442 1.368 . S
H2427 C2435 0.950 . S
H2428 C2433 0.950 . S
H2429 C2434 0.949 . S
H2430 C2436 0.950 . S
H2431 C2437 0.950 . S
H2432 C2438 0.949 . S
C2433 H2428 0.950 . S
C2433 C2435 1.327 . S
C2433 C2439 1.429 . S
C2434 C2426 1.574 . S
C2434 H2429 0.949 . S
C2434 C2440 1.368 . S
C2435 C2419 1.349 . S
C2435 H2427 0.950 . S
C2435 C2433 1.327 . S
C2436 C2424 1.349 . S
C2436 H2430 0.950 . S
C2436 C2437 1.327 . S
C2437 H2431 0.950 . S
C2437 C2436 1.327 . S
C2437 C2441 1.429 . S
C2438 C2421 1.574 . S
C2438 H2432 0.949 . S
C2438 C2442 1.368 . S
C2439 C2420 1.462 . S
C2439 C2433 1.429 . S
C2439 C2440 1.523 . S
C2440 C2421 1.368 . S
C2440 C2434 1.368 . S
C2440 C2439 1.523 . S
C2441 C2425 1.429 . S
C2441 C2437 1.429 . S
C2441 C2442 1.523 . S
C2442 C2426 1.368 . S
C2442 C2438 1.368 . S
C2442 C2441 1.523 . S
H2443 C2418 0.950 . S
H2444 C2420 0.923 1_565 S
H2445 C2421 0.949 . S
H2446 C2423 0.950 . S
H2447 C2425 0.950 . S
C2448 C2449 1.349 . S
C2448 C2450 1.327 . S
C2448 H2473 0.950 . S
C2449 C2448 1.349 . S
C2449 C2465 1.349 . S
C2450 C2448 1.327 . S
C2450 C2469 1.429 . S
C2450 H2474 0.950 . S
C2451 C2468 1.574 . S
C2451 C2470 1.368 . S
C2451 H2475 0.949 . S
H2452 C2456 0.949 . S
C2453 C2454 1.349 . S
C2453 C2455 1.327 . S
C2453 H2476 0.950 . S
C2454 C2453 1.349 . S
C2454 C2466 1.349 . S
C2455 C2453 1.327 . S
C2455 C2471 1.429 . S
C2455 H2477 0.950 . S
C2456 H2452 0.949 . S
C2456 C2464 1.574 . S
C2456 C2472 1.368 . S
H2457 C2465 0.950 . S
H2458 C2463 0.950 . S
H2459 C2464 0.949 . S
H2460 C2466 0.950 . S
H2461 C2467 0.950 . S
H2462 C2468 0.949 . S
C2463 H2458 0.950 . S
C2463 C2465 1.327 . S
C2463 C2469 1.429 . S
C2464 C2456 1.574 . S
C2464 H2459 0.949 . S
C2464 C2470 1.368 . S
C2465 C2449 1.349 . S
C2465 H2457 0.950 . S
C2465 C2463 1.327 . S
C2466 C2454 1.349 . S
C2466 H2460 0.950 . S
C2466 C2467 1.327 . S
C2467 H2461 0.950 . S
C2467 C2466 1.327 . S
C2467 C2471 1.429 . S
C2468 C2451 1.574 . S
C2468 H2462 0.949 . S
C2468 C2472 1.368 . S
C2469 C2450 1.429 . S
C2469 C2463 1.429 . S
C2469 C2470 1.523 . S
C2470 C2451 1.368 . S
C2470 C2464 1.368 . S
C2470 C2469 1.523 . S
C2471 C2455 1.429 . S
C2471 C2467 1.429 . S
C2471 C2472 1.523 . S
C2472 C2456 1.368 . S
C2472 C2468 1.368 . S
C2472 C2471 1.523 . S
H2473 C2448 0.950 . S
H2474 C2450 0.950 . S
H2475 C2451 0.949 . S
H2476 C2453 0.950 . S
H2477 C2455 0.950 . S
C2478 C2479 1.349 1_556 S
C2478 C2480 1.327 . S
C2478 H2503 0.950 . S
C2479 C2478 1.349 1_554 S
C2479 C2495 1.349 . S
C2480 C2478 1.327 . S
C2480 C2499 1.429 1_556 S
C2480 H2504 0.950 . S
C2481 C2498 1.574 . S
C2481 C2500 1.368 . S
C2481 H2505 0.949 . S
H2482 C2486 0.930 1_556 S
C2483 C2484 1.349 . S
C2483 C2485 1.327 . S
C2483 H2506 0.950 . S
C2484 C2483 1.349 . S
C2484 C2496 1.349 . S
C2485 C2483 1.327 . S
C2485 C2501 1.429 . S
C2485 H2507 0.950 . S
C2486 H2482 0.930 1_554 S
C2486 C2494 1.574 . S
C2486 C2502 1.368 . S
H2487 C2495 0.950 . S
H2488 C2493 0.950 . S
H2489 C2494 0.949 1_556 S
H2490 C2496 0.950 . S
H2491 C2497 0.950 . S
H2492 C2498 0.949 . S
C2493 H2488 0.950 . S
C2493 C2495 1.327 . S
C2493 C2499 1.429 . S
C2494 C2486 1.574 . S
C2494 H2489 0.949 1_554 S
C2494 C2500 1.368 . S
C2495 C2479 1.349 . S
C2495 H2487 0.950 . S
C2495 C2493 1.327 . S
C2496 C2484 1.349 . S
C2496 H2490 0.950 . S
C2496 C2497 1.327 . S
C2497 H2491 0.950 . S
C2497 C2496 1.327 . S
C2497 C2501 1.429 . S
C2498 C2481 1.574 . S
C2498 H2492 0.949 . S
C2498 C2502 1.368 . S
C2499 C2480 1.429 1_554 S
C2499 C2493 1.429 . S
C2499 C2500 1.523 . S
C2500 C2481 1.368 . S
C2500 C2494 1.368 . S
C2500 C2499 1.523 . S
C2501 C2485 1.429 . S
C2501 C2497 1.429 . S
C2501 C2502 1.523 . S
C2502 C2486 1.368 . S
C2502 C2498 1.368 . S
C2502 C2501 1.523 . S
H2503 C2478 0.950 . S
H2504 C2480 0.950 . S
H2505 C2481 0.949 . S
H2506 C2483 0.950 . S
H2507 C2485 0.950 . S
C2508 C2509 1.349 . S
C2508 C2510 1.327 . S
C2508 H2533 0.950 . S
C2509 C2508 1.349 . S
C2509 C2525 1.349 . S
C2510 C2508 1.327 . S
C2510 C2529 1.429 . S
C2510 H2534 0.950 . S
C2511 C2528 1.574 . S
C2511 C2530 1.368 . S
C2511 H2535 0.949 . S
H2512 C2516 0.949 . S
C2513 C2514 1.349 . S
C2513 C2515 1.327 . S
C2513 H2536 0.950 . S
C2514 C2513 1.349 . S
C2514 C2526 1.349 . S
C2515 C2513 1.327 . S
C2515 C2531 1.429 . S
C2515 H2537 0.950 . S
C2516 H2512 0.949 . S
C2516 C2524 1.574 . S
C2516 C2532 1.368 . S
H2517 C2525 0.950 . S
H2518 C2523 0.950 . S
H2519 C2524 0.949 . S
H2520 C2526 0.950 . S
H2521 C2527 0.950 . S
H2522 C2528 0.949 . S
C2523 H2518 0.950 . S
C2523 C2525 1.327 . S
C2523 C2529 1.429 . S
C2524 C2516 1.574 . S
C2524 H2519 0.949 . S
C2524 C2530 1.368 . S
C2525 C2509 1.349 . S
C2525 H2517 0.950 . S
C2525 C2523 1.327 . S
C2526 C2514 1.349 . S
C2526 H2520 0.950 . S
C2526 C2527 1.327 . S
C2527 H2521 0.950 . S
C2527 C2526 1.327 . S
C2527 C2531 1.429 . S
C2528 C2511 1.574 . S
C2528 H2522 0.949 . S
C2528 C2532 1.368 . S
C2529 C2510 1.429 . S
C2529 C2523 1.429 . S
C2529 C2530 1.523 . S
C2530 C2511 1.368 . S
C2530 C2524 1.368 . S
C2530 C2529 1.523 . S
C2531 C2515 1.429 . S
C2531 C2527 1.429 . S
C2531 C2532 1.523 . S
C2532 C2516 1.368 . S
C2532 C2528 1.368 . S
C2532 C2531 1.523 . S
H2533 C2508 0.950 . S
H2534 C2510 0.950 . S
H2535 C2511 0.949 . S
H2536 C2513 0.950 . S
H2537 C2515 0.950 . S
C2538 C2539 1.349 . S
C2538 C2540 1.327 . S
C2538 H2563 0.950 . S
C2539 C2538 1.349 . S
C2539 C2555 1.349 1_556 S
C2540 C2538 1.327 . S
C2540 C2559 1.429 . S
C2540 H2564 0.950 . S
C2541 C2558 1.574 . S
C2541 C2560 1.368 1_554 S
C2541 H2565 0.949 . S
H2542 C2546 0.949 . S
C2543 C2544 1.349 . S
C2543 C2545 1.327 . S
C2543 H2566 0.950 1_556 S
C2544 C2543 1.349 . S
C2544 C2556 1.349 . S
C2545 C2543 1.327 . S
C2545 C2561 1.429 . S
C2545 H2567 0.950 1_556 S
C2546 H2542 0.949 . S
C2546 C2554 1.574 . S
C2546 C2562 1.368 . S
H2547 C2555 0.950 . S
H2548 C2553 0.950 . S
H2549 C2554 0.949 . S
H2550 C2556 0.950 . S
H2551 C2557 0.950 . S
H2552 C2558 0.949 . S
C2553 H2548 0.950 . S
C2553 C2555 1.327 . S
C2553 C2559 1.429 1_554 S
C2554 C2546 1.574 . S
C2554 H2549 0.949 . S
C2554 C2560 1.368 . S
C2555 C2539 1.349 1_554 S
C2555 H2547 0.950 . S
C2555 C2553 1.327 . S
C2556 C2544 1.349 . S
C2556 H2550 0.950 . S
C2556 C2557 1.327 . S
C2557 H2551 0.950 . S
C2557 C2556 1.327 . S
C2557 C2561 1.429 . S
C2558 C2541 1.574 . S
C2558 H2552 0.949 . S
C2558 C2562 1.368 1_554 S
C2559 C2540 1.429 . S
C2559 C2553 1.429 1_556 S
C2559 C2560 1.523 . S
C2560 C2541 1.368 1_556 S
C2560 C2554 1.368 . S
C2560 C2559 1.523 . S
C2561 C2545 1.429 . S
C2561 C2557 1.429 . S
C2561 C2562 1.523 . S
C2562 C2546 1.368 . S
C2562 C2558 1.368 1_556 S
C2562 C2561 1.523 . S
H2563 C2538 0.950 . S
H2564 C2540 0.950 . S
H2565 C2541 0.949 . S
H2566 C2543 0.950 1_554 S
H2567 C2545 0.950 1_554 S
C2568 C2569 1.349 . S
C2568 C2570 1.327 . S
C2568 H2593 0.950 . S
C2569 C2568 1.349 . S
C2569 C2585 1.349 . S
C2570 C2568 1.327 . S
C2570 C2589 1.429 . S
C2570 H2594 0.950 . S
C2571 C2588 1.574 . S
C2571 C2590 1.368 . S
C2571 H2595 0.949 . S
H2572 C2576 0.949 . S
C2573 C2574 1.349 . S
C2573 C2575 1.327 . S
C2573 H2596 0.950 . S
C2574 C2573 1.349 . S
C2574 C2586 1.349 . S
C2575 C2573 1.327 . S
C2575 C2591 1.429 . S
C2575 H2597 0.950 . S
C2576 H2572 0.949 . S
C2576 C2584 1.574 . S
C2576 C2592 1.368 . S
H2577 C2585 0.950 . S
H2578 C2583 0.950 . S
H2579 C2584 0.949 . S
H2580 C2586 0.950 . S
H2581 C2587 0.950 . S
H2582 C2588 0.949 . S
C2583 H2578 0.950 . S
C2583 C2585 1.327 . S
C2583 C2589 1.429 . S
C2584 C2576 1.574 . S
C2584 H2579 0.949 . S
C2584 C2590 1.368 . S
C2585 C2569 1.349 . S
C2585 H2577 0.950 . S
C2585 C2583 1.327 . S
C2586 C2574 1.349 . S
C2586 H2580 0.950 . S
C2586 C2587 1.327 . S
C2587 H2581 0.950 . S
C2587 C2586 1.327 . S
C2587 C2591 1.429 . S
C2588 C2571 1.574 . S
C2588 H2582 0.949 . S
C2588 C2592 1.368 . S
C2589 C2570 1.429 . S
C2589 C2583 1.429 . S
C2589 C2590 1.523 . S
C2590 C2571 1.368 . S
C2590 C2584 1.368 . S
C2590 C2589 1.523 . S
C2591 C2575 1.429 . S
C2591 C2587 1.429 . S
C2591 C2592 1.523 . S
C2592 C2576 1.368 . S
C2592 C2588 1.368 . S
C2592 C2591 1.523 . S
H2593 C2568 0.950 . S
H2594 C2570 0.950 . S
H2595 C2571 0.949 . S
H2596 C2573 0.950 . S
H2597 C2575 0.950 . S
C2598 C2599 1.349 . S
C2598 C2600 1.327 . S
C2598 H2623 0.950 . S
C2599 C2598 1.349 . S
C2599 C2615 1.349 1_455 S
C2600 C2598 1.327 . S
C2600 C2619 1.429 . S
C2600 H2624 0.950 . S
C2601 C2618 1.574 . S
C2601 C2620 1.368 . S
C2601 H2625 0.949 . S
H2602 C2606 0.949 . S
C2603 C2604 1.349 . S
C2603 C2605 1.327 . S
C2603 H2626 0.950 . S
C2604 C2603 1.349 . S
C2604 C2616 1.349 . S
C2605 C2603 1.327 . S
C2605 C2621 1.429 . S
C2605 H2627 0.950 . S
C2606 H2602 0.949 . S
C2606 C2614 1.574 . S
C2606 C2622 1.368 . S
H2607 C2615 0.950 . S
H2608 C2613 0.950 1_655 S
H2609 C2614 0.949 . S
H2610 C2616 0.950 . S
H2611 C2617 0.950 . S
H2612 C2618 0.949 . S
C2613 H2608 0.950 1_455 S
C2613 C2615 1.327 1_455 S
C2613 C2619 1.429 . S
C2614 C2606 1.574 . S
C2614 H2609 0.949 . S
C2614 C2620 1.368 . S
C2615 C2599 1.349 1_655 S
C2615 H2607 0.950 . S
C2615 C2613 1.327 1_655 S
C2616 C2604 1.349 . S
C2616 H2610 0.950 . S
C2616 C2617 1.327 . S
C2617 H2611 0.950 . S
C2617 C2616 1.327 . S
C2617 C2621 1.429 . S
C2618 C2601 1.574 . S
C2618 H2612 0.949 . S
C2618 C2622 1.368 . S
C2619 C2600 1.429 . S
C2619 C2613 1.429 . S
C2619 C2620 1.523 . S
C2620 C2601 1.368 . S
C2620 C2614 1.368 . S
C2620 C2619 1.523 . S
C2621 C2605 1.429 . S
C2621 C2617 1.429 . S
C2621 C2622 1.523 . S
C2622 C2606 1.368 . S
C2622 C2618 1.368 . S
C2622 C2621 1.523 . S
H2623 C2598 0.950 . S
H2624 C2600 0.950 . S
H2625 C2601 0.949 . S
H2626 C2603 0.950 . S
H2627 C2605 0.950 . S
C2628 C2629 1.349 . S
C2628 C2630 1.327 . S
C2628 H2653 0.950 . S
C2629 C2628 1.349 . S
C2629 C2645 1.349 . S
C2630 C2628 1.327 . S
C2630 C2649 1.429 . S
C2630 H2654 0.950 . S
C2631 C2648 1.574 . S
C2631 C2650 1.368 . S
C2631 H2655 0.949 . S
H2632 C2636 0.949 . S
C2633 C2634 1.349 . S
C2633 C2635 1.327 . S
C2633 H2656 0.950 . S
C2634 C2633 1.349 . S
C2634 C2646 1.349 . S
C2635 C2633 1.327 . S
C2635 C2651 1.429 . S
C2635 H2657 0.950 . S
C2636 H2632 0.949 . S
C2636 C2644 1.574 . S
C2636 C2652 1.368 . S
H2637 C2645 0.950 . S
H2638 C2643 0.950 . S
H2639 C2644 0.949 . S
H2640 C2646 0.950 . S
H2641 C2647 0.950 . S
H2642 C2648 0.949 . S
C2643 H2638 0.950 . S
C2643 C2645 1.327 . S
C2643 C2649 1.429 . S
C2644 C2636 1.574 . S
C2644 H2639 0.949 . S
C2644 C2650 1.368 . S
C2645 C2629 1.349 . S
C2645 H2637 0.950 . S
C2645 C2643 1.327 . S
C2646 C2634 1.349 . S
C2646 H2640 0.950 . S
C2646 C2647 1.327 . S
C2647 H2641 0.950 . S
C2647 C2646 1.327 . S
C2647 C2651 1.429 . S
C2648 C2631 1.574 . S
C2648 H2642 0.949 . S
C2648 C2652 1.368 . S
C2649 C2630 1.429 . S
C2649 C2643 1.429 . S
C2649 C2650 1.523 . S
C2650 C2631 1.368 . S
C2650 C2644 1.368 . S
C2650 C2649 1.523 . S
C2651 C2635 1.429 . S
C2651 C2647 1.429 . S
C2651 C2652 1.523 . S
C2652 C2636 1.368 . S
C2652 C2648 1.368 . S
C2652 C2651 1.523 . S
H2653 C2628 0.950 . S
H2654 C2630 0.950 . S
H2655 C2631 0.949 . S
H2656 C2633 0.950 . S
H2657 C2635 0.950 . S
C2658 C2659 1.349 1_455 S
C2658 C2660 1.327 . S
C2658 H2683 0.950 . S
C2659 C2658 1.349 1_655 S
C2659 C2675 1.349 . S
C2660 C2658 1.327 . S
C2660 C2679 1.429 1_455 S
C2660 H2684 0.950 . S
C2661 C2678 1.574 . S
C2661 C2680 1.368 . S
C2661 H2685 0.949 . S
H2662 C2666 0.925 1_455 S
C2663 C2664 1.349 . S
C2663 C2665 1.327 . S
C2663 H2686 0.950 . S
C2664 C2663 1.349 . S
C2664 C2676 1.349 . S
C2665 C2663 1.327 . S
C2665 C2681 1.429 . S
C2665 H2687 0.950 . S
C2666 H2662 0.925 1_655 S
C2666 C2674 1.574 1_655 S
C2666 C2682 1.398 . S
H2667 C2675 0.950 . S
H2668 C2673 0.950 . S
H2669 C2674 0.949 . S
H2670 C2676 0.950 . S
H2671 C2677 0.950 1_455 S
H2672 C2678 0.949 . S
C2673 H2668 0.950 . S
C2673 C2675 1.327 . S
C2673 C2679 1.429 . S
C2674 C2666 1.574 1_455 S
C2674 H2669 0.949 . S
C2674 C2680 1.368 1_455 S
C2675 C2659 1.349 . S
C2675 H2667 0.950 . S
C2675 C2673 1.327 . S
C2676 C2664 1.349 . S
C2676 H2670 0.950 . S
C2676 C2677 1.327 . S
C2677 H2671 0.950 1_655 S
C2677 C2676 1.327 . S
C2677 C2681 1.429 . S
C2678 C2661 1.574 . S
C2678 H2672 0.949 . S
C2678 C2682 1.368 . S
C2679 C2660 1.429 1_655 S
C2679 C2673 1.429 . S
C2679 C2680 1.523 . S
C2680 C2661 1.368 . S
C2680 C2674 1.368 1_655 S
C2680 C2679 1.523 . S
C2681 C2665 1.429 . S
C2681 C2677 1.429 . S
C2681 C2682 1.523 . S
C2682 C2666 1.398 . S
C2682 C2678 1.368 . S
C2682 C2681 1.523 . S
H2683 C2658 0.950 . S
H2684 C2660 0.950 . S
H2685 C2661 0.949 . S
H2686 C2663 0.950 . S
H2687 C2665 0.950 . S
C534 C521 1.592 . S
C529 C8 1.617 . S
C564 C488 1.395 . S
C559 C19 1.399 . S
C594 C510 1.114 . S
C589 C30 1.133 . S
C624 C499 1.585 1_655 S
C619 C41 1.575 1_565 S
C654 C422 1.592 . S
C649 C52 1.617 . S
C679 C63 1.577 1_556 S
C684 C433 1.582 1_565 S
C714 C400 1.395 . S
C709 C74 1.399 . S
C739 C85 1.136 . S
C744 C411 1.110 . S
C774 C477 1.592 . S
C769 C96 1.617 . S
C799 C107 1.577 1_655 S
C804 C455 1.582 1_556 S
C829 C118 1.399 . S
C834 C444 1.395 . S
C864 C466 1.114 . S
C859 C129 1.133 . S
C894 C389 1.595 . S
C889 C140 1.592 . S
C919 C151 1.350 . S
C924 C356 1.396 . S
C954 C378 1.116 . S
C949 C162 1.121 . S
C979 C173 1.544 . S
C984 C367 1.580 1_455 S
C1014 C290 1.595 . S
C1009 C184 1.592 . S
C1044 C301 1.583 1_545 S
C1039 C195 1.543 . S
C1069 C206 1.350 . S
C1074 C268 1.396 . S
C1099 C217 1.121 . S
C1104 C279 1.112 . S
C1129 C228 1.585 . S
C1134 C345 1.602 . S
C1159 C239 1.544 . S
C1164 C323 1.579 1_554 S
C1194 C312 1.396 . S
C1189 C250 1.350 . S
C1219 C261 1.121 . S
C1224 C334 1.112 . S
C1254 C269 1.400 . S
C1249 C7 1.414 . S
C1284 C280 1.298 . S
C1279 C18 1.333 . S
C1309 C29 1.211 . S
C1314 C291 1.220 . S
C1339 C40 1.029 1_565 S
C1344 C302 1.034 . S
C1374 C313 1.400 . S
C1369 C51 1.414 . S
C1399 C62 1.029 1_556 S
C1404 C324 1.034 . S
C1434 C335 1.298 . S
C1429 C73 1.333 . S
C1464 C346 1.220 . S
C1459 C84 1.211 . S
C1494 C357 1.400 . S
C1489 C95 1.414 . S
C1519 C106 1.029 1_655 S
C1524 C368 1.034 . S
C1549 C117 1.333 . S
C1554 C379 1.298 . S
C1579 C128 1.211 . S
C1584 C390 1.220 . S
C1609 C139 1.368 . S
C1614 C401 1.399 . S
C1639 C150 1.243 . S
C1644 C412 1.297 . S
C1669 C161 1.179 . S
C1674 C423 1.218 . S
C1699 C172 0.998 . S
C1704 C434 1.034 . S
C1729 C183 1.368 . S
C1734 C445 1.399 . S
C1764 C456 1.033 . S
C1759 C194 1.003 1_556 S
C1794 C467 1.297 . S
C1789 C205 1.243 . S
C1824 C478 1.218 . S
C1819 C216 1.179 . S
C1854 C489 1.399 . S
C1849 C227 1.368 . S
C1879 C238 0.998 . S
C1884 C500 1.034 . S
C1909 C249 1.243 . S
C1914 C511 1.297 . S
C1939 C260 1.179 . S
C1944 C522 1.218 . S
C1969 C5 1.343 . S
C1974 C362 1.509 . S
C2004 C395 1.515 . S
C1999 C16 1.395 . S
C2029 C27 1.209 1_545 S
C2034 C373 1.332 . S
C2064 C384 1.581 . S
C2059 C38 1.381 1_565 S
C2089 C49 1.343 . S
C2094 C274 1.509 . S
C2119 C60 1.385 1_556 S
C2124 C285 1.579 . S
C2149 C71 1.401 . S
C2154 C296 1.508 . S
C2179 C82 1.209 1_554 S
C2184 C307 1.332 . S
C2214 C318 1.508 . S
C2209 C93 1.343 . S
C2244 C340 1.581 . S
C2239 C104 1.381 1_655 S
C2269 C115 1.401 . S
C2274 C351 1.508 . S
C2299 C126 1.209 1_455 S
C2304 C329 1.332 . S
C2334 C494 1.511 . S
C2329 C137 1.253 . S
C2364 C527 1.518 . S
C2359 C148 1.193 . S
C2389 C159 1.144 . S
C2394 C505 1.333 . S
C2424 C516 1.586 . S
C2419 C170 1.238 . S
C2449 C181 1.253 . S
C2454 C406 1.511 . S
C2479 C192 1.235 . S
C2484 C417 1.585 . S
C2509 C203 1.200 . S
C2514 C428 1.511 . S
C2544 C439 1.335 . S
C2539 C214 1.148 . S
C2574 C450 1.511 . S
C2569 C225 1.253 . S
C2604 C472 1.586 . S
C2599 C236 1.238 . S
C2629 C247 1.200 . S
C2634 C483 1.511 . S
C2664 C461 1.335 . S
C2659 C258 1.148 . S
