# Generated by pormake.
# Topology hwx, (6,3)-cn, num edge types: 1
# Building blocks:
#     Node 0, Type 0, BuildingBlock: IZENUY_clean_sbu_0, # of connection points: 6
#     Node 1, Type 0, BuildingBlock: IZENUY_clean_sbu_0, # of connection points: 6
#     Node 2, Type 0, BuildingBlock: IZENUY_clean_sbu_0, # of connection points: 6
#     Node 3, Type 0, BuildingBlock: IZENUY_clean_sbu_0, # of connection points: 6
#     Node 4, Type 1, BuildingBlock: ESEHIV_clean_linker_0, # of connection points: 3
#     Node 5, Type 1, BuildingBlock: ESEHIV_clean_linker_0, # of connection points: 3
#     Node 6, Type 1, BuildingBlock: ESEHIV_clean_linker_0, # of connection points: 3
#     Node 7, Type 1, BuildingBlock: ESEHIV_clean_linker_0, # of connection points: 3
#     Node 8, Type 1, BuildingBlock: ESEHIV_clean_linker_0, # of connection points: 3
#     Node 9, Type 1, BuildingBlock: ESEHIV_clean_linker_0, # of connection points: 3
#     Node 10, Type 1, BuildingBlock: ESEHIV_clean_linker_0, # of connection points: 3
#     Node 11, Type 1, BuildingBlock: ESEHIV_clean_linker_0, # of connection points: 3
#     Edge 12, Type (0, 1), BuildingBlock: XIVTED_clean_linker_0, # of connection points: 2
#     Edge 13, Type (0, 1), BuildingBlock: XIVTED_clean_linker_0, # of connection points: 2
#     Edge 14, Type (0, 1), BuildingBlock: XIVTED_clean_linker_0, # of connection points: 2
#     Edge 15, Type (0, 1), BuildingBlock: XIVTED_clean_linker_0, # of connection points: 2
#     Edge 16, Type (0, 1), BuildingBlock: XIVTED_clean_linker_0, # of connection points: 2
#     Edge 17, Type (0, 1), BuildingBlock: XIVTED_clean_linker_0, # of connection points: 2
#     Edge 18, Type (0, 1), BuildingBlock: XIVTED_clean_linker_0, # of connection points: 2
#     Edge 19, Type (0, 1), BuildingBlock: XIVTED_clean_linker_0, # of connection points: 2
#     Edge 20, Type (0, 1), BuildingBlock: XIVTED_clean_linker_0, # of connection points: 2
#     Edge 21, Type (0, 1), BuildingBlock: XIVTED_clean_linker_0, # of connection points: 2
#     Edge 22, Type (0, 1), BuildingBlock: XIVTED_clean_linker_0, # of connection points: 2
#     Edge 23, Type (0, 1), BuildingBlock: XIVTED_clean_linker_0, # of connection points: 2
#     Edge 24, Type (0, 1), BuildingBlock: XIVTED_clean_linker_0, # of connection points: 2
#     Edge 25, Type (0, 1), BuildingBlock: XIVTED_clean_linker_0, # of connection points: 2
#     Edge 26, Type (0, 1), BuildingBlock: XIVTED_clean_linker_0, # of connection points: 2
#     Edge 27, Type (0, 1), BuildingBlock: XIVTED_clean_linker_0, # of connection points: 2
#     Edge 28, Type (0, 1), BuildingBlock: XIVTED_clean_linker_0, # of connection points: 2
#     Edge 29, Type (0, 1), BuildingBlock: XIVTED_clean_linker_0, # of connection points: 2
#     Edge 30, Type (0, 1), BuildingBlock: XIVTED_clean_linker_0, # of connection points: 2
#     Edge 31, Type (0, 1), BuildingBlock: XIVTED_clean_linker_0, # of connection points: 2
#     Edge 32, Type (0, 1), BuildingBlock: XIVTED_clean_linker_0, # of connection points: 2
#     Edge 33, Type (0, 1), BuildingBlock: XIVTED_clean_linker_0, # of connection points: 2
#     Edge 34, Type (0, 1), BuildingBlock: XIVTED_clean_linker_0, # of connection points: 2
#     Edge 35, Type (0, 1), BuildingBlock: XIVTED_clean_linker_0, # of connection points: 2
# Relax obj value: 0.051
# Max RMSD: 0.076
# Mean RMSD: 0.067
data_MOF--net-hwx--node1-IZENUY_clean_sbu_0--node2-ESEHIV_clean_linker_0--edge1-XIVTED_clean_linker_0
_symmetry_space_group_name_H-M    P1
_symmetry_Int_Tables_number       1
_symmetry_cell_setting            triclinic
loop_
_symmetry_equiv_pos_as_xyz
'x, y, z'
_cell_length_a     45.061409
_cell_length_b     44.822058
_cell_length_c     21.752027
_cell_angle_alpha  89.985332
_cell_angle_beta   89.938771
_cell_angle_gamma 89.975022
loop_
_atom_site_label
_atom_site_type_symbol
_atom_site_fract_x
_atom_site_fract_y
_atom_site_fract_z
_atom_type_partial_charge
Fe0 Fe 0.23473 0.21164 0.06822 0.0
Fe1 Fe 0.23612 0.21436 0.92771 0.0
O2 O 0.22755 0.19477 0.99619 0.0
Fe3 Fe 0.21169 0.15849 0.99263 0.0
O4 O 0.18926 0.16282 0.06282 0.0
O5 O 0.19592 0.20962 0.08969 0.0
O6 O 0.22745 0.24985 0.04208 0.0
C7 C 0.21316 0.2598 0.99639 0.0
C8 C 0.25114 0.15134 0.08705 0.0
O9 O 0.21123 0.24474 0.94762 0.0
C10 C 0.25435 0.15828 0.89615 0.0
O11 O 0.27407 0.21488 0.05153 0.0
O12 O 0.26827 0.23405 0.95946 0.0
O13 O 0.24235 0.14235 0.03526 0.0
O14 O 0.24343 0.17659 0.10757 0.0
C15 C 0.18154 0.18657 0.90001 0.0
O16 O 0.26141 0.18535 0.90267 0.0
O17 O 0.23147 0.14766 0.9221 0.0
C18 C 0.28442 0.22858 0.00564 0.0
O19 O 0.20573 0.19838 0.88356 0.0
O20 O 0.17974 0.17193 0.94944 0.0
C21 C 0.18083 0.18595 0.09145 0.0
Fe22 Fe 0.25709 0.71198 0.567 0.0
Fe23 Fe 0.28359 0.65883 0.49672 0.0
O24 O 0.26704 0.69484 0.49663 0.0
Fe25 Fe 0.26042 0.71386 0.4265 0.0
O26 O 0.28361 0.74512 0.44928 0.0
O27 O 0.26386 0.75023 0.54081 0.0
O28 O 0.29519 0.71127 0.59321 0.0
C29 C 0.31067 0.68795 0.59799 0.0
C30 C 0.20915 0.72701 0.49749 0.0
O31 O 0.30359 0.66429 0.56964 0.0
C32 C 0.2445 0.65698 0.39434 0.0
O33 O 0.24833 0.67704 0.6067 0.0
O34 O 0.25191 0.64242 0.53571 0.0
O35 O 0.22653 0.73263 0.45318 0.0
O36 O 0.2184 0.71382 0.54497 0.0
C37 C 0.31642 0.6866 0.40762 0.0
O38 O 0.26658 0.6471 0.42407 0.0
O39 O 0.23684 0.684 0.39846 0.0
C40 C 0.24183 0.6514 0.58652 0.0
O41 O 0.31654 0.67229 0.45754 0.0
O42 O 0.29302 0.69868 0.38738 0.0
C43 C 0.27941 0.7604 0.49716 0.0
Fe44 Fe 0.75879 0.79496 0.92997 0.0
Fe45 Fe 0.7582 0.79591 0.07065 0.0
O46 O 0.76775 0.81299 -9e-05 0.0
Fe47 Fe 0.78631 0.84799 0.99952 0.0
O48 O 0.75669 0.86547 0.95594 0.0
O49 O 0.75195 0.82959 0.88757 0.0
O50 O 0.71946 0.79464 0.94812 0.0
C51 C 0.70864 0.78282 0.99567 0.0
C52 C 0.81407 0.8163 0.90226 0.0
O53 O 0.72479 0.77747 0.04183 0.0
C54 C 0.81491 0.81983 0.0939 0.0
O55 O 0.76426 0.75702 0.95983 0.0
O56 O 0.78087 0.76356 0.0539 0.0
O57 O 0.80789 0.8405 0.92944 0.0
O58 O 0.79728 0.79395 0.90681 0.0
C59 C 0.74402 0.85378 0.09579 0.0
O60 O 0.78989 0.81093 0.11269 0.0
O61 O 0.81743 0.83304 0.04297 0.0
C62 C 0.77834 0.74766 0.00639 0.0
O63 O 0.73495 0.82722 0.09203 0.0
O64 O 0.76786 0.86177 0.06944 0.0
C65 C 0.74681 0.85599 0.90532 0.0
Fe66 Fe 0.70997 0.34763 0.50994 0.0
Fe67 Fe 0.73649 0.29387 0.57926 0.0
O68 O 0.72831 0.3125 0.5095 0.0
Fe69 Fe 0.73841 0.29587 0.43863 0.0
O70 O 0.76236 0.32699 0.41959 0.0
O71 O 0.72943 0.3617 0.44142 0.0
O72 O 0.73912 0.36457 0.55546 0.0
C73 C 0.74861 0.35473 0.60612 0.0
C74 C 0.68237 0.32058 0.41306 0.0
O75 O 0.74352 0.32815 0.62282 0.0
C76 C 0.71683 0.24752 0.50042 0.0
O77 O 0.68749 0.33989 0.57869 0.0
O78 O 0.6978 0.29325 0.6014 0.0
O79 O 0.7076 0.31179 0.39543 0.0
O80 O 0.67922 0.33324 0.46441 0.0
C81 C 0.78698 0.28112 0.51495 0.0
O82 O 0.7306 0.25626 0.54793 0.0
O83 O 0.71505 0.26381 0.45328 0.0
C84 C 0.681 0.31564 0.60538 0.0
O85 O 0.77605 0.29295 0.56242 0.0
O86 O 0.77108 0.27652 0.46818 0.0
C87 C 0.75354 0.35367 0.4161 0.0
H88 H 0.17989 0.5662 0.98789 0.0
H89 H 0.17403 0.48165 0.89574 0.0
H90 H 0.17249 0.48565 0.09341 0.0
C91 C 0.17666 0.54226 0.98989 0.0
C92 C 0.17615 0.52796 0.04729 0.0
C93 C 0.17542 0.5258 0.93492 0.0
C94 C 0.17385 0.49449 0.9379 0.0
C95 C 0.17336 0.47968 0.99495 0.0
C96 C 0.17358 0.49675 0.04923 0.0
H97 H 0.91851 0.82706 0.49263 0.0
H98 H 0.001 0.81052 0.40005 0.0
H99 H -0.00204 0.81552 0.59824 0.0
C100 C 0.94237 0.8239 0.49442 0.0
C101 C 0.95652 0.82217 0.55153 0.0
C102 C 0.95837 0.82018 0.43971 0.0
C103 C 0.98904 0.8151 0.44227 0.0
C104 C 0.00359 0.81298 0.49944 0.0
C105 C 0.98721 0.81745 0.55386 0.0
H106 H 0.81394 0.44174 0.01102 0.0
H107 H 0.82417 0.52352 0.11093 0.0
H108 H 0.81521 0.52512 0.91382 0.0
C109 C 0.81689 0.46573 0.01116 0.0
C110 C 0.81589 0.4815 0.95533 0.0
C111 C 0.81932 0.48077 0.06749 0.0
C112 C 0.82154 0.51199 0.06753 0.0
C113 C 0.81953 0.52841 0.01256 0.0
C114 C 0.81708 0.51286 0.95652 0.0
H115 H 0.07565 0.17129 0.48815 0.0
H116 H -0.00038 0.19415 0.59754 0.0
H117 H 0.99467 0.19753 0.3996 0.0
C118 C 0.05245 0.17756 0.49115 0.0
C119 C 0.03639 0.18293 0.43713 0.0
C120 C 0.03945 0.18205 0.54904 0.0
C121 C 0.0096 0.19065 0.55277 0.0
C122 C 0.9931 0.19625 0.49911 0.0
C123 C 0.00677 0.19242 0.44134 0.0
H124 H 0.6822 0.94223 0.50106 0.0
H125 H 0.67872 0.02576 0.59728 0.0
H126 H 0.6717 0.02365 0.39982 0.0
C127 C 0.67892 0.96618 0.50051 0.0
C128 C 0.67677 0.98106 0.44393 0.0
C129 C 0.67919 0.9821 0.55616 0.0
C130 C 0.67744 0.01341 0.55462 0.0
C131 C 0.67518 0.0288 0.49835 0.0
C132 C 0.67408 0.01225 0.44344 0.0
H133 H 0.57701 0.32315 0.00361 0.0
H134 H 0.49772 0.3125 0.11122 0.0
H135 H 0.49422 0.30665 0.91318 0.0
C136 C 0.55317 0.32002 0.00629 0.0
C137 C 0.53695 0.31618 0.95211 0.0
C138 C 0.53918 0.31868 0.06383 0.0
C139 C 0.50844 0.31406 0.06671 0.0
C140 C 0.49186 0.30954 0.01263 0.0
C141 C 0.50631 0.31117 0.95521 0.0
H142 H 0.3191 0.06715 0.47988 0.0
H143 H 0.31924 0.98056 0.39624 0.0
H144 H 0.31361 0.98858 0.59283 0.0
C145 C 0.31879 0.04314 0.48455 0.0
C146 C 0.31615 0.03028 0.54333 0.0
C147 C 0.31941 0.02546 0.43124 0.0
C148 C 0.31914 0.99429 0.43722 0.0
C149 C 0.31741 0.98074 0.49542 0.0
C150 C 0.31587 0.99894 0.54815 0.0
H151 H 0.41844 0.67619 0.00705 0.0
H152 H 0.49425 0.702 0.89932 0.0
H153 H 0.4981 0.70508 0.09713 0.0
C154 C 0.44145 0.68316 0.00438 0.0
C155 C 0.45708 0.68928 0.05865 0.0
C156 C 0.45454 0.68836 0.94677 0.0
C157 C 0.48398 0.69852 0.94383 0.0
C158 C 0.50014 0.70418 0.9978 0.0
C159 C 0.48635 0.69975 0.05508 0.0
H160 H 0.15438 0.1358 0.13823 0.0
H161 H 0.03888 0.22567 0.34775 0.0
H162 H 0.14897 0.23195 0.14166 0.0
H163 H 0.06974 0.13708 0.39128 0.0
H164 H 0.07044 0.22551 0.25575 0.0
H165 H 0.11482 0.13351 0.21532 0.0
C166 C 0.14466 0.15642 0.15463 0.0
C167 C 0.15521 0.18413 0.13392 0.0
C168 C 0.07 0.20598 0.28508 0.0
C169 C 0.10984 0.1816 0.22168 0.0
C170 C 0.05184 0.20596 0.33717 0.0
C171 C 0.05185 0.18138 0.37708 0.0
C172 C 0.08797 0.1811 0.27255 0.0
C173 C 0.06931 0.15654 0.36178 0.0
C174 C 0.12217 0.15508 0.19876 0.0
C175 C 0.14175 0.21012 0.15685 0.0
N176 N 0.08676 0.15705 0.31078 0.0
N177 N 0.1198 0.20822 0.1996 0.0
H178 H 0.24248 0.59005 0.58563 0.0
H179 H 0.14982 0.57845 0.89896 0.0
H180 H 0.20504 0.66554 0.68139 0.0
H181 H 0.20854 0.50906 0.83431 0.0
H182 H 0.16069 0.60722 0.80624 0.0
H183 H 0.22085 0.55685 0.66346 0.0
C184 C 0.22933 0.59959 0.62242 0.0
C185 C 0.22586 0.63061 0.62759 0.0
C186 C 0.17094 0.58555 0.81207 0.0
C187 C 0.20108 0.5929 0.71627 0.0
C188 C 0.16482 0.56915 0.86506 0.0
C189 C 0.17859 0.54146 0.87495 0.0
C190 C 0.19093 0.5742 0.76839 0.0
C191 C 0.19731 0.53022 0.82866 0.0
C192 C 0.21713 0.58067 0.6669 0.0
C193 C 0.20862 0.64178 0.67617 0.0
N194 N 0.20315 0.54677 0.77765 0.0
N195 N 0.19702 0.62297 0.71876 0.0
H196 H 0.82193 0.77816 0.18226 0.0
H197 H 0.96672 0.85141 0.33196 0.0
H198 H 0.86595 0.85394 0.10062 0.0
H199 H 0.91291 0.78285 0.41507 0.0
H200 H 0.93535 0.84885 0.23915 0.0
H201 H 0.8607 0.77526 0.25923 0.0
C202 C 0.8399 0.79419 0.18049 0.0
C203 C 0.84047 0.81665 0.13569 0.0
C204 C 0.93065 0.83425 0.2776 0.0
C205 C 0.88507 0.81368 0.22453 0.0
C206 C 0.94851 0.83566 0.33024 0.0
C207 C 0.94198 0.81762 0.3812 0.0
C208 C 0.90648 0.81441 0.27622 0.0
C209 C 0.91832 0.79749 0.37705 0.0
C210 C 0.86211 0.79252 0.2245 0.0
C211 C 0.86464 0.83642 0.13478 0.0
N212 N 0.90141 0.79655 0.32572 0.0
N213 N 0.88588 0.83475 0.17925 0.0
H214 H 0.74697 0.41601 0.60793 0.0
H215 H 0.84052 0.4283 0.91939 0.0
H216 H 0.78315 0.34015 0.70455 0.0
H217 H 0.78017 0.4969 0.85764 0.0
H218 H 0.82799 0.39877 0.8287 0.0
H219 H 0.7675 0.4489 0.6873 0.0
C220 C 0.7595 0.4063 0.6454 0.0
C221 C 0.76309 0.37526 0.65003 0.0
C222 C 0.8177 0.42041 0.83481 0.0
C223 C 0.78669 0.4127 0.74047 0.0
C224 C 0.82475 0.43725 0.88666 0.0
C225 C 0.81114 0.46503 0.89672 0.0
C226 C 0.79702 0.43143 0.79229 0.0
C227 C 0.79141 0.47575 0.8518 0.0
C228 C 0.77109 0.42506 0.69073 0.0
C229 C 0.77954 0.36391 0.69957 0.0
N230 N 0.7848 0.45884 0.80175 0.0
N231 N 0.79065 0.38261 0.7429 0.0
H232 H 0.67717 0.28031 0.3217 0.0
H233 H 0.53087 0.35028 0.17135 0.0
H234 H 0.63114 0.35453 0.40482 0.0
H235 H 0.58854 0.28581 0.08512 0.0
H236 H 0.56286 0.34917 0.26324 0.0
H237 H 0.63984 0.27832 0.24182 0.0
C238 C 0.65906 0.29621 0.32317 0.0
C239 C 0.65751 0.31794 0.36937 0.0
C240 C 0.56838 0.3353 0.22411 0.0
C241 C 0.61451 0.31598 0.27714 0.0
C242 C 0.55018 0.33589 0.17191 0.0
C243 C 0.5574 0.31845 0.12039 0.0
C244 C 0.59358 0.31682 0.22465 0.0
C245 C 0.58252 0.30009 0.1233 0.0
C246 C 0.63769 0.29508 0.27742 0.0
C247 C 0.63319 0.33755 0.36969 0.0
N248 N 0.59964 0.29981 0.17436 0.0
N249 N 0.6127 0.33634 0.32364 0.0
H250 H 0.28091 0.17759 0.79059 0.0
H251 H 0.33301 0.02026 0.66444 0.0
H252 H 0.26199 0.09774 0.89431 0.0
H253 H 0.28759 0.08467 0.54992 0.0
H254 H 0.32177 0.05137 0.75419 0.0
H255 H 0.29998 0.14657 0.7065 0.0
C256 C 0.28135 0.15358 0.79618 0.0
C257 C 0.26969 0.14014 0.84921 0.0
C258 C 0.31469 0.05859 0.709 0.0
C259 C 0.29177 0.10481 0.75389 0.0
C260 C 0.32083 0.0408 0.65767 0.0
C261 C 0.3114 0.04962 0.59865 0.0
C262 C 0.29977 0.08575 0.70114 0.0
C263 C 0.29624 0.07701 0.59349 0.0
C264 C 0.29205 0.13597 0.74816 0.0
C265 C 0.27058 0.1089 0.85387 0.0
N266 N 0.29111 0.09411 0.64386 0.0
N267 N 0.28146 0.09219 0.80671 0.0
H268 H 0.35326 0.63985 0.38055 0.0
H269 H 0.45193 0.73315 0.14428 0.0
H270 H 0.33854 0.73314 0.34293 0.0
H271 H 0.42714 0.64189 0.10843 0.0
H272 H 0.42219 0.73201 0.23874 0.0
H273 H 0.39238 0.63924 0.30127 0.0
C274 C 0.35877 0.66029 0.35656 0.0
C275 C 0.34277 0.68657 0.36777 0.0
C276 C 0.42363 0.71214 0.21054 0.0
C277 C 0.38722 0.6861 0.27853 0.0
C278 C 0.44063 0.71272 0.15699 0.0
C279 C 0.44178 0.6876 0.11869 0.0
C280 C 0.40813 0.68611 0.22631 0.0
C281 C 0.42656 0.66175 0.13675 0.0
C282 C 0.38082 0.65988 0.31128 0.0
C283 C 0.35037 0.71243 0.33518 0.0
N284 N 0.41028 0.66163 0.18945 0.0
N285 N 0.37212 0.71158 0.29202 0.0
H286 H 0.74889 0.91731 0.90337 0.0
H287 H 0.65468 0.92896 0.59241 0.0
H288 H 0.71092 0.84169 0.80914 0.0
H289 H 0.71431 0.99808 0.65424 0.0
H290 H 0.66689 0.89985 0.68388 0.0
H291 H 0.72798 0.95026 0.82436 0.0
C292 C 0.73586 0.90769 0.86656 0.0
C293 C 0.73193 0.87669 0.86235 0.0
C294 C 0.67709 0.92151 0.67765 0.0
C295 C 0.70793 0.91415 0.77236 0.0
C296 C 0.67021 0.93811 0.62536 0.0
C297 C 0.68374 0.96589 0.61512 0.0
C298 C 0.69757 0.93276 0.72035 0.0
C299 C 0.70319 0.97689 0.66024 0.0
C300 C 0.72406 0.92647 0.82143 0.0
C301 C 0.71484 0.86542 0.8137 0.0
N302 N 0.70969 0.96019 0.71067 0.0
N303 N 0.70358 0.88411 0.77054 0.0
H304 H 0.8293 0.77049 0.8256 0.0
H305 H 0.96177 0.85613 0.65625 0.0
H306 H 0.85548 0.85975 0.87725 0.0
H307 H 0.91064 0.78505 0.57514 0.0
H308 H 0.92988 0.85358 0.74837 0.0
H309 H 0.86685 0.77092 0.7451 0.0
C310 C 0.84309 0.79013 0.82041 0.0
C311 C 0.8389 0.81531 0.85775 0.0
C312 C 0.92579 0.83856 0.71032 0.0
C313 C 0.88202 0.81586 0.76539 0.0
C314 C 0.94391 0.83998 0.6581 0.0
C315 C 0.93844 0.82103 0.60812 0.0
C316 C 0.9026 0.81762 0.71257 0.0
C317 C 0.91522 0.80035 0.61246 0.0
C318 C 0.86447 0.79036 0.77425 0.0
C319 C 0.85771 0.83997 0.84907 0.0
N320 N 0.8982 0.79917 0.66376 0.0
N321 N 0.8784 0.83971 0.80346 0.0
H322 H 0.74317 0.41333 0.40144 0.0
H323 H 0.84326 0.42639 0.09942 0.0
H324 H 0.79851 0.34172 0.33419 0.0
H325 H 0.78729 0.49693 0.16901 0.0
H326 H 0.83198 0.39693 0.19133 0.0
H327 H 0.76419 0.44622 0.32356 0.0
C328 C 0.75993 0.40456 0.3706 0.0
C329 C 0.76875 0.37458 0.37385 0.0
C330 C 0.82248 0.41902 0.18679 0.0
C331 C 0.79284 0.41217 0.28406 0.0
C332 C 0.82884 0.43579 0.13426 0.0
C333 C 0.81607 0.46412 0.12623 0.0
C334 C 0.8031 0.43058 0.23147 0.0
C335 C 0.79788 0.47536 0.17332 0.0
C336 C 0.77195 0.42339 0.32608 0.0
C337 C 0.79084 0.36461 0.33309 0.0
N338 N 0.79174 0.45846 0.22351 0.0
N339 N 0.80188 0.38327 0.2894 0.0
H340 H 0.17354 0.22712 0.80978 0.0
H341 H 0.02902 0.15437 0.66038 0.0
H342 H 0.13275 0.14921 0.89038 0.0
H343 H 0.09216 0.20986 0.56462 0.0
H344 H 0.06089 0.15641 0.75253 0.0
H345 H 0.13676 0.22648 0.72864 0.0
C346 C 0.1567 0.20987 0.81052 0.0
C347 C 0.15655 0.18783 0.85626 0.0
C348 C 0.06766 0.16799 0.71113 0.0
C349 C 0.11424 0.18688 0.76271 0.0
C350 C 0.04957 0.16687 0.65882 0.0
C351 C 0.05823 0.18169 0.60479 0.0
C352 C 0.0941 0.18456 0.70928 0.0
C353 C 0.08492 0.19768 0.60493 0.0
C354 C 0.13571 0.20949 0.76401 0.0
C355 C 0.13374 0.16647 0.8556 0.0
N356 N 0.10179 0.19875 0.65631 0.0
N357 N 0.11354 0.16631 0.80895 0.0
H358 H 0.20136 0.67134 0.30965 0.0
H359 H 0.21039 0.51197 0.14586 0.0
H360 H 0.25433 0.59756 0.375 0.0
H361 H 0.1551 0.5837 0.07913 0.0
H362 H 0.22295 0.54198 0.23513 0.0
H363 H 0.18085 0.63885 0.22979 0.0
C364 C 0.20852 0.64829 0.30758 0.0
C365 C 0.22988 0.63728 0.3488 0.0
C366 C 0.20786 0.55114 0.20131 0.0
C367 C 0.20651 0.60004 0.25747 0.0
C368 C 0.20043 0.53385 0.15039 0.0
C369 C 0.1816 0.54525 0.10464 0.0
C370 C 0.19665 0.58026 0.20666 0.0
C371 C 0.17001 0.57412 0.11276 0.0
C372 C 0.19681 0.62976 0.26191 0.0
C373 C 0.23819 0.60717 0.34398 0.0
N374 N 0.17787 0.5907 0.16254 0.0
N375 N 0.22664 0.58972 0.29899 0.0
H376 H 0.34132 0.73518 0.64525 0.0
H377 H 0.41823 0.64238 0.91143 0.0
H378 H 0.33504 0.63919 0.65475 0.0
H379 H 0.44953 0.72898 0.85419 0.0
H380 H 0.38551 0.64103 0.82131 0.0
H381 H 0.37912 0.73395 0.72577 0.0
C382 C 0.34801 0.71383 0.6641 0.0
C383 C 0.33497 0.68726 0.64348 0.0
C384 C 0.39981 0.66015 0.82819 0.0
C385 C 0.37793 0.68572 0.73596 0.0
C386 C 0.41834 0.66097 0.8796 0.0
C387 C 0.43657 0.68581 0.89007 0.0
C388 C 0.39914 0.6846 0.7878 0.0
C389 C 0.436 0.7093 0.84743 0.0
C390 C 0.36965 0.71314 0.70984 0.0
C391 C 0.34458 0.6602 0.66924 0.0
N392 N 0.41734 0.70827 0.79853 0.0
N393 N 0.36526 0.66014 0.71472 0.0
H394 H 0.75547 0.91314 0.11247 0.0
H395 H 0.65346 0.92651 0.41179 0.0
H396 H 0.69886 0.84204 0.17731 0.0
H397 H 0.70964 0.99714 0.34349 0.0
H398 H 0.66557 0.89693 0.32054 0.0
H399 H 0.73452 0.94598 0.19056 0.0
C400 C 0.73847 0.90446 0.14285 0.0
C401 C 0.72922 0.87464 0.13878 0.0
C402 C 0.67495 0.91905 0.32521 0.0
C403 C 0.70518 0.91218 0.22876 0.0
C404 C 0.66812 0.9359 0.37737 0.0
C405 C 0.68067 0.96429 0.38554 0.0
C406 C 0.69462 0.93061 0.28107 0.0
C407 C 0.6992 0.97551 0.33901 0.0
C408 C 0.72649 0.92326 0.18748 0.0
C409 C 0.70686 0.86479 0.17903 0.0
N410 N 0.70581 0.95854 0.28916 0.0
N411 N 0.69583 0.88343 0.22277 0.0
H412 H 0.64077 0.35998 0.63211 0.0
H413 H 0.5731 0.27136 0.91681 0.0
H414 H 0.66261 0.26859 0.67596 0.0
H415 H 0.53791 0.35568 0.85597 0.0
H416 H 0.60452 0.26939 0.82528 0.0
H417 H 0.6015 0.35859 0.70995 0.0
C418 C 0.63718 0.33955 0.65767 0.0
C419 C 0.65533 0.31448 0.64795 0.0
C420 C 0.58973 0.28821 0.83129 0.0
C421 C 0.6105 0.31282 0.73716 0.0
C422 C 0.57183 0.28928 0.88345 0.0
C423 C 0.55308 0.31369 0.89341 0.0
C424 C 0.58923 0.31202 0.78927 0.0
C425 C 0.55213 0.33647 0.84937 0.0
C426 C 0.61472 0.33878 0.70203 0.0
C427 C 0.64946 0.28857 0.68218 0.0
N428 N 0.57028 0.33528 0.79933 0.0
N429 N 0.62779 0.28854 0.72556 0.0
H430 H 0.28806 0.16665 0.18063 0.0
H431 H 0.28561 0.00761 0.33295 0.0
H432 H 0.25192 0.09004 0.08686 0.0
H433 H 0.3467 0.07653 0.38949 0.0
H434 H 0.27499 0.03594 0.23981 0.0
H435 H 0.31114 0.13344 0.25554 0.0
C436 C 0.28519 0.14277 0.17558 0.0
C437 C 0.26777 0.13107 0.12797 0.0
C438 C 0.2911 0.04462 0.2721 0.0
C439 C 0.29391 0.09291 0.21389 0.0
C440 C 0.29736 0.02834 0.32524 0.0
C441 C 0.31682 0.03985 0.36978 0.0
C442 C 0.30402 0.07281 0.26378 0.0
C443 C 0.33098 0.06711 0.35731 0.0
C444 C 0.29851 0.12381 0.21816 0.0
C445 C 0.2651 0.09996 0.12307 0.0
N446 N 0.32393 0.08288 0.30602 0.0
N447 N 0.27762 0.08194 0.1662 0.0
H448 H 0.18353 0.29106 0.90606 0.0
H449 H 0.20494 0.4462 0.07738 0.0
H450 H 0.21865 0.3 0.08983 0.0
H451 H 0.1477 0.4373 0.9192 0.0
H452 H 0.21052 0.39244 0.08044 0.0
H453 H 0.17041 0.3442 0.90752 0.0
C454 C 0.18829 0.30408 0.94683 0.0
C455 C 0.20253 0.29107 0.99766 0.0
C456 C 0.1965 0.40215 0.04532 0.0
C457 C 0.18775 0.35175 0.99936 0.0
C458 C 0.19307 0.43298 0.04379 0.0
C459 C 0.17556 0.44653 0.99825 0.0
C460 C 0.18274 0.38445 0.00046 0.0
C461 C 0.16166 0.42797 0.9548 0.0
C462 C 0.18076 0.33438 0.94762 0.0
C463 C 0.20796 0.30901 0.04934 0.0
N464 N 0.16569 0.39787 0.95674 0.0
N465 N 0.20082 0.3384 0.04859 0.0
H466 H 0.18432 0.76373 0.41104 0.0
H467 H 0.02737 0.77282 0.5804 0.0
H468 H 0.16489 0.71927 0.58263 0.0
H469 H 0.05063 0.82774 0.42446 0.0
H470 H 0.07743 0.75259 0.58097 0.0
H471 H 0.13495 0.78606 0.41299 0.0
C472 C 0.16965 0.75854 0.44905 0.0
C473 C 0.17881 0.73958 0.49683 0.0
C474 C 0.0717 0.76922 0.54687 0.0
C475 C 0.12224 0.76522 0.49932 0.0
C476 C 0.04313 0.78106 0.54685 0.0
C477 C 0.03475 0.80226 0.50255 0.0
C478 C 0.0921 0.77837 0.50195 0.0
C479 C 0.05602 0.8113 0.45916 0.0
C480 C 0.1415 0.77144 0.45022 0.0
C481 C 0.15883 0.73377 0.54488 0.0
N482 N 0.08369 0.79922 0.45981 0.0
N483 N 0.13148 0.74653 0.54485 0.0
H484 H 0.79156 0.71187 0.90846 0.0
H485 H 0.79304 0.56345 0.10069 0.0
H486 H 0.78875 0.71239 0.10682 0.0
H487 H 0.8404 0.56964 0.92815 0.0
H488 H 0.78752 0.61735 0.10108 0.0
H489 H 0.80555 0.65902 0.91114 0.0
C490 C 0.79401 0.70088 0.95254 0.0
C491 C 0.78879 0.71644 0.00751 0.0
C492 C 0.79938 0.60689 0.06347 0.0
C493 C 0.8044 0.65614 0.01074 0.0
C494 C 0.80279 0.57602 0.0633 0.0
C495 C 0.81743 0.56164 0.01441 0.0
C496 C 0.80999 0.62367 0.01379 0.0
C497 C 0.82854 0.57948 0.96637 0.0
C498 C 0.80213 0.67084 0.95399 0.0
C499 C 0.79253 0.70123 0.06337 0.0
N500 N 0.82431 0.60953 0.96693 0.0
N501 N 0.79971 0.67179 0.06354 0.0
H502 H 0.8304 0.2881 0.60314 0.0
H503 H 0.94529 0.18156 0.42744 0.0
H504 H 0.81339 0.24673 0.42734 0.0
H505 H 0.97056 0.23747 0.58031 0.0
H506 H 0.89525 0.20221 0.43268 0.0
H507 H 0.88062 0.26682 0.60145 0.0
C508 C 0.83719 0.2746 0.56427 0.0
C509 C 0.81763 0.26922 0.51533 0.0
C510 C 0.91173 0.20994 0.46517 0.0
C511 C 0.87477 0.24474 0.51333 0.0
C512 C 0.94035 0.19822 0.46203 0.0
C513 C 0.96223 0.20779 0.50338 0.0
C514 C 0.90481 0.23136 0.51011 0.0
C515 C 0.95433 0.22908 0.548 0.0
C516 C 0.86582 0.2625 0.56332 0.0
C517 C 0.82763 0.25158 0.46608 0.0
N518 N 0.92627 0.24017 0.55015 0.0
N519 N 0.8554 0.23994 0.46649 0.0
H520 H 0.70702 0.21327 0.39831 0.0
H521 H 0.65223 0.06942 0.5815 0.0
H522 H 0.70187 0.21122 0.59647 0.0
H523 H 0.70163 0.06448 0.41125 0.0
H524 H 0.65889 0.12362 0.58107 0.0
H525 H 0.69276 0.16055 0.39575 0.0
C526 C 0.70258 0.20183 0.44121 0.0
C527 C 0.70595 0.21649 0.49775 0.0
C528 C 0.66797 0.11051 0.54367 0.0
C529 C 0.68935 0.15651 0.49497 0.0
C530 C 0.66437 0.07956 0.54396 0.0
C531 C 0.67648 0.06205 0.49649 0.0
C532 C 0.6833 0.12414 0.49507 0.0
C533 C 0.69135 0.0768 0.44835 0.0
C534 C 0.69457 0.17178 0.43969 0.0
C535 C 0.69989 0.20059 0.55195 0.0
N536 N 0.69431 0.10693 0.44891 0.0
N537 N 0.69186 0.1714 0.54926 0.0
H538 H 0.31057 0.26589 0.92232 0.0
H539 H 0.46668 0.27059 0.09466 0.0
H540 H 0.32723 0.22056 0.09412 0.0
H541 H 0.44535 0.32578 0.93806 0.0
H542 H 0.41583 0.25218 0.09569 0.0
H543 H 0.36013 0.28737 0.92677 0.0
C544 C 0.32465 0.26039 0.96103 0.0
C545 C 0.31467 0.24132 0.00794 0.0
C546 C 0.42219 0.26849 0.06138 0.0
C547 C 0.37162 0.26599 0.01323 0.0
C548 C 0.45121 0.27924 0.06104 0.0
C549 C 0.46036 0.29991 0.01627 0.0
C550 C 0.40214 0.27822 0.01634 0.0
C551 C 0.4394 0.30965 0.97299 0.0
C552 C 0.35295 0.2728 0.9636 0.0
C553 C 0.33396 0.23514 0.05696 0.0
N554 N 0.41132 0.29862 0.97394 0.0
N555 N 0.36156 0.24738 0.05823 0.0
H556 H 0.31311 0.79154 0.41301 0.0
H557 H 0.28211 0.94825 0.57366 0.0
H558 H 0.26748 0.80144 0.58654 0.0
H559 H 0.34648 0.93765 0.42798 0.0
H560 H 0.2762 0.89435 0.57755 0.0
H561 H 0.32526 0.84486 0.4156 0.0
C562 C 0.30579 0.80483 0.45177 0.0
C563 C 0.28902 0.79199 0.49936 0.0
C564 C 0.29181 0.90376 0.54502 0.0
C565 C 0.30268 0.85292 0.50237 0.0
C566 C 0.29538 0.93463 0.54305 0.0
C567 C 0.31491 0.94769 0.50049 0.0
C568 C 0.30757 0.88564 0.50367 0.0
C569 C 0.33085 0.92868 0.46096 0.0
C570 C 0.31278 0.83523 0.45325 0.0
C571 C 0.28029 0.81029 0.5486 0.0
N572 N 0.32669 0.89864 0.46322 0.0
N573 N 0.287 0.8398 0.54852 0.0
H574 H 0.6813 0.74919 0.08354 0.0
H575 H 0.52339 0.74562 0.91786 0.0
H576 H 0.66536 0.7914 0.90807 0.0
H577 H 0.54732 0.68903 0.07069 0.0
H578 H 0.57415 0.76491 0.91562 0.0
H579 H 0.63088 0.72998 0.08265 0.0
C580 C 0.66718 0.75451 0.04477 0.0
C581 C 0.67767 0.7719 0.99566 0.0
C582 C 0.56826 0.74821 0.94949 0.0
C583 C 0.61965 0.74983 0.99448 0.0
C584 C 0.53934 0.73704 0.95061 0.0
C585 C 0.53102 0.71566 0.99463 0.0
C586 C 0.58895 0.73808 0.99293 0.0
C587 C 0.55254 0.70582 0.03658 0.0
C588 C 0.63836 0.7434 0.04425 0.0
C589 C 0.65825 0.778 0.94679 0.0
N590 N 0.58044 0.71716 0.03479 0.0
N591 N 0.63011 0.76699 0.94746 0.0
loop_
_geom_bond_atom_site_label_1
_geom_bond_atom_site_label_2
_geom_bond_distance
_geom_bond_site_symmetry_2
_ccdc_geom_bond_type
Fe0 O2 1.926 . S
Fe0 O5 1.997 . S
Fe0 O6 2.002 . S
Fe0 O11 1.976 . S
Fe0 O14 1.996 . S
Fe1 O2 1.910 1_556 S
Fe1 O9 1.997 . S
Fe1 O12 1.996 . S
Fe1 O16 1.976 . S
Fe1 O19 2.002 . S
O2 Fe0 1.926 . S
O2 Fe1 1.910 1_554 S
O2 Fe3 1.918 1_554 S
Fe3 O2 1.918 1_556 S
Fe3 O4 2.003 1_556 S
Fe3 O13 1.977 1_556 S
Fe3 O17 1.995 . S
Fe3 O20 1.996 . S
O4 Fe3 2.003 1_554 S
O4 C21 1.295 . S
O5 Fe0 1.997 . S
O5 C21 1.235 . S
O6 Fe0 2.002 . S
O6 C7 1.295 . S
C7 O6 1.295 . S
C7 O9 1.235 1_554 S
C8 O13 1.287 . S
C8 O14 1.255 . S
O9 Fe1 1.997 . S
O9 C7 1.235 1_556 S
C10 O16 1.287 . S
C10 O17 1.255 . S
O11 Fe0 1.976 . S
O11 C18 1.287 1_554 S
O12 Fe1 1.996 . S
O12 C18 1.255 . S
O13 Fe3 1.977 1_554 S
O13 C8 1.287 . S
O14 Fe0 1.996 . S
O14 C8 1.255 . S
C15 O19 1.295 . S
C15 O20 1.235 . S
O16 Fe1 1.976 . S
O16 C10 1.287 . S
O17 Fe3 1.995 . S
O17 C10 1.255 . S
C18 O11 1.287 1_556 S
C18 O12 1.255 . S
O19 Fe1 2.002 . S
O19 C15 1.295 . S
O20 Fe3 1.996 . S
O20 C15 1.235 . S
C21 O4 1.295 . S
C21 O5 1.235 . S
Fe22 O24 1.918 . S
Fe22 O27 1.997 . S
Fe22 O28 2.002 . S
Fe22 O33 1.976 . S
Fe22 O36 1.996 . S
Fe23 O24 1.918 . S
Fe23 O31 1.997 . S
Fe23 O34 1.996 . S
Fe23 O38 1.976 . S
Fe23 O41 2.002 . S
O24 Fe22 1.918 . S
O24 Fe23 1.918 . S
O24 Fe25 1.918 . S
Fe25 O24 1.918 . S
Fe25 O26 2.002 . S
Fe25 O35 1.976 . S
Fe25 O39 1.996 . S
Fe25 O42 1.997 . S
O26 Fe25 2.002 . S
O26 C43 1.295 . S
O27 Fe22 1.997 . S
O27 C43 1.235 . S
O28 Fe22 2.002 . S
O28 C29 1.295 . S
C29 O28 1.295 . S
C29 O31 1.235 . S
C30 O35 1.287 . S
C30 O36 1.255 . S
O31 Fe23 1.997 . S
O31 C29 1.235 . S
C32 O38 1.287 . S
C32 O39 1.255 . S
O33 Fe22 1.976 . S
O33 C40 1.287 . S
O34 Fe23 1.996 . S
O34 C40 1.255 . S
O35 Fe25 1.976 . S
O35 C30 1.287 . S
O36 Fe22 1.996 . S
O36 C30 1.255 . S
C37 O41 1.295 . S
C37 O42 1.235 . S
O38 Fe23 1.976 . S
O38 C32 1.287 . S
O39 Fe25 1.996 . S
O39 C32 1.255 . S
C40 O33 1.287 . S
C40 O34 1.255 . S
O41 Fe23 2.002 . S
O41 C37 1.295 . S
O42 Fe25 1.997 . S
O42 C37 1.235 . S
C43 O26 1.295 . S
C43 O27 1.235 . S
Fe44 O46 1.913 1_556 S
Fe44 O49 1.997 . S
Fe44 O50 2.002 . S
Fe44 O55 1.976 . S
Fe44 O58 1.996 . S
Fe45 O46 1.924 . S
Fe45 O53 1.997 . S
Fe45 O56 1.996 . S
Fe45 O60 1.976 . S
Fe45 O63 2.002 . S
O46 Fe44 1.913 1_554 S
O46 Fe45 1.924 . S
O46 Fe47 1.918 . S
Fe47 O46 1.918 . S
Fe47 O48 1.990 1_554 S
Fe47 O57 1.963 1_554 S
Fe47 O61 2.009 . S
Fe47 O64 2.010 . S
O48 Fe47 1.990 1_556 S
O48 C65 1.295 . S
O49 Fe44 1.997 . S
O49 C65 1.235 . S
O50 Fe44 2.002 . S
O50 C51 1.295 . S
C51 O50 1.295 . S
C51 O53 1.235 1_556 S
C52 O57 1.287 . S
C52 O58 1.255 . S
O53 Fe45 1.997 . S
O53 C51 1.235 1_554 S
C54 O60 1.287 . S
C54 O61 1.255 . S
O55 Fe44 1.976 . S
O55 C62 1.287 1_556 S
O56 Fe45 1.996 . S
O56 C62 1.255 . S
O57 Fe47 1.963 1_556 S
O57 C52 1.287 . S
O58 Fe44 1.996 . S
O58 C52 1.255 . S
C59 O63 1.295 . S
C59 O64 1.235 . S
O60 Fe45 1.976 . S
O60 C54 1.287 . S
O61 Fe47 2.009 . S
O61 C54 1.255 . S
C62 O55 1.287 1_554 S
C62 O56 1.255 . S
O63 Fe45 2.002 . S
O63 C59 1.295 . S
O64 Fe47 2.010 . S
O64 C59 1.235 . S
C65 O48 1.295 . S
C65 O49 1.235 . S
Fe66 O68 1.918 . S
Fe66 O71 1.997 . S
Fe66 O72 2.002 . S
Fe66 O77 1.976 . S
Fe66 O80 1.996 . S
Fe67 O68 1.918 . S
Fe67 O75 1.997 . S
Fe67 O78 1.996 . S
Fe67 O82 1.976 . S
Fe67 O85 2.002 . S
O68 Fe66 1.918 . S
O68 Fe67 1.918 . S
O68 Fe69 1.918 . S
Fe69 O68 1.918 . S
Fe69 O70 2.002 . S
Fe69 O79 1.976 . S
Fe69 O83 1.996 . S
Fe69 O86 1.997 . S
O70 Fe69 2.002 . S
O70 C87 1.295 . S
O71 Fe66 1.997 . S
O71 C87 1.235 . S
O72 Fe66 2.002 . S
O72 C73 1.295 . S
C73 O72 1.295 . S
C73 O75 1.235 . S
C74 O79 1.287 . S
C74 O80 1.255 . S
O75 Fe67 1.997 . S
O75 C73 1.235 . S
C76 O82 1.287 . S
C76 O83 1.255 . S
O77 Fe66 1.976 . S
O77 C84 1.287 . S
O78 Fe67 1.996 . S
O78 C84 1.255 . S
O79 Fe69 1.976 . S
O79 C74 1.287 . S
O80 Fe66 1.996 . S
O80 C74 1.255 . S
C81 O85 1.295 . S
C81 O86 1.235 . S
O82 Fe67 1.976 . S
O82 C76 1.287 . S
O83 Fe69 1.996 . S
O83 C76 1.255 . S
C84 O77 1.287 . S
C84 O78 1.255 . S
O85 Fe67 2.002 . S
O85 C81 1.295 . S
O86 Fe69 1.997 . S
O86 C81 1.235 . S
C87 O70 1.295 . S
C87 O71 1.235 . S
H88 C91 0.931 . S
H89 C94 0.928 . S
H90 C96 0.930 . S
C91 H88 0.931 . S
C91 C92 1.399 1_556 S
C91 C93 1.374 . S
C92 C91 1.399 1_554 S
C92 C96 1.429 . S
C93 C91 1.374 . S
C93 C94 1.372 . S
C94 H89 0.928 . S
C94 C93 1.372 . S
C94 C95 1.406 . S
C95 C94 1.406 . S
C95 C96 1.388 1_556 S
C96 H90 0.930 . S
C96 C92 1.429 . S
C96 C95 1.388 1_554 S
H97 C100 0.931 . S
H98 C103 0.928 1_455 S
H99 C105 0.930 1_455 S
C100 H97 0.931 . S
C100 C101 1.413 . S
C100 C102 1.360 . S
C101 C100 1.413 . S
C101 C105 1.429 . S
C102 C100 1.360 . S
C102 C103 1.372 . S
C103 H98 0.928 1_655 S
C103 C102 1.372 . S
C103 C104 1.404 1_655 S
C104 C103 1.404 1_455 S
C104 C105 1.391 1_455 S
C105 H99 0.930 1_655 S
C105 C101 1.429 . S
C105 C104 1.391 1_655 S
H106 C109 0.931 . S
H107 C112 0.928 . S
H108 C114 0.930 . S
C109 H106 0.931 . S
C109 C110 1.413 1_554 S
C109 C111 1.360 . S
C110 C109 1.413 1_556 S
C110 C114 1.429 . S
C111 C109 1.360 . S
C111 C112 1.372 . S
C112 H107 0.928 . S
C112 C111 1.372 . S
C112 C113 1.404 . S
C113 C112 1.404 . S
C113 C114 1.391 1_554 S
C114 H108 0.930 . S
C114 C110 1.429 . S
C114 C113 1.391 1_556 S
H115 C118 0.931 . S
H116 C121 0.928 1_655 S
H117 C123 0.930 1_655 S
C118 H115 0.931 . S
C118 C119 1.413 . S
C118 C120 1.360 . S
C119 C118 1.413 . S
C119 C123 1.429 . S
C120 C118 1.360 . S
C120 C121 1.372 . S
C121 H116 0.928 1_455 S
C121 C120 1.372 . S
C121 C122 1.404 1_455 S
C122 C121 1.404 1_655 S
C122 C123 1.391 1_655 S
C123 H117 0.930 1_455 S
C123 C119 1.429 . S
C123 C122 1.391 1_455 S
H124 C127 0.931 . S
H125 C130 0.928 . S
H126 C132 0.930 . S
C127 H124 0.931 . S
C127 C128 1.413 . S
C127 C129 1.360 . S
C128 C127 1.413 . S
C128 C132 1.429 1_565 S
C129 C127 1.360 . S
C129 C130 1.372 1_565 S
C130 H125 0.928 . S
C130 C129 1.372 1_545 S
C130 C131 1.404 . S
C131 C130 1.404 . S
C131 C132 1.391 . S
C132 H126 0.930 . S
C132 C128 1.429 1_545 S
C132 C131 1.391 . S
H133 C136 0.931 . S
H134 C139 0.928 . S
H135 C141 0.930 . S
C136 H133 0.931 . S
C136 C137 1.413 1_554 S
C136 C138 1.360 . S
C137 C136 1.413 1_556 S
C137 C141 1.429 . S
C138 C136 1.360 . S
C138 C139 1.372 . S
C139 H134 0.928 . S
C139 C138 1.372 . S
C139 C140 1.418 . S
C140 C139 1.418 . S
C140 C141 1.376 1_554 S
C141 H135 0.930 . S
C141 C137 1.429 . S
C141 C140 1.376 1_556 S
H142 C145 0.931 . S
H143 C148 0.928 . S
H144 C150 0.930 . S
C145 H142 0.931 . S
C145 C146 1.413 . S
C145 C147 1.360 . S
C146 C145 1.413 . S
C146 C150 1.429 1_545 S
C147 C145 1.360 . S
C147 C148 1.372 1_545 S
C148 H143 0.928 . S
C148 C147 1.372 1_565 S
C148 C149 1.404 . S
C149 C148 1.404 . S
C149 C150 1.391 . S
C150 H144 0.930 . S
C150 C146 1.429 1_565 S
C150 C149 1.391 . S
H151 C154 0.931 . S
H152 C157 0.928 . S
H153 C159 0.930 . S
C154 H151 0.931 . S
C154 C155 1.405 1_556 S
C154 C156 1.368 . S
C155 C154 1.405 1_554 S
C155 C159 1.429 . S
C156 C154 1.368 . S
C156 C157 1.372 . S
C157 H152 0.928 . S
C157 C156 1.372 . S
C157 C158 1.404 1_556 S
C158 C157 1.404 1_554 S
C158 C159 1.390 . S
C159 H153 0.930 . S
C159 C155 1.429 . S
C159 C158 1.390 . S
H160 C166 0.930 . S
H161 C170 0.930 . S
H162 C175 0.929 . S
H163 C173 0.929 . S
H164 C168 0.929 . S
H165 C174 0.929 . S
C166 H160 0.930 . S
C166 C167 1.367 . S
C166 C174 1.378 . S
C167 C166 1.367 . S
C167 C175 1.433 . S
C168 H164 0.929 . S
C168 C170 1.378 . S
C168 C172 1.350 . S
C169 C172 1.463 . S
C169 C174 1.350 . S
C169 N177 1.427 . S
C170 H161 0.930 . S
C170 C168 1.378 . S
C170 C171 1.367 . S
C171 C170 1.367 . S
C171 C173 1.433 . S
C172 C168 1.350 . S
C172 C169 1.463 . S
C172 N176 1.427 . S
C173 H163 0.929 . S
C173 C171 1.433 . S
C173 N176 1.384 . S
C174 H165 0.929 . S
C174 C166 1.378 . S
C174 C169 1.350 . S
C175 H162 0.929 . S
C175 C167 1.433 . S
C175 N177 1.384 . S
N176 C172 1.427 . S
N176 C173 1.384 . S
N177 C169 1.427 . S
N177 C175 1.384 . S
H178 C184 0.930 . S
H179 C188 0.930 . S
H180 C193 0.929 . S
H181 C191 0.929 . S
H182 C186 0.929 . S
H183 C192 0.929 . S
C184 H178 0.930 . S
C184 C185 1.367 . S
C184 C192 1.378 . S
C185 C184 1.367 . S
C185 C193 1.433 . S
C186 H182 0.929 . S
C186 C188 1.378 . S
C186 C190 1.350 . S
C187 C190 1.463 . S
C187 C192 1.350 . S
C187 N195 1.427 . S
C188 H179 0.930 . S
C188 C186 1.378 . S
C188 C189 1.367 . S
C189 C188 1.367 . S
C189 C191 1.433 . S
C190 C186 1.350 . S
C190 C187 1.463 . S
C190 N194 1.427 . S
C191 H181 0.929 . S
C191 C189 1.433 . S
C191 N194 1.384 . S
C192 H183 0.929 . S
C192 C184 1.378 . S
C192 C187 1.350 . S
C193 H180 0.929 . S
C193 C185 1.433 . S
C193 N195 1.384 . S
N194 C190 1.427 . S
N194 C191 1.384 . S
N195 C187 1.427 . S
N195 C193 1.384 . S
H196 C202 0.930 . S
H197 C206 0.930 . S
H198 C211 0.929 . S
H199 C209 0.929 . S
H200 C204 0.929 . S
H201 C210 0.929 . S
C202 H196 0.930 . S
C202 C203 1.367 . S
C202 C210 1.378 . S
C203 C202 1.367 . S
C203 C211 1.433 . S
C204 H200 0.929 . S
C204 C206 1.378 . S
C204 C208 1.350 . S
C205 C208 1.463 . S
C205 C210 1.350 . S
C205 N213 1.427 . S
C206 H197 0.930 . S
C206 C204 1.378 . S
C206 C207 1.367 . S
C207 C206 1.367 . S
C207 C209 1.433 . S
C208 C204 1.350 . S
C208 C205 1.463 . S
C208 N212 1.427 . S
C209 H199 0.929 . S
C209 C207 1.433 . S
C209 N212 1.384 . S
C210 H201 0.929 . S
C210 C202 1.378 . S
C210 C205 1.350 . S
C211 H198 0.929 . S
C211 C203 1.433 . S
C211 N213 1.384 . S
N212 C208 1.427 . S
N212 C209 1.384 . S
N213 C205 1.427 . S
N213 C211 1.384 . S
H214 C220 0.930 . S
H215 C224 0.930 . S
H216 C229 0.929 . S
H217 C227 0.929 . S
H218 C222 0.929 . S
H219 C228 0.929 . S
C220 H214 0.930 . S
C220 C221 1.367 . S
C220 C228 1.378 . S
C221 C220 1.367 . S
C221 C229 1.433 . S
C222 H218 0.929 . S
C222 C224 1.378 . S
C222 C226 1.350 . S
C223 C226 1.463 . S
C223 C228 1.350 . S
C223 N231 1.427 . S
C224 H215 0.930 . S
C224 C222 1.378 . S
C224 C225 1.367 . S
C225 C224 1.367 . S
C225 C227 1.433 . S
C226 C222 1.350 . S
C226 C223 1.463 . S
C226 N230 1.427 . S
C227 H217 0.929 . S
C227 C225 1.433 . S
C227 N230 1.384 . S
C228 H219 0.929 . S
C228 C220 1.378 . S
C228 C223 1.350 . S
C229 H216 0.929 . S
C229 C221 1.433 . S
C229 N231 1.384 . S
N230 C226 1.427 . S
N230 C227 1.384 . S
N231 C223 1.427 . S
N231 C229 1.384 . S
H232 C238 0.930 . S
H233 C242 0.930 . S
H234 C247 0.929 . S
H235 C245 0.929 . S
H236 C240 0.929 . S
H237 C246 0.929 . S
C238 H232 0.930 . S
C238 C239 1.367 . S
C238 C246 1.378 . S
C239 C238 1.367 . S
C239 C247 1.433 . S
C240 H236 0.929 . S
C240 C242 1.378 . S
C240 C244 1.350 . S
C241 C244 1.463 . S
C241 C246 1.350 . S
C241 N249 1.427 . S
C242 H233 0.930 . S
C242 C240 1.378 . S
C242 C243 1.367 . S
C243 C242 1.367 . S
C243 C245 1.433 . S
C244 C240 1.350 . S
C244 C241 1.463 . S
C244 N248 1.427 . S
C245 H235 0.929 . S
C245 C243 1.433 . S
C245 N248 1.384 . S
C246 H237 0.929 . S
C246 C238 1.378 . S
C246 C241 1.350 . S
C247 H234 0.929 . S
C247 C239 1.433 . S
C247 N249 1.384 . S
N248 C244 1.427 . S
N248 C245 1.384 . S
N249 C241 1.427 . S
N249 C247 1.384 . S
H250 C256 0.930 . S
H251 C260 0.930 . S
H252 C265 0.929 . S
H253 C263 0.929 . S
H254 C258 0.929 . S
H255 C264 0.929 . S
C256 H250 0.930 . S
C256 C257 1.367 . S
C256 C264 1.378 . S
C257 C256 1.367 . S
C257 C265 1.433 . S
C258 H254 0.929 . S
C258 C260 1.378 . S
C258 C262 1.350 . S
C259 C262 1.463 . S
C259 C264 1.350 . S
C259 N267 1.427 . S
C260 H251 0.930 . S
C260 C258 1.378 . S
C260 C261 1.367 . S
C261 C260 1.367 . S
C261 C263 1.433 . S
C262 C258 1.350 . S
C262 C259 1.463 . S
C262 N266 1.427 . S
C263 H253 0.929 . S
C263 C261 1.433 . S
C263 N266 1.384 . S
C264 H255 0.929 . S
C264 C256 1.378 . S
C264 C259 1.350 . S
C265 H252 0.929 . S
C265 C257 1.433 . S
C265 N267 1.384 . S
N266 C262 1.427 . S
N266 C263 1.384 . S
N267 C259 1.427 . S
N267 C265 1.384 . S
H268 C274 0.930 . S
H269 C278 0.930 . S
H270 C283 0.929 . S
H271 C281 0.929 . S
H272 C276 0.929 . S
H273 C282 0.929 . S
C274 H268 0.930 . S
C274 C275 1.367 . S
C274 C282 1.378 . S
C275 C274 1.367 . S
C275 C283 1.433 . S
C276 H272 0.929 . S
C276 C278 1.378 . S
C276 C280 1.350 . S
C277 C280 1.463 . S
C277 C282 1.350 . S
C277 N285 1.427 . S
C278 H269 0.930 . S
C278 C276 1.378 . S
C278 C279 1.367 . S
C279 C278 1.367 . S
C279 C281 1.433 . S
C280 C276 1.350 . S
C280 C277 1.463 . S
C280 N284 1.427 . S
C281 H271 0.929 . S
C281 C279 1.433 . S
C281 N284 1.384 . S
C282 H273 0.929 . S
C282 C274 1.378 . S
C282 C277 1.350 . S
C283 H270 0.929 . S
C283 C275 1.433 . S
C283 N285 1.384 . S
N284 C280 1.427 . S
N284 C281 1.384 . S
N285 C277 1.427 . S
N285 C283 1.384 . S
H286 C292 0.930 . S
H287 C296 0.930 . S
H288 C301 0.929 . S
H289 C299 0.929 . S
H290 C294 0.929 . S
H291 C300 0.929 . S
C292 H286 0.930 . S
C292 C293 1.367 . S
C292 C300 1.378 . S
C293 C292 1.367 . S
C293 C301 1.433 . S
C294 H290 0.929 . S
C294 C296 1.378 . S
C294 C298 1.350 . S
C295 C298 1.463 . S
C295 C300 1.350 . S
C295 N303 1.427 . S
C296 H287 0.930 . S
C296 C294 1.378 . S
C296 C297 1.367 . S
C297 C296 1.367 . S
C297 C299 1.433 . S
C298 C294 1.350 . S
C298 C295 1.463 . S
C298 N302 1.427 . S
C299 H289 0.929 . S
C299 C297 1.433 . S
C299 N302 1.384 . S
C300 H291 0.929 . S
C300 C292 1.378 . S
C300 C295 1.350 . S
C301 H288 0.929 . S
C301 C293 1.433 . S
C301 N303 1.384 . S
N302 C298 1.427 . S
N302 C299 1.384 . S
N303 C295 1.427 . S
N303 C301 1.384 . S
H304 C310 0.930 . S
H305 C314 0.930 . S
H306 C319 0.929 . S
H307 C317 0.929 . S
H308 C312 0.929 . S
H309 C318 0.929 . S
C310 H304 0.930 . S
C310 C311 1.367 . S
C310 C318 1.378 . S
C311 C310 1.367 . S
C311 C319 1.433 . S
C312 H308 0.929 . S
C312 C314 1.378 . S
C312 C316 1.350 . S
C313 C316 1.463 . S
C313 C318 1.350 . S
C313 N321 1.427 . S
C314 H305 0.930 . S
C314 C312 1.378 . S
C314 C315 1.367 . S
C315 C314 1.367 . S
C315 C317 1.433 . S
C316 C312 1.350 . S
C316 C313 1.463 . S
C316 N320 1.427 . S
C317 H307 0.929 . S
C317 C315 1.433 . S
C317 N320 1.384 . S
C318 H309 0.929 . S
C318 C310 1.378 . S
C318 C313 1.350 . S
C319 H306 0.929 . S
C319 C311 1.433 . S
C319 N321 1.384 . S
N320 C316 1.427 . S
N320 C317 1.384 . S
N321 C313 1.427 . S
N321 C319 1.384 . S
H322 C328 0.930 . S
H323 C332 0.930 . S
H324 C337 0.929 . S
H325 C335 0.929 . S
H326 C330 0.929 . S
H327 C336 0.929 . S
C328 H322 0.930 . S
C328 C329 1.367 . S
C328 C336 1.378 . S
C329 C328 1.367 . S
C329 C337 1.433 . S
C330 H326 0.929 . S
C330 C332 1.378 . S
C330 C334 1.350 . S
C331 C334 1.463 . S
C331 C336 1.350 . S
C331 N339 1.427 . S
C332 H323 0.930 . S
C332 C330 1.378 . S
C332 C333 1.367 . S
C333 C332 1.367 . S
C333 C335 1.433 . S
C334 C330 1.350 . S
C334 C331 1.463 . S
C334 N338 1.427 . S
C335 H325 0.929 . S
C335 C333 1.433 . S
C335 N338 1.384 . S
C336 H327 0.929 . S
C336 C328 1.378 . S
C336 C331 1.350 . S
C337 H324 0.929 . S
C337 C329 1.433 . S
C337 N339 1.384 . S
N338 C334 1.427 . S
N338 C335 1.384 . S
N339 C331 1.427 . S
N339 C337 1.384 . S
H340 C346 0.930 . S
H341 C350 0.930 . S
H342 C355 0.929 . S
H343 C353 0.929 . S
H344 C348 0.929 . S
H345 C354 0.929 . S
C346 H340 0.930 . S
C346 C347 1.367 . S
C346 C354 1.378 . S
C347 C346 1.367 . S
C347 C355 1.433 . S
C348 H344 0.929 . S
C348 C350 1.378 . S
C348 C352 1.350 . S
C349 C352 1.463 . S
C349 C354 1.350 . S
C349 N357 1.427 . S
C350 H341 0.930 . S
C350 C348 1.378 . S
C350 C351 1.367 . S
C351 C350 1.367 . S
C351 C353 1.433 . S
C352 C348 1.350 . S
C352 C349 1.463 . S
C352 N356 1.427 . S
C353 H343 0.929 . S
C353 C351 1.433 . S
C353 N356 1.384 . S
C354 H345 0.929 . S
C354 C346 1.378 . S
C354 C349 1.350 . S
C355 H342 0.929 . S
C355 C347 1.433 . S
C355 N357 1.384 . S
N356 C352 1.427 . S
N356 C353 1.384 . S
N357 C349 1.427 . S
N357 C355 1.384 . S
H358 C364 0.930 . S
H359 C368 0.930 . S
H360 C373 0.929 . S
H361 C371 0.929 . S
H362 C366 0.929 . S
H363 C372 0.929 . S
C364 H358 0.930 . S
C364 C365 1.367 . S
C364 C372 1.378 . S
C365 C364 1.367 . S
C365 C373 1.433 . S
C366 H362 0.929 . S
C366 C368 1.378 . S
C366 C370 1.350 . S
C367 C370 1.463 . S
C367 C372 1.350 . S
C367 N375 1.427 . S
C368 H359 0.930 . S
C368 C366 1.378 . S
C368 C369 1.367 . S
C369 C368 1.367 . S
C369 C371 1.433 . S
C370 C366 1.350 . S
C370 C367 1.463 . S
C370 N374 1.427 . S
C371 H361 0.929 . S
C371 C369 1.433 . S
C371 N374 1.384 . S
C372 H363 0.929 . S
C372 C364 1.378 . S
C372 C367 1.350 . S
C373 H360 0.929 . S
C373 C365 1.433 . S
C373 N375 1.384 . S
N374 C370 1.427 . S
N374 C371 1.384 . S
N375 C367 1.427 . S
N375 C373 1.384 . S
H376 C382 0.930 . S
H377 C386 0.930 . S
H378 C391 0.929 . S
H379 C389 0.929 . S
H380 C384 0.929 . S
H381 C390 0.929 . S
C382 H376 0.930 . S
C382 C383 1.367 . S
C382 C390 1.378 . S
C383 C382 1.367 . S
C383 C391 1.433 . S
C384 H380 0.929 . S
C384 C386 1.378 . S
C384 C388 1.350 . S
C385 C388 1.463 . S
C385 C390 1.350 . S
C385 N393 1.427 . S
C386 H377 0.930 . S
C386 C384 1.378 . S
C386 C387 1.367 . S
C387 C386 1.367 . S
C387 C389 1.433 . S
C388 C384 1.350 . S
C388 C385 1.463 . S
C388 N392 1.427 . S
C389 H379 0.929 . S
C389 C387 1.433 . S
C389 N392 1.384 . S
C390 H381 0.929 . S
C390 C382 1.378 . S
C390 C385 1.350 . S
C391 H378 0.929 . S
C391 C383 1.433 . S
C391 N393 1.384 . S
N392 C388 1.427 . S
N392 C389 1.384 . S
N393 C385 1.427 . S
N393 C391 1.384 . S
H394 C400 0.930 . S
H395 C404 0.930 . S
H396 C409 0.929 . S
H397 C407 0.929 . S
H398 C402 0.929 . S
H399 C408 0.929 . S
C400 H394 0.930 . S
C400 C401 1.367 . S
C400 C408 1.378 . S
C401 C400 1.367 . S
C401 C409 1.433 . S
C402 H398 0.929 . S
C402 C404 1.378 . S
C402 C406 1.350 . S
C403 C406 1.463 . S
C403 C408 1.350 . S
C403 N411 1.427 . S
C404 H395 0.930 . S
C404 C402 1.378 . S
C404 C405 1.367 . S
C405 C404 1.367 . S
C405 C407 1.433 . S
C406 C402 1.350 . S
C406 C403 1.463 . S
C406 N410 1.427 . S
C407 H397 0.929 . S
C407 C405 1.433 . S
C407 N410 1.384 . S
C408 H399 0.929 . S
C408 C400 1.378 . S
C408 C403 1.350 . S
C409 H396 0.929 . S
C409 C401 1.433 . S
C409 N411 1.384 . S
N410 C406 1.427 . S
N410 C407 1.384 . S
N411 C403 1.427 . S
N411 C409 1.384 . S
H412 C418 0.930 . S
H413 C422 0.930 . S
H414 C427 0.929 . S
H415 C425 0.929 . S
H416 C420 0.929 . S
H417 C426 0.929 . S
C418 H412 0.930 . S
C418 C419 1.367 . S
C418 C426 1.378 . S
C419 C418 1.367 . S
C419 C427 1.433 . S
C420 H416 0.929 . S
C420 C422 1.378 . S
C420 C424 1.350 . S
C421 C424 1.463 . S
C421 C426 1.350 . S
C421 N429 1.427 . S
C422 H413 0.930 . S
C422 C420 1.378 . S
C422 C423 1.367 . S
C423 C422 1.367 . S
C423 C425 1.433 . S
C424 C420 1.350 . S
C424 C421 1.463 . S
C424 N428 1.427 . S
C425 H415 0.929 . S
C425 C423 1.433 . S
C425 N428 1.384 . S
C426 H417 0.929 . S
C426 C418 1.378 . S
C426 C421 1.350 . S
C427 H414 0.929 . S
C427 C419 1.433 . S
C427 N429 1.384 . S
N428 C424 1.427 . S
N428 C425 1.384 . S
N429 C421 1.427 . S
N429 C427 1.384 . S
H430 C436 0.930 . S
H431 C440 0.930 . S
H432 C445 0.929 . S
H433 C443 0.929 . S
H434 C438 0.929 . S
H435 C444 0.929 . S
C436 H430 0.930 . S
C436 C437 1.367 . S
C436 C444 1.378 . S
C437 C436 1.367 . S
C437 C445 1.433 . S
C438 H434 0.929 . S
C438 C440 1.378 . S
C438 C442 1.350 . S
C439 C442 1.463 . S
C439 C444 1.350 . S
C439 N447 1.427 . S
C440 H431 0.930 . S
C440 C438 1.378 . S
C440 C441 1.367 . S
C441 C440 1.367 . S
C441 C443 1.433 . S
C442 C438 1.350 . S
C442 C439 1.463 . S
C442 N446 1.427 . S
C443 H433 0.929 . S
C443 C441 1.433 . S
C443 N446 1.384 . S
C444 H435 0.929 . S
C444 C436 1.378 . S
C444 C439 1.350 . S
C445 H432 0.929 . S
C445 C437 1.433 . S
C445 N447 1.384 . S
N446 C442 1.427 . S
N446 C443 1.384 . S
N447 C439 1.427 . S
N447 C445 1.384 . S
H448 C454 0.930 . S
H449 C458 0.930 . S
H450 C463 0.929 . S
H451 C461 0.929 . S
H452 C456 0.929 . S
H453 C462 0.929 . S
C454 H448 0.930 . S
C454 C455 1.369 . S
C454 C462 1.378 . S
C455 C454 1.369 . S
C455 C463 1.431 1_556 S
C456 H452 0.929 . S
C456 C458 1.378 . S
C456 C460 1.350 . S
C457 C460 1.462 1_556 S
C457 C462 1.364 . S
C457 N465 1.413 1_556 S
C458 H449 0.930 . S
C458 C456 1.378 . S
C458 C459 1.367 . S
C459 C458 1.367 . S
C459 C461 1.433 1_554 S
C460 C456 1.350 . S
C460 C457 1.462 1_554 S
C460 N464 1.427 1_554 S
C461 H451 0.929 . S
C461 C459 1.433 1_556 S
C461 N464 1.384 . S
C462 H453 0.929 . S
C462 C454 1.378 . S
C462 C457 1.364 . S
C463 H450 0.929 . S
C463 C455 1.431 1_554 S
C463 N465 1.384 . S
N464 C460 1.427 1_556 S
N464 C461 1.384 . S
N465 C457 1.413 1_554 S
N465 C463 1.384 . S
H466 C472 0.930 . S
H467 C476 0.930 . S
H468 C481 0.929 . S
H469 C479 0.929 . S
H470 C474 0.929 . S
H471 C480 0.929 . S
C472 H466 0.930 . S
C472 C473 1.367 . S
C472 C480 1.378 . S
C473 C472 1.367 . S
C473 C481 1.433 . S
C474 H470 0.929 . S
C474 C476 1.378 . S
C474 C478 1.350 . S
C475 C478 1.463 . S
C475 C480 1.350 . S
C475 N483 1.427 . S
C476 H467 0.930 . S
C476 C474 1.378 . S
C476 C477 1.367 . S
C477 C476 1.367 . S
C477 C479 1.433 . S
C478 C474 1.350 . S
C478 C475 1.463 . S
C478 N482 1.427 . S
C479 H469 0.929 . S
C479 C477 1.433 . S
C479 N482 1.384 . S
C480 H471 0.929 . S
C480 C472 1.378 . S
C480 C475 1.350 . S
C481 H468 0.929 . S
C481 C473 1.433 . S
C481 N483 1.384 . S
N482 C478 1.427 . S
N482 C479 1.384 . S
N483 C475 1.427 . S
N483 C481 1.384 . S
H484 C490 0.930 . S
H485 C494 0.930 . S
H486 C499 0.929 . S
H487 C497 0.929 . S
H488 C492 0.929 . S
H489 C498 0.929 . S
C490 H484 0.930 . S
C490 C491 1.365 1_556 S
C490 C498 1.378 . S
C491 C490 1.365 1_554 S
C491 C499 1.435 . S
C492 H488 0.929 . S
C492 C494 1.378 . S
C492 C496 1.350 . S
C493 C496 1.462 1_556 S
C493 C498 1.353 . S
C493 N501 1.424 1_556 S
C494 H485 0.930 . S
C494 C492 1.378 . S
C494 C495 1.367 . S
C495 C494 1.367 . S
C495 C497 1.433 1_554 S
C496 C492 1.350 . S
C496 C493 1.462 1_554 S
C496 N500 1.427 1_554 S
C497 H487 0.929 . S
C497 C495 1.433 1_556 S
C497 N500 1.384 . S
C498 H489 0.929 . S
C498 C490 1.378 . S
C498 C493 1.353 . S
C499 H486 0.929 . S
C499 C491 1.435 . S
C499 N501 1.384 . S
N500 C496 1.427 1_556 S
N500 C497 1.384 . S
N501 C493 1.424 1_554 S
N501 C499 1.384 . S
H502 C508 0.930 . S
H503 C512 0.930 . S
H504 C517 0.929 . S
H505 C515 0.929 . S
H506 C510 0.929 . S
H507 C516 0.929 . S
C508 H502 0.930 . S
C508 C509 1.367 . S
C508 C516 1.378 . S
C509 C508 1.367 . S
C509 C517 1.433 . S
C510 H506 0.929 . S
C510 C512 1.378 . S
C510 C514 1.350 . S
C511 C514 1.463 . S
C511 C516 1.350 . S
C511 N519 1.427 . S
C512 H503 0.930 . S
C512 C510 1.378 . S
C512 C513 1.367 . S
C513 C512 1.367 . S
C513 C515 1.433 . S
C514 C510 1.350 . S
C514 C511 1.463 . S
C514 N518 1.427 . S
C515 H505 0.929 . S
C515 C513 1.433 . S
C515 N518 1.384 . S
C516 H507 0.929 . S
C516 C508 1.378 . S
C516 C511 1.350 . S
C517 H504 0.929 . S
C517 C509 1.433 . S
C517 N519 1.384 . S
N518 C514 1.427 . S
N518 C515 1.384 . S
N519 C511 1.427 . S
N519 C517 1.384 . S
H520 C526 0.930 . S
H521 C530 0.930 . S
H522 C535 0.929 . S
H523 C533 0.929 . S
H524 C528 0.929 . S
H525 C534 0.929 . S
C526 H520 0.930 . S
C526 C527 1.367 . S
C526 C534 1.378 . S
C527 C526 1.367 . S
C527 C535 1.433 . S
C528 H524 0.929 . S
C528 C530 1.378 . S
C528 C532 1.350 . S
C529 C532 1.463 . S
C529 C534 1.350 . S
C529 N537 1.427 . S
C530 H521 0.930 . S
C530 C528 1.378 . S
C530 C531 1.367 . S
C531 C530 1.367 . S
C531 C533 1.433 . S
C532 C528 1.350 . S
C532 C529 1.463 . S
C532 N536 1.427 . S
C533 H523 0.929 . S
C533 C531 1.433 . S
C533 N536 1.384 . S
C534 H525 0.929 . S
C534 C526 1.378 . S
C534 C529 1.350 . S
C535 H522 0.929 . S
C535 C527 1.433 . S
C535 N537 1.384 . S
N536 C532 1.427 . S
N536 C533 1.384 . S
N537 C529 1.427 . S
N537 C535 1.384 . S
H538 C544 0.930 . S
H539 C548 0.930 . S
H540 C553 0.929 . S
H541 C551 0.929 . S
H542 C546 0.929 . S
H543 C552 0.929 . S
C544 H538 0.930 . S
C544 C545 1.373 . S
C544 C552 1.378 . S
C545 C544 1.373 . S
C545 C553 1.427 1_556 S
C546 H542 0.929 . S
C546 C548 1.378 . S
C546 C550 1.350 . S
C547 C550 1.462 1_556 S
C547 C552 1.359 . S
C547 N555 1.418 1_556 S
C548 H539 0.930 . S
C548 C546 1.378 . S
C548 C549 1.374 . S
C549 C548 1.374 . S
C549 C551 1.426 1_554 S
C550 C546 1.350 . S
C550 C547 1.462 1_554 S
C550 N554 1.427 1_554 S
C551 H541 0.929 . S
C551 C549 1.426 1_556 S
C551 N554 1.384 . S
C552 H543 0.929 . S
C552 C544 1.378 . S
C552 C547 1.359 . S
C553 H540 0.929 . S
C553 C545 1.427 1_554 S
C553 N555 1.384 . S
N554 C550 1.427 1_556 S
N554 C551 1.384 . S
N555 C547 1.418 1_554 S
N555 C553 1.384 . S
H556 C562 0.930 . S
H557 C566 0.930 . S
H558 C571 0.929 . S
H559 C569 0.929 . S
H560 C564 0.929 . S
H561 C570 0.929 . S
C562 H556 0.930 . S
C562 C563 1.367 . S
C562 C570 1.378 . S
C563 C562 1.367 . S
C563 C571 1.433 . S
C564 H560 0.929 . S
C564 C566 1.378 . S
C564 C568 1.350 . S
C565 C568 1.463 . S
C565 C570 1.350 . S
C565 N573 1.427 . S
C566 H557 0.930 . S
C566 C564 1.378 . S
C566 C567 1.367 . S
C567 C566 1.367 . S
C567 C569 1.433 . S
C568 C564 1.350 . S
C568 C565 1.463 . S
C568 N572 1.427 . S
C569 H559 0.929 . S
C569 C567 1.433 . S
C569 N572 1.384 . S
C570 H561 0.929 . S
C570 C562 1.378 . S
C570 C565 1.350 . S
C571 H558 0.929 . S
C571 C563 1.433 . S
C571 N573 1.384 . S
N572 C568 1.427 . S
N572 C569 1.384 . S
N573 C565 1.427 . S
N573 C571 1.384 . S
H574 C580 0.930 . S
H575 C584 0.930 . S
H576 C589 0.929 . S
H577 C587 0.929 . S
H578 C582 0.929 . S
H579 C588 0.929 . S
C580 H574 0.930 . S
C580 C581 1.367 . S
C580 C588 1.378 . S
C581 C580 1.367 . S
C581 C589 1.433 1_556 S
C582 H578 0.929 . S
C582 C584 1.378 . S
C582 C586 1.351 . S
C583 C586 1.462 1_556 S
C583 C588 1.350 . S
C583 N591 1.427 1_556 S
C584 H575 0.930 . S
C584 C582 1.378 . S
C584 C585 1.368 . S
C585 C584 1.368 . S
C585 C587 1.432 1_554 S
C586 C582 1.351 . S
C586 C583 1.462 1_554 S
C586 N590 1.427 1_554 S
C587 H577 0.929 . S
C587 C585 1.432 1_556 S
C587 N590 1.384 . S
C588 H579 0.929 . S
C588 C580 1.378 . S
C588 C583 1.350 . S
C589 H576 0.929 . S
C589 C581 1.433 1_554 S
C589 N591 1.384 . S
N590 C586 1.427 1_556 S
N590 C587 1.384 . S
N591 C583 1.427 1_554 S
N591 C589 1.384 . S
C167 C21 1.502 . S
C171 C119 1.511 . S
C185 C40 1.539 . S
C189 C93 1.520 . S
C207 C102 1.460 . S
C203 C54 1.469 . S
C221 C73 1.569 . S
C225 C110 1.552 . S
C243 C138 1.461 . S
C239 C74 1.469 . S
C261 C146 1.515 . S
C257 C10 1.537 . S
C279 C155 1.510 . S
C275 C37 1.503 . S
C297 C129 1.558 . S
C293 C65 1.569 . S
C311 C52 1.468 . S
C315 C101 1.463 . S
C329 C87 1.564 . S
C333 C111 1.552 . S
C347 C15 1.503 . S
C351 C120 1.518 . S
C369 C92 1.512 . S
C365 C32 1.533 . S
C383 C29 1.509 . S
C387 C156 1.514 . S
C405 C128 1.559 . S
C401 C59 1.562 . S
C423 C137 1.454 . S
C419 C84 1.473 . S
C437 C8 1.535 . S
C441 C147 1.503 . S
C459 C95 1.619 1_554 S
C455 C7 1.640 1_556 S
C477 C104 1.551 . S
C473 C30 1.566 . S
C491 C62 1.654 . S
C495 C113 1.617 . S
C509 C81 1.568 . S
C513 C122 1.571 . S
C531 C131 1.630 . S
C527 C76 1.653 . S
C545 C18 1.564 . S
C549 C140 1.548 . S
C563 C43 1.641 . S
C567 C149 1.611 . S
C581 C51 1.560 . S
C585 C158 1.564 . S
