# Generated by pormake.
# Topology pyr, (3,6)-cn, num edge types: 1
# Building blocks:
#     Node 0, Type 0, BuildingBlock: BETDIP_clean_linker_0, # of connection points: 3
#     Node 1, Type 0, BuildingBlock: BETDIP_clean_linker_0, # of connection points: 3
#     Node 2, Type 0, BuildingBlock: BETDIP_clean_linker_0, # of connection points: 3
#     Node 3, Type 0, BuildingBlock: BETDIP_clean_linker_0, # of connection points: 3
#     Node 4, Type 0, BuildingBlock: BETDIP_clean_linker_0, # of connection points: 3
#     Node 5, Type 0, BuildingBlock: BETDIP_clean_linker_0, # of connection points: 3
#     Node 6, Type 0, BuildingBlock: BETDIP_clean_linker_0, # of connection points: 3
#     Node 7, Type 0, BuildingBlock: BETDIP_clean_linker_0, # of connection points: 3
#     Node 8, Type 1, BuildingBlock: MIFKUJ_clean_sbu_0, # of connection points: 6
#     Node 9, Type 1, BuildingBlock: MIFKUJ_clean_sbu_0, # of connection points: 6
#     Node 10, Type 1, BuildingBlock: MIFKUJ_clean_sbu_0, # of connection points: 6
#     Node 11, Type 1, BuildingBlock: MIFKUJ_clean_sbu_0, # of connection points: 6
#     Edge 12, Type (0, 1), BuildingBlock: ZUJKAS_clean_linker_0, # of connection points: 2
#     Edge 13, Type (0, 1), BuildingBlock: ZUJKAS_clean_linker_0, # of connection points: 2
#     Edge 14, Type (0, 1), BuildingBlock: ZUJKAS_clean_linker_0, # of connection points: 2
#     Edge 15, Type (0, 1), BuildingBlock: ZUJKAS_clean_linker_0, # of connection points: 2
#     Edge 16, Type (0, 1), BuildingBlock: ZUJKAS_clean_linker_0, # of connection points: 2
#     Edge 17, Type (0, 1), BuildingBlock: ZUJKAS_clean_linker_0, # of connection points: 2
#     Edge 18, Type (0, 1), BuildingBlock: ZUJKAS_clean_linker_0, # of connection points: 2
#     Edge 19, Type (0, 1), BuildingBlock: ZUJKAS_clean_linker_0, # of connection points: 2
#     Edge 20, Type (0, 1), BuildingBlock: ZUJKAS_clean_linker_0, # of connection points: 2
#     Edge 21, Type (0, 1), BuildingBlock: ZUJKAS_clean_linker_0, # of connection points: 2
#     Edge 22, Type (0, 1), BuildingBlock: ZUJKAS_clean_linker_0, # of connection points: 2
#     Edge 23, Type (0, 1), BuildingBlock: ZUJKAS_clean_linker_0, # of connection points: 2
#     Edge 24, Type (0, 1), BuildingBlock: ZUJKAS_clean_linker_0, # of connection points: 2
#     Edge 25, Type (0, 1), BuildingBlock: ZUJKAS_clean_linker_0, # of connection points: 2
#     Edge 26, Type (0, 1), BuildingBlock: ZUJKAS_clean_linker_0, # of connection points: 2
#     Edge 27, Type (0, 1), BuildingBlock: ZUJKAS_clean_linker_0, # of connection points: 2
#     Edge 28, Type (0, 1), BuildingBlock: ZUJKAS_clean_linker_0, # of connection points: 2
#     Edge 29, Type (0, 1), BuildingBlock: ZUJKAS_clean_linker_0, # of connection points: 2
#     Edge 30, Type (0, 1), BuildingBlock: ZUJKAS_clean_linker_0, # of connection points: 2
#     Edge 31, Type (0, 1), BuildingBlock: ZUJKAS_clean_linker_0, # of connection points: 2
#     Edge 32, Type (0, 1), BuildingBlock: ZUJKAS_clean_linker_0, # of connection points: 2
#     Edge 33, Type (0, 1), BuildingBlock: ZUJKAS_clean_linker_0, # of connection points: 2
#     Edge 34, Type (0, 1), BuildingBlock: ZUJKAS_clean_linker_0, # of connection points: 2
#     Edge 35, Type (0, 1), BuildingBlock: ZUJKAS_clean_linker_0, # of connection points: 2
# Relax obj value: 0.057
# Max RMSD: 0.191
# Mean RMSD: 0.129
data_MOF--net-pyr--node1-MIFKUJ_clean_sbu_0--node2-BETDIP_clean_linker_0--edge1-ZUJKAS_clean_linker_0
_symmetry_space_group_name_H-M    P1
_symmetry_Int_Tables_number       1
_symmetry_cell_setting            triclinic
loop_
_symmetry_equiv_pos_as_xyz
'x, y, z'
_cell_length_a     50.072942
_cell_length_b     44.10425
_cell_length_c     50.409401
_cell_angle_alpha  89.633181
_cell_angle_beta   84.416043
_cell_angle_gamma 103.11279
loop_
_atom_site_label
_atom_site_type_symbol
_atom_site_fract_x
_atom_site_fract_y
_atom_site_fract_z
_atom_type_partial_charge
H0 H 0.1747 0.2102 0.24669 0.0
H1 H 0.23438 0.21648 0.17887 0.0
H2 H 0.23607 0.15586 0.24579 0.0
H3 H 0.22773 0.2699 0.18089 0.0
C4 C 0.20539 0.26261 0.18216 0.0
C5 C 0.19279 0.20358 0.23711 0.0
C6 C 0.2042 0.18158 0.24945 0.0
C7 C 0.20414 0.21688 0.21219 0.0
C8 C 0.22672 0.20745 0.19887 0.0
C9 C 0.23819 0.18495 0.21058 0.0
C10 C 0.22703 0.17258 0.23616 0.0
N11 N 0.19122 0.23812 0.20018 0.0
H12 H 0.31737 0.87734 0.71766 0.0
H13 H 0.32295 0.81846 0.65046 0.0
H14 H 0.37528 0.81835 0.71286 0.0
H15 H 0.28147 0.82392 0.64528 0.0
C16 C 0.27936 0.84637 0.65271 0.0
C17 C 0.32667 0.8603 0.70722 0.0
C18 C 0.34733 0.84897 0.71841 0.0
C19 C 0.31721 0.84905 0.68301 0.0
C20 C 0.3294 0.82693 0.66942 0.0
C21 C 0.35009 0.81538 0.68027 0.0
C22 C 0.35885 0.82656 0.70473 0.0
N23 N 0.29559 0.86057 0.67294 0.0
H24 H 0.71729 0.40561 0.79437 0.0
H25 H 0.64363 0.33246 0.80103 0.0
H26 H 0.70679 0.33143 0.85268 0.0
H27 H 0.64525 0.34245 0.75691 0.0
C28 C 0.65204 0.36765 0.75527 0.0
C29 C 0.7053 0.38389 0.80363 0.0
C30 C 0.71447 0.37068 0.82543 0.0
C31 C 0.68035 0.36946 0.79393 0.0
C32 C 0.66388 0.34225 0.807 0.0
C33 C 0.67296 0.32847 0.82863 0.0
C34 C 0.69877 0.34242 0.83692 0.0
N35 N 0.67176 0.38363 0.77183 0.0
H36 H 0.78842 0.65641 0.2735 0.0
H37 H 0.86489 0.72517 0.26912 0.0
H38 H 0.80624 0.71823 0.33834 0.0
H39 H 0.85899 0.71871 0.22189 0.0
C40 C 0.85419 0.69342 0.22317 0.0
C41 C 0.80187 0.67565 0.28231 0.0
C42 C 0.79397 0.68593 0.30751 0.0
C43 C 0.82702 0.69005 0.26814 0.0
C44 C 0.84485 0.71481 0.27943 0.0
C45 C 0.83755 0.72477 0.30497 0.0
C46 C 0.81192 0.71057 0.31863 0.0
N47 N 0.83473 0.67719 0.24369 0.0
H48 H 0.76452 0.798 0.85066 0.0
H49 H 0.82406 0.79757 0.78363 0.0
H50 H 0.77203 0.86278 0.78442 0.0
H51 H 0.8158 0.74459 0.79879 0.0
C52 C 0.81844 0.7505 0.81942 0.0
C53 C 0.77399 0.80741 0.8312 0.0
C54 C 0.76534 0.83184 0.81908 0.0
C55 C 0.79468 0.79461 0.81835 0.0
C56 C 0.80713 0.80642 0.79312 0.0
C57 C 0.79905 0.831 0.78074 0.0
C58 C 0.77808 0.84355 0.7938 0.0
N59 N 0.80409 0.77158 0.83214 0.0
H60 H 0.68908 0.1361 0.3099 0.0
H61 H 0.68904 0.20096 0.3733 0.0
H62 H 0.63053 0.19425 0.31567 0.0
H63 H 0.72579 0.18831 0.38374 0.0
C64 C 0.7293 0.16779 0.37359 0.0
C65 C 0.68071 0.15419 0.31972 0.0
C66 C 0.65849 0.1637 0.30981 0.0
C67 C 0.69199 0.16729 0.3426 0.0
C68 C 0.68076 0.19043 0.35572 0.0
C69 C 0.6586 0.20044 0.34609 0.0
C70 C 0.64767 0.18686 0.32315 0.0
N71 N 0.7141 0.15599 0.35192 0.0
H72 H 0.30569 0.6192 0.22856 0.0
H73 H 0.37407 0.69828 0.23002 0.0
H74 H 0.31725 0.69463 0.17103 0.0
H75 H 0.37375 0.68253 0.27193 0.0
C76 C 0.36671 0.65736 0.27257 0.0
C77 C 0.31712 0.64178 0.2205 0.0
C78 C 0.30864 0.6551 0.19835 0.0
C79 C 0.34041 0.65723 0.23233 0.0
C80 C 0.35568 0.6863 0.22156 0.0
C81 C 0.34728 0.70008 0.19954 0.0
C82 C 0.32378 0.68425 0.1881 0.0
N83 N 0.3482 0.64237 0.25451 0.0
H84 H 0.14362 0.27009 0.74948 0.0
H85 H 0.21974 0.33732 0.75427 0.0
H86 H 0.2078 0.28215 0.68451 0.0
H87 H 0.20461 0.32265 0.80243 0.0
C88 C 0.1849 0.32797 0.79966 0.0
C89 C 0.16418 0.28125 0.74075 0.0
C90 C 0.17412 0.27264 0.71563 0.0
C91 C 0.18069 0.30406 0.75492 0.0
C92 C 0.20721 0.31903 0.74363 0.0
C93 C 0.21719 0.31128 0.71815 0.0
C94 C 0.20061 0.28776 0.70446 0.0
N95 N 0.16918 0.31345 0.7794 0.0
Zn96 Zn 0.02525 0.98619 0.52206 0.0
Zn97 Zn 0.97758 0.01261 0.50086 0.0
C98 C 0.05433 0.04387 0.53958 0.0
O99 O 0.07348 0.03702 0.52249 0.0
C100 C 0.95044 0.95435 0.48147 0.0
O101 O 0.93072 0.9586 0.49926 0.0
O102 O 0.05515 0.9651 0.53264 0.0
O103 O 0.98837 0.95943 0.53602 0.0
O104 O 0.96806 -0.0011 0.53955 0.0
C105 C 0.05986 0.96548 0.55705 0.0
O106 O 0.0444 0.97791 0.57434 0.0
O107 O 0.03062 0.02556 0.5425 0.0
C108 C 0.94212 0.03307 0.46596 0.0
O109 O 0.95531 0.018 0.44875 0.0
O110 O 0.94847 0.03489 0.48988 0.0
O111 O 0.01509 0.03953 0.48904 0.0
O112 O 0.03302 -0.00143 0.48295 0.0
O113 O 0.97335 0.97415 0.47918 0.0
C114 C 0.97002 0.97208 0.54743 0.0
C115 C 0.0325 0.02639 0.47656 0.0
Zn116 Zn 0.51609 0.98618 0.98652 0.0
Zn117 Zn 0.48894 0.03596 0.03955 0.0
C118 C 0.47827 0.94423 0.95564 0.0
O119 O 0.48902 0.92323 0.96654 0.0
C120 C 0.53566 0.0597 0.0702 0.0
O121 O 0.5444 0.07814 0.04906 0.0
O122 O 0.54711 0.96714 0.97176 0.0
O123 O 0.53013 0.03231 0.98016 0.0
O124 O 0.50965 0.06144 0.00759 0.0
C125 C 0.55446 0.97003 0.94684 0.0
O126 O 0.5418 0.98553 0.93182 0.0
O127 O 0.48553 0.97245 0.96235 0.0
C128 C 0.44406 0.04682 0.07427 0.0
O129 O 0.44803 0.02186 0.0862 0.0
O130 O 0.4591 0.05739 0.05297 0.0
O131 O 0.47016 0.99117 0.03401 0.0
O132 O 0.50446 0.96834 0.024 0.0
O133 O 0.51335 0.03894 0.0701 0.0
C134 C 0.52592 0.05855 0.98727 0.0
C135 C 0.48273 0.97005 0.03861 0.0
Zn136 Zn 0.51144 0.47869 0.49736 0.0
Zn137 Zn 0.49549 0.53302 0.53263 0.0
C138 C 0.54689 0.52056 0.45925 0.0
O139 O 0.52692 0.50952 0.44443 0.0
C140 C 0.45938 0.4995 0.57363 0.0
O141 O 0.47583 0.52046 0.58659 0.0
O142 O 0.51853 0.43976 0.47914 0.0
O143 O 0.51285 0.47289 0.53691 0.0
O144 O 0.52954 0.52241 0.54462 0.0
C145 C 0.53684 0.42738 0.48765 0.0
O146 O 0.5487 0.43887 0.50867 0.0
O147 O 0.54482 0.51136 0.48345 0.0
C148 C 0.46382 0.57569 0.55032 0.0
O149 O 0.44569 0.55419 0.53962 0.0
O150 O 0.48864 0.57283 0.54957 0.0
O151 O 0.49324 0.53921 0.49365 0.0
O152 O 0.4777 0.49006 0.48434 0.0
O153 O 0.46373 0.49899 0.54838 0.0
C154 C 0.52773 0.49371 0.54993 0.0
C155 C 0.47867 0.5188 0.48015 0.0
Zn156 Zn 0.9942 0.53207 0.98004 0.0
Zn157 Zn 0.03463 0.49825 0.03553 0.0
C158 C 0.96144 0.49444 0.94731 0.0
O159 O 0.98156 0.51161 0.93131 0.0
C160 C 0.06165 0.53147 0.07663 0.0
O161 O 0.04195 0.51144 0.09086 0.0
O162 O 0.98483 0.57072 0.96555 0.0
O163 O 0.00173 0.53576 0.01859 0.0
O164 O 0.9967 0.50127 0.05062 0.0
C165 C 0.95921 0.57025 0.96837 0.0
O166 O 0.94229 0.54746 0.98255 0.0
O167 O 0.96237 0.49689 0.97238 0.0
C168 C 0.07026 0.46068 0.0455 0.0
O169 O 0.08704 0.48633 0.03533 0.0
O170 O 0.04439 0.45841 0.04656 0.0
O171 O 0.03975 0.50483 0.99562 0.0
O172 O 0.02754 0.52283 0.95913 0.0
O173 O 0.06179 0.53213 0.05143 0.0
C174 C 0.98673 0.52058 0.03822 0.0
C175 C 0.04313 0.50887 0.97045 0.0
H176 H 0.18567 0.21014 0.29319 0.0
H177 H 0.16005 0.1853 0.33449 0.0
H178 H 0.16736 0.09534 0.30578 0.0
H179 H 0.19287 0.11996 0.26441 0.0
H180 H 0.11 0.14117 0.33634 0.0
H181 H 0.18856 0.09319 0.38225 0.0
H182 H 0.1975 0.12305 0.35614 0.0
H183 H 0.18498 0.08301 0.34813 0.0
C184 C 0.182 0.18509 0.29579 0.0
C185 C 0.19123 0.16698 0.27555 0.0
C186 C 0.16749 0.17097 0.3194 0.0
C187 C 0.16209 0.13854 0.32328 0.0
C188 C 0.17185 0.12047 0.30342 0.0
H189 H 0.06294 0.00235 0.43774 0.0
H190 H 0.09464 0.03074 0.40117 0.0
C191 C 0.1864 0.13457 0.27979 0.0
C192 C 0.14426 0.12341 0.34705 0.0
H193 H 0.142 0.07538 0.40097 0.0
C194 C 0.11703 0.12701 0.35064 0.0
C195 C 0.1535 0.10481 0.36549 0.0
C196 C 0.1828 0.10094 0.36302 0.0
C197 C 0.09848 0.1118 0.3718 0.0
C198 C 0.10766 0.09307 0.39025 0.0
C199 C 0.13501 0.08975 0.38681 0.0
C200 C 0.089 0.07618 0.4129 0.0
C201 C 0.069 0.1151 0.3736 0.0
C202 C 0.07566 0.09235 0.43188 0.0
C203 C 0.05725 0.07616 0.45255 0.0
C204 C 0.05228 0.04354 0.45493 0.0
C205 C 0.06632 0.02748 0.4364 0.0
C206 C 0.08446 0.04366 0.41553 0.0
H207 H 0.06358 0.12279 0.35419 0.0
H208 H 0.0544 0.09279 0.3801 0.0
H209 H 0.06618 0.13292 0.3884 0.0
H210 H 0.07945 0.11752 0.43068 0.0
H211 H 0.04706 0.08922 0.46677 0.0
H212 H 0.36 0.90911 0.73558 0.0
H213 H 0.37995 0.92739 0.77685 0.0
H214 H 0.37653 0.83253 0.80102 0.0
H215 H 0.35672 0.81417 0.76002 0.0
H216 H 0.36137 0.91341 0.83152 0.0
H217 H 0.45801 0.87513 0.80268 0.0
H218 H 0.43358 0.8779 0.77921 0.0
H219 H 0.42747 0.84474 0.80179 0.0
C220 C 0.36322 0.89216 0.74985 0.0
C221 C 0.35714 0.86022 0.74435 0.0
C222 C 0.3747 0.90264 0.77336 0.0
C223 C 0.38029 0.88137 0.79173 0.0
C224 C 0.37307 0.84942 0.78682 0.0
H225 H 0.45723 0.88598 0.93808 0.0
H226 H 0.43199 0.87218 0.89913 0.0
C227 C 0.36173 0.83897 0.76337 0.0
C228 C 0.39417 0.89238 0.81582 0.0
H229 H 0.45106 0.89034 0.84747 0.0
C230 C 0.38107 0.90859 0.83498 0.0
C231 C 0.41993 0.88618 0.82022 0.0
C232 C 0.43574 0.8703 0.79979 0.0
C233 C 0.39259 0.91778 0.85887 0.0
C234 C 0.41811 0.911 0.86349 0.0
C235 C 0.4314 0.8953 0.84406 0.0
C236 C 0.43144 0.91959 0.88838 0.0
C237 C 0.37694 0.93379 0.87927 0.0
C238 C 0.43939 0.95086 0.89549 0.0
C239 C 0.45371 0.95883 0.91792 0.0
C240 C 0.46065 0.93571 0.93352 0.0
C241 C 0.45224 0.90439 0.92657 0.0
C242 C 0.43783 0.89645 0.90425 0.0
H243 H 0.35483 0.92993 0.87592 0.0
H244 H 0.3784 0.92547 0.8998 0.0
H245 H 0.38594 0.95924 0.87781 0.0
H246 H 0.43526 0.96921 0.88326 0.0
H247 H 0.46008 0.9832 0.92252 0.0
H248 H 0.66474 0.43059 0.74294 0.0
H249 H 0.64626 0.45716 0.70847 0.0
H250 H 0.59705 0.36911 0.6868 0.0
H251 H 0.61533 0.34237 0.72119 0.0
H252 H 0.63426 0.41424 0.64307 0.0
H253 H 0.56063 0.4634 0.71045 0.0
H254 H 0.59482 0.46502 0.7197 0.0
H255 H 0.57076 0.42817 0.71937 0.0
C256 C 0.64995 0.41691 0.73086 0.0
C257 C 0.64142 0.38439 0.73467 0.0
C258 C 0.63941 0.43212 0.71126 0.0
C259 C 0.62026 0.41502 0.6953 0.0
C260 C 0.61182 0.38262 0.69901 0.0
H261 H 0.52937 0.43464 0.56479 0.0
H262 H 0.5539 0.4186 0.59988 0.0
C263 C 0.62226 0.36743 0.7186 0.0
C264 C 0.60918 0.43066 0.67434 0.0
H265 H 0.56078 0.47182 0.66427 0.0
C266 C 0.61838 0.42708 0.64764 0.0
C267 C 0.5886 0.44745 0.68054 0.0
C268 C 0.57791 0.45133 0.70903 0.0
C269 C 0.60711 0.43946 0.62682 0.0
C270 C 0.58576 0.45524 0.63296 0.0
C271 C 0.57716 0.45968 0.6597 0.0
C272 C 0.57092 0.46545 0.61187 0.0
C273 C 0.61798 0.43538 0.5984 0.0
C274 C 0.57188 0.49712 0.60743 0.0
C275 C 0.55786 0.50647 0.58729 0.0
C276 C 0.54245 0.4842 0.57148 0.0
C277 C 0.5412 0.45245 0.57641 0.0
C278 C 0.55529 0.4432 0.5964 0.0
H279 H 0.63883 0.43037 0.59719 0.0
H280 H 0.60391 0.41548 0.58992 0.0
H281 H 0.61896 0.45652 0.58592 0.0
H282 H 0.5837 0.51459 0.61937 0.0
H283 H 0.55911 0.53108 0.58411 0.0
H284 H 0.86101 0.63412 0.22656 0.0
H285 H 0.87937 0.60455 0.19129 0.0
H286 H 0.88931 0.68248 0.13607 0.0
H287 H 0.8722 0.71277 0.17189 0.0
H288 H 0.86094 0.58534 0.14539 0.0
H289 H 0.9642 0.66506 0.12483 0.0
H290 H 0.94062 0.66933 0.15318 0.0
H291 H 0.93632 0.68336 0.12061 0.0
C292 C 0.86721 0.64497 0.20691 0.0
C293 C 0.86528 0.67568 0.20182 0.0
C294 C 0.87766 0.62805 0.18677 0.0
C295 C 0.88605 0.6414 0.1611 0.0
C296 C 0.88366 0.67197 0.15589 0.0
H297 H 0.96872 0.57163 0.0237 0.0
H298 H 0.93882 0.59846 0.05072 0.0
C299 C 0.87376 0.68918 0.17624 0.0
C300 C 0.89711 0.62301 0.13998 0.0
H301 H 0.95374 0.62243 0.09672 0.0
C302 C 0.88121 0.59348 0.13467 0.0
C303 C 0.92356 0.63365 0.12601 0.0
C304 C 0.94228 0.66444 0.13159 0.0
C305 C 0.89107 0.57424 0.11589 0.0
C306 C 0.91762 0.58476 0.10218 0.0
C307 C 0.93327 0.61451 0.1071 0.0
C308 C 0.93053 0.56495 0.08373 0.0
C309 C 0.87292 0.54292 0.11092 0.0
C310 C 0.93495 0.53651 0.09286 0.0
C311 C 0.95147 0.52061 0.07706 0.0
C312 C 0.96436 0.53323 0.0521 0.0
C313 C 0.9587 0.56087 0.04251 0.0
C314 C 0.94184 0.57647 0.0581 0.0
H315 H 0.85077 0.54269 0.11595 0.0
H316 H 0.8761 0.53635 0.08982 0.0
H317 H 0.87801 0.52498 0.12383 0.0
H318 H 0.92701 0.52751 0.1128 0.0
H319 H 0.95553 0.49948 0.08515 0.0
H320 H 0.28202 0.21765 0.17691 0.0
H321 H 0.3169 0.19695 0.15014 0.0
H322 H 0.28105 0.10522 0.18449 0.0
H323 H 0.24519 0.12512 0.20988 0.0
H324 H 0.35592 0.16889 0.16403 0.0
H325 H 0.28417 0.08706 0.10664 0.0
H326 H 0.27337 0.11666 0.12675 0.0
H327 H 0.27549 0.08024 0.14184 0.0
C328 C 0.2813 0.19298 0.1785 0.0
C329 C 0.2606 0.17306 0.19549 0.0
C330 C 0.30139 0.18124 0.16331 0.0
C331 C 0.30121 0.14941 0.16485 0.0
C332 C 0.28116 0.12971 0.1824 0.0
H333 H 0.40595 0.02756 0.11703 0.0
H334 H 0.37191 0.05475 0.13718 0.0
C335 C 0.26091 0.14129 0.19732 0.0
C336 C 0.32226 0.13672 0.14861 0.0
H337 H 0.32989 0.07838 0.10631 0.0
C338 C 0.35025 0.1494 0.15112 0.0
C339 C 0.31485 0.11147 0.13152 0.0
C340 C 0.28534 0.09831 0.12629 0.0
C341 C 0.37093 0.13652 0.13798 0.0
C342 C 0.36335 0.11036 0.12204 0.0
C343 C 0.33551 0.09829 0.11882 0.0
C344 C 0.38396 0.09425 0.10951 0.0
C345 C 0.40071 0.1502 0.14185 0.0
C346 C 0.40172 0.10744 0.08712 0.0
C347 C 0.4211 0.09189 0.07543 0.0
C348 C 0.42305 0.06296 0.08604 0.0
C349 C 0.40503 0.04981 0.1084 0.0
C350 C 0.38557 0.06527 0.11994 0.0
H351 H 0.40299 0.1687 0.15687 0.0
H352 H 0.41063 0.13165 0.14826 0.0
H353 H 0.41191 0.1604 0.12261 0.0
H354 H 0.40054 0.12971 0.07871 0.0
H355 H 0.43469 0.10265 0.05823 0.0
H356 H 0.2636 0.90048 0.66761 0.0
H357 H 0.22663 0.92121 0.65089 0.0
H358 H 0.20986 0.8443 0.59793 0.0
H359 H 0.24637 0.8233 0.61481 0.0
H360 H 0.21939 0.93937 0.59917 0.0
H361 H 0.13429 0.84057 0.63774 0.0
H362 H 0.16842 0.84674 0.64847 0.0
H363 H 0.1613 0.8289 0.61715 0.0
C364 C 0.25199 0.88798 0.65245 0.0
C365 C 0.25769 0.8601 0.64265 0.0
C366 C 0.23091 0.89987 0.64288 0.0
C367 C 0.21514 0.88401 0.62348 0.0
C368 C 0.22129 0.85657 0.61331 0.0
H369 H 0.09415 0.93428 0.52808 0.0
H370 H 0.1326 0.91518 0.54355 0.0
C371 C 0.24226 0.84469 0.62287 0.0
C372 C 0.19229 0.89607 0.61374 0.0
H373 H 0.123 0.87678 0.60803 0.0
C374 C 0.19832 0.92572 0.60118 0.0
C375 C 0.16473 0.87832 0.61649 0.0
C376 C 0.15667 0.84699 0.63091 0.0
C377 C 0.17759 0.93777 0.5909 0.0
C378 C 0.15024 0.91976 0.59325 0.0
C379 C 0.14411 0.89033 0.60601 0.0
C380 C 0.12744 0.93171 0.58359 0.0
C381 C 0.18482 0.96974 0.57767 0.0
C382 C 0.11185 0.94712 0.60105 0.0
C383 C 0.08989 0.95791 0.59237 0.0
C384 C 0.08306 0.9535 0.56599 0.0
C385 C 0.09883 0.93806 0.54849 0.0
C386 C 0.12081 0.92718 0.55726 0.0
H387 H 0.20714 0.98079 0.57718 0.0
H388 H 0.17903 0.96813 0.55693 0.0
H389 H 0.17284 0.98495 0.58852 0.0
H390 H 0.11667 0.95078 0.62144 0.0
H391 H 0.07835 0.96985 0.60637 0.0
H392 H 0.76532 0.39844 0.79978 0.0
H393 H 0.80783 0.41979 0.82062 0.0
H394 H 0.763 0.39936 0.8985 0.0
H395 H 0.72064 0.37866 0.87804 0.0
H396 H 0.81716 0.46915 0.86387 0.0
H397 H 0.82807 0.35108 0.89348 0.0
H398 H 0.80847 0.35759 0.86659 0.0
H399 H 0.79447 0.35912 0.90056 0.0
C400 C 0.76452 0.39896 0.82132 0.0
C401 C 0.73979 0.38641 0.8373 0.0
C402 C 0.78875 0.411 0.83316 0.0
C403 C 0.78848 0.41056 0.86104 0.0
C404 C 0.76363 0.39937 0.87695 0.0
H405 H 0.91094 0.46651 0.97356 0.0
H406 H 0.86833 0.4448 0.95309 0.0
C407 C 0.73951 0.38748 0.86521 0.0
C408 C 0.81418 0.42091 0.87381 0.0
H409 H 0.8588 0.39411 0.90995 0.0
C410 C 0.8264 0.45281 0.87381 0.0
C411 C 0.82591 0.39942 0.88692 0.0
C412 C 0.81376 0.36483 0.88685 0.0
C413 C 0.85004 0.46385 0.88692 0.0
C414 C 0.86179 0.44234 0.89997 0.0
C415 C 0.84956 0.41045 0.90001 0.0
C416 C 0.8876 0.45265 0.91257 0.0
C417 C 0.86219 0.49843 0.88704 0.0
C418 C 0.91245 0.46314 0.8965 0.0
C419 C 0.93668 0.47523 0.90802 0.0
C420 C 0.9365 0.47714 0.93589 0.0
C421 C 0.91174 0.46527 0.95206 0.0
C422 C 0.88742 0.45301 0.94043 0.0
H423 H 0.84797 0.5122 0.88023 0.0
H424 H 0.86728 0.50566 0.90736 0.0
H425 H 0.88161 0.50413 0.87351 0.0
H426 H 0.91297 0.46267 0.87497 0.0
H427 H 0.9554 0.48399 0.89498 0.0
H428 H 0.77147 0.62338 0.31332 0.0
H429 H 0.7288 0.59753 0.34007 0.0
H430 H 0.71478 0.68682 0.36377 0.0
H431 H 0.75707 0.71299 0.33658 0.0
H432 H 0.71241 0.63558 0.4068 0.0
H433 H 0.64674 0.60283 0.32378 0.0
H434 H 0.68138 0.59705 0.31945 0.0
H435 H 0.67593 0.63581 0.32124 0.0
C436 C 0.75908 0.63754 0.32387 0.0
C437 C 0.76759 0.67023 0.32281 0.0
C438 C 0.73486 0.62274 0.33923 0.0
C439 C 0.71881 0.64037 0.35377 0.0
C440 C 0.72707 0.67293 0.3527 0.0
H441 H 0.55149 0.56938 0.42493 0.0
H442 H 0.59393 0.60118 0.40165 0.0
C443 C 0.75122 0.68777 0.33725 0.0
C444 C 0.69355 0.62473 0.37043 0.0
H445 H 0.62778 0.58352 0.3668 0.0
C446 C 0.69378 0.62427 0.3982 0.0
C447 C 0.66941 0.61043 0.35897 0.0
C448 C 0.66805 0.61156 0.32923 0.0
C449 C 0.67037 0.60946 0.41499 0.0
C450 C 0.64633 0.59422 0.40351 0.0
C451 C 0.64616 0.59511 0.37564 0.0
C452 C 0.62107 0.57706 0.41978 0.0
C453 C 0.67161 0.61085 0.44476 0.0
C454 C 0.62219 0.55324 0.43801 0.0
C455 C 0.59804 0.53583 0.45193 0.0
C456 C 0.57238 0.54122 0.44708 0.0
C457 C 0.57116 0.56494 0.42893 0.0
C458 C 0.59534 0.58298 0.41563 0.0
H459 H 0.68734 0.63138 0.45012 0.0
H460 H 0.65138 0.61191 0.45541 0.0
H461 H 0.67758 0.58971 0.45192 0.0
H462 H 0.6416 0.54743 0.44089 0.0
H463 H 0.59931 0.51718 0.46551 0.0
H464 H 0.15233 0.24426 0.16964 0.0
H465 H 0.12712 0.27425 0.14453 0.0
H466 H 0.19765 0.35211 0.13808 0.0
H467 H 0.22336 0.3216 0.1621 0.0
H468 H 0.11187 0.32736 0.15487 0.0
H469 H 0.18262 0.34401 0.06179 0.0
H470 H 0.18505 0.31735 0.08826 0.0
H471 H 0.20004 0.35838 0.09015 0.0
C472 C 0.16246 0.26774 0.16275 0.0
C473 C 0.18982 0.28068 0.16758 0.0
C474 C 0.14805 0.28483 0.14843 0.0
C475 C 0.16069 0.31517 0.13893 0.0
C476 C 0.18779 0.32838 0.14445 0.0
H477 H 0.12135 0.46836 0.06149 0.0
H478 H 0.14055 0.4305 0.08397 0.0
C479 C 0.20238 0.31108 0.15831 0.0
C480 C 0.1454 0.33323 0.12369 0.0
H481 H 0.14991 0.37598 0.06615 0.0
C482 C 0.12 0.33775 0.13534 0.0
C483 C 0.15594 0.34648 0.09811 0.0
C484 C 0.18227 0.34104 0.08374 0.0
C485 C 0.10551 0.35646 0.12266 0.0
C486 C 0.11661 0.37063 0.09752 0.0
C487 C 0.14152 0.36522 0.08551 0.0
C488 C 0.10407 0.39312 0.08412 0.0
C489 C 0.07907 0.36188 0.13678 0.0
C490 C 0.07714 0.38463 0.07659 0.0
C491 C 0.0659 0.4065 0.06394 0.0
C492 C 0.08169 0.43688 0.05818 0.0
C493 C 0.10874 0.44504 0.06539 0.0
C494 C 0.11975 0.42344 0.07831 0.0
H495 H 0.07669 0.35509 0.15829 0.0
H496 H 0.07818 0.38672 0.1349 0.0
H497 H 0.06132 0.34764 0.12756 0.0
H498 H 0.06491 0.36113 0.08034 0.0
H499 H 0.04503 0.3996 0.05847 0.0
H500 H 0.6695 0.31394 0.88204 0.0
H501 H 0.64374 0.26709 0.90588 0.0
H502 H 0.60718 0.23394 0.83436 0.0
H503 H 0.63569 0.27932 0.80932 0.0
H504 H 0.59372 0.24622 0.91855 0.0
H505 H 0.62837 0.15746 0.85517 0.0
H506 H 0.64375 0.19842 0.85036 0.0
H507 H 0.61168 0.18165 0.83708 0.0
C508 C 0.65676 0.29635 0.87095 0.0
C509 C 0.65542 0.30034 0.84341 0.0
C510 C 0.64157 0.26964 0.88485 0.0
C511 C 0.62383 0.24647 0.87192 0.0
C512 C 0.62139 0.25087 0.84469 0.0
H513 H 0.50449 0.10757 0.9747 0.0
H514 H 0.52636 0.15242 0.94525 0.0
C515 C 0.63735 0.27726 0.83047 0.0
C516 C 0.60765 0.21837 0.88749 0.0
H517 H 0.59232 0.13884 0.88941 0.0
C518 C 0.59359 0.22274 0.91218 0.0
C519 C 0.6076 0.18764 0.87942 0.0
C520 C 0.62389 0.18097 0.85421 0.0
C521 C 0.58025 0.19755 0.92931 0.0
C522 C 0.57932 0.1668 0.92084 0.0
C523 C 0.59283 0.16235 0.89588 0.0
C524 C 0.56541 0.13897 0.93791 0.0
C525 C 0.56853 0.20445 0.95677 0.0
C526 C 0.57947 0.11555 0.94259 0.0
C527 C 0.56658 0.08932 0.95857 0.0
C528 C 0.53962 0.08636 0.97067 0.0
C529 C 0.52551 0.10967 0.96601 0.0
C530 C 0.53808 0.1354 0.94933 0.0
H531 H 0.57891 0.22792 0.96309 0.0
H532 H 0.54634 0.20413 0.95648 0.0
H533 H 0.57068 0.18701 0.97192 0.0
H534 H 0.60052 0.11762 0.934 0.0
H535 H 0.57783 0.07155 0.9618 0.0
H536 H 0.86719 0.78167 0.28477 0.0
H537 H 0.89599 0.82283 0.309 0.0
H538 H 0.87965 0.76294 0.3795 0.0
H539 H 0.85154 0.72187 0.35544 0.0
H540 H 0.87633 0.84994 0.35396 0.0
H541 H 0.96241 0.79813 0.37699 0.0
H542 H 0.94055 0.78371 0.35119 0.0
H543 H 0.92958 0.77191 0.38552 0.0
C544 C 0.87029 0.77719 0.30527 0.0
C545 C 0.857 0.74875 0.31834 0.0
C546 C 0.88665 0.80064 0.31906 0.0
C547 C 0.89025 0.79572 0.34591 0.0
C548 C 0.87765 0.76699 0.35864 0.0
H549 H 0.90336 0.90916 0.47997 0.0
H550 H 0.89205 0.87198 0.44477 0.0
C551 C 0.8613 0.7437 0.34498 0.0
C552 C 0.90452 0.82138 0.36176 0.0
H553 H 0.9524 0.83819 0.40651 0.0
C554 C 0.89334 0.8477 0.36502 0.0
C555 C 0.92688 0.81854 0.37598 0.0
C556 C 0.94074 0.79167 0.37204 0.0
C557 C 0.90276 0.87027 0.38347 0.0
C558 C 0.9236 0.86612 0.3992 0.0
C559 C 0.93606 0.84094 0.39471 0.0
C560 C 0.93153 0.88688 0.42134 0.0
C561 C 0.88986 0.898 0.38652 0.0
C562 C 0.95785 0.9066 0.42023 0.0
C563 C 0.96444 0.92784 0.44036 0.0
C564 C 0.94478 0.9295 0.46193 0.0
C565 C 0.91887 0.90864 0.46353 0.0
C566 C 0.91233 0.88748 0.44341 0.0
H567 H 0.87946 0.90188 0.36873 0.0
H568 H 0.87419 0.89387 0.40409 0.0
H569 H 0.9056 0.91946 0.38982 0.0
H570 H 0.97297 0.90623 0.40339 0.0
H571 H 0.98462 0.94355 0.43859 0.0
H572 H 0.36663 0.81321 0.62689 0.0
H573 H 0.38767 0.77414 0.60424 0.0
H574 H 0.38306 0.72469 0.67923 0.0
H575 H 0.36204 0.76358 0.70198 0.0
H576 H 0.43343 0.73097 0.65016 0.0
H577 H 0.34883 0.68595 0.58741 0.0
H578 H 0.36244 0.72724 0.5837 0.0
H579 H 0.34502 0.71076 0.61517 0.0
C580 C 0.36982 0.79383 0.63851 0.0
C581 C 0.36257 0.79149 0.66625 0.0
C582 C 0.38187 0.77152 0.62553 0.0
C583 C 0.38667 0.74627 0.63998 0.0
C584 C 0.37959 0.74398 0.66767 0.0
H585 H 0.41319 0.57391 0.57544 0.0
H586 H 0.39651 0.61594 0.59771 0.0
C587 C 0.36763 0.76629 0.68066 0.0
C588 C 0.39919 0.72227 0.62637 0.0
H589 H 0.38956 0.66757 0.57851 0.0
C590 C 0.42386 0.71704 0.63449 0.0
C591 C 0.38649 0.70386 0.60619 0.0
C592 C 0.3591 0.70694 0.59773 0.0
C593 C 0.43616 0.69387 0.62306 0.0
C594 C 0.42382 0.67595 0.60237 0.0
C595 C 0.39919 0.68138 0.5942 0.0
C596 C 0.43503 0.65029 0.58982 0.0
C597 C 0.4617 0.68824 0.63394 0.0
C598 C 0.46241 0.65531 0.57804 0.0
C599 C 0.47222 0.63092 0.56578 0.0
C600 C 0.45457 0.60139 0.56439 0.0
C601 C 0.42723 0.5965 0.57603 0.0
C602 C 0.41765 0.62056 0.58875 0.0
H603 H 0.4637 0.69725 0.65436 0.0
H604 H 0.46159 0.66305 0.63456 0.0
H605 H 0.48014 0.70061 0.62092 0.0
H606 H 0.47606 0.67819 0.57788 0.0
H607 H 0.49331 0.63538 0.55671 0.0
H608 H 0.81318 0.80011 0.73662 0.0
H609 H 0.84128 0.82256 0.6956 0.0
H610 H 0.84632 0.91481 0.72561 0.0
H611 H 0.81862 0.89257 0.76681 0.0
H612 H 0.83235 0.86916 0.6579 0.0
H613 H 0.92795 0.90703 0.70819 0.0
H614 H 0.89833 0.87852 0.72297 0.0
H615 H 0.89825 0.91921 0.7234 0.0
C616 C 0.82024 0.82518 0.73442 0.0
C617 C 0.81382 0.8446 0.75495 0.0
C618 C 0.83616 0.83794 0.71099 0.0
C619 C 0.84611 0.87026 0.70782 0.0
C620 C 0.83906 0.88976 0.72788 0.0
H621 H 0.92483 0.98878 0.57259 0.0
H622 H 0.89419 0.9622 0.61063 0.0
C623 C 0.82303 0.87705 0.75126 0.0
C624 C 0.86439 0.8836 0.68377 0.0
H625 H 0.92989 0.92375 0.66309 0.0
C626 C 0.85369 0.88105 0.65897 0.0
C627 C 0.8923 0.89866 0.68529 0.0
C628 C 0.90506 0.90087 0.71133 0.0
C629 C 0.87006 0.89399 0.63565 0.0
C630 C 0.8977 0.90985 0.63733 0.0
C631 C 0.90859 0.91173 0.66201 0.0
C632 C 0.91558 0.92509 0.61371 0.0
C633 C 0.85787 0.89059 0.60934 0.0
C634 C 0.9378 0.91304 0.60307 0.0
C635 C 0.95532 0.92808 0.5813 0.0
C636 C 0.95106 0.95566 0.57002 0.0
C637 C 0.9287 0.96761 0.5808 0.0
C638 C 0.9111 0.95242 0.60244 0.0
H639 H 0.83774 0.87339 0.61073 0.0
H640 H 0.85465 0.91345 0.60277 0.0
H641 H 0.87224 0.88325 0.59383 0.0
H642 H 0.94161 0.89202 0.61167 0.0
H643 H 0.97237 0.91829 0.57353 0.0
H644 H 0.60388 0.14522 0.3019 0.0
H645 H 0.58395 0.12386 0.26173 0.0
H646 H 0.66543 0.12859 0.22279 0.0
H647 H 0.68557 0.15007 0.26295 0.0
H648 H 0.59151 0.15114 0.2117 0.0
H649 H 0.62558 0.03982 0.20833 0.0
H650 H 0.62689 0.06342 0.23752 0.0
H651 H 0.65306 0.07372 0.20987 0.0
C652 C 0.6176 0.14176 0.28479 0.0
C653 C 0.64636 0.14942 0.28567 0.0
C654 C 0.60615 0.12939 0.26187 0.0
C655 C 0.62314 0.12421 0.23932 0.0
C656 C 0.65185 0.13168 0.24013 0.0
H657 H 0.58484 0.10003 0.07592 0.0
H658 H 0.60614 0.11395 0.11716 0.0
C659 C 0.66335 0.14402 0.26311 0.0
C660 C 0.61074 0.11241 0.21464 0.0
H661 H 0.60551 0.05342 0.17029 0.0
C662 C 0.59451 0.12971 0.20274 0.0
C663 C 0.61449 0.08431 0.203 0.0
C664 C 0.63073 0.06405 0.21543 0.0
C665 C 0.58237 0.12 0.17933 0.0
C666 C 0.58658 0.09232 0.16745 0.0
C667 C 0.60246 0.07472 0.17944 0.0
C668 C 0.57479 0.08175 0.14232 0.0
C669 C 0.565 0.13929 0.16736 0.0
C670 C 0.55038 0.05852 0.1428 0.0
C671 C 0.53807 0.05047 0.11922 0.0
C672 C 0.55 0.06554 0.09478 0.0
C673 C 0.575 0.08804 0.09436 0.0
C674 C 0.58724 0.09605 0.1179 0.0
H675 H 0.56164 0.15865 0.1803 0.0
H676 H 0.57532 0.14931 0.14773 0.0
H677 H 0.54467 0.12435 0.16389 0.0
H678 H 0.54046 0.04728 0.16151 0.0
H679 H 0.51881 0.03312 0.1203 0.0
H680 H 0.40096 0.68005 0.30959 0.0
H681 H 0.41625 0.65104 0.3445 0.0
H682 H 0.36726 0.56519 0.31813 0.0
H683 H 0.35217 0.59402 0.28293 0.0
H684 H 0.38311 0.61268 0.38584 0.0
H685 H 0.44408 0.54666 0.32003 0.0
H686 H 0.43329 0.58024 0.30814 0.0
H687 H 0.40895 0.54344 0.31332 0.0
C688 C 0.39354 0.65497 0.31121 0.0
C689 C 0.3755 0.6393 0.29354 0.0
C690 C 0.40224 0.63846 0.33113 0.0
C691 C 0.39314 0.60596 0.33367 0.0
C692 C 0.37491 0.59021 0.31618 0.0
H693 H 0.44333 0.48284 0.44804 0.0
H694 H 0.41969 0.50122 0.41281 0.0
C695 C 0.3662 0.60674 0.29619 0.0
C696 C 0.40245 0.5889 0.35505 0.0
H697 H 0.4421 0.53745 0.36637 0.0
C698 C 0.39586 0.59608 0.3816 0.0
C699 C 0.41885 0.56704 0.34944 0.0
C700 C 0.42695 0.55894 0.32121 0.0
C701 C 0.40573 0.58248 0.40271 0.0
C702 C 0.42308 0.56162 0.39706 0.0
C703 C 0.42882 0.5535 0.37059 0.0
C704 C 0.43722 0.55009 0.41814 0.0
C705 C 0.39762 0.59079 0.43089 0.0
C706 C 0.45527 0.57143 0.43233 0.0
C707 C 0.46862 0.56111 0.45239 0.0
C708 C 0.46448 0.52911 0.45852 0.0
C709 C 0.44684 0.50763 0.44388 0.0
C710 C 0.43335 0.51807 0.42377 0.0
H711 H 0.37794 0.5986 0.43241 0.0
H712 H 0.39538 0.57073 0.445 0.0
H713 H 0.41384 0.61026 0.43711 0.0
H714 H 0.45912 0.59619 0.42783 0.0
H715 H 0.48228 0.57833 0.46302 0.0
H716 H 0.19324 0.33705 0.85183 0.0
H717 H 0.17182 0.3694 0.88298 0.0
H718 H 0.13131 0.39912 0.81905 0.0
H719 H 0.15124 0.36554 0.78856 0.0
H720 H 0.17404 0.42966 0.88537 0.0
H721 H 0.06672 0.3695 0.87233 0.0
H722 H 0.09579 0.3545 0.85921 0.0
H723 H 0.08525 0.38442 0.84105 0.0
C724 C 0.17958 0.3504 0.84465 0.0
C725 C 0.1733 0.34841 0.81812 0.0
C726 C 0.16744 0.36886 0.86234 0.0
C727 C 0.14931 0.38595 0.85351 0.0
C728 C 0.1443 0.38516 0.82658 0.0
H729 H 0.0579 0.51656 0.91679 0.0
H730 H 0.08696 0.48869 0.88935 0.0
C731 C 0.15581 0.36613 0.80915 0.0
C732 C 0.13559 0.40471 0.87226 0.0
H733 H 0.07276 0.41891 0.89303 0.0
C734 C 0.15188 0.42712 0.88724 0.0
C735 C 0.1066 0.40112 0.87493 0.0
C736 C 0.0876 0.37584 0.86123 0.0
C737 C 0.13999 0.44675 0.9041 0.0
C738 C 0.11124 0.44395 0.90574 0.0
C739 C 0.09491 0.42123 0.89125 0.0
C740 C 0.09731 0.46399 0.92266 0.0
C741 C 0.15813 0.4707 0.9197 0.0
C742 C 0.09393 0.45947 0.95041 0.0
C743 C 0.07723 0.47519 0.96612 0.0
C744 C 0.06369 0.49563 0.95429 0.0
C745 C 0.06807 0.501 0.92652 0.0
C746 C 0.08467 0.48517 0.91082 0.0
H747 H 0.18038 0.47297 0.91328 0.0
H748 H 0.15308 0.49377 0.91745 0.0
H749 H 0.15429 0.46381 0.94119 0.0
H750 H 0.10316 0.44275 0.95979 0.0
H751 H 0.07391 0.47015 0.98734 0.0
H752 H 0.75765 0.84381 0.87224 0.0
H753 H 0.72107 0.86516 0.89521 0.0
H754 H 0.68784 0.87371 0.82044 0.0
H755 H 0.72347 0.85086 0.79751 0.0
H756 H 0.7095 0.92151 0.88871 0.0
H757 H 0.61997 0.82888 0.86686 0.0
H758 H 0.65497 0.82426 0.86143 0.0
H759 H 0.64139 0.8454 0.83734 0.0
C760 C 0.74228 0.84969 0.86072 0.0
C761 C 0.74339 0.84537 0.83303 0.0
C762 C 0.72151 0.86213 0.87387 0.0
C763 C 0.70145 0.87052 0.85962 0.0
C764 C 0.70273 0.86672 0.83193 0.0
H765 H 0.57056 0.96608 0.89391 0.0
H766 H 0.6067 0.94179 0.87386 0.0
C767 C 0.72337 0.85407 0.81879 0.0
C768 C 0.67971 0.88416 0.87358 0.0
H769 H 0.60998 0.8758 0.88416 0.0
C770 C 0.68774 0.91137 0.88792 0.0
C771 C 0.65133 0.87078 0.87263 0.0
C772 C 0.64136 0.84055 0.85896 0.0
C773 C 0.66812 0.92605 0.9007 0.0
C774 C 0.63984 0.91308 0.89914 0.0
C775 C 0.63176 0.88571 0.88512 0.0
C776 C 0.61827 0.92794 0.91153 0.0
C777 C 0.67771 0.95571 0.91525 0.0
C778 C 0.61279 0.92794 0.93934 0.0
C779 C 0.59206 0.94166 0.9509 0.0
C780 C 0.57656 0.95567 0.93477 0.0
C781 C 0.58218 0.9556 0.90689 0.0
C782 C 0.60277 0.9417 0.89539 0.0
H783 H 0.70026 0.96534 0.91103 0.0
H784 H 0.66667 0.97359 0.90962 0.0
H785 H 0.67293 0.95094 0.93705 0.0
H786 H 0.62441 0.91711 0.95208 0.0
H787 H 0.5882 0.94128 0.97243 0.0
H788 H 0.75932 0.18451 0.41514 0.0
H789 H 0.79492 0.16089 0.43094 0.0
H790 H 0.78319 0.09383 0.36882 0.0
H791 H 0.74756 0.1174 0.35285 0.0
H792 H 0.78982 0.09716 0.44818 0.0
H793 H 0.86744 0.13282 0.3605 0.0
H794 H 0.83851 0.15066 0.36749 0.0
H795 H 0.83358 0.11283 0.35324 0.0
C796 C 0.76437 0.16475 0.40482 0.0
C797 C 0.75073 0.15291 0.38272 0.0
C798 C 0.78467 0.15127 0.4139 0.0
C799 C 0.79192 0.12582 0.40091 0.0
C800 C 0.77819 0.11375 0.37891 0.0
H801 H 0.91628 0.02127 0.42074 0.0
H802 H 0.87921 0.04297 0.40633 0.0
C803 C 0.75776 0.12717 0.36987 0.0
C804 C 0.81369 0.11188 0.41062 0.0
H805 H 0.87829 0.10055 0.39338 0.0
C806 C 0.8092 0.09789 0.43625 0.0
C807 C 0.83891 0.11283 0.39499 0.0
C808 C 0.84514 0.12828 0.36759 0.0
C809 C 0.82905 0.0843 0.44651 0.0
C810 C 0.85447 0.08553 0.431 0.0
C811 C 0.85889 0.0996 0.40534 0.0
C812 C 0.87658 0.07186 0.44059 0.0
C813 C 0.82217 0.068 0.47355 0.0
C814 C 0.88772 0.08089 0.46468 0.0
C815 C 0.90881 0.06814 0.47319 0.0
C816 C 0.91957 0.0466 0.4575 0.0
C817 C 0.90859 0.0379 0.43329 0.0
C818 C 0.88734 0.05031 0.42499 0.0
H819 H 0.79954 0.06099 0.47903 0.0
H820 H 0.83073 0.04692 0.47418 0.0
H821 H 0.83114 0.08412 0.48884 0.0
H822 H 0.88038 0.09811 0.47676 0.0
H823 H 0.91695 0.07551 0.49183 0.0
H824 H 0.25815 0.62692 0.2235 0.0
H825 H 0.21603 0.60456 0.20278 0.0
H826 H 0.26062 0.62586 0.12484 0.0
H827 H 0.30286 0.64758 0.14535 0.0
H828 H 0.19142 0.63815 0.16809 0.0
H829 H 0.21845 0.535 0.11938 0.0
H830 H 0.23696 0.55492 0.14561 0.0
H831 H 0.24364 0.57088 0.11209 0.0
C832 C 0.25907 0.62624 0.20196 0.0
C833 C 0.28374 0.63908 0.18602 0.0
C834 C 0.23501 0.61364 0.19018 0.0
C835 C 0.23531 0.61338 0.16231 0.0
C836 C 0.26006 0.62545 0.14637 0.0
H837 H 0.11126 0.56322 0.05195 0.0
H838 H 0.15318 0.58516 0.07293 0.0
C839 C 0.28408 0.63811 0.15812 0.0
C840 C 0.20942 0.60242 0.14988 0.0
H841 H 0.17802 0.54903 0.1074 0.0
C842 C 0.18837 0.61853 0.15496 0.0
C843 C 0.20569 0.57699 0.13263 0.0
C844 C 0.22726 0.55823 0.12723 0.0
C845 C 0.16375 0.61012 0.14292 0.0
C846 C 0.16004 0.58471 0.12569 0.0
C847 C 0.18107 0.56861 0.12057 0.0
C848 C 0.13416 0.57392 0.11324 0.0
C849 C 0.14211 0.62878 0.1483 0.0
C850 C 0.1096 0.56069 0.12904 0.0
C851 C 0.08563 0.5481 0.11716 0.0
C852 C 0.08586 0.54853 0.08925 0.0
C853 C 0.11033 0.56272 0.07351 0.0
C854 C 0.13434 0.57513 0.08542 0.0
H855 H 0.15061 0.65163 0.15697 0.0
H856 H 0.13312 0.63288 0.12968 0.0
H857 H 0.12524 0.61556 0.16267 0.0
H858 H 0.10919 0.55921 0.15054 0.0
H859 H 0.06715 0.53724 0.12981 0.0
H860 H 0.23802 0.37424 0.71743 0.0
H861 H 0.28072 0.40381 0.69295 0.0
H862 H 0.29912 0.31849 0.66366 0.0
H863 H 0.25673 0.28853 0.68855 0.0
H864 H 0.34259 0.38177 0.6932 0.0
H865 H 0.29368 0.39136 0.59965 0.0
H866 H 0.27431 0.39105 0.63186 0.0
H867 H 0.28385 0.35627 0.62036 0.0
C868 C 0.25139 0.36169 0.70622 0.0
C869 C 0.24402 0.32903 0.70494 0.0
C870 C 0.27562 0.37863 0.69212 0.0
C871 C 0.29279 0.36321 0.67651 0.0
C872 C 0.28592 0.33066 0.67558 0.0
H873 H 0.43003 0.44343 0.55802 0.0
H874 H 0.39037 0.40852 0.58324 0.0
C875 C 0.26171 0.31367 0.6897 0.0
C876 C 0.31767 0.38127 0.66073 0.0
H877 H 0.34034 0.41683 0.59984 0.0
C878 C 0.34225 0.3894 0.67275 0.0
C879 C 0.31698 0.39073 0.63407 0.0
C880 C 0.29086 0.38202 0.62051 0.0
C881 C 0.36637 0.40714 0.65874 0.0
C882 C 0.36554 0.41763 0.63226 0.0
C883 C 0.34094 0.40889 0.62014 0.0
C884 C 0.38969 0.43843 0.61709 0.0
C885 C 0.39253 0.41406 0.67239 0.0
C886 C 0.40213 0.46699 0.62754 0.0
C887 C 0.42494 0.48658 0.61344 0.0
C888 C 0.43535 0.47838 0.58829 0.0
C889 C 0.42244 0.45023 0.57742 0.0
C890 C 0.39984 0.43033 0.59178 0.0
H891 H 0.39198 0.39638 0.68836 0.0
H892 H 0.41093 0.4148 0.65799 0.0
H893 H 0.39479 0.43703 0.68185 0.0
H894 H 0.39407 0.47427 0.64656 0.0
H895 H 0.43416 0.50842 0.62208 0.0
H896 H 0.8354 0.69776 0.80691 0.0
H897 H 0.86306 0.67125 0.83254 0.0
H898 H 0.8698 0.74389 0.89014 0.0
H899 H 0.84114 0.76953 0.86534 0.0
H900 H 0.91422 0.68748 0.84683 0.0
H901 H 0.83969 0.66857 0.93761 0.0
H902 H 0.83157 0.68245 0.90637 0.0
H903 H 0.8518 0.70887 0.92779 0.0
C904 C 0.84269 0.70785 0.82515 0.0
C905 C 0.83572 0.7352 0.8345 0.0
C906 C 0.85856 0.69285 0.83968 0.0
C907 C 0.86798 0.70526 0.86356 0.0
C908 C 0.86202 0.73339 0.87224 0.0
H909 H 0.98626 0.62702 0.94551 0.0
H910 H 0.96637 0.66266 0.9201 0.0
C911 C 0.84571 0.74804 0.85802 0.0
C912 C 0.88346 0.68834 0.87964 0.0
H913 H 0.88218 0.65499 0.94109 0.0
C914 C 0.90726 0.68034 0.86745 0.0
C915 C 0.87417 0.67886 0.90647 0.0
C916 C 0.84777 0.68484 0.92026 0.0
C917 C 0.92178 0.66264 0.88125 0.0
C918 C 0.91266 0.65356 0.90818 0.0
C919 C 0.88924 0.66219 0.92049 0.0
C920 C 0.92534 0.63269 0.92342 0.0
C921 C 0.946 0.65278 0.86653 0.0
C922 C 0.90874 0.60456 0.93431 0.0
C923 C 0.91981 0.58474 0.94928 0.0
C924 C 0.94785 0.59242 0.95346 0.0
C925 C 0.9646 0.62055 0.94252 0.0
C926 C 0.95333 0.64074 0.92783 0.0
H927 H 0.94612 0.65523 0.84456 0.0
H928 H 0.96541 0.66772 0.8723 0.0
H929 H 0.9458 0.62821 0.87166 0.0
H930 H 0.88713 0.59783 0.93111 0.0
H931 H 0.90642 0.56307 0.95716 0.0
H932 H 0.32698 0.74891 0.18337 0.0
H933 H 0.35252 0.79698 0.15983 0.0
H934 H 0.42884 0.76917 0.16654 0.0
H935 H 0.40334 0.72051 0.18942 0.0
H936 H 0.39616 0.84584 0.17382 0.0
H937 H 0.42761 0.78211 0.08568 0.0
H938 H 0.40101 0.76396 0.11135 0.0
H939 H 0.43668 0.76994 0.117 0.0
C940 C 0.34921 0.753 0.17981 0.0
C941 C 0.36311 0.7307 0.18791 0.0
C942 C 0.36377 0.78058 0.16654 0.0
C943 C 0.3925 0.78636 0.16107 0.0
C944 C 0.40661 0.76487 0.17021 0.0
H945 H 0.5072 0.9269 0.059 0.0
H946 H 0.48634 0.88427 0.09101 0.0
C947 C 0.39204 0.73723 0.18349 0.0
C948 C 0.4074 0.81422 0.14474 0.0
H949 H 0.44432 0.83651 0.08452 0.0
C950 C 0.4068 0.84389 0.15432 0.0
C951 C 0.42114 0.81152 0.11929 0.0
C952 C 0.42154 0.78021 0.10753 0.0
C953 C 0.41985 0.87102 0.13922 0.0
C954 C 0.43333 0.86831 0.11362 0.0
C955 C 0.43407 0.83859 0.10418 0.0
C956 C 0.4464 0.89578 0.09591 0.0
C957 C 0.41939 0.90227 0.15104 0.0
C958 C 0.43093 0.91654 0.08804 0.0
C959 C 0.44289 0.94115 0.06992 0.0
C960 C 0.47042 0.94509 0.05891 0.0
C961 C 0.48591 0.92441 0.06698 0.0
C962 C 0.47403 0.90005 0.08531 0.0
H963 H 0.4161 0.90058 0.17317 0.0
H964 H 0.43888 0.91965 0.14501 0.0
H965 H 0.40211 0.91087 0.14387 0.0
H966 H 0.40938 0.91327 0.09536 0.0
H967 H 0.43033 0.95655 0.064 0.0
H968 H 0.18907 0.22445 0.68933 0.0
H969 H 0.16131 0.18672 0.66178 0.0
H970 H 0.09205 0.22852 0.6804 0.0
H971 H 0.11986 0.26673 0.7078 0.0
H972 H 0.10711 0.14389 0.67703 0.0
H973 H 0.10777 0.23125 0.59636 0.0
H974 H 0.1324 0.23808 0.62081 0.0
H975 H 0.09738 0.24017 0.63007 0.0
C976 C 0.16793 0.22559 0.68755 0.0
C977 C 0.15665 0.24861 0.70051 0.0
C978 C 0.15209 0.20397 0.67198 0.0
C979 C 0.12481 0.20513 0.66898 0.0
C980 C 0.11318 0.22751 0.68241 0.0
H981 H 0.02116 0.06085 0.58048 0.0
H982 H 0.03447 0.10159 0.61263 0.0
C983 C 0.129 0.24912 0.69813 0.0
C984 C 0.10909 0.18335 0.65099 0.0
H985 H 0.08746 0.17894 0.5887 0.0
C986 C 0.10235 0.1515 0.65789 0.0
C987 C 0.10323 0.19357 0.62602 0.0
C988 C 0.11063 0.22759 0.61763 0.0
C989 C 0.09053 0.12937 0.64006 0.0
C990 C 0.08536 0.13953 0.61482 0.0
C991 C 0.09136 0.17143 0.6082 0.0
C992 C 0.07626 0.11711 0.59419 0.0
C993 C 0.08485 0.0952 0.64771 0.0
C994 C 0.09522 0.11313 0.57292 0.0
C995 C 0.08778 0.08994 0.55459 0.0
C996 C 0.06118 0.07047 0.55723 0.0
C997 C 0.04185 0.07543 0.57798 0.0
C998 C 0.04938 0.09859 0.59637 0.0
H999 H 0.09241 0.09113 0.66713 0.0
H1000 H 0.06232 0.08513 0.64919 0.0
H1001 H 0.09481 0.08255 0.63211 0.0
H1002 H 0.11608 0.12731 0.57101 0.0
H1003 H 0.1031 0.08678 0.5388 0.0
H1004 H 0.64913 0.20775 0.40008 0.0
H1005 H 0.62846 0.247 0.42284 0.0
H1006 H 0.61939 0.28701 0.34697 0.0
H1007 H 0.64079 0.2485 0.32395 0.0
H1008 H 0.64668 0.3167 0.41516 0.0
H1009 H 0.5401 0.2665 0.38999 0.0
H1010 H 0.56609 0.24392 0.38923 0.0
H1011 H 0.56739 0.27225 0.36316 0.0
C1012 C 0.64311 0.22512 0.38817 0.0
C1013 C 0.64657 0.22478 0.36011 0.0
C1014 C 0.63112 0.24741 0.40124 0.0
C1015 C 0.62209 0.26964 0.38658 0.0
C1016 C 0.62583 0.26974 0.35864 0.0
H1017 H 0.53211 0.41184 0.43538 0.0
H1018 H 0.55317 0.37423 0.41035 0.0
C1019 C 0.63797 0.2476 0.34553 0.0
C1020 C 0.60882 0.29276 0.40056 0.0
H1021 H 0.54703 0.31298 0.41379 0.0
C1022 C 0.62489 0.31593 0.41492 0.0
C1023 C 0.58049 0.29187 0.3999 0.0
C1024 C 0.56233 0.26724 0.38491 0.0
C1025 C 0.61342 0.33843 0.42855 0.0
C1026 C 0.58483 0.33704 0.42861 0.0
C1027 C 0.56886 0.31401 0.41392 0.0
C1028 C 0.57108 0.35901 0.44402 0.0
C1029 C 0.63231 0.36388 0.44216 0.0
C1030 C 0.57333 0.36236 0.47146 0.0
C1031 C 0.56163 0.38407 0.48567 0.0
C1032 C 0.5468 0.40241 0.47294 0.0
C1033 C 0.54335 0.398 0.44577 0.0
C1034 C 0.55546 0.37657 0.43143 0.0
H1035 H 0.65396 0.36767 0.43304 0.0
H1036 H 0.62576 0.38625 0.44117 0.0
H1037 H 0.63194 0.35701 0.46343 0.0
H1038 H 0.58437 0.34835 0.4819 0.0
H1039 H 0.56439 0.38663 0.50666 0.0
loop_
_geom_bond_atom_site_label_1
_geom_bond_atom_site_label_2
_geom_bond_distance
_geom_bond_site_symmetry_2
_ccdc_geom_bond_type
H0 C5 0.930 . S
H1 C8 0.930 . S
H2 C10 0.930 . S
H3 C4 1.016 . S
C4 H3 1.016 . S
C4 N11 1.286 . S
C5 H0 0.930 . S
C5 C6 1.397 . S
C5 C7 1.361 . S
C6 C5 1.397 . S
C6 C10 1.390 . S
C7 C5 1.361 . S
C7 C8 1.393 . S
C7 N11 1.413 . S
C8 H1 0.930 . S
C8 C7 1.393 . S
C8 C9 1.399 . S
C9 C8 1.399 . S
C9 C10 1.381 . S
C10 H2 0.930 . S
C10 C6 1.390 . S
C10 C9 1.381 . S
N11 C4 1.286 . S
N11 C7 1.413 . S
H12 C17 0.930 . S
H13 C20 0.930 . S
H14 C22 0.930 . S
H15 C16 1.016 . S
C16 H15 1.016 . S
C16 N23 1.286 . S
C17 H12 0.930 . S
C17 C18 1.397 . S
C17 C19 1.361 . S
C18 C17 1.397 . S
C18 C22 1.390 . S
C19 C17 1.361 . S
C19 C20 1.393 . S
C19 N23 1.413 . S
C20 H13 0.930 . S
C20 C19 1.393 . S
C20 C21 1.399 . S
C21 C20 1.399 . S
C21 C22 1.381 . S
C22 H14 0.930 . S
C22 C18 1.390 . S
C22 C21 1.381 . S
N23 C16 1.286 . S
N23 C19 1.413 . S
H24 C29 0.930 . S
H25 C32 0.930 . S
H26 C34 0.930 . S
H27 C28 1.016 . S
C28 H27 1.016 . S
C28 N35 1.286 . S
C29 H24 0.930 . S
C29 C30 1.397 . S
C29 C31 1.361 . S
C30 C29 1.397 . S
C30 C34 1.390 . S
C31 C29 1.361 . S
C31 C32 1.393 . S
C31 N35 1.413 . S
C32 H25 0.930 . S
C32 C31 1.393 . S
C32 C33 1.399 . S
C33 C32 1.399 . S
C33 C34 1.381 . S
C34 H26 0.930 . S
C34 C30 1.390 . S
C34 C33 1.381 . S
N35 C28 1.286 . S
N35 C31 1.413 . S
H36 C41 0.930 . S
H37 C44 0.930 . S
H38 C46 0.930 . S
H39 C40 1.016 . S
C40 H39 1.016 . S
C40 N47 1.286 . S
C41 H36 0.930 . S
C41 C42 1.397 . S
C41 C43 1.361 . S
C42 C41 1.397 . S
C42 C46 1.390 . S
C43 C41 1.361 . S
C43 C44 1.393 . S
C43 N47 1.413 . S
C44 H37 0.930 . S
C44 C43 1.393 . S
C44 C45 1.399 . S
C45 C44 1.399 . S
C45 C46 1.381 . S
C46 H38 0.930 . S
C46 C42 1.390 . S
C46 C45 1.381 . S
N47 C40 1.286 . S
N47 C43 1.413 . S
H48 C53 0.930 . S
H49 C56 0.930 . S
H50 C58 0.930 . S
H51 C52 1.016 . S
C52 H51 1.016 . S
C52 N59 1.286 . S
C53 H48 0.930 . S
C53 C54 1.397 . S
C53 C55 1.361 . S
C54 C53 1.397 . S
C54 C58 1.390 . S
C55 C53 1.361 . S
C55 C56 1.393 . S
C55 N59 1.413 . S
C56 H49 0.930 . S
C56 C55 1.393 . S
C56 C57 1.399 . S
C57 C56 1.399 . S
C57 C58 1.381 . S
C58 H50 0.930 . S
C58 C54 1.390 . S
C58 C57 1.381 . S
N59 C52 1.286 . S
N59 C55 1.413 . S
H60 C65 0.930 . S
H61 C68 0.930 . S
H62 C70 0.930 . S
H63 C64 1.016 . S
C64 H63 1.016 . S
C64 N71 1.286 . S
C65 H60 0.930 . S
C65 C66 1.397 . S
C65 C67 1.361 . S
C66 C65 1.397 . S
C66 C70 1.390 . S
C67 C65 1.361 . S
C67 C68 1.393 . S
C67 N71 1.413 . S
C68 H61 0.930 . S
C68 C67 1.393 . S
C68 C69 1.399 . S
C69 C68 1.399 . S
C69 C70 1.381 . S
C70 H62 0.930 . S
C70 C66 1.390 . S
C70 C69 1.381 . S
N71 C64 1.286 . S
N71 C67 1.413 . S
H72 C77 0.930 . S
H73 C80 0.930 . S
H74 C82 0.930 . S
H75 C76 1.016 . S
C76 H75 1.016 . S
C76 N83 1.286 . S
C77 H72 0.930 . S
C77 C78 1.397 . S
C77 C79 1.361 . S
C78 C77 1.397 . S
C78 C82 1.390 . S
C79 C77 1.361 . S
C79 C80 1.393 . S
C79 N83 1.413 . S
C80 H73 0.930 . S
C80 C79 1.393 . S
C80 C81 1.399 . S
C81 C80 1.399 . S
C81 C82 1.381 . S
C82 H74 0.930 . S
C82 C78 1.390 . S
C82 C81 1.381 . S
N83 C76 1.286 . S
N83 C79 1.413 . S
H84 C89 0.930 . S
H85 C92 0.930 . S
H86 C94 0.930 . S
H87 C88 1.016 . S
C88 H87 1.016 . S
C88 N95 1.286 . S
C89 H84 0.930 . S
C89 C90 1.397 . S
C89 C91 1.361 . S
C90 C89 1.397 . S
C90 C94 1.390 . S
C91 C89 1.361 . S
C91 C92 1.393 . S
C91 N95 1.413 . S
C92 H85 0.930 . S
C92 C91 1.393 . S
C92 C93 1.399 . S
C93 C92 1.399 . S
C93 C94 1.381 . S
C94 H86 0.930 . S
C94 C90 1.390 . S
C94 C93 1.381 . S
N95 C88 1.286 . S
N95 C91 1.413 . S
Zn96 O102 1.969 1_545 S
Zn96 O103 1.965 1_545 S
Zn96 O107 2.024 . S
Zn96 O112 1.969 . S
Zn97 O104 1.969 . S
Zn97 O110 1.969 1_565 S
Zn97 O111 1.965 1_665 S
Zn97 O113 2.024 . S
C98 O99 1.229 . S
C98 O107 1.058 . S
O99 C98 1.229 . S
C100 O101 1.229 . S
C100 O113 1.058 . S
O101 C100 1.229 . S
O102 Zn96 1.969 1_565 S
O102 C105 1.267 . S
O103 Zn96 1.965 1_565 S
O103 C114 1.260 1_455 S
O104 Zn97 1.969 . S
O104 C114 1.258 . S
C105 O102 1.267 . S
C105 O106 1.228 . S
O106 C105 1.228 . S
O107 Zn96 2.024 . S
O107 C98 1.058 . S
C108 O109 1.228 . S
C108 O110 1.267 . S
O109 C108 1.228 . S
O110 Zn97 1.969 1_545 S
O110 C108 1.267 . S
O111 Zn97 1.965 1_445 S
O111 C115 1.260 . S
O112 Zn96 1.969 . S
O112 C115 1.258 . S
O113 Zn97 2.024 . S
O113 C100 1.058 . S
C114 O103 1.260 1_655 S
C114 O104 1.258 . S
C115 O111 1.260 . S
C115 O112 1.258 . S
Zn116 O122 1.969 . S
Zn116 O123 1.965 1_565 S
Zn116 O127 2.024 . S
Zn116 O132 1.969 1_556 S
Zn117 O124 1.969 . S
Zn117 O130 1.969 . S
Zn117 O131 1.933 1_545 S
Zn117 O133 2.024 . S
C118 O119 1.229 . S
C118 O127 1.058 . S
O119 C118 1.229 . S
C120 O121 1.229 . S
C120 O133 1.058 . S
O121 C120 1.229 . S
O122 Zn116 1.969 . S
O122 C125 1.267 . S
O123 Zn116 1.965 1_545 S
O123 C134 1.260 . S
O124 Zn117 1.969 . S
O124 C134 1.258 1_554 S
C125 O122 1.267 . S
C125 O126 1.228 . S
O126 C125 1.228 . S
O127 Zn116 2.024 . S
O127 C118 1.058 . S
C128 O129 1.228 . S
C128 O130 1.267 . S
O129 C128 1.228 . S
O130 Zn117 1.969 . S
O130 C128 1.267 . S
O131 Zn117 1.933 1_565 S
O131 C135 1.298 . S
O132 Zn116 1.969 1_554 S
O132 C135 1.258 . S
O133 Zn117 2.024 . S
O133 C120 1.058 . S
C134 O123 1.260 . S
C134 O124 1.258 1_556 S
C135 O131 1.298 . S
C135 O132 1.258 . S
Zn136 O142 1.969 . S
Zn136 O143 1.965 . S
Zn136 O147 2.024 . S
Zn136 O152 1.969 . S
Zn137 O144 1.969 . S
Zn137 O150 1.969 . S
Zn137 O151 1.965 . S
Zn137 O153 2.024 . S
C138 O139 1.229 . S
C138 O147 1.058 . S
O139 C138 1.229 . S
C140 O141 1.229 . S
C140 O153 1.058 . S
O141 C140 1.229 . S
O142 Zn136 1.969 . S
O142 C145 1.267 . S
O143 Zn136 1.965 . S
O143 C154 1.260 . S
O144 Zn137 1.969 . S
O144 C154 1.258 . S
C145 O142 1.267 . S
C145 O146 1.228 . S
O146 C145 1.228 . S
O147 Zn136 2.024 . S
O147 C138 1.058 . S
C148 O149 1.228 . S
C148 O150 1.267 . S
O149 C148 1.228 . S
O150 Zn137 1.969 . S
O150 C148 1.267 . S
O151 Zn137 1.965 . S
O151 C155 1.260 . S
O152 Zn136 1.969 . S
O152 C155 1.258 . S
O153 Zn137 2.024 . S
O153 C140 1.058 . S
C154 O143 1.260 . S
C154 O144 1.258 . S
C155 O151 1.260 . S
C155 O152 1.258 . S
Zn156 O162 1.969 . S
Zn156 O163 1.965 1_556 S
Zn156 O167 2.024 . S
Zn156 O172 1.969 1_655 S
Zn157 O164 1.969 . S
Zn157 O170 1.969 . S
Zn157 O171 1.936 1_554 S
Zn157 O173 2.024 . S
C158 O159 1.229 . S
C158 O167 1.058 . S
O159 C158 1.229 . S
C160 O161 1.229 . S
C160 O173 1.058 . S
O161 C160 1.229 . S
O162 Zn156 1.969 . S
O162 C165 1.267 . S
O163 Zn156 1.965 1_554 S
O163 C174 1.260 . S
O164 Zn157 1.969 . S
O164 C174 1.258 1_455 S
C165 O162 1.267 . S
C165 O166 1.228 . S
O166 C165 1.228 . S
O167 Zn156 2.024 . S
O167 C158 1.058 . S
C168 O169 1.228 . S
C168 O170 1.267 . S
O169 C168 1.228 . S
O170 Zn157 1.969 . S
O170 C168 1.267 . S
O171 Zn157 1.936 1_556 S
O171 C175 1.290 . S
O172 Zn156 1.969 1_455 S
O172 C175 1.258 . S
O173 Zn157 2.024 . S
O173 C160 1.058 . S
C174 O163 1.260 . S
C174 O164 1.258 1_655 S
C175 O171 1.290 . S
C175 O172 1.258 . S
H176 C184 0.929 . S
H177 C186 0.930 . S
H178 C188 0.930 . S
H179 C191 0.929 . S
H180 C194 0.930 . S
H181 C196 0.960 . S
H182 C196 0.960 . S
H183 C196 0.960 . S
C184 H176 0.929 . S
C184 C185 1.377 . S
C184 C186 1.384 . S
C185 C184 1.377 . S
C185 C191 1.390 . S
C186 H177 0.930 . S
C186 C184 1.384 . S
C186 C187 1.372 . S
C187 C186 1.372 . S
C187 C188 1.400 . S
C187 C192 1.490 . S
C188 H178 0.930 . S
C188 C187 1.400 . S
C188 C191 1.386 . S
H189 C205 0.930 . S
H190 C206 0.931 . S
C191 H179 0.929 . S
C191 C185 1.390 . S
C191 C188 1.386 . S
C192 C187 1.490 . S
C192 C194 1.395 . S
C192 C195 1.403 . S
H193 C199 0.930 . S
C194 H180 0.930 . S
C194 C192 1.395 . S
C194 C197 1.403 . S
C195 C192 1.403 . S
C195 C196 1.524 . S
C195 C199 1.400 . S
C196 H181 0.960 . S
C196 H182 0.960 . S
C196 H183 0.960 . S
C196 C195 1.524 . S
C197 C194 1.403 . S
C197 C198 1.392 . S
C197 C201 1.495 . S
C198 C197 1.392 . S
C198 C199 1.385 . S
C198 C200 1.478 . S
C199 H193 0.930 . S
C199 C195 1.400 . S
C199 C198 1.385 . S
C200 C198 1.478 . S
C200 C202 1.381 . S
C200 C206 1.383 . S
C201 C197 1.495 . S
C201 H207 0.959 . S
C201 H208 0.961 . S
C201 H209 0.960 . S
C202 C200 1.381 . S
C202 C203 1.394 . S
C202 H210 0.930 . S
C203 C202 1.394 . S
C203 C204 1.383 . S
C203 H211 0.929 . S
C204 C203 1.383 . S
C204 C205 1.377 . S
C205 H189 0.930 . S
C205 C204 1.377 . S
C205 C206 1.379 . S
C206 H190 0.931 . S
C206 C200 1.383 . S
C206 C205 1.379 . S
H207 C201 0.959 . S
H208 C201 0.961 . S
H209 C201 0.960 . S
H210 C202 0.930 . S
H211 C203 0.929 . S
H212 C220 0.929 . S
H213 C222 0.930 . S
H214 C224 0.930 . S
H215 C227 0.929 . S
H216 C230 0.930 . S
H217 C232 0.960 . S
H218 C232 0.960 . S
H219 C232 0.960 . S
C220 H212 0.929 . S
C220 C221 1.377 . S
C220 C222 1.384 . S
C221 C220 1.377 . S
C221 C227 1.390 . S
C222 H213 0.930 . S
C222 C220 1.384 . S
C222 C223 1.372 . S
C223 C222 1.372 . S
C223 C224 1.400 . S
C223 C228 1.490 . S
C224 H214 0.930 . S
C224 C223 1.400 . S
C224 C227 1.386 . S
H225 C241 0.930 . S
H226 C242 0.931 . S
C227 H215 0.929 . S
C227 C221 1.390 . S
C227 C224 1.386 . S
C228 C223 1.490 . S
C228 C230 1.395 . S
C228 C231 1.403 . S
H229 C235 0.930 . S
C230 H216 0.930 . S
C230 C228 1.395 . S
C230 C233 1.403 . S
C231 C228 1.403 . S
C231 C232 1.524 . S
C231 C235 1.400 . S
C232 H217 0.960 . S
C232 H218 0.960 . S
C232 H219 0.960 . S
C232 C231 1.524 . S
C233 C230 1.403 . S
C233 C234 1.392 . S
C233 C237 1.495 . S
C234 C233 1.392 . S
C234 C235 1.385 . S
C234 C236 1.478 . S
C235 H229 0.930 . S
C235 C231 1.400 . S
C235 C234 1.385 . S
C236 C234 1.478 . S
C236 C238 1.381 . S
C236 C242 1.383 . S
C237 C233 1.495 . S
C237 H243 0.959 . S
C237 H244 0.961 . S
C237 H245 0.960 . S
C238 C236 1.381 . S
C238 C239 1.394 . S
C238 H246 0.930 . S
C239 C238 1.394 . S
C239 C240 1.383 . S
C239 H247 0.912 1_565 S
C240 C239 1.383 . S
C240 C241 1.377 . S
C241 H225 0.930 . S
C241 C240 1.377 . S
C241 C242 1.379 . S
C242 H226 0.931 . S
C242 C236 1.383 . S
C242 C241 1.379 . S
H243 C237 0.959 . S
H244 C237 0.961 . S
H245 C237 0.960 . S
H246 C238 0.930 . S
H247 C239 0.912 1_545 S
H248 C256 0.929 . S
H249 C258 0.930 . S
H250 C260 0.930 . S
H251 C263 0.929 . S
H252 C266 0.930 . S
H253 C268 0.960 . S
H254 C268 0.960 . S
H255 C268 0.960 . S
C256 H248 0.929 . S
C256 C257 1.377 . S
C256 C258 1.384 . S
C257 C256 1.377 . S
C257 C263 1.390 . S
C258 H249 0.930 . S
C258 C256 1.384 . S
C258 C259 1.372 . S
C259 C258 1.372 . S
C259 C260 1.400 . S
C259 C264 1.490 . S
C260 H250 0.930 . S
C260 C259 1.400 . S
C260 C263 1.386 . S
H261 C277 0.930 . S
H262 C278 0.931 . S
C263 H251 0.929 . S
C263 C257 1.390 . S
C263 C260 1.386 . S
C264 C259 1.490 . S
C264 C266 1.395 . S
C264 C267 1.403 . S
H265 C271 0.930 . S
C266 H252 0.930 . S
C266 C264 1.395 . S
C266 C269 1.403 . S
C267 C264 1.403 . S
C267 C268 1.524 . S
C267 C271 1.400 . S
C268 H253 0.960 . S
C268 H254 0.960 . S
C268 H255 0.960 . S
C268 C267 1.524 . S
C269 C266 1.403 . S
C269 C270 1.392 . S
C269 C273 1.495 . S
C270 C269 1.392 . S
C270 C271 1.385 . S
C270 C272 1.478 . S
C271 H265 0.930 . S
C271 C267 1.400 . S
C271 C270 1.385 . S
C272 C270 1.478 . S
C272 C274 1.381 . S
C272 C278 1.383 . S
C273 C269 1.495 . S
C273 H279 0.959 . S
C273 H280 0.961 . S
C273 H281 0.960 . S
C274 C272 1.381 . S
C274 C275 1.394 . S
C274 H282 0.930 . S
C275 C274 1.394 . S
C275 C276 1.383 . S
C275 H283 0.929 . S
C276 C275 1.383 . S
C276 C277 1.377 . S
C277 H261 0.930 . S
C277 C276 1.377 . S
C277 C278 1.379 . S
C278 H262 0.931 . S
C278 C272 1.383 . S
C278 C277 1.379 . S
H279 C273 0.959 . S
H280 C273 0.961 . S
H281 C273 0.960 . S
H282 C274 0.930 . S
H283 C275 0.929 . S
H284 C292 0.929 . S
H285 C294 0.930 . S
H286 C296 0.930 . S
H287 C299 0.929 . S
H288 C302 0.930 . S
H289 C304 0.960 . S
H290 C304 0.960 . S
H291 C304 0.960 . S
C292 H284 0.929 . S
C292 C293 1.377 . S
C292 C294 1.384 . S
C293 C292 1.377 . S
C293 C299 1.390 . S
C294 H285 0.930 . S
C294 C292 1.384 . S
C294 C295 1.372 . S
C295 C294 1.372 . S
C295 C296 1.400 . S
C295 C300 1.490 . S
C296 H286 0.930 . S
C296 C295 1.400 . S
C296 C299 1.386 . S
H297 C313 0.930 . S
H298 C314 0.931 . S
C299 H287 0.929 . S
C299 C293 1.390 . S
C299 C296 1.386 . S
C300 C295 1.490 . S
C300 C302 1.395 . S
C300 C303 1.403 . S
H301 C307 0.930 . S
C302 H288 0.930 . S
C302 C300 1.395 . S
C302 C305 1.403 . S
C303 C300 1.403 . S
C303 C304 1.524 . S
C303 C307 1.400 . S
C304 H289 0.960 . S
C304 H290 0.960 . S
C304 H291 0.960 . S
C304 C303 1.524 . S
C305 C302 1.403 . S
C305 C306 1.392 . S
C305 C309 1.495 . S
C306 C305 1.392 . S
C306 C307 1.385 . S
C306 C308 1.478 . S
C307 H301 0.930 . S
C307 C303 1.400 . S
C307 C306 1.385 . S
C308 C306 1.478 . S
C308 C310 1.381 . S
C308 C314 1.383 . S
C309 C305 1.495 . S
C309 H315 0.959 . S
C309 H316 0.961 . S
C309 H317 0.960 . S
C310 C308 1.381 . S
C310 C311 1.394 . S
C310 H318 0.930 . S
C311 C310 1.394 . S
C311 C312 1.383 . S
C311 H319 0.929 . S
C312 C311 1.383 . S
C312 C313 1.377 . S
C313 H297 0.930 . S
C313 C312 1.377 . S
C313 C314 1.379 . S
C314 H298 0.931 . S
C314 C308 1.383 . S
C314 C313 1.379 . S
H315 C309 0.959 . S
H316 C309 0.961 . S
H317 C309 0.960 . S
H318 C310 0.930 . S
H319 C311 0.929 . S
H320 C328 0.929 . S
H321 C330 0.930 . S
H322 C332 0.930 . S
H323 C335 0.929 . S
H324 C338 0.930 . S
H325 C340 0.960 . S
H326 C340 0.960 . S
H327 C340 0.960 . S
C328 H320 0.929 . S
C328 C329 1.377 . S
C328 C330 1.384 . S
C329 C328 1.377 . S
C329 C335 1.390 . S
C330 H321 0.930 . S
C330 C328 1.384 . S
C330 C331 1.372 . S
C331 C330 1.372 . S
C331 C332 1.400 . S
C331 C336 1.490 . S
C332 H322 0.930 . S
C332 C331 1.400 . S
C332 C335 1.386 . S
H333 C349 0.930 . S
H334 C350 0.931 . S
C335 H323 0.929 . S
C335 C329 1.390 . S
C335 C332 1.386 . S
C336 C331 1.490 . S
C336 C338 1.395 . S
C336 C339 1.403 . S
H337 C343 0.930 . S
C338 H324 0.930 . S
C338 C336 1.395 . S
C338 C341 1.403 . S
C339 C336 1.403 . S
C339 C340 1.524 . S
C339 C343 1.400 . S
C340 H325 0.960 . S
C340 H326 0.960 . S
C340 H327 0.960 . S
C340 C339 1.524 . S
C341 C338 1.403 . S
C341 C342 1.392 . S
C341 C345 1.495 . S
C342 C341 1.392 . S
C342 C343 1.385 . S
C342 C344 1.478 . S
C343 H337 0.930 . S
C343 C339 1.400 . S
C343 C342 1.385 . S
C344 C342 1.478 . S
C344 C346 1.381 . S
C344 C350 1.383 . S
C345 C341 1.495 . S
C345 H351 0.959 . S
C345 H352 0.961 . S
C345 H353 0.960 . S
C346 C344 1.381 . S
C346 C347 1.394 . S
C346 H354 0.930 . S
C347 C346 1.394 . S
C347 C348 1.383 . S
C347 H355 0.929 . S
C348 C347 1.383 . S
C348 C349 1.377 . S
C349 H333 0.930 . S
C349 C348 1.377 . S
C349 C350 1.379 . S
C350 H334 0.931 . S
C350 C344 1.383 . S
C350 C349 1.379 . S
H351 C345 0.959 . S
H352 C345 0.961 . S
H353 C345 0.960 . S
H354 C346 0.930 . S
H355 C347 0.929 . S
H356 C364 0.929 . S
H357 C366 0.930 . S
H358 C368 0.930 . S
H359 C371 0.929 . S
H360 C374 0.930 . S
H361 C376 0.960 . S
H362 C376 0.960 . S
H363 C376 0.960 . S
C364 H356 0.929 . S
C364 C365 1.377 . S
C364 C366 1.384 . S
C365 C364 1.377 . S
C365 C371 1.390 . S
C366 H357 0.930 . S
C366 C364 1.384 . S
C366 C367 1.372 . S
C367 C366 1.372 . S
C367 C368 1.400 . S
C367 C372 1.490 . S
C368 H358 0.930 . S
C368 C367 1.400 . S
C368 C371 1.386 . S
H369 C385 0.930 . S
H370 C386 0.931 . S
C371 H359 0.929 . S
C371 C365 1.390 . S
C371 C368 1.386 . S
C372 C367 1.490 . S
C372 C374 1.395 . S
C372 C375 1.403 . S
H373 C379 0.930 . S
C374 H360 0.930 . S
C374 C372 1.395 . S
C374 C377 1.403 . S
C375 C372 1.403 . S
C375 C376 1.524 . S
C375 C379 1.400 . S
C376 H361 0.960 . S
C376 H362 0.960 . S
C376 H363 0.960 . S
C376 C375 1.524 . S
C377 C374 1.403 . S
C377 C378 1.392 . S
C377 C381 1.495 . S
C378 C377 1.392 . S
C378 C379 1.385 . S
C378 C380 1.478 . S
C379 H373 0.930 . S
C379 C375 1.400 . S
C379 C378 1.385 . S
C380 C378 1.478 . S
C380 C382 1.381 . S
C380 C386 1.383 . S
C381 C377 1.495 . S
C381 H387 0.959 . S
C381 H388 0.961 . S
C381 H389 0.960 . S
C382 C380 1.381 . S
C382 C383 1.394 . S
C382 H390 0.930 . S
C383 C382 1.394 . S
C383 C384 1.383 . S
C383 H391 0.929 . S
C384 C383 1.383 . S
C384 C385 1.377 . S
C385 H369 0.930 . S
C385 C384 1.377 . S
C385 C386 1.379 . S
C386 H370 0.931 . S
C386 C380 1.383 . S
C386 C385 1.379 . S
H387 C381 0.959 . S
H388 C381 0.961 . S
H389 C381 0.960 . S
H390 C382 0.930 . S
H391 C383 0.929 . S
H392 C400 0.929 . S
H393 C402 0.930 . S
H394 C404 0.930 . S
H395 C407 0.929 . S
H396 C410 0.930 . S
H397 C412 0.960 . S
H398 C412 0.960 . S
H399 C412 0.960 . S
C400 H392 0.929 . S
C400 C401 1.377 . S
C400 C402 1.384 . S
C401 C400 1.377 . S
C401 C407 1.390 . S
C402 H393 0.930 . S
C402 C400 1.384 . S
C402 C403 1.372 . S
C403 C402 1.372 . S
C403 C404 1.400 . S
C403 C408 1.490 . S
C404 H394 0.930 . S
C404 C403 1.400 . S
C404 C407 1.386 . S
H405 C421 0.930 . S
H406 C422 0.931 . S
C407 H395 0.929 . S
C407 C401 1.390 . S
C407 C404 1.386 . S
C408 C403 1.490 . S
C408 C410 1.395 . S
C408 C411 1.403 . S
H409 C415 0.930 . S
C410 H396 0.930 . S
C410 C408 1.395 . S
C410 C413 1.403 . S
C411 C408 1.403 . S
C411 C412 1.524 . S
C411 C415 1.400 . S
C412 H397 0.960 . S
C412 H398 0.960 . S
C412 H399 0.960 . S
C412 C411 1.524 . S
C413 C410 1.403 . S
C413 C414 1.392 . S
C413 C417 1.495 . S
C414 C413 1.392 . S
C414 C415 1.385 . S
C414 C416 1.478 . S
C415 H409 0.930 . S
C415 C411 1.400 . S
C415 C414 1.385 . S
C416 C414 1.478 . S
C416 C418 1.381 . S
C416 C422 1.383 . S
C417 C413 1.495 . S
C417 H423 0.959 . S
C417 H424 0.961 . S
C417 H425 0.960 . S
C418 C416 1.381 . S
C418 C419 1.394 . S
C418 H426 0.930 . S
C419 C418 1.394 . S
C419 C420 1.383 . S
C419 H427 0.929 . S
C420 C419 1.383 . S
C420 C421 1.377 . S
C421 H405 0.930 . S
C421 C420 1.377 . S
C421 C422 1.379 . S
C422 H406 0.931 . S
C422 C416 1.383 . S
C422 C421 1.379 . S
H423 C417 0.959 . S
H424 C417 0.961 . S
H425 C417 0.960 . S
H426 C418 0.930 . S
H427 C419 0.929 . S
H428 C436 0.929 . S
H429 C438 0.930 . S
H430 C440 0.930 . S
H431 C443 0.929 . S
H432 C446 0.930 . S
H433 C448 0.960 . S
H434 C448 0.960 . S
H435 C448 0.960 . S
C436 H428 0.929 . S
C436 C437 1.377 . S
C436 C438 1.384 . S
C437 C436 1.377 . S
C437 C443 1.390 . S
C438 H429 0.930 . S
C438 C436 1.384 . S
C438 C439 1.372 . S
C439 C438 1.372 . S
C439 C440 1.400 . S
C439 C444 1.490 . S
C440 H430 0.930 . S
C440 C439 1.400 . S
C440 C443 1.386 . S
H441 C457 0.930 . S
H442 C458 0.931 . S
C443 H431 0.929 . S
C443 C437 1.390 . S
C443 C440 1.386 . S
C444 C439 1.490 . S
C444 C446 1.395 . S
C444 C447 1.403 . S
H445 C451 0.930 . S
C446 H432 0.930 . S
C446 C444 1.395 . S
C446 C449 1.403 . S
C447 C444 1.403 . S
C447 C448 1.524 . S
C447 C451 1.400 . S
C448 H433 0.960 . S
C448 H434 0.960 . S
C448 H435 0.960 . S
C448 C447 1.524 . S
C449 C446 1.403 . S
C449 C450 1.392 . S
C449 C453 1.495 . S
C450 C449 1.392 . S
C450 C451 1.385 . S
C450 C452 1.478 . S
C451 H445 0.930 . S
C451 C447 1.400 . S
C451 C450 1.385 . S
C452 C450 1.478 . S
C452 C454 1.381 . S
C452 C458 1.383 . S
C453 C449 1.495 . S
C453 H459 0.959 . S
C453 H460 0.961 . S
C453 H461 0.960 . S
C454 C452 1.381 . S
C454 C455 1.394 . S
C454 H462 0.930 . S
C455 C454 1.394 . S
C455 C456 1.383 . S
C455 H463 0.929 . S
C456 C455 1.383 . S
C456 C457 1.377 . S
C457 H441 0.930 . S
C457 C456 1.377 . S
C457 C458 1.379 . S
C458 H442 0.931 . S
C458 C452 1.383 . S
C458 C457 1.379 . S
H459 C453 0.959 . S
H460 C453 0.961 . S
H461 C453 0.960 . S
H462 C454 0.930 . S
H463 C455 0.929 . S
H464 C472 0.929 . S
H465 C474 0.930 . S
H466 C476 0.930 . S
H467 C479 0.929 . S
H468 C482 0.930 . S
H469 C484 0.960 . S
H470 C484 0.960 . S
H471 C484 0.960 . S
C472 H464 0.929 . S
C472 C473 1.377 . S
C472 C474 1.384 . S
C473 C472 1.377 . S
C473 C479 1.390 . S
C474 H465 0.930 . S
C474 C472 1.384 . S
C474 C475 1.372 . S
C475 C474 1.372 . S
C475 C476 1.400 . S
C475 C480 1.490 . S
C476 H466 0.930 . S
C476 C475 1.400 . S
C476 C479 1.386 . S
H477 C493 0.930 . S
H478 C494 0.931 . S
C479 H467 0.929 . S
C479 C473 1.390 . S
C479 C476 1.386 . S
C480 C475 1.490 . S
C480 C482 1.395 . S
C480 C483 1.403 . S
H481 C487 0.930 . S
C482 H468 0.930 . S
C482 C480 1.395 . S
C482 C485 1.403 . S
C483 C480 1.403 . S
C483 C484 1.524 . S
C483 C487 1.400 . S
C484 H469 0.960 . S
C484 H470 0.960 . S
C484 H471 0.960 . S
C484 C483 1.524 . S
C485 C482 1.403 . S
C485 C486 1.392 . S
C485 C489 1.495 . S
C486 C485 1.392 . S
C486 C487 1.385 . S
C486 C488 1.478 . S
C487 H481 0.930 . S
C487 C483 1.400 . S
C487 C486 1.385 . S
C488 C486 1.478 . S
C488 C490 1.381 . S
C488 C494 1.383 . S
C489 C485 1.495 . S
C489 H495 0.959 . S
C489 H496 0.961 . S
C489 H497 0.960 . S
C490 C488 1.381 . S
C490 C491 1.394 . S
C490 H498 0.930 . S
C491 C490 1.394 . S
C491 C492 1.383 . S
C491 H499 0.929 . S
C492 C491 1.383 . S
C492 C493 1.377 . S
C493 H477 0.930 . S
C493 C492 1.377 . S
C493 C494 1.379 . S
C494 H478 0.931 . S
C494 C488 1.383 . S
C494 C493 1.379 . S
H495 C489 0.959 . S
H496 C489 0.961 . S
H497 C489 0.960 . S
H498 C490 0.930 . S
H499 C491 0.929 . S
H500 C508 0.929 . S
H501 C510 0.930 . S
H502 C512 0.930 . S
H503 C515 0.929 . S
H504 C518 0.930 . S
H505 C520 0.960 . S
H506 C520 0.960 . S
H507 C520 0.960 . S
C508 H500 0.929 . S
C508 C509 1.377 . S
C508 C510 1.384 . S
C509 C508 1.377 . S
C509 C515 1.390 . S
C510 H501 0.930 . S
C510 C508 1.384 . S
C510 C511 1.372 . S
C511 C510 1.372 . S
C511 C512 1.400 . S
C511 C516 1.490 . S
C512 H502 0.930 . S
C512 C511 1.400 . S
C512 C515 1.386 . S
H513 C529 0.930 . S
H514 C530 0.931 . S
C515 H503 0.929 . S
C515 C509 1.390 . S
C515 C512 1.386 . S
C516 C511 1.490 . S
C516 C518 1.395 . S
C516 C519 1.403 . S
H517 C523 0.930 . S
C518 H504 0.930 . S
C518 C516 1.395 . S
C518 C521 1.403 . S
C519 C516 1.403 . S
C519 C520 1.524 . S
C519 C523 1.400 . S
C520 H505 0.960 . S
C520 H506 0.960 . S
C520 H507 0.960 . S
C520 C519 1.524 . S
C521 C518 1.403 . S
C521 C522 1.392 . S
C521 C525 1.495 . S
C522 C521 1.392 . S
C522 C523 1.385 . S
C522 C524 1.478 . S
C523 H517 0.930 . S
C523 C519 1.400 . S
C523 C522 1.385 . S
C524 C522 1.478 . S
C524 C526 1.381 . S
C524 C530 1.383 . S
C525 C521 1.495 . S
C525 H531 0.959 . S
C525 H532 0.961 . S
C525 H533 0.960 . S
C526 C524 1.381 . S
C526 C527 1.394 . S
C526 H534 0.930 . S
C527 C526 1.394 . S
C527 C528 1.383 . S
C527 H535 0.929 . S
C528 C527 1.383 . S
C528 C529 1.377 . S
C529 H513 0.930 . S
C529 C528 1.377 . S
C529 C530 1.379 . S
C530 H514 0.931 . S
C530 C524 1.383 . S
C530 C529 1.379 . S
H531 C525 0.959 . S
H532 C525 0.961 . S
H533 C525 0.960 . S
H534 C526 0.930 . S
H535 C527 0.929 . S
H536 C544 0.929 . S
H537 C546 0.930 . S
H538 C548 0.930 . S
H539 C551 0.929 . S
H540 C554 0.930 . S
H541 C556 0.960 . S
H542 C556 0.960 . S
H543 C556 0.960 . S
C544 H536 0.929 . S
C544 C545 1.377 . S
C544 C546 1.384 . S
C545 C544 1.377 . S
C545 C551 1.390 . S
C546 H537 0.930 . S
C546 C544 1.384 . S
C546 C547 1.372 . S
C547 C546 1.372 . S
C547 C548 1.400 . S
C547 C552 1.490 . S
C548 H538 0.930 . S
C548 C547 1.400 . S
C548 C551 1.386 . S
H549 C565 0.930 . S
H550 C566 0.931 . S
C551 H539 0.929 . S
C551 C545 1.390 . S
C551 C548 1.386 . S
C552 C547 1.490 . S
C552 C554 1.395 . S
C552 C555 1.403 . S
H553 C559 0.930 . S
C554 H540 0.930 . S
C554 C552 1.395 . S
C554 C557 1.403 . S
C555 C552 1.403 . S
C555 C556 1.524 . S
C555 C559 1.400 . S
C556 H541 0.960 . S
C556 H542 0.960 . S
C556 H543 0.960 . S
C556 C555 1.524 . S
C557 C554 1.403 . S
C557 C558 1.392 . S
C557 C561 1.495 . S
C558 C557 1.392 . S
C558 C559 1.385 . S
C558 C560 1.478 . S
C559 H553 0.930 . S
C559 C555 1.400 . S
C559 C558 1.385 . S
C560 C558 1.478 . S
C560 C562 1.381 . S
C560 C566 1.383 . S
C561 C557 1.495 . S
C561 H567 0.959 . S
C561 H568 0.961 . S
C561 H569 0.960 . S
C562 C560 1.381 . S
C562 C563 1.394 . S
C562 H570 0.930 . S
C563 C562 1.394 . S
C563 C564 1.383 . S
C563 H571 0.929 . S
C564 C563 1.383 . S
C564 C565 1.377 . S
C565 H549 0.930 . S
C565 C564 1.377 . S
C565 C566 1.379 . S
C566 H550 0.931 . S
C566 C560 1.383 . S
C566 C565 1.379 . S
H567 C561 0.959 . S
H568 C561 0.961 . S
H569 C561 0.960 . S
H570 C562 0.930 . S
H571 C563 0.929 . S
H572 C580 0.929 . S
H573 C582 0.930 . S
H574 C584 0.930 . S
H575 C587 0.929 . S
H576 C590 0.930 . S
H577 C592 0.960 . S
H578 C592 0.960 . S
H579 C592 0.960 . S
C580 H572 0.929 . S
C580 C581 1.377 . S
C580 C582 1.384 . S
C581 C580 1.377 . S
C581 C587 1.390 . S
C582 H573 0.930 . S
C582 C580 1.384 . S
C582 C583 1.372 . S
C583 C582 1.372 . S
C583 C584 1.400 . S
C583 C588 1.490 . S
C584 H574 0.930 . S
C584 C583 1.400 . S
C584 C587 1.386 . S
H585 C601 0.930 . S
H586 C602 0.931 . S
C587 H575 0.929 . S
C587 C581 1.390 . S
C587 C584 1.386 . S
C588 C583 1.490 . S
C588 C590 1.395 . S
C588 C591 1.403 . S
H589 C595 0.930 . S
C590 H576 0.930 . S
C590 C588 1.395 . S
C590 C593 1.403 . S
C591 C588 1.403 . S
C591 C592 1.524 . S
C591 C595 1.400 . S
C592 H577 0.960 . S
C592 H578 0.960 . S
C592 H579 0.960 . S
C592 C591 1.524 . S
C593 C590 1.403 . S
C593 C594 1.392 . S
C593 C597 1.495 . S
C594 C593 1.392 . S
C594 C595 1.385 . S
C594 C596 1.478 . S
C595 H589 0.930 . S
C595 C591 1.400 . S
C595 C594 1.385 . S
C596 C594 1.478 . S
C596 C598 1.381 . S
C596 C602 1.383 . S
C597 C593 1.495 . S
C597 H603 0.959 . S
C597 H604 0.961 . S
C597 H605 0.960 . S
C598 C596 1.381 . S
C598 C599 1.394 . S
C598 H606 0.930 . S
C599 C598 1.394 . S
C599 C600 1.383 . S
C599 H607 0.929 . S
C600 C599 1.383 . S
C600 C601 1.377 . S
C601 H585 0.930 . S
C601 C600 1.377 . S
C601 C602 1.379 . S
C602 H586 0.931 . S
C602 C596 1.383 . S
C602 C601 1.379 . S
H603 C597 0.959 . S
H604 C597 0.961 . S
H605 C597 0.960 . S
H606 C598 0.930 . S
H607 C599 0.929 . S
H608 C616 0.929 . S
H609 C618 0.930 . S
H610 C620 0.930 . S
H611 C623 0.929 . S
H612 C626 0.930 . S
H613 C628 0.960 . S
H614 C628 0.960 . S
H615 C628 0.960 . S
C616 H608 0.929 . S
C616 C617 1.377 . S
C616 C618 1.384 . S
C617 C616 1.377 . S
C617 C623 1.390 . S
C618 H609 0.930 . S
C618 C616 1.384 . S
C618 C619 1.372 . S
C619 C618 1.372 . S
C619 C620 1.400 . S
C619 C624 1.490 . S
C620 H610 0.930 . S
C620 C619 1.400 . S
C620 C623 1.386 . S
H621 C637 0.930 . S
H622 C638 0.931 . S
C623 H611 0.929 . S
C623 C617 1.390 . S
C623 C620 1.386 . S
C624 C619 1.490 . S
C624 C626 1.395 . S
C624 C627 1.403 . S
H625 C631 0.930 . S
C626 H612 0.930 . S
C626 C624 1.395 . S
C626 C629 1.403 . S
C627 C624 1.403 . S
C627 C628 1.524 . S
C627 C631 1.400 . S
C628 H613 0.960 . S
C628 H614 0.960 . S
C628 H615 0.960 . S
C628 C627 1.524 . S
C629 C626 1.403 . S
C629 C630 1.392 . S
C629 C633 1.495 . S
C630 C629 1.392 . S
C630 C631 1.385 . S
C630 C632 1.478 . S
C631 H625 0.930 . S
C631 C627 1.400 . S
C631 C630 1.385 . S
C632 C630 1.478 . S
C632 C634 1.381 . S
C632 C638 1.383 . S
C633 C629 1.495 . S
C633 H639 0.959 . S
C633 H640 0.961 . S
C633 H641 0.960 . S
C634 C632 1.381 . S
C634 C635 1.394 . S
C634 H642 0.930 . S
C635 C634 1.394 . S
C635 C636 1.383 . S
C635 H643 0.929 . S
C636 C635 1.383 . S
C636 C637 1.377 . S
C637 H621 0.930 . S
C637 C636 1.377 . S
C637 C638 1.379 . S
C638 H622 0.931 . S
C638 C632 1.383 . S
C638 C637 1.379 . S
H639 C633 0.959 . S
H640 C633 0.961 . S
H641 C633 0.960 . S
H642 C634 0.930 . S
H643 C635 0.929 . S
H644 C652 0.929 . S
H645 C654 0.930 . S
H646 C656 0.930 . S
H647 C659 0.929 . S
H648 C662 0.930 . S
H649 C664 0.960 . S
H650 C664 0.960 . S
H651 C664 0.960 . S
C652 H644 0.929 . S
C652 C653 1.377 . S
C652 C654 1.384 . S
C653 C652 1.377 . S
C653 C659 1.390 . S
C654 H645 0.930 . S
C654 C652 1.384 . S
C654 C655 1.372 . S
C655 C654 1.372 . S
C655 C656 1.400 . S
C655 C660 1.490 . S
C656 H646 0.930 . S
C656 C655 1.400 . S
C656 C659 1.386 . S
H657 C673 0.930 . S
H658 C674 0.931 . S
C659 H647 0.929 . S
C659 C653 1.390 . S
C659 C656 1.386 . S
C660 C655 1.490 . S
C660 C662 1.395 . S
C660 C663 1.403 . S
H661 C667 0.930 . S
C662 H648 0.930 . S
C662 C660 1.395 . S
C662 C665 1.403 . S
C663 C660 1.403 . S
C663 C664 1.524 . S
C663 C667 1.400 . S
C664 H649 0.960 . S
C664 H650 0.960 . S
C664 H651 0.960 . S
C664 C663 1.524 . S
C665 C662 1.403 . S
C665 C666 1.392 . S
C665 C669 1.495 . S
C666 C665 1.392 . S
C666 C667 1.385 . S
C666 C668 1.478 . S
C667 H661 0.930 . S
C667 C663 1.400 . S
C667 C666 1.385 . S
C668 C666 1.478 . S
C668 C670 1.381 . S
C668 C674 1.383 . S
C669 C665 1.495 . S
C669 H675 0.959 . S
C669 H676 0.961 . S
C669 H677 0.960 . S
C670 C668 1.381 . S
C670 C671 1.394 . S
C670 H678 0.930 . S
C671 C670 1.394 . S
C671 C672 1.383 . S
C671 H679 0.929 . S
C672 C671 1.383 . S
C672 C673 1.377 . S
C673 H657 0.930 . S
C673 C672 1.377 . S
C673 C674 1.379 . S
C674 H658 0.931 . S
C674 C668 1.383 . S
C674 C673 1.379 . S
H675 C669 0.959 . S
H676 C669 0.961 . S
H677 C669 0.960 . S
H678 C670 0.930 . S
H679 C671 0.929 . S
H680 C688 0.929 . S
H681 C690 0.930 . S
H682 C692 0.930 . S
H683 C695 0.929 . S
H684 C698 0.930 . S
H685 C700 0.960 . S
H686 C700 0.960 . S
H687 C700 0.960 . S
C688 H680 0.929 . S
C688 C689 1.377 . S
C688 C690 1.384 . S
C689 C688 1.377 . S
C689 C695 1.390 . S
C690 H681 0.930 . S
C690 C688 1.384 . S
C690 C691 1.372 . S
C691 C690 1.372 . S
C691 C692 1.400 . S
C691 C696 1.490 . S
C692 H682 0.930 . S
C692 C691 1.400 . S
C692 C695 1.386 . S
H693 C709 0.930 . S
H694 C710 0.931 . S
C695 H683 0.929 . S
C695 C689 1.390 . S
C695 C692 1.386 . S
C696 C691 1.490 . S
C696 C698 1.395 . S
C696 C699 1.403 . S
H697 C703 0.930 . S
C698 H684 0.930 . S
C698 C696 1.395 . S
C698 C701 1.403 . S
C699 C696 1.403 . S
C699 C700 1.524 . S
C699 C703 1.400 . S
C700 H685 0.960 . S
C700 H686 0.960 . S
C700 H687 0.960 . S
C700 C699 1.524 . S
C701 C698 1.403 . S
C701 C702 1.392 . S
C701 C705 1.495 . S
C702 C701 1.392 . S
C702 C703 1.385 . S
C702 C704 1.478 . S
C703 H697 0.930 . S
C703 C699 1.400 . S
C703 C702 1.385 . S
C704 C702 1.478 . S
C704 C706 1.381 . S
C704 C710 1.383 . S
C705 C701 1.495 . S
C705 H711 0.959 . S
C705 H712 0.961 . S
C705 H713 0.960 . S
C706 C704 1.381 . S
C706 C707 1.394 . S
C706 H714 0.930 . S
C707 C706 1.394 . S
C707 C708 1.383 . S
C707 H715 0.929 . S
C708 C707 1.383 . S
C708 C709 1.377 . S
C709 H693 0.930 . S
C709 C708 1.377 . S
C709 C710 1.379 . S
C710 H694 0.931 . S
C710 C704 1.383 . S
C710 C709 1.379 . S
H711 C705 0.959 . S
H712 C705 0.961 . S
H713 C705 0.960 . S
H714 C706 0.930 . S
H715 C707 0.929 . S
H716 C724 0.929 . S
H717 C726 0.930 . S
H718 C728 0.930 . S
H719 C731 0.929 . S
H720 C734 0.930 . S
H721 C736 0.960 . S
H722 C736 0.960 . S
H723 C736 0.960 . S
C724 H716 0.929 . S
C724 C725 1.377 . S
C724 C726 1.384 . S
C725 C724 1.377 . S
C725 C731 1.390 . S
C726 H717 0.930 . S
C726 C724 1.384 . S
C726 C727 1.372 . S
C727 C726 1.372 . S
C727 C728 1.400 . S
C727 C732 1.490 . S
C728 H718 0.930 . S
C728 C727 1.400 . S
C728 C731 1.386 . S
H729 C745 0.930 . S
H730 C746 0.931 . S
C731 H719 0.929 . S
C731 C725 1.390 . S
C731 C728 1.386 . S
C732 C727 1.490 . S
C732 C734 1.395 . S
C732 C735 1.403 . S
H733 C739 0.930 . S
C734 H720 0.930 . S
C734 C732 1.395 . S
C734 C737 1.403 . S
C735 C732 1.403 . S
C735 C736 1.524 . S
C735 C739 1.400 . S
C736 H721 0.960 . S
C736 H722 0.960 . S
C736 H723 0.960 . S
C736 C735 1.524 . S
C737 C734 1.403 . S
C737 C738 1.392 . S
C737 C741 1.495 . S
C738 C737 1.392 . S
C738 C739 1.385 . S
C738 C740 1.478 . S
C739 H733 0.930 . S
C739 C735 1.400 . S
C739 C738 1.385 . S
C740 C738 1.478 . S
C740 C742 1.381 . S
C740 C746 1.383 . S
C741 C737 1.495 . S
C741 H747 0.959 . S
C741 H748 0.961 . S
C741 H749 0.960 . S
C742 C740 1.381 . S
C742 C743 1.394 . S
C742 H750 0.930 . S
C743 C742 1.394 . S
C743 C744 1.383 . S
C743 H751 0.929 . S
C744 C743 1.383 . S
C744 C745 1.377 . S
C745 H729 0.930 . S
C745 C744 1.377 . S
C745 C746 1.379 . S
C746 H730 0.931 . S
C746 C740 1.383 . S
C746 C745 1.379 . S
H747 C741 0.959 . S
H748 C741 0.961 . S
H749 C741 0.960 . S
H750 C742 0.930 . S
H751 C743 0.929 . S
H752 C760 0.929 . S
H753 C762 0.930 . S
H754 C764 0.930 . S
H755 C767 0.929 . S
H756 C770 0.930 . S
H757 C772 0.960 . S
H758 C772 0.960 . S
H759 C772 0.960 . S
C760 H752 0.929 . S
C760 C761 1.377 . S
C760 C762 1.384 . S
C761 C760 1.377 . S
C761 C767 1.390 . S
C762 H753 0.930 . S
C762 C760 1.384 . S
C762 C763 1.372 . S
C763 C762 1.372 . S
C763 C764 1.400 . S
C763 C768 1.490 . S
C764 H754 0.930 . S
C764 C763 1.400 . S
C764 C767 1.386 . S
H765 C781 0.930 . S
H766 C782 0.931 . S
C767 H755 0.929 . S
C767 C761 1.390 . S
C767 C764 1.386 . S
C768 C763 1.490 . S
C768 C770 1.395 . S
C768 C771 1.403 . S
H769 C775 0.930 . S
C770 H756 0.930 . S
C770 C768 1.395 . S
C770 C773 1.403 . S
C771 C768 1.403 . S
C771 C772 1.524 . S
C771 C775 1.400 . S
C772 H757 0.960 . S
C772 H758 0.960 . S
C772 H759 0.960 . S
C772 C771 1.524 . S
C773 C770 1.403 . S
C773 C774 1.392 . S
C773 C777 1.495 . S
C774 C773 1.392 . S
C774 C775 1.385 . S
C774 C776 1.478 . S
C775 H769 0.930 . S
C775 C771 1.400 . S
C775 C774 1.385 . S
C776 C774 1.478 . S
C776 C778 1.381 . S
C776 C782 1.383 . S
C777 C773 1.495 . S
C777 H783 0.959 . S
C777 H784 0.961 . S
C777 H785 0.960 . S
C778 C776 1.381 . S
C778 C779 1.394 . S
C778 H786 0.930 . S
C779 C778 1.394 . S
C779 C780 1.383 . S
C779 H787 0.929 . S
C780 C779 1.383 . S
C780 C781 1.377 . S
C781 H765 0.930 . S
C781 C780 1.377 . S
C781 C782 1.379 . S
C782 H766 0.931 . S
C782 C776 1.383 . S
C782 C781 1.379 . S
H783 C777 0.959 . S
H784 C777 0.961 . S
H785 C777 0.960 . S
H786 C778 0.930 . S
H787 C779 0.929 . S
H788 C796 0.929 . S
H789 C798 0.930 . S
H790 C800 0.930 . S
H791 C803 0.929 . S
H792 C806 0.930 . S
H793 C808 0.960 . S
H794 C808 0.960 . S
H795 C808 0.960 . S
C796 H788 0.929 . S
C796 C797 1.377 . S
C796 C798 1.384 . S
C797 C796 1.377 . S
C797 C803 1.390 . S
C798 H789 0.930 . S
C798 C796 1.384 . S
C798 C799 1.372 . S
C799 C798 1.372 . S
C799 C800 1.400 . S
C799 C804 1.490 . S
C800 H790 0.930 . S
C800 C799 1.400 . S
C800 C803 1.386 . S
H801 C817 0.930 . S
H802 C818 0.931 . S
C803 H791 0.929 . S
C803 C797 1.390 . S
C803 C800 1.386 . S
C804 C799 1.490 . S
C804 C806 1.395 . S
C804 C807 1.403 . S
H805 C811 0.930 . S
C806 H792 0.930 . S
C806 C804 1.395 . S
C806 C809 1.403 . S
C807 C804 1.403 . S
C807 C808 1.524 . S
C807 C811 1.400 . S
C808 H793 0.960 . S
C808 H794 0.960 . S
C808 H795 0.960 . S
C808 C807 1.524 . S
C809 C806 1.403 . S
C809 C810 1.392 . S
C809 C813 1.495 . S
C810 C809 1.392 . S
C810 C811 1.385 . S
C810 C812 1.478 . S
C811 H805 0.930 . S
C811 C807 1.400 . S
C811 C810 1.385 . S
C812 C810 1.478 . S
C812 C814 1.381 . S
C812 C818 1.383 . S
C813 C809 1.495 . S
C813 H819 0.959 . S
C813 H820 0.961 . S
C813 H821 0.960 . S
C814 C812 1.381 . S
C814 C815 1.394 . S
C814 H822 0.930 . S
C815 C814 1.394 . S
C815 C816 1.383 . S
C815 H823 0.929 . S
C816 C815 1.383 . S
C816 C817 1.377 . S
C817 H801 0.930 . S
C817 C816 1.377 . S
C817 C818 1.379 . S
C818 H802 0.931 . S
C818 C812 1.383 . S
C818 C817 1.379 . S
H819 C813 0.959 . S
H820 C813 0.961 . S
H821 C813 0.960 . S
H822 C814 0.930 . S
H823 C815 0.929 . S
H824 C832 0.929 . S
H825 C834 0.930 . S
H826 C836 0.930 . S
H827 C839 0.929 . S
H828 C842 0.930 . S
H829 C844 0.960 . S
H830 C844 0.960 . S
H831 C844 0.960 . S
C832 H824 0.929 . S
C832 C833 1.377 . S
C832 C834 1.384 . S
C833 C832 1.377 . S
C833 C839 1.390 . S
C834 H825 0.930 . S
C834 C832 1.384 . S
C834 C835 1.372 . S
C835 C834 1.372 . S
C835 C836 1.400 . S
C835 C840 1.490 . S
C836 H826 0.930 . S
C836 C835 1.400 . S
C836 C839 1.386 . S
H837 C853 0.930 . S
H838 C854 0.931 . S
C839 H827 0.929 . S
C839 C833 1.390 . S
C839 C836 1.386 . S
C840 C835 1.490 . S
C840 C842 1.395 . S
C840 C843 1.403 . S
H841 C847 0.930 . S
C842 H828 0.930 . S
C842 C840 1.395 . S
C842 C845 1.403 . S
C843 C840 1.403 . S
C843 C844 1.524 . S
C843 C847 1.400 . S
C844 H829 0.960 . S
C844 H830 0.960 . S
C844 H831 0.960 . S
C844 C843 1.524 . S
C845 C842 1.403 . S
C845 C846 1.392 . S
C845 C849 1.495 . S
C846 C845 1.392 . S
C846 C847 1.385 . S
C846 C848 1.478 . S
C847 H841 0.930 . S
C847 C843 1.400 . S
C847 C846 1.385 . S
C848 C846 1.478 . S
C848 C850 1.381 . S
C848 C854 1.383 . S
C849 C845 1.495 . S
C849 H855 0.959 . S
C849 H856 0.961 . S
C849 H857 0.960 . S
C850 C848 1.381 . S
C850 C851 1.394 . S
C850 H858 0.930 . S
C851 C850 1.394 . S
C851 C852 1.383 . S
C851 H859 0.929 . S
C852 C851 1.383 . S
C852 C853 1.377 . S
C853 H837 0.930 . S
C853 C852 1.377 . S
C853 C854 1.379 . S
C854 H838 0.931 . S
C854 C848 1.383 . S
C854 C853 1.379 . S
H855 C849 0.959 . S
H856 C849 0.961 . S
H857 C849 0.960 . S
H858 C850 0.930 . S
H859 C851 0.929 . S
H860 C868 0.929 . S
H861 C870 0.930 . S
H862 C872 0.930 . S
H863 C875 0.929 . S
H864 C878 0.930 . S
H865 C880 0.960 . S
H866 C880 0.960 . S
H867 C880 0.960 . S
C868 H860 0.929 . S
C868 C869 1.377 . S
C868 C870 1.384 . S
C869 C868 1.377 . S
C869 C875 1.390 . S
C870 H861 0.930 . S
C870 C868 1.384 . S
C870 C871 1.372 . S
C871 C870 1.372 . S
C871 C872 1.400 . S
C871 C876 1.490 . S
C872 H862 0.930 . S
C872 C871 1.400 . S
C872 C875 1.386 . S
H873 C889 0.930 . S
H874 C890 0.931 . S
C875 H863 0.929 . S
C875 C869 1.390 . S
C875 C872 1.386 . S
C876 C871 1.490 . S
C876 C878 1.395 . S
C876 C879 1.403 . S
H877 C883 0.930 . S
C878 H864 0.930 . S
C878 C876 1.395 . S
C878 C881 1.403 . S
C879 C876 1.403 . S
C879 C880 1.524 . S
C879 C883 1.400 . S
C880 H865 0.960 . S
C880 H866 0.960 . S
C880 H867 0.960 . S
C880 C879 1.524 . S
C881 C878 1.403 . S
C881 C882 1.392 . S
C881 C885 1.495 . S
C882 C881 1.392 . S
C882 C883 1.385 . S
C882 C884 1.478 . S
C883 H877 0.930 . S
C883 C879 1.400 . S
C883 C882 1.385 . S
C884 C882 1.478 . S
C884 C886 1.381 . S
C884 C890 1.383 . S
C885 C881 1.495 . S
C885 H891 0.959 . S
C885 H892 0.961 . S
C885 H893 0.960 . S
C886 C884 1.381 . S
C886 C887 1.394 . S
C886 H894 0.930 . S
C887 C886 1.394 . S
C887 C888 1.383 . S
C887 H895 0.929 . S
C888 C887 1.383 . S
C888 C889 1.377 . S
C889 H873 0.930 . S
C889 C888 1.377 . S
C889 C890 1.379 . S
C890 H874 0.931 . S
C890 C884 1.383 . S
C890 C889 1.379 . S
H891 C885 0.959 . S
H892 C885 0.961 . S
H893 C885 0.960 . S
H894 C886 0.930 . S
H895 C887 0.929 . S
H896 C904 0.929 . S
H897 C906 0.930 . S
H898 C908 0.930 . S
H899 C911 0.929 . S
H900 C914 0.930 . S
H901 C916 0.960 . S
H902 C916 0.960 . S
H903 C916 0.960 . S
C904 H896 0.929 . S
C904 C905 1.377 . S
C904 C906 1.384 . S
C905 C904 1.377 . S
C905 C911 1.390 . S
C906 H897 0.930 . S
C906 C904 1.384 . S
C906 C907 1.372 . S
C907 C906 1.372 . S
C907 C908 1.400 . S
C907 C912 1.490 . S
C908 H898 0.930 . S
C908 C907 1.400 . S
C908 C911 1.386 . S
H909 C925 0.930 . S
H910 C926 0.931 . S
C911 H899 0.929 . S
C911 C905 1.390 . S
C911 C908 1.386 . S
C912 C907 1.490 . S
C912 C914 1.395 . S
C912 C915 1.403 . S
H913 C919 0.930 . S
C914 H900 0.930 . S
C914 C912 1.395 . S
C914 C917 1.403 . S
C915 C912 1.403 . S
C915 C916 1.524 . S
C915 C919 1.400 . S
C916 H901 0.960 . S
C916 H902 0.960 . S
C916 H903 0.960 . S
C916 C915 1.524 . S
C917 C914 1.403 . S
C917 C918 1.392 . S
C917 C921 1.495 . S
C918 C917 1.392 . S
C918 C919 1.385 . S
C918 C920 1.478 . S
C919 H913 0.930 . S
C919 C915 1.400 . S
C919 C918 1.385 . S
C920 C918 1.478 . S
C920 C922 1.381 . S
C920 C926 1.383 . S
C921 C917 1.495 . S
C921 H927 0.959 . S
C921 H928 0.961 . S
C921 H929 0.960 . S
C922 C920 1.381 . S
C922 C923 1.394 . S
C922 H930 0.930 . S
C923 C922 1.394 . S
C923 C924 1.383 . S
C923 H931 0.929 . S
C924 C923 1.383 . S
C924 C925 1.377 . S
C925 H909 0.930 . S
C925 C924 1.377 . S
C925 C926 1.379 . S
C926 H910 0.931 . S
C926 C920 1.383 . S
C926 C925 1.379 . S
H927 C921 0.959 . S
H928 C921 0.961 . S
H929 C921 0.960 . S
H930 C922 0.930 . S
H931 C923 0.929 . S
H932 C940 0.929 . S
H933 C942 0.930 . S
H934 C944 0.930 . S
H935 C947 0.929 . S
H936 C950 0.930 . S
H937 C952 0.960 . S
H938 C952 0.960 . S
H939 C952 0.960 . S
C940 H932 0.929 . S
C940 C941 1.377 . S
C940 C942 1.384 . S
C941 C940 1.377 . S
C941 C947 1.390 . S
C942 H933 0.930 . S
C942 C940 1.384 . S
C942 C943 1.372 . S
C943 C942 1.372 . S
C943 C944 1.400 . S
C943 C948 1.490 . S
C944 H934 0.930 . S
C944 C943 1.400 . S
C944 C947 1.386 . S
H945 C961 0.930 . S
H946 C962 0.931 . S
C947 H935 0.929 . S
C947 C941 1.390 . S
C947 C944 1.386 . S
C948 C943 1.490 . S
C948 C950 1.395 . S
C948 C951 1.403 . S
H949 C955 0.930 . S
C950 H936 0.930 . S
C950 C948 1.395 . S
C950 C953 1.403 . S
C951 C948 1.403 . S
C951 C952 1.524 . S
C951 C955 1.400 . S
C952 H937 0.960 . S
C952 H938 0.960 . S
C952 H939 0.960 . S
C952 C951 1.524 . S
C953 C950 1.403 . S
C953 C954 1.392 . S
C953 C957 1.495 . S
C954 C953 1.392 . S
C954 C955 1.385 . S
C954 C956 1.478 . S
C955 H949 0.930 . S
C955 C951 1.400 . S
C955 C954 1.385 . S
C956 C954 1.478 . S
C956 C958 1.381 . S
C956 C962 1.383 . S
C957 C953 1.495 . S
C957 H963 0.959 . S
C957 H964 0.961 . S
C957 H965 0.960 . S
C958 C956 1.381 . S
C958 C959 1.394 . S
C958 H966 0.930 . S
C959 C958 1.394 . S
C959 C960 1.383 . S
C959 H967 0.929 . S
C960 C959 1.383 . S
C960 C961 1.377 . S
C961 H945 0.930 . S
C961 C960 1.377 . S
C961 C962 1.379 . S
C962 H946 0.931 . S
C962 C956 1.383 . S
C962 C961 1.379 . S
H963 C957 0.959 . S
H964 C957 0.961 . S
H965 C957 0.960 . S
H966 C958 0.930 . S
H967 C959 0.929 . S
H968 C976 0.929 . S
H969 C978 0.930 . S
H970 C980 0.930 . S
H971 C983 0.929 . S
H972 C986 0.930 . S
H973 C988 0.960 . S
H974 C988 0.960 . S
H975 C988 0.960 . S
C976 H968 0.929 . S
C976 C977 1.377 . S
C976 C978 1.384 . S
C977 C976 1.377 . S
C977 C983 1.390 . S
C978 H969 0.930 . S
C978 C976 1.384 . S
C978 C979 1.372 . S
C979 C978 1.372 . S
C979 C980 1.400 . S
C979 C984 1.490 . S
C980 H970 0.930 . S
C980 C979 1.400 . S
C980 C983 1.386 . S
H981 C997 0.930 . S
H982 C998 0.931 . S
C983 H971 0.929 . S
C983 C977 1.390 . S
C983 C980 1.386 . S
C984 C979 1.490 . S
C984 C986 1.395 . S
C984 C987 1.403 . S
H985 C991 0.930 . S
C986 H972 0.930 . S
C986 C984 1.395 . S
C986 C989 1.403 . S
C987 C984 1.403 . S
C987 C988 1.524 . S
C987 C991 1.400 . S
C988 H973 0.960 . S
C988 H974 0.960 . S
C988 H975 0.960 . S
C988 C987 1.524 . S
C989 C986 1.403 . S
C989 C990 1.392 . S
C989 C993 1.495 . S
C990 C989 1.392 . S
C990 C991 1.385 . S
C990 C992 1.478 . S
C991 H985 0.930 . S
C991 C987 1.400 . S
C991 C990 1.385 . S
C992 C990 1.478 . S
C992 C994 1.381 . S
C992 C998 1.383 . S
C993 C989 1.495 . S
C993 H999 0.959 . S
C993 H1000 0.961 . S
C993 H1001 0.960 . S
C994 C992 1.381 . S
C994 C995 1.394 . S
C994 H1002 0.930 . S
C995 C994 1.394 . S
C995 C996 1.383 . S
C995 H1003 0.929 . S
C996 C995 1.383 . S
C996 C997 1.377 . S
C997 H981 0.930 . S
C997 C996 1.377 . S
C997 C998 1.379 . S
C998 H982 0.931 . S
C998 C992 1.383 . S
C998 C997 1.379 . S
H999 C993 0.959 . S
H1000 C993 0.961 . S
H1001 C993 0.960 . S
H1002 C994 0.930 . S
H1003 C995 0.929 . S
H1004 C1012 0.929 . S
H1005 C1014 0.930 . S
H1006 C1016 0.930 . S
H1007 C1019 0.929 . S
H1008 C1022 0.930 . S
H1009 C1024 0.960 . S
H1010 C1024 0.960 . S
H1011 C1024 0.960 . S
C1012 H1004 0.929 . S
C1012 C1013 1.377 . S
C1012 C1014 1.384 . S
C1013 C1012 1.377 . S
C1013 C1019 1.390 . S
C1014 H1005 0.930 . S
C1014 C1012 1.384 . S
C1014 C1015 1.372 . S
C1015 C1014 1.372 . S
C1015 C1016 1.400 . S
C1015 C1020 1.490 . S
C1016 H1006 0.930 . S
C1016 C1015 1.400 . S
C1016 C1019 1.386 . S
H1017 C1033 0.930 . S
H1018 C1034 0.931 . S
C1019 H1007 0.929 . S
C1019 C1013 1.390 . S
C1019 C1016 1.386 . S
C1020 C1015 1.490 . S
C1020 C1022 1.395 . S
C1020 C1023 1.403 . S
H1021 C1027 0.930 . S
C1022 H1008 0.930 . S
C1022 C1020 1.395 . S
C1022 C1025 1.403 . S
C1023 C1020 1.403 . S
C1023 C1024 1.524 . S
C1023 C1027 1.400 . S
C1024 H1009 0.960 . S
C1024 H1010 0.960 . S
C1024 H1011 0.960 . S
C1024 C1023 1.524 . S
C1025 C1022 1.403 . S
C1025 C1026 1.392 . S
C1025 C1029 1.495 . S
C1026 C1025 1.392 . S
C1026 C1027 1.385 . S
C1026 C1028 1.478 . S
C1027 H1021 0.930 . S
C1027 C1023 1.400 . S
C1027 C1026 1.385 . S
C1028 C1026 1.478 . S
C1028 C1030 1.381 . S
C1028 C1034 1.383 . S
C1029 C1025 1.495 . S
C1029 H1035 0.959 . S
C1029 H1036 0.961 . S
C1029 H1037 0.960 . S
C1030 C1028 1.381 . S
C1030 C1031 1.394 . S
C1030 H1038 0.930 . S
C1031 C1030 1.394 . S
C1031 C1032 1.383 . S
C1031 H1039 0.929 . S
C1032 C1031 1.383 . S
C1032 C1033 1.377 . S
C1033 H1017 0.930 . S
C1033 C1032 1.377 . S
C1033 C1034 1.379 . S
C1034 H1018 0.931 . S
C1034 C1028 1.383 . S
C1034 C1033 1.379 . S
H1035 C1029 0.959 . S
H1036 C1029 0.961 . S
H1037 C1029 0.960 . S
H1038 C1030 0.930 . S
H1039 C1031 0.929 . S
C185 C6 1.613 . S
C204 C115 1.603 . S
C221 C18 1.625 . S
C240 C118 1.581 . S
C276 C154 1.776 . S
C257 C28 1.788 . S
C293 C40 0.981 . S
C312 C174 0.994 . S
C348 C128 2.020 . S
C329 C9 2.048 . S
C384 C105 1.486 . S
C365 C16 1.514 . S
C420 C158 1.393 . S
C401 C30 1.543 . S
C456 C138 1.084 . S
C437 C42 1.106 . S
C473 C4 1.347 . S
C492 C168 1.313 . S
C528 C134 1.737 . S
C509 C33 1.763 . S
C545 C45 1.445 . S
C564 C100 1.356 . S
C581 C21 1.589 . S
C600 C148 1.563 . S
C636 C114 1.621 . S
C617 C57 1.647 . S
C653 C66 1.598 . S
C672 C120 1.515 . S
C689 C76 1.809 . S
C708 C155 1.797 . S
C725 C88 0.907 . S
C744 C175 0.924 . S
C761 C54 2.023 . S
C780 C125 2.009 . S
C816 C108 1.559 . S
C797 C64 1.574 . S
C852 C160 1.337 . S
C833 C78 1.456 . S
C888 C140 1.080 . S
C869 C93 1.150 . S
C905 C52 1.313 . S
C924 C165 1.259 . S
C960 C135 1.753 . S
C941 C81 1.756 . S
C996 C98 1.336 . S
C977 C90 1.411 . S
C1013 C69 1.613 . S
C1032 C145 1.548 . S
