# Generated by pormake.
# Topology hwx, (6,3)-cn, num edge types: 1
# Building blocks:
#     Node 0, Type 0, BuildingBlock: OJICUG_clean_sbu_0, # of connection points: 6
#     Node 1, Type 0, BuildingBlock: OJICUG_clean_sbu_0, # of connection points: 6
#     Node 2, Type 0, BuildingBlock: OJICUG_clean_sbu_0, # of connection points: 6
#     Node 3, Type 0, BuildingBlock: OJICUG_clean_sbu_0, # of connection points: 6
#     Node 4, Type 1, BuildingBlock: QEWDON_clean_linker_0, # of connection points: 3
#     Node 5, Type 1, BuildingBlock: QEWDON_clean_linker_0, # of connection points: 3
#     Node 6, Type 1, BuildingBlock: QEWDON_clean_linker_0, # of connection points: 3
#     Node 7, Type 1, BuildingBlock: QEWDON_clean_linker_0, # of connection points: 3
#     Node 8, Type 1, BuildingBlock: QEWDON_clean_linker_0, # of connection points: 3
#     Node 9, Type 1, BuildingBlock: QEWDON_clean_linker_0, # of connection points: 3
#     Node 10, Type 1, BuildingBlock: QEWDON_clean_linker_0, # of connection points: 3
#     Node 11, Type 1, BuildingBlock: QEWDON_clean_linker_0, # of connection points: 3
#     Edge 12, Type (0, 1), BuildingBlock: KIFKEQ_clean_linker_1, # of connection points: 2
#     Edge 13, Type (0, 1), BuildingBlock: KIFKEQ_clean_linker_1, # of connection points: 2
#     Edge 14, Type (0, 1), BuildingBlock: KIFKEQ_clean_linker_1, # of connection points: 2
#     Edge 15, Type (0, 1), BuildingBlock: KIFKEQ_clean_linker_1, # of connection points: 2
#     Edge 16, Type (0, 1), BuildingBlock: KIFKEQ_clean_linker_1, # of connection points: 2
#     Edge 17, Type (0, 1), BuildingBlock: KIFKEQ_clean_linker_1, # of connection points: 2
#     Edge 18, Type (0, 1), BuildingBlock: KIFKEQ_clean_linker_1, # of connection points: 2
#     Edge 19, Type (0, 1), BuildingBlock: KIFKEQ_clean_linker_1, # of connection points: 2
#     Edge 20, Type (0, 1), BuildingBlock: KIFKEQ_clean_linker_1, # of connection points: 2
#     Edge 21, Type (0, 1), BuildingBlock: KIFKEQ_clean_linker_1, # of connection points: 2
#     Edge 22, Type (0, 1), BuildingBlock: KIFKEQ_clean_linker_1, # of connection points: 2
#     Edge 23, Type (0, 1), BuildingBlock: KIFKEQ_clean_linker_1, # of connection points: 2
#     Edge 24, Type (0, 1), BuildingBlock: KIFKEQ_clean_linker_1, # of connection points: 2
#     Edge 25, Type (0, 1), BuildingBlock: KIFKEQ_clean_linker_1, # of connection points: 2
#     Edge 26, Type (0, 1), BuildingBlock: KIFKEQ_clean_linker_1, # of connection points: 2
#     Edge 27, Type (0, 1), BuildingBlock: KIFKEQ_clean_linker_1, # of connection points: 2
#     Edge 28, Type (0, 1), BuildingBlock: KIFKEQ_clean_linker_1, # of connection points: 2
#     Edge 29, Type (0, 1), BuildingBlock: KIFKEQ_clean_linker_1, # of connection points: 2
#     Edge 30, Type (0, 1), BuildingBlock: KIFKEQ_clean_linker_1, # of connection points: 2
#     Edge 31, Type (0, 1), BuildingBlock: KIFKEQ_clean_linker_1, # of connection points: 2
#     Edge 32, Type (0, 1), BuildingBlock: KIFKEQ_clean_linker_1, # of connection points: 2
#     Edge 33, Type (0, 1), BuildingBlock: KIFKEQ_clean_linker_1, # of connection points: 2
#     Edge 34, Type (0, 1), BuildingBlock: KIFKEQ_clean_linker_1, # of connection points: 2
#     Edge 35, Type (0, 1), BuildingBlock: KIFKEQ_clean_linker_1, # of connection points: 2
# Relax obj value: 0.002
# Max RMSD: 0.100
# Mean RMSD: 0.077
data_MOF--net-hwx--node1-OJICUG_clean_sbu_0--node2-QEWDON_clean_linker_0--edge1-KIFKEQ_clean_linker_1
_symmetry_space_group_name_H-M    P1
_symmetry_Int_Tables_number       1
_symmetry_cell_setting            triclinic
loop_
_symmetry_equiv_pos_as_xyz
'x, y, z'
_cell_length_a     56.31125
_cell_length_b     56.352584
_cell_length_c     20.429749
_cell_angle_alpha  92.516955
_cell_angle_beta   92.559269
_cell_angle_gamma 90.047327
loop_
_atom_site_label
_atom_site_type_symbol
_atom_site_fract_x
_atom_site_fract_y
_atom_site_fract_z
_atom_type_partial_charge
Sc0 Sc 0.23424 0.23919 0.08695 0.0
Sc1 Sc 0.19389 0.20254 -0.00829 0.0
Sc2 Sc 0.23484 0.23785 0.91407 0.0
O3 O 0.22103 0.22655 -0.00238 0.0
C4 C 0.23458 0.28591 0.00299 0.0
C5 C 0.17806 0.23851 0.1065 0.0
C6 C 0.17929 0.23547 0.87375 0.0
C7 C 0.22537 0.1844 0.11315 0.0
C8 C 0.2817 0.23287 0.00747 0.0
C9 C 0.22715 0.18228 0.88007 0.0
O10 O 0.23505 0.27544 0.05698 0.0
O11 O 0.17392 0.22265 0.06138 0.0
O12 O 0.20031 0.24288 0.8665 0.0
O13 O 0.23541 0.20433 0.12689 0.0
O14 O 0.27096 0.23445 0.95173 0.0
O15 O 0.21095 0.17998 0.92067 0.0
O16 O 0.27086 0.23372 0.06096 0.0
O17 O 0.21 0.18124 0.06617 0.0
O18 O 0.23746 0.20201 0.87222 0.0
O19 O 0.19894 0.24619 0.12234 0.0
O20 O 0.23395 0.27472 0.94745 0.0
O21 O 0.17436 0.2209 0.91681 0.0
Sc22 Sc 0.27227 0.74178 0.41468 0.0
Sc23 Sc 0.31156 0.70465 0.50135 0.0
Sc24 Sc 0.2742 0.74357 0.58826 0.0
O25 O 0.28598 0.73003 0.50143 0.0
C26 C 0.27649 0.78994 0.50405 0.0
C27 C 0.32751 0.73724 0.38713 0.0
C28 C 0.33011 0.73915 0.62063 0.0
C29 C 0.2771 0.68596 0.38207 0.0
C30 C 0.22597 0.73905 0.49905 0.0
C31 C 0.27919 0.68837 0.61567 0.0
O32 O 0.27452 0.7786 0.4488 0.0
O33 O 0.3315 0.72201 0.43026 0.0
O34 O 0.30974 0.74773 0.63217 0.0
O35 O 0.26836 0.70626 0.37061 0.0
O36 O 0.23736 0.74106 0.55426 0.0
O37 O 0.29441 0.68452 0.57245 0.0
O38 O 0.23618 0.73882 0.44471 0.0
O39 O 0.29274 0.68282 0.42753 0.0
O40 O 0.27029 0.70879 0.62751 0.0
O41 O 0.30701 0.74599 0.37537 0.0
O42 O 0.27686 0.77969 0.55835 0.0
O43 O 0.33333 0.72356 0.57515 0.0
Sc44 Sc 0.77758 0.77946 0.92035 0.0
Sc45 Sc 0.81392 0.82071 0.01295 0.0
Sc46 Sc 0.77772 0.78135 0.09352 0.0
O47 O 0.78971 0.7938 0.00891 0.0
C48 C 0.73022 0.78082 0.00183 0.0
C49 C 0.77919 0.83494 0.89336 0.0
C50 C 0.78002 0.83738 0.12689 0.0
C51 C 0.83275 0.78732 0.89646 0.0
C52 C 0.78301 0.73329 0.00539 0.0
C53 C 0.83314 0.78915 0.1298 0.0
O54 O 0.74104 0.7796 0.94839 0.0
O55 O 0.79465 0.83968 0.93922 0.0
O56 O 0.77247 0.81661 0.1369 0.0
O57 O 0.81278 0.77731 0.8826 0.0
O58 O 0.78126 0.74467 0.06015 0.0
O59 O 0.83582 0.80472 0.08759 0.0
O60 O 0.78241 0.74345 0.9509 0.0
O61 O 0.83571 0.80327 0.94196 0.0
O62 O 0.81327 0.77909 0.13765 0.0
O63 O 0.77133 0.814 0.87995 0.0
O64 O 0.74108 0.78196 0.05787 0.0
O65 O 0.79494 0.84139 0.08392 0.0
Sc66 Sc 0.73204 0.28623 0.5911 0.0
Sc67 Sc 0.69214 0.32216 0.50242 0.0
Sc68 Sc 0.72964 0.2824 0.4179 0.0
O69 O 0.71798 0.2969 0.50377 0.0
C70 C 0.77825 0.28729 0.50524 0.0
C71 C 0.72676 0.34222 0.61985 0.0
C72 C 0.72403 0.33736 0.38603 0.0
C73 C 0.67668 0.29088 0.6197 0.0
C74 C 0.7285 0.237 0.5066 0.0
C75 C 0.67364 0.28645 0.38564 0.0
O76 O 0.76819 0.28802 0.5599 0.0
O77 O 0.71055 0.34467 0.57548 0.0
O78 O 0.73291 0.31683 0.37565 0.0
O79 O 0.69738 0.28261 0.63174 0.0
O80 O 0.72821 0.24644 0.45104 0.0
O81 O 0.67058 0.30278 0.42922 0.0
O82 O 0.72965 0.24918 0.5606 0.0
O83 O 0.67226 0.30537 0.57489 0.0
O84 O 0.6939 0.2773 0.37563 0.0
O85 O 0.73628 0.32226 0.63129 0.0
O86 O 0.76661 0.28548 0.45036 0.0
O87 O 0.70909 0.34172 0.42972 0.0
H88 H 0.26232 0.52373 0.08167 0.0
C89 C 0.25834 0.53312 0.03731 0.0
C90 C 0.24947 0.55644 0.04158 0.0
C91 C 0.26388 0.52263 0.97626 0.0
H92 H 0.23996 0.5872 0.98738 0.0
C93 C 0.24544 0.56876 0.9839 0.0
C94 C 0.25128 0.55867 0.92276 0.0
C95 C 0.26032 0.53546 0.91927 0.0
C96 C 0.27714 0.50005 0.97303 0.0
H97 H 0.26555 0.52769 0.8726 0.0
C98 C 0.26651 0.47843 0.98775 0.0
C99 C 0.27972 0.45721 0.98486 0.0
C100 C 0.30093 0.50034 0.95537 0.0
H101 H 0.30938 0.51685 0.94394 0.0
C102 C 0.3141 0.47942 0.95305 0.0
H103 H 0.24811 0.47814 0.00118 0.0
C104 C 0.30363 0.45799 0.96775 0.0
H105 H 0.31411 0.4419 0.96452 0.0
H106 H 0.33246 0.47979 0.93953 0.0
H107 H 0.98778 0.72752 0.4175 0.0
C108 C 0.97991 0.73337 0.4629 0.0
C109 C 0.96002 0.74838 0.46139 0.0
C110 C 0.98909 0.72522 0.52295 0.0
H111 H 0.93392 0.76646 0.51898 0.0
C112 C 0.94978 0.75553 0.52029 0.0
C113 C 0.9584 0.74707 0.58023 0.0
C114 C 0.97803 0.73175 0.58134 0.0
C115 C 0.00924 0.70854 0.52443 0.0
H116 H 0.98462 0.72486 0.62741 0.0
C117 C 0.03232 0.71629 0.51249 0.0
C118 C 0.05157 0.70036 0.51532 0.0
C119 C 1.0054 0.6848 0.53902 0.0
H120 H 0.98772 0.67861 0.54859 0.0
C121 C 0.02433 0.66887 0.54095 0.0
H122 H 0.03526 0.73468 0.50151 0.0
C123 C 0.04727 0.67653 0.52921 0.0
H124 H 0.06175 0.66393 0.53244 0.0
H125 H 0.02126 0.65055 0.55214 0.0
H126 H 0.78874 0.49632 0.9292 0.0
C127 C 0.78261 0.48756 0.97154 0.0
C128 C 0.76782 0.46749 0.96268 0.0
C129 C 0.79027 0.49569 0.03509 0.0
H130 H 0.74952 0.44007 0.0107 0.0
C131 C 0.76034 0.456 0.01762 0.0
C132 C 0.7683 0.46352 0.08105 0.0
C133 C 0.78345 0.48331 0.08963 0.0
C134 C 0.80694 0.51595 0.04439 0.0
H135 H 0.78994 0.48905 0.13855 0.0
C136 C 0.8 0.53896 0.02747 0.0
C137 C 0.81605 0.55815 0.03702 0.0
C138 C 0.82998 0.51219 0.07079 0.0
H139 H 0.83559 0.4946 0.08416 0.0
C140 C 0.84603 0.53104 0.07946 0.0
H141 H 0.78215 0.54192 0.00743 0.0
C142 C 0.83917 0.55386 0.06271 0.0
H143 H 0.85182 0.56828 0.07126 0.0
H144 H 0.8638 0.528 0.0997 0.0
H145 H 0.02339 0.25358 0.57012 0.0
C146 C 0.03 0.26042 0.52559 0.0
C147 C 0.05359 0.26851 0.52473 0.0
C148 C 0.01569 0.25879 0.46733 0.0
H149 H 0.08042 0.28228 0.46512 0.0
C150 C 0.06213 0.27632 0.46594 0.0
C151 C 0.04863 0.27358 0.40682 0.0
C152 C 0.02521 0.265 0.40789 0.0
C153 C 0.99298 0.24567 0.46629 0.0
H154 H 0.01489 0.26185 0.36225 0.0
C155 C 0.97129 0.25724 0.47767 0.0
C156 C 0.95008 0.24393 0.4789 0.0
C157 C 0.99333 0.22094 0.45519 0.0
H158 H 0.00989 0.21181 0.44634 0.0
C159 C 0.9724 0.20778 0.45582 0.0
H160 H 0.97101 0.27634 0.48658 0.0
C161 C 0.95093 0.21913 0.46777 0.0
H162 H 0.93488 0.20851 0.46757 0.0
H163 H 0.97281 0.1887 0.44715 0.0
H164 H 0.75919 0.99841 0.42401 0.0
C165 C 0.7548 0.98906 0.46714 0.0
C166 C 0.7465 0.96549 0.46049 0.0
C167 C 0.75923 0.99993 0.52966 0.0
H168 H 0.73717 0.93459 0.51215 0.0
C169 C 0.74209 0.95321 0.51704 0.0
C170 C 0.74696 0.96362 0.57982 0.0
C171 C 0.75529 0.98717 0.58571 0.0
C172 C 0.77247 0.02256 0.53682 0.0
H173 H 0.75988 0.9952 0.63382 0.0
C174 C 0.76107 0.0446 0.53007 0.0
C175 C 0.77416 0.0659 0.54042 0.0
C176 C 0.79696 0.02187 0.55239 0.0
H177 H 0.80597 1.00503 0.55769 0.0
C178 C 0.81003 0.04285 0.56123 0.0
H179 H 0.74208 0.04514 0.51887 0.0
C180 C 0.79876 0.06471 0.5555 0.0
H181 H 0.80933 0.08076 0.56265 0.0
H182 H 0.82895 0.04217 0.57296 0.0
H183 H 0.5197 0.22347 0.07675 0.0
C184 C 0.52813 0.22961 0.03388 0.0
C185 C 0.54846 0.24407 0.04162 0.0
C186 C 0.51922 0.22237 0.9707 0.0
H187 H 0.57552 0.26233 -0.00789 0.0
C188 C 0.55945 0.25167 0.98606 0.0
C189 C 0.55117 0.24413 0.92295 0.0
C190 C 0.53113 0.22926 0.91537 0.0
C191 C 0.49849 0.20622 0.96254 0.0
H192 H 0.52479 0.22312 0.86665 0.0
C193 C 0.47591 0.2135 0.98256 0.0
C194 C 0.45625 0.19795 0.97413 0.0
C195 C 0.50134 0.18333 0.93426 0.0
H196 H 0.51858 0.17745 0.91853 0.0
C197 C 0.48205 0.16777 0.92674 0.0
H198 H 0.47365 0.23124 0.00404 0.0
C199 C 0.45967 0.17497 0.94649 0.0
H200 H 0.44488 0.16271 0.93863 0.0
H201 H 0.48441 0.15011 0.90501 0.0
H202 H 0.28708 0.02775 0.58858 0.0
C203 C 0.28085 0.03586 0.54384 0.0
C204 C 0.26591 0.05578 0.54707 0.0
C205 C 0.28847 0.02698 0.48293 0.0
H206 H 0.24744 0.08224 0.49163 0.0
C207 C 0.2583 0.06636 0.48901 0.0
C208 C 0.26623 0.05805 0.42819 0.0
C209 C 0.28148 0.03838 0.42538 0.0
C210 C 0.30517 1.00687 0.4797 0.0
H211 H 0.28798 0.03203 0.37863 0.0
C212 C 0.29763 0.98374 0.49185 0.0
C213 C 0.31362 0.96456 0.48766 0.0
C214 C 0.32874 0.01082 0.46351 0.0
H215 H 0.33477 0.02853 0.45381 0.0
C216 C 0.34472 0.99196 0.4602 0.0
H217 H 0.27938 0.9807 0.50408 0.0
C218 C 0.33728 0.96898 0.47218 0.0
H219 H 0.34991 0.95457 0.46791 0.0
H220 H 0.36291 0.99512 0.44779 0.0
H221 H 0.49222 0.75468 0.92165 0.0
C222 C 0.48278 0.75869 0.96589 0.0
C223 C 0.45945 0.76755 0.96135 0.0
C224 C 0.49321 0.75314 0.02705 0.0
H225 H 0.4286 0.77705 0.01518 0.0
C226 C 0.44705 0.77159 0.01888 0.0
C227 C 0.45709 0.76577 0.08014 0.0
C228 C 0.48032 0.75675 0.08389 0.0
C229 C 0.51577 0.73984 0.03057 0.0
H230 H 0.48805 0.75156 0.13066 0.0
C231 C 0.53738 0.75029 0.01497 0.0
C232 C 0.55859 0.73705 0.01824 0.0
C233 C 0.51547 0.71619 0.0494 0.0
H234 H 0.49896 0.70787 0.06147 0.0
C235 C 0.53637 0.70299 0.05205 0.0
H236 H 0.53768 0.76858 0.00065 0.0
C237 C 0.5578 0.7133 0.03655 0.0
H238 H 0.57389 0.70281 0.04014 0.0
H239 H 0.53599 0.68475 0.06649 0.0
H240 H 0.17795 0.26529 0.2224 0.0
H241 H 0.13113 0.23389 0.06888 0.0
H242 H 0.14343 0.27817 0.28271 0.0
H243 H 0.09681 0.24723 0.12817 0.0
H244 H 0.04865 0.24015 0.30677 0.0
H245 H 0.07861 0.23531 0.22538 0.0
H246 H 0.10867 0.30366 0.28734 0.0
H247 H 0.07859 0.30838 0.36952 0.0
C248 C 0.16034 0.26143 0.20107 0.0
C249 C 0.15737 0.2482 0.14136 0.0
C250 C 0.14052 0.26899 0.23535 0.0
C251 C 0.1173 0.26362 0.21043 0.0
C252 C 0.1144 0.25132 0.14934 0.0
C253 C 0.13415 0.24367 0.11536 0.0
C254 C 0.06099 0.25461 0.3012 0.0
C255 C 0.06135 0.27457 0.34486 0.0
C256 C 0.07834 0.25178 0.2547 0.0
C257 C 0.09639 0.26889 0.2507 0.0
C258 C 0.09537 0.28989 0.29023 0.0
C259 C 0.078 0.29272 0.33675 0.0
H260 H 0.2541 0.68932 0.72793 0.0
H261 H 0.28732 0.64125 0.58907 0.0
H262 H 0.24444 0.65584 0.79368 0.0
H263 H 0.27712 0.60784 0.65374 0.0
H264 H 0.28664 0.56284 0.83722 0.0
H265 H 0.29065 0.59292 0.75687 0.0
H266 H 0.22099 0.61999 0.79969 0.0
H267 H 0.2171 0.58983 0.88098 0.0
C268 C 0.25908 0.67161 0.71098 0.0
C269 C 0.27178 0.66805 0.65372 0.0
C270 C 0.25338 0.65238 0.74841 0.0
C271 C 0.26012 0.62915 0.72916 0.0
C272 C 0.27204 0.62553 0.67062 0.0
C273 C 0.27786 0.64473 0.63348 0.0
C274 C 0.27187 0.57473 0.82816 0.0
C275 C 0.25156 0.57398 0.86551 0.0
C276 C 0.27419 0.59208 0.78214 0.0
C277 C 0.25623 0.60904 0.77223 0.0
C278 C 0.23534 0.60748 0.80705 0.0
C279 C 0.23305 0.59013 0.85326 0.0
H280 H 0.83777 0.75159 0.21029 0.0
H281 H 0.87639 0.81148 0.14254 0.0
H282 H 0.87226 0.74127 0.27976 0.0
H283 H 0.91081 0.80103 0.21193 0.0
H284 H 0.94752 0.79236 0.42238 0.0
H285 H 0.91888 0.8016 0.33384 0.0
H286 H 0.9148 0.72722 0.2736 0.0
H287 H 0.94352 0.71804 0.3625 0.0
C288 C 0.8536 0.7625 0.20997 0.0
C289 C 0.8542 0.78247 0.17115 0.0
C290 C 0.87345 0.75644 0.24925 0.0
C291 C 0.89425 0.77031 0.25103 0.0
C292 C 0.89498 0.79008 0.2117 0.0
C293 C 0.87523 0.79603 0.17195 0.0
C294 C 0.941 0.77813 0.38892 0.0
C295 C 0.94768 0.75452 0.39903 0.0
C296 C 0.92463 0.78338 0.3383 0.0
C297 C 0.91441 0.76508 0.29735 0.0
C298 C 0.92221 0.74163 0.30497 0.0
C299 C 0.93883 0.73641 0.3552 0.0
H300 H 0.70644 0.38634 0.62213 0.0
H301 H 0.76444 0.34664 0.7096 0.0
H302 H 0.71752 0.42084 0.69297 0.0
H303 H 0.77538 0.38125 0.78055 0.0
H304 H 0.79912 0.45152 0.87346 0.0
H305 H 0.79052 0.42353 0.78014 0.0
H306 H 0.71551 0.42876 0.81425 0.0
H307 H 0.72419 0.45659 0.90725 0.0
C308 C 0.72167 0.38498 0.65604 0.0
C309 C 0.73441 0.36357 0.66054 0.0
C310 C 0.72797 0.40478 0.69663 0.0
C311 C 0.7473 0.40375 0.74221 0.0
C312 C 0.76056 0.38266 0.74528 0.0
C313 C 0.75414 0.36276 0.70506 0.0
C314 C 0.78077 0.44729 0.85934 0.0
C315 C 0.76228 0.45618 0.89715 0.0
C316 C 0.77587 0.43108 0.8066 0.0
C317 C 0.75238 0.42377 0.79044 0.0
C318 C 0.73378 0.43415 0.82525 0.0
C319 C 0.7387 0.45009 0.87838 0.0
H320 H 0.67064 0.24925 0.29395 0.0
H321 H 0.62883 0.30518 0.38344 0.0
H322 H 0.63644 0.23769 0.22175 0.0
H323 H 0.59484 0.29351 0.31149 0.0
H324 H 0.559 0.28753 0.09801 0.0
H325 H 0.58714 0.29628 0.19036 0.0
H326 H 0.59442 0.22122 0.22077 0.0
H327 H 0.56606 0.21255 0.12815 0.0
C328 C 0.65416 0.25895 0.29868 0.0
C329 C 0.65263 0.2783 0.34414 0.0
C330 C 0.63451 0.25218 0.25772 0.0
C331 C 0.61298 0.26472 0.26102 0.0
C332 C 0.61125 0.28363 0.30757 0.0
C333 C 0.63078 0.29028 0.34881 0.0
C334 C 0.56605 0.273 0.12592 0.0
C335 C 0.56033 0.24941 0.10651 0.0
C336 C 0.58217 0.27796 0.17864 0.0
C337 C 0.59314 0.2594 0.21235 0.0
C338 C 0.58638 0.23583 0.19522 0.0
C339 C 0.56997 0.23089 0.14292 0.0
H340 H 0.20513 0.13887 0.86975 0.0
H341 H 0.2648 0.17729 0.79987 0.0
H342 H 0.21536 0.10435 0.80079 0.0
H343 H 0.27488 0.14268 0.73072 0.0
H344 H 0.29713 0.07178 0.64455 0.0
H345 H 0.28877 0.10017 0.73484 0.0
H346 H 0.2139 0.09643 0.67927 0.0
H347 H 0.22233 0.06812 0.58941 0.0
C348 C 0.22052 0.13995 0.84005 0.0
C349 C 0.23402 0.16099 0.83999 0.0
C350 C 0.22634 0.12014 0.80052 0.0
C351 C 0.24592 0.1208 0.76048 0.0
C352 C 0.25985 0.14155 0.76174 0.0
C353 C 0.25392 0.16146 0.80087 0.0
C354 C 0.27885 0.07646 0.6532 0.0
C355 C 0.26035 0.06782 0.61029 0.0
C356 C 0.27409 0.0929 0.70423 0.0
C357 C 0.25073 0.10071 0.71357 0.0
C358 C 0.23207 0.09066 0.67353 0.0
C359 C 0.23685 0.07447 0.62214 0.0
H360 H 0.32631 0.76223 0.27468 0.0
H361 H 0.37474 0.72963 0.41403 0.0
H362 H 0.35973 0.77212 0.20888 0.0
H363 H 0.40807 0.74006 0.34931 0.0
H364 H 0.45304 0.73049 0.16595 0.0
H365 H 0.42297 0.72642 0.24626 0.0
H366 H 0.39548 0.79581 0.2026 0.0
H367 H 0.42566 0.79978 0.12135 0.0
C368 C 0.34408 0.75744 0.29172 0.0
C369 C 0.34778 0.74483 0.34912 0.0
C370 C 0.36328 0.76327 0.25427 0.0
C371 C 0.38659 0.75675 0.27364 0.0
C372 C 0.39032 0.74496 0.33235 0.0
C373 C 0.37117 0.73901 0.3695 0.0
C374 C 0.44106 0.7452 0.1748 0.0
C375 C 0.44171 0.76545 0.13724 0.0
C376 C 0.42372 0.74284 0.22081 0.0
C377 C 0.40665 0.76071 0.2305 0.0
C378 C 0.40809 0.78154 0.19542 0.0
C379 C 0.42544 0.78388 0.14923 0.0
H380 H 0.78392 0.88237 0.92369 0.0
H381 H 0.75444 0.83277 0.77419 0.0
H382 H 0.77225 0.91532 0.85667 0.0
H383 H 0.74329 0.86588 0.70614 0.0
H384 H 0.71375 0.93077 0.61064 0.0
H385 H 0.71825 0.9006 0.69269 0.0
H386 H 0.78608 0.93113 0.75826 0.0
H387 H 0.78151 0.96115 0.67703 0.0
C388 C 0.77493 0.87846 0.87645 0.0
C389 C 0.77041 0.85486 0.85393 0.0
C390 C 0.76828 0.8974 0.83797 0.0
C391 C 0.75705 0.89328 0.77573 0.0
C392 C 0.75169 0.86972 0.75415 0.0
C393 C 0.75823 0.85071 0.79295 0.0
C394 C 0.72941 0.93123 0.64348 0.0
C395 C 0.74728 0.94834 0.6373 0.0
C396 C 0.73205 0.91387 0.69014 0.0
C397 C 0.75262 0.91328 0.73165 0.0
C398 C 0.76986 0.93119 0.72774 0.0
C399 C 0.7672 0.94852 0.6812 0.0
H400 H 0.87636 0.80887 0.89838 0.0
H401 H 0.83625 0.74981 0.80735 0.0
H402 H 0.91002 0.79824 0.83222 0.0
H403 H 0.86997 0.73934 0.74104 0.0
H404 H 0.94525 0.79068 0.62777 0.0
H405 H 0.91684 0.7995 0.71228 0.0
H406 H 0.91234 0.72481 0.74958 0.0
H407 H 0.94078 0.71602 0.66452 0.0
C408 C 0.87473 0.79355 0.86458 0.0
C409 C 0.85348 0.78031 0.85783 0.0
C410 C 0.89403 0.78751 0.82665 0.0
C411 C 0.89262 0.76797 0.78158 0.0
C412 C 0.87166 0.75433 0.77599 0.0
C413 C 0.85226 0.76048 0.81354 0.0
C414 C 0.93856 0.77625 0.65513 0.0
C415 C 0.94512 0.7527 0.63975 0.0
C416 C 0.92237 0.78127 0.70356 0.0
C417 C 0.91224 0.76281 0.73708 0.0
C418 C 0.91971 0.73934 0.72398 0.0
C419 C 0.93615 0.73434 0.67594 0.0
H420 H 0.76109 0.33886 0.30323 0.0
H421 H 0.70352 0.38115 0.37871 0.0
H422 H 0.77253 0.37183 0.23727 0.0
H423 H 0.71506 0.41392 0.31307 0.0
H424 H 0.72422 0.44998 0.11375 0.0
H425 H 0.71427 0.42057 0.19256 0.0
H426 H 0.78863 0.41411 0.25029 0.0
H427 H 0.79855 0.44366 0.17106 0.0
C428 C 0.75091 0.35514 0.30589 0.0
C429 C 0.7313 0.35726 0.34604 0.0
C430 C 0.7576 0.37409 0.26859 0.0
C431 C 0.7447 0.39545 0.27017 0.0
C432 C 0.72524 0.39762 0.31059 0.0
C433 C 0.71869 0.37882 0.34829 0.0
C434 C 0.73835 0.4426 0.1443 0.0
C435 C 0.76212 0.44908 0.13664 0.0
C436 C 0.73269 0.42581 0.18939 0.0
C437 C 0.75071 0.41493 0.22721 0.0
C438 C 0.77443 0.42206 0.22128 0.0
C439 C 0.78007 0.43913 0.17665 0.0
H440 H 0.13141 0.22739 0.88038 0.0
H441 H 0.18293 0.26192 0.76547 0.0
H442 H 0.09986 0.23762 0.80067 0.0
H443 H 0.15135 0.27217 0.6865 0.0
H444 H 0.09793 0.24999 0.51934 0.0
H445 H 0.12721 0.24509 0.60801 0.0
H446 H 0.07757 0.27257 0.74729 0.0
H447 H 0.04792 0.27813 0.65701 0.0
C448 C 0.13601 0.23735 0.83857 0.0
C449 C 0.15981 0.24351 0.82883 0.0
C450 C 0.11787 0.24336 0.7933 0.0
C451 C 0.12321 0.25549 0.73724 0.0
C452 C 0.1468 0.26255 0.72898 0.0
C453 C 0.16488 0.25669 0.77431 0.0
C454 C 0.09329 0.25551 0.56858 0.0
C455 C 0.07078 0.26511 0.58088 0.0
C456 C 0.1101 0.25262 0.61944 0.0
C457 C 0.10484 0.25889 0.68431 0.0
C458 C 0.0821 0.26774 0.69749 0.0
C459 C 0.06517 0.27088 0.64603 0.0
H460 H 0.25072 0.68521 0.26585 0.0
H461 H 0.28528 0.63908 0.40412 0.0
H462 H 0.24043 0.65086 0.19375 0.0
H463 H 0.27439 0.6047 0.3329 0.0
H464 H 0.21409 0.58558 0.08503 0.0
H465 H 0.21731 0.61509 0.17626 0.0
H466 H 0.287 0.58825 0.23052 0.0
H467 H 0.28352 0.55866 0.14043 0.0
C468 C 0.25582 0.66773 0.28135 0.0
C469 C 0.26912 0.66499 0.34036 0.0
C470 C 0.24974 0.64796 0.24023 0.0
C471 C 0.25664 0.62496 0.25738 0.0
C472 C 0.26912 0.62216 0.31765 0.0
C473 C 0.27534 0.64192 0.35853 0.0
C474 C 0.22979 0.58564 0.11769 0.0
C475 C 0.24859 0.5699 0.10547 0.0
C476 C 0.23174 0.60266 0.16954 0.0
C477 C 0.25259 0.60436 0.21005 0.0
C478 C 0.2706 0.58739 0.20074 0.0
C479 C 0.26859 0.57032 0.14911 0.0
H480 H 0.33074 0.7656 0.73662 0.0
H481 H 0.37706 0.73123 0.59862 0.0
H482 H 0.36508 0.77614 0.80863 0.0
H483 H 0.41143 0.74237 0.66977 0.0
H484 H 0.43024 0.8028 0.9174 0.0
H485 H 0.40078 0.79945 0.82594 0.0
H486 H 0.42791 0.72987 0.77236 0.0
H487 H 0.45743 0.73349 0.86268 0.0
C488 C 0.34826 0.76059 0.72115 0.0
C489 C 0.35107 0.74727 0.66226 0.0
C490 C 0.36802 0.76682 0.76222 0.0
C491 C 0.39107 0.76004 0.74513 0.0
C492 C 0.39393 0.74755 0.68496 0.0
C493 C 0.37418 0.74119 0.64413 0.0
C494 C 0.43025 0.7871 0.88483 0.0
C495 C 0.44605 0.76837 0.89732 0.0
C496 C 0.41327 0.78507 0.83286 0.0
C497 C 0.41166 0.76421 0.79249 0.0
C498 C 0.42869 0.74628 0.80203 0.0
C499 C 0.44573 0.74837 0.85379 0.0
H500 H 0.75369 0.83673 0.23665 0.0
H501 H 0.78674 0.88463 0.10811 0.0
H502 H 0.74212 0.87049 0.30657 0.0
H503 H 0.77464 0.91835 0.17711 0.0
H504 H 0.78147 0.96433 0.37259 0.0
H505 H 0.78654 0.93487 0.28385 0.0
H506 H 0.71741 0.90542 0.31679 0.0
H507 H 0.71253 0.93488 0.40653 0.0
C508 C 0.75822 0.85445 0.22279 0.0
C509 C 0.77142 0.85789 0.1672 0.0
C510 C 0.7514 0.87386 0.26261 0.0
C511 C 0.7575 0.89717 0.24756 0.0
C512 C 0.76996 0.90063 0.19068 0.0
C513 C 0.77687 0.88125 0.15108 0.0
C514 C 0.76699 0.95212 0.35941 0.0
C515 C 0.74665 0.95184 0.39672 0.0
C516 C 0.76992 0.93512 0.30859 0.0
C517 C 0.75253 0.91751 0.29383 0.0
C518 C 0.73138 0.91839 0.32789 0.0
C519 C 0.72848 0.93537 0.37885 0.0
H520 H 0.63235 0.31045 0.62481 0.0
H521 H 0.67549 0.25392 0.70272 0.0
H522 H 0.59943 0.29826 0.68921 0.0
H523 H 0.6424 0.2418 0.76727 0.0
H524 H 0.57117 0.2143 0.83237 0.0
H525 H 0.6004 0.22481 0.7528 0.0
H526 H 0.5924 0.29897 0.80991 0.0
H527 H 0.56338 0.28842 0.88921 0.0
C528 C 0.63483 0.29537 0.65548 0.0
C529 C 0.65667 0.28326 0.65885 0.0
C530 C 0.61594 0.28843 0.69243 0.0
C531 C 0.61832 0.26906 0.7331 0.0
C532 C 0.63997 0.25664 0.73572 0.0
C533 C 0.65899 0.26374 0.69925 0.0
C534 C 0.57526 0.23286 0.82648 0.0
C535 C 0.56503 0.25059 0.86652 0.0
C536 C 0.59215 0.23884 0.78165 0.0
C537 C 0.59879 0.26269 0.77555 0.0
C538 C 0.58754 0.28047 0.8132 0.0
C539 C 0.57095 0.27447 0.85853 0.0
H540 H 0.20294 0.14129 0.11373 0.0
H541 H 0.26279 0.18083 0.20257 0.0
H542 H 0.2134 0.10769 0.18044 0.0
H543 H 0.2731 0.14718 0.26929 0.0
H544 H 0.29665 0.07587 0.34254 0.0
H545 H 0.28734 0.10472 0.25888 0.0
H546 H 0.21298 0.10064 0.30079 0.0
H547 H 0.22232 0.07182 0.38398 0.0
C548 C 0.21837 0.14282 0.14725 0.0
C549 C 0.23193 0.16386 0.15308 0.0
C550 C 0.22432 0.12356 0.18548 0.0
C551 C 0.24409 0.12479 0.22986 0.0
C552 C 0.25793 0.14561 0.23485 0.0
C553 C 0.25187 0.16498 0.19709 0.0
C554 C 0.27828 0.0807 0.33247 0.0
C555 C 0.26018 0.0717 0.36955 0.0
C556 C 0.27298 0.09737 0.28523 0.0
C557 C 0.24948 0.10507 0.27382 0.0
C558 C 0.23123 0.09495 0.30826 0.0
C559 C 0.23656 0.07852 0.35591 0.0
H560 H 0.24258 0.31613 0.11061 0.0
H561 H 0.23061 0.31552 0.89997 0.0
H562 H 0.24951 0.35885 0.11259 0.0
H563 H 0.23773 0.35823 0.90226 0.0
H564 H 0.29727 0.42326 0.06437 0.0
H565 H 0.2825 0.38289 0.07318 0.0
H566 H 0.22288 0.39807 0.94135 0.0
H567 H 0.23788 0.4386 0.93219 0.0
C568 C 0.24114 0.32509 0.06478 0.0
C569 C 0.23628 0.31226 0.00501 0.0
C570 C 0.24521 0.34959 0.06598 0.0
C571 C 0.24432 0.36189 0.00757 0.0
C572 C 0.23835 0.3493 0.94818 0.0
C573 C 0.23445 0.32476 0.94687 0.0
C574 C 0.28084 0.41805 0.03799 0.0
C575 C 0.26878 0.43398 -0.00267 0.0
C576 C 0.27228 0.39499 0.04336 0.0
C577 C 0.25157 0.38726 0.00773 0.0
C578 C 0.23899 0.40348 0.96896 0.0
C579 C 0.24744 0.4267 0.96416 0.0
H580 H 0.19571 0.72774 0.39336 0.0
H581 H 0.19669 0.74344 0.60256 0.0
H582 H 0.15297 0.72069 0.39293 0.0
H583 H 0.15401 0.73618 0.60189 0.0
H584 H 0.08541 0.67854 0.44233 0.0
H585 H 0.12702 0.68993 0.4356 0.0
H586 H 0.11517 0.7521 0.56104 0.0
H587 H 0.07357 0.74044 0.56869 0.0
C588 C 0.18684 0.72985 0.4392 0.0
C589 C 0.19974 0.73607 0.49807 0.0
C590 C 0.16235 0.72568 0.43893 0.0
C591 C 0.15012 0.72782 0.49738 0.0
C592 C 0.16287 0.73463 0.55593 0.0
C593 C 0.18738 0.73863 0.55633 0.0
C594 C 0.09168 0.69468 0.46824 0.0
C595 C 0.07626 0.70853 0.5063 0.0
C596 C 0.11546 0.70132 0.46394 0.0
C597 C 0.12441 0.72188 0.49798 0.0
C598 C 0.10884 0.73605 0.53476 0.0
C599 C 0.08499 0.7295 0.53862 0.0
H600 H 0.79578 0.70305 0.90393 0.0
H601 H 0.77694 0.704 0.10685 0.0
H602 H 0.8016 0.66011 0.90536 0.0
H603 H 0.78283 0.66119 0.10805 0.0
H604 H 0.77548 0.58115 0.07208 0.0
H605 H 0.76561 0.62305 0.0596 0.0
H606 H 0.83063 0.63288 0.95967 0.0
H607 H 0.84034 0.59101 0.97158 0.0
C608 C 0.79276 0.69414 0.94873 0.0
C609 C 0.78597 0.70707 0.00535 0.0
C610 C 0.79619 0.66954 0.94957 0.0
C611 C 0.79264 0.65725 0.00678 0.0
C612 C 0.78544 0.67009 0.06297 0.0
C613 C 0.78225 0.69469 0.06238 0.0
C614 C 0.78743 0.59218 0.04643 0.0
C615 C 0.80873 0.58283 0.02307 0.0
C616 C 0.7819 0.61621 0.03983 0.0
C617 C 0.79742 0.63132 0.00904 0.0
C618 C 0.81824 0.6217 0.9833 0.0
C619 C 0.82388 0.59777 -0.00948 0.0
H620 H 0.80985 0.28544 0.61119 0.0
H621 H 0.80676 0.28762 0.3997 0.0
H622 H 0.85272 0.27957 0.61034 0.0
H623 H 0.84957 0.28148 0.3991 0.0
H624 H 0.91738 0.2309 0.56464 0.0
H625 H 0.87704 0.24572 0.57471 0.0
H626 H 0.88966 0.29767 0.43076 0.0
H627 H 0.93021 0.28248 0.42018 0.0
C628 C 0.81829 0.28497 0.56454 0.0
C629 C 0.80469 0.28674 0.50544 0.0
C630 C 0.84289 0.2815 0.56409 0.0
C631 C 0.85456 0.27984 0.50463 0.0
C632 C 0.84119 0.28285 0.44581 0.0
C633 C 0.81657 0.28621 0.44619 0.0
C634 C 0.91163 0.24567 0.53571 0.0
C635 C 0.92686 0.25541 0.49125 0.0
C636 C 0.88856 0.25431 0.54184 0.0
C637 C 0.88006 0.27284 0.50336 0.0
C638 C 0.89562 0.28324 0.46067 0.0
C639 C 0.91886 0.2747 0.455 0.0
H640 H 0.73585 0.20409 0.40617 0.0
H641 H 0.72304 0.21014 0.61328 0.0
H642 H 0.74273 0.16156 0.41477 0.0
H643 H 0.72942 0.16768 0.62138 0.0
H644 H 0.7799 0.10351 0.62757 0.0
H645 H 0.76479 0.14362 0.61786 0.0
H646 H 0.72668 0.12209 0.43666 0.0
H647 H 0.74246 0.08172 0.44587 0.0
C648 C 0.73403 0.19632 0.45325 0.0
C649 C 0.72926 0.21068 0.50923 0.0
C650 C 0.73787 0.17188 0.4581 0.0
C651 C 0.73695 0.16125 0.51897 0.0
C652 C 0.73077 0.17538 0.57402 0.0
C653 C 0.72703 0.19976 0.56928 0.0
C654 C 0.7682 0.10729 0.58578 0.0
C655 C 0.76255 0.08953 0.53716 0.0
C656 C 0.75931 0.13025 0.58052 0.0
C657 C 0.7445 0.13613 0.52644 0.0
C658 C 0.73822 0.11819 0.47864 0.0
C659 C 0.74706 0.09505 0.48416 0.0
H660 H 0.31182 0.24013 0.9091 0.0
H661 H 0.31119 0.21893 0.10979 0.0
H662 H 0.35456 0.23397 0.90946 0.0
H663 H 0.35424 0.2128 0.10996 0.0
H664 H 0.43409 0.2396 0.94491 0.0
H665 H 0.39253 0.2502 0.96004 0.0
H666 H 0.38168 0.18417 0.05411 0.0
H667 H 0.42328 0.17373 0.03974 0.0
C668 C 0.32079 0.23425 0.9535 0.0
C669 C 0.30796 0.22992 0.00936 0.0
C670 C 0.34538 0.23092 0.95382 0.0
C671 C 0.35783 0.22297 0.00978 0.0
C672 C 0.34512 0.21883 0.06596 0.0
C673 C 0.32048 0.22243 0.06592 0.0
C674 C 0.42295 0.22759 0.97001 0.0
C675 C 0.43193 0.20576 -0.00926 0.0
C676 C 0.3991 0.23355 0.97815 0.0
C677 C 0.38375 0.21793 0.00779 0.0
C678 C 0.39304 0.19664 0.0314 0.0
C679 C 0.41682 0.19058 0.02271 0.0
H680 H 0.27133 0.81933 0.40091 0.0
H681 H 0.2881 0.82012 0.60962 0.0
H682 H 0.2782 0.86206 0.40171 0.0
H683 H 0.29478 0.86289 0.61018 0.0
H684 H 0.33618 0.9308 0.55936 0.0
H685 H 0.32516 0.88912 0.56626 0.0
H686 H 0.26207 0.9007 0.44386 0.0
H687 H 0.27332 0.9424 0.43615 0.0
C688 C 0.2763 0.8286 0.44706 0.0
C689 C 0.27926 0.81619 0.50514 0.0
C690 C 0.28007 0.85314 0.44755 0.0
C691 C 0.28707 0.86584 0.50599 0.0
C692 C 0.28962 0.85355 0.56426 0.0
C693 C 0.28567 0.82904 0.56392 0.0
C694 C 0.3199 0.92446 0.5342 0.0
C695 C 0.30568 0.93984 0.49696 0.0
C696 C 0.31348 0.90064 0.53858 0.0
C697 C 0.29278 0.89159 0.5054 0.0
C698 C 0.27824 0.90711 0.46946 0.0
C699 C 0.28456 0.93101 0.46556 0.0
H700 H 0.70046 0.77214 0.89346 0.0
H701 H 0.70008 0.78617 0.10323 0.0
H702 H 0.65761 0.76566 0.89025 0.0
H703 H 0.65729 0.77947 0.09976 0.0
H704 H 0.59261 0.71887 0.93993 0.0
H705 H 0.63306 0.73341 0.93082 0.0
H706 H 0.61775 0.79405 0.05864 0.0
H707 H 0.57717 0.77925 0.06824 0.0
C708 C 0.69126 0.77412 0.9388 0.0
C709 C 0.70384 0.77942 -0.00125 0.0
C710 C 0.66669 0.77032 0.93691 0.0
C711 C 0.65409 0.77189 -0.00522 0.0
C712 C 0.66645 0.77831 0.05422 0.0
C713 C 0.69104 0.78198 0.05623 0.0
C714 C 0.59781 0.73547 0.96535 0.0
C715 C 0.58183 0.74785 0.00513 0.0
C716 C 0.62091 0.74391 0.95977 0.0
C717 C 0.62864 0.76483 -0.00573 0.0
C718 C 0.61235 0.77776 0.03194 0.0
C719 C 0.5891 0.76942 0.03699 0.0
loop_
_geom_bond_atom_site_label_1
_geom_bond_atom_site_label_2
_geom_bond_distance
_geom_bond_site_symmetry_2
_ccdc_geom_bond_type
Sc0 O3 2.025 . S
Sc0 O10 2.105 . S
Sc0 O13 2.105 . S
Sc0 O16 2.105 . S
Sc0 O19 2.105 . S
Sc1 O3 2.025 . S
Sc1 O11 2.115 . S
Sc1 O15 2.095 1_554 S
Sc1 O17 2.115 . S
Sc1 O21 2.095 1_554 S
Sc2 O3 2.025 1_556 S
Sc2 O12 2.105 . S
Sc2 O14 2.105 . S
Sc2 O18 2.105 . S
Sc2 O20 2.105 . S
O3 Sc0 2.025 . S
O3 Sc1 2.025 . S
O3 Sc2 2.025 1_554 S
C4 O10 1.268 . S
C4 O20 1.268 1_554 S
C5 O11 1.268 . S
C5 O19 1.268 . S
C6 O12 1.268 . S
C6 O21 1.268 . S
C7 O13 1.268 . S
C7 O17 1.268 . S
C8 O14 1.268 1_554 S
C8 O16 1.268 . S
C9 O15 1.268 . S
C9 O18 1.268 . S
O10 Sc0 2.105 . S
O10 C4 1.268 . S
O11 Sc1 2.115 . S
O11 C5 1.268 . S
O12 Sc2 2.105 . S
O12 C6 1.268 . S
O13 Sc0 2.105 . S
O13 C7 1.268 . S
O14 Sc2 2.105 . S
O14 C8 1.268 1_556 S
O15 Sc1 2.095 1_556 S
O15 C9 1.268 . S
O16 Sc0 2.105 . S
O16 C8 1.268 . S
O17 Sc1 2.115 . S
O17 C7 1.268 . S
O18 Sc2 2.105 . S
O18 C9 1.268 . S
O19 Sc0 2.105 . S
O19 C5 1.268 . S
O20 Sc2 2.105 . S
O20 C4 1.268 1_556 S
O21 Sc1 2.095 1_556 S
O21 C6 1.268 . S
Sc22 O25 2.025 . S
Sc22 O32 2.105 . S
Sc22 O35 2.105 . S
Sc22 O38 2.105 . S
Sc22 O41 2.105 . S
Sc23 O25 2.025 . S
Sc23 O33 2.105 . S
Sc23 O37 2.105 . S
Sc23 O39 2.105 . S
Sc23 O43 2.105 . S
Sc24 O25 2.025 . S
Sc24 O34 2.105 . S
Sc24 O36 2.105 . S
Sc24 O40 2.105 . S
Sc24 O42 2.105 . S
O25 Sc22 2.025 . S
O25 Sc23 2.025 . S
O25 Sc24 2.025 . S
C26 O32 1.268 . S
C26 O42 1.268 . S
C27 O33 1.268 . S
C27 O41 1.268 . S
C28 O34 1.268 . S
C28 O43 1.268 . S
C29 O35 1.268 . S
C29 O39 1.268 . S
C30 O36 1.268 . S
C30 O38 1.268 . S
C31 O37 1.268 . S
C31 O40 1.268 . S
O32 Sc22 2.105 . S
O32 C26 1.268 . S
O33 Sc23 2.105 . S
O33 C27 1.268 . S
O34 Sc24 2.105 . S
O34 C28 1.268 . S
O35 Sc22 2.105 . S
O35 C29 1.268 . S
O36 Sc24 2.105 . S
O36 C30 1.268 . S
O37 Sc23 2.105 . S
O37 C31 1.268 . S
O38 Sc22 2.105 . S
O38 C30 1.268 . S
O39 Sc23 2.105 . S
O39 C29 1.268 . S
O40 Sc24 2.105 . S
O40 C31 1.268 . S
O41 Sc22 2.105 . S
O41 C27 1.268 . S
O42 Sc24 2.105 . S
O42 C26 1.268 . S
O43 Sc23 2.105 . S
O43 C28 1.268 . S
Sc44 O47 2.025 1_556 S
Sc44 O54 2.105 . S
Sc44 O57 2.105 . S
Sc44 O60 2.105 . S
Sc44 O63 2.105 . S
Sc45 O47 2.025 . S
Sc45 O55 2.105 1_554 S
Sc45 O59 2.105 . S
Sc45 O61 2.105 1_554 S
Sc45 O65 2.105 . S
Sc46 O47 2.025 . S
Sc46 O56 2.105 . S
Sc46 O58 2.105 . S
Sc46 O62 2.105 . S
Sc46 O64 2.105 . S
O47 Sc44 2.025 1_554 S
O47 Sc45 2.025 . S
O47 Sc46 2.025 . S
C48 O54 1.268 1_554 S
C48 O64 1.268 . S
C49 O55 1.268 . S
C49 O63 1.268 . S
C50 O56 1.268 . S
C50 O65 1.268 . S
C51 O57 1.268 . S
C51 O61 1.268 . S
C52 O58 1.268 . S
C52 O60 1.268 1_554 S
C53 O59 1.268 . S
C53 O62 1.268 . S
O54 Sc44 2.105 . S
O54 C48 1.268 1_556 S
O55 Sc45 2.105 1_556 S
O55 C49 1.268 . S
O56 Sc46 2.105 . S
O56 C50 1.268 . S
O57 Sc44 2.105 . S
O57 C51 1.268 . S
O58 Sc46 2.105 . S
O58 C52 1.268 . S
O59 Sc45 2.105 . S
O59 C53 1.268 . S
O60 Sc44 2.105 . S
O60 C52 1.268 1_556 S
O61 Sc45 2.105 1_556 S
O61 C51 1.268 . S
O62 Sc46 2.105 . S
O62 C53 1.268 . S
O63 Sc44 2.105 . S
O63 C49 1.268 . S
O64 Sc46 2.105 . S
O64 C48 1.268 . S
O65 Sc45 2.105 . S
O65 C50 1.268 . S
Sc66 O69 2.025 . S
Sc66 O76 2.105 . S
Sc66 O79 2.105 . S
Sc66 O82 2.105 . S
Sc66 O85 2.105 . S
Sc67 O69 2.025 . S
Sc67 O77 2.105 . S
Sc67 O81 2.105 . S
Sc67 O83 2.105 . S
Sc67 O87 2.105 . S
Sc68 O69 2.025 . S
Sc68 O78 2.105 . S
Sc68 O80 2.105 . S
Sc68 O84 2.105 . S
Sc68 O86 2.105 . S
O69 Sc66 2.025 . S
O69 Sc67 2.025 . S
O69 Sc68 2.025 . S
C70 O76 1.268 . S
C70 O86 1.268 . S
C71 O77 1.268 . S
C71 O85 1.268 . S
C72 O78 1.268 . S
C72 O87 1.268 . S
C73 O79 1.268 . S
C73 O83 1.268 . S
C74 O80 1.268 . S
C74 O82 1.268 . S
C75 O81 1.268 . S
C75 O84 1.268 . S
O76 Sc66 2.105 . S
O76 C70 1.268 . S
O77 Sc67 2.105 . S
O77 C71 1.268 . S
O78 Sc68 2.105 . S
O78 C72 1.268 . S
O79 Sc66 2.105 . S
O79 C73 1.268 . S
O80 Sc68 2.105 . S
O80 C74 1.268 . S
O81 Sc67 2.105 . S
O81 C75 1.268 . S
O82 Sc66 2.105 . S
O82 C74 1.268 . S
O83 Sc67 2.105 . S
O83 C73 1.268 . S
O84 Sc68 2.105 . S
O84 C75 1.268 . S
O85 Sc66 2.105 . S
O85 C71 1.268 . S
O86 Sc68 2.105 . S
O86 C70 1.268 . S
O87 Sc67 2.105 . S
O87 C72 1.268 . S
H88 C89 0.949 . S
C89 H88 0.949 . S
C89 C90 1.395 . S
C89 C91 1.391 1_554 S
C90 C89 1.395 . S
C90 C93 1.390 . S
C91 C89 1.391 1_556 S
C91 C95 1.387 . S
C91 C96 1.491 . S
H92 C93 0.950 . S
C93 C90 1.390 . S
C93 H92 0.950 . S
C93 C94 1.378 1_554 S
C94 C93 1.378 1_556 S
C94 C95 1.409 . S
C95 C91 1.387 . S
C95 C94 1.409 . S
C95 H97 0.951 . S
C96 C91 1.491 . S
C96 C98 1.382 1_556 S
C96 C100 1.404 . S
H97 C95 0.951 . S
C98 C96 1.382 1_554 S
C98 C99 1.390 1_554 S
C98 H103 0.949 . S
C99 C98 1.390 1_556 S
C99 C104 1.399 . S
C100 C96 1.404 . S
C100 H101 0.950 . S
C100 C102 1.375 . S
H101 C100 0.950 . S
C102 C100 1.375 . S
C102 C104 1.382 . S
C102 H106 0.950 . S
H103 C98 0.949 . S
C104 C99 1.399 . S
C104 C102 1.382 . S
C104 H105 0.952 . S
H105 C104 0.952 . S
H106 C102 0.950 . S
H107 C108 0.949 . S
C108 H107 0.949 . S
C108 C109 1.395 . S
C108 C110 1.391 . S
C109 C108 1.395 . S
C109 C112 1.390 . S
C110 C108 1.391 . S
C110 C114 1.387 . S
C110 C115 1.491 1_655 S
H111 C112 0.950 . S
C112 C109 1.390 . S
C112 H111 0.950 . S
C112 C113 1.378 . S
C113 C112 1.378 . S
C113 C114 1.409 . S
C114 C110 1.387 . S
C114 C113 1.409 . S
C114 H116 0.951 . S
C115 C110 1.491 1_455 S
C115 C117 1.382 . S
C115 C119 1.404 . S
H116 C114 0.951 . S
C117 C115 1.382 . S
C117 C118 1.390 . S
C117 H122 0.949 . S
C118 C117 1.390 . S
C118 C123 1.399 . S
C119 C115 1.404 . S
C119 H120 0.950 . S
C119 C121 1.375 . S
H120 C119 0.950 . S
C121 C119 1.375 . S
C121 C123 1.382 . S
C121 H125 0.950 . S
H122 C117 0.949 . S
C123 C118 1.399 . S
C123 C121 1.382 . S
C123 H124 0.952 . S
H124 C123 0.952 . S
H125 C121 0.950 . S
H126 C127 0.949 . S
C127 H126 0.949 . S
C127 C128 1.395 . S
C127 C129 1.391 1_556 S
C128 C127 1.395 . S
C128 C131 1.390 1_556 S
C129 C127 1.391 1_554 S
C129 C133 1.387 . S
C129 C134 1.491 . S
H130 C131 0.950 . S
C131 C128 1.390 1_554 S
C131 H130 0.950 . S
C131 C132 1.378 . S
C132 C131 1.378 . S
C132 C133 1.409 . S
C133 C129 1.387 . S
C133 C132 1.409 . S
C133 H135 0.951 . S
C134 C129 1.491 . S
C134 C136 1.382 . S
C134 C138 1.404 . S
H135 C133 0.951 . S
C136 C134 1.382 . S
C136 C137 1.390 . S
C136 H141 0.949 1_554 S
C137 C136 1.390 . S
C137 C142 1.399 . S
C138 C134 1.404 . S
C138 H139 0.950 . S
C138 C140 1.375 . S
H139 C138 0.950 . S
C140 C138 1.375 . S
C140 C142 1.382 . S
C140 H144 0.950 . S
H141 C136 0.949 1_556 S
C142 C137 1.399 . S
C142 C140 1.382 . S
C142 H143 0.952 . S
H143 C142 0.952 . S
H144 C140 0.950 . S
H145 C146 0.949 . S
C146 H145 0.949 . S
C146 C147 1.395 . S
C146 C148 1.391 . S
C147 C146 1.395 . S
C147 C150 1.390 . S
C148 C146 1.391 . S
C148 C152 1.387 . S
C148 C153 1.491 1_455 S
H149 C150 0.950 . S
C150 C147 1.390 . S
C150 H149 0.950 . S
C150 C151 1.378 . S
C151 C150 1.378 . S
C151 C152 1.409 . S
C152 C148 1.387 . S
C152 C151 1.409 . S
C152 H154 0.951 . S
C153 C148 1.491 1_655 S
C153 C155 1.382 . S
C153 C157 1.404 . S
H154 C152 0.951 . S
C155 C153 1.382 . S
C155 C156 1.390 . S
C155 H160 0.949 . S
C156 C155 1.390 . S
C156 C161 1.399 . S
C157 C153 1.404 . S
C157 H158 0.950 . S
C157 C159 1.375 . S
H158 C157 0.950 . S
C159 C157 1.375 . S
C159 C161 1.382 . S
C159 H163 0.950 . S
H160 C155 0.949 . S
C161 C156 1.399 . S
C161 C159 1.382 . S
C161 H162 0.952 . S
H162 C161 0.952 . S
H163 C159 0.950 . S
H164 C165 0.949 . S
C165 H164 0.949 . S
C165 C166 1.395 . S
C165 C167 1.391 . S
C166 C165 1.395 . S
C166 C169 1.390 . S
C167 C165 1.391 . S
C167 C171 1.387 . S
C167 C172 1.491 1_565 S
H168 C169 0.950 . S
C169 C166 1.390 . S
C169 H168 0.950 . S
C169 C170 1.378 . S
C170 C169 1.378 . S
C170 C171 1.409 . S
C171 C167 1.387 . S
C171 C170 1.409 . S
C171 H173 0.951 . S
C172 C167 1.491 1_545 S
C172 C174 1.382 . S
C172 C176 1.404 . S
H173 C171 0.951 . S
C174 C172 1.382 . S
C174 C175 1.390 . S
C174 H179 0.949 . S
C175 C174 1.390 . S
C175 C180 1.399 . S
C176 C172 1.404 . S
C176 H177 0.950 . S
C176 C178 1.375 . S
H177 C176 0.950 . S
C178 C176 1.375 . S
C178 C180 1.382 . S
C178 H182 0.950 . S
H179 C174 0.949 . S
C180 C175 1.399 . S
C180 C178 1.382 . S
C180 H181 0.952 . S
H181 C180 0.952 . S
H182 C178 0.950 . S
H183 C184 0.949 . S
C184 H183 0.949 . S
C184 C185 1.395 . S
C184 C186 1.391 1_554 S
C185 C184 1.395 . S
C185 C188 1.390 . S
C186 C184 1.391 1_556 S
C186 C190 1.387 . S
C186 C191 1.491 . S
H187 C188 0.950 . S
C188 C185 1.390 . S
C188 H187 0.950 . S
C188 C189 1.378 1_554 S
C189 C188 1.378 1_556 S
C189 C190 1.409 . S
C190 C186 1.387 . S
C190 C189 1.409 . S
C190 H192 0.951 . S
C191 C186 1.491 . S
C191 C193 1.382 1_556 S
C191 C195 1.404 . S
H192 C190 0.951 . S
C193 C191 1.382 1_554 S
C193 C194 1.390 1_554 S
C193 H198 0.949 . S
C194 C193 1.390 1_556 S
C194 C199 1.399 . S
C195 C191 1.404 . S
C195 H196 0.950 . S
C195 C197 1.375 . S
H196 C195 0.950 . S
C197 C195 1.375 . S
C197 C199 1.382 . S
C197 H201 0.950 . S
H198 C193 0.949 . S
C199 C194 1.399 . S
C199 C197 1.382 . S
C199 H200 0.952 . S
H200 C199 0.952 . S
H201 C197 0.950 . S
H202 C203 0.949 . S
C203 H202 0.949 . S
C203 C204 1.395 . S
C203 C205 1.391 . S
C204 C203 1.395 . S
C204 C207 1.390 . S
C205 C203 1.391 . S
C205 C209 1.387 . S
C205 C210 1.491 1_545 S
H206 C207 0.950 . S
C207 C204 1.390 . S
C207 H206 0.950 . S
C207 C208 1.378 . S
C208 C207 1.378 . S
C208 C209 1.409 . S
C209 C205 1.387 . S
C209 C208 1.409 . S
C209 H211 0.951 . S
C210 C205 1.491 1_565 S
C210 C212 1.382 . S
C210 C214 1.404 . S
H211 C209 0.951 . S
C212 C210 1.382 . S
C212 C213 1.390 . S
C212 H217 0.949 . S
C213 C212 1.390 . S
C213 C218 1.399 . S
C214 C210 1.404 . S
C214 H215 0.950 . S
C214 C216 1.375 . S
H215 C214 0.950 . S
C216 C214 1.375 . S
C216 C218 1.382 . S
C216 H220 0.950 . S
H217 C212 0.949 . S
C218 C213 1.399 . S
C218 C216 1.382 . S
C218 H219 0.952 . S
H219 C218 0.952 . S
H220 C216 0.950 . S
H221 C222 0.949 . S
C222 H221 0.949 . S
C222 C223 1.395 . S
C222 C224 1.391 1_556 S
C223 C222 1.395 . S
C223 C226 1.390 1_556 S
C224 C222 1.391 1_554 S
C224 C228 1.387 . S
C224 C229 1.491 . S
H225 C226 0.950 . S
C226 C223 1.390 1_554 S
C226 H225 0.950 . S
C226 C227 1.378 . S
C227 C226 1.378 . S
C227 C228 1.409 . S
C228 C224 1.387 . S
C228 C227 1.409 . S
C228 H230 0.951 . S
C229 C224 1.491 . S
C229 C231 1.382 . S
C229 C233 1.404 . S
H230 C228 0.951 . S
C231 C229 1.382 . S
C231 C232 1.390 . S
C231 H236 0.949 1_554 S
C232 C231 1.390 . S
C232 C237 1.399 . S
C233 C229 1.404 . S
C233 H234 0.950 . S
C233 C235 1.375 . S
H234 C233 0.950 . S
C235 C233 1.375 . S
C235 C237 1.382 . S
C235 H239 0.950 . S
H236 C231 0.949 1_556 S
C237 C232 1.399 . S
C237 C235 1.382 . S
C237 H238 0.952 . S
H238 C237 0.952 . S
H239 C235 0.950 . S
H240 C248 0.950 . S
H241 C253 0.950 . S
H242 C250 0.950 . S
H243 C252 0.950 . S
H244 C254 0.950 . S
H245 C256 0.950 . S
H246 C258 0.950 . S
H247 C259 0.950 . S
C248 H240 0.950 . S
C248 C249 1.386 . S
C248 C250 1.391 . S
C249 C248 1.386 . S
C249 C253 1.393 . S
C250 H242 0.950 . S
C250 C248 1.391 . S
C250 C251 1.400 . S
C251 C250 1.400 . S
C251 C252 1.398 . S
C251 C257 1.491 . S
C252 H243 0.950 . S
C252 C251 1.398 . S
C252 C253 1.391 . S
C253 H241 0.950 . S
C253 C249 1.393 . S
C253 C252 1.391 . S
C254 H244 0.950 . S
C254 C255 1.386 . S
C254 C256 1.391 . S
C255 C254 1.386 . S
C255 C259 1.393 . S
C256 H245 0.950 . S
C256 C254 1.391 . S
C256 C257 1.400 . S
C257 C251 1.491 . S
C257 C256 1.400 . S
C257 C258 1.398 . S
C258 H246 0.950 . S
C258 C257 1.398 . S
C258 C259 1.391 . S
C259 H247 0.950 . S
C259 C255 1.393 . S
C259 C258 1.391 . S
H260 C268 0.950 . S
H261 C273 0.950 . S
H262 C270 0.950 . S
H263 C272 0.950 . S
H264 C274 0.950 . S
H265 C276 0.950 . S
H266 C278 0.950 . S
H267 C279 0.950 . S
C268 H260 0.950 . S
C268 C269 1.386 . S
C268 C270 1.391 . S
C269 C268 1.386 . S
C269 C273 1.393 . S
C270 H262 0.950 . S
C270 C268 1.391 . S
C270 C271 1.400 . S
C271 C270 1.400 . S
C271 C272 1.398 . S
C271 C277 1.491 . S
C272 H263 0.950 . S
C272 C271 1.398 . S
C272 C273 1.391 . S
C273 H261 0.950 . S
C273 C269 1.393 . S
C273 C272 1.391 . S
C274 H264 0.950 . S
C274 C275 1.386 . S
C274 C276 1.391 . S
C275 C274 1.386 . S
C275 C279 1.393 . S
C276 H265 0.950 . S
C276 C274 1.391 . S
C276 C277 1.400 . S
C277 C271 1.491 . S
C277 C276 1.400 . S
C277 C278 1.398 . S
C278 H266 0.950 . S
C278 C277 1.398 . S
C278 C279 1.391 . S
C279 H267 0.950 . S
C279 C275 1.393 . S
C279 C278 1.391 . S
H280 C288 0.950 . S
H281 C293 0.950 . S
H282 C290 0.950 . S
H283 C292 0.950 . S
H284 C294 0.950 . S
H285 C296 0.950 . S
H286 C298 0.950 . S
H287 C299 0.950 . S
C288 H280 0.950 . S
C288 C289 1.386 . S
C288 C290 1.391 . S
C289 C288 1.386 . S
C289 C293 1.393 . S
C290 H282 0.950 . S
C290 C288 1.391 . S
C290 C291 1.400 . S
C291 C290 1.400 . S
C291 C292 1.398 . S
C291 C297 1.491 . S
C292 H283 0.950 . S
C292 C291 1.398 . S
C292 C293 1.391 . S
C293 H281 0.950 . S
C293 C289 1.393 . S
C293 C292 1.391 . S
C294 H284 0.950 . S
C294 C295 1.386 . S
C294 C296 1.391 . S
C295 C294 1.386 . S
C295 C299 1.393 . S
C296 H285 0.950 . S
C296 C294 1.391 . S
C296 C297 1.400 . S
C297 C291 1.491 . S
C297 C296 1.400 . S
C297 C298 1.398 . S
C298 H286 0.950 . S
C298 C297 1.398 . S
C298 C299 1.391 . S
C299 H287 0.950 . S
C299 C295 1.393 . S
C299 C298 1.391 . S
H300 C308 0.950 . S
H301 C313 0.950 . S
H302 C310 0.950 . S
H303 C312 0.950 . S
H304 C314 0.950 . S
H305 C316 0.950 . S
H306 C318 0.950 . S
H307 C319 0.950 . S
C308 H300 0.950 . S
C308 C309 1.386 . S
C308 C310 1.391 . S
C309 C308 1.386 . S
C309 C313 1.393 . S
C310 H302 0.950 . S
C310 C308 1.391 . S
C310 C311 1.400 . S
C311 C310 1.400 . S
C311 C312 1.398 . S
C311 C317 1.491 . S
C312 H303 0.950 . S
C312 C311 1.398 . S
C312 C313 1.391 . S
C313 H301 0.950 . S
C313 C309 1.393 . S
C313 C312 1.391 . S
C314 H304 0.950 . S
C314 C315 1.386 . S
C314 C316 1.391 . S
C315 C314 1.386 . S
C315 C319 1.393 . S
C316 H305 0.950 . S
C316 C314 1.391 . S
C316 C317 1.400 . S
C317 C311 1.491 . S
C317 C316 1.400 . S
C317 C318 1.398 . S
C318 H306 0.950 . S
C318 C317 1.398 . S
C318 C319 1.391 . S
C319 H307 0.950 . S
C319 C315 1.393 . S
C319 C318 1.391 . S
H320 C328 0.950 . S
H321 C333 0.950 . S
H322 C330 0.950 . S
H323 C332 0.950 . S
H324 C334 0.950 . S
H325 C336 0.950 . S
H326 C338 0.950 . S
H327 C339 0.950 . S
C328 H320 0.950 . S
C328 C329 1.386 . S
C328 C330 1.391 . S
C329 C328 1.386 . S
C329 C333 1.393 . S
C330 H322 0.950 . S
C330 C328 1.391 . S
C330 C331 1.400 . S
C331 C330 1.400 . S
C331 C332 1.398 . S
C331 C337 1.491 . S
C332 H323 0.950 . S
C332 C331 1.398 . S
C332 C333 1.391 . S
C333 H321 0.950 . S
C333 C329 1.393 . S
C333 C332 1.391 . S
C334 H324 0.950 . S
C334 C335 1.386 . S
C334 C336 1.391 . S
C335 C334 1.386 . S
C335 C339 1.393 . S
C336 H325 0.950 . S
C336 C334 1.391 . S
C336 C337 1.400 . S
C337 C331 1.491 . S
C337 C336 1.400 . S
C337 C338 1.398 . S
C338 H326 0.950 . S
C338 C337 1.398 . S
C338 C339 1.391 . S
C339 H327 0.950 . S
C339 C335 1.393 . S
C339 C338 1.391 . S
H340 C348 0.950 . S
H341 C353 0.950 . S
H342 C350 0.950 . S
H343 C352 0.950 . S
H344 C354 0.950 . S
H345 C356 0.950 . S
H346 C358 0.950 . S
H347 C359 0.950 . S
C348 H340 0.950 . S
C348 C349 1.386 . S
C348 C350 1.391 . S
C349 C348 1.386 . S
C349 C353 1.393 . S
C350 H342 0.950 . S
C350 C348 1.391 . S
C350 C351 1.400 . S
C351 C350 1.400 . S
C351 C352 1.398 . S
C351 C357 1.491 . S
C352 H343 0.950 . S
C352 C351 1.398 . S
C352 C353 1.391 . S
C353 H341 0.950 . S
C353 C349 1.393 . S
C353 C352 1.391 . S
C354 H344 0.950 . S
C354 C355 1.386 . S
C354 C356 1.391 . S
C355 C354 1.386 . S
C355 C359 1.393 . S
C356 H345 0.950 . S
C356 C354 1.391 . S
C356 C357 1.400 . S
C357 C351 1.491 . S
C357 C356 1.400 . S
C357 C358 1.398 . S
C358 H346 0.950 . S
C358 C357 1.398 . S
C358 C359 1.391 . S
C359 H347 0.950 . S
C359 C355 1.393 . S
C359 C358 1.391 . S
H360 C368 0.950 . S
H361 C373 0.950 . S
H362 C370 0.950 . S
H363 C372 0.950 . S
H364 C374 0.950 . S
H365 C376 0.950 . S
H366 C378 0.950 . S
H367 C379 0.950 . S
C368 H360 0.950 . S
C368 C369 1.386 . S
C368 C370 1.391 . S
C369 C368 1.386 . S
C369 C373 1.393 . S
C370 H362 0.950 . S
C370 C368 1.391 . S
C370 C371 1.400 . S
C371 C370 1.400 . S
C371 C372 1.398 . S
C371 C377 1.491 . S
C372 H363 0.950 . S
C372 C371 1.398 . S
C372 C373 1.391 . S
C373 H361 0.950 . S
C373 C369 1.393 . S
C373 C372 1.391 . S
C374 H364 0.950 . S
C374 C375 1.386 . S
C374 C376 1.391 . S
C375 C374 1.386 . S
C375 C379 1.393 . S
C376 H365 0.950 . S
C376 C374 1.391 . S
C376 C377 1.400 . S
C377 C371 1.491 . S
C377 C376 1.400 . S
C377 C378 1.398 . S
C378 H366 0.950 . S
C378 C377 1.398 . S
C378 C379 1.391 . S
C379 H367 0.950 . S
C379 C375 1.393 . S
C379 C378 1.391 . S
H380 C388 0.950 . S
H381 C393 0.950 . S
H382 C390 0.950 . S
H383 C392 0.950 . S
H384 C394 0.950 . S
H385 C396 0.950 . S
H386 C398 0.950 . S
H387 C399 0.950 . S
C388 H380 0.950 . S
C388 C389 1.386 . S
C388 C390 1.391 . S
C389 C388 1.386 . S
C389 C393 1.393 . S
C390 H382 0.950 . S
C390 C388 1.391 . S
C390 C391 1.400 . S
C391 C390 1.400 . S
C391 C392 1.398 . S
C391 C397 1.491 . S
C392 H383 0.950 . S
C392 C391 1.398 . S
C392 C393 1.391 . S
C393 H381 0.950 . S
C393 C389 1.393 . S
C393 C392 1.391 . S
C394 H384 0.950 . S
C394 C395 1.386 . S
C394 C396 1.391 . S
C395 C394 1.386 . S
C395 C399 1.393 . S
C396 H385 0.950 . S
C396 C394 1.391 . S
C396 C397 1.400 . S
C397 C391 1.491 . S
C397 C396 1.400 . S
C397 C398 1.398 . S
C398 H386 0.950 . S
C398 C397 1.398 . S
C398 C399 1.391 . S
C399 H387 0.950 . S
C399 C395 1.393 . S
C399 C398 1.391 . S
H400 C408 0.950 . S
H401 C413 0.950 . S
H402 C410 0.950 . S
H403 C412 0.950 . S
H404 C414 0.950 . S
H405 C416 0.950 . S
H406 C418 0.950 . S
H407 C419 0.950 . S
C408 H400 0.950 . S
C408 C409 1.386 . S
C408 C410 1.391 . S
C409 C408 1.386 . S
C409 C413 1.393 . S
C410 H402 0.950 . S
C410 C408 1.391 . S
C410 C411 1.400 . S
C411 C410 1.400 . S
C411 C412 1.398 . S
C411 C417 1.491 . S
C412 H403 0.950 . S
C412 C411 1.398 . S
C412 C413 1.391 . S
C413 H401 0.950 . S
C413 C409 1.393 . S
C413 C412 1.391 . S
C414 H404 0.950 . S
C414 C415 1.386 . S
C414 C416 1.391 . S
C415 C414 1.386 . S
C415 C419 1.393 . S
C416 H405 0.950 . S
C416 C414 1.391 . S
C416 C417 1.400 . S
C417 C411 1.491 . S
C417 C416 1.400 . S
C417 C418 1.398 . S
C418 H406 0.950 . S
C418 C417 1.398 . S
C418 C419 1.391 . S
C419 H407 0.950 . S
C419 C415 1.393 . S
C419 C418 1.391 . S
H420 C428 0.950 . S
H421 C433 0.950 . S
H422 C430 0.950 . S
H423 C432 0.950 . S
H424 C434 0.950 . S
H425 C436 0.950 . S
H426 C438 0.950 . S
H427 C439 0.950 . S
C428 H420 0.950 . S
C428 C429 1.386 . S
C428 C430 1.391 . S
C429 C428 1.386 . S
C429 C433 1.393 . S
C430 H422 0.950 . S
C430 C428 1.391 . S
C430 C431 1.400 . S
C431 C430 1.400 . S
C431 C432 1.398 . S
C431 C437 1.491 . S
C432 H423 0.950 . S
C432 C431 1.398 . S
C432 C433 1.391 . S
C433 H421 0.950 . S
C433 C429 1.393 . S
C433 C432 1.391 . S
C434 H424 0.950 . S
C434 C435 1.386 . S
C434 C436 1.391 . S
C435 C434 1.386 . S
C435 C439 1.393 . S
C436 H425 0.950 . S
C436 C434 1.391 . S
C436 C437 1.400 . S
C437 C431 1.491 . S
C437 C436 1.400 . S
C437 C438 1.398 . S
C438 H426 0.950 . S
C438 C437 1.398 . S
C438 C439 1.391 . S
C439 H427 0.950 . S
C439 C435 1.393 . S
C439 C438 1.391 . S
H440 C448 0.950 . S
H441 C453 0.950 . S
H442 C450 0.950 . S
H443 C452 0.950 . S
H444 C454 0.950 . S
H445 C456 0.950 . S
H446 C458 0.950 . S
H447 C459 0.950 . S
C448 H440 0.950 . S
C448 C449 1.386 . S
C448 C450 1.391 . S
C449 C448 1.386 . S
C449 C453 1.393 . S
C450 H442 0.950 . S
C450 C448 1.391 . S
C450 C451 1.400 . S
C451 C450 1.400 . S
C451 C452 1.398 . S
C451 C457 1.491 . S
C452 H443 0.950 . S
C452 C451 1.398 . S
C452 C453 1.391 . S
C453 H441 0.950 . S
C453 C449 1.393 . S
C453 C452 1.391 . S
C454 H444 0.950 . S
C454 C455 1.386 . S
C454 C456 1.391 . S
C455 C454 1.386 . S
C455 C459 1.393 . S
C456 H445 0.950 . S
C456 C454 1.391 . S
C456 C457 1.400 . S
C457 C451 1.491 . S
C457 C456 1.400 . S
C457 C458 1.398 . S
C458 H446 0.950 . S
C458 C457 1.398 . S
C458 C459 1.391 . S
C459 H447 0.950 . S
C459 C455 1.393 . S
C459 C458 1.391 . S
H460 C468 0.950 . S
H461 C473 0.950 . S
H462 C470 0.950 . S
H463 C472 0.950 . S
H464 C474 0.950 . S
H465 C476 0.950 . S
H466 C478 0.950 . S
H467 C479 0.950 . S
C468 H460 0.950 . S
C468 C469 1.386 . S
C468 C470 1.391 . S
C469 C468 1.386 . S
C469 C473 1.393 . S
C470 H462 0.950 . S
C470 C468 1.391 . S
C470 C471 1.400 . S
C471 C470 1.400 . S
C471 C472 1.398 . S
C471 C477 1.491 . S
C472 H463 0.950 . S
C472 C471 1.398 . S
C472 C473 1.391 . S
C473 H461 0.950 . S
C473 C469 1.393 . S
C473 C472 1.391 . S
C474 H464 0.950 . S
C474 C475 1.386 . S
C474 C476 1.391 . S
C475 C474 1.386 . S
C475 C479 1.393 . S
C476 H465 0.950 . S
C476 C474 1.391 . S
C476 C477 1.400 . S
C477 C471 1.491 . S
C477 C476 1.400 . S
C477 C478 1.398 . S
C478 H466 0.950 . S
C478 C477 1.398 . S
C478 C479 1.391 . S
C479 H467 0.950 . S
C479 C475 1.393 . S
C479 C478 1.391 . S
H480 C488 0.950 . S
H481 C493 0.950 . S
H482 C490 0.950 . S
H483 C492 0.950 . S
H484 C494 0.950 . S
H485 C496 0.950 . S
H486 C498 0.950 . S
H487 C499 0.950 . S
C488 H480 0.950 . S
C488 C489 1.386 . S
C488 C490 1.391 . S
C489 C488 1.386 . S
C489 C493 1.393 . S
C490 H482 0.950 . S
C490 C488 1.391 . S
C490 C491 1.400 . S
C491 C490 1.400 . S
C491 C492 1.398 . S
C491 C497 1.491 . S
C492 H483 0.950 . S
C492 C491 1.398 . S
C492 C493 1.391 . S
C493 H481 0.950 . S
C493 C489 1.393 . S
C493 C492 1.391 . S
C494 H484 0.950 . S
C494 C495 1.386 . S
C494 C496 1.391 . S
C495 C494 1.386 . S
C495 C499 1.393 . S
C496 H485 0.950 . S
C496 C494 1.391 . S
C496 C497 1.400 . S
C497 C491 1.491 . S
C497 C496 1.400 . S
C497 C498 1.398 . S
C498 H486 0.950 . S
C498 C497 1.398 . S
C498 C499 1.391 . S
C499 H487 0.950 . S
C499 C495 1.393 . S
C499 C498 1.391 . S
H500 C508 0.950 . S
H501 C513 0.950 . S
H502 C510 0.950 . S
H503 C512 0.950 . S
H504 C514 0.950 . S
H505 C516 0.950 . S
H506 C518 0.950 . S
H507 C519 0.950 . S
C508 H500 0.950 . S
C508 C509 1.386 . S
C508 C510 1.391 . S
C509 C508 1.386 . S
C509 C513 1.393 . S
C510 H502 0.950 . S
C510 C508 1.391 . S
C510 C511 1.400 . S
C511 C510 1.400 . S
C511 C512 1.398 . S
C511 C517 1.491 . S
C512 H503 0.950 . S
C512 C511 1.398 . S
C512 C513 1.391 . S
C513 H501 0.950 . S
C513 C509 1.393 . S
C513 C512 1.391 . S
C514 H504 0.950 . S
C514 C515 1.386 . S
C514 C516 1.391 . S
C515 C514 1.386 . S
C515 C519 1.393 . S
C516 H505 0.950 . S
C516 C514 1.391 . S
C516 C517 1.400 . S
C517 C511 1.491 . S
C517 C516 1.400 . S
C517 C518 1.398 . S
C518 H506 0.950 . S
C518 C517 1.398 . S
C518 C519 1.391 . S
C519 H507 0.950 . S
C519 C515 1.393 . S
C519 C518 1.391 . S
H520 C528 0.950 . S
H521 C533 0.950 . S
H522 C530 0.950 . S
H523 C532 0.950 . S
H524 C534 0.950 . S
H525 C536 0.950 . S
H526 C538 0.950 . S
H527 C539 0.950 . S
C528 H520 0.950 . S
C528 C529 1.386 . S
C528 C530 1.391 . S
C529 C528 1.386 . S
C529 C533 1.393 . S
C530 H522 0.950 . S
C530 C528 1.391 . S
C530 C531 1.400 . S
C531 C530 1.400 . S
C531 C532 1.398 . S
C531 C537 1.491 . S
C532 H523 0.950 . S
C532 C531 1.398 . S
C532 C533 1.391 . S
C533 H521 0.950 . S
C533 C529 1.393 . S
C533 C532 1.391 . S
C534 H524 0.950 . S
C534 C535 1.386 . S
C534 C536 1.391 . S
C535 C534 1.386 . S
C535 C539 1.393 . S
C536 H525 0.950 . S
C536 C534 1.391 . S
C536 C537 1.400 . S
C537 C531 1.491 . S
C537 C536 1.400 . S
C537 C538 1.398 . S
C538 H526 0.950 . S
C538 C537 1.398 . S
C538 C539 1.391 . S
C539 H527 0.950 . S
C539 C535 1.393 . S
C539 C538 1.391 . S
H540 C548 0.950 . S
H541 C553 0.950 . S
H542 C550 0.950 . S
H543 C552 0.950 . S
H544 C554 0.950 . S
H545 C556 0.950 . S
H546 C558 0.950 . S
H547 C559 0.950 . S
C548 H540 0.950 . S
C548 C549 1.386 . S
C548 C550 1.391 . S
C549 C548 1.386 . S
C549 C553 1.393 . S
C550 H542 0.950 . S
C550 C548 1.391 . S
C550 C551 1.400 . S
C551 C550 1.400 . S
C551 C552 1.398 . S
C551 C557 1.491 . S
C552 H543 0.950 . S
C552 C551 1.398 . S
C552 C553 1.391 . S
C553 H541 0.950 . S
C553 C549 1.393 . S
C553 C552 1.391 . S
C554 H544 0.950 . S
C554 C555 1.386 . S
C554 C556 1.391 . S
C555 C554 1.386 . S
C555 C559 1.393 . S
C556 H545 0.950 . S
C556 C554 1.391 . S
C556 C557 1.400 . S
C557 C551 1.491 . S
C557 C556 1.400 . S
C557 C558 1.398 . S
C558 H546 0.950 . S
C558 C557 1.398 . S
C558 C559 1.391 . S
C559 H547 0.950 . S
C559 C555 1.393 . S
C559 C558 1.391 . S
H560 C568 0.950 . S
H561 C573 0.950 . S
H562 C570 0.950 . S
H563 C572 0.950 . S
H564 C574 0.950 . S
H565 C576 0.950 . S
H566 C578 0.950 . S
H567 C579 0.950 . S
C568 H560 0.950 . S
C568 C569 1.386 . S
C568 C570 1.391 . S
C569 C568 1.386 . S
C569 C573 1.393 . S
C570 H562 0.950 . S
C570 C568 1.391 . S
C570 C571 1.400 . S
C571 C570 1.400 . S
C571 C572 1.398 . S
C571 C577 1.491 . S
C572 H563 0.950 . S
C572 C571 1.398 . S
C572 C573 1.391 . S
C573 H561 0.950 . S
C573 C569 1.393 . S
C573 C572 1.391 . S
C574 H564 0.950 . S
C574 C575 1.386 . S
C574 C576 1.391 . S
C575 C574 1.386 . S
C575 C579 1.393 . S
C576 H565 0.950 . S
C576 C574 1.391 . S
C576 C577 1.400 . S
C577 C571 1.491 . S
C577 C576 1.400 . S
C577 C578 1.398 . S
C578 H566 0.950 . S
C578 C577 1.398 . S
C578 C579 1.391 . S
C579 H567 0.950 . S
C579 C575 1.393 . S
C579 C578 1.391 . S
H580 C588 0.950 . S
H581 C593 0.950 . S
H582 C590 0.950 . S
H583 C592 0.950 . S
H584 C594 0.950 . S
H585 C596 0.950 . S
H586 C598 0.950 . S
H587 C599 0.950 . S
C588 H580 0.950 . S
C588 C589 1.386 . S
C588 C590 1.391 . S
C589 C588 1.386 . S
C589 C593 1.393 . S
C590 H582 0.950 . S
C590 C588 1.391 . S
C590 C591 1.400 . S
C591 C590 1.400 . S
C591 C592 1.398 . S
C591 C597 1.491 . S
C592 H583 0.950 . S
C592 C591 1.398 . S
C592 C593 1.391 . S
C593 H581 0.950 . S
C593 C589 1.393 . S
C593 C592 1.391 . S
C594 H584 0.950 . S
C594 C595 1.386 . S
C594 C596 1.391 . S
C595 C594 1.386 . S
C595 C599 1.393 . S
C596 H585 0.950 . S
C596 C594 1.391 . S
C596 C597 1.400 . S
C597 C591 1.491 . S
C597 C596 1.400 . S
C597 C598 1.398 . S
C598 H586 0.950 . S
C598 C597 1.398 . S
C598 C599 1.391 . S
C599 H587 0.950 . S
C599 C595 1.393 . S
C599 C598 1.391 . S
H600 C608 0.950 . S
H601 C613 0.950 . S
H602 C610 0.950 . S
H603 C612 0.950 . S
H604 C614 0.950 . S
H605 C616 0.950 . S
H606 C618 0.950 . S
H607 C619 0.950 . S
C608 H600 0.950 . S
C608 C609 1.386 1_556 S
C608 C610 1.391 . S
C609 C608 1.386 1_554 S
C609 C613 1.393 . S
C610 H602 0.950 . S
C610 C608 1.391 . S
C610 C611 1.400 1_556 S
C611 C610 1.400 1_554 S
C611 C612 1.398 . S
C611 C617 1.491 . S
C612 H603 0.950 . S
C612 C611 1.398 . S
C612 C613 1.391 . S
C613 H601 0.950 . S
C613 C609 1.393 . S
C613 C612 1.391 . S
C614 H604 0.950 . S
C614 C615 1.386 . S
C614 C616 1.391 . S
C615 C614 1.386 . S
C615 C619 1.393 1_554 S
C616 H605 0.950 . S
C616 C614 1.391 . S
C616 C617 1.400 . S
C617 C611 1.491 . S
C617 C616 1.400 . S
C617 C618 1.398 1_554 S
C618 H606 0.950 . S
C618 C617 1.398 1_556 S
C618 C619 1.391 . S
C619 H607 0.950 . S
C619 C615 1.393 1_556 S
C619 C618 1.391 . S
H620 C628 0.950 . S
H621 C633 0.950 . S
H622 C630 0.950 . S
H623 C632 0.950 . S
H624 C634 0.950 . S
H625 C636 0.950 . S
H626 C638 0.950 . S
H627 C639 0.950 . S
C628 H620 0.950 . S
C628 C629 1.386 . S
C628 C630 1.391 . S
C629 C628 1.386 . S
C629 C633 1.393 . S
C630 H622 0.950 . S
C630 C628 1.391 . S
C630 C631 1.400 . S
C631 C630 1.400 . S
C631 C632 1.398 . S
C631 C637 1.491 . S
C632 H623 0.950 . S
C632 C631 1.398 . S
C632 C633 1.391 . S
C633 H621 0.950 . S
C633 C629 1.393 . S
C633 C632 1.391 . S
C634 H624 0.950 . S
C634 C635 1.386 . S
C634 C636 1.391 . S
C635 C634 1.386 . S
C635 C639 1.393 . S
C636 H625 0.950 . S
C636 C634 1.391 . S
C636 C637 1.400 . S
C637 C631 1.491 . S
C637 C636 1.400 . S
C637 C638 1.398 . S
C638 H626 0.950 . S
C638 C637 1.398 . S
C638 C639 1.391 . S
C639 H627 0.950 . S
C639 C635 1.393 . S
C639 C638 1.391 . S
H640 C648 0.950 . S
H641 C653 0.950 . S
H642 C650 0.950 . S
H643 C652 0.950 . S
H644 C654 0.950 . S
H645 C656 0.950 . S
H646 C658 0.950 . S
H647 C659 0.950 . S
C648 H640 0.950 . S
C648 C649 1.386 . S
C648 C650 1.391 . S
C649 C648 1.386 . S
C649 C653 1.393 . S
C650 H642 0.950 . S
C650 C648 1.391 . S
C650 C651 1.400 . S
C651 C650 1.400 . S
C651 C652 1.398 . S
C651 C657 1.491 . S
C652 H643 0.950 . S
C652 C651 1.398 . S
C652 C653 1.391 . S
C653 H641 0.950 . S
C653 C649 1.393 . S
C653 C652 1.391 . S
C654 H644 0.950 . S
C654 C655 1.386 . S
C654 C656 1.391 . S
C655 C654 1.386 . S
C655 C659 1.393 . S
C656 H645 0.950 . S
C656 C654 1.391 . S
C656 C657 1.400 . S
C657 C651 1.491 . S
C657 C656 1.400 . S
C657 C658 1.398 . S
C658 H646 0.950 . S
C658 C657 1.398 . S
C658 C659 1.391 . S
C659 H647 0.950 . S
C659 C655 1.393 . S
C659 C658 1.391 . S
H660 C668 0.950 . S
H661 C673 0.950 . S
H662 C670 0.950 . S
H663 C672 0.950 . S
H664 C674 0.950 . S
H665 C676 0.950 . S
H666 C678 0.950 . S
H667 C679 0.950 . S
C668 H660 0.950 . S
C668 C669 1.386 1_556 S
C668 C670 1.391 . S
C669 C668 1.386 1_554 S
C669 C673 1.393 . S
C670 H662 0.950 . S
C670 C668 1.391 . S
C670 C671 1.400 1_556 S
C671 C670 1.400 1_554 S
C671 C672 1.398 . S
C671 C677 1.491 . S
C672 H663 0.950 . S
C672 C671 1.398 . S
C672 C673 1.391 . S
C673 H661 0.950 . S
C673 C669 1.393 . S
C673 C672 1.391 . S
C674 H664 0.950 . S
C674 C675 1.386 . S
C674 C676 1.391 . S
C675 C674 1.386 . S
C675 C679 1.393 1_554 S
C676 H665 0.950 . S
C676 C674 1.391 . S
C676 C677 1.400 . S
C677 C671 1.491 . S
C677 C676 1.400 . S
C677 C678 1.398 1_554 S
C678 H666 0.950 . S
C678 C677 1.398 1_556 S
C678 C679 1.391 . S
C679 H667 0.950 . S
C679 C675 1.393 1_556 S
C679 C678 1.391 . S
H680 C688 0.950 . S
H681 C693 0.950 . S
H682 C690 0.950 . S
H683 C692 0.950 . S
H684 C694 0.950 . S
H685 C696 0.950 . S
H686 C698 0.950 . S
H687 C699 0.950 . S
C688 H680 0.950 . S
C688 C689 1.386 . S
C688 C690 1.391 . S
C689 C688 1.386 . S
C689 C693 1.393 . S
C690 H682 0.950 . S
C690 C688 1.391 . S
C690 C691 1.400 . S
C691 C690 1.400 . S
C691 C692 1.398 . S
C691 C697 1.491 . S
C692 H683 0.950 . S
C692 C691 1.398 . S
C692 C693 1.391 . S
C693 H681 0.950 . S
C693 C689 1.393 . S
C693 C692 1.391 . S
C694 H684 0.950 . S
C694 C695 1.386 . S
C694 C696 1.391 . S
C695 C694 1.386 . S
C695 C699 1.393 . S
C696 H685 0.950 . S
C696 C694 1.391 . S
C696 C697 1.400 . S
C697 C691 1.491 . S
C697 C696 1.400 . S
C697 C698 1.398 . S
C698 H686 0.950 . S
C698 C697 1.398 . S
C698 C699 1.391 . S
C699 H687 0.950 . S
C699 C695 1.393 . S
C699 C698 1.391 . S
H700 C708 0.950 . S
H701 C713 0.950 . S
H702 C710 0.950 . S
H703 C712 0.950 . S
H704 C714 0.950 . S
H705 C716 0.950 . S
H706 C718 0.950 . S
H707 C719 0.950 . S
C708 H700 0.950 . S
C708 C709 1.386 . S
C708 C710 1.391 . S
C709 C708 1.386 . S
C709 C713 1.393 . S
C710 H702 0.950 . S
C710 C708 1.391 . S
C710 C711 1.400 . S
C711 C710 1.400 . S
C711 C712 1.398 . S
C711 C717 1.491 . S
C712 H703 0.950 . S
C712 C711 1.398 . S
C712 C713 1.391 . S
C713 H701 0.950 . S
C713 C709 1.393 . S
C713 C712 1.391 . S
C714 H704 0.950 . S
C714 C715 1.386 . S
C714 C716 1.391 . S
C715 C714 1.386 . S
C715 C719 1.393 . S
C716 H705 0.950 . S
C716 C714 1.391 . S
C716 C717 1.400 . S
C717 C711 1.491 . S
C717 C716 1.400 . S
C717 C718 1.398 . S
C718 H706 0.950 . S
C718 C717 1.398 . S
C718 C719 1.391 . S
C719 H707 0.950 . S
C719 C715 1.393 . S
C719 C718 1.391 . S
C249 C5 1.482 . S
C255 C151 1.479 . S
C269 C31 1.502 . S
C275 C94 1.501 . S
C295 C109 1.489 . S
C289 C53 1.538 . S
C309 C71 1.503 . S
C315 C128 1.491 . S
C335 C185 1.471 . S
C329 C75 1.518 . S
C355 C204 1.511 . S
C349 C9 1.531 . S
C375 C227 1.498 . S
C369 C27 1.506 . S
C395 C170 1.487 . S
C389 C49 1.472 . S
C409 C51 1.474 . S
C415 C113 1.488 . S
C429 C72 1.494 . S
C435 C132 1.511 . S
C449 C6 1.540 . S
C455 C147 1.495 . S
C475 C90 1.478 . S
C469 C29 1.507 . S
C489 C28 1.512 . S
C495 C223 1.470 . S
C515 C166 1.508 . S
C509 C50 1.529 . S
C535 C189 1.504 . S
C529 C73 1.504 . S
C549 C7 1.483 . S
C555 C208 1.482 . S
C575 C99 1.365 1_554 S
C569 C4 1.510 . S
C595 C118 1.418 . S
C589 C30 1.513 . S
C609 C52 1.516 . S
C615 C137 1.425 . S
C629 C70 1.506 . S
C635 C156 1.377 . S
C655 C175 1.399 . S
C649 C74 1.507 . S
C669 C8 1.505 . S
C675 C194 1.427 1_554 S
C689 C26 1.504 . S
C695 C213 1.412 . S
C709 C48 1.510 . S
C715 C232 1.366 . S
