# Generated by pormake.
# Topology pyr, (3,6)-cn, num edge types: 1
# Building blocks:
#     Node 0, Type 0, BuildingBlock: ESEHIV_clean_linker_0, # of connection points: 3
#     Node 1, Type 0, BuildingBlock: ESEHIV_clean_linker_0, # of connection points: 3
#     Node 2, Type 0, BuildingBlock: ESEHIV_clean_linker_0, # of connection points: 3
#     Node 3, Type 0, BuildingBlock: ESEHIV_clean_linker_0, # of connection points: 3
#     Node 4, Type 0, BuildingBlock: ESEHIV_clean_linker_0, # of connection points: 3
#     Node 5, Type 0, BuildingBlock: ESEHIV_clean_linker_0, # of connection points: 3
#     Node 6, Type 0, BuildingBlock: ESEHIV_clean_linker_0, # of connection points: 3
#     Node 7, Type 0, BuildingBlock: ESEHIV_clean_linker_0, # of connection points: 3
#     Node 8, Type 1, BuildingBlock: BETDEL_clean_sbu_0, # of connection points: 6
#     Node 9, Type 1, BuildingBlock: BETDEL_clean_sbu_0, # of connection points: 6
#     Node 10, Type 1, BuildingBlock: BETDEL_clean_sbu_0, # of connection points: 6
#     Node 11, Type 1, BuildingBlock: BETDEL_clean_sbu_0, # of connection points: 6
#     Edge 12, Type (0, 1), BuildingBlock: XUDNAN_clean_linker_2, # of connection points: 2
#     Edge 13, Type (0, 1), BuildingBlock: XUDNAN_clean_linker_2, # of connection points: 2
#     Edge 14, Type (0, 1), BuildingBlock: XUDNAN_clean_linker_2, # of connection points: 2
#     Edge 15, Type (0, 1), BuildingBlock: XUDNAN_clean_linker_2, # of connection points: 2
#     Edge 16, Type (0, 1), BuildingBlock: XUDNAN_clean_linker_2, # of connection points: 2
#     Edge 17, Type (0, 1), BuildingBlock: XUDNAN_clean_linker_2, # of connection points: 2
#     Edge 18, Type (0, 1), BuildingBlock: XUDNAN_clean_linker_2, # of connection points: 2
#     Edge 19, Type (0, 1), BuildingBlock: XUDNAN_clean_linker_2, # of connection points: 2
#     Edge 20, Type (0, 1), BuildingBlock: XUDNAN_clean_linker_2, # of connection points: 2
#     Edge 21, Type (0, 1), BuildingBlock: XUDNAN_clean_linker_2, # of connection points: 2
#     Edge 22, Type (0, 1), BuildingBlock: XUDNAN_clean_linker_2, # of connection points: 2
#     Edge 23, Type (0, 1), BuildingBlock: XUDNAN_clean_linker_2, # of connection points: 2
#     Edge 24, Type (0, 1), BuildingBlock: XUDNAN_clean_linker_2, # of connection points: 2
#     Edge 25, Type (0, 1), BuildingBlock: XUDNAN_clean_linker_2, # of connection points: 2
#     Edge 26, Type (0, 1), BuildingBlock: XUDNAN_clean_linker_2, # of connection points: 2
#     Edge 27, Type (0, 1), BuildingBlock: XUDNAN_clean_linker_2, # of connection points: 2
#     Edge 28, Type (0, 1), BuildingBlock: XUDNAN_clean_linker_2, # of connection points: 2
#     Edge 29, Type (0, 1), BuildingBlock: XUDNAN_clean_linker_2, # of connection points: 2
#     Edge 30, Type (0, 1), BuildingBlock: XUDNAN_clean_linker_2, # of connection points: 2
#     Edge 31, Type (0, 1), BuildingBlock: XUDNAN_clean_linker_2, # of connection points: 2
#     Edge 32, Type (0, 1), BuildingBlock: XUDNAN_clean_linker_2, # of connection points: 2
#     Edge 33, Type (0, 1), BuildingBlock: XUDNAN_clean_linker_2, # of connection points: 2
#     Edge 34, Type (0, 1), BuildingBlock: XUDNAN_clean_linker_2, # of connection points: 2
#     Edge 35, Type (0, 1), BuildingBlock: XUDNAN_clean_linker_2, # of connection points: 2
# Relax obj value: 0.032
# Max RMSD: 0.092
# Mean RMSD: 0.039
data_MOF--net-pyr--node1-BETDEL_clean_sbu_0--node2-ESEHIV_clean_linker_0--edge1-XUDNAN_clean_linker_2
_symmetry_space_group_name_H-M    P1
_symmetry_Int_Tables_number       1
_symmetry_cell_setting            triclinic
loop_
_symmetry_equiv_pos_as_xyz
'x, y, z'
_cell_length_a     34.366928
_cell_length_b     36.074217
_cell_length_c     33.406883
_cell_angle_alpha  91.599901
_cell_angle_beta   88.951378
_cell_angle_gamma 95.68653
loop_
_atom_site_label
_atom_site_type_symbol
_atom_site_fract_x
_atom_site_fract_y
_atom_site_fract_z
_atom_type_partial_charge
H0 H 0.17821 0.2599 0.21733 0.0
H1 H 0.23621 0.15968 0.20747 0.0
H2 H 0.26302 0.24612 0.12334 0.0
C3 C 0.20002 0.24391 0.20318 0.0
C4 C 0.21988 0.2573 0.1687 0.0
C5 C 0.20428 0.20809 0.2164 0.0
C6 C 0.23328 0.18795 0.19864 0.0
C7 C 0.25545 0.20243 0.16607 0.0
C8 C 0.24846 0.23688 0.15089 0.0
H9 H 0.24922 0.87409 0.69066 0.0
H10 H 0.31712 0.78514 0.71856 0.0
H11 H 0.24881 0.77694 0.61183 0.0
C12 C 0.25783 0.84658 0.6834 0.0
C13 C 0.24502 0.82749 0.64797 0.0
C14 C 0.28365 0.83128 0.70874 0.0
C15 C 0.29664 0.7966 0.69912 0.0
C16 C 0.28422 0.77703 0.66417 0.0
C17 C 0.25844 0.79246 0.63867 0.0
H18 H 0.67578 0.30681 0.89949 0.0
H19 H 0.68587 0.39466 0.81354 0.0
H20 H 0.5906 0.30761 0.80754 0.0
C21 C 0.66433 0.32043 0.87436 0.0
C22 C 0.6307 0.3034 0.85563 0.0
C23 C 0.68513 0.35303 0.85924 0.0
C24 C 0.66972 0.37034 0.82625 0.0
C25 C 0.63538 0.35416 0.8073 0.0
C26 C 0.61633 0.32078 0.82245 0.0
H27 H 0.81958 0.69209 0.40716 0.0
H28 H 0.8993 0.70564 0.30696 0.0
H29 H 0.81399 0.60915 0.31211 0.0
C30 C 0.83034 0.68203 0.37855 0.0
C31 C 0.81321 0.64804 0.36233 0.0
C32 C 0.86169 0.70286 0.35942 0.0
C33 C 0.87471 0.69014 0.32166 0.0
C34 C 0.85772 0.65622 0.30402 0.0
C35 C 0.82688 0.6354 0.32479 0.0
H36 H 0.76446 0.8621 0.80415 0.0
H37 H 0.82289 0.76262 0.78554 0.0
H38 H 0.7445 0.7716 0.88544 0.0
C39 C 0.76922 0.83401 0.81212 0.0
C40 C 0.75109 0.81882 0.84678 0.0
C41 C 0.79538 0.81391 0.78952 0.0
C42 C 0.80116 0.77776 0.80101 0.0
C43 C 0.7825 0.76219 0.83503 0.0
C44 C 0.75772 0.78293 0.85809 0.0
H45 H 0.71062 0.23552 0.30155 0.0
H46 H 0.79243 0.15438 0.31504 0.0
H47 H 0.77592 0.23631 0.40939 0.0
C48 C 0.73221 0.22369 0.31931 0.0
C49 C 0.74178 0.23954 0.35686 0.0
C50 C 0.75029 0.19303 0.3042 0.0
C51 C 0.77814 0.1777 0.32733 0.0
C52 C 0.78831 0.1933 0.36543 0.0
C53 C 0.7696 0.22428 0.37988 0.0
H54 H 0.3058 0.72028 0.13249 0.0
H55 H 0.31162 0.63008 0.21292 0.0
H56 H 0.40848 0.71469 0.2038 0.0
C57 C 0.32171 0.70634 0.15432 0.0
C58 C 0.3595 0.72177 0.1656 0.0
C59 C 0.30381 0.6735 0.17127 0.0
C60 C 0.32433 0.65603 0.20044 0.0
C61 C 0.36178 0.67091 0.21282 0.0
C62 C 0.37911 0.70394 0.19543 0.0
H63 H 0.12531 0.32039 0.72005 0.0
H64 H 0.20816 0.32675 0.6213 0.0
H65 H 0.21779 0.4105 0.71505 0.0
C66 C 0.15097 0.33416 0.70545 0.0
C67 C 0.17041 0.36697 0.72309 0.0
C68 C 0.16434 0.31951 0.66845 0.0
C69 C 0.19788 0.33764 0.64974 0.0
C70 C 0.2173 0.37047 0.66622 0.0
C71 C 0.20316 0.38487 0.70265 0.0
Dy72 Dy 0.02188 0.02083 0.4736 0.0
C73 C 0.98539 0.96191 0.62464 0.0
C74 C 0.044 0.05461 0.40424 0.0
Dy75 Dy 1.00048 1.00203 0.55719 0.0
O76 O 0.06664 0.03891 0.42762 0.0
O77 O 0.00833 0.05162 0.41836 0.0
O78 O 0.05754 0.97311 0.46828 0.0
O79 O 0.05546 1.00256 0.52379 0.0
C80 C 0.06812 0.97487 0.50535 0.0
C81 C 0.95249 0.04558 0.52336 0.0
O82 O 0.04221 0.05224 0.57233 0.0
O83 O 0.03779 0.07462 0.50872 0.0
O84 O 0.97099 0.99288 0.61725 0.0
O85 O 0.00926 0.95398 0.59593 0.0
O86 O 0.96157 0.04843 0.5609 0.0
O87 O 0.96702 0.0183 0.5067 0.0
O88 O 0.98277 0.96953 0.4565 0.0
O89 O 0.97729 0.95011 0.52194 0.0
C90 C 0.04804 0.07982 0.54679 0.0
C91 C 0.97177 0.9437 0.48295 0.0
Dy92 Dy 0.53517 0.02662 0.05234 0.0
C93 C 0.43316 0.95645 0.92832 0.0
C94 C 0.58898 0.06909 0.09686 0.0
Dy95 Dy 0.48267 0.99564 0.97998 0.0
O96 O 0.58222 0.0331 0.09843 0.0
O97 O 0.56596 0.08204 0.07134 0.0
O98 O 0.51464 0.98075 0.0965 0.0
O99 O 0.49344 0.97995 0.03945 0.0
C100 C 0.49164 0.96186 0.0711 0.0
C101 C 0.51776 0.06603 0.97174 0.0
O102 O 0.43961 0.0195 0.02086 0.0
O103 O 0.482 0.05708 0.06209 0.0
O104 O 0.46831 0.97066 0.91887 0.0
O105 O 0.42551 0.96322 0.96581 0.0
O106 O 0.48435 0.05321 0.95672 0.0
O107 O 0.53225 0.0391 0.98781 0.0
O108 O 0.57693 0.99567 0.01594 0.0
O109 O 0.53299 0.96122 0.97327 0.0
C110 C 0.44669 0.04663 0.04795 0.0
C111 C 0.56829 0.96892 0.9886 0.0
Dy112 Dy 0.5248 0.47492 0.47267 0.0
C113 C 0.44938 0.58639 0.56989 0.0
C114 C 0.5764 0.43754 0.42899 0.0
Dy115 Dy 0.4963 0.54226 0.52806 0.0
O116 O 0.58496 0.46815 0.44967 0.0
O117 O 0.53884 0.42752 0.43107 0.0
O118 O 0.47837 0.43469 0.50125 0.0
O119 O 0.47009 0.49139 0.4986 0.0
C120 C 0.45645 0.46064 0.51295 0.0
C121 C 0.57154 0.55531 0.50222 0.0
O122 O 0.51597 0.5033 0.57486 0.0
O123 O 0.54988 0.46469 0.53227 0.0
O124 O 0.45596 0.55303 0.58003 0.0
O125 O 0.46914 0.59582 0.5376 0.0
O126 O 0.55579 0.57738 0.52802 0.0
O127 O 0.54596 0.52916 0.49426 0.0
O128 O 0.50116 0.50939 0.42553 0.0
O129 O 0.4725 0.55347 0.46653 0.0
C130 C 0.53904 0.47589 0.56866 0.0
C131 C 0.48035 0.53856 0.43047 0.0
Dy132 Dy 0.01297 0.47813 0.02537 0.0
C133 C 0.95473 0.59489 0.93906 0.0
C134 C 0.06253 0.42638 0.03742 0.0
Dy135 Dy 0.99331 0.54564 0.97889 0.0
O136 O 0.02611 0.42351 0.04986 0.0
O137 O 0.07122 0.45699 0.0184 0.0
O138 O 0.98293 0.48859 0.08506 0.0
O139 O 0.98143 0.52594 0.0387 0.0
C140 C 0.9713 0.5203 0.0748 0.0
C141 C 0.04614 0.50446 0.94353 0.0
O142 O 0.03913 0.57595 0.01849 0.0
O143 O 0.06121 0.52213 0.04292 0.0
O144 O 0.97124 0.56739 0.92269 0.0
O145 O 0.96079 0.59674 0.9774 0.0
O146 O 0.04857 0.54062 0.94256 0.0
O147 O 0.01536 0.49246 0.96222 0.0
O148 O 0.96134 0.45046 0.99294 0.0
O149 O 0.9387 0.50499 0.97129 0.0
C150 C 0.06403 0.55883 0.03965 0.0
C151 C 0.93437 0.46823 0.97564 0.0
H152 H 0.21388 0.15895 0.27591 0.0
H153 H 0.12537 0.21349 0.21513 0.0
H154 H 0.07394 0.17909 0.25533 0.0
H155 H 0.15883 0.0694 0.27805 0.0
H156 H 0.17612 0.05843 0.32652 0.0
H157 H 0.20641 0.08892 0.29439 0.0
H158 H 0.21157 0.1403 0.35052 0.0
H159 H 0.18172 0.10978 0.38294 0.0
H160 H 0.16748 0.15535 0.37296 0.0
H161 H 0.03174 0.13839 0.30235 0.0
H162 H 1.00308 0.09532 0.35421 0.0
H163 H 0.11909 0.06511 0.37951 0.0
C164 C 0.18373 0.16376 0.27113 0.0
C165 C 0.17386 0.18942 0.24291 0.0
C166 C 0.13391 0.19485 0.2375 0.0
C167 C 0.10433 0.17508 0.25979 0.0
C168 C 0.11509 0.14966 0.28697 0.0
C169 C 0.1538 0.14396 0.2927 0.0
C170 C 0.15757 0.11461 0.32326 0.0
C171 C 0.1758 0.08085 0.30441 0.0
C172 C 0.18095 0.13101 0.35957 0.0
C173 C 0.11498 0.10497 0.33399 0.0
C174 C 0.0908 0.12538 0.31283 0.0
C175 C 0.05032 0.122 0.31896 0.0
C176 C 0.0343 0.0975 0.34821 0.0
C177 C 0.05894 0.07694 0.37042 0.0
C178 C 0.09954 0.08031 0.36264 0.0
H179 H 0.35933 0.85526 0.7247 0.0
H180 H 0.24131 0.85384 0.77297 0.0
H181 H 0.267 0.88574 0.83517 0.0
H182 H 0.40708 0.83885 0.81494 0.0
H183 H 0.44994 0.87031 0.80455 0.0
H184 H 0.42223 0.84785 0.76388 0.0
H185 H 0.41376 0.91218 0.7343 0.0
H186 H 0.4417 0.93484 0.77473 0.0
H187 H 0.39326 0.94731 0.76527 0.0
H188 H 0.30597 0.91385 0.89305 0.0
H189 H 0.35492 0.94246 0.94079 0.0
H190 H 0.44729 0.92902 0.85287 0.0
C191 C 0.33903 0.86187 0.74843 0.0
C192 C 0.29851 0.85212 0.74464 0.0
C193 C 0.27248 0.86131 0.77573 0.0
C194 C 0.2868 0.87922 0.81101 0.0
C195 C 0.32707 0.88811 0.81411 0.0
C196 C 0.35277 0.88029 0.78343 0.0
C197 C 0.39459 0.89348 0.79397 0.0
C198 C 0.41994 0.86066 0.79437 0.0
C199 C 0.41183 0.92375 0.76537 0.0
C200 C 0.3885 0.90939 0.8357 0.0
C201 C 0.34938 0.90576 0.84684 0.0
C202 C 0.33663 0.91722 0.88455 0.0
C203 C 0.36461 0.93325 0.91146 0.0
C204 C 0.40466 0.93799 0.90024 0.0
C205 C 0.41675 0.92589 0.86195 0.0
H206 H 0.6186 0.4262 0.78763 0.0
H207 H 0.62174 0.31388 0.73847 0.0
H208 H 0.59683 0.33337 0.67463 0.0
H209 H 0.52877 0.4445 0.73913 0.0
H210 H 0.54434 0.49255 0.72896 0.0
H211 H 0.56355 0.47083 0.7713 0.0
H212 H 0.63407 0.48847 0.74515 0.0
H213 H 0.61508 0.51043 0.70284 0.0
H214 H 0.64752 0.47449 0.69495 0.0
H215 H 0.57191 0.36332 0.61644 0.0
H216 H 0.54837 0.40263 0.56528 0.0
H217 H 0.55804 0.49747 0.64876 0.0
C218 C 0.61425 0.40589 0.76325 0.0
C219 C 0.622 0.36826 0.76837 0.0
C220 C 0.61569 0.34259 0.73568 0.0
C221 C 0.60158 0.35346 0.69915 0.0
C222 C 0.5936 0.39028 0.69523 0.0
C223 C 0.59962 0.41629 0.72617 0.0
C224 C 0.58788 0.45398 0.7133 0.0
C225 C 0.55413 0.46618 0.73976 0.0
C226 C 0.62325 0.4836 0.71411 0.0
C227 C 0.5745 0.4449 0.6704 0.0
C228 C 0.57833 0.40787 0.66099 0.0
C229 C 0.56881 0.39235 0.62345 0.0
C230 C 0.55548 0.41513 0.59444 0.0
C231 C 0.55132 0.45337 0.60255 0.0
C232 C 0.56055 0.46836 0.64151 0.0
H233 H 0.87542 0.5848 0.28339 0.0
H234 H 0.87596 0.69539 0.23566 0.0
H235 H 0.90269 0.67263 0.17124 0.0
H236 H 0.966 0.56401 0.2371 0.0
H237 H 0.95022 0.51545 0.2277 0.0
H238 H 0.92957 0.54013 0.26924 0.0
H239 H 0.86 0.5214 0.24229 0.0
H240 H 0.88047 0.49669 0.20062 0.0
H241 H 0.84883 0.53249 0.19174 0.0
H242 H 0.92978 0.63706 0.111 0.0
H243 H 0.95795 0.5931 0.06275 0.0
H244 H 0.94182 0.5064 0.15045 0.0
C245 C 0.88072 0.60416 0.25924 0.0
C246 C 0.87324 0.64197 0.26472 0.0
C247 C 0.88148 0.66641 0.23244 0.0
C248 C 0.89654 0.65365 0.19559 0.0
C249 C 0.90366 0.61629 0.19125 0.0
C250 C 0.89623 0.59196 0.22237 0.0
C251 C 0.9079 0.55353 0.21059 0.0
C252 C 0.94035 0.54265 0.23777 0.0
C253 C 0.87217 0.5243 0.21135 0.0
C254 C 0.92303 0.55995 0.16805 0.0
C255 C 0.92005 0.59625 0.15725 0.0
C256 C 0.9322 0.60859 0.11928 0.0
C257 C 0.94806 0.5834 0.09193 0.0
C258 C 0.95202 0.54626 0.10263 0.0
C259 C 0.93912 0.53457 0.14124 0.0
H260 H 0.32502 0.17867 0.18757 0.0
H261 H 0.23991 0.17216 0.09282 0.0
H262 H 0.27916 0.12998 0.05325 0.0
H263 H 0.40985 0.18085 0.12201 0.0
H264 H 0.43671 0.15326 0.15382 0.0
H265 H 0.4013 0.1819 0.17542 0.0
H266 H 0.36533 0.12406 0.20914 0.0
H267 H 0.40057 0.09522 0.18753 0.0
H268 H 0.34916 0.08356 0.17875 0.0
H269 H 0.32571 0.08826 0.02516 0.0
H270 H 0.38053 0.05213 0.00648 0.0
H271 H 0.43836 0.08788 0.11759 0.0
C272 C 0.31493 0.16822 0.15848 0.0
C273 C 0.2798 0.1783 0.14285 0.0
C274 C 0.26704 0.16457 0.1048 0.0
C275 C 0.28895 0.14062 0.08234 0.0
C276 C 0.32357 0.13112 0.09841 0.0
C277 C 0.33682 0.14469 0.13534 0.0
C278 C 0.3758 0.13097 0.14476 0.0
C279 C 0.40781 0.1637 0.14925 0.0
C280 C 0.3725 0.10702 0.18227 0.0
C281 C 0.38227 0.10761 0.10733 0.0
C282 C 0.35147 0.10782 0.08133 0.0
C283 C 0.35011 0.0879 0.04512 0.0
C284 C 0.38133 0.06736 0.03491 0.0
C285 C 0.41363 0.06727 0.06064 0.0
C286 C 0.4141 0.08767 0.09732 0.0
H287 H 0.18677 0.87326 0.66658 0.0
H288 H 0.24576 0.82282 0.56566 0.0
H289 H 0.20541 0.85367 0.51935 0.0
H290 H 0.09105 0.87151 0.62316 0.0
H291 H 0.08198 0.9166 0.64378 0.0
H292 H 0.11314 0.88817 0.66966 0.0
H293 H 0.16895 0.94203 0.66893 0.0
H294 H 0.13798 0.97061 0.64306 0.0
H295 H 0.18503 0.96216 0.62193 0.0
H296 H 0.15969 0.88981 0.48385 0.0
H297 H 0.11273 0.93143 0.46072 0.0
H298 H 0.08773 0.96415 0.58383 0.0
C299 C 0.19148 0.86872 0.63477 0.0
C300 C 0.21941 0.84509 0.62001 0.0
C301 C 0.224 0.83982 0.57802 0.0
C302 C 0.20143 0.85755 0.55135 0.0
C303 C 0.1747 0.88089 0.56698 0.0
C304 C 0.16973 0.88677 0.60765 0.0
C305 C 0.14019 0.91468 0.61641 0.0
C306 C 0.10447 0.89665 0.63963 0.0
C307 C 0.15918 0.94943 0.63891 0.0
C308 C 0.12951 0.92366 0.57421 0.0
C309 C 0.14949 0.90342 0.54628 0.0
C310 C 0.14401 0.90595 0.50538 0.0
C311 C 0.11726 0.9297 0.49259 0.0
C312 C 0.09672 0.95106 0.52052 0.0
C313 C 0.10315 0.94823 0.56188 0.0
H314 H 0.72052 0.42528 0.87599 0.0
H315 H 0.74152 0.30855 0.87771 0.0
H316 H 0.80554 0.3258 0.90771 0.0
H317 H 0.82218 0.45957 0.85049 0.0
H318 H 0.822 0.50132 0.88141 0.0
H319 H 0.77718 0.48041 0.85966 0.0
H320 H 0.74469 0.47683 0.93013 0.0
H321 H 0.78946 0.49755 0.95207 0.0
H322 H 0.76728 0.45329 0.96912 0.0
H323 H 0.86596 0.35401 0.9398 0.0
H324 H 0.92213 0.39245 0.96844 0.0
H325 H 0.86643 0.49246 0.94477 0.0
C326 C 0.73873 0.40343 0.88244 0.0
C327 C 0.72514 0.36534 0.87523 0.0
C328 C 0.75028 0.33777 0.88398 0.0
C329 C 0.78704 0.34729 0.90082 0.0
C330 C 0.79908 0.38471 0.90849 0.0
C331 C 0.77609 0.41252 0.89926 0.0
C332 C 0.7969 0.45062 0.91059 0.0
C333 C 0.80505 0.47439 0.87331 0.0
C334 C 0.77316 0.47076 0.94237 0.0
C335 C 0.8348 0.4396 0.92784 0.0
C336 C 0.83511 0.40135 0.92632 0.0
C337 C 0.86619 0.38404 0.94097 0.0
C338 C 0.89804 0.40626 0.95739 0.0
C339 C 0.89909 0.44567 0.95906 0.0
C340 C 0.86679 0.46248 0.94396 0.0
H341 H 0.73956 0.61454 0.34045 0.0
H342 H 0.81842 0.63141 0.44069 0.0
H343 H 0.76681 0.60365 0.48575 0.0
H344 H 0.65548 0.63744 0.39104 0.0
H345 H 0.62174 0.60231 0.36762 0.0
H346 H 0.66597 0.61929 0.34159 0.0
H347 H 0.68534 0.55189 0.33316 0.0
H348 H 0.64095 0.5347 0.35903 0.0
H349 H 0.6876 0.5238 0.37671 0.0
H350 H 0.7049 0.58382 0.52199 0.0
H351 H 0.63709 0.56745 0.54618 0.0
H352 H 0.59739 0.5577 0.42369 0.0
C353 C 0.7462 0.61135 0.37165 0.0
C354 C 0.78312 0.62551 0.38701 0.0
C355 C 0.79036 0.62126 0.42822 0.0
C356 C 0.76123 0.60535 0.45411 0.0
C357 C 0.72481 0.59299 0.43851 0.0
C358 C 0.71724 0.59506 0.39815 0.0
C359 C 0.67469 0.58123 0.38996 0.0
C360 C 0.65321 0.6119 0.37146 0.0
C361 C 0.672 0.5458 0.36312 0.0
C362 C 0.65941 0.57261 0.43213 0.0
C363 C 0.68902 0.57954 0.45958 0.0
C364 C 0.68169 0.57729 0.50072 0.0
C365 C 0.64312 0.56802 0.51424 0.0
C366 C 0.61238 0.56036 0.48683 0.0
C367 C 0.62071 0.56217 0.44519 0.0
H368 H 0.14345 0.267 0.15855 0.0
H369 H 0.26096 0.31407 0.12726 0.0
H370 H 0.23291 0.36011 0.08529 0.0
H371 H 0.09984 0.27695 0.06478 0.0
H372 H 0.05419 0.28911 0.08632 0.0
H373 H 0.08357 0.25962 0.11299 0.0
H374 H 0.08509 0.30503 0.17466 0.0
H375 H 0.05509 0.33427 0.14852 0.0
H376 H 0.10139 0.3536 0.16834 0.0
H377 H 0.19147 0.40034 0.047 0.0
H378 H 0.14036 0.43596 0.0204 0.0
H379 H 0.05087 0.36287 0.07996 0.0
C380 C 0.16352 0.28748 0.14375 0.0
C381 C 0.20443 0.2874 0.14664 0.0
C382 C 0.2295 0.31382 0.12547 0.0
C383 C 0.21386 0.33988 0.10157 0.0
C384 C 0.17328 0.33886 0.09932 0.0
C385 C 0.14855 0.31358 0.12024 0.0
C386 C 0.10607 0.31866 0.11394 0.0
C387 C 0.08468 0.28402 0.09327 0.0
C388 C 0.08573 0.32849 0.15372 0.0
C389 C 0.11059 0.35123 0.08644 0.0
C390 C 0.14954 0.36216 0.07787 0.0
C391 C 0.16093 0.39206 0.0535 0.0
C392 C 0.13173 0.41197 0.03849 0.0
C393 C 0.09188 0.40198 0.04837 0.0
C394 C 0.08116 0.37086 0.07191 0.0
H395 H 0.61189 0.27602 0.93171 0.0
H396 H 0.61263 0.24335 0.80572 0.0
H397 H 0.58892 0.17898 0.82305 0.0
H398 H 0.64231 0.1901 0.97011 0.0
H399 H 0.61023 0.18948 0.01344 0.0
H400 H 0.62844 0.23323 0.99193 0.0
H401 H 0.55761 0.25024 0.98404 0.0
H402 H 0.53925 0.20675 0.00594 0.0
H403 H 0.52281 0.21843 0.95736 0.0
H404 H 0.56583 0.11809 0.85307 0.0
H405 H 0.53763 0.06556 0.89351 0.0
H406 H 0.54863 0.13576 1.00092 0.0
C407 C 0.60702 0.25527 0.90783 0.0
C408 C 0.61401 0.26502 0.86718 0.0
C409 C 0.60702 0.23695 0.83691 0.0
C410 C 0.5939 0.20011 0.84652 0.0
C411 C 0.58751 0.19141 0.88666 0.0
C412 C 0.59328 0.21817 0.91691 0.0
C413 C 0.58227 0.20133 0.95747 0.0
C414 C 0.61794 0.20368 0.98486 0.0
C415 C 0.54847 0.22032 0.97737 0.0
C416 C 0.56933 0.16102 0.94518 0.0
C417 C 0.5732 0.15603 0.90415 0.0
C418 C 0.56277 0.12168 0.88521 0.0
C419 C 0.54696 0.0919 0.90847 0.0
C420 C 0.54146 0.09634 0.95036 0.0
C421 C 0.55328 0.13133 0.96907 0.0
H422 H 0.88566 0.77502 0.33321 0.0
H423 H 0.88453 0.70479 0.43677 0.0
H424 H 0.91158 0.75834 0.47791 0.0
H425 H 0.97807 0.83208 0.35864 0.0
H426 H 0.96176 0.87471 0.34123 0.0
H427 H 0.94333 0.83061 0.31869 0.0
H428 H 0.87251 0.84569 0.33449 0.0
H429 H 0.89074 0.88966 0.3574 0.0
H430 H 0.85861 0.85695 0.38535 0.0
H431 H 0.9343 0.81883 0.50956 0.0
H432 H 0.95786 0.88287 0.52938 0.0
H433 H 0.94838 0.91702 0.40643 0.0
C434 C 0.89168 0.77092 0.36439 0.0
C435 C 0.88231 0.73556 0.38179 0.0
C436 C 0.89063 0.73153 0.42279 0.0
C437 C 0.90615 0.76184 0.4465 0.0
C438 C 0.91386 0.79637 0.42897 0.0
C439 C 0.90754 0.80122 0.3888 0.0
C440 C 0.91862 0.84185 0.37818 0.0
C441 C 0.95246 0.84499 0.34735 0.0
C442 C 0.88299 0.85958 0.36295 0.0
C443 C 0.93161 0.85884 0.41873 0.0
C444 C 0.92832 0.83184 0.44743 0.0
C445 C 0.93734 0.84019 0.4873 0.0
C446 C 0.95061 0.87695 0.49829 0.0
C447 C 0.95518 0.90545 0.46964 0.0
C448 C 0.94536 0.89607 0.42916 0.0
H449 H 0.32488 0.76036 0.59638 0.0
H450 H 0.28225 0.71529 0.70963 0.0
H451 H 0.31743 0.65943 0.69634 0.0
H452 H 0.32411 0.67087 0.53928 0.0
H453 H 0.36886 0.68567 0.51276 0.0
H454 H 0.33629 0.71948 0.52901 0.0
H455 H 0.3932 0.75683 0.56692 0.0
H456 H 0.42579 0.72293 0.55126 0.0
H457 H 0.41937 0.73395 0.60378 0.0
H458 H 0.36069 0.61057 0.67257 0.0
H459 H 0.40906 0.57243 0.64005 0.0
H460 H 0.42568 0.65131 0.54412 0.0
C461 C 0.32209 0.73815 0.61771 0.0
C462 C 0.30048 0.74159 0.65367 0.0
C463 C 0.29842 0.71273 0.68171 0.0
C464 C 0.31827 0.68103 0.67442 0.0
C465 C 0.34021 0.67885 0.63909 0.0
C466 C 0.34216 0.70659 0.61114 0.0
C467 C 0.37018 0.69891 0.57713 0.0
C468 C 0.34856 0.69339 0.53718 0.0
C469 C 0.40414 0.73 0.57466 0.0
C470 C 0.38411 0.66284 0.5906 0.0
C471 C 0.36619 0.65147 0.62616 0.0
C472 C 0.3748 0.61911 0.64463 0.0
C473 C 0.40235 0.59774 0.6261 0.0
C474 C 0.42115 0.60917 0.58986 0.0
C475 C 0.41186 0.64209 0.57199 0.0
H476 H 0.82713 0.88719 0.78632 0.0
H477 H 0.82253 0.7811 0.72057 0.0
H478 H 0.87658 0.80636 0.67693 0.0
H479 H 0.84382 0.94287 0.69598 0.0
H480 H 0.87419 0.97899 0.7221 0.0
H481 H 0.83566 0.95193 0.74866 0.0
H482 H 0.88646 0.93461 0.79963 0.0
H483 H 0.92535 0.96056 0.77241 0.0
H484 H 0.92825 0.91199 0.78199 0.0
H485 H 0.93515 0.84053 0.64529 0.0
H486 H 0.98218 0.88715 0.61346 0.0
H487 H 0.94272 0.97346 0.69298 0.0
C488 C 0.83657 0.86941 0.76216 0.0
C489 C 0.82115 0.83169 0.75779 0.0
C490 C 0.83474 0.80965 0.72558 0.0
C491 C 0.86545 0.8237 0.70058 0.0
C492 C 0.8814 0.86023 0.70728 0.0
C493 C 0.86642 0.8833 0.73609 0.0
C494 C 0.88717 0.92231 0.73501 0.0
C495 C 0.85851 0.9507 0.72481 0.0
C496 C 0.90804 0.93297 0.77462 0.0
C497 C 0.9163 0.91737 0.70122 0.0
C498 C 0.91317 0.88102 0.68654 0.0
C499 C 0.93757 0.86922 0.65608 0.0
C500 C 0.96449 0.8958 0.63855 0.0
C501 C 0.96583 0.93375 0.65086 0.0
C502 C 0.94225 0.94452 0.68328 0.0
H503 H 0.72329 0.12103 0.28491 0.0
H504 H 0.74882 0.23049 0.23488 0.0
H505 H 0.71541 0.20839 0.17266 0.0
H506 H 0.73057 0.0662 0.18684 0.0
H507 H 0.69065 0.03286 0.20149 0.0
H508 H 0.72276 0.0553 0.23889 0.0
H509 H 0.66278 0.07763 0.27715 0.0
H510 H 0.63058 0.05598 0.23962 0.0
H511 H 0.63024 0.10498 0.25162 0.0
H512 H 0.66948 0.17854 0.12209 0.0
H513 H 0.61955 0.14012 0.08256 0.0
H514 H 0.62533 0.0491 0.16366 0.0
C515 C 0.72325 0.13974 0.26011 0.0
C516 C 0.73871 0.17732 0.26437 0.0
C517 C 0.73717 0.20153 0.23193 0.0
C518 C 0.7183 0.18924 0.19654 0.0
C519 C 0.70156 0.15253 0.19393 0.0
C520 C 0.7045 0.12784 0.22447 0.0
C521 C 0.68094 0.0909 0.21543 0.0
C522 C 0.70784 0.05945 0.21034 0.0
C523 C 0.64927 0.08188 0.24788 0.0
C524 C 0.66305 0.09928 0.176 0.0
C525 C 0.6755 0.13493 0.16403 0.0
C526 C 0.66025 0.15024 0.13054 0.0
C527 C 0.63173 0.1284 0.10849 0.0
C528 C 0.61905 0.09171 0.12 0.0
C529 C 0.63513 0.07691 0.15393 0.0
H530 H 0.37453 0.68165 0.29466 0.0
H531 H 0.39793 0.60962 0.19294 0.0
H532 H 0.43111 0.56919 0.23715 0.0
H533 H 0.46636 0.67317 0.34723 0.0
H534 H 0.44367 0.67266 0.39632 0.0
H535 H 0.42333 0.6971 0.35659 0.0
H536 H 0.35645 0.65877 0.36753 0.0
H537 H 0.37667 0.63411 0.40713 0.0
H538 H 0.35363 0.60858 0.36533 0.0
H539 H 0.46031 0.53564 0.29197 0.0
H540 H 0.48407 0.51069 0.35361 0.0
H541 H 0.44164 0.60283 0.4225 0.0
C542 C 0.38719 0.65762 0.28179 0.0
C543 C 0.38413 0.64895 0.24017 0.0
C544 C 0.40033 0.61692 0.22454 0.0
C545 C 0.41915 0.59377 0.24949 0.0
C546 C 0.42147 0.60276 0.29033 0.0
C547 C 0.40603 0.63391 0.30654 0.0
C548 C 0.41185 0.63634 0.35177 0.0
C549 C 0.43785 0.67194 0.36368 0.0
C550 C 0.37229 0.63432 0.37426 0.0
C551 C 0.43268 0.60162 0.35839 0.0
C552 C 0.43799 0.58289 0.32237 0.0
C553 C 0.45636 0.55015 0.32032 0.0
C554 C 0.46981 0.53614 0.35579 0.0
C555 C 0.46492 0.55451 0.39344 0.0
C556 C 0.44589 0.58784 0.39448 0.0
H557 H 0.09451 0.37482 0.7522 0.0
H558 H 0.2167 0.39721 0.78389 0.0
H559 H 0.19778 0.43173 0.84448 0.0
H560 H 0.06429 0.46169 0.78443 0.0
H561 H 0.01767 0.44356 0.80512 0.0
H562 H 0.04009 0.41847 0.765 0.0
H563 H 0.0363 0.35967 0.80809 0.0
H564 H 0.01366 0.38457 0.84832 0.0
H565 H 0.05754 0.3627 0.85717 0.0
H566 H 0.16688 0.47003 0.89784 0.0
H567 H 0.12498 0.50446 0.94373 0.0
H568 H 0.02193 0.454 0.88293 0.0
C569 C 0.11724 0.38628 0.77229 0.0
C570 C 0.15733 0.38356 0.76249 0.0
C571 C 0.18592 0.39944 0.7898 0.0
C572 C 0.17545 0.41901 0.82464 0.0
C573 C 0.13601 0.4222 0.83272 0.0
C574 C 0.1072 0.40577 0.80778 0.0
C575 C 0.06696 0.41419 0.82348 0.0
C576 C 0.04603 0.43576 0.79267 0.0
C577 C 0.04215 0.37813 0.83495 0.0
C578 C 0.07783 0.4385 0.86047 0.0
C579 C 0.11793 0.44283 0.86503 0.0
C580 C 0.13541 0.4662 0.89504 0.0
C581 C 0.11144 0.48572 0.92097 0.0
C582 C 0.07032 0.48132 0.91745 0.0
C583 C 0.05329 0.45709 0.88697 0.0
H584 H 0.6836 0.8492 0.83083 0.0
H585 H 0.76865 0.8396 0.92325 0.0
H586 H 0.73139 0.87797 0.96972 0.0
H587 H 0.66343 0.9438 0.85485 0.0
H588 H 0.61185 0.935 0.84523 0.0
H589 H 0.64608 0.90808 0.81883 0.0
H590 H 0.60801 0.84712 0.8436 0.0
H591 H 0.57374 0.87387 0.87014 0.0
H592 H 0.59949 0.84114 0.89655 0.0
H593 H 0.68604 0.91802 1.00518 0.0
H594 H 0.63276 0.95447 0.02939 0.0
H595 H 0.57498 0.93471 0.9152 0.0
C596 C 0.69428 0.85547 0.86081 0.0
C597 C 0.72877 0.84186 0.87379 0.0
C598 C 0.74206 0.84997 0.91317 0.0
C599 C 0.72124 0.87172 0.93958 0.0
C600 C 0.6871 0.88463 0.92607 0.0
C601 C 0.67348 0.87662 0.88777 0.0
C602 C 0.6352 0.89281 0.88137 0.0
C603 C 0.63941 0.92164 0.8481 0.0
C604 C 0.60216 0.86188 0.8724 0.0
C605 C 0.62951 0.91117 0.92202 0.0
C606 C 0.66 0.90646 0.94718 0.0
C607 C 0.66185 0.92176 0.9859 0.0
C608 C 0.63158 0.94244 0.99931 0.0
C609 C 0.59979 0.94707 0.9742 0.0
C610 C 0.59874 0.93113 0.93516 0.0
H611 H 0.80515 0.11982 0.36968 0.0
H612 H 0.84062 0.2313 0.4172 0.0
H613 H 0.88626 0.20544 0.462 0.0
H614 H 0.81023 0.07065 0.45826 0.0
H615 H 0.83121 0.03126 0.4353 0.0
H616 H 0.80105 0.05822 0.4064 0.0
H617 H 0.85703 0.0699 0.35383 0.0
H618 H 0.88725 0.04267 0.38244 0.0
H619 H 0.9046 0.08976 0.36985 0.0
H620 H 0.9239 0.16732 0.50577 0.0
H621 H 0.95678 0.11967 0.54043 0.0
H622 H 0.90364 0.03408 0.45938 0.0
C623 C 0.82294 0.13906 0.38884 0.0
C624 C 0.81832 0.1777 0.3902 0.0
C625 C 0.84225 0.20149 0.4163 0.0
C626 C 0.86873 0.18713 0.44167 0.0
C627 C 0.87188 0.14898 0.44003 0.0
C628 C 0.8503 0.12533 0.41373 0.0
C629 C 0.85988 0.08544 0.41764 0.0
C630 C 0.82342 0.0599 0.43015 0.0
C631 C 0.87829 0.07111 0.37862 0.0
C632 C 0.88949 0.09034 0.45092 0.0
C633 C 0.89571 0.12722 0.46359 0.0
C634 C 0.91978 0.13844 0.49571 0.0
C635 C 0.93811 0.11124 0.51533 0.0
C636 C 0.93278 0.07349 0.50228 0.0
C637 C 0.90849 0.06294 0.46946 0.0
H638 H 0.273 0.66716 0.09459 0.0
H639 H 0.24361 0.64293 0.21868 0.0
H640 H 0.17823 0.61518 0.19837 0.0
H641 H 0.17606 0.69062 0.0663 0.0
H642 H 0.17845 0.66896 0.01715 0.0
H643 H 0.2227 0.68826 0.04127 0.0
H644 H 0.25128 0.62469 0.03299 0.0
H645 H 0.20723 0.60526 0.00872 0.0
H646 H 0.22409 0.58349 0.05222 0.0
H647 H 0.11698 0.58766 0.16487 0.0
H648 H 0.06458 0.5606 0.12006 0.0
H649 H 0.13139 0.60308 0.01706 0.0
C650 C 0.25265 0.65647 0.11759 0.0
C651 C 0.26379 0.65733 0.15843 0.0
C652 C 0.23626 0.64232 0.18727 0.0
C653 C 0.19882 0.62672 0.17603 0.0
C654 C 0.18892 0.62622 0.13569 0.0
C655 C 0.215 0.64062 0.10683 0.0
C656 C 0.19725 0.63525 0.06533 0.0
C657 C 0.19339 0.67303 0.0464 0.0
C658 C 0.2214 0.61071 0.03822 0.0
C659 C 0.15726 0.6153 0.07536 0.0
C660 C 0.15316 0.6106 0.11624 0.0
C661 C 0.11973 0.59158 0.13291 0.0
C662 C 0.09004 0.57641 0.10725 0.0
C663 C 0.09353 0.58045 0.06528 0.0
C664 C 0.12748 0.60052 0.04913 0.0
H665 H 0.28198 0.34183 0.63091 0.0
H666 H 0.22941 0.44522 0.652 0.0
H667 H 0.28446 0.47929 0.61562 0.0
H668 H 0.38237 0.38138 0.64358 0.0
H669 H 0.40171 0.35213 0.60499 0.0
H670 H 0.35804 0.33576 0.63243 0.0
H671 H 0.32081 0.32388 0.56587 0.0
H672 H 0.36436 0.34022 0.53823 0.0
H673 H 0.31965 0.36138 0.5315 0.0
H674 H 0.34434 0.50203 0.57433 0.0
H675 H 0.40577 0.51187 0.53467 0.0
H676 H 0.4219 0.39469 0.54311 0.0
C677 C 0.28202 0.37163 0.62776 0.0
C678 C 0.25121 0.3908 0.64448 0.0
C679 C 0.25271 0.4299 0.63994 0.0
C680 C 0.28383 0.4495 0.61909 0.0
C681 C 0.31367 0.42981 0.60306 0.0
C682 C 0.31321 0.39177 0.60741 0.0
C683 C 0.34932 0.37743 0.58783 0.0
C684 C 0.37434 0.36069 0.61908 0.0
C685 C 0.33784 0.34905 0.55384 0.0
C686 C 0.36998 0.41324 0.57156 0.0
C687 C 0.34879 0.44311 0.58049 0.0
C688 C 0.36136 0.47888 0.56764 0.0
C689 C 0.39647 0.48428 0.5453 0.0
C690 C 0.41916 0.45431 0.53643 0.0
C691 C 0.40549 0.41829 0.54974 0.0
H692 H 0.81063 0.74974 0.90829 0.0
H693 H 0.78465 0.69704 0.79238 0.0
H694 H 0.8222 0.64493 0.80953 0.0
H695 H 0.90467 0.73399 0.91007 0.0
H696 H 0.90787 0.72415 0.96244 0.0
H697 H 0.87173 0.75291 0.94608 0.0
H698 H 0.8162 0.70912 0.97813 0.0
H699 H 0.85227 0.68074 0.99593 0.0
H700 H 0.81244 0.65991 0.9659 0.0
H701 H 0.87252 0.60682 0.8327 0.0
H702 H 0.92564 0.57843 0.86522 0.0
H703 H 0.91854 0.65489 0.96715 0.0
C704 C 0.81117 0.72622 0.88748 0.0
C705 C 0.7946 0.72693 0.84925 0.0
C706 C 0.79702 0.69656 0.82194 0.0
C707 C 0.81828 0.667 0.8314 0.0
C708 C 0.83642 0.66824 0.8684 0.0
C709 C 0.83233 0.69654 0.89649 0.0
C710 C 0.85813 0.69323 0.93223 0.0
C711 C 0.88731 0.72814 0.938 0.0
C712 C 0.83327 0.68526 0.9703 0.0
C713 C 0.87874 0.65979 0.91887 0.0
C714 C 0.86557 0.64573 0.88209 0.0
C715 C 0.88241 0.61691 0.86196 0.0
C716 C 0.91286 0.60133 0.88043 0.0
C717 C 0.92594 0.61458 0.91861 0.0
C718 C 0.9088 0.64422 0.93801 0.0
H719 H 0.40575 0.78349 0.19702 0.0
H720 H 0.35692 0.73644 0.08565 0.0
H721 H 0.38428 0.79231 0.05033 0.0
H722 H 0.38946 0.87858 0.17968 0.0
H723 H 0.43478 0.89833 0.20132 0.0
H724 H 0.41178 0.85441 0.21837 0.0
H725 H 0.47521 0.82339 0.20219 0.0
H726 H 0.49848 0.86728 0.1853 0.0
H727 H 0.49649 0.82661 0.15252 0.0
H728 H 0.41591 0.85401 0.0265 0.0
H729 H 0.45173 0.91598 0.01604 0.0
H730 H 0.48157 0.9238 0.14169 0.0
C731 C 0.4011 0.78476 0.16515 0.0
C732 C 0.37851 0.7554 0.14444 0.0
C733 C 0.37319 0.75861 0.10265 0.0
C734 C 0.38888 0.79027 0.08213 0.0
C735 C 0.41028 0.81885 0.10346 0.0
C736 C 0.4167 0.81637 0.144 0.0
C737 C 0.44088 0.85126 0.15963 0.0
C738 C 0.41784 0.87186 0.19165 0.0
C739 C 0.48009 0.84155 0.17587 0.0
C740 C 0.44686 0.87365 0.12164 0.0
C741 C 0.42887 0.85439 0.08961 0.0
C742 C 0.43008 0.86932 0.05142 0.0
C743 C 0.45031 0.90469 0.04575 0.0
C744 C 0.46917 0.92498 0.07798 0.0
C745 C 0.46735 0.90907 0.11643 0.0
H746 H 0.14084 0.24744 0.69468 0.0
H747 H 0.13868 0.31853 0.59228 0.0
H748 H 0.10837 0.26562 0.55191 0.0
H749 H 0.16512 0.16606 0.63951 0.0
H750 H 0.13457 0.13307 0.6687 0.0
H751 H 0.154 0.17681 0.69125 0.0
H752 H 0.08408 0.19169 0.71145 0.0
H753 H 0.06445 0.14784 0.68923 0.0
H754 H 0.04718 0.19068 0.67366 0.0
H755 H 0.08178 0.20563 0.52111 0.0
H756 H 0.05742 0.14174 0.50151 0.0
H757 H 0.07506 0.10598 0.62248 0.0
C758 C 0.13331 0.25187 0.66397 0.0
C759 C 0.14224 0.28733 0.64665 0.0
C760 C 0.1324 0.29177 0.60617 0.0
C761 C 0.1151 0.26183 0.58296 0.0
C762 C 0.10755 0.22719 0.60041 0.0
C763 C 0.11599 0.22188 0.64001 0.0
C764 C 0.10552 0.1811 0.65048 0.0
C765 C 0.14198 0.16321 0.66324 0.0
C766 C 0.07339 0.17763 0.68315 0.0
C767 C 0.09032 0.1645 0.61051 0.0
C768 C 0.09184 0.19188 0.58227 0.0
C769 C 0.08025 0.18398 0.54302 0.0
C770 C 0.06648 0.14728 0.53215 0.0
C771 C 0.06415 0.11829 0.56025 0.0
C772 C 0.07636 0.12725 0.60015 0.0
H773 H 0.66374 0.24847 0.36174 0.0
H774 H 0.77873 0.30608 0.38232 0.0
H775 H 0.7486 0.36436 0.39847 0.0
H776 H 0.62119 0.323 0.3162 0.0
H777 H 0.57396 0.31344 0.34013 0.0
H778 H 0.60433 0.27618 0.33028 0.0
H779 H 0.60102 0.25963 0.40534 0.0
H780 H 0.57008 0.2964 0.41528 0.0
H781 H 0.61466 0.29541 0.44265 0.0
H782 H 0.70642 0.41639 0.40963 0.0
H783 H 0.65445 0.45736 0.42472 0.0
H784 H 0.56629 0.36552 0.39903 0.0
C785 C 0.68245 0.27338 0.3699 0.0
C786 C 0.72349 0.27306 0.3708 0.0
C787 C 0.7472 0.3059 0.38184 0.0
C788 C 0.73039 0.33909 0.39065 0.0
C789 C 0.68986 0.33871 0.38861 0.0
C790 C 0.66612 0.30659 0.37924 0.0
C791 C 0.62331 0.31342 0.38064 0.0
C792 C 0.60461 0.30608 0.33935 0.0
C793 C 0.60096 0.28982 0.41291 0.0
C794 C 0.62667 0.3545 0.39212 0.0
C795 C 0.66538 0.36857 0.39607 0.0
C796 C 0.67602 0.40568 0.40681 0.0
C797 C 0.64629 0.42874 0.41514 0.0
C798 C 0.60645 0.41451 0.413 0.0
C799 C 0.59653 0.37714 0.40049 0.0
loop_
_geom_bond_atom_site_label_1
_geom_bond_atom_site_label_2
_geom_bond_distance
_geom_bond_site_symmetry_2
_ccdc_geom_bond_type
H0 C3 0.931 . S
H1 C6 0.928 . S
H2 C8 0.930 . S
C3 H0 0.931 . S
C3 C4 1.413 . S
C3 C5 1.360 . S
C4 C3 1.413 . S
C4 C8 1.429 . S
C5 C3 1.360 . S
C5 C6 1.372 . S
C6 H1 0.928 . S
C6 C5 1.372 . S
C6 C7 1.404 . S
C7 C6 1.404 . S
C7 C8 1.391 . S
C8 H2 0.930 . S
C8 C4 1.429 . S
C8 C7 1.391 . S
H9 C12 0.931 . S
H10 C15 0.928 . S
H11 C17 0.930 . S
C12 H9 0.931 . S
C12 C13 1.413 . S
C12 C14 1.360 . S
C13 C12 1.413 . S
C13 C17 1.429 . S
C14 C12 1.360 . S
C14 C15 1.372 . S
C15 H10 0.928 . S
C15 C14 1.372 . S
C15 C16 1.404 . S
C16 C15 1.404 . S
C16 C17 1.391 . S
C17 H11 0.930 . S
C17 C13 1.429 . S
C17 C16 1.391 . S
H18 C21 0.931 . S
H19 C24 0.928 . S
H20 C26 0.930 . S
C21 H18 0.931 . S
C21 C22 1.413 . S
C21 C23 1.360 . S
C22 C21 1.413 . S
C22 C26 1.429 . S
C23 C21 1.360 . S
C23 C24 1.372 . S
C24 H19 0.928 . S
C24 C23 1.372 . S
C24 C25 1.404 . S
C25 C24 1.404 . S
C25 C26 1.391 . S
C26 H20 0.930 . S
C26 C22 1.429 . S
C26 C25 1.391 . S
H27 C30 0.931 . S
H28 C33 0.928 . S
H29 C35 0.930 . S
C30 H27 0.931 . S
C30 C31 1.413 . S
C30 C32 1.360 . S
C31 C30 1.413 . S
C31 C35 1.429 . S
C32 C30 1.360 . S
C32 C33 1.372 . S
C33 H28 0.928 . S
C33 C32 1.372 . S
C33 C34 1.404 . S
C34 C33 1.404 . S
C34 C35 1.391 . S
C35 H29 0.930 . S
C35 C31 1.429 . S
C35 C34 1.391 . S
H36 C39 0.931 . S
H37 C42 0.928 . S
H38 C44 0.930 . S
C39 H36 0.931 . S
C39 C40 1.413 . S
C39 C41 1.360 . S
C40 C39 1.413 . S
C40 C44 1.429 . S
C41 C39 1.360 . S
C41 C42 1.372 . S
C42 H37 0.928 . S
C42 C41 1.372 . S
C42 C43 1.404 . S
C43 C42 1.404 . S
C43 C44 1.391 . S
C44 H38 0.930 . S
C44 C40 1.429 . S
C44 C43 1.391 . S
H45 C48 0.931 . S
H46 C51 0.928 . S
H47 C53 0.930 . S
C48 H45 0.931 . S
C48 C49 1.413 . S
C48 C50 1.360 . S
C49 C48 1.413 . S
C49 C53 1.429 . S
C50 C48 1.360 . S
C50 C51 1.372 . S
C51 H46 0.928 . S
C51 C50 1.372 . S
C51 C52 1.404 . S
C52 C51 1.404 . S
C52 C53 1.391 . S
C53 H47 0.930 . S
C53 C49 1.429 . S
C53 C52 1.391 . S
H54 C57 0.931 . S
H55 C60 0.928 . S
H56 C62 0.930 . S
C57 H54 0.931 . S
C57 C58 1.413 . S
C57 C59 1.360 . S
C58 C57 1.413 . S
C58 C62 1.429 . S
C59 C57 1.360 . S
C59 C60 1.372 . S
C60 H55 0.928 . S
C60 C59 1.372 . S
C60 C61 1.404 . S
C61 C60 1.404 . S
C61 C62 1.391 . S
C62 H56 0.930 . S
C62 C58 1.429 . S
C62 C61 1.391 . S
H63 C66 0.931 . S
H64 C69 0.928 . S
H65 C71 0.930 . S
C66 H63 0.931 . S
C66 C67 1.413 . S
C66 C68 1.360 . S
C67 C66 1.413 . S
C67 C71 1.429 . S
C68 C66 1.360 . S
C68 C69 1.372 . S
C69 H64 0.928 . S
C69 C68 1.372 . S
C69 C70 1.404 . S
C70 C69 1.404 . S
C70 C71 1.391 . S
C71 H65 0.930 . S
C71 C67 1.429 . S
C71 C70 1.391 . S
Dy72 O76 2.398 . S
Dy72 O77 2.491 . S
Dy72 O78 2.403 1_545 S
Dy72 O79 2.664 1_545 S
Dy72 O83 2.326 . S
Dy72 O87 2.310 1_455 S
Dy72 O88 2.351 1_445 S
C73 O84 1.185 . S
C73 O85 1.355 . S
C74 O76 1.185 . S
C74 O77 1.355 . S
Dy75 O79 2.310 1_655 S
Dy75 O82 2.351 1_665 S
Dy75 O84 2.398 . S
Dy75 O85 2.491 . S
Dy75 O86 2.403 1_565 S
Dy75 O87 2.664 1_565 S
Dy75 O89 2.326 . S
O76 Dy72 2.398 . S
O76 C74 1.185 . S
O77 Dy72 2.491 . S
O77 C74 1.355 . S
O78 Dy72 2.403 1_565 S
O78 C80 1.254 . S
O79 Dy72 2.664 1_565 S
O79 Dy75 2.310 1_455 S
O79 C80 1.268 . S
C80 O78 1.254 . S
C80 O79 1.268 . S
C81 O86 1.254 . S
C81 O87 1.268 . S
O82 Dy75 2.351 1_445 S
O82 C90 1.249 . S
O83 Dy72 2.326 . S
O83 C90 1.267 . S
O84 C73 1.185 . S
O84 Dy75 2.398 . S
O85 C73 1.355 . S
O85 Dy75 2.491 . S
O86 Dy75 2.403 1_545 S
O86 C81 1.254 . S
O87 Dy72 2.310 1_655 S
O87 Dy75 2.664 1_545 S
O87 C81 1.268 . S
O88 Dy72 2.351 1_665 S
O88 C91 1.249 . S
O89 Dy75 2.326 . S
O89 C91 1.267 . S
C90 O82 1.249 . S
C90 O83 1.267 . S
C91 O88 1.249 . S
C91 O89 1.267 . S
Dy92 O96 2.398 . S
Dy92 O97 2.491 . S
Dy92 O98 2.403 1_545 S
Dy92 O99 2.664 1_545 S
Dy92 O103 2.326 . S
Dy92 O107 2.310 1_554 S
Dy92 O108 2.351 1_544 S
C93 O104 1.185 . S
C93 O105 1.355 . S
C94 O96 1.185 . S
C94 O97 1.355 . S
Dy95 O99 2.310 1_546 S
Dy95 O102 2.351 1_556 S
Dy95 O104 2.398 1_545 S
Dy95 O105 2.491 1_545 S
Dy95 O106 2.403 . S
Dy95 O107 2.664 . S
Dy95 O109 2.326 1_545 S
O96 Dy92 2.398 . S
O96 C94 1.185 . S
O97 Dy92 2.491 . S
O97 C94 1.355 . S
O98 Dy92 2.403 1_565 S
O98 C100 1.254 . S
O99 Dy92 2.664 1_565 S
O99 Dy95 2.310 1_564 S
O99 C100 1.268 . S
C100 O98 1.254 . S
C100 O99 1.268 . S
C101 O106 1.254 . S
C101 O107 1.268 . S
O102 Dy95 2.351 1_554 S
O102 C110 1.249 . S
O103 Dy92 2.326 . S
O103 C110 1.267 . S
O104 C93 1.185 . S
O104 Dy95 2.398 1_565 S
O105 C93 1.355 . S
O105 Dy95 2.491 1_565 S
O106 Dy95 2.403 . S
O106 C101 1.254 . S
O107 Dy92 2.310 1_556 S
O107 Dy95 2.664 . S
O107 C101 1.268 . S
O108 Dy92 2.351 1_566 S
O108 C111 1.249 . S
O109 Dy95 2.326 1_565 S
O109 C111 1.267 . S
C110 O102 1.249 . S
C110 O103 1.267 . S
C111 O108 1.249 . S
C111 O109 1.267 . S
Dy112 O116 2.398 . S
Dy112 O117 2.491 . S
Dy112 O118 2.403 . S
Dy112 O119 2.664 . S
Dy112 O123 2.326 . S
Dy112 O127 2.310 . S
Dy112 O128 2.351 . S
C113 O124 1.185 . S
C113 O125 1.355 . S
C114 O116 1.185 . S
C114 O117 1.355 . S
Dy115 O119 2.310 . S
Dy115 O122 2.351 . S
Dy115 O124 2.398 . S
Dy115 O125 2.491 . S
Dy115 O126 2.403 . S
Dy115 O127 2.664 . S
Dy115 O129 2.326 . S
O116 Dy112 2.398 . S
O116 C114 1.185 . S
O117 Dy112 2.491 . S
O117 C114 1.355 . S
O118 Dy112 2.403 . S
O118 C120 1.254 . S
O119 Dy112 2.664 . S
O119 Dy115 2.310 . S
O119 C120 1.268 . S
C120 O118 1.254 . S
C120 O119 1.268 . S
C121 O126 1.254 . S
C121 O127 1.268 . S
O122 Dy115 2.351 . S
O122 C130 1.249 . S
O123 Dy112 2.326 . S
O123 C130 1.267 . S
O124 C113 1.185 . S
O124 Dy115 2.398 . S
O125 C113 1.355 . S
O125 Dy115 2.491 . S
O126 Dy115 2.403 . S
O126 C121 1.254 . S
O127 Dy112 2.310 . S
O127 Dy115 2.664 . S
O127 C121 1.268 . S
O128 Dy112 2.351 . S
O128 C131 1.249 . S
O129 Dy115 2.326 . S
O129 C131 1.267 . S
C130 O122 1.249 . S
C130 O123 1.267 . S
C131 O128 1.249 . S
C131 O129 1.267 . S
Dy132 O136 2.398 . S
Dy132 O137 2.491 . S
Dy132 O138 2.403 1_455 S
Dy132 O139 2.664 1_455 S
Dy132 O143 2.326 . S
Dy132 O147 2.310 1_554 S
Dy132 O148 2.351 1_454 S
C133 O144 1.185 . S
C133 O145 1.355 . S
C134 O136 1.185 . S
C134 O137 1.355 . S
Dy135 O139 2.310 1_556 S
Dy135 O142 2.351 1_656 S
Dy135 O144 2.398 . S
Dy135 O145 2.491 . S
Dy135 O146 2.403 1_655 S
Dy135 O147 2.664 1_655 S
Dy135 O149 2.326 . S
O136 Dy132 2.398 . S
O136 C134 1.185 . S
O137 Dy132 2.491 . S
O137 C134 1.355 . S
O138 Dy132 2.403 1_655 S
O138 C140 1.254 . S
O139 Dy132 2.664 1_655 S
O139 Dy135 2.310 1_554 S
O139 C140 1.268 . S
C140 O138 1.254 . S
C140 O139 1.268 . S
C141 O146 1.254 . S
C141 O147 1.268 . S
O142 Dy135 2.351 1_454 S
O142 C150 1.249 . S
O143 Dy132 2.326 . S
O143 C150 1.267 . S
O144 C133 1.185 . S
O144 Dy135 2.398 . S
O145 C133 1.355 . S
O145 Dy135 2.491 . S
O146 Dy135 2.403 1_455 S
O146 C141 1.254 . S
O147 Dy132 2.310 1_556 S
O147 Dy135 2.664 1_455 S
O147 C141 1.268 . S
O148 Dy132 2.351 1_656 S
O148 C151 1.249 . S
O149 Dy135 2.326 . S
O149 C151 1.267 . S
C150 O142 1.249 . S
C150 O143 1.267 . S
C151 O148 1.249 . S
C151 O149 1.267 . S
H152 C164 0.930 . S
H153 C166 0.930 . S
H154 C167 0.930 . S
H155 C171 0.959 . S
H156 C171 0.959 . S
H157 C171 0.961 . S
H158 C172 0.960 . S
H159 C172 0.961 . S
H160 C172 0.959 . S
H161 C175 0.929 . S
H162 C176 0.931 . S
H163 C178 0.930 . S
C164 H152 0.930 . S
C164 C165 1.399 . S
C164 C169 1.399 . S
C165 C164 1.399 . S
C165 C166 1.376 . S
C166 H153 0.930 . S
C166 C165 1.376 . S
C166 C167 1.388 . S
C167 H154 0.930 . S
C167 C166 1.388 . S
C167 C168 1.390 . S
C168 C167 1.390 . S
C168 C169 1.394 . S
C168 C174 1.465 . S
C169 C164 1.399 . S
C169 C168 1.394 . S
C169 C170 1.516 . S
C170 C169 1.516 . S
C170 C171 1.502 . S
C170 C172 1.561 . S
C170 C173 1.526 . S
C171 H155 0.959 . S
C171 H156 0.959 . S
C171 H157 0.961 . S
C171 C170 1.502 . S
C172 H158 0.960 . S
C172 H159 0.961 . S
C172 H160 0.959 . S
C172 C170 1.561 . S
C173 C170 1.526 . S
C173 C174 1.396 . S
C173 C178 1.390 . S
C174 C168 1.465 . S
C174 C173 1.396 . S
C174 C175 1.399 . S
C175 H161 0.929 . S
C175 C174 1.399 . S
C175 C176 1.385 . S
C176 H162 0.931 . S
C176 C175 1.385 . S
C176 C177 1.389 . S
C177 C176 1.389 . S
C177 C178 1.387 . S
C178 H163 0.930 . S
C178 C173 1.390 . S
C178 C177 1.387 . S
H179 C191 0.930 . S
H180 C193 0.930 . S
H181 C194 0.930 . S
H182 C198 0.959 . S
H183 C198 0.959 . S
H184 C198 0.961 . S
H185 C199 0.960 . S
H186 C199 0.961 1_545 S
H187 C199 0.959 . S
H188 C202 0.929 . S
H189 C203 0.931 . S
H190 C205 0.930 . S
C191 H179 0.930 . S
C191 C192 1.399 . S
C191 C196 1.399 . S
C192 C191 1.399 . S
C192 C193 1.376 . S
C193 H180 0.930 . S
C193 C192 1.376 . S
C193 C194 1.388 . S
C194 H181 0.930 . S
C194 C193 1.388 . S
C194 C195 1.390 . S
C195 C194 1.390 . S
C195 C196 1.394 . S
C195 C201 1.465 . S
C196 C191 1.399 . S
C196 C195 1.394 . S
C196 C197 1.516 . S
C197 C196 1.516 . S
C197 C198 1.502 . S
C197 C199 1.561 . S
C197 C200 1.526 . S
C198 H182 0.959 . S
C198 H183 0.959 . S
C198 H184 0.961 . S
C198 C197 1.502 . S
C199 H185 0.960 . S
C199 H186 0.961 1_565 S
C199 H187 0.959 . S
C199 C197 1.561 . S
C200 C197 1.526 . S
C200 C201 1.396 . S
C200 C205 1.390 . S
C201 C195 1.465 . S
C201 C200 1.396 . S
C201 C202 1.399 . S
C202 H188 0.929 . S
C202 C201 1.399 . S
C202 C203 1.385 . S
C203 H189 0.931 . S
C203 C202 1.385 . S
C203 C204 1.389 . S
C204 C203 1.389 . S
C204 C205 1.387 . S
C205 H190 0.930 . S
C205 C200 1.390 . S
C205 C204 1.387 . S
H206 C218 0.930 . S
H207 C220 0.930 . S
H208 C221 0.930 . S
H209 C225 0.959 . S
H210 C225 0.959 . S
H211 C225 0.961 . S
H212 C226 0.960 . S
H213 C226 0.961 . S
H214 C226 0.959 . S
H215 C229 0.929 . S
H216 C230 0.931 . S
H217 C232 0.930 . S
C218 H206 0.930 . S
C218 C219 1.399 . S
C218 C223 1.399 . S
C219 C218 1.399 . S
C219 C220 1.376 . S
C220 H207 0.930 . S
C220 C219 1.376 . S
C220 C221 1.388 . S
C221 H208 0.930 . S
C221 C220 1.388 . S
C221 C222 1.390 . S
C222 C221 1.390 . S
C222 C223 1.394 . S
C222 C228 1.465 . S
C223 C218 1.399 . S
C223 C222 1.394 . S
C223 C224 1.516 . S
C224 C223 1.516 . S
C224 C225 1.502 . S
C224 C226 1.561 . S
C224 C227 1.526 . S
C225 H209 0.959 . S
C225 H210 0.959 . S
C225 H211 0.961 . S
C225 C224 1.502 . S
C226 H212 0.960 . S
C226 H213 0.961 . S
C226 H214 0.959 . S
C226 C224 1.561 . S
C227 C224 1.526 . S
C227 C228 1.396 . S
C227 C232 1.390 . S
C228 C222 1.465 . S
C228 C227 1.396 . S
C228 C229 1.399 . S
C229 H215 0.929 . S
C229 C228 1.399 . S
C229 C230 1.385 . S
C230 H216 0.931 . S
C230 C229 1.385 . S
C230 C231 1.389 . S
C231 C230 1.389 . S
C231 C232 1.387 . S
C232 H217 0.930 . S
C232 C227 1.390 . S
C232 C231 1.387 . S
H233 C245 0.930 . S
H234 C247 0.930 . S
H235 C248 0.930 . S
H236 C252 0.959 . S
H237 C252 0.959 . S
H238 C252 0.961 . S
H239 C253 0.960 . S
H240 C253 0.961 . S
H241 C253 0.959 . S
H242 C256 0.929 . S
H243 C257 0.931 . S
H244 C259 0.930 . S
C245 H233 0.930 . S
C245 C246 1.399 . S
C245 C250 1.399 . S
C246 C245 1.399 . S
C246 C247 1.376 . S
C247 H234 0.930 . S
C247 C246 1.376 . S
C247 C248 1.388 . S
C248 H235 0.930 . S
C248 C247 1.388 . S
C248 C249 1.390 . S
C249 C248 1.390 . S
C249 C250 1.394 . S
C249 C255 1.465 . S
C250 C245 1.399 . S
C250 C249 1.394 . S
C250 C251 1.516 . S
C251 C250 1.516 . S
C251 C252 1.502 . S
C251 C253 1.561 . S
C251 C254 1.526 . S
C252 H236 0.959 . S
C252 H237 0.959 . S
C252 H238 0.961 . S
C252 C251 1.502 . S
C253 H239 0.960 . S
C253 H240 0.961 . S
C253 H241 0.959 . S
C253 C251 1.561 . S
C254 C251 1.526 . S
C254 C255 1.396 . S
C254 C259 1.390 . S
C255 C249 1.465 . S
C255 C254 1.396 . S
C255 C256 1.399 . S
C256 H242 0.929 . S
C256 C255 1.399 . S
C256 C257 1.385 . S
C257 H243 0.931 . S
C257 C256 1.385 . S
C257 C258 1.389 . S
C258 C257 1.389 . S
C258 C259 1.387 . S
C259 H244 0.930 . S
C259 C254 1.390 . S
C259 C258 1.387 . S
H260 C272 0.930 . S
H261 C274 0.930 . S
H262 C275 0.930 . S
H263 C279 0.959 . S
H264 C279 0.959 . S
H265 C279 0.961 . S
H266 C280 0.960 . S
H267 C280 0.961 . S
H268 C280 0.959 . S
H269 C283 0.929 . S
H270 C284 0.931 . S
H271 C286 0.930 . S
C272 H260 0.930 . S
C272 C273 1.399 . S
C272 C277 1.399 . S
C273 C272 1.399 . S
C273 C274 1.376 . S
C274 H261 0.930 . S
C274 C273 1.376 . S
C274 C275 1.388 . S
C275 H262 0.930 . S
C275 C274 1.388 . S
C275 C276 1.390 . S
C276 C275 1.390 . S
C276 C277 1.394 . S
C276 C282 1.465 . S
C277 C272 1.399 . S
C277 C276 1.394 . S
C277 C278 1.516 . S
C278 C277 1.516 . S
C278 C279 1.502 . S
C278 C280 1.561 . S
C278 C281 1.526 . S
C279 H263 0.959 . S
C279 H264 0.959 . S
C279 H265 0.961 . S
C279 C278 1.502 . S
C280 H266 0.960 . S
C280 H267 0.961 . S
C280 H268 0.959 . S
C280 C278 1.561 . S
C281 C278 1.526 . S
C281 C282 1.396 . S
C281 C286 1.390 . S
C282 C276 1.465 . S
C282 C281 1.396 . S
C282 C283 1.399 . S
C283 H269 0.929 . S
C283 C282 1.399 . S
C283 C284 1.385 . S
C284 H270 0.931 . S
C284 C283 1.385 . S
C284 C285 1.389 . S
C285 C284 1.389 . S
C285 C286 1.387 . S
C286 H271 0.930 . S
C286 C281 1.390 . S
C286 C285 1.387 . S
H287 C299 0.930 . S
H288 C301 0.930 . S
H289 C302 0.930 . S
H290 C306 0.959 . S
H291 C306 0.959 . S
H292 C306 0.961 . S
H293 C307 0.960 . S
H294 C307 0.961 . S
H295 C307 0.959 . S
H296 C310 0.929 . S
H297 C311 0.931 . S
H298 C313 0.930 . S
C299 H287 0.930 . S
C299 C300 1.399 . S
C299 C304 1.399 . S
C300 C299 1.399 . S
C300 C301 1.376 . S
C301 H288 0.930 . S
C301 C300 1.376 . S
C301 C302 1.388 . S
C302 H289 0.930 . S
C302 C301 1.388 . S
C302 C303 1.390 . S
C303 C302 1.390 . S
C303 C304 1.394 . S
C303 C309 1.465 . S
C304 C299 1.399 . S
C304 C303 1.394 . S
C304 C305 1.516 . S
C305 C304 1.516 . S
C305 C306 1.502 . S
C305 C307 1.561 . S
C305 C308 1.526 . S
C306 H290 0.959 . S
C306 H291 0.959 . S
C306 H292 0.961 . S
C306 C305 1.502 . S
C307 H293 0.960 . S
C307 H294 0.961 . S
C307 H295 0.959 . S
C307 C305 1.561 . S
C308 C305 1.526 . S
C308 C309 1.396 . S
C308 C313 1.390 . S
C309 C303 1.465 . S
C309 C308 1.396 . S
C309 C310 1.399 . S
C310 H296 0.929 . S
C310 C309 1.399 . S
C310 C311 1.385 . S
C311 H297 0.931 . S
C311 C310 1.385 . S
C311 C312 1.389 . S
C312 C311 1.389 . S
C312 C313 1.387 . S
C313 H298 0.930 . S
C313 C308 1.390 . S
C313 C312 1.387 . S
H314 C326 0.930 . S
H315 C328 0.930 . S
H316 C329 0.930 . S
H317 C333 0.959 . S
H318 C333 0.959 . S
H319 C333 0.961 . S
H320 C334 0.960 . S
H321 C334 0.961 . S
H322 C334 0.959 . S
H323 C337 0.929 . S
H324 C338 0.931 . S
H325 C340 0.930 . S
C326 H314 0.930 . S
C326 C327 1.399 . S
C326 C331 1.399 . S
C327 C326 1.399 . S
C327 C328 1.376 . S
C328 H315 0.930 . S
C328 C327 1.376 . S
C328 C329 1.388 . S
C329 H316 0.930 . S
C329 C328 1.388 . S
C329 C330 1.390 . S
C330 C329 1.390 . S
C330 C331 1.394 . S
C330 C336 1.465 . S
C331 C326 1.399 . S
C331 C330 1.394 . S
C331 C332 1.516 . S
C332 C331 1.516 . S
C332 C333 1.502 . S
C332 C334 1.561 . S
C332 C335 1.526 . S
C333 H317 0.959 . S
C333 H318 0.959 . S
C333 H319 0.961 . S
C333 C332 1.502 . S
C334 H320 0.960 . S
C334 H321 0.961 . S
C334 H322 0.959 . S
C334 C332 1.561 . S
C335 C332 1.526 . S
C335 C336 1.396 . S
C335 C340 1.390 . S
C336 C330 1.465 . S
C336 C335 1.396 . S
C336 C337 1.399 . S
C337 H323 0.929 . S
C337 C336 1.399 . S
C337 C338 1.385 . S
C338 H324 0.931 . S
C338 C337 1.385 . S
C338 C339 1.389 . S
C339 C338 1.389 . S
C339 C340 1.387 . S
C340 H325 0.930 . S
C340 C335 1.390 . S
C340 C339 1.387 . S
H341 C353 0.930 . S
H342 C355 0.930 . S
H343 C356 0.930 . S
H344 C360 0.959 . S
H345 C360 0.959 . S
H346 C360 0.961 . S
H347 C361 0.960 . S
H348 C361 0.961 . S
H349 C361 0.959 . S
H350 C364 0.929 . S
H351 C365 0.931 . S
H352 C367 0.930 . S
C353 H341 0.930 . S
C353 C354 1.399 . S
C353 C358 1.399 . S
C354 C353 1.399 . S
C354 C355 1.376 . S
C355 H342 0.930 . S
C355 C354 1.376 . S
C355 C356 1.388 . S
C356 H343 0.930 . S
C356 C355 1.388 . S
C356 C357 1.390 . S
C357 C356 1.390 . S
C357 C358 1.394 . S
C357 C363 1.465 . S
C358 C353 1.399 . S
C358 C357 1.394 . S
C358 C359 1.516 . S
C359 C358 1.516 . S
C359 C360 1.502 . S
C359 C361 1.561 . S
C359 C362 1.526 . S
C360 H344 0.959 . S
C360 H345 0.959 . S
C360 H346 0.961 . S
C360 C359 1.502 . S
C361 H347 0.960 . S
C361 H348 0.961 . S
C361 H349 0.959 . S
C361 C359 1.561 . S
C362 C359 1.526 . S
C362 C363 1.396 . S
C362 C367 1.390 . S
C363 C357 1.465 . S
C363 C362 1.396 . S
C363 C364 1.399 . S
C364 H350 0.929 . S
C364 C363 1.399 . S
C364 C365 1.385 . S
C365 H351 0.931 . S
C365 C364 1.385 . S
C365 C366 1.389 . S
C366 C365 1.389 . S
C366 C367 1.387 . S
C367 H352 0.930 . S
C367 C362 1.390 . S
C367 C366 1.387 . S
H368 C380 0.930 . S
H369 C382 0.930 . S
H370 C383 0.930 . S
H371 C387 0.959 . S
H372 C387 0.959 . S
H373 C387 0.961 . S
H374 C388 0.960 . S
H375 C388 0.961 . S
H376 C388 0.959 . S
H377 C391 0.929 . S
H378 C392 0.931 . S
H379 C394 0.930 . S
C380 H368 0.930 . S
C380 C381 1.399 . S
C380 C385 1.399 . S
C381 C380 1.399 . S
C381 C382 1.376 . S
C382 H369 0.930 . S
C382 C381 1.376 . S
C382 C383 1.388 . S
C383 H370 0.930 . S
C383 C382 1.388 . S
C383 C384 1.390 . S
C384 C383 1.390 . S
C384 C385 1.394 . S
C384 C390 1.465 . S
C385 C380 1.399 . S
C385 C384 1.394 . S
C385 C386 1.516 . S
C386 C385 1.516 . S
C386 C387 1.502 . S
C386 C388 1.561 . S
C386 C389 1.526 . S
C387 H371 0.959 . S
C387 H372 0.959 . S
C387 H373 0.961 . S
C387 C386 1.502 . S
C388 H374 0.960 . S
C388 H375 0.961 . S
C388 H376 0.959 . S
C388 C386 1.561 . S
C389 C386 1.526 . S
C389 C390 1.396 . S
C389 C394 1.390 . S
C390 C384 1.465 . S
C390 C389 1.396 . S
C390 C391 1.399 . S
C391 H377 0.929 . S
C391 C390 1.399 . S
C391 C392 1.385 . S
C392 H378 0.931 . S
C392 C391 1.385 . S
C392 C393 1.389 . S
C393 C392 1.389 . S
C393 C394 1.387 . S
C394 H379 0.930 . S
C394 C389 1.390 . S
C394 C393 1.387 . S
H395 C407 0.930 . S
H396 C409 0.930 . S
H397 C410 0.930 . S
H398 C414 0.959 . S
H399 C414 0.959 . S
H400 C414 0.961 . S
H401 C415 0.960 . S
H402 C415 0.961 1_554 S
H403 C415 0.959 . S
H404 C418 0.929 . S
H405 C419 0.931 . S
H406 C421 0.930 . S
C407 H395 0.930 . S
C407 C408 1.399 . S
C407 C412 1.399 . S
C408 C407 1.399 . S
C408 C409 1.376 . S
C409 H396 0.930 . S
C409 C408 1.376 . S
C409 C410 1.388 . S
C410 H397 0.930 . S
C410 C409 1.388 . S
C410 C411 1.390 . S
C411 C410 1.390 . S
C411 C412 1.394 . S
C411 C417 1.465 . S
C412 C407 1.399 . S
C412 C411 1.394 . S
C412 C413 1.516 . S
C413 C412 1.516 . S
C413 C414 1.502 . S
C413 C415 1.561 . S
C413 C416 1.526 . S
C414 H398 0.959 . S
C414 H399 0.959 . S
C414 H400 0.961 . S
C414 C413 1.502 . S
C415 H401 0.960 . S
C415 H402 0.961 1_556 S
C415 H403 0.959 . S
C415 C413 1.561 . S
C416 C413 1.526 . S
C416 C417 1.396 . S
C416 C421 1.390 . S
C417 C411 1.465 . S
C417 C416 1.396 . S
C417 C418 1.399 . S
C418 H404 0.929 . S
C418 C417 1.399 . S
C418 C419 1.385 . S
C419 H405 0.931 . S
C419 C418 1.385 . S
C419 C420 1.389 . S
C420 C419 1.389 . S
C420 C421 1.387 . S
C421 H406 0.930 . S
C421 C416 1.390 . S
C421 C420 1.387 . S
H422 C434 0.930 . S
H423 C436 0.930 . S
H424 C437 0.930 . S
H425 C441 0.959 . S
H426 C441 0.959 . S
H427 C441 0.961 . S
H428 C442 0.960 . S
H429 C442 0.961 . S
H430 C442 0.959 . S
H431 C445 0.929 . S
H432 C446 0.931 . S
H433 C448 0.930 . S
C434 H422 0.930 . S
C434 C435 1.399 . S
C434 C439 1.399 . S
C435 C434 1.399 . S
C435 C436 1.376 . S
C436 H423 0.930 . S
C436 C435 1.376 . S
C436 C437 1.388 . S
C437 H424 0.930 . S
C437 C436 1.388 . S
C437 C438 1.390 . S
C438 C437 1.390 . S
C438 C439 1.394 . S
C438 C444 1.465 . S
C439 C434 1.399 . S
C439 C438 1.394 . S
C439 C440 1.516 . S
C440 C439 1.516 . S
C440 C441 1.502 . S
C440 C442 1.561 . S
C440 C443 1.526 . S
C441 H425 0.959 . S
C441 H426 0.959 . S
C441 H427 0.961 . S
C441 C440 1.502 . S
C442 H428 0.960 . S
C442 H429 0.961 . S
C442 H430 0.959 . S
C442 C440 1.561 . S
C443 C440 1.526 . S
C443 C444 1.396 . S
C443 C448 1.390 . S
C444 C438 1.465 . S
C444 C443 1.396 . S
C444 C445 1.399 . S
C445 H431 0.929 . S
C445 C444 1.399 . S
C445 C446 1.385 . S
C446 H432 0.931 . S
C446 C445 1.385 . S
C446 C447 1.389 . S
C447 C446 1.389 . S
C447 C448 1.387 . S
C448 H433 0.930 . S
C448 C443 1.390 . S
C448 C447 1.387 . S
H449 C461 0.930 . S
H450 C463 0.930 . S
H451 C464 0.930 . S
H452 C468 0.959 . S
H453 C468 0.959 . S
H454 C468 0.961 . S
H455 C469 0.960 . S
H456 C469 0.961 . S
H457 C469 0.959 . S
H458 C472 0.929 . S
H459 C473 0.931 . S
H460 C475 0.930 . S
C461 H449 0.930 . S
C461 C462 1.399 . S
C461 C466 1.399 . S
C462 C461 1.399 . S
C462 C463 1.376 . S
C463 H450 0.930 . S
C463 C462 1.376 . S
C463 C464 1.388 . S
C464 H451 0.930 . S
C464 C463 1.388 . S
C464 C465 1.390 . S
C465 C464 1.390 . S
C465 C466 1.394 . S
C465 C471 1.465 . S
C466 C461 1.399 . S
C466 C465 1.394 . S
C466 C467 1.516 . S
C467 C466 1.516 . S
C467 C468 1.502 . S
C467 C469 1.561 . S
C467 C470 1.526 . S
C468 H452 0.959 . S
C468 H453 0.959 . S
C468 H454 0.961 . S
C468 C467 1.502 . S
C469 H455 0.960 . S
C469 H456 0.961 . S
C469 H457 0.959 . S
C469 C467 1.561 . S
C470 C467 1.526 . S
C470 C471 1.396 . S
C470 C475 1.390 . S
C471 C465 1.465 . S
C471 C470 1.396 . S
C471 C472 1.399 . S
C472 H458 0.929 . S
C472 C471 1.399 . S
C472 C473 1.385 . S
C473 H459 0.931 . S
C473 C472 1.385 . S
C473 C474 1.389 . S
C474 C473 1.389 . S
C474 C475 1.387 . S
C475 H460 0.930 . S
C475 C470 1.390 . S
C475 C474 1.387 . S
H476 C488 0.930 . S
H477 C490 0.930 . S
H478 C491 0.930 . S
H479 C495 0.959 . S
H480 C495 0.959 . S
H481 C495 0.961 . S
H482 C496 0.960 . S
H483 C496 0.961 . S
H484 C496 0.959 . S
H485 C499 0.929 . S
H486 C500 0.931 . S
H487 C502 0.930 . S
C488 H476 0.930 . S
C488 C489 1.399 . S
C488 C493 1.399 . S
C489 C488 1.399 . S
C489 C490 1.376 . S
C490 H477 0.930 . S
C490 C489 1.376 . S
C490 C491 1.388 . S
C491 H478 0.930 . S
C491 C490 1.388 . S
C491 C492 1.390 . S
C492 C491 1.390 . S
C492 C493 1.394 . S
C492 C498 1.465 . S
C493 C488 1.399 . S
C493 C492 1.394 . S
C493 C494 1.516 . S
C494 C493 1.516 . S
C494 C495 1.502 . S
C494 C496 1.561 . S
C494 C497 1.526 . S
C495 H479 0.959 . S
C495 H480 0.959 . S
C495 H481 0.961 . S
C495 C494 1.502 . S
C496 H482 0.960 . S
C496 H483 0.961 . S
C496 H484 0.959 . S
C496 C494 1.561 . S
C497 C494 1.526 . S
C497 C498 1.396 . S
C497 C502 1.390 . S
C498 C492 1.465 . S
C498 C497 1.396 . S
C498 C499 1.399 . S
C499 H485 0.929 . S
C499 C498 1.399 . S
C499 C500 1.385 . S
C500 H486 0.931 . S
C500 C499 1.385 . S
C500 C501 1.389 . S
C501 C500 1.389 . S
C501 C502 1.387 . S
C502 H487 0.930 . S
C502 C497 1.390 . S
C502 C501 1.387 . S
H503 C515 0.930 . S
H504 C517 0.930 . S
H505 C518 0.930 . S
H506 C522 0.959 . S
H507 C522 0.959 . S
H508 C522 0.961 . S
H509 C523 0.960 . S
H510 C523 0.973 . S
H511 C523 0.959 . S
H512 C526 0.929 . S
H513 C527 0.931 . S
H514 C529 0.930 . S
C515 H503 0.930 . S
C515 C516 1.399 . S
C515 C520 1.399 . S
C516 C515 1.399 . S
C516 C517 1.376 . S
C517 H504 0.930 . S
C517 C516 1.376 . S
C517 C518 1.388 . S
C518 H505 0.930 . S
C518 C517 1.388 . S
C518 C519 1.390 . S
C519 C518 1.390 . S
C519 C520 1.394 . S
C519 C525 1.465 . S
C520 C515 1.399 . S
C520 C519 1.394 . S
C520 C521 1.516 . S
C521 C520 1.516 . S
C521 C522 1.502 . S
C521 C523 1.561 . S
C521 C524 1.526 . S
C522 H506 0.959 . S
C522 H507 0.959 . S
C522 H508 0.961 . S
C522 C521 1.502 . S
C523 H509 0.960 . S
C523 H510 0.973 . S
C523 H511 0.959 . S
C523 C521 1.561 . S
C524 C521 1.526 . S
C524 C525 1.396 . S
C524 C529 1.390 . S
C525 C519 1.465 . S
C525 C524 1.396 . S
C525 C526 1.399 . S
C526 H512 0.929 . S
C526 C525 1.399 . S
C526 C527 1.385 . S
C527 H513 0.931 . S
C527 C526 1.385 . S
C527 C528 1.389 . S
C528 C527 1.389 . S
C528 C529 1.387 . S
C529 H514 0.930 . S
C529 C524 1.390 . S
C529 C528 1.387 . S
H530 C542 0.930 . S
H531 C544 0.930 . S
H532 C545 0.930 . S
H533 C549 0.959 . S
H534 C549 0.959 . S
H535 C549 0.961 . S
H536 C550 0.960 . S
H537 C550 0.961 . S
H538 C550 0.959 . S
H539 C553 0.929 . S
H540 C554 0.931 . S
H541 C556 0.930 . S
C542 H530 0.930 . S
C542 C543 1.399 . S
C542 C547 1.399 . S
C543 C542 1.399 . S
C543 C544 1.376 . S
C544 H531 0.930 . S
C544 C543 1.376 . S
C544 C545 1.388 . S
C545 H532 0.930 . S
C545 C544 1.388 . S
C545 C546 1.390 . S
C546 C545 1.390 . S
C546 C547 1.394 . S
C546 C552 1.465 . S
C547 C542 1.399 . S
C547 C546 1.394 . S
C547 C548 1.516 . S
C548 C547 1.516 . S
C548 C549 1.502 . S
C548 C550 1.561 . S
C548 C551 1.526 . S
C549 H533 0.959 . S
C549 H534 0.959 . S
C549 H535 0.961 . S
C549 C548 1.502 . S
C550 H536 0.960 . S
C550 H537 0.961 . S
C550 H538 0.959 . S
C550 C548 1.561 . S
C551 C548 1.526 . S
C551 C552 1.396 . S
C551 C556 1.390 . S
C552 C546 1.465 . S
C552 C551 1.396 . S
C552 C553 1.399 . S
C553 H539 0.929 . S
C553 C552 1.399 . S
C553 C554 1.385 . S
C554 H540 0.931 . S
C554 C553 1.385 . S
C554 C555 1.389 . S
C555 C554 1.389 . S
C555 C556 1.387 . S
C556 H541 0.930 . S
C556 C551 1.390 . S
C556 C555 1.387 . S
H557 C569 0.930 . S
H558 C571 0.930 . S
H559 C572 0.930 . S
H560 C576 0.959 . S
H561 C576 0.959 1_655 S
H562 C576 0.961 . S
H563 C577 0.960 . S
H564 C577 0.954 1_655 S
H565 C577 0.959 . S
H566 C580 0.929 . S
H567 C581 0.931 . S
H568 C583 0.930 . S
C569 H557 0.930 . S
C569 C570 1.399 . S
C569 C574 1.399 . S
C570 C569 1.399 . S
C570 C571 1.376 . S
C571 H558 0.930 . S
C571 C570 1.376 . S
C571 C572 1.388 . S
C572 H559 0.930 . S
C572 C571 1.388 . S
C572 C573 1.390 . S
C573 C572 1.390 . S
C573 C574 1.394 . S
C573 C579 1.465 . S
C574 C569 1.399 . S
C574 C573 1.394 . S
C574 C575 1.516 . S
C575 C574 1.516 . S
C575 C576 1.502 . S
C575 C577 1.561 . S
C575 C578 1.526 . S
C576 H560 0.959 . S
C576 H561 0.959 1_455 S
C576 H562 0.961 . S
C576 C575 1.502 . S
C577 H563 0.960 . S
C577 H564 0.954 1_455 S
C577 H565 0.959 . S
C577 C575 1.561 . S
C578 C575 1.526 . S
C578 C579 1.396 . S
C578 C583 1.390 . S
C579 C573 1.465 . S
C579 C578 1.396 . S
C579 C580 1.399 . S
C580 H566 0.929 . S
C580 C579 1.399 . S
C580 C581 1.385 . S
C581 H567 0.931 . S
C581 C580 1.385 . S
C581 C582 1.389 . S
C582 C581 1.389 . S
C582 C583 1.387 . S
C583 H568 0.930 . S
C583 C578 1.390 . S
C583 C582 1.387 . S
H584 C596 0.930 . S
H585 C598 0.930 . S
H586 C599 0.930 . S
H587 C603 0.959 . S
H588 C603 0.959 . S
H589 C603 0.961 . S
H590 C604 0.960 . S
H591 C604 0.961 . S
H592 C604 0.959 . S
H593 C607 0.929 . S
H594 C608 0.931 . S
H595 C610 0.930 . S
C596 H584 0.930 . S
C596 C597 1.399 . S
C596 C601 1.399 . S
C597 C596 1.399 . S
C597 C598 1.376 . S
C598 H585 0.930 . S
C598 C597 1.376 . S
C598 C599 1.388 . S
C599 H586 0.930 . S
C599 C598 1.388 . S
C599 C600 1.390 . S
C600 C599 1.390 . S
C600 C601 1.394 . S
C600 C606 1.465 . S
C601 C596 1.399 . S
C601 C600 1.394 . S
C601 C602 1.516 . S
C602 C601 1.516 . S
C602 C603 1.502 . S
C602 C604 1.561 . S
C602 C605 1.526 . S
C603 H587 0.959 . S
C603 H588 0.959 . S
C603 H589 0.961 . S
C603 C602 1.502 . S
C604 H590 0.960 . S
C604 H591 0.961 . S
C604 H592 0.959 . S
C604 C602 1.561 . S
C605 C602 1.526 . S
C605 C606 1.396 . S
C605 C610 1.390 . S
C606 C600 1.465 . S
C606 C605 1.396 . S
C606 C607 1.399 . S
C607 H593 0.929 . S
C607 C606 1.399 . S
C607 C608 1.385 . S
C608 H594 0.931 . S
C608 C607 1.385 . S
C608 C609 1.389 . S
C609 C608 1.389 . S
C609 C610 1.387 . S
C610 H595 0.930 . S
C610 C605 1.390 . S
C610 C609 1.387 . S
H611 C623 0.930 . S
H612 C625 0.930 . S
H613 C626 0.930 . S
H614 C630 0.959 . S
H615 C630 0.959 1_565 S
H616 C630 0.961 . S
H617 C631 0.960 . S
H618 C631 0.961 . S
H619 C631 0.959 . S
H620 C634 0.929 . S
H621 C635 0.931 . S
H622 C637 0.930 . S
C623 H611 0.930 . S
C623 C624 1.399 . S
C623 C628 1.399 . S
C624 C623 1.399 . S
C624 C625 1.376 . S
C625 H612 0.930 . S
C625 C624 1.376 . S
C625 C626 1.388 . S
C626 H613 0.930 . S
C626 C625 1.388 . S
C626 C627 1.390 . S
C627 C626 1.390 . S
C627 C628 1.394 . S
C627 C633 1.465 . S
C628 C623 1.399 . S
C628 C627 1.394 . S
C628 C629 1.516 . S
C629 C628 1.516 . S
C629 C630 1.502 . S
C629 C631 1.561 . S
C629 C632 1.526 . S
C630 H614 0.959 . S
C630 H615 0.959 1_545 S
C630 H616 0.961 . S
C630 C629 1.502 . S
C631 H617 0.960 . S
C631 H618 0.961 . S
C631 H619 0.959 . S
C631 C629 1.561 . S
C632 C629 1.526 . S
C632 C633 1.396 . S
C632 C637 1.390 . S
C633 C627 1.465 . S
C633 C632 1.396 . S
C633 C634 1.399 . S
C634 H620 0.929 . S
C634 C633 1.399 . S
C634 C635 1.385 . S
C635 H621 0.931 . S
C635 C634 1.385 . S
C635 C636 1.389 . S
C636 C635 1.389 . S
C636 C637 1.387 . S
C637 H622 0.930 . S
C637 C632 1.390 . S
C637 C636 1.387 . S
H638 C650 0.930 . S
H639 C652 0.930 . S
H640 C653 0.930 . S
H641 C657 0.959 . S
H642 C657 0.959 . S
H643 C657 0.961 . S
H644 C658 0.960 . S
H645 C658 0.961 1_556 S
H646 C658 0.959 . S
H647 C661 0.929 . S
H648 C662 0.931 . S
H649 C664 0.930 . S
C650 H638 0.930 . S
C650 C651 1.399 . S
C650 C655 1.399 . S
C651 C650 1.399 . S
C651 C652 1.376 . S
C652 H639 0.930 . S
C652 C651 1.376 . S
C652 C653 1.388 . S
C653 H640 0.930 . S
C653 C652 1.388 . S
C653 C654 1.390 . S
C654 C653 1.390 . S
C654 C655 1.394 . S
C654 C660 1.465 . S
C655 C650 1.399 . S
C655 C654 1.394 . S
C655 C656 1.516 . S
C656 C655 1.516 . S
C656 C657 1.502 . S
C656 C658 1.561 . S
C656 C659 1.526 . S
C657 H641 0.959 . S
C657 H642 0.959 . S
C657 H643 0.961 . S
C657 C656 1.502 . S
C658 H644 0.960 . S
C658 H645 0.961 1_554 S
C658 H646 0.959 . S
C658 C656 1.561 . S
C659 C656 1.526 . S
C659 C660 1.396 . S
C659 C664 1.390 . S
C660 C654 1.465 . S
C660 C659 1.396 . S
C660 C661 1.399 . S
C661 H647 0.929 . S
C661 C660 1.399 . S
C661 C662 1.385 . S
C662 H648 0.931 . S
C662 C661 1.385 . S
C662 C663 1.389 . S
C663 C662 1.389 . S
C663 C664 1.387 . S
C664 H649 0.930 . S
C664 C659 1.390 . S
C664 C663 1.387 . S
H665 C677 0.930 . S
H666 C679 0.930 . S
H667 C680 0.930 . S
H668 C684 0.959 . S
H669 C684 0.959 . S
H670 C684 0.961 . S
H671 C685 0.960 . S
H672 C685 0.961 . S
H673 C685 0.959 . S
H674 C688 0.929 . S
H675 C689 0.931 . S
H676 C691 0.930 . S
C677 H665 0.930 . S
C677 C678 1.399 . S
C677 C682 1.399 . S
C678 C677 1.399 . S
C678 C679 1.376 . S
C679 H666 0.930 . S
C679 C678 1.376 . S
C679 C680 1.388 . S
C680 H667 0.930 . S
C680 C679 1.388 . S
C680 C681 1.390 . S
C681 C680 1.390 . S
C681 C682 1.394 . S
C681 C687 1.465 . S
C682 C677 1.399 . S
C682 C681 1.394 . S
C682 C683 1.516 . S
C683 C682 1.516 . S
C683 C684 1.502 . S
C683 C685 1.561 . S
C683 C686 1.526 . S
C684 H668 0.959 . S
C684 H669 0.959 . S
C684 H670 0.961 . S
C684 C683 1.502 . S
C685 H671 0.960 . S
C685 H672 0.961 . S
C685 H673 0.959 . S
C685 C683 1.561 . S
C686 C683 1.526 . S
C686 C687 1.396 . S
C686 C691 1.390 . S
C687 C681 1.465 . S
C687 C686 1.396 . S
C687 C688 1.399 . S
C688 H674 0.929 . S
C688 C687 1.399 . S
C688 C689 1.385 . S
C689 H675 0.931 . S
C689 C688 1.385 . S
C689 C690 1.389 . S
C690 C689 1.389 . S
C690 C691 1.387 . S
C691 H676 0.930 . S
C691 C686 1.390 . S
C691 C690 1.387 . S
H692 C704 0.930 . S
H693 C706 0.930 . S
H694 C707 0.930 . S
H695 C711 0.959 . S
H696 C711 0.959 . S
H697 C711 0.961 . S
H698 C712 0.960 . S
H699 C712 0.961 . S
H700 C712 0.959 . S
H701 C715 0.929 . S
H702 C716 0.931 . S
H703 C718 0.930 . S
C704 H692 0.930 . S
C704 C705 1.399 . S
C704 C709 1.399 . S
C705 C704 1.399 . S
C705 C706 1.376 . S
C706 H693 0.930 . S
C706 C705 1.376 . S
C706 C707 1.388 . S
C707 H694 0.930 . S
C707 C706 1.388 . S
C707 C708 1.390 . S
C708 C707 1.390 . S
C708 C709 1.394 . S
C708 C714 1.465 . S
C709 C704 1.399 . S
C709 C708 1.394 . S
C709 C710 1.516 . S
C710 C709 1.516 . S
C710 C711 1.502 . S
C710 C712 1.561 . S
C710 C713 1.526 . S
C711 H695 0.959 . S
C711 H696 0.959 . S
C711 H697 0.961 . S
C711 C710 1.502 . S
C712 H698 0.960 . S
C712 H699 0.961 . S
C712 H700 0.959 . S
C712 C710 1.561 . S
C713 C710 1.526 . S
C713 C714 1.396 . S
C713 C718 1.390 . S
C714 C708 1.465 . S
C714 C713 1.396 . S
C714 C715 1.399 . S
C715 H701 0.929 . S
C715 C714 1.399 . S
C715 C716 1.385 . S
C716 H702 0.931 . S
C716 C715 1.385 . S
C716 C717 1.389 . S
C717 C716 1.389 . S
C717 C718 1.387 . S
C718 H703 0.930 . S
C718 C713 1.390 . S
C718 C717 1.387 . S
H719 C731 0.930 . S
H720 C733 0.930 . S
H721 C734 0.930 . S
H722 C738 0.959 . S
H723 C738 0.959 . S
H724 C738 0.961 . S
H725 C739 0.960 . S
H726 C739 0.961 . S
H727 C739 0.959 . S
H728 C742 0.929 . S
H729 C743 0.931 1_556 S
H730 C745 0.930 . S
C731 H719 0.930 . S
C731 C732 1.399 . S
C731 C736 1.399 . S
C732 C731 1.399 . S
C732 C733 1.376 . S
C733 H720 0.930 . S
C733 C732 1.376 . S
C733 C734 1.388 . S
C734 H721 0.930 . S
C734 C733 1.388 . S
C734 C735 1.390 . S
C735 C734 1.390 . S
C735 C736 1.394 . S
C735 C741 1.465 . S
C736 C731 1.399 . S
C736 C735 1.394 . S
C736 C737 1.516 . S
C737 C736 1.516 . S
C737 C738 1.502 . S
C737 C739 1.561 . S
C737 C740 1.526 . S
C738 H722 0.959 . S
C738 H723 0.959 . S
C738 H724 0.961 . S
C738 C737 1.502 . S
C739 H725 0.960 . S
C739 H726 0.961 . S
C739 H727 0.959 . S
C739 C737 1.561 . S
C740 C737 1.526 . S
C740 C741 1.396 . S
C740 C745 1.390 . S
C741 C735 1.465 . S
C741 C740 1.396 . S
C741 C742 1.399 . S
C742 H728 0.929 . S
C742 C741 1.399 . S
C742 C743 1.385 . S
C743 H729 0.931 1_554 S
C743 C742 1.385 . S
C743 C744 1.389 . S
C744 C743 1.389 . S
C744 C745 1.387 . S
C745 H730 0.930 . S
C745 C740 1.390 . S
C745 C744 1.387 . S
H746 C758 0.930 . S
H747 C760 0.930 . S
H748 C761 0.930 . S
H749 C765 0.959 . S
H750 C765 0.959 . S
H751 C765 0.961 . S
H752 C766 0.960 . S
H753 C766 0.961 . S
H754 C766 0.959 . S
H755 C769 0.929 . S
H756 C770 0.931 . S
H757 C772 0.930 . S
C758 H746 0.930 . S
C758 C759 1.399 . S
C758 C763 1.399 . S
C759 C758 1.399 . S
C759 C760 1.376 . S
C760 H747 0.930 . S
C760 C759 1.376 . S
C760 C761 1.388 . S
C761 H748 0.930 . S
C761 C760 1.388 . S
C761 C762 1.390 . S
C762 C761 1.390 . S
C762 C763 1.394 . S
C762 C768 1.465 . S
C763 C758 1.399 . S
C763 C762 1.394 . S
C763 C764 1.516 . S
C764 C763 1.516 . S
C764 C765 1.502 . S
C764 C766 1.561 . S
C764 C767 1.526 . S
C765 H749 0.959 . S
C765 H750 0.959 . S
C765 H751 0.961 . S
C765 C764 1.502 . S
C766 H752 0.960 . S
C766 H753 0.961 . S
C766 H754 0.959 . S
C766 C764 1.561 . S
C767 C764 1.526 . S
C767 C768 1.396 . S
C767 C772 1.390 . S
C768 C762 1.465 . S
C768 C767 1.396 . S
C768 C769 1.399 . S
C769 H755 0.929 . S
C769 C768 1.399 . S
C769 C770 1.385 . S
C770 H756 0.931 . S
C770 C769 1.385 . S
C770 C771 1.389 . S
C771 C770 1.389 . S
C771 C772 1.387 . S
C772 H757 0.930 . S
C772 C767 1.390 . S
C772 C771 1.387 . S
H773 C785 0.930 . S
H774 C787 0.930 . S
H775 C788 0.930 . S
H776 C792 0.959 . S
H777 C792 0.959 . S
H778 C792 0.961 . S
H779 C793 0.960 . S
H780 C793 0.961 . S
H781 C793 0.959 . S
H782 C796 0.929 . S
H783 C797 0.931 . S
H784 C799 0.930 . S
C785 H773 0.930 . S
C785 C786 1.399 . S
C785 C790 1.399 . S
C786 C785 1.399 . S
C786 C787 1.376 . S
C787 H774 0.930 . S
C787 C786 1.376 . S
C787 C788 1.388 . S
C788 H775 0.930 . S
C788 C787 1.388 . S
C788 C789 1.390 . S
C789 C788 1.390 . S
C789 C790 1.394 . S
C789 C795 1.465 . S
C790 C785 1.399 . S
C790 C789 1.394 . S
C790 C791 1.516 . S
C791 C790 1.516 . S
C791 C792 1.502 . S
C791 C793 1.561 . S
C791 C794 1.526 . S
C792 H776 0.959 . S
C792 H777 0.959 . S
C792 H778 0.961 . S
C792 C791 1.502 . S
C793 H779 0.960 . S
C793 H780 0.961 . S
C793 H781 0.959 . S
C793 C791 1.561 . S
C794 C791 1.526 . S
C794 C795 1.396 . S
C794 C799 1.390 . S
C795 C789 1.465 . S
C795 C794 1.396 . S
C795 C796 1.399 . S
C796 H782 0.929 . S
C796 C795 1.399 . S
C796 C797 1.385 . S
C797 H783 0.931 . S
C797 C796 1.385 . S
C797 C798 1.389 . S
C798 C797 1.389 . S
C798 C799 1.387 . S
C799 H784 0.930 . S
C799 C794 1.390 . S
C799 C798 1.387 . S
C165 C5 1.364 . S
C177 C74 1.382 . S
C192 C14 1.304 . S
C204 C93 1.294 . S
C231 C130 1.754 . S
C219 C25 1.773 . S
C246 C34 1.708 . S
C258 C140 1.700 . S
C285 C110 1.765 . S
C273 C7 1.737 . S
C312 C80 1.320 . S
C300 C13 1.430 . S
C339 C151 1.495 . S
C327 C23 1.548 . S
C366 C121 1.427 . S
C354 C31 1.466 . S
C381 C4 1.587 . S
C393 C134 1.588 . S
C420 C101 1.667 . S
C408 C22 1.751 . S
C435 C32 1.734 . S
C447 C91 1.731 . S
C462 C16 1.188 . S
C474 C113 1.166 . S
C501 C73 1.389 . S
C489 C41 1.378 . S
C516 C50 1.309 . S
C528 C94 1.322 . S
C543 C61 1.764 . S
C555 C131 1.752 . S
C570 C67 1.717 . S
C582 C141 1.695 . S
C597 C40 1.759 . S
C609 C111 1.778 . S
C636 C81 1.360 . S
C624 C52 1.394 . S
C663 C150 1.527 . S
C651 C59 1.551 . S
C690 C120 1.435 . S
C678 C70 1.461 . S
C705 C43 1.583 . S
C717 C133 1.578 . S
C744 C100 1.706 . S
C732 C58 1.760 . S
C771 C90 1.727 . S
C759 C68 1.728 . S
C786 C49 1.206 . S
C798 C114 1.178 . S
