# Generated by pormake.
# Topology eea, (3,6)-cn, num edge types: 1
# Building blocks:
#     Node 0, Type 0, BuildingBlock: PAMTOO_clean_linker_0, # of connection points: 3
#     Node 1, Type 0, BuildingBlock: PAMTOO_clean_linker_0, # of connection points: 3
#     Node 2, Type 0, BuildingBlock: PAMTOO_clean_linker_0, # of connection points: 3
#     Node 3, Type 0, BuildingBlock: PAMTOO_clean_linker_0, # of connection points: 3
#     Node 4, Type 0, BuildingBlock: PAMTOO_clean_linker_0, # of connection points: 3
#     Node 5, Type 0, BuildingBlock: PAMTOO_clean_linker_0, # of connection points: 3
#     Node 6, Type 0, BuildingBlock: PAMTOO_clean_linker_0, # of connection points: 3
#     Node 7, Type 0, BuildingBlock: PAMTOO_clean_linker_0, # of connection points: 3
#     Node 8, Type 0, BuildingBlock: PAMTOO_clean_linker_0, # of connection points: 3
#     Node 9, Type 0, BuildingBlock: PAMTOO_clean_linker_0, # of connection points: 3
#     Node 10, Type 0, BuildingBlock: PAMTOO_clean_linker_0, # of connection points: 3
#     Node 11, Type 0, BuildingBlock: PAMTOO_clean_linker_0, # of connection points: 3
#     Node 12, Type 0, BuildingBlock: PAMTOO_clean_linker_0, # of connection points: 3
#     Node 13, Type 0, BuildingBlock: PAMTOO_clean_linker_0, # of connection points: 3
#     Node 14, Type 0, BuildingBlock: PAMTOO_clean_linker_0, # of connection points: 3
#     Node 15, Type 0, BuildingBlock: PAMTOO_clean_linker_0, # of connection points: 3
#     Node 16, Type 0, BuildingBlock: PAMTOO_clean_linker_0, # of connection points: 3
#     Node 17, Type 0, BuildingBlock: PAMTOO_clean_linker_0, # of connection points: 3
#     Node 18, Type 1, BuildingBlock: NUHQIS_clean_sbu_0, # of connection points: 6
#     Node 19, Type 1, BuildingBlock: NUHQIS_clean_sbu_0, # of connection points: 6
#     Node 20, Type 1, BuildingBlock: NUHQIS_clean_sbu_0, # of connection points: 6
#     Node 21, Type 1, BuildingBlock: NUHQIS_clean_sbu_0, # of connection points: 6
#     Node 22, Type 1, BuildingBlock: NUHQIS_clean_sbu_0, # of connection points: 6
#     Node 23, Type 1, BuildingBlock: NUHQIS_clean_sbu_0, # of connection points: 6
#     Node 24, Type 1, BuildingBlock: NUHQIS_clean_sbu_0, # of connection points: 6
#     Node 25, Type 1, BuildingBlock: NUHQIS_clean_sbu_0, # of connection points: 6
#     Node 26, Type 1, BuildingBlock: NUHQIS_clean_sbu_0, # of connection points: 6
#     Edge 27, Type (0, 1), BuildingBlock: CIFDUS_clean_linker_0, # of connection points: 2
#     Edge 28, Type (0, 1), BuildingBlock: CIFDUS_clean_linker_0, # of connection points: 2
#     Edge 29, Type (0, 1), BuildingBlock: CIFDUS_clean_linker_0, # of connection points: 2
#     Edge 30, Type (0, 1), BuildingBlock: CIFDUS_clean_linker_0, # of connection points: 2
#     Edge 31, Type (0, 1), BuildingBlock: CIFDUS_clean_linker_0, # of connection points: 2
#     Edge 32, Type (0, 1), BuildingBlock: CIFDUS_clean_linker_0, # of connection points: 2
#     Edge 33, Type (0, 1), BuildingBlock: CIFDUS_clean_linker_0, # of connection points: 2
#     Edge 34, Type (0, 1), BuildingBlock: CIFDUS_clean_linker_0, # of connection points: 2
#     Edge 35, Type (0, 1), BuildingBlock: CIFDUS_clean_linker_0, # of connection points: 2
#     Edge 36, Type (0, 1), BuildingBlock: CIFDUS_clean_linker_0, # of connection points: 2
#     Edge 37, Type (0, 1), BuildingBlock: CIFDUS_clean_linker_0, # of connection points: 2
#     Edge 38, Type (0, 1), BuildingBlock: CIFDUS_clean_linker_0, # of connection points: 2
#     Edge 39, Type (0, 1), BuildingBlock: CIFDUS_clean_linker_0, # of connection points: 2
#     Edge 40, Type (0, 1), BuildingBlock: CIFDUS_clean_linker_0, # of connection points: 2
#     Edge 41, Type (0, 1), BuildingBlock: CIFDUS_clean_linker_0, # of connection points: 2
#     Edge 42, Type (0, 1), BuildingBlock: CIFDUS_clean_linker_0, # of connection points: 2
#     Edge 43, Type (0, 1), BuildingBlock: CIFDUS_clean_linker_0, # of connection points: 2
#     Edge 44, Type (0, 1), BuildingBlock: CIFDUS_clean_linker_0, # of connection points: 2
#     Edge 45, Type (0, 1), BuildingBlock: CIFDUS_clean_linker_0, # of connection points: 2
#     Edge 46, Type (0, 1), BuildingBlock: CIFDUS_clean_linker_0, # of connection points: 2
#     Edge 47, Type (0, 1), BuildingBlock: CIFDUS_clean_linker_0, # of connection points: 2
#     Edge 48, Type (0, 1), BuildingBlock: CIFDUS_clean_linker_0, # of connection points: 2
#     Edge 49, Type (0, 1), BuildingBlock: CIFDUS_clean_linker_0, # of connection points: 2
#     Edge 50, Type (0, 1), BuildingBlock: CIFDUS_clean_linker_0, # of connection points: 2
#     Edge 51, Type (0, 1), BuildingBlock: CIFDUS_clean_linker_0, # of connection points: 2
#     Edge 52, Type (0, 1), BuildingBlock: CIFDUS_clean_linker_0, # of connection points: 2
#     Edge 53, Type (0, 1), BuildingBlock: CIFDUS_clean_linker_0, # of connection points: 2
#     Edge 54, Type (0, 1), BuildingBlock: CIFDUS_clean_linker_0, # of connection points: 2
#     Edge 55, Type (0, 1), BuildingBlock: CIFDUS_clean_linker_0, # of connection points: 2
#     Edge 56, Type (0, 1), BuildingBlock: CIFDUS_clean_linker_0, # of connection points: 2
#     Edge 57, Type (0, 1), BuildingBlock: CIFDUS_clean_linker_0, # of connection points: 2
#     Edge 58, Type (0, 1), BuildingBlock: CIFDUS_clean_linker_0, # of connection points: 2
#     Edge 59, Type (0, 1), BuildingBlock: CIFDUS_clean_linker_0, # of connection points: 2
#     Edge 60, Type (0, 1), BuildingBlock: CIFDUS_clean_linker_0, # of connection points: 2
#     Edge 61, Type (0, 1), BuildingBlock: CIFDUS_clean_linker_0, # of connection points: 2
#     Edge 62, Type (0, 1), BuildingBlock: CIFDUS_clean_linker_0, # of connection points: 2
#     Edge 63, Type (0, 1), BuildingBlock: CIFDUS_clean_linker_0, # of connection points: 2
#     Edge 64, Type (0, 1), BuildingBlock: CIFDUS_clean_linker_0, # of connection points: 2
#     Edge 65, Type (0, 1), BuildingBlock: CIFDUS_clean_linker_0, # of connection points: 2
#     Edge 66, Type (0, 1), BuildingBlock: CIFDUS_clean_linker_0, # of connection points: 2
#     Edge 67, Type (0, 1), BuildingBlock: CIFDUS_clean_linker_0, # of connection points: 2
#     Edge 68, Type (0, 1), BuildingBlock: CIFDUS_clean_linker_0, # of connection points: 2
#     Edge 69, Type (0, 1), BuildingBlock: CIFDUS_clean_linker_0, # of connection points: 2
#     Edge 70, Type (0, 1), BuildingBlock: CIFDUS_clean_linker_0, # of connection points: 2
#     Edge 71, Type (0, 1), BuildingBlock: CIFDUS_clean_linker_0, # of connection points: 2
#     Edge 72, Type (0, 1), BuildingBlock: CIFDUS_clean_linker_0, # of connection points: 2
#     Edge 73, Type (0, 1), BuildingBlock: CIFDUS_clean_linker_0, # of connection points: 2
#     Edge 74, Type (0, 1), BuildingBlock: CIFDUS_clean_linker_0, # of connection points: 2
#     Edge 75, Type (0, 1), BuildingBlock: CIFDUS_clean_linker_0, # of connection points: 2
#     Edge 76, Type (0, 1), BuildingBlock: CIFDUS_clean_linker_0, # of connection points: 2
#     Edge 77, Type (0, 1), BuildingBlock: CIFDUS_clean_linker_0, # of connection points: 2
#     Edge 78, Type (0, 1), BuildingBlock: CIFDUS_clean_linker_0, # of connection points: 2
#     Edge 79, Type (0, 1), BuildingBlock: CIFDUS_clean_linker_0, # of connection points: 2
#     Edge 80, Type (0, 1), BuildingBlock: CIFDUS_clean_linker_0, # of connection points: 2
# Relax obj value: 0.058
# Max RMSD: 0.215
# Mean RMSD: 0.153
data_MOF--net-eea--node1-NUHQIS_clean_sbu_0--node2-PAMTOO_clean_linker_0--edge1-CIFDUS_clean_linker_0
_symmetry_space_group_name_H-M    P1
_symmetry_Int_Tables_number       1
_symmetry_cell_setting            triclinic
loop_
_symmetry_equiv_pos_as_xyz
'x, y, z'
_cell_length_a     47.414972
_cell_length_b     48.239441
_cell_length_c     61.65137
_cell_angle_alpha  93.104383
_cell_angle_beta   93.733925
_cell_angle_gamma 119.95743
loop_
_atom_site_label
_atom_site_type_symbol
_atom_site_fract_x
_atom_site_fract_y
_atom_site_fract_z
_atom_type_partial_charge
H0 H 0.25913 0.0821 0.44952 0.0
H1 H 0.25752 0.1697 0.44301 0.0
H2 H 0.2188 0.09608 0.38925 0.0
H3 H 0.25132 0.16647 0.37507 0.0
C4 C 0.25127 0.17715 0.3915 0.0
O5 O 0.22945 0.15311 0.40298 0.0
H6 H 0.27657 0.18891 0.39998 0.0
C7 C 0.25334 0.09698 0.43976 0.0
C8 C 0.23808 0.08524 0.41833 0.0
C9 C 0.26056 0.1274 0.44889 0.0
C10 C 0.25233 0.1462 0.43629 0.0
C11 C 0.23783 0.13505 0.41475 0.0
C12 C 0.23084 0.10474 0.40574 0.0
H13 H 0.95548 0.19538 0.43621 0.0
H14 H 0.86813 0.10326 0.43665 0.0
H15 H 0.9217 0.12394 0.38078 0.0
H16 H 0.84706 0.08396 0.36949 0.0
C17 C 0.84159 0.07535 0.38592 0.0
O18 O 0.87022 0.08149 0.39767 0.0
H19 H 0.83075 0.08832 0.39425 0.0
C20 C 0.93817 0.17159 0.42833 0.0
C21 C 0.94237 0.16232 0.40723 0.0
C22 C 0.91139 0.15063 0.43915 0.0
C23 C 0.88864 0.12014 0.42856 0.0
C24 C 0.89222 0.11096 0.4075 0.0
C25 C 0.91894 0.13187 0.39688 0.0
H26 H 0.84433 0.77304 0.45634 0.0
H27 H 0.93836 0.78113 0.45226 0.0
H28 H 0.90223 0.8206 0.40467 0.0
H29 H 0.93757 0.78937 0.38527 0.0
C30 C 0.95159 0.78995 0.40065 0.0
O31 O 0.95003 0.81014 0.41669 0.0
H32 H 0.94002 0.76494 0.40542 0.0
C33 C 0.86665 0.7818 0.4485 0.0
C34 C 0.87026 0.79828 0.42979 0.0
C35 C 0.89103 0.77566 0.45695 0.0
C36 C 0.91913 0.78543 0.44603 0.0
C37 C 0.92285 0.80113 0.42706 0.0
C38 C 0.89862 0.80777 0.41906 0.0
H39 H 0.06529 0.23617 0.59729 0.0
H40 H 0.15425 0.23334 0.59355 0.0
H41 H 0.09868 0.19723 0.64762 0.0
H42 H 0.17224 0.23702 0.65794 0.0
C43 C 0.17901 0.23072 0.64224 0.0
O44 O 0.15113 0.20739 0.62966 0.0
H45 H 0.19115 0.25294 0.63372 0.0
C46 C 0.08306 0.23026 0.60411 0.0
C47 C 0.07834 0.21582 0.62386 0.0
C48 C 0.11031 0.2367 0.5929 0.0
C49 C 0.13262 0.228 0.60152 0.0
C50 C 0.12835 0.21389 0.62113 0.0
C51 C 0.10128 0.20767 0.63223 0.0
H52 H 0.792 0.83613 0.60328 0.0
H53 H 0.79215 0.92563 0.60568 0.0
H54 H 0.82066 0.89737 0.66377 0.0
H55 H 0.77953 0.92811 0.67036 0.0
C56 C 0.78577 0.942 0.65585 0.0
O57 O 0.81133 0.94099 0.64715 0.0
H58 H 0.76368 0.93097 0.64369 0.0
C59 C 0.79637 0.858 0.61238 0.0
C60 C 0.80774 0.86416 0.63478 0.0
C61 C 0.79013 0.87975 0.60171 0.0
C62 C 0.79624 0.90821 0.61357 0.0
C63 C 0.80702 0.91424 0.63582 0.0
C64 C 0.81277 0.8924 0.64641 0.0
H65 H 0.18357 0.94159 0.59706 0.0
H66 H 0.08905 0.85528 0.58983 0.0
H67 H 0.12114 0.9178 0.64913 0.0
H68 H 0.09012 0.84903 0.65519 0.0
C69 C 0.07285 0.83894 0.63999 0.0
O70 O 0.07481 0.86375 0.62882 0.0
H71 H 0.07993 0.8241 0.62979 0.0
C72 C 0.16085 0.92584 0.60359 0.0
C73 C 0.15569 0.93358 0.62481 0.0
C74 C 0.13685 0.89795 0.59061 0.0
C75 C 0.10764 0.87728 0.59927 0.0
C76 C 0.10251 0.88434 0.62043 0.0
C77 C 0.12614 0.91251 0.63301 0.0
H78 H 0.90412 0.40621 0.7731 0.0
H79 H 0.91541 0.5001 0.76966 0.0
H80 H 0.89308 0.43827 0.71085 0.0
H81 H 0.93762 0.50903 0.70585 0.0
C82 C 0.93022 0.51844 0.71992 0.0
O83 O 0.90296 0.49358 0.72723 0.0
H84 H 0.95101 0.52969 0.7331 0.0
C85 C 0.90421 0.42446 0.76355 0.0
C86 C 0.89772 0.41842 0.74067 0.0
C87 C 0.91092 0.45394 0.77422 0.0
C88 C 0.9108 0.47738 0.76176 0.0
C89 C 0.9043 0.4715 0.73901 0.0
C90 C 0.89786 0.44224 0.72851 0.0
H91 H 0.62857 0.52312 0.7789 0.0
H92 H 0.54969 0.4249 0.77049 0.0
H93 H 0.62567 0.45625 0.72812 0.0
H94 H 0.5595 0.411 0.70455 0.0
C95 C 0.54666 0.40199 0.7193 0.0
O96 O 0.56973 0.40842 0.73659 0.0
H97 H 0.5329 0.41465 0.7226 0.0
C98 C 0.61702 0.4992 0.77038 0.0
C99 C 0.63127 0.49301 0.75278 0.0
C100 C 0.58791 0.47477 0.77716 0.0
C101 C 0.57262 0.44393 0.76592 0.0
C102 C 0.58604 0.43761 0.74813 0.0
C103 C 0.61544 0.46187 0.74173 0.0
H104 H 0.51604 0.11018 0.78481 0.0
H105 H 0.60938 0.11495 0.79171 0.0
H106 H 0.58459 0.15305 0.7373 0.0
H107 H 0.6144 0.11282 0.72769 0.0
C108 C 0.6315 0.11997 0.74288 0.0
O109 O 0.62877 0.14233 0.7561 0.0
H110 H 0.62457 0.09803 0.7514 0.0
C111 C 0.5396 0.11737 0.77902 0.0
C112 C 0.54758 0.13287 0.75975 0.0
C113 C 0.56151 0.11046 0.79063 0.0
C114 C 0.592 0.11987 0.78301 0.0
C115 C 0.60013 0.13511 0.76385 0.0
C116 C 0.57812 0.14176 0.75233 0.0
H117 H 0.72042 0.56822 0.91952 0.0
H118 H 0.80339 0.55443 0.92429 0.0
H119 H 0.74313 0.53228 0.97678 0.0
H120 H 0.81499 0.56023 0.99108 0.0
C121 C 0.82207 0.5542 0.97543 0.0
O122 O 0.79396 0.53239 0.96225 0.0
H123 H 0.83575 0.57682 0.96753 0.0
C124 C 0.73583 0.56139 0.92874 0.0
C125 C 0.72807 0.55028 0.94946 0.0
C126 C 0.76308 0.56337 0.91953 0.0
C127 C 0.78207 0.55286 0.9309 0.0
C128 C 0.77471 0.54156 0.95138 0.0
C129 C 0.74792 0.54037 0.96068 0.0
H130 H 0.45668 0.15995 0.94805 0.0
H131 H 0.45281 0.24739 0.95113 0.0
H132 H 0.48183 0.21892 1.00914 0.0
H133 H 0.44087 0.24992 0.01733 0.0
C134 C 0.44444 0.26138 1.00179 0.0
O135 O 0.47064 0.26186 0.99294 0.0
H136 H 0.42155 0.24711 0.99048 0.0
C137 C 0.45999 0.18131 0.9573 0.0
C138 C 0.47037 0.18687 0.97981 0.0
C139 C 0.45342 0.20286 0.94672 0.0
C140 C 0.45759 0.23033 0.95891 0.0
C141 C 0.46768 0.23589 0.98133 0.0
C142 C 0.4743 0.21441 0.99173 0.0
H143 H 0.84662 0.26438 0.92558 0.0
H144 H 0.75711 0.1747 0.9269 0.0
H145 H 0.78868 0.24904 0.97956 0.0
H146 H 0.76514 0.18277 0.99225 0.0
C147 C 0.74528 0.16892 0.9787 0.0
O148 O 0.7442 0.19005 0.96486 0.0
H149 H 0.75097 0.15204 0.96964 0.0
C150 C 0.82526 0.2493 0.93366 0.0
C151 C 0.82069 0.26111 0.95374 0.0
C152 C 0.80245 0.21843 0.92361 0.0
C153 C 0.77487 0.19873 0.93419 0.0
C154 C 0.7704 0.20961 0.95454 0.0
C155 C 0.79305 0.24077 0.96415 0.0
H156 H 0.60649 0.7467 0.10164 0.0
H157 H 0.60279 0.83248 0.09178 0.0
H158 H 0.57499 0.76071 0.03805 0.0
H159 H 0.60516 0.83286 0.02411 0.0
C160 C 0.60359 0.84141 0.04086 0.0
O161 O 0.5805 0.81584 0.05062 0.0
H162 H 0.62832 0.85219 0.05011 0.0
C163 C 0.60215 0.76145 0.09081 0.0
C164 C 0.59033 0.74984 0.06878 0.0
C165 C 0.60702 0.79134 0.09928 0.0
C166 C 0.59943 0.80947 0.08556 0.0
C167 C 0.58815 0.79839 0.06356 0.0
C168 C 0.58379 0.76885 0.05514 0.0
H169 H 0.3037 0.84929 0.11715 0.0
H170 H 0.21816 0.7549 0.11023 0.0
H171 H 0.28481 0.7821 0.06133 0.0
H172 H 0.21115 0.73675 0.04212 0.0
C173 C 0.20278 0.73089 0.05856 0.0
O174 O 0.22932 0.7368 0.07286 0.0
H175 H 0.19266 0.74637 0.06373 0.0
C176 C 0.28903 0.82573 0.10818 0.0
C177 C 0.29865 0.81869 0.08842 0.0
C178 C 0.26019 0.80297 0.1163 0.0
C179 C 0.24037 0.77294 0.10422 0.0
C180 C 0.24902 0.7658 0.08431 0.0
C181 C 0.27813 0.78846 0.07648 0.0
H182 H 0.17203 0.44246 0.1264 0.0
H183 H 0.263 0.44411 0.12294 0.0
H184 H 0.2263 0.47705 0.07084 0.0
H185 H 0.25856 0.43965 0.05616 0.0
C186 C 0.2756 0.44535 0.07117 0.0
O187 O 0.27397 0.46774 0.08514 0.0
H188 H 0.26787 0.42277 0.07905 0.0
C189 C 0.19316 0.44804 0.11777 0.0
C190 C 0.19596 0.46079 0.09749 0.0
C191 C 0.21716 0.44214 0.12715 0.0
C192 C 0.24406 0.44823 0.11581 0.0
C193 C 0.24714 0.46055 0.09545 0.0
C194 C 0.22315 0.46678 0.08631 0.0
H195 H 0.39374 0.9004 0.2516 0.0
H196 H 0.47961 0.89121 0.25869 0.0
H197 H 0.41463 0.86334 0.30874 0.0
H198 H 0.48792 0.90008 0.32438 0.0
C199 C 0.49626 0.89148 0.31042 0.0
O200 O 0.46928 0.86897 0.29667 0.0
H201 H 0.51177 0.91262 0.3016 0.0
C202 C 0.40902 0.89334 0.26077 0.0
C203 C 0.40014 0.88086 0.28097 0.0
C204 C 0.43772 0.89745 0.25253 0.0
C205 C 0.4577 0.88887 0.26483 0.0
C206 C 0.4496 0.87703 0.28513 0.0
C207 C 0.42096 0.87312 0.29321 0.0
H208 H 0.10986 0.49995 0.28305 0.0
H209 H 0.11084 0.58986 0.28911 0.0
H210 H 0.15075 0.56331 0.34286 0.0
H211 H 0.11664 0.59945 0.35699 0.0
C212 C 0.11682 0.60947 0.34113 0.0
O213 O 0.13891 0.6069 0.32894 0.0
H214 H 0.09157 0.59556 0.33251 0.0
C215 C 0.11602 0.52215 0.29258 0.0
C216 C 0.13166 0.52897 0.31402 0.0
C217 C 0.10803 0.54379 0.28345 0.0
C218 C 0.11629 0.57257 0.29588 0.0
C219 C 0.13152 0.57934 0.31717 0.0
C220 C 0.13924 0.55773 0.32621 0.0
H221 H 0.51691 0.60698 0.26733 0.0
H222 H 0.42477 0.5187 0.25327 0.0
H223 H 0.4468 0.57526 0.31468 0.0
H224 H 0.41725 0.5028 0.31436 0.0
C225 C 0.39962 0.49564 0.29945 0.0
O226 O 0.40335 0.5227 0.29048 0.0
H227 H 0.40506 0.48114 0.2876 0.0
C228 C 0.49358 0.58938 0.27234 0.0
C229 C 0.48479 0.59456 0.29287 0.0
C230 C 0.47229 0.56211 0.25793 0.0
C231 C 0.44146 0.54014 0.26402 0.0
C232 C 0.43247 0.54487 0.28446 0.0
C233 C 0.45398 0.57206 0.29883 0.0
Tb234 Tb 0.49285 0.98423 0.99371 0.0
Eu235 Eu 0.52127 0.01136 0.04568 0.0
C236 C 0.52888 0.95544 0.02145 0.0
C237 C 0.45093 0.94735 0.03078 0.0
C238 C 0.47929 0.98757 0.93459 0.0
C239 C 0.48147 0.99062 0.89554 0.0
C240 C 0.47336 0.97245 0.91342 0.0
C241 C 0.49294 0.02106 0.93772 0.0
C242 C 0.50096 0.03925 0.91985 0.0
C243 C 0.49569 0.02426 0.89858 0.0
C244 C 0.47349 0.96868 0.9534 0.0
O245 O 0.47011 0.01051 1.00588 0.0
O246 O 0.51207 0.04768 0.03011 0.0
O247 O 0.56452 0.03618 0.02632 0.0
O248 O 0.5362 0.03153 0.99334 0.0
C249 C 0.48622 0.03931 0.01639 0.0
O250 O 0.51627 0.03272 0.0762 0.0
O251 O 0.55525 0.02178 0.07472 0.0
O252 O 0.52413 0.96649 0.03995 0.0
O253 O 0.52335 0.96403 1.00253 0.0
O254 O 0.45965 0.94471 1.01128 0.0
O255 O 0.46806 0.97331 0.04457 0.0
C256 C 0.56371 0.04429 1.00636 0.0
O257 O 0.49927 0.96936 0.9627 0.0
O258 O 0.45643 0.97245 0.96777 0.0
C259 C 0.5311 0.01564 0.10774 0.0
C260 C 0.51392 0.98736 0.14729 0.0
C261 C 0.53671 0.02038 0.14739 0.0
C262 C 0.54518 0.03436 0.1278 0.0
C263 C 0.5084 0.9827 0.10745 0.0
C264 C 0.49985 0.96868 0.12705 0.0
C265 C 0.53956 0.03082 0.08726 0.0
H266 H 0.47677 0.97836 0.87934 0.0
H267 H 0.463 0.94665 0.91075 0.0
H268 H 0.49801 0.03318 0.95403 0.0
H269 H 0.51219 0.06512 0.92275 0.0
H270 H 0.54764 0.03559 0.16264 0.0
H271 H 0.56257 0.05987 0.12831 0.0
H272 H 0.49727 0.96789 0.09206 0.0
H273 H 0.48251 0.94315 0.12634 0.0
Tb274 Tb 1.00816 0.49009 1.00167 0.0
Eu275 Eu 0.99469 0.48996 0.05365 0.0
C276 C 0.04744 0.55236 0.03367 0.0
C277 C 0.05158 0.47835 0.0376 0.0
C278 C 1.00713 0.49695 0.94108 0.0
C279 C 0.01865 0.51099 0.90419 0.0
C280 C 0.02904 0.50784 0.92516 0.0
C281 C 0.97507 0.49086 0.93614 0.0
C282 C 0.96458 0.49377 0.91511 0.0
C283 C 0.98605 0.50305 0.89877 0.0
C284 C 0.01721 0.48896 0.96177 0.0
O285 O 0.98234 0.44069 1.0095 0.0
O286 O 0.95212 0.44571 0.03496 0.0
O287 O 0.96783 0.5117 0.03741 0.0
O288 O 0.96373 0.49362 1.00134 0.0
C289 C 0.95568 0.42852 0.01939 0.0
O290 O 0.97776 0.46321 0.08197 0.0
O291 O 0.99334 0.51401 0.0842 0.0
O292 O 0.04249 0.53516 0.05033 0.0
O293 O 0.0289 0.53977 1.01502 0.0
O294 O 0.04955 0.4889 0.01862 0.0
O295 O 0.03 0.47218 0.05162 0.0
C296 C 0.95481 0.5063 0.01707 0.0
O297 O 0.03669 0.51275 0.97631 0.0
O298 O 0.99433 0.46504 0.97054 0.0
C299 C 1.00161 0.49303 0.11614 0.0
C300 C 0.0346 0.50175 0.15783 0.0
C301 C 1.00037 0.48798 0.155 0.0
C302 C 0.98407 0.48373 0.13434 0.0
C303 C 0.03567 0.5062 0.11867 0.0
C304 C 0.05208 0.51056 0.13939 0.0
C305 C 0.98383 0.4885 0.09468 0.0
H306 H 0.03566 0.51792 0.89191 0.0
H307 H 0.05384 0.51258 0.92868 0.0
H308 H 0.95778 0.48264 0.94826 0.0
H309 H 0.93942 0.48784 0.91142 0.0
H310 H 0.98611 0.48037 0.16877 0.0
H311 H 0.9577 0.47321 0.13259 0.0
H312 H 0.04954 0.51332 0.10468 0.0
H313 H 0.07847 0.52142 0.14103 0.0
Tb314 Tb 0.51543 0.50398 0.03691 0.0
Eu315 Eu 0.49522 0.50846 0.98591 0.0
C316 C 0.48735 0.44406 1.00205 0.0
C317 C 0.56485 0.51708 1.00212 0.0
C318 C 0.52216 0.51022 0.09727 0.0
C319 C 0.5214 0.50805 0.1364 0.0
C320 C 0.53081 0.50134 0.11672 0.0
C321 C 0.50426 0.52618 0.09763 0.0
C322 C 0.49481 0.53291 0.11731 0.0
C323 C 0.50311 0.52373 0.1369 0.0
C324 C 0.52995 0.50083 0.07652 0.0
O325 O 0.53599 0.55484 0.03256 0.0
O326 O 0.4988 0.5509 1.00528 0.0
O327 O 0.44867 0.48597 1.00217 0.0
O328 O 0.47037 0.50567 0.03771 0.0
C329 C 0.52136 0.56756 0.02157 0.0
O330 O 0.50411 0.53599 0.95771 0.0
O331 O 0.46332 0.48708 0.95544 0.0
O332 O 0.49694 0.46282 0.98625 0.0
O333 O 0.48587 0.45497 0.02164 0.0
O334 O 0.55178 0.50075 0.01867 0.0
O335 O 0.54989 0.52879 0.99038 0.0
C336 C 0.44527 0.49228 0.02253 0.0
O337 O 0.50497 0.47779 0.06422 0.0
O338 O 0.5487 0.52413 0.06532 0.0
C339 C 0.49222 0.50364 0.92491 0.0
C340 C 0.51327 0.4882 0.88691 0.0
C341 C 0.49242 0.5011 0.88556 0.0
C342 C 0.48193 0.50874 0.90448 0.0
C343 C 0.51309 0.4909 0.92635 0.0
C344 C 0.52351 0.48321 0.90751 0.0
C345 C 0.48139 0.51152 0.9448 0.0
H346 H 0.52777 0.50027 0.15115 0.0
H347 H 0.54433 0.48869 0.11662 0.0
H348 H 0.49724 0.53304 0.08267 0.0
H349 H 0.48106 0.54533 0.1172 0.0
H350 H 0.48396 0.50496 0.86989 0.0
H351 H 0.46579 0.51854 0.90316 0.0
H352 H 0.52136 0.48699 0.94209 0.0
H353 H 0.53995 0.47378 0.90908 0.0
Tb354 Tb 0.15823 0.32934 0.33437 0.0
Eu355 Eu 0.18372 0.35772 0.38651 0.0
C356 C 0.19272 0.30209 0.364 0.0
C357 C 0.11329 0.29521 0.37125 0.0
C358 C 0.15601 0.32502 0.27392 0.0
C359 C 0.15663 0.31795 0.23466 0.0
C360 C 0.14405 0.30544 0.25405 0.0
C361 C 0.18151 0.357 0.27429 0.0
C362 C 0.194 0.36956 0.25493 0.0
C363 C 0.18129 0.35034 0.23483 0.0
C364 C 0.14058 0.3126 0.29389 0.0
O365 O 0.13422 0.35472 0.34599 0.0
O366 O 0.17634 0.39374 0.36905 0.0
O367 O 0.22848 0.38134 0.36907 0.0
O368 O 0.2045 0.37449 0.33394 0.0
C369 C 0.15059 0.38444 0.35501 0.0
O370 O 0.17635 0.3775 0.41689 0.0
O371 O 0.21725 0.36933 0.41589 0.0
O372 O 0.18383 0.31128 0.38142 0.0
O373 O 0.19157 0.31307 0.34514 0.0
O374 O 0.12196 0.29136 0.35193 0.0
O375 O 0.1303 0.32172 0.38444 0.0
C376 C 0.23023 0.38813 0.34872 0.0
O377 O 0.15353 0.29987 0.30619 0.0
O378 O 0.13396 0.33159 0.30547 0.0
C379 C 0.18908 0.35672 0.4471 0.0
C380 C 0.16782 0.31978 0.48278 0.0
C381 C 0.18405 0.3536 0.48594 0.0
C382 C 0.19457 0.37193 0.4682 0.0
C383 C 0.17279 0.32304 0.44385 0.0
C384 C 0.16222 0.30474 0.46149 0.0
C385 C 0.1994 0.37558 0.42828 0.0
H386 H 0.14614 0.30262 0.21942 0.0
H387 H 0.12436 0.28072 0.25344 0.0
H388 H 0.19113 0.37254 0.28947 0.0
H389 H 0.21327 0.39448 0.25565 0.0
H390 H 0.18905 0.36592 0.50216 0.0
H391 H 0.20702 0.39792 0.47096 0.0
H392 H 0.16821 0.3109 0.42761 0.0
H393 H 0.14939 0.27877 0.45841 0.0
Tb394 Tb 0.68461 0.82158 0.32909 0.0
Eu395 Eu 0.66383 0.82429 0.37868 0.0
C396 C 0.71444 0.88697 0.3579 0.0
C397 C 0.72688 0.81781 0.36956 0.0
C398 C 0.69303 0.82307 0.26869 0.0
C399 C 0.71338 0.8378 0.23355 0.0
C400 C 0.71908 0.8359 0.25576 0.0
C401 C 0.66139 0.8139 0.25941 0.0
C402 C 0.65561 0.81554 0.23715 0.0
C403 C 0.68139 0.82658 0.22383 0.0
C404 C 0.69894 0.81639 0.29098 0.0
O405 O 0.66282 0.77427 0.34077 0.0
O406 O 0.62538 0.77835 0.35933 0.0
O407 O 0.63505 0.84041 0.35798 0.0
O408 O 0.63892 0.82231 0.32351 0.0
C409 C 0.63377 0.7608 0.34761 0.0
O410 O 0.64511 0.79939 0.40743 0.0
O411 O 0.65543 0.84846 0.40625 0.0
O412 O 0.70888 0.87181 0.3756 0.0
O413 O 0.70026 0.87154 0.33859 0.0
O414 O 0.72613 0.82696 0.34994 0.0
O415 O 0.70337 0.8112 0.38214 0.0
C416 C 0.62589 0.83399 0.33687 0.0
O417 O 0.71732 0.84103 0.30525 0.0
O418 O 0.67384 0.79389 0.29922 0.0
C419 C 0.66302 0.83261 0.4405 0.0
C420 C 0.69295 0.84795 0.48373 0.0
C421 C 0.65882 0.83407 0.47944 0.0
C422 C 0.64401 0.8265 0.45798 0.0
C423 C 0.69702 0.8462 0.44458 0.0
C424 C 0.71191 0.85384 0.46607 0.0
C425 C 0.64701 0.82447 0.41813 0.0
H426 H 0.73386 0.84704 0.22383 0.0
H427 H 0.7437 0.84326 0.26267 0.0
H428 H 0.64088 0.80409 0.26911 0.0
H429 H 0.63064 0.80647 0.2302 0.0
H430 H 0.64349 0.82875 0.49267 0.0
H431 H 0.61769 0.81581 0.45504 0.0
H432 H 0.71199 0.85098 0.43117 0.0
H433 H 0.73826 0.86478 0.46884 0.0
Tb434 Tb 0.19783 0.85388 0.37338 0.0
Eu435 Eu 0.17647 0.85929 0.32242 0.0
C436 C 0.16536 0.79343 0.33948 0.0
C437 C 0.24505 0.86539 0.33666 0.0
C438 C 0.20727 0.85633 0.43426 0.0
C439 C 0.21343 0.85384 0.47335 0.0
C440 C 0.21955 0.84767 0.4523 0.0
C441 C 0.18849 0.871 0.4374 0.0
C442 C 0.18235 0.87721 0.45849 0.0
C443 C 0.19491 0.86884 0.47673 0.0
C444 C 0.21447 0.84998 0.41237 0.0
O445 O 0.19478 0.89709 0.37454 0.0
O446 O 0.20543 0.90968 0.33962 0.0
O447 O 0.13834 0.86023 0.34157 0.0
O448 O 0.1451 0.83679 0.37156 0.0
C449 C 0.20399 0.91792 0.36 0.0
O450 O 0.18922 0.88551 0.29362 0.0
O451 O 0.14247 0.84156 0.29258 0.0
O452 O 0.15252 0.80652 0.32715 0.0
O453 O 0.18952 0.81075 0.35475 0.0
O454 O 0.2426 0.87408 0.35676 0.0
O455 O 0.21972 0.85242 0.32184 0.0
C456 C 0.12781 0.84579 0.35924 0.0
O457 O 0.19029 0.82622 0.39987 0.0
O458 O 0.23068 0.87506 0.4018 0.0
C459 C 0.16928 0.85234 0.26059 0.0
C460 C 0.18398 0.83383 0.22068 0.0
C461 C 0.16364 0.84733 0.22095 0.0
C462 C 0.15643 0.85658 0.24077 0.0
C463 C 0.18906 0.83834 0.26044 0.0
C464 C 0.19641 0.82923 0.24066 0.0
C465 C 0.16315 0.86368 0.28136 0.0
H466 H 0.22301 0.84662 0.48697 0.0
H467 H 0.23394 0.83617 0.45011 0.0
H468 H 0.17882 0.87782 0.42358 0.0
H469 H 0.16827 0.88907 0.46055 0.0
H470 H 0.15396 0.85147 0.20585 0.0
H471 H 0.14122 0.86746 0.24063 0.0
H472 H 0.19911 0.83482 0.27564 0.0
H473 H 0.21179 0.81853 0.24101 0.0
Tb474 Tb 0.83533 0.66395 0.66719 0.0
Eu475 Eu 0.84784 0.69436 0.71888 0.0
C476 C 0.86317 0.63923 0.70477 0.0
C477 C 0.78312 0.62844 0.69945 0.0
C478 C 0.83457 0.66323 0.6075 0.0
C479 C 0.8357 0.66394 0.56822 0.0
C480 C 0.82887 0.647 0.58673 0.0
C481 C 0.84722 0.69657 0.60963 0.0
C482 C 0.8541 0.71352 0.59118 0.0
C483 C 0.84838 0.69741 0.57023 0.0
C484 C 0.82817 0.64565 0.627 0.0
O485 O 0.80995 0.69091 0.66994 0.0
O486 O 0.84283 0.72872 0.69804 0.0
O487 O 0.89667 0.71811 0.70561 0.0
O488 O 0.87779 0.71214 0.66948 0.0
C489 C 0.82198 0.71953 0.68047 0.0
O490 O 0.83245 0.71368 0.74549 0.0
O491 O 0.87552 0.7092 0.75113 0.0
O492 O 0.85105 0.64969 0.7195 0.0
O493 O 0.86428 0.64692 0.68458 0.0
O494 O 0.798 0.62502 0.68313 0.0
O495 O 0.79507 0.6557 0.71182 0.0
C496 C 0.90161 0.72558 0.6855 0.0
O497 O 0.85405 0.65303 0.64018 0.0
O498 O 0.80469 0.64425 0.63763 0.0
C499 C 0.84187 0.69845 0.77956 0.0
C500 C 0.81748 0.66694 0.81705 0.0
C501 C 0.83638 0.70074 0.81837 0.0
C502 C 0.84842 0.71634 0.79977 0.0
C503 C 0.82318 0.66477 0.7781 0.0
C504 C 0.81101 0.64914 0.79666 0.0
C505 C 0.85442 0.71485 0.76001 0.0
H506 H 0.83063 0.65075 0.55231 0.0
H507 H 0.81915 0.62126 0.58483 0.0
H508 H 0.85194 0.70952 0.6256 0.0
H509 H 0.86426 0.73931 0.59337 0.0
H510 H 0.84225 0.71517 0.83385 0.0
H511 H 0.86292 0.74235 0.80117 0.0
H512 H 0.81799 0.65061 0.76258 0.0
H513 H 0.79623 0.62315 0.79497 0.0
Tb514 Tb 0.36635 0.17101 0.67286 0.0
Eu515 Eu 0.33891 0.15341 0.72102 0.0
C516 C 0.39901 0.22111 0.7134 0.0
C517 C 0.39562 0.1431 0.70638 0.0
C518 C 0.37657 0.17867 0.61373 0.0
C519 C 0.38615 0.18079 0.57556 0.0
C520 C 0.39817 0.18732 0.59763 0.0
C521 C 0.34276 0.16345 0.60762 0.0
C522 C 0.3307 0.15702 0.58553 0.0
C523 C 0.35229 0.16556 0.56927 0.0
C524 C 0.38967 0.1857 0.63678 0.0
O525 O 0.32989 0.12031 0.66787 0.0
O526 O 0.29935 0.11446 0.69677 0.0
O527 O 0.3164 0.17975 0.70559 0.0
O528 O 0.31962 0.16982 0.66923 0.0
C529 C 0.30318 0.10431 0.67755 0.0
O530 O 0.32379 0.12209 0.74736 0.0
O531 O 0.32234 0.16627 0.74999 0.0
O532 O 0.38886 0.19865 0.72688 0.0
O533 O 0.3845 0.21523 0.69356 0.0
O534 O 0.40263 0.16608 0.69355 0.0
O535 O 0.36752 0.12905 0.71451 0.0
C536 C 0.30688 0.17817 0.68487 0.0
O537 O 0.38155 0.20313 0.64879 0.0
O538 O 0.38721 0.16141 0.64654 0.0
C539 C 0.33375 0.14904 0.7825 0.0
C540 C 0.3614 0.16573 0.82634 0.0
C541 C 0.32721 0.14832 0.82117 0.0
C542 C 0.31353 0.14007 0.79941 0.0
C543 C 0.36787 0.16607 0.78748 0.0
C544 C 0.38161 0.1743 0.80926 0.0
C545 C 0.31892 0.1417 0.75982 0.0
H546 H 0.40337 0.18792 0.56341 0.0
H547 H 0.42435 0.19914 0.60214 0.0
H548 H 0.32576 0.15651 0.61992 0.0
H549 H 0.30448 0.14491 0.58117 0.0
H550 H 0.31102 0.14097 0.83395 0.0
H551 H 0.28713 0.12693 0.79579 0.0
H552 H 0.38379 0.17334 0.77454 0.0
H553 H 0.40801 0.18797 0.81273 0.0
Tb554 Tb 0.87163 0.18378 0.70776 0.0
Eu555 Eu 0.85249 0.19594 0.65787 0.0
C556 C 0.8442 0.12926 0.66898 0.0
C557 C 0.92256 0.20594 0.67346 0.0
C558 C 0.87752 0.17989 0.76816 0.0
C559 C 0.88491 0.17819 0.80732 0.0
C560 C 0.89198 0.17344 0.78624 0.0
C561 C 0.85573 0.1911 0.77138 0.0
C562 C 0.84856 0.1958 0.79248 0.0
C563 C 0.86315 0.18948 0.81073 0.0
C564 C 0.88457 0.17378 0.74609 0.0
O565 O 0.89145 0.23524 0.70761 0.0
O566 O 0.8564 0.23608 0.68051 0.0
O567 O 0.80595 0.17135 0.67379 0.0
O568 O 0.82705 0.18596 0.70987 0.0
C569 C 0.87777 0.24983 0.69788 0.0
O570 O 0.86295 0.22669 0.63128 0.0
O571 O 0.82021 0.17891 0.62737 0.0
O572 O 0.85493 0.15052 0.65472 0.0
O573 O 0.84177 0.1373 0.68913 0.0
O574 O 0.90932 0.18559 0.68815 0.0
O575 O 0.90698 0.21857 0.66362 0.0
C576 C 0.80234 0.17497 0.6945 0.0
O577 O 0.85935 0.15315 0.73274 0.0
O578 O 0.90413 0.19886 0.73656 0.0
C579 C 0.8462 0.1989 0.59595 0.0
C580 C 0.85802 0.1857 0.55343 0.0
C581 C 0.83683 0.19773 0.55666 0.0
C582 C 0.83099 0.20425 0.57773 0.0
C583 C 0.86771 0.18733 0.59293 0.0
C584 C 0.87364 0.18085 0.57183 0.0
C585 C 0.83861 0.20456 0.6179 0.0
H586 H 0.89625 0.17269 0.82094 0.0
H587 H 0.90864 0.16452 0.78404 0.0
H588 H 0.84427 0.19615 0.75757 0.0
H589 H 0.832 0.20485 0.79454 0.0
H590 H 0.82477 0.20215 0.54287 0.0
H591 H 0.81435 0.21323 0.57979 0.0
H592 H 0.87956 0.18294 0.60687 0.0
H593 H 0.88982 0.1713 0.5699 0.0
H594 H 0.31241 0.83152 0.04619 0.0
H595 H 0.35648 0.86054 0.11312 0.0
H596 H 0.40667 0.90283 0.10121 0.0
H597 H 0.438 0.93251 0.07205 0.0
H598 H 0.39637 0.90151 1.00489 0.0
H599 H 0.34564 0.85866 0.01663 0.0
C600 C 0.33309 0.84671 0.05819 0.0
C601 C 0.33012 0.843 0.08063 0.0
C602 C 0.36244 0.8707 0.05119 0.0
C603 C 0.3574 0.86326 0.09582 0.0
C604 C 0.38636 0.88738 0.08902 0.0
C605 C 0.41783 0.91636 0.05997 0.0
C606 C 0.42081 0.92037 0.03765 0.0
C607 C 0.38903 0.89155 0.0668 0.0
C608 C 0.39467 0.89892 0.02218 0.0
C609 C 0.36564 0.87448 0.02889 0.0
H610 H 0.1698 0.45327 0.05483 0.0
H611 H 0.1657 0.48642 0.12046 0.0
H612 H 0.1207 0.49396 0.10766 0.0
H613 H 0.0812 0.48961 0.07839 0.0
H614 H 0.08672 0.46082 1.01213 0.0
H615 H 0.13279 0.45365 0.02454 0.0
C616 C 0.15939 0.46257 0.06628 0.0
C617 C 0.17074 0.46841 0.08873 0.0
C618 C 0.13368 0.46756 0.05872 0.0
C619 C 0.15688 0.4806 0.10324 0.0
C620 C 0.13123 0.48519 0.09593 0.0
C621 C 0.09244 0.48169 0.06664 0.0
C622 C 0.08028 0.47522 0.04444 0.0
C623 C 0.1191 0.47826 0.07382 0.0
C624 C 0.09559 0.46577 0.02934 0.0
C625 C 0.12187 0.46164 0.03645 0.0
H626 H 0.53814 0.70488 0.04123 0.0
H627 H 0.62689 0.72154 0.07785 0.0
H628 H 0.61327 0.66659 0.06662 0.0
H629 H 0.5755 0.61341 0.04713 0.0
H630 H 0.48782 0.59752 1.00943 0.0
H631 H 0.50203 0.65279 0.02009 0.0
C632 C 0.55483 0.69673 0.04645 0.0
C633 C 0.5834 0.71731 0.06047 0.0
C634 C 0.54701 0.6652 0.0398 0.0
C635 C 0.60445 0.70607 0.06734 0.0
C636 C 0.59677 0.67468 0.06086 0.0
C637 C 0.55951 0.62204 0.04124 0.0
C638 C 0.53057 0.60131 0.02761 0.0
C639 C 0.56793 0.65393 0.04729 0.0
C640 C 0.51028 0.61297 0.01993 0.0
C641 C 0.51834 0.64457 0.02604 0.0
H642 H 0.84163 0.28428 0.99717 0.0
H643 H 0.8538 0.31447 0.93199 0.0
H644 H 0.89716 0.36778 0.94658 0.0
H645 H 0.93284 0.40588 0.97753 0.0
H646 H 0.91733 0.37918 0.04309 0.0
H647 H 0.87365 0.32471 0.02874 0.0
C648 C 0.85333 0.30258 0.98614 0.0
C649 C 0.84485 0.29469 0.96336 0.0
C650 C 0.87775 0.3339 0.99472 0.0
C651 C 0.86048 0.31909 0.94948 0.0
C652 C 0.88518 0.34986 0.95782 0.0
C653 C 0.91987 0.38806 0.98865 0.0
C654 C 0.92849 0.39613 1.01125 0.0
C655 C 0.89434 0.35738 0.98033 0.0
C656 C 0.9111 0.37327 0.02559 0.0
C657 C 0.88622 0.34221 0.01738 0.0
H658 H 0.68594 0.50652 0.97545 0.0
H659 H 0.70595 0.59288 0.94588 0.0
H660 H 0.65751 0.58998 0.95921 0.0
H661 H 0.60853 0.56247 0.97857 0.0
H662 H 0.59058 0.47873 1.01064 0.0
H663 H 0.63949 0.48165 0.99752 0.0
C664 C 0.68013 0.52506 0.97217 0.0
C665 C 0.69954 0.54951 0.95919 0.0
C666 C 0.65252 0.52381 0.98042 0.0
C667 C 0.69113 0.5731 0.95514 0.0
C668 C 0.66349 0.57169 0.96296 0.0
C669 C 0.6154 0.54494 0.98277 0.0
C670 C 0.5958 0.52033 0.99547 0.0
C671 C 0.6438 0.54699 0.97541 0.0
C672 C 0.60527 0.49801 1.00096 0.0
C673 C 0.63319 0.49958 0.99337 0.0
H674 H 0.43176 0.12214 0.97569 0.0
H675 H 0.52263 0.19943 1.00865 0.0
H676 H 0.53436 0.16046 0.02471 0.0
H677 H 0.52055 0.10427 0.02702 0.0
H678 H 0.43001 0.02742 0.99301 0.0
H679 H 0.41643 0.06638 0.97975 0.0
C680 C 0.45415 0.13042 0.98637 0.0
C681 C 0.4765 0.16352 0.99077 0.0
C682 C 0.46082 0.10797 0.99532 0.0
C683 C 0.50505 0.17401 1.00504 0.0
C684 C 0.51181 0.15176 1.01414 0.0
C685 C 0.49763 0.09605 0.01698 0.0
C686 C 0.47646 0.06299 1.01091 0.0
C687 C 0.49011 0.11865 1.0091 0.0
C688 C 0.44689 0.05273 0.99783 0.0
C689 C 0.43908 0.07499 0.99018 0.0
H690 H 0.68392 0.13621 0.95639 0.0
H691 H 0.73438 0.15642 0.02105 0.0
H692 H 0.68287 0.12054 0.03545 0.0
H693 H 0.62384 0.0817 0.02943 0.0
H694 H 0.57305 0.06156 0.96473 0.0
H695 H 0.62406 0.09922 0.9507 0.0
C696 C 0.68344 0.1331 0.97368 0.0
C697 C 0.71281 0.14934 0.9877 0.0
C698 C 0.65368 0.11229 0.98184 0.0
C699 C 0.71202 0.14458 1.00999 0.0
C700 C 0.6826 0.12395 0.01822 0.0
C701 C 0.62384 0.08561 1.01228 0.0
C702 C 0.59455 0.06858 0.9982 0.0
C703 C 0.65332 0.1074 1.00426 0.0
C704 C 0.59514 0.07423 0.97601 0.0
C705 C 0.62437 0.09577 0.96792 0.0
H706 H 0.85072 0.55174 1.0144 0.0
H707 H 0.84483 0.52822 0.94526 0.0
H708 H 0.88484 0.51055 0.95168 0.0
H709 H 0.92294 0.50345 0.97722 0.0
H710 H 0.92849 0.52858 0.04637 0.0
H711 H 0.88738 0.54382 0.03964 0.0
C712 C 0.8579 0.54236 1.00077 0.0
C713 C 0.84448 0.54075 0.97944 0.0
C714 C 0.88111 0.53272 1.00458 0.0
C715 C 0.85448 0.52915 0.96187 0.0
C716 C 0.87746 0.51923 0.96554 0.0
C717 C 0.91508 0.51216 0.99081 0.0
C718 C 0.92909 0.51489 1.01227 0.0
C719 C 0.89118 0.52113 0.98686 0.0
C720 C 0.91847 0.52627 0.02964 0.0
C721 C 0.8948 0.53502 0.02586 0.0
H722 H 0.45527 0.30324 0.97144 0.0
H723 H 0.448 0.29466 0.04035 0.0
H724 H 0.4597 0.35013 0.04628 0.0
H725 H 0.47312 0.40109 0.03201 0.0
H726 H 0.48194 0.4106 0.96316 0.0
H727 H 0.46856 0.35466 0.95703 0.0
C728 C 0.45625 0.31367 0.98771 0.0
C729 C 0.45095 0.29517 1.00545 0.0
C730 C 0.4633 0.3456 0.99098 0.0
C731 C 0.45212 0.30861 0.02649 0.0
C732 C 0.45881 0.34025 0.02987 0.0
C733 C 0.47199 0.39097 0.01562 0.0
C734 C 0.47849 0.41003 0.99806 0.0
C735 C 0.4646 0.35898 1.01225 0.0
C736 C 0.47707 0.39649 0.97697 0.0
C737 C 0.46942 0.3645 0.97344 0.0
H738 H 0.15902 0.69439 0.0239 0.0
H739 H 0.18432 0.69078 0.09168 0.0
H740 H 0.13853 0.6355 0.09013 0.0
H741 H 0.09115 0.58801 0.06933 0.0
H742 H 0.06546 0.593 1.0017 0.0
H743 H 0.11131 0.64772 1.00343 0.0
C744 C 0.15469 0.68131 0.03824 0.0
C745 C 0.17566 0.69624 0.05763 0.0
C746 C 0.12805 0.64979 0.03732 0.0
C747 C 0.16912 0.67947 0.07635 0.0
C748 C 0.14281 0.64794 0.07551 0.0
C749 C 0.09551 0.60109 0.05499 0.0
C750 C 0.07475 0.58623 0.03542 0.0
C751 C 0.1221 0.6328 0.05605 0.0
C752 C 0.08087 0.60367 0.01702 0.0
C753 C 0.1072 0.63504 0.01795 0.0
H754 H 0.2966 0.44746 0.03078 0.0
H755 H 0.33176 0.47018 0.09925 0.0
H756 H 0.38761 0.48775 0.09046 0.0
H757 H 0.42606 0.49509 0.06318 0.0
H758 H 0.38978 0.47082 0.99469 0.0
H759 H 0.33495 0.45557 1.00362 0.0
C760 C 0.31658 0.45657 0.04374 0.0
C761 C 0.31024 0.45801 0.0656 0.0
C762 C 0.34842 0.46622 0.03856 0.0
C763 C 0.33622 0.46932 0.08228 0.0
C764 C 0.36807 0.47923 0.07725 0.0
C765 C 0.40621 0.48662 0.05019 0.0
C766 C 0.4122 0.48408 0.02828 0.0
C767 C 0.37445 0.4776 0.05543 0.0
C768 C 0.38604 0.47295 1.01171 0.0
C769 C 0.35456 0.4642 0.01678 0.0
H770 H 0.57408 0.85376 1.0064 0.0
H771 H 0.60944 0.88347 0.07455 0.0
H772 H 0.58888 0.92107 0.07492 0.0
H773 H 0.56005 0.94476 0.05583 0.0
H774 H 0.52578 0.9155 0.98731 0.0
H775 H 0.54673 0.87852 0.98707 0.0
C776 C 0.57761 0.86882 0.02121 0.0
C777 C 0.5936 0.86639 0.04033 0.0
C778 C 0.56574 0.89026 0.02126 0.0
C779 C 0.59757 0.88547 0.05959 0.0
C780 C 0.5857 0.90677 0.05981 0.0
C781 C 0.55708 0.93021 0.04088 0.0
C782 C 0.5413 0.93281 0.02166 0.0
C783 C 0.56956 0.90923 0.04076 0.0
C784 C 0.53793 0.91403 1.00234 0.0
C785 C 0.54988 0.89284 1.00217 0.0
H786 H 1.00487 0.19928 0.42587 0.0
H787 H 0.94566 0.17401 0.36399 0.0
H788 H 0.99388 0.21063 0.34659 0.0
H789 H 0.05291 0.25249 0.34953 0.0
H790 H 0.10992 0.27918 0.41239 0.0
H791 H 0.06272 0.23962 0.42877 0.0
C792 C 1.00235 0.20198 0.40862 0.0
C793 C 0.97159 0.18412 0.39636 0.0
C794 C 0.02994 0.22341 0.39884 0.0
C795 C 0.96908 0.18733 0.37385 0.0
C796 C 0.99664 0.20839 0.36388 0.0
C797 C 0.05491 0.24923 0.36672 0.0
C798 C 0.08476 0.26873 0.37976 0.0
C799 C 0.02722 0.22683 0.37626 0.0
C800 C 0.08711 0.26459 0.40207 0.0
C801 C 0.06012 0.24199 0.41147 0.0
H802 H 0.84745 0.79682 0.38741 0.0
H803 H 0.83412 0.81556 0.45415 0.0
H804 H 0.7883 0.8222 0.44159 0.0
H805 H 0.751 0.82174 0.4117 0.0
H806 H 0.76655 0.80666 0.34496 0.0
H807 H 0.81259 0.80007 0.35748 0.0
C808 C 0.83491 0.80284 0.39924 0.0
C809 C 0.8441 0.80511 0.42174 0.0
C810 C 0.80877 0.80724 0.3919 0.0
C811 C 0.8272 0.81276 0.43674 0.0
C812 C 0.80103 0.81679 0.42958 0.0
C813 C 0.76445 0.81697 0.39991 0.0
C814 C 0.75517 0.81448 0.37744 0.0
C815 C 0.79132 0.81373 0.40722 0.0
C816 C 0.77318 0.80875 0.36237 0.0
C817 C 0.79951 0.80492 0.36951 0.0
H818 H 0.24568 0.06459 0.37809 0.0
H819 H 0.20871 0.03134 0.43939 0.0
H820 H 0.19521 0.97704 0.42666 0.0
H821 H 0.19459 0.93931 0.39872 0.0
H822 H 0.23036 0.97092 0.33685 0.0
H823 H 0.24335 0.02556 0.34916 0.0
C824 C 0.23439 0.04535 0.38853 0.0
C825 C 0.22857 0.05207 0.40975 0.0
C826 C 0.22654 0.01398 0.38107 0.0
C827 C 0.21405 0.02694 0.42316 0.0
C828 C 0.20616 0.99585 0.41587 0.0
C829 C 0.20528 0.95806 0.38784 0.0
C830 C 0.21168 0.95103 0.36692 0.0
C831 C 0.21255 0.98918 0.39496 0.0
C832 C 0.22524 0.97568 0.35306 0.0
C833 C 0.23268 0.00693 0.36009 0.0
H834 H 0.55036 0.62005 0.30147 0.0
H835 H 0.47122 0.63473 0.31742 0.0
H836 H 0.51043 0.68629 0.33803 0.0
H837 H 0.56756 0.72961 0.34817 0.0
H838 H 0.64639 0.71571 0.32999 0.0
H839 H 0.60695 0.66155 0.31347 0.0
C840 C 0.54167 0.63452 0.30947 0.0
C841 C 0.50796 0.62378 0.30764 0.0
C842 C 0.56433 0.66441 0.32074 0.0
C843 C 0.49703 0.6424 0.3186 0.0
C844 C 0.51946 0.67199 0.33025 0.0
C845 C 0.5761 0.71454 0.34089 0.0
C846 C 0.60985 0.72676 0.34018 0.0
C847 C 0.55323 0.6836 0.33097 0.0
C848 C 0.62053 0.70698 0.33061 0.0
C849 C 0.598 0.67601 0.32114 0.0
H850 H 0.38839 0.89426 0.32222 0.0
H851 H 0.3408 0.85432 0.25695 0.0
H852 H 0.28925 0.84628 0.26842 0.0
H853 H 0.25767 0.85088 0.29658 0.0
H854 H 0.30402 0.89053 0.36214 0.0
H855 H 0.3559 0.89816 0.35098 0.0
C856 C 0.36666 0.88356 0.31058 0.0
C857 C 0.36864 0.87515 0.28868 0.0
C858 C 0.33685 0.87898 0.31731 0.0
C859 C 0.34022 0.86152 0.27379 0.0
C860 C 0.31063 0.85676 0.28036 0.0
C861 C 0.27903 0.86119 0.30854 0.0
C862 C 0.27679 0.87015 0.33022 0.0
C863 C 0.3087 0.86554 0.30201 0.0
C864 C 0.30492 0.88345 0.34535 0.0
C865 C 0.33464 0.8878 0.33897 0.0
H866 H 0.09342 0.46392 0.31181 0.0
H867 H 0.18808 0.54269 0.33849 0.0
H868 H 0.20137 0.50516 0.35499 0.0
H869 H 0.18689 0.44975 0.36071 0.0
H870 H 0.09293 0.37095 0.33282 0.0
H871 H 0.07865 0.40869 0.31792 0.0
C872 C 0.11707 0.47284 0.32107 0.0
C873 C 0.13974 0.50603 0.32385 0.0
C874 C 0.12465 0.45113 0.33037 0.0
C875 C 0.17005 0.51727 0.33626 0.0
C876 C 0.17773 0.49582 0.34564 0.0
C877 C 0.16314 0.44088 0.3516 0.0
C878 C 0.14101 0.40761 0.34792 0.0
C879 C 0.15527 0.46269 0.34274 0.0
C880 C 0.11045 0.39646 0.33588 0.0
C881 C 0.10227 0.41801 0.3273 0.0
H882 H 0.37744 0.48976 0.33949 0.0
H883 H 0.34471 0.45717 0.27131 0.0
H884 H 0.28859 0.42223 0.28016 0.0
H885 H 0.24971 0.3989 0.30771 0.0
H886 H 0.28375 0.43124 0.37601 0.0
H887 H 0.33839 0.46826 0.36671 0.0
C888 C 0.35794 0.47503 0.32661 0.0
C889 C 0.36504 0.47551 0.30486 0.0
C890 C 0.32605 0.45489 0.33186 0.0
C891 C 0.33964 0.45675 0.28821 0.0
C892 C 0.30767 0.43684 0.29327 0.0
C893 C 0.26899 0.41428 0.32052 0.0
C894 C 0.2626 0.4121 0.34252 0.0
C895 C 0.30067 0.43538 0.3151 0.0
C896 C 0.28797 0.43214 0.35894 0.0
C897 C 0.3193 0.4534 0.35367 0.0
H898 H 0.53069 0.87158 0.28659 0.0
H899 H 0.50777 0.8802 0.35224 0.0
H900 H 0.54472 0.86202 0.36594 0.0
H901 H 0.58558 0.84647 0.35962 0.0
H902 H 0.60888 0.83733 0.29404 0.0
H903 H 0.56965 0.85264 0.27995 0.0
C904 C 0.53364 0.86911 0.30384 0.0
C905 C 0.51671 0.87735 0.31841 0.0
C906 C 0.55509 0.85873 0.31163 0.0
C907 C 0.52061 0.87408 0.34073 0.0
C908 C 0.54178 0.86376 0.34858 0.0
C909 C 0.58207 0.84769 0.34221 0.0
C910 C 0.60046 0.84101 0.32796 0.0
C911 C 0.55951 0.8565 0.33423 0.0
C912 C 0.59516 0.84237 0.30542 0.0
C913 C 0.57276 0.85121 0.29734 0.0
H914 H 0.10086 0.64376 0.31448 0.0
H915 H 0.15662 0.65292 0.37522 0.0
H916 H 0.17658 0.71069 0.37993 0.0
H917 H 0.17875 0.75827 0.36654 0.0
H918 H 0.12306 0.74986 0.30578 0.0
H919 H 0.10227 0.69189 0.3013 0.0
C920 C 0.11702 0.65848 0.32886 0.0
C921 C 0.12679 0.64428 0.34475 0.0
C922 C 0.12849 0.69163 0.33135 0.0
C923 C 0.14837 0.66344 0.36306 0.0
C924 C 0.15986 0.69638 0.36567 0.0
C925 C 0.16214 0.74386 0.35224 0.0
C926 C 0.15263 0.75842 0.33644 0.0
C927 C 0.1502 0.71071 0.34987 0.0
C928 C 0.1308 0.73925 0.31817 0.0
C929 C 0.11891 0.70613 0.3156 0.0
H930 H 0.81137 0.03389 0.34897 0.0
H931 H 0.81752 0.03796 0.41921 0.0
H932 H 0.77864 0.98002 0.41697 0.0
H933 H 0.74345 0.92828 0.39492 0.0
H934 H 0.73679 0.92474 0.32451 0.0
H935 H 0.77521 0.98239 0.32693 0.0
C936 C 0.80413 0.02202 0.36374 0.0
C937 C 0.81734 0.03989 0.38423 0.0
C938 C 0.78171 0.98887 0.36229 0.0
C939 C 0.80768 0.02443 0.40329 0.0
C940 C 0.78551 0.99141 0.402 0.0
C941 C 0.75037 0.9401 0.3801 0.0
C942 C 0.73726 0.92212 0.35958 0.0
C943 C 0.77245 0.97336 0.38157 0.0
C944 C 0.74642 0.93792 0.34054 0.0
C945 C 0.76846 0.97093 0.34188 0.0
H946 H 0.98524 0.82227 0.3674 0.0
H947 H 0.99652 0.78267 0.42608 0.0
H948 H 0.05236 0.79706 0.41906 0.0
H949 H 0.09708 0.81878 0.39515 0.0
H950 H 0.08473 0.85805 0.3363 0.0
H951 H 0.03048 0.8459 0.34445 0.0
C952 C 1.00004 0.81696 0.37868 0.0
C953 C 0.98676 0.80109 0.39708 0.0
C954 C 0.03192 0.82506 0.37442 0.0
C955 C 1.00625 0.79465 0.41172 0.0
C956 C 0.0381 0.80281 0.40767 0.0
C957 C 0.08257 0.82475 0.38413 0.0
C958 C 0.09513 0.83914 0.36504 0.0
C959 C 0.05107 0.81763 0.38888 0.0
C960 C 0.0759 0.84687 0.35107 0.0
C961 C 0.04473 0.83994 0.3557 0.0
H962 H 0.23717 0.19888 0.35463 0.0
H963 H 0.2439 0.21158 0.42487 0.0
H964 H 0.22637 0.25138 0.42275 0.0
H965 H 0.20836 0.28182 0.40084 0.0
H966 H 0.20295 0.26995 0.33047 0.0
H967 H 0.22081 0.23065 0.33272 0.0
C968 C 0.23481 0.21045 0.36943 0.0
C969 C 0.24142 0.20221 0.38987 0.0
C970 C 0.22496 0.23338 0.36806 0.0
C971 C 0.23864 0.2175 0.40898 0.0
C972 C 0.22864 0.24019 0.40776 0.0
C973 C 0.21108 0.27065 0.38599 0.0
C974 C 0.20421 0.27877 0.36553 0.0
C975 C 0.22156 0.24818 0.38738 0.0
C976 C 0.20811 0.26421 0.34646 0.0
C977 C 0.21828 0.24167 0.3477 0.0
H978 H 0.64924 0.50426 0.71131 0.0
H979 H 0.68381 0.54081 0.77911 0.0
H980 H 0.73277 0.5862 0.76834 0.0
H981 H 0.76544 0.61607 0.7399 0.0
H982 H 0.73456 0.57777 0.67234 0.0
H983 H 0.68462 0.53204 0.68283 0.0
C984 C 0.66767 0.5218 0.72379 0.0
C985 C 0.66234 0.51925 0.74601 0.0
C986 C 0.69639 0.54755 0.71753 0.0
C987 C 0.68659 0.54252 0.76186 0.0
C988 C 0.71481 0.56843 0.75574 0.0
C989 C 0.74774 0.59774 0.72746 0.0
C990 C 0.75332 0.6004 0.70538 0.0
C991 C 0.71976 0.57135 0.73365 0.0
C992 C 0.73061 0.5762 0.68944 0.0
C993 C 0.70212 0.55014 0.69544 0.0
H994 H 0.48198 0.09243 0.75093 0.0
H995 H 0.55944 0.18678 0.74004 0.0
H996 H 0.5196 0.19726 0.7206 0.0
H997 H 0.46212 0.18082 0.70879 0.0
H998 H 0.38497 0.08739 0.72168 0.0
H999 H 0.42527 0.07546 0.73831 0.0
C1000 C 0.49017 0.1154 0.74446 0.0
C1001 C 0.52362 0.13889 0.74716 0.0
C1002 C 0.46714 0.12145 0.73364 0.0
C1003 C 0.53385 0.16819 0.73813 0.0
C1004 C 0.51106 0.17427 0.7271 0.0
C1005 C 0.45423 0.15769 0.71495 0.0
C1006 C 0.42061 0.13505 0.71403 0.0
C1007 C 0.47757 0.15121 0.72498 0.0
C1008 C 0.4107 0.1053 0.72229 0.0
C1009 C 0.43372 0.09845 0.73183 0.0
H1010 H 0.92909 0.38554 0.74934 0.0
H1011 H 0.85072 0.38147 0.70698 0.0
H1012 H 0.83857 0.3296 0.68924 0.0
H1013 H 0.84897 0.28453 0.6867 0.0
H1014 H 0.92635 0.28824 0.73011 0.0
H1015 H 0.93978 0.34093 0.74664 0.0
C1016 C 0.90917 0.37318 0.73635 0.0
C1017 C 0.89076 0.38727 0.72957 0.0
C1018 C 0.90205 0.34325 0.72644 0.0
C1019 C 0.86547 0.37128 0.71238 0.0
C1020 C 0.85838 0.34153 0.70231 0.0
C1021 C 0.86889 0.29693 0.69969 0.0
C1022 C 0.88654 0.28237 0.70715 0.0
C1023 C 0.87637 0.3272 0.70931 0.0
C1024 C 0.91222 0.29877 0.72407 0.0
C1025 C 0.91997 0.32895 0.73356 0.0
H1026 H 0.19633 0.99188 0.61076 0.0
H1027 H 0.17241 0.94307 0.66934 0.0
H1028 H 0.21413 0.99213 0.6911 0.0
H1029 H 0.25925 0.04871 0.69338 0.0
H1030 H 0.28629 0.0947 0.63402 0.0
H1031 H 0.24211 0.04673 0.61269 0.0
C1032 C 0.20047 0.99161 0.62822 0.0
C1033 C 0.18108 0.96356 0.63825 0.0
C1034 C 0.2253 0.01949 0.64056 0.0
C1035 C 0.18645 0.96431 0.66108 0.0
C1036 C 0.21057 0.99234 0.67358 0.0
C1037 C 0.25527 0.04812 0.67579 0.0
C1038 C 0.27591 0.07507 0.66525 0.0
C1039 C 0.2303 0.02005 0.66349 0.0
C1040 C 0.27082 0.07408 0.64245 0.0
C1041 C 0.24553 0.04672 0.63025 0.0
H1042 H 0.05393 0.25559 0.63036 0.0
H1043 H 0.03894 0.16288 0.64457 0.0
H1044 H 0.99112 0.1527 0.66317 0.0
H1045 H 0.95132 0.16889 0.67339 0.0
H1046 H 0.96567 0.26068 0.65723 0.0
H1047 H 0.01575 0.27236 0.64141 0.0
C1048 C 0.04009 0.23304 0.63738 0.0
C1049 C 0.04988 0.20994 0.63586 0.0
C1050 C 0.01241 0.22716 0.64775 0.0
C1051 C 0.03209 0.18118 0.64557 0.0
C1052 C 1.00462 0.17527 0.65614 0.0
C1053 C 0.96575 0.19162 0.66671 0.0
C1054 C 0.95478 0.21385 0.66645 0.0
C1055 C 0.99431 0.19795 0.65713 0.0
C1056 C 0.97349 0.24308 0.65751 0.0
C1057 C 1.00212 0.24978 0.64842 0.0
H1058 H 0.77142 0.79869 0.62949 0.0
H1059 H 0.85819 0.87769 0.66565 0.0
H1060 H 0.86875 0.83989 0.68421 0.0
H1061 H 0.85472 0.78447 0.68905 0.0
H1062 H 0.76993 0.70556 0.65119 0.0
H1063 H 0.75748 0.74332 0.63422 0.0
C1064 C 0.79285 0.80769 0.64125 0.0
C1065 C 0.81399 0.84102 0.6461 0.0
C1066 C 0.79916 0.78584 0.65156 0.0
C1067 C 0.84125 0.85218 0.66177 0.0
C1068 C 0.84744 0.83058 0.67231 0.0
C1069 C 0.83331 0.77552 0.67727 0.0
C1070 C 0.81322 0.74229 0.67145 0.0
C1071 C 0.82667 0.79737 0.66724 0.0
C1072 C 0.78582 0.73107 0.65594 0.0
C1073 C 0.77869 0.75263 0.64621 0.0
H1074 H 0.05062 0.82651 0.68011 0.0
H1075 H 0.01818 0.80415 0.61122 0.0
H1076 H 0.96189 0.76814 0.61912 0.0
H1077 H 0.92258 0.74183 0.64562 0.0
H1078 H 0.95551 0.76327 0.71465 0.0
H1079 H 1.01098 0.80094 0.70669 0.0
C1080 C 0.03114 0.81381 0.66688 0.0
C1081 C 0.0383 0.81783 0.64513 0.0
C1082 C 0.99905 0.79301 0.67157 0.0
C1083 C 0.013 0.8013 0.62807 0.0
C1084 C 0.98094 0.78077 0.63259 0.0
C1085 C 0.94181 0.75488 0.65896 0.0
C1086 C 0.93485 0.74965 0.6807 0.0
C1087 C 0.97374 0.77626 0.65428 0.0
C1088 C 0.96015 0.76673 0.69775 0.0
C1089 C 0.99192 0.78829 0.69323 0.0
H1090 H 0.19595 0.21415 0.6803 0.0
H1091 H 0.21448 0.22069 0.61279 0.0
H1092 H 0.255 0.20373 0.61946 0.0
H1093 H 0.28668 0.18911 0.64515 0.0
H1094 H 0.26791 0.18407 0.7129 0.0
H1095 H 0.22613 0.19834 0.70548 0.0
C1096 C 0.20884 0.21176 0.66707 0.0
C1097 C 0.20264 0.21887 0.64617 0.0
C1098 C 0.23218 0.20241 0.6711 0.0
C1099 C 0.21919 0.21546 0.62906 0.0
C1100 C 0.2423 0.20583 0.63288 0.0
C1101 C 0.27334 0.19101 0.65823 0.0
C1102 C 0.28073 0.18578 0.67957 0.0
C1103 C 0.24928 0.19956 0.65393 0.0
C1104 C 0.26311 0.1883 0.69634 0.0
C1105 C 0.23906 0.1964 0.69215 0.0
H1106 H 0.80336 0.98924 0.62883 0.0
H1107 H 0.78983 0.97127 0.69618 0.0
H1108 H 0.80646 0.02755 0.70594 0.0
H1109 H 0.82528 0.08149 0.69544 0.0
H1110 H 0.84004 0.10062 0.62823 0.0
H1111 H 0.82264 0.04411 0.61825 0.0
C1112 C 0.80411 0.99784 0.64561 0.0
C1113 C 0.79552 0.97641 0.66181 0.0
C1114 C 0.81395 0.03025 0.65109 0.0
C1115 C 0.79641 0.98747 0.6835 0.0
C1116 C 0.80592 0.01957 0.68906 0.0
C1117 C 0.82468 0.07343 0.67856 0.0
C1118 C 0.8339 0.09528 0.66259 0.0
C1119 C 0.81482 0.04113 0.673 0.0
C1120 C 0.83309 0.08431 0.64085 0.0
C1121 C 0.82311 0.05202 0.63513 0.0
H1122 H 0.51265 0.36114 0.74931 0.0
H1123 H 0.52513 0.36424 0.68062 0.0
H1124 H 0.48159 0.30821 0.67326 0.0
H1125 H 0.43861 0.25968 0.68583 0.0
H1126 H 0.42479 0.25455 0.75426 0.0
H1127 H 0.47079 0.31006 0.76243 0.0
C1128 C 0.50609 0.34924 0.73283 0.0
C1129 C 0.52228 0.36655 0.71553 0.0
C1130 C 0.48086 0.31692 0.72871 0.0
C1131 C 0.51328 0.35124 0.69418 0.0
C1132 C 0.48834 0.31929 0.68996 0.0
C1133 C 0.44557 0.27063 0.70259 0.0
C1134 C 0.42803 0.25332 0.71941 0.0
C1135 C 0.47174 0.30213 0.70703 0.0
C1136 C 0.43788 0.26753 0.74106 0.0
C1137 C 0.46405 0.29924 0.74567 0.0
H1138 H 0.65406 0.13031 0.70286 0.0
H1139 H 0.68626 0.13948 0.77118 0.0
H1140 H 0.74251 0.15867 0.76258 0.0
H1141 H 0.78187 0.17065 0.73529 0.0
H1142 H 0.74842 0.15995 0.66683 0.0
H1143 H 0.69342 0.1436 0.67583 0.0
C1144 C 0.67348 0.13673 0.71585 0.0
C1145 C 0.66624 0.13358 0.7376 0.0
C1146 C 0.70547 0.1473 0.71074 0.0
C1147 C 0.69149 0.14186 0.75432 0.0
C1148 C 0.72353 0.15272 0.74939 0.0
C1149 C 0.7626 0.16493 0.72235 0.0
C1150 C 0.76935 0.16641 0.70041 0.0
C1151 C 0.73075 0.15523 0.72761 0.0
C1152 C 0.744 0.15884 0.68386 0.0
C1153 C 0.71245 0.1495 0.68897 0.0
H1154 H 0.91301 0.55268 0.74627 0.0
H1155 H 0.92786 0.53856 0.6793 0.0
H1156 H 0.90921 0.5755 0.66879 0.0
H1157 H 0.88643 0.60977 0.67852 0.0
H1158 H 0.8696 0.62209 0.74549 0.0
H1159 H 0.89105 0.58767 0.75612 0.0
C1160 C 0.91241 0.55806 0.72944 0.0
C1161 C 0.92183 0.54322 0.71357 0.0
C1162 C 0.90102 0.57864 0.72351 0.0
C1163 C 0.92083 0.54994 0.69176 0.0
C1164 C 0.91005 0.57089 0.68576 0.0
C1165 C 0.88751 0.60502 0.69546 0.0
C1166 C 0.87631 0.61844 0.71115 0.0
C1167 C 0.89968 0.58504 0.70147 0.0
C1168 C 0.8779 0.61198 0.73303 0.0
C1169 C 0.89024 0.59236 0.73916 0.0
H1170 H 0.49836 0.94097 0.24212 0.0
H1171 H 0.39741 0.88383 0.21475 0.0
H1172 H 0.41195 0.90638 0.17993 0.0
H1173 H 0.45326 0.94286 0.15732 0.0
H1174 H 0.55443 0.99877 0.18448 0.0
H1175 H 0.53985 0.97608 0.21921 0.0
C1176 C 0.47957 0.93314 0.22848 0.0
C1177 C 0.44681 0.91075 0.23114 0.0
C1178 C 0.48812 0.94608 0.20843 0.0
C1179 C 0.42274 0.90134 0.21332 0.0
C1180 C 0.43107 0.9141 0.19333 0.0
C1181 C 0.4722 0.94982 0.17074 0.0
C1182 C 0.5049 0.97263 0.16824 0.0
C1183 C 0.46367 0.93655 0.19071 0.0
C1184 C 0.52899 0.98167 0.18599 0.0
C1185 C 0.52071 0.96856 0.20585 0.0
H1186 H 0.12041 0.52003 0.24634 0.0
H1187 H 0.05625 0.55098 0.2707 0.0
H1188 H 0.02833 0.54105 0.23407 0.0
H1189 H 0.02264 0.52455 0.19516 0.0
H1190 H 0.08557 0.49234 0.17038 0.0
H1191 H 0.11368 0.50208 0.2071 0.0
C1192 C 0.1001 0.52427 0.24362 0.0
C1193 C 0.09052 0.53637 0.26119 0.0
C1194 C 0.0841 0.51851 0.22246 0.0
C1195 C 0.0644 0.5421 0.2574 0.0
C1196 C 0.04833 0.53632 0.23648 0.0
C1197 C 0.04223 0.51925 0.1978 0.0
C1198 C 0.05186 0.50759 0.18005 0.0
C1199 C 0.05807 0.52468 0.2189 0.0
C1200 C 0.07784 0.5016 0.18372 0.0
C1201 C 0.0938 0.50698 0.20473 0.0
H1202 H 0.43677 0.54194 0.21794 0.0
H1203 H 0.53156 0.5693 0.25071 0.0
H1204 H 0.54962 0.5606 0.21615 0.0
H1205 H 0.53858 0.54521 0.17671 0.0
H1206 H 0.44341 0.51629 0.14388 0.0
H1207 H 0.42548 0.52581 0.17835 0.0
C1208 C 0.46127 0.54574 0.21752 0.0
C1209 C 0.48281 0.55636 0.23684 0.0
C1210 C 0.47149 0.54057 0.19759 0.0
C1211 C 0.51465 0.56157 0.236 0.0
C1212 C 0.52496 0.55645 0.21628 0.0
C1213 C 0.51382 0.54072 0.17712 0.0
C1214 C 0.49239 0.53004 0.15776 0.0
C1215 C 0.5036 0.54596 0.19699 0.0
C1216 C 0.46056 0.5249 0.15851 0.0
C1217 C 0.4502 0.53013 0.17823 0.0
H1218 H 0.96074 0.50739 0.79763 0.0
H1219 H 0.87794 0.41425 0.8047 0.0
H1220 H 0.8925 0.42254 0.84421 0.0
H1221 H 0.93079 0.45458 0.8763 0.0
H1222 H 0.01456 0.54708 0.86937 0.0
H1223 H 0.99746 0.54091 0.83023 0.0
C1224 C 0.94564 0.48916 0.80789 0.0
C1225 C 0.91843 0.46018 0.7983 0.0
C1226 C 0.95439 0.49393 0.83056 0.0
C1227 C 0.89926 0.43657 0.81172 0.0
C1228 C 0.9075 0.44134 0.83429 0.0
C1229 C 0.94492 0.47369 0.86631 0.0
C1230 C 0.97383 0.50127 0.87569 0.0
C1231 C 0.93528 0.4697 0.84384 0.0
C1232 C 0.99229 0.52555 0.86246 0.0
C1233 C 0.98253 0.52203 0.84012 0.0
H1234 H 0.563 0.43775 0.81025 0.0
H1235 H 0.58076 0.5269 0.78628 0.0
H1236 H 0.55866 0.53865 0.81795 0.0
H1237 H 0.53542 0.52409 0.85283 0.0
H1238 H 0.51694 0.43451 0.87642 0.0
H1239 H 0.53805 0.42233 0.84441 0.0
C1240 C 0.56166 0.45957 0.81183 0.0
C1241 C 0.57357 0.48145 0.796 0.0
C1242 C 0.54889 0.46612 0.83001 0.0
C1243 C 0.57215 0.50986 0.79842 0.0
C1244 C 0.55937 0.51652 0.81644 0.0
C1245 C 0.53564 0.50172 0.85081 0.0
C1246 C 0.52472 0.48028 0.86698 0.0
C1247 C 0.54782 0.49489 0.83239 0.0
C1248 C 0.52559 0.4516 0.86432 0.0
C1249 C 0.53752 0.44455 0.84599 0.0
H1250 H 0.53071 0.11838 0.82431 0.0
H1251 H 0.57059 0.06082 0.80037 0.0
H1252 H 0.55403 0.02943 0.83163 0.0
H1253 H 0.52778 0.01788 0.86554 0.0
H1254 H 0.48701 0.07459 0.88943 0.0
H1255 H 0.5043 0.10672 0.85842 0.0
C1256 C 0.5356 0.09885 0.82589 0.0
C1257 C 0.55194 0.09204 0.81004 0.0
C1258 C 0.52582 0.08072 0.84387 0.0
C1259 C 0.55849 0.06691 0.81248 0.0
C1260 C 0.54882 0.04878 0.83028 0.0
C1261 C 0.52238 0.03706 0.86384 0.0
C1262 C 0.50596 0.0437 0.87969 0.0
C1263 C 0.53238 0.05539 0.84602 0.0
C1264 C 0.49979 0.06911 0.87752 0.0
C1265 C 0.50956 0.08741 0.85975 0.0
H1266 H 0.13295 0.22467 0.55615 0.0
H1267 H 0.10198 0.28753 0.58459 0.0
H1268 H 0.11599 0.31809 0.55279 0.0
H1269 H 0.13921 0.32837 0.51755 0.0
H1270 H 0.17265 0.26694 0.49022 0.0
H1271 H 0.15573 0.23465 0.521 0.0
C1272 C 0.12939 0.24515 0.55547 0.0
C1273 C 0.11653 0.2538 0.57282 0.0
C1274 C 0.13811 0.26302 0.53736 0.0
C1275 C 0.11146 0.28003 0.57139 0.0
C1276 C 0.11975 0.29773 0.55329 0.0
C1277 C 0.143 0.30805 0.51842 0.0
C1278 C 0.15722 0.30015 0.50158 0.0
C1279 C 0.13348 0.2897 0.5363 0.0
C1280 C 0.16143 0.27338 0.50279 0.0
C1281 C 0.15191 0.25497 0.52045 0.0
H1282 H 0.74176 0.88861 0.58402 0.0
H1283 H 0.80628 0.85366 0.56739 0.0
H1284 H 0.78187 0.84065 0.52939 0.0
H1285 H 0.74189 0.83899 0.50101 0.0
H1286 H 0.67904 0.87596 0.5178 0.0
H1287 H 0.70335 0.88861 0.55567 0.0
C1288 C 0.75085 0.87857 0.57204 0.0
C1289 C 0.7759 0.87225 0.57853 0.0
C1290 C 0.73695 0.87145 0.55028 0.0
C1291 C 0.78681 0.8585 0.56288 0.0
C1292 C 0.77299 0.85122 0.54113 0.0
C1293 C 0.73378 0.85015 0.51291 0.0
C1294 C 0.70858 0.85638 0.50659 0.0
C1295 C 0.74803 0.85758 0.53466 0.0
C1296 C 0.69803 0.87043 0.52229 0.0
C1297 C 0.71203 0.87785 0.54392 0.0
H1298 H 0.19282 0.90401 0.57662 0.0
H1299 H 0.09303 0.87504 0.55389 0.0
H1300 H 0.102 0.86323 0.51678 0.0
H1301 H 0.13834 0.86145 0.49071 0.0
H1302 H 0.23864 0.89229 0.5134 0.0
H1303 H 0.22932 0.9032 0.55054 0.0
C1304 C 0.17311 0.89544 0.56352 0.0
C1305 C 0.14232 0.8905 0.56807 0.0
C1306 C 0.17852 0.88901 0.54219 0.0
C1307 C 0.11688 0.87872 0.55093 0.0
C1308 C 0.12204 0.87216 0.52966 0.0
C1309 C 0.15824 0.87086 0.50374 0.0
C1310 C 0.18911 0.87595 0.49924 0.0
C1311 C 0.15279 0.87729 0.52509 0.0
C1312 C 0.2145 0.8877 0.51642 0.0
C1313 C 0.20926 0.89413 0.53766 0.0
H1314 H 0.6573 0.79051 0.12202 0.0
H1315 H 0.58498 0.81889 0.12855 0.0
H1316 H 0.60368 0.83521 0.16747 0.0
H1317 H 0.63825 0.83804 0.20004 0.0
H1318 H 0.70844 0.80674 0.19337 0.0
H1319 H 0.69324 0.79544 0.15409 0.0
C1320 C 0.64559 0.80021 0.13199 0.0
C1321 C 0.6196 0.80317 0.12252 0.0
C1322 C 0.65617 0.80913 0.15432 0.0
C1323 C 0.60513 0.81647 0.13548 0.0
C1324 C 0.6157 0.82565 0.15774 0.0
C1325 C 0.65025 0.8288 0.18998 0.0
C1326 C 0.67441 0.82322 0.1997 0.0
C1327 C 0.64084 0.82158 0.16739 0.0
C1328 C 0.69011 0.81174 0.18636 0.0
C1329 C 0.6812 0.80493 0.16388 0.0
H1330 H 0.19988 0.7906 0.12574 0.0
H1331 H 0.29986 0.8325 0.15433 0.0
H1332 H 0.2851 0.84558 0.18906 0.0
H1333 H 0.24392 0.84548 0.21125 0.0
H1334 H 0.14379 0.80314 0.18289 0.0
H1335 H 0.15847 0.78984 0.14815 0.0
C1336 C 0.21836 0.80234 0.13964 0.0
C1337 C 0.25092 0.81059 0.13743 0.0
C1338 C 0.2097 0.80977 0.15958 0.0
C1339 C 0.2747 0.82623 0.1555 0.0
C1340 C 0.26625 0.83357 0.17541 0.0
C1341 C 0.22524 0.83303 0.19753 0.0
C1342 C 0.1928 0.82526 0.19968 0.0
C1343 C 0.23384 0.82549 0.17762 0.0
C1344 C 0.169 0.80966 0.18162 0.0
C1345 C 0.17734 0.80193 0.16177 0.0
H1346 H 0.21799 0.38914 0.1397 0.0
H1347 H 0.20914 0.46972 0.16384 0.0
H1348 H 0.1993 0.44944 0.19967 0.0
H1349 H 0.18972 0.40722 0.22338 0.0
H1350 H 0.19622 0.32518 0.19935 0.0
H1351 H 0.21029 0.3474 0.16425 0.0
C1352 C 0.21433 0.40236 0.15295 0.0
C1353 C 0.21421 0.43081 0.14921 0.0
C1354 C 0.20796 0.39015 0.17343 0.0
C1355 C 0.20912 0.44765 0.16637 0.0
C1356 C 0.20349 0.43608 0.18682 0.0
C1357 C 0.19476 0.39444 0.2106 0.0
C1358 C 0.19201 0.36464 0.214 0.0
C1359 C 0.20236 0.40712 0.19044 0.0
C1360 C 0.19795 0.34807 0.19709 0.0
C1361 C 0.20608 0.36081 0.17704 0.0
H1362 H 0.76322 0.61641 0.90646 0.0
H1363 H 0.78467 0.54273 0.88548 0.0
H1364 H 0.80308 0.56804 0.85194 0.0
H1365 H 0.81452 0.61194 0.82906 0.0
H1366 H 0.79161 0.68473 0.84973 0.0
H1367 H 0.77232 0.65885 0.88288 0.0
C1368 C 0.77144 0.60557 0.89441 0.0
C1369 C 0.77255 0.57769 0.89853 0.0
C1370 C 0.78195 0.62021 0.87515 0.0
C1371 C 0.78388 0.56437 0.88287 0.0
C1372 C 0.79431 0.57876 0.86364 0.0
C1373 C 0.80492 0.62194 0.84066 0.0
C1374 C 0.80472 0.65039 0.83689 0.0
C1375 C 0.79366 0.60682 0.85968 0.0
C1376 C 0.79261 0.6632 0.85233 0.0
C1377 C 0.78136 0.6483 0.87125 0.0
H1378 H 0.40353 0.20818 0.92732 0.0
H1379 H 0.47551 0.18179 0.91336 0.0
H1380 H 0.45366 0.16828 0.87484 0.0
H1381 H 0.41327 0.16288 0.8453 0.0
H1382 H 0.34176 0.1899 0.85935 0.0
H1383 H 0.36431 0.20432 0.89767 0.0
C1384 C 0.41471 0.19988 0.91579 0.0
C1385 C 0.4411 0.19601 0.92318 0.0
C1386 C 0.402 0.19212 0.89372 0.0
C1387 C 0.45496 0.18467 0.90811 0.0
C1388 C 0.44256 0.17706 0.88608 0.0
C1389 C 0.40286 0.17224 0.85671 0.0
C1390 C 0.3758 0.17518 0.84949 0.0
C1391 C 0.41597 0.18052 0.87873 0.0
C1392 C 0.3623 0.18696 0.86455 0.0
C1393 C 0.37528 0.19538 0.88643 0.0
H1394 H 0.85927 0.22621 0.91005 0.0
H1395 H 0.75696 0.18639 0.88811 0.0
H1396 H 0.76637 0.17308 0.85142 0.0
H1397 H 0.80433 0.17512 0.8251 0.0
H1398 H 0.90696 0.21703 0.84719 0.0
H1399 H 0.89676 0.22736 0.88417 0.0
C1400 C 0.83901 0.21472 0.89723 0.0
C1401 C 0.8075 0.20758 0.90183 0.0
C1402 C 0.8447 0.20767 0.87612 0.0
C1403 C 0.78142 0.19197 0.88511 0.0
C1404 C 0.78684 0.1846 0.86406 0.0
C1405 C 0.82448 0.18667 0.83798 0.0
C1406 C 0.85639 0.19528 0.8333 0.0
C1407 C 0.81849 0.19277 0.85929 0.0
C1408 C 0.88211 0.20978 0.85031 0.0
C1409 C 0.87634 0.21586 0.87148 0.0
H1410 H 0.3114 0.12367 0.46826 0.0
H1411 H 0.24403 0.15671 0.48076 0.0
H1412 H 0.26705 0.17225 0.51906 0.0
H1413 H 0.30496 0.17448 0.54927 0.0
H1414 H 0.37125 0.14008 0.53669 0.0
H1415 H 0.3499 0.12689 0.49814 0.0
C1416 C 0.30168 0.13417 0.4794 0.0
C1417 C 0.27592 0.13884 0.47174 0.0
C1418 C 0.31475 0.14268 0.50137 0.0
C1419 C 0.26403 0.15309 0.48623 0.0
C1420 C 0.27701 0.16176 0.50815 0.0
C1421 C 0.31458 0.16394 0.53808 0.0
C1422 C 0.33957 0.15817 0.54582 0.0
C1423 C 0.30211 0.15631 0.51595 0.0
C1424 C 0.35221 0.14502 0.53109 0.0
C1425 C 0.33993 0.13734 0.50908 0.0
H1426 H 0.85497 0.14064 0.45468 0.0
H1427 H 0.95839 0.18248 0.47384 0.0
H1428 H 0.9512 0.19739 0.51074 0.0
H1429 H 0.9153 0.19787 0.53775 0.0
H1430 H 0.81171 0.15476 0.51853 0.0
H1431 H 0.81922 0.14093 0.48154 0.0
C1432 C 0.87592 0.1528 0.46697 0.0
C1433 C 0.90715 0.16034 0.46148 0.0
C1434 C 0.87158 0.16109 0.48817 0.0
C1435 C 0.93412 0.17667 0.47753 0.0
C1436 C 0.93 0.18502 0.49868 0.0
C1437 C 0.89435 0.18526 0.5255 0.0
C1438 C 0.863 0.17745 0.53093 0.0
C1439 C 0.89881 0.17724 0.50422 0.0
C1440 C 0.83618 0.16147 0.51475 0.0
C1441 C 0.84041 0.15338 0.49361 0.0
H1442 H 0.86703 0.78516 0.49373 0.0
H1443 H 0.90556 0.72872 0.46564 0.0
H1444 H 0.89652 0.70008 0.49834 0.0
H1445 H 0.87636 0.69018 0.53458 0.0
H1446 H 0.83574 0.74534 0.56169 0.0
H1447 H 0.84676 0.7752 0.52964 0.0
C1448 C 0.87321 0.7664 0.49465 0.0
C1449 C 0.88678 0.75901 0.47716 0.0
C1450 C 0.86752 0.74975 0.51333 0.0
C1451 C 0.89535 0.73513 0.4789 0.0
C1452 C 0.88997 0.71857 0.49754 0.0
C1453 C 0.86967 0.70855 0.5334 0.0
C1454 C 0.85524 0.71547 0.55058 0.0
C1455 C 0.87582 0.72551 0.51479 0.0
C1456 C 0.84725 0.73976 0.54889 0.0
C1457 C 0.85337 0.75675 0.5305 0.0
loop_
_geom_bond_atom_site_label_1
_geom_bond_atom_site_label_2
_geom_bond_distance
_geom_bond_site_symmetry_2
_ccdc_geom_bond_type
H0 C7 0.929 . S
H1 C10 0.930 . S
H2 C12 0.929 . S
H3 C4 0.969 . S
C4 H3 0.969 . S
C4 O5 1.550 . S
C4 H6 0.973 . S
O5 C4 1.550 . S
O5 C11 1.412 . S
H6 C4 0.973 . S
C7 H0 0.929 . S
C7 C8 1.400 . S
C7 C9 1.364 . S
C8 C7 1.400 . S
C8 C12 1.377 . S
C9 C7 1.364 . S
C9 C10 1.374 . S
C10 H1 0.930 . S
C10 C9 1.374 . S
C10 C11 1.383 . S
C11 O5 1.412 . S
C11 C10 1.383 . S
C11 C12 1.394 . S
C12 H2 0.929 . S
C12 C8 1.377 . S
C12 C11 1.394 . S
H13 C20 0.929 . S
H14 C23 0.930 . S
H15 C25 0.929 . S
H16 C17 0.969 . S
C17 H16 0.969 . S
C17 O18 1.550 . S
C17 H19 0.973 . S
O18 C17 1.550 . S
O18 C24 1.412 . S
H19 C17 0.973 . S
C20 H13 0.929 . S
C20 C21 1.400 . S
C20 C22 1.364 . S
C21 C20 1.400 . S
C21 C25 1.377 . S
C22 C20 1.364 . S
C22 C23 1.374 . S
C23 H14 0.930 . S
C23 C22 1.374 . S
C23 C24 1.383 . S
C24 O18 1.412 . S
C24 C23 1.383 . S
C24 C25 1.394 . S
C25 H15 0.929 . S
C25 C21 1.377 . S
C25 C24 1.394 . S
H26 C33 0.929 . S
H27 C36 0.930 . S
H28 C38 0.929 . S
H29 C30 0.969 . S
C30 H29 0.969 . S
C30 O31 1.550 . S
C30 H32 0.973 . S
O31 C30 1.550 . S
O31 C37 1.412 . S
H32 C30 0.973 . S
C33 H26 0.929 . S
C33 C34 1.400 . S
C33 C35 1.364 . S
C34 C33 1.400 . S
C34 C38 1.377 . S
C35 C33 1.364 . S
C35 C36 1.374 . S
C36 H27 0.930 . S
C36 C35 1.374 . S
C36 C37 1.383 . S
C37 O31 1.412 . S
C37 C36 1.383 . S
C37 C38 1.394 . S
C38 H28 0.929 . S
C38 C34 1.377 . S
C38 C37 1.394 . S
H39 C46 0.929 . S
H40 C49 0.930 . S
H41 C51 0.929 . S
H42 C43 0.969 . S
C43 H42 0.969 . S
C43 O44 1.550 . S
C43 H45 0.973 . S
O44 C43 1.550 . S
O44 C50 1.412 . S
H45 C43 0.973 . S
C46 H39 0.929 . S
C46 C47 1.400 . S
C46 C48 1.364 . S
C47 C46 1.400 . S
C47 C51 1.377 . S
C48 C46 1.364 . S
C48 C49 1.374 . S
C49 H40 0.930 . S
C49 C48 1.374 . S
C49 C50 1.383 . S
C50 O44 1.412 . S
C50 C49 1.383 . S
C50 C51 1.394 . S
C51 H41 0.929 . S
C51 C47 1.377 . S
C51 C50 1.394 . S
H52 C59 0.929 . S
H53 C62 0.930 . S
H54 C64 0.929 . S
H55 C56 0.969 . S
C56 H55 0.969 . S
C56 O57 1.550 . S
C56 H58 0.973 . S
O57 C56 1.550 . S
O57 C63 1.412 . S
H58 C56 0.973 . S
C59 H52 0.929 . S
C59 C60 1.400 . S
C59 C61 1.364 . S
C60 C59 1.400 . S
C60 C64 1.377 . S
C61 C59 1.364 . S
C61 C62 1.374 . S
C62 H53 0.930 . S
C62 C61 1.374 . S
C62 C63 1.383 . S
C63 O57 1.412 . S
C63 C62 1.383 . S
C63 C64 1.394 . S
C64 H54 0.929 . S
C64 C60 1.377 . S
C64 C63 1.394 . S
H65 C72 0.929 . S
H66 C75 0.930 . S
H67 C77 0.929 . S
H68 C69 0.969 . S
C69 H68 0.969 . S
C69 O70 1.550 . S
C69 H71 0.973 . S
O70 C69 1.550 . S
O70 C76 1.412 . S
H71 C69 0.973 . S
C72 H65 0.929 . S
C72 C73 1.400 . S
C72 C74 1.364 . S
C73 C72 1.400 . S
C73 C77 1.377 . S
C74 C72 1.364 . S
C74 C75 1.374 . S
C75 H66 0.930 . S
C75 C74 1.374 . S
C75 C76 1.383 . S
C76 O70 1.412 . S
C76 C75 1.383 . S
C76 C77 1.394 . S
C77 H67 0.929 . S
C77 C73 1.377 . S
C77 C76 1.394 . S
H78 C85 0.929 . S
H79 C88 0.930 . S
H80 C90 0.929 . S
H81 C82 0.969 . S
C82 H81 0.969 . S
C82 O83 1.550 . S
C82 H84 0.973 . S
O83 C82 1.550 . S
O83 C89 1.412 . S
H84 C82 0.973 . S
C85 H78 0.929 . S
C85 C86 1.400 . S
C85 C87 1.364 . S
C86 C85 1.400 . S
C86 C90 1.377 . S
C87 C85 1.364 . S
C87 C88 1.374 . S
C88 H79 0.930 . S
C88 C87 1.374 . S
C88 C89 1.383 . S
C89 O83 1.412 . S
C89 C88 1.383 . S
C89 C90 1.394 . S
C90 H80 0.929 . S
C90 C86 1.377 . S
C90 C89 1.394 . S
H91 C98 0.929 . S
H92 C101 0.930 . S
H93 C103 0.929 . S
H94 C95 0.969 . S
C95 H94 0.969 . S
C95 O96 1.550 . S
C95 H97 0.973 . S
O96 C95 1.550 . S
O96 C102 1.412 . S
H97 C95 0.973 . S
C98 H91 0.929 . S
C98 C99 1.400 . S
C98 C100 1.364 . S
C99 C98 1.400 . S
C99 C103 1.377 . S
C100 C98 1.364 . S
C100 C101 1.374 . S
C101 H92 0.930 . S
C101 C100 1.374 . S
C101 C102 1.383 . S
C102 O96 1.412 . S
C102 C101 1.383 . S
C102 C103 1.394 . S
C103 H93 0.929 . S
C103 C99 1.377 . S
C103 C102 1.394 . S
H104 C111 0.929 . S
H105 C114 0.930 . S
H106 C116 0.929 . S
H107 C108 0.969 . S
C108 H107 0.969 . S
C108 O109 1.550 . S
C108 H110 0.973 . S
O109 C108 1.550 . S
O109 C115 1.412 . S
H110 C108 0.973 . S
C111 H104 0.929 . S
C111 C112 1.400 . S
C111 C113 1.364 . S
C112 C111 1.400 . S
C112 C116 1.377 . S
C113 C111 1.364 . S
C113 C114 1.374 . S
C114 H105 0.930 . S
C114 C113 1.374 . S
C114 C115 1.383 . S
C115 O109 1.412 . S
C115 C114 1.383 . S
C115 C116 1.394 . S
C116 H106 0.929 . S
C116 C112 1.377 . S
C116 C115 1.394 . S
H117 C124 0.929 . S
H118 C127 0.930 . S
H119 C129 0.929 . S
H120 C121 0.969 . S
C121 H120 0.969 . S
C121 O122 1.550 . S
C121 H123 0.973 . S
O122 C121 1.550 . S
O122 C128 1.412 . S
H123 C121 0.973 . S
C124 H117 0.929 . S
C124 C125 1.400 . S
C124 C126 1.364 . S
C125 C124 1.400 . S
C125 C129 1.377 . S
C126 C124 1.364 . S
C126 C127 1.374 . S
C127 H118 0.930 . S
C127 C126 1.374 . S
C127 C128 1.383 . S
C128 O122 1.412 . S
C128 C127 1.383 . S
C128 C129 1.394 . S
C129 H119 0.929 . S
C129 C125 1.377 . S
C129 C128 1.394 . S
H130 C137 0.929 . S
H131 C140 0.930 . S
H132 C142 0.933 1_554 S
H133 C134 0.969 . S
C134 H133 0.969 . S
C134 O135 1.550 . S
C134 H136 0.973 . S
O135 C134 1.550 . S
O135 C141 1.412 . S
H136 C134 0.973 . S
C137 H130 0.929 . S
C137 C138 1.400 . S
C137 C139 1.364 . S
C138 C137 1.400 . S
C138 C142 1.377 . S
C139 C137 1.364 . S
C139 C140 1.374 . S
C140 H131 0.930 . S
C140 C139 1.374 . S
C140 C141 1.383 . S
C141 O135 1.412 . S
C141 C140 1.383 . S
C141 C142 1.394 . S
C142 H132 0.933 1_556 S
C142 C138 1.377 . S
C142 C141 1.394 . S
H143 C150 0.929 . S
H144 C153 0.930 . S
H145 C155 0.929 . S
H146 C147 0.969 . S
C147 H146 0.969 . S
C147 O148 1.550 . S
C147 H149 0.973 . S
O148 C147 1.550 . S
O148 C154 1.412 . S
H149 C147 0.973 . S
C150 H143 0.929 . S
C150 C151 1.400 . S
C150 C152 1.364 . S
C151 C150 1.400 . S
C151 C155 1.377 . S
C152 C150 1.364 . S
C152 C153 1.374 . S
C153 H144 0.930 . S
C153 C152 1.374 . S
C153 C154 1.383 . S
C154 O148 1.412 . S
C154 C153 1.383 . S
C154 C155 1.394 . S
C155 H145 0.929 . S
C155 C151 1.377 . S
C155 C154 1.394 . S
H156 C163 0.929 . S
H157 C166 0.930 . S
H158 C168 0.929 . S
H159 C160 0.969 . S
C160 H159 0.969 . S
C160 O161 1.550 . S
C160 H162 0.973 . S
O161 C160 1.550 . S
O161 C167 1.412 . S
H162 C160 0.973 . S
C163 H156 0.929 . S
C163 C164 1.400 . S
C163 C165 1.364 . S
C164 C163 1.400 . S
C164 C168 1.377 . S
C165 C163 1.364 . S
C165 C166 1.374 . S
C166 H157 0.930 . S
C166 C165 1.374 . S
C166 C167 1.383 . S
C167 O161 1.412 . S
C167 C166 1.383 . S
C167 C168 1.394 . S
C168 H158 0.929 . S
C168 C164 1.377 . S
C168 C167 1.394 . S
H169 C176 0.929 . S
H170 C179 0.930 . S
H171 C181 0.929 . S
H172 C173 0.969 . S
C173 H172 0.969 . S
C173 O174 1.550 . S
C173 H175 0.973 . S
O174 C173 1.550 . S
O174 C180 1.412 . S
H175 C173 0.973 . S
C176 H169 0.929 . S
C176 C177 1.400 . S
C176 C178 1.364 . S
C177 C176 1.400 . S
C177 C181 1.377 . S
C178 C176 1.364 . S
C178 C179 1.374 . S
C179 H170 0.930 . S
C179 C178 1.374 . S
C179 C180 1.383 . S
C180 O174 1.412 . S
C180 C179 1.383 . S
C180 C181 1.394 . S
C181 H171 0.929 . S
C181 C177 1.377 . S
C181 C180 1.394 . S
H182 C189 0.929 . S
H183 C192 0.930 . S
H184 C194 0.929 . S
H185 C186 0.969 . S
C186 H185 0.969 . S
C186 O187 1.550 . S
C186 H188 0.973 . S
O187 C186 1.550 . S
O187 C193 1.412 . S
H188 C186 0.973 . S
C189 H182 0.929 . S
C189 C190 1.400 . S
C189 C191 1.364 . S
C190 C189 1.400 . S
C190 C194 1.377 . S
C191 C189 1.364 . S
C191 C192 1.374 . S
C192 H183 0.930 . S
C192 C191 1.374 . S
C192 C193 1.383 . S
C193 O187 1.412 . S
C193 C192 1.383 . S
C193 C194 1.394 . S
C194 H184 0.929 . S
C194 C190 1.377 . S
C194 C193 1.394 . S
H195 C202 0.929 . S
H196 C205 0.930 . S
H197 C207 0.929 . S
H198 C199 0.969 . S
C199 H198 0.969 . S
C199 O200 1.550 . S
C199 H201 0.973 . S
O200 C199 1.550 . S
O200 C206 1.412 . S
H201 C199 0.973 . S
C202 H195 0.929 . S
C202 C203 1.400 . S
C202 C204 1.364 . S
C203 C202 1.400 . S
C203 C207 1.377 . S
C204 C202 1.364 . S
C204 C205 1.374 . S
C205 H196 0.930 . S
C205 C204 1.374 . S
C205 C206 1.383 . S
C206 O200 1.412 . S
C206 C205 1.383 . S
C206 C207 1.394 . S
C207 H197 0.929 . S
C207 C203 1.377 . S
C207 C206 1.394 . S
H208 C215 0.929 . S
H209 C218 0.930 . S
H210 C220 0.929 . S
H211 C212 0.969 . S
C212 H211 0.969 . S
C212 O213 1.550 . S
C212 H214 0.973 . S
O213 C212 1.550 . S
O213 C219 1.412 . S
H214 C212 0.973 . S
C215 H208 0.929 . S
C215 C216 1.400 . S
C215 C217 1.364 . S
C216 C215 1.400 . S
C216 C220 1.377 . S
C217 C215 1.364 . S
C217 C218 1.374 . S
C218 H209 0.930 . S
C218 C217 1.374 . S
C218 C219 1.383 . S
C219 O213 1.412 . S
C219 C218 1.383 . S
C219 C220 1.394 . S
C220 H210 0.929 . S
C220 C216 1.377 . S
C220 C219 1.394 . S
H221 C228 0.929 . S
H222 C231 0.930 . S
H223 C233 0.929 . S
H224 C225 0.969 . S
C225 H224 0.969 . S
C225 O226 1.550 . S
C225 H227 0.973 . S
O226 C225 1.550 . S
O226 C232 1.412 . S
H227 C225 0.973 . S
C228 H221 0.929 . S
C228 C229 1.400 . S
C228 C230 1.364 . S
C229 C228 1.400 . S
C229 C233 1.377 . S
C230 C228 1.364 . S
C230 C231 1.374 . S
C231 H222 0.930 . S
C231 C230 1.374 . S
C231 C232 1.383 . S
C232 O226 1.412 . S
C232 C231 1.383 . S
C232 C233 1.394 . S
C233 H223 0.929 . S
C233 C229 1.377 . S
C233 C232 1.394 . S
Tb234 C244 2.825 1_565 S
Tb234 O245 2.347 1_565 S
Tb234 O248 2.366 1_565 S
Tb234 O253 2.418 . S
Tb234 O254 2.384 . S
Tb234 O257 2.479 . S
Tb234 O258 2.471 1_565 S
Eu235 O246 2.418 . S
Eu235 O247 2.384 . S
Eu235 O250 2.479 . S
Eu235 O251 2.471 1_545 S
Eu235 O252 2.347 1_545 S
Eu235 O255 2.366 1_545 S
Eu235 C265 2.825 . S
C236 O252 1.259 . S
C236 O253 1.265 1_554 S
C237 O254 1.255 1_554 S
C237 O255 1.265 . S
C238 C240 1.380 1_545 S
C238 C241 1.374 . S
C238 C244 1.507 . S
C239 C240 1.384 1_545 S
C239 C243 1.387 . S
C239 H266 0.930 1_545 S
C240 C238 1.380 1_565 S
C240 C239 1.384 1_565 S
C240 H267 0.931 . S
C241 C238 1.374 . S
C241 C242 1.390 . S
C241 H268 0.930 . S
C242 C241 1.390 . S
C242 C243 1.391 . S
C242 H269 0.930 . S
C243 C239 1.387 . S
C243 C242 1.391 . S
C244 Tb234 2.825 1_545 S
C244 C238 1.507 . S
C244 O257 1.238 1_545 S
C244 O258 1.247 . S
O245 Tb234 2.347 1_545 S
O245 C249 1.259 1_556 S
O246 Eu235 2.418 . S
O246 C249 1.265 . S
O247 Eu235 2.384 . S
O247 C256 1.255 1_554 S
O248 Tb234 2.366 1_545 S
O248 C256 1.265 . S
C249 O245 1.259 1_554 S
C249 O246 1.265 . S
O250 Eu235 2.479 . S
O250 C265 1.238 . S
O251 Eu235 2.471 1_565 S
O251 C265 1.247 1_565 S
O252 Eu235 2.347 1_565 S
O252 C236 1.259 . S
O253 Tb234 2.418 . S
O253 C236 1.265 1_556 S
O254 Tb234 2.384 . S
O254 C237 1.255 1_556 S
O255 Eu235 2.366 1_565 S
O255 C237 1.265 . S
C256 O247 1.255 1_556 S
C256 O248 1.265 . S
O257 Tb234 2.479 . S
O257 C244 1.238 1_565 S
O258 Tb234 2.471 1_545 S
O258 C244 1.247 . S
C259 C262 1.380 1_565 S
C259 C263 1.374 . S
C259 C265 1.507 1_565 S
C260 C261 1.387 1_565 S
C260 C264 1.391 . S
C261 C260 1.387 1_545 S
C261 C262 1.384 . S
C261 H270 0.930 . S
C262 C259 1.380 1_545 S
C262 C261 1.384 . S
C262 H271 0.931 . S
C263 C259 1.374 . S
C263 C264 1.390 . S
C263 H272 0.930 . S
C264 C260 1.391 . S
C264 C263 1.390 . S
C264 H273 0.930 . S
C265 Eu235 2.825 . S
C265 O250 1.238 . S
C265 O251 1.247 1_545 S
C265 C259 1.507 1_545 S
H266 C239 0.930 1_565 S
H267 C240 0.931 . S
H268 C241 0.930 . S
H269 C242 0.930 . S
H270 C261 0.930 . S
H271 C262 0.931 . S
H272 C263 0.930 . S
H273 C264 0.930 . S
Tb274 C284 2.824 1_455 S
Tb274 O285 2.347 1_455 S
Tb274 O288 2.366 1_455 S
Tb274 O293 2.418 . S
Tb274 O294 2.384 1_556 S
Tb274 O297 2.479 . S
Tb274 O298 2.471 1_455 S
Eu275 O286 2.418 . S
Eu275 O287 2.384 . S
Eu275 O290 2.479 . S
Eu275 O291 2.471 1_655 S
Eu275 O292 2.347 1_655 S
Eu275 O295 2.366 1_655 S
Eu275 C305 2.825 1_655 S
C276 O292 1.259 . S
C276 O293 1.265 1_554 S
C277 O294 1.255 . S
C277 O295 1.265 . S
C278 C280 1.380 1_655 S
C278 C281 1.374 . S
C278 C284 1.508 . S
C279 C280 1.384 1_655 S
C279 C283 1.387 . S
C279 H306 0.930 1_655 S
C280 C278 1.380 1_455 S
C280 C279 1.384 1_455 S
C280 H307 0.931 . S
C281 C278 1.374 . S
C281 C282 1.390 . S
C281 H308 0.930 . S
C282 C281 1.390 . S
C282 C283 1.391 . S
C282 H309 0.930 . S
C283 C279 1.387 . S
C283 C282 1.391 . S
C284 Tb274 2.824 1_655 S
C284 C278 1.508 . S
C284 O297 1.236 1_655 S
C284 O298 1.248 . S
O285 Tb274 2.347 1_655 S
O285 C289 1.250 1_556 S
O286 Eu275 2.418 . S
O286 C289 1.282 . S
O287 Eu275 2.384 . S
O287 C296 1.255 1_554 S
O288 Tb274 2.366 1_655 S
O288 C296 1.265 . S
C289 O285 1.250 1_554 S
C289 O286 1.282 . S
O290 Eu275 2.479 . S
O290 C305 1.238 1_655 S
O291 Eu275 2.471 1_455 S
O291 C305 1.247 . S
O292 Eu275 2.347 1_455 S
O292 C276 1.259 . S
O293 Tb274 2.418 . S
O293 C276 1.265 1_556 S
O294 Tb274 2.384 1_554 S
O294 C277 1.255 . S
O295 Eu275 2.366 1_455 S
O295 C277 1.265 . S
C296 O287 1.255 1_556 S
C296 O288 1.265 . S
O297 Tb274 2.479 . S
O297 C284 1.236 1_455 S
O298 Tb274 2.471 1_655 S
O298 C284 1.248 . S
C299 C302 1.371 1_455 S
C299 C303 1.374 . S
C299 C305 1.507 . S
C300 C301 1.387 . S
C300 C304 1.391 . S
C301 C300 1.387 . S
C301 C302 1.374 1_455 S
C301 H310 0.930 1_455 S
C302 C299 1.371 1_655 S
C302 C301 1.374 1_655 S
C302 H311 0.951 . S
C303 C299 1.374 . S
C303 C304 1.390 . S
C303 H312 0.930 . S
C304 C300 1.391 . S
C304 C303 1.390 . S
C304 H313 0.930 . S
C305 Eu275 2.825 1_455 S
C305 O290 1.238 1_455 S
C305 O291 1.247 . S
C305 C299 1.507 . S
H306 C279 0.930 1_455 S
H307 C280 0.931 . S
H308 C281 0.930 . S
H309 C282 0.930 . S
H310 C301 0.930 1_655 S
H311 C302 0.951 . S
H312 C303 0.930 . S
H313 C304 0.930 . S
Tb314 C324 2.825 . S
Tb314 O325 2.347 . S
Tb314 O328 2.366 . S
Tb314 O333 2.418 . S
Tb314 O334 2.384 . S
Tb314 O337 2.479 . S
Tb314 O338 2.471 . S
Eu315 O326 2.418 . S
Eu315 O327 2.384 1_556 S
Eu315 O330 2.479 . S
Eu315 O331 2.471 . S
Eu315 O332 2.347 . S
Eu315 O335 2.366 . S
Eu315 C345 2.825 . S
C316 O332 1.259 1_554 S
C316 O333 1.265 . S
C317 O334 1.255 1_556 S
C317 O335 1.265 . S
C318 C320 1.380 . S
C318 C321 1.374 . S
C318 C324 1.507 . S
C319 C320 1.384 . S
C319 C323 1.387 . S
C319 H346 0.930 . S
C320 C318 1.380 . S
C320 C319 1.384 . S
C320 H347 0.931 . S
C321 C318 1.374 . S
C321 C322 1.390 . S
C321 H348 0.930 . S
C322 C321 1.390 . S
C322 C323 1.391 . S
C322 H349 0.930 . S
C323 C319 1.387 . S
C323 C322 1.391 . S
C324 Tb314 2.825 . S
C324 C318 1.507 . S
C324 O337 1.238 . S
C324 O338 1.247 . S
O325 Tb314 2.347 . S
O325 C329 1.259 . S
O326 Eu315 2.418 . S
O326 C329 1.265 1_556 S
O327 Eu315 2.384 1_554 S
O327 C336 1.255 . S
O328 Tb314 2.366 . S
O328 C336 1.265 . S
C329 O325 1.259 . S
C329 O326 1.265 1_554 S
O330 Eu315 2.479 . S
O330 C345 1.238 . S
O331 Eu315 2.471 . S
O331 C345 1.247 . S
O332 Eu315 2.347 . S
O332 C316 1.259 1_556 S
O333 Tb314 2.418 . S
O333 C316 1.265 . S
O334 Tb314 2.384 . S
O334 C317 1.255 1_554 S
O335 Eu315 2.366 . S
O335 C317 1.265 . S
C336 O327 1.255 . S
C336 O328 1.265 . S
O337 Tb314 2.479 . S
O337 C324 1.238 . S
O338 Tb314 2.471 . S
O338 C324 1.247 . S
C339 C342 1.380 . S
C339 C343 1.374 . S
C339 C345 1.507 . S
C340 C341 1.387 . S
C340 C344 1.391 . S
C341 C340 1.387 . S
C341 C342 1.384 . S
C341 H350 0.930 . S
C342 C339 1.380 . S
C342 C341 1.384 . S
C342 H351 0.931 . S
C343 C339 1.374 . S
C343 C344 1.390 . S
C343 H352 0.930 . S
C344 C340 1.391 . S
C344 C343 1.390 . S
C344 H353 0.930 . S
C345 Eu315 2.825 . S
C345 O330 1.238 . S
C345 O331 1.247 . S
C345 C339 1.507 . S
H346 C319 0.930 . S
H347 C320 0.931 . S
H348 C321 0.930 . S
H349 C322 0.930 . S
H350 C341 0.930 . S
H351 C342 0.931 . S
H352 C343 0.930 . S
H353 C344 0.930 . S
Tb354 C364 2.825 . S
Tb354 O365 2.347 . S
Tb354 O368 2.366 . S
Tb354 O373 2.418 . S
Tb354 O374 2.384 . S
Tb354 O377 2.479 . S
Tb354 O378 2.471 . S
Eu355 O366 2.418 . S
Eu355 O367 2.384 . S
Eu355 O370 2.479 . S
Eu355 O371 2.471 . S
Eu355 O372 2.347 . S
Eu355 O375 2.366 . S
Eu355 C385 2.825 . S
C356 O372 1.259 . S
C356 O373 1.265 . S
C357 O374 1.255 . S
C357 O375 1.265 . S
C358 C360 1.380 . S
C358 C361 1.374 . S
C358 C364 1.507 . S
C359 C360 1.384 . S
C359 C363 1.387 . S
C359 H386 0.930 . S
C360 C358 1.380 . S
C360 C359 1.384 . S
C360 H387 0.931 . S
C361 C358 1.374 . S
C361 C362 1.390 . S
C361 H388 0.930 . S
C362 C361 1.390 . S
C362 C363 1.391 . S
C362 H389 0.930 . S
C363 C359 1.387 . S
C363 C362 1.391 . S
C364 Tb354 2.825 . S
C364 C358 1.507 . S
C364 O377 1.238 . S
C364 O378 1.247 . S
O365 Tb354 2.347 . S
O365 C369 1.259 . S
O366 Eu355 2.418 . S
O366 C369 1.265 . S
O367 Eu355 2.384 . S
O367 C376 1.255 . S
O368 Tb354 2.366 . S
O368 C376 1.265 . S
C369 O365 1.259 . S
C369 O366 1.265 . S
O370 Eu355 2.479 . S
O370 C385 1.238 . S
O371 Eu355 2.471 . S
O371 C385 1.247 . S
O372 Eu355 2.347 . S
O372 C356 1.259 . S
O373 Tb354 2.418 . S
O373 C356 1.265 . S
O374 Tb354 2.384 . S
O374 C357 1.255 . S
O375 Eu355 2.366 . S
O375 C357 1.265 . S
C376 O367 1.255 . S
C376 O368 1.265 . S
O377 Tb354 2.479 . S
O377 C364 1.238 . S
O378 Tb354 2.471 . S
O378 C364 1.247 . S
C379 C382 1.380 . S
C379 C383 1.374 . S
C379 C385 1.507 . S
C380 C381 1.387 . S
C380 C384 1.391 . S
C381 C380 1.387 . S
C381 C382 1.384 . S
C381 H390 0.930 . S
C382 C379 1.380 . S
C382 C381 1.384 . S
C382 H391 0.931 . S
C383 C379 1.374 . S
C383 C384 1.390 . S
C383 H392 0.930 . S
C384 C380 1.391 . S
C384 C383 1.390 . S
C384 H393 0.930 . S
C385 Eu355 2.825 . S
C385 O370 1.238 . S
C385 O371 1.247 . S
C385 C379 1.507 . S
H386 C359 0.930 . S
H387 C360 0.931 . S
H388 C361 0.930 . S
H389 C362 0.930 . S
H390 C381 0.930 . S
H391 C382 0.931 . S
H392 C383 0.930 . S
H393 C384 0.930 . S
Tb394 C404 2.825 . S
Tb394 O405 2.347 . S
Tb394 O408 2.366 . S
Tb394 O413 2.418 . S
Tb394 O414 2.384 . S
Tb394 O417 2.479 . S
Tb394 O418 2.471 . S
Eu395 O406 2.418 . S
Eu395 O407 2.384 . S
Eu395 O410 2.479 . S
Eu395 O411 2.471 . S
Eu395 O412 2.347 . S
Eu395 O415 2.366 . S
Eu395 C425 2.825 . S
C396 O412 1.259 . S
C396 O413 1.265 . S
C397 O414 1.255 . S
C397 O415 1.265 . S
C398 C400 1.380 . S
C398 C401 1.374 . S
C398 C404 1.507 . S
C399 C400 1.384 . S
C399 C403 1.387 . S
C399 H426 0.930 . S
C400 C398 1.380 . S
C400 C399 1.384 . S
C400 H427 0.931 . S
C401 C398 1.374 . S
C401 C402 1.390 . S
C401 H428 0.930 . S
C402 C401 1.390 . S
C402 C403 1.391 . S
C402 H429 0.930 . S
C403 C399 1.387 . S
C403 C402 1.391 . S
C404 Tb394 2.825 . S
C404 C398 1.507 . S
C404 O417 1.238 . S
C404 O418 1.247 . S
O405 Tb394 2.347 . S
O405 C409 1.259 . S
O406 Eu395 2.418 . S
O406 C409 1.265 . S
O407 Eu395 2.384 . S
O407 C416 1.255 . S
O408 Tb394 2.366 . S
O408 C416 1.265 . S
C409 O405 1.259 . S
C409 O406 1.265 . S
O410 Eu395 2.479 . S
O410 C425 1.238 . S
O411 Eu395 2.471 . S
O411 C425 1.247 . S
O412 Eu395 2.347 . S
O412 C396 1.259 . S
O413 Tb394 2.418 . S
O413 C396 1.265 . S
O414 Tb394 2.384 . S
O414 C397 1.255 . S
O415 Eu395 2.366 . S
O415 C397 1.265 . S
C416 O407 1.255 . S
C416 O408 1.265 . S
O417 Tb394 2.479 . S
O417 C404 1.238 . S
O418 Tb394 2.471 . S
O418 C404 1.247 . S
C419 C422 1.380 . S
C419 C423 1.374 . S
C419 C425 1.507 . S
C420 C421 1.387 . S
C420 C424 1.391 . S
C421 C420 1.387 . S
C421 C422 1.384 . S
C421 H430 0.930 . S
C422 C419 1.380 . S
C422 C421 1.384 . S
C422 H431 0.931 . S
C423 C419 1.374 . S
C423 C424 1.390 . S
C423 H432 0.930 . S
C424 C420 1.391 . S
C424 C423 1.390 . S
C424 H433 0.930 . S
C425 Eu395 2.825 . S
C425 O410 1.238 . S
C425 O411 1.247 . S
C425 C419 1.507 . S
H426 C399 0.930 . S
H427 C400 0.931 . S
H428 C401 0.930 . S
H429 C402 0.930 . S
H430 C421 0.930 . S
H431 C422 0.931 . S
H432 C423 0.930 . S
H433 C424 0.930 . S
Tb434 C444 2.825 . S
Tb434 O445 2.347 . S
Tb434 O448 2.366 . S
Tb434 O453 2.418 . S
Tb434 O454 2.384 . S
Tb434 O457 2.479 . S
Tb434 O458 2.471 . S
Eu435 O446 2.418 . S
Eu435 O447 2.384 . S
Eu435 O450 2.479 . S
Eu435 O451 2.471 . S
Eu435 O452 2.347 . S
Eu435 O455 2.366 . S
Eu435 C465 2.825 . S
C436 O452 1.259 . S
C436 O453 1.265 . S
C437 O454 1.255 . S
C437 O455 1.265 . S
C438 C440 1.380 . S
C438 C441 1.374 . S
C438 C444 1.507 . S
C439 C440 1.384 . S
C439 C443 1.387 . S
C439 H466 0.930 . S
C440 C438 1.380 . S
C440 C439 1.384 . S
C440 H467 0.931 . S
C441 C438 1.374 . S
C441 C442 1.390 . S
C441 H468 0.930 . S
C442 C441 1.390 . S
C442 C443 1.391 . S
C442 H469 0.930 . S
C443 C439 1.387 . S
C443 C442 1.391 . S
C444 Tb434 2.825 . S
C444 C438 1.507 . S
C444 O457 1.238 . S
C444 O458 1.247 . S
O445 Tb434 2.347 . S
O445 C449 1.259 . S
O446 Eu435 2.418 . S
O446 C449 1.265 . S
O447 Eu435 2.384 . S
O447 C456 1.255 . S
O448 Tb434 2.366 . S
O448 C456 1.265 . S
C449 O445 1.259 . S
C449 O446 1.265 . S
O450 Eu435 2.479 . S
O450 C465 1.238 . S
O451 Eu435 2.471 . S
O451 C465 1.247 . S
O452 Eu435 2.347 . S
O452 C436 1.259 . S
O453 Tb434 2.418 . S
O453 C436 1.265 . S
O454 Tb434 2.384 . S
O454 C437 1.255 . S
O455 Eu435 2.366 . S
O455 C437 1.265 . S
C456 O447 1.255 . S
C456 O448 1.265 . S
O457 Tb434 2.479 . S
O457 C444 1.238 . S
O458 Tb434 2.471 . S
O458 C444 1.247 . S
C459 C462 1.380 . S
C459 C463 1.374 . S
C459 C465 1.507 . S
C460 C461 1.387 . S
C460 C464 1.391 . S
C461 C460 1.387 . S
C461 C462 1.384 . S
C461 H470 0.930 . S
C462 C459 1.380 . S
C462 C461 1.384 . S
C462 H471 0.931 . S
C463 C459 1.374 . S
C463 C464 1.390 . S
C463 H472 0.930 . S
C464 C460 1.391 . S
C464 C463 1.390 . S
C464 H473 0.930 . S
C465 Eu435 2.825 . S
C465 O450 1.238 . S
C465 O451 1.247 . S
C465 C459 1.507 . S
H466 C439 0.930 . S
H467 C440 0.931 . S
H468 C441 0.930 . S
H469 C442 0.930 . S
H470 C461 0.930 . S
H471 C462 0.931 . S
H472 C463 0.930 . S
H473 C464 0.930 . S
Tb474 C484 2.825 . S
Tb474 O485 2.347 . S
Tb474 O488 2.366 . S
Tb474 O493 2.418 . S
Tb474 O494 2.384 . S
Tb474 O497 2.479 . S
Tb474 O498 2.471 . S
Eu475 O486 2.418 . S
Eu475 O487 2.384 . S
Eu475 O490 2.479 . S
Eu475 O491 2.471 . S
Eu475 O492 2.347 . S
Eu475 O495 2.366 . S
Eu475 C505 2.825 . S
C476 O492 1.259 . S
C476 O493 1.265 . S
C477 O494 1.255 . S
C477 O495 1.265 . S
C478 C480 1.380 . S
C478 C481 1.374 . S
C478 C484 1.507 . S
C479 C480 1.384 . S
C479 C483 1.387 . S
C479 H506 0.930 . S
C480 C478 1.380 . S
C480 C479 1.384 . S
C480 H507 0.931 . S
C481 C478 1.374 . S
C481 C482 1.390 . S
C481 H508 0.930 . S
C482 C481 1.390 . S
C482 C483 1.391 . S
C482 H509 0.930 . S
C483 C479 1.387 . S
C483 C482 1.391 . S
C484 Tb474 2.825 . S
C484 C478 1.507 . S
C484 O497 1.238 . S
C484 O498 1.247 . S
O485 Tb474 2.347 . S
O485 C489 1.259 . S
O486 Eu475 2.418 . S
O486 C489 1.265 . S
O487 Eu475 2.384 . S
O487 C496 1.255 . S
O488 Tb474 2.366 . S
O488 C496 1.265 . S
C489 O485 1.259 . S
C489 O486 1.265 . S
O490 Eu475 2.479 . S
O490 C505 1.238 . S
O491 Eu475 2.471 . S
O491 C505 1.247 . S
O492 Eu475 2.347 . S
O492 C476 1.259 . S
O493 Tb474 2.418 . S
O493 C476 1.265 . S
O494 Tb474 2.384 . S
O494 C477 1.255 . S
O495 Eu475 2.366 . S
O495 C477 1.265 . S
C496 O487 1.255 . S
C496 O488 1.265 . S
O497 Tb474 2.479 . S
O497 C484 1.238 . S
O498 Tb474 2.471 . S
O498 C484 1.247 . S
C499 C502 1.380 . S
C499 C503 1.374 . S
C499 C505 1.507 . S
C500 C501 1.387 . S
C500 C504 1.391 . S
C501 C500 1.387 . S
C501 C502 1.384 . S
C501 H510 0.930 . S
C502 C499 1.380 . S
C502 C501 1.384 . S
C502 H511 0.931 . S
C503 C499 1.374 . S
C503 C504 1.390 . S
C503 H512 0.930 . S
C504 C500 1.391 . S
C504 C503 1.390 . S
C504 H513 0.930 . S
C505 Eu475 2.825 . S
C505 O490 1.238 . S
C505 O491 1.247 . S
C505 C499 1.507 . S
H506 C479 0.930 . S
H507 C480 0.931 . S
H508 C481 0.930 . S
H509 C482 0.930 . S
H510 C501 0.930 . S
H511 C502 0.931 . S
H512 C503 0.930 . S
H513 C504 0.930 . S
Tb514 C524 2.825 . S
Tb514 O525 2.347 . S
Tb514 O528 2.366 . S
Tb514 O533 2.418 . S
Tb514 O534 2.384 . S
Tb514 O537 2.479 . S
Tb514 O538 2.471 . S
Eu515 O526 2.418 . S
Eu515 O527 2.384 . S
Eu515 O530 2.479 . S
Eu515 O531 2.471 . S
Eu515 O532 2.347 . S
Eu515 O535 2.366 . S
Eu515 C545 2.825 . S
C516 O532 1.259 . S
C516 O533 1.265 . S
C517 O534 1.255 . S
C517 O535 1.265 . S
C518 C520 1.380 . S
C518 C521 1.374 . S
C518 C524 1.507 . S
C519 C520 1.384 . S
C519 C523 1.387 . S
C519 H546 0.930 . S
C520 C518 1.380 . S
C520 C519 1.384 . S
C520 H547 0.931 . S
C521 C518 1.374 . S
C521 C522 1.390 . S
C521 H548 0.930 . S
C522 C521 1.390 . S
C522 C523 1.391 . S
C522 H549 0.930 . S
C523 C519 1.387 . S
C523 C522 1.391 . S
C524 Tb514 2.825 . S
C524 C518 1.507 . S
C524 O537 1.238 . S
C524 O538 1.247 . S
O525 Tb514 2.347 . S
O525 C529 1.259 . S
O526 Eu515 2.418 . S
O526 C529 1.265 . S
O527 Eu515 2.384 . S
O527 C536 1.255 . S
O528 Tb514 2.366 . S
O528 C536 1.265 . S
C529 O525 1.259 . S
C529 O526 1.265 . S
O530 Eu515 2.479 . S
O530 C545 1.238 . S
O531 Eu515 2.471 . S
O531 C545 1.247 . S
O532 Eu515 2.347 . S
O532 C516 1.259 . S
O533 Tb514 2.418 . S
O533 C516 1.265 . S
O534 Tb514 2.384 . S
O534 C517 1.255 . S
O535 Eu515 2.366 . S
O535 C517 1.265 . S
C536 O527 1.255 . S
C536 O528 1.265 . S
O537 Tb514 2.479 . S
O537 C524 1.238 . S
O538 Tb514 2.471 . S
O538 C524 1.247 . S
C539 C542 1.380 . S
C539 C543 1.374 . S
C539 C545 1.507 . S
C540 C541 1.387 . S
C540 C544 1.391 . S
C541 C540 1.387 . S
C541 C542 1.384 . S
C541 H550 0.930 . S
C542 C539 1.380 . S
C542 C541 1.384 . S
C542 H551 0.931 . S
C543 C539 1.374 . S
C543 C544 1.390 . S
C543 H552 0.930 . S
C544 C540 1.391 . S
C544 C543 1.390 . S
C544 H553 0.930 . S
C545 Eu515 2.825 . S
C545 O530 1.238 . S
C545 O531 1.247 . S
C545 C539 1.507 . S
H546 C519 0.930 . S
H547 C520 0.931 . S
H548 C521 0.930 . S
H549 C522 0.930 . S
H550 C541 0.930 . S
H551 C542 0.931 . S
H552 C543 0.930 . S
H553 C544 0.930 . S
Tb554 C564 2.825 . S
Tb554 O565 2.347 . S
Tb554 O568 2.366 . S
Tb554 O573 2.418 . S
Tb554 O574 2.384 . S
Tb554 O577 2.479 . S
Tb554 O578 2.471 . S
Eu555 O566 2.418 . S
Eu555 O567 2.384 . S
Eu555 O570 2.479 . S
Eu555 O571 2.471 . S
Eu555 O572 2.347 . S
Eu555 O575 2.366 . S
Eu555 C585 2.825 . S
C556 O572 1.259 . S
C556 O573 1.265 . S
C557 O574 1.255 . S
C557 O575 1.265 . S
C558 C560 1.380 . S
C558 C561 1.374 . S
C558 C564 1.507 . S
C559 C560 1.384 . S
C559 C563 1.387 . S
C559 H586 0.930 . S
C560 C558 1.380 . S
C560 C559 1.384 . S
C560 H587 0.931 . S
C561 C558 1.374 . S
C561 C562 1.390 . S
C561 H588 0.930 . S
C562 C561 1.390 . S
C562 C563 1.391 . S
C562 H589 0.930 . S
C563 C559 1.387 . S
C563 C562 1.391 . S
C564 Tb554 2.825 . S
C564 C558 1.507 . S
C564 O577 1.238 . S
C564 O578 1.247 . S
O565 Tb554 2.347 . S
O565 C569 1.259 . S
O566 Eu555 2.418 . S
O566 C569 1.265 . S
O567 Eu555 2.384 . S
O567 C576 1.255 . S
O568 Tb554 2.366 . S
O568 C576 1.265 . S
C569 O565 1.259 . S
C569 O566 1.265 . S
O570 Eu555 2.479 . S
O570 C585 1.238 . S
O571 Eu555 2.471 . S
O571 C585 1.247 . S
O572 Eu555 2.347 . S
O572 C556 1.259 . S
O573 Tb554 2.418 . S
O573 C556 1.265 . S
O574 Tb554 2.384 . S
O574 C557 1.255 . S
O575 Eu555 2.366 . S
O575 C557 1.265 . S
C576 O567 1.255 . S
C576 O568 1.265 . S
O577 Tb554 2.479 . S
O577 C564 1.238 . S
O578 Tb554 2.471 . S
O578 C564 1.247 . S
C579 C582 1.380 . S
C579 C583 1.374 . S
C579 C585 1.507 . S
C580 C581 1.387 . S
C580 C584 1.391 . S
C581 C580 1.387 . S
C581 C582 1.384 . S
C581 H590 0.930 . S
C582 C579 1.380 . S
C582 C581 1.384 . S
C582 H591 0.931 . S
C583 C579 1.374 . S
C583 C584 1.390 . S
C583 H592 0.930 . S
C584 C580 1.391 . S
C584 C583 1.390 . S
C584 H593 0.930 . S
C585 Eu555 2.825 . S
C585 O570 1.238 . S
C585 O571 1.247 . S
C585 C579 1.507 . S
H586 C559 0.930 . S
H587 C560 0.931 . S
H588 C561 0.930 . S
H589 C562 0.930 . S
H590 C581 0.930 . S
H591 C582 0.931 . S
H592 C583 0.930 . S
H593 C584 0.930 . S
H594 C600 0.930 . S
H595 C603 0.930 . S
H596 C604 0.930 . S
H597 C605 0.930 . S
H598 C608 0.930 1_556 S
H599 C609 0.930 1_556 S
C600 H594 0.930 . S
C600 C601 1.355 . S
C600 C602 1.415 . S
C601 C600 1.355 . S
C601 C603 1.419 . S
C602 C600 1.415 . S
C602 C607 1.425 . S
C602 C609 1.409 . S
C603 H595 0.930 . S
C603 C601 1.419 . S
C603 C604 1.362 . S
C604 H596 0.930 . S
C604 C603 1.362 . S
C604 C607 1.409 . S
C605 H597 0.930 . S
C605 C606 1.355 . S
C605 C607 1.415 . S
C606 C605 1.355 . S
C606 C608 1.419 . S
C607 C602 1.425 . S
C607 C604 1.409 . S
C607 C605 1.415 . S
C608 H598 0.930 1_554 S
C608 C606 1.419 . S
C608 C609 1.362 . S
C609 H599 0.930 1_554 S
C609 C602 1.409 . S
C609 C608 1.362 . S
H610 C616 0.930 . S
H611 C619 0.930 . S
H612 C620 0.930 . S
H613 C621 0.930 . S
H614 C624 0.901 1_556 S
H615 C625 0.930 . S
C616 H610 0.930 . S
C616 C617 1.355 . S
C616 C618 1.415 . S
C617 C616 1.355 . S
C617 C619 1.419 . S
C618 C616 1.415 . S
C618 C623 1.425 . S
C618 C625 1.409 . S
C619 H611 0.930 . S
C619 C617 1.419 . S
C619 C620 1.362 . S
C620 H612 0.930 . S
C620 C619 1.362 . S
C620 C623 1.409 . S
C621 H613 0.930 . S
C621 C622 1.355 . S
C621 C623 1.415 . S
C622 C621 1.355 . S
C622 C624 1.419 . S
C623 C618 1.425 . S
C623 C620 1.409 . S
C623 C621 1.415 . S
C624 H614 0.901 1_554 S
C624 C622 1.419 . S
C624 C625 1.362 . S
C625 H615 0.930 . S
C625 C618 1.409 . S
C625 C624 1.362 . S
H626 C632 0.930 . S
H627 C635 0.930 . S
H628 C636 0.930 . S
H629 C637 0.930 . S
H630 C640 0.936 . S
H631 C641 0.956 . S
C632 H626 0.930 . S
C632 C633 1.355 . S
C632 C634 1.415 . S
C633 C632 1.355 . S
C633 C635 1.419 . S
C634 C632 1.415 . S
C634 C639 1.425 . S
C634 C641 1.387 1_554 S
C635 H627 0.930 . S
C635 C633 1.419 . S
C635 C636 1.362 . S
C636 H628 0.930 . S
C636 C635 1.362 . S
C636 C639 1.409 . S
C637 H629 0.930 . S
C637 C638 1.355 . S
C637 C639 1.415 . S
C638 C637 1.355 . S
C638 C640 1.412 1_554 S
C639 C634 1.425 . S
C639 C636 1.409 . S
C639 C637 1.415 . S
C640 H630 0.936 . S
C640 C638 1.412 1_556 S
C640 C641 1.360 . S
C641 H631 0.956 . S
C641 C634 1.387 1_556 S
C641 C640 1.360 . S
H642 C648 0.930 . S
H643 C651 0.930 . S
H644 C652 0.930 . S
H645 C653 0.930 . S
H646 C656 0.930 . S
H647 C657 0.930 . S
C648 H642 0.930 . S
C648 C649 1.355 . S
C648 C650 1.415 . S
C649 C648 1.355 . S
C649 C651 1.419 . S
C650 C648 1.415 . S
C650 C655 1.425 . S
C650 C657 1.409 1_556 S
C651 H643 0.930 . S
C651 C649 1.419 . S
C651 C652 1.362 . S
C652 H644 0.930 . S
C652 C651 1.362 . S
C652 C655 1.409 . S
C653 H645 0.930 . S
C653 C654 1.355 . S
C653 C655 1.415 . S
C654 C653 1.355 . S
C654 C656 1.419 1_556 S
C655 C650 1.425 . S
C655 C652 1.409 . S
C655 C653 1.415 . S
C656 H646 0.930 . S
C656 C654 1.419 1_554 S
C656 C657 1.362 . S
C657 H647 0.930 . S
C657 C650 1.409 1_554 S
C657 C656 1.362 . S
H658 C664 0.930 . S
H659 C667 0.930 . S
H660 C668 0.930 . S
H661 C669 0.930 . S
H662 C672 0.930 1_554 S
H663 C673 0.933 1_554 S
C664 H658 0.930 . S
C664 C665 1.355 . S
C664 C666 1.415 . S
C665 C664 1.355 . S
C665 C667 1.419 . S
C666 C664 1.415 . S
C666 C671 1.425 . S
C666 C673 1.409 . S
C667 H659 0.930 . S
C667 C665 1.419 . S
C667 C668 1.362 . S
C668 H660 0.930 . S
C668 C667 1.362 . S
C668 C671 1.409 . S
C669 H661 0.930 . S
C669 C670 1.355 . S
C669 C671 1.415 . S
C670 C669 1.355 . S
C670 C672 1.419 . S
C671 C666 1.425 . S
C671 C668 1.409 . S
C671 C669 1.415 . S
C672 H662 0.930 1_556 S
C672 C670 1.419 . S
C672 C673 1.362 . S
C673 H663 0.933 1_556 S
C673 C666 1.409 . S
C673 C672 1.362 . S
H674 C680 0.930 . S
H675 C683 0.930 . S
H676 C684 0.930 . S
H677 C685 0.954 . S
H678 C688 0.930 . S
H679 C689 0.930 . S
C680 H674 0.930 . S
C680 C681 1.355 . S
C680 C682 1.415 . S
C681 C680 1.355 . S
C681 C683 1.419 . S
C682 C680 1.415 . S
C682 C687 1.425 . S
C682 C689 1.409 . S
C683 H675 0.930 . S
C683 C681 1.419 . S
C683 C684 1.362 1_556 S
C684 H676 0.930 . S
C684 C683 1.362 1_554 S
C684 C687 1.409 1_554 S
C685 H677 0.954 . S
C685 C686 1.348 1_554 S
C685 C687 1.401 1_554 S
C686 C685 1.348 1_556 S
C686 C688 1.419 . S
C687 C682 1.425 . S
C687 C684 1.409 1_556 S
C687 C685 1.401 1_556 S
C688 H678 0.930 . S
C688 C686 1.419 . S
C688 C689 1.362 . S
C689 H679 0.930 . S
C689 C682 1.409 . S
C689 C688 1.362 . S
H690 C696 0.930 . S
H691 C699 0.930 1_554 S
H692 C700 0.930 . S
H693 C701 0.930 1_554 S
H694 C704 0.930 . S
H695 C705 0.930 . S
C696 H690 0.930 . S
C696 C697 1.355 . S
C696 C698 1.415 . S
C697 C696 1.355 . S
C697 C699 1.419 . S
C698 C696 1.415 . S
C698 C703 1.425 . S
C698 C705 1.409 . S
C699 H691 0.930 1_556 S
C699 C697 1.419 . S
C699 C700 1.362 1_556 S
C700 H692 0.930 . S
C700 C699 1.362 1_554 S
C700 C703 1.409 1_554 S
C701 H693 0.930 1_556 S
C701 C702 1.355 . S
C701 C703 1.415 . S
C702 C701 1.355 . S
C702 C704 1.419 . S
C703 C698 1.425 . S
C703 C700 1.409 1_556 S
C703 C701 1.415 . S
C704 H694 0.930 . S
C704 C702 1.419 . S
C704 C705 1.362 . S
C705 H695 0.930 . S
C705 C698 1.409 . S
C705 C704 1.362 . S
H706 C712 0.930 . S
H707 C715 0.930 . S
H708 C716 0.930 . S
H709 C717 0.930 . S
H710 C720 0.930 . S
H711 C721 0.930 . S
C712 H706 0.930 . S
C712 C713 1.355 . S
C712 C714 1.415 . S
C713 C712 1.355 . S
C713 C715 1.419 . S
C714 C712 1.415 . S
C714 C719 1.425 . S
C714 C721 1.409 . S
C715 H707 0.930 . S
C715 C713 1.419 . S
C715 C716 1.362 . S
C716 H708 0.930 . S
C716 C715 1.362 . S
C716 C719 1.409 . S
C717 H709 0.930 . S
C717 C718 1.355 . S
C717 C719 1.415 . S
C718 C717 1.355 . S
C718 C720 1.419 . S
C719 C714 1.425 . S
C719 C716 1.409 . S
C719 C717 1.415 . S
C720 H710 0.930 . S
C720 C718 1.419 . S
C720 C721 1.362 . S
C721 H711 0.930 . S
C721 C714 1.409 . S
C721 C720 1.362 . S
H722 C728 0.930 . S
H723 C731 0.930 . S
H724 C732 0.930 . S
H725 C733 0.930 . S
H726 C736 0.930 . S
H727 C737 0.930 . S
C728 H722 0.930 . S
C728 C729 1.355 . S
C728 C730 1.415 . S
C729 C728 1.355 . S
C729 C731 1.419 1_556 S
C730 C728 1.415 . S
C730 C735 1.425 1_556 S
C730 C737 1.409 . S
C731 H723 0.930 . S
C731 C729 1.419 1_554 S
C731 C732 1.362 . S
C732 H724 0.930 . S
C732 C731 1.362 . S
C732 C735 1.409 . S
C733 H725 0.930 . S
C733 C734 1.355 1_554 S
C733 C735 1.415 . S
C734 C733 1.355 1_556 S
C734 C736 1.419 . S
C735 C730 1.425 1_554 S
C735 C732 1.409 . S
C735 C733 1.415 . S
C736 H726 0.930 . S
C736 C734 1.419 . S
C736 C737 1.362 . S
C737 H727 0.930 . S
C737 C730 1.409 . S
C737 C736 1.362 . S
H738 C744 0.930 . S
H739 C747 0.930 . S
H740 C748 0.930 . S
H741 C749 0.930 . S
H742 C752 0.930 . S
H743 C753 0.930 . S
C744 H738 0.930 . S
C744 C745 1.355 . S
C744 C746 1.415 . S
C745 C744 1.355 . S
C745 C747 1.419 . S
C746 C744 1.415 . S
C746 C751 1.425 . S
C746 C753 1.409 1_554 S
C747 H739 0.930 . S
C747 C745 1.419 . S
C747 C748 1.362 . S
C748 H740 0.930 . S
C748 C747 1.362 . S
C748 C751 1.409 . S
C749 H741 0.930 . S
C749 C750 1.355 . S
C749 C751 1.415 . S
C750 C749 1.355 . S
C750 C752 1.419 1_554 S
C751 C746 1.425 . S
C751 C748 1.409 . S
C751 C749 1.415 . S
C752 H742 0.930 . S
C752 C750 1.419 1_556 S
C752 C753 1.362 . S
C753 H743 0.930 . S
C753 C746 1.409 1_556 S
C753 C752 1.362 . S
H754 C760 0.930 . S
H755 C763 0.930 . S
H756 C764 0.930 . S
H757 C765 0.930 . S
H758 C768 0.930 . S
H759 C769 0.930 . S
C760 H754 0.930 . S
C760 C761 1.355 . S
C760 C762 1.415 . S
C761 C760 1.355 . S
C761 C763 1.419 . S
C762 C760 1.415 . S
C762 C767 1.425 . S
C762 C769 1.409 . S
C763 H755 0.930 . S
C763 C761 1.419 . S
C763 C764 1.362 . S
C764 H756 0.930 . S
C764 C763 1.362 . S
C764 C767 1.409 . S
C765 H757 0.930 . S
C765 C766 1.355 . S
C765 C767 1.415 . S
C766 C765 1.355 . S
C766 C768 1.419 . S
C767 C762 1.425 . S
C767 C764 1.409 . S
C767 C765 1.415 . S
C768 H758 0.930 . S
C768 C766 1.419 . S
C768 C769 1.362 . S
C769 H759 0.930 . S
C769 C762 1.409 . S
C769 C768 1.362 . S
H770 C776 0.930 . S
H771 C779 0.930 . S
H772 C780 0.930 . S
H773 C781 0.930 . S
H774 C784 0.930 1_556 S
H775 C785 0.926 1_556 S
C776 H770 0.930 . S
C776 C777 1.355 . S
C776 C778 1.415 . S
C777 C776 1.355 . S
C777 C779 1.419 . S
C778 C776 1.415 . S
C778 C783 1.425 . S
C778 C785 1.409 . S
C779 H771 0.930 . S
C779 C777 1.419 . S
C779 C780 1.362 . S
C780 H772 0.930 . S
C780 C779 1.362 . S
C780 C783 1.409 . S
C781 H773 0.930 . S
C781 C782 1.355 . S
C781 C783 1.415 . S
C782 C781 1.355 . S
C782 C784 1.419 . S
C783 C778 1.425 . S
C783 C780 1.409 . S
C783 C781 1.415 . S
C784 H774 0.930 1_554 S
C784 C782 1.419 . S
C784 C785 1.362 . S
C785 H775 0.926 1_554 S
C785 C778 1.409 . S
C785 C784 1.362 . S
H786 C792 0.930 . S
H787 C795 0.930 . S
H788 C796 0.930 . S
H789 C797 0.930 . S
H790 C800 0.930 . S
H791 C801 0.930 . S
C792 H786 0.930 . S
C792 C793 1.355 . S
C792 C794 1.415 . S
C793 C792 1.355 . S
C793 C795 1.419 . S
C794 C792 1.415 . S
C794 C799 1.425 . S
C794 C801 1.409 1_655 S
C795 H787 0.930 . S
C795 C793 1.419 . S
C795 C796 1.362 . S
C796 H788 0.930 . S
C796 C795 1.362 . S
C796 C799 1.409 . S
C797 H789 0.930 . S
C797 C798 1.355 . S
C797 C799 1.415 1_455 S
C798 C797 1.355 . S
C798 C800 1.419 . S
C799 C794 1.425 . S
C799 C796 1.409 . S
C799 C797 1.415 1_655 S
C800 H790 0.930 . S
C800 C798 1.419 . S
C800 C801 1.362 . S
C801 H791 0.930 . S
C801 C794 1.409 1_455 S
C801 C800 1.362 . S
H802 C808 0.930 . S
H803 C811 0.930 . S
H804 C812 0.930 . S
H805 C813 0.930 . S
H806 C816 0.930 . S
H807 C817 0.930 . S
C808 H802 0.930 . S
C808 C809 1.355 . S
C808 C810 1.415 . S
C809 C808 1.355 . S
C809 C811 1.419 . S
C810 C808 1.415 . S
C810 C815 1.425 . S
C810 C817 1.409 . S
C811 H803 0.930 . S
C811 C809 1.419 . S
C811 C812 1.362 . S
C812 H804 0.930 . S
C812 C811 1.362 . S
C812 C815 1.409 . S
C813 H805 0.930 . S
C813 C814 1.355 . S
C813 C815 1.415 . S
C814 C813 1.355 . S
C814 C816 1.419 . S
C815 C810 1.425 . S
C815 C812 1.409 . S
C815 C813 1.415 . S
C816 H806 0.930 . S
C816 C814 1.419 . S
C816 C817 1.362 . S
C817 H807 0.930 . S
C817 C810 1.409 . S
C817 C816 1.362 . S
H818 C824 0.930 . S
H819 C827 0.930 . S
H820 C828 0.930 . S
H821 C829 0.930 . S
H822 C832 0.930 . S
H823 C833 0.930 . S
C824 H818 0.930 . S
C824 C825 1.355 . S
C824 C826 1.415 . S
C825 C824 1.355 . S
C825 C827 1.419 . S
C826 C824 1.415 . S
C826 C831 1.425 . S
C826 C833 1.409 . S
C827 H819 0.930 . S
C827 C825 1.419 . S
C827 C828 1.362 . S
C828 H820 0.930 . S
C828 C827 1.362 . S
C828 C831 1.409 . S
C829 H821 0.930 . S
C829 C830 1.355 . S
C829 C831 1.415 1_565 S
C830 C829 1.355 . S
C830 C832 1.419 . S
C831 C826 1.425 . S
C831 C828 1.409 . S
C831 C829 1.415 1_545 S
C832 H822 0.930 . S
C832 C830 1.419 . S
C832 C833 1.362 1_565 S
C833 H823 0.930 . S
C833 C826 1.409 . S
C833 C832 1.362 1_545 S
H834 C840 0.930 . S
H835 C843 0.930 . S
H836 C844 0.930 . S
H837 C845 0.930 . S
H838 C848 0.930 . S
H839 C849 0.930 . S
C840 H834 0.930 . S
C840 C841 1.355 . S
C840 C842 1.415 . S
C841 C840 1.355 . S
C841 C843 1.419 . S
C842 C840 1.415 . S
C842 C847 1.425 . S
C842 C849 1.409 . S
C843 H835 0.930 . S
C843 C841 1.419 . S
C843 C844 1.362 . S
C844 H836 0.930 . S
C844 C843 1.362 . S
C844 C847 1.409 . S
C845 H837 0.930 . S
C845 C846 1.355 . S
C845 C847 1.415 . S
C846 C845 1.355 . S
C846 C848 1.419 . S
C847 C842 1.425 . S
C847 C844 1.409 . S
C847 C845 1.415 . S
C848 H838 0.930 . S
C848 C846 1.419 . S
C848 C849 1.362 . S
C849 H839 0.930 . S
C849 C842 1.409 . S
C849 C848 1.362 . S
H850 C856 0.930 . S
H851 C859 0.930 . S
H852 C860 0.930 . S
H853 C861 0.930 . S
H854 C864 0.930 . S
H855 C865 0.930 . S
C856 H850 0.930 . S
C856 C857 1.355 . S
C856 C858 1.415 . S
C857 C856 1.355 . S
C857 C859 1.419 . S
C858 C856 1.415 . S
C858 C863 1.425 . S
C858 C865 1.409 . S
C859 H851 0.930 . S
C859 C857 1.419 . S
C859 C860 1.362 . S
C860 H852 0.930 . S
C860 C859 1.362 . S
C860 C863 1.409 . S
C861 H853 0.930 . S
C861 C862 1.355 . S
C861 C863 1.415 . S
C862 C861 1.355 . S
C862 C864 1.419 . S
C863 C858 1.425 . S
C863 C860 1.409 . S
C863 C861 1.415 . S
C864 H854 0.930 . S
C864 C862 1.419 . S
C864 C865 1.362 . S
C865 H855 0.930 . S
C865 C858 1.409 . S
C865 C864 1.362 . S
H866 C872 0.930 . S
H867 C875 0.930 . S
H868 C876 0.930 . S
H869 C877 0.930 . S
H870 C880 0.930 . S
H871 C881 0.930 . S
C872 H866 0.930 . S
C872 C873 1.355 . S
C872 C874 1.415 . S
C873 C872 1.355 . S
C873 C875 1.419 . S
C874 C872 1.415 . S
C874 C879 1.425 . S
C874 C881 1.409 . S
C875 H867 0.930 . S
C875 C873 1.419 . S
C875 C876 1.362 . S
C876 H868 0.930 . S
C876 C875 1.362 . S
C876 C879 1.409 . S
C877 H869 0.930 . S
C877 C878 1.355 . S
C877 C879 1.415 . S
C878 C877 1.355 . S
C878 C880 1.419 . S
C879 C874 1.425 . S
C879 C876 1.409 . S
C879 C877 1.415 . S
C880 H870 0.930 . S
C880 C878 1.419 . S
C880 C881 1.362 . S
C881 H871 0.930 . S
C881 C874 1.409 . S
C881 C880 1.362 . S
H882 C888 0.930 . S
H883 C891 0.930 . S
H884 C892 0.930 . S
H885 C893 0.930 . S
H886 C896 0.930 . S
H887 C897 0.930 . S
C888 H882 0.930 . S
C888 C889 1.355 . S
C888 C890 1.415 . S
C889 C888 1.355 . S
C889 C891 1.419 . S
C890 C888 1.415 . S
C890 C895 1.425 . S
C890 C897 1.409 . S
C891 H883 0.930 . S
C891 C889 1.419 . S
C891 C892 1.362 . S
C892 H884 0.930 . S
C892 C891 1.362 . S
C892 C895 1.409 . S
C893 H885 0.930 . S
C893 C894 1.355 . S
C893 C895 1.415 . S
C894 C893 1.355 . S
C894 C896 1.419 . S
C895 C890 1.425 . S
C895 C892 1.409 . S
C895 C893 1.415 . S
C896 H886 0.930 . S
C896 C894 1.419 . S
C896 C897 1.362 . S
C897 H887 0.930 . S
C897 C890 1.409 . S
C897 C896 1.362 . S
H898 C904 0.930 . S
H899 C907 0.930 . S
H900 C908 0.930 . S
H901 C909 0.930 . S
H902 C912 0.930 . S
H903 C913 0.930 . S
C904 H898 0.930 . S
C904 C905 1.355 . S
C904 C906 1.415 . S
C905 C904 1.355 . S
C905 C907 1.419 . S
C906 C904 1.415 . S
C906 C911 1.425 . S
C906 C913 1.409 . S
C907 H899 0.930 . S
C907 C905 1.419 . S
C907 C908 1.362 . S
C908 H900 0.930 . S
C908 C907 1.362 . S
C908 C911 1.409 . S
C909 H901 0.930 . S
C909 C910 1.355 . S
C909 C911 1.415 . S
C910 C909 1.355 . S
C910 C912 1.419 . S
C911 C906 1.425 . S
C911 C908 1.409 . S
C911 C909 1.415 . S
C912 H902 0.930 . S
C912 C910 1.419 . S
C912 C913 1.362 . S
C913 H903 0.930 . S
C913 C906 1.409 . S
C913 C912 1.362 . S
H914 C920 0.930 . S
H915 C923 0.930 . S
H916 C924 0.930 . S
H917 C925 0.930 . S
H918 C928 0.930 . S
H919 C929 0.930 . S
C920 H914 0.930 . S
C920 C921 1.355 . S
C920 C922 1.415 . S
C921 C920 1.355 . S
C921 C923 1.419 . S
C922 C920 1.415 . S
C922 C927 1.425 . S
C922 C929 1.409 . S
C923 H915 0.930 . S
C923 C921 1.419 . S
C923 C924 1.362 . S
C924 H916 0.930 . S
C924 C923 1.362 . S
C924 C927 1.409 . S
C925 H917 0.930 . S
C925 C926 1.355 . S
C925 C927 1.415 . S
C926 C925 1.355 . S
C926 C928 1.419 . S
C927 C922 1.425 . S
C927 C924 1.409 . S
C927 C925 1.415 . S
C928 H918 0.930 . S
C928 C926 1.419 . S
C928 C929 1.362 . S
C929 H919 0.930 . S
C929 C922 1.409 . S
C929 C928 1.362 . S
H930 C936 0.930 . S
H931 C939 0.930 . S
H932 C940 0.930 . S
H933 C941 0.930 . S
H934 C944 0.930 . S
H935 C945 0.930 . S
C936 H930 0.930 . S
C936 C937 1.355 . S
C936 C938 1.415 1_545 S
C937 C936 1.355 . S
C937 C939 1.419 . S
C938 C936 1.415 1_565 S
C938 C943 1.425 . S
C938 C945 1.409 . S
C939 H931 0.930 . S
C939 C937 1.419 . S
C939 C940 1.362 1_545 S
C940 H932 0.930 . S
C940 C939 1.362 1_565 S
C940 C943 1.409 . S
C941 H933 0.930 . S
C941 C942 1.355 . S
C941 C943 1.415 . S
C942 C941 1.355 . S
C942 C944 1.419 . S
C943 C938 1.425 . S
C943 C940 1.409 . S
C943 C941 1.415 . S
C944 H934 0.930 . S
C944 C942 1.419 . S
C944 C945 1.362 . S
C945 H935 0.930 . S
C945 C938 1.409 . S
C945 C944 1.362 . S
H946 C952 0.930 . S
H947 C955 0.930 . S
H948 C956 0.930 . S
H949 C957 0.930 . S
H950 C960 0.930 . S
H951 C961 0.930 . S
C952 H946 0.930 . S
C952 C953 1.361 . S
C952 C954 1.415 . S
C953 C952 1.361 . S
C953 C955 1.451 . S
C954 C952 1.415 . S
C954 C959 1.425 . S
C954 C961 1.409 . S
C955 H947 0.930 . S
C955 C953 1.451 . S
C955 C956 1.362 . S
C956 H948 0.930 . S
C956 C955 1.362 . S
C956 C959 1.409 . S
C957 H949 0.930 . S
C957 C958 1.355 . S
C957 C959 1.415 . S
C958 C957 1.355 . S
C958 C960 1.419 . S
C959 C954 1.425 . S
C959 C956 1.409 . S
C959 C957 1.415 . S
C960 H950 0.930 . S
C960 C958 1.419 . S
C960 C961 1.362 . S
C961 H951 0.930 . S
C961 C954 1.409 . S
C961 C960 1.362 . S
H962 C968 0.930 . S
H963 C971 0.930 . S
H964 C972 0.930 . S
H965 C973 0.930 . S
H966 C976 0.930 . S
H967 C977 0.930 . S
C968 H962 0.930 . S
C968 C969 1.355 . S
C968 C970 1.415 . S
C969 C968 1.355 . S
C969 C971 1.419 . S
C970 C968 1.415 . S
C970 C975 1.425 . S
C970 C977 1.409 . S
C971 H963 0.930 . S
C971 C969 1.419 . S
C971 C972 1.362 . S
C972 H964 0.930 . S
C972 C971 1.362 . S
C972 C975 1.409 . S
C973 H965 0.930 . S
C973 C974 1.355 . S
C973 C975 1.415 . S
C974 C973 1.355 . S
C974 C976 1.419 . S
C975 C970 1.425 . S
C975 C972 1.409 . S
C975 C973 1.415 . S
C976 H966 0.930 . S
C976 C974 1.419 . S
C976 C977 1.362 . S
C977 H967 0.930 . S
C977 C970 1.409 . S
C977 C976 1.362 . S
H978 C984 0.930 . S
H979 C987 0.930 . S
H980 C988 0.930 . S
H981 C989 0.930 . S
H982 C992 0.930 . S
H983 C993 0.930 . S
C984 H978 0.930 . S
C984 C985 1.355 . S
C984 C986 1.415 . S
C985 C984 1.355 . S
C985 C987 1.419 . S
C986 C984 1.415 . S
C986 C991 1.425 . S
C986 C993 1.409 . S
C987 H979 0.930 . S
C987 C985 1.419 . S
C987 C988 1.362 . S
C988 H980 0.930 . S
C988 C987 1.362 . S
C988 C991 1.409 . S
C989 H981 0.930 . S
C989 C990 1.355 . S
C989 C991 1.415 . S
C990 C989 1.355 . S
C990 C992 1.419 . S
C991 C986 1.425 . S
C991 C988 1.409 . S
C991 C989 1.415 . S
C992 H982 0.930 . S
C992 C990 1.419 . S
C992 C993 1.362 . S
C993 H983 0.930 . S
C993 C986 1.409 . S
C993 C992 1.362 . S
H994 C1000 0.930 . S
H995 C1003 0.930 . S
H996 C1004 0.930 . S
H997 C1005 0.930 . S
H998 C1008 0.930 . S
H999 C1009 0.930 . S
C1000 H994 0.930 . S
C1000 C1001 1.355 . S
C1000 C1002 1.415 . S
C1001 C1000 1.355 . S
C1001 C1003 1.419 . S
C1002 C1000 1.415 . S
C1002 C1007 1.425 . S
C1002 C1009 1.409 . S
C1003 H995 0.930 . S
C1003 C1001 1.419 . S
C1003 C1004 1.362 . S
C1004 H996 0.930 . S
C1004 C1003 1.362 . S
C1004 C1007 1.409 . S
C1005 H997 0.930 . S
C1005 C1006 1.355 . S
C1005 C1007 1.415 . S
C1006 C1005 1.355 . S
C1006 C1008 1.419 . S
C1007 C1002 1.425 . S
C1007 C1004 1.409 . S
C1007 C1005 1.415 . S
C1008 H998 0.930 . S
C1008 C1006 1.419 . S
C1008 C1009 1.362 . S
C1009 H999 0.930 . S
C1009 C1002 1.409 . S
C1009 C1008 1.362 . S
H1010 C1016 0.930 . S
H1011 C1019 0.930 . S
H1012 C1020 0.930 . S
H1013 C1021 0.930 . S
H1014 C1024 0.930 . S
H1015 C1025 0.930 . S
C1016 H1010 0.930 . S
C1016 C1017 1.355 . S
C1016 C1018 1.415 . S
C1017 C1016 1.355 . S
C1017 C1019 1.419 . S
C1018 C1016 1.415 . S
C1018 C1023 1.425 . S
C1018 C1025 1.409 . S
C1019 H1011 0.930 . S
C1019 C1017 1.419 . S
C1019 C1020 1.362 . S
C1020 H1012 0.930 . S
C1020 C1019 1.362 . S
C1020 C1023 1.409 . S
C1021 H1013 0.930 . S
C1021 C1022 1.355 . S
C1021 C1023 1.415 . S
C1022 C1021 1.355 . S
C1022 C1024 1.419 . S
C1023 C1018 1.425 . S
C1023 C1020 1.409 . S
C1023 C1021 1.415 . S
C1024 H1014 0.930 . S
C1024 C1022 1.419 . S
C1024 C1025 1.362 . S
C1025 H1015 0.930 . S
C1025 C1018 1.409 . S
C1025 C1024 1.362 . S
H1026 C1032 0.930 . S
H1027 C1035 0.930 . S
H1028 C1036 0.930 . S
H1029 C1037 0.930 . S
H1030 C1040 0.930 . S
H1031 C1041 0.930 . S
C1032 H1026 0.930 . S
C1032 C1033 1.355 . S
C1032 C1034 1.415 . S
C1033 C1032 1.355 . S
C1033 C1035 1.419 . S
C1034 C1032 1.415 . S
C1034 C1039 1.425 . S
C1034 C1041 1.409 1_565 S
C1035 H1027 0.930 . S
C1035 C1033 1.419 . S
C1035 C1036 1.362 . S
C1036 H1028 0.930 . S
C1036 C1035 1.362 . S
C1036 C1039 1.409 . S
C1037 H1029 0.930 . S
C1037 C1038 1.355 . S
C1037 C1039 1.415 1_545 S
C1038 C1037 1.355 . S
C1038 C1040 1.419 . S
C1039 C1034 1.425 . S
C1039 C1036 1.409 . S
C1039 C1037 1.415 1_565 S
C1040 H1030 0.930 . S
C1040 C1038 1.419 . S
C1040 C1041 1.362 . S
C1041 H1031 0.930 . S
C1041 C1034 1.409 1_545 S
C1041 C1040 1.362 . S
H1042 C1048 0.930 . S
H1043 C1051 0.930 . S
H1044 C1052 0.930 1_655 S
H1045 C1053 0.930 . S
H1046 C1056 0.930 . S
H1047 C1057 0.930 . S
C1048 H1042 0.930 . S
C1048 C1049 1.355 . S
C1048 C1050 1.415 . S
C1049 C1048 1.355 . S
C1049 C1051 1.419 . S
C1050 C1048 1.415 . S
C1050 C1055 1.425 1_455 S
C1050 C1057 1.409 . S
C1051 H1043 0.930 . S
C1051 C1049 1.419 . S
C1051 C1052 1.362 . S
C1052 H1044 0.930 1_455 S
C1052 C1051 1.362 . S
C1052 C1055 1.409 1_455 S
C1053 H1045 0.930 . S
C1053 C1054 1.355 . S
C1053 C1055 1.415 . S
C1054 C1053 1.355 . S
C1054 C1056 1.419 . S
C1055 C1050 1.425 1_655 S
C1055 C1052 1.409 1_655 S
C1055 C1053 1.415 . S
C1056 H1046 0.930 . S
C1056 C1054 1.419 . S
C1056 C1057 1.362 1_655 S
C1057 H1047 0.930 . S
C1057 C1050 1.409 . S
C1057 C1056 1.362 1_455 S
H1058 C1064 0.930 . S
H1059 C1067 0.930 . S
H1060 C1068 0.930 . S
H1061 C1069 0.930 . S
H1062 C1072 0.930 . S
H1063 C1073 0.930 . S
C1064 H1058 0.930 . S
C1064 C1065 1.355 . S
C1064 C1066 1.415 . S
C1065 C1064 1.355 . S
C1065 C1067 1.419 . S
C1066 C1064 1.415 . S
C1066 C1071 1.425 . S
C1066 C1073 1.409 . S
C1067 H1059 0.930 . S
C1067 C1065 1.419 . S
C1067 C1068 1.362 . S
C1068 H1060 0.930 . S
C1068 C1067 1.362 . S
C1068 C1071 1.409 . S
C1069 H1061 0.930 . S
C1069 C1070 1.355 . S
C1069 C1071 1.415 . S
C1070 C1069 1.355 . S
C1070 C1072 1.419 . S
C1071 C1066 1.425 . S
C1071 C1068 1.409 . S
C1071 C1069 1.415 . S
C1072 H1062 0.930 . S
C1072 C1070 1.419 . S
C1072 C1073 1.362 . S
C1073 H1063 0.930 . S
C1073 C1066 1.409 . S
C1073 C1072 1.362 . S
H1074 C1080 0.930 . S
H1075 C1083 0.930 1_455 S
H1076 C1084 0.930 . S
H1077 C1085 0.930 . S
H1078 C1088 0.930 . S
H1079 C1089 0.930 . S
C1080 H1074 0.930 . S
C1080 C1081 1.355 . S
C1080 C1082 1.415 1_455 S
C1081 C1080 1.355 . S
C1081 C1083 1.419 1_455 S
C1082 C1080 1.415 1_655 S
C1082 C1087 1.425 . S
C1082 C1089 1.409 . S
C1083 H1075 0.930 1_655 S
C1083 C1081 1.419 1_655 S
C1083 C1084 1.362 . S
C1084 H1076 0.930 . S
C1084 C1083 1.362 . S
C1084 C1087 1.409 . S
C1085 H1077 0.930 . S
C1085 C1086 1.355 . S
C1085 C1087 1.415 . S
C1086 C1085 1.355 . S
C1086 C1088 1.419 . S
C1087 C1082 1.425 . S
C1087 C1084 1.409 . S
C1087 C1085 1.415 . S
C1088 H1078 0.930 . S
C1088 C1086 1.419 . S
C1088 C1089 1.362 . S
C1089 H1079 0.930 . S
C1089 C1082 1.409 . S
C1089 C1088 1.362 . S
H1090 C1096 0.930 . S
H1091 C1099 0.930 . S
H1092 C1100 0.930 . S
H1093 C1101 0.930 . S
H1094 C1104 0.930 . S
H1095 C1105 0.930 . S
C1096 H1090 0.930 . S
C1096 C1097 1.355 . S
C1096 C1098 1.415 . S
C1097 C1096 1.355 . S
C1097 C1099 1.419 . S
C1098 C1096 1.415 . S
C1098 C1103 1.425 . S
C1098 C1105 1.409 . S
C1099 H1091 0.930 . S
C1099 C1097 1.419 . S
C1099 C1100 1.362 . S
C1100 H1092 0.930 . S
C1100 C1099 1.362 . S
C1100 C1103 1.409 . S
C1101 H1093 0.930 . S
C1101 C1102 1.355 . S
C1101 C1103 1.415 . S
C1102 C1101 1.355 . S
C1102 C1104 1.419 . S
C1103 C1098 1.425 . S
C1103 C1100 1.409 . S
C1103 C1101 1.415 . S
C1104 H1094 0.930 . S
C1104 C1102 1.419 . S
C1104 C1105 1.362 . S
C1105 H1095 0.930 . S
C1105 C1098 1.409 . S
C1105 C1104 1.362 . S
H1106 C1112 0.930 1_565 S
H1107 C1115 0.930 . S
H1108 C1116 0.930 . S
H1109 C1117 0.930 . S
H1110 C1120 0.930 . S
H1111 C1121 0.930 . S
C1112 H1106 0.930 1_545 S
C1112 C1113 1.355 1_545 S
C1112 C1114 1.415 . S
C1113 C1112 1.355 1_565 S
C1113 C1115 1.419 . S
C1114 C1112 1.415 . S
C1114 C1119 1.425 . S
C1114 C1121 1.409 . S
C1115 H1107 0.930 . S
C1115 C1113 1.419 . S
C1115 C1116 1.362 1_565 S
C1116 H1108 0.930 . S
C1116 C1115 1.362 1_545 S
C1116 C1119 1.409 . S
C1117 H1109 0.930 . S
C1117 C1118 1.355 . S
C1117 C1119 1.415 . S
C1118 C1117 1.355 . S
C1118 C1120 1.419 . S
C1119 C1114 1.425 . S
C1119 C1116 1.409 . S
C1119 C1117 1.415 . S
C1120 H1110 0.930 . S
C1120 C1118 1.419 . S
C1120 C1121 1.362 . S
C1121 H1111 0.930 . S
C1121 C1114 1.409 . S
C1121 C1120 1.362 . S
H1122 C1128 0.930 . S
H1123 C1131 0.930 . S
H1124 C1132 0.930 . S
H1125 C1133 0.930 . S
H1126 C1136 0.930 . S
H1127 C1137 0.930 . S
C1128 H1122 0.930 . S
C1128 C1129 1.355 . S
C1128 C1130 1.415 . S
C1129 C1128 1.355 . S
C1129 C1131 1.419 . S
C1130 C1128 1.415 . S
C1130 C1135 1.425 . S
C1130 C1137 1.409 . S
C1131 H1123 0.930 . S
C1131 C1129 1.419 . S
C1131 C1132 1.362 . S
C1132 H1124 0.930 . S
C1132 C1131 1.362 . S
C1132 C1135 1.409 . S
C1133 H1125 0.930 . S
C1133 C1134 1.355 . S
C1133 C1135 1.415 . S
C1134 C1133 1.355 . S
C1134 C1136 1.419 . S
C1135 C1130 1.425 . S
C1135 C1132 1.409 . S
C1135 C1133 1.415 . S
C1136 H1126 0.930 . S
C1136 C1134 1.419 . S
C1136 C1137 1.362 . S
C1137 H1127 0.930 . S
C1137 C1130 1.409 . S
C1137 C1136 1.362 . S
H1138 C1144 0.930 . S
H1139 C1147 0.930 . S
H1140 C1148 0.930 . S
H1141 C1149 0.930 . S
H1142 C1152 0.930 . S
H1143 C1153 0.930 . S
C1144 H1138 0.930 . S
C1144 C1145 1.355 . S
C1144 C1146 1.415 . S
C1145 C1144 1.355 . S
C1145 C1147 1.419 . S
C1146 C1144 1.415 . S
C1146 C1151 1.425 . S
C1146 C1153 1.409 . S
C1147 H1139 0.930 . S
C1147 C1145 1.419 . S
C1147 C1148 1.362 . S
C1148 H1140 0.930 . S
C1148 C1147 1.362 . S
C1148 C1151 1.409 . S
C1149 H1141 0.930 . S
C1149 C1150 1.355 . S
C1149 C1151 1.415 . S
C1150 C1149 1.355 . S
C1150 C1152 1.419 . S
C1151 C1146 1.425 . S
C1151 C1148 1.409 . S
C1151 C1149 1.415 . S
C1152 H1142 0.930 . S
C1152 C1150 1.419 . S
C1152 C1153 1.362 . S
C1153 H1143 0.930 . S
C1153 C1146 1.409 . S
C1153 C1152 1.362 . S
H1154 C1160 0.930 . S
H1155 C1163 0.930 . S
H1156 C1164 0.930 . S
H1157 C1165 0.930 . S
H1158 C1168 0.930 . S
H1159 C1169 0.930 . S
C1160 H1154 0.930 . S
C1160 C1161 1.355 . S
C1160 C1162 1.415 . S
C1161 C1160 1.355 . S
C1161 C1163 1.419 . S
C1162 C1160 1.415 . S
C1162 C1167 1.425 . S
C1162 C1169 1.409 . S
C1163 H1155 0.930 . S
C1163 C1161 1.419 . S
C1163 C1164 1.362 . S
C1164 H1156 0.930 . S
C1164 C1163 1.362 . S
C1164 C1167 1.409 . S
C1165 H1157 0.930 . S
C1165 C1166 1.355 . S
C1165 C1167 1.415 . S
C1166 C1165 1.355 . S
C1166 C1168 1.419 . S
C1167 C1162 1.425 . S
C1167 C1164 1.409 . S
C1167 C1165 1.415 . S
C1168 H1158 0.930 . S
C1168 C1166 1.419 . S
C1168 C1169 1.362 . S
C1169 H1159 0.930 . S
C1169 C1162 1.409 . S
C1169 C1168 1.362 . S
H1170 C1176 0.930 . S
H1171 C1179 0.930 . S
H1172 C1180 0.930 . S
H1173 C1181 0.930 . S
H1174 C1184 0.930 . S
H1175 C1185 0.930 . S
C1176 H1170 0.930 . S
C1176 C1177 1.355 . S
C1176 C1178 1.415 . S
C1177 C1176 1.355 . S
C1177 C1179 1.419 . S
C1178 C1176 1.415 . S
C1178 C1183 1.425 . S
C1178 C1185 1.409 . S
C1179 H1171 0.930 . S
C1179 C1177 1.419 . S
C1179 C1180 1.362 . S
C1180 H1172 0.930 . S
C1180 C1179 1.362 . S
C1180 C1183 1.409 . S
C1181 H1173 0.930 . S
C1181 C1182 1.355 . S
C1181 C1183 1.415 . S
C1182 C1181 1.355 . S
C1182 C1184 1.419 . S
C1183 C1178 1.425 . S
C1183 C1180 1.409 . S
C1183 C1181 1.415 . S
C1184 H1174 0.930 . S
C1184 C1182 1.419 . S
C1184 C1185 1.362 . S
C1185 H1175 0.930 . S
C1185 C1178 1.409 . S
C1185 C1184 1.362 . S
H1186 C1192 0.930 . S
H1187 C1195 0.930 . S
H1188 C1196 0.930 1_655 S
H1189 C1197 0.930 . S
H1190 C1200 0.930 . S
H1191 C1201 0.930 . S
C1192 H1186 0.930 . S
C1192 C1193 1.355 . S
C1192 C1194 1.415 . S
C1193 C1192 1.355 . S
C1193 C1195 1.419 . S
C1194 C1192 1.415 . S
C1194 C1199 1.425 . S
C1194 C1201 1.409 . S
C1195 H1187 0.930 . S
C1195 C1193 1.419 . S
C1195 C1196 1.362 . S
C1196 H1188 0.930 1_455 S
C1196 C1195 1.362 . S
C1196 C1199 1.409 . S
C1197 H1189 0.930 . S
C1197 C1198 1.355 . S
C1197 C1199 1.415 . S
C1198 C1197 1.355 . S
C1198 C1200 1.419 . S
C1199 C1194 1.425 . S
C1199 C1196 1.409 . S
C1199 C1197 1.415 . S
C1200 H1190 0.930 . S
C1200 C1198 1.419 . S
C1200 C1201 1.362 . S
C1201 H1191 0.930 . S
C1201 C1194 1.409 . S
C1201 C1200 1.362 . S
H1202 C1208 0.930 . S
H1203 C1211 0.930 . S
H1204 C1212 0.930 . S
H1205 C1213 0.930 . S
H1206 C1216 0.930 . S
H1207 C1217 0.930 . S
C1208 H1202 0.930 . S
C1208 C1209 1.355 . S
C1208 C1210 1.415 . S
C1209 C1208 1.355 . S
C1209 C1211 1.419 . S
C1210 C1208 1.415 . S
C1210 C1215 1.425 . S
C1210 C1217 1.409 . S
C1211 H1203 0.930 . S
C1211 C1209 1.419 . S
C1211 C1212 1.362 . S
C1212 H1204 0.930 . S
C1212 C1211 1.362 . S
C1212 C1215 1.409 . S
C1213 H1205 0.930 . S
C1213 C1214 1.355 . S
C1213 C1215 1.415 . S
C1214 C1213 1.355 . S
C1214 C1216 1.419 . S
C1215 C1210 1.425 . S
C1215 C1212 1.409 . S
C1215 C1213 1.415 . S
C1216 H1206 0.930 . S
C1216 C1214 1.419 . S
C1216 C1217 1.362 . S
C1217 H1207 0.930 . S
C1217 C1210 1.409 . S
C1217 C1216 1.362 . S
H1218 C1224 0.930 . S
H1219 C1227 0.930 . S
H1220 C1228 0.930 . S
H1221 C1229 0.930 . S
H1222 C1232 0.930 . S
H1223 C1233 0.930 . S
C1224 H1218 0.930 . S
C1224 C1225 1.355 . S
C1224 C1226 1.415 . S
C1225 C1224 1.355 . S
C1225 C1227 1.419 . S
C1226 C1224 1.415 . S
C1226 C1231 1.425 . S
C1226 C1233 1.409 . S
C1227 H1219 0.930 . S
C1227 C1225 1.419 . S
C1227 C1228 1.362 . S
C1228 H1220 0.930 . S
C1228 C1227 1.362 . S
C1228 C1231 1.409 . S
C1229 H1221 0.930 . S
C1229 C1230 1.355 . S
C1229 C1231 1.415 . S
C1230 C1229 1.355 . S
C1230 C1232 1.419 . S
C1231 C1226 1.425 . S
C1231 C1228 1.409 . S
C1231 C1229 1.415 . S
C1232 H1222 0.930 . S
C1232 C1230 1.419 . S
C1232 C1233 1.362 . S
C1233 H1223 0.930 . S
C1233 C1226 1.409 . S
C1233 C1232 1.362 . S
H1234 C1240 0.930 . S
H1235 C1243 0.930 . S
H1236 C1244 0.930 . S
H1237 C1245 0.930 . S
H1238 C1248 0.930 . S
H1239 C1249 0.930 . S
C1240 H1234 0.930 . S
C1240 C1241 1.355 . S
C1240 C1242 1.415 . S
C1241 C1240 1.355 . S
C1241 C1243 1.419 . S
C1242 C1240 1.415 . S
C1242 C1247 1.425 . S
C1242 C1249 1.409 . S
C1243 H1235 0.930 . S
C1243 C1241 1.419 . S
C1243 C1244 1.362 . S
C1244 H1236 0.930 . S
C1244 C1243 1.362 . S
C1244 C1247 1.409 . S
C1245 H1237 0.930 . S
C1245 C1246 1.355 . S
C1245 C1247 1.415 . S
C1246 C1245 1.355 . S
C1246 C1248 1.419 . S
C1247 C1242 1.425 . S
C1247 C1244 1.409 . S
C1247 C1245 1.415 . S
C1248 H1238 0.930 . S
C1248 C1246 1.419 . S
C1248 C1249 1.362 . S
C1249 H1239 0.930 . S
C1249 C1242 1.409 . S
C1249 C1248 1.362 . S
H1250 C1256 0.930 . S
H1251 C1259 0.930 . S
H1252 C1260 0.930 . S
H1253 C1261 0.930 . S
H1254 C1264 0.930 . S
H1255 C1265 0.930 . S
C1256 H1250 0.930 . S
C1256 C1257 1.355 . S
C1256 C1258 1.415 . S
C1257 C1256 1.355 . S
C1257 C1259 1.419 . S
C1258 C1256 1.415 . S
C1258 C1263 1.425 . S
C1258 C1265 1.409 . S
C1259 H1251 0.930 . S
C1259 C1257 1.419 . S
C1259 C1260 1.362 . S
C1260 H1252 0.930 . S
C1260 C1259 1.362 . S
C1260 C1263 1.409 . S
C1261 H1253 0.930 . S
C1261 C1262 1.355 . S
C1261 C1263 1.415 . S
C1262 C1261 1.355 . S
C1262 C1264 1.419 . S
C1263 C1258 1.425 . S
C1263 C1260 1.409 . S
C1263 C1261 1.415 . S
C1264 H1254 0.930 . S
C1264 C1262 1.419 . S
C1264 C1265 1.362 . S
C1265 H1255 0.930 . S
C1265 C1258 1.409 . S
C1265 C1264 1.362 . S
H1266 C1272 0.930 . S
H1267 C1275 0.930 . S
H1268 C1276 0.930 . S
H1269 C1277 0.930 . S
H1270 C1280 0.930 . S
H1271 C1281 0.930 . S
C1272 H1266 0.930 . S
C1272 C1273 1.355 . S
C1272 C1274 1.415 . S
C1273 C1272 1.355 . S
C1273 C1275 1.419 . S
C1274 C1272 1.415 . S
C1274 C1279 1.425 . S
C1274 C1281 1.409 . S
C1275 H1267 0.930 . S
C1275 C1273 1.419 . S
C1275 C1276 1.362 . S
C1276 H1268 0.930 . S
C1276 C1275 1.362 . S
C1276 C1279 1.409 . S
C1277 H1269 0.930 . S
C1277 C1278 1.355 . S
C1277 C1279 1.415 . S
C1278 C1277 1.355 . S
C1278 C1280 1.419 . S
C1279 C1274 1.425 . S
C1279 C1276 1.409 . S
C1279 C1277 1.415 . S
C1280 H1270 0.930 . S
C1280 C1278 1.419 . S
C1280 C1281 1.362 . S
C1281 H1271 0.930 . S
C1281 C1274 1.409 . S
C1281 C1280 1.362 . S
H1282 C1288 0.930 . S
H1283 C1291 0.930 . S
H1284 C1292 0.930 . S
H1285 C1293 0.930 . S
H1286 C1296 0.930 . S
H1287 C1297 0.930 . S
C1288 H1282 0.930 . S
C1288 C1289 1.355 . S
C1288 C1290 1.415 . S
C1289 C1288 1.355 . S
C1289 C1291 1.419 . S
C1290 C1288 1.415 . S
C1290 C1295 1.425 . S
C1290 C1297 1.409 . S
C1291 H1283 0.930 . S
C1291 C1289 1.419 . S
C1291 C1292 1.362 . S
C1292 H1284 0.930 . S
C1292 C1291 1.362 . S
C1292 C1295 1.409 . S
C1293 H1285 0.930 . S
C1293 C1294 1.355 . S
C1293 C1295 1.415 . S
C1294 C1293 1.355 . S
C1294 C1296 1.419 . S
C1295 C1290 1.425 . S
C1295 C1292 1.409 . S
C1295 C1293 1.415 . S
C1296 H1286 0.930 . S
C1296 C1294 1.419 . S
C1296 C1297 1.362 . S
C1297 H1287 0.930 . S
C1297 C1290 1.409 . S
C1297 C1296 1.362 . S
H1298 C1304 0.930 . S
H1299 C1307 0.930 . S
H1300 C1308 0.930 . S
H1301 C1309 0.930 . S
H1302 C1312 0.930 . S
H1303 C1313 0.930 . S
C1304 H1298 0.930 . S
C1304 C1305 1.355 . S
C1304 C1306 1.415 . S
C1305 C1304 1.355 . S
C1305 C1307 1.419 . S
C1306 C1304 1.415 . S
C1306 C1311 1.425 . S
C1306 C1313 1.409 . S
C1307 H1299 0.930 . S
C1307 C1305 1.419 . S
C1307 C1308 1.362 . S
C1308 H1300 0.930 . S
C1308 C1307 1.362 . S
C1308 C1311 1.409 . S
C1309 H1301 0.930 . S
C1309 C1310 1.355 . S
C1309 C1311 1.415 . S
C1310 C1309 1.355 . S
C1310 C1312 1.419 . S
C1311 C1306 1.425 . S
C1311 C1308 1.409 . S
C1311 C1309 1.415 . S
C1312 H1302 0.930 . S
C1312 C1310 1.419 . S
C1312 C1313 1.362 . S
C1313 H1303 0.930 . S
C1313 C1306 1.409 . S
C1313 C1312 1.362 . S
H1314 C1320 0.930 . S
H1315 C1323 0.930 . S
H1316 C1324 0.930 . S
H1317 C1325 0.930 . S
H1318 C1328 0.930 . S
H1319 C1329 0.930 . S
C1320 H1314 0.930 . S
C1320 C1321 1.355 . S
C1320 C1322 1.415 . S
C1321 C1320 1.355 . S
C1321 C1323 1.419 . S
C1322 C1320 1.415 . S
C1322 C1327 1.425 . S
C1322 C1329 1.409 . S
C1323 H1315 0.930 . S
C1323 C1321 1.419 . S
C1323 C1324 1.362 . S
C1324 H1316 0.930 . S
C1324 C1323 1.362 . S
C1324 C1327 1.409 . S
C1325 H1317 0.930 . S
C1325 C1326 1.355 . S
C1325 C1327 1.415 . S
C1326 C1325 1.355 . S
C1326 C1328 1.419 . S
C1327 C1322 1.425 . S
C1327 C1324 1.409 . S
C1327 C1325 1.415 . S
C1328 H1318 0.930 . S
C1328 C1326 1.419 . S
C1328 C1329 1.362 . S
C1329 H1319 0.930 . S
C1329 C1322 1.409 . S
C1329 C1328 1.362 . S
H1330 C1336 0.930 . S
H1331 C1339 0.930 . S
H1332 C1340 0.930 . S
H1333 C1341 0.930 . S
H1334 C1344 0.930 . S
H1335 C1345 0.930 . S
C1336 H1330 0.930 . S
C1336 C1337 1.355 . S
C1336 C1338 1.415 . S
C1337 C1336 1.355 . S
C1337 C1339 1.419 . S
C1338 C1336 1.415 . S
C1338 C1343 1.425 . S
C1338 C1345 1.409 . S
C1339 H1331 0.930 . S
C1339 C1337 1.419 . S
C1339 C1340 1.362 . S
C1340 H1332 0.930 . S
C1340 C1339 1.362 . S
C1340 C1343 1.409 . S
C1341 H1333 0.930 . S
C1341 C1342 1.355 . S
C1341 C1343 1.415 . S
C1342 C1341 1.355 . S
C1342 C1344 1.419 . S
C1343 C1338 1.425 . S
C1343 C1340 1.409 . S
C1343 C1341 1.415 . S
C1344 H1334 0.930 . S
C1344 C1342 1.419 . S
C1344 C1345 1.362 . S
C1345 H1335 0.930 . S
C1345 C1338 1.409 . S
C1345 C1344 1.362 . S
H1346 C1352 0.930 . S
H1347 C1355 0.930 . S
H1348 C1356 0.930 . S
H1349 C1357 0.930 . S
H1350 C1360 0.930 . S
H1351 C1361 0.930 . S
C1352 H1346 0.930 . S
C1352 C1353 1.355 . S
C1352 C1354 1.415 . S
C1353 C1352 1.355 . S
C1353 C1355 1.419 . S
C1354 C1352 1.415 . S
C1354 C1359 1.425 . S
C1354 C1361 1.409 . S
C1355 H1347 0.930 . S
C1355 C1353 1.419 . S
C1355 C1356 1.362 . S
C1356 H1348 0.930 . S
C1356 C1355 1.362 . S
C1356 C1359 1.409 . S
C1357 H1349 0.930 . S
C1357 C1358 1.355 . S
C1357 C1359 1.415 . S
C1358 C1357 1.355 . S
C1358 C1360 1.419 . S
C1359 C1354 1.425 . S
C1359 C1356 1.409 . S
C1359 C1357 1.415 . S
C1360 H1350 0.930 . S
C1360 C1358 1.419 . S
C1360 C1361 1.362 . S
C1361 H1351 0.930 . S
C1361 C1354 1.409 . S
C1361 C1360 1.362 . S
H1362 C1368 0.930 . S
H1363 C1371 0.930 . S
H1364 C1372 0.930 . S
H1365 C1373 0.930 . S
H1366 C1376 0.930 . S
H1367 C1377 0.930 . S
C1368 H1362 0.930 . S
C1368 C1369 1.355 . S
C1368 C1370 1.415 . S
C1369 C1368 1.355 . S
C1369 C1371 1.419 . S
C1370 C1368 1.415 . S
C1370 C1375 1.425 . S
C1370 C1377 1.409 . S
C1371 H1363 0.930 . S
C1371 C1369 1.419 . S
C1371 C1372 1.362 . S
C1372 H1364 0.930 . S
C1372 C1371 1.362 . S
C1372 C1375 1.409 . S
C1373 H1365 0.930 . S
C1373 C1374 1.355 . S
C1373 C1375 1.415 . S
C1374 C1373 1.355 . S
C1374 C1376 1.419 . S
C1375 C1370 1.425 . S
C1375 C1372 1.409 . S
C1375 C1373 1.415 . S
C1376 H1366 0.930 . S
C1376 C1374 1.419 . S
C1376 C1377 1.362 . S
C1377 H1367 0.930 . S
C1377 C1370 1.409 . S
C1377 C1376 1.362 . S
H1378 C1384 0.930 . S
H1379 C1387 0.930 . S
H1380 C1388 0.930 . S
H1381 C1389 0.930 . S
H1382 C1392 0.930 . S
H1383 C1393 0.930 . S
C1384 H1378 0.930 . S
C1384 C1385 1.355 . S
C1384 C1386 1.415 . S
C1385 C1384 1.355 . S
C1385 C1387 1.419 . S
C1386 C1384 1.415 . S
C1386 C1391 1.425 . S
C1386 C1393 1.409 . S
C1387 H1379 0.930 . S
C1387 C1385 1.419 . S
C1387 C1388 1.362 . S
C1388 H1380 0.930 . S
C1388 C1387 1.362 . S
C1388 C1391 1.409 . S
C1389 H1381 0.930 . S
C1389 C1390 1.355 . S
C1389 C1391 1.415 . S
C1390 C1389 1.355 . S
C1390 C1392 1.419 . S
C1391 C1386 1.425 . S
C1391 C1388 1.409 . S
C1391 C1389 1.415 . S
C1392 H1382 0.930 . S
C1392 C1390 1.419 . S
C1392 C1393 1.362 . S
C1393 H1383 0.930 . S
C1393 C1386 1.409 . S
C1393 C1392 1.362 . S
H1394 C1400 0.930 . S
H1395 C1403 0.930 . S
H1396 C1404 0.930 . S
H1397 C1405 0.930 . S
H1398 C1408 0.930 . S
H1399 C1409 0.930 . S
C1400 H1394 0.930 . S
C1400 C1401 1.355 . S
C1400 C1402 1.415 . S
C1401 C1400 1.355 . S
C1401 C1403 1.419 . S
C1402 C1400 1.415 . S
C1402 C1407 1.425 . S
C1402 C1409 1.409 . S
C1403 H1395 0.930 . S
C1403 C1401 1.419 . S
C1403 C1404 1.362 . S
C1404 H1396 0.930 . S
C1404 C1403 1.362 . S
C1404 C1407 1.409 . S
C1405 H1397 0.930 . S
C1405 C1406 1.355 . S
C1405 C1407 1.415 . S
C1406 C1405 1.355 . S
C1406 C1408 1.419 . S
C1407 C1402 1.425 . S
C1407 C1404 1.409 . S
C1407 C1405 1.415 . S
C1408 H1398 0.930 . S
C1408 C1406 1.419 . S
C1408 C1409 1.362 . S
C1409 H1399 0.930 . S
C1409 C1402 1.409 . S
C1409 C1408 1.362 . S
H1410 C1416 0.930 . S
H1411 C1419 0.930 . S
H1412 C1420 0.930 . S
H1413 C1421 0.930 . S
H1414 C1424 0.930 . S
H1415 C1425 0.930 . S
C1416 H1410 0.930 . S
C1416 C1417 1.355 . S
C1416 C1418 1.415 . S
C1417 C1416 1.355 . S
C1417 C1419 1.419 . S
C1418 C1416 1.415 . S
C1418 C1423 1.425 . S
C1418 C1425 1.409 . S
C1419 H1411 0.930 . S
C1419 C1417 1.419 . S
C1419 C1420 1.362 . S
C1420 H1412 0.930 . S
C1420 C1419 1.362 . S
C1420 C1423 1.409 . S
C1421 H1413 0.930 . S
C1421 C1422 1.355 . S
C1421 C1423 1.415 . S
C1422 C1421 1.355 . S
C1422 C1424 1.419 . S
C1423 C1418 1.425 . S
C1423 C1420 1.409 . S
C1423 C1421 1.415 . S
C1424 H1414 0.930 . S
C1424 C1422 1.419 . S
C1424 C1425 1.362 . S
C1425 H1415 0.930 . S
C1425 C1418 1.409 . S
C1425 C1424 1.362 . S
H1426 C1432 0.930 . S
H1427 C1435 0.930 . S
H1428 C1436 0.930 . S
H1429 C1437 0.930 . S
H1430 C1440 0.930 . S
H1431 C1441 0.930 . S
C1432 H1426 0.930 . S
C1432 C1433 1.355 . S
C1432 C1434 1.415 . S
C1433 C1432 1.355 . S
C1433 C1435 1.419 . S
C1434 C1432 1.415 . S
C1434 C1439 1.425 . S
C1434 C1441 1.409 . S
C1435 H1427 0.930 . S
C1435 C1433 1.419 . S
C1435 C1436 1.362 . S
C1436 H1428 0.930 . S
C1436 C1435 1.362 . S
C1436 C1439 1.409 . S
C1437 H1429 0.930 . S
C1437 C1438 1.355 . S
C1437 C1439 1.415 . S
C1438 C1437 1.355 . S
C1438 C1440 1.419 . S
C1439 C1434 1.425 . S
C1439 C1436 1.409 . S
C1439 C1437 1.415 . S
C1440 H1430 0.930 . S
C1440 C1438 1.419 . S
C1440 C1441 1.362 . S
C1441 H1431 0.930 . S
C1441 C1434 1.409 . S
C1441 C1440 1.362 . S
H1442 C1448 0.930 . S
H1443 C1451 0.930 . S
H1444 C1452 0.930 . S
H1445 C1453 0.930 . S
H1446 C1456 0.930 . S
H1447 C1457 0.930 . S
C1448 H1442 0.930 . S
C1448 C1449 1.355 . S
C1448 C1450 1.415 . S
C1449 C1448 1.355 . S
C1449 C1451 1.419 . S
C1450 C1448 1.415 . S
C1450 C1455 1.425 . S
C1450 C1457 1.409 . S
C1451 H1443 0.930 . S
C1451 C1449 1.419 . S
C1451 C1452 1.362 . S
C1452 H1444 0.930 . S
C1452 C1451 1.362 . S
C1452 C1455 1.409 . S
C1453 H1445 0.930 . S
C1453 C1454 1.355 . S
C1453 C1455 1.415 . S
C1454 C1453 1.355 . S
C1454 C1456 1.419 . S
C1455 C1450 1.425 . S
C1455 C1452 1.409 . S
C1455 C1453 1.415 . S
C1456 H1446 0.930 . S
C1456 C1454 1.419 . S
C1456 C1457 1.362 . S
C1457 H1447 0.930 . S
C1457 C1450 1.409 . S
C1457 C1456 1.362 . S
C601 C177 1.641 . S
C606 C237 1.664 . S
C617 C190 1.759 . S
C622 C277 1.759 . S
C633 C164 1.567 . S
C638 C329 1.553 . S
C649 C151 1.462 . S
C654 C289 1.452 1_556 S
C670 C317 1.502 . S
C665 C125 1.507 . S
C681 C138 1.378 . S
C686 C249 1.395 1_556 S
C702 C256 1.661 . S
C697 C147 1.661 . S
C718 C296 1.646 . S
C713 C121 1.611 . S
C729 C134 1.649 . S
C734 C316 1.693 1_556 S
C745 C173 1.434 . S
C750 C276 1.494 . S
C761 C186 1.421 . S
C766 C336 1.477 . S
C782 C236 1.495 . S
C777 C160 1.441 . S
C798 C357 1.670 . S
C793 C21 1.671 . S
C809 C34 1.759 . S
C814 C397 1.757 . S
C825 C8 1.563 . S
C830 C449 1.564 . S
C841 C229 1.486 . S
C846 C409 1.488 . S
C857 C203 1.505 . S
C862 C437 1.508 . S
C873 C216 1.363 . S
C878 C369 1.386 . S
C889 C225 1.627 . S
C894 C376 1.681 . S
C905 C199 1.614 . S
C910 C416 1.673 . S
C926 C436 1.657 . S
C921 C212 1.605 . S
C937 C17 1.468 . S
C942 C396 1.500 . S
C958 C456 1.479 . S
C953 C30 1.394 1_455 S
C969 C4 1.441 . S
C974 C356 1.495 . S
C990 C477 1.664 . S
C985 C99 1.642 . S
C1001 C112 1.777 . S
C1006 C517 1.775 . S
C1022 C569 1.590 . S
C1017 C86 1.576 . S
C1038 C529 1.455 . S
C1033 C73 1.492 . S
C1054 C557 1.513 . S
C1049 C47 1.505 . S
C1065 C60 1.367 . S
C1070 C489 1.390 . S
C1081 C69 1.604 . S
C1086 C496 1.661 . S
C1097 C43 1.575 . S
C1102 C536 1.661 . S
C1118 C556 1.685 . S
C1113 C56 1.620 . S
C1129 C95 1.509 . S
C1134 C516 1.542 . S
C1145 C108 1.427 . S
C1150 C576 1.480 . S
C1161 C82 1.490 . S
C1166 C476 1.513 . S
C1177 C204 1.510 . S
C1182 C260 1.468 . S
C1198 C300 1.901 . S
C1193 C217 1.935 . S
C1209 C230 1.549 . S
C1214 C323 1.575 . S
C1225 C87 1.731 . S
C1230 C283 1.742 . S
C1241 C100 1.671 . S
C1246 C340 1.649 . S
C1262 C243 1.327 . S
C1257 C113 1.342 . S
C1273 C48 1.514 . S
C1278 C380 1.480 . S
C1289 C61 1.899 . S
C1294 C420 1.853 . S
C1305 C74 1.542 . S
C1310 C443 1.553 . S
C1321 C165 1.739 . S
C1326 C403 1.728 . S
C1342 C460 1.626 . S
C1337 C178 1.654 . S
C1353 C191 1.308 . S
C1358 C363 1.338 . S
C1369 C126 1.551 . S
C1374 C500 1.526 . S
C1385 C139 1.899 . S
C1390 C540 1.852 . S
C1406 C563 1.554 . S
C1401 C152 1.545 . S
C1417 C9 1.735 . S
C1422 C523 1.727 . S
C1433 C22 1.654 . S
C1438 C580 1.626 . S
C1449 C35 1.340 . S
C1454 C483 1.326 . S
