# Generated by pormake.
# Topology pyr, (3,6)-cn, num edge types: 1
# Building blocks:
#     Node 0, Type 0, BuildingBlock: CUQRIR_clean_linker_1, # of connection points: 3
#     Node 1, Type 0, BuildingBlock: CUQRIR_clean_linker_1, # of connection points: 3
#     Node 2, Type 0, BuildingBlock: CUQRIR_clean_linker_1, # of connection points: 3
#     Node 3, Type 0, BuildingBlock: CUQRIR_clean_linker_1, # of connection points: 3
#     Node 4, Type 0, BuildingBlock: CUQRIR_clean_linker_1, # of connection points: 3
#     Node 5, Type 0, BuildingBlock: CUQRIR_clean_linker_1, # of connection points: 3
#     Node 6, Type 0, BuildingBlock: CUQRIR_clean_linker_1, # of connection points: 3
#     Node 7, Type 0, BuildingBlock: CUQRIR_clean_linker_1, # of connection points: 3
#     Node 8, Type 1, BuildingBlock: BETFAJ_clean_sbu_0, # of connection points: 6
#     Node 9, Type 1, BuildingBlock: BETFAJ_clean_sbu_0, # of connection points: 6
#     Node 10, Type 1, BuildingBlock: BETFAJ_clean_sbu_0, # of connection points: 6
#     Node 11, Type 1, BuildingBlock: BETFAJ_clean_sbu_0, # of connection points: 6
#     Edge 12, Type (0, 1), BuildingBlock: AJUNOK_clean_linker_0, # of connection points: 2
#     Edge 13, Type (0, 1), BuildingBlock: AJUNOK_clean_linker_0, # of connection points: 2
#     Edge 14, Type (0, 1), BuildingBlock: AJUNOK_clean_linker_0, # of connection points: 2
#     Edge 15, Type (0, 1), BuildingBlock: AJUNOK_clean_linker_0, # of connection points: 2
#     Edge 16, Type (0, 1), BuildingBlock: AJUNOK_clean_linker_0, # of connection points: 2
#     Edge 17, Type (0, 1), BuildingBlock: AJUNOK_clean_linker_0, # of connection points: 2
#     Edge 18, Type (0, 1), BuildingBlock: AJUNOK_clean_linker_0, # of connection points: 2
#     Edge 19, Type (0, 1), BuildingBlock: AJUNOK_clean_linker_0, # of connection points: 2
#     Edge 20, Type (0, 1), BuildingBlock: AJUNOK_clean_linker_0, # of connection points: 2
#     Edge 21, Type (0, 1), BuildingBlock: AJUNOK_clean_linker_0, # of connection points: 2
#     Edge 22, Type (0, 1), BuildingBlock: AJUNOK_clean_linker_0, # of connection points: 2
#     Edge 23, Type (0, 1), BuildingBlock: AJUNOK_clean_linker_0, # of connection points: 2
#     Edge 24, Type (0, 1), BuildingBlock: AJUNOK_clean_linker_0, # of connection points: 2
#     Edge 25, Type (0, 1), BuildingBlock: AJUNOK_clean_linker_0, # of connection points: 2
#     Edge 26, Type (0, 1), BuildingBlock: AJUNOK_clean_linker_0, # of connection points: 2
#     Edge 27, Type (0, 1), BuildingBlock: AJUNOK_clean_linker_0, # of connection points: 2
#     Edge 28, Type (0, 1), BuildingBlock: AJUNOK_clean_linker_0, # of connection points: 2
#     Edge 29, Type (0, 1), BuildingBlock: AJUNOK_clean_linker_0, # of connection points: 2
#     Edge 30, Type (0, 1), BuildingBlock: AJUNOK_clean_linker_0, # of connection points: 2
#     Edge 31, Type (0, 1), BuildingBlock: AJUNOK_clean_linker_0, # of connection points: 2
#     Edge 32, Type (0, 1), BuildingBlock: AJUNOK_clean_linker_0, # of connection points: 2
#     Edge 33, Type (0, 1), BuildingBlock: AJUNOK_clean_linker_0, # of connection points: 2
#     Edge 34, Type (0, 1), BuildingBlock: AJUNOK_clean_linker_0, # of connection points: 2
#     Edge 35, Type (0, 1), BuildingBlock: AJUNOK_clean_linker_0, # of connection points: 2
# Relax obj value: 0.302
# Max RMSD: 0.274
# Mean RMSD: 0.177
data_MOF--net-pyr--node1-BETFAJ_clean_sbu_0--node2-CUQRIR_clean_linker_1--edge1-AJUNOK_clean_linker_0
_symmetry_space_group_name_H-M    P1
_symmetry_Int_Tables_number       1
_symmetry_cell_setting            triclinic
loop_
_symmetry_equiv_pos_as_xyz
'x, y, z'
_cell_length_a     25.177788
_cell_length_b     26.064482
_cell_length_c     23.535878
_cell_angle_alpha  89.711098
_cell_angle_beta   89.502874
_cell_angle_gamma 108.01125
loop_
_atom_site_label
_atom_site_type_symbol
_atom_site_fract_x
_atom_site_fract_y
_atom_site_fract_z
_atom_type_partial_charge
C0 C 0.47051 0.50308 0.27507 0.0
N1 N 0.48967 0.46756 0.30517 0.0
N2 N 0.44588 0.48223 0.22582 0.0
C3 C 0.48461 0.56219 0.28827 0.0
C4 C 0.45949 0.43624 0.22168 0.0
N5 N 0.48528 0.4271 0.26896 0.0
C6 C 0.44554 0.39897 0.17159 0.0
H7 H 0.44579 0.57275 0.29647 0.0
H8 H 0.50535 0.58617 0.25065 0.0
H9 H 0.51299 0.57331 0.32515 0.0
H10 H 0.48413 0.39169 0.15548 0.0
H11 H 0.42658 0.41634 0.137 0.0
H12 H 0.41627 0.35935 0.18493 0.0
C13 C 0.22302 0.93189 0.73194 0.0
N14 N 0.21628 0.97915 0.74816 0.0
N15 N 0.22922 0.90246 0.77757 0.0
C16 C 0.23314 0.91852 0.67138 0.0
C17 C 0.2214 0.93208 0.82208 0.0
N18 N 0.21555 0.97965 0.80463 0.0
C19 C 0.23214 0.9198 0.88287 0.0
H20 H 0.1942 0.91147 0.64682 0.0
H21 H 0.24622 0.88167 0.66873 0.0
H22 H 0.26549 0.9531 0.65138 0.0
H23 H 0.27786 0.93174 0.89001 0.0
H24 H 0.21454 0.87595 0.89167 0.0
H25 H 0.21337 0.94206 0.91302 0.0
C26 C 0.64014 0.45099 0.91071 0.0
N27 N 0.67084 0.44695 0.95718 0.0
N28 N 0.65957 0.50054 0.8855 0.0
C29 C 0.58909 0.40724 0.89178 0.0
C30 C 0.70329 0.52673 0.91882 0.0
N31 N 0.71035 0.49483 0.96261 0.0
C32 C 0.74099 0.58301 0.90635 0.0
H33 H 0.60242 0.37631 0.86854 0.0
H34 H 0.56305 0.42334 0.8633 0.0
H35 H 0.56369 0.38723 0.9291 0.0
H36 H 0.72662 0.61216 0.93157 0.0
H37 H 0.73977 0.59339 0.8607 0.0
H38 H 0.78473 0.58724 0.91803 0.0
C39 C 0.8673 0.7677 0.40572 0.0
N40 N 0.91681 0.80461 0.38964 0.0
N41 N 0.83976 0.78812 0.4449 0.0
C42 C 0.84715 0.71038 0.38487 0.0
C43 C 0.87375 0.83909 0.45219 0.0
N44 N 0.92086 0.85001 0.41925 0.0
C45 C 0.86102 0.87837 0.4929 0.0
H46 H 0.84698 0.71014 0.33773 0.0
H47 H 0.80486 0.68812 0.40116 0.0
H48 H 0.8762 0.68857 0.39907 0.0
H49 H 0.81552 0.86777 0.50166 0.0
H50 H 0.8761 0.92013 0.47576 0.0
H51 H 0.8826 0.87728 0.53358 0.0
C52 C 0.60435 0.87537 0.97186 0.0
N53 N 0.64076 0.85656 0.94207 0.0
N54 N 0.59187 0.91527 0.94293 0.0
C55 C 0.58524 0.85931 1.03185 0.0
C56 C 0.62011 0.9179 0.89311 0.0
N57 N 0.65143 0.8841 0.89331 0.0
C58 C 0.62481 0.96042 0.84814 0.0
H59 H 0.58917 0.81919 1.04281 0.0
H60 H 0.5411 0.85828 1.03732 0.0
H61 H 0.61075 0.88996 1.06143 0.0
H62 H 0.66628 0.99162 0.85046 0.0
H63 H 0.59153 0.97977 0.85338 0.0
H64 H 0.62172 0.9419 0.80546 0.0
C65 C 0.89306 0.3901 0.57908 0.0
N66 N 0.92 0.36796 0.54092 0.0
N67 N 0.87246 0.42649 0.55377 0.0
C68 C 0.88391 0.37491 0.6409 0.0
C69 C 0.88996 0.42727 0.49907 0.0
N70 N 0.91818 0.39125 0.49089 0.0
C71 C 0.86785 0.45366 0.45129 0.0
H72 H 0.84011 0.34922 0.64791 0.0
H73 H 0.89 0.41189 0.6665 0.0
H74 H 0.9129 0.35317 0.65558 0.0
H75 H 0.84604 0.48181 0.46715 0.0
H76 H 0.90263 0.47686 0.4233 0.0
H77 H 0.83848 0.42215 0.42531 0.0
C78 C 0.3632 0.78968 0.31391 0.0
N79 N 0.41139 0.82461 0.33445 0.0
N80 N 0.34058 0.81311 0.273 0.0
C81 C 0.33738 0.73262 0.3348 0.0
C82 C 0.37634 0.86372 0.26905 0.0
N83 N 0.41923 0.87158 0.30627 0.0
C84 C 0.37094 0.90488 0.2259 0.0
H85 H 0.29241 0.71721 0.32411 0.0
H86 H 0.34214 0.73013 0.38146 0.0
H87 H 0.35923 0.70639 0.31443 0.0
H88 H 0.35151 0.93282 0.24677 0.0
H89 H 0.34449 0.88551 0.18973 0.0
H90 H 0.41236 0.92904 0.20887 0.0
C91 C 0.14235 0.47054 0.81582 0.0
N92 N 0.17697 0.46375 0.77307 0.0
N93 N 0.16139 0.52078 0.83954 0.0
C94 C 0.08698 0.42985 0.83032 0.0
C95 C 0.20901 0.54426 0.80887 0.0
N96 N 0.21837 0.51053 0.7686 0.0
C97 C 0.24811 0.60009 0.81939 0.0
H98 H 0.0677 0.40777 0.79174 0.0
H99 H 0.05795 0.4495 0.8496 0.0
H100 H 0.09357 0.40002 0.86102 0.0
H101 H 0.24481 0.61263 0.8639 0.0
H102 H 0.23738 0.62897 0.79033 0.0
H103 H 0.29204 0.60209 0.81042 0.0
Sm104 Sm 0.1118 0.18287 0.53015 0.0
Sm105 Sm 0.05593 0.13013 0.63468 0.0
C106 C 0.16838 0.24612 0.44788 0.0
C107 C 0.22504 0.28438 0.44688 0.0
C108 C 0.23873 0.32643 0.40724 0.0
C109 C 0.29221 0.36329 0.4061 0.0
C110 C 0.33327 0.35895 0.44462 0.0
C111 C 0.31934 0.31684 0.48481 0.0
C112 C 0.26534 0.27992 0.48615 0.0
C113 C 0.17281 0.13246 0.59444 0.0
C114 C 0.12471 0.25792 0.64715 0.0
C115 C 1.0188 1.06194 0.72045 0.0
C116 C 0.96565 1.02113 0.7347 0.0
C117 C 0.96386 0.98209 0.77633 0.0
C118 C 0.91246 0.9481 0.79598 0.0
C119 C 0.86239 0.95336 0.7746 0.0
C120 C 0.86454 0.98938 0.72947 0.0
C121 C 0.91595 1.02307 0.70955 0.0
C122 C 0.99306 0.18429 0.5823 0.0
C123 C 1.03667 1.05925 0.5125 0.0
O124 O 0.13226 0.25926 0.48008 0.0
O125 O 0.16519 0.1954 0.45281 0.0
O126 O 0.14633 0.16252 0.61266 0.0
O127 O 0.16587 0.12601 0.54046 0.0
O128 O 0.12441 0.257 0.59083 0.0
O129 O 0.10872 0.21146 0.67567 0.0
O130 O 0.04624 1.05131 0.67718 0.0
O131 O 1.01818 0.11186 0.72064 0.0
O132 O 1.02061 0.15867 0.55535 0.0
O133 O 0.99168 0.17481 0.63628 0.0
O134 O 1.03839 1.05851 0.56893 0.0
O135 O 0.05407 0.10633 0.48549 0.0
H136 H 0.20812 0.33068 0.37698 0.0
H137 H 0.30175 0.39498 0.37418 0.0
H138 H 0.34974 0.31272 0.51531 0.0
H139 H 0.25501 0.24786 0.51772 0.0
H140 H 1.00198 0.97964 0.7955 0.0
H141 H 0.91168 0.9201 0.8304 0.0
H142 H 0.82652 0.99428 0.71249 0.0
H143 H 0.9168 1.05261 0.67669 0.0
Sm144 Sm 0.61809 0.17419 0.17094 0.0
Sm145 Sm 0.50649 0.16058 0.1534 0.0
C146 C 0.72768 0.19948 0.18472 0.0
C147 C 0.77772 0.23888 0.20658 0.0
C148 C 0.77751 0.29045 0.22271 0.0
C149 C 0.82081 0.32228 0.2559 0.0
C150 C 0.86377 0.30219 0.27363 0.0
C151 C 0.86671 0.25306 0.25233 0.0
C152 C 0.82384 0.22157 0.2187 0.0
C153 C 0.55246 1.07731 0.22133 0.0
C154 C 0.55528 0.23869 0.24945 0.0
C155 C 0.397 0.13448 0.13761 0.0
C156 C 0.36012 0.13373 0.08957 0.0
C157 C 0.30878 1.09286 0.08679 0.0
C158 C 0.27837 1.08454 1.03653 0.0
C159 C 0.29918 0.11695 0.98848 0.0
C160 C 0.3477 0.16136 0.99333 0.0
C161 C 0.37834 0.16942 1.04346 0.0
C162 C 0.57403 0.25473 0.09822 0.0
C163 C 0.5661 1.09553 1.06964 0.0
O164 O 0.70499 0.21273 0.13969 0.0
O165 O 0.69098 0.1733 0.22257 0.0
O166 O 0.54267 0.12234 0.225 0.0
O167 O 0.59549 1.08263 0.18881 0.0
O168 O 0.60166 0.24515 0.21997 0.0
O169 O 0.51528 0.19316 0.24319 0.0
O170 O 0.4247 1.09967 0.13527 0.0
O171 O 0.42759 0.18176 0.15472 0.0
O172 O 0.58183 0.20896 0.09751 0.0
O173 O 0.52949 0.2512 0.12753 0.0
O174 O 0.51802 1.09459 0.09275 0.0
O175 O 0.61206 0.13105 0.0869 0.0
H176 H 0.74198 0.30417 0.2136 0.0
H177 H 0.81734 0.35962 0.2731 0.0
H178 H 0.89892 0.23656 0.26662 0.0
H179 H 0.82438 0.18174 0.20629 0.0
H180 H 0.29414 1.06508 0.1221 0.0
H181 H 0.24141 1.0497 1.03368 0.0
H182 H 0.36442 0.18687 0.95678 0.0
H183 H 0.41793 0.20132 1.04487 0.0
Sm184 Sm 0.51681 0.60687 0.57036 0.0
Sm185 Sm 0.5398 0.69327 0.6399 0.0
C186 C 0.52327 0.52155 0.51398 0.0
C187 C 0.5703 0.49897 0.51389 0.0
C188 C 0.62338 0.53036 0.49432 0.0
C189 C 0.67052 0.51547 0.50707 0.0
C190 C 0.66583 0.46924 0.54015 0.0
C191 C 0.61235 0.43541 0.55558 0.0
C192 C 0.56495 0.45024 0.54266 0.0
C193 C 0.41935 0.60286 0.63027 0.0
C194 C 0.56924 0.59597 0.69578 0.0
C195 C 0.53994 0.77342 0.70826 0.0
C196 C 0.49525 0.77909 0.74494 0.0
C197 C 0.44107 0.74354 0.73806 0.0
C198 C 0.39548 0.75649 0.76017 0.0
C199 C 0.40386 0.80479 0.78997 0.0
C200 C 0.45866 0.83616 0.80356 0.0
C201 C 0.50431 0.82366 0.78045 0.0
C202 C 0.63604 0.69582 0.57806 0.0
C203 C 0.4904 0.71026 0.51408 0.0
O204 O 0.53257 0.56888 0.49017 0.0
O205 O 0.4968 0.51789 0.5624 0.0
O206 O 0.46788 0.61454 0.651 0.0
O207 O 0.42197 0.59605 0.5759 0.0
O208 O 0.57372 0.58592 0.64112 0.0
O209 O 0.54468 0.63203 0.70848 0.0
O210 O 0.56084 0.73546 0.72255 0.0
O211 O 0.52927 0.77342 0.65415 0.0
O212 O 0.58735 0.68494 0.55889 0.0
O213 O 0.63502 0.70573 0.63169 0.0
O214 O 0.4922 0.72446 0.56817 0.0
O215 O 0.50261 0.66582 0.50148 0.0
H216 H 0.62913 0.56794 0.47152 0.0
H217 H 0.71089 0.54089 0.49197 0.0
H218 H 0.60735 0.39883 0.57995 0.0
H219 H 0.52448 0.4252 0.55796 0.0
H220 H 0.43375 0.70847 0.7111 0.0
H221 H 0.35395 0.73178 0.74853 0.0
H222 H 0.46606 0.87324 0.82723 0.0
H223 H 0.54609 0.85085 0.78674 0.0
Sm224 Sm 1.03212 0.61502 0.15034 0.0
Sm225 Sm 1.02449 0.69883 1.07873 0.0
C226 C 0.07089 0.54428 0.20433 0.0
C227 C 0.12512 0.53328 0.20228 0.0
C228 C 0.16087 0.54817 0.15466 0.0
C229 C 0.21259 0.53831 0.15355 0.0
C230 C 0.22978 0.51382 0.20028 0.0
C231 C 0.19444 0.5004 0.24845 0.0
C232 C 0.14267 0.50985 0.24931 0.0
C233 C 0.98854 0.68757 0.21051 0.0
C234 C 0.14142 0.71896 0.13946 0.0
C235 C 0.98924 0.7716 1.02468 0.0
C236 C 0.93269 0.77542 1.01517 0.0
C237 C 0.89074 0.75813 1.0572 0.0
C238 C 0.83722 0.76177 1.04791 0.0
C239 C 0.8244 0.78185 0.9961 0.0
C240 C 0.86604 0.79815 0.95368 0.0
C241 C 0.91976 0.79498 0.96318 0.0
C242 C 0.07699 0.63441 1.01979 0.0
C243 C 0.91386 0.59045 0.08961 0.0
O244 O 1.04012 0.53258 0.15901 0.0
O245 O 0.07183 0.59053 0.22572 0.0
O246 O 1.02859 0.69978 0.17492 0.0
O247 O 0.97053 0.63522 0.2155 0.0
O248 O 0.12439 0.66606 0.13768 0.0
O249 O 0.10678 0.74517 0.12367 0.0
O250 O 1.00681 0.7772 1.07696 0.0
O251 O 1.00114 0.73241 0.99874 0.0
O252 O 1.0346 0.61697 1.05283 0.0
O253 O 0.09248 0.68684 1.01826 0.0
O254 O 0.93176 0.64344 0.08379 0.0
O255 O 0.94749 0.56588 0.11161 0.0
H256 H 0.14898 0.56774 0.11844 0.0
H257 H 0.23896 0.54953 0.11604 0.0
H258 H 0.20714 0.48311 0.28593 0.0
H259 H 0.11664 0.49936 0.28707 0.0
H260 H 0.8994 0.74211 0.09742 0.0
H261 H 0.80588 0.74914 1.08128 0.0
H262 H 0.85745 0.81474 0.91375 0.0
H263 H 0.95134 0.80818 0.9301 0.0
C264 C 0.43837 0.48218 0.39128 0.0
C265 C 0.47705 0.45906 0.36624 0.0
C266 C 0.39526 0.45169 0.42646 0.0
C267 C 0.39031 0.39786 0.43896 0.0
H268 H 0.43457 0.52027 0.37774 0.0
H269 H 0.36152 0.46776 0.43696 0.0
S270 S 0.50791 0.34094 0.42977 0.0
N271 N 0.52875 0.39705 0.39132 0.0
N272 N 0.44408 0.33558 0.45255 0.0
C273 C 0.43796 0.38152 0.43028 0.0
C274 C 0.48302 0.4139 0.39567 0.0
C275 C 0.20052 1.04493 0.87329 0.0
C276 C 0.23666 1.02723 0.83835 0.0
C277 C 0.22137 1.07867 0.91975 0.0
C278 C 0.2789 1.09578 0.9319 0.0
H279 H 0.15583 1.02901 0.86744 0.0
H280 H 0.19212 1.08844 0.94848 0.0
S281 S 0.39004 1.06045 0.85178 0.0
N282 N 0.33185 1.02934 0.81825 0.0
N283 N 0.37142 1.09381 0.90369 0.0
C284 C 0.31552 1.08098 0.89477 0.0
C285 C 0.29426 1.04626 0.84858 0.0
C286 C 0.6154 0.56623 0.84532 0.0
C287 C 0.63656 0.52262 0.83759 0.0
C288 C 0.59383 0.58889 0.79957 0.0
C289 C 0.59289 0.56979 0.74318 0.0
H290 H 0.61534 0.58286 0.88738 0.0
H291 H 0.57806 0.62222 0.80873 0.0
S292 S 0.6464 0.45776 0.69975 0.0
N293 N 0.65673 0.46203 0.76902 0.0
N294 N 0.61734 0.50463 0.6831 0.0
C295 C 0.61481 0.5265 0.73488 0.0
C296 C 0.63622 0.50302 0.78185 0.0
C297 C 0.94283 0.79916 0.28772 0.0
C298 C 0.95316 0.79237 0.34596 0.0
C299 C 0.95677 0.76746 0.24407 0.0
C300 C 0.98027 0.72588 0.25635 0.0
H301 H 0.91965 0.82634 0.27623 0.0
H302 H 0.94586 0.77342 0.20067 0.0
S303 S 1.01955 0.69333 0.40071 0.0
N304 N 0.99264 0.7428 0.41179 0.0
N305 N 1.01682 0.68286 0.33145 0.0
C306 C 0.99333 0.72051 0.31384 0.0
C307 C 0.98057 0.75373 0.35782 0.0
C308 C 0.5606 0.38532 0.26337 0.0
C309 C 0.50485 0.38107 0.27619 0.0
C310 C 0.57811 0.33913 0.25994 0.0
C311 C 0.54031 0.28697 0.26901 0.0
H312 H 0.59002 0.4244 0.2531 0.0
H313 H 0.62074 0.34425 0.24663 0.0
S314 S 0.3906 0.25613 0.31037 0.0
N315 N 0.41289 0.32229 0.30183 0.0
N316 N 0.4452 0.23536 0.29749 0.0
C317 C 0.48507 0.28299 0.28566 0.0
C318 C 0.46735 0.32998 0.28819 0.0
C319 C 0.16191 1.00368 0.67292 0.0
C320 C 0.20706 1.01924 0.71046 0.0
C321 C 0.15318 1.03983 0.63279 0.0
C322 C 0.18735 1.09365 0.6312 0.0
H323 H 0.1333 0.96298 0.67453 0.0
H324 H 0.11845 1.02593 0.60412 0.0
S325 S 0.31496 0.15381 0.71435 0.0
N326 N 0.29119 1.09065 0.73688 0.0
N327 N 0.26982 0.16058 0.66668 0.0
C328 C 0.2329 0.10994 0.66763 0.0
C329 C 0.24382 1.07228 0.70635 0.0
C330 C 0.76447 0.56005 1.03397 0.0
C331 C 0.7546 0.51075 1.00489 0.0
C332 C 0.81466 0.58411 1.06334 0.0
C333 C 0.85717 0.55944 1.06665 0.0
H334 H 0.73423 0.58178 1.03123 0.0
H335 H 0.82092 0.62339 0.08209 0.0
S336 S 0.85083 0.42801 1.00175 0.0
N337 N 0.79115 0.43716 0.98354 0.0
N338 N 0.88385 0.48053 1.04081 0.0
C339 C 0.84623 0.50829 1.04109 0.0
C340 C 0.79547 0.4844 1.00999 0.0
C341 C 0.79018 0.75526 0.53601 0.0
C342 C 0.78894 0.76094 0.47657 0.0
C343 C 0.74084 0.73281 0.56815 0.0
C344 C 0.68805 0.715 0.54222 0.0
H345 H 0.82969 0.76913 0.55783 0.0
H346 H 0.74408 0.73028 0.61388 0.0
S347 S 0.66246 0.72006 0.38733 0.0
N348 N 0.73085 0.74673 0.39295 0.0
N349 N 0.63834 0.70342 0.45259 0.0
C350 C 0.68653 0.71926 0.48248 0.0
C351 C 0.73682 0.74255 0.44991 0.0
C352 C 0.3869 0.53547 0.18935 0.0
C353 C 0.39181 0.4867 0.21067 0.0
C354 C 0.33429 0.54333 0.1838 0.0
C355 C 0.28463 0.50284 0.19972 0.0
H356 H 0.42413 0.56835 0.1788 0.0
H357 H 0.33278 0.58215 0.16912 0.0
S358 S 0.27408 0.36567 0.2524 0.0
N359 N 0.34177 0.39627 0.24537 0.0
N360 N 0.24359 0.41025 0.23205 0.0
C361 C 0.28888 0.45295 0.21827 0.0
C362 C 0.34218 0.4451 0.2245 0.0
C363 C 0.62611 0.40278 1.04712 0.0
C364 C 0.65664 0.40142 0.99704 0.0
C365 C 0.60101 0.35556 1.07987 0.0
C366 C 0.60564 0.30464 1.06454 0.0
H367 H 0.61929 0.44022 1.0595 0.0
H368 H 0.57666 0.35884 0.11709 0.0
S369 S 0.68253 0.27954 0.93782 0.0
N370 N 0.69028 0.3448 0.93396 0.0
N371 N 0.64545 0.25703 0.99617 0.0
C372 C 0.63789 0.30325 1.01565 0.0
C373 C 0.66251 0.35118 0.98175 0.0
C374 C 0.99634 0.90619 0.47952 0.0
C375 C 0.96745 0.89968 0.42739 0.0
C376 C 1.01946 0.95735 0.50539 0.0
C377 C 1.01631 1.0058 0.48031 0.0
H378 H 0.99588 0.87053 0.50358 0.0
H379 H 1.0382 0.95854 0.5468 0.0
S380 S 0.94986 1.01298 0.34132 0.0
N381 N 0.94009 0.94778 0.35049 0.0
N382 N 0.98551 1.0434 0.39684 0.0
C383 C 0.99156 1.00052 0.42599 0.0
C384 C 0.96707 0.94806 0.4002 0.0
C385 C 0.32582 0.90409 0.76429 0.0
C386 C 0.27063 0.87518 0.77949 0.0
C387 C 0.36868 0.88149 0.77048 0.0
C388 C 0.3582 0.82911 0.79268 0.0
H389 H 0.33583 0.94479 0.74758 0.0
H390 H 0.41012 0.90487 0.75607 0.0
S391 S 0.2209 0.73793 0.84166 0.0
N392 N 0.2073 0.79264 0.81906 0.0
N393 N 0.28869 0.74942 0.83179 0.0
C394 C 0.30317 0.79987 0.80897 0.0
C395 C 0.2592 0.82315 0.80227 0.0
C396 C 0.70828 0.88443 0.80674 0.0
C397 C 0.70459 0.89719 0.86421 0.0
C398 C 0.76002 0.90077 0.77784 0.0
C399 C 0.80926 0.92972 0.80602 0.0
H400 H 0.67091 0.8627 0.78409 0.0
H401 H 0.76146 0.89161 0.73312 0.0
S402 S 0.82015 0.97537 0.95564 0.0
N403 N 0.75337 0.94243 0.94716 0.0
N404 N 0.85032 0.97166 0.89397 0.0
C405 C 0.80571 0.94206 0.86362 0.0
C406 C 0.75337 0.92627 0.89241 0.0
C407 C 0.87929 0.3133 0.43028 0.0
C408 C 0.91794 0.36467 0.4375 0.0
C409 C 0.86663 0.29147 0.37651 0.0
C410 C 0.89056 0.32117 0.32784 0.0
H411 H 0.85503 0.29171 0.46594 0.0
H412 H 0.83415 0.25304 0.37271 0.0
S413 S 0.99715 0.45558 0.32374 0.0
N414 N 0.98459 0.4423 0.3922 0.0
N415 N 0.95683 0.40283 0.28946 0.0
C416 C 0.93121 0.37143 0.33409 0.0
C417 C 0.94589 0.39281 0.38945 0.0
C418 C 0.43652 0.81691 0.4362 0.0
C419 C 0.44531 0.80918 0.37784 0.0
C420 C 0.45237 0.78632 0.47969 0.0
C421 C 0.47648 0.74507 0.46726 0.0
H422 H 0.41411 0.84464 0.4482 0.0
H423 H 0.44337 0.79359 0.52345 0.0
S424 S 0.51002 0.7097 0.32109 0.0
N425 N 0.48181 0.75833 0.31073 0.0
N426 N 0.51046 0.70088 0.3906 0.0
C427 C 0.48699 0.73831 0.409 0.0
C428 C 0.47177 0.7701 0.36514 0.0
C429 C 0.13129 0.59807 0.87602 0.0
C430 C 0.13618 0.54596 0.88411 0.0
C431 C 0.11202 0.62551 0.9196 0.0
C432 C 0.09447 0.60191 0.97355 0.0
H433 H 0.1431 0.61827 0.83546 0.0
H434 H 0.11061 0.66586 0.91063 0.0
S435 S 0.09651 0.46552 1.01754 0.0
N436 N 0.12175 0.47212 0.9519 0.0
N437 N 0.0815 0.52162 1.03141 0.0
C438 C 0.09687 0.54894 0.98167 0.0
C439 C 0.11845 0.52157 0.93779 0.0
C440 C 0.53099 0.96189 0.98999 0.0
C441 C 0.58376 0.96185 0.97015 0.0
C442 C 0.5246 1.00648 1.01984 0.0
C443 C 0.57085 1.05236 1.03053 0.0
H444 H 0.49493 0.9269 0.9834 0.0
H445 H 0.48358 1.00421 1.03616 0.0
S446 S 0.71782 1.07137 0.98549 0.0
N447 N 0.68254 1.0107 0.96315 0.0
N448 N 0.67101 1.09491 1.01596 0.0
C449 C 0.62346 1.05296 1.00888 0.0
C450 C 0.62981 1.00755 0.97973 0.0
C451 C 0.98971 0.3198 0.5297 0.0
C452 C 0.9366 0.32005 0.54825 0.0
C453 C 1.00642 0.27339 0.53544 0.0
C454 C 0.97042 0.22581 0.55967 0.0
H455 H 1.01888 0.35623 0.51206 0.0
H456 H 0.0487 0.27592 0.52407 0.0
S457 S 0.82386 0.20282 0.60575 0.0
N458 N 0.84534 0.26628 0.58389 0.0
N459 N 0.87784 0.18014 0.59746 0.0
C460 C 0.91629 0.22479 0.5755 0.0
C461 C 0.89905 0.27162 0.5691 0.0
C462 C 0.24711 0.81199 0.23871 0.0
C463 C 0.29146 0.7897 0.23873 0.0
C464 C 0.19994 0.7909 0.20412 0.0
C465 C 0.19524 0.74652 0.16834 0.0
H466 H 0.24882 0.84569 0.26612 0.0
H467 H 0.16609 0.80824 0.20702 0.0
S468 S 0.30318 0.67833 0.14771 0.0
N469 N 0.32999 0.72442 0.19619 0.0
N470 N 0.24134 0.6839 0.13227 0.0
C471 C 0.24018 0.72506 0.16692 0.0
C472 C 0.28821 0.7468 0.20178 0.0
C473 C 0.31605 0.51662 0.74154 0.0
C474 C 0.26508 0.52551 0.72829 0.0
C475 C 0.36578 0.54204 0.71031 0.0
C476 C 0.36659 0.57704 0.66398 0.0
H477 H 0.31791 0.49166 0.77791 0.0
H478 H 0.40394 0.53427 0.72263 0.0
S479 S 0.24519 0.61619 0.61405 0.0
N480 N 0.21984 0.57464 0.66788 0.0
N481 N 0.31154 0.61937 0.60737 0.0
C482 C 0.31574 0.58558 0.65 0.0
C483 C 0.26567 0.56084 0.68263 0.0
C484 C 0.70547 0.84068 1.01392 0.0
C485 C 0.67521 0.82546 0.96341 0.0
C486 C 0.75161 0.82331 1.02604 0.0
C487 C 0.7694 0.79044 0.98794 0.0
H488 H 0.69715 0.8704 1.04151 0.0
H489 H 0.776 0.83901 1.06338 0.0
S490 S 0.69824 0.73126 0.85554 0.0
N491 N 0.66125 0.76917 0.87966 0.0
N492 N 0.74879 0.73728 0.90179 0.0
C493 C 0.73678 0.77123 0.93987 0.0
C494 C 0.68935 0.78834 0.92798 0.0
C495 C 0.51054 0.92819 0.26926 0.0
C496 C 0.46514 0.92204 0.30694 0.0
C497 C 0.53966 0.97874 0.24409 0.0
C498 C 0.52472 1.02596 0.25488 0.0
H499 H 0.5198 0.89257 0.2545 0.0
H500 H 0.57212 0.97998 0.21314 0.0
S501 S 0.4133 1.03338 0.35564 0.0
N502 N 0.41068 0.96927 0.35796 0.0
N503 N 0.46461 1.06348 0.31099 0.0
C504 C 0.48245 1.02129 0.29594 0.0
C505 C 0.45339 0.96989 0.32207 0.0
C506 C 0.16357 0.3643 0.76763 0.0
C507 C 0.16973 0.4142 0.74003 0.0
C508 C 0.15011 0.31471 0.73771 0.0
C509 C 0.14199 0.31197 0.67823 0.0
H510 H 0.16842 0.36352 0.81325 0.0
H511 H 0.14547 0.27803 0.76175 0.0
S512 S 0.15058 0.43068 0.58557 0.0
N513 N 0.16435 0.45683 0.64957 0.0
N514 N 0.14067 0.36536 0.59335 0.0
C515 C 0.14854 0.36188 0.65009 0.0
C516 C 0.16194 0.41226 0.68077 0.0
C517 C 0.77056 0.39275 0.55475 0.0
C518 C 0.81985 0.43384 0.56828 0.0
C519 C 0.71984 0.40369 0.5491 0.0
C520 C 0.71683 0.45613 0.55706 0.0
H521 H 0.77252 0.35311 0.54352 0.0
H522 H 0.68386 0.3718 0.53443 0.0
S523 S 0.83238 0.57485 0.60413 0.0
N524 N 0.86166 0.52659 0.59652 0.0
N525 N 0.76576 0.54734 0.58863 0.0
C526 C 0.76484 0.49619 0.57631 0.0
C527 C 0.81654 0.48497 0.58139 0.0
loop_
_geom_bond_atom_site_label_1
_geom_bond_atom_site_label_2
_geom_bond_distance
_geom_bond_site_symmetry_2
_ccdc_geom_bond_type
C0 N1 1.317 . S
C0 N2 1.348 . S
C0 C3 1.485 . S
N1 C0 1.317 . S
N1 N5 1.370 . S
N2 C0 1.348 . S
N2 C4 1.346 . S
C3 C0 1.485 . S
C3 H7 0.960 . S
C3 H8 0.961 . S
C3 H9 0.960 . S
C4 N2 1.346 . S
C4 N5 1.307 . S
C4 C6 1.486 . S
N5 N1 1.370 . S
N5 C4 1.307 . S
C6 C4 1.486 . S
C6 H10 0.960 . S
C6 H11 0.960 . S
C6 H12 0.959 . S
H7 C3 0.960 . S
H8 C3 0.961 . S
H9 C3 0.960 . S
H10 C6 0.960 . S
H11 C6 0.960 . S
H12 C6 0.959 . S
C13 N14 1.317 . S
C13 N15 1.348 . S
C13 C16 1.485 . S
N14 C13 1.317 . S
N14 N18 1.370 . S
N15 C13 1.348 . S
N15 C17 1.346 . S
C16 C13 1.485 . S
C16 H20 0.960 . S
C16 H21 0.961 . S
C16 H22 0.960 . S
C17 N15 1.346 . S
C17 N18 1.307 . S
C17 C19 1.486 . S
N18 N14 1.370 . S
N18 C17 1.307 . S
C19 C17 1.486 . S
C19 H23 0.960 . S
C19 H24 0.960 . S
C19 H25 0.959 . S
H20 C16 0.960 . S
H21 C16 0.961 . S
H22 C16 0.960 . S
H23 C19 0.960 . S
H24 C19 0.960 . S
H25 C19 0.959 . S
C26 N27 1.317 . S
C26 N28 1.348 . S
C26 C29 1.485 . S
N27 C26 1.317 . S
N27 N31 1.370 . S
N28 C26 1.348 . S
N28 C30 1.346 . S
C29 C26 1.485 . S
C29 H33 0.960 . S
C29 H34 0.961 . S
C29 H35 0.960 . S
C30 N28 1.346 . S
C30 N31 1.307 . S
C30 C32 1.486 . S
N31 N27 1.370 . S
N31 C30 1.307 . S
C32 C30 1.486 . S
C32 H36 0.960 . S
C32 H37 0.960 . S
C32 H38 0.959 . S
H33 C29 0.960 . S
H34 C29 0.961 . S
H35 C29 0.960 . S
H36 C32 0.960 . S
H37 C32 0.960 . S
H38 C32 0.959 . S
C39 N40 1.317 . S
C39 N41 1.348 . S
C39 C42 1.485 . S
N40 C39 1.317 . S
N40 N44 1.370 . S
N41 C39 1.348 . S
N41 C43 1.346 . S
C42 C39 1.485 . S
C42 H46 0.960 . S
C42 H47 0.961 . S
C42 H48 0.960 . S
C43 N41 1.346 . S
C43 N44 1.307 . S
C43 C45 1.486 . S
N44 N40 1.370 . S
N44 C43 1.307 . S
C45 C43 1.486 . S
C45 H49 0.960 . S
C45 H50 0.960 . S
C45 H51 0.959 . S
H46 C42 0.960 . S
H47 C42 0.961 . S
H48 C42 0.960 . S
H49 C45 0.960 . S
H50 C45 0.960 . S
H51 C45 0.959 . S
C52 N53 1.317 . S
C52 N54 1.348 . S
C52 C55 1.485 . S
N53 C52 1.317 . S
N53 N57 1.370 . S
N54 C52 1.348 . S
N54 C56 1.346 . S
C55 C52 1.485 . S
C55 H59 0.960 . S
C55 H60 0.961 . S
C55 H61 0.960 . S
C56 N54 1.346 . S
C56 N57 1.307 . S
C56 C58 1.486 . S
N57 N53 1.370 . S
N57 C56 1.307 . S
C58 C56 1.486 . S
C58 H62 0.960 . S
C58 H63 0.960 . S
C58 H64 0.959 . S
H59 C55 0.960 . S
H60 C55 0.961 . S
H61 C55 0.960 . S
H62 C58 0.960 . S
H63 C58 0.960 . S
H64 C58 0.959 . S
C65 N66 1.317 . S
C65 N67 1.348 . S
C65 C68 1.485 . S
N66 C65 1.317 . S
N66 N70 1.370 . S
N67 C65 1.348 . S
N67 C69 1.346 . S
C68 C65 1.485 . S
C68 H72 0.960 . S
C68 H73 0.961 . S
C68 H74 0.960 . S
C69 N67 1.346 . S
C69 N70 1.307 . S
C69 C71 1.486 . S
N70 N66 1.370 . S
N70 C69 1.307 . S
C71 C69 1.486 . S
C71 H75 0.960 . S
C71 H76 0.960 . S
C71 H77 0.959 . S
H72 C68 0.960 . S
H73 C68 0.961 . S
H74 C68 0.960 . S
H75 C71 0.960 . S
H76 C71 0.960 . S
H77 C71 0.959 . S
C78 N79 1.317 . S
C78 N80 1.348 . S
C78 C81 1.485 . S
N79 C78 1.317 . S
N79 N83 1.370 . S
N80 C78 1.348 . S
N80 C82 1.346 . S
C81 C78 1.485 . S
C81 H85 0.960 . S
C81 H86 0.961 . S
C81 H87 0.960 . S
C82 N80 1.346 . S
C82 N83 1.307 . S
C82 C84 1.486 . S
N83 N79 1.370 . S
N83 C82 1.307 . S
C84 C82 1.486 . S
C84 H88 0.960 . S
C84 H89 0.960 . S
C84 H90 0.959 . S
H85 C81 0.960 . S
H86 C81 0.961 . S
H87 C81 0.960 . S
H88 C84 0.960 . S
H89 C84 0.960 . S
H90 C84 0.959 . S
C91 N92 1.317 . S
C91 N93 1.348 . S
C91 C94 1.485 . S
N92 C91 1.317 . S
N92 N96 1.370 . S
N93 C91 1.348 . S
N93 C95 1.346 . S
C94 C91 1.485 . S
C94 H98 0.960 . S
C94 H99 0.961 . S
C94 H100 0.960 . S
C95 N93 1.346 . S
C95 N96 1.307 . S
C95 C97 1.486 . S
N96 N92 1.370 . S
N96 C95 1.307 . S
C97 C95 1.486 . S
C97 H101 0.960 . S
C97 H102 0.960 . S
C97 H103 0.959 . S
H98 C94 0.960 . S
H99 C94 0.961 . S
H100 C94 0.960 . S
H101 C97 0.960 . S
H102 C97 0.960 . S
H103 C97 0.959 . S
Sm104 C106 2.846 . S
Sm104 O124 2.543 . S
Sm104 O125 2.450 . S
Sm104 O126 2.681 . S
Sm104 O127 2.464 . S
Sm104 O128 2.396 . S
Sm104 O132 2.386 . S
Sm104 O135 2.408 1_545 S
Sm105 C115 2.846 1_545 S
Sm105 O126 2.386 1_655 S
Sm105 O129 2.408 1_655 S
Sm105 O130 2.543 1_545 S
Sm105 O131 2.450 1_545 S
Sm105 O132 2.681 1_655 S
Sm105 O133 2.464 . S
Sm105 O134 2.396 1_545 S
C106 Sm104 2.846 . S
C106 C107 1.506 . S
C106 O124 1.261 . S
C106 O125 1.242 . S
C107 C106 1.506 . S
C107 C108 1.358 . S
C107 C112 1.382 . S
C108 C107 1.358 . S
C108 C109 1.385 . S
C108 H136 0.930 . S
C109 C108 1.385 . S
C109 C110 1.395 . S
C109 H137 0.929 . S
C110 C109 1.395 . S
C110 C111 1.335 . S
C111 C110 1.335 . S
C111 C112 1.398 . S
C111 H138 0.930 . S
C112 C107 1.382 . S
C112 C111 1.398 . S
C112 H139 0.929 . S
C113 O126 1.271 1_565 S
C113 O127 1.251 1_565 S
C114 O128 1.252 . S
C114 O129 1.272 . S
C115 Sm105 2.846 1_565 S
C115 C116 1.506 . S
C115 O130 1.261 . S
C115 O131 1.242 . S
C116 C115 1.506 . S
C116 C117 1.358 . S
C116 C121 1.382 . S
C117 C116 1.358 . S
C117 C118 1.385 . S
C117 H140 0.930 . S
C118 C117 1.385 . S
C118 C119 1.395 . S
C118 H141 0.929 . S
C119 C118 1.395 . S
C119 C120 1.335 . S
C120 C119 1.335 . S
C120 C121 1.398 . S
C120 H142 0.930 . S
C121 C116 1.382 . S
C121 C120 1.398 . S
C121 H143 0.929 . S
C122 O132 1.271 1_655 S
C122 O133 1.251 . S
C123 O134 1.252 . S
C123 O135 1.272 1_655 S
O124 Sm104 2.543 . S
O124 C106 1.261 . S
O125 Sm104 2.450 . S
O125 C106 1.242 . S
O126 Sm104 2.681 . S
O126 Sm105 2.386 1_455 S
O126 C113 1.271 1_545 S
O127 Sm104 2.464 . S
O127 C113 1.251 1_545 S
O128 Sm104 2.396 . S
O128 C114 1.252 . S
O129 Sm105 2.408 1_455 S
O129 C114 1.272 . S
O130 Sm105 2.543 1_565 S
O130 C115 1.261 . S
O131 Sm105 2.450 1_565 S
O131 C115 1.242 . S
O132 Sm104 2.386 . S
O132 Sm105 2.681 1_455 S
O132 C122 1.271 1_455 S
O133 Sm105 2.464 . S
O133 C122 1.251 . S
O134 Sm105 2.396 1_565 S
O134 C123 1.252 . S
O135 Sm104 2.408 1_565 S
O135 C123 1.272 1_455 S
H136 C108 0.930 . S
H137 C109 0.929 . S
H138 C111 0.930 . S
H139 C112 0.929 . S
H140 C117 0.930 . S
H141 C118 0.929 . S
H142 C120 0.930 . S
H143 C121 0.929 . S
Sm144 C146 2.846 . S
Sm144 O164 2.543 . S
Sm144 O165 2.450 . S
Sm144 O166 2.681 . S
Sm144 O167 2.464 1_545 S
Sm144 O168 2.396 . S
Sm144 O172 2.386 . S
Sm144 O175 2.408 . S
Sm145 C155 2.846 1_554 S
Sm145 O166 2.386 . S
Sm145 O169 2.408 . S
Sm145 O170 2.543 1_544 S
Sm145 O171 2.450 1_554 S
Sm145 O172 2.681 . S
Sm145 O173 2.464 1_554 S
Sm145 O174 2.396 1_554 S
C146 Sm144 2.846 . S
C146 C147 1.506 . S
C146 O164 1.261 . S
C146 O165 1.242 . S
C147 C146 1.506 . S
C147 C148 1.358 . S
C147 C152 1.382 . S
C148 C147 1.358 . S
C148 C149 1.385 . S
C148 H176 0.930 . S
C149 C148 1.385 . S
C149 C150 1.395 . S
C149 H177 0.929 . S
C150 C149 1.395 . S
C150 C151 1.335 . S
C151 C150 1.335 . S
C151 C152 1.398 . S
C151 H178 0.930 . S
C152 C147 1.382 . S
C152 C151 1.398 . S
C152 H179 0.929 . S
C153 O166 1.271 1_565 S
C153 O167 1.251 . S
C154 O168 1.252 . S
C154 O169 1.272 . S
C155 Sm145 2.846 1_556 S
C155 C156 1.506 1_545 S
C155 O170 1.261 1_545 S
C155 O171 1.242 . S
C156 C155 1.506 1_565 S
C156 C157 1.358 . S
C156 C161 1.382 1_565 S
C157 C156 1.358 . S
C157 C158 1.385 . S
C157 H180 0.930 . S
C158 C157 1.385 . S
C158 C159 1.395 . S
C158 H181 0.929 . S
C159 C158 1.395 . S
C159 C160 1.335 . S
C160 C159 1.335 . S
C160 C161 1.398 1_565 S
C160 H182 0.930 . S
C161 C156 1.382 1_545 S
C161 C160 1.398 1_545 S
C161 H183 0.929 . S
C162 O172 1.271 . S
C162 O173 1.251 1_554 S
C163 O174 1.252 . S
C163 O175 1.272 1_556 S
O164 Sm144 2.543 . S
O164 C146 1.261 . S
O165 Sm144 2.450 . S
O165 C146 1.242 . S
O166 Sm144 2.681 . S
O166 Sm145 2.386 . S
O166 C153 1.271 1_545 S
O167 Sm144 2.464 1_565 S
O167 C153 1.251 . S
O168 Sm144 2.396 . S
O168 C154 1.252 . S
O169 Sm145 2.408 . S
O169 C154 1.272 . S
O170 Sm145 2.543 1_566 S
O170 C155 1.261 1_565 S
O171 Sm145 2.450 1_556 S
O171 C155 1.242 . S
O172 Sm144 2.386 . S
O172 Sm145 2.681 . S
O172 C162 1.271 . S
O173 Sm145 2.464 1_556 S
O173 C162 1.251 1_556 S
O174 Sm145 2.396 1_556 S
O174 C163 1.252 . S
O175 Sm144 2.408 . S
O175 C163 1.272 1_554 S
H176 C148 0.930 . S
H177 C149 0.929 . S
H178 C151 0.930 . S
H179 C152 0.929 . S
H180 C157 0.930 . S
H181 C158 0.929 . S
H182 C160 0.930 . S
H183 C161 0.929 . S
Sm184 C186 2.846 . S
Sm184 O204 2.543 . S
Sm184 O205 2.450 . S
Sm184 O206 2.681 . S
Sm184 O207 2.464 . S
Sm184 O208 2.396 . S
Sm184 O212 2.386 . S
Sm184 O215 2.408 . S
Sm185 C195 2.846 . S
Sm185 O206 2.386 . S
Sm185 O209 2.408 . S
Sm185 O210 2.543 . S
Sm185 O211 2.450 . S
Sm185 O212 2.681 . S
Sm185 O213 2.464 . S
Sm185 O214 2.396 . S
C186 Sm184 2.846 . S
C186 C187 1.506 . S
C186 O204 1.261 . S
C186 O205 1.242 . S
C187 C186 1.506 . S
C187 C188 1.358 . S
C187 C192 1.382 . S
C188 C187 1.358 . S
C188 C189 1.385 . S
C188 H216 0.930 . S
C189 C188 1.385 . S
C189 C190 1.395 . S
C189 H217 0.929 . S
C190 C189 1.395 . S
C190 C191 1.335 . S
C191 C190 1.335 . S
C191 C192 1.398 . S
C191 H218 0.930 . S
C192 C187 1.382 . S
C192 C191 1.398 . S
C192 H219 0.929 . S
C193 O206 1.271 . S
C193 O207 1.251 . S
C194 O208 1.252 . S
C194 O209 1.272 . S
C195 Sm185 2.846 . S
C195 C196 1.506 . S
C195 O210 1.261 . S
C195 O211 1.242 . S
C196 C195 1.506 . S
C196 C197 1.358 . S
C196 C201 1.382 . S
C197 C196 1.358 . S
C197 C198 1.385 . S
C197 H220 0.930 . S
C198 C197 1.385 . S
C198 C199 1.395 . S
C198 H221 0.929 . S
C199 C198 1.395 . S
C199 C200 1.335 . S
C200 C199 1.335 . S
C200 C201 1.398 . S
C200 H222 0.930 . S
C201 C196 1.382 . S
C201 C200 1.398 . S
C201 H223 0.929 . S
C202 O212 1.271 . S
C202 O213 1.251 . S
C203 O214 1.252 . S
C203 O215 1.272 . S
O204 Sm184 2.543 . S
O204 C186 1.261 . S
O205 Sm184 2.450 . S
O205 C186 1.242 . S
O206 Sm184 2.681 . S
O206 Sm185 2.386 . S
O206 C193 1.271 . S
O207 Sm184 2.464 . S
O207 C193 1.251 . S
O208 Sm184 2.396 . S
O208 C194 1.252 . S
O209 Sm185 2.408 . S
O209 C194 1.272 . S
O210 Sm185 2.543 . S
O210 C195 1.261 . S
O211 Sm185 2.450 . S
O211 C195 1.242 . S
O212 Sm184 2.386 . S
O212 Sm185 2.681 . S
O212 C202 1.271 . S
O213 Sm185 2.464 . S
O213 C202 1.251 . S
O214 Sm185 2.396 . S
O214 C203 1.252 . S
O215 Sm184 2.408 . S
O215 C203 1.272 . S
H216 C188 0.930 . S
H217 C189 0.929 . S
H218 C191 0.930 . S
H219 C192 0.929 . S
H220 C197 0.930 . S
H221 C198 0.929 . S
H222 C200 0.930 . S
H223 C201 0.929 . S
Sm224 C226 2.846 . S
Sm224 O244 2.543 . S
Sm224 O245 2.450 . S
Sm224 O246 2.681 1_455 S
Sm224 O247 2.464 1_455 S
Sm224 O248 2.396 . S
Sm224 O252 2.386 1_554 S
Sm224 O255 2.408 1_455 S
Sm225 C235 2.858 . S
Sm225 O246 2.389 1_556 S
Sm225 O249 2.396 1_656 S
Sm225 O250 2.556 . S
Sm225 O251 2.457 . S
Sm225 O252 2.673 1_655 S
Sm225 O253 2.457 1_655 S
Sm225 O254 2.403 . S
C226 Sm224 2.846 . S
C226 C227 1.506 . S
C226 O244 1.261 . S
C226 O245 1.242 . S
C227 C226 1.506 . S
C227 C228 1.358 . S
C227 C232 1.382 . S
C228 C227 1.358 . S
C228 C229 1.385 . S
C228 H256 0.930 . S
C229 C228 1.385 . S
C229 C230 1.395 . S
C229 H257 0.929 . S
C230 C229 1.395 . S
C230 C231 1.335 . S
C231 C230 1.335 . S
C231 C232 1.398 . S
C231 H258 0.930 . S
C232 C227 1.382 . S
C232 C231 1.398 . S
C232 H259 0.929 . S
C233 O246 1.271 . S
C233 O247 1.251 . S
C234 O248 1.252 . S
C234 O249 1.272 . S
C235 Sm225 2.858 . S
C235 C236 1.506 . S
C235 O250 1.261 . S
C235 O251 1.242 . S
C236 C235 1.506 . S
C236 C237 1.358 . S
C236 C241 1.382 . S
C237 C236 1.358 . S
C237 C238 1.385 . S
C237 H260 0.930 . S
C238 C237 1.385 . S
C238 C239 1.395 . S
C238 H261 0.929 . S
C239 C238 1.395 . S
C239 C240 1.335 . S
C240 C239 1.335 . S
C240 C241 1.398 . S
C240 H262 0.930 . S
C241 C236 1.382 . S
C241 C240 1.398 . S
C241 H263 0.929 . S
C242 O252 1.271 . S
C242 O253 1.251 . S
C243 O254 1.252 . S
C243 O255 1.272 1_556 S
O244 Sm224 2.543 . S
O244 C226 1.261 . S
O245 Sm224 2.450 . S
O245 C226 1.242 . S
O246 Sm224 2.681 1_655 S
O246 Sm225 2.389 1_554 S
O246 C233 1.271 . S
O247 Sm224 2.464 1_655 S
O247 C233 1.251 . S
O248 Sm224 2.396 . S
O248 C234 1.252 . S
O249 Sm225 2.396 1_454 S
O249 C234 1.272 . S
O250 Sm225 2.556 . S
O250 C235 1.261 . S
O251 Sm225 2.457 . S
O251 C235 1.242 . S
O252 Sm224 2.386 1_556 S
O252 Sm225 2.673 1_455 S
O252 C242 1.271 . S
O253 Sm225 2.457 1_455 S
O253 C242 1.251 . S
O254 Sm225 2.403 . S
O254 C243 1.252 . S
O255 Sm224 2.408 1_655 S
O255 C243 1.272 1_554 S
H256 C228 0.930 . S
H257 C229 0.929 . S
H258 C231 0.930 . S
H259 C232 0.929 . S
H260 C237 0.930 . S
H261 C238 0.929 . S
H262 C240 0.930 . S
H263 C241 0.929 . S
C264 C265 1.369 . S
C264 C266 1.419 . S
C264 H268 0.930 . S
C265 C264 1.369 . S
C265 C274 1.429 . S
C266 C264 1.419 . S
C266 C267 1.363 . S
C266 H269 0.929 . S
C267 C266 1.363 . S
C267 C273 1.428 . S
H268 C264 0.930 . S
H269 C266 0.929 . S
S270 N271 1.613 . S
S270 N272 1.610 . S
N271 S270 1.613 . S
N271 C274 1.350 . S
N272 S270 1.610 . S
N272 C273 1.351 . S
C273 C267 1.428 . S
C273 N272 1.351 . S
C273 C274 1.434 . S
C274 C265 1.429 . S
C274 N271 1.350 . S
C274 C273 1.434 . S
C275 C276 1.369 . S
C275 C277 1.419 . S
C275 H279 0.930 . S
C276 C275 1.369 . S
C276 C285 1.429 . S
C277 C275 1.419 . S
C277 C278 1.363 . S
C277 H280 0.929 . S
C278 C277 1.363 . S
C278 C284 1.428 . S
H279 C275 0.930 . S
H280 C277 0.929 . S
S281 N282 1.613 . S
S281 N283 1.610 . S
N282 S281 1.613 . S
N282 C285 1.350 . S
N283 S281 1.610 . S
N283 C284 1.351 . S
C284 C278 1.428 . S
C284 N283 1.351 . S
C284 C285 1.434 . S
C285 C276 1.429 . S
C285 N282 1.350 . S
C285 C284 1.434 . S
C286 C287 1.369 . S
C286 C288 1.419 . S
C286 H290 0.930 . S
C287 C286 1.369 . S
C287 C296 1.429 . S
C288 C286 1.419 . S
C288 C289 1.363 . S
C288 H291 0.929 . S
C289 C288 1.363 . S
C289 C295 1.428 . S
H290 C286 0.930 . S
H291 C288 0.929 . S
S292 N293 1.613 . S
S292 N294 1.610 . S
N293 S292 1.613 . S
N293 C296 1.350 . S
N294 S292 1.610 . S
N294 C295 1.351 . S
C295 C289 1.428 . S
C295 N294 1.351 . S
C295 C296 1.434 . S
C296 C287 1.429 . S
C296 N293 1.350 . S
C296 C295 1.434 . S
C297 C298 1.369 . S
C297 C299 1.419 . S
C297 H301 0.930 . S
C298 C297 1.369 . S
C298 C307 1.429 . S
C299 C297 1.419 . S
C299 C300 1.363 . S
C299 H302 0.929 . S
C300 C299 1.363 . S
C300 C306 1.428 . S
H301 C297 0.930 . S
H302 C299 0.929 . S
S303 N304 1.613 . S
S303 N305 1.610 . S
N304 S303 1.613 . S
N304 C307 1.350 . S
N305 S303 1.610 . S
N305 C306 1.351 . S
C306 C300 1.428 . S
C306 N305 1.351 . S
C306 C307 1.434 . S
C307 C298 1.429 . S
C307 N304 1.350 . S
C307 C306 1.434 . S
C308 C309 1.369 . S
C308 C310 1.419 . S
C308 H312 0.930 . S
C309 C308 1.369 . S
C309 C318 1.429 . S
C310 C308 1.419 . S
C310 C311 1.363 . S
C310 H313 0.929 . S
C311 C310 1.363 . S
C311 C317 1.428 . S
H312 C308 0.930 . S
H313 C310 0.929 . S
S314 N315 1.613 . S
S314 N316 1.610 . S
N315 S314 1.613 . S
N315 C318 1.350 . S
N316 S314 1.610 . S
N316 C317 1.351 . S
C317 C311 1.428 . S
C317 N316 1.351 . S
C317 C318 1.434 . S
C318 C309 1.429 . S
C318 N315 1.350 . S
C318 C317 1.434 . S
C319 C320 1.369 . S
C319 C321 1.419 . S
C319 H323 0.930 . S
C320 C319 1.369 . S
C320 C329 1.429 . S
C321 C319 1.419 . S
C321 C322 1.363 . S
C321 H324 0.929 . S
C322 C321 1.363 . S
C322 C328 1.428 1_565 S
H323 C319 0.930 . S
H324 C321 0.929 . S
S325 N326 1.613 1_545 S
S325 N327 1.610 . S
N326 S325 1.613 1_565 S
N326 C329 1.350 . S
N327 S325 1.610 . S
N327 C328 1.351 . S
C328 C322 1.428 1_545 S
C328 N327 1.351 . S
C328 C329 1.434 1_545 S
C329 C320 1.429 . S
C329 N326 1.350 . S
C329 C328 1.434 1_565 S
C330 C331 1.369 . S
C330 C332 1.419 . S
C330 H334 0.930 . S
C331 C330 1.369 . S
C331 C340 1.429 . S
C332 C330 1.419 . S
C332 C333 1.363 . S
C332 H335 0.929 . S
C333 C332 1.363 . S
C333 C339 1.428 . S
H334 C330 0.930 . S
H335 C332 0.929 . S
S336 N337 1.613 . S
S336 N338 1.610 . S
N337 S336 1.613 . S
N337 C340 1.350 . S
N338 S336 1.610 . S
N338 C339 1.351 . S
C339 C333 1.428 . S
C339 N338 1.351 . S
C339 C340 1.434 . S
C340 C331 1.429 . S
C340 N337 1.350 . S
C340 C339 1.434 . S
C341 C342 1.369 . S
C341 C343 1.419 . S
C341 H345 0.930 . S
C342 C341 1.369 . S
C342 C351 1.429 . S
C343 C341 1.419 . S
C343 C344 1.363 . S
C343 H346 0.929 . S
C344 C343 1.363 . S
C344 C350 1.428 . S
H345 C341 0.930 . S
H346 C343 0.929 . S
S347 N348 1.613 . S
S347 N349 1.610 . S
N348 S347 1.613 . S
N348 C351 1.350 . S
N349 S347 1.610 . S
N349 C350 1.351 . S
C350 C344 1.428 . S
C350 N349 1.351 . S
C350 C351 1.434 . S
C351 C342 1.429 . S
C351 N348 1.350 . S
C351 C350 1.434 . S
C352 C353 1.369 . S
C352 C354 1.419 . S
C352 H356 0.930 . S
C353 C352 1.369 . S
C353 C362 1.429 . S
C354 C352 1.419 . S
C354 C355 1.363 . S
C354 H357 0.929 . S
C355 C354 1.363 . S
C355 C361 1.428 . S
H356 C352 0.930 . S
H357 C354 0.929 . S
S358 N359 1.613 . S
S358 N360 1.610 . S
N359 S358 1.613 . S
N359 C362 1.350 . S
N360 S358 1.610 . S
N360 C361 1.351 . S
C361 C355 1.428 . S
C361 N360 1.351 . S
C361 C362 1.434 . S
C362 C353 1.429 . S
C362 N359 1.350 . S
C362 C361 1.434 . S
C363 C364 1.369 . S
C363 C365 1.419 . S
C363 H367 0.930 . S
C364 C363 1.369 . S
C364 C373 1.429 . S
C365 C363 1.419 . S
C365 C366 1.363 . S
C365 H368 0.939 . S
C366 C365 1.363 . S
C366 C372 1.428 . S
H367 C363 0.930 . S
H368 C365 0.939 . S
S369 N370 1.613 . S
S369 N371 1.610 . S
N370 S369 1.613 . S
N370 C373 1.350 . S
N371 S369 1.610 . S
N371 C372 1.351 . S
C372 C366 1.428 . S
C372 N371 1.351 . S
C372 C373 1.434 . S
C373 C364 1.429 . S
C373 N370 1.350 . S
C373 C372 1.434 . S
C374 C375 1.369 . S
C374 C376 1.419 . S
C374 H378 0.930 . S
C375 C374 1.369 . S
C375 C384 1.429 . S
C376 C374 1.419 . S
C376 C377 1.363 . S
C376 H379 0.929 1_655 S
C377 C376 1.363 . S
C377 C383 1.428 . S
H378 C374 0.930 . S
H379 C376 0.929 1_455 S
S380 N381 1.613 . S
S380 N382 1.610 . S
N381 S380 1.613 . S
N381 C384 1.350 . S
N382 S380 1.610 . S
N382 C383 1.351 . S
C383 C377 1.428 . S
C383 N382 1.351 . S
C383 C384 1.434 . S
C384 C375 1.429 . S
C384 N381 1.350 . S
C384 C383 1.434 . S
C385 C386 1.369 . S
C385 C387 1.419 . S
C385 H389 0.930 . S
C386 C385 1.369 . S
C386 C395 1.429 . S
C387 C385 1.419 . S
C387 C388 1.363 . S
C387 H390 0.929 . S
C388 C387 1.363 . S
C388 C394 1.428 . S
H389 C385 0.930 . S
H390 C387 0.929 . S
S391 N392 1.613 . S
S391 N393 1.610 . S
N392 S391 1.613 . S
N392 C395 1.350 . S
N393 S391 1.610 . S
N393 C394 1.351 . S
C394 C388 1.428 . S
C394 N393 1.351 . S
C394 C395 1.434 . S
C395 C386 1.429 . S
C395 N392 1.350 . S
C395 C394 1.434 . S
C396 C397 1.369 . S
C396 C398 1.419 . S
C396 H400 0.930 . S
C397 C396 1.369 . S
C397 C406 1.429 . S
C398 C396 1.419 . S
C398 C399 1.363 . S
C398 H401 0.929 . S
C399 C398 1.363 . S
C399 C405 1.428 . S
H400 C396 0.930 . S
H401 C398 0.929 . S
S402 N403 1.613 . S
S402 N404 1.610 . S
N403 S402 1.613 . S
N403 C406 1.350 . S
N404 S402 1.610 . S
N404 C405 1.351 . S
C405 C399 1.428 . S
C405 N404 1.351 . S
C405 C406 1.434 . S
C406 C397 1.429 . S
C406 N403 1.350 . S
C406 C405 1.434 . S
C407 C408 1.369 . S
C407 C409 1.419 . S
C407 H411 0.930 . S
C408 C407 1.369 . S
C408 C417 1.429 . S
C409 C407 1.419 . S
C409 C410 1.363 . S
C409 H412 0.929 . S
C410 C409 1.363 . S
C410 C416 1.428 . S
H411 C407 0.930 . S
H412 C409 0.929 . S
S413 N414 1.613 . S
S413 N415 1.610 . S
N414 S413 1.613 . S
N414 C417 1.350 . S
N415 S413 1.610 . S
N415 C416 1.351 . S
C416 C410 1.428 . S
C416 N415 1.351 . S
C416 C417 1.434 . S
C417 C408 1.429 . S
C417 N414 1.350 . S
C417 C416 1.434 . S
C418 C419 1.369 . S
C418 C420 1.419 . S
C418 H422 0.930 . S
C419 C418 1.369 . S
C419 C428 1.429 . S
C420 C418 1.419 . S
C420 C421 1.363 . S
C420 H423 0.929 . S
C421 C420 1.363 . S
C421 C427 1.428 . S
H422 C418 0.930 . S
H423 C420 0.929 . S
S424 N425 1.613 . S
S424 N426 1.610 . S
N425 S424 1.613 . S
N425 C428 1.350 . S
N426 S424 1.610 . S
N426 C427 1.351 . S
C427 C421 1.428 . S
C427 N426 1.351 . S
C427 C428 1.434 . S
C428 C419 1.429 . S
C428 N425 1.350 . S
C428 C427 1.434 . S
C429 C430 1.369 . S
C429 C431 1.419 . S
C429 H433 0.930 . S
C430 C429 1.369 . S
C430 C439 1.429 . S
C431 C429 1.419 . S
C431 C432 1.363 . S
C431 H434 0.929 . S
C432 C431 1.363 . S
C432 C438 1.428 . S
H433 C429 0.930 . S
H434 C431 0.929 . S
S435 N436 1.613 . S
S435 N437 1.610 . S
N436 S435 1.613 . S
N436 C439 1.350 . S
N437 S435 1.610 . S
N437 C438 1.351 . S
C438 C432 1.428 . S
C438 N437 1.351 . S
C438 C439 1.434 . S
C439 C430 1.429 . S
C439 N436 1.350 . S
C439 C438 1.434 . S
C440 C441 1.369 . S
C440 C442 1.419 . S
C440 H444 0.930 . S
C441 C440 1.369 . S
C441 C450 1.429 . S
C442 C440 1.419 . S
C442 C443 1.363 . S
C442 H445 0.929 . S
C443 C442 1.363 . S
C443 C449 1.428 . S
H444 C440 0.930 . S
H445 C442 0.929 . S
S446 N447 1.613 1_554 S
S446 N448 1.610 . S
N447 S446 1.613 1_556 S
N447 C450 1.350 . S
N448 S446 1.610 . S
N448 C449 1.351 1_554 S
C449 C443 1.428 . S
C449 N448 1.351 1_556 S
C449 C450 1.434 . S
C450 C441 1.429 . S
C450 N447 1.350 . S
C450 C449 1.434 . S
C451 C452 1.369 . S
C451 C453 1.419 . S
C451 H455 0.930 . S
C452 C451 1.369 . S
C452 C461 1.429 . S
C453 C451 1.419 . S
C453 C454 1.363 . S
C453 H456 0.929 . S
C454 C453 1.363 . S
C454 C460 1.428 . S
H455 C451 0.930 . S
H456 C453 0.929 . S
S457 N458 1.613 . S
S457 N459 1.610 . S
N458 S457 1.613 . S
N458 C461 1.350 . S
N459 S457 1.610 . S
N459 C460 1.351 . S
C460 C454 1.428 . S
C460 N459 1.351 . S
C460 C461 1.434 . S
C461 C452 1.429 . S
C461 N458 1.350 . S
C461 C460 1.434 . S
C462 C463 1.369 . S
C462 C464 1.419 . S
C462 H466 0.930 . S
C463 C462 1.369 . S
C463 C472 1.429 . S
C464 C462 1.419 . S
C464 C465 1.363 . S
C464 H467 0.929 . S
C465 C464 1.363 . S
C465 C471 1.428 . S
H466 C462 0.930 . S
H467 C464 0.929 . S
S468 N469 1.613 . S
S468 N470 1.610 . S
N469 S468 1.613 . S
N469 C472 1.350 . S
N470 S468 1.610 . S
N470 C471 1.351 . S
C471 C465 1.428 . S
C471 N470 1.351 . S
C471 C472 1.434 . S
C472 C463 1.429 . S
C472 N469 1.350 . S
C472 C471 1.434 . S
C473 C474 1.369 . S
C473 C475 1.419 . S
C473 H477 0.930 . S
C474 C473 1.369 . S
C474 C483 1.429 . S
C475 C473 1.419 . S
C475 C476 1.363 . S
C475 H478 0.929 . S
C476 C475 1.363 . S
C476 C482 1.428 . S
H477 C473 0.930 . S
H478 C475 0.929 . S
S479 N480 1.613 . S
S479 N481 1.610 . S
N480 S479 1.613 . S
N480 C483 1.350 . S
N481 S479 1.610 . S
N481 C482 1.351 . S
C482 C476 1.428 . S
C482 N481 1.351 . S
C482 C483 1.434 . S
C483 C474 1.429 . S
C483 N480 1.350 . S
C483 C482 1.434 . S
C484 C485 1.369 . S
C484 C486 1.419 . S
C484 H488 0.930 . S
C485 C484 1.369 . S
C485 C494 1.429 . S
C486 C484 1.419 . S
C486 C487 1.363 . S
C486 H489 0.929 . S
C487 C486 1.363 . S
C487 C493 1.428 . S
H488 C484 0.930 . S
H489 C486 0.929 . S
S490 N491 1.613 . S
S490 N492 1.610 . S
N491 S490 1.613 . S
N491 C494 1.350 . S
N492 S490 1.610 . S
N492 C493 1.351 . S
C493 C487 1.428 . S
C493 N492 1.351 . S
C493 C494 1.434 . S
C494 C485 1.429 . S
C494 N491 1.350 . S
C494 C493 1.434 . S
C495 C496 1.369 . S
C495 C497 1.419 . S
C495 H499 0.930 . S
C496 C495 1.369 . S
C496 C505 1.429 . S
C497 C495 1.419 . S
C497 C498 1.363 . S
C497 H500 0.929 . S
C498 C497 1.363 . S
C498 C504 1.428 . S
H499 C495 0.930 . S
H500 C497 0.929 . S
S501 N502 1.613 . S
S501 N503 1.610 . S
N502 S501 1.613 . S
N502 C505 1.350 . S
N503 S501 1.610 . S
N503 C504 1.351 . S
C504 C498 1.428 . S
C504 N503 1.351 . S
C504 C505 1.434 . S
C505 C496 1.429 . S
C505 N502 1.350 . S
C505 C504 1.434 . S
C506 C507 1.369 . S
C506 C508 1.419 . S
C506 H510 0.930 . S
C507 C506 1.369 . S
C507 C516 1.429 . S
C508 C506 1.419 . S
C508 C509 1.363 . S
C508 H511 0.929 . S
C509 C508 1.363 . S
C509 C515 1.428 . S
H510 C506 0.930 . S
H511 C508 0.929 . S
S512 N513 1.613 . S
S512 N514 1.610 . S
N513 S512 1.613 . S
N513 C516 1.350 . S
N514 S512 1.610 . S
N514 C515 1.351 . S
C515 C509 1.428 . S
C515 N514 1.351 . S
C515 C516 1.434 . S
C516 C507 1.429 . S
C516 N513 1.350 . S
C516 C515 1.434 . S
C517 C518 1.369 . S
C517 C519 1.419 . S
C517 H521 0.930 . S
C518 C517 1.369 . S
C518 C527 1.429 . S
C519 C517 1.419 . S
C519 C520 1.363 . S
C519 H522 0.929 . S
C520 C519 1.363 . S
C520 C526 1.428 . S
H521 C517 0.930 . S
H522 C519 0.929 . S
S523 N524 1.613 . S
S523 N525 1.610 . S
N524 S523 1.613 . S
N524 C527 1.350 . S
N525 S523 1.610 . S
N525 C526 1.351 . S
C526 C520 1.428 . S
C526 N525 1.351 . S
C526 C527 1.434 . S
C527 C518 1.429 . S
C527 N524 1.350 . S
C527 C526 1.434 . S
C265 N1 0.971 . S
C267 C110 0.998 . S
C276 N18 1.108 . S
C278 C159 1.176 . S
C289 C194 2.188 . S
C287 N28 2.245 . S
C298 N40 2.674 . S
C300 C233 2.685 . S
C311 C154 2.276 . S
C309 N5 2.182 . S
C322 C113 0.586 . S
C320 N14 0.528 . S
C333 C243 2.051 . S
C331 N31 2.062 . S
C344 C202 1.584 . S
C342 N41 1.602 . S
C353 N2 1.316 . S
C355 C230 1.363 . S
C366 C162 2.472 1_556 S
C364 N27 2.550 . S
C375 N44 2.438 . S
C377 C123 2.503 . S
C386 N15 0.952 . S
C388 C199 0.947 . S
C399 C119 1.499 . S
C397 N57 1.574 . S
C408 N70 0.978 . S
C410 C150 1.075 . S
C419 N79 2.381 . S
C421 C203 2.408 . S
C430 N93 2.507 . S
C432 C242 2.491 . S
C441 N54 1.858 . S
C443 C163 2.044 1_565 S
C454 C122 1.321 . S
C452 N66 1.421 . S
C465 C234 1.590 . S
C463 N80 1.658 . S
C476 C193 1.828 . S
C474 N96 1.834 . S
C485 N53 1.537 . S
C487 C239 1.548 . S
C498 C153 2.207 . S
C496 N83 2.215 . S
C509 C114 2.669 . S
C507 N92 2.663 . S
C518 N67 1.165 . S
C520 C190 1.200 . S
