# Generated by pormake.
# Topology zzz, (3,6)-cn, num edge types: 1
# Building blocks:
#     Node 0, Type 0, BuildingBlock: BELTOD_clean_linker_0, # of connection points: 3
#     Node 1, Type 0, BuildingBlock: BELTOD_clean_linker_0, # of connection points: 3
#     Node 2, Type 0, BuildingBlock: BELTOD_clean_linker_0, # of connection points: 3
#     Node 3, Type 0, BuildingBlock: BELTOD_clean_linker_0, # of connection points: 3
#     Node 4, Type 0, BuildingBlock: BELTOD_clean_linker_0, # of connection points: 3
#     Node 5, Type 0, BuildingBlock: BELTOD_clean_linker_0, # of connection points: 3
#     Node 6, Type 0, BuildingBlock: BELTOD_clean_linker_0, # of connection points: 3
#     Node 7, Type 0, BuildingBlock: BELTOD_clean_linker_0, # of connection points: 3
#     Node 8, Type 1, BuildingBlock: MIFKUJ_clean_sbu_0, # of connection points: 6
#     Node 9, Type 1, BuildingBlock: MIFKUJ_clean_sbu_0, # of connection points: 6
#     Node 10, Type 1, BuildingBlock: MIFKUJ_clean_sbu_0, # of connection points: 6
#     Node 11, Type 1, BuildingBlock: MIFKUJ_clean_sbu_0, # of connection points: 6
#     Edge 12, Type (0, 1), BuildingBlock: UVAHIK_clean_linker_0, # of connection points: 2
#     Edge 13, Type (0, 1), BuildingBlock: UVAHIK_clean_linker_0, # of connection points: 2
#     Edge 14, Type (0, 1), BuildingBlock: UVAHIK_clean_linker_0, # of connection points: 2
#     Edge 15, Type (0, 1), BuildingBlock: UVAHIK_clean_linker_0, # of connection points: 2
#     Edge 16, Type (0, 1), BuildingBlock: UVAHIK_clean_linker_0, # of connection points: 2
#     Edge 17, Type (0, 1), BuildingBlock: UVAHIK_clean_linker_0, # of connection points: 2
#     Edge 18, Type (0, 1), BuildingBlock: UVAHIK_clean_linker_0, # of connection points: 2
#     Edge 19, Type (0, 1), BuildingBlock: UVAHIK_clean_linker_0, # of connection points: 2
#     Edge 20, Type (0, 1), BuildingBlock: UVAHIK_clean_linker_0, # of connection points: 2
#     Edge 21, Type (0, 1), BuildingBlock: UVAHIK_clean_linker_0, # of connection points: 2
#     Edge 22, Type (0, 1), BuildingBlock: UVAHIK_clean_linker_0, # of connection points: 2
#     Edge 23, Type (0, 1), BuildingBlock: UVAHIK_clean_linker_0, # of connection points: 2
#     Edge 24, Type (0, 1), BuildingBlock: UVAHIK_clean_linker_0, # of connection points: 2
#     Edge 25, Type (0, 1), BuildingBlock: UVAHIK_clean_linker_0, # of connection points: 2
#     Edge 26, Type (0, 1), BuildingBlock: UVAHIK_clean_linker_0, # of connection points: 2
#     Edge 27, Type (0, 1), BuildingBlock: UVAHIK_clean_linker_0, # of connection points: 2
#     Edge 28, Type (0, 1), BuildingBlock: UVAHIK_clean_linker_0, # of connection points: 2
#     Edge 29, Type (0, 1), BuildingBlock: UVAHIK_clean_linker_0, # of connection points: 2
#     Edge 30, Type (0, 1), BuildingBlock: UVAHIK_clean_linker_0, # of connection points: 2
#     Edge 31, Type (0, 1), BuildingBlock: UVAHIK_clean_linker_0, # of connection points: 2
#     Edge 32, Type (0, 1), BuildingBlock: UVAHIK_clean_linker_0, # of connection points: 2
#     Edge 33, Type (0, 1), BuildingBlock: UVAHIK_clean_linker_0, # of connection points: 2
#     Edge 34, Type (0, 1), BuildingBlock: UVAHIK_clean_linker_0, # of connection points: 2
#     Edge 35, Type (0, 1), BuildingBlock: UVAHIK_clean_linker_0, # of connection points: 2
# Relax obj value: 0.281
# Max RMSD: 0.201
# Mean RMSD: 0.182
data_MOF--net-zzz--node1-MIFKUJ_clean_sbu_0--node2-BELTOD_clean_linker_0--edge1-UVAHIK_clean_linker_0
_symmetry_space_group_name_H-M    P1
_symmetry_Int_Tables_number       1
_symmetry_cell_setting            triclinic
loop_
_symmetry_equiv_pos_as_xyz
'x, y, z'
_cell_length_a     66.452949
_cell_length_b     67.650961
_cell_length_c     24.434069
_cell_angle_alpha  89.394182
_cell_angle_beta   89.724191
_cell_angle_gamma 90.613081
loop_
_atom_site_label
_atom_site_type_symbol
_atom_site_fract_x
_atom_site_fract_y
_atom_site_fract_z
_atom_type_partial_charge
P0 P 0.74113 0.53886 0.12151 0.0
H1 H 0.73884 0.55851 0.22738 0.0
H2 H 0.76366 0.57834 0.2766 0.0
H3 H 0.80072 0.58139 0.13067 0.0
H4 H 0.77544 0.56258 0.08145 0.0
H5 H 0.70001 0.52424 0.11378 0.0
H6 H 0.67214 0.53279 0.0541 0.0
H7 H 0.7077 0.58031 0.98252 0.0
H8 H 0.73568 0.57185 0.04373 0.0
H9 H 0.77246 0.51082 0.14805 0.0
H10 H 0.74789 0.53734 0.00201 0.0
O11 O 0.73296 0.52394 0.17193 0.0
H12 H 0.79951 0.49649 0.09376 0.0
H13 H 0.77509 0.52374 0.94804 0.0
C14 C 0.75566 0.55852 0.15142 0.0
C15 C 0.75202 0.56402 0.20562 0.0
C16 C 0.76631 0.57524 0.23378 0.0
C17 C 0.78454 0.58094 0.2082 0.0
C18 C 0.78696 0.57727 0.15196 0.0
C19 C 0.77253 0.56628 0.12373 0.0
C20 C 0.71983 0.54753 0.08349 0.0
C21 C 0.7017 0.53682 0.08633 0.0
C22 C 0.68574 0.54175 0.05221 0.0
C23 C 0.68774 0.55726 0.01383 0.0
C24 C 0.70579 0.56829 0.01179 0.0
C25 C 0.72169 0.56355 0.04682 0.0
C26 C 0.758 0.52497 0.07915 0.0
C27 C 0.77262 0.51319 0.10414 0.0
C28 C 0.78821 0.5052 0.07313 0.0
C29 C 0.78958 0.50907 0.01655 0.0
C30 C 0.77438 0.52021 0.99134 0.0
C31 C 0.75877 0.52811 0.02238 0.0
P32 P 0.03979 0.74321 0.14089 0.0
H33 H 0.03147 0.74521 0.25844 0.0
H34 H 0.0123 0.76872 0.3117 0.0
H35 H 0.98722 0.79277 0.16255 0.0
H36 H 0.00718 0.76969 0.10941 0.0
H37 H 0.05788 0.70596 0.11109 0.0
H38 H 0.04708 0.67898 0.05233 0.0
H39 H 0.99061 0.70836 0.0243 0.0
H40 H 0.0015 0.73536 0.08365 0.0
H41 H 0.06655 0.77626 0.1628 0.0
H42 H 0.03628 0.75185 0.02272 0.0
O43 O 0.05759 0.73514 0.18337 0.0
H44 H 0.07712 0.80498 0.10777 0.0
H45 H 0.04653 0.78055 0.96781 0.0
C46 C 0.02089 0.75578 0.17994 0.0
C47 C 0.02145 0.75517 0.23722 0.0
C48 C 0.01033 0.76862 0.26774 0.0
C49 C 0.9984 0.78289 0.24141 0.0
C50 C 0.99655 0.78225 0.18411 0.0
C51 C 0.00778 0.76888 0.15365 0.0
C52 C 0.03038 0.72252 0.10254 0.0
C53 C 0.04301 0.70645 0.09324 0.0
C54 C 0.03682 0.69101 0.05964 0.0
C55 C 0.01796 0.69151 0.03394 0.0
C56 C 0.00525 0.70762 0.04349 0.0
C57 C 0.01141 0.72299 0.07769 0.0
C58 C 0.05089 0.76179 0.09673 0.0
C59 C 0.0626 0.77685 0.11986 0.0
C60 C 0.06846 0.79333 0.08853 0.0
C61 C 0.0626 0.79506 0.0335 0.0
C62 C 0.05153 0.77953 0.00987 0.0
C63 C 0.04561 0.76309 0.04134 0.0
P64 P 0.7691 0.99573 0.18224 0.0
H65 H 0.77025 0.98065 0.29517 0.0
H66 H 0.7453 0.9621 0.34909 0.0
H67 H 0.71074 0.95206 0.20204 0.0
H68 H 0.73644 0.96923 0.14859 0.0
H69 H 0.81142 0.00738 0.17664 0.0
H70 H 0.83878 0.99795 0.11601 0.0
H71 H 0.80036 0.95361 0.04327 0.0
H72 H 0.77286 0.96317 0.10469 0.0
H73 H 0.73035 0.01376 0.20116 0.0
H74 H 0.76967 0.00455 0.06286 0.0
O75 O 0.77726 0.01232 0.22733 0.0
H76 H 0.70343 0.02363 0.13905 0.0
H77 H 0.74279 0.01433 0.0008 0.0
C78 C 0.75482 0.97686 0.21825 0.0
C79 C 0.75762 0.97385 0.27445 0.0
C80 C 0.74317 0.96341 0.30531 0.0
C81 C 0.72548 0.95616 0.28052 0.0
C82 C 0.72399 0.95739 0.22307 0.0
C83 C 0.73869 0.96742 0.19222 0.0
C84 C 0.79016 0.98588 0.14539 0.0
C85 C 0.80899 0.99529 0.14871 0.0
C86 C 0.82466 0.98984 0.11402 0.0
C87 C 0.82172 0.97504 0.07481 0.0
C88 C 0.80302 0.96513 0.07291 0.0
C89 C 0.78738 0.97045 0.10821 0.0
C90 C 0.75184 0.00794 0.13669 0.0
C91 C 0.73335 0.0143 0.15755 0.0
C92 C 0.71797 0.01985 0.12209 0.0
C93 C 0.72097 0.01944 0.06517 0.0
C94 C 0.74009 0.01477 0.04452 0.0
C95 C 0.75543 0.00901 0.08008 0.0
P96 P 0.41103 0.76688 0.12093 0.0
H97 H 0.39809 0.75172 0.22728 0.0
H98 H 0.41471 0.73075 0.2938 0.0
H99 H 0.47112 0.73923 0.20727 0.0
H100 H 0.45402 0.75969 0.13935 0.0
H101 H 0.40005 0.78631 0.0201 0.0
H102 H 0.41318 0.81525 0.97059 0.0
H103 H 0.4575 0.82414 0.09691 0.0
H104 H 0.44399 0.79526 0.14703 0.0
H105 H 0.3818 0.73524 0.09742 0.0
H106 H 0.44124 0.75336 0.04414 0.0
O107 O 0.38741 0.77176 0.1395 0.0
H108 H 0.38488 0.70461 0.04483 0.0
H109 H 0.44454 0.72266 0.99315 0.0
C110 C 0.42484 0.75764 0.17884 0.0
C111 C 0.41417 0.7497 0.2236 0.0
C112 C 0.42379 0.73763 0.26184 0.0
C113 C 0.44433 0.73315 0.256 0.0
C114 C 0.45526 0.74213 0.21276 0.0
C115 C 0.44555 0.75412 0.17428 0.0
C116 C 0.42124 0.78845 0.0867 0.0
C117 C 0.41257 0.7945 0.03723 0.0
C118 C 0.42002 0.81108 0.00912 0.0
C119 C 0.43638 0.82192 0.02989 0.0
C120 C 0.44501 0.81591 0.07975 0.0
C121 C 0.43733 0.79939 0.10831 0.0
C122 C 0.41119 0.74666 0.07395 0.0
C123 C 0.39528 0.73286 0.07341 0.0
C124 C 0.39706 0.71538 0.04365 0.0
C125 C 0.41497 0.71138 0.0154 0.0
C126 C 0.43061 0.72548 0.01485 0.0
C127 C 0.42869 0.74302 0.0437 0.0
P128 P 0.25007 0.39649 0.14798 0.0
H129 H 0.2405 0.37492 0.04771 0.0
H130 H 0.22144 0.38464 0.96674 0.0
H131 H 0.22174 0.44514 0.02224 0.0
H132 H 0.24138 0.43542 0.10151 0.0
H133 H 0.27699 0.37877 0.22643 0.0
H134 H 0.30885 0.38975 0.26526 0.0
H135 H 0.31078 0.43887 0.15083 0.0
H136 H 0.279 0.42743 0.11107 0.0
H137 H 0.20891 0.38836 0.18374 0.0
H138 H 0.2547 0.43268 0.21251 0.0
O139 O 0.24636 0.37213 0.15453 0.0
H140 H 0.18476 0.40771 0.23619 0.0
H141 H 0.2308 0.4519 0.26514 0.0
C142 C 0.24217 0.40441 0.08095 0.0
C143 C 0.23702 0.39038 0.0415 0.0
C144 C 0.22591 0.39594 0.99547 0.0
C145 C 0.21963 0.41561 0.98842 0.0
C146 C 0.22634 0.42988 0.0259 0.0
C147 C 0.23757 0.42432 0.07158 0.0
C148 C 0.27574 0.40213 0.16548 0.0
C149 C 0.28455 0.39156 0.20853 0.0
C150 C 0.30266 0.398 0.23116 0.0
C151 C 0.3122 0.41534 0.21166 0.0
C152 C 0.30387 0.42539 0.16653 0.0
C153 C 0.2857 0.41885 0.14372 0.0
C154 C 0.23371 0.40883 0.19514 0.0
C155 C 0.21391 0.40198 0.20253 0.0
C156 C 0.20013 0.41307 0.23239 0.0
C157 C 0.2059 0.43135 0.25464 0.0
C158 C 0.22588 0.43796 0.24806 0.0
C159 C 0.23964 0.42683 0.21845 0.0
P160 P 0.03588 0.25965 0.10997 0.0
H161 H 0.06243 0.24238 0.02818 0.0
H162 H 0.05576 0.21959 0.95442 0.0
H163 H 0.99196 0.22995 0.97157 0.0
H164 H 0.99874 0.25202 0.04749 0.0
H165 H 0.05647 0.29102 0.16778 0.0
H166 H 0.04615 0.32347 0.19775 0.0
H167 H 0.99066 0.31723 0.10812 0.0
H168 H 0.00137 0.28468 0.07661 0.0
H169 H 0.04743 0.2264 0.17966 0.0
H170 H 0.9935 0.25924 0.14584 0.0
O171 O 0.06036 0.25721 0.12328 0.0
H172 H 0.02809 0.20369 0.23821 0.0
H173 H 0.97408 0.23645 0.20403 0.0
C174 C 0.03111 0.249 0.04379 0.0
C175 C 0.04701 0.24023 0.01529 0.0
C176 C 0.04315 0.22715 0.97264 0.0
C177 C 0.02327 0.22259 0.95737 0.0
C178 C 0.00745 0.23272 0.98299 0.0
C179 C 0.01134 0.24568 0.02604 0.0
C180 C 0.02977 0.28532 0.11963 0.0
C181 C 0.04235 0.29677 0.15291 0.0
C182 C 0.03643 0.31541 0.17016 0.0
C183 C 0.01758 0.32289 0.15539 0.0
C184 C 0.00525 0.31177 0.12031 0.0
C185 C 0.01139 0.29317 0.10217 0.0
C186 C 0.02202 0.24474 0.15892 0.0
C187 C 0.03153 0.229 0.18565 0.0
C188 C 0.02045 0.21603 0.21918 0.0
C189 C 0.99959 0.21837 0.22583 0.0
C190 C 0.99013 0.23429 0.19954 0.0
C191 C 0.00128 0.24739 0.16647 0.0
P192 P 0.24146 0.09258 0.09298 0.0
H193 H 0.25935 0.11364 0.99908 0.0
H194 H 0.28467 0.10365 0.93309 0.0
H195 H 0.27737 0.04291 0.98729 0.0
H196 H 0.25341 0.05332 0.05616 0.0
H197 H 0.2075 0.11026 0.14825 0.0
H198 H 0.176 0.09631 0.18402 0.0
H199 H 0.18836 0.0413 0.1035 0.0
H200 H 0.21945 0.05555 0.06559 0.0
H201 H 0.28064 0.10548 0.13181 0.0
H202 H 0.23743 0.05946 0.17207 0.0
O203 O 0.24169 0.11725 0.09345 0.0
H204 H 0.30515 0.08984 0.19224 0.0
H205 H 0.26168 0.04397 0.23259 0.0
C206 C 0.25409 0.08421 0.03211 0.0
C207 C 0.26275 0.09809 0.99577 0.0
C208 C 0.27731 0.0923 0.95777 0.0
C209 C 0.2834 0.07246 0.95514 0.0
C210 C 0.27347 0.05839 0.98882 0.0
C211 C 0.25924 0.06426 0.02746 0.0
C212 C 0.21592 0.08402 0.10405 0.0
C213 C 0.20311 0.09547 0.13634 0.0
C214 C 0.18511 0.08748 0.15696 0.0
C215 C 0.17988 0.06772 0.14671 0.0
C216 C 0.19215 0.05657 0.11201 0.0
C217 C 0.20993 0.06475 0.09027 0.0
C218 C 0.25711 0.08384 0.14782 0.0
C219 C 0.2762 0.09239 0.15494 0.0
C220 C 0.2902 0.08341 0.18941 0.0
C221 C 0.28536 0.0656 0.21685 0.0
C222 C 0.26591 0.05756 0.21144 0.0
C223 C 0.25193 0.06656 0.17709 0.0
P224 P 0.48593 0.25767 0.09675 0.0
H225 H 0.45704 0.27773 0.0273 0.0
H226 H 0.46179 0.29668 0.9435 0.0
H227 H 0.52129 0.27233 0.92504 0.0
H228 H 0.51648 0.25358 0.01056 0.0
H229 H 0.46404 0.22028 0.10684 0.0
H230 H 0.4732 0.18845 0.14673 0.0
H231 H 0.53492 0.20856 0.15983 0.0
H232 H 0.52554 0.24054 0.12012 0.0
H233 H 0.50527 0.29553 0.06386 0.0
H234 H 0.49966 0.25946 0.21017 0.0
O235 O 0.46246 0.25987 0.12037 0.0
H236 H 0.5244 0.31993 0.11372 0.0
H237 H 0.51912 0.2842 0.26079 0.0
C238 C 0.48635 0.26413 0.02508 0.0
C239 C 0.47079 0.27575 0.00416 0.0
C240 C 0.47357 0.28667 0.95593 0.0
C241 C 0.49205 0.28629 0.92771 0.0
C242 C 0.50698 0.27321 0.94621 0.0
C243 C 0.50415 0.26222 0.99464 0.0
C244 C 0.49401 0.23289 0.11175 0.0
C245 C 0.47963 0.2177 0.11715 0.0
C246 C 0.48492 0.19944 0.13981 0.0
C247 C 0.50474 0.19606 0.15735 0.0
C248 C 0.51945 0.21084 0.14776 0.0
C249 C 0.51413 0.22909 0.12479 0.0
C250 C 0.5013 0.27533 0.13291 0.0
C251 C 0.50846 0.29254 0.10644 0.0
C252 C 0.51956 0.30658 0.13507 0.0
C253 C 0.52351 0.3039 0.19105 0.0
C254 C 0.51634 0.28665 0.21763 0.0
C255 C 0.50528 0.2725 0.18875 0.0
Zn256 Zn 0.98783 0.01604 0.56927 0.0
Zn257 Zn 0.01505 0.98599 0.62798 0.0
C258 C 0.98701 0.0454 0.64962 0.0
O259 O 0.96791 0.04038 0.64598 0.0
C260 C 0.01527 0.95453 0.55444 0.0
O261 O 0.03457 0.95742 0.56327 0.0
O262 O 0.97021 0.03284 0.52093 0.0
O263 O 0.00933 0.00517 0.51929 0.0
O264 O 0.03252 0.00452 0.58291 0.0
C265 C 0.98034 0.04413 0.48903 0.0
O266 O 6e-05 0.04338 0.4901 0.0
O267 O 0.99981 0.03621 0.62085 0.0
C268 C 0.03457 0.97077 0.7271 0.0
O269 O 0.02469 0.98466 0.75266 0.0
O270 O 0.03321 0.96952 0.67541 0.0
O271 O 0.99334 0.9963 0.67747 0.0
O272 O 0.97036 0.99703 0.61321 0.0
O273 O 0.00272 0.96597 0.57697 0.0
C274 C 0.02772 0.00644 0.53288 0.0
C275 C 0.97506 0.99452 0.66316 0.0
Zn276 Zn 0.48223 0.99777 0.56883 0.0
Zn277 Zn 0.52198 0.01039 0.62645 0.0
C278 C 0.45459 0.00505 0.65395 0.0
O279 O 0.45304 0.98575 0.64962 0.0
C280 C 0.54807 0.99949 0.5393 0.0
O281 O 0.54991 0.01883 0.53607 0.0
O282 O 0.4594 0.98784 0.5228 0.0
O283 O 0.49904 0.01552 0.51954 0.0
O284 O 0.51173 0.03411 0.58441 0.0
C285 C 0.45933 0.98848 0.47083 0.0
O286 O 0.476 0.99325 0.4445 0.0
O287 O 0.46728 0.01438 0.62392 0.0
C288 C 0.55147 0.00589 0.70649 0.0
O289 O 0.54365 0.988 0.70411 0.0
O290 O 0.54433 0.01941 0.67598 0.0
O291 O 0.5029 0.99465 0.67485 0.0
O292 O 0.49467 0.9746 0.60856 0.0
O293 O 0.536 0.99193 0.57438 0.0
C294 C 0.50614 0.03203 0.5351 0.0
C295 C 0.49777 0.9775 0.65915 0.0
Zn296 Zn 0.51661 0.4977 0.54583 0.0
Zn297 Zn 0.48815 0.52154 0.61467 0.0
C298 C 0.52438 0.46677 0.6235 0.0
O299 O 0.54296 0.4727 0.61384 0.0
C300 C 0.47623 0.5518 0.54571 0.0
O301 O 0.45932 0.54458 0.56605 0.0
O302 O 0.53483 0.48384 0.49331 0.0
O303 O 0.49089 0.50391 0.50549 0.0
O304 O 0.4721 0.49984 0.57912 0.0
C305 C 0.53247 0.48375 0.44178 0.0
O306 O 0.51854 0.4949 0.41978 0.0
O307 O 0.51001 0.47603 0.60097 0.0
C308 C 0.48076 0.55128 0.68649 0.0
O309 O 0.4986 0.55525 0.66543 0.0
O310 O 0.47177 0.53542 0.67253 0.0
O311 O 0.51363 0.51485 0.65409 0.0
O312 O 0.53285 0.5193 0.58199 0.0
O313 O 0.49263 0.54323 0.55748 0.0
C314 C 0.47428 0.49859 0.52751 0.0
C315 C 0.53032 0.52036 0.63338 0.0
Zn316 Zn 0.02021 0.49738 0.61584 0.0
Zn317 Zn 0.97978 0.52193 0.56277 0.0
C318 C 0.05225 0.49215 0.68788 0.0
O319 O 0.0526 0.51135 0.67916 0.0
C320 C 0.9627 0.5394 0.46315 0.0
O321 O 0.97211 0.52524 0.43743 0.0
O322 O 0.04071 0.51085 0.56657 0.0
O323 O 0.00459 0.47793 0.57012 0.0
O324 O 0.98481 0.497 0.51978 0.0
C325 C 0.03962 0.51498 0.51584 0.0
O326 O 0.0224 0.51283 0.49046 0.0
O327 O 0.03825 0.4819 0.66642 0.0
C328 C 0.95634 0.49928 0.64696 0.0
O329 O 0.96513 0.4833 0.62903 0.0
O330 O 0.9606 0.51596 0.62518 0.0
O331 O 0.00271 0.53775 0.59422 0.0
O332 O 0.00611 0.5171 0.66301 0.0
O333 O 0.96437 0.54074 0.51476 0.0
C334 C 0.99311 0.48044 0.52915 0.0
C335 C 0.00474 0.53471 0.64523 0.0
C336 C 0.167 0.0419 0.21183 0.0
C337 C 0.16315 0.05826 0.17776 0.0
C338 C 0.15211 0.03452 0.24731 0.0
C339 C 0.09901 0.02922 0.27271 0.0
H340 H 0.11128 0.03393 0.42704 0.0
C341 C 0.0378 0.01743 0.43838 0.0
C342 C 0.0433 0.01045 0.49051 0.0
C343 C 0.05244 0.02205 0.39895 0.0
C344 C 0.10766 0.03204 0.38427 0.0
H345 H 0.14064 0.07932 0.15235 0.0
H346 H 0.11419 0.06582 0.2132 0.0
H347 H 0.13655 0.04329 0.35882 0.0
H348 H 0.06848 0.00195 0.54125 0.0
H349 H 0.09399 0.00893 0.47167 0.0
H350 H 0.07047 0.0173 0.29737 0.0
C351 C 0.12883 0.05893 0.2127 0.0
C352 C 0.12214 0.03758 0.34524 0.0
C353 C 0.14389 0.06662 0.17808 0.0
C354 C 0.06377 0.00758 0.50172 0.0
C355 C 0.07842 0.01175 0.46179 0.0
C356 C 0.08466 0.02322 0.31171 0.0
C357 C 0.13299 0.04311 0.24842 0.0
C358 C 0.11786 0.0364 0.28923 0.0
C359 C 0.073 0.01932 0.41 0.0
C360 C 0.08867 0.02476 0.36817 0.0
H361 H 0.18182 0.03538 0.2128 0.0
H362 H 0.15561 0.02231 0.27458 0.0
H363 H 0.09548 0.02808 0.22961 0.0
H364 H 0.02215 0.01971 0.42817 0.0
H365 H 0.04754 0.02817 0.36021 0.0
C366 C 0.52091 0.17975 0.23838 0.0
C367 C 0.5094 0.17811 0.19045 0.0
C368 C 0.52315 0.16353 0.27367 0.0
C369 C 0.51748 0.10909 0.28464 0.0
H370 H 0.5083 0.1196 0.43843 0.0
C371 C 0.50051 0.04683 0.44204 0.0
C372 C 0.5084 0.04856 0.49509 0.0
C373 C 0.5024 0.06239 0.40424 0.0
C374 C 0.51123 0.1164 0.39582 0.0
H375 H 0.4921 0.15782 0.14067 0.0
H376 H 0.49588 0.12953 0.2025 0.0
H377 H 0.50914 0.1469 0.37277 0.0
H378 H 0.52478 0.06795 0.54966 0.0
H379 H 0.52834 0.09502 0.48342 0.0
H380 H 0.51945 0.07855 0.30768 0.0
C381 C 0.50322 0.14337 0.21271 0.0
C382 C 0.51171 0.13208 0.35811 0.0
C383 C 0.50091 0.15962 0.17749 0.0
C384 C 0.51841 0.06617 0.50928 0.0
C385 C 0.52037 0.08173 0.47134 0.0
C386 C 0.5171 0.09339 0.32242 0.0
C387 C 0.51398 0.14526 0.26183 0.0
C388 C 0.51466 0.1286 0.30202 0.0
C389 C 0.51232 0.08007 0.41838 0.0
C390 C 0.51377 0.09683 0.37844 0.0
H391 H 0.52748 0.1938 0.24996 0.0
H392 H 0.53176 0.16541 0.31082 0.0
H393 H 0.52004 0.10594 0.24181 0.0
H394 H 0.49263 0.03352 0.42974 0.0
H395 H 0.49571 0.06069 0.36421 0.0
C396 C 0.32967 0.42385 0.29887 0.0
C397 C 0.32976 0.42366 0.24135 0.0
C398 C 0.34587 0.43181 0.32757 0.0
C399 C 0.38942 0.46584 0.3136 0.0
H400 H 0.40637 0.43976 0.44755 0.0
C401 C 0.45989 0.49011 0.43592 0.0
C402 C 0.45784 0.49062 0.49322 0.0
C403 C 0.44463 0.48204 0.40361 0.0
C404 C 0.40169 0.44732 0.4105 0.0
H405 H 0.34696 0.43178 0.16881 0.0
H406 H 0.37551 0.44561 0.21916 0.0
H407 H 0.37955 0.42513 0.39325 0.0
H408 H 0.43801 0.48323 0.5614 0.0
H409 H 0.4114 0.46919 0.50498 0.0
H410 H 0.41169 0.488 0.33103 0.0
C411 C 0.36273 0.43974 0.24196 0.0
C412 C 0.38632 0.43894 0.37934 0.0
C413 C 0.34642 0.43179 0.21312 0.0
C414 C 0.44011 0.48304 0.51742 0.0
C415 C 0.4249 0.47488 0.48512 0.0
C416 C 0.40489 0.47419 0.34472 0.0
C417 C 0.36265 0.43977 0.29958 0.0
C418 C 0.37982 0.4482 0.33084 0.0
C419 C 0.42704 0.47419 0.42789 0.0
C420 C 0.41104 0.46512 0.39382 0.0
H421 H 0.31685 0.41817 0.32187 0.0
H422 H 0.34506 0.43201 0.37184 0.0
H423 H 0.38463 0.47347 0.27681 0.0
H424 H 0.47336 0.49582 0.41593 0.0
H425 H 0.44679 0.48157 0.35968 0.0
C426 C 0.02318 0.35779 0.18583 0.0
C427 C 0.01032 0.34128 0.18118 0.0
C428 C 0.01765 0.37387 0.21785 0.0
C429 C 0.99885 0.40945 0.27341 0.0
H430 H 0.97995 0.39485 0.41893 0.0
C431 C 0.98173 0.4678 0.438 0.0
C432 C 0.99057 0.4642 0.48934 0.0
C433 C 0.98111 0.45303 0.3984 0.0
C434 C 0.98516 0.39916 0.37841 0.0
H435 H 0.98124 0.32899 0.20458 0.0
H436 H 0.97153 0.35715 0.2605 0.0
H437 H 0.98429 0.36933 0.35007 0.0
H438 H 0.00497 0.44196 0.53986 0.0
H439 H 0.00374 0.4162 0.47091 0.0
H440 H 0.0003 0.43921 0.3023 0.0
C441 C 0.98593 0.3576 0.23951 0.0
C442 C 0.98745 0.38458 0.3388 0.0
C443 C 0.99139 0.34159 0.20705 0.0
C444 C 0.99808 0.44526 0.50078 0.0
C445 C 0.99729 0.43045 0.46135 0.0
C446 C 0.9964 0.42405 0.3129 0.0
C447 C 0.99921 0.3737 0.24629 0.0
C448 C 0.99467 0.38951 0.28615 0.0
C449 C 0.9891 0.43427 0.4094 0.0
C450 C 0.98988 0.41902 0.36614 0.0
H451 H 0.03782 0.35798 0.16615 0.0
H452 H 0.02827 0.38598 0.22249 0.0
H453 H 0.00433 0.41371 0.23311 0.0
H454 H 0.97578 0.48221 0.42774 0.0
H455 H 0.97452 0.45635 0.35893 0.0
C456 C 0.85792 0.97069 0.04847 0.0
C457 C 0.83758 0.97142 0.03325 0.0
C458 C 0.87306 0.97023 0.00865 0.0
C459 C 0.88303 0.96275 0.86035 0.0
H460 H 0.92768 0.99873 0.8867 0.0
C461 C 0.93899 0.98854 0.69058 0.0
C462 C 0.9594 0.99007 0.70498 0.0
C463 C 0.9243 0.98453 0.73054 0.0
C464 C 0.91547 0.98842 0.87894 0.0
H465 H 0.81713 0.97142 0.96439 0.0
H466 H 0.84353 0.97074 0.89485 0.0
H467 H 0.90199 0.99383 0.95679 0.0
H468 H 0.9804 0.98827 0.77261 0.0
H469 H 0.95487 0.98121 0.84193 0.0
H470 H 0.89647 0.95767 0.78188 0.0
C471 C 0.84781 0.97028 0.93755 0.0
C472 C 0.90075 0.98555 0.91924 0.0
C473 C 0.83266 0.97065 0.97742 0.0
C474 C 0.96481 0.98732 0.76007 0.0
C475 C 0.95016 0.98334 0.79992 0.0
C476 C 0.89779 0.96566 0.81989 0.0
C477 C 0.86821 0.9706 0.95268 0.0
C478 C 0.88431 0.97273 0.91045 0.0
C479 C 0.92972 0.98202 0.78573 0.0
C480 C 0.91414 0.97857 0.82872 0.0
H481 H 0.86214 0.97098 0.09122 0.0
H482 H 0.8886 0.97002 0.02174 0.0
H483 H 0.87068 0.95263 0.85247 0.0
H484 H 0.93431 0.99057 0.64851 0.0
H485 H 0.90866 0.98381 0.71838 0.0
C486 C 0.46509 0.8414 0.98845 0.0
C487 C 0.44437 0.83928 0.99888 0.0
C488 C 0.47235 0.85693 0.9553 0.0
C489 C 0.45935 0.90604 0.89979 0.0
H490 H 0.49624 0.89319 0.78222 0.0
C491 C 0.49414 0.9657 0.75626 0.0
C492 C 0.49361 0.96161 0.69996 0.0
C493 C 0.48947 0.95097 0.79491 0.0
C494 C 0.48593 0.89698 0.81483 0.0
H495 H 0.41509 0.85213 0.98477 0.0
H496 H 0.42774 0.87928 0.92724 0.0
H497 H 0.48556 0.86746 0.84746 0.0
H498 H 0.4881 0.93871 0.64022 0.0
H499 H 0.48 0.91296 0.70785 0.0
H500 H 0.45942 0.93547 0.86669 0.0
C501 C 0.43839 0.86895 0.94447 0.0
C502 C 0.47998 0.88232 0.85248 0.0
C503 C 0.43113 0.85333 0.97704 0.0
C504 C 0.48864 0.94235 0.68325 0.0
C505 C 0.48411 0.92757 0.72198 0.0
C506 C 0.46543 0.92074 0.86247 0.0
C507 C 0.45904 0.87076 0.9326 0.0
C508 C 0.46645 0.88664 0.89499 0.0
C509 C 0.48431 0.93177 0.77821 0.0
C510 C 0.47861 0.91633 0.81923 0.0
H511 H 0.47561 0.83071 0.00452 0.0
H512 H 0.48836 0.85806 0.94718 0.0
H513 H 0.44901 0.90983 0.93235 0.0
H514 H 0.49795 0.98036 0.77057 0.0
H515 H 0.48995 0.95459 0.83797 0.0
C516 C 0.65133 0.56062 0.99064 0.0
C517 C 0.67152 0.56055 0.97349 0.0
C518 C 0.63584 0.56001 0.95234 0.0
C519 C 0.62355 0.56418 0.80439 0.0
H520 H 0.58272 0.52509 0.84357 0.0
C521 C 0.56614 0.53107 0.64997 0.0
C522 C 0.54647 0.52771 0.66958 0.0
C523 C 0.58136 0.5373 0.68557 0.0
C524 C 0.59382 0.53625 0.8322 0.0
H525 H 0.69137 0.56096 0.90288 0.0
H526 H 0.66427 0.55967 0.83574 0.0
H527 H 0.60895 0.53315 0.90853 0.0
H528 H 0.52715 0.5291 0.74134 0.0
H529 H 0.55347 0.54009 0.80276 0.0
H530 H 0.60837 0.56695 0.72739 0.0
C531 C 0.66039 0.56041 0.87876 0.0
C532 C 0.60885 0.54093 0.86956 0.0
C533 C 0.67592 0.56116 0.91719 0.0
C534 C 0.5422 0.53125 0.72499 0.0
C535 C 0.55732 0.53751 0.76032 0.0
C536 C 0.60842 0.55947 0.76681 0.0
C537 C 0.6402 0.55912 0.89604 0.0
C538 C 0.62388 0.55498 0.85628 0.0
C539 C 0.57714 0.54031 0.74133 0.0
C540 C 0.59335 0.54549 0.78045 0.0
H541 H 0.64754 0.56043 0.03382 0.0
H542 H 0.62042 0.55954 0.96694 0.0
H543 H 0.63488 0.57511 0.79302 0.0
H544 H 0.56988 0.52852 0.60745 0.0
H545 H 0.59652 0.53921 0.66978 0.0
C546 C 0.00426 0.68038 0.9437 0.0
C547 C 0.01215 0.67565 0.99542 0.0
C548 C 0.00069 0.66556 0.90537 0.0
C549 C 0.99419 0.61154 0.89019 0.0
H550 H 0.01575 0.62083 0.7443 0.0
C551 C 0.00766 0.54805 0.73999 0.0
C552 C 0.00393 0.55133 0.68409 0.0
C553 C 0.00675 0.56359 0.77704 0.0
C554 C 0.00933 0.61808 0.78452 0.0
H555 H 0.0216 0.65165 0.04847 0.0
H556 H 0.0154 0.62578 0.98162 0.0
H557 H 0.01667 0.64733 0.81109 0.0
H558 H 0.99615 0.57353 0.62329 0.0
H559 H 0.9943 0.60064 0.68813 0.0
H560 H 0.98696 0.58227 0.86387 0.0
C561 C 0.01196 0.64092 0.97064 0.0
C562 C 0.00987 0.63328 0.82281 0.0
C563 C 0.01567 0.65574 0.00875 0.0
C564 C 0.99922 0.57052 0.66606 0.0
C565 C 0.99823 0.58608 0.70321 0.0
C566 C 0.99355 0.59637 0.85184 0.0
C567 C 0.00476 0.64569 0.91819 0.0
C568 C 0.00258 0.63008 0.8763 0.0
C569 C 0.00199 0.5828 0.75917 0.0
C570 C 0.00141 0.59935 0.79877 0.0
H571 H 0.00153 0.69562 0.93215 0.0
H572 H 0.99497 0.66966 0.86545 0.0
H573 H 0.98819 0.60873 0.93087 0.0
H574 H 0.01144 0.53346 0.75523 0.0
H575 H 0.01011 0.56058 0.81962 0.0
C576 C 0.97015 0.19509 0.23485 0.0
C577 C 0.98769 0.20345 0.25725 0.0
C578 C 0.96051 0.17908 0.26088 0.0
C579 C 0.95865 0.14936 0.38973 0.0
H580 H 0.95418 0.10459 0.29253 0.0
C581 C 0.95422 0.07002 0.47479 0.0
C582 C 0.97075 0.05941 0.45516 0.0
C583 C 0.94813 0.08729 0.44764 0.0
C584 C 0.95496 0.11701 0.32009 0.0
H585 H 0.00808 0.2026 0.32609 0.0
H586 H 0.99139 0.17462 0.3714 0.0
H587 H 0.95887 0.13774 0.25419 0.0
H588 H 0.99279 0.05732 0.38999 0.0
H589 H 0.98197 0.08701 0.3421 0.0
H590 H 0.95621 0.12839 0.45569 0.0
C591 C 0.98499 0.18042 0.33392 0.0
C592 C 0.95753 0.13602 0.29819 0.0
C593 C 0.9947 0.1963 0.30771 0.0
C594 C 0.98002 0.06531 0.4059 0.0
C595 C 0.97372 0.08224 0.37832 0.0
C596 C 0.95596 0.13034 0.41163 0.0
C597 C 0.96814 0.17127 0.31001 0.0
C598 C 0.96039 0.15225 0.33285 0.0
C599 C 0.95823 0.09383 0.39996 0.0
C600 C 0.95509 0.1139 0.37702 0.0
H601 H 0.96448 0.20026 0.19582 0.0
H602 H 0.94751 0.17237 0.24166 0.0
H603 H 0.96054 0.16165 0.41736 0.0
H604 H 0.94694 0.06579 0.51299 0.0
H605 H 0.93615 0.09597 0.46512 0.0
C606 C 0.31453 0.06464 0.28169 0.0
C607 C 0.30101 0.05466 0.24738 0.0
C608 C 0.33002 0.05439 0.30761 0.0
C609 C 0.36097 0.01022 0.29344 0.0
H610 H 0.37581 0.02133 0.44335 0.0
C611 C 0.43888 0.99388 0.38627 0.0
C612 C 0.43981 0.9886 0.44198 0.0
C613 C 0.42041 0.99814 0.36197 0.0
C614 C 0.37169 0.01782 0.40169 0.0
H615 H 0.29308 0.02613 0.21336 0.0
H616 H 0.32001 0.00825 0.25906 0.0
H617 H 0.34616 0.03683 0.40412 0.0
H618 H 0.4219 0.98191 0.51455 0.0
H619 H 0.38973 0.9892 0.47194 0.0
H620 H 0.38671 0.99142 0.29086 0.0
C621 C 0.31866 0.02398 0.26577 0.0
C622 C 0.35486 0.0269 0.37906 0.0
C623 C 0.30312 0.03419 0.24012 0.0
C624 C 0.42175 0.98614 0.47168 0.0
C625 C 0.40332 0.99044 0.44741 0.0
C626 C 0.3779 0.00122 0.316 0.0
C627 C 0.33236 0.034 0.29943 0.0
C628 C 0.34946 0.02338 0.32451 0.0
C629 C 0.40253 0.99719 0.39292 0.0
C630 C 0.38356 0.0051 0.37019 0.0
H631 H 0.31321 0.08038 0.28821 0.0
H632 H 0.34047 0.06255 0.33295 0.0
H633 H 0.35726 0.00734 0.25114 0.0
H634 H 0.4525 0.99585 0.36219 0.0
H635 H 0.4203 0.00335 0.31991 0.0
C636 C 0.54996 0.33048 0.19873 0.0
C637 C 0.53362 0.31992 0.22188 0.0
C638 C 0.55739 0.34753 0.22369 0.0
C639 C 0.55454 0.37726 0.35089 0.0
H640 H 0.55884 0.42191 0.25045 0.0
C641 C 0.55657 0.45577 0.43369 0.0
C642 C 0.54215 0.46811 0.40943 0.0
C643 C 0.56254 0.43846 0.40788 0.0
C644 C 0.55783 0.40959 0.27903 0.0
H645 H 0.51295 0.31839 0.29071 0.0
H646 H 0.52577 0.34809 0.33408 0.0
H647 H 0.55595 0.38857 0.21454 0.0
H648 H 0.52407 0.47288 0.33692 0.0
H649 H 0.53414 0.44259 0.29245 0.0
H650 H 0.55494 0.39832 0.41529 0.0
C651 C 0.53307 0.34312 0.29706 0.0
C652 C 0.5564 0.39043 0.25849 0.0
C653 C 0.52568 0.32607 0.27216 0.0
C654 C 0.53514 0.46366 0.35682 0.0
C655 C 0.54102 0.44629 0.33115 0.0
C656 C 0.55589 0.39641 0.37142 0.0
C657 C 0.54862 0.35437 0.27229 0.0
C658 C 0.55401 0.37412 0.29418 0.0
C659 C 0.55415 0.43308 0.35741 0.0
C660 C 0.55683 0.41284 0.33569 0.0
H661 H 0.5566 0.32588 0.16041 0.0
H662 H 0.5696 0.35568 0.20409 0.0
H663 H 0.55305 0.36498 0.37946 0.0
H664 H 0.56248 0.45894 0.47395 0.0
H665 H 0.57301 0.42882 0.42865 0.0
C666 C 0.19008 0.46426 0.271 0.0
C667 C 0.19093 0.44387 0.28257 0.0
C668 C 0.17558 0.47599 0.29597 0.0
C669 C 0.14143 0.47739 0.41493 0.0
H670 H 0.1102 0.51355 0.32599 0.0
C671 C 0.07695 0.51921 0.51182 0.0
C672 C 0.0586 0.5167 0.48426 0.0
C673 C 0.09514 0.51552 0.48526 0.0
C674 C 0.11887 0.5036 0.35137 0.0
H675 H 0.17746 0.41986 0.32989 0.0
H676 H 0.15204 0.44031 0.37328 0.0
H677 H 0.13801 0.49551 0.28459 0.0
H678 H 0.04504 0.51041 0.40567 0.0
H679 H 0.07675 0.50375 0.35953 0.0
H680 H 0.12191 0.48471 0.48109 0.0
C681 C 0.16268 0.44724 0.34518 0.0
C682 C 0.13486 0.49338 0.3278 0.0
C683 C 0.17709 0.4355 0.31997 0.0
C684 C 0.05891 0.51241 0.42812 0.0
C685 C 0.07714 0.50861 0.4016 0.0
C686 C 0.12554 0.48763 0.43849 0.0
C687 C 0.16172 0.4676 0.33329 0.0
C688 C 0.14601 0.47985 0.35912 0.0
C689 C 0.09534 0.50918 0.43069 0.0
C690 C 0.11383 0.50058 0.40679 0.0
H691 H 0.20041 0.47108 0.24184 0.0
H692 H 0.17526 0.49164 0.28625 0.0
H693 H 0.14992 0.46726 0.44024 0.0
H694 H 0.07722 0.52279 0.55494 0.0
H695 H 0.10898 0.51657 0.50837 0.0
C696 C 0.07219 0.81326 0.94686 0.0
C697 C 0.06644 0.81367 0.00224 0.0
C698 C 0.07378 0.83079 0.91625 0.0
C699 C 0.07542 0.88571 0.92771 0.0
H700 H 0.05025 0.88394 0.78502 0.0
C701 C 0.04349 0.9541 0.81575 0.0
C702 C 0.04469 0.95489 0.75833 0.0
C703 C 0.05051 0.93762 0.84459 0.0
C704 C 0.05769 0.88468 0.82432 0.0
H705 H 0.0582 0.83282 0.06917 0.0
H706 H 0.06077 0.86329 0.01586 0.0
H707 H 0.05468 0.8535 0.83691 0.0
H708 H 0.05544 0.93956 0.68642 0.0
H709 H 0.0678 0.91094 0.73679 0.0
H710 H 0.07772 0.91709 0.91559 0.0
C711 C 0.06447 0.84952 0.9962 0.0
C712 C 0.06025 0.86718 0.85411 0.0
C713 C 0.06297 0.83202 0.02681 0.0
C714 C 0.0541 0.93936 0.73063 0.0
C715 C 0.0611 0.9229 0.75943 0.0
C716 C 0.07278 0.90326 0.89792 0.0
C717 C 0.06953 0.8491 0.94029 0.0
C718 C 0.06885 0.8675 0.90655 0.0
C719 C 0.05888 0.92159 0.81657 0.0
C720 C 0.0636 0.90295 0.84623 0.0
H721 H 0.0752 0.79935 0.92701 0.0
H722 H 0.07804 0.82997 0.87351 0.0
H723 H 0.08237 0.88645 0.96764 0.0
H724 H 0.03635 0.96583 0.83834 0.0
H725 H 0.04845 0.93701 0.88857 0.0
C726 C 0.68616 0.00998 0.03789 0.0
C727 C 0.70363 0.02133 0.02774 0.0
C728 C 0.67036 0.01003 0.00061 0.0
C729 C 0.64521 0.03747 0.89426 0.0
H730 H 0.62809 0.98578 0.8441 0.0
C731 C 0.5814 0.0263 0.73468 0.0
C732 C 0.56877 0.00972 0.7427 0.0
C733 C 0.59853 0.02892 0.7671 0.0
C734 C 0.63246 0.00033 0.85816 0.0
H735 H 0.71809 0.04205 0.9715 0.0
H736 H 0.68997 0.04249 0.90635 0.0
H737 H 0.65658 0.98859 0.90578 0.0
H738 H 0.56365 0.98336 0.79231 0.0
H739 H 0.5929 0.98825 0.84979 0.0
H740 H 0.62057 0.04918 0.84837 0.0
C741 C 0.68872 0.03349 0.94318 0.0
C742 C 0.64887 0.00191 0.89317 0.0
C743 C 0.70476 0.03319 0.9802 0.0
C744 C 0.57323 0.99617 0.78467 0.0
C745 C 0.59013 0.9989 0.81737 0.0
C746 C 0.62852 0.03588 0.85971 0.0
C747 C 0.67158 0.02161 0.95271 0.0
C748 C 0.6552 0.02043 0.91217 0.0
C749 C 0.60323 0.0151 0.80844 0.0
C750 C 0.62174 0.01722 0.84204 0.0
H751 H 0.68499 0.00049 0.07379 0.0
H752 H 0.65723 0.00082 0.00891 0.0
H753 H 0.64984 0.05191 0.90859 0.0
H754 H 0.57836 0.03695 0.70244 0.0
H755 H 0.60834 0.0415 0.75883 0.0
C756 C 0.40595 0.68556 0.94672 0.0
C757 C 0.41817 0.69204 0.98974 0.0
C758 C 0.41059 0.66815 0.91905 0.0
C759 C 0.45472 0.637 0.89199 0.0
H760 H 0.41581 0.60232 0.82283 0.0
C761 C 0.47904 0.58525 0.7232 0.0
C762 C 0.47125 0.56589 0.72253 0.0
C763 C 0.47092 0.5993 0.75779 0.0
C764 C 0.42684 0.61174 0.84246 0.0
H765 H 0.44373 0.68501 0.04056 0.0
H766 H 0.45141 0.65432 0.99406 0.0
H767 H 0.40416 0.62857 0.88313 0.0
H768 H 0.44841 0.54616 0.75647 0.0
H769 H 0.43437 0.57082 0.81867 0.0
H770 H 0.47738 0.62015 0.8526 0.0
C771 C 0.43874 0.66289 0.97995 0.0
C772 C 0.42017 0.62691 0.87648 0.0
C773 C 0.43432 0.68039 0.00682 0.0
C774 C 0.45475 0.56097 0.75639 0.0
C775 C 0.44668 0.57509 0.79172 0.0
C776 C 0.46133 0.62184 0.85856 0.0
C777 C 0.42736 0.65686 0.93456 0.0
C778 C 0.43406 0.63986 0.90117 0.0
C779 C 0.45493 0.59433 0.79333 0.0
C780 C 0.44751 0.60928 0.83247 0.0
H781 H 0.39339 0.69438 0.93305 0.0
H782 H 0.40158 0.66404 0.88407 0.0
H783 H 0.46589 0.64682 0.90942 0.0
H784 H 0.49148 0.58966 0.6968 0.0
H785 H 0.47725 0.61412 0.75672 0.0
C786 C 0.82693 0.50502 0.00749 0.0
C787 C 0.80761 0.5031 0.98474 0.0
C788 C 0.84407 0.50163 0.97584 0.0
C789 C 0.86203 0.48051 0.8447 0.0
H790 H 0.90426 0.52012 0.85861 0.0
C791 C 0.93481 0.47962 0.71301 0.0
C792 C 0.94093 0.49799 0.69086 0.0
C793 C 0.91966 0.47853 0.75295 0.0
C794 C 0.89259 0.50896 0.85413 0.0
H795 H 0.79121 0.49506 0.9116 0.0
H796 H 0.82114 0.48967 0.85592 0.0
H797 H 0.87543 0.52065 0.92019 0.0
H798 H 0.93614 0.52966 0.69392 0.0
H799 H 0.9097 0.52774 0.76279 0.0
H800 H 0.87888 0.46937 0.77698 0.0
C801 C 0.82303 0.4936 0.89845 0.0
C802 C 0.87617 0.5091 0.88992 0.0
C803 C 0.80586 0.49692 0.93018 0.0
C804 C 0.93181 0.51525 0.71009 0.0
C805 C 0.91673 0.51417 0.74993 0.0
C806 C 0.87848 0.48039 0.80879 0.0
C807 C 0.84235 0.49634 0.92058 0.0
C808 C 0.86054 0.49504 0.88521 0.0
C809 C 0.91039 0.4958 0.77166 0.0
C810 C 0.89378 0.49482 0.81256 0.0
H811 H 0.82888 0.50995 0.04916 0.0
H812 H 0.85872 0.50358 0.99441 0.0
H813 H 0.85035 0.46935 0.84035 0.0
H814 H 0.94157 0.46605 0.69916 0.0
H815 H 0.91525 0.46418 0.76929 0.0
C816 C 0.03213 0.20149 0.87611 0.0
C817 C 0.01907 0.20577 0.91987 0.0
C818 C 0.02952 0.18425 0.84561 0.0
C819 C 0.0055 0.13453 0.85666 0.0
H820 H 0.01585 0.13236 0.70055 0.0
C821 C 0.97954 0.06957 0.72323 0.0
C822 C 0.99295 0.06245 0.6836 0.0
C823 C 0.98418 0.08657 0.75269 0.0
C824 C 0.01315 0.13271 0.74428 0.0
H825 H 0.99261 0.19529 0.96445 0.0
H826 H 0.98756 0.16596 0.90994 0.0
H827 H 0.02023 0.16362 0.74855 0.0
H828 H 0.0219 0.06745 0.64426 0.0
H829 H 0.02995 0.09743 0.69567 0.0
H830 H 0.99796 0.10375 0.85209 0.0
C831 C 0.00017 0.17563 0.90003 0.0
C832 C 0.01565 0.15062 0.77183 0.0
C833 C 0.00286 0.19274 0.93074 0.0
C834 C 0.01131 0.07254 0.67471 0.0
C835 C 0.01584 0.08976 0.70379 0.0
C836 C 0.00285 0.11672 0.82908 0.0
C837 C 0.01372 0.17089 0.8579 0.0
C838 C 0.01164 0.15181 0.82832 0.0
C839 C 0.00225 0.097 0.74286 0.0
C840 C 0.00646 0.11564 0.77253 0.0
H841 H 0.04463 0.21128 0.86601 0.0
H842 H 0.0403 0.1811 0.81357 0.0
H843 H 0.00279 0.13471 0.90038 0.0
H844 H 0.96529 0.06213 0.73108 0.0
H845 H 0.97332 0.09187 0.78216 0.0
C846 C 0.31472 0.05252 0.94183 0.0
C847 C 0.30132 0.06682 0.92185 0.0
C848 C 0.33218 0.04794 0.9129 0.0
C849 C 0.35675 0.05286 0.77615 0.0
H850 H 0.40398 0.03798 0.85907 0.0
C851 C 0.43363 0.03461 0.6752 0.0
C852 C 0.44027 0.01558 0.68928 0.0
C853 C 0.41793 0.04327 0.70462 0.0
C854 C 0.39092 0.04218 0.83545 0.0
H855 H 0.29589 0.0873 0.85469 0.0
H856 H 0.32682 0.07994 0.8054 0.0
H857 H 0.37385 0.04863 0.90719 0.0
H858 H 0.43654 0.99112 0.74657 0.0
H859 H 0.40965 0.00653 0.79897 0.0
H860 H 0.37418 0.0466 0.70437 0.0
C861 C 0.32357 0.07194 0.84308 0.0
C862 C 0.37355 0.04811 0.86293 0.0
C863 C 0.3059 0.07635 0.87175 0.0
C864 C 0.43168 0.0058 0.73481 0.0
C865 C 0.41634 0.01462 0.76486 0.0
C866 C 0.37427 0.04723 0.74865 0.0
C867 C 0.33704 0.05776 0.86351 0.0
C868 C 0.35605 0.05308 0.83376 0.0
C869 C 0.40902 0.03324 0.74933 0.0
C870 C 0.39136 0.04146 0.77812 0.0
H871 H 0.31206 0.04509 0.9807 0.0
H872 H 0.34187 0.03662 0.92951 0.0
H873 H 0.34358 0.05636 0.7522 0.0
H874 H 0.43991 0.0424 0.64001 0.0
H875 H 0.41257 0.05768 0.69203 0.0
C876 C 0.48138 0.30791 0.84857 0.0
C877 C 0.49651 0.30148 0.88454 0.0
C878 C 0.48446 0.32459 0.81513 0.0
C879 C 0.52329 0.35869 0.758 0.0
H880 H 0.48093 0.39759 0.76504 0.0
C881 C 0.53622 0.43891 0.68303 0.0
C882 C 0.52047 0.44831 0.6552 0.0
C883 C 0.53303 0.42067 0.70927 0.0
C884 C 0.4928 0.38682 0.76187 0.0
H885 H 0.5271 0.30719 0.9114 0.0
H886 H 0.53257 0.33591 0.85227 0.0
H887 H 0.47611 0.36545 0.8094 0.0
H888 H 0.4889 0.44605 0.6338 0.0
H889 H 0.4834 0.4141 0.67873 0.0
H890 H 0.53997 0.37997 0.71036 0.0
C891 C 0.51832 0.32803 0.84995 0.0
C892 C 0.49002 0.36837 0.78731 0.0
C893 C 0.5152 0.31145 0.88369 0.0
C894 C 0.50134 0.43926 0.65516 0.0
C895 C 0.49817 0.42093 0.68108 0.0
C896 C 0.52601 0.37709 0.7322 0.0
C897 C 0.50279 0.33513 0.81648 0.0
C898 C 0.5053 0.35416 0.78608 0.0
C899 C 0.51404 0.41129 0.70801 0.0
C900 C 0.51089 0.39148 0.73425 0.0
H901 H 0.46692 0.3004 0.84745 0.0
H902 H 0.47233 0.3295 0.78901 0.0
H903 H 0.53525 0.34797 0.75586 0.0
H904 H 0.55112 0.44553 0.68414 0.0
H905 H 0.54549 0.41394 0.7306 0.0
C906 C 0.20471 0.43954 0.92048 0.0
C907 C 0.20437 0.42088 0.94638 0.0
C908 C 0.18877 0.44547 0.88716 0.0
C909 C 0.13468 0.43476 0.86532 0.0
H910 H 0.14204 0.47002 0.74058 0.0
C911 C 0.06879 0.46229 0.72942 0.0
C912 C 0.06904 0.48266 0.71746 0.0
C913 C 0.08531 0.45341 0.75478 0.0
C914 C 0.13976 0.46023 0.77547 0.0
H915 H 0.1872 0.39353 0.95548 0.0
H916 H 0.15997 0.40353 0.89569 0.0
H917 H 0.17141 0.45644 0.78646 0.0
H918 H 0.08678 0.5097 0.72326 0.0
H919 H 0.11545 0.49422 0.76712 0.0
H920 H 0.10299 0.4386 0.85407 0.0
C921 C 0.17231 0.4138 0.90221 0.0
C922 C 0.15659 0.45247 0.80186 0.0
C923 C 0.18816 0.40793 0.93584 0.0
C924 C 0.08605 0.49397 0.73186 0.0
C925 C 0.10258 0.48509 0.7566 0.0
C926 C 0.11785 0.44239 0.8386 0.0
C927 C 0.17216 0.43283 0.87854 0.0
C928 C 0.15428 0.43987 0.84765 0.0
C929 C 0.10246 0.46471 0.76802 0.0
C930 C 0.12023 0.45545 0.79396 0.0
H931 H 0.21706 0.4498 0.92704 0.0
H932 H 0.18915 0.46029 0.86997 0.0
H933 H 0.13228 0.42537 0.90097 0.0
H934 H 0.05592 0.45317 0.71878 0.0
H935 H 0.08484 0.43765 0.76302 0.0
C936 C 0.98353 0.7974 0.327 0.0
C937 C 0.99042 0.79988 0.2728 0.0
C938 C 0.97981 0.81384 0.35966 0.0
C939 C 0.97516 0.86871 0.35859 0.0
H940 H 0.00508 0.86502 0.49412 0.0
C941 C 0.98819 0.93462 0.50797 0.0
C942 C 0.00848 0.93721 0.5227 0.0
C943 C 0.98197 0.91767 0.47988 0.0
C944 C 0.99652 0.86624 0.45661 0.0
H945 H 0.9976 0.82172 0.20969 0.0
H946 H 0.99093 0.85017 0.26623 0.0
H947 H 0.99956 0.83549 0.43991 0.0
H948 H 0.03814 0.92413 0.51912 0.0
H949 H 0.02729 0.89471 0.47084 0.0
H950 H 0.97297 0.89976 0.37456 0.0
C951 C 0.98824 0.83555 0.28346 0.0
C952 C 0.99316 0.84928 0.42583 0.0
C953 C 0.99205 0.81916 0.25092 0.0
C954 C 0.0224 0.92263 0.50846 0.0
C955 C 0.01617 0.90567 0.48116 0.0
C956 C 0.9784 0.8857 0.38973 0.0
C957 C 0.98281 0.83309 0.33875 0.0
C958 C 0.98298 0.85041 0.37564 0.0
C959 C 0.9959 0.90293 0.46691 0.0
C960 C 0.98969 0.8847 0.43812 0.0
H961 H 0.98174 0.78276 0.34485 0.0
H962 H 0.97534 0.81148 0.40194 0.0
H963 H 0.96712 0.87 0.32028 0.0
H964 H 0.97712 0.94563 0.51833 0.0
H965 H 0.96626 0.91591 0.46923 0.0
C966 C 0.70341 0.96029 0.3633 0.0
C967 C 0.70754 0.95028 0.3143 0.0
C968 C 0.6849 0.95787 0.38984 0.0
C969 C 0.63297 0.9504 0.35479 0.0
H970 H 0.62492 0.9519 0.51201 0.0
C971 C 0.56721 0.96811 0.52666 0.0
C972 C 0.56184 0.98699 0.50746 0.0
C973 C 0.58269 0.95771 0.50109 0.0
C974 C 0.6268 0.95111 0.46803 0.0
H975 H 0.69577 0.92843 0.25794 0.0
H976 H 0.66307 0.9249 0.3034 0.0
H977 H 0.65783 0.94312 0.47495 0.0
H978 H 0.56744 0.00919 0.44448 0.0
H979 H 0.59412 0.99095 0.39938 0.0
H980 H 0.60229 0.95957 0.34791 0.0
C981 C 0.67432 0.93463 0.32089 0.0
C982 C 0.64566 0.9462 0.44686 0.0
C983 C 0.69303 0.93678 0.29473 0.0
C984 C 0.57132 0.9947 0.4603 0.0
C985 C 0.58651 0.98419 0.43426 0.0
C986 C 0.61418 0.95554 0.37597 0.0
C987 C 0.66989 0.9456 0.36783 0.0
C988 C 0.64911 0.94645 0.39007 0.0
C989 C 0.59276 0.96586 0.45528 0.0
C990 C 0.61111 0.95658 0.4328 0.0
H991 H 0.71386 0.97109 0.37947 0.0
H992 H 0.68184 0.96672 0.42557 0.0
H993 H 0.63521 0.95086 0.31085 0.0
H994 H 0.56019 0.96182 0.56307 0.0
H995 H 0.58718 0.94358 0.51801 0.0
C996 C 0.46655 0.70351 0.26819 0.0
C997 C 0.45345 0.71748 0.29104 0.0
C998 C 0.47234 0.68683 0.29835 0.0
C999 C 0.45085 0.65358 0.39738 0.0
H1000 H 0.50428 0.63282 0.4216 0.0
C1001 C 0.46106 0.58469 0.53044 0.0
C1002 C 0.47607 0.57111 0.5171 0.0
C1003 C 0.46029 0.60303 0.50423 0.0
C1004 C 0.48924 0.63825 0.41447 0.0
H1005 H 0.43766 0.7256 0.36535 0.0
H1006 H 0.44718 0.69611 0.417 0.0
H1007 H 0.50029 0.66465 0.37411 0.0
H1008 H 0.50233 0.56614 0.4666 0.0
H1009 H 0.50044 0.59802 0.41816 0.0
H1010 H 0.4395 0.62713 0.43463 0.0
C1011 C 0.45288 0.69814 0.37567 0.0
C1012 C 0.48701 0.65653 0.3877 0.0
C1013 C 0.44735 0.71495 0.34593 0.0
C1014 C 0.49055 0.57636 0.4774 0.0
C1015 C 0.48952 0.59467 0.45003 0.0
C1016 C 0.45301 0.63523 0.42297 0.0
C1017 C 0.46494 0.68368 0.3516 0.0
C1018 C 0.46779 0.66444 0.37972 0.0
C1019 C 0.4742 0.60818 0.46278 0.0
C1020 C 0.47223 0.6274 0.43279 0.0
H1021 H 0.47139 0.70477 0.22592 0.0
H1022 H 0.48156 0.6758 0.27885 0.0
H1023 H 0.43584 0.65917 0.39053 0.0
H1024 H 0.44997 0.58124 0.56187 0.0
H1025 H 0.44872 0.61319 0.51681 0.0
C1026 C 0.80582 0.57812 0.29201 0.0
C1027 C 0.80214 0.5874 0.24131 0.0
C1028 C 0.82418 0.58072 0.3184 0.0
C1029 C 0.87679 0.58968 0.28306 0.0
H1030 H 0.88299 0.5841 0.44008 0.0
C1031 C 0.93962 0.56841 0.46017 0.0
C1032 C 0.94831 0.5522 0.4338 0.0
C1033 C 0.9241 0.57895 0.43532 0.0
C1034 C 0.88173 0.58607 0.39621 0.0
H1035 H 0.81437 0.60813 0.18116 0.0
H1036 H 0.84665 0.61255 0.22733 0.0
H1037 H 0.85049 0.59303 0.40268 0.0
H1038 H 0.9483 0.53502 0.35939 0.0
H1039 H 0.92092 0.55296 0.31673 0.0
H1040 H 0.90798 0.58242 0.27655 0.0
C1041 C 0.83531 0.60302 0.24608 0.0
C1042 C 0.86298 0.591 0.37474 0.0
C1043 C 0.81682 0.60048 0.21966 0.0
C1044 C 0.94192 0.54743 0.38082 0.0
C1045 C 0.92627 0.55784 0.35617 0.0
C1046 C 0.8956 0.58487 0.30457 0.0
C1047 C 0.83943 0.59263 0.29484 0.0
C1048 C 0.86009 0.59203 0.31785 0.0
C1049 C 0.91679 0.5734 0.38374 0.0
C1050 C 0.89809 0.58222 0.36129 0.0
H1051 H 0.79512 0.56765 0.30964 0.0
H1052 H 0.82688 0.57224 0.35543 0.0
H1053 H 0.87511 0.59029 0.23902 0.0
H1054 H 0.94441 0.57263 0.50076 0.0
H1055 H 0.91744 0.59109 0.45726 0.0
loop_
_geom_bond_atom_site_label_1
_geom_bond_atom_site_label_2
_geom_bond_distance
_geom_bond_site_symmetry_2
_ccdc_geom_bond_type
P0 O11 1.490 . S
P0 C14 1.812 . S
P0 C20 1.803 . S
P0 C26 1.819 1_554 S
H1 C15 0.941 . S
H2 C16 0.939 . S
H3 C18 0.940 . S
H4 C19 0.940 . S
H5 C21 0.939 . S
H6 C22 0.942 . S
H7 C24 0.940 . S
H8 C25 0.939 . S
H9 C27 0.941 . S
H10 C31 0.939 . S
O11 P0 1.490 . S
H12 C28 0.939 . S
H13 C30 0.940 . S
C14 P0 1.812 . S
C14 C15 1.389 . S
C14 C19 1.391 . S
C15 H1 0.941 . S
C15 C14 1.389 . S
C15 C16 1.397 . S
C16 H2 0.939 . S
C16 C15 1.397 . S
C16 C17 1.378 . S
C17 C16 1.378 . S
C17 C18 1.378 . S
C18 H3 0.940 . S
C18 C17 1.378 . S
C18 C19 1.396 . S
C19 H4 0.940 . S
C19 C14 1.391 . S
C19 C18 1.396 . S
C20 P0 1.803 . S
C20 C21 1.378 1_554 S
C20 C25 1.400 . S
C21 H5 0.939 . S
C21 C20 1.378 1_556 S
C21 C22 1.361 . S
C22 H6 0.942 . S
C22 C21 1.361 . S
C22 C23 1.369 . S
C23 C22 1.369 . S
C23 C24 1.404 1_556 S
C24 H7 0.940 . S
C24 C23 1.404 1_554 S
C24 C25 1.389 . S
C25 H8 0.939 . S
C25 C20 1.400 . S
C25 C24 1.389 . S
C26 P0 1.819 1_556 S
C26 C27 1.391 . S
C26 C31 1.391 . S
C27 H9 0.941 . S
C27 C26 1.391 . S
C27 C28 1.396 . S
C28 H12 0.939 . S
C28 C27 1.396 . S
C28 C29 1.397 . S
C29 C28 1.397 . S
C29 C30 1.385 . S
C30 H13 0.940 . S
C30 C29 1.385 . S
C30 C31 1.388 . S
C31 H10 0.939 . S
C31 C26 1.391 . S
C31 C30 1.388 . S
P32 O43 1.490 . S
P32 C46 1.812 . S
P32 C52 1.803 . S
P32 C58 1.819 1_554 S
H33 C47 0.941 . S
H34 C48 0.939 . S
H35 C50 0.940 . S
H36 C51 0.950 . S
H37 C53 0.945 . S
H38 C54 0.942 . S
H39 C56 0.940 . S
H40 C57 0.959 . S
H41 C59 0.941 1_554 S
H42 C63 0.929 1_655 S
O43 P32 1.490 . S
H44 C60 0.939 . S
H45 C62 0.940 . S
C46 P32 1.812 . S
C46 C47 1.389 . S
C46 C51 1.375 1_455 S
C47 H33 0.941 . S
C47 C46 1.389 . S
C47 C48 1.397 . S
C48 H34 0.939 . S
C48 C47 1.397 . S
C48 C49 1.378 . S
C49 C48 1.378 . S
C49 C50 1.378 1_455 S
C50 H35 0.940 . S
C50 C49 1.378 1_655 S
C50 C51 1.403 . S
C51 H36 0.950 . S
C51 C46 1.375 1_655 S
C51 C50 1.403 . S
C52 P32 1.803 . S
C52 C53 1.368 1_554 S
C52 C57 1.368 1_455 S
C53 H37 0.945 . S
C53 C52 1.368 1_556 S
C53 C54 1.366 . S
C54 H38 0.942 . S
C54 C53 1.366 . S
C54 C55 1.369 1_556 S
C55 C54 1.369 1_554 S
C55 C56 1.404 1_455 S
C56 H39 0.940 . S
C56 C55 1.404 1_655 S
C56 C57 1.402 . S
C57 H40 0.959 . S
C57 C52 1.368 1_655 S
C57 C56 1.402 . S
C58 P32 1.819 1_556 S
C58 C59 1.391 . S
C58 C63 1.391 . S
C59 H41 0.941 1_556 S
C59 C58 1.391 . S
C59 C60 1.396 . S
C60 H44 0.939 . S
C60 C59 1.396 . S
C60 C61 1.397 . S
C61 C60 1.397 . S
C61 C62 1.385 1_455 S
C62 H45 0.940 . S
C62 C61 1.385 1_655 S
C62 C63 1.388 1_655 S
C63 H42 0.929 1_455 S
C63 C58 1.391 . S
C63 C62 1.388 1_455 S
P64 O75 1.490 . S
P64 C78 1.812 . S
P64 C84 1.803 . S
P64 C90 1.819 1_554 S
H65 C79 0.941 . S
H66 C80 0.939 . S
H67 C82 0.940 . S
H68 C83 0.940 . S
H69 C85 0.939 . S
H70 C86 0.942 . S
H71 C88 0.940 . S
H72 C89 0.939 . S
H73 C91 0.941 1_554 S
H74 C95 0.939 . S
O75 P64 1.490 . S
H76 C92 0.939 . S
H77 C94 0.940 . S
C78 P64 1.812 . S
C78 C79 1.389 . S
C78 C83 1.391 . S
C79 H65 0.941 . S
C79 C78 1.389 . S
C79 C80 1.397 . S
C80 H66 0.939 . S
C80 C79 1.397 . S
C80 C81 1.378 . S
C81 C80 1.378 . S
C81 C82 1.378 . S
C82 H67 0.940 . S
C82 C81 1.378 . S
C82 C83 1.396 . S
C83 H68 0.940 . S
C83 C78 1.391 . S
C83 C82 1.396 . S
C84 P64 1.803 . S
C84 C85 1.378 1_554 S
C84 C89 1.400 . S
C85 H69 0.939 . S
C85 C84 1.378 1_556 S
C85 C86 1.361 . S
C86 H70 0.942 . S
C86 C85 1.361 . S
C86 C87 1.369 . S
C87 C86 1.369 . S
C87 C88 1.404 1_556 S
C88 H71 0.940 . S
C88 C87 1.404 1_554 S
C88 C89 1.389 . S
C89 H72 0.939 . S
C89 C84 1.400 . S
C89 C88 1.389 . S
C90 P64 1.819 1_556 S
C90 C91 1.391 . S
C90 C95 1.391 . S
C91 H73 0.941 1_556 S
C91 C90 1.391 . S
C91 C92 1.396 . S
C92 H76 0.939 . S
C92 C91 1.396 . S
C92 C93 1.397 . S
C93 C92 1.397 . S
C93 C94 1.385 . S
C94 H77 0.940 . S
C94 C93 1.385 . S
C94 C95 1.388 . S
C95 H74 0.939 . S
C95 C90 1.391 . S
C95 C94 1.388 . S
P96 O107 1.490 . S
P96 C110 1.812 . S
P96 C116 1.803 . S
P96 C122 1.819 1_554 S
H97 C111 0.941 . S
H98 C112 0.939 . S
H99 C114 0.940 . S
H100 C115 0.940 . S
H101 C117 0.943 . S
H102 C118 0.942 . S
H103 C120 0.940 . S
H104 C121 0.939 . S
H105 C123 0.941 1_554 S
H106 C127 0.939 . S
O107 P96 1.490 . S
H108 C124 0.939 . S
H109 C126 0.940 . S
C110 P96 1.812 . S
C110 C111 1.389 . S
C110 C115 1.391 . S
C111 H97 0.941 . S
C111 C110 1.389 . S
C111 C112 1.397 . S
C112 H98 0.939 . S
C112 C111 1.397 . S
C112 C113 1.378 . S
C113 C112 1.378 . S
C113 C114 1.378 . S
C114 H99 0.940 . S
C114 C113 1.378 . S
C114 C115 1.396 . S
C115 H100 0.940 . S
C115 C110 1.391 . S
C115 C114 1.396 . S
C116 P96 1.803 . S
C116 C117 1.372 1_554 S
C116 C121 1.400 . S
C117 H101 0.943 . S
C117 C116 1.372 1_556 S
C117 C118 1.364 . S
C118 H102 0.942 . S
C118 C117 1.364 . S
C118 C119 1.368 1_556 S
C119 C118 1.368 1_554 S
C119 C120 1.406 . S
C120 H103 0.940 . S
C120 C119 1.406 . S
C120 C121 1.389 . S
C121 H104 0.939 . S
C121 C116 1.400 . S
C121 C120 1.389 . S
C122 P96 1.819 1_556 S
C122 C123 1.391 . S
C122 C127 1.391 . S
C123 H105 0.941 1_556 S
C123 C122 1.391 . S
C123 C124 1.396 . S
C124 H108 0.939 . S
C124 C123 1.396 . S
C124 C125 1.397 . S
C125 C124 1.397 . S
C125 C126 1.385 . S
C126 H109 0.940 . S
C126 C125 1.385 . S
C126 C127 1.388 . S
C127 H106 0.939 . S
C127 C122 1.391 . S
C127 C126 1.388 . S
P128 O139 1.490 . S
P128 C142 1.812 . S
P128 C148 1.803 . S
P128 C154 1.819 . S
H129 C143 0.941 . S
H130 C144 0.939 1_556 S
H131 C146 0.940 . S
H132 C147 0.940 . S
H133 C149 0.939 . S
H134 C150 0.942 . S
H135 C152 0.940 . S
H136 C153 0.939 . S
H137 C155 0.941 . S
H138 C159 0.939 . S
O139 P128 1.490 . S
H140 C156 0.939 . S
H141 C158 0.940 . S
C142 P128 1.812 . S
C142 C143 1.389 . S
C142 C147 1.391 . S
C143 H129 0.941 . S
C143 C142 1.389 . S
C143 C144 1.397 . S
C144 H130 0.939 1_554 S
C144 C143 1.397 . S
C144 C145 1.378 . S
C145 C144 1.378 . S
C145 C146 1.378 . S
C146 H131 0.940 . S
C146 C145 1.378 . S
C146 C147 1.396 . S
C147 H132 0.940 . S
C147 C142 1.391 . S
C147 C146 1.396 . S
C148 P128 1.803 . S
C148 C149 1.378 . S
C148 C153 1.400 . S
C149 H133 0.939 . S
C149 C148 1.378 . S
C149 C150 1.361 . S
C150 H134 0.942 . S
C150 C149 1.361 . S
C150 C151 1.369 . S
C151 C150 1.369 . S
C151 C152 1.404 . S
C152 H135 0.940 . S
C152 C151 1.404 . S
C152 C153 1.389 . S
C153 H136 0.939 . S
C153 C148 1.400 . S
C153 C152 1.389 . S
C154 P128 1.819 . S
C154 C155 1.391 . S
C154 C159 1.391 . S
C155 H137 0.941 . S
C155 C154 1.391 . S
C155 C156 1.396 . S
C156 H140 0.939 . S
C156 C155 1.396 . S
C156 C157 1.397 . S
C157 C156 1.397 . S
C157 C158 1.385 . S
C158 H141 0.940 . S
C158 C157 1.385 . S
C158 C159 1.388 . S
C159 H138 0.939 . S
C159 C154 1.391 . S
C159 C158 1.388 . S
P160 O171 1.490 . S
P160 C174 1.812 . S
P160 C180 1.803 . S
P160 C186 1.819 . S
H161 C175 0.941 . S
H162 C176 0.939 . S
H163 C178 0.940 . S
H164 C179 0.943 . S
H165 C181 0.939 . S
H166 C182 0.942 . S
H167 C184 0.940 . S
H168 C185 0.951 . S
H169 C187 0.941 . S
H170 C191 0.933 1_655 S
O171 P160 1.490 . S
H172 C188 0.939 . S
H173 C190 0.940 . S
C174 P160 1.812 . S
C174 C175 1.389 . S
C174 C179 1.387 1_455 S
C175 H161 0.941 . S
C175 C174 1.389 . S
C175 C176 1.397 1_554 S
C176 H162 0.939 . S
C176 C175 1.397 1_556 S
C176 C177 1.378 . S
C177 C176 1.378 . S
C177 C178 1.378 1_456 S
C178 H163 0.940 . S
C178 C177 1.378 1_654 S
C178 C179 1.398 . S
C179 H164 0.943 . S
C179 C174 1.387 1_655 S
C179 C178 1.398 . S
C180 P160 1.803 . S
C180 C181 1.378 . S
C180 C185 1.380 1_455 S
C181 H165 0.939 . S
C181 C180 1.378 . S
C181 C182 1.361 . S
C182 H166 0.942 . S
C182 C181 1.361 . S
C182 C183 1.369 . S
C183 C182 1.369 . S
C183 C184 1.404 1_455 S
C184 H167 0.940 . S
C184 C183 1.404 1_655 S
C184 C185 1.397 . S
C185 H168 0.951 . S
C185 C180 1.380 1_655 S
C185 C184 1.397 . S
C186 P160 1.819 . S
C186 C187 1.391 . S
C186 C191 1.391 . S
C187 H169 0.941 . S
C187 C186 1.391 . S
C187 C188 1.396 . S
C188 H172 0.939 . S
C188 C187 1.396 . S
C188 C189 1.397 . S
C189 C188 1.397 . S
C189 C190 1.385 1_455 S
C190 H173 0.940 . S
C190 C189 1.385 1_655 S
C190 C191 1.388 1_655 S
C191 H170 0.933 1_455 S
C191 C186 1.391 . S
C191 C190 1.388 1_455 S
P192 O203 1.490 . S
P192 C206 1.812 . S
P192 C212 1.803 . S
P192 C218 1.819 . S
H193 C207 0.941 . S
H194 C208 0.939 1_556 S
H195 C210 0.940 . S
H196 C211 0.940 . S
H197 C213 0.939 . S
H198 C214 0.942 . S
H199 C216 0.940 . S
H200 C217 0.939 . S
H201 C219 0.941 . S
H202 C223 0.939 . S
O203 P192 1.490 . S
H204 C220 0.939 . S
H205 C222 0.940 . S
C206 P192 1.812 . S
C206 C207 1.389 . S
C206 C211 1.391 . S
C207 H193 0.941 . S
C207 C206 1.389 . S
C207 C208 1.397 . S
C208 H194 0.939 1_554 S
C208 C207 1.397 . S
C208 C209 1.377 1_554 S
C209 C208 1.377 1_556 S
C209 C210 1.362 1_556 S
C210 H195 0.940 . S
C210 C209 1.362 1_554 S
C210 C211 1.396 . S
C211 H196 0.940 . S
C211 C206 1.391 . S
C211 C210 1.396 . S
C212 P192 1.803 . S
C212 C213 1.378 . S
C212 C217 1.400 . S
C213 H197 0.939 . S
C213 C212 1.378 . S
C213 C214 1.361 . S
C214 H198 0.942 . S
C214 C213 1.361 . S
C214 C215 1.369 . S
C215 C214 1.369 . S
C215 C216 1.404 . S
C216 H199 0.940 . S
C216 C215 1.404 . S
C216 C217 1.389 . S
C217 H200 0.939 . S
C217 C212 1.400 . S
C217 C216 1.389 . S
C218 P192 1.819 . S
C218 C219 1.391 . S
C218 C223 1.391 . S
C219 H201 0.941 . S
C219 C218 1.391 . S
C219 C220 1.396 . S
C220 H204 0.939 . S
C220 C219 1.396 . S
C220 C221 1.397 . S
C221 C220 1.397 . S
C221 C222 1.385 . S
C222 H205 0.940 . S
C222 C221 1.385 . S
C222 C223 1.388 . S
C223 H202 0.939 . S
C223 C218 1.391 . S
C223 C222 1.388 . S
P224 O235 1.490 . S
P224 C238 1.812 . S
P224 C244 1.803 . S
P224 C250 1.819 . S
H225 C239 0.941 . S
H226 C240 0.939 . S
H227 C242 0.940 . S
H228 C243 0.940 . S
H229 C245 0.939 . S
H230 C246 0.942 . S
H231 C248 0.940 . S
H232 C249 0.939 . S
H233 C251 0.941 . S
H234 C255 0.939 . S
O235 P224 1.490 . S
H236 C252 0.939 . S
H237 C254 0.940 . S
C238 P224 1.812 . S
C238 C239 1.389 . S
C238 C243 1.391 . S
C239 H225 0.941 . S
C239 C238 1.389 . S
C239 C240 1.397 1_554 S
C240 H226 0.939 . S
C240 C239 1.397 1_556 S
C240 C241 1.378 . S
C241 C240 1.378 . S
C241 C242 1.378 1_556 S
C242 H227 0.940 . S
C242 C241 1.378 1_554 S
C242 C243 1.396 . S
C243 H228 0.940 . S
C243 C238 1.391 . S
C243 C242 1.396 . S
C244 P224 1.803 . S
C244 C245 1.378 . S
C244 C249 1.400 . S
C245 H229 0.939 . S
C245 C244 1.378 . S
C245 C246 1.361 . S
C246 H230 0.942 . S
C246 C245 1.361 . S
C246 C247 1.369 . S
C247 C246 1.369 . S
C247 C248 1.404 . S
C248 H231 0.940 . S
C248 C247 1.404 . S
C248 C249 1.389 . S
C249 H232 0.939 . S
C249 C244 1.400 . S
C249 C248 1.389 . S
C250 P224 1.819 . S
C250 C251 1.391 . S
C250 C255 1.391 . S
C251 H233 0.941 . S
C251 C250 1.391 . S
C251 C252 1.396 . S
C252 H236 0.939 . S
C252 C251 1.396 . S
C252 C253 1.397 . S
C253 C252 1.397 . S
C253 C254 1.385 . S
C254 H237 0.940 . S
C254 C253 1.385 . S
C254 C255 1.388 . S
C255 H234 0.939 . S
C255 C250 1.391 . S
C255 C254 1.388 . S
Zn256 O262 1.969 . S
Zn256 O263 1.965 1_655 S
Zn256 O267 2.024 1_655 S
Zn256 O272 1.969 . S
Zn257 O264 1.969 . S
Zn257 O270 1.969 . S
Zn257 O271 1.965 1_455 S
Zn257 O273 2.024 1_455 S
C258 O259 1.229 1_455 S
C258 O267 1.058 . S
O259 C258 1.229 1_655 S
C260 O261 1.229 1_655 S
C260 O273 1.058 . S
O261 C260 1.229 1_455 S
O262 Zn256 1.969 . S
O262 C265 1.267 . S
O263 Zn256 1.965 1_455 S
O263 C274 1.260 . S
O264 Zn257 1.969 . S
O264 C274 1.258 1_565 S
C265 O262 1.267 . S
C265 O266 1.228 1_655 S
O266 C265 1.228 1_455 S
O267 Zn256 2.024 1_455 S
O267 C258 1.058 . S
C268 O269 1.228 1_455 S
C268 O270 1.267 . S
O269 C268 1.228 1_655 S
O270 Zn257 1.969 . S
O270 C268 1.267 . S
O271 Zn257 1.965 1_655 S
O271 C275 1.260 1_565 S
O272 Zn256 1.969 . S
O272 C275 1.258 . S
O273 Zn257 2.024 1_655 S
O273 C260 1.058 . S
C274 O263 1.260 . S
C274 O264 1.258 1_545 S
C275 O271 1.260 1_545 S
C275 O272 1.258 . S
Zn276 O282 1.969 . S
Zn276 O283 1.965 . S
Zn276 O287 2.024 . S
Zn276 O292 1.969 1_545 S
Zn277 O284 1.973 . S
Zn277 O290 1.971 . S
Zn277 O291 1.963 1_545 S
Zn277 O293 2.021 1_545 S
C278 O279 1.229 . S
C278 O287 1.058 . S
O279 C278 1.229 . S
C280 O281 1.226 1_565 S
C280 O293 1.058 . S
O281 C280 1.226 1_545 S
O282 Zn276 1.969 . S
O282 C285 1.267 . S
O283 Zn276 1.965 . S
O283 C294 1.260 . S
O284 Zn277 1.973 . S
O284 C294 1.258 . S
C285 O282 1.267 . S
C285 O286 1.228 . S
O286 C285 1.228 . S
O287 Zn276 2.024 . S
O287 C278 1.058 . S
C288 O289 1.228 . S
C288 O290 1.267 1_565 S
O289 C288 1.228 . S
O290 Zn277 1.971 . S
O290 C288 1.267 1_545 S
O291 Zn277 1.963 1_565 S
O291 C295 1.260 . S
O292 Zn276 1.969 1_565 S
O292 C295 1.258 . S
O293 Zn277 2.021 1_565 S
O293 C280 1.058 . S
C294 O283 1.260 . S
C294 O284 1.258 . S
C295 O291 1.260 . S
C295 O292 1.258 . S
Zn296 O302 1.969 . S
Zn296 O303 1.965 . S
Zn296 O307 2.024 . S
Zn296 O312 1.969 . S
Zn297 O304 1.969 . S
Zn297 O310 1.969 . S
Zn297 O311 1.965 . S
Zn297 O313 2.024 . S
C298 O299 1.229 . S
C298 O307 1.058 . S
O299 C298 1.229 . S
C300 O301 1.229 . S
C300 O313 1.058 . S
O301 C300 1.229 . S
O302 Zn296 1.969 . S
O302 C305 1.267 . S
O303 Zn296 1.965 . S
O303 C314 1.260 . S
O304 Zn297 1.969 . S
O304 C314 1.258 . S
C305 O302 1.267 . S
C305 O306 1.228 . S
O306 C305 1.228 . S
O307 Zn296 2.024 . S
O307 C298 1.058 . S
C308 O309 1.228 . S
C308 O310 1.267 . S
O309 C308 1.228 . S
O310 Zn297 1.969 . S
O310 C308 1.267 . S
O311 Zn297 1.965 . S
O311 C315 1.260 . S
O312 Zn296 1.969 . S
O312 C315 1.258 . S
O313 Zn297 2.024 . S
O313 C300 1.058 . S
C314 O303 1.260 . S
C314 O304 1.258 . S
C315 O311 1.260 . S
C315 O312 1.258 . S
Zn316 O322 1.969 . S
Zn316 O323 1.965 . S
Zn316 O327 2.024 . S
Zn316 O332 1.969 . S
Zn317 O324 1.969 . S
Zn317 O330 1.969 . S
Zn317 O331 1.965 . S
Zn317 O333 2.024 . S
C318 O319 1.229 . S
C318 O327 1.058 . S
O319 C318 1.229 . S
C320 O321 1.229 . S
C320 O333 1.058 . S
O321 C320 1.229 . S
O322 Zn316 1.969 . S
O322 C325 1.267 . S
O323 Zn316 1.965 . S
O323 C334 1.260 1_455 S
O324 Zn317 1.969 . S
O324 C334 1.258 . S
C325 O322 1.267 . S
C325 O326 1.228 . S
O326 C325 1.228 . S
O327 Zn316 2.024 . S
O327 C318 1.058 . S
C328 O329 1.228 . S
C328 O330 1.267 . S
O329 C328 1.228 . S
O330 Zn317 1.969 . S
O330 C328 1.267 . S
O331 Zn317 1.965 . S
O331 C335 1.260 1_655 S
O332 Zn316 1.969 . S
O332 C335 1.258 . S
O333 Zn317 2.024 . S
O333 C320 1.058 . S
C334 O323 1.260 1_655 S
C334 O324 1.258 . S
C335 O331 1.260 1_455 S
C335 O332 1.258 . S
C336 C337 1.349 . S
C336 C338 1.327 . S
C336 H361 0.950 . S
C337 C336 1.349 . S
C337 C353 1.349 . S
C338 C336 1.327 . S
C338 C357 1.429 . S
C338 H362 0.950 . S
C339 C356 1.574 . S
C339 C358 1.368 . S
C339 H363 0.949 . S
H340 C344 0.949 . S
C341 C342 1.349 . S
C341 C343 1.327 . S
C341 H364 0.950 . S
C342 C341 1.349 . S
C342 C354 1.349 . S
C343 C341 1.327 . S
C343 C359 1.429 . S
C343 H365 0.950 . S
C344 H340 0.949 . S
C344 C352 1.574 . S
C344 C360 1.368 . S
H345 C353 0.950 . S
H346 C351 0.950 . S
H347 C352 0.949 . S
H348 C354 0.950 . S
H349 C355 0.950 . S
H350 C356 0.949 . S
C351 H346 0.950 . S
C351 C353 1.327 . S
C351 C357 1.429 . S
C352 C344 1.574 . S
C352 H347 0.949 . S
C352 C358 1.368 . S
C353 C337 1.349 . S
C353 H345 0.950 . S
C353 C351 1.327 . S
C354 C342 1.349 . S
C354 H348 0.950 . S
C354 C355 1.327 . S
C355 H349 0.950 . S
C355 C354 1.327 . S
C355 C359 1.429 . S
C356 C339 1.574 . S
C356 H350 0.949 . S
C356 C360 1.368 . S
C357 C338 1.429 . S
C357 C351 1.429 . S
C357 C358 1.523 . S
C358 C339 1.368 . S
C358 C352 1.368 . S
C358 C357 1.523 . S
C359 C343 1.429 . S
C359 C355 1.429 . S
C359 C360 1.523 . S
C360 C344 1.368 . S
C360 C356 1.368 . S
C360 C359 1.523 . S
H361 C336 0.950 . S
H362 C338 0.950 . S
H363 C339 0.949 . S
H364 C341 0.950 . S
H365 C343 0.950 . S
C366 C367 1.349 . S
C366 C368 1.327 . S
C366 H391 0.950 . S
C367 C366 1.349 . S
C367 C383 1.349 . S
C368 C366 1.327 . S
C368 C387 1.429 . S
C368 H392 0.950 . S
C369 C386 1.574 . S
C369 C388 1.368 . S
C369 H393 0.949 . S
H370 C374 0.949 . S
C371 C372 1.349 . S
C371 C373 1.327 . S
C371 H394 0.950 . S
C372 C371 1.349 . S
C372 C384 1.349 . S
C373 C371 1.327 . S
C373 C389 1.429 . S
C373 H395 0.950 . S
C374 H370 0.949 . S
C374 C382 1.574 . S
C374 C390 1.368 . S
H375 C383 0.950 . S
H376 C381 0.950 . S
H377 C382 0.949 . S
H378 C384 0.950 . S
H379 C385 0.950 . S
H380 C386 0.949 . S
C381 H376 0.950 . S
C381 C383 1.327 . S
C381 C387 1.429 . S
C382 C374 1.574 . S
C382 H377 0.949 . S
C382 C388 1.368 . S
C383 C367 1.349 . S
C383 H375 0.950 . S
C383 C381 1.327 . S
C384 C372 1.349 . S
C384 H378 0.950 . S
C384 C385 1.327 . S
C385 H379 0.950 . S
C385 C384 1.327 . S
C385 C389 1.429 . S
C386 C369 1.574 . S
C386 H380 0.949 . S
C386 C390 1.368 . S
C387 C368 1.429 . S
C387 C381 1.429 . S
C387 C388 1.523 . S
C388 C369 1.368 . S
C388 C382 1.368 . S
C388 C387 1.523 . S
C389 C373 1.429 . S
C389 C385 1.429 . S
C389 C390 1.523 . S
C390 C374 1.368 . S
C390 C386 1.368 . S
C390 C389 1.523 . S
H391 C366 0.950 . S
H392 C368 0.950 . S
H393 C369 0.949 . S
H394 C371 0.950 . S
H395 C373 0.950 . S
C396 C397 1.349 . S
C396 C398 1.327 . S
C396 H421 0.950 . S
C397 C396 1.349 . S
C397 C413 1.349 . S
C398 C396 1.327 . S
C398 C417 1.429 . S
C398 H422 0.950 . S
C399 C416 1.574 . S
C399 C418 1.368 . S
C399 H423 0.949 . S
H400 C404 0.949 . S
C401 C402 1.349 . S
C401 C403 1.327 . S
C401 H424 0.950 . S
C402 C401 1.349 . S
C402 C414 1.349 . S
C403 C401 1.327 . S
C403 C419 1.429 . S
C403 H425 0.950 . S
C404 H400 0.949 . S
C404 C412 1.574 . S
C404 C420 1.368 . S
H405 C413 0.950 . S
H406 C411 0.950 . S
H407 C412 0.949 . S
H408 C414 0.950 . S
H409 C415 0.950 . S
H410 C416 0.949 . S
C411 H406 0.950 . S
C411 C413 1.327 . S
C411 C417 1.429 . S
C412 C404 1.574 . S
C412 H407 0.949 . S
C412 C418 1.368 . S
C413 C397 1.349 . S
C413 H405 0.950 . S
C413 C411 1.327 . S
C414 C402 1.349 . S
C414 H408 0.950 . S
C414 C415 1.327 . S
C415 H409 0.950 . S
C415 C414 1.327 . S
C415 C419 1.429 . S
C416 C399 1.574 . S
C416 H410 0.949 . S
C416 C420 1.368 . S
C417 C398 1.429 . S
C417 C411 1.429 . S
C417 C418 1.523 . S
C418 C399 1.368 . S
C418 C412 1.368 . S
C418 C417 1.523 . S
C419 C403 1.429 . S
C419 C415 1.429 . S
C419 C420 1.523 . S
C420 C404 1.368 . S
C420 C416 1.368 . S
C420 C419 1.523 . S
H421 C396 0.950 . S
H422 C398 0.950 . S
H423 C399 0.949 . S
H424 C401 0.950 . S
H425 C403 0.950 . S
C426 C427 1.348 1_455 S
C426 C428 1.327 . S
C426 H451 0.950 . S
C427 C426 1.348 1_655 S
C427 C443 1.350 . S
C428 C426 1.327 . S
C428 C447 1.429 1_455 S
C428 H452 0.950 . S
C429 C446 1.574 . S
C429 C448 1.368 . S
C429 H453 0.949 . S
H430 C434 0.949 . S
C431 C432 1.349 . S
C431 C433 1.327 . S
C431 H454 0.950 . S
C432 C431 1.349 . S
C432 C444 1.349 1_655 S
C433 C431 1.327 . S
C433 C449 1.429 . S
C433 H455 0.950 . S
C434 H430 0.949 . S
C434 C442 1.574 . S
C434 C450 1.368 1_455 S
H435 C443 0.950 . S
H436 C441 0.950 . S
H437 C442 0.949 . S
H438 C444 0.950 . S
H439 C445 0.950 . S
H440 C446 0.949 . S
C441 H436 0.950 . S
C441 C443 1.327 . S
C441 C447 1.429 . S
C442 C434 1.574 . S
C442 H437 0.949 . S
C442 C448 1.368 1_455 S
C443 C427 1.350 . S
C443 H435 0.950 . S
C443 C441 1.327 . S
C444 C432 1.349 1_455 S
C444 H438 0.950 . S
C444 C445 1.327 . S
C445 H439 0.950 . S
C445 C444 1.327 . S
C445 C449 1.429 1_455 S
C446 C429 1.574 . S
C446 H440 0.949 . S
C446 C450 1.368 . S
C447 C428 1.429 1_655 S
C447 C441 1.429 . S
C447 C448 1.523 . S
C448 C429 1.368 . S
C448 C442 1.368 1_655 S
C448 C447 1.523 . S
C449 C433 1.429 . S
C449 C445 1.429 1_655 S
C449 C450 1.523 . S
C450 C434 1.368 1_655 S
C450 C446 1.368 . S
C450 C449 1.523 . S
H451 C426 0.950 . S
H452 C428 0.950 . S
H453 C429 0.949 . S
H454 C431 0.950 . S
H455 C433 0.950 . S
C456 C457 1.349 . S
C456 C458 1.327 . S
C456 H481 0.950 1_556 S
C457 C456 1.349 . S
C457 C473 1.349 . S
C458 C456 1.327 . S
C458 C477 1.429 . S
C458 H482 0.950 . S
C459 C476 1.574 . S
C459 C478 1.368 . S
C459 H483 0.949 . S
H460 C464 0.949 . S
C461 C462 1.349 . S
C461 C463 1.327 . S
C461 H484 0.950 . S
C462 C461 1.349 . S
C462 C474 1.349 . S
C463 C461 1.327 . S
C463 C479 1.429 . S
C463 H485 0.950 . S
C464 H460 0.949 . S
C464 C472 1.574 . S
C464 C480 1.368 . S
H465 C473 0.950 . S
H466 C471 0.950 . S
H467 C472 0.949 . S
H468 C474 0.950 1_545 S
H469 C475 0.950 . S
H470 C476 0.949 . S
C471 H466 0.950 . S
C471 C473 1.327 . S
C471 C477 1.429 . S
C472 C464 1.574 . S
C472 H467 0.949 . S
C472 C478 1.368 . S
C473 C457 1.349 . S
C473 H465 0.950 . S
C473 C471 1.327 . S
C474 C462 1.349 . S
C474 H468 0.950 1_565 S
C474 C475 1.327 . S
C475 H469 0.950 . S
C475 C474 1.327 . S
C475 C479 1.429 . S
C476 C459 1.574 . S
C476 H470 0.949 . S
C476 C480 1.368 . S
C477 C458 1.429 . S
C477 C471 1.429 . S
C477 C478 1.523 . S
C478 C459 1.368 . S
C478 C472 1.368 . S
C478 C477 1.523 . S
C479 C463 1.429 . S
C479 C475 1.429 . S
C479 C480 1.523 . S
C480 C464 1.368 . S
C480 C476 1.368 . S
C480 C479 1.523 . S
H481 C456 0.950 1_554 S
H482 C458 0.950 . S
H483 C459 0.949 . S
H484 C461 0.950 . S
H485 C463 0.950 . S
C486 C487 1.349 . S
C486 C488 1.327 . S
C486 H511 0.950 . S
C487 C486 1.349 . S
C487 C503 1.349 . S
C488 C486 1.327 . S
C488 C507 1.429 . S
C488 H512 0.950 . S
C489 C506 1.574 . S
C489 C508 1.368 . S
C489 H513 0.949 . S
H490 C494 0.949 . S
C491 C492 1.349 . S
C491 C493 1.327 . S
C491 H514 0.950 . S
C492 C491 1.349 . S
C492 C504 1.349 . S
C493 C491 1.327 . S
C493 C509 1.429 . S
C493 H515 0.950 . S
C494 H490 0.949 . S
C494 C502 1.574 . S
C494 C510 1.368 . S
H495 C503 0.950 1_554 S
H496 C501 0.950 . S
H497 C502 0.949 . S
H498 C504 0.950 . S
H499 C505 0.950 . S
H500 C506 0.949 . S
C501 H496 0.950 . S
C501 C503 1.327 . S
C501 C507 1.429 . S
C502 C494 1.574 . S
C502 H497 0.949 . S
C502 C508 1.368 . S
C503 C487 1.349 . S
C503 H495 0.950 1_556 S
C503 C501 1.327 . S
C504 C492 1.349 . S
C504 H498 0.950 . S
C504 C505 1.327 . S
C505 H499 0.950 . S
C505 C504 1.327 . S
C505 C509 1.429 . S
C506 C489 1.574 . S
C506 H500 0.949 . S
C506 C510 1.368 . S
C507 C488 1.429 . S
C507 C501 1.429 . S
C507 C508 1.523 . S
C508 C489 1.368 . S
C508 C502 1.368 . S
C508 C507 1.523 . S
C509 C493 1.429 . S
C509 C505 1.429 . S
C509 C510 1.523 . S
C510 C494 1.368 . S
C510 C506 1.368 . S
C510 C509 1.523 . S
H511 C486 0.950 . S
H512 C488 0.950 . S
H513 C489 0.949 . S
H514 C491 0.950 . S
H515 C493 0.950 . S
C516 C517 1.349 . S
C516 C518 1.327 . S
C516 H541 0.950 . S
C517 C516 1.349 . S
C517 C533 1.349 . S
C518 C516 1.327 . S
C518 C537 1.429 . S
C518 H542 0.950 . S
C519 C536 1.574 . S
C519 C538 1.368 . S
C519 H543 0.949 . S
H520 C524 0.949 . S
C521 C522 1.349 . S
C521 C523 1.327 . S
C521 H544 0.950 . S
C522 C521 1.349 . S
C522 C534 1.349 . S
C523 C521 1.327 . S
C523 C539 1.429 . S
C523 H545 0.950 . S
C524 H520 0.949 . S
C524 C532 1.574 . S
C524 C540 1.368 . S
H525 C533 0.950 . S
H526 C531 0.950 . S
H527 C532 0.949 . S
H528 C534 0.950 . S
H529 C535 0.950 . S
H530 C536 0.949 . S
C531 H526 0.950 . S
C531 C533 1.327 . S
C531 C537 1.429 . S
C532 C524 1.574 . S
C532 H527 0.949 . S
C532 C538 1.368 . S
C533 C517 1.349 . S
C533 H525 0.950 . S
C533 C531 1.327 . S
C534 C522 1.349 . S
C534 H528 0.950 . S
C534 C535 1.327 . S
C535 H529 0.950 . S
C535 C534 1.327 . S
C535 C539 1.429 . S
C536 C519 1.574 . S
C536 H530 0.949 . S
C536 C540 1.368 . S
C537 C518 1.429 . S
C537 C531 1.429 . S
C537 C538 1.523 . S
C538 C519 1.368 . S
C538 C532 1.368 . S
C538 C537 1.523 . S
C539 C523 1.429 . S
C539 C535 1.429 . S
C539 C540 1.523 . S
C540 C524 1.368 . S
C540 C536 1.368 . S
C540 C539 1.523 . S
H541 C516 0.950 . S
H542 C518 0.950 . S
H543 C519 0.949 . S
H544 C521 0.950 . S
H545 C523 0.950 . S
C546 C547 1.349 . S
C546 C548 1.327 . S
C546 H571 0.950 . S
C547 C546 1.349 . S
C547 C563 1.348 1_455 S
C548 C546 1.327 . S
C548 C567 1.429 . S
C548 H572 0.950 . S
C549 C566 1.574 . S
C549 C568 1.368 1_655 S
C549 H573 0.949 . S
H550 C554 0.949 . S
C551 C552 1.349 1_655 S
C551 C553 1.327 . S
C551 H574 0.950 . S
C552 C551 1.349 1_455 S
C552 C564 1.349 . S
C553 C551 1.327 . S
C553 C569 1.429 1_655 S
C553 H575 0.950 . S
C554 H550 0.949 . S
C554 C562 1.574 . S
C554 C570 1.368 . S
H555 C563 0.950 1_554 S
H556 C561 0.950 . S
H557 C562 0.949 . S
H558 C564 0.950 . S
H559 C565 0.950 . S
H560 C566 0.949 . S
C561 H556 0.950 . S
C561 C563 1.327 . S
C561 C567 1.429 1_655 S
C562 C554 1.574 . S
C562 H557 0.949 . S
C562 C568 1.368 . S
C563 C547 1.348 1_655 S
C563 H555 0.950 1_556 S
C563 C561 1.327 . S
C564 C552 1.349 . S
C564 H558 0.950 . S
C564 C565 1.327 . S
C565 H559 0.950 . S
C565 C564 1.327 . S
C565 C569 1.429 . S
C566 C549 1.574 . S
C566 H560 0.949 . S
C566 C570 1.368 1_655 S
C567 C548 1.429 . S
C567 C561 1.429 1_455 S
C567 C568 1.523 . S
C568 C549 1.368 1_455 S
C568 C562 1.368 . S
C568 C567 1.523 . S
C569 C553 1.429 1_455 S
C569 C565 1.429 . S
C569 C570 1.523 . S
C570 C554 1.368 . S
C570 C566 1.368 1_455 S
C570 C569 1.523 . S
H571 C546 0.950 . S
H572 C548 0.950 . S
H573 C549 0.949 . S
H574 C551 0.950 . S
H575 C553 0.950 . S
C576 C577 1.364 . S
C576 C578 1.327 . S
C576 H601 0.950 . S
C577 C576 1.364 . S
C577 C593 1.332 1_455 S
C578 C576 1.327 . S
C578 C597 1.429 1_455 S
C578 H602 0.950 . S
C579 C596 1.574 . S
C579 C598 1.368 . S
C579 H603 0.949 . S
H580 C584 0.949 . S
C581 C582 1.349 . S
C581 C583 1.327 . S
C581 H604 0.950 . S
C582 C581 1.349 . S
C582 C594 1.349 . S
C583 C581 1.327 . S
C583 C599 1.429 . S
C583 H605 0.950 . S
C584 H580 0.949 . S
C584 C592 1.574 . S
C584 C600 1.368 1_455 S
H585 C593 0.950 . S
H586 C591 0.950 . S
H587 C592 0.949 . S
H588 C594 0.950 1_455 S
H589 C595 0.925 1_455 S
H590 C596 0.949 . S
C591 H586 0.950 . S
C591 C593 1.327 . S
C591 C597 1.429 . S
C592 C584 1.574 . S
C592 H587 0.949 . S
C592 C598 1.368 1_455 S
C593 C577 1.332 1_655 S
C593 H585 0.950 . S
C593 C591 1.327 . S
C594 C582 1.349 . S
C594 H588 0.950 1_655 S
C594 C595 1.332 . S
C595 H589 0.925 1_655 S
C595 C594 1.332 . S
C595 C599 1.450 . S
C596 C579 1.574 . S
C596 H590 0.949 . S
C596 C600 1.368 . S
C597 C578 1.429 1_655 S
C597 C591 1.429 . S
C597 C598 1.523 . S
C598 C579 1.368 . S
C598 C592 1.368 1_655 S
C598 C597 1.523 . S
C599 C583 1.429 . S
C599 C595 1.450 . S
C599 C600 1.523 . S
C600 C584 1.368 1_655 S
C600 C596 1.368 . S
C600 C599 1.523 . S
H601 C576 0.950 . S
H602 C578 0.950 . S
H603 C579 0.949 . S
H604 C581 0.950 . S
H605 C583 0.950 . S
C606 C607 1.349 . S
C606 C608 1.327 . S
C606 H631 0.950 . S
C607 C606 1.349 . S
C607 C623 1.349 . S
C608 C606 1.327 . S
C608 C627 1.429 . S
C608 H632 0.950 . S
C609 C626 1.574 . S
C609 C628 1.368 . S
C609 H633 0.949 . S
H610 C614 0.949 . S
C611 C612 1.349 . S
C611 C613 1.327 . S
C611 H634 0.950 . S
C612 C611 1.349 . S
C612 C624 1.349 . S
C613 C611 1.327 . S
C613 C629 1.429 . S
C613 H635 0.950 . S
C614 H610 0.949 . S
C614 C622 1.574 . S
C614 C630 1.368 . S
H615 C623 0.950 . S
H616 C621 0.950 . S
H617 C622 0.949 . S
H618 C624 0.950 . S
H619 C625 0.950 . S
H620 C626 0.949 . S
C621 H616 0.950 . S
C621 C623 1.327 . S
C621 C627 1.429 . S
C622 C614 1.574 . S
C622 H617 0.949 . S
C622 C628 1.368 . S
C623 C607 1.349 . S
C623 H615 0.950 . S
C623 C621 1.327 . S
C624 C612 1.349 . S
C624 H618 0.950 . S
C624 C625 1.327 . S
C625 H619 0.950 . S
C625 C624 1.327 . S
C625 C629 1.429 . S
C626 C609 1.574 . S
C626 H620 0.949 . S
C626 C630 1.368 . S
C627 C608 1.429 . S
C627 C621 1.429 . S
C627 C628 1.523 . S
C628 C609 1.368 . S
C628 C622 1.368 . S
C628 C627 1.523 . S
C629 C613 1.429 . S
C629 C625 1.429 . S
C629 C630 1.523 . S
C630 C614 1.368 . S
C630 C626 1.368 . S
C630 C629 1.523 . S
H631 C606 0.950 . S
H632 C608 0.950 . S
H633 C609 0.949 . S
H634 C611 0.950 . S
H635 C613 0.950 . S
C636 C637 1.349 . S
C636 C638 1.327 . S
C636 H661 0.950 . S
C637 C636 1.349 . S
C637 C653 1.349 . S
C638 C636 1.327 . S
C638 C657 1.429 . S
C638 H662 0.950 . S
C639 C656 1.574 . S
C639 C658 1.368 . S
C639 H663 0.949 . S
H640 C644 0.949 . S
C641 C642 1.349 . S
C641 C643 1.327 . S
C641 H664 0.950 . S
C642 C641 1.349 . S
C642 C654 1.349 . S
C643 C641 1.327 . S
C643 C659 1.429 . S
C643 H665 0.950 . S
C644 H640 0.949 . S
C644 C652 1.574 . S
C644 C660 1.368 . S
H645 C653 0.950 . S
H646 C651 0.950 . S
H647 C652 0.949 . S
H648 C654 0.950 . S
H649 C655 0.950 . S
H650 C656 0.949 . S
C651 H646 0.950 . S
C651 C653 1.327 . S
C651 C657 1.429 . S
C652 C644 1.574 . S
C652 H647 0.949 . S
C652 C658 1.368 . S
C653 C637 1.349 . S
C653 H645 0.950 . S
C653 C651 1.327 . S
C654 C642 1.349 . S
C654 H648 0.950 . S
C654 C655 1.327 . S
C655 H649 0.950 . S
C655 C654 1.327 . S
C655 C659 1.429 . S
C656 C639 1.574 . S
C656 H650 0.949 . S
C656 C660 1.368 . S
C657 C638 1.429 . S
C657 C651 1.429 . S
C657 C658 1.523 . S
C658 C639 1.368 . S
C658 C652 1.368 . S
C658 C657 1.523 . S
C659 C643 1.429 . S
C659 C655 1.429 . S
C659 C660 1.523 . S
C660 C644 1.368 . S
C660 C656 1.368 . S
C660 C659 1.523 . S
H661 C636 0.950 . S
H662 C638 0.950 . S
H663 C639 0.949 . S
H664 C641 0.950 . S
H665 C643 0.950 . S
C666 C667 1.349 . S
C666 C668 1.327 . S
C666 H691 0.950 . S
C667 C666 1.349 . S
C667 C683 1.349 . S
C668 C666 1.327 . S
C668 C687 1.429 . S
C668 H692 0.950 . S
C669 C686 1.574 . S
C669 C688 1.368 . S
C669 H693 0.949 . S
H670 C674 0.949 . S
C671 C672 1.349 . S
C671 C673 1.327 . S
C671 H694 0.950 . S
C672 C671 1.349 . S
C672 C684 1.349 . S
C673 C671 1.327 . S
C673 C689 1.429 . S
C673 H695 0.950 . S
C674 H670 0.949 . S
C674 C682 1.574 . S
C674 C690 1.368 . S
H675 C683 0.950 . S
H676 C681 0.950 . S
H677 C682 0.949 . S
H678 C684 0.950 . S
H679 C685 0.950 . S
H680 C686 0.949 . S
C681 H676 0.950 . S
C681 C683 1.327 . S
C681 C687 1.429 . S
C682 C674 1.574 . S
C682 H677 0.949 . S
C682 C688 1.368 . S
C683 C667 1.349 . S
C683 H675 0.950 . S
C683 C681 1.327 . S
C684 C672 1.349 . S
C684 H678 0.950 . S
C684 C685 1.327 . S
C685 H679 0.950 . S
C685 C684 1.327 . S
C685 C689 1.429 . S
C686 C669 1.574 . S
C686 H680 0.949 . S
C686 C690 1.368 . S
C687 C668 1.429 . S
C687 C681 1.429 . S
C687 C688 1.523 . S
C688 C669 1.368 . S
C688 C682 1.368 . S
C688 C687 1.523 . S
C689 C673 1.429 . S
C689 C685 1.429 . S
C689 C690 1.523 . S
C690 C674 1.368 . S
C690 C686 1.368 . S
C690 C689 1.523 . S
H691 C666 0.950 . S
H692 C668 0.950 . S
H693 C669 0.949 . S
H694 C671 0.950 . S
H695 C673 0.950 . S
C696 C697 1.359 . S
C696 C698 1.327 . S
C696 H721 0.950 . S
C697 C696 1.359 . S
C697 C713 1.337 1_655 S
C698 C696 1.327 . S
C698 C717 1.429 1_655 S
C698 H722 0.950 . S
C699 C716 1.574 . S
C699 C718 1.368 . S
C699 H723 0.949 . S
H700 C704 0.950 . S
C701 C702 1.349 . S
C701 C703 1.327 . S
C701 H724 0.950 . S
C702 C701 1.349 . S
C702 C714 1.349 . S
C703 C701 1.327 . S
C703 C719 1.429 . S
C703 H725 0.950 . S
C704 H700 0.950 . S
C704 C712 1.574 . S
C704 C720 1.367 1_655 S
H705 C713 0.950 . S
H706 C711 0.950 . S
H707 C712 0.949 . S
H708 C714 0.950 . S
H709 C715 0.950 1_655 S
H710 C716 0.949 . S
C711 H706 0.950 . S
C711 C713 1.327 . S
C711 C717 1.429 . S
C712 C704 1.574 . S
C712 H707 0.949 . S
C712 C718 1.368 1_655 S
C713 C697 1.337 1_455 S
C713 H705 0.950 . S
C713 C711 1.327 . S
C714 C702 1.349 . S
C714 H708 0.950 . S
C714 C715 1.327 . S
C715 H709 0.950 1_455 S
C715 C714 1.327 . S
C715 C719 1.429 . S
C716 C699 1.574 . S
C716 H710 0.949 . S
C716 C720 1.368 . S
C717 C698 1.429 1_455 S
C717 C711 1.429 . S
C717 C718 1.523 . S
C718 C699 1.368 . S
C718 C712 1.368 1_455 S
C718 C717 1.523 . S
C719 C703 1.429 . S
C719 C715 1.429 . S
C719 C720 1.523 . S
C720 C704 1.367 1_455 S
C720 C716 1.368 . S
C720 C719 1.523 . S
H721 C696 0.950 . S
H722 C698 0.950 . S
H723 C699 0.949 . S
H724 C701 0.950 . S
H725 C703 0.950 . S
C726 C727 1.349 . S
C726 C728 1.327 . S
C726 H751 0.950 . S
C727 C726 1.349 . S
C727 C743 1.349 . S
C728 C726 1.327 . S
C728 C747 1.429 . S
C728 H752 0.950 . S
C729 C746 1.574 . S
C729 C748 1.368 . S
C729 H753 0.949 . S
H730 C734 0.949 . S
C731 C732 1.349 1_545 S
C731 C733 1.325 1_545 S
C731 H754 0.950 . S
C732 C731 1.349 1_565 S
C732 C744 1.349 . S
C733 C731 1.325 1_565 S
C733 C749 1.433 . S
C733 H755 0.947 1_565 S
C734 H730 0.949 . S
C734 C742 1.574 . S
C734 C750 1.368 . S
H735 C743 0.950 . S
H736 C741 0.950 . S
H737 C742 0.949 . S
H738 C744 0.950 . S
H739 C745 0.950 . S
H740 C746 0.949 . S
C741 H736 0.950 . S
C741 C743 1.327 . S
C741 C747 1.429 . S
C742 C734 1.574 . S
C742 H737 0.949 . S
C742 C748 1.368 . S
C743 C727 1.349 . S
C743 H735 0.950 . S
C743 C741 1.327 . S
C744 C732 1.349 . S
C744 H738 0.950 . S
C744 C745 1.327 . S
C745 H739 0.950 . S
C745 C744 1.327 . S
C745 C749 1.429 . S
C746 C729 1.574 . S
C746 H740 0.949 . S
C746 C750 1.368 . S
C747 C728 1.429 . S
C747 C741 1.429 . S
C747 C748 1.523 . S
C748 C729 1.368 . S
C748 C742 1.368 . S
C748 C747 1.523 . S
C749 C733 1.433 . S
C749 C745 1.429 . S
C749 C750 1.523 . S
C750 C734 1.368 . S
C750 C746 1.368 . S
C750 C749 1.523 . S
H751 C726 0.950 . S
H752 C728 0.950 . S
H753 C729 0.949 . S
H754 C731 0.950 . S
H755 C733 0.947 1_545 S
C756 C757 1.349 . S
C756 C758 1.327 . S
C756 H781 0.950 . S
C757 C756 1.349 . S
C757 C773 1.349 . S
C758 C756 1.327 . S
C758 C777 1.429 . S
C758 H782 0.950 . S
C759 C776 1.574 . S
C759 C778 1.368 . S
C759 H783 0.949 . S
H760 C764 0.949 . S
C761 C762 1.349 . S
C761 C763 1.327 . S
C761 H784 0.950 . S
C762 C761 1.349 . S
C762 C774 1.349 . S
C763 C761 1.327 . S
C763 C779 1.429 . S
C763 H785 0.950 . S
C764 H760 0.949 . S
C764 C772 1.574 . S
C764 C780 1.368 . S
H765 C773 0.950 . S
H766 C771 0.950 . S
H767 C772 0.949 . S
H768 C774 0.950 . S
H769 C775 0.950 . S
H770 C776 0.949 . S
C771 H766 0.950 . S
C771 C773 1.327 . S
C771 C777 1.429 . S
C772 C764 1.574 . S
C772 H767 0.949 . S
C772 C778 1.368 . S
C773 C757 1.349 . S
C773 H765 0.950 . S
C773 C771 1.327 . S
C774 C762 1.349 . S
C774 H768 0.950 . S
C774 C775 1.327 . S
C775 H769 0.950 . S
C775 C774 1.327 . S
C775 C779 1.429 . S
C776 C759 1.574 . S
C776 H770 0.949 . S
C776 C780 1.368 . S
C777 C758 1.429 . S
C777 C771 1.429 . S
C777 C778 1.523 . S
C778 C759 1.368 . S
C778 C772 1.368 . S
C778 C777 1.523 . S
C779 C763 1.429 . S
C779 C775 1.429 . S
C779 C780 1.523 . S
C780 C764 1.368 . S
C780 C776 1.368 . S
C780 C779 1.523 . S
H781 C756 0.950 . S
H782 C758 0.950 . S
H783 C759 0.949 . S
H784 C761 0.950 . S
H785 C763 0.950 . S
C786 C787 1.349 . S
C786 C788 1.327 . S
C786 H811 0.950 . S
C787 C786 1.349 . S
C787 C803 1.349 . S
C788 C786 1.327 . S
C788 C807 1.429 . S
C788 H812 0.950 . S
C789 C806 1.574 . S
C789 C808 1.368 . S
C789 H813 0.949 . S
H790 C794 0.949 . S
C791 C792 1.349 . S
C791 C793 1.327 . S
C791 H814 0.950 . S
C792 C791 1.349 . S
C792 C804 1.349 . S
C793 C791 1.327 . S
C793 C809 1.429 . S
C793 H815 0.950 . S
C794 H790 0.949 . S
C794 C802 1.574 . S
C794 C810 1.368 . S
H795 C803 0.950 . S
H796 C801 0.950 . S
H797 C802 0.949 . S
H798 C804 0.950 . S
H799 C805 0.950 . S
H800 C806 0.949 . S
C801 H796 0.950 . S
C801 C803 1.327 . S
C801 C807 1.429 . S
C802 C794 1.574 . S
C802 H797 0.949 . S
C802 C808 1.368 . S
C803 C787 1.349 . S
C803 H795 0.950 . S
C803 C801 1.327 . S
C804 C792 1.349 . S
C804 H798 0.950 . S
C804 C805 1.327 . S
C805 H799 0.950 . S
C805 C804 1.327 . S
C805 C809 1.429 . S
C806 C789 1.574 . S
C806 H800 0.949 . S
C806 C810 1.368 . S
C807 C788 1.429 . S
C807 C801 1.429 . S
C807 C808 1.523 . S
C808 C789 1.368 . S
C808 C802 1.368 . S
C808 C807 1.523 . S
C809 C793 1.429 . S
C809 C805 1.429 . S
C809 C810 1.523 . S
C810 C794 1.368 . S
C810 C806 1.368 . S
C810 C809 1.523 . S
H811 C786 0.950 . S
H812 C788 0.950 . S
H813 C789 0.949 . S
H814 C791 0.950 . S
H815 C793 0.950 . S
C816 C817 1.365 . S
C816 C818 1.327 . S
C816 H841 0.950 . S
C817 C816 1.365 . S
C817 C833 1.335 1_455 S
C818 C816 1.327 . S
C818 C837 1.429 . S
C818 H842 0.950 . S
C819 C836 1.574 . S
C819 C838 1.368 1_655 S
C819 H843 0.949 . S
H820 C824 0.949 . S
C821 C822 1.349 1_655 S
C821 C823 1.327 . S
C821 H844 0.950 . S
C822 C821 1.349 1_455 S
C822 C834 1.349 . S
C823 C821 1.327 . S
C823 C839 1.429 1_655 S
C823 H845 0.950 . S
C824 H820 0.949 . S
C824 C832 1.574 . S
C824 C840 1.368 . S
H825 C833 0.950 1_554 S
H826 C831 0.950 . S
H827 C832 0.949 . S
H828 C834 0.950 . S
H829 C835 0.950 . S
H830 C836 0.949 . S
C831 H826 0.950 . S
C831 C833 1.327 . S
C831 C837 1.429 1_655 S
C832 C824 1.574 . S
C832 H827 0.949 . S
C832 C838 1.368 . S
C833 C817 1.335 1_655 S
C833 H825 0.950 1_556 S
C833 C831 1.327 . S
C834 C822 1.349 . S
C834 H828 0.950 . S
C834 C835 1.327 . S
C835 H829 0.950 . S
C835 C834 1.327 . S
C835 C839 1.429 . S
C836 C819 1.574 . S
C836 H830 0.949 . S
C836 C840 1.368 1_655 S
C837 C818 1.429 . S
C837 C831 1.429 1_455 S
C837 C838 1.523 . S
C838 C819 1.368 1_455 S
C838 C832 1.368 . S
C838 C837 1.523 . S
C839 C823 1.429 1_455 S
C839 C835 1.429 . S
C839 C840 1.523 . S
C840 C824 1.368 . S
C840 C836 1.368 1_455 S
C840 C839 1.523 . S
H841 C816 0.950 . S
H842 C818 0.950 . S
H843 C819 0.949 . S
H844 C821 0.950 . S
H845 C823 0.950 . S
C846 C847 1.349 . S
C846 C848 1.327 . S
C846 H871 0.950 1_556 S
C847 C846 1.349 . S
C847 C863 1.349 . S
C848 C846 1.327 . S
C848 C867 1.429 . S
C848 H872 0.950 . S
C849 C866 1.574 . S
C849 C868 1.368 . S
C849 H873 0.949 . S
H850 C854 0.949 . S
C851 C852 1.349 . S
C851 C853 1.327 . S
C851 H874 0.950 . S
C852 C851 1.349 . S
C852 C864 1.349 . S
C853 C851 1.327 . S
C853 C869 1.429 . S
C853 H875 0.950 . S
C854 H850 0.949 . S
C854 C862 1.574 . S
C854 C870 1.368 . S
H855 C863 0.950 . S
H856 C861 0.950 . S
H857 C862 0.949 . S
H858 C864 0.950 . S
H859 C865 0.950 . S
H860 C866 0.949 . S
C861 H856 0.950 . S
C861 C863 1.327 . S
C861 C867 1.429 . S
C862 C854 1.574 . S
C862 H857 0.949 . S
C862 C868 1.368 . S
C863 C847 1.349 . S
C863 H855 0.950 . S
C863 C861 1.327 . S
C864 C852 1.349 . S
C864 H858 0.950 . S
C864 C865 1.327 . S
C865 H859 0.950 . S
C865 C864 1.327 . S
C865 C869 1.429 . S
C866 C849 1.574 . S
C866 H860 0.949 . S
C866 C870 1.368 . S
C867 C848 1.429 . S
C867 C861 1.429 . S
C867 C868 1.523 . S
C868 C849 1.368 . S
C868 C862 1.368 . S
C868 C867 1.523 . S
C869 C853 1.429 . S
C869 C865 1.429 . S
C869 C870 1.523 . S
C870 C854 1.368 . S
C870 C866 1.368 . S
C870 C869 1.523 . S
H871 C846 0.950 1_554 S
H872 C848 0.950 . S
H873 C849 0.949 . S
H874 C851 0.950 . S
H875 C853 0.950 . S
C876 C877 1.349 . S
C876 C878 1.327 . S
C876 H901 0.950 . S
C877 C876 1.349 . S
C877 C893 1.349 . S
C878 C876 1.327 . S
C878 C897 1.429 . S
C878 H902 0.950 . S
C879 C896 1.574 . S
C879 C898 1.368 . S
C879 H903 0.949 . S
H880 C884 0.949 . S
C881 C882 1.349 . S
C881 C883 1.327 . S
C881 H904 0.950 . S
C882 C881 1.349 . S
C882 C894 1.349 . S
C883 C881 1.327 . S
C883 C899 1.429 . S
C883 H905 0.950 . S
C884 H880 0.949 . S
C884 C892 1.574 . S
C884 C900 1.368 . S
H885 C893 0.950 . S
H886 C891 0.950 . S
H887 C892 0.949 . S
H888 C894 0.950 . S
H889 C895 0.950 . S
H890 C896 0.949 . S
C891 H886 0.950 . S
C891 C893 1.327 . S
C891 C897 1.429 . S
C892 C884 1.574 . S
C892 H887 0.949 . S
C892 C898 1.368 . S
C893 C877 1.349 . S
C893 H885 0.950 . S
C893 C891 1.327 . S
C894 C882 1.349 . S
C894 H888 0.950 . S
C894 C895 1.327 . S
C895 H889 0.950 . S
C895 C894 1.327 . S
C895 C899 1.429 . S
C896 C879 1.574 . S
C896 H890 0.949 . S
C896 C900 1.368 . S
C897 C878 1.429 . S
C897 C891 1.429 . S
C897 C898 1.523 . S
C898 C879 1.368 . S
C898 C892 1.368 . S
C898 C897 1.523 . S
C899 C883 1.429 . S
C899 C895 1.429 . S
C899 C900 1.523 . S
C900 C884 1.368 . S
C900 C896 1.368 . S
C900 C899 1.523 . S
H901 C876 0.950 . S
H902 C878 0.950 . S
H903 C879 0.949 . S
H904 C881 0.950 . S
H905 C883 0.950 . S
C906 C907 1.349 . S
C906 C908 1.327 . S
C906 H931 0.950 . S
C907 C906 1.349 . S
C907 C923 1.349 . S
C908 C906 1.327 . S
C908 C927 1.429 . S
C908 H932 0.950 . S
C909 C926 1.574 . S
C909 C928 1.368 . S
C909 H933 0.949 . S
H910 C914 0.949 . S
C911 C912 1.349 . S
C911 C913 1.327 . S
C911 H934 0.950 . S
C912 C911 1.349 . S
C912 C924 1.349 . S
C913 C911 1.327 . S
C913 C929 1.429 . S
C913 H935 0.950 . S
C914 H910 0.949 . S
C914 C922 1.574 . S
C914 C930 1.368 . S
H915 C923 0.950 . S
H916 C921 0.950 . S
H917 C922 0.949 . S
H918 C924 0.950 . S
H919 C925 0.950 . S
H920 C926 0.949 . S
C921 H916 0.950 . S
C921 C923 1.327 . S
C921 C927 1.429 . S
C922 C914 1.574 . S
C922 H917 0.949 . S
C922 C928 1.368 . S
C923 C907 1.349 . S
C923 H915 0.950 . S
C923 C921 1.327 . S
C924 C912 1.349 . S
C924 H918 0.950 . S
C924 C925 1.327 . S
C925 H919 0.950 . S
C925 C924 1.327 . S
C925 C929 1.429 . S
C926 C909 1.574 . S
C926 H920 0.949 . S
C926 C930 1.368 . S
C927 C908 1.429 . S
C927 C921 1.429 . S
C927 C928 1.523 . S
C928 C909 1.368 . S
C928 C922 1.368 . S
C928 C927 1.523 . S
C929 C913 1.429 . S
C929 C925 1.429 . S
C929 C930 1.523 . S
C930 C914 1.368 . S
C930 C926 1.368 . S
C930 C929 1.523 . S
H931 C906 0.950 . S
H932 C908 0.950 . S
H933 C909 0.949 . S
H934 C911 0.950 . S
H935 C913 0.950 . S
C936 C937 1.333 1_455 S
C936 C938 1.327 . S
C936 H961 0.950 . S
C937 C936 1.333 1_655 S
C937 C953 1.367 . S
C938 C936 1.327 . S
C938 C957 1.429 1_455 S
C938 H962 0.950 . S
C939 C956 1.574 . S
C939 C958 1.368 . S
C939 H963 0.949 . S
H940 C944 0.949 . S
C941 C942 1.349 . S
C941 C943 1.327 . S
C941 H964 0.950 . S
C942 C941 1.349 . S
C942 C954 1.349 1_655 S
C943 C941 1.327 . S
C943 C959 1.429 . S
C943 H965 0.950 . S
C944 H940 0.949 . S
C944 C952 1.574 . S
C944 C960 1.368 1_455 S
H945 C953 0.950 . S
H946 C951 0.950 . S
H947 C952 0.949 . S
H948 C954 0.950 . S
H949 C955 0.950 . S
H950 C956 0.949 . S
C951 H946 0.950 . S
C951 C953 1.327 . S
C951 C957 1.429 . S
C952 C944 1.574 . S
C952 H947 0.949 . S
C952 C958 1.368 1_455 S
C953 C937 1.367 . S
C953 H945 0.950 . S
C953 C951 1.327 . S
C954 C942 1.349 1_455 S
C954 H948 0.950 . S
C954 C955 1.327 . S
C955 H949 0.950 . S
C955 C954 1.327 . S
C955 C959 1.429 1_455 S
C956 C939 1.574 . S
C956 H950 0.949 . S
C956 C960 1.368 . S
C957 C938 1.429 1_655 S
C957 C951 1.429 . S
C957 C958 1.523 . S
C958 C939 1.368 . S
C958 C952 1.368 1_655 S
C958 C957 1.523 . S
C959 C943 1.429 . S
C959 C955 1.429 1_655 S
C959 C960 1.523 . S
C960 C944 1.368 1_655 S
C960 C956 1.368 . S
C960 C959 1.523 . S
H961 C936 0.950 . S
H962 C938 0.950 . S
H963 C939 0.949 . S
H964 C941 0.950 . S
H965 C943 0.950 . S
C966 C967 1.349 . S
C966 C968 1.327 . S
C966 H991 0.950 . S
C967 C966 1.349 . S
C967 C983 1.349 . S
C968 C966 1.327 . S
C968 C987 1.429 . S
C968 H992 0.950 . S
C969 C986 1.574 . S
C969 C988 1.368 . S
C969 H993 0.949 . S
H970 C974 0.949 . S
C971 C972 1.349 . S
C971 C973 1.327 . S
C971 H994 0.950 . S
C972 C971 1.349 . S
C972 C984 1.349 . S
C973 C971 1.327 . S
C973 C989 1.429 . S
C973 H995 0.950 . S
C974 H970 0.949 . S
C974 C982 1.574 . S
C974 C990 1.368 . S
H975 C983 0.950 . S
H976 C981 0.950 . S
H977 C982 0.949 . S
H978 C984 0.950 1_545 S
H979 C985 0.950 . S
H980 C986 0.949 . S
C981 H976 0.950 . S
C981 C983 1.327 . S
C981 C987 1.429 . S
C982 C974 1.574 . S
C982 H977 0.949 . S
C982 C988 1.368 . S
C983 C967 1.349 . S
C983 H975 0.950 . S
C983 C981 1.327 . S
C984 C972 1.349 . S
C984 H978 0.950 1_565 S
C984 C985 1.327 . S
C985 H979 0.950 . S
C985 C984 1.327 . S
C985 C989 1.429 . S
C986 C969 1.574 . S
C986 H980 0.949 . S
C986 C990 1.368 . S
C987 C968 1.429 . S
C987 C981 1.429 . S
C987 C988 1.523 . S
C988 C969 1.368 . S
C988 C982 1.368 . S
C988 C987 1.523 . S
C989 C973 1.429 . S
C989 C985 1.429 . S
C989 C990 1.523 . S
C990 C974 1.368 . S
C990 C986 1.368 . S
C990 C989 1.523 . S
H991 C966 0.950 . S
H992 C968 0.950 . S
H993 C969 0.949 . S
H994 C971 0.950 . S
H995 C973 0.950 . S
C996 C997 1.349 . S
C996 C998 1.327 . S
C996 H1021 0.950 . S
C997 C996 1.349 . S
C997 C1013 1.349 . S
C998 C996 1.327 . S
C998 C1017 1.429 . S
C998 H1022 0.950 . S
C999 C1016 1.574 . S
C999 C1018 1.368 . S
C999 H1023 0.949 . S
H1000 C1004 0.949 . S
C1001 C1002 1.349 . S
C1001 C1003 1.327 . S
C1001 H1024 0.950 . S
C1002 C1001 1.349 . S
C1002 C1014 1.349 . S
C1003 C1001 1.327 . S
C1003 C1019 1.429 . S
C1003 H1025 0.950 . S
C1004 H1000 0.949 . S
C1004 C1012 1.574 . S
C1004 C1020 1.368 . S
H1005 C1013 0.950 . S
H1006 C1011 0.950 . S
H1007 C1012 0.949 . S
H1008 C1014 0.950 . S
H1009 C1015 0.950 . S
H1010 C1016 0.949 . S
C1011 H1006 0.950 . S
C1011 C1013 1.327 . S
C1011 C1017 1.429 . S
C1012 C1004 1.574 . S
C1012 H1007 0.949 . S
C1012 C1018 1.368 . S
C1013 C997 1.349 . S
C1013 H1005 0.950 . S
C1013 C1011 1.327 . S
C1014 C1002 1.349 . S
C1014 H1008 0.950 . S
C1014 C1015 1.327 . S
C1015 H1009 0.950 . S
C1015 C1014 1.327 . S
C1015 C1019 1.429 . S
C1016 C999 1.574 . S
C1016 H1010 0.949 . S
C1016 C1020 1.368 . S
C1017 C998 1.429 . S
C1017 C1011 1.429 . S
C1017 C1018 1.523 . S
C1018 C999 1.368 . S
C1018 C1012 1.368 . S
C1018 C1017 1.523 . S
C1019 C1003 1.429 . S
C1019 C1015 1.429 . S
C1019 C1020 1.523 . S
C1020 C1004 1.368 . S
C1020 C1016 1.368 . S
C1020 C1019 1.523 . S
H1021 C996 0.950 . S
H1022 C998 0.950 . S
H1023 C999 0.949 . S
H1024 C1001 0.950 . S
H1025 C1003 0.950 . S
C1026 C1027 1.349 . S
C1026 C1028 1.327 . S
C1026 H1051 0.950 . S
C1027 C1026 1.349 . S
C1027 C1043 1.349 . S
C1028 C1026 1.327 . S
C1028 C1047 1.429 . S
C1028 H1052 0.950 . S
C1029 C1046 1.574 . S
C1029 C1048 1.368 . S
C1029 H1053 0.949 . S
H1030 C1034 0.949 . S
C1031 C1032 1.349 . S
C1031 C1033 1.327 . S
C1031 H1054 0.950 . S
C1032 C1031 1.349 . S
C1032 C1044 1.349 . S
C1033 C1031 1.327 . S
C1033 C1049 1.429 . S
C1033 H1055 0.950 . S
C1034 H1030 0.949 . S
C1034 C1042 1.574 . S
C1034 C1050 1.368 . S
H1035 C1043 0.950 . S
H1036 C1041 0.950 . S
H1037 C1042 0.949 . S
H1038 C1044 0.950 . S
H1039 C1045 0.950 . S
H1040 C1046 0.949 . S
C1041 H1036 0.950 . S
C1041 C1043 1.327 . S
C1041 C1047 1.429 . S
C1042 C1034 1.574 . S
C1042 H1037 0.949 . S
C1042 C1048 1.368 . S
C1043 C1027 1.349 . S
C1043 H1035 0.950 . S
C1043 C1041 1.327 . S
C1044 C1032 1.349 . S
C1044 H1038 0.950 . S
C1044 C1045 1.327 . S
C1045 H1039 0.950 . S
C1045 C1044 1.327 . S
C1045 C1049 1.429 . S
C1046 C1029 1.574 . S
C1046 H1040 0.949 . S
C1046 C1050 1.368 . S
C1047 C1028 1.429 . S
C1047 C1041 1.429 . S
C1047 C1048 1.523 . S
C1048 C1029 1.368 . S
C1048 C1042 1.368 . S
C1048 C1047 1.523 . S
C1049 C1033 1.429 . S
C1049 C1045 1.429 . S
C1049 C1050 1.523 . S
C1050 C1034 1.368 . S
C1050 C1046 1.368 . S
C1050 C1049 1.523 . S
H1051 C1026 0.950 . S
H1052 C1028 0.950 . S
H1053 C1029 0.949 . S
H1054 C1031 0.950 . S
H1055 C1033 0.950 . S
C337 C215 1.667 . S
C342 C274 1.641 . S
C372 C294 1.379 . S
C367 C247 1.363 . S
C402 C314 1.616 . S
C397 C151 1.639 . S
C432 C334 1.362 . S
C427 C183 1.366 1_655 S
C462 C275 1.646 1_565 S
C457 C87 1.564 . S
C487 C119 1.401 1_556 S
C492 C295 1.379 . S
C517 C23 1.532 . S
C522 C315 1.616 . S
C547 C55 1.361 1_556 S
C552 C335 1.364 . S
C582 C265 0.504 . S
C577 C189 0.443 . S
C612 C285 0.605 . S
C607 C221 0.543 . S
C642 C305 0.531 . S
C637 C253 0.522 . S
C667 C157 0.473 . S
C672 C325 0.576 . S
C697 C61 0.443 1_655 S
C702 C268 0.496 . S
C732 C288 0.605 . S
C727 C93 0.630 . S
C762 C308 0.531 . S
C757 C125 0.489 . S
C787 C29 0.613 . S
C792 C328 0.582 . S
C817 C177 1.760 . S
C822 C258 1.722 . S
C847 C209 1.861 . S
C852 C278 1.775 . S
C882 C298 1.635 . S
C877 C241 1.648 . S
C912 C318 1.881 . S
C907 C145 1.954 1_556 S
C937 C49 1.760 1_655 S
C942 C260 1.724 . S
C972 C280 1.775 . S
C967 C81 1.766 . S
C1002 C300 1.635 . S
C997 C113 1.703 . S
C1027 C17 1.870 . S
C1032 C320 1.886 . S
