# Generated by pormake.
# Topology ctn, (3,4)-cn, num edge types: 1
# Building blocks:
#     Node 0, Type 0, BuildingBlock: BELTOD_clean_linker_0, # of connection points: 3
#     Node 1, Type 0, BuildingBlock: BELTOD_clean_linker_0, # of connection points: 3
#     Node 2, Type 0, BuildingBlock: BELTOD_clean_linker_0, # of connection points: 3
#     Node 3, Type 0, BuildingBlock: BELTOD_clean_linker_0, # of connection points: 3
#     Node 4, Type 0, BuildingBlock: BELTOD_clean_linker_0, # of connection points: 3
#     Node 5, Type 0, BuildingBlock: BELTOD_clean_linker_0, # of connection points: 3
#     Node 6, Type 0, BuildingBlock: BELTOD_clean_linker_0, # of connection points: 3
#     Node 7, Type 0, BuildingBlock: BELTOD_clean_linker_0, # of connection points: 3
#     Node 8, Type 0, BuildingBlock: BELTOD_clean_linker_0, # of connection points: 3
#     Node 9, Type 0, BuildingBlock: BELTOD_clean_linker_0, # of connection points: 3
#     Node 10, Type 0, BuildingBlock: BELTOD_clean_linker_0, # of connection points: 3
#     Node 11, Type 0, BuildingBlock: BELTOD_clean_linker_0, # of connection points: 3
#     Node 12, Type 0, BuildingBlock: BELTOD_clean_linker_0, # of connection points: 3
#     Node 13, Type 0, BuildingBlock: BELTOD_clean_linker_0, # of connection points: 3
#     Node 14, Type 0, BuildingBlock: BELTOD_clean_linker_0, # of connection points: 3
#     Node 15, Type 0, BuildingBlock: BELTOD_clean_linker_0, # of connection points: 3
#     Node 16, Type 1, BuildingBlock: QUQFOY_clean_sbu_1, # of connection points: 4
#     Node 17, Type 1, BuildingBlock: QUQFOY_clean_sbu_1, # of connection points: 4
#     Node 18, Type 1, BuildingBlock: QUQFOY_clean_sbu_1, # of connection points: 4
#     Node 19, Type 1, BuildingBlock: QUQFOY_clean_sbu_1, # of connection points: 4
#     Node 20, Type 1, BuildingBlock: QUQFOY_clean_sbu_1, # of connection points: 4
#     Node 21, Type 1, BuildingBlock: QUQFOY_clean_sbu_1, # of connection points: 4
#     Node 22, Type 1, BuildingBlock: QUQFOY_clean_sbu_1, # of connection points: 4
#     Node 23, Type 1, BuildingBlock: QUQFOY_clean_sbu_1, # of connection points: 4
#     Node 24, Type 1, BuildingBlock: QUQFOY_clean_sbu_1, # of connection points: 4
#     Node 25, Type 1, BuildingBlock: QUQFOY_clean_sbu_1, # of connection points: 4
#     Node 26, Type 1, BuildingBlock: QUQFOY_clean_sbu_1, # of connection points: 4
#     Node 27, Type 1, BuildingBlock: QUQFOY_clean_sbu_1, # of connection points: 4
#     Edge 28, Type (0, 1), BuildingBlock: OJICUG_clean_linker_0, # of connection points: 2
#     Edge 29, Type (0, 1), BuildingBlock: OJICUG_clean_linker_0, # of connection points: 2
#     Edge 30, Type (0, 1), BuildingBlock: OJICUG_clean_linker_0, # of connection points: 2
#     Edge 31, Type (0, 1), BuildingBlock: OJICUG_clean_linker_0, # of connection points: 2
#     Edge 32, Type (0, 1), BuildingBlock: OJICUG_clean_linker_0, # of connection points: 2
#     Edge 33, Type (0, 1), BuildingBlock: OJICUG_clean_linker_0, # of connection points: 2
#     Edge 34, Type (0, 1), BuildingBlock: OJICUG_clean_linker_0, # of connection points: 2
#     Edge 35, Type (0, 1), BuildingBlock: OJICUG_clean_linker_0, # of connection points: 2
#     Edge 36, Type (0, 1), BuildingBlock: OJICUG_clean_linker_0, # of connection points: 2
#     Edge 37, Type (0, 1), BuildingBlock: OJICUG_clean_linker_0, # of connection points: 2
#     Edge 38, Type (0, 1), BuildingBlock: OJICUG_clean_linker_0, # of connection points: 2
#     Edge 39, Type (0, 1), BuildingBlock: OJICUG_clean_linker_0, # of connection points: 2
#     Edge 40, Type (0, 1), BuildingBlock: OJICUG_clean_linker_0, # of connection points: 2
#     Edge 41, Type (0, 1), BuildingBlock: OJICUG_clean_linker_0, # of connection points: 2
#     Edge 42, Type (0, 1), BuildingBlock: OJICUG_clean_linker_0, # of connection points: 2
#     Edge 43, Type (0, 1), BuildingBlock: OJICUG_clean_linker_0, # of connection points: 2
#     Edge 44, Type (0, 1), BuildingBlock: OJICUG_clean_linker_0, # of connection points: 2
#     Edge 45, Type (0, 1), BuildingBlock: OJICUG_clean_linker_0, # of connection points: 2
#     Edge 46, Type (0, 1), BuildingBlock: OJICUG_clean_linker_0, # of connection points: 2
#     Edge 47, Type (0, 1), BuildingBlock: OJICUG_clean_linker_0, # of connection points: 2
#     Edge 48, Type (0, 1), BuildingBlock: OJICUG_clean_linker_0, # of connection points: 2
#     Edge 49, Type (0, 1), BuildingBlock: OJICUG_clean_linker_0, # of connection points: 2
#     Edge 50, Type (0, 1), BuildingBlock: OJICUG_clean_linker_0, # of connection points: 2
#     Edge 51, Type (0, 1), BuildingBlock: OJICUG_clean_linker_0, # of connection points: 2
#     Edge 52, Type (0, 1), BuildingBlock: OJICUG_clean_linker_0, # of connection points: 2
#     Edge 53, Type (0, 1), BuildingBlock: OJICUG_clean_linker_0, # of connection points: 2
#     Edge 54, Type (0, 1), BuildingBlock: OJICUG_clean_linker_0, # of connection points: 2
#     Edge 55, Type (0, 1), BuildingBlock: OJICUG_clean_linker_0, # of connection points: 2
#     Edge 56, Type (0, 1), BuildingBlock: OJICUG_clean_linker_0, # of connection points: 2
#     Edge 57, Type (0, 1), BuildingBlock: OJICUG_clean_linker_0, # of connection points: 2
#     Edge 58, Type (0, 1), BuildingBlock: OJICUG_clean_linker_0, # of connection points: 2
#     Edge 59, Type (0, 1), BuildingBlock: OJICUG_clean_linker_0, # of connection points: 2
#     Edge 60, Type (0, 1), BuildingBlock: OJICUG_clean_linker_0, # of connection points: 2
#     Edge 61, Type (0, 1), BuildingBlock: OJICUG_clean_linker_0, # of connection points: 2
#     Edge 62, Type (0, 1), BuildingBlock: OJICUG_clean_linker_0, # of connection points: 2
#     Edge 63, Type (0, 1), BuildingBlock: OJICUG_clean_linker_0, # of connection points: 2
#     Edge 64, Type (0, 1), BuildingBlock: OJICUG_clean_linker_0, # of connection points: 2
#     Edge 65, Type (0, 1), BuildingBlock: OJICUG_clean_linker_0, # of connection points: 2
#     Edge 66, Type (0, 1), BuildingBlock: OJICUG_clean_linker_0, # of connection points: 2
#     Edge 67, Type (0, 1), BuildingBlock: OJICUG_clean_linker_0, # of connection points: 2
#     Edge 68, Type (0, 1), BuildingBlock: OJICUG_clean_linker_0, # of connection points: 2
#     Edge 69, Type (0, 1), BuildingBlock: OJICUG_clean_linker_0, # of connection points: 2
#     Edge 70, Type (0, 1), BuildingBlock: OJICUG_clean_linker_0, # of connection points: 2
#     Edge 71, Type (0, 1), BuildingBlock: OJICUG_clean_linker_0, # of connection points: 2
#     Edge 72, Type (0, 1), BuildingBlock: OJICUG_clean_linker_0, # of connection points: 2
#     Edge 73, Type (0, 1), BuildingBlock: OJICUG_clean_linker_0, # of connection points: 2
#     Edge 74, Type (0, 1), BuildingBlock: OJICUG_clean_linker_0, # of connection points: 2
#     Edge 75, Type (0, 1), BuildingBlock: OJICUG_clean_linker_0, # of connection points: 2
# Relax obj value: 0.038
# Max RMSD: 0.153
# Mean RMSD: 0.068
data_MOF--net-ctn--node1-QUQFOY_clean_sbu_1--node2-BELTOD_clean_linker_0--edge1-OJICUG_clean_linker_0
_symmetry_space_group_name_H-M    P1
_symmetry_Int_Tables_number       1
_symmetry_cell_setting            triclinic
loop_
_symmetry_equiv_pos_as_xyz
'x, y, z'
_cell_length_a     47.373537
_cell_length_b     47.708937
_cell_length_c     47.366378
_cell_angle_alpha  92.248001
_cell_angle_beta   90.224105
_cell_angle_gamma 95.783849
loop_
_atom_site_label
_atom_site_type_symbol
_atom_site_fract_x
_atom_site_fract_y
_atom_site_fract_z
_atom_type_partial_charge
P0 P 0.07864 0.11143 0.06929 0.0
H1 H 0.06498 0.12474 0.1284 0.0
H2 H 0.02495 0.10881 0.15817 0.0
H3 H 0.98505 0.06098 0.08683 0.0
H4 H 0.02535 0.07653 0.05737 0.0
H5 H 0.12077 0.10433 0.0259 0.0
H6 H 0.14502 0.06415 0.00934 0.0
H7 H 0.09493 0.01086 0.0662 0.0
H8 H 0.07207 0.05149 0.08371 0.0
H9 H 0.08358 0.17204 0.06055 0.0
H10 H 0.04816 0.09577 0.01623 0.0
O11 O 0.1033 0.13095 0.08874 0.0
H12 H 0.0637 0.20018 0.02472 0.0
H13 H 0.02745 0.1239 0.98081 0.0
C14 C 0.04821 0.10166 0.09072 0.0
C15 C 0.04753 0.11101 0.1191 0.0
C16 C 0.02452 0.10206 0.13606 0.0
C17 C 0.00189 0.08356 0.12485 0.0
C18 C 0.00231 0.07499 0.09613 0.0
C19 C 0.02525 0.08401 0.07922 0.0
C20 C 0.09423 0.08085 0.05559 0.0
C21 C 0.11486 0.08392 0.03457 0.0
C22 C 0.12856 0.0608 0.025 0.0
C23 C 0.12182 0.03405 0.03622 0.0
C24 C 0.1009 0.0311 0.05721 0.0
C25 C 0.08748 0.05435 0.06702 0.0
C26 C 0.06738 0.13184 0.04099 0.0
C27 C 0.07191 0.16134 0.04289 0.0
C28 C 0.06059 0.17739 0.02241 0.0
C29 C 0.04408 0.16415 6e-05 0.0
C30 C 0.04005 0.13457 0.9979 0.0
C31 C 0.05181 0.11853 0.01813 0.0
P32 P 0.29043 0.69096 0.2036 0.0
H33 H 0.29918 0.69273 0.14289 0.0
H34 H 0.28677 0.72465 0.10728 0.0
H35 H 0.24623 0.77379 0.17099 0.0
H36 H 0.25742 0.74058 0.20649 0.0
H37 H 0.34038 0.67079 0.22869 0.0
H38 H 0.37331 0.69027 0.26586 0.0
H39 H 0.33223 0.76708 0.26916 0.0
H40 H 0.29911 0.74745 0.23223 0.0
H41 H 0.22793 0.69377 0.2044 0.0
H42 H 0.29072 0.65314 0.24954 0.0
O43 O 0.30379 0.66406 0.18655 0.0
H44 H 0.19073 0.67084 0.23342 0.0
H45 H 0.25377 0.62894 0.27734 0.0
C46 C 0.27954 0.71436 0.17751 0.0
C47 C 0.28739 0.71017 0.1493 0.0
C48 C 0.28044 0.72864 0.1289 0.0
C49 C 0.26585 0.75208 0.1363 0.0
C50 C 0.25736 0.75589 0.16451 0.0
C51 C 0.26412 0.73713 0.18493 0.0
C52 C 0.31747 0.70777 0.22722 0.0
C53 C 0.3387 0.69202 0.23699 0.0
C54 C 0.35734 0.70304 0.25845 0.0
C55 C 0.35518 0.73011 0.27045 0.0
C56 C 0.33446 0.74622 0.26011 0.0
C57 C 0.31554 0.735 0.23886 0.0
C58 C 0.26227 0.67571 0.22522 0.0
C59 C 0.23386 0.6803 0.22078 0.0
C60 C 0.21249 0.66685 0.23723 0.0
C61 C 0.21916 0.64811 0.25796 0.0
C62 C 0.24775 0.64377 0.26224 0.0
C63 C 0.26901 0.65748 0.24611 0.0
P64 P 0.98279 0.50891 0.06836 0.0
H65 H 0.98245 0.50062 0.00759 0.0
H66 H 0.97802 0.45868 0.97613 0.0
H67 H 0.97365 0.40602 0.04855 0.0
H68 H 0.97713 0.44824 0.07991 0.0
H69 H 0.96884 0.56659 0.07892 0.0
H70 H 0.92631 0.58985 0.06844 0.0
H71 H 0.88248 0.50937 0.04169 0.0
H72 H 0.92473 0.48626 0.05246 0.0
H73 H 0.03546 0.49711 0.09433 0.0
H74 H 0.94938 0.5043 0.12063 0.0
O75 O 0.00873 0.53146 0.05624 0.0
H76 H 0.04951 0.49138 0.1432 0.0
H77 H 0.96312 0.49805 0.1697 0.0
C78 C 0.98078 0.47751 0.04597 0.0
C79 C 0.98074 0.48003 0.01666 0.0
C80 C 0.97826 0.45602 -0.00127 0.0
C81 C 0.97582 0.42896 0.00982 0.0
C82 C 0.97536 0.42653 0.03933 0.0
C83 C 0.97768 0.45066 0.05729 0.0
C84 C 0.95014 0.52489 0.06571 0.0
C85 C 0.94989 0.55394 0.07126 0.0
C86 C 0.92559 0.56716 0.06541 0.0
C87 C 0.90133 0.55142 0.05386 0.0
C88 C 0.9011 0.52202 0.05016 0.0
C89 C 0.92526 0.50883 0.05627 0.0
C90 C 0.99162 0.50183 0.10408 0.0
C91 C 0.01953 0.49714 0.11067 0.0
C92 C 0.02744 0.49353 0.13859 0.0
C93 C 0.00746 0.49442 0.1604 0.0
C94 C 0.97909 0.49769 0.15343 0.0
C95 C 0.97121 0.50128 0.12542 0.0
P96 P 0.66329 0.84216 0.18099 0.0
H97 H 0.69953 0.88358 0.15085 0.0
H98 H 0.73966 0.91724 0.16562 0.0
H99 H 0.73572 0.88417 0.24933 0.0
H100 H 0.69536 0.85093 0.23455 0.0
H101 H 0.638 0.80858 0.13336 0.0
H102 H 0.65116 0.76709 0.10742 0.0
H103 H 0.72189 0.76326 0.16476 0.0
H104 H 0.70907 0.80599 0.18998 0.0
H105 H 0.61491 0.86776 0.2041 0.0
H106 H 0.6637 0.79951 0.22421 0.0
O107 O 0.64493 0.85934 0.15829 0.0
H108 H 0.58582 0.85891 0.24555 0.0
H109 H 0.63534 0.79119 0.26673 0.0
C110 C 0.69412 0.86518 0.19173 0.0
C111 C 0.70734 0.88358 0.17237 0.0
C112 C 0.73037 0.90269 0.1808 0.0
C113 C 0.74068 0.90355 0.20874 0.0
C114 C 0.72789 0.88441 0.22784 0.0
C115 C 0.70486 0.86529 0.21935 0.0
C116 C 0.67287 0.81061 0.16321 0.0
C117 C 0.65638 0.79888 0.14035 0.0
C118 C 0.66377 0.77482 0.12574 0.0
C119 C 0.68756 0.76159 0.13404 0.0
C120 C 0.70365 0.77305 0.15756 0.0
C121 C 0.69633 0.79741 0.17205 0.0
C122 C 0.64114 0.83402 0.21085 0.0
C123 C 0.61931 0.85077 0.21744 0.0
C124 C 0.60293 0.84591 0.24143 0.0
C125 C 0.60843 0.82452 0.25973 0.0
C126 C 0.63035 0.80764 0.25298 0.0
C127 C 0.64659 0.81238 0.2287 0.0
P128 P 0.06906 0.92561 0.4222 0.0
H129 H 0.13009 0.92948 0.43268 0.0
H130 H 0.16516 0.96899 0.44601 0.0
H131 H 0.09933 0.02552 0.44526 0.0
H132 H 0.06439 0.98582 0.43292 0.0
H133 H 0.02795 0.87711 0.42936 0.0
H134 H 0.00963 0.8526 0.47091 0.0
H135 H 0.06146 0.91244 0.52486 0.0
H136 H 0.07982 0.93669 0.48329 0.0
H137 H 0.06764 0.94224 0.36412 0.0
H138 H 0.01054 0.93809 0.43482 0.0
O139 O 0.08473 0.90191 0.40259 0.0
H140 H 0.0318 0.96145 0.33554 0.0
H141 H 0.97404 0.95629 0.40605 0.0
C142 C 0.09482 0.95486 0.43125 0.0
C143 C 0.12331 0.95043 0.43524 0.0
C144 C 0.14333 0.97306 0.44275 0.0
C145 C 0.13511 0.00048 0.44651 0.0
C146 C 0.10638 0.00467 0.44277 0.0
C147 C 0.08639 0.98201 0.43543 0.0
C148 C 0.05515 0.90869 0.45321 0.0
C149 C 0.03526 0.88499 0.45016 0.0
C150 C 0.02473 0.8711 0.47392 0.0
C151 C 0.03409 0.88062 0.50118 0.0
C152 C 0.05406 0.90445 0.50413 0.0
C153 C 0.06446 0.91842 0.48033 0.0
C154 C 0.04147 0.93804 0.40127 0.0
C155 C 0.04716 0.94502 0.37331 0.0
C156 C 0.02659 0.95594 0.35699 0.0
C157 C -0.00015 0.96011 0.36836 0.0
C158 C 0.99441 0.95348 0.39665 0.0
C159 C 0.01515 0.94271 0.41303 0.0
P160 P 0.26326 0.7663 0.76194 0.0
H161 H 0.28721 0.75964 0.8187 0.0
H162 H 0.28068 0.78386 0.86419 0.0
H163 H 0.22577 0.83793 0.82412 0.0
H164 H 0.23375 0.8147 0.77865 0.0
H165 H 0.31941 0.74739 0.75268 0.0
H166 H 0.33903 0.70285 0.76043 0.0
H167 H 0.2572 0.66726 0.78932 0.0
H168 H 0.23794 0.71203 0.78204 0.0
H169 H 0.24189 0.77206 0.70427 0.0
H170 H 0.20743 0.75124 0.78582 0.0
O171 O 0.28484 0.78619 0.74131 0.0
H172 H 0.19375 0.7716 0.68507 0.0
H173 H 0.15961 0.7517 0.76728 0.0
C174 C 0.26056 0.78507 0.79538 0.0
C175 C 0.27393 0.77683 0.81969 0.0
C176 C 0.26993 0.79056 0.84579 0.0
C177 C 0.25238 0.81269 0.84802 0.0
C178 C 0.23966 0.82124 0.82332 0.0
C179 C 0.24402 0.8078 0.79726 0.0
C180 C 0.27705 0.73286 0.7662 0.0
C181 C 0.30562 0.72992 0.76043 0.0
C182 C 0.31682 0.70441 0.76485 0.0
C183 C 0.29967 0.68141 0.77538 0.0
C184 C 0.27108 0.6846 0.78142 0.0
C185 C 0.25992 0.71013 0.77697 0.0
C186 C 0.2282 0.76183 0.74649 0.0
C187 C 0.22398 0.76716 0.71797 0.0
C188 C 0.19644 0.76717 0.70711 0.0
C189 C 0.17273 0.76184 0.72465 0.0
C190 C 0.17724 0.75552 0.75299 0.0
C191 C 0.20466 0.75532 0.7637 0.0
P192 P 0.95712 0.51863 0.55474 0.0
H193 H 0.01709 0.51334 0.54498 0.0
H194 H 0.04578 0.51363 0.50225 0.0
H195 H 0.97073 0.52185 0.45206 0.0
H196 H 0.94289 0.52358 0.49492 0.0
H197 H 0.96124 0.54271 0.61239 0.0
H198 H 0.96355 0.59116 0.63164 0.0
H199 H 0.96083 0.62131 0.54685 0.0
H200 H 0.95754 0.57279 0.52791 0.0
H201 H 0.93012 0.47237 0.519 0.0
H202 H 0.90356 0.53729 0.57608 0.0
O203 O 0.96976 0.49775 0.57816 0.0
H204 H 0.88043 0.45614 0.5084 0.0
H205 H 0.85387 0.52051 0.56609 0.0
C206 C 0.97774 0.51749 0.52302 0.0
C207 C 0.00688 0.51505 0.52471 0.0
C208 C 0.02321 0.51506 0.5002 0.0
C209 C 0.01058 0.51744 0.47355 0.0
C210 C 0.98133 0.52023 0.47213 0.0
C211 C 0.96519 0.52072 0.49667 0.0
C212 C 0.96003 0.5543 0.56874 0.0
C213 C 0.96134 0.55979 0.59798 0.0
C214 C 0.96266 0.58749 0.60893 0.0
C215 C 0.96261 0.61013 0.59076 0.0
C216 C 0.96068 0.60438 0.56144 0.0
C217 C 0.9592 0.57666 0.55055 0.0
C218 C 0.92054 0.50655 0.54764 0.0
C219 C 0.91364 0.4833 0.52901 0.0
C220 C 0.88532 0.47412 0.5229 0.0
C221 C 0.86351 0.48749 0.53607 0.0
C222 C 0.87042 0.51016 0.55545 0.0
C223 C 0.89878 0.51971 0.56113 0.0
P224 P 0.83651 0.86485 0.85758 0.0
H225 H 0.85031 0.89211 0.80425 0.0
H226 H 0.87941 0.87895 0.76402 0.0
H227 H 0.89025 0.79984 0.80202 0.0
H228 H 0.86171 0.81309 0.84193 0.0
H229 H 0.82111 0.91646 0.88544 0.0
H230 H 0.78105 0.94382 0.88032 0.0
H231 H 0.7483 0.88699 0.81175 0.0
H232 H 0.78999 0.86093 0.81573 0.0
H233 H 0.85984 0.83549 0.90385 0.0
H234 H 0.78375 0.82663 0.85258 0.0
O235 O 0.8615 0.88366 0.87723 0.0
H236 H 0.84299 0.79275 0.92811 0.0
H237 H 0.76678 0.78409 0.87685 0.0
C238 C 0.85337 0.85338 0.82583 0.0
C239 C 0.85848 0.8717 0.80356 0.0
C240 C 0.87513 0.86419 0.78065 0.0
C241 C 0.88727 0.83846 0.78001 0.0
C242 C 0.88151 0.81997 0.8021 0.0
C243 C 0.86487 0.82743 0.82484 0.0
C244 C 0.80849 0.88664 0.85101 0.0
C245 C 0.80561 0.91016 0.86894 0.0
C246 C 0.78234 0.92557 0.86624 0.0
C247 C 0.7609 0.91731 0.84604 0.0
C248 C 0.76434 0.89412 0.82748 0.0
C249 C 0.78807 0.87904 0.82984 0.0
C250 C 0.82277 0.83471 0.87686 0.0
C251 C 0.83935 0.82462 0.89807 0.0
C252 C 0.82983 0.80005 0.91172 0.0
C253 C 0.80354 0.78516 0.90439 0.0
C254 C 0.78695 0.79536 0.88318 0.0
C255 C 0.79663 0.81977 0.86934 0.0
P256 P 0.3405 0.36484 0.36407 0.0
H257 H 0.35318 0.39363 0.3112 0.0
H258 H 0.38467 0.38378 0.27178 0.0
H259 H 0.40299 0.30698 0.3103 0.0
H260 H 0.37195 0.31691 0.34936 0.0
H261 H 0.32162 0.41433 0.39317 0.0
H262 H 0.28101 0.44069 0.38695 0.0
H263 H 0.25359 0.38599 0.3149 0.0
H264 H 0.29584 0.36097 0.32017 0.0
H265 H 0.36358 0.33379 0.40921 0.0
H266 H 0.28894 0.32527 0.35585 0.0
O267 O 0.3637 0.38367 0.38571 0.0
H268 H 0.34718 0.28958 0.43117 0.0
H269 H 0.27238 0.2813 0.37789 0.0
C270 C 0.35967 0.35569 0.33291 0.0
C271 C 0.36353 0.37439 0.31081 0.0
C272 C 0.38157 0.3688 0.28837 0.0
C273 C 0.39643 0.34471 0.28808 0.0
C274 C 0.39213 0.3259 0.3101 0.0
C275 C 0.37405 0.33142 0.33233 0.0
C276 C 0.31177 0.3857 0.35714 0.0
C277 C 0.30716 0.40826 0.37574 0.0
C278 C 0.28355 0.42309 0.37237 0.0
C279 C 0.26348 0.41519 0.35076 0.0
C280 C 0.26855 0.39285 0.3317 0.0
C281 C 0.29262 0.37837 0.33478 0.0
C282 C 0.32719 0.33325 0.38134 0.0
C283 C 0.34351 0.32264 0.40244 0.0
C284 C 0.33427 0.29724 0.41478 0.0
C285 C 0.30847 0.28208 0.40627 0.0
C286 C 0.29218 0.29275 0.3851 0.0
C287 C 0.30162 0.31798 0.37253 0.0
P288 P 0.48301 0.00259 0.57378 0.0
H289 H 0.48638 0.99461 0.51315 0.0
H290 H 0.48332 0.95287 0.48148 0.0
H291 H 0.47388 0.89974 0.55343 0.0
H292 H 0.47608 0.94183 0.58498 0.0
H293 H 0.46816 0.05991 0.5846 0.0
H294 H 0.42619 0.08318 0.57213 0.0
H295 H 0.38425 0.00305 0.54173 0.0
H296 H 0.42592 0.97993 0.55444 0.0
H297 H 0.53498 0.99184 0.6018 0.0
H298 H 0.44769 0.99726 0.62478 0.0
O299 O 0.50926 0.02537 0.56261 0.0
H300 H 0.54743 0.98679 0.6512 0.0
H301 H 0.45979 0.99156 0.67441 0.0
C302 C 0.48214 0.97127 0.55135 0.0
C303 C 0.4839 0.97396 0.5221 0.0
C304 C 0.48219 0.95006 0.50404 0.0
C305 C 0.47871 0.92293 0.51494 0.0
C306 C 0.47646 0.92032 0.54436 0.0
C307 C 0.47803 0.94436 0.56244 0.0
C308 C 0.4504 0.01838 0.56975 0.0
C309 C 0.44971 0.04732 0.57571 0.0
C310 C 0.42573 0.06055 0.56871 0.0
C311 C 0.40221 0.04494 0.55557 0.0
C312 C 0.40231 0.01562 0.55141 0.0
C313 C 0.42615 0.00241 0.55865 0.0
C314 C 0.49062 0.99561 0.60984 0.0
C315 C 0.51843 0.99158 0.61753 0.0
C316 C 0.52543 0.98837 0.64577 0.0
C317 C 0.50463 0.98894 0.66685 0.0
C318 C 0.47639 0.99148 0.65876 0.0
C319 C 0.46943 0.99473 0.63041 0.0
P320 P 0.16926 0.32621 0.6852 0.0
H321 H 0.19323 0.37791 0.65938 0.0
H322 H 0.22947 0.41537 0.67516 0.0
H323 H 0.24318 0.37036 0.75061 0.0
H324 H 0.20686 0.33293 0.73469 0.0
H325 H 0.14405 0.26786 0.68177 0.0
H326 H 0.15834 0.22601 0.6566 0.0
H327 H 0.23761 0.27271 0.63466 0.0
H328 H 0.22346 0.31426 0.66046 0.0
H329 H 0.1168 0.35012 0.69887 0.0
H330 H 0.1691 0.29185 0.7354 0.0
O331 O 0.15172 0.33752 0.65793 0.0
H332 H 0.08468 0.34546 0.73871 0.0
H333 H 0.1375 0.28784 0.77622 0.0
C334 C 0.19708 0.35287 0.69609 0.0
C335 C 0.20404 0.37606 0.6793 0.0
C336 C 0.22483 0.3974 0.68828 0.0
C337 C 0.23897 0.39588 0.71423 0.0
C338 C 0.23227 0.37231 0.73075 0.0
C339 C 0.21161 0.35088 0.72164 0.0
C340 C 0.18288 0.29402 0.67336 0.0
C341 C 0.16494 0.2688 0.67244 0.0
C342 C 0.17304 0.24494 0.65785 0.0
C343 C 0.19903 0.2461 0.64349 0.0
C344 C 0.21764 0.27099 0.64583 0.0
C345 C 0.20952 0.29483 0.66051 0.0
C346 C 0.14504 0.32103 0.71403 0.0
C347 C 0.12131 0.33622 0.71548 0.0
C348 C 0.10315 0.33378 0.7385 0.0
C349 C 0.10866 0.31648 0.76084 0.0
C350 C 0.13251 0.30115 0.75927 0.0
C351 C 0.15062 0.30349 0.73603 0.0
P352 P 0.77905 0.19426 0.70736 0.0
H353 H 0.79252 0.20193 0.64818 0.0
H354 H 0.77985 0.2355 0.61413 0.0
H355 H 0.73074 0.27565 0.6778 0.0
H356 H 0.74312 0.24135 0.71186 0.0
H357 H 0.82939 0.17324 0.73092 0.0
H358 H 0.86381 0.19247 0.76697 0.0
H359 H 0.82326 0.26957 0.77227 0.0
H360 H 0.78862 0.25014 0.73648 0.0
H361 H 0.71633 0.19237 0.70374 0.0
H362 H 0.77913 0.16115 0.75717 0.0
O363 O 0.79147 0.16746 0.68925 0.0
H364 H 0.6787 0.16953 0.7323 0.0
H365 H 0.74201 0.1367 0.78441 0.0
C366 C 0.76852 0.21892 0.68248 0.0
C367 C 0.77883 0.21775 0.65485 0.0
C368 C 0.77171 0.23712 0.63541 0.0
C369 C 0.75436 0.2583 0.6433 0.0
C370 C 0.7439 0.25938 0.67102 0.0
C371 C 0.75109 0.23992 0.69052 0.0
C372 C 0.8067 0.21042 0.73059 0.0
C373 C 0.82814 0.19446 0.73947 0.0
C374 C 0.84762 0.20533 0.76026 0.0
C375 C 0.84609 0.23245 0.77244 0.0
C376 C 0.82502 0.24869 0.76305 0.0
C377 C 0.80526 0.23761 0.7425 0.0
C378 C 0.75065 0.17935 0.72889 0.0
C379 C 0.72211 0.18108 0.72189 0.0
C380 C 0.70053 0.16759 0.73806 0.0
C381 C 0.70715 0.15138 0.76096 0.0
C382 C 0.73588 0.14967 0.76764 0.0
C383 C 0.7573 0.16355 0.75184 0.0
P384 P 0.57029 0.60472 0.57708 0.0
H385 H 0.56262 0.60739 0.63829 0.0
H386 H 0.52169 0.59508 0.66829 0.0
H387 H 0.46946 0.57443 0.59403 0.0
H388 H 0.51021 0.5873 0.56408 0.0
H389 H 0.62655 0.58469 0.57916 0.0
H390 H 0.64431 0.5399 0.565 0.0
H391 H 0.56027 0.50688 0.5371 0.0
H392 H 0.54219 0.55127 0.55238 0.0
H393 H 0.57768 0.66492 0.5673 0.0
H394 H 0.54292 0.58908 0.52173 0.0
O395 O 0.59559 0.62385 0.59611 0.0
H396 H 0.561 0.69326 0.52997 0.0
H397 H 0.52561 0.61741 0.4848 0.0
C398 C 0.53949 0.59839 0.59892 0.0
C399 C 0.54227 0.60074 0.62842 0.0
C400 C 0.51886 0.59381 0.64555 0.0
C401 C 0.49246 0.5839 0.63342 0.0
C402 C 0.48962 0.58199 0.60387 0.0
C403 C 0.51293 0.58935 0.58676 0.0
C404 C 0.58305 0.57153 0.56664 0.0
C405 C 0.61181 0.56782 0.57025 0.0
C406 C 0.62194 0.54219 0.5623 0.0
C407 C 0.60357 0.52004 0.5501 0.0
C408 C 0.57479 0.52372 0.54646 0.0
C409 C 0.56454 0.54916 0.55503 0.0
C410 C 0.56176 0.62481 0.54733 0.0
C411 C 0.56698 0.65429 0.54906 0.0
C412 C 0.55749 0.67049 0.52769 0.0
C413 C 0.54207 0.65747 0.50454 0.0
C414 C 0.53744 0.62792 0.50248 0.0
C415 C 0.54738 0.61172 0.52362 0.0
P416 P 0.56734 0.42975 0.92415 0.0
H417 H 0.62907 0.43458 0.93024 0.0
H418 H 0.66391 0.47387 0.94478 0.0
H419 H 0.59631 0.52789 0.95517 0.0
H420 H 0.56171 0.48823 0.94183 0.0
H421 H 0.58105 0.37779 0.94924 0.0
H422 H 0.56678 0.35536 0.9932 0.0
H423 H 0.51548 0.42306 0.01397 0.0
H424 H 0.53014 0.44562 0.96999 0.0
H425 H 0.5674 0.46944 0.87933 0.0
H426 H 0.50484 0.41729 0.92487 0.0
O427 O 0.58261 0.40707 0.90292 0.0
H428 H 0.52973 0.4876 0.85226 0.0
H429 H 0.46697 0.43553 0.89788 0.0
C430 C 0.59296 0.45875 0.93428 0.0
C431 C 0.62185 0.45494 0.93555 0.0
C432 C 0.64173 0.47747 0.94375 0.0
C433 C 0.63298 0.50416 0.95091 0.0
C434 C 0.60384 0.50762 0.95006 0.0
C435 C 0.58401 0.48503 0.94211 0.0
C436 C 0.55593 0.4129 0.95601 0.0
C437 C 0.56659 0.38773 0.96314 0.0
C438 C 0.55865 0.37507 0.98838 0.0
C439 C 0.53991 0.38742 0.00689 0.0
C440 C 0.52966 0.41293 -0.0001 0.0
C441 C 0.53793 0.42575 0.97479 0.0
C442 C 0.53892 0.44263 0.90465 0.0
C443 C 0.54553 0.46206 0.88366 0.0
C444 C 0.524 0.47232 0.86811 0.0
C445 C 0.49539 0.46314 0.87313 0.0
C446 C 0.48881 0.44336 0.89396 0.0
C447 C 0.51046 0.43293 0.90939 0.0
P448 P 0.77405 0.27154 0.26807 0.0
H449 H 0.80457 0.29744 0.31776 0.0
H450 H 0.78869 0.3131 0.36442 0.0
H451 H 0.70252 0.28148 0.34208 0.0
H452 H 0.71843 0.26576 0.29576 0.0
H453 H 0.82433 0.24896 0.24399 0.0
H454 H 0.84361 0.20366 0.24749 0.0
H455 H 0.77052 0.17292 0.29593 0.0
H456 H 0.75204 0.21871 0.29323 0.0
H457 H 0.75043 0.31893 0.24365 0.0
H458 H 0.7312 0.22861 0.24287 0.0
O459 O 0.80034 0.29522 0.25867 0.0
H460 H 0.70392 0.3236 0.2228 0.0
H461 H 0.68474 0.23314 0.22203 0.0
C462 C 0.76263 0.28117 0.30302 0.0
C463 C 0.7823 0.2938 0.32297 0.0
C464 C 0.77322 0.30254 0.34966 0.0
C465 C 0.7443 0.29873 0.35674 0.0
C466 C 0.72484 0.2851 0.33702 0.0
C467 C 0.73397 0.27616 0.31049 0.0
C468 C 0.78687 0.23726 0.26853 0.0
C469 C 0.81244 0.23244 0.25532 0.0
C470 C 0.82337 0.20641 0.25721 0.0
C471 C 0.80876 0.18457 0.27216 0.0
C472 C 0.7827 0.18937 0.28476 0.0
C473 C 0.77193 0.21549 0.28303 0.0
C474 C 0.7444 0.27343 0.24461 0.0
C475 C 0.73663 0.30003 0.23801 0.0
C476 C 0.71001 0.3027 0.22617 0.0
C477 C 0.6906 0.27877 0.2211 0.0
C478 C 0.69918 0.25198 0.22605 0.0
C479 C 0.72586 0.24934 0.23774 0.0
P480 P 0.4847 0.02676 0.07774 0.0
H481 H 0.48421 0.06159 0.02859 0.0
H482 H 0.50474 0.0576 0.98156 0.0
H483 H 0.54027 0.98163 0.00471 0.0
H484 H 0.52019 0.98623 0.05196 0.0
H485 H 0.52882 0.07379 0.07571 0.0
H486 H 0.53076 0.1233 0.09196 0.0
H487 H 0.44622 0.10826 0.1255 0.0
H488 H 0.44462 0.05859 0.10995 0.0
H489 H 0.45661 0.9705 0.08603 0.0
H490 H 0.43486 0.04907 0.05429 0.0
O491 O 0.50093 0.00833 0.101 0.0
H492 H 0.40921 0.94847 0.07397 0.0
H493 H 0.38684 0.02786 0.04378 0.0
C494 C 0.50144 0.02467 0.04392 0.0
C495 C 0.49676 0.04429 0.02362 0.0
C496 C 0.50819 0.04178 0.99664 0.0
C497 C 0.5242 0.01932 0.98941 0.0
C498 C 0.52845 -0.00056 0.00977 0.0
C499 C 0.51703 0.00203 0.03679 0.0
C500 C 0.4862 0.06279 0.09072 0.0
C501 C 0.51068 0.08115 0.0865 0.0
C502 C 0.5118 0.10935 0.09583 0.0
C503 C 0.48844 0.11955 0.10954 0.0
C504 C 0.46424 0.10095 0.11445 0.0
C505 C 0.46333 0.07263 0.10551 0.0
C506 C 0.44887 0.0116 0.07191 0.0
C507 C 0.44134 0.9832 0.07717 0.0
C508 C 0.41414 0.97069 0.07035 0.0
C509 C 0.39399 0.98644 0.05816 0.0
C510 C 0.40179 0.01499 0.05292 0.0
C511 C 0.42914 0.0273 0.05932 0.0
O512 O 0.24466 0.85701 0.97875 0.0
Cd513 Cd 0.24955 0.87107 0.02061 0.0
Cd514 Cd 0.2307 0.9207 0.99284 0.0
O515 O 0.22966 0.89363 0.95808 0.0
O516 O 0.27013 0.84007 0.03466 0.0
O517 O 0.22916 0.84971 0.05229 0.0
C518 C 0.25042 0.83484 0.05277 0.0
C519 C 0.19332 0.94759 0.00265 0.0
C520 C 0.23684 0.86867 0.95674 0.0
C521 C 0.28591 0.92838 0.02335 0.0
O522 O 0.26972 0.93887 0.00614 0.0
O523 O 0.28012 0.90353 0.03173 0.0
O524 O 0.20992 0.95272 0.98158 0.0
O525 O 0.19727 0.92629 0.01772 0.0
O526 O 0.15036 0.55257 0.329 0.0
Cd527 Cd 0.13429 0.5137 0.34278 0.0
Cd528 Cd 0.08602 0.52789 0.30978 0.0
O529 O 0.11531 0.56088 0.30063 0.0
O530 O 0.16687 0.50079 0.3635 0.0
O531 O 0.14921 0.47929 0.32417 0.0
C532 C 0.16775 0.48098 0.34438 0.0
C533 C 0.05777 0.51122 0.27109 0.0
C534 C 0.13988 0.56773 0.31099 0.0
C535 C 0.07799 0.51791 0.37191 0.0
O536 O 0.06792 0.52611 0.34912 0.0
O537 O 0.10311 0.51091 0.37305 0.0
O538 O 0.05365 0.5342 0.28492 0.0
O539 O 0.07763 0.49694 0.27983 0.0
O540 O 0.74336 0.68439 0.9784 0.0
Cd541 Cd 0.72976 0.6568 0.00923 0.0
Cd542 Cd 0.77333 0.62839 0.9869 0.0
O543 O 0.78221 0.66529 0.96608 0.0
O544 O 0.70123 0.67694 0.03014 0.0
O545 O 0.74196 0.66822 0.0493 0.0
C546 C 0.71825 0.67928 0.05153 0.0
C547 C 0.81073 0.6084 0.00762 0.0
C548 C 0.76628 0.68506 0.96448 0.0
C549 C 0.71446 0.59905 0.9826 0.0
O550 O 0.73979 0.59988 0.97382 0.0
O551 O 0.70681 0.61889 -0.0015 0.0
O552 O 0.80655 0.60686 0.98069 0.0
O553 O 0.79391 0.62212 0.02306 0.0
O554 O 0.91682 0.99801 0.27063 0.0
Cd555 Cd 0.89311 0.01233 0.23878 0.0
Cd556 Cd 0.86372 0.02963 0.2831 0.0
O557 O 0.89699 0.0181 0.30714 0.0
O558 O 0.91679 0.00725 0.20473 0.0
O559 O 0.90686 0.04904 0.22131 0.0
C560 C 0.91975 0.03425 0.203 0.0
C561 C 0.85201 0.07576 0.28175 0.0
C562 C 0.91592 0.00354 0.29704 0.0
C563 C 0.83369 0.98542 0.24453 0.0
O564 O 0.83333 0.99823 0.26856 0.0
O565 O 0.85498 0.98971 0.22849 0.0
O566 O 0.84453 0.06019 0.3027 0.0
O567 O 0.86708 0.06531 0.26202 0.0
O568 O 0.24861 0.17955 0.47772 0.0
Cd569 Cd 0.23432 0.15084 0.50719 0.0
Cd570 Cd 0.27703 0.12257 0.48399 0.0
O571 O 0.28652 0.15978 0.46368 0.0
O572 O 0.20675 0.17118 0.52922 0.0
O573 O 0.24651 0.15925 0.54781 0.0
C574 C 0.22345 0.17135 0.55074 0.0
C575 C 0.3136 0.10233 0.50591 0.0
C576 C 0.27115 0.1801 0.46323 0.0
C577 C 0.21771 0.09426 0.47866 0.0
O578 O 0.24322 0.09451 0.47046 0.0
O579 O 0.21028 0.11415 0.49462 0.0
O580 O 0.31024 0.10077 0.47886 0.0
O581 O 0.29642 0.11619 0.52076 0.0
O582 O 0.40914 0.50069 0.77834 0.0
Cd583 Cd 0.38385 0.5139 0.74703 0.0
Cd584 Cd 0.35343 0.52693 0.79279 0.0
O585 O 0.38722 0.51576 0.81612 0.0
O586 O 0.40691 0.50943 0.7124 0.0
O587 O 0.39655 0.55089 0.72948 0.0
C588 C 0.40932 0.53643 0.71081 0.0
C589 C 0.34179 0.57295 0.7903 0.0
C590 C 0.40768 0.50407 0.80502 0.0
C591 C 0.32533 0.48351 0.75265 0.0
O592 O 0.32437 0.49496 0.77727 0.0
O593 O 0.34637 0.48981 0.73674 0.0
O594 O 0.33363 0.55772 0.81133 0.0
O595 O 0.35737 0.56216 0.77123 0.0
O596 O 0.72751 0.35092 0.48333 0.0
Cd597 Cd 0.7259 0.36977 0.52349 0.0
Cd598 Cd 0.70056 0.40601 0.48932 0.0
O599 O 0.69703 0.37328 0.45985 0.0
O600 O 0.75207 0.34655 0.54271 0.0
O601 O 0.70761 0.34755 0.55566 0.0
C602 C 0.73192 0.33818 0.55935 0.0
C603 C 0.66338 0.4296 0.50613 0.0
C604 C 0.71334 0.35381 0.46096 0.0
C605 C 0.75416 0.42795 0.51545 0.0
O606 O 0.73965 0.42882 0.49302 0.0
O607 O 0.74839 0.40835 0.53248 0.0
O608 O 0.67273 0.43295 0.48079 0.0
O609 O 0.67403 0.41128 0.52137 0.0
O610 O 0.64385 0.05372 0.83067 0.0
Cd611 Cd 0.63015 0.01456 0.84484 0.0
Cd612 Cd 0.57886 0.02736 0.81711 0.0
O613 O 0.60556 0.06231 0.80704 0.0
O614 O 0.66477 0.00305 0.86306 0.0
O615 O 0.64482 0.98043 0.82533 0.0
C616 C 0.66478 0.98295 0.84417 0.0
C617 C 0.55129 0.00828 0.77888 0.0
C618 C 0.631 0.06934 0.81496 0.0
C619 C 0.57647 0.01638 0.87934 0.0
O620 O 0.56334 0.02328 0.85762 0.0
O621 O 0.60229 0.01155 0.87787 0.0
O622 O 0.54496 0.03035 0.79306 0.0
O623 O 0.5728 0.99607 0.78729 0.0
O624 O 0.95602 0.30818 0.93828 0.0
Cd625 Cd 0.95834 0.27135 0.91425 0.0
Cd626 Cd 0.9834 0.30557 0.87559 0.0
O627 O 0.98326 0.33377 0.90943 0.0
O628 O 0.95716 0.23954 0.94014 0.0
O629 O 0.9953 0.25442 0.91576 0.0
C630 C 0.98337 0.23746 0.93382 0.0
C631 C 0.02389 0.30893 0.84775 0.0
C632 C 0.9699 0.33143 0.93253 0.0
C633 C 0.92804 0.27288 0.85901 0.0
O634 O 0.94648 0.29307 0.85347 0.0
O635 O 0.92959 0.26008 0.8819 0.0
O636 O 0.00638 0.32788 0.84792 0.0
O637 O 0.0187 0.28786 0.8639 0.0
O638 O 0.45968 0.80349 0.44085 0.0
Cd639 Cd 0.46242 0.76716 0.41615 0.0
Cd640 Cd 0.48854 0.80262 0.37845 0.0
O641 O 0.48831 0.82939 0.41348 0.0
O642 O 0.45967 0.73485 0.44144 0.0
O643 O 0.49895 0.74954 0.41871 0.0
C644 C 0.48602 0.73241 0.43604 0.0
C645 C 0.5286 0.80842 0.35015 0.0
C646 C 0.47426 0.82665 0.43613 0.0
C647 C 0.4334 0.77018 0.3604 0.0
O648 O 0.45177 0.79071 0.3558 0.0
O649 O 0.43461 0.75667 0.38289 0.0
O650 O 0.51078 0.82702 0.35195 0.0
O651 O 0.52406 0.78628 0.36496 0.0
O652 O 0.98277 0.79101 0.69822 0.0
Cd653 Cd 0.0101 0.77021 0.673 0.0
Cd654 Cd 0.97453 0.78755 0.63156 0.0
O655 O 0.9536 0.80359 0.66564 0.0
O656 O 0.03682 0.75697 0.7008 0.0
O657 O 0.05095 0.78566 0.66707 0.0
C658 C 0.05729 0.77085 0.688 0.0
C659 C 0.9918 0.81707 0.5964 0.0
C660 C 0.96089 0.80272 0.69141 0.0
C661 C 0.97862 0.72598 0.63312 0.0
O662 O 0.96709 0.74518 0.62092 0.0
O663 O 0.9957 0.73217 0.65363 0.0
O664 O 0.96521 0.80815 0.59769 0.0
O665 O 0.00865 0.80954 0.61563 0.0
O666 O 0.49656 0.30524 0.20686 0.0
Cd667 Cd 0.52493 0.28563 0.18159 0.0
Cd668 Cd 0.48611 0.29701 0.14069 0.0
O669 O 0.46493 0.31302 0.1745 0.0
O670 O 0.55349 0.27575 0.20936 0.0
O671 O 0.56486 0.3028 0.17359 0.0
C672 C 0.57283 0.28956 0.19502 0.0
C673 C 0.50208 0.32597 0.10472 0.0
C674 C 0.47322 0.31435 0.20009 0.0
C675 C 0.49552 0.23715 0.14475 0.0
O676 O 0.48127 0.25415 0.13223 0.0
O677 O 0.51311 0.24604 0.16414 0.0
O678 O 0.47572 0.31627 0.10633 0.0
O679 O 0.51944 0.31944 0.12398 0.0
C680 C 0.24442 0.85588 0.87796 0.0
C681 C 0.24729 0.8268 0.87588 0.0
H682 H 0.2384 0.89173 0.90494 0.0
C683 C 0.24522 0.81136 0.90064 0.0
H684 H 0.24635 0.8686 0.85951 0.0
C685 C 0.24115 0.8248 0.92685 0.0
C686 C 0.23862 0.8539 0.92886 0.0
H687 H 0.24669 0.78885 0.89983 0.0
H688 H 0.24013 0.8124 0.94557 0.0
C689 C 0.23991 0.8692 0.90409 0.0
C690 C 0.0505 0.50052 0.44471 0.0
C691 C 0.02783 0.51735 0.44737 0.0
H692 H 0.08418 0.48757 0.41882 0.0
C693 C 0.02174 0.5341 0.42475 0.0
H694 H 0.05551 0.48694 0.46141 0.0
C695 C 0.03772 0.53387 0.40008 0.0
C696 C 0.06052 0.51731 0.39764 0.0
H697 H 0.00489 0.54781 0.42619 0.0
H698 H 0.03257 0.54715 0.38315 0.0
C699 C 0.06682 0.50069 0.42021 0.0
C700 C 0.8121 0.73826 0.9229 0.0
C701 C 0.79358 0.75896 0.91871 0.0
H702 H 0.81791 0.6985 0.94024 0.0
C703 C 0.76563 0.75463 0.92859 0.0
H704 H 0.83367 0.74091 0.91518 0.0
C705 C 0.75658 0.73038 0.94302 0.0
C706 C 0.77523 0.70984 0.9476 0.0
H707 H 0.75096 0.77032 0.92577 0.0
H708 H 0.73505 0.72791 0.95084 0.0
C709 C 0.80299 0.71389 0.93706 0.0
C710 C 0.97472 0.96218 0.32196 0.0
C711 C 0.9778 0.97106 0.35053 0.0
H712 H 0.95302 0.96543 0.28287 0.0
C713 C 0.95991 0.99053 0.36165 0.0
H714 H 0.98767 0.94677 0.3128 0.0
C715 C 0.93962 0.00106 0.34445 0.0
C716 C 0.93694 0.99244 0.31576 0.0
H717 H 0.9619 0.99803 0.38351 0.0
H718 H 0.9263 0.01618 0.35353 0.0
C719 C 0.95468 0.97281 0.30479 0.0
C720 C 0.18315 0.21202 0.60396 0.0
C721 C 0.20477 0.22325 0.62277 0.0
H722 H 0.17217 0.1867 0.56664 0.0
C723 C 0.23218 0.21474 0.61943 0.0
H724 H 0.1619 0.2184 0.60567 0.0
C725 C 0.2381 0.1964 0.59687 0.0
C726 C 0.21676 0.18665 0.57716 0.0
H727 H 0.24921 0.22294 0.63372 0.0
H728 H 0.25962 0.19104 0.59409 0.0
C729 C 0.1891 0.19401 0.5814 0.0
C730 C 0.45503 0.54612 0.64624 0.0
C731 C 0.4687 0.57332 0.65156 0.0
H732 H 0.42547 0.51313 0.66097 0.0
C733 C 0.46092 0.58928 0.6753 0.0
H734 H 0.4608 0.53332 0.62819 0.0
C735 C 0.44036 0.57787 0.69389 0.0
C736 C 0.42776 0.55012 0.68929 0.0
H737 H 0.47113 0.61036 0.67974 0.0
H738 H 0.4353 0.59028 0.71249 0.0
C739 C 0.43492 0.53455 0.66505 0.0
C740 C 0.72084 0.28813 0.61972 0.0
C741 C 0.74825 0.27962 0.62275 0.0
H742 H 0.69396 0.31332 0.59706 0.0
C743 C 0.77007 0.29124 0.60551 0.0
H744 H 0.70358 0.27943 0.63268 0.0
C745 C 0.76458 0.31034 0.58522 0.0
C746 C 0.73713 0.31846 0.58166 0.0
H747 H 0.79152 0.28558 0.60771 0.0
H748 H 0.78198 0.31865 0.57223 0.0
C749 C 0.7153 0.30739 0.59928 0.0
C750 C 0.53457 0.97401 0.70656 0.0
C751 C 0.51312 0.98986 0.69715 0.0
H752 H 0.56334 0.96712 0.74003 0.0
C753 C 0.50196 0.00906 0.71626 0.0
H754 H 0.54329 0.9587 0.6925 0.0
C755 C 0.51326 0.0137 0.74348 0.0
C756 C 0.53604 -0.00069 0.75223 0.0
H757 H 0.48563 0.02182 0.70971 0.0
H758 H 0.50504 0.02964 0.75717 0.0
C759 C 0.54593 0.97869 0.73386 0.0
C760 C 0.88066 0.27045 0.79416 0.0
C761 C 0.86608 0.24342 0.79529 0.0
H762 H 0.91182 0.30096 0.81341 0.0
C763 C 0.87099 0.22668 0.8182 0.0
H764 H 0.8773 0.28373 0.77667 0.0
C765 C 0.89046 0.2366 0.8394 0.0
C766 C 0.90571 0.26333 0.83788 0.0
H767 H 0.85974 0.20586 0.81971 0.0
H768 H 0.89407 0.22304 0.85659 0.0
C769 C 0.90045 0.28024 0.81515 0.0
C770 C 0.45874 0.87364 0.49966 0.0
C771 C 0.47785 0.89765 0.49549 0.0
H772 H 0.44246 0.83228 0.48413 0.0
C773 C 0.49605 0.89766 0.47215 0.0
H774 H 0.44428 0.87306 0.51733 0.0
C775 C 0.49479 0.87458 0.45309 0.0
C776 C 0.47545 0.85072 0.45694 0.0
H777 H 0.51145 0.91552 0.46863 0.0
H778 H 0.50913 0.87549 0.43532 0.0
C779 C 0.45758 0.85036 0.48057 0.0
C780 C 0.07772 0.33895 0.79594 0.0
C781 C 0.08942 0.3147 0.78553 0.0
H782 H 0.04798 0.35605 0.82382 0.0
C783 C 0.08143 0.2888 0.79794 0.0
H784 H 0.084 0.35938 0.78745 0.0
C785 C 0.06105 0.287 0.81931 0.0
C786 C 0.04821 0.31102 0.82836 0.0
H787 H 0.08999 0.26971 0.79035 0.0
H788 H 0.05443 0.26663 0.82776 0.0
C789 C 0.05722 0.33709 0.81694 0.0
C790 C 0.4993 0.66989 0.47885 0.0
C791 C 0.52858 0.67482 0.48417 0.0
H792 H 0.46286 0.68441 0.45951 0.0
C793 C 0.54422 0.69765 0.47172 0.0
H794 H 0.48674 0.65257 0.48842 0.0
C795 C 0.53061 0.71568 0.4548 0.0
C796 C 0.50108 0.71149 0.45064 0.0
H797 H 0.56685 0.70182 0.4755 0.0
H798 H 0.54301 0.73355 0.44602 0.0
C799 C 0.48564 0.68819 0.46245 0.0
C800 C 0.90026 0.83483 0.72866 0.0
C801 C 0.90684 0.83114 0.75713 0.0
H802 H 0.91215 0.8287 0.68543 0.0
C803 C 0.9321 0.81967 0.76379 0.0
H804 H 0.8809 0.84357 0.72293 0.0
C805 C 0.94997 0.81121 0.74246 0.0
C806 C 0.94299 0.81395 0.7139 0.0
H807 H 0.93802 0.81708 0.78558 0.0
H808 H 0.96902 0.80203 0.74842 0.0
C809 C 0.91813 0.82623 0.70722 0.0
C810 C 0.04168 0.85975 0.54818 0.0
C811 C 0.02319 0.86552 0.52633 0.0
H812 H 0.04633 0.83984 0.58747 0.0
C813 C 0.99422 0.85616 0.52833 0.0
H814 H 0.06417 0.8665 0.54711 0.0
C815 C 0.98403 0.84093 0.55137 0.0
C816 C 0.00258 0.83461 0.57292 0.0
H817 H 0.97938 0.86062 0.51204 0.0
H818 H 0.9616 0.8338 0.55207 0.0
C819 C 0.03149 0.84438 0.57122 0.0
C820 C 0.12084 0.7449 0.72332 0.0
C821 C 0.14339 0.76358 0.71394 0.0
H822 H 0.07623 0.73278 0.72273 0.0
C823 C 0.1374 0.78454 0.6953 0.0
H824 H 0.12464 0.72812 0.73717 0.0
C825 C 0.10947 0.78697 0.68663 0.0
C826 C 0.08698 0.76867 0.69666 0.0
H827 H 0.15419 0.79952 0.68792 0.0
H828 H 0.10545 0.80342 0.67245 0.0
C829 C 0.09302 0.74753 0.71495 0.0
C830 C 0.98441 0.64767 0.62475 0.0
C831 C 0.96551 0.63964 0.6023 0.0
H832 H 0.00324 0.68101 0.65209 0.0
C833 C 0.95015 0.66015 0.59054 0.0
H834 H 0.9969 0.63253 0.634 0.0
C835 C 0.95401 0.68819 0.60075 0.0
C836 C 0.97324 0.69622 0.62296 0.0
H837 H 0.93513 0.65454 0.57346 0.0
H838 H 0.9421 0.70356 0.59109 0.0
C839 C 0.98817 0.67558 0.63501 0.0
C840 C 0.76382 0.93904 0.24436 0.0
C841 C 0.76449 0.92456 0.21798 0.0
H842 H 0.78499 0.96977 0.27339 0.0
C843 C 0.78793 0.93047 0.20035 0.0
H844 H 0.74585 0.93522 0.25825 0.0
C845 C 0.81024 0.95038 0.20891 0.0
C846 C 0.80963 0.96484 0.23532 0.0
H847 H 0.78922 0.91944 0.18004 0.0
H848 H 0.82805 0.95427 0.19484 0.0
C849 C 0.78614 0.95899 0.25294 0.0
C850 C 0.83516 0.14501 0.25225 0.0
C851 C 0.82072 0.15705 0.27487 0.0
H852 H 0.85654 0.1101 0.23674 0.0
C853 C 0.81773 0.1425 0.30013 0.0
H854 H 0.8376 0.15538 0.23235 0.0
C855 C 0.82832 0.11637 0.30251 0.0
C856 C 0.84239 0.10423 0.27978 0.0
H857 H 0.80729 0.15133 0.31821 0.0
H858 H 0.82534 0.10563 0.32217 0.0
C859 C 0.84595 0.11896 0.25472 0.0
C860 C 0.35179 0.98013 0.02532 0.0
C861 C 0.36534 0.97285 0.05011 0.0
H862 H 0.31584 0.97198 0.99759 0.0
C863 C 0.35168 0.95183 0.06669 0.0
H864 H 0.36183 0.99589 0.01177 0.0
C865 C 0.32565 0.93772 0.05818 0.0
C866 C 0.31245 0.94466 0.03317 0.0
H867 H 0.36112 0.94613 0.08624 0.0
H868 H 0.3159 0.92129 0.07117 0.0
C869 C 0.32548 0.96634 0.01708 0.0
C870 C 0.22468 0.4402 0.37344 0.0
C871 C 0.2373 0.43001 0.34873 0.0
H872 H 0.19301 0.46432 0.39128 0.0
C873 C 0.22506 0.4348 0.32241 0.0
H874 H 0.23272 0.43616 0.39415 0.0
C875 C 0.20148 0.45027 0.32089 0.0
C876 C 0.19008 0.46163 0.34561 0.0
H877 H 0.2342 0.42748 0.3029 0.0
H878 H 0.193 0.45439 0.30036 0.0
C879 C 0.20166 0.45611 0.37186 0.0
C880 C 0.1494 0.04566 0.47416 0.0
C881 C 0.15632 0.02459 0.45456 0.0
H882 H 0.16322 0.0841 0.49706 0.0
C883 C 0.18361 0.02674 0.44276 0.0
H884 H 0.12874 0.04444 0.484 0.0
C885 C 0.20355 0.04938 0.45048 0.0
C886 C 0.19658 0.07044 0.47007 0.0
H887 H 0.1895 0.01108 0.4273 0.0
H888 H 0.22438 0.05041 0.441 0.0
C889 C 0.16925 0.06835 0.48176 0.0
C890 C 0.68846 0.12859 0.80507 0.0
C891 C 0.68462 0.13431 0.77644 0.0
H892 H 0.67453 0.10327 0.8397 0.0
C893 C 0.66044 0.12122 0.76206 0.0
H894 H 0.70626 0.13891 0.81716 0.0
C895 C 0.64171 0.10155 0.7754 0.0
C896 C 0.6471 0.09413 0.80314 0.0
H897 H 0.65679 0.12478 0.73997 0.0
H898 H 0.62413 0.09072 0.76332 0.0
C899 C 0.67015 0.10838 0.81814 0.0
C900 C 0.37034 0.05329 0.51548 0.0
C901 C 0.37891 0.05941 0.54363 0.0
H902 H 0.34332 0.06223 0.48154 0.0
C903 C 0.36587 0.07993 0.55955 0.0
H904 H 0.38033 0.03787 0.5026 0.0
C905 C 0.34438 0.09385 0.5475 0.0
C906 C 0.33606 0.08784 0.5192 0.0
H907 H 0.37216 0.08502 0.5813 0.0
H908 H 0.33454 0.10949 0.56019 0.0
C909 C 0.3493 0.06744 0.50336 0.0
C910 C 0.61221 0.48524 0.5112 0.0
C911 C 0.61498 0.49384 0.53983 0.0
H912 H 0.62552 0.45789 0.47797 0.0
C913 C 0.63087 0.47877 0.55793 0.0
H914 H 0.60013 0.49665 0.49686 0.0
C915 C 0.64486 0.45621 0.54729 0.0
C916 C 0.64373 0.44887 0.51826 0.0
H917 H 0.63318 0.48504 0.58012 0.0
H918 H 0.65799 0.44574 0.56148 0.0
C919 C 0.62673 0.46312 0.50043 0.0
C920 C 0.74912 0.30665 0.40922 0.0
C921 C 0.73436 0.31016 0.38407 0.0
H922 H 0.75365 0.31714 0.45338 0.0
C923 C 0.71088 0.32599 0.38492 0.0
H924 H 0.76707 0.29426 0.40923 0.0
C925 C 0.70317 0.33919 0.41019 0.0
C926 C 0.71867 0.33665 0.43516 0.0
H927 H 0.69919 0.32916 0.3658 0.0
H928 H 0.68565 0.35213 0.40994 0.0
C929 C 0.74127 0.31962 0.43454 0.0
C930 C 0.52162 0.02297 0.93667 0.0
C931 C 0.53685 0.01701 0.96091 0.0
H932 H 0.52203 0.02723 0.89184 0.0
C933 C 0.56464 0.00958 0.95784 0.0
H934 H 0.50001 0.02834 0.9383 0.0
C935 C 0.57717 0.00872 0.93126 0.0
C936 C 0.56222 0.01533 0.90709 0.0
H937 H 0.57706 0.00518 0.9761 0.0
H938 H 0.59882 0.00341 0.92981 0.0
C939 C 0.53417 0.02213 0.91003 0.0
C940 C 0.31721 0.23466 0.42346 0.0
C941 C 0.29854 0.2553 0.41957 0.0
H942 H 0.32308 0.19448 0.4399 0.0
C943 C 0.27047 0.25046 0.42898 0.0
H944 H 0.33889 0.23774 0.41612 0.0
C945 C 0.26143 0.22579 0.4427 0.0
C946 C 0.2802 0.20529 0.447 0.0
H947 H 0.25569 0.2661 0.42638 0.0
H948 H 0.2398 0.22294 0.4502 0.0
C949 C 0.30808 0.20982 0.43688 0.0
C950 C 0.47567 0.47509 0.8266 0.0
C951 C 0.47269 0.47363 0.85599 0.0
H952 H 0.45761 0.48576 0.78761 0.0
C953 C 0.44812 0.48239 0.86872 0.0
H954 H 0.49422 0.46819 0.81616 0.0
C955 C 0.42703 0.49263 0.85232 0.0
C956 C 0.43002 0.49398 0.82286 0.0
H957 H 0.44538 0.48166 0.89138 0.0
H958 H 0.40833 0.49927 0.86267 0.0
C959 C 0.45458 0.48505 0.81024 0.0
C960 C 0.67519 0.71752 0.10402 0.0
C961 C 0.69604 0.73693 0.11704 0.0
H962 H 0.66603 0.68403 0.07297 0.0
C963 C 0.7248 0.7341 0.11133 0.0
H964 H 0.65291 0.71841 0.10857 0.0
C965 C 0.73233 0.71367 0.09149 0.0
C966 C 0.71121 0.69613 0.07675 0.0
H967 H 0.74144 0.74871 0.12083 0.0
H968 H 0.7545 0.71298 0.08625 0.0
C969 C 0.68268 0.69761 0.08382 0.0
C970 C 0.96694 0.08867 0.16414 0.0
C971 C 0.97899 0.07166 0.14348 0.0
H972 H 0.93834 0.09025 0.19902 0.0
C973 C 0.97003 0.04267 0.14155 0.0
H974 H 0.97327 0.11113 0.16595 0.0
C975 C 0.95015 0.03077 0.16038 0.0
C976 C 0.93865 0.04759 0.18153 0.0
H977 H 0.97914 0.02894 0.12609 0.0
H978 H 0.94427 0.00823 0.15872 0.0
C979 C 0.94684 0.07676 0.18293 0.0
C980 C 0.28236 0.78042 0.09513 0.0
C981 C 0.26106 0.77308 0.11484 0.0
H982 H 0.29554 0.8052 0.06023 0.0
C983 C 0.23574 0.78618 0.11388 0.0
H984 H 0.3024 0.77133 0.0956 0.0
C985 C 0.23189 0.80612 0.09357 0.0
C986 C 0.25328 0.81322 0.07387 0.0
H987 H 0.21883 0.78086 0.12865 0.0
H988 H 0.21228 0.81597 0.09334 0.0
C989 C 0.27847 0.80005 0.07488 0.0
C990 C 0.03795 0.47812 0.19893 0.0
C991 C 0.01697 0.49495 0.19034 0.0
H992 H 0.06719 0.46979 0.23148 0.0
C993 C 0.00727 0.51464 0.20988 0.0
H994 H 0.04557 0.46248 0.18446 0.0
C995 C 0.01952 0.51872 0.23673 0.0
C996 C 0.04175 0.50321 0.24468 0.0
H997 H 0.99135 0.52813 0.20393 0.0
H998 H 0.01238 0.53498 0.25079 0.0
C999 C 0.05021 0.48218 0.22589 0.0
C1000 C 0.37806 0.72418 0.31723 0.0
C1001 C 0.37405 0.74108 0.2942 0.0
H1002 H 0.39957 0.72029 0.35646 0.0
C1003 C 0.38848 0.76824 0.29386 0.0
H1004 H 0.36689 0.70327 0.31816 0.0
C1005 C 0.40732 0.77796 0.3157 0.0
C1006 C 0.41177 0.76085 0.3385 0.0
H1007 H 0.38579 0.78165 0.27632 0.0
H1008 H 0.41867 0.79876 0.31453 0.0
C1009 C 0.39659 0.73402 0.33924 0.0
C1010 C 0.95604 0.37928 0.99591 0.0
C1011 C 0.97432 0.40356 0.99051 0.0
H1012 H 0.94014 0.33735 0.98179 0.0
C1013 C 0.99123 0.40361 0.96622 0.0
H1014 H 0.94255 0.37866 0.01433 0.0
C1015 C 0.98962 0.38022 0.94753 0.0
C1016 C 0.97121 0.35601 0.95272 0.0
H1017 H 0.00598 0.42171 0.9617 0.0
H1018 H 0.00302 0.38113 0.92905 0.0
C1019 C 0.95453 0.35569 0.9772 0.0
C1020 C 0.58181 0.84331 0.30068 0.0
C1021 C 0.59106 0.82005 0.28554 0.0
H1022 H 0.55484 0.85773 0.33304 0.0
C1023 C 0.58216 0.79272 0.29431 0.0
H1024 H 0.58893 0.86467 0.29514 0.0
C1025 C 0.56308 0.7888 0.31667 0.0
C1026 C 0.55238 0.81212 0.33028 0.0
H1027 H 0.58881 0.77433 0.28308 0.0
H1028 H 0.5555 0.76755 0.32219 0.0
C1029 C 0.56247 0.83938 0.32258 0.0
C1030 C -0.00028 0.17593 0.97674 0.0
C1031 C 0.0292 0.18126 0.98054 0.0
H1032 H 0.96209 0.18971 0.95907 0.0
C1033 C 0.04384 0.20411 0.96721 0.0
H1034 H 0.98793 0.15857 0.987 0.0
C1035 C 0.02911 0.22171 0.95084 0.0
C1036 C -0.00056 0.21709 0.9481 0.0
H1037 H 0.0666 0.20858 0.96981 0.0
H1038 H 0.04079 0.23957 0.94129 0.0
C1039 C 0.98494 0.19382 0.96089 0.0
C1040 C 0.4434 0.33034 0.27229 0.0
C1041 C 0.41693 0.33927 0.26542 0.0
H1042 H 0.48201 0.31584 0.25718 0.0
C1043 C 0.40994 0.34193 0.23688 0.0
H1044 H 0.44959 0.32859 0.29414 0.0
C1045 C 0.42858 0.33464 0.21559 0.0
C1046 C 0.45466 0.32474 0.22247 0.0
H1047 H 0.38966 0.34871 0.23097 0.0
H1048 H 0.42223 0.33614 0.19375 0.0
C1049 C 0.46207 0.32322 0.25109 0.0
C1050 C 0.55025 0.36248 0.05085 0.0
C1051 C 0.53053 0.37325 0.03301 0.0
H1052 H 0.55676 0.33941 0.08785 0.0
C1053 C 0.50159 0.36947 0.03968 0.0
H1054 H 0.57273 0.36531 0.04629 0.0
C1055 C 0.49243 0.3545 0.06326 0.0
C1056 C 0.51208 0.3433 0.08086 0.0
H1057 H 0.48592 0.37738 0.02617 0.0
H1058 H 0.46991 0.35144 0.06751 0.0
C1059 C 0.54113 0.34781 0.07468 0.0
C1060 C 0.6388 0.26709 0.2289 0.0
C1061 C 0.6606 0.28188 0.21387 0.0
H1062 H 0.59429 0.25833 0.23509 0.0
C1063 C 0.65343 0.30029 0.1931 0.0
H1064 H 0.64365 0.25325 0.24546 0.0
C1065 C 0.62489 0.30329 0.1871 0.0
C1066 C 0.60313 0.28823 0.20206 0.0
H1067 H 0.66985 0.31203 0.18127 0.0
H1068 H 0.6199 0.3172 0.17066 0.0
C1069 C 0.61047 0.27029 0.22315 0.0
C1070 C 0.46788 0.16592 0.11178 0.0
C1071 C 0.48959 0.14947 0.11906 0.0
H1072 H 0.45284 0.20688 0.11391 0.0
C1073 C 0.51277 0.16182 0.13518 0.0
H1074 H 0.44986 0.15678 0.09922 0.0
C1075 C 0.51432 0.19018 0.14384 0.0
C1076 C 0.49291 0.2069 0.1362 0.0
H1077 H 0.52965 0.14948 0.1412 0.0
H1078 H 0.53259 0.1991 0.15617 0.0
C1079 C 0.46965 0.19452 0.12007 0.0
C1080 C 0.261 0.42938 0.75211 0.0
C1081 C 0.26066 0.41879 0.72399 0.0
H1082 H 0.28148 0.45841 0.78318 0.0
C1083 C 0.28122 0.43017 0.70523 0.0
H1084 H 0.24519 0.42121 0.76694 0.0
C1085 C 0.30197 0.45143 0.71449 0.0
C1086 C 0.3025 0.46191 0.74267 0.0
H1087 H 0.2816 0.42226 0.6835 0.0
H1088 H 0.31772 0.45949 0.69954 0.0
C1089 C 0.28165 0.45082 0.76134 0.0
C1090 C 0.30401 0.63854 0.80379 0.0
C1091 C 0.31149 0.65416 0.77989 0.0
H1092 H 0.30789 0.60086 0.82598 0.0
C1093 C 0.33001 0.64331 0.76007 0.0
H1094 H 0.29016 0.64648 0.81969 0.0
C1095 C 0.34034 0.61725 0.76378 0.0
C1096 C 0.33242 0.60141 0.7874 0.0
H1097 H 0.33599 0.65463 0.74128 0.0
H1098 H 0.35415 0.6093 0.74783 0.0
C1099 C 0.31436 0.61248 0.80751 0.0
C1100 C 0.82313 0.47207 0.50314 0.0
C1101 C 0.83372 0.4764 0.53086 0.0
H1102 H 0.78888 0.45386 0.47651 0.0
C1103 C 0.81653 0.46772 0.55357 0.0
H1104 H 0.83609 0.47876 0.48536 0.0
C1105 C 0.78985 0.45318 0.54854 0.0
C1106 C 0.77975 0.4476 0.52076 0.0
H1107 H 0.82436 0.47078 0.57511 0.0
H1108 H 0.77753 0.44541 0.56635 0.0
C1109 C 0.79615 0.45803 0.49812 0.0
C1110 C 0.72092 0.93646 0.81956 0.0
C1111 C 0.73487 0.93245 0.84521 0.0
H1112 H 0.68736 0.95533 0.7991 0.0
C1113 C 0.72396 0.94348 0.87043 0.0
H1114 H 0.72874 0.92845 0.79969 0.0
C1115 C 0.70085 0.95934 0.86993 0.0
C1116 C 0.68749 0.96398 0.84431 0.0
H1117 H 0.73335 0.94005 0.89072 0.0
H1118 H 0.69348 0.96809 0.88969 0.0
C1119 C 0.69726 0.95189 0.81916 0.0
C1120 C 0.68044 0.53212 0.94562 0.0
C1121 C 0.65407 0.52831 0.95923 0.0
H1122 H 0.72017 0.55739 0.94229 0.0
C1123 C 0.64788 0.54793 0.98068 0.0
H1124 H 0.68576 0.51767 0.92872 0.0
C1125 C 0.66742 0.57094 0.98813 0.0
C1126 C 0.69376 0.57472 0.97452 0.0
H1127 H 0.62802 0.5454 0.99197 0.0
H1128 H 0.66196 0.58561 0.00477 0.0
C1129 C 0.70011 0.555 0.95327 0.0
C1130 C 0.17118 0.62057 0.25963 0.0
C1131 C 0.19654 0.63126 0.27347 0.0
H1132 H 0.13319 0.59242 0.26086 0.0
C1133 C 0.20123 0.62341 0.30133 0.0
H1134 H 0.16689 0.62582 0.23811 0.0
C1135 C 0.18216 0.60365 0.31413 0.0
C1136 C 0.1577 0.59179 0.29959 0.0
H1137 H 0.22013 0.63182 0.31295 0.0
H1138 H 0.187 0.59706 0.33508 0.0
C1139 C 0.15186 0.60122 0.27265 0.0
C1140 C 0.86525 0.58653 0.0592 0.0
C1141 C 0.87751 0.56576 0.04289 0.0
H1142 H 0.83401 0.6162 0.06094 0.0
C1143 C 0.86767 0.55927 0.01519 0.0
H1144 H 0.87255 0.5919 0.08061 0.0
C1145 C 0.84613 0.57332 0.00388 0.0
C1146 C 0.83367 0.59398 0.02011 0.0
H1147 H 0.87703 0.54364 0.00202 0.0
H1148 H 0.83916 0.56785 0.98238 0.0
C1149 C 0.84325 0.60035 0.04798 0.0
C1150 C 0.14652 0.00693 -0.00124 0.0
C1151 C 0.13748 0.00977 0.02689 0.0
H1152 H 0.17112 0.98498 0.96906 0.0
C1153 C 0.14484 0.99005 0.04632 0.0
H1154 H 0.1407 0.02121 0.98302 0.0
C1155 C 0.16175 0.96879 0.03808 0.0
C1156 C 0.17199 0.96706 0.01036 0.0
H1157 H 0.13859 0.99168 0.06824 0.0
H1158 H 0.16791 0.95461 0.05377 0.0
C1159 C 0.16376 0.98598 0.99067 0.0
loop_
_geom_bond_atom_site_label_1
_geom_bond_atom_site_label_2
_geom_bond_distance
_geom_bond_site_symmetry_2
_ccdc_geom_bond_type
P0 O11 1.490 . S
P0 C14 1.812 . S
P0 C20 1.803 . S
P0 C26 1.819 . S
H1 C15 0.941 . S
H2 C16 0.939 . S
H3 C18 0.940 . S
H4 C19 0.940 . S
H5 C21 0.939 . S
H6 C22 0.942 . S
H7 C24 0.940 . S
H8 C25 0.939 . S
H9 C27 0.941 . S
H10 C31 0.939 . S
O11 P0 1.490 . S
H12 C28 0.939 . S
H13 C30 0.940 . S
C14 P0 1.812 . S
C14 C15 1.389 . S
C14 C19 1.391 . S
C15 H1 0.941 . S
C15 C14 1.389 . S
C15 C16 1.397 . S
C16 H2 0.939 . S
C16 C15 1.397 . S
C16 C17 1.378 . S
C17 C16 1.378 . S
C17 C18 1.378 . S
C18 H3 0.940 . S
C18 C17 1.378 . S
C18 C19 1.396 . S
C19 H4 0.940 . S
C19 C14 1.391 . S
C19 C18 1.396 . S
C20 P0 1.803 . S
C20 C21 1.378 . S
C20 C25 1.400 . S
C21 H5 0.939 . S
C21 C20 1.378 . S
C21 C22 1.361 . S
C22 H6 0.942 . S
C22 C21 1.361 . S
C22 C23 1.369 . S
C23 C22 1.369 . S
C23 C24 1.404 . S
C24 H7 0.940 . S
C24 C23 1.404 . S
C24 C25 1.389 . S
C25 H8 0.939 . S
C25 C20 1.400 . S
C25 C24 1.389 . S
C26 P0 1.819 . S
C26 C27 1.391 . S
C26 C31 1.391 . S
C27 H9 0.941 . S
C27 C26 1.391 . S
C27 C28 1.396 . S
C28 H12 0.939 . S
C28 C27 1.396 . S
C28 C29 1.397 . S
C29 C28 1.397 . S
C29 C30 1.385 . S
C30 H13 0.940 . S
C30 C29 1.385 . S
C30 C31 1.388 . S
C31 H10 0.939 . S
C31 C26 1.391 . S
C31 C30 1.388 . S
P32 O43 1.490 . S
P32 C46 1.812 . S
P32 C52 1.803 . S
P32 C58 1.819 . S
H33 C47 0.941 . S
H34 C48 0.939 . S
H35 C50 0.940 . S
H36 C51 0.940 . S
H37 C53 0.939 . S
H38 C54 0.942 . S
H39 C56 0.940 . S
H40 C57 0.939 . S
H41 C59 0.941 . S
H42 C63 0.939 . S
O43 P32 1.490 . S
H44 C60 0.939 . S
H45 C62 0.940 . S
C46 P32 1.812 . S
C46 C47 1.389 . S
C46 C51 1.391 . S
C47 H33 0.941 . S
C47 C46 1.389 . S
C47 C48 1.397 . S
C48 H34 0.939 . S
C48 C47 1.397 . S
C48 C49 1.378 . S
C49 C48 1.378 . S
C49 C50 1.378 . S
C50 H35 0.940 . S
C50 C49 1.378 . S
C50 C51 1.396 . S
C51 H36 0.940 . S
C51 C46 1.391 . S
C51 C50 1.396 . S
C52 P32 1.803 . S
C52 C53 1.378 . S
C52 C57 1.400 . S
C53 H37 0.939 . S
C53 C52 1.378 . S
C53 C54 1.361 . S
C54 H38 0.942 . S
C54 C53 1.361 . S
C54 C55 1.369 . S
C55 C54 1.369 . S
C55 C56 1.404 . S
C56 H39 0.940 . S
C56 C55 1.404 . S
C56 C57 1.389 . S
C57 H40 0.939 . S
C57 C52 1.400 . S
C57 C56 1.389 . S
C58 P32 1.819 . S
C58 C59 1.391 . S
C58 C63 1.391 . S
C59 H41 0.941 . S
C59 C58 1.391 . S
C59 C60 1.396 . S
C60 H44 0.939 . S
C60 C59 1.396 . S
C60 C61 1.397 . S
C61 C60 1.397 . S
C61 C62 1.385 . S
C62 H45 0.940 . S
C62 C61 1.385 . S
C62 C63 1.388 . S
C63 H42 0.939 . S
C63 C58 1.391 . S
C63 C62 1.388 . S
P64 O75 1.490 . S
P64 C78 1.812 . S
P64 C84 1.803 . S
P64 C90 1.819 . S
H65 C79 0.941 . S
H66 C80 0.939 1_556 S
H67 C82 0.940 . S
H68 C83 0.940 . S
H69 C85 0.939 . S
H70 C86 0.942 . S
H71 C88 0.940 . S
H72 C89 0.939 . S
H73 C91 0.941 . S
H74 C95 0.939 . S
O75 P64 1.490 . S
H76 C92 0.939 . S
H77 C94 0.940 . S
C78 P64 1.812 . S
C78 C79 1.389 . S
C78 C83 1.391 . S
C79 H65 0.941 . S
C79 C78 1.389 . S
C79 C80 1.397 . S
C80 H66 0.939 1_554 S
C80 C79 1.397 . S
C80 C81 1.378 . S
C81 C80 1.378 . S
C81 C82 1.378 . S
C82 H67 0.940 . S
C82 C81 1.378 . S
C82 C83 1.396 . S
C83 H68 0.940 . S
C83 C78 1.391 . S
C83 C82 1.396 . S
C84 P64 1.803 . S
C84 C85 1.378 . S
C84 C89 1.400 . S
C85 H69 0.939 . S
C85 C84 1.378 . S
C85 C86 1.361 . S
C86 H70 0.942 . S
C86 C85 1.361 . S
C86 C87 1.369 . S
C87 C86 1.369 . S
C87 C88 1.404 . S
C88 H71 0.940 . S
C88 C87 1.404 . S
C88 C89 1.389 . S
C89 H72 0.939 . S
C89 C84 1.400 . S
C89 C88 1.389 . S
C90 P64 1.819 . S
C90 C91 1.391 . S
C90 C95 1.391 . S
C91 H73 0.941 . S
C91 C90 1.391 . S
C91 C92 1.396 . S
C92 H76 0.939 . S
C92 C91 1.396 . S
C92 C93 1.397 . S
C93 C92 1.397 . S
C93 C94 1.385 . S
C94 H77 0.940 . S
C94 C93 1.385 . S
C94 C95 1.388 . S
C95 H74 0.939 . S
C95 C90 1.391 . S
C95 C94 1.388 . S
P96 O107 1.490 . S
P96 C110 1.812 . S
P96 C116 1.803 . S
P96 C122 1.819 . S
H97 C111 0.941 . S
H98 C112 0.939 . S
H99 C114 0.940 . S
H100 C115 0.940 . S
H101 C117 0.939 . S
H102 C118 0.942 . S
H103 C120 0.940 . S
H104 C121 0.939 . S
H105 C123 0.941 . S
H106 C127 0.939 . S
O107 P96 1.490 . S
H108 C124 0.939 . S
H109 C126 0.940 . S
C110 P96 1.812 . S
C110 C111 1.389 . S
C110 C115 1.391 . S
C111 H97 0.941 . S
C111 C110 1.389 . S
C111 C112 1.397 . S
C112 H98 0.939 . S
C112 C111 1.397 . S
C112 C113 1.378 . S
C113 C112 1.378 . S
C113 C114 1.378 . S
C114 H99 0.940 . S
C114 C113 1.378 . S
C114 C115 1.396 . S
C115 H100 0.940 . S
C115 C110 1.391 . S
C115 C114 1.396 . S
C116 P96 1.803 . S
C116 C117 1.378 . S
C116 C121 1.400 . S
C117 H101 0.939 . S
C117 C116 1.378 . S
C117 C118 1.361 . S
C118 H102 0.942 . S
C118 C117 1.361 . S
C118 C119 1.369 . S
C119 C118 1.369 . S
C119 C120 1.404 . S
C120 H103 0.940 . S
C120 C119 1.404 . S
C120 C121 1.389 . S
C121 H104 0.939 . S
C121 C116 1.400 . S
C121 C120 1.389 . S
C122 P96 1.819 . S
C122 C123 1.391 . S
C122 C127 1.391 . S
C123 H105 0.941 . S
C123 C122 1.391 . S
C123 C124 1.396 . S
C124 H108 0.939 . S
C124 C123 1.396 . S
C124 C125 1.397 . S
C125 C124 1.397 . S
C125 C126 1.385 . S
C126 H109 0.940 . S
C126 C125 1.385 . S
C126 C127 1.388 . S
C127 H106 0.939 . S
C127 C122 1.391 . S
C127 C126 1.388 . S
P128 O139 1.490 . S
P128 C142 1.812 . S
P128 C148 1.803 . S
P128 C154 1.819 . S
H129 C143 0.941 . S
H130 C144 0.939 . S
H131 C146 0.940 . S
H132 C147 0.940 . S
H133 C149 0.939 . S
H134 C150 0.942 . S
H135 C152 0.940 . S
H136 C153 0.939 . S
H137 C155 0.941 . S
H138 C159 0.939 . S
O139 P128 1.490 . S
H140 C156 0.939 . S
H141 C158 0.909 1_655 S
C142 P128 1.812 . S
C142 C143 1.389 . S
C142 C147 1.391 . S
C143 H129 0.941 . S
C143 C142 1.389 . S
C143 C144 1.397 . S
C144 H130 0.939 . S
C144 C143 1.397 . S
C144 C145 1.378 1_565 S
C145 C144 1.378 1_545 S
C145 C146 1.378 . S
C146 H131 0.940 . S
C146 C145 1.378 . S
C146 C147 1.396 1_545 S
C147 H132 0.940 . S
C147 C142 1.391 . S
C147 C146 1.396 1_565 S
C148 P128 1.803 . S
C148 C149 1.378 . S
C148 C153 1.400 . S
C149 H133 0.939 . S
C149 C148 1.378 . S
C149 C150 1.361 . S
C150 H134 0.942 . S
C150 C149 1.361 . S
C150 C151 1.369 . S
C151 C150 1.369 . S
C151 C152 1.404 . S
C152 H135 0.940 . S
C152 C151 1.404 . S
C152 C153 1.389 . S
C153 H136 0.939 . S
C153 C148 1.400 . S
C153 C152 1.389 . S
C154 P128 1.819 . S
C154 C155 1.391 . S
C154 C159 1.391 . S
C155 H137 0.941 . S
C155 C154 1.391 . S
C155 C156 1.396 . S
C156 H140 0.939 . S
C156 C155 1.396 . S
C156 C157 1.397 . S
C157 C156 1.397 . S
C157 C158 1.385 . S
C158 H141 0.909 1_455 S
C158 C157 1.385 . S
C158 C159 1.388 . S
C159 H138 0.939 . S
C159 C154 1.391 . S
C159 C158 1.388 . S
P160 O171 1.490 . S
P160 C174 1.812 . S
P160 C180 1.803 . S
P160 C186 1.819 . S
H161 C175 0.941 . S
H162 C176 0.939 . S
H163 C178 0.940 . S
H164 C179 0.940 . S
H165 C181 0.939 . S
H166 C182 0.942 . S
H167 C184 0.940 . S
H168 C185 0.939 . S
H169 C187 0.941 . S
H170 C191 0.939 . S
O171 P160 1.490 . S
H172 C188 0.939 . S
H173 C190 0.940 . S
C174 P160 1.812 . S
C174 C175 1.389 . S
C174 C179 1.391 . S
C175 H161 0.941 . S
C175 C174 1.389 . S
C175 C176 1.397 . S
C176 H162 0.939 . S
C176 C175 1.397 . S
C176 C177 1.378 . S
C177 C176 1.378 . S
C177 C178 1.378 . S
C178 H163 0.940 . S
C178 C177 1.378 . S
C178 C179 1.396 . S
C179 H164 0.940 . S
C179 C174 1.391 . S
C179 C178 1.396 . S
C180 P160 1.803 . S
C180 C181 1.378 . S
C180 C185 1.400 . S
C181 H165 0.939 . S
C181 C180 1.378 . S
C181 C182 1.361 . S
C182 H166 0.942 . S
C182 C181 1.361 . S
C182 C183 1.369 . S
C183 C182 1.369 . S
C183 C184 1.404 . S
C184 H167 0.940 . S
C184 C183 1.404 . S
C184 C185 1.389 . S
C185 H168 0.939 . S
C185 C180 1.400 . S
C185 C184 1.389 . S
C186 P160 1.819 . S
C186 C187 1.391 . S
C186 C191 1.391 . S
C187 H169 0.941 . S
C187 C186 1.391 . S
C187 C188 1.396 . S
C188 H172 0.939 . S
C188 C187 1.396 . S
C188 C189 1.397 . S
C189 C188 1.397 . S
C189 C190 1.385 . S
C190 H173 0.940 . S
C190 C189 1.385 . S
C190 C191 1.388 . S
C191 H170 0.939 . S
C191 C186 1.391 . S
C191 C190 1.388 . S
P192 O203 1.490 . S
P192 C206 1.812 . S
P192 C212 1.803 . S
P192 C218 1.819 . S
H193 C207 0.969 . S
H194 C208 0.939 1_455 S
H195 C210 0.940 . S
H196 C211 0.940 . S
H197 C213 0.939 . S
H198 C214 0.942 . S
H199 C216 0.940 . S
H200 C217 0.939 . S
H201 C219 0.941 . S
H202 C223 0.939 . S
O203 P192 1.490 . S
H204 C220 0.939 . S
H205 C222 0.940 . S
C206 P192 1.812 . S
C206 C207 1.389 . S
C206 C211 1.391 . S
C207 H193 0.969 . S
C207 C206 1.389 . S
C207 C208 1.397 . S
C208 H194 0.939 1_655 S
C208 C207 1.397 . S
C208 C209 1.378 . S
C209 C208 1.378 . S
C209 C210 1.378 . S
C210 H195 0.940 . S
C210 C209 1.378 . S
C210 C211 1.396 . S
C211 H196 0.940 . S
C211 C206 1.391 . S
C211 C210 1.396 . S
C212 P192 1.803 . S
C212 C213 1.378 . S
C212 C217 1.400 . S
C213 H197 0.939 . S
C213 C212 1.378 . S
C213 C214 1.361 . S
C214 H198 0.942 . S
C214 C213 1.361 . S
C214 C215 1.369 . S
C215 C214 1.369 . S
C215 C216 1.404 . S
C216 H199 0.940 . S
C216 C215 1.404 . S
C216 C217 1.389 . S
C217 H200 0.939 . S
C217 C212 1.400 . S
C217 C216 1.389 . S
C218 P192 1.819 . S
C218 C219 1.391 . S
C218 C223 1.391 . S
C219 H201 0.941 . S
C219 C218 1.391 . S
C219 C220 1.396 . S
C220 H204 0.939 . S
C220 C219 1.396 . S
C220 C221 1.397 . S
C221 C220 1.397 . S
C221 C222 1.385 . S
C222 H205 0.940 . S
C222 C221 1.385 . S
C222 C223 1.388 . S
C223 H202 0.939 . S
C223 C218 1.391 . S
C223 C222 1.388 . S
P224 O235 1.490 . S
P224 C238 1.812 . S
P224 C244 1.803 . S
P224 C250 1.819 . S
H225 C239 0.941 . S
H226 C240 0.939 . S
H227 C242 0.940 . S
H228 C243 0.940 . S
H229 C245 0.939 . S
H230 C246 0.942 . S
H231 C248 0.940 . S
H232 C249 0.939 . S
H233 C251 0.941 . S
H234 C255 0.939 . S
O235 P224 1.490 . S
H236 C252 0.939 . S
H237 C254 0.940 . S
C238 P224 1.812 . S
C238 C239 1.389 . S
C238 C243 1.391 . S
C239 H225 0.941 . S
C239 C238 1.389 . S
C239 C240 1.397 . S
C240 H226 0.939 . S
C240 C239 1.397 . S
C240 C241 1.378 . S
C241 C240 1.378 . S
C241 C242 1.378 . S
C242 H227 0.940 . S
C242 C241 1.378 . S
C242 C243 1.396 . S
C243 H228 0.940 . S
C243 C238 1.391 . S
C243 C242 1.396 . S
C244 P224 1.803 . S
C244 C245 1.378 . S
C244 C249 1.400 . S
C245 H229 0.939 . S
C245 C244 1.378 . S
C245 C246 1.361 . S
C246 H230 0.942 . S
C246 C245 1.361 . S
C246 C247 1.369 . S
C247 C246 1.369 . S
C247 C248 1.404 . S
C248 H231 0.940 . S
C248 C247 1.404 . S
C248 C249 1.389 . S
C249 H232 0.939 . S
C249 C244 1.400 . S
C249 C248 1.389 . S
C250 P224 1.819 . S
C250 C251 1.391 . S
C250 C255 1.391 . S
C251 H233 0.941 . S
C251 C250 1.391 . S
C251 C252 1.396 . S
C252 H236 0.939 . S
C252 C251 1.396 . S
C252 C253 1.397 . S
C253 C252 1.397 . S
C253 C254 1.385 . S
C254 H237 0.940 . S
C254 C253 1.385 . S
C254 C255 1.388 . S
C255 H234 0.939 . S
C255 C250 1.391 . S
C255 C254 1.388 . S
P256 O267 1.490 . S
P256 C270 1.812 . S
P256 C276 1.803 . S
P256 C282 1.819 . S
H257 C271 0.941 . S
H258 C272 0.939 . S
H259 C274 0.940 . S
H260 C275 0.940 . S
H261 C277 0.939 . S
H262 C278 0.942 . S
H263 C280 0.940 . S
H264 C281 0.939 . S
H265 C283 0.941 . S
H266 C287 0.939 . S
O267 P256 1.490 . S
H268 C284 0.939 . S
H269 C286 0.940 . S
C270 P256 1.812 . S
C270 C271 1.389 . S
C270 C275 1.391 . S
C271 H257 0.941 . S
C271 C270 1.389 . S
C271 C272 1.397 . S
C272 H258 0.939 . S
C272 C271 1.397 . S
C272 C273 1.378 . S
C273 C272 1.378 . S
C273 C274 1.378 . S
C274 H259 0.940 . S
C274 C273 1.378 . S
C274 C275 1.396 . S
C275 H260 0.940 . S
C275 C270 1.391 . S
C275 C274 1.396 . S
C276 P256 1.803 . S
C276 C277 1.378 . S
C276 C281 1.400 . S
C277 H261 0.939 . S
C277 C276 1.378 . S
C277 C278 1.361 . S
C278 H262 0.942 . S
C278 C277 1.361 . S
C278 C279 1.369 . S
C279 C278 1.369 . S
C279 C280 1.404 . S
C280 H263 0.940 . S
C280 C279 1.404 . S
C280 C281 1.389 . S
C281 H264 0.939 . S
C281 C276 1.400 . S
C281 C280 1.389 . S
C282 P256 1.819 . S
C282 C283 1.391 . S
C282 C287 1.391 . S
C283 H265 0.941 . S
C283 C282 1.391 . S
C283 C284 1.396 . S
C284 H268 0.939 . S
C284 C283 1.396 . S
C284 C285 1.397 . S
C285 C284 1.397 . S
C285 C286 1.385 . S
C286 H269 0.940 . S
C286 C285 1.385 . S
C286 C287 1.388 . S
C287 H266 0.939 . S
C287 C282 1.391 . S
C287 C286 1.388 . S
P288 O299 1.490 . S
P288 C302 1.812 . S
P288 C308 1.803 . S
P288 C314 1.819 . S
H289 C303 0.941 . S
H290 C304 0.939 . S
H291 C306 0.940 . S
H292 C307 0.940 . S
H293 C309 0.939 1_545 S
H294 C310 0.942 . S
H295 C312 0.940 . S
H296 C313 0.939 . S
H297 C315 0.941 . S
H298 C319 0.939 . S
O299 P288 1.490 . S
H300 C316 0.939 . S
H301 C318 0.940 . S
C302 P288 1.812 . S
C302 C303 1.389 . S
C302 C307 1.391 . S
C303 H289 0.941 . S
C303 C302 1.389 . S
C303 C304 1.397 . S
C304 H290 0.939 . S
C304 C303 1.397 . S
C304 C305 1.378 . S
C305 C304 1.378 . S
C305 C306 1.378 . S
C306 H291 0.940 . S
C306 C305 1.378 . S
C306 C307 1.396 . S
C307 H292 0.940 . S
C307 C302 1.391 . S
C307 C306 1.396 . S
C308 P288 1.803 . S
C308 C309 1.378 . S
C308 C313 1.400 . S
C309 H293 0.939 1_565 S
C309 C308 1.378 . S
C309 C310 1.361 1_565 S
C310 H294 0.942 . S
C310 C309 1.361 1_545 S
C310 C311 1.369 1_545 S
C311 C310 1.369 1_565 S
C311 C312 1.404 . S
C312 H295 0.940 . S
C312 C311 1.404 . S
C312 C313 1.389 . S
C313 H296 0.939 . S
C313 C308 1.400 . S
C313 C312 1.389 . S
C314 P288 1.819 . S
C314 C315 1.391 . S
C314 C319 1.391 . S
C315 H297 0.941 . S
C315 C314 1.391 . S
C315 C316 1.396 . S
C316 H300 0.939 . S
C316 C315 1.396 . S
C316 C317 1.397 . S
C317 C316 1.397 . S
C317 C318 1.385 . S
C318 H301 0.940 . S
C318 C317 1.385 . S
C318 C319 1.388 . S
C319 H298 0.939 . S
C319 C314 1.391 . S
C319 C318 1.388 . S
P320 O331 1.490 . S
P320 C334 1.812 . S
P320 C340 1.803 . S
P320 C346 1.819 . S
H321 C335 0.941 . S
H322 C336 0.939 . S
H323 C338 0.940 . S
H324 C339 0.940 . S
H325 C341 0.939 . S
H326 C342 0.942 . S
H327 C344 0.940 . S
H328 C345 0.939 . S
H329 C347 0.941 . S
H330 C351 0.939 . S
O331 P320 1.490 . S
H332 C348 0.939 . S
H333 C350 0.940 . S
C334 P320 1.812 . S
C334 C335 1.389 . S
C334 C339 1.391 . S
C335 H321 0.941 . S
C335 C334 1.389 . S
C335 C336 1.397 . S
C336 H322 0.939 . S
C336 C335 1.397 . S
C336 C337 1.378 . S
C337 C336 1.378 . S
C337 C338 1.378 . S
C338 H323 0.940 . S
C338 C337 1.378 . S
C338 C339 1.396 . S
C339 H324 0.940 . S
C339 C334 1.391 . S
C339 C338 1.396 . S
C340 P320 1.803 . S
C340 C341 1.378 . S
C340 C345 1.400 . S
C341 H325 0.939 . S
C341 C340 1.378 . S
C341 C342 1.361 . S
C342 H326 0.942 . S
C342 C341 1.361 . S
C342 C343 1.369 . S
C343 C342 1.369 . S
C343 C344 1.404 . S
C344 H327 0.940 . S
C344 C343 1.404 . S
C344 C345 1.389 . S
C345 H328 0.939 . S
C345 C340 1.400 . S
C345 C344 1.389 . S
C346 P320 1.819 . S
C346 C347 1.391 . S
C346 C351 1.391 . S
C347 H329 0.941 . S
C347 C346 1.391 . S
C347 C348 1.396 . S
C348 H332 0.939 . S
C348 C347 1.396 . S
C348 C349 1.397 . S
C349 C348 1.397 . S
C349 C350 1.385 . S
C350 H333 0.940 . S
C350 C349 1.385 . S
C350 C351 1.388 . S
C351 H330 0.939 . S
C351 C346 1.391 . S
C351 C350 1.388 . S
P352 O363 1.490 . S
P352 C366 1.812 . S
P352 C372 1.803 . S
P352 C378 1.819 . S
H353 C367 0.941 . S
H354 C368 0.939 . S
H355 C370 0.940 . S
H356 C371 0.940 . S
H357 C373 0.939 . S
H358 C374 0.942 . S
H359 C376 0.940 . S
H360 C377 0.939 . S
H361 C379 0.941 . S
H362 C383 0.939 . S
O363 P352 1.490 . S
H364 C380 0.939 . S
H365 C382 0.940 . S
C366 P352 1.812 . S
C366 C367 1.389 . S
C366 C371 1.391 . S
C367 H353 0.941 . S
C367 C366 1.389 . S
C367 C368 1.397 . S
C368 H354 0.939 . S
C368 C367 1.397 . S
C368 C369 1.378 . S
C369 C368 1.378 . S
C369 C370 1.378 . S
C370 H355 0.940 . S
C370 C369 1.378 . S
C370 C371 1.396 . S
C371 H356 0.940 . S
C371 C366 1.391 . S
C371 C370 1.396 . S
C372 P352 1.803 . S
C372 C373 1.378 . S
C372 C377 1.400 . S
C373 H357 0.939 . S
C373 C372 1.378 . S
C373 C374 1.361 . S
C374 H358 0.942 . S
C374 C373 1.361 . S
C374 C375 1.369 . S
C375 C374 1.369 . S
C375 C376 1.404 . S
C376 H359 0.940 . S
C376 C375 1.404 . S
C376 C377 1.389 . S
C377 H360 0.939 . S
C377 C372 1.400 . S
C377 C376 1.389 . S
C378 P352 1.819 . S
C378 C379 1.391 . S
C378 C383 1.391 . S
C379 H361 0.941 . S
C379 C378 1.391 . S
C379 C380 1.396 . S
C380 H364 0.939 . S
C380 C379 1.396 . S
C380 C381 1.397 . S
C381 C380 1.397 . S
C381 C382 1.385 . S
C382 H365 0.940 . S
C382 C381 1.385 . S
C382 C383 1.388 . S
C383 H362 0.939 . S
C383 C378 1.391 . S
C383 C382 1.388 . S
P384 O395 1.490 . S
P384 C398 1.812 . S
P384 C404 1.803 . S
P384 C410 1.819 . S
H385 C399 0.941 . S
H386 C400 0.939 . S
H387 C402 0.940 . S
H388 C403 0.940 . S
H389 C405 0.939 . S
H390 C406 0.942 . S
H391 C408 0.940 . S
H392 C409 0.939 . S
H393 C411 0.941 . S
H394 C415 0.939 . S
O395 P384 1.490 . S
H396 C412 0.939 . S
H397 C414 0.940 . S
C398 P384 1.812 . S
C398 C399 1.389 . S
C398 C403 1.391 . S
C399 H385 0.941 . S
C399 C398 1.389 . S
C399 C400 1.397 . S
C400 H386 0.939 . S
C400 C399 1.397 . S
C400 C401 1.378 . S
C401 C400 1.378 . S
C401 C402 1.378 . S
C402 H387 0.940 . S
C402 C401 1.378 . S
C402 C403 1.396 . S
C403 H388 0.940 . S
C403 C398 1.391 . S
C403 C402 1.396 . S
C404 P384 1.803 . S
C404 C405 1.378 . S
C404 C409 1.400 . S
C405 H389 0.939 . S
C405 C404 1.378 . S
C405 C406 1.361 . S
C406 H390 0.942 . S
C406 C405 1.361 . S
C406 C407 1.369 . S
C407 C406 1.369 . S
C407 C408 1.404 . S
C408 H391 0.940 . S
C408 C407 1.404 . S
C408 C409 1.389 . S
C409 H392 0.939 . S
C409 C404 1.400 . S
C409 C408 1.389 . S
C410 P384 1.819 . S
C410 C411 1.391 . S
C410 C415 1.391 . S
C411 H393 0.941 . S
C411 C410 1.391 . S
C411 C412 1.396 . S
C412 H396 0.939 . S
C412 C411 1.396 . S
C412 C413 1.397 . S
C413 C412 1.397 . S
C413 C414 1.385 . S
C414 H397 0.940 . S
C414 C413 1.385 . S
C414 C415 1.388 . S
C415 H394 0.939 . S
C415 C410 1.391 . S
C415 C414 1.388 . S
P416 O427 1.490 . S
P416 C430 1.812 . S
P416 C436 1.803 . S
P416 C442 1.819 . S
H417 C431 0.941 . S
H418 C432 0.939 . S
H419 C434 0.940 . S
H420 C435 0.940 . S
H421 C437 0.939 . S
H422 C438 0.942 . S
H423 C440 0.940 . S
H424 C441 0.939 . S
H425 C443 0.941 . S
H426 C447 0.939 . S
O427 P416 1.490 . S
H428 C444 0.939 . S
H429 C446 0.940 . S
C430 P416 1.812 . S
C430 C431 1.389 . S
C430 C435 1.391 . S
C431 H417 0.941 . S
C431 C430 1.389 . S
C431 C432 1.397 . S
C432 H418 0.939 . S
C432 C431 1.397 . S
C432 C433 1.378 . S
C433 C432 1.378 . S
C433 C434 1.378 . S
C434 H419 0.940 . S
C434 C433 1.378 . S
C434 C435 1.396 . S
C435 H420 0.940 . S
C435 C430 1.391 . S
C435 C434 1.396 . S
C436 P416 1.803 . S
C436 C437 1.378 . S
C436 C441 1.400 . S
C437 H421 0.939 . S
C437 C436 1.378 . S
C437 C438 1.361 . S
C438 H422 0.942 . S
C438 C437 1.361 . S
C438 C439 1.369 . S
C439 C438 1.369 . S
C439 C440 1.404 . S
C440 H423 0.940 . S
C440 C439 1.404 . S
C440 C441 1.389 . S
C441 H424 0.939 . S
C441 C436 1.400 . S
C441 C440 1.389 . S
C442 P416 1.819 . S
C442 C443 1.391 . S
C442 C447 1.391 . S
C443 H425 0.941 . S
C443 C442 1.391 . S
C443 C444 1.396 . S
C444 H428 0.939 . S
C444 C443 1.396 . S
C444 C445 1.397 . S
C445 C444 1.397 . S
C445 C446 1.385 . S
C446 H429 0.940 . S
C446 C445 1.385 . S
C446 C447 1.388 . S
C447 H426 0.939 . S
C447 C442 1.391 . S
C447 C446 1.388 . S
P448 O459 1.490 . S
P448 C462 1.812 . S
P448 C468 1.803 . S
P448 C474 1.819 . S
H449 C463 0.941 . S
H450 C464 0.939 . S
H451 C466 0.940 . S
H452 C467 0.940 . S
H453 C469 0.939 . S
H454 C470 0.942 . S
H455 C472 0.940 . S
H456 C473 0.939 . S
H457 C475 0.941 . S
H458 C479 0.939 . S
O459 P448 1.490 . S
H460 C476 0.939 . S
H461 C478 0.940 . S
C462 P448 1.812 . S
C462 C463 1.389 . S
C462 C467 1.391 . S
C463 H449 0.941 . S
C463 C462 1.389 . S
C463 C464 1.397 . S
C464 H450 0.939 . S
C464 C463 1.397 . S
C464 C465 1.378 . S
C465 C464 1.378 . S
C465 C466 1.378 . S
C466 H451 0.940 . S
C466 C465 1.378 . S
C466 C467 1.396 . S
C467 H452 0.940 . S
C467 C462 1.391 . S
C467 C466 1.396 . S
C468 P448 1.803 . S
C468 C469 1.378 . S
C468 C473 1.400 . S
C469 H453 0.939 . S
C469 C468 1.378 . S
C469 C470 1.361 . S
C470 H454 0.942 . S
C470 C469 1.361 . S
C470 C471 1.369 . S
C471 C470 1.369 . S
C471 C472 1.404 . S
C472 H455 0.940 . S
C472 C471 1.404 . S
C472 C473 1.389 . S
C473 H456 0.939 . S
C473 C468 1.400 . S
C473 C472 1.389 . S
C474 P448 1.819 . S
C474 C475 1.391 . S
C474 C479 1.391 . S
C475 H457 0.941 . S
C475 C474 1.391 . S
C475 C476 1.396 . S
C476 H460 0.939 . S
C476 C475 1.396 . S
C476 C477 1.397 . S
C477 C476 1.397 . S
C477 C478 1.385 . S
C478 H461 0.940 . S
C478 C477 1.385 . S
C478 C479 1.388 . S
C479 H458 0.939 . S
C479 C474 1.391 . S
C479 C478 1.388 . S
P480 O491 1.490 . S
P480 C494 1.812 . S
P480 C500 1.803 . S
P480 C506 1.819 . S
H481 C495 0.941 . S
H482 C496 0.939 . S
H483 C498 0.940 . S
H484 C499 0.940 . S
H485 C501 0.939 . S
H486 C502 0.942 . S
H487 C504 0.940 . S
H488 C505 0.939 . S
H489 C507 0.941 . S
H490 C511 0.939 . S
O491 P480 1.490 . S
H492 C508 0.939 1_565 S
H493 C510 0.940 . S
C494 P480 1.812 . S
C494 C495 1.389 . S
C494 C499 1.391 . S
C495 H481 0.941 . S
C495 C494 1.389 . S
C495 C496 1.397 . S
C496 H482 0.939 . S
C496 C495 1.397 . S
C496 C497 1.378 . S
C497 C496 1.378 . S
C497 C498 1.378 . S
C498 H483 0.940 . S
C498 C497 1.378 . S
C498 C499 1.396 . S
C499 H484 0.940 . S
C499 C494 1.391 . S
C499 C498 1.396 . S
C500 P480 1.803 . S
C500 C501 1.378 1_556 S
C500 C505 1.400 . S
C501 H485 0.939 . S
C501 C500 1.378 1_554 S
C501 C502 1.361 . S
C502 H486 0.942 . S
C502 C501 1.361 . S
C502 C503 1.369 . S
C503 C502 1.369 . S
C503 C504 1.404 1_554 S
C504 H487 0.940 . S
C504 C503 1.404 1_556 S
C504 C505 1.389 . S
C505 H488 0.939 . S
C505 C500 1.400 . S
C505 C504 1.389 . S
C506 P480 1.819 . S
C506 C507 1.391 . S
C506 C511 1.391 . S
C507 H489 0.941 . S
C507 C506 1.391 . S
C507 C508 1.396 . S
C508 H492 0.939 1_545 S
C508 C507 1.396 . S
C508 C509 1.397 . S
C509 C508 1.397 . S
C509 C510 1.385 . S
C510 H493 0.940 . S
C510 C509 1.385 . S
C510 C511 1.388 . S
C511 H490 0.939 . S
C511 C506 1.391 . S
C511 C510 1.388 . S
O512 Cd513 2.223 . S
O512 C520 1.315 . S
Cd513 O512 2.223 . S
Cd513 O516 2.297 . S
Cd513 O517 2.439 . S
Cd513 O523 2.240 . S
Cd514 O515 2.240 . S
Cd514 O522 2.223 . S
Cd514 O524 2.297 . S
Cd514 O525 2.439 . S
O515 Cd514 2.240 . S
O515 C520 1.279 . S
O516 Cd513 2.297 . S
O516 C518 1.247 . S
O517 Cd513 2.439 . S
O517 C518 1.208 . S
C518 O516 1.247 . S
C518 O517 1.208 . S
C519 O524 1.247 . S
C519 O525 1.208 . S
C520 O512 1.315 . S
C520 O515 1.279 . S
C521 O522 1.315 . S
C521 O523 1.279 . S
O522 Cd514 2.223 . S
O522 C521 1.315 . S
O523 Cd513 2.240 . S
O523 C521 1.279 . S
O524 Cd514 2.297 . S
O524 C519 1.247 . S
O525 Cd514 2.439 . S
O525 C519 1.208 . S
O526 Cd527 2.223 . S
O526 C534 1.315 . S
Cd527 O526 2.223 . S
Cd527 O530 2.297 . S
Cd527 O531 2.439 . S
Cd527 O537 2.240 . S
Cd528 O529 2.240 . S
Cd528 O536 2.223 . S
Cd528 O538 2.297 . S
Cd528 O539 2.439 . S
O529 Cd528 2.240 . S
O529 C534 1.279 . S
O530 Cd527 2.297 . S
O530 C532 1.247 . S
O531 Cd527 2.439 . S
O531 C532 1.208 . S
C532 O530 1.247 . S
C532 O531 1.208 . S
C533 O538 1.247 . S
C533 O539 1.208 . S
C534 O526 1.315 . S
C534 O529 1.279 . S
C535 O536 1.315 . S
C535 O537 1.279 . S
O536 Cd528 2.223 . S
O536 C535 1.315 . S
O537 Cd527 2.240 . S
O537 C535 1.279 . S
O538 Cd528 2.297 . S
O538 C533 1.247 . S
O539 Cd528 2.439 . S
O539 C533 1.208 . S
O540 Cd541 2.223 1_556 S
O540 C548 1.315 . S
Cd541 O540 2.223 1_554 S
Cd541 O544 2.297 . S
Cd541 O545 2.439 . S
Cd541 O551 2.240 . S
Cd542 O543 2.240 . S
Cd542 O550 2.223 . S
Cd542 O552 2.297 1_556 S
Cd542 O553 2.439 1_556 S
O543 Cd542 2.240 . S
O543 C548 1.279 . S
O544 Cd541 2.297 . S
O544 C546 1.247 . S
O545 Cd541 2.439 . S
O545 C546 1.208 . S
C546 O544 1.247 . S
C546 O545 1.208 . S
C547 O552 1.247 . S
C547 O553 1.208 . S
C548 O540 1.315 . S
C548 O543 1.279 . S
C549 O550 1.315 . S
C549 O551 1.279 1_556 S
O550 Cd542 2.223 . S
O550 C549 1.315 . S
O551 Cd541 2.240 . S
O551 C549 1.279 1_554 S
O552 Cd542 2.297 1_554 S
O552 C547 1.247 . S
O553 Cd542 2.439 1_554 S
O553 C547 1.208 . S
O554 Cd555 2.223 . S
O554 C562 1.315 . S
Cd555 O554 2.223 . S
Cd555 O558 2.297 . S
Cd555 O559 2.439 . S
Cd555 O565 2.240 . S
Cd556 O557 2.240 . S
Cd556 O564 2.223 . S
Cd556 O566 2.297 . S
Cd556 O567 2.439 . S
O557 Cd556 2.240 . S
O557 C562 1.279 . S
O558 Cd555 2.297 . S
O558 C560 1.247 . S
O559 Cd555 2.439 . S
O559 C560 1.208 . S
C560 O558 1.247 . S
C560 O559 1.208 . S
C561 O566 1.247 . S
C561 O567 1.208 . S
C562 O554 1.315 . S
C562 O557 1.279 . S
C563 O564 1.315 . S
C563 O565 1.279 . S
O564 Cd556 2.223 . S
O564 C563 1.315 . S
O565 Cd555 2.240 . S
O565 C563 1.279 . S
O566 Cd556 2.297 . S
O566 C561 1.247 . S
O567 Cd556 2.439 . S
O567 C561 1.208 . S
O568 Cd569 2.223 . S
O568 C576 1.315 . S
Cd569 O568 2.223 . S
Cd569 O572 2.297 . S
Cd569 O573 2.439 . S
Cd569 O579 2.240 . S
Cd570 O571 2.240 . S
Cd570 O578 2.223 . S
Cd570 O580 2.297 . S
Cd570 O581 2.439 . S
O571 Cd570 2.240 . S
O571 C576 1.279 . S
O572 Cd569 2.297 . S
O572 C574 1.247 . S
O573 Cd569 2.439 . S
O573 C574 1.208 . S
C574 O572 1.247 . S
C574 O573 1.208 . S
C575 O580 1.247 . S
C575 O581 1.208 . S
C576 O568 1.315 . S
C576 O571 1.279 . S
C577 O578 1.315 . S
C577 O579 1.279 . S
O578 Cd570 2.223 . S
O578 C577 1.315 . S
O579 Cd569 2.240 . S
O579 C577 1.279 . S
O580 Cd570 2.297 . S
O580 C575 1.247 . S
O581 Cd570 2.439 . S
O581 C575 1.208 . S
O582 Cd583 2.223 . S
O582 C590 1.315 . S
Cd583 O582 2.223 . S
Cd583 O586 2.297 . S
Cd583 O587 2.439 . S
Cd583 O593 2.240 . S
Cd584 O585 2.240 . S
Cd584 O592 2.223 . S
Cd584 O594 2.297 . S
Cd584 O595 2.439 . S
O585 Cd584 2.240 . S
O585 C590 1.279 . S
O586 Cd583 2.297 . S
O586 C588 1.247 . S
O587 Cd583 2.439 . S
O587 C588 1.208 . S
C588 O586 1.247 . S
C588 O587 1.208 . S
C589 O594 1.247 . S
C589 O595 1.208 . S
C590 O582 1.315 . S
C590 O585 1.279 . S
C591 O592 1.315 . S
C591 O593 1.279 . S
O592 Cd584 2.223 . S
O592 C591 1.315 . S
O593 Cd583 2.240 . S
O593 C591 1.279 . S
O594 Cd584 2.297 . S
O594 C589 1.247 . S
O595 Cd584 2.439 . S
O595 C589 1.208 . S
O596 Cd597 2.223 . S
O596 C604 1.315 . S
Cd597 O596 2.223 . S
Cd597 O600 2.297 . S
Cd597 O601 2.439 . S
Cd597 O607 2.240 . S
Cd598 O599 2.240 . S
Cd598 O606 2.223 . S
Cd598 O608 2.297 . S
Cd598 O609 2.439 . S
O599 Cd598 2.240 . S
O599 C604 1.279 . S
O600 Cd597 2.297 . S
O600 C602 1.247 . S
O601 Cd597 2.439 . S
O601 C602 1.208 . S
C602 O600 1.247 . S
C602 O601 1.208 . S
C603 O608 1.247 . S
C603 O609 1.208 . S
C604 O596 1.315 . S
C604 O599 1.279 . S
C605 O606 1.315 . S
C605 O607 1.279 . S
O606 Cd598 2.223 . S
O606 C605 1.315 . S
O607 Cd597 2.240 . S
O607 C605 1.279 . S
O608 Cd598 2.297 . S
O608 C603 1.247 . S
O609 Cd598 2.439 . S
O609 C603 1.208 . S
O610 Cd611 2.223 1_545 S
O610 C618 1.315 . S
Cd611 O610 2.223 1_565 S
Cd611 O614 2.297 . S
Cd611 O615 2.439 . S
Cd611 O621 2.240 1_565 S
Cd612 O613 2.240 . S
Cd612 O620 2.223 . S
Cd612 O622 2.297 . S
Cd612 O623 2.439 1_545 S
O613 Cd612 2.240 . S
O613 C618 1.279 . S
O614 Cd611 2.297 . S
O614 C616 1.247 . S
O615 Cd611 2.439 . S
O615 C616 1.208 . S
C616 O614 1.247 . S
C616 O615 1.208 . S
C617 O622 1.247 1_565 S
C617 O623 1.208 . S
C618 O610 1.315 . S
C618 O613 1.279 . S
C619 O620 1.315 . S
C619 O621 1.279 . S
O620 Cd612 2.223 . S
O620 C619 1.315 . S
O621 Cd611 2.240 1_545 S
O621 C619 1.279 . S
O622 Cd612 2.297 . S
O622 C617 1.247 1_545 S
O623 Cd612 2.439 1_565 S
O623 C617 1.208 . S
O624 Cd625 2.223 . S
O624 C632 1.315 . S
Cd625 O624 2.223 . S
Cd625 O628 2.297 1_655 S
Cd625 O629 2.439 1_655 S
Cd625 O635 2.240 . S
Cd626 O627 2.240 . S
Cd626 O634 2.223 1_455 S
Cd626 O636 2.297 . S
Cd626 O637 2.439 . S
O627 Cd626 2.240 . S
O627 C632 1.279 1_455 S
O628 Cd625 2.297 1_455 S
O628 C630 1.247 . S
O629 Cd625 2.439 1_455 S
O629 C630 1.208 . S
C630 O628 1.247 . S
C630 O629 1.208 . S
C631 O636 1.247 . S
C631 O637 1.208 . S
C632 O624 1.315 . S
C632 O627 1.279 1_655 S
C633 O634 1.315 . S
C633 O635 1.279 . S
O634 Cd626 2.223 1_655 S
O634 C633 1.315 . S
O635 Cd625 2.240 . S
O635 C633 1.279 . S
O636 Cd626 2.297 . S
O636 C631 1.247 . S
O637 Cd626 2.439 . S
O637 C631 1.208 . S
O638 Cd639 2.223 . S
O638 C646 1.315 . S
Cd639 O638 2.223 . S
Cd639 O642 2.297 . S
Cd639 O643 2.439 . S
Cd639 O649 2.240 . S
Cd640 O641 2.240 . S
Cd640 O648 2.223 . S
Cd640 O650 2.297 . S
Cd640 O651 2.439 . S
O641 Cd640 2.240 . S
O641 C646 1.279 . S
O642 Cd639 2.297 . S
O642 C644 1.247 . S
O643 Cd639 2.439 . S
O643 C644 1.208 . S
C644 O642 1.247 . S
C644 O643 1.208 . S
C645 O650 1.247 . S
C645 O651 1.208 . S
C646 O638 1.315 . S
C646 O641 1.279 . S
C647 O648 1.315 . S
C647 O649 1.279 . S
O648 Cd640 2.223 . S
O648 C647 1.315 . S
O649 Cd639 2.240 . S
O649 C647 1.279 . S
O650 Cd640 2.297 . S
O650 C645 1.247 . S
O651 Cd640 2.439 . S
O651 C645 1.208 . S
O652 Cd653 2.223 1_655 S
O652 C660 1.315 . S
Cd653 O652 2.223 1_455 S
Cd653 O656 2.297 . S
Cd653 O657 2.439 . S
Cd653 O663 2.240 . S
Cd654 O655 2.240 . S
Cd654 O662 2.223 . S
Cd654 O664 2.297 . S
Cd654 O665 2.439 1_655 S
O655 Cd654 2.240 . S
O655 C660 1.279 . S
O656 Cd653 2.297 . S
O656 C658 1.247 . S
O657 Cd653 2.439 . S
O657 C658 1.208 . S
C658 O656 1.247 . S
C658 O657 1.208 . S
C659 O664 1.247 1_455 S
C659 O665 1.208 . S
C660 O652 1.315 . S
C660 O655 1.279 . S
C661 O662 1.315 . S
C661 O663 1.279 1_655 S
O662 Cd654 2.223 . S
O662 C661 1.315 . S
O663 Cd653 2.240 . S
O663 C661 1.279 1_455 S
O664 Cd654 2.297 . S
O664 C659 1.247 1_655 S
O665 Cd654 2.439 1_455 S
O665 C659 1.208 . S
O666 Cd667 2.223 . S
O666 C674 1.315 . S
Cd667 O666 2.223 . S
Cd667 O670 2.297 . S
Cd667 O671 2.439 . S
Cd667 O677 2.240 . S
Cd668 O669 2.240 . S
Cd668 O676 2.223 . S
Cd668 O678 2.297 . S
Cd668 O679 2.439 . S
O669 Cd668 2.240 . S
O669 C674 1.279 . S
O670 Cd667 2.297 . S
O670 C672 1.247 . S
O671 Cd667 2.439 . S
O671 C672 1.208 . S
C672 O670 1.247 . S
C672 O671 1.208 . S
C673 O678 1.247 . S
C673 O679 1.208 . S
C674 O666 1.315 . S
C674 O669 1.279 . S
C675 O676 1.315 . S
C675 O677 1.279 . S
O676 Cd668 2.223 . S
O676 C675 1.315 . S
O677 Cd667 2.240 . S
O677 C675 1.279 . S
O678 Cd668 2.297 . S
O678 C673 1.247 . S
O679 Cd668 2.439 . S
O679 C673 1.208 . S
C680 C681 1.387 . S
C680 H684 0.950 . S
C680 C689 1.390 . S
C681 C680 1.387 . S
C681 C683 1.387 . S
H682 C689 0.950 . S
C683 C681 1.387 . S
C683 C685 1.390 . S
C683 H687 0.950 . S
H684 C680 0.950 . S
C685 C683 1.390 . S
C685 C686 1.387 . S
C685 H688 0.935 1_556 S
C686 C685 1.387 . S
C686 C689 1.387 . S
H687 C683 0.950 . S
H688 C685 0.935 1_554 S
C689 C680 1.390 . S
C689 H682 0.950 . S
C689 C686 1.387 . S
C690 C691 1.387 1_455 S
C690 H694 0.950 . S
C690 C699 1.390 . S
C691 C690 1.387 1_655 S
C691 C693 1.387 1_655 S
H692 C699 0.950 . S
C693 C691 1.387 1_455 S
C693 C695 1.390 . S
C693 H697 0.950 . S
H694 C690 0.950 . S
C695 C693 1.390 . S
C695 C696 1.387 . S
C695 H698 0.950 . S
C696 C695 1.387 . S
C696 C699 1.387 . S
H697 C693 0.950 . S
H698 C695 0.950 . S
C699 C690 1.390 . S
C699 H692 0.950 . S
C699 C696 1.387 . S
C700 C701 1.387 . S
C700 H704 0.950 . S
C700 C709 1.390 . S
C701 C700 1.387 . S
C701 C703 1.387 . S
H702 C709 0.950 . S
C703 C701 1.387 . S
C703 C705 1.390 . S
C703 H707 0.950 . S
H704 C700 0.950 . S
C705 C703 1.390 . S
C705 C706 1.387 . S
C705 H708 0.950 . S
C706 C705 1.387 . S
C706 C709 1.387 . S
H707 C703 0.950 . S
H708 C705 0.950 . S
C709 C700 1.390 . S
C709 H702 0.950 . S
C709 C706 1.387 . S
C710 C711 1.387 . S
C710 H714 0.950 . S
C710 C719 1.390 . S
C711 C710 1.387 . S
C711 C713 1.387 1_565 S
H712 C719 0.950 . S
C713 C711 1.387 1_545 S
C713 C715 1.390 . S
C713 H717 0.950 . S
H714 C710 0.950 . S
C715 C713 1.390 . S
C715 C716 1.387 . S
C715 H718 0.950 . S
C716 C715 1.387 . S
C716 C719 1.387 1_545 S
H717 C713 0.950 . S
H718 C715 0.950 . S
C719 C710 1.390 . S
C719 H712 0.950 . S
C719 C716 1.387 1_565 S
C720 C721 1.387 . S
C720 H724 0.950 . S
C720 C729 1.390 . S
C721 C720 1.387 . S
C721 C723 1.387 . S
H722 C729 0.950 . S
C723 C721 1.387 . S
C723 C725 1.390 . S
C723 H727 0.950 . S
H724 C720 0.950 . S
C725 C723 1.390 . S
C725 C726 1.387 . S
C725 H728 0.950 . S
C726 C725 1.387 . S
C726 C729 1.387 . S
H727 C723 0.950 . S
H728 C725 0.950 . S
C729 C720 1.390 . S
C729 H722 0.950 . S
C729 C726 1.387 . S
C730 C731 1.387 . S
C730 H734 0.950 . S
C730 C739 1.390 . S
C731 C730 1.387 . S
C731 C733 1.387 . S
H732 C739 0.950 . S
C733 C731 1.387 . S
C733 C735 1.390 . S
C733 H737 0.950 . S
H734 C730 0.950 . S
C735 C733 1.390 . S
C735 C736 1.387 . S
C735 H738 0.950 . S
C736 C735 1.387 . S
C736 C739 1.387 . S
H737 C733 0.950 . S
H738 C735 0.950 . S
C739 C730 1.390 . S
C739 H732 0.950 . S
C739 C736 1.387 . S
C740 C741 1.387 . S
C740 H744 0.950 . S
C740 C749 1.390 . S
C741 C740 1.387 . S
C741 C743 1.387 . S
H742 C749 0.950 . S
C743 C741 1.387 . S
C743 C745 1.390 . S
C743 H747 0.950 . S
H744 C740 0.950 . S
C745 C743 1.390 . S
C745 C746 1.387 . S
C745 H748 0.950 . S
C746 C745 1.387 . S
C746 C749 1.387 . S
H747 C743 0.950 . S
H748 C745 0.950 . S
C749 C740 1.390 . S
C749 H742 0.950 . S
C749 C746 1.387 . S
C750 C751 1.387 . S
C750 H754 0.950 . S
C750 C759 1.390 . S
C751 C750 1.387 . S
C751 C753 1.387 . S
H752 C759 0.950 . S
C753 C751 1.387 . S
C753 C755 1.390 . S
C753 H757 0.950 . S
H754 C750 0.950 . S
C755 C753 1.390 . S
C755 C756 1.387 . S
C755 H758 0.950 . S
C756 C755 1.387 . S
C756 C759 1.387 . S
H757 C753 0.950 . S
H758 C755 0.950 . S
C759 C750 1.390 . S
C759 H752 0.950 . S
C759 C756 1.387 . S
C760 C761 1.387 . S
C760 H764 0.950 . S
C760 C769 1.390 . S
C761 C760 1.387 . S
C761 C763 1.387 . S
H762 C769 0.950 . S
C763 C761 1.387 . S
C763 C765 1.390 . S
C763 H767 0.950 . S
H764 C760 0.950 . S
C765 C763 1.390 . S
C765 C766 1.387 . S
C765 H768 0.950 . S
C766 C765 1.387 . S
C766 C769 1.387 . S
H767 C763 0.950 . S
H768 C765 0.950 . S
C769 C760 1.390 . S
C769 H762 0.950 . S
C769 C766 1.387 . S
C770 C771 1.387 . S
C770 H774 0.950 . S
C770 C779 1.390 . S
C771 C770 1.387 . S
C771 C773 1.387 . S
H772 C779 0.950 . S
C773 C771 1.387 . S
C773 C775 1.390 . S
C773 H777 0.950 . S
H774 C770 0.950 . S
C775 C773 1.390 . S
C775 C776 1.387 . S
C775 H778 0.950 . S
C776 C775 1.387 . S
C776 C779 1.387 . S
H777 C773 0.950 . S
H778 C775 0.950 . S
C779 C770 1.390 . S
C779 H772 0.950 . S
C779 C776 1.387 . S
C780 C781 1.387 . S
C780 H784 0.950 . S
C780 C789 1.390 . S
C781 C780 1.387 . S
C781 C783 1.387 . S
H782 C789 0.950 . S
C783 C781 1.387 . S
C783 C785 1.390 . S
C783 H787 0.950 . S
H784 C780 0.950 . S
C785 C783 1.390 . S
C785 C786 1.387 . S
C785 H788 0.950 . S
C786 C785 1.387 . S
C786 C789 1.387 . S
H787 C783 0.950 . S
H788 C785 0.950 . S
C789 C780 1.390 . S
C789 H782 0.950 . S
C789 C786 1.387 . S
C790 C791 1.387 . S
C790 H794 0.950 . S
C790 C799 1.390 . S
C791 C790 1.387 . S
C791 C793 1.387 . S
H792 C799 0.950 . S
C793 C791 1.387 . S
C793 C795 1.390 . S
C793 H797 0.950 . S
H794 C790 0.950 . S
C795 C793 1.390 . S
C795 C796 1.387 . S
C795 H798 0.950 . S
C796 C795 1.387 . S
C796 C799 1.387 . S
H797 C793 0.950 . S
H798 C795 0.950 . S
C799 C790 1.390 . S
C799 H792 0.950 . S
C799 C796 1.387 . S
C800 C801 1.387 . S
C800 H804 0.950 . S
C800 C809 1.390 . S
C801 C800 1.387 . S
C801 C803 1.387 . S
H802 C809 0.950 . S
C803 C801 1.387 . S
C803 C805 1.390 . S
C803 H807 0.950 . S
H804 C800 0.950 . S
C805 C803 1.390 . S
C805 C806 1.387 . S
C805 H808 0.950 . S
C806 C805 1.387 . S
C806 C809 1.387 . S
H807 C803 0.950 . S
H808 C805 0.950 . S
C809 C800 1.390 . S
C809 H802 0.950 . S
C809 C806 1.387 . S
C810 C811 1.387 . S
C810 H814 0.950 . S
C810 C819 1.390 . S
C811 C810 1.387 . S
C811 C813 1.387 . S
H812 C819 0.950 . S
C813 C811 1.387 . S
C813 C815 1.390 . S
C813 H817 0.950 . S
H814 C810 0.950 . S
C815 C813 1.390 . S
C815 C816 1.387 . S
C815 H818 0.950 . S
C816 C815 1.387 . S
C816 C819 1.387 . S
H817 C813 0.950 . S
H818 C815 0.950 . S
C819 C810 1.390 . S
C819 H812 0.950 . S
C819 C816 1.387 . S
C820 C821 1.387 . S
C820 H824 0.950 . S
C820 C829 1.390 . S
C821 C820 1.387 . S
C821 C823 1.387 . S
H822 C829 0.950 . S
C823 C821 1.387 . S
C823 C825 1.390 . S
C823 H827 0.950 . S
H824 C820 0.950 . S
C825 C823 1.390 . S
C825 C826 1.387 . S
C825 H828 0.950 . S
C826 C825 1.387 . S
C826 C829 1.387 . S
H827 C823 0.950 . S
H828 C825 0.950 . S
C829 C820 1.390 . S
C829 H822 0.950 . S
C829 C826 1.387 . S
C830 C831 1.387 . S
C830 H834 0.950 . S
C830 C839 1.390 . S
C831 C830 1.387 . S
C831 C833 1.387 . S
H832 C839 0.950 . S
C833 C831 1.387 . S
C833 C835 1.390 . S
C833 H837 0.950 . S
H834 C830 0.950 . S
C835 C833 1.390 . S
C835 C836 1.387 . S
C835 H838 0.950 . S
C836 C835 1.387 . S
C836 C839 1.387 . S
H837 C833 0.950 . S
H838 C835 0.950 . S
C839 C830 1.390 . S
C839 H832 0.950 . S
C839 C836 1.387 . S
C840 C841 1.387 . S
C840 H844 0.950 . S
C840 C849 1.390 . S
C841 C840 1.387 . S
C841 C843 1.387 . S
H842 C849 0.950 . S
C843 C841 1.387 . S
C843 C845 1.390 . S
C843 H847 0.950 . S
H844 C840 0.950 . S
C845 C843 1.390 . S
C845 C846 1.387 . S
C845 H848 0.950 . S
C846 C845 1.387 . S
C846 C849 1.387 . S
H847 C843 0.950 . S
H848 C845 0.950 . S
C849 C840 1.390 . S
C849 H842 0.950 . S
C849 C846 1.387 . S
C850 C851 1.387 . S
C850 H854 0.950 . S
C850 C859 1.390 . S
C851 C850 1.387 . S
C851 C853 1.387 . S
H852 C859 0.950 . S
C853 C851 1.387 . S
C853 C855 1.390 . S
C853 H857 0.950 . S
H854 C850 0.950 . S
C855 C853 1.390 . S
C855 C856 1.387 . S
C855 H858 0.950 . S
C856 C855 1.387 . S
C856 C859 1.387 . S
H857 C853 0.950 . S
H858 C855 0.950 . S
C859 C850 1.390 . S
C859 H852 0.950 . S
C859 C856 1.387 . S
C860 C861 1.387 1_565 S
C860 H864 0.950 . S
C860 C869 1.390 . S
C861 C860 1.387 1_545 S
C861 C863 1.387 . S
H862 C869 0.950 . S
C863 C861 1.387 . S
C863 C865 1.390 1_546 S
C863 H867 0.950 1_556 S
H864 C860 0.950 . S
C865 C863 1.390 1_564 S
C865 C866 1.387 . S
C865 H868 0.956 . S
C866 C865 1.387 . S
C866 C869 1.387 1_554 S
H867 C863 0.950 1_554 S
H868 C865 0.956 . S
C869 C860 1.390 . S
C869 H862 0.950 . S
C869 C866 1.387 1_556 S
C870 C871 1.387 . S
C870 H874 0.950 . S
C870 C879 1.390 . S
C871 C870 1.387 . S
C871 C873 1.387 . S
H872 C879 0.950 . S
C873 C871 1.387 . S
C873 C875 1.390 . S
C873 H877 0.950 . S
H874 C870 0.950 . S
C875 C873 1.390 . S
C875 C876 1.387 . S
C875 H878 0.950 . S
C876 C875 1.387 . S
C876 C879 1.387 . S
H877 C873 0.950 . S
H878 C875 0.950 . S
C879 C870 1.390 . S
C879 H872 0.950 . S
C879 C876 1.387 . S
C880 C881 1.387 . S
C880 H884 0.950 . S
C880 C889 1.390 . S
C881 C880 1.387 . S
C881 C883 1.387 . S
H882 C889 0.950 . S
C883 C881 1.387 . S
C883 C885 1.390 . S
C883 H887 0.950 . S
H884 C880 0.950 . S
C885 C883 1.390 . S
C885 C886 1.387 . S
C885 H888 0.950 . S
C886 C885 1.387 . S
C886 C889 1.387 . S
H887 C883 0.950 . S
H888 C885 0.950 . S
C889 C880 1.390 . S
C889 H882 0.950 . S
C889 C886 1.387 . S
C890 C891 1.387 . S
C890 H894 0.950 . S
C890 C899 1.390 . S
C891 C890 1.387 . S
C891 C893 1.387 . S
H892 C899 0.950 . S
C893 C891 1.387 . S
C893 C895 1.390 . S
C893 H897 0.950 . S
H894 C890 0.950 . S
C895 C893 1.390 . S
C895 C896 1.387 . S
C895 H898 0.950 . S
C896 C895 1.387 . S
C896 C899 1.387 . S
H897 C893 0.950 . S
H898 C895 0.950 . S
C899 C890 1.390 . S
C899 H892 0.950 . S
C899 C896 1.387 . S
C900 C901 1.387 . S
C900 H904 0.950 1_545 S
C900 C909 1.390 . S
C901 C900 1.387 . S
C901 C903 1.387 . S
H902 C909 0.950 . S
C903 C901 1.387 . S
C903 C905 1.390 . S
C903 H907 0.950 . S
H904 C900 0.950 1_565 S
C905 C903 1.390 . S
C905 C906 1.387 . S
C905 H908 0.950 . S
C906 C905 1.387 . S
C906 C909 1.387 . S
H907 C903 0.950 . S
H908 C905 0.950 . S
C909 C900 1.390 . S
C909 H902 0.950 . S
C909 C906 1.387 . S
C910 C911 1.387 . S
C910 H914 0.950 . S
C910 C919 1.390 . S
C911 C910 1.387 . S
C911 C913 1.387 . S
H912 C919 0.950 . S
C913 C911 1.387 . S
C913 C915 1.390 . S
C913 H917 0.950 . S
H914 C910 0.950 . S
C915 C913 1.390 . S
C915 C916 1.387 . S
C915 H918 0.950 . S
C916 C915 1.387 . S
C916 C919 1.387 . S
H917 C913 0.950 . S
H918 C915 0.950 . S
C919 C910 1.390 . S
C919 H912 0.950 . S
C919 C916 1.387 . S
C920 C921 1.387 . S
C920 H924 0.950 . S
C920 C929 1.390 . S
C921 C920 1.387 . S
C921 C923 1.387 . S
H922 C929 0.950 . S
C923 C921 1.387 . S
C923 C925 1.390 . S
C923 H927 0.950 . S
H924 C920 0.950 . S
C925 C923 1.390 . S
C925 C926 1.387 . S
C925 H928 0.950 . S
C926 C925 1.387 . S
C926 C929 1.387 . S
H927 C923 0.950 . S
H928 C925 0.950 . S
C929 C920 1.390 . S
C929 H922 0.950 . S
C929 C926 1.387 . S
C930 C931 1.387 . S
C930 H934 0.950 . S
C930 C939 1.390 . S
C931 C930 1.387 . S
C931 C933 1.387 . S
H932 C939 0.950 . S
C933 C931 1.387 . S
C933 C935 1.390 . S
C933 H937 0.950 . S
H934 C930 0.950 . S
C935 C933 1.390 . S
C935 C936 1.387 . S
C935 H938 0.950 . S
C936 C935 1.387 . S
C936 C939 1.387 . S
H937 C933 0.950 . S
H938 C935 0.950 . S
C939 C930 1.390 . S
C939 H932 0.950 . S
C939 C936 1.387 . S
C940 C941 1.387 . S
C940 H944 0.950 . S
C940 C949 1.390 . S
C941 C940 1.387 . S
C941 C943 1.387 . S
H942 C949 0.950 . S
C943 C941 1.387 . S
C943 C945 1.390 . S
C943 H947 0.950 . S
H944 C940 0.950 . S
C945 C943 1.390 . S
C945 C946 1.387 . S
C945 H948 0.950 . S
C946 C945 1.387 . S
C946 C949 1.387 . S
H947 C943 0.950 . S
H948 C945 0.950 . S
C949 C940 1.390 . S
C949 H942 0.950 . S
C949 C946 1.387 . S
C950 C951 1.387 . S
C950 H954 0.950 . S
C950 C959 1.390 . S
C951 C950 1.387 . S
C951 C953 1.387 . S
H952 C959 0.950 . S
C953 C951 1.387 . S
C953 C955 1.390 . S
C953 H957 0.950 . S
H954 C950 0.950 . S
C955 C953 1.390 . S
C955 C956 1.387 . S
C955 H958 0.950 . S
C956 C955 1.387 . S
C956 C959 1.387 . S
H957 C953 0.950 . S
H958 C955 0.950 . S
C959 C950 1.390 . S
C959 H952 0.950 . S
C959 C956 1.387 . S
C960 C961 1.387 . S
C960 H964 0.950 . S
C960 C969 1.390 . S
C961 C960 1.387 . S
C961 C963 1.387 . S
H962 C969 0.950 . S
C963 C961 1.387 . S
C963 C965 1.390 . S
C963 H967 0.950 . S
H964 C960 0.950 . S
C965 C963 1.390 . S
C965 C966 1.387 . S
C965 H968 0.950 . S
C966 C965 1.387 . S
C966 C969 1.387 . S
H967 C963 0.950 . S
H968 C965 0.950 . S
C969 C960 1.390 . S
C969 H962 0.950 . S
C969 C966 1.387 . S
C970 C971 1.387 . S
C970 H974 0.950 . S
C970 C979 1.390 1_455 S
C971 C970 1.387 . S
C971 C973 1.387 . S
H972 C979 0.950 . S
C973 C971 1.387 . S
C973 C975 1.390 1_455 S
C973 H977 0.950 . S
H974 C970 0.950 . S
C975 C973 1.390 1_655 S
C975 C976 1.387 . S
C975 H978 0.950 . S
C976 C975 1.387 . S
C976 C979 1.387 . S
H977 C973 0.950 . S
H978 C975 0.950 . S
C979 C970 1.390 1_655 S
C979 H972 0.950 . S
C979 C976 1.387 . S
C980 C981 1.387 . S
C980 H984 0.950 . S
C980 C989 1.390 . S
C981 C980 1.387 . S
C981 C983 1.387 . S
H982 C989 0.950 . S
C983 C981 1.387 . S
C983 C985 1.390 . S
C983 H987 0.950 . S
H984 C980 0.950 . S
C985 C983 1.390 . S
C985 C986 1.387 . S
C985 H988 0.950 . S
C986 C985 1.387 . S
C986 C989 1.387 . S
H987 C983 0.950 . S
H988 C985 0.950 . S
C989 C980 1.390 . S
C989 H982 0.950 . S
C989 C986 1.387 . S
C990 C991 1.387 . S
C990 H994 0.950 . S
C990 C999 1.390 1_655 S
C991 C990 1.387 . S
C991 C993 1.387 . S
H992 C999 0.950 . S
C993 C991 1.387 . S
C993 C995 1.390 1_655 S
C993 H997 0.950 . S
H994 C990 0.950 . S
C995 C993 1.390 1_455 S
C995 C996 1.387 . S
C995 H998 0.950 . S
C996 C995 1.387 . S
C996 C999 1.387 . S
H997 C993 0.950 . S
H998 C995 0.950 . S
C999 C990 1.390 1_455 S
C999 H992 0.950 . S
C999 C996 1.387 . S
C1000 C1001 1.387 . S
C1000 H1004 0.950 . S
C1000 C1009 1.390 . S
C1001 C1000 1.387 . S
C1001 C1003 1.387 . S
H1002 C1009 0.950 . S
C1003 C1001 1.387 . S
C1003 C1005 1.390 . S
C1003 H1007 0.950 . S
H1004 C1000 0.950 . S
C1005 C1003 1.390 . S
C1005 C1006 1.387 . S
C1005 H1008 0.950 . S
C1006 C1005 1.387 . S
C1006 C1009 1.387 . S
H1007 C1003 0.950 . S
H1008 C1005 0.950 . S
C1009 C1000 1.390 . S
C1009 H1002 0.950 . S
C1009 C1006 1.387 . S
C1010 C1011 1.387 1_556 S
C1010 H1014 0.950 1_556 S
C1010 C1019 1.390 . S
C1011 C1010 1.387 1_554 S
C1011 C1013 1.387 . S
H1012 C1019 0.950 . S
C1013 C1011 1.387 . S
C1013 C1015 1.390 1_554 S
C1013 H1017 0.950 . S
H1014 C1010 0.950 1_554 S
C1015 C1013 1.390 1_556 S
C1015 C1016 1.387 . S
C1015 H1018 0.950 . S
C1016 C1015 1.387 . S
C1016 C1019 1.387 . S
H1017 C1013 0.950 . S
H1018 C1015 0.950 . S
C1019 C1010 1.390 . S
C1019 H1012 0.950 . S
C1019 C1016 1.387 . S
C1020 C1021 1.387 . S
C1020 H1024 0.950 . S
C1020 C1029 1.390 . S
C1021 C1020 1.387 . S
C1021 C1023 1.387 . S
H1022 C1029 0.950 . S
C1023 C1021 1.387 . S
C1023 C1025 1.390 . S
C1023 H1027 0.950 . S
H1024 C1020 0.950 . S
C1025 C1023 1.390 . S
C1025 C1026 1.387 . S
C1025 H1028 0.950 . S
C1026 C1025 1.387 . S
C1026 C1029 1.387 . S
H1027 C1023 0.950 . S
H1028 C1025 0.950 . S
C1029 C1020 1.390 . S
C1029 H1022 0.950 . S
C1029 C1026 1.387 . S
C1030 C1031 1.387 . S
C1030 H1034 0.950 . S
C1030 C1039 1.390 1_554 S
C1031 C1030 1.387 . S
C1031 C1033 1.387 . S
H1032 C1039 0.950 . S
C1033 C1031 1.387 . S
C1033 C1035 1.390 . S
C1033 H1037 0.950 . S
H1034 C1030 0.950 . S
C1035 C1033 1.390 . S
C1035 C1036 1.387 1_554 S
C1035 H1038 0.950 . S
C1036 C1035 1.387 1_556 S
C1036 C1039 1.387 . S
H1037 C1033 0.950 . S
H1038 C1035 0.950 . S
C1039 C1030 1.390 1_556 S
C1039 H1032 0.950 . S
C1039 C1036 1.387 . S
C1040 C1041 1.387 . S
C1040 H1044 0.950 . S
C1040 C1049 1.390 . S
C1041 C1040 1.387 . S
C1041 C1043 1.387 . S
H1042 C1049 0.950 . S
C1043 C1041 1.387 . S
C1043 C1045 1.390 . S
C1043 H1047 0.950 . S
H1044 C1040 0.950 . S
C1045 C1043 1.390 . S
C1045 C1046 1.387 . S
C1045 H1048 0.950 . S
C1046 C1045 1.387 . S
C1046 C1049 1.387 . S
H1047 C1043 0.950 . S
H1048 C1045 0.950 . S
C1049 C1040 1.390 . S
C1049 H1042 0.950 . S
C1049 C1046 1.387 . S
C1050 C1051 1.385 1_554 S
C1050 H1054 0.950 1_554 S
C1050 C1059 1.390 . S
C1051 C1050 1.385 1_556 S
C1051 C1053 1.379 1_556 S
H1052 C1059 0.950 . S
C1053 C1051 1.379 1_554 S
C1053 C1055 1.390 . S
C1053 H1057 0.950 . S
H1054 C1050 0.950 1_556 S
C1055 C1053 1.390 . S
C1055 C1056 1.387 . S
C1055 H1058 0.950 . S
C1056 C1055 1.387 . S
C1056 C1059 1.387 . S
H1057 C1053 0.950 . S
H1058 C1055 0.950 . S
C1059 C1050 1.390 . S
C1059 H1052 0.950 . S
C1059 C1056 1.387 . S
C1060 C1061 1.387 . S
C1060 H1064 0.950 . S
C1060 C1069 1.390 . S
C1061 C1060 1.387 . S
C1061 C1063 1.387 . S
H1062 C1069 0.950 . S
C1063 C1061 1.387 . S
C1063 C1065 1.390 . S
C1063 H1067 0.950 . S
H1064 C1060 0.950 . S
C1065 C1063 1.390 . S
C1065 C1066 1.387 . S
C1065 H1068 0.950 . S
C1066 C1065 1.387 . S
C1066 C1069 1.387 . S
H1067 C1063 0.950 . S
H1068 C1065 0.950 . S
C1069 C1060 1.390 . S
C1069 H1062 0.950 . S
C1069 C1066 1.387 . S
C1070 C1071 1.387 . S
C1070 H1074 0.950 . S
C1070 C1079 1.390 . S
C1071 C1070 1.387 . S
C1071 C1073 1.387 . S
H1072 C1079 0.950 . S
C1073 C1071 1.387 . S
C1073 C1075 1.390 . S
C1073 H1077 0.950 . S
H1074 C1070 0.950 . S
C1075 C1073 1.390 . S
C1075 C1076 1.387 . S
C1075 H1078 0.950 . S
C1076 C1075 1.387 . S
C1076 C1079 1.387 . S
H1077 C1073 0.950 . S
H1078 C1075 0.950 . S
C1079 C1070 1.390 . S
C1079 H1072 0.950 . S
C1079 C1076 1.387 . S
C1080 C1081 1.387 . S
C1080 H1084 0.950 . S
C1080 C1089 1.390 . S
C1081 C1080 1.387 . S
C1081 C1083 1.387 . S
H1082 C1089 0.950 . S
C1083 C1081 1.387 . S
C1083 C1085 1.390 . S
C1083 H1087 0.950 . S
H1084 C1080 0.950 . S
C1085 C1083 1.390 . S
C1085 C1086 1.387 . S
C1085 H1088 0.950 . S
C1086 C1085 1.387 . S
C1086 C1089 1.387 . S
H1087 C1083 0.950 . S
H1088 C1085 0.950 . S
C1089 C1080 1.390 . S
C1089 H1082 0.950 . S
C1089 C1086 1.387 . S
C1090 C1091 1.387 . S
C1090 H1094 0.950 . S
C1090 C1099 1.390 . S
C1091 C1090 1.387 . S
C1091 C1093 1.387 . S
H1092 C1099 0.950 . S
C1093 C1091 1.387 . S
C1093 C1095 1.390 . S
C1093 H1097 0.950 . S
H1094 C1090 0.950 . S
C1095 C1093 1.390 . S
C1095 C1096 1.387 . S
C1095 H1098 0.950 . S
C1096 C1095 1.387 . S
C1096 C1099 1.387 . S
H1097 C1093 0.950 . S
H1098 C1095 0.950 . S
C1099 C1090 1.390 . S
C1099 H1092 0.950 . S
C1099 C1096 1.387 . S
C1100 C1101 1.387 . S
C1100 H1104 0.950 . S
C1100 C1109 1.390 . S
C1101 C1100 1.387 . S
C1101 C1103 1.387 . S
H1102 C1109 0.950 . S
C1103 C1101 1.387 . S
C1103 C1105 1.390 . S
C1103 H1107 0.950 . S
H1104 C1100 0.950 . S
C1105 C1103 1.390 . S
C1105 C1106 1.387 . S
C1105 H1108 0.950 . S
C1106 C1105 1.387 . S
C1106 C1109 1.387 . S
H1107 C1103 0.950 . S
H1108 C1105 0.950 . S
C1109 C1100 1.390 . S
C1109 H1102 0.950 . S
C1109 C1106 1.387 . S
C1110 C1111 1.387 . S
C1110 H1114 0.950 . S
C1110 C1119 1.390 . S
C1111 C1110 1.387 . S
C1111 C1113 1.387 . S
H1112 C1119 0.950 . S
C1113 C1111 1.387 . S
C1113 C1115 1.390 . S
C1113 H1117 0.950 . S
H1114 C1110 0.950 . S
C1115 C1113 1.390 . S
C1115 C1116 1.387 . S
C1115 H1118 0.950 . S
C1116 C1115 1.387 . S
C1116 C1119 1.387 . S
H1117 C1113 0.950 . S
H1118 C1115 0.950 . S
C1119 C1110 1.390 . S
C1119 H1112 0.950 . S
C1119 C1116 1.387 . S
C1120 C1121 1.387 . S
C1120 H1124 0.950 . S
C1120 C1129 1.390 . S
C1121 C1120 1.387 . S
C1121 C1123 1.387 . S
H1122 C1129 0.950 . S
C1123 C1121 1.387 . S
C1123 C1125 1.390 . S
C1123 H1127 0.950 . S
H1124 C1120 0.950 . S
C1125 C1123 1.390 . S
C1125 C1126 1.387 . S
C1125 H1128 0.950 1_556 S
C1126 C1125 1.387 . S
C1126 C1129 1.387 . S
H1127 C1123 0.950 . S
H1128 C1125 0.950 1_554 S
C1129 C1120 1.390 . S
C1129 H1122 0.950 . S
C1129 C1126 1.387 . S
C1130 C1131 1.387 . S
C1130 H1134 0.950 . S
C1130 C1139 1.390 . S
C1131 C1130 1.387 . S
C1131 C1133 1.387 . S
H1132 C1139 0.950 . S
C1133 C1131 1.387 . S
C1133 C1135 1.390 . S
C1133 H1137 0.950 . S
H1134 C1130 0.950 . S
C1135 C1133 1.390 . S
C1135 C1136 1.387 . S
C1135 H1138 0.950 . S
C1136 C1135 1.387 . S
C1136 C1139 1.387 . S
H1137 C1133 0.950 . S
H1138 C1135 0.950 . S
C1139 C1130 1.390 . S
C1139 H1132 0.950 . S
C1139 C1136 1.387 . S
C1140 C1141 1.387 . S
C1140 H1144 0.950 . S
C1140 C1149 1.390 . S
C1141 C1140 1.387 . S
C1141 C1143 1.387 . S
H1142 C1149 0.950 . S
C1143 C1141 1.387 . S
C1143 C1145 1.390 . S
C1143 H1147 0.950 . S
H1144 C1140 0.950 . S
C1145 C1143 1.390 . S
C1145 C1146 1.387 . S
C1145 H1148 0.950 . S
C1146 C1145 1.387 . S
C1146 C1149 1.387 . S
H1147 C1143 0.950 . S
H1148 C1145 0.950 . S
C1149 C1140 1.390 . S
C1149 H1142 0.950 . S
C1149 C1146 1.387 . S
C1150 C1151 1.387 . S
C1150 H1154 0.950 . S
C1150 C1159 1.390 . S
C1151 C1150 1.387 . S
C1151 C1153 1.387 . S
H1152 C1159 0.950 . S
C1153 C1151 1.387 . S
C1153 C1155 1.427 . S
C1153 H1157 0.950 . S
H1154 C1150 0.950 . S
C1155 C1153 1.427 . S
C1155 C1156 1.381 1_545 S
C1155 H1158 0.921 1_545 S
C1156 C1155 1.381 1_565 S
C1156 C1159 1.387 1_565 S
H1157 C1153 0.950 . S
H1158 C1155 0.921 1_565 S
C1159 C1150 1.390 . S
C1159 H1152 0.950 . S
C1159 C1156 1.387 1_545 S
C686 C520 1.564 1_556 S
C681 C177 1.520 . S
C696 C535 1.713 . S
C691 C209 1.657 . S
C701 C253 1.566 . S
C706 C548 1.628 . S
C716 C562 1.576 . S
C711 C157 1.683 1_655 S
C726 C574 1.593 . S
C721 C343 1.651 . S
C736 C588 1.445 . S
C731 C401 1.455 . S
C741 C369 1.670 . S
C746 C602 1.682 . S
C756 C617 1.528 . S
C751 C317 1.403 . S
C761 C375 1.583 . S
C766 C633 1.633 . S
C776 C646 1.587 . S
C771 C305 1.498 . S
C781 C349 1.566 . S
C786 C631 1.536 . S
C796 C644 1.622 . S
C791 C413 1.631 . S
C801 C241 1.720 . S
C806 C660 1.759 . S
C811 C151 1.634 . S
C816 C659 1.592 . S
C821 C189 1.652 . S
C826 C658 1.627 . S
C831 C215 1.563 . S
C836 C661 1.614 . S
C841 C113 1.668 . S
C846 C563 1.659 1_565 S
C851 C471 1.465 . S
C856 C561 1.462 . S
C866 C521 1.556 . S
C861 C509 1.482 . S
C876 C532 1.695 . S
C871 C279 1.643 . S
C881 C145 1.645 . S
C886 C577 1.588 . S
C896 C618 1.833 . S
C891 C381 1.783 . S
C906 C575 1.596 . S
C901 C311 1.457 1_545 S
C916 C603 1.604 . S
C911 C407 1.626 . S
C926 C604 1.565 . S
C921 C465 1.521 . S
C931 C497 1.660 . S
C936 C619 1.715 . S
C941 C285 1.566 . S
C946 C576 1.628 . S
C956 C590 1.575 . S
C951 C445 1.683 . S
C961 C119 1.651 . S
C966 C546 1.590 . S
C976 C560 1.446 . S
C971 C17 1.455 . S
C986 C518 1.682 . S
C981 C49 1.672 . S
C996 C533 1.528 . S
C991 C93 1.403 . S
C1001 C55 1.586 . S
C1006 C647 1.633 . S
C1011 C81 1.500 . S
C1016 C632 1.588 . S
C1021 C125 1.566 . S
C1026 C645 1.536 . S
C1031 C29 1.631 . S
C1036 C630 1.622 . S
C1046 C674 1.760 . S
C1041 C273 1.718 . S
C1056 C673 1.595 . S
C1051 C439 1.646 . S
C1066 C672 1.628 . S
C1061 C477 1.653 . S
C1071 C503 1.562 . S
C1076 C675 1.615 . S
C1081 C337 1.668 . S
C1086 C591 1.659 . S
C1096 C589 1.462 . S
C1091 C183 1.463 . S
C1106 C605 1.557 . S
C1101 C221 1.482 . S
C1116 C616 1.694 . S
C1111 C247 1.640 . S
C1121 C433 1.645 . S
C1126 C549 1.591 . S
C1136 C534 1.832 . S
C1131 C61 1.785 . S
C1141 C87 1.460 . S
C1146 C547 1.595 . S
C1156 C519 1.605 . S
C1151 C23 1.627 . S
