# Generated by pormake.
# Topology zzz, (3,6)-cn, num edge types: 1
# Building blocks:
#     Node 0, Type 0, BuildingBlock: BETDIP_clean_linker_0, # of connection points: 3
#     Node 1, Type 0, BuildingBlock: BETDIP_clean_linker_0, # of connection points: 3
#     Node 2, Type 0, BuildingBlock: BETDIP_clean_linker_0, # of connection points: 3
#     Node 3, Type 0, BuildingBlock: BETDIP_clean_linker_0, # of connection points: 3
#     Node 4, Type 0, BuildingBlock: BETDIP_clean_linker_0, # of connection points: 3
#     Node 5, Type 0, BuildingBlock: BETDIP_clean_linker_0, # of connection points: 3
#     Node 6, Type 0, BuildingBlock: BETDIP_clean_linker_0, # of connection points: 3
#     Node 7, Type 0, BuildingBlock: BETDIP_clean_linker_0, # of connection points: 3
#     Node 8, Type 1, BuildingBlock: CIFDUS_clean_sbu_1, # of connection points: 6
#     Node 9, Type 1, BuildingBlock: CIFDUS_clean_sbu_1, # of connection points: 6
#     Node 10, Type 1, BuildingBlock: CIFDUS_clean_sbu_1, # of connection points: 6
#     Node 11, Type 1, BuildingBlock: CIFDUS_clean_sbu_1, # of connection points: 6
#     Edge 12, Type (0, 1), BuildingBlock: UVAHIK_clean_linker_0, # of connection points: 2
#     Edge 13, Type (0, 1), BuildingBlock: UVAHIK_clean_linker_0, # of connection points: 2
#     Edge 14, Type (0, 1), BuildingBlock: UVAHIK_clean_linker_0, # of connection points: 2
#     Edge 15, Type (0, 1), BuildingBlock: UVAHIK_clean_linker_0, # of connection points: 2
#     Edge 16, Type (0, 1), BuildingBlock: UVAHIK_clean_linker_0, # of connection points: 2
#     Edge 17, Type (0, 1), BuildingBlock: UVAHIK_clean_linker_0, # of connection points: 2
#     Edge 18, Type (0, 1), BuildingBlock: UVAHIK_clean_linker_0, # of connection points: 2
#     Edge 19, Type (0, 1), BuildingBlock: UVAHIK_clean_linker_0, # of connection points: 2
#     Edge 20, Type (0, 1), BuildingBlock: UVAHIK_clean_linker_0, # of connection points: 2
#     Edge 21, Type (0, 1), BuildingBlock: UVAHIK_clean_linker_0, # of connection points: 2
#     Edge 22, Type (0, 1), BuildingBlock: UVAHIK_clean_linker_0, # of connection points: 2
#     Edge 23, Type (0, 1), BuildingBlock: UVAHIK_clean_linker_0, # of connection points: 2
#     Edge 24, Type (0, 1), BuildingBlock: UVAHIK_clean_linker_0, # of connection points: 2
#     Edge 25, Type (0, 1), BuildingBlock: UVAHIK_clean_linker_0, # of connection points: 2
#     Edge 26, Type (0, 1), BuildingBlock: UVAHIK_clean_linker_0, # of connection points: 2
#     Edge 27, Type (0, 1), BuildingBlock: UVAHIK_clean_linker_0, # of connection points: 2
#     Edge 28, Type (0, 1), BuildingBlock: UVAHIK_clean_linker_0, # of connection points: 2
#     Edge 29, Type (0, 1), BuildingBlock: UVAHIK_clean_linker_0, # of connection points: 2
#     Edge 30, Type (0, 1), BuildingBlock: UVAHIK_clean_linker_0, # of connection points: 2
#     Edge 31, Type (0, 1), BuildingBlock: UVAHIK_clean_linker_0, # of connection points: 2
#     Edge 32, Type (0, 1), BuildingBlock: UVAHIK_clean_linker_0, # of connection points: 2
#     Edge 33, Type (0, 1), BuildingBlock: UVAHIK_clean_linker_0, # of connection points: 2
#     Edge 34, Type (0, 1), BuildingBlock: UVAHIK_clean_linker_0, # of connection points: 2
#     Edge 35, Type (0, 1), BuildingBlock: UVAHIK_clean_linker_0, # of connection points: 2
# Relax obj value: 0.143
# Max RMSD: 0.188
# Mean RMSD: 0.106
data_MOF--net-zzz--node1-CIFDUS_clean_sbu_1--node2-BETDIP_clean_linker_0--edge1-UVAHIK_clean_linker_0
_symmetry_space_group_name_H-M    P1
_symmetry_Int_Tables_number       1
_symmetry_cell_setting            triclinic
loop_
_symmetry_equiv_pos_as_xyz
'x, y, z'
_cell_length_a     64.098067
_cell_length_b     64.049257
_cell_length_c     20.433302
_cell_angle_alpha  90.041581
_cell_angle_beta   90.051774
_cell_angle_gamma 89.994066
loop_
_atom_site_label
_atom_site_type_symbol
_atom_site_fract_x
_atom_site_fract_y
_atom_site_fract_z
_atom_type_partial_charge
H0 H 0.76569 0.54311 0.27014 0.0
H1 H 0.781 0.56656 0.07746 0.0
H2 H 0.82801 0.56345 0.22584 0.0
H3 H 0.74775 0.57942 0.08662 0.0
C4 C 0.73958 0.56549 0.10288 0.0
C5 C 0.77681 0.54968 0.23602 0.0
C6 C 0.79768 0.55304 0.25582 0.0
C7 C 0.77027 0.5554 0.17217 0.0
C8 C 0.78525 0.56322 0.12765 0.0
C9 C 0.80594 0.5665 0.14739 0.0
C10 C 0.81182 0.56156 0.21128 0.0
N11 N 0.74891 0.55293 0.15283 0.0
H12 H 0.99292 0.76682 0.26769 0.0
H13 H 0.96509 0.78333 0.08177 0.0
H14 H 0.97214 0.82956 0.23161 0.0
H15 H 0.95286 0.74988 0.09011 0.0
C16 C 0.96703 0.74165 0.10382 0.0
C17 C 0.98556 0.77815 0.23582 0.0
C18 C 0.98304 0.79898 0.25706 0.0
C19 C 0.9783 0.77199 0.17321 0.0
C20 C 0.96959 0.78728 0.13132 0.0
C21 C 0.96702 0.80793 0.15275 0.0
C22 C 0.97352 0.81344 0.21564 0.0
N23 N 0.98037 0.75073 0.1522 0.0
H24 H 0.76611 0.9904 0.27222 0.0
H25 H 0.75005 0.96749 0.07928 0.0
H26 H 0.7035 0.97068 0.2289 0.0
H27 H 0.78326 0.95459 0.08672 0.0
C28 C 0.79159 0.96835 0.10363 0.0
C29 C 0.75483 0.98403 0.23813 0.0
C30 C 0.73399 0.98084 0.25828 0.0
C31 C 0.76113 0.97842 0.17398 0.0
C32 C 0.74596 0.9708 0.12962 0.0
C33 C 0.7253 0.96763 0.14979 0.0
C34 C 0.71964 0.97253 0.2139 0.0
N35 N 0.78246 0.98077 0.15428 0.0
H36 H 0.54156 0.76662 0.27153 0.0
H37 H 0.56554 0.75102 0.0797 0.0
H38 H 0.56186 0.70413 0.22827 0.0
H39 H 0.57902 0.78436 0.09159 0.0
C40 C 0.56483 0.79249 0.10572 0.0
C41 C 0.54816 0.75542 0.23766 0.0
C42 C 0.55143 0.73455 0.25776 0.0
C43 C 0.55406 0.76185 0.17392 0.0
C44 C 0.56199 0.74679 0.12976 0.0
C45 C 0.56515 0.7261 0.14974 0.0
C46 C 0.56001 0.72031 0.21352 0.0
N47 N 0.55172 0.7832 0.15426 0.0
H48 H 0.26514 0.49338 0.16366 0.0
H49 H 0.25303 0.47506 0.3637 0.0
H50 H 0.20473 0.47036 0.21931 0.0
H51 H 0.27575 0.5066 0.37222 0.0
C52 C 0.28802 0.49887 0.34458 0.0
C53 C 0.25476 0.48707 0.20044 0.0
C54 C 0.23405 0.48175 0.18354 0.0
C55 C 0.26183 0.48462 0.26568 0.0
C56 C 0.24792 0.47693 0.3135 0.0
C57 C 0.22747 0.47133 0.29645 0.0
C58 C 0.22085 0.47373 0.23174 0.0
N59 N 0.28284 0.48975 0.28291 0.0
H60 H 0.03706 0.26374 0.1779 0.0
H61 H 0.06385 0.24806 0.36621 0.0
H62 H 0.06208 0.20252 0.21334 0.0
H63 H 0.04066 0.27157 0.40073 0.0
C64 C 0.04249 0.28423 0.36587 0.0
C65 C 0.0448 0.25276 0.2101 0.0
C66 C 0.0497 0.2325 0.18731 0.0
C67 C 0.04974 0.25869 0.27514 0.0
C68 C 0.05959 0.24398 0.31661 0.0
C69 C 0.06417 0.22379 0.29427 0.0
C70 C 0.05933 0.2184 0.22983 0.0
N71 N 0.04488 0.27931 0.298 0.0
H72 H 0.26735 0.0357 0.17436 0.0
H73 H 0.28144 0.06057 0.36618 0.0
H74 H 0.32796 0.06118 0.21557 0.0
H75 H 0.2598 0.03041 0.38878 0.0
C76 C 0.24681 0.03599 0.35929 0.0
C77 C 0.27798 0.04342 0.20775 0.0
C78 C 0.29841 0.04842 0.18714 0.0
C79 C 0.27161 0.04786 0.27262 0.0
C80 C 0.28596 0.05722 0.31619 0.0
C81 C 0.30618 0.06236 0.29543 0.0
C82 C 0.31204 0.05812 0.23094 0.0
N83 N 0.25098 0.04271 0.29396 0.0
H84 H 0.49906 0.27006 0.18363 0.0
H85 H 0.46731 0.28554 0.36427 0.0
H86 H 0.47232 0.33091 0.21156 0.0
H87 H 0.48935 0.26218 0.40495 0.0
C88 C 0.48903 0.24953 0.36956 0.0
C89 C 0.49028 0.28091 0.21356 0.0
C90 C 0.48581 0.30111 0.18968 0.0
C91 C 0.48375 0.27495 0.27709 0.0
C92 C 0.47272 0.28959 0.3158 0.0
C93 C 0.4685 0.30973 0.29224 0.0
C94 C 0.47484 0.31511 0.22912 0.0
N95 N 0.48841 0.25445 0.30131 0.0
O96 O 0.01502 0.04498 0.77193 0.0
Mn97 Mn 0.01549 0.01605 0.72329 0.0
O98 O 0.99107 0.06444 0.71793 0.0
Mn99 Mn 0.98294 0.0449 0.65475 0.0
O100 O 0.01611 0.98703 0.67483 0.0
O101 O 0.04505 0.01127 0.75173 0.0
Mn102 Mn 0.04758 0.98757 0.79428 0.0
O103 O 1.00349 1.00084 0.80535 0.0
O104 O 0.03892 0.96756 0.73332 0.0
O105 O 0.02736 0.03127 0.64115 0.0
O106 O 1.00053 0.04381 0.58263 0.0
O107 O 0.07425 0.99869 0.78553 0.0
O108 O 0.03017 0.98952 0.86648 0.0
C109 C 0.96588 0.01917 0.69751 0.0
C110 C 1.00469 0.06209 0.7633 0.0
C111 C 0.02581 0.9697 0.68633 0.0
C112 C 0.06513 0.01277 0.75033 0.0
C113 C 0.01068 0.99226 0.8575 0.0
C114 C 0.02001 0.04048 0.59026 0.0
O115 O 0.98592 0.02084 0.69482 0.0
O116 O 0.95645 0.03329 0.66334 0.0
O117 O 0.53201 1.00484 0.80209 0.0
Mn118 Mn 0.51652 0.0166 0.72023 0.0
O119 O 0.54516 0.03169 0.85897 0.0
Mn120 Mn 0.54614 0.04881 0.78586 0.0
O121 O 0.50092 0.02828 0.63852 0.0
O122 O 0.51127 0.98691 0.69379 0.0
Mn123 Mn 0.48745 0.98436 0.65206 0.0
O124 O 0.48772 0.01659 0.76999 0.0
O125 O 0.4893 1.00138 0.57889 0.0
O126 O 0.5452 0.01638 0.67017 0.0
O127 O 0.56529 0.04024 0.72229 0.0
O128 O 0.49834 0.9576 0.66211 0.0
O129 O 0.46782 0.99371 0.71303 0.0
C130 C 0.5207 0.06661 0.74536 0.0
C131 C 0.54152 0.01224 0.85234 0.0
C132 C 0.492 0.02092 0.58716 0.0
C133 C 0.51265 0.96683 0.69615 0.0
C134 C 0.47024 0.00707 0.75921 0.0
C135 C 0.56252 0.02645 0.67763 0.0
O136 O 0.52189 0.04645 0.74621 0.0
O137 O 0.53522 0.07556 0.77926 0.0
O138 O 0.52842 0.53297 0.80059 0.0
Mn139 Mn 0.51643 0.51751 0.71894 0.0
O140 O 0.5017 0.54529 0.85984 0.0
Mn141 Mn 0.48407 0.54646 0.78779 0.0
O142 O 0.50441 0.50208 0.63722 0.0
O143 O 0.54588 0.51268 0.69023 0.0
Mn144 Mn 0.54864 0.48888 0.6484 0.0
O145 O 0.51718 0.48862 0.768 0.0
O146 O 0.53108 0.49059 0.5763 0.0
O147 O 0.51586 0.54635 0.66986 0.0
O148 O 0.49225 0.56597 0.72465 0.0
O149 O 0.57526 0.5002 0.65833 0.0
O150 O 0.53999 0.46906 0.70985 0.0
C151 C 0.46681 0.52094 0.74448 0.0
C152 C 0.52117 0.54214 0.85168 0.0
C153 C 0.51159 0.49335 0.58527 0.0
C154 C 0.56592 0.51422 0.69315 0.0
C155 C 0.52694 0.47129 0.75688 0.0
C156 C 0.5057 0.56353 0.67886 0.0
O157 O 0.48688 0.52238 0.74752 0.0
O158 O 0.45751 0.53502 0.77922 0.0
O159 O 0.04363 0.51632 0.77205 0.0
Mn160 Mn 0.01532 0.51673 0.71972 0.0
O161 O 0.0639 0.54065 0.72301 0.0
Mn162 Mn 0.04525 0.54964 0.65852 0.0
O163 O 0.98699 0.51708 0.66735 0.0
O164 O 0.0099 0.48671 0.7436 0.0
Mn165 Mn 0.98547 0.48419 0.78186 0.0
O166 O 0.99919 0.52805 0.80084 0.0
O167 O 0.96672 0.49295 0.7174 0.0
O168 O 0.03168 0.50561 0.63884 0.0
O169 O 0.04498 0.53288 0.58443 0.0
O170 O 0.99647 0.45749 0.77525 0.0
O171 O 0.98587 0.50097 0.85587 0.0
C172 C 0.01912 0.56671 0.69842 0.0
C173 C 0.06093 0.52653 0.76643 0.0
C174 C 0.96969 0.50687 0.67338 0.0
C175 C 0.01117 0.46655 0.74254 0.0
C176 C 0.98944 0.52046 0.85021 0.0
C177 C 0.04167 0.51334 0.5901 0.0
O178 O 0.02071 0.54663 0.69553 0.0
O179 O 0.03386 0.5762 0.66716 0.0
C180 C 0.22326 0.02633 0.45103 0.0
C181 C 0.22567 0.03588 0.3897 0.0
C182 C 0.20416 0.02685 0.48392 0.0
C183 C 0.1471 0.03671 0.46429 0.0
H184 H 0.15018 0.04045 0.65334 0.0
C185 C 0.09219 0.03859 0.71698 0.0
C186 C 0.07725 0.02364 0.69921 0.0
C187 C 0.10807 0.0443 0.67328 0.0
C188 C 0.14879 0.0398 0.60059 0.0
H189 H 0.20963 0.05333 0.31411 0.0
H190 H 0.17605 0.05456 0.37221 0.0
H191 H 0.18182 0.04222 0.58939 0.0
H192 H 0.06697 1.0031 0.62162 0.0
H193 H 0.0948 0.01257 0.54581 0.0
H194 H 0.11387 0.03469 0.47593 0.0
C195 C 0.18901 0.04639 0.39459 0.0
C196 C 0.16716 0.04041 0.56366 0.0
C197 C 0.20826 0.04574 0.36125 0.0
C198 C 0.07797 0.01512 0.63587 0.0
C199 C 0.09404 0.02056 0.59244 0.0
C200 C 0.1286 0.03624 0.50141 0.0
C201 C 0.18677 0.03719 0.457 0.0
C202 C 0.16672 0.03838 0.49504 0.0
C203 C 0.10986 0.03464 0.61139 0.0
C204 C 0.12917 0.03741 0.57037 0.0
H205 H 0.23632 0.0185 0.4741 0.0
H206 H 0.20307 0.01904 0.53078 0.0
H207 H 0.14603 0.03511 0.41165 0.0
H208 H 0.09223 0.04507 0.76598 0.0
H209 H 0.11952 0.05561 0.6894 0.0
C210 C 0.49297 0.2101 0.35775 0.0
C211 C 0.48892 0.22787 0.39624 0.0
C212 C 0.49338 0.19008 0.38647 0.0
C213 C 0.47479 0.16072 0.53206 0.0
H214 H 0.52269 0.12486 0.5051 0.0
C215 C 0.49807 0.09684 0.71734 0.0
C216 C 0.50912 0.07915 0.69656 0.0
C217 C 0.49226 0.11242 0.67273 0.0
C218 C 0.50892 0.13437 0.51237 0.0
H219 H 0.48187 0.23853 0.49434 0.0
H220 H 0.48216 0.20394 0.54366 0.0
H221 H 0.51903 0.15678 0.44082 0.0
H222 H 0.52304 0.064 0.61262 0.0
H223 H 0.51219 0.09067 0.53392 0.0
H224 H 0.46466 0.13856 0.60369 0.0
C225 C 0.48504 0.20528 0.4916 0.0
C226 C 0.50689 0.15277 0.47544 0.0
C227 C 0.48499 0.22515 0.46333 0.0
C228 C 0.5138 0.07707 0.6297 0.0
C229 C 0.50796 0.09264 0.58483 0.0
C230 C 0.4767 0.14225 0.56843 0.0
C231 C 0.48932 0.18745 0.45383 0.0
C232 C 0.49009 0.16647 0.48611 0.0
C233 C 0.49764 0.11089 0.60596 0.0
C234 C 0.4941 0.12905 0.56059 0.0
H235 H 0.49613 0.21168 0.30594 0.0
H236 H 0.49672 0.17666 0.35597 0.0
H237 H 0.46146 0.17072 0.54077 0.0
H238 H 0.49497 0.09923 0.76893 0.0
H239 H 0.48473 0.12629 0.69164 0.0
C240 C 0.32507 0.48502 0.35289 0.0
C241 C 0.30958 0.49936 0.37185 0.0
C242 C 0.34468 0.48494 0.38416 0.0
C243 C 0.38061 0.51842 0.47868 0.0
H244 H 0.40172 0.46759 0.55775 0.0
C245 C 0.43826 0.49772 0.70423 0.0
C246 C 0.45513 0.51098 0.69042 0.0
C247 C 0.4233 0.49316 0.65602 0.0
C248 C 0.39611 0.48188 0.53554 0.0
H249 H 0.30259 0.52497 0.4374 0.0
H250 H 0.33679 0.52533 0.48999 0.0
H251 H 0.37004 0.46644 0.48997 0.0
H252 H 0.46957 0.52994 0.61549 0.0
H253 H 0.44352 0.52205 0.53129 0.0
H254 H 0.40628 0.53399 0.52487 0.0
C255 C 0.33387 0.51405 0.45152 0.0
C256 C 0.37805 0.48119 0.4964 0.0
C257 C 0.31425 0.51383 0.42144 0.0
C258 C 0.4571 0.51913 0.62689 0.0
C259 C 0.442 0.51484 0.57897 0.0
C260 C 0.39879 0.51904 0.51676 0.0
C261 C 0.34929 0.49951 0.43385 0.0
C262 C 0.36982 0.49956 0.46871 0.0
C263 C 0.42455 0.50232 0.59351 0.0
C264 C 0.40658 0.50088 0.54682 0.0
H265 H 0.32186 0.47353 0.31529 0.0
H266 H 0.35625 0.47356 0.3694 0.0
H267 H 0.37476 0.53282 0.45783 0.0
H268 H 0.43601 0.49181 0.75339 0.0
H269 H 0.40997 0.48368 0.6692 0.0
C270 C 0.04567 0.30828 0.46087 0.0
C271 C 0.04308 0.30583 0.39301 0.0
C272 C 0.046 0.3281 0.48952 0.0
C273 C 0.02695 0.38148 0.47082 0.0
H274 H 0.06748 0.39367 0.60659 0.0
C275 C 0.01991 0.45667 0.62751 0.0
C276 C 0.02334 0.45409 0.69495 0.0
C277 C 0.0261 0.44118 0.58278 0.0
C278 C 0.05591 0.39055 0.56919 0.0
H279 H 0.03864 0.32243 0.30174 0.0
H280 H 0.03866 0.3574 0.3524 0.0
H281 H 0.07045 0.36155 0.54323 0.0
H282 H 0.03575 0.43327 0.76839 0.0
H283 H 0.04653 0.40634 0.69144 0.0
H284 H 0.01175 0.40989 0.49879 0.0
C285 C 0.04069 0.34379 0.3832 0.0
C286 C 0.0577 0.37212 0.53257 0.0
C287 C 0.04074 0.32381 0.35415 0.0
C288 C 0.0336 0.43602 0.7165 0.0
C289 C 0.03973 0.42052 0.67204 0.0
C290 C 0.025 0.39984 0.50802 0.0
C291 C 0.04342 0.34615 0.45133 0.0
C292 C 0.04299 0.36709 0.4839 0.0
C293 C 0.03551 0.42252 0.60458 0.0
C294 C 0.03918 0.40444 0.55894 0.0
H295 H 0.04746 0.29474 0.49215 0.0
H296 H 0.04783 0.32926 0.54211 0.0
H297 H 0.01527 0.37803 0.43404 0.0
H298 H 0.01125 0.47003 0.60965 0.0
H299 H 0.02279 0.44353 0.53135 0.0
C300 C 0.81808 0.96082 0.01787 0.0
C301 C 0.81198 0.97303 0.07168 0.0
C302 C 0.83689 0.96458 0.9853 0.0
C303 C 0.87814 1.005 0.96067 0.0
H304 H 0.90699 0.95876 0.87783 0.0
C305 C 0.95464 0.01698 0.81365 0.0
C306 C 0.95428 0.00849 0.7502 0.0
C307 C 0.93962 0.01115 0.86012 0.0
C308 C 0.89911 0.97184 0.90059 0.0
H309 H 0.82109 0.99881 0.13402 0.0
H310 H 0.85437 1.00519 0.0781 0.0
H311 H 0.8766 0.95201 0.94636 0.0
H312 H 0.93801 0.98729 0.68561 0.0
H313 H 0.91228 0.97634 0.76745 0.0
H314 H 0.9009 0.02476 0.91492 0.0
C315 C 0.84436 0.99284 0.06015 0.0
C316 C 0.88155 0.96803 0.93974 0.0
C317 C 0.82531 0.98915 0.09259 0.0
C318 C 0.93905 0.99353 0.73479 0.0
C319 C 0.92425 0.98739 0.78161 0.0
C320 C 0.89588 0.00878 0.92212 0.0
C321 C 0.85045 0.98058 0.00584 0.0
C322 C 0.87045 0.98458 0.96928 0.0
C323 C 0.92393 0.99661 0.84424 0.0
C324 C 0.90636 0.99229 0.89053 0.0
H325 H 0.8081 0.94837 0.00022 0.0
H326 H 0.84054 0.95508 0.94299 0.0
H327 H 0.87005 0.01824 0.98167 0.0
H328 H 0.96583 0.02903 0.82616 0.0
H329 H 0.93991 0.01845 0.90792 0.0
C330 C 0.57261 0.81807 0.01757 0.0
C331 C 0.56002 0.81239 0.07094 0.0
C332 C 0.56862 0.83625 0.98186 0.0
C333 C 0.54395 0.88811 0.98663 0.0
H334 H 0.54383 0.88248 0.79777 0.0
C335 C 0.51605 0.95433 0.81084 0.0
C336 C 0.52398 0.95489 0.74679 0.0
C337 C 0.52226 0.93863 0.8547 0.0
C338 C 0.54424 0.8846 0.8503 0.0
H339 H 0.5335 0.82175 0.12968 0.0
H340 H 0.52662 0.85399 0.06738 0.0
H341 H 0.55015 0.85206 0.86568 0.0
H342 H 0.54501 0.93993 0.67889 0.0
H343 H 0.55694 0.91337 0.75609 0.0
H344 H 0.53842 0.92079 0.97122 0.0
C345 C 0.53959 0.84414 0.0532 0.0
C346 C 0.54769 0.86699 0.88941 0.0
C347 C 0.54345 0.82565 0.08868 0.0
C348 C 0.53899 0.9401 0.72841 0.0
C349 C 0.54548 0.92461 0.77251 0.0
C350 C 0.54074 0.90588 0.94736 0.0
C351 C 0.55202 0.84951 -0.00122 0.0
C352 C 0.54762 0.86845 0.95806 0.0
C353 C 0.53657 0.92306 0.83551 0.0
C354 C 0.54085 0.90442 0.8784 0.0
H355 H 0.58555 0.80825 0.00279 0.0
H356 H 0.57866 0.83998 0.94088 0.0
H357 H 0.54399 0.88983 0.03936 0.0
H358 H 0.50398 0.96521 0.82559 0.0
H359 H 0.51483 0.93804 0.9022 0.0
C360 C 0.71317 0.5729 0.01669 0.0
C361 C 0.71927 0.56067 0.07045 0.0
C362 C 0.69443 0.56906 0.98372 0.0
C363 C 0.65331 0.52849 0.95814 0.0
H364 H 0.62456 0.57466 0.87465 0.0
C365 C 0.57693 0.51661 0.80965 0.0
C366 C 0.57758 0.52485 0.74595 0.0
C367 C 0.59188 0.52246 0.85645 0.0
C368 C 0.6324 0.5616 0.89762 0.0
H369 H 0.71025 0.53478 0.13227 0.0
H370 H 0.67706 0.52827 0.0757 0.0
H371 H 0.6548 0.58148 0.94392 0.0
H372 H 0.59422 0.54569 0.6813 0.0
H373 H 0.61981 0.55668 0.76372 0.0
H374 H 0.63063 0.50869 0.91194 0.0
C375 C 0.68703 0.54069 0.05807 0.0
C376 C 0.64989 0.56545 0.93717 0.0
C377 C 0.70603 0.54446 0.09089 0.0
C378 C 0.59299 0.53961 0.73061 0.0
C379 C 0.6077 0.54578 0.77776 0.0
C380 C 0.63563 0.52467 0.91925 0.0
C381 C 0.68092 0.55297 0.00383 0.0
C382 C 0.66097 0.54892 0.96691 0.0
C383 C 0.60774 0.53679 0.84067 0.0
C384 C 0.6252 0.54114 0.88742 0.0
H385 H 0.7231 0.58542 -0.00061 0.0
H386 H 0.69079 0.57857 0.94146 0.0
H387 H 0.66139 0.51527 0.97929 0.0
H388 H 0.56557 0.50474 0.82214 0.0
H389 H 0.59138 0.51533 0.90446 0.0
C390 C 0.95889 0.71609 0.01568 0.0
C391 C 0.97154 0.72166 0.06912 0.0
C392 C 0.96262 0.69779 0.98023 0.0
C393 C 0.98651 0.64558 0.98629 0.0
H394 H 0.9871 0.65076 0.79734 0.0
C395 C 0.01473 0.57895 0.81286 0.0
C396 C 0.0072 0.57835 0.74831 0.0
C397 C 0.00826 0.59467 0.85627 0.0
C398 C 0.98654 0.64876 0.8499 0.0
H399 H 0.99789 0.71199 0.12825 0.0
H400 H 1.00429 0.67955 0.06646 0.0
H401 H 0.98093 0.6814 0.86451 0.0
H402 H 0.98655 0.59324 0.67906 0.0
H403 H 0.97413 0.61983 0.75547 0.0
H404 H 0.99175 0.61281 0.97168 0.0
C405 C 0.99148 0.68957 0.052 0.0
C406 C 0.98318 0.6665 0.88857 0.0
C407 C 0.9879 0.70818 0.08718 0.0
C408 C 0.99225 0.59308 0.72899 0.0
C409 C 0.98549 0.60859 0.77264 0.0
C410 C 0.98961 0.62769 0.94745 0.0
C411 C 0.979 0.6843 0.99754 0.0
C412 C 0.98313 0.6652 0.95725 0.0
C413 C 0.99408 0.61023 0.83611 0.0
C414 C 0.98971 0.62898 0.87847 0.0
H415 H 0.94612 0.72609 0.00066 0.0
H416 H 0.95255 0.69414 0.93918 0.0
H417 H 0.98636 0.64399 0.03905 0.0
H418 H 0.02676 0.56813 0.82836 0.0
H419 H 0.01545 0.59532 0.90416 0.0
C420 C 0.08674 0.19277 0.31678 0.0
C421 C 0.07164 0.20709 0.33871 0.0
C422 C 0.08913 0.17351 0.3478 0.0
C423 C 0.07388 0.1418 0.49166 0.0
H424 H 0.0655 0.09782 0.36343 0.0
C425 C 0.0281 0.06056 0.48808 0.0
C426 C 0.03461 0.05249 0.54867 0.0
C427 C 0.03924 0.07676 0.4583 0.0
C428 C 0.06807 0.10987 0.39976 0.0
H429 H 0.04885 0.21345 0.41432 0.0
H430 H 0.05326 0.17995 0.4693 0.0
H431 H 0.07371 0.13316 0.32694 0.0
H432 H 0.05859 0.05446 0.62334 0.0
H433 H 0.07838 0.08185 0.57031 0.0
H434 H 0.06716 0.11879 0.56433 0.0
C435 C 0.06317 0.18353 0.4279 0.0
C436 C 0.07295 0.13008 0.379 0.0
C437 C 0.06069 0.20278 0.39659 0.0
C438 C 0.05345 0.05973 0.57582 0.0
C439 C 0.0646 0.07582 0.54607 0.0
C440 C 0.06918 0.12157 0.51244 0.0
C441 C 0.07662 0.1683 0.40172 0.0
C442 C 0.07529 0.14638 0.42467 0.0
C443 C 0.05704 0.08521 0.48877 0.0
C444 C 0.06562 0.10553 0.46663 0.0
H445 H 0.09558 0.19584 0.27265 0.0
H446 H 0.09989 0.16221 0.32735 0.0
H447 H 0.07567 0.15402 0.52789 0.0
H448 H 0.01359 0.05542 0.46609 0.0
H449 H 0.03296 0.08373 0.41422 0.0
C450 C 0.33651 0.08534 0.32195 0.0
C451 C 0.32252 0.06962 0.34144 0.0
C452 C 0.35568 0.08767 0.3536 0.0
C453 C 0.39942 0.07216 0.38305 0.0
H454 H 0.41073 0.06381 0.56745 0.0
C455 C 0.47124 0.02915 0.48633 0.0
C456 C 0.47896 0.03527 0.54778 0.0
C457 C 0.45434 0.03969 0.45817 0.0
C458 C 0.40793 0.06653 0.51587 0.0
H459 H 0.31658 0.04557 0.41347 0.0
H460 H 0.34992 0.04985 0.46958 0.0
H461 H 0.37529 0.07172 0.53175 0.0
H462 H 0.47539 0.05784 0.62633 0.0
H463 H 0.44686 0.07668 0.57598 0.0
H464 H 0.43191 0.06612 0.36695 0.0
C465 C 0.34616 0.0603 0.42963 0.0
C466 C 0.38758 0.07089 0.49549 0.0
C467 C 0.327 0.0579 0.39773 0.0
C468 C 0.47047 0.05311 0.57792 0.0
C469 C 0.45371 0.06367 0.54974 0.0
C470 C 0.41974 0.06764 0.4034 0.0
C471 C 0.36111 0.07446 0.40567 0.0
C472 C 0.38303 0.07327 0.42874 0.0
C473 C 0.44482 0.05647 0.49121 0.0
C474 C 0.42412 0.06432 0.46988 0.0
H475 H 0.3333 0.09473 0.27901 0.0
H476 H 0.36673 0.09898 0.33493 0.0
H477 H 0.39636 0.07367 0.33113 0.0
H478 H 0.4773 0.01535 0.46224 0.0
H479 H 0.44775 0.03369 0.4131 0.0
C480 C 0.44565 0.34088 0.31002 0.0
C481 C 0.46019 0.32648 0.335 0.0
C482 C 0.44283 0.36022 0.34034 0.0
C483 C 0.4565 0.39212 0.48625 0.0
H484 H 0.46636 0.43579 0.35834 0.0
C485 C 0.50322 0.47318 0.48322 0.0
C486 C 0.49695 0.48109 0.54427 0.0
C487 C 0.49199 0.45701 0.45344 0.0
C488 C 0.46341 0.42382 0.3946 0.0
H489 H 0.48144 0.32008 0.41496 0.0
H490 H 0.47635 0.35369 0.46842 0.0
H491 H 0.45806 0.40052 0.32154 0.0
H492 H 0.47341 0.47869 0.62009 0.0
H493 H 0.45332 0.45162 0.56668 0.0
H494 H 0.4631 0.41506 0.55924 0.0
C495 C 0.46716 0.35014 0.42533 0.0
C496 C 0.45844 0.40365 0.37362 0.0
C497 C 0.47004 0.3308 0.39486 0.0
C498 C 0.47833 0.47363 0.57211 0.0
C499 C 0.46702 0.45767 0.54215 0.0
C500 C 0.46138 0.41229 0.50722 0.0
C501 C 0.45438 0.36544 0.39644 0.0
C502 C 0.45557 0.38743 0.41921 0.0
C503 C 0.47431 0.44845 0.48424 0.0
C504 C 0.46553 0.42822 0.4616 0.0
H505 H 0.43767 0.3378 0.26426 0.0
H506 H 0.43255 0.37154 0.31773 0.0
H507 H 0.45425 0.37999 0.52248 0.0
H508 H 0.51757 0.47846 0.46072 0.0
H509 H 0.4981 0.45017 0.40892 0.0
C510 C 0.20726 0.47826 0.39856 0.0
C511 C 0.21175 0.46503 0.34565 0.0
C512 C 0.18835 0.47628 0.43213 0.0
C513 C 0.1474 0.46592 0.50263 0.0
H514 H 0.10272 0.46742 0.37417 0.0
C515 C 0.06362 0.48147 0.58199 0.0
C516 C 0.05501 0.49916 0.55131 0.0
C517 C 0.08077 0.47126 0.55498 0.0
C518 C 0.115 0.46678 0.41059 0.0
H519 H 0.20139 0.43786 0.29138 0.0
H520 H 0.16838 0.43441 0.35002 0.0
H521 H 0.1384 0.46 0.33911 0.0
H522 H 0.05682 0.51913 0.46604 0.0
H523 H 0.08688 0.50116 0.4184 0.0
H524 H 0.12413 0.47354 0.57371 0.0
C525 C 0.17924 0.44649 0.36484 0.0
C526 C 0.13538 0.46237 0.39074 0.0
C527 C 0.19815 0.44839 0.33166 0.0
C528 C 0.06297 0.50542 0.49039 0.0
C529 C 0.08016 0.49512 0.46318 0.0
C530 C 0.12697 0.47006 0.52261 0.0
C531 C 0.1737 0.46107 0.41307 0.0
C532 C 0.15185 0.46241 0.43633 0.0
C533 C 0.08979 0.47857 0.49687 0.0
C534 C 0.11066 0.47104 0.47653 0.0
H535 H 0.21741 0.49129 0.40999 0.0
H536 H 0.18447 0.48776 0.46911 0.0
H537 H 0.15979 0.46604 0.5387 0.0
H538 H 0.05843 0.47665 0.63003 0.0
H539 H 0.0878 0.45845 0.58169 0.0
C540 C 0.94505 0.8394 0.13214 0.0
C541 C 0.95966 0.82479 0.10893 0.0
C542 C 0.94275 0.85869 0.10127 0.0
C543 C 0.9586 0.902 0.06854 0.0
H544 H 0.96438 0.91296 0.88304 0.0
C545 C 1.00239 0.97228 0.95977 0.0
C546 C 0.99613 0.97992 0.89838 0.0
C547 C 0.99146 0.9559 0.98936 0.0
C548 C 0.96236 0.91029 0.93498 0.0
H549 H 0.9818 0.81801 0.03192 0.0
H550 H 0.97769 0.85165 0.97738 0.0
H551 H 0.95599 0.8778 0.92003 0.0
H552 H 0.97289 0.97686 0.82179 0.0
H553 H 0.95329 0.94937 0.87478 0.0
H554 H 0.96574 0.93435 0.08358 0.0
C555 C 0.96799 0.84824 0.01941 0.0
C556 C 0.95775 0.89008 0.9561 0.0
C557 C 0.97031 0.82892 0.05043 0.0
C558 C 0.97776 0.972 0.87002 0.0
C559 C 0.96676 0.95581 0.89973 0.0
C560 C 0.96332 0.92221 0.04743 0.0
C561 C 0.95496 0.8637 0.04647 0.0
C562 C 0.95634 0.8856 0.02317 0.0
C563 C 0.9741 0.94686 0.95799 0.0
C564 C 0.96577 0.92646 0.9805 0.0
H565 H 0.93653 0.83648 0.17699 0.0
H566 H 0.93229 0.87013 0.12245 0.0
H567 H 0.95785 0.89903 0.12066 0.0
H568 H 0.01656 0.97792 0.98266 0.0
H569 H 0.99759 0.94928 0.03419 0.0
C570 C 0.6943 0.94557 0.12427 0.0
C571 C 0.70864 0.96089 0.10423 0.0
C572 C 0.67511 0.94352 0.09264 0.0
C573 C 0.64362 0.96001 0.94983 0.0
H574 H 0.59935 0.96656 0.0778 0.0
C575 C 0.56164 1.00417 0.95441 0.0
C576 C 0.55364 0.99766 0.8937 0.0
C577 C 0.57802 0.9932 0.9839 0.0
C578 C 0.61149 0.9645 0.04154 0.0
H579 H 0.71514 0.98459 0.03164 0.0
H580 H 0.68166 0.98085 0.97548 0.0
H581 H 0.63476 0.95867 0.11434 0.0
H582 H 0.5559 0.97388 0.81845 0.0
H583 H 0.5837 0.95442 0.87089 0.0
H584 H 0.62057 0.96684 0.87725 0.0
C585 C 0.68521 0.97046 0.0158 0.0
C586 C 0.63173 0.95981 0.0623 0.0
C587 C 0.70441 0.97257 0.04771 0.0
C588 C 0.56114 0.97899 0.86608 0.0
C589 C 0.57744 0.96804 0.89549 0.0
C590 C 0.62334 0.96449 0.92903 0.0
C591 C 0.66998 0.95666 0.04009 0.0
C592 C 0.64811 0.9581 0.01677 0.0
C593 C 0.58674 0.97562 0.95293 0.0
C594 C 0.60719 0.96734 0.9748 0.0
H595 H 0.69731 0.93624 0.16748 0.0
H596 H 0.66382 0.9325 0.11162 0.0
H597 H 0.65592 0.95871 0.91373 0.0
H598 H 0.5563 0.01856 0.97668 0.0
H599 H 0.58493 0.99948 0.02813 0.0
C600 C 0.58738 0.69519 0.1244 0.0
C601 C 0.57208 0.70953 0.10414 0.0
C602 C 0.58958 0.67605 0.09251 0.0
C603 C 0.57371 0.6326 0.0611 0.0
H604 H 0.56631 0.62177 0.87598 0.0
C605 C 0.5296 0.56224 0.95364 0.0
C606 C 0.53579 0.55449 0.89233 0.0
C607 C 0.54055 0.57868 0.98291 0.0
C608 C 0.56878 0.62444 0.92777 0.0
H609 H 0.54854 0.71607 0.03098 0.0
H610 H 0.55251 0.68267 0.97448 0.0
H611 H 0.57443 0.65708 0.91294 0.0
H612 H 0.55895 0.55735 0.81556 0.0
H613 H 0.57847 0.58515 0.86775 0.0
H614 H 0.56716 0.60013 0.07613 0.0
C615 C 0.5628 0.68619 0.01511 0.0
C616 C 0.57324 0.6447 0.94887 0.0
C617 C 0.56055 0.70535 0.04723 0.0
C618 C 0.55412 0.56236 0.8637 0.0
C619 C 0.56509 0.57868 0.89297 0.0
C620 C 0.56907 0.61236 0.04004 0.0
C621 C 0.57659 0.67095 0.03954 0.0
C622 C 0.57526 0.64909 0.01586 0.0
C623 C 0.55782 0.58771 0.95118 0.0
C624 C 0.56607 0.60817 0.97328 0.0
H625 H 0.59659 0.69817 0.16794 0.0
H626 H 0.6006 0.66477 0.11162 0.0
H627 H 0.57495 0.63552 0.11318 0.0
H628 H 0.51546 0.55663 0.97669 0.0
H629 H 0.5345 0.58538 0.02773 0.0
C630 C 0.83692 0.58848 0.12121 0.0
C631 C 0.82245 0.57322 0.10141 0.0
C632 C 0.85607 0.59035 0.08942 0.0
C633 C 0.8992 0.57336 0.05944 0.0
H634 H 0.91031 0.56626 0.87442 0.0
C635 C 0.96884 0.52821 0.95155 0.0
C636 C 0.97707 0.53487 0.8914 0.0
C637 C 0.95247 0.53923 0.98091 0.0
C638 C 0.90755 0.56862 0.9262 0.0
H639 H 0.81567 0.54951 0.02893 0.0
H640 H 0.84908 0.55298 0.97245 0.0
H641 H 0.87508 0.57492 0.91067 0.0
H642 H 0.97515 0.55886 0.81679 0.0
H643 H 0.94737 0.57838 0.869 0.0
H644 H 0.93147 0.56607 0.07516 0.0
C645 C 0.84566 0.56344 0.01274 0.0
C646 C 0.88735 0.57341 0.94686 0.0
C647 C 0.82649 0.56149 0.04483 0.0
C648 C 0.96975 0.55365 0.86408 0.0
C649 C 0.95346 0.56464 0.89333 0.0
C650 C 0.91937 0.56835 0.03882 0.0
C651 C 0.86103 0.57712 0.03693 0.0
C652 C 0.88287 0.57538 0.01377 0.0
C653 C 0.944 0.55699 0.95031 0.0
C654 C 0.92364 0.56548 0.9721 0.0
H655 H 0.83404 0.59785 0.16446 0.0
H656 H 0.86749 0.60129 0.10832 0.0
H657 H 0.89617 0.57453 0.11146 0.0
H658 H 0.97404 0.51373 0.97354 0.0
H659 H 0.94541 0.5329 0.02476 0.0
C660 C 0.05937 0.21471 0.08342 0.0
C661 C 0.04385 0.22426 0.1217 0.0
C662 C 0.05418 0.19975 0.03622 0.0
C663 C 0.01108 0.16223 0.00055 0.0
H664 H 0.04751 0.14603 0.8579 0.0
C665 C 0.99261 0.09488 0.81848 0.0
C666 C 0.00868 0.0804 0.80646 0.0
C667 C 0.99637 0.11306 0.85468 0.0
C668 C 0.03727 0.1503 0.89787 0.0
H669 H 0.01057 0.22709 0.13605 0.0
H670 H 1.00126 0.20199 0.05053 0.0
H671 H 0.05388 0.17868 0.91612 0.0
H672 H 0.04136 0.07371 0.82337 0.0
H673 H 0.0481 0.10587 0.88569 0.0
H674 H 0.99418 0.134 0.98054 0.0
C675 C 0.0176 0.20535 0.05878 0.0
C676 C 0.04091 0.16906 0.93153 0.0
C677 C 0.02286 0.22018 0.10681 0.0
C678 C 0.02862 0.08447 0.83219 0.0
C679 C 0.03251 0.10295 0.86733 0.0
C680 C 0.00724 0.14369 0.96605 0.0
C681 C 0.03324 0.19407 0.02518 0.0
C682 C 0.02806 0.17522 0.9842 0.0
C683 C 0.01642 0.11749 0.87875 0.0
C684 C 0.02045 0.13735 0.9149 0.0
H685 H 0.0757 0.21734 0.09448 0.0
H686 H 0.06681 0.19155 0.01231 0.0
H687 H 1.00103 0.16595 0.04145 0.0
H688 H 0.97705 0.09223 0.79945 0.0
H689 H 0.98368 0.12396 0.86239 0.0
C690 C 0.31421 0.05759 0.07969 0.0
C691 C 0.30747 0.04205 0.12335 0.0
C692 C 0.32982 0.05337 0.03354 0.0
C693 C 0.36211 0.01076 0.95864 0.0
H694 H 0.4033 0.05485 0.94351 0.0
C695 C 0.4319 1.00359 0.78182 0.0
C696 C 0.4515 0.01163 0.80044 0.0
C697 C 0.41405 0.00741 0.81913 0.0
C698 C 0.39209 0.04228 0.94758 0.0
H699 H 0.31114 0.00969 0.15091 0.0
H700 H 0.33819 1.00215 0.07027 0.0
H701 H 0.37181 0.06068 0.00753 0.0
H702 H 0.46737 0.03031 0.8736 0.0
H703 H 0.43613 0.03673 0.93979 0.0
H704 H 0.38273 0.99209 0.90073 0.0
C705 C 0.33129 0.01757 0.07066 0.0
C706 C 0.37376 0.04574 0.9835 0.0
C707 C 0.31557 0.02179 0.11658 0.0
C708 C 0.45261 0.02384 0.85765 0.0
C709 C 0.43462 0.0276 0.89543 0.0
C710 C 0.38046 0.00727 0.92292 0.0
C711 C 0.3393 0.03355 0.03041 0.0
C712 C 0.35845 0.03005 0.98954 0.0
C713 C 0.41507 0.01933 0.87681 0.0
C714 C 0.39573 0.02299 0.91663 0.0
H715 H 0.30857 0.07345 0.08483 0.0
H716 H 0.33515 0.06597 0.00245 0.0
H717 H 0.35074 0.9983 0.96172 0.0
H718 H 0.43019 0.99434 0.73776 0.0
H719 H 0.39932 1.00117 0.80202 0.0
C720 C 0.47917 0.31458 0.0775 0.0
C721 C 0.49364 0.30954 0.12671 0.0
C722 C 0.48374 0.32994 0.03082 0.0
C723 C 0.52597 0.36455 0.96511 0.0
H724 H 0.47989 0.40258 0.93441 0.0
C725 C 0.53285 0.43347 0.78401 0.0
C726 C 0.52307 0.4526 0.79908 0.0
C727 C 0.52946 0.41566 0.82203 0.0
C728 C 0.493 0.39226 0.94285 0.0
H729 H 0.52458 0.31594 0.16374 0.0
H730 H 0.53278 0.3425 0.08206 0.0
H731 H 0.47438 0.37119 -0.0007 0.0
H732 H 0.5019 0.46768 0.86691 0.0
H733 H 0.49616 0.43654 0.93412 0.0
H734 H 0.54475 0.38597 0.91048 0.0
C735 C 0.51796 0.33447 0.07861 0.0
C736 C 0.48976 0.37398 0.97927 0.0
C737 C 0.51339 0.31902 0.12515 0.0
C738 C 0.50971 0.4533 0.85365 0.0
C739 C 0.50632 0.43536 0.892 0.0
C740 C 0.52921 0.38283 0.92876 0.0
C741 C 0.50282 0.34083 0.03263 0.0
C742 C 0.50619 0.35982 0.99096 0.0
C743 C 0.51621 0.41627 0.87676 0.0
C744 C 0.51278 0.39698 0.91697 0.0
H745 H 0.46365 0.30788 0.07853 0.0
H746 H 0.47185 0.33401 0.99536 0.0
H747 H 0.53901 0.35407 0.97271 0.0
H748 H 0.54314 0.43209 0.74223 0.0
H749 H 0.53704 0.40126 0.80767 0.0
C750 C 0.22019 0.50628 0.09852 0.0
C751 C 0.22448 0.48572 0.11835 0.0
C752 C 0.20452 0.51031 0.05199 0.0
C753 C 0.15477 0.48737 0.00085 0.0
H754 H 0.15518 0.52875 0.86283 0.0
C755 C 0.08216 0.50145 0.83491 0.0
C756 C 0.07888 0.52165 0.81021 0.0
C757 C 0.10048 0.49664 0.86973 0.0
C758 C 0.15459 0.51735 0.90187 0.0
H759 H 0.21694 0.45323 0.1013 0.0
H760 H 0.18992 0.46018 0.01983 0.0
H761 H 0.18716 0.52148 0.92354 0.0
H762 H 0.09184 0.55287 0.80552 0.0
H763 H 0.12298 0.54488 0.86832 0.0
H764 H 0.12218 0.48369 0.98151 0.0
C765 C 0.19841 0.47323 0.04057 0.0
C766 C 0.17307 0.5131 0.93635 0.0
C767 C 0.21412 0.46923 0.08644 0.0
C768 C 0.09395 0.53707 0.82325 0.0
C769 C 0.11201 0.53239 0.85882 0.0
C770 C 0.13625 0.49182 0.96712 0.0
C771 C 0.19274 0.49383 0.02498 0.0
C772 C 0.1734 0.49803 0.98622 0.0
C773 C 0.11584 0.51201 0.88163 0.0
C774 C 0.13579 0.50694 0.91711 0.0
H775 H 0.22758 0.5193 0.12322 0.0
H776 H 0.20055 0.52636 0.04102 0.0
H777 H 0.15437 0.47592 0.03981 0.0
H778 H 0.07098 0.48915 0.82511 0.0
H779 H 0.10281 0.4807 0.88562 0.0
C780 C 0.97638 0.81251 0.36913 0.0
C781 C 0.99086 0.80729 0.32024 0.0
C782 C 0.98103 0.82787 0.41582 0.0
C783 C 0.02357 0.86217 0.48183 0.0
H784 H 0.97791 0.9008 0.51115 0.0
C785 C 0.03133 0.93172 0.66054 0.0
C786 C 0.02174 0.95089 0.64478 0.0
C787 C 0.02769 0.91378 0.62322 0.0
C788 C 0.99091 0.8903 0.5031 0.0
H789 H 0.02189 0.81339 0.28367 0.0
H790 H 0.03025 0.83992 0.36536 0.0
H791 H 0.97207 0.86927 0.44699 0.0
H792 H 1.00066 0.96591 0.57647 0.0
H793 H 0.99453 0.93456 0.51043 0.0
H794 H 0.04258 0.88355 0.53602 0.0
C795 C 0.01535 0.83203 0.36862 0.0
C796 C 0.98747 0.87196 0.46711 0.0
C797 C 0.01069 0.8166 0.32207 0.0
C798 C 0.00833 0.95149 0.59023 0.0
C799 C 1.00472 0.93344 0.55257 0.0
C800 C 0.02701 0.88052 0.51773 0.0
C801 C 1.00023 0.83858 0.41431 0.0
C802 C 1.00375 0.85759 0.45586 0.0
C803 C 0.01441 0.91431 0.56851 0.0
C804 C 0.01073 0.89489 0.52896 0.0
H805 H 0.96079 0.80597 0.3678 0.0
H806 H 0.96914 0.83211 0.45103 0.0
H807 H 0.03649 0.85153 0.47459 0.0
H808 H 0.04164 0.93041 0.70235 0.0
H809 H 0.03513 0.89936 0.63811 0.0
C810 C 0.72027 0.00711 0.338 0.0
C811 C 0.72565 0.98631 0.32393 0.0
C812 C 0.70491 0.01163 0.38505 0.0
C813 C 0.65691 0.98808 0.44458 0.0
H814 H 0.6565 0.03139 0.57678 0.0
C815 C 0.58436 1.00165 0.61031 0.0
C816 C 0.5806 0.02187 0.63426 0.0
C817 C 0.60274 0.99716 0.57547 0.0
C818 C 0.6561 0.01946 0.53931 0.0
H819 H 0.72028 0.95412 0.35118 0.0
H820 H 0.69373 0.96197 0.43331 0.0
H821 H 0.68838 0.02448 0.51528 0.0
H822 H 0.59276 0.05341 0.63783 0.0
H823 H 0.62392 0.04601 0.57447 0.0
H824 H 0.62458 0.98354 0.46563 0.0
C825 C 0.70126 0.97479 0.40806 0.0
C826 C 0.67454 0.0154 0.50446 0.0
C827 C 0.71673 0.97031 0.36185 0.0
C828 C 0.59526 0.0376 0.62058 0.0
C829 C 0.61335 0.03325 0.58472 0.0
C830 C 0.63839 0.99237 0.47841 0.0
C831 C 0.69448 0.9954 0.41807 0.0
C832 C 0.67519 0.9996 0.45688 0.0
C833 C 0.61766 0.01288 0.5625 0.0
C834 C 0.63761 0.00814 0.52648 0.0
H835 H 0.72646 0.01969 0.30842 0.0
H836 H 0.70002 0.02768 0.39165 0.0
H837 H 0.65679 0.97602 0.40736 0.0
H838 H 0.57351 0.98912 0.62071 0.0
H839 H 0.60542 0.9812 0.56035 0.0
C840 C 0.56122 0.71613 0.3603 0.0
C841 C 0.54568 0.7261 0.3231 0.0
C842 C 0.55601 0.70102 0.40693 0.0
C843 C 0.51251 0.66397 0.44304 0.0
H844 H 0.54932 0.64693 0.58391 0.0
C845 C 0.49381 0.59654 0.62446 0.0
C846 C 0.50973 0.58183 0.63577 0.0
C847 C 0.49767 0.61471 0.58837 0.0
C848 C 0.53896 0.65143 0.54443 0.0
H849 H 0.5124 0.72934 0.3097 0.0
H850 H 0.50308 0.70396 0.39428 0.0
H851 H 0.55593 0.67958 0.52621 0.0
H852 H 0.54226 0.57475 0.61766 0.0
H853 H 0.54917 0.60687 0.55558 0.0
H854 H 0.49525 0.63597 0.46309 0.0
C855 C 0.51943 0.70716 0.38572 0.0
C856 C 0.54275 0.67019 0.51105 0.0
C857 C 0.5247 0.72215 0.33826 0.0
C858 C 0.52963 0.58567 0.60941 0.0
C859 C 0.53362 0.60414 0.57439 0.0
C860 C 0.50852 0.64543 0.47729 0.0
C861 C 0.53504 0.69556 0.41841 0.0
C862 C 0.52977 0.67667 0.45903 0.0
C863 C 0.51769 0.61891 0.5637 0.0
C864 C 0.52186 0.63878 0.52779 0.0
H865 H 0.57754 0.71859 0.3488 0.0
H866 H 0.56862 0.69255 0.43003 0.0
H867 H 0.50233 0.66794 0.40264 0.0
H868 H 0.47829 0.59407 0.64397 0.0
H869 H 0.4851 0.62578 0.58124 0.0
C870 C 0.81074 0.52631 0.3352 0.0
C871 C 0.80631 0.54728 0.32095 0.0
C872 C 0.82608 0.52116 0.38172 0.0
C873 C 0.86318 0.54453 0.50642 0.0
H874 H 0.89816 0.49816 0.45334 0.0
C875 C 0.9477 0.53157 0.60576 0.0
C876 C 0.95181 0.51131 0.62892 0.0
C877 C 0.92932 0.53579 0.57043 0.0
C878 C 0.88851 0.51112 0.46899 0.0
H879 H 0.81332 0.57921 0.34743 0.0
H880 H 0.83991 0.57049 0.42734 0.0
H881 H 0.86586 0.50509 0.39459 0.0
H882 H 0.94023 0.4795 0.63095 0.0
H883 H 0.90872 0.48674 0.56797 0.0
H884 H 0.88651 0.5509 0.57933 0.0
C885 C 0.83158 0.55781 0.40409 0.0
C886 C 0.86977 0.515 0.4357 0.0
C887 C 0.81614 0.56289 0.35831 0.0
C888 C 0.93754 0.49529 0.61391 0.0
C889 C 0.91948 0.49942 0.57765 0.0
C890 C 0.88212 0.54083 0.53899 0.0
C891 C 0.83753 0.53689 0.4144 0.0
C892 C 0.85676 0.53182 0.45366 0.0
C893 C 0.91493 0.51976 0.55632 0.0
C894 C 0.89504 0.5241 0.52062 0.0
H895 H 0.80369 0.51397 0.30645 0.0
H896 H 0.82967 0.50484 0.38946 0.0
H897 H 0.85358 0.5574 0.52288 0.0
H898 H 0.95828 0.54427 0.61698 0.0
H899 H 0.92633 0.55161 0.55424 0.0
loop_
_geom_bond_atom_site_label_1
_geom_bond_atom_site_label_2
_geom_bond_distance
_geom_bond_site_symmetry_2
_ccdc_geom_bond_type
H0 C5 0.930 . S
H1 C8 0.930 . S
H2 C10 0.930 . S
H3 C4 1.016 . S
C4 H3 1.016 . S
C4 N11 1.286 . S
C5 H0 0.930 . S
C5 C6 1.397 . S
C5 C7 1.361 . S
C6 C5 1.397 . S
C6 C10 1.390 . S
C7 C5 1.361 . S
C7 C8 1.393 . S
C7 N11 1.413 . S
C8 H1 0.930 . S
C8 C7 1.393 . S
C8 C9 1.399 . S
C9 C8 1.399 . S
C9 C10 1.381 . S
C10 H2 0.930 . S
C10 C6 1.390 . S
C10 C9 1.381 . S
N11 C4 1.286 . S
N11 C7 1.413 . S
H12 C17 0.930 . S
H13 C20 0.930 . S
H14 C22 0.930 . S
H15 C16 1.016 . S
C16 H15 1.016 . S
C16 N23 1.286 . S
C17 H12 0.930 . S
C17 C18 1.397 . S
C17 C19 1.361 . S
C18 C17 1.397 . S
C18 C22 1.390 . S
C19 C17 1.361 . S
C19 C20 1.393 . S
C19 N23 1.413 . S
C20 H13 0.930 . S
C20 C19 1.393 . S
C20 C21 1.399 . S
C21 C20 1.399 . S
C21 C22 1.381 . S
C22 H14 0.930 . S
C22 C18 1.390 . S
C22 C21 1.381 . S
N23 C16 1.286 . S
N23 C19 1.413 . S
H24 C29 0.930 . S
H25 C32 0.930 . S
H26 C34 0.930 . S
H27 C28 1.016 . S
C28 H27 1.016 . S
C28 N35 1.286 . S
C29 H24 0.930 . S
C29 C30 1.397 . S
C29 C31 1.361 . S
C30 C29 1.397 . S
C30 C34 1.390 . S
C31 C29 1.361 . S
C31 C32 1.393 . S
C31 N35 1.413 . S
C32 H25 0.930 . S
C32 C31 1.393 . S
C32 C33 1.399 . S
C33 C32 1.399 . S
C33 C34 1.381 . S
C34 H26 0.930 . S
C34 C30 1.390 . S
C34 C33 1.381 . S
N35 C28 1.286 . S
N35 C31 1.413 . S
H36 C41 0.930 . S
H37 C44 0.930 . S
H38 C46 0.930 . S
H39 C40 1.016 . S
C40 H39 1.016 . S
C40 N47 1.286 . S
C41 H36 0.930 . S
C41 C42 1.397 . S
C41 C43 1.361 . S
C42 C41 1.397 . S
C42 C46 1.390 . S
C43 C41 1.361 . S
C43 C44 1.393 . S
C43 N47 1.413 . S
C44 H37 0.930 . S
C44 C43 1.393 . S
C44 C45 1.399 . S
C45 C44 1.399 . S
C45 C46 1.381 . S
C46 H38 0.930 . S
C46 C42 1.390 . S
C46 C45 1.381 . S
N47 C40 1.286 . S
N47 C43 1.413 . S
H48 C53 0.930 . S
H49 C56 0.930 . S
H50 C58 0.930 . S
H51 C52 1.016 . S
C52 H51 1.016 . S
C52 N59 1.286 . S
C53 H48 0.930 . S
C53 C54 1.397 . S
C53 C55 1.361 . S
C54 C53 1.397 . S
C54 C58 1.390 . S
C55 C53 1.361 . S
C55 C56 1.393 . S
C55 N59 1.413 . S
C56 H49 0.930 . S
C56 C55 1.393 . S
C56 C57 1.399 . S
C57 C56 1.399 . S
C57 C58 1.381 . S
C58 H50 0.930 . S
C58 C54 1.390 . S
C58 C57 1.381 . S
N59 C52 1.286 . S
N59 C55 1.413 . S
H60 C65 0.930 . S
H61 C68 0.930 . S
H62 C70 0.930 . S
H63 C64 1.016 . S
C64 H63 1.016 . S
C64 N71 1.286 . S
C65 H60 0.930 . S
C65 C66 1.397 . S
C65 C67 1.361 . S
C66 C65 1.397 . S
C66 C70 1.390 . S
C67 C65 1.361 . S
C67 C68 1.393 . S
C67 N71 1.413 . S
C68 H61 0.930 . S
C68 C67 1.393 . S
C68 C69 1.399 . S
C69 C68 1.399 . S
C69 C70 1.381 . S
C70 H62 0.930 . S
C70 C66 1.390 . S
C70 C69 1.381 . S
N71 C64 1.286 . S
N71 C67 1.413 . S
H72 C77 0.930 . S
H73 C80 0.930 . S
H74 C82 0.930 . S
H75 C76 1.016 . S
C76 H75 1.016 . S
C76 N83 1.286 . S
C77 H72 0.930 . S
C77 C78 1.397 . S
C77 C79 1.361 . S
C78 C77 1.397 . S
C78 C82 1.390 . S
C79 C77 1.361 . S
C79 C80 1.393 . S
C79 N83 1.413 . S
C80 H73 0.930 . S
C80 C79 1.393 . S
C80 C81 1.399 . S
C81 C80 1.399 . S
C81 C82 1.381 . S
C82 H74 0.930 . S
C82 C78 1.390 . S
C82 C81 1.381 . S
N83 C76 1.286 . S
N83 C79 1.413 . S
H84 C89 0.930 . S
H85 C92 0.930 . S
H86 C94 0.930 . S
H87 C88 1.016 . S
C88 H87 1.016 . S
C88 N95 1.286 . S
C89 H84 0.930 . S
C89 C90 1.397 . S
C89 C91 1.361 . S
C90 C89 1.397 . S
C90 C94 1.390 . S
C91 C89 1.361 . S
C91 C92 1.393 . S
C91 N95 1.413 . S
C92 H85 0.930 . S
C92 C91 1.393 . S
C92 C93 1.399 . S
C93 C92 1.399 . S
C93 C94 1.381 . S
C94 H86 0.930 . S
C94 C90 1.390 . S
C94 C93 1.381 . S
N95 C88 1.286 . S
N95 C91 1.413 . S
O96 Mn97 2.163 . S
O96 C110 1.244 . S
Mn97 O96 2.163 . S
Mn97 O100 2.160 1_445 S
Mn97 O101 2.221 . S
Mn97 O103 2.163 1_545 S
Mn97 O105 2.160 . S
Mn97 O115 2.221 1_455 S
O98 Mn99 2.105 . S
O98 C110 1.233 1_655 S
Mn99 O98 2.105 . S
Mn99 O106 2.089 . S
Mn99 O115 2.290 . S
Mn99 O116 2.251 . S
O100 Mn97 2.160 1_665 S
O100 C111 1.239 1_655 S
O101 Mn97 2.221 . S
O101 Mn102 2.290 1_545 S
O101 C112 1.278 . S
Mn102 O101 2.290 1_565 S
Mn102 O104 2.089 . S
Mn102 O107 2.251 . S
Mn102 O108 2.087 . S
O103 Mn97 2.163 1_565 S
O103 C113 1.244 . S
O104 Mn102 2.089 . S
O104 C111 1.256 . S
O105 Mn97 2.160 . S
O105 C114 1.239 . S
O106 Mn99 2.089 . S
O106 C114 1.256 1_655 S
O107 Mn102 2.251 . S
O107 C112 1.241 1_565 S
O108 Mn102 2.087 . S
O108 C113 1.256 . S
C109 O115 1.278 . S
C109 O116 1.241 . S
C110 O96 1.244 . S
C110 O98 1.233 1_455 S
C111 O100 1.239 1_455 S
C111 O104 1.256 . S
C112 O101 1.278 . S
C112 O107 1.241 1_545 S
C113 O103 1.244 . S
C113 O108 1.256 . S
C114 O105 1.239 . S
C114 O106 1.256 1_455 S
O115 Mn97 2.221 1_655 S
O115 Mn99 2.290 . S
O115 C109 1.278 . S
O116 Mn99 2.251 . S
O116 C109 1.241 . S
O117 Mn118 2.163 . S
O117 C131 1.244 . S
Mn118 O117 2.163 . S
Mn118 O121 2.160 . S
Mn118 O122 2.221 1_545 S
Mn118 O124 2.163 . S
Mn118 O126 2.160 1_545 S
Mn118 O136 2.221 . S
O119 Mn120 2.087 . S
O119 C131 1.256 . S
Mn120 O119 2.087 . S
Mn120 O127 2.089 . S
Mn120 O136 2.290 . S
Mn120 O137 2.251 . S
O121 Mn118 2.160 . S
O121 C132 1.239 . S
O122 Mn118 2.221 1_565 S
O122 Mn123 2.290 . S
O122 C133 1.278 . S
Mn123 O122 2.290 . S
Mn123 O125 2.089 . S
Mn123 O128 2.251 . S
Mn123 O129 2.098 . S
O124 Mn118 2.163 . S
O124 C134 1.244 . S
O125 Mn123 2.089 . S
O125 C132 1.256 1_565 S
O126 Mn118 2.160 1_565 S
O126 C135 1.239 1_565 S
O127 Mn120 2.089 . S
O127 C135 1.256 . S
O128 Mn123 2.251 . S
O128 C133 1.241 . S
O129 Mn123 2.098 . S
O129 C134 1.242 1_565 S
C130 O136 1.278 . S
C130 O137 1.241 . S
C131 O117 1.244 . S
C131 O119 1.256 . S
C132 O121 1.239 . S
C132 O125 1.256 1_545 S
C133 O122 1.278 . S
C133 O128 1.241 . S
C134 O124 1.244 . S
C134 O129 1.242 1_545 S
C135 O126 1.239 1_545 S
C135 O127 1.256 . S
O136 Mn118 2.221 . S
O136 Mn120 2.290 . S
O136 C130 1.278 . S
O137 Mn120 2.251 . S
O137 C130 1.241 . S
O138 Mn139 2.163 . S
O138 C152 1.244 . S
Mn139 O138 2.163 . S
Mn139 O142 2.160 . S
Mn139 O143 2.221 . S
Mn139 O145 2.163 . S
Mn139 O147 2.160 . S
Mn139 O157 2.221 . S
O140 Mn141 2.087 . S
O140 C152 1.256 . S
Mn141 O140 2.087 . S
Mn141 O148 2.089 . S
Mn141 O157 2.290 . S
Mn141 O158 2.251 . S
O142 Mn139 2.160 . S
O142 C153 1.239 . S
O143 Mn139 2.221 . S
O143 Mn144 2.290 . S
O143 C154 1.278 . S
Mn144 O143 2.290 . S
Mn144 O146 2.089 . S
Mn144 O149 2.251 . S
Mn144 O150 2.087 . S
O145 Mn139 2.163 . S
O145 C155 1.244 . S
O146 Mn144 2.089 . S
O146 C153 1.256 . S
O147 Mn139 2.160 . S
O147 C156 1.239 . S
O148 Mn141 2.089 . S
O148 C156 1.256 . S
O149 Mn144 2.251 . S
O149 C154 1.241 . S
O150 Mn144 2.087 . S
O150 C155 1.256 . S
C151 O157 1.278 . S
C151 O158 1.241 . S
C152 O138 1.244 . S
C152 O140 1.256 . S
C153 O142 1.239 . S
C153 O146 1.256 . S
C154 O143 1.278 . S
C154 O149 1.241 . S
C155 O145 1.244 . S
C155 O150 1.256 . S
C156 O147 1.239 . S
C156 O148 1.256 . S
O157 Mn139 2.221 . S
O157 Mn141 2.290 . S
O157 C151 1.278 . S
O158 Mn141 2.251 . S
O158 C151 1.241 . S
O159 Mn160 2.163 . S
O159 C173 1.244 . S
Mn160 O159 2.163 . S
Mn160 O163 2.160 1_455 S
Mn160 O164 2.221 . S
Mn160 O166 2.163 1_455 S
Mn160 O168 2.160 . S
Mn160 O178 2.221 . S
O161 Mn162 2.087 . S
O161 C173 1.256 . S
Mn162 O161 2.087 . S
Mn162 O169 2.089 . S
Mn162 O178 2.290 . S
Mn162 O179 2.251 . S
O163 Mn160 2.160 1_655 S
O163 C174 1.239 . S
O164 Mn160 2.221 . S
O164 Mn165 2.290 1_455 S
O164 C175 1.278 . S
Mn165 O164 2.290 1_655 S
Mn165 O167 2.089 . S
Mn165 O170 2.251 . S
Mn165 O171 2.087 . S
O166 Mn160 2.163 1_655 S
O166 C176 1.244 . S
O167 Mn165 2.089 . S
O167 C174 1.256 . S
O168 Mn160 2.160 . S
O168 C177 1.239 . S
O169 Mn162 2.089 . S
O169 C177 1.256 . S
O170 Mn165 2.251 . S
O170 C175 1.241 1_655 S
O171 Mn165 2.087 . S
O171 C176 1.256 . S
C172 O178 1.278 . S
C172 O179 1.241 . S
C173 O159 1.244 . S
C173 O161 1.256 . S
C174 O163 1.239 . S
C174 O167 1.256 . S
C175 O164 1.278 . S
C175 O170 1.241 1_455 S
C176 O166 1.244 . S
C176 O171 1.256 . S
C177 O168 1.239 . S
C177 O169 1.256 . S
O178 Mn160 2.221 . S
O178 Mn162 2.290 . S
O178 C172 1.278 . S
O179 Mn162 2.251 . S
O179 C172 1.241 . S
C180 C181 1.349 . S
C180 C182 1.327 . S
C180 H205 0.950 . S
C181 C180 1.349 . S
C181 C197 1.349 . S
C182 C180 1.327 . S
C182 C201 1.429 . S
C182 H206 0.950 . S
C183 C200 1.574 . S
C183 C202 1.368 . S
C183 H207 0.949 . S
H184 C188 0.969 . S
C185 C186 1.349 . S
C185 C187 1.327 . S
C185 H208 0.950 . S
C186 C185 1.349 . S
C186 C198 1.349 . S
C187 C185 1.327 . S
C187 C203 1.429 . S
C187 H209 0.950 . S
C188 H184 0.969 . S
C188 C196 1.574 . S
C188 C204 1.368 . S
H189 C197 0.950 . S
H190 C195 0.950 . S
H191 C196 0.949 . S
H192 C198 0.950 1_565 S
H193 C199 0.950 1_565 S
H194 C200 0.949 . S
C195 H190 0.950 . S
C195 C197 1.327 . S
C195 C201 1.429 . S
C196 C188 1.574 . S
C196 H191 0.949 . S
C196 C202 1.368 . S
C197 C181 1.349 . S
C197 H189 0.950 . S
C197 C195 1.327 . S
C198 C186 1.349 . S
C198 H192 0.950 1_545 S
C198 C199 1.327 . S
C199 H193 0.950 1_545 S
C199 C198 1.327 . S
C199 C203 1.429 . S
C200 C183 1.574 . S
C200 H194 0.949 . S
C200 C204 1.368 . S
C201 C182 1.429 . S
C201 C195 1.429 . S
C201 C202 1.523 . S
C202 C183 1.368 . S
C202 C196 1.368 . S
C202 C201 1.523 . S
C203 C187 1.429 . S
C203 C199 1.429 . S
C203 C204 1.523 . S
C204 C188 1.368 . S
C204 C200 1.368 . S
C204 C203 1.523 . S
H205 C180 0.950 . S
H206 C182 0.950 . S
H207 C183 0.949 . S
H208 C185 0.950 . S
H209 C187 0.950 . S
C210 C211 1.349 . S
C210 C212 1.327 . S
C210 H235 0.950 . S
C211 C210 1.349 . S
C211 C227 1.349 . S
C212 C210 1.327 . S
C212 C231 1.429 . S
C212 H236 0.950 . S
C213 C230 1.574 . S
C213 C232 1.368 . S
C213 H237 0.949 . S
H214 C218 0.949 . S
C215 C216 1.349 . S
C215 C217 1.327 . S
C215 H238 0.950 . S
C216 C215 1.349 . S
C216 C228 1.349 . S
C217 C215 1.327 . S
C217 C233 1.429 . S
C217 H239 0.950 . S
C218 H214 0.949 . S
C218 C226 1.574 . S
C218 C234 1.368 . S
H219 C227 0.950 . S
H220 C225 0.950 . S
H221 C226 0.949 . S
H222 C228 0.950 . S
H223 C229 0.950 . S
H224 C230 0.949 . S
C225 H220 0.950 . S
C225 C227 1.327 . S
C225 C231 1.429 . S
C226 C218 1.574 . S
C226 H221 0.949 . S
C226 C232 1.368 . S
C227 C211 1.349 . S
C227 H219 0.950 . S
C227 C225 1.327 . S
C228 C216 1.349 . S
C228 H222 0.950 . S
C228 C229 1.327 . S
C229 H223 0.950 . S
C229 C228 1.327 . S
C229 C233 1.429 . S
C230 C213 1.574 . S
C230 H224 0.949 . S
C230 C234 1.368 . S
C231 C212 1.429 . S
C231 C225 1.429 . S
C231 C232 1.523 . S
C232 C213 1.368 . S
C232 C226 1.368 . S
C232 C231 1.523 . S
C233 C217 1.429 . S
C233 C229 1.429 . S
C233 C234 1.523 . S
C234 C218 1.368 . S
C234 C230 1.368 . S
C234 C233 1.523 . S
H235 C210 0.950 . S
H236 C212 0.950 . S
H237 C213 0.949 . S
H238 C215 0.950 . S
H239 C217 0.950 . S
C240 C241 1.349 . S
C240 C242 1.327 . S
C240 H265 0.950 . S
C241 C240 1.349 . S
C241 C257 1.349 . S
C242 C240 1.327 . S
C242 C261 1.429 . S
C242 H266 0.950 . S
C243 C260 1.574 . S
C243 C262 1.368 . S
C243 H267 0.949 . S
H244 C248 0.949 . S
C245 C246 1.349 . S
C245 C247 1.327 . S
C245 H268 0.950 . S
C246 C245 1.349 . S
C246 C258 1.349 . S
C247 C245 1.327 . S
C247 C263 1.429 . S
C247 H269 0.950 . S
C248 H244 0.949 . S
C248 C256 1.574 . S
C248 C264 1.368 . S
H249 C257 0.950 . S
H250 C255 0.950 . S
H251 C256 0.949 . S
H252 C258 0.950 . S
H253 C259 0.950 . S
H254 C260 0.949 . S
C255 H250 0.950 . S
C255 C257 1.327 . S
C255 C261 1.429 . S
C256 C248 1.574 . S
C256 H251 0.949 . S
C256 C262 1.368 . S
C257 C241 1.349 . S
C257 H249 0.950 . S
C257 C255 1.327 . S
C258 C246 1.349 . S
C258 H252 0.950 . S
C258 C259 1.327 . S
C259 H253 0.950 . S
C259 C258 1.327 . S
C259 C263 1.429 . S
C260 C243 1.574 . S
C260 H254 0.949 . S
C260 C264 1.368 . S
C261 C242 1.429 . S
C261 C255 1.429 . S
C261 C262 1.523 . S
C262 C243 1.368 . S
C262 C256 1.368 . S
C262 C261 1.523 . S
C263 C247 1.429 . S
C263 C259 1.429 . S
C263 C264 1.523 . S
C264 C248 1.368 . S
C264 C260 1.368 . S
C264 C263 1.523 . S
H265 C240 0.950 . S
H266 C242 0.950 . S
H267 C243 0.949 . S
H268 C245 0.950 . S
H269 C247 0.950 . S
C270 C271 1.349 . S
C270 C272 1.327 . S
C270 H295 0.950 . S
C271 C270 1.349 . S
C271 C287 1.349 . S
C272 C270 1.327 . S
C272 C291 1.429 . S
C272 H296 0.950 . S
C273 C290 1.574 . S
C273 C292 1.368 . S
C273 H297 0.949 . S
H274 C278 0.949 . S
C275 C276 1.349 . S
C275 C277 1.327 . S
C275 H298 0.950 1_455 S
C276 C275 1.349 . S
C276 C288 1.349 . S
C277 C275 1.327 . S
C277 C293 1.429 . S
C277 H299 0.950 . S
C278 H274 0.949 . S
C278 C286 1.574 . S
C278 C294 1.368 . S
H279 C287 0.950 . S
H280 C285 0.950 . S
H281 C286 0.949 . S
H282 C288 0.950 . S
H283 C289 0.950 . S
H284 C290 0.949 . S
C285 H280 0.950 . S
C285 C287 1.327 . S
C285 C291 1.429 . S
C286 C278 1.574 . S
C286 H281 0.949 . S
C286 C292 1.368 . S
C287 C271 1.349 . S
C287 H279 0.950 . S
C287 C285 1.327 . S
C288 C276 1.349 . S
C288 H282 0.950 . S
C288 C289 1.327 . S
C289 H283 0.950 . S
C289 C288 1.327 . S
C289 C293 1.429 . S
C290 C273 1.574 . S
C290 H284 0.949 . S
C290 C294 1.368 . S
C291 C272 1.429 . S
C291 C285 1.429 . S
C291 C292 1.523 . S
C292 C273 1.368 . S
C292 C286 1.368 . S
C292 C291 1.523 . S
C293 C277 1.429 . S
C293 C289 1.429 . S
C293 C294 1.523 . S
C294 C278 1.368 . S
C294 C290 1.368 . S
C294 C293 1.523 . S
H295 C270 0.950 . S
H296 C272 0.950 . S
H297 C273 0.949 . S
H298 C275 0.950 1_655 S
H299 C277 0.950 . S
C300 C301 1.349 1_556 S
C300 C302 1.327 . S
C300 H325 0.950 . S
C301 C300 1.349 1_554 S
C301 C317 1.349 . S
C302 C300 1.327 . S
C302 C321 1.429 . S
C302 H326 0.950 . S
C303 C320 1.574 1_565 S
C303 C322 1.368 . S
C303 H327 0.949 1_566 S
H304 C308 0.949 . S
C305 C306 1.349 . S
C305 C307 1.327 . S
C305 H328 0.950 . S
C306 C305 1.349 . S
C306 C318 1.349 1_545 S
C307 C305 1.327 . S
C307 C323 1.429 1_545 S
C307 H329 0.950 . S
C308 H304 0.949 . S
C308 C316 1.574 . S
C308 C324 1.368 . S
H309 C317 0.950 . S
H310 C315 0.950 . S
H311 C316 0.949 . S
H312 C318 0.950 . S
H313 C319 0.950 . S
H314 C320 0.949 . S
C315 H310 0.950 . S
C315 C317 1.327 . S
C315 C321 1.429 1_554 S
C316 C308 1.574 . S
C316 H311 0.949 . S
C316 C322 1.368 . S
C317 C301 1.349 . S
C317 H309 0.950 . S
C317 C315 1.327 . S
C318 C306 1.349 1_565 S
C318 H312 0.950 . S
C318 C319 1.327 . S
C319 H313 0.950 . S
C319 C318 1.327 . S
C319 C323 1.429 . S
C320 C303 1.574 1_545 S
C320 H314 0.949 . S
C320 C324 1.368 1_545 S
C321 C302 1.429 . S
C321 C315 1.429 1_556 S
C321 C322 1.523 . S
C322 C303 1.368 . S
C322 C316 1.368 . S
C322 C321 1.523 . S
C323 C307 1.429 1_565 S
C323 C319 1.429 . S
C323 C324 1.523 . S
C324 C308 1.368 . S
C324 C320 1.368 1_565 S
C324 C323 1.523 . S
H325 C300 0.950 . S
H326 C302 0.950 . S
H327 C303 0.949 1_544 S
H328 C305 0.950 . S
H329 C307 0.950 . S
C330 C331 1.349 1_556 S
C330 C332 1.327 . S
C330 H355 0.950 . S
C331 C330 1.349 1_554 S
C331 C347 1.349 . S
C332 C330 1.327 . S
C332 C351 1.429 . S
C332 H356 0.950 . S
C333 C350 1.574 . S
C333 C352 1.368 . S
C333 H357 0.949 1_556 S
H334 C338 0.949 . S
C335 C336 1.349 . S
C335 C337 1.327 . S
C335 H358 0.950 . S
C336 C335 1.349 . S
C336 C348 1.349 . S
C337 C335 1.327 . S
C337 C353 1.429 . S
C337 H359 0.950 . S
C338 H334 0.949 . S
C338 C346 1.574 . S
C338 C354 1.368 . S
H339 C347 0.950 . S
H340 C345 0.950 . S
H341 C346 0.949 . S
H342 C348 0.950 . S
H343 C349 0.950 . S
H344 C350 0.949 . S
C345 H340 0.950 . S
C345 C347 1.327 . S
C345 C351 1.429 1_554 S
C346 C338 1.574 . S
C346 H341 0.949 . S
C346 C352 1.368 . S
C347 C331 1.349 . S
C347 H339 0.950 . S
C347 C345 1.327 . S
C348 C336 1.349 . S
C348 H342 0.950 . S
C348 C349 1.327 . S
C349 H343 0.950 . S
C349 C348 1.327 . S
C349 C353 1.429 . S
C350 C333 1.574 . S
C350 H344 0.949 . S
C350 C354 1.368 . S
C351 C332 1.429 . S
C351 C345 1.429 1_556 S
C351 C352 1.523 . S
C352 C333 1.368 . S
C352 C346 1.368 . S
C352 C351 1.523 . S
C353 C337 1.429 . S
C353 C349 1.429 . S
C353 C354 1.523 . S
C354 C338 1.368 . S
C354 C350 1.368 . S
C354 C353 1.523 . S
H355 C330 0.950 . S
H356 C332 0.950 . S
H357 C333 0.949 1_554 S
H358 C335 0.950 . S
H359 C337 0.950 . S
C360 C361 1.349 1_556 S
C360 C362 1.327 . S
C360 H385 0.950 . S
C361 C360 1.349 1_554 S
C361 C377 1.349 . S
C362 C360 1.327 . S
C362 C381 1.429 . S
C362 H386 0.950 . S
C363 C380 1.574 . S
C363 C382 1.368 . S
C363 H387 0.949 1_556 S
H364 C368 0.949 . S
C365 C366 1.349 . S
C365 C367 1.327 . S
C365 H388 0.950 . S
C366 C365 1.349 . S
C366 C378 1.349 . S
C367 C365 1.327 . S
C367 C383 1.429 . S
C367 H389 0.950 . S
C368 H364 0.949 . S
C368 C376 1.574 . S
C368 C384 1.368 . S
H369 C377 0.950 . S
H370 C375 0.950 . S
H371 C376 0.949 . S
H372 C378 0.950 . S
H373 C379 0.950 . S
H374 C380 0.949 . S
C375 H370 0.950 . S
C375 C377 1.327 . S
C375 C381 1.429 1_554 S
C376 C368 1.574 . S
C376 H371 0.949 . S
C376 C382 1.368 . S
C377 C361 1.349 . S
C377 H369 0.950 . S
C377 C375 1.327 . S
C378 C366 1.349 . S
C378 H372 0.950 . S
C378 C379 1.327 . S
C379 H373 0.950 . S
C379 C378 1.327 . S
C379 C383 1.429 . S
C380 C363 1.574 . S
C380 H374 0.949 . S
C380 C384 1.368 . S
C381 C362 1.429 . S
C381 C375 1.429 1_556 S
C381 C382 1.523 . S
C382 C363 1.368 . S
C382 C376 1.368 . S
C382 C381 1.523 . S
C383 C367 1.429 . S
C383 C379 1.429 . S
C383 C384 1.523 . S
C384 C368 1.368 . S
C384 C380 1.368 . S
C384 C383 1.523 . S
H385 C360 0.950 . S
H386 C362 0.950 . S
H387 C363 0.949 1_554 S
H388 C365 0.950 . S
H389 C367 0.950 . S
C390 C391 1.349 1_556 S
C390 C392 1.327 . S
C390 H415 0.950 . S
C391 C390 1.349 1_554 S
C391 C407 1.349 . S
C392 C390 1.327 . S
C392 C411 1.429 . S
C392 H416 0.950 . S
C393 C410 1.574 . S
C393 C412 1.368 . S
C393 H417 0.949 1_556 S
H394 C398 0.937 1_455 S
C395 C396 1.349 1_655 S
C395 C397 1.327 . S
C395 H418 0.950 . S
C396 C395 1.349 1_455 S
C396 C408 1.349 . S
C397 C395 1.327 . S
C397 C413 1.429 . S
C397 H419 0.950 . S
C398 H394 0.937 1_655 S
C398 C406 1.578 . S
C398 C414 1.377 . S
H399 C407 0.950 . S
H400 C405 0.950 . S
H401 C406 0.955 . S
H402 C408 0.950 . S
H403 C409 0.950 . S
H404 C410 0.949 . S
C405 H400 0.950 . S
C405 C407 1.327 . S
C405 C411 1.429 1_554 S
C406 C398 1.578 . S
C406 H401 0.955 . S
C406 C412 1.368 . S
C407 C391 1.349 . S
C407 H399 0.950 . S
C407 C405 1.327 . S
C408 C396 1.349 . S
C408 H402 0.950 . S
C408 C409 1.327 . S
C409 H403 0.950 . S
C409 C408 1.327 . S
C409 C413 1.429 1_455 S
C410 C393 1.574 . S
C410 H404 0.949 . S
C410 C414 1.368 . S
C411 C392 1.429 . S
C411 C405 1.429 1_556 S
C411 C412 1.523 . S
C412 C393 1.368 . S
C412 C406 1.368 . S
C412 C411 1.523 . S
C413 C397 1.429 . S
C413 C409 1.429 1_655 S
C413 C414 1.523 . S
C414 C398 1.377 . S
C414 C410 1.368 . S
C414 C413 1.523 . S
H415 C390 0.950 . S
H416 C392 0.950 . S
H417 C393 0.949 1_554 S
H418 C395 0.950 . S
H419 C397 0.950 . S
C420 C421 1.349 . S
C420 C422 1.327 . S
C420 H445 0.950 . S
C421 C420 1.349 . S
C421 C437 1.349 . S
C422 C420 1.327 . S
C422 C441 1.429 . S
C422 H446 0.950 . S
C423 C440 1.574 . S
C423 C442 1.368 . S
C423 H447 0.949 . S
H424 C428 0.949 . S
C425 C426 1.349 1_655 S
C425 C427 1.314 1_655 S
C425 H448 0.950 . S
C426 C425 1.349 1_455 S
C426 C438 1.349 . S
C427 C425 1.314 1_455 S
C427 C443 1.471 . S
C427 H449 0.923 1_455 S
C428 H424 0.949 . S
C428 C436 1.574 . S
C428 C444 1.368 . S
H429 C437 0.950 . S
H430 C435 0.950 . S
H431 C436 0.949 . S
H432 C438 0.950 . S
H433 C439 0.950 . S
H434 C440 0.949 . S
C435 H430 0.950 . S
C435 C437 1.327 . S
C435 C441 1.429 . S
C436 C428 1.574 . S
C436 H431 0.949 . S
C436 C442 1.368 . S
C437 C421 1.349 . S
C437 H429 0.950 . S
C437 C435 1.327 . S
C438 C426 1.349 . S
C438 H432 0.950 . S
C438 C439 1.327 . S
C439 H433 0.950 . S
C439 C438 1.327 . S
C439 C443 1.429 . S
C440 C423 1.574 . S
C440 H434 0.949 . S
C440 C444 1.368 . S
C441 C422 1.429 . S
C441 C435 1.429 . S
C441 C442 1.523 . S
C442 C423 1.368 . S
C442 C436 1.368 . S
C442 C441 1.523 . S
C443 C427 1.471 . S
C443 C439 1.429 . S
C443 C444 1.523 . S
C444 C428 1.368 . S
C444 C440 1.368 . S
C444 C443 1.523 . S
H445 C420 0.950 . S
H446 C422 0.950 . S
H447 C423 0.949 . S
H448 C425 0.950 . S
H449 C427 0.923 1_655 S
C450 C451 1.349 . S
C450 C452 1.327 . S
C450 H475 0.950 . S
C451 C450 1.349 . S
C451 C467 1.349 . S
C452 C450 1.327 . S
C452 C471 1.429 . S
C452 H476 0.950 . S
C453 C470 1.574 . S
C453 C472 1.368 . S
C453 H477 0.949 . S
H454 C458 0.949 . S
C455 C456 1.349 1_565 S
C455 C457 1.333 . S
C455 H478 0.950 . S
C456 C455 1.349 1_545 S
C456 C468 1.349 . S
C457 C455 1.333 . S
C457 C473 1.410 1_565 S
C457 H479 0.963 . S
C458 H454 0.949 . S
C458 C466 1.574 . S
C458 C474 1.368 . S
H459 C467 0.950 . S
H460 C465 0.950 . S
H461 C466 0.949 . S
H462 C468 0.950 . S
H463 C469 0.950 . S
H464 C470 0.949 1_565 S
C465 H460 0.950 . S
C465 C467 1.327 . S
C465 C471 1.429 . S
C466 C458 1.574 . S
C466 H461 0.949 . S
C466 C472 1.368 . S
C467 C451 1.349 . S
C467 H459 0.950 . S
C467 C465 1.327 . S
C468 C456 1.349 . S
C468 H462 0.950 . S
C468 C469 1.327 . S
C469 H463 0.950 . S
C469 C468 1.327 . S
C469 C473 1.429 . S
C470 C453 1.574 . S
C470 H464 0.949 1_545 S
C470 C474 1.368 . S
C471 C452 1.429 . S
C471 C465 1.429 . S
C471 C472 1.523 . S
C472 C453 1.368 . S
C472 C466 1.368 . S
C472 C471 1.523 . S
C473 C457 1.410 1_545 S
C473 C469 1.429 . S
C473 C474 1.523 . S
C474 C458 1.368 . S
C474 C470 1.368 . S
C474 C473 1.523 . S
H475 C450 0.950 . S
H476 C452 0.950 . S
H477 C453 0.949 . S
H478 C455 0.950 . S
H479 C457 0.963 . S
C480 C481 1.349 . S
C480 C482 1.327 . S
C480 H505 0.950 . S
C481 C480 1.349 . S
C481 C497 1.349 . S
C482 C480 1.327 . S
C482 C501 1.429 . S
C482 H506 0.950 . S
C483 C500 1.574 . S
C483 C502 1.368 . S
C483 H507 0.949 . S
H484 C488 0.949 . S
C485 C486 1.349 . S
C485 C487 1.327 . S
C485 H508 0.950 . S
C486 C485 1.349 . S
C486 C498 1.349 . S
C487 C485 1.327 . S
C487 C503 1.429 . S
C487 H509 0.950 . S
C488 H484 0.949 . S
C488 C496 1.574 . S
C488 C504 1.368 . S
H489 C497 0.950 . S
H490 C495 0.950 . S
H491 C496 0.949 . S
H492 C498 0.950 . S
H493 C499 0.950 . S
H494 C500 0.949 . S
C495 H490 0.950 . S
C495 C497 1.327 . S
C495 C501 1.429 . S
C496 C488 1.574 . S
C496 H491 0.949 . S
C496 C502 1.368 . S
C497 C481 1.349 . S
C497 H489 0.950 . S
C497 C495 1.327 . S
C498 C486 1.349 . S
C498 H492 0.950 . S
C498 C499 1.327 . S
C499 H493 0.950 . S
C499 C498 1.327 . S
C499 C503 1.429 . S
C500 C483 1.574 . S
C500 H494 0.949 . S
C500 C504 1.368 . S
C501 C482 1.429 . S
C501 C495 1.429 . S
C501 C502 1.523 . S
C502 C483 1.368 . S
C502 C496 1.368 . S
C502 C501 1.523 . S
C503 C487 1.429 . S
C503 C499 1.429 . S
C503 C504 1.523 . S
C504 C488 1.368 . S
C504 C500 1.368 . S
C504 C503 1.523 . S
H505 C480 0.950 . S
H506 C482 0.950 . S
H507 C483 0.949 . S
H508 C485 0.950 . S
H509 C487 0.950 . S
C510 C511 1.349 . S
C510 C512 1.327 . S
C510 H535 0.950 . S
C511 C510 1.349 . S
C511 C527 1.349 . S
C512 C510 1.327 . S
C512 C531 1.429 . S
C512 H536 0.950 . S
C513 C530 1.574 . S
C513 C532 1.368 . S
C513 H537 0.949 . S
H514 C518 0.949 . S
C515 C516 1.349 . S
C515 C517 1.327 . S
C515 H538 0.950 . S
C516 C515 1.349 . S
C516 C528 1.349 . S
C517 C515 1.327 . S
C517 C533 1.429 . S
C517 H539 0.950 . S
C518 H514 0.949 . S
C518 C526 1.574 . S
C518 C534 1.368 . S
H519 C527 0.950 . S
H520 C525 0.950 . S
H521 C526 0.949 . S
H522 C528 0.950 . S
H523 C529 0.950 . S
H524 C530 0.949 . S
C525 H520 0.950 . S
C525 C527 1.327 . S
C525 C531 1.429 . S
C526 C518 1.574 . S
C526 H521 0.949 . S
C526 C532 1.368 . S
C527 C511 1.349 . S
C527 H519 0.950 . S
C527 C525 1.327 . S
C528 C516 1.349 . S
C528 H522 0.950 . S
C528 C529 1.327 . S
C529 H523 0.950 . S
C529 C528 1.327 . S
C529 C533 1.429 . S
C530 C513 1.574 . S
C530 H524 0.949 . S
C530 C534 1.368 . S
C531 C512 1.429 . S
C531 C525 1.429 . S
C531 C532 1.523 . S
C532 C513 1.368 . S
C532 C526 1.368 . S
C532 C531 1.523 . S
C533 C517 1.429 . S
C533 C529 1.429 . S
C533 C534 1.523 . S
C534 C518 1.368 . S
C534 C530 1.368 . S
C534 C533 1.523 . S
H535 C510 0.950 . S
H536 C512 0.950 . S
H537 C513 0.949 . S
H538 C515 0.950 . S
H539 C517 0.950 . S
C540 C541 1.349 1_556 S
C540 C542 1.327 . S
C540 H565 0.950 . S
C541 C540 1.349 1_554 S
C541 C557 1.349 . S
C542 C540 1.327 . S
C542 C561 1.429 . S
C542 H566 0.950 . S
C543 C560 1.574 . S
C543 C562 1.368 1_455 S
C543 H567 0.949 1_556 S
H544 C548 0.949 . S
C545 C546 1.349 . S
C545 C547 1.327 . S
C545 H568 0.950 . S
C546 C545 1.349 . S
C546 C558 1.349 1_455 S
C547 C545 1.327 . S
C547 C563 1.429 . S
C547 H569 0.950 . S
C548 H544 0.949 . S
C548 C556 1.574 . S
C548 C564 1.368 . S
H549 C557 0.950 . S
H550 C555 0.950 1_455 S
H551 C556 0.949 . S
H552 C558 0.950 . S
H553 C559 0.950 . S
H554 C560 0.949 . S
C555 H550 0.950 1_655 S
C555 C557 1.327 . S
C555 C561 1.429 1_554 S
C556 C548 1.574 . S
C556 H551 0.949 . S
C556 C562 1.368 . S
C557 C541 1.349 . S
C557 H549 0.950 . S
C557 C555 1.327 . S
C558 C546 1.349 1_655 S
C558 H552 0.950 . S
C558 C559 1.327 . S
C559 H553 0.950 . S
C559 C558 1.327 . S
C559 C563 1.429 1_655 S
C560 C543 1.574 . S
C560 H554 0.949 . S
C560 C564 1.368 1_455 S
C561 C542 1.429 . S
C561 C555 1.429 1_556 S
C561 C562 1.523 . S
C562 C543 1.368 1_655 S
C562 C556 1.368 . S
C562 C561 1.523 . S
C563 C547 1.429 . S
C563 C559 1.429 1_455 S
C563 C564 1.523 1_455 S
C564 C548 1.368 . S
C564 C560 1.368 1_655 S
C564 C563 1.523 1_655 S
H565 C540 0.950 . S
H566 C542 0.950 . S
H567 C543 0.949 1_554 S
H568 C545 0.950 . S
H569 C547 0.950 . S
C570 C571 1.349 . S
C570 C572 1.327 . S
C570 H595 0.950 . S
C571 C570 1.349 . S
C571 C587 1.349 . S
C572 C570 1.327 . S
C572 C591 1.429 1_554 S
C572 H596 0.950 . S
C573 C590 1.574 . S
C573 C592 1.368 1_545 S
C573 H597 0.949 . S
H574 C578 0.949 . S
C575 C576 1.349 . S
C575 C577 1.327 . S
C575 H598 0.950 . S
C576 C575 1.349 . S
C576 C588 1.349 1_545 S
C577 C575 1.327 . S
C577 C593 1.429 . S
C577 H599 0.950 . S
C578 H574 0.949 . S
C578 C586 1.574 . S
C578 C594 1.368 . S
H579 C587 0.927 1_545 S
H580 C585 0.946 1_546 S
H581 C586 0.949 . S
H582 C588 0.950 . S
H583 C589 0.950 . S
H584 C590 0.949 . S
C585 H580 0.946 1_564 S
C585 C587 1.334 . S
C585 C591 1.426 1_554 S
C586 C578 1.574 . S
C586 H581 0.949 . S
C586 C592 1.368 . S
C587 C571 1.349 . S
C587 H579 0.927 1_565 S
C587 C585 1.334 . S
C588 C576 1.349 1_565 S
C588 H582 0.950 . S
C588 C589 1.327 . S
C589 H583 0.950 . S
C589 C588 1.327 . S
C589 C593 1.429 1_565 S
C590 C573 1.574 . S
C590 H584 0.949 . S
C590 C594 1.368 1_545 S
C591 C572 1.429 1_556 S
C591 C585 1.426 1_556 S
C591 C592 1.523 . S
C592 C573 1.368 1_565 S
C592 C586 1.368 . S
C592 C591 1.523 . S
C593 C577 1.429 . S
C593 C589 1.429 1_545 S
C593 C594 1.523 1_545 S
C594 C578 1.368 . S
C594 C590 1.368 1_565 S
C594 C593 1.523 1_565 S
H595 C570 0.950 . S
H596 C572 0.950 . S
H597 C573 0.949 . S
H598 C575 0.950 . S
H599 C577 0.950 . S
C600 C601 1.349 1_556 S
C600 C602 1.327 . S
C600 H625 0.950 . S
C601 C600 1.349 1_554 S
C601 C617 1.349 . S
C602 C600 1.327 . S
C602 C621 1.429 . S
C602 H626 0.950 . S
C603 C620 1.574 . S
C603 C622 1.368 . S
C603 H627 0.949 1_556 S
H604 C608 0.949 . S
C605 C606 1.349 . S
C605 C607 1.327 . S
C605 H628 0.950 . S
C606 C605 1.349 . S
C606 C618 1.349 . S
C607 C605 1.327 . S
C607 C623 1.429 . S
C607 H629 0.950 . S
C608 H604 0.949 . S
C608 C616 1.574 . S
C608 C624 1.368 . S
H609 C617 0.950 . S
H610 C615 0.950 . S
H611 C616 0.949 . S
H612 C618 0.950 . S
H613 C619 0.950 . S
H614 C620 0.949 . S
C615 H610 0.950 . S
C615 C617 1.327 . S
C615 C621 1.429 1_554 S
C616 C608 1.574 . S
C616 H611 0.949 . S
C616 C622 1.368 . S
C617 C601 1.349 . S
C617 H609 0.950 . S
C617 C615 1.327 . S
C618 C606 1.349 . S
C618 H612 0.950 . S
C618 C619 1.327 . S
C619 H613 0.950 . S
C619 C618 1.327 . S
C619 C623 1.429 . S
C620 C603 1.574 . S
C620 H614 0.949 . S
C620 C624 1.368 . S
C621 C602 1.429 . S
C621 C615 1.429 1_556 S
C621 C622 1.523 . S
C622 C603 1.368 . S
C622 C616 1.368 . S
C622 C621 1.523 . S
C623 C607 1.429 . S
C623 C619 1.429 . S
C623 C624 1.523 . S
C624 C608 1.368 . S
C624 C620 1.368 . S
C624 C623 1.523 . S
H625 C600 0.950 . S
H626 C602 0.950 . S
H627 C603 0.949 1_554 S
H628 C605 0.950 . S
H629 C607 0.950 . S
C630 C631 1.349 1_556 S
C630 C632 1.327 . S
C630 H655 0.950 . S
C631 C630 1.349 1_554 S
C631 C647 1.349 . S
C632 C630 1.327 . S
C632 C651 1.429 . S
C632 H656 0.950 . S
C633 C650 1.574 . S
C633 C652 1.368 . S
C633 H657 0.949 1_556 S
H634 C638 0.949 . S
C635 C636 1.349 . S
C635 C637 1.327 . S
C635 H658 0.950 . S
C636 C635 1.349 . S
C636 C648 1.349 . S
C637 C635 1.327 . S
C637 C653 1.429 . S
C637 H659 0.950 . S
C638 H634 0.949 . S
C638 C646 1.574 . S
C638 C654 1.368 . S
H639 C647 0.950 . S
H640 C645 0.950 . S
H641 C646 0.949 . S
H642 C648 0.950 . S
H643 C649 0.950 . S
H644 C650 0.949 . S
C645 H640 0.950 . S
C645 C647 1.327 . S
C645 C651 1.429 1_554 S
C646 C638 1.574 . S
C646 H641 0.949 . S
C646 C652 1.368 . S
C647 C631 1.349 . S
C647 H639 0.950 . S
C647 C645 1.327 . S
C648 C636 1.349 . S
C648 H642 0.950 . S
C648 C649 1.327 . S
C649 H643 0.950 . S
C649 C648 1.327 . S
C649 C653 1.429 . S
C650 C633 1.574 . S
C650 H644 0.949 . S
C650 C654 1.368 . S
C651 C632 1.429 . S
C651 C645 1.429 1_556 S
C651 C652 1.523 . S
C652 C633 1.368 . S
C652 C646 1.368 . S
C652 C651 1.523 . S
C653 C637 1.429 . S
C653 C649 1.429 . S
C653 C654 1.523 . S
C654 C638 1.368 . S
C654 C650 1.368 . S
C654 C653 1.523 . S
H655 C630 0.950 . S
H656 C632 0.950 . S
H657 C633 0.949 1_554 S
H658 C635 0.950 . S
H659 C637 0.950 . S
C660 C661 1.349 . S
C660 C662 1.327 . S
C660 H685 0.950 . S
C661 C660 1.349 . S
C661 C677 1.349 . S
C662 C660 1.327 . S
C662 C681 1.429 . S
C662 H686 0.950 . S
C663 C680 1.574 . S
C663 C682 1.368 . S
C663 H687 0.949 . S
H664 C668 0.949 . S
C665 C666 1.349 . S
C665 C667 1.327 . S
C665 H688 0.950 . S
C666 C665 1.349 . S
C666 C678 1.349 . S
C667 C665 1.327 . S
C667 C683 1.429 . S
C667 H689 0.950 1_556 S
C668 H664 0.949 . S
C668 C676 1.574 1_556 S
C668 C684 1.368 . S
H669 C677 0.950 . S
H670 C675 0.950 . S
H671 C676 0.949 . S
H672 C678 0.950 . S
H673 C679 0.950 . S
H674 C680 0.949 . S
C675 H670 0.950 . S
C675 C677 1.327 . S
C675 C681 1.429 . S
C676 C668 1.574 1_554 S
C676 H671 0.949 . S
C676 C682 1.368 . S
C677 C661 1.349 . S
C677 H669 0.950 . S
C677 C675 1.327 . S
C678 C666 1.349 . S
C678 H672 0.950 . S
C678 C679 1.327 . S
C679 H673 0.950 . S
C679 C678 1.327 . S
C679 C683 1.429 . S
C680 C663 1.574 . S
C680 H674 0.949 . S
C680 C684 1.368 1_554 S
C681 C662 1.429 . S
C681 C675 1.429 . S
C681 C682 1.523 . S
C682 C663 1.368 . S
C682 C676 1.368 . S
C682 C681 1.523 . S
C683 C667 1.429 . S
C683 C679 1.429 . S
C683 C684 1.523 . S
C684 C668 1.368 . S
C684 C680 1.368 1_556 S
C684 C683 1.523 . S
H685 C660 0.950 . S
H686 C662 0.950 . S
H687 C663 0.949 . S
H688 C665 0.950 . S
H689 C667 0.950 1_554 S
C690 C691 1.349 . S
C690 C692 1.327 . S
C690 H715 0.950 . S
C691 C690 1.349 . S
C691 C707 1.349 . S
C692 C690 1.327 . S
C692 C711 1.429 . S
C692 H716 0.950 . S
C693 C710 1.573 . S
C693 C712 1.368 . S
C693 H717 0.949 . S
H694 C698 0.949 . S
C695 C696 1.349 . S
C695 C697 1.327 . S
C695 H718 0.935 1_545 S
C696 C695 1.349 . S
C696 C708 1.349 . S
C697 C695 1.327 . S
C697 C713 1.429 . S
C697 H719 0.950 . S
C698 H694 0.949 . S
C698 C706 1.574 . S
C698 C714 1.368 1_554 S
H699 C707 0.950 . S
H700 C705 0.950 . S
H701 C706 0.949 . S
H702 C708 0.950 . S
H703 C709 0.950 . S
H704 C710 0.950 1_556 S
C705 H700 0.950 . S
C705 C707 1.327 . S
C705 C711 1.429 . S
C706 C698 1.574 . S
C706 H701 0.949 . S
C706 C712 1.368 . S
C707 C691 1.349 . S
C707 H699 0.950 . S
C707 C705 1.327 . S
C708 C696 1.349 . S
C708 H702 0.950 . S
C708 C709 1.327 . S
C709 H703 0.950 . S
C709 C708 1.327 . S
C709 C713 1.429 . S
C710 C693 1.573 . S
C710 H704 0.950 1_554 S
C710 C714 1.368 1_554 S
C711 C692 1.429 . S
C711 C705 1.429 . S
C711 C712 1.523 . S
C712 C693 1.368 . S
C712 C706 1.368 . S
C712 C711 1.523 . S
C713 C697 1.429 . S
C713 C709 1.429 . S
C713 C714 1.523 . S
C714 C698 1.368 1_556 S
C714 C710 1.368 1_556 S
C714 C713 1.523 . S
H715 C690 0.950 . S
H716 C692 0.950 . S
H717 C693 0.949 . S
H718 C695 0.935 1_565 S
H719 C697 0.950 . S
C720 C721 1.349 . S
C720 C722 1.327 . S
C720 H745 0.950 . S
C721 C720 1.349 . S
C721 C737 1.349 . S
C722 C720 1.327 . S
C722 C741 1.429 . S
C722 H746 0.950 . S
C723 C740 1.574 1_554 S
C723 C742 1.368 . S
C723 H747 0.949 . S
H724 C728 0.949 . S
C725 C726 1.349 . S
C725 C727 1.327 . S
C725 H748 0.950 . S
C726 C725 1.349 . S
C726 C738 1.349 . S
C727 C725 1.327 . S
C727 C743 1.429 . S
C727 H749 0.950 . S
C728 H724 0.949 . S
C728 C736 1.574 . S
C728 C744 1.368 1_554 S
H729 C737 0.950 . S
H730 C735 0.950 . S
H731 C736 0.949 . S
H732 C738 0.950 . S
H733 C739 0.950 . S
H734 C740 0.949 . S
C735 H730 0.950 . S
C735 C737 1.327 . S
C735 C741 1.429 . S
C736 C728 1.574 . S
C736 H731 0.949 . S
C736 C742 1.368 . S
C737 C721 1.349 . S
C737 H729 0.950 . S
C737 C735 1.327 . S
C738 C726 1.349 . S
C738 H732 0.950 . S
C738 C739 1.327 . S
C739 H733 0.950 . S
C739 C738 1.327 . S
C739 C743 1.429 . S
C740 C723 1.574 1_556 S
C740 H734 0.949 . S
C740 C744 1.368 . S
C741 C722 1.429 . S
C741 C735 1.429 . S
C741 C742 1.523 . S
C742 C723 1.368 . S
C742 C736 1.368 . S
C742 C741 1.523 . S
C743 C727 1.429 . S
C743 C739 1.429 . S
C743 C744 1.523 . S
C744 C728 1.368 1_556 S
C744 C740 1.368 . S
C744 C743 1.523 . S
H745 C720 0.950 . S
H746 C722 0.950 . S
H747 C723 0.949 . S
H748 C725 0.950 . S
H749 C727 0.950 . S
C750 C751 1.349 . S
C750 C752 1.327 . S
C750 H775 0.950 . S
C751 C750 1.349 . S
C751 C767 1.349 . S
C752 C750 1.327 . S
C752 C771 1.429 . S
C752 H776 0.950 . S
C753 C770 1.574 1_554 S
C753 C772 1.368 . S
C753 H777 0.949 . S
H754 C758 0.949 . S
C755 C756 1.349 . S
C755 C757 1.327 . S
C755 H778 0.950 . S
C756 C755 1.349 . S
C756 C768 1.349 . S
C757 C755 1.327 . S
C757 C773 1.429 . S
C757 H779 0.950 . S
C758 H754 0.949 . S
C758 C766 1.574 . S
C758 C774 1.368 1_554 S
H759 C767 0.950 . S
H760 C765 0.950 . S
H761 C766 0.949 . S
H762 C768 0.950 . S
H763 C769 0.950 . S
H764 C770 0.949 . S
C765 H760 0.950 . S
C765 C767 1.327 . S
C765 C771 1.429 . S
C766 C758 1.574 . S
C766 H761 0.949 . S
C766 C772 1.368 . S
C767 C751 1.349 . S
C767 H759 0.950 . S
C767 C765 1.327 . S
C768 C756 1.349 . S
C768 H762 0.950 . S
C768 C769 1.327 . S
C769 H763 0.950 . S
C769 C768 1.327 . S
C769 C773 1.429 . S
C770 C753 1.574 1_556 S
C770 H764 0.949 . S
C770 C774 1.368 . S
C771 C752 1.429 . S
C771 C765 1.429 . S
C771 C772 1.523 . S
C772 C753 1.368 . S
C772 C766 1.368 . S
C772 C771 1.523 . S
C773 C757 1.429 . S
C773 C769 1.429 . S
C773 C774 1.523 . S
C774 C758 1.368 1_556 S
C774 C770 1.368 . S
C774 C773 1.523 . S
H775 C750 0.950 . S
H776 C752 0.950 . S
H777 C753 0.949 . S
H778 C755 0.950 . S
H779 C757 0.950 . S
C780 C781 1.349 . S
C780 C782 1.327 . S
C780 H805 0.950 . S
C781 C780 1.349 . S
C781 C797 1.349 . S
C782 C780 1.327 . S
C782 C801 1.429 . S
C782 H806 0.950 . S
C783 C800 1.574 . S
C783 C802 1.368 . S
C783 H807 0.949 . S
H784 C788 0.949 . S
C785 C786 1.349 . S
C785 C787 1.327 . S
C785 H808 0.950 1_655 S
C786 C785 1.349 . S
C786 C798 1.349 . S
C787 C785 1.327 . S
C787 C803 1.429 . S
C787 H809 0.945 1_655 S
C788 H784 0.949 . S
C788 C796 1.574 . S
C788 C804 1.368 . S
H789 C797 0.950 . S
H790 C795 0.950 . S
H791 C796 0.949 . S
H792 C798 0.950 . S
H793 C799 0.950 . S
H794 C800 0.949 . S
C795 H790 0.950 . S
C795 C797 1.327 . S
C795 C801 1.429 . S
C796 C788 1.574 . S
C796 H791 0.949 . S
C796 C802 1.368 . S
C797 C781 1.349 . S
C797 H789 0.950 . S
C797 C795 1.327 . S
C798 C786 1.349 . S
C798 H792 0.950 . S
C798 C799 1.327 . S
C799 H793 0.950 . S
C799 C798 1.327 . S
C799 C803 1.429 . S
C800 C783 1.574 . S
C800 H794 0.949 . S
C800 C804 1.368 . S
C801 C782 1.429 . S
C801 C795 1.429 . S
C801 C802 1.523 . S
C802 C783 1.368 . S
C802 C796 1.368 . S
C802 C801 1.523 . S
C803 C787 1.429 . S
C803 C799 1.429 . S
C803 C804 1.523 . S
C804 C788 1.368 . S
C804 C800 1.368 . S
C804 C803 1.523 . S
H805 C780 0.950 . S
H806 C782 0.950 . S
H807 C783 0.949 . S
H808 C785 0.950 1_455 S
H809 C787 0.945 1_455 S
C810 C811 1.349 . S
C810 C812 1.327 . S
C810 H835 0.950 1_565 S
C811 C810 1.349 . S
C811 C827 1.349 . S
C812 C810 1.327 . S
C812 C831 1.429 . S
C812 H836 0.950 1_565 S
C813 C830 1.574 . S
C813 C832 1.368 . S
C813 H837 0.949 . S
H814 C818 0.949 . S
C815 C816 1.349 . S
C815 C817 1.327 . S
C815 H838 0.950 . S
C816 C815 1.349 . S
C816 C828 1.349 1_565 S
C817 C815 1.327 . S
C817 C833 1.429 . S
C817 H839 0.950 . S
C818 H814 0.949 . S
C818 C826 1.574 . S
C818 C834 1.368 1_545 S
H819 C827 0.950 . S
H820 C825 0.950 . S
H821 C826 0.949 . S
H822 C828 0.950 . S
H823 C829 0.950 . S
H824 C830 0.949 . S
C825 H820 0.950 . S
C825 C827 1.327 . S
C825 C831 1.429 . S
C826 C818 1.574 . S
C826 H821 0.949 . S
C826 C832 1.369 1_545 S
C827 C811 1.349 . S
C827 H819 0.950 . S
C827 C825 1.327 . S
C828 C816 1.349 1_545 S
C828 H822 0.950 . S
C828 C829 1.327 . S
C829 H823 0.950 . S
C829 C828 1.327 . S
C829 C833 1.429 1_545 S
C830 C813 1.574 . S
C830 H824 0.949 . S
C830 C834 1.368 . S
C831 C812 1.429 . S
C831 C825 1.429 . S
C831 C832 1.523 . S
C832 C813 1.368 . S
C832 C826 1.369 1_565 S
C832 C831 1.523 . S
C833 C817 1.429 . S
C833 C829 1.429 1_565 S
C833 C834 1.523 . S
C834 C818 1.368 1_565 S
C834 C830 1.368 . S
C834 C833 1.523 . S
H835 C810 0.950 1_545 S
H836 C812 0.950 1_545 S
H837 C813 0.949 . S
H838 C815 0.950 . S
H839 C817 0.950 . S
C840 C841 1.349 . S
C840 C842 1.327 . S
C840 H865 0.950 . S
C841 C840 1.349 . S
C841 C857 1.349 . S
C842 C840 1.327 . S
C842 C861 1.429 . S
C842 H866 0.950 . S
C843 C860 1.574 . S
C843 C862 1.368 . S
C843 H867 0.949 . S
H844 C848 0.949 . S
C845 C846 1.349 . S
C845 C847 1.327 . S
C845 H868 0.950 . S
C846 C845 1.349 . S
C846 C858 1.349 . S
C847 C845 1.327 . S
C847 C863 1.429 . S
C847 H869 0.950 . S
C848 H844 0.949 . S
C848 C856 1.574 . S
C848 C864 1.368 . S
H849 C857 0.950 . S
H850 C855 0.950 . S
H851 C856 0.949 . S
H852 C858 0.950 . S
H853 C859 0.950 . S
H854 C860 0.949 . S
C855 H850 0.950 . S
C855 C857 1.327 . S
C855 C861 1.429 . S
C856 C848 1.574 . S
C856 H851 0.949 . S
C856 C862 1.368 . S
C857 C841 1.349 . S
C857 H849 0.950 . S
C857 C855 1.327 . S
C858 C846 1.349 . S
C858 H852 0.950 . S
C858 C859 1.327 . S
C859 H853 0.950 . S
C859 C858 1.327 . S
C859 C863 1.429 . S
C860 C843 1.574 . S
C860 H854 0.949 . S
C860 C864 1.368 . S
C861 C842 1.429 . S
C861 C855 1.429 . S
C861 C862 1.523 . S
C862 C843 1.368 . S
C862 C856 1.368 . S
C862 C861 1.523 . S
C863 C847 1.429 . S
C863 C859 1.429 . S
C863 C864 1.523 . S
C864 C848 1.368 . S
C864 C860 1.368 . S
C864 C863 1.523 . S
H865 C840 0.950 . S
H866 C842 0.950 . S
H867 C843 0.949 . S
H868 C845 0.950 . S
H869 C847 0.950 . S
C870 C871 1.349 . S
C870 C872 1.327 . S
C870 H895 0.950 . S
C871 C870 1.349 . S
C871 C887 1.349 . S
C872 C870 1.327 . S
C872 C891 1.429 . S
C872 H896 0.950 . S
C873 C890 1.574 . S
C873 C892 1.368 . S
C873 H897 0.949 . S
H874 C878 0.949 . S
C875 C876 1.349 . S
C875 C877 1.327 . S
C875 H898 0.950 . S
C876 C875 1.349 . S
C876 C888 1.349 . S
C877 C875 1.327 . S
C877 C893 1.429 . S
C877 H899 0.950 . S
C878 H874 0.949 . S
C878 C886 1.574 . S
C878 C894 1.368 . S
H879 C887 0.950 . S
H880 C885 0.950 . S
H881 C886 0.949 . S
H882 C888 0.950 . S
H883 C889 0.950 . S
H884 C890 0.949 . S
C885 H880 0.950 . S
C885 C887 1.327 . S
C885 C891 1.429 . S
C886 C878 1.574 . S
C886 H881 0.949 . S
C886 C892 1.368 . S
C887 C871 1.349 . S
C887 H879 0.950 . S
C887 C885 1.327 . S
C888 C876 1.349 . S
C888 H882 0.950 . S
C888 C889 1.327 . S
C889 H883 0.950 . S
C889 C888 1.327 . S
C889 C893 1.429 . S
C890 C873 1.574 . S
C890 H884 0.949 . S
C890 C894 1.368 . S
C891 C872 1.429 . S
C891 C885 1.429 . S
C891 C892 1.523 . S
C892 C873 1.368 . S
C892 C886 1.368 . S
C892 C891 1.523 . S
C893 C877 1.429 . S
C893 C889 1.429 . S
C893 C894 1.523 . S
C894 C878 1.368 . S
C894 C890 1.368 . S
C894 C893 1.523 . S
H895 C870 0.950 . S
H896 C872 0.950 . S
H897 C873 0.949 . S
H898 C875 0.950 . S
H899 C877 0.950 . S
C181 C76 1.552 . S
C186 C112 1.411 . S
C216 C130 1.411 . S
C211 C88 1.553 . S
C246 C151 1.411 . S
C241 C52 1.552 . S
C276 C175 1.411 . S
C271 C64 1.552 . S
C306 C109 1.341 . S
C301 C28 1.486 . S
C331 C40 1.486 . S
C336 C133 1.341 . S
C361 C4 1.486 . S
C366 C154 1.341 . S
C391 C16 1.485 . S
C396 C172 1.340 . S
C426 C114 0.419 . S
C421 C69 0.428 . S
C456 C132 0.419 . S
C451 C81 0.428 . S
C486 C153 0.419 . S
C481 C93 0.428 . S
C511 C57 0.428 . S
C516 C177 0.419 . S
C541 C21 0.508 . S
C546 C113 0.475 . S
C576 C131 0.476 . S
C571 C33 0.508 . S
C606 C152 0.476 . S
C601 C45 0.508 . S
C631 C9 0.508 . S
C636 C176 0.476 . S
C661 C66 1.608 . S
C666 C110 1.568 . S
C691 C78 1.608 . S
C696 C134 1.568 . S
C726 C155 1.568 . S
C721 C90 1.608 . S
C756 C173 1.568 . S
C751 C54 1.609 . S
C781 C18 1.450 . S
C786 C111 1.417 1_655 S
C816 C135 1.417 1_565 S
C811 C30 1.450 . S
C846 C156 1.417 . S
C841 C42 1.450 . S
C871 C6 1.450 . S
C876 C174 1.417 . S
