# Generated by pormake.
# Topology zzz, (3,6)-cn, num edge types: 1
# Building blocks:
#     Node 0, Type 0, BuildingBlock: QEWDON_clean_linker_0, # of connection points: 3
#     Node 1, Type 0, BuildingBlock: QEWDON_clean_linker_0, # of connection points: 3
#     Node 2, Type 0, BuildingBlock: QEWDON_clean_linker_0, # of connection points: 3
#     Node 3, Type 0, BuildingBlock: QEWDON_clean_linker_0, # of connection points: 3
#     Node 4, Type 0, BuildingBlock: QEWDON_clean_linker_0, # of connection points: 3
#     Node 5, Type 0, BuildingBlock: QEWDON_clean_linker_0, # of connection points: 3
#     Node 6, Type 0, BuildingBlock: QEWDON_clean_linker_0, # of connection points: 3
#     Node 7, Type 0, BuildingBlock: QEWDON_clean_linker_0, # of connection points: 3
#     Node 8, Type 1, BuildingBlock: MIFKUJ_clean_sbu_0, # of connection points: 6
#     Node 9, Type 1, BuildingBlock: MIFKUJ_clean_sbu_0, # of connection points: 6
#     Node 10, Type 1, BuildingBlock: MIFKUJ_clean_sbu_0, # of connection points: 6
#     Node 11, Type 1, BuildingBlock: MIFKUJ_clean_sbu_0, # of connection points: 6
#     Edge 12, Type (0, 1), BuildingBlock: MIFKUJ_clean_linker_0, # of connection points: 2
#     Edge 13, Type (0, 1), BuildingBlock: MIFKUJ_clean_linker_0, # of connection points: 2
#     Edge 14, Type (0, 1), BuildingBlock: MIFKUJ_clean_linker_0, # of connection points: 2
#     Edge 15, Type (0, 1), BuildingBlock: MIFKUJ_clean_linker_0, # of connection points: 2
#     Edge 16, Type (0, 1), BuildingBlock: MIFKUJ_clean_linker_0, # of connection points: 2
#     Edge 17, Type (0, 1), BuildingBlock: MIFKUJ_clean_linker_0, # of connection points: 2
#     Edge 18, Type (0, 1), BuildingBlock: MIFKUJ_clean_linker_0, # of connection points: 2
#     Edge 19, Type (0, 1), BuildingBlock: MIFKUJ_clean_linker_0, # of connection points: 2
#     Edge 20, Type (0, 1), BuildingBlock: MIFKUJ_clean_linker_0, # of connection points: 2
#     Edge 21, Type (0, 1), BuildingBlock: MIFKUJ_clean_linker_0, # of connection points: 2
#     Edge 22, Type (0, 1), BuildingBlock: MIFKUJ_clean_linker_0, # of connection points: 2
#     Edge 23, Type (0, 1), BuildingBlock: MIFKUJ_clean_linker_0, # of connection points: 2
#     Edge 24, Type (0, 1), BuildingBlock: MIFKUJ_clean_linker_0, # of connection points: 2
#     Edge 25, Type (0, 1), BuildingBlock: MIFKUJ_clean_linker_0, # of connection points: 2
#     Edge 26, Type (0, 1), BuildingBlock: MIFKUJ_clean_linker_0, # of connection points: 2
#     Edge 27, Type (0, 1), BuildingBlock: MIFKUJ_clean_linker_0, # of connection points: 2
#     Edge 28, Type (0, 1), BuildingBlock: MIFKUJ_clean_linker_0, # of connection points: 2
#     Edge 29, Type (0, 1), BuildingBlock: MIFKUJ_clean_linker_0, # of connection points: 2
#     Edge 30, Type (0, 1), BuildingBlock: MIFKUJ_clean_linker_0, # of connection points: 2
#     Edge 31, Type (0, 1), BuildingBlock: MIFKUJ_clean_linker_0, # of connection points: 2
#     Edge 32, Type (0, 1), BuildingBlock: MIFKUJ_clean_linker_0, # of connection points: 2
#     Edge 33, Type (0, 1), BuildingBlock: MIFKUJ_clean_linker_0, # of connection points: 2
#     Edge 34, Type (0, 1), BuildingBlock: MIFKUJ_clean_linker_0, # of connection points: 2
#     Edge 35, Type (0, 1), BuildingBlock: MIFKUJ_clean_linker_0, # of connection points: 2
# Relax obj value: 0.053
# Max RMSD: 0.100
# Mean RMSD: 0.040
data_MOF--net-zzz--node1-MIFKUJ_clean_sbu_0--node2-QEWDON_clean_linker_0--edge1-MIFKUJ_clean_linker_0
_symmetry_space_group_name_H-M    P1
_symmetry_Int_Tables_number       1
_symmetry_cell_setting            triclinic
loop_
_symmetry_equiv_pos_as_xyz
'x, y, z'
_cell_length_a     70.230201
_cell_length_b     70.099809
_cell_length_c     19.901847
_cell_angle_alpha  90.005191
_cell_angle_beta   89.856787
_cell_angle_gamma 90.046829
loop_
_atom_site_label
_atom_site_type_symbol
_atom_site_fract_x
_atom_site_fract_y
_atom_site_fract_z
_atom_type_partial_charge
H0 H 0.75418 0.50519 0.97788 0.0
C1 C 0.7614 0.50246 0.02495 0.0
C2 C 0.7789 0.49282 0.02409 0.0
C3 C 0.75377 0.50937 0.08596 0.0
H4 H 0.8027 0.48346 0.08314 0.0
C5 C 0.78871 0.49003 0.08429 0.0
C6 C 0.78195 0.49752 0.14473 0.0
C7 C 0.7644 0.50707 0.14575 0.0
C8 C 0.73534 0.51993 0.08638 0.0
H9 H 0.75918 0.51274 0.19295 0.0
C10 C 0.72013 0.51423 0.04467 0.0
C11 C 0.70278 0.52433 0.04471 0.0
C12 C 0.73293 0.536 0.12791 0.0
H13 H 0.74442 0.5411 0.15936 0.0
C14 C 0.71577 0.546 0.12832 0.0
H15 H 0.72161 0.50172 0.01313 0.0
C16 C 0.7008 0.54024 0.08716 0.0
H17 H 0.68776 0.54849 0.08764 0.0
H18 H 0.71414 0.55839 0.16025 0.0
H19 H 0.98056 0.7554 0.98557 0.0
C20 C 0.98318 0.765 0.02713 0.0
C21 C 0.98285 0.78466 0.01488 0.0
C22 C 0.98595 0.75797 0.09302 0.0
H23 H 0.98501 0.81266 0.05807 0.0
C24 C 0.9852 0.79744 0.06806 0.0
C25 C 0.98813 0.79105 0.13359 0.0
C26 C 0.98901 0.77131 0.1458 0.0
C27 C 0.98412 0.73701 0.10734 0.0
H28 H 0.9916 0.76648 0.19662 0.0
C29 C 0.98851 0.72299 0.05823 0.0
C30 C 0.98479 0.70349 0.07034 0.0
C31 C 0.9766 0.73087 0.16944 0.0
H32 H 0.97241 0.74096 0.20786 0.0
C33 C 0.97362 0.71156 0.18239 0.0
H34 H 0.99437 0.72715 0.01004 0.0
C35 C 0.97756 0.69798 0.13328 0.0
H36 H 0.97485 0.6831 0.14445 0.0
H37 H 0.96783 0.70713 0.23039 0.0
H38 H 0.75723 1.00072 0.9875 0.0
C39 C 0.74963 1.00192 0.03475 0.0
C40 C 0.73206 0.0114 0.03592 0.0
C41 C 0.75694 0.99339 0.09349 0.0
H42 H 0.7076 0.01881 0.09559 0.0
C43 C 0.72161 0.01226 0.09573 0.0
C44 C 0.72803 0.0032 0.15395 0.0
C45 C 0.74578 0.99393 0.15301 0.0
C46 C 0.77562 0.9831 0.09146 0.0
H47 H 0.75078 0.98722 0.19868 0.0
C48 C 0.79079 0.98946 0.04998 0.0
C49 C 0.80828 0.97956 0.04807 0.0
C50 C 0.77832 0.96654 0.1303 0.0
H51 H 0.76696 0.96081 0.16111 0.0
C52 C 0.79562 0.95681 0.12883 0.0
H53 H 0.78921 1.00229 0.02022 0.0
C54 C 0.8105 0.96324 0.08827 0.0
H55 H 0.82367 0.95521 0.08738 0.0
H56 H 0.79745 0.94407 0.15886 0.0
H57 H 0.50713 0.7584 0.0029 0.0
C58 C 0.505 0.75061 0.04933 0.0
C59 C 0.49645 0.73254 0.0469 0.0
C60 C 0.51165 0.7581 0.11079 0.0
H61 H 0.48882 0.70747 0.10342 0.0
C62 C 0.49454 0.72186 0.10588 0.0
C63 C 0.50177 0.72853 0.16669 0.0
C64 C 0.51015 0.74672 0.16947 0.0
C65 C 0.52137 0.77709 0.11234 0.0
H66 H 0.51565 0.75177 0.21704 0.0
C67 C 0.51535 0.79226 0.07055 0.0
C68 C 0.52498 0.80996 0.07074 0.0
C69 C 0.5372 0.77998 0.15433 0.0
H70 H 0.54262 0.76861 0.18571 0.0
C71 C 0.54667 0.79746 0.15508 0.0
H72 H 0.50301 0.79044 0.03863 0.0
C73 C 0.54069 0.81231 0.11367 0.0
H74 H 0.54866 0.82554 0.11429 0.0
H75 H 0.55892 0.79942 0.18729 0.0
H76 H 0.25946 0.51789 0.18695 0.0
C77 C 0.25019 0.5132 0.14677 0.0
C78 C 0.23041 0.51419 0.15611 0.0
C79 C 0.25793 0.50719 0.08468 0.0
H80 H 0.20304 0.50939 0.11035 0.0
C81 C 0.21836 0.50897 0.10323 0.0
C82 C 0.22561 0.50321 0.04104 0.0
C83 C 0.24539 0.50189 0.03224 0.0
C84 C 0.27896 0.50781 0.0732 0.0
H85 H 0.25091 0.4972 0.98413 0.0
C86 C 0.29193 0.5037 0.12547 0.0
C87 C 0.31175 0.50543 0.1153 0.0
C88 C 0.28623 0.51343 0.01027 0.0
H89 H 0.27682 0.51723 0.96941 0.0
C90 C 0.30579 0.51489 0.99965 0.0
H91 H 0.28664 0.499 0.17388 0.0
C92 C 0.31847 0.51103 0.05163 0.0
H93 H 0.33355 0.51289 0.04225 0.0
H94 H 0.31116 0.5194 0.95114 0.0
H95 H 0.99835 0.26102 0.17659 0.0
C96 C 0.00263 0.25242 0.13395 0.0
C97 C 0.00542 0.23278 0.14293 0.0
C98 C 0.00464 0.26066 0.06946 0.0
H99 H 0.01188 0.20607 0.09549 0.0
C100 C 0.01031 0.22133 0.08823 0.0
C101 C 0.01226 0.229 0.02396 0.0
C102 C 0.00945 0.24865 0.01452 0.0
C103 C 1.00089 0.28148 0.05873 0.0
H104 H 0.01112 0.25447 0.96444 0.0
C105 C 0.00539 0.29531 0.10822 0.0
C106 C 1.00193 0.31488 0.09659 0.0
C107 C 0.99249 0.28768 0.99834 0.0
H108 H 0.98818 0.27761 0.96008 0.0
C109 C 0.98916 0.307 0.98671 0.0
H110 H 0.01195 0.291 0.15501 0.0
C111 C 0.9939 0.32051 0.03517 0.0
H112 H 0.99089 0.33539 0.02516 0.0
H113 H 0.98269 0.31151 0.94002 0.0
H114 H 0.2562 0.00648 0.19342 0.0
C115 C 0.26452 0.00976 0.149 0.0
C116 C 0.28347 0.01554 0.15693 0.0
C117 C 0.25667 0.00757 0.08419 0.0
H118 H 0.30979 0.02244 0.10696 0.0
C119 C 0.29486 0.01882 0.10044 0.0
C120 C 0.28781 0.0159 0.03586 0.0
C121 C 0.26866 0.01054 0.02749 0.0
C122 C 0.2364 1.00118 0.07627 0.0
H123 H 0.26332 0.00858 0.977 0.0
C124 C 0.22219 0.00624 0.12377 0.0
C125 C 0.20325 0.99977 0.11674 0.0
C126 C 0.23118 0.98947 0.0218 0.0
H127 H 0.24161 0.9847 0.98544 0.0
C128 C 0.21244 0.98328 0.01424 0.0
H129 H 0.22568 0.01543 0.16569 0.0
C130 C 0.19858 0.98835 0.06114 0.0
H131 H 0.18424 0.98295 0.05469 0.0
H132 H 0.20869 0.97423 0.9722 0.0
H133 H 0.50479 0.25508 0.19656 0.0
C134 C 0.50237 0.2632 0.15106 0.0
C135 C 0.49484 0.28166 0.15631 0.0
C136 C 0.50744 0.25562 0.08777 0.0
H137 H 0.48756 0.30734 0.10316 0.0
C138 C 0.49252 0.29273 0.09847 0.0
C139 C 0.49831 0.286 0.03565 0.0
C140 C 0.50557 0.26738 0.03013 0.0
C141 C 0.51565 0.23596 0.0827 0.0
H142 H 0.50978 0.26223 0.98101 0.0
C143 C 0.5097 0.22114 0.1264 0.0
C144 C 0.51774 0.20273 0.12192 0.0
C145 C 0.52988 0.23194 0.03478 0.0
H146 H 0.53531 0.24294 0.00175 0.0
C147 C 0.53771 0.21372 0.02977 0.0
H148 H 0.49862 0.22376 0.16318 0.0
C149 C 0.53171 0.19922 0.07282 0.0
H150 H 0.53837 0.18534 0.06865 0.0
H151 H 0.54868 0.21089 0.99281 0.0
Zn152 Zn 1.00156 0.02735 0.56184 0.0
Zn153 Zn 0.01293 0.9871 0.63321 0.0
C154 C 0.99581 0.05512 0.65838 0.0
O155 O 0.97927 0.05319 0.62841 0.0
C156 C 0.01645 0.95956 0.53195 0.0
O157 O 0.03411 0.96194 0.55187 0.0
O158 O 0.99566 0.04862 0.49676 0.0
O159 O 0.02384 0.01368 0.51805 0.0
O160 O 0.03758 1.00007 0.60506 0.0
C161 C 0.01016 0.05932 0.4888 0.0
O162 O 0.02636 0.05414 0.51623 0.0
O163 O 0.0091 0.0435 0.64299 0.0
C164 C 0.00338 0.958 0.72015 0.0
O165 O 0.98682 0.96541 0.70442 0.0
O166 O 0.01849 0.96611 0.69921 0.0
O167 O 0.99196 1.00289 0.67699 0.0
O168 O 0.97748 0.0127 0.58571 0.0
O169 O 0.00354 0.97036 0.55616 0.0
C170 C 0.03868 0.00717 0.54636 0.0
C171 C 0.97667 0.00721 0.64654 0.0
Zn172 Zn 0.48789 1.0012 0.56719 0.0
Zn173 Zn 0.52887 0.01324 0.62985 0.0
C174 C 0.4624 0.99883 0.67531 0.0
O175 O 0.464 0.98104 0.65532 0.0
C176 C 0.55584 0.01806 0.52769 0.0
O177 O 0.55359 0.03536 0.55188 0.0
O178 O 0.46593 0.99522 0.506 0.0
O179 O 0.50257 0.02153 0.51638 0.0
O180 O 0.51341 0.03666 0.60468 0.0
C181 C 0.45655 0.01031 0.49322 0.0
O182 O 0.4629 0.02669 0.51623 0.0
O183 O 0.47307 0.01139 0.6481 0.0
C184 C 0.56253 0.00886 0.69921 0.0
O185 O 0.55916 0.9917 0.67538 0.0
O186 O 0.54998 0.02174 0.69115 0.0
O187 O 0.51654 0.99064 0.67739 0.0
O188 O 0.50133 0.97682 0.59362 0.0
O189 O 0.54482 0.0049 0.54894 0.0
C190 C 0.50737 0.03703 0.5446 0.0
C191 C 0.50918 0.97583 0.65104 0.0
Zn192 Zn 0.50864 0.48579 0.56916 0.0
Zn193 Zn 0.49749 0.52746 0.63278 0.0
C194 C 0.51444 0.46118 0.67626 0.0
O195 O 0.53129 0.46268 0.6479 0.0
C196 C 0.48956 0.55405 0.53265 0.0
O197 O 0.47321 0.55176 0.56389 0.0
O198 O 0.5126 0.463 0.50927 0.0
O199 O 0.48734 0.50013 0.52411 0.0
O200 O 0.47356 0.51211 0.61369 0.0
C201 C 0.49717 0.45357 0.5041 0.0
O202 O 0.48165 0.4604 0.53212 0.0
O203 O 0.50102 0.47182 0.65499 0.0
C204 C 0.50519 0.55974 0.70764 0.0
O205 O 0.52151 0.55595 0.6781 0.0
O206 O 0.49133 0.54829 0.69918 0.0
O207 O 0.52096 0.51466 0.67197 0.0
O208 O 0.53337 0.49964 0.58492 0.0
O209 O 0.50351 0.54349 0.5498 0.0
C210 C 0.47234 0.50524 0.55478 0.0
C211 C 0.5353 0.50748 0.64206 0.0
Zn212 Zn 0.03469 0.51144 0.5745 0.0
Zn213 Zn 0.98324 0.50241 0.60389 0.0
C214 C 0.0543 0.5053 0.69578 0.0
O215 O 0.05115 0.52374 0.69939 0.0
C216 C 0.95664 0.49212 0.50616 0.0
O217 O 0.96088 0.47564 0.53377 0.0
O218 O 0.05872 0.52044 0.53011 0.0
O219 O 0.02078 0.49429 0.50808 0.0
O220 O 1.00136 0.48067 0.58094 0.0
C221 C 0.06969 0.50759 0.50715 0.0
O222 O 0.06369 0.48983 0.50555 0.0
O223 O 0.0464 0.49581 0.64903 0.0
C224 C 0.95276 0.5052 0.6942 0.0
O225 O 0.95513 0.52313 0.67711 0.0
O226 O 0.96422 0.49272 0.6716 0.0
O227 O 0.99272 0.52791 0.63925 0.0
O228 O 0.02245 0.53519 0.61248 0.0
O229 O 0.96585 0.50687 0.52447 0.0
C230 C 0.01055 0.48016 0.5258 0.0
C231 C 0.00664 0.53953 0.6395 0.0
H232 H 0.20588 0.99758 0.25411 0.0
H233 H 0.18012 1.00132 0.33668 0.0
H234 H 0.14108 0.01528 0.17721 0.0
H235 H 0.16674 0.01175 0.09481 0.0
H236 H 0.13534 0.03783 0.28881 0.0
H237 H 0.14285 0.97069 0.23809 0.0
H238 H 0.16078 0.94055 0.22955 0.0
H239 H 0.17287 0.94269 0.44082 0.0
H240 H 0.15521 0.973 0.4504 0.0
H241 H 0.04452 0.0173 0.41555 0.0
H242 H 0.07429 0.01792 0.35294 0.0
H243 H 0.10455 0.99866 0.52861 0.0
H244 H 0.07448 0.99745 0.59161 0.0
H245 H 0.11727 0.98053 0.42089 0.0
H246 H 0.10658 0.04582 0.47492 0.0
H247 H 0.08777 0.07539 0.48413 0.0
H248 H 0.08173 0.07719 0.26961 0.0
H249 H 0.10024 0.04744 0.25913 0.0
C250 C 0.19189 1.00179 0.23685 0.0
C251 C 0.18832 0.00423 0.16784 0.0
C252 C 0.17714 0.00379 0.28402 0.0
C253 C 0.15858 0.00836 0.26312 0.0
C254 C 0.15524 0.0117 0.19461 0.0
C255 C 0.1699 0.00957 0.14749 0.0
C256 C 0.14235 0.00866 0.31161 0.0
C257 C 0.13133 0.02529 0.3175 0.0
C258 C 0.13737 0.99246 0.35047 0.0
C259 C 0.14792 0.97422 0.3448 0.0
C260 C 0.14947 0.96481 0.28261 0.0
C261 C 0.15955 0.94769 0.27759 0.0
C262 C 0.16801 0.93974 0.33457 0.0
C263 C 0.16635 0.94888 0.39671 0.0
C264 C 0.1563 0.96603 0.40197 0.0
C265 C 0.05747 0.0132 0.44121 0.0
C266 C 0.05706 0.00742 0.50894 0.0
C267 C 0.07457 0.01368 0.40526 0.0
C268 C 0.09182 0.00873 0.43625 0.0
C269 C 0.09147 1.00267 0.50362 0.0
C270 C 0.07427 1.00202 0.53965 0.0
C271 C 0.11003 0.00963 0.39746 0.0
C272 C 0.12141 0.99321 0.39322 0.0
C273 C 0.11539 0.02608 0.36042 0.0
C274 C 0.10472 0.04431 0.36629 0.0
C275 C 0.10118 0.05247 0.4297 0.0
C276 C 0.09056 0.06927 0.43516 0.0
C277 C 0.08352 0.07814 0.37751 0.0
C278 C 0.08718 0.07029 0.31424 0.0
C279 C 0.09776 0.05347 0.3085 0.0
H280 H 0.07525 0.09111 0.38185 0.0
H281 H 0.17581 0.92648 0.33059 0.0
H282 H 0.51335 0.20477 0.25878 0.0
H283 H 0.50805 0.1783 0.33728 0.0
H284 H 0.50487 0.13906 0.17077 0.0
H285 H 0.50988 0.16544 0.09224 0.0
H286 H 0.47848 0.13047 0.26866 0.0
H287 H 0.54586 0.14445 0.25486 0.0
H288 H 0.57416 0.16517 0.26266 0.0
H289 H 0.56174 0.17623 0.47041 0.0
H290 H 0.53319 0.15577 0.46354 0.0
H291 H 0.50123 0.04144 0.41018 0.0
H292 H 0.50008 0.07095 0.34579 0.0
H293 H 0.50992 0.10338 0.52668 0.0
H294 H 0.51179 0.07368 0.59138 0.0
H295 H 0.53056 0.11742 0.43023 0.0
H296 H 0.46491 0.10047 0.44787 0.0
H297 H 0.43705 0.07914 0.44036 0.0
H298 H 0.44565 0.07356 0.22763 0.0
H299 H 0.47373 0.09462 0.23394 0.0
C300 C 0.51114 0.19056 0.23888 0.0
C301 C 0.51221 0.18719 0.16929 0.0
C302 C 0.50824 0.17542 0.28381 0.0
C303 C 0.5063 0.15663 0.26 0.0
C304 C 0.50638 0.1534 0.1904 0.0
C305 C 0.50938 0.16848 0.14557 0.0
C306 C 0.50542 0.14015 0.30721 0.0
C307 C 0.48989 0.12755 0.30382 0.0
C308 C 0.52008 0.13654 0.35423 0.0
C309 C 0.53728 0.14877 0.35848 0.0
C310 C 0.54908 0.15143 0.30205 0.0
C311 C 0.56518 0.1631 0.30632 0.0
C312 C 0.56971 0.17206 0.36694 0.0
C313 C 0.55818 0.16932 0.42346 0.0
C314 C 0.54205 0.15768 0.41941 0.0
C315 C 0.50311 0.05483 0.4365 0.0
C316 C 0.50655 0.05517 0.50612 0.0
C317 C 0.50231 0.07176 0.39955 0.0
C318 C 0.50449 0.08951 0.43138 0.0
C319 C 0.50807 0.0899 0.50089 0.0
C320 C 0.50912 0.07291 0.53788 0.0
C321 C 0.50368 0.10753 0.39151 0.0
C322 C 0.51894 0.12043 0.39603 0.0
C323 C 0.4887 0.11141 0.34576 0.0
C324 C 0.47154 0.09905 0.34149 0.0
C325 C 0.46092 0.09462 0.39951 0.0
C326 C 0.44509 0.08257 0.39547 0.0
C327 C 0.43961 0.07495 0.33359 0.0
C328 C 0.44991 0.07945 0.27555 0.0
C329 C 0.46578 0.09147 0.27932 0.0
H330 H 0.42738 0.06558 0.33063 0.0
H331 H 0.58219 0.18109 0.37015 0.0
H332 H 0.30828 0.51567 0.24821 0.0
H333 H 0.33232 0.51298 0.33649 0.0
H334 H 0.37077 0.48613 0.19612 0.0
H335 H 0.34654 0.48785 0.10887 0.0
H336 H 0.37435 0.46988 0.3134 0.0
H337 H 0.37251 0.53502 0.23418 0.0
H338 H 0.35737 0.566 0.21002 0.0
H339 H 0.34286 0.57239 0.41853 0.0
H340 H 0.35772 0.54131 0.44376 0.0
H341 H 0.46587 0.49134 0.42915 0.0
H342 H 0.43589 0.48941 0.36894 0.0
H343 H 0.40648 0.51366 0.53919 0.0
H344 H 0.4368 0.51607 0.59997 0.0
H345 H 0.39522 0.52991 0.42299 0.0
H346 H 0.40255 0.46583 0.50165 0.0
H347 H 0.4197 0.43564 0.52075 0.0
H348 H 0.42572 0.42774 0.30787 0.0
H349 H 0.40888 0.45803 0.28741 0.0
C350 C 0.3217 0.50881 0.23649 0.0
C351 C 0.32553 0.50218 0.17106 0.0
C352 C 0.33552 0.50748 0.2869 0.0
C353 C 0.35354 0.49971 0.27272 0.0
C354 C 0.35705 0.4923 0.20835 0.0
C355 C 0.34322 0.49348 0.1582 0.0
C356 C 0.36912 0.50002 0.32338 0.0
C357 C 0.37894 0.48302 0.33717 0.0
C358 C 0.37491 0.51707 0.35578 0.0
C359 C 0.366 0.53575 0.3407 0.0
C360 C 0.36596 0.54297 0.27477 0.0
C361 C 0.35745 0.56055 0.2609 0.0
C362 C 0.3491 0.57113 0.31267 0.0
C363 C 0.34929 0.56416 0.37846 0.0
C364 C 0.35776 0.54657 0.39258 0.0
C365 C 0.45307 0.49625 0.4542 0.0
C366 C 0.45377 0.50384 0.51963 0.0
C367 C 0.43586 0.49499 0.4197 0.0
C368 C 0.41884 0.50105 0.4499 0.0
C369 C 0.41943 0.50876 0.51507 0.0
C370 C 0.43674 0.5101 0.54978 0.0
C371 C 0.40068 0.49986 0.41182 0.0
C372 C 0.39039 0.51669 0.40032 0.0
C373 C 0.39462 0.48269 0.3809 0.0
C374 C 0.40449 0.46427 0.39303 0.0
C375 C 0.40761 0.45771 0.45889 0.0
C376 C 0.41728 0.44057 0.46996 0.0
C377 C 0.42379 0.42978 0.41555 0.0
C378 C 0.42065 0.4361 0.34995 0.0
C379 C 0.41101 0.45324 0.33859 0.0
H380 H 0.43124 0.4165 0.42421 0.0
H381 H 0.34253 0.58474 0.30184 0.0
H382 H 0.02145 0.34821 0.07974 0.0
H383 H 0.02461 0.37456 0.15962 0.0
H384 H 0.99444 0.34177 0.30919 0.0
H385 H 0.9913 0.31524 0.22913 0.0
H386 H 0.97961 0.37833 0.29086 0.0
H387 H 0.04058 0.34999 0.33017 0.0
H388 H 0.07182 0.33665 0.29864 0.0
H389 H 0.08797 0.39022 0.2107 0.0
H390 H 0.05671 0.40382 0.24084 0.0
H391 H 0.99171 0.44662 0.55124 0.0
H392 H 0.99144 0.41759 0.48348 0.0
H393 H 0.02807 0.44455 0.33736 0.0
H394 H 0.02872 0.47357 0.4056 0.0
H395 H 0.03994 0.40964 0.35863 0.0
H396 H 0.9794 0.43738 0.30763 0.0
H397 H 0.94754 0.451 0.32784 0.0
H398 H 0.93034 0.39965 0.42885 0.0
H399 H 0.96215 0.38574 0.40937 0.0
C400 C 0.01574 0.34651 0.13001 0.0
C401 C 0.00611 0.32967 0.14821 0.0
C402 C 0.01761 0.36156 0.17569 0.0
C403 C 0.0098 0.36016 0.24052 0.0
C404 C 1.0006 0.34316 0.25948 0.0
C405 C 0.99893 0.32797 0.21394 0.0
C406 C 0.01019 0.37693 0.28651 0.0
C407 C 0.99281 0.38496 0.30686 0.0
C408 C 0.02739 0.38599 0.30536 0.0
C409 C 0.04622 0.37787 0.28728 0.0
C410 C 0.05072 0.35888 0.30361 0.0
C411 C 0.06845 0.35128 0.28608 0.0
C412 C 0.08185 0.36256 0.25256 0.0
C413 C 0.07757 0.38149 0.23662 0.0
C414 C 0.05985 0.38916 0.25399 0.0
C415 C 0.9997 0.44644 0.50463 0.0
C416 C 0.01021 0.46253 0.48396 0.0
C417 C 0.99944 0.42981 0.46564 0.0
C418 C 0.00955 0.42887 0.40468 0.0
C419 C 0.02014 0.44487 0.3841 0.0
C420 C 0.02045 0.4615 0.42316 0.0
C421 C 0.00931 0.41114 0.36297 0.0
C422 C 0.02672 0.40294 0.34323 0.0
C423 C 0.99212 0.40204 0.34386 0.0
C424 C 0.97321 0.4106 0.35767 0.0
C425 C 0.96889 0.42907 0.33477 0.0
C426 C 0.95081 0.43681 0.34583 0.0
C427 C 0.93694 0.4262 0.37971 0.0
C428 C 0.94111 0.40785 0.40265 0.0
C429 C 0.95914 0.40002 0.3915 0.0
H430 H 0.92293 0.43218 0.38808 0.0
H431 H 0.09557 0.35665 0.23904 0.0
H432 H 0.84582 0.98327 0.08116 0.0
H433 H 0.87259 0.99075 0.00693 0.0
H434 H 0.83395 0.99722 0.84045 0.0
H435 H 0.80699 0.98963 0.91485 0.0
H436 H 0.86542 0.97435 0.80952 0.0
H437 H 0.8539 0.03589 0.90532 0.0
H438 H 0.84854 0.05906 0.99664 0.0
H439 H 0.90343 0.04597 0.07919 0.0
H440 H 0.90901 0.02251 0.98889 0.0
H441 H 0.94028 0.00979 0.59593 0.0
H442 H 0.91018 0.00752 0.65854 0.0
H443 H 0.94139 1.00083 0.84333 0.0
H444 H 0.97135 1.00295 0.78155 0.0
H445 H 0.91176 0.02604 0.85719 0.0
H446 H 0.92237 0.96296 0.77218 0.0
H447 H 0.92855 0.93876 0.685 0.0
H448 H 0.87626 0.95358 0.58657 0.0
H449 H 0.86992 0.97812 0.67276 0.0
C450 C 0.84299 0.9864 0.02882 0.0
C451 C 0.82427 0.98585 0.00388 0.0
C452 C 0.85831 0.99075 0.98648 0.0
C453 C 0.85531 0.99463 0.91808 0.0
C454 C 0.83661 0.9943 0.89304 0.0
C455 C 0.82121 0.99012 0.93567 0.0
C456 C 0.87184 0.99841 0.87288 0.0
C457 C 0.87533 0.98591 0.81905 0.0
C458 C 0.88508 0.01317 0.8863 0.0
C459 C 0.88181 0.02733 0.94057 0.0
C460 C 0.86477 0.03784 0.94323 0.0
C461 C 0.8617 0.05105 0.99477 0.0
C462 C 0.87562 0.05396 0.04376 0.0
C463 C 0.89265 0.0437 0.04123 0.0
C464 C 0.89579 0.03046 0.98982 0.0
C465 C 0.94072 0.00791 0.64991 0.0
C466 C 0.95826 0.0065 0.68359 0.0
C467 C 0.92351 0.00656 0.68561 0.0
C468 C 0.92351 0.00393 0.75568 0.0
C469 C 0.941 1.0029 0.7894 0.0
C470 C 0.95814 0.00405 0.75381 0.0
C471 C 0.9054 1.00191 0.79422 0.0
C472 C 0.90167 0.01468 0.84698 0.0
C473 C 0.89206 0.98729 0.78023 0.0
C474 C 0.89579 0.97254 0.72841 0.0
C475 C 0.91228 0.96119 0.7316 0.0
C476 C 0.91579 0.94738 0.68244 0.0
C477 C 0.90283 0.94467 0.63014 0.0
C478 C 0.88631 0.95573 0.62704 0.0
C479 C 0.88274 0.96959 0.67603 0.0
H480 H 0.90557 0.93398 0.5921 0.0
H481 H 0.87322 0.06419 0.08362 0.0
H482 H 0.5139 0.80802 0.93841 0.0
H483 H 0.50743 0.8346 0.86189 0.0
H484 H 0.51733 0.87452 0.02302 0.0
H485 H 0.52308 0.84809 0.10009 0.0
H486 H 0.48844 0.88638 0.9486 0.0
H487 H 0.55213 0.86344 0.90514 0.0
H488 H 0.57628 0.83931 0.8756 0.0
H489 H 0.54882 0.82987 0.68593 0.0
H490 H 0.52435 0.85379 0.71477 0.0
H491 H 0.51774 0.97059 0.78356 0.0
H492 H 0.51677 0.941 0.84809 0.0
H493 H 0.49908 0.91019 0.67143 0.0
H494 H 0.49981 0.93991 0.60619 0.0
H495 H 0.52876 0.89211 0.74446 0.0
H496 H 0.46678 0.91757 0.78439 0.0
H497 H 0.44342 0.94245 0.81373 0.0
H498 H 0.46831 0.94787 0.00966 0.0
H499 H 0.49194 0.92308 0.98129 0.0
C500 C 0.51434 0.82244 0.95786 0.0
C501 C 0.51922 0.82589 0.02533 0.0
C502 C 0.51082 0.83765 0.91385 0.0
C503 C 0.51222 0.85663 0.93627 0.0
C504 C 0.51625 0.86005 0.00427 0.0
C505 C 0.51972 0.84489 0.04822 0.0
C506 C 0.51031 0.87301 0.88888 0.0
C507 C 0.49734 0.88764 0.90421 0.0
C508 C 0.52158 0.87456 0.8299 0.0
C509 C 0.5363 0.86023 0.81244 0.0
C510 C 0.55116 0.85611 0.85736 0.0
C511 C 0.56492 0.84249 0.84071 0.0
C512 C 0.56405 0.83302 0.77902 0.0
C513 C 0.54945 0.83719 0.73376 0.0
C514 C 0.53564 0.85078 0.75021 0.0
C515 C 0.51364 0.95755 0.75819 0.0
C516 C 0.50884 0.95766 0.68958 0.0
C517 C 0.51302 0.94064 0.79533 0.0
C518 C 0.50771 0.92341 0.76474 0.0
C519 C 0.50317 0.92335 0.69605 0.0
C520 C 0.50356 0.94035 0.65892 0.0
C521 C 0.50714 0.90552 0.80492 0.0
C522 C 0.51967 0.89067 0.78833 0.0
C523 C 0.49553 0.9038 0.86283 0.0
C524 C 0.48123 0.91857 0.8805 0.0
C525 C 0.46736 0.92415 0.83358 0.0
C526 C 0.45406 0.93823 0.85005 0.0
C527 C 0.45443 0.9468 0.91341 0.0
C528 C 0.46805 0.94123 0.96056 0.0
C529 C 0.48138 0.92713 0.94437 0.0
H530 H 0.44414 0.95773 0.926 0.0
H531 H 0.57471 0.82248 0.76621 0.0
H532 H 0.7045 0.51382 0.91208 0.0
H533 H 0.67783 0.50699 0.83659 0.0
H534 H 0.63835 0.51568 9e-05 0.0
H535 H 0.66491 0.5221 0.07596 0.0
H536 H 0.62789 0.48538 0.92266 0.0
H537 H 0.64725 0.55093 0.88851 0.0
H538 H 0.67 0.57665 0.86151 0.0
H539 H 0.67992 0.55193 0.66713 0.0
H540 H 0.6574 0.5259 0.69339 0.0
H541 H 0.54201 0.51441 0.77458 0.0
H542 H 0.57228 0.51315 0.83403 0.0
H543 H 0.60111 0.4982 0.64994 0.0
H544 H 0.57062 0.49917 0.58962 0.0
H545 H 0.61899 0.52813 0.72639 0.0
H546 H 0.59791 0.46414 0.75576 0.0
H547 H 0.57464 0.43876 0.78065 0.0
H548 H 0.56746 0.4606 0.98067 0.0
H549 H 0.59079 0.48613 0.95698 0.0
C550 C 0.69016 0.51396 0.93216 0.0
C551 C 0.68681 0.51866 -0.0001 0.0
C552 C 0.67492 0.51019 0.88887 0.0
C553 C 0.65607 0.51105 0.9125 0.0
C554 C 0.65276 0.51498 0.98067 0.0
C555 C 0.66795 0.51881 0.02385 0.0
C556 C 0.63969 0.50879 0.86597 0.0
C557 C 0.62593 0.49478 0.87994 0.0
C558 C 0.63733 0.52071 0.80908 0.0
C559 C 0.65084 0.53635 0.79323 0.0
C560 C 0.65441 0.55089 0.84024 0.0
C561 C 0.66723 0.56554 0.82503 0.0
C562 C 0.67644 0.56589 0.76273 0.0
C563 C 0.6728 0.55162 0.71543 0.0
C564 C 0.66001 0.53692 0.73043 0.0
C565 C 0.55474 0.51084 0.74647 0.0
C566 C 0.55388 0.50689 0.67724 0.0
C567 C 0.57203 0.51004 0.7807 0.0
C568 C 0.58889 0.50544 0.74649 0.0
C569 C 0.58821 0.50172 0.67722 0.0
C570 C 0.5708 0.50225 0.64294 0.0
C571 C 0.60714 0.50495 0.78379 0.0
C572 C 0.62117 0.5185 0.76835 0.0
C573 C 0.60978 0.4926 0.83916 0.0
C574 C 0.59599 0.47713 0.8544 0.0
C575 C 0.5913 0.46359 0.80496 0.0
C576 C 0.57812 0.44917 0.81887 0.0
C577 C 0.56947 0.44815 0.88203 0.0
C578 C 0.57415 0.46144 0.9317 0.0
C579 C 0.58742 0.47584 0.91815 0.0
H580 H 0.55917 0.43704 0.89241 0.0
H581 H 0.68636 0.57724 0.75103 0.0
H582 H 0.95976 0.67594 0.03224 0.0
H583 H 0.96482 0.64984 0.95318 0.0
H584 H 0.02115 0.67114 0.90958 0.0
H585 H 0.01596 0.69768 0.9885 0.0
H586 H 0.00431 0.65802 0.79657 0.0
H587 H 0.01477 0.63366 0.01733 0.0
H588 H 0.00744 0.62752 0.13662 0.0
H589 H 0.95757 0.59597 0.07999 0.0
H590 H 0.96443 0.60216 0.96034 0.0
H591 H 0.03337 0.56798 0.65351 0.0
H592 H 0.0308 0.59725 0.72 0.0
H593 H 0.9732 0.58238 0.77437 0.0
H594 H 0.97568 0.55314 0.70873 0.0
H595 H 0.99352 0.59249 0.88286 0.0
H596 H 0.98287 0.61807 0.66129 0.0
H597 H 0.99073 0.62418 0.54239 0.0
H598 H 0.04201 0.65299 0.60131 0.0
H599 H 0.03459 0.64682 0.72061 0.0
C600 C 0.97323 0.67511 0.00574 0.0
C601 C 0.98758 0.68871 0.01739 0.0
C602 C 0.97612 0.66015 0.96055 0.0
C603 C 0.99354 0.6582 0.9265 0.0
C604 C 0.00763 0.67225 0.93559 0.0
C605 C 0.00466 0.68741 0.98061 0.0
C606 C 0.99706 0.64114 0.88335 0.0
C607 C 0.00224 0.64368 0.81571 0.0
C608 C 0.99416 0.62237 0.9079 0.0
C609 C 0.99004 0.61851 0.97985 0.0
C610 C 0.00216 0.62552 0.03032 0.0
C611 C 0.9981 0.62202 0.098 0.0
C612 C 0.98203 0.61139 0.11588 0.0
C613 C 0.97001 0.60421 0.06607 0.0
C614 C 0.97398 0.6077 0.99831 0.0
C615 C 0.02007 0.57101 0.67903 0.0
C616 C 0.00472 0.55809 0.67555 0.0
C617 C 0.01862 0.58781 0.71694 0.0
C618 C 1.00177 0.59211 0.75208 0.0
C619 C 0.98637 0.5794 0.74785 0.0
C620 C 0.98778 0.56265 0.70995 0.0
C621 C 1.00036 0.60936 0.7957 0.0
C622 C 0.99565 0.60682 0.8637 0.0
C623 C 0.00382 0.62805 0.77149 0.0
C624 C 0.00828 0.6318 0.69983 0.0
C625 C 0.99591 0.62556 0.64887 0.0
C626 C 1.00026 0.62907 0.58141 0.0
C627 C 0.01689 0.63892 0.5643 0.0
C628 C 0.02916 0.64533 0.61464 0.0
C629 C 0.02488 0.64185 0.68218 0.0
H630 H 0.02023 0.64162 0.51204 0.0
H631 H 0.97891 0.60869 0.16831 0.0
H632 H 0.03151 0.22728 0.24084 0.0
H633 H 0.03091 0.20069 0.32084 0.0
H634 H 0.973 0.18812 0.26419 0.0
H635 H 0.97356 0.21483 0.185 0.0
H636 H 0.98102 0.17823 0.39922 0.0
H637 H 0.00721 0.16817 0.1744 0.0
H638 H 0.02899 0.17503 0.07996 0.0
H639 H 0.07713 0.16709 0.2093 0.0
H640 H 0.0556 0.16012 0.30451 0.0
H641 H 0.9782 0.07726 0.44044 0.0
H642 H 0.97604 0.10986 0.39653 0.0
H643 H 0.0365 0.11714 0.42559 0.0
H644 H 0.03883 0.08467 0.46748 0.0
H645 H 0.02743 0.13096 0.31155 0.0
H646 H 0.00228 0.13723 0.53374 0.0
H647 H 0.98115 0.12991 0.62959 0.0
H648 H 0.93237 0.14526 0.51199 0.0
H649 H 0.95318 0.15251 0.4152 0.0
C650 C 0.01834 0.21951 0.24854 0.0
C651 C 0.00251 0.22313 0.20774 0.0
C652 C 0.01806 0.20421 0.29356 0.0
C653 C 1.00202 0.19225 0.29739 0.0
C654 C 0.98549 0.19719 0.26207 0.0
C655 C 0.98576 0.21252 0.21722 0.0
C656 C 0.00354 0.17305 0.32802 0.0
C657 C 0.9911 0.16783 0.38012 0.0
C658 C 0.01687 0.15959 0.30355 0.0
C659 C 0.02981 0.16384 0.24654 0.0
C660 C 0.02243 0.16801 0.18267 0.0
C661 C 0.03472 0.17187 0.12903 0.0
C662 C 0.05441 0.17162 0.13865 0.0
C663 C 0.06187 0.16735 0.20193 0.0
C664 C 0.04963 0.16338 0.2557 0.0
C665 C 0.99103 0.08578 0.43688 0.0
C666 C 0.00867 0.07837 0.45747 0.0
C667 C 0.98975 0.10448 0.41252 0.0
C668 C 0.00606 0.1161 0.40903 0.0
C669 C 0.0237 0.10852 0.42813 0.0
C670 C 0.025 0.08989 0.45209 0.0
C671 C 0.00502 0.13599 0.3836 0.0
C672 C 0.01748 0.14133 0.33174 0.0
C673 C 0.99185 0.14953 0.40899 0.0
C674 C 0.97928 0.14523 0.46707 0.0
C675 C 0.98703 0.1389 0.52821 0.0
C676 C 0.97513 0.13479 0.58271 0.0
C677 C 0.95544 0.13704 0.57682 0.0
C678 C 0.94762 0.14349 0.51646 0.0
C679 C 0.95947 0.14763 0.46179 0.0
H680 H 0.94625 0.13384 0.61909 0.0
H681 H 0.06388 0.17466 0.09703 0.0
H682 H 0.29243 0.98525 0.23466 0.0
H683 H 0.31893 0.98451 0.31413 0.0
H684 H 0.32321 0.04586 0.30332 0.0
H685 H 0.29704 0.04648 0.22253 0.0
H686 H 0.35393 0.02889 0.2553 0.0
H687 H 0.31658 0.02312 0.45431 0.0
H688 H 0.29186 0.01006 0.52948 0.0
H689 H 0.31968 0.95554 0.52763 0.0
H690 H 0.34443 0.96819 0.45163 0.0
H691 H 0.43633 0.04041 0.44663 0.0
H692 H 0.40429 0.04033 0.40096 0.0
H693 H 0.40213 0.979 0.4179 0.0
H694 H 0.43443 0.97898 0.46502 0.0
H695 H 0.36998 0.99514 0.46631 0.0
H696 H 0.40583 0.99948 0.26391 0.0
H697 H 0.43018 0.01129 0.18472 0.0
H698 H 0.40463 0.06691 0.18811 0.0
H699 H 0.38024 0.05548 0.26794 0.0
C700 C 0.29836 0.99861 0.25232 0.0
C701 C 0.29282 0.01593 0.22293 0.0
C702 C 0.31354 0.9982 0.29759 0.0
C703 C 0.32315 0.01513 0.31414 0.0
C704 C 0.31601 0.03264 0.29103 0.0
C705 C 0.30099 0.03303 0.24535 0.0
C706 C 0.34268 0.01423 0.34181 0.0
C707 C 0.35738 0.02184 0.30216 0.0
C708 C 0.34723 0.00429 0.40143 0.0
C709 C 0.33227 0.99657 0.44664 0.0
C710 C 0.31733 0.00829 0.46932 0.0
C711 C 0.30333 1.00097 0.51225 0.0
C712 C 0.30417 0.98197 0.53317 0.0
C713 C 0.31903 0.97025 0.51131 0.0
C714 C 0.33306 0.9775 0.46836 0.0
C715 C 0.42917 0.02685 0.44009 0.0
C716 C 0.43792 0.00968 0.45929 0.0
C717 C 0.41085 0.02683 0.41364 0.0
C718 C 0.40088 0.00965 0.40551 0.0
C719 C 0.40963 0.9924 0.42373 0.0
C720 C 0.42809 0.9924 0.45016 0.0
C721 C 0.38111 0.01003 0.37998 0.0
C722 C 0.36645 1.00225 0.41964 0.0
C723 C 0.3765 0.01962 0.31974 0.0
C724 C 0.39133 0.02667 0.27254 0.0
C725 C 0.40552 0.01428 0.24833 0.0
C726 C 0.41929 0.02089 0.20314 0.0
C727 C 0.41897 0.03985 0.18151 0.0
C728 C 0.40485 0.05222 0.20489 0.0
C729 C 0.39104 0.04569 0.25009 0.0
H730 H 0.42965 0.04494 0.14655 0.0
H731 H 0.29332 0.97633 0.56643 0.0
H732 H 0.52164 0.28962 0.2498 0.0
H733 H 0.5196 0.31537 0.33231 0.0
H734 H 0.45966 0.32153 0.29011 0.0
H735 H 0.46189 0.29614 0.20616 0.0
H736 H 0.47777 0.35269 0.26036 0.0
H737 H 0.47617 0.31209 0.45104 0.0
H738 H 0.48564 0.28593 0.52662 0.0
H739 H 0.54024 0.3122 0.55555 0.0
H740 H 0.53124 0.33838 0.47926 0.0
H741 H 0.46577 0.43375 0.46669 0.0
H742 H 0.46419 0.40118 0.42394 0.0
H743 H 0.52541 0.39717 0.43102 0.0
H744 H 0.52718 0.42996 0.47426 0.0
H745 H 0.50524 0.36459 0.48583 0.0
H746 H 0.50665 0.40358 0.2853 0.0
H747 H 0.49596 0.42991 0.2124 0.0
H748 H 0.43971 0.40593 0.20646 0.0
H749 H 0.45001 0.37958 0.2801 0.0
C750 C 0.50786 0.29583 0.26077 0.0
C751 C 0.49193 0.29104 0.2218 0.0
C752 C 0.50668 0.31059 0.30787 0.0
C753 C 0.4895 0.32053 0.31693 0.0
C754 C 0.47308 0.31413 0.28362 0.0
C755 C 0.47431 0.29956 0.23606 0.0
C756 C 0.48957 0.33961 0.34921 0.0
C757 C 0.48339 0.35515 0.31037 0.0
C758 C 0.49748 0.34298 0.4135 0.0
C759 C 0.50309 0.32711 0.45871 0.0
C760 C 0.49028 0.31219 0.47283 0.0
C761 C 0.49556 0.29737 0.51593 0.0
C762 C 0.51357 0.29735 0.54557 0.0
C763 C 0.52632 0.3122 0.53238 0.0
C764 C 0.52113 0.32704 0.48924 0.0
C765 C 0.47894 0.426 0.4589 0.0
C766 C 0.49663 0.43443 0.47343 0.0
C767 C 0.47798 0.4074 0.43464 0.0
C768 C 0.49467 0.39684 0.42446 0.0
C769 C 0.51239 0.40513 0.4389 0.0
C770 C 0.51338 0.42388 0.46282 0.0
C771 C 0.49345 0.37732 0.39678 0.0
C772 C 0.49948 0.36188 0.43621 0.0
C773 C 0.48526 0.37391 0.33319 0.0
C774 C 0.47907 0.38971 0.28867 0.0
C775 C 0.49197 0.404 0.26887 0.0
C776 C 0.48598 0.41892 0.22736 0.0
C777 C 0.46715 0.41962 0.205 0.0
C778 C 0.45429 0.40538 0.2239 0.0
C779 C 0.46019 0.39044 0.26548 0.0
H780 H 0.46254 0.43119 0.17289 0.0
H781 H 0.51761 0.28588 0.579 0.0
H782 H 0.20127 0.53923 0.171 0.0
H783 H 0.1815 0.54356 0.26913 0.0
H784 H 0.22056 0.50967 0.38667 0.0
H785 H 0.23973 0.50395 0.28539 0.0
H786 H 0.1894 0.49663 0.41108 0.0
H787 H 0.20798 0.55914 0.42852 0.0
H788 H 0.21816 0.59166 0.39815 0.0
H789 H 0.16304 0.60303 0.31453 0.0
H790 H 0.15258 0.5705 0.34326 0.0
H791 H 0.0916 0.53649 0.55727 0.0
H792 H 0.12569 0.54175 0.53836 0.0
H793 H 0.12675 0.49405 0.40102 0.0
H794 H 0.09309 0.48818 0.4227 0.0
H795 H 0.14598 0.55164 0.44294 0.0
H796 H 0.16659 0.4708 0.39439 0.0
H797 H 0.15898 0.43959 0.4446 0.0
H798 H 0.14078 0.46709 0.62631 0.0
H799 H 0.1489 0.49848 0.57835 0.0
C800 C 0.20584 0.53291 0.21797 0.0
C801 C 0.22175 0.52082 0.2201 0.0
C802 C 0.19467 0.53572 0.27486 0.0
C803 C 0.19945 0.52708 0.33625 0.0
C804 C 0.21643 0.51644 0.34002 0.0
C805 C 0.22748 0.51329 0.28227 0.0
C806 C 0.18497 0.52655 0.39116 0.0
C807 C 0.18011 0.50877 0.41897 0.0
C808 C 0.17339 0.54258 0.40597 0.0
C809 C 0.17947 0.5623 0.38833 0.0
C810 C 0.19803 0.56852 0.40338 0.0
C811 C 0.20386 0.58698 0.38643 0.0
C812 C 0.19125 0.59941 0.3545 0.0
C813 C 0.17278 0.5934 0.33946 0.0
C814 C 0.16687 0.57496 0.35628 0.0
C815 C 0.09917 0.52718 0.52293 0.0
C816 C 0.08975 0.51193 0.4913 0.0
C817 C 0.11866 0.53014 0.51244 0.0
C818 C 0.129 0.51803 0.46955 0.0
C819 C 0.11935 0.50318 0.43635 0.0
C820 C 0.10002 0.49998 0.44796 0.0
C821 C 0.14957 0.52134 0.45558 0.0
C822 C 0.15558 0.53967 0.43666 0.0
C823 C 0.16271 0.50605 0.45252 0.0
C824 C 0.15832 0.48709 0.48247 0.0
C825 C 0.16121 0.47023 0.4454 0.0
C826 C 0.15679 0.45249 0.47351 0.0
C827 C 0.14943 0.45138 0.53864 0.0
C828 C 0.14651 0.468 0.57591 0.0
C829 C 0.15105 0.48578 0.54831 0.0
H830 H 0.14595 0.43763 0.56022 0.0
H831 H 0.1958 0.61369 0.34139 0.0
H832 H 0.00737 0.78185 0.90931 0.0
H833 H 0.01106 0.80669 0.82355 0.0
H834 H 0.95802 0.83199 0.88749 0.0
H835 H 0.95407 0.8069 0.97089 0.0
H836 H 0.96571 0.8427 0.76254 0.0
H837 H 0.99948 0.83886 0.97558 0.0
H838 H 0.02133 0.82327 0.05546 0.0
H839 H 0.06662 0.82658 0.91058 0.0
H840 H 0.04489 0.84182 0.8293 0.0
H841 H 0.97614 0.94119 0.79643 0.0
H842 H 0.9735 0.90739 0.82447 0.0
H843 H 0.02821 0.8969 0.73256 0.0
H844 H 0.03113 0.93091 0.70552 0.0
H845 H 0.02305 0.87633 0.84741 0.0
H846 H 0.98702 0.89136 0.6502 0.0
H847 H 0.96276 0.90784 0.58307 0.0
H848 H 0.91872 0.88593 0.71128 0.0
H849 H 0.94269 0.86957 0.78052 0.0
C850 C 0.99595 0.79201 0.90186 0.0
C851 C 0.98061 0.79277 0.94705 0.0
C852 C 0.99814 0.80631 0.85336 0.0
C853 C 0.98519 0.8216 0.85105 0.0
C854 C 0.96833 0.8205 0.88882 0.0
C855 C 0.96603 0.80613 0.93651 0.0
C856 C 0.99088 0.8404 0.82325 0.0
C857 C 0.97828 0.85007 0.78062 0.0
C858 C 0.00737 0.84997 0.84682 0.0
C859 C 0.02052 0.84121 0.89611 0.0
C860 C 0.01406 0.83611 0.96061 0.0
C861 C 0.0264 0.82729 0.00604 0.0
C862 C 0.04532 0.82385 0.98797 0.0
C863 C 0.05194 0.82922 0.92443 0.0
C864 C 0.03962 0.8379 0.87861 0.0
C865 C 0.98779 0.93175 0.78343 0.0
C866 C 0.00381 0.93862 0.74862 0.0
C867 C 0.98619 0.91244 0.79896 0.0
C868 C 1.0004 0.8996 0.77876 0.0
C869 C 0.017 0.90658 0.74785 0.0
C870 C 0.01871 0.92601 0.73289 0.0
C871 C 0.99756 0.87886 0.78821 0.0
C872 C 0.01072 0.86889 0.82759 0.0
C873 C 0.98125 0.86928 0.76314 0.0
C874 C 0.96678 0.87907 0.7207 0.0
C875 C 0.9722 0.88997 0.66437 0.0
C876 C 0.95848 0.89934 0.62585 0.0
C877 C 0.93922 0.89783 0.64259 0.0
C878 C 0.93364 0.88701 0.69817 0.0
C879 C 0.94731 0.87767 0.73708 0.0
H880 H 0.92863 0.90507 0.61259 0.0
H881 H 0.05486 0.81709 0.02329 0.0
H882 H 0.72298 0.99004 0.92738 0.0
H883 H 0.69795 0.99736 0.84683 0.0
H884 H 0.69417 0.05464 0.92558 0.0
H885 H 0.71882 0.04699 0.00805 0.0
H886 H 0.66183 0.03806 0.9376 0.0
H887 H 0.70464 0.04496 0.75516 0.0
H888 H 0.73204 0.03669 0.68325 0.0
H889 H 0.70455 0.98454 0.62524 0.0
H890 H 0.67712 0.99228 0.69776 0.0
H891 H 0.57569 0.04337 0.74531 0.0
H892 H 0.60806 0.0509 0.78306 0.0
H893 H 0.62478 0.99248 0.74926 0.0
H894 H 0.59272 0.98487 0.71151 0.0
H895 H 0.65159 0.01775 0.70181 0.0
H896 H 0.61409 0.00743 0.9047 0.0
H897 H 0.58757 0.01389 0.98294 0.0
H898 H 0.60608 0.07201 0.00302 0.0
H899 H 0.63261 0.06592 0.92425 0.0
C900 C 0.71744 0.00445 0.92524 0.0
C901 C 0.72271 0.01795 0.97376 0.0
C902 C 0.7031 0.00867 0.87911 0.0
C903 C 0.69407 0.02657 0.88015 0.0
C904 C 0.70086 0.04072 0.92399 0.0
C905 C 0.715 0.03641 0.97073 0.0
C906 C 0.67551 0.02909 0.84562 0.0
C907 C 0.65975 0.03421 0.88532 0.0
C908 C 0.67263 0.02366 0.77788 0.0
C909 C 0.68885 0.01916 0.73248 0.0
C910 C 0.70447 0.03167 0.72744 0.0
C911 C 0.72003 0.02706 0.68663 0.0
C912 C 0.72011 0.01002 0.65026 0.0
C913 C 0.70451 0.99767 0.65384 0.0
C914 C 0.68893 1.00219 0.69469 0.0
C915 C 0.58625 0.03213 0.74629 0.0
C916 C 0.58159 0.01349 0.72594 0.0
C917 C 0.60474 0.03648 0.7675 0.0
C918 C 0.61881 0.02225 0.7687 0.0
C919 C 0.61418 0.0037 0.74812 0.0
C920 C 0.59577 0.99934 0.7272 0.0
C921 C 0.63817 0.0262 0.79454 0.0
C922 C 0.65394 0.02223 0.7533 0.0
C923 C 0.64114 0.03263 0.86095 0.0
C924 C 0.62515 0.0363 0.90793 0.0
C925 C 0.61239 0.02163 0.92534 0.0
C926 C 0.59739 0.02521 0.96987 0.0
C927 C 0.5951 0.04337 0.99773 0.0
C928 C 0.60784 0.05797 0.98126 0.0
C929 C 0.62286 0.05446 0.9367 0.0
H930 H 0.58348 0.0461 0.03225 0.0
H931 H 0.7322 0.00645 0.61892 0.0
H932 H 0.52167 0.72456 0.94794 0.0
H933 H 0.51891 0.69791 0.86978 0.0
H934 H 0.45993 0.69078 0.92601 0.0
H935 H 0.4629 0.71718 0.00568 0.0
H936 H 0.47932 0.66047 0.95601 0.0
H937 H 0.47379 0.69828 0.7595 0.0
H938 H 0.48126 0.72369 0.678 0.0
H939 H 0.53655 0.69935 0.64443 0.0
H940 H 0.52955 0.67394 0.72652 0.0
H941 H 0.47239 0.57473 0.76127 0.0
H942 H 0.4681 0.60668 0.80897 0.0
H943 H 0.52786 0.61836 0.78 0.0
H944 H 0.5323 0.5866 0.73243 0.0
H945 H 0.50532 0.64676 0.72971 0.0
H946 H 0.51259 0.61208 0.93337 0.0
H947 H 0.50683 0.58755 0.01978 0.0
H948 H 0.44911 0.60676 0.04179 0.0
H949 H 0.45448 0.6313 0.95487 0.0
C950 C 0.50786 0.71797 0.94084 0.0
C951 C 0.49251 0.72278 0.98279 0.0
C952 C 0.50628 0.70267 0.89622 0.0
C953 C 0.48924 0.69221 0.89246 0.0
C954 C 0.47323 0.69859 0.92838 0.0
C955 C 0.47487 0.71374 0.97346 0.0
C956 C 0.48937 0.67275 0.86317 0.0
C957 C 0.48445 0.65752 0.90568 0.0
C958 C 0.49677 0.66885 0.79849 0.0
C959 C 0.50119 0.68427 0.74973 0.0
C960 C 0.48762 0.69844 0.73531 0.0
C961 C 0.49176 0.71283 0.68885 0.0
C962 C 0.50939 0.71316 0.65617 0.0
C963 C 0.52291 0.69908 0.66983 0.0
C964 C 0.51885 0.68467 0.71628 0.0
C965 C 0.48466 0.584 0.76594 0.0
C966 C 0.50267 0.57814 0.74292 0.0
C967 C 0.48219 0.60224 0.79319 0.0
C968 C 0.49767 0.61486 0.79782 0.0
C969 C 0.51573 0.60885 0.77657 0.0
C970 C 0.51822 0.59066 0.74955 0.0
C971 C 0.49494 0.63461 0.82217 0.0
C972 C 0.49963 0.6498 0.77918 0.0
C973 C 0.48737 0.63853 0.88646 0.0
C974 C 0.48384 0.6233 0.93672 0.0
C975 C 0.49858 0.61087 0.95582 0.0
C976 C 0.49541 0.59703 0.00516 0.0
C977 C 0.47758 0.59553 0.03602 0.0
C978 C 0.46289 0.60789 0.01767 0.0
C979 C 0.46599 0.62177 0.96838 0.0
H980 H 0.47517 0.58483 0.07433 0.0
H981 H 0.51255 0.72429 0.62017 0.0
H982 H 0.79518 0.45927 0.98624 0.0
H983 H 0.82324 0.45688 0.91374 0.0
H984 H 0.81521 0.51518 0.85083 0.0
H985 H 0.78724 0.51766 0.92368 0.0
H986 H 0.83264 0.49242 0.75176 0.0
H987 H 0.83933 0.50884 0.98629 0.0
H988 H 0.8363 0.50487 0.1091 0.0
H989 H 0.86649 0.45173 0.09777 0.0
H990 H 0.86952 0.45529 0.97481 0.0
H991 H 0.93467 0.52488 0.79238 0.0
H992 H 0.90301 0.51839 0.83911 0.0
H993 H 0.89898 0.46748 0.71825 0.0
H994 H 0.931 0.47358 0.67291 0.0
H995 H 0.88752 0.48482 0.90633 0.0
H996 H 0.85003 0.4736 0.65039 0.0
H997 H 0.85349 0.48297 0.5321 0.0
H998 H 0.8856 0.53241 0.59021 0.0
H999 H 0.88173 0.52368 0.70939 0.0
C1000 C 0.79886 0.47123 0.95426 0.0
C1001 C 0.78927 0.48873 0.96109 0.0
C1002 C 0.81495 0.4699 0.91335 0.0
C1003 C 0.82152 0.48602 0.87858 0.0
C1004 C 0.81039 0.50263 0.87775 0.0
C1005 C 0.79431 0.50399 0.91895 0.0
C1006 C 0.84132 0.48669 0.85337 0.0
C1007 C 0.84465 0.49047 0.78523 0.0
C1008 C 0.85695 0.48473 0.89773 0.0
C1009 C 0.85445 0.48222 0.97126 0.0
C1010 C 0.8451 0.49619 0.00988 0.0
C1011 C 0.84347 0.49406 0.07954 0.0
C1012 C 0.8512 0.47806 0.11113 0.0
C1013 C 0.86049 0.46411 0.07316 0.0
C1014 C 0.86218 0.46618 0.00353 0.0
C1015 C 0.92719 0.51207 0.77708 0.0
C1016 C 0.93523 0.49964 0.7296 0.0
C1017 C 0.90917 0.5084 0.80367 0.0
C1018 C 0.8987 0.49256 0.7816 0.0
C1019 C 0.9069 0.47979 0.73563 0.0
C1020 C 0.92518 0.4832 0.71027 0.0
C1021 C 0.87885 0.49008 0.80444 0.0
C1022 C 0.87552 0.48619 0.87242 0.0
C1023 C 0.86327 0.49242 0.76028 0.0
C1024 C 0.86592 0.49774 0.68878 0.0
C1025 C 0.85785 0.48646 0.63795 0.0
C1026 C 0.85984 0.49171 0.57063 0.0
C1027 C 0.8699 0.50822 0.55336 0.0
C1028 C 0.87793 0.51956 0.60357 0.0
C1029 C 0.87584 0.51445 0.67108 0.0
H1030 H 0.87135 0.51234 0.50123 0.0
H1031 H 0.85012 0.4765 0.16505 0.0
H1032 H 0.98857 0.22184 0.91905 0.0
H1033 H 0.98878 0.1931 0.84859 0.0
H1034 H 0.04241 0.17623 0.93516 0.0
H1035 H 0.04219 0.20491 0.00568 0.0
H1036 H 0.03804 0.16607 0.79429 0.0
H1037 H 0.00514 0.1607 0.00787 0.0
H1038 H 0.98174 0.17158 0.09231 0.0
H1039 H 0.93656 0.16398 0.9499 0.0
H1040 H 0.95978 0.15362 0.86405 0.0
H1041 H 0.02903 0.06656 0.72083 0.0
H1042 H 0.03468 0.09677 0.78001 0.0
H1043 H 0.97628 0.11312 0.7457 0.0
H1044 H 0.97044 0.08303 0.68929 0.0
H1045 H 0.98487 0.12361 0.86294 0.0
H1046 H 0.01586 0.12976 0.64872 0.0
H1047 H 0.03814 0.12104 0.55801 0.0
H1048 H 0.08532 0.12802 0.69256 0.0
H1049 H 0.06323 0.13663 0.78434 0.0
C1050 C 1.00079 0.21242 0.92077 0.0
C1051 C 0.01539 0.21556 0.96751 0.0
C1052 C 1.00083 0.19593 0.88101 0.0
C1053 C 0.01549 0.18241 0.88735 0.0
C1054 C 0.03098 0.18647 0.92936 0.0
C1055 C 0.03087 0.20286 0.96947 0.0
C1056 C 0.01339 0.16305 0.85776 0.0
C1057 C 0.02654 0.15667 0.80959 0.0
C1058 C 0.99825 0.15089 0.87726 0.0
C1059 C 0.98423 0.1566 0.9294 0.0
C1060 C 0.99024 0.16152 0.99448 0.0
C1061 C 0.97702 0.16758 0.04257 0.0
C1062 C 0.95769 0.16848 0.02647 0.0
C1063 C 0.95155 0.1633 0.96227 0.0
C1064 C 0.96473 0.15736 0.91386 0.0
C1065 C 0.01736 0.07651 0.72677 0.0
C1066 C 0.9993 0.07234 0.70015 0.0
C1067 C 0.02064 0.09388 0.76002 0.0
C1068 C 0.006 0.1075 0.76632 0.0
C1069 C 0.98786 0.10299 0.74157 0.0
C1070 C 0.98455 0.08568 0.70908 0.0
C1071 C 0.00931 0.12656 0.79787 0.0
C1072 C 0.99642 0.13289 0.84718 0.0
C1073 C 0.02453 0.13873 0.77852 0.0
C1074 C 0.03786 0.13364 0.7235 0.0
C1075 C 0.03096 0.12933 0.65901 0.0
C1076 C 0.04356 0.12441 0.6074 0.0
C1077 C 0.06314 0.1239 0.61952 0.0
C1078 C 0.07015 0.12838 0.68327 0.0
C1079 C 0.05759 0.1333 0.73509 0.0
H1080 H 0.07287 0.12008 0.57948 0.0
H1081 H 0.94748 0.17316 0.06378 0.0
H1082 H 0.30563 0.98552 0.98139 0.0
H1083 H 0.33535 0.98607 0.91642 0.0
H1084 H 0.33224 0.04738 0.90422 0.0
H1085 H 0.30271 0.04686 0.97115 0.0
H1086 H 0.34601 0.02578 0.7794 0.0
H1087 H 0.35777 0.03552 0.01374 0.0
H1088 H 0.35464 0.02883 0.1346 0.0
H1089 H 0.37912 0.97332 0.10541 0.0
H1090 H 0.38198 0.97954 0.98371 0.0
H1091 H 0.44456 0.03361 0.68838 0.0
H1092 H 0.41452 0.04009 0.74769 0.0
H1093 H 0.41335 0.98203 0.81944 0.0
H1094 H 0.44323 0.97559 0.76102 0.0
H1095 H 0.4017 0.00604 0.91577 0.0
H1096 H 0.38941 0.99646 0.67969 0.0
H1097 H 0.39221 0.00345 0.55886 0.0
H1098 H 0.36842 0.05913 0.59092 0.0
H1099 H 0.3661 0.05271 0.71255 0.0
C1100 C 0.3109 0.99903 0.96247 0.0
C1101 C 0.30172 0.01611 0.9799 0.0
C1102 C 0.32796 0.99935 0.92601 0.0
C1103 C 0.33605 0.01677 0.90585 0.0
C1104 C 0.32619 0.03379 0.91902 0.0
C1105 C 0.30927 0.03349 0.95668 0.0
C1106 C 0.35563 0.01715 0.87725 0.0
C1107 C 0.35827 0.02178 0.80931 0.0
C1108 C 0.37156 0.01176 0.9163 0.0
C1109 C 0.36983 0.0079 0.98941 0.0
C1110 C 0.36225 0.02178 0.03289 0.0
C1111 C 0.36058 0.0181 0.10166 0.0
C1112 C 0.36662 1.00062 0.12776 0.0
C1113 C 0.3744 0.98683 0.08509 0.0
C1114 C 0.37603 0.99043 0.01619 0.0
C1115 C 0.4381 0.02238 0.71808 0.0
C1116 C 0.44624 0.00406 0.71984 0.0
C1117 C 0.42083 0.02604 0.75142 0.0
C1118 C 0.41146 0.01146 0.78719 0.0
C1119 C 0.4202 0.99351 0.79201 0.0
C1120 C 0.43731 0.98983 0.75849 0.0
C1121 C 0.39219 0.01436 0.81723 0.0
C1122 C 0.38955 0.01028 0.88573 0.0
C1123 C 0.3763 0.02031 0.77857 0.0
C1124 C 0.37782 0.02419 0.70545 0.0
C1125 C 0.38499 0.01028 0.66117 0.0
C1126 C 0.38647 0.01414 0.59245 0.0
C1127 C 0.38046 0.03172 0.56716 0.0
C1128 C 0.37308 0.04552 0.6106 0.0
C1129 C 0.37175 0.04181 0.67947 0.0
H1130 H 0.38145 0.03467 0.51394 0.0
H1131 H 0.36532 0.99777 0.181 0.0
H1132 H 0.46854 0.30432 0.97623 0.0
H1133 H 0.47039 0.33325 0.90682 0.0
H1134 H 0.53164 0.32924 0.90591 0.0
H1135 H 0.52978 0.30002 0.97367 0.0
H1136 H 0.51555 0.3643 0.95997 0.0
H1137 H 0.51248 0.32416 0.76654 0.0
H1138 H 0.49966 0.29943 0.69122 0.0
H1139 H 0.44803 0.33149 0.66841 0.0
H1140 H 0.46036 0.35624 0.74496 0.0
H1141 H 0.54064 0.44125 0.74706 0.0
H1142 H 0.53627 0.41111 0.80611 0.0
H1143 H 0.47592 0.41347 0.76684 0.0
H1144 H 0.48034 0.44376 0.70658 0.0
H1145 H 0.4903 0.37913 0.73344 0.0
H1146 H 0.49357 0.41961 0.92589 0.0
H1147 H 0.50663 0.44448 0.0003 0.0
H1148 H 0.55786 0.41188 0.02509 0.0
H1149 H 0.54525 0.38695 0.94986 0.0
C1150 C 0.48233 0.30921 0.95872 0.0
C1151 C 0.49901 0.29983 0.97934 0.0
C1152 C 0.48338 0.32577 0.9195 0.0
C1153 C 0.50115 0.33342 0.90146 0.0
C1154 C 0.51779 0.32353 0.91915 0.0
C1155 C 0.51672 0.30675 0.95721 0.0
C1156 C 0.50241 0.35277 0.87121 0.0
C1157 C 0.51027 0.36751 0.91005 0.0
C1158 C 0.49492 0.35704 0.80706 0.0
C1159 C 0.48725 0.34194 0.76236 0.0
C1160 C 0.49828 0.32582 0.74634 0.0
C1161 C 0.49113 0.31182 0.70316 0.0
C1162 C 0.47303 0.31386 0.67511 0.0
C1163 C 0.46203 0.3299 0.69027 0.0
C1164 C 0.46909 0.34392 0.73362 0.0
C1165 C 0.52638 0.43557 0.75211 0.0
C1166 C 0.51085 0.44493 0.7223 0.0
C1167 C 0.52388 0.41831 0.78603 0.0
C1168 C 0.50575 0.40998 0.79123 0.0
C1169 C 0.49005 0.41961 0.76349 0.0
C1170 C 0.49255 0.43701 0.72967 0.0
C1171 C 0.50354 0.39072 0.8221 0.0
C1172 C 0.49548 0.37598 0.78353 0.0
C1173 C 0.51081 0.38643 0.88669 0.0
C1174 C 0.51851 0.40147 0.9317 0.0
C1175 C 0.50769 0.41781 0.94669 0.0
C1176 C 0.515 0.43191 0.98913 0.0
C1177 C 0.53307 0.42977 0.01736 0.0
C1178 C 0.54385 0.41351 0.00327 0.0
C1179 C 0.53663 0.39939 0.96069 0.0
H1180 H 0.53871 0.4407 0.05016 0.0
H1181 H 0.46755 0.30304 0.64153 0.0
H1182 H 0.22052 0.47057 0.96627 0.0
H1183 H 0.19301 0.46335 0.89345 0.0
H1184 H 0.17211 0.52057 0.92232 0.0
H1185 H 0.19938 0.52784 0.99375 0.0
H1186 H 0.14944 0.48103 0.96795 0.0
H1187 H 0.18044 0.52029 0.78976 0.0
H1188 H 0.20552 0.52675 0.70576 0.0
H1189 H 0.19668 0.4714 0.61863 0.0
H1190 H 0.17186 0.46448 0.70325 0.0
H1191 H 0.06872 0.51837 0.8135 0.0
H1192 H 0.09892 0.50961 0.86495 0.0
H1193 H 0.10703 0.46578 0.7154 0.0
H1194 H 0.07665 0.47458 0.66331 0.0
H1195 H 0.13773 0.48869 0.72386 0.0
H1196 H 0.10099 0.45318 0.87909 0.0
H1197 H 0.07478 0.44632 0.95813 0.0
H1198 H 0.09386 0.49146 0.0874 0.0
H1199 H 0.12002 0.49879 0.0087 0.0
C1200 C 0.21037 0.48173 0.95494 0.0
C1201 C 0.21196 0.49972 0.98567 0.0
C1202 C 0.19468 0.4776 0.91367 0.0
C1203 C 0.18062 0.49148 0.90256 0.0
C1204 C 0.18289 0.50974 0.92994 0.0
C1205 C 0.19845 0.51386 0.97074 0.0
C1206 C 0.16214 0.4866 0.87146 0.0
C1207 C 0.14683 0.48251 0.91449 0.0
C1208 C 0.15895 0.48793 0.80164 0.0
C1209 C 0.17456 0.49175 0.75347 0.0
C1210 C 0.18412 0.50936 0.75355 0.0
C1211 C 0.19822 0.51314 0.70563 0.0
C1212 C 0.20277 0.49946 0.65709 0.0
C1213 C 0.19324 0.48195 0.65648 0.0
C1214 C 0.17919 0.47808 0.70446 0.0
C1215 C 0.07666 0.50652 0.79262 0.0
C1216 C 0.07027 0.49713 0.73456 0.0
C1217 C 0.09393 0.50148 0.82218 0.0
C1218 C 0.10523 0.48694 0.79433 0.0
C1219 C 0.09851 0.47696 0.73794 0.0
C1220 C 0.08107 0.4819 0.7086 0.0
C1221 C 0.12475 0.48374 0.82063 0.0
C1222 C 0.14029 0.48641 0.77697 0.0
C1223 C 0.12816 0.48091 0.88998 0.0
C1224 C 0.11245 0.47658 0.93774 0.0
C1225 C 0.09953 0.46173 0.92414 0.0
C1226 C 0.08469 0.45775 0.96894 0.0
C1227 C 0.08265 0.46846 0.02772 0.0
C1228 C 0.09546 0.48316 0.04186 0.0
C1229 C 0.11033 0.48722 0.99722 0.0
H1230 H 0.07115 0.46535 0.06234 0.0
H1231 H 0.2136 0.50245 0.61979 0.0
H1232 H 0.96325 0.81957 0.16042 0.0
H1233 H 0.96796 0.8471 0.23363 0.0
H1234 H 0.02136 0.82361 0.30079 0.0
H1235 H 0.01662 0.79578 0.22697 0.0
H1236 H 1.00134 0.84113 0.4044 0.0
H1237 H 0.02534 0.86044 0.18649 0.0
H1238 H 0.02472 0.86437 0.06337 0.0
H1239 H 0.97115 0.89357 0.07752 0.0
H1240 H 0.97187 0.8905 0.2012 0.0
H1241 H 0.03832 0.94432 0.43336 0.0
H1242 H 0.0332 0.91442 0.37238 0.0
H1243 H 0.98006 0.90615 0.47699 0.0
H1244 H 0.98489 0.93648 0.53746 0.0
H1245 H 1.00185 0.90389 0.28907 0.0
H1246 H 0.98314 0.85185 0.51026 0.0
H1247 H 0.99106 0.84626 0.62921 0.0
H1248 H 0.04097 0.88118 0.60906 0.0
H1249 H 0.03389 0.88625 0.48933 0.0
C1250 C 0.97587 0.82012 0.1916 0.0
C1251 C 0.98963 0.80559 0.18775 0.0
C1252 C 0.97859 0.83592 0.23312 0.0
C1253 C 0.9952 0.83765 0.27166 0.0
C1254 C 0.00848 0.82262 0.27118 0.0
C1255 C 0.00573 0.80669 0.22939 0.0
C1256 C 0.99887 0.85558 0.3096 0.0
C1257 C 1.00133 0.85489 0.37951 0.0
C1258 C 0.99932 0.87348 0.27683 0.0
C1259 C 0.99857 0.87508 0.20274 0.0
C1260 C 0.01339 0.86761 0.16322 0.0
C1261 C 0.01304 0.86972 0.09341 0.0
C1262 C 0.99777 0.87894 0.06247 0.0
C1263 C 0.98294 0.88635 0.10148 0.0
C1264 C 0.98339 0.88459 0.17148 0.0
C1265 C 0.02539 0.93629 0.44264 0.0
C1266 C 0.01189 0.94283 0.48949 0.0
C1267 C 0.02253 0.91918 0.40803 0.0
C1268 C 0.00638 0.90795 0.42091 0.0
C1269 C 0.99271 0.91453 0.46705 0.0
C1270 C 0.99536 0.93194 0.50075 0.0
C1271 C 0.00379 0.8896 0.3846 0.0
C1272 C 1.00155 0.89022 0.31462 0.0
C1273 C 0.00395 0.87166 0.41759 0.0
C1274 C 0.00774 0.86974 0.49075 0.0
C1275 C 0.99579 0.85838 0.53114 0.0
C1276 C 1.00024 0.85514 0.59862 0.0
C1277 C 0.01651 0.86336 0.62665 0.0
C1278 C 0.02834 0.87487 0.58731 0.0
C1279 C 0.02411 0.87793 0.51954 0.0
H1280 H 0.01997 0.86078 0.6788 0.0
H1281 H 0.99749 0.88045 0.00833 0.0
H1282 H 0.71162 0.03269 0.22142 0.0
H1283 H 0.68412 0.03109 0.29686 0.0
H1284 H 0.68582 0.96962 0.28899 0.0
H1285 H 0.71352 0.97124 0.21335 0.0
H1286 H 0.65052 0.98363 0.25823 0.0
H1287 H 0.69562 0.99209 0.43221 0.0
H1288 H 0.72289 0.00658 0.49072 0.0
H1289 H 0.69236 0.05937 0.50893 0.0
H1290 H 0.6651 0.04541 0.44849 0.0
H1291 H 0.57005 0.98301 0.48899 0.0
H1292 H 0.60077 0.97667 0.43396 0.0
H1293 H 0.61135 0.03715 0.42056 0.0
H1294 H 0.58093 0.04357 0.47486 0.0
H1295 H 0.64168 0.01841 0.47302 0.0
H1296 H 0.59952 0.01163 0.28271 0.0
H1297 H 0.57256 0.99791 0.21991 0.0
H1298 H 0.59772 0.94225 0.23363 0.0
H1299 H 0.62474 0.95562 0.29727 0.0
C1300 C 0.7065 0.01884 0.23763 0.0
C1301 C 0.7148 1.00209 0.21217 0.0
C1302 C 0.69075 0.01792 0.28057 0.0
C1303 C 0.68286 1.00023 0.29871 0.0
C1304 C 0.69166 0.98343 0.27577 0.0
C1305 C 0.70761 0.98435 0.23326 0.0
C1306 C 0.66452 0.99953 0.33655 0.0
C1307 C 0.64869 0.99087 0.30601 0.0
C1308 C 0.66201 0.00925 0.3983 0.0
C1309 C 0.67835 0.01772 0.43513 0.0
C1310 C 0.69477 0.00686 0.44798 0.0
C1311 C 0.71025 0.01499 0.48149 0.0
C1312 C 0.70938 0.0339 0.50338 0.0
C1313 C 0.69302 0.04473 0.49182 0.0
C1314 C 0.67756 0.03672 0.45781 0.0
C1315 C 0.57878 0.99494 0.47324 0.0
C1316 C 0.573 0.0138 0.48645 0.0
C1317 C 0.59638 0.9913 0.44201 0.0
C1318 C 0.60846 0.00645 0.42347 0.0
C1319 C 0.6024 0.02523 0.43492 0.0
C1320 C 0.58489 0.02886 0.46572 0.0
C1321 C 0.62765 1.00302 0.39367 0.0
C1322 C 0.64362 0.0109 0.42583 0.0
C1323 C 0.63028 0.99264 0.33337 0.0
C1324 C 0.61401 0.98458 0.2955 0.0
C1325 C 0.59921 0.99644 0.27291 0.0
C1326 C 0.58394 0.98873 0.23703 0.0
C1327 C 0.58339 0.96921 0.22301 0.0
C1328 C 0.59814 0.95736 0.24468 0.0
C1329 C 0.61344 0.96499 0.28062 0.0
H1330 H 0.57156 0.96327 0.19519 0.0
H1331 H 0.72136 0.04015 0.5295 0.0
H1332 H 0.53265 0.70882 0.20815 0.0
H1333 H 0.53238 0.67933 0.27462 0.0
H1334 H 0.47242 0.68681 0.3136 0.0
H1335 H 0.47262 0.71607 0.24568 0.0
H1336 H 0.4928 0.67204 0.42519 0.0
H1337 H 0.48265 0.66053 0.19381 0.0
H1338 H 0.48858 0.66212 0.07213 0.0
H1339 H 0.54127 0.63197 0.0975 0.0
H1340 H 0.53591 0.63071 0.2201 0.0
H1341 H 0.46211 0.57842 0.48903 0.0
H1342 H 0.46629 0.60836 0.42864 0.0
H1343 H 0.52653 0.59763 0.41184 0.0
H1344 H 0.52253 0.56745 0.47329 0.0
H1345 H 0.5077 0.61411 0.29132 0.0
H1346 H 0.51302 0.62359 0.53082 0.0
H1347 H 0.5011 0.61934 0.64605 0.0
H1348 H 0.45158 0.65264 0.59954 0.0
H1349 H 0.46274 0.65628 0.48263 0.0
C1350 C 0.51962 0.70454 0.23324 0.0
C1351 C 0.50272 0.71483 0.22303 0.0
C1352 C 0.51942 0.6876 0.27047 0.0
C1353 C 0.50234 0.68079 0.29848 0.0
C1354 C 0.48575 0.69184 0.29258 0.0
C1355 C 0.48589 0.70861 0.25432 0.0
C1356 C 0.50139 0.66137 0.32838 0.0
C1357 C 0.49603 0.65938 0.39593 0.0
C1358 C 0.50551 0.64484 0.28996 0.0
C1359 C 0.50905 0.64583 0.21641 0.0
C1360 C 0.49566 0.65451 0.17369 0.0
C1361 C 0.49889 0.65528 0.10443 0.0
C1362 C 0.51532 0.64719 0.07698 0.0
C1363 C 0.52857 0.6383 0.11886 0.0
C1364 C 0.52547 0.63759 0.1883 0.0
C1365 C 0.47626 0.58221 0.47181 0.0
C1366 C 0.49203 0.57058 0.48673 0.0
C1367 C 0.4786 0.59938 0.43721 0.0
C1368 C 0.49674 0.60535 0.41657 0.0
C1369 C 0.51241 0.59329 0.42755 0.0
C1370 C 0.51009 0.57606 0.46269 0.0
C1371 C 0.49935 0.62481 0.3883 0.0
C1372 C 0.50488 0.6268 0.32091 0.0
C1373 C 0.49487 0.64132 0.42635 0.0
C1374 C 0.48863 0.64001 0.49759 0.0
C1375 C 0.4995 0.62987 0.54487 0.0
C1376 C 0.49284 0.62752 0.61053 0.0
C1377 C 0.47557 0.63569 0.63021 0.0
C1378 C 0.46494 0.64627 0.58419 0.0
C1379 C 0.47139 0.64841 0.51808 0.0
H1380 H 0.47043 0.63385 0.68112 0.0
H1381 H 0.51775 0.64775 0.02328 0.0
H1382 H 0.79865 0.46673 0.20262 0.0
H1383 H 0.82728 0.46703 0.27172 0.0
H1384 H 0.82462 0.52846 0.28281 0.0
H1385 H 0.79596 0.52813 0.21253 0.0
H1386 H 0.85859 0.51756 0.24082 0.0
H1387 H 0.8187 0.49979 0.42458 0.0
H1388 H 0.79428 0.48154 0.48637 0.0
H1389 H 0.82705 0.43031 0.46196 0.0
H1390 H 0.85157 0.44821 0.39922 0.0
H1391 H 0.93795 0.52451 0.46484 0.0
H1392 H 0.90735 0.52621 0.40644 0.0
H1393 H 0.90614 0.46482 0.3915 0.0
H1394 H 0.93622 0.46304 0.4521 0.0
H1395 H 0.87392 0.47637 0.43565 0.0
H1396 H 0.91354 0.49465 0.252 0.0
H1397 H 0.93816 0.51308 0.19183 0.0
H1398 H 0.90575 0.5644 0.21966 0.0
H1399 H 0.88104 0.54631 0.28081 0.0
C1400 C 0.80376 0.48023 0.22212 0.0
C1401 C 0.79504 0.49739 0.20287 0.0
C1402 C 0.82016 0.48042 0.26152 0.0
C1403 C 0.82818 0.49779 0.28248 0.0
C1404 C 0.81873 0.5149 0.26704 0.0
C1405 C 0.80222 0.5147 0.22778 0.0
C1406 C 0.8473 0.49804 0.31454 0.0
C1407 C 0.86182 0.50897 0.2847 0.0
C1408 C 0.85174 0.48624 0.36991 0.0
C1409 C 0.83686 0.47531 0.40648 0.0
C1410 C 0.82059 0.48459 0.4317 0.0
C1411 C 0.80677 0.47432 0.46709 0.0
C1412 C 0.80908 0.45477 0.47791 0.0
C1413 C 0.82526 0.44545 0.45344 0.0
C1414 C 0.83914 0.45566 0.418 0.0
C1415 C 0.93132 0.5114 0.44803 0.0
C1416 C 0.93958 0.49362 0.46274 0.0
C1417 C 0.91383 0.51239 0.41444 0.0
C1418 C 0.90445 0.49563 0.39396 0.0
C1419 C 0.91305 0.47794 0.40678 0.0
C1420 C 0.93034 0.47695 0.44102 0.0
C1421 C 0.88511 0.49635 0.36352 0.0
C1422 C 0.8706 0.48531 0.39281 0.0
C1423 C 0.88067 0.50822 0.3082 0.0
C1424 C 0.89554 0.51915 0.27165 0.0
C1425 C 0.91174 0.50989 0.24583 0.0
C1426 C 0.9257 0.52027 0.21143 0.0
C1427 C 0.92355 0.53991 0.20211 0.0
C1428 C 0.90741 0.5492 0.22702 0.0
C1429 C 0.89342 0.53888 0.2615 0.0
H1430 H 0.93437 0.54792 0.17544 0.0
H1431 H 0.79837 0.44684 0.50538 0.0
loop_
_geom_bond_atom_site_label_1
_geom_bond_atom_site_label_2
_geom_bond_distance
_geom_bond_site_symmetry_2
_ccdc_geom_bond_type
H0 C1 0.949 . S
C1 H0 0.949 . S
C1 C2 1.395 . S
C1 C3 1.391 1_556 S
C2 C1 1.395 . S
C2 C5 1.390 1_556 S
C3 C1 1.391 1_554 S
C3 C7 1.387 . S
C3 C8 1.491 . S
H4 C5 0.950 . S
C5 C2 1.390 1_554 S
C5 H4 0.950 . S
C5 C6 1.378 . S
C6 C5 1.378 . S
C6 C7 1.409 . S
C7 C3 1.387 . S
C7 C6 1.409 . S
C7 H9 0.951 . S
C8 C3 1.491 . S
C8 C10 1.382 1_554 S
C8 C12 1.404 . S
H9 C7 0.951 . S
C10 C8 1.382 1_556 S
C10 C11 1.390 . S
C10 H15 0.949 . S
C11 C10 1.390 . S
C11 C16 1.399 1_556 S
C12 C8 1.404 . S
C12 H13 0.950 . S
C12 C14 1.375 . S
H13 C12 0.950 . S
C14 C12 1.375 . S
C14 C16 1.382 . S
C14 H18 0.950 . S
H15 C10 0.949 . S
C16 C11 1.399 1_554 S
C16 C14 1.382 . S
C16 H17 0.952 . S
H17 C16 0.952 . S
H18 C14 0.950 . S
H19 C20 0.949 . S
C20 H19 0.949 . S
C20 C21 1.395 . S
C20 C22 1.391 1_556 S
C21 C20 1.395 . S
C21 C24 1.390 1_556 S
C22 C20 1.391 1_554 S
C22 C26 1.387 . S
C22 C27 1.491 . S
H23 C24 0.950 . S
C24 C21 1.390 1_554 S
C24 H23 0.950 . S
C24 C25 1.378 . S
C25 C24 1.378 . S
C25 C26 1.409 . S
C26 C22 1.387 . S
C26 C25 1.409 . S
C26 H28 0.951 . S
C27 C22 1.491 . S
C27 C29 1.382 1_554 S
C27 C31 1.404 . S
H28 C26 0.951 . S
C29 C27 1.382 1_556 S
C29 C30 1.390 . S
C29 H34 0.949 . S
C30 C29 1.390 . S
C30 C35 1.399 1_556 S
C31 C27 1.404 . S
C31 H32 0.950 . S
C31 C33 1.375 . S
H32 C31 0.950 . S
C33 C31 1.375 . S
C33 C35 1.382 . S
C33 H37 0.950 . S
H34 C29 0.949 . S
C35 C30 1.399 1_554 S
C35 C33 1.382 . S
C35 H36 0.952 . S
H36 C35 0.952 . S
H37 C33 0.950 . S
H38 C39 0.949 . S
C39 H38 0.949 . S
C39 C40 1.395 . S
C39 C41 1.391 1_556 S
C40 C39 1.395 . S
C40 C43 1.390 1_556 S
C41 C39 1.391 1_554 S
C41 C45 1.387 . S
C41 C46 1.491 . S
H42 C43 0.950 . S
C43 C40 1.390 1_554 S
C43 H42 0.950 . S
C43 C44 1.378 . S
C44 C43 1.378 . S
C44 C45 1.409 . S
C45 C41 1.387 . S
C45 C44 1.409 . S
C45 H47 0.951 . S
C46 C41 1.491 . S
C46 C48 1.382 1_554 S
C46 C50 1.404 . S
H47 C45 0.951 . S
C48 C46 1.382 1_556 S
C48 C49 1.390 . S
C48 H53 0.949 . S
C49 C48 1.390 . S
C49 C54 1.399 1_556 S
C50 C46 1.404 . S
C50 H51 0.950 . S
C50 C52 1.375 . S
H51 C50 0.950 . S
C52 C50 1.375 . S
C52 C54 1.382 . S
C52 H56 0.950 . S
H53 C48 0.949 . S
C54 C49 1.399 1_554 S
C54 C52 1.382 . S
C54 H55 0.952 . S
H55 C54 0.952 . S
H56 C52 0.950 . S
H57 C58 0.949 . S
C58 H57 0.949 . S
C58 C59 1.395 . S
C58 C60 1.391 1_556 S
C59 C58 1.395 . S
C59 C62 1.390 1_556 S
C60 C58 1.391 1_554 S
C60 C64 1.387 . S
C60 C65 1.491 . S
H61 C62 0.950 . S
C62 C59 1.390 1_554 S
C62 H61 0.950 . S
C62 C63 1.378 . S
C63 C62 1.378 . S
C63 C64 1.409 . S
C64 C60 1.387 . S
C64 C63 1.409 . S
C64 H66 0.951 . S
C65 C60 1.491 . S
C65 C67 1.382 1_554 S
C65 C69 1.404 . S
H66 C64 0.951 . S
C67 C65 1.382 1_556 S
C67 C68 1.390 . S
C67 H72 0.949 . S
C68 C67 1.390 . S
C68 C73 1.399 1_556 S
C69 C65 1.404 . S
C69 H70 0.950 . S
C69 C71 1.375 . S
H70 C69 0.950 . S
C71 C69 1.375 . S
C71 C73 1.382 . S
C71 H75 0.950 . S
H72 C67 0.949 . S
C73 C68 1.399 1_554 S
C73 C71 1.382 . S
C73 H74 0.952 . S
H74 C73 0.952 . S
H75 C71 0.950 . S
H76 C77 0.949 . S
C77 H76 0.949 . S
C77 C78 1.395 . S
C77 C79 1.391 . S
C78 C77 1.395 . S
C78 C81 1.390 . S
C79 C77 1.391 . S
C79 C83 1.387 . S
C79 C84 1.491 . S
H80 C81 0.950 . S
C81 C78 1.390 . S
C81 H80 0.950 . S
C81 C82 1.378 . S
C82 C81 1.378 . S
C82 C83 1.409 . S
C83 C79 1.387 . S
C83 C82 1.409 . S
C83 H85 0.951 . S
C84 C79 1.491 . S
C84 C86 1.382 . S
C84 C88 1.404 . S
H85 C83 0.951 . S
C86 C84 1.382 . S
C86 C87 1.390 . S
C86 H91 0.949 . S
C87 C86 1.390 . S
C87 C92 1.399 . S
C88 C84 1.404 . S
C88 H89 0.950 . S
C88 C90 1.375 . S
H89 C88 0.950 . S
C90 C88 1.375 . S
C90 C92 1.382 . S
C90 H94 0.950 . S
H91 C86 0.949 . S
C92 C87 1.399 . S
C92 C90 1.382 . S
C92 H93 0.952 . S
H93 C92 0.952 . S
H94 C90 0.950 . S
H95 C96 0.949 . S
C96 H95 0.949 . S
C96 C97 1.395 . S
C96 C98 1.391 . S
C97 C96 1.395 . S
C97 C100 1.390 . S
C98 C96 1.391 . S
C98 C102 1.387 . S
C98 C103 1.491 . S
H99 C100 0.950 . S
C100 C97 1.390 . S
C100 H99 0.950 . S
C100 C101 1.378 . S
C101 C100 1.378 . S
C101 C102 1.409 . S
C102 C98 1.387 . S
C102 C101 1.409 . S
C102 H104 0.951 . S
C103 C98 1.491 . S
C103 C105 1.382 . S
C103 C107 1.434 . S
H104 C102 0.951 . S
C105 C103 1.382 . S
C105 C106 1.390 . S
C105 H110 0.949 . S
C106 C105 1.390 . S
C106 C111 1.399 . S
C107 C103 1.434 . S
C107 H108 0.930 1_455 S
C107 C109 1.365 1_455 S
H108 C107 0.930 1_655 S
C109 C107 1.365 1_655 S
C109 C111 1.382 1_655 S
C109 H113 0.950 . S
H110 C105 0.949 . S
C111 C106 1.399 . S
C111 C109 1.382 1_455 S
C111 H112 0.952 . S
H112 C111 0.952 . S
H113 C109 0.950 . S
H114 C115 0.949 . S
C115 H114 0.949 . S
C115 C116 1.395 . S
C115 C117 1.391 . S
C116 C115 1.395 . S
C116 C119 1.390 . S
C117 C115 1.391 . S
C117 C121 1.387 . S
C117 C122 1.491 . S
H118 C119 0.950 . S
C119 C116 1.390 . S
C119 H118 0.950 . S
C119 C120 1.378 . S
C120 C119 1.378 . S
C120 C121 1.409 . S
C121 C117 1.387 . S
C121 C120 1.409 . S
C121 H123 0.951 . S
C122 C117 1.491 . S
C122 C124 1.382 . S
C122 C126 1.404 . S
H123 C121 0.951 . S
C124 C122 1.382 . S
C124 C125 1.390 . S
C124 H129 0.949 . S
C125 C124 1.390 . S
C125 C130 1.399 . S
C126 C122 1.404 . S
C126 H127 0.950 1_545 S
C126 C128 1.375 1_545 S
H127 C126 0.950 1_565 S
C128 C126 1.375 1_565 S
C128 C130 1.382 1_565 S
C128 H132 0.950 . S
H129 C124 0.949 . S
C130 C125 1.399 . S
C130 C128 1.382 1_545 S
C130 H131 0.952 . S
H131 C130 0.952 . S
H132 C128 0.950 . S
H133 C134 0.949 . S
C134 H133 0.949 . S
C134 C135 1.395 . S
C134 C136 1.391 . S
C135 C134 1.395 . S
C135 C138 1.390 . S
C136 C134 1.391 . S
C136 C140 1.387 . S
C136 C141 1.491 . S
H137 C138 0.950 . S
C138 C135 1.390 . S
C138 H137 0.950 . S
C138 C139 1.378 . S
C139 C138 1.378 . S
C139 C140 1.409 . S
C140 C136 1.387 . S
C140 C139 1.409 . S
C140 H142 0.951 . S
C141 C136 1.491 . S
C141 C143 1.382 . S
C141 C145 1.404 . S
H142 C140 0.951 . S
C143 C141 1.382 . S
C143 C144 1.390 . S
C143 H148 0.949 . S
C144 C143 1.390 . S
C144 C149 1.399 . S
C145 C141 1.404 . S
C145 H146 0.950 . S
C145 C147 1.375 . S
H146 C145 0.950 . S
C147 C145 1.375 . S
C147 C149 1.382 . S
C147 H151 0.950 . S
H148 C143 0.949 . S
C149 C144 1.399 . S
C149 C147 1.382 . S
C149 H150 0.952 . S
H150 C149 0.952 . S
H151 C147 0.950 . S
Zn152 O158 1.969 1_455 S
Zn152 O159 1.965 . S
Zn152 O163 2.024 . S
Zn152 O168 1.969 1_455 S
Zn153 O160 1.969 . S
Zn153 O166 1.969 . S
Zn153 O167 1.965 1_455 S
Zn153 O169 2.024 1_455 S
C154 O155 1.229 1_455 S
C154 O163 1.058 . S
O155 C154 1.229 1_655 S
C156 O157 1.229 1_655 S
C156 O169 1.058 . S
O157 C156 1.229 1_455 S
O158 Zn152 1.969 1_655 S
O158 C161 1.267 1_655 S
O159 Zn152 1.965 . S
O159 C170 1.260 . S
O160 Zn153 1.969 . S
O160 C170 1.258 1_565 S
C161 O158 1.267 1_455 S
C161 O162 1.228 . S
O162 C161 1.228 . S
O163 Zn152 2.024 . S
O163 C154 1.058 . S
C164 O165 1.228 1_455 S
C164 O166 1.267 . S
O165 C164 1.228 1_655 S
O166 Zn153 1.969 . S
O166 C164 1.267 . S
O167 Zn153 1.965 1_655 S
O167 C171 1.260 1_565 S
O168 Zn152 1.969 1_655 S
O168 C171 1.258 . S
O169 Zn153 2.024 1_655 S
O169 C156 1.058 . S
C170 O159 1.260 . S
C170 O160 1.258 1_545 S
C171 O167 1.260 1_545 S
C171 O168 1.258 . S
Zn172 O178 1.969 1_545 S
Zn172 O179 1.965 . S
Zn172 O183 2.024 . S
Zn172 O188 1.969 1_545 S
Zn173 O180 1.969 . S
Zn173 O186 1.969 . S
Zn173 O187 1.965 1_545 S
Zn173 O189 2.024 1_545 S
C174 O175 1.229 1_545 S
C174 O183 1.058 . S
O175 C174 1.229 1_565 S
C176 O177 1.229 1_565 S
C176 O189 1.058 . S
O177 C176 1.229 1_545 S
O178 Zn172 1.969 1_565 S
O178 C181 1.267 1_565 S
O179 Zn172 1.965 . S
O179 C190 1.260 . S
O180 Zn173 1.969 . S
O180 C190 1.258 . S
C181 O178 1.267 1_545 S
C181 O182 1.228 . S
O182 C181 1.228 . S
O183 Zn172 2.024 . S
O183 C174 1.058 . S
C184 O185 1.228 1_545 S
C184 O186 1.267 . S
O185 C184 1.228 1_565 S
O186 Zn173 1.969 . S
O186 C184 1.267 . S
O187 Zn173 1.965 1_565 S
O187 C191 1.260 . S
O188 Zn172 1.969 1_565 S
O188 C191 1.258 . S
O189 Zn173 2.024 1_565 S
O189 C176 1.058 . S
C190 O179 1.260 . S
C190 O180 1.258 . S
C191 O187 1.260 . S
C191 O188 1.258 . S
Zn192 O198 1.969 . S
Zn192 O199 1.965 . S
Zn192 O203 2.024 . S
Zn192 O208 1.969 . S
Zn193 O200 1.969 . S
Zn193 O206 1.969 . S
Zn193 O207 1.965 . S
Zn193 O209 2.024 . S
C194 O195 1.229 . S
C194 O203 1.058 . S
O195 C194 1.229 . S
C196 O197 1.229 . S
C196 O209 1.058 . S
O197 C196 1.229 . S
O198 Zn192 1.969 . S
O198 C201 1.267 . S
O199 Zn192 1.965 . S
O199 C210 1.260 . S
O200 Zn193 1.969 . S
O200 C210 1.258 . S
C201 O198 1.267 . S
C201 O202 1.228 . S
O202 C201 1.228 . S
O203 Zn192 2.024 . S
O203 C194 1.058 . S
C204 O205 1.228 . S
C204 O206 1.267 . S
O205 C204 1.228 . S
O206 Zn193 1.969 . S
O206 C204 1.267 . S
O207 Zn193 1.965 . S
O207 C211 1.260 . S
O208 Zn192 1.969 . S
O208 C211 1.258 . S
O209 Zn193 2.024 . S
O209 C196 1.058 . S
C210 O199 1.260 . S
C210 O200 1.258 . S
C211 O207 1.260 . S
C211 O208 1.258 . S
Zn212 O218 1.969 . S
Zn212 O219 1.965 . S
Zn212 O223 2.024 . S
Zn212 O228 1.969 . S
Zn213 O220 1.969 . S
Zn213 O226 1.969 . S
Zn213 O227 1.965 . S
Zn213 O229 2.024 . S
C214 O215 1.229 . S
C214 O223 1.058 . S
O215 C214 1.229 . S
C216 O217 1.229 . S
C216 O229 1.058 . S
O217 C216 1.229 . S
O218 Zn212 1.969 . S
O218 C221 1.267 . S
O219 Zn212 1.965 . S
O219 C230 1.260 . S
O220 Zn213 1.969 . S
O220 C230 1.258 1_655 S
C221 O218 1.267 . S
C221 O222 1.228 . S
O222 C221 1.228 . S
O223 Zn212 2.024 . S
O223 C214 1.058 . S
C224 O225 1.228 . S
C224 O226 1.267 . S
O225 C224 1.228 . S
O226 Zn213 1.969 . S
O226 C224 1.267 . S
O227 Zn213 1.965 . S
O227 C231 1.260 1_655 S
O228 Zn212 1.969 . S
O228 C231 1.258 . S
O229 Zn213 2.024 . S
O229 C216 1.058 . S
C230 O219 1.260 . S
C230 O220 1.258 1_455 S
C231 O227 1.260 1_455 S
C231 O228 1.258 . S
H232 C250 0.951 . S
H233 C252 0.951 . S
H234 C254 0.950 . S
H235 C255 0.950 . S
H236 C257 0.950 . S
H237 C260 0.950 . S
H238 C261 0.950 . S
H239 C263 0.950 . S
H240 C264 0.950 1_545 S
H241 C265 0.962 . S
H242 C267 0.951 . S
H243 C269 0.950 . S
H244 C270 0.950 . S
H245 C272 0.950 1_565 S
H246 C275 0.950 . S
H247 C276 0.950 . S
H248 C278 0.950 . S
H249 C279 0.950 . S
C250 H232 0.951 . S
C250 C251 1.366 . S
C250 C252 1.388 . S
C251 C250 1.366 . S
C251 C255 1.385 . S
C252 H233 0.951 . S
C252 C250 1.388 . S
C252 C253 1.366 . S
C253 C252 1.366 . S
C253 C254 1.414 . S
C253 C256 1.499 . S
C254 H234 0.950 . S
C254 C253 1.414 . S
C254 C255 1.374 . S
C255 H235 0.950 . S
C255 C251 1.385 . S
C255 C254 1.374 . S
C256 C253 1.499 . S
C256 C257 1.373 . S
C256 C258 1.389 . S
C257 H236 0.950 . S
C257 C256 1.373 . S
C257 C273 1.377 . S
C258 C256 1.389 . S
C258 C259 1.524 1_545 S
C258 C272 1.377 . S
C259 C258 1.524 1_565 S
C259 C260 1.397 . S
C259 C264 1.363 . S
C260 H237 0.950 . S
C260 C259 1.397 . S
C260 C261 1.334 . S
C261 H238 0.950 . S
C261 C260 1.334 . S
C261 C262 1.287 . S
C262 C261 1.287 . S
C262 C263 1.524 . S
C262 H281 0.913 . S
C263 H239 0.950 . S
C263 C262 1.524 . S
C263 C264 1.415 . S
C264 H240 0.950 1_565 S
C264 C259 1.363 . S
C264 C263 1.415 . S
C265 H241 0.962 . S
C265 C266 1.366 . S
C265 C267 1.388 . S
C266 C265 1.366 . S
C266 C270 1.385 . S
C267 H242 0.951 . S
C267 C265 1.388 . S
C267 C268 1.366 . S
C268 C267 1.366 . S
C268 C269 1.414 . S
C268 C271 1.499 . S
C269 H243 0.950 . S
C269 C268 1.414 . S
C269 C270 1.374 . S
C270 H244 0.950 . S
C270 C266 1.385 . S
C270 C269 1.374 . S
C271 C268 1.499 . S
C271 C272 1.373 . S
C271 C273 1.389 . S
C272 H245 0.950 1_545 S
C272 C258 1.377 . S
C272 C271 1.373 . S
C273 C257 1.377 . S
C273 C271 1.389 . S
C273 C274 1.524 . S
C274 C273 1.524 . S
C274 C275 1.397 . S
C274 C279 1.363 . S
C275 H246 0.950 . S
C275 C274 1.397 . S
C275 C276 1.334 . S
C276 H247 0.950 . S
C276 C275 1.334 . S
C276 C277 1.287 . S
C277 C276 1.287 . S
C277 C278 1.524 . S
C277 H280 0.999 . S
C278 H248 0.950 . S
C278 C277 1.524 . S
C278 C279 1.415 . S
C279 H249 0.950 . S
C279 C274 1.363 . S
C279 C278 1.415 . S
H280 C277 0.999 . S
H281 C262 0.913 . S
H282 C300 0.951 . S
H283 C302 0.951 . S
H284 C304 0.950 . S
H285 C305 0.950 . S
H286 C307 0.950 . S
H287 C310 0.950 . S
H288 C311 0.950 . S
H289 C313 0.950 . S
H290 C314 0.950 . S
H291 C315 0.951 . S
H292 C317 0.951 . S
H293 C319 0.950 . S
H294 C320 0.950 . S
H295 C322 0.950 . S
H296 C325 0.950 . S
H297 C326 0.950 . S
H298 C328 0.950 . S
H299 C329 0.950 . S
C300 H282 0.951 . S
C300 C301 1.366 . S
C300 C302 1.388 . S
C301 C300 1.366 . S
C301 C305 1.385 . S
C302 H283 0.951 . S
C302 C300 1.388 . S
C302 C303 1.366 . S
C303 C302 1.366 . S
C303 C304 1.414 . S
C303 C306 1.499 . S
C304 H284 0.950 . S
C304 C303 1.414 . S
C304 C305 1.374 . S
C305 H285 0.950 . S
C305 C301 1.385 . S
C305 C304 1.374 . S
C306 C303 1.499 . S
C306 C307 1.373 . S
C306 C308 1.389 . S
C307 H286 0.950 . S
C307 C306 1.373 . S
C307 C323 1.377 . S
C308 C306 1.389 . S
C308 C309 1.524 . S
C308 C322 1.377 . S
C309 C308 1.524 . S
C309 C310 1.397 . S
C309 C314 1.363 . S
C310 H287 0.950 . S
C310 C309 1.397 . S
C310 C311 1.334 . S
C311 H288 0.950 . S
C311 C310 1.334 . S
C311 C312 1.287 . S
C312 C311 1.287 . S
C312 C313 1.524 . S
C312 H331 0.913 . S
C313 H289 0.950 . S
C313 C312 1.524 . S
C313 C314 1.415 . S
C314 H290 0.950 . S
C314 C309 1.363 . S
C314 C313 1.415 . S
C315 H291 0.951 . S
C315 C316 1.366 . S
C315 C317 1.388 . S
C316 C315 1.366 . S
C316 C320 1.385 . S
C317 H292 0.951 . S
C317 C315 1.388 . S
C317 C318 1.366 . S
C318 C317 1.366 . S
C318 C319 1.414 . S
C318 C321 1.499 . S
C319 H293 0.950 . S
C319 C318 1.414 . S
C319 C320 1.374 . S
C320 H294 0.950 . S
C320 C316 1.385 . S
C320 C319 1.374 . S
C321 C318 1.499 . S
C321 C322 1.373 . S
C321 C323 1.389 . S
C322 H295 0.950 . S
C322 C308 1.377 . S
C322 C321 1.373 . S
C323 C307 1.377 . S
C323 C321 1.389 . S
C323 C324 1.524 . S
C324 C323 1.524 . S
C324 C325 1.397 . S
C324 C329 1.363 . S
C325 H296 0.950 . S
C325 C324 1.397 . S
C325 C326 1.334 . S
C326 H297 0.950 . S
C326 C325 1.334 . S
C326 C327 1.287 . S
C327 C326 1.287 . S
C327 C328 1.524 . S
C327 H330 0.999 . S
C328 H298 0.950 . S
C328 C327 1.524 . S
C328 C329 1.415 . S
C329 H299 0.950 . S
C329 C324 1.363 . S
C329 C328 1.415 . S
H330 C327 0.999 . S
H331 C312 0.913 . S
H332 C350 0.951 . S
H333 C352 0.951 . S
H334 C354 0.950 . S
H335 C355 0.950 . S
H336 C357 0.950 . S
H337 C360 0.950 . S
H338 C361 0.950 . S
H339 C363 0.950 . S
H340 C364 0.950 . S
H341 C365 0.951 . S
H342 C367 0.951 . S
H343 C369 0.950 . S
H344 C370 0.950 . S
H345 C372 0.950 . S
H346 C375 0.950 . S
H347 C376 0.950 . S
H348 C378 0.950 . S
H349 C379 0.950 . S
C350 H332 0.951 . S
C350 C351 1.366 . S
C350 C352 1.388 . S
C351 C350 1.366 . S
C351 C355 1.385 . S
C352 H333 0.951 . S
C352 C350 1.388 . S
C352 C353 1.366 . S
C353 C352 1.366 . S
C353 C354 1.414 . S
C353 C356 1.499 . S
C354 H334 0.950 . S
C354 C353 1.414 . S
C354 C355 1.374 . S
C355 H335 0.950 . S
C355 C351 1.385 . S
C355 C354 1.374 . S
C356 C353 1.499 . S
C356 C357 1.373 . S
C356 C358 1.389 . S
C357 H336 0.950 . S
C357 C356 1.373 . S
C357 C373 1.377 . S
C358 C356 1.389 . S
C358 C359 1.524 . S
C358 C372 1.377 . S
C359 C358 1.524 . S
C359 C360 1.397 . S
C359 C364 1.363 . S
C360 H337 0.950 . S
C360 C359 1.397 . S
C360 C361 1.334 . S
C361 H338 0.950 . S
C361 C360 1.334 . S
C361 C362 1.287 . S
C362 C361 1.287 . S
C362 C363 1.524 . S
C362 H381 0.913 . S
C363 H339 0.950 . S
C363 C362 1.524 . S
C363 C364 1.415 . S
C364 H340 0.950 . S
C364 C359 1.363 . S
C364 C363 1.415 . S
C365 H341 0.951 . S
C365 C366 1.366 . S
C365 C367 1.388 . S
C366 C365 1.366 . S
C366 C370 1.385 . S
C367 H342 0.951 . S
C367 C365 1.388 . S
C367 C368 1.366 . S
C368 C367 1.366 . S
C368 C369 1.414 . S
C368 C371 1.499 . S
C369 H343 0.950 . S
C369 C368 1.414 . S
C369 C370 1.374 . S
C370 H344 0.950 . S
C370 C366 1.385 . S
C370 C369 1.374 . S
C371 C368 1.499 . S
C371 C372 1.373 . S
C371 C373 1.389 . S
C372 H345 0.950 . S
C372 C358 1.377 . S
C372 C371 1.373 . S
C373 C357 1.377 . S
C373 C371 1.389 . S
C373 C374 1.524 . S
C374 C373 1.524 . S
C374 C375 1.397 . S
C374 C379 1.363 . S
C375 H346 0.950 . S
C375 C374 1.397 . S
C375 C376 1.334 . S
C376 H347 0.950 . S
C376 C375 1.334 . S
C376 C377 1.287 . S
C377 C376 1.287 . S
C377 C378 1.524 . S
C377 H380 0.999 . S
C378 H348 0.950 . S
C378 C377 1.524 . S
C378 C379 1.415 . S
C379 H349 0.950 . S
C379 C374 1.363 . S
C379 C378 1.415 . S
H380 C377 0.999 . S
H381 C362 0.913 . S
H382 C400 0.951 . S
H383 C402 0.951 . S
H384 C404 0.950 . S
H385 C405 0.950 . S
H386 C407 0.942 1_655 S
H387 C410 0.950 . S
H388 C411 0.950 . S
H389 C413 0.950 . S
H390 C414 0.950 . S
H391 C415 0.951 . S
H392 C417 0.951 . S
H393 C419 0.950 . S
H394 C420 0.957 . S
H395 C422 0.950 . S
H396 C425 0.950 . S
H397 C426 0.950 . S
H398 C428 0.950 . S
H399 C429 0.967 . S
C400 H382 0.951 . S
C400 C401 1.366 . S
C400 C402 1.388 . S
C401 C400 1.366 . S
C401 C405 1.385 . S
C402 H383 0.951 . S
C402 C400 1.388 . S
C402 C403 1.366 . S
C403 C402 1.366 . S
C403 C404 1.414 . S
C403 C406 1.499 . S
C404 H384 0.950 . S
C404 C403 1.414 . S
C404 C405 1.374 . S
C405 H385 0.950 . S
C405 C401 1.385 . S
C405 C404 1.374 . S
C406 C403 1.499 . S
C406 C407 1.373 . S
C406 C408 1.389 . S
C407 H386 0.942 1_455 S
C407 C406 1.373 . S
C407 C423 1.377 . S
C408 C406 1.389 . S
C408 C409 1.524 . S
C408 C422 1.377 . S
C409 C408 1.524 . S
C409 C410 1.397 . S
C409 C414 1.363 . S
C410 H387 0.950 . S
C410 C409 1.397 . S
C410 C411 1.334 . S
C411 H388 0.950 . S
C411 C410 1.334 . S
C411 C412 1.287 . S
C412 C411 1.287 . S
C412 C413 1.524 . S
C412 H431 0.913 . S
C413 H389 0.950 . S
C413 C412 1.524 . S
C413 C414 1.415 . S
C414 H390 0.950 . S
C414 C409 1.363 . S
C414 C413 1.415 . S
C415 H391 0.951 . S
C415 C416 1.366 . S
C415 C417 1.388 . S
C416 C415 1.366 . S
C416 C420 1.385 . S
C417 H392 0.951 . S
C417 C415 1.388 . S
C417 C418 1.366 . S
C418 C417 1.366 . S
C418 C419 1.414 . S
C418 C421 1.499 . S
C419 H393 0.950 . S
C419 C418 1.414 . S
C419 C420 1.374 . S
C420 H394 0.957 . S
C420 C416 1.385 . S
C420 C419 1.374 . S
C421 C418 1.499 . S
C421 C422 1.373 . S
C421 C423 1.389 . S
C422 H395 0.950 . S
C422 C408 1.377 . S
C422 C421 1.373 . S
C423 C407 1.377 . S
C423 C421 1.389 . S
C423 C424 1.524 1_455 S
C424 C423 1.524 1_655 S
C424 C425 1.397 . S
C424 C429 1.363 . S
C425 H396 0.950 . S
C425 C424 1.397 . S
C425 C426 1.334 . S
C426 H397 0.950 . S
C426 C425 1.334 . S
C426 C427 1.287 . S
C427 C426 1.287 . S
C427 C428 1.524 . S
C427 H430 0.999 . S
C428 H398 0.950 . S
C428 C427 1.524 . S
C428 C429 1.415 . S
C429 H399 0.967 . S
C429 C424 1.363 . S
C429 C428 1.415 . S
H430 C427 0.999 . S
H431 C412 0.913 . S
H432 C450 0.951 1_554 S
H433 C452 0.951 . S
H434 C454 0.950 . S
H435 C455 0.950 . S
H436 C457 0.950 . S
H437 C460 0.950 . S
H438 C461 0.950 . S
H439 C463 0.950 . S
H440 C464 0.950 . S
H441 C465 0.951 . S
H442 C467 0.951 1_545 S
H443 C469 0.950 . S
H444 C470 0.950 . S
H445 C472 0.950 . S
H446 C475 0.950 . S
H447 C476 0.950 . S
H448 C478 0.950 . S
H449 C479 0.950 . S
C450 H432 0.951 1_556 S
C450 C451 1.366 . S
C450 C452 1.388 . S
C451 C450 1.366 . S
C451 C455 1.385 . S
C452 H433 0.951 . S
C452 C450 1.388 . S
C452 C453 1.366 . S
C453 C452 1.366 . S
C453 C454 1.414 . S
C453 C456 1.499 . S
C454 H434 0.950 . S
C454 C453 1.414 . S
C454 C455 1.374 . S
C455 H435 0.950 . S
C455 C451 1.385 . S
C455 C454 1.374 . S
C456 C453 1.499 . S
C456 C457 1.373 . S
C456 C458 1.389 1_565 S
C457 H436 0.950 . S
C457 C456 1.373 . S
C457 C473 1.377 . S
C458 C456 1.389 1_545 S
C458 C459 1.524 . S
C458 C472 1.377 . S
C459 C458 1.524 . S
C459 C460 1.397 . S
C459 C464 1.363 . S
C460 H437 0.950 . S
C460 C459 1.397 . S
C460 C461 1.334 . S
C461 H438 0.950 . S
C461 C460 1.334 . S
C461 C462 1.287 1_556 S
C462 C461 1.287 1_554 S
C462 C463 1.524 . S
C462 H481 0.913 . S
C463 H439 0.950 . S
C463 C462 1.524 . S
C463 C464 1.415 1_554 S
C464 H440 0.950 . S
C464 C459 1.363 . S
C464 C463 1.415 1_556 S
C465 H441 0.951 . S
C465 C466 1.368 . S
C465 C467 1.388 1_545 S
C466 C465 1.368 . S
C466 C470 1.380 1_545 S
C467 H442 0.951 1_565 S
C467 C465 1.388 1_565 S
C467 C468 1.365 . S
C468 C467 1.365 . S
C468 C469 1.414 . S
C468 C471 1.499 . S
C469 H443 0.950 . S
C469 C468 1.414 . S
C469 C470 1.374 . S
C470 H444 0.950 . S
C470 C466 1.380 1_565 S
C470 C469 1.374 . S
C471 C468 1.499 . S
C471 C472 1.373 1_565 S
C471 C473 1.389 . S
C472 H445 0.950 . S
C472 C458 1.377 . S
C472 C471 1.373 1_545 S
C473 C457 1.377 . S
C473 C471 1.389 . S
C473 C474 1.524 . S
C474 C473 1.524 . S
C474 C475 1.397 . S
C474 C479 1.363 . S
C475 H446 0.950 . S
C475 C474 1.397 . S
C475 C476 1.334 . S
C476 H447 0.950 . S
C476 C475 1.334 . S
C476 C477 1.287 . S
C477 C476 1.287 . S
C477 C478 1.524 . S
C477 H480 0.999 . S
C478 H448 0.950 . S
C478 C477 1.524 . S
C478 C479 1.415 . S
C479 H449 0.950 . S
C479 C474 1.363 . S
C479 C478 1.415 . S
H480 C477 0.999 . S
H481 C462 0.913 . S
H482 C500 0.951 . S
H483 C502 0.951 . S
H484 C504 0.950 . S
H485 C505 0.950 1_554 S
H486 C507 0.950 . S
H487 C510 0.950 . S
H488 C511 0.950 . S
H489 C513 0.950 . S
H490 C514 0.950 . S
H491 C515 0.951 . S
H492 C517 0.951 . S
H493 C519 0.950 . S
H494 C520 0.950 . S
H495 C522 0.950 . S
H496 C525 0.950 . S
H497 C526 0.950 . S
H498 C528 0.950 1_554 S
H499 C529 0.950 . S
C500 H482 0.951 . S
C500 C501 1.366 . S
C500 C502 1.388 . S
C501 C500 1.366 . S
C501 C505 1.385 . S
C502 H483 0.951 . S
C502 C500 1.388 . S
C502 C503 1.366 . S
C503 C502 1.366 . S
C503 C504 1.414 . S
C503 C506 1.499 . S
C504 H484 0.950 . S
C504 C503 1.414 . S
C504 C505 1.374 . S
C505 H485 0.950 1_556 S
C505 C501 1.385 . S
C505 C504 1.374 . S
C506 C503 1.499 . S
C506 C507 1.373 . S
C506 C508 1.389 . S
C507 H486 0.950 . S
C507 C506 1.373 . S
C507 C523 1.377 . S
C508 C506 1.389 . S
C508 C509 1.524 . S
C508 C522 1.377 . S
C509 C508 1.524 . S
C509 C510 1.397 . S
C509 C514 1.363 . S
C510 H487 0.950 . S
C510 C509 1.397 . S
C510 C511 1.334 . S
C511 H488 0.950 . S
C511 C510 1.334 . S
C511 C512 1.287 . S
C512 C511 1.287 . S
C512 C513 1.524 . S
C512 H531 0.913 . S
C513 H489 0.950 . S
C513 C512 1.524 . S
C513 C514 1.415 . S
C514 H490 0.950 . S
C514 C509 1.363 . S
C514 C513 1.415 . S
C515 H491 0.951 . S
C515 C516 1.366 . S
C515 C517 1.388 . S
C516 C515 1.366 . S
C516 C520 1.385 . S
C517 H492 0.951 . S
C517 C515 1.388 . S
C517 C518 1.366 . S
C518 C517 1.366 . S
C518 C519 1.414 . S
C518 C521 1.499 . S
C519 H493 0.950 . S
C519 C518 1.414 . S
C519 C520 1.374 . S
C520 H494 0.950 . S
C520 C516 1.385 . S
C520 C519 1.374 . S
C521 C518 1.499 . S
C521 C522 1.373 . S
C521 C523 1.389 . S
C522 H495 0.950 . S
C522 C508 1.377 . S
C522 C521 1.373 . S
C523 C507 1.377 . S
C523 C521 1.389 . S
C523 C524 1.524 . S
C524 C523 1.524 . S
C524 C525 1.397 . S
C524 C529 1.363 . S
C525 H496 0.950 . S
C525 C524 1.397 . S
C525 C526 1.334 . S
C526 H497 0.950 . S
C526 C525 1.334 . S
C526 C527 1.287 . S
C527 C526 1.287 . S
C527 C528 1.524 . S
C527 H530 0.999 . S
C528 H498 0.950 1_556 S
C528 C527 1.524 . S
C528 C529 1.415 . S
C529 H499 0.950 . S
C529 C524 1.363 . S
C529 C528 1.415 . S
H530 C527 0.999 . S
H531 C512 0.913 . S
H532 C550 0.951 . S
H533 C552 0.951 . S
H534 C554 0.950 . S
H535 C555 0.938 1_554 S
H536 C557 0.950 . S
H537 C560 0.950 . S
H538 C561 0.950 . S
H539 C563 0.950 . S
H540 C564 0.950 . S
H541 C565 0.951 . S
H542 C567 0.951 . S
H543 C569 0.950 . S
H544 C570 0.950 . S
H545 C572 0.950 . S
H546 C575 0.950 . S
H547 C576 0.950 . S
H548 C578 0.950 1_554 S
H549 C579 0.950 . S
C550 H532 0.951 . S
C550 C551 1.366 . S
C550 C552 1.388 . S
C551 C550 1.366 . S
C551 C555 1.385 . S
C552 H533 0.951 . S
C552 C550 1.388 . S
C552 C553 1.366 . S
C553 C552 1.366 . S
C553 C554 1.414 . S
C553 C556 1.499 . S
C554 H534 0.950 . S
C554 C553 1.414 . S
C554 C555 1.374 . S
C555 H535 0.938 1_556 S
C555 C551 1.385 . S
C555 C554 1.374 . S
C556 C553 1.499 . S
C556 C557 1.373 . S
C556 C558 1.389 . S
C557 H536 0.950 . S
C557 C556 1.373 . S
C557 C573 1.377 . S
C558 C556 1.389 . S
C558 C559 1.524 . S
C558 C572 1.377 . S
C559 C558 1.524 . S
C559 C560 1.397 . S
C559 C564 1.363 . S
C560 H537 0.950 . S
C560 C559 1.397 . S
C560 C561 1.334 . S
C561 H538 0.950 . S
C561 C560 1.334 . S
C561 C562 1.287 . S
C562 C561 1.287 . S
C562 C563 1.524 . S
C562 H581 0.913 . S
C563 H539 0.950 . S
C563 C562 1.524 . S
C563 C564 1.415 . S
C564 H540 0.950 . S
C564 C559 1.363 . S
C564 C563 1.415 . S
C565 H541 0.951 . S
C565 C566 1.366 . S
C565 C567 1.388 . S
C566 C565 1.366 . S
C566 C570 1.385 . S
C567 H542 0.951 . S
C567 C565 1.388 . S
C567 C568 1.366 . S
C568 C567 1.366 . S
C568 C569 1.414 . S
C568 C571 1.499 . S
C569 H543 0.950 . S
C569 C568 1.414 . S
C569 C570 1.374 . S
C570 H544 0.950 . S
C570 C566 1.385 . S
C570 C569 1.374 . S
C571 C568 1.499 . S
C571 C572 1.373 . S
C571 C573 1.389 . S
C572 H545 0.950 . S
C572 C558 1.377 . S
C572 C571 1.373 . S
C573 C557 1.377 . S
C573 C571 1.389 . S
C573 C574 1.524 . S
C574 C573 1.524 . S
C574 C575 1.397 . S
C574 C579 1.363 . S
C575 H546 0.950 . S
C575 C574 1.397 . S
C575 C576 1.334 . S
C576 H547 0.950 . S
C576 C575 1.334 . S
C576 C577 1.287 . S
C577 C576 1.287 . S
C577 C578 1.524 . S
C577 H580 0.999 . S
C578 H548 0.950 1_556 S
C578 C577 1.524 . S
C578 C579 1.415 . S
C579 H549 0.950 . S
C579 C574 1.363 . S
C579 C578 1.415 . S
H580 C577 0.999 . S
H581 C562 0.913 . S
H582 C600 0.951 . S
H583 C602 0.951 . S
H584 C604 0.950 1_455 S
H585 C605 0.950 1_455 S
H586 C607 0.950 . S
H587 C610 0.950 . S
H588 C611 0.950 . S
H589 C613 0.950 . S
H590 C614 0.950 . S
H591 C615 0.951 . S
H592 C617 0.951 . S
H593 C619 0.950 . S
H594 C620 0.950 . S
H595 C622 0.950 . S
H596 C625 0.950 . S
H597 C626 0.950 . S
H598 C628 0.950 . S
H599 C629 0.950 1_455 S
C600 H582 0.951 . S
C600 C601 1.366 . S
C600 C602 1.388 . S
C601 C600 1.366 . S
C601 C605 1.385 . S
C602 H583 0.951 . S
C602 C600 1.388 . S
C602 C603 1.366 . S
C603 C602 1.366 . S
C603 C604 1.414 . S
C603 C606 1.499 . S
C604 H584 0.950 1_655 S
C604 C603 1.414 . S
C604 C605 1.374 . S
C605 H585 0.950 1_655 S
C605 C601 1.385 . S
C605 C604 1.374 . S
C606 C603 1.499 . S
C606 C607 1.373 . S
C606 C608 1.389 . S
C607 H586 0.950 . S
C607 C606 1.373 . S
C607 C623 1.377 . S
C608 C606 1.389 . S
C608 C609 1.524 . S
C608 C622 1.377 . S
C609 C608 1.524 . S
C609 C610 1.397 1_655 S
C609 C614 1.363 . S
C610 H587 0.950 . S
C610 C609 1.397 1_455 S
C610 C611 1.334 1_556 S
C611 H588 0.950 . S
C611 C610 1.334 1_554 S
C611 C612 1.287 . S
C612 C611 1.287 . S
C612 C613 1.524 1_455 S
C612 H631 0.913 . S
C613 H589 0.950 . S
C613 C612 1.524 1_655 S
C613 C614 1.415 1_554 S
C614 H590 0.950 . S
C614 C609 1.363 . S
C614 C613 1.415 1_556 S
C615 H591 0.951 . S
C615 C616 1.359 1_455 S
C615 C617 1.388 . S
C616 C615 1.359 1_655 S
C616 C620 1.393 . S
C617 H592 0.951 . S
C617 C615 1.388 . S
C617 C618 1.366 1_455 S
C618 C617 1.366 1_655 S
C618 C619 1.414 . S
C618 C621 1.499 . S
C619 H593 0.950 . S
C619 C618 1.414 . S
C619 C620 1.374 . S
C620 H594 0.950 . S
C620 C616 1.393 . S
C620 C619 1.374 . S
C621 C618 1.499 . S
C621 C622 1.373 . S
C621 C623 1.389 . S
C622 H595 0.950 . S
C622 C608 1.377 . S
C622 C621 1.373 . S
C623 C607 1.377 . S
C623 C621 1.389 . S
C623 C624 1.524 . S
C624 C623 1.524 . S
C624 C625 1.397 . S
C624 C629 1.363 . S
C625 H596 0.950 . S
C625 C624 1.397 . S
C625 C626 1.334 . S
C626 H597 0.950 . S
C626 C625 1.334 . S
C626 C627 1.287 . S
C627 C626 1.287 . S
C627 C628 1.524 . S
C627 H630 0.999 . S
C628 H598 0.950 . S
C628 C627 1.524 . S
C628 C629 1.415 . S
C629 H599 0.950 1_655 S
C629 C624 1.363 . S
C629 C628 1.415 . S
H630 C627 0.999 . S
H631 C612 0.913 . S
H632 C650 0.951 . S
H633 C652 0.951 . S
H634 C654 0.950 1_655 S
H635 C655 0.950 1_655 S
H636 C657 0.979 . S
H637 C660 0.950 . S
H638 C661 0.950 . S
H639 C663 0.950 . S
H640 C664 0.950 . S
H641 C665 0.951 . S
H642 C667 0.951 . S
H643 C669 0.950 . S
H644 C670 0.950 . S
H645 C672 0.950 . S
H646 C675 0.950 . S
H647 C676 0.950 . S
H648 C678 0.950 . S
H649 C679 0.950 . S
C650 H632 0.951 . S
C650 C651 1.366 . S
C650 C652 1.388 . S
C651 C650 1.366 . S
C651 C655 1.385 . S
C652 H633 0.951 . S
C652 C650 1.388 . S
C652 C653 1.366 . S
C653 C652 1.366 . S
C653 C654 1.414 . S
C653 C656 1.499 . S
C654 H634 0.950 1_455 S
C654 C653 1.414 . S
C654 C655 1.374 . S
C655 H635 0.950 1_455 S
C655 C651 1.385 . S
C655 C654 1.374 . S
C656 C653 1.499 . S
C656 C657 1.341 1_455 S
C656 C658 1.389 . S
C657 H636 0.979 . S
C657 C656 1.341 1_655 S
C657 C673 1.382 . S
C658 C656 1.389 . S
C658 C659 1.524 . S
C658 C672 1.377 . S
C659 C658 1.524 . S
C659 C660 1.397 . S
C659 C664 1.363 . S
C660 H637 0.950 . S
C660 C659 1.397 . S
C660 C661 1.334 . S
C661 H638 0.950 . S
C661 C660 1.334 . S
C661 C662 1.287 . S
C662 C661 1.287 . S
C662 C663 1.524 . S
C662 H681 0.913 . S
C663 H639 0.950 . S
C663 C662 1.524 . S
C663 C664 1.415 . S
C664 H640 0.950 . S
C664 C659 1.363 . S
C664 C663 1.415 . S
C665 H641 0.951 . S
C665 C666 1.320 1_655 S
C665 C667 1.388 . S
C666 C665 1.320 1_455 S
C666 C670 1.439 . S
C667 H642 0.951 . S
C667 C665 1.388 . S
C667 C668 1.366 1_655 S
C668 C667 1.366 1_455 S
C668 C669 1.414 . S
C668 C671 1.499 . S
C669 H643 0.950 . S
C669 C668 1.414 . S
C669 C670 1.374 . S
C670 H644 0.950 . S
C670 C666 1.439 . S
C670 C669 1.374 . S
C671 C668 1.499 . S
C671 C672 1.373 . S
C671 C673 1.389 1_455 S
C672 H645 0.950 . S
C672 C658 1.377 . S
C672 C671 1.373 . S
C673 C657 1.382 . S
C673 C671 1.389 1_655 S
C673 C674 1.524 . S
C674 C673 1.524 . S
C674 C675 1.397 . S
C674 C679 1.363 . S
C675 H646 0.950 . S
C675 C674 1.397 . S
C675 C676 1.334 . S
C676 H647 0.950 . S
C676 C675 1.334 . S
C676 C677 1.287 . S
C677 C676 1.287 . S
C677 C678 1.524 . S
C677 H680 0.999 . S
C678 H648 0.950 . S
C678 C677 1.524 . S
C678 C679 1.415 . S
C679 H649 0.950 . S
C679 C674 1.363 . S
C679 C678 1.415 . S
H680 C677 0.999 . S
H681 C662 0.913 . S
H682 C700 0.951 1_565 S
H683 C702 0.951 1_565 S
H684 C704 0.950 . S
H685 C705 0.950 . S
H686 C707 0.950 . S
H687 C710 0.950 . S
H688 C711 0.950 . S
H689 C713 0.950 . S
H690 C714 0.950 . S
H691 C715 0.951 . S
H692 C717 0.951 . S
H693 C719 0.950 . S
H694 C720 0.950 . S
H695 C722 0.926 1_565 S
H696 C725 0.950 1_565 S
H697 C726 0.950 1_565 S
H698 C728 0.950 . S
H699 C729 0.950 . S
C700 H682 0.951 1_545 S
C700 C701 1.366 . S
C700 C702 1.388 . S
C701 C700 1.366 . S
C701 C705 1.385 . S
C702 H683 0.951 1_545 S
C702 C700 1.388 . S
C702 C703 1.366 . S
C703 C702 1.366 . S
C703 C704 1.414 . S
C703 C706 1.499 . S
C704 H684 0.950 . S
C704 C703 1.414 . S
C704 C705 1.374 . S
C705 H685 0.950 . S
C705 C701 1.385 . S
C705 C704 1.374 . S
C706 C703 1.499 . S
C706 C707 1.373 . S
C706 C708 1.389 . S
C707 H686 0.950 . S
C707 C706 1.373 . S
C707 C723 1.377 . S
C708 C706 1.389 . S
C708 C709 1.524 . S
C708 C722 1.377 . S
C709 C708 1.524 . S
C709 C710 1.397 . S
C709 C714 1.363 1_545 S
C710 H687 0.950 . S
C710 C709 1.397 . S
C710 C711 1.334 . S
C711 H688 0.950 . S
C711 C710 1.334 . S
C711 C712 1.287 . S
C712 C711 1.287 . S
C712 C713 1.524 1_545 S
C712 H731 0.919 . S
C713 H689 0.950 . S
C713 C712 1.524 1_565 S
C713 C714 1.415 . S
C714 H690 0.950 . S
C714 C709 1.363 1_565 S
C714 C713 1.415 . S
C715 H691 0.951 . S
C715 C716 1.366 . S
C715 C717 1.388 . S
C716 C715 1.366 . S
C716 C720 1.385 1_545 S
C717 H692 0.951 . S
C717 C715 1.388 . S
C717 C718 1.366 . S
C718 C717 1.366 . S
C718 C719 1.414 1_545 S
C718 C721 1.499 . S
C719 H693 0.950 . S
C719 C718 1.414 1_565 S
C719 C720 1.374 . S
C720 H694 0.950 . S
C720 C716 1.385 1_565 S
C720 C719 1.374 . S
C721 C718 1.499 . S
C721 C722 1.373 . S
C721 C723 1.389 . S
C722 H695 0.926 1_545 S
C722 C708 1.377 . S
C722 C721 1.373 . S
C723 C707 1.377 . S
C723 C721 1.389 . S
C723 C724 1.524 . S
C724 C723 1.524 . S
C724 C725 1.397 . S
C724 C729 1.363 . S
C725 H696 0.950 1_545 S
C725 C724 1.397 . S
C725 C726 1.334 . S
C726 H697 0.950 1_545 S
C726 C725 1.334 . S
C726 C727 1.287 . S
C727 C726 1.287 . S
C727 C728 1.524 . S
C727 H730 0.999 . S
C728 H698 0.950 . S
C728 C727 1.524 . S
C728 C729 1.415 . S
C729 H699 0.950 . S
C729 C724 1.363 . S
C729 C728 1.415 . S
H730 C727 0.999 . S
H731 C712 0.919 . S
H732 C750 0.951 . S
H733 C752 0.951 . S
H734 C754 0.950 . S
H735 C755 0.950 . S
H736 C757 0.950 . S
H737 C760 0.950 . S
H738 C761 0.950 . S
H739 C763 0.950 . S
H740 C764 0.950 . S
H741 C765 0.951 . S
H742 C767 0.951 . S
H743 C769 0.950 . S
H744 C770 0.950 . S
H745 C772 0.950 . S
H746 C775 0.950 . S
H747 C776 0.950 . S
H748 C778 0.950 . S
H749 C779 0.950 . S
C750 H732 0.951 . S
C750 C751 1.366 . S
C750 C752 1.388 . S
C751 C750 1.366 . S
C751 C755 1.385 . S
C752 H733 0.951 . S
C752 C750 1.388 . S
C752 C753 1.366 . S
C753 C752 1.366 . S
C753 C754 1.414 . S
C753 C756 1.499 . S
C754 H734 0.950 . S
C754 C753 1.414 . S
C754 C755 1.374 . S
C755 H735 0.950 . S
C755 C751 1.385 . S
C755 C754 1.374 . S
C756 C753 1.499 . S
C756 C757 1.373 . S
C756 C758 1.389 . S
C757 H736 0.950 . S
C757 C756 1.373 . S
C757 C773 1.377 . S
C758 C756 1.389 . S
C758 C759 1.524 . S
C758 C772 1.377 . S
C759 C758 1.524 . S
C759 C760 1.397 . S
C759 C764 1.363 . S
C760 H737 0.950 . S
C760 C759 1.397 . S
C760 C761 1.334 . S
C761 H738 0.950 . S
C761 C760 1.334 . S
C761 C762 1.287 . S
C762 C761 1.287 . S
C762 C763 1.524 . S
C762 H781 0.913 . S
C763 H739 0.950 . S
C763 C762 1.524 . S
C763 C764 1.415 . S
C764 H740 0.950 . S
C764 C759 1.363 . S
C764 C763 1.415 . S
C765 H741 0.951 . S
C765 C766 1.366 . S
C765 C767 1.388 . S
C766 C765 1.366 . S
C766 C770 1.385 . S
C767 H742 0.951 . S
C767 C765 1.388 . S
C767 C768 1.366 . S
C768 C767 1.366 . S
C768 C769 1.414 . S
C768 C771 1.499 . S
C769 H743 0.950 . S
C769 C768 1.414 . S
C769 C770 1.374 . S
C770 H744 0.950 . S
C770 C766 1.385 . S
C770 C769 1.374 . S
C771 C768 1.499 . S
C771 C772 1.373 . S
C771 C773 1.389 . S
C772 H745 0.950 . S
C772 C758 1.377 . S
C772 C771 1.373 . S
C773 C757 1.377 . S
C773 C771 1.389 . S
C773 C774 1.524 . S
C774 C773 1.524 . S
C774 C775 1.397 . S
C774 C779 1.363 . S
C775 H746 0.950 . S
C775 C774 1.397 . S
C775 C776 1.334 . S
C776 H747 0.950 . S
C776 C775 1.334 . S
C776 C777 1.287 . S
C777 C776 1.287 . S
C777 C778 1.524 . S
C777 H780 0.999 . S
C778 H748 0.950 . S
C778 C777 1.524 . S
C778 C779 1.415 . S
C779 H749 0.950 . S
C779 C774 1.363 . S
C779 C778 1.415 . S
H780 C777 0.999 . S
H781 C762 0.913 . S
H782 C800 0.951 . S
H783 C802 0.951 . S
H784 C804 0.950 . S
H785 C805 0.950 . S
H786 C807 0.950 . S
H787 C810 0.950 . S
H788 C811 0.950 . S
H789 C813 0.950 . S
H790 C814 0.950 . S
H791 C815 0.951 . S
H792 C817 0.951 . S
H793 C819 0.950 . S
H794 C820 0.950 . S
H795 C822 0.950 . S
H796 C825 0.950 . S
H797 C826 0.950 . S
H798 C828 0.950 . S
H799 C829 0.950 . S
C800 H782 0.951 . S
C800 C801 1.366 . S
C800 C802 1.388 . S
C801 C800 1.366 . S
C801 C805 1.385 . S
C802 H783 0.951 . S
C802 C800 1.388 . S
C802 C803 1.366 . S
C803 C802 1.366 . S
C803 C804 1.414 . S
C803 C806 1.499 . S
C804 H784 0.950 . S
C804 C803 1.414 . S
C804 C805 1.374 . S
C805 H785 0.950 . S
C805 C801 1.385 . S
C805 C804 1.374 . S
C806 C803 1.499 . S
C806 C807 1.373 . S
C806 C808 1.389 . S
C807 H786 0.950 . S
C807 C806 1.373 . S
C807 C823 1.377 . S
C808 C806 1.389 . S
C808 C809 1.524 . S
C808 C822 1.377 . S
C809 C808 1.524 . S
C809 C810 1.397 . S
C809 C814 1.363 . S
C810 H787 0.950 . S
C810 C809 1.397 . S
C810 C811 1.334 . S
C811 H788 0.950 . S
C811 C810 1.334 . S
C811 C812 1.287 . S
C812 C811 1.287 . S
C812 C813 1.524 . S
C812 H831 0.913 . S
C813 H789 0.950 . S
C813 C812 1.524 . S
C813 C814 1.415 . S
C814 H790 0.950 . S
C814 C809 1.363 . S
C814 C813 1.415 . S
C815 H791 0.951 . S
C815 C816 1.366 . S
C815 C817 1.388 . S
C816 C815 1.366 . S
C816 C820 1.385 . S
C817 H792 0.951 . S
C817 C815 1.388 . S
C817 C818 1.366 . S
C818 C817 1.366 . S
C818 C819 1.414 . S
C818 C821 1.499 . S
C819 H793 0.950 . S
C819 C818 1.414 . S
C819 C820 1.374 . S
C820 H794 0.950 . S
C820 C816 1.385 . S
C820 C819 1.374 . S
C821 C818 1.499 . S
C821 C822 1.373 . S
C821 C823 1.389 . S
C822 H795 0.950 . S
C822 C808 1.377 . S
C822 C821 1.373 . S
C823 C807 1.377 . S
C823 C821 1.389 . S
C823 C824 1.524 . S
C824 C823 1.524 . S
C824 C825 1.397 . S
C824 C829 1.363 . S
C825 H796 0.950 . S
C825 C824 1.397 . S
C825 C826 1.334 . S
C826 H797 0.950 . S
C826 C825 1.334 . S
C826 C827 1.287 . S
C827 C826 1.287 . S
C827 C828 1.524 . S
C827 H830 0.999 . S
C828 H798 0.950 . S
C828 C827 1.524 . S
C828 C829 1.415 . S
C829 H799 0.950 . S
C829 C824 1.363 . S
C829 C828 1.415 . S
H830 C827 0.999 . S
H831 C812 0.913 . S
H832 C850 0.934 1_455 S
H833 C852 0.951 1_455 S
H834 C854 0.950 . S
H835 C855 0.950 1_554 S
H836 C857 0.950 . S
H837 C860 0.950 . S
H838 C861 0.950 1_554 S
H839 C863 0.950 . S
H840 C864 0.950 . S
H841 C865 0.951 . S
H842 C867 0.951 . S
H843 C869 0.950 . S
H844 C870 0.950 . S
H845 C872 0.950 . S
H846 C875 0.950 . S
H847 C876 0.950 . S
H848 C878 0.950 . S
H849 C879 0.950 . S
C850 H832 0.934 1_655 S
C850 C851 1.366 . S
C850 C852 1.388 . S
C851 C850 1.366 . S
C851 C855 1.385 . S
C852 H833 0.951 1_655 S
C852 C850 1.388 . S
C852 C853 1.366 . S
C853 C852 1.366 . S
C853 C854 1.414 . S
C853 C856 1.499 . S
C854 H834 0.950 . S
C854 C853 1.414 . S
C854 C855 1.374 . S
C855 H835 0.950 1_556 S
C855 C851 1.385 . S
C855 C854 1.374 . S
C856 C853 1.499 . S
C856 C857 1.373 . S
C856 C858 1.389 1_655 S
C857 H836 0.950 . S
C857 C856 1.373 . S
C857 C873 1.377 . S
C858 C856 1.389 1_455 S
C858 C859 1.524 . S
C858 C872 1.377 . S
C859 C858 1.524 . S
C859 C860 1.397 . S
C859 C864 1.363 . S
C860 H837 0.950 . S
C860 C859 1.397 . S
C860 C861 1.334 . S
C861 H838 0.950 1_556 S
C861 C860 1.334 . S
C861 C862 1.287 . S
C862 C861 1.287 . S
C862 C863 1.524 . S
C862 H881 0.913 . S
C863 H839 0.950 . S
C863 C862 1.524 . S
C863 C864 1.415 . S
C864 H840 0.950 . S
C864 C859 1.363 . S
C864 C863 1.415 . S
C865 H841 0.951 . S
C865 C866 1.366 1_655 S
C865 C867 1.388 . S
C866 C865 1.366 1_455 S
C866 C870 1.385 . S
C867 H842 0.951 . S
C867 C865 1.388 . S
C867 C868 1.366 . S
C868 C867 1.366 . S
C868 C869 1.414 1_655 S
C868 C871 1.499 . S
C869 H843 0.950 . S
C869 C868 1.414 1_455 S
C869 C870 1.374 . S
C870 H844 0.950 . S
C870 C866 1.385 . S
C870 C869 1.374 . S
C871 C868 1.499 . S
C871 C872 1.373 1_655 S
C871 C873 1.389 . S
C872 H845 0.950 . S
C872 C858 1.377 . S
C872 C871 1.373 1_455 S
C873 C857 1.377 . S
C873 C871 1.389 . S
C873 C874 1.524 . S
C874 C873 1.524 . S
C874 C875 1.397 . S
C874 C879 1.363 . S
C875 H846 0.950 . S
C875 C874 1.397 . S
C875 C876 1.334 . S
C876 H847 0.950 . S
C876 C875 1.334 . S
C876 C877 1.287 . S
C877 C876 1.287 . S
C877 C878 1.524 . S
C877 H880 0.999 . S
C878 H848 0.950 . S
C878 C877 1.524 . S
C878 C879 1.415 . S
C879 H849 0.950 . S
C879 C874 1.363 . S
C879 C878 1.415 . S
H880 C877 0.999 . S
H881 C862 0.913 . S
H882 C900 0.951 1_554 S
H883 C902 0.951 . S
H884 C904 0.950 1_545 S
H885 C905 0.968 . S
H886 C907 0.950 . S
H887 C910 0.950 . S
H888 C911 0.950 . S
H889 C913 0.950 . S
H890 C914 0.950 . S
H891 C915 0.951 . S
H892 C917 0.951 . S
H893 C919 0.950 . S
H894 C920 0.950 . S
H895 C922 0.950 . S
H896 C925 0.950 . S
H897 C926 0.950 . S
H898 C928 0.950 . S
H899 C929 0.950 . S
C900 H882 0.951 1_556 S
C900 C901 1.366 . S
C900 C902 1.388 . S
C901 C900 1.366 . S
C901 C905 1.385 . S
C902 H883 0.951 . S
C902 C900 1.388 . S
C902 C903 1.366 . S
C903 C902 1.366 . S
C903 C904 1.414 . S
C903 C906 1.499 . S
C904 H884 0.950 1_565 S
C904 C903 1.414 . S
C904 C905 1.374 . S
C905 H885 0.968 . S
C905 C901 1.385 . S
C905 C904 1.374 . S
C906 C903 1.499 . S
C906 C907 1.373 1_565 S
C906 C908 1.389 . S
C907 H886 0.950 . S
C907 C906 1.373 1_545 S
C907 C923 1.377 . S
C908 C906 1.389 . S
C908 C909 1.524 . S
C908 C922 1.377 . S
C909 C908 1.524 . S
C909 C910 1.397 . S
C909 C914 1.363 . S
C910 H887 0.950 . S
C910 C909 1.397 . S
C910 C911 1.334 . S
C911 H888 0.950 . S
C911 C910 1.334 . S
C911 C912 1.287 . S
C912 C911 1.287 . S
C912 C913 1.524 . S
C912 H931 0.913 . S
C913 H889 0.950 . S
C913 C912 1.524 . S
C913 C914 1.415 . S
C914 H890 0.950 . S
C914 C909 1.363 . S
C914 C913 1.415 . S
C915 H891 0.951 . S
C915 C916 1.366 . S
C915 C917 1.388 . S
C916 C915 1.366 . S
C916 C920 1.385 1_545 S
C917 H892 0.951 . S
C917 C915 1.388 . S
C917 C918 1.366 . S
C918 C917 1.366 . S
C918 C919 1.414 1_545 S
C918 C921 1.499 1_545 S
C919 H893 0.950 . S
C919 C918 1.414 1_565 S
C919 C920 1.374 . S
C920 H894 0.950 . S
C920 C916 1.385 1_565 S
C920 C919 1.374 . S
C921 C918 1.499 1_565 S
C921 C922 1.373 . S
C921 C923 1.389 1_565 S
C922 H895 0.950 . S
C922 C908 1.377 . S
C922 C921 1.373 . S
C923 C907 1.377 . S
C923 C921 1.389 1_545 S
C923 C924 1.524 . S
C924 C923 1.524 . S
C924 C925 1.397 . S
C924 C929 1.363 . S
C925 H896 0.950 . S
C925 C924 1.397 . S
C925 C926 1.334 . S
C926 H897 0.950 . S
C926 C925 1.334 . S
C926 C927 1.287 . S
C927 C926 1.287 . S
C927 C928 1.524 . S
C927 H930 0.999 . S
C928 H898 0.950 . S
C928 C927 1.524 . S
C928 C929 1.415 . S
C929 H899 0.950 . S
C929 C924 1.363 . S
C929 C928 1.415 . S
H930 C927 0.999 . S
H931 C912 0.913 . S
H932 C950 0.951 1_554 S
H933 C952 0.951 . S
H934 C954 0.950 . S
H935 C955 0.950 . S
H936 C957 0.950 . S
H937 C960 0.950 . S
H938 C961 0.950 . S
H939 C963 0.950 . S
H940 C964 0.950 . S
H941 C965 0.951 . S
H942 C967 0.951 . S
H943 C969 0.950 . S
H944 C970 0.950 . S
H945 C972 0.950 . S
H946 C975 0.950 . S
H947 C976 0.950 . S
H948 C978 0.950 . S
H949 C979 0.950 . S
C950 H932 0.951 1_556 S
C950 C951 1.366 . S
C950 C952 1.388 . S
C951 C950 1.366 . S
C951 C955 1.385 . S
C952 H933 0.951 . S
C952 C950 1.388 . S
C952 C953 1.366 . S
C953 C952 1.366 . S
C953 C954 1.414 . S
C953 C956 1.499 . S
C954 H934 0.950 . S
C954 C953 1.414 . S
C954 C955 1.374 . S
C955 H935 0.950 . S
C955 C951 1.385 . S
C955 C954 1.374 . S
C956 C953 1.499 . S
C956 C957 1.373 . S
C956 C958 1.389 . S
C957 H936 0.950 . S
C957 C956 1.373 . S
C957 C973 1.377 . S
C958 C956 1.389 . S
C958 C959 1.524 . S
C958 C972 1.377 . S
C959 C958 1.524 . S
C959 C960 1.397 . S
C959 C964 1.363 . S
C960 H937 0.950 . S
C960 C959 1.397 . S
C960 C961 1.334 . S
C961 H938 0.950 . S
C961 C960 1.334 . S
C961 C962 1.287 . S
C962 C961 1.287 . S
C962 C963 1.524 1_556 S
C962 H981 0.913 1_556 S
C963 H939 0.950 . S
C963 C962 1.524 1_554 S
C963 C964 1.415 1_554 S
C964 H940 0.950 . S
C964 C959 1.363 . S
C964 C963 1.415 1_556 S
C965 H941 0.951 . S
C965 C966 1.366 . S
C965 C967 1.388 . S
C966 C965 1.366 . S
C966 C970 1.385 . S
C967 H942 0.951 . S
C967 C965 1.388 . S
C967 C968 1.366 . S
C968 C967 1.366 . S
C968 C969 1.414 . S
C968 C971 1.499 . S
C969 H943 0.950 . S
C969 C968 1.414 . S
C969 C970 1.374 . S
C970 H944 0.950 . S
C970 C966 1.385 . S
C970 C969 1.374 . S
C971 C968 1.499 . S
C971 C972 1.373 . S
C971 C973 1.389 . S
C972 H945 0.950 . S
C972 C958 1.377 . S
C972 C971 1.373 . S
C973 C957 1.377 . S
C973 C971 1.389 . S
C973 C974 1.524 . S
C974 C973 1.524 . S
C974 C975 1.397 . S
C974 C979 1.363 . S
C975 H946 0.950 . S
C975 C974 1.397 . S
C975 C976 1.334 . S
C976 H947 0.950 . S
C976 C975 1.334 . S
C976 C977 1.287 . S
C977 C976 1.287 . S
C977 C978 1.524 . S
C977 H980 0.999 . S
C978 H948 0.950 . S
C978 C977 1.524 . S
C978 C979 1.415 . S
C979 H949 0.950 . S
C979 C974 1.363 . S
C979 C978 1.415 . S
H980 C977 0.999 . S
H981 C962 0.913 1_554 S
H982 C1000 0.951 . S
H983 C1002 0.951 . S
H984 C1004 0.950 . S
H985 C1005 0.950 1_554 S
H986 C1007 0.950 . S
H987 C1010 0.950 . S
H988 C1011 0.950 . S
H989 C1013 0.950 . S
H990 C1014 0.950 . S
H991 C1015 0.951 . S
H992 C1017 0.951 . S
H993 C1019 0.950 . S
H994 C1020 0.950 . S
H995 C1022 0.950 . S
H996 C1025 0.950 . S
H997 C1026 0.950 . S
H998 C1028 0.950 . S
H999 C1029 0.950 . S
C1000 H982 0.951 . S
C1000 C1001 1.366 . S
C1000 C1002 1.388 . S
C1001 C1000 1.366 . S
C1001 C1005 1.385 . S
C1002 H983 0.951 . S
C1002 C1000 1.388 . S
C1002 C1003 1.366 . S
C1003 C1002 1.366 . S
C1003 C1004 1.414 . S
C1003 C1006 1.499 . S
C1004 H984 0.950 . S
C1004 C1003 1.414 . S
C1004 C1005 1.374 . S
C1005 H985 0.950 1_556 S
C1005 C1001 1.385 . S
C1005 C1004 1.374 . S
C1006 C1003 1.499 . S
C1006 C1007 1.373 . S
C1006 C1008 1.389 . S
C1007 H986 0.950 . S
C1007 C1006 1.373 . S
C1007 C1023 1.377 . S
C1008 C1006 1.389 . S
C1008 C1009 1.524 . S
C1008 C1022 1.377 . S
C1009 C1008 1.524 . S
C1009 C1010 1.397 . S
C1009 C1014 1.363 . S
C1010 H987 0.950 . S
C1010 C1009 1.397 . S
C1010 C1011 1.334 . S
C1011 H988 0.950 . S
C1011 C1010 1.334 . S
C1011 C1012 1.287 . S
C1012 C1011 1.287 . S
C1012 C1013 1.524 . S
C1012 H1031 0.913 . S
C1013 H989 0.950 . S
C1013 C1012 1.524 . S
C1013 C1014 1.415 . S
C1014 H990 0.950 . S
C1014 C1009 1.363 . S
C1014 C1013 1.415 . S
C1015 H991 0.951 . S
C1015 C1016 1.366 . S
C1015 C1017 1.388 . S
C1016 C1015 1.366 . S
C1016 C1020 1.385 . S
C1017 H992 0.951 . S
C1017 C1015 1.388 . S
C1017 C1018 1.366 . S
C1018 C1017 1.366 . S
C1018 C1019 1.414 . S
C1018 C1021 1.499 . S
C1019 H993 0.950 . S
C1019 C1018 1.414 . S
C1019 C1020 1.374 . S
C1020 H994 0.950 . S
C1020 C1016 1.385 . S
C1020 C1019 1.374 . S
C1021 C1018 1.499 . S
C1021 C1022 1.373 . S
C1021 C1023 1.389 . S
C1022 H995 0.950 . S
C1022 C1008 1.377 . S
C1022 C1021 1.373 . S
C1023 C1007 1.377 . S
C1023 C1021 1.389 . S
C1023 C1024 1.524 . S
C1024 C1023 1.524 . S
C1024 C1025 1.397 . S
C1024 C1029 1.363 . S
C1025 H996 0.950 . S
C1025 C1024 1.397 . S
C1025 C1026 1.334 . S
C1026 H997 0.950 . S
C1026 C1025 1.334 . S
C1026 C1027 1.287 . S
C1027 C1026 1.287 . S
C1027 C1028 1.524 . S
C1027 H1030 0.999 . S
C1028 H998 0.950 . S
C1028 C1027 1.524 . S
C1028 C1029 1.415 . S
C1029 H999 0.950 . S
C1029 C1024 1.363 . S
C1029 C1028 1.415 . S
H1030 C1027 0.999 . S
H1031 C1012 0.913 . S
H1032 C1050 0.951 1_655 S
H1033 C1052 0.951 1_655 S
H1034 C1054 0.950 . S
H1035 C1055 0.950 . S
H1036 C1057 0.950 . S
H1037 C1060 0.945 1_455 S
H1038 C1061 0.950 . S
H1039 C1063 0.950 . S
H1040 C1064 0.950 . S
H1041 C1065 0.951 . S
H1042 C1067 0.951 . S
H1043 C1069 0.914 1_655 S
H1044 C1070 0.955 . S
H1045 C1072 0.950 1_655 S
H1046 C1075 0.950 . S
H1047 C1076 0.950 . S
H1048 C1078 0.950 . S
H1049 C1079 0.950 . S
C1050 H1032 0.951 1_455 S
C1050 C1051 1.366 1_556 S
C1050 C1052 1.388 . S
C1051 C1050 1.366 1_554 S
C1051 C1055 1.385 . S
C1052 H1033 0.951 1_455 S
C1052 C1050 1.388 . S
C1052 C1053 1.366 . S
C1053 C1052 1.366 . S
C1053 C1054 1.414 1_556 S
C1053 C1056 1.499 . S
C1054 H1034 0.950 . S
C1054 C1053 1.414 1_554 S
C1054 C1055 1.374 . S
C1055 H1035 0.950 . S
C1055 C1051 1.385 . S
C1055 C1054 1.374 . S
C1056 C1053 1.499 . S
C1056 C1057 1.373 . S
C1056 C1058 1.389 . S
C1057 H1036 0.950 . S
C1057 C1056 1.373 . S
C1057 C1073 1.377 . S
C1058 C1056 1.389 . S
C1058 C1059 1.524 1_455 S
C1058 C1072 1.377 . S
C1059 C1058 1.524 1_655 S
C1059 C1060 1.397 1_556 S
C1059 C1064 1.363 . S
C1060 H1037 0.945 1_655 S
C1060 C1059 1.397 1_554 S
C1060 C1061 1.334 . S
C1061 H1038 0.950 . S
C1061 C1060 1.334 . S
C1061 C1062 1.287 . S
C1062 C1061 1.287 . S
C1062 C1063 1.524 1_554 S
C1062 H1081 0.913 . S
C1063 H1039 0.950 . S
C1063 C1062 1.524 1_556 S
C1063 C1064 1.415 . S
C1064 H1040 0.950 . S
C1064 C1059 1.363 . S
C1064 C1063 1.415 . S
C1065 H1041 0.951 . S
C1065 C1066 1.366 . S
C1065 C1067 1.388 . S
C1066 C1065 1.366 . S
C1066 C1070 1.380 1_455 S
C1067 H1042 0.951 . S
C1067 C1065 1.388 . S
C1067 C1068 1.366 . S
C1068 C1067 1.366 . S
C1068 C1069 1.454 . S
C1068 C1071 1.499 . S
C1069 H1043 0.914 1_455 S
C1069 C1068 1.454 . S
C1069 C1070 1.372 1_455 S
C1070 H1044 0.955 . S
C1070 C1066 1.380 1_655 S
C1070 C1069 1.372 1_655 S
C1071 C1068 1.499 . S
C1071 C1072 1.373 . S
C1071 C1073 1.389 . S
C1072 H1045 0.950 1_455 S
C1072 C1058 1.377 . S
C1072 C1071 1.373 . S
C1073 C1057 1.377 . S
C1073 C1071 1.389 . S
C1073 C1074 1.524 . S
C1074 C1073 1.524 . S
C1074 C1075 1.397 . S
C1074 C1079 1.363 . S
C1075 H1046 0.950 . S
C1075 C1074 1.397 . S
C1075 C1076 1.334 . S
C1076 H1047 0.950 . S
C1076 C1075 1.334 . S
C1076 C1077 1.287 . S
C1077 C1076 1.287 . S
C1077 C1078 1.524 . S
C1077 H1080 0.999 . S
C1078 H1048 0.950 . S
C1078 C1077 1.524 . S
C1078 C1079 1.415 . S
C1079 H1049 0.950 . S
C1079 C1074 1.363 . S
C1079 C1078 1.415 . S
H1080 C1077 0.999 . S
H1081 C1062 0.913 . S
H1082 C1100 0.951 . S
H1083 C1102 0.951 . S
H1084 C1104 0.950 . S
H1085 C1105 0.950 . S
H1086 C1107 0.950 . S
H1087 C1110 0.950 1_554 S
H1088 C1111 0.950 . S
H1089 C1113 0.950 . S
H1090 C1114 0.950 . S
H1091 C1115 0.951 . S
H1092 C1117 0.951 . S
H1093 C1119 0.929 1_565 S
H1094 C1120 0.950 1_565 S
H1095 C1122 0.950 1_565 S
H1096 C1125 0.950 . S
H1097 C1126 0.950 . S
H1098 C1128 0.950 . S
H1099 C1129 0.950 . S
C1100 H1082 0.951 . S
C1100 C1101 1.366 1_556 S
C1100 C1102 1.388 . S
C1101 C1100 1.366 1_554 S
C1101 C1105 1.385 . S
C1102 H1083 0.951 . S
C1102 C1100 1.388 . S
C1102 C1103 1.366 . S
C1103 C1102 1.366 . S
C1103 C1104 1.414 1_556 S
C1103 C1106 1.499 . S
C1104 H1084 0.950 . S
C1104 C1103 1.414 1_554 S
C1104 C1105 1.374 . S
C1105 H1085 0.950 . S
C1105 C1101 1.385 . S
C1105 C1104 1.374 . S
C1106 C1103 1.499 . S
C1106 C1107 1.373 . S
C1106 C1108 1.389 . S
C1107 H1086 0.950 . S
C1107 C1106 1.373 . S
C1107 C1123 1.377 . S
C1108 C1106 1.389 . S
C1108 C1109 1.524 1_545 S
C1108 C1122 1.377 . S
C1109 C1108 1.524 1_565 S
C1109 C1110 1.397 . S
C1109 C1114 1.363 . S
C1110 H1087 0.950 1_556 S
C1110 C1109 1.397 . S
C1110 C1111 1.334 1_556 S
C1111 H1088 0.950 . S
C1111 C1110 1.334 1_554 S
C1111 C1112 1.287 1_554 S
C1112 C1111 1.287 1_556 S
C1112 C1113 1.524 . S
C1112 H1131 0.913 . S
C1113 H1089 0.950 . S
C1113 C1112 1.524 . S
C1113 C1114 1.415 . S
C1114 H1090 0.950 . S
C1114 C1109 1.363 . S
C1114 C1113 1.415 . S
C1115 H1091 0.951 . S
C1115 C1116 1.366 . S
C1115 C1117 1.388 . S
C1116 C1115 1.366 . S
C1116 C1120 1.385 . S
C1117 H1092 0.951 . S
C1117 C1115 1.388 . S
C1117 C1118 1.366 . S
C1118 C1117 1.366 . S
C1118 C1119 1.414 . S
C1118 C1121 1.499 . S
C1119 H1093 0.929 1_545 S
C1119 C1118 1.414 . S
C1119 C1120 1.374 . S
C1120 H1094 0.950 1_545 S
C1120 C1116 1.385 . S
C1120 C1119 1.374 . S
C1121 C1118 1.499 . S
C1121 C1122 1.373 . S
C1121 C1123 1.389 . S
C1122 H1095 0.950 1_545 S
C1122 C1108 1.377 . S
C1122 C1121 1.373 . S
C1123 C1107 1.377 . S
C1123 C1121 1.389 . S
C1123 C1124 1.524 . S
C1124 C1123 1.524 . S
C1124 C1125 1.397 . S
C1124 C1129 1.363 . S
C1125 H1096 0.950 . S
C1125 C1124 1.397 . S
C1125 C1126 1.334 . S
C1126 H1097 0.950 . S
C1126 C1125 1.334 . S
C1126 C1127 1.287 . S
C1127 C1126 1.287 . S
C1127 C1128 1.524 . S
C1127 H1130 0.999 . S
C1128 H1098 0.950 . S
C1128 C1127 1.524 . S
C1128 C1129 1.415 . S
C1129 H1099 0.950 . S
C1129 C1124 1.363 . S
C1129 C1128 1.415 . S
H1130 C1127 0.999 . S
H1131 C1112 0.913 . S
H1132 C1150 0.951 . S
H1133 C1152 0.951 . S
H1134 C1154 0.950 . S
H1135 C1155 0.950 . S
H1136 C1157 0.950 . S
H1137 C1160 0.950 . S
H1138 C1161 0.950 . S
H1139 C1163 0.950 . S
H1140 C1164 0.950 . S
H1141 C1165 0.951 . S
H1142 C1167 0.951 . S
H1143 C1169 0.950 . S
H1144 C1170 0.950 . S
H1145 C1172 0.950 . S
H1146 C1175 0.950 . S
H1147 C1176 0.950 1_554 S
H1148 C1178 0.950 . S
H1149 C1179 0.950 . S
C1150 H1132 0.951 . S
C1150 C1151 1.366 . S
C1150 C1152 1.388 1_554 S
C1151 C1150 1.366 . S
C1151 C1155 1.385 . S
C1152 H1133 0.951 . S
C1152 C1150 1.388 1_556 S
C1152 C1153 1.366 . S
C1153 C1152 1.366 . S
C1153 C1154 1.414 . S
C1153 C1156 1.499 . S
C1154 H1134 0.950 . S
C1154 C1153 1.414 . S
C1154 C1155 1.374 1_556 S
C1155 H1135 0.950 . S
C1155 C1151 1.385 . S
C1155 C1154 1.374 1_554 S
C1156 C1153 1.499 . S
C1156 C1157 1.373 . S
C1156 C1158 1.389 . S
C1157 H1136 0.950 . S
C1157 C1156 1.373 . S
C1157 C1173 1.377 . S
C1158 C1156 1.389 . S
C1158 C1159 1.524 . S
C1158 C1172 1.377 . S
C1159 C1158 1.524 . S
C1159 C1160 1.397 . S
C1159 C1164 1.363 . S
C1160 H1137 0.950 . S
C1160 C1159 1.397 . S
C1160 C1161 1.334 . S
C1161 H1138 0.950 . S
C1161 C1160 1.334 . S
C1161 C1162 1.287 . S
C1162 C1161 1.287 . S
C1162 C1163 1.524 . S
C1162 H1181 0.913 . S
C1163 H1139 0.950 . S
C1163 C1162 1.524 . S
C1163 C1164 1.415 . S
C1164 H1140 0.950 . S
C1164 C1159 1.363 . S
C1164 C1163 1.415 . S
C1165 H1141 0.951 . S
C1165 C1166 1.366 . S
C1165 C1167 1.388 . S
C1166 C1165 1.366 . S
C1166 C1170 1.385 . S
C1167 H1142 0.951 . S
C1167 C1165 1.388 . S
C1167 C1168 1.366 . S
C1168 C1167 1.366 . S
C1168 C1169 1.414 . S
C1168 C1171 1.499 . S
C1169 H1143 0.950 . S
C1169 C1168 1.414 . S
C1169 C1170 1.374 . S
C1170 H1144 0.950 . S
C1170 C1166 1.385 . S
C1170 C1169 1.374 . S
C1171 C1168 1.499 . S
C1171 C1172 1.373 . S
C1171 C1173 1.389 . S
C1172 H1145 0.950 . S
C1172 C1158 1.377 . S
C1172 C1171 1.373 . S
C1173 C1157 1.377 . S
C1173 C1171 1.389 . S
C1173 C1174 1.524 . S
C1174 C1173 1.524 . S
C1174 C1175 1.397 . S
C1174 C1179 1.363 . S
C1175 H1146 0.950 . S
C1175 C1174 1.397 . S
C1175 C1176 1.334 . S
C1176 H1147 0.950 1_556 S
C1176 C1175 1.334 . S
C1176 C1177 1.287 1_556 S
C1177 C1176 1.287 1_554 S
C1177 C1178 1.524 1_554 S
C1177 H1180 0.999 . S
C1178 H1148 0.950 . S
C1178 C1177 1.524 1_556 S
C1178 C1179 1.415 . S
C1179 H1149 0.950 . S
C1179 C1174 1.363 . S
C1179 C1178 1.415 . S
H1180 C1177 0.999 . S
H1181 C1162 0.913 . S
H1182 C1200 0.951 . S
H1183 C1202 0.951 . S
H1184 C1204 0.950 . S
H1185 C1205 0.950 . S
H1186 C1207 0.950 . S
H1187 C1210 0.950 . S
H1188 C1211 0.950 . S
H1189 C1213 0.950 . S
H1190 C1214 0.950 . S
H1191 C1215 0.951 . S
H1192 C1217 0.951 . S
H1193 C1219 0.950 . S
H1194 C1220 0.950 . S
H1195 C1222 0.950 . S
H1196 C1225 0.950 . S
H1197 C1226 0.950 . S
H1198 C1228 0.950 . S
H1199 C1229 0.957 . S
C1200 H1182 0.951 . S
C1200 C1201 1.366 1_556 S
C1200 C1202 1.388 . S
C1201 C1200 1.366 1_554 S
C1201 C1205 1.385 . S
C1202 H1183 0.951 . S
C1202 C1200 1.388 . S
C1202 C1203 1.366 . S
C1203 C1202 1.366 . S
C1203 C1204 1.414 1_556 S
C1203 C1206 1.499 . S
C1204 H1184 0.950 . S
C1204 C1203 1.414 1_554 S
C1204 C1205 1.374 . S
C1205 H1185 0.950 . S
C1205 C1201 1.385 . S
C1205 C1204 1.374 . S
C1206 C1203 1.499 . S
C1206 C1207 1.373 . S
C1206 C1208 1.389 . S
C1207 H1186 0.950 . S
C1207 C1206 1.373 . S
C1207 C1223 1.377 . S
C1208 C1206 1.389 . S
C1208 C1209 1.524 . S
C1208 C1222 1.377 . S
C1209 C1208 1.524 . S
C1209 C1210 1.397 . S
C1209 C1214 1.363 . S
C1210 H1187 0.950 . S
C1210 C1209 1.397 . S
C1210 C1211 1.334 . S
C1211 H1188 0.950 . S
C1211 C1210 1.334 . S
C1211 C1212 1.287 . S
C1212 C1211 1.287 . S
C1212 C1213 1.524 . S
C1212 H1231 0.913 . S
C1213 H1189 0.950 . S
C1213 C1212 1.524 . S
C1213 C1214 1.415 . S
C1214 H1190 0.950 . S
C1214 C1209 1.363 . S
C1214 C1213 1.415 . S
C1215 H1191 0.951 . S
C1215 C1216 1.366 . S
C1215 C1217 1.388 . S
C1216 C1215 1.366 . S
C1216 C1220 1.385 . S
C1217 H1192 0.951 . S
C1217 C1215 1.388 . S
C1217 C1218 1.366 . S
C1218 C1217 1.366 . S
C1218 C1219 1.414 . S
C1218 C1221 1.499 . S
C1219 H1193 0.950 . S
C1219 C1218 1.414 . S
C1219 C1220 1.374 . S
C1220 H1194 0.950 . S
C1220 C1216 1.385 . S
C1220 C1219 1.374 . S
C1221 C1218 1.499 . S
C1221 C1222 1.373 . S
C1221 C1223 1.389 . S
C1222 H1195 0.950 . S
C1222 C1208 1.377 . S
C1222 C1221 1.373 . S
C1223 C1207 1.377 . S
C1223 C1221 1.389 . S
C1223 C1224 1.524 . S
C1224 C1223 1.524 . S
C1224 C1225 1.397 . S
C1224 C1229 1.354 1_556 S
C1225 H1196 0.950 . S
C1225 C1224 1.397 . S
C1225 C1226 1.334 . S
C1226 H1197 0.950 . S
C1226 C1225 1.334 . S
C1226 C1227 1.287 . S
C1227 C1226 1.287 . S
C1227 C1228 1.524 1_556 S
C1227 H1230 0.999 . S
C1228 H1198 0.950 . S
C1228 C1227 1.524 1_554 S
C1228 C1229 1.418 . S
C1229 H1199 0.957 . S
C1229 C1224 1.354 1_554 S
C1229 C1228 1.418 . S
H1230 C1227 0.999 . S
H1231 C1212 0.913 . S
H1232 C1250 0.951 . S
H1233 C1252 0.951 . S
H1234 C1254 0.946 . S
H1235 C1255 0.950 1_455 S
H1236 C1257 0.950 . S
H1237 C1260 0.950 1_455 S
H1238 C1261 0.950 1_455 S
H1239 C1263 0.950 . S
H1240 C1264 0.950 . S
H1241 C1265 0.951 . S
H1242 C1267 0.951 . S
H1243 C1269 0.950 . S
H1244 C1270 0.950 . S
H1245 C1272 0.950 . S
H1246 C1275 0.950 . S
H1247 C1276 0.950 . S
H1248 C1278 0.950 . S
H1249 C1279 0.950 . S
C1250 H1232 0.951 . S
C1250 C1251 1.366 . S
C1250 C1252 1.388 . S
C1251 C1250 1.366 . S
C1251 C1255 1.385 . S
C1252 H1233 0.951 . S
C1252 C1250 1.388 . S
C1252 C1253 1.366 . S
C1253 C1252 1.366 . S
C1253 C1254 1.418 1_655 S
C1253 C1256 1.499 . S
C1254 H1234 0.946 . S
C1254 C1253 1.418 1_455 S
C1254 C1255 1.374 1_455 S
C1255 H1235 0.950 1_655 S
C1255 C1251 1.385 . S
C1255 C1254 1.374 1_655 S
C1256 C1253 1.499 . S
C1256 C1257 1.373 . S
C1256 C1258 1.389 . S
C1257 H1236 0.950 . S
C1257 C1256 1.373 . S
C1257 C1273 1.377 . S
C1258 C1256 1.389 . S
C1258 C1259 1.524 . S
C1258 C1272 1.377 . S
C1259 C1258 1.524 . S
C1259 C1260 1.397 . S
C1259 C1264 1.363 . S
C1260 H1237 0.950 1_655 S
C1260 C1259 1.397 . S
C1260 C1261 1.334 . S
C1261 H1238 0.950 1_655 S
C1261 C1260 1.334 . S
C1261 C1262 1.287 . S
C1262 C1261 1.287 . S
C1262 C1263 1.524 . S
C1262 H1281 0.913 1_554 S
C1263 H1239 0.950 . S
C1263 C1262 1.524 . S
C1263 C1264 1.415 . S
C1264 H1240 0.950 . S
C1264 C1259 1.363 . S
C1264 C1263 1.415 . S
C1265 H1241 0.951 . S
C1265 C1266 1.366 1_455 S
C1265 C1267 1.388 . S
C1266 C1265 1.366 1_655 S
C1266 C1270 1.385 . S
C1267 H1242 0.951 . S
C1267 C1265 1.388 . S
C1267 C1268 1.366 1_455 S
C1268 C1267 1.366 1_655 S
C1268 C1269 1.414 . S
C1268 C1271 1.499 . S
C1269 H1243 0.950 . S
C1269 C1268 1.414 . S
C1269 C1270 1.374 . S
C1270 H1244 0.950 . S
C1270 C1266 1.385 . S
C1270 C1269 1.374 . S
C1271 C1268 1.499 . S
C1271 C1272 1.373 . S
C1271 C1273 1.389 . S
C1272 H1245 0.950 . S
C1272 C1258 1.377 . S
C1272 C1271 1.373 . S
C1273 C1257 1.377 . S
C1273 C1271 1.389 . S
C1273 C1274 1.524 . S
C1274 C1273 1.524 . S
C1274 C1275 1.397 . S
C1274 C1279 1.363 1_655 S
C1275 H1246 0.950 . S
C1275 C1274 1.397 . S
C1275 C1276 1.334 . S
C1276 H1247 0.950 . S
C1276 C1275 1.334 . S
C1276 C1277 1.287 . S
C1277 C1276 1.287 . S
C1277 C1278 1.524 1_655 S
C1277 H1280 0.999 . S
C1278 H1248 0.950 . S
C1278 C1277 1.524 1_455 S
C1278 C1279 1.415 . S
C1279 H1249 0.950 . S
C1279 C1274 1.363 1_455 S
C1279 C1278 1.415 . S
H1280 C1277 0.999 . S
H1281 C1262 0.913 1_556 S
H1282 C1300 0.951 . S
H1283 C1302 0.951 . S
H1284 C1304 0.950 . S
H1285 C1305 0.950 . S
H1286 C1307 0.950 1_545 S
H1287 C1310 0.950 . S
H1288 C1311 0.950 . S
H1289 C1313 0.950 . S
H1290 C1314 0.950 . S
H1291 C1315 0.951 . S
H1292 C1317 0.951 . S
H1293 C1319 0.957 . S
H1294 C1320 0.935 1_545 S
H1295 C1322 0.950 . S
H1296 C1325 0.950 . S
H1297 C1326 0.950 . S
H1298 C1328 0.950 . S
H1299 C1329 0.950 1_565 S
C1300 H1282 0.951 . S
C1300 C1301 1.366 . S
C1300 C1302 1.388 . S
C1301 C1300 1.366 . S
C1301 C1305 1.385 . S
C1302 H1283 0.951 . S
C1302 C1300 1.388 . S
C1302 C1303 1.366 . S
C1303 C1302 1.366 . S
C1303 C1304 1.414 . S
C1303 C1306 1.499 . S
C1304 H1284 0.950 . S
C1304 C1303 1.414 . S
C1304 C1305 1.374 . S
C1305 H1285 0.950 . S
C1305 C1301 1.385 . S
C1305 C1304 1.374 . S
C1306 C1303 1.499 . S
C1306 C1307 1.373 . S
C1306 C1308 1.389 . S
C1307 H1286 0.950 1_565 S
C1307 C1306 1.373 . S
C1307 C1323 1.377 . S
C1308 C1306 1.389 . S
C1308 C1309 1.524 . S
C1308 C1322 1.377 . S
C1309 C1308 1.524 . S
C1309 C1310 1.397 . S
C1309 C1314 1.363 . S
C1310 H1287 0.950 . S
C1310 C1309 1.397 . S
C1310 C1311 1.334 . S
C1311 H1288 0.950 . S
C1311 C1310 1.334 . S
C1311 C1312 1.287 . S
C1312 C1311 1.287 . S
C1312 C1313 1.524 . S
C1312 H1331 0.913 . S
C1313 H1289 0.950 . S
C1313 C1312 1.524 . S
C1313 C1314 1.415 . S
C1314 H1290 0.950 . S
C1314 C1309 1.363 . S
C1314 C1313 1.415 . S
C1315 H1291 0.951 . S
C1315 C1316 1.366 . S
C1315 C1317 1.388 . S
C1316 C1315 1.366 . S
C1316 C1320 1.385 . S
C1317 H1292 0.951 . S
C1317 C1315 1.388 . S
C1317 C1318 1.366 . S
C1318 C1317 1.366 . S
C1318 C1319 1.414 . S
C1318 C1321 1.499 . S
C1319 H1293 0.957 . S
C1319 C1318 1.414 . S
C1319 C1320 1.374 . S
C1320 H1294 0.935 1_565 S
C1320 C1316 1.385 . S
C1320 C1319 1.374 . S
C1321 C1318 1.499 . S
C1321 C1322 1.373 . S
C1321 C1323 1.389 . S
C1322 H1295 0.950 . S
C1322 C1308 1.377 . S
C1322 C1321 1.373 . S
C1323 C1307 1.377 . S
C1323 C1321 1.389 . S
C1323 C1324 1.524 1_565 S
C1324 C1323 1.524 1_545 S
C1324 C1325 1.397 . S
C1324 C1329 1.363 . S
C1325 H1296 0.950 . S
C1325 C1324 1.397 . S
C1325 C1326 1.334 . S
C1326 H1297 0.950 . S
C1326 C1325 1.334 . S
C1326 C1327 1.287 . S
C1327 C1326 1.287 . S
C1327 C1328 1.524 . S
C1327 H1330 0.999 . S
C1328 H1298 0.950 . S
C1328 C1327 1.524 . S
C1328 C1329 1.415 . S
C1329 H1299 0.950 1_545 S
C1329 C1324 1.363 . S
C1329 C1328 1.415 . S
H1330 C1327 0.999 . S
H1331 C1312 0.913 . S
H1332 C1350 0.951 . S
H1333 C1352 0.951 . S
H1334 C1354 0.950 . S
H1335 C1355 0.950 . S
H1336 C1357 0.950 . S
H1337 C1360 0.950 . S
H1338 C1361 0.950 . S
H1339 C1363 0.950 . S
H1340 C1364 0.950 . S
H1341 C1365 0.951 . S
H1342 C1367 0.951 . S
H1343 C1369 0.950 . S
H1344 C1370 0.950 . S
H1345 C1372 0.950 . S
H1346 C1375 0.950 . S
H1347 C1376 0.950 . S
H1348 C1378 0.950 . S
H1349 C1379 0.950 . S
C1350 H1332 0.951 . S
C1350 C1351 1.366 . S
C1350 C1352 1.388 . S
C1351 C1350 1.366 . S
C1351 C1355 1.385 . S
C1352 H1333 0.951 . S
C1352 C1350 1.388 . S
C1352 C1353 1.366 . S
C1353 C1352 1.366 . S
C1353 C1354 1.414 . S
C1353 C1356 1.499 . S
C1354 H1334 0.950 . S
C1354 C1353 1.414 . S
C1354 C1355 1.374 . S
C1355 H1335 0.950 . S
C1355 C1351 1.385 . S
C1355 C1354 1.374 . S
C1356 C1353 1.499 . S
C1356 C1357 1.373 . S
C1356 C1358 1.389 . S
C1357 H1336 0.950 . S
C1357 C1356 1.373 . S
C1357 C1373 1.377 . S
C1358 C1356 1.389 . S
C1358 C1359 1.524 . S
C1358 C1372 1.377 . S
C1359 C1358 1.524 . S
C1359 C1360 1.397 . S
C1359 C1364 1.363 . S
C1360 H1337 0.950 . S
C1360 C1359 1.397 . S
C1360 C1361 1.334 . S
C1361 H1338 0.950 . S
C1361 C1360 1.334 . S
C1361 C1362 1.287 . S
C1362 C1361 1.287 . S
C1362 C1363 1.524 . S
C1362 H1381 0.913 1_554 S
C1363 H1339 0.950 . S
C1363 C1362 1.524 . S
C1363 C1364 1.415 . S
C1364 H1340 0.950 . S
C1364 C1359 1.363 . S
C1364 C1363 1.415 . S
C1365 H1341 0.951 . S
C1365 C1366 1.366 . S
C1365 C1367 1.388 . S
C1366 C1365 1.366 . S
C1366 C1370 1.385 . S
C1367 H1342 0.951 . S
C1367 C1365 1.388 . S
C1367 C1368 1.366 . S
C1368 C1367 1.366 . S
C1368 C1369 1.414 . S
C1368 C1371 1.499 . S
C1369 H1343 0.950 . S
C1369 C1368 1.414 . S
C1369 C1370 1.374 . S
C1370 H1344 0.950 . S
C1370 C1366 1.385 . S
C1370 C1369 1.374 . S
C1371 C1368 1.499 . S
C1371 C1372 1.373 . S
C1371 C1373 1.389 . S
C1372 H1345 0.950 . S
C1372 C1358 1.377 . S
C1372 C1371 1.373 . S
C1373 C1357 1.377 . S
C1373 C1371 1.389 . S
C1373 C1374 1.524 . S
C1374 C1373 1.524 . S
C1374 C1375 1.397 . S
C1374 C1379 1.363 . S
C1375 H1346 0.950 . S
C1375 C1374 1.397 . S
C1375 C1376 1.334 . S
C1376 H1347 0.950 . S
C1376 C1375 1.334 . S
C1376 C1377 1.287 . S
C1377 C1376 1.287 . S
C1377 C1378 1.524 . S
C1377 H1380 0.999 . S
C1378 H1348 0.950 . S
C1378 C1377 1.524 . S
C1378 C1379 1.415 . S
C1379 H1349 0.950 . S
C1379 C1374 1.363 . S
C1379 C1378 1.415 . S
H1380 C1377 0.999 . S
H1381 C1362 0.913 1_556 S
H1382 C1400 0.951 . S
H1383 C1402 0.951 . S
H1384 C1404 0.950 . S
H1385 C1405 0.950 . S
H1386 C1407 0.950 . S
H1387 C1410 0.950 . S
H1388 C1411 0.950 . S
H1389 C1413 0.950 . S
H1390 C1414 0.950 . S
H1391 C1415 0.951 . S
H1392 C1417 0.951 . S
H1393 C1419 0.950 . S
H1394 C1420 0.950 . S
H1395 C1422 0.950 . S
H1396 C1425 0.950 . S
H1397 C1426 0.950 . S
H1398 C1428 0.950 . S
H1399 C1429 0.950 . S
C1400 H1382 0.951 . S
C1400 C1401 1.366 . S
C1400 C1402 1.388 . S
C1401 C1400 1.366 . S
C1401 C1405 1.385 . S
C1402 H1383 0.951 . S
C1402 C1400 1.388 . S
C1402 C1403 1.366 . S
C1403 C1402 1.366 . S
C1403 C1404 1.414 . S
C1403 C1406 1.499 . S
C1404 H1384 0.950 . S
C1404 C1403 1.414 . S
C1404 C1405 1.374 . S
C1405 H1385 0.950 . S
C1405 C1401 1.385 . S
C1405 C1404 1.374 . S
C1406 C1403 1.499 . S
C1406 C1407 1.373 . S
C1406 C1408 1.389 . S
C1407 H1386 0.950 . S
C1407 C1406 1.373 . S
C1407 C1423 1.377 . S
C1408 C1406 1.389 . S
C1408 C1409 1.524 . S
C1408 C1422 1.377 . S
C1409 C1408 1.524 . S
C1409 C1410 1.397 . S
C1409 C1414 1.363 . S
C1410 H1387 0.950 . S
C1410 C1409 1.397 . S
C1410 C1411 1.334 . S
C1411 H1388 0.950 . S
C1411 C1410 1.334 . S
C1411 C1412 1.287 . S
C1412 C1411 1.287 . S
C1412 C1413 1.524 . S
C1412 H1431 0.913 . S
C1413 H1389 0.950 . S
C1413 C1412 1.524 . S
C1413 C1414 1.415 . S
C1414 H1390 0.950 . S
C1414 C1409 1.363 . S
C1414 C1413 1.415 . S
C1415 H1391 0.951 . S
C1415 C1416 1.366 . S
C1415 C1417 1.388 . S
C1416 C1415 1.366 . S
C1416 C1420 1.385 . S
C1417 H1392 0.951 . S
C1417 C1415 1.388 . S
C1417 C1418 1.366 . S
C1418 C1417 1.366 . S
C1418 C1419 1.414 . S
C1418 C1421 1.499 . S
C1419 H1393 0.950 . S
C1419 C1418 1.414 . S
C1419 C1420 1.374 . S
C1420 H1394 0.950 . S
C1420 C1416 1.385 . S
C1420 C1419 1.374 . S
C1421 C1418 1.499 . S
C1421 C1422 1.373 . S
C1421 C1423 1.389 . S
C1422 H1395 0.950 . S
C1422 C1408 1.377 . S
C1422 C1421 1.373 . S
C1423 C1407 1.377 . S
C1423 C1421 1.389 . S
C1423 C1424 1.524 . S
C1424 C1423 1.524 . S
C1424 C1425 1.397 . S
C1424 C1429 1.363 . S
C1425 H1396 0.950 . S
C1425 C1424 1.397 . S
C1425 C1426 1.334 . S
C1426 H1397 0.950 . S
C1426 C1425 1.334 . S
C1426 C1427 1.287 . S
C1427 C1426 1.287 . S
C1427 C1428 1.524 . S
C1427 H1430 0.999 . S
C1428 H1398 0.950 . S
C1428 C1427 1.524 . S
C1428 C1429 1.415 . S
C1429 H1399 0.950 . S
C1429 C1424 1.363 . S
C1429 C1428 1.415 . S
H1430 C1427 0.999 . S
H1431 C1412 0.913 . S
C251 C125 1.463 . S
C266 C170 1.515 . S
C316 C190 1.514 . S
C301 C144 1.463 . S
C366 C210 1.514 . S
C351 C87 1.463 . S
C416 C230 1.515 . S
C401 C106 1.462 . S
C466 C171 1.518 . S
C451 C49 1.499 . S
C501 C68 1.499 . S
C516 C191 1.515 . S
C551 C11 1.499 . S
C566 C211 1.515 . S
C601 C30 1.499 . S
C616 C231 1.512 1_655 S
C666 C161 0.794 . S
C651 C97 0.777 . S
C716 C181 0.774 . S
C701 C116 0.774 . S
C766 C201 0.774 . S
C751 C135 0.774 . S
C801 C78 0.776 . S
C816 C221 0.776 . S
C851 C21 0.776 . S
C866 C164 0.776 . S
C916 C184 0.774 . S
C901 C40 0.775 . S
C966 C204 0.774 . S
C951 C59 0.775 . S
C1001 C2 0.775 . S
C1016 C224 0.775 . S
C1051 C101 1.514 . S
C1066 C154 1.448 . S
C1101 C120 1.514 . S
C1116 C174 1.448 . S
C1166 C194 1.448 . S
C1151 C139 1.514 . S
C1216 C214 1.447 . S
C1201 C82 1.514 . S
C1251 C25 1.516 . S
C1266 C156 1.449 . S
C1316 C176 1.448 . S
C1301 C44 1.515 . S
C1366 C196 1.449 . S
C1351 C63 1.516 . S
C1401 C6 1.515 . S
C1416 C216 1.448 . S
