# Generated by pormake.
# Topology pts, (4,4)-cn, num edge types: 1
# Building blocks:
#     Node 0, Type 0, BuildingBlock: NAWXER_clean_linker_0, # of connection points: 4
#     Node 1, Type 0, BuildingBlock: NAWXER_clean_linker_0, # of connection points: 4
#     Node 2, Type 1, BuildingBlock: QUQFOY_clean_sbu_1, # of connection points: 4
#     Node 3, Type 1, BuildingBlock: QUQFOY_clean_sbu_1, # of connection points: 4
#     Edge 4, Type (0, 1), BuildingBlock: UVAHIK_clean_linker_0, # of connection points: 2
#     Edge 5, Type (0, 1), BuildingBlock: UVAHIK_clean_linker_0, # of connection points: 2
#     Edge 6, Type (0, 1), BuildingBlock: UVAHIK_clean_linker_0, # of connection points: 2
#     Edge 7, Type (0, 1), BuildingBlock: UVAHIK_clean_linker_0, # of connection points: 2
#     Edge 8, Type (0, 1), BuildingBlock: UVAHIK_clean_linker_0, # of connection points: 2
#     Edge 9, Type (0, 1), BuildingBlock: UVAHIK_clean_linker_0, # of connection points: 2
#     Edge 10, Type (0, 1), BuildingBlock: UVAHIK_clean_linker_0, # of connection points: 2
#     Edge 11, Type (0, 1), BuildingBlock: UVAHIK_clean_linker_0, # of connection points: 2
# Relax obj value: 0.095
# Max RMSD: 0.253
# Mean RMSD: 0.145
data_MOF--net-pts--node1-QUQFOY_clean_sbu_1--node2-NAWXER_clean_linker_0--edge1-UVAHIK_clean_linker_0
_symmetry_space_group_name_H-M    P1
_symmetry_Int_Tables_number       1
_symmetry_cell_setting            triclinic
loop_
_symmetry_equiv_pos_as_xyz
'x, y, z'
_cell_length_a     34.683969
_cell_length_b     38.05466
_cell_length_c     56.529578
_cell_angle_alpha  90.017784
_cell_angle_beta   89.958288
_cell_angle_gamma 90.012368
loop_
_atom_site_label
_atom_site_type_symbol
_atom_site_fract_x
_atom_site_fract_y
_atom_site_fract_z
_atom_type_partial_charge
C0 C 0.62161 0.01836 0.95255 0.0
C1 C 0.62354 0.99254 0.93479 0.0
C2 C 0.59123 0.01842 0.96882 0.0
C3 C 0.5626 0.99234 0.96782 0.0
C4 C 0.59525 0.96613 0.93413 0.0
C5 C 0.56504 0.96613 0.95042 0.0
C6 C 0.52787 0.99414 0.98295 0.0
C7 C 0.62486 0.97731 0.03507 0.0
C8 C 0.62819 0.00333 0.05264 0.0
C9 C 0.59316 0.97692 0.01981 0.0
C10 C 0.56445 0.00281 0.02166 0.0
C11 C 0.59964 0.02945 0.05419 0.0
C12 C 0.56807 0.02909 0.03893 0.0
C13 C 0.52868 0.00082 0.00751 0.0
C14 C 0.36515 0.97684 0.03791 0.0
C15 C 0.36247 0.00298 0.05543 0.0
C16 C 0.39623 0.97639 0.02216 0.0
C17 C 0.42497 0.00233 0.02346 0.0
C18 C 0.39119 0.02901 0.05656 0.0
C19 C 0.42216 0.02858 0.0408 0.0
C20 C 0.45981 0.00062 0.00841 0.0
C21 C 0.36305 0.01823 0.95627 0.0
C22 C 0.35949 0.99224 0.93871 0.0
C23 C 0.39477 0.01841 0.97151 0.0
C24 C 0.42327 0.99234 0.96965 0.0
C25 C 0.38787 0.96597 0.93711 0.0
C26 C 0.41947 0.96612 0.95236 0.0
C27 C 0.45901 0.99406 0.98384 0.0
H28 H 0.64272 0.03931 0.95328 0.0
H29 H 0.5894 0.03959 0.98158 0.0
H30 H 0.59624 0.94564 0.92084 0.0
H31 H 0.54315 0.94588 0.94921 0.0
H32 H 0.64648 0.95694 0.03333 0.0
H33 H 0.59055 0.95577 0.0071 0.0
H34 H 0.60095 0.04952 0.06776 0.0
H35 H 0.54603 0.04906 0.04089 0.0
H36 H 0.34339 0.95653 0.03648 0.0
H37 H 0.39827 0.95524 0.0094 0.0
H38 H 0.39038 0.04915 0.07009 0.0
H39 H 0.44426 0.04858 0.04235 0.0
H40 H 0.34157 0.03871 0.95805 0.0
H41 H 0.39754 0.03952 0.98425 0.0
H42 H 0.38638 0.94592 0.92354 0.0
H43 H 0.44136 0.94602 0.95038 0.0
N44 N 0.49306 0.99093 0.97217 0.0
N45 N 0.49461 0.00389 0.0192 0.0
C46 C 0.02233 0.61904 0.53179 0.0
C47 C -0.00399 0.62382 0.55043 0.0
C48 C 0.02137 0.58847 0.51811 0.0
C49 C -0.00644 0.56239 0.52249 0.0
C50 C 0.9687 0.59738 0.55508 0.0
C51 C 0.96759 0.56692 0.54128 0.0
C52 C 0.99219 0.52984 0.50814 0.0
C53 C 0.9638 0.61892 0.45935 0.0
C54 C 0.99013 0.62358 0.44071 0.0
C55 C 0.9647 0.5884 0.47308 0.0
C56 C 0.99246 0.56227 0.46874 0.0
C57 C 0.01738 0.59709 0.4361 0.0
C58 C 0.01844 0.56669 0.44994 0.0
C59 C -0.00622 0.52979 0.48314 0.0
C60 C 0.96763 0.37737 0.45886 0.0
C61 C -0.00372 0.37251 0.44156 0.0
C62 C 0.96655 0.4082 0.47229 0.0
C63 C -0.00553 0.4345 0.46893 0.0
C64 C 0.02371 0.39921 0.43794 0.0
C65 C 0.02268 0.42995 0.45142 0.0
C66 C -0.00587 0.46709 0.48321 0.0
C67 C 0.01862 0.3776 0.53266 0.0
C68 C 0.99002 0.37276 0.55 0.0
C69 C 0.0196 0.40837 0.51917 0.0
C70 C 0.99162 0.43462 0.52251 0.0
C71 C 0.96252 0.3994 0.55358 0.0
C72 C 0.96345 0.43008 0.54004 0.0
C73 C 0.99187 0.46714 0.50817 0.0
H74 H 0.04418 0.63862 0.52809 0.0
H75 H 0.04258 0.5851 0.50423 0.0
H76 H 0.94792 0.60039 0.56924 0.0
H77 H 0.94611 0.54704 0.54513 0.0
H78 H 0.94198 0.63855 0.46302 0.0
H79 H 0.94348 0.58512 0.48697 0.0
H80 H 0.03817 0.60002 0.42193 0.0
H81 H 0.03987 0.54677 0.44613 0.0
H82 H 0.94566 0.3576 0.46175 0.0
H83 H 0.94381 0.41155 0.48524 0.0
H84 H 0.04634 0.39615 0.42489 0.0
H85 H 0.04434 0.44999 0.44843 0.0
H86 H 0.04064 0.35788 0.5298 0.0
H87 H 0.04232 0.41171 0.50622 0.0
H88 H 0.93993 0.39636 0.56666 0.0
H89 H 0.94174 0.45008 0.54301 0.0
N90 N 0.99085 0.49851 0.51966 0.0
N91 N -0.00486 0.49841 0.47168 0.0
O92 O 0.94314 0.96996 0.23414 0.0
Cd93 Cd -0.00669 0.96232 0.25298 0.0
Cd94 Cd 0.99297 0.03449 0.2537 0.0
O95 O 0.94236 0.02787 0.23517 0.0
O96 O 0.9929 0.91121 0.26002 0.0
O97 O 0.99182 0.95179 0.28798 0.0
C98 C 0.99187 0.91895 0.28219 0.0
C99 C -0.00607 0.07698 0.28351 0.0
C100 C 0.92738 -0.00102 0.22868 0.0
C101 C 0.05966 -0.0011 0.22941 0.0
O102 O 0.04359 0.02762 0.23522 0.0
O103 O 0.0446 0.96971 0.23521 0.0
O104 O -0.00624 0.08538 0.26145 0.0
O105 O 0.99314 0.04398 0.28885 0.0
O106 O 0.94385 0.02814 0.75654 0.0
Cd107 Cd -0.00532 0.03538 0.73827 0.0
Cd108 Cd -0.00587 0.96319 0.73778 0.0
O109 O 0.94285 0.97025 0.75555 0.0
O110 O -0.00594 0.08627 0.73058 0.0
O111 O -0.00539 0.04487 0.70314 0.0
C112 C -0.00611 0.07787 0.7085 0.0
C113 C -0.00445 0.91977 0.70856 0.0
C114 C 0.92775 -0.0008 0.76182 0.0
C115 C 0.06002 -0.00104 0.76282 0.0
O116 O 0.04407 0.97023 0.75688 0.0
O117 O 0.0453 0.02816 0.75674 0.0
O118 O -0.00562 0.91207 0.73072 0.0
O119 O -0.00422 0.9526 0.70277 0.0
C120 C 0.3133 0.03388 0.08055 0.0
C121 C 0.33078 0.00244 0.0731 0.0
C122 C 0.2848 0.03353 0.098 0.0
C123 C 0.24694 0.9793 0.14702 0.0
H124 H 0.15783 0.04023 0.14145 0.0
C125 C 0.11198 0.96804 0.20687 0.0
C126 C 0.09453 -0.00048 0.21429 0.0
C127 C 0.14254 0.96861 0.19075 0.0
C128 C 0.18279 0.02338 0.14341 0.0
H129 H 0.33187 0.94593 0.07815 0.0
H130 H 0.28137 0.94523 0.10813 0.0
H131 H 0.20668 0.04044 0.11048 0.0
H132 H 0.09657 0.05638 0.21128 0.0
H133 H 0.14996 0.05728 0.18328 0.0
H134 H 0.22268 0.96199 0.17988 0.0
C135 C 0.29013 0.97023 0.10072 0.0
C136 C 0.21078 0.02349 0.12565 0.0
C137 C 0.3187 0.97058 0.08329 0.0
C138 C 0.10919 0.03161 0.20586 0.0
C139 C 0.13963 0.03216 0.18969 0.0
C140 C 0.21885 0.97911 0.16476 0.0
C141 C 0.27303 0.00172 0.10838 0.0
C142 C 0.24319 0.00146 0.12725 0.0
C143 C 0.15619 0.00065 0.18166 0.0
C144 C 0.1865 0.00118 0.16314 0.0
H145 H 0.32168 0.05883 0.07289 0.0
H146 H 0.27247 0.0583 0.10364 0.0
H147 H 0.27187 0.96242 0.14898 0.0
H148 H 0.10143 0.94286 0.21303 0.0
H149 H 0.15458 0.94388 0.18478 0.0
C150 C 0.98166 0.34223 0.58895 0.0
C151 C 0.98909 0.34027 0.56455 0.0
C152 C 0.98043 0.31181 0.6027 0.0
C153 C 0.01232 0.21936 0.60434 0.0
H154 H 0.93595 0.21291 0.65429 0.0
C155 C -0.00442 0.09749 0.66599 0.0
C156 C 0.99224 0.10558 0.69018 0.0
C157 C -0.00634 0.12419 0.64895 0.0
C158 C 0.95753 0.21438 0.64046 0.0
H159 H 0.00089 0.30474 0.53544 0.0
H160 H -0.0013 0.25145 0.55953 0.0
H161 H 0.9353 0.26314 0.62761 0.0
H162 H 0.98435 0.14797 0.71543 0.0
H163 H 0.98098 0.19416 0.68588 0.0
H164 H 0.03465 0.17055 0.61746 0.0
C165 C -0.00576 0.27663 0.56803 0.0
C166 C 0.95723 0.2432 0.62521 0.0
C167 C -0.00449 0.30714 0.55424 0.0
C168 C 0.98697 0.14078 0.69696 0.0
C169 C 0.98476 0.16728 0.68001 0.0
C170 C 0.01253 0.19038 0.61959 0.0
C171 C 0.98653 0.27862 0.59242 0.0
C172 C 0.9851 0.24643 0.60728 0.0
C173 C 0.98795 0.15933 0.65583 0.0
C174 C 0.98561 0.18801 0.63811 0.0
H175 H 0.97731 0.36739 0.59751 0.0
H176 H 0.97526 0.31439 0.62152 0.0
H177 H 0.03435 0.22116 0.5908 0.0
H178 H -0.00031 0.0706 0.66023 0.0
H179 H -0.00391 0.11732 0.63042 0.0
C180 C 0.6778 0.03358 0.07779 0.0
C181 C 0.66012 0.00235 0.07012 0.0
C182 C 0.70602 0.03284 0.09539 0.0
C183 C 0.77557 0.97456 0.12503 0.0
H184 H 0.77054 0.0438 0.17531 0.0
C185 C 0.87604 0.96739 0.20586 0.0
C186 C 0.89295 -0.00086 0.21322 0.0
C187 C 0.84589 0.9674 0.18949 0.0
C188 C 0.77255 0.02448 0.16129 0.0
H189 H 0.65843 0.94579 0.0749 0.0
H190 H 0.70801 0.94449 0.10542 0.0
H191 H 0.72258 0.04474 0.14377 0.0
H192 H 0.89056 0.05589 0.20966 0.0
H193 H 0.83834 0.05585 0.18093 0.0
H194 H 0.82575 0.95451 0.14233 0.0
C195 C 0.70022 0.96952 0.09766 0.0
C196 C 0.74511 0.02505 0.14322 0.0
C197 C 0.6719 0.97027 0.08011 0.0
C198 C 0.87817 0.03095 0.20442 0.0
C199 C 0.84809 0.03095 0.188 0.0
C200 C 0.80308 0.97406 0.14305 0.0
C201 C 0.71729 0.00083 0.10566 0.0
C202 C 0.7464 0.00015 0.12486 0.0
C203 C 0.83202 -0.00086 0.18006 0.0
C204 C 0.80195 -0.00094 0.16136 0.0
H205 H 0.66979 0.05867 0.07019 0.0
H206 H 0.71914 0.05733 0.10091 0.0
H207 H 0.77758 0.9553 0.11097 0.0
H208 H 0.88655 0.94241 0.21239 0.0
H209 H 0.83366 0.94248 0.18407 0.0
C210 C 0.0023 0.68927 0.55498 0.0
C211 C -0.00245 0.65592 0.5653 0.0
C212 C 0.00391 0.71942 0.56911 0.0
C213 C 0.02496 0.74801 0.62998 0.0
H214 H 0.96508 0.83073 0.61402 0.0
C215 C -0.0044 0.85617 0.69792 0.0
C216 C -0.00309 0.89145 0.69064 0.0
C217 C -0.0025 0.82903 0.68142 0.0
C218 C 0.98242 0.80804 0.61853 0.0
H219 H 0.99119 0.62802 0.59851 0.0
H220 H -0.0063 0.68056 0.62313 0.0
H221 H 0.96518 0.78016 0.58731 0.0
H222 H 0.00096 0.92591 0.6602 0.0
H223 H 0.00458 0.87819 0.63118 0.0
H224 H 0.04209 0.77557 0.66119 0.0
C225 C -0.00363 0.68342 0.60413 0.0
C226 C 0.98244 0.77908 0.60326 0.0
C227 C -0.00549 0.65336 0.59002 0.0
C228 C -0.00014 0.89898 0.66636 0.0
C229 C 0.00178 0.87168 0.64975 0.0
C230 C 0.02505 0.77691 0.64517 0.0
C231 C 0.00116 0.71677 0.59385 0.0
C232 C 0.00317 0.74853 0.60906 0.0
C233 C 0.00088 0.83638 0.65715 0.0
C234 C 0.00321 0.80702 0.63987 0.0
H235 H 0.00442 0.69207 0.53596 0.0
H236 H 0.0078 0.74475 0.56071 0.0
H237 H 0.04187 0.72513 0.63469 0.0
H238 H 0.99308 0.84939 0.71647 0.0
H239 H -0.00409 0.80218 0.6877 0.0
C240 C 0.31573 0.02542 0.91133 0.0
C241 C 0.32743 0.99333 0.92133 0.0
C242 C 0.28716 0.02626 0.89394 0.0
C243 C 0.2075 0.97395 0.86839 0.0
H244 H 0.22132 0.03551 0.81435 0.0
C245 C 0.10855 0.9662 0.78705 0.0
C246 C 0.0943 -0.00169 0.77841 0.0
C247 C 0.13837 0.96562 0.80362 0.0
C248 C 0.21694 0.01839 0.82943 0.0
H249 H 0.31752 0.93705 0.92134 0.0
H250 H 0.26831 0.93841 0.89064 0.0
H251 H 0.26971 0.03466 0.84567 0.0
H252 H 0.10129 0.05497 0.77974 0.0
H253 H 0.15339 0.05387 0.80869 0.0
H254 H 0.15484 0.95758 0.8521 0.0
C255 C 0.28095 0.96299 0.8964 0.0
C256 C 0.24458 0.01796 0.8474 0.0
C257 C 0.30945 0.96217 0.91382 0.0
C258 C 0.11155 0.02978 0.78605 0.0
C259 C 0.1415 0.02916 0.80257 0.0
C260 C 0.17998 0.9743 0.8504 0.0
C261 C 0.26968 0.99502 0.88611 0.0
C262 C 0.24016 0.99574 0.8671 0.0
C263 C 0.15471 0.9971 0.81185 0.0
C264 C 0.1844 0.99649 0.83072 0.0
H265 H 0.32929 0.04987 0.91652 0.0
H266 H 0.27879 0.05141 0.88661 0.0
H267 H 0.20289 0.95696 0.8835 0.0
H268 H 0.09608 0.94146 0.78148 0.0
H269 H 0.1484 0.94049 0.81016 0.0
C270 C 0.00489 0.34178 0.40269 0.0
C271 C -0.00265 0.33994 0.42707 0.0
C272 C 0.0063 0.31128 0.38901 0.0
C273 C 0.97477 0.21872 0.3875 0.0
H274 H 0.05158 0.21222 0.3378 0.0
C275 C 0.99212 0.09666 0.32603 0.0
C276 C -0.00442 0.10471 0.30184 0.0
C277 C -0.00606 0.1234 0.34305 0.0
C278 C 0.02988 0.2137 0.35156 0.0
H279 H 0.98552 0.30454 0.45625 0.0
H280 H 0.98802 0.25111 0.43229 0.0
H281 H 0.05186 0.2626 0.36438 0.0
H282 H 0.00366 0.14705 0.27659 0.0
H283 H 0.00686 0.1933 0.30611 0.0
H284 H 0.95268 0.16979 0.3744 0.0
C285 C 0.99243 0.27626 0.42374 0.0
C286 C 0.02997 0.2426 0.36675 0.0
C287 C 0.99098 0.30685 0.43745 0.0
C288 C 0.00093 0.13989 0.29506 0.0
C289 C 0.00305 0.16643 0.31199 0.0
C290 C 0.97478 0.18966 0.3723 0.0
C291 C 0.00028 0.27813 0.39937 0.0
C292 C 0.00194 0.24585 0.38458 0.0
C293 C -0.00031 0.15853 0.33617 0.0
C294 C 0.00185 0.18727 0.35387 0.0
H295 H 0.0092 0.36689 0.39407 0.0
H296 H 0.01158 0.31374 0.3702 0.0
H297 H 0.95263 0.22054 0.40096 0.0
H298 H 0.98795 0.06979 0.33179 0.0
H299 H 0.99138 0.11657 0.36159 0.0
C300 C 0.69238 0.00117 0.92226 0.0
C301 C 0.65387 0.99393 0.91632 0.0
C302 C 0.72076 0.00244 0.90471 0.0
C303 C 0.74091 0.9732 0.84354 0.0
H304 H 0.82179 0.04338 0.84662 0.0
C305 C 0.87722 0.96734 0.78513 0.0
C306 C 0.89268 -0.00086 0.77676 0.0
C307 C 0.84634 0.96736 0.80099 0.0
C308 C 0.79916 0.02386 0.84534 0.0
H309 H 0.61471 0.98336 0.88728 0.0
H310 H 0.66407 0.98582 0.85669 0.0
H311 H 0.77152 0.04268 0.87673 0.0
H312 H 0.88677 0.05591 0.77779 0.0
H313 H 0.83245 0.05587 0.80515 0.0
H314 H 0.76815 0.95478 0.81192 0.0
C315 C 0.67257 0.98972 0.87493 0.0
C316 C 0.77065 0.02315 0.86279 0.0
C317 C 0.64428 0.98832 0.89246 0.0
C318 C 0.87572 0.03093 0.784 0.0
C319 C 0.84475 0.03094 0.79982 0.0
C320 C 0.76937 0.97395 0.82606 0.0
C321 C 0.71117 0.99668 0.88084 0.0
C322 C 0.74128 0.99772 0.86216 0.0
C323 C 0.8301 -0.00083 0.80878 0.0
C324 C 0.79894 -0.00082 0.82682 0.0
H325 H 0.70066 0.0053 0.94052 0.0
H326 H 0.75032 0.00738 0.9099 0.0
H327 H 0.71892 0.95303 0.84265 0.0
H328 H 0.88964 0.94237 0.77997 0.0
H329 H 0.83602 0.94243 0.80773 0.0
C330 C 0.984 0.68902 0.43605 0.0
C331 C 0.98866 0.65562 0.42578 0.0
C332 C 0.98252 0.71912 0.42187 0.0
C333 C 0.96173 0.74752 0.36093 0.0
H334 H 0.02194 0.83011 0.37683 0.0
C335 C 0.99162 0.85537 0.29287 0.0
C336 C 0.99044 0.89067 0.30013 0.0
C337 C 0.98961 0.82828 0.3094 0.0
C338 C 0.00451 0.80746 0.37233 0.0
H339 H -0.00504 0.62756 0.39262 0.0
H340 H 0.99266 0.68 0.36792 0.0
H341 H 0.02153 0.77965 0.40361 0.0
H342 H 0.98652 0.92523 0.33054 0.0
H343 H 0.9827 0.87761 0.35959 0.0
H344 H 0.9448 0.775 0.32966 0.0
C345 C 0.98997 0.68295 0.38691 0.0
C346 C 0.00432 0.77856 0.38765 0.0
C347 C 0.99171 0.65295 0.40107 0.0
C348 C 0.98752 0.89828 0.3244 0.0
C349 C 0.98548 0.87103 0.34103 0.0
C350 C 0.9618 0.77635 0.3457 0.0
C351 C 0.9853 0.71636 0.39713 0.0
C352 C 0.98346 0.74805 0.38188 0.0
C353 C 0.98624 0.83571 0.33366 0.0
C354 C 0.98377 0.80641 0.35098 0.0
H355 H 0.98188 0.69191 0.45507 0.0
H356 H 0.97871 0.7445 0.43023 0.0
H357 H 0.94473 0.72467 0.35624 0.0
H358 H -0.00589 0.84853 0.27433 0.0
H359 H 0.99109 0.80141 0.30315 0.0
loop_
_geom_bond_atom_site_label_1
_geom_bond_atom_site_label_2
_geom_bond_distance
_geom_bond_site_symmetry_2
_ccdc_geom_bond_type
C0 C1 1.366 1_545 S
C0 C2 1.384 . S
C0 H28 0.931 . S
C1 C0 1.366 1_565 S
C1 C4 1.401 . S
C2 C0 1.384 . S
C2 C3 1.381 1_545 S
C2 H29 0.930 . S
C3 C2 1.381 1_565 S
C3 C5 1.381 . S
C3 C6 1.487 . S
C4 C1 1.401 . S
C4 C5 1.387 . S
C4 H30 0.930 . S
C5 C3 1.381 . S
C5 C4 1.387 . S
C5 H31 0.931 . S
C6 C3 1.487 . S
C6 C13 1.399 1_566 S
C6 N44 1.343 . S
C7 C8 1.384 1_565 S
C7 C9 1.384 . S
C7 H32 0.931 . S
C8 C7 1.384 1_545 S
C8 C11 1.382 . S
C9 C7 1.384 . S
C9 C10 1.381 1_565 S
C9 H33 0.930 . S
C10 C9 1.381 1_545 S
C10 C12 1.381 . S
C10 C13 1.487 . S
C11 C8 1.382 . S
C11 C12 1.387 . S
C11 H34 0.930 . S
C12 C10 1.381 . S
C12 C11 1.387 . S
C12 H35 0.931 . S
C13 C6 1.399 1_544 S
C13 C10 1.487 . S
C13 N45 1.343 . S
C14 C15 1.384 1_565 S
C14 C16 1.384 . S
C14 H36 0.931 . S
C15 C14 1.384 1_545 S
C15 C18 1.382 . S
C16 C14 1.384 . S
C16 C17 1.381 1_565 S
C16 H37 0.930 . S
C17 C16 1.381 1_545 S
C17 C19 1.381 . S
C17 C20 1.487 . S
C18 C15 1.382 . S
C18 C19 1.387 . S
C18 H38 0.930 . S
C19 C17 1.381 . S
C19 C18 1.387 . S
C19 H39 0.931 . S
C20 C17 1.487 . S
C20 C27 1.399 1_544 S
C20 N45 1.343 . S
C21 C22 1.366 1_545 S
C21 C23 1.384 . S
C21 H40 0.931 . S
C22 C21 1.366 1_565 S
C22 C25 1.401 . S
C23 C21 1.384 . S
C23 C24 1.381 1_545 S
C23 H41 0.930 . S
C24 C23 1.381 1_565 S
C24 C26 1.381 . S
C24 C27 1.487 . S
C25 C22 1.401 . S
C25 C26 1.387 . S
C25 H42 0.930 . S
C26 C24 1.381 . S
C26 C25 1.387 . S
C26 H43 0.931 . S
C27 C20 1.399 1_566 S
C27 C24 1.487 . S
C27 N44 1.343 . S
H28 C0 0.931 . S
H29 C2 0.930 . S
H30 C4 0.930 . S
H31 C5 0.931 . S
H32 C7 0.931 . S
H33 C9 0.930 . S
H34 C11 0.930 . S
H35 C12 0.931 . S
H36 C14 0.931 . S
H37 C16 0.930 . S
H38 C18 0.930 . S
H39 C19 0.931 . S
H40 C21 0.931 . S
H41 C23 0.930 . S
H42 C25 0.930 . S
H43 C26 0.931 . S
N44 C6 1.343 . S
N44 C27 1.343 . S
N45 C13 1.343 . S
N45 C20 1.343 . S
C46 C47 1.366 1_455 S
C46 C48 1.384 . S
C46 H74 0.931 . S
C47 C46 1.366 1_655 S
C47 C50 1.402 . S
C48 C46 1.384 . S
C48 C49 1.381 1_455 S
C48 H75 0.930 . S
C49 C48 1.381 1_655 S
C49 C51 1.381 . S
C49 C52 1.487 . S
C50 C47 1.402 . S
C50 C51 1.387 . S
C50 H76 0.930 . S
C51 C49 1.381 . S
C51 C50 1.387 . S
C51 H77 0.931 . S
C52 C49 1.487 . S
C52 C59 1.399 1_655 S
C52 N90 1.343 . S
C53 C54 1.384 1_655 S
C53 C55 1.384 . S
C53 H78 0.931 . S
C54 C53 1.384 1_455 S
C54 C57 1.382 . S
C55 C53 1.384 . S
C55 C56 1.381 1_655 S
C55 H79 0.930 . S
C56 C55 1.381 1_455 S
C56 C58 1.381 . S
C56 C59 1.487 . S
C57 C54 1.382 . S
C57 C58 1.387 . S
C57 H80 0.930 . S
C58 C56 1.381 . S
C58 C57 1.387 . S
C58 H81 0.931 . S
C59 C52 1.399 1_455 S
C59 C56 1.487 . S
C59 N91 1.343 . S
C60 C61 1.384 1_655 S
C60 C62 1.384 . S
C60 H82 0.931 . S
C61 C60 1.384 1_455 S
C61 C64 1.382 . S
C62 C60 1.384 . S
C62 C63 1.381 1_655 S
C62 H83 0.930 . S
C63 C62 1.381 1_455 S
C63 C65 1.381 . S
C63 C66 1.487 . S
C64 C61 1.382 . S
C64 C65 1.387 . S
C64 H84 0.930 . S
C65 C63 1.381 . S
C65 C64 1.387 . S
C65 H85 0.931 . S
C66 C63 1.487 . S
C66 C73 1.399 1_455 S
C66 N91 1.343 . S
C67 C68 1.366 1_455 S
C67 C69 1.384 . S
C67 H86 0.931 . S
C68 C67 1.366 1_655 S
C68 C71 1.402 . S
C69 C67 1.384 . S
C69 C70 1.381 1_455 S
C69 H87 0.930 . S
C70 C69 1.381 1_655 S
C70 C72 1.381 . S
C70 C73 1.487 . S
C71 C68 1.402 . S
C71 C72 1.387 . S
C71 H88 0.930 . S
C72 C70 1.381 . S
C72 C71 1.387 . S
C72 H89 0.931 . S
C73 C66 1.399 1_655 S
C73 C70 1.487 . S
C73 N90 1.343 . S
H74 C46 0.931 . S
H75 C48 0.930 . S
H76 C50 0.930 . S
H77 C51 0.931 . S
H78 C53 0.931 . S
H79 C55 0.930 . S
H80 C57 0.930 . S
H81 C58 0.931 . S
H82 C60 0.931 . S
H83 C62 0.930 . S
H84 C64 0.930 . S
H85 C65 0.931 . S
H86 C67 0.931 . S
H87 C69 0.930 . S
H88 C71 0.930 . S
H89 C72 0.931 . S
N90 C52 1.343 . S
N90 C73 1.343 . S
N91 C59 1.343 . S
N91 C66 1.343 . S
O92 Cd93 2.223 1_655 S
O92 C100 1.315 . S
Cd93 O92 2.223 1_455 S
Cd93 O96 2.297 1_455 S
Cd93 O97 2.439 1_455 S
Cd93 O103 2.240 1_565 S
Cd94 O95 2.240 1_545 S
Cd94 O102 2.223 1_655 S
Cd94 O104 2.297 1_655 S
Cd94 O105 2.439 1_655 S
O95 Cd94 2.240 1_565 S
O95 C100 1.279 . S
O96 Cd93 2.297 1_655 S
O96 C98 1.247 . S
O97 Cd93 2.439 1_655 S
O97 C98 1.208 . S
C98 O96 1.247 . S
C98 O97 1.208 . S
C99 O104 1.247 . S
C99 O105 1.208 . S
C100 O92 1.315 . S
C100 O95 1.279 . S
C101 O102 1.315 . S
C101 O103 1.279 . S
O102 Cd94 2.223 1_455 S
O102 C101 1.315 . S
O103 Cd93 2.240 1_545 S
O103 C101 1.279 . S
O104 Cd94 2.297 1_455 S
O104 C99 1.247 . S
O105 Cd94 2.439 1_455 S
O105 C99 1.208 . S
O106 Cd107 2.223 1_655 S
O106 C114 1.315 . S
Cd107 O106 2.223 1_455 S
Cd107 O110 2.297 1_455 S
Cd107 O111 2.439 1_455 S
Cd107 O117 2.240 1_545 S
Cd108 O109 2.240 1_565 S
Cd108 O116 2.223 1_655 S
Cd108 O118 2.297 1_655 S
Cd108 O119 2.439 1_655 S
O109 Cd108 2.240 1_545 S
O109 C114 1.279 . S
O110 Cd107 2.297 1_655 S
O110 C112 1.247 . S
O111 Cd107 2.439 1_655 S
O111 C112 1.208 . S
C112 O110 1.247 . S
C112 O111 1.208 . S
C113 O118 1.247 . S
C113 O119 1.208 . S
C114 O106 1.315 . S
C114 O109 1.279 . S
C115 O116 1.315 . S
C115 O117 1.279 . S
O116 Cd108 2.223 1_455 S
O116 C115 1.315 . S
O117 Cd107 2.240 1_565 S
O117 C115 1.279 . S
O118 Cd108 2.297 1_455 S
O118 C113 1.247 . S
O119 Cd108 2.439 1_455 S
O119 C113 1.208 . S
C120 C121 1.349 . S
C120 C122 1.327 . S
C120 H145 0.950 . S
C121 C120 1.349 . S
C121 C137 1.349 1_545 S
C122 C120 1.327 . S
C122 C141 1.429 . S
C122 H146 0.950 . S
C123 C140 1.574 . S
C123 C142 1.368 1_565 S
C123 H147 0.949 . S
H124 C128 0.949 . S
C125 C126 1.349 1_565 S
C125 C127 1.327 . S
C125 H148 0.950 . S
C126 C125 1.349 1_545 S
C126 C138 1.349 . S
C127 C125 1.327 . S
C127 C143 1.429 1_565 S
C127 H149 0.950 . S
C128 H124 0.949 . S
C128 C136 1.574 . S
C128 C144 1.368 . S
H129 C137 0.950 . S
H130 C135 0.950 . S
H131 C136 0.949 . S
H132 C138 0.950 . S
H133 C139 0.950 . S
H134 C140 0.949 . S
C135 H130 0.950 . S
C135 C137 1.327 . S
C135 C141 1.429 1_565 S
C136 C128 1.574 . S
C136 H131 0.949 . S
C136 C142 1.368 . S
C137 C121 1.349 1_565 S
C137 H129 0.950 . S
C137 C135 1.327 . S
C138 C126 1.349 . S
C138 H132 0.950 . S
C138 C139 1.327 . S
C139 H133 0.950 . S
C139 C138 1.327 . S
C139 C143 1.429 . S
C140 C123 1.574 . S
C140 H134 0.949 . S
C140 C144 1.368 1_565 S
C141 C122 1.429 . S
C141 C135 1.429 1_545 S
C141 C142 1.523 . S
C142 C123 1.368 1_545 S
C142 C136 1.368 . S
C142 C141 1.523 . S
C143 C127 1.429 1_545 S
C143 C139 1.429 . S
C143 C144 1.523 . S
C144 C128 1.368 . S
C144 C140 1.368 1_545 S
C144 C143 1.523 . S
H145 C120 0.950 . S
H146 C122 0.950 . S
H147 C123 0.949 . S
H148 C125 0.950 . S
H149 C127 0.950 . S
C150 C151 1.349 . S
C150 C152 1.327 . S
C150 H175 0.950 . S
C151 C150 1.349 . S
C151 C167 1.349 1_655 S
C152 C150 1.327 . S
C152 C171 1.429 . S
C152 H176 0.950 . S
C153 C170 1.574 . S
C153 C172 1.368 1_455 S
C153 H177 0.949 . S
H154 C158 0.949 . S
C155 C156 1.349 . S
C155 C157 1.329 . S
C155 H178 0.950 1_655 S
C156 C155 1.349 . S
C156 C168 1.349 . S
C157 C155 1.329 . S
C157 C173 1.439 . S
C157 H179 0.937 1_655 S
C158 H154 0.949 . S
C158 C166 1.574 . S
C158 C174 1.368 . S
H159 C167 0.950 . S
H160 C165 0.950 . S
H161 C166 0.949 . S
H162 C168 0.950 . S
H163 C169 0.950 . S
H164 C170 0.949 . S
C165 H160 0.950 . S
C165 C167 1.327 . S
C165 C171 1.429 1_455 S
C166 C158 1.574 . S
C166 H161 0.949 . S
C166 C172 1.368 . S
C167 C151 1.349 1_455 S
C167 H159 0.950 . S
C167 C165 1.327 . S
C168 C156 1.349 . S
C168 H162 0.950 . S
C168 C169 1.327 . S
C169 H163 0.950 . S
C169 C168 1.327 . S
C169 C173 1.429 . S
C170 C153 1.574 . S
C170 H164 0.949 . S
C170 C174 1.368 1_455 S
C171 C152 1.429 . S
C171 C165 1.429 1_655 S
C171 C172 1.523 . S
C172 C153 1.368 1_655 S
C172 C166 1.368 . S
C172 C171 1.523 . S
C173 C157 1.439 . S
C173 C169 1.429 . S
C173 C174 1.523 . S
C174 C158 1.368 . S
C174 C170 1.368 1_655 S
C174 C173 1.523 . S
H175 C150 0.950 . S
H176 C152 0.950 . S
H177 C153 0.949 . S
H178 C155 0.950 1_455 S
H179 C157 0.937 1_455 S
C180 C181 1.349 1_545 S
C180 C182 1.327 . S
C180 H205 0.950 . S
C181 C180 1.349 1_565 S
C181 C197 1.349 . S
C182 C180 1.327 . S
C182 C201 1.429 1_545 S
C182 H206 0.950 . S
C183 C200 1.574 . S
C183 C202 1.368 . S
C183 H207 0.949 . S
H184 C188 0.949 . S
C185 C186 1.349 . S
C185 C187 1.327 . S
C185 H208 0.950 . S
C186 C185 1.349 . S
C186 C198 1.349 1_565 S
C187 C185 1.327 . S
C187 C203 1.429 . S
C187 H209 0.950 . S
C188 H184 0.949 . S
C188 C196 1.574 . S
C188 C204 1.368 1_545 S
H189 C197 0.950 . S
H190 C195 0.950 . S
H191 C196 0.949 . S
H192 C198 0.950 . S
H193 C199 0.950 . S
H194 C200 0.949 . S
C195 H190 0.950 . S
C195 C197 1.327 . S
C195 C201 1.429 . S
C196 C188 1.574 . S
C196 H191 0.949 . S
C196 C202 1.368 1_545 S
C197 C181 1.349 . S
C197 H189 0.950 . S
C197 C195 1.327 . S
C198 C186 1.349 1_545 S
C198 H192 0.950 . S
C198 C199 1.327 . S
C199 H193 0.950 . S
C199 C198 1.327 . S
C199 C203 1.429 1_545 S
C200 C183 1.574 . S
C200 H194 0.949 . S
C200 C204 1.368 . S
C201 C182 1.429 1_565 S
C201 C195 1.429 . S
C201 C202 1.523 . S
C202 C183 1.368 . S
C202 C196 1.368 1_565 S
C202 C201 1.523 . S
C203 C187 1.429 . S
C203 C199 1.429 1_565 S
C203 C204 1.523 . S
C204 C188 1.368 1_565 S
C204 C200 1.368 . S
C204 C203 1.523 . S
H205 C180 0.950 . S
H206 C182 0.950 . S
H207 C183 0.949 . S
H208 C185 0.950 . S
H209 C187 0.950 . S
C210 C211 1.349 1_655 S
C210 C212 1.327 . S
C210 H235 0.950 . S
C211 C210 1.349 1_455 S
C211 C227 1.349 . S
C212 C210 1.327 . S
C212 C231 1.429 1_655 S
C212 H236 0.950 . S
C213 C230 1.574 . S
C213 C232 1.368 . S
C213 H237 0.949 . S
H214 C218 0.945 1_655 S
C215 C216 1.349 . S
C215 C217 1.327 . S
C215 H238 0.950 . S
C216 C215 1.349 . S
C216 C228 1.349 . S
C217 C215 1.327 . S
C217 C233 1.429 . S
C217 H239 0.950 . S
C218 H214 0.945 1_455 S
C218 C226 1.574 . S
C218 C234 1.368 . S
H219 C227 0.950 . S
H220 C225 0.950 . S
H221 C226 0.949 1_655 S
H222 C228 0.950 . S
H223 C229 0.950 . S
H224 C230 0.949 . S
C225 H220 0.950 . S
C225 C227 1.327 . S
C225 C231 1.429 . S
C226 C218 1.574 . S
C226 H221 0.949 1_455 S
C226 C232 1.368 . S
C227 C211 1.349 . S
C227 H219 0.950 . S
C227 C225 1.327 . S
C228 C216 1.349 . S
C228 H222 0.950 . S
C228 C229 1.327 . S
C229 H223 0.950 . S
C229 C228 1.327 . S
C229 C233 1.429 . S
C230 C213 1.574 . S
C230 H224 0.949 . S
C230 C234 1.368 . S
C231 C212 1.429 1_455 S
C231 C225 1.429 . S
C231 C232 1.523 . S
C232 C213 1.368 . S
C232 C226 1.368 . S
C232 C231 1.523 . S
C233 C217 1.429 . S
C233 C229 1.429 . S
C233 C234 1.523 . S
C234 C218 1.368 . S
C234 C230 1.368 . S
C234 C233 1.523 . S
H235 C210 0.950 . S
H236 C212 0.950 . S
H237 C213 0.949 . S
H238 C215 0.950 . S
H239 C217 0.950 . S
C240 C241 1.349 1_545 S
C240 C242 1.327 . S
C240 H265 0.950 . S
C241 C240 1.349 1_565 S
C241 C257 1.349 . S
C242 C240 1.327 . S
C242 C261 1.429 1_545 S
C242 H266 0.950 . S
C243 C260 1.574 . S
C243 C262 1.368 . S
C243 H267 0.949 . S
H244 C248 0.949 . S
C245 C246 1.349 . S
C245 C247 1.327 . S
C245 H268 0.950 . S
C246 C245 1.349 . S
C246 C258 1.349 1_565 S
C247 C245 1.327 . S
C247 C263 1.429 . S
C247 H269 0.950 . S
C248 H244 0.949 . S
C248 C256 1.574 . S
C248 C264 1.368 1_545 S
H249 C257 0.950 . S
H250 C255 0.950 . S
H251 C256 0.949 . S
H252 C258 0.950 . S
H253 C259 0.950 . S
H254 C260 0.949 . S
C255 H250 0.950 . S
C255 C257 1.327 . S
C255 C261 1.429 . S
C256 C248 1.574 . S
C256 H251 0.949 . S
C256 C262 1.368 1_545 S
C257 C241 1.349 . S
C257 H249 0.950 . S
C257 C255 1.327 . S
C258 C246 1.349 1_545 S
C258 H252 0.950 . S
C258 C259 1.327 . S
C259 H253 0.950 . S
C259 C258 1.327 . S
C259 C263 1.429 1_545 S
C260 C243 1.574 . S
C260 H254 0.949 . S
C260 C264 1.368 . S
C261 C242 1.429 1_565 S
C261 C255 1.429 . S
C261 C262 1.523 . S
C262 C243 1.368 . S
C262 C256 1.368 1_565 S
C262 C261 1.523 . S
C263 C247 1.429 . S
C263 C259 1.429 1_565 S
C263 C264 1.523 . S
C264 C248 1.368 1_565 S
C264 C260 1.368 . S
C264 C263 1.523 . S
H265 C240 0.950 . S
H266 C242 0.950 . S
H267 C243 0.949 . S
H268 C245 0.950 . S
H269 C247 0.950 . S
C270 C271 1.349 . S
C270 C272 1.327 . S
C270 H295 0.950 . S
C271 C270 1.349 . S
C271 C287 1.349 1_455 S
C272 C270 1.327 . S
C272 C291 1.429 . S
C272 H296 0.950 . S
C273 C290 1.574 . S
C273 C292 1.368 1_655 S
C273 H297 0.949 . S
H274 C278 0.949 . S
C275 C276 1.349 . S
C275 C277 1.325 1_455 S
C275 H298 0.950 1_455 S
C276 C275 1.349 . S
C276 C288 1.349 . S
C277 C275 1.325 1_655 S
C277 C293 1.416 1_655 S
C277 H299 0.965 . S
C278 H274 0.949 . S
C278 C286 1.574 . S
C278 C294 1.368 . S
H279 C287 0.950 . S
H280 C285 0.950 . S
H281 C286 0.949 . S
H282 C288 0.950 . S
H283 C289 0.950 . S
H284 C290 0.949 . S
C285 H280 0.950 . S
C285 C287 1.327 . S
C285 C291 1.429 1_655 S
C286 C278 1.574 . S
C286 H281 0.949 . S
C286 C292 1.368 . S
C287 C271 1.349 1_655 S
C287 H279 0.950 . S
C287 C285 1.327 . S
C288 C276 1.349 . S
C288 H282 0.950 . S
C288 C289 1.327 . S
C289 H283 0.950 . S
C289 C288 1.327 . S
C289 C293 1.429 . S
C290 C273 1.574 . S
C290 H284 0.949 . S
C290 C294 1.368 1_655 S
C291 C272 1.429 . S
C291 C285 1.429 1_455 S
C291 C292 1.523 . S
C292 C273 1.368 1_455 S
C292 C286 1.368 . S
C292 C291 1.523 . S
C293 C277 1.416 1_455 S
C293 C289 1.429 . S
C293 C294 1.523 . S
C294 C278 1.368 . S
C294 C290 1.368 1_455 S
C294 C293 1.523 . S
H295 C270 0.950 . S
H296 C272 0.950 . S
H297 C273 0.949 . S
H298 C275 0.950 1_655 S
H299 C277 0.965 . S
C300 C301 1.349 . S
C300 C302 1.327 . S
C300 H325 0.950 . S
C301 C300 1.349 . S
C301 C317 1.349 1_545 S
C302 C300 1.327 . S
C302 C321 1.429 . S
C302 H326 0.950 . S
C303 C320 1.574 . S
C303 C322 1.368 1_565 S
C303 H327 0.949 . S
H304 C308 0.949 . S
C305 C306 1.349 1_565 S
C305 C307 1.327 . S
C305 H328 0.950 . S
C306 C305 1.349 1_545 S
C306 C318 1.349 . S
C307 C305 1.327 . S
C307 C323 1.429 1_565 S
C307 H329 0.950 . S
C308 H304 0.949 . S
C308 C316 1.574 . S
C308 C324 1.368 . S
H309 C317 0.950 . S
H310 C315 0.950 . S
H311 C316 0.949 . S
H312 C318 0.950 . S
H313 C319 0.950 . S
H314 C320 0.949 . S
C315 H310 0.950 . S
C315 C317 1.327 . S
C315 C321 1.429 1_565 S
C316 C308 1.574 . S
C316 H311 0.949 . S
C316 C322 1.368 . S
C317 C301 1.349 1_565 S
C317 H309 0.950 . S
C317 C315 1.327 . S
C318 C306 1.349 . S
C318 H312 0.950 . S
C318 C319 1.327 . S
C319 H313 0.950 . S
C319 C318 1.327 . S
C319 C323 1.429 . S
C320 C303 1.574 . S
C320 H314 0.949 . S
C320 C324 1.368 1_565 S
C321 C302 1.429 . S
C321 C315 1.429 1_545 S
C321 C322 1.523 . S
C322 C303 1.368 1_545 S
C322 C316 1.368 . S
C322 C321 1.523 . S
C323 C307 1.429 1_545 S
C323 C319 1.429 . S
C323 C324 1.523 . S
C324 C308 1.368 . S
C324 C320 1.368 1_545 S
C324 C323 1.523 . S
H325 C300 0.950 . S
H326 C302 0.950 . S
H327 C303 0.949 . S
H328 C305 0.950 . S
H329 C307 0.950 . S
C330 C331 1.349 1_455 S
C330 C332 1.327 1_455 S
C330 H355 0.950 . S
C331 C330 1.349 1_655 S
C331 C347 1.349 . S
C332 C330 1.327 1_655 S
C332 C351 1.429 . S
C332 H356 0.950 1_655 S
C333 C350 1.574 . S
C333 C352 1.368 . S
C333 H357 0.949 . S
H334 C338 0.949 . S
C335 C336 1.349 . S
C335 C337 1.327 . S
C335 H358 0.950 . S
C336 C335 1.349 . S
C336 C348 1.349 . S
C337 C335 1.327 . S
C337 C353 1.429 . S
C337 H359 0.950 . S
C338 H334 0.949 . S
C338 C346 1.574 . S
C338 C354 1.368 . S
H339 C347 0.950 . S
H340 C345 0.950 . S
H341 C346 0.949 . S
H342 C348 0.950 . S
H343 C349 0.950 . S
H344 C350 0.949 . S
C345 H340 0.950 . S
C345 C347 1.327 . S
C345 C351 1.429 . S
C346 C338 1.574 . S
C346 H341 0.949 . S
C346 C352 1.368 . S
C347 C331 1.349 . S
C347 H339 0.950 . S
C347 C345 1.327 . S
C348 C336 1.349 . S
C348 H342 0.950 . S
C348 C349 1.327 . S
C349 H343 0.950 . S
C349 C348 1.327 . S
C349 C353 1.429 . S
C350 C333 1.574 . S
C350 H344 0.949 . S
C350 C354 1.368 . S
C351 C332 1.429 . S
C351 C345 1.429 . S
C351 C352 1.523 . S
C352 C333 1.368 . S
C352 C346 1.368 . S
C352 C351 1.523 . S
C353 C337 1.429 . S
C353 C349 1.429 . S
C353 C354 1.523 . S
C354 C338 1.368 . S
C354 C350 1.368 . S
C354 C353 1.523 . S
H355 C330 0.950 . S
H356 C332 0.950 1_455 S
H357 C333 0.949 . S
H358 C335 0.950 . S
H359 C337 0.950 . S
C126 C101 1.605 . S
C121 C15 1.599 . S
C156 C112 1.536 . S
C151 C68 1.596 . S
C186 C100 1.605 . S
C181 C8 1.606 1_565 S
C216 C113 1.536 . S
C211 C47 1.599 1_455 S
C246 C115 1.605 . S
C241 C22 1.606 . S
C276 C99 1.536 . S
C271 C61 1.596 . S
C306 C114 1.605 . S
C301 C1 1.612 1_545 S
C331 C54 1.599 1_655 S
C336 C98 1.537 . S
