# Generated by pormake.
# Topology ssa, (4,4)-cn, num edge types: 1
# Building blocks:
#     Node 0, Type 0, BuildingBlock: NAWXER_clean_sbu_0, # of connection points: 4
#     Node 1, Type 0, BuildingBlock: NAWXER_clean_sbu_0, # of connection points: 4
#     Node 2, Type 0, BuildingBlock: NAWXER_clean_sbu_0, # of connection points: 4
#     Node 3, Type 0, BuildingBlock: NAWXER_clean_sbu_0, # of connection points: 4
#     Node 4, Type 0, BuildingBlock: NAWXER_clean_sbu_0, # of connection points: 4
#     Node 5, Type 0, BuildingBlock: NAWXER_clean_sbu_0, # of connection points: 4
#     Node 6, Type 1, BuildingBlock: AZAVOO_clean_linker_0, # of connection points: 4
#     Node 7, Type 1, BuildingBlock: AZAVOO_clean_linker_0, # of connection points: 4
#     Node 8, Type 1, BuildingBlock: AZAVOO_clean_linker_0, # of connection points: 4
#     Node 9, Type 1, BuildingBlock: AZAVOO_clean_linker_0, # of connection points: 4
#     Node 10, Type 1, BuildingBlock: AZAVOO_clean_linker_0, # of connection points: 4
#     Node 11, Type 1, BuildingBlock: AZAVOO_clean_linker_0, # of connection points: 4
#     Edge 12, Type (0, 1), BuildingBlock: XIVTED_clean_linker_0, # of connection points: 2
#     Edge 13, Type (0, 1), BuildingBlock: XIVTED_clean_linker_0, # of connection points: 2
#     Edge 14, Type (0, 1), BuildingBlock: XIVTED_clean_linker_0, # of connection points: 2
#     Edge 15, Type (0, 1), BuildingBlock: XIVTED_clean_linker_0, # of connection points: 2
#     Edge 16, Type (0, 1), BuildingBlock: XIVTED_clean_linker_0, # of connection points: 2
#     Edge 17, Type (0, 1), BuildingBlock: XIVTED_clean_linker_0, # of connection points: 2
#     Edge 18, Type (0, 1), BuildingBlock: XIVTED_clean_linker_0, # of connection points: 2
#     Edge 19, Type (0, 1), BuildingBlock: XIVTED_clean_linker_0, # of connection points: 2
#     Edge 20, Type (0, 1), BuildingBlock: XIVTED_clean_linker_0, # of connection points: 2
#     Edge 21, Type (0, 1), BuildingBlock: XIVTED_clean_linker_0, # of connection points: 2
#     Edge 22, Type (0, 1), BuildingBlock: XIVTED_clean_linker_0, # of connection points: 2
#     Edge 23, Type (0, 1), BuildingBlock: XIVTED_clean_linker_0, # of connection points: 2
#     Edge 24, Type (0, 1), BuildingBlock: XIVTED_clean_linker_0, # of connection points: 2
#     Edge 25, Type (0, 1), BuildingBlock: XIVTED_clean_linker_0, # of connection points: 2
#     Edge 26, Type (0, 1), BuildingBlock: XIVTED_clean_linker_0, # of connection points: 2
#     Edge 27, Type (0, 1), BuildingBlock: XIVTED_clean_linker_0, # of connection points: 2
#     Edge 28, Type (0, 1), BuildingBlock: XIVTED_clean_linker_0, # of connection points: 2
#     Edge 29, Type (0, 1), BuildingBlock: XIVTED_clean_linker_0, # of connection points: 2
#     Edge 30, Type (0, 1), BuildingBlock: XIVTED_clean_linker_0, # of connection points: 2
#     Edge 31, Type (0, 1), BuildingBlock: XIVTED_clean_linker_0, # of connection points: 2
#     Edge 32, Type (0, 1), BuildingBlock: XIVTED_clean_linker_0, # of connection points: 2
#     Edge 33, Type (0, 1), BuildingBlock: XIVTED_clean_linker_0, # of connection points: 2
#     Edge 34, Type (0, 1), BuildingBlock: XIVTED_clean_linker_0, # of connection points: 2
#     Edge 35, Type (0, 1), BuildingBlock: XIVTED_clean_linker_0, # of connection points: 2
# Relax obj value: 0.084
# Max RMSD: 0.234
# Mean RMSD: 0.129
data_MOF--net-ssa--node1-NAWXER_clean_sbu_0--node2-AZAVOO_clean_linker_0--edge1-XIVTED_clean_linker_0
_symmetry_space_group_name_H-M    P1
_symmetry_Int_Tables_number       1
_symmetry_cell_setting            triclinic
loop_
_symmetry_equiv_pos_as_xyz
'x, y, z'
_cell_length_a     48.828389
_cell_length_b     49.202509
_cell_length_c     46.188046
_cell_angle_alpha  89.953152
_cell_angle_beta   92.751412
_cell_angle_gamma 120.18904
loop_
_atom_site_label
_atom_site_type_symbol
_atom_site_fract_x
_atom_site_fract_y
_atom_site_fract_z
_atom_type_partial_charge
C0 C 0.1654 0.58917 0.03365 0.0
C1 C 0.13036 0.51493 0.95132 0.0
O2 O 0.14218 0.56184 0.03872 0.0
Zn3 Zn 0.11199 0.51814 0.01643 0.0
O4 O 0.17608 0.59505 0.00844 0.0
Zn5 Zn 0.14774 0.55326 0.99124 0.0
O6 O 0.10265 0.55106 0.98798 0.0
O7 O 0.07098 0.51432 0.01735 0.0
O8 O 0.15241 0.54355 0.95152 0.0
O9 O 0.11414 0.50346 0.97365 0.0
O10 O 0.1192 0.48943 0.03853 0.0
O11 O 0.16137 0.52413 0.01602 0.0
C12 C 0.07568 0.53547 -0.00071 0.0
C13 C 0.14802 0.50055 0.03269 0.0
C14 C 0.54815 0.02953 0.59727 0.0
C15 C 0.58295 0.96639 0.54761 0.0
O16 O 0.54125 0.0014 0.60177 0.0
Zn17 Zn 0.56539 0.99795 0.57195 0.0
O18 O 0.5669 0.04488 0.57725 0.0
Zn19 Zn 0.59293 0.03616 0.54564 0.0
O20 O 0.57582 0.04142 0.50902 0.0
O21 O 0.54118 0.00049 0.53274 0.0
O22 O 0.59578 0.99443 0.5381 0.0
O23 O 0.56284 0.95792 0.56697 0.0
O24 O 0.61422 0.02857 0.58777 0.0
O25 O 0.63615 0.06656 0.55638 0.0
C26 C 0.54799 0.01809 0.51062 0.0
C27 C 0.63848 0.05379 0.57955 0.0
C28 C 0.58928 0.47339 0.06917 0.0
C29 C 0.64649 0.5561 0.14336 0.0
O30 O 0.58559 0.49723 0.0658 0.0
Zn31 Zn 0.59992 0.54138 0.08682 0.0
O32 O 0.60575 0.47263 0.09103 0.0
Zn33 Zn 0.61717 0.51357 0.10734 0.0
O34 O 0.57259 0.50523 0.1214 0.0
O35 O 0.56013 0.53703 0.09823 0.0
O36 O 0.6443 0.52926 0.14256 0.0
O37 O 0.63146 0.56305 0.12402 0.0
O38 O 0.62245 0.56962 0.05637 0.0
O39 O 0.6462 0.54463 0.07443 0.0
C40 C 0.55339 0.5155 0.11648 0.0
C41 C 0.64538 0.56426 0.05657 0.0
C42 C 0.09529 0.54084 0.52546 0.0
C43 C 0.05367 0.44558 0.58174 0.0
O44 O 0.11027 0.53445 0.545 0.0
Zn45 Zn 0.07552 0.49345 0.55435 0.0
O46 O 0.06607 0.52097 0.51889 0.0
Zn47 Zn 0.03022 0.47587 0.53123 0.0
O48 O 0.99902 0.48486 0.54666 0.0
O49 O 0.04339 0.50416 0.57411 0.0
O50 O 0.03324 0.44577 0.56332 0.0
O51 O 0.08175 0.46909 0.58404 0.0
O52 O 0.06798 0.46507 0.5166 0.0
O53 O 0.02092 0.45085 0.49556 0.0
C54 C 0.01536 0.49981 0.56949 0.0
C55 C 0.0467 0.45026 0.49624 0.0
C56 C 0.63521 0.03697 0.1199 0.0
C57 C 0.58428 0.08728 0.06685 0.0
O58 O 0.6385 0.06376 0.12582 0.0
Zn59 Zn 0.61035 0.06293 0.09424 0.0
O60 O 0.61651 0.02026 0.09851 0.0
Zn61 Zn 0.58574 0.023 0.06532 0.0
O62 O 0.60462 0.02043 0.03052 0.0
O63 O 0.63561 0.06317 0.05742 0.0
O64 O 0.57595 0.05977 0.0569 0.0
O65 O 0.60441 0.09894 0.08827 0.0
O66 O 0.56513 0.02645 0.10758 0.0
O67 O 0.54467 0.98864 0.07375 0.0
C68 C 0.63101 0.04574 0.03499 0.0
C69 C 0.54262 -0.00041 0.09794 0.0
C70 C 0.59662 0.51503 0.59433 0.0
C71 C 0.51159 0.46535 0.51967 0.0
O72 O 0.57476 0.52184 0.59696 0.0
Zn73 Zn 0.53038 0.51078 0.57629 0.0
O74 O 0.59391 0.49609 0.5742 0.0
Zn75 Zn 0.55347 0.48818 0.55756 0.0
O76 O 0.56484 0.53294 0.5404 0.0
O77 O 0.53951 0.55211 0.56381 0.0
O78 O 0.53476 0.46063 0.52386 0.0
O79 O 0.50758 0.48291 0.53747 0.0
O80 O 0.50098 0.48946 0.60679 0.0
O81 O 0.522 0.46242 0.59016 0.0
C82 C 0.55826 0.55478 0.54433 0.0
C83 C 0.50366 0.46506 0.6074 0.0
H84 H 0.24033 0.38204 0.48293 0.0
H85 H 0.06616 0.35695 0.197 0.0
H86 H 0.30657 0.4362 0.34258 0.0
H87 H 0.35396 0.44632 0.37143 0.0
H88 H 0.34611 0.36121 0.33602 0.0
H89 H 0.29787 0.35096 0.30726 0.0
H90 H 0.24426 0.42032 0.36259 0.0
H91 H 0.24288 0.41251 0.41492 0.0
H92 H 0.23821 0.32333 0.40097 0.0
H93 H 0.23924 0.33129 0.34862 0.0
H94 H 0.20332 0.42734 0.31023 0.0
H95 H 0.16248 0.42771 0.33833 0.0
H96 H 0.13062 0.33206 0.36305 0.0
H97 H 0.17149 0.33171 0.33427 0.0
H98 H 0.21696 0.43471 0.24867 0.0
H99 H 0.17258 0.43454 0.22158 0.0
H100 H 0.11356 0.33525 0.23694 0.0
H101 H 0.15828 0.33565 0.26364 0.0
H102 H 0.28658 0.44637 0.23539 0.0
H103 H 0.28547 0.46175 0.18585 0.0
H104 H 0.2031 0.37011 0.16551 0.0
H105 H 0.20807 0.35349 0.21399 0.0
H106 H 0.32667 0.44853 0.28356 0.0
H107 H 0.37458 0.46847 0.25644 0.0
H108 H 0.33202 0.38075 0.20721 0.0
H109 H 0.28407 0.36078 0.23474 0.0
O110 O 0.2407 0.38457 0.46214 0.0
O111 O 0.23843 0.33896 0.45381 0.0
O112 O 0.11554 0.40865 0.20005 0.0
O113 O 0.08412 0.35766 0.20754 0.0
C114 C 0.27009 0.38745 0.30574 0.0
C115 C 0.24254 0.38101 0.32003 0.0
C116 C 0.2168 0.38067 0.30435 0.0
C117 C 0.218 0.38516 0.27412 0.0
C118 C 0.2454 0.39108 0.25969 0.0
C119 C 0.2717 0.39276 0.27565 0.0
C120 C 0.29876 0.39278 0.32305 0.0
C121 C 0.31499 0.41967 0.34112 0.0
C122 C 0.34225 0.42556 0.35731 0.0
C123 C 0.35394 0.40472 0.35569 0.0
C124 C 0.33756 0.37762 0.33765 0.0
C125 C 0.31018 0.37178 0.32125 0.0
C126 C 0.2415 0.37621 0.35182 0.0
C127 C 0.24266 0.399 0.37087 0.0
C128 C 0.242 0.39453 0.40076 0.0
C129 C 0.24037 0.36726 0.41213 0.0
C130 C 0.23941 0.34456 0.39293 0.0
C131 C 0.23999 0.34904 0.36304 0.0
C132 C 0.19029 0.37945 0.32004 0.0
C133 C 0.18709 0.4062 0.32117 0.0
C134 C 0.16367 0.40634 0.33718 0.0
C135 C 0.1432 0.37985 0.35277 0.0
C136 C 0.14611 0.35284 0.3513 0.0
C137 C 0.16938 0.35258 0.33491 0.0
C138 C 0.19091 0.38512 0.25787 0.0
C139 C 0.19448 0.41291 0.24599 0.0
C140 C 0.16907 0.41276 0.23062 0.0
C141 C 0.13952 0.38485 0.22704 0.0
C142 C 0.13599 0.35713 0.23923 0.0
C143 C 0.16146 0.35728 0.25452 0.0
C144 C 0.24746 0.39873 0.22844 0.0
C145 C 0.2694 0.42905 0.21983 0.0
C146 C 0.26807 0.43811 0.19148 0.0
C147 C 0.2434 0.41776 0.17154 0.0
C148 C 0.22264 0.38667 0.17981 0.0
C149 C 0.22511 0.37711 0.20781 0.0
C150 C 0.30195 0.40309 0.2613 0.0
C151 C 0.32793 0.43334 0.26737 0.0
C152 C 0.35509 0.44486 0.25159 0.0
C153 C 0.35693 0.42627 0.22954 0.0
C154 C 0.33132 0.39554 0.22417 0.0
C155 C 0.30397 0.3841 0.23984 0.0
C156 C 0.23977 0.36263 0.44391 0.0
C157 C 0.11244 0.38457 0.21072 0.0
H158 H 0.92422 0.2613 0.00146 0.0
H159 H 0.73721 0.0014 0.77455 0.0
H160 H 0.92171 0.2746 0.845 0.0
H161 H 0.96553 0.32774 0.85645 0.0
H162 H 0.03222 0.29952 0.83215 0.0
H163 H 0.98799 0.24599 0.82133 0.0
H164 H 0.87468 0.22486 0.88136 0.0
H165 H 0.88807 0.24174 0.9324 0.0
H166 H 0.96754 0.22597 0.93128 0.0
H167 H 0.95365 0.20882 0.88029 0.0
H168 H 0.81993 0.17232 0.84042 0.0
H169 H 0.77846 0.14248 0.87385 0.0
H170 H 0.83881 0.11328 0.9184 0.0
H171 H 0.88027 0.14268 0.88399 0.0
H172 H 0.81458 0.15829 0.78176 0.0
H173 H 0.76723 0.10855 0.7667 0.0
H174 H 0.81135 0.05788 0.80294 0.0
H175 H 0.85885 0.10789 0.81739 0.0
H176 H 0.86624 0.21579 0.75236 0.0
H177 H 0.83358 0.19481 0.7076 0.0
H178 H 0.85032 0.11655 0.70867 0.0
H179 H 0.88397 0.13834 0.75337 0.0
H180 H 0.91406 0.26712 0.77974 0.0
H181 H 0.94217 0.30366 0.74146 0.0
H182 H 0.98824 0.25097 0.72212 0.0
H183 H 0.95938 0.21385 0.76036 0.0
O184 O 0.9193 0.25445 0.98129 0.0
O185 O 0.95991 0.24608 0.97955 0.0
O186 O 0.7343 0.04863 0.76149 0.0
O187 O 0.75564 0.02142 0.7803 0.0
C188 C 0.92468 0.2246 0.82471 0.0
C189 C 0.90495 0.20513 0.84626 0.0
C190 C 0.87697 0.17669 0.83808 0.0
C191 C 0.86959 0.16696 0.8086 0.0
C192 C 0.8891 0.18659 0.78701 0.0
C193 C 0.9165 0.21548 0.79513 0.0
C194 C 0.95173 0.25639 0.83273 0.0
C195 C 0.94581 0.27983 0.84244 0.0
C196 C 0.97085 0.31028 0.84854 0.0
C197 C 0.00237 0.31793 0.84497 0.0
C198 C 0.00823 0.29432 0.83526 0.0
C199 C 0.98307 0.26379 0.82909 0.0
C200 C 0.91301 0.21531 0.87725 0.0
C201 C 0.89481 0.22483 0.89225 0.0
C202 C 0.90259 0.23458 0.92137 0.0
C203 C 0.92884 0.23514 0.93595 0.0
C204 C 0.94713 0.22576 0.92073 0.0
C205 C 0.93928 0.21596 0.89162 0.0
C206 C 0.85288 0.15926 0.85954 0.0
C207 C 0.8241 0.15918 0.85716 0.0
C208 C 0.80045 0.1421 0.87619 0.0
C209 C 0.80534 0.12526 0.89836 0.0
C210 C 0.83451 0.12598 0.90132 0.0
C211 C 0.85811 0.14273 0.88182 0.0
C212 C 0.84031 0.13669 0.8003 0.0
C213 C 0.81406 0.13644 0.78623 0.0
C214 C 0.78699 0.10798 0.77777 0.0
C215 C 0.78555 0.07922 0.78352 0.0
C216 C 0.81171 0.07959 0.79808 0.0
C217 C 0.83885 0.1081 0.80641 0.0
C218 C 0.8777 0.17875 0.75608 0.0
C219 C 0.86437 0.19508 0.74216 0.0
C220 C 0.84545 0.18287 0.71664 0.0
C221 C 0.83914 0.15386 0.70482 0.0
C222 C 0.85461 0.13882 0.71748 0.0
C223 C 0.874 0.15135 0.74283 0.0
C224 C 0.93463 0.23786 0.77259 0.0
C225 C 0.93029 0.26353 0.76731 0.0
C226 C 0.94627 0.28427 0.74553 0.0
C227 C 0.96719 0.27991 0.72898 0.0
C228 C 0.97227 0.25472 0.73478 0.0
C229 C 0.95578 0.23357 0.75637 0.0
C230 C 0.93705 0.24552 0.96689 0.0
C231 C 0.75691 0.04892 0.77441 0.0
H232 H 0.74477 0.78931 0.14999 0.0
H233 H 0.70028 0.0068 0.36789 0.0
H234 H 0.65347 0.74575 0.30116 0.0
H235 H 0.65574 0.70071 0.28238 0.0
H236 H 0.75781 0.75244 0.29547 0.0
H237 H 0.75519 0.79719 0.31588 0.0
H238 H 0.67792 0.78615 0.2528 0.0
H239 H 0.69729 0.78035 0.20666 0.0
H240 H 0.7911 0.85656 0.23284 0.0
H241 H 0.77148 0.86179 0.2791 0.0
H242 H 0.66998 0.84097 0.25627 0.0
H243 H 0.66944 0.87792 0.22132 0.0
H244 H 0.75377 0.95355 0.26493 0.0
H245 H 0.75471 0.91597 0.29952 0.0
H246 H 0.64521 0.85955 0.31942 0.0
H247 H 0.63657 0.90369 0.32824 0.0
H248 H 0.73313 0.95896 0.36395 0.0
H249 H 0.74138 0.91463 0.35496 0.0
H250 H 0.62939 0.80147 0.36817 0.0
H251 H 0.60845 0.8111 0.41137 0.0
H252 H 0.70304 0.8858 0.43834 0.0
H253 H 0.72384 0.87344 0.39676 0.0
H254 H 0.63314 0.75395 0.34294 0.0
H255 H 0.61141 0.71165 0.3777 0.0
H256 H 0.69918 0.75925 0.43018 0.0
H257 H 0.72136 0.80117 0.39445 0.0
O258 O 0.7376 0.79205 0.16838 0.0
O259 O 0.7853 0.83161 0.1827 0.0
O260 O 0.65357 0.95957 0.34567 0.0
O261 O 0.70301 0.98897 0.36422 0.0
C262 C 0.70274 0.80308 0.31821 0.0
C263 C 0.71185 0.82716 0.29772 0.0
C264 C 0.7092 0.85383 0.30382 0.0
C265 C 0.69894 0.85719 0.33095 0.0
C266 C 0.69029 0.83344 0.35158 0.0
C267 C 0.69141 0.80602 0.34496 0.0
C268 C 0.70404 0.77441 0.31082 0.0
C269 C 0.67617 0.74685 0.3015 0.0
C270 C 0.67755 0.72122 0.2905 0.0
C271 C 0.70693 0.72302 0.28779 0.0
C272 C 0.73486 0.75041 0.2976 0.0
C273 C 0.73338 0.77586 0.30928 0.0
C274 C 0.7234 0.82414 0.2694 0.0
C275 C 0.7027 0.80141 0.2486 0.0
C276 C 0.7138 0.79823 0.22222 0.0
C277 C 0.74578 0.81792 0.21609 0.0
C278 C 0.76636 0.84096 0.2369 0.0
C279 C 0.75522 0.84404 0.2633 0.0
C280 C 0.71233 0.87579 0.28045 0.0
C281 C 0.68886 0.86533 0.25782 0.0
C282 C 0.68857 0.88649 0.23792 0.0
C283 C 0.71153 0.91862 0.2405 0.0
C284 C 0.73568 0.92894 0.26262 0.0
C285 C 0.73627 0.90757 0.28229 0.0
C286 C 0.69389 0.884 0.33657 0.0
C287 C 0.66441 0.88123 0.32917 0.0
C288 C 0.65957 0.90646 0.33422 0.0
C289 C 0.68419 0.93488 0.3468 0.0
C290 C 0.71369 0.93745 0.35423 0.0
C291 C 0.71848 0.91219 0.34915 0.0
C292 C 0.67813 0.83675 0.37939 0.0
C293 C 0.64565 0.81912 0.38402 0.0
C294 C 0.63367 0.82512 0.40854 0.0
C295 C 0.65382 0.84966 0.42838 0.0
C296 C 0.68663 0.86639 0.42405 0.0
C297 C 0.69866 0.85968 0.40002 0.0
C298 C 0.67921 0.77996 0.36563 0.0
C299 C 0.64805 0.75478 0.36144 0.0
C300 C 0.63556 0.73088 0.38146 0.0
C301 C 0.65374 0.73217 0.40645 0.0
C302 C 0.68475 0.75779 0.41103 0.0
C303 C 0.69747 0.78149 0.39063 0.0
C304 C 0.75753 0.81438 0.1881 0.0
C305 C 0.6792 0.96179 0.35215 0.0
H306 H 0.80343 0.60807 0.63172 0.0
H307 H 0.02986 0.57609 0.87988 0.0
H308 H 0.82734 0.64808 0.78879 0.0
H309 H 0.78193 0.63648 0.75539 0.0
H310 H 0.74523 0.53703 0.76603 0.0
H311 H 0.79092 0.54873 0.79827 0.0
H312 H 0.86762 0.64844 0.74687 0.0
H313 H 0.84477 0.641 0.69717 0.0
H314 H 0.80935 0.54106 0.70204 0.0
H315 H 0.83219 0.54886 0.75179 0.0
H316 H 0.92356 0.63874 0.74643 0.0
H317 H 0.94506 0.62302 0.70682 0.0
H318 H 0.91535 0.53402 0.74734 0.0
H319 H 0.893 0.54928 0.78607 0.0
H320 H 0.96187 0.6513 0.81686 0.0
H321 H 0.00999 0.65047 0.83295 0.0
H322 H 0.95224 0.55492 0.86065 0.0
H323 H 0.90441 0.55608 0.84455 0.0
H324 H 0.93196 0.64945 0.87831 0.0
H325 H 0.95489 0.63545 0.91993 0.0
H326 H 0.87237 0.54232 0.91751 0.0
H327 H 0.8498 0.55626 0.87577 0.0
H328 H 0.86708 0.65539 0.87246 0.0
H329 H 0.83432 0.65633 0.91084 0.0
H330 H 0.76226 0.56101 0.88699 0.0
H331 H 0.79558 0.55965 0.84986 0.0
O332 O 0.81297 0.61059 0.6511 0.0
O333 O 0.79557 0.55943 0.65461 0.0
O334 O 0.04017 0.62494 0.8557 0.0
O335 O 0.01132 0.57682 0.8726 0.0
C336 C 0.84408 0.60489 0.80536 0.0
C337 C 0.863 0.60343 0.78381 0.0
C338 C 0.89094 0.60295 0.7918 0.0
C339 C 0.90061 0.60515 0.82141 0.0
C340 C 0.88188 0.60709 0.84303 0.0
C341 C 0.85353 0.60694 0.83501 0.0
C342 C 0.81224 0.59924 0.79606 0.0
C343 C 0.80864 0.62388 0.78502 0.0
C344 C 0.78286 0.61721 0.76581 0.0
C345 C 0.76061 0.58586 0.7577 0.0
C346 C 0.76243 0.56139 0.77155 0.0
C347 C 0.78816 0.56803 0.79045 0.0
C348 C 0.85155 0.5992 0.75283 0.0
C349 C 0.85516 0.62502 0.73703 0.0
C350 C 0.842 0.62068 0.7087 0.0
C351 C 0.82512 0.59041 0.69567 0.0
C352 C 0.82218 0.56467 0.71143 0.0
C353 C 0.8353 0.56905 0.73977 0.0
C354 C 0.90716 0.59536 0.7694 0.0
C355 C 0.92194 0.61596 0.74681 0.0
C356 C 0.93399 0.60691 0.72418 0.0
C357 C 0.9319 0.57735 0.72412 0.0
C358 C 0.91761 0.55708 0.74704 0.0
C359 C 0.90507 0.56587 0.76929 0.0
C360 C 0.92971 0.6039 0.82983 0.0
C361 C 0.95971 0.6302 0.82632 0.0
C362 C 0.98712 0.62966 0.83557 0.0
C363 C 0.98492 0.60271 0.84839 0.0
C364 C 0.95476 0.57615 0.85121 0.0
C365 C 0.92741 0.57674 0.842 0.0
C366 C 0.8895 0.60369 0.87379 0.0
C367 C 0.91813 0.62659 0.88773 0.0
C368 C 0.93115 0.61857 0.91153 0.0
C369 C 0.91555 0.58764 0.9215 0.0
C370 C 0.88488 0.56623 0.91002 0.0
C371 C 0.8719 0.57424 0.88629 0.0
C372 C 0.83334 0.60777 0.85772 0.0
C373 C 0.84416 0.63478 0.87547 0.0
C374 C 0.82552 0.63528 0.89734 0.0
C375 C 0.79559 0.60891 0.90149 0.0
C376 C 0.78492 0.58189 0.88379 0.0
C377 C 0.80382 0.58118 0.8624 0.0
C378 C 0.81034 0.58575 0.6659 0.0
C379 C 0.01387 0.60226 0.85902 0.0
H380 H 0.29384 0.8981 0.48407 0.0
H381 H 0.1283 0.60496 0.28659 0.0
H382 H 0.30279 0.89346 0.33225 0.0
H383 H 0.34756 0.93873 0.35805 0.0
H384 H 0.40687 0.89867 0.34358 0.0
H385 H 0.36202 0.85323 0.31894 0.0
H386 H 0.24615 0.84043 0.36833 0.0
H387 H 0.258 0.86508 0.41682 0.0
H388 H 0.34304 0.85843 0.42509 0.0
H389 H 0.33059 0.83331 0.37683 0.0
H390 H 0.19453 0.76927 0.34773 0.0
H391 H 0.16635 0.73296 0.38632 0.0
H392 H 0.25152 0.73049 0.41166 0.0
H393 H 0.27939 0.76719 0.37373 0.0
H394 H 0.194 0.76038 0.27441 0.0
H395 H 0.14951 0.70721 0.26363 0.0
H396 H 0.19987 0.66868 0.3116 0.0
H397 H 0.2443 0.72194 0.32191 0.0
H398 H 0.24626 0.80444 0.23121 0.0
H399 H 0.23418 0.77384 0.18559 0.0
H400 H 0.27093 0.71834 0.22549 0.0
H401 H 0.28261 0.74873 0.27077 0.0
H402 H 0.30026 0.87288 0.25499 0.0
H403 H 0.34047 0.90174 0.21943 0.0
H404 H 0.38107 0.84276 0.23697 0.0
H405 H 0.34052 0.8136 0.27179 0.0
O406 O 0.28937 0.88793 0.46512 0.0
O407 O 0.3332 0.88462 0.46798 0.0
O408 O 0.12074 0.64723 0.26595 0.0
O409 O 0.14555 0.62624 0.29052 0.0
C410 C 0.30059 0.83893 0.31651 0.0
C411 C 0.28097 0.82161 0.33908 0.0
C412 C 0.25571 0.79067 0.33353 0.0
C413 C 0.2492 0.77732 0.30523 0.0
C414 C 0.26914 0.79432 0.28282 0.0
C415 C 0.29492 0.825 0.2885 0.0
C416 C 0.32913 0.87006 0.32362 0.0
C417 C 0.32578 0.89508 0.33373 0.0
C418 C 0.35126 0.92078 0.34856 0.0
C419 C 0.38057 0.92206 0.35291 0.0
C420 C 0.38467 0.89849 0.34023 0.0
C421 C 0.35907 0.87256 0.32593 0.0
C422 C 0.28765 0.83538 0.369 0.0
C423 C 0.26721 0.84416 0.38075 0.0
C424 C 0.27409 0.85831 0.4084 0.0
C425 C 0.30156 0.86388 0.42477 0.0
C426 C 0.32175 0.85459 0.41303 0.0
C427 C 0.31474 0.8403 0.38546 0.0
C428 C 0.23893 0.77081 0.35807 0.0
C429 C 0.20707 0.76114 0.36195 0.0
C430 C 0.19104 0.74031 0.38387 0.0
C431 C 0.20666 0.72876 0.40208 0.0
C432 C 0.23888 0.7393 0.39846 0.0
C433 C 0.25484 0.76015 0.37669 0.0
C434 C 0.22218 0.74498 0.29916 0.0
C435 C 0.19531 0.7404 0.28259 0.0
C436 C 0.16997 0.71002 0.27648 0.0
C437 C 0.1711 0.68368 0.28684 0.0
C438 C 0.19817 0.68842 0.30337 0.0
C439 C 0.22353 0.71881 0.3094 0.0
C440 C 0.26489 0.77845 0.2543 0.0
C441 C 0.25205 0.78594 0.22986 0.0
C442 C 0.24532 0.76857 0.20386 0.0
C443 C 0.25129 0.74348 0.20211 0.0
C444 C 0.26557 0.73717 0.22633 0.0
C445 C 0.27232 0.75451 0.25216 0.0
C446 C 0.3177 0.84134 0.26591 0.0
C447 C 0.31763 0.86604 0.25081 0.0
C448 C 0.3404 0.88232 0.23057 0.0
C449 C 0.36372 0.87438 0.22571 0.0
C450 C 0.36333 0.84929 0.24052 0.0
C451 C 0.34026 0.83267 0.26027 0.0
C452 C 0.30909 0.8794 0.45393 0.0
C453 C 0.14423 0.65135 0.28041 0.0
H454 H 0.46196 0.27531 0.63667 0.0
H455 H 0.4627 0.03967 0.87213 0.0
H456 H 0.52312 0.30188 0.7972 0.0
H457 H 0.52112 0.34241 0.76814 0.0
H458 H 0.41961 0.2952 0.77416 0.0
H459 H 0.42167 0.25436 0.80336 0.0
H460 H 0.51107 0.26256 0.7507 0.0
H461 H 0.49988 0.27329 0.70115 0.0
H462 H 0.39984 0.20858 0.70991 0.0
H463 H 0.41143 0.19816 0.75954 0.0
H464 H 0.51961 0.21486 0.76168 0.0
H465 H 0.52543 0.18322 0.72459 0.0
H466 H 0.43291 0.105 0.74162 0.0
H467 H 0.42729 0.13721 0.77898 0.0
H468 H 0.52667 0.18433 0.81984 0.0
H469 H 0.53129 0.13841 0.83256 0.0
H470 H 0.43518 0.0915 0.8606 0.0
H471 H 0.43087 0.13751 0.84757 0.0
H472 H 0.53919 0.23338 0.87051 0.0
H473 H 0.55369 0.21831 0.91667 0.0
H474 H 0.455 0.16878 0.93741 0.0
H475 H 0.44077 0.18327 0.89068 0.0
H476 H 0.5342 0.2968 0.84814 0.0
H477 H 0.55013 0.33543 0.88797 0.0
H478 H 0.45976 0.27768 0.92538 0.0
H479 H 0.44339 0.23958 0.88464 0.0
O480 O 0.4659 0.27025 0.65612 0.0
O481 O 0.41489 0.23572 0.66121 0.0
O482 O 0.51073 0.08313 0.85195 0.0
O483 O 0.4615 0.05808 0.8668 0.0
C484 C 0.47286 0.24645 0.81127 0.0
C485 C 0.46861 0.22449 0.78924 0.0
C486 C 0.471 0.19784 0.79618 0.0
C487 C 0.4758 0.19208 0.82534 0.0
C488 C 0.48005 0.21393 0.8474 0.0
C489 C 0.47917 0.24143 0.84034 0.0
C490 C 0.47261 0.2754 0.80278 0.0
C491 C 0.50067 0.30114 0.79369 0.0
C492 C 0.49946 0.32409 0.77685 0.0
C493 C 0.47022 0.32178 0.76905 0.0
C494 C 0.44243 0.29759 0.78028 0.0
C495 C 0.44361 0.2744 0.79701 0.0
C496 C 0.46202 0.2297 0.75866 0.0
C497 C 0.48678 0.25067 0.74182 0.0
C498 C 0.48031 0.25675 0.71354 0.0
C499 C 0.44894 0.2419 0.7016 0.0
C500 C 0.42425 0.22047 0.71846 0.0
C501 C 0.43078 0.21441 0.74676 0.0
C502 C 0.47287 0.17845 0.77268 0.0
C503 C 0.50034 0.19109 0.75704 0.0
C504 C 0.50359 0.17297 0.73584 0.0
C505 C 0.47949 0.14169 0.72999 0.0
C506 C 0.45189 0.12901 0.74572 0.0
C507 C 0.44857 0.14733 0.76691 0.0
C508 C 0.47842 0.1641 0.83273 0.0
C509 C 0.50664 0.16404 0.82862 0.0
C510 C 0.50921 0.13782 0.83595 0.0
C511 C 0.48358 0.11126 0.8476 0.0
C512 C 0.45535 0.11152 0.85167 0.0
C513 C 0.45281 0.13774 0.84427 0.0
C514 C 0.48898 0.20935 0.87736 0.0
C515 C 0.52085 0.21985 0.88536 0.0
C516 C 0.52907 0.21133 0.91182 0.0
C517 C 0.50548 0.19214 0.93071 0.0
C518 C 0.47369 0.18318 0.92319 0.0
C519 C 0.46551 0.19161 0.89666 0.0
C520 C 0.48738 0.26581 0.86316 0.0
C521 C 0.51747 0.29294 0.86443 0.0
C522 C 0.52664 0.31478 0.8873 0.0
C523 C 0.50612 0.30943 0.90964 0.0
C524 C 0.47599 0.28219 0.90842 0.0
C525 C 0.46658 0.26061 0.88518 0.0
C526 C 0.44209 0.24898 0.67178 0.0
C527 C 0.48621 0.08339 0.85554 0.0
H528 H 0.21156 0.53105 0.04641 0.0
H529 H 0.21324 0.38565 0.11965 0.0
H530 H 0.12652 0.4402 0.04934 0.0
H531 H 0.25753 0.47843 0.16048 0.0
H532 H 0.1933 0.40484 0.07974 0.0
H533 H 0.24087 0.51027 0.07407 0.0
C534 C 0.19924 0.50659 0.05238 0.0
C535 C 0.16655 0.48736 0.04608 0.0
C536 C 0.20803 0.4209 0.09731 0.0
C537 C 0.19991 0.46354 0.07681 0.0
C538 C 0.21921 0.41001 0.12029 0.0
C539 C 0.23671 0.43009 0.14417 0.0
C540 C 0.21529 0.45227 0.09774 0.0
C541 C 0.24459 0.46181 0.1428 0.0
C542 C 0.21594 0.49484 0.06807 0.0
C543 C 0.15164 0.45585 0.05425 0.0
N544 N 0.23368 0.47181 0.1201 0.0
N545 N 0.16845 0.44486 0.06937 0.0
H546 H 0.65354 0.02914 0.62668 0.0
H547 H 0.82725 0.17807 0.65539 0.0
H548 H 0.6934 0.1092 0.57111 0.0
H549 H 0.79097 0.09287 0.70383 0.0
H550 H 0.77936 0.15268 0.62299 0.0
H551 H 0.70431 0.05179 0.65447 0.0
C552 C 0.67295 0.05151 0.62032 0.0
C553 C 0.66913 0.06737 0.59661 0.0
C554 C 0.78207 0.1394 0.64047 0.0
C555 C 0.72745 0.09343 0.62833 0.0
C556 C 0.80939 0.15387 0.65892 0.0
C557 C 0.8131 0.13752 0.68226 0.0
C558 C 0.75813 0.10849 0.64563 0.0
C559 C 0.7893 0.1062 0.68586 0.0
C560 C 0.70202 0.06437 0.63613 0.0
C561 C 0.69523 0.09619 0.58928 0.0
N562 N 0.7627 0.09282 0.66793 0.0
N563 N 0.72324 0.10837 0.60517 0.0
H564 H 0.65123 0.54569 0.20119 0.0
H565 H 0.74264 0.72962 0.24197 0.0
H566 H 0.68294 0.61916 0.13867 0.0
H567 H 0.67311 0.65944 0.29564 0.0
H568 H 0.73631 0.68772 0.20886 0.0
H569 H 0.6743 0.58617 0.24042 0.0
C570 C 0.66378 0.57031 0.19577 0.0
C571 C 0.66502 0.57928 0.16682 0.0
C572 C 0.72298 0.6815 0.22824 0.0
C573 C 0.6915 0.62523 0.21112 0.0
C574 C 0.72674 0.70533 0.24721 0.0
C575 C 0.70817 0.69788 0.27139 0.0
C576 C 0.70071 0.65007 0.23366 0.0
C577 C 0.6876 0.66606 0.27702 0.0
C578 C 0.67673 0.59329 0.21806 0.0
C579 C 0.68125 0.6114 0.16079 0.0
N580 N 0.68418 0.64326 0.25812 0.0
N581 N 0.69376 0.63324 0.18276 0.0
H582 H 0.03794 0.51761 0.62519 0.0
H583 H 0.92125 0.57917 0.66544 0.0
H584 H 0.96384 0.50886 0.56431 0.0
H585 H 0.97066 0.55251 0.72879 0.0
H586 H 0.94087 0.56025 0.62664 0.0
H587 H 0.01782 0.53725 0.66196 0.0
C588 C 0.01742 0.51989 0.61948 0.0
C589 C 0.00254 0.51155 0.59156 0.0
C590 C 0.94734 0.55857 0.64905 0.0
C591 C 0.97939 0.53427 0.63383 0.0
C592 C 0.93641 0.56955 0.67112 0.0
C593 C 0.9444 0.56735 0.7003 0.0
C594 C 0.9668 0.54586 0.65631 0.0
C595 C 0.96379 0.55443 0.70658 0.0
C596 C 0.00587 0.53101 0.64059 0.0
C597 C 0.97593 0.5149 0.58559 0.0
N598 N 0.97444 0.54433 0.68478 0.0
N599 N 0.96525 0.5262 0.60656 0.0
H600 H 0.48316 0.95171 0.08025 0.0
H601 H 0.42683 0.90477 0.23984 0.0
H602 H 0.53966 0.00581 0.15599 0.0
H603 H 0.35918 0.88658 0.1684 0.0
H604 H 0.47007 0.93577 0.20805 0.0
H605 H 0.43835 0.92137 0.11103 0.0
C606 C 0.48612 0.95717 0.1033 0.0
C607 C 0.51509 0.98127 0.11564 0.0
C608 C 0.44576 0.92506 0.19934 0.0
C609 C 0.46444 0.94663 0.1507 0.0
C610 C 0.4212 0.90732 0.21738 0.0
C611 C 0.38962 0.89326 0.20656 0.0
C612 C 0.43865 0.92822 0.17018 0.0
C613 C 0.38335 0.89728 0.17742 0.0
C614 C 0.46058 0.94001 0.12074 0.0
C615 C 0.51768 0.98752 0.14558 0.0
N616 N 0.40775 0.91424 0.16005 0.0
N617 N 0.49277 0.97011 0.16213 0.0
H618 H 0.48874 0.40422 0.6031 0.0
H619 H 0.45266 0.36699 0.77028 0.0
H620 H 0.48461 0.47035 0.66142 0.0
H621 H 0.48353 0.31931 0.71365 0.0
H622 H 0.45321 0.39978 0.72946 0.0
H623 H 0.47389 0.36669 0.64182 0.0
C624 C 0.48425 0.41068 0.62402 0.0
C625 C 0.48836 0.44061 0.62918 0.0
C626 C 0.45961 0.38195 0.72603 0.0
C627 C 0.47188 0.39781 0.67397 0.0
C628 C 0.45928 0.36335 0.7492 0.0
C629 C 0.46844 0.34085 0.74517 0.0
C630 C 0.46861 0.37741 0.69878 0.0
C631 C 0.47669 0.33672 0.7176 0.0
C632 C 0.47589 0.38926 0.64619 0.0
C633 C 0.48179 0.44752 0.65661 0.0
N634 N 0.47661 0.35482 0.69552 0.0
N635 N 0.47431 0.42641 0.67823 0.0
H636 H 0.54398 0.90446 0.53217 0.0
H637 H 0.68144 0.87648 0.4823 0.0
H638 H 0.64194 0.97866 0.53612 0.0
H639 H 0.59578 0.84652 0.42813 0.0
H640 H 0.66299 0.90131 0.51602 0.0
H641 H 0.55927 0.87004 0.5075 0.0
C642 C 0.56872 0.91321 0.52832 0.0
C643 C 0.59179 0.94435 0.53582 0.0
C644 C 0.64816 0.88872 0.49692 0.0
C645 C 0.60929 0.9053 0.5087 0.0
C646 C 0.65872 0.87478 0.47747 0.0
C647 C 0.64059 0.85983 0.45176 0.0
C648 C 0.61889 0.88693 0.49112 0.0
C649 C 0.61068 0.85745 0.44757 0.0
C650 C 0.57734 0.89371 0.51427 0.0
C651 C 0.62351 0.95482 0.53033 0.0
N652 N 0.60085 0.87102 0.46697 0.0
N653 N 0.6314 0.93528 0.51712 0.0
H654 H 0.64054 0.58575 0.00289 0.0
H655 H 0.81277 0.62422 0.95895 0.0
H656 H 0.70564 0.57411 0.06088 0.0
H657 H 0.73335 0.59326 0.89683 0.0
H658 H 0.77805 0.61924 0.99785 0.0
H659 H 0.67909 0.60209 0.96508 0.0
C660 C 0.66315 0.5872 0.00783 0.0
C661 C 0.66985 0.57836 0.03496 0.0
C662 C 0.76836 0.61386 0.97565 0.0
C663 C 0.7139 0.59711 0.99202 0.0
C664 C 0.78814 0.61683 0.95351 0.0
C665 C 0.77577 0.60893 0.92476 0.0
C666 C 0.73617 0.60342 0.96888 0.0
C667 C 0.74366 0.59927 0.9188 0.0
C668 C 0.685 0.59631 0.98623 0.0
C669 C 0.69944 0.58047 0.04016 0.0
N670 N 0.72493 0.59677 0.94069 0.0
N671 N 0.72036 0.58958 0.01887 0.0
H672 H 0.06933 0.55919 0.4817 0.0
H673 H 0.22726 0.72234 0.45683 0.0
H674 H 0.15673 0.5903 0.53311 0.0
H675 H 0.14613 0.6786 0.39571 0.0
H676 H 0.19974 0.67817 0.48901 0.0
H677 H 0.09519 0.60699 0.45423 0.0
C678 C 0.09399 0.57613 0.48732 0.0
C679 C 0.11097 0.57057 0.50965 0.0
C680 C 0.18795 0.67842 0.46864 0.0
C681 C 0.14077 0.6256 0.47809 0.0
C682 C 0.20363 0.70356 0.45021 0.0
C683 C 0.18909 0.70413 0.42337 0.0
C684 C 0.15744 0.65378 0.46026 0.0
C685 C 0.15819 0.67945 0.41626 0.0
C686 C 0.10875 0.60346 0.47155 0.0
C687 C 0.14282 0.59354 0.51596 0.0
N688 N 0.1435 0.65525 0.43451 0.0
N689 N 0.15677 0.62008 0.50016 0.0
H690 H 0.60781 0.15137 0.06678 0.0
H691 H 0.47203 0.13229 0.95033 0.0
H692 H 0.52898 0.06288 0.03431 0.0
H693 H 0.55782 0.2211 0.96916 0.0
H694 H 0.48837 0.10853 0.98844 0.0
H695 H 0.58601 0.179 0.03801 0.0
C696 C 0.58576 0.1378 0.05394 0.0
C697 C 0.57038 0.10483 0.05262 0.0
C698 C 0.50355 0.1333 0.98448 0.0
C699 C 0.54539 0.13605 0.01995 0.0
C700 C 0.49405 0.14702 0.96285 0.0
C701 C 0.51362 0.17877 0.95636 0.0
C702 C 0.53299 0.15131 -0.00024 0.0
C703 C 0.54222 0.19641 0.9731 0.0
C704 C 0.57341 0.15353 0.03748 0.0
C705 C 0.54189 0.08834 0.03566 0.0
N706 N 0.55119 0.18238 0.99388 0.0
N707 N 0.53045 0.1041 0.01995 0.0
H708 H 0.49009 0.40967 0.48883 0.0
H709 H 0.40894 0.46078 0.36335 0.0
H710 H 0.48791 0.49625 0.48924 0.0
H711 H 0.36427 0.364 0.38896 0.0
H712 H 0.45151 0.47419 0.40032 0.0
H713 H 0.45535 0.39272 0.4439 0.0
C714 C 0.48243 0.42506 0.47937 0.0
C715 C 0.49136 0.45414 0.49278 0.0
C716 C 0.43261 0.44994 0.39753 0.0
C717 C 0.45315 0.43563 0.44163 0.0
C718 C 0.40833 0.44228 0.37653 0.0
C719 C 0.38267 0.4114 0.37366 0.0
C720 C 0.43137 0.42656 0.41569 0.0
C721 C 0.38354 0.38814 0.39069 0.0
C722 C 0.46277 0.41544 0.45392 0.0
C723 C 0.48108 0.47342 0.47979 0.0
N724 N 0.40736 0.39627 0.41141 0.0
N725 N 0.46267 0.46389 0.45488 0.0
H726 H 0.09977 0.51202 0.89946 0.0
H727 H 0.05902 0.33498 0.87439 0.0
H728 H 0.14317 0.46788 0.94871 0.0
H729 H 0.00607 0.3743 0.83307 0.0
H730 H 0.099 0.38753 0.8924 0.0
H731 H 0.07478 0.4663 0.8657 0.0
C732 C 0.10498 0.4932 0.90242 0.0
C733 C 0.12362 0.49355 0.92654 0.0
C734 C 0.07884 0.38475 0.87907 0.0
C735 C 0.09461 0.4411 0.88894 0.0
C736 C 0.05608 0.35474 0.86865 0.0
C737 C 0.02886 0.35014 0.85262 0.0
C738 C 0.07435 0.41038 0.87353 0.0
C739 C 0.02628 0.37667 0.84598 0.0
C740 C 0.09049 0.467 0.88342 0.0
C741 C 0.12909 0.46839 0.93009 0.0
N742 N 0.04852 0.40559 0.85676 0.0
N743 N 0.11435 0.44299 0.91169 0.0
H744 H 0.03195 0.53652 0.03342 0.0
H745 H 0.92197 0.53821 0.90659 0.0
H746 H 0.06173 0.54881 0.94559 0.0
H747 H 0.95228 0.61135 0.97244 0.0
H748 H 0.95993 0.5243 0.9279 0.0
H749 H 0.98984 0.54806 0.01779 0.0
C750 C 0.02945 0.54147 0.01089 0.0
C751 C 0.05015 0.54181 0.99066 0.0
C752 C 0.95769 0.54293 0.93796 0.0
C753 C 0.00227 0.55405 0.97291 0.0
C754 C 0.93599 0.55075 0.92605 0.0
C755 C 0.934 0.5759 0.93791 0.0
C756 C 0.97694 0.55982 0.96231 0.0
C757 C 0.95315 0.59177 0.9628 0.0
C758 C 0.00572 0.54816 0.00214 0.0
C759 C 0.04627 0.5485 0.96179 0.0
N760 N 0.97397 0.58342 0.97434 0.0
N761 N 0.02245 0.55397 0.95365 0.0
H762 H 0.55682 0.03631 0.45408 0.0
H763 H 0.37175 0.93551 0.40758 0.0
H764 H 0.48379 0.98226 0.51319 0.0
H765 H 0.44485 0.95841 0.34749 0.0
H766 H 0.41272 0.96485 0.44586 0.0
H767 H 0.51587 0.01919 0.41437 0.0
C768 C 0.53217 0.02118 0.45875 0.0
C769 C 0.52367 0.0104 0.48688 0.0
C770 C 0.41978 0.96389 0.42419 0.0
C771 C 0.47695 0.99114 0.44181 0.0
C772 C 0.39644 0.94746 0.40226 0.0
C773 C 0.405 0.94458 0.37435 0.0
C774 C 0.4519 0.97767 0.41813 0.0
C775 C 0.43735 0.95998 0.3688 0.0
C776 C 0.5089 0.01138 0.43611 0.0
C777 C 0.49141 0.99082 0.49176 0.0
N778 N 0.4597 0.97575 0.39058 0.0
N779 N 0.46923 0.98178 0.46944 0.0
H780 H 0.5666 0.47581 0.015 0.0
H781 H 0.50515 0.298 0.96771 0.0
H782 H 0.58055 0.41348 0.07174 0.0
H783 H 0.53084 0.37269 0.90711 0.0
H784 H 0.52464 0.33715 0.00792 0.0
H785 H 0.54499 0.4351 0.97701 0.0
C786 C 0.56497 0.45346 0.01957 0.0
C787 C 0.57547 0.44806 0.04662 0.0
C788 C 0.52594 0.34485 0.9858 0.0
C789 C 0.55058 0.40123 0.00301 0.0
C790 C 0.51467 0.32261 0.96296 0.0
C791 C 0.51647 0.33229 0.93418 0.0
C792 C 0.53848 0.37677 0.97968 0.0
C793 C 0.52924 0.36437 0.92902 0.0
C794 C 0.55275 0.43028 0.99776 0.0
C795 C 0.57285 0.41864 0.05114 0.0
N796 N 0.53961 0.38546 0.95156 0.0
N797 N 0.56052 0.39617 0.02952 0.0
H798 H 0.02619 0.43855 0.43854 0.0
H799 H 0.13204 0.36021 0.40852 0.0
H800 H 0.08168 0.422 0.50413 0.0
H801 H 0.10415 0.40429 0.34177 0.0
H802 H 0.10146 0.37044 0.44274 0.0
H803 H 0.04325 0.41449 0.40197 0.0
C804 C 0.04149 0.42939 0.44527 0.0
C805 C 0.0529 0.43257 0.47424 0.0
C806 C 0.10171 0.37753 0.42051 0.0
C807 C 0.07211 0.40498 0.43294 0.0
C808 C 0.11894 0.37146 0.4009 0.0
C809 C 0.1209 0.38169 0.37233 0.0
C810 C 0.0862 0.39388 0.41151 0.0
C811 C 0.10368 0.39648 0.36376 0.0
C812 C 0.0513 0.41584 0.42446 0.0
C813 C 0.07272 0.42042 0.48191 0.0
N814 N 0.08723 0.40238 0.38333 0.0
N815 N 0.08175 0.40728 0.46141 0.0
H816 H 0.69342 0.08942 0.04538 0.0
H817 H 0.74265 0.08393 0.88533 0.0
H818 H 0.628 0.02249 0.98013 0.0
H819 H 0.8108 0.12819 0.95753 0.0
H820 H 0.70003 0.06124 0.91917 0.0
H821 H 0.73645 0.10474 0.01296 0.0
C822 C 0.68808 0.07796 0.02417 0.0
C823 C 0.65702 0.0548 0.01533 0.0
C824 C 0.72433 0.07556 0.92765 0.0
C825 C 0.70629 0.07225 0.97812 0.0
C826 C 0.74859 0.08854 0.90838 0.0
C827 C 0.78015 0.10806 0.91875 0.0
C828 C 0.73169 0.08259 0.95743 0.0
C829 C 0.78675 0.11316 0.94875 0.0
C830 C 0.71274 0.08657 0.00577 0.0
C831 C 0.6516 0.04052 0.98775 0.0
N832 N 0.76264 0.10083 0.96705 0.0
N833 N 0.67599 0.04969 0.96997 0.0
H834 H 0.56635 0.61393 0.55327 0.0
H835 H 0.62566 0.66945 0.39475 0.0
H836 H 0.58101 0.55732 0.49145 0.0
H837 H 0.65075 0.7366 0.46529 0.0
H838 H 0.60176 0.62675 0.4289 0.0
H839 H 0.59021 0.65837 0.52017 0.0
C840 C 0.57447 0.61084 0.53278 0.0
C841 C 0.57183 0.58199 0.52512 0.0
C842 C 0.61255 0.65081 0.43696 0.0
C843 C 0.59862 0.63219 0.48737 0.0
C844 C 0.62608 0.67512 0.41749 0.0
C845 C 0.6402 0.70647 0.42732 0.0
C846 C 0.61272 0.65784 0.46645 0.0
C847 C 0.64028 0.71265 0.45701 0.0
C848 C 0.58819 0.63616 0.51404 0.0
C849 C 0.58279 0.5792 0.49836 0.0
N850 N 0.62652 0.68848 0.4756 0.0
N851 N 0.5955 0.60388 0.48044 0.0
H852 H 0.5545 0.08761 0.59066 0.0
H853 H 0.46602 0.08057 0.73407 0.0
H854 H 0.51145 0.00601 0.6442 0.0
H855 H 0.50385 0.15898 0.67661 0.0
H856 H 0.4793 0.05136 0.70008 0.0
H857 H 0.53378 0.11297 0.62089 0.0
C858 C 0.54063 0.07497 0.60876 0.0
C859 C 0.53488 0.0447 0.61501 0.0
C860 C 0.48446 0.07487 0.69481 0.0
C861 C 0.51104 0.07368 0.64979 0.0
C862 C 0.47668 0.09146 0.71411 0.0
C863 C 0.48411 0.12236 0.70829 0.0
C864 C 0.49982 0.08932 0.66955 0.0
C865 C 0.49824 0.13543 0.68223 0.0
C866 C 0.52872 0.08946 0.62599 0.0
C867 C 0.51657 0.02942 0.63865 0.0
N868 N 0.50582 0.11894 0.66395 0.0
N869 N 0.50544 0.04416 0.65529 0.0
H870 H 0.52734 0.46231 0.14821 0.0
H871 H 0.38755 0.48407 0.20499 0.0
H872 H 0.51162 0.53737 0.1203 0.0
H873 H 0.3904 0.3982 0.21348 0.0
H874 H 0.43469 0.50568 0.17643 0.0
H875 H 0.47899 0.44018 0.17464 0.0
C876 C 0.51372 0.47419 0.14763 0.0
C877 C 0.52364 0.50183 0.13203 0.0
C878 C 0.42494 0.48208 0.18446 0.0
C879 C 0.46812 0.47653 0.16248 0.0
C880 C 0.39819 0.46981 0.20091 0.0
C881 C 0.38515 0.43934 0.21174 0.0
C882 C 0.43901 0.4639 0.17903 0.0
C883 C 0.39958 0.42172 0.20543 0.0
C884 C 0.48601 0.46143 0.16267 0.0
C885 C 0.50486 0.51602 0.13199 0.0
N886 N 0.42585 0.43433 0.18966 0.0
N887 N 0.47808 0.5033 0.14714 0.0
H888 H 0.99707 0.39091 0.57841 0.0
H889 H 0.0306 0.31631 0.71993 0.0
H890 H 0.08696 0.43773 0.62784 0.0
H891 H 0.93765 0.29129 0.68365 0.0
H892 H 0.0544 0.35481 0.68142 0.0
H893 H 0.97804 0.34772 0.61167 0.0
C894 C 0.01294 0.39209 0.59622 0.0
C895 C 0.04354 0.41826 0.6006 0.0
C896 C 0.02882 0.34066 0.68184 0.0
C897 C 0.02168 0.36862 0.63893 0.0
C898 C 0.01532 0.31871 0.70361 0.0
C899 C 0.98224 0.30098 0.70486 0.0
C900 C 0.00893 0.3443 0.66115 0.0
C901 C 0.96328 0.30483 0.68347 0.0
C902 C 0.00199 0.36735 0.61523 0.0
C903 C 0.0631 0.41812 0.62384 0.0
N904 N 0.9769 0.32609 0.66252 0.0
N905 N 0.05173 0.39373 0.64236 0.0
H906 H 0.66654 0.05696 0.17378 0.0
H907 H 0.70044 0.9138 0.18177 0.0
H908 H 0.64357 0.98842 0.10484 0.0
H909 H 0.71527 0.97433 0.2555 0.0
H910 H 0.68751 0.94675 0.15132 0.0
H911 H 0.69174 0.03241 0.20234 0.0
C912 C 0.66703 0.03698 0.16458 0.0
C913 C 0.65258 0.02447 0.13706 0.0
C914 C 0.69387 0.95309 0.1741 0.0
C915 C 0.68138 0.99653 0.16935 0.0
C916 C 0.70127 0.93427 0.19145 0.0
C917 C 0.7086 0.94119 0.2212 0.0
C918 C 0.69349 0.97893 0.18659 0.0
C919 C 0.7098 0.96825 0.23261 0.0
C920 C 0.68137 0.02298 0.18086 0.0
C921 C 0.65398 0.99862 0.12612 0.0
N922 N 0.7019 0.98596 0.21534 0.0
N923 N 0.66795 0.98549 0.14231 0.0
H924 H 0.64462 0.50138 0.60071 0.0
H925 H 0.72176 0.61002 0.74443 0.0
H926 H 0.61098 0.55974 0.63633 0.0
H927 H 0.74986 0.5457 0.71267 0.0
H928 H 0.68456 0.5961 0.70201 0.0
H929 H 0.68728 0.52174 0.63876 0.0
C930 C 0.64634 0.51862 0.61638 0.0
C931 C 0.62404 0.52862 0.61554 0.0
C932 C 0.6989 0.58505 0.70436 0.0
C933 C 0.67256 0.55188 0.65909 0.0
C934 C 0.72007 0.59302 0.7285 0.0
C935 C 0.73829 0.57846 0.73228 0.0
C936 C 0.69624 0.56259 0.68386 0.0
C937 C 0.73554 0.5568 0.71094 0.0
C938 C 0.67063 0.53018 0.63812 0.0
C939 C 0.62745 0.5511 0.63632 0.0
N940 N 0.7148 0.54942 0.68771 0.0
N941 N 0.65113 0.56183 0.65734 0.0
H942 H 0.15478 0.57906 0.09079 0.0
H943 H 0.25699 0.75887 0.14437 0.0
H944 H 0.20788 0.65313 0.03157 0.0
H945 H 0.22028 0.67958 0.20077 0.0
H946 H 0.2373 0.72214 0.1022 0.0
H947 H 0.17655 0.61716 0.13074 0.0
C948 C 0.17106 0.60343 0.08613 0.0
C949 C 0.17945 0.61289 0.05769 0.0
C950 C 0.2338 0.71291 0.12385 0.0
C951 C 0.20468 0.657 0.10378 0.0
C952 C 0.24485 0.73379 0.14785 0.0
C953 C 0.24045 0.72224 0.1761 0.0
C954 C 0.2179 0.68035 0.12825 0.0
C955 C 0.22469 0.68957 0.17944 0.0
C956 C 0.18361 0.62523 0.10908 0.0
C957 C 0.20083 0.64484 0.05317 0.0
N958 N 0.21394 0.66988 0.15586 0.0
N959 N 0.21265 0.66587 0.07602 0.0
loop_
_geom_bond_atom_site_label_1
_geom_bond_atom_site_label_2
_geom_bond_distance
_geom_bond_site_symmetry_2
_ccdc_geom_bond_type
C0 O2 1.247 . S
C0 O4 1.258 . S
C1 O8 1.247 . S
C1 O9 1.258 . S
O2 C0 1.247 . S
O2 Zn3 2.028 . S
Zn3 O2 2.028 . S
Zn3 O7 2.035 1_554 S
Zn3 O9 2.035 1_554 S
Zn3 O10 2.028 . S
O4 C0 1.258 . S
O4 Zn5 2.035 1_554 S
Zn5 O4 2.035 1_556 S
Zn5 O6 2.028 . S
Zn5 O8 2.028 . S
Zn5 O11 2.035 1_556 S
O6 Zn5 2.028 . S
O6 C12 1.247 . S
O7 Zn3 2.035 1_556 S
O7 C12 1.258 . S
O8 C1 1.247 . S
O8 Zn5 2.028 . S
O9 C1 1.258 . S
O9 Zn3 2.035 1_556 S
O10 Zn3 2.028 . S
O10 C13 1.247 . S
O11 Zn5 2.035 1_554 S
O11 C13 1.258 . S
C12 O6 1.247 . S
C12 O7 1.258 . S
C13 O10 1.247 . S
C13 O11 1.258 . S
C14 O16 1.247 1_545 S
C14 O18 1.258 . S
C15 O22 1.247 1_565 S
C15 O23 1.258 . S
O16 C14 1.247 1_565 S
O16 Zn17 2.028 . S
Zn17 O16 2.028 . S
Zn17 O21 2.035 . S
Zn17 O23 2.035 . S
Zn17 O24 2.034 . S
O18 C14 1.258 . S
O18 Zn19 2.035 . S
Zn19 O18 2.035 . S
Zn19 O20 2.028 . S
Zn19 O22 2.028 . S
Zn19 O25 2.035 . S
O20 Zn19 2.028 . S
O20 C26 1.247 1_545 S
O21 Zn17 2.035 . S
O21 C26 1.258 . S
O22 C15 1.247 1_545 S
O22 Zn19 2.028 . S
O23 C15 1.258 . S
O23 Zn17 2.035 . S
O24 Zn17 2.034 . S
O24 C27 1.217 1_565 S
O25 Zn19 2.035 . S
O25 C27 1.258 . S
C26 O20 1.247 1_565 S
C26 O21 1.258 . S
C27 O24 1.217 1_545 S
C27 O25 1.258 . S
C28 O30 1.247 . S
C28 O32 1.258 . S
C29 O36 1.247 . S
C29 O37 1.258 . S
O30 C28 1.247 . S
O30 Zn31 2.028 . S
Zn31 O30 2.028 . S
Zn31 O35 2.035 . S
Zn31 O37 2.035 . S
Zn31 O38 2.028 . S
O32 C28 1.258 . S
O32 Zn33 2.035 . S
Zn33 O32 2.035 . S
Zn33 O34 2.028 . S
Zn33 O36 2.028 . S
Zn33 O39 2.035 . S
O34 Zn33 2.028 . S
O34 C40 1.247 . S
O35 Zn31 2.035 . S
O35 C40 1.258 . S
O36 C29 1.247 . S
O36 Zn33 2.028 . S
O37 C29 1.258 . S
O37 Zn31 2.035 . S
O38 Zn31 2.028 . S
O38 C41 1.247 . S
O39 Zn33 2.035 . S
O39 C41 1.258 . S
C40 O34 1.247 . S
C40 O35 1.258 . S
C41 O38 1.247 . S
C41 O39 1.258 . S
C42 O44 1.247 . S
C42 O46 1.258 1_455 S
C43 O50 1.247 . S
C43 O51 1.258 1_655 S
O44 C42 1.247 . S
O44 Zn45 2.028 . S
Zn45 O44 2.028 . S
Zn45 O49 2.035 . S
Zn45 O51 2.035 . S
Zn45 O52 2.028 . S
O46 C42 1.258 1_655 S
O46 Zn47 2.035 . S
Zn47 O46 2.035 . S
Zn47 O48 2.028 . S
Zn47 O50 2.028 . S
Zn47 O53 2.061 . S
O48 Zn47 2.028 . S
O48 C54 1.247 . S
O49 Zn45 2.035 . S
O49 C54 1.258 1_455 S
O50 C43 1.247 . S
O50 Zn47 2.028 . S
O51 C43 1.258 1_455 S
O51 Zn45 2.035 . S
O52 Zn45 2.028 . S
O52 C55 1.247 . S
O53 Zn47 2.061 . S
O53 C55 1.229 1_655 S
C54 O48 1.247 . S
C54 O49 1.258 1_655 S
C55 O52 1.247 . S
C55 O53 1.229 1_455 S
C56 O58 1.247 . S
C56 O60 1.258 . S
C57 O64 1.247 . S
C57 O65 1.258 . S
O58 C56 1.247 . S
O58 Zn59 2.028 . S
Zn59 O58 2.028 . S
Zn59 O63 2.035 . S
Zn59 O65 2.035 . S
Zn59 O66 2.028 . S
O60 C56 1.258 . S
O60 Zn61 2.035 . S
Zn61 O60 2.035 . S
Zn61 O62 2.028 . S
Zn61 O64 2.028 . S
Zn61 O67 2.035 . S
O62 Zn61 2.028 . S
O62 C68 1.247 . S
O63 Zn59 2.035 . S
O63 C68 1.258 . S
O64 C57 1.247 . S
O64 Zn61 2.028 . S
O65 C57 1.258 . S
O65 Zn59 2.035 . S
O66 Zn59 2.028 . S
O66 C69 1.247 . S
O67 Zn61 2.035 . S
O67 C69 1.258 . S
C68 O62 1.247 . S
C68 O63 1.258 . S
C69 O66 1.247 . S
C69 O67 1.258 . S
C70 O72 1.247 . S
C70 O74 1.258 . S
C71 O78 1.247 . S
C71 O79 1.258 . S
O72 C70 1.247 . S
O72 Zn73 2.028 . S
Zn73 O72 2.028 . S
Zn73 O77 2.035 . S
Zn73 O79 2.035 . S
Zn73 O80 2.028 . S
O74 C70 1.258 . S
O74 Zn75 2.035 . S
Zn75 O74 2.035 . S
Zn75 O76 2.028 . S
Zn75 O78 2.028 . S
Zn75 O81 2.035 . S
O76 Zn75 2.028 . S
O76 C82 1.247 . S
O77 Zn73 2.035 . S
O77 C82 1.258 . S
O78 C71 1.247 . S
O78 Zn75 2.028 . S
O79 C71 1.258 . S
O79 Zn73 2.035 . S
O80 Zn73 2.028 . S
O80 C83 1.247 . S
O81 Zn75 2.035 . S
O81 C83 1.258 . S
C82 O76 1.247 . S
C82 O77 1.258 . S
C83 O80 1.247 . S
C83 O81 1.258 . S
H84 O110 0.856 . S
H85 O113 0.854 . S
H86 C121 0.930 . S
H87 C122 0.930 . S
H88 C124 0.930 . S
H89 C125 0.930 . S
H90 C127 0.931 . S
H91 C128 0.930 . S
H92 C130 0.930 . S
H93 C131 0.929 . S
H94 C133 0.930 . S
H95 C134 0.931 . S
H96 C136 0.930 . S
H97 C137 0.929 . S
H98 C139 0.931 . S
H99 C140 0.930 . S
H100 C142 0.930 . S
H101 C143 0.932 . S
H102 C145 0.930 . S
H103 C146 0.929 . S
H104 C148 0.931 . S
H105 C149 0.930 . S
H106 C151 0.929 . S
H107 C152 0.931 . S
H108 C154 0.930 . S
H109 C155 0.929 . S
O110 H84 0.856 . S
O110 C156 1.300 . S
O111 C156 1.209 . S
O112 C157 1.199 . S
O113 H85 0.854 . S
O113 C157 1.297 . S
C114 C115 1.404 . S
C114 C119 1.397 . S
C114 C120 1.492 . S
C115 C114 1.404 . S
C115 C116 1.396 . S
C115 C126 1.492 . S
C116 C115 1.396 . S
C116 C117 1.397 . S
C116 C132 1.509 . S
C117 C116 1.397 . S
C117 C118 1.412 . S
C117 C138 1.485 . S
C118 C117 1.412 . S
C118 C119 1.388 . S
C118 C144 1.490 . S
C119 C114 1.397 . S
C119 C118 1.388 . S
C119 C150 1.519 . S
C120 C114 1.492 . S
C120 C121 1.363 . S
C120 C125 1.390 . S
C121 H86 0.930 . S
C121 C120 1.363 . S
C121 C122 1.372 . S
C122 H87 0.930 . S
C122 C121 1.372 . S
C122 C123 1.383 . S
C123 C122 1.383 . S
C123 C124 1.395 . S
C124 H88 0.930 . S
C124 C123 1.395 . S
C124 C125 1.362 . S
C125 H89 0.930 . S
C125 C120 1.390 . S
C125 C124 1.362 . S
C126 C115 1.492 . S
C126 C127 1.377 . S
C126 C131 1.397 . S
C127 H90 0.931 . S
C127 C126 1.377 . S
C127 C128 1.376 . S
C128 H91 0.930 . S
C128 C127 1.376 . S
C128 C129 1.376 . S
C129 C128 1.376 . S
C129 C130 1.378 . S
C129 C156 1.486 . S
C130 H92 0.930 . S
C130 C129 1.378 . S
C130 C131 1.376 . S
C131 H93 0.929 . S
C131 C126 1.397 . S
C131 C130 1.376 . S
C132 C116 1.509 . S
C132 C133 1.391 . S
C132 C137 1.386 . S
C133 H94 0.930 . S
C133 C132 1.391 . S
C133 C134 1.375 . S
C134 H95 0.931 . S
C134 C133 1.375 . S
C134 C135 1.375 . S
C135 C134 1.375 . S
C135 C136 1.361 . S
C136 H96 0.930 . S
C136 C135 1.361 . S
C136 C137 1.399 . S
C137 H97 0.929 . S
C137 C132 1.386 . S
C137 C136 1.399 . S
C138 C117 1.485 . S
C138 C139 1.394 . S
C138 C143 1.360 . S
C139 H98 0.931 . S
C139 C138 1.394 . S
C139 C140 1.372 . S
C140 H99 0.930 . S
C140 C139 1.372 . S
C140 C141 1.397 . S
C141 C140 1.397 . S
C141 C142 1.390 . S
C141 C157 1.476 . S
C142 H100 0.930 . S
C142 C141 1.390 . S
C142 C143 1.366 . S
C143 H101 0.932 . S
C143 C138 1.360 . S
C143 C142 1.366 . S
C144 C118 1.490 . S
C144 C145 1.380 . S
C144 C149 1.386 . S
C145 H102 0.930 . S
C145 C144 1.380 . S
C145 C146 1.381 . S
C146 H103 0.929 . S
C146 C145 1.381 . S
C146 C147 1.371 . S
C147 C146 1.371 . S
C147 C148 1.380 . S
C148 H104 0.931 . S
C148 C147 1.380 . S
C148 C149 1.387 . S
C149 H105 0.930 . S
C149 C144 1.386 . S
C149 C148 1.387 . S
C150 C119 1.519 . S
C150 C151 1.377 . S
C150 C155 1.361 . S
C151 H106 0.929 . S
C151 C150 1.377 . S
C151 C152 1.386 . S
C152 H107 0.931 . S
C152 C151 1.386 . S
C152 C153 1.363 . S
C153 C152 1.363 . S
C153 C154 1.385 . S
C154 H108 0.930 . S
C154 C153 1.385 . S
C154 C155 1.396 . S
C155 H109 0.929 . S
C155 C150 1.361 . S
C155 C154 1.396 . S
C156 O110 1.300 . S
C156 O111 1.209 . S
C156 C129 1.486 . S
C157 O112 1.199 . S
C157 O113 1.297 . S
C157 C141 1.476 . S
H158 O184 0.856 1_554 S
H159 O187 0.854 1_565 S
H160 C195 0.930 . S
H161 C196 0.930 . S
H162 C198 0.930 1_455 S
H163 C199 0.930 . S
H164 C201 0.931 . S
H165 C202 0.930 . S
H166 C204 0.930 . S
H167 C205 0.929 . S
H168 C207 0.930 . S
H169 C208 0.931 . S
H170 C210 0.930 . S
H171 C211 0.929 . S
H172 C213 0.931 . S
H173 C214 0.930 . S
H174 C216 0.930 . S
H175 C217 0.932 . S
H176 C219 0.930 . S
H177 C220 0.929 . S
H178 C222 0.931 . S
H179 C223 0.930 . S
H180 C225 0.929 . S
H181 C226 0.931 . S
H182 C228 0.930 . S
H183 C229 0.929 . S
O184 H158 0.856 1_556 S
O184 C230 1.300 . S
O185 C230 1.209 . S
O186 C231 1.199 . S
O187 H159 0.854 1_545 S
O187 C231 1.297 . S
C188 C189 1.404 . S
C188 C193 1.397 . S
C188 C194 1.492 . S
C189 C188 1.404 . S
C189 C190 1.396 . S
C189 C200 1.492 . S
C190 C189 1.396 . S
C190 C191 1.397 . S
C190 C206 1.509 . S
C191 C190 1.397 . S
C191 C192 1.412 . S
C191 C212 1.485 . S
C192 C191 1.412 . S
C192 C193 1.388 . S
C192 C218 1.490 . S
C193 C188 1.397 . S
C193 C192 1.388 . S
C193 C224 1.519 . S
C194 C188 1.492 . S
C194 C195 1.363 . S
C194 C199 1.390 . S
C195 H160 0.930 . S
C195 C194 1.363 . S
C195 C196 1.372 . S
C196 H161 0.930 . S
C196 C195 1.372 . S
C196 C197 1.383 . S
C197 C196 1.383 . S
C197 C198 1.395 . S
C198 H162 0.930 1_655 S
C198 C197 1.395 . S
C198 C199 1.362 . S
C199 H163 0.930 . S
C199 C194 1.390 . S
C199 C198 1.362 . S
C200 C189 1.492 . S
C200 C201 1.377 . S
C200 C205 1.397 . S
C201 H164 0.931 . S
C201 C200 1.377 . S
C201 C202 1.376 . S
C202 H165 0.930 . S
C202 C201 1.376 . S
C202 C203 1.376 . S
C203 C202 1.376 . S
C203 C204 1.378 . S
C203 C230 1.486 . S
C204 H166 0.930 . S
C204 C203 1.378 . S
C204 C205 1.376 . S
C205 H167 0.929 . S
C205 C200 1.397 . S
C205 C204 1.376 . S
C206 C190 1.509 . S
C206 C207 1.391 . S
C206 C211 1.386 . S
C207 H168 0.930 . S
C207 C206 1.391 . S
C207 C208 1.375 . S
C208 H169 0.931 . S
C208 C207 1.375 . S
C208 C209 1.375 . S
C209 C208 1.375 . S
C209 C210 1.361 . S
C210 H170 0.930 . S
C210 C209 1.361 . S
C210 C211 1.399 . S
C211 H171 0.929 . S
C211 C206 1.386 . S
C211 C210 1.399 . S
C212 C191 1.485 . S
C212 C213 1.394 . S
C212 C217 1.360 . S
C213 H172 0.931 . S
C213 C212 1.394 . S
C213 C214 1.372 . S
C214 H173 0.930 . S
C214 C213 1.372 . S
C214 C215 1.397 . S
C215 C214 1.397 . S
C215 C216 1.390 . S
C215 C231 1.476 . S
C216 H174 0.930 . S
C216 C215 1.390 . S
C216 C217 1.366 . S
C217 H175 0.932 . S
C217 C212 1.360 . S
C217 C216 1.366 . S
C218 C192 1.490 . S
C218 C219 1.380 . S
C218 C223 1.386 . S
C219 H176 0.930 . S
C219 C218 1.380 . S
C219 C220 1.381 . S
C220 H177 0.929 . S
C220 C219 1.381 . S
C220 C221 1.371 . S
C221 C220 1.371 . S
C221 C222 1.380 . S
C222 H178 0.931 . S
C222 C221 1.380 . S
C222 C223 1.387 . S
C223 H179 0.930 . S
C223 C218 1.386 . S
C223 C222 1.387 . S
C224 C193 1.519 . S
C224 C225 1.377 . S
C224 C229 1.361 . S
C225 H180 0.929 . S
C225 C224 1.377 . S
C225 C226 1.386 . S
C226 H181 0.931 . S
C226 C225 1.386 . S
C226 C227 1.363 . S
C227 C226 1.363 . S
C227 C228 1.385 . S
C228 H182 0.930 . S
C228 C227 1.385 . S
C228 C229 1.396 . S
C229 H183 0.929 . S
C229 C224 1.361 . S
C229 C228 1.396 . S
C230 O184 1.300 . S
C230 O185 1.209 . S
C230 C203 1.486 . S
C231 O186 1.199 . S
C231 O187 1.297 . S
C231 C215 1.476 . S
H232 O258 0.856 . S
H233 O261 0.854 . S
H234 C269 0.930 . S
H235 C270 0.930 . S
H236 C272 0.930 . S
H237 C273 0.930 . S
H238 C275 0.931 . S
H239 C276 0.930 . S
H240 C278 0.930 . S
H241 C279 0.929 . S
H242 C281 0.930 . S
H243 C282 0.931 . S
H244 C284 0.930 . S
H245 C285 0.929 . S
H246 C287 0.931 . S
H247 C288 0.930 . S
H248 C290 0.930 . S
H249 C291 0.932 . S
H250 C293 0.930 . S
H251 C294 0.929 . S
H252 C296 0.931 . S
H253 C297 0.930 . S
H254 C299 0.929 . S
H255 C300 0.931 . S
H256 C302 0.930 . S
H257 C303 0.929 . S
O258 H232 0.856 . S
O258 C304 1.300 . S
O259 C304 1.209 . S
O260 C305 1.199 . S
O261 H233 0.854 . S
O261 C305 1.297 1_545 S
C262 C263 1.404 . S
C262 C267 1.397 . S
C262 C268 1.492 . S
C263 C262 1.404 . S
C263 C264 1.396 . S
C263 C274 1.492 . S
C264 C263 1.396 . S
C264 C265 1.397 . S
C264 C280 1.509 . S
C265 C264 1.397 . S
C265 C266 1.412 . S
C265 C286 1.485 . S
C266 C265 1.412 . S
C266 C267 1.388 . S
C266 C292 1.490 . S
C267 C262 1.397 . S
C267 C266 1.388 . S
C267 C298 1.519 . S
C268 C262 1.492 . S
C268 C269 1.363 . S
C268 C273 1.390 . S
C269 H234 0.930 . S
C269 C268 1.363 . S
C269 C270 1.372 . S
C270 H235 0.930 . S
C270 C269 1.372 . S
C270 C271 1.383 . S
C271 C270 1.383 . S
C271 C272 1.395 . S
C272 H236 0.930 . S
C272 C271 1.395 . S
C272 C273 1.362 . S
C273 H237 0.930 . S
C273 C268 1.390 . S
C273 C272 1.362 . S
C274 C263 1.492 . S
C274 C275 1.377 . S
C274 C279 1.397 . S
C275 H238 0.931 . S
C275 C274 1.377 . S
C275 C276 1.376 . S
C276 H239 0.930 . S
C276 C275 1.376 . S
C276 C277 1.376 . S
C277 C276 1.376 . S
C277 C278 1.378 . S
C277 C304 1.486 . S
C278 H240 0.930 . S
C278 C277 1.378 . S
C278 C279 1.376 . S
C279 H241 0.929 . S
C279 C274 1.397 . S
C279 C278 1.376 . S
C280 C264 1.509 . S
C280 C281 1.391 . S
C280 C285 1.386 . S
C281 H242 0.930 . S
C281 C280 1.391 . S
C281 C282 1.375 . S
C282 H243 0.931 . S
C282 C281 1.375 . S
C282 C283 1.375 . S
C283 C282 1.375 . S
C283 C284 1.361 . S
C284 H244 0.930 . S
C284 C283 1.361 . S
C284 C285 1.399 . S
C285 H245 0.929 . S
C285 C280 1.386 . S
C285 C284 1.399 . S
C286 C265 1.485 . S
C286 C287 1.394 . S
C286 C291 1.360 . S
C287 H246 0.931 . S
C287 C286 1.394 . S
C287 C288 1.372 . S
C288 H247 0.930 . S
C288 C287 1.372 . S
C288 C289 1.397 . S
C289 C288 1.397 . S
C289 C290 1.390 . S
C289 C305 1.476 . S
C290 H248 0.930 . S
C290 C289 1.390 . S
C290 C291 1.366 . S
C291 H249 0.932 . S
C291 C286 1.360 . S
C291 C290 1.366 . S
C292 C266 1.490 . S
C292 C293 1.380 . S
C292 C297 1.386 . S
C293 H250 0.930 . S
C293 C292 1.380 . S
C293 C294 1.381 . S
C294 H251 0.929 . S
C294 C293 1.381 . S
C294 C295 1.371 . S
C295 C294 1.371 . S
C295 C296 1.380 . S
C296 H252 0.931 . S
C296 C295 1.380 . S
C296 C297 1.387 . S
C297 H253 0.930 . S
C297 C292 1.386 . S
C297 C296 1.387 . S
C298 C267 1.519 . S
C298 C299 1.377 . S
C298 C303 1.361 . S
C299 H254 0.929 . S
C299 C298 1.377 . S
C299 C300 1.386 . S
C300 H255 0.931 . S
C300 C299 1.386 . S
C300 C301 1.363 . S
C301 C300 1.363 . S
C301 C302 1.385 . S
C302 H256 0.930 . S
C302 C301 1.385 . S
C302 C303 1.396 . S
C303 H257 0.929 . S
C303 C298 1.361 . S
C303 C302 1.396 . S
C304 O258 1.300 . S
C304 O259 1.209 . S
C304 C277 1.486 . S
C305 O260 1.199 . S
C305 O261 1.297 1_565 S
C305 C289 1.476 . S
H306 O332 0.856 . S
H307 O335 0.854 . S
H308 C343 0.930 . S
H309 C344 0.930 . S
H310 C346 0.930 . S
H311 C347 0.930 . S
H312 C349 0.931 . S
H313 C350 0.930 . S
H314 C352 0.930 . S
H315 C353 0.929 . S
H316 C355 0.930 . S
H317 C356 0.931 . S
H318 C358 0.930 . S
H319 C359 0.929 . S
H320 C361 0.931 . S
H321 C362 0.930 . S
H322 C364 0.930 . S
H323 C365 0.932 . S
H324 C367 0.930 . S
H325 C368 0.929 . S
H326 C370 0.931 . S
H327 C371 0.930 . S
H328 C373 0.929 . S
H329 C374 0.931 . S
H330 C376 0.930 . S
H331 C377 0.929 . S
O332 H306 0.856 . S
O332 C378 1.300 . S
O333 C378 1.209 . S
O334 C379 1.199 . S
O335 H307 0.854 . S
O335 C379 1.297 . S
C336 C337 1.404 . S
C336 C341 1.397 . S
C336 C342 1.492 . S
C337 C336 1.404 . S
C337 C338 1.396 . S
C337 C348 1.492 . S
C338 C337 1.396 . S
C338 C339 1.397 . S
C338 C354 1.509 . S
C339 C338 1.397 . S
C339 C340 1.412 . S
C339 C360 1.485 . S
C340 C339 1.412 . S
C340 C341 1.388 . S
C340 C366 1.490 . S
C341 C336 1.397 . S
C341 C340 1.388 . S
C341 C372 1.519 . S
C342 C336 1.492 . S
C342 C343 1.363 . S
C342 C347 1.390 . S
C343 H308 0.930 . S
C343 C342 1.363 . S
C343 C344 1.372 . S
C344 H309 0.930 . S
C344 C343 1.372 . S
C344 C345 1.383 . S
C345 C344 1.383 . S
C345 C346 1.395 . S
C346 H310 0.930 . S
C346 C345 1.395 . S
C346 C347 1.362 . S
C347 H311 0.930 . S
C347 C342 1.390 . S
C347 C346 1.362 . S
C348 C337 1.492 . S
C348 C349 1.377 . S
C348 C353 1.397 . S
C349 H312 0.931 . S
C349 C348 1.377 . S
C349 C350 1.376 . S
C350 H313 0.930 . S
C350 C349 1.376 . S
C350 C351 1.376 . S
C351 C350 1.376 . S
C351 C352 1.378 . S
C351 C378 1.486 . S
C352 H314 0.930 . S
C352 C351 1.378 . S
C352 C353 1.376 . S
C353 H315 0.929 . S
C353 C348 1.397 . S
C353 C352 1.376 . S
C354 C338 1.509 . S
C354 C355 1.391 . S
C354 C359 1.386 . S
C355 H316 0.930 . S
C355 C354 1.391 . S
C355 C356 1.375 . S
C356 H317 0.931 . S
C356 C355 1.375 . S
C356 C357 1.375 . S
C357 C356 1.375 . S
C357 C358 1.361 . S
C358 H318 0.930 . S
C358 C357 1.361 . S
C358 C359 1.399 . S
C359 H319 0.929 . S
C359 C354 1.386 . S
C359 C358 1.399 . S
C360 C339 1.485 . S
C360 C361 1.394 . S
C360 C365 1.360 . S
C361 H320 0.931 . S
C361 C360 1.394 . S
C361 C362 1.372 1_655 S
C362 H321 0.930 . S
C362 C361 1.372 1_455 S
C362 C363 1.397 . S
C363 C362 1.397 . S
C363 C364 1.390 1_455 S
C363 C379 1.476 . S
C364 H322 0.930 . S
C364 C363 1.390 1_655 S
C364 C365 1.366 . S
C365 H323 0.932 . S
C365 C360 1.360 . S
C365 C364 1.366 . S
C366 C340 1.490 . S
C366 C367 1.380 . S
C366 C371 1.386 . S
C367 H324 0.930 . S
C367 C366 1.380 . S
C367 C368 1.381 . S
C368 H325 0.929 . S
C368 C367 1.381 . S
C368 C369 1.371 . S
C369 C368 1.371 . S
C369 C370 1.380 . S
C370 H326 0.931 . S
C370 C369 1.380 . S
C370 C371 1.387 . S
C371 H327 0.930 . S
C371 C366 1.386 . S
C371 C370 1.387 . S
C372 C341 1.519 . S
C372 C373 1.377 . S
C372 C377 1.361 . S
C373 H328 0.929 . S
C373 C372 1.377 . S
C373 C374 1.386 . S
C374 H329 0.931 . S
C374 C373 1.386 . S
C374 C375 1.363 . S
C375 C374 1.363 . S
C375 C376 1.385 . S
C376 H330 0.930 . S
C376 C375 1.385 . S
C376 C377 1.396 . S
C377 H331 0.929 . S
C377 C372 1.361 . S
C377 C376 1.396 . S
C378 O332 1.300 . S
C378 O333 1.209 . S
C378 C351 1.486 . S
C379 O334 1.199 . S
C379 O335 1.297 . S
C379 C363 1.476 . S
H380 O406 0.856 . S
H381 O409 0.854 . S
H382 C417 0.930 . S
H383 C418 0.930 . S
H384 C420 0.930 . S
H385 C421 0.930 . S
H386 C423 0.931 . S
H387 C424 0.930 . S
H388 C426 0.930 . S
H389 C427 0.929 . S
H390 C429 0.930 . S
H391 C430 0.931 . S
H392 C432 0.930 . S
H393 C433 0.929 . S
H394 C435 0.931 . S
H395 C436 0.930 . S
H396 C438 0.930 . S
H397 C439 0.932 . S
H398 C441 0.930 . S
H399 C442 0.929 . S
H400 C444 0.931 . S
H401 C445 0.930 . S
H402 C447 0.929 . S
H403 C448 0.931 . S
H404 C450 0.930 . S
H405 C451 0.929 . S
O406 H380 0.856 . S
O406 C452 1.300 . S
O407 C452 1.209 . S
O408 C453 1.199 . S
O409 H381 0.854 . S
O409 C453 1.297 . S
C410 C411 1.404 . S
C410 C415 1.397 . S
C410 C416 1.492 . S
C411 C410 1.404 . S
C411 C412 1.396 . S
C411 C422 1.492 . S
C412 C411 1.396 . S
C412 C413 1.397 . S
C412 C428 1.509 . S
C413 C412 1.397 . S
C413 C414 1.412 . S
C413 C434 1.485 . S
C414 C413 1.412 . S
C414 C415 1.388 . S
C414 C440 1.490 . S
C415 C410 1.397 . S
C415 C414 1.388 . S
C415 C446 1.519 . S
C416 C410 1.492 . S
C416 C417 1.363 . S
C416 C421 1.390 . S
C417 H382 0.930 . S
C417 C416 1.363 . S
C417 C418 1.372 . S
C418 H383 0.930 . S
C418 C417 1.372 . S
C418 C419 1.383 . S
C419 C418 1.383 . S
C419 C420 1.395 . S
C420 H384 0.930 . S
C420 C419 1.395 . S
C420 C421 1.362 . S
C421 H385 0.930 . S
C421 C416 1.390 . S
C421 C420 1.362 . S
C422 C411 1.492 . S
C422 C423 1.377 . S
C422 C427 1.397 . S
C423 H386 0.931 . S
C423 C422 1.377 . S
C423 C424 1.376 . S
C424 H387 0.930 . S
C424 C423 1.376 . S
C424 C425 1.376 . S
C425 C424 1.376 . S
C425 C426 1.378 . S
C425 C452 1.486 . S
C426 H388 0.930 . S
C426 C425 1.378 . S
C426 C427 1.376 . S
C427 H389 0.929 . S
C427 C422 1.397 . S
C427 C426 1.376 . S
C428 C412 1.509 . S
C428 C429 1.391 . S
C428 C433 1.386 . S
C429 H390 0.930 . S
C429 C428 1.391 . S
C429 C430 1.375 . S
C430 H391 0.931 . S
C430 C429 1.375 . S
C430 C431 1.375 . S
C431 C430 1.375 . S
C431 C432 1.361 . S
C432 H392 0.930 . S
C432 C431 1.361 . S
C432 C433 1.399 . S
C433 H393 0.929 . S
C433 C428 1.386 . S
C433 C432 1.399 . S
C434 C413 1.485 . S
C434 C435 1.394 . S
C434 C439 1.360 . S
C435 H394 0.931 . S
C435 C434 1.394 . S
C435 C436 1.372 . S
C436 H395 0.930 . S
C436 C435 1.372 . S
C436 C437 1.397 . S
C437 C436 1.397 . S
C437 C438 1.390 . S
C437 C453 1.476 . S
C438 H396 0.930 . S
C438 C437 1.390 . S
C438 C439 1.366 . S
C439 H397 0.932 . S
C439 C434 1.360 . S
C439 C438 1.366 . S
C440 C414 1.490 . S
C440 C441 1.380 . S
C440 C445 1.386 . S
C441 H398 0.930 . S
C441 C440 1.380 . S
C441 C442 1.381 . S
C442 H399 0.929 . S
C442 C441 1.381 . S
C442 C443 1.371 . S
C443 C442 1.371 . S
C443 C444 1.380 . S
C444 H400 0.931 . S
C444 C443 1.380 . S
C444 C445 1.387 . S
C445 H401 0.930 . S
C445 C440 1.386 . S
C445 C444 1.387 . S
C446 C415 1.519 . S
C446 C447 1.377 . S
C446 C451 1.361 . S
C447 H402 0.929 . S
C447 C446 1.377 . S
C447 C448 1.386 . S
C448 H403 0.931 . S
C448 C447 1.386 . S
C448 C449 1.363 . S
C449 C448 1.363 . S
C449 C450 1.385 . S
C450 H404 0.930 . S
C450 C449 1.385 . S
C450 C451 1.396 . S
C451 H405 0.929 . S
C451 C446 1.361 . S
C451 C450 1.396 . S
C452 O406 1.300 . S
C452 O407 1.209 . S
C452 C425 1.486 . S
C453 O408 1.199 . S
C453 O409 1.297 . S
C453 C437 1.476 . S
H454 O480 0.856 . S
H455 O483 0.854 1_565 S
H456 C491 0.930 . S
H457 C492 0.930 . S
H458 C494 0.930 . S
H459 C495 0.930 . S
H460 C497 0.931 . S
H461 C498 0.930 . S
H462 C500 0.930 . S
H463 C501 0.929 . S
H464 C503 0.930 . S
H465 C504 0.931 . S
H466 C506 0.930 . S
H467 C507 0.929 . S
H468 C509 0.931 . S
H469 C510 0.930 . S
H470 C512 0.930 . S
H471 C513 0.932 . S
H472 C515 0.930 . S
H473 C516 0.929 . S
H474 C518 0.931 . S
H475 C519 0.930 . S
H476 C521 0.929 . S
H477 C522 0.931 . S
H478 C524 0.930 . S
H479 C525 0.929 . S
O480 H454 0.856 . S
O480 C526 1.300 . S
O481 C526 1.209 . S
O482 C527 1.199 . S
O483 H455 0.854 1_545 S
O483 C527 1.297 . S
C484 C485 1.404 . S
C484 C489 1.397 . S
C484 C490 1.492 . S
C485 C484 1.404 . S
C485 C486 1.396 . S
C485 C496 1.492 . S
C486 C485 1.396 . S
C486 C487 1.397 . S
C486 C502 1.509 . S
C487 C486 1.397 . S
C487 C488 1.412 . S
C487 C508 1.485 . S
C488 C487 1.412 . S
C488 C489 1.388 . S
C488 C514 1.490 . S
C489 C484 1.397 . S
C489 C488 1.388 . S
C489 C520 1.519 . S
C490 C484 1.492 . S
C490 C491 1.363 . S
C490 C495 1.390 . S
C491 H456 0.930 . S
C491 C490 1.363 . S
C491 C492 1.372 . S
C492 H457 0.930 . S
C492 C491 1.372 . S
C492 C493 1.383 . S
C493 C492 1.383 . S
C493 C494 1.395 . S
C494 H458 0.930 . S
C494 C493 1.395 . S
C494 C495 1.362 . S
C495 H459 0.930 . S
C495 C490 1.390 . S
C495 C494 1.362 . S
C496 C485 1.492 . S
C496 C497 1.377 . S
C496 C501 1.397 . S
C497 H460 0.931 . S
C497 C496 1.377 . S
C497 C498 1.376 . S
C498 H461 0.930 . S
C498 C497 1.376 . S
C498 C499 1.376 . S
C499 C498 1.376 . S
C499 C500 1.378 . S
C499 C526 1.486 . S
C500 H462 0.930 . S
C500 C499 1.378 . S
C500 C501 1.376 . S
C501 H463 0.929 . S
C501 C496 1.397 . S
C501 C500 1.376 . S
C502 C486 1.509 . S
C502 C503 1.391 . S
C502 C507 1.386 . S
C503 H464 0.930 . S
C503 C502 1.391 . S
C503 C504 1.375 . S
C504 H465 0.931 . S
C504 C503 1.375 . S
C504 C505 1.375 . S
C505 C504 1.375 . S
C505 C506 1.361 . S
C506 H466 0.930 . S
C506 C505 1.361 . S
C506 C507 1.399 . S
C507 H467 0.929 . S
C507 C502 1.386 . S
C507 C506 1.399 . S
C508 C487 1.485 . S
C508 C509 1.394 . S
C508 C513 1.360 . S
C509 H468 0.931 . S
C509 C508 1.394 . S
C509 C510 1.372 . S
C510 H469 0.930 . S
C510 C509 1.372 . S
C510 C511 1.397 . S
C511 C510 1.397 . S
C511 C512 1.390 . S
C511 C527 1.476 . S
C512 H470 0.930 . S
C512 C511 1.390 . S
C512 C513 1.366 . S
C513 H471 0.932 . S
C513 C508 1.360 . S
C513 C512 1.366 . S
C514 C488 1.490 . S
C514 C515 1.380 . S
C514 C519 1.386 . S
C515 H472 0.930 . S
C515 C514 1.380 . S
C515 C516 1.381 . S
C516 H473 0.929 . S
C516 C515 1.381 . S
C516 C517 1.371 . S
C517 C516 1.371 . S
C517 C518 1.380 . S
C518 H474 0.931 . S
C518 C517 1.380 . S
C518 C519 1.387 . S
C519 H475 0.930 . S
C519 C514 1.386 . S
C519 C518 1.387 . S
C520 C489 1.519 . S
C520 C521 1.377 . S
C520 C525 1.361 . S
C521 H476 0.929 . S
C521 C520 1.377 . S
C521 C522 1.386 . S
C522 H477 0.931 . S
C522 C521 1.386 . S
C522 C523 1.363 . S
C523 C522 1.363 . S
C523 C524 1.385 . S
C524 H478 0.930 . S
C524 C523 1.385 . S
C524 C525 1.396 . S
C525 H479 0.929 . S
C525 C520 1.361 . S
C525 C524 1.396 . S
C526 O480 1.300 . S
C526 O481 1.209 . S
C526 C499 1.486 . S
C527 O482 1.199 . S
C527 O483 1.297 . S
C527 C511 1.476 . S
H528 C534 0.930 . S
H529 C538 0.930 . S
H530 C543 0.929 . S
H531 C541 0.929 . S
H532 C536 0.929 . S
H533 C542 0.929 . S
C534 H528 0.930 . S
C534 C535 1.367 . S
C534 C542 1.378 . S
C535 C534 1.367 . S
C535 C543 1.433 . S
C536 H532 0.929 . S
C536 C538 1.378 . S
C536 C540 1.350 . S
C537 C540 1.463 . S
C537 C542 1.350 . S
C537 N545 1.427 . S
C538 H529 0.930 . S
C538 C536 1.378 . S
C538 C539 1.367 . S
C539 C538 1.367 . S
C539 C541 1.433 . S
C540 C536 1.350 . S
C540 C537 1.463 . S
C540 N544 1.427 . S
C541 H531 0.929 . S
C541 C539 1.433 . S
C541 N544 1.384 . S
C542 H533 0.929 . S
C542 C534 1.378 . S
C542 C537 1.350 . S
C543 H530 0.929 . S
C543 C535 1.433 . S
C543 N545 1.384 . S
N544 C540 1.427 . S
N544 C541 1.384 . S
N545 C537 1.427 . S
N545 C543 1.384 . S
H546 C552 0.930 . S
H547 C556 0.930 . S
H548 C561 0.929 . S
H549 C559 0.929 . S
H550 C554 0.929 . S
H551 C560 0.929 . S
C552 H546 0.930 . S
C552 C553 1.367 . S
C552 C560 1.378 . S
C553 C552 1.367 . S
C553 C561 1.433 . S
C554 H550 0.929 . S
C554 C556 1.378 . S
C554 C558 1.350 . S
C555 C558 1.463 . S
C555 C560 1.350 . S
C555 N563 1.427 . S
C556 H547 0.930 . S
C556 C554 1.378 . S
C556 C557 1.367 . S
C557 C556 1.367 . S
C557 C559 1.433 . S
C558 C554 1.350 . S
C558 C555 1.463 . S
C558 N562 1.427 . S
C559 H549 0.929 . S
C559 C557 1.433 . S
C559 N562 1.384 . S
C560 H551 0.929 . S
C560 C552 1.378 . S
C560 C555 1.350 . S
C561 H548 0.929 . S
C561 C553 1.433 . S
C561 N563 1.384 . S
N562 C558 1.427 . S
N562 C559 1.384 . S
N563 C555 1.427 . S
N563 C561 1.384 . S
H564 C570 0.930 . S
H565 C574 0.930 . S
H566 C579 0.929 . S
H567 C577 0.929 . S
H568 C572 0.929 . S
H569 C578 0.929 . S
C570 H564 0.930 . S
C570 C571 1.367 . S
C570 C578 1.378 . S
C571 C570 1.367 . S
C571 C579 1.433 . S
C572 H568 0.929 . S
C572 C574 1.378 . S
C572 C576 1.350 . S
C573 C576 1.463 . S
C573 C578 1.350 . S
C573 N581 1.427 . S
C574 H565 0.930 . S
C574 C572 1.378 . S
C574 C575 1.367 . S
C575 C574 1.367 . S
C575 C577 1.433 . S
C576 C572 1.350 . S
C576 C573 1.463 . S
C576 N580 1.427 . S
C577 H567 0.929 . S
C577 C575 1.433 . S
C577 N580 1.384 . S
C578 H569 0.929 . S
C578 C570 1.378 . S
C578 C573 1.350 . S
C579 H566 0.929 . S
C579 C571 1.433 . S
C579 N581 1.384 . S
N580 C576 1.427 . S
N580 C577 1.384 . S
N581 C573 1.427 . S
N581 C579 1.384 . S
H582 C588 0.930 . S
H583 C592 0.930 . S
H584 C597 0.929 . S
H585 C595 0.929 . S
H586 C590 0.929 . S
H587 C596 0.929 . S
C588 H582 0.930 . S
C588 C589 1.367 . S
C588 C596 1.378 . S
C589 C588 1.367 . S
C589 C597 1.433 . S
C590 H586 0.929 . S
C590 C592 1.378 . S
C590 C594 1.350 . S
C591 C594 1.463 . S
C591 C596 1.350 . S
C591 N599 1.427 . S
C592 H583 0.930 . S
C592 C590 1.378 . S
C592 C593 1.367 . S
C593 C592 1.367 . S
C593 C595 1.433 . S
C594 C590 1.350 . S
C594 C591 1.463 . S
C594 N598 1.427 . S
C595 H585 0.929 . S
C595 C593 1.433 . S
C595 N598 1.384 . S
C596 H587 0.929 . S
C596 C588 1.378 . S
C596 C591 1.350 . S
C597 H584 0.929 . S
C597 C589 1.433 . S
C597 N599 1.384 . S
N598 C594 1.427 . S
N598 C595 1.384 . S
N599 C591 1.427 . S
N599 C597 1.384 . S
H600 C606 0.944 . S
H601 C610 0.930 . S
H602 C615 0.929 1_545 S
H603 C613 0.929 . S
H604 C608 0.929 . S
H605 C614 0.929 . S
C606 H600 0.944 . S
C606 C607 1.359 . S
C606 C614 1.372 1_545 S
C607 C606 1.359 . S
C607 C615 1.433 1_545 S
C608 H604 0.929 . S
C608 C610 1.378 . S
C608 C612 1.350 . S
C609 C612 1.463 . S
C609 C614 1.350 . S
C609 N617 1.427 . S
C610 H601 0.930 . S
C610 C608 1.378 . S
C610 C611 1.367 . S
C611 C610 1.367 . S
C611 C613 1.433 . S
C612 C608 1.350 . S
C612 C609 1.463 . S
C612 N616 1.427 . S
C613 H603 0.929 . S
C613 C611 1.433 . S
C613 N616 1.384 . S
C614 H605 0.929 . S
C614 C606 1.372 1_565 S
C614 C609 1.350 . S
C615 H602 0.929 1_565 S
C615 C607 1.433 1_565 S
C615 N617 1.384 . S
N616 C612 1.427 . S
N616 C613 1.384 . S
N617 C609 1.427 . S
N617 C615 1.384 . S
H618 C624 0.930 . S
H619 C628 0.930 . S
H620 C633 0.929 . S
H621 C631 0.929 . S
H622 C626 0.929 . S
H623 C632 0.929 . S
C624 H618 0.930 . S
C624 C625 1.367 . S
C624 C632 1.378 . S
C625 C624 1.367 . S
C625 C633 1.433 . S
C626 H622 0.929 . S
C626 C628 1.378 . S
C626 C630 1.350 . S
C627 C630 1.463 . S
C627 C632 1.350 . S
C627 N635 1.427 . S
C628 H619 0.930 . S
C628 C626 1.378 . S
C628 C629 1.367 . S
C629 C628 1.367 . S
C629 C631 1.433 . S
C630 C626 1.350 . S
C630 C627 1.463 . S
C630 N634 1.427 . S
C631 H621 0.929 . S
C631 C629 1.433 . S
C631 N634 1.384 . S
C632 H623 0.929 . S
C632 C624 1.378 . S
C632 C627 1.350 . S
C633 H620 0.929 . S
C633 C625 1.433 . S
C633 N635 1.384 . S
N634 C630 1.427 . S
N634 C631 1.384 . S
N635 C627 1.427 . S
N635 C633 1.384 . S
H636 C642 0.930 . S
H637 C646 0.930 . S
H638 C651 0.929 . S
H639 C649 0.929 . S
H640 C644 0.929 . S
H641 C650 0.929 . S
C642 H636 0.930 . S
C642 C643 1.367 . S
C642 C650 1.378 . S
C643 C642 1.367 . S
C643 C651 1.433 . S
C644 H640 0.929 . S
C644 C646 1.378 . S
C644 C648 1.350 . S
C645 C648 1.463 . S
C645 C650 1.350 . S
C645 N653 1.427 . S
C646 H637 0.930 . S
C646 C644 1.378 . S
C646 C647 1.367 . S
C647 C646 1.367 . S
C647 C649 1.433 . S
C648 C644 1.350 . S
C648 C645 1.463 . S
C648 N652 1.427 . S
C649 H639 0.929 . S
C649 C647 1.433 . S
C649 N652 1.384 . S
C650 H641 0.929 . S
C650 C642 1.378 . S
C650 C645 1.350 . S
C651 H638 0.929 . S
C651 C643 1.433 . S
C651 N653 1.384 . S
N652 C648 1.427 . S
N652 C649 1.384 . S
N653 C645 1.427 . S
N653 C651 1.384 . S
H654 C660 0.930 1_556 S
H655 C664 0.930 . S
H656 C669 0.929 . S
H657 C667 0.929 . S
H658 C662 0.929 . S
H659 C668 0.929 . S
C660 H654 0.930 1_554 S
C660 C661 1.367 . S
C660 C668 1.378 1_554 S
C661 C660 1.367 . S
C661 C669 1.433 . S
C662 H658 0.929 . S
C662 C664 1.378 . S
C662 C666 1.350 . S
C663 C666 1.463 . S
C663 C668 1.350 . S
C663 N671 1.427 1_556 S
C664 H655 0.930 . S
C664 C662 1.378 . S
C664 C665 1.367 . S
C665 C664 1.367 . S
C665 C667 1.433 . S
C666 C662 1.350 . S
C666 C663 1.463 . S
C666 N670 1.427 . S
C667 H657 0.929 . S
C667 C665 1.433 . S
C667 N670 1.384 . S
C668 H659 0.929 . S
C668 C660 1.378 1_556 S
C668 C663 1.350 . S
C669 H656 0.929 . S
C669 C661 1.433 . S
C669 N671 1.384 . S
N670 C666 1.427 . S
N670 C667 1.384 . S
N671 C663 1.427 1_554 S
N671 C669 1.384 . S
H672 C678 0.930 . S
H673 C682 0.930 . S
H674 C687 0.929 . S
H675 C685 0.929 . S
H676 C680 0.929 . S
H677 C686 0.929 . S
C678 H672 0.930 . S
C678 C679 1.367 . S
C678 C686 1.378 . S
C679 C678 1.367 . S
C679 C687 1.433 . S
C680 H676 0.929 . S
C680 C682 1.378 . S
C680 C684 1.350 . S
C681 C684 1.463 . S
C681 C686 1.350 . S
C681 N689 1.427 . S
C682 H673 0.930 . S
C682 C680 1.378 . S
C682 C683 1.367 . S
C683 C682 1.367 . S
C683 C685 1.433 . S
C684 C680 1.350 . S
C684 C681 1.463 . S
C684 N688 1.427 . S
C685 H675 0.929 . S
C685 C683 1.433 . S
C685 N688 1.384 . S
C686 H677 0.929 . S
C686 C678 1.378 . S
C686 C681 1.350 . S
C687 H674 0.929 . S
C687 C679 1.433 . S
C687 N689 1.384 . S
N688 C684 1.427 . S
N688 C685 1.384 . S
N689 C681 1.427 . S
N689 C687 1.384 . S
H690 C696 0.930 . S
H691 C700 0.930 . S
H692 C705 0.929 . S
H693 C703 0.929 . S
H694 C698 0.929 . S
H695 C704 0.929 . S
C696 H690 0.930 . S
C696 C697 1.367 . S
C696 C704 1.378 . S
C697 C696 1.367 . S
C697 C705 1.433 . S
C698 H694 0.929 . S
C698 C700 1.378 . S
C698 C702 1.350 . S
C699 C702 1.463 1_554 S
C699 C704 1.350 . S
C699 N707 1.427 1_554 S
C700 H691 0.930 . S
C700 C698 1.378 . S
C700 C701 1.367 . S
C701 C700 1.367 . S
C701 C703 1.433 . S
C702 C698 1.350 . S
C702 C699 1.463 1_556 S
C702 N706 1.427 . S
C703 H693 0.929 . S
C703 C701 1.433 . S
C703 N706 1.384 . S
C704 H695 0.929 . S
C704 C696 1.378 . S
C704 C699 1.350 . S
C705 H692 0.929 . S
C705 C697 1.433 . S
C705 N707 1.384 1_554 S
N706 C702 1.427 . S
N706 C703 1.384 . S
N707 C699 1.427 1_556 S
N707 C705 1.384 1_556 S
H708 C714 0.930 . S
H709 C718 0.930 . S
H710 C723 0.929 . S
H711 C721 0.929 . S
H712 C716 0.929 . S
H713 C722 0.929 . S
C714 H708 0.930 . S
C714 C715 1.367 . S
C714 C722 1.378 . S
C715 C714 1.367 . S
C715 C723 1.433 . S
C716 H712 0.929 . S
C716 C718 1.378 . S
C716 C720 1.350 . S
C717 C720 1.463 . S
C717 C722 1.350 . S
C717 N725 1.427 . S
C718 H709 0.930 . S
C718 C716 1.378 . S
C718 C719 1.367 . S
C719 C718 1.367 . S
C719 C721 1.433 . S
C720 C716 1.350 . S
C720 C717 1.463 . S
C720 N724 1.427 . S
C721 H711 0.929 . S
C721 C719 1.433 . S
C721 N724 1.384 . S
C722 H713 0.929 . S
C722 C714 1.378 . S
C722 C717 1.350 . S
C723 H710 0.929 . S
C723 C715 1.433 . S
C723 N725 1.384 . S
N724 C720 1.427 . S
N724 C721 1.384 . S
N725 C717 1.427 . S
N725 C723 1.384 . S
H726 C732 0.930 . S
H727 C736 0.930 . S
H728 C741 0.929 . S
H729 C739 0.929 . S
H730 C734 0.929 . S
H731 C740 0.929 . S
C732 H726 0.930 . S
C732 C733 1.367 . S
C732 C740 1.378 . S
C733 C732 1.367 . S
C733 C741 1.433 . S
C734 H730 0.929 . S
C734 C736 1.378 . S
C734 C738 1.350 . S
C735 C738 1.463 . S
C735 C740 1.350 . S
C735 N743 1.427 . S
C736 H727 0.930 . S
C736 C734 1.378 . S
C736 C737 1.367 . S
C737 C736 1.367 . S
C737 C739 1.433 . S
C738 C734 1.350 . S
C738 C735 1.463 . S
C738 N742 1.427 . S
C739 H729 0.929 . S
C739 C737 1.433 . S
C739 N742 1.384 . S
C740 H731 0.929 . S
C740 C732 1.378 . S
C740 C735 1.350 . S
C741 H728 0.929 . S
C741 C733 1.433 . S
C741 N743 1.384 . S
N742 C738 1.427 . S
N742 C739 1.384 . S
N743 C735 1.427 . S
N743 C741 1.384 . S
H744 C750 0.930 . S
H745 C754 0.930 1_655 S
H746 C759 0.929 . S
H747 C757 0.929 . S
H748 C752 0.929 . S
H749 C758 0.929 . S
C750 H744 0.930 . S
C750 C751 1.367 . S
C750 C758 1.378 . S
C751 C750 1.367 . S
C751 C759 1.433 . S
C752 H748 0.929 . S
C752 C754 1.378 . S
C752 C756 1.350 . S
C753 C756 1.463 . S
C753 C758 1.350 . S
C753 N761 1.427 . S
C754 H745 0.930 1_455 S
C754 C752 1.378 . S
C754 C755 1.367 . S
C755 C754 1.367 . S
C755 C757 1.433 . S
C756 C752 1.350 . S
C756 C753 1.463 . S
C756 N760 1.427 . S
C757 H747 0.929 . S
C757 C755 1.433 . S
C757 N760 1.384 . S
C758 H749 0.929 . S
C758 C750 1.378 . S
C758 C753 1.350 . S
C759 H746 0.929 . S
C759 C751 1.433 . S
C759 N761 1.384 . S
N760 C756 1.427 . S
N760 C757 1.384 . S
N761 C753 1.427 . S
N761 C759 1.384 . S
H762 C768 0.930 . S
H763 C772 0.930 . S
H764 C777 0.929 . S
H765 C775 0.929 . S
H766 C770 0.929 . S
H767 C776 0.929 . S
C768 H762 0.930 . S
C768 C769 1.367 . S
C768 C776 1.378 . S
C769 C768 1.367 . S
C769 C777 1.433 . S
C770 H766 0.929 . S
C770 C772 1.378 . S
C770 C774 1.350 . S
C771 C774 1.463 . S
C771 C776 1.350 . S
C771 N779 1.427 . S
C772 H763 0.930 . S
C772 C770 1.378 . S
C772 C773 1.367 . S
C773 C772 1.367 . S
C773 C775 1.433 . S
C774 C770 1.350 . S
C774 C771 1.463 . S
C774 N778 1.427 . S
C775 H765 0.929 . S
C775 C773 1.433 . S
C775 N778 1.384 . S
C776 H767 0.929 . S
C776 C768 1.378 . S
C776 C771 1.350 . S
C777 H764 0.929 . S
C777 C769 1.433 . S
C777 N779 1.384 . S
N778 C774 1.427 . S
N778 C775 1.384 . S
N779 C771 1.427 . S
N779 C777 1.384 . S
H780 C786 0.930 . S
H781 C790 0.930 . S
H782 C795 0.929 . S
H783 C793 0.929 . S
H784 C788 0.929 . S
H785 C794 0.929 . S
C786 H780 0.930 . S
C786 C787 1.367 1_556 S
C786 C794 1.378 . S
C787 C786 1.367 1_554 S
C787 C795 1.433 . S
C788 H784 0.929 . S
C788 C790 1.378 . S
C788 C792 1.350 . S
C789 C792 1.463 . S
C789 C794 1.350 . S
C789 N797 1.427 1_556 S
C790 H781 0.930 . S
C790 C788 1.378 . S
C790 C791 1.367 . S
C791 C790 1.367 . S
C791 C793 1.433 . S
C792 C788 1.350 . S
C792 C789 1.463 . S
C792 N796 1.427 . S
C793 H783 0.929 . S
C793 C791 1.433 . S
C793 N796 1.384 . S
C794 H785 0.929 . S
C794 C786 1.378 . S
C794 C789 1.350 . S
C795 H782 0.929 . S
C795 C787 1.433 . S
C795 N797 1.384 . S
N796 C792 1.427 . S
N796 C793 1.384 . S
N797 C789 1.427 1_554 S
N797 C795 1.384 . S
H798 C804 0.930 . S
H799 C808 0.930 . S
H800 C813 0.929 . S
H801 C811 0.929 . S
H802 C806 0.929 . S
H803 C812 0.929 . S
C804 H798 0.930 . S
C804 C805 1.367 . S
C804 C812 1.378 . S
C805 C804 1.367 . S
C805 C813 1.433 . S
C806 H802 0.929 . S
C806 C808 1.378 . S
C806 C810 1.350 . S
C807 C810 1.463 . S
C807 C812 1.350 . S
C807 N815 1.427 . S
C808 H799 0.930 . S
C808 C806 1.378 . S
C808 C809 1.367 . S
C809 C808 1.367 . S
C809 C811 1.433 . S
C810 C806 1.350 . S
C810 C807 1.463 . S
C810 N814 1.427 . S
C811 H801 0.929 . S
C811 C809 1.433 . S
C811 N814 1.384 . S
C812 H803 0.929 . S
C812 C804 1.378 . S
C812 C807 1.350 . S
C813 H800 0.929 . S
C813 C805 1.433 . S
C813 N815 1.384 . S
N814 C810 1.427 . S
N814 C811 1.384 . S
N815 C807 1.427 . S
N815 C813 1.384 . S
H816 C822 0.930 . S
H817 C826 0.930 . S
H818 C831 0.929 . S
H819 C829 0.929 . S
H820 C824 0.929 . S
H821 C830 0.929 . S
C822 H816 0.930 . S
C822 C823 1.367 . S
C822 C830 1.378 . S
C823 C822 1.367 . S
C823 C831 1.433 . S
C824 H820 0.929 . S
C824 C826 1.378 . S
C824 C828 1.350 . S
C825 C828 1.463 1_554 S
C825 C830 1.350 . S
C825 N833 1.427 1_554 S
C826 H817 0.930 . S
C826 C824 1.378 . S
C826 C827 1.367 . S
C827 C826 1.367 . S
C827 C829 1.433 . S
C828 C824 1.350 . S
C828 C825 1.463 1_556 S
C828 N832 1.427 1_556 S
C829 H819 0.929 . S
C829 C827 1.433 . S
C829 N832 1.384 1_556 S
C830 H821 0.929 . S
C830 C822 1.378 . S
C830 C825 1.350 . S
C831 H818 0.929 . S
C831 C823 1.433 . S
C831 N833 1.384 1_554 S
N832 C828 1.427 1_554 S
N832 C829 1.384 1_554 S
N833 C825 1.427 1_556 S
N833 C831 1.384 1_556 S
H834 C840 0.930 . S
H835 C844 0.930 . S
H836 C849 0.929 . S
H837 C847 0.929 . S
H838 C842 0.929 . S
H839 C848 0.929 . S
C840 H834 0.930 . S
C840 C841 1.367 . S
C840 C848 1.378 . S
C841 C840 1.367 . S
C841 C849 1.433 . S
C842 H838 0.929 . S
C842 C844 1.378 . S
C842 C846 1.350 . S
C843 C846 1.463 . S
C843 C848 1.350 . S
C843 N851 1.427 . S
C844 H835 0.930 . S
C844 C842 1.378 . S
C844 C845 1.367 . S
C845 C844 1.367 . S
C845 C847 1.433 . S
C846 C842 1.350 . S
C846 C843 1.463 . S
C846 N850 1.427 . S
C847 H837 0.929 . S
C847 C845 1.433 . S
C847 N850 1.384 . S
C848 H839 0.929 . S
C848 C840 1.378 . S
C848 C843 1.350 . S
C849 H836 0.929 . S
C849 C841 1.433 . S
C849 N851 1.384 . S
N850 C846 1.427 . S
N850 C847 1.384 . S
N851 C843 1.427 . S
N851 C849 1.384 . S
H852 C858 0.930 . S
H853 C862 0.930 . S
H854 C867 0.929 . S
H855 C865 0.929 . S
H856 C860 0.929 . S
H857 C866 0.929 . S
C858 H852 0.930 . S
C858 C859 1.367 . S
C858 C866 1.378 . S
C859 C858 1.367 . S
C859 C867 1.433 . S
C860 H856 0.929 . S
C860 C862 1.378 . S
C860 C864 1.350 . S
C861 C864 1.463 . S
C861 C866 1.350 . S
C861 N869 1.427 . S
C862 H853 0.930 . S
C862 C860 1.378 . S
C862 C863 1.367 . S
C863 C862 1.367 . S
C863 C865 1.433 . S
C864 C860 1.350 . S
C864 C861 1.463 . S
C864 N868 1.427 . S
C865 H855 0.929 . S
C865 C863 1.433 . S
C865 N868 1.384 . S
C866 H857 0.929 . S
C866 C858 1.378 . S
C866 C861 1.350 . S
C867 H854 0.929 . S
C867 C859 1.433 . S
C867 N869 1.384 . S
N868 C864 1.427 . S
N868 C865 1.384 . S
N869 C861 1.427 . S
N869 C867 1.384 . S
H870 C876 0.930 . S
H871 C880 0.930 . S
H872 C885 0.929 . S
H873 C883 0.929 . S
H874 C878 0.929 . S
H875 C884 0.929 . S
C876 H870 0.930 . S
C876 C877 1.367 . S
C876 C884 1.378 . S
C877 C876 1.367 . S
C877 C885 1.433 . S
C878 H874 0.929 . S
C878 C880 1.378 . S
C878 C882 1.350 . S
C879 C882 1.463 . S
C879 C884 1.350 . S
C879 N887 1.427 . S
C880 H871 0.930 . S
C880 C878 1.378 . S
C880 C881 1.367 . S
C881 C880 1.367 . S
C881 C883 1.433 . S
C882 C878 1.350 . S
C882 C879 1.463 . S
C882 N886 1.427 . S
C883 H873 0.929 . S
C883 C881 1.433 . S
C883 N886 1.384 . S
C884 H875 0.929 . S
C884 C876 1.378 . S
C884 C879 1.350 . S
C885 H872 0.929 . S
C885 C877 1.433 . S
C885 N887 1.384 . S
N886 C882 1.427 . S
N886 C883 1.384 . S
N887 C879 1.427 . S
N887 C885 1.384 . S
H888 C894 0.930 . S
H889 C898 0.930 1_455 S
H890 C903 0.929 1_455 S
H891 C901 0.929 . S
H892 C896 0.929 1_455 S
H893 C902 0.929 . S
C894 H888 0.930 . S
C894 C895 1.367 . S
C894 C902 1.378 . S
C895 C894 1.367 . S
C895 C903 1.433 . S
C896 H892 0.929 1_655 S
C896 C898 1.378 . S
C896 C900 1.350 . S
C897 C900 1.463 . S
C897 C902 1.350 . S
C897 N905 1.427 . S
C898 H889 0.930 1_655 S
C898 C896 1.378 . S
C898 C899 1.367 . S
C899 C898 1.367 . S
C899 C901 1.433 . S
C900 C896 1.350 . S
C900 C897 1.463 . S
C900 N904 1.427 . S
C901 H891 0.929 . S
C901 C899 1.433 . S
C901 N904 1.384 . S
C902 H893 0.929 . S
C902 C894 1.378 . S
C902 C897 1.350 . S
C903 H890 0.929 1_655 S
C903 C895 1.433 . S
C903 N905 1.384 . S
N904 C900 1.427 . S
N904 C901 1.384 . S
N905 C897 1.427 . S
N905 C903 1.384 . S
H906 C912 0.930 . S
H907 C916 0.930 . S
H908 C921 0.929 . S
H909 C919 0.929 1_545 S
H910 C914 0.929 . S
H911 C920 0.929 . S
C912 H906 0.930 . S
C912 C913 1.367 . S
C912 C920 1.378 . S
C913 C912 1.367 . S
C913 C921 1.433 1_545 S
C914 H910 0.929 . S
C914 C916 1.378 . S
C914 C918 1.350 . S
C915 C918 1.463 . S
C915 C920 1.350 1_565 S
C915 N923 1.427 . S
C916 H907 0.930 . S
C916 C914 1.378 . S
C916 C917 1.367 . S
C917 C916 1.367 . S
C917 C919 1.433 . S
C918 C914 1.350 . S
C918 C915 1.463 . S
C918 N922 1.427 1_565 S
C919 H909 0.929 1_565 S
C919 C917 1.433 . S
C919 N922 1.384 1_565 S
C920 H911 0.929 . S
C920 C912 1.378 . S
C920 C915 1.350 1_545 S
C921 H908 0.929 . S
C921 C913 1.433 1_565 S
C921 N923 1.384 . S
N922 C918 1.427 1_545 S
N922 C919 1.384 1_545 S
N923 C915 1.427 . S
N923 C921 1.384 . S
H924 C930 0.930 . S
H925 C934 0.930 . S
H926 C939 0.929 . S
H927 C937 0.929 . S
H928 C932 0.929 . S
H929 C938 0.929 . S
C930 H924 0.930 . S
C930 C931 1.367 . S
C930 C938 1.378 . S
C931 C930 1.367 . S
C931 C939 1.433 . S
C932 H928 0.929 . S
C932 C934 1.378 . S
C932 C936 1.350 . S
C933 C936 1.463 . S
C933 C938 1.350 . S
C933 N941 1.427 . S
C934 H925 0.930 . S
C934 C932 1.378 . S
C934 C935 1.367 . S
C935 C934 1.367 . S
C935 C937 1.433 . S
C936 C932 1.350 . S
C936 C933 1.463 . S
C936 N940 1.427 . S
C937 H927 0.929 . S
C937 C935 1.433 . S
C937 N940 1.384 . S
C938 H929 0.929 . S
C938 C930 1.378 . S
C938 C933 1.350 . S
C939 H926 0.929 . S
C939 C931 1.433 . S
C939 N941 1.384 . S
N940 C936 1.427 . S
N940 C937 1.384 . S
N941 C933 1.427 . S
N941 C939 1.384 . S
H942 C948 0.930 . S
H943 C952 0.930 . S
H944 C957 0.929 . S
H945 C955 0.929 . S
H946 C950 0.929 . S
H947 C956 0.929 . S
C948 H942 0.930 . S
C948 C949 1.367 . S
C948 C956 1.378 . S
C949 C948 1.367 . S
C949 C957 1.433 . S
C950 H946 0.929 . S
C950 C952 1.378 . S
C950 C954 1.350 . S
C951 C954 1.463 . S
C951 C956 1.350 . S
C951 N959 1.427 . S
C952 H943 0.930 . S
C952 C950 1.378 . S
C952 C953 1.367 . S
C953 C952 1.367 . S
C953 C955 1.433 . S
C954 C950 1.350 . S
C954 C951 1.463 . S
C954 N958 1.427 . S
C955 H945 0.929 . S
C955 C953 1.433 . S
C955 N958 1.384 . S
C956 H947 0.929 . S
C956 C948 1.378 . S
C956 C951 1.350 . S
C957 H944 0.929 . S
C957 C949 1.433 . S
C957 N959 1.384 . S
N958 C954 1.427 . S
N958 C955 1.384 . S
N959 C951 1.427 . S
N959 C957 1.384 . S
C535 C13 2.196 . S
C539 C147 2.137 . S
C553 C27 1.399 . S
C557 C221 1.358 . S
C575 C271 1.776 . S
C571 C29 1.843 . S
C593 C357 1.334 . S
C589 C54 1.343 . S
C611 C449 1.881 . S
C607 C69 1.877 . S
C629 C493 1.843 . S
C625 C83 1.893 . S
C643 C15 1.312 . S
C647 C295 1.244 . S
C661 C41 2.491 . S
C665 C375 2.454 . S
C683 C431 1.413 . S
C679 C42 1.418 . S
C701 C517 1.483 . S
C697 C57 1.527 . S
C715 C71 2.159 . S
C719 C123 2.058 . S
C737 C197 1.864 1_455 S
C733 C1 1.900 . S
C755 C369 1.925 1_455 S
C751 C12 2.120 . S
C769 C26 2.214 . S
C773 C419 2.033 . S
C791 C523 2.300 . S
C787 C28 2.413 . S
C805 C55 1.494 . S
C809 C135 1.448 . S
C823 C68 2.022 . S
C827 C209 1.914 . S
C841 C82 2.419 . S
C845 C301 2.306 . S
C859 C14 2.001 . S
C863 C505 1.896 . S
C881 C153 2.147 . S
C877 C40 2.190 . S
C895 C43 2.406 . S
C899 C227 2.281 . S
C913 C56 1.821 . S
C917 C283 1.696 . S
C931 C70 1.705 . S
C935 C345 1.551 . S
C949 C0 2.170 . S
C953 C443 2.017 . S
