# Generated by pormake.
# Topology pts, (4,4)-cn, num edge types: 1
# Building blocks:
#     Node 0, Type 0, BuildingBlock: KUFVIS_clean_linker_0, # of connection points: 4
#     Node 1, Type 0, BuildingBlock: KUFVIS_clean_linker_0, # of connection points: 4
#     Node 2, Type 1, BuildingBlock: AZAVOO_clean_sbu_0, # of connection points: 4
#     Node 3, Type 1, BuildingBlock: AZAVOO_clean_sbu_0, # of connection points: 4
#     Edge 4, Type (0, 1), BuildingBlock: ZUJKAS_clean_linker_0, # of connection points: 2
#     Edge 5, Type (0, 1), BuildingBlock: ZUJKAS_clean_linker_0, # of connection points: 2
#     Edge 6, Type (0, 1), BuildingBlock: ZUJKAS_clean_linker_0, # of connection points: 2
#     Edge 7, Type (0, 1), BuildingBlock: ZUJKAS_clean_linker_0, # of connection points: 2
#     Edge 8, Type (0, 1), BuildingBlock: ZUJKAS_clean_linker_0, # of connection points: 2
#     Edge 9, Type (0, 1), BuildingBlock: ZUJKAS_clean_linker_0, # of connection points: 2
#     Edge 10, Type (0, 1), BuildingBlock: ZUJKAS_clean_linker_0, # of connection points: 2
#     Edge 11, Type (0, 1), BuildingBlock: ZUJKAS_clean_linker_0, # of connection points: 2
# Relax obj value: 0.013
# Max RMSD: 0.077
# Mean RMSD: 0.073
data_MOF--net-pts--node1-AZAVOO_clean_sbu_0--node2-KUFVIS_clean_linker_0--edge1-ZUJKAS_clean_linker_0
_symmetry_space_group_name_H-M    P1
_symmetry_Int_Tables_number       1
_symmetry_cell_setting            triclinic
loop_
_symmetry_equiv_pos_as_xyz
'x, y, z'
_cell_length_a     32.079721
_cell_length_b     33.358875
_cell_length_c     44.74347
_cell_angle_alpha  90.000555
_cell_angle_beta   95.800159
_cell_angle_gamma 89.70831
loop_
_atom_site_label
_atom_site_type_symbol
_atom_site_fract_x
_atom_site_fract_y
_atom_site_fract_z
_atom_type_partial_charge
H0 H 0.40363 0.03068 0.98323 0.0
H1 H 0.51428 0.03312 0.93711 0.0
H2 H 0.52085 0.05978 0.03239 0.0
H3 H 0.58358 0.02966 0.03218 0.0
H4 H 0.69277 0.05638 -0.01141 0.0
H5 H 0.57161 0.07193 0.94005 0.0
C6 C 0.43721 0.0349 0.98363 0.0
C7 C 0.46042 0.04448 0.01073 0.0
C8 C 0.45627 0.03165 0.957 0.0
C9 C 0.49974 0.03739 0.95768 0.0
C10 C 0.52419 0.04695 0.98491 0.0
C11 C 0.50358 0.05145 0.01128 0.0
C12 C 0.57101 0.05076 -0.01395 0.0
C13 C 0.59697 0.04062 0.0125 0.0
C14 C 0.64077 0.04278 0.01342 0.0
C15 C 0.6589 0.05518 -0.0121 0.0
C16 C 0.63422 0.06541 0.96141 0.0
C17 C 0.59034 0.06328 0.96054 0.0
H18 H 1.01561 0.65819 0.48633 0.0
H19 H 0.04023 0.54854 0.53479 0.0
H20 H 0.02128 0.54825 0.43759 0.0
H21 H 0.06384 0.49548 0.44299 0.0
H22 H 0.05296 0.38167 0.48521 0.0
H23 H 1.01221 0.48735 0.52866 0.0
C24 C 1.01893 0.62582 0.48628 0.0
C25 C 1.01814 0.60546 0.45888 0.0
C26 C 0.02606 0.60535 0.51365 0.0
C27 C 0.03328 0.56381 0.51351 0.0
C28 C 0.03148 0.54227 0.4862 0.0
C29 C 0.02364 0.56372 0.45894 0.0
C30 C 0.03774 0.4977 0.4861 0.0
C31 C 0.05431 0.47844 0.46171 0.0
C32 C 0.05924 0.43673 0.46136 0.0
C33 C 0.0486 0.41394 0.4856 0.0
C34 C 0.03198 0.43207 0.51002 0.0
C35 C 0.02646 0.47387 0.51015 0.0
Mg36 Mg 0.09029 1.00901 0.2575 0.0
O37 O 0.02319 0.01307 0.23278 0.0
O38 O 0.97974 1.00473 0.2684 0.0
Mg39 Mg 1.01659 0.99656 0.31426 0.0
C40 C 0.98616 0.01042 0.24101 0.0
C41 C 0.13566 1.0084 0.19942 0.0
O42 O 0.12593 0.97041 0.20172 0.0
O43 O 0.08352 0.07202 0.27634 0.0
O44 O 0.04042 0.06136 0.31173 0.0
O45 O 0.09033 0.94221 0.25197 0.0
O46 O 0.06829 0.97353 0.29081 0.0
C47 C 0.06315 0.08465 0.29758 0.0
C48 C 0.07345 0.94034 0.27698 0.0
O49 O 0.12197 0.03336 0.21761 0.0
Mg50 Mg 1.00122 1.00793 0.7185 0.0
O51 O 0.06895 1.01022 0.74234 0.0
O52 O 0.11077 0.99955 0.70592 0.0
Mg53 Mg 0.07222 0.9904 0.6608 0.0
C54 C 0.1055 1.00637 0.7334 0.0
C55 C 0.93503 0.05009 0.74932 0.0
O56 O 0.92319 0.05162 0.72035 0.0
O57 O 1.00998 0.06984 0.69864 0.0
O58 O 0.05081 0.05644 0.66227 0.0
O59 O 0.99883 0.9418 0.72587 0.0
O60 O 0.0212 0.97011 0.68592 0.0
C61 C 0.02966 0.08106 0.67671 0.0
C62 C 1.01519 0.93791 0.70073 0.0
O63 O 0.97061 0.03469 0.75794 0.0
H64 H 0.41956 0.98373 0.03457 0.0
H65 H 0.37041 0.98823 0.07276 0.0
H66 H 0.40043 0.1133 0.08604 0.0
H67 H 0.44982 0.1088 0.04736 0.0
H68 H 0.37785 0.01295 0.13388 0.0
H69 H 0.27262 0.11255 0.05966 0.0
H70 H 0.31532 0.08502 0.0459 0.0
H71 H 0.32582 0.12858 0.06891 0.0
C72 C 0.41636 0.01193 0.04617 0.0
C73 C 0.43831 0.04593 0.03814 0.0
C74 C 0.38826 0.01452 0.0679 0.0
C75 C 0.38126 0.05124 0.08185 0.0
C76 C 0.40498 0.08482 0.07519 0.0
H77 H 0.17235 0.08221 0.19462 0.0
H78 H 0.23323 0.09801 0.16769 0.0
C79 C 0.43344 0.08216 0.05342 0.0
C80 C 0.34704 0.0541 0.1017 0.0
H81 H 0.24653 0.0881 0.10326 0.0
C82 C 0.34941 0.02992 0.12747 0.0
C83 C 0.30991 0.07624 0.09325 0.0
C84 C 0.30534 0.10195 0.06535 0.0
C85 C 0.31512 0.02608 0.14438 0.0
C86 C 0.2773 0.04649 0.13501 0.0
C87 C 0.27557 0.07238 0.11023 0.0
C88 C 0.23845 0.03849 0.14926 0.0
C89 C 0.31924 0.99935 0.17173 0.0
C90 C 0.22036 1.00031 0.14677 0.0
C91 C 0.18559 0.99126 0.16188 0.0
C92 C 0.16815 0.02025 0.17982 0.0
C93 C 0.18506 0.05917 0.18104 0.0
C94 C 0.2199 0.06824 0.16577 0.0
H95 H 0.35257 0.99455 0.18043 0.0
H96 H 0.30225 0.01228 0.18993 0.0
H97 H 0.30537 0.96968 0.16564 0.0
H98 H 0.23379 0.97717 0.13365 0.0
H99 H 0.17328 0.96108 0.16024 0.0
H100 H 0.98726 0.3629 0.50609 0.0
H101 H 0.97979 0.3145 0.5459 0.0
H102 H 0.04346 0.39483 0.61071 0.0
H103 H 0.05218 0.4432 0.57042 0.0
H104 H 0.07903 0.32251 0.61336 0.0
H105 H 0.909 0.30182 0.61403 0.0
H106 H 0.9229 0.29746 0.57638 0.0
H107 H 0.93069 0.34439 0.59614 0.0
C108 C 0.99903 0.37057 0.52891 0.0
C109 C 1.02068 0.40661 0.53513 0.0
C110 C 0.99425 0.34308 0.55175 0.0
C111 C 1.01054 0.35118 0.58142 0.0
C112 C 0.03033 0.3881 0.58801 0.0
H113 H 0.98696 0.14322 0.7005 0.0
H114 H 0.98316 0.21324 0.68374 0.0
C115 C 0.03514 0.41575 0.56505 0.0
C116 C 1.01187 0.31869 0.60418 0.0
H117 H 0.95263 0.24315 0.62882 0.0
C118 C 0.05122 0.30577 0.61736 0.0
C119 C 0.97565 0.29715 0.60996 0.0
C120 C 0.93218 0.31127 0.59861 0.0
C121 C 0.05565 0.27009 0.63399 0.0
C122 C 1.01991 0.24631 0.63694 0.0
C123 C 0.98017 0.26096 0.62603 0.0
C124 C 0.02361 0.20459 0.64839 0.0
C125 C 0.09879 0.25761 0.64742 0.0
C126 C 0.04716 0.17645 0.63384 0.0
C127 C 0.04943 0.13659 0.64329 0.0
C128 C 0.02783 0.12378 0.66738 0.0
C129 C 1.00411 0.15204 0.68193 0.0
C130 C 1.00188 0.19207 0.67241 0.0
H131 H 0.11908 0.28412 0.65257 0.0
H132 H 0.09737 0.23995 0.66834 0.0
H133 H 0.11374 0.23884 0.63098 0.0
H134 H 0.06326 0.18516 0.61473 0.0
H135 H 0.06781 0.11574 0.63141 0.0
H136 H 0.70528 0.98938 0.01793 0.0
H137 H 0.75963 0.98116 0.05995 0.0
H138 H 0.69504 0.06563 0.11211 0.0
H139 H 0.64037 0.07403 0.06985 0.0
H140 H 0.78141 0.08354 0.10652 0.0
H141 H 0.76077 0.92652 0.14303 0.0
H142 H 0.76186 0.93263 0.10321 0.0
H143 H 0.71977 0.95447 0.12141 0.0
C144 C 0.7022 1.00547 0.03863 0.0
C145 C 0.6687 0.0323 0.04075 0.0
C146 C 0.73317 1.00067 0.06263 0.0
C147 C 0.73124 0.02263 0.08918 0.0
C148 C 0.69693 0.04829 0.09182 0.0
H149 H 0.90398 1.00054 0.25027 0.0
H150 H 0.84261 1.00464 0.21362 0.0
C151 C 0.66564 0.05285 0.06783 0.0
C152 C 0.76702 0.02134 0.11288 0.0
H153 H 0.82505 0.9581 0.16074 0.0
C154 C 0.79079 0.05623 0.11859 0.0
C155 C 0.77911 0.98568 0.12855 0.0
C156 C 0.75388 0.94774 0.124 0.0
C157 C 0.82692 0.05618 0.13914 0.0
C158 C 0.83974 0.02019 0.15412 0.0
C159 C 0.81541 0.98553 0.14893 0.0
C160 C 0.87756 0.01818 0.17606 0.0
C161 C 0.8509 0.09466 0.14485 0.0
C162 C 0.91776 0.02418 0.16704 0.0
C163 C 0.95324 0.02179 0.18801 0.0
C164 C 0.94904 0.01335 0.21838 0.0
C165 C 0.90858 1.00725 0.22716 0.0
C166 C 0.87333 1.00949 0.20622 0.0
H167 H 0.83215 0.12125 0.1366 0.0
H168 H 0.86063 0.09852 0.16921 0.0
H169 H 0.87963 0.09359 0.13298 0.0
H170 H 0.92172 0.03036 0.14373 0.0
H171 H 0.98385 0.0265 0.18043 0.0
H172 H 0.08436 0.60223 0.563 0.0
H173 H 0.08923 0.64721 0.60672 0.0
H174 H 0.97518 0.70652 0.57083 0.0
H175 H 0.96956 0.66123 0.52797 0.0
H176 H 0.09895 0.7271 0.60453 0.0
H177 H 0.95486 0.69606 0.65751 0.0
H178 H 0.97456 0.66225 0.63065 0.0
H179 H 0.94229 0.70463 0.6181 0.0
C180 C 0.05977 0.62415 0.56498 0.0
C181 C 0.02666 0.62837 0.54207 0.0
C182 C 0.06268 0.64992 0.58983 0.0
C183 C 0.03227 0.6799 0.59228 0.0
C184 C 0.99848 0.68307 0.56989 0.0
H185 H 0.03903 0.91983 0.64549 0.0
H186 H 0.05009 0.85361 0.62469 0.0
C187 C 0.99556 0.65745 0.54519 0.0
C188 C 0.03764 0.71089 0.61613 0.0
H189 H 0.98207 0.7641 0.66387 0.0
C190 C 0.07383 0.73464 0.61807 0.0
C191 C 1.00536 0.72032 0.63433 0.0
C192 C 0.96733 0.69411 0.63527 0.0
C193 C 0.07704 0.76939 0.63584 0.0
C194 C 0.04274 0.78116 0.65144 0.0
C195 C 1.00809 0.7556 0.65146 0.0
C196 C 0.04026 0.82138 0.6654 0.0
C197 C 0.11679 0.79357 0.6371 0.0
C198 C 0.03029 0.82547 0.6951 0.0
C199 C 0.02332 0.86346 0.70695 0.0
C200 C 0.02616 0.89802 0.68929 0.0
C201 C 0.0371 0.89389 0.65982 0.0
C202 C 0.04376 0.85596 0.64794 0.0
H203 H 0.14423 0.77402 0.63419 0.0
H204 H 0.11412 0.81568 0.61847 0.0
H205 H 0.12271 0.80995 0.6587 0.0
H206 H 0.02708 0.7992 0.7089 0.0
H207 H 1.0149 0.86566 0.72974 0.0
H208 H 0.4512 0.07352 0.90416 0.0
H209 H 0.39588 0.06799 0.86214 0.0
H210 H 0.34423 0.96663 0.90524 0.0
H211 H 0.39961 0.97161 0.94679 0.0
H212 H 0.34173 0.95812 0.84303 0.0
H213 H 0.27619 0.10471 0.87524 0.0
H214 H 0.32984 0.1057 0.86697 0.0
H215 H 0.31597 0.0782 0.89901 0.0
C216 C 0.42871 0.04941 0.90416 0.0
C217 C 0.42938 0.0232 0.92878 0.0
C218 C 0.39686 0.04657 0.88039 0.0
C219 C 0.36538 0.0175 0.88097 0.0
C220 C 0.36795 0.9895 0.90446 0.0
H221 H 0.11009 0.01578 0.79485 0.0
H222 H 0.17356 0.0183 0.83033 0.0
C223 C 0.39959 0.99236 0.92816 0.0
C224 C 0.32819 0.01747 0.85836 0.0
H225 H 0.24111 0.07198 0.83329 0.0
C226 C 0.31985 0.98309 0.84073 0.0
C227 C 0.29921 0.04975 0.85593 0.0
C228 C 0.30537 0.08659 0.87543 0.0
C229 C 0.28345 0.9802 0.8206 0.0
C230 C 0.25492 0.01283 0.8177 0.0
C231 C 0.26313 0.04712 0.83544 0.0
C232 C 0.21648 0.01197 0.79627 0.0
C233 C 0.27533 0.94184 0.80314 0.0
C234 C 0.21961 1.00835 0.76539 0.0
C235 C 0.18358 1.00684 0.74514 0.0
C236 C 0.14345 1.00922 0.75528 0.0
C237 C 0.1404 0.01374 0.78625 0.0
C238 C 0.17663 0.01519 0.80655 0.0
H239 H 0.29394 0.9164 0.81362 0.0
H240 H 0.24161 0.93386 0.80145 0.0
H241 H 0.28437 0.94593 0.78005 0.0
H242 H 0.25002 1.00673 0.75689 0.0
H243 H 0.18734 1.00372 0.72147 0.0
H244 H 0.13436 0.40088 0.45639 0.0
H245 H 0.14916 0.35039 0.41901 0.0
H246 H 0.02642 0.37059 0.37226 0.0
H247 H 1.01268 0.42222 0.40882 0.0
H248 H 0.10772 0.28472 0.41587 0.0
H249 H 0.08978 0.34935 0.30192 0.0
H250 H 0.09637 0.38032 0.33516 0.0
H251 H 0.04525 0.36204 0.32122 0.0
C252 C 0.11153 0.39575 0.43724 0.0
C253 C 0.07267 0.41552 0.43508 0.0
C254 C 0.11982 0.36682 0.41601 0.0
C255 C 0.08905 0.35673 0.3926 0.0
C256 C 0.05119 0.37846 0.38948 0.0
H257 H 1.01636 0.12432 0.33586 0.0
H258 H 0.02697 0.19172 0.35603 0.0
C259 C 0.04321 0.40786 0.41044 0.0
C260 C 0.09311 0.31912 0.37529 0.0
H261 H 0.0745 0.27781 0.3053 0.0
C262 C 0.1014 0.2835 0.39161 0.0
C263 C 0.08519 0.3172 0.34359 0.0
C264 C 0.07911 0.35441 0.32449 0.0
C265 C 0.09965 0.24607 0.37743 0.0
C266 C 0.08823 0.24396 0.34613 0.0
C267 C 0.08246 0.27951 0.32941 0.0
C268 C 0.07961 0.20491 0.3311 0.0
C269 C 0.1091 0.20895 0.39626 0.0
C270 C 0.10458 0.19066 0.30935 0.0
C271 C 0.09846 0.15197 0.29755 0.0
C272 C 0.06723 0.12705 0.30736 0.0
C273 C 0.04108 0.14237 0.32809 0.0
C274 C 0.04711 0.18092 0.3397 0.0
H275 H 0.129 0.21593 0.41739 0.0
H276 H 0.07929 0.19613 0.40244 0.0
H277 H 0.12523 0.18584 0.38369 0.0
H278 H 0.12967 0.2089 0.3023 0.0
H279 H 0.11904 0.14117 0.28152 0.0
H280 H 0.62133 0.0334 0.90497 0.0
H281 H 0.66836 0.03874 0.86512 0.0
H282 H 0.74392 0.12422 0.91845 0.0
H283 H 0.69663 0.11968 0.95786 0.0
H284 H 0.73772 0.14143 0.85705 0.0
H285 H 0.78282 0.98265 0.88096 0.0
H286 H 0.72803 0.99082 0.86995 0.0
H287 H 0.75161 0.0113 0.90475 0.0
C288 C 0.64719 0.05428 0.9077 0.0
C289 C 0.65567 0.07578 0.9346 0.0
C290 C 0.6743 0.05696 0.88512 0.0
C291 C 0.71023 0.08109 0.88921 0.0
C292 C 0.71662 0.10514 0.91494 0.0
H293 H 0.94402 0.04188 0.81077 0.0
H294 H 0.89034 0.05337 0.84519 0.0
C295 C 0.68962 0.1025 0.93744 0.0
C296 C 0.74323 0.07876 0.86829 0.0
H297 H 0.81501 0.01487 0.84249 0.0
C298 C 0.75454 0.11375 0.85372 0.0
C299 C 0.76582 0.04282 0.86461 0.0
C300 C 0.75684 1.0048 0.88107 0.0
C301 C 0.7875 0.11364 0.83526 0.0
C302 C 0.80931 0.07744 0.83096 0.0
C303 C 0.79822 0.04258 0.84575 0.0
C304 C 0.84316 0.07457 0.81072 0.0
C305 C 0.79923 0.15247 0.82107 0.0
C306 C 0.83463 0.08308 0.78002 0.0
C307 C 0.86522 0.07673 0.7604 0.0
C308 C 0.90492 0.06133 0.77099 0.0
C309 C 0.91384 0.05386 0.8019 0.0
C310 C 0.88316 0.0603 0.82157 0.0
H311 H 0.78836 0.17888 0.83335 0.0
H312 H 0.83366 0.1546 0.82042 0.0
H313 H 0.78413 0.15388 0.79766 0.0
H314 H 0.8038 0.09329 0.77101 0.0
H315 H 0.85719 0.08272 0.73672 0.0
H316 H 0.06708 0.59935 0.41256 0.0
H317 H 0.07152 0.64786 0.37183 0.0
H318 H 0.96737 0.71389 0.40143 0.0
H319 H 0.96235 0.66527 0.44185 0.0
H320 H 0.97116 0.71044 0.3356 0.0
H321 H 0.11836 0.75955 0.40209 0.0
H322 H 0.115 0.7075 0.39168 0.0
H323 H 0.08099 0.72733 0.4176 0.0
C324 C 0.04426 0.62344 0.40974 0.0
C325 C 1.01472 0.62891 0.43057 0.0
C326 C 0.04699 0.65122 0.3866 0.0
C327 C 1.02018 0.68469 0.38399 0.0
C328 C 0.98841 0.68829 0.40317 0.0
H329 H 0.0459 0.92681 0.33176 0.0
H330 H 0.0309 0.86238 0.3541 0.0
C331 C 0.98572 0.66065 0.42631 0.0
C332 C 0.0285 0.7187 0.36427 0.0
H333 H 0.09547 0.79703 0.3592 0.0
C334 C 0.99859 0.72911 0.3404 0.0
C335 C 0.06406 0.74324 0.37101 0.0
C336 C 0.09641 0.73421 0.39708 0.0
C337 C 1.00316 0.76388 0.32328 0.0
C338 C 0.03837 0.78862 0.3304 0.0
C339 C 0.0686 0.77778 0.35384 0.0
C340 C 0.04333 0.82742 0.31525 0.0
C341 C 0.96973 0.77489 0.29848 0.0
C342 C 0.05493 0.82898 0.2859 0.0
C343 C 0.06365 0.86586 0.27302 0.0
C344 C 0.06083 0.90166 0.28936 0.0
C345 C 0.04809 0.8999 0.31847 0.0
C346 C 0.03958 0.86311 0.33132 0.0
H347 H 0.94236 0.7545 0.29763 0.0
H348 H 0.95882 0.80613 0.30157 0.0
H349 H 0.98306 0.77349 0.27656 0.0
H350 H 0.05842 0.80163 0.27331 0.0
H351 H 0.07346 0.86623 0.25056 0.0
loop_
_geom_bond_atom_site_label_1
_geom_bond_atom_site_label_2
_geom_bond_distance
_geom_bond_site_symmetry_2
_ccdc_geom_bond_type
H0 C6 0.931 . S
H1 C9 0.931 . S
H2 C11 0.931 . S
H3 C13 0.930 . S
H4 C15 0.930 . S
H5 C17 0.931 . S
C6 H0 0.931 . S
C6 C7 1.395 . S
C6 C8 1.377 1_554 S
C7 C6 1.395 . S
C7 C11 1.382 . S
C8 C6 1.377 1_556 S
C8 C9 1.400 . S
C9 H1 0.931 . S
C9 C8 1.400 . S
C9 C10 1.348 1_556 S
C10 C9 1.348 1_554 S
C10 C11 1.445 . S
C10 C12 1.498 . S
C11 H2 0.931 . S
C11 C7 1.382 . S
C11 C10 1.445 . S
C12 C10 1.498 . S
C12 C13 1.384 . S
C12 C17 1.408 1_554 S
C13 H3 0.930 . S
C13 C12 1.384 . S
C13 C14 1.389 . S
C14 C13 1.389 . S
C14 C15 1.405 . S
C15 H4 0.930 . S
C15 C14 1.405 . S
C15 C16 1.364 1_554 S
C16 C15 1.364 1_556 S
C16 C17 1.400 . S
C17 H5 0.931 . S
C17 C12 1.408 1_556 S
C17 C16 1.400 . S
H18 C24 0.930 . S
H19 C27 0.931 . S
H20 C29 0.931 . S
H21 C31 0.930 . S
H22 C33 0.930 . S
H23 C35 0.931 . S
C24 H18 0.930 . S
C24 C25 1.380 . S
C24 C26 1.394 . S
C25 C24 1.380 . S
C25 C29 1.382 . S
C26 C24 1.394 . S
C26 C27 1.400 . S
C27 H19 0.931 . S
C27 C26 1.400 . S
C27 C28 1.375 . S
C28 C27 1.375 . S
C28 C29 1.415 . S
C28 C30 1.501 . S
C29 H20 0.931 . S
C29 C25 1.382 . S
C29 C28 1.415 . S
C30 C28 1.501 . S
C30 C31 1.384 . S
C30 C35 1.408 . S
C31 H21 0.930 . S
C31 C30 1.384 . S
C31 C32 1.389 . S
C32 C31 1.389 . S
C32 C33 1.405 . S
C33 H22 0.930 . S
C33 C32 1.405 . S
C33 C34 1.364 . S
C34 C33 1.364 . S
C34 C35 1.400 . S
C35 H23 0.931 . S
C35 C30 1.408 . S
C35 C34 1.400 . S
Mg36 O37 2.028 . S
Mg36 O43 1.986 . S
Mg36 O45 2.114 1_545 S
Mg36 O46 2.251 1_545 S
Mg36 O49 2.010 . S
O37 Mg36 2.028 . S
O37 C40 1.250 1_455 S
O38 Mg39 2.028 . S
O38 C40 1.248 . S
Mg39 O38 2.028 . S
Mg39 O44 2.034 1_655 S
Mg39 O46 2.079 1_645 S
C40 O37 1.250 1_655 S
C40 O38 1.248 . S
C41 O42 1.264 . S
C41 O49 1.249 . S
O42 C41 1.264 . S
O43 Mg36 1.986 . S
O43 C47 1.246 . S
O44 Mg39 2.034 1_455 S
O44 C47 1.257 . S
O45 Mg36 2.114 1_565 S
O45 C48 1.252 . S
O46 Mg36 2.251 1_565 S
O46 Mg39 2.079 1_465 S
O46 C48 1.273 . S
C47 O43 1.246 . S
C47 O44 1.257 . S
C48 O45 1.252 . S
C48 O46 1.273 . S
O49 Mg36 2.010 . S
O49 C41 1.249 . S
Mg50 O51 2.028 1_655 S
Mg50 O57 1.986 . S
Mg50 O59 2.114 1_545 S
Mg50 O60 2.251 1_645 S
Mg50 O63 2.010 . S
O51 Mg50 2.028 1_455 S
O51 C54 1.250 . S
O52 Mg53 2.028 . S
O52 C54 1.248 . S
Mg53 O52 2.028 . S
Mg53 O58 2.032 . S
Mg53 O60 2.079 1_545 S
C54 O51 1.250 . S
C54 O52 1.248 . S
C55 O56 1.264 . S
C55 O63 1.249 . S
O56 C55 1.264 . S
O57 Mg50 1.986 . S
O57 C61 1.246 1_655 S
O58 Mg53 2.032 . S
O58 C61 1.259 . S
O59 Mg50 2.114 1_565 S
O59 C62 1.252 1_655 S
O60 Mg50 2.251 1_465 S
O60 Mg53 2.079 1_565 S
O60 C62 1.273 . S
C61 O57 1.246 1_455 S
C61 O58 1.259 . S
C62 O59 1.252 1_455 S
C62 O60 1.273 . S
O63 Mg50 2.010 . S
O63 C55 1.249 . S
H64 C72 0.929 . S
H65 C74 0.930 . S
H66 C76 0.930 . S
H67 C79 0.929 . S
H68 C82 0.930 . S
H69 C84 0.960 . S
H70 C84 0.960 . S
H71 C84 0.960 . S
C72 H64 0.929 . S
C72 C73 1.377 1_565 S
C72 C74 1.384 . S
C73 C72 1.377 1_545 S
C73 C79 1.390 . S
C74 H65 0.930 . S
C74 C72 1.384 . S
C74 C75 1.372 1_565 S
C75 C74 1.372 1_545 S
C75 C76 1.400 . S
C75 C80 1.490 . S
C76 H66 0.930 . S
C76 C75 1.400 . S
C76 C79 1.386 . S
H77 C93 0.930 . S
H78 C94 0.931 . S
C79 H67 0.929 . S
C79 C73 1.390 . S
C79 C76 1.386 . S
C80 C75 1.490 . S
C80 C82 1.395 1_545 S
C80 C83 1.403 . S
H81 C87 0.930 . S
C82 H68 0.930 . S
C82 C80 1.395 1_565 S
C82 C85 1.403 . S
C83 C80 1.403 . S
C83 C84 1.524 . S
C83 C87 1.400 . S
C84 H69 0.960 . S
C84 H70 0.960 . S
C84 H71 0.960 . S
C84 C83 1.524 . S
C85 C82 1.403 . S
C85 C86 1.392 1_565 S
C85 C89 1.495 . S
C86 C85 1.392 1_545 S
C86 C87 1.385 . S
C86 C88 1.478 . S
C87 H81 0.930 . S
C87 C83 1.400 . S
C87 C86 1.385 . S
C88 C86 1.478 . S
C88 C90 1.381 1_545 S
C88 C94 1.383 . S
C89 C85 1.495 . S
C89 H95 0.959 . S
C89 H96 0.961 . S
C89 H97 0.960 . S
C90 C88 1.381 1_565 S
C90 C91 1.394 . S
C90 H98 0.930 . S
C91 C90 1.394 . S
C91 C92 1.383 1_565 S
C91 H99 0.929 . S
C92 C91 1.383 1_545 S
C92 C93 1.377 . S
C93 H77 0.930 . S
C93 C92 1.377 . S
C93 C94 1.379 . S
C94 H78 0.931 . S
C94 C88 1.383 . S
C94 C93 1.379 . S
H95 C89 0.959 . S
H96 C89 0.961 . S
H97 C89 0.960 . S
H98 C90 0.930 . S
H99 C91 0.929 . S
H100 C108 0.929 . S
H101 C110 0.930 . S
H102 C112 0.930 . S
H103 C115 0.929 . S
H104 C118 0.930 . S
H105 C120 0.960 . S
H106 C120 0.960 . S
H107 C120 0.960 . S
C108 H100 0.929 . S
C108 C109 1.377 . S
C108 C110 1.384 . S
C109 C108 1.377 . S
C109 C115 1.390 . S
C110 H101 0.930 . S
C110 C108 1.384 . S
C110 C111 1.372 . S
C111 C110 1.372 . S
C111 C112 1.400 . S
C111 C116 1.490 . S
C112 H102 0.930 . S
C112 C111 1.400 . S
C112 C115 1.386 . S
H113 C129 0.930 . S
H114 C130 0.931 . S
C115 H103 0.929 . S
C115 C109 1.390 . S
C115 C112 1.386 . S
C116 C111 1.490 . S
C116 C118 1.395 . S
C116 C119 1.403 1_455 S
H117 C123 0.930 . S
C118 H104 0.930 . S
C118 C116 1.395 . S
C118 C121 1.403 . S
C119 C116 1.403 1_655 S
C119 C120 1.524 . S
C119 C123 1.400 . S
C120 H105 0.960 . S
C120 H106 0.960 . S
C120 H107 0.960 . S
C120 C119 1.524 . S
C121 C118 1.403 . S
C121 C122 1.392 . S
C121 C125 1.495 . S
C122 C121 1.392 . S
C122 C123 1.385 1_455 S
C122 C124 1.478 . S
C123 H117 0.930 . S
C123 C119 1.400 . S
C123 C122 1.385 1_655 S
C124 C122 1.478 . S
C124 C126 1.381 . S
C124 C130 1.383 . S
C125 C121 1.495 . S
C125 H131 0.959 . S
C125 H132 0.961 . S
C125 H133 0.960 . S
C126 C124 1.381 . S
C126 C127 1.394 . S
C126 H134 0.930 . S
C127 C126 1.394 . S
C127 C128 1.383 . S
C127 H135 0.929 1_455 S
C128 C127 1.383 . S
C128 C129 1.377 . S
C129 H113 0.930 . S
C129 C128 1.377 . S
C129 C130 1.379 . S
C130 H114 0.931 . S
C130 C124 1.383 . S
C130 C129 1.379 . S
H131 C125 0.959 . S
H132 C125 0.961 . S
H133 C125 0.960 . S
H134 C126 0.930 . S
H135 C127 0.929 1_655 S
H136 C144 0.929 . S
H137 C146 0.930 . S
H138 C148 0.930 . S
H139 C151 0.929 . S
H140 C154 0.930 . S
H141 C156 0.960 . S
H142 C156 0.960 . S
H143 C156 0.960 . S
C144 H136 0.929 . S
C144 C145 1.377 1_565 S
C144 C146 1.384 . S
C145 C144 1.377 1_545 S
C145 C151 1.390 . S
C146 H137 0.930 . S
C146 C144 1.384 . S
C146 C147 1.372 1_565 S
C147 C146 1.372 1_545 S
C147 C148 1.400 . S
C147 C152 1.490 . S
C148 H138 0.930 . S
C148 C147 1.400 . S
C148 C151 1.386 . S
H149 C165 0.930 . S
H150 C166 0.931 . S
C151 H139 0.929 . S
C151 C145 1.390 . S
C151 C148 1.386 . S
C152 C147 1.490 . S
C152 C154 1.395 . S
C152 C155 1.403 1_545 S
H153 C159 0.930 . S
C154 H140 0.930 . S
C154 C152 1.395 . S
C154 C157 1.403 . S
C155 C152 1.403 1_565 S
C155 C156 1.524 . S
C155 C159 1.400 . S
C156 H141 0.960 . S
C156 H142 0.960 . S
C156 H143 0.960 . S
C156 C155 1.524 . S
C157 C154 1.403 . S
C157 C158 1.392 . S
C157 C161 1.495 . S
C158 C157 1.392 . S
C158 C159 1.385 1_545 S
C158 C160 1.478 . S
C159 H153 0.930 . S
C159 C155 1.400 . S
C159 C158 1.385 1_565 S
C160 C158 1.478 . S
C160 C162 1.387 . S
C160 C166 1.383 . S
C161 C157 1.495 . S
C161 H167 0.959 . S
C161 H168 0.961 . S
C161 H169 0.960 . S
C162 C160 1.387 . S
C162 C163 1.394 1_545 S
C162 H170 0.924 1_545 S
C163 C162 1.394 1_565 S
C163 C164 1.375 1_565 S
C163 H171 0.939 . S
C164 C163 1.375 1_545 S
C164 C165 1.377 . S
C165 H149 0.930 . S
C165 C164 1.377 . S
C165 C166 1.379 . S
C166 H150 0.931 . S
C166 C160 1.383 . S
C166 C165 1.379 . S
H167 C161 0.959 . S
H168 C161 0.961 . S
H169 C161 0.960 . S
H170 C162 0.924 1_565 S
H171 C163 0.939 . S
H172 C180 0.929 1_655 S
H173 C182 0.930 1_655 S
H174 C184 0.930 . S
H175 C187 0.929 . S
H176 C190 0.930 . S
H177 C192 0.960 . S
H178 C192 0.960 . S
H179 C192 0.960 . S
C180 H172 0.929 1_455 S
C180 C181 1.377 . S
C180 C182 1.384 . S
C181 C180 1.377 . S
C181 C187 1.390 . S
C182 H173 0.930 1_455 S
C182 C180 1.384 . S
C182 C183 1.372 . S
C183 C182 1.372 . S
C183 C184 1.400 . S
C183 C188 1.490 . S
C184 H174 0.930 . S
C184 C183 1.400 . S
C184 C187 1.386 . S
H185 C201 0.930 . S
H186 C202 0.931 . S
C187 H175 0.929 . S
C187 C181 1.390 . S
C187 C184 1.386 . S
C188 C183 1.490 . S
C188 C190 1.395 . S
C188 C191 1.403 1_455 S
H189 C195 0.930 . S
C190 H176 0.930 . S
C190 C188 1.395 . S
C190 C193 1.403 . S
C191 C188 1.403 1_655 S
C191 C192 1.524 . S
C191 C195 1.400 . S
C192 H177 0.960 . S
C192 H178 0.960 . S
C192 H179 0.960 . S
C192 C191 1.524 . S
C193 C190 1.403 . S
C193 C194 1.392 . S
C193 C197 1.495 . S
C194 C193 1.392 . S
C194 C195 1.385 1_455 S
C194 C196 1.478 . S
C195 H189 0.930 . S
C195 C191 1.400 . S
C195 C194 1.385 1_655 S
C196 C194 1.478 . S
C196 C198 1.381 . S
C196 C202 1.383 . S
C197 C193 1.495 . S
C197 H203 0.959 . S
C197 H204 0.961 . S
C197 H205 0.960 . S
C198 C196 1.381 . S
C198 C199 1.391 1_455 S
C198 H206 0.930 1_455 S
C199 C198 1.391 1_655 S
C199 C200 1.375 1_655 S
C199 H207 0.942 . S
C200 C199 1.375 1_455 S
C200 C201 1.377 . S
C201 H185 0.930 . S
C201 C200 1.377 . S
C201 C202 1.379 . S
C202 H186 0.931 . S
C202 C196 1.383 . S
C202 C201 1.379 . S
H203 C197 0.959 . S
H204 C197 0.961 . S
H205 C197 0.960 . S
H206 C198 0.930 1_655 S
H207 C199 0.942 . S
H208 C216 0.929 . S
H209 C218 0.930 . S
H210 C220 0.930 . S
H211 C223 0.929 . S
H212 C226 0.930 . S
H213 C228 0.960 . S
H214 C228 0.960 . S
H215 C228 0.960 1_565 S
C216 H208 0.929 . S
C216 C217 1.377 . S
C216 C218 1.384 . S
C217 C216 1.377 . S
C217 C223 1.390 1_545 S
C218 H209 0.930 . S
C218 C216 1.384 . S
C218 C219 1.372 . S
C219 C218 1.372 . S
C219 C220 1.400 1_545 S
C219 C224 1.490 . S
C220 H210 0.930 . S
C220 C219 1.400 1_565 S
C220 C223 1.386 . S
H221 C237 0.930 . S
H222 C238 0.931 . S
C223 H211 0.929 . S
C223 C217 1.390 1_565 S
C223 C220 1.386 . S
C224 C219 1.490 . S
C224 C226 1.395 . S
C224 C227 1.403 . S
H225 C231 0.930 . S
C226 H212 0.930 . S
C226 C224 1.395 . S
C226 C229 1.403 . S
C227 C224 1.403 . S
C227 C228 1.524 . S
C227 C231 1.400 . S
C228 H213 0.960 . S
C228 H214 0.960 . S
C228 H215 0.960 1_545 S
C228 C227 1.524 . S
C229 C226 1.403 . S
C229 C230 1.392 . S
C229 C233 1.495 . S
C230 C229 1.392 . S
C230 C231 1.385 . S
C230 C232 1.478 . S
C231 H225 0.930 . S
C231 C227 1.400 . S
C231 C230 1.385 . S
C232 C230 1.478 . S
C232 C234 1.381 . S
C232 C238 1.383 1_545 S
C233 C229 1.495 . S
C233 H239 0.959 . S
C233 H240 0.961 1_545 S
C233 H241 0.960 . S
C234 C232 1.381 . S
C234 C235 1.394 . S
C234 H242 0.930 . S
C235 C234 1.394 . S
C235 C236 1.383 . S
C235 H243 0.929 . S
C236 C235 1.383 . S
C236 C237 1.377 1_545 S
C237 H221 0.930 . S
C237 C236 1.377 1_565 S
C237 C238 1.379 . S
C238 H222 0.931 . S
C238 C232 1.383 1_565 S
C238 C237 1.379 . S
H239 C233 0.959 . S
H240 C233 0.961 1_565 S
H241 C233 0.960 . S
H242 C234 0.930 . S
H243 C235 0.929 . S
H244 C252 0.929 . S
H245 C254 0.930 . S
H246 C256 0.930 . S
H247 C259 0.929 . S
H248 C262 0.930 . S
H249 C264 0.960 . S
H250 C264 0.960 . S
H251 C264 0.960 . S
C252 H244 0.929 . S
C252 C253 1.377 . S
C252 C254 1.384 . S
C253 C252 1.377 . S
C253 C259 1.390 1_455 S
C254 H245 0.930 . S
C254 C252 1.384 . S
C254 C255 1.372 . S
C255 C254 1.372 . S
C255 C256 1.400 1_455 S
C255 C260 1.490 . S
C256 H246 0.930 . S
C256 C255 1.400 1_655 S
C256 C259 1.386 . S
H257 C273 0.930 1_655 S
H258 C274 0.931 1_655 S
C259 H247 0.929 . S
C259 C253 1.390 1_655 S
C259 C256 1.386 . S
C260 C255 1.490 . S
C260 C262 1.395 . S
C260 C263 1.403 . S
H261 C267 0.930 . S
C262 H248 0.930 . S
C262 C260 1.395 . S
C262 C265 1.403 . S
C263 C260 1.403 . S
C263 C264 1.524 . S
C263 C267 1.400 . S
C264 H249 0.960 . S
C264 H250 0.960 . S
C264 H251 0.960 . S
C264 C263 1.524 . S
C265 C262 1.403 . S
C265 C266 1.392 . S
C265 C269 1.495 . S
C266 C265 1.392 . S
C266 C267 1.385 . S
C266 C268 1.478 . S
C267 H261 0.930 . S
C267 C263 1.400 . S
C267 C266 1.385 . S
C268 C266 1.478 . S
C268 C270 1.381 . S
C268 C274 1.383 . S
C269 C265 1.495 . S
C269 H275 0.959 . S
C269 H276 0.961 . S
C269 H277 0.960 . S
C270 C268 1.381 . S
C270 C271 1.394 . S
C270 H278 0.930 . S
C271 C270 1.394 . S
C271 C272 1.383 . S
C271 H279 0.929 . S
C272 C271 1.383 . S
C272 C273 1.377 . S
C273 H257 0.930 1_455 S
C273 C272 1.377 . S
C273 C274 1.379 . S
C274 H258 0.931 1_455 S
C274 C268 1.383 . S
C274 C273 1.379 . S
H275 C269 0.959 . S
H276 C269 0.961 . S
H277 C269 0.960 . S
H278 C270 0.930 . S
H279 C271 0.929 . S
H280 C288 0.929 . S
H281 C290 0.930 . S
H282 C292 0.930 . S
H283 C295 0.929 . S
H284 C298 0.930 . S
H285 C300 0.960 . S
H286 C300 0.960 . S
H287 C300 0.960 . S
C288 H280 0.929 . S
C288 C289 1.377 1_565 S
C288 C290 1.384 . S
C289 C288 1.377 1_545 S
C289 C295 1.390 . S
C290 H281 0.930 . S
C290 C288 1.384 . S
C290 C291 1.372 1_565 S
C291 C290 1.372 1_545 S
C291 C292 1.400 . S
C291 C296 1.490 . S
C292 H282 0.930 . S
C292 C291 1.400 . S
C292 C295 1.386 . S
H293 C309 0.930 . S
H294 C310 0.931 . S
C295 H283 0.929 . S
C295 C289 1.390 . S
C295 C292 1.386 . S
C296 C291 1.490 . S
C296 C298 1.395 . S
C296 C299 1.403 1_545 S
H297 C303 0.930 . S
C298 H284 0.930 . S
C298 C296 1.395 . S
C298 C301 1.403 . S
C299 C296 1.403 1_565 S
C299 C300 1.524 . S
C299 C303 1.400 . S
C300 H285 0.960 . S
C300 H286 0.960 . S
C300 H287 0.960 . S
C300 C299 1.524 . S
C301 C298 1.403 . S
C301 C302 1.392 . S
C301 C305 1.495 . S
C302 C301 1.392 . S
C302 C303 1.385 1_545 S
C302 C304 1.478 . S
C303 H297 0.930 . S
C303 C299 1.400 . S
C303 C302 1.385 1_565 S
C304 C302 1.478 . S
C304 C306 1.368 1_545 S
C304 C310 1.383 . S
C305 C301 1.495 . S
C305 H311 0.959 . S
C305 H312 0.961 . S
C305 H313 0.960 . S
C306 C304 1.368 1_565 S
C306 C307 1.394 . S
C306 H314 0.944 . S
C307 C306 1.394 . S
C307 C308 1.373 1_565 S
C307 H315 0.940 . S
C308 C307 1.373 1_545 S
C308 C309 1.377 . S
C309 H293 0.930 . S
C309 C308 1.377 . S
C309 C310 1.379 . S
C310 H294 0.931 . S
C310 C304 1.383 . S
C310 C309 1.379 . S
H311 C305 0.959 . S
H312 C305 0.961 . S
H313 C305 0.960 . S
H314 C306 0.944 . S
H315 C307 0.940 . S
H316 C324 0.929 . S
H317 C326 0.930 . S
H318 C328 0.930 1_655 S
H319 C331 0.929 1_655 S
H320 C334 0.930 . S
H321 C336 0.960 . S
H322 C336 0.960 . S
H323 C336 0.960 . S
C324 H316 0.929 . S
C324 C325 1.377 . S
C324 C326 1.384 . S
C325 C324 1.377 . S
C325 C331 1.390 . S
C326 H317 0.930 . S
C326 C324 1.384 . S
C326 C327 1.372 . S
C327 C326 1.372 . S
C327 C328 1.400 . S
C327 C332 1.490 . S
C328 H318 0.930 1_455 S
C328 C327 1.400 . S
C328 C331 1.386 . S
H329 C345 0.930 1_655 S
H330 C346 0.931 1_655 S
C331 H319 0.929 1_455 S
C331 C325 1.390 . S
C331 C328 1.386 . S
C332 C327 1.490 . S
C332 C334 1.395 . S
C332 C335 1.403 . S
H333 C339 0.930 . S
C334 H320 0.930 . S
C334 C332 1.395 . S
C334 C337 1.403 . S
C335 C332 1.403 . S
C335 C336 1.524 . S
C335 C339 1.400 . S
C336 H321 0.960 . S
C336 H322 0.960 . S
C336 H323 0.960 . S
C336 C335 1.524 . S
C337 C334 1.403 . S
C337 C338 1.392 . S
C337 C341 1.495 . S
C338 C337 1.392 . S
C338 C339 1.385 . S
C338 C340 1.478 . S
C339 H333 0.930 . S
C339 C335 1.400 . S
C339 C338 1.385 . S
C340 C338 1.478 . S
C340 C342 1.381 . S
C340 C346 1.383 . S
C341 C337 1.495 . S
C341 H347 0.959 . S
C341 H348 0.953 1_455 S
C341 H349 0.960 . S
C342 C340 1.381 . S
C342 C343 1.394 . S
C342 H350 0.930 . S
C343 C342 1.394 . S
C343 C344 1.383 . S
C343 H351 0.929 . S
C344 C343 1.383 . S
C344 C345 1.377 . S
C345 H329 0.930 1_455 S
C345 C344 1.377 . S
C345 C346 1.379 . S
C346 H330 0.931 1_455 S
C346 C340 1.383 . S
C346 C345 1.379 . S
H347 C341 0.959 . S
H348 C341 0.953 1_655 S
H349 C341 0.960 . S
H350 C342 0.930 . S
H351 C343 0.929 . S
C92 C41 1.254 . S
C73 C7 1.519 . S
C128 C61 1.511 . S
C109 C34 1.502 . S
C164 C40 1.519 . S
C145 C14 1.511 . S
C200 C62 1.551 . S
C181 C26 1.514 . S
C236 C54 1.464 . S
C217 C8 1.503 . S
C272 C47 1.527 . S
C253 C32 1.519 . S
C308 C55 1.245 . S
C289 C16 1.522 . S
C325 C25 1.512 . S
C344 C48 1.556 . S
