# Generated by pormake.
# Topology zzz, (3,6)-cn, num edge types: 1
# Building blocks:
#     Node 0, Type 0, BuildingBlock: VETTIZ_charged_linker_0, # of connection points: 3
#     Node 1, Type 0, BuildingBlock: VETTIZ_charged_linker_0, # of connection points: 3
#     Node 2, Type 0, BuildingBlock: VETTIZ_charged_linker_0, # of connection points: 3
#     Node 3, Type 0, BuildingBlock: VETTIZ_charged_linker_0, # of connection points: 3
#     Node 4, Type 0, BuildingBlock: VETTIZ_charged_linker_0, # of connection points: 3
#     Node 5, Type 0, BuildingBlock: VETTIZ_charged_linker_0, # of connection points: 3
#     Node 6, Type 0, BuildingBlock: VETTIZ_charged_linker_0, # of connection points: 3
#     Node 7, Type 0, BuildingBlock: VETTIZ_charged_linker_0, # of connection points: 3
#     Node 8, Type 1, BuildingBlock: NUHQIS_clean_sbu_0, # of connection points: 6
#     Node 9, Type 1, BuildingBlock: NUHQIS_clean_sbu_0, # of connection points: 6
#     Node 10, Type 1, BuildingBlock: NUHQIS_clean_sbu_0, # of connection points: 6
#     Node 11, Type 1, BuildingBlock: NUHQIS_clean_sbu_0, # of connection points: 6
#     Edge 12, Type (0, 1), BuildingBlock: XUDNAN_clean_linker_2, # of connection points: 2
#     Edge 13, Type (0, 1), BuildingBlock: XUDNAN_clean_linker_2, # of connection points: 2
#     Edge 14, Type (0, 1), BuildingBlock: XUDNAN_clean_linker_2, # of connection points: 2
#     Edge 15, Type (0, 1), BuildingBlock: XUDNAN_clean_linker_2, # of connection points: 2
#     Edge 16, Type (0, 1), BuildingBlock: XUDNAN_clean_linker_2, # of connection points: 2
#     Edge 17, Type (0, 1), BuildingBlock: XUDNAN_clean_linker_2, # of connection points: 2
#     Edge 18, Type (0, 1), BuildingBlock: XUDNAN_clean_linker_2, # of connection points: 2
#     Edge 19, Type (0, 1), BuildingBlock: XUDNAN_clean_linker_2, # of connection points: 2
#     Edge 20, Type (0, 1), BuildingBlock: XUDNAN_clean_linker_2, # of connection points: 2
#     Edge 21, Type (0, 1), BuildingBlock: XUDNAN_clean_linker_2, # of connection points: 2
#     Edge 22, Type (0, 1), BuildingBlock: XUDNAN_clean_linker_2, # of connection points: 2
#     Edge 23, Type (0, 1), BuildingBlock: XUDNAN_clean_linker_2, # of connection points: 2
#     Edge 24, Type (0, 1), BuildingBlock: XUDNAN_clean_linker_2, # of connection points: 2
#     Edge 25, Type (0, 1), BuildingBlock: XUDNAN_clean_linker_2, # of connection points: 2
#     Edge 26, Type (0, 1), BuildingBlock: XUDNAN_clean_linker_2, # of connection points: 2
#     Edge 27, Type (0, 1), BuildingBlock: XUDNAN_clean_linker_2, # of connection points: 2
#     Edge 28, Type (0, 1), BuildingBlock: XUDNAN_clean_linker_2, # of connection points: 2
#     Edge 29, Type (0, 1), BuildingBlock: XUDNAN_clean_linker_2, # of connection points: 2
#     Edge 30, Type (0, 1), BuildingBlock: XUDNAN_clean_linker_2, # of connection points: 2
#     Edge 31, Type (0, 1), BuildingBlock: XUDNAN_clean_linker_2, # of connection points: 2
#     Edge 32, Type (0, 1), BuildingBlock: XUDNAN_clean_linker_2, # of connection points: 2
#     Edge 33, Type (0, 1), BuildingBlock: XUDNAN_clean_linker_2, # of connection points: 2
#     Edge 34, Type (0, 1), BuildingBlock: XUDNAN_clean_linker_2, # of connection points: 2
#     Edge 35, Type (0, 1), BuildingBlock: XUDNAN_clean_linker_2, # of connection points: 2
# Relax obj value: 0.429
# Max RMSD: 0.258
# Mean RMSD: 0.235
data_MOF--net-zzz--node1-NUHQIS_clean_sbu_0--node2-VETTIZ_charged_linker_0--edge1-XUDNAN_clean_linker_2
_symmetry_space_group_name_H-M    P1
_symmetry_Int_Tables_number       1
_symmetry_cell_setting            triclinic
loop_
_symmetry_equiv_pos_as_xyz
'x, y, z'
_cell_length_a     58.941195
_cell_length_b     58.690248
_cell_length_c     18.966867
_cell_angle_alpha  90.034941
_cell_angle_beta   89.947363
_cell_angle_gamma 89.98187
loop_
_atom_site_label
_atom_site_type_symbol
_atom_site_fract_x
_atom_site_fract_y
_atom_site_fract_z
_atom_type_partial_charge
C0 C 0.805 0.52747 0.34408 0.0
C1 C 0.82888 0.53155 0.34577 0.0
C2 C 0.83944 0.53922 0.28361 0.0
C3 C 0.80382 0.53856 0.22029 0.0
C4 C 0.79269 0.53143 0.28045 0.0
C5 C 0.76722 0.52905 0.26614 0.0
H6 H 0.68297 0.53592 0.01154 0.0
C7 C 0.78733 0.54073 0.16213 0.0
C8 C 0.76544 0.53564 0.18779 0.0
H9 H 0.67177 0.51698 0.22832 0.0
H10 H 0.71243 0.52265 0.25328 0.0
H11 H 0.71615 0.57721 0.04001 0.0
H12 H 0.72225 0.50664 0.98871 0.0
H13 H 0.74653 0.51841 0.95048 0.0
H14 H 0.71887 0.52776 0.92157 0.0
H15 H 0.71017 0.56544 0.9547 0.0
H16 H 0.7381 0.57567 0.97747 0.0
C17 C 0.75425 0.54589 0.3136 0.0
C18 C 0.76014 0.50414 0.27865 0.0
C19 C 0.81765 0.5491 0.91399 0.0
C20 C 0.80702 0.54751 0.84764 0.0
C21 C 0.78337 0.55028 0.84362 0.0
C22 C 0.77037 0.55218 0.90523 0.0
C23 C 0.78112 0.55079 0.97148 0.0
C24 C 0.80443 0.55044 0.9749 0.0
C25 C 0.81302 0.5484 0.04924 0.0
C26 C 0.79088 0.54583 0.08974 0.0
C27 C 0.77244 0.54716 0.04389 0.0
C28 C 0.82548 0.57093 0.06791 0.0
C29 C 0.82794 0.5266 0.05382 0.0
C30 C 0.68904 0.5328 0.06463 0.0
C31 C 0.67415 0.52555 0.11724 0.0
C32 C 0.68294 0.52238 0.18619 0.0
C33 C 0.70648 0.52562 0.20055 0.0
C34 C 0.72125 0.53231 0.14559 0.0
C35 C 0.71197 0.53588 0.07937 0.0
C36 C 0.72903 0.54214 0.02512 0.0
C37 C 0.75036 0.54241 0.06867 0.0
C38 C 0.74637 0.5366 0.14 0.0
C39 C 0.72311 0.56629 0.99715 0.0
C40 C 0.72923 0.52297 0.96816 0.0
H41 H 0.83671 0.54846 0.17735 0.0
H42 H 0.79624 0.52165 0.39088 0.0
H43 H 0.77122 0.4924 0.24804 0.0
H44 H 0.74251 0.50091 0.26183 0.0
H45 H 0.76161 0.49966 0.33538 0.0
H46 H 0.76136 0.56334 0.30802 0.0
H47 H 0.75561 0.54081 0.36987 0.0
H48 H 0.73611 0.54688 0.29964 0.0
H49 H 0.83579 0.54685 0.91951 0.0
H50 H 0.77481 0.54947 0.79316 0.0
H51 H 0.75236 0.55325 0.89861 0.0
H52 H 0.82023 0.58524 0.03308 0.0
H53 H 0.84416 0.56908 0.06251 0.0
H54 H 0.82143 0.57692 0.12193 0.0
H55 H 0.82054 0.51262 0.02153 0.0
H56 H 0.82919 0.51945 0.10739 0.0
H57 H 0.84537 0.52988 0.03393 0.0
H58 H 0.8576 0.54203 0.28186 0.0
C59 C 0.82719 0.54287 0.22203 0.0
C60 C 0.11797 0.7936 0.02976 0.0
C61 C 0.12888 0.81442 0.04365 0.0
C62 C 0.12437 0.82576 0.10762 0.0
C63 C 0.09564 0.79788 0.13662 0.0
C64 C 0.10163 0.78553 0.07756 0.0
C65 C 0.08783 0.76409 0.07074 0.0
H66 H 0.99767 0.69965 0.1634 0.0
C67 C 0.0758 0.78674 0.16956 0.0
C68 C 0.0714 0.76666 0.13249 0.0
H69 H 0.05117 0.68574 0.01296 0.0
H70 H 0.06963 0.72034 0.04415 0.0
H71 H 0.03465 0.72036 0.29174 0.0
H72 H 0.99506 0.75865 0.13878 0.0
H73 H 0.99086 0.76716 0.22797 0.0
H74 H 0.98154 0.7395 0.19987 0.0
H75 H 1.00417 0.71853 0.29058 0.0
H76 H 0.01825 0.74267 0.32912 0.0
C77 C 0.10413 0.7435 0.08035 0.0
C78 C 0.0754 0.76478 0.99875 0.0
C79 C 0.03412 0.83113 0.35711 0.0
C80 C 0.01524 0.82721 0.40003 0.0
C81 C 1.00341 0.80636 0.39213 0.0
C82 C 0.0102 0.79003 0.34086 0.0
C83 C 0.02938 0.79433 0.29823 0.0
C84 C 0.04099 0.81462 0.30821 0.0
C85 C 0.06172 0.81643 0.26339 0.0
C86 C 0.0607 0.79423 0.22296 0.0
C87 C 0.04163 0.78102 0.24207 0.0
C88 C 0.08274 0.8175 0.31279 0.0
C89 C 0.05865 0.83747 0.21474 0.0
C90 C 0.01342 0.70423 0.13764 0.0
C91 C 0.02303 0.68967 0.08555 0.0
C92 C 0.04357 0.6962 0.05373 0.0
C93 C 0.05432 0.71651 0.07186 0.0
C94 C 0.04474 0.73088 0.12295 0.0
C95 C 0.02484 0.7247 0.15639 0.0
C96 C 0.01845 0.74219 0.21264 0.0
C97 C 0.03759 0.7598 0.20578 0.0
C98 C 0.05264 0.75284 0.15197 0.0
C99 C 0.01877 0.73038 0.28517 0.0
C100 C 0.99515 0.75247 0.19419 0.0
H101 H 0.10446 0.82778 0.19974 0.0
H102 H 0.12128 0.78445 0.98121 0.0
H103 H 0.06082 0.75306 0.99576 0.0
H104 H 0.08722 0.7607 0.95485 0.0
H105 H 0.06828 0.78205 0.98888 0.0
H106 H 0.12039 0.74849 0.10579 0.0
H107 H 0.10846 0.73554 0.02892 0.0
H108 H 0.09692 0.73033 0.11581 0.0
H109 H 0.04396 0.84661 0.36314 0.0
H110 H 0.98889 0.80277 0.42535 0.0
H111 H 1.00052 0.7746 0.33667 0.0
H112 H 0.07914 0.80988 0.36536 0.0
H113 H 0.08826 0.83536 0.32177 0.0
H114 H 0.09723 0.80745 0.29232 0.0
H115 H 0.04093 0.83845 0.1947 0.0
H116 H 0.06933 0.83704 0.1671 0.0
H117 H 0.06222 0.85353 0.24375 0.0
H118 H 0.13233 0.84197 0.11933 0.0
C119 C 0.10786 0.81763 0.15402 0.0
C120 C 0.82707 0.99719 0.18197 0.0
C121 C 0.83996 0.99012 0.12191 0.0
C122 C 0.8287 0.97834 0.0673 0.0
C123 C 0.79281 0.98697 0.1205 0.0
C124 C 0.80311 0.99436 0.181 0.0
C125 C 0.78512 0.99743 0.23882 0.0
H126 H 0.6688 1.00082 0.3015 0.0
C127 C 0.76851 0.98958 0.12679 0.0
C128 C 0.76285 0.99392 0.19736 0.0
H129 H 0.72101 1.00408 0.46129 0.0
H130 H 0.75006 1.0016 0.36978 0.0
H131 H 0.68546 0.03479 0.21462 0.0
H132 H 0.69099 0.96368 0.19589 0.0
H133 H 0.68514 0.97537 0.11165 0.0
H134 H 0.66658 0.98171 0.18451 0.0
H135 H 0.67076 0.02096 0.14516 0.0
H136 H 0.69845 0.03333 0.13104 0.0
C137 C 0.78674 0.02153 0.27023 0.0
C138 C 0.78877 0.97866 0.29436 0.0
C139 C 0.73037 0.02504 0.9167 0.0
C140 C 0.70777 0.03106 0.90417 0.0
C141 C 0.69057 0.02278 0.94896 0.0
C142 C 0.69609 1.01026 0.00935 0.0
C143 C 0.71897 1.00628 0.02502 0.0
C144 C 0.73554 0.01213 0.97671 0.0
C145 C 0.75862 1.00411 0.99904 0.0
C146 C 0.75309 0.99441 0.07216 0.0
C147 C 0.73016 0.99722 0.08846 0.0
C148 C 0.77492 0.02471 1.00332 0.0
C149 C 0.76697 0.98612 0.94525 0.0
C150 C 0.68635 1.00115 0.31807 0.0
C151 C 0.69214 1.00248 0.38993 0.0
C152 C 0.71563 1.00253 0.40697 0.0
C153 C 0.7326 1.00099 0.35393 0.0
C154 C 0.72622 0.99938 0.28264 0.0
C155 C 0.70332 1.00002 0.26622 0.0
C156 C 0.6991 1.00021 0.18829 0.0
C157 C 0.72308 0.99776 0.16014 0.0
C158 C 0.73928 0.99707 0.21517 0.0
C159 C 0.68788 0.02338 0.16837 0.0
C160 C 0.68456 0.97919 0.16873 0.0
H161 H 0.79696 0.96633 0.02731 0.0
H162 H 0.83533 1.00485 0.22706 0.0
H163 H 0.78962 0.96164 0.2687 0.0
H164 H 0.77488 0.97792 0.33318 0.0
H165 H 0.80495 0.98147 0.32316 0.0
H166 H 0.78545 0.03454 0.22782 0.0
H167 H 0.80319 0.02392 0.29782 0.0
H168 H 0.77292 0.02479 0.30841 0.0
H169 H 0.74368 0.03085 0.88164 0.0
H170 H 0.67296 0.02707 0.93922 0.0
H171 H 0.68251 1.00458 0.04254 0.0
H172 H 0.7684 0.03766 0.04105 0.0
H173 H 0.77696 0.0329 0.95093 0.0
H174 H 0.79208 0.0195 0.02072 0.0
H175 H 0.76019 0.98936 0.8915 0.0
H176 H 0.76156 0.96869 0.96082 0.0
H177 H 0.78565 0.98665 0.93877 0.0
H178 H 0.83796 0.97164 0.0225 0.0
C179 C 0.80516 0.97633 0.06736 0.0
C180 C 0.49357 0.71677 0.36223 0.0
C181 C 0.48727 0.69365 0.37305 0.0
C182 C 0.47216 0.68344 0.32543 0.0
C183 C 0.46945 0.71839 0.2581 0.0
C184 C 0.48466 0.72878 0.30322 0.0
C185 C 0.48956 0.75315 0.27942 0.0
H186 H 0.47346 0.83283 0.01693 0.0
C187 C 0.46282 0.73477 0.20274 0.0
C188 C 0.47471 0.75533 0.21322 0.0
H189 H 0.51316 0.8431 0.20614 0.0
H190 H 0.50322 0.80486 0.24546 0.0
H191 H 0.48498 0.78171 0.98537 0.0
H192 H 0.43208 0.81573 0.10014 0.0
H193 H 0.4191 0.79159 0.0638 0.0
H194 H 0.43114 0.8129 1.00611 0.0
H195 H 0.46306 0.79832 0.9444 0.0
H196 H 0.4593 0.76844 0.96219 0.0
C197 C 0.515 0.75519 0.26192 0.0
C198 C 0.48191 0.76968 0.33792 0.0
C199 C 0.40577 0.70883 0.01955 0.0
C200 C 0.39686 0.71886 0.95817 0.0
C201 C 0.40283 0.74151 0.94204 0.0
C202 C 0.4179 0.75365 0.98529 0.0
C203 C 0.42723 0.74302 0.04528 0.0
C204 C 0.4208 0.7211 0.0618 0.0
C205 C 0.43286 0.71206 0.12554 0.0
C206 C 0.44739 0.73238 0.1458 0.0
C207 C 0.44419 0.75031 0.09841 0.0
C208 C 0.44747 0.69131 0.10201 0.0
C209 C 0.41464 0.70671 0.18227 0.0
C210 C 0.4799 0.82755 0.06768 0.0
C211 C 0.49408 0.84174 0.10788 0.0
C212 C 0.5024 0.83283 0.17263 0.0
C213 C 0.49653 0.81057 0.19589 0.0
C214 C 0.48192 0.79699 0.15474 0.0
C215 C 0.47367 0.80602 0.09245 0.0
C216 C 0.45686 0.79085 0.05696 0.0
C217 C 0.45677 0.77068 0.10621 0.0
C218 C 0.47174 0.77371 0.16367 0.0
C219 C 0.46631 0.78451 0.98313 0.0
C220 C 0.43358 0.80331 0.056 0.0
H221 H 0.45156 0.68654 0.23598 0.0
H222 H 0.50519 0.7251 0.39811 0.0
H223 H 0.46441 0.76549 0.35562 0.0
H224 H 0.48155 0.78752 0.31974 0.0
H225 H 0.49335 0.76852 0.38431 0.0
H226 H 0.52023 0.74145 0.22489 0.0
H227 H 0.52542 0.75363 0.3105 0.0
H228 H 0.51918 0.77153 0.23639 0.0
H229 H 0.40224 0.69121 0.03263 0.0
H230 H 0.39629 0.74962 0.89496 0.0
H231 H 0.42219 0.77062 0.96907 0.0
H232 H 0.4517 0.69206 0.04485 0.0
H233 H 0.43845 0.67498 0.1114 0.0
H234 H 0.4642 0.69077 0.12846 0.0
H235 H 0.42125 0.70745 0.23667 0.0
H236 H 0.40686 0.68972 0.17314 0.0
H237 H 0.40076 0.71957 0.18108 0.0
H238 H 0.46684 0.66591 0.33285 0.0
C239 C 0.4632 0.69558 0.26891 0.0
C240 C 0.33364 0.5077 0.23193 0.0
C241 C 0.34611 0.52115 0.28103 0.0
C242 C 0.33649 0.54188 0.30437 0.0
C243 C 0.30101 0.53181 0.25004 0.0
C244 C 0.31115 0.51413 0.21456 0.0
C245 C 0.29382 0.50243 0.16727 0.0
H246 H 0.1778 0.49792 0.1042 0.0
C247 C 0.27639 0.52964 0.24364 0.0
C248 C 0.27186 0.51528 0.186 0.0
H249 H 0.22464 0.52175 0.94565 0.0
H250 H 0.25619 0.51876 0.03093 0.0
H251 H 0.22082 0.46123 0.20551 0.0
H252 H 0.17573 0.50882 0.21949 0.0
H253 H 0.1963 0.5309 0.23586 0.0
H254 H 0.18977 0.50971 0.30133 0.0
H255 H 0.19073 0.46647 0.20296 0.0
H256 H 0.20564 0.4679 0.28448 0.0
C257 C 0.29209 0.47691 0.18577 0.0
C258 C 0.30023 0.50562 0.08943 0.0
C259 C 0.23344 0.53975 0.47417 0.0
C260 C 0.21615 0.5267 0.5064 0.0
C261 C 0.20946 0.50623 0.47224 0.0
C262 C 0.21697 0.50112 0.40396 0.0
C263 C 0.23146 0.5163 0.36979 0.0
C264 C 0.24145 0.53361 0.40742 0.0
C265 C 0.26201 0.54302 0.37047 0.0
C266 C 0.26108 0.5296 0.30146 0.0
C267 C 0.24224 0.515 0.3006 0.0
C268 C 0.28323 0.53771 0.41619 0.0
C269 C 0.25871 0.56874 0.35757 0.0
C270 C 0.1949 0.50164 0.08688 0.0
C271 C 0.1987 0.50951 0.01774 0.0
C272 C 0.22123 0.51516 0.99791 0.0
C273 C 0.23943 0.51315 0.04613 0.0
C274 C 0.2351 0.50544 0.11476 0.0
C275 C 0.21305 0.50057 0.13512 0.0
C276 C 0.21134 0.49733 0.21397 0.0
C277 C 0.23518 0.50466 0.23673 0.0
C278 C 0.2496 0.50627 0.17826 0.0
C279 C 0.20693 0.47185 0.22789 0.0
C280 C 0.19233 0.51259 0.24445 0.0
H281 H 0.30676 0.56288 0.30851 0.0
H282 H 0.34083 0.49217 0.21068 0.0
H283 H 0.30008 0.52398 0.07495 0.0
H284 H 0.28815 0.49637 0.05485 0.0
H285 H 0.31749 0.49876 0.07912 0.0
H286 H 0.28781 0.47464 0.24245 0.0
H287 H 0.30838 0.46804 0.17498 0.0
H288 H 0.27867 0.46855 0.15376 0.0
H289 H 0.24056 0.55473 0.49853 0.0
H290 H 0.19815 0.49417 0.49702 0.0
H291 H 0.21163 0.48552 0.37973 0.0
H292 H 0.29141 0.52149 0.39978 0.0
H293 H 0.27902 0.53595 0.47303 0.0
H294 H 0.29584 0.55167 0.41462 0.0
H295 H 0.24189 0.57212 0.33316 0.0
H296 H 0.27175 0.57557 0.32127 0.0
H297 H 0.2597 0.57837 0.40793 0.0
H298 H 0.34568 0.55298 0.33991 0.0
C299 C 0.31396 0.54733 0.28841 0.0
C300 C 0.90707 0.23763 0.43451 0.0
C301 C 0.8972 0.21589 0.42804 0.0
C302 C 0.90276 0.20253 0.36842 0.0
C303 C 0.92968 0.23095 0.32934 0.0
C304 C 0.92339 0.24462 0.38517 0.0
C305 C 0.93738 0.26597 0.38882 0.0
H306 H 0.01692 0.33658 0.25562 0.0
C307 C 0.94875 0.24213 0.29217 0.0
C308 C 0.95321 0.26274 0.32601 0.0
H309 H 0.97525 0.34286 0.44313 0.0
H310 H 0.95935 0.30669 0.42219 0.0
H311 H 0.02857 0.27753 0.29131 0.0
H312 H 0.97914 0.30771 0.14879 0.0
H313 H 0.99772 0.28736 0.1095 0.0
H314 H 1.00889 0.31407 0.13995 0.0
H315 H 0.03745 0.29662 0.22237 0.0
H316 H 0.03004 0.26764 0.20277 0.0
C317 C 0.95048 0.26583 0.46001 0.0
C318 C 0.92103 0.28642 0.37847 0.0
C319 C 0.98619 0.19803 0.09642 0.0
C320 C 1.00413 0.20177 0.04946 0.0
C321 C 0.01519 0.22325 0.05186 0.0
C322 C 1.00875 0.24017 0.10186 0.0
C323 C 0.99092 0.23572 0.14962 0.0
C324 C 0.97994 0.21489 0.14484 0.0
C325 C 0.96096 0.21252 0.19624 0.0
C326 C 0.96241 0.23496 0.23489 0.0
C327 C 0.98 0.24897 0.20858 0.0
C328 C 0.96645 0.19197 0.24504 0.0
C329 C 0.93849 0.21035 0.15387 0.0
C330 C 1.00433 0.33001 0.29182 0.0
C331 C 0.99652 0.34359 0.34939 0.0
C332 C 0.98075 0.33383 0.39629 0.0
C333 C 0.97158 0.31238 0.38451 0.0
C334 C 0.97837 0.29961 0.32583 0.0
C335 C 0.99502 0.30783 0.28134 0.0
C336 C 1.00081 0.29007 0.225 0.0
C337 C 0.98404 0.27073 0.24185 0.0
C338 C 0.97091 0.27703 0.30097 0.0
C339 C 0.02561 0.28252 0.2355 0.0
C340 C 0.99649 0.30032 0.15154 0.0
H341 H 0.92264 0.19854 0.27683 0.0
H342 H 0.90319 0.24849 0.47909 0.0
H343 H 0.90762 0.28226 0.33923 0.0
H344 H 0.92945 0.30172 0.35706 0.0
H345 H 0.91242 0.29094 0.42869 0.0
H346 H 0.95267 0.24825 0.48091 0.0
H347 H 0.94143 0.27587 0.50095 0.0
H348 H 0.96805 0.27232 0.45476 0.0
H349 H 0.97674 0.1822 0.09501 0.0
H350 H 0.02895 0.22684 0.0157 0.0
H351 H 0.01771 0.2561 0.10147 0.0
H352 H 0.98503 0.1905 0.25434 0.0
H353 H 0.96065 0.17569 0.22125 0.0
H354 H 0.95908 0.19359 0.29833 0.0
H355 H 0.93964 0.21921 0.10212 0.0
H356 H 0.92394 0.21858 0.1806 0.0
H357 H 0.93429 0.19223 0.14312 0.0
H358 H 0.89605 0.1855 0.36188 0.0
C359 C 0.91871 0.21001 0.31909 0.0
C360 C 0.30664 0.99798 0.0957 0.0
C361 C 0.32759 0.98801 0.07433 0.0
C362 C 0.33432 0.96748 0.10641 0.0
C363 C 0.30072 0.96727 0.18003 0.0
C364 C 0.29328 0.98706 0.14826 0.0
C365 C 0.2702 0.99413 0.17768 0.0
H366 H 0.18585 0.97068 0.42068 0.0
C367 C 0.28407 0.96028 0.23412 0.0
C368 C 0.26568 0.97563 0.23322 0.0
H369 H 0.18538 0.02609 0.27111 0.0
H370 H 0.22201 0.01345 0.22476 0.0
H371 H 0.20347 0.93279 0.31685 0.0
H372 H 0.23557 0.97704 0.46657 0.0
H373 H 0.25066 0.95143 0.47168 0.0
H374 H 0.22083 0.95174 0.49299 0.0
H375 H 0.20117 0.92899 0.41046 0.0
H376 H 0.2239 0.91617 0.36043 0.0
C377 C 0.2527 0.99329 0.11742 0.0
C378 C 0.27238 0.01793 0.21131 0.0
C379 C 0.30664 0.89769 0.40386 0.0
C380 C 0.29663 0.88906 0.46579 0.0
C381 C 0.27387 0.89473 0.48052 0.0
C382 C 0.26203 0.91016 0.43761 0.0
C383 C 0.27309 0.92017 0.37948 0.0
C384 C 0.29469 0.91316 0.36206 0.0
C385 C 0.30406 0.9257 0.29948 0.0
C386 C 0.28492 0.94233 0.28422 0.0
C387 C 0.26695 0.93907 0.33128 0.0
C388 C 0.30731 0.90819 0.23882 0.0
C389 C 0.32607 0.93809 0.32313 0.0
C390 C 0.19356 0.98043 0.37852 0.0
C391 C 0.18263 0.99962 0.35063 0.0
C392 C 0.19332 1.0112 0.29402 0.0
C393 C 0.21461 1.00388 0.26716 0.0
C394 C 0.22533 0.98464 0.29667 0.0
C395 C 0.21449 0.97338 0.35138 0.0
C396 C 0.2277 0.95352 0.37832 0.0
C397 C 0.24818 0.95413 0.33044 0.0
C398 C 0.2472 0.97242 0.28206 0.0
C399 C 0.21339 0.93165 0.36662 0.0
C400 C 0.23398 0.95843 0.45648 0.0
H401 H 0.32774 0.94181 0.18053 0.0
H402 H 0.30083 0.01369 0.0719 0.0
H403 H 0.28704 0.01841 0.24813 0.0
H404 H 0.25723 0.02265 0.24223 0.0
H405 H 0.27511 0.03114 0.1702 0.0
H406 H 0.25407 0.97691 0.08819 0.0
H407 H 0.25561 1.0074 0.07943 0.0
H408 H 0.23509 0.99437 0.13681 0.0
H409 H 0.32417 0.89411 0.39089 0.0
H410 H 0.26557 0.88811 0.52718 0.0
H411 H 0.24506 0.91443 0.4533 0.0
H412 H 0.29632 0.89293 0.24575 0.0
H413 H 0.32513 0.90209 0.23601 0.0
H414 H 0.30231 0.91519 0.18685 0.0
H415 H 0.32424 0.94486 0.37767 0.0
H416 H 0.33026 0.95313 0.29084 0.0
H417 H 0.34083 0.92631 0.32273 0.0
H418 H 0.35035 0.95957 0.09286 0.0
C419 C 0.32112 0.95715 0.15825 0.0
C420 C 0.51648 0.31033 0.07093 0.0
C421 C 0.52586 0.33164 0.05069 0.0
C422 C 0.54651 0.33853 0.08077 0.0
C423 C 0.54776 0.30454 0.15286 0.0
C424 C 0.52774 0.29704 0.12291 0.0
C425 C 0.5206 0.27424 0.15454 0.0
H426 H 0.54503 0.19076 0.39931 0.0
C427 C 0.55506 0.288 0.20688 0.0
C428 C 0.5394 0.26989 0.20894 0.0
H429 H 0.48776 0.19102 0.25718 0.0
H430 H 0.50081 0.22698 0.20711 0.0
H431 H 0.58284 0.209 0.29178 0.0
H432 H 0.53907 0.23985 0.4455 0.0
H433 H 0.56341 0.25696 0.44504 0.0
H434 H 0.56562 0.22734 0.47011 0.0
H435 H 0.58535 0.20486 0.38527 0.0
H436 H 0.59927 0.22822 0.34164 0.0
C437 C 0.52068 0.25616 0.09559 0.0
C438 C 0.49722 0.27715 0.18987 0.0
C439 C 0.62155 0.30977 0.36136 0.0
C440 C 0.62948 0.3012 0.42581 0.0
C441 C 0.62189 0.27973 0.44896 0.0
C442 C 0.60566 0.26756 0.40997 0.0
C443 C 0.59641 0.27735 0.34851 0.0
C444 C 0.60473 0.29792 0.32473 0.0
C445 C 0.5915 0.30709 0.26347 0.0
C446 C 0.5736 0.28874 0.25449 0.0
C447 C 0.57667 0.27131 0.30374 0.0
C448 C 0.60775 0.30819 0.19915 0.0
C449 C 0.58099 0.33034 0.28601 0.0
C450 C 0.5349 0.19846 0.35813 0.0
C451 C 0.51512 0.18782 0.33333 0.0
C452 C 0.50314 0.19859 0.2777 0.0
C453 C 0.51066 0.21957 0.24877 0.0
C454 C 0.53036 0.23005 0.27565 0.0
C455 C 0.54196 0.21925 0.32962 0.0
C456 C 0.56196 0.23256 0.355 0.0
C457 C 0.56127 0.25281 0.30594 0.0
C458 C 0.54268 0.25174 0.25899 0.0
C459 C 0.58358 0.21798 0.34343 0.0
C460 C 0.55752 0.23949 0.43296 0.0
H461 H 0.57308 0.33176 0.15104 0.0
H462 H 0.5007 0.30447 0.04807 0.0
H463 H 0.49718 0.29242 0.22466 0.0
H464 H 0.49267 0.26251 0.2234 0.0
H465 H 0.48373 0.27942 0.14959 0.0
H466 H 0.53679 0.257 0.06507 0.0
H467 H 0.5064 0.25902 0.05844 0.0
H468 H 0.51946 0.23866 0.11639 0.0
H469 H 0.62648 0.3266 0.34355 0.0
H470 H 0.62763 0.27298 0.49902 0.0
H471 H 0.60019 0.25153 0.43107 0.0
H472 H 0.59889 0.30588 0.14826 0.0
H473 H 0.62041 0.29413 0.20072 0.0
H474 H 0.61729 0.32451 0.19818 0.0
H475 H 0.57838 0.33126 0.34407 0.0
H476 H 0.56386 0.33321 0.26413 0.0
H477 H 0.59212 0.34481 0.27095 0.0
H478 H 0.5543 0.35449 0.06526 0.0
C479 C 0.55748 0.32516 0.13078 0.0
Tb480 Tb 0.02672 1.00501 0.79225 0.0
Eu481 Eu 0.98919 0.0213 0.6758 0.0
C482 C 0.04156 0.01527 0.63094 0.0
C483 C 0.01252 0.05709 0.78099 0.0
C484 C 0.07842 0.98006 0.8648 0.0
C485 C 0.1005 0.9548 0.78996 0.0
C486 C 0.0828 0.97041 0.79839 0.0
C487 C 0.09276 0.97514 0.92146 0.0
C488 C 0.11053 0.95962 0.91303 0.0
C489 C 0.1141 0.9487 0.84779 0.0
C490 C 0.05798 0.99383 0.87596 0.0
O491 O 0.99409 0.99792 0.84384 0.0
O492 O 0.97285 0.02397 0.78344 0.0
O493 O 0.99164 0.9831 0.66027 0.0
O494 O 0.0227 0.97413 0.72859 0.0
C495 C 0.97574 1.0105 0.83779 0.0
O496 O 0.95513 0.01604 0.63484 0.0
O497 O 0.97589 0.04345 0.59312 0.0
O498 O 0.02042 0.01625 0.60919 0.0
O499 O 0.04677 0.01377 0.69837 0.0
O500 O 0.01701 0.03983 0.82307 0.0
O501 O 1.00593 0.05356 0.71568 0.0
C502 C 1.00703 0.96853 0.68226 0.0
O503 O 0.05742 0.01318 0.84242 0.0
O504 O 0.03889 0.98278 0.87008 0.0
C505 C 0.93682 0.05033 0.60587 0.0
C506 C 0.90411 0.08479 0.6251 0.0
C507 C 0.9127 0.07278 0.68337 0.0
C508 C 0.92901 0.05576 0.67385 0.0
C509 C 0.9275 0.06141 0.54747 0.0
C510 C 0.91132 0.07851 0.55689 0.0
C511 C 0.95569 0.03434 0.59585 0.0
H512 H 0.10289 0.94669 0.73916 0.0
H513 H 0.07192 0.97418 0.75389 0.0
H514 H 0.08959 0.98249 0.97297 0.0
H515 H 0.12046 0.955 0.95888 0.0
H516 H 0.90746 0.07711 0.73645 0.0
H517 H 0.93604 0.04736 0.71974 0.0
H518 H 0.93342 0.05749 0.49472 0.0
H519 H 0.90553 0.0877 0.5108 0.0
Tb520 Tb 0.51538 0.03416 0.7766 0.0
Eu521 Eu 0.49629 0.99612 0.66536 0.0
C522 C 0.49961 0.04852 0.62289 0.0
C523 C 0.4638 0.0172 0.78651 0.0
C524 C 0.54827 0.0838 0.82749 0.0
C525 C 0.57173 0.09959 0.73417 0.0
C526 C 0.5518 0.08893 0.75598 0.0
C527 C 0.56382 0.09164 0.87768 0.0
C528 C 0.58385 0.10229 0.85587 0.0
C529 C 0.58858 0.10497 0.78355 0.0
C530 C 0.53093 0.06697 0.84753 0.0
O531 O 0.51161 1.0044 0.84531 0.0
O532 O 0.50764 0.97627 0.76108 0.0
O533 O 0.53136 1.00609 0.62641 0.0
O534 O 0.54576 0.01773 0.7324 0.0
C535 C 0.51044 0.98278 0.82686 0.0
O536 O 0.5018 0.96398 0.61019 0.0
O537 O 0.47118 0.98352 0.59073 0.0
O538 O 0.48713 0.03011 0.61735 0.0
O539 O 0.51502 0.05027 0.67253 0.0
O540 O 0.47861 0.0338 0.79504 0.0
O541 O 0.46819 0.99958 0.74593 0.0
C542 C 0.54877 1.01109 0.66673 0.0
O543 O 0.51199 0.06788 0.81228 0.0
O544 O 0.53834 0.04611 0.85295 0.0
C545 C 0.46766 0.94385 0.59372 0.0
C546 C 0.43534 0.90944 0.6187 0.0
C547 C 0.44816 0.91845 0.67469 0.0
C548 C 0.46413 0.9356 0.66234 0.0
C549 C 0.45588 0.93413 0.53735 0.0
C550 C 0.43985 0.9171 0.54962 0.0
C551 C 0.48165 0.96413 0.58167 0.0
H552 H 0.57502 0.10135 0.6782 0.0
H553 H 0.54017 0.08295 0.71624 0.0
H554 H 0.56143 0.08778 0.93305 0.0
H555 H 0.59668 0.10599 0.8951 0.0
H556 H 0.44519 0.9129 0.72833 0.0
H557 H 0.47303 0.94305 0.70666 0.0
H558 H 0.45827 0.94048 0.48422 0.0
H559 H 0.43 0.91103 0.50526 0.0
Tb560 Tb 0.48526 0.51962 0.774 0.0
Eu561 Eu 0.52476 0.50687 0.66008 0.0
C562 C 0.47292 0.50821 0.61511 0.0
C563 C 0.50428 0.46973 0.76835 0.0
C564 C 0.4319 0.54312 0.84228 0.0
C565 C 0.40645 0.56267 0.76169 0.0
C566 C 0.42306 0.54614 0.77416 0.0
C567 C 0.42302 0.55579 0.89829 0.0
C568 C 0.40663 0.57245 0.88584 0.0
C569 C 0.39872 0.5767 0.81691 0.0
C570 C 0.45243 0.52948 0.85372 0.0
O571 O 0.51664 0.52753 0.83126 0.0
O572 O 0.54224 0.50691 0.76613 0.0
O573 O 0.5217 0.54517 0.65227 0.0
O574 O 0.48733 0.55022 0.70783 0.0
C575 C 0.53685 0.51824 0.82349 0.0
O576 O 0.55878 0.51219 0.61834 0.0
O577 O 0.53721 0.48612 0.57281 0.0
O578 O 0.49344 0.51371 0.59467 0.0
O579 O 0.46846 0.50435 0.682 0.0
O580 O 0.49799 0.48664 0.80935 0.0
O581 O 0.5107 0.47351 0.70288 0.0
C582 C 0.50417 0.55796 0.66887 0.0
O583 O 0.45393 0.51044 0.81867 0.0
O584 O 0.47128 0.54102 0.85124 0.0
C585 C 0.57615 0.47827 0.58143 0.0
C586 C 0.60941 0.44391 0.58899 0.0
C587 C 0.5966 0.44975 0.64895 0.0
C588 C 0.58007 0.46679 0.64516 0.0
C589 C 0.58945 0.47319 0.52237 0.0
C590 C 0.60597 0.45616 0.52606 0.0
C591 C 0.5576 0.49479 0.57568 0.0
H592 H 0.40059 0.56528 0.7082 0.0
H593 H 0.42984 0.53658 0.73 0.0
H594 H 0.42981 0.55382 0.95102 0.0
H595 H 0.40155 0.58311 0.92969 0.0
H596 H 0.59892 0.44072 0.69821 0.0
H597 H 0.56994 0.47059 0.69141 0.0
H598 H 0.58659 0.48191 0.47282 0.0
H599 H 0.61522 0.45182 0.47855 0.0
Tb600 Tb 1.00278 0.50194 0.75546 0.0
Eu601 Eu 0.01623 0.54159 0.64401 0.0
C602 C 0.01564 0.48871 0.59874 0.0
C603 C 0.05217 0.52226 0.75888 0.0
C604 C 0.97038 0.45507 0.82347 0.0
C605 C 0.94212 0.44589 0.73488 0.0
C606 C 0.96482 0.44854 0.75412 0.0
C607 C 0.95359 0.4541 0.87573 0.0
C608 C 0.9309 0.4516 0.85627 0.0
C609 C 0.92507 0.45019 0.78458 0.0
C610 C 0.98987 0.47026 0.83503 0.0
O611 O 1.00642 0.53328 0.81831 0.0
O612 O 0.99571 0.55764 0.73151 0.0
O613 O 0.9824 0.53009 0.60303 0.0
O614 O 0.97038 0.5115 0.70353 0.0
C615 C 0.99904 0.55339 0.79839 0.0
O616 O 0.01094 0.57622 0.60472 0.0
O617 O 0.03856 0.55594 0.56376 0.0
O618 O 0.0263 0.50824 0.59063 0.0
O619 O 1.00234 0.48515 0.65306 0.0
O620 O 0.03998 0.50351 0.76298 0.0
O621 O 0.04423 0.54024 0.72575 0.0
C622 C 0.96638 0.52016 0.64008 0.0
O623 O 1.00684 0.46822 0.79116 0.0
O624 O 0.98414 0.49157 0.8439 0.0
C625 C 0.04696 0.59328 0.59488 0.0
C626 C 0.08968 0.6049 0.64722 0.0
C627 C 0.07144 0.60233 0.6939 0.0
C628 C 0.05011 0.5964 0.66782 0.0
C629 C 0.06402 0.60026 0.54824 0.0
C630 C 0.08531 0.60635 0.57449 0.0
C631 C 0.03023 0.57641 0.5711 0.0
H632 H 0.93795 0.44436 0.67945 0.0
H633 H 0.97749 0.44876 0.71272 0.0
H634 H 0.95751 0.45887 0.92957 0.0
H635 H 0.9179 0.45476 0.89554 0.0
H636 H 0.07445 0.6012 0.75015 0.0
H637 H 0.03716 0.59117 0.70505 0.0
H638 H 0.06194 0.59798 0.49192 0.0
H639 H 0.09924 0.60824 0.53759 0.0
H640 H 0.16906 0.99971 0.49012 0.0
H641 H 0.14463 0.0149 0.2796 0.0
H642 H 0.10628 0.02204 0.32838 0.0
H643 H 0.12062 0.96912 0.54707 0.0
H644 H 0.12151 0.97963 0.63634 0.0
H645 H 0.14727 0.97753 0.58567 0.0
H646 H 0.15537 0.02034 0.60742 0.0
H647 H 0.12967 0.02252 0.6585 0.0
H648 H 0.13417 0.04119 0.58437 0.0
H649 H 0.0695 0.02457 0.40045 0.0
H650 H 0.03861 0.0243 0.48869 0.0
H651 H 0.08728 1.00718 0.6519 0.0
C652 C 0.15572 1.00464 0.45402 0.0
C653 C 0.16004 1.00665 0.38057 0.0
C654 C 0.14199 0.01348 0.33592 0.0
C655 C 0.12005 0.01741 0.36322 0.0
C656 C 0.11633 0.01461 0.43553 0.0
C657 C 0.13378 1.00858 0.48034 0.0
C658 C 0.12533 1.0061 0.55569 0.0
C659 C 0.1289 0.98164 0.58275 0.0
C660 C 0.13682 0.02358 0.60436 0.0
C661 C 0.10031 0.01138 0.54638 0.0
C662 C 0.09541 0.01627 0.47672 0.0
C663 C 0.07326 0.02096 0.45515 0.0
C664 C 0.05576 0.02071 0.50583 0.0
C665 C 0.06036 0.01587 0.57772 0.0
C666 C 0.08307 1.0112 0.59776 0.0
H667 H 0.51913 0.17412 0.47237 0.0
H668 H 0.4944 0.15073 0.26927 0.0
H669 H 0.4855 0.11321 0.32209 0.0
H670 H 0.54767 0.1229 0.51696 0.0
H671 H 0.54127 0.12494 0.60969 0.0
H672 H 0.5435 0.15041 0.55734 0.0
H673 H 0.50309 0.16244 0.59656 0.0
H674 H 0.50081 0.13697 0.64904 0.0
H675 H 0.47968 0.14316 0.58315 0.0
H676 H 0.4811 0.07692 0.39826 0.0
H677 H 0.48242 0.04617 0.4878 0.0
H678 H 0.51197 0.0934 0.63752 0.0
C679 C 0.51193 0.1612 0.43837 0.0
C680 C 0.50765 0.16563 0.36597 0.0
C681 C 0.49765 0.14811 0.32482 0.0
C682 C 0.49267 0.1266 0.35439 0.0
C683 C 0.49777 0.12272 0.42536 0.0
C684 C 0.50719 0.13964 0.46666 0.0
C685 C 0.51213 0.13106 0.54054 0.0
C686 C 0.53766 0.13241 0.55706 0.0
C687 C 0.49808 0.14419 0.59556 0.0
C688 C 0.50428 0.10656 0.53446 0.0
C689 C 0.49582 0.10204 0.46796 0.0
C690 C 0.48769 0.08039 0.4504 0.0
C691 C 0.48846 0.063 0.50172 0.0
C692 C 0.49755 0.06719 0.56972 0.0
C693 C 0.50531 0.08941 0.58591 0.0
H694 H 0.38581 0.54467 0.31053 0.0
H695 H 0.35324 0.47906 0.33816 0.0
H696 H 0.38338 0.46773 0.42159 0.0
H697 H 0.44554 0.52315 0.32488 0.0
H698 H 0.45476 0.54829 0.37133 0.0
H699 H 0.43206 0.55017 0.30797 0.0
H700 H 0.40619 0.56813 0.40343 0.0
H701 H 0.42869 0.566 0.46719 0.0
H702 H 0.40154 0.5531 0.48506 0.0
H703 H 0.41341 0.46609 0.51715 0.0
H704 H 0.44441 0.47191 0.6034 0.0
H705 H 0.45972 0.53724 0.50848 0.0
C706 C 0.38539 0.52766 0.33254 0.0
C707 C 0.36714 0.51267 0.31702 0.0
C708 C 0.36717 0.49068 0.34778 0.0
C709 C 0.38414 0.48418 0.39595 0.0
C710 C 0.40134 0.49968 0.41216 0.0
C711 C 0.40244 0.52076 0.37998 0.0
C712 C 0.42237 0.5345 0.4083 0.0
C713 C 0.43972 0.53931 0.34962 0.0
C714 C 0.4142 0.55674 0.44305 0.0
C715 C 0.43194 0.51811 0.46277 0.0
C716 C 0.41941 0.4982 0.46458 0.0
C717 C 0.42367 0.48136 0.51485 0.0
C718 C 0.44124 0.48484 0.56389 0.0
C719 C 0.45473 0.50478 0.56176 0.0
C720 C 0.45005 0.52155 0.51012 0.0
H721 H 0.97042 0.37893 0.39847 0.0
H722 H 0.03951 0.36319 0.33643 0.0
H723 H 0.05181 0.40096 0.38207 0.0
H724 H 0.97109 0.4406 0.37265 0.0
H725 H 0.95445 0.44559 0.45096 0.0
H726 H 0.9509 0.41955 0.40182 0.0
H727 H 0.95915 0.39617 0.51485 0.0
H728 H 0.96281 0.4221 0.56411 0.0
H729 H 0.98513 0.40111 0.56256 0.0
H730 H 0.05649 0.44057 0.44576 0.0
H731 H 0.05338 0.47461 0.52353 0.0
H732 H 0.98196 0.46047 0.55426 0.0
C733 C 0.9882 0.3833 0.39374 0.0
C734 C 1.004 0.36773 0.36404 0.0
C735 C 0.02695 0.37471 0.35808 0.0
C736 C 0.03411 0.39615 0.38445 0.0
C737 C 0.01814 0.41045 0.41693 0.0
C738 C 0.99563 0.40411 0.42151 0.0
C739 C 0.98197 0.42094 0.46494 0.0
C740 C 0.96351 0.43234 0.41988 0.0
C741 C 0.97167 0.40939 0.53047 0.0
C742 C 1.00026 0.43778 0.48523 0.0
C743 C 0.02098 0.43189 0.45603 0.0
C744 C 0.04029 0.44519 0.46851 0.0
C745 C 0.03838 0.46458 0.51255 0.0
C746 C 0.01745 0.47019 0.54508 0.0
C747 C 0.99822 0.45663 0.53033 0.0
H748 H 0.87511 0.96254 0.07797 0.0
H749 H 0.85883 0.03255 0.1298 0.0
H750 H 0.89441 0.04515 0.07252 0.0
H751 H 0.93908 0.96823 0.09444 0.0
H752 H 0.9436 0.94918 0.02117 0.0
H753 H 0.91924 0.94549 0.0776 0.0
H754 H 0.89303 0.94763 0.96843 0.0
H755 H 0.91717 0.95176 0.91181 0.0
H756 H 0.89437 0.97224 0.91172 0.0
H757 H 0.92733 0.05065 0.98823 0.0
H758 H 0.9577 0.04828 0.89839 0.0
H759 H 0.95425 0.97459 0.90482 0.0
C760 C 0.87954 0.98043 0.07996 0.0
C761 C 0.86422 0.99655 0.10935 0.0
C762 C 0.87043 0.01984 0.10935 0.0
C763 C 0.89055 0.02717 0.07609 0.0
C764 C 0.90457 1.01096 0.04404 0.0
C765 C 0.89964 0.98798 0.04739 0.0
C766 C 0.91658 0.97417 1.00432 0.0
C767 C 0.93045 0.95833 0.05225 0.0
C768 C 0.90456 0.96066 0.94561 0.0
C769 C 0.93132 0.99299 0.97385 0.0
C770 C 0.92408 0.0141 0.99746 0.0
C771 C 0.9335 0.03418 0.97111 0.0
C772 C 0.95068 0.03268 0.91978 0.0
C773 C 0.95863 0.01127 0.8956 0.0
C774 C 0.94896 0.99117 0.92379 0.0
H775 H 0.46887 0.8695 0.01784 0.0
H776 H 0.5322 0.86864 0.13535 0.0
H777 H 0.54199 0.90606 0.08414 0.0
H778 H 0.49416 0.88957 0.85972 0.0
H779 H 0.46972 0.90595 0.83363 0.0
H780 H 0.46616 0.88085 0.88696 0.0
H781 H 0.4447 0.9045 0.98103 0.0
H782 H 0.44808 0.92967 0.92781 0.0
H783 H 0.45788 0.92955 0.01778 0.0
H784 H 0.54497 0.94441 0.01568 0.0
H785 H 0.54244 0.97654 0.93053 0.0
H786 H 0.48022 0.94824 0.84675 0.0
C787 C 0.48506 0.87665 0.03274 0.0
C788 C 0.49975 0.86541 0.08104 0.0
C789 C 0.52028 0.8766 0.09972 0.0
C790 C 0.52612 0.89794 0.07032 0.0
C791 C 0.51149 0.90796 0.02129 0.0
C792 C 0.49149 0.89742 1.00222 0.0
C793 C 0.47945 0.91046 0.94419 0.0
C794 C 0.47725 0.89583 0.87718 0.0
C795 C 0.45615 0.91905 0.96927 0.0
C796 C 0.49577 0.93006 0.93311 0.0
C797 C 0.51395 0.92871 0.97903 0.0
C798 C 0.53086 0.94543 0.97935 0.0
C799 C 0.52928 0.96367 0.93103 0.0
C800 C 0.51126 0.96474 0.88183 0.0
C801 C 0.49431 0.94772 0.88337 0.0
H802 H 0.65845 0.50156 1.00381 0.0
H803 H 0.63518 0.54224 0.18027 0.0
H804 H 0.59648 0.54305 0.12832 0.0
H805 H 0.62972 0.53135 0.87451 0.0
H806 H 0.62326 0.50698 0.82023 0.0
H807 H 0.6478 0.50658 0.87653 0.0
H808 H 0.63341 0.46967 0.93658 0.0
H809 H 0.60897 0.46976 0.87958 0.0
H810 H 0.60528 0.46898 0.9739 0.0
H811 H 0.56107 0.54291 0.04754 0.0
H812 H 0.53262 0.54008 0.952 0.0
H813 H 0.58015 0.50036 0.82756 0.0
C814 C 0.64507 0.51014 0.03264 0.0
C815 C 0.64988 0.52174 0.09658 0.0
C816 C 0.63189 0.53292 0.13206 0.0
C817 C 0.60989 0.53362 0.10243 0.0
C818 C 0.60608 0.52292 0.03746 0.0
C819 C 0.6232 0.51111 1.00365 0.0
C820 C 0.61545 0.50231 0.93232 0.0
C821 C 0.62992 0.51242 0.87239 0.0
C822 C 0.6158 0.47612 0.93052 0.0
C823 C 0.59138 0.51137 0.93015 0.0
C824 C 0.58614 0.52309 0.99134 0.0
C825 C 0.56503 0.53357 0.9999 0.0
C826 C 0.54895 0.53193 0.94502 0.0
C827 C 0.55397 0.52 0.88174 0.0
C828 C 0.57557 0.50959 0.87494 0.0
H829 H 0.04245 0.64739 0.0709 0.0
H830 H 0.97956 0.68388 0.03623 0.0
H831 H 0.96488 0.65111 0.9673 0.0
H832 H 0.04751 0.62458 0.90366 0.0
H833 H 0.05897 0.59745 0.93034 0.0
H834 H 0.06318 0.62217 0.98491 0.0
H835 H 0.04502 0.60124 0.09109 0.0
H836 H 0.04097 0.57632 0.03693 0.0
H837 H 0.01715 0.58894 0.08211 0.0
H838 H 0.96 0.61699 0.88476 0.0
H839 H 0.96351 0.58301 0.80789 0.0
H840 H 0.02868 0.56752 0.9015 0.0
C841 C 0.02528 0.64818 0.05074 0.0
C842 C 0.01204 0.6682 0.05969 0.0
C843 C 0.98983 0.66865 0.0314 0.0
C844 C 0.98146 0.65015 0.99159 0.0
C845 C 0.99535 0.63108 0.98134 0.0
C846 C 0.01664 0.6298 0.01148 0.0
C847 C 0.02876 0.60802 0.98952 0.0
C848 C 0.05091 0.61339 0.94976 0.0
C849 C 0.03324 0.59272 0.05375 0.0
C850 C 0.01126 0.59745 0.94076 0.0
C851 C 0.99212 0.61106 0.93645 0.0
C852 C 0.97463 0.60596 0.88937 0.0
C853 C 0.97677 0.58663 0.84577 0.0
C854 C 0.99605 0.57228 0.85008 0.0
C855 C 0.01337 0.5777 0.89888 0.0
H856 H 0.86251 0.1848 0.4225 0.0
H857 H 0.90494 0.2218 0.56962 0.0
H858 H 0.89612 0.19412 0.66126 0.0
H859 H 0.82483 0.15216 0.56805 0.0
H860 H 0.82603 0.12707 0.51332 0.0
H861 H 0.82388 0.1549 0.47346 0.0
H862 H 0.85967 0.14626 0.39907 0.0
H863 H 0.86204 0.11883 0.43874 0.0
H864 H 0.88563 0.13836 0.44318 0.0
H865 H 0.89798 0.15745 0.71611 0.0
H866 H 0.91034 0.1178 0.72493 0.0
H867 H 0.86877 0.10028 0.54478 0.0
C868 C 0.86912 0.1875 0.47503 0.0
C869 C 0.88479 0.20521 0.48803 0.0
C870 C 0.89276 0.20856 0.55766 0.0
C871 C 0.88782 0.19273 0.61058 0.0
C872 C 0.87496 0.17356 0.59333 0.0
C873 C 0.86517 0.17113 0.52729 0.0
C874 C 0.85752 0.14676 0.51507 0.0
C875 C 0.83152 0.14513 0.51767 0.0
C876 C 0.86682 0.13701 0.44502 0.0
C877 C 0.86797 0.13529 0.5788 0.0
C878 C 0.87652 0.15122 0.62568 0.0
C879 C 0.89064 0.14484 0.68129 0.0
C880 C 0.89762 0.1221 0.68599 0.0
C881 C 0.89065 0.10598 0.63493 0.0
C882 C 0.87434 0.11237 0.58423 0.0
H883 H 0.33196 0.85946 0.445 0.0
H884 H 0.29561 0.89586 0.60856 0.0
H885 H 0.32794 0.89138 0.68784 0.0
H886 H 0.37402 0.8255 0.57247 0.0
H887 H 0.39643 0.83014 0.50939 0.0
H888 H 0.36783 0.82507 0.47943 0.0
H889 H 0.36941 0.86245 0.40738 0.0
H890 H 0.39758 0.86783 0.43758 0.0
H891 H 0.37574 0.88887 0.45194 0.0
H892 H 0.36617 0.89782 0.72872 0.0
H893 H 0.40474 0.91323 0.72684 0.0
H894 H 0.41952 0.87391 0.53884 0.0
C895 C 0.33051 0.86547 0.49876 0.0
C896 C 0.31139 0.87827 0.51999 0.0
C897 C 0.30989 0.88577 0.59078 0.0
C898 C 0.32837 0.88334 0.63649 0.0
C899 C 0.34818 0.87326 0.61096 0.0
C900 C 0.3492 0.86385 0.54398 0.0
C901 C 0.37355 0.85919 0.52236 0.0
C902 C 0.37823 0.83344 0.52087 0.0
C903 C 0.37938 0.87028 0.45073 0.0
C904 C 0.38605 0.87043 0.58283 0.0
C905 C 0.37117 0.87731 0.63522 0.0
C906 C 0.3781 0.89173 0.68961 0.0
C907 C 0.40021 0.90044 0.68816 0.0
C908 C 0.41517 0.89485 0.63231 0.0
C909 C 0.40839 0.87847 0.58201 0.0
H910 H 0.61405 0.31427 0.55253 0.0
H911 H 0.66804 0.32605 0.40276 0.0
H912 H 0.67637 0.36293 0.45933 0.0
H913 H 0.59055 0.36191 0.5345 0.0
H914 H 0.58144 0.36762 0.62357 0.0
H915 H 0.58624 0.3389 0.59612 0.0
H916 H 0.61509 0.33292 0.69715 0.0
H917 H 0.61004 0.36175 0.72635 0.0
H918 H 0.63853 0.35237 0.70734 0.0
H919 H 0.6703 0.40193 0.50162 0.0
H920 H 0.65126 0.43843 0.52706 0.0
H921 H 0.59973 0.40259 0.64627 0.0
C922 C 0.62869 0.32392 0.53533 0.0
C923 C 0.64071 0.31727 0.47447 0.0
C924 C 0.65901 0.33073 0.45039 0.0
C925 C 0.66379 0.35174 0.48228 0.0
C926 C 0.65013 0.35896 0.53819 0.0
C927 C 0.63318 0.34519 0.56562 0.0
C928 C 0.61754 0.35856 0.6138 0.0
C929 C 0.59251 0.35664 0.59048 0.0
C930 C 0.62049 0.35095 0.69073 0.0
C931 C 0.62675 0.38236 0.60301 0.0
C932 C 0.64614 0.38215 0.56179 0.0
C933 C 0.6556 0.40226 0.5358 0.0
C934 C 0.64455 0.42293 0.54992 0.0
C935 C 0.62405 0.42333 0.58884 0.0
C936 C 0.61572 0.40288 0.6182 0.0
H937 H 0.17388 0.51358 0.55491 0.0
H938 H 0.22845 0.56102 0.60307 0.0
H939 H 0.20184 0.58398 0.67179 0.0
H940 H 0.13469 0.54799 0.51995 0.0
H941 H 0.11127 0.53357 0.56181 0.0
H942 H 0.13549 0.51762 0.53432 0.0
H943 H 0.14075 0.50217 0.65995 0.0
H944 H 0.11651 0.51813 0.69024 0.0
H945 H 0.1437 0.52145 0.73301 0.0
H946 H 0.1673 0.60797 0.69515 0.0
H947 H 0.12936 0.62639 0.68897 0.0
H948 H 0.09901 0.56107 0.64313 0.0
C949 C 0.181 0.528 0.58215 0.0
C950 C 0.20333 0.53577 0.56897 0.0
C951 C 0.21119 0.55503 0.60749 0.0
C952 C 0.19624 0.56813 0.64842 0.0
C953 C 0.17375 0.56112 0.65389 0.0
C954 C 0.16649 0.54086 0.62439 0.0
C955 C 0.1411 0.53817 0.63007 0.0
C956 C 0.13005 0.53415 0.55725 0.0
C957 C 0.13513 0.51886 0.68147 0.0
C958 C 0.13496 0.5612 0.66002 0.0
C959 C 0.15395 0.57421 0.67478 0.0
C960 C 0.15227 0.59767 0.68764 0.0
C961 C 0.13078 0.60808 0.68367 0.0
C962 C 0.11151 0.59485 0.66768 0.0
C963 C 0.1136 0.57118 0.65836 0.0
H964 H 0.11328 0.82287 0.9131 0.0
H965 H 0.16987 0.83625 0.05167 0.0
H966 H 0.18042 0.8695 0.9798 0.0
H967 H 0.13982 0.85317 0.74193 0.0
H968 H 0.11184 0.8635 0.72091 0.0
H969 H 0.11538 0.83557 0.75902 0.0
H970 H 0.08736 0.8465 0.85839 0.0
H971 H 0.08399 0.87427 0.82178 0.0
H972 H 0.09314 0.87124 0.91202 0.0
H973 H 0.17568 0.90711 0.92858 0.0
H974 H 0.15718 0.94366 0.90063 0.0
H975 H 0.10333 0.90755 0.79339 0.0
C976 C 0.12885 0.83188 0.92486 0.0
C977 C 0.14085 0.82705 0.98732 0.0
C978 C 0.16061 0.83963 1.00347 0.0
C979 C 0.16672 0.85855 0.9627 0.0
C980 C 0.15301 0.86453 0.90562 0.0
C981 C 0.13477 0.85112 0.88527 0.0
C982 C 0.11963 0.86367 0.83365 0.0
C983 C 0.12181 0.85337 0.75947 0.0
C984 C 0.09461 0.86396 0.85808 0.0
C985 C 0.13026 0.88714 0.8363 0.0
C986 C 0.15016 0.88703 0.87508 0.0
C987 C 0.16064 0.90729 0.89588 0.0
C988 C 0.14996 0.92802 0.88022 0.0
C989 C 0.12892 0.92833 0.84449 0.0
C990 C 0.11976 0.90774 0.81879 0.0
H991 H 0.68295 0.02535 0.78565 0.0
H992 H 0.71805 0.07575 0.91019 0.0
H993 H 0.69688 0.10634 0.8507 0.0
H994 H 0.67092 0.06741 0.6194 0.0
H995 H 0.64424 0.05282 0.6086 0.0
H996 H 0.66915 0.03722 0.63532 0.0
H997 H 0.64647 0.02222 0.74262 0.0
H998 H 0.6222 0.03859 0.71834 0.0
H999 H 0.63452 0.04231 0.80447 0.0
H1000 H 0.66252 0.12708 0.82388 0.0
H1001 H 0.62158 0.13561 0.82298 0.0
H1002 H 0.60939 0.07477 0.70045 0.0
C1003 C 0.68711 0.04298 0.79624 0.0
C1004 C 0.70202 0.04844 0.85143 0.0
C1005 C 0.70687 0.07144 0.86688 0.0
C1006 C 0.69492 0.08891 0.83313 0.0
C1007 C 0.67863 0.08303 0.7829 0.0
C1008 C 0.67541 0.06058 0.7621 0.0
C1009 C 0.65406 0.05811 0.71854 0.0
C1010 C 0.65995 0.05365 0.64083 0.0
C1011 C 0.63842 0.03923 0.74789 0.0
C1012 C 0.64397 0.08166 0.72788 0.0
C1013 C 0.65877 0.09613 0.76281 0.0
C1014 C 0.65117 0.11646 0.79339 0.0
C1015 C 0.62786 0.12125 0.79282 0.0
C1016 C 0.61254 0.10596 0.76076 0.0
C1017 C 0.62098 0.08707 0.72309 0.0
H1018 H 0.36484 0.68664 0.98712 0.0
H1019 H 0.40215 0.71732 0.81502 0.0
H1020 H 0.39261 0.68487 0.73931 0.0
H1021 H 0.38783 0.63893 0.979 0.0
H1022 H 0.36435 0.62026 0.99843 0.0
H1023 H 0.36345 0.64921 0.02709 0.0
H1024 H 0.32558 0.65542 0.9609 0.0
H1025 H 0.32619 0.62609 0.93235 0.0
H1026 H 0.32358 0.64865 0.86841 0.0
H1027 H 0.3933 0.64567 0.70077 0.0
H1028 H 0.40391 0.60544 0.70425 0.0
H1029 H 0.36595 0.59702 0.8983 0.0
C1030 C 0.36996 0.68693 0.93232 0.0
C1031 C 0.38435 0.70435 0.90717 0.0
C1032 C 0.39087 0.70434 0.83542 0.0
C1033 C 0.3855 0.68584 0.79185 0.0
C1034 C 0.37345 0.66758 0.82055 0.0
C1035 C 0.36521 0.66823 0.88899 0.0
C1036 C 0.35768 0.64479 0.91314 0.0
C1037 C 0.36904 0.63792 0.98341 0.0
C1038 C 0.33171 0.64368 0.91901 0.0
C1039 C 0.36603 0.63046 0.85195 0.0
C1040 C 0.37392 0.64401 0.79744 0.0
C1041 C 0.38639 0.63486 0.74167 0.0
C1042 C 0.39233 0.61178 0.74402 0.0
C1043 C 0.38591 0.59803 0.80207 0.0
C1044 C 0.37116 0.60718 0.85354 0.0
H1045 H 0.85016 0.55784 0.80847 0.0
H1046 H 0.79373 0.51369 0.75729 0.0
H1047 H 0.8199 0.48631 0.70296 0.0
H1048 H 0.89234 0.53831 0.66857 0.0
H1049 H 0.91534 0.53754 0.73129 0.0
H1050 H 0.89337 0.55881 0.73865 0.0
H1051 H 0.88403 0.54711 0.86488 0.0
H1052 H 0.90607 0.52616 0.86277 0.0
H1053 H 0.87747 0.51778 0.88449 0.0
H1054 H 0.85147 0.45825 0.69466 0.0
H1055 H 0.88526 0.43457 0.72374 0.0
H1056 H 0.9206 0.4951 0.79352 0.0
C1057 C 0.84329 0.54299 0.78217 0.0
C1058 C 0.82007 0.53776 0.78796 0.0
C1059 C 0.81149 0.51822 0.75313 0.0
C1060 C 0.82634 0.50238 0.72252 0.0
C1061 C 0.8496 0.50639 0.72727 0.0
C1062 C 0.85802 0.52654 0.75528 0.0
C1063 C 0.88301 0.52467 0.77176 0.0
C1064 C 0.89688 0.54076 0.72473 0.0
C1065 C 0.88789 0.52917 0.85058 0.0
C1066 C 0.887 0.5 0.75301 0.0
C1067 C 0.86781 0.48977 0.72562 0.0
C1068 C 0.8668 0.46622 0.71401 0.0
C1069 C 0.88584 0.45285 0.73127 0.0
C1070 C 0.90514 0.46319 0.76122 0.0
C1071 C 0.90583 0.48697 0.77061 0.0
H1072 H 1.00819 0.1557 0.07499 0.0
H1073 H 0.01278 0.20544 0.90671 0.0
H1074 H 0.01694 0.17407 0.81991 0.0
H1075 H 0.04867 0.11447 1.00063 0.0
H1076 H 0.03258 0.09028 0.03107 0.0
H1077 H 0.03172 0.11669 0.07951 0.0
H1078 H 0.9879 0.11712 0.06956 0.0
H1079 H 0.98863 0.09084 0.02062 0.0
H1080 H 0.97487 0.11553 0.98374 0.0
H1081 H 0.01669 0.13646 0.75 0.0
H1082 H 0.01541 0.09689 0.70513 0.0
H1083 H 0.01197 0.07172 0.9198 0.0
C1084 C 0.01037 0.16007 0.01994 0.0
C1085 C 0.01015 0.18321 0.9979 0.0
C1086 C 0.01316 0.188 0.92527 0.0
C1087 C 0.01536 0.17022 0.87548 0.0
C1088 C 0.0148 0.14762 0.89895 0.0
C1089 C 0.01271 0.14256 0.96976 0.0
C1090 C 0.01206 0.11693 0.98156 0.0
C1091 C 0.03247 0.10913 0.02581 0.0
C1092 C 0.98953 0.10969 0.0159 0.0
C1093 C 0.01377 0.10824 0.90628 0.0
C1094 C 0.01525 0.12619 0.85928 0.0
C1095 C 0.01586 0.12235 0.78663 0.0
C1096 C 0.01504 0.09974 0.76153 0.0
C1097 C 0.01382 0.08101 0.80867 0.0
C1098 C 0.01328 0.08552 0.88215 0.0
H1099 H 0.35155 0.96685 0.96798 0.0
H1100 H 0.34095 0.03296 0.06466 0.0
H1101 H 0.37305 0.04848 0.99505 0.0
H1102 H 0.41074 0.96759 0.97392 0.0
H1103 H 0.41479 0.95325 0.89078 0.0
H1104 H 0.38937 0.94836 0.94103 0.0
H1105 H 0.36514 0.96027 0.83309 0.0
H1106 H 0.39068 0.9651 0.78299 0.0
H1107 H 0.37002 0.98756 0.79217 0.0
H1108 H 0.40969 0.05536 0.92529 0.0
H1109 H 0.44531 0.05381 0.85671 0.0
H1110 H 0.43212 0.98292 0.80621 0.0
C1111 C 0.35565 0.98474 0.9736 0.0
C1112 C 0.34356 0.99869 0.02207 0.0
C1113 C 0.3496 0.02199 0.02739 0.0
C1114 C 0.36799 0.03089 0.98838 0.0
C1115 C 0.38013 0.01636 0.94356 0.0
C1116 C 0.37395 0.99383 0.93529 0.0
C1117 C 0.39041 0.98137 0.88691 0.0
C1118 C 0.40201 0.96148 0.92553 0.0
C1119 C 0.37834 0.97309 0.8198 0.0
C1120 C 0.40721 1.00024 0.87039 0.0
C1121 C 0.40095 0.02033 0.9033 0.0
C1122 C 0.41449 0.03978 0.89863 0.0
C1123 C 0.43482 0.03869 0.85959 0.0
C1124 C 0.44162 0.01831 0.82524 0.0
C1125 C 0.42739 0.9989 0.8307 0.0
H1126 H 0.51315 0.37573 0.07226 0.0
H1127 H 0.51715 0.32391 0.91029 0.0
H1128 H 0.50972 0.35332 0.81902 0.0
H1129 H 0.46855 0.41163 0.98627 0.0
H1130 H 0.48168 0.43757 0.01668 0.0
H1131 H 0.48401 0.41189 0.06825 0.0
H1132 H 0.52777 0.41578 0.06636 0.0
H1133 H 0.52564 0.44118 0.01374 0.0
H1134 H 0.54234 0.41745 0.9829 0.0
H1135 H 0.50752 0.38999 0.74459 0.0
H1136 H 0.50659 0.4291 0.69558 0.0
H1137 H 0.50318 0.45658 0.90762 0.0
C1138 C 0.51156 0.37045 0.01775 0.0
C1139 C 0.5153 0.34743 0.99842 0.0
C1140 C 0.51377 0.34128 0.92642 0.0
C1141 C 0.50979 0.35797 0.87424 0.0
C1142 C 0.50714 0.38072 0.89497 0.0
C1143 C 0.50751 0.38683 0.96536 0.0
C1144 C 0.50555 0.41247 0.97415 0.0
C1145 C 0.48364 0.41876 0.01367 0.0
C1146 C 0.52658 0.42228 0.01148 0.0
C1147 C 0.50455 0.42001 0.89776 0.0
C1148 C 0.50552 0.40151 0.85268 0.0
C1149 C 0.50632 0.4045 0.77964 0.0
C1150 C 0.5059 0.42683 0.7522 0.0
C1151 C 0.50456 0.44604 0.79747 0.0
C1152 C 0.50382 0.44237 0.87127 0.0
H1153 H 0.16185 0.4818 0.9846 0.0
H1154 H 0.19013 0.54879 0.945 0.0
H1155 H 0.15591 0.5591 0.87683 0.0
H1156 H 0.13602 0.47583 0.80857 0.0
H1157 H 0.11162 0.46061 0.8412 0.0
H1158 H 0.1384 0.4584 0.88647 0.0
H1159 H 0.11905 0.47158 1.00223 0.0
H1160 H 0.09229 0.47406 0.95705 0.0
H1161 H 0.10378 0.4982 1.00369 0.0
H1162 H 0.11725 0.56338 0.82146 0.0
H1163 H 0.07957 0.5596 0.76709 0.0
H1164 H 0.07648 0.48893 0.83316 0.0
C1165 C 0.16089 0.49858 0.96111 0.0
C1166 C 0.17883 0.5145 0.97039 0.0
C1167 C 0.17686 0.53621 0.9383 0.0
C1168 C 0.15734 0.5423 0.89994 0.0
C1169 C 0.13986 0.52642 0.89296 0.0
C1170 C 0.14163 0.50481 0.92118 0.0
C1171 C 0.12065 0.49074 0.90324 0.0
C1172 C 0.12706 0.47017 0.85713 0.0
C1173 C 0.10821 0.4832 0.97057 0.0
C1174 C 0.10663 0.50795 0.86176 0.0
C1175 C 0.11799 0.5285 0.85745 0.0
C1176 C 0.10838 0.54725 0.82383 0.0
C1177 C 0.08689 0.54489 0.79263 0.0
C1178 C 0.07499 0.52388 0.79404 0.0
C1179 C 0.08509 0.50519 0.82994 0.0
H1180 H 1.0039 0.87225 0.38047 0.0
H1181 H 0.01534 0.82192 0.54343 0.0
H1182 H 0.01344 0.85232 0.63425 0.0
H1183 H 0.03636 0.91634 0.45287 0.0
H1184 H 0.01741 0.93915 0.42882 0.0
H1185 H 0.01803 0.91337 0.37736 0.0
H1186 H 0.97487 0.90798 0.39629 0.0
H1187 H 0.97403 0.93393 0.44711 0.0
H1188 H 0.96356 0.90775 0.48464 0.0
H1189 H 0.01548 0.88939 0.70548 0.0
H1190 H 0.01547 0.92875 0.75284 0.0
H1191 H 0.99909 0.95476 0.54528 0.0
C1192 C 1.00536 0.86758 0.43551 0.0
C1193 C 0.00949 0.84461 0.455 0.0
C1194 C 0.01174 0.83926 0.52741 0.0
C1195 C 0.01088 0.85649 0.57926 0.0
C1196 C 1.00734 0.87904 0.55816 0.0
C1197 C 1.00404 0.88452 0.48804 0.0
C1198 C 1.00065 0.91006 0.47911 0.0
C1199 C 0.01922 0.92033 0.43174 0.0
C1200 C 0.97686 0.91524 0.45008 0.0
C1201 C 1.00304 0.91822 0.55485 0.0
C1202 C 1.00718 0.90009 0.59958 0.0
C1203 C 0.01174 0.90359 0.67105 0.0
C1204 C 0.0118 0.92605 0.69751 0.0
C1205 C 1.00689 0.94484 0.65321 0.0
C1206 C 1.00238 0.94073 0.5809 0.0
H1207 H 0.64857 0.02104 0.37965 0.0
H1208 H 0.69287 0.98617 0.5275 0.0
H1209 H 0.66184 0.98583 0.61493 0.0
H1210 H 0.61719 0.05499 0.50559 0.0
H1211 H 0.59064 0.0516 0.45986 0.0
H1212 H 0.61694 0.0508 0.41145 0.0
H1213 H 0.60605 0.01128 0.36075 0.0
H1214 H 0.5798 0.01197 0.40936 0.0
H1215 H 0.59909 0.9884 0.42031 0.0
H1216 H 0.62486 0.98843 0.68654 0.0
H1217 H 0.58599 0.99363 0.73391 0.0
H1218 H 0.5649 0.02311 0.53514 0.0
C1219 C 0.65195 0.01307 0.42994 0.0
C1220 C 0.67361 1.00353 0.44548 0.0
C1221 C 0.67685 0.99394 0.51352 0.0
C1222 C 0.65914 0.99346 0.5637 0.0
C1223 C 0.638 1.00253 0.54564 0.0
C1224 C 0.63437 0.01213 0.48021 0.0
C1225 C 0.60987 0.01993 0.47255 0.0
C1226 C 0.6086 0.04586 0.46173 0.0
C1227 C 0.59801 1.00713 0.41216 0.0
C1228 C 0.60016 0.01313 0.54375 0.0
C1229 C 0.61673 1.00335 0.58556 0.0
C1230 C 0.61185 0.99607 0.65402 0.0
C1231 C 0.5897 0.99912 0.68061 0.0
C1232 C 0.57232 1.00863 0.63825 0.0
C1233 C 0.57773 0.0156 0.56869 0.0
H1234 H 0.51103 0.65364 0.36878 0.0
H1235 H 0.47828 0.70033 0.51328 0.0
H1236 H 0.48103 0.67141 0.60831 0.0
H1237 H 0.48374 0.60487 0.42348 0.0
H1238 H 0.50763 0.58589 0.4147 0.0
H1239 H 0.50604 0.61117 0.36133 0.0
H1240 H 0.54522 0.62441 0.40744 0.0
H1241 H 0.54715 0.59893 0.46011 0.0
H1242 H 0.54998 0.6265 0.50111 0.0
H1243 H 0.48156 0.63459 0.68121 0.0
H1244 H 0.48481 0.59559 0.73027 0.0
H1245 H 0.51946 0.57361 0.54045 0.0
C1246 C 0.50534 0.6581 0.42131 0.0
C1247 C 0.49488 0.67948 0.43407 0.0
C1248 C 0.48691 0.68439 0.50282 0.0
C1249 C 0.48818 0.66791 0.55686 0.0
C1250 C 0.49777 0.64665 0.54168 0.0
C1251 C 0.50674 0.64195 0.47589 0.0
C1252 C 0.51515 0.61749 0.47177 0.0
C1253 C 0.50237 0.60408 0.41443 0.0
C1254 C 0.54091 0.61679 0.45939 0.0
C1255 C 0.50909 0.60891 0.54492 0.0
C1256 C 0.4989 0.62591 0.58436 0.0
C1257 C 0.49004 0.62138 0.65128 0.0
C1258 C 0.49187 0.59913 0.67867 0.0
C1259 C 0.50278 0.5816 0.63993 0.0
C1260 C 0.51157 0.58674 0.57224 0.0
H1261 H 0.86263 0.55938 0.39605 0.0
H1262 H 0.83031 0.49435 0.43603 0.0
H1263 H 0.86097 0.48478 0.52106 0.0
H1264 H 0.91797 0.53898 0.39035 0.0
H1265 H 0.93068 0.56354 0.43151 0.0
H1266 H 0.90464 0.56652 0.3829 0.0
H1267 H 0.88516 0.5843 0.49204 0.0
H1268 H 0.91112 0.58156 0.54143 0.0
H1269 H 0.88527 0.56913 0.57461 0.0
H1270 H 0.89853 0.48096 0.59265 0.0
H1271 H 0.93635 0.48469 0.64916 0.0
H1272 H 0.94439 0.55138 0.55599 0.0
C1273 C 0.86168 0.54325 0.4236 0.0
C1274 C 0.84389 0.52761 0.40893 0.0
C1275 C 0.84345 0.50677 0.44668 0.0
C1276 C 0.861 0.50111 0.49458 0.0
C1277 C 0.87893 0.51646 0.50444 0.0
C1278 C 0.87911 0.53728 0.47053 0.0
C1279 C 0.9007 0.55043 0.48656 0.0
C1280 C 0.91429 0.55514 0.4188 0.0
C1281 C 0.89523 0.57267 0.52602 0.0
C1282 C 0.91302 0.5337 0.53385 0.0
C1283 C 0.9002 0.51421 0.54408 0.0
C1284 C 0.9084 0.49632 0.5855 0.0
C1285 C 0.92986 0.49859 0.61785 0.0
C1286 C 0.9432 0.5184 0.60824 0.0
C1287 C 0.93459 0.53605 0.56496 0.0
loop_
_geom_bond_atom_site_label_1
_geom_bond_atom_site_label_2
_geom_bond_distance
_geom_bond_site_symmetry_2
_ccdc_geom_bond_type
C0 C1 1.391 . S
C0 C4 1.391 . S
C0 H42 0.948 . S
C1 C0 1.391 . S
C1 C2 1.391 . S
C2 C1 1.391 . S
C2 H58 0.947 . S
C2 C59 1.392 . S
C3 C4 1.391 . S
C3 C7 1.397 . S
C3 C59 1.419 . S
C4 C0 1.391 . S
C4 C3 1.391 . S
C4 C5 1.399 . S
C5 C4 1.399 . S
C5 C8 1.396 . S
C5 C17 1.453 . S
C5 C18 1.684 . S
H6 C30 0.948 . S
C7 C3 1.397 . S
C7 C8 1.394 . S
C7 C26 1.723 . S
C8 C5 1.396 . S
C8 C7 1.394 . S
C8 C38 1.723 . S
H9 C32 0.947 . S
H10 C33 0.948 . S
H11 C39 0.982 . S
H12 C40 0.979 . S
H13 C40 0.980 . S
H14 C40 0.983 . S
H15 C39 0.979 . S
H16 C39 0.977 . S
C17 C5 1.453 . S
C17 H46 0.982 . S
C17 H47 0.979 . S
C17 H48 0.977 . S
C18 C5 1.684 . S
C18 H43 0.979 . S
C18 H44 0.980 . S
C18 H45 0.983 . S
C19 C20 1.391 . S
C19 C24 1.391 . S
C19 H49 0.948 . S
C20 C19 1.391 . S
C20 C21 1.391 . S
C21 C20 1.391 . S
C21 C22 1.392 . S
C21 H50 0.947 . S
C22 C21 1.392 . S
C22 C23 1.419 . S
C22 H51 0.948 . S
C23 C22 1.419 . S
C23 C24 1.391 . S
C23 C27 1.397 . S
C24 C19 1.391 . S
C24 C23 1.391 . S
C24 C25 1.399 . S
C25 C24 1.399 . S
C25 C26 1.396 . S
C25 C28 1.453 . S
C25 C29 1.684 . S
C26 C7 1.723 . S
C26 C25 1.396 . S
C26 C27 1.394 . S
C27 C23 1.397 . S
C27 C26 1.394 . S
C27 C37 1.723 . S
C28 C25 1.453 . S
C28 H52 0.982 . S
C28 H53 0.979 . S
C28 H54 0.977 . S
C29 C25 1.684 . S
C29 H55 0.979 . S
C29 H56 0.980 . S
C29 H57 0.983 . S
C30 H6 0.948 . S
C30 C31 1.391 . S
C30 C35 1.391 . S
C31 C30 1.391 . S
C31 C32 1.391 . S
C32 H9 0.947 . S
C32 C31 1.391 . S
C32 C33 1.392 . S
C33 H10 0.948 . S
C33 C32 1.392 . S
C33 C34 1.419 . S
C34 C33 1.419 . S
C34 C35 1.391 . S
C34 C38 1.397 . S
C35 C30 1.391 . S
C35 C34 1.391 . S
C35 C36 1.399 . S
C36 C35 1.399 . S
C36 C37 1.396 . S
C36 C39 1.453 . S
C36 C40 1.684 . S
C37 C27 1.723 . S
C37 C36 1.396 . S
C37 C38 1.394 . S
C38 C8 1.723 . S
C38 C34 1.397 . S
C38 C37 1.394 . S
C39 H11 0.982 . S
C39 H15 0.979 . S
C39 H16 0.977 . S
C39 C36 1.453 . S
C40 H12 0.979 . S
C40 H13 0.980 . S
C40 H14 0.983 . S
C40 C36 1.684 . S
H41 C59 0.948 . S
H42 C0 0.948 . S
H43 C18 0.979 . S
H44 C18 0.980 . S
H45 C18 0.983 . S
H46 C17 0.982 . S
H47 C17 0.979 . S
H48 C17 0.977 . S
H49 C19 0.948 . S
H50 C21 0.947 . S
H51 C22 0.948 . S
H52 C28 0.982 . S
H53 C28 0.979 . S
H54 C28 0.977 . S
H55 C29 0.979 . S
H56 C29 0.980 . S
H57 C29 0.983 . S
H58 C2 0.947 . S
C59 C2 1.392 . S
C59 C3 1.419 . S
C59 H41 0.948 . S
C60 C61 1.391 . S
C60 C64 1.391 . S
C60 H102 0.948 . S
C61 C60 1.391 . S
C61 C62 1.391 . S
C62 C61 1.391 . S
C62 H118 0.947 . S
C62 C119 1.392 . S
C63 C64 1.391 . S
C63 C67 1.397 1_655 S
C63 C119 1.419 . S
C64 C60 1.391 . S
C64 C63 1.391 . S
C64 C65 1.399 . S
C65 C64 1.399 . S
C65 C68 1.396 1_655 S
C65 C77 1.453 1_655 S
C65 C78 1.684 . S
H66 C90 0.948 . S
C67 C63 1.397 1_455 S
C67 C68 1.394 . S
C67 C86 1.723 . S
C68 C65 1.396 1_455 S
C68 C67 1.394 . S
C68 C98 1.723 . S
H69 C92 0.947 . S
H70 C93 0.948 . S
H71 C99 0.982 . S
H72 C100 0.979 . S
H73 C100 0.980 . S
H74 C100 0.983 . S
H75 C99 0.979 . S
H76 C99 0.977 . S
C77 C65 1.453 1_455 S
C77 H106 0.982 . S
C77 H107 0.979 . S
C77 H108 0.977 . S
C78 C65 1.684 . S
C78 H103 0.979 . S
C78 H104 0.980 . S
C78 H105 0.983 . S
C79 C80 1.391 . S
C79 C84 1.391 . S
C79 H109 0.948 . S
C80 C79 1.391 . S
C80 C81 1.391 . S
C81 C80 1.391 . S
C81 C82 1.392 . S
C81 H110 0.947 . S
C82 C81 1.392 . S
C82 C83 1.419 . S
C82 H111 0.948 . S
C83 C82 1.419 . S
C83 C84 1.391 . S
C83 C87 1.397 1_655 S
C84 C79 1.391 . S
C84 C83 1.391 . S
C84 C85 1.399 . S
C85 C84 1.399 . S
C85 C86 1.396 1_655 S
C85 C88 1.453 1_655 S
C85 C89 1.684 . S
C86 C67 1.723 . S
C86 C85 1.396 1_455 S
C86 C87 1.394 . S
C87 C83 1.397 1_455 S
C87 C86 1.394 . S
C87 C97 1.723 . S
C88 C85 1.453 1_455 S
C88 H112 0.982 . S
C88 H113 0.979 . S
C88 H114 0.977 . S
C89 C85 1.684 . S
C89 H115 0.979 . S
C89 H116 0.980 . S
C89 H117 0.983 . S
C90 H66 0.948 . S
C90 C91 1.391 . S
C90 C95 1.391 . S
C91 C90 1.391 . S
C91 C92 1.391 . S
C92 H69 0.947 . S
C92 C91 1.391 . S
C92 C93 1.392 . S
C93 H70 0.948 . S
C93 C92 1.392 . S
C93 C94 1.419 . S
C94 C93 1.419 . S
C94 C95 1.391 . S
C94 C98 1.397 1_655 S
C95 C90 1.391 . S
C95 C94 1.391 . S
C95 C96 1.399 . S
C96 C95 1.399 . S
C96 C97 1.396 1_655 S
C96 C99 1.453 1_655 S
C96 C100 1.684 . S
C97 C87 1.723 . S
C97 C96 1.396 1_455 S
C97 C98 1.394 . S
C98 C68 1.723 . S
C98 C94 1.397 1_455 S
C98 C97 1.394 . S
C99 H71 0.982 . S
C99 H75 0.979 . S
C99 H76 0.977 . S
C99 C96 1.453 1_455 S
C100 H72 0.979 . S
C100 H73 0.980 . S
C100 H74 0.983 . S
C100 C96 1.684 . S
H101 C119 0.948 . S
H102 C60 0.948 . S
H103 C78 0.979 . S
H104 C78 0.980 . S
H105 C78 0.983 . S
H106 C77 0.982 . S
H107 C77 0.979 . S
H108 C77 0.977 . S
H109 C79 0.948 . S
H110 C81 0.947 . S
H111 C82 0.948 . S
H112 C88 0.982 . S
H113 C88 0.979 . S
H114 C88 0.977 . S
H115 C89 0.979 . S
H116 C89 0.980 . S
H117 C89 0.983 . S
H118 C62 0.947 . S
C119 C62 1.392 . S
C119 C63 1.419 . S
C119 H101 0.948 . S
C120 C121 1.391 . S
C120 C124 1.391 . S
C120 H162 0.948 . S
C121 C120 1.391 . S
C121 C122 1.391 . S
C122 C121 1.391 . S
C122 H178 0.947 . S
C122 C179 1.392 . S
C123 C124 1.391 . S
C123 C127 1.397 1_565 S
C123 C179 1.419 . S
C124 C120 1.391 . S
C124 C123 1.391 . S
C124 C125 1.399 . S
C125 C124 1.399 . S
C125 C128 1.396 1_565 S
C125 C137 1.453 1_565 S
C125 C138 1.684 . S
H126 C150 0.948 . S
C127 C123 1.397 1_545 S
C127 C128 1.394 . S
C127 C146 1.723 . S
C128 C125 1.396 1_545 S
C128 C127 1.394 . S
C128 C158 1.723 . S
H129 C152 0.947 . S
H130 C153 0.948 . S
H131 C159 0.982 . S
H132 C160 0.979 . S
H133 C160 0.980 . S
H134 C160 0.983 . S
H135 C159 0.979 . S
H136 C159 0.977 . S
C137 C125 1.453 1_545 S
C137 H166 0.982 . S
C137 H167 0.979 . S
C137 H168 0.977 . S
C138 C125 1.684 . S
C138 H163 0.979 . S
C138 H164 0.980 . S
C138 H165 0.983 . S
C139 C140 1.391 . S
C139 C144 1.391 . S
C139 H169 0.948 . S
C140 C139 1.391 . S
C140 C141 1.391 . S
C141 C140 1.391 . S
C141 C142 1.392 . S
C141 H170 0.947 . S
C142 C141 1.392 . S
C142 C143 1.419 . S
C142 H171 0.948 . S
C143 C142 1.419 . S
C143 C144 1.391 . S
C143 C147 1.397 1_565 S
C144 C139 1.391 . S
C144 C143 1.391 . S
C144 C145 1.399 . S
C145 C144 1.399 . S
C145 C146 1.396 1_565 S
C145 C148 1.453 1_565 S
C145 C149 1.684 . S
C146 C127 1.723 . S
C146 C145 1.396 1_545 S
C146 C147 1.394 . S
C147 C143 1.397 1_545 S
C147 C146 1.394 . S
C147 C157 1.723 . S
C148 C145 1.453 1_545 S
C148 H172 0.982 . S
C148 H173 0.979 . S
C148 H174 0.977 . S
C149 C145 1.684 . S
C149 H175 0.979 . S
C149 H176 0.980 . S
C149 H177 0.983 . S
C150 H126 0.948 . S
C150 C151 1.391 . S
C150 C155 1.391 . S
C151 C150 1.391 . S
C151 C152 1.391 . S
C152 H129 0.947 . S
C152 C151 1.391 . S
C152 C153 1.392 . S
C153 H130 0.948 . S
C153 C152 1.392 . S
C153 C154 1.419 . S
C154 C153 1.419 . S
C154 C155 1.391 . S
C154 C158 1.397 1_565 S
C155 C150 1.391 . S
C155 C154 1.391 . S
C155 C156 1.399 . S
C156 C155 1.399 . S
C156 C157 1.396 1_565 S
C156 C159 1.453 1_565 S
C156 C160 1.684 . S
C157 C147 1.723 . S
C157 C156 1.396 1_545 S
C157 C158 1.394 . S
C158 C128 1.723 . S
C158 C154 1.397 1_545 S
C158 C157 1.394 . S
C159 H131 0.982 . S
C159 H135 0.979 . S
C159 H136 0.977 . S
C159 C156 1.453 1_545 S
C160 H132 0.979 . S
C160 H133 0.980 . S
C160 H134 0.983 . S
C160 C156 1.684 . S
H161 C179 0.948 . S
H162 C120 0.948 . S
H163 C138 0.979 . S
H164 C138 0.980 . S
H165 C138 0.983 . S
H166 C137 0.982 . S
H167 C137 0.979 . S
H168 C137 0.977 . S
H169 C139 0.948 . S
H170 C141 0.947 . S
H171 C142 0.948 . S
H172 C148 0.982 . S
H173 C148 0.979 . S
H174 C148 0.977 . S
H175 C149 0.979 . S
H176 C149 0.980 . S
H177 C149 0.983 . S
H178 C122 0.947 . S
C179 C122 1.392 . S
C179 C123 1.419 . S
C179 H161 0.948 . S
C180 C181 1.391 . S
C180 C184 1.391 . S
C180 H222 0.948 . S
C181 C180 1.391 . S
C181 C182 1.391 . S
C182 C181 1.391 . S
C182 H238 0.947 . S
C182 C239 1.392 . S
C183 C184 1.391 . S
C183 C187 1.397 . S
C183 C239 1.419 . S
C184 C180 1.391 . S
C184 C183 1.391 . S
C184 C185 1.399 . S
C185 C184 1.399 . S
C185 C188 1.396 . S
C185 C197 1.453 . S
C185 C198 1.684 . S
H186 C210 0.948 . S
C187 C183 1.397 . S
C187 C188 1.394 . S
C187 C206 1.723 . S
C188 C185 1.396 . S
C188 C187 1.394 . S
C188 C218 1.723 . S
H189 C212 0.947 . S
H190 C213 0.948 . S
H191 C219 0.982 . S
H192 C220 0.979 . S
H193 C220 0.980 . S
H194 C220 0.983 . S
H195 C219 0.979 . S
H196 C219 0.977 . S
C197 C185 1.453 . S
C197 H226 0.982 . S
C197 H227 0.979 . S
C197 H228 0.977 . S
C198 C185 1.684 . S
C198 H223 0.979 . S
C198 H224 0.980 . S
C198 H225 0.983 . S
C199 C200 1.391 . S
C199 C204 1.391 . S
C199 H229 0.948 . S
C200 C199 1.391 . S
C200 C201 1.391 . S
C201 C200 1.391 . S
C201 C202 1.392 . S
C201 H230 0.947 . S
C202 C201 1.392 . S
C202 C203 1.419 . S
C202 H231 0.948 . S
C203 C202 1.419 . S
C203 C204 1.391 . S
C203 C207 1.397 . S
C204 C199 1.391 . S
C204 C203 1.391 . S
C204 C205 1.399 . S
C205 C204 1.399 . S
C205 C206 1.396 . S
C205 C208 1.453 . S
C205 C209 1.684 . S
C206 C187 1.723 . S
C206 C205 1.396 . S
C206 C207 1.394 . S
C207 C203 1.397 . S
C207 C206 1.394 . S
C207 C217 1.723 . S
C208 C205 1.453 . S
C208 H232 0.982 . S
C208 H233 0.979 . S
C208 H234 0.977 . S
C209 C205 1.684 . S
C209 H235 0.979 . S
C209 H236 0.980 . S
C209 H237 0.983 . S
C210 H186 0.948 . S
C210 C211 1.391 . S
C210 C215 1.391 . S
C211 C210 1.391 . S
C211 C212 1.391 . S
C212 H189 0.947 . S
C212 C211 1.391 . S
C212 C213 1.392 . S
C213 H190 0.948 . S
C213 C212 1.392 . S
C213 C214 1.419 . S
C214 C213 1.419 . S
C214 C215 1.391 . S
C214 C218 1.397 . S
C215 C210 1.391 . S
C215 C214 1.391 . S
C215 C216 1.399 . S
C216 C215 1.399 . S
C216 C217 1.396 . S
C216 C219 1.453 . S
C216 C220 1.684 . S
C217 C207 1.723 . S
C217 C216 1.396 . S
C217 C218 1.394 . S
C218 C188 1.723 . S
C218 C214 1.397 . S
C218 C217 1.394 . S
C219 H191 0.982 . S
C219 H195 0.979 . S
C219 H196 0.977 . S
C219 C216 1.453 . S
C220 H192 0.979 . S
C220 H193 0.980 . S
C220 H194 0.983 . S
C220 C216 1.684 . S
H221 C239 0.948 . S
H222 C180 0.948 . S
H223 C198 0.979 . S
H224 C198 0.980 . S
H225 C198 0.983 . S
H226 C197 0.982 . S
H227 C197 0.979 . S
H228 C197 0.977 . S
H229 C199 0.948 . S
H230 C201 0.947 . S
H231 C202 0.948 . S
H232 C208 0.982 . S
H233 C208 0.979 . S
H234 C208 0.977 . S
H235 C209 0.979 . S
H236 C209 0.980 . S
H237 C209 0.983 . S
H238 C182 0.947 . S
C239 C182 1.392 . S
C239 C183 1.419 . S
C239 H221 0.948 . S
C240 C241 1.391 . S
C240 C244 1.391 . S
C240 H282 0.948 . S
C241 C240 1.391 . S
C241 C242 1.391 . S
C242 C241 1.391 . S
C242 H298 0.947 . S
C242 C299 1.392 . S
C243 C244 1.391 . S
C243 C247 1.397 . S
C243 C299 1.419 . S
C244 C240 1.391 . S
C244 C243 1.391 . S
C244 C245 1.399 1_554 S
C245 C244 1.399 1_556 S
C245 C248 1.396 1_556 S
C245 C257 1.453 . S
C245 C258 1.684 . S
H246 C270 0.948 . S
C247 C243 1.397 . S
C247 C248 1.394 . S
C247 C266 1.723 . S
C248 C245 1.396 1_554 S
C248 C247 1.394 . S
C248 C278 1.723 1_554 S
H249 C272 0.947 . S
H250 C273 0.948 . S
H251 C279 0.982 . S
H252 C280 0.979 . S
H253 C280 0.980 1_554 S
H254 C280 0.983 . S
H255 C279 0.979 . S
H256 C279 0.977 1_554 S
C257 C245 1.453 . S
C257 H286 0.982 . S
C257 H287 0.979 . S
C257 H288 0.977 . S
C258 C245 1.684 . S
C258 H283 0.979 . S
C258 H284 0.980 . S
C258 H285 0.983 . S
C259 C260 1.391 . S
C259 C264 1.391 . S
C259 H289 0.948 . S
C260 C259 1.391 . S
C260 C261 1.391 . S
C261 C260 1.391 . S
C261 C262 1.392 . S
C261 H290 0.947 . S
C262 C261 1.392 . S
C262 C263 1.419 . S
C262 H291 0.948 . S
C263 C262 1.419 . S
C263 C264 1.391 . S
C263 C267 1.397 . S
C264 C259 1.391 . S
C264 C263 1.391 . S
C264 C265 1.399 . S
C265 C264 1.399 . S
C265 C266 1.396 . S
C265 C268 1.453 . S
C265 C269 1.684 . S
C266 C247 1.723 . S
C266 C265 1.396 . S
C266 C267 1.394 . S
C267 C263 1.397 . S
C267 C266 1.394 . S
C267 C277 1.723 . S
C268 C265 1.453 . S
C268 H292 0.982 . S
C268 H293 0.979 . S
C268 H294 0.977 . S
C269 C265 1.684 . S
C269 H295 0.979 . S
C269 H296 0.980 . S
C269 H297 0.983 . S
C270 H246 0.948 . S
C270 C271 1.391 . S
C270 C275 1.391 . S
C271 C270 1.391 . S
C271 C272 1.391 . S
C272 H249 0.947 . S
C272 C271 1.391 . S
C272 C273 1.392 . S
C273 H250 0.948 . S
C273 C272 1.392 . S
C273 C274 1.419 . S
C274 C273 1.419 . S
C274 C275 1.391 . S
C274 C278 1.397 . S
C275 C270 1.391 . S
C275 C274 1.391 . S
C275 C276 1.399 . S
C276 C275 1.399 . S
C276 C277 1.396 1_556 S
C276 C279 1.453 . S
C276 C280 1.684 . S
C277 C267 1.723 . S
C277 C276 1.396 1_554 S
C277 C278 1.394 1_554 S
C278 C248 1.723 1_556 S
C278 C274 1.397 . S
C278 C277 1.394 1_556 S
C279 H251 0.982 . S
C279 H255 0.979 . S
C279 H256 0.977 1_556 S
C279 C276 1.453 . S
C280 H252 0.979 . S
C280 H253 0.980 1_556 S
C280 H254 0.983 . S
C280 C276 1.684 . S
H281 C299 0.948 . S
H282 C240 0.948 . S
H283 C258 0.979 . S
H284 C258 0.980 . S
H285 C258 0.983 . S
H286 C257 0.982 . S
H287 C257 0.979 . S
H288 C257 0.977 . S
H289 C259 0.948 . S
H290 C261 0.947 . S
H291 C262 0.948 . S
H292 C268 0.982 . S
H293 C268 0.979 . S
H294 C268 0.977 . S
H295 C269 0.979 . S
H296 C269 0.980 . S
H297 C269 0.983 . S
H298 C242 0.947 . S
C299 C242 1.392 . S
C299 C243 1.419 . S
C299 H281 0.948 . S
C300 C301 1.391 . S
C300 C304 1.391 . S
C300 H342 0.948 . S
C301 C300 1.391 . S
C301 C302 1.391 . S
C302 C301 1.391 . S
C302 H358 0.947 . S
C302 C359 1.392 . S
C303 C304 1.391 . S
C303 C307 1.396 1_655 S
C303 C359 1.419 . S
C304 C300 1.391 . S
C304 C303 1.391 . S
C304 C305 1.399 . S
C305 C304 1.399 . S
C305 C308 1.396 1_655 S
C305 C317 1.453 1_655 S
C305 C318 1.684 . S
H306 C330 0.948 . S
C307 C303 1.396 1_455 S
C307 C308 1.395 . S
C307 C326 1.723 . S
C308 C305 1.396 1_455 S
C308 C307 1.395 . S
C308 C338 1.723 . S
H309 C332 0.947 . S
H310 C333 0.948 . S
H311 C339 0.982 . S
H312 C340 0.979 . S
H313 C340 0.980 . S
H314 C340 0.983 . S
H315 C339 0.979 . S
H316 C339 0.977 . S
C317 C305 1.453 1_455 S
C317 H346 0.982 . S
C317 H347 0.979 . S
C317 H348 0.977 . S
C318 C305 1.684 . S
C318 H343 0.979 . S
C318 H344 0.980 . S
C318 H345 0.983 . S
C319 C320 1.391 . S
C319 C324 1.391 . S
C319 H349 0.948 . S
C320 C319 1.391 . S
C320 C321 1.391 . S
C321 C320 1.391 . S
C321 C322 1.392 . S
C321 H350 0.947 . S
C322 C321 1.392 . S
C322 C323 1.419 . S
C322 H351 0.948 . S
C323 C322 1.419 . S
C323 C324 1.391 . S
C323 C327 1.396 1_655 S
C324 C319 1.391 . S
C324 C323 1.391 . S
C324 C325 1.399 . S
C325 C324 1.399 . S
C325 C326 1.396 1_656 S
C325 C328 1.453 1_655 S
C325 C329 1.684 . S
C326 C307 1.723 . S
C326 C325 1.396 1_454 S
C326 C327 1.395 1_554 S
C327 C323 1.396 1_455 S
C327 C326 1.395 1_556 S
C327 C337 1.723 1_556 S
C328 C325 1.453 1_455 S
C328 H352 0.982 . S
C328 H353 0.979 . S
C328 H354 0.977 1_556 S
C329 C325 1.684 . S
C329 H355 0.979 . S
C329 H356 0.980 1_556 S
C329 H357 0.983 . S
C330 H306 0.948 . S
C330 C331 1.391 . S
C330 C335 1.391 . S
C331 C330 1.391 . S
C331 C332 1.391 . S
C332 H309 0.947 . S
C332 C331 1.391 . S
C332 C333 1.392 . S
C333 H310 0.948 . S
C333 C332 1.392 . S
C333 C334 1.419 . S
C334 C333 1.419 . S
C334 C335 1.391 . S
C334 C338 1.396 1_655 S
C335 C330 1.391 . S
C335 C334 1.391 . S
C335 C336 1.399 1_554 S
C336 C335 1.399 1_556 S
C336 C337 1.396 1_656 S
C336 C339 1.453 1_655 S
C336 C340 1.684 . S
C337 C327 1.723 1_554 S
C337 C336 1.396 1_454 S
C337 C338 1.395 . S
C338 C308 1.723 . S
C338 C334 1.396 1_455 S
C338 C337 1.395 . S
C339 H311 0.982 . S
C339 H315 0.979 . S
C339 H316 0.977 . S
C339 C336 1.453 1_455 S
C340 H312 0.979 . S
C340 H313 0.980 . S
C340 H314 0.983 . S
C340 C336 1.684 . S
H341 C359 0.948 . S
H342 C300 0.948 . S
H343 C318 0.979 . S
H344 C318 0.980 . S
H345 C318 0.983 . S
H346 C317 0.982 . S
H347 C317 0.979 . S
H348 C317 0.977 . S
H349 C319 0.948 . S
H350 C321 0.947 . S
H351 C322 0.948 . S
H352 C328 0.982 . S
H353 C328 0.979 . S
H354 C328 0.977 1_554 S
H355 C329 0.979 . S
H356 C329 0.980 1_554 S
H357 C329 0.983 . S
H358 C302 0.947 . S
C359 C302 1.392 . S
C359 C303 1.419 . S
C359 H341 0.948 . S
C360 C361 1.391 . S
C360 C364 1.391 . S
C360 H402 0.948 . S
C361 C360 1.391 . S
C361 C362 1.391 . S
C362 C361 1.391 . S
C362 H418 0.947 . S
C362 C419 1.392 . S
C363 C364 1.391 . S
C363 C367 1.397 1_545 S
C363 C419 1.419 . S
C364 C360 1.391 . S
C364 C363 1.391 . S
C364 C365 1.399 . S
C365 C364 1.399 . S
C365 C368 1.396 1_545 S
C365 C377 1.453 1_545 S
C365 C378 1.684 . S
H366 C390 0.948 . S
C367 C363 1.397 1_565 S
C367 C368 1.394 . S
C367 C386 1.723 1_556 S
C368 C365 1.396 1_565 S
C368 C367 1.394 . S
C368 C398 1.723 1_556 S
H369 C392 0.947 . S
H370 C393 0.948 1_556 S
H371 C399 0.982 . S
H372 C400 0.979 . S
H373 C400 0.980 . S
H374 C400 0.983 . S
H375 C399 0.979 . S
H376 C399 0.977 . S
C377 C365 1.453 1_565 S
C377 H406 0.982 . S
C377 H407 0.979 . S
C377 H408 0.977 . S
C378 C365 1.684 . S
C378 H403 0.979 . S
C378 H404 0.980 . S
C378 H405 0.983 . S
C379 C380 1.391 . S
C379 C384 1.391 . S
C379 H409 0.948 . S
C380 C379 1.391 . S
C380 C381 1.391 . S
C381 C380 1.391 . S
C381 C382 1.392 . S
C381 H410 0.947 . S
C382 C381 1.392 . S
C382 C383 1.419 . S
C382 H411 0.948 . S
C383 C382 1.419 . S
C383 C384 1.391 . S
C383 C387 1.397 1_545 S
C384 C379 1.391 . S
C384 C383 1.391 . S
C384 C385 1.399 . S
C385 C384 1.399 . S
C385 C386 1.396 1_545 S
C385 C388 1.453 1_545 S
C385 C389 1.684 . S
C386 C367 1.723 1_554 S
C386 C385 1.396 1_565 S
C386 C387 1.394 . S
C387 C383 1.397 1_565 S
C387 C386 1.394 . S
C387 C397 1.723 . S
C388 C385 1.453 1_565 S
C388 H412 0.982 . S
C388 H413 0.979 . S
C388 H414 0.977 . S
C389 C385 1.684 . S
C389 H415 0.979 . S
C389 H416 0.980 1_554 S
C389 H417 0.983 . S
C390 H366 0.948 . S
C390 C391 1.391 . S
C390 C395 1.391 . S
C391 C390 1.391 . S
C391 C392 1.391 . S
C392 H369 0.947 . S
C392 C391 1.391 . S
C392 C393 1.392 . S
C393 H370 0.948 1_554 S
C393 C392 1.392 . S
C393 C394 1.419 . S
C394 C393 1.419 . S
C394 C395 1.391 . S
C394 C398 1.397 1_545 S
C395 C390 1.391 . S
C395 C394 1.391 . S
C395 C396 1.399 . S
C396 C395 1.399 . S
C396 C397 1.396 1_545 S
C396 C399 1.453 1_545 S
C396 C400 1.684 . S
C397 C387 1.723 . S
C397 C396 1.396 1_565 S
C397 C398 1.394 . S
C398 C368 1.723 1_554 S
C398 C394 1.397 1_565 S
C398 C397 1.394 . S
C399 H371 0.982 . S
C399 H375 0.979 . S
C399 H376 0.977 . S
C399 C396 1.453 1_565 S
C400 H372 0.979 . S
C400 H373 0.980 . S
C400 H374 0.983 . S
C400 C396 1.684 . S
H401 C419 0.948 . S
H402 C360 0.948 . S
H403 C378 0.979 . S
H404 C378 0.980 . S
H405 C378 0.983 . S
H406 C377 0.982 . S
H407 C377 0.979 . S
H408 C377 0.977 . S
H409 C379 0.948 . S
H410 C381 0.947 . S
H411 C382 0.948 . S
H412 C388 0.982 . S
H413 C388 0.979 . S
H414 C388 0.977 . S
H415 C389 0.979 . S
H416 C389 0.980 1_556 S
H417 C389 0.983 . S
H418 C362 0.947 . S
C419 C362 1.392 . S
C419 C363 1.419 . S
C419 H401 0.948 . S
C420 C421 1.391 . S
C420 C424 1.391 . S
C420 H462 0.948 . S
C421 C420 1.391 . S
C421 C422 1.391 . S
C422 C421 1.391 . S
C422 H478 0.947 . S
C422 C479 1.392 . S
C423 C424 1.391 . S
C423 C427 1.397 . S
C423 C479 1.419 . S
C424 C420 1.391 . S
C424 C423 1.391 . S
C424 C425 1.399 . S
C425 C424 1.399 . S
C425 C428 1.396 . S
C425 C437 1.453 . S
C425 C438 1.684 . S
H426 C450 0.948 . S
C427 C423 1.397 . S
C427 C428 1.394 . S
C427 C446 1.723 1_556 S
C428 C425 1.396 . S
C428 C427 1.394 . S
C428 C458 1.723 1_556 S
H429 C452 0.944 1_556 S
H430 C453 0.948 1_556 S
H431 C459 0.982 . S
H432 C460 0.979 . S
H433 C460 0.980 . S
H434 C460 0.983 . S
H435 C459 0.979 . S
H436 C459 0.977 . S
C437 C425 1.453 . S
C437 H466 0.982 . S
C437 H467 0.979 . S
C437 H468 0.977 . S
C438 C425 1.684 . S
C438 H463 0.979 . S
C438 H464 0.980 . S
C438 H465 0.983 . S
C439 C440 1.391 . S
C439 C444 1.391 . S
C439 H469 0.948 . S
C440 C439 1.391 . S
C440 C441 1.391 . S
C441 C440 1.391 . S
C441 C442 1.392 . S
C441 H470 0.947 . S
C442 C441 1.392 . S
C442 C443 1.419 . S
C442 H471 0.948 . S
C443 C442 1.419 . S
C443 C444 1.391 . S
C443 C447 1.397 . S
C444 C439 1.391 . S
C444 C443 1.391 . S
C444 C445 1.399 . S
C445 C444 1.399 . S
C445 C446 1.396 . S
C445 C448 1.453 . S
C445 C449 1.684 . S
C446 C427 1.723 1_554 S
C446 C445 1.396 . S
C446 C447 1.394 . S
C447 C443 1.397 . S
C447 C446 1.394 . S
C447 C457 1.723 . S
C448 C445 1.453 . S
C448 H472 0.982 . S
C448 H473 0.979 . S
C448 H474 0.977 1_554 S
C449 C445 1.684 . S
C449 H475 0.979 . S
C449 H476 0.980 1_554 S
C449 H477 0.983 . S
C450 H426 0.948 . S
C450 C451 1.391 . S
C450 C455 1.391 . S
C451 C450 1.391 . S
C451 C452 1.391 . S
C452 H429 0.944 1_554 S
C452 C451 1.391 . S
C452 C453 1.392 . S
C453 H430 0.948 1_554 S
C453 C452 1.392 . S
C453 C454 1.419 . S
C454 C453 1.419 . S
C454 C455 1.391 . S
C454 C458 1.397 . S
C455 C450 1.391 . S
C455 C454 1.391 . S
C455 C456 1.399 . S
C456 C455 1.399 . S
C456 C457 1.396 . S
C456 C459 1.453 . S
C456 C460 1.684 . S
C457 C447 1.723 . S
C457 C456 1.396 . S
C457 C458 1.394 . S
C458 C428 1.723 1_554 S
C458 C454 1.397 . S
C458 C457 1.394 . S
C459 H431 0.982 . S
C459 H435 0.979 . S
C459 H436 0.977 . S
C459 C456 1.453 . S
C460 H432 0.979 . S
C460 H433 0.980 . S
C460 H434 0.983 . S
C460 C456 1.684 . S
H461 C479 0.948 . S
H462 C420 0.948 . S
H463 C438 0.979 . S
H464 C438 0.980 . S
H465 C438 0.983 . S
H466 C437 0.982 . S
H467 C437 0.979 . S
H468 C437 0.977 . S
H469 C439 0.948 . S
H470 C441 0.947 . S
H471 C442 0.948 . S
H472 C448 0.982 . S
H473 C448 0.979 . S
H474 C448 0.977 1_556 S
H475 C449 0.979 . S
H476 C449 0.980 1_556 S
H477 C449 0.983 . S
H478 C422 0.947 . S
C479 C422 1.392 . S
C479 C423 1.419 . S
C479 H461 0.948 . S
Tb480 C490 2.825 . S
Tb480 O491 2.347 1_455 S
Tb480 O494 2.366 . S
Tb480 O499 2.418 . S
Tb480 O500 2.384 1_565 S
Tb480 O503 2.479 . S
Tb480 O504 2.471 . S
Eu481 O492 2.418 . S
Eu481 O493 2.384 1_545 S
Eu481 O496 2.479 . S
Eu481 O497 2.471 . S
Eu481 O498 2.347 1_655 S
Eu481 O501 2.366 . S
Eu481 C511 2.825 . S
C482 O498 1.259 1_565 S
C482 O499 1.265 . S
C483 O500 1.255 . S
C483 O501 1.265 1_455 S
C484 C486 1.380 . S
C484 C487 1.374 . S
C484 C490 1.507 . S
C485 C486 1.384 . S
C485 C489 1.387 . S
C485 H512 0.930 . S
C486 C484 1.380 . S
C486 C485 1.384 . S
C486 H513 0.931 . S
C487 C484 1.374 . S
C487 C488 1.390 . S
C487 H514 0.930 1_455 S
C488 C487 1.390 . S
C488 C489 1.391 . S
C488 H515 0.930 1_455 S
C489 C485 1.387 . S
C489 C488 1.391 . S
C490 Tb480 2.825 . S
C490 C484 1.507 . S
C490 O503 1.238 . S
C490 O504 1.247 . S
O491 Tb480 2.347 1_655 S
O491 C495 1.259 1_565 S
O492 Eu481 2.418 . S
O492 C495 1.265 . S
O493 Eu481 2.384 1_565 S
O493 C502 1.255 . S
O494 Tb480 2.366 . S
O494 C502 1.265 1_455 S
C495 O491 1.259 1_545 S
C495 O492 1.265 . S
O496 Eu481 2.479 . S
O496 C511 1.238 . S
O497 Eu481 2.471 . S
O497 C511 1.247 . S
O498 Eu481 2.347 1_455 S
O498 C482 1.259 1_545 S
O499 Tb480 2.418 . S
O499 C482 1.265 . S
O500 Tb480 2.384 1_545 S
O500 C483 1.255 . S
O501 Eu481 2.366 . S
O501 C483 1.265 1_655 S
C502 O493 1.255 . S
C502 O494 1.265 1_655 S
O503 Tb480 2.479 . S
O503 C490 1.238 . S
O504 Tb480 2.471 . S
O504 C490 1.247 . S
C505 C508 1.380 . S
C505 C509 1.374 . S
C505 C511 1.507 . S
C506 C507 1.387 . S
C506 C510 1.391 . S
C507 C506 1.387 . S
C507 C508 1.384 . S
C507 H516 0.930 . S
C508 C505 1.380 . S
C508 C507 1.384 . S
C508 H517 0.931 . S
C509 C505 1.374 . S
C509 C510 1.390 . S
C509 H518 0.930 1_655 S
C510 C506 1.391 . S
C510 C509 1.390 . S
C510 H519 0.930 1_655 S
C511 Eu481 2.825 . S
C511 O496 1.238 . S
C511 O497 1.247 . S
C511 C505 1.507 . S
H512 C485 0.930 . S
H513 C486 0.931 . S
H514 C487 0.930 1_655 S
H515 C488 0.930 1_655 S
H516 C507 0.930 . S
H517 C508 0.931 . S
H518 C509 0.930 1_455 S
H519 C510 0.930 1_455 S
Tb520 C530 2.825 . S
Tb520 O531 2.347 1_545 S
Tb520 O534 2.366 . S
Tb520 O539 2.418 . S
Tb520 O540 2.384 . S
Tb520 O543 2.479 . S
Tb520 O544 2.471 . S
Eu521 O532 2.418 . S
Eu521 O533 2.384 . S
Eu521 O536 2.479 . S
Eu521 O537 2.471 . S
Eu521 O538 2.347 1_565 S
Eu521 O541 2.366 . S
Eu521 C551 2.825 . S
C522 O538 1.259 . S
C522 O539 1.265 . S
C523 O540 1.255 . S
C523 O541 1.265 1_545 S
C524 C526 1.380 . S
C524 C527 1.374 . S
C524 C530 1.507 . S
C525 C526 1.384 . S
C525 C529 1.387 . S
C525 H552 0.930 . S
C526 C524 1.380 . S
C526 C525 1.384 . S
C526 H553 0.931 . S
C527 C524 1.374 . S
C527 C528 1.390 . S
C527 H554 0.930 1_545 S
C528 C527 1.390 . S
C528 C529 1.391 . S
C528 H555 0.930 1_545 S
C529 C525 1.387 . S
C529 C528 1.391 . S
C530 Tb520 2.825 . S
C530 C524 1.507 . S
C530 O543 1.238 . S
C530 O544 1.247 . S
O531 Tb520 2.347 1_565 S
O531 C535 1.259 . S
O532 Eu521 2.418 . S
O532 C535 1.265 . S
O533 Eu521 2.384 . S
O533 C542 1.255 . S
O534 Tb520 2.366 . S
O534 C542 1.265 1_545 S
C535 O531 1.259 . S
C535 O532 1.265 . S
O536 Eu521 2.479 . S
O536 C551 1.238 . S
O537 Eu521 2.471 . S
O537 C551 1.247 . S
O538 Eu521 2.347 1_545 S
O538 C522 1.259 . S
O539 Tb520 2.418 . S
O539 C522 1.265 . S
O540 Tb520 2.384 . S
O540 C523 1.255 . S
O541 Eu521 2.366 . S
O541 C523 1.265 1_565 S
C542 O533 1.255 . S
C542 O534 1.265 1_565 S
O543 Tb520 2.479 . S
O543 C530 1.238 . S
O544 Tb520 2.471 . S
O544 C530 1.247 . S
C545 C548 1.380 . S
C545 C549 1.374 . S
C545 C551 1.507 . S
C546 C547 1.387 . S
C546 C550 1.391 . S
C547 C546 1.387 . S
C547 C548 1.384 . S
C547 H556 0.930 . S
C548 C545 1.380 . S
C548 C547 1.384 . S
C548 H557 0.931 . S
C549 C545 1.374 . S
C549 C550 1.390 . S
C549 H558 0.930 1_565 S
C550 C546 1.391 . S
C550 C549 1.390 . S
C550 H559 0.930 1_565 S
C551 Eu521 2.825 . S
C551 O536 1.238 . S
C551 O537 1.247 . S
C551 C545 1.507 . S
H552 C525 0.930 . S
H553 C526 0.931 . S
H554 C527 0.930 1_565 S
H555 C528 0.930 1_565 S
H556 C547 0.930 . S
H557 C548 0.931 . S
H558 C549 0.930 1_545 S
H559 C550 0.930 1_545 S
Tb560 C570 2.825 . S
Tb560 O571 2.347 . S
Tb560 O574 2.366 . S
Tb560 O579 2.418 . S
Tb560 O580 2.384 . S
Tb560 O583 2.479 . S
Tb560 O584 2.471 . S
Eu561 O572 2.418 . S
Eu561 O573 2.384 . S
Eu561 O576 2.479 . S
Eu561 O577 2.471 . S
Eu561 O578 2.347 . S
Eu561 O581 2.366 . S
Eu561 C591 2.825 . S
C562 O578 1.259 . S
C562 O579 1.265 . S
C563 O580 1.255 . S
C563 O581 1.265 . S
C564 C566 1.380 . S
C564 C567 1.374 . S
C564 C570 1.507 . S
C565 C566 1.384 . S
C565 C569 1.387 . S
C565 H592 0.930 . S
C566 C564 1.380 . S
C566 C565 1.384 . S
C566 H593 0.931 . S
C567 C564 1.374 . S
C567 C568 1.390 . S
C567 H594 0.930 . S
C568 C567 1.390 . S
C568 C569 1.391 . S
C568 H595 0.930 . S
C569 C565 1.387 . S
C569 C568 1.391 . S
C570 Tb560 2.825 . S
C570 C564 1.507 . S
C570 O583 1.238 . S
C570 O584 1.247 . S
O571 Tb560 2.347 . S
O571 C575 1.259 . S
O572 Eu561 2.418 . S
O572 C575 1.265 . S
O573 Eu561 2.384 . S
O573 C582 1.255 . S
O574 Tb560 2.366 . S
O574 C582 1.265 . S
C575 O571 1.259 . S
C575 O572 1.265 . S
O576 Eu561 2.479 . S
O576 C591 1.238 . S
O577 Eu561 2.471 . S
O577 C591 1.247 . S
O578 Eu561 2.347 . S
O578 C562 1.259 . S
O579 Tb560 2.418 . S
O579 C562 1.265 . S
O580 Tb560 2.384 . S
O580 C563 1.255 . S
O581 Eu561 2.366 . S
O581 C563 1.265 . S
C582 O573 1.255 . S
C582 O574 1.265 . S
O583 Tb560 2.479 . S
O583 C570 1.238 . S
O584 Tb560 2.471 . S
O584 C570 1.247 . S
C585 C588 1.380 . S
C585 C589 1.374 . S
C585 C591 1.507 . S
C586 C587 1.387 . S
C586 C590 1.391 . S
C587 C586 1.387 . S
C587 C588 1.384 . S
C587 H596 0.930 . S
C588 C585 1.380 . S
C588 C587 1.384 . S
C588 H597 0.931 . S
C589 C585 1.374 . S
C589 C590 1.390 . S
C589 H598 0.930 . S
C590 C586 1.391 . S
C590 C589 1.390 . S
C590 H599 0.930 . S
C591 Eu561 2.825 . S
C591 O576 1.238 . S
C591 O577 1.247 . S
C591 C585 1.507 . S
H592 C565 0.930 . S
H593 C566 0.931 . S
H594 C567 0.930 . S
H595 C568 0.930 . S
H596 C587 0.930 . S
H597 C588 0.931 . S
H598 C589 0.930 . S
H599 C590 0.930 . S
Tb600 C610 2.825 . S
Tb600 O611 2.347 . S
Tb600 O614 2.366 . S
Tb600 O619 2.418 . S
Tb600 O620 2.384 1_655 S
Tb600 O623 2.479 . S
Tb600 O624 2.471 . S
Eu601 O612 2.418 . S
Eu601 O613 2.384 1_455 S
Eu601 O616 2.479 . S
Eu601 O617 2.471 . S
Eu601 O618 2.347 . S
Eu601 O621 2.366 . S
Eu601 C631 2.825 . S
C602 O618 1.259 1_655 S
C602 O619 1.265 . S
C603 O620 1.255 . S
C603 O621 1.265 . S
C604 C606 1.380 . S
C604 C607 1.374 . S
C604 C610 1.507 . S
C605 C606 1.384 . S
C605 C609 1.387 . S
C605 H632 0.930 . S
C606 C604 1.380 . S
C606 C605 1.384 . S
C606 H633 0.931 . S
C607 C604 1.374 . S
C607 C608 1.390 . S
C607 H634 0.930 . S
C608 C607 1.390 . S
C608 C609 1.391 . S
C608 H635 0.930 . S
C609 C605 1.387 . S
C609 C608 1.391 . S
C610 Tb600 2.825 . S
C610 C604 1.507 . S
C610 O623 1.238 . S
C610 O624 1.247 . S
O611 Tb600 2.347 . S
O611 C615 1.259 1_655 S
O612 Eu601 2.418 . S
O612 C615 1.265 . S
O613 Eu601 2.384 1_655 S
O613 C622 1.255 . S
O614 Tb600 2.366 . S
O614 C622 1.265 . S
C615 O611 1.259 1_455 S
C615 O612 1.265 . S
O616 Eu601 2.479 . S
O616 C631 1.238 . S
O617 Eu601 2.471 . S
O617 C631 1.247 . S
O618 Eu601 2.347 . S
O618 C602 1.259 1_455 S
O619 Tb600 2.418 . S
O619 C602 1.265 . S
O620 Tb600 2.384 1_455 S
O620 C603 1.255 . S
O621 Eu601 2.366 . S
O621 C603 1.265 . S
C622 O613 1.255 . S
C622 O614 1.265 . S
O623 Tb600 2.479 . S
O623 C610 1.238 . S
O624 Tb600 2.471 . S
O624 C610 1.247 . S
C625 C628 1.380 . S
C625 C629 1.374 . S
C625 C631 1.507 . S
C626 C627 1.387 . S
C626 C630 1.391 . S
C627 C626 1.387 . S
C627 C628 1.384 . S
C627 H636 0.930 . S
C628 C625 1.380 . S
C628 C627 1.384 . S
C628 H637 0.931 . S
C629 C625 1.374 . S
C629 C630 1.390 . S
C629 H638 0.930 . S
C630 C626 1.391 . S
C630 C629 1.390 . S
C630 H639 0.930 . S
C631 Eu601 2.825 . S
C631 O616 1.238 . S
C631 O617 1.247 . S
C631 C625 1.507 . S
H632 C605 0.930 . S
H633 C606 0.931 . S
H634 C607 0.930 . S
H635 C608 0.930 . S
H636 C627 0.930 . S
H637 C628 0.931 . S
H638 C629 0.930 . S
H639 C630 0.930 . S
H640 C652 0.930 . S
H641 C654 0.930 . S
H642 C655 0.930 . S
H643 C659 0.959 . S
H644 C659 0.959 . S
H645 C659 0.961 . S
H646 C660 0.960 . S
H647 C660 0.961 . S
H648 C660 0.959 . S
H649 C663 0.929 . S
H650 C664 0.931 . S
H651 C666 0.930 . S
C652 H640 0.930 . S
C652 C653 1.399 1_545 S
C652 C657 1.399 . S
C653 C652 1.399 1_565 S
C653 C654 1.376 . S
C654 H641 0.930 . S
C654 C653 1.376 . S
C654 C655 1.388 . S
C655 H642 0.930 . S
C655 C654 1.388 . S
C655 C656 1.390 . S
C656 C655 1.390 . S
C656 C657 1.394 1_565 S
C656 C662 1.465 . S
C657 C652 1.399 . S
C657 C656 1.394 1_545 S
C657 C658 1.516 . S
C658 C657 1.516 . S
C658 C659 1.502 . S
C658 C660 1.561 . S
C658 C661 1.526 . S
C659 H643 0.959 . S
C659 H644 0.959 . S
C659 H645 0.961 . S
C659 C658 1.502 . S
C660 H646 0.960 . S
C660 H647 0.961 . S
C660 H648 0.959 . S
C660 C658 1.561 . S
C661 C658 1.526 . S
C661 C662 1.396 1_545 S
C661 C666 1.390 . S
C662 C656 1.465 . S
C662 C661 1.396 1_565 S
C662 C663 1.399 . S
C663 H649 0.929 . S
C663 C662 1.399 . S
C663 C664 1.385 . S
C664 H650 0.931 . S
C664 C663 1.385 . S
C664 C665 1.389 . S
C665 C664 1.389 . S
C665 C666 1.387 1_565 S
C666 H651 0.930 . S
C666 C661 1.390 . S
C666 C665 1.387 1_545 S
H667 C679 0.930 . S
H668 C681 0.930 . S
H669 C682 0.930 . S
H670 C686 0.959 . S
H671 C686 0.959 . S
H672 C686 0.961 . S
H673 C687 0.960 . S
H674 C687 0.961 . S
H675 C687 0.959 . S
H676 C690 0.929 . S
H677 C691 0.931 . S
H678 C693 0.930 . S
C679 H667 0.930 . S
C679 C680 1.399 . S
C679 C684 1.399 . S
C680 C679 1.399 . S
C680 C681 1.376 . S
C681 H668 0.930 . S
C681 C680 1.376 . S
C681 C682 1.388 . S
C682 H669 0.930 . S
C682 C681 1.388 . S
C682 C683 1.390 . S
C683 C682 1.390 . S
C683 C684 1.394 . S
C683 C689 1.465 . S
C684 C679 1.399 . S
C684 C683 1.394 . S
C684 C685 1.516 . S
C685 C684 1.516 . S
C685 C686 1.502 . S
C685 C687 1.561 . S
C685 C688 1.526 . S
C686 H670 0.959 . S
C686 H671 0.959 . S
C686 H672 0.961 . S
C686 C685 1.502 . S
C687 H673 0.960 . S
C687 H674 0.961 . S
C687 H675 0.959 . S
C687 C685 1.561 . S
C688 C685 1.526 . S
C688 C689 1.396 . S
C688 C693 1.390 . S
C689 C683 1.465 . S
C689 C688 1.396 . S
C689 C690 1.399 . S
C690 H676 0.929 . S
C690 C689 1.399 . S
C690 C691 1.385 . S
C691 H677 0.931 . S
C691 C690 1.385 . S
C691 C692 1.389 . S
C692 C691 1.389 . S
C692 C693 1.387 . S
C693 H678 0.930 . S
C693 C688 1.390 . S
C693 C692 1.387 . S
H694 C706 0.930 . S
H695 C708 0.930 . S
H696 C709 0.930 . S
H697 C713 0.959 . S
H698 C713 0.959 . S
H699 C713 0.961 . S
H700 C714 0.960 . S
H701 C714 0.961 . S
H702 C714 0.959 . S
H703 C717 0.929 . S
H704 C718 0.931 . S
H705 C720 0.930 . S
C706 H694 0.930 . S
C706 C707 1.399 . S
C706 C711 1.399 . S
C707 C706 1.399 . S
C707 C708 1.376 . S
C708 H695 0.930 . S
C708 C707 1.376 . S
C708 C709 1.388 . S
C709 H696 0.930 . S
C709 C708 1.388 . S
C709 C710 1.390 . S
C710 C709 1.390 . S
C710 C711 1.394 . S
C710 C716 1.465 . S
C711 C706 1.399 . S
C711 C710 1.394 . S
C711 C712 1.516 . S
C712 C711 1.516 . S
C712 C713 1.502 . S
C712 C714 1.561 . S
C712 C715 1.526 . S
C713 H697 0.959 . S
C713 H698 0.959 . S
C713 H699 0.961 . S
C713 C712 1.502 . S
C714 H700 0.960 . S
C714 H701 0.961 . S
C714 H702 0.959 . S
C714 C712 1.561 . S
C715 C712 1.526 . S
C715 C716 1.396 . S
C715 C720 1.390 . S
C716 C710 1.465 . S
C716 C715 1.396 . S
C716 C717 1.399 . S
C717 H703 0.929 . S
C717 C716 1.399 . S
C717 C718 1.385 . S
C718 H704 0.931 . S
C718 C717 1.385 . S
C718 C719 1.389 . S
C719 C718 1.389 . S
C719 C720 1.387 . S
C720 H705 0.930 . S
C720 C715 1.390 . S
C720 C719 1.387 . S
H721 C733 0.930 . S
H722 C735 0.930 . S
H723 C736 0.930 . S
H724 C740 0.959 . S
H725 C740 0.959 . S
H726 C740 0.961 . S
H727 C741 0.960 . S
H728 C741 0.961 . S
H729 C741 0.959 . S
H730 C744 0.929 . S
H731 C745 0.931 . S
H732 C747 0.930 . S
C733 H721 0.930 . S
C733 C734 1.399 1_655 S
C733 C738 1.399 . S
C734 C733 1.399 1_455 S
C734 C735 1.376 . S
C735 H722 0.930 . S
C735 C734 1.376 . S
C735 C736 1.388 . S
C736 H723 0.930 . S
C736 C735 1.388 . S
C736 C737 1.390 . S
C737 C736 1.390 . S
C737 C738 1.394 1_455 S
C737 C743 1.465 . S
C738 C733 1.399 . S
C738 C737 1.394 1_655 S
C738 C739 1.516 . S
C739 C738 1.516 . S
C739 C740 1.502 . S
C739 C741 1.561 1_655 S
C739 C742 1.526 . S
C740 H724 0.959 . S
C740 H725 0.959 . S
C740 H726 0.961 . S
C740 C739 1.502 . S
C741 H727 0.960 . S
C741 H728 0.961 . S
C741 H729 0.959 . S
C741 C739 1.561 1_455 S
C742 C739 1.526 . S
C742 C743 1.396 1_655 S
C742 C747 1.390 . S
C743 C737 1.465 . S
C743 C742 1.396 1_455 S
C743 C744 1.399 . S
C744 H730 0.929 . S
C744 C743 1.399 . S
C744 C745 1.385 . S
C745 H731 0.931 . S
C745 C744 1.385 . S
C745 C746 1.389 . S
C746 C745 1.389 . S
C746 C747 1.387 1_455 S
C747 H732 0.930 . S
C747 C742 1.390 . S
C747 C746 1.387 1_655 S
H748 C760 0.930 . S
H749 C762 0.930 . S
H750 C763 0.930 . S
H751 C767 0.959 . S
H752 C767 0.959 . S
H753 C767 0.961 . S
H754 C768 0.960 . S
H755 C768 0.961 . S
H756 C768 0.959 . S
H757 C771 0.929 . S
H758 C772 0.931 . S
H759 C774 0.930 . S
C760 H748 0.930 . S
C760 C761 1.399 1_565 S
C760 C765 1.399 . S
C761 C760 1.399 1_545 S
C761 C762 1.376 . S
C762 H749 0.930 . S
C762 C761 1.376 . S
C762 C763 1.388 . S
C763 H750 0.930 . S
C763 C762 1.388 . S
C763 C764 1.390 . S
C764 C763 1.390 . S
C764 C765 1.394 1_545 S
C764 C770 1.465 1_554 S
C765 C760 1.399 . S
C765 C764 1.394 1_565 S
C765 C766 1.516 . S
C766 C765 1.516 . S
C766 C767 1.502 . S
C766 C768 1.561 . S
C766 C769 1.526 1_554 S
C767 H751 0.959 . S
C767 H752 0.959 . S
C767 H753 0.961 . S
C767 C766 1.502 . S
C768 H754 0.960 . S
C768 H755 0.961 . S
C768 H756 0.959 . S
C768 C766 1.561 . S
C769 C766 1.526 1_556 S
C769 C770 1.396 1_565 S
C769 C774 1.390 . S
C770 C764 1.465 1_556 S
C770 C769 1.396 1_545 S
C770 C771 1.399 . S
C771 H757 0.929 . S
C771 C770 1.399 . S
C771 C772 1.385 . S
C772 H758 0.931 . S
C772 C771 1.385 . S
C772 C773 1.389 . S
C773 C772 1.389 . S
C773 C774 1.387 1_545 S
C774 H759 0.930 . S
C774 C769 1.390 . S
C774 C773 1.387 1_565 S
H775 C787 0.930 . S
H776 C789 0.930 . S
H777 C790 0.930 . S
H778 C794 0.959 . S
H779 C794 0.959 . S
H780 C794 0.961 . S
H781 C795 0.960 . S
H782 C795 0.961 . S
H783 C795 0.959 . S
H784 C798 0.929 . S
H785 C799 0.931 . S
H786 C801 0.930 . S
C787 H775 0.930 . S
C787 C788 1.399 . S
C787 C792 1.399 . S
C788 C787 1.399 . S
C788 C789 1.376 . S
C789 H776 0.930 . S
C789 C788 1.376 . S
C789 C790 1.388 . S
C790 H777 0.930 . S
C790 C789 1.388 . S
C790 C791 1.390 . S
C791 C790 1.390 . S
C791 C792 1.394 . S
C791 C797 1.465 1_554 S
C792 C787 1.399 . S
C792 C791 1.394 . S
C792 C793 1.516 . S
C793 C792 1.516 . S
C793 C794 1.502 . S
C793 C795 1.561 . S
C793 C796 1.526 1_554 S
C794 H778 0.959 . S
C794 H779 0.959 . S
C794 H780 0.961 . S
C794 C793 1.502 . S
C795 H781 0.960 . S
C795 H782 0.961 . S
C795 H783 0.959 . S
C795 C793 1.561 . S
C796 C793 1.526 1_556 S
C796 C797 1.396 . S
C796 C801 1.390 . S
C797 C791 1.465 1_556 S
C797 C796 1.396 . S
C797 C798 1.399 . S
C798 H784 0.929 . S
C798 C797 1.399 . S
C798 C799 1.385 . S
C799 H785 0.931 . S
C799 C798 1.385 . S
C799 C800 1.389 . S
C800 C799 1.389 . S
C800 C801 1.387 . S
C801 H786 0.930 . S
C801 C796 1.390 . S
C801 C800 1.387 . S
H802 C814 0.930 . S
H803 C816 0.930 . S
H804 C817 0.930 . S
H805 C821 0.959 . S
H806 C821 0.959 . S
H807 C821 0.961 1_554 S
H808 C822 0.960 . S
H809 C822 0.961 . S
H810 C822 0.959 . S
H811 C825 0.929 1_554 S
H812 C826 0.931 . S
H813 C828 0.930 . S
C814 H802 0.930 . S
C814 C815 1.399 . S
C814 C819 1.399 . S
C815 C814 1.399 . S
C815 C816 1.376 . S
C816 H803 0.930 . S
C816 C815 1.376 . S
C816 C817 1.388 . S
C817 H804 0.930 . S
C817 C816 1.388 . S
C817 C818 1.390 . S
C818 C817 1.390 . S
C818 C819 1.394 . S
C818 C824 1.465 . S
C819 C814 1.399 . S
C819 C818 1.394 . S
C819 C820 1.516 . S
C820 C819 1.516 . S
C820 C821 1.502 1_554 S
C820 C822 1.561 . S
C820 C823 1.526 1_554 S
C821 H805 0.959 . S
C821 H806 0.959 . S
C821 H807 0.961 1_556 S
C821 C820 1.502 1_556 S
C822 H808 0.960 . S
C822 H809 0.961 . S
C822 H810 0.959 . S
C822 C820 1.561 . S
C823 C820 1.526 1_556 S
C823 C824 1.396 1_556 S
C823 C828 1.390 . S
C824 C818 1.465 . S
C824 C823 1.396 1_554 S
C824 C825 1.399 1_554 S
C825 H811 0.929 1_556 S
C825 C824 1.399 1_556 S
C825 C826 1.385 . S
C826 H812 0.931 . S
C826 C825 1.385 . S
C826 C827 1.389 . S
C827 C826 1.389 . S
C827 C828 1.387 . S
C828 H813 0.930 . S
C828 C823 1.390 . S
C828 C827 1.387 . S
H829 C841 0.930 . S
H830 C843 0.930 . S
H831 C844 0.930 . S
H832 C848 0.959 . S
H833 C848 0.959 . S
H834 C848 0.961 . S
H835 C849 0.960 . S
H836 C849 0.961 . S
H837 C849 0.959 . S
H838 C852 0.929 . S
H839 C853 0.931 . S
H840 C855 0.930 . S
C841 H829 0.930 . S
C841 C842 1.399 1_455 S
C841 C846 1.399 . S
C842 C841 1.399 1_655 S
C842 C843 1.376 . S
C843 H830 0.930 . S
C843 C842 1.376 . S
C843 C844 1.388 . S
C844 H831 0.930 . S
C844 C843 1.388 . S
C844 C845 1.390 . S
C845 C844 1.390 . S
C845 C846 1.394 1_655 S
C845 C851 1.465 1_554 S
C846 C841 1.399 . S
C846 C845 1.394 1_455 S
C846 C847 1.516 . S
C847 C846 1.516 . S
C847 C848 1.502 . S
C847 C849 1.561 1_455 S
C847 C850 1.526 1_554 S
C848 H832 0.959 . S
C848 H833 0.959 . S
C848 H834 0.961 . S
C848 C847 1.502 . S
C849 H835 0.960 . S
C849 H836 0.961 . S
C849 H837 0.959 . S
C849 C847 1.561 1_655 S
C850 C847 1.526 1_556 S
C850 C851 1.396 1_455 S
C850 C855 1.390 . S
C851 C845 1.465 1_556 S
C851 C850 1.396 1_655 S
C851 C852 1.399 . S
C852 H838 0.929 . S
C852 C851 1.399 . S
C852 C853 1.385 . S
C853 H839 0.931 . S
C853 C852 1.385 . S
C853 C854 1.389 . S
C854 C853 1.389 . S
C854 C855 1.387 1_655 S
C855 H840 0.930 . S
C855 C850 1.390 . S
C855 C854 1.387 1_455 S
H856 C868 0.930 . S
H857 C870 0.930 . S
H858 C871 0.930 . S
H859 C875 0.959 . S
H860 C875 0.959 . S
H861 C875 0.961 . S
H862 C876 0.960 . S
H863 C876 0.961 . S
H864 C876 0.959 . S
H865 C879 0.929 1_455 S
H866 C880 0.931 . S
H867 C882 0.930 . S
C868 H856 0.930 . S
C868 C869 1.399 1_655 S
C868 C873 1.399 . S
C869 C868 1.399 1_455 S
C869 C870 1.376 . S
C870 H857 0.930 . S
C870 C869 1.376 . S
C870 C871 1.388 . S
C871 H858 0.930 . S
C871 C870 1.388 . S
C871 C872 1.390 1_455 S
C872 C871 1.390 1_655 S
C872 C873 1.394 . S
C872 C878 1.465 . S
C873 C868 1.399 . S
C873 C872 1.394 . S
C873 C874 1.516 . S
C874 C873 1.516 . S
C874 C875 1.502 . S
C874 C876 1.561 . S
C874 C877 1.526 . S
C875 H859 0.959 . S
C875 H860 0.959 . S
C875 H861 0.961 . S
C875 C874 1.502 . S
C876 H862 0.960 . S
C876 H863 0.961 . S
C876 H864 0.959 . S
C876 C874 1.561 . S
C877 C874 1.526 . S
C877 C878 1.396 . S
C877 C882 1.390 . S
C878 C872 1.465 . S
C878 C877 1.396 . S
C878 C879 1.399 . S
C879 H865 0.929 1_655 S
C879 C878 1.399 . S
C879 C880 1.385 . S
C880 H866 0.931 . S
C880 C879 1.385 . S
C880 C881 1.389 . S
C881 C880 1.389 . S
C881 C882 1.387 . S
C882 H867 0.930 . S
C882 C877 1.390 . S
C882 C881 1.387 . S
H883 C895 0.930 . S
H884 C897 0.930 . S
H885 C898 0.930 . S
H886 C902 0.959 . S
H887 C902 0.959 . S
H888 C902 0.961 . S
H889 C903 0.960 . S
H890 C903 0.961 . S
H891 C903 0.959 . S
H892 C906 0.929 1_545 S
H893 C907 0.931 . S
H894 C909 0.930 . S
C895 H883 0.930 . S
C895 C896 1.399 1_565 S
C895 C900 1.399 . S
C896 C895 1.399 1_545 S
C896 C897 1.376 . S
C897 H884 0.930 . S
C897 C896 1.376 . S
C897 C898 1.388 . S
C898 H885 0.930 . S
C898 C897 1.388 . S
C898 C899 1.390 1_545 S
C899 C898 1.390 1_565 S
C899 C900 1.394 . S
C899 C905 1.465 . S
C900 C895 1.399 . S
C900 C899 1.394 . S
C900 C901 1.516 . S
C901 C900 1.516 . S
C901 C902 1.502 . S
C901 C903 1.561 . S
C901 C904 1.526 . S
C902 H886 0.959 . S
C902 H887 0.959 . S
C902 H888 0.961 . S
C902 C901 1.502 . S
C903 H889 0.960 . S
C903 H890 0.961 . S
C903 H891 0.959 . S
C903 C901 1.561 . S
C904 C901 1.526 . S
C904 C905 1.396 . S
C904 C909 1.390 . S
C905 C899 1.465 . S
C905 C904 1.396 . S
C905 C906 1.399 . S
C906 H892 0.929 1_565 S
C906 C905 1.399 . S
C906 C907 1.385 . S
C907 H893 0.931 . S
C907 C906 1.385 . S
C907 C908 1.389 . S
C908 C907 1.389 . S
C908 C909 1.387 . S
C909 H894 0.930 . S
C909 C904 1.390 . S
C909 C908 1.387 . S
H910 C922 0.930 . S
H911 C924 0.930 . S
H912 C925 0.930 . S
H913 C929 0.959 . S
H914 C929 0.959 . S
H915 C929 0.961 . S
H916 C930 0.960 . S
H917 C930 0.961 . S
H918 C930 0.959 . S
H919 C933 0.929 . S
H920 C934 0.931 . S
H921 C936 0.930 . S
C922 H910 0.930 . S
C922 C923 1.399 . S
C922 C927 1.399 . S
C923 C922 1.399 . S
C923 C924 1.376 . S
C924 H911 0.930 . S
C924 C923 1.376 . S
C924 C925 1.388 . S
C925 H912 0.930 . S
C925 C924 1.388 . S
C925 C926 1.390 . S
C926 C925 1.390 . S
C926 C927 1.394 . S
C926 C932 1.465 . S
C927 C922 1.399 . S
C927 C926 1.394 . S
C927 C928 1.516 . S
C928 C927 1.516 . S
C928 C929 1.502 . S
C928 C930 1.561 . S
C928 C931 1.526 . S
C929 H913 0.959 . S
C929 H914 0.959 . S
C929 H915 0.961 . S
C929 C928 1.502 . S
C930 H916 0.960 . S
C930 H917 0.961 . S
C930 H918 0.959 . S
C930 C928 1.561 . S
C931 C928 1.526 . S
C931 C932 1.396 . S
C931 C936 1.390 . S
C932 C926 1.465 . S
C932 C931 1.396 . S
C932 C933 1.399 . S
C933 H919 0.929 . S
C933 C932 1.399 . S
C933 C934 1.385 . S
C934 H920 0.931 . S
C934 C933 1.385 . S
C934 C935 1.389 . S
C935 C934 1.389 . S
C935 C936 1.387 . S
C936 H921 0.930 . S
C936 C931 1.390 . S
C936 C935 1.387 . S
H937 C949 0.930 . S
H938 C951 0.930 . S
H939 C952 0.930 . S
H940 C956 0.959 . S
H941 C956 0.959 . S
H942 C956 0.961 . S
H943 C957 0.960 . S
H944 C957 0.961 . S
H945 C957 0.959 . S
H946 C960 0.929 . S
H947 C961 0.931 . S
H948 C963 0.930 . S
C949 H937 0.930 . S
C949 C950 1.399 . S
C949 C954 1.399 . S
C950 C949 1.399 . S
C950 C951 1.376 . S
C951 H938 0.930 . S
C951 C950 1.376 . S
C951 C952 1.388 . S
C952 H939 0.930 . S
C952 C951 1.388 . S
C952 C953 1.390 . S
C953 C952 1.390 . S
C953 C954 1.394 . S
C953 C959 1.465 . S
C954 C949 1.399 . S
C954 C953 1.394 . S
C954 C955 1.516 . S
C955 C954 1.516 . S
C955 C956 1.502 . S
C955 C957 1.561 . S
C955 C958 1.526 . S
C956 H940 0.959 . S
C956 H941 0.959 . S
C956 H942 0.961 . S
C956 C955 1.502 . S
C957 H943 0.960 . S
C957 H944 0.961 . S
C957 H945 0.959 . S
C957 C955 1.561 . S
C958 C955 1.526 . S
C958 C959 1.396 . S
C958 C963 1.390 . S
C959 C953 1.465 . S
C959 C958 1.396 . S
C959 C960 1.399 . S
C960 H946 0.929 . S
C960 C959 1.399 . S
C960 C961 1.385 . S
C961 H947 0.931 . S
C961 C960 1.385 . S
C961 C962 1.389 . S
C962 C961 1.389 . S
C962 C963 1.387 . S
C963 H948 0.930 . S
C963 C958 1.390 . S
C963 C962 1.387 . S
H964 C976 0.930 . S
H965 C978 0.930 . S
H966 C979 0.930 1_556 S
H967 C983 0.959 . S
H968 C983 0.959 . S
H969 C983 0.961 . S
H970 C984 0.960 . S
H971 C984 0.961 . S
H972 C984 0.959 . S
H973 C987 0.929 . S
H974 C988 0.931 . S
H975 C990 0.930 . S
C976 H964 0.930 . S
C976 C977 1.402 . S
C976 C981 1.399 1_655 S
C977 C976 1.402 . S
C977 C978 1.360 1_655 S
C978 H965 0.930 . S
C978 C977 1.360 1_455 S
C978 C979 1.388 . S
C979 H966 0.930 1_554 S
C979 C978 1.388 . S
C979 C980 1.390 . S
C980 C979 1.390 . S
C980 C981 1.394 . S
C980 C986 1.465 1_554 S
C981 C976 1.399 1_455 S
C981 C980 1.394 . S
C981 C982 1.516 . S
C982 C981 1.516 . S
C982 C983 1.502 1_455 S
C982 C984 1.561 . S
C982 C985 1.526 . S
C983 H967 0.959 . S
C983 H968 0.959 . S
C983 H969 0.961 . S
C983 C982 1.502 1_655 S
C984 H970 0.960 . S
C984 H971 0.961 . S
C984 H972 0.959 . S
C984 C982 1.561 . S
C985 C982 1.526 . S
C985 C986 1.396 1_554 S
C985 C990 1.390 . S
C986 C980 1.465 1_556 S
C986 C985 1.396 1_556 S
C986 C987 1.399 . S
C987 H973 0.929 . S
C987 C986 1.399 . S
C987 C988 1.385 . S
C988 H974 0.931 . S
C988 C987 1.385 . S
C988 C989 1.389 . S
C989 C988 1.389 . S
C989 C990 1.387 1_556 S
C990 H975 0.930 . S
C990 C985 1.390 . S
C990 C989 1.387 1_554 S
H991 C1003 0.930 . S
H992 C1005 0.930 . S
H993 C1006 0.930 . S
H994 C1010 0.959 . S
H995 C1010 0.959 . S
H996 C1010 0.961 . S
H997 C1011 0.960 . S
H998 C1011 0.961 . S
H999 C1011 0.959 . S
H1000 C1014 0.929 . S
H1001 C1015 0.931 . S
H1002 C1017 0.930 . S
C1003 H991 0.930 . S
C1003 C1004 1.399 . S
C1003 C1008 1.399 1_565 S
C1004 C1003 1.399 . S
C1004 C1005 1.376 1_565 S
C1005 H992 0.930 . S
C1005 C1004 1.376 1_545 S
C1005 C1006 1.388 . S
C1006 H993 0.930 . S
C1006 C1005 1.388 . S
C1006 C1007 1.390 . S
C1007 C1006 1.390 . S
C1007 C1008 1.394 . S
C1007 C1013 1.465 . S
C1008 C1003 1.399 1_545 S
C1008 C1007 1.394 . S
C1008 C1009 1.516 1_554 S
C1009 C1008 1.516 1_556 S
C1009 C1010 1.502 . S
C1009 C1011 1.561 1_545 S
C1009 C1012 1.526 . S
C1010 H994 0.959 . S
C1010 H995 0.959 . S
C1010 H996 0.961 . S
C1010 C1009 1.502 . S
C1011 H997 0.960 . S
C1011 H998 0.961 . S
C1011 H999 0.959 . S
C1011 C1009 1.561 1_565 S
C1012 C1009 1.526 . S
C1012 C1013 1.396 1_556 S
C1012 C1017 1.390 . S
C1013 C1007 1.465 . S
C1013 C1012 1.396 1_554 S
C1013 C1014 1.399 . S
C1014 H1000 0.929 . S
C1014 C1013 1.399 . S
C1014 C1015 1.385 . S
C1015 H1001 0.931 . S
C1015 C1014 1.385 . S
C1015 C1016 1.389 1_554 S
C1016 C1015 1.389 1_556 S
C1016 C1017 1.387 . S
C1017 H1002 0.930 . S
C1017 C1012 1.390 . S
C1017 C1016 1.387 . S
H1018 C1030 0.930 . S
H1019 C1032 0.930 . S
H1020 C1033 0.930 1_556 S
H1021 C1037 0.959 . S
H1022 C1037 0.959 . S
H1023 C1037 0.961 . S
H1024 C1038 0.960 . S
H1025 C1038 0.961 . S
H1026 C1038 0.959 . S
H1027 C1041 0.929 . S
H1028 C1042 0.931 . S
H1029 C1044 0.930 . S
C1030 H1018 0.930 . S
C1030 C1031 1.399 . S
C1030 C1035 1.399 . S
C1031 C1030 1.399 . S
C1031 C1032 1.376 . S
C1032 H1019 0.930 . S
C1032 C1031 1.376 . S
C1032 C1033 1.388 . S
C1033 H1020 0.930 1_554 S
C1033 C1032 1.388 . S
C1033 C1034 1.390 . S
C1034 C1033 1.390 . S
C1034 C1035 1.394 . S
C1034 C1040 1.465 1_554 S
C1035 C1030 1.399 . S
C1035 C1034 1.394 . S
C1035 C1036 1.516 . S
C1036 C1035 1.516 . S
C1036 C1037 1.502 . S
C1036 C1038 1.561 . S
C1036 C1039 1.526 . S
C1037 H1021 0.959 . S
C1037 H1022 0.959 . S
C1037 H1023 0.961 . S
C1037 C1036 1.502 . S
C1038 H1024 0.960 . S
C1038 H1025 0.961 . S
C1038 H1026 0.959 . S
C1038 C1036 1.561 . S
C1039 C1036 1.526 . S
C1039 C1040 1.396 1_554 S
C1039 C1044 1.390 . S
C1040 C1034 1.465 1_556 S
C1040 C1039 1.396 1_556 S
C1040 C1041 1.399 . S
C1041 H1027 0.929 . S
C1041 C1040 1.399 . S
C1041 C1042 1.385 . S
C1042 H1028 0.931 . S
C1042 C1041 1.385 . S
C1042 C1043 1.389 . S
C1043 C1042 1.389 . S
C1043 C1044 1.387 1_556 S
C1044 H1029 0.930 . S
C1044 C1039 1.390 . S
C1044 C1043 1.387 1_554 S
H1045 C1057 0.930 . S
H1046 C1059 0.930 . S
H1047 C1060 0.930 . S
H1048 C1064 0.959 . S
H1049 C1064 0.959 . S
H1050 C1064 0.961 . S
H1051 C1065 0.960 . S
H1052 C1065 0.961 . S
H1053 C1065 0.959 . S
H1054 C1068 0.929 . S
H1055 C1069 0.931 . S
H1056 C1071 0.930 . S
C1057 H1045 0.930 . S
C1057 C1058 1.399 . S
C1057 C1062 1.399 . S
C1058 C1057 1.399 . S
C1058 C1059 1.376 . S
C1059 H1046 0.930 . S
C1059 C1058 1.376 . S
C1059 C1060 1.388 . S
C1060 H1047 0.930 . S
C1060 C1059 1.388 . S
C1060 C1061 1.390 . S
C1061 C1060 1.390 . S
C1061 C1062 1.394 . S
C1061 C1067 1.465 . S
C1062 C1057 1.399 . S
C1062 C1061 1.394 . S
C1062 C1063 1.516 . S
C1063 C1062 1.516 . S
C1063 C1064 1.502 1_554 S
C1063 C1065 1.561 . S
C1063 C1066 1.526 . S
C1064 H1048 0.959 . S
C1064 H1049 0.959 . S
C1064 H1050 0.961 . S
C1064 C1063 1.502 1_556 S
C1065 H1051 0.960 . S
C1065 H1052 0.961 . S
C1065 H1053 0.959 . S
C1065 C1063 1.561 . S
C1066 C1063 1.526 . S
C1066 C1067 1.396 . S
C1066 C1071 1.390 1_554 S
C1067 C1061 1.465 . S
C1067 C1066 1.396 . S
C1067 C1068 1.399 . S
C1068 H1054 0.929 . S
C1068 C1067 1.399 . S
C1068 C1069 1.385 1_554 S
C1069 H1055 0.931 . S
C1069 C1068 1.385 1_556 S
C1069 C1070 1.389 . S
C1070 C1069 1.389 . S
C1070 C1071 1.387 . S
C1071 H1056 0.930 . S
C1071 C1066 1.390 1_556 S
C1071 C1070 1.387 . S
H1072 C1084 0.930 . S
H1073 C1086 0.930 . S
H1074 C1087 0.930 . S
H1075 C1091 0.959 . S
H1076 C1091 0.959 . S
H1077 C1091 0.961 . S
H1078 C1092 0.960 . S
H1079 C1092 0.961 . S
H1080 C1092 0.959 . S
H1081 C1095 0.929 . S
H1082 C1096 0.931 . S
H1083 C1098 0.930 . S
C1084 H1072 0.930 . S
C1084 C1085 1.407 . S
C1084 C1089 1.399 . S
C1085 C1084 1.407 . S
C1085 C1086 1.369 1_455 S
C1086 H1073 0.930 . S
C1086 C1085 1.369 1_655 S
C1086 C1087 1.388 . S
C1087 H1074 0.930 . S
C1087 C1086 1.388 . S
C1087 C1088 1.389 1_655 S
C1088 C1087 1.389 1_455 S
C1088 C1089 1.395 . S
C1088 C1094 1.466 . S
C1089 C1084 1.399 . S
C1089 C1088 1.395 . S
C1089 C1090 1.516 . S
C1090 C1089 1.516 . S
C1090 C1091 1.502 . S
C1090 C1092 1.561 1_455 S
C1090 C1093 1.526 . S
C1091 H1075 0.959 . S
C1091 H1076 0.959 . S
C1091 H1077 0.961 . S
C1091 C1090 1.502 . S
C1092 H1078 0.960 . S
C1092 H1079 0.961 . S
C1092 H1080 0.959 . S
C1092 C1090 1.561 1_655 S
C1093 C1090 1.526 . S
C1093 C1094 1.396 . S
C1093 C1098 1.390 . S
C1094 C1088 1.466 . S
C1094 C1093 1.396 . S
C1094 C1095 1.399 1_455 S
C1095 H1081 0.929 . S
C1095 C1094 1.399 1_655 S
C1095 C1096 1.385 1_655 S
C1096 H1082 0.931 . S
C1096 C1095 1.385 1_455 S
C1096 C1097 1.389 . S
C1097 C1096 1.389 . S
C1097 C1098 1.387 . S
C1098 H1083 0.930 . S
C1098 C1093 1.390 . S
C1098 C1097 1.387 . S
H1099 C1111 0.930 . S
H1100 C1113 0.930 . S
H1101 C1114 0.930 . S
H1102 C1118 0.955 . S
H1103 C1118 0.959 . S
H1104 C1118 0.961 . S
H1105 C1119 0.960 . S
H1106 C1119 0.961 . S
H1107 C1119 0.959 . S
H1108 C1122 0.929 . S
H1109 C1123 0.931 . S
H1110 C1125 0.930 . S
C1111 H1099 0.930 . S
C1111 C1112 1.399 1_565 S
C1111 C1116 1.399 . S
C1112 C1111 1.399 1_545 S
C1112 C1113 1.376 . S
C1113 H1100 0.930 . S
C1113 C1112 1.376 . S
C1113 C1114 1.388 . S
C1114 H1101 0.930 . S
C1114 C1113 1.388 . S
C1114 C1115 1.390 . S
C1115 C1114 1.390 . S
C1115 C1116 1.394 1_545 S
C1115 C1121 1.465 . S
C1116 C1111 1.399 . S
C1116 C1115 1.394 1_565 S
C1116 C1117 1.516 . S
C1117 C1116 1.516 . S
C1117 C1118 1.502 . S
C1117 C1119 1.561 . S
C1117 C1120 1.526 . S
C1118 H1102 0.955 . S
C1118 H1103 0.959 . S
C1118 H1104 0.961 . S
C1118 C1117 1.502 . S
C1119 H1105 0.960 . S
C1119 H1106 0.961 . S
C1119 H1107 0.959 . S
C1119 C1117 1.561 . S
C1120 C1117 1.526 . S
C1120 C1121 1.396 1_565 S
C1120 C1125 1.390 . S
C1121 C1115 1.465 . S
C1121 C1120 1.396 1_545 S
C1121 C1122 1.399 . S
C1122 H1108 0.929 . S
C1122 C1121 1.399 . S
C1122 C1123 1.385 . S
C1123 H1109 0.931 . S
C1123 C1122 1.385 . S
C1123 C1124 1.389 . S
C1124 C1123 1.389 . S
C1124 C1125 1.387 1_545 S
C1125 H1110 0.930 . S
C1125 C1120 1.390 . S
C1125 C1124 1.387 1_565 S
H1126 C1138 0.930 . S
H1127 C1140 0.930 . S
H1128 C1141 0.930 . S
H1129 C1145 0.959 . S
H1130 C1145 0.959 . S
H1131 C1145 0.961 . S
H1132 C1146 0.960 . S
H1133 C1146 0.961 . S
H1134 C1146 0.959 . S
H1135 C1149 0.929 . S
H1136 C1150 0.931 . S
H1137 C1152 0.930 . S
C1138 H1126 0.930 . S
C1138 C1139 1.399 . S
C1138 C1143 1.399 . S
C1139 C1138 1.399 . S
C1139 C1140 1.376 . S
C1140 H1127 0.930 . S
C1140 C1139 1.376 . S
C1140 C1141 1.388 . S
C1141 H1128 0.930 . S
C1141 C1140 1.388 . S
C1141 C1142 1.390 . S
C1142 C1141 1.390 . S
C1142 C1143 1.394 . S
C1142 C1148 1.465 . S
C1143 C1138 1.399 . S
C1143 C1142 1.394 . S
C1143 C1144 1.516 . S
C1144 C1143 1.516 . S
C1144 C1145 1.502 . S
C1144 C1146 1.561 . S
C1144 C1147 1.526 . S
C1145 H1129 0.959 . S
C1145 H1130 0.959 . S
C1145 H1131 0.961 . S
C1145 C1144 1.502 . S
C1146 H1132 0.960 . S
C1146 H1133 0.961 . S
C1146 H1134 0.959 . S
C1146 C1144 1.561 . S
C1147 C1144 1.526 . S
C1147 C1148 1.396 . S
C1147 C1152 1.390 . S
C1148 C1142 1.465 . S
C1148 C1147 1.396 . S
C1148 C1149 1.399 . S
C1149 H1135 0.929 . S
C1149 C1148 1.399 . S
C1149 C1150 1.385 . S
C1150 H1136 0.931 . S
C1150 C1149 1.385 . S
C1150 C1151 1.389 . S
C1151 C1150 1.389 . S
C1151 C1152 1.387 . S
C1152 H1137 0.930 . S
C1152 C1147 1.390 . S
C1152 C1151 1.387 . S
H1153 C1165 0.930 . S
H1154 C1167 0.930 . S
H1155 C1168 0.930 . S
H1156 C1172 0.959 . S
H1157 C1172 0.959 . S
H1158 C1172 0.961 . S
H1159 C1173 0.960 . S
H1160 C1173 0.961 . S
H1161 C1173 0.959 . S
H1162 C1176 0.929 . S
H1163 C1177 0.931 . S
H1164 C1179 0.930 . S
C1165 H1153 0.930 . S
C1165 C1166 1.399 . S
C1165 C1170 1.399 . S
C1166 C1165 1.399 . S
C1166 C1167 1.376 . S
C1167 H1154 0.930 . S
C1167 C1166 1.376 . S
C1167 C1168 1.388 . S
C1168 H1155 0.930 . S
C1168 C1167 1.388 . S
C1168 C1169 1.390 . S
C1169 C1168 1.390 . S
C1169 C1170 1.394 . S
C1169 C1175 1.465 . S
C1170 C1165 1.399 . S
C1170 C1169 1.394 . S
C1170 C1171 1.516 . S
C1171 C1170 1.516 . S
C1171 C1172 1.502 . S
C1171 C1173 1.561 . S
C1171 C1174 1.526 . S
C1172 H1156 0.959 . S
C1172 H1157 0.959 . S
C1172 H1158 0.961 . S
C1172 C1171 1.502 . S
C1173 H1159 0.960 . S
C1173 H1160 0.961 . S
C1173 H1161 0.959 . S
C1173 C1171 1.561 . S
C1174 C1171 1.526 . S
C1174 C1175 1.396 . S
C1174 C1179 1.390 . S
C1175 C1169 1.465 . S
C1175 C1174 1.396 . S
C1175 C1176 1.399 . S
C1176 H1162 0.929 . S
C1176 C1175 1.399 . S
C1176 C1177 1.385 . S
C1177 H1163 0.931 . S
C1177 C1176 1.385 . S
C1177 C1178 1.389 . S
C1178 C1177 1.389 . S
C1178 C1179 1.387 . S
C1179 H1164 0.930 . S
C1179 C1174 1.390 . S
C1179 C1178 1.387 . S
H1180 C1192 0.930 . S
H1181 C1194 0.930 . S
H1182 C1195 0.930 . S
H1183 C1199 0.959 . S
H1184 C1199 0.959 . S
H1185 C1199 0.961 . S
H1186 C1200 0.960 . S
H1187 C1200 0.961 . S
H1188 C1200 0.959 . S
H1189 C1203 0.929 . S
H1190 C1204 0.931 . S
H1191 C1206 0.930 . S
C1192 H1180 0.930 . S
C1192 C1193 1.395 1_655 S
C1192 C1197 1.399 . S
C1193 C1192 1.395 1_455 S
C1193 C1194 1.381 . S
C1194 H1181 0.930 . S
C1194 C1193 1.381 . S
C1194 C1195 1.388 . S
C1195 H1182 0.930 . S
C1195 C1194 1.388 . S
C1195 C1196 1.390 . S
C1196 C1195 1.390 . S
C1196 C1197 1.394 1_455 S
C1196 C1202 1.465 . S
C1197 C1192 1.399 . S
C1197 C1196 1.394 1_655 S
C1197 C1198 1.516 . S
C1198 C1197 1.516 . S
C1198 C1199 1.502 . S
C1198 C1200 1.561 . S
C1198 C1201 1.526 . S
C1199 H1183 0.959 . S
C1199 H1184 0.959 . S
C1199 H1185 0.961 . S
C1199 C1198 1.502 . S
C1200 H1186 0.960 . S
C1200 H1187 0.961 . S
C1200 H1188 0.959 . S
C1200 C1198 1.561 . S
C1201 C1198 1.526 . S
C1201 C1202 1.396 1_655 S
C1201 C1206 1.390 . S
C1202 C1196 1.465 . S
C1202 C1201 1.396 1_455 S
C1202 C1203 1.399 . S
C1203 H1189 0.929 . S
C1203 C1202 1.399 . S
C1203 C1204 1.385 . S
C1204 H1190 0.931 . S
C1204 C1203 1.385 . S
C1204 C1205 1.389 1_455 S
C1205 C1204 1.389 1_655 S
C1205 C1206 1.387 . S
C1206 H1191 0.930 . S
C1206 C1201 1.390 . S
C1206 C1205 1.387 . S
H1207 C1219 0.930 . S
H1208 C1221 0.930 . S
H1209 C1222 0.930 . S
H1210 C1226 0.959 . S
H1211 C1226 0.959 . S
H1212 C1226 0.961 . S
H1213 C1227 0.960 . S
H1214 C1227 0.970 . S
H1215 C1227 0.959 . S
H1216 C1230 0.929 . S
H1217 C1231 0.931 . S
H1218 C1233 0.934 . S
C1219 H1207 0.930 . S
C1219 C1220 1.399 1_545 S
C1219 C1224 1.401 . S
C1220 C1219 1.399 1_565 S
C1220 C1221 1.376 . S
C1221 H1208 0.930 . S
C1221 C1220 1.376 . S
C1221 C1222 1.388 . S
C1222 H1209 0.930 . S
C1222 C1221 1.388 . S
C1222 C1223 1.390 . S
C1223 C1222 1.390 . S
C1223 C1224 1.387 1_565 S
C1223 C1229 1.465 . S
C1224 C1219 1.401 . S
C1224 C1223 1.387 1_545 S
C1224 C1225 1.520 . S
C1225 C1224 1.520 . S
C1225 C1226 1.502 . S
C1225 C1227 1.561 1_545 S
C1225 C1228 1.526 1_545 S
C1226 H1210 0.959 . S
C1226 H1211 0.959 . S
C1226 H1212 0.961 . S
C1226 C1225 1.502 . S
C1227 H1213 0.960 . S
C1227 H1214 0.970 . S
C1227 H1215 0.959 . S
C1227 C1225 1.561 1_565 S
C1228 C1225 1.526 1_565 S
C1228 C1229 1.396 . S
C1228 C1233 1.389 1_565 S
C1229 C1223 1.465 . S
C1229 C1228 1.396 . S
C1229 C1230 1.399 . S
C1230 H1216 0.929 . S
C1230 C1229 1.399 . S
C1230 C1231 1.385 . S
C1231 H1217 0.931 . S
C1231 C1230 1.385 . S
C1231 C1232 1.389 . S
C1232 C1231 1.389 . S
C1232 C1233 1.383 1_565 S
C1233 H1218 0.934 . S
C1233 C1228 1.389 1_545 S
C1233 C1232 1.383 1_545 S
H1234 C1246 0.930 . S
H1235 C1248 0.930 . S
H1236 C1249 0.930 . S
H1237 C1253 0.959 . S
H1238 C1253 0.959 . S
H1239 C1253 0.961 . S
H1240 C1254 0.960 . S
H1241 C1254 0.961 . S
H1242 C1254 0.959 . S
H1243 C1257 0.929 . S
H1244 C1258 0.931 . S
H1245 C1260 0.930 . S
C1246 H1234 0.930 . S
C1246 C1247 1.399 . S
C1246 C1251 1.399 . S
C1247 C1246 1.399 . S
C1247 C1248 1.376 . S
C1248 H1235 0.930 . S
C1248 C1247 1.376 . S
C1248 C1249 1.388 . S
C1249 H1236 0.930 . S
C1249 C1248 1.388 . S
C1249 C1250 1.390 . S
C1250 C1249 1.390 . S
C1250 C1251 1.394 . S
C1250 C1256 1.465 . S
C1251 C1246 1.399 . S
C1251 C1250 1.394 . S
C1251 C1252 1.516 . S
C1252 C1251 1.516 . S
C1252 C1253 1.502 . S
C1252 C1254 1.561 . S
C1252 C1255 1.526 . S
C1253 H1237 0.959 . S
C1253 H1238 0.959 . S
C1253 H1239 0.961 . S
C1253 C1252 1.502 . S
C1254 H1240 0.960 . S
C1254 H1241 0.961 . S
C1254 H1242 0.959 . S
C1254 C1252 1.561 . S
C1255 C1252 1.526 . S
C1255 C1256 1.396 . S
C1255 C1260 1.390 . S
C1256 C1250 1.465 . S
C1256 C1255 1.396 . S
C1256 C1257 1.399 . S
C1257 H1243 0.929 . S
C1257 C1256 1.399 . S
C1257 C1258 1.385 . S
C1258 H1244 0.931 . S
C1258 C1257 1.385 . S
C1258 C1259 1.389 . S
C1259 C1258 1.389 . S
C1259 C1260 1.387 . S
C1260 H1245 0.930 . S
C1260 C1255 1.390 . S
C1260 C1259 1.387 . S
H1261 C1273 0.930 . S
H1262 C1275 0.930 . S
H1263 C1276 0.930 . S
H1264 C1280 0.959 . S
H1265 C1280 0.959 . S
H1266 C1280 0.961 . S
H1267 C1281 0.960 . S
H1268 C1281 0.961 . S
H1269 C1281 0.959 . S
H1270 C1284 0.929 . S
H1271 C1285 0.931 . S
H1272 C1287 0.930 . S
C1273 H1261 0.930 . S
C1273 C1274 1.399 . S
C1273 C1278 1.399 . S
C1274 C1273 1.399 . S
C1274 C1275 1.376 . S
C1275 H1262 0.930 . S
C1275 C1274 1.376 . S
C1275 C1276 1.388 . S
C1276 H1263 0.930 . S
C1276 C1275 1.388 . S
C1276 C1277 1.390 . S
C1277 C1276 1.390 . S
C1277 C1278 1.394 . S
C1277 C1283 1.465 . S
C1278 C1273 1.399 . S
C1278 C1277 1.394 . S
C1278 C1279 1.516 . S
C1279 C1278 1.516 . S
C1279 C1280 1.502 . S
C1279 C1281 1.561 . S
C1279 C1282 1.526 . S
C1280 H1264 0.959 . S
C1280 H1265 0.959 . S
C1280 H1266 0.961 . S
C1280 C1279 1.502 . S
C1281 H1267 0.960 . S
C1281 H1268 0.961 . S
C1281 H1269 0.959 . S
C1281 C1279 1.561 . S
C1282 C1279 1.526 . S
C1282 C1283 1.396 . S
C1282 C1287 1.390 . S
C1283 C1277 1.465 . S
C1283 C1282 1.396 . S
C1283 C1284 1.399 . S
C1284 H1270 0.929 . S
C1284 C1283 1.399 . S
C1284 C1285 1.385 . S
C1285 H1271 0.931 . S
C1285 C1284 1.385 . S
C1285 C1286 1.389 . S
C1286 C1285 1.389 . S
C1286 C1287 1.387 . S
C1287 H1272 0.930 . S
C1287 C1282 1.390 . S
C1287 C1286 1.387 . S
C653 C391 2.305 1_565 S
C665 C482 2.356 . S
C692 C522 2.371 . S
C680 C451 2.311 . S
C719 C562 2.397 . S
C707 C241 1.996 . S
C746 C602 2.369 1_455 S
C734 C331 2.051 1_455 S
C773 C495 2.369 . S
C761 C121 1.970 1_545 S
C788 C211 2.288 . S
C800 C535 2.397 . S
C815 C31 2.327 . S
C827 C575 2.388 . S
C842 C91 1.964 . S
C854 C615 2.385 1_655 S
C881 C506 0.322 . S
C869 C301 0.662 1_455 S
C908 C546 0.342 . S
C896 C380 0.378 . S
C935 C586 0.430 . S
C923 C440 0.323 . S
C950 C260 0.523 . S
C962 C626 0.466 . S
C977 C61 0.569 . S
C989 C489 0.449 . S
C1016 C529 0.390 . S
C1004 C140 0.340 . S
C1043 C569 0.369 . S
C1031 C200 0.434 . S
C1058 C20 0.296 . S
C1070 C609 0.470 . S
C1085 C320 3.002 1_455 S
C1097 C483 3.192 . S
C1112 C361 2.594 . S
C1124 C523 3.181 . S
C1151 C563 3.161 . S
C1139 C421 2.578 . S
C1178 C603 3.206 . S
C1166 C271 2.939 . S
C1193 C80 2.984 1_455 S
C1205 C502 3.209 . S
C1232 C542 3.182 . S
C1220 C151 2.954 . S
C1259 C582 3.168 . S
C1247 C181 2.599 . S
C1274 C1 2.565 . S
C1286 C622 3.206 . S
