# Generated by pormake.
# Topology ssc, (4,4)-cn, num edge types: 1
# Building blocks:
#     Node 0, Type 0, BuildingBlock: CEKHIL_clean_sbu_0, # of connection points: 4
#     Node 1, Type 0, BuildingBlock: CEKHIL_clean_sbu_0, # of connection points: 4
#     Node 2, Type 0, BuildingBlock: CEKHIL_clean_sbu_0, # of connection points: 4
#     Node 3, Type 0, BuildingBlock: CEKHIL_clean_sbu_0, # of connection points: 4
#     Node 4, Type 0, BuildingBlock: CEKHIL_clean_sbu_0, # of connection points: 4
#     Node 5, Type 0, BuildingBlock: CEKHIL_clean_sbu_0, # of connection points: 4
#     Node 6, Type 0, BuildingBlock: CEKHIL_clean_sbu_0, # of connection points: 4
#     Node 7, Type 0, BuildingBlock: CEKHIL_clean_sbu_0, # of connection points: 4
#     Node 8, Type 0, BuildingBlock: CEKHIL_clean_sbu_0, # of connection points: 4
#     Node 9, Type 0, BuildingBlock: CEKHIL_clean_sbu_0, # of connection points: 4
#     Node 10, Type 0, BuildingBlock: CEKHIL_clean_sbu_0, # of connection points: 4
#     Node 11, Type 0, BuildingBlock: CEKHIL_clean_sbu_0, # of connection points: 4
#     Node 12, Type 1, BuildingBlock: KUFVIS_clean_linker_0, # of connection points: 4
#     Node 13, Type 1, BuildingBlock: KUFVIS_clean_linker_0, # of connection points: 4
#     Node 14, Type 1, BuildingBlock: KUFVIS_clean_linker_0, # of connection points: 4
#     Node 15, Type 1, BuildingBlock: KUFVIS_clean_linker_0, # of connection points: 4
#     Node 16, Type 1, BuildingBlock: KUFVIS_clean_linker_0, # of connection points: 4
#     Node 17, Type 1, BuildingBlock: KUFVIS_clean_linker_0, # of connection points: 4
#     Node 18, Type 1, BuildingBlock: KUFVIS_clean_linker_0, # of connection points: 4
#     Node 19, Type 1, BuildingBlock: KUFVIS_clean_linker_0, # of connection points: 4
#     Node 20, Type 1, BuildingBlock: KUFVIS_clean_linker_0, # of connection points: 4
#     Node 21, Type 1, BuildingBlock: KUFVIS_clean_linker_0, # of connection points: 4
#     Node 22, Type 1, BuildingBlock: KUFVIS_clean_linker_0, # of connection points: 4
#     Node 23, Type 1, BuildingBlock: KUFVIS_clean_linker_0, # of connection points: 4
#     Edge 24, Type (0, 1), BuildingBlock: XIVTED_clean_linker_0, # of connection points: 2
#     Edge 25, Type (0, 1), BuildingBlock: XIVTED_clean_linker_0, # of connection points: 2
#     Edge 26, Type (0, 1), BuildingBlock: XIVTED_clean_linker_0, # of connection points: 2
#     Edge 27, Type (0, 1), BuildingBlock: XIVTED_clean_linker_0, # of connection points: 2
#     Edge 28, Type (0, 1), BuildingBlock: XIVTED_clean_linker_0, # of connection points: 2
#     Edge 29, Type (0, 1), BuildingBlock: XIVTED_clean_linker_0, # of connection points: 2
#     Edge 30, Type (0, 1), BuildingBlock: XIVTED_clean_linker_0, # of connection points: 2
#     Edge 31, Type (0, 1), BuildingBlock: XIVTED_clean_linker_0, # of connection points: 2
#     Edge 32, Type (0, 1), BuildingBlock: XIVTED_clean_linker_0, # of connection points: 2
#     Edge 33, Type (0, 1), BuildingBlock: XIVTED_clean_linker_0, # of connection points: 2
#     Edge 34, Type (0, 1), BuildingBlock: XIVTED_clean_linker_0, # of connection points: 2
#     Edge 35, Type (0, 1), BuildingBlock: XIVTED_clean_linker_0, # of connection points: 2
#     Edge 36, Type (0, 1), BuildingBlock: XIVTED_clean_linker_0, # of connection points: 2
#     Edge 37, Type (0, 1), BuildingBlock: XIVTED_clean_linker_0, # of connection points: 2
#     Edge 38, Type (0, 1), BuildingBlock: XIVTED_clean_linker_0, # of connection points: 2
#     Edge 39, Type (0, 1), BuildingBlock: XIVTED_clean_linker_0, # of connection points: 2
#     Edge 40, Type (0, 1), BuildingBlock: XIVTED_clean_linker_0, # of connection points: 2
#     Edge 41, Type (0, 1), BuildingBlock: XIVTED_clean_linker_0, # of connection points: 2
#     Edge 42, Type (0, 1), BuildingBlock: XIVTED_clean_linker_0, # of connection points: 2
#     Edge 43, Type (0, 1), BuildingBlock: XIVTED_clean_linker_0, # of connection points: 2
#     Edge 44, Type (0, 1), BuildingBlock: XIVTED_clean_linker_0, # of connection points: 2
#     Edge 45, Type (0, 1), BuildingBlock: XIVTED_clean_linker_0, # of connection points: 2
#     Edge 46, Type (0, 1), BuildingBlock: XIVTED_clean_linker_0, # of connection points: 2
#     Edge 47, Type (0, 1), BuildingBlock: XIVTED_clean_linker_0, # of connection points: 2
#     Edge 48, Type (0, 1), BuildingBlock: XIVTED_clean_linker_0, # of connection points: 2
#     Edge 49, Type (0, 1), BuildingBlock: XIVTED_clean_linker_0, # of connection points: 2
#     Edge 50, Type (0, 1), BuildingBlock: XIVTED_clean_linker_0, # of connection points: 2
#     Edge 51, Type (0, 1), BuildingBlock: XIVTED_clean_linker_0, # of connection points: 2
#     Edge 52, Type (0, 1), BuildingBlock: XIVTED_clean_linker_0, # of connection points: 2
#     Edge 53, Type (0, 1), BuildingBlock: XIVTED_clean_linker_0, # of connection points: 2
#     Edge 54, Type (0, 1), BuildingBlock: XIVTED_clean_linker_0, # of connection points: 2
#     Edge 55, Type (0, 1), BuildingBlock: XIVTED_clean_linker_0, # of connection points: 2
#     Edge 56, Type (0, 1), BuildingBlock: XIVTED_clean_linker_0, # of connection points: 2
#     Edge 57, Type (0, 1), BuildingBlock: XIVTED_clean_linker_0, # of connection points: 2
#     Edge 58, Type (0, 1), BuildingBlock: XIVTED_clean_linker_0, # of connection points: 2
#     Edge 59, Type (0, 1), BuildingBlock: XIVTED_clean_linker_0, # of connection points: 2
#     Edge 60, Type (0, 1), BuildingBlock: XIVTED_clean_linker_0, # of connection points: 2
#     Edge 61, Type (0, 1), BuildingBlock: XIVTED_clean_linker_0, # of connection points: 2
#     Edge 62, Type (0, 1), BuildingBlock: XIVTED_clean_linker_0, # of connection points: 2
#     Edge 63, Type (0, 1), BuildingBlock: XIVTED_clean_linker_0, # of connection points: 2
#     Edge 64, Type (0, 1), BuildingBlock: XIVTED_clean_linker_0, # of connection points: 2
#     Edge 65, Type (0, 1), BuildingBlock: XIVTED_clean_linker_0, # of connection points: 2
#     Edge 66, Type (0, 1), BuildingBlock: XIVTED_clean_linker_0, # of connection points: 2
#     Edge 67, Type (0, 1), BuildingBlock: XIVTED_clean_linker_0, # of connection points: 2
#     Edge 68, Type (0, 1), BuildingBlock: XIVTED_clean_linker_0, # of connection points: 2
#     Edge 69, Type (0, 1), BuildingBlock: XIVTED_clean_linker_0, # of connection points: 2
#     Edge 70, Type (0, 1), BuildingBlock: XIVTED_clean_linker_0, # of connection points: 2
#     Edge 71, Type (0, 1), BuildingBlock: XIVTED_clean_linker_0, # of connection points: 2
# Relax obj value: 0.121
# Max RMSD: 0.311
# Mean RMSD: 0.273
data_MOF--net-ssc--node1-CEKHIL_clean_sbu_0--node2-KUFVIS_clean_linker_0--edge1-XIVTED_clean_linker_0
_symmetry_space_group_name_H-M    P1
_symmetry_Int_Tables_number       1
_symmetry_cell_setting            triclinic
loop_
_symmetry_equiv_pos_as_xyz
'x, y, z'
_cell_length_a     30.823776
_cell_length_b     30.931599
_cell_length_c     30.813444
_cell_angle_alpha  91.403205
_cell_angle_beta   89.798819
_cell_angle_gamma 93.156733
loop_
_atom_site_label
_atom_site_type_symbol
_atom_site_fract_x
_atom_site_fract_y
_atom_site_fract_z
_atom_type_partial_charge
Co0 Co 0.00854 0.31268 0.1543 0.0
O1 O 0.04424 0.32489 0.10422 0.0
O2 O 0.98944 0.36356 0.12652 0.0
C3 C 0.06151 0.29988 0.20179 0.0
O4 O 0.96543 0.31197 0.20479 0.0
Co5 Co 0.00333 0.22147 0.19434 0.0
O6 O 0.96468 0.24782 0.23788 0.0
C7 C 0.97277 0.23369 0.106 0.0
C8 C 0.01974 0.3571 0.09809 0.0
C9 C 0.95235 0.28628 0.23496 0.0
O10 O 0.96943 0.27409 0.11568 0.0
O11 O 0.98959 0.20761 0.13187 0.0
O12 O 0.0525 0.33949 0.19352 0.0
O13 O 0.0419 0.27023 0.17769 0.0
Co14 Co 0.01416 0.75977 0.39757 0.0
O15 O 0.05385 0.74612 0.44281 0.0
O16 O 0.98821 0.71456 0.43279 0.0
C17 C 0.0646 0.76049 0.34478 0.0
O18 O 0.96495 0.76052 0.35401 0.0
Co19 Co 0.02069 0.84006 0.34019 0.0
O20 O 0.98867 0.8002 0.29832 0.0
C21 C 0.99055 0.84833 0.43134 0.0
C22 C 0.02474 0.71623 0.45368 0.0
C23 C 0.96405 0.76994 0.31373 0.0
O24 O 0.98937 0.80681 0.43515 0.0
O25 O 0.00365 0.86761 0.39698 0.0
O26 O 0.04634 0.72397 0.3573 0.0
O27 O 0.05323 0.79493 0.3653 0.0
Co28 Co 0.54245 0.77674 0.64726 0.0
O29 O 0.56626 0.78153 0.58966 0.0
O30 O 0.51434 0.82128 0.61649 0.0
C31 C 0.60593 0.77521 0.68312 0.0
O32 O 0.51028 0.78202 0.70491 0.0
Co33 Co 0.55509 0.69518 0.70174 0.0
O34 O 0.53459 0.73275 0.75003 0.0
C35 C 0.49228 0.69027 0.62977 0.0
C36 C 0.53949 0.8119 0.58403 0.0
C37 C 0.51292 0.76575 0.74278 0.0
O38 O 0.49796 0.73148 0.62552 0.0
O39 O 0.51431 0.66884 0.65616 0.0
O40 O 0.59142 0.81183 0.67139 0.0
O41 O 0.58414 0.74092 0.66889 0.0
Co42 Co 0.51782 0.32047 0.95382 0.0
O43 O 0.56354 0.29009 0.97971 0.0
O44 O 0.49432 0.26646 0.97658 0.0
C45 C 0.55539 0.3375 0.89325 0.0
O46 O 0.46182 0.33936 0.92749 0.0
Co47 Co 0.52496 0.4167 0.93483 0.0
O48 O 0.47175 0.40513 0.89932 0.0
C49 C 0.51249 0.39027 0.02499 0.0
C50 C 0.53389 0.25994 0.98808 0.0
C51 C 0.44885 0.37011 0.90437 0.0
O52 O 0.50655 0.35088 0.01101 0.0
O53 O 0.52291 0.42161 -2e-05 0.0
O54 O 0.53483 0.29994 0.89672 0.0
O55 O 0.55491 0.363 0.92722 0.0
Co56 Co 0.12131 0.98094 0.30878 0.0
O57 O 0.15421 0.93905 0.2771 0.0
O58 O 0.16445 0.95811 0.34613 0.0
C59 C 0.05501 0.95746 0.28407 0.0
O60 O 0.09417 0.02068 0.35383 0.0
Co61 Co 0.06524 0.04789 0.26438 0.0
O62 O 0.03879 0.05285 0.32309 0.0
C63 C 0.16093 0.05888 0.26209 0.0
C64 C 0.17624 0.93527 0.31262 0.0
C65 C 0.05987 0.04243 0.35638 0.0
O66 O 0.16394 0.02846 0.28962 0.0
O67 O 0.12487 0.06978 0.24629 0.0
O68 O 0.07244 0.93789 0.31613 0.0
O69 O 0.07909 0.98769 0.26683 0.0
Co70 Co 0.26093 0.90856 0.51155 0.0
O71 O 0.25242 0.95576 0.55223 0.0
O72 O 0.21594 0.9438 0.4908 0.0
C73 C 0.26213 0.85476 0.55958 0.0
O74 O 0.25802 0.86326 0.46232 0.0
Co75 Co 0.34491 0.85813 0.51114 0.0
O76 O 0.31499 0.8211 0.4658 0.0
C77 C 0.34873 0.94805 0.48331 0.0
C78 C 0.22286 0.9676 0.52563 0.0
C79 C 0.27917 0.83075 0.44901 0.0
O80 O 0.30693 0.94605 0.48149 0.0
O81 O 0.37044 0.91737 0.49763 0.0
O82 O 0.22544 0.86886 0.54673 0.0
O83 O 0.29666 0.87656 0.54677 0.0
Co84 Co 0.41342 0.03912 0.76 0.0
O85 O 0.37721 0.08267 0.73846 0.0
O86 O 0.37631 0.05949 0.80595 0.0
C87 C 0.47617 0.06415 0.72986 0.0
O88 O 0.44691 0.99779 0.7958 0.0
Co89 Co 0.46057 0.97441 0.70082 0.0
O90 O 0.49911 0.97337 0.7524 0.0
C91 C 0.36646 0.96079 0.71494 0.0
C92 C 0.36091 0.08474 0.7774 0.0
C93 C 0.48408 0.98168 0.79007 0.0
O94 O 0.36795 0.99249 0.7429 0.0
O95 O 0.39956 0.94915 0.69331 0.0
O96 O 0.4624 0.0815 0.76592 0.0
O97 O 0.45 0.03529 0.71141 0.0
Co98 Co 0.23057 0.10123 0.03145 0.0
O99 O 0.24737 0.05469 0.06727 0.0
O100 O 0.27822 0.0721 0.00459 0.0
C101 C 0.22748 0.15195 0.08498 0.0
O102 O 0.22423 0.14776 0.98616 0.0
Co103 Co 0.14186 0.14297 0.04419 0.0
O104 O 0.16314 0.18285 0.99856 0.0
C105 C 0.14444 0.05603 0.00389 0.0
C106 C 0.27687 0.04745 0.03818 0.0
C107 C 0.19809 0.17743 0.97743 0.0
O108 O 0.1862 0.06038 0.00154 0.0
O109 O 0.12107 0.08388 0.02266 0.0
O110 O 0.26441 0.14328 0.06722 0.0
O111 O 0.19444 0.12718 0.07279 0.0
Co112 Co 0.77898 0.41777 0.03172 0.0
O113 O 0.7814 0.47252 0.06371 0.0
O114 O 0.7363 0.45473 0.00959 0.0
C115 C 0.78081 0.37469 0.08961 0.0
O116 O 0.76369 0.3656 0.99185 0.0
Co117 Co 0.85079 0.35159 0.03232 0.0
O118 O 0.8035 0.31055 0.01051 0.0
C119 C 0.86375 0.43111 0.98155 0.0
C120 C 0.74958 0.483 0.0391 0.0
C121 C 0.77141 0.32518 0.99073 0.0
O122 O 0.82459 0.44128 0.99017 0.0
O123 O 0.88086 0.39773 0.99646 0.0
O124 O 0.74459 0.39064 0.07787 0.0
O125 O 0.81499 0.3878 0.06829 0.0
Co126 Co 0.90481 0.52987 0.30387 0.0
O127 O 0.87146 0.56839 0.27071 0.0
O128 O 0.86744 0.56166 0.34207 0.0
C129 C 0.96948 0.5442 0.27156 0.0
O130 O 0.93367 0.49563 0.35025 0.0
Co131 Co 0.9505 0.4518 0.26222 0.0
O132 O 0.98267 0.4542 0.3181 0.0
C133 C 0.85506 0.45079 0.26701 0.0
C134 C 0.85332 0.57914 0.30731 0.0
C135 C 0.96648 0.47188 0.35177 0.0
O136 O 0.85764 0.48338 0.29384 0.0
O137 O 0.88811 0.43471 0.24879 0.0
O138 O 0.95642 0.5699 0.30251 0.0
O139 O 0.94208 0.51341 0.2594 0.0
Co140 Co 0.79079 0.63578 0.52209 0.0
O141 O 0.80089 0.5836 0.55252 0.0
O142 O 0.83467 0.60423 0.49217 0.0
C143 C 0.79269 0.68048 0.58104 0.0
O144 O 0.7918 0.68738 0.48221 0.0
Co145 Co 0.7112 0.69143 0.53851 0.0
O146 O 0.75005 0.73712 0.51236 0.0
C147 C 0.70038 0.60801 0.48918 0.0
C148 C 0.83017 0.57658 0.5231 0.0
C149 C 0.77984 0.72645 0.48612 0.0
O150 O 0.74189 0.60419 0.48838 0.0
O151 O 0.6822 0.63906 0.50909 0.0
O152 O 0.82866 0.66946 0.56278 0.0
O153 O 0.75754 0.66193 0.56519 0.0
Co154 Co 0.62193 0.47008 0.72995 0.0
O155 O 0.67612 0.45234 0.7067 0.0
O156 O 0.66086 0.45767 0.77685 0.0
C157 C 0.57925 0.42887 0.6843 0.0
O158 O 0.56907 0.4854 0.76581 0.0
Co159 Co 0.55929 0.51947 0.67263 0.0
O160 O 0.51788 0.50822 0.72122 0.0
C161 C 0.64299 0.56027 0.70056 0.0
C162 C 0.68865 0.44861 0.74652 0.0
C163 C 0.53018 0.49655 0.75845 0.0
O164 O 0.64497 0.53204 0.73024 0.0
O165 O 0.61406 0.55817 0.67077 0.0
O166 O 0.59511 0.41217 0.71877 0.0
O167 O 0.59249 0.46832 0.67704 0.0
H168 H 0.95775 0.40964 0.69655 0.0
H169 H 0.99861 0.29655 0.75931 0.0
H170 H 0.04486 0.32718 0.63056 0.0
H171 H 0.03722 0.25023 0.62876 0.0
H172 H 0.12072 0.16702 0.69439 0.0
H173 H 0.07876 0.28097 0.76057 0.0
C174 C 0.97887 0.3827 0.69749 0.0
C175 C 0.00229 0.37206 0.66023 0.0
C176 C 0.97666 0.35535 0.73301 0.0
C177 C 0.00147 0.31862 0.73253 0.0
C178 C 0.02758 0.30883 0.69622 0.0
C179 C 0.02703 0.33541 0.65967 0.0
C180 C 0.05296 0.26934 0.69558 0.0
C181 C 0.05436 0.24236 0.65793 0.0
C182 C 0.07857 0.20534 0.65783 0.0
C183 C 0.10065 0.19481 0.69529 0.0
C184 C 0.10105 0.22189 0.73225 0.0
C185 C 0.07724 0.25922 0.73242 0.0
H186 H 0.93055 0.60886 0.75304 0.0
H187 H 0.04315 0.68113 0.80339 0.0
H188 H 0.95517 0.7415 0.71857 0.0
H189 H 0.06857 0.74962 0.70739 0.0
H190 H 0.09267 0.86651 0.784 0.0
H191 H 0.99721 0.77042 0.8262 0.0
C192 C 0.95235 0.63764 0.75287 0.0
C193 C 0.93955 0.67421 0.7314 0.0
C194 C 0.98924 0.6399 0.77948 0.0
C195 C 0.01543 0.67848 0.78173 0.0
C196 C 0.00412 0.71463 0.75836 0.0
C197 C 0.96573 0.71267 0.73384 0.0
C198 C 0.02867 0.75635 0.76491 0.0
C199 C 0.06085 0.77019 0.73502 0.0
C200 C 0.08365 0.81035 0.74163 0.0
C201 C 0.0739 0.83625 0.77784 0.0
C202 C 0.04332 0.82189 0.80852 0.0
C203 C 0.02059 0.78189 0.80213 0.0
H204 H 0.41132 0.86866 0.2047 0.0
H205 H 0.49088 0.78115 0.26956 0.0
H206 H 0.52166 0.82064 0.13827 0.0
H207 H 0.54282 0.74941 0.13605 0.0
H208 H 0.65062 0.69885 0.20139 0.0
H209 H 0.56794 0.78271 0.2718 0.0
C210 C 0.43995 0.84967 0.20492 0.0
C211 C 0.46522 0.84693 0.16749 0.0
C212 C 0.44911 0.82646 0.24172 0.0
C213 C 0.485 0.80035 0.24147 0.0
C214 C 0.51228 0.79823 0.2044 0.0
C215 C 0.50185 0.82191 0.16732 0.0
C216 C 0.55058 0.77039 0.20382 0.0
C217 C 0.56213 0.7478 0.1652 0.0
C218 C 0.59878 0.72281 0.16422 0.0
C219 C 0.62302 0.71925 0.20189 0.0
C220 C 0.61193 0.74011 0.24059 0.0
C221 C 0.57588 0.76601 0.24175 0.0
H222 H 0.42541 0.15349 0.30256 0.0
H223 H 0.51045 0.25258 0.3611 0.0
H224 H 0.44773 0.27459 0.23895 0.0
H225 H 0.53662 0.29267 0.23433 0.0
H226 H 0.57504 0.41882 0.28631 0.0
H227 H 0.48875 0.33473 0.35913 0.0
C228 C 0.44259 0.185 0.30071 0.0
C229 C 0.43403 0.21199 0.2664 0.0
C230 C 0.46942 0.19949 0.33509 0.0
C231 C 0.48957 0.24124 0.33448 0.0
C232 C 0.48303 0.26794 0.29888 0.0
C233 C 0.45454 0.25343 0.26534 0.0
C234 C 0.5069 0.31037 0.29542 0.0
C235 C 0.5332 0.31812 0.25875 0.0
C236 C 0.55816 0.35707 0.25541 0.0
C237 C 0.55424 0.3894 0.28757 0.0
C238 C 0.53019 0.38138 0.32535 0.0
C239 C 0.50651 0.34161 0.32945 0.0
H240 H 0.68083 0.90608 0.35704 0.0
H241 H 0.75218 0.9927 0.27292 0.0
H242 H 0.61738 0.01262 0.30312 0.0
H243 H 0.63006 0.01706 0.21722 0.0
H244 H 0.69296 0.13323 0.16851 0.0
H245 H 0.74145 0.07813 0.28402 0.0
C246 C 0.68172 0.93407 0.33639 0.0
C247 C 0.64464 0.95772 0.33257 0.0
C248 C 0.72039 0.9466 0.31527 0.0
C249 C 0.72225 0.98333 0.28966 0.0
C250 C 0.68487 0.00692 0.28443 0.0
C251 C 0.64611 0.9943 0.30645 0.0
C252 C 0.68594 0.04307 0.25395 0.0
C253 C 0.65539 0.04271 0.21998 0.0
C254 C 0.65861 0.07474 0.18867 0.0
C255 C 0.69142 0.10761 0.19205 0.0
C256 C 0.72092 0.10939 0.22639 0.0
C257 C 0.71853 0.0769 0.25736 0.0
H258 H 0.0926 0.29194 0.48565 0.0
H259 H 0.15768 0.33973 0.60132 0.0
H260 H 0.21939 0.25089 0.51355 0.0
H261 H 0.1972 0.29856 0.65192 0.0
H262 H 0.33606 0.30652 0.66115 0.0
H263 H 0.2769 0.29903 0.53557 0.0
C264 C 0.11905 0.29019 0.50859 0.0
C265 C 0.15529 0.26765 0.49601 0.0
C266 C 0.11995 0.3171 0.54589 0.0
C267 C 0.15619 0.31766 0.57344 0.0
C268 C 0.19203 0.29288 0.56283 0.0
C269 C 0.19132 0.26821 0.52366 0.0
C270 C 0.23183 0.29625 0.59022 0.0
C271 C 0.22864 0.29911 0.63603 0.0
C272 C 0.26642 0.30278 0.66131 0.0
C273 C 0.30698 0.30268 0.64128 0.0
C274 C 0.31097 0.3011 0.59622 0.0
C275 C 0.27348 0.29841 0.57055 0.0
H276 H 0.81304 0.1683 0.84491 0.0
H277 H 0.76087 0.06804 0.75815 0.0
H278 H 0.89576 0.07101 0.7963 0.0
H279 H 0.88588 0.06115 0.70468 0.0
H280 H 0.86203 0.92564 0.67568 0.0
H281 H 0.79025 0.9855 0.77829 0.0
C282 C 0.8182 0.14057 0.82358 0.0
C283 C 0.85862 0.12234 0.82313 0.0
C284 C 0.78287 0.12137 0.80051 0.0
C285 C 0.7883 0.08364 0.77533 0.0
C286 C 0.82967 0.06644 0.77226 0.0
C287 C 0.86452 0.08551 0.7968 0.0
C288 C 0.83685 0.02793 0.74445 0.0
C289 C 0.86836 0.03061 0.71109 0.0
C290 C 0.87744 0.99355 0.68644 0.0
C291 C 0.85514 0.95428 0.69509 0.0
C292 C 0.82403 0.95096 0.72801 0.0
C293 C 0.8142 0.98797 0.75251 0.0
H294 H 0.35747 0.65116 0.9153 0.0
H295 H 0.32181 0.58694 0.03263 0.0
H296 H 0.30324 0.72413 0.01978 0.0
H297 H 0.31022 0.72399 0.09122 0.0
H298 H 0.23592 0.66129 0.19091 0.0
H299 H 0.25829 0.59162 0.07217 0.0
C300 C 0.34259 0.65213 0.94729 0.0
C301 C 0.33081 0.69172 0.96512 0.0
C302 C 0.3393 0.61449 0.9714 0.0
C303 C 0.32267 0.61606 0.01376 0.0
C304 C 0.30824 0.6553 0.0318 0.0
C305 C 0.31307 0.69327 0.00702 0.0
C306 C 0.28919 0.65664 0.07654 0.0
C307 C 0.29319 0.69494 0.1027 0.0
C308 C 0.27416 0.69633 0.14394 0.0
C309 C 0.25261 0.65913 0.15991 0.0
C310 C 0.24655 0.62139 0.13448 0.0
C311 C 0.2647 0.62024 0.09258 0.0
H312 H 0.6889 0.86623 0.92113 0.0
H313 H 0.69031 0.88203 0.05978 0.0
H314 H 0.76634 0.78498 0.9965 0.0
H315 H 0.73667 0.75176 0.06516 0.0
H316 H 0.79996 0.79024 0.18435 0.0
H317 H 0.76824 0.88712 0.09426 0.0
C318 C 0.70132 0.85731 0.95243 0.0
C319 C 0.72971 0.82378 0.95443 0.0
C320 C 0.68681 0.87812 0.99003 0.0
C321 C 0.7017 0.86598 0.03057 0.0
C322 C 0.73103 0.83268 0.03322 0.0
C323 C 0.74428 0.811 0.99492 0.0
C324 C 0.7482 0.82103 0.07589 0.0
C325 C 0.74882 0.77727 0.08739 0.0
C326 C 0.76571 0.76649 0.12751 0.0
C327 C 0.78348 0.79939 0.15521 0.0
C328 C 0.78558 0.84282 0.14352 0.0
C329 C 0.76672 0.85365 0.10405 0.0
H330 H 0.24202 0.59475 0.42268 0.0
H331 H 0.22876 0.51803 0.30501 0.0
H332 H 0.32295 0.48785 0.40101 0.0
H333 H 0.3545 0.48644 0.31899 0.0
H334 H 0.32616 0.36502 0.25154 0.0
H335 H 0.22456 0.42664 0.32083 0.0
C336 C 0.25019 0.56648 0.40345 0.0
C337 C 0.28501 0.54272 0.41656 0.0
C338 C 0.2309 0.55913 0.36262 0.0
C339 C 0.24233 0.52318 0.33726 0.0
C340 C 0.27409 0.49605 0.35216 0.0
C341 C 0.29594 0.50648 0.39143 0.0
C342 C 0.28828 0.45986 0.32439 0.0
C343 C 0.33186 0.45956 0.31038 0.0
C344 C 0.34586 0.4253 0.28412 0.0
C345 C 0.31612 0.39102 0.27296 0.0
C346 C 0.27255 0.39135 0.28586 0.0
C347 C 0.25838 0.4261 0.31116 0.0
H348 H 0.94258 0.25676 0.50648 0.0
H349 H 0.88202 0.19178 0.61421 0.0
H350 H 0.82174 0.29909 0.55701 0.0
H351 H 0.81186 0.30583 0.64514 0.0
H352 H 0.71011 0.21999 0.69425 0.0
H353 H 0.79954 0.17189 0.60023 0.0
C354 C 0.91786 0.25545 0.53163 0.0
C355 C 0.88326 0.28291 0.52918 0.0
C356 C 0.91739 0.22191 0.56147 0.0
C357 C 0.88315 0.21811 0.59158 0.0
C358 C 0.84915 0.24671 0.5911 0.0
C359 C 0.84928 0.27897 0.55959 0.0
C360 C 0.81105 0.23949 0.62006 0.0
C361 C 0.79574 0.27381 0.64597 0.0
C362 C 0.75945 0.26638 0.67293 0.0
C363 C 0.73864 0.22529 0.67382 0.0
C364 C 0.75269 0.19129 0.64781 0.0
C365 C 0.78898 0.1982 0.62087 0.0
H366 H 0.15178 0.42848 0.87753 0.0
H367 H 0.21713 0.45259 0.75655 0.0
H368 H 0.10996 0.52903 0.79633 0.0
H369 H 0.11219 0.48923 0.7032 0.0
H370 H 0.18045 0.58614 0.62767 0.0
H371 H 0.22562 0.56014 0.75543 0.0
C372 C 0.15639 0.44786 0.84877 0.0
C373 C 0.1279 0.48039 0.84088 0.0
C374 C 0.18815 0.43726 0.81854 0.0
C375 C 0.19306 0.46116 0.78054 0.0
C376 C 0.16565 0.49524 0.77299 0.0
C377 C 0.13241 0.50423 0.8029 0.0
C378 C 0.17017 0.51983 0.73268 0.0
C379 C 0.13947 0.51244 0.69918 0.0
C380 C 0.1438 0.53568 0.66077 0.0
C381 C 0.17856 0.56639 0.65635 0.0
C382 C 0.20768 0.57604 0.69031 0.0
C383 C 0.20372 0.55236 0.72856 0.0
H384 H 0.02994 0.32599 0.01634 0.0
H385 H 0.12476 0.52942 0.91534 0.0
H386 H 0.01698 0.44504 0.0897 0.0
H387 H 0.05089 0.43479 0.8371 0.0
H388 H 0.08328 0.50568 0.97941 0.0
H389 H 0.03821 0.36739 0.94996 0.0
C390 C 0.02888 0.36095 0.01831 0.0
C391 C 0.02349 0.38236 0.05832 0.0
C392 C 0.07483 0.49143 0.94789 0.0
C393 C 0.0332 0.4299 0.98283 0.0
C394 C 0.09808 0.50538 0.91129 0.0
C395 C 0.09112 0.4839 0.87112 0.0
C396 C 0.0458 0.45496 0.94409 0.0
C397 C 0.05704 0.45213 0.86762 0.0
C398 C 0.03298 0.3845 0.98046 0.0
C399 C 0.02148 0.42759 0.05927 0.0
N400 N 0.03673 0.43741 0.90396 0.0
N401 N 0.02745 0.45015 0.02207 0.0
H402 H 0.88525 0.7312 0.33558 0.0
H403 H 0.8238 0.71432 0.08974 0.0
H404 H 0.97125 0.75375 0.22679 0.0
H405 H 0.73085 0.71744 0.19365 0.0
H406 H 0.87787 0.69088 0.14019 0.0
H407 H 0.83049 0.69843 0.28578 0.0
C408 C 0.89287 0.72845 0.30131 0.0
C409 C 0.93222 0.74636 0.28498 0.0
C410 C 0.84513 0.69503 0.15185 0.0
C411 C 0.87086 0.70631 0.22836 0.0
C412 C 0.81375 0.70727 0.12267 0.0
C413 C 0.77436 0.72169 0.13878 0.0
C414 C 0.83565 0.69612 0.19651 0.0
C415 C 0.7622 0.70936 0.18082 0.0
C416 C 0.86189 0.70903 0.27304 0.0
C417 C 0.94077 0.74141 0.24049 0.0
N418 N 0.79371 0.70021 0.20933 0.0
N419 N 0.91023 0.72212 0.2137 0.0
H420 H 0.43145 0.72534 0.57934 0.0
H421 H 0.32622 0.50109 0.48246 0.0
H422 H 0.4762 0.60203 0.61792 0.0
H423 H 0.31222 0.62711 0.42848 0.0
H424 H 0.37499 0.53536 0.53827 0.0
H425 H 0.37918 0.68768 0.53127 0.0
C426 C 0.43038 0.69026 0.57772 0.0
C427 C 0.4588 0.66691 0.60236 0.0
C428 C 0.36079 0.55529 0.51428 0.0
C429 C 0.39873 0.62328 0.54674 0.0
C430 C 0.33312 0.5358 0.48248 0.0
C431 C 0.31424 0.56133 0.45135 0.0
C432 C 0.36941 0.60044 0.51465 0.0
C433 C 0.32462 0.60614 0.4526 0.0
C434 C 0.40042 0.6687 0.55015 0.0
C435 C 0.45514 0.62138 0.59928 0.0
N436 N 0.35121 0.6241 0.48368 0.0
N437 N 0.4258 0.60097 0.57167 0.0
H438 H 0.63728 0.37529 0.89717 0.0
H439 H 0.69175 0.31281 0.65106 0.0
H440 H 0.54316 0.31587 0.80788 0.0
H441 H 0.7789 0.29105 0.75622 0.0
H442 H 0.64101 0.34374 0.70302 0.0
H443 H 0.69256 0.37339 0.83971 0.0
C444 C 0.62794 0.36329 0.86503 0.0
C445 C 0.58581 0.34549 0.85706 0.0
C446 C 0.67205 0.33394 0.71445 0.0
C447 C 0.64835 0.34407 0.7915 0.0
C448 C 0.70122 0.3169 0.68481 0.0
C449 C 0.73986 0.3004 0.69942 0.0
C450 C 0.682 0.33505 0.75884 0.0
C451 C 0.74989 0.30451 0.74371 0.0
C452 C 0.65947 0.36215 0.83241 0.0
C453 C 0.57545 0.32963 0.81519 0.0
N454 N 0.72094 0.32124 0.77205 0.0
N455 N 0.6066 0.32914 0.7839 0.0
H456 H 0.10401 0.68621 0.46841 0.0
H457 H 0.06013 0.55835 0.67086 0.0
H458 H 0.96907 0.66614 0.50421 0.0
H459 H 0.15119 0.51568 0.57475 0.0
H460 H 0.02081 0.59393 0.61388 0.0
H461 H 0.12125 0.62492 0.51232 0.0
C462 C 0.07808 0.66918 0.48599 0.0
C463 C 0.0352 0.68158 0.48329 0.0
C464 C 0.04829 0.57518 0.60501 0.0
C465 C 0.05462 0.61113 0.53325 0.0
C466 C 0.07041 0.5544 0.6374 0.0
C467 C 0.10945 0.535 0.62743 0.0
C468 C 0.06615 0.57694 0.56309 0.0
C469 C 0.12158 0.53102 0.5837 0.0
C470 C 0.08778 0.63374 0.51039 0.0
C471 C 0.00264 0.65772 0.50594 0.0
N472 N 0.101 0.5533 0.55328 0.0
N473 N 0.01312 0.62395 0.53078 0.0
H474 H 0.63236 0.70426 0.72585 0.0
H475 H 0.77602 0.85659 0.88671 0.0
H476 H 0.65862 0.84209 0.71492 0.0
H477 H 0.70257 0.74225 0.92762 0.0
H478 H 0.76121 0.83538 0.81105 0.0
H479 H 0.68296 0.7048 0.78733 0.0
C480 C 0.64925 0.73446 0.73587 0.0
C481 C 0.64055 0.77343 0.71594 0.0
C482 C 0.74989 0.81395 0.83648 0.0
C483 C 0.69902 0.77384 0.78506 0.0
C484 C 0.7588 0.82575 0.87959 0.0
C485 C 0.73997 0.80132 0.91321 0.0
C486 C 0.72187 0.77765 0.82718 0.0
C487 C 0.71747 0.76193 0.90246 0.0
C488 C 0.67822 0.73462 0.77072 0.0
C489 C 0.66368 0.81148 0.72989 0.0
N490 N 0.70795 0.75179 0.86021 0.0
N491 N 0.69159 0.81078 0.76378 0.0
H492 H 0.50437 0.4697 0.06533 0.0
H493 H 0.40345 0.3611 0.27643 0.0
H494 H 0.50203 0.33301 0.09125 0.0
H495 H 0.3853 0.49287 0.24088 0.0
H496 H 0.45939 0.35639 0.22048 0.0
H497 H 0.48019 0.48361 0.13977 0.0
C498 C 0.49942 0.44265 0.08679 0.0
C499 C 0.50417 0.39997 0.07158 0.0
C500 C 0.44417 0.38677 0.22578 0.0
C501 C 0.47661 0.41579 0.1569 0.0
C502 C 0.41229 0.38952 0.25778 0.0
C503 C 0.38899 0.42712 0.26253 0.0
C504 C 0.4528 0.42182 0.19836 0.0
C505 C 0.4022 0.46316 0.23802 0.0
C506 C 0.48565 0.45066 0.12933 0.0
C507 C 0.49781 0.36634 0.10115 0.0
N508 N 0.43259 0.45933 0.20627 0.0
N509 N 0.48383 0.37492 0.14217 0.0
H510 H 0.87956 0.24788 0.27062 0.0
H511 H 0.94253 0.34058 0.49325 0.0
H512 H 0.96672 0.36133 0.2821 0.0
H513 H 0.81608 0.27768 0.4718 0.0
H514 H 0.94704 0.35719 0.4162 0.0
H515 H 0.84911 0.26543 0.3419 0.0
C516 C 0.89138 0.27718 0.28776 0.0
C517 C 0.92593 0.30296 0.27093 0.0
C518 C 0.91743 0.34151 0.42859 0.0
C519 C 0.89251 0.32243 0.35299 0.0
C520 C 0.91487 0.33212 0.47264 0.0
C521 C 0.87907 0.30752 0.48882 0.0
C522 C 0.88429 0.32542 0.40044 0.0
C523 C 0.84426 0.29676 0.46064 0.0
C524 C 0.874 0.28728 0.3284 0.0
C525 C 0.94012 0.34063 0.29419 0.0
N526 N 0.84824 0.30466 0.41753 0.0
N527 N 0.92425 0.34859 0.33471 0.0
H528 H 0.10818 0.08678 0.41887 0.0
H529 H 0.89574 0.13523 0.55631 0.0
H530 H 0.97864 0.03446 0.3904 0.0
H531 H 0.00559 0.22713 0.54608 0.0
H532 H 0.93726 0.08106 0.51812 0.0
H533 H 0.08021 0.12257 0.48469 0.0
C534 C 0.0741 0.08197 0.42717 0.0
C535 C 0.0454 0.05826 0.39917 0.0
C536 C 0.95265 0.11276 0.52527 0.0
C537 C 0.01373 0.09762 0.47449 0.0
C538 C 0.92918 0.14359 0.54759 0.0
C539 C 0.94689 0.18611 0.55351 0.0
C540 C 0.99402 0.12454 0.50882 0.0
C541 C 0.9904 0.19497 0.54125 0.0
C542 C 0.05825 0.10227 0.46462 0.0
C543 C 0.00157 0.05301 0.41101 0.0
N544 N 0.01222 0.16473 0.51855 0.0
N545 N 0.98703 0.07265 0.44774 0.0
H546 H 0.33138 0.80405 0.5731 0.0
H547 H 0.19879 0.65062 0.73612 0.0
H548 H 0.19625 0.816 0.60569 0.0
H549 H 0.27484 0.59426 0.63404 0.0
H550 H 0.22113 0.72281 0.7104 0.0
H551 H 0.33076 0.73686 0.61482 0.0
C552 C 0.30183 0.79289 0.58943 0.0
C553 C 0.26374 0.81554 0.58593 0.0
C554 C 0.23417 0.69466 0.69468 0.0
C555 C 0.26337 0.74018 0.63436 0.0
C556 C 0.22203 0.65355 0.70974 0.0
C557 C 0.23516 0.61658 0.68723 0.0
C558 C 0.26 0.69872 0.65727 0.0
C559 C 0.26435 0.62213 0.65239 0.0
C560 C 0.30158 0.75474 0.61312 0.0
C561 C 0.22627 0.79952 0.60738 0.0
N562 N 0.27539 0.66254 0.63798 0.0
N563 N 0.22708 0.76294 0.63075 0.0
H564 H 0.57163 0.99227 0.79465 0.0
H565 H 0.60006 0.86776 0.0055 0.0
H566 H 0.4588 0.95728 0.87205 0.0
H567 H 0.69879 0.95834 0.9575 0.0
H568 H 0.54543 0.90384 0.9639 0.0
H569 H 0.61779 0.98138 0.857 0.0
C570 C 0.55663 0.98207 0.82485 0.0
C571 C 0.5115 0.9749 0.82811 0.0
C572 C 0.57874 0.91696 0.96388 0.0
C573 C 0.56411 0.96252 0.89982 0.0
C574 C 0.60977 0.89674 0.98809 0.0
C575 C 0.65381 0.91017 0.98462 0.0
C576 C 0.59238 0.95001 0.93563 0.0
C577 C 0.66505 0.94719 0.96091 0.0
C578 C 0.58291 0.97646 0.86064 0.0
C579 C 0.49359 0.96272 0.86826 0.0
N580 N 0.63472 0.96513 0.9363 0.0
N581 N 0.52007 0.95605 0.90248 0.0
H582 H 0.29185 0.2092 0.11317 0.0
H583 H 0.21169 0.39607 0.22265 0.0
H584 H 0.1548 0.17648 0.1295 0.0
H585 H 0.27011 0.30691 0.30708 0.0
H586 H 0.18766 0.33468 0.17454 0.0
H587 H 0.28646 0.26721 0.16791 0.0
C588 C 0.2606 0.21429 0.12808 0.0
C589 C 0.22375 0.18793 0.1169 0.0
C590 C 0.20382 0.32859 0.20477 0.0
C591 C 0.21778 0.25378 0.17949 0.0
C592 C 0.21725 0.36339 0.23227 0.0
C593 C 0.24273 0.35623 0.26875 0.0
C594 C 0.21627 0.28695 0.21415 0.0
C595 C 0.25024 0.31351 0.27935 0.0
C596 C 0.25764 0.24727 0.15919 0.0
C597 C 0.18399 0.19612 0.13737 0.0
N598 N 0.23805 0.28048 0.2515 0.0
N599 N 0.18196 0.22845 0.16808 0.0
H600 H 0.01764 0.99151 0.21412 0.0
H601 H 0.79532 0.84863 0.23203 0.0
H602 H 0.98982 0.90314 0.31803 0.0
H603 H 0.84311 0.90654 0.11399 0.0
H604 H 0.85702 0.88353 0.27134 0.0
H605 H 0.94544 0.97446 0.18483 0.0
C606 C 0.99625 0.96855 0.231 0.0
C607 C 0.01012 0.94808 0.2683 0.0
C608 C 0.85347 0.88927 0.23702 0.0
C609 C 0.92694 0.9286 0.23471 0.0
C610 C 0.81808 0.86969 0.2146 0.0
C611 C 0.81421 0.87403 0.16943 0.0
C612 C 0.88509 0.91384 0.2142 0.0
C613 C 0.84451 0.90209 0.14867 0.0
C614 C 0.95494 0.95891 0.21416 0.0
C615 C 0.98072 0.91899 0.28884 0.0
N616 N 0.879 0.9204 0.1711 0.0
N617 N 0.94049 0.90984 0.27159 0.0
H618 H 0.19299 0.80837 0.43513 0.0
H619 H 0.26126 0.60551 0.29476 0.0
H620 H 0.32129 0.78444 0.38726 0.0
H621 H 0.15887 0.60087 0.39019 0.0
H622 H 0.2624 0.68433 0.29806 0.0
H623 H 0.1637 0.74611 0.39129 0.0
C624 C 0.21475 0.79096 0.41425 0.0
C625 C 0.25974 0.80087 0.41539 0.0
C626 C 0.23823 0.6661 0.31678 0.0
C627 C 0.22643 0.73074 0.36465 0.0
C628 C 0.23693 0.62095 0.31428 0.0
C629 C 0.21108 0.59678 0.34353 0.0
C630 C 0.21294 0.68673 0.34817 0.0
C631 C 0.18008 0.61855 0.36794 0.0
C632 C 0.19801 0.75554 0.38927 0.0
C633 C 0.28651 0.7773 0.38786 0.0
N634 N 0.18304 0.66254 0.37115 0.0
N635 N 0.26952 0.74309 0.36393 0.0
H636 H 0.50636 0.05362 0.64715 0.0
H637 H 0.74877 0.13325 0.71153 0.0
H638 H 0.548 0.09148 0.77673 0.0
H639 H 0.69308 0.16038 0.58822 0.0
H640 H 0.68247 0.09013 0.73027 0.0
H641 H 0.58101 0.0687 0.62104 0.0
C642 C 0.5313 0.06485 0.6701 0.0
C643 C 0.52101 0.07218 0.71397 0.0
C644 C 0.68538 0.10416 0.69845 0.0
C645 C 0.60618 0.08792 0.68469 0.0
C646 C 0.72337 0.12804 0.6876 0.0
C647 C 0.72605 0.15031 0.6486 0.0
C648 C 0.65013 0.10227 0.66966 0.0
C649 C 0.69221 0.14338 0.61854 0.0
C650 C 0.57374 0.07322 0.65522 0.0
C651 C 0.55446 0.0863 0.74249 0.0
N652 N 0.6551 0.12057 0.63002 0.0
N653 N 0.59559 0.09373 0.72734 0.0
H654 H 0.27657 0.21937 0.95918 0.0
H655 H 0.25302 0.42385 0.87573 0.0
H656 H 0.1436 0.20452 0.91599 0.0
H657 H 0.16848 0.35886 0.78103 0.0
H658 H 0.26726 0.35358 0.90631 0.0
H659 H 0.28889 0.27981 0.90915 0.0
C660 C 0.25033 0.22825 0.93847 0.0
C661 C 0.20881 0.20766 0.94214 0.0
C662 C 0.24708 0.35445 0.8777 0.0
C663 C 0.22252 0.27616 0.88535 0.0
C664 C 0.23923 0.39452 0.86009 0.0
C665 C 0.21018 0.39688 0.82541 0.0
C666 C 0.22497 0.31678 0.8609 0.0
C667 C 0.19175 0.3582 0.80723 0.0
C668 C 0.25726 0.26285 0.91029 0.0
C669 C 0.17586 0.22019 0.91464 0.0
N670 N 0.19854 0.31985 0.82595 0.0
N671 N 0.18337 0.25374 0.88754 0.0
H672 H 0.36284 0.049 0.01479 0.0
H673 H 0.39788 0.81879 0.1168 0.0
H674 H 0.26207 0.96955 0.07597 0.0
H675 H 0.49325 0.92485 0.13392 0.0
H676 H 0.35394 0.86494 0.07319 0.0
H677 H 0.41578 0.99525 0.03301 0.0
C678 C 0.35177 0.01987 0.03127 0.0
C679 C 0.30818 0.01365 0.04421 0.0
C680 C 0.38517 0.87766 0.08525 0.0
C681 C 0.36787 0.95213 0.06391 0.0
C682 C 0.4105 0.85123 0.10956 0.0
C683 C 0.44928 0.86808 0.1286 0.0
C684 C 0.39883 0.9212 0.07982 0.0
C685 C 0.46376 0.91064 0.11926 0.0
C686 C 0.38191 0.98945 0.0417 0.0
C687 C 0.29545 0.97565 0.06575 0.0
N688 N 0.43818 0.9361 0.09592 0.0
N689 N 0.32512 0.94627 0.07483 0.0
H690 H 0.86571 0.51891 0.98219 0.0
H691 H 0.99082 0.5519 0.76612 0.0
H692 H 0.92408 0.4098 0.92019 0.0
H693 H 0.99208 0.65114 0.86689 0.0
H694 H 0.96979 0.49771 0.8203 0.0
H695 H 0.91132 0.56768 0.93783 0.0
C696 C 0.88809 0.50529 0.95908 0.0
C697 C 0.89101 0.46041 0.95452 0.0
C698 C 0.97601 0.53114 0.8307 0.0
C699 C 0.94305 0.51583 0.90357 0.0
C700 C 0.98826 0.56196 0.79992 0.0
C701 C 0.99278 0.60601 0.81211 0.0
C702 C 0.96717 0.54486 0.87341 0.0
C703 C 0.98892 0.61751 0.85619 0.0
C704 C 0.91446 0.53307 0.93418 0.0
C705 C 0.92089 0.44432 0.92451 0.0
N706 N 0.97514 0.58728 0.88508 0.0
N707 N 0.94524 0.47205 0.89946 0.0
H708 H 0.79592 0.59075 0.24253 0.0
H709 H 0.68765 0.78237 0.26587 0.0
H710 H 0.82414 0.62895 0.37557 0.0
H711 H 0.60014 0.67381 0.29565 0.0
H712 H 0.74786 0.74378 0.29571 0.0
H713 H 0.73231 0.63499 0.24512 0.0
C714 C 0.78898 0.60873 0.27213 0.0
C715 C 0.81564 0.60671 0.30869 0.0
C716 C 0.71503 0.72953 0.29789 0.0
C717 C 0.74369 0.65767 0.31134 0.0
C718 C 0.68058 0.75175 0.28146 0.0
C719 C 0.63883 0.7313 0.2786 0.0
C720 C 0.70744 0.68667 0.31094 0.0
C721 C 0.63176 0.6908 0.29777 0.0
C722 C 0.75267 0.63361 0.2736 0.0
C723 C 0.80454 0.63002 0.34657 0.0
N724 N 0.66606 0.66897 0.31155 0.0
N725 N 0.76955 0.65521 0.34678 0.0
H726 H 0.61898 0.6171 0.45732 0.0
H727 H 0.57647 0.3657 0.39709 0.0
H728 H 0.71496 0.52228 0.47312 0.0
H729 H 0.50927 0.46559 0.33475 0.0
H730 H 0.61575 0.42133 0.4421 0.0
H731 H 0.56906 0.56051 0.42624 0.0
C732 C 0.62959 0.58436 0.4542 0.0
C733 C 0.67135 0.57442 0.46758 0.0
C734 C 0.59155 0.43096 0.41939 0.0
C735 C 0.61389 0.50942 0.433 0.0
C736 C 0.56852 0.39923 0.3944 0.0
C737 C 0.53935 0.41123 0.36264 0.0
C738 C 0.58501 0.47485 0.41267 0.0
C739 C 0.53114 0.45517 0.35937 0.0
C740 C 0.60101 0.55212 0.43659 0.0
C741 C 0.68329 0.53144 0.46276 0.0
N742 N 0.55421 0.48552 0.38377 0.0
N743 N 0.6546 0.50044 0.44604 0.0
H744 H 0.20664 0.88304 0.24814 0.0
H745 H 0.38453 0.7659 0.25727 0.0
H746 H 0.23562 0.92933 0.37862 0.0
H747 H 0.43731 0.89092 0.30175 0.0
H748 H 0.31372 0.78347 0.2875 0.0
H749 H 0.27307 0.84376 0.24787 0.0
C750 C 0.2262 0.88388 0.27725 0.0
C751 C 0.21485 0.90871 0.31378 0.0
C752 C 0.34124 0.80634 0.29184 0.0
C753 C 0.2919 0.86486 0.31307 0.0
C754 C 0.3818 0.79603 0.27551 0.0
C755 C 0.41665 0.82709 0.27704 0.0
C756 C 0.33569 0.84791 0.30954 0.0
C757 C 0.41111 0.86613 0.30014 0.0
C758 C 0.26414 0.86141 0.27705 0.0
C759 C 0.24286 0.9102 0.34988 0.0
N760 N 0.371 0.87594 0.31469 0.0
N761 N 0.28073 0.88938 0.34825 0.0
H762 H 0.25251 0.04175 0.56717 0.0
H763 H 0.03435 0.13219 0.62653 0.0
H764 H 0.13907 0.98262 0.50342 0.0
H765 H 0.14569 0.21865 0.60301 0.0
H766 H 0.06751 0.07626 0.58121 0.0
H767 H 0.21196 0.10598 0.58382 0.0
C768 C 0.21905 0.04241 0.55664 0.0
C769 C 0.19892 0.00689 0.53425 0.0
C770 C 0.0839 0.10803 0.5847 0.0
C771 C 0.1523 0.07984 0.55351 0.0
C772 C 0.06481 0.13998 0.61009 0.0
C773 C 0.08736 0.17996 0.61802 0.0
C774 C 0.12626 0.11599 0.56874 0.0
C775 C 0.12721 0.18833 0.59701 0.0
C776 C 0.1961 0.07915 0.56571 0.0
C777 C 0.15561 0.00946 0.52088 0.0
N778 N 0.14605 0.15617 0.57433 0.0
N779 N 0.1333 0.04505 0.53153 0.0
H780 H 0.78342 0.49644 0.25715 0.0
H781 H 0.62026 0.29866 0.24817 0.0
H782 H 0.82862 0.3671 0.24462 0.0
H783 H 0.58705 0.42356 0.20339 0.0
H784 H 0.69667 0.31967 0.23859 0.0
H785 H 0.71158 0.46909 0.23299 0.0
C786 C 0.77803 0.46216 0.24955 0.0
C787 C 0.81159 0.43377 0.2536 0.0
C788 C 0.67274 0.34179 0.22889 0.0
C789 C 0.72962 0.40231 0.22576 0.0
C790 C 0.62888 0.32962 0.23386 0.0
C791 C 0.59743 0.36 0.22779 0.0
C792 C 0.68489 0.38439 0.21754 0.0
C793 C 0.61057 0.39965 0.20937 0.0
C794 C 0.73725 0.44669 0.2351 0.0
C795 C 0.80333 0.3899 0.24235 0.0
N796 N 0.65355 0.41137 0.20628 0.0
N797 N 0.76279 0.3753 0.22979 0.0
H798 H 0.69567 0.57147 0.63139 0.0
H799 H 0.87293 0.71891 0.76369 0.0
H800 H 0.67557 0.6177 0.76259 0.0
H801 H 0.90435 0.62511 0.6644 0.0
H802 H 0.7953 0.70137 0.75059 0.0
H803 H 0.76753 0.60898 0.63169 0.0
C804 C 0.70572 0.59119 0.65952 0.0
C805 C 0.67997 0.59182 0.69697 0.0
C806 C 0.81925 0.68533 0.73112 0.0
C807 C 0.76116 0.63593 0.69688 0.0
C808 C 0.86335 0.69575 0.73807 0.0
C809 C 0.89473 0.67347 0.71484 0.0
C810 C 0.80676 0.65286 0.70035 0.0
C811 C 0.88095 0.6431 0.68265 0.0
C812 C 0.74667 0.61255 0.65965 0.0
C813 C 0.69472 0.61674 0.73309 0.0
N814 N 0.83787 0.63344 0.67651 0.0
N815 N 0.73453 0.63796 0.73219 0.0
H816 H 0.51616 0.89491 0.57023 0.0
H817 H 0.59625 0.88221 0.32385 0.0
H818 H 0.56138 0.7814 0.50402 0.0
H819 H 0.60888 -0.00028 0.40178 0.0
H820 H 0.55443 0.8474 0.38221 0.0
H821 H 0.52436 0.93475 0.50211 0.0
C822 C 0.52702 0.87821 0.5412 0.0
C823 C 0.53877 0.83505 0.54274 0.0
C824 C 0.56515 0.88122 0.38606 0.0
C825 C 0.54726 0.87985 0.46516 0.0
C826 C 0.5885 0.9012 0.35259 0.0
C827 C 0.60613 0.9437 0.35832 0.0
C828 C 0.55972 0.90382 0.42559 0.0
C829 C 0.59567 0.96688 0.39626 0.0
C830 C 0.53169 0.90091 0.50251 0.0
C831 C 0.55262 0.81484 0.50435 0.0
N832 N 0.57386 0.94633 0.42904 0.0
N833 N 0.55663 0.83743 0.46722 0.0
H834 H 0.40409 0.42859 0.85891 0.0
H835 H 0.27997 0.24437 0.72236 0.0
H836 H 0.39929 0.29429 0.89409 0.0
H837 H 0.2599 0.37924 0.70509 0.0
H838 H 0.31277 0.26196 0.79317 0.0
H839 H 0.34311 0.41262 0.80961 0.0
C840 C 0.38993 0.3959 0.85669 0.0
C841 C 0.40756 0.36268 0.88003 0.0
C842 C 0.30002 0.28772 0.77469 0.0
C843 C 0.33799 0.34388 0.82325 0.0
C844 C 0.28044 0.27743 0.73477 0.0
C845 C 0.26643 0.31022 0.70861 0.0
C846 C 0.30726 0.3314 0.78754 0.0
C847 C 0.26959 0.35298 0.72487 0.0
C848 C 0.35499 0.38676 0.82858 0.0
C849 C 0.38729 0.32093 0.87635 0.0
N850 N 0.2908 0.36255 0.76282 0.0
N851 N 0.35417 0.31259 0.84789 0.0
H852 H 0.96977 0.14964 0.07578 0.0
H853 H 0.88812 0.20615 0.83923 0.0
H854 H 0.9469 0.27939 0.03599 0.0
H855 H 0.90018 0.07599 0.88283 0.0
H856 H 0.92153 0.23419 0.90685 0.0
H857 H 0.95313 0.12285 0.00244 0.0
C858 C 0.961 0.17255 0.05173 0.0
C859 C 0.95937 0.21688 0.06234 0.0
C860 C 0.91768 0.19949 0.90132 0.0
C861 C 0.94079 0.18624 0.97779 0.0
C862 C 0.89907 0.18349 0.86256 0.0
C863 C 0.89108 0.13871 0.8557 0.0
C864 C 0.92824 0.17047 0.93347 0.0
C865 C 0.90588 0.11071 0.88681 0.0
C866 C 0.95175 0.15718 0.0097 0.0
C867 C 0.9481 0.24491 0.02953 0.0
N868 N 0.9231 0.12707 0.92472 0.0
N869 N 0.93918 0.22909 0.98876 0.0
H870 H 0.08791 0.82894 0.29338 0.0
H871 H 0.22579 0.76166 0.11808 0.0
H872 H 0.118 0.69762 0.31978 0.0
H873 H 0.30083 0.7206 0.22555 0.0
H874 H 0.17406 0.79194 0.16938 0.0
H875 H 0.14858 0.8333 0.24126 0.0
C876 C 0.10756 0.80125 0.28848 0.0
C877 C 0.09837 0.76287 0.31104 0.0
C878 C 0.20302 0.77821 0.18169 0.0
C879 C 0.16914 0.76914 0.25473 0.0
C880 C 0.23308 0.76165 0.15245 0.0
C881 C 0.26665 0.7372 0.1678 0.0
C882 C 0.20719 0.76988 0.22594 0.0
C883 C 0.27467 0.73834 0.21257 0.0
C884 C 0.14235 0.80408 0.25931 0.0
C885 C 0.12422 0.72778 0.30319 0.0
N886 N 0.24363 0.75195 0.24023 0.0
N887 N 0.15898 0.73204 0.27624 0.0
H888 H 0.61081 0.22152 0.98447 0.0
H889 H 0.57366 0.09405 0.19432 0.0
H890 H 0.48251 0.2083 0.04058 0.0
H891 H 0.67435 0.06497 0.10265 0.0
H892 H 0.53423 0.12815 0.13646 0.0
H893 H 0.6317 0.15938 0.02516 0.0
C894 C 0.58695 0.20522 0.00521 0.0
C895 C 0.54511 0.22021 0.00972 0.0
C896 C 0.5641 0.1128 0.12857 0.0
C897 C 0.56881 0.14934 0.05677 0.0
C898 C 0.5863 0.09295 0.16148 0.0
C899 C 0.62726 0.07709 0.15301 0.0
C900 C 0.5837 0.11732 0.08755 0.0
C901 C 0.64283 0.07707 0.11025 0.0
C902 C 0.59871 0.16949 0.02813 0.0
C903 C 0.5152 0.1977 0.03652 0.0
N904 N 0.62158 0.09798 0.07929 0.0
N905 N 0.52791 0.16383 0.05988 0.0
H906 H 0.11264 0.35492 0.25307 0.0
H907 H 0.21471 0.29862 0.43811 0.0
H908 H 0.06931 0.22043 0.23736 0.0
H909 H 0.10132 0.21144 0.4482 0.0
H910 H 0.20306 0.30157 0.35985 0.0
H911 H 0.14943 0.33766 0.3201 0.0
C912 C 0.11135 0.32166 0.26344 0.0
C913 C 0.08762 0.28915 0.23981 0.0
C914 C 0.18147 0.28083 0.37896 0.0
C915 C 0.12966 0.26907 0.3164 0.0
C916 C 0.18853 0.2785 0.42352 0.0
C917 C 0.15871 0.25499 0.44957 0.0
C918 C 0.14454 0.25922 0.36046 0.0
C919 C 0.1249 0.23006 0.42911 0.0
C920 C 0.13275 0.31171 0.30146 0.0
C921 C 0.0871 0.24654 0.2547 0.0
N922 N 0.11832 0.2333 0.3857 0.0
N923 N 0.10699 0.23787 0.29261 0.0
H924 H 0.9911 0.82791 0.51706 0.0
H925 H 0.87049 0.02692 0.60578 0.0
H926 H 0.96411 0.9316 0.43155 0.0
H927 H 0.95407 0.95527 0.68563 0.0
H928 H 0.90571 0.99717 0.54082 0.0
H929 H 0.97533 0.87499 0.57923 0.0
C930 C 0.98157 0.86048 0.51136 0.0
C931 C 0.9786 0.87571 0.46907 0.0
C932 C 0.91735 0.98916 0.57259 0.0
C933 C 0.96085 0.92996 0.54012 0.0
C934 C 0.89773 0.00665 0.60959 0.0
C935 C 0.90951 0.99336 0.65087 0.0
C936 C 0.948 0.9576 0.57738 0.0
C937 C 0.94427 0.96627 0.65422 0.0
C938 C 0.97316 0.88757 0.54686 0.0
C939 C 0.96667 0.91851 0.46366 0.0
N940 N 0.96152 0.94831 0.61793 0.0
N941 N 0.95771 0.94404 0.49878 0.0
H942 H 0.43102 0.79483 0.73682 0.0
H943 H 0.3943 0.75204 0.98747 0.0
H944 H 0.53095 0.77068 0.82936 0.0
H945 H 0.30072 0.71764 0.8873 0.0
H946 H 0.43762 0.79427 0.93494 0.0
H947 H 0.37891 0.80072 0.79684 0.0
C948 C 0.44234 0.79232 0.76986 0.0
C949 C 0.48504 0.78135 0.77825 0.0
C950 C 0.40668 0.77899 0.92492 0.0
C951 C 0.42598 0.78837 0.84663 0.0
C952 C 0.38172 0.75536 0.95499 0.0
C953 C 0.34426 0.73111 0.94138 0.0
C954 C 0.39383 0.77824 0.8812 0.0
C955 C 0.3296 0.73584 0.89882 0.0
C956 C 0.41259 0.79555 0.804 0.0
C957 C 0.49806 0.77835 0.82157 0.0
N958 N 0.35494 0.75812 0.86987 0.0
N959 N 0.46849 0.78123 0.85414 0.0
H960 H 0.54672 0.49495 0.84613 0.0
H961 H 0.30783 0.56399 0.90419 0.0
H962 H 0.44211 0.50237 0.75423 0.0
H963 H 0.41558 0.58046 0.99269 0.0
H964 H 0.35186 0.52013 0.85593 0.0
H965 H 0.49532 0.50764 0.90535 0.0
C966 C 0.51291 0.4987 0.83838 0.0
C967 C 0.49892 0.49854 0.79502 0.0
C968 C 0.36562 0.53231 0.88643 0.0
C969 C 0.44004 0.51278 0.86261 0.0
C970 C 0.34025 0.55675 0.91421 0.0
C971 C 0.35826 0.57564 0.95229 0.0
C972 C 0.40953 0.52764 0.89647 0.0
C973 C 0.4006 0.56609 0.96365 0.0
C974 C 0.48363 0.506 0.87222 0.0
C975 C 0.45461 0.50312 0.78704 0.0
N976 N 0.42525 0.54348 0.93534 0.0
N977 N 0.42693 0.51046 0.82042 0.0
H978 H 0.85123 0.33091 0.11504 0.0
H979 H 0.70835 0.18209 0.27377 0.0
H980 H 0.7132 0.33813 0.13555 0.0
H981 H 0.79677 0.12603 0.18273 0.0
H982 H 0.73379 0.25435 0.25069 0.0
H983 H 0.85086 0.26922 0.16408 0.0
C984 C 0.82101 0.31999 0.1303 0.0
C985 C 0.78207 0.33964 0.12123 0.0
C986 C 0.74889 0.22627 0.23712 0.0
C987 C 0.78195 0.27044 0.17785 0.0
C988 C 0.73498 0.18514 0.2508 0.0
C989 C 0.75054 0.1483 0.23 0.0
C990 C 0.77857 0.23027 0.20266 0.0
C991 C 0.78426 0.15385 0.19959 0.0
C992 C 0.82098 0.28503 0.15828 0.0
C993 C 0.74391 0.32406 0.14168 0.0
N994 N 0.79658 0.19422 0.18601 0.0
N995 N 0.74481 0.29034 0.16896 0.0
H996 H 0.05192 0.47563 0.37226 0.0
H997 H 0.13953 0.40396 0.55298 0.0
H998 H 0.92466 0.44883 0.42696 0.0
H999 H 0.03099 0.31069 0.53874 0.0
H1000 H 0.09701 0.45771 0.51816 0.0
H1001 H 0.08446 0.45292 0.43959 0.0
C1002 C 0.03092 0.46559 0.39887 0.0
C1003 C 0.98572 0.46359 0.39416 0.0
C1004 C 0.08209 0.42586 0.524 0.0
C1005 C 0.02249 0.43737 0.47106 0.0
C1006 C 0.10602 0.39532 0.54456 0.0
C1007 C 0.08922 0.35235 0.54735 0.0
C1008 C 0.04135 0.41309 0.50633 0.0
C1009 C 0.04553 0.34319 0.53599 0.0
C1010 C 0.04941 0.45321 0.43748 0.0
C1011 C 0.95975 0.45066 0.42952 0.0
N1012 N 0.0235 0.37294 0.51459 0.0
N1013 N 0.97855 0.43657 0.46611 0.0
H1014 H 0.72081 0.71683 0.61458 0.0
H1015 H 0.85935 0.88364 0.7664 0.0
H1016 H 0.86073 0.72308 0.62403 0.0
H1017 H 0.74506 0.91929 0.69898 0.0
H1018 H 0.84596 0.80877 0.74004 0.0
H1019 H 0.71876 0.77745 0.6667 0.0
C1020 C 0.75107 0.73056 0.62803 0.0
C1021 C 0.79113 0.71525 0.61455 0.0
C1022 C 0.8229 0.83267 0.73245 0.0
C1023 C 0.78844 0.78302 0.67589 0.0
C1024 C 0.82995 0.87511 0.74822 0.0
C1025 C 0.80336 0.90753 0.73452 0.0
C1026 C 0.7888 0.82283 0.70328 0.0
C1027 C 0.76618 0.8951 0.71027 0.0
C1028 C 0.74969 0.7648 0.65815 0.0
C1029 C 0.82921 0.73418 0.63321 0.0
N1030 N 0.76053 0.85377 0.69438 0.0
N1031 N 0.82693 0.76713 0.66302 0.0
H1032 H 0.53486 0.46016 0.61633 0.0
H1033 H 0.37814 0.24821 0.6008 0.0
H1034 H 0.55041 0.34374 0.68773 0.0
H1035 H 0.34435 0.37285 0.55638 0.0
H1036 H 0.45372 0.27558 0.60822 0.0
H1037 H 0.47692 0.42228 0.5739 0.0
C1038 C 0.52637 0.42648 0.6228 0.0
C1039 C 0.54682 0.40525 0.6562 0.0
C1040 C 0.43014 0.29654 0.59534 0.0
C1041 C 0.48102 0.36167 0.60738 0.0
C1042 C 0.38719 0.28066 0.59032 0.0
C1043 C 0.35512 0.30856 0.57846 0.0
C1044 C 0.44076 0.3406 0.58864 0.0
C1045 C 0.36824 0.35045 0.56573 0.0
C1046 C 0.49346 0.40486 0.59841 0.0
C1047 C 0.53495 0.36151 0.66278 0.0
N1048 N 0.40997 0.36569 0.57233 0.0
N1049 N 0.50251 0.34127 0.63889 0.0
H1050 H 0.7322 0.34289 0.91392 0.0
H1051 H 0.7213 0.09363 0.85774 0.0
H1052 H 0.75136 0.23917 0.00171 0.0
H1053 H 0.75157 0.19409 0.76663 0.0
H1054 H 0.69085 0.1471 0.90699 0.0
H1055 H 0.70294 0.28939 0.85993 0.0
C1056 C 0.72903 0.30906 0.92233 0.0
C1057 C 0.74532 0.29516 0.96183 0.0
C1058 C 0.70215 0.15713 0.87526 0.0
C1059 C 0.71097 0.23441 0.90077 0.0
C1060 C 0.71871 0.12637 0.84668 0.0
C1061 C 0.74051 0.13991 0.80895 0.0
C1062 C 0.70716 0.20122 0.86533 0.0
C1063 C 0.73591 0.18261 0.796 0.0
C1064 C 0.71214 0.2787 0.89159 0.0
C1065 C 0.7402 0.25104 0.97116 0.0
N1066 N 0.72141 0.21233 0.825 0.0
N1067 N 0.72401 0.22217 0.94064 0.0
H1068 H 0.04395 0.58466 0.30563 0.0
H1069 H 0.17597 0.58481 0.09102 0.0
H1070 H 0.99499 0.51022 0.19425 0.0
H1071 H 0.2413 0.58511 0.21456 0.0
H1072 H 0.10941 0.55612 0.12603 0.0
H1073 H 0.11643 0.58849 0.27182 0.0
C1074 C 0.04847 0.56921 0.27413 0.0
C1075 C 0.0135 0.54743 0.2525 0.0
C1076 C 0.13868 0.56137 0.14523 0.0
C1077 C 0.09571 0.55166 0.21381 0.0
C1078 C 0.17687 0.57712 0.12511 0.0
C1079 C 0.21397 0.58812 0.15009 0.0
C1080 C 0.13761 0.55755 0.19058 0.0
C1081 C 0.21305 0.57782 0.19434 0.0
C1082 C 0.0898 0.57096 0.25509 0.0
C1083 C 0.02113 0.5275 0.21193 0.0
N1084 N 0.17507 0.56452 0.21353 0.0
N1085 N 0.06125 0.53063 0.19357 0.0
H1086 H 0.8046 0.71491 0.4015 0.0
H1087 H 0.78959 0.96653 0.36767 0.0
H1088 H 0.79468 0.81284 0.50235 0.0
H1089 H 0.73324 0.86641 0.28255 0.0
H1090 H 0.83013 0.91194 0.40429 0.0
H1091 H 0.81519 0.77216 0.34798 0.0
C1092 C 0.8059 0.74841 0.41246 0.0
C1093 C 0.79714 0.75937 0.45591 0.0
C1094 C 0.81051 0.90231 0.37622 0.0
C1095 C 0.81101 0.8245 0.39571 0.0
C1096 C 0.78778 0.93345 0.35512 0.0
C1097 C 0.75812 0.9206 0.32236 0.0
C1098 C 0.80309 0.85839 0.36434 0.0
C1099 C 0.75599 0.87732 0.30775 0.0
C1100 C 0.81227 0.78095 0.38207 0.0
C1101 C 0.80005 0.80318 0.46883 0.0
N1102 N 0.77748 0.84745 0.32944 0.0
N1103 N 0.80619 0.83422 0.43874 0.0
H1104 H 0.91701 0.57828 0.50522 0.0
H1105 H 0.94321 0.34392 0.60063 0.0
H1106 H 0.81078 0.49547 0.55211 0.0
H1107 H 0.03293 0.45158 0.63282 0.0
H1108 H 0.9039 0.39074 0.55329 0.0
H1109 H 0.96784 0.52313 0.5246 0.0
C1110 C 0.90434 0.548 0.51848 0.0
C1111 C 0.85981 0.54125 0.52741 0.0
C1112 C 0.93317 0.40361 0.56943 0.0
C1113 C 0.91716 0.47837 0.54849 0.0
C1114 C 0.95584 0.37689 0.59596 0.0
C1115 C 0.99137 0.39407 0.62025 0.0
C1116 C 0.94651 0.44754 0.5669 0.0
C1117 C 0.0059 0.43725 0.61414 0.0
C1118 C 0.93328 0.51683 0.52962 0.0
C1119 C 0.84494 0.50186 0.54503 0.0
N1120 N 0.98305 0.46283 0.5883 0.0
N1121 N 0.87359 0.47183 0.55502 0.0
H1122 H 0.31815 0.0289 0.47752 0.0
H1123 H 0.51377 0.12658 0.34326 0.0
H1124 H 0.43416 0.95866 0.45798 0.0
H1125 H 0.42279 0.20626 0.40907 0.0
H1126 H 0.49011 0.06596 0.389 0.0
H1127 H 0.35783 0.09474 0.45411 0.0
C1128 C 0.35197 0.0273 0.46821 0.0
C1129 C 0.3727 0.98808 0.46918 0.0
C1130 C 0.47638 0.09711 0.39457 0.0
C1131 C 0.41845 0.06353 0.44253 0.0
C1132 C 0.49036 0.13182 0.36891 0.0
C1133 C 0.47044 0.1714 0.3729 0.0
C1134 C 0.44146 0.10192 0.42338 0.0
C1135 C 0.43927 0.17634 0.40556 0.0
C1136 C 0.37477 0.06504 0.45534 0.0
C1137 C 0.41682 0.98815 0.45745 0.0
N1138 N 0.42492 0.14165 0.42887 0.0
N1139 N 0.43808 0.02518 0.44401 0.0
H1140 H 0.30127 0.07746 0.8437 0.0
H1141 H 0.10234 0.15418 0.78746 0.0
H1142 H 0.33895 0.15643 0.73492 0.0
H1143 H 0.17527 0.26951 0.74858 0.0
H1144 H 0.16888 0.12663 0.81686 0.0
H1145 H 0.23645 0.11973 0.85385 0.0
C1146 C 0.29621 0.10403 0.82236 0.0
C1147 C 0.32497 0.11297 0.78781 0.0
C1148 C 0.17004 0.15891 0.80397 0.0
C1149 C 0.25146 0.16113 0.7993 0.0
C1150 C 0.13198 0.1747 0.78737 0.0
C1151 C 0.1335 0.21422 0.76586 0.0
C1152 C 0.20977 0.18249 0.79781 0.0
C1153 C 0.17275 0.23913 0.76542 0.0
C1154 C 0.25921 0.12792 0.82809 0.0
C1155 C 0.31718 0.14789 0.76139 0.0
N1156 N 0.20959 0.22225 0.77993 0.0
N1157 N 0.28107 0.17046 0.76756 0.0
H1158 H 0.0608 0.04785 0.97439 0.0
H1159 H 0.08289 0.80609 0.88399 0.0
H1160 H 0.17666 0.97673 0.98638 0.0
H1161 H 0.00253 0.89666 0.82321 0.0
H1162 H 0.10139 0.86056 0.94112 0.0
H1163 H 0.02518 0.98505 0.93659 0.0
C1164 C 0.07859 0.01887 0.9695 0.0
C1165 C 0.12196 0.01762 0.98305 0.0
C1166 C 0.07864 0.86799 0.91602 0.0
C1167 C 0.08108 0.94572 0.94075 0.0
C1168 C 0.06762 0.83681 0.88391 0.0
C1169 C 0.04094 0.84708 0.84939 0.0
C1170 C 0.06266 0.90946 0.9134 0.0
C1171 C 0.02282 0.88763 0.84976 0.0
C1172 C 0.0582 0.98316 0.948 0.0
C1173 C 0.14342 0.97926 0.9759 0.0
N1174 N 0.0344 0.91767 0.8811 0.0
N1175 N 0.12275 0.94479 0.95515 0.0
H1176 H 0.7447 0.414 0.68921 0.0
H1177 H 0.96 0.4245 0.78658 0.0
H1178 H 0.73209 0.44918 0.82498 0.0
H1179 H 0.90765 0.2989 0.74329 0.0
H1180 H 0.88594 0.44543 0.80384 0.0
H1181 H 0.81518 0.38569 0.70427 0.0
C1182 C 0.75679 0.41599 0.7222 0.0
C1183 C 0.73223 0.43353 0.75601 0.0
C1184 C 0.89102 0.41263 0.79259 0.0
C1185 C 0.8129 0.40116 0.77318 0.0
C1186 C 0.93316 0.40058 0.7831 0.0
C1187 C 0.93972 0.36011 0.76313 0.0
C1188 C 0.85574 0.38422 0.781 0.0
C1189 C 0.90394 0.33039 0.75859 0.0
C1190 C 0.79682 0.39957 0.73072 0.0
C1191 C 0.74985 0.43537 0.79814 0.0
N1192 N 0.86322 0.34364 0.76573 0.0
N1193 N 0.78952 0.41951 0.80566 0.0
H1194 H 0.78139 0.55787 0.07947 0.0
H1195 H 0.55699 0.65309 0.12287 0.0
H1196 H 0.66739 0.50081 0.01495 0.0
H1197 H 0.67462 0.73441 0.12161 0.0
H1198 H 0.59403 0.5975 0.08066 0.0
H1199 H 0.74195 0.62304 0.09557 0.0
C1200 C 0.74819 0.55924 0.0684 0.0
C1201 C 0.72757 0.52391 0.04601 0.0
C1202 C 0.61133 0.62814 0.08833 0.0
C1203 C 0.68206 0.59795 0.06477 0.0
C1204 C 0.59 0.66002 0.11187 0.0
C1205 C 0.61302 0.69828 0.12544 0.0
C1206 C 0.65601 0.63449 0.07945 0.0
C1207 C 0.65606 0.70531 0.11136 0.0
C1208 C 0.72577 0.59649 0.07732 0.0
C1209 C 0.68449 0.52741 0.03226 0.0
N1210 N 0.6766 0.6733 0.09017 0.0
N1211 N 0.66286 0.56347 0.04254 0.0
H1212 H 0.286 0.99239 0.72143 0.0
H1213 H 0.15904 0.76958 0.73362 0.0
H1214 H 0.35097 0.87543 0.69041 0.0
H1215 H 0.09661 0.88393 0.69566 0.0
H1216 H 0.22981 0.80546 0.71654 0.0
H1217 H 0.21604 0.9523 0.71205 0.0
C1218 C 0.28549 0.95825 0.71254 0.0
C1219 C 0.32424 0.93704 0.70722 0.0
C1220 C 0.20048 0.82202 0.71033 0.0
C1221 C 0.24437 0.89094 0.6967 0.0
C1222 C 0.16017 0.80139 0.71957 0.0
C1223 C 0.1222 0.82391 0.71584 0.0
C1224 C 0.20251 0.86522 0.69721 0.0
C1225 C 0.12531 0.86555 0.69872 0.0
C1226 C 0.24559 0.9355 0.70675 0.0
C1227 C 0.32175 0.8929 0.69504 0.0
N1228 N 0.16489 0.88525 0.69079 0.0
N1229 N 0.28239 0.87102 0.69099 0.0
H1230 H 0.24218 0.02861 0.25693 0.0
H1231 H 0.3597 0.25308 0.25519 0.0
H1232 H 0.17074 0.14179 0.23291 0.0
H1233 H 0.42444 0.13852 0.21571 0.0
H1234 H 0.29004 0.21521 0.23881 0.0
H1235 H 0.30907 0.06868 0.23578 0.0
C1236 C 0.24062 0.06189 0.2471 0.0
C1237 C 0.20111 0.08222 0.24748 0.0
C1238 C 0.3195 0.19911 0.23148 0.0
C1239 C 0.27737 0.12821 0.22321 0.0
C1240 C 0.35936 0.22082 0.24059 0.0
C1241 C 0.39759 0.19848 0.23744 0.0
C1242 C 0.31819 0.15511 0.21907 0.0
C1243 C 0.39539 0.15651 0.21898 0.0
C1244 C 0.27867 0.08456 0.23444 0.0
C1245 C 0.20069 0.12509 0.23353 0.0
N1246 N 0.35614 0.13562 0.21163 0.0
N1247 N 0.23846 0.14702 0.22283 0.0
loop_
_geom_bond_atom_site_label_1
_geom_bond_atom_site_label_2
_geom_bond_distance
_geom_bond_site_symmetry_2
_ccdc_geom_bond_type
Co0 O1 2.216 . S
Co0 O2 2.091 . S
Co0 O4 2.004 1_455 S
Co0 O10 2.021 1_455 S
Co0 O12 2.137 . S
Co0 O13 2.244 . S
O1 Co0 2.216 . S
O1 C8 1.247 . S
O2 Co0 2.091 . S
O2 C8 1.261 . S
C3 O12 1.247 . S
C3 O13 1.272 . S
O4 Co0 2.004 1_655 S
O4 C9 1.259 . S
Co5 O6 2.061 1_455 S
Co5 O11 2.052 1_455 S
Co5 O13 2.135 . S
O6 Co5 2.061 1_655 S
O6 C9 1.235 . S
C7 O10 1.238 . S
C7 O11 1.241 . S
C8 O1 1.247 . S
C8 O2 1.261 . S
C9 O4 1.259 . S
C9 O6 1.235 . S
O10 Co0 2.021 1_655 S
O10 C7 1.238 . S
O11 Co5 2.052 1_655 S
O11 C7 1.241 . S
O12 Co0 2.137 . S
O12 C3 1.247 . S
O13 Co0 2.244 . S
O13 C3 1.272 . S
O13 Co5 2.135 . S
Co14 O15 2.216 . S
Co14 O16 2.090 1_455 S
Co14 O18 2.004 1_455 S
Co14 O24 2.021 1_455 S
Co14 O26 2.137 . S
Co14 O27 2.244 . S
O15 Co14 2.216 . S
O15 C22 1.247 . S
O16 Co14 2.090 1_655 S
O16 C22 1.250 1_655 S
C17 O26 1.247 . S
C17 O27 1.272 . S
O18 Co14 2.004 1_655 S
O18 C23 1.259 . S
Co19 O20 2.061 1_455 S
Co19 O25 2.052 1_455 S
Co19 O27 2.135 . S
O20 Co19 2.061 1_655 S
O20 C23 1.235 . S
C21 O24 1.238 . S
C21 O25 1.241 . S
C22 O15 1.247 . S
C22 O16 1.250 1_455 S
C23 O18 1.259 . S
C23 O20 1.235 . S
O24 Co14 2.021 1_655 S
O24 C21 1.238 . S
O25 Co19 2.052 1_655 S
O25 C21 1.241 . S
O26 Co14 2.137 . S
O26 C17 1.247 . S
O27 Co14 2.244 . S
O27 C17 1.272 . S
O27 Co19 2.135 . S
Co28 O29 2.216 . S
Co28 O30 2.091 . S
Co28 O32 2.004 . S
Co28 O38 2.021 . S
Co28 O40 2.137 . S
Co28 O41 2.244 . S
O29 Co28 2.216 . S
O29 C36 1.247 . S
O30 Co28 2.091 . S
O30 C36 1.261 . S
C31 O40 1.247 . S
C31 O41 1.272 . S
O32 Co28 2.004 . S
O32 C37 1.259 . S
Co33 O34 2.061 . S
Co33 O39 2.052 . S
Co33 O41 2.135 . S
O34 Co33 2.061 . S
O34 C37 1.235 . S
C35 O38 1.238 . S
C35 O39 1.241 . S
C36 O29 1.247 . S
C36 O30 1.261 . S
C37 O32 1.259 . S
C37 O34 1.235 . S
O38 Co28 2.021 . S
O38 C35 1.238 . S
O39 Co33 2.052 . S
O39 C35 1.241 . S
O40 Co28 2.137 . S
O40 C31 1.247 . S
O41 Co28 2.244 . S
O41 C31 1.272 . S
O41 Co33 2.135 . S
Co42 O43 2.216 . S
Co42 O44 2.091 . S
Co42 O46 2.004 . S
Co42 O52 2.021 . S
Co42 O54 2.137 . S
Co42 O55 2.244 . S
O43 Co42 2.216 . S
O43 C50 1.247 . S
O44 Co42 2.091 . S
O44 C50 1.261 . S
C45 O54 1.247 . S
C45 O55 1.272 . S
O46 Co42 2.004 . S
O46 C51 1.259 . S
Co47 O48 2.061 . S
Co47 O53 2.052 . S
Co47 O55 2.135 . S
O48 Co47 2.061 . S
O48 C51 1.235 . S
C49 O52 1.238 . S
C49 O53 1.241 . S
C50 O43 1.247 . S
C50 O44 1.261 . S
C51 O46 1.259 . S
C51 O48 1.235 . S
O52 Co42 2.021 . S
O52 C49 1.238 . S
O53 Co47 2.052 . S
O53 C49 1.241 . S
O54 Co42 2.137 . S
O54 C45 1.247 . S
O55 Co42 2.244 . S
O55 C45 1.272 . S
O55 Co47 2.135 . S
Co56 O57 2.216 . S
Co56 O58 2.091 . S
Co56 O60 2.004 1_565 S
Co56 O66 2.021 1_565 S
Co56 O68 2.137 . S
Co56 O69 2.244 1_565 S
O57 Co56 2.216 . S
O57 C64 1.247 . S
O58 Co56 2.091 . S
O58 C64 1.261 . S
C59 O68 1.247 . S
C59 O69 1.272 1_565 S
O60 Co56 2.004 1_545 S
O60 C65 1.259 . S
Co61 O62 2.061 . S
Co61 O67 2.052 . S
Co61 O69 2.135 . S
O62 Co61 2.061 . S
O62 C65 1.235 . S
C63 O66 1.238 . S
C63 O67 1.241 . S
C64 O57 1.247 . S
C64 O58 1.261 . S
C65 O60 1.259 . S
C65 O62 1.235 . S
O66 Co56 2.021 1_545 S
O66 C63 1.238 . S
O67 Co61 2.052 . S
O67 C63 1.241 . S
O68 Co56 2.137 . S
O68 C59 1.247 . S
O69 Co56 2.244 1_545 S
O69 C59 1.272 1_545 S
O69 Co61 2.135 . S
Co70 O71 2.216 . S
Co70 O72 2.091 . S
Co70 O74 2.004 . S
Co70 O80 2.021 . S
Co70 O82 2.137 . S
Co70 O83 2.244 . S
O71 Co70 2.216 . S
O71 C78 1.247 . S
O72 Co70 2.091 . S
O72 C78 1.261 . S
C73 O82 1.247 . S
C73 O83 1.272 . S
O74 Co70 2.004 . S
O74 C79 1.259 . S
Co75 O76 2.061 . S
Co75 O81 2.052 . S
Co75 O83 2.135 . S
O76 Co75 2.061 . S
O76 C79 1.235 . S
C77 O80 1.238 . S
C77 O81 1.241 . S
C78 O71 1.247 . S
C78 O72 1.261 . S
C79 O74 1.259 . S
C79 O76 1.235 . S
O80 Co70 2.021 . S
O80 C77 1.238 . S
O81 Co75 2.052 . S
O81 C77 1.241 . S
O82 Co70 2.137 . S
O82 C73 1.247 . S
O83 Co70 2.244 . S
O83 C73 1.272 . S
O83 Co75 2.135 . S
Co84 O85 2.216 . S
Co84 O86 2.091 . S
Co84 O88 2.004 . S
Co84 O94 2.021 . S
Co84 O96 2.137 . S
Co84 O97 2.244 . S
O85 Co84 2.216 . S
O85 C92 1.247 . S
O86 Co84 2.091 . S
O86 C92 1.261 . S
C87 O96 1.247 . S
C87 O97 1.272 . S
O88 Co84 2.004 . S
O88 C93 1.259 . S
Co89 O90 2.061 . S
Co89 O95 2.052 . S
Co89 O97 2.135 1_565 S
O90 Co89 2.061 . S
O90 C93 1.235 1_565 S
C91 O94 1.238 1_565 S
C91 O95 1.241 . S
C92 O85 1.247 . S
C92 O86 1.261 . S
C93 O88 1.259 . S
C93 O90 1.235 1_545 S
O94 Co84 2.021 . S
O94 C91 1.238 1_545 S
O95 Co89 2.052 . S
O95 C91 1.241 . S
O96 Co84 2.137 . S
O96 C87 1.247 . S
O97 Co84 2.244 . S
O97 C87 1.272 . S
O97 Co89 2.135 1_545 S
Co98 O99 2.216 . S
Co98 O100 2.091 1_554 S
Co98 O102 2.004 1_554 S
Co98 O108 2.021 1_554 S
Co98 O110 2.137 . S
Co98 O111 2.244 . S
O99 Co98 2.216 . S
O99 C106 1.247 . S
O100 Co98 2.091 1_556 S
O100 C106 1.261 1_556 S
C101 O110 1.247 . S
C101 O111 1.272 . S
O102 Co98 2.004 1_556 S
O102 C107 1.259 . S
Co103 O104 2.060 1_554 S
Co103 O109 2.052 1_554 S
Co103 O111 2.136 . S
O104 Co103 2.060 1_556 S
O104 C107 1.235 . S
C105 O108 1.238 . S
C105 O109 1.241 . S
C106 O99 1.247 . S
C106 O100 1.261 1_554 S
C107 O102 1.259 . S
C107 O104 1.235 . S
O108 Co98 2.021 1_556 S
O108 C105 1.238 . S
O109 Co103 2.052 1_556 S
O109 C105 1.241 . S
O110 Co98 2.137 . S
O110 C101 1.247 . S
O111 Co98 2.244 . S
O111 C101 1.272 . S
O111 Co103 2.136 . S
Co112 O113 2.216 . S
Co112 O114 2.091 . S
Co112 O116 2.004 1_554 S
Co112 O122 2.021 1_554 S
Co112 O124 2.137 . S
Co112 O125 2.244 . S
O113 Co112 2.216 . S
O113 C120 1.247 . S
O114 Co112 2.091 . S
O114 C120 1.261 . S
C115 O124 1.247 . S
C115 O125 1.272 . S
O116 Co112 2.004 1_556 S
O116 C121 1.259 . S
Co117 O118 2.061 1_554 S
Co117 O123 2.052 . S
Co117 O125 2.135 . S
O118 Co117 2.061 1_556 S
O118 C121 1.235 . S
C119 O122 1.238 . S
C119 O123 1.241 1_556 S
C120 O113 1.247 . S
C120 O114 1.261 . S
C121 O116 1.259 . S
C121 O118 1.235 . S
O122 Co112 2.021 1_556 S
O122 C119 1.238 . S
O123 Co117 2.052 . S
O123 C119 1.241 1_554 S
O124 Co112 2.137 . S
O124 C115 1.247 . S
O125 Co112 2.244 . S
O125 C115 1.272 . S
O125 Co117 2.135 . S
Co126 O127 2.216 . S
Co126 O128 2.091 . S
Co126 O130 2.004 . S
Co126 O136 2.021 . S
Co126 O138 2.137 . S
Co126 O139 2.244 . S
O127 Co126 2.216 . S
O127 C134 1.247 . S
O128 Co126 2.091 . S
O128 C134 1.261 . S
C129 O138 1.247 . S
C129 O139 1.272 . S
O130 Co126 2.004 . S
O130 C135 1.259 . S
Co131 O132 2.061 . S
Co131 O137 2.052 . S
Co131 O139 2.135 . S
O132 Co131 2.061 . S
O132 C135 1.235 . S
C133 O136 1.238 . S
C133 O137 1.241 . S
C134 O127 1.247 . S
C134 O128 1.261 . S
C135 O130 1.259 . S
C135 O132 1.235 . S
O136 Co126 2.021 . S
O136 C133 1.238 . S
O137 Co131 2.052 . S
O137 C133 1.241 . S
O138 Co126 2.137 . S
O138 C129 1.247 . S
O139 Co126 2.244 . S
O139 C129 1.272 . S
O139 Co131 2.135 . S
Co140 O141 2.216 . S
Co140 O142 2.091 . S
Co140 O144 2.004 . S
Co140 O150 2.021 . S
Co140 O152 2.137 . S
Co140 O153 2.244 . S
O141 Co140 2.216 . S
O141 C148 1.247 . S
O142 Co140 2.091 . S
O142 C148 1.261 . S
C143 O152 1.247 . S
C143 O153 1.272 . S
O144 Co140 2.004 . S
O144 C149 1.259 . S
Co145 O146 2.061 . S
Co145 O151 2.052 . S
Co145 O153 2.135 . S
O146 Co145 2.061 . S
O146 C149 1.235 . S
C147 O150 1.238 . S
C147 O151 1.241 . S
C148 O141 1.247 . S
C148 O142 1.261 . S
C149 O144 1.259 . S
C149 O146 1.235 . S
O150 Co140 2.021 . S
O150 C147 1.238 . S
O151 Co145 2.052 . S
O151 C147 1.241 . S
O152 Co140 2.137 . S
O152 C143 1.247 . S
O153 Co140 2.244 . S
O153 C143 1.272 . S
O153 Co145 2.135 . S
Co154 O155 2.216 . S
Co154 O156 2.091 . S
Co154 O158 2.004 . S
Co154 O164 2.021 . S
Co154 O166 2.137 . S
Co154 O167 2.244 . S
O155 Co154 2.216 . S
O155 C162 1.247 . S
O156 Co154 2.091 . S
O156 C162 1.261 . S
C157 O166 1.247 . S
C157 O167 1.272 . S
O158 Co154 2.004 . S
O158 C163 1.259 . S
Co159 O160 2.061 . S
Co159 O165 2.052 . S
Co159 O167 2.135 . S
O160 Co159 2.061 . S
O160 C163 1.235 . S
C161 O164 1.238 . S
C161 O165 1.241 . S
C162 O155 1.247 . S
C162 O156 1.261 . S
C163 O158 1.259 . S
C163 O160 1.235 . S
O164 Co154 2.021 . S
O164 C161 1.238 . S
O165 Co159 2.052 . S
O165 C161 1.241 . S
O166 Co154 2.137 . S
O166 C157 1.247 . S
O167 Co154 2.244 . S
O167 C157 1.272 . S
O167 Co159 2.135 . S
H168 C174 0.930 . S
H169 C177 0.931 . S
H170 C179 0.931 . S
H171 C181 0.930 . S
H172 C183 0.930 . S
H173 C185 0.931 . S
C174 H168 0.930 . S
C174 C175 1.380 . S
C174 C176 1.394 . S
C175 C174 1.380 . S
C175 C179 1.382 . S
C176 C174 1.394 . S
C176 C177 1.400 . S
C177 H169 0.931 . S
C177 C176 1.400 . S
C177 C178 1.375 . S
C178 C177 1.375 . S
C178 C179 1.415 . S
C178 C180 1.501 1_655 S
C179 H170 0.931 . S
C179 C175 1.382 . S
C179 C178 1.415 . S
C180 C178 1.501 1_455 S
C180 C181 1.384 . S
C180 C185 1.408 . S
C181 H171 0.930 . S
C181 C180 1.384 . S
C181 C182 1.389 . S
C182 C181 1.389 . S
C182 C183 1.405 . S
C183 H172 0.930 . S
C183 C182 1.405 . S
C183 C184 1.364 . S
C184 C183 1.364 . S
C184 C185 1.400 . S
C185 H173 0.931 . S
C185 C180 1.408 . S
C185 C184 1.400 . S
H186 C192 0.930 . S
H187 C195 0.931 1_455 S
H188 C197 0.931 . S
H189 C199 0.930 . S
H190 C201 0.930 . S
H191 C203 0.931 . S
C192 H186 0.930 . S
C192 C193 1.380 . S
C192 C194 1.394 . S
C193 C192 1.380 . S
C193 C197 1.382 . S
C194 C192 1.394 . S
C194 C195 1.400 . S
C195 H187 0.931 1_655 S
C195 C194 1.400 . S
C195 C196 1.375 . S
C196 C195 1.375 . S
C196 C197 1.415 . S
C196 C198 1.501 1_655 S
C197 H188 0.931 . S
C197 C193 1.382 . S
C197 C196 1.415 . S
C198 C196 1.501 1_455 S
C198 C199 1.384 . S
C198 C203 1.408 . S
C199 H189 0.930 . S
C199 C198 1.384 . S
C199 C200 1.389 . S
C200 C199 1.389 . S
C200 C201 1.405 . S
C201 H190 0.930 . S
C201 C200 1.405 . S
C201 C202 1.364 . S
C202 C201 1.364 . S
C202 C203 1.400 . S
C203 H191 0.931 . S
C203 C198 1.408 . S
C203 C202 1.400 . S
H204 C210 0.930 . S
H205 C213 0.931 . S
H206 C215 0.931 . S
H207 C217 0.930 . S
H208 C219 0.930 . S
H209 C221 0.931 . S
C210 H204 0.930 . S
C210 C211 1.380 . S
C210 C212 1.394 . S
C211 C210 1.380 . S
C211 C215 1.382 . S
C212 C210 1.394 . S
C212 C213 1.400 . S
C213 H205 0.931 . S
C213 C212 1.400 . S
C213 C214 1.375 . S
C214 C213 1.375 . S
C214 C215 1.415 . S
C214 C216 1.501 . S
C215 H206 0.931 . S
C215 C211 1.382 . S
C215 C214 1.415 . S
C216 C214 1.501 . S
C216 C217 1.384 . S
C216 C221 1.408 . S
C217 H207 0.930 . S
C217 C216 1.384 . S
C217 C218 1.389 . S
C218 C217 1.389 . S
C218 C219 1.405 . S
C219 H208 0.930 . S
C219 C218 1.405 . S
C219 C220 1.364 . S
C220 C219 1.364 . S
C220 C221 1.400 . S
C221 H209 0.931 . S
C221 C216 1.408 . S
C221 C220 1.400 . S
H222 C228 0.930 . S
H223 C231 0.931 . S
H224 C233 0.931 . S
H225 C235 0.930 . S
H226 C237 0.930 . S
H227 C239 0.931 . S
C228 H222 0.930 . S
C228 C229 1.380 . S
C228 C230 1.394 . S
C229 C228 1.380 . S
C229 C233 1.382 . S
C230 C228 1.394 . S
C230 C231 1.400 . S
C231 H223 0.931 . S
C231 C230 1.400 . S
C231 C232 1.375 . S
C232 C231 1.375 . S
C232 C233 1.415 . S
C232 C234 1.501 . S
C233 H224 0.931 . S
C233 C229 1.382 . S
C233 C232 1.415 . S
C234 C232 1.501 . S
C234 C235 1.384 . S
C234 C239 1.408 . S
C235 H225 0.930 . S
C235 C234 1.384 . S
C235 C236 1.389 . S
C236 C235 1.389 . S
C236 C237 1.405 . S
C237 H226 0.930 . S
C237 C236 1.405 . S
C237 C238 1.364 . S
C238 C237 1.364 . S
C238 C239 1.400 . S
C239 H227 0.931 . S
C239 C234 1.408 . S
C239 C238 1.400 . S
H240 C246 0.930 . S
H241 C249 0.928 1_545 S
H242 C251 0.934 . S
H243 C253 0.930 . S
H244 C255 0.930 . S
H245 C257 0.931 . S
C246 H240 0.930 . S
C246 C247 1.380 . S
C246 C248 1.394 . S
C247 C246 1.380 . S
C247 C251 1.377 1_565 S
C248 C246 1.394 . S
C248 C249 1.400 . S
C249 H241 0.928 1_565 S
C249 C248 1.400 . S
C249 C250 1.375 1_565 S
C250 C249 1.375 1_545 S
C250 C251 1.417 . S
C250 C252 1.501 . S
C251 H242 0.934 . S
C251 C247 1.377 1_545 S
C251 C250 1.417 . S
C252 C250 1.501 . S
C252 C253 1.384 . S
C252 C257 1.408 . S
C253 H243 0.930 . S
C253 C252 1.384 . S
C253 C254 1.389 . S
C254 C253 1.389 . S
C254 C255 1.405 . S
C255 H244 0.930 . S
C255 C254 1.405 . S
C255 C256 1.364 . S
C256 C255 1.364 . S
C256 C257 1.400 . S
C257 H245 0.931 . S
C257 C252 1.408 . S
C257 C256 1.400 . S
H258 C264 0.930 . S
H259 C267 0.931 . S
H260 C269 0.931 . S
H261 C271 0.930 . S
H262 C273 0.930 . S
H263 C275 0.931 . S
C264 H258 0.930 . S
C264 C265 1.380 . S
C264 C266 1.394 . S
C265 C264 1.380 . S
C265 C269 1.382 . S
C266 C264 1.394 . S
C266 C267 1.400 . S
C267 H259 0.931 . S
C267 C266 1.400 . S
C267 C268 1.375 . S
C268 C267 1.375 . S
C268 C269 1.415 . S
C268 C270 1.501 . S
C269 H260 0.931 . S
C269 C265 1.382 . S
C269 C268 1.415 . S
C270 C268 1.501 . S
C270 C271 1.384 . S
C270 C275 1.408 . S
C271 H261 0.930 . S
C271 C270 1.384 . S
C271 C272 1.389 . S
C272 C271 1.389 . S
C272 C273 1.405 . S
C273 H262 0.930 . S
C273 C272 1.405 . S
C273 C274 1.364 . S
C274 C273 1.364 . S
C274 C275 1.400 . S
C275 H263 0.931 . S
C275 C270 1.408 . S
C275 C274 1.400 . S
H276 C282 0.930 . S
H277 C285 0.931 . S
H278 C287 0.931 . S
H279 C289 0.930 . S
H280 C291 0.930 . S
H281 C293 0.931 . S
C282 H276 0.930 . S
C282 C283 1.380 . S
C282 C284 1.394 . S
C283 C282 1.380 . S
C283 C287 1.382 . S
C284 C282 1.394 . S
C284 C285 1.400 . S
C285 H277 0.931 . S
C285 C284 1.400 . S
C285 C286 1.375 . S
C286 C285 1.375 . S
C286 C287 1.415 . S
C286 C288 1.501 1_545 S
C287 H278 0.931 . S
C287 C283 1.382 . S
C287 C286 1.415 . S
C288 C286 1.501 1_565 S
C288 C289 1.384 . S
C288 C293 1.408 . S
C289 H279 0.930 . S
C289 C288 1.384 . S
C289 C290 1.389 . S
C290 C289 1.389 . S
C290 C291 1.405 . S
C291 H280 0.930 . S
C291 C290 1.405 . S
C291 C292 1.364 . S
C292 C291 1.364 . S
C292 C293 1.400 . S
C293 H281 0.931 . S
C293 C288 1.408 . S
C293 C292 1.400 . S
H294 C300 0.930 . S
H295 C303 0.931 . S
H296 C305 0.931 . S
H297 C307 0.930 . S
H298 C309 0.930 . S
H299 C311 0.931 . S
C300 H294 0.930 . S
C300 C301 1.380 . S
C300 C302 1.394 . S
C301 C300 1.380 . S
C301 C305 1.382 1_556 S
C302 C300 1.394 . S
C302 C303 1.400 1_556 S
C303 H295 0.931 . S
C303 C302 1.400 1_554 S
C303 C304 1.375 . S
C304 C303 1.375 . S
C304 C305 1.415 . S
C304 C306 1.501 . S
C305 H296 0.931 . S
C305 C301 1.382 1_554 S
C305 C304 1.415 . S
C306 C304 1.501 . S
C306 C307 1.384 . S
C306 C311 1.408 . S
C307 H297 0.930 . S
C307 C306 1.384 . S
C307 C308 1.389 . S
C308 C307 1.389 . S
C308 C309 1.405 . S
C309 H298 0.930 . S
C309 C308 1.405 . S
C309 C310 1.364 . S
C310 C309 1.364 . S
C310 C311 1.400 . S
C311 H299 0.931 . S
C311 C306 1.408 . S
C311 C310 1.400 . S
H312 C318 0.930 . S
H313 C321 0.931 . S
H314 C323 0.931 . S
H315 C325 0.930 . S
H316 C327 0.930 . S
H317 C329 0.931 . S
C318 H312 0.930 . S
C318 C319 1.380 . S
C318 C320 1.394 . S
C319 C318 1.380 . S
C319 C323 1.382 . S
C320 C318 1.394 . S
C320 C321 1.400 1_556 S
C321 H313 0.931 . S
C321 C320 1.400 1_554 S
C321 C322 1.375 . S
C322 C321 1.375 . S
C322 C323 1.415 1_554 S
C322 C324 1.501 . S
C323 H314 0.931 . S
C323 C319 1.382 . S
C323 C322 1.415 1_556 S
C324 C322 1.501 . S
C324 C325 1.384 . S
C324 C329 1.408 . S
C325 H315 0.930 . S
C325 C324 1.384 . S
C325 C326 1.389 . S
C326 C325 1.389 . S
C326 C327 1.405 . S
C327 H316 0.930 . S
C327 C326 1.405 . S
C327 C328 1.364 . S
C328 C327 1.364 . S
C328 C329 1.400 . S
C329 H317 0.931 . S
C329 C324 1.408 . S
C329 C328 1.400 . S
H330 C336 0.930 . S
H331 C339 0.931 . S
H332 C341 0.931 . S
H333 C343 0.930 . S
H334 C345 0.930 . S
H335 C347 0.931 . S
C336 H330 0.930 . S
C336 C337 1.380 . S
C336 C338 1.394 . S
C337 C336 1.380 . S
C337 C341 1.382 . S
C338 C336 1.394 . S
C338 C339 1.400 . S
C339 H331 0.931 . S
C339 C338 1.400 . S
C339 C340 1.375 . S
C340 C339 1.375 . S
C340 C341 1.415 . S
C340 C342 1.501 . S
C341 H332 0.931 . S
C341 C337 1.382 . S
C341 C340 1.415 . S
C342 C340 1.501 . S
C342 C343 1.384 . S
C342 C347 1.408 . S
C343 H333 0.930 . S
C343 C342 1.384 . S
C343 C344 1.389 . S
C344 C343 1.389 . S
C344 C345 1.405 . S
C345 H334 0.930 . S
C345 C344 1.405 . S
C345 C346 1.364 . S
C346 C345 1.364 . S
C346 C347 1.400 . S
C347 H335 0.931 . S
C347 C342 1.408 . S
C347 C346 1.400 . S
H348 C354 0.930 . S
H349 C357 0.931 . S
H350 C359 0.931 . S
H351 C361 0.930 . S
H352 C363 0.930 . S
H353 C365 0.931 . S
C354 H348 0.930 . S
C354 C355 1.380 . S
C354 C356 1.394 . S
C355 C354 1.380 . S
C355 C359 1.382 . S
C356 C354 1.394 . S
C356 C357 1.400 . S
C357 H349 0.931 . S
C357 C356 1.400 . S
C357 C358 1.375 . S
C358 C357 1.375 . S
C358 C359 1.415 . S
C358 C360 1.501 . S
C359 H350 0.931 . S
C359 C355 1.382 . S
C359 C358 1.415 . S
C360 C358 1.501 . S
C360 C361 1.384 . S
C360 C365 1.408 . S
C361 H351 0.930 . S
C361 C360 1.384 . S
C361 C362 1.389 . S
C362 C361 1.389 . S
C362 C363 1.405 . S
C363 H352 0.930 . S
C363 C362 1.405 . S
C363 C364 1.364 . S
C364 C363 1.364 . S
C364 C365 1.400 . S
C365 H353 0.931 . S
C365 C360 1.408 . S
C365 C364 1.400 . S
H366 C372 0.930 . S
H367 C375 0.931 . S
H368 C377 0.931 . S
H369 C379 0.930 . S
H370 C381 0.930 . S
H371 C383 0.931 . S
C372 H366 0.930 . S
C372 C373 1.380 . S
C372 C374 1.394 . S
C373 C372 1.380 . S
C373 C377 1.382 . S
C374 C372 1.394 . S
C374 C375 1.400 . S
C375 H367 0.931 . S
C375 C374 1.400 . S
C375 C376 1.375 . S
C376 C375 1.375 . S
C376 C377 1.415 . S
C376 C378 1.501 . S
C377 H368 0.931 . S
C377 C373 1.382 . S
C377 C376 1.415 . S
C378 C376 1.501 . S
C378 C379 1.384 . S
C378 C383 1.408 . S
C379 H369 0.930 . S
C379 C378 1.384 . S
C379 C380 1.389 . S
C380 C379 1.389 . S
C380 C381 1.405 . S
C381 H370 0.930 . S
C381 C380 1.405 . S
C381 C382 1.364 . S
C382 C381 1.364 . S
C382 C383 1.400 . S
C383 H371 0.931 . S
C383 C378 1.408 . S
C383 C382 1.400 . S
H384 C390 0.930 . S
H385 C394 0.930 . S
H386 C399 0.929 . S
H387 C397 0.929 . S
H388 C392 0.929 . S
H389 C398 0.929 . S
C390 H384 0.930 . S
C390 C391 1.367 . S
C390 C398 1.378 1_554 S
C391 C390 1.367 . S
C391 C399 1.433 . S
C392 H388 0.929 . S
C392 C394 1.378 . S
C392 C396 1.350 . S
C393 C396 1.463 . S
C393 C398 1.350 . S
C393 N401 1.427 1_556 S
C394 H385 0.930 . S
C394 C392 1.378 . S
C394 C395 1.367 . S
C395 C394 1.367 . S
C395 C397 1.433 . S
C396 C392 1.350 . S
C396 C393 1.463 . S
C396 N400 1.427 . S
C397 H387 0.929 . S
C397 C395 1.433 . S
C397 N400 1.384 . S
C398 H389 0.929 . S
C398 C390 1.378 1_556 S
C398 C393 1.350 . S
C399 H386 0.929 . S
C399 C391 1.433 . S
C399 N401 1.384 . S
N400 C396 1.427 . S
N400 C397 1.384 . S
N401 C393 1.427 1_554 S
N401 C399 1.384 . S
H402 C408 0.930 . S
H403 C412 0.930 . S
H404 C417 0.929 . S
H405 C415 0.929 . S
H406 C410 0.929 . S
H407 C416 0.929 . S
C408 H402 0.930 . S
C408 C409 1.367 . S
C408 C416 1.378 . S
C409 C408 1.367 . S
C409 C417 1.433 . S
C410 H406 0.929 . S
C410 C412 1.378 . S
C410 C414 1.350 . S
C411 C414 1.463 . S
C411 C416 1.350 . S
C411 N419 1.427 . S
C412 H403 0.930 . S
C412 C410 1.378 . S
C412 C413 1.367 . S
C413 C412 1.367 . S
C413 C415 1.433 . S
C414 C410 1.350 . S
C414 C411 1.463 . S
C414 N418 1.427 . S
C415 H405 0.929 . S
C415 C413 1.433 . S
C415 N418 1.384 . S
C416 H407 0.929 . S
C416 C408 1.378 . S
C416 C411 1.350 . S
C417 H404 0.929 . S
C417 C409 1.433 . S
C417 N419 1.384 . S
N418 C414 1.427 . S
N418 C415 1.384 . S
N419 C411 1.427 . S
N419 C417 1.384 . S
H420 C426 0.930 . S
H421 C430 0.930 . S
H422 C435 0.929 . S
H423 C433 0.929 . S
H424 C428 0.929 . S
H425 C434 0.929 . S
C426 H420 0.930 . S
C426 C427 1.367 . S
C426 C434 1.378 . S
C427 C426 1.367 . S
C427 C435 1.433 . S
C428 H424 0.929 . S
C428 C430 1.378 . S
C428 C432 1.350 . S
C429 C432 1.463 . S
C429 C434 1.350 . S
C429 N437 1.427 . S
C430 H421 0.930 . S
C430 C428 1.378 . S
C430 C431 1.367 . S
C431 C430 1.367 . S
C431 C433 1.433 . S
C432 C428 1.350 . S
C432 C429 1.463 . S
C432 N436 1.427 . S
C433 H423 0.929 . S
C433 C431 1.433 . S
C433 N436 1.384 . S
C434 H425 0.929 . S
C434 C426 1.378 . S
C434 C429 1.350 . S
C435 H422 0.929 . S
C435 C427 1.433 . S
C435 N437 1.384 . S
N436 C432 1.427 . S
N436 C433 1.384 . S
N437 C429 1.427 . S
N437 C435 1.384 . S
H438 C444 0.930 . S
H439 C448 0.930 . S
H440 C453 0.929 . S
H441 C451 0.929 . S
H442 C446 0.929 . S
H443 C452 0.929 . S
C444 H438 0.930 . S
C444 C445 1.367 . S
C444 C452 1.378 . S
C445 C444 1.367 . S
C445 C453 1.433 . S
C446 H442 0.929 . S
C446 C448 1.378 . S
C446 C450 1.350 . S
C447 C450 1.463 . S
C447 C452 1.350 . S
C447 N455 1.427 . S
C448 H439 0.930 . S
C448 C446 1.378 . S
C448 C449 1.367 . S
C449 C448 1.367 . S
C449 C451 1.433 . S
C450 C446 1.350 . S
C450 C447 1.463 . S
C450 N454 1.427 . S
C451 H441 0.929 . S
C451 C449 1.433 . S
C451 N454 1.384 . S
C452 H443 0.929 . S
C452 C444 1.378 . S
C452 C447 1.350 . S
C453 H440 0.929 . S
C453 C445 1.433 . S
C453 N455 1.384 . S
N454 C450 1.427 . S
N454 C451 1.384 . S
N455 C447 1.427 . S
N455 C453 1.384 . S
H456 C462 0.930 . S
H457 C466 0.930 . S
H458 C471 0.929 . S
H459 C469 0.929 . S
H460 C464 0.929 . S
H461 C470 0.929 . S
C462 H456 0.930 . S
C462 C463 1.367 . S
C462 C470 1.378 . S
C463 C462 1.367 . S
C463 C471 1.433 . S
C464 H460 0.929 . S
C464 C466 1.378 . S
C464 C468 1.350 . S
C465 C468 1.463 . S
C465 C470 1.350 . S
C465 N473 1.427 . S
C466 H457 0.930 . S
C466 C464 1.378 . S
C466 C467 1.367 . S
C467 C466 1.367 . S
C467 C469 1.433 . S
C468 C464 1.350 . S
C468 C465 1.463 . S
C468 N472 1.427 . S
C469 H459 0.929 . S
C469 C467 1.433 . S
C469 N472 1.384 . S
C470 H461 0.929 . S
C470 C462 1.378 . S
C470 C465 1.350 . S
C471 H458 0.929 . S
C471 C463 1.433 . S
C471 N473 1.384 . S
N472 C468 1.427 . S
N472 C469 1.384 . S
N473 C465 1.427 . S
N473 C471 1.384 . S
H474 C480 0.930 . S
H475 C484 0.930 . S
H476 C489 0.929 . S
H477 C487 0.929 . S
H478 C482 0.929 . S
H479 C488 0.929 . S
C480 H474 0.930 . S
C480 C481 1.367 . S
C480 C488 1.378 . S
C481 C480 1.367 . S
C481 C489 1.433 . S
C482 H478 0.929 . S
C482 C484 1.378 . S
C482 C486 1.350 . S
C483 C486 1.463 . S
C483 C488 1.350 . S
C483 N491 1.427 . S
C484 H475 0.930 . S
C484 C482 1.378 . S
C484 C485 1.367 . S
C485 C484 1.367 . S
C485 C487 1.433 . S
C486 C482 1.350 . S
C486 C483 1.463 . S
C486 N490 1.427 . S
C487 H477 0.929 . S
C487 C485 1.433 . S
C487 N490 1.384 . S
C488 H479 0.929 . S
C488 C480 1.378 . S
C488 C483 1.350 . S
C489 H476 0.929 . S
C489 C481 1.433 . S
C489 N491 1.384 . S
N490 C486 1.427 . S
N490 C487 1.384 . S
N491 C483 1.427 . S
N491 C489 1.384 . S
H492 C498 0.930 1_556 S
H493 C502 0.930 . S
H494 C507 0.929 . S
H495 C505 0.929 . S
H496 C500 0.929 . S
H497 C506 0.929 . S
C498 H492 0.930 1_554 S
C498 C499 1.367 1_554 S
C498 C506 1.378 . S
C499 C498 1.367 1_556 S
C499 C507 1.433 1_556 S
C500 H496 0.929 . S
C500 C502 1.378 . S
C500 C504 1.350 . S
C501 C504 1.463 . S
C501 C506 1.350 . S
C501 N509 1.427 . S
C502 H493 0.930 . S
C502 C500 1.378 . S
C502 C503 1.367 . S
C503 C502 1.367 . S
C503 C505 1.433 . S
C504 C500 1.350 . S
C504 C501 1.463 . S
C504 N508 1.427 . S
C505 H495 0.929 . S
C505 C503 1.433 . S
C505 N508 1.384 . S
C506 H497 0.929 . S
C506 C498 1.378 . S
C506 C501 1.350 . S
C507 H494 0.929 . S
C507 C499 1.433 1_554 S
C507 N509 1.384 . S
N508 C504 1.427 . S
N508 C505 1.384 . S
N509 C501 1.427 . S
N509 C507 1.384 . S
H510 C516 0.930 . S
H511 C520 0.930 . S
H512 C525 0.929 . S
H513 C523 0.929 . S
H514 C518 0.929 . S
H515 C524 0.929 . S
C516 H510 0.930 . S
C516 C517 1.367 . S
C516 C524 1.378 . S
C517 C516 1.367 . S
C517 C525 1.433 . S
C518 H514 0.929 . S
C518 C520 1.378 . S
C518 C522 1.350 . S
C519 C522 1.463 . S
C519 C524 1.350 . S
C519 N527 1.427 . S
C520 H511 0.930 . S
C520 C518 1.378 . S
C520 C521 1.367 . S
C521 C520 1.367 . S
C521 C523 1.433 . S
C522 C518 1.350 . S
C522 C519 1.463 . S
C522 N526 1.427 . S
C523 H513 0.929 . S
C523 C521 1.433 . S
C523 N526 1.384 . S
C524 H515 0.929 . S
C524 C516 1.378 . S
C524 C519 1.350 . S
C525 H512 0.929 . S
C525 C517 1.433 . S
C525 N527 1.384 . S
N526 C522 1.427 . S
N526 C523 1.384 . S
N527 C519 1.427 . S
N527 C525 1.384 . S
H528 C534 0.930 . S
H529 C538 0.930 . S
H530 C543 0.929 . S
H531 C541 0.929 . S
H532 C536 0.929 . S
H533 C542 0.929 . S
C534 H528 0.930 . S
C534 C535 1.367 . S
C534 C542 1.378 1_455 S
C535 C534 1.367 . S
C535 C543 1.433 . S
C536 H532 0.929 . S
C536 C538 1.378 . S
C536 C540 1.350 . S
C537 C540 1.463 . S
C537 C542 1.350 . S
C537 N545 1.427 . S
C538 H529 0.930 . S
C538 C536 1.378 . S
C538 C539 1.367 . S
C539 C538 1.367 . S
C539 C541 1.433 . S
C540 C536 1.350 . S
C540 C537 1.463 . S
C540 N544 1.427 . S
C541 H531 0.929 . S
C541 C539 1.433 . S
C541 N544 1.384 . S
C542 H533 0.929 . S
C542 C534 1.378 1_655 S
C542 C537 1.350 . S
C543 H530 0.929 . S
C543 C535 1.433 . S
C543 N545 1.384 1_455 S
N544 C540 1.427 . S
N544 C541 1.384 . S
N545 C537 1.427 . S
N545 C543 1.384 1_655 S
H546 C552 0.930 . S
H547 C556 0.930 . S
H548 C561 0.929 . S
H549 C559 0.929 . S
H550 C554 0.929 . S
H551 C560 0.929 . S
C552 H546 0.930 . S
C552 C553 1.367 . S
C552 C560 1.378 . S
C553 C552 1.367 . S
C553 C561 1.433 . S
C554 H550 0.929 . S
C554 C556 1.378 . S
C554 C558 1.350 . S
C555 C558 1.463 . S
C555 C560 1.350 . S
C555 N563 1.427 . S
C556 H547 0.930 . S
C556 C554 1.378 . S
C556 C557 1.367 . S
C557 C556 1.367 . S
C557 C559 1.433 . S
C558 C554 1.350 . S
C558 C555 1.463 . S
C558 N562 1.427 . S
C559 H549 0.929 . S
C559 C557 1.433 . S
C559 N562 1.384 . S
C560 H551 0.929 . S
C560 C552 1.378 . S
C560 C555 1.350 . S
C561 H548 0.929 . S
C561 C553 1.433 . S
C561 N563 1.384 . S
N562 C558 1.427 . S
N562 C559 1.384 . S
N563 C555 1.427 . S
N563 C561 1.384 . S
H564 C570 0.930 . S
H565 C574 0.930 1_554 S
H566 C579 0.929 . S
H567 C577 0.929 . S
H568 C572 0.929 . S
H569 C578 0.929 . S
C570 H564 0.930 . S
C570 C571 1.367 . S
C570 C578 1.378 . S
C571 C570 1.367 . S
C571 C579 1.433 . S
C572 H568 0.929 . S
C572 C574 1.378 . S
C572 C576 1.350 . S
C573 C576 1.463 . S
C573 C578 1.350 . S
C573 N581 1.427 . S
C574 H565 0.930 1_556 S
C574 C572 1.378 . S
C574 C575 1.367 . S
C575 C574 1.367 . S
C575 C577 1.433 . S
C576 C572 1.350 . S
C576 C573 1.463 . S
C576 N580 1.427 . S
C577 H567 0.929 . S
C577 C575 1.433 . S
C577 N580 1.384 . S
C578 H569 0.929 . S
C578 C570 1.378 . S
C578 C573 1.350 . S
C579 H566 0.929 . S
C579 C571 1.433 . S
C579 N581 1.384 . S
N580 C576 1.427 . S
N580 C577 1.384 . S
N581 C573 1.427 . S
N581 C579 1.384 . S
H582 C588 0.930 . S
H583 C592 0.930 . S
H584 C597 0.929 . S
H585 C595 0.929 . S
H586 C590 0.929 . S
H587 C596 0.929 . S
C588 H582 0.930 . S
C588 C589 1.367 . S
C588 C596 1.378 . S
C589 C588 1.367 . S
C589 C597 1.433 . S
C590 H586 0.929 . S
C590 C592 1.378 . S
C590 C594 1.350 . S
C591 C594 1.463 . S
C591 C596 1.350 . S
C591 N599 1.427 . S
C592 H583 0.930 . S
C592 C590 1.378 . S
C592 C593 1.367 . S
C593 C592 1.367 . S
C593 C595 1.433 . S
C594 C590 1.350 . S
C594 C591 1.463 . S
C594 N598 1.427 . S
C595 H585 0.929 . S
C595 C593 1.433 . S
C595 N598 1.384 . S
C596 H587 0.929 . S
C596 C588 1.378 . S
C596 C591 1.350 . S
C597 H584 0.929 . S
C597 C589 1.433 . S
C597 N599 1.384 . S
N598 C594 1.427 . S
N598 C595 1.384 . S
N599 C591 1.427 . S
N599 C597 1.384 . S
H600 C606 0.930 1_545 S
H601 C610 0.930 . S
H602 C615 0.929 . S
H603 C613 0.929 . S
H604 C608 0.929 . S
H605 C614 0.917 1_545 S
C606 H600 0.930 1_565 S
C606 C607 1.367 . S
C606 C614 1.378 1_455 S
C607 C606 1.367 . S
C607 C615 1.433 . S
C608 H604 0.929 . S
C608 C610 1.378 . S
C608 C612 1.350 . S
C609 C612 1.463 . S
C609 C614 1.350 . S
C609 N617 1.427 . S
C610 H601 0.930 . S
C610 C608 1.378 . S
C610 C611 1.367 . S
C611 C610 1.367 . S
C611 C613 1.433 . S
C612 C608 1.350 . S
C612 C609 1.463 . S
C612 N616 1.427 . S
C613 H603 0.929 . S
C613 C611 1.433 . S
C613 N616 1.384 . S
C614 H605 0.917 1_565 S
C614 C606 1.378 1_655 S
C614 C609 1.350 . S
C615 H602 0.929 . S
C615 C607 1.433 . S
C615 N617 1.384 1_455 S
N616 C612 1.427 . S
N616 C613 1.384 . S
N617 C609 1.427 . S
N617 C615 1.384 1_655 S
H618 C624 0.930 . S
H619 C628 0.930 . S
H620 C633 0.929 . S
H621 C631 0.929 . S
H622 C626 0.929 . S
H623 C632 0.929 . S
C624 H618 0.930 . S
C624 C625 1.367 . S
C624 C632 1.378 . S
C625 C624 1.367 . S
C625 C633 1.433 . S
C626 H622 0.929 . S
C626 C628 1.378 . S
C626 C630 1.350 . S
C627 C630 1.463 . S
C627 C632 1.350 . S
C627 N635 1.427 . S
C628 H619 0.930 . S
C628 C626 1.378 . S
C628 C629 1.367 . S
C629 C628 1.367 . S
C629 C631 1.433 . S
C630 C626 1.350 . S
C630 C627 1.463 . S
C630 N634 1.427 . S
C631 H621 0.929 . S
C631 C629 1.433 . S
C631 N634 1.384 . S
C632 H623 0.929 . S
C632 C624 1.378 . S
C632 C627 1.350 . S
C633 H620 0.929 . S
C633 C625 1.433 . S
C633 N635 1.384 . S
N634 C630 1.427 . S
N634 C631 1.384 . S
N635 C627 1.427 . S
N635 C633 1.384 . S
H636 C642 0.930 . S
H637 C646 0.930 . S
H638 C651 0.929 . S
H639 C649 0.929 . S
H640 C644 0.929 . S
H641 C650 0.929 . S
C642 H636 0.930 . S
C642 C643 1.367 . S
C642 C650 1.378 . S
C643 C642 1.367 . S
C643 C651 1.433 . S
C644 H640 0.929 . S
C644 C646 1.378 . S
C644 C648 1.350 . S
C645 C648 1.463 . S
C645 C650 1.350 . S
C645 N653 1.427 . S
C646 H637 0.930 . S
C646 C644 1.378 . S
C646 C647 1.367 . S
C647 C646 1.367 . S
C647 C649 1.433 . S
C648 C644 1.350 . S
C648 C645 1.463 . S
C648 N652 1.427 . S
C649 H639 0.929 . S
C649 C647 1.433 . S
C649 N652 1.384 . S
C650 H641 0.929 . S
C650 C642 1.378 . S
C650 C645 1.350 . S
C651 H638 0.929 . S
C651 C643 1.433 . S
C651 N653 1.384 . S
N652 C648 1.427 . S
N652 C649 1.384 . S
N653 C645 1.427 . S
N653 C651 1.384 . S
H654 C660 0.930 . S
H655 C664 0.930 . S
H656 C669 0.929 . S
H657 C667 0.929 . S
H658 C662 0.929 . S
H659 C668 0.929 . S
C660 H654 0.930 . S
C660 C661 1.367 . S
C660 C668 1.378 . S
C661 C660 1.367 . S
C661 C669 1.433 . S
C662 H658 0.929 . S
C662 C664 1.378 . S
C662 C666 1.350 . S
C663 C666 1.463 . S
C663 C668 1.350 . S
C663 N671 1.427 . S
C664 H655 0.930 . S
C664 C662 1.378 . S
C664 C665 1.367 . S
C665 C664 1.367 . S
C665 C667 1.433 . S
C666 C662 1.350 . S
C666 C663 1.463 . S
C666 N670 1.427 . S
C667 H657 0.929 . S
C667 C665 1.433 . S
C667 N670 1.384 . S
C668 H659 0.929 . S
C668 C660 1.378 . S
C668 C663 1.350 . S
C669 H656 0.929 . S
C669 C661 1.433 . S
C669 N671 1.384 . S
N670 C666 1.427 . S
N670 C667 1.384 . S
N671 C663 1.427 . S
N671 C669 1.384 . S
H672 C678 0.930 . S
H673 C682 0.930 . S
H674 C687 0.929 . S
H675 C685 0.929 . S
H676 C680 0.929 . S
H677 C686 0.929 . S
C678 H672 0.930 . S
C678 C679 1.367 . S
C678 C686 1.378 . S
C679 C678 1.367 . S
C679 C687 1.433 . S
C680 H676 0.929 . S
C680 C682 1.378 . S
C680 C684 1.350 . S
C681 C684 1.463 . S
C681 C686 1.350 1_565 S
C681 N689 1.427 . S
C682 H673 0.930 . S
C682 C680 1.378 . S
C682 C683 1.367 . S
C683 C682 1.367 . S
C683 C685 1.433 . S
C684 C680 1.350 . S
C684 C681 1.463 . S
C684 N688 1.427 . S
C685 H675 0.929 . S
C685 C683 1.433 . S
C685 N688 1.384 . S
C686 H677 0.929 . S
C686 C678 1.378 . S
C686 C681 1.350 1_545 S
C687 H674 0.929 . S
C687 C679 1.433 . S
C687 N689 1.384 1_545 S
N688 C684 1.427 . S
N688 C685 1.384 . S
N689 C681 1.427 . S
N689 C687 1.384 1_565 S
H690 C696 0.907 1_554 S
H691 C700 0.930 . S
H692 C705 0.929 . S
H693 C703 0.929 . S
H694 C698 0.929 . S
H695 C704 0.932 . S
C696 H690 0.907 1_556 S
C696 C697 1.381 . S
C696 C704 1.388 . S
C697 C696 1.381 . S
C697 C705 1.433 . S
C698 H694 0.929 . S
C698 C700 1.378 . S
C698 C702 1.350 . S
C699 C702 1.463 . S
C699 C704 1.350 . S
C699 N707 1.427 . S
C700 H691 0.930 . S
C700 C698 1.378 . S
C700 C701 1.367 . S
C701 C700 1.367 . S
C701 C703 1.433 . S
C702 C698 1.350 . S
C702 C699 1.463 . S
C702 N706 1.427 . S
C703 H693 0.929 . S
C703 C701 1.433 . S
C703 N706 1.384 . S
C704 H695 0.932 . S
C704 C696 1.388 . S
C704 C699 1.350 . S
C705 H692 0.929 . S
C705 C697 1.433 . S
C705 N707 1.384 . S
N706 C702 1.427 . S
N706 C703 1.384 . S
N707 C699 1.427 . S
N707 C705 1.384 . S
H708 C714 0.930 . S
H709 C718 0.930 . S
H710 C723 0.929 . S
H711 C721 0.929 . S
H712 C716 0.929 . S
H713 C722 0.929 . S
C714 H708 0.930 . S
C714 C715 1.367 . S
C714 C722 1.378 . S
C715 C714 1.367 . S
C715 C723 1.433 . S
C716 H712 0.929 . S
C716 C718 1.378 . S
C716 C720 1.350 . S
C717 C720 1.463 . S
C717 C722 1.350 . S
C717 N725 1.427 . S
C718 H709 0.930 . S
C718 C716 1.378 . S
C718 C719 1.367 . S
C719 C718 1.367 . S
C719 C721 1.433 . S
C720 C716 1.350 . S
C720 C717 1.463 . S
C720 N724 1.427 . S
C721 H711 0.929 . S
C721 C719 1.433 . S
C721 N724 1.384 . S
C722 H713 0.929 . S
C722 C714 1.378 . S
C722 C717 1.350 . S
C723 H710 0.929 . S
C723 C715 1.433 . S
C723 N725 1.384 . S
N724 C720 1.427 . S
N724 C721 1.384 . S
N725 C717 1.427 . S
N725 C723 1.384 . S
H726 C732 0.930 . S
H727 C736 0.930 . S
H728 C741 0.929 . S
H729 C739 0.929 . S
H730 C734 0.929 . S
H731 C740 0.929 . S
C732 H726 0.930 . S
C732 C733 1.367 . S
C732 C740 1.378 . S
C733 C732 1.367 . S
C733 C741 1.433 . S
C734 H730 0.929 . S
C734 C736 1.378 . S
C734 C738 1.350 . S
C735 C738 1.463 . S
C735 C740 1.350 . S
C735 N743 1.427 . S
C736 H727 0.930 . S
C736 C734 1.378 . S
C736 C737 1.367 . S
C737 C736 1.367 . S
C737 C739 1.433 . S
C738 C734 1.350 . S
C738 C735 1.463 . S
C738 N742 1.427 . S
C739 H729 0.929 . S
C739 C737 1.433 . S
C739 N742 1.384 . S
C740 H731 0.929 . S
C740 C732 1.378 . S
C740 C735 1.350 . S
C741 H728 0.929 . S
C741 C733 1.433 . S
C741 N743 1.384 . S
N742 C738 1.427 . S
N742 C739 1.384 . S
N743 C735 1.427 . S
N743 C741 1.384 . S
H744 C750 0.930 . S
H745 C754 0.930 . S
H746 C759 0.929 . S
H747 C757 0.929 . S
H748 C752 0.929 . S
H749 C758 0.929 . S
C750 H744 0.930 . S
C750 C751 1.367 . S
C750 C758 1.378 . S
C751 C750 1.367 . S
C751 C759 1.433 . S
C752 H748 0.929 . S
C752 C754 1.378 . S
C752 C756 1.350 . S
C753 C756 1.463 . S
C753 C758 1.350 . S
C753 N761 1.427 . S
C754 H745 0.930 . S
C754 C752 1.378 . S
C754 C755 1.367 . S
C755 C754 1.367 . S
C755 C757 1.433 . S
C756 C752 1.350 . S
C756 C753 1.463 . S
C756 N760 1.427 . S
C757 H747 0.929 . S
C757 C755 1.433 . S
C757 N760 1.384 . S
C758 H749 0.929 . S
C758 C750 1.378 . S
C758 C753 1.350 . S
C759 H746 0.929 . S
C759 C751 1.433 . S
C759 N761 1.384 . S
N760 C756 1.427 . S
N760 C757 1.384 . S
N761 C753 1.427 . S
N761 C759 1.384 . S
H762 C768 0.930 . S
H763 C772 0.930 . S
H764 C777 0.929 . S
H765 C775 0.929 . S
H766 C770 0.929 . S
H767 C776 0.929 . S
C768 H762 0.930 . S
C768 C769 1.367 1_545 S
C768 C776 1.378 . S
C769 C768 1.367 1_565 S
C769 C777 1.433 . S
C770 H766 0.929 . S
C770 C772 1.378 . S
C770 C774 1.350 . S
C771 C774 1.463 . S
C771 C776 1.350 . S
C771 N779 1.427 . S
C772 H763 0.930 . S
C772 C770 1.378 . S
C772 C773 1.367 . S
C773 C772 1.367 . S
C773 C775 1.433 . S
C774 C770 1.350 . S
C774 C771 1.463 . S
C774 N778 1.427 . S
C775 H765 0.929 . S
C775 C773 1.433 . S
C775 N778 1.384 . S
C776 H767 0.929 . S
C776 C768 1.378 . S
C776 C771 1.350 . S
C777 H764 0.929 . S
C777 C769 1.433 . S
C777 N779 1.384 1_565 S
N778 C774 1.427 . S
N778 C775 1.384 . S
N779 C771 1.427 . S
N779 C777 1.384 1_545 S
H780 C786 0.930 . S
H781 C790 0.930 . S
H782 C795 0.929 . S
H783 C793 0.929 . S
H784 C788 0.929 . S
H785 C794 0.929 . S
C786 H780 0.930 . S
C786 C787 1.367 . S
C786 C794 1.378 . S
C787 C786 1.367 . S
C787 C795 1.433 . S
C788 H784 0.929 . S
C788 C790 1.378 . S
C788 C792 1.350 . S
C789 C792 1.463 . S
C789 C794 1.350 . S
C789 N797 1.427 . S
C790 H781 0.930 . S
C790 C788 1.378 . S
C790 C791 1.367 . S
C791 C790 1.367 . S
C791 C793 1.433 . S
C792 C788 1.350 . S
C792 C789 1.463 . S
C792 N796 1.427 . S
C793 H783 0.929 . S
C793 C791 1.433 . S
C793 N796 1.384 . S
C794 H785 0.929 . S
C794 C786 1.378 . S
C794 C789 1.350 . S
C795 H782 0.929 . S
C795 C787 1.433 . S
C795 N797 1.384 . S
N796 C792 1.427 . S
N796 C793 1.384 . S
N797 C789 1.427 . S
N797 C795 1.384 . S
H798 C804 0.930 . S
H799 C808 0.930 . S
H800 C813 0.929 . S
H801 C811 0.929 . S
H802 C806 0.929 . S
H803 C812 0.929 . S
C804 H798 0.930 . S
C804 C805 1.367 . S
C804 C812 1.378 . S
C805 C804 1.367 . S
C805 C813 1.433 . S
C806 H802 0.929 . S
C806 C808 1.378 . S
C806 C810 1.350 . S
C807 C810 1.463 . S
C807 C812 1.350 . S
C807 N815 1.427 . S
C808 H799 0.930 . S
C808 C806 1.378 . S
C808 C809 1.367 . S
C809 C808 1.367 . S
C809 C811 1.433 . S
C810 C806 1.350 . S
C810 C807 1.463 . S
C810 N814 1.427 . S
C811 H801 0.929 . S
C811 C809 1.433 . S
C811 N814 1.384 . S
C812 H803 0.929 . S
C812 C804 1.378 . S
C812 C807 1.350 . S
C813 H800 0.929 . S
C813 C805 1.433 . S
C813 N815 1.384 . S
N814 C810 1.427 . S
N814 C811 1.384 . S
N815 C807 1.427 . S
N815 C813 1.384 . S
H816 C822 0.930 . S
H817 C826 0.930 . S
H818 C831 0.929 . S
H819 C829 0.929 1_545 S
H820 C824 0.929 . S
H821 C830 0.929 . S
C822 H816 0.930 . S
C822 C823 1.367 . S
C822 C830 1.378 . S
C823 C822 1.367 . S
C823 C831 1.433 . S
C824 H820 0.929 . S
C824 C826 1.378 . S
C824 C828 1.350 . S
C825 C828 1.463 . S
C825 C830 1.350 . S
C825 N833 1.427 . S
C826 H817 0.930 . S
C826 C824 1.378 . S
C826 C827 1.367 . S
C827 C826 1.367 . S
C827 C829 1.433 . S
C828 C824 1.350 . S
C828 C825 1.463 . S
C828 N832 1.427 . S
C829 H819 0.929 1_565 S
C829 C827 1.433 . S
C829 N832 1.384 . S
C830 H821 0.929 . S
C830 C822 1.378 . S
C830 C825 1.350 . S
C831 H818 0.929 . S
C831 C823 1.433 . S
C831 N833 1.384 . S
N832 C828 1.427 . S
N832 C829 1.384 . S
N833 C825 1.427 . S
N833 C831 1.384 . S
H834 C840 0.930 . S
H835 C844 0.930 . S
H836 C849 0.929 . S
H837 C847 0.929 . S
H838 C842 0.929 . S
H839 C848 0.929 . S
C840 H834 0.930 . S
C840 C841 1.367 . S
C840 C848 1.378 . S
C841 C840 1.367 . S
C841 C849 1.433 . S
C842 H838 0.929 . S
C842 C844 1.378 . S
C842 C846 1.350 . S
C843 C846 1.463 . S
C843 C848 1.350 . S
C843 N851 1.427 . S
C844 H835 0.930 . S
C844 C842 1.378 . S
C844 C845 1.367 . S
C845 C844 1.367 . S
C845 C847 1.433 . S
C846 C842 1.350 . S
C846 C843 1.463 . S
C846 N850 1.427 . S
C847 H837 0.929 . S
C847 C845 1.433 . S
C847 N850 1.384 . S
C848 H839 0.929 . S
C848 C840 1.378 . S
C848 C843 1.350 . S
C849 H836 0.929 . S
C849 C841 1.433 . S
C849 N851 1.384 . S
N850 C846 1.427 . S
N850 C847 1.384 . S
N851 C843 1.427 . S
N851 C849 1.384 . S
H852 C858 0.930 . S
H853 C862 0.930 . S
H854 C867 0.929 . S
H855 C865 0.929 . S
H856 C860 0.929 . S
H857 C866 0.929 . S
C858 H852 0.930 . S
C858 C859 1.367 . S
C858 C866 1.378 . S
C859 C858 1.367 . S
C859 C867 1.433 . S
C860 H856 0.929 . S
C860 C862 1.378 . S
C860 C864 1.350 . S
C861 C864 1.463 . S
C861 C866 1.350 1_556 S
C861 N869 1.427 . S
C862 H853 0.930 . S
C862 C860 1.378 . S
C862 C863 1.367 . S
C863 C862 1.367 . S
C863 C865 1.433 . S
C864 C860 1.350 . S
C864 C861 1.463 . S
C864 N868 1.427 . S
C865 H855 0.929 . S
C865 C863 1.433 . S
C865 N868 1.384 . S
C866 H857 0.929 . S
C866 C858 1.378 . S
C866 C861 1.350 1_554 S
C867 H854 0.929 . S
C867 C859 1.433 . S
C867 N869 1.384 1_554 S
N868 C864 1.427 . S
N868 C865 1.384 . S
N869 C861 1.427 . S
N869 C867 1.384 1_556 S
H870 C876 0.930 . S
H871 C880 0.930 . S
H872 C885 0.929 . S
H873 C883 0.929 . S
H874 C878 0.929 . S
H875 C884 0.929 . S
C876 H870 0.930 . S
C876 C877 1.367 . S
C876 C884 1.378 . S
C877 C876 1.367 . S
C877 C885 1.433 . S
C878 H874 0.929 . S
C878 C880 1.378 . S
C878 C882 1.350 . S
C879 C882 1.463 . S
C879 C884 1.350 . S
C879 N887 1.427 . S
C880 H871 0.930 . S
C880 C878 1.378 . S
C880 C881 1.367 . S
C881 C880 1.367 . S
C881 C883 1.433 . S
C882 C878 1.350 . S
C882 C879 1.463 . S
C882 N886 1.427 . S
C883 H873 0.929 . S
C883 C881 1.433 . S
C883 N886 1.384 . S
C884 H875 0.929 . S
C884 C876 1.378 . S
C884 C879 1.350 . S
C885 H872 0.929 . S
C885 C877 1.433 . S
C885 N887 1.384 . S
N886 C882 1.427 . S
N886 C883 1.384 . S
N887 C879 1.427 . S
N887 C885 1.384 . S
H888 C894 0.930 1_556 S
H889 C898 0.930 . S
H890 C903 0.929 . S
H891 C901 0.929 . S
H892 C896 0.929 . S
H893 C902 0.929 . S
C894 H888 0.930 1_554 S
C894 C895 1.367 . S
C894 C902 1.378 . S
C895 C894 1.367 . S
C895 C903 1.433 . S
C896 H892 0.929 . S
C896 C898 1.378 . S
C896 C900 1.350 . S
C897 C900 1.463 . S
C897 C902 1.350 . S
C897 N905 1.427 . S
C898 H889 0.930 . S
C898 C896 1.378 . S
C898 C899 1.367 . S
C899 C898 1.367 . S
C899 C901 1.433 . S
C900 C896 1.350 . S
C900 C897 1.463 . S
C900 N904 1.427 . S
C901 H891 0.929 . S
C901 C899 1.433 . S
C901 N904 1.384 . S
C902 H893 0.929 . S
C902 C894 1.378 . S
C902 C897 1.350 . S
C903 H890 0.929 . S
C903 C895 1.433 . S
C903 N905 1.384 . S
N904 C900 1.427 . S
N904 C901 1.384 . S
N905 C897 1.427 . S
N905 C903 1.384 . S
H906 C912 0.930 . S
H907 C916 0.930 . S
H908 C921 0.929 . S
H909 C919 0.929 . S
H910 C914 0.929 . S
H911 C920 0.929 . S
C912 H906 0.930 . S
C912 C913 1.367 . S
C912 C920 1.378 . S
C913 C912 1.367 . S
C913 C921 1.433 . S
C914 H910 0.929 . S
C914 C916 1.378 . S
C914 C918 1.350 . S
C915 C918 1.463 . S
C915 C920 1.350 . S
C915 N923 1.427 . S
C916 H907 0.930 . S
C916 C914 1.378 . S
C916 C917 1.367 . S
C917 C916 1.367 . S
C917 C919 1.433 . S
C918 C914 1.350 . S
C918 C915 1.463 . S
C918 N922 1.427 . S
C919 H909 0.929 . S
C919 C917 1.433 . S
C919 N922 1.384 . S
C920 H911 0.929 . S
C920 C912 1.378 . S
C920 C915 1.350 . S
C921 H908 0.929 . S
C921 C913 1.433 . S
C921 N923 1.384 . S
N922 C918 1.427 . S
N922 C919 1.384 . S
N923 C915 1.427 . S
N923 C921 1.384 . S
H924 C930 0.930 1_455 S
H925 C934 0.930 . S
H926 C939 0.929 . S
H927 C937 0.929 . S
H928 C932 0.929 . S
H929 C938 0.929 . S
C930 H924 0.930 1_655 S
C930 C931 1.367 . S
C930 C938 1.378 . S
C931 C930 1.367 . S
C931 C939 1.433 . S
C932 H928 0.929 . S
C932 C934 1.378 . S
C932 C936 1.350 . S
C933 C936 1.463 . S
C933 C938 1.350 . S
C933 N941 1.427 . S
C934 H925 0.930 . S
C934 C932 1.378 . S
C934 C935 1.367 . S
C935 C934 1.367 . S
C935 C937 1.433 . S
C936 C932 1.350 . S
C936 C933 1.463 . S
C936 N940 1.427 . S
C937 H927 0.929 . S
C937 C935 1.433 . S
C937 N940 1.384 . S
C938 H929 0.929 . S
C938 C930 1.378 . S
C938 C933 1.350 . S
C939 H926 0.929 . S
C939 C931 1.433 . S
C939 N941 1.384 . S
N940 C936 1.427 . S
N940 C937 1.384 . S
N941 C933 1.427 . S
N941 C939 1.384 . S
H942 C948 0.930 . S
H943 C952 0.930 . S
H944 C957 0.929 . S
H945 C955 0.929 . S
H946 C950 0.929 . S
H947 C956 0.929 . S
C948 H942 0.930 . S
C948 C949 1.367 . S
C948 C956 1.378 . S
C949 C948 1.367 . S
C949 C957 1.433 . S
C950 H946 0.929 . S
C950 C952 1.378 . S
C950 C954 1.350 . S
C951 C954 1.463 . S
C951 C956 1.350 . S
C951 N959 1.427 . S
C952 H943 0.930 . S
C952 C950 1.378 . S
C952 C953 1.367 . S
C953 C952 1.367 . S
C953 C955 1.433 . S
C954 C950 1.350 . S
C954 C951 1.463 . S
C954 N958 1.427 . S
C955 H945 0.929 . S
C955 C953 1.433 . S
C955 N958 1.384 . S
C956 H947 0.929 . S
C956 C948 1.378 . S
C956 C951 1.350 . S
C957 H944 0.929 . S
C957 C949 1.433 . S
C957 N959 1.384 . S
N958 C954 1.427 . S
N958 C955 1.384 . S
N959 C951 1.427 . S
N959 C957 1.384 . S
H960 C966 0.930 . S
H961 C970 0.930 . S
H962 C975 0.929 . S
H963 C973 0.929 1_554 S
H964 C968 0.929 . S
H965 C974 0.929 . S
C966 H960 0.930 . S
C966 C967 1.367 . S
C966 C974 1.378 . S
C967 C966 1.367 . S
C967 C975 1.433 . S
C968 H964 0.929 . S
C968 C970 1.378 . S
C968 C972 1.350 . S
C969 C972 1.463 . S
C969 C974 1.350 . S
C969 N977 1.427 . S
C970 H961 0.930 . S
C970 C968 1.378 . S
C970 C971 1.367 . S
C971 C970 1.367 . S
C971 C973 1.433 . S
C972 C968 1.350 . S
C972 C969 1.463 . S
C972 N976 1.427 . S
C973 H963 0.929 1_556 S
C973 C971 1.433 . S
C973 N976 1.384 . S
C974 H965 0.929 . S
C974 C966 1.378 . S
C974 C969 1.350 . S
C975 H962 0.929 . S
C975 C967 1.433 . S
C975 N977 1.384 . S
N976 C972 1.427 . S
N976 C973 1.384 . S
N977 C969 1.427 . S
N977 C975 1.384 . S
H978 C984 0.930 . S
H979 C988 0.930 . S
H980 C993 0.929 . S
H981 C991 0.929 . S
H982 C986 0.929 . S
H983 C992 0.929 . S
C984 H978 0.930 . S
C984 C985 1.367 . S
C984 C992 1.378 . S
C985 C984 1.367 . S
C985 C993 1.433 . S
C986 H982 0.929 . S
C986 C988 1.378 . S
C986 C990 1.350 . S
C987 C990 1.463 . S
C987 C992 1.350 . S
C987 N995 1.427 . S
C988 H979 0.930 . S
C988 C986 1.378 . S
C988 C989 1.367 . S
C989 C988 1.367 . S
C989 C991 1.433 . S
C990 C986 1.350 . S
C990 C987 1.463 . S
C990 N994 1.427 . S
C991 H981 0.929 . S
C991 C989 1.433 . S
C991 N994 1.384 . S
C992 H983 0.929 . S
C992 C984 1.378 . S
C992 C987 1.350 . S
C993 H980 0.929 . S
C993 C985 1.433 . S
C993 N995 1.384 . S
N994 C990 1.427 . S
N994 C991 1.384 . S
N995 C987 1.427 . S
N995 C993 1.384 . S
H996 C1002 0.925 1_655 S
H997 C1006 0.930 . S
H998 C1011 0.929 . S
H999 C1009 0.929 . S
H1000 C1004 0.929 . S
H1001 C1010 0.929 . S
C1002 H996 0.925 1_455 S
C1002 C1003 1.361 1_455 S
C1002 C1010 1.390 . S
C1003 C1002 1.361 1_655 S
C1003 C1011 1.433 . S
C1004 H1000 0.929 . S
C1004 C1006 1.378 . S
C1004 C1008 1.350 . S
C1005 C1008 1.463 . S
C1005 C1010 1.350 . S
C1005 N1013 1.427 . S
C1006 H997 0.930 . S
C1006 C1004 1.378 . S
C1006 C1007 1.367 . S
C1007 C1006 1.367 . S
C1007 C1009 1.433 . S
C1008 C1004 1.350 . S
C1008 C1005 1.463 . S
C1008 N1012 1.427 . S
C1009 H999 0.929 . S
C1009 C1007 1.433 . S
C1009 N1012 1.384 . S
C1010 H1001 0.929 . S
C1010 C1002 1.390 . S
C1010 C1005 1.350 . S
C1011 H998 0.929 . S
C1011 C1003 1.433 . S
C1011 N1013 1.384 1_655 S
N1012 C1008 1.427 . S
N1012 C1009 1.384 . S
N1013 C1005 1.427 . S
N1013 C1011 1.384 1_455 S
H1014 C1020 0.930 . S
H1015 C1024 0.930 . S
H1016 C1029 0.929 . S
H1017 C1027 0.929 . S
H1018 C1022 0.929 . S
H1019 C1028 0.929 . S
C1020 H1014 0.930 . S
C1020 C1021 1.367 . S
C1020 C1028 1.378 . S
C1021 C1020 1.367 . S
C1021 C1029 1.433 . S
C1022 H1018 0.929 . S
C1022 C1024 1.378 . S
C1022 C1026 1.350 . S
C1023 C1026 1.463 . S
C1023 C1028 1.350 . S
C1023 N1031 1.427 . S
C1024 H1015 0.930 . S
C1024 C1022 1.378 . S
C1024 C1025 1.367 . S
C1025 C1024 1.367 . S
C1025 C1027 1.433 . S
C1026 C1022 1.350 . S
C1026 C1023 1.463 . S
C1026 N1030 1.427 . S
C1027 H1017 0.929 . S
C1027 C1025 1.433 . S
C1027 N1030 1.384 . S
C1028 H1019 0.929 . S
C1028 C1020 1.378 . S
C1028 C1023 1.350 . S
C1029 H1016 0.929 . S
C1029 C1021 1.433 . S
C1029 N1031 1.384 . S
N1030 C1026 1.427 . S
N1030 C1027 1.384 . S
N1031 C1023 1.427 . S
N1031 C1029 1.384 . S
H1032 C1038 0.930 . S
H1033 C1042 0.930 . S
H1034 C1047 0.929 . S
H1035 C1045 0.929 . S
H1036 C1040 0.929 . S
H1037 C1046 0.929 . S
C1038 H1032 0.930 . S
C1038 C1039 1.367 . S
C1038 C1046 1.378 . S
C1039 C1038 1.367 . S
C1039 C1047 1.433 . S
C1040 H1036 0.929 . S
C1040 C1042 1.378 . S
C1040 C1044 1.350 . S
C1041 C1044 1.463 . S
C1041 C1046 1.350 . S
C1041 N1049 1.427 . S
C1042 H1033 0.930 . S
C1042 C1040 1.378 . S
C1042 C1043 1.367 . S
C1043 C1042 1.367 . S
C1043 C1045 1.433 . S
C1044 C1040 1.350 . S
C1044 C1041 1.463 . S
C1044 N1048 1.427 . S
C1045 H1035 0.929 . S
C1045 C1043 1.433 . S
C1045 N1048 1.384 . S
C1046 H1037 0.929 . S
C1046 C1038 1.378 . S
C1046 C1041 1.350 . S
C1047 H1034 0.929 . S
C1047 C1039 1.433 . S
C1047 N1049 1.384 . S
N1048 C1044 1.427 . S
N1048 C1045 1.384 . S
N1049 C1041 1.427 . S
N1049 C1047 1.384 . S
H1050 C1056 0.930 . S
H1051 C1060 0.930 . S
H1052 C1065 0.929 . S
H1053 C1063 0.929 . S
H1054 C1058 0.929 . S
H1055 C1064 0.929 . S
C1056 H1050 0.930 . S
C1056 C1057 1.367 . S
C1056 C1064 1.378 . S
C1057 C1056 1.367 . S
C1057 C1065 1.433 . S
C1058 H1054 0.929 . S
C1058 C1060 1.378 . S
C1058 C1062 1.350 . S
C1059 C1062 1.463 . S
C1059 C1064 1.350 . S
C1059 N1067 1.427 . S
C1060 H1051 0.930 . S
C1060 C1058 1.378 . S
C1060 C1061 1.367 . S
C1061 C1060 1.367 . S
C1061 C1063 1.433 . S
C1062 C1058 1.350 . S
C1062 C1059 1.463 . S
C1062 N1066 1.427 . S
C1063 H1053 0.929 . S
C1063 C1061 1.433 . S
C1063 N1066 1.384 . S
C1064 H1055 0.929 . S
C1064 C1056 1.378 . S
C1064 C1059 1.350 . S
C1065 H1052 0.929 . S
C1065 C1057 1.433 . S
C1065 N1067 1.384 . S
N1066 C1062 1.427 . S
N1066 C1063 1.384 . S
N1067 C1059 1.427 . S
N1067 C1065 1.384 . S
H1068 C1074 0.934 . S
H1069 C1078 0.930 . S
H1070 C1083 0.929 . S
H1071 C1081 0.929 . S
H1072 C1076 0.929 . S
H1073 C1082 0.929 . S
C1074 H1068 0.934 . S
C1074 C1075 1.370 . S
C1074 C1082 1.371 1_655 S
C1075 C1074 1.370 . S
C1075 C1083 1.433 . S
C1076 H1072 0.929 . S
C1076 C1078 1.378 . S
C1076 C1080 1.350 . S
C1077 C1080 1.463 . S
C1077 C1082 1.350 . S
C1077 N1085 1.427 . S
C1078 H1069 0.930 . S
C1078 C1076 1.378 . S
C1078 C1079 1.367 . S
C1079 C1078 1.367 . S
C1079 C1081 1.433 . S
C1080 C1076 1.350 . S
C1080 C1077 1.463 . S
C1080 N1084 1.427 . S
C1081 H1071 0.929 . S
C1081 C1079 1.433 . S
C1081 N1084 1.384 . S
C1082 H1073 0.929 . S
C1082 C1074 1.371 1_455 S
C1082 C1077 1.350 . S
C1083 H1070 0.929 . S
C1083 C1075 1.433 . S
C1083 N1085 1.384 1_655 S
N1084 C1080 1.427 . S
N1084 C1081 1.384 . S
N1085 C1077 1.427 . S
N1085 C1083 1.384 1_455 S
H1086 C1092 0.930 . S
H1087 C1096 0.930 . S
H1088 C1101 0.929 . S
H1089 C1099 0.929 . S
H1090 C1094 0.929 . S
H1091 C1100 0.929 . S
C1092 H1086 0.930 . S
C1092 C1093 1.367 . S
C1092 C1100 1.378 . S
C1093 C1092 1.367 . S
C1093 C1101 1.433 . S
C1094 H1090 0.929 . S
C1094 C1096 1.378 . S
C1094 C1098 1.350 . S
C1095 C1098 1.463 . S
C1095 C1100 1.350 . S
C1095 N1103 1.427 . S
C1096 H1087 0.930 . S
C1096 C1094 1.378 . S
C1096 C1097 1.367 . S
C1097 C1096 1.367 . S
C1097 C1099 1.433 . S
C1098 C1094 1.350 . S
C1098 C1095 1.463 . S
C1098 N1102 1.427 . S
C1099 H1089 0.929 . S
C1099 C1097 1.433 . S
C1099 N1102 1.384 . S
C1100 H1091 0.929 . S
C1100 C1092 1.378 . S
C1100 C1095 1.350 . S
C1101 H1088 0.929 . S
C1101 C1093 1.433 . S
C1101 N1103 1.384 . S
N1102 C1098 1.427 . S
N1102 C1099 1.384 . S
N1103 C1095 1.427 . S
N1103 C1101 1.384 . S
H1104 C1110 0.930 . S
H1105 C1114 0.930 . S
H1106 C1119 0.929 . S
H1107 C1117 0.929 . S
H1108 C1112 0.929 . S
H1109 C1118 0.929 . S
C1110 H1104 0.930 . S
C1110 C1111 1.367 . S
C1110 C1118 1.378 . S
C1111 C1110 1.367 . S
C1111 C1119 1.433 . S
C1112 H1108 0.929 . S
C1112 C1114 1.378 . S
C1112 C1116 1.350 . S
C1113 C1116 1.463 . S
C1113 C1118 1.350 . S
C1113 N1121 1.427 . S
C1114 H1105 0.930 . S
C1114 C1112 1.378 . S
C1114 C1115 1.367 . S
C1115 C1114 1.367 . S
C1115 C1117 1.433 . S
C1116 C1112 1.350 . S
C1116 C1113 1.463 . S
C1116 N1120 1.427 . S
C1117 H1107 0.929 . S
C1117 C1115 1.433 . S
C1117 N1120 1.384 . S
C1118 H1109 0.929 . S
C1118 C1110 1.378 . S
C1118 C1113 1.350 . S
C1119 H1106 0.929 . S
C1119 C1111 1.433 . S
C1119 N1121 1.384 . S
N1120 C1116 1.427 . S
N1120 C1117 1.384 . S
N1121 C1113 1.427 . S
N1121 C1119 1.384 . S
H1122 C1128 0.930 . S
H1123 C1132 0.930 . S
H1124 C1137 0.929 . S
H1125 C1135 0.929 . S
H1126 C1130 0.929 . S
H1127 C1136 0.929 . S
C1128 H1122 0.930 . S
C1128 C1129 1.367 1_545 S
C1128 C1136 1.378 . S
C1129 C1128 1.367 1_565 S
C1129 C1137 1.433 . S
C1130 H1126 0.929 . S
C1130 C1132 1.378 . S
C1130 C1134 1.350 . S
C1131 C1134 1.463 . S
C1131 C1136 1.350 . S
C1131 N1139 1.427 . S
C1132 H1123 0.930 . S
C1132 C1130 1.378 . S
C1132 C1133 1.367 . S
C1133 C1132 1.367 . S
C1133 C1135 1.433 . S
C1134 C1130 1.350 . S
C1134 C1131 1.463 . S
C1134 N1138 1.427 . S
C1135 H1125 0.929 . S
C1135 C1133 1.433 . S
C1135 N1138 1.384 . S
C1136 H1127 0.929 . S
C1136 C1128 1.378 . S
C1136 C1131 1.350 . S
C1137 H1124 0.929 . S
C1137 C1129 1.433 . S
C1137 N1139 1.384 1_565 S
N1138 C1134 1.427 . S
N1138 C1135 1.384 . S
N1139 C1131 1.427 . S
N1139 C1137 1.384 1_545 S
H1140 C1146 0.930 . S
H1141 C1150 0.930 . S
H1142 C1155 0.929 . S
H1143 C1153 0.929 . S
H1144 C1148 0.929 . S
H1145 C1154 0.929 . S
C1146 H1140 0.930 . S
C1146 C1147 1.367 . S
C1146 C1154 1.378 . S
C1147 C1146 1.367 . S
C1147 C1155 1.433 . S
C1148 H1144 0.929 . S
C1148 C1150 1.378 . S
C1148 C1152 1.350 . S
C1149 C1152 1.463 . S
C1149 C1154 1.350 . S
C1149 N1157 1.427 . S
C1150 H1141 0.930 . S
C1150 C1148 1.378 . S
C1150 C1151 1.367 . S
C1151 C1150 1.367 . S
C1151 C1153 1.433 . S
C1152 C1148 1.350 . S
C1152 C1149 1.463 . S
C1152 N1156 1.427 . S
C1153 H1143 0.929 . S
C1153 C1151 1.433 . S
C1153 N1156 1.384 . S
C1154 H1145 0.929 . S
C1154 C1146 1.378 . S
C1154 C1149 1.350 . S
C1155 H1142 0.929 . S
C1155 C1147 1.433 . S
C1155 N1157 1.384 . S
N1156 C1152 1.427 . S
N1156 C1153 1.384 . S
N1157 C1149 1.427 . S
N1157 C1155 1.384 . S
H1158 C1164 0.930 . S
H1159 C1168 0.930 . S
H1160 C1173 0.929 1_554 S
H1161 C1171 0.929 . S
H1162 C1166 0.929 . S
H1163 C1172 0.929 . S
C1164 H1158 0.930 . S
C1164 C1165 1.367 . S
C1164 C1172 1.378 . S
C1165 C1164 1.367 . S
C1165 C1173 1.433 . S
C1166 H1162 0.929 . S
C1166 C1168 1.378 . S
C1166 C1170 1.350 . S
C1167 C1170 1.463 . S
C1167 C1172 1.350 1_565 S
C1167 N1175 1.427 . S
C1168 H1159 0.930 . S
C1168 C1166 1.378 . S
C1168 C1169 1.367 . S
C1169 C1168 1.367 . S
C1169 C1171 1.433 . S
C1170 C1166 1.350 . S
C1170 C1167 1.463 . S
C1170 N1174 1.427 . S
C1171 H1161 0.929 . S
C1171 C1169 1.433 . S
C1171 N1174 1.384 . S
C1172 H1163 0.929 . S
C1172 C1164 1.378 . S
C1172 C1167 1.350 1_545 S
C1173 H1160 0.929 1_556 S
C1173 C1165 1.433 . S
C1173 N1175 1.384 1_545 S
N1174 C1170 1.427 . S
N1174 C1171 1.384 . S
N1175 C1167 1.427 . S
N1175 C1173 1.384 1_565 S
H1176 C1182 0.930 . S
H1177 C1186 0.930 . S
H1178 C1191 0.929 . S
H1179 C1189 0.929 . S
H1180 C1184 0.929 . S
H1181 C1190 0.929 . S
C1182 H1176 0.930 . S
C1182 C1183 1.367 . S
C1182 C1190 1.378 . S
C1183 C1182 1.367 . S
C1183 C1191 1.433 . S
C1184 H1180 0.929 . S
C1184 C1186 1.378 . S
C1184 C1188 1.350 . S
C1185 C1188 1.463 . S
C1185 C1190 1.350 . S
C1185 N1193 1.427 . S
C1186 H1177 0.930 . S
C1186 C1184 1.378 . S
C1186 C1187 1.367 . S
C1187 C1186 1.367 . S
C1187 C1189 1.433 . S
C1188 C1184 1.350 . S
C1188 C1185 1.463 . S
C1188 N1192 1.427 . S
C1189 H1179 0.929 . S
C1189 C1187 1.433 . S
C1189 N1192 1.384 . S
C1190 H1181 0.929 . S
C1190 C1182 1.378 . S
C1190 C1185 1.350 . S
C1191 H1178 0.929 . S
C1191 C1183 1.433 . S
C1191 N1193 1.384 . S
N1192 C1188 1.427 . S
N1192 C1189 1.384 . S
N1193 C1185 1.427 . S
N1193 C1191 1.384 . S
H1194 C1200 0.930 . S
H1195 C1204 0.930 . S
H1196 C1209 0.929 . S
H1197 C1207 0.929 . S
H1198 C1202 0.929 . S
H1199 C1208 0.929 . S
C1200 H1194 0.930 . S
C1200 C1201 1.367 . S
C1200 C1208 1.378 . S
C1201 C1200 1.367 . S
C1201 C1209 1.433 . S
C1202 H1198 0.929 . S
C1202 C1204 1.378 . S
C1202 C1206 1.350 . S
C1203 C1206 1.463 . S
C1203 C1208 1.350 . S
C1203 N1211 1.427 . S
C1204 H1195 0.930 . S
C1204 C1202 1.378 . S
C1204 C1205 1.367 . S
C1205 C1204 1.367 . S
C1205 C1207 1.433 . S
C1206 C1202 1.350 . S
C1206 C1203 1.463 . S
C1206 N1210 1.427 . S
C1207 H1197 0.929 . S
C1207 C1205 1.433 . S
C1207 N1210 1.384 . S
C1208 H1199 0.929 . S
C1208 C1200 1.378 . S
C1208 C1203 1.350 . S
C1209 H1196 0.929 . S
C1209 C1201 1.433 . S
C1209 N1211 1.384 . S
N1210 C1206 1.427 . S
N1210 C1207 1.384 . S
N1211 C1203 1.427 . S
N1211 C1209 1.384 . S
H1212 C1218 0.921 1_545 S
H1213 C1222 0.930 . S
H1214 C1227 0.929 . S
H1215 C1225 0.929 . S
H1216 C1220 0.929 . S
H1217 C1226 0.929 . S
C1218 H1212 0.921 1_565 S
C1218 C1219 1.367 . S
C1218 C1226 1.378 . S
C1219 C1218 1.367 . S
C1219 C1227 1.433 . S
C1220 H1216 0.929 . S
C1220 C1222 1.378 . S
C1220 C1224 1.350 . S
C1221 C1224 1.463 . S
C1221 C1226 1.350 . S
C1221 N1229 1.427 . S
C1222 H1213 0.930 . S
C1222 C1220 1.378 . S
C1222 C1223 1.367 . S
C1223 C1222 1.367 . S
C1223 C1225 1.433 . S
C1224 C1220 1.350 . S
C1224 C1221 1.463 . S
C1224 N1228 1.427 . S
C1225 H1215 0.929 . S
C1225 C1223 1.433 . S
C1225 N1228 1.384 . S
C1226 H1217 0.929 . S
C1226 C1218 1.378 . S
C1226 C1221 1.350 . S
C1227 H1214 0.929 . S
C1227 C1219 1.433 . S
C1227 N1229 1.384 . S
N1228 C1224 1.427 . S
N1228 C1225 1.384 . S
N1229 C1221 1.427 . S
N1229 C1227 1.384 . S
H1230 C1236 0.930 . S
H1231 C1240 0.930 . S
H1232 C1245 0.929 . S
H1233 C1243 0.929 . S
H1234 C1238 0.929 . S
H1235 C1244 0.929 . S
C1236 H1230 0.930 . S
C1236 C1237 1.367 . S
C1236 C1244 1.378 . S
C1237 C1236 1.367 . S
C1237 C1245 1.433 . S
C1238 H1234 0.929 . S
C1238 C1240 1.378 . S
C1238 C1242 1.350 . S
C1239 C1242 1.463 . S
C1239 C1244 1.350 . S
C1239 N1247 1.427 . S
C1240 H1231 0.930 . S
C1240 C1238 1.378 . S
C1240 C1241 1.367 . S
C1241 C1240 1.367 . S
C1241 C1243 1.433 . S
C1242 C1238 1.350 . S
C1242 C1239 1.463 . S
C1242 N1246 1.427 . S
C1243 H1233 0.929 . S
C1243 C1241 1.433 . S
C1243 N1246 1.384 . S
C1244 H1235 0.929 . S
C1244 C1236 1.378 . S
C1244 C1239 1.350 . S
C1245 H1232 0.929 . S
C1245 C1237 1.433 . S
C1245 N1247 1.384 . S
N1246 C1242 1.427 . S
N1246 C1243 1.384 . S
N1247 C1239 1.427 . S
N1247 C1245 1.384 . S
C395 C373 1.255 . S
C391 C8 1.306 . S
C409 C23 1.190 . S
C413 C326 1.061 . S
C427 C35 1.334 . S
C431 C337 1.266 . S
C449 C362 1.008 . S
C445 C45 1.179 . S
C463 C22 1.331 . S
C467 C380 1.264 . S
C485 C319 1.006 . S
C481 C31 1.117 . S
C503 C344 1.247 . S
C499 C49 1.348 . S
C521 C355 1.068 . S
C517 C9 1.144 . S
C535 C65 1.294 . S
C539 C356 1.284 . S
C557 C382 1.033 . S
C553 C73 1.168 . S
C575 C320 1.321 . S
C571 C93 1.302 1_565 S
C593 C346 1.008 . S
C589 C101 1.151 . S
C607 C59 1.291 . S
C611 C328 1.221 . S
C625 C79 1.150 . S
C629 C338 1.059 . S
C643 C87 1.291 . S
C647 C364 1.218 . S
C665 C374 1.144 . S
C661 C107 1.234 . S
C683 C211 1.349 . S
C679 C106 1.395 . S
C701 C194 1.222 . S
C697 C119 1.304 . S
C719 C220 1.119 . S
C715 C134 1.198 . S
C737 C238 1.217 . S
C733 C147 1.288 . S
C751 C64 1.171 . S
C755 C212 1.087 . S
C769 C78 1.341 . S
C773 C182 1.276 . S
C787 C133 1.232 . S
C791 C236 1.031 . S
C805 C161 1.196 . S
C809 C193 1.003 . S
C827 C247 1.254 . S
C823 C36 1.313 . S
C845 C272 1.091 . S
C841 C51 1.174 . S
C859 C7 1.332 . S
C863 C283 1.270 . S
C877 C17 1.178 . S
C881 C308 1.005 . S
C899 C254 1.257 . S
C895 C50 1.333 1_554 S
C917 C265 1.025 . S
C913 C3 1.111 . S
C931 C21 1.349 . S
C935 C290 1.230 . S
C953 C301 1.057 . S
C949 C37 1.150 . S
C967 C163 1.290 . S
C971 C302 1.294 . S
C985 C115 1.165 . S
C989 C256 1.039 . S
C1007 C266 1.317 . S
C1003 C135 1.321 . S
C1021 C143 1.139 . S
C1025 C292 0.989 . S
C1043 C274 1.221 . S
C1039 C157 1.287 . S
C1057 C121 1.167 . S
C1061 C284 1.074 . S
C1079 C310 1.230 . S
C1075 C129 1.281 . S
C1097 C248 1.166 . S
C1093 C149 1.228 . S
C1115 C175 1.333 . S
C1111 C148 1.395 . S
C1133 C230 1.225 . S
C1129 C77 1.305 . S
C1147 C92 1.210 . S
C1151 C184 1.100 . S
C1169 C202 1.217 . S
C1165 C105 1.288 . S
C1187 C176 1.094 . S
C1183 C162 1.180 . S
C1201 C120 1.343 . S
C1205 C218 1.283 . S
C1219 C91 1.229 . S
C1223 C200 1.016 . S
C1237 C63 1.197 . S
C1241 C229 1.011 . S
