# Generated by pormake.
# Topology ftw, (4,12)-cn, num edge types: 1
# Building blocks:
#     Node 0, Type 0, BuildingBlock: AZAVOO_clean_linker_0, # of connection points: 4
#     Node 1, Type 0, BuildingBlock: AZAVOO_clean_linker_0, # of connection points: 4
#     Node 2, Type 0, BuildingBlock: AZAVOO_clean_linker_0, # of connection points: 4
#     Node 3, Type 1, BuildingBlock: EZIPEK_clean_sbu_0, # of connection points: 12
#     Edge 4, Type (0, 1), None
#     Edge 5, Type (0, 1), None
#     Edge 6, Type (0, 1), None
#     Edge 7, Type (0, 1), None
#     Edge 8, Type (0, 1), None
#     Edge 9, Type (0, 1), None
#     Edge 10, Type (0, 1), None
#     Edge 11, Type (0, 1), None
#     Edge 12, Type (0, 1), None
#     Edge 13, Type (0, 1), None
#     Edge 14, Type (0, 1), None
#     Edge 15, Type (0, 1), None
# Relax obj value: 0.075
# Max RMSD: 0.221
# Mean RMSD: 0.176
data_MOF--net-ftw--node1-EZIPEK_clean_sbu_0--node2-AZAVOO_clean_linker_0--edge1-none
_symmetry_space_group_name_H-M    P1
_symmetry_Int_Tables_number       1
_symmetry_cell_setting            triclinic
loop_
_symmetry_equiv_pos_as_xyz
'x, y, z'
_cell_length_a     16.341932
_cell_length_b     16.285638
_cell_length_c     16.323101
_cell_angle_alpha  91.953924
_cell_angle_beta   87.925637
_cell_angle_gamma 92.101144
loop_
_atom_site_label
_atom_site_type_symbol
_atom_site_fract_x
_atom_site_fract_y
_atom_site_fract_z
_atom_type_partial_charge
H0 H 0.07411 0.98195 0.39536 0.0
H1 H 0.03777 0.44791 0.0367 0.0
H2 H 0.13241 0.46032 0.32065 0.0
H3 H 0.12607 0.33436 0.23518 0.0
H4 H 0.86274 0.33518 0.24747 0.0
H5 H 0.86851 0.46016 0.33634 0.0
H6 H 0.13947 0.33515 0.44671 0.0
H7 H 0.13702 0.1866 0.41741 0.0
H8 H 0.8723 0.18162 0.4334 0.0
H9 H 0.87557 0.33034 0.46036 0.0
H10 H 0.14969 0.38785 0.62896 0.0
H11 H 0.14833 0.28463 0.73594 0.0
H12 H 0.88441 0.2632 0.73 0.0
H13 H 0.8857 0.36669 0.62422 0.0
H14 H 0.16031 0.57207 0.66799 0.0
H15 H 0.18897 0.55797 0.81292 0.0
H16 H 0.933 0.49739 0.86413 0.0
H17 H 0.90448 0.51517 0.71984 0.0
H18 H 0.12617 0.71335 0.57134 0.0
H19 H 0.12722 0.79708 0.69915 0.0
H20 H 0.87085 0.73747 0.74363 0.0
H21 H 0.86913 0.6552 0.61471 0.0
H22 H 0.10776 0.61059 0.32147 0.0
H23 H 0.10269 0.71651 0.21955 0.0
H24 H 0.89573 0.82075 0.35077 0.0
H25 H 0.89727 0.71097 0.4507 0.0
O26 O 0.07364 0.04121 0.40218 0.0
O27 O 0.93756 0.04228 0.40926 0.0
O28 O 0.14789 0.52695 0.96333 0.0
O29 O 0.02655 0.46253 0.98132 0.0
C30 C 0.0049 0.49711 0.42392 0.0
C31 C 0.00951 0.43274 0.4798 0.0
C32 C 0.01675 0.45097 0.56288 0.0
C33 C 0.01744 0.53179 0.59357 0.0
C34 C 0.00666 0.59714 0.54037 0.0
C35 C 0.00323 0.58139 0.45329 0.0
C36 C 1.00092 0.4692 0.33667 0.0
C37 C 0.0731 0.43649 0.30148 0.0
C38 C 0.06963 0.36239 0.25566 0.0
C39 C 0.9941 0.32189 0.24159 0.0
C40 C 0.92177 0.36257 0.26321 0.0
C41 C 0.92511 0.43611 0.31054 0.0
C42 C 0.00767 0.34394 0.45307 0.0
C43 C 0.08102 0.30207 0.44196 0.0
C44 C 0.07941 0.21717 0.42577 0.0
C45 C 0.00437 0.17225 0.42264 0.0
C46 C 0.93103 0.21443 0.43431 0.0
C47 C 0.93272 0.29942 0.44955 0.0
C48 C 0.01777 0.38377 0.62002 0.0
C49 C 0.09198 0.36005 0.6505 0.0
C50 C 0.09115 0.30218 0.71104 0.0
C51 C 0.0162 0.2683 0.73989 0.0
C52 C 0.94236 0.29 0.70767 0.0
C53 C 0.94312 0.34795 0.6476 0.0
C54 C 0.03023 0.54543 0.68339 0.0
C55 C 0.10996 0.55919 0.71118 0.0
C56 C 0.1263 0.55018 0.79384 0.0
C57 C 0.06334 0.52555 0.84975 0.0
C58 C 0.98283 0.51607 0.82254 0.0
C59 C 0.96627 0.52689 0.74029 0.0
C60 C 0.99752 0.67829 0.58274 0.0
C61 C 0.06925 0.72132 0.60635 0.0
C62 C 0.0707 0.7656 0.68133 0.0
C63 C 1.00071 0.76742 0.73412 0.0
C64 C 0.92685 0.7321 0.70653 0.0
C65 C 0.92502 0.6888 0.6309 0.0
C66 C 1.00196 0.65054 0.39392 0.0
C67 C 0.05998 0.65481 0.32809 0.0
C68 C 0.0576 0.71613 0.26989 0.0
C69 C 0.99841 0.77665 0.27652 0.0
C70 C 0.94222 0.77502 0.34396 0.0
C71 C 0.94338 0.7122 0.40142 0.0
C72 C 0.00281 0.08144 0.41033 0.0
C73 C 0.08199 0.50561 0.93494 0.0
H74 H 0.59427 0.95028 0.96639 0.0
H75 H 0.96255 0.11677 0.6143 0.0
H76 H 0.65443 0.89067 0.41729 0.0
H77 H 0.73893 0.89566 0.28996 0.0
H78 H 0.7648 0.15884 0.32001 0.0
H79 H 0.67991 0.1543 0.44696 0.0
H80 H 0.51449 0.89705 0.31325 0.0
H81 H 0.54473 0.89444 0.1652 0.0
H82 H 0.58059 0.15895 0.17458 0.0
H83 H 0.55025 0.16058 0.3227 0.0
H84 H 0.34261 0.90733 0.3825 0.0
H85 H 0.23706 0.91224 0.27968 0.0
H86 H 0.27788 0.1751 0.26747 0.0
H87 H 0.38227 0.17041 0.37223 0.0
H88 H 0.3008 0.90405 0.54622 0.0
H89 H 0.1532 0.90668 0.57675 0.0
H90 H 0.16797 0.17245 0.58476 0.0
H91 H 0.31565 0.16886 0.55368 0.0
H92 H 0.42268 0.89339 0.67238 0.0
H93 H 0.29638 0.88974 0.75898 0.0
H94 H 0.30356 0.15423 0.77609 0.0
H95 H 0.42902 0.1583 0.68962 0.0
H96 H 0.68413 0.92124 0.57177 0.0
H97 H 0.79157 0.92219 0.67278 0.0
H98 H 0.67709 0.12243 0.80653 0.0
H99 H 0.57489 0.12739 0.7014 0.0
O100 O 0.58201 0.95278 0.02487 0.0
O101 O 0.60545 0.08809 0.03399 0.0
O102 O 0.01879 0.9779 0.61063 0.0
O103 O 0.02122 0.11416 0.60474 0.0
C104 C 0.57535 0.02482 0.47766 0.0
C105 C 0.51345 0.02977 0.4193 0.0
C106 C 0.43183 0.03501 0.44513 0.0
C107 C 0.40874 0.03407 0.52785 0.0
C108 C 0.46893 0.02953 0.58799 0.0
C109 C 0.55439 0.0258 0.56407 0.0
C110 C 0.65987 0.02227 0.44163 0.0
C111 C 0.68149 0.94918 0.3988 0.0
C112 C 0.72602 0.95233 0.32389 0.0
C113 C 0.75101 0.02836 0.29187 0.0
C114 C 0.74062 0.10004 0.34093 0.0
C115 C 0.69565 0.09707 0.41549 0.0
C116 C 0.53278 0.0287 0.32903 0.0
C117 C 0.52946 0.95426 0.28323 0.0
C118 C 0.54661 0.95299 0.19869 0.0
C119 C 0.5663 0.02637 0.15826 0.0
C120 C 0.56684 0.10122 0.20401 0.0
C121 C 0.54965 0.10236 0.28857 0.0
C122 C 0.36886 0.03857 0.38401 0.0
C123 C 0.32813 0.96584 0.35794 0.0
C124 C 0.26861 0.96865 0.29989 0.0
C125 C 0.2509 0.04399 0.26742 0.0
C126 C 0.29168 0.11681 0.29298 0.0
C127 C 0.3506 0.11415 0.35196 0.0
C128 C 0.31925 0.03623 0.55007 0.0
C129 C 0.27214 0.96274 0.55545 0.0
C130 C 0.18787 0.96443 0.57279 0.0
C131 C 0.14891 0.03981 0.58394 0.0
C132 C 0.19613 0.11339 0.57705 0.0
C133 C 0.28047 0.11157 0.55957 0.0
C134 C 0.43538 0.02614 0.67354 0.0
C135 C 0.39953 0.95058 0.69803 0.0
C136 C 0.32526 0.94852 0.74393 0.0
C137 C 0.28675 0.02191 0.76661 0.0
C138 C 0.32925 0.09698 0.75355 0.0
C139 C 0.40329 0.09915 0.7078 0.0
C140 C 0.61975 0.02421 0.62758 0.0
C141 C 0.68272 0.96698 0.62136 0.0
C142 C 0.74414 0.96692 0.67985 0.0
C143 C 0.74281 0.02206 0.74814 0.0
C144 C 0.67954 0.07844 0.75525 0.0
C145 C 0.62008 0.08056 0.69518 0.0
C146 C 0.58598 0.0246 0.06873 0.0
C147 C 0.05916 0.04177 0.60099 0.0
H148 H 0.41095 0.98334 0.91799 0.0
H149 H 0.0308 0.60918 0.12729 0.0
H150 H 0.3407 0.44367 0.87317 0.0
H151 H 0.25444 0.31711 0.87273 0.0
H152 H 0.23142 0.33427 0.13607 0.0
H153 H 0.31586 0.4618 0.13696 0.0
H154 H 0.48334 0.33427 0.8755 0.0
H155 H 0.45469 0.18562 0.86805 0.0
H156 H 0.40861 0.18758 0.13063 0.0
H157 H 0.43865 0.33602 0.1373 0.0
H158 H 0.66309 0.41914 0.88822 0.0
H159 H 0.76955 0.31637 0.88472 0.0
H160 H 0.70497 0.25872 0.13578 0.0
H161 H 0.602 0.36501 0.14077 0.0
H162 H 0.70007 0.58205 0.90099 0.0
H163 H 0.84631 0.61602 0.91389 0.0
H164 H 0.82273 0.57641 0.17438 0.0
H165 H 0.67572 0.54581 0.16111 0.0
H166 H 0.56762 0.69904 0.89061 0.0
H167 H 0.69436 0.78483 0.88579 0.0
H168 H 0.7035 0.78231 0.14887 0.0
H169 H 0.57589 0.69816 0.15423 0.0
H170 H 0.3185 0.596 0.90598 0.0
H171 H 0.21151 0.69746 0.90756 0.0
H172 H 0.31939 0.82332 0.11586 0.0
H173 H 0.42157 0.71731 0.11972 0.0
O174 O 0.42148 0.04218 0.9222 0.0
O175 O 0.38749 0.04838 0.05534 0.0
O176 O 0.97416 0.65171 0.99779 0.0
O177 O 0.97241 0.59964 0.12208 0.0
C178 C 0.42069 0.49639 0.00936 0.0
C179 C 0.48151 0.43651 0.01112 0.0
C180 C 0.56352 0.46086 0.01692 0.0
C181 C 0.5876 0.54351 0.02275 0.0
C182 C 0.52839 0.60506 0.0215 0.0
C183 C 0.44303 0.58256 0.01449 0.0
C184 C 0.33565 0.46213 0.00528 0.0
C185 C 0.31347 0.42287 0.93066 0.0
C186 C 0.26785 0.34841 0.93061 0.0
C187 C 0.24332 0.3128 0.00496 0.0
C188 C 0.25436 0.35842 0.07845 0.0
C189 C 0.29952 0.43314 0.07865 0.0
C190 C 0.46064 0.34629 0.00656 0.0
C191 C 0.46637 0.30253 0.93118 0.0
C192 C 0.45009 0.21764 0.92715 0.0
C193 C 0.4283 0.17489 0.99859 0.0
C194 C 0.42429 0.21875 0.07432 0.0
C195 C 0.44112 0.30354 0.07828 0.0
C196 C 0.62581 0.39854 0.01471 0.0
C197 C 0.67277 0.38472 0.94248 0.0
C198 C 0.73277 0.32667 0.94048 0.0
C199 C 0.7436 0.28094 0.00991 0.0
C200 C 0.69603 0.29388 0.0818 0.0
C201 C 0.63783 0.35376 0.08463 0.0
C202 C 0.67687 0.56428 0.03054 0.0
C203 C 0.7264 0.58189 0.96093 0.0
C204 C 0.80994 0.6007 0.96839 0.0
C205 C 0.84594 0.59931 0.04529 0.0
C206 C 0.79669 0.57852 0.11443 0.0
C207 C 0.71282 0.56125 0.10709 0.0
C208 C 0.5628 0.69064 0.02264 0.0
C209 C 0.59441 0.72022 0.94765 0.0
C210 C 0.66892 0.76558 0.94459 0.0
C211 C 0.71253 0.78175 0.01633 0.0
C212 C 0.6742 0.76409 0.09226 0.0
C213 C 0.59913 0.71977 0.09551 0.0
C214 C 0.37897 0.64722 0.0132 0.0
C215 C 0.31844 0.64379 0.95361 0.0
C216 C 0.25741 0.70256 0.9539 0.0
C217 C 0.25692 0.76848 0.01179 0.0
C218 C 0.31835 0.77354 0.07009 0.0
C219 C 0.37752 0.713 0.07173 0.0
C220 C 0.41083 0.08478 0.99403 0.0
C221 C 0.93459 0.61883 0.05342 0.0
C222 C 0.01417 0.2104 0.80403 0.0
C223 C 0.99174 0.24694 0.18915 0.0
C224 C 1.00049 0.82546 0.80494 0.0
C225 C 0.99466 0.83862 0.21134 0.0
C226 C 0.19284 0.83154 0.01126 0.0
C227 C 0.1882 0.23985 0.00475 0.0
C228 C 0.78578 0.83634 0.01336 0.0
C229 C 0.80447 0.21949 0.00755 0.0
C230 C 0.80688 0.03141 0.21965 0.0
C231 C 0.19079 0.04543 0.20562 0.0
C232 C 0.8063 0.02087 0.81201 0.0
C233 C 0.21381 0.0207 0.82158 0.0
Eu234 Eu 0.99873 0.18015 1.00121 0.0
O235 O 0.07081 0.10935 0.07963 0.0
O236 O 0.92792 0.09304 0.93224 0.0
Eu237 Eu 0.1533 0.033 0.01074 0.0
Eu238 Eu 0.84444 0.02633 0.01292 0.0
O239 O 0.07694 0.09836 0.93269 0.0
O240 O 0.92498 0.10489 0.08205 0.0
Eu241 Eu 0.00637 0.01897 0.8536 0.0
Eu242 Eu 0.99677 0.03886 0.16377 0.0
O243 O 0.07235 0.95239 0.93934 0.0
O244 O 0.06563 0.9602 0.08085 0.0
O245 O 0.92455 0.95799 0.08403 0.0
O246 O 0.92684 0.95089 0.9382 0.0
Eu247 Eu 0.99307 0.86997 0.00976 0.0
O248 O 0.00934 0.24113 0.88019 0.0
O249 O 0.98878 0.26266 0.1107 0.0
O250 O 0.991 0.79996 0.88266 0.0
O251 O 0.99648 0.80904 0.13361 0.0
O252 O 0.21827 0.91079 0.01742 0.0
O253 O 0.217 0.16342 0.0073 0.0
O254 O 0.76677 0.91385 0.00939 0.0
O255 O 0.77814 0.14356 0.02277 0.0
O256 O 0.88372 0.04258 0.24002 0.0
O257 O 0.11314 0.04365 0.2318 0.0
O258 O 0.88478 0.01308 0.78629 0.0
O259 O 0.13759 0.01747 0.79205 0.0
O260 O 0.86204 0.80723 0.01602 0.0
O261 O 0.11481 0.80416 0.00457 0.0
O262 O 0.88117 0.24484 0.99171 0.0
O263 O 0.11076 0.25891 0.00285 0.0
O264 O 0.99745 0.17207 0.22107 0.0
O265 O 0.99222 0.9185 0.23475 0.0
O266 O 0.01306 0.13192 0.78047 0.0
O267 O 0.00961 0.9022 0.78224 0.0
O268 O 0.2326 0.02659 0.89935 0.0
O269 O 0.21895 0.04286 0.12854 0.0
O270 O 0.77994 0.02902 0.89061 0.0
O271 O 0.77956 0.0217 0.14272 0.0
loop_
_geom_bond_atom_site_label_1
_geom_bond_atom_site_label_2
_geom_bond_distance
_geom_bond_site_symmetry_2
_ccdc_geom_bond_type
H0 O26 0.856 1_565 S
H1 O29 0.854 . S
H2 C37 0.930 . S
H3 C38 0.930 . S
H4 C40 0.930 . S
H5 C41 0.930 . S
H6 C43 0.931 . S
H7 C44 0.930 . S
H8 C46 0.930 . S
H9 C47 0.929 . S
H10 C49 0.930 . S
H11 C50 0.931 . S
H12 C52 0.930 . S
H13 C53 0.929 . S
H14 C55 0.931 . S
H15 C56 0.930 . S
H16 C58 0.930 . S
H17 C59 0.932 . S
H18 C61 0.930 . S
H19 C62 0.929 . S
H20 C64 0.931 . S
H21 C65 0.930 . S
H22 C67 0.929 . S
H23 C68 0.931 . S
H24 C70 0.930 . S
H25 C71 0.929 . S
O26 H0 0.856 1_545 S
O26 C72 1.300 1_455 S
O27 C72 1.209 . S
O28 C73 1.199 1_454 S
O29 H1 0.854 . S
O29 C73 1.297 1_554 S
C30 C31 1.404 1_455 S
C30 C35 1.397 . S
C30 C36 1.492 . S
C31 C30 1.404 1_655 S
C31 C32 1.396 . S
C31 C42 1.492 . S
C32 C31 1.396 . S
C32 C33 1.397 . S
C32 C48 1.509 . S
C33 C32 1.397 . S
C33 C34 1.412 1_655 S
C33 C54 1.485 . S
C34 C33 1.412 1_455 S
C34 C35 1.388 . S
C34 C60 1.490 . S
C35 C30 1.397 . S
C35 C34 1.388 . S
C35 C66 1.518 1_455 S
C36 C30 1.492 . S
C36 C37 1.363 . S
C36 C41 1.390 1_455 S
C37 H2 0.930 . S
C37 C36 1.363 . S
C37 C38 1.372 . S
C38 H3 0.930 . S
C38 C37 1.372 . S
C38 C39 1.383 . S
C39 C38 1.383 . S
C39 C40 1.395 1_455 S
C40 H4 0.930 . S
C40 C39 1.395 1_655 S
C40 C41 1.362 . S
C41 H5 0.930 . S
C41 C36 1.390 1_655 S
C41 C40 1.362 . S
C42 C31 1.492 . S
C42 C43 1.377 1_655 S
C42 C47 1.397 . S
C43 H6 0.931 . S
C43 C42 1.377 1_455 S
C43 C44 1.376 . S
C44 H7 0.930 . S
C44 C43 1.376 . S
C44 C45 1.376 1_455 S
C45 C44 1.376 1_655 S
C45 C46 1.378 . S
C45 C72 1.486 . S
C46 H8 0.930 . S
C46 C45 1.378 . S
C46 C47 1.376 . S
C47 H9 0.929 . S
C47 C42 1.397 . S
C47 C46 1.376 . S
C48 C32 1.509 . S
C48 C49 1.391 1_655 S
C48 C53 1.386 . S
C49 H10 0.930 . S
C49 C48 1.391 1_455 S
C49 C50 1.375 . S
C50 H11 0.931 . S
C50 C49 1.375 . S
C50 C51 1.375 1_455 S
C51 C50 1.375 1_655 S
C51 C52 1.361 . S
C52 H12 0.930 . S
C52 C51 1.361 . S
C52 C53 1.399 . S
C53 H13 0.929 . S
C53 C48 1.386 . S
C53 C52 1.399 . S
C54 C33 1.485 . S
C54 C55 1.394 1_655 S
C54 C59 1.360 . S
C55 H14 0.931 . S
C55 C54 1.394 1_455 S
C55 C56 1.372 . S
C56 H15 0.930 . S
C56 C55 1.372 . S
C56 C57 1.397 1_455 S
C57 C56 1.397 1_655 S
C57 C58 1.390 . S
C57 C73 1.476 . S
C58 H16 0.930 . S
C58 C57 1.390 . S
C58 C59 1.366 . S
C59 H17 0.932 . S
C59 C54 1.360 . S
C59 C58 1.366 . S
C60 C34 1.490 . S
C60 C61 1.380 . S
C60 C65 1.386 1_455 S
C61 H18 0.930 . S
C61 C60 1.380 . S
C61 C62 1.381 . S
C62 H19 0.929 . S
C62 C61 1.381 . S
C62 C63 1.371 . S
C63 C62 1.371 . S
C63 C64 1.380 1_455 S
C64 H20 0.931 . S
C64 C63 1.380 1_655 S
C64 C65 1.387 . S
C65 H21 0.930 . S
C65 C60 1.386 1_655 S
C65 C64 1.387 . S
C66 C35 1.518 1_655 S
C66 C67 1.369 1_655 S
C66 C71 1.370 . S
C67 H22 0.929 . S
C67 C66 1.369 1_455 S
C67 C68 1.386 . S
C68 H23 0.931 . S
C68 C67 1.386 . S
C68 C69 1.363 1_455 S
C69 C68 1.363 1_655 S
C69 C70 1.385 . S
C70 H24 0.930 . S
C70 C69 1.385 . S
C70 C71 1.396 . S
C71 H25 0.929 . S
C71 C66 1.370 . S
C71 C70 1.396 . S
C72 O26 1.300 1_655 S
C72 O27 1.209 . S
C72 C45 1.486 . S
C73 O28 1.199 1_656 S
C73 O29 1.297 1_556 S
C73 C57 1.476 . S
H74 O100 0.856 . S
H75 O103 0.854 1_655 S
H76 C111 0.930 . S
H77 C112 0.930 . S
H78 C114 0.930 . S
H79 C115 0.930 . S
H80 C117 0.931 . S
H81 C118 0.930 . S
H82 C120 0.930 . S
H83 C121 0.929 . S
H84 C123 0.930 . S
H85 C124 0.931 . S
H86 C126 0.930 . S
H87 C127 0.929 . S
H88 C129 0.931 . S
H89 C130 0.930 . S
H90 C132 0.930 . S
H91 C133 0.932 . S
H92 C135 0.930 . S
H93 C136 0.929 . S
H94 C138 0.931 . S
H95 C139 0.930 . S
H96 C141 0.929 . S
H97 C142 0.931 . S
H98 C144 0.930 . S
H99 C145 0.929 . S
O100 H74 0.856 . S
O100 C146 1.300 1_556 S
O101 C146 1.209 . S
O102 C147 1.199 1_565 S
O103 H75 0.854 1_455 S
O103 C147 1.297 . S
C104 C105 1.404 . S
C104 C109 1.397 . S
C104 C110 1.492 . S
C105 C104 1.404 . S
C105 C106 1.396 . S
C105 C116 1.492 . S
C106 C105 1.396 . S
C106 C107 1.397 . S
C106 C122 1.509 . S
C107 C106 1.397 . S
C107 C108 1.412 . S
C107 C128 1.485 . S
C108 C107 1.412 . S
C108 C109 1.388 . S
C108 C134 1.490 . S
C109 C104 1.397 . S
C109 C108 1.388 . S
C109 C140 1.519 . S
C110 C104 1.492 . S
C110 C111 1.363 1_545 S
C110 C115 1.390 . S
C111 H76 0.930 . S
C111 C110 1.363 1_565 S
C111 C112 1.372 . S
C112 H77 0.930 . S
C112 C111 1.372 . S
C112 C113 1.383 1_565 S
C113 C112 1.383 1_545 S
C113 C114 1.395 . S
C114 H78 0.930 . S
C114 C113 1.395 . S
C114 C115 1.362 . S
C115 H79 0.930 . S
C115 C110 1.390 . S
C115 C114 1.362 . S
C116 C105 1.492 . S
C116 C117 1.377 1_545 S
C116 C121 1.397 . S
C117 H80 0.931 . S
C117 C116 1.377 1_565 S
C117 C118 1.376 . S
C118 H81 0.930 . S
C118 C117 1.376 . S
C118 C119 1.376 1_565 S
C119 C118 1.376 1_545 S
C119 C120 1.378 . S
C119 C146 1.486 . S
C120 H82 0.930 . S
C120 C119 1.378 . S
C120 C121 1.376 . S
C121 H83 0.929 . S
C121 C116 1.397 . S
C121 C120 1.376 . S
C122 C106 1.509 . S
C122 C123 1.391 1_545 S
C122 C127 1.386 . S
C123 H84 0.930 . S
C123 C122 1.391 1_565 S
C123 C124 1.375 . S
C124 H85 0.931 . S
C124 C123 1.375 . S
C124 C125 1.375 1_565 S
C125 C124 1.375 1_545 S
C125 C126 1.361 . S
C126 H86 0.930 . S
C126 C125 1.361 . S
C126 C127 1.399 . S
C127 H87 0.929 . S
C127 C122 1.386 . S
C127 C126 1.399 . S
C128 C107 1.485 . S
C128 C129 1.394 1_545 S
C128 C133 1.360 . S
C129 H88 0.931 . S
C129 C128 1.394 1_565 S
C129 C130 1.372 . S
C130 H89 0.930 . S
C130 C129 1.372 . S
C130 C131 1.397 1_565 S
C131 C130 1.397 1_545 S
C131 C132 1.390 . S
C131 C147 1.476 . S
C132 H90 0.930 . S
C132 C131 1.390 . S
C132 C133 1.366 . S
C133 H91 0.932 . S
C133 C128 1.360 . S
C133 C132 1.366 . S
C134 C108 1.490 . S
C134 C135 1.380 1_545 S
C134 C139 1.386 . S
C135 H92 0.930 . S
C135 C134 1.380 1_565 S
C135 C136 1.381 . S
C136 H93 0.929 . S
C136 C135 1.381 . S
C136 C137 1.371 1_565 S
C137 C136 1.371 1_545 S
C137 C138 1.380 . S
C138 H94 0.931 . S
C138 C137 1.380 . S
C138 C139 1.387 . S
C139 H95 0.930 . S
C139 C134 1.386 . S
C139 C138 1.387 . S
C140 C109 1.519 . S
C140 C141 1.377 1_545 S
C140 C145 1.361 . S
C141 H96 0.929 . S
C141 C140 1.377 1_565 S
C141 C142 1.386 . S
C142 H97 0.931 . S
C142 C141 1.386 . S
C142 C143 1.363 1_565 S
C143 C142 1.363 1_545 S
C143 C144 1.385 . S
C144 H98 0.930 . S
C144 C143 1.385 . S
C144 C145 1.396 . S
C145 H99 0.929 . S
C145 C140 1.361 . S
C145 C144 1.396 . S
C146 O100 1.300 1_554 S
C146 O101 1.209 . S
C146 C119 1.486 . S
C147 O102 1.199 1_545 S
C147 O103 1.297 . S
C147 C131 1.476 . S
H148 O174 0.856 1_565 S
H149 O177 0.854 . S
H150 C185 0.930 . S
H151 C186 0.930 . S
H152 C188 0.930 . S
H153 C189 0.930 . S
H154 C191 0.931 . S
H155 C192 0.930 . S
H156 C194 0.930 . S
H157 C195 0.929 . S
H158 C197 0.930 . S
H159 C198 0.931 . S
H160 C200 0.930 . S
H161 C201 0.929 . S
H162 C203 0.931 . S
H163 C204 0.930 . S
H164 C206 0.930 . S
H165 C207 0.932 . S
H166 C209 0.930 . S
H167 C210 0.929 . S
H168 C212 0.931 . S
H169 C213 0.930 . S
H170 C215 0.929 . S
H171 C216 0.931 . S
H172 C218 0.930 . S
H173 C219 0.929 . S
O174 H148 0.856 1_545 S
O174 C220 1.300 1_556 S
O175 C220 1.209 . S
O176 C221 1.199 1_456 S
O177 H149 0.854 . S
O177 C221 1.297 1_455 S
C178 C179 1.404 . S
C178 C183 1.397 . S
C178 C184 1.493 . S
C179 C178 1.404 . S
C179 C180 1.396 . S
C179 C190 1.492 . S
C180 C179 1.396 . S
C180 C181 1.397 . S
C180 C196 1.509 . S
C181 C180 1.397 . S
C181 C182 1.412 . S
C181 C202 1.485 . S
C182 C181 1.412 . S
C182 C183 1.388 . S
C182 C208 1.490 1_554 S
C183 C178 1.397 . S
C183 C182 1.388 . S
C183 C214 1.519 . S
C184 C178 1.493 . S
C184 C185 1.357 1_554 S
C184 C189 1.395 . S
C185 H150 0.930 . S
C185 C184 1.357 1_556 S
C185 C186 1.372 . S
C186 H151 0.930 . S
C186 C185 1.372 . S
C186 C187 1.383 . S
C187 C186 1.383 . S
C187 C188 1.395 1_556 S
C188 H152 0.930 . S
C188 C187 1.395 1_554 S
C188 C189 1.362 . S
C189 H153 0.930 . S
C189 C184 1.395 . S
C189 C188 1.362 . S
C190 C179 1.492 . S
C190 C191 1.377 1_554 S
C190 C195 1.397 . S
C191 H154 0.931 . S
C191 C190 1.377 1_556 S
C191 C192 1.376 . S
C192 H155 0.930 . S
C192 C191 1.376 . S
C192 C193 1.376 1_556 S
C193 C192 1.376 1_554 S
C193 C194 1.378 . S
C193 C220 1.486 . S
C194 H156 0.930 . S
C194 C193 1.378 . S
C194 C195 1.376 . S
C195 H157 0.929 . S
C195 C190 1.397 . S
C195 C194 1.376 . S
C196 C180 1.509 . S
C196 C197 1.391 1_554 S
C196 C201 1.386 . S
C197 H158 0.930 . S
C197 C196 1.391 1_556 S
C197 C198 1.375 . S
C198 H159 0.931 . S
C198 C197 1.375 . S
C198 C199 1.375 1_556 S
C199 C198 1.375 1_554 S
C199 C200 1.361 . S
C200 H160 0.930 . S
C200 C199 1.361 . S
C200 C201 1.399 . S
C201 H161 0.929 . S
C201 C196 1.386 . S
C201 C200 1.399 . S
C202 C181 1.485 . S
C202 C203 1.394 1_554 S
C202 C207 1.360 . S
C203 H162 0.931 . S
C203 C202 1.394 1_556 S
C203 C204 1.372 . S
C204 H163 0.930 . S
C204 C203 1.372 . S
C204 C205 1.397 1_556 S
C205 C204 1.397 1_554 S
C205 C206 1.390 . S
C205 C221 1.476 . S
C206 H164 0.930 . S
C206 C205 1.390 . S
C206 C207 1.366 . S
C207 H165 0.932 . S
C207 C202 1.360 . S
C207 C206 1.366 . S
C208 C182 1.490 1_556 S
C208 C209 1.385 . S
C208 C213 1.381 1_556 S
C209 H166 0.930 . S
C209 C208 1.385 . S
C209 C210 1.381 . S
C210 H167 0.929 . S
C210 C209 1.381 . S
C210 C211 1.371 . S
C211 C210 1.371 . S
C211 C212 1.380 1_556 S
C212 H168 0.931 . S
C212 C211 1.380 1_554 S
C212 C213 1.387 . S
C213 H169 0.930 . S
C213 C208 1.381 1_554 S
C213 C212 1.387 . S
C214 C183 1.519 . S
C214 C215 1.377 1_554 S
C214 C219 1.361 . S
C215 H170 0.929 . S
C215 C214 1.377 1_556 S
C215 C216 1.386 . S
C216 H171 0.931 . S
C216 C215 1.386 . S
C216 C217 1.363 1_556 S
C217 C216 1.363 1_554 S
C217 C218 1.385 . S
C218 H172 0.930 . S
C218 C217 1.385 . S
C218 C219 1.396 . S
C219 H173 0.929 . S
C219 C214 1.361 . S
C219 C218 1.396 . S
C220 O174 1.300 1_554 S
C220 O175 1.209 . S
C220 C193 1.486 . S
C221 O176 1.199 1_654 S
C221 O177 1.297 1_655 S
C221 C205 1.476 . S
C222 O248 1.283 . S
C222 O266 1.283 . S
C223 O249 1.283 . S
C223 O264 1.283 . S
C224 O250 1.283 . S
C224 O267 1.283 . S
C225 O251 1.283 . S
C225 O265 1.283 . S
C226 O252 1.283 . S
C226 O261 1.283 . S
C227 O253 1.283 . S
C227 O263 1.283 . S
C228 O254 1.283 . S
C228 O260 1.283 . S
C229 O255 1.283 . S
C229 O262 1.283 . S
C230 O256 1.283 . S
C230 O271 1.283 . S
C231 O257 1.283 . S
C231 O269 1.283 . S
C232 O258 1.283 . S
C232 O270 1.283 . S
C233 O259 1.283 . S
C233 O268 1.283 . S
Eu234 O235 2.370 . S
Eu234 O236 2.370 1_454 S
Eu234 O239 2.370 1_554 S
Eu234 O240 2.370 1_455 S
Eu234 O248 2.363 1_554 S
Eu234 O249 2.363 . S
Eu234 O262 2.363 1_455 S
Eu234 O263 2.363 . S
O235 Eu234 2.370 . S
O235 Eu237 2.371 . S
O235 Eu242 2.364 1_455 S
O236 Eu234 2.370 1_656 S
O236 Eu238 2.370 1_556 S
O236 Eu241 2.370 1_655 S
Eu237 O235 2.371 . S
Eu237 O239 2.369 1_554 S
Eu237 O243 2.369 1_544 S
Eu237 O244 2.371 1_545 S
Eu237 O252 2.363 1_544 S
Eu237 O253 2.363 . S
Eu237 O268 2.362 1_554 S
Eu237 O269 2.364 . S
Eu238 O236 2.370 1_554 S
Eu238 O240 2.370 . S
Eu238 O245 2.370 1_545 S
Eu238 O246 2.370 1_544 S
Eu238 O254 2.363 1_545 S
Eu238 O255 2.363 . S
Eu238 O270 2.363 1_554 S
Eu238 O271 2.363 . S
O239 Eu234 2.370 1_556 S
O239 Eu237 2.369 1_556 S
O239 Eu241 2.370 . S
O240 Eu234 2.370 1_655 S
O240 Eu238 2.370 . S
O240 Eu242 2.377 . S
Eu241 O236 2.370 1_455 S
Eu241 O239 2.370 . S
Eu241 O243 2.370 1_545 S
Eu241 O246 2.370 1_445 S
Eu241 O258 2.363 1_455 S
Eu241 O259 2.363 . S
Eu241 O266 2.363 . S
Eu241 O267 2.363 1_545 S
Eu242 O235 2.364 1_655 S
Eu242 O240 2.377 . S
Eu242 O244 2.364 1_645 S
Eu242 O245 2.376 1_545 S
Eu242 O256 2.373 . S
Eu242 O257 2.352 1_655 S
Eu242 O264 2.363 1_655 S
Eu242 O265 2.363 1_545 S
O243 Eu237 2.369 1_566 S
O243 Eu241 2.370 1_565 S
O243 Eu247 2.363 1_456 S
O244 Eu237 2.371 1_565 S
O244 Eu242 2.364 1_465 S
O244 Eu247 2.365 1_455 S
O245 Eu238 2.370 1_565 S
O245 Eu242 2.376 1_565 S
O245 Eu247 2.377 . S
O246 Eu238 2.370 1_566 S
O246 Eu241 2.370 1_665 S
O246 Eu247 2.375 1_556 S
Eu247 O243 2.363 1_654 S
Eu247 O244 2.365 1_655 S
Eu247 O245 2.377 . S
Eu247 O246 2.375 1_554 S
Eu247 O250 2.362 1_654 S
Eu247 O251 2.364 . S
Eu247 O260 2.373 . S
Eu247 O261 2.353 1_654 S
O248 C222 1.283 . S
O248 Eu234 2.363 1_556 S
O249 C223 1.283 . S
O249 Eu234 2.363 . S
O250 C224 1.283 . S
O250 Eu247 2.362 1_456 S
O251 C225 1.283 . S
O251 Eu247 2.364 . S
O252 C226 1.283 . S
O252 Eu237 2.363 1_566 S
O253 C227 1.283 . S
O253 Eu237 2.363 . S
O254 C228 1.283 . S
O254 Eu238 2.363 1_565 S
O255 C229 1.283 . S
O255 Eu238 2.363 . S
O256 C230 1.283 . S
O256 Eu242 2.373 . S
O257 C231 1.283 . S
O257 Eu242 2.352 1_455 S
O258 C232 1.283 . S
O258 Eu241 2.363 1_655 S
O259 C233 1.283 . S
O259 Eu241 2.363 . S
O260 C228 1.283 . S
O260 Eu247 2.373 . S
O261 C226 1.283 . S
O261 Eu247 2.353 1_456 S
O262 C229 1.283 . S
O262 Eu234 2.363 1_655 S
O263 C227 1.283 . S
O263 Eu234 2.363 . S
O264 C223 1.283 . S
O264 Eu242 2.363 1_455 S
O265 C225 1.283 . S
O265 Eu242 2.363 1_565 S
O266 C222 1.283 . S
O266 Eu241 2.363 . S
O267 C224 1.283 . S
O267 Eu241 2.363 1_565 S
O268 C233 1.283 . S
O268 Eu237 2.362 1_556 S
O269 C231 1.283 . S
O269 Eu237 2.364 . S
O270 C232 1.283 . S
O270 Eu238 2.363 1_556 S
O271 C230 1.283 . S
O271 Eu238 2.363 . S
C223 C39 2.571 . S
C230 C113 2.573 . S
C225 C69 2.397 . S
C231 C125 0.669 . S
C63 C224 2.541 . S
C233 C137 2.541 . S
C51 C222 0.869 1_655 S
C143 C232 2.460 . S
C187 C227 2.563 1_556 S
C217 C226 2.452 1_554 S
C229 C199 0.667 . S
C228 C211 2.543 1_554 S
