# Generated by pormake.
# Topology anh, (6,3)-cn, num edge types: 1
# Building blocks:
#     Node 0, Type 0, BuildingBlock: BETDEL_clean_sbu_0, # of connection points: 6
#     Node 1, Type 0, BuildingBlock: BETDEL_clean_sbu_0, # of connection points: 6
#     Node 2, Type 0, BuildingBlock: BETDEL_clean_sbu_0, # of connection points: 6
#     Node 3, Type 1, BuildingBlock: KAKCAD_clean_linker_0, # of connection points: 3
#     Node 4, Type 1, BuildingBlock: KAKCAD_clean_linker_0, # of connection points: 3
#     Node 5, Type 1, BuildingBlock: KAKCAD_clean_linker_0, # of connection points: 3
#     Node 6, Type 1, BuildingBlock: KAKCAD_clean_linker_0, # of connection points: 3
#     Node 7, Type 1, BuildingBlock: KAKCAD_clean_linker_0, # of connection points: 3
#     Node 8, Type 1, BuildingBlock: KAKCAD_clean_linker_0, # of connection points: 3
#     Edge 9, Type (0, 1), BuildingBlock: ZUJKAS_clean_linker_0, # of connection points: 2
#     Edge 10, Type (0, 1), BuildingBlock: ZUJKAS_clean_linker_0, # of connection points: 2
#     Edge 11, Type (0, 1), BuildingBlock: ZUJKAS_clean_linker_0, # of connection points: 2
#     Edge 12, Type (0, 1), BuildingBlock: ZUJKAS_clean_linker_0, # of connection points: 2
#     Edge 13, Type (0, 1), BuildingBlock: ZUJKAS_clean_linker_0, # of connection points: 2
#     Edge 14, Type (0, 1), BuildingBlock: ZUJKAS_clean_linker_0, # of connection points: 2
#     Edge 15, Type (0, 1), BuildingBlock: ZUJKAS_clean_linker_0, # of connection points: 2
#     Edge 16, Type (0, 1), BuildingBlock: ZUJKAS_clean_linker_0, # of connection points: 2
#     Edge 17, Type (0, 1), BuildingBlock: ZUJKAS_clean_linker_0, # of connection points: 2
#     Edge 18, Type (0, 1), BuildingBlock: ZUJKAS_clean_linker_0, # of connection points: 2
#     Edge 19, Type (0, 1), BuildingBlock: ZUJKAS_clean_linker_0, # of connection points: 2
#     Edge 20, Type (0, 1), BuildingBlock: ZUJKAS_clean_linker_0, # of connection points: 2
#     Edge 21, Type (0, 1), BuildingBlock: ZUJKAS_clean_linker_0, # of connection points: 2
#     Edge 22, Type (0, 1), BuildingBlock: ZUJKAS_clean_linker_0, # of connection points: 2
#     Edge 23, Type (0, 1), BuildingBlock: ZUJKAS_clean_linker_0, # of connection points: 2
#     Edge 24, Type (0, 1), BuildingBlock: ZUJKAS_clean_linker_0, # of connection points: 2
#     Edge 25, Type (0, 1), BuildingBlock: ZUJKAS_clean_linker_0, # of connection points: 2
#     Edge 26, Type (0, 1), BuildingBlock: ZUJKAS_clean_linker_0, # of connection points: 2
# Relax obj value: 0.136
# Max RMSD: 0.165
# Mean RMSD: 0.130
data_MOF--net-anh--node1-BETDEL_clean_sbu_0--node2-KAKCAD_clean_linker_0--edge1-ZUJKAS_clean_linker_0
_symmetry_space_group_name_H-M    P1
_symmetry_Int_Tables_number       1
_symmetry_cell_setting            triclinic
loop_
_symmetry_equiv_pos_as_xyz
'x, y, z'
_cell_length_a     44.528152
_cell_length_b     44.545151
_cell_length_c     80.525584
_cell_angle_alpha  90.115076
_cell_angle_beta   90.013826
_cell_angle_gamma 119.99596
loop_
_atom_site_label
_atom_site_type_symbol
_atom_site_fract_x
_atom_site_fract_y
_atom_site_fract_z
_atom_type_partial_charge
Dy0 Dy 0.05377 0.49814 0.16578 0.0
C1 C 0.9707 0.55888 0.18714 0.0
C2 C 0.09955 0.47693 0.15774 0.0
Dy3 Dy 0.01061 0.53688 0.17173 0.0
O4 O 0.09866 0.49081 0.17177 0.0
O5 O 0.07521 0.4745 0.14789 0.0
O6 O 0.03499 0.47258 0.19055 0.0
O7 O 0.04223 0.52236 0.18646 0.0
C8 C 0.03131 0.49761 0.19659 0.0
C9 C 0.01812 0.5291 0.139 0.0
O10 O 0.06479 0.58115 0.17515 0.0
O11 O 0.09443 0.55485 0.16395 0.0
O12 O 0.99213 0.57511 0.17505 0.0
O13 O 0.97155 0.53096 0.19091 0.0
O14 O 1.00144 0.54401 0.14465 0.0
O15 O 0.02885 0.51969 0.15122 0.0
O16 O 1.00007 0.45445 0.16051 0.0
O17 O 0.97008 0.48014 0.17199 0.0
C18 C 0.09368 0.58253 0.16973 0.0
C19 C 0.97101 0.45284 0.16585 0.0
Dy20 Dy 0.49329 0.03563 0.49766 0.0
C21 C 0.63523 0.11717 0.51678 0.0
C22 C 0.42788 0.99302 0.48608 0.0
Dy23 Dy 0.57074 0.07443 0.5041 0.0
O24 O 0.43551 0.01068 0.49978 0.0
O25 O 0.45609 0.99893 0.47853 0.0
O26 O 0.48383 0.05079 0.52282 0.0
O27 O 0.52574 0.04233 0.51922 0.0
C28 C 0.51132 0.05265 0.52936 0.0
C29 C 0.55283 0.0577 0.47224 0.0
O30 O 0.56079 0.02107 0.50971 0.0
O31 O 0.50569 0.99209 0.49811 0.0
O32 O 0.62882 0.10172 0.50246 0.0
O33 O 0.60635 0.10906 0.52424 0.0
O34 O 0.58031 0.05961 0.47888 0.0
O35 O 0.53828 0.06789 0.48242 0.0
O36 O 0.50334 0.08924 0.49235 0.0
O37 O 0.55796 0.11753 0.50444 0.0
C38 C 0.53338 0.99215 0.50435 0.0
C39 C 0.53042 0.11778 0.49826 0.0
Dy40 Dy 0.58679 0.58823 0.83125 0.0
C41 C 0.52912 0.44611 0.84947 0.0
C42 C 0.60844 0.65382 0.82038 0.0
Dy43 Dy 0.54898 0.51042 0.8372 0.0
O44 O 0.60836 0.64505 0.83573 0.0
O45 O 0.59698 0.62673 0.81084 0.0
O46 O 0.61235 0.5967 0.85611 0.0
O47 O 0.56159 0.55505 0.85259 0.0
C48 C 0.58661 0.56922 0.86262 0.0
C49 C 0.54977 0.52875 0.80551 0.0
O50 O 0.50549 0.52002 0.84333 0.0
O51 O 0.53033 0.57401 0.83078 0.0
O52 O 0.51793 0.45226 0.83573 0.0
O53 O 0.55083 0.47514 0.85661 0.0
O54 O 0.52461 0.50081 0.812 0.0
O55 O 0.57443 0.54349 0.81573 0.0
O56 O 0.63214 0.58042 0.82711 0.0
O57 O 0.60516 0.52403 0.83717 0.0
C58 C 0.50323 0.54669 0.83755 0.0
C59 C 0.63329 0.5526 0.83205 0.0
C60 C 0.53122 0.05824 0.28524 0.0
C61 C 0.52178 0.02873 0.29502 0.0
C62 C 0.53302 0.05663 0.26795 0.0
C63 C 0.52559 0.0255 0.26001 0.0
C64 C 0.5161 0.99597 0.26981 0.0
C65 C 0.51414 0.99755 0.28709 0.0
C66 C 0.52775 0.02386 0.24159 0.0
C67 C 0.55451 0.05141 0.23279 0.0
C68 C 0.55672 0.05048 0.21538 0.0
C69 C 0.53156 0.02099 0.20667 0.0
C70 C 0.50462 0.99293 0.21536 0.0
C71 C 0.50302 0.99478 0.23274 0.0
C72 C 0.47721 0.96153 0.20671 0.0
C73 C 0.4567 0.96419 0.19419 0.0
C74 C 0.46872 0.92841 0.21243 0.0
C75 C 0.43961 0.89872 0.2063 0.0
C76 C 0.41796 0.90133 0.19438 0.0
C77 C 0.58603 0.08051 0.2068 0.0
C78 C 0.59528 0.11452 0.21145 0.0
C79 C 0.60705 0.07577 0.19528 0.0
C80 C 0.63769 0.10434 0.18932 0.0
C81 C 0.64787 0.13823 0.19473 0.0
C82 C 0.62569 0.14292 0.20551 0.0
C83 C 0.42722 0.93441 0.18816 0.0
H84 H 0.53681 0.08254 0.29096 0.0
H85 H 0.53982 0.07972 0.2608 0.0
H86 H 0.51073 0.9717 0.26414 0.0
H87 H 0.50728 0.97448 0.29428 0.0
H88 H 0.57432 0.07347 0.2396 0.0
H89 H 0.48177 0.97372 0.23937 0.0
H90 H 0.5329 0.01988 0.19327 0.0
H91 H 0.46247 0.9894 0.18964 0.0
H92 H 0.48407 0.92557 0.22209 0.0
H93 H 0.4332 0.8738 0.21149 0.0
H94 H 0.57935 0.11912 0.22008 0.0
H95 H 0.60075 0.0499 0.19153 0.0
H96 H 0.41132 0.93733 0.17885 0.0
H97 H 0.63213 0.16863 0.20961 0.0
H98 H 0.65414 0.09971 0.18106 0.0
C99 C 0.52695 0.57071 0.62035 0.0
C100 C 0.54976 0.56212 0.62827 0.0
C101 C 0.52381 0.56923 0.60305 0.0
C102 C 0.54365 0.55941 0.59323 0.0
C103 C 0.56674 0.55118 0.6012 0.0
C104 C 0.56964 0.55237 0.6185 0.0
C105 C 0.54037 0.5578 0.57478 0.0
C106 C 0.53629 0.5828 0.56608 0.0
C107 C 0.53356 0.5818 0.54868 0.0
C108 C 0.53533 0.55538 0.53981 0.0
C109 C 0.53933 0.52991 0.54835 0.0
C110 C 0.54151 0.53136 0.5658 0.0
C111 C 0.54089 0.50125 0.53946 0.0
C112 C 0.51713 0.48207 0.52683 0.0
C113 C 0.56467 0.49107 0.54462 0.0
C114 C 0.56377 0.46168 0.5379 0.0
C115 C 0.53919 0.4416 0.52571 0.0
C116 C 0.52951 0.60922 0.54019 0.0
C117 C 0.50426 0.61702 0.54574 0.0
C118 C 0.553 0.63021 0.5279 0.0
C119 C 0.55231 0.65946 0.52192 0.0
C120 C 0.5278 0.66798 0.52796 0.0
C121 C 0.50329 0.6459 0.53966 0.0
C122 C 0.51622 0.45252 0.52006 0.0
H123 H 0.51095 0.57787 0.62757 0.0
H124 H 0.50538 0.57524 0.59738 0.0
H125 H 0.58293 0.54416 0.59405 0.0
H126 H 0.58779 0.54605 0.62424 0.0
H127 H 0.53614 0.60379 0.57284 0.0
H128 H 0.54335 0.51124 0.57247 0.0
H129 H 0.53361 0.55467 0.52638 0.0
H130 H 0.49837 0.48911 0.52261 0.0
H131 H 0.58362 0.50547 0.55419 0.0
H132 H 0.58166 0.45407 0.54275 0.0
H133 H 0.48581 0.60127 0.55521 0.0
H134 H 0.57289 0.62494 0.52348 0.0
H135 H 0.49724 0.43802 0.51053 0.0
H136 H 0.48426 0.65178 0.5447 0.0
H137 H 0.57135 0.67577 0.5128 0.0
C138 C 0.09087 0.55843 0.95502 0.0
C139 C 0.06076 0.53278 0.9629 0.0
C140 C 0.09207 0.56188 0.93774 0.0
C141 C 0.0631 0.53991 0.92795 0.0
C142 C 0.03296 0.51435 0.93583 0.0
C143 C 0.03183 0.51077 0.9531 0.0
C144 C 0.06441 0.54334 0.90956 0.0
C145 C 0.09357 0.54802 0.90074 0.0
C146 C 0.09487 0.55043 0.88334 0.0
C147 C 0.06632 0.54825 0.87463 0.0
C148 C 0.03684 0.54392 0.88332 0.0
C149 C 0.03634 0.54152 0.90077 0.0
C150 C 1.00647 0.54238 0.8746 0.0
C151 C 0.01095 0.56623 0.86208 0.0
C152 C 0.97255 0.5186 0.87977 0.0
C153 C 0.94399 0.51953 0.87316 0.0
C154 C 0.9484 0.54418 0.86108 0.0
C155 C 0.12608 0.55421 0.87466 0.0
C156 C 0.15932 0.57956 0.87999 0.0
C157 C 0.12316 0.53019 0.86252 0.0
C158 C 0.15287 0.53042 0.8565 0.0
C159 C 0.1861 0.555 0.86233 0.0
C160 C 0.18895 0.58007 0.87384 0.0
C161 C 0.98226 0.56719 0.85543 0.0
H162 H 0.11367 0.57563 0.96221 0.0
H163 H 0.11558 0.582 0.93205 0.0
H164 H 0.01033 0.4968 0.92863 0.0
H165 H 1.00812 0.491 0.9588 0.0
H166 H 0.11505 0.54872 0.90743 0.0
H167 H 0.01425 0.53903 0.90762 0.0
H168 H 0.06707 0.54989 0.8612 0.0
H169 H 0.03671 0.58502 0.85785 0.0
H170 H 0.96807 0.49958 0.88925 0.0
H171 H 0.91851 0.50159 0.87799 0.0
H172 H 0.16233 0.59839 0.88934 0.0
H173 H 0.09786 0.51021 0.8583 0.0
H174 H 0.98667 0.58623 0.84598 0.0
H175 H 0.21402 0.59918 0.87871 0.0
H176 H 0.14981 0.51095 0.84752 0.0
C177 C 0.96589 0.51399 0.38069 0.0
C178 C 0.99559 0.52403 0.37093 0.0
C179 C 0.96853 0.51684 0.39801 0.0
C180 C 1.00091 0.52977 0.40584 0.0
C181 C 0.03037 0.53889 0.39608 0.0
C182 C 0.02774 0.53606 0.37884 0.0
C183 C 1.00445 0.53493 0.42408 0.0
C184 C 0.98082 0.50954 0.43496 0.0
C185 C 0.98484 0.51437 0.45226 0.0
C186 C 0.01267 0.54512 0.45863 0.0
C187 C 0.03643 0.57066 0.44787 0.0
C188 C 0.03205 0.56543 0.43066 0.0
C189 C 0.06596 0.60304 0.45437 0.0
C190 C 0.06085 0.62279 0.46647 0.0
C191 C 0.09922 0.61538 0.44771 0.0
C192 C 0.12665 0.64742 0.45263 0.0
C193 C 0.12138 0.66784 0.46428 0.0
C194 C 0.96044 0.4868 0.4636 0.0
C195 C 0.92467 0.46953 0.46039 0.0
C196 C 0.97279 0.47667 0.47733 0.0
C197 C 0.94987 0.44898 0.48731 0.0
C198 C 0.91421 0.43096 0.48372 0.0
C199 C 0.90181 0.44196 0.47036 0.0
C200 C 0.08833 0.65504 0.47134 0.0
H201 H 0.94079 0.50477 0.37493 0.0
H202 H 0.94543 0.50983 0.40522 0.0
H203 H 0.05555 0.54824 0.40179 0.0
H204 H 0.05095 0.54319 0.37169 0.0
H205 H 0.95993 0.48553 0.42995 0.0
H206 H 0.04992 0.58556 0.42234 0.0
H207 H 0.01598 0.5491 0.47194 0.0
H208 H 0.03538 0.61385 0.47173 0.0
H209 H 0.10388 0.60047 0.43847 0.0
H210 H 0.15174 0.65672 0.44686 0.0
H211 H 0.91437 0.4772 0.45008 0.0
H212 H 1.0003 0.48936 0.48001 0.0
H213 H 0.08366 0.67014 0.48045 0.0
H214 H 0.87436 0.42903 0.4675 0.0
H215 H 0.9602 0.44091 0.49744 0.0
C216 C 0.55737 0.10841 0.71495 0.0
C217 C 0.57998 0.1055 0.70373 0.0
C218 C 0.56024 0.10461 0.732 0.0
C219 C 0.58562 0.09759 0.73814 0.0
C220 C 0.60907 0.09605 0.72698 0.0
C221 C 0.60633 0.10002 0.70996 0.0
C222 C 0.58612 0.08941 0.75593 0.0
C223 C 0.58857 0.06031 0.7604 0.0
C224 C 0.58789 0.05126 0.77713 0.0
C225 C 0.58477 0.0717 0.78953 0.0
C226 C 0.58234 0.10096 0.78525 0.0
C227 C 0.58304 0.10968 0.76843 0.0
C228 C 0.57856 0.12228 0.79826 0.0
C229 C 0.55232 0.10688 0.81027 0.0
C230 C 0.60029 0.15839 0.79826 0.0
C231 C 0.59541 0.17889 0.80984 0.0
C232 C 0.5684 0.16368 0.82149 0.0
C233 C 0.59063 0.02045 0.78142 0.0
C234 C 0.57059 0.98915 0.77283 0.0
C235 C 0.61456 0.0226 0.79339 0.0
C236 C 0.61925 0.99427 0.79628 0.0
C237 C 0.59994 0.96325 0.7873 0.0
C238 C 0.5751 0.96083 0.77577 0.0
C239 C 0.54707 0.12746 0.82172 0.0
H240 H 0.53703 0.11297 0.7105 0.0
H241 H 0.54171 0.10576 0.74031 0.0
H242 H 0.62913 0.09103 0.7314 0.0
H243 H 0.62397 0.09736 0.70164 0.0
H244 H 0.59081 0.04443 0.7508 0.0
H245 H 0.58095 0.13213 0.76507 0.0
H246 H 0.58414 0.06483 0.80248 0.0
H247 H 0.53515 0.07905 0.81044 0.0
H248 H 0.6208 0.1708 0.78916 0.0
H249 H 0.61194 0.20678 0.80926 0.0
H250 H 0.55156 0.98666 0.76372 0.0
H251 H 0.6305 0.04656 0.80009 0.0
H252 H 0.52607 0.11517 0.83058 0.0
H253 H 0.55919 0.93704 0.76895 0.0
H254 H 0.63876 0.99706 0.80516 0.0
C255 C 0.58227 0.50223 0.04768 0.0
C256 C 0.5727 0.52258 0.03819 0.0
C257 C 0.57749 0.49978 0.06489 0.0
C258 C 0.56288 0.5175 0.07292 0.0
C259 C 0.55387 0.53829 0.06345 0.0
C260 C 0.55868 0.54076 0.04629 0.0
C261 C 0.55603 0.51366 0.09103 0.0
C262 C 0.58071 0.51468 0.1022 0.0
C263 C 0.57431 0.51156 0.11939 0.0
C264 C 0.54265 0.507 0.12538 0.0
C265 C 0.51775 0.50586 0.11431 0.0
C266 C 0.52462 0.50916 0.09722 0.0
C267 C 0.48427 0.50103 0.12032 0.0
C268 C 0.46308 0.47329 0.13083 0.0
C269 C 0.47225 0.52285 0.11454 0.0
C270 C 0.43922 0.51647 0.11874 0.0
C271 C 0.41742 0.48797 0.12873 0.0
C272 C 0.60132 0.51411 0.13098 0.0
C273 C 0.61886 0.49595 0.12763 0.0
C274 C 0.61109 0.53613 0.14489 0.0
C275 C 0.63895 0.54104 0.15485 0.0
C276 C 0.6574 0.52389 0.1511 0.0
C277 C 0.64648 0.50066 0.13761 0.0
C278 C 0.42978 0.46666 0.13491 0.0
H279 H 0.59343 0.48817 0.04181 0.0
H280 H 0.58449 0.48341 0.07186 0.0
H281 H 0.54295 0.55259 0.0693 0.0
H282 H 0.55067 0.55635 0.03933 0.0
H283 H 0.6054 0.51901 0.09754 0.0
H284 H 0.50503 0.50748 0.08865 0.0
H285 H 0.53746 0.50452 0.13861 0.0
H286 H 0.47177 0.45602 0.13536 0.0
H287 H 0.48822 0.54451 0.10648 0.0
H288 H 0.43029 0.53315 0.11368 0.0
H289 H 0.61146 0.47836 0.11714 0.0
H290 H 0.59811 0.55062 0.14767 0.0
H291 H 0.41356 0.44468 0.14274 0.0
H292 H 0.65959 0.48639 0.13463 0.0
H293 H 0.64685 0.55926 0.16508 0.0
H294 H 0.10887 0.45206 0.1282 0.0
H295 H 0.15624 0.44103 0.12116 0.0
H296 H 0.19731 0.47096 0.17078 0.0
H297 H 0.1501 0.48129 0.17789 0.0
H298 H 0.22424 0.48894 0.12113 0.0
H299 H 0.20342 0.38443 0.16441 0.0
H300 H 0.17016 0.39523 0.16002 0.0
H301 H 0.20315 0.41938 0.17534 0.0
C302 C 0.12772 0.45562 0.13764 0.0
C303 C 0.12592 0.46747 0.15357 0.0
C304 C 0.15467 0.44931 0.13363 0.0
C305 C 0.17991 0.45453 0.14555 0.0
C306 C 0.17761 0.46577 0.16153 0.0
H307 H 0.39546 0.53274 0.13797 0.0
H308 H 0.3357 0.52045 0.14068 0.0
C309 C 0.15079 0.472 0.16553 0.0
C310 C 0.21082 0.45208 0.14101 0.0
H311 H 0.26278 0.42148 0.15505 0.0
C312 C 0.23232 0.47362 0.12832 0.0
C313 C 0.22114 0.4317 0.1502 0.0
C314 C 0.19801 0.40611 0.16312 0.0
C315 C 0.26492 0.47712 0.12533 0.0
C316 C 0.27655 0.45919 0.13557 0.0
C317 C 0.25409 0.43578 0.14746 0.0
C318 C 0.31258 0.46592 0.13468 0.0
C319 C 0.28685 0.50052 0.11145 0.0
C320 C 0.31933 0.43899 0.1312 0.0
C321 C 0.35351 0.4459 0.12981 0.0
C322 C 0.38138 0.47985 0.13191 0.0
C323 C 0.37447 0.50647 0.13602 0.0
C324 C 0.34038 0.49951 0.13749 0.0
H325 H 0.27057 0.5031 0.10173 0.0
H326 H 0.30451 0.52677 0.11653 0.0
H327 H 0.30281 0.49066 0.10557 0.0
H328 H 0.29818 0.41283 0.12916 0.0
H329 H 0.3581 0.42495 0.12653 0.0
H330 H 0.65148 0.15762 0.54457 0.0
H331 H 0.70581 0.21197 0.54967 0.0
H332 H 0.74985 0.19445 0.50552 0.0
H333 H 0.69619 0.14003 0.5006 0.0
H334 H 0.79894 0.2283 0.53099 0.0
H335 H 0.71853 0.28977 0.51833 0.0
H336 H 0.70666 0.26109 0.53582 0.0
H337 H 0.70193 0.24409 0.51514 0.0
C338 C 0.67317 0.16495 0.53625 0.0
C339 C 0.66958 0.1451 0.52202 0.0
C340 C 0.70408 0.19599 0.53915 0.0
C341 C 0.7315 0.20753 0.52776 0.0
C342 C 0.72895 0.18605 0.51443 0.0
H343 H 0.86276 0.36995 0.47141 0.0
H344 H 0.82159 0.31868 0.48682 0.0
C345 C 0.69822 0.15503 0.51158 0.0
C346 C 0.76051 0.24373 0.52793 0.0
H347 H 0.77849 0.32496 0.51686 0.0
C348 C 0.79461 0.24973 0.52842 0.0
C349 C 0.75464 0.27154 0.52443 0.0
C350 C 0.71854 0.26652 0.52328 0.0
C351 C 0.82283 0.28229 0.52433 0.0
C352 C 0.81658 0.30921 0.51972 0.0
C353 C 0.78292 0.30406 0.52051 0.0
C354 C 0.84297 0.34019 0.51093 0.0
C355 C 0.8588 0.2871 0.52363 0.0
C356 C 0.86861 0.3691 0.5195 0.0
C357 C 0.89215 0.39871 0.5107 0.0
C358 C 0.89008 0.39968 0.49328 0.0
C359 C 0.86459 0.3703 0.48483 0.0
C360 C 0.84124 0.34091 0.49359 0.0
H361 H 0.85972 0.26437 0.52866 0.0
H362 H 0.86786 0.29118 0.51054 0.0
H363 H 0.87706 0.31055 0.53078 0.0
H364 H 0.87007 0.36889 0.53292 0.0
H365 H 0.91146 0.42104 0.51753 0.0
H366 H 0.62697 0.71002 0.83995 0.0
H367 H 0.63166 0.76507 0.83192 0.0
H368 H 0.61181 0.73104 0.78086 0.0
H369 H 0.60627 0.67539 0.78892 0.0
H370 H 0.67304 0.81698 0.80976 0.0
H371 H 0.53405 0.75138 0.79132 0.0
H372 H 0.55243 0.72944 0.8026 0.0
H373 H 0.5595 0.7364 0.78062 0.0
C374 C 0.62398 0.71442 0.82698 0.0
C375 C 0.61588 0.68842 0.81506 0.0
C376 C 0.62672 0.74587 0.82241 0.0
C377 C 0.62142 0.75181 0.80586 0.0
C378 C 0.61526 0.72661 0.79376 0.0
H379 H 0.60219 0.92082 0.76337 0.0
H380 H 0.61004 0.87076 0.76719 0.0
C381 C 0.61232 0.695 0.79835 0.0
C382 C 0.62045 0.78358 0.80159 0.0
H383 H 0.5664 0.81195 0.78791 0.0
C384 C 0.64981 0.81593 0.8049 0.0
C385 C 0.58997 0.78203 0.79538 0.0
C386 C 0.55706 0.748 0.7924 0.0
C387 C 0.64946 0.84686 0.80217 0.0
C388 C 0.6189 0.84521 0.79612 0.0
C389 C 0.58979 0.81296 0.79252 0.0
C390 C 0.61609 0.87659 0.79384 0.0
C391 C 0.6817 0.88104 0.80574 0.0
C392 C 0.61671 0.8962 0.80762 0.0
C393 C 0.61179 0.92458 0.80552 0.0
C394 C 0.60608 0.9337 0.78961 0.0
C395 C 0.60592 0.91413 0.77583 0.0
C396 C 0.61068 0.88572 0.77795 0.0
H397 H 0.70507 0.87823 0.80671 0.0
H398 H 0.68607 0.90023 0.79589 0.0
H399 H 0.67845 0.89148 0.81771 0.0
H400 H 0.62021 0.88908 0.82002 0.0
H401 H 0.61161 0.93883 0.8164 0.0
H402 H 0.95506 0.60601 0.17457 0.0
H403 H 0.90105 0.6064 0.17863 0.0
H404 H 0.87053 0.5281 0.21653 0.0
H405 H 0.92428 0.52687 0.21208 0.0
H406 H 0.82532 0.50631 0.19247 0.0
H407 H 0.85097 0.63691 0.20927 0.0
H408 H 0.87769 0.63982 0.19203 0.0
H409 H 0.88334 0.62409 0.21174 0.0
C410 C 0.93742 0.58979 0.18419 0.0
C411 C 0.94352 0.56607 0.19285 0.0
C412 C 0.9066 0.59025 0.18662 0.0
C413 C 0.88171 0.56741 0.19797 0.0
C414 C 0.88937 0.546 0.20774 0.0
H415 H 0.66844 0.53266 0.18486 0.0
H416 H 0.72083 0.54366 0.20015 0.0
C417 C 0.92005 0.5453 0.20518 0.0
C418 C 0.84567 0.56091 0.19698 0.0
H419 H 0.79917 0.60226 0.19186 0.0
C420 C 0.81942 0.52716 0.19291 0.0
C421 C 0.8377 0.58793 0.19759 0.0
C422 C 0.86394 0.62411 0.20308 0.0
C423 C 0.78645 0.52038 0.18802 0.0
C424 C 0.77965 0.54804 0.18705 0.0
C425 C 0.80474 0.5812 0.19245 0.0
C426 C 0.74874 0.54368 0.17818 0.0
C427 C 0.7597 0.48406 0.18291 0.0
C428 C 0.7476 0.54064 0.16085 0.0
C429 C 0.71809 0.53459 0.15214 0.0
C430 C 0.68897 0.53129 0.1606 0.0
C431 C 0.69048 0.53517 0.17799 0.0
C432 C 0.72027 0.54138 0.18674 0.0
H433 H 0.76582 0.46451 0.18793 0.0
H434 H 0.73348 0.47771 0.1872 0.0
H435 H 0.75905 0.48216 0.16915 0.0
H436 H 0.76956 0.54266 0.15407 0.0
H437 H 0.71815 0.53262 0.13873 0.0
H438 H 0.36763 0.9782 0.5013 0.0
H439 H 0.31076 0.92648 0.49718 0.0
H440 H 0.35226 0.89375 0.45715 0.0
H441 H 0.40915 0.94574 0.46105 0.0
H442 H 0.28306 0.88121 0.45176 0.0
H443 H 0.29993 0.83302 0.51277 0.0
H444 H 0.3031 0.87484 0.51317 0.0
H445 H 0.33512 0.86923 0.50224 0.0
C446 C 0.36441 0.96032 0.4914 0.0
C447 C 0.39273 0.96561 0.4816 0.0
C448 C 0.33202 0.93079 0.48912 0.0
C449 C 0.32765 0.9061 0.47711 0.0
C450 C 0.35529 0.91252 0.46655 0.0
H451 H 0.18903 0.68781 0.47068 0.0
H452 H 0.23741 0.74692 0.47425 0.0
C453 C 0.38769 0.94215 0.46878 0.0
C454 C 0.29528 0.87229 0.47646 0.0
H455 H 0.24786 0.79757 0.49836 0.0
C456 C 0.27513 0.86296 0.46196 0.0
C457 C 0.28548 0.8485 0.48975 0.0
C458 C 0.30711 0.85664 0.50533 0.0
C459 C 0.24533 0.83022 0.46037 0.0
C460 C 0.23542 0.80656 0.47372 0.0
C461 C 0.25545 0.816 0.48825 0.0
C462 C 0.20567 0.77098 0.47243 0.0
C463 C 0.22536 0.82073 0.44425 0.0
C464 C 0.1718 0.76504 0.47067 0.0
C465 C 0.14413 0.73132 0.46859 0.0
C466 C 0.15 0.7031 0.46827 0.0
C467 C 0.18383 0.70912 0.47066 0.0
C468 C 0.21142 0.74278 0.47276 0.0
H469 H 0.2402 0.83918 0.43414 0.0
H470 H 0.21862 0.7942 0.44026 0.0
H471 H 0.20083 0.82107 0.44605 0.0
H472 H 0.16687 0.78652 0.47066 0.0
H473 H 0.11836 0.72747 0.46666 0.0
H474 H 0.561 0.4317 0.87454 0.0
H475 H 0.56316 0.37812 0.87794 0.0
H476 H 0.4891 0.33058 0.83822 0.0
H477 H 0.48694 0.38404 0.83465 0.0
H478 H 0.49234 0.28857 0.87339 0.0
H479 H 0.60515 0.35774 0.8306 0.0
H480 H 0.59787 0.38086 0.84707 0.0
H481 H 0.56911 0.3655 0.82959 0.0
C482 C 0.54434 0.40944 0.86691 0.0
C483 C 0.52412 0.41202 0.8542 0.0
C484 C 0.54552 0.37889 0.86891 0.0
C485 C 0.5263 0.35062 0.85831 0.0
C486 C 0.50388 0.35216 0.84657 0.0
H487 H 0.50632 0.16039 0.82619 0.0
H488 H 0.49633 0.20402 0.83939 0.0
C489 C 0.5028 0.38271 0.84451 0.0
C490 C 0.53427 0.32231 0.85729 0.0
H491 H 0.58684 0.29986 0.83662 0.0
C492 C 0.51323 0.29099 0.86555 0.0
C493 C 0.56169 0.32588 0.84714 0.0
C494 C 0.58491 0.35922 0.83803 0.0
C495 C 0.51854 0.2626 0.86356 0.0
C496 C 0.545 0.26566 0.85274 0.0
C497 C 0.56668 0.29752 0.84497 0.0
C498 C 0.54922 0.2358 0.848 0.0
C499 C 0.49574 0.22971 0.873 0.0
C500 C 0.58219 0.23889 0.84854 0.0
C501 C 0.58807 0.21431 0.84072 0.0
C502 C 0.56101 0.18606 0.83233 0.0
C503 C 0.52752 0.18171 0.83275 0.0
C504 C 0.52174 0.20655 0.8404 0.0
H505 H 0.48625 0.23523 0.88473 0.0
H506 H 0.47275 0.21257 0.8653 0.0
H507 H 0.5097 0.21557 0.876 0.0
H508 H 0.6038 0.26131 0.85429 0.0
H509 H 0.61407 0.21809 0.84065 0.0
H510 H 0.47893 0.92619 0.49935 0.0
H511 H 0.4786 0.87139 0.50251 0.0
H512 H 0.58712 0.92747 0.51543 0.0
H513 H 0.58748 0.98225 0.51275 0.0
H514 H 0.51361 0.84496 0.48667 0.0
H515 H 0.54873 0.8604 0.5534 0.0
H516 H 0.5363 0.88827 0.54291 0.0
H517 H 0.57979 0.89572 0.54101 0.0
C518 C 0.50273 0.92691 0.50294 0.0
C519 C 0.53316 0.95874 0.50596 0.0
C520 C 0.5025 0.89549 0.50471 0.0
C521 C 0.53265 0.89513 0.50954 0.0
C522 C 0.56325 0.9269 0.51217 0.0
H523 H 0.58475 0.73282 0.52508 0.0
H524 H 0.58607 0.78753 0.51945 0.0
C525 C 0.56345 0.9583 0.51053 0.0
C526 C 0.53218 0.8616 0.51159 0.0
H527 H 0.54981 0.8141 0.53919 0.0
C528 C 0.52136 0.83817 0.49819 0.0
C529 C 0.54221 0.85255 0.52663 0.0
C530 C 0.55207 0.87538 0.54186 0.0
C531 C 0.52088 0.80639 0.49933 0.0
C532 C 0.53129 0.79764 0.51429 0.0
C533 C 0.54209 0.82097 0.52768 0.0
C534 C 0.53056 0.7641 0.51647 0.0
C535 C 0.50977 0.78262 0.48444 0.0
C536 C 0.49892 0.73269 0.51658 0.0
C537 C 0.49808 0.70138 0.51982 0.0
C538 C 0.52888 0.70078 0.52298 0.0
C539 C 0.56061 0.73224 0.52248 0.0
C540 C 0.56139 0.76358 0.51937 0.0
H541 H 0.50986 0.79621 0.47287 0.0
H542 H 0.52705 0.77154 0.48271 0.0
H543 H 0.48304 0.76081 0.48646 0.0
H544 H 0.47476 0.73248 0.51458 0.0
H545 H 0.47323 0.67763 0.52004 0.0
H546 H 0.64478 0.49858 0.83785 0.0
H547 H 0.70036 0.50038 0.84029 0.0
H548 H 0.75427 0.6098 0.82966 0.0
H549 H 0.69868 0.60836 0.8272 0.0
H550 H 0.75684 0.52365 0.81642 0.0
H551 H 0.79557 0.60118 0.87477 0.0
H552 H 0.75135 0.57867 0.86737 0.0
H553 H 0.78278 0.61837 0.85773 0.0
C554 C 0.66839 0.52308 0.83594 0.0
C555 C 0.66713 0.55338 0.83238 0.0
C556 C 0.70019 0.52401 0.83733 0.0
C557 C 0.7315 0.55528 0.83536 0.0
C558 C 0.73044 0.58546 0.83144 0.0
H559 H 0.94479 0.6028 0.85421 0.0
H560 H 0.89378 0.60662 0.84622 0.0
C561 C 0.69858 0.58453 0.82995 0.0
C562 C 0.76513 0.55618 0.8377 0.0
H563 H 0.83519 0.58624 0.8636 0.0
C564 C 0.77406 0.53743 0.8267 0.0
C565 C 0.78765 0.57428 0.85107 0.0
C566 C 0.77892 0.59411 0.86352 0.0
C567 C 0.8049 0.53631 0.82868 0.0
C568 C 0.82704 0.55366 0.84232 0.0
C569 C 0.81833 0.57292 0.85315 0.0
C570 C 0.85862 0.5512 0.84597 0.0
C571 C 0.81364 0.51691 0.81598 0.0
C572 C 0.85608 0.5188 0.84846 0.0
C573 C 0.88531 0.5165 0.85282 0.0
C574 C 0.91785 0.54659 0.85505 0.0
C575 C 0.9204 0.57903 0.85237 0.0
C576 C 0.89113 0.58129 0.84793 0.0
H577 H 0.80087 0.51514 0.80387 0.0
H578 H 0.84206 0.52953 0.81397 0.0
H579 H 0.80417 0.4901 0.82044 0.0
H580 H 0.83126 0.49518 0.8474 0.0
H581 H 0.88228 0.49104 0.85461 0.0
H582 H 0.10315 0.64688 0.17734 0.0
H583 H 0.15783 0.70178 0.17948 0.0
H584 H 0.21426 0.64948 0.16706 0.0
H585 H 0.15978 0.59471 0.16447 0.0
H586 H 0.21135 0.72063 0.20015 0.0
H587 H 0.2587 0.73003 0.13574 0.0
H588 H 0.21484 0.69911 0.1417 0.0
H589 H 0.2495 0.69031 0.14564 0.0
C590 C 0.12715 0.64703 0.1749 0.0
C591 C 0.12688 0.61624 0.17062 0.0
C592 C 0.15847 0.67853 0.17615 0.0
C593 C 0.19031 0.68007 0.17315 0.0
C594 C 0.19012 0.64932 0.16898 0.0
H595 H 0.40695 0.83627 0.18715 0.0
H596 H 0.35158 0.78349 0.18154 0.0
C597 C 0.15882 0.61786 0.16761 0.0
C598 C 0.22367 0.71347 0.17512 0.0
H599 H 0.29968 0.76912 0.1555 0.0
C600 C 0.23048 0.73134 0.19032 0.0
C601 C 0.24881 0.72761 0.16232 0.0
C602 C 0.2425 0.71097 0.14538 0.0
C603 C 0.26185 0.76234 0.19317 0.0
C604 C 0.2871 0.77615 0.18046 0.0
C605 C 0.28034 0.75847 0.16525 0.0
C606 C 0.32087 0.80869 0.18288 0.0
C607 C 0.26812 0.77969 0.20993 0.0
C608 C 0.32217 0.8406 0.18512 0.0
C609 C 0.35381 0.87086 0.18828 0.0
C610 C 0.38485 0.86984 0.18934 0.0
C611 C 0.38353 0.83795 0.18661 0.0
C612 C 0.35192 0.80777 0.18333 0.0
H613 H 0.24935 0.7623 0.2194 0.0
H614 H 0.29483 0.78819 0.21436 0.0
H615 H 0.26536 0.80303 0.20885 0.0
H616 H 0.2986 0.84202 0.18464 0.0
H617 H 0.35376 0.89483 0.19046 0.0
H618 H 0.58406 0.18287 0.50536 0.0
H619 H 0.58246 0.23684 0.50731 0.0
H620 H 0.47443 0.18236 0.49358 0.0
H621 H 0.47569 0.12807 0.49154 0.0
H622 H 0.56074 0.27039 0.48188 0.0
H623 H 0.47997 0.23157 0.53911 0.0
H624 H 0.50367 0.21049 0.53257 0.0
H625 H 0.46454 0.20147 0.52201 0.0
C626 C 0.55994 0.18227 0.50265 0.0
C627 C 0.52995 0.15097 0.49833 0.0
C628 C 0.55912 0.21323 0.50376 0.0
C629 C 0.52826 0.21358 0.50077 0.0
C630 C 0.49844 0.18261 0.49612 0.0
H631 H 0.48058 0.37952 0.51844 0.0
H632 H 0.47677 0.32468 0.51049 0.0
C633 C 0.49927 0.15162 0.49487 0.0
C634 C 0.52733 0.2463 0.50284 0.0
H635 H 0.49627 0.28642 0.52803 0.0
C636 C 0.54655 0.27391 0.49192 0.0
C637 C 0.50864 0.25076 0.51589 0.0
C638 C 0.48815 0.22218 0.52818 0.0
C639 C 0.5476 0.30587 0.4937 0.0
C640 C 0.52973 0.31074 0.50706 0.0
C641 C 0.50999 0.28283 0.51779 0.0
C642 C 0.53221 0.34484 0.51057 0.0
C643 C 0.56747 0.33388 0.48107 0.0
C644 C 0.56461 0.37466 0.51321 0.0
C645 C 0.5669 0.4062 0.51753 0.0
C646 C 0.5368 0.4087 0.51959 0.0
C647 C 0.50436 0.37886 0.51673 0.0
C648 C 0.50211 0.34732 0.51232 0.0
H649 H 0.56943 0.32274 0.46903 0.0
H650 H 0.5551 0.34984 0.47886 0.0
H651 H 0.59423 0.35108 0.4857 0.0
H652 H 0.58822 0.37341 0.51234 0.0
H653 H 0.59236 0.42859 0.51944 0.0
H654 H 0.49099 0.60034 0.83178 0.0
H655 H 0.4366 0.60068 0.83519 0.0
H656 H 0.38527 0.49329 0.84985 0.0
H657 H 0.43976 0.49298 0.84693 0.0
H658 H 0.37461 0.56464 0.82018 0.0
H659 H 0.35813 0.53426 0.88739 0.0
H660 H 0.39791 0.54589 0.87656 0.0
H661 H 0.36176 0.50234 0.87533 0.0
C662 C 0.46818 0.57677 0.83579 0.0
C663 C 0.46993 0.5467 0.83922 0.0
C664 C 0.43703 0.57702 0.83772 0.0
C665 C 0.40685 0.54722 0.8431 0.0
C666 C 0.40833 0.51692 0.84615 0.0
H667 H 0.19334 0.49758 0.85996 0.0
H668 H 0.24627 0.4954 0.85421 0.0
C669 C 0.43954 0.51672 0.84436 0.0
C670 C 0.37385 0.5478 0.84531 0.0
H671 H 0.31026 0.53265 0.87347 0.0
C672 C 0.36066 0.55778 0.83186 0.0
C673 C 0.35556 0.53898 0.86057 0.0
C674 C 0.36921 0.53011 0.87584 0.0
C675 C 0.32957 0.55865 0.83318 0.0
C676 C 0.31119 0.54946 0.84836 0.0
C677 C 0.32427 0.53945 0.86179 0.0
C678 C 0.27866 0.55068 0.8507 0.0
C679 C 0.31629 0.56889 0.81825 0.0
C680 C 0.27921 0.58248 0.85057 0.0
C681 C 0.24901 0.58382 0.85388 0.0
C682 C 0.21754 0.55335 0.85734 0.0
C683 C 0.21696 0.52146 0.85712 0.0
C684 C 0.24725 0.52019 0.85395 0.0
H685 H 0.32926 0.56806 0.80661 0.0
H686 H 0.28786 0.55158 0.81684 0.0
H687 H 0.32133 0.59574 0.81998 0.0
H688 H 0.30322 0.60639 0.8483 0.0
H689 H 0.25036 0.60878 0.8539 0.0
H690 H 0.96142 0.38818 0.15839 0.0
H691 H 0.90753 0.3322 0.16019 0.0
H692 H 0.85244 0.38421 0.17549 0.0
H693 H 0.90575 0.44002 0.1736 0.0
H694 H 0.86662 0.30254 0.18806 0.0
H695 H 0.78981 0.31998 0.13889 0.0
H696 H 0.83624 0.34745 0.14063 0.0
H697 H 0.80777 0.35495 0.15363 0.0
C698 C 0.93777 0.38779 0.16193 0.0
C699 C 0.93809 0.4188 0.16579 0.0
C700 C 0.90696 0.3557 0.16299 0.0
C701 C 0.87574 0.35394 0.16775 0.0
C702 C 0.87595 0.38485 0.17145 0.0
H703 H 0.69326 0.19206 0.21444 0.0
H704 H 0.7487 0.24216 0.20683 0.0
C705 C 0.90666 0.41684 0.17045 0.0
C706 C 0.84332 0.31985 0.16981 0.0
H707 H 0.75794 0.27412 0.15831 0.0
C708 C 0.84297 0.29618 0.18141 0.0
C709 C 0.81248 0.31121 0.161 0.0
C710 C 0.81157 0.33457 0.14771 0.0
C711 C 0.81239 0.2649 0.18494 0.0
C712 C 0.7811 0.25719 0.17682 0.0
C713 C 0.78177 0.28014 0.16469 0.0
C714 C 0.74722 0.2263 0.18129 0.0
C715 C 0.81385 0.24043 0.19741 0.0
C716 C 0.72731 0.20091 0.16938 0.0
C717 C 0.69521 0.17218 0.17368 0.0
C718 C 0.68213 0.1685 0.18993 0.0
C719 C 0.70217 0.19415 0.20176 0.0
C720 C 0.73419 0.22268 0.19748 0.0
H721 H 0.84058 0.24475 0.19871 0.0
H722 H 0.80563 0.24492 0.20973 0.0
H723 H 0.79622 0.21298 0.19382 0.0
H724 H 0.73668 0.20326 0.15677 0.0
H725 H 0.6804 0.15314 0.16422 0.0
H726 H 0.99355 0.54833 0.11287 0.0
H727 H 1.00258 0.54312 0.08336 0.0
H728 H 0.06385 0.4957 0.09532 0.0
H729 H 0.05521 0.50142 0.12508 0.0
H730 H 0.09424 0.5474 0.07129 0.0
H731 H 0.95746 0.4553 0.05512 0.0
H732 H 0.96235 0.49273 0.06595 0.0
H733 H 0.97295 0.46342 0.0763 0.0
C734 C 1.00879 0.5366 0.10923 0.0
C735 C 0.0235 0.525 0.12125 0.0
C736 C 0.01375 0.53345 0.09235 0.0
C737 C 0.03331 0.5184 0.08712 0.0
C738 C 0.04838 0.50709 0.0991 0.0
H739 H 0.03345 0.47306 0.98119 0.0
H740 H 0.02935 0.46732 0.01145 0.0
C741 C 0.04339 0.51026 0.11606 0.0
C742 C 0.03876 0.51578 0.06913 0.0
H743 H 0.99508 0.4866 0.03245 0.0
C744 C 0.07263 0.53373 0.0628 0.0
C745 C 0.0106 0.49745 0.05809 0.0
C746 C 0.97383 0.47583 0.06422 0.0
C747 C 0.07893 0.53524 0.04563 0.0
C748 C 0.05054 0.51889 0.03452 0.0
C749 C 0.01683 0.49954 0.04093 0.0
C750 C 0.05495 0.5225 0.01622 0.0
C751 C 0.11592 0.5544 0.03958 0.0
C752 C 0.07049 0.55541 0.00882 0.0
C753 C 0.07286 0.55876 0.99154 0.0
C754 C 0.05934 0.52923 0.98129 0.0
C755 C 0.04382 0.4963 0.98873 0.0
C756 C 0.04161 0.49298 0.00602 0.0
H757 H 0.13418 0.55552 0.0493 0.0
H758 H 0.11926 0.54201 0.0283 0.0
H759 H 0.12309 0.58143 0.03647 0.0
H760 H 0.08007 0.57853 0.0164 0.0
H761 H 0.08444 0.58446 0.9862 0.0
H762 H 0.49858 0.0567 0.45571 0.0
H763 H 0.48596 0.04755 0.42584 0.0
H764 H 0.57601 0.0365 0.41878 0.0
H765 H 0.58811 0.04465 0.44852 0.0
H766 H 0.52497 0.08587 0.39997 0.0
H767 H 0.50315 0.95274 0.39418 0.0
H768 H 0.50441 0.97224 0.41403 0.0
H769 H 0.54405 0.98134 0.4038 0.0
C770 C 0.5154 0.05192 0.44777 0.0
C771 C 0.54423 0.05123 0.45441 0.0
C772 C 0.50822 0.04676 0.43073 0.0
C773 C 0.52969 0.04073 0.4201 0.0
C774 C 0.55853 0.04017 0.42677 0.0
H775 H 0.56836 0.07961 0.31563 0.0
H776 H 0.56682 0.08198 0.34592 0.0
C777 C 0.56558 0.0451 0.44376 0.0
C778 C 0.52321 0.03679 0.40191 0.0
H779 H 0.51558 0.98528 0.36886 0.0
C780 C 0.52248 0.06367 0.39318 0.0
C781 C 0.51935 0.00756 0.39306 0.0
C782 C 0.5174 0.97668 0.40178 0.0
C783 C 0.51951 0.06281 0.3758 0.0
C784 C 0.51804 0.03469 0.36687 0.0
C785 C 0.51723 0.0071 0.37566 0.0
C786 C 0.51828 0.03375 0.34843 0.0
C787 C 0.5179 0.09203 0.36719 0.0
C788 C 0.492 1.0054 0.33974 0.0
C789 C 0.49299 1.00383 0.32241 0.0
C790 C 0.52033 0.03058 0.31342 0.0
C791 C 0.54662 0.05891 0.32216 0.0
C792 C 0.54572 0.06035 0.33948 0.0
H793 H 0.50812 0.10496 0.37565 0.0
H794 H 0.54437 0.11177 0.36319 0.0
H795 H 0.50093 0.08264 0.35605 0.0
H796 H 0.47066 0.98449 0.34638 0.0
H797 H 0.47221 0.98179 0.31603 0.0
H798 H 0.50058 0.49441 0.78203 0.0
H799 H 0.50434 0.50599 0.75226 0.0
H800 H 0.60665 0.59448 0.75895 0.0
H801 H 0.60346 0.58219 0.7888 0.0
H802 H 0.5122 0.56118 0.73492 0.0
H803 H 0.62366 0.54077 0.72317 0.0
H804 H 0.60039 0.52938 0.74259 0.0
H805 H 0.6319 0.57379 0.73824 0.0
C806 C 0.52391 0.51632 0.77716 0.0
C807 C 0.55182 0.53728 0.7877 0.0
C808 C 0.52599 0.52298 0.76015 0.0
C809 C 0.55597 0.55077 0.75331 0.0
C810 C 0.58356 0.57242 0.76389 0.0
H811 H 0.55486 0.61231 0.64968 0.0
H812 H 0.55835 0.61266 0.68005 0.0
C813 C 0.5816 0.56558 0.78095 0.0
C814 C 0.55804 0.55651 0.73508 0.0
H815 H 0.60251 0.55772 0.70029 0.0
C816 C 0.53204 0.56061 0.72734 0.0
C817 C 0.58372 0.55534 0.7252 0.0
C818 C 0.61134 0.54927 0.73266 0.0
C819 C 0.53065 0.56298 0.71 0.0
C820 C 0.55652 0.56213 0.70013 0.0
C821 C 0.58284 0.55859 0.70788 0.0
C822 C 0.55567 0.56287 0.6817 0.0
C823 C 0.50068 0.56495 0.70241 0.0
C824 C 0.55416 0.53535 0.67249 0.0
C825 C 0.55257 0.53528 0.65516 0.0
C826 C 0.55238 0.56274 0.64667 0.0
C827 C 0.55439 0.59053 0.6559 0.0
C828 C 0.55631 0.59073 0.67324 0.0
H829 H 0.47873 0.55635 0.71124 0.0
H830 H 0.50942 0.59219 0.69896 0.0
H831 H 0.49109 0.54874 0.69103 0.0
H832 H 0.55366 0.51359 0.67874 0.0
H833 H 0.55077 0.51338 0.64841 0.0
H834 H 0.56334 0.04979 0.54592 0.0
H835 H 0.57888 0.06298 0.57534 0.0
H836 H 0.49821 0.08883 0.58146 0.0
H837 H 0.48276 0.07599 0.55209 0.0
H838 H 0.56424 0.13691 0.59648 0.0
H839 H 0.51625 0.99923 0.61347 0.0
H840 H 0.54671 0.016 0.5966 0.0
H841 H 0.50457 0.01151 0.59422 0.0
C842 C 0.54907 0.05844 0.55355 0.0
C843 C 0.5217 0.06166 0.54683 0.0
C844 C 0.55788 0.06585 0.57032 0.0
C845 C 0.5394 0.07649 0.58055 0.0
C846 C 0.51268 0.08056 0.57374 0.0
H847 H 0.51881 0.07231 0.68677 0.0
H848 H 0.51029 0.06808 0.65668 0.0
C849 C 0.50382 0.07311 0.55701 0.0
C850 C 0.54713 0.08251 0.59848 0.0
H851 H 0.54212 0.04088 0.63478 0.0
C852 C 0.55959 0.11601 0.60488 0.0
C853 C 0.5406 0.05502 0.60935 0.0
C854 C 0.52604 0.01832 0.60316 0.0
C855 C 0.56576 0.12278 0.62195 0.0
C856 C 0.55945 0.09532 0.63278 0.0
C857 C 0.54702 0.06185 0.62637 0.0
C858 C 0.56471 0.10045 0.6509 0.0
C859 C 0.57819 0.15897 0.62834 0.0
C860 C 0.59814 0.12032 0.65756 0.0
C861 C 0.6031 0.12289 0.67476 0.0
C862 C 0.57468 0.1056 0.68555 0.0
C863 C 0.54116 0.08636 0.6788 0.0
C864 C 0.53626 0.08369 0.66162 0.0
H865 H 0.57543 0.17556 0.61889 0.0
H866 H 0.56356 0.15827 0.63964 0.0
H867 H 0.606 0.17113 0.63177 0.0
H868 H 0.62045 0.1331 0.64945 0.0
H869 H 0.6292 0.13802 0.67961 0.0
H870 H 0.63834 0.59793 0.8855 0.0
H871 H 0.63524 0.58289 0.91489 0.0
H872 H 0.52903 0.5017 0.90838 0.0
H873 H 0.53187 0.51689 0.87895 0.0
H874 H 0.53901 0.54671 0.9346 0.0
H875 H 0.63287 0.49954 0.93791 0.0
H876 H 0.64985 0.54087 0.9279 0.0
H877 H 0.61429 0.50309 0.91857 0.0
C878 C 0.61446 0.57665 0.89031 0.0
C879 C 0.58531 0.55862 0.88002 0.0
C880 C 0.61281 0.5679 0.90705 0.0
C881 C 0.58206 0.54089 0.91373 0.0
C882 C 0.55306 0.52247 0.9034 0.0
H883 H 0.55777 0.46931 0.01658 0.0
H884 H 0.55964 0.47157 0.98617 0.0
C885 C 0.55471 0.53117 0.88664 0.0
C886 C 0.57942 0.53392 0.93177 0.0
H887 H 0.61666 0.51407 0.96379 0.0
C888 C 0.5557 0.53919 0.94097 0.0
C889 C 0.60101 0.52381 0.93999 0.0
C890 C 0.62572 0.51615 0.93058 0.0
C891 C 0.55391 0.53589 0.95829 0.0
C892 C 0.57675 0.52755 0.96659 0.0
C893 C 0.59952 0.5209 0.95736 0.0
C894 C 0.57783 0.52652 0.9849 0.0
C895 C 0.52775 0.54158 0.9676 0.0
C896 C 0.58836 0.55686 0.99416 0.0
C897 C 0.58756 0.55574 0.01147 0.0
C898 C 0.57625 0.52421 0.01984 0.0
C899 C 0.56686 0.49403 0.01051 0.0
C900 C 0.56774 0.49522 0.99316 0.0
H901 H 0.50672 0.53923 0.9593 0.0
H902 H 0.51597 0.52271 0.97791 0.0
H903 H 0.54097 0.56806 0.97302 0.0
H904 H 0.59685 0.58138 0.98797 0.0
H905 H 0.59559 0.57953 0.01831 0.0
H906 H 0.02987 0.55137 0.21212 0.0
H907 H 0.01705 0.5548 0.24147 0.0
H908 H 0.99614 0.45025 0.24897 0.0
H909 H 1.00873 0.44656 0.21967 0.0
H910 H 0.95484 0.50715 0.26258 0.0
H911 H 0.07986 0.51612 0.28047 0.0
H912 H 0.07118 0.52472 0.25964 0.0
H913 H 0.05222 0.48089 0.26688 0.0
C914 C 0.02203 0.52897 0.21999 0.0
C915 C 0.02052 0.49879 0.21373 0.0
C916 C 0.01467 0.53094 0.23669 0.0
C917 C 1.00597 0.50287 0.24732 0.0
C918 C 1.00306 0.47223 0.24093 0.0
H919 H 0.94675 0.47192 0.35144 0.0
H920 H 0.94645 0.46762 0.32107 0.0
C921 C 0.01029 0.47019 0.22424 0.0
C922 C 1.00258 0.50648 0.26533 0.0
H923 H 0.04306 0.51314 0.30222 0.0
C924 C 0.97402 0.50845 0.2713 0.0
C925 C 0.02796 0.50854 0.27654 0.0
C926 C 0.05973 0.50773 0.27063 0.0
C927 C 0.96999 0.51202 0.28837 0.0
C928 C 0.99511 0.51348 0.29959 0.0
C929 C 0.02379 0.51184 0.29355 0.0
C930 C 0.99282 0.51743 0.31768 0.0
C931 C 0.93932 0.51478 0.29427 0.0
C932 C 0.01892 0.54686 0.32575 0.0
C933 C 0.01918 0.54936 0.34301 0.0
C934 C 0.99346 0.52233 0.35255 0.0
C935 C 0.96672 0.49328 0.34441 0.0
C936 C 0.96648 0.4908 0.32708 0.0
H937 H 0.92632 0.52027 0.2839 0.0
H938 H 0.92014 0.48992 0.30008 0.0
H939 H 0.94746 0.53551 0.30378 0.0
H940 H 0.03946 0.56765 0.31868 0.0
H941 H 0.03977 0.57233 0.34891 0.0
loop_
_geom_bond_atom_site_label_1
_geom_bond_atom_site_label_2
_geom_bond_distance
_geom_bond_site_symmetry_2
_ccdc_geom_bond_type
Dy0 O4 2.398 . S
Dy0 O5 2.491 . S
Dy0 O6 2.403 . S
Dy0 O7 2.664 . S
Dy0 O11 2.326 . S
Dy0 O15 2.310 . S
Dy0 O16 2.351 . S
C1 O12 1.185 . S
C1 O13 1.355 . S
C2 O4 1.185 . S
C2 O5 1.355 . S
Dy3 O7 2.310 . S
Dy3 O10 2.351 . S
Dy3 O12 2.398 1_455 S
Dy3 O13 2.491 1_455 S
Dy3 O14 2.403 . S
Dy3 O15 2.664 . S
Dy3 O17 2.326 1_455 S
O4 Dy0 2.398 . S
O4 C2 1.185 . S
O5 Dy0 2.491 . S
O5 C2 1.355 . S
O6 Dy0 2.403 . S
O6 C8 1.254 . S
O7 Dy0 2.664 . S
O7 Dy3 2.310 . S
O7 C8 1.268 . S
C8 O6 1.254 . S
C8 O7 1.268 . S
C9 O14 1.254 . S
C9 O15 1.268 . S
O10 Dy3 2.351 . S
O10 C18 1.249 . S
O11 Dy0 2.326 . S
O11 C18 1.267 . S
O12 C1 1.185 . S
O12 Dy3 2.398 1_655 S
O13 C1 1.355 . S
O13 Dy3 2.491 1_655 S
O14 Dy3 2.403 . S
O14 C9 1.254 . S
O15 Dy0 2.310 . S
O15 Dy3 2.664 . S
O15 C9 1.268 . S
O16 Dy0 2.351 . S
O16 C19 1.249 1_455 S
O17 Dy3 2.326 1_655 S
O17 C19 1.267 . S
C18 O10 1.249 . S
C18 O11 1.267 . S
C19 O16 1.249 1_655 S
C19 O17 1.267 . S
Dy20 O24 2.398 1_545 S
Dy20 O25 2.491 1_545 S
Dy20 O26 2.403 . S
Dy20 O27 2.664 . S
Dy20 O31 2.326 1_545 S
Dy20 O35 2.310 . S
Dy20 O36 2.351 . S
C21 O32 1.185 . S
C21 O33 1.355 . S
C22 O24 1.185 . S
C22 O25 1.355 . S
Dy23 O27 2.310 . S
Dy23 O30 2.351 . S
Dy23 O32 2.398 . S
Dy23 O33 2.491 . S
Dy23 O34 2.403 . S
Dy23 O35 2.664 . S
Dy23 O37 2.326 . S
O24 Dy20 2.398 1_565 S
O24 C22 1.185 . S
O25 Dy20 2.491 1_565 S
O25 C22 1.355 . S
O26 Dy20 2.403 . S
O26 C28 1.254 . S
O27 Dy20 2.664 . S
O27 Dy23 2.310 . S
O27 C28 1.268 . S
C28 O26 1.254 . S
C28 O27 1.268 . S
C29 O34 1.254 . S
C29 O35 1.268 . S
O30 Dy23 2.351 . S
O30 C38 1.249 1_545 S
O31 Dy20 2.326 1_565 S
O31 C38 1.267 . S
O32 C21 1.185 . S
O32 Dy23 2.398 . S
O33 C21 1.355 . S
O33 Dy23 2.491 . S
O34 Dy23 2.403 . S
O34 C29 1.254 . S
O35 Dy20 2.310 . S
O35 Dy23 2.664 . S
O35 C29 1.268 . S
O36 Dy20 2.351 . S
O36 C39 1.249 . S
O37 Dy23 2.326 . S
O37 C39 1.267 . S
C38 O30 1.249 1_565 S
C38 O31 1.267 . S
C39 O36 1.249 . S
C39 O37 1.267 . S
Dy40 O44 2.398 . S
Dy40 O45 2.491 . S
Dy40 O46 2.403 . S
Dy40 O47 2.664 . S
Dy40 O51 2.326 . S
Dy40 O55 2.310 . S
Dy40 O56 2.351 . S
C41 O52 1.185 . S
C41 O53 1.355 . S
C42 O44 1.185 . S
C42 O45 1.355 . S
Dy43 O47 2.310 . S
Dy43 O50 2.351 . S
Dy43 O52 2.398 . S
Dy43 O53 2.491 . S
Dy43 O54 2.403 . S
Dy43 O55 2.664 . S
Dy43 O57 2.326 . S
O44 Dy40 2.398 . S
O44 C42 1.185 . S
O45 Dy40 2.491 . S
O45 C42 1.355 . S
O46 Dy40 2.403 . S
O46 C48 1.254 . S
O47 Dy40 2.664 . S
O47 Dy43 2.310 . S
O47 C48 1.268 . S
C48 O46 1.254 . S
C48 O47 1.268 . S
C49 O54 1.254 . S
C49 O55 1.268 . S
O50 Dy43 2.351 . S
O50 C58 1.249 . S
O51 Dy40 2.326 . S
O51 C58 1.267 . S
O52 C41 1.185 . S
O52 Dy43 2.398 . S
O53 C41 1.355 . S
O53 Dy43 2.491 . S
O54 Dy43 2.403 . S
O54 C49 1.254 . S
O55 Dy40 2.310 . S
O55 Dy43 2.664 . S
O55 C49 1.268 . S
O56 Dy40 2.351 . S
O56 C59 1.249 . S
O57 Dy43 2.326 . S
O57 C59 1.267 . S
C58 O50 1.249 . S
C58 O51 1.267 . S
C59 O56 1.249 . S
C59 O57 1.267 . S
C60 C61 1.386 . S
C60 C62 1.397 . S
C60 H84 0.931 . S
C61 C60 1.386 . S
C61 C65 1.397 1_545 S
C62 C60 1.397 . S
C62 C63 1.384 . S
C62 H85 0.930 . S
C63 C62 1.384 . S
C63 C64 1.377 1_545 S
C63 C66 1.481 . S
C64 C63 1.377 1_565 S
C64 C65 1.389 . S
C64 H86 0.929 . S
C65 C61 1.397 1_565 S
C65 C64 1.389 . S
C65 H87 0.931 . S
C66 C63 1.481 . S
C66 C67 1.387 . S
C66 C71 1.390 1_545 S
C67 C66 1.387 . S
C67 C68 1.401 . S
C67 H88 0.930 . S
C68 C67 1.401 . S
C68 C69 1.376 . S
C68 C77 1.511 . S
C69 C68 1.376 . S
C69 C70 1.392 1_545 S
C69 H90 0.931 . S
C70 C69 1.392 1_565 S
C70 C71 1.361 . S
C70 C72 1.500 . S
C71 C66 1.390 1_565 S
C71 C70 1.361 . S
C71 H89 0.931 . S
C72 C70 1.500 . S
C72 C73 1.371 . S
C72 C74 1.365 . S
C73 C72 1.371 . S
C73 C83 1.386 . S
C73 H91 0.931 . S
C74 C72 1.365 . S
C74 C75 1.409 . S
C74 H92 0.929 . S
C75 C74 1.409 . S
C75 C76 1.380 . S
C75 H93 0.930 . S
C76 C75 1.380 . S
C76 C83 1.357 . S
C77 C68 1.511 . S
C77 C78 1.341 . S
C77 C79 1.371 . S
C78 C77 1.341 . S
C78 C82 1.394 . S
C78 H94 0.930 . S
C79 C77 1.371 . S
C79 C80 1.392 . S
C79 H95 0.931 . S
C80 C79 1.392 . S
C80 C81 1.331 . S
C80 H98 0.932 . S
C81 C80 1.331 . S
C81 C82 1.336 . S
C82 C78 1.394 . S
C82 C81 1.336 . S
C82 H97 0.929 . S
C83 C73 1.386 . S
C83 C76 1.357 . S
C83 H96 0.928 . S
H84 C60 0.931 . S
H85 C62 0.930 . S
H86 C64 0.929 . S
H87 C65 0.931 . S
H88 C67 0.930 . S
H89 C71 0.931 . S
H90 C69 0.931 . S
H91 C73 0.931 . S
H92 C74 0.929 . S
H93 C75 0.930 . S
H94 C78 0.930 . S
H95 C79 0.931 . S
H96 C83 0.928 . S
H97 C82 0.929 . S
H98 C80 0.932 . S
C99 C100 1.386 . S
C99 C101 1.397 . S
C99 H123 0.931 . S
C100 C99 1.386 . S
C100 C104 1.397 . S
C101 C99 1.397 . S
C101 C102 1.384 . S
C101 H124 0.930 . S
C102 C101 1.384 . S
C102 C103 1.377 . S
C102 C105 1.481 . S
C103 C102 1.377 . S
C103 C104 1.389 . S
C103 H125 0.929 . S
C104 C100 1.397 . S
C104 C103 1.389 . S
C104 H126 0.931 . S
C105 C102 1.481 . S
C105 C106 1.387 . S
C105 C110 1.390 . S
C106 C105 1.387 . S
C106 C107 1.401 . S
C106 H127 0.930 . S
C107 C106 1.401 . S
C107 C108 1.376 . S
C107 C116 1.511 . S
C108 C107 1.376 . S
C108 C109 1.392 . S
C108 H129 0.931 . S
C109 C108 1.392 . S
C109 C110 1.361 . S
C109 C111 1.500 . S
C110 C105 1.390 . S
C110 C109 1.361 . S
C110 H128 0.931 . S
C111 C109 1.500 . S
C111 C112 1.371 . S
C111 C113 1.365 . S
C112 C111 1.371 . S
C112 C122 1.386 . S
C112 H130 0.931 . S
C113 C111 1.365 . S
C113 C114 1.409 . S
C113 H131 0.929 . S
C114 C113 1.409 . S
C114 C115 1.380 . S
C114 H132 0.930 . S
C115 C114 1.380 . S
C115 C122 1.357 . S
C116 C107 1.511 . S
C116 C117 1.341 . S
C116 C118 1.371 . S
C117 C116 1.341 . S
C117 C121 1.394 . S
C117 H133 0.930 . S
C118 C116 1.371 . S
C118 C119 1.392 . S
C118 H134 0.931 . S
C119 C118 1.392 . S
C119 C120 1.331 . S
C119 H137 0.932 . S
C120 C119 1.331 . S
C120 C121 1.336 . S
C121 C117 1.394 . S
C121 C120 1.336 . S
C121 H136 0.929 . S
C122 C112 1.386 . S
C122 C115 1.357 . S
C122 H135 0.928 . S
H123 C99 0.931 . S
H124 C101 0.930 . S
H125 C103 0.929 . S
H126 C104 0.931 . S
H127 C106 0.930 . S
H128 C110 0.931 . S
H129 C108 0.931 . S
H130 C112 0.931 . S
H131 C113 0.929 . S
H132 C114 0.930 . S
H133 C117 0.930 . S
H134 C118 0.931 . S
H135 C122 0.928 . S
H136 C121 0.929 . S
H137 C119 0.932 . S
C138 C139 1.386 . S
C138 C140 1.397 . S
C138 H162 0.931 . S
C139 C138 1.386 . S
C139 C143 1.397 . S
C140 C138 1.397 . S
C140 C141 1.384 . S
C140 H163 0.930 . S
C141 C140 1.384 . S
C141 C142 1.377 . S
C141 C144 1.481 . S
C142 C141 1.377 . S
C142 C143 1.389 . S
C142 H164 0.929 . S
C143 C139 1.397 . S
C143 C142 1.389 . S
C143 H165 0.931 . S
C144 C141 1.481 . S
C144 C145 1.387 . S
C144 C149 1.390 . S
C145 C144 1.387 . S
C145 C146 1.401 . S
C145 H166 0.930 . S
C146 C145 1.401 . S
C146 C147 1.376 . S
C146 C155 1.511 . S
C147 C146 1.376 . S
C147 C148 1.392 . S
C147 H168 0.931 . S
C148 C147 1.392 . S
C148 C149 1.361 . S
C148 C150 1.500 . S
C149 C144 1.390 . S
C149 C148 1.361 . S
C149 H167 0.931 . S
C150 C148 1.500 . S
C150 C151 1.371 . S
C150 C152 1.365 1_455 S
C151 C150 1.371 . S
C151 C161 1.386 1_455 S
C151 H169 0.931 . S
C152 C150 1.365 1_655 S
C152 C153 1.409 . S
C152 H170 0.929 . S
C153 C152 1.409 . S
C153 C154 1.380 . S
C153 H171 0.930 . S
C154 C153 1.380 . S
C154 C161 1.357 . S
C155 C146 1.511 . S
C155 C156 1.341 . S
C155 C157 1.371 . S
C156 C155 1.341 . S
C156 C160 1.394 . S
C156 H172 0.930 . S
C157 C155 1.371 . S
C157 C158 1.392 . S
C157 H173 0.931 . S
C158 C157 1.392 . S
C158 C159 1.331 . S
C158 H176 0.932 . S
C159 C158 1.331 . S
C159 C160 1.336 . S
C160 C156 1.394 . S
C160 C159 1.336 . S
C160 H175 0.929 . S
C161 C151 1.386 1_655 S
C161 C154 1.357 . S
C161 H174 0.928 . S
H162 C138 0.931 . S
H163 C140 0.930 . S
H164 C142 0.929 . S
H165 C143 0.931 . S
H166 C145 0.930 . S
H167 C149 0.931 . S
H168 C147 0.931 . S
H169 C151 0.931 . S
H170 C152 0.929 . S
H171 C153 0.930 . S
H172 C156 0.930 . S
H173 C157 0.931 . S
H174 C161 0.928 . S
H175 C160 0.929 . S
H176 C158 0.932 . S
C177 C178 1.386 1_655 S
C177 C179 1.397 . S
C177 H201 0.931 . S
C178 C177 1.386 1_455 S
C178 C182 1.397 . S
C179 C177 1.397 . S
C179 C180 1.384 1_655 S
C179 H202 0.930 . S
C180 C179 1.384 1_455 S
C180 C181 1.377 . S
C180 C183 1.481 . S
C181 C180 1.377 . S
C181 C182 1.389 . S
C181 H203 0.929 . S
C182 C178 1.397 . S
C182 C181 1.389 . S
C182 H204 0.931 . S
C183 C180 1.481 . S
C183 C184 1.387 1_455 S
C183 C188 1.390 . S
C184 C183 1.387 1_655 S
C184 C185 1.401 . S
C184 H205 0.930 . S
C185 C184 1.401 . S
C185 C186 1.376 1_655 S
C185 C194 1.511 . S
C186 C185 1.376 1_455 S
C186 C187 1.392 . S
C186 H207 0.931 . S
C187 C186 1.392 . S
C187 C188 1.361 . S
C187 C189 1.500 . S
C188 C183 1.390 . S
C188 C187 1.361 . S
C188 H206 0.931 . S
C189 C187 1.500 . S
C189 C190 1.371 . S
C189 C191 1.365 . S
C190 C189 1.371 . S
C190 C200 1.386 . S
C190 H208 0.931 . S
C191 C189 1.365 . S
C191 C192 1.409 . S
C191 H209 0.929 . S
C192 C191 1.409 . S
C192 C193 1.380 . S
C192 H210 0.930 . S
C193 C192 1.380 . S
C193 C200 1.357 . S
C194 C185 1.511 . S
C194 C195 1.341 . S
C194 C196 1.371 . S
C195 C194 1.341 . S
C195 C199 1.394 . S
C195 H211 0.930 . S
C196 C194 1.371 . S
C196 C197 1.392 . S
C196 H212 0.931 . S
C197 C196 1.392 . S
C197 C198 1.331 . S
C197 H215 0.932 . S
C198 C197 1.331 . S
C198 C199 1.336 . S
C199 C195 1.394 . S
C199 C198 1.336 . S
C199 H214 0.929 . S
C200 C190 1.386 . S
C200 C193 1.357 . S
C200 H213 0.928 . S
H201 C177 0.931 . S
H202 C179 0.930 . S
H203 C181 0.929 . S
H204 C182 0.931 . S
H205 C184 0.930 . S
H206 C188 0.931 . S
H207 C186 0.931 . S
H208 C190 0.931 . S
H209 C191 0.929 . S
H210 C192 0.930 . S
H211 C195 0.930 . S
H212 C196 0.931 . S
H213 C200 0.928 . S
H214 C199 0.929 . S
H215 C197 0.932 . S
C216 C217 1.386 . S
C216 C218 1.397 . S
C216 H240 0.931 . S
C217 C216 1.386 . S
C217 C221 1.397 . S
C218 C216 1.397 . S
C218 C219 1.384 . S
C218 H241 0.930 . S
C219 C218 1.384 . S
C219 C220 1.377 . S
C219 C222 1.481 . S
C220 C219 1.377 . S
C220 C221 1.389 . S
C220 H242 0.929 . S
C221 C217 1.397 . S
C221 C220 1.389 . S
C221 H243 0.931 . S
C222 C219 1.481 . S
C222 C223 1.387 . S
C222 C227 1.390 . S
C223 C222 1.387 . S
C223 C224 1.401 . S
C223 H244 0.930 . S
C224 C223 1.401 . S
C224 C225 1.376 . S
C224 C233 1.511 . S
C225 C224 1.376 . S
C225 C226 1.392 . S
C225 H246 0.931 . S
C226 C225 1.392 . S
C226 C227 1.361 . S
C226 C228 1.500 . S
C227 C222 1.390 . S
C227 C226 1.361 . S
C227 H245 0.931 . S
C228 C226 1.500 . S
C228 C229 1.371 . S
C228 C230 1.365 . S
C229 C228 1.371 . S
C229 C239 1.386 . S
C229 H247 0.931 . S
C230 C228 1.365 . S
C230 C231 1.409 . S
C230 H248 0.929 . S
C231 C230 1.409 . S
C231 C232 1.380 . S
C231 H249 0.930 . S
C232 C231 1.380 . S
C232 C239 1.357 . S
C233 C224 1.511 . S
C233 C234 1.341 1_545 S
C233 C235 1.371 . S
C234 C233 1.341 1_565 S
C234 C238 1.394 . S
C234 H250 0.930 . S
C235 C233 1.371 . S
C235 C236 1.392 1_545 S
C235 H251 0.931 . S
C236 C235 1.392 1_565 S
C236 C237 1.331 . S
C236 H254 0.932 . S
C237 C236 1.331 . S
C237 C238 1.336 . S
C238 C234 1.394 . S
C238 C237 1.336 . S
C238 H253 0.929 . S
C239 C229 1.386 . S
C239 C232 1.357 . S
C239 H252 0.928 . S
H240 C216 0.931 . S
H241 C218 0.930 . S
H242 C220 0.929 . S
H243 C221 0.931 . S
H244 C223 0.930 . S
H245 C227 0.931 . S
H246 C225 0.931 . S
H247 C229 0.931 . S
H248 C230 0.929 . S
H249 C231 0.930 . S
H250 C234 0.930 . S
H251 C235 0.931 . S
H252 C239 0.928 . S
H253 C238 0.929 . S
H254 C236 0.932 . S
C255 C256 1.386 . S
C255 C257 1.397 . S
C255 H279 0.931 . S
C256 C255 1.386 . S
C256 C260 1.397 . S
C257 C255 1.397 . S
C257 C258 1.384 . S
C257 H280 0.930 . S
C258 C257 1.384 . S
C258 C259 1.377 . S
C258 C261 1.481 . S
C259 C258 1.377 . S
C259 C260 1.389 . S
C259 H281 0.929 . S
C260 C256 1.397 . S
C260 C259 1.389 . S
C260 H282 0.931 . S
C261 C258 1.481 . S
C261 C262 1.387 . S
C261 C266 1.390 . S
C262 C261 1.387 . S
C262 C263 1.401 . S
C262 H283 0.930 . S
C263 C262 1.401 . S
C263 C264 1.376 . S
C263 C272 1.511 . S
C264 C263 1.376 . S
C264 C265 1.392 . S
C264 H285 0.931 . S
C265 C264 1.392 . S
C265 C266 1.361 . S
C265 C267 1.500 . S
C266 C261 1.390 . S
C266 C265 1.361 . S
C266 H284 0.931 . S
C267 C265 1.500 . S
C267 C268 1.371 . S
C267 C269 1.365 . S
C268 C267 1.371 . S
C268 C278 1.386 . S
C268 H286 0.931 . S
C269 C267 1.365 . S
C269 C270 1.409 . S
C269 H287 0.929 . S
C270 C269 1.409 . S
C270 C271 1.380 . S
C270 H288 0.930 . S
C271 C270 1.380 . S
C271 C278 1.357 . S
C272 C263 1.511 . S
C272 C273 1.341 . S
C272 C274 1.371 . S
C273 C272 1.341 . S
C273 C277 1.394 . S
C273 H289 0.930 . S
C274 C272 1.371 . S
C274 C275 1.392 . S
C274 H290 0.931 . S
C275 C274 1.392 . S
C275 C276 1.331 . S
C275 H293 0.932 . S
C276 C275 1.331 . S
C276 C277 1.336 . S
C277 C273 1.394 . S
C277 C276 1.336 . S
C277 H292 0.929 . S
C278 C268 1.386 . S
C278 C271 1.357 . S
C278 H291 0.928 . S
H279 C255 0.931 . S
H280 C257 0.930 . S
H281 C259 0.929 . S
H282 C260 0.931 . S
H283 C262 0.930 . S
H284 C266 0.931 . S
H285 C264 0.931 . S
H286 C268 0.931 . S
H287 C269 0.929 . S
H288 C270 0.930 . S
H289 C273 0.930 . S
H290 C274 0.931 . S
H291 C278 0.928 . S
H292 C277 0.929 . S
H293 C275 0.932 . S
H294 C302 0.929 . S
H295 C304 0.930 . S
H296 C306 0.930 . S
H297 C309 0.929 . S
H298 C312 0.930 . S
H299 C314 0.960 . S
H300 C314 0.960 . S
H301 C314 0.960 . S
C302 H294 0.929 . S
C302 C303 1.377 . S
C302 C304 1.384 . S
C303 C302 1.377 . S
C303 C309 1.390 . S
C304 H295 0.930 . S
C304 C302 1.384 . S
C304 C305 1.372 . S
C305 C304 1.372 . S
C305 C306 1.400 . S
C305 C310 1.490 . S
C306 H296 0.930 . S
C306 C305 1.400 . S
C306 C309 1.386 . S
H307 C323 0.930 . S
H308 C324 0.931 . S
C309 H297 0.929 . S
C309 C303 1.390 . S
C309 C306 1.386 . S
C310 C305 1.490 . S
C310 C312 1.395 . S
C310 C313 1.403 . S
H311 C317 0.930 . S
C312 H298 0.930 . S
C312 C310 1.395 . S
C312 C315 1.403 . S
C313 C310 1.403 . S
C313 C314 1.524 . S
C313 C317 1.400 . S
C314 H299 0.960 . S
C314 H300 0.960 . S
C314 H301 0.960 . S
C314 C313 1.524 . S
C315 C312 1.403 . S
C315 C316 1.392 . S
C315 C319 1.495 . S
C316 C315 1.392 . S
C316 C317 1.385 . S
C316 C318 1.478 . S
C317 H311 0.930 . S
C317 C313 1.400 . S
C317 C316 1.385 . S
C318 C316 1.478 . S
C318 C320 1.381 . S
C318 C324 1.383 . S
C319 C315 1.495 . S
C319 H325 0.959 . S
C319 H326 0.961 . S
C319 H327 0.960 . S
C320 C318 1.381 . S
C320 C321 1.394 . S
C320 H328 0.930 . S
C321 C320 1.394 . S
C321 C322 1.383 . S
C321 H329 0.929 . S
C322 C321 1.383 . S
C322 C323 1.377 . S
C323 H307 0.930 . S
C323 C322 1.377 . S
C323 C324 1.379 . S
C324 H308 0.931 . S
C324 C318 1.383 . S
C324 C323 1.379 . S
H325 C319 0.959 . S
H326 C319 0.961 . S
H327 C319 0.960 . S
H328 C320 0.930 . S
H329 C321 0.929 . S
H330 C338 0.929 . S
H331 C340 0.930 . S
H332 C342 0.930 . S
H333 C345 0.929 . S
H334 C348 0.930 . S
H335 C350 0.960 . S
H336 C350 0.960 . S
H337 C350 0.960 . S
C338 H330 0.929 . S
C338 C339 1.377 . S
C338 C340 1.384 . S
C339 C338 1.377 . S
C339 C345 1.390 . S
C340 H331 0.930 . S
C340 C338 1.384 . S
C340 C341 1.372 . S
C341 C340 1.372 . S
C341 C342 1.400 . S
C341 C346 1.490 . S
C342 H332 0.930 . S
C342 C341 1.400 . S
C342 C345 1.386 . S
H343 C359 0.930 . S
H344 C360 0.931 . S
C345 H333 0.929 . S
C345 C339 1.390 . S
C345 C342 1.386 . S
C346 C341 1.490 . S
C346 C348 1.395 . S
C346 C349 1.403 . S
H347 C353 0.930 . S
C348 H334 0.930 . S
C348 C346 1.395 . S
C348 C351 1.403 . S
C349 C346 1.403 . S
C349 C350 1.524 . S
C349 C353 1.400 . S
C350 H335 0.960 . S
C350 H336 0.960 . S
C350 H337 0.960 . S
C350 C349 1.524 . S
C351 C348 1.403 . S
C351 C352 1.392 . S
C351 C355 1.495 . S
C352 C351 1.392 . S
C352 C353 1.385 . S
C352 C354 1.478 . S
C353 H347 0.930 . S
C353 C349 1.400 . S
C353 C352 1.385 . S
C354 C352 1.478 . S
C354 C356 1.381 . S
C354 C360 1.383 . S
C355 C351 1.495 . S
C355 H361 0.959 . S
C355 H362 0.961 . S
C355 H363 0.960 . S
C356 C354 1.381 . S
C356 C357 1.394 . S
C356 H364 0.930 . S
C357 C356 1.394 . S
C357 C358 1.383 . S
C357 H365 0.929 . S
C358 C357 1.383 . S
C358 C359 1.377 . S
C359 H343 0.930 . S
C359 C358 1.377 . S
C359 C360 1.379 . S
C360 H344 0.931 . S
C360 C354 1.383 . S
C360 C359 1.379 . S
H361 C355 0.959 . S
H362 C355 0.961 . S
H363 C355 0.960 . S
H364 C356 0.930 . S
H365 C357 0.929 . S
H366 C374 0.929 . S
H367 C376 0.930 . S
H368 C378 0.930 . S
H369 C381 0.929 . S
H370 C384 0.930 . S
H371 C386 0.960 . S
H372 C386 0.960 . S
H373 C386 0.960 . S
C374 H366 0.929 . S
C374 C375 1.377 . S
C374 C376 1.384 . S
C375 C374 1.377 . S
C375 C381 1.390 . S
C376 H367 0.930 . S
C376 C374 1.384 . S
C376 C377 1.372 . S
C377 C376 1.372 . S
C377 C378 1.400 . S
C377 C382 1.490 . S
C378 H368 0.930 . S
C378 C377 1.400 . S
C378 C381 1.386 . S
H379 C395 0.930 . S
H380 C396 0.931 . S
C381 H369 0.929 . S
C381 C375 1.390 . S
C381 C378 1.386 . S
C382 C377 1.490 . S
C382 C384 1.395 . S
C382 C385 1.403 . S
H383 C389 0.930 . S
C384 H370 0.930 . S
C384 C382 1.395 . S
C384 C387 1.403 . S
C385 C382 1.403 . S
C385 C386 1.524 . S
C385 C389 1.400 . S
C386 H371 0.960 . S
C386 H372 0.960 . S
C386 H373 0.960 . S
C386 C385 1.524 . S
C387 C384 1.403 . S
C387 C388 1.392 . S
C387 C391 1.495 . S
C388 C387 1.392 . S
C388 C389 1.385 . S
C388 C390 1.478 . S
C389 H383 0.930 . S
C389 C385 1.400 . S
C389 C388 1.385 . S
C390 C388 1.478 . S
C390 C392 1.381 . S
C390 C396 1.383 . S
C391 C387 1.495 . S
C391 H397 0.959 . S
C391 H398 0.961 . S
C391 H399 0.960 . S
C392 C390 1.381 . S
C392 C393 1.394 . S
C392 H400 0.930 . S
C393 C392 1.394 . S
C393 C394 1.383 . S
C393 H401 0.929 . S
C394 C393 1.383 . S
C394 C395 1.377 . S
C395 H379 0.930 . S
C395 C394 1.377 . S
C395 C396 1.379 . S
C396 H380 0.931 . S
C396 C390 1.383 . S
C396 C395 1.379 . S
H397 C391 0.959 . S
H398 C391 0.961 . S
H399 C391 0.960 . S
H400 C392 0.930 . S
H401 C393 0.929 . S
H402 C410 0.929 . S
H403 C412 0.930 . S
H404 C414 0.930 . S
H405 C417 0.929 . S
H406 C420 0.930 . S
H407 C422 0.960 . S
H408 C422 0.960 . S
H409 C422 0.960 . S
C410 H402 0.929 . S
C410 C411 1.377 . S
C410 C412 1.384 . S
C411 C410 1.377 . S
C411 C417 1.390 . S
C412 H403 0.930 . S
C412 C410 1.384 . S
C412 C413 1.372 . S
C413 C412 1.372 . S
C413 C414 1.400 . S
C413 C418 1.490 . S
C414 H404 0.930 . S
C414 C413 1.400 . S
C414 C417 1.386 . S
H415 C431 0.930 . S
H416 C432 0.931 . S
C417 H405 0.929 . S
C417 C411 1.390 . S
C417 C414 1.386 . S
C418 C413 1.490 . S
C418 C420 1.395 . S
C418 C421 1.403 . S
H419 C425 0.930 . S
C420 H406 0.930 . S
C420 C418 1.395 . S
C420 C423 1.403 . S
C421 C418 1.403 . S
C421 C422 1.524 . S
C421 C425 1.400 . S
C422 H407 0.960 . S
C422 H408 0.960 . S
C422 H409 0.960 . S
C422 C421 1.524 . S
C423 C420 1.403 . S
C423 C424 1.392 . S
C423 C427 1.495 . S
C424 C423 1.392 . S
C424 C425 1.385 . S
C424 C426 1.478 . S
C425 H419 0.930 . S
C425 C421 1.400 . S
C425 C424 1.385 . S
C426 C424 1.478 . S
C426 C428 1.381 . S
C426 C432 1.383 . S
C427 C423 1.495 . S
C427 H433 0.959 . S
C427 H434 0.961 . S
C427 H435 0.960 . S
C428 C426 1.381 . S
C428 C429 1.394 . S
C428 H436 0.930 . S
C429 C428 1.394 . S
C429 C430 1.383 . S
C429 H437 0.929 . S
C430 C429 1.383 . S
C430 C431 1.377 . S
C431 H415 0.930 . S
C431 C430 1.377 . S
C431 C432 1.379 . S
C432 H416 0.931 . S
C432 C426 1.383 . S
C432 C431 1.379 . S
H433 C427 0.959 . S
H434 C427 0.961 . S
H435 C427 0.960 . S
H436 C428 0.930 . S
H437 C429 0.929 . S
H438 C446 0.929 . S
H439 C448 0.930 . S
H440 C450 0.930 . S
H441 C453 0.929 . S
H442 C456 0.930 . S
H443 C458 0.960 . S
H444 C458 0.960 . S
H445 C458 0.960 . S
C446 H438 0.929 . S
C446 C447 1.377 . S
C446 C448 1.384 . S
C447 C446 1.377 . S
C447 C453 1.390 . S
C448 H439 0.930 . S
C448 C446 1.384 . S
C448 C449 1.372 . S
C449 C448 1.372 . S
C449 C450 1.400 . S
C449 C454 1.490 . S
C450 H440 0.930 . S
C450 C449 1.400 . S
C450 C453 1.386 . S
H451 C467 0.930 . S
H452 C468 0.931 . S
C453 H441 0.929 . S
C453 C447 1.390 . S
C453 C450 1.386 . S
C454 C449 1.490 . S
C454 C456 1.395 . S
C454 C457 1.403 . S
H455 C461 0.930 . S
C456 H442 0.930 . S
C456 C454 1.395 . S
C456 C459 1.403 . S
C457 C454 1.403 . S
C457 C458 1.524 . S
C457 C461 1.400 . S
C458 H443 0.960 . S
C458 H444 0.960 . S
C458 H445 0.960 . S
C458 C457 1.524 . S
C459 C456 1.403 . S
C459 C460 1.392 . S
C459 C463 1.495 . S
C460 C459 1.392 . S
C460 C461 1.385 . S
C460 C462 1.478 . S
C461 H455 0.930 . S
C461 C457 1.400 . S
C461 C460 1.385 . S
C462 C460 1.478 . S
C462 C464 1.381 . S
C462 C468 1.383 . S
C463 C459 1.495 . S
C463 H469 0.959 . S
C463 H470 0.961 . S
C463 H471 0.960 . S
C464 C462 1.381 . S
C464 C465 1.394 . S
C464 H472 0.930 . S
C465 C464 1.394 . S
C465 C466 1.383 . S
C465 H473 0.929 . S
C466 C465 1.383 . S
C466 C467 1.377 . S
C467 H451 0.930 . S
C467 C466 1.377 . S
C467 C468 1.379 . S
C468 H452 0.931 . S
C468 C462 1.383 . S
C468 C467 1.379 . S
H469 C463 0.959 . S
H470 C463 0.961 . S
H471 C463 0.960 . S
H472 C464 0.930 . S
H473 C465 0.929 . S
H474 C482 0.929 . S
H475 C484 0.930 . S
H476 C486 0.930 . S
H477 C489 0.929 . S
H478 C492 0.930 . S
H479 C494 0.960 . S
H480 C494 0.960 . S
H481 C494 0.960 . S
C482 H474 0.929 . S
C482 C483 1.377 . S
C482 C484 1.384 . S
C483 C482 1.377 . S
C483 C489 1.390 . S
C484 H475 0.930 . S
C484 C482 1.384 . S
C484 C485 1.372 . S
C485 C484 1.372 . S
C485 C486 1.400 . S
C485 C490 1.490 . S
C486 H476 0.930 . S
C486 C485 1.400 . S
C486 C489 1.386 . S
H487 C503 0.930 . S
H488 C504 0.931 . S
C489 H477 0.929 . S
C489 C483 1.390 . S
C489 C486 1.386 . S
C490 C485 1.490 . S
C490 C492 1.395 . S
C490 C493 1.403 . S
H491 C497 0.930 . S
C492 H478 0.930 . S
C492 C490 1.395 . S
C492 C495 1.403 . S
C493 C490 1.403 . S
C493 C494 1.524 . S
C493 C497 1.400 . S
C494 H479 0.960 . S
C494 H480 0.960 . S
C494 H481 0.960 . S
C494 C493 1.524 . S
C495 C492 1.403 . S
C495 C496 1.392 . S
C495 C499 1.495 . S
C496 C495 1.392 . S
C496 C497 1.385 . S
C496 C498 1.478 . S
C497 H491 0.930 . S
C497 C493 1.400 . S
C497 C496 1.385 . S
C498 C496 1.478 . S
C498 C500 1.381 . S
C498 C504 1.383 . S
C499 C495 1.495 . S
C499 H505 0.959 . S
C499 H506 0.961 . S
C499 H507 0.960 . S
C500 C498 1.381 . S
C500 C501 1.394 . S
C500 H508 0.930 . S
C501 C500 1.394 . S
C501 C502 1.383 . S
C501 H509 0.929 . S
C502 C501 1.383 . S
C502 C503 1.377 . S
C503 H487 0.930 . S
C503 C502 1.377 . S
C503 C504 1.379 . S
C504 H488 0.931 . S
C504 C498 1.383 . S
C504 C503 1.379 . S
H505 C499 0.959 . S
H506 C499 0.961 . S
H507 C499 0.960 . S
H508 C500 0.930 . S
H509 C501 0.929 . S
H510 C518 0.929 . S
H511 C520 0.930 . S
H512 C522 0.930 . S
H513 C525 0.929 . S
H514 C528 0.930 . S
H515 C530 0.960 . S
H516 C530 0.960 . S
H517 C530 0.960 . S
C518 H510 0.929 . S
C518 C519 1.377 . S
C518 C520 1.384 . S
C519 C518 1.377 . S
C519 C525 1.390 . S
C520 H511 0.930 . S
C520 C518 1.384 . S
C520 C521 1.372 . S
C521 C520 1.372 . S
C521 C522 1.400 . S
C521 C526 1.490 . S
C522 H512 0.930 . S
C522 C521 1.400 . S
C522 C525 1.386 . S
H523 C539 0.930 . S
H524 C540 0.931 . S
C525 H513 0.929 . S
C525 C519 1.390 . S
C525 C522 1.386 . S
C526 C521 1.490 . S
C526 C528 1.395 . S
C526 C529 1.403 . S
H527 C533 0.930 . S
C528 H514 0.930 . S
C528 C526 1.395 . S
C528 C531 1.403 . S
C529 C526 1.403 . S
C529 C530 1.524 . S
C529 C533 1.400 . S
C530 H515 0.960 . S
C530 H516 0.960 . S
C530 H517 0.960 . S
C530 C529 1.524 . S
C531 C528 1.403 . S
C531 C532 1.392 . S
C531 C535 1.495 . S
C532 C531 1.392 . S
C532 C533 1.385 . S
C532 C534 1.478 . S
C533 H527 0.930 . S
C533 C529 1.400 . S
C533 C532 1.385 . S
C534 C532 1.478 . S
C534 C536 1.381 . S
C534 C540 1.383 . S
C535 C531 1.495 . S
C535 H541 0.959 . S
C535 H542 0.961 . S
C535 H543 0.960 . S
C536 C534 1.381 . S
C536 C537 1.394 . S
C536 H544 0.930 . S
C537 C536 1.394 . S
C537 C538 1.383 . S
C537 H545 0.929 . S
C538 C537 1.383 . S
C538 C539 1.377 . S
C539 H523 0.930 . S
C539 C538 1.377 . S
C539 C540 1.379 . S
C540 H524 0.931 . S
C540 C534 1.383 . S
C540 C539 1.379 . S
H541 C535 0.959 . S
H542 C535 0.961 . S
H543 C535 0.960 . S
H544 C536 0.930 . S
H545 C537 0.929 . S
H546 C554 0.929 . S
H547 C556 0.930 . S
H548 C558 0.930 . S
H549 C561 0.929 . S
H550 C564 0.930 . S
H551 C566 0.960 . S
H552 C566 0.960 . S
H553 C566 0.960 . S
C554 H546 0.929 . S
C554 C555 1.377 . S
C554 C556 1.384 . S
C555 C554 1.377 . S
C555 C561 1.390 . S
C556 H547 0.930 . S
C556 C554 1.384 . S
C556 C557 1.372 . S
C557 C556 1.372 . S
C557 C558 1.400 . S
C557 C562 1.490 . S
C558 H548 0.930 . S
C558 C557 1.400 . S
C558 C561 1.386 . S
H559 C575 0.930 . S
H560 C576 0.931 . S
C561 H549 0.929 . S
C561 C555 1.390 . S
C561 C558 1.386 . S
C562 C557 1.490 . S
C562 C564 1.395 . S
C562 C565 1.403 . S
H563 C569 0.930 . S
C564 H550 0.930 . S
C564 C562 1.395 . S
C564 C567 1.403 . S
C565 C562 1.403 . S
C565 C566 1.524 . S
C565 C569 1.400 . S
C566 H551 0.960 . S
C566 H552 0.960 . S
C566 H553 0.960 . S
C566 C565 1.524 . S
C567 C564 1.403 . S
C567 C568 1.392 . S
C567 C571 1.495 . S
C568 C567 1.392 . S
C568 C569 1.385 . S
C568 C570 1.478 . S
C569 H563 0.930 . S
C569 C565 1.400 . S
C569 C568 1.385 . S
C570 C568 1.478 . S
C570 C572 1.381 . S
C570 C576 1.383 . S
C571 C567 1.495 . S
C571 H577 0.959 . S
C571 H578 0.961 . S
C571 H579 0.960 . S
C572 C570 1.381 . S
C572 C573 1.394 . S
C572 H580 0.930 . S
C573 C572 1.394 . S
C573 C574 1.383 . S
C573 H581 0.929 . S
C574 C573 1.383 . S
C574 C575 1.377 . S
C575 H559 0.930 . S
C575 C574 1.377 . S
C575 C576 1.379 . S
C576 H560 0.931 . S
C576 C570 1.383 . S
C576 C575 1.379 . S
H577 C571 0.959 . S
H578 C571 0.961 . S
H579 C571 0.960 . S
H580 C572 0.930 . S
H581 C573 0.929 . S
H582 C590 0.929 . S
H583 C592 0.930 . S
H584 C594 0.930 . S
H585 C597 0.929 . S
H586 C600 0.930 . S
H587 C602 0.960 . S
H588 C602 0.960 . S
H589 C602 0.960 . S
C590 H582 0.929 . S
C590 C591 1.377 . S
C590 C592 1.384 . S
C591 C590 1.377 . S
C591 C597 1.390 . S
C592 H583 0.930 . S
C592 C590 1.384 . S
C592 C593 1.372 . S
C593 C592 1.372 . S
C593 C594 1.400 . S
C593 C598 1.490 . S
C594 H584 0.930 . S
C594 C593 1.400 . S
C594 C597 1.386 . S
H595 C611 0.930 . S
H596 C612 0.931 . S
C597 H585 0.929 . S
C597 C591 1.390 . S
C597 C594 1.386 . S
C598 C593 1.490 . S
C598 C600 1.395 . S
C598 C601 1.403 . S
H599 C605 0.930 . S
C600 H586 0.930 . S
C600 C598 1.395 . S
C600 C603 1.403 . S
C601 C598 1.403 . S
C601 C602 1.524 . S
C601 C605 1.400 . S
C602 H587 0.960 . S
C602 H588 0.960 . S
C602 H589 0.960 . S
C602 C601 1.524 . S
C603 C600 1.403 . S
C603 C604 1.392 . S
C603 C607 1.495 . S
C604 C603 1.392 . S
C604 C605 1.385 . S
C604 C606 1.478 . S
C605 H599 0.930 . S
C605 C601 1.400 . S
C605 C604 1.385 . S
C606 C604 1.478 . S
C606 C608 1.381 . S
C606 C612 1.383 . S
C607 C603 1.495 . S
C607 H613 0.959 . S
C607 H614 0.961 . S
C607 H615 0.960 . S
C608 C606 1.381 . S
C608 C609 1.394 . S
C608 H616 0.930 . S
C609 C608 1.394 . S
C609 C610 1.383 . S
C609 H617 0.929 . S
C610 C609 1.383 . S
C610 C611 1.377 . S
C611 H595 0.930 . S
C611 C610 1.377 . S
C611 C612 1.379 . S
C612 H596 0.931 . S
C612 C606 1.383 . S
C612 C611 1.379 . S
H613 C607 0.959 . S
H614 C607 0.961 . S
H615 C607 0.960 . S
H616 C608 0.930 . S
H617 C609 0.929 . S
H618 C626 0.929 . S
H619 C628 0.930 . S
H620 C630 0.930 . S
H621 C633 0.929 . S
H622 C636 0.930 . S
H623 C638 0.960 . S
H624 C638 0.960 . S
H625 C638 0.960 . S
C626 H618 0.929 . S
C626 C627 1.377 . S
C626 C628 1.384 . S
C627 C626 1.377 . S
C627 C633 1.390 . S
C628 H619 0.930 . S
C628 C626 1.384 . S
C628 C629 1.372 . S
C629 C628 1.372 . S
C629 C630 1.400 . S
C629 C634 1.490 . S
C630 H620 0.930 . S
C630 C629 1.400 . S
C630 C633 1.386 . S
H631 C647 0.930 . S
H632 C648 0.931 . S
C633 H621 0.929 . S
C633 C627 1.390 . S
C633 C630 1.386 . S
C634 C629 1.490 . S
C634 C636 1.395 . S
C634 C637 1.403 . S
H635 C641 0.930 . S
C636 H622 0.930 . S
C636 C634 1.395 . S
C636 C639 1.403 . S
C637 C634 1.403 . S
C637 C638 1.524 . S
C637 C641 1.400 . S
C638 H623 0.960 . S
C638 H624 0.960 . S
C638 H625 0.960 . S
C638 C637 1.524 . S
C639 C636 1.403 . S
C639 C640 1.392 . S
C639 C643 1.495 . S
C640 C639 1.392 . S
C640 C641 1.385 . S
C640 C642 1.478 . S
C641 H635 0.930 . S
C641 C637 1.400 . S
C641 C640 1.385 . S
C642 C640 1.478 . S
C642 C644 1.381 . S
C642 C648 1.383 . S
C643 C639 1.495 . S
C643 H649 0.959 . S
C643 H650 0.961 . S
C643 H651 0.960 . S
C644 C642 1.381 . S
C644 C645 1.394 . S
C644 H652 0.930 . S
C645 C644 1.394 . S
C645 C646 1.383 . S
C645 H653 0.929 . S
C646 C645 1.383 . S
C646 C647 1.377 . S
C647 H631 0.930 . S
C647 C646 1.377 . S
C647 C648 1.379 . S
C648 H632 0.931 . S
C648 C642 1.383 . S
C648 C647 1.379 . S
H649 C643 0.959 . S
H650 C643 0.961 . S
H651 C643 0.960 . S
H652 C644 0.930 . S
H653 C645 0.929 . S
H654 C662 0.929 . S
H655 C664 0.930 . S
H656 C666 0.930 . S
H657 C669 0.929 . S
H658 C672 0.930 . S
H659 C674 0.960 . S
H660 C674 0.960 . S
H661 C674 0.960 . S
C662 H654 0.929 . S
C662 C663 1.377 . S
C662 C664 1.384 . S
C663 C662 1.377 . S
C663 C669 1.390 . S
C664 H655 0.930 . S
C664 C662 1.384 . S
C664 C665 1.372 . S
C665 C664 1.372 . S
C665 C666 1.400 . S
C665 C670 1.490 . S
C666 H656 0.930 . S
C666 C665 1.400 . S
C666 C669 1.386 . S
H667 C683 0.930 . S
H668 C684 0.931 . S
C669 H657 0.929 . S
C669 C663 1.390 . S
C669 C666 1.386 . S
C670 C665 1.490 . S
C670 C672 1.395 . S
C670 C673 1.403 . S
H671 C677 0.930 . S
C672 H658 0.930 . S
C672 C670 1.395 . S
C672 C675 1.403 . S
C673 C670 1.403 . S
C673 C674 1.524 . S
C673 C677 1.400 . S
C674 H659 0.960 . S
C674 H660 0.960 . S
C674 H661 0.960 . S
C674 C673 1.524 . S
C675 C672 1.403 . S
C675 C676 1.392 . S
C675 C679 1.495 . S
C676 C675 1.392 . S
C676 C677 1.385 . S
C676 C678 1.478 . S
C677 H671 0.930 . S
C677 C673 1.400 . S
C677 C676 1.385 . S
C678 C676 1.478 . S
C678 C680 1.381 . S
C678 C684 1.383 . S
C679 C675 1.495 . S
C679 H685 0.959 . S
C679 H686 0.961 . S
C679 H687 0.960 . S
C680 C678 1.381 . S
C680 C681 1.394 . S
C680 H688 0.930 . S
C681 C680 1.394 . S
C681 C682 1.383 . S
C681 H689 0.929 . S
C682 C681 1.383 . S
C682 C683 1.377 . S
C683 H667 0.930 . S
C683 C682 1.377 . S
C683 C684 1.379 . S
C684 H668 0.931 . S
C684 C678 1.383 . S
C684 C683 1.379 . S
H685 C679 0.959 . S
H686 C679 0.961 . S
H687 C679 0.960 . S
H688 C680 0.930 . S
H689 C681 0.929 . S
H690 C698 0.929 . S
H691 C700 0.930 . S
H692 C702 0.930 . S
H693 C705 0.929 . S
H694 C708 0.930 . S
H695 C710 0.960 . S
H696 C710 0.960 . S
H697 C710 0.960 . S
C698 H690 0.929 . S
C698 C699 1.377 . S
C698 C700 1.384 . S
C699 C698 1.377 . S
C699 C705 1.390 . S
C700 H691 0.930 . S
C700 C698 1.384 . S
C700 C701 1.372 . S
C701 C700 1.372 . S
C701 C702 1.400 . S
C701 C706 1.490 . S
C702 H692 0.930 . S
C702 C701 1.400 . S
C702 C705 1.386 . S
H703 C719 0.930 . S
H704 C720 0.931 . S
C705 H693 0.929 . S
C705 C699 1.390 . S
C705 C702 1.386 . S
C706 C701 1.490 . S
C706 C708 1.395 . S
C706 C709 1.403 . S
H707 C713 0.930 . S
C708 H694 0.930 . S
C708 C706 1.395 . S
C708 C711 1.403 . S
C709 C706 1.403 . S
C709 C710 1.524 . S
C709 C713 1.400 . S
C710 H695 0.960 . S
C710 H696 0.960 . S
C710 H697 0.960 . S
C710 C709 1.524 . S
C711 C708 1.403 . S
C711 C712 1.392 . S
C711 C715 1.495 . S
C712 C711 1.392 . S
C712 C713 1.385 . S
C712 C714 1.478 . S
C713 H707 0.930 . S
C713 C709 1.400 . S
C713 C712 1.385 . S
C714 C712 1.478 . S
C714 C716 1.381 . S
C714 C720 1.383 . S
C715 C711 1.495 . S
C715 H721 0.959 . S
C715 H722 0.961 . S
C715 H723 0.960 . S
C716 C714 1.381 . S
C716 C717 1.394 . S
C716 H724 0.930 . S
C717 C716 1.394 . S
C717 C718 1.383 . S
C717 H725 0.929 . S
C718 C717 1.383 . S
C718 C719 1.377 . S
C719 H703 0.930 . S
C719 C718 1.377 . S
C719 C720 1.379 . S
C720 H704 0.931 . S
C720 C714 1.383 . S
C720 C719 1.379 . S
H721 C715 0.959 . S
H722 C715 0.961 . S
H723 C715 0.960 . S
H724 C716 0.930 . S
H725 C717 0.929 . S
H726 C734 0.929 . S
H727 C736 0.930 . S
H728 C738 0.930 . S
H729 C741 0.929 . S
H730 C744 0.930 . S
H731 C746 0.960 . S
H732 C746 0.960 . S
H733 C746 0.960 . S
C734 H726 0.929 . S
C734 C735 1.377 . S
C734 C736 1.384 . S
C735 C734 1.377 . S
C735 C741 1.390 . S
C736 H727 0.930 . S
C736 C734 1.384 . S
C736 C737 1.372 . S
C737 C736 1.372 . S
C737 C738 1.400 . S
C737 C742 1.490 . S
C738 H728 0.930 . S
C738 C737 1.400 . S
C738 C741 1.386 . S
H739 C755 0.930 . S
H740 C756 0.931 . S
C741 H729 0.929 . S
C741 C735 1.390 . S
C741 C738 1.386 . S
C742 C737 1.490 . S
C742 C744 1.395 . S
C742 C745 1.403 . S
H743 C749 0.930 . S
C744 H730 0.930 . S
C744 C742 1.395 . S
C744 C747 1.403 . S
C745 C742 1.403 . S
C745 C746 1.524 1_455 S
C745 C749 1.400 . S
C746 H731 0.960 . S
C746 H732 0.960 . S
C746 H733 0.960 . S
C746 C745 1.524 1_655 S
C747 C744 1.403 . S
C747 C748 1.392 . S
C747 C751 1.495 . S
C748 C747 1.392 . S
C748 C749 1.385 . S
C748 C750 1.478 . S
C749 H743 0.930 . S
C749 C745 1.400 . S
C749 C748 1.385 . S
C750 C748 1.478 . S
C750 C752 1.381 . S
C750 C756 1.383 . S
C751 C747 1.495 . S
C751 H757 0.959 . S
C751 H758 0.961 . S
C751 H759 0.960 . S
C752 C750 1.381 . S
C752 C753 1.394 1_554 S
C752 H760 0.930 . S
C753 C752 1.394 1_556 S
C753 C754 1.383 . S
C753 H761 0.929 . S
C754 C753 1.383 . S
C754 C755 1.377 . S
C755 H739 0.930 . S
C755 C754 1.377 . S
C755 C756 1.379 1_556 S
C756 H740 0.931 . S
C756 C750 1.383 . S
C756 C755 1.379 1_554 S
H757 C751 0.959 . S
H758 C751 0.961 . S
H759 C751 0.960 . S
H760 C752 0.930 . S
H761 C753 0.929 . S
H762 C770 0.929 . S
H763 C772 0.930 . S
H764 C774 0.930 . S
H765 C777 0.929 . S
H766 C780 0.930 . S
H767 C782 0.960 . S
H768 C782 0.960 . S
H769 C782 0.960 . S
C770 H762 0.929 . S
C770 C771 1.377 1_565 S
C770 C772 1.384 . S
C771 C770 1.377 1_545 S
C771 C777 1.390 . S
C772 H763 0.930 . S
C772 C770 1.384 . S
C772 C773 1.372 1_565 S
C773 C772 1.372 1_545 S
C773 C774 1.400 . S
C773 C778 1.490 . S
C774 H764 0.930 . S
C774 C773 1.400 . S
C774 C777 1.386 . S
H775 C791 0.930 . S
H776 C792 0.931 . S
C777 H765 0.929 . S
C777 C771 1.390 . S
C777 C774 1.386 . S
C778 C773 1.490 . S
C778 C780 1.395 . S
C778 C781 1.403 . S
H779 C785 0.930 . S
C780 H766 0.930 . S
C780 C778 1.395 . S
C780 C783 1.403 . S
C781 C778 1.403 . S
C781 C782 1.524 . S
C781 C785 1.400 . S
C782 H767 0.960 . S
C782 H768 0.960 . S
C782 H769 0.960 . S
C782 C781 1.524 . S
C783 C780 1.403 . S
C783 C784 1.392 . S
C783 C787 1.495 1_545 S
C784 C783 1.392 . S
C784 C785 1.385 . S
C784 C786 1.478 . S
C785 H779 0.930 . S
C785 C781 1.400 . S
C785 C784 1.385 . S
C786 C784 1.478 . S
C786 C788 1.381 1_545 S
C786 C792 1.383 . S
C787 C783 1.495 1_565 S
C787 H793 0.959 . S
C787 H794 0.961 1_565 S
C787 H795 0.960 . S
C788 C786 1.381 1_565 S
C788 C789 1.394 . S
C788 H796 0.930 . S
C789 C788 1.394 . S
C789 C790 1.383 1_565 S
C789 H797 0.929 . S
C790 C789 1.383 1_545 S
C790 C791 1.377 . S
C791 H775 0.930 . S
C791 C790 1.377 . S
C791 C792 1.379 . S
C792 H776 0.931 . S
C792 C786 1.383 . S
C792 C791 1.379 . S
H793 C787 0.959 . S
H794 C787 0.961 1_545 S
H795 C787 0.960 . S
H796 C788 0.930 . S
H797 C789 0.929 . S
H798 C806 0.929 . S
H799 C808 0.930 . S
H800 C810 0.930 . S
H801 C813 0.929 . S
H802 C816 0.930 . S
H803 C818 0.960 . S
H804 C818 0.960 . S
H805 C818 0.960 . S
C806 H798 0.929 . S
C806 C807 1.377 . S
C806 C808 1.384 . S
C807 C806 1.377 . S
C807 C813 1.390 . S
C808 H799 0.930 . S
C808 C806 1.384 . S
C808 C809 1.372 . S
C809 C808 1.372 . S
C809 C810 1.400 . S
C809 C814 1.490 . S
C810 H800 0.930 . S
C810 C809 1.400 . S
C810 C813 1.386 . S
H811 C827 0.930 . S
H812 C828 0.931 . S
C813 H801 0.929 . S
C813 C807 1.390 . S
C813 C810 1.386 . S
C814 C809 1.490 . S
C814 C816 1.395 . S
C814 C817 1.403 . S
H815 C821 0.930 . S
C816 H802 0.930 . S
C816 C814 1.395 . S
C816 C819 1.403 . S
C817 C814 1.403 . S
C817 C818 1.524 . S
C817 C821 1.400 . S
C818 H803 0.960 . S
C818 H804 0.960 . S
C818 H805 0.960 . S
C818 C817 1.524 . S
C819 C816 1.403 . S
C819 C820 1.392 . S
C819 C823 1.495 . S
C820 C819 1.392 . S
C820 C821 1.385 . S
C820 C822 1.478 . S
C821 H815 0.930 . S
C821 C817 1.400 . S
C821 C820 1.385 . S
C822 C820 1.478 . S
C822 C824 1.381 . S
C822 C828 1.383 . S
C823 C819 1.495 . S
C823 H829 0.959 . S
C823 H830 0.961 . S
C823 H831 0.960 . S
C824 C822 1.381 . S
C824 C825 1.394 . S
C824 H832 0.930 . S
C825 C824 1.394 . S
C825 C826 1.383 . S
C825 H833 0.929 . S
C826 C825 1.383 . S
C826 C827 1.377 . S
C827 H811 0.930 . S
C827 C826 1.377 . S
C827 C828 1.379 . S
C828 H812 0.931 . S
C828 C822 1.383 . S
C828 C827 1.379 . S
H829 C823 0.959 . S
H830 C823 0.961 . S
H831 C823 0.960 . S
H832 C824 0.930 . S
H833 C825 0.929 . S
H834 C842 0.929 . S
H835 C844 0.930 . S
H836 C846 0.930 1_565 S
H837 C849 0.929 1_565 S
H838 C852 0.930 . S
H839 C854 0.960 . S
H840 C854 0.960 . S
H841 C854 0.960 . S
C842 H834 0.929 . S
C842 C843 1.377 . S
C842 C844 1.384 . S
C843 C842 1.377 . S
C843 C849 1.390 . S
C844 H835 0.930 . S
C844 C842 1.384 . S
C844 C845 1.372 . S
C845 C844 1.372 . S
C845 C846 1.400 . S
C845 C850 1.490 . S
C846 H836 0.930 1_545 S
C846 C845 1.400 . S
C846 C849 1.386 . S
H847 C863 0.930 . S
H848 C864 0.931 . S
C849 H837 0.929 1_545 S
C849 C843 1.390 . S
C849 C846 1.386 . S
C850 C845 1.490 . S
C850 C852 1.395 . S
C850 C853 1.403 . S
H851 C857 0.930 . S
C852 H838 0.930 . S
C852 C850 1.395 . S
C852 C855 1.403 . S
C853 C850 1.403 . S
C853 C854 1.524 . S
C853 C857 1.400 . S
C854 H839 0.960 . S
C854 H840 0.960 . S
C854 H841 0.960 . S
C854 C853 1.524 . S
C855 C852 1.403 . S
C855 C856 1.392 . S
C855 C859 1.495 . S
C856 C855 1.392 . S
C856 C857 1.385 . S
C856 C858 1.478 . S
C857 H851 0.930 . S
C857 C853 1.400 . S
C857 C856 1.385 . S
C858 C856 1.478 . S
C858 C860 1.381 . S
C858 C864 1.383 . S
C859 C855 1.495 . S
C859 H865 0.959 . S
C859 H866 0.961 . S
C859 H867 0.960 . S
C860 C858 1.381 . S
C860 C861 1.394 . S
C860 H868 0.930 . S
C861 C860 1.394 . S
C861 C862 1.383 . S
C861 H869 0.929 . S
C862 C861 1.383 . S
C862 C863 1.377 . S
C863 H847 0.930 . S
C863 C862 1.377 . S
C863 C864 1.379 . S
C864 H848 0.931 . S
C864 C858 1.383 . S
C864 C863 1.379 . S
H865 C859 0.959 . S
H866 C859 0.961 . S
H867 C859 0.960 . S
H868 C860 0.930 . S
H869 C861 0.929 . S
H870 C878 0.929 . S
H871 C880 0.930 . S
H872 C882 0.930 . S
H873 C885 0.929 . S
H874 C888 0.930 . S
H875 C890 0.960 . S
H876 C890 0.960 . S
H877 C890 0.960 . S
C878 H870 0.929 . S
C878 C879 1.377 . S
C878 C880 1.384 . S
C879 C878 1.377 . S
C879 C885 1.390 . S
C880 H871 0.930 . S
C880 C878 1.384 . S
C880 C881 1.372 . S
C881 C880 1.372 . S
C881 C882 1.400 . S
C881 C886 1.490 . S
C882 H872 0.930 . S
C882 C881 1.400 . S
C882 C885 1.386 . S
H883 C899 0.930 . S
H884 C900 0.931 . S
C885 H873 0.929 . S
C885 C879 1.390 . S
C885 C882 1.386 . S
C886 C881 1.490 . S
C886 C888 1.395 . S
C886 C889 1.403 . S
H887 C893 0.930 . S
C888 H874 0.930 . S
C888 C886 1.395 . S
C888 C891 1.403 . S
C889 C886 1.403 . S
C889 C890 1.524 . S
C889 C893 1.400 . S
C890 H875 0.960 . S
C890 H876 0.960 . S
C890 H877 0.960 . S
C890 C889 1.524 . S
C891 C888 1.403 . S
C891 C892 1.392 . S
C891 C895 1.495 . S
C892 C891 1.392 . S
C892 C893 1.385 . S
C892 C894 1.478 . S
C893 H887 0.930 . S
C893 C889 1.400 . S
C893 C892 1.385 . S
C894 C892 1.478 . S
C894 C896 1.377 1_556 S
C894 C900 1.383 . S
C895 C891 1.495 . S
C895 H901 0.959 . S
C895 H902 0.961 . S
C895 H903 0.960 . S
C896 C894 1.377 1_554 S
C896 C897 1.400 . S
C896 H904 0.928 1_554 S
C897 C896 1.400 . S
C897 C898 1.383 . S
C897 H905 0.929 . S
C898 C897 1.383 . S
C898 C899 1.377 . S
C899 H883 0.930 . S
C899 C898 1.377 . S
C899 C900 1.379 1_554 S
C900 H884 0.931 . S
C900 C894 1.383 . S
C900 C899 1.379 1_556 S
H901 C895 0.959 . S
H902 C895 0.961 . S
H903 C895 0.960 . S
H904 C896 0.928 1_556 S
H905 C897 0.929 . S
H906 C914 0.929 . S
H907 C916 0.930 . S
H908 C918 0.930 . S
H909 C921 0.929 . S
H910 C924 0.930 . S
H911 C926 0.960 1_655 S
H912 C926 0.960 . S
H913 C926 0.960 1_655 S
C914 H906 0.929 . S
C914 C915 1.377 . S
C914 C916 1.384 . S
C915 C914 1.377 . S
C915 C921 1.390 1_455 S
C916 H907 0.930 . S
C916 C914 1.384 . S
C916 C917 1.372 . S
C917 C916 1.372 . S
C917 C918 1.400 1_455 S
C917 C922 1.490 . S
C918 H908 0.930 . S
C918 C917 1.400 1_655 S
C918 C921 1.386 . S
H919 C935 0.930 . S
H920 C936 0.931 . S
C921 H909 0.929 . S
C921 C915 1.390 1_655 S
C921 C918 1.386 . S
C922 C917 1.490 . S
C922 C924 1.395 . S
C922 C925 1.403 . S
H923 C929 0.930 . S
C924 H910 0.930 . S
C924 C922 1.395 . S
C924 C927 1.403 . S
C925 C922 1.403 . S
C925 C926 1.524 . S
C925 C929 1.400 . S
C926 H911 0.960 1_455 S
C926 H912 0.960 . S
C926 H913 0.960 1_455 S
C926 C925 1.524 . S
C927 C924 1.403 . S
C927 C928 1.392 . S
C927 C931 1.495 . S
C928 C927 1.392 . S
C928 C929 1.385 . S
C928 C930 1.478 . S
C929 H923 0.930 . S
C929 C925 1.400 . S
C929 C928 1.385 . S
C930 C928 1.478 . S
C930 C932 1.381 . S
C930 C936 1.383 1_455 S
C931 C927 1.495 . S
C931 H937 0.959 . S
C931 H938 0.961 . S
C931 H939 0.960 . S
C932 C930 1.381 . S
C932 C933 1.394 . S
C932 H940 0.930 . S
C933 C932 1.394 . S
C933 C934 1.383 . S
C933 H941 0.929 . S
C934 C933 1.383 . S
C934 C935 1.377 1_455 S
C935 H919 0.930 . S
C935 C934 1.377 1_655 S
C935 C936 1.379 . S
C936 H920 0.931 . S
C936 C930 1.383 1_655 S
C936 C935 1.379 . S
H937 C931 0.959 . S
H938 C931 0.961 . S
H939 C931 0.960 . S
H940 C932 0.930 . S
H941 C933 0.929 . S
C303 C2 1.042 . S
C322 C271 1.013 . S
C339 C21 0.976 . S
C358 C198 0.973 . S
C375 C42 1.047 . S
C394 C237 1.046 . S
C411 C1 0.946 . S
C430 C276 0.935 . S
C466 C193 1.007 . S
C447 C22 1.028 . S
C502 C232 0.980 . S
C483 C41 0.954 . S
C519 C38 1.828 . S
C538 C120 1.815 . S
C555 C59 1.919 . S
C574 C154 1.895 . S
C591 C18 1.817 . S
C610 C76 1.779 . S
C646 C115 1.866 . S
C627 C39 1.901 . S
C682 C159 1.808 . S
C663 C58 1.811 . S
C699 C19 1.915 . S
C718 C81 1.882 . S
C754 C139 1.560 . S
C735 C9 1.496 . S
C771 C29 1.502 . S
C790 C61 1.563 . S
C807 C49 1.500 . S
C826 C100 1.560 . S
C862 C217 1.384 . S
C843 C28 1.363 . S
C898 C256 1.385 . S
C879 C48 1.353 . S
C915 C8 1.350 . S
C934 C178 1.384 . S
