# Generated by pormake.
# Topology pto, (3,4)-cn, num edge types: 1
# Building blocks:
#     Node 0, Type 0, BuildingBlock: WUSLED_clean_sbu_0, # of connection points: 3
#     Node 1, Type 0, BuildingBlock: WUSLED_clean_sbu_0, # of connection points: 3
#     Node 2, Type 0, BuildingBlock: WUSLED_clean_sbu_0, # of connection points: 3
#     Node 3, Type 0, BuildingBlock: WUSLED_clean_sbu_0, # of connection points: 3
#     Node 4, Type 0, BuildingBlock: WUSLED_clean_sbu_0, # of connection points: 3
#     Node 5, Type 0, BuildingBlock: WUSLED_clean_sbu_0, # of connection points: 3
#     Node 6, Type 0, BuildingBlock: WUSLED_clean_sbu_0, # of connection points: 3
#     Node 7, Type 0, BuildingBlock: WUSLED_clean_sbu_0, # of connection points: 3
#     Node 8, Type 1, BuildingBlock: KUFVIS_clean_linker_0, # of connection points: 4
#     Node 9, Type 1, BuildingBlock: KUFVIS_clean_linker_0, # of connection points: 4
#     Node 10, Type 1, BuildingBlock: KUFVIS_clean_linker_0, # of connection points: 4
#     Node 11, Type 1, BuildingBlock: KUFVIS_clean_linker_0, # of connection points: 4
#     Node 12, Type 1, BuildingBlock: KUFVIS_clean_linker_0, # of connection points: 4
#     Node 13, Type 1, BuildingBlock: KUFVIS_clean_linker_0, # of connection points: 4
#     Edge 14, Type (0, 1), BuildingBlock: MIFKUJ_clean_linker_0, # of connection points: 2
#     Edge 15, Type (0, 1), BuildingBlock: MIFKUJ_clean_linker_0, # of connection points: 2
#     Edge 16, Type (0, 1), BuildingBlock: MIFKUJ_clean_linker_0, # of connection points: 2
#     Edge 17, Type (0, 1), BuildingBlock: MIFKUJ_clean_linker_0, # of connection points: 2
#     Edge 18, Type (0, 1), BuildingBlock: MIFKUJ_clean_linker_0, # of connection points: 2
#     Edge 19, Type (0, 1), BuildingBlock: MIFKUJ_clean_linker_0, # of connection points: 2
#     Edge 20, Type (0, 1), BuildingBlock: MIFKUJ_clean_linker_0, # of connection points: 2
#     Edge 21, Type (0, 1), BuildingBlock: MIFKUJ_clean_linker_0, # of connection points: 2
#     Edge 22, Type (0, 1), BuildingBlock: MIFKUJ_clean_linker_0, # of connection points: 2
#     Edge 23, Type (0, 1), BuildingBlock: MIFKUJ_clean_linker_0, # of connection points: 2
#     Edge 24, Type (0, 1), BuildingBlock: MIFKUJ_clean_linker_0, # of connection points: 2
#     Edge 25, Type (0, 1), BuildingBlock: MIFKUJ_clean_linker_0, # of connection points: 2
#     Edge 26, Type (0, 1), BuildingBlock: MIFKUJ_clean_linker_0, # of connection points: 2
#     Edge 27, Type (0, 1), BuildingBlock: MIFKUJ_clean_linker_0, # of connection points: 2
#     Edge 28, Type (0, 1), BuildingBlock: MIFKUJ_clean_linker_0, # of connection points: 2
#     Edge 29, Type (0, 1), BuildingBlock: MIFKUJ_clean_linker_0, # of connection points: 2
#     Edge 30, Type (0, 1), BuildingBlock: MIFKUJ_clean_linker_0, # of connection points: 2
#     Edge 31, Type (0, 1), BuildingBlock: MIFKUJ_clean_linker_0, # of connection points: 2
#     Edge 32, Type (0, 1), BuildingBlock: MIFKUJ_clean_linker_0, # of connection points: 2
#     Edge 33, Type (0, 1), BuildingBlock: MIFKUJ_clean_linker_0, # of connection points: 2
#     Edge 34, Type (0, 1), BuildingBlock: MIFKUJ_clean_linker_0, # of connection points: 2
#     Edge 35, Type (0, 1), BuildingBlock: MIFKUJ_clean_linker_0, # of connection points: 2
#     Edge 36, Type (0, 1), BuildingBlock: MIFKUJ_clean_linker_0, # of connection points: 2
#     Edge 37, Type (0, 1), BuildingBlock: MIFKUJ_clean_linker_0, # of connection points: 2
# Relax obj value: 0.002
# Max RMSD: 0.051
# Mean RMSD: 0.028
data_MOF--net-pto--node1-WUSLED_clean_sbu_0--node2-KUFVIS_clean_linker_0--edge1-MIFKUJ_clean_linker_0
_symmetry_space_group_name_H-M    P1
_symmetry_Int_Tables_number       1
_symmetry_cell_setting            triclinic
loop_
_symmetry_equiv_pos_as_xyz
'x, y, z'
_cell_length_a     48.493382
_cell_length_b     80.811775
_cell_length_c     65.346422
_cell_angle_alpha  89.66035
_cell_angle_beta   90.646044
_cell_angle_gamma 90.624796
loop_
_atom_site_label
_atom_site_type_symbol
_atom_site_fract_x
_atom_site_fract_y
_atom_site_fract_z
_atom_type_partial_charge
C0 C 0.22261 0.23389 0.35282 0.0
C1 C 0.24215 0.22229 0.34665 0.0
C2 C 0.22477 0.20235 0.37168 0.0
C3 C 0.2433 0.20669 0.35606 0.0
C4 C 0.20519 0.21404 0.37773 0.0
C5 C 0.20416 0.22965 0.36839 0.0
U6 U 0.23975 0.26313 0.30874 0.0
O7 O 0.21412 0.28139 0.29236 0.0
O8 O 0.25202 0.2894 0.30836 0.0
C9 C 0.2299 0.29392 0.29801 0.0
C10 C 0.22095 0.2503 0.34294 0.0
C11 C 0.21567 0.30896 0.30488 0.0
C12 C 0.20855 0.33101 0.32947 0.0
C13 C 0.22033 0.31583 0.32435 0.0
C14 C 0.1868 0.33243 0.29599 0.0
C15 C 0.19194 0.33961 0.31524 0.0
C16 C 0.19859 0.31733 0.29088 0.0
C17 C 0.28193 0.24758 0.26422 0.0
C18 C 0.28954 0.26459 0.23397 0.0
C19 C 0.31198 0.23805 0.23738 0.0
C20 C 0.29947 0.2356 0.25635 0.0
C21 C 0.30713 0.25256 0.22591 0.0
C22 C 0.27707 0.26212 0.25297 0.0
C23 C 0.2688 0.2448 0.28412 0.0
O24 O 0.24429 0.25868 0.34185 0.0
O25 O 0.2064 0.25081 0.32586 0.0
O26 O 0.2417 0.24502 0.28384 0.0
O27 O 0.27972 0.25308 0.2995 0.0
H28 H 0.25645 0.22529 0.33452 0.0
H29 H 0.25842 0.19793 0.35087 0.0
H30 H 0.19084 0.21118 0.38986 0.0
H31 H 0.18891 0.23843 0.37333 0.0
H32 H 0.21309 0.33621 0.34438 0.0
H33 H 0.2335 0.30969 0.33544 0.0
H34 H 0.17369 0.3385 0.28479 0.0
H35 H 0.19475 0.3123 0.27576 0.0
H36 H 0.2851 0.27581 0.22547 0.0
H37 H 0.32575 0.22866 0.23182 0.0
H38 H 0.30354 0.22434 0.2649 0.0
H39 H 0.26355 0.27152 0.25885 0.0
C40 C 0.21976 0.80605 0.66876 0.0
C41 C 0.24212 0.8167 0.67316 0.0
C42 C 0.22207 0.83819 0.6515 0.0
C43 C 0.24335 0.83258 0.66451 0.0
C44 C 0.1996 0.82753 0.64729 0.0
C45 C 0.19851 0.8116 0.65581 0.0
U46 U 0.23737 0.77662 0.7122 0.0
O47 O 0.21291 0.75742 0.72793 0.0
O48 O 0.25119 0.75074 0.71246 0.0
C49 C 0.22976 0.74551 0.7229 0.0
C50 C 0.21811 0.78935 0.67797 0.0
C51 C 0.21708 0.72976 0.71642 0.0
C52 C 0.18496 0.71349 0.69569 0.0
C53 C 0.19734 0.72877 0.70058 0.0
C54 C 0.21228 0.70017 0.7222 0.0
C55 C 0.19207 0.69905 0.70667 0.0
C56 C 0.22461 0.71535 0.727 0.0
C57 C 0.27943 0.7928 0.75742 0.0
C58 C 0.28123 0.77957 0.79093 0.0
C59 C 0.3175 0.79867 0.78082 0.0
C60 C 0.30424 0.8011 0.76195 0.0
C61 C 0.3061 0.78794 0.79562 0.0
C62 C 0.26811 0.78191 0.77198 0.0
C63 C 0.2659 0.79546 0.73739 0.0
O64 O 0.24149 0.78128 0.67918 0.0
O65 O 0.20347 0.7882 0.69474 0.0
O66 O 0.23881 0.79464 0.73723 0.0
O67 O 0.27704 0.78773 0.72195 0.0
H68 H 0.25861 0.81276 0.68334 0.0
H69 H 0.26076 0.84055 0.66825 0.0
H70 H 0.18302 0.83143 0.63718 0.0
H71 H 0.18103 0.8036 0.6523 0.0
H72 H 0.16937 0.71304 0.68371 0.0
H73 H 0.19129 0.7398 0.69224 0.0
H74 H 0.21861 0.68928 0.73069 0.0
H75 H 0.2399 0.71588 0.73921 0.0
H76 H 0.27167 0.77137 0.80199 0.0
H77 H 0.33688 0.80507 0.78369 0.0
H78 H 0.31343 0.80943 0.75084 0.0
H79 H 0.24905 0.77525 0.76875 0.0
C80 C 0.74091 0.79033 0.26301 0.0
C81 C 0.7573 0.78891 0.24548 0.0
C82 C 0.71641 0.78402 0.22428 0.0
C83 C 0.74517 0.78579 0.22633 0.0
C84 C 0.70004 0.78554 0.24177 0.0
C85 C 0.71213 0.78874 0.26088 0.0
U86 U 0.78016 0.77661 0.31126 0.0
O87 O 0.81249 0.7893 0.3293 0.0
O88 O 0.77315 0.78263 0.34363 0.0
C89 C 0.79661 0.79083 0.34536 0.0
C90 C 0.75335 0.7938 0.28341 0.0
C91 C 0.79466 0.80764 0.35398 0.0
C92 C 0.79303 0.83759 0.34985 0.0
C93 C 0.79491 0.82177 0.34134 0.0
C94 C 0.79008 0.82536 0.38368 0.0
C95 C 0.79053 0.83957 0.37113 0.0
C96 C 0.79219 0.80957 0.37518 0.0
C97 C 0.80201 0.73 0.31216 0.0
C98 C 0.84262 0.7134 0.31947 0.0
C99 C 0.79736 0.70049 0.31937 0.0
C100 C 0.78548 0.71579 0.31481 0.0
C101 C 0.82614 0.69902 0.32124 0.0
C102 C 0.83071 0.72873 0.31496 0.0
C103 C 0.78924 0.74521 0.30375 0.0
O104 O 0.74124 0.78664 0.2991 0.0
O105 O 0.78042 0.79352 0.28476 0.0
O106 O 0.80583 0.75729 0.29791 0.0
O107 O 0.7668 0.75044 0.31265 0.0
H108 H 0.77953 0.79018 0.24649 0.0
H109 H 0.75835 0.7846 0.21316 0.0
H110 H 0.67778 0.78452 0.24065 0.0
H111 H 0.69891 0.79002 0.27402 0.0
H112 H 0.79312 0.84826 0.33975 0.0
H113 H 0.79651 0.82059 0.32489 0.0
H114 H 0.78849 0.82645 0.40014 0.0
H115 H 0.7919 0.79884 0.3852 0.0
H116 H 0.86484 0.71274 0.32111 0.0
H117 H 0.78406 0.68967 0.32042 0.0
H118 H 0.76335 0.71637 0.31246 0.0
H119 H 0.84409 0.73942 0.31298 0.0
C120 C 0.76987 0.21648 0.69726 0.0
C121 C 0.79542 0.21062 0.69053 0.0
C122 C 0.77226 0.18864 0.67122 0.0
C123 C 0.79658 0.19682 0.67768 0.0
C124 C 0.74676 0.19476 0.67765 0.0
C125 C 0.74561 0.20847 0.69056 0.0
U126 U 0.78272 0.26111 0.71729 0.0
O127 O 0.75465 0.2771 0.73415 0.0
O128 O 0.79338 0.2691 0.7486 0.0
C129 C 0.77008 0.27701 0.75081 0.0
C130 C 0.76789 0.22999 0.7124 0.0
C131 C 0.7555 0.27402 0.77009 0.0
C132 C 0.72322 0.25829 0.79091 0.0
C133 C 0.73795 0.26028 0.77273 0.0
C134 C 0.74396 0.28356 0.80405 0.0
C135 C 0.72592 0.26999 0.80674 0.0
C136 C 0.75857 0.28554 0.7859 0.0
C137 C 0.8204 0.29482 0.68859 0.0
C138 C 0.83263 0.32043 0.706 0.0
C139 C 0.83595 0.31882 0.66911 0.0
C140 C 0.82671 0.30234 0.66981 0.0
C141 C 0.83908 0.32809 0.68721 0.0
C142 C 0.82329 0.30401 0.70666 0.0
C143 C 0.8101 0.27761 0.68928 0.0
O144 O 0.79081 0.23462 0.7218 0.0
O145 O 0.75193 0.24246 0.70737 0.0
O146 O 0.7831 0.27598 0.68893 0.0
O147 O 0.82207 0.26802 0.70299 0.0
H148 H 0.81453 0.21651 0.69542 0.0
H149 H 0.81655 0.19255 0.67281 0.0
H150 H 0.72765 0.18865 0.67319 0.0
H151 H 0.72568 0.21261 0.6957 0.0
H152 H 0.70972 0.24762 0.79259 0.0
H153 H 0.73541 0.25124 0.76066 0.0
H154 H 0.74623 0.29291 0.81576 0.0
H155 H 0.77197 0.29626 0.78406 0.0
H156 H 0.83515 0.32705 0.72027 0.0
H157 H 0.84029 0.32435 0.65435 0.0
H158 H 0.82434 0.29549 0.65569 0.0
H159 H 0.81834 0.29846 0.72132 0.0
C160 C 0.80403 0.73133 0.71554 0.0
C161 C 0.83257 0.73056 0.71213 0.0
C162 C 0.82836 0.70139 0.70304 0.0
C163 C 0.84458 0.71575 0.70598 0.0
C164 C 0.79969 0.70237 0.70563 0.0
C165 C 0.78769 0.71716 0.71192 0.0
U166 U 0.78509 0.77793 0.71796 0.0
O167 O 0.74689 0.78924 0.72866 0.0
O168 O 0.78594 0.7942 0.74492 0.0
C169 C 0.75902 0.79588 0.74479 0.0
C170 C 0.7913 0.74608 0.72478 0.0
C171 C 0.74531 0.79318 0.76459 0.0
C172 C 0.71542 0.77708 0.78699 0.0
C173 C 0.72935 0.7789 0.76845 0.0
C174 C 0.73398 0.80345 0.79835 0.0
C175 C 0.71738 0.7894 0.80208 0.0
C176 C 0.74772 0.80533 0.77976 0.0
C177 C 0.80517 0.80895 0.67618 0.0
C178 C 0.79799 0.83858 0.67942 0.0
C179 C 0.81316 0.82732 0.64723 0.0
C180 C 0.81286 0.81141 0.65578 0.0
C181 C 0.80582 0.84115 0.65893 0.0
C182 C 0.79764 0.82262 0.68795 0.0
C183 C 0.80483 0.79206 0.68481 0.0
O184 O 0.80816 0.75752 0.73207 0.0
O185 O 0.76962 0.75222 0.71529 0.0
O186 O 0.78048 0.7848 0.68545 0.0
O187 O 0.81948 0.78989 0.70165 0.0
H188 H 0.84578 0.74125 0.71474 0.0
H189 H 0.86669 0.71546 0.70384 0.0
H190 H 0.78664 0.69153 0.70366 0.0
H191 H 0.76569 0.71738 0.7146 0.0
H192 H 0.70305 0.76603 0.78951 0.0
H193 H 0.72739 0.76926 0.75707 0.0
H194 H 0.7357 0.81324 0.80956 0.0
H195 H 0.75994 0.81642 0.77709 0.0
H196 H 0.79246 0.84891 0.68895 0.0
H197 H 0.81879 0.82874 0.63132 0.0
H198 H 0.81854 0.80099 0.64642 0.0
H199 H 0.79156 0.82094 0.70374 0.0
C200 C 0.73981 0.24369 0.2648 0.0
C201 C 0.73565 0.25931 0.25586 0.0
C202 C 0.71056 0.24656 0.22735 0.0
C203 C 0.72114 0.26074 0.23728 0.0
C204 C 0.71511 0.23095 0.23636 0.0
C205 C 0.72957 0.22955 0.2549 0.0
U206 U 0.7835 0.26125 0.30893 0.0
O207 O 0.78082 0.25624 0.34201 0.0
O208 O 0.8184 0.25002 0.32551 0.0
C209 C 0.80475 0.24877 0.34273 0.0
C210 C 0.75464 0.24189 0.28443 0.0
C211 C 0.80455 0.23222 0.35235 0.0
C212 C 0.79289 0.20286 0.35152 0.0
C213 C 0.79314 0.2185 0.34212 0.0
C214 C 0.81542 0.21453 0.38147 0.0
C215 C 0.80395 0.20069 0.37136 0.0
C216 C 0.81571 0.23013 0.37205 0.0
C217 C 0.80404 0.30799 0.3059 0.0
C218 C 0.81527 0.32823 0.33228 0.0
C219 C 0.82685 0.33394 0.29698 0.0
C220 C 0.81575 0.31861 0.29127 0.0
C221 C 0.82643 0.33909 0.31751 0.0
C222 C 0.80412 0.31282 0.32653 0.0
C223 C 0.79057 0.29254 0.29879 0.0
O224 O 0.78159 0.24345 0.28358 0.0
O225 O 0.74394 0.24968 0.3 0.0
O226 O 0.76937 0.28702 0.30932 0.0
O227 O 0.80695 0.28073 0.29272 0.0
H228 H 0.74346 0.27037 0.26331 0.0
H229 H 0.71778 0.27295 0.2309 0.0
H230 H 0.70768 0.21976 0.229 0.0
H231 H 0.73274 0.21739 0.26155 0.0
H232 H 0.78361 0.19254 0.34338 0.0
H233 H 0.78431 0.2199 0.32691 0.0
H234 H 0.82444 0.21328 0.39663 0.0
H235 H 0.82466 0.24057 0.38016 0.0
H236 H 0.81449 0.33181 0.34821 0.0
H237 H 0.83578 0.34179 0.28525 0.0
H238 H 0.81594 0.31513 0.27528 0.0
H239 H 0.79518 0.30483 0.33812 0.0
C240 C 0.21325 0.23356 0.66694 0.0
C241 C 0.21598 0.21892 0.67845 0.0
C242 C 0.21503 0.20253 0.64721 0.0
C243 C 0.21672 0.20355 0.66869 0.0
C244 C 0.21254 0.21726 0.63576 0.0
C245 C 0.21161 0.23261 0.64555 0.0
U246 U 0.23095 0.2617 0.71189 0.0
O247 O 0.24495 0.28768 0.71274 0.0
O248 O 0.2063 0.28038 0.72767 0.0
C249 C 0.22306 0.29259 0.72263 0.0
C250 C 0.21234 0.24986 0.67697 0.0
C251 C 0.20997 0.30791 0.71525 0.0
C252 C 0.19333 0.32607 0.68803 0.0
C253 C 0.2049 0.31101 0.69438 0.0
C254 C 0.19151 0.33489 0.72334 0.0
C255 C 0.18673 0.33827 0.70246 0.0
C256 C 0.20302 0.31991 0.72963 0.0
C257 C 0.2717 0.2433 0.75708 0.0
C258 C 0.29011 0.25962 0.78535 0.0
C259 C 0.29393 0.22975 0.78603 0.0
C260 C 0.28034 0.22886 0.76708 0.0
C261 C 0.29921 0.24515 0.79535 0.0
C262 C 0.27646 0.2587 0.76637 0.0
C263 C 0.25812 0.24201 0.7369 0.0
O264 O 0.19732 0.25059 0.69357 0.0
O265 O 0.23618 0.25764 0.67884 0.0
O266 O 0.26987 0.25041 0.72201 0.0
O267 O 0.23112 0.24322 0.73679 0.0
H268 H 0.21757 0.21938 0.69499 0.0
H269 H 0.21899 0.19247 0.67794 0.0
H270 H 0.21092 0.21691 0.61923 0.0
H271 H 0.20954 0.24376 0.63639 0.0
H272 H 0.19005 0.32828 0.67183 0.0
H273 H 0.21011 0.30187 0.68303 0.0
H274 H 0.18616 0.34381 0.73492 0.0
H275 H 0.20665 0.31772 0.74581 0.0
H276 H 0.29405 0.27168 0.79197 0.0
H277 H 0.30019 0.21835 0.79342 0.0
H278 H 0.2767 0.21687 0.76018 0.0
H279 H 0.26988 0.27 0.75884 0.0
C280 C 0.19986 0.74127 0.33822 0.0
C281 C 0.19599 0.73168 0.32055 0.0
C282 C 0.18192 0.70795 0.34131 0.0
C283 C 0.18698 0.71522 0.32207 0.0
C284 C 0.18647 0.7175 0.35901 0.0
C285 C 0.19528 0.73403 0.35745 0.0
U286 U 0.23469 0.77584 0.30845 0.0
O287 O 0.22277 0.80168 0.3026 0.0
O288 O 0.26211 0.7963 0.31808 0.0
C289 C 0.24491 0.80775 0.31173 0.0
C290 C 0.20858 0.75879 0.33667 0.0
C291 C 0.24057 0.82178 0.32558 0.0
C292 C 0.23122 0.83328 0.3591 0.0
C293 C 0.23431 0.81953 0.34634 0.0
C294 C 0.24026 0.85157 0.33039 0.0
C295 C 0.2344 0.84949 0.35129 0.0
C296 C 0.24333 0.83787 0.31772 0.0
C297 C 0.2654 0.76451 0.25662 0.0
C298 C 0.28908 0.78434 0.2347 0.0
C299 C 0.28456 0.75568 0.22437 0.0
C300 C 0.27032 0.75206 0.24235 0.0
C301 C 0.29416 0.77185 0.22032 0.0
C302 C 0.27477 0.78069 0.25271 0.0
C303 C 0.25079 0.76028 0.27555 0.0
O304 O 0.23535 0.76149 0.33726 0.0
O305 O 0.1959 0.76749 0.3224 0.0
O306 O 0.22612 0.76664 0.27737 0.0
O307 O 0.26563 0.76117 0.29246 0.0
H308 H 0.19974 0.73697 0.30555 0.0
H309 H 0.18403 0.70815 0.30818 0.0
H310 H 0.18255 0.71231 0.37403 0.0
H311 H 0.19826 0.74121 0.37127 0.0
H312 H 0.22689 0.83122 0.37514 0.0
H313 H 0.23208 0.80718 0.35269 0.0
H314 H 0.24233 0.86382 0.32375 0.0
H315 H 0.24803 0.83985 0.30171 0.0
H316 H 0.29598 0.79694 0.23198 0.0
H317 H 0.28852 0.74571 0.21384 0.0
H318 H 0.26332 0.73948 0.24518 0.0
H319 H 0.2711 0.79046 0.26361 0.0
H320 H 0.01011 0.46232 0.35359 0.0
H321 H 0.96574 0.50772 0.35082 0.0
H322 H 0.05455 0.50741 0.34274 0.0
H323 H 0.05302 0.53262 0.35549 0.0
H324 H 0.01092 0.57729 0.34051 0.0
H325 H 0.96808 0.53103 0.33357 0.0
C326 C 0.01013 0.4757 0.35212 0.0
C327 C 0.03507 0.48407 0.34902 0.0
C328 C 0.98513 0.48411 0.35219 0.0
C329 C 0.98523 0.50143 0.34989 0.0
C330 C 0.01026 0.51039 0.34689 0.0
C331 C 0.0351 0.50129 0.34592 0.0
C332 C 0.01049 0.52903 0.34485 0.0
C333 C 0.03449 0.53849 0.34982 0.0
C334 C 0.0346 0.55581 0.34795 0.0
C335 C 0.01075 0.56387 0.34152 0.0
C336 C 0.98673 0.55501 0.33654 0.0
C337 C 0.98665 0.53765 0.3381 0.0
H338 H 0.01057 0.57525 0.68657 0.0
H339 H 0.05068 0.52877 0.68299 0.0
H340 H 0.96115 0.5316 0.67871 0.0
H341 H 0.96081 0.50604 0.68826 0.0
H342 H -0.00019 0.46018 0.67625 0.0
H343 H 0.04663 0.50487 0.66947 0.0
C344 C 0.00908 0.5619 0.68495 0.0
C345 C 0.9832 0.55426 0.68356 0.0
C346 C 0.03314 0.55273 0.68416 0.0
C347 C 0.03154 0.53546 0.68244 0.0
C348 C 0.00562 0.52718 0.68051 0.0
C349 C 0.98144 0.53704 0.68062 0.0
C350 C 0.00388 0.50848 0.67884 0.0
C351 C 0.97902 0.49973 0.68324 0.0
C352 C 0.97762 0.48242 0.68185 0.0
C353 C 0.00096 0.47359 0.67658 0.0
C354 C 0.02589 0.48163 0.67254 0.0
C355 C 0.02725 0.49902 0.67335 0.0
H356 H 0.22135 0.07712 0.5089 0.0
H357 H 0.215 0.03194 0.54289 0.0
H358 H 0.23289 0.03143 0.47779 0.0
H359 H 0.21505 1.00667 0.47834 0.0
H360 H 0.22493 0.96162 0.51214 0.0
H361 H 0.23339 1.00758 0.5436 0.0
C362 C 0.22215 0.0637 0.50935 0.0
C363 C 0.22689 0.05504 0.49139 0.0
C364 C 0.21845 0.05538 0.52787 0.0
C365 C 0.21906 0.038 0.52843 0.0
C366 C 0.22402 0.02876 0.51041 0.0
C367 C 0.2283 0.0377 0.49189 0.0
C368 C 0.22441 1.01002 0.51086 0.0
C369 C 0.21971 1.00067 0.49277 0.0
C370 C 0.22 0.98326 0.49318 0.0
C371 C 0.2247 0.97505 0.51173 0.0
C372 C 0.229 0.98381 0.52982 0.0
C373 C 0.22914 1.00119 0.52941 0.0
H374 H 0.51266 0.77583 0.08405 0.0
H375 H 0.55096 0.76836 0.0262 0.0
H376 H 0.46615 0.78458 0.02924 0.0
H377 H 0.46151 0.77195 1.00011 0.0
H378 H 0.49851 0.77877 0.94186 0.0
H379 H 0.54989 0.77984 0.99572 0.0
C380 C 0.51142 0.77601 0.06747 0.0
C381 C 0.48658 0.78019 0.05781 0.0
C382 C 0.53471 0.77205 0.05612 0.0
C383 C 0.533 0.77204 0.03463 0.0
C384 C 0.50818 0.77628 0.02434 0.0
C385 C 0.4852 0.78058 0.03634 0.0
C386 C 0.50604 0.77626 1.0013 0.0
C387 C 0.48005 0.77428 0.99147 0.0
C388 C 0.47755 0.77543 0.97019 0.0
C389 C 0.501 0.77764 0.95832 0.0
C390 C 0.52735 0.77854 0.96729 0.0
C391 C 0.52967 0.77836 0.98884 0.0
H392 H 0.7803 0.07621 0.51173 0.0
H393 H 0.77865 0.03042 0.54498 0.0
H394 H 0.79854 0.03147 0.48034 0.0
H395 H 0.78053 1.00618 0.48061 0.0
H396 H 0.7953 0.96125 0.5137 0.0
H397 H 0.80218 1.00734 0.54528 0.0
C398 C 0.78233 0.06285 0.51204 0.0
C399 C 0.78873 0.05465 0.494 0.0
C400 C 0.77936 0.05423 0.53051 0.0
C401 C 0.78227 0.03692 0.53074 0.0
C402 C 0.78887 0.02818 0.51268 0.0
C403 C 0.79267 0.03745 0.49438 0.0
C404 C 0.79122 1.00954 0.51288 0.0
C405 C 0.78639 1.00019 0.49483 0.0
C406 C 0.78795 0.98282 0.49512 0.0
C407 C 0.7943 0.97467 0.51345 0.0
C408 C 0.79907 0.98344 0.53151 0.0
C409 C 0.79769 1.00081 0.53121 0.0
H410 H 0.50009 0.26558 0.082 0.0
H411 H 0.54685 0.25583 0.02832 0.0
H412 H 0.46066 0.26932 0.02332 0.0
H413 H 0.46196 0.25451 0.99518 0.0
H414 H 0.50983 0.25462 0.9405 0.0
H415 H 0.54914 0.26705 0.9973 0.0
C416 C 0.50135 0.26494 0.06545 0.0
C417 C 0.47775 0.26776 0.05355 0.0
C418 C 0.52628 0.26081 0.05638 0.0
C419 C 0.52764 0.25968 0.03497 0.0
C420 C 0.5041 0.26268 0.02246 0.0
C421 C 0.47914 0.26678 0.03216 0.0
C422 C 0.50541 0.26093 0.99956 0.0
C423 C 0.4816 0.25665 0.98788 0.0
C424 C 0.48299 0.25454 0.96657 0.0
C425 C 0.50851 0.25617 0.95694 0.0
C426 C 0.53229 0.26041 0.96805 0.0
C427 C 0.53062 0.26322 0.98916 0.0
H428 H 0.17014 0.34989 0.3516 0.0
H429 H 0.14961 0.37665 0.35914 0.0
H430 H 0.16598 0.39326 0.29758 0.0
H431 H 0.18752 0.3668 0.29016 0.0
H432 H 0.17592 0.41782 0.32406 0.0
H433 H 0.10202 0.37925 0.31101 0.0
H434 H 0.07498 0.35348 0.31545 0.0
H435 H 0.06072 0.3657 0.37828 0.0
H436 H 0.08801 0.39144 0.37429 0.0
H437 H 0.07033 0.48031 0.31704 0.0
H438 H 0.1038 0.45796 0.3132 0.0
H439 H 0.08909 0.44235 0.37543 0.0
H440 H 0.05557 0.46449 0.37914 0.0
H441 H 0.07978 0.41771 0.34914 0.0
H442 H 0.15193 0.4577 0.3609 0.0
H443 H 0.17792 0.48368 0.3552 0.0
H444 H 0.19417 0.46922 0.29341 0.0
H445 H 0.16793 0.44325 0.29865 0.0
C446 C 0.16975 0.35931 0.33974 0.0
C447 C 0.18024 0.35609 0.3202 0.0
C448 C 0.15779 0.37457 0.34403 0.0
C449 C 0.15587 0.38691 0.32883 0.0
C450 C 0.16711 0.38393 0.30953 0.0
C451 C 0.17913 0.3687 0.30525 0.0
C452 C 0.14115 0.40262 0.33278 0.0
C453 C 0.15481 0.41781 0.32938 0.0
C454 C 0.11372 0.40266 0.33996 0.0
C455 C 0.09732 0.38718 0.34241 0.0
C456 C 0.09331 0.37637 0.32582 0.0
C457 C 0.07791 0.36178 0.32825 0.0
C458 C 0.06621 0.35793 0.34715 0.0
C459 C 0.06984 0.36868 0.36366 0.0
C460 C 0.08526 0.38328 0.36132 0.0
C461 C 0.07511 0.47249 0.33009 0.0
C462 C 0.06049 0.47409 0.34839 0.0
C463 C 0.09413 0.45968 0.32789 0.0
C464 C 0.09885 0.44839 0.34401 0.0
C465 C 0.0857 0.45083 0.36276 0.0
C466 C 0.06672 0.46353 0.36492 0.0
C467 C 0.11461 0.43296 0.34069 0.0
C468 C 0.101 0.41777 0.34403 0.0
C469 C 0.14193 0.43299 0.33331 0.0
C470 C 0.15772 0.4486 0.33011 0.0
C471 C 0.16083 0.46012 0.34604 0.0
C472 C 0.17566 0.47484 0.3429 0.0
C473 C 0.18763 0.47812 0.32394 0.0
C474 C 0.18486 0.46667 0.30808 0.0
C475 C 0.17003 0.45195 0.31113 0.0
H476 H 0.19911 0.48952 0.32154 0.0
H477 H 0.05427 0.34663 0.349 0.0
H478 H 0.17953 0.6851 0.66938 0.0
H479 H 0.15816 0.65797 0.66288 0.0
H480 H 0.15202 0.64939 0.7279 0.0
H481 H 0.17334 0.67634 0.73446 0.0
H482 H 0.17032 0.62248 0.70984 0.0
H483 H 0.09567 0.66041 0.69822 0.0
H484 H 0.07201 0.68416 0.68228 0.0
H485 H 0.07993 0.66206 0.62307 0.0
H486 H 0.10394 0.63825 0.63865 0.0
H487 H 0.06022 0.56379 0.71797 0.0
H488 H 0.09465 0.58619 0.71897 0.0
H489 H 0.09766 0.58621 0.653 0.0
H490 H 0.06312 0.56378 0.65209 0.0
H491 H 0.08517 0.61625 0.66775 0.0
H492 H 0.1546 0.57618 0.68115 0.0
H493 H 0.17609 0.55226 0.69835 0.0
H494 H 0.17622 0.57819 0.75551 0.0
H495 H 0.15436 0.60219 0.73872 0.0
C496 C 0.1734 0.67748 0.68227 0.0
C497 C 0.17824 0.68286 0.70243 0.0
C498 C 0.16125 0.66195 0.67854 0.0
C499 C 0.1534 0.65162 0.69491 0.0
C500 C 0.1581 0.65704 0.71502 0.0
C501 C 0.17031 0.67248 0.71874 0.0
C502 C 0.14014 0.63518 0.69129 0.0
C503 C 0.15159 0.62113 0.70074 0.0
C504 C 0.11611 0.6333 0.67898 0.0
C505 C 0.10191 0.64766 0.66957 0.0
C506 C 0.0926 0.66069 0.68178 0.0
C507 C 0.07907 0.67415 0.67281 0.0
C508 C 0.07455 0.67465 0.65166 0.0
C509 C 0.0835 0.66167 0.63944 0.0
C510 C 0.09705 0.6482 0.64833 0.0
C511 C 0.06926 0.56808 0.70378 0.0
C512 C 0.05958 0.56191 0.68498 0.0
C513 C 0.08879 0.58094 0.70432 0.0
C514 C 0.0988 0.58789 0.68604 0.0
C515 C 0.09031 0.58101 0.66728 0.0
C516 C 0.07086 0.56809 0.66675 0.0
C517 C 0.11511 0.60358 0.68655 0.0
C518 C 0.10417 0.61752 0.67656 0.0
C519 C 0.13943 0.60536 0.69852 0.0
C520 C 0.15265 0.59096 0.70869 0.0
C521 C 0.15901 0.57674 0.69742 0.0
C522 C 0.17129 0.56317 0.70709 0.0
C523 C 0.17747 0.5637 0.72802 0.0
C524 C 0.17141 0.5778 0.7393 0.0
C525 C 0.15911 0.5914 0.72971 0.0
H526 H 0.18698 0.55318 0.73548 0.0
H527 H 0.06406 0.68506 0.64475 0.0
H528 H 0.87145 0.6874 0.30167 0.0
H529 H 0.89106 0.65975 0.30365 0.0
H530 H 0.82907 0.64503 0.34712 0.0
H531 H 0.80959 0.67291 0.34555 0.0
H532 H 0.88052 0.63393 0.35816 0.0
H533 H 0.82271 0.63231 0.29875 0.0
H534 H 0.8038 0.64215 0.26574 0.0
H535 H 0.88356 0.63793 0.2385 0.0
H536 H 0.90306 0.62829 0.27143 0.0
H537 H 0.93496 0.55322 0.35284 0.0
H538 H 0.89847 0.57389 0.34872 0.0
H539 H 0.94718 0.59946 0.30333 0.0
H540 H 0.98307 0.57872 0.30705 0.0
H541 H 0.89363 0.60219 0.29428 0.0
H542 H 0.95214 0.60694 0.35421 0.0
H543 H 0.97212 0.59802 0.38727 0.0
H544 H 0.89144 0.59692 0.4137 0.0
H545 H 0.87096 0.60562 0.38066 0.0
C546 C 0.86218 0.67838 0.31189 0.0
C547 C 0.83893 0.6824 0.32347 0.0
C548 C 0.87323 0.6625 0.31282 0.0
C549 C 0.86127 0.65022 0.32527 0.0
C550 C 0.83851 0.65427 0.33728 0.0
C551 C 0.82734 0.67018 0.3363 0.0
C552 C 0.87277 0.63323 0.32568 0.0
C553 C 0.88282 0.6268 0.34427 0.0
C554 C 0.87606 0.624 0.30752 0.0
C555 C 0.86438 0.62967 0.28761 0.0
C556 C 0.83626 0.63358 0.28576 0.0
C557 C 0.82543 0.63911 0.26705 0.0
C558 C 0.84248 0.64069 0.25004 0.0
C559 C 0.87038 0.6367 0.25169 0.0
C560 C 0.88133 0.63118 0.27037 0.0
C561 C 0.93731 0.56291 0.34145 0.0
C562 C 0.96191 0.5645 0.33041 0.0
C563 C 0.9166 0.57479 0.33922 0.0
C564 C 0.92035 0.58844 0.32603 0.0
C565 C 0.94381 0.58911 0.31366 0.0
C566 C 0.96437 0.57728 0.31584 0.0
C567 C 0.902 0.60307 0.32668 0.0
C568 C 0.89072 0.60911 0.30825 0.0
C569 C 0.89769 0.61197 0.345 0.0
C570 C 0.91 0.60677 0.36489 0.0
C571 C 0.93865 0.60471 0.36704 0.0
C572 C 0.95007 0.59969 0.38577 0.0
C573 C 0.93305 0.59687 0.40257 0.0
C574 C 0.90459 0.59908 0.40066 0.0
C575 C 0.89307 0.60405 0.38193 0.0
H576 H 0.94191 0.59299 0.41708 0.0
H577 H 0.83405 0.64498 0.23557 0.0
H578 H 0.8224 0.35434 0.71044 0.0
H579 H 0.84075 0.3826 0.71044 0.0
H580 H 0.89639 0.37002 0.66204 0.0
H581 H 0.87914 0.34154 0.66265 0.0
H582 H 0.92311 0.38694 0.68944 0.0
H583 H 0.83743 0.3937 0.65357 0.0
H584 H 0.78715 0.39147 0.64803 0.0
H585 H 0.77364 0.42124 0.70113 0.0
H586 H 0.82387 0.42345 0.70715 0.0
H587 H 0.93476 0.47595 0.65598 0.0
H588 H 0.90407 0.45167 0.65826 0.0
H589 H 0.93545 0.44142 0.71898 0.0
H590 H 0.96612 0.46561 0.71664 0.0
H591 H 0.86408 0.43664 0.68422 0.0
H592 H 0.95722 0.40227 0.71864 0.0
H593 H 0.00804 0.40468 0.71965 0.0
H594 H 0.00685 0.42972 0.66152 0.0
H595 H 0.95611 0.42751 0.66022 0.0
C596 C 0.83869 0.35752 0.69989 0.0
C597 C 0.8493 0.34557 0.68657 0.0
C598 C 0.84894 0.37378 0.69973 0.0
C599 C 0.86979 0.37854 0.68609 0.0
C600 C 0.88027 0.36668 0.67269 0.0
C601 C 0.87017 0.35041 0.67292 0.0
C602 C 0.88141 0.39568 0.68623 0.0
C603 C 0.91009 0.39775 0.68834 0.0
C604 C 0.86461 0.4099 0.6845 0.0
C605 C 0.8344 0.4086 0.68092 0.0
C606 C 0.82373 0.39966 0.66416 0.0
C607 C 0.79524 0.39842 0.66092 0.0
C608 C 0.77721 0.40617 0.67425 0.0
C609 C 0.78764 0.41522 0.69083 0.0
C610 C 0.81611 0.41648 0.69415 0.0
C611 C 0.93393 0.469 0.6702 0.0
C612 C 0.95243 0.4727 0.68625 0.0
C613 C 0.91659 0.45507 0.67144 0.0
C614 C 0.91783 0.44461 0.68866 0.0
C615 C 0.93432 0.44927 0.70551 0.0
C616 C 0.95159 0.46318 0.70427 0.0
C617 C 0.9055 0.42773 0.68779 0.0
C618 C 0.87687 0.42575 0.6855 0.0
C619 C 0.92234 0.41354 0.6888 0.0
C620 C 0.95288 0.41485 0.68945 0.0
C621 C 0.96784 0.40828 0.70609 0.0
C622 C 0.99662 0.40965 0.70673 0.0
C623 C 0.01067 0.41744 0.69072 0.0
C624 C 0.99597 0.42381 0.67399 0.0
C625 C 0.96719 0.42255 0.67333 0.0
H626 H 0.03295 0.41849 0.69123 0.0
H627 H 0.75516 0.4052 0.67171 0.0
H628 H 0.18142 0.18202 0.38183 0.0
H629 H 0.18296 0.15507 0.39892 0.0
H630 H 0.27182 0.158 0.40124 0.0
H631 H 0.27041 0.18496 0.38398 0.0
H632 H 0.25628 0.12768 0.3914 0.0
H633 H 0.23238 0.16573 0.4435 0.0
H634 H 0.20646 0.18769 0.46058 0.0
H635 H 0.13321 0.15738 0.45892 0.0
H636 H 0.15857 0.13533 0.44152 0.0
H637 H 0.27275 0.06979 0.47578 0.0
H638 H 0.27346 0.09262 0.45079 0.0
H639 H 0.18586 0.08641 0.44095 0.0
H640 H 0.18528 0.06354 0.46579 0.0
H641 H 0.20137 0.11781 0.45394 0.0
H642 H 0.22836 0.07898 0.40267 0.0
H643 H 0.25711 0.05713 0.38804 0.0
H644 H 0.32807 0.0893 0.39116 0.0
H645 H 0.29982 0.11127 0.40609 0.0
C646 C 0.2013 0.17698 0.38608 0.0
C647 C 0.22579 0.18572 0.38166 0.0
C648 C 0.20216 0.16155 0.39585 0.0
C649 C 0.2275 0.15456 0.40166 0.0
C650 C 0.25201 0.1631 0.39691 0.0
C651 C 0.25117 0.17852 0.38702 0.0
C652 C 0.22835 0.13846 0.41288 0.0
C653 C 0.24449 0.12559 0.4052 0.0
C654 C 0.21277 0.1356 0.4308 0.0
C655 C 0.1973 0.14896 0.44094 0.0
C656 C 0.21066 0.16382 0.44656 0.0
C657 C 0.19609 0.17627 0.45635 0.0
C658 C 0.16818 0.17395 0.46077 0.0
C659 C 0.15481 0.15917 0.45544 0.0
C660 C 0.16927 0.1467 0.44561 0.0
C661 C 0.25397 0.07284 0.46752 0.0
C662 C 0.22907 0.06476 0.47228 0.0
C663 C 0.25432 0.08593 0.45338 0.0
C664 C 0.2297 0.09121 0.44401 0.0
C665 C 0.2051 0.08249 0.44794 0.0
C666 C 0.2048 0.06934 0.46193 0.0
C667 C 0.22891 0.10702 0.4323 0.0
C668 C 0.21295 0.11988 0.44003 0.0
C669 C 0.245 0.10991 0.41469 0.0
C670 C 0.26201 0.09672 0.40569 0.0
C671 C 0.25015 0.08135 0.40041 0.0
C672 C 0.26634 0.06895 0.39203 0.0
C673 C 0.29441 0.07181 0.38872 0.0
C674 C 0.30633 0.08709 0.39375 0.0
C675 C 0.29023 0.09953 0.40215 0.0
H676 H 0.30692 0.0622 0.38222 0.0
H677 H 0.15695 0.18359 0.46838 0.0
H678 H 0.31073 0.75925 0.81821 0.0
H679 H 0.3342 0.75546 0.85122 0.0
H680 H 0.35734 0.80712 0.85154 0.0
H681 H 0.33325 0.81119 0.81893 0.0
H682 H 0.40123 0.78615 0.86005 0.0
H683 H 0.30727 0.79398 0.88164 0.0
H684 H 0.2574 0.78775 0.88216 0.0
H685 H 0.27385 0.73845 0.90354 0.0
H686 H 0.32388 0.74432 0.90286 0.0
H687 H 0.44863 0.80178 0.95716 0.0
H688 H 0.41199 0.80162 0.93109 0.0
H689 H 0.41054 0.74827 0.93215 0.0
H690 H 0.44746 0.74843 0.95832 0.0
H691 H 0.35486 0.76741 0.92366 0.0
H692 H 0.44743 0.758 0.89937 0.0
H693 H 0.49746 0.76369 0.90118 0.0
H694 H 0.48337 0.81461 0.88551 0.0
H695 H 0.43322 0.80922 0.8838 0.0
C696 C 0.32043 0.76988 0.82542 0.0
C697 C 0.3201 0.78554 0.81582 0.0
C698 C 0.33392 0.76766 0.84426 0.0
C699 C 0.34742 0.78102 0.85383 0.0
C700 C 0.34713 0.79663 0.84435 0.0
C701 C 0.33348 0.7989 0.82563 0.0
C702 C 0.36255 0.77872 0.87346 0.0
C703 C 0.39098 0.78215 0.87393 0.0
C704 C 0.34938 0.77304 0.89148 0.0
C705 C 0.31933 0.76953 0.89198 0.0
C706 C 0.30027 0.78176 0.88627 0.0
C707 C 0.27197 0.77831 0.88664 0.0
C708 C 0.26246 0.7627 0.89282 0.0
C709 C 0.28125 0.75053 0.89872 0.0
C710 C 0.30957 0.75392 0.89836 0.0
C711 C 0.43958 0.79006 0.95248 0.0
C712 C 0.45051 0.77512 0.95972 0.0
C713 C 0.41872 0.78997 0.93762 0.0
C714 C 0.40867 0.77493 0.92972 0.0
C715 C 0.41786 0.75997 0.93826 0.0
C716 C 0.43887 0.76006 0.95314 0.0
C717 C 0.39319 0.77506 0.9101 0.0
C718 C 0.36495 0.77124 0.90965 0.0
C719 C 0.40647 0.78013 0.89194 0.0
C720 C 0.43664 0.78324 0.89158 0.0
C721 C 0.45505 0.77041 0.8963 0.0
C722 C 0.48341 0.77358 0.89732 0.0
C723 C 0.49362 0.78951 0.89355 0.0
C724 C 0.47548 0.80227 0.88846 0.0
C725 C 0.44707 0.79916 0.88741 0.0
H726 H 0.51556 0.79194 0.89463 0.0
H727 H 0.24054 0.76005 0.89309 0.0
H728 H 0.82066 0.86747 0.36175 0.0
H729 H 0.8183 0.89477 0.37772 0.0
H730 H 0.75378 0.87691 0.41728 0.0
H731 H 0.75576 0.84969 0.40121 0.0
H732 H 0.74288 0.90808 0.40215 0.0
H733 H 0.81867 0.87965 0.43482 0.0
H734 H 0.86271 0.86467 0.43581 0.0
H735 H 0.90359 0.90626 0.4078 0.0
H736 H 0.85967 0.9214 0.40639 0.0
H737 H 0.74974 0.9584 0.49005 0.0
H738 H 0.74815 0.93749 0.46322 0.0
H739 H 0.81462 0.96263 0.43206 0.0
H740 H 0.81627 0.98365 0.45916 0.0
H741 H 0.82574 0.93037 0.43818 0.0
H742 H 0.7506 0.96033 0.41003 0.0
H743 H 0.70652 0.97523 0.40981 0.0
H744 H 0.6642 0.93112 0.42957 0.0
H745 H 0.70809 0.91599 0.43021 0.0
C746 C 0.80576 0.86941 0.37369 0.0
C747 C 0.78851 0.85636 0.38028 0.0
C748 C 0.80454 0.885 0.38289 0.0
C749 C 0.786 0.88787 0.39881 0.0
C750 C 0.76826 0.875 0.40504 0.0
C751 C 0.76959 0.85939 0.39596 0.0
C752 C 0.78566 0.90407 0.40954 0.0
C753 C 0.76094 0.91293 0.41013 0.0
C754 C 0.80944 0.91065 0.41944 0.0
C755 C 0.83583 0.90157 0.42026 0.0
C756 C 0.837 0.88554 0.4287 0.0
C757 C 0.86195 0.87703 0.42937 0.0
C758 C 0.88591 0.88449 0.4218 0.0
C759 C 0.885 0.90049 0.41361 0.0
C760 C 0.86009 0.90904 0.41288 0.0
C761 C 0.76346 0.95972 0.47715 0.0
C762 C 0.78305 0.97265 0.47659 0.0
C763 C 0.76253 0.94777 0.46179 0.0
C764 C 0.7812 0.94848 0.44553 0.0
C765 C 0.79996 0.96185 0.44442 0.0
C766 C 0.80075 0.97392 0.45978 0.0
C767 C 0.7828 0.93432 0.4311 0.0
C768 C 0.80777 0.92575 0.42988 0.0
C769 C 0.75922 0.92802 0.42065 0.0
C770 C 0.73271 0.93705 0.42029 0.0
C771 C 0.73194 0.95383 0.41448 0.0
C772 C 0.70697 0.96232 0.41426 0.0
C773 C 0.68258 0.95414 0.4197 0.0
C774 C 0.68311 0.93744 0.42536 0.0
C775 C 0.70803 0.92889 0.42562 0.0
H776 H 0.66327 0.96073 0.41951 0.0
H777 H 0.90521 0.87789 0.42235 0.0
H778 H 0.67155 0.26098 0.81001 0.0
H779 H 0.64353 0.26026 0.84086 0.0
H780 H 0.7142 0.27543 0.87706 0.0
H781 H 0.7426 0.27572 0.84632 0.0
H782 H 0.68456 0.25157 0.89647 0.0
H783 H 0.6665 0.30348 0.86343 0.0
H784 H 0.65387 0.32177 0.83455 0.0
H785 H 0.57454 0.29788 0.82994 0.0
H786 H 0.58684 0.27929 0.85861 0.0
H787 H 0.56439 0.28801 0.96268 0.0
H788 H 0.60344 0.29114 0.93916 0.0
H789 H 0.5975 0.23919 0.92468 0.0
H790 H 0.55845 0.23614 0.94788 0.0
H791 H 0.59939 0.28504 0.89751 0.0
H792 H 0.66251 0.22551 0.91375 0.0
H793 H 0.67613 0.20818 0.94329 0.0
H794 H 0.66751 0.24968 0.98335 0.0
H795 H 0.65425 0.26732 0.95403 0.0
C796 C 0.68127 0.26391 0.82457 0.0
C797 C 0.7093 0.26849 0.82568 0.0
C798 C 0.66515 0.26365 0.84217 0.0
C799 C 0.67667 0.26805 0.86121 0.0
C800 C 0.70484 0.27209 0.8625 0.0
C801 C 0.72099 0.27237 0.8449 0.0
C802 C 0.65914 0.26875 0.87967 0.0
C803 C 0.66598 0.25892 0.89673 0.0
C804 C 0.63525 0.27864 0.8802 0.0
C805 C 0.62768 0.28992 0.86308 0.0
C806 C 0.64643 0.30206 0.85617 0.0
C807 C 0.63932 0.31249 0.83985 0.0
C808 C 0.61344 0.31097 0.83039 0.0
C809 C 0.59458 0.29904 0.83727 0.0
C810 C 0.6016 0.28857 0.85358 0.0
C811 C 0.57198 0.27724 0.95483 0.0
C812 C 0.55866 0.26184 0.95705 0.0
C813 C 0.59409 0.27903 0.94135 0.0
C814 C 0.6034 0.26538 0.93024 0.0
C815 C 0.59087 0.24984 0.93326 0.0
C816 C 0.5686 0.2481 0.94647 0.0
C817 C 0.62437 0.2675 0.91406 0.0
C818 C 0.61813 0.27783 0.89735 0.0
C819 C 0.64891 0.25819 0.91397 0.0
C820 C 0.65715 0.2477 0.93168 0.0
C821 C 0.66364 0.23096 0.92884 0.0
C822 C 0.67128 0.22108 0.94556 0.0
C823 C 0.67261 0.22781 0.96519 0.0
C824 C 0.66637 0.24446 0.96815 0.0
C825 C 0.65875 0.2544 0.95149 0.0
H826 H 0.67852 0.22014 0.97811 0.0
H827 H 0.60797 0.31905 0.81775 0.0
H828 H 0.18072 0.86089 0.6483 0.0
H829 H 0.18258 0.88832 0.6323 0.0
H830 H 0.2681 0.88102 0.61761 0.0
H831 H 0.26645 0.8537 0.63393 0.0
H832 H 0.26141 0.91171 0.62963 0.0
H833 H 0.21543 0.87594 0.58161 0.0
H834 H 0.18038 0.85578 0.56964 0.0
H835 H 0.11618 0.8902 0.58273 0.0
H836 H 0.15086 0.9105 0.59505 0.0
H837 H 0.27213 0.96466 0.54142 0.0
H838 H 0.27171 0.94296 0.5678 0.0
H839 H 0.19086 0.9583 0.58633 0.0
H840 H 0.19151 0.98019 0.56007 0.0
H841 H 0.19348 0.92514 0.57486 0.0
H842 H 0.24237 0.96219 0.61938 0.0
H843 H 0.27918 0.98191 0.62935 0.0
H844 H 0.34008 0.94456 0.62034 0.0
H845 H 0.30366 0.92466 0.61001 0.0
C846 C 0.1999 0.86512 0.64161 0.0
C847 C 0.22338 0.85506 0.64225 0.0
C848 C 0.20096 0.88082 0.63248 0.0
C849 C 0.22538 0.88669 0.62345 0.0
C850 C 0.24902 0.87681 0.62448 0.0
C851 C 0.24805 0.86118 0.6338 0.0
C852 C 0.2261 0.90289 0.61241 0.0
C853 C 0.24668 0.91458 0.61754 0.0
C854 C 0.20661 0.90684 0.59686 0.0
C855 C 0.18571 0.89466 0.58947 0.0
C856 C 0.19382 0.87916 0.58209 0.0
C857 C 0.17403 0.86772 0.57522 0.0
C858 C 0.14606 0.87169 0.57549 0.0
C859 C 0.13785 0.88713 0.58258 0.0
C860 C 0.15756 0.89861 0.5895 0.0
C861 C 0.25482 0.9638 0.55173 0.0
C862 C 0.23203 0.97419 0.54901 0.0
C863 C 0.25452 0.95138 0.56672 0.0
C864 C 0.23125 0.949 0.57904 0.0
C865 C 0.20906 0.95996 0.57704 0.0
C866 C 0.20953 0.97254 0.56221 0.0
C867 C 0.22879 0.93392 0.59204 0.0
C868 C 0.20795 0.92237 0.58716 0.0
C869 C 0.2483 0.93004 0.60755 0.0
C870 C 0.27028 0.94197 0.61375 0.0
C871 C 0.26363 0.95822 0.61934 0.0
C872 C 0.28443 0.96942 0.6251 0.0
C873 C 0.31196 0.96451 0.62543 0.0
C874 C 0.31875 0.94836 0.62005 0.0
C875 C 0.29803 0.9371 0.61427 0.0
H876 H 0.32803 0.9732 0.6299 0.0
H877 H 0.13077 0.86281 0.57015 0.0
H878 H 0.67469 0.76216 0.21513 0.0
H879 H 0.65164 0.7579 0.18209 0.0
H880 H 0.70574 0.79411 0.15436 0.0
H881 H 0.72857 0.79868 0.18752 0.0
H882 H 0.65207 0.79951 0.14464 0.0
H883 H 0.71302 0.75353 0.14359 0.0
H884 H 0.73574 0.72854 0.15711 0.0
H885 H 0.65736 0.7035 0.16055 0.0
H886 H 0.6341 0.72842 0.14732 0.0
H887 H 0.5853 0.78634 0.05005 0.0
H888 H 0.62486 0.78569 0.0738 0.0
H889 H 0.58184 0.75014 0.11161 0.0
H890 H 0.54269 0.75052 0.08778 0.0
H891 H 0.63673 0.7446 0.11261 0.0
H892 H 0.5756 0.79099 0.12012 0.0
H893 H 0.55082 0.81575 0.10806 0.0
H894 H 0.62789 0.83976 0.09421 0.0
H895 H 0.6531 0.815 0.10591 0.0
C896 C 0.6817 0.76921 0.202 0.0
C897 C 0.70341 0.78079 0.20396 0.0
C898 C 0.6687 0.76663 0.18307 0.0
C899 C 0.67717 0.77555 0.16569 0.0
C900 C 0.69899 0.78702 0.16754 0.0
C901 C 0.7121 0.78955 0.18647 0.0
C902 C 0.66203 0.77361 0.14596 0.0
C903 C 0.6493 0.78756 0.13736 0.0
C904 C 0.65787 0.75796 0.13671 0.0
C905 C 0.67179 0.7429 0.14458 0.0
C906 C 0.7006 0.74274 0.14736 0.0
C907 C 0.71358 0.72857 0.15496 0.0
C908 C 0.698 0.71445 0.15972 0.0
C909 C 0.66941 0.71445 0.15685 0.0
C910 C 0.65631 0.72859 0.14928 0.0
C911 C 0.58476 0.77797 0.06305 0.0
C912 C 0.56086 0.76865 0.06726 0.0
C913 C 0.60725 0.77769 0.07668 0.0
C914 C 0.60604 0.76813 0.09471 0.0
C915 C 0.5832 0.75767 0.09788 0.0
C916 C 0.56079 0.75795 0.08431 0.0
C917 C 0.6266 0.77046 0.11149 0.0
C918 C 0.64015 0.75659 0.11962 0.0
C919 C 0.6313 0.78615 0.12049 0.0
C920 C 0.61621 0.80108 0.11363 0.0
C921 C 0.58724 0.80151 0.11436 0.0
C922 C 0.57312 0.81554 0.10761 0.0
C923 C 0.58777 0.8293 0.10031 0.0
C924 C 0.61657 0.82907 0.09982 0.0
C925 C 0.63079 0.81504 0.1065 0.0
H926 H 0.57681 0.84016 0.0951 0.0
H927 H 0.70809 0.7035 0.1656 0.0
H928 H 0.7394 0.18054 0.63832 0.0
H929 H 0.73992 0.15525 0.61804 0.0
H930 H 0.80793 0.1371 0.65455 0.0
H931 H 0.80761 0.16247 0.67485 0.0
H932 H 0.81635 0.13093 0.61538 0.0
H933 H 0.74166 0.1221 0.66119 0.0
H934 H 0.69864 0.12881 0.67895 0.0
H935 H 0.65512 0.1305 0.6214 0.0
H936 H 0.69798 0.12403 0.60326 0.0
H937 H 0.80673 0.05249 0.56738 0.0
H938 H 0.80433 0.07237 0.59558 0.0
H939 H 0.73889 0.09799 0.56381 0.0
H940 H 0.7408 0.07802 0.53599 0.0
H941 H 0.73048 0.09808 0.60437 0.0
H942 H 0.80681 0.10889 0.55874 0.0
H943 H 0.84986 0.10152 0.54147 0.0
H944 H 0.8908 0.09602 0.59964 0.0
H945 H 0.84771 0.10281 0.61733 0.0
C946 C 0.75438 0.17114 0.64211 0.0
C947 C 0.77336 0.17352 0.6583 0.0
C948 C 0.75464 0.15665 0.63052 0.0
C949 C 0.77364 0.14409 0.63498 0.0
C950 C 0.79301 0.14657 0.65084 0.0
C951 C 0.79287 0.16112 0.66239 0.0
C952 C 0.77337 0.12847 0.62294 0.0
C953 C 0.79768 0.12359 0.6133 0.0
C954 C 0.74898 0.11893 0.61999 0.0
C955 C 0.7231 0.1227 0.63085 0.0
C956 C 0.72296 0.12401 0.65231 0.0
C957 C 0.6986 0.12776 0.66244 0.0
C958 C 0.67418 0.13011 0.65131 0.0
C959 C 0.67405 0.12868 0.63001 0.0
C960 C 0.69837 0.12496 0.61979 0.0
C961 C 0.7913 0.06207 0.56675 0.0
C962 C 0.77415 0.06382 0.5494 0.0
C963 C 0.79011 0.07351 0.58276 0.0
C964 C 0.77182 0.0869 0.58162 0.0
C965 C 0.75328 0.08786 0.56502 0.0
C966 C 0.75446 0.07647 0.54908 0.0
C967 C 0.77332 0.10072 0.59658 0.0
C968 C 0.74923 0.1053 0.60672 0.0
C969 C 0.79794 0.10996 0.60004 0.0
C970 C 0.82394 0.10617 0.58937 0.0
C971 C 0.82493 0.10599 0.56786 0.0
C972 C 0.84934 0.10193 0.55799 0.0
C973 C 0.87306 0.09834 0.56943 0.0
C974 C 0.8724 0.09878 0.59079 0.0
C975 C 0.84797 0.1027 0.60075 0.0
H976 H 0.89194 0.09522 0.56175 0.0
H977 H 0.65533 0.13301 0.65918 0.0
H978 H 0.32964 0.2812 0.21034 0.0
H979 H 0.35249 0.28518 0.1775 0.0
H980 H 0.33814 0.23378 0.16302 0.0
H981 H 0.31499 0.22973 0.19573 0.0
H982 H 0.39051 0.24276 0.15564 0.0
H983 H 0.30114 0.26402 0.13935 0.0
H984 H 0.26024 0.28142 0.14388 0.0
H985 H 0.31036 0.32523 0.1374 0.0
H986 H 0.35166 0.30808 0.13312 0.0
H987 H 0.43419 0.24657 0.05433 0.0
H988 H 0.39794 0.24587 0.08021 0.0
H989 H 0.42682 0.29283 0.10354 0.0
H990 H 0.46351 0.29335 0.07797 0.0
H991 H 0.36489 0.28603 0.10481 0.0
H992 H 0.45434 0.26487 0.12516 0.0
H993 H 0.49542 0.24782 0.11969 0.0
H994 H 0.44464 0.20396 0.11846 0.0
H995 H 0.40314 0.22084 0.12351 0.0
C996 C 0.33097 0.27079 0.20005 0.0
C997 C 0.32047 0.25514 0.20571 0.0
C998 C 0.34407 0.27309 0.18128 0.0
C999 C 0.34682 0.25982 0.16771 0.0
C1000 C 0.33629 0.2442 0.17326 0.0
C1001 C 0.32317 0.24189 0.19202 0.0
C1002 C 0.36167 0.26205 0.1481 0.0
C1003 C 0.38456 0.25204 0.14442 0.0
C1004 C 0.35434 0.27441 0.1336 0.0
C1005 C 0.32954 0.28476 0.1361 0.0
C1006 C 0.30348 0.27737 0.13905 0.0
C1007 C 0.28022 0.28719 0.14155 0.0
C1008 C 0.28271 0.30442 0.14098 0.0
C1009 C 0.30847 0.31188 0.13786 0.0
C1010 C 0.33181 0.30211 0.13538 0.0
C1011 C 0.43198 0.25706 0.06441 0.0
C1012 C 0.45142 0.27004 0.0642 0.0
C1013 C 0.4114 0.25662 0.07921 0.0
C1014 C 0.40987 0.26926 0.0938 0.0
C1015 C 0.42759 0.28303 0.09231 0.0
C1016 C 0.44847 0.28333 0.07774 0.0
C1017 C 0.3934 0.2667 0.1125 0.0
C1018 C 0.37049 0.27667 0.11603 0.0
C1019 C 0.40067 0.25435 0.12695 0.0
C1020 C 0.42562 0.24413 0.12446 0.0
C1021 C 0.45191 0.25161 0.12354 0.0
C1022 C 0.47527 0.24198 0.12054 0.0
C1023 C 0.47264 0.22482 0.11865 0.0
C1024 C 0.44664 0.21726 0.11987 0.0
C1025 C 0.42318 0.22685 0.1228 0.0
H1026 H 0.49075 0.21739 0.11631 0.0
H1027 H 0.26467 0.312 0.14291 0.0
H1028 H 0.87436 0.68841 0.721 0.0
H1029 H 0.89561 0.66178 0.71455 0.0
H1030 H 0.83347 0.65099 0.66863 0.0
H1031 H 0.81172 0.67768 0.67534 0.0
H1032 H 0.84243 0.62419 0.69058 0.0
H1033 H 0.90023 0.66208 0.65536 0.0
H1034 H 0.92903 0.68697 0.64966 0.0
H1035 H 0.98532 0.67119 0.69686 0.0
H1036 H 0.95662 0.64633 0.70311 0.0
H1037 H 0.94057 0.55928 0.65612 0.0
H1038 H 0.90764 0.58236 0.65673 0.0
H1039 H 0.93944 0.59689 0.71589 0.0
H1040 H 0.97169 0.57391 0.71551 0.0
H1041 H 0.94351 0.62112 0.68076 0.0
H1042 H 0.88055 0.58398 0.71695 0.0
H1043 H 0.85175 0.55877 0.71997 0.0
H1044 H 0.80556 0.57302 0.66638 0.0
H1045 H 0.83439 0.59822 0.66288 0.0
C1046 C 0.86538 0.68048 0.70934 0.0
C1047 C 0.84153 0.68527 0.69852 0.0
C1048 C 0.87755 0.66522 0.70565 0.0
C1049 C 0.8665 0.65444 0.6908 0.0
C1050 C 0.84247 0.65908 0.68011 0.0
C1051 C 0.83007 0.67434 0.68394 0.0
C1052 C 0.88007 0.63832 0.68681 0.0
C1053 C 0.86446 0.62357 0.68806 0.0
C1054 C 0.90882 0.63738 0.6834 0.0
C1055 C 0.92612 0.65238 0.6798 0.0
C1056 C 0.91862 0.66398 0.66465 0.0
C1057 C 0.93495 0.67808 0.6613 0.0
C1058 C 0.95896 0.68067 0.67292 0.0
C1059 C 0.96671 0.66917 0.68789 0.0
C1060 C 0.95042 0.65506 0.69133 0.0
C1061 C 0.93969 0.56705 0.66955 0.0
C1062 C 0.95866 0.56489 0.68574 0.0
C1063 C 0.92107 0.58025 0.66983 0.0
C1064 C 0.92136 0.59139 0.68629 0.0
C1065 C 0.93897 0.58848 0.70304 0.0
C1066 C 0.95729 0.57532 0.70283 0.0
C1067 C 0.90606 0.60716 0.68533 0.0
C1068 C 0.92142 0.62184 0.68301 0.0
C1069 C 0.87714 0.60798 0.68737 0.0
C1070 C 0.85987 0.59285 0.68949 0.0
C1071 C 0.86447 0.58164 0.70567 0.0
C1072 C 0.84808 0.56738 0.70751 0.0
C1073 C 0.8269 0.56426 0.69333 0.0
C1074 C 0.82201 0.57543 0.67732 0.0
C1075 C 0.83836 0.58971 0.67541 0.0
H1076 H 0.81423 0.55322 0.69478 0.0
H1077 H 0.97159 0.69159 0.67029 0.0
H1078 H 0.81983 0.36831 0.29668 0.0
H1079 H 0.84009 0.39533 0.30464 0.0
H1080 H 0.87756 0.37505 0.35929 0.0
H1081 H 0.8575 0.34784 0.35133 0.0
H1082 H 0.85669 0.40613 0.36587 0.0
H1083 H 0.91523 0.38006 0.317 0.0
H1084 H 0.92599 0.36601 0.28472 0.0
H1085 H 0.89704 0.408 0.25045 0.0
H1086 H 0.88573 0.42221 0.28256 0.0
H1087 H 0.97131 0.46065 0.38047 0.0
H1088 H 0.93627 0.43893 0.37658 0.0
H1089 H 0.9063 0.46256 0.32141 0.0
H1090 H 0.9418 0.48425 0.32516 0.0
H1091 H 0.91932 0.43123 0.31452 0.0
H1092 H 0.86543 0.45858 0.36423 0.0
H1093 H 0.85585 0.47245 0.39685 0.0
H1094 H 0.8771 0.42826 0.42997 0.0
H1095 H 0.8872 0.41419 0.39756 0.0
C1096 C 0.83247 0.36953 0.31037 0.0
C1097 C 0.83734 0.3558 0.32321 0.0
C1098 C 0.84393 0.38504 0.31494 0.0
C1099 C 0.86065 0.38719 0.33242 0.0
C1100 C 0.86472 0.37369 0.34572 0.0
C1101 C 0.85322 0.35813 0.34115 0.0
C1102 C 0.87493 0.40331 0.33623 0.0
C1103 C 0.87057 0.41158 0.35474 0.0
C1104 C 0.89251 0.41063 0.3215 0.0
C1105 C 0.89934 0.40212 0.30217 0.0
C1106 C 0.91094 0.38624 0.30258 0.0
C1107 C 0.91717 0.37826 0.28431 0.0
C1108 C 0.91212 0.38608 0.26554 0.0
C1109 C 0.90089 0.40194 0.265 0.0
C1110 C 0.89457 0.40997 0.28323 0.0
C1111 C 0.95663 0.4615 0.36789 0.0
C1112 C 0.95927 0.47411 0.3531 0.0
C1113 C 0.93655 0.44909 0.36568 0.0
C1114 C 0.91859 0.44905 0.34867 0.0
C1115 C 0.91992 0.46231 0.33466 0.0
C1116 C 0.94001 0.4748 0.33691 0.0
C1117 C 0.90119 0.43416 0.34422 0.0
C1118 C 0.90511 0.42599 0.32558 0.0
C1119 C 0.88335 0.42695 0.35889 0.0
C1120 C 0.87727 0.43536 0.37844 0.0
C1121 C 0.86828 0.45186 0.37847 0.0
C1122 C 0.86271 0.45975 0.39693 0.0
C1123 C 0.86591 0.45125 0.41547 0.0
C1124 C 0.87464 0.43483 0.41559 0.0
C1125 C 0.88025 0.42688 0.39718 0.0
H1126 H 0.86159 0.45738 0.42974 0.0
H1127 H 0.91697 0.37989 0.25142 0.0
H1128 H 0.19922 0.36901 0.71759 0.0
H1129 H 0.17734 0.39528 0.70915 0.0
H1130 H 0.12589 0.37082 0.66411 0.0
H1131 H 0.14752 0.34435 0.67265 0.0
H1132 H 0.14485 0.40136 0.65046 0.0
H1133 H 0.10004 0.37905 0.70991 0.0
H1134 H 0.09781 0.36737 0.74481 0.0
H1135 H 0.13556 0.41152 0.76899 0.0
H1136 H 0.13837 0.42338 0.73418 0.0
H1137 H 0.03126 0.45644 0.64543 0.0
H1138 H 0.06517 0.43436 0.64711 0.0
H1139 H 0.10962 0.46071 0.69456 0.0
H1140 H 0.07508 0.48267 0.69326 0.0
H1141 H 0.09735 0.43021 0.7066 0.0
H1142 H 0.13817 0.45362 0.64674 0.0
H1143 H 0.13916 0.46507 0.6117 0.0
H1144 H 0.10787 0.41904 0.58797 0.0
H1145 H 0.10631 0.40737 0.62291 0.0
C1146 C 0.18319 0.36916 0.70592 0.0
C1147 C 0.17488 0.35448 0.69601 0.0
C1148 C 0.17079 0.38423 0.70104 0.0
C1149 C 0.14971 0.385 0.68619 0.0
C1150 C 0.14212 0.37053 0.67563 0.0
C1151 C 0.15454 0.3554 0.68052 0.0
C1152 C 0.13474 0.40073 0.68245 0.0
C1153 C 0.13426 0.40763 0.66267 0.0
C1154 C 0.12142 0.4091 0.69847 0.0
C1155 C 0.1197 0.40202 0.71942 0.0
C1156 C 0.10808 0.38621 0.72265 0.0
C1157 C 0.10667 0.37957 0.74242 0.0
C1158 C 0.11661 0.38867 0.7591 0.0
C1159 C 0.12791 0.40447 0.75605 0.0
C1160 C 0.1294 0.41116 0.73631 0.0
C1161 C 0.04877 0.45776 0.65575 0.0
C1162 C 0.05051 0.47124 0.66925 0.0
C1163 C 0.06821 0.44514 0.65668 0.0
C1164 C 0.09003 0.44582 0.67097 0.0
C1165 C 0.09295 0.4599 0.68342 0.0
C1166 C 0.07341 0.47254 0.68252 0.0
C1167 C 0.10752 0.43102 0.67459 0.0
C1168 C 0.10827 0.42416 0.69439 0.0
C1169 C 0.12096 0.42271 0.65855 0.0
C1170 C 0.12194 0.42966 0.63749 0.0
C1171 C 0.13129 0.44597 0.63408 0.0
C1172 C 0.132 0.45249 0.61422 0.0
C1173 C 0.12353 0.44279 0.59763 0.0
C1174 C 0.11441 0.42654 0.60085 0.0
C1175 C 0.11365 0.41996 0.62067 0.0
H1176 H 0.12409 0.44787 0.58227 0.0
H1177 H 0.1155 0.38351 0.77439 0.0
H1178 H 0.19797 0.68326 0.36784 0.0
H1179 H 0.17849 0.65519 0.37086 0.0
H1180 H 0.12176 0.66566 0.32128 0.0
H1181 H 0.1409 0.69366 0.31831 0.0
H1182 H 0.09602 0.65201 0.35413 0.0
H1183 H 0.17532 0.64127 0.31327 0.0
H1184 H 0.22479 0.64161 0.30497 0.0
H1185 H 0.2424 0.61271 0.35881 0.0
H1186 H 0.19303 0.6124 0.36759 0.0
H1187 H 0.07692 0.56218 0.32227 0.0
H1188 H 0.10813 0.58623 0.32395 0.0
H1189 H 0.07754 0.59775 0.38389 0.0
H1190 H 0.04583 0.57396 0.3819 0.0
H1191 H 0.14861 0.60009 0.34688 0.0
H1192 H 0.06672 0.63982 0.38592 0.0
H1193 H 0.01646 0.64114 0.39088 0.0
H1194 H 0.00272 0.61296 0.33613 0.0
H1195 H 0.05293 0.61174 0.33062 0.0
C1196 C 0.18135 0.67955 0.35759 0.0
C1197 C 0.17099 0.69069 0.34282 0.0
C1198 C 0.17039 0.66348 0.35923 0.0
C1199 C 0.14875 0.65829 0.34623 0.0
C1200 C 0.13849 0.66937 0.33145 0.0
C1201 C 0.14957 0.68535 0.32968 0.0
C1202 C 0.13583 0.64161 0.3485 0.0
C1203 C 0.10758 0.64066 0.35268 0.0
C1204 C 0.15085 0.6268 0.34644 0.0
C1205 C 0.18052 0.62698 0.34121 0.0
C1206 C 0.18977 0.63513 0.32345 0.0
C1207 C 0.21779 0.63528 0.31863 0.0
C1208 C 0.23674 0.62723 0.33139 0.0
C1209 C 0.2277 0.61897 0.34896 0.0
C1210 C 0.1997 0.61879 0.35386 0.0
C1211 C 0.0778 0.56946 0.33614 0.0
C1212 C 0.05931 0.56617 0.35206 0.0
C1213 C 0.09549 0.58326 0.33706 0.0
C1214 C 0.09481 0.59401 0.35387 0.0
C1215 C 0.07815 0.58979 0.37063 0.0
C1216 C 0.0603 0.57609 0.36962 0.0
C1217 C 0.10876 0.61051 0.3527 0.0
C1218 C 0.13715 0.61144 0.34867 0.0
C1219 C 0.0938 0.62539 0.35464 0.0
C1220 C 0.0636 0.62556 0.35799 0.0
C1221 C 0.05298 0.6339 0.37494 0.0
C1222 C 0.02452 0.63466 0.37783 0.0
C1223 C 0.00645 0.62718 0.36381 0.0
C1224 C 0.01678 0.61877 0.34696 0.0
C1225 C 0.04525 0.61802 0.34396 0.0
H1226 H 0.98446 0.62804 0.36597 0.0
H1227 H 0.25842 0.62736 0.32763 0.0
H1228 H 0.769 0.86636 0.66447 0.0
H1229 H 0.7691 0.89375 0.64836 0.0
H1230 H 0.84296 0.88156 0.61578 0.0
H1231 H 0.84367 0.85447 0.63247 0.0
H1232 H 0.84627 0.91251 0.62889 0.0
H1233 H 0.77795 0.87943 0.5931 0.0
H1234 H 0.73627 0.86183 0.58999 0.0
H1235 H 0.6872 0.90078 0.6145 0.0
H1236 H 0.7287 0.91854 0.618 0.0
H1237 H 0.83993 0.96138 0.53868 0.0
H1238 H 0.8423 0.94087 0.56627 0.0
H1239 H 0.77123 0.96253 0.59431 0.0
H1240 H 0.76888 0.98317 0.56654 0.0
H1241 H 0.76442 0.92948 0.58803 0.0
H1242 H 0.8331 0.96398 0.61877 0.0
H1243 H 0.87519 0.98132 0.62036 0.0
H1244 H 0.92414 0.93958 0.60396 0.0
H1245 H 0.88229 0.92203 0.60198 0.0
C1246 C 0.78551 0.86958 0.65412 0.0
C1247 C 0.80621 0.85809 0.64968 0.0
C1248 C 0.78539 0.88522 0.64475 0.0
C1249 C 0.80583 0.88968 0.63061 0.0
C1250 C 0.82691 0.87842 0.62657 0.0
C1251 C 0.8271 0.86283 0.63597 0.0
C1252 C 0.80495 0.90583 0.61948 0.0
C1253 C 0.82843 0.91618 0.61986 0.0
C1254 C 0.78141 0.9109 0.60813 0.0
C1255 C 0.75647 0.90023 0.60605 0.0
C1256 C 0.75831 0.88419 0.59799 0.0
C1257 C 0.73471 0.87419 0.59613 0.0
C1258 C 0.70912 0.88016 0.60211 0.0
C1259 C 0.70705 0.89616 0.60992 0.0
C1260 C 0.7306 0.90619 0.61184 0.0
C1261 C 0.82537 0.96207 0.55109 0.0
C1262 C 0.80432 0.97388 0.55058 0.0
C1263 C 0.82672 0.95035 0.56686 0.0
C1264 C 0.80698 0.95015 0.58243 0.0
C1265 C 0.78672 0.96248 0.58249 0.0
C1266 C 0.78553 0.97434 0.56676 0.0
C1267 C 0.80592 0.93602 0.59714 0.0
C1268 C 0.78209 0.926 0.59737 0.0
C1269 C 0.82921 0.93121 0.6089 0.0
C1270 C 0.85449 0.94171 0.6101 0.0
C1271 C 0.8528 0.95852 0.61535 0.0
C1272 C 0.87664 0.96839 0.61635 0.0
C1273 C 0.90232 0.96157 0.61223 0.0
C1274 C 0.90423 0.94485 0.60715 0.0
C1275 C 0.88046 0.93493 0.60611 0.0
H1276 H 0.92075 0.96922 0.61301 0.0
H1277 H 0.69087 0.87241 0.60065 0.0
H1278 H 0.72078 0.26701 0.19447 0.0
H1279 H 0.69424 0.26918 0.16249 0.0
H1280 H 0.63778 0.23148 0.18399 0.0
H1281 H 0.664 0.22934 0.21598 0.0
H1282 H 0.65145 0.22605 0.14494 0.0
H1283 H 0.62095 0.27234 0.18458 0.0
H1284 H 0.62664 0.298 0.20449 0.0
H1285 H 0.66269 0.32233 0.15251 0.0
H1286 H 0.65754 0.29672 0.13236 0.0
H1287 H 0.52877 0.23905 0.08814 0.0
H1288 H 0.56573 0.23615 0.11359 0.0
H1289 H 0.6149 0.27219 0.0809 0.0
H1290 H 0.57765 0.27514 0.05527 0.0
H1291 H 0.61041 0.27915 0.12229 0.0
H1292 H 0.63518 0.23314 0.08146 0.0
H1293 H 0.62755 0.20745 0.06195 0.0
H1294 H 0.60064 0.18248 0.11648 0.0
H1295 H 0.60772 0.2081 0.13629 0.0
C1296 C 0.70258 0.25928 0.19247 0.0
C1297 C 0.69455 0.24799 0.20783 0.0
C1298 C 0.68748 0.2605 0.17414 0.0
C1299 C 0.66392 0.25055 0.17086 0.0
C1300 C 0.65597 0.23921 0.18611 0.0
C1301 C 0.67104 0.23798 0.20439 0.0
C1302 C 0.64729 0.25195 0.15168 0.0
C1303 C 0.64234 0.23764 0.14006 0.0
C1304 C 0.63603 0.26717 0.14496 0.0
C1305 C 0.63919 0.28256 0.15705 0.0
C1306 C 0.63032 0.28311 0.17746 0.0
C1307 C 0.6334 0.29766 0.18877 0.0
C1308 C 0.64511 0.31177 0.17979 0.0
C1309 C 0.65369 0.31138 0.15946 0.0
C1310 C 0.65069 0.29685 0.14808 0.0
C1311 C 0.54766 0.24614 0.08621 0.0
C1312 C 0.55042 0.25733 0.06979 0.0
C1313 C 0.5688 0.24444 0.10071 0.0
C1314 C 0.59313 0.2539 0.09911 0.0
C1315 C 0.5963 0.26474 0.08238 0.0
C1316 C 0.57517 0.26633 0.0677 0.0
C1317 C 0.61418 0.25319 0.11577 0.0
C1318 C 0.61992 0.26762 0.12697 0.0
C1319 C 0.62602 0.23806 0.12216 0.0
C1320 C 0.62181 0.22259 0.11034 0.0
C1321 C 0.62743 0.22221 0.08927 0.0
C1322 C 0.62324 0.20766 0.07816 0.0
C1323 C 0.61357 0.19335 0.08796 0.0
C1324 C 0.60812 0.19357 0.10891 0.0
C1325 C 0.61226 0.20811 0.12009 0.0
H1326 H 0.61034 0.18209 0.07933 0.0
H1327 H 0.64746 0.32302 0.18857 0.0
H1328 H 0.18801 0.17383 0.65783 0.0
H1329 H 0.18857 0.14719 0.64026 0.0
H1330 H 0.24445 0.16758 0.59555 0.0
H1331 H 0.24362 0.19429 0.61289 0.0
H1332 H 0.2073 0.15039 0.57668 0.0
H1333 H 0.266 0.14036 0.63413 0.0
H1334 H 0.27994 0.13951 0.67052 0.0
H1335 H 0.21393 0.10526 0.68321 0.0
H1336 H 0.19935 0.10608 0.64693 0.0
H1337 H 0.25561 0.06163 0.55834 0.0
H1338 H 0.25452 0.08511 0.582 0.0
H1339 H 0.17187 0.09624 0.56145 0.0
H1340 H 0.17331 0.07306 0.5375 0.0
H1341 H 0.2253 0.09741 0.61298 0.0
H1342 H 0.16759 0.13797 0.55272 0.0
H1343 H 0.16046 0.13919 0.51529 0.0
H1344 H 0.23602 0.11312 0.50642 0.0
H1345 H 0.24395 0.11209 0.54374 0.0
C1346 C 0.20061 0.17259 0.64436 0.0
C1347 C 0.21578 0.1862 0.63678 0.0
C1348 C 0.20095 0.15733 0.63432 0.0
C1349 C 0.21679 0.15525 0.61665 0.0
C1350 C 0.23198 0.16883 0.60909 0.0
C1351 C 0.23146 0.18412 0.61901 0.0
C1352 C 0.21705 0.13907 0.60577 0.0
C1353 C 0.21117 0.13883 0.58467 0.0
C1354 C 0.22274 0.12394 0.61601 0.0
C1355 C 0.23142 0.12341 0.63785 0.0
C1356 C 0.25432 0.13275 0.64471 0.0
C1357 C 0.26236 0.13226 0.66532 0.0
C1358 C 0.24778 0.12237 0.67918 0.0
C1359 C 0.22517 0.11293 0.67246 0.0
C1360 C 0.21702 0.11339 0.65187 0.0
C1361 C 0.23686 0.06872 0.55954 0.0
C1362 C 0.21446 0.06554 0.5463 0.0
C1363 C 0.23629 0.08218 0.57294 0.0
C1364 C 0.21333 0.09266 0.57318 0.0
C1365 C 0.18998 0.08851 0.56128 0.0
C1366 C 0.19066 0.07517 0.54779 0.0
C1367 C 0.21487 0.10877 0.58408 0.0
C1368 C 0.2212 0.10899 0.60509 0.0
C1369 C 0.2105 0.12397 0.57363 0.0
C1370 C 0.20617 0.12478 0.55108 0.0
C1371 C 0.18276 0.13257 0.54279 0.0
C1372 C 0.17858 0.13323 0.52158 0.0
C1373 C 0.19773 0.12619 0.50849 0.0
C1374 C 0.22117 0.11854 0.51657 0.0
C1375 C 0.22551 0.11791 0.53776 0.0
H1376 H 0.19443 0.12671 0.49209 0.0
H1377 H 0.25405 0.122 0.69513 0.0
H1378 H 0.28389 0.76038 0.18158 0.0
H1379 H 0.31204 0.76442 0.15113 0.0
H1380 H 0.3682 0.7956 0.18553 0.0
H1381 H 0.34027 0.7915 0.21614 0.0
H1382 H 0.35883 0.80787 0.14684 0.0
H1383 H 0.38351 0.75586 0.17785 0.0
H1384 H 0.37468 0.72794 0.19189 0.0
H1385 H 0.3417 0.71228 0.13381 0.0
H1386 H 0.34998 0.74021 0.1195 0.0
H1387 H 0.48337 0.79976 0.09165 0.0
H1388 H 0.44542 0.80111 0.11583 0.0
H1389 H 0.39627 0.76906 0.07706 0.0
H1390 H 0.43451 0.76741 0.05295 0.0
H1391 H 0.3984 0.7577 0.11569 0.0
H1392 H 0.37861 0.80944 0.08371 0.0
H1393 H 0.38858 0.83735 0.07007 0.0
H1394 H 0.41356 0.85361 0.12997 0.0
H1395 H 0.40412 0.82572 0.14394 0.0
C1396 C 0.30224 0.76809 0.18269 0.0
C1397 C 0.30998 0.77546 0.20138 0.0
C1398 C 0.31825 0.77045 0.16524 0.0
C1399 C 0.34242 0.78015 0.16612 0.0
C1400 C 0.34961 0.78808 0.1845 0.0
C1401 C 0.33359 0.78574 0.20198 0.0
C1402 C 0.36096 0.78129 0.14821 0.0
C1403 C 0.36767 0.79693 0.1401 0.0
C1404 C 0.37198 0.76698 0.13913 0.0
C1405 C 0.36706 0.75017 0.14768 0.0
C1406 C 0.37416 0.7465 0.16812 0.0
C1407 C 0.36929 0.73067 0.17612 0.0
C1408 C 0.35756 0.71836 0.16377 0.0
C1409 C 0.35074 0.72184 0.14337 0.0
C1410 C 0.35552 0.73766 0.13531 0.0
C1411 C 0.46431 0.7932 0.08813 0.0
C1412 C 0.46196 0.78339 0.07048 0.0
C1413 C 0.44255 0.79408 0.10189 0.0
C1414 C 0.41793 0.78522 0.09825 0.0
C1415 C 0.41506 0.77601 0.08017 0.0
C1416 C 0.43683 0.77518 0.06633 0.0
C1417 C 0.39645 0.7843 0.11428 0.0
C1418 C 0.38928 0.76867 0.12217 0.0
C1419 C 0.38516 0.79863 0.12317 0.0
C1420 C 0.39085 0.81544 0.11484 0.0
C1421 C 0.38645 0.81893 0.09395 0.0
C1422 C 0.39196 0.83475 0.08616 0.0
C1423 C 0.40175 0.84723 0.09914 0.0
C1424 C 0.40599 0.84392 0.11994 0.0
C1425 C 0.40052 0.82811 0.1278 0.0
H1426 H 0.406 0.85948 0.09308 0.0
H1427 H 0.35382 0.7061 0.16999 0.0
H1428 H 0.81429 0.17027 0.35462 0.0
H1429 H 0.8134 0.14321 0.37171 0.0
H1430 H 0.79124 0.16657 0.42829 0.0
H1431 H 0.7921 0.19357 0.41136 0.0
H1432 H 0.82962 0.14453 0.43548 0.0
H1433 H 0.74351 0.14541 0.3983 0.0
H1434 H 0.71355 0.14802 0.36773 0.0
H1435 H 0.75377 0.10679 0.34017 0.0
H1436 H 0.78423 0.10408 0.37049 0.0
H1437 H 0.74755 0.07055 0.47415 0.0
H1438 H 0.75227 0.09278 0.4488 0.0
H1439 H 0.83997 0.08458 0.44686 0.0
H1440 H 0.83516 0.06227 0.47241 0.0
H1441 H 0.77121 0.09791 0.41048 0.0
H1442 H 0.87137 0.12317 0.44742 0.0
H1443 H 0.89668 0.12213 0.48038 0.0
H1444 H 0.82072 0.1133 0.51202 0.0
H1445 H 0.79499 0.11449 0.47931 0.0
C1446 C 0.80901 0.16963 0.37067 0.0
C1447 C 0.80329 0.18413 0.38161 0.0
C1448 C 0.80855 0.15414 0.38043 0.0
C1449 C 0.8021 0.15279 0.40129 0.0
C1450 C 0.79645 0.16726 0.41223 0.0
C1451 C 0.797 0.18272 0.40252 0.0
C1452 C 0.80127 0.1364 0.41188 0.0
C1453 C 0.81701 0.13431 0.42987 0.0
C1454 C 0.78463 0.12305 0.40478 0.0
C1455 C 0.76635 0.12466 0.38655 0.0
C1456 C 0.74612 0.13699 0.38565 0.0
C1457 C 0.72902 0.13847 0.36838 0.0
C1458 C 0.73181 0.12761 0.35199 0.0
C1459 C 0.75167 0.11522 0.35286 0.0
C1460 C 0.76884 0.11369 0.37008 0.0
C1461 C 0.76767 0.07314 0.46775 0.0
C1462 C 0.79098 0.06468 0.47505 0.0
C1463 C 0.77038 0.08585 0.4533 0.0
C1464 C 0.79651 0.09051 0.4461 0.0
C1465 C 0.81963 0.08129 0.45233 0.0
C1466 C 0.81687 0.06846 0.46675 0.0
C1467 C 0.79962 0.10608 0.43398 0.0
C1468 C 0.78426 0.10803 0.41579 0.0
C1469 C 0.8161 0.11946 0.44113 0.0
C1470 C 0.83135 0.11871 0.46089 0.0
C1471 C 0.8601 0.12102 0.46142 0.0
C1472 C 0.87452 0.1204 0.48006 0.0
C1473 C 0.86035 0.11759 0.49827 0.0
C1474 C 0.83172 0.11541 0.4979 0.0
C1475 C 0.81721 0.11603 0.47931 0.0
H1476 H 0.87158 0.11717 0.51267 0.0
H1477 H 0.71855 0.12878 0.33864 0.0
H1478 H 0.28939 0.26521 0.82827 0.0
H1479 H 0.31505 0.26651 0.86074 0.0
H1480 H 0.3693 0.22835 0.83984 0.0
H1481 H 0.34402 0.22708 0.80739 0.0
H1482 H 0.35369 0.2226 0.87875 0.0
H1483 H 0.38897 0.26906 0.83964 0.0
H1484 H 0.38534 0.29514 0.82005 0.0
H1485 H 0.35016 0.31893 0.87206 0.0
H1486 H 0.35325 0.2929 0.89188 0.0
H1487 H 0.4762 0.23136 0.93673 0.0
H1488 H 0.43872 0.22931 0.91162 0.0
H1489 H 0.39577 0.26844 0.94209 0.0
H1490 H 0.43375 0.27077 0.96713 0.0
H1491 H 0.3994 0.27453 0.90185 0.0
H1492 H 0.37 0.2288 0.94245 0.0
H1493 H 0.37459 0.20278 0.962 0.0
H1494 H 0.39894 0.17755 0.90757 0.0
H1495 H 0.39489 0.20348 0.88773 0.0
C1496 C 0.30692 0.25719 0.83053 0.0
C1497 C 0.3146 0.24603 0.81519 0.0
C1498 C 0.32151 0.2579 0.84913 0.0
C1499 C 0.34419 0.24757 0.85271 0.0
C1500 C 0.35177 0.23637 0.8375 0.0
C1501 C 0.33722 0.23563 0.81894 0.0
C1502 C 0.36039 0.24845 0.87215 0.0
C1503 C 0.36382 0.23393 0.88375 0.0
C1504 C 0.37288 0.26335 0.87905 0.0
C1505 C 0.37102 0.27899 0.86715 0.0
C1506 C 0.38024 0.27981 0.84684 0.0
C1507 C 0.37832 0.29459 0.83571 0.0
C1508 C 0.36744 0.30867 0.84478 0.0
C1509 C 0.35852 0.308 0.86504 0.0
C1510 C 0.36036 0.29325 0.87623 0.0
C1511 C 0.45855 0.23934 0.93828 0.0
C1512 C 0.45795 0.25127 0.95383 0.0
C1513 C 0.43703 0.2381 0.92398 0.0
C1514 C 0.4143 0.24867 0.92499 0.0
C1515 C 0.41307 0.26014 0.94103 0.0
C1516 C 0.43464 0.26136 0.95542 0.0
C1517 C 0.39323 0.24857 0.90825 0.0
C1518 C 0.38889 0.26325 0.89711 0.0
C1519 C 0.37992 0.2338 0.90177 0.0
C1520 C 0.38229 0.21813 0.91362 0.0
C1521 C 0.37652 0.21774 0.93467 0.0
C1522 C 0.37899 0.20299 0.9458 0.0
C1523 C 0.38709 0.18853 0.93604 0.0
C1524 C 0.39267 0.18877 0.91511 0.0
C1525 C 0.39025 0.20348 0.9039 0.0
H1526 H 0.38899 0.17712 0.94469 0.0
H1527 H 0.36598 0.3201 0.83614 0.0
H1528 H 0.19704 0.85472 0.38188 0.0
H1529 H 0.19279 0.87921 0.40343 0.0
H1530 H 0.26131 0.9023 0.37241 0.0
H1531 H 0.26628 0.87769 0.35133 0.0
H1532 H 0.26596 0.90678 0.4125 0.0
H1533 H 0.19425 0.91372 0.36218 0.0
H1534 H 0.15319 0.90557 0.34189 0.0
H1535 H 0.10603 0.90076 0.39687 0.0
H1536 H 0.14694 0.90867 0.41753 0.0
H1537 H 0.24853 0.9853 0.45736 0.0
H1538 H 0.24864 0.96468 0.42986 0.0
H1539 H 0.18356 0.93744 0.45994 0.0
H1540 H 0.18328 0.95802 0.48722 0.0
H1541 H 0.17732 0.9364 0.41836 0.0
H1542 H 0.24917 0.92733 0.46861 0.0
H1543 H 0.28991 0.93522 0.48941 0.0
H1544 H 0.33652 0.94365 0.43477 0.0
H1545 H 0.29587 0.93605 0.41362 0.0
C1546 C 0.21137 0.86494 0.37976 0.0
C1547 C 0.2319 0.86424 0.36476 0.0
C1548 C 0.20872 0.87903 0.39195 0.0
C1549 C 0.22645 0.89274 0.38934 0.0
C1550 C 0.24725 0.89195 0.37463 0.0
C1551 C 0.24992 0.87789 0.36247 0.0
C1552 C 0.22367 0.90782 0.40215 0.0
C1553 C 0.24668 0.91341 0.41348 0.0
C1554 C 0.1984 0.91633 0.40379 0.0
C1555 C 0.17373 0.91165 0.39141 0.0
C1556 C 0.17518 0.91081 0.36996 0.0
C1557 C 0.15192 0.90625 0.35839 0.0
C1558 C 0.12703 0.90261 0.36809 0.0
C1559 C 0.12533 0.90357 0.38938 0.0
C1560 C 0.14854 0.9081 0.40102 0.0
C1561 C 0.23372 0.97517 0.45772 0.0
C1562 C 0.21602 0.97317 0.47444 0.0
C1563 C 0.23393 0.96333 0.44212 0.0
C1564 C 0.21642 0.94935 0.44303 0.0
C1565 C 0.19731 0.94806 0.45893 0.0
C1566 C 0.1972 0.95981 0.47453 0.0
C1567 C 0.21958 0.93531 0.42865 0.0
C1568 C 0.19665 0.92987 0.41713 0.0
C1569 C 0.24489 0.92688 0.42686 0.0
C1570 C 0.26941 0.93131 0.43954 0.0
C1571 C 0.26805 0.93099 0.46103 0.0
C1572 C 0.29113 0.93539 0.47288 0.0
C1573 C 0.31577 0.93998 0.46341 0.0
C1574 C 0.3174 0.94012 0.44207 0.0
C1575 C 0.29435 0.93577 0.43015 0.0
H1576 H 0.33362 0.94338 0.47261 0.0
H1577 H 0.10905 0.89909 0.3591 0.0
H1578 H 0.7345 0.79606 0.84139 0.0
H1579 H 0.70677 0.79514 0.87256 0.0
H1580 H 0.63611 0.7788 0.83714 0.0
H1581 H 0.66354 0.77984 0.806 0.0
H1582 H 0.62416 0.8046 0.86249 0.0
H1583 H 0.67001 0.75203 0.86693 0.0
H1584 H 0.71019 0.7336 0.8683 0.0
H1585 H 0.73968 0.75789 0.9227 0.0
H1586 H 0.69983 0.77662 0.92148 0.0
H1587 H 0.53491 0.76269 0.93101 0.0
H1588 H 0.57164 0.76691 0.90643 0.0
H1589 H 0.61364 0.79992 0.94819 0.0
H1590 H 0.57572 0.79671 0.97262 0.0
H1591 H 0.64415 0.76919 0.92304 0.0
H1592 H 0.5954 0.82064 0.9196 0.0
H1593 H 0.55501 0.83881 0.91733 0.0
H1594 H 0.53134 0.8168 0.86006 0.0
H1595 H 0.57105 0.79804 0.86236 0.0
C1596 C 0.71306 0.79225 0.84028 0.0
C1597 C 0.70121 0.788 0.82123 0.0
C1598 C 0.6973 0.79164 0.85811 0.0
C1599 C 0.66939 0.78687 0.85718 0.0
C1600 C 0.65761 0.78252 0.83821 0.0
C1601 C 0.67337 0.78299 0.82045 0.0
C1602 C 0.65203 0.78686 0.87576 0.0
C1603 C 0.62852 0.79682 0.87571 0.0
C1604 C 0.65816 0.77709 0.89325 0.0
C1605 C 0.68214 0.76587 0.89396 0.0
C1606 C 0.68521 0.75355 0.87907 0.0
C1607 C 0.70788 0.74303 0.87984 0.0
C1608 C 0.72753 0.74461 0.89554 0.0
C1609 C 0.72448 0.7567 0.91052 0.0
C1610 C 0.70185 0.76727 0.9098 0.0
C1611 C 0.55169 0.77105 0.935 0.0
C1612 C 0.55188 0.77967 0.9537 0.0
C1613 C 0.57283 0.77329 0.92096 0.0
C1614 C 0.5951 0.78385 0.92542 0.0
C1615 C 0.59644 0.79178 0.94448 0.0
C1616 C 0.57484 0.78983 0.95846 0.0
C1617 C 0.61621 0.78678 0.90958 0.0
C1618 C 0.64021 0.77725 0.91002 0.0
C1619 C 0.61057 0.79695 0.89239 0.0
C1620 C 0.58599 0.80772 0.89135 0.0
C1621 C 0.58126 0.8194 0.90675 0.0
C1622 C 0.55855 0.82987 0.90541 0.0
C1623 C 0.5406 0.82895 0.88858 0.0
C1624 C 0.54528 0.81751 0.87308 0.0
C1625 C 0.56781 0.8069 0.87445 0.0
H1626 H 0.52311 0.83712 0.88752 0.0
H1627 H 0.74506 0.73644 0.89612 0.0
loop_
_geom_bond_atom_site_label_1
_geom_bond_atom_site_label_2
_geom_bond_distance
_geom_bond_site_symmetry_2
_ccdc_geom_bond_type
C0 C1 1.264 . S
C0 C5 1.479 . S
C0 C10 1.465 . S
C1 C0 1.264 . S
C1 C3 1.339 . S
C1 H28 0.931 . S
C2 C3 1.395 . S
C2 C4 1.320 . S
C3 C1 1.339 . S
C3 C2 1.395 . S
C3 H29 0.929 . S
C4 C2 1.320 . S
C4 C5 1.405 . S
C4 H30 0.930 . S
C5 C0 1.479 . S
C5 C4 1.405 . S
C5 H31 0.931 . S
U6 O7 2.454 . S
U6 O8 2.458 . S
U6 C9 2.984 . S
U6 C10 2.847 . S
U6 C23 2.882 . S
U6 O24 2.441 . S
U6 O25 2.420 . S
U6 O26 2.455 . S
U6 O27 2.449 . S
O7 U6 2.454 . S
O7 C9 1.353 . S
O8 U6 2.458 . S
O8 C9 1.286 . S
C9 U6 2.984 . S
C9 O7 1.353 . S
C9 O8 1.286 . S
C9 C11 1.363 . S
C10 C0 1.465 . S
C10 U6 2.847 . S
C10 O24 1.249 . S
C10 O25 1.202 . S
C11 C9 1.363 . S
C11 C13 1.408 . S
C11 C16 1.342 . S
C12 C13 1.310 . S
C12 C15 1.461 . S
C12 H32 0.932 . S
C13 C11 1.408 . S
C13 C12 1.310 . S
C13 H33 0.930 . S
C14 C15 1.474 . S
C14 C16 1.285 . S
C14 H34 0.929 . S
C15 C12 1.461 . S
C15 C14 1.474 . S
C16 C11 1.342 . S
C16 C14 1.285 . S
C16 H35 0.930 . S
C17 C20 1.424 . S
C17 C22 1.245 . S
C17 C23 1.428 . S
C18 C21 1.260 . S
C18 C22 1.477 . S
C18 H36 0.932 . S
C19 C20 1.384 . S
C19 C21 1.479 . S
C19 H37 0.929 . S
C20 C17 1.424 . S
C20 C19 1.384 . S
C20 H38 0.928 . S
C21 C18 1.260 . S
C21 C19 1.479 . S
C22 C17 1.245 . S
C22 C18 1.477 . S
C22 H39 0.932 . S
C23 U6 2.882 . S
C23 C17 1.428 . S
C23 O26 1.301 . S
C23 O27 1.282 . S
O24 U6 2.441 . S
O24 C10 1.249 . S
O25 U6 2.420 . S
O25 C10 1.202 . S
O26 U6 2.455 . S
O26 C23 1.301 . S
O27 U6 2.449 . S
O27 C23 1.282 . S
H28 C1 0.931 . S
H29 C3 0.929 . S
H30 C4 0.930 . S
H31 C5 0.931 . S
H32 C12 0.932 . S
H33 C13 0.930 . S
H34 C14 0.929 . S
H35 C16 0.930 . S
H36 C18 0.932 . S
H37 C19 0.929 . S
H38 C20 0.928 . S
H39 C22 0.932 . S
C40 C41 1.264 . S
C40 C45 1.479 . S
C40 C50 1.465 . S
C41 C40 1.264 . S
C41 C43 1.339 . S
C41 H68 0.931 . S
C42 C43 1.395 . S
C42 C44 1.320 . S
C43 C41 1.339 . S
C43 C42 1.395 . S
C43 H69 0.929 . S
C44 C42 1.320 . S
C44 C45 1.405 . S
C44 H70 0.930 . S
C45 C40 1.479 . S
C45 C44 1.405 . S
C45 H71 0.931 . S
U46 O47 2.454 . S
U46 O48 2.458 . S
U46 C49 2.984 . S
U46 C50 2.847 . S
U46 C63 2.882 . S
U46 O64 2.441 . S
U46 O65 2.420 . S
U46 O66 2.455 . S
U46 O67 2.449 . S
O47 U46 2.454 . S
O47 C49 1.353 . S
O48 U46 2.458 . S
O48 C49 1.286 . S
C49 U46 2.984 . S
C49 O47 1.353 . S
C49 O48 1.286 . S
C49 C51 1.363 . S
C50 C40 1.465 . S
C50 U46 2.847 . S
C50 O64 1.249 . S
C50 O65 1.202 . S
C51 C49 1.363 . S
C51 C53 1.408 . S
C51 C56 1.342 . S
C52 C53 1.310 . S
C52 C55 1.461 . S
C52 H72 0.932 . S
C53 C51 1.408 . S
C53 C52 1.310 . S
C53 H73 0.930 . S
C54 C55 1.474 . S
C54 C56 1.285 . S
C54 H74 0.929 . S
C55 C52 1.461 . S
C55 C54 1.474 . S
C56 C51 1.342 . S
C56 C54 1.285 . S
C56 H75 0.930 . S
C57 C60 1.424 . S
C57 C62 1.245 . S
C57 C63 1.428 . S
C58 C61 1.260 . S
C58 C62 1.477 . S
C58 H76 0.932 . S
C59 C60 1.384 . S
C59 C61 1.479 . S
C59 H77 0.929 . S
C60 C57 1.424 . S
C60 C59 1.384 . S
C60 H78 0.928 . S
C61 C58 1.260 . S
C61 C59 1.479 . S
C62 C57 1.245 . S
C62 C58 1.477 . S
C62 H79 0.932 . S
C63 U46 2.882 . S
C63 C57 1.428 . S
C63 O66 1.301 . S
C63 O67 1.282 . S
O64 U46 2.441 . S
O64 C50 1.249 . S
O65 U46 2.420 . S
O65 C50 1.202 . S
O66 U46 2.455 . S
O66 C63 1.301 . S
O67 U46 2.449 . S
O67 C63 1.282 . S
H68 C41 0.931 . S
H69 C43 0.929 . S
H70 C44 0.930 . S
H71 C45 0.931 . S
H72 C52 0.932 . S
H73 C53 0.930 . S
H74 C54 0.929 . S
H75 C56 0.930 . S
H76 C58 0.932 . S
H77 C59 0.929 . S
H78 C60 0.928 . S
H79 C62 0.932 . S
C80 C81 1.264 . S
C80 C85 1.479 . S
C80 C90 1.465 . S
C81 C80 1.264 . S
C81 C83 1.339 . S
C81 H108 0.931 . S
C82 C83 1.395 . S
C82 C84 1.320 . S
C83 C81 1.339 . S
C83 C82 1.395 . S
C83 H109 0.929 . S
C84 C82 1.320 . S
C84 C85 1.405 . S
C84 H110 0.930 . S
C85 C80 1.479 . S
C85 C84 1.405 . S
C85 H111 0.931 . S
U86 O87 2.454 . S
U86 O88 2.458 . S
U86 C89 2.984 . S
U86 C90 2.847 . S
U86 C103 2.882 . S
U86 O104 2.441 . S
U86 O105 2.420 . S
U86 O106 2.455 . S
U86 O107 2.449 . S
O87 U86 2.454 . S
O87 C89 1.353 . S
O88 U86 2.458 . S
O88 C89 1.286 . S
C89 U86 2.984 . S
C89 O87 1.353 . S
C89 O88 1.286 . S
C89 C91 1.363 . S
C90 C80 1.465 . S
C90 U86 2.847 . S
C90 O104 1.249 . S
C90 O105 1.202 . S
C91 C89 1.363 . S
C91 C93 1.408 . S
C91 C96 1.342 . S
C92 C93 1.310 . S
C92 C95 1.461 . S
C92 H112 0.932 . S
C93 C91 1.408 . S
C93 C92 1.310 . S
C93 H113 0.930 . S
C94 C95 1.474 . S
C94 C96 1.285 . S
C94 H114 0.929 . S
C95 C92 1.461 . S
C95 C94 1.474 . S
C96 C91 1.342 . S
C96 C94 1.285 . S
C96 H115 0.930 . S
C97 C100 1.424 . S
C97 C102 1.245 . S
C97 C103 1.428 . S
C98 C101 1.260 . S
C98 C102 1.477 . S
C98 H116 0.932 . S
C99 C100 1.384 . S
C99 C101 1.479 . S
C99 H117 0.929 . S
C100 C97 1.424 . S
C100 C99 1.384 . S
C100 H118 0.928 . S
C101 C98 1.260 . S
C101 C99 1.479 . S
C102 C97 1.245 . S
C102 C98 1.477 . S
C102 H119 0.932 . S
C103 U86 2.882 . S
C103 C97 1.428 . S
C103 O106 1.301 . S
C103 O107 1.282 . S
O104 U86 2.441 . S
O104 C90 1.249 . S
O105 U86 2.420 . S
O105 C90 1.202 . S
O106 U86 2.455 . S
O106 C103 1.301 . S
O107 U86 2.449 . S
O107 C103 1.282 . S
H108 C81 0.931 . S
H109 C83 0.929 . S
H110 C84 0.930 . S
H111 C85 0.931 . S
H112 C92 0.932 . S
H113 C93 0.930 . S
H114 C94 0.929 . S
H115 C96 0.930 . S
H116 C98 0.932 . S
H117 C99 0.929 . S
H118 C100 0.928 . S
H119 C102 0.932 . S
C120 C121 1.264 . S
C120 C125 1.479 . S
C120 C130 1.465 . S
C121 C120 1.264 . S
C121 C123 1.339 . S
C121 H148 0.931 . S
C122 C123 1.395 . S
C122 C124 1.320 . S
C123 C121 1.339 . S
C123 C122 1.395 . S
C123 H149 0.929 . S
C124 C122 1.320 . S
C124 C125 1.405 . S
C124 H150 0.930 . S
C125 C120 1.479 . S
C125 C124 1.405 . S
C125 H151 0.931 . S
U126 O127 2.454 . S
U126 O128 2.458 . S
U126 C129 2.984 . S
U126 C130 2.847 . S
U126 C143 2.882 . S
U126 O144 2.441 . S
U126 O145 2.420 . S
U126 O146 2.455 . S
U126 O147 2.449 . S
O127 U126 2.454 . S
O127 C129 1.353 . S
O128 U126 2.458 . S
O128 C129 1.286 . S
C129 U126 2.984 . S
C129 O127 1.353 . S
C129 O128 1.286 . S
C129 C131 1.363 . S
C130 C120 1.465 . S
C130 U126 2.847 . S
C130 O144 1.249 . S
C130 O145 1.202 . S
C131 C129 1.363 . S
C131 C133 1.408 . S
C131 C136 1.342 . S
C132 C133 1.310 . S
C132 C135 1.461 . S
C132 H152 0.932 . S
C133 C131 1.408 . S
C133 C132 1.310 . S
C133 H153 0.930 . S
C134 C135 1.474 . S
C134 C136 1.285 . S
C134 H154 0.929 . S
C135 C132 1.461 . S
C135 C134 1.474 . S
C136 C131 1.342 . S
C136 C134 1.285 . S
C136 H155 0.930 . S
C137 C140 1.424 . S
C137 C142 1.245 . S
C137 C143 1.428 . S
C138 C141 1.260 . S
C138 C142 1.477 . S
C138 H156 0.932 . S
C139 C140 1.384 . S
C139 C141 1.479 . S
C139 H157 0.929 . S
C140 C137 1.424 . S
C140 C139 1.384 . S
C140 H158 0.928 . S
C141 C138 1.260 . S
C141 C139 1.479 . S
C142 C137 1.245 . S
C142 C138 1.477 . S
C142 H159 0.932 . S
C143 U126 2.882 . S
C143 C137 1.428 . S
C143 O146 1.301 . S
C143 O147 1.282 . S
O144 U126 2.441 . S
O144 C130 1.249 . S
O145 U126 2.420 . S
O145 C130 1.202 . S
O146 U126 2.455 . S
O146 C143 1.301 . S
O147 U126 2.449 . S
O147 C143 1.282 . S
H148 C121 0.931 . S
H149 C123 0.929 . S
H150 C124 0.930 . S
H151 C125 0.931 . S
H152 C132 0.932 . S
H153 C133 0.930 . S
H154 C134 0.929 . S
H155 C136 0.930 . S
H156 C138 0.932 . S
H157 C139 0.929 . S
H158 C140 0.928 . S
H159 C142 0.932 . S
C160 C161 1.264 . S
C160 C165 1.479 . S
C160 C170 1.465 . S
C161 C160 1.264 . S
C161 C163 1.339 . S
C161 H188 0.931 . S
C162 C163 1.395 . S
C162 C164 1.320 . S
C163 C161 1.339 . S
C163 C162 1.395 . S
C163 H189 0.929 . S
C164 C162 1.320 . S
C164 C165 1.405 . S
C164 H190 0.930 . S
C165 C160 1.479 . S
C165 C164 1.405 . S
C165 H191 0.931 . S
U166 O167 2.454 . S
U166 O168 2.458 . S
U166 C169 2.984 . S
U166 C170 2.847 . S
U166 C183 2.882 . S
U166 O184 2.441 . S
U166 O185 2.420 . S
U166 O186 2.455 . S
U166 O187 2.449 . S
O167 U166 2.454 . S
O167 C169 1.353 . S
O168 U166 2.458 . S
O168 C169 1.286 . S
C169 U166 2.984 . S
C169 O167 1.353 . S
C169 O168 1.286 . S
C169 C171 1.363 . S
C170 C160 1.465 . S
C170 U166 2.847 . S
C170 O184 1.249 . S
C170 O185 1.202 . S
C171 C169 1.363 . S
C171 C173 1.408 . S
C171 C176 1.342 . S
C172 C173 1.310 . S
C172 C175 1.461 . S
C172 H192 0.932 . S
C173 C171 1.408 . S
C173 C172 1.310 . S
C173 H193 0.930 . S
C174 C175 1.474 . S
C174 C176 1.285 . S
C174 H194 0.929 . S
C175 C172 1.461 . S
C175 C174 1.474 . S
C176 C171 1.342 . S
C176 C174 1.285 . S
C176 H195 0.930 . S
C177 C180 1.424 . S
C177 C182 1.245 . S
C177 C183 1.428 . S
C178 C181 1.260 . S
C178 C182 1.477 . S
C178 H196 0.932 . S
C179 C180 1.384 . S
C179 C181 1.479 . S
C179 H197 0.929 . S
C180 C177 1.424 . S
C180 C179 1.384 . S
C180 H198 0.928 . S
C181 C178 1.260 . S
C181 C179 1.479 . S
C182 C177 1.245 . S
C182 C178 1.477 . S
C182 H199 0.932 . S
C183 U166 2.882 . S
C183 C177 1.428 . S
C183 O186 1.301 . S
C183 O187 1.282 . S
O184 U166 2.441 . S
O184 C170 1.249 . S
O185 U166 2.420 . S
O185 C170 1.202 . S
O186 U166 2.455 . S
O186 C183 1.301 . S
O187 U166 2.449 . S
O187 C183 1.282 . S
H188 C161 0.931 . S
H189 C163 0.929 . S
H190 C164 0.930 . S
H191 C165 0.931 . S
H192 C172 0.932 . S
H193 C173 0.930 . S
H194 C174 0.929 . S
H195 C176 0.930 . S
H196 C178 0.932 . S
H197 C179 0.929 . S
H198 C180 0.928 . S
H199 C182 0.932 . S
C200 C201 1.264 . S
C200 C205 1.479 . S
C200 C210 1.465 . S
C201 C200 1.264 . S
C201 C203 1.339 . S
C201 H228 0.931 . S
C202 C203 1.395 . S
C202 C204 1.320 . S
C203 C201 1.339 . S
C203 C202 1.395 . S
C203 H229 0.929 . S
C204 C202 1.320 . S
C204 C205 1.405 . S
C204 H230 0.930 . S
C205 C200 1.479 . S
C205 C204 1.405 . S
C205 H231 0.931 . S
U206 O207 2.454 . S
U206 O208 2.458 . S
U206 C209 2.984 . S
U206 C210 2.847 . S
U206 C223 2.882 . S
U206 O224 2.441 . S
U206 O225 2.420 . S
U206 O226 2.455 . S
U206 O227 2.449 . S
O207 U206 2.454 . S
O207 C209 1.353 . S
O208 U206 2.458 . S
O208 C209 1.286 . S
C209 U206 2.984 . S
C209 O207 1.353 . S
C209 O208 1.286 . S
C209 C211 1.363 . S
C210 C200 1.465 . S
C210 U206 2.847 . S
C210 O224 1.249 . S
C210 O225 1.202 . S
C211 C209 1.363 . S
C211 C213 1.408 . S
C211 C216 1.342 . S
C212 C213 1.310 . S
C212 C215 1.461 . S
C212 H232 0.932 . S
C213 C211 1.408 . S
C213 C212 1.310 . S
C213 H233 0.930 . S
C214 C215 1.474 . S
C214 C216 1.285 . S
C214 H234 0.929 . S
C215 C212 1.461 . S
C215 C214 1.474 . S
C216 C211 1.342 . S
C216 C214 1.285 . S
C216 H235 0.930 . S
C217 C220 1.424 . S
C217 C222 1.245 . S
C217 C223 1.428 . S
C218 C221 1.260 . S
C218 C222 1.477 . S
C218 H236 0.932 . S
C219 C220 1.384 . S
C219 C221 1.479 . S
C219 H237 0.929 . S
C220 C217 1.424 . S
C220 C219 1.384 . S
C220 H238 0.928 . S
C221 C218 1.260 . S
C221 C219 1.479 . S
C222 C217 1.245 . S
C222 C218 1.477 . S
C222 H239 0.932 . S
C223 U206 2.882 . S
C223 C217 1.428 . S
C223 O226 1.301 . S
C223 O227 1.282 . S
O224 U206 2.441 . S
O224 C210 1.249 . S
O225 U206 2.420 . S
O225 C210 1.202 . S
O226 U206 2.455 . S
O226 C223 1.301 . S
O227 U206 2.449 . S
O227 C223 1.282 . S
H228 C201 0.931 . S
H229 C203 0.929 . S
H230 C204 0.930 . S
H231 C205 0.931 . S
H232 C212 0.932 . S
H233 C213 0.930 . S
H234 C214 0.929 . S
H235 C216 0.930 . S
H236 C218 0.932 . S
H237 C219 0.929 . S
H238 C220 0.928 . S
H239 C222 0.932 . S
C240 C241 1.264 . S
C240 C245 1.479 . S
C240 C250 1.465 . S
C241 C240 1.264 . S
C241 C243 1.339 . S
C241 H268 0.931 . S
C242 C243 1.395 . S
C242 C244 1.320 . S
C243 C241 1.339 . S
C243 C242 1.395 . S
C243 H269 0.929 . S
C244 C242 1.320 . S
C244 C245 1.405 . S
C244 H270 0.930 . S
C245 C240 1.479 . S
C245 C244 1.405 . S
C245 H271 0.931 . S
U246 O247 2.454 . S
U246 O248 2.458 . S
U246 C249 2.984 . S
U246 C250 2.847 . S
U246 C263 2.882 . S
U246 O264 2.441 . S
U246 O265 2.420 . S
U246 O266 2.455 . S
U246 O267 2.449 . S
O247 U246 2.454 . S
O247 C249 1.353 . S
O248 U246 2.458 . S
O248 C249 1.286 . S
C249 U246 2.984 . S
C249 O247 1.353 . S
C249 O248 1.286 . S
C249 C251 1.363 . S
C250 C240 1.465 . S
C250 U246 2.847 . S
C250 O264 1.249 . S
C250 O265 1.202 . S
C251 C249 1.363 . S
C251 C253 1.408 . S
C251 C256 1.342 . S
C252 C253 1.310 . S
C252 C255 1.461 . S
C252 H272 0.932 . S
C253 C251 1.408 . S
C253 C252 1.310 . S
C253 H273 0.930 . S
C254 C255 1.474 . S
C254 C256 1.285 . S
C254 H274 0.929 . S
C255 C252 1.461 . S
C255 C254 1.474 . S
C256 C251 1.342 . S
C256 C254 1.285 . S
C256 H275 0.930 . S
C257 C260 1.424 . S
C257 C262 1.245 . S
C257 C263 1.428 . S
C258 C261 1.260 . S
C258 C262 1.477 . S
C258 H276 0.932 . S
C259 C260 1.384 . S
C259 C261 1.479 . S
C259 H277 0.929 . S
C260 C257 1.424 . S
C260 C259 1.384 . S
C260 H278 0.928 . S
C261 C258 1.260 . S
C261 C259 1.479 . S
C262 C257 1.245 . S
C262 C258 1.477 . S
C262 H279 0.932 . S
C263 U246 2.882 . S
C263 C257 1.428 . S
C263 O266 1.301 . S
C263 O267 1.282 . S
O264 U246 2.441 . S
O264 C250 1.249 . S
O265 U246 2.420 . S
O265 C250 1.202 . S
O266 U246 2.455 . S
O266 C263 1.301 . S
O267 U246 2.449 . S
O267 C263 1.282 . S
H268 C241 0.931 . S
H269 C243 0.929 . S
H270 C244 0.930 . S
H271 C245 0.931 . S
H272 C252 0.932 . S
H273 C253 0.930 . S
H274 C254 0.929 . S
H275 C256 0.930 . S
H276 C258 0.932 . S
H277 C259 0.929 . S
H278 C260 0.928 . S
H279 C262 0.932 . S
C280 C281 1.264 . S
C280 C285 1.479 . S
C280 C290 1.465 . S
C281 C280 1.264 . S
C281 C283 1.339 . S
C281 H308 0.931 . S
C282 C283 1.395 . S
C282 C284 1.320 . S
C283 C281 1.339 . S
C283 C282 1.395 . S
C283 H309 0.929 . S
C284 C282 1.320 . S
C284 C285 1.405 . S
C284 H310 0.930 . S
C285 C280 1.479 . S
C285 C284 1.405 . S
C285 H311 0.931 . S
U286 O287 2.454 . S
U286 O288 2.458 . S
U286 C289 2.984 . S
U286 C290 2.847 . S
U286 C303 2.882 . S
U286 O304 2.441 . S
U286 O305 2.420 . S
U286 O306 2.455 . S
U286 O307 2.449 . S
O287 U286 2.454 . S
O287 C289 1.353 . S
O288 U286 2.458 . S
O288 C289 1.286 . S
C289 U286 2.984 . S
C289 O287 1.353 . S
C289 O288 1.286 . S
C289 C291 1.363 . S
C290 C280 1.465 . S
C290 U286 2.847 . S
C290 O304 1.249 . S
C290 O305 1.202 . S
C291 C289 1.363 . S
C291 C293 1.408 . S
C291 C296 1.342 . S
C292 C293 1.310 . S
C292 C295 1.461 . S
C292 H312 0.932 . S
C293 C291 1.408 . S
C293 C292 1.310 . S
C293 H313 0.930 . S
C294 C295 1.474 . S
C294 C296 1.285 . S
C294 H314 0.929 . S
C295 C292 1.461 . S
C295 C294 1.474 . S
C296 C291 1.342 . S
C296 C294 1.285 . S
C296 H315 0.930 . S
C297 C300 1.424 . S
C297 C302 1.245 . S
C297 C303 1.428 . S
C298 C301 1.260 . S
C298 C302 1.477 . S
C298 H316 0.932 . S
C299 C300 1.384 . S
C299 C301 1.479 . S
C299 H317 0.929 . S
C300 C297 1.424 . S
C300 C299 1.384 . S
C300 H318 0.928 . S
C301 C298 1.260 . S
C301 C299 1.479 . S
C302 C297 1.245 . S
C302 C298 1.477 . S
C302 H319 0.932 . S
C303 U286 2.882 . S
C303 C297 1.428 . S
C303 O306 1.301 . S
C303 O307 1.282 . S
O304 U286 2.441 . S
O304 C290 1.249 . S
O305 U286 2.420 . S
O305 C290 1.202 . S
O306 U286 2.455 . S
O306 C303 1.301 . S
O307 U286 2.449 . S
O307 C303 1.282 . S
H308 C281 0.931 . S
H309 C283 0.929 . S
H310 C284 0.930 . S
H311 C285 0.931 . S
H312 C292 0.932 . S
H313 C293 0.930 . S
H314 C294 0.929 . S
H315 C296 0.930 . S
H316 C298 0.932 . S
H317 C299 0.929 . S
H318 C300 0.928 . S
H319 C302 0.932 . S
H320 C326 0.930 . S
H321 C329 0.931 . S
H322 C331 0.931 . S
H323 C333 0.930 . S
H324 C335 0.930 . S
H325 C337 0.931 . S
C326 H320 0.930 . S
C326 C327 1.380 . S
C326 C328 1.394 1_455 S
C327 C326 1.380 . S
C327 C331 1.382 . S
C328 C326 1.394 1_655 S
C328 C329 1.400 . S
C329 H321 0.931 . S
C329 C328 1.400 . S
C329 C330 1.375 1_655 S
C330 C329 1.375 1_455 S
C330 C331 1.415 . S
C330 C332 1.501 . S
C331 H322 0.931 . S
C331 C327 1.382 . S
C331 C330 1.415 . S
C332 C330 1.501 . S
C332 C333 1.384 . S
C332 C337 1.408 1_455 S
C333 H323 0.930 . S
C333 C332 1.384 . S
C333 C334 1.389 . S
C334 C333 1.389 . S
C334 C335 1.405 . S
C335 H324 0.930 . S
C335 C334 1.405 . S
C335 C336 1.364 1_455 S
C336 C335 1.364 1_655 S
C336 C337 1.400 . S
C337 H325 0.931 . S
C337 C332 1.408 1_655 S
C337 C336 1.400 . S
H338 C344 0.930 . S
H339 C347 0.931 . S
H340 C349 0.931 . S
H341 C351 0.930 . S
H342 C353 0.930 . S
H343 C355 0.931 . S
C344 H338 0.930 . S
C344 C345 1.380 1_455 S
C344 C346 1.394 . S
C345 C344 1.380 1_655 S
C345 C349 1.382 . S
C346 C344 1.394 . S
C346 C347 1.400 . S
C347 H339 0.931 . S
C347 C346 1.400 . S
C347 C348 1.375 . S
C348 C347 1.375 . S
C348 C349 1.415 1_455 S
C348 C350 1.501 . S
C349 H340 0.931 . S
C349 C345 1.382 . S
C349 C348 1.415 1_655 S
C350 C348 1.501 . S
C350 C351 1.384 1_455 S
C350 C355 1.408 . S
C351 H341 0.930 . S
C351 C350 1.384 1_655 S
C351 C352 1.389 . S
C352 C351 1.389 . S
C352 C353 1.405 1_655 S
C353 H342 0.930 . S
C353 C352 1.405 1_455 S
C353 C354 1.364 . S
C354 C353 1.364 . S
C354 C355 1.400 . S
C355 H343 0.931 . S
C355 C350 1.408 . S
C355 C354 1.400 . S
H356 C362 0.930 . S
H357 C365 0.931 . S
H358 C367 0.931 . S
H359 C369 0.930 . S
H360 C371 0.930 . S
H361 C373 0.931 . S
C362 H356 0.930 . S
C362 C363 1.380 . S
C362 C364 1.394 . S
C363 C362 1.380 . S
C363 C367 1.382 . S
C364 C362 1.394 . S
C364 C365 1.400 . S
C365 H357 0.931 . S
C365 C364 1.400 . S
C365 C366 1.375 . S
C366 C365 1.375 . S
C366 C367 1.415 . S
C366 C368 1.501 1_545 S
C367 H358 0.931 . S
C367 C363 1.382 . S
C367 C366 1.415 . S
C368 C366 1.501 1_565 S
C368 C369 1.384 . S
C368 C373 1.408 . S
C369 H359 0.930 . S
C369 C368 1.384 . S
C369 C370 1.389 . S
C370 C369 1.389 . S
C370 C371 1.405 . S
C371 H360 0.930 . S
C371 C370 1.405 . S
C371 C372 1.364 . S
C372 C371 1.364 . S
C372 C373 1.400 . S
C373 H361 0.931 . S
C373 C368 1.408 . S
C373 C372 1.400 . S
H374 C380 0.930 . S
H375 C383 0.931 . S
H376 C385 0.931 . S
H377 C387 0.930 . S
H378 C389 0.930 . S
H379 C391 0.931 . S
C380 H374 0.930 . S
C380 C381 1.380 . S
C380 C382 1.394 . S
C381 C380 1.380 . S
C381 C385 1.382 . S
C382 C380 1.394 . S
C382 C383 1.400 . S
C383 H375 0.931 . S
C383 C382 1.400 . S
C383 C384 1.375 . S
C384 C383 1.375 . S
C384 C385 1.415 . S
C384 C386 1.501 1_554 S
C385 H376 0.931 . S
C385 C381 1.382 . S
C385 C384 1.415 . S
C386 C384 1.501 1_556 S
C386 C387 1.384 . S
C386 C391 1.408 . S
C387 H377 0.930 . S
C387 C386 1.384 . S
C387 C388 1.389 . S
C388 C387 1.389 . S
C388 C389 1.405 . S
C389 H378 0.930 . S
C389 C388 1.405 . S
C389 C390 1.364 . S
C390 C389 1.364 . S
C390 C391 1.400 . S
C391 H379 0.931 . S
C391 C386 1.408 . S
C391 C390 1.400 . S
H392 C398 0.930 . S
H393 C401 0.931 . S
H394 C403 0.931 . S
H395 C405 0.930 . S
H396 C407 0.930 . S
H397 C409 0.931 . S
C398 H392 0.930 . S
C398 C399 1.380 . S
C398 C400 1.394 . S
C399 C398 1.380 . S
C399 C403 1.382 . S
C400 C398 1.394 . S
C400 C401 1.400 . S
C401 H393 0.931 . S
C401 C400 1.400 . S
C401 C402 1.375 . S
C402 C401 1.375 . S
C402 C403 1.415 . S
C402 C404 1.501 1_545 S
C403 H394 0.931 . S
C403 C399 1.382 . S
C403 C402 1.415 . S
C404 C402 1.501 1_565 S
C404 C405 1.384 . S
C404 C409 1.408 . S
C405 H395 0.930 . S
C405 C404 1.384 . S
C405 C406 1.389 . S
C406 C405 1.389 . S
C406 C407 1.405 . S
C407 H396 0.930 . S
C407 C406 1.405 . S
C407 C408 1.364 . S
C408 C407 1.364 . S
C408 C409 1.400 . S
C409 H397 0.931 . S
C409 C404 1.408 . S
C409 C408 1.400 . S
H410 C416 0.930 . S
H411 C419 0.931 . S
H412 C421 0.931 . S
H413 C423 0.930 . S
H414 C425 0.930 . S
H415 C427 0.931 . S
C416 H410 0.930 . S
C416 C417 1.380 . S
C416 C418 1.394 . S
C417 C416 1.380 . S
C417 C421 1.382 . S
C418 C416 1.394 . S
C418 C419 1.400 . S
C419 H411 0.931 . S
C419 C418 1.400 . S
C419 C420 1.375 . S
C420 C419 1.375 . S
C420 C421 1.415 . S
C420 C422 1.501 1_554 S
C421 H412 0.931 . S
C421 C417 1.382 . S
C421 C420 1.415 . S
C422 C420 1.501 1_556 S
C422 C423 1.384 . S
C422 C427 1.408 . S
C423 H413 0.930 . S
C423 C422 1.384 . S
C423 C424 1.389 . S
C424 C423 1.389 . S
C424 C425 1.405 . S
C425 H414 0.930 . S
C425 C424 1.405 . S
C425 C426 1.364 . S
C426 C425 1.364 . S
C426 C427 1.400 . S
C427 H415 0.931 . S
C427 C422 1.408 . S
C427 C426 1.400 . S
H428 C446 0.951 . S
H429 C448 0.951 . S
H430 C450 0.950 . S
H431 C451 0.950 . S
H432 C453 0.950 . S
H433 C456 0.950 . S
H434 C457 0.950 . S
H435 C459 0.950 . S
H436 C460 0.950 . S
H437 C461 0.951 . S
H438 C463 0.951 . S
H439 C465 0.950 . S
H440 C466 0.950 . S
H441 C468 0.950 . S
H442 C471 0.950 . S
H443 C472 0.950 . S
H444 C474 0.950 . S
H445 C475 0.950 . S
C446 H428 0.951 . S
C446 C447 1.366 . S
C446 C448 1.388 . S
C447 C446 1.366 . S
C447 C451 1.385 . S
C448 H429 0.951 . S
C448 C446 1.388 . S
C448 C449 1.366 . S
C449 C448 1.366 . S
C449 C450 1.414 . S
C449 C452 1.499 . S
C450 H430 0.950 . S
C450 C449 1.414 . S
C450 C451 1.374 . S
C451 H431 0.950 . S
C451 C447 1.385 . S
C451 C450 1.374 . S
C452 C449 1.499 . S
C452 C453 1.373 . S
C452 C454 1.389 . S
C453 H432 0.950 . S
C453 C452 1.373 . S
C453 C469 1.377 . S
C454 C452 1.389 . S
C454 C455 1.524 . S
C454 C468 1.377 . S
C455 C454 1.524 . S
C455 C456 1.397 . S
C455 C460 1.363 . S
C456 H433 0.950 . S
C456 C455 1.397 . S
C456 C457 1.334 . S
C457 H434 0.950 . S
C457 C456 1.334 . S
C457 C458 1.287 . S
C458 C457 1.287 . S
C458 C459 1.524 . S
C458 H477 0.913 . S
C459 H435 0.950 . S
C459 C458 1.524 . S
C459 C460 1.415 . S
C460 H436 0.950 . S
C460 C455 1.363 . S
C460 C459 1.415 . S
C461 H437 0.951 . S
C461 C462 1.366 . S
C461 C463 1.388 . S
C462 C461 1.366 . S
C462 C466 1.385 . S
C463 H438 0.951 . S
C463 C461 1.388 . S
C463 C464 1.366 . S
C464 C463 1.366 . S
C464 C465 1.414 . S
C464 C467 1.499 . S
C465 H439 0.950 . S
C465 C464 1.414 . S
C465 C466 1.374 . S
C466 H440 0.950 . S
C466 C462 1.385 . S
C466 C465 1.374 . S
C467 C464 1.499 . S
C467 C468 1.373 . S
C467 C469 1.389 . S
C468 H441 0.950 . S
C468 C454 1.377 . S
C468 C467 1.373 . S
C469 C453 1.377 . S
C469 C467 1.389 . S
C469 C470 1.524 . S
C470 C469 1.524 . S
C470 C471 1.397 . S
C470 C475 1.363 . S
C471 H442 0.950 . S
C471 C470 1.397 . S
C471 C472 1.334 . S
C472 H443 0.950 . S
C472 C471 1.334 . S
C472 C473 1.287 . S
C473 C472 1.287 . S
C473 C474 1.524 . S
C473 H476 0.999 . S
C474 H444 0.950 . S
C474 C473 1.524 . S
C474 C475 1.415 . S
C475 H445 0.950 . S
C475 C470 1.363 . S
C475 C474 1.415 . S
H476 C473 0.999 . S
H477 C458 0.913 . S
H478 C496 0.951 . S
H479 C498 0.951 . S
H480 C500 0.950 . S
H481 C501 0.950 . S
H482 C503 0.950 . S
H483 C506 0.950 . S
H484 C507 0.950 . S
H485 C509 0.950 . S
H486 C510 0.950 . S
H487 C511 0.951 . S
H488 C513 0.951 . S
H489 C515 0.950 . S
H490 C516 0.950 . S
H491 C518 0.950 . S
H492 C521 0.950 . S
H493 C522 0.950 . S
H494 C524 0.950 . S
H495 C525 0.950 . S
C496 H478 0.951 . S
C496 C497 1.366 . S
C496 C498 1.388 . S
C497 C496 1.366 . S
C497 C501 1.385 . S
C498 H479 0.951 . S
C498 C496 1.388 . S
C498 C499 1.366 . S
C499 C498 1.366 . S
C499 C500 1.414 . S
C499 C502 1.499 . S
C500 H480 0.950 . S
C500 C499 1.414 . S
C500 C501 1.374 . S
C501 H481 0.950 . S
C501 C497 1.385 . S
C501 C500 1.374 . S
C502 C499 1.499 . S
C502 C503 1.373 . S
C502 C504 1.389 . S
C503 H482 0.950 . S
C503 C502 1.373 . S
C503 C519 1.377 . S
C504 C502 1.389 . S
C504 C505 1.524 . S
C504 C518 1.377 . S
C505 C504 1.524 . S
C505 C506 1.397 . S
C505 C510 1.363 . S
C506 H483 0.950 . S
C506 C505 1.397 . S
C506 C507 1.334 . S
C507 H484 0.950 . S
C507 C506 1.334 . S
C507 C508 1.287 . S
C508 C507 1.287 . S
C508 C509 1.524 . S
C508 H527 0.913 . S
C509 H485 0.950 . S
C509 C508 1.524 . S
C509 C510 1.415 . S
C510 H486 0.950 . S
C510 C505 1.363 . S
C510 C509 1.415 . S
C511 H487 0.951 . S
C511 C512 1.366 . S
C511 C513 1.388 . S
C512 C511 1.366 . S
C512 C516 1.385 . S
C513 H488 0.951 . S
C513 C511 1.388 . S
C513 C514 1.366 . S
C514 C513 1.366 . S
C514 C515 1.414 . S
C514 C517 1.499 . S
C515 H489 0.950 . S
C515 C514 1.414 . S
C515 C516 1.374 . S
C516 H490 0.950 . S
C516 C512 1.385 . S
C516 C515 1.374 . S
C517 C514 1.499 . S
C517 C518 1.373 . S
C517 C519 1.389 . S
C518 H491 0.950 . S
C518 C504 1.377 . S
C518 C517 1.373 . S
C519 C503 1.377 . S
C519 C517 1.389 . S
C519 C520 1.524 . S
C520 C519 1.524 . S
C520 C521 1.397 . S
C520 C525 1.363 . S
C521 H492 0.950 . S
C521 C520 1.397 . S
C521 C522 1.334 . S
C522 H493 0.950 . S
C522 C521 1.334 . S
C522 C523 1.287 . S
C523 C522 1.287 . S
C523 C524 1.524 . S
C523 H526 0.999 . S
C524 H494 0.950 . S
C524 C523 1.524 . S
C524 C525 1.415 . S
C525 H495 0.950 . S
C525 C520 1.363 . S
C525 C524 1.415 . S
H526 C523 0.999 . S
H527 C508 0.913 . S
H528 C546 0.951 . S
H529 C548 0.951 . S
H530 C550 0.950 . S
H531 C551 0.950 . S
H532 C553 0.950 . S
H533 C556 0.950 . S
H534 C557 0.950 . S
H535 C559 0.950 . S
H536 C560 0.950 . S
H537 C561 0.951 . S
H538 C563 0.951 . S
H539 C565 0.950 . S
H540 C566 0.950 . S
H541 C568 0.950 . S
H542 C571 0.950 . S
H543 C572 0.950 . S
H544 C574 0.950 . S
H545 C575 0.950 . S
C546 H528 0.951 . S
C546 C547 1.366 . S
C546 C548 1.388 . S
C547 C546 1.366 . S
C547 C551 1.385 . S
C548 H529 0.951 . S
C548 C546 1.388 . S
C548 C549 1.366 . S
C549 C548 1.366 . S
C549 C550 1.414 . S
C549 C552 1.499 . S
C550 H530 0.950 . S
C550 C549 1.414 . S
C550 C551 1.374 . S
C551 H531 0.950 . S
C551 C547 1.385 . S
C551 C550 1.374 . S
C552 C549 1.499 . S
C552 C553 1.373 . S
C552 C554 1.389 . S
C553 H532 0.950 . S
C553 C552 1.373 . S
C553 C569 1.377 . S
C554 C552 1.389 . S
C554 C555 1.524 . S
C554 C568 1.377 . S
C555 C554 1.524 . S
C555 C556 1.397 . S
C555 C560 1.363 . S
C556 H533 0.950 . S
C556 C555 1.397 . S
C556 C557 1.334 . S
C557 H534 0.950 . S
C557 C556 1.334 . S
C557 C558 1.287 . S
C558 C557 1.287 . S
C558 C559 1.524 . S
C558 H577 0.913 . S
C559 H535 0.950 . S
C559 C558 1.524 . S
C559 C560 1.415 . S
C560 H536 0.950 . S
C560 C555 1.363 . S
C560 C559 1.415 . S
C561 H537 0.951 . S
C561 C562 1.366 . S
C561 C563 1.388 . S
C562 C561 1.366 . S
C562 C566 1.385 . S
C563 H538 0.951 . S
C563 C561 1.388 . S
C563 C564 1.366 . S
C564 C563 1.366 . S
C564 C565 1.414 . S
C564 C567 1.499 . S
C565 H539 0.950 . S
C565 C564 1.414 . S
C565 C566 1.374 . S
C566 H540 0.950 . S
C566 C562 1.385 . S
C566 C565 1.374 . S
C567 C564 1.499 . S
C567 C568 1.373 . S
C567 C569 1.389 . S
C568 H541 0.950 . S
C568 C554 1.377 . S
C568 C567 1.373 . S
C569 C553 1.377 . S
C569 C567 1.389 . S
C569 C570 1.524 . S
C570 C569 1.524 . S
C570 C571 1.397 . S
C570 C575 1.363 . S
C571 H542 0.950 . S
C571 C570 1.397 . S
C571 C572 1.334 . S
C572 H543 0.950 . S
C572 C571 1.334 . S
C572 C573 1.287 . S
C573 C572 1.287 . S
C573 C574 1.524 . S
C573 H576 0.999 . S
C574 H544 0.950 . S
C574 C573 1.524 . S
C574 C575 1.415 . S
C575 H545 0.950 . S
C575 C570 1.363 . S
C575 C574 1.415 . S
H576 C573 0.999 . S
H577 C558 0.913 . S
H578 C596 0.951 . S
H579 C598 0.951 . S
H580 C600 0.950 . S
H581 C601 0.950 . S
H582 C603 0.950 . S
H583 C606 0.950 . S
H584 C607 0.950 . S
H585 C609 0.950 . S
H586 C610 0.950 . S
H587 C611 0.951 . S
H588 C613 0.951 . S
H589 C615 0.950 . S
H590 C616 0.950 . S
H591 C618 0.950 . S
H592 C621 0.950 . S
H593 C622 0.950 . S
H594 C624 0.939 1_455 S
H595 C625 0.950 . S
C596 H578 0.951 . S
C596 C597 1.366 . S
C596 C598 1.388 . S
C597 C596 1.366 . S
C597 C601 1.385 . S
C598 H579 0.951 . S
C598 C596 1.388 . S
C598 C599 1.366 . S
C599 C598 1.366 . S
C599 C600 1.414 . S
C599 C602 1.499 . S
C600 H580 0.950 . S
C600 C599 1.414 . S
C600 C601 1.374 . S
C601 H581 0.950 . S
C601 C597 1.385 . S
C601 C600 1.374 . S
C602 C599 1.499 . S
C602 C603 1.373 . S
C602 C604 1.389 . S
C603 H582 0.950 . S
C603 C602 1.373 . S
C603 C619 1.377 . S
C604 C602 1.389 . S
C604 C605 1.524 . S
C604 C618 1.377 . S
C605 C604 1.524 . S
C605 C606 1.397 . S
C605 C610 1.363 . S
C606 H583 0.950 . S
C606 C605 1.397 . S
C606 C607 1.334 . S
C607 H584 0.950 . S
C607 C606 1.334 . S
C607 C608 1.287 . S
C608 C607 1.287 . S
C608 C609 1.524 . S
C608 H627 0.913 . S
C609 H585 0.950 . S
C609 C608 1.524 . S
C609 C610 1.415 . S
C610 H586 0.950 . S
C610 C605 1.363 . S
C610 C609 1.415 . S
C611 H587 0.951 . S
C611 C612 1.366 . S
C611 C613 1.388 . S
C612 C611 1.366 . S
C612 C616 1.385 . S
C613 H588 0.951 . S
C613 C611 1.388 . S
C613 C614 1.366 . S
C614 C613 1.366 . S
C614 C615 1.414 . S
C614 C617 1.499 . S
C615 H589 0.950 . S
C615 C614 1.414 . S
C615 C616 1.374 . S
C616 H590 0.950 . S
C616 C612 1.385 . S
C616 C615 1.374 . S
C617 C614 1.499 . S
C617 C618 1.373 . S
C617 C619 1.389 . S
C618 H591 0.950 . S
C618 C604 1.377 . S
C618 C617 1.373 . S
C619 C603 1.377 . S
C619 C617 1.389 . S
C619 C620 1.524 . S
C620 C619 1.524 . S
C620 C621 1.397 . S
C620 C625 1.363 . S
C621 H592 0.950 . S
C621 C620 1.397 . S
C621 C622 1.334 . S
C622 H593 0.950 . S
C622 C621 1.334 . S
C622 C623 1.287 1_655 S
C623 C622 1.287 1_455 S
C623 C624 1.522 1_455 S
C623 H626 0.999 . S
C624 H594 0.939 1_655 S
C624 C623 1.522 1_655 S
C624 C625 1.430 . S
C625 H595 0.950 . S
C625 C620 1.363 . S
C625 C624 1.430 . S
H626 C623 0.999 . S
H627 C608 0.913 . S
H628 C646 0.951 . S
H629 C648 0.951 . S
H630 C650 0.950 . S
H631 C651 0.950 . S
H632 C653 0.950 . S
H633 C656 0.950 . S
H634 C657 0.950 . S
H635 C659 0.950 . S
H636 C660 0.950 . S
H637 C661 0.951 . S
H638 C663 0.951 . S
H639 C665 0.950 . S
H640 C666 0.950 . S
H641 C668 0.950 . S
H642 C671 0.950 . S
H643 C672 0.950 . S
H644 C674 0.950 . S
H645 C675 0.950 . S
C646 H628 0.951 . S
C646 C647 1.366 . S
C646 C648 1.388 . S
C647 C646 1.366 . S
C647 C651 1.385 . S
C648 H629 0.951 . S
C648 C646 1.388 . S
C648 C649 1.366 . S
C649 C648 1.366 . S
C649 C650 1.414 . S
C649 C652 1.499 . S
C650 H630 0.950 . S
C650 C649 1.414 . S
C650 C651 1.374 . S
C651 H631 0.950 . S
C651 C647 1.385 . S
C651 C650 1.374 . S
C652 C649 1.499 . S
C652 C653 1.373 . S
C652 C654 1.389 . S
C653 H632 0.950 . S
C653 C652 1.373 . S
C653 C669 1.377 . S
C654 C652 1.389 . S
C654 C655 1.524 . S
C654 C668 1.377 . S
C655 C654 1.524 . S
C655 C656 1.397 . S
C655 C660 1.363 . S
C656 H633 0.950 . S
C656 C655 1.397 . S
C656 C657 1.334 . S
C657 H634 0.950 . S
C657 C656 1.334 . S
C657 C658 1.287 . S
C658 C657 1.287 . S
C658 C659 1.524 . S
C658 H677 0.913 . S
C659 H635 0.950 . S
C659 C658 1.524 . S
C659 C660 1.415 . S
C660 H636 0.950 . S
C660 C655 1.363 . S
C660 C659 1.415 . S
C661 H637 0.951 . S
C661 C662 1.366 . S
C661 C663 1.388 . S
C662 C661 1.366 . S
C662 C666 1.385 . S
C663 H638 0.951 . S
C663 C661 1.388 . S
C663 C664 1.366 . S
C664 C663 1.366 . S
C664 C665 1.414 . S
C664 C667 1.499 . S
C665 H639 0.950 . S
C665 C664 1.414 . S
C665 C666 1.374 . S
C666 H640 0.950 . S
C666 C662 1.385 . S
C666 C665 1.374 . S
C667 C664 1.499 . S
C667 C668 1.373 . S
C667 C669 1.389 . S
C668 H641 0.950 . S
C668 C654 1.377 . S
C668 C667 1.373 . S
C669 C653 1.377 . S
C669 C667 1.389 . S
C669 C670 1.524 . S
C670 C669 1.524 . S
C670 C671 1.397 . S
C670 C675 1.363 . S
C671 H642 0.950 . S
C671 C670 1.397 . S
C671 C672 1.334 . S
C672 H643 0.950 . S
C672 C671 1.334 . S
C672 C673 1.287 . S
C673 C672 1.287 . S
C673 C674 1.524 . S
C673 H676 0.999 . S
C674 H644 0.950 . S
C674 C673 1.524 . S
C674 C675 1.415 . S
C675 H645 0.950 . S
C675 C670 1.363 . S
C675 C674 1.415 . S
H676 C673 0.999 . S
H677 C658 0.913 . S
H678 C696 0.951 . S
H679 C698 0.951 . S
H680 C700 0.950 . S
H681 C701 0.950 . S
H682 C703 0.950 . S
H683 C706 0.950 . S
H684 C707 0.950 . S
H685 C709 0.950 . S
H686 C710 0.950 . S
H687 C711 0.951 . S
H688 C713 0.951 . S
H689 C715 0.950 . S
H690 C716 0.950 . S
H691 C718 0.950 . S
H692 C721 0.950 . S
H693 C722 0.950 . S
H694 C724 0.950 . S
H695 C725 0.950 . S
C696 H678 0.951 . S
C696 C697 1.366 . S
C696 C698 1.388 . S
C697 C696 1.366 . S
C697 C701 1.385 . S
C698 H679 0.951 . S
C698 C696 1.388 . S
C698 C699 1.366 . S
C699 C698 1.366 . S
C699 C700 1.414 . S
C699 C702 1.499 . S
C700 H680 0.950 . S
C700 C699 1.414 . S
C700 C701 1.374 . S
C701 H681 0.950 . S
C701 C697 1.385 . S
C701 C700 1.374 . S
C702 C699 1.499 . S
C702 C703 1.373 . S
C702 C704 1.389 . S
C703 H682 0.950 . S
C703 C702 1.373 . S
C703 C719 1.377 . S
C704 C702 1.389 . S
C704 C705 1.524 . S
C704 C718 1.377 . S
C705 C704 1.524 . S
C705 C706 1.397 . S
C705 C710 1.363 . S
C706 H683 0.950 . S
C706 C705 1.397 . S
C706 C707 1.334 . S
C707 H684 0.950 . S
C707 C706 1.334 . S
C707 C708 1.287 . S
C708 C707 1.287 . S
C708 C709 1.524 . S
C708 H727 0.913 . S
C709 H685 0.950 . S
C709 C708 1.524 . S
C709 C710 1.415 . S
C710 H686 0.950 . S
C710 C705 1.363 . S
C710 C709 1.415 . S
C711 H687 0.951 . S
C711 C712 1.366 . S
C711 C713 1.388 . S
C712 C711 1.366 . S
C712 C716 1.385 . S
C713 H688 0.951 . S
C713 C711 1.388 . S
C713 C714 1.366 . S
C714 C713 1.366 . S
C714 C715 1.414 . S
C714 C717 1.499 . S
C715 H689 0.950 . S
C715 C714 1.414 . S
C715 C716 1.374 . S
C716 H690 0.950 . S
C716 C712 1.385 . S
C716 C715 1.374 . S
C717 C714 1.499 . S
C717 C718 1.373 . S
C717 C719 1.389 . S
C718 H691 0.950 . S
C718 C704 1.377 . S
C718 C717 1.373 . S
C719 C703 1.377 . S
C719 C717 1.389 . S
C719 C720 1.524 . S
C720 C719 1.524 . S
C720 C721 1.397 . S
C720 C725 1.363 . S
C721 H692 0.950 . S
C721 C720 1.397 . S
C721 C722 1.334 . S
C722 H693 0.950 . S
C722 C721 1.334 . S
C722 C723 1.287 . S
C723 C722 1.287 . S
C723 C724 1.524 . S
C723 H726 0.999 . S
C724 H694 0.950 . S
C724 C723 1.524 . S
C724 C725 1.415 . S
C725 H695 0.950 . S
C725 C720 1.363 . S
C725 C724 1.415 . S
H726 C723 0.999 . S
H727 C708 0.913 . S
H728 C746 0.951 . S
H729 C748 0.951 . S
H730 C750 0.950 . S
H731 C751 0.950 . S
H732 C753 0.950 . S
H733 C756 0.950 . S
H734 C757 0.950 . S
H735 C759 0.950 . S
H736 C760 0.950 . S
H737 C761 0.951 . S
H738 C763 0.951 . S
H739 C765 0.950 . S
H740 C766 0.950 . S
H741 C768 0.950 . S
H742 C771 0.950 . S
H743 C772 0.950 . S
H744 C774 0.950 . S
H745 C775 0.950 . S
C746 H728 0.951 . S
C746 C747 1.366 . S
C746 C748 1.388 . S
C747 C746 1.366 . S
C747 C751 1.385 . S
C748 H729 0.951 . S
C748 C746 1.388 . S
C748 C749 1.366 . S
C749 C748 1.366 . S
C749 C750 1.414 . S
C749 C752 1.499 . S
C750 H730 0.950 . S
C750 C749 1.414 . S
C750 C751 1.374 . S
C751 H731 0.950 . S
C751 C747 1.385 . S
C751 C750 1.374 . S
C752 C749 1.499 . S
C752 C753 1.373 . S
C752 C754 1.389 . S
C753 H732 0.950 . S
C753 C752 1.373 . S
C753 C769 1.377 . S
C754 C752 1.389 . S
C754 C755 1.524 . S
C754 C768 1.377 . S
C755 C754 1.524 . S
C755 C756 1.397 . S
C755 C760 1.363 . S
C756 H733 0.950 . S
C756 C755 1.397 . S
C756 C757 1.334 . S
C757 H734 0.950 . S
C757 C756 1.334 . S
C757 C758 1.287 . S
C758 C757 1.287 . S
C758 C759 1.524 . S
C758 H777 0.913 . S
C759 H735 0.950 . S
C759 C758 1.524 . S
C759 C760 1.415 . S
C760 H736 0.950 . S
C760 C755 1.363 . S
C760 C759 1.415 . S
C761 H737 0.951 . S
C761 C762 1.366 . S
C761 C763 1.388 . S
C762 C761 1.366 . S
C762 C766 1.385 . S
C763 H738 0.951 . S
C763 C761 1.388 . S
C763 C764 1.366 . S
C764 C763 1.366 . S
C764 C765 1.414 . S
C764 C767 1.499 . S
C765 H739 0.950 . S
C765 C764 1.414 . S
C765 C766 1.374 . S
C766 H740 0.950 . S
C766 C762 1.385 . S
C766 C765 1.374 . S
C767 C764 1.499 . S
C767 C768 1.373 . S
C767 C769 1.389 . S
C768 H741 0.950 . S
C768 C754 1.377 . S
C768 C767 1.373 . S
C769 C753 1.377 . S
C769 C767 1.389 . S
C769 C770 1.524 . S
C770 C769 1.524 . S
C770 C771 1.397 . S
C770 C775 1.363 . S
C771 H742 0.950 . S
C771 C770 1.397 . S
C771 C772 1.334 . S
C772 H743 0.950 . S
C772 C771 1.334 . S
C772 C773 1.287 . S
C773 C772 1.287 . S
C773 C774 1.524 . S
C773 H776 0.999 . S
C774 H744 0.950 . S
C774 C773 1.524 . S
C774 C775 1.415 . S
C775 H745 0.950 . S
C775 C770 1.363 . S
C775 C774 1.415 . S
H776 C773 0.999 . S
H777 C758 0.913 . S
H778 C796 0.951 . S
H779 C798 0.951 . S
H780 C800 0.950 . S
H781 C801 0.950 . S
H782 C803 0.950 . S
H783 C806 0.950 . S
H784 C807 0.950 . S
H785 C809 0.950 . S
H786 C810 0.950 . S
H787 C811 0.951 . S
H788 C813 0.951 . S
H789 C815 0.950 . S
H790 C816 0.950 . S
H791 C818 0.950 . S
H792 C821 0.950 . S
H793 C822 0.950 . S
H794 C824 0.950 . S
H795 C825 0.950 . S
C796 H778 0.951 . S
C796 C797 1.366 . S
C796 C798 1.388 . S
C797 C796 1.366 . S
C797 C801 1.385 . S
C798 H779 0.951 . S
C798 C796 1.388 . S
C798 C799 1.366 . S
C799 C798 1.366 . S
C799 C800 1.414 . S
C799 C802 1.499 . S
C800 H780 0.950 . S
C800 C799 1.414 . S
C800 C801 1.374 . S
C801 H781 0.950 . S
C801 C797 1.385 . S
C801 C800 1.374 . S
C802 C799 1.499 . S
C802 C803 1.373 . S
C802 C804 1.389 . S
C803 H782 0.950 . S
C803 C802 1.373 . S
C803 C819 1.377 . S
C804 C802 1.389 . S
C804 C805 1.524 . S
C804 C818 1.377 . S
C805 C804 1.524 . S
C805 C806 1.397 . S
C805 C810 1.363 . S
C806 H783 0.950 . S
C806 C805 1.397 . S
C806 C807 1.334 . S
C807 H784 0.950 . S
C807 C806 1.334 . S
C807 C808 1.287 . S
C808 C807 1.287 . S
C808 C809 1.524 . S
C808 H827 0.913 . S
C809 H785 0.950 . S
C809 C808 1.524 . S
C809 C810 1.415 . S
C810 H786 0.950 . S
C810 C805 1.363 . S
C810 C809 1.415 . S
C811 H787 0.951 . S
C811 C812 1.366 . S
C811 C813 1.388 . S
C812 C811 1.366 . S
C812 C816 1.385 . S
C813 H788 0.951 . S
C813 C811 1.388 . S
C813 C814 1.366 . S
C814 C813 1.366 . S
C814 C815 1.414 . S
C814 C817 1.499 . S
C815 H789 0.950 . S
C815 C814 1.414 . S
C815 C816 1.374 . S
C816 H790 0.950 . S
C816 C812 1.385 . S
C816 C815 1.374 . S
C817 C814 1.499 . S
C817 C818 1.373 . S
C817 C819 1.389 . S
C818 H791 0.950 . S
C818 C804 1.377 . S
C818 C817 1.373 . S
C819 C803 1.377 . S
C819 C817 1.389 . S
C819 C820 1.524 . S
C820 C819 1.524 . S
C820 C821 1.397 . S
C820 C825 1.363 . S
C821 H792 0.950 . S
C821 C820 1.397 . S
C821 C822 1.334 . S
C822 H793 0.950 . S
C822 C821 1.334 . S
C822 C823 1.287 . S
C823 C822 1.287 . S
C823 C824 1.524 . S
C823 H826 0.999 . S
C824 H794 0.950 . S
C824 C823 1.524 . S
C824 C825 1.415 . S
C825 H795 0.950 . S
C825 C820 1.363 . S
C825 C824 1.415 . S
H826 C823 0.999 . S
H827 C808 0.913 . S
H828 C846 0.951 . S
H829 C848 0.951 . S
H830 C850 0.950 . S
H831 C851 0.950 . S
H832 C853 0.950 . S
H833 C856 0.950 . S
H834 C857 0.950 . S
H835 C859 0.950 . S
H836 C860 0.950 . S
H837 C861 0.951 . S
H838 C863 0.951 . S
H839 C865 0.950 . S
H840 C866 0.950 . S
H841 C868 0.950 . S
H842 C871 0.950 . S
H843 C872 0.950 . S
H844 C874 0.950 . S
H845 C875 0.950 . S
C846 H828 0.951 . S
C846 C847 1.366 . S
C846 C848 1.388 . S
C847 C846 1.366 . S
C847 C851 1.385 . S
C848 H829 0.951 . S
C848 C846 1.388 . S
C848 C849 1.366 . S
C849 C848 1.366 . S
C849 C850 1.414 . S
C849 C852 1.499 . S
C850 H830 0.950 . S
C850 C849 1.414 . S
C850 C851 1.374 . S
C851 H831 0.950 . S
C851 C847 1.385 . S
C851 C850 1.374 . S
C852 C849 1.499 . S
C852 C853 1.373 . S
C852 C854 1.389 . S
C853 H832 0.950 . S
C853 C852 1.373 . S
C853 C869 1.377 . S
C854 C852 1.389 . S
C854 C855 1.524 . S
C854 C868 1.377 . S
C855 C854 1.524 . S
C855 C856 1.397 . S
C855 C860 1.363 . S
C856 H833 0.950 . S
C856 C855 1.397 . S
C856 C857 1.334 . S
C857 H834 0.950 . S
C857 C856 1.334 . S
C857 C858 1.287 . S
C858 C857 1.287 . S
C858 C859 1.524 . S
C858 H877 0.913 . S
C859 H835 0.950 . S
C859 C858 1.524 . S
C859 C860 1.415 . S
C860 H836 0.950 . S
C860 C855 1.363 . S
C860 C859 1.415 . S
C861 H837 0.951 . S
C861 C862 1.366 . S
C861 C863 1.388 . S
C862 C861 1.366 . S
C862 C866 1.385 . S
C863 H838 0.951 . S
C863 C861 1.388 . S
C863 C864 1.366 . S
C864 C863 1.366 . S
C864 C865 1.414 . S
C864 C867 1.499 . S
C865 H839 0.950 . S
C865 C864 1.414 . S
C865 C866 1.374 . S
C866 H840 0.950 . S
C866 C862 1.385 . S
C866 C865 1.374 . S
C867 C864 1.499 . S
C867 C868 1.373 . S
C867 C869 1.389 . S
C868 H841 0.950 . S
C868 C854 1.377 . S
C868 C867 1.373 . S
C869 C853 1.377 . S
C869 C867 1.389 . S
C869 C870 1.524 . S
C870 C869 1.524 . S
C870 C871 1.397 . S
C870 C875 1.363 . S
C871 H842 0.950 . S
C871 C870 1.397 . S
C871 C872 1.334 . S
C872 H843 0.950 . S
C872 C871 1.334 . S
C872 C873 1.287 . S
C873 C872 1.287 . S
C873 C874 1.524 . S
C873 H876 0.999 . S
C874 H844 0.950 . S
C874 C873 1.524 . S
C874 C875 1.415 . S
C875 H845 0.950 . S
C875 C870 1.363 . S
C875 C874 1.415 . S
H876 C873 0.999 . S
H877 C858 0.913 . S
H878 C896 0.951 . S
H879 C898 0.951 . S
H880 C900 0.950 . S
H881 C901 0.950 . S
H882 C903 0.950 . S
H883 C906 0.950 . S
H884 C907 0.950 . S
H885 C909 0.950 . S
H886 C910 0.950 . S
H887 C911 0.951 . S
H888 C913 0.951 . S
H889 C915 0.950 . S
H890 C916 0.950 . S
H891 C918 0.950 . S
H892 C921 0.950 . S
H893 C922 0.950 . S
H894 C924 0.950 . S
H895 C925 0.950 . S
C896 H878 0.951 . S
C896 C897 1.366 . S
C896 C898 1.388 . S
C897 C896 1.366 . S
C897 C901 1.385 . S
C898 H879 0.951 . S
C898 C896 1.388 . S
C898 C899 1.366 . S
C899 C898 1.366 . S
C899 C900 1.414 . S
C899 C902 1.499 . S
C900 H880 0.950 . S
C900 C899 1.414 . S
C900 C901 1.374 . S
C901 H881 0.950 . S
C901 C897 1.385 . S
C901 C900 1.374 . S
C902 C899 1.499 . S
C902 C903 1.373 . S
C902 C904 1.389 . S
C903 H882 0.950 . S
C903 C902 1.373 . S
C903 C919 1.377 . S
C904 C902 1.389 . S
C904 C905 1.524 . S
C904 C918 1.377 . S
C905 C904 1.524 . S
C905 C906 1.397 . S
C905 C910 1.363 . S
C906 H883 0.950 . S
C906 C905 1.397 . S
C906 C907 1.334 . S
C907 H884 0.950 . S
C907 C906 1.334 . S
C907 C908 1.287 . S
C908 C907 1.287 . S
C908 C909 1.524 . S
C908 H927 0.913 . S
C909 H885 0.950 . S
C909 C908 1.524 . S
C909 C910 1.415 . S
C910 H886 0.950 . S
C910 C905 1.363 . S
C910 C909 1.415 . S
C911 H887 0.951 . S
C911 C912 1.366 . S
C911 C913 1.388 . S
C912 C911 1.366 . S
C912 C916 1.385 . S
C913 H888 0.951 . S
C913 C911 1.388 . S
C913 C914 1.366 . S
C914 C913 1.366 . S
C914 C915 1.414 . S
C914 C917 1.499 . S
C915 H889 0.950 . S
C915 C914 1.414 . S
C915 C916 1.374 . S
C916 H890 0.950 . S
C916 C912 1.385 . S
C916 C915 1.374 . S
C917 C914 1.499 . S
C917 C918 1.373 . S
C917 C919 1.389 . S
C918 H891 0.950 . S
C918 C904 1.377 . S
C918 C917 1.373 . S
C919 C903 1.377 . S
C919 C917 1.389 . S
C919 C920 1.524 . S
C920 C919 1.524 . S
C920 C921 1.397 . S
C920 C925 1.363 . S
C921 H892 0.950 . S
C921 C920 1.397 . S
C921 C922 1.334 . S
C922 H893 0.950 . S
C922 C921 1.334 . S
C922 C923 1.287 . S
C923 C922 1.287 . S
C923 C924 1.524 . S
C923 H926 0.999 . S
C924 H894 0.950 . S
C924 C923 1.524 . S
C924 C925 1.415 . S
C925 H895 0.950 . S
C925 C920 1.363 . S
C925 C924 1.415 . S
H926 C923 0.999 . S
H927 C908 0.913 . S
H928 C946 0.951 . S
H929 C948 0.951 . S
H930 C950 0.950 . S
H931 C951 0.950 . S
H932 C953 0.950 . S
H933 C956 0.950 . S
H934 C957 0.950 . S
H935 C959 0.950 . S
H936 C960 0.950 . S
H937 C961 0.951 . S
H938 C963 0.951 . S
H939 C965 0.950 . S
H940 C966 0.950 . S
H941 C968 0.950 . S
H942 C971 0.950 . S
H943 C972 0.950 . S
H944 C974 0.950 . S
H945 C975 0.950 . S
C946 H928 0.951 . S
C946 C947 1.366 . S
C946 C948 1.388 . S
C947 C946 1.366 . S
C947 C951 1.385 . S
C948 H929 0.951 . S
C948 C946 1.388 . S
C948 C949 1.366 . S
C949 C948 1.366 . S
C949 C950 1.414 . S
C949 C952 1.499 . S
C950 H930 0.950 . S
C950 C949 1.414 . S
C950 C951 1.374 . S
C951 H931 0.950 . S
C951 C947 1.385 . S
C951 C950 1.374 . S
C952 C949 1.499 . S
C952 C953 1.373 . S
C952 C954 1.389 . S
C953 H932 0.950 . S
C953 C952 1.373 . S
C953 C969 1.377 . S
C954 C952 1.389 . S
C954 C955 1.524 . S
C954 C968 1.377 . S
C955 C954 1.524 . S
C955 C956 1.397 . S
C955 C960 1.363 . S
C956 H933 0.950 . S
C956 C955 1.397 . S
C956 C957 1.334 . S
C957 H934 0.950 . S
C957 C956 1.334 . S
C957 C958 1.287 . S
C958 C957 1.287 . S
C958 C959 1.524 . S
C958 H977 0.913 . S
C959 H935 0.950 . S
C959 C958 1.524 . S
C959 C960 1.415 . S
C960 H936 0.950 . S
C960 C955 1.363 . S
C960 C959 1.415 . S
C961 H937 0.951 . S
C961 C962 1.366 . S
C961 C963 1.388 . S
C962 C961 1.366 . S
C962 C966 1.385 . S
C963 H938 0.951 . S
C963 C961 1.388 . S
C963 C964 1.366 . S
C964 C963 1.366 . S
C964 C965 1.414 . S
C964 C967 1.499 . S
C965 H939 0.950 . S
C965 C964 1.414 . S
C965 C966 1.374 . S
C966 H940 0.950 . S
C966 C962 1.385 . S
C966 C965 1.374 . S
C967 C964 1.499 . S
C967 C968 1.373 . S
C967 C969 1.389 . S
C968 H941 0.950 . S
C968 C954 1.377 . S
C968 C967 1.373 . S
C969 C953 1.377 . S
C969 C967 1.389 . S
C969 C970 1.524 . S
C970 C969 1.524 . S
C970 C971 1.397 . S
C970 C975 1.363 . S
C971 H942 0.950 . S
C971 C970 1.397 . S
C971 C972 1.334 . S
C972 H943 0.950 . S
C972 C971 1.334 . S
C972 C973 1.287 . S
C973 C972 1.287 . S
C973 C974 1.524 . S
C973 H976 0.999 . S
C974 H944 0.950 . S
C974 C973 1.524 . S
C974 C975 1.415 . S
C975 H945 0.950 . S
C975 C970 1.363 . S
C975 C974 1.415 . S
H976 C973 0.999 . S
H977 C958 0.913 . S
H978 C996 0.951 . S
H979 C998 0.951 . S
H980 C1000 0.950 . S
H981 C1001 0.950 . S
H982 C1003 0.950 . S
H983 C1006 0.950 . S
H984 C1007 0.950 . S
H985 C1009 0.950 . S
H986 C1010 0.950 . S
H987 C1011 0.951 . S
H988 C1013 0.951 . S
H989 C1015 0.950 . S
H990 C1016 0.950 . S
H991 C1018 0.950 . S
H992 C1021 0.950 . S
H993 C1022 0.950 . S
H994 C1024 0.950 . S
H995 C1025 0.950 . S
C996 H978 0.951 . S
C996 C997 1.366 . S
C996 C998 1.388 . S
C997 C996 1.366 . S
C997 C1001 1.385 . S
C998 H979 0.951 . S
C998 C996 1.388 . S
C998 C999 1.366 . S
C999 C998 1.366 . S
C999 C1000 1.414 . S
C999 C1002 1.499 . S
C1000 H980 0.950 . S
C1000 C999 1.414 . S
C1000 C1001 1.374 . S
C1001 H981 0.950 . S
C1001 C997 1.385 . S
C1001 C1000 1.374 . S
C1002 C999 1.499 . S
C1002 C1003 1.373 . S
C1002 C1004 1.389 . S
C1003 H982 0.950 . S
C1003 C1002 1.373 . S
C1003 C1019 1.377 . S
C1004 C1002 1.389 . S
C1004 C1005 1.524 . S
C1004 C1018 1.377 . S
C1005 C1004 1.524 . S
C1005 C1006 1.397 . S
C1005 C1010 1.363 . S
C1006 H983 0.950 . S
C1006 C1005 1.397 . S
C1006 C1007 1.334 . S
C1007 H984 0.950 . S
C1007 C1006 1.334 . S
C1007 C1008 1.287 . S
C1008 C1007 1.287 . S
C1008 C1009 1.524 . S
C1008 H1027 0.913 . S
C1009 H985 0.950 . S
C1009 C1008 1.524 . S
C1009 C1010 1.415 . S
C1010 H986 0.950 . S
C1010 C1005 1.363 . S
C1010 C1009 1.415 . S
C1011 H987 0.951 . S
C1011 C1012 1.366 . S
C1011 C1013 1.388 . S
C1012 C1011 1.366 . S
C1012 C1016 1.385 . S
C1013 H988 0.951 . S
C1013 C1011 1.388 . S
C1013 C1014 1.366 . S
C1014 C1013 1.366 . S
C1014 C1015 1.414 . S
C1014 C1017 1.499 . S
C1015 H989 0.950 . S
C1015 C1014 1.414 . S
C1015 C1016 1.374 . S
C1016 H990 0.950 . S
C1016 C1012 1.385 . S
C1016 C1015 1.374 . S
C1017 C1014 1.499 . S
C1017 C1018 1.373 . S
C1017 C1019 1.389 . S
C1018 H991 0.950 . S
C1018 C1004 1.377 . S
C1018 C1017 1.373 . S
C1019 C1003 1.377 . S
C1019 C1017 1.389 . S
C1019 C1020 1.524 . S
C1020 C1019 1.524 . S
C1020 C1021 1.397 . S
C1020 C1025 1.363 . S
C1021 H992 0.950 . S
C1021 C1020 1.397 . S
C1021 C1022 1.334 . S
C1022 H993 0.950 . S
C1022 C1021 1.334 . S
C1022 C1023 1.287 . S
C1023 C1022 1.287 . S
C1023 C1024 1.524 . S
C1023 H1026 0.999 . S
C1024 H994 0.950 . S
C1024 C1023 1.524 . S
C1024 C1025 1.415 . S
C1025 H995 0.950 . S
C1025 C1020 1.363 . S
C1025 C1024 1.415 . S
H1026 C1023 0.999 . S
H1027 C1008 0.913 . S
H1028 C1046 0.951 . S
H1029 C1048 0.951 . S
H1030 C1050 0.950 . S
H1031 C1051 0.950 . S
H1032 C1053 0.950 . S
H1033 C1056 0.950 . S
H1034 C1057 0.950 . S
H1035 C1059 0.950 . S
H1036 C1060 0.950 . S
H1037 C1061 0.951 . S
H1038 C1063 0.951 . S
H1039 C1065 0.950 . S
H1040 C1066 0.950 . S
H1041 C1068 0.950 . S
H1042 C1071 0.950 . S
H1043 C1072 0.950 . S
H1044 C1074 0.950 . S
H1045 C1075 0.950 . S
C1046 H1028 0.951 . S
C1046 C1047 1.366 . S
C1046 C1048 1.388 . S
C1047 C1046 1.366 . S
C1047 C1051 1.385 . S
C1048 H1029 0.951 . S
C1048 C1046 1.388 . S
C1048 C1049 1.366 . S
C1049 C1048 1.366 . S
C1049 C1050 1.414 . S
C1049 C1052 1.499 . S
C1050 H1030 0.950 . S
C1050 C1049 1.414 . S
C1050 C1051 1.374 . S
C1051 H1031 0.950 . S
C1051 C1047 1.385 . S
C1051 C1050 1.374 . S
C1052 C1049 1.499 . S
C1052 C1053 1.373 . S
C1052 C1054 1.389 . S
C1053 H1032 0.950 . S
C1053 C1052 1.373 . S
C1053 C1069 1.377 . S
C1054 C1052 1.389 . S
C1054 C1055 1.524 . S
C1054 C1068 1.377 . S
C1055 C1054 1.524 . S
C1055 C1056 1.397 . S
C1055 C1060 1.363 . S
C1056 H1033 0.950 . S
C1056 C1055 1.397 . S
C1056 C1057 1.334 . S
C1057 H1034 0.950 . S
C1057 C1056 1.334 . S
C1057 C1058 1.287 . S
C1058 C1057 1.287 . S
C1058 C1059 1.524 . S
C1058 H1077 0.913 . S
C1059 H1035 0.950 . S
C1059 C1058 1.524 . S
C1059 C1060 1.415 . S
C1060 H1036 0.950 . S
C1060 C1055 1.363 . S
C1060 C1059 1.415 . S
C1061 H1037 0.951 . S
C1061 C1062 1.366 . S
C1061 C1063 1.388 . S
C1062 C1061 1.366 . S
C1062 C1066 1.385 . S
C1063 H1038 0.951 . S
C1063 C1061 1.388 . S
C1063 C1064 1.366 . S
C1064 C1063 1.366 . S
C1064 C1065 1.414 . S
C1064 C1067 1.499 . S
C1065 H1039 0.950 . S
C1065 C1064 1.414 . S
C1065 C1066 1.374 . S
C1066 H1040 0.950 . S
C1066 C1062 1.385 . S
C1066 C1065 1.374 . S
C1067 C1064 1.499 . S
C1067 C1068 1.373 . S
C1067 C1069 1.389 . S
C1068 H1041 0.950 . S
C1068 C1054 1.377 . S
C1068 C1067 1.373 . S
C1069 C1053 1.377 . S
C1069 C1067 1.389 . S
C1069 C1070 1.524 . S
C1070 C1069 1.524 . S
C1070 C1071 1.397 . S
C1070 C1075 1.363 . S
C1071 H1042 0.950 . S
C1071 C1070 1.397 . S
C1071 C1072 1.334 . S
C1072 H1043 0.950 . S
C1072 C1071 1.334 . S
C1072 C1073 1.287 . S
C1073 C1072 1.287 . S
C1073 C1074 1.524 . S
C1073 H1076 0.999 . S
C1074 H1044 0.950 . S
C1074 C1073 1.524 . S
C1074 C1075 1.415 . S
C1075 H1045 0.950 . S
C1075 C1070 1.363 . S
C1075 C1074 1.415 . S
H1076 C1073 0.999 . S
H1077 C1058 0.913 . S
H1078 C1096 0.951 . S
H1079 C1098 0.951 . S
H1080 C1100 0.950 . S
H1081 C1101 0.950 . S
H1082 C1103 0.950 . S
H1083 C1106 0.950 . S
H1084 C1107 0.950 . S
H1085 C1109 0.950 . S
H1086 C1110 0.950 . S
H1087 C1111 0.951 . S
H1088 C1113 0.951 . S
H1089 C1115 0.950 . S
H1090 C1116 0.950 . S
H1091 C1118 0.950 . S
H1092 C1121 0.950 . S
H1093 C1122 0.950 . S
H1094 C1124 0.950 . S
H1095 C1125 0.950 . S
C1096 H1078 0.951 . S
C1096 C1097 1.366 . S
C1096 C1098 1.388 . S
C1097 C1096 1.366 . S
C1097 C1101 1.385 . S
C1098 H1079 0.951 . S
C1098 C1096 1.388 . S
C1098 C1099 1.366 . S
C1099 C1098 1.366 . S
C1099 C1100 1.414 . S
C1099 C1102 1.499 . S
C1100 H1080 0.950 . S
C1100 C1099 1.414 . S
C1100 C1101 1.374 . S
C1101 H1081 0.950 . S
C1101 C1097 1.385 . S
C1101 C1100 1.374 . S
C1102 C1099 1.499 . S
C1102 C1103 1.373 . S
C1102 C1104 1.389 . S
C1103 H1082 0.950 . S
C1103 C1102 1.373 . S
C1103 C1119 1.377 . S
C1104 C1102 1.389 . S
C1104 C1105 1.524 . S
C1104 C1118 1.377 . S
C1105 C1104 1.524 . S
C1105 C1106 1.397 . S
C1105 C1110 1.363 . S
C1106 H1083 0.950 . S
C1106 C1105 1.397 . S
C1106 C1107 1.334 . S
C1107 H1084 0.950 . S
C1107 C1106 1.334 . S
C1107 C1108 1.287 . S
C1108 C1107 1.287 . S
C1108 C1109 1.524 . S
C1108 H1127 0.913 . S
C1109 H1085 0.950 . S
C1109 C1108 1.524 . S
C1109 C1110 1.415 . S
C1110 H1086 0.950 . S
C1110 C1105 1.363 . S
C1110 C1109 1.415 . S
C1111 H1087 0.951 . S
C1111 C1112 1.366 . S
C1111 C1113 1.388 . S
C1112 C1111 1.366 . S
C1112 C1116 1.385 . S
C1113 H1088 0.951 . S
C1113 C1111 1.388 . S
C1113 C1114 1.366 . S
C1114 C1113 1.366 . S
C1114 C1115 1.414 . S
C1114 C1117 1.499 . S
C1115 H1089 0.950 . S
C1115 C1114 1.414 . S
C1115 C1116 1.374 . S
C1116 H1090 0.950 . S
C1116 C1112 1.385 . S
C1116 C1115 1.374 . S
C1117 C1114 1.499 . S
C1117 C1118 1.373 . S
C1117 C1119 1.389 . S
C1118 H1091 0.950 . S
C1118 C1104 1.377 . S
C1118 C1117 1.373 . S
C1119 C1103 1.377 . S
C1119 C1117 1.389 . S
C1119 C1120 1.524 . S
C1120 C1119 1.524 . S
C1120 C1121 1.397 . S
C1120 C1125 1.363 . S
C1121 H1092 0.950 . S
C1121 C1120 1.397 . S
C1121 C1122 1.334 . S
C1122 H1093 0.950 . S
C1122 C1121 1.334 . S
C1122 C1123 1.287 . S
C1123 C1122 1.287 . S
C1123 C1124 1.524 . S
C1123 H1126 0.999 . S
C1124 H1094 0.950 . S
C1124 C1123 1.524 . S
C1124 C1125 1.415 . S
C1125 H1095 0.950 . S
C1125 C1120 1.363 . S
C1125 C1124 1.415 . S
H1126 C1123 0.999 . S
H1127 C1108 0.913 . S
H1128 C1146 0.951 . S
H1129 C1148 0.951 . S
H1130 C1150 0.950 . S
H1131 C1151 0.950 . S
H1132 C1153 0.950 . S
H1133 C1156 0.950 . S
H1134 C1157 0.950 . S
H1135 C1159 0.950 . S
H1136 C1160 0.950 . S
H1137 C1161 0.951 . S
H1138 C1163 0.951 . S
H1139 C1165 0.950 . S
H1140 C1166 0.950 . S
H1141 C1168 0.950 . S
H1142 C1171 0.950 . S
H1143 C1172 0.950 . S
H1144 C1174 0.950 . S
H1145 C1175 0.950 . S
C1146 H1128 0.951 . S
C1146 C1147 1.366 . S
C1146 C1148 1.388 . S
C1147 C1146 1.366 . S
C1147 C1151 1.385 . S
C1148 H1129 0.951 . S
C1148 C1146 1.388 . S
C1148 C1149 1.366 . S
C1149 C1148 1.366 . S
C1149 C1150 1.414 . S
C1149 C1152 1.499 . S
C1150 H1130 0.950 . S
C1150 C1149 1.414 . S
C1150 C1151 1.374 . S
C1151 H1131 0.950 . S
C1151 C1147 1.385 . S
C1151 C1150 1.374 . S
C1152 C1149 1.499 . S
C1152 C1153 1.373 . S
C1152 C1154 1.389 . S
C1153 H1132 0.950 . S
C1153 C1152 1.373 . S
C1153 C1169 1.377 . S
C1154 C1152 1.389 . S
C1154 C1155 1.524 . S
C1154 C1168 1.377 . S
C1155 C1154 1.524 . S
C1155 C1156 1.397 . S
C1155 C1160 1.363 . S
C1156 H1133 0.950 . S
C1156 C1155 1.397 . S
C1156 C1157 1.334 . S
C1157 H1134 0.950 . S
C1157 C1156 1.334 . S
C1157 C1158 1.287 . S
C1158 C1157 1.287 . S
C1158 C1159 1.524 . S
C1158 H1177 0.913 . S
C1159 H1135 0.950 . S
C1159 C1158 1.524 . S
C1159 C1160 1.415 . S
C1160 H1136 0.950 . S
C1160 C1155 1.363 . S
C1160 C1159 1.415 . S
C1161 H1137 0.951 . S
C1161 C1162 1.366 . S
C1161 C1163 1.388 . S
C1162 C1161 1.366 . S
C1162 C1166 1.385 . S
C1163 H1138 0.951 . S
C1163 C1161 1.388 . S
C1163 C1164 1.366 . S
C1164 C1163 1.366 . S
C1164 C1165 1.414 . S
C1164 C1167 1.499 . S
C1165 H1139 0.950 . S
C1165 C1164 1.414 . S
C1165 C1166 1.374 . S
C1166 H1140 0.950 . S
C1166 C1162 1.385 . S
C1166 C1165 1.374 . S
C1167 C1164 1.499 . S
C1167 C1168 1.373 . S
C1167 C1169 1.389 . S
C1168 H1141 0.950 . S
C1168 C1154 1.377 . S
C1168 C1167 1.373 . S
C1169 C1153 1.377 . S
C1169 C1167 1.389 . S
C1169 C1170 1.524 . S
C1170 C1169 1.524 . S
C1170 C1171 1.397 . S
C1170 C1175 1.363 . S
C1171 H1142 0.950 . S
C1171 C1170 1.397 . S
C1171 C1172 1.334 . S
C1172 H1143 0.950 . S
C1172 C1171 1.334 . S
C1172 C1173 1.287 . S
C1173 C1172 1.287 . S
C1173 C1174 1.524 . S
C1173 H1176 0.999 . S
C1174 H1144 0.950 . S
C1174 C1173 1.524 . S
C1174 C1175 1.415 . S
C1175 H1145 0.950 . S
C1175 C1170 1.363 . S
C1175 C1174 1.415 . S
H1176 C1173 0.999 . S
H1177 C1158 0.913 . S
H1178 C1196 0.951 . S
H1179 C1198 0.951 . S
H1180 C1200 0.950 . S
H1181 C1201 0.950 . S
H1182 C1203 0.950 . S
H1183 C1206 0.950 . S
H1184 C1207 0.950 . S
H1185 C1209 0.950 . S
H1186 C1210 0.950 . S
H1187 C1211 0.951 . S
H1188 C1213 0.951 . S
H1189 C1215 0.950 . S
H1190 C1216 0.950 . S
H1191 C1218 0.950 . S
H1192 C1221 0.950 . S
H1193 C1222 0.950 . S
H1194 C1224 0.950 . S
H1195 C1225 0.950 . S
C1196 H1178 0.951 . S
C1196 C1197 1.366 . S
C1196 C1198 1.388 . S
C1197 C1196 1.366 . S
C1197 C1201 1.385 . S
C1198 H1179 0.951 . S
C1198 C1196 1.388 . S
C1198 C1199 1.366 . S
C1199 C1198 1.366 . S
C1199 C1200 1.414 . S
C1199 C1202 1.499 . S
C1200 H1180 0.950 . S
C1200 C1199 1.414 . S
C1200 C1201 1.374 . S
C1201 H1181 0.950 . S
C1201 C1197 1.385 . S
C1201 C1200 1.374 . S
C1202 C1199 1.499 . S
C1202 C1203 1.373 . S
C1202 C1204 1.389 . S
C1203 H1182 0.950 . S
C1203 C1202 1.373 . S
C1203 C1219 1.377 . S
C1204 C1202 1.389 . S
C1204 C1205 1.524 . S
C1204 C1218 1.377 . S
C1205 C1204 1.524 . S
C1205 C1206 1.397 . S
C1205 C1210 1.363 . S
C1206 H1183 0.950 . S
C1206 C1205 1.397 . S
C1206 C1207 1.334 . S
C1207 H1184 0.950 . S
C1207 C1206 1.334 . S
C1207 C1208 1.287 . S
C1208 C1207 1.287 . S
C1208 C1209 1.524 . S
C1208 H1227 0.913 . S
C1209 H1185 0.950 . S
C1209 C1208 1.524 . S
C1209 C1210 1.415 . S
C1210 H1186 0.950 . S
C1210 C1205 1.363 . S
C1210 C1209 1.415 . S
C1211 H1187 0.951 . S
C1211 C1212 1.366 . S
C1211 C1213 1.388 . S
C1212 C1211 1.366 . S
C1212 C1216 1.385 . S
C1213 H1188 0.951 . S
C1213 C1211 1.388 . S
C1213 C1214 1.366 . S
C1214 C1213 1.366 . S
C1214 C1215 1.414 . S
C1214 C1217 1.499 . S
C1215 H1189 0.950 . S
C1215 C1214 1.414 . S
C1215 C1216 1.374 . S
C1216 H1190 0.950 . S
C1216 C1212 1.385 . S
C1216 C1215 1.374 . S
C1217 C1214 1.499 . S
C1217 C1218 1.373 . S
C1217 C1219 1.389 . S
C1218 H1191 0.950 . S
C1218 C1204 1.377 . S
C1218 C1217 1.373 . S
C1219 C1203 1.377 . S
C1219 C1217 1.389 . S
C1219 C1220 1.524 . S
C1220 C1219 1.524 . S
C1220 C1221 1.397 . S
C1220 C1225 1.363 . S
C1221 H1192 0.950 . S
C1221 C1220 1.397 . S
C1221 C1222 1.334 . S
C1222 H1193 0.950 . S
C1222 C1221 1.334 . S
C1222 C1223 1.287 . S
C1223 C1222 1.287 . S
C1223 C1224 1.524 . S
C1223 H1226 0.999 . S
C1224 H1194 0.950 . S
C1224 C1223 1.524 . S
C1224 C1225 1.415 . S
C1225 H1195 0.950 . S
C1225 C1220 1.363 . S
C1225 C1224 1.415 . S
H1226 C1223 0.999 . S
H1227 C1208 0.913 . S
H1228 C1246 0.951 . S
H1229 C1248 0.951 . S
H1230 C1250 0.950 . S
H1231 C1251 0.950 . S
H1232 C1253 0.950 . S
H1233 C1256 0.950 . S
H1234 C1257 0.950 . S
H1235 C1259 0.950 . S
H1236 C1260 0.950 . S
H1237 C1261 0.951 . S
H1238 C1263 0.951 . S
H1239 C1265 0.950 . S
H1240 C1266 0.950 . S
H1241 C1268 0.950 . S
H1242 C1271 0.950 . S
H1243 C1272 0.950 . S
H1244 C1274 0.950 . S
H1245 C1275 0.950 . S
C1246 H1228 0.951 . S
C1246 C1247 1.366 . S
C1246 C1248 1.388 . S
C1247 C1246 1.366 . S
C1247 C1251 1.385 . S
C1248 H1229 0.951 . S
C1248 C1246 1.388 . S
C1248 C1249 1.366 . S
C1249 C1248 1.366 . S
C1249 C1250 1.414 . S
C1249 C1252 1.499 . S
C1250 H1230 0.950 . S
C1250 C1249 1.414 . S
C1250 C1251 1.374 . S
C1251 H1231 0.950 . S
C1251 C1247 1.385 . S
C1251 C1250 1.374 . S
C1252 C1249 1.499 . S
C1252 C1253 1.373 . S
C1252 C1254 1.389 . S
C1253 H1232 0.950 . S
C1253 C1252 1.373 . S
C1253 C1269 1.377 . S
C1254 C1252 1.389 . S
C1254 C1255 1.524 . S
C1254 C1268 1.377 . S
C1255 C1254 1.524 . S
C1255 C1256 1.397 . S
C1255 C1260 1.363 . S
C1256 H1233 0.950 . S
C1256 C1255 1.397 . S
C1256 C1257 1.334 . S
C1257 H1234 0.950 . S
C1257 C1256 1.334 . S
C1257 C1258 1.287 . S
C1258 C1257 1.287 . S
C1258 C1259 1.524 . S
C1258 H1277 0.913 . S
C1259 H1235 0.950 . S
C1259 C1258 1.524 . S
C1259 C1260 1.415 . S
C1260 H1236 0.950 . S
C1260 C1255 1.363 . S
C1260 C1259 1.415 . S
C1261 H1237 0.951 . S
C1261 C1262 1.366 . S
C1261 C1263 1.388 . S
C1262 C1261 1.366 . S
C1262 C1266 1.385 . S
C1263 H1238 0.951 . S
C1263 C1261 1.388 . S
C1263 C1264 1.366 . S
C1264 C1263 1.366 . S
C1264 C1265 1.414 . S
C1264 C1267 1.499 . S
C1265 H1239 0.950 . S
C1265 C1264 1.414 . S
C1265 C1266 1.374 . S
C1266 H1240 0.950 . S
C1266 C1262 1.385 . S
C1266 C1265 1.374 . S
C1267 C1264 1.499 . S
C1267 C1268 1.373 . S
C1267 C1269 1.389 . S
C1268 H1241 0.950 . S
C1268 C1254 1.377 . S
C1268 C1267 1.373 . S
C1269 C1253 1.377 . S
C1269 C1267 1.389 . S
C1269 C1270 1.524 . S
C1270 C1269 1.524 . S
C1270 C1271 1.397 . S
C1270 C1275 1.363 . S
C1271 H1242 0.950 . S
C1271 C1270 1.397 . S
C1271 C1272 1.334 . S
C1272 H1243 0.950 . S
C1272 C1271 1.334 . S
C1272 C1273 1.287 . S
C1273 C1272 1.287 . S
C1273 C1274 1.524 . S
C1273 H1276 0.999 . S
C1274 H1244 0.950 . S
C1274 C1273 1.524 . S
C1274 C1275 1.415 . S
C1275 H1245 0.950 . S
C1275 C1270 1.363 . S
C1275 C1274 1.415 . S
H1276 C1273 0.999 . S
H1277 C1258 0.913 . S
H1278 C1296 0.951 . S
H1279 C1298 0.951 . S
H1280 C1300 0.950 . S
H1281 C1301 0.950 . S
H1282 C1303 0.950 . S
H1283 C1306 0.950 . S
H1284 C1307 0.950 . S
H1285 C1309 0.950 . S
H1286 C1310 0.950 . S
H1287 C1311 0.951 . S
H1288 C1313 0.951 . S
H1289 C1315 0.950 . S
H1290 C1316 0.950 . S
H1291 C1318 0.950 . S
H1292 C1321 0.950 . S
H1293 C1322 0.950 . S
H1294 C1324 0.950 . S
H1295 C1325 0.950 . S
C1296 H1278 0.951 . S
C1296 C1297 1.366 . S
C1296 C1298 1.388 . S
C1297 C1296 1.366 . S
C1297 C1301 1.385 . S
C1298 H1279 0.951 . S
C1298 C1296 1.388 . S
C1298 C1299 1.366 . S
C1299 C1298 1.366 . S
C1299 C1300 1.414 . S
C1299 C1302 1.499 . S
C1300 H1280 0.950 . S
C1300 C1299 1.414 . S
C1300 C1301 1.374 . S
C1301 H1281 0.950 . S
C1301 C1297 1.385 . S
C1301 C1300 1.374 . S
C1302 C1299 1.499 . S
C1302 C1303 1.373 . S
C1302 C1304 1.389 . S
C1303 H1282 0.950 . S
C1303 C1302 1.373 . S
C1303 C1319 1.377 . S
C1304 C1302 1.389 . S
C1304 C1305 1.524 . S
C1304 C1318 1.377 . S
C1305 C1304 1.524 . S
C1305 C1306 1.397 . S
C1305 C1310 1.363 . S
C1306 H1283 0.950 . S
C1306 C1305 1.397 . S
C1306 C1307 1.334 . S
C1307 H1284 0.950 . S
C1307 C1306 1.334 . S
C1307 C1308 1.287 . S
C1308 C1307 1.287 . S
C1308 C1309 1.524 . S
C1308 H1327 0.913 . S
C1309 H1285 0.950 . S
C1309 C1308 1.524 . S
C1309 C1310 1.415 . S
C1310 H1286 0.950 . S
C1310 C1305 1.363 . S
C1310 C1309 1.415 . S
C1311 H1287 0.951 . S
C1311 C1312 1.366 . S
C1311 C1313 1.388 . S
C1312 C1311 1.366 . S
C1312 C1316 1.385 . S
C1313 H1288 0.951 . S
C1313 C1311 1.388 . S
C1313 C1314 1.366 . S
C1314 C1313 1.366 . S
C1314 C1315 1.414 . S
C1314 C1317 1.499 . S
C1315 H1289 0.950 . S
C1315 C1314 1.414 . S
C1315 C1316 1.374 . S
C1316 H1290 0.950 . S
C1316 C1312 1.385 . S
C1316 C1315 1.374 . S
C1317 C1314 1.499 . S
C1317 C1318 1.373 . S
C1317 C1319 1.389 . S
C1318 H1291 0.950 . S
C1318 C1304 1.377 . S
C1318 C1317 1.373 . S
C1319 C1303 1.377 . S
C1319 C1317 1.389 . S
C1319 C1320 1.524 . S
C1320 C1319 1.524 . S
C1320 C1321 1.397 . S
C1320 C1325 1.363 . S
C1321 H1292 0.950 . S
C1321 C1320 1.397 . S
C1321 C1322 1.334 . S
C1322 H1293 0.950 . S
C1322 C1321 1.334 . S
C1322 C1323 1.287 . S
C1323 C1322 1.287 . S
C1323 C1324 1.524 . S
C1323 H1326 0.999 . S
C1324 H1294 0.950 . S
C1324 C1323 1.524 . S
C1324 C1325 1.415 . S
C1325 H1295 0.950 . S
C1325 C1320 1.363 . S
C1325 C1324 1.415 . S
H1326 C1323 0.999 . S
H1327 C1308 0.913 . S
H1328 C1346 0.951 . S
H1329 C1348 0.951 . S
H1330 C1350 0.950 . S
H1331 C1351 0.950 . S
H1332 C1353 0.950 . S
H1333 C1356 0.950 . S
H1334 C1357 0.950 . S
H1335 C1359 0.950 . S
H1336 C1360 0.950 . S
H1337 C1361 0.951 . S
H1338 C1363 0.951 . S
H1339 C1365 0.950 . S
H1340 C1366 0.950 . S
H1341 C1368 0.950 . S
H1342 C1371 0.950 . S
H1343 C1372 0.950 . S
H1344 C1374 0.950 . S
H1345 C1375 0.950 . S
C1346 H1328 0.951 . S
C1346 C1347 1.366 . S
C1346 C1348 1.388 . S
C1347 C1346 1.366 . S
C1347 C1351 1.385 . S
C1348 H1329 0.951 . S
C1348 C1346 1.388 . S
C1348 C1349 1.366 . S
C1349 C1348 1.366 . S
C1349 C1350 1.414 . S
C1349 C1352 1.499 . S
C1350 H1330 0.950 . S
C1350 C1349 1.414 . S
C1350 C1351 1.374 . S
C1351 H1331 0.950 . S
C1351 C1347 1.385 . S
C1351 C1350 1.374 . S
C1352 C1349 1.499 . S
C1352 C1353 1.373 . S
C1352 C1354 1.389 . S
C1353 H1332 0.950 . S
C1353 C1352 1.373 . S
C1353 C1369 1.377 . S
C1354 C1352 1.389 . S
C1354 C1355 1.524 . S
C1354 C1368 1.377 . S
C1355 C1354 1.524 . S
C1355 C1356 1.397 . S
C1355 C1360 1.363 . S
C1356 H1333 0.950 . S
C1356 C1355 1.397 . S
C1356 C1357 1.334 . S
C1357 H1334 0.950 . S
C1357 C1356 1.334 . S
C1357 C1358 1.287 . S
C1358 C1357 1.287 . S
C1358 C1359 1.524 . S
C1358 H1377 0.913 . S
C1359 H1335 0.950 . S
C1359 C1358 1.524 . S
C1359 C1360 1.415 . S
C1360 H1336 0.950 . S
C1360 C1355 1.363 . S
C1360 C1359 1.415 . S
C1361 H1337 0.951 . S
C1361 C1362 1.366 . S
C1361 C1363 1.388 . S
C1362 C1361 1.366 . S
C1362 C1366 1.385 . S
C1363 H1338 0.951 . S
C1363 C1361 1.388 . S
C1363 C1364 1.366 . S
C1364 C1363 1.366 . S
C1364 C1365 1.414 . S
C1364 C1367 1.499 . S
C1365 H1339 0.950 . S
C1365 C1364 1.414 . S
C1365 C1366 1.374 . S
C1366 H1340 0.950 . S
C1366 C1362 1.385 . S
C1366 C1365 1.374 . S
C1367 C1364 1.499 . S
C1367 C1368 1.373 . S
C1367 C1369 1.389 . S
C1368 H1341 0.950 . S
C1368 C1354 1.377 . S
C1368 C1367 1.373 . S
C1369 C1353 1.377 . S
C1369 C1367 1.389 . S
C1369 C1370 1.524 . S
C1370 C1369 1.524 . S
C1370 C1371 1.397 . S
C1370 C1375 1.363 . S
C1371 H1342 0.950 . S
C1371 C1370 1.397 . S
C1371 C1372 1.334 . S
C1372 H1343 0.950 . S
C1372 C1371 1.334 . S
C1372 C1373 1.287 . S
C1373 C1372 1.287 . S
C1373 C1374 1.524 . S
C1373 H1376 0.999 . S
C1374 H1344 0.950 . S
C1374 C1373 1.524 . S
C1374 C1375 1.415 . S
C1375 H1345 0.950 . S
C1375 C1370 1.363 . S
C1375 C1374 1.415 . S
H1376 C1373 0.999 . S
H1377 C1358 0.913 . S
H1378 C1396 0.951 . S
H1379 C1398 0.951 . S
H1380 C1400 0.950 . S
H1381 C1401 0.950 . S
H1382 C1403 0.950 . S
H1383 C1406 0.950 . S
H1384 C1407 0.950 . S
H1385 C1409 0.950 . S
H1386 C1410 0.950 . S
H1387 C1411 0.951 . S
H1388 C1413 0.951 . S
H1389 C1415 0.950 . S
H1390 C1416 0.950 . S
H1391 C1418 0.950 . S
H1392 C1421 0.950 . S
H1393 C1422 0.950 . S
H1394 C1424 0.950 . S
H1395 C1425 0.950 . S
C1396 H1378 0.951 . S
C1396 C1397 1.366 . S
C1396 C1398 1.388 . S
C1397 C1396 1.366 . S
C1397 C1401 1.385 . S
C1398 H1379 0.951 . S
C1398 C1396 1.388 . S
C1398 C1399 1.366 . S
C1399 C1398 1.366 . S
C1399 C1400 1.414 . S
C1399 C1402 1.499 . S
C1400 H1380 0.950 . S
C1400 C1399 1.414 . S
C1400 C1401 1.374 . S
C1401 H1381 0.950 . S
C1401 C1397 1.385 . S
C1401 C1400 1.374 . S
C1402 C1399 1.499 . S
C1402 C1403 1.373 . S
C1402 C1404 1.389 . S
C1403 H1382 0.950 . S
C1403 C1402 1.373 . S
C1403 C1419 1.377 . S
C1404 C1402 1.389 . S
C1404 C1405 1.524 . S
C1404 C1418 1.377 . S
C1405 C1404 1.524 . S
C1405 C1406 1.397 . S
C1405 C1410 1.363 . S
C1406 H1383 0.950 . S
C1406 C1405 1.397 . S
C1406 C1407 1.334 . S
C1407 H1384 0.950 . S
C1407 C1406 1.334 . S
C1407 C1408 1.287 . S
C1408 C1407 1.287 . S
C1408 C1409 1.524 . S
C1408 H1427 0.913 . S
C1409 H1385 0.950 . S
C1409 C1408 1.524 . S
C1409 C1410 1.415 . S
C1410 H1386 0.950 . S
C1410 C1405 1.363 . S
C1410 C1409 1.415 . S
C1411 H1387 0.951 . S
C1411 C1412 1.366 . S
C1411 C1413 1.388 . S
C1412 C1411 1.366 . S
C1412 C1416 1.385 . S
C1413 H1388 0.951 . S
C1413 C1411 1.388 . S
C1413 C1414 1.366 . S
C1414 C1413 1.366 . S
C1414 C1415 1.414 . S
C1414 C1417 1.499 . S
C1415 H1389 0.950 . S
C1415 C1414 1.414 . S
C1415 C1416 1.374 . S
C1416 H1390 0.950 . S
C1416 C1412 1.385 . S
C1416 C1415 1.374 . S
C1417 C1414 1.499 . S
C1417 C1418 1.373 . S
C1417 C1419 1.389 . S
C1418 H1391 0.950 . S
C1418 C1404 1.377 . S
C1418 C1417 1.373 . S
C1419 C1403 1.377 . S
C1419 C1417 1.389 . S
C1419 C1420 1.524 . S
C1420 C1419 1.524 . S
C1420 C1421 1.397 . S
C1420 C1425 1.363 . S
C1421 H1392 0.950 . S
C1421 C1420 1.397 . S
C1421 C1422 1.334 . S
C1422 H1393 0.950 . S
C1422 C1421 1.334 . S
C1422 C1423 1.287 . S
C1423 C1422 1.287 . S
C1423 C1424 1.524 . S
C1423 H1426 0.999 . S
C1424 H1394 0.950 . S
C1424 C1423 1.524 . S
C1424 C1425 1.415 . S
C1425 H1395 0.950 . S
C1425 C1420 1.363 . S
C1425 C1424 1.415 . S
H1426 C1423 0.999 . S
H1427 C1408 0.913 . S
H1428 C1446 0.951 . S
H1429 C1448 0.951 . S
H1430 C1450 0.950 . S
H1431 C1451 0.950 . S
H1432 C1453 0.950 . S
H1433 C1456 0.950 . S
H1434 C1457 0.950 . S
H1435 C1459 0.950 . S
H1436 C1460 0.950 . S
H1437 C1461 0.951 . S
H1438 C1463 0.951 . S
H1439 C1465 0.950 . S
H1440 C1466 0.950 . S
H1441 C1468 0.950 . S
H1442 C1471 0.950 . S
H1443 C1472 0.950 . S
H1444 C1474 0.950 . S
H1445 C1475 0.950 . S
C1446 H1428 0.951 . S
C1446 C1447 1.366 . S
C1446 C1448 1.388 . S
C1447 C1446 1.366 . S
C1447 C1451 1.385 . S
C1448 H1429 0.951 . S
C1448 C1446 1.388 . S
C1448 C1449 1.366 . S
C1449 C1448 1.366 . S
C1449 C1450 1.414 . S
C1449 C1452 1.499 . S
C1450 H1430 0.950 . S
C1450 C1449 1.414 . S
C1450 C1451 1.374 . S
C1451 H1431 0.950 . S
C1451 C1447 1.385 . S
C1451 C1450 1.374 . S
C1452 C1449 1.499 . S
C1452 C1453 1.373 . S
C1452 C1454 1.389 . S
C1453 H1432 0.950 . S
C1453 C1452 1.373 . S
C1453 C1469 1.377 . S
C1454 C1452 1.389 . S
C1454 C1455 1.524 . S
C1454 C1468 1.377 . S
C1455 C1454 1.524 . S
C1455 C1456 1.397 . S
C1455 C1460 1.363 . S
C1456 H1433 0.950 . S
C1456 C1455 1.397 . S
C1456 C1457 1.334 . S
C1457 H1434 0.950 . S
C1457 C1456 1.334 . S
C1457 C1458 1.287 . S
C1458 C1457 1.287 . S
C1458 C1459 1.524 . S
C1458 H1477 0.913 . S
C1459 H1435 0.950 . S
C1459 C1458 1.524 . S
C1459 C1460 1.415 . S
C1460 H1436 0.950 . S
C1460 C1455 1.363 . S
C1460 C1459 1.415 . S
C1461 H1437 0.951 . S
C1461 C1462 1.366 . S
C1461 C1463 1.388 . S
C1462 C1461 1.366 . S
C1462 C1466 1.385 . S
C1463 H1438 0.951 . S
C1463 C1461 1.388 . S
C1463 C1464 1.366 . S
C1464 C1463 1.366 . S
C1464 C1465 1.414 . S
C1464 C1467 1.499 . S
C1465 H1439 0.950 . S
C1465 C1464 1.414 . S
C1465 C1466 1.374 . S
C1466 H1440 0.950 . S
C1466 C1462 1.385 . S
C1466 C1465 1.374 . S
C1467 C1464 1.499 . S
C1467 C1468 1.373 . S
C1467 C1469 1.389 . S
C1468 H1441 0.950 . S
C1468 C1454 1.377 . S
C1468 C1467 1.373 . S
C1469 C1453 1.377 . S
C1469 C1467 1.389 . S
C1469 C1470 1.524 . S
C1470 C1469 1.524 . S
C1470 C1471 1.397 . S
C1470 C1475 1.363 . S
C1471 H1442 0.950 . S
C1471 C1470 1.397 . S
C1471 C1472 1.334 . S
C1472 H1443 0.950 . S
C1472 C1471 1.334 . S
C1472 C1473 1.287 . S
C1473 C1472 1.287 . S
C1473 C1474 1.524 . S
C1473 H1476 0.999 . S
C1474 H1444 0.950 . S
C1474 C1473 1.524 . S
C1474 C1475 1.415 . S
C1475 H1445 0.950 . S
C1475 C1470 1.363 . S
C1475 C1474 1.415 . S
H1476 C1473 0.999 . S
H1477 C1458 0.913 . S
H1478 C1496 0.951 . S
H1479 C1498 0.951 . S
H1480 C1500 0.950 . S
H1481 C1501 0.950 . S
H1482 C1503 0.950 . S
H1483 C1506 0.950 . S
H1484 C1507 0.950 . S
H1485 C1509 0.950 . S
H1486 C1510 0.950 . S
H1487 C1511 0.951 . S
H1488 C1513 0.951 . S
H1489 C1515 0.950 . S
H1490 C1516 0.950 . S
H1491 C1518 0.950 . S
H1492 C1521 0.950 . S
H1493 C1522 0.950 . S
H1494 C1524 0.950 . S
H1495 C1525 0.950 . S
C1496 H1478 0.951 . S
C1496 C1497 1.366 . S
C1496 C1498 1.388 . S
C1497 C1496 1.366 . S
C1497 C1501 1.385 . S
C1498 H1479 0.951 . S
C1498 C1496 1.388 . S
C1498 C1499 1.366 . S
C1499 C1498 1.366 . S
C1499 C1500 1.414 . S
C1499 C1502 1.499 . S
C1500 H1480 0.950 . S
C1500 C1499 1.414 . S
C1500 C1501 1.374 . S
C1501 H1481 0.950 . S
C1501 C1497 1.385 . S
C1501 C1500 1.374 . S
C1502 C1499 1.499 . S
C1502 C1503 1.373 . S
C1502 C1504 1.389 . S
C1503 H1482 0.950 . S
C1503 C1502 1.373 . S
C1503 C1519 1.377 . S
C1504 C1502 1.389 . S
C1504 C1505 1.524 . S
C1504 C1518 1.377 . S
C1505 C1504 1.524 . S
C1505 C1506 1.397 . S
C1505 C1510 1.363 . S
C1506 H1483 0.950 . S
C1506 C1505 1.397 . S
C1506 C1507 1.334 . S
C1507 H1484 0.950 . S
C1507 C1506 1.334 . S
C1507 C1508 1.287 . S
C1508 C1507 1.287 . S
C1508 C1509 1.524 . S
C1508 H1527 0.913 . S
C1509 H1485 0.950 . S
C1509 C1508 1.524 . S
C1509 C1510 1.415 . S
C1510 H1486 0.950 . S
C1510 C1505 1.363 . S
C1510 C1509 1.415 . S
C1511 H1487 0.951 . S
C1511 C1512 1.366 . S
C1511 C1513 1.388 . S
C1512 C1511 1.366 . S
C1512 C1516 1.385 . S
C1513 H1488 0.951 . S
C1513 C1511 1.388 . S
C1513 C1514 1.366 . S
C1514 C1513 1.366 . S
C1514 C1515 1.414 . S
C1514 C1517 1.499 . S
C1515 H1489 0.950 . S
C1515 C1514 1.414 . S
C1515 C1516 1.374 . S
C1516 H1490 0.950 . S
C1516 C1512 1.385 . S
C1516 C1515 1.374 . S
C1517 C1514 1.499 . S
C1517 C1518 1.373 . S
C1517 C1519 1.389 . S
C1518 H1491 0.950 . S
C1518 C1504 1.377 . S
C1518 C1517 1.373 . S
C1519 C1503 1.377 . S
C1519 C1517 1.389 . S
C1519 C1520 1.524 . S
C1520 C1519 1.524 . S
C1520 C1521 1.397 . S
C1520 C1525 1.363 . S
C1521 H1492 0.950 . S
C1521 C1520 1.397 . S
C1521 C1522 1.334 . S
C1522 H1493 0.950 . S
C1522 C1521 1.334 . S
C1522 C1523 1.287 . S
C1523 C1522 1.287 . S
C1523 C1524 1.524 . S
C1523 H1526 0.999 . S
C1524 H1494 0.950 . S
C1524 C1523 1.524 . S
C1524 C1525 1.415 . S
C1525 H1495 0.950 . S
C1525 C1520 1.363 . S
C1525 C1524 1.415 . S
H1526 C1523 0.999 . S
H1527 C1508 0.913 . S
H1528 C1546 0.951 . S
H1529 C1548 0.951 . S
H1530 C1550 0.950 . S
H1531 C1551 0.950 . S
H1532 C1553 0.950 . S
H1533 C1556 0.950 . S
H1534 C1557 0.950 . S
H1535 C1559 0.950 . S
H1536 C1560 0.950 . S
H1537 C1561 0.951 . S
H1538 C1563 0.951 . S
H1539 C1565 0.950 . S
H1540 C1566 0.950 . S
H1541 C1568 0.950 . S
H1542 C1571 0.950 . S
H1543 C1572 0.950 . S
H1544 C1574 0.950 . S
H1545 C1575 0.950 . S
C1546 H1528 0.951 . S
C1546 C1547 1.366 . S
C1546 C1548 1.388 . S
C1547 C1546 1.366 . S
C1547 C1551 1.385 . S
C1548 H1529 0.951 . S
C1548 C1546 1.388 . S
C1548 C1549 1.366 . S
C1549 C1548 1.366 . S
C1549 C1550 1.414 . S
C1549 C1552 1.499 . S
C1550 H1530 0.950 . S
C1550 C1549 1.414 . S
C1550 C1551 1.374 . S
C1551 H1531 0.950 . S
C1551 C1547 1.385 . S
C1551 C1550 1.374 . S
C1552 C1549 1.499 . S
C1552 C1553 1.373 . S
C1552 C1554 1.389 . S
C1553 H1532 0.950 . S
C1553 C1552 1.373 . S
C1553 C1569 1.377 . S
C1554 C1552 1.389 . S
C1554 C1555 1.524 . S
C1554 C1568 1.377 . S
C1555 C1554 1.524 . S
C1555 C1556 1.397 . S
C1555 C1560 1.363 . S
C1556 H1533 0.950 . S
C1556 C1555 1.397 . S
C1556 C1557 1.334 . S
C1557 H1534 0.950 . S
C1557 C1556 1.334 . S
C1557 C1558 1.287 . S
C1558 C1557 1.287 . S
C1558 C1559 1.524 . S
C1558 H1577 0.913 . S
C1559 H1535 0.950 . S
C1559 C1558 1.524 . S
C1559 C1560 1.415 . S
C1560 H1536 0.950 . S
C1560 C1555 1.363 . S
C1560 C1559 1.415 . S
C1561 H1537 0.951 . S
C1561 C1562 1.366 . S
C1561 C1563 1.388 . S
C1562 C1561 1.366 . S
C1562 C1566 1.385 . S
C1563 H1538 0.951 . S
C1563 C1561 1.388 . S
C1563 C1564 1.366 . S
C1564 C1563 1.366 . S
C1564 C1565 1.414 . S
C1564 C1567 1.499 . S
C1565 H1539 0.950 . S
C1565 C1564 1.414 . S
C1565 C1566 1.374 . S
C1566 H1540 0.950 . S
C1566 C1562 1.385 . S
C1566 C1565 1.374 . S
C1567 C1564 1.499 . S
C1567 C1568 1.373 . S
C1567 C1569 1.389 . S
C1568 H1541 0.950 . S
C1568 C1554 1.377 . S
C1568 C1567 1.373 . S
C1569 C1553 1.377 . S
C1569 C1567 1.389 . S
C1569 C1570 1.524 . S
C1570 C1569 1.524 . S
C1570 C1571 1.397 . S
C1570 C1575 1.363 . S
C1571 H1542 0.950 . S
C1571 C1570 1.397 . S
C1571 C1572 1.334 . S
C1572 H1543 0.950 . S
C1572 C1571 1.334 . S
C1572 C1573 1.287 . S
C1573 C1572 1.287 . S
C1573 C1574 1.524 . S
C1573 H1576 0.999 . S
C1574 H1544 0.950 . S
C1574 C1573 1.524 . S
C1574 C1575 1.415 . S
C1575 H1545 0.950 . S
C1575 C1570 1.363 . S
C1575 C1574 1.415 . S
H1576 C1573 0.999 . S
H1577 C1558 0.913 . S
H1578 C1596 0.951 . S
H1579 C1598 0.951 . S
H1580 C1600 0.950 . S
H1581 C1601 0.950 . S
H1582 C1603 0.950 . S
H1583 C1606 0.950 . S
H1584 C1607 0.950 . S
H1585 C1609 0.950 . S
H1586 C1610 0.950 . S
H1587 C1611 0.951 . S
H1588 C1613 0.951 . S
H1589 C1615 0.950 . S
H1590 C1616 0.950 . S
H1591 C1618 0.950 . S
H1592 C1621 0.950 . S
H1593 C1622 0.950 . S
H1594 C1624 0.950 . S
H1595 C1625 0.950 . S
C1596 H1578 0.951 . S
C1596 C1597 1.366 . S
C1596 C1598 1.388 . S
C1597 C1596 1.366 . S
C1597 C1601 1.385 . S
C1598 H1579 0.951 . S
C1598 C1596 1.388 . S
C1598 C1599 1.366 . S
C1599 C1598 1.366 . S
C1599 C1600 1.414 . S
C1599 C1602 1.499 . S
C1600 H1580 0.950 . S
C1600 C1599 1.414 . S
C1600 C1601 1.374 . S
C1601 H1581 0.950 . S
C1601 C1597 1.385 . S
C1601 C1600 1.374 . S
C1602 C1599 1.499 . S
C1602 C1603 1.373 . S
C1602 C1604 1.389 . S
C1603 H1582 0.950 . S
C1603 C1602 1.373 . S
C1603 C1619 1.377 . S
C1604 C1602 1.389 . S
C1604 C1605 1.524 . S
C1604 C1618 1.377 . S
C1605 C1604 1.524 . S
C1605 C1606 1.397 . S
C1605 C1610 1.363 . S
C1606 H1583 0.950 . S
C1606 C1605 1.397 . S
C1606 C1607 1.334 . S
C1607 H1584 0.950 . S
C1607 C1606 1.334 . S
C1607 C1608 1.287 . S
C1608 C1607 1.287 . S
C1608 C1609 1.524 . S
C1608 H1627 0.913 . S
C1609 H1585 0.950 . S
C1609 C1608 1.524 . S
C1609 C1610 1.415 . S
C1610 H1586 0.950 . S
C1610 C1605 1.363 . S
C1610 C1609 1.415 . S
C1611 H1587 0.951 . S
C1611 C1612 1.366 . S
C1611 C1613 1.388 . S
C1612 C1611 1.366 . S
C1612 C1616 1.385 . S
C1613 H1588 0.951 . S
C1613 C1611 1.388 . S
C1613 C1614 1.366 . S
C1614 C1613 1.366 . S
C1614 C1615 1.414 . S
C1614 C1617 1.499 . S
C1615 H1589 0.950 . S
C1615 C1614 1.414 . S
C1615 C1616 1.374 . S
C1616 H1590 0.950 . S
C1616 C1612 1.385 . S
C1616 C1615 1.374 . S
C1617 C1614 1.499 . S
C1617 C1618 1.373 . S
C1617 C1619 1.389 . S
C1618 H1591 0.950 . S
C1618 C1604 1.377 . S
C1618 C1617 1.373 . S
C1619 C1603 1.377 . S
C1619 C1617 1.389 . S
C1619 C1620 1.524 . S
C1620 C1619 1.524 . S
C1620 C1621 1.397 . S
C1620 C1625 1.363 . S
C1621 H1592 0.950 . S
C1621 C1620 1.397 . S
C1621 C1622 1.334 . S
C1622 H1593 0.950 . S
C1622 C1621 1.334 . S
C1622 C1623 1.287 . S
C1623 C1622 1.287 . S
C1623 C1624 1.524 . S
C1623 H1626 0.999 . S
C1624 H1594 0.950 . S
C1624 C1623 1.524 . S
C1624 C1625 1.415 . S
C1625 H1595 0.950 . S
C1625 C1620 1.363 . S
C1625 C1624 1.415 . S
H1626 C1623 0.999 . S
H1627 C1608 0.913 . S
C462 C327 1.544 . S
C447 C15 1.593 . S
C512 C346 1.549 . S
C497 C55 1.599 . S
C562 C336 1.603 . S
C547 C101 1.625 . S
C612 C352 1.624 . S
C597 C141 1.681 . S
C662 C363 1.522 . S
C647 C2 1.556 . S
C712 C388 1.487 . S
C697 C61 1.527 . S
C747 C95 1.665 . S
C762 C406 1.592 . S
C812 C426 1.484 . S
C797 C135 1.546 . S
C862 C372 1.514 . S
C847 C42 1.544 . S
C897 C82 1.529 . S
C912 C382 1.497 . S
C962 C400 1.605 . S
C947 C122 1.675 . S
C1012 C417 1.489 . S
C997 C21 1.530 . S
C1047 C162 1.714 . S
C1062 C345 1.643 . S
C1112 C328 1.620 . S
C1097 C221 1.679 . S
C1147 C255 1.646 . S
C1162 C354 1.566 . S
C1197 C282 1.609 . S
C1212 C334 1.575 . S
C1262 C408 1.635 . S
C1247 C181 1.747 . S
C1312 C418 1.502 . S
C1297 C202 1.561 . S
C1362 C364 1.543 . S
C1347 C242 1.611 . S
C1397 C301 1.544 . S
C1412 C381 1.496 . S
C1462 C399 1.620 . S
C1447 C215 1.716 . S
C1512 C424 1.502 . S
C1497 C261 1.566 . S
C1562 C370 1.555 . S
C1547 C295 1.620 . S
C1597 C175 1.564 . S
C1612 C390 1.491 . S
