# Generated by pormake.
# Topology pyr, (3,6)-cn, num edge types: 1
# Building blocks:
#     Node 0, Type 0, BuildingBlock: VETTIZ_charged_linker_0, # of connection points: 3
#     Node 1, Type 0, BuildingBlock: VETTIZ_charged_linker_0, # of connection points: 3
#     Node 2, Type 0, BuildingBlock: VETTIZ_charged_linker_0, # of connection points: 3
#     Node 3, Type 0, BuildingBlock: VETTIZ_charged_linker_0, # of connection points: 3
#     Node 4, Type 0, BuildingBlock: VETTIZ_charged_linker_0, # of connection points: 3
#     Node 5, Type 0, BuildingBlock: VETTIZ_charged_linker_0, # of connection points: 3
#     Node 6, Type 0, BuildingBlock: VETTIZ_charged_linker_0, # of connection points: 3
#     Node 7, Type 0, BuildingBlock: VETTIZ_charged_linker_0, # of connection points: 3
#     Node 8, Type 1, BuildingBlock: BETDEL_clean_sbu_0, # of connection points: 6
#     Node 9, Type 1, BuildingBlock: BETDEL_clean_sbu_0, # of connection points: 6
#     Node 10, Type 1, BuildingBlock: BETDEL_clean_sbu_0, # of connection points: 6
#     Node 11, Type 1, BuildingBlock: BETDEL_clean_sbu_0, # of connection points: 6
#     Edge 12, Type (0, 1), BuildingBlock: ZUJKAS_clean_linker_0, # of connection points: 2
#     Edge 13, Type (0, 1), BuildingBlock: ZUJKAS_clean_linker_0, # of connection points: 2
#     Edge 14, Type (0, 1), BuildingBlock: ZUJKAS_clean_linker_0, # of connection points: 2
#     Edge 15, Type (0, 1), BuildingBlock: ZUJKAS_clean_linker_0, # of connection points: 2
#     Edge 16, Type (0, 1), BuildingBlock: ZUJKAS_clean_linker_0, # of connection points: 2
#     Edge 17, Type (0, 1), BuildingBlock: ZUJKAS_clean_linker_0, # of connection points: 2
#     Edge 18, Type (0, 1), BuildingBlock: ZUJKAS_clean_linker_0, # of connection points: 2
#     Edge 19, Type (0, 1), BuildingBlock: ZUJKAS_clean_linker_0, # of connection points: 2
#     Edge 20, Type (0, 1), BuildingBlock: ZUJKAS_clean_linker_0, # of connection points: 2
#     Edge 21, Type (0, 1), BuildingBlock: ZUJKAS_clean_linker_0, # of connection points: 2
#     Edge 22, Type (0, 1), BuildingBlock: ZUJKAS_clean_linker_0, # of connection points: 2
#     Edge 23, Type (0, 1), BuildingBlock: ZUJKAS_clean_linker_0, # of connection points: 2
#     Edge 24, Type (0, 1), BuildingBlock: ZUJKAS_clean_linker_0, # of connection points: 2
#     Edge 25, Type (0, 1), BuildingBlock: ZUJKAS_clean_linker_0, # of connection points: 2
#     Edge 26, Type (0, 1), BuildingBlock: ZUJKAS_clean_linker_0, # of connection points: 2
#     Edge 27, Type (0, 1), BuildingBlock: ZUJKAS_clean_linker_0, # of connection points: 2
#     Edge 28, Type (0, 1), BuildingBlock: ZUJKAS_clean_linker_0, # of connection points: 2
#     Edge 29, Type (0, 1), BuildingBlock: ZUJKAS_clean_linker_0, # of connection points: 2
#     Edge 30, Type (0, 1), BuildingBlock: ZUJKAS_clean_linker_0, # of connection points: 2
#     Edge 31, Type (0, 1), BuildingBlock: ZUJKAS_clean_linker_0, # of connection points: 2
#     Edge 32, Type (0, 1), BuildingBlock: ZUJKAS_clean_linker_0, # of connection points: 2
#     Edge 33, Type (0, 1), BuildingBlock: ZUJKAS_clean_linker_0, # of connection points: 2
#     Edge 34, Type (0, 1), BuildingBlock: ZUJKAS_clean_linker_0, # of connection points: 2
#     Edge 35, Type (0, 1), BuildingBlock: ZUJKAS_clean_linker_0, # of connection points: 2
# Relax obj value: 0.025
# Max RMSD: 0.089
# Mean RMSD: 0.038
data_MOF--net-pyr--node1-BETDEL_clean_sbu_0--node2-VETTIZ_charged_linker_0--edge1-ZUJKAS_clean_linker_0
_symmetry_space_group_name_H-M    P1
_symmetry_Int_Tables_number       1
_symmetry_cell_setting            triclinic
loop_
_symmetry_equiv_pos_as_xyz
'x, y, z'
_cell_length_a     56.13562
_cell_length_b     58.072073
_cell_length_c     53.573042
_cell_angle_alpha  91.643618
_cell_angle_beta   89.401203
_cell_angle_gamma 94.522503
loop_
_atom_site_label
_atom_site_type_symbol
_atom_site_fract_x
_atom_site_fract_y
_atom_site_fract_z
_atom_type_partial_charge
C0 C 0.16021 0.16138 0.23372 0.0
C1 C 0.13845 0.16981 0.24151 0.0
C2 C 0.13165 0.19053 0.23165 0.0
C3 C 0.16723 0.19319 0.20553 0.0
C4 C 0.17423 0.17326 0.21579 0.0
C5 C 0.19737 0.16611 0.20482 0.0
H6 H 0.28487 0.18114 0.11785 0.0
C7 C 0.18514 0.20053 0.18638 0.0
C8 C 0.2029 0.18482 0.18595 0.0
H9 H 0.27598 0.12839 0.17333 0.0
H10 H 0.24169 0.14595 0.19044 0.0
H11 H 0.27294 0.22412 0.15527 0.0
H12 H 0.23045 0.18025 0.10388 0.0
H13 H 0.22167 0.20837 0.10101 0.0
H14 H 0.25203 0.20247 0.09354 0.0
H15 H 0.27598 0.22628 0.12201 0.0
H16 H 0.25434 0.24173 0.13947 0.0
C17 C 0.21616 0.16721 0.2259 0.0
C18 C 0.19244 0.14191 0.19208 0.0
C19 C 0.171 0.26837 0.13245 0.0
C20 C 0.18313 0.27801 0.11169 0.0
C21 C 0.20472 0.26926 0.10368 0.0
C22 C 0.21389 0.25092 0.11598 0.0
C23 C 0.2012 0.24107 0.13633 0.0
C24 C 0.18025 0.24998 0.14436 0.0
C25 C 0.16872 0.23697 0.16573 0.0
C26 C 0.18621 0.21876 0.16924 0.0
C27 C 0.20516 0.22121 0.15197 0.0
C28 C 0.16804 0.25378 0.18867 0.0
C29 C 0.14386 0.22627 0.15709 0.0
C30 C 0.27548 0.17333 0.13364 0.0
C31 C 0.28308 0.15327 0.14415 0.0
C32 C 0.27063 0.14394 0.165 0.0
C33 C 0.25059 0.15406 0.17479 0.0
C34 C 0.24278 0.17367 0.16358 0.0
C35 C 0.25539 0.18319 0.14361 0.0
C36 C 0.24449 0.20405 0.13409 0.0
C37 C 0.22316 0.20537 0.15154 0.0
C38 C 0.22215 0.18743 0.16863 0.0
C39 C 0.26282 0.22524 0.13765 0.0
C40 C 0.23684 0.19877 0.10665 0.0
H41 H 0.13962 0.21777 0.20669 0.0
H42 H 0.16617 0.14573 0.24128 0.0
H43 H 0.17479 0.14046 0.18267 0.0
H44 H 0.20544 0.13828 0.17718 0.0
H45 H 0.19221 0.12806 0.20598 0.0
H46 H 0.21301 0.18124 0.23985 0.0
H47 H 0.21545 0.15072 0.23599 0.0
H48 H 0.23457 0.17141 0.219 0.0
H49 H 0.15414 0.27444 0.13878 0.0
H50 H 0.21445 0.27655 0.08783 0.0
H51 H 0.23031 0.2449 0.10892 0.0
H52 H 0.18428 0.26607 0.18921 0.0
H53 H 0.15225 0.26414 0.18808 0.0
H54 H 0.16802 0.24488 0.20662 0.0
H55 H 0.14422 0.22112 0.13693 0.0
H56 H 0.138 0.21019 0.16665 0.0
H57 H 0.13002 0.23878 0.15976 0.0
H58 H 0.11494 0.19734 0.23727 0.0
C59 C 0.14594 0.20228 0.21376 0.0
C60 C 0.23877 0.85566 0.60132 0.0
C61 C 0.22759 0.87444 0.61208 0.0
C62 C 0.23636 0.88461 0.63469 0.0
C63 C 0.26646 0.85706 0.63593 0.0
C64 C 0.25807 0.84722 0.61359 0.0
C65 C 0.27155 0.82688 0.60532 0.0
H66 H 0.35352 0.75185 0.6322 0.0
C67 C 0.28619 0.84391 0.64425 0.0
C68 C 0.28934 0.82618 0.62641 0.0
H69 H 0.3093 0.75106 0.56667 0.0
H70 H 0.29314 0.7867 0.58116 0.0
H71 H 0.36974 0.80508 0.63104 0.0
H72 H 0.31444 0.7665 0.6718 0.0
H73 H 0.32872 0.78676 0.69281 0.0
H74 H 0.34573 0.76526 0.67772 0.0
H75 H 0.37608 0.78983 0.65854 0.0
H76 H 0.36798 0.81934 0.66024 0.0
C77 C 0.2841 0.83251 0.58011 0.0
C78 C 0.25368 0.80515 0.60435 0.0
C79 C 0.32623 0.86513 0.72727 0.0
C80 C 0.3447 0.85577 0.74024 0.0
C81 C 0.35595 0.83707 0.72923 0.0
C82 C 0.34866 0.8276 0.70598 0.0
C83 C 0.32988 0.83686 0.6935 0.0
C84 C 0.31922 0.8555 0.704 0.0
C85 C 0.29981 0.86327 0.68783 0.0
C86 C 0.30053 0.84611 0.66597 0.0
C87 C 0.31803 0.83062 0.66953 0.0
C88 C 0.30717 0.88832 0.67993 0.0
C89 C 0.2759 0.86035 0.70261 0.0
C90 C 0.34023 0.7593 0.62107 0.0
C91 C 0.33225 0.74856 0.59859 0.0
C92 C 0.3155 0.75906 0.58418 0.0
C93 C 0.30612 0.77963 0.59268 0.0
C94 C 0.31373 0.78978 0.61572 0.0
C95 C 0.3309 0.77981 0.62917 0.0
C96 C 0.33755 0.79317 0.65279 0.0
C97 C 0.32105 0.81251 0.65176 0.0
C98 C 0.30698 0.81041 0.63015 0.0
C99 C 0.36423 0.80227 0.65081 0.0
C100 C 0.33151 0.77721 0.67507 0.0
H101 H 0.2615 0.88458 0.66378 0.0
H102 H 0.23232 0.84741 0.58403 0.0
H103 H 0.24104 0.8053 0.62048 0.0
H104 H 0.26238 0.78887 0.60567 0.0
H105 H 0.24298 0.80444 0.58698 0.0
H106 H 0.29033 0.85115 0.57948 0.0
H107 H 0.27176 0.82852 0.56421 0.0
H108 H 0.30037 0.82325 0.57704 0.0
H109 H 0.3171 0.8794 0.73522 0.0
H110 H 0.37057 0.82984 0.73854 0.0
H111 H 0.35786 0.81333 0.69872 0.0
H112 H 0.32686 0.89102 0.67722 0.0
H113 H 0.30192 0.90111 0.69437 0.0
H114 H 0.29961 0.89247 0.66179 0.0
H115 H 0.27541 0.84502 0.71465 0.0
H116 H 0.26017 0.8571 0.69045 0.0
H117 H 0.27343 0.87571 0.71492 0.0
H118 H 0.22829 0.89933 0.64311 0.0
C119 C 0.25575 0.87609 0.64661 0.0
C120 C 0.62864 0.25903 0.87567 0.0
C121 C 0.60611 0.24852 0.86897 0.0
C122 C 0.59263 0.25908 0.85107 0.0
C123 C 0.62421 0.28987 0.84661 0.0
C124 C 0.63716 0.27971 0.86454 0.0
C125 C 0.66015 0.2937 0.87067 0.0
H126 H 0.73621 0.38821 0.85204 0.0
C127 C 0.6382 0.3113 0.83882 0.0
C128 C 0.65918 0.31368 0.85311 0.0
H129 H 0.74214 0.33436 0.90526 0.0
H130 H 0.70547 0.31472 0.89024 0.0
H131 H 0.67949 0.39268 0.86043 0.0
H132 H 0.7197 0.3549 0.80666 0.0
H133 H 0.69541 0.36439 0.79057 0.0
H134 H 0.71713 0.38537 0.80452 0.0
H135 H 0.69745 0.40637 0.83631 0.0
H136 H 0.66681 0.39584 0.83097 0.0
C137 C 0.65907 0.30178 0.89848 0.0
C138 C 0.68111 0.27874 0.86405 0.0
C139 C 0.60848 0.35973 0.76895 0.0
C140 C 0.61808 0.38012 0.75762 0.0
C141 C 0.64021 0.39045 0.7662 0.0
C142 C 0.65242 0.38094 0.7856 0.0
C143 C 0.64259 0.36072 0.79677 0.0
C144 C 0.621 0.35037 0.78841 0.0
C145 C 0.61344 0.32888 0.80261 0.0
C146 C 0.6342 0.32793 0.82055 0.0
C147 C 0.65115 0.34674 0.81707 0.0
C148 C 0.58975 0.33278 0.81658 0.0
C149 C 0.61178 0.30807 0.78385 0.0
C150 C 0.72952 0.37229 0.86063 0.0
C151 C 0.74224 0.3629 0.87994 0.0
C152 C 0.73298 0.3419 0.89019 0.0
C153 C 0.71151 0.33056 0.88155 0.0
C154 C 0.69895 0.34025 0.86241 0.0
C155 C 0.70805 0.36074 0.85222 0.0
C156 C 0.69234 0.36839 0.83191 0.0
C157 C 0.67211 0.34936 0.83192 0.0
C158 C 0.67611 0.33291 0.8498 0.0
C159 C 0.68358 0.39213 0.84006 0.0
C160 C 0.70678 0.36849 0.80707 0.0
H161 H 0.59055 0.28666 0.82617 0.0
H162 H 0.63921 0.25157 0.8897 0.0
H163 H 0.6775 0.26861 0.84636 0.0
H164 H 0.69813 0.2891 0.86071 0.0
H165 H 0.68376 0.26631 0.87895 0.0
H166 H 0.64039 0.30432 0.90448 0.0
H167 H 0.66599 0.28887 0.91087 0.0
H168 H 0.66892 0.31876 0.90211 0.0
H169 H 0.59146 0.35137 0.76304 0.0
H170 H 0.64838 0.40582 0.75762 0.0
H171 H 0.66914 0.38972 0.7911 0.0
H172 H 0.58923 0.35116 0.82288 0.0
H173 H 0.5741 0.32839 0.80433 0.0
H174 H 0.58751 0.32285 0.83383 0.0
H175 H 0.62725 0.30917 0.77067 0.0
H176 H 0.61234 0.29132 0.79291 0.0
H177 H 0.5952 0.30772 0.77266 0.0
H178 H 0.57523 0.25128 0.84562 0.0
C179 C 0.6016 0.27958 0.83976 0.0
C180 C 0.88146 0.73342 0.3549 0.0
C181 C 0.87351 0.74536 0.37626 0.0
C182 C 0.85348 0.7357 0.38954 0.0
C183 C 0.84986 0.70284 0.36046 0.0
C184 C 0.86947 0.71227 0.34742 0.0
C185 C 0.87583 0.69721 0.3254 0.0
H186 H 0.85365 0.59883 0.25552 0.0
C187 C 0.84157 0.68067 0.34787 0.0
C188 C 0.85675 0.67725 0.32732 0.0
H189 H 0.90955 0.65344 0.24509 0.0
H190 H 0.89527 0.6743 0.28103 0.0
H191 H 0.85765 0.5975 0.31512 0.0
H192 H 0.81193 0.63266 0.26745 0.0
H193 H 0.79435 0.62229 0.29264 0.0
H194 H 0.80797 0.60207 0.27182 0.0
H195 H 0.83388 0.58256 0.29749 0.0
H196 H 0.82873 0.59493 0.32814 0.0
C197 C 0.90123 0.68941 0.32955 0.0
C198 C 0.87321 0.71097 0.30136 0.0
C199 C 0.76895 0.63306 0.38172 0.0
C200 C 0.7568 0.61197 0.37395 0.0
C201 C 0.76544 0.60011 0.35277 0.0
C202 C 0.78564 0.60908 0.33958 0.0
C203 C 0.79746 0.63022 0.34752 0.0
C204 C 0.78908 0.64182 0.36829 0.0
C205 C 0.80383 0.6641 0.37394 0.0
C206 C 0.82236 0.66401 0.35308 0.0
C207 C 0.81856 0.6441 0.33767 0.0
C208 C 0.81524 0.66237 0.39997 0.0
C209 C 0.78748 0.68424 0.37176 0.0
C210 C 0.86269 0.61538 0.26081 0.0
C211 C 0.88285 0.6244 0.24738 0.0
C212 C 0.89422 0.64589 0.25524 0.0
C213 C 0.88581 0.65807 0.27608 0.0
C214 C 0.86575 0.64876 0.28936 0.0
C215 C 0.85451 0.62778 0.28162 0.0
C216 C 0.83344 0.62055 0.298 0.0
C217 C 0.83396 0.64059 0.3169 0.0
C218 C 0.85293 0.65707 0.31175 0.0
C219 C 0.83842 0.59761 0.3103 0.0
C220 C 0.81065 0.61911 0.28178 0.0
H221 H 0.82654 0.70824 0.39269 0.0
H222 H 0.89695 0.74018 0.34443 0.0
H223 H 0.8578 0.72187 0.30303 0.0
H224 H 0.8694 0.69976 0.28466 0.0
H225 H 0.88948 0.72261 0.29779 0.0
H226 H 0.90425 0.6865 0.34967 0.0
H227 H 0.91517 0.70272 0.32333 0.0
H228 H 0.9042 0.67275 0.32005 0.0
H229 H 0.76306 0.64254 0.39805 0.0
H230 H 0.75631 0.58402 0.34609 0.0
H231 H 0.79118 0.59923 0.3236 0.0
H232 H 0.82 0.64445 0.40316 0.0
H233 H 0.80271 0.66709 0.41512 0.0
H234 H 0.83221 0.67318 0.40206 0.0
H235 H 0.77442 0.68065 0.35639 0.0
H236 H 0.79739 0.70072 0.36699 0.0
H237 H 0.77717 0.6868 0.3893 0.0
H238 H 0.84676 0.74463 0.40585 0.0
C239 C 0.84165 0.71458 0.38177 0.0
C240 C 0.8162 0.73995 0.88332 0.0
C241 C 0.83698 0.72935 0.87623 0.0
C242 C 0.85007 0.73722 0.85512 0.0
C243 C 0.82264 0.76675 0.84952 0.0
C244 C 0.80934 0.75851 0.86968 0.0
C245 C 0.78802 0.77206 0.87496 0.0
H246 H 0.72632 0.86406 0.85029 0.0
C247 C 0.81148 0.787 0.84031 0.0
C248 C 0.79104 0.79008 0.85496 0.0
H249 H 0.71026 0.81225 0.9057 0.0
H250 H 0.74412 0.79204 0.89169 0.0
H251 H 0.73866 0.82805 0.80542 0.0
H252 H 0.78165 0.86919 0.85863 0.0
H253 H 0.79726 0.87033 0.83011 0.0
H254 H 0.76822 0.88151 0.83239 0.0
H255 H 0.74414 0.85879 0.80326 0.0
H256 H 0.76428 0.83922 0.7894 0.0
C257 C 0.76513 0.75568 0.87106 0.0
C258 C 0.79067 0.78302 0.90161 0.0
C259 C 0.85258 0.8346 0.7719 0.0
C260 C 0.84724 0.85506 0.7605 0.0
C261 C 0.82603 0.86521 0.76735 0.0
C262 C 0.81059 0.85536 0.7855 0.0
C263 C 0.81641 0.83517 0.79707 0.0
C264 C 0.83698 0.82501 0.79005 0.0
C265 C 0.84031 0.80367 0.80444 0.0
C266 C 0.81846 0.80285 0.82142 0.0
C267 C 0.8046 0.82138 0.81706 0.0
C268 C 0.83962 0.78272 0.78578 0.0
C269 C 0.86387 0.80791 0.81931 0.0
C270 C 0.72988 0.84818 0.85918 0.0
C271 C 0.71563 0.83977 0.87917 0.0
C272 C 0.72115 0.81924 0.89047 0.0
C273 C 0.74076 0.80748 0.88225 0.0
C274 C 0.75512 0.8164 0.86258 0.0
C275 C 0.74941 0.83628 0.85124 0.0
C276 C 0.76673 0.84335 0.83076 0.0
C277 C 0.78379 0.8244 0.83166 0.0
C278 C 0.77697 0.80875 0.8504 0.0
C279 C 0.75288 0.84253 0.80584 0.0
C280 C 0.7791 0.8674 0.83807 0.0
H281 H 0.8539 0.76121 0.82607 0.0
H282 H 0.8056 0.73406 0.89924 0.0
H283 H 0.80962 0.78913 0.90535 0.0
H284 H 0.78062 0.79848 0.90445 0.0
H285 H 0.78492 0.77029 0.91599 0.0
H286 H 0.76785 0.74243 0.85609 0.0
H287 H 0.76 0.7464 0.88839 0.0
H288 H 0.74981 0.76475 0.86471 0.0
H289 H 0.86855 0.82619 0.76681 0.0
H290 H 0.8216 0.88111 0.75906 0.0
H291 H 0.79487 0.86405 0.79003 0.0
H292 H 0.82768 0.78523 0.7698 0.0
H293 H 0.85768 0.78017 0.77803 0.0
H294 H 0.83216 0.7665 0.79417 0.0
H295 H 0.86609 0.82601 0.8268 0.0
H296 H 0.86443 0.7971 0.83585 0.0
H297 H 0.87961 0.805 0.80721 0.0
H298 H 0.86625 0.72945 0.8494 0.0
C299 C 0.84298 0.75581 0.84172 0.0
C300 C 0.76183 0.14927 0.40807 0.0
C301 C 0.77047 0.12796 0.40104 0.0
C302 C 0.75815 0.11366 0.383 0.0
C303 C 0.72969 0.14236 0.37818 0.0
C304 C 0.74122 0.15595 0.39667 0.0
C305 C 0.72889 0.1776 0.40246 0.0
H306 H 0.64077 0.24594 0.37562 0.0
C307 C 0.70936 0.15448 0.36951 0.0
C308 C 0.70846 0.17494 0.38397 0.0
H309 H 0.69501 0.25779 0.4323 0.0
H310 H 0.7106 0.22124 0.42107 0.0
H311 H 0.62839 0.19171 0.38485 0.0
H312 H 0.6753 0.22969 0.33413 0.0
H313 H 0.66361 0.20517 0.31726 0.0
H314 H 0.64366 0.22575 0.32937 0.0
H315 H 0.6178 0.20671 0.35885 0.0
H316 H 0.62574 0.17725 0.35561 0.0
C317 C 0.71983 0.1768 0.42986 0.0
C318 C 0.74661 0.19864 0.3968 0.0
C319 C 0.66485 0.12494 0.29158 0.0
C320 C 0.64632 0.1335 0.27803 0.0
C321 C 0.63499 0.15266 0.28777 0.0
C322 C 0.64271 0.16374 0.31013 0.0
C323 C 0.66201 0.15566 0.32286 0.0
C324 C 0.67237 0.13623 0.31388 0.0
C325 C 0.69242 0.12993 0.33012 0.0
C326 C 0.69307 0.14943 0.34967 0.0
C327 C 0.67531 0.16445 0.34522 0.0
C328 C 0.68521 0.10609 0.34153 0.0
C329 C 0.71554 0.13066 0.31402 0.0
C330 C 0.65612 0.2408 0.38554 0.0
C331 C 0.66676 0.25489 0.40476 0.0
C332 C 0.68639 0.24721 0.41751 0.0
C333 C 0.69549 0.22603 0.41088 0.0
C334 C 0.68489 0.2124 0.39125 0.0
C335 C 0.66547 0.21985 0.37907 0.0
C336 C 0.65675 0.20355 0.35829 0.0
C337 C 0.67396 0.18486 0.36016 0.0
C338 C 0.69044 0.19011 0.37944 0.0
C339 C 0.63075 0.19434 0.36445 0.0
C340 C 0.65975 0.21657 0.3334 0.0
H341 H 0.7294 0.10927 0.35765 0.0
H342 H 0.77081 0.16033 0.42226 0.0
H343 H 0.75698 0.19536 0.37942 0.0
H344 H 0.73768 0.2145 0.39343 0.0
H345 H 0.75957 0.20217 0.41224 0.0
H346 H 0.71438 0.15875 0.43519 0.0
H347 H 0.73397 0.18379 0.44299 0.0
H348 H 0.70367 0.18621 0.43301 0.0
H349 H 0.67354 0.10995 0.28478 0.0
H350 H 0.6207 0.15959 0.27763 0.0
H351 H 0.63369 0.17852 0.3163 0.0
H352 H 0.66547 0.10235 0.34213 0.0
H353 H 0.69276 0.09186 0.33049 0.0
H354 H 0.69083 0.10531 0.36122 0.0
H355 H 0.71713 0.14641 0.30258 0.0
H356 H 0.732 0.13142 0.32514 0.0
H357 H 0.71545 0.11538 0.30106 0.0
H358 H 0.76458 0.09715 0.37743 0.0
C359 C 0.73782 0.12076 0.3715 0.0
C360 C 0.39364 0.64772 0.23212 0.0
C361 C 0.38467 0.6268 0.24278 0.0
C362 C 0.36316 0.61574 0.23342 0.0
C363 C 0.36017 0.64587 0.20342 0.0
C364 C 0.38115 0.65689 0.21254 0.0
C365 C 0.38811 0.67889 0.19901 0.0
H366 H 0.36237 0.75525 0.11111 0.0
C367 C 0.35147 0.65983 0.18318 0.0
C368 C 0.36774 0.67931 0.18051 0.0
H369 H 0.42437 0.75811 0.15876 0.0
H370 H 0.40942 0.72257 0.17761 0.0
H371 H 0.32383 0.73844 0.15208 0.0
H372 H 0.36324 0.70103 0.09716 0.0
H373 H 0.33387 0.68818 0.09748 0.0
H374 H 0.33925 0.71798 0.089 0.0
H375 H 0.31719 0.7384 0.11938 0.0
H376 H 0.30404 0.71632 0.13942 0.0
C377 C 0.38834 0.69932 0.21822 0.0
C378 C 0.41238 0.67625 0.18567 0.0
C379 C 0.27496 0.6322 0.13727 0.0
C380 C 0.26211 0.64149 0.11798 0.0
C381 C 0.27074 0.66301 0.10842 0.0
C382 C 0.29175 0.67484 0.11758 0.0
C383 C 0.30445 0.66521 0.13665 0.0
C384 C 0.2959 0.64431 0.14629 0.0
C385 C 0.3115 0.63691 0.16683 0.0
C386 C 0.33098 0.65665 0.16768 0.0
C387 C 0.32679 0.67315 0.14991 0.0
C388 C 0.29648 0.6358 0.19128 0.0
C389 C 0.32144 0.61374 0.15846 0.0
C390 C 0.37293 0.7482 0.12542 0.0
C391 C 0.39462 0.75982 0.1334 0.0
C392 C 0.40742 0.74994 0.15243 0.0
C393 C 0.39879 0.72912 0.16329 0.0
C394 C 0.37711 0.7178 0.15506 0.0
C395 C 0.36465 0.72734 0.13632 0.0
C396 C 0.34221 0.71274 0.12948 0.0
C397 C 0.34316 0.69291 0.14724 0.0
C398 C 0.36359 0.69595 0.16232 0.0
C399 C 0.32058 0.72712 0.13515 0.0
C400 C 0.34449 0.70459 0.10181 0.0
H401 H 0.33474 0.61574 0.20777 0.0
H402 H 0.41018 0.65665 0.23864 0.0
H403 H 0.41363 0.65819 0.17855 0.0
H404 H 0.41491 0.68696 0.16901 0.0
H405 H 0.42753 0.68052 0.19861 0.0
H406 H 0.37298 0.69697 0.23143 0.0
H407 H 0.405 0.70062 0.22936 0.0
H408 H 0.38642 0.71606 0.20954 0.0
H409 H 0.26908 0.61567 0.14501 0.0
H410 H 0.26109 0.67091 0.09396 0.0
H411 H 0.29725 0.6911 0.10946 0.0
H412 H 0.28304 0.64891 0.19167 0.0
H413 H 0.28665 0.61857 0.19319 0.0
H414 H 0.30733 0.63991 0.20815 0.0
H415 H 0.32596 0.61369 0.13819 0.0
H416 H 0.33824 0.61058 0.16784 0.0
H417 H 0.30809 0.59894 0.16168 0.0
H418 H 0.35548 0.59991 0.24146 0.0
C419 C 0.35096 0.62509 0.2139 0.0
C420 C 0.12952 0.26554 0.64736 0.0
C421 C 0.13806 0.25331 0.62644 0.0
C422 C 0.15781 0.26337 0.61299 0.0
C423 C 0.15992 0.29705 0.64096 0.0
C424 C 0.14057 0.2873 0.65414 0.0
C425 C 0.1333 0.3028 0.67543 0.0
H426 H 0.15028 0.40416 0.74119 0.0
C427 C 0.16696 0.32 0.65254 0.0
C428 C 0.15131 0.32354 0.67267 0.0
H429 H 0.09756 0.34728 0.75424 0.0
H430 H 0.11257 0.3262 0.71879 0.0
H431 H 0.14505 0.40408 0.68294 0.0
H432 H 0.19465 0.3717 0.72875 0.0
H433 H 0.21071 0.38519 0.70407 0.0
H434 H 0.19473 0.40245 0.72598 0.0
H435 H 0.17022 0.42022 0.69706 0.0
H436 H 0.17255 0.40575 0.66694 0.0
C437 C 0.1074 0.30903 0.67078 0.0
C438 C 0.13663 0.29025 0.70014 0.0
C439 C 0.23858 0.36882 0.61836 0.0
C440 C 0.2486 0.39123 0.62433 0.0
C441 C 0.23793 0.40431 0.64331 0.0
C442 C 0.21789 0.39503 0.65655 0.0
C443 C 0.20823 0.37248 0.65061 0.0
C444 C 0.21833 0.35993 0.6315 0.0
C445 C 0.20482 0.3368 0.6268 0.0
C446 C 0.1854 0.33726 0.64674 0.0
C447 C 0.18763 0.35811 0.66079 0.0
C448 C 0.19443 0.33634 0.60006 0.0
C449 C 0.22197 0.31776 0.63136 0.0
C450 C 0.14211 0.38708 0.73657 0.0
C451 C 0.12266 0.37743 0.75063 0.0
C452 C 0.11234 0.35528 0.74361 0.0
C453 C 0.12119 0.34298 0.72307 0.0
C454 C 0.14061 0.35286 0.70923 0.0
C455 C 0.15074 0.37456 0.71608 0.0
C456 C 0.17122 0.38236 0.69918 0.0
C457 C 0.17181 0.36171 0.68118 0.0
C458 C 0.15382 0.34449 0.68715 0.0
C459 C 0.16467 0.40434 0.68588 0.0
C460 C 0.19411 0.3858 0.71518 0.0
H461 H 0.18365 0.29169 0.60908 0.0
H462 H 0.1146 0.25835 0.65836 0.0
H463 H 0.15253 0.27997 0.69899 0.0
H464 H 0.14007 0.30226 0.71627 0.0
H465 H 0.12083 0.27819 0.70433 0.0
H466 H 0.10437 0.31124 0.65052 0.0
H467 H 0.09416 0.2952 0.67725 0.0
H468 H 0.10336 0.32563 0.67975 0.0
H469 H 0.24618 0.35856 0.60353 0.0
H470 H 0.24539 0.42161 0.6482 0.0
H471 H 0.21074 0.40577 0.67095 0.0
H472 H 0.19096 0.354 0.59421 0.0
H473 H 0.20695 0.32926 0.58618 0.0
H474 H 0.17687 0.32636 0.59863 0.0
H475 H 0.23291 0.32211 0.6483 0.0
H476 H 0.21254 0.30075 0.63486 0.0
H477 H 0.23442 0.31593 0.6153 0.0
H478 H 0.16458 0.25469 0.59655 0.0
C479 C 0.16877 0.28505 0.62016 0.0
Dy480 Dy 0.01131 0.01147 0.47086 0.0
C481 C 0.97744 0.96938 0.56487 0.0
C482 C 0.01563 0.03571 0.42822 0.0
Dy483 Dy 0.99289 0.99336 0.52421 0.0
O484 O 0.01858 0.01379 0.42972 0.0
O485 O 0.01 0.04429 0.44998 0.0
O486 O 0.04735 0.99607 0.47092 0.0
O487 O 0.02378 0.99215 0.50059 0.0
C488 C 0.04386 0.98715 0.49279 0.0
C489 C 0.96776 0.02468 0.50278 0.0
O490 O 0.01888 0.02254 0.53633 0.0
O491 O 0.02274 0.04063 0.49783 0.0
O492 O 0.96414 0.97455 0.54649 0.0
O493 O 0.9995 0.97735 0.56115 0.0
O494 O 0.96933 0.02282 0.52679 0.0
O495 O 0.97777 0.00859 0.49172 0.0
O496 O 0.98788 0.97992 0.45966 0.0
O497 O 0.98612 0.96238 0.4984 0.0
C498 C 0.02622 0.04034 0.52237 0.0
C499 C 0.98258 0.96179 0.47387 0.0
Dy500 Dy 0.52101 0.01535 0.02238 0.0
C501 C 0.44763 0.96538 0.95739 0.0
C502 C 0.55514 0.04212 0.0476 0.0
Dy503 Dy 0.48126 0.99317 0.98208 0.0
O504 O 0.53487 0.04906 0.04046 0.0
O505 O 0.55686 0.02071 0.04053 0.0
O506 O 0.5131 0.988 0.0516 0.0
O507 O 0.49443 0.98669 0.01876 0.0
C508 C 0.4965 0.97631 0.03874 0.0
C509 C 0.50622 0.03193 0.96562 0.0
O510 O 0.45923 0.01061 0.01105 0.0
O511 O 0.48902 0.03469 0.03126 0.0
O512 O 0.44634 0.98736 0.96202 0.0
O513 O 0.46719 0.95856 0.96651 0.0
O514 O 0.49005 0.02001 0.95239 0.0
O515 O 0.50768 0.02191 0.9859 0.0
O516 O 0.54299 0.9981 0.99323 0.0
O517 O 0.51324 0.97383 0.9733 0.0
C518 C 0.46625 0.02808 0.02659 0.0
C519 C 0.536 0.98042 0.97798 0.0
Dy520 Dy 0.51065 0.48435 0.48398 0.0
C521 C 0.46708 0.55587 0.53817 0.0
C522 C 0.53897 0.4534 0.46216 0.0
Dy523 Dy 0.4942 0.52409 0.51589 0.0
O524 O 0.51579 0.45203 0.46101 0.0
O525 O 0.5466 0.47182 0.47485 0.0
O526 O 0.47271 0.46927 0.48016 0.0
O527 O 0.48356 0.48732 0.51311 0.0
C528 C 0.46588 0.47767 0.50157 0.0
C529 C 0.53908 0.53033 0.49838 0.0
O530 O 0.50611 0.50302 0.54714 0.0
O531 O 0.5264 0.47795 0.52172 0.0
O532 O 0.48991 0.55895 0.53394 0.0
O533 O 0.45915 0.53525 0.53067 0.0
O534 O 0.53237 0.53861 0.51991 0.0
O535 O 0.52128 0.52097 0.48682 0.0
O536 O 0.49967 0.50633 0.45308 0.0
O537 O 0.47731 0.52951 0.47851 0.0
C538 C 0.52081 0.48631 0.54422 0.0
C539 C 0.48387 0.52205 0.45598 0.0
Dy540 Dy 0.01041 0.47802 0.00748 0.0
C541 C 0.97023 0.5619 0.98405 0.0
C542 C 0.03578 0.44048 0.01321 0.0
Dy543 Dy 0.99493 0.52401 0.99036 0.0
O544 O 0.01743 0.44538 0.02676 0.0
O545 O 0.0401 0.45596 0.99642 0.0
O546 O 0.98354 0.47782 0.03888 0.0
O547 O 0.99974 0.50933 0.02655 0.0
C548 C 0.98384 0.50021 0.0407 0.0
C549 C 0.02144 0.50163 0.95714 0.0
O550 O 0.02722 0.53755 0.01197 0.0
O551 O 0.04325 0.50216 0.01538 0.0
O552 O 0.98907 0.55703 0.97129 0.0
O553 O 0.96499 0.54616 1.00036 0.0
O554 O 0.0218 0.52402 0.95889 0.0
O555 O 0.00549 0.49271 0.97134 0.0
O556 O 0.97799 0.46449 0.98607 0.0
O557 O 0.96199 0.49992 0.98273 0.0
C558 C 0.04514 0.52508 0.0176 0.0
C559 C 0.96006 0.47699 0.98052 0.0
H560 H 0.12761 0.12321 0.24165 0.0
H561 H 0.10249 0.10119 0.27151 0.0
H562 H 0.08824 0.16437 0.31118 0.0
H563 H 0.11353 0.18659 0.28142 0.0
H564 H 0.11037 0.10084 0.32306 0.0
H565 H 0.02124 0.13072 0.30214 0.0
H566 H 0.04641 0.13459 0.28098 0.0
H567 H 0.04446 0.15326 0.30812 0.0
C568 C 0.11918 0.13243 0.25676 0.0
C569 C 0.12263 0.15663 0.25927 0.0
C570 C 0.10471 0.11984 0.27367 0.0
C571 C 0.09329 0.1312 0.29331 0.0
C572 C 0.09649 0.15536 0.29581 0.0
H573 H 0.01602 0.0824 0.42452 0.0
H574 H 0.03297 0.10572 0.39027 0.0
C575 C 0.11098 0.168 0.27885 0.0
C576 C 0.07937 0.11751 0.31206 0.0
H577 H 0.02361 0.10714 0.33741 0.0
C578 C 0.09138 0.10211 0.32611 0.0
C579 C 0.05465 0.11939 0.31605 0.0
C580 C 0.04081 0.13523 0.30092 0.0
C581 C 0.07938 0.08864 0.34429 0.0
C582 C 0.05461 0.09032 0.34813 0.0
C583 C 0.04258 0.10584 0.33423 0.0
C584 C 0.04119 0.0763 0.36696 0.0
C585 C 0.09345 0.0731 0.35961 0.0
C586 C 0.03935 0.05211 0.36464 0.0
C587 C 0.0298 0.03879 0.38416 0.0
C588 C 0.02181 0.04952 0.40616 0.0
C589 C 0.02216 0.07373 0.40776 0.0
C590 C 0.0318 0.08705 0.38825 0.0
H591 H 0.11298 0.07789 0.35846 0.0
H592 H 0.08781 0.07377 0.37953 0.0
H593 H 0.09015 0.05501 0.3525 0.0
H594 H 0.04617 0.04354 0.34813 0.0
H595 H 0.02957 0.02014 0.38242 0.0
H596 H 0.34982 0.90122 0.75578 0.0
H597 H 0.36315 0.91688 0.79666 0.0
H598 H 0.3705 0.84791 0.82159 0.0
H599 H 0.35654 0.83197 0.78107 0.0
H600 H 0.34252 0.89953 0.85025 0.0
H601 H 0.43853 0.89092 0.82683 0.0
H602 H 0.41671 0.89442 0.80296 0.0
H603 H 0.41674 0.86754 0.81856 0.0
C604 C 0.3539 0.88935 0.77007 0.0
C605 C 0.35223 0.86535 0.76513 0.0
C606 C 0.36156 0.89833 0.79334 0.0
C607 C 0.36777 0.88348 0.81193 0.0
C608 C 0.3658 0.85956 0.80731 0.0
H609 H 0.44774 0.91926 0.94715 0.0
H610 H 0.42506 0.89697 0.9146 0.0
C611 C 0.35804 0.85054 0.78411 0.0
C612 C 0.37737 0.8931 0.83582 0.0
H613 H 0.42973 0.90677 0.86629 0.0
C614 C 0.36156 0.90105 0.85394 0.0
C615 C 0.40214 0.8948 0.84041 0.0
C616 C 0.41968 0.88658 0.82123 0.0
C617 C 0.37002 0.9109 0.87671 0.0
C618 C 0.39493 0.91325 0.88104 0.0
C619 C 0.41063 0.90486 0.86299 0.0
C620 C 0.40543 0.92555 0.90339 0.0
C621 C 0.35221 0.91851 0.89592 0.0
C622 C 0.4015 0.94883 0.90824 0.0
C623 C 0.41425 0.9615 0.92696 0.0
C624 C 0.4314 0.95115 0.9408 0.0
C625 C 0.43461 0.92761 0.93669 0.0
C626 C 0.4217 0.9149 0.91812 0.0
H627 H 0.3345 0.90877 0.89351 0.0
H628 H 0.3585 0.91616 0.91519 0.0
H629 H 0.34974 0.9371 0.89363 0.0
H630 H 0.38949 0.95757 0.89673 0.0
H631 H 0.41158 0.97967 0.92968 0.0
H632 H 0.61412 0.42613 0.7497 0.0
H633 H 0.59625 0.44363 0.71422 0.0
H634 H 0.57542 0.37595 0.68286 0.0
H635 H 0.59362 0.3582 0.71821 0.0
H636 H 0.60902 0.43832 0.66381 0.0
H637 H 0.51351 0.4095 0.67967 0.0
H638 H 0.53582 0.40869 0.70362 0.0
H639 H 0.53356 0.38683 0.67916 0.0
C640 C 0.6058 0.41489 0.73527 0.0
C641 C 0.60549 0.39068 0.73684 0.0
C642 C 0.59547 0.42496 0.71503 0.0
C643 C 0.58432 0.41115 0.69592 0.0
C644 C 0.58355 0.38699 0.69757 0.0
H645 H 0.55373 0.45394 0.54577 0.0
H646 H 0.56894 0.43596 0.58246 0.0
C647 C 0.59396 0.37686 0.71784 0.0
C648 C 0.57456 0.42216 0.67382 0.0
H649 H 0.5232 0.42814 0.64162 0.0
C650 C 0.59025 0.4361 0.65897 0.0
C651 C 0.55002 0.41948 0.66764 0.0
C652 C 0.53215 0.40549 0.68343 0.0
C653 C 0.58217 0.44716 0.638 0.0
C654 C 0.55773 0.44405 0.63148 0.0
C655 C 0.54195 0.43038 0.64651 0.0
C656 C 0.54828 0.45492 0.60915 0.0
C657 C 0.5998 0.46238 0.62318 0.0
C658 C 0.53127 0.47134 0.61184 0.0
C659 C 0.52251 0.48172 0.59085 0.0
C660 C 0.5304 0.47572 0.56665 0.0
C661 C 0.54729 0.45909 0.56406 0.0
C662 C 0.5561 0.44882 0.58505 0.0
H663 H 0.61635 0.46736 0.63388 0.0
H664 H 0.60487 0.45287 0.60592 0.0
H665 H 0.59178 0.47833 0.61764 0.0
H666 H 0.52491 0.47626 0.63024 0.0
H667 H 0.50945 0.49433 0.5936 0.0
H668 H 0.85727 0.60033 0.21034 0.0
H669 H 0.87274 0.57852 0.17473 0.0
H670 H 0.94483 0.59792 0.19859 0.0
H671 H 0.92956 0.61912 0.23463 0.0
H672 H 0.90305 0.59375 0.13583 0.0
H673 H 0.94369 0.52757 0.19063 0.0
H674 H 0.92265 0.54647 0.20407 0.0
H675 H 0.95345 0.55674 0.19983 0.0
C676 C 0.87641 0.59974 0.20819 0.0
C677 C 0.89216 0.6114 0.22545 0.0
C678 C 0.88522 0.58741 0.18772 0.0
C679 C 0.90992 0.58633 0.18419 0.0
C680 C 0.92569 0.59818 0.20117 0.0
H681 H 0.98766 0.54667 0.05087 0.0
H682 H 0.96835 0.5675 0.08488 0.0
C683 C 0.91692 0.61052 0.22162 0.0
C684 C 0.91925 0.57302 0.16262 0.0
H685 H 0.9536 0.52861 0.14739 0.0
C686 C 0.91401 0.57944 0.13833 0.0
C687 C 0.93326 0.55414 0.16591 0.0
C688 C 0.93843 0.54563 0.1915 0.0
C689 C 0.92288 0.56782 0.11724 0.0
C690 C 0.93767 0.54951 0.12056 0.0
C691 C 0.94244 0.54277 0.14485 0.0
C692 C 0.9485 0.53712 0.09916 0.0
C693 C 0.9161 0.57507 0.09161 0.0
C694 C 0.94407 0.51307 0.09606 0.0
C695 C 0.95522 0.50112 0.07675 0.0
C696 C 0.97113 0.513 0.06028 0.0
C697 C 0.97539 0.53709 0.06322 0.0
C698 C 0.96425 0.54903 0.08256 0.0
H699 H 0.89966 0.58455 0.09225 0.0
H700 H 0.9308 0.58677 0.08394 0.0
H701 H 0.91317 0.55989 0.07862 0.0
H702 H 0.93206 0.50351 0.1087 0.0
H703 H 0.95162 0.48255 0.07491 0.0
H704 H 0.31924 0.13403 0.16809 0.0
H705 H 0.35162 0.11346 0.1491 0.0
H706 H 0.32478 0.12534 0.07583 0.0
H707 H 0.29229 0.1457 0.09459 0.0
H708 H 0.34721 0.07381 0.11755 0.0
H709 H 0.39593 0.14775 0.07082 0.0
H710 H 0.37394 0.15152 0.09514 0.0
H711 H 0.36464 0.14404 0.06374 0.0
C712 C 0.32024 0.13224 0.14794 0.0
C713 C 0.30329 0.14158 0.13283 0.0
C714 C 0.33877 0.12058 0.13714 0.0
C715 C 0.34073 0.11819 0.11109 0.0
C716 C 0.32386 0.12746 0.09596 0.0
H717 H 0.41753 0.02064 0.02289 0.0
H718 H 0.38728 0.04226 0.04418 0.0
C719 C 0.30534 0.13911 0.10672 0.0
C720 C 0.3599 0.10525 0.09968 0.0
H721 H 0.40741 0.11026 0.05945 0.0
C722 C 0.36047 0.08177 0.10496 0.0
C723 C 0.37726 0.1158 0.08347 0.0
C724 C 0.37813 0.14122 0.0781 0.0
C725 C 0.37772 0.06839 0.09399 0.0
C726 C 0.39455 0.07875 0.07708 0.0
C727 C 0.39429 0.10234 0.07224 0.0
C728 C 0.41278 0.06547 0.06439 0.0
C729 C 0.37795 0.04337 0.10078 0.0
C730 C 0.4371 0.07169 0.06835 0.0
C731 C 0.45444 0.05949 0.05614 0.0
C732 C 0.44777 0.04088 0.0396 0.0
C733 C 0.42333 0.03479 0.03557 0.0
C734 C 0.40599 0.04703 0.04782 0.0
H735 H 0.36795 0.0397 0.11841 0.0
H736 H 0.36935 0.03229 0.08566 0.0
H737 H 0.39653 0.03847 0.10286 0.0
H738 H 0.44266 0.08596 0.08099 0.0
H739 H 0.47307 0.06473 0.05967 0.0
H740 H 0.22214 0.88333 0.56271 0.0
H741 H 0.18849 0.90036 0.54341 0.0
H742 H 0.1524 0.90255 0.61482 0.0
H743 H 0.18599 0.88573 0.63424 0.0
H744 H 0.14005 0.8856 0.54098 0.0
H745 H 0.15427 0.96946 0.59335 0.0
H746 H 0.17622 0.94836 0.59238 0.0
H747 H 0.15062 0.94471 0.61275 0.0
C748 C 0.20693 0.88729 0.57423 0.0
C749 C 0.20677 0.88348 0.60001 0.0
C750 C 0.18779 0.89705 0.56321 0.0
C751 C 0.16821 0.90311 0.57781 0.0
C752 C 0.16762 0.89853 0.60337 0.0
H753 H 0.04074 0.97153 0.54035 0.0
H754 H 0.06957 0.94929 0.56159 0.0
C755 C 0.18679 0.88892 0.61441 0.0
C756 C 0.14855 0.91448 0.56632 0.0
H757 H 0.11986 0.9642 0.56808 0.0
C758 C 0.13562 0.90278 0.54689 0.0
C759 C 0.14283 0.93689 0.57412 0.0
C760 C 0.15682 0.95072 0.59413 0.0
C761 C 0.11704 0.91291 0.53506 0.0
C762 C 0.11148 0.93535 0.54275 0.0
C763 C 0.12415 0.94692 0.56239 0.0
C764 C 0.09348 0.9477 0.52974 0.0
C765 C 0.10342 0.89954 0.51449 0.0
C766 C 0.09758 0.95425 0.50499 0.0
C767 C 0.08127 0.96699 0.49299 0.0
C768 C 0.06061 0.97333 0.50555 0.0
C769 C 0.05645 0.96668 0.53029 0.0
C770 C 0.07287 0.95404 0.54238 0.0
H771 H 0.10585 0.88075 0.51496 0.0
H772 H 0.08404 0.90205 0.5159 0.0
H773 H 0.11002 0.90592 0.49616 0.0
H774 H 0.11361 0.94986 0.49511 0.0
H775 H 0.08491 0.97198 0.47391 0.0
H776 H 0.78324 0.34372 0.89333 0.0
H777 H 0.81981 0.36339 0.9106 0.0
H778 H 0.7897 0.42904 0.90486 0.0
H779 H 0.75275 0.40947 0.88833 0.0
H780 H 0.85137 0.39723 0.8899 0.0
H781 H 0.81103 0.43014 0.97762 0.0
H782 H 0.79583 0.40812 0.95782 0.0
H783 H 0.79661 0.43799 0.94969 0.0
C784 C 0.78425 0.36233 0.89599 0.0
C785 C 0.76491 0.37497 0.8896 0.0
C786 C 0.80526 0.37356 0.90572 0.0
C787 C 0.80738 0.39766 0.90942 0.0
C788 C 0.78832 0.41039 0.90263 0.0
H789 H 0.91958 0.4966 0.96645 0.0
H790 H 0.88304 0.47723 0.94885 0.0
C791 C 0.76729 0.39918 0.89288 0.0
C792 C 0.82966 0.40944 0.92009 0.0
H793 H 0.85124 0.44347 0.96921 0.0
C794 C 0.85137 0.40727 0.90729 0.0
C795 C 0.82964 0.42256 0.94278 0.0
C796 C 0.80709 0.42472 0.95794 0.0
C797 C 0.87297 0.41816 0.91632 0.0
C798 C 0.87296 0.43126 0.93903 0.0
C799 C 0.85124 0.43345 0.95181 0.0
C800 C 0.89526 0.44287 0.94982 0.0
C801 C 0.89553 0.41599 0.90116 0.0
C802 C 0.91421 0.42998 0.9566 0.0
C803 C 0.93518 0.441 0.96667 0.0
C804 C 0.93762 0.46517 0.97031 0.0
C805 C 0.91843 0.47799 0.96385 0.0
C806 C 0.89747 0.46694 0.95379 0.0
H807 H 0.89158 0.41071 0.88144 0.0
H808 H 0.90686 0.43255 0.9014 0.0
H809 H 0.90593 0.40262 0.90932 0.0
H810 H 0.91273 0.41134 0.95423 0.0
H811 H 0.94949 0.43054 0.97154 0.0
H812 H 0.74377 0.56678 0.38488 0.0
H813 H 0.70729 0.55127 0.40586 0.0
H814 H 0.68459 0.62018 0.41578 0.0
H815 H 0.7205 0.63576 0.39399 0.0
H816 H 0.69003 0.55966 0.45341 0.0
H817 H 0.6269 0.5857 0.38249 0.0
H818 H 0.65867 0.58609 0.3768 0.0
H819 H 0.64648 0.60929 0.39445 0.0
C820 C 0.73089 0.57863 0.39125 0.0
C821 C 0.73503 0.60253 0.38754 0.0
C822 C 0.71013 0.56974 0.40342 0.0
C823 C 0.69302 0.58451 0.41204 0.0
C824 C 0.69731 0.6084 0.40886 0.0
H825 H 0.57719 0.55639 0.51828 0.0
H826 H 0.61516 0.56813 0.4976 0.0
C827 C 0.71803 0.61731 0.39666 0.0
C828 C 0.67073 0.57497 0.42445 0.0
H829 H 0.60987 0.57233 0.42078 0.0
C830 C 0.67249 0.56233 0.44623 0.0
C831 C 0.64787 0.57813 0.41484 0.0
C832 C 0.64478 0.59034 0.39073 0.0
C833 C 0.652 0.55325 0.45898 0.0
C834 C 0.62913 0.55725 0.44994 0.0
C835 C 0.6274 0.56944 0.42785 0.0
C836 C 0.6067 0.5491 0.46306 0.0
C837 C 0.65504 0.53918 0.48181 0.0
C838 C 0.58915 0.53475 0.45045 0.0
C839 C 0.56737 0.52823 0.46215 0.0
C840 C 0.56269 0.53601 0.48666 0.0
C841 C 0.58037 0.55006 0.49942 0.0
C842 C 0.60214 0.55665 0.48767 0.0
H843 H 0.67287 0.53213 0.48203 0.0
H844 H 0.65347 0.55038 0.49878 0.0
H845 H 0.64106 0.52459 0.4828 0.0
H846 H 0.59223 0.52878 0.43143 0.0
H847 H 0.55405 0.51741 0.45185 0.0
H848 H 0.16315 0.31607 0.13091 0.0
H849 H 0.14094 0.34338 0.10836 0.0
H850 H 0.15672 0.30857 0.03865 0.0
H851 H 0.17864 0.28086 0.06115 0.0
H852 H 0.15498 0.37325 0.06745 0.0
H853 H 0.08221 0.30563 0.04357 0.0
H854 H 0.10399 0.30183 0.06736 0.0
H855 H 0.11215 0.29942 0.03497 0.0
C856 C 0.162 0.31432 0.11077 0.0
C857 C 0.17242 0.29624 0.09779 0.0
C858 C 0.14944 0.32997 0.09792 0.0
C859 C 0.14698 0.32774 0.07193 0.0
C860 C 0.15824 0.31036 0.05876 0.0
H861 H 0.07649 0.4307 0.98837 0.0
H862 H 0.10433 0.4022 0.99946 0.0
C863 C 0.17091 0.29471 0.07161 0.0
C864 C 0.13157 0.34296 0.05901 0.0
H865 H 0.07734 0.3434 0.03086 0.0
C866 C 0.13814 0.36676 0.05915 0.0
C867 C 0.10952 0.33432 0.04851 0.0
C868 C 0.10134 0.30894 0.04865 0.0
C869 C 0.12296 0.38229 0.04945 0.0
C870 C 0.10081 0.37367 0.03917 0.0
C871 C 0.09445 0.34983 0.0386 0.0
C872 C 0.0832 0.38934 0.03084 0.0
C873 C 0.13026 0.40786 0.05121 0.0
C874 C 0.0618 0.39088 0.04431 0.0
C875 C 0.0459 0.40703 0.03801 0.0
C876 C 0.05116 0.42179 0.01807 0.0
C877 C 0.0721 0.41956 0.00391 0.0
C878 C 0.08803 0.40341 0.01026 0.0
H879 H 0.14595 0.41185 0.0635 0.0
H880 H 0.13501 0.41417 0.0323 0.0
H881 H 0.11524 0.41754 0.05846 0.0
H882 H 0.05777 0.38008 0.06021 0.0
H883 H 0.02984 0.4084 0.04917 0.0
H884 H 0.56272 0.23944 0.89172 0.0
H885 H 0.54734 0.20376 0.91163 0.0
H886 H 0.61225 0.17236 0.8914 0.0
H887 H 0.6281 0.20845 0.87272 0.0
H888 H 0.53583 0.16346 0.89456 0.0
H889 H 0.60814 0.15392 0.96158 0.0
H890 H 0.60641 0.17982 0.94416 0.0
H891 H 0.61977 0.15518 0.93035 0.0
C892 C 0.57374 0.22494 0.89172 0.0
C893 C 0.59665 0.22675 0.8808 0.0
C894 C 0.56497 0.20453 0.90313 0.0
C895 C 0.57877 0.18533 0.90361 0.0
C896 C 0.60152 0.18705 0.89222 0.0
H897 H 0.51423 0.04571 0.91832 0.0
H898 H 0.53273 0.08263 0.90439 0.0
C899 C 0.6105 0.20763 0.88129 0.0
C900 C 0.56879 0.16323 0.91478 0.0
H901 H 0.58167 0.12002 0.95345 0.0
C902 C 0.54584 0.15415 0.90763 0.0
C903 C 0.58146 0.15109 0.9323 0.0
C904 C 0.60518 0.16066 0.94275 0.0
C905 C 0.53552 0.13323 0.9169 0.0
C906 C 0.54889 0.12026 0.93298 0.0
C907 C 0.57154 0.12962 0.94075 0.0
C908 C 0.53969 0.09694 0.94163 0.0
C909 C 0.51013 0.1256 0.90967 0.0
C910 C 0.53886 0.09185 0.96719 0.0
C911 C 0.52891 0.0703 0.97517 0.0
C912 C 0.51944 0.05361 0.95773 0.0
C913 C 0.52113 0.05838 0.9322 0.0
C914 C 0.53148 0.07962 0.92423 0.0
H915 H 0.5 0.1406 0.90511 0.0
H916 H 0.51029 0.11415 0.89274 0.0
H917 H 0.50048 0.11604 0.92486 0.0
H918 H 0.54527 0.10476 0.98103 0.0
H919 H 0.52775 0.06707 0.99496 0.0
H920 H 0.89062 0.78167 0.34781 0.0
H921 H 0.91088 0.81854 0.3622 0.0
H922 H 0.90432 0.79672 0.43837 0.0
H923 H 0.88458 0.7597 0.42416 0.0
H924 H 0.89306 0.85181 0.39608 0.0
H925 H 0.97572 0.81797 0.43126 0.0
H926 H 0.95547 0.80137 0.4104 0.0
H927 H 0.94861 0.80365 0.44318 0.0
C928 C 0.89376 0.78461 0.3676 0.0
C929 C 0.88602 0.7677 0.38483 0.0
C930 C 0.90521 0.80574 0.37579 0.0
C931 C 0.90937 0.81025 0.40132 0.0
C932 C 0.90163 0.79345 0.41855 0.0
H933 H 0.96731 0.92178 0.49694 0.0
H934 H 0.9498 0.88584 0.47784 0.0
C935 C 0.89012 0.77239 0.41041 0.0
C936 C 0.9212 0.83275 0.4101 0.0
H937 H 0.9693 0.85691 0.44266 0.0
C938 C 0.90985 0.853 0.40606 0.0
C939 C 0.94308 0.83422 0.42311 0.0
C940 C 0.95659 0.81319 0.42708 0.0
C941 C 0.91938 0.8746 0.41546 0.0
C942 C 0.94109 0.87602 0.42885 0.0
C943 C 0.95264 0.8558 0.43246 0.0
C944 C 0.9517 0.89813 0.44009 0.0
C945 C 0.90568 0.89557 0.41179 0.0
C946 C 0.95883 0.91699 0.42518 0.0
C947 C 0.96883 0.93771 0.43607 0.0
C948 C 0.97206 0.93989 0.46208 0.0
C949 C 0.96511 0.92082 0.47687 0.0
C950 C 0.95509 0.90019 0.46598 0.0
H951 H 0.88681 0.89072 0.40654 0.0
H952 H 0.90586 0.90668 0.42901 0.0
H953 H 0.91421 0.90589 0.39654 0.0
H954 H 0.95684 0.91565 0.4051 0.0
H955 H 0.9741 0.95196 0.42408 0.0
H956 H 0.35271 0.73721 0.55386 0.0
H957 H 0.37273 0.70204 0.54349 0.0
H958 H 0.35229 0.67488 0.61543 0.0
H959 H 0.33291 0.71016 0.62602 0.0
H960 H 0.3989 0.67312 0.60693 0.0
H961 H 0.34891 0.63655 0.5244 0.0
H962 H 0.3602 0.66605 0.52075 0.0
H963 H 0.33799 0.65904 0.54437 0.0
C964 C 0.35212 0.72347 0.56717 0.0
C965 C 0.34141 0.72631 0.59073 0.0
C966 C 0.36346 0.70339 0.56123 0.0
C967 C 0.36382 0.68574 0.57862 0.0
C968 C 0.35224 0.68826 0.60176 0.0
H969 H 0.41919 0.55164 0.54758 0.0
H970 H 0.39361 0.58265 0.5591 0.0
C971 C 0.3412 0.70838 0.60778 0.0
C972 C 0.37797 0.66559 0.57376 0.0
H973 H 0.38605 0.62085 0.53266 0.0
C974 C 0.39594 0.66158 0.59079 0.0
C975 C 0.37394 0.65041 0.55286 0.0
C976 C 0.35405 0.65306 0.53468 0.0
C977 C 0.41028 0.64305 0.58728 0.0
C978 C 0.40696 0.62848 0.5658 0.0
C979 C 0.38868 0.63218 0.54902 0.0
C980 C 0.42256 0.60958 0.56015 0.0
C981 C 0.42865 0.63913 0.60677 0.0
C982 C 0.44728 0.61446 0.55703 0.0
C983 C 0.4619 0.59679 0.55073 0.0
C984 C 0.45198 0.57401 0.54711 0.0
C985 C 0.42727 0.56907 0.5504 0.0
C986 C 0.41266 0.58675 0.55687 0.0
H987 H 0.42402 0.64702 0.62516 0.0
H988 H 0.43041 0.62041 0.60915 0.0
H989 H 0.44626 0.6473 0.60085 0.0
H990 H 0.45521 0.63203 0.55892 0.0
H991 H 0.48087 0.60108 0.54803 0.0
H992 H 0.89612 0.86053 0.76216 0.0
H993 H 0.92332 0.88019 0.7321 0.0
H994 H 0.86322 0.89426 0.68706 0.0
H995 H 0.83596 0.87445 0.71674 0.0
H996 H 0.92909 0.87116 0.67944 0.0
H997 H 0.89906 0.95836 0.70043 0.0
H998 H 0.89285 0.93442 0.72093 0.0
H999 H 0.87494 0.937 0.69366 0.0
C1000 C 0.88872 0.86761 0.74572 0.0
C1001 C 0.86387 0.86611 0.7419 0.0
C1002 C 0.90427 0.87891 0.72867 0.0
C1003 C 0.89519 0.889 0.70768 0.0
C1004 C 0.87049 0.88701 0.70349 0.0
H1005 H 0.93162 0.95382 0.57371 0.0
H1006 H 0.91523 0.93423 0.61049 0.0
C1007 C 0.85495 0.87572 0.72046 0.0
C1008 C 0.91137 0.90159 0.68994 0.0
H1009 H 0.92105 0.9537 0.66229 0.0
C1010 C 0.92771 0.88931 0.67594 0.0
C1011 C 0.90962 0.9253 0.68567 0.0
C1012 C 0.89334 0.93963 0.70114 0.0
C1013 C 0.94128 0.89984 0.65662 0.0
C1014 C 0.93846 0.92318 0.65147 0.0
C1015 C 0.92304 0.93575 0.6663 0.0
C1016 C 0.94921 0.93422 0.62913 0.0
C1017 C 0.95755 0.88573 0.64093 0.0
C1018 C 0.97381 0.94062 0.62752 0.0
C1019 C 0.98328 0.95192 0.60645 0.0
C1020 C 0.96819 0.95689 0.58688 0.0
C1021 C 0.94366 0.95021 0.58854 0.0
C1022 C 0.93426 0.93904 0.60951 0.0
H1023 H 0.95625 0.86728 0.64612 0.0
H1024 H 0.95309 0.88675 0.62087 0.0
H1025 H 0.97633 0.8929 0.64332 0.0
H1026 H 0.98555 0.93717 0.64266 0.0
H1027 H 0.00226 0.95694 0.60556 0.0
H1028 H 0.60141 0.12278 0.25975 0.0
H1029 H 0.59063 0.10764 0.21786 0.0
H1030 H 0.66527 0.10634 0.19846 0.0
H1031 H 0.67622 0.12171 0.24019 0.0
H1032 H 0.63492 0.12823 0.16281 0.0
H1033 H 0.59969 0.04034 0.1903 0.0
H1034 H 0.5884 0.06387 0.20817 0.0
H1035 H 0.61949 0.05884 0.20991 0.0
C1036 C 0.6155 0.11924 0.24655 0.0
C1037 C 0.63963 0.12331 0.25322 0.0
C1038 C 0.60934 0.11051 0.22274 0.0
C1039 C 0.6272 0.10578 0.20526 0.0
C1040 C 0.65129 0.10982 0.21181 0.0
H1041 H 0.59535 0.02747 0.06765 0.0
H1042 H 0.61711 0.04462 0.10383 0.0
C1043 C 0.65747 0.11841 0.23566 0.0
C1044 C 0.62066 0.09694 0.17997 0.0
H1045 H 0.59228 0.05089 0.14881 0.0
C1046 C 0.62577 0.11126 0.15963 0.0
C1047 C 0.60902 0.07472 0.17601 0.0
C1048 C 0.60396 0.05841 0.19719 0.0
C1049 C 0.61875 0.10415 0.13537 0.0
C1050 C 0.60625 0.08227 0.13157 0.0
C1051 C 0.60186 0.06769 0.15183 0.0
C1052 C 0.59636 0.07443 0.10706 0.0
C1053 C 0.62466 0.12007 0.11404 0.0
C1054 C 0.57798 0.08591 0.09653 0.0
C1055 C 0.56554 0.07616 0.07587 0.0
C1056 C 0.57125 0.05474 0.06563 0.0
C1057 C 0.59062 0.04401 0.07522 0.0
C1058 C 0.60302 0.05375 0.09587 0.0
H1059 H 0.63957 0.13314 0.11878 0.0
H1060 H 0.62956 0.11017 0.09696 0.0
H1061 H 0.60873 0.12938 0.10979 0.0
H1062 H 0.57233 0.1017 0.10516 0.0
H1063 H 0.55061 0.08472 0.06886 0.0
H1064 H 0.40733 0.64897 0.28314 0.0
H1065 H 0.42578 0.63146 0.31847 0.0
H1066 H 0.40861 0.56371 0.28545 0.0
H1067 H 0.39051 0.58099 0.24997 0.0
H1068 H 0.39482 0.56755 0.33576 0.0
H1069 H 0.4894 0.60076 0.32194 0.0
H1070 H 0.46823 0.62245 0.32254 0.0
H1071 H 0.46732 0.60098 0.29768 0.0
C1072 C 0.40785 0.63037 0.28315 0.0
C1073 C 0.39729 0.61643 0.26366 0.0
C1074 C 0.41839 0.62037 0.30341 0.0
C1075 C 0.41874 0.59625 0.30457 0.0
C1076 C 0.40853 0.58234 0.28502 0.0
H1077 H 0.49644 0.51539 0.40672 0.0
H1078 H 0.48056 0.53318 0.37012 0.0
C1079 C 0.39806 0.59229 0.26477 0.0
C1080 C 0.42874 0.58535 0.3266 0.0
H1081 H 0.48004 0.58124 0.35954 0.0
C1082 C 0.41346 0.57053 0.34094 0.0
C1083 C 0.45312 0.58903 0.33322 0.0
C1084 C 0.47058 0.604 0.31796 0.0
C1085 C 0.42179 0.55957 0.36186 0.0
C1086 C 0.44604 0.56368 0.36883 0.0
C1087 C 0.46142 0.57822 0.3543 0.0
C1088 C 0.45572 0.55297 0.39114 0.0
C1089 C 0.40464 0.54339 0.37611 0.0
C1090 C 0.4472 0.5583 0.41518 0.0
C1091 C 0.45625 0.54819 0.43615 0.0
C1092 C 0.47407 0.5325 0.43358 0.0
C1093 C 0.48265 0.52728 0.40944 0.0
C1094 C 0.47365 0.5375 0.38847 0.0
H1095 H 0.38847 0.53781 0.36504 0.0
H1096 H 0.41338 0.52781 0.38157 0.0
H1097 H 0.3988 0.55237 0.39342 0.0
H1098 H 0.43364 0.57044 0.41775 0.0
H1099 H 0.44925 0.55273 0.4544 0.0
H1100 H 0.07582 0.38095 0.76407 0.0
H1101 H 0.06019 0.40206 0.80002 0.0
H1102 H 0.13202 0.42473 0.82227 0.0
H1103 H 0.14787 0.40313 0.7867 0.0
H1104 H 0.10242 0.40837 0.86197 0.0
H1105 H 0.05903 0.47266 0.80685 0.0
H1106 H 0.05049 0.44312 0.79802 0.0
H1107 H 0.08087 0.45457 0.79352 0.0
C1108 C 0.08832 0.39027 0.7767 0.0
C1109 C 0.11311 0.39039 0.77244 0.0
C1110 C 0.07934 0.40253 0.7971 0.0
C1111 C 0.09493 0.41523 0.81362 0.0
C1112 C 0.11967 0.41516 0.80965 0.0
H1113 H 0.05335 0.5191 0.92256 0.0
H1114 H 0.07259 0.49798 0.88868 0.0
C1115 C 0.12869 0.40295 0.78921 0.0
C1116 C 0.08539 0.42843 0.83515 0.0
H1117 H 0.05016 0.47217 0.85028 0.0
C1118 C 0.09107 0.42238 0.85945 0.0
C1119 C 0.07084 0.44689 0.8318 0.0
C1120 C 0.06509 0.45489 0.80615 0.0
C1121 C 0.08215 0.43401 0.88051 0.0
C1122 C 0.06693 0.45196 0.87715 0.0
C1123 C 0.06167 0.45829 0.85284 0.0
C1124 C 0.05623 0.46444 0.89854 0.0
C1125 C 0.08933 0.42717 0.90616 0.0
C1126 C 0.04063 0.4526 0.91533 0.0
C1127 C 0.02964 0.46464 0.9347 0.0
C1128 C 0.03394 0.48874 0.9375 0.0
C1129 C 0.04972 0.50053 0.92084 0.0
C1130 C 0.06069 0.4885 0.90148 0.0
H1131 H 0.10579 0.4177 0.90546 0.0
H1132 H 0.09242 0.44256 0.91883 0.0
H1133 H 0.07476 0.41561 0.91427 0.0
H1134 H 0.03655 0.43412 0.91315 0.0
H1135 H 0.01745 0.45512 0.94719 0.0
H1136 H 0.70358 0.84888 0.92779 0.0
H1137 H 0.67195 0.87225 0.94342 0.0
H1138 H 0.65128 0.88405 0.86782 0.0
H1139 H 0.68278 0.86055 0.85201 0.0
H1140 H 0.65732 0.92438 0.89799 0.0
H1141 H 0.59936 0.8559 0.94401 0.0
H1142 H 0.63012 0.85747 0.95329 0.0
H1143 H 0.62232 0.84949 0.92158 0.0
C1144 C 0.69202 0.8561 0.9145 0.0
C1145 C 0.69562 0.85283 0.88867 0.0
C1146 C 0.674 0.86946 0.92346 0.0
C1147 C 0.65916 0.87964 0.90676 0.0
C1148 C 0.66256 0.87629 0.88098 0.0
H1149 H 0.52919 0.94399 0.94465 0.0
H1150 H 0.55934 0.92046 0.92635 0.0
C1151 C 0.68059 0.86294 0.872 0.0
C1152 C 0.64071 0.89456 0.91616 0.0
H1153 H 0.59034 0.8947 0.95231 0.0
C1154 C 0.6426 0.91791 0.90978 0.0
C1155 C 0.62145 0.88595 0.93132 0.0
C1156 C 0.61798 0.86078 0.93781 0.0
C1157 C 0.62589 0.93303 0.91853 0.0
C1158 C 0.60706 0.92457 0.93432 0.0
C1159 C 0.60495 0.90114 0.94036 0.0
C1160 C 0.58914 0.93966 0.94461 0.0
C1161 C 0.62835 0.95782 0.91055 0.0
C1162 C 0.59598 0.95828 0.96093 0.0
C1163 C 0.57879 0.97186 0.97144 0.0
C1164 C 0.55444 0.96692 0.96591 0.0
C1165 C 0.54775 0.94833 0.94935 0.0
C1166 C 0.56494 0.93481 0.93887 0.0
H1167 H 0.63995 0.96006 0.89372 0.0
H1168 H 0.61061 0.964 0.90651 0.0
H1169 H 0.63656 0.96887 0.9259 0.0
H1170 H 0.61455 0.96203 0.96592 0.0
H1171 H 0.58457 0.98594 0.9842 0.0
H1172 H 0.81458 0.15096 0.40103 0.0
H1173 H 0.852 0.13684 0.41548 0.0
H1174 H 0.81288 0.07482 0.44103 0.0
H1175 H 0.77577 0.08842 0.42548 0.0
H1176 H 0.8684 0.12604 0.45867 0.0
H1177 H 0.86218 0.04718 0.39836 0.0
H1178 H 0.84239 0.06986 0.39502 0.0
H1179 H 0.83619 0.048 0.41795 0.0
C1180 C 0.8141 0.13436 0.40983 0.0
C1181 C 0.79251 0.1206 0.41199 0.0
C1182 C 0.83541 0.12629 0.41801 0.0
C1183 C 0.83534 0.10447 0.42869 0.0
C1184 C 0.81351 0.09131 0.43201 0.0
H1185 H 0.93672 0.05225 0.52541 0.0
H1186 H 0.90722 0.07413 0.50552 0.0
C1187 C 0.79232 0.09915 0.42338 0.0
C1188 C 0.858 0.09542 0.43648 0.0
H1189 H 0.88897 0.04724 0.4331 0.0
C1190 C 0.87309 0.10892 0.45282 0.0
C1191 C 0.86456 0.0734 0.42824 0.0
C1192 C 0.8506 0.05893 0.40869 0.0
C1193 C 0.8939 0.10052 0.46216 0.0
C1194 C 0.89924 0.07766 0.45572 0.0
C1195 C 0.88477 0.06463 0.43839 0.0
C1196 C 0.91875 0.06627 0.46771 0.0
C1197 C 0.90993 0.11632 0.4787 0.0
C1198 C 0.93476 0.05402 0.45315 0.0
C1199 C 0.95113 0.04083 0.46453 0.0
C1200 C 0.952 0.03997 0.49065 0.0
C1201 C 0.93656 0.0528 0.50521 0.0
C1202 C 0.91986 0.06556 0.49385 0.0
H1203 H 0.90886 0.13469 0.47386 0.0
H1204 H 0.90394 0.11454 0.49841 0.0
H1205 H 0.92886 0.11216 0.47719 0.0
H1206 H 0.93416 0.05416 0.43295 0.0
H1207 H 0.96268 0.03089 0.45289 0.0
H1208 H 0.22671 0.61621 0.14351 0.0
H1209 H 0.19057 0.59544 0.12663 0.0
H1210 H 0.21017 0.61848 0.05288 0.0
H1211 H 0.24688 0.63829 0.06933 0.0
H1212 H 0.15304 0.6112 0.10335 0.0
H1213 H 0.1964 0.55012 0.0396 0.0
H1214 H 0.21278 0.5675 0.06311 0.0
H1215 H 0.20582 0.57974 0.03382 0.0
C1216 C 0.22359 0.61655 0.12362 0.0
C1217 C 0.2399 0.62889 0.10781 0.0
C1218 C 0.20277 0.6048 0.11402 0.0
C1219 C 0.19777 0.60505 0.0884 0.0
C1220 C 0.21383 0.61757 0.07262 0.0
H1221 H 0.0579 0.57166 0.0212 0.0
H1222 H 0.09464 0.59093 0.03846 0.0
C1223 C 0.23471 0.62921 0.08216 0.0
C1224 C 0.17549 0.59272 0.0783 0.0
H1225 H 0.15454 0.55238 0.03449 0.0
C1226 C 0.15338 0.59826 0.08837 0.0
C1227 C 0.17588 0.57557 0.05899 0.0
C1228 C 0.199 0.56769 0.04842 0.0
C1229 C 0.13171 0.58746 0.07941 0.0
C1230 C 0.13207 0.57102 0.05938 0.0
C1231 C 0.1542 0.56518 0.04962 0.0
C1232 C 0.10976 0.55936 0.04856 0.0
C1233 C 0.10868 0.59344 0.09188 0.0
C1234 C 0.10628 0.53513 0.04766 0.0
C1235 C 0.08541 0.52403 0.03748 0.0
C1236 C 0.06751 0.53691 0.02795 0.0
C1237 C 0.07117 0.56118 0.02858 0.0
C1238 C 0.09213 0.57226 0.03862 0.0
H1239 H 0.11179 0.60081 0.11105 0.0
H1240 H 0.10051 0.60661 0.08085 0.0
H1241 H 0.09574 0.57802 0.09299 0.0
H1242 H 0.11965 0.52477 0.05507 0.0
H1243 H 0.08327 0.50533 0.0373 0.0
H1244 H 0.29082 0.37169 0.61777 0.0
H1245 H 0.3271 0.38804 0.59697 0.0
H1246 H 0.29092 0.44823 0.57889 0.0
H1247 H 0.25505 0.43237 0.60083 0.0
H1248 H 0.33687 0.3983 0.55147 0.0
H1249 H 0.34983 0.4795 0.60795 0.0
H1250 H 0.32805 0.45645 0.6162 0.0
H1251 H 0.32133 0.47676 0.59295 0.0
C1252 C 0.29072 0.38846 0.60942 0.0
C1253 C 0.27026 0.40088 0.61104 0.0
C1254 C 0.31143 0.39781 0.59754 0.0
C1255 C 0.31202 0.41965 0.58676 0.0
C1256 C 0.29129 0.43176 0.58777 0.0
H1257 H 0.42449 0.4616 0.47871 0.0
H1258 H 0.38642 0.44879 0.49858 0.0
C1259 C 0.27072 0.42262 0.60012 0.0
C1260 C 0.33416 0.42933 0.57398 0.0
H1261 H 0.37376 0.47703 0.57116 0.0
C1262 C 0.34498 0.41548 0.5559 0.0
C1263 C 0.34504 0.45164 0.57993 0.0
C1264 C 0.33561 0.46684 0.6005 0.0
C1265 C 0.36625 0.42322 0.54366 0.0
C1266 C 0.37655 0.44592 0.5488 0.0
C1267 C 0.36575 0.45977 0.56691 0.0
C1268 C 0.39902 0.45528 0.53642 0.0
C1269 C 0.37783 0.4066 0.52603 0.0
C1270 C 0.41842 0.46452 0.55091 0.0
C1271 C 0.43992 0.47249 0.53952 0.0
C1272 C 0.44256 0.47111 0.51344 0.0
C1273 C 0.423 0.46254 0.49888 0.0
C1274 C 0.40132 0.45501 0.51025 0.0
H1275 H 0.37208 0.38835 0.53016 0.0
H1276 H 0.37242 0.40968 0.50662 0.0
H1277 H 0.39762 0.40892 0.52708 0.0
H1278 H 0.41711 0.4651 0.5711 0.0
H1279 H 0.4547 0.4791 0.5512 0.0
H1280 H 0.85438 0.68897 0.85972 0.0
H1281 H 0.8728 0.66065 0.88465 0.0
H1282 H 0.85801 0.69982 0.95189 0.0
H1283 H 0.83997 0.7285 0.927 0.0
H1284 H 0.90574 0.68931 0.94659 0.0
H1285 H 0.84363 0.61121 0.93192 0.0
H1286 H 0.85275 0.62492 0.90337 0.0
H1287 H 0.83535 0.63999 0.92597 0.0
C1288 C 0.85488 0.69143 0.87983 0.0
C1289 C 0.84579 0.71094 0.89143 0.0
C1290 C 0.86516 0.67514 0.89406 0.0
C1291 C 0.86647 0.67804 0.92011 0.0
C1292 C 0.85695 0.69722 0.93181 0.0
H1293 H 0.92791 0.57114 0.00598 0.0
H1294 H 0.90183 0.60109 0.99459 0.0
C1295 C 0.84656 0.71349 0.9176 0.0
C1296 C 0.87966 0.66209 0.93473 0.0
H1297 H 0.88296 0.605 0.94627 0.0
C1298 C 0.90058 0.67092 0.9469 0.0
C1299 C 0.8727 0.6382 0.93532 0.0
C1300 C 0.84975 0.62802 0.92366 0.0
C1301 C 0.91545 0.65624 0.95851 0.0
C1302 C 0.9093 0.63217 0.95764 0.0
C1303 C 0.88771 0.62348 0.94669 0.0
C1304 C 0.92583 0.61556 0.96623 0.0
C1305 C 0.93785 0.66655 0.97118 0.0
C1306 C 0.94792 0.61393 0.95409 0.0
C1307 C 0.96274 0.59687 0.96047 0.0
C1308 C 0.95564 0.58115 0.97904 0.0
C1309 C 0.93379 0.58313 0.99163 0.0
C1310 C 0.9189 0.60016 0.98515 0.0
H1311 H 0.93645 0.68501 0.97658 0.0
H1312 H 0.94165 0.65692 0.98812 0.0
H1313 H 0.95322 0.66557 0.95809 0.0
H1314 H 0.95336 0.62539 0.93912 0.0
H1315 H 0.97946 0.59562 0.95043 0.0
H1316 H 0.4187 0.79775 0.15623 0.0
H1317 H 0.43446 0.83365 0.13723 0.0
H1318 H 0.40688 0.80885 0.06584 0.0
H1319 H 0.39174 0.77249 0.08438 0.0
H1320 H 0.46777 0.83662 0.09244 0.0
H1321 H 0.38128 0.87536 0.07922 0.0
H1322 H 0.3848 0.85361 0.10208 0.0
H1323 H 0.38327 0.8456 0.06953 0.0
C1324 C 0.41615 0.79972 0.13642 0.0
C1325 C 0.40389 0.78203 0.12192 0.0
C1326 C 0.42503 0.82038 0.12564 0.0
C1327 C 0.42163 0.82402 0.10019 0.0
C1328 C 0.40939 0.80655 0.08561 0.0
H1329 H 0.46325 0.9476 0.01286 0.0
H1330 H 0.44493 0.90985 0.02583 0.0
C1331 C 0.40066 0.78577 0.09632 0.0
C1332 C 0.43162 0.84581 0.08883 0.0
H1333 H 0.41618 0.8968 0.06566 0.0
C1334 C 0.4565 0.84976 0.08652 0.0
C1335 C 0.41688 0.86277 0.0808 0.0
C1336 C 0.39005 0.85934 0.08306 0.0
C1337 C 0.46708 0.87031 0.07661 0.0
C1338 C 0.45241 0.88776 0.06949 0.0
C1339 C 0.42745 0.88353 0.0712 0.0
C1340 C 0.46277 0.91087 0.06154 0.0
C1341 C 0.49391 0.87296 0.07361 0.0
C1342 C 0.47833 0.92431 0.07747 0.0
C1343 C 0.4889 0.94561 0.06997 0.0
C1344 C 0.48393 0.95421 0.04649 0.0
C1345 C 0.46764 0.94126 0.03087 0.0
C1346 C 0.45713 0.91974 0.03833 0.0
H1347 H 0.50152 0.85588 0.07186 0.0
H1348 H 0.49935 0.88309 0.05694 0.0
H1349 H 0.50183 0.8821 0.09039 0.0
H1350 H 0.48242 0.91827 0.09576 0.0
H1351 H 0.50116 0.9553 0.08258 0.0
H1352 H 0.09017 0.23916 0.6272 0.0
H1353 H 0.07088 0.20197 0.61309 0.0
H1354 H 0.1395 0.17892 0.59151 0.0
H1355 H 0.15907 0.21548 0.60693 0.0
H1356 H 0.06903 0.18308 0.56765 0.0
H1357 H 0.11231 0.12423 0.62924 0.0
H1358 H 0.11456 0.15515 0.6345 0.0
H1359 H 0.13379 0.14207 0.612 0.0
C1360 C 0.10127 0.22602 0.62001 0.0
C1361 C 0.12626 0.23041 0.61834 0.0
C1362 C 0.09016 0.20479 0.61173 0.0
C1363 C 0.10373 0.18745 0.60157 0.0
C1364 C 0.12865 0.19177 0.59981 0.0
H1365 H 0.05104 0.07675 0.50012 0.0
H1366 H 0.06948 0.11192 0.52006 0.0
C1367 C 0.1398 0.2129 0.60829 0.0
C1368 C 0.09172 0.16537 0.59158 0.0
H1369 H 0.09184 0.1066 0.59371 0.0
C1370 C 0.07391 0.16637 0.57352 0.0
C1371 C 0.09774 0.14351 0.59949 0.0
C1372 C 0.11546 0.14113 0.62007 0.0
C1373 C 0.06242 0.14621 0.5627 0.0
C1374 C 0.0694 0.12437 0.56958 0.0
C1375 C 0.08673 0.12333 0.58815 0.0
C1376 C 0.05901 0.10246 0.55762 0.0
C1377 C 0.04267 0.14857 0.54426 0.0
C1378 C 0.04787 0.08488 0.57215 0.0
C1379 C 0.03759 0.06449 0.56081 0.0
C1380 C 0.03822 0.0613 0.53468 0.0
C1381 C 0.04992 0.07871 0.52026 0.0
C1382 C 0.06036 0.09895 0.53162 0.0
H1383 H 0.03456 0.16532 0.54698 0.0
H1384 H 0.05014 0.14796 0.52502 0.0
H1385 H 0.02835 0.13435 0.54592 0.0
H1386 H 0.04676 0.08711 0.59227 0.0
H1387 H 0.02875 0.05146 0.5725 0.0
H1388 H 0.65175 0.28634 0.37266 0.0
H1389 H 0.63302 0.32187 0.38304 0.0
H1390 H 0.64252 0.31083 0.46148 0.0
H1391 H 0.6603 0.27451 0.45126 0.0
H1392 H 0.59768 0.32075 0.4514 0.0
H1393 H 0.66153 0.3845 0.40638 0.0
H1394 H 0.65098 0.3617 0.38504 0.0
H1395 H 0.66845 0.3552 0.41157 0.0
C1396 C 0.64985 0.29143 0.39214 0.0
C1397 C 0.65737 0.27751 0.41116 0.0
C1398 C 0.63946 0.31195 0.39802 0.0
C1399 C 0.63674 0.3192 0.423 0.0
C1400 C 0.64465 0.30561 0.44205 0.0
H1401 H 0.58662 0.45192 0.46956 0.0
H1402 H 0.6109 0.41953 0.46004 0.0
C1403 C 0.65493 0.28496 0.43619 0.0
C1404 C 0.62404 0.34004 0.42917 0.0
H1405 H 0.62291 0.39727 0.41679 0.0
C1406 C 0.60333 0.33754 0.44405 0.0
C1407 C 0.63158 0.36197 0.41978 0.0
C1408 C 0.6545 0.36608 0.40503 0.0
C1409 C 0.58958 0.35624 0.44924 0.0
C1410 C 0.5964 0.37787 0.43871 0.0
C1411 C 0.61749 0.38056 0.42445 0.0
C1412 C 0.58209 0.398 0.44273 0.0
C1413 C 0.56803 0.3527 0.4662 0.0
C1414 C 0.55807 0.39689 0.4354 0.0
C1415 C 0.54414 0.41529 0.44096 0.0
C1416 C 0.55414 0.43517 0.45362 0.0
C1417 C 0.57848 0.43674 0.45981 0.0
C1418 C 0.59235 0.41827 0.45441 0.0
H1419 H 0.5692 0.33749 0.47811 0.0
H1420 H 0.566 0.36816 0.47849 0.0
H1421 H 0.55172 0.3496 0.45467 0.0
H1422 H 0.54999 0.38161 0.42579 0.0
H1423 H 0.52544 0.41375 0.43587 0.0
loop_
_geom_bond_atom_site_label_1
_geom_bond_atom_site_label_2
_geom_bond_distance
_geom_bond_site_symmetry_2
_ccdc_geom_bond_type
C0 C1 1.391 . S
C0 C4 1.391 . S
C0 H42 0.948 . S
C1 C0 1.391 . S
C1 C2 1.391 . S
C2 C1 1.391 . S
C2 H58 0.947 . S
C2 C59 1.392 . S
C3 C4 1.391 . S
C3 C7 1.397 . S
C3 C59 1.419 . S
C4 C0 1.391 . S
C4 C3 1.391 . S
C4 C5 1.399 . S
C5 C4 1.399 . S
C5 C8 1.396 . S
C5 C17 1.453 . S
C5 C18 1.684 . S
H6 C30 0.948 . S
C7 C3 1.397 . S
C7 C8 1.394 . S
C7 C26 1.723 . S
C8 C5 1.396 . S
C8 C7 1.394 . S
C8 C38 1.723 . S
H9 C32 0.947 . S
H10 C33 0.948 . S
H11 C39 0.982 . S
H12 C40 0.979 . S
H13 C40 0.980 . S
H14 C40 0.983 . S
H15 C39 0.979 . S
H16 C39 0.977 . S
C17 C5 1.453 . S
C17 H46 0.982 . S
C17 H47 0.979 . S
C17 H48 0.977 . S
C18 C5 1.684 . S
C18 H43 0.979 . S
C18 H44 0.980 . S
C18 H45 0.983 . S
C19 C20 1.391 . S
C19 C24 1.391 . S
C19 H49 0.948 . S
C20 C19 1.391 . S
C20 C21 1.391 . S
C21 C20 1.391 . S
C21 C22 1.392 . S
C21 H50 0.947 . S
C22 C21 1.392 . S
C22 C23 1.419 . S
C22 H51 0.948 . S
C23 C22 1.419 . S
C23 C24 1.391 . S
C23 C27 1.397 . S
C24 C19 1.391 . S
C24 C23 1.391 . S
C24 C25 1.399 . S
C25 C24 1.399 . S
C25 C26 1.396 . S
C25 C28 1.453 . S
C25 C29 1.684 . S
C26 C7 1.723 . S
C26 C25 1.396 . S
C26 C27 1.394 . S
C27 C23 1.397 . S
C27 C26 1.394 . S
C27 C37 1.723 . S
C28 C25 1.453 . S
C28 H52 0.982 . S
C28 H53 0.979 . S
C28 H54 0.977 . S
C29 C25 1.684 . S
C29 H55 0.979 . S
C29 H56 0.980 . S
C29 H57 0.983 . S
C30 H6 0.948 . S
C30 C31 1.391 . S
C30 C35 1.391 . S
C31 C30 1.391 . S
C31 C32 1.391 . S
C32 H9 0.947 . S
C32 C31 1.391 . S
C32 C33 1.392 . S
C33 H10 0.948 . S
C33 C32 1.392 . S
C33 C34 1.419 . S
C34 C33 1.419 . S
C34 C35 1.391 . S
C34 C38 1.397 . S
C35 C30 1.391 . S
C35 C34 1.391 . S
C35 C36 1.399 . S
C36 C35 1.399 . S
C36 C37 1.396 . S
C36 C39 1.453 . S
C36 C40 1.684 . S
C37 C27 1.723 . S
C37 C36 1.396 . S
C37 C38 1.394 . S
C38 C8 1.723 . S
C38 C34 1.397 . S
C38 C37 1.394 . S
C39 H11 0.982 . S
C39 H15 0.979 . S
C39 H16 0.977 . S
C39 C36 1.453 . S
C40 H12 0.979 . S
C40 H13 0.980 . S
C40 H14 0.983 . S
C40 C36 1.684 . S
H41 C59 0.948 . S
H42 C0 0.948 . S
H43 C18 0.979 . S
H44 C18 0.980 . S
H45 C18 0.983 . S
H46 C17 0.982 . S
H47 C17 0.979 . S
H48 C17 0.977 . S
H49 C19 0.948 . S
H50 C21 0.947 . S
H51 C22 0.948 . S
H52 C28 0.982 . S
H53 C28 0.979 . S
H54 C28 0.977 . S
H55 C29 0.979 . S
H56 C29 0.980 . S
H57 C29 0.983 . S
H58 C2 0.947 . S
C59 C2 1.392 . S
C59 C3 1.419 . S
C59 H41 0.948 . S
C60 C61 1.391 . S
C60 C64 1.391 . S
C60 H102 0.948 . S
C61 C60 1.391 . S
C61 C62 1.391 . S
C62 C61 1.391 . S
C62 H118 0.947 . S
C62 C119 1.392 . S
C63 C64 1.391 . S
C63 C67 1.397 . S
C63 C119 1.419 . S
C64 C60 1.391 . S
C64 C63 1.391 . S
C64 C65 1.399 . S
C65 C64 1.399 . S
C65 C68 1.396 . S
C65 C77 1.453 . S
C65 C78 1.684 . S
H66 C90 0.948 . S
C67 C63 1.397 . S
C67 C68 1.394 . S
C67 C86 1.723 . S
C68 C65 1.396 . S
C68 C67 1.394 . S
C68 C98 1.723 . S
H69 C92 0.947 . S
H70 C93 0.948 . S
H71 C99 0.982 . S
H72 C100 0.979 . S
H73 C100 0.980 . S
H74 C100 0.983 . S
H75 C99 0.979 . S
H76 C99 0.977 . S
C77 C65 1.453 . S
C77 H106 0.982 . S
C77 H107 0.979 . S
C77 H108 0.977 . S
C78 C65 1.684 . S
C78 H103 0.979 . S
C78 H104 0.980 . S
C78 H105 0.983 . S
C79 C80 1.391 . S
C79 C84 1.391 . S
C79 H109 0.948 . S
C80 C79 1.391 . S
C80 C81 1.391 . S
C81 C80 1.391 . S
C81 C82 1.392 . S
C81 H110 0.947 . S
C82 C81 1.392 . S
C82 C83 1.419 . S
C82 H111 0.948 . S
C83 C82 1.419 . S
C83 C84 1.391 . S
C83 C87 1.397 . S
C84 C79 1.391 . S
C84 C83 1.391 . S
C84 C85 1.399 . S
C85 C84 1.399 . S
C85 C86 1.396 . S
C85 C88 1.453 . S
C85 C89 1.684 . S
C86 C67 1.723 . S
C86 C85 1.396 . S
C86 C87 1.394 . S
C87 C83 1.397 . S
C87 C86 1.394 . S
C87 C97 1.723 . S
C88 C85 1.453 . S
C88 H112 0.982 . S
C88 H113 0.979 . S
C88 H114 0.977 . S
C89 C85 1.684 . S
C89 H115 0.979 . S
C89 H116 0.980 . S
C89 H117 0.983 . S
C90 H66 0.948 . S
C90 C91 1.391 . S
C90 C95 1.391 . S
C91 C90 1.391 . S
C91 C92 1.391 . S
C92 H69 0.947 . S
C92 C91 1.391 . S
C92 C93 1.392 . S
C93 H70 0.948 . S
C93 C92 1.392 . S
C93 C94 1.419 . S
C94 C93 1.419 . S
C94 C95 1.391 . S
C94 C98 1.397 . S
C95 C90 1.391 . S
C95 C94 1.391 . S
C95 C96 1.399 . S
C96 C95 1.399 . S
C96 C97 1.396 . S
C96 C99 1.453 . S
C96 C100 1.684 . S
C97 C87 1.723 . S
C97 C96 1.396 . S
C97 C98 1.394 . S
C98 C68 1.723 . S
C98 C94 1.397 . S
C98 C97 1.394 . S
C99 H71 0.982 . S
C99 H75 0.979 . S
C99 H76 0.977 . S
C99 C96 1.453 . S
C100 H72 0.979 . S
C100 H73 0.980 . S
C100 H74 0.983 . S
C100 C96 1.684 . S
H101 C119 0.948 . S
H102 C60 0.948 . S
H103 C78 0.979 . S
H104 C78 0.980 . S
H105 C78 0.983 . S
H106 C77 0.982 . S
H107 C77 0.979 . S
H108 C77 0.977 . S
H109 C79 0.948 . S
H110 C81 0.947 . S
H111 C82 0.948 . S
H112 C88 0.982 . S
H113 C88 0.979 . S
H114 C88 0.977 . S
H115 C89 0.979 . S
H116 C89 0.980 . S
H117 C89 0.983 . S
H118 C62 0.947 . S
C119 C62 1.392 . S
C119 C63 1.419 . S
C119 H101 0.948 . S
C120 C121 1.391 . S
C120 C124 1.391 . S
C120 H162 0.948 . S
C121 C120 1.391 . S
C121 C122 1.391 . S
C122 C121 1.391 . S
C122 H178 0.947 . S
C122 C179 1.392 . S
C123 C124 1.391 . S
C123 C127 1.397 . S
C123 C179 1.419 . S
C124 C120 1.391 . S
C124 C123 1.391 . S
C124 C125 1.399 . S
C125 C124 1.399 . S
C125 C128 1.396 . S
C125 C137 1.453 . S
C125 C138 1.684 . S
H126 C150 0.948 . S
C127 C123 1.397 . S
C127 C128 1.394 . S
C127 C146 1.723 . S
C128 C125 1.396 . S
C128 C127 1.394 . S
C128 C158 1.723 . S
H129 C152 0.947 . S
H130 C153 0.948 . S
H131 C159 0.982 . S
H132 C160 0.979 . S
H133 C160 0.980 . S
H134 C160 0.983 . S
H135 C159 0.979 . S
H136 C159 0.977 . S
C137 C125 1.453 . S
C137 H166 0.982 . S
C137 H167 0.979 . S
C137 H168 0.977 . S
C138 C125 1.684 . S
C138 H163 0.979 . S
C138 H164 0.980 . S
C138 H165 0.983 . S
C139 C140 1.391 . S
C139 C144 1.391 . S
C139 H169 0.948 . S
C140 C139 1.391 . S
C140 C141 1.391 . S
C141 C140 1.391 . S
C141 C142 1.392 . S
C141 H170 0.947 . S
C142 C141 1.392 . S
C142 C143 1.419 . S
C142 H171 0.948 . S
C143 C142 1.419 . S
C143 C144 1.391 . S
C143 C147 1.397 . S
C144 C139 1.391 . S
C144 C143 1.391 . S
C144 C145 1.399 . S
C145 C144 1.399 . S
C145 C146 1.396 . S
C145 C148 1.453 . S
C145 C149 1.684 . S
C146 C127 1.723 . S
C146 C145 1.396 . S
C146 C147 1.394 . S
C147 C143 1.397 . S
C147 C146 1.394 . S
C147 C157 1.723 . S
C148 C145 1.453 . S
C148 H172 0.982 . S
C148 H173 0.979 . S
C148 H174 0.977 . S
C149 C145 1.684 . S
C149 H175 0.979 . S
C149 H176 0.980 . S
C149 H177 0.983 . S
C150 H126 0.948 . S
C150 C151 1.391 . S
C150 C155 1.391 . S
C151 C150 1.391 . S
C151 C152 1.391 . S
C152 H129 0.947 . S
C152 C151 1.391 . S
C152 C153 1.392 . S
C153 H130 0.948 . S
C153 C152 1.392 . S
C153 C154 1.419 . S
C154 C153 1.419 . S
C154 C155 1.391 . S
C154 C158 1.397 . S
C155 C150 1.391 . S
C155 C154 1.391 . S
C155 C156 1.399 . S
C156 C155 1.399 . S
C156 C157 1.396 . S
C156 C159 1.453 . S
C156 C160 1.684 . S
C157 C147 1.723 . S
C157 C156 1.396 . S
C157 C158 1.394 . S
C158 C128 1.723 . S
C158 C154 1.397 . S
C158 C157 1.394 . S
C159 H131 0.982 . S
C159 H135 0.979 . S
C159 H136 0.977 . S
C159 C156 1.453 . S
C160 H132 0.979 . S
C160 H133 0.980 . S
C160 H134 0.983 . S
C160 C156 1.684 . S
H161 C179 0.948 . S
H162 C120 0.948 . S
H163 C138 0.979 . S
H164 C138 0.980 . S
H165 C138 0.983 . S
H166 C137 0.982 . S
H167 C137 0.979 . S
H168 C137 0.977 . S
H169 C139 0.948 . S
H170 C141 0.947 . S
H171 C142 0.948 . S
H172 C148 0.982 . S
H173 C148 0.979 . S
H174 C148 0.977 . S
H175 C149 0.979 . S
H176 C149 0.980 . S
H177 C149 0.983 . S
H178 C122 0.947 . S
C179 C122 1.392 . S
C179 C123 1.419 . S
C179 H161 0.948 . S
C180 C181 1.391 . S
C180 C184 1.391 . S
C180 H222 0.948 . S
C181 C180 1.391 . S
C181 C182 1.391 . S
C182 C181 1.391 . S
C182 H238 0.947 . S
C182 C239 1.392 . S
C183 C184 1.391 . S
C183 C187 1.397 . S
C183 C239 1.419 . S
C184 C180 1.391 . S
C184 C183 1.391 . S
C184 C185 1.399 . S
C185 C184 1.399 . S
C185 C188 1.396 . S
C185 C197 1.453 . S
C185 C198 1.684 . S
H186 C210 0.948 . S
C187 C183 1.397 . S
C187 C188 1.394 . S
C187 C206 1.723 . S
C188 C185 1.396 . S
C188 C187 1.394 . S
C188 C218 1.723 . S
H189 C212 0.947 . S
H190 C213 0.948 . S
H191 C219 0.982 . S
H192 C220 0.979 . S
H193 C220 0.980 . S
H194 C220 0.983 . S
H195 C219 0.979 . S
H196 C219 0.977 . S
C197 C185 1.453 . S
C197 H226 0.982 . S
C197 H227 0.979 . S
C197 H228 0.977 . S
C198 C185 1.684 . S
C198 H223 0.979 . S
C198 H224 0.980 . S
C198 H225 0.983 . S
C199 C200 1.391 . S
C199 C204 1.391 . S
C199 H229 0.948 . S
C200 C199 1.391 . S
C200 C201 1.391 . S
C201 C200 1.391 . S
C201 C202 1.392 . S
C201 H230 0.947 . S
C202 C201 1.392 . S
C202 C203 1.419 . S
C202 H231 0.948 . S
C203 C202 1.419 . S
C203 C204 1.391 . S
C203 C207 1.397 . S
C204 C199 1.391 . S
C204 C203 1.391 . S
C204 C205 1.399 . S
C205 C204 1.399 . S
C205 C206 1.396 . S
C205 C208 1.453 . S
C205 C209 1.684 . S
C206 C187 1.723 . S
C206 C205 1.396 . S
C206 C207 1.394 . S
C207 C203 1.397 . S
C207 C206 1.394 . S
C207 C217 1.723 . S
C208 C205 1.453 . S
C208 H232 0.982 . S
C208 H233 0.979 . S
C208 H234 0.977 . S
C209 C205 1.684 . S
C209 H235 0.979 . S
C209 H236 0.980 . S
C209 H237 0.983 . S
C210 H186 0.948 . S
C210 C211 1.391 . S
C210 C215 1.391 . S
C211 C210 1.391 . S
C211 C212 1.391 . S
C212 H189 0.947 . S
C212 C211 1.391 . S
C212 C213 1.392 . S
C213 H190 0.948 . S
C213 C212 1.392 . S
C213 C214 1.419 . S
C214 C213 1.419 . S
C214 C215 1.391 . S
C214 C218 1.397 . S
C215 C210 1.391 . S
C215 C214 1.391 . S
C215 C216 1.399 . S
C216 C215 1.399 . S
C216 C217 1.396 . S
C216 C219 1.453 . S
C216 C220 1.684 . S
C217 C207 1.723 . S
C217 C216 1.396 . S
C217 C218 1.394 . S
C218 C188 1.723 . S
C218 C214 1.397 . S
C218 C217 1.394 . S
C219 H191 0.982 . S
C219 H195 0.979 . S
C219 H196 0.977 . S
C219 C216 1.453 . S
C220 H192 0.979 . S
C220 H193 0.980 . S
C220 H194 0.983 . S
C220 C216 1.684 . S
H221 C239 0.948 . S
H222 C180 0.948 . S
H223 C198 0.979 . S
H224 C198 0.980 . S
H225 C198 0.983 . S
H226 C197 0.982 . S
H227 C197 0.979 . S
H228 C197 0.977 . S
H229 C199 0.948 . S
H230 C201 0.947 . S
H231 C202 0.948 . S
H232 C208 0.982 . S
H233 C208 0.979 . S
H234 C208 0.977 . S
H235 C209 0.979 . S
H236 C209 0.980 . S
H237 C209 0.983 . S
H238 C182 0.947 . S
C239 C182 1.392 . S
C239 C183 1.419 . S
C239 H221 0.948 . S
C240 C241 1.391 . S
C240 C244 1.391 . S
C240 H282 0.948 . S
C241 C240 1.391 . S
C241 C242 1.391 . S
C242 C241 1.391 . S
C242 H298 0.947 . S
C242 C299 1.392 . S
C243 C244 1.391 . S
C243 C247 1.397 . S
C243 C299 1.419 . S
C244 C240 1.391 . S
C244 C243 1.391 . S
C244 C245 1.399 . S
C245 C244 1.399 . S
C245 C248 1.396 . S
C245 C257 1.453 . S
C245 C258 1.684 . S
H246 C270 0.948 . S
C247 C243 1.397 . S
C247 C248 1.394 . S
C247 C266 1.723 . S
C248 C245 1.396 . S
C248 C247 1.394 . S
C248 C278 1.723 . S
H249 C272 0.947 . S
H250 C273 0.948 . S
H251 C279 0.982 . S
H252 C280 0.979 . S
H253 C280 0.980 . S
H254 C280 0.983 . S
H255 C279 0.979 . S
H256 C279 0.977 . S
C257 C245 1.453 . S
C257 H286 0.982 . S
C257 H287 0.979 . S
C257 H288 0.977 . S
C258 C245 1.684 . S
C258 H283 0.979 . S
C258 H284 0.980 . S
C258 H285 0.983 . S
C259 C260 1.391 . S
C259 C264 1.391 . S
C259 H289 0.948 . S
C260 C259 1.391 . S
C260 C261 1.391 . S
C261 C260 1.391 . S
C261 C262 1.392 . S
C261 H290 0.947 . S
C262 C261 1.392 . S
C262 C263 1.419 . S
C262 H291 0.948 . S
C263 C262 1.419 . S
C263 C264 1.391 . S
C263 C267 1.397 . S
C264 C259 1.391 . S
C264 C263 1.391 . S
C264 C265 1.399 . S
C265 C264 1.399 . S
C265 C266 1.396 . S
C265 C268 1.453 . S
C265 C269 1.684 . S
C266 C247 1.723 . S
C266 C265 1.396 . S
C266 C267 1.394 . S
C267 C263 1.397 . S
C267 C266 1.394 . S
C267 C277 1.723 . S
C268 C265 1.453 . S
C268 H292 0.982 . S
C268 H293 0.979 . S
C268 H294 0.977 . S
C269 C265 1.684 . S
C269 H295 0.979 . S
C269 H296 0.980 . S
C269 H297 0.983 . S
C270 H246 0.948 . S
C270 C271 1.391 . S
C270 C275 1.391 . S
C271 C270 1.391 . S
C271 C272 1.391 . S
C272 H249 0.947 . S
C272 C271 1.391 . S
C272 C273 1.392 . S
C273 H250 0.948 . S
C273 C272 1.392 . S
C273 C274 1.419 . S
C274 C273 1.419 . S
C274 C275 1.391 . S
C274 C278 1.397 . S
C275 C270 1.391 . S
C275 C274 1.391 . S
C275 C276 1.399 . S
C276 C275 1.399 . S
C276 C277 1.396 . S
C276 C279 1.453 . S
C276 C280 1.684 . S
C277 C267 1.723 . S
C277 C276 1.396 . S
C277 C278 1.394 . S
C278 C248 1.723 . S
C278 C274 1.397 . S
C278 C277 1.394 . S
C279 H251 0.982 . S
C279 H255 0.979 . S
C279 H256 0.977 . S
C279 C276 1.453 . S
C280 H252 0.979 . S
C280 H253 0.980 . S
C280 H254 0.983 . S
C280 C276 1.684 . S
H281 C299 0.948 . S
H282 C240 0.948 . S
H283 C258 0.979 . S
H284 C258 0.980 . S
H285 C258 0.983 . S
H286 C257 0.982 . S
H287 C257 0.979 . S
H288 C257 0.977 . S
H289 C259 0.948 . S
H290 C261 0.947 . S
H291 C262 0.948 . S
H292 C268 0.982 . S
H293 C268 0.979 . S
H294 C268 0.977 . S
H295 C269 0.979 . S
H296 C269 0.980 . S
H297 C269 0.983 . S
H298 C242 0.947 . S
C299 C242 1.392 . S
C299 C243 1.419 . S
C299 H281 0.948 . S
C300 C301 1.391 . S
C300 C304 1.391 . S
C300 H342 0.948 . S
C301 C300 1.391 . S
C301 C302 1.391 . S
C302 C301 1.391 . S
C302 H358 0.947 . S
C302 C359 1.392 . S
C303 C304 1.391 . S
C303 C307 1.397 . S
C303 C359 1.419 . S
C304 C300 1.391 . S
C304 C303 1.391 . S
C304 C305 1.399 . S
C305 C304 1.399 . S
C305 C308 1.396 . S
C305 C317 1.453 . S
C305 C318 1.684 . S
H306 C330 0.948 . S
C307 C303 1.397 . S
C307 C308 1.394 . S
C307 C326 1.723 . S
C308 C305 1.396 . S
C308 C307 1.394 . S
C308 C338 1.723 . S
H309 C332 0.947 . S
H310 C333 0.948 . S
H311 C339 0.982 . S
H312 C340 0.979 . S
H313 C340 0.980 . S
H314 C340 0.983 . S
H315 C339 0.979 . S
H316 C339 0.977 . S
C317 C305 1.453 . S
C317 H346 0.982 . S
C317 H347 0.979 . S
C317 H348 0.977 . S
C318 C305 1.684 . S
C318 H343 0.979 . S
C318 H344 0.980 . S
C318 H345 0.983 . S
C319 C320 1.391 . S
C319 C324 1.391 . S
C319 H349 0.948 . S
C320 C319 1.391 . S
C320 C321 1.391 . S
C321 C320 1.391 . S
C321 C322 1.392 . S
C321 H350 0.947 . S
C322 C321 1.392 . S
C322 C323 1.419 . S
C322 H351 0.948 . S
C323 C322 1.419 . S
C323 C324 1.391 . S
C323 C327 1.397 . S
C324 C319 1.391 . S
C324 C323 1.391 . S
C324 C325 1.399 . S
C325 C324 1.399 . S
C325 C326 1.396 . S
C325 C328 1.453 . S
C325 C329 1.684 . S
C326 C307 1.723 . S
C326 C325 1.396 . S
C326 C327 1.394 . S
C327 C323 1.397 . S
C327 C326 1.394 . S
C327 C337 1.723 . S
C328 C325 1.453 . S
C328 H352 0.982 . S
C328 H353 0.979 . S
C328 H354 0.977 . S
C329 C325 1.684 . S
C329 H355 0.979 . S
C329 H356 0.980 . S
C329 H357 0.983 . S
C330 H306 0.948 . S
C330 C331 1.391 . S
C330 C335 1.391 . S
C331 C330 1.391 . S
C331 C332 1.391 . S
C332 H309 0.947 . S
C332 C331 1.391 . S
C332 C333 1.392 . S
C333 H310 0.948 . S
C333 C332 1.392 . S
C333 C334 1.419 . S
C334 C333 1.419 . S
C334 C335 1.391 . S
C334 C338 1.397 . S
C335 C330 1.391 . S
C335 C334 1.391 . S
C335 C336 1.399 . S
C336 C335 1.399 . S
C336 C337 1.396 . S
C336 C339 1.453 . S
C336 C340 1.684 . S
C337 C327 1.723 . S
C337 C336 1.396 . S
C337 C338 1.394 . S
C338 C308 1.723 . S
C338 C334 1.397 . S
C338 C337 1.394 . S
C339 H311 0.982 . S
C339 H315 0.979 . S
C339 H316 0.977 . S
C339 C336 1.453 . S
C340 H312 0.979 . S
C340 H313 0.980 . S
C340 H314 0.983 . S
C340 C336 1.684 . S
H341 C359 0.948 . S
H342 C300 0.948 . S
H343 C318 0.979 . S
H344 C318 0.980 . S
H345 C318 0.983 . S
H346 C317 0.982 . S
H347 C317 0.979 . S
H348 C317 0.977 . S
H349 C319 0.948 . S
H350 C321 0.947 . S
H351 C322 0.948 . S
H352 C328 0.982 . S
H353 C328 0.979 . S
H354 C328 0.977 . S
H355 C329 0.979 . S
H356 C329 0.980 . S
H357 C329 0.983 . S
H358 C302 0.947 . S
C359 C302 1.392 . S
C359 C303 1.419 . S
C359 H341 0.948 . S
C360 C361 1.391 . S
C360 C364 1.391 . S
C360 H402 0.948 . S
C361 C360 1.391 . S
C361 C362 1.391 . S
C362 C361 1.391 . S
C362 H418 0.947 . S
C362 C419 1.392 . S
C363 C364 1.391 . S
C363 C367 1.397 . S
C363 C419 1.419 . S
C364 C360 1.391 . S
C364 C363 1.391 . S
C364 C365 1.399 . S
C365 C364 1.399 . S
C365 C368 1.396 . S
C365 C377 1.453 . S
C365 C378 1.684 . S
H366 C390 0.948 . S
C367 C363 1.397 . S
C367 C368 1.394 . S
C367 C386 1.723 . S
C368 C365 1.396 . S
C368 C367 1.394 . S
C368 C398 1.723 . S
H369 C392 0.947 . S
H370 C393 0.948 . S
H371 C399 0.982 . S
H372 C400 0.979 . S
H373 C400 0.980 . S
H374 C400 0.983 . S
H375 C399 0.979 . S
H376 C399 0.977 . S
C377 C365 1.453 . S
C377 H406 0.982 . S
C377 H407 0.979 . S
C377 H408 0.977 . S
C378 C365 1.684 . S
C378 H403 0.979 . S
C378 H404 0.980 . S
C378 H405 0.983 . S
C379 C380 1.391 . S
C379 C384 1.391 . S
C379 H409 0.948 . S
C380 C379 1.391 . S
C380 C381 1.391 . S
C381 C380 1.391 . S
C381 C382 1.392 . S
C381 H410 0.947 . S
C382 C381 1.392 . S
C382 C383 1.419 . S
C382 H411 0.948 . S
C383 C382 1.419 . S
C383 C384 1.391 . S
C383 C387 1.397 . S
C384 C379 1.391 . S
C384 C383 1.391 . S
C384 C385 1.399 . S
C385 C384 1.399 . S
C385 C386 1.396 . S
C385 C388 1.453 . S
C385 C389 1.684 . S
C386 C367 1.723 . S
C386 C385 1.396 . S
C386 C387 1.394 . S
C387 C383 1.397 . S
C387 C386 1.394 . S
C387 C397 1.723 . S
C388 C385 1.453 . S
C388 H412 0.982 . S
C388 H413 0.979 . S
C388 H414 0.977 . S
C389 C385 1.684 . S
C389 H415 0.979 . S
C389 H416 0.980 . S
C389 H417 0.983 . S
C390 H366 0.948 . S
C390 C391 1.391 . S
C390 C395 1.391 . S
C391 C390 1.391 . S
C391 C392 1.391 . S
C392 H369 0.947 . S
C392 C391 1.391 . S
C392 C393 1.392 . S
C393 H370 0.948 . S
C393 C392 1.392 . S
C393 C394 1.419 . S
C394 C393 1.419 . S
C394 C395 1.391 . S
C394 C398 1.397 . S
C395 C390 1.391 . S
C395 C394 1.391 . S
C395 C396 1.399 . S
C396 C395 1.399 . S
C396 C397 1.396 . S
C396 C399 1.453 . S
C396 C400 1.684 . S
C397 C387 1.723 . S
C397 C396 1.396 . S
C397 C398 1.394 . S
C398 C368 1.723 . S
C398 C394 1.397 . S
C398 C397 1.394 . S
C399 H371 0.982 . S
C399 H375 0.979 . S
C399 H376 0.977 . S
C399 C396 1.453 . S
C400 H372 0.979 . S
C400 H373 0.980 . S
C400 H374 0.983 . S
C400 C396 1.684 . S
H401 C419 0.948 . S
H402 C360 0.948 . S
H403 C378 0.979 . S
H404 C378 0.980 . S
H405 C378 0.983 . S
H406 C377 0.982 . S
H407 C377 0.979 . S
H408 C377 0.977 . S
H409 C379 0.948 . S
H410 C381 0.947 . S
H411 C382 0.948 . S
H412 C388 0.982 . S
H413 C388 0.979 . S
H414 C388 0.977 . S
H415 C389 0.979 . S
H416 C389 0.980 . S
H417 C389 0.983 . S
H418 C362 0.947 . S
C419 C362 1.392 . S
C419 C363 1.419 . S
C419 H401 0.948 . S
C420 C421 1.391 . S
C420 C424 1.391 . S
C420 H462 0.948 . S
C421 C420 1.391 . S
C421 C422 1.391 . S
C422 C421 1.391 . S
C422 H478 0.947 . S
C422 C479 1.392 . S
C423 C424 1.391 . S
C423 C427 1.397 . S
C423 C479 1.419 . S
C424 C420 1.391 . S
C424 C423 1.391 . S
C424 C425 1.399 . S
C425 C424 1.399 . S
C425 C428 1.396 . S
C425 C437 1.453 . S
C425 C438 1.684 . S
H426 C450 0.948 . S
C427 C423 1.397 . S
C427 C428 1.394 . S
C427 C446 1.723 . S
C428 C425 1.396 . S
C428 C427 1.394 . S
C428 C458 1.723 . S
H429 C452 0.947 . S
H430 C453 0.948 . S
H431 C459 0.982 . S
H432 C460 0.979 . S
H433 C460 0.980 . S
H434 C460 0.983 . S
H435 C459 0.979 . S
H436 C459 0.977 . S
C437 C425 1.453 . S
C437 H466 0.982 . S
C437 H467 0.979 . S
C437 H468 0.977 . S
C438 C425 1.684 . S
C438 H463 0.979 . S
C438 H464 0.980 . S
C438 H465 0.983 . S
C439 C440 1.391 . S
C439 C444 1.391 . S
C439 H469 0.948 . S
C440 C439 1.391 . S
C440 C441 1.391 . S
C441 C440 1.391 . S
C441 C442 1.392 . S
C441 H470 0.947 . S
C442 C441 1.392 . S
C442 C443 1.419 . S
C442 H471 0.948 . S
C443 C442 1.419 . S
C443 C444 1.391 . S
C443 C447 1.397 . S
C444 C439 1.391 . S
C444 C443 1.391 . S
C444 C445 1.399 . S
C445 C444 1.399 . S
C445 C446 1.396 . S
C445 C448 1.453 . S
C445 C449 1.684 . S
C446 C427 1.723 . S
C446 C445 1.396 . S
C446 C447 1.394 . S
C447 C443 1.397 . S
C447 C446 1.394 . S
C447 C457 1.723 . S
C448 C445 1.453 . S
C448 H472 0.982 . S
C448 H473 0.979 . S
C448 H474 0.977 . S
C449 C445 1.684 . S
C449 H475 0.979 . S
C449 H476 0.980 . S
C449 H477 0.983 . S
C450 H426 0.948 . S
C450 C451 1.391 . S
C450 C455 1.391 . S
C451 C450 1.391 . S
C451 C452 1.391 . S
C452 H429 0.947 . S
C452 C451 1.391 . S
C452 C453 1.392 . S
C453 H430 0.948 . S
C453 C452 1.392 . S
C453 C454 1.419 . S
C454 C453 1.419 . S
C454 C455 1.391 . S
C454 C458 1.397 . S
C455 C450 1.391 . S
C455 C454 1.391 . S
C455 C456 1.399 . S
C456 C455 1.399 . S
C456 C457 1.396 . S
C456 C459 1.453 . S
C456 C460 1.684 . S
C457 C447 1.723 . S
C457 C456 1.396 . S
C457 C458 1.394 . S
C458 C428 1.723 . S
C458 C454 1.397 . S
C458 C457 1.394 . S
C459 H431 0.982 . S
C459 H435 0.979 . S
C459 H436 0.977 . S
C459 C456 1.453 . S
C460 H432 0.979 . S
C460 H433 0.980 . S
C460 H434 0.983 . S
C460 C456 1.684 . S
H461 C479 0.948 . S
H462 C420 0.948 . S
H463 C438 0.979 . S
H464 C438 0.980 . S
H465 C438 0.983 . S
H466 C437 0.982 . S
H467 C437 0.979 . S
H468 C437 0.977 . S
H469 C439 0.948 . S
H470 C441 0.947 . S
H471 C442 0.948 . S
H472 C448 0.982 . S
H473 C448 0.979 . S
H474 C448 0.977 . S
H475 C449 0.979 . S
H476 C449 0.980 . S
H477 C449 0.983 . S
H478 C422 0.947 . S
C479 C422 1.392 . S
C479 C423 1.419 . S
C479 H461 0.948 . S
Dy480 O484 2.398 . S
Dy480 O485 2.491 . S
Dy480 O486 2.403 1_545 S
Dy480 O487 2.664 1_545 S
Dy480 O491 2.326 . S
Dy480 O495 2.310 1_455 S
Dy480 O496 2.351 1_445 S
C481 O492 1.185 . S
C481 O493 1.355 . S
C482 O484 1.185 . S
C482 O485 1.355 . S
Dy483 O487 2.310 1_655 S
Dy483 O490 2.351 1_665 S
Dy483 O492 2.398 . S
Dy483 O493 2.491 . S
Dy483 O494 2.403 1_565 S
Dy483 O495 2.664 1_565 S
Dy483 O497 2.326 . S
O484 Dy480 2.398 . S
O484 C482 1.185 . S
O485 Dy480 2.491 . S
O485 C482 1.355 . S
O486 Dy480 2.403 1_565 S
O486 C488 1.254 . S
O487 Dy480 2.664 1_565 S
O487 Dy483 2.310 1_455 S
O487 C488 1.268 . S
C488 O486 1.254 . S
C488 O487 1.268 . S
C489 O494 1.254 . S
C489 O495 1.268 . S
O490 Dy483 2.351 1_445 S
O490 C498 1.249 . S
O491 Dy480 2.326 . S
O491 C498 1.267 . S
O492 C481 1.185 . S
O492 Dy483 2.398 . S
O493 C481 1.355 . S
O493 Dy483 2.491 . S
O494 Dy483 2.403 1_545 S
O494 C489 1.254 . S
O495 Dy480 2.310 1_655 S
O495 Dy483 2.664 1_545 S
O495 C489 1.268 . S
O496 Dy480 2.351 1_665 S
O496 C499 1.249 . S
O497 Dy483 2.326 . S
O497 C499 1.267 . S
C498 O490 1.249 . S
C498 O491 1.267 . S
C499 O496 1.249 . S
C499 O497 1.267 . S
Dy500 O504 2.398 . S
Dy500 O505 2.491 . S
Dy500 O506 2.403 1_545 S
Dy500 O507 2.664 1_545 S
Dy500 O511 2.326 . S
Dy500 O515 2.310 1_554 S
Dy500 O516 2.351 1_544 S
C501 O512 1.185 . S
C501 O513 1.355 . S
C502 O504 1.185 . S
C502 O505 1.355 . S
Dy503 O507 2.336 1_556 S
Dy503 O510 2.329 1_566 S
Dy503 O512 2.403 . S
Dy503 O513 2.528 . S
Dy503 O514 2.370 1_565 S
Dy503 O515 2.645 1_565 S
Dy503 O517 2.343 . S
O504 Dy500 2.398 . S
O504 C502 1.185 . S
O505 Dy500 2.491 . S
O505 C502 1.355 . S
O506 Dy500 2.403 1_565 S
O506 C508 1.254 . S
O507 Dy500 2.664 1_565 S
O507 Dy503 2.336 1_554 S
O507 C508 1.268 . S
C508 O506 1.254 . S
C508 O507 1.268 . S
C509 O514 1.254 . S
C509 O515 1.268 . S
O510 Dy503 2.329 1_544 S
O510 C518 1.249 . S
O511 Dy500 2.326 . S
O511 C518 1.267 . S
O512 C501 1.185 . S
O512 Dy503 2.403 . S
O513 C501 1.355 . S
O513 Dy503 2.528 . S
O514 Dy503 2.370 1_545 S
O514 C509 1.254 . S
O515 Dy500 2.310 1_556 S
O515 Dy503 2.645 1_545 S
O515 C509 1.268 . S
O516 Dy500 2.351 1_566 S
O516 C519 1.249 . S
O517 Dy503 2.343 . S
O517 C519 1.267 . S
C518 O510 1.249 . S
C518 O511 1.267 . S
C519 O516 1.249 . S
C519 O517 1.267 . S
Dy520 O524 2.398 . S
Dy520 O525 2.491 . S
Dy520 O526 2.403 . S
Dy520 O527 2.664 . S
Dy520 O531 2.326 . S
Dy520 O535 2.310 . S
Dy520 O536 2.351 . S
C521 O532 1.185 . S
C521 O533 1.355 . S
C522 O524 1.185 . S
C522 O525 1.355 . S
Dy523 O527 2.310 . S
Dy523 O530 2.351 . S
Dy523 O532 2.398 . S
Dy523 O533 2.491 . S
Dy523 O534 2.403 . S
Dy523 O535 2.664 . S
Dy523 O537 2.326 . S
O524 Dy520 2.398 . S
O524 C522 1.185 . S
O525 Dy520 2.491 . S
O525 C522 1.355 . S
O526 Dy520 2.403 . S
O526 C528 1.254 . S
O527 Dy520 2.664 . S
O527 Dy523 2.310 . S
O527 C528 1.268 . S
C528 O526 1.254 . S
C528 O527 1.268 . S
C529 O534 1.254 . S
C529 O535 1.268 . S
O530 Dy523 2.351 . S
O530 C538 1.249 . S
O531 Dy520 2.326 . S
O531 C538 1.267 . S
O532 C521 1.185 . S
O532 Dy523 2.398 . S
O533 C521 1.355 . S
O533 Dy523 2.491 . S
O534 Dy523 2.403 . S
O534 C529 1.254 . S
O535 Dy520 2.310 . S
O535 Dy523 2.664 . S
O535 C529 1.268 . S
O536 Dy520 2.351 . S
O536 C539 1.249 . S
O537 Dy523 2.326 . S
O537 C539 1.267 . S
C538 O530 1.249 . S
C538 O531 1.267 . S
C539 O536 1.249 . S
C539 O537 1.267 . S
Dy540 O544 2.398 . S
Dy540 O545 2.491 . S
Dy540 O546 2.403 1_455 S
Dy540 O547 2.664 1_455 S
Dy540 O551 2.326 . S
Dy540 O555 2.310 1_554 S
Dy540 O556 2.351 1_454 S
C541 O552 1.185 . S
C541 O553 1.355 . S
C542 O544 1.185 . S
C542 O545 1.355 . S
Dy543 O547 2.310 1_556 S
Dy543 O550 2.351 1_656 S
Dy543 O552 2.398 . S
Dy543 O553 2.491 . S
Dy543 O554 2.403 1_655 S
Dy543 O555 2.664 1_655 S
Dy543 O557 2.326 . S
O544 Dy540 2.398 . S
O544 C542 1.185 . S
O545 Dy540 2.491 . S
O545 C542 1.355 . S
O546 Dy540 2.403 1_655 S
O546 C548 1.254 . S
O547 Dy540 2.664 1_655 S
O547 Dy543 2.310 1_554 S
O547 C548 1.268 . S
C548 O546 1.254 . S
C548 O547 1.268 . S
C549 O554 1.254 . S
C549 O555 1.268 . S
O550 Dy543 2.351 1_454 S
O550 C558 1.249 . S
O551 Dy540 2.326 . S
O551 C558 1.267 . S
O552 C541 1.185 . S
O552 Dy543 2.398 . S
O553 C541 1.355 . S
O553 Dy543 2.491 . S
O554 Dy543 2.403 1_455 S
O554 C549 1.254 . S
O555 Dy540 2.310 1_556 S
O555 Dy543 2.664 1_455 S
O555 C549 1.268 . S
O556 Dy540 2.351 1_656 S
O556 C559 1.249 . S
O557 Dy543 2.326 . S
O557 C559 1.267 . S
C558 O550 1.249 . S
C558 O551 1.267 . S
C559 O556 1.249 . S
C559 O557 1.267 . S
H560 C568 0.929 . S
H561 C570 0.930 . S
H562 C572 0.930 . S
H563 C575 0.929 . S
H564 C578 0.930 . S
H565 C580 0.960 . S
H566 C580 0.960 . S
H567 C580 0.960 . S
C568 H560 0.929 . S
C568 C569 1.377 . S
C568 C570 1.384 . S
C569 C568 1.377 . S
C569 C575 1.390 . S
C570 H561 0.930 . S
C570 C568 1.384 . S
C570 C571 1.372 . S
C571 C570 1.372 . S
C571 C572 1.400 . S
C571 C576 1.490 . S
C572 H562 0.930 . S
C572 C571 1.400 . S
C572 C575 1.386 . S
H573 C589 0.930 . S
H574 C590 0.931 . S
C575 H563 0.929 . S
C575 C569 1.390 . S
C575 C572 1.386 . S
C576 C571 1.490 . S
C576 C578 1.395 . S
C576 C579 1.403 . S
H577 C583 0.930 . S
C578 H564 0.930 . S
C578 C576 1.395 . S
C578 C581 1.403 . S
C579 C576 1.403 . S
C579 C580 1.524 . S
C579 C583 1.400 . S
C580 H565 0.960 . S
C580 H566 0.960 . S
C580 H567 0.960 . S
C580 C579 1.524 . S
C581 C578 1.403 . S
C581 C582 1.392 . S
C581 C585 1.495 . S
C582 C581 1.392 . S
C582 C583 1.385 . S
C582 C584 1.478 . S
C583 H577 0.930 . S
C583 C579 1.400 . S
C583 C582 1.385 . S
C584 C582 1.478 . S
C584 C586 1.381 . S
C584 C590 1.383 . S
C585 C581 1.495 . S
C585 H591 0.959 . S
C585 H592 0.961 . S
C585 H593 0.960 . S
C586 C584 1.381 . S
C586 C587 1.394 . S
C586 H594 0.930 . S
C587 C586 1.394 . S
C587 C588 1.383 . S
C587 H595 0.929 . S
C588 C587 1.383 . S
C588 C589 1.377 . S
C589 H573 0.930 . S
C589 C588 1.377 . S
C589 C590 1.379 . S
C590 H574 0.931 . S
C590 C584 1.383 . S
C590 C589 1.379 . S
H591 C585 0.959 . S
H592 C585 0.961 . S
H593 C585 0.960 . S
H594 C586 0.930 . S
H595 C587 0.929 . S
H596 C604 0.929 . S
H597 C606 0.930 . S
H598 C608 0.930 . S
H599 C611 0.929 . S
H600 C614 0.930 . S
H601 C616 0.960 . S
H602 C616 0.960 . S
H603 C616 0.960 . S
C604 H596 0.929 . S
C604 C605 1.377 . S
C604 C606 1.384 . S
C605 C604 1.377 . S
C605 C611 1.390 . S
C606 H597 0.930 . S
C606 C604 1.384 . S
C606 C607 1.372 . S
C607 C606 1.372 . S
C607 C608 1.400 . S
C607 C612 1.490 . S
C608 H598 0.930 . S
C608 C607 1.400 . S
C608 C611 1.386 . S
H609 C625 0.930 . S
H610 C626 0.931 . S
C611 H599 0.929 . S
C611 C605 1.390 . S
C611 C608 1.386 . S
C612 C607 1.490 . S
C612 C614 1.395 . S
C612 C615 1.403 . S
H613 C619 0.930 . S
C614 H600 0.930 . S
C614 C612 1.395 . S
C614 C617 1.403 . S
C615 C612 1.403 . S
C615 C616 1.524 . S
C615 C619 1.400 . S
C616 H601 0.960 . S
C616 H602 0.960 . S
C616 H603 0.960 . S
C616 C615 1.524 . S
C617 C614 1.403 . S
C617 C618 1.392 . S
C617 C621 1.495 . S
C618 C617 1.392 . S
C618 C619 1.385 . S
C618 C620 1.478 . S
C619 H613 0.930 . S
C619 C615 1.400 . S
C619 C618 1.385 . S
C620 C618 1.478 . S
C620 C622 1.381 . S
C620 C626 1.383 . S
C621 C617 1.495 . S
C621 H627 0.959 . S
C621 H628 0.961 . S
C621 H629 0.960 . S
C622 C620 1.381 . S
C622 C623 1.394 . S
C622 H630 0.930 . S
C623 C622 1.394 . S
C623 C624 1.383 . S
C623 H631 0.929 . S
C624 C623 1.383 . S
C624 C625 1.377 . S
C625 H609 0.930 . S
C625 C624 1.377 . S
C625 C626 1.379 . S
C626 H610 0.931 . S
C626 C620 1.383 . S
C626 C625 1.379 . S
H627 C621 0.959 . S
H628 C621 0.961 . S
H629 C621 0.960 . S
H630 C622 0.930 . S
H631 C623 0.929 . S
H632 C640 0.929 . S
H633 C642 0.930 . S
H634 C644 0.930 . S
H635 C647 0.929 . S
H636 C650 0.930 . S
H637 C652 0.960 . S
H638 C652 0.960 . S
H639 C652 0.960 . S
C640 H632 0.929 . S
C640 C641 1.377 . S
C640 C642 1.384 . S
C641 C640 1.377 . S
C641 C647 1.390 . S
C642 H633 0.930 . S
C642 C640 1.384 . S
C642 C643 1.372 . S
C643 C642 1.372 . S
C643 C644 1.400 . S
C643 C648 1.490 . S
C644 H634 0.930 . S
C644 C643 1.400 . S
C644 C647 1.386 . S
H645 C661 0.930 . S
H646 C662 0.931 . S
C647 H635 0.929 . S
C647 C641 1.390 . S
C647 C644 1.386 . S
C648 C643 1.490 . S
C648 C650 1.395 . S
C648 C651 1.403 . S
H649 C655 0.930 . S
C650 H636 0.930 . S
C650 C648 1.395 . S
C650 C653 1.403 . S
C651 C648 1.403 . S
C651 C652 1.524 . S
C651 C655 1.400 . S
C652 H637 0.960 . S
C652 H638 0.960 . S
C652 H639 0.960 . S
C652 C651 1.524 . S
C653 C650 1.403 . S
C653 C654 1.392 . S
C653 C657 1.495 . S
C654 C653 1.392 . S
C654 C655 1.385 . S
C654 C656 1.478 . S
C655 H649 0.930 . S
C655 C651 1.400 . S
C655 C654 1.385 . S
C656 C654 1.478 . S
C656 C658 1.381 . S
C656 C662 1.383 . S
C657 C653 1.495 . S
C657 H663 0.959 . S
C657 H664 0.961 . S
C657 H665 0.960 . S
C658 C656 1.381 . S
C658 C659 1.394 . S
C658 H666 0.930 . S
C659 C658 1.394 . S
C659 C660 1.383 . S
C659 H667 0.929 . S
C660 C659 1.383 . S
C660 C661 1.377 . S
C661 H645 0.930 . S
C661 C660 1.377 . S
C661 C662 1.379 . S
C662 H646 0.931 . S
C662 C656 1.383 . S
C662 C661 1.379 . S
H663 C657 0.959 . S
H664 C657 0.961 . S
H665 C657 0.960 . S
H666 C658 0.930 . S
H667 C659 0.929 . S
H668 C676 0.929 . S
H669 C678 0.930 . S
H670 C680 0.930 . S
H671 C683 0.929 . S
H672 C686 0.930 . S
H673 C688 0.960 . S
H674 C688 0.960 . S
H675 C688 0.960 . S
C676 H668 0.929 . S
C676 C677 1.377 . S
C676 C678 1.384 . S
C677 C676 1.377 . S
C677 C683 1.390 . S
C678 H669 0.930 . S
C678 C676 1.384 . S
C678 C679 1.372 . S
C679 C678 1.372 . S
C679 C680 1.400 . S
C679 C684 1.490 . S
C680 H670 0.930 . S
C680 C679 1.400 . S
C680 C683 1.386 . S
H681 C697 0.930 . S
H682 C698 0.931 . S
C683 H671 0.929 . S
C683 C677 1.390 . S
C683 C680 1.386 . S
C684 C679 1.490 . S
C684 C686 1.395 . S
C684 C687 1.403 . S
H685 C691 0.930 . S
C686 H672 0.930 . S
C686 C684 1.395 . S
C686 C689 1.403 . S
C687 C684 1.403 . S
C687 C688 1.524 . S
C687 C691 1.400 . S
C688 H673 0.960 . S
C688 H674 0.960 . S
C688 H675 0.960 . S
C688 C687 1.524 . S
C689 C686 1.403 . S
C689 C690 1.392 . S
C689 C693 1.495 . S
C690 C689 1.392 . S
C690 C691 1.385 . S
C690 C692 1.478 . S
C691 H685 0.930 . S
C691 C687 1.400 . S
C691 C690 1.385 . S
C692 C690 1.478 . S
C692 C694 1.381 . S
C692 C698 1.383 . S
C693 C689 1.495 . S
C693 H699 0.959 . S
C693 H700 0.961 . S
C693 H701 0.960 . S
C694 C692 1.381 . S
C694 C695 1.394 . S
C694 H702 0.930 . S
C695 C694 1.394 . S
C695 C696 1.383 . S
C695 H703 0.929 . S
C696 C695 1.383 . S
C696 C697 1.377 . S
C697 H681 0.930 . S
C697 C696 1.377 . S
C697 C698 1.379 . S
C698 H682 0.931 . S
C698 C692 1.383 . S
C698 C697 1.379 . S
H699 C693 0.959 . S
H700 C693 0.961 . S
H701 C693 0.960 . S
H702 C694 0.930 . S
H703 C695 0.929 . S
H704 C712 0.929 . S
H705 C714 0.930 . S
H706 C716 0.930 . S
H707 C719 0.929 . S
H708 C722 0.930 . S
H709 C724 0.960 . S
H710 C724 0.960 . S
H711 C724 0.960 . S
C712 H704 0.929 . S
C712 C713 1.377 . S
C712 C714 1.384 . S
C713 C712 1.377 . S
C713 C719 1.390 . S
C714 H705 0.930 . S
C714 C712 1.384 . S
C714 C715 1.372 . S
C715 C714 1.372 . S
C715 C716 1.400 . S
C715 C720 1.490 . S
C716 H706 0.930 . S
C716 C715 1.400 . S
C716 C719 1.386 . S
H717 C733 0.930 . S
H718 C734 0.931 . S
C719 H707 0.929 . S
C719 C713 1.390 . S
C719 C716 1.386 . S
C720 C715 1.490 . S
C720 C722 1.395 . S
C720 C723 1.403 . S
H721 C727 0.930 . S
C722 H708 0.930 . S
C722 C720 1.395 . S
C722 C725 1.403 . S
C723 C720 1.403 . S
C723 C724 1.524 . S
C723 C727 1.400 . S
C724 H709 0.960 . S
C724 H710 0.960 . S
C724 H711 0.960 . S
C724 C723 1.524 . S
C725 C722 1.403 . S
C725 C726 1.392 . S
C725 C729 1.495 . S
C726 C725 1.392 . S
C726 C727 1.385 . S
C726 C728 1.478 . S
C727 H721 0.930 . S
C727 C723 1.400 . S
C727 C726 1.385 . S
C728 C726 1.478 . S
C728 C730 1.381 . S
C728 C734 1.383 . S
C729 C725 1.495 . S
C729 H735 0.959 . S
C729 H736 0.961 . S
C729 H737 0.960 . S
C730 C728 1.381 . S
C730 C731 1.394 . S
C730 H738 0.930 . S
C731 C730 1.394 . S
C731 C732 1.383 . S
C731 H739 0.929 . S
C732 C731 1.383 . S
C732 C733 1.377 . S
C733 H717 0.930 . S
C733 C732 1.377 . S
C733 C734 1.379 . S
C734 H718 0.931 . S
C734 C728 1.383 . S
C734 C733 1.379 . S
H735 C729 0.959 . S
H736 C729 0.961 . S
H737 C729 0.960 . S
H738 C730 0.930 . S
H739 C731 0.929 . S
H740 C748 0.929 . S
H741 C750 0.930 . S
H742 C752 0.930 . S
H743 C755 0.929 . S
H744 C758 0.930 . S
H745 C760 0.960 . S
H746 C760 0.960 . S
H747 C760 0.960 . S
C748 H740 0.929 . S
C748 C749 1.377 . S
C748 C750 1.384 . S
C749 C748 1.377 . S
C749 C755 1.390 . S
C750 H741 0.930 . S
C750 C748 1.384 . S
C750 C751 1.372 . S
C751 C750 1.372 . S
C751 C752 1.400 . S
C751 C756 1.490 . S
C752 H742 0.930 . S
C752 C751 1.400 . S
C752 C755 1.386 . S
H753 C769 0.930 . S
H754 C770 0.931 . S
C755 H743 0.929 . S
C755 C749 1.390 . S
C755 C752 1.386 . S
C756 C751 1.490 . S
C756 C758 1.395 . S
C756 C759 1.403 . S
H757 C763 0.930 . S
C758 H744 0.930 . S
C758 C756 1.395 . S
C758 C761 1.403 . S
C759 C756 1.403 . S
C759 C760 1.524 . S
C759 C763 1.400 . S
C760 H745 0.960 . S
C760 H746 0.960 . S
C760 H747 0.960 . S
C760 C759 1.524 . S
C761 C758 1.403 . S
C761 C762 1.392 . S
C761 C765 1.495 . S
C762 C761 1.392 . S
C762 C763 1.385 . S
C762 C764 1.478 . S
C763 H757 0.930 . S
C763 C759 1.400 . S
C763 C762 1.385 . S
C764 C762 1.478 . S
C764 C766 1.381 . S
C764 C770 1.383 . S
C765 C761 1.495 . S
C765 H771 0.959 . S
C765 H772 0.961 . S
C765 H773 0.960 . S
C766 C764 1.381 . S
C766 C767 1.394 . S
C766 H774 0.930 . S
C767 C766 1.394 . S
C767 C768 1.383 . S
C767 H775 0.929 . S
C768 C767 1.383 . S
C768 C769 1.377 . S
C769 H753 0.930 . S
C769 C768 1.377 . S
C769 C770 1.379 . S
C770 H754 0.931 . S
C770 C764 1.383 . S
C770 C769 1.379 . S
H771 C765 0.959 . S
H772 C765 0.961 . S
H773 C765 0.960 . S
H774 C766 0.930 . S
H775 C767 0.929 . S
H776 C784 0.929 . S
H777 C786 0.930 . S
H778 C788 0.930 . S
H779 C791 0.929 . S
H780 C794 0.930 . S
H781 C796 0.960 . S
H782 C796 0.960 . S
H783 C796 0.960 . S
C784 H776 0.929 . S
C784 C785 1.377 . S
C784 C786 1.384 . S
C785 C784 1.377 . S
C785 C791 1.390 . S
C786 H777 0.930 . S
C786 C784 1.384 . S
C786 C787 1.372 . S
C787 C786 1.372 . S
C787 C788 1.400 . S
C787 C792 1.490 . S
C788 H778 0.930 . S
C788 C787 1.400 . S
C788 C791 1.386 . S
H789 C805 0.930 . S
H790 C806 0.931 . S
C791 H779 0.929 . S
C791 C785 1.390 . S
C791 C788 1.386 . S
C792 C787 1.490 . S
C792 C794 1.395 . S
C792 C795 1.403 . S
H793 C799 0.930 . S
C794 H780 0.930 . S
C794 C792 1.395 . S
C794 C797 1.403 . S
C795 C792 1.403 . S
C795 C796 1.524 . S
C795 C799 1.400 . S
C796 H781 0.960 . S
C796 H782 0.960 . S
C796 H783 0.960 . S
C796 C795 1.524 . S
C797 C794 1.403 . S
C797 C798 1.392 . S
C797 C801 1.495 . S
C798 C797 1.392 . S
C798 C799 1.385 . S
C798 C800 1.478 . S
C799 H793 0.930 . S
C799 C795 1.400 . S
C799 C798 1.385 . S
C800 C798 1.478 . S
C800 C802 1.381 . S
C800 C806 1.383 . S
C801 C797 1.495 . S
C801 H807 0.959 . S
C801 H808 0.961 . S
C801 H809 0.960 . S
C802 C800 1.381 . S
C802 C803 1.394 . S
C802 H810 0.930 . S
C803 C802 1.394 . S
C803 C804 1.383 . S
C803 H811 0.929 . S
C804 C803 1.383 . S
C804 C805 1.377 . S
C805 H789 0.930 . S
C805 C804 1.377 . S
C805 C806 1.379 . S
C806 H790 0.931 . S
C806 C800 1.383 . S
C806 C805 1.379 . S
H807 C801 0.959 . S
H808 C801 0.961 . S
H809 C801 0.960 . S
H810 C802 0.930 . S
H811 C803 0.929 . S
H812 C820 0.929 . S
H813 C822 0.930 . S
H814 C824 0.930 . S
H815 C827 0.929 . S
H816 C830 0.930 . S
H817 C832 0.960 . S
H818 C832 0.960 . S
H819 C832 0.960 . S
C820 H812 0.929 . S
C820 C821 1.377 . S
C820 C822 1.384 . S
C821 C820 1.377 . S
C821 C827 1.390 . S
C822 H813 0.930 . S
C822 C820 1.384 . S
C822 C823 1.372 . S
C823 C822 1.372 . S
C823 C824 1.400 . S
C823 C828 1.490 . S
C824 H814 0.930 . S
C824 C823 1.400 . S
C824 C827 1.386 . S
H825 C841 0.930 . S
H826 C842 0.931 . S
C827 H815 0.929 . S
C827 C821 1.390 . S
C827 C824 1.386 . S
C828 C823 1.490 . S
C828 C830 1.395 . S
C828 C831 1.403 . S
H829 C835 0.930 . S
C830 H816 0.930 . S
C830 C828 1.395 . S
C830 C833 1.403 . S
C831 C828 1.403 . S
C831 C832 1.524 . S
C831 C835 1.400 . S
C832 H817 0.960 . S
C832 H818 0.960 . S
C832 H819 0.960 . S
C832 C831 1.524 . S
C833 C830 1.403 . S
C833 C834 1.392 . S
C833 C837 1.495 . S
C834 C833 1.392 . S
C834 C835 1.385 . S
C834 C836 1.478 . S
C835 H829 0.930 . S
C835 C831 1.400 . S
C835 C834 1.385 . S
C836 C834 1.478 . S
C836 C838 1.381 . S
C836 C842 1.383 . S
C837 C833 1.495 . S
C837 H843 0.959 . S
C837 H844 0.961 . S
C837 H845 0.960 . S
C838 C836 1.381 . S
C838 C839 1.394 . S
C838 H846 0.930 . S
C839 C838 1.394 . S
C839 C840 1.383 . S
C839 H847 0.929 . S
C840 C839 1.383 . S
C840 C841 1.377 . S
C841 H825 0.930 . S
C841 C840 1.377 . S
C841 C842 1.379 . S
C842 H826 0.931 . S
C842 C836 1.383 . S
C842 C841 1.379 . S
H843 C837 0.959 . S
H844 C837 0.961 . S
H845 C837 0.960 . S
H846 C838 0.930 . S
H847 C839 0.929 . S
H848 C856 0.929 . S
H849 C858 0.930 . S
H850 C860 0.930 . S
H851 C863 0.929 . S
H852 C866 0.930 . S
H853 C868 0.960 . S
H854 C868 0.960 . S
H855 C868 0.960 . S
C856 H848 0.929 . S
C856 C857 1.377 . S
C856 C858 1.384 . S
C857 C856 1.377 . S
C857 C863 1.390 . S
C858 H849 0.930 . S
C858 C856 1.384 . S
C858 C859 1.372 . S
C859 C858 1.372 . S
C859 C860 1.400 . S
C859 C864 1.490 . S
C860 H850 0.930 . S
C860 C859 1.400 . S
C860 C863 1.386 . S
H861 C877 0.930 . S
H862 C878 0.931 . S
C863 H851 0.929 . S
C863 C857 1.390 . S
C863 C860 1.386 . S
C864 C859 1.490 . S
C864 C866 1.395 . S
C864 C867 1.403 . S
H865 C871 0.930 . S
C866 H852 0.930 . S
C866 C864 1.395 . S
C866 C869 1.403 . S
C867 C864 1.403 . S
C867 C868 1.524 . S
C867 C871 1.400 . S
C868 H853 0.960 . S
C868 H854 0.960 . S
C868 H855 0.960 . S
C868 C867 1.524 . S
C869 C866 1.403 . S
C869 C870 1.392 . S
C869 C873 1.495 . S
C870 C869 1.392 . S
C870 C871 1.385 . S
C870 C872 1.478 . S
C871 H865 0.930 . S
C871 C867 1.400 . S
C871 C870 1.385 . S
C872 C870 1.478 . S
C872 C874 1.381 . S
C872 C878 1.383 . S
C873 C869 1.495 . S
C873 H879 0.959 . S
C873 H880 0.961 . S
C873 H881 0.960 . S
C874 C872 1.381 . S
C874 C875 1.394 . S
C874 H882 0.930 . S
C875 C874 1.394 . S
C875 C876 1.383 . S
C875 H883 0.929 . S
C876 C875 1.383 . S
C876 C877 1.377 . S
C877 H861 0.930 . S
C877 C876 1.377 . S
C877 C878 1.379 . S
C878 H862 0.931 . S
C878 C872 1.383 . S
C878 C877 1.379 . S
H879 C873 0.959 . S
H880 C873 0.961 . S
H881 C873 0.960 . S
H882 C874 0.930 . S
H883 C875 0.929 . S
H884 C892 0.929 . S
H885 C894 0.930 . S
H886 C896 0.930 . S
H887 C899 0.929 . S
H888 C902 0.930 . S
H889 C904 0.960 . S
H890 C904 0.960 . S
H891 C904 0.960 . S
C892 H884 0.929 . S
C892 C893 1.377 . S
C892 C894 1.384 . S
C893 C892 1.377 . S
C893 C899 1.390 . S
C894 H885 0.930 . S
C894 C892 1.384 . S
C894 C895 1.372 . S
C895 C894 1.372 . S
C895 C896 1.400 . S
C895 C900 1.490 . S
C896 H886 0.930 . S
C896 C895 1.400 . S
C896 C899 1.386 . S
H897 C913 0.930 . S
H898 C914 0.931 . S
C899 H887 0.929 . S
C899 C893 1.390 . S
C899 C896 1.386 . S
C900 C895 1.490 . S
C900 C902 1.395 . S
C900 C903 1.403 . S
H901 C907 0.930 . S
C902 H888 0.930 . S
C902 C900 1.395 . S
C902 C905 1.403 . S
C903 C900 1.403 . S
C903 C904 1.524 . S
C903 C907 1.400 . S
C904 H889 0.960 . S
C904 H890 0.960 . S
C904 H891 0.960 . S
C904 C903 1.524 . S
C905 C902 1.403 . S
C905 C906 1.392 . S
C905 C909 1.495 . S
C906 C905 1.392 . S
C906 C907 1.385 . S
C906 C908 1.478 . S
C907 H901 0.930 . S
C907 C903 1.400 . S
C907 C906 1.385 . S
C908 C906 1.478 . S
C908 C910 1.381 . S
C908 C914 1.383 . S
C909 C905 1.495 . S
C909 H915 0.959 . S
C909 H916 0.961 . S
C909 H917 0.960 . S
C910 C908 1.381 . S
C910 C911 1.394 . S
C910 H918 0.930 . S
C911 C910 1.394 . S
C911 C912 1.383 . S
C911 H919 0.929 . S
C912 C911 1.383 . S
C912 C913 1.377 . S
C913 H897 0.930 . S
C913 C912 1.377 . S
C913 C914 1.379 . S
C914 H898 0.931 . S
C914 C908 1.383 . S
C914 C913 1.379 . S
H915 C909 0.959 . S
H916 C909 0.961 . S
H917 C909 0.960 . S
H918 C910 0.930 . S
H919 C911 0.929 . S
H920 C928 0.929 . S
H921 C930 0.930 . S
H922 C932 0.930 . S
H923 C935 0.929 . S
H924 C938 0.930 . S
H925 C940 0.960 . S
H926 C940 0.960 . S
H927 C940 0.960 . S
C928 H920 0.929 . S
C928 C929 1.377 . S
C928 C930 1.384 . S
C929 C928 1.377 . S
C929 C935 1.390 . S
C930 H921 0.930 . S
C930 C928 1.384 . S
C930 C931 1.372 . S
C931 C930 1.372 . S
C931 C932 1.400 . S
C931 C936 1.490 . S
C932 H922 0.930 . S
C932 C931 1.400 . S
C932 C935 1.386 . S
H933 C949 0.930 . S
H934 C950 0.931 . S
C935 H923 0.929 . S
C935 C929 1.390 . S
C935 C932 1.386 . S
C936 C931 1.490 . S
C936 C938 1.395 . S
C936 C939 1.403 . S
H937 C943 0.930 . S
C938 H924 0.930 . S
C938 C936 1.395 . S
C938 C941 1.403 . S
C939 C936 1.403 . S
C939 C940 1.524 . S
C939 C943 1.400 . S
C940 H925 0.960 . S
C940 H926 0.960 . S
C940 H927 0.960 . S
C940 C939 1.524 . S
C941 C938 1.403 . S
C941 C942 1.392 . S
C941 C945 1.495 . S
C942 C941 1.392 . S
C942 C943 1.385 . S
C942 C944 1.478 . S
C943 H937 0.930 . S
C943 C939 1.400 . S
C943 C942 1.385 . S
C944 C942 1.478 . S
C944 C946 1.381 . S
C944 C950 1.383 . S
C945 C941 1.495 . S
C945 H951 0.959 . S
C945 H952 0.961 . S
C945 H953 0.960 . S
C946 C944 1.381 . S
C946 C947 1.394 . S
C946 H954 0.930 . S
C947 C946 1.394 . S
C947 C948 1.383 . S
C947 H955 0.929 . S
C948 C947 1.383 . S
C948 C949 1.377 . S
C949 H933 0.930 . S
C949 C948 1.377 . S
C949 C950 1.379 . S
C950 H934 0.931 . S
C950 C944 1.383 . S
C950 C949 1.379 . S
H951 C945 0.959 . S
H952 C945 0.961 . S
H953 C945 0.960 . S
H954 C946 0.930 . S
H955 C947 0.929 . S
H956 C964 0.929 . S
H957 C966 0.930 . S
H958 C968 0.930 . S
H959 C971 0.929 . S
H960 C974 0.930 . S
H961 C976 0.960 . S
H962 C976 0.960 . S
H963 C976 0.960 . S
C964 H956 0.929 . S
C964 C965 1.377 . S
C964 C966 1.384 . S
C965 C964 1.377 . S
C965 C971 1.390 . S
C966 H957 0.930 . S
C966 C964 1.384 . S
C966 C967 1.372 . S
C967 C966 1.372 . S
C967 C968 1.400 . S
C967 C972 1.490 . S
C968 H958 0.930 . S
C968 C967 1.400 . S
C968 C971 1.386 . S
H969 C985 0.930 . S
H970 C986 0.931 . S
C971 H959 0.929 . S
C971 C965 1.390 . S
C971 C968 1.386 . S
C972 C967 1.490 . S
C972 C974 1.395 . S
C972 C975 1.403 . S
H973 C979 0.930 . S
C974 H960 0.930 . S
C974 C972 1.395 . S
C974 C977 1.403 . S
C975 C972 1.403 . S
C975 C976 1.524 . S
C975 C979 1.400 . S
C976 H961 0.960 . S
C976 H962 0.960 . S
C976 H963 0.960 . S
C976 C975 1.524 . S
C977 C974 1.403 . S
C977 C978 1.392 . S
C977 C981 1.495 . S
C978 C977 1.392 . S
C978 C979 1.385 . S
C978 C980 1.478 . S
C979 H973 0.930 . S
C979 C975 1.400 . S
C979 C978 1.385 . S
C980 C978 1.478 . S
C980 C982 1.381 . S
C980 C986 1.383 . S
C981 C977 1.495 . S
C981 H987 0.959 . S
C981 H988 0.961 . S
C981 H989 0.960 . S
C982 C980 1.381 . S
C982 C983 1.394 . S
C982 H990 0.930 . S
C983 C982 1.394 . S
C983 C984 1.383 . S
C983 H991 0.929 . S
C984 C983 1.383 . S
C984 C985 1.377 . S
C985 H969 0.930 . S
C985 C984 1.377 . S
C985 C986 1.379 . S
C986 H970 0.931 . S
C986 C980 1.383 . S
C986 C985 1.379 . S
H987 C981 0.959 . S
H988 C981 0.961 . S
H989 C981 0.960 . S
H990 C982 0.930 . S
H991 C983 0.929 . S
H992 C1000 0.929 . S
H993 C1002 0.930 . S
H994 C1004 0.930 . S
H995 C1007 0.929 . S
H996 C1010 0.930 . S
H997 C1012 0.960 . S
H998 C1012 0.960 . S
H999 C1012 0.960 . S
C1000 H992 0.929 . S
C1000 C1001 1.377 . S
C1000 C1002 1.384 . S
C1001 C1000 1.377 . S
C1001 C1007 1.390 . S
C1002 H993 0.930 . S
C1002 C1000 1.384 . S
C1002 C1003 1.372 . S
C1003 C1002 1.372 . S
C1003 C1004 1.400 . S
C1003 C1008 1.490 . S
C1004 H994 0.930 . S
C1004 C1003 1.400 . S
C1004 C1007 1.386 . S
H1005 C1021 0.930 . S
H1006 C1022 0.931 . S
C1007 H995 0.929 . S
C1007 C1001 1.390 . S
C1007 C1004 1.386 . S
C1008 C1003 1.490 . S
C1008 C1010 1.395 . S
C1008 C1011 1.403 . S
H1009 C1015 0.930 . S
C1010 H996 0.930 . S
C1010 C1008 1.395 . S
C1010 C1013 1.403 . S
C1011 C1008 1.403 . S
C1011 C1012 1.524 . S
C1011 C1015 1.400 . S
C1012 H997 0.960 . S
C1012 H998 0.960 . S
C1012 H999 0.960 . S
C1012 C1011 1.524 . S
C1013 C1010 1.403 . S
C1013 C1014 1.392 . S
C1013 C1017 1.495 . S
C1014 C1013 1.392 . S
C1014 C1015 1.385 . S
C1014 C1016 1.478 . S
C1015 H1009 0.930 . S
C1015 C1011 1.400 . S
C1015 C1014 1.385 . S
C1016 C1014 1.478 . S
C1016 C1018 1.381 . S
C1016 C1022 1.383 . S
C1017 C1013 1.495 . S
C1017 H1023 0.959 . S
C1017 H1024 0.961 . S
C1017 H1025 0.960 . S
C1018 C1016 1.381 . S
C1018 C1019 1.394 . S
C1018 H1026 0.930 . S
C1019 C1018 1.394 . S
C1019 C1020 1.383 . S
C1019 H1027 0.929 . S
C1020 C1019 1.383 . S
C1020 C1021 1.377 . S
C1021 H1005 0.930 . S
C1021 C1020 1.377 . S
C1021 C1022 1.379 . S
C1022 H1006 0.931 . S
C1022 C1016 1.383 . S
C1022 C1021 1.379 . S
H1023 C1017 0.959 . S
H1024 C1017 0.961 . S
H1025 C1017 0.960 . S
H1026 C1018 0.930 . S
H1027 C1019 0.929 . S
H1028 C1036 0.929 . S
H1029 C1038 0.930 . S
H1030 C1040 0.930 . S
H1031 C1043 0.929 . S
H1032 C1046 0.930 . S
H1033 C1048 0.960 . S
H1034 C1048 0.960 . S
H1035 C1048 0.960 . S
C1036 H1028 0.929 . S
C1036 C1037 1.377 . S
C1036 C1038 1.384 . S
C1037 C1036 1.377 . S
C1037 C1043 1.390 . S
C1038 H1029 0.930 . S
C1038 C1036 1.384 . S
C1038 C1039 1.372 . S
C1039 C1038 1.372 . S
C1039 C1040 1.400 . S
C1039 C1044 1.490 . S
C1040 H1030 0.930 . S
C1040 C1039 1.400 . S
C1040 C1043 1.386 . S
H1041 C1057 0.930 . S
H1042 C1058 0.931 . S
C1043 H1031 0.929 . S
C1043 C1037 1.390 . S
C1043 C1040 1.386 . S
C1044 C1039 1.490 . S
C1044 C1046 1.395 . S
C1044 C1047 1.403 . S
H1045 C1051 0.930 . S
C1046 H1032 0.930 . S
C1046 C1044 1.395 . S
C1046 C1049 1.403 . S
C1047 C1044 1.403 . S
C1047 C1048 1.524 . S
C1047 C1051 1.400 . S
C1048 H1033 0.960 . S
C1048 H1034 0.960 . S
C1048 H1035 0.960 . S
C1048 C1047 1.524 . S
C1049 C1046 1.403 . S
C1049 C1050 1.392 . S
C1049 C1053 1.495 . S
C1050 C1049 1.392 . S
C1050 C1051 1.385 . S
C1050 C1052 1.478 . S
C1051 H1045 0.930 . S
C1051 C1047 1.400 . S
C1051 C1050 1.385 . S
C1052 C1050 1.478 . S
C1052 C1054 1.381 . S
C1052 C1058 1.383 . S
C1053 C1049 1.495 . S
C1053 H1059 0.959 . S
C1053 H1060 0.961 . S
C1053 H1061 0.960 . S
C1054 C1052 1.381 . S
C1054 C1055 1.394 . S
C1054 H1062 0.930 . S
C1055 C1054 1.394 . S
C1055 C1056 1.383 . S
C1055 H1063 0.929 . S
C1056 C1055 1.383 . S
C1056 C1057 1.377 . S
C1057 H1041 0.930 . S
C1057 C1056 1.377 . S
C1057 C1058 1.379 . S
C1058 H1042 0.931 . S
C1058 C1052 1.383 . S
C1058 C1057 1.379 . S
H1059 C1053 0.959 . S
H1060 C1053 0.961 . S
H1061 C1053 0.960 . S
H1062 C1054 0.930 . S
H1063 C1055 0.929 . S
H1064 C1072 0.929 . S
H1065 C1074 0.930 . S
H1066 C1076 0.930 . S
H1067 C1079 0.929 . S
H1068 C1082 0.930 . S
H1069 C1084 0.960 . S
H1070 C1084 0.960 . S
H1071 C1084 0.960 . S
C1072 H1064 0.929 . S
C1072 C1073 1.377 . S
C1072 C1074 1.384 . S
C1073 C1072 1.377 . S
C1073 C1079 1.390 . S
C1074 H1065 0.930 . S
C1074 C1072 1.384 . S
C1074 C1075 1.372 . S
C1075 C1074 1.372 . S
C1075 C1076 1.400 . S
C1075 C1080 1.490 . S
C1076 H1066 0.930 . S
C1076 C1075 1.400 . S
C1076 C1079 1.386 . S
H1077 C1093 0.930 . S
H1078 C1094 0.931 . S
C1079 H1067 0.929 . S
C1079 C1073 1.390 . S
C1079 C1076 1.386 . S
C1080 C1075 1.490 . S
C1080 C1082 1.395 . S
C1080 C1083 1.403 . S
H1081 C1087 0.930 . S
C1082 H1068 0.930 . S
C1082 C1080 1.395 . S
C1082 C1085 1.403 . S
C1083 C1080 1.403 . S
C1083 C1084 1.524 . S
C1083 C1087 1.400 . S
C1084 H1069 0.960 . S
C1084 H1070 0.960 . S
C1084 H1071 0.960 . S
C1084 C1083 1.524 . S
C1085 C1082 1.403 . S
C1085 C1086 1.392 . S
C1085 C1089 1.495 . S
C1086 C1085 1.392 . S
C1086 C1087 1.385 . S
C1086 C1088 1.478 . S
C1087 H1081 0.930 . S
C1087 C1083 1.400 . S
C1087 C1086 1.385 . S
C1088 C1086 1.478 . S
C1088 C1090 1.381 . S
C1088 C1094 1.383 . S
C1089 C1085 1.495 . S
C1089 H1095 0.959 . S
C1089 H1096 0.961 . S
C1089 H1097 0.960 . S
C1090 C1088 1.381 . S
C1090 C1091 1.394 . S
C1090 H1098 0.930 . S
C1091 C1090 1.394 . S
C1091 C1092 1.383 . S
C1091 H1099 0.929 . S
C1092 C1091 1.383 . S
C1092 C1093 1.377 . S
C1093 H1077 0.930 . S
C1093 C1092 1.377 . S
C1093 C1094 1.379 . S
C1094 H1078 0.931 . S
C1094 C1088 1.383 . S
C1094 C1093 1.379 . S
H1095 C1089 0.959 . S
H1096 C1089 0.961 . S
H1097 C1089 0.960 . S
H1098 C1090 0.930 . S
H1099 C1091 0.929 . S
H1100 C1108 0.929 . S
H1101 C1110 0.930 . S
H1102 C1112 0.930 . S
H1103 C1115 0.929 . S
H1104 C1118 0.930 . S
H1105 C1120 0.960 . S
H1106 C1120 0.960 . S
H1107 C1120 0.960 . S
C1108 H1100 0.929 . S
C1108 C1109 1.377 . S
C1108 C1110 1.384 . S
C1109 C1108 1.377 . S
C1109 C1115 1.390 . S
C1110 H1101 0.930 . S
C1110 C1108 1.384 . S
C1110 C1111 1.372 . S
C1111 C1110 1.372 . S
C1111 C1112 1.400 . S
C1111 C1116 1.490 . S
C1112 H1102 0.930 . S
C1112 C1111 1.400 . S
C1112 C1115 1.386 . S
H1113 C1129 0.930 . S
H1114 C1130 0.931 . S
C1115 H1103 0.929 . S
C1115 C1109 1.390 . S
C1115 C1112 1.386 . S
C1116 C1111 1.490 . S
C1116 C1118 1.395 . S
C1116 C1119 1.403 . S
H1117 C1123 0.930 . S
C1118 H1104 0.930 . S
C1118 C1116 1.395 . S
C1118 C1121 1.403 . S
C1119 C1116 1.403 . S
C1119 C1120 1.524 . S
C1119 C1123 1.400 . S
C1120 H1105 0.960 . S
C1120 H1106 0.960 . S
C1120 H1107 0.960 . S
C1120 C1119 1.524 . S
C1121 C1118 1.403 . S
C1121 C1122 1.392 . S
C1121 C1125 1.495 . S
C1122 C1121 1.392 . S
C1122 C1123 1.385 . S
C1122 C1124 1.478 . S
C1123 H1117 0.930 . S
C1123 C1119 1.400 . S
C1123 C1122 1.385 . S
C1124 C1122 1.478 . S
C1124 C1126 1.381 . S
C1124 C1130 1.383 . S
C1125 C1121 1.495 . S
C1125 H1131 0.959 . S
C1125 H1132 0.961 . S
C1125 H1133 0.960 . S
C1126 C1124 1.381 . S
C1126 C1127 1.394 . S
C1126 H1134 0.930 . S
C1127 C1126 1.394 . S
C1127 C1128 1.383 . S
C1127 H1135 0.883 1_455 S
C1128 C1127 1.383 . S
C1128 C1129 1.377 . S
C1129 H1113 0.930 . S
C1129 C1128 1.377 . S
C1129 C1130 1.379 . S
C1130 H1114 0.931 . S
C1130 C1124 1.383 . S
C1130 C1129 1.379 . S
H1131 C1125 0.959 . S
H1132 C1125 0.961 . S
H1133 C1125 0.960 . S
H1134 C1126 0.930 . S
H1135 C1127 0.883 1_655 S
H1136 C1144 0.929 . S
H1137 C1146 0.930 . S
H1138 C1148 0.930 . S
H1139 C1151 0.929 . S
H1140 C1154 0.930 . S
H1141 C1156 0.960 . S
H1142 C1156 0.960 . S
H1143 C1156 0.960 . S
C1144 H1136 0.929 . S
C1144 C1145 1.377 . S
C1144 C1146 1.384 . S
C1145 C1144 1.377 . S
C1145 C1151 1.390 . S
C1146 H1137 0.930 . S
C1146 C1144 1.384 . S
C1146 C1147 1.372 . S
C1147 C1146 1.372 . S
C1147 C1148 1.400 . S
C1147 C1152 1.490 . S
C1148 H1138 0.930 . S
C1148 C1147 1.400 . S
C1148 C1151 1.386 . S
H1149 C1165 0.930 . S
H1150 C1166 0.931 . S
C1151 H1139 0.929 . S
C1151 C1145 1.390 . S
C1151 C1148 1.386 . S
C1152 C1147 1.490 . S
C1152 C1154 1.395 . S
C1152 C1155 1.403 . S
H1153 C1159 0.930 . S
C1154 H1140 0.930 . S
C1154 C1152 1.395 . S
C1154 C1157 1.403 . S
C1155 C1152 1.403 . S
C1155 C1156 1.524 . S
C1155 C1159 1.400 . S
C1156 H1141 0.960 . S
C1156 H1142 0.960 . S
C1156 H1143 0.960 . S
C1156 C1155 1.524 . S
C1157 C1154 1.403 . S
C1157 C1158 1.392 . S
C1157 C1161 1.495 . S
C1158 C1157 1.392 . S
C1158 C1159 1.385 . S
C1158 C1160 1.478 . S
C1159 H1153 0.930 . S
C1159 C1155 1.400 . S
C1159 C1158 1.385 . S
C1160 C1158 1.478 . S
C1160 C1162 1.381 . S
C1160 C1166 1.383 . S
C1161 C1157 1.495 . S
C1161 H1167 0.959 . S
C1161 H1168 0.961 . S
C1161 H1169 0.960 . S
C1162 C1160 1.381 . S
C1162 C1163 1.394 . S
C1162 H1170 0.930 . S
C1163 C1162 1.394 . S
C1163 C1164 1.383 . S
C1163 H1171 0.929 . S
C1164 C1163 1.383 . S
C1164 C1165 1.377 . S
C1165 H1149 0.930 . S
C1165 C1164 1.377 . S
C1165 C1166 1.379 . S
C1166 H1150 0.931 . S
C1166 C1160 1.383 . S
C1166 C1165 1.379 . S
H1167 C1161 0.959 . S
H1168 C1161 0.961 . S
H1169 C1161 0.960 . S
H1170 C1162 0.930 . S
H1171 C1163 0.929 . S
H1172 C1180 0.929 . S
H1173 C1182 0.930 . S
H1174 C1184 0.930 . S
H1175 C1187 0.929 . S
H1176 C1190 0.930 . S
H1177 C1192 0.960 . S
H1178 C1192 0.960 . S
H1179 C1192 0.960 . S
C1180 H1172 0.929 . S
C1180 C1181 1.377 . S
C1180 C1182 1.384 . S
C1181 C1180 1.377 . S
C1181 C1187 1.390 . S
C1182 H1173 0.930 . S
C1182 C1180 1.384 . S
C1182 C1183 1.372 . S
C1183 C1182 1.372 . S
C1183 C1184 1.400 . S
C1183 C1188 1.490 . S
C1184 H1174 0.930 . S
C1184 C1183 1.400 . S
C1184 C1187 1.386 . S
H1185 C1201 0.930 . S
H1186 C1202 0.931 . S
C1187 H1175 0.929 . S
C1187 C1181 1.390 . S
C1187 C1184 1.386 . S
C1188 C1183 1.490 . S
C1188 C1190 1.395 . S
C1188 C1191 1.403 . S
H1189 C1195 0.930 . S
C1190 H1176 0.930 . S
C1190 C1188 1.395 . S
C1190 C1193 1.403 . S
C1191 C1188 1.403 . S
C1191 C1192 1.524 . S
C1191 C1195 1.400 . S
C1192 H1177 0.960 . S
C1192 H1178 0.960 . S
C1192 H1179 0.960 . S
C1192 C1191 1.524 . S
C1193 C1190 1.403 . S
C1193 C1194 1.392 . S
C1193 C1197 1.495 . S
C1194 C1193 1.392 . S
C1194 C1195 1.385 . S
C1194 C1196 1.478 . S
C1195 H1189 0.930 . S
C1195 C1191 1.400 . S
C1195 C1194 1.385 . S
C1196 C1194 1.478 . S
C1196 C1198 1.381 . S
C1196 C1202 1.383 . S
C1197 C1193 1.495 . S
C1197 H1203 0.959 . S
C1197 H1204 0.961 . S
C1197 H1205 0.960 . S
C1198 C1196 1.381 . S
C1198 C1199 1.394 . S
C1198 H1206 0.930 . S
C1199 C1198 1.394 . S
C1199 C1200 1.383 . S
C1199 H1207 0.929 . S
C1200 C1199 1.383 . S
C1200 C1201 1.377 . S
C1201 H1185 0.930 . S
C1201 C1200 1.377 . S
C1201 C1202 1.379 . S
C1202 H1186 0.931 . S
C1202 C1196 1.383 . S
C1202 C1201 1.379 . S
H1203 C1197 0.959 . S
H1204 C1197 0.961 . S
H1205 C1197 0.960 . S
H1206 C1198 0.930 . S
H1207 C1199 0.929 . S
H1208 C1216 0.929 . S
H1209 C1218 0.930 . S
H1210 C1220 0.930 . S
H1211 C1223 0.929 . S
H1212 C1226 0.930 . S
H1213 C1228 0.960 . S
H1214 C1228 0.960 . S
H1215 C1228 0.960 . S
C1216 H1208 0.929 . S
C1216 C1217 1.377 . S
C1216 C1218 1.384 . S
C1217 C1216 1.377 . S
C1217 C1223 1.390 . S
C1218 H1209 0.930 . S
C1218 C1216 1.384 . S
C1218 C1219 1.372 . S
C1219 C1218 1.372 . S
C1219 C1220 1.400 . S
C1219 C1224 1.490 . S
C1220 H1210 0.930 . S
C1220 C1219 1.400 . S
C1220 C1223 1.386 . S
H1221 C1237 0.930 . S
H1222 C1238 0.931 . S
C1223 H1211 0.929 . S
C1223 C1217 1.390 . S
C1223 C1220 1.386 . S
C1224 C1219 1.490 . S
C1224 C1226 1.395 . S
C1224 C1227 1.403 . S
H1225 C1231 0.930 . S
C1226 H1212 0.930 . S
C1226 C1224 1.395 . S
C1226 C1229 1.403 . S
C1227 C1224 1.403 . S
C1227 C1228 1.524 . S
C1227 C1231 1.400 . S
C1228 H1213 0.960 . S
C1228 H1214 0.960 . S
C1228 H1215 0.960 . S
C1228 C1227 1.524 . S
C1229 C1226 1.403 . S
C1229 C1230 1.392 . S
C1229 C1233 1.495 . S
C1230 C1229 1.392 . S
C1230 C1231 1.385 . S
C1230 C1232 1.478 . S
C1231 H1225 0.930 . S
C1231 C1227 1.400 . S
C1231 C1230 1.385 . S
C1232 C1230 1.478 . S
C1232 C1234 1.381 . S
C1232 C1238 1.383 . S
C1233 C1229 1.495 . S
C1233 H1239 0.959 . S
C1233 H1240 0.961 . S
C1233 H1241 0.960 . S
C1234 C1232 1.381 . S
C1234 C1235 1.394 . S
C1234 H1242 0.930 . S
C1235 C1234 1.394 . S
C1235 C1236 1.383 . S
C1235 H1243 0.929 . S
C1236 C1235 1.383 . S
C1236 C1237 1.377 . S
C1237 H1221 0.930 . S
C1237 C1236 1.377 . S
C1237 C1238 1.379 . S
C1238 H1222 0.931 . S
C1238 C1232 1.383 . S
C1238 C1237 1.379 . S
H1239 C1233 0.959 . S
H1240 C1233 0.961 . S
H1241 C1233 0.960 . S
H1242 C1234 0.930 . S
H1243 C1235 0.929 . S
H1244 C1252 0.929 . S
H1245 C1254 0.930 . S
H1246 C1256 0.930 . S
H1247 C1259 0.929 . S
H1248 C1262 0.930 . S
H1249 C1264 0.960 . S
H1250 C1264 0.960 . S
H1251 C1264 0.960 . S
C1252 H1244 0.929 . S
C1252 C1253 1.377 . S
C1252 C1254 1.384 . S
C1253 C1252 1.377 . S
C1253 C1259 1.390 . S
C1254 H1245 0.930 . S
C1254 C1252 1.384 . S
C1254 C1255 1.372 . S
C1255 C1254 1.372 . S
C1255 C1256 1.400 . S
C1255 C1260 1.490 . S
C1256 H1246 0.930 . S
C1256 C1255 1.400 . S
C1256 C1259 1.386 . S
H1257 C1273 0.930 . S
H1258 C1274 0.931 . S
C1259 H1247 0.929 . S
C1259 C1253 1.390 . S
C1259 C1256 1.386 . S
C1260 C1255 1.490 . S
C1260 C1262 1.395 . S
C1260 C1263 1.403 . S
H1261 C1267 0.930 . S
C1262 H1248 0.930 . S
C1262 C1260 1.395 . S
C1262 C1265 1.403 . S
C1263 C1260 1.403 . S
C1263 C1264 1.524 . S
C1263 C1267 1.400 . S
C1264 H1249 0.960 . S
C1264 H1250 0.960 . S
C1264 H1251 0.960 . S
C1264 C1263 1.524 . S
C1265 C1262 1.403 . S
C1265 C1266 1.392 . S
C1265 C1269 1.495 . S
C1266 C1265 1.392 . S
C1266 C1267 1.385 . S
C1266 C1268 1.478 . S
C1267 H1261 0.930 . S
C1267 C1263 1.400 . S
C1267 C1266 1.385 . S
C1268 C1266 1.478 . S
C1268 C1270 1.381 . S
C1268 C1274 1.383 . S
C1269 C1265 1.495 . S
C1269 H1275 0.959 . S
C1269 H1276 0.961 . S
C1269 H1277 0.960 . S
C1270 C1268 1.381 . S
C1270 C1271 1.394 . S
C1270 H1278 0.930 . S
C1271 C1270 1.394 . S
C1271 C1272 1.383 . S
C1271 H1279 0.929 . S
C1272 C1271 1.383 . S
C1272 C1273 1.377 . S
C1273 H1257 0.930 . S
C1273 C1272 1.377 . S
C1273 C1274 1.379 . S
C1274 H1258 0.931 . S
C1274 C1268 1.383 . S
C1274 C1273 1.379 . S
H1275 C1269 0.959 . S
H1276 C1269 0.961 . S
H1277 C1269 0.960 . S
H1278 C1270 0.930 . S
H1279 C1271 0.929 . S
H1280 C1288 0.929 . S
H1281 C1290 0.930 . S
H1282 C1292 0.930 . S
H1283 C1295 0.929 . S
H1284 C1298 0.930 . S
H1285 C1300 0.960 . S
H1286 C1300 0.960 . S
H1287 C1300 0.960 . S
C1288 H1280 0.929 . S
C1288 C1289 1.377 . S
C1288 C1290 1.384 . S
C1289 C1288 1.377 . S
C1289 C1295 1.390 . S
C1290 H1281 0.930 . S
C1290 C1288 1.384 . S
C1290 C1291 1.372 . S
C1291 C1290 1.372 . S
C1291 C1292 1.400 . S
C1291 C1296 1.490 . S
C1292 H1282 0.930 . S
C1292 C1291 1.400 . S
C1292 C1295 1.386 . S
H1293 C1309 0.930 . S
H1294 C1310 0.931 . S
C1295 H1283 0.929 . S
C1295 C1289 1.390 . S
C1295 C1292 1.386 . S
C1296 C1291 1.490 . S
C1296 C1298 1.395 . S
C1296 C1299 1.403 . S
H1297 C1303 0.930 . S
C1298 H1284 0.930 . S
C1298 C1296 1.395 . S
C1298 C1301 1.403 . S
C1299 C1296 1.403 . S
C1299 C1300 1.524 . S
C1299 C1303 1.400 . S
C1300 H1285 0.960 . S
C1300 H1286 0.960 . S
C1300 H1287 0.960 . S
C1300 C1299 1.524 . S
C1301 C1298 1.403 . S
C1301 C1302 1.392 . S
C1301 C1305 1.495 . S
C1302 C1301 1.392 . S
C1302 C1303 1.385 . S
C1302 C1304 1.478 . S
C1303 H1297 0.930 . S
C1303 C1299 1.400 . S
C1303 C1302 1.385 . S
C1304 C1302 1.478 . S
C1304 C1306 1.381 . S
C1304 C1310 1.383 . S
C1305 C1301 1.495 . S
C1305 H1311 0.959 . S
C1305 H1312 0.961 . S
C1305 H1313 0.960 . S
C1306 C1304 1.381 . S
C1306 C1307 1.394 . S
C1306 H1314 0.930 . S
C1307 C1306 1.394 . S
C1307 C1308 1.383 . S
C1307 H1315 0.929 . S
C1308 C1307 1.383 . S
C1308 C1309 1.377 . S
C1309 H1293 0.930 . S
C1309 C1308 1.377 . S
C1309 C1310 1.379 . S
C1310 H1294 0.931 . S
C1310 C1304 1.383 . S
C1310 C1309 1.379 . S
H1311 C1305 0.959 . S
H1312 C1305 0.961 . S
H1313 C1305 0.960 . S
H1314 C1306 0.930 . S
H1315 C1307 0.929 . S
H1316 C1324 0.929 . S
H1317 C1326 0.930 . S
H1318 C1328 0.930 . S
H1319 C1331 0.929 . S
H1320 C1334 0.930 . S
H1321 C1336 0.960 . S
H1322 C1336 0.960 . S
H1323 C1336 0.960 . S
C1324 H1316 0.929 . S
C1324 C1325 1.377 . S
C1324 C1326 1.384 . S
C1325 C1324 1.377 . S
C1325 C1331 1.390 . S
C1326 H1317 0.930 . S
C1326 C1324 1.384 . S
C1326 C1327 1.372 . S
C1327 C1326 1.372 . S
C1327 C1328 1.400 . S
C1327 C1332 1.490 . S
C1328 H1318 0.930 . S
C1328 C1327 1.400 . S
C1328 C1331 1.386 . S
H1329 C1345 0.915 1_556 S
H1330 C1346 0.931 . S
C1331 H1319 0.929 . S
C1331 C1325 1.390 . S
C1331 C1328 1.386 . S
C1332 C1327 1.490 . S
C1332 C1334 1.395 . S
C1332 C1335 1.403 . S
H1333 C1339 0.930 . S
C1334 H1320 0.930 . S
C1334 C1332 1.395 . S
C1334 C1337 1.403 . S
C1335 C1332 1.403 . S
C1335 C1336 1.524 . S
C1335 C1339 1.400 . S
C1336 H1321 0.960 . S
C1336 H1322 0.960 . S
C1336 H1323 0.960 . S
C1336 C1335 1.524 . S
C1337 C1334 1.403 . S
C1337 C1338 1.392 . S
C1337 C1341 1.495 . S
C1338 C1337 1.392 . S
C1338 C1339 1.385 . S
C1338 C1340 1.478 . S
C1339 H1333 0.930 . S
C1339 C1335 1.400 . S
C1339 C1338 1.385 . S
C1340 C1338 1.478 . S
C1340 C1342 1.381 . S
C1340 C1346 1.383 . S
C1341 C1337 1.495 . S
C1341 H1347 0.959 . S
C1341 H1348 0.961 . S
C1341 H1349 0.960 . S
C1342 C1340 1.381 . S
C1342 C1343 1.394 . S
C1342 H1350 0.930 . S
C1343 C1342 1.394 . S
C1343 C1344 1.383 . S
C1343 H1351 0.929 . S
C1344 C1343 1.383 . S
C1344 C1345 1.377 . S
C1345 H1329 0.915 1_554 S
C1345 C1344 1.377 . S
C1345 C1346 1.379 . S
C1346 H1330 0.931 . S
C1346 C1340 1.383 . S
C1346 C1345 1.379 . S
H1347 C1341 0.959 . S
H1348 C1341 0.961 . S
H1349 C1341 0.960 . S
H1350 C1342 0.930 . S
H1351 C1343 0.929 . S
H1352 C1360 0.929 . S
H1353 C1362 0.930 . S
H1354 C1364 0.930 . S
H1355 C1367 0.929 . S
H1356 C1370 0.930 . S
H1357 C1372 0.960 . S
H1358 C1372 0.960 . S
H1359 C1372 0.960 . S
C1360 H1352 0.929 . S
C1360 C1361 1.377 . S
C1360 C1362 1.384 . S
C1361 C1360 1.377 . S
C1361 C1367 1.390 . S
C1362 H1353 0.930 . S
C1362 C1360 1.384 . S
C1362 C1363 1.372 . S
C1363 C1362 1.372 . S
C1363 C1364 1.400 . S
C1363 C1368 1.490 . S
C1364 H1354 0.930 . S
C1364 C1363 1.400 . S
C1364 C1367 1.386 . S
H1365 C1381 0.930 . S
H1366 C1382 0.931 . S
C1367 H1355 0.929 . S
C1367 C1361 1.390 . S
C1367 C1364 1.386 . S
C1368 C1363 1.490 . S
C1368 C1370 1.395 . S
C1368 C1371 1.403 . S
H1369 C1375 0.930 . S
C1370 H1356 0.930 . S
C1370 C1368 1.395 . S
C1370 C1373 1.403 . S
C1371 C1368 1.403 . S
C1371 C1372 1.524 . S
C1371 C1375 1.400 . S
C1372 H1357 0.960 . S
C1372 H1358 0.960 . S
C1372 H1359 0.960 . S
C1372 C1371 1.524 . S
C1373 C1370 1.403 . S
C1373 C1374 1.392 . S
C1373 C1377 1.495 . S
C1374 C1373 1.392 . S
C1374 C1375 1.385 . S
C1374 C1376 1.478 . S
C1375 H1369 0.930 . S
C1375 C1371 1.400 . S
C1375 C1374 1.385 . S
C1376 C1374 1.478 . S
C1376 C1378 1.381 . S
C1376 C1382 1.383 . S
C1377 C1373 1.495 . S
C1377 H1383 0.959 . S
C1377 H1384 0.961 . S
C1377 H1385 0.960 . S
C1378 C1376 1.381 . S
C1378 C1379 1.394 . S
C1378 H1386 0.930 . S
C1379 C1378 1.394 . S
C1379 C1380 1.383 . S
C1379 H1387 0.929 . S
C1380 C1379 1.383 . S
C1380 C1381 1.377 . S
C1381 H1365 0.930 . S
C1381 C1380 1.377 . S
C1381 C1382 1.379 . S
C1382 H1366 0.931 . S
C1382 C1376 1.383 . S
C1382 C1381 1.379 . S
H1383 C1377 0.959 . S
H1384 C1377 0.961 . S
H1385 C1377 0.960 . S
H1386 C1378 0.930 . S
H1387 C1379 0.929 . S
H1388 C1396 0.929 . S
H1389 C1398 0.930 . S
H1390 C1400 0.930 . S
H1391 C1403 0.929 . S
H1392 C1406 0.930 . S
H1393 C1408 0.960 . S
H1394 C1408 0.960 . S
H1395 C1408 0.960 . S
C1396 H1388 0.929 . S
C1396 C1397 1.377 . S
C1396 C1398 1.384 . S
C1397 C1396 1.377 . S
C1397 C1403 1.390 . S
C1398 H1389 0.930 . S
C1398 C1396 1.384 . S
C1398 C1399 1.372 . S
C1399 C1398 1.372 . S
C1399 C1400 1.400 . S
C1399 C1404 1.490 . S
C1400 H1390 0.930 . S
C1400 C1399 1.400 . S
C1400 C1403 1.386 . S
H1401 C1417 0.930 . S
H1402 C1418 0.931 . S
C1403 H1391 0.929 . S
C1403 C1397 1.390 . S
C1403 C1400 1.386 . S
C1404 C1399 1.490 . S
C1404 C1406 1.395 . S
C1404 C1407 1.403 . S
H1405 C1411 0.930 . S
C1406 H1392 0.930 . S
C1406 C1404 1.395 . S
C1406 C1409 1.403 . S
C1407 C1404 1.403 . S
C1407 C1408 1.524 . S
C1407 C1411 1.400 . S
C1408 H1393 0.960 . S
C1408 H1394 0.960 . S
C1408 H1395 0.960 . S
C1408 C1407 1.524 . S
C1409 C1406 1.403 . S
C1409 C1410 1.392 . S
C1409 C1413 1.495 . S
C1410 C1409 1.392 . S
C1410 C1411 1.385 . S
C1410 C1412 1.478 . S
C1411 H1405 0.930 . S
C1411 C1407 1.400 . S
C1411 C1410 1.385 . S
C1412 C1410 1.478 . S
C1412 C1414 1.381 . S
C1412 C1418 1.383 . S
C1413 C1409 1.495 . S
C1413 H1419 0.959 . S
C1413 H1420 0.961 . S
C1413 H1421 0.960 . S
C1414 C1412 1.381 . S
C1414 C1415 1.394 . S
C1414 H1422 0.930 . S
C1415 C1414 1.394 . S
C1415 C1416 1.383 . S
C1415 H1423 0.929 . S
C1416 C1415 1.383 . S
C1416 C1417 1.377 . S
C1417 H1401 0.930 . S
C1417 C1416 1.377 . S
C1417 C1418 1.379 . S
C1418 H1402 0.931 . S
C1418 C1412 1.383 . S
C1418 C1417 1.379 . S
H1419 C1413 0.959 . S
H1420 C1413 0.961 . S
H1421 C1413 0.960 . S
H1422 C1414 0.930 . S
H1423 C1415 0.929 . S
C569 C1 1.486 . S
C588 C482 1.541 . S
C605 C80 1.351 . S
C624 C501 1.348 . S
C660 C538 1.728 . S
C641 C140 1.719 . S
C677 C211 1.643 . S
C696 C548 1.639 . S
C732 C518 2.045 . S
C713 C31 1.937 . S
C768 C488 1.427 . S
C749 C61 1.451 . S
C804 C559 1.460 . S
C785 C151 1.480 . S
C840 C529 1.335 . S
C821 C200 1.343 . S
C857 C20 1.760 . S
C876 C542 1.815 . S
C912 C509 1.673 . S
C893 C121 1.726 . S
C929 C181 1.703 . S
C948 C499 1.723 . S
C965 C91 1.207 . S
C984 C521 1.204 . S
C1020 C481 1.564 . S
C1001 C260 1.490 . S
C1037 C320 1.351 . S
C1056 C502 1.374 . S
C1073 C361 1.727 . S
C1092 C539 1.739 . S
C1109 C451 1.641 . S
C1128 C549 1.645 . S
C1145 C271 1.973 . S
C1164 C519 2.045 . S
C1200 C489 1.432 . S
C1181 C301 1.447 . S
C1236 C558 1.459 . S
C1217 C380 1.475 . S
C1272 C528 1.323 . S
C1253 C440 1.341 . S
C1289 C241 1.739 . S
C1308 C541 1.807 . S
C1344 C508 1.677 . S
C1325 C391 1.732 . S
C1380 C498 1.735 . S
C1361 C421 1.694 . S
C1397 C331 1.205 . S
C1416 C522 1.196 . S
