# Generated by pormake.
# Topology pyr, (3,6)-cn, num edge types: 1
# Building blocks:
#     Node 0, Type 0, BuildingBlock: KAKCAD_clean_linker_0, # of connection points: 3
#     Node 1, Type 0, BuildingBlock: KAKCAD_clean_linker_0, # of connection points: 3
#     Node 2, Type 0, BuildingBlock: KAKCAD_clean_linker_0, # of connection points: 3
#     Node 3, Type 0, BuildingBlock: KAKCAD_clean_linker_0, # of connection points: 3
#     Node 4, Type 0, BuildingBlock: KAKCAD_clean_linker_0, # of connection points: 3
#     Node 5, Type 0, BuildingBlock: KAKCAD_clean_linker_0, # of connection points: 3
#     Node 6, Type 0, BuildingBlock: KAKCAD_clean_linker_0, # of connection points: 3
#     Node 7, Type 0, BuildingBlock: KAKCAD_clean_linker_0, # of connection points: 3
#     Node 8, Type 1, BuildingBlock: INOVEN_clean_sbu_0, # of connection points: 6
#     Node 9, Type 1, BuildingBlock: INOVEN_clean_sbu_0, # of connection points: 6
#     Node 10, Type 1, BuildingBlock: INOVEN_clean_sbu_0, # of connection points: 6
#     Node 11, Type 1, BuildingBlock: INOVEN_clean_sbu_0, # of connection points: 6
#     Edge 12, Type (0, 1), BuildingBlock: CIFDUS_clean_linker_0, # of connection points: 2
#     Edge 13, Type (0, 1), BuildingBlock: CIFDUS_clean_linker_0, # of connection points: 2
#     Edge 14, Type (0, 1), BuildingBlock: CIFDUS_clean_linker_0, # of connection points: 2
#     Edge 15, Type (0, 1), BuildingBlock: CIFDUS_clean_linker_0, # of connection points: 2
#     Edge 16, Type (0, 1), BuildingBlock: CIFDUS_clean_linker_0, # of connection points: 2
#     Edge 17, Type (0, 1), BuildingBlock: CIFDUS_clean_linker_0, # of connection points: 2
#     Edge 18, Type (0, 1), BuildingBlock: CIFDUS_clean_linker_0, # of connection points: 2
#     Edge 19, Type (0, 1), BuildingBlock: CIFDUS_clean_linker_0, # of connection points: 2
#     Edge 20, Type (0, 1), BuildingBlock: CIFDUS_clean_linker_0, # of connection points: 2
#     Edge 21, Type (0, 1), BuildingBlock: CIFDUS_clean_linker_0, # of connection points: 2
#     Edge 22, Type (0, 1), BuildingBlock: CIFDUS_clean_linker_0, # of connection points: 2
#     Edge 23, Type (0, 1), BuildingBlock: CIFDUS_clean_linker_0, # of connection points: 2
#     Edge 24, Type (0, 1), BuildingBlock: CIFDUS_clean_linker_0, # of connection points: 2
#     Edge 25, Type (0, 1), BuildingBlock: CIFDUS_clean_linker_0, # of connection points: 2
#     Edge 26, Type (0, 1), BuildingBlock: CIFDUS_clean_linker_0, # of connection points: 2
#     Edge 27, Type (0, 1), BuildingBlock: CIFDUS_clean_linker_0, # of connection points: 2
#     Edge 28, Type (0, 1), BuildingBlock: CIFDUS_clean_linker_0, # of connection points: 2
#     Edge 29, Type (0, 1), BuildingBlock: CIFDUS_clean_linker_0, # of connection points: 2
#     Edge 30, Type (0, 1), BuildingBlock: CIFDUS_clean_linker_0, # of connection points: 2
#     Edge 31, Type (0, 1), BuildingBlock: CIFDUS_clean_linker_0, # of connection points: 2
#     Edge 32, Type (0, 1), BuildingBlock: CIFDUS_clean_linker_0, # of connection points: 2
#     Edge 33, Type (0, 1), BuildingBlock: CIFDUS_clean_linker_0, # of connection points: 2
#     Edge 34, Type (0, 1), BuildingBlock: CIFDUS_clean_linker_0, # of connection points: 2
#     Edge 35, Type (0, 1), BuildingBlock: CIFDUS_clean_linker_0, # of connection points: 2
# Relax obj value: 0.105
# Max RMSD: 0.131
# Mean RMSD: 0.061
data_MOF--net-pyr--node1-INOVEN_clean_sbu_0--node2-KAKCAD_clean_linker_0--edge1-CIFDUS_clean_linker_0
_symmetry_space_group_name_H-M    P1
_symmetry_Int_Tables_number       1
_symmetry_cell_setting            triclinic
loop_
_symmetry_equiv_pos_as_xyz
'x, y, z'
_cell_length_a     42.27705
_cell_length_b     44.280493
_cell_length_c     39.599119
_cell_angle_alpha  91.005783
_cell_angle_beta   88.4517
_cell_angle_gamma 101.09299
loop_
_atom_site_label
_atom_site_type_symbol
_atom_site_fract_x
_atom_site_fract_y
_atom_site_fract_z
_atom_type_partial_charge
C0 C 0.28011 0.27191 0.35266 0.0
C1 C 0.29241 0.25146 0.37277 0.0
C2 C 0.29814 0.28609 0.32551 0.0
C3 C 0.32957 0.28101 0.31815 0.0
C4 C 0.34268 0.26195 0.33986 0.0
C5 C 0.32402 0.24689 0.36664 0.0
C6 C 0.34604 0.29246 0.28561 0.0
C7 C 0.33789 0.31815 0.27041 0.0
C8 C 0.34136 0.32229 0.23544 0.0
C9 C 0.35962 0.30428 0.21641 0.0
C10 C 0.37232 0.28092 0.23224 0.0
C11 C 0.36449 0.2747 0.2666 0.0
C12 C 0.38981 0.25982 0.21267 0.0
C13 C 0.37823 0.24699 0.1816 0.0
C14 C 0.4161 0.24964 0.22683 0.0
C15 C 0.42938 0.22616 0.21119 0.0
C16 C 0.41643 0.21217 0.18126 0.0
C17 C 0.3199 0.34072 0.21956 0.0
C18 C 0.28713 0.33513 0.22958 0.0
C19 C 0.33121 0.36447 0.19662 0.0
C20 C 0.31021 0.38308 0.18521 0.0
C21 C 0.27784 0.37823 0.19687 0.0
C22 C 0.26653 0.35373 0.21867 0.0
C23 C 0.39125 0.22323 0.16621 0.0
H24 H 0.25545 0.27512 0.35633 0.0
H25 H 0.28617 0.29938 0.30913 0.0
H26 H 0.36682 0.25769 0.33546 0.0
H27 H 0.3338 0.2309 0.3818 0.0
H28 H 0.32511 0.33311 0.28506 0.0
H29 H 0.37064 0.25443 0.27758 0.0
H30 H 0.36262 0.30747 0.18938 0.0
H31 H 0.3579 0.25404 0.17011 0.0
H32 H 0.42571 0.25917 0.25065 0.0
H33 H 0.44871 0.21792 0.22331 0.0
H34 H 0.27742 0.3165 0.24653 0.0
H35 H 0.3563 0.36919 0.18841 0.0
H36 H 0.38097 0.2128 0.14304 0.0
H37 H 0.24156 0.34891 0.22735 0.0
H38 H 0.31941 0.40172 0.16811 0.0
C39 C 0.29267 0.91854 0.75185 0.0
C40 C 0.32567 0.92591 0.7431 0.0
C41 C 0.27122 0.90087 0.72992 0.0
C42 C 0.28278 0.89055 0.69924 0.0
C43 C 0.31499 0.90113 0.68888 0.0
C44 C 0.3364 0.91881 0.71076 0.0
C45 C 0.26243 0.86649 0.67943 0.0
C46 C 0.2322 0.87023 0.6691 0.0
C47 C 0.21515 0.84924 0.6461 0.0
C48 C 0.22787 0.82413 0.63438 0.0
C49 C 0.25806 0.82015 0.64479 0.0
C50 C 0.27473 0.84081 0.66832 0.0
C51 C 0.27396 0.79731 0.62736 0.0
C52 C 0.25591 0.76898 0.61652 0.0
C53 C 0.30706 0.80466 0.61936 0.0
C54 C 0.32208 0.7836 0.60218 0.0
C55 C 0.30414 0.75509 0.59158 0.0
C56 C 0.18896 0.85815 0.62799 0.0
C57 C 0.16429 0.86878 0.64597 0.0
C58 C 0.19281 0.86248 0.59296 0.0
C59 C 0.17472 0.8806 0.57684 0.0
C60 C 0.1527 0.89426 0.59569 0.0
C61 C 0.14605 0.88677 0.62978 0.0
C62 C 0.27075 0.74832 0.59822 0.0
H63 H 0.28399 0.9244 0.77665 0.0
H64 H 0.2463 0.89334 0.73801 0.0
H65 H 0.32402 0.89406 0.66472 0.0
H66 H 0.36173 0.92451 0.70355 0.0
H67 H 0.22341 0.89092 0.67646 0.0
H68 H 0.29801 0.83776 0.67696 0.0
H69 H 0.21539 0.80942 0.61481 0.0
H70 H 0.23035 0.76262 0.62234 0.0
H71 H 0.32153 0.82672 0.6263 0.0
H72 H 0.34797 0.78945 0.59828 0.0
H73 H 0.16115 0.86552 0.673 0.0
H74 H 0.21201 0.85462 0.57874 0.0
H75 H 0.25615 0.72676 0.59001 0.0
H76 H 0.12907 0.89723 0.64469 0.0
H77 H 0.17976 0.88599 0.55041 0.0
C78 C 0.77154 0.43897 0.91354 0.0
C79 C 0.79136 0.42007 0.92675 0.0
C80 C 0.7434 0.42614 0.89584 0.0
C81 C 0.73441 0.39402 0.89063 0.0
C82 C 0.7553 0.37548 0.90281 0.0
C83 C 0.78299 0.38823 0.92085 0.0
C84 C 0.70285 0.37938 0.87444 0.0
C85 C 0.68926 0.39339 0.84792 0.0
C86 C 0.65966 0.37924 0.83294 0.0
C87 C 0.64421 0.34969 0.84501 0.0
C88 C 0.65755 0.33495 0.87131 0.0
C89 C 0.68615 0.35069 0.88603 0.0
C90 C 0.64285 0.3031 0.88434 0.0
C91 C 0.60944 0.29336 0.89058 0.0
C92 C 0.66315 0.28283 0.89345 0.0
C93 C 0.651 0.25501 0.90993 0.0
C94 C 0.61789 0.24585 0.91768 0.0
C95 C 0.64551 0.39554 0.80477 0.0
C96 C 0.65025 0.428 0.80396 0.0
C97 C 0.62768 0.37937 0.77809 0.0
C98 C 0.616 0.395 0.75147 0.0
C99 C 0.62165 0.42753 0.7503 0.0
C100 C 0.63866 0.44353 0.77751 0.0
C101 C 0.59714 0.26512 0.90692 0.0
H102 H 0.77732 0.46363 0.91775 0.0
H103 H 0.72819 0.44137 0.88722 0.0
H104 H 0.75019 0.35081 0.89868 0.0
H105 H 0.79787 0.37308 0.93043 0.0
H106 H 0.70231 0.41511 0.83836 0.0
H107 H 0.69531 0.3405 0.90745 0.0
H108 H 0.62188 0.33812 0.83402 0.0
H109 H 0.59289 0.30811 0.88413 0.0
H110 H 0.68888 0.28874 0.88838 0.0
H111 H 0.66781 0.24069 0.91689 0.0
H112 H 0.66279 0.44176 0.82411 0.0
H113 H 0.62337 0.35448 0.77715 0.0
H114 H 0.57149 0.25898 0.91232 0.0
H115 H 0.64295 0.46841 0.77876 0.0
H116 H 0.60325 0.38144 0.7313 0.0
C117 C 0.88729 0.63695 0.25984 0.0
C118 C 0.9207 0.63727 0.25929 0.0
C119 C 0.87257 0.6516 0.2862 0.0
C120 C 0.8908 0.66748 0.31268 0.0
C121 C 0.92434 0.66861 0.31149 0.0
C122 C 0.93896 0.65363 0.28543 0.0
C123 C 0.87482 0.6818 0.34189 0.0
C124 C 0.8455 0.66585 0.3565 0.0
C125 C 0.83035 0.67833 0.38422 0.0
C126 C 0.84467 0.70766 0.39666 0.0
C127 C 0.87369 0.72447 0.38282 0.0
C128 C 0.88886 0.71103 0.35566 0.0
C129 C 0.88727 0.75599 0.39738 0.0
C130 C 0.86637 0.77581 0.40796 0.0
C131 C 0.92048 0.76593 0.403 0.0
C132 C 0.9321 0.79417 0.4198 0.0
C133 C 0.91082 0.81318 0.43166 0.0
C134 C 0.79949 0.66134 0.40056 0.0
C135 C 0.77461 0.64372 0.38145 0.0
C136 C 0.79391 0.66419 0.43566 0.0
C137 C 0.76399 0.65174 0.45071 0.0
C138 C 0.7388 0.63535 0.43142 0.0
C139 C 0.74465 0.63078 0.39675 0.0
C140 C 0.87786 0.80369 0.42492 0.0
H141 H 0.87229 0.62454 0.24042 0.0
H142 H 0.84676 0.65039 0.28587 0.0
H143 H 0.93929 0.68035 0.33132 0.0
H144 H 0.96475 0.65473 0.28591 0.0
H145 H 0.835 0.64317 0.34695 0.0
H146 H 0.91106 0.72372 0.34457 0.0
H147 H 0.833 0.71764 0.41753 0.0
H148 H 0.84078 0.76967 0.40339 0.0
H149 H 0.93741 0.75142 0.39547 0.0
H150 H 0.95764 0.80063 0.42449 0.0
H151 H 0.77772 0.64101 0.35441 0.0
H152 H 0.81253 0.67662 0.45166 0.0
H153 H 0.86076 0.81791 0.43281 0.0
H154 H 0.72558 0.61845 0.38119 0.0
H155 H 0.76028 0.65551 0.47752 0.0
C156 C 0.72602 0.78707 0.71931 0.0
C157 C 0.73607 0.81896 0.71614 0.0
C158 C 0.70386 0.77521 0.74478 0.0
C159 C 0.69233 0.79512 0.76815 0.0
C160 C 0.69991 0.82703 0.76251 0.0
C161 C 0.72145 0.83881 0.73655 0.0
C162 C 0.67815 0.7835 0.80134 0.0
C163 C 0.69136 0.76137 0.81804 0.0
C164 C 0.68313 0.75371 0.85184 0.0
C165 C 0.66193 0.76989 0.86957 0.0
C166 C 0.64876 0.79274 0.85333 0.0
C167 C 0.65584 0.79799 0.81876 0.0
C168 C 0.63034 0.81349 0.87249 0.0
C169 C 0.60883 0.80275 0.8993 0.0
C170 C 0.63485 0.84492 0.86417 0.0
C171 C 0.61824 0.86488 0.88176 0.0
C172 C 0.59707 0.85424 0.90869 0.0
C173 C 0.69992 0.73121 0.8685 0.0
C174 C 0.70869 0.70662 0.84957 0.0
C175 C 0.71053 0.73584 0.90192 0.0
C176 C 0.73068 0.7175 0.91527 0.0
C177 C 0.74112 0.69453 0.89534 0.0
C178 C 0.72948 0.68892 0.86259 0.0
C179 C 0.5925 0.82294 0.91731 0.0
H180 H 0.73696 0.77141 0.7036 0.0
H181 H 0.69778 0.7505 0.74782 0.0
H182 H 0.69177 0.84318 0.77997 0.0
H183 H 0.72911 0.86354 0.73465 0.0
H184 H 0.71015 0.75164 0.80535 0.0
H185 H 0.64514 0.81465 0.80563 0.0
H186 H 0.65663 0.76551 0.89613 0.0
H187 H 0.60451 0.77876 0.90633 0.0
H188 H 0.65194 0.85451 0.8445 0.0
H189 H 0.62289 0.88897 0.87504 0.0
H190 H 0.7003 0.7016 0.82411 0.0
H191 H 0.70468 0.75455 0.91729 0.0
H192 H 0.5763 0.8141 0.93803 0.0
H193 H 0.73677 0.67104 0.8469 0.0
H194 H 0.73935 0.72222 0.94068 0.0
C195 C 0.71526 0.13946 0.35396 0.0
C196 C 0.71891 0.15986 0.32676 0.0
C197 C 0.72788 0.14954 0.38519 0.0
C198 C 0.74369 0.18014 0.38933 0.0
C199 C 0.74868 0.20001 0.36173 0.0
C200 C 0.73648 0.18987 0.3305 0.0
C201 C 0.75412 0.19212 0.42256 0.0
C202 C 0.77879 0.18141 0.43837 0.0
C203 C 0.7931 0.19704 0.46688 0.0
C204 C 0.78095 0.22171 0.48099 0.0
C205 C 0.7566 0.23245 0.46486 0.0
C206 C 0.74297 0.21763 0.43584 0.0
C207 C 0.74855 0.26169 0.47519 0.0
C208 C 0.73126 0.26402 0.50533 0.0
C209 C 0.75579 0.28659 0.45317 0.0
C210 C 0.74305 0.31277 0.4597 0.0
C211 C 0.7224 0.31378 0.48785 0.0
C212 C 0.82475 0.19215 0.47658 0.0
C213 C 0.83034 0.16222 0.47914 0.0
C214 C 0.85061 0.21743 0.47817 0.0
C215 C 0.88201 0.21268 0.48069 0.0
C216 C 0.88765 0.18267 0.48115 0.0
C217 C 0.86161 0.15751 0.48148 0.0
C218 C 0.71807 0.29004 0.51165 0.0
H219 H 0.70194 0.1161 0.35122 0.0
H220 H 0.72422 0.13396 0.40634 0.0
H221 H 0.76133 0.22361 0.3646 0.0
H222 H 0.7394 0.20589 0.30976 0.0
H223 H 0.78897 0.1631 0.42641 0.0
H224 H 0.72472 0.22679 0.42274 0.0
H225 H 0.79238 0.23426 0.50261 0.0
H226 H 0.72589 0.24486 0.52255 0.0
H227 H 0.76971 0.28502 0.43003 0.0
H228 H 0.74709 0.33104 0.44132 0.0
H229 H 0.81065 0.14254 0.47822 0.0
H230 H 0.84675 0.24077 0.47577 0.0
H231 H 0.70205 0.29016 0.53344 0.0
H232 H 0.86549 0.1341 0.48333 0.0
H233 H 0.90184 0.23222 0.48136 0.0
C234 C 0.24071 0.6461 0.20119 0.0
C235 C 0.23542 0.64867 0.16638 0.0
C236 C 0.26975 0.6607 0.21599 0.0
C237 C 0.2949 0.67844 0.19663 0.0
C238 C 0.28945 0.68122 0.1618 0.0
C239 C 0.26026 0.66677 0.14703 0.0
C240 C 0.32626 0.69422 0.21266 0.0
C241 C 0.3394 0.68096 0.24019 0.0
C242 C 0.36842 0.69563 0.2556 0.0
C243 C 0.38435 0.72448 0.24261 0.0
C244 C 0.37193 0.73852 0.21515 0.0
C245 C 0.343 0.72296 0.20065 0.0
C246 C 0.3883 0.76985 0.20194 0.0
C247 C 0.40064 0.79422 0.22412 0.0
C248 C 0.39056 0.77618 0.167 0.0
C249 C 0.40474 0.80563 0.15476 0.0
C250 C 0.41699 0.8302 0.17695 0.0
C251 C 0.38164 0.68087 0.28546 0.0
C252 C 0.36089 0.66583 0.31112 0.0
C253 C 0.41499 0.68146 0.28881 0.0
C254 C 0.42697 0.66754 0.31651 0.0
C255 C 0.40619 0.65296 0.34243 0.0
C256 C 0.37289 0.65241 0.33903 0.0
C257 C 0.41438 0.82374 0.21195 0.0
H258 H 0.22217 0.6329 0.21728 0.0
H259 H 0.27221 0.65832 0.2429 0.0
H260 H 0.30803 0.69415 0.14555 0.0
H261 H 0.25753 0.66913 0.12015 0.0
H262 H 0.32736 0.65866 0.24923 0.0
H263 H 0.33281 0.734 0.18054 0.0
H264 H 0.4064 0.7362 0.25408 0.0
H265 H 0.39893 0.79073 0.25115 0.0
H266 H 0.38165 0.75815 0.14889 0.0
H267 H 0.40645 0.80885 0.12771 0.0
H268 H 0.33515 0.66483 0.31 0.0
H269 H 0.43196 0.69244 0.26971 0.0
H270 H 0.42243 0.84166 0.23042 0.0
H271 H 0.35583 0.6413 0.35798 0.0
H272 H 0.45272 0.66877 0.31795 0.0
C273 C 0.13793 0.26982 0.66389 0.0
C274 C 0.10413 0.26059 0.66483 0.0
C275 C 0.15293 0.29857 0.67714 0.0
C276 C 0.13467 0.31933 0.69149 0.0
C277 C 0.1008 0.3102 0.69191 0.0
C278 C 0.08583 0.28132 0.67898 0.0
C279 C 0.15085 0.35024 0.7058 0.0
C280 C 0.17973 0.36657 0.69094 0.0
C281 C 0.19557 0.39528 0.70396 0.0
C282 C 0.18138 0.40801 0.73231 0.0
C283 C 0.15209 0.39272 0.74754 0.0
C284 C 0.13746 0.36366 0.73414 0.0
C285 C 0.13621 0.40738 0.77669 0.0
C286 C 0.15437 0.42565 0.8017 0.0
C287 C 0.10236 0.40374 0.77937 0.0
C288 C 0.08732 0.4182 0.80543 0.0
C289 C 0.10541 0.43703 0.82997 0.0
C290 C 0.22646 0.4121 0.68725 0.0
C291 C 0.24904 0.3959 0.67224 0.0
C292 C 0.23347 0.44448 0.68541 0.0
C293 C 0.26159 0.45999 0.66878 0.0
C294 C 0.28377 0.44377 0.65316 0.0
C295 C 0.2771 0.41143 0.65546 0.0
C296 C 0.13924 0.44013 0.82794 0.0
H297 H 0.15293 0.25445 0.65363 0.0
H298 H 0.17901 0.30419 0.67666 0.0
H299 H 0.08563 0.32551 0.70191 0.0
H300 H 0.05975 0.27536 0.67972 0.0
H301 H 0.18945 0.35725 0.66836 0.0
H302 H 0.11578 0.3511 0.74631 0.0
H303 H 0.193 0.43012 0.74238 0.0
H304 H 0.18042 0.42884 0.80109 0.0
H305 H 0.08725 0.39028 0.76072 0.0
H306 H 0.06125 0.41473 0.80614 0.0
H307 H 0.24513 0.37106 0.67342 0.0
H308 H 0.21687 0.45803 0.69617 0.0
H309 H 0.15415 0.45448 0.84608 0.0
H310 H 0.29325 0.39793 0.64365 0.0
H311 H 0.2659 0.48488 0.6682 0.0
Gd312 Gd 0.02556 0.0511 0.50559 0.0
Gd313 Gd 0.99563 1.02836 0.5756 0.0
C314 C 0.03723 0.09737 0.57184 0.0
C315 C 0.04406 0.08167 0.45191 0.0
C316 C 0.07659 0.09882 0.44327 0.0
C317 C 0.10366 0.08525 0.44768 0.0
C318 C 0.08116 0.12956 0.4331 0.0
C319 C 0.13926 0.13246 0.43074 0.0
C320 C 0.11232 0.14632 0.42696 0.0
C321 C 0.13463 0.10184 0.44128 0.0
C322 C 0.06453 1.02479 0.54212 0.0
C323 C 0.98592 0.98117 0.50935 0.0
C324 C 0.97248 1.00168 0.63063 0.0
C325 C 0.94314 0.97811 0.6368 0.0
C326 C 0.91329 0.98702 0.64279 0.0
C327 C 0.94414 0.9466 0.63417 0.0
C328 C 0.88584 0.93356 0.64168 0.0
C329 C 0.91573 0.92453 0.63654 0.0
C330 C 0.88499 0.96501 0.64506 0.0
C331 C 0.96039 0.05723 0.53619 0.0
O332 O 0.03574 0.09428 0.53852 0.0
O333 O 0.02724 0.07357 0.59201 0.0
O334 O 0.04112 0.05174 0.45323 0.0
O335 O 0.0291 0.0931 0.47702 0.0
O336 O 0.06693 1.0268 0.50962 0.0
O337 O 0.04472 0.04023 0.55398 0.0
O338 O 0.98364 0.98448 0.54276 0.0
O339 O 0.9972 1.00485 0.48951 0.0
O340 O 0.96761 1.02874 0.62191 0.0
O341 O 0.99581 0.99302 0.61295 0.0
O342 O 0.95976 0.059 0.56881 0.0
O343 O 0.97717 0.0383 0.52676 0.0
H344 H 0.10102 0.0618 0.45629 0.0
H345 H 0.06066 0.14059 0.43009 0.0
H346 H 0.11533 0.1699 0.41865 0.0
H347 H 0.15503 0.09078 0.44475 0.0
H348 H 0.91165 1.01107 0.64523 0.0
H349 H 0.96677 0.939 0.62965 0.0
H350 H 0.91712 0.90043 0.63392 0.0
H351 H 0.86243 0.97266 0.64993 0.0
Gd352 Gd 0.53801 0.03663 0.05957 0.0
Gd353 Gd 0.48338 0.03881 1.02642 0.0
C354 C 0.49344 0.07863 0.09236 0.0
C355 C 0.59321 0.0432 0.08603 0.0
C356 C 0.60148 0.06107 0.11712 0.0
C357 C 0.59906 0.04598 0.14824 0.0
C358 C 0.60638 0.09342 0.11661 0.0
C359 C 0.60777 0.09514 0.17747 0.0
C360 C 0.60944 0.1103 0.14659 0.0
C361 C 0.60198 0.06294 0.17826 0.0
C362 C 0.48766 0.99443 0.08613 0.0
C363 C 0.5287 0.99402 0.99457 0.0
C364 C 0.43045 1.03045 0.99451 0.0
C365 C 0.41836 1.00781 0.9688 0.0
C366 C 0.40489 1.01796 0.94038 0.0
C367 C 0.42613 0.97833 0.96903 0.0
C368 C 0.40858 0.97009 0.91156 0.0
C369 C 0.42091 0.95934 0.9405 0.0
C370 C 0.40005 0.99923 0.9119 0.0
C371 C 0.5284 0.09103 1.01331 0.0
O372 O 0.52375 0.07759 0.08571 0.0
O373 O 0.47108 0.05911 0.07664 0.0
O374 O 0.57153 1.01812 0.08979 0.0
O375 O 0.58815 0.05906 0.05989 0.0
O376 O 0.50753 1.01402 0.10386 0.0
O377 O 0.49399 0.99964 0.05513 0.0
O378 O 0.50248 1.00547 0.99025 0.0
O379 O 0.54725 1.00295 1.02021 0.0
O380 O 0.45638 0.04947 0.98459 0.0
O381 O 0.43214 1.02029 1.02511 0.0
O382 O 0.49872 0.09021 1.02248 0.0
O383 O 0.53343 0.06358 1.01314 0.0
H384 H 0.59467 1.02109 0.14939 0.0
H385 H 0.60768 0.1058 0.0931 0.0
H386 H 0.61445 0.13522 0.14569 0.0
H387 H 0.60145 0.05097 0.20197 0.0
H388 H 0.3995 0.0409 0.93967 0.0
H389 H 0.43734 0.97051 0.99066 0.0
H390 H 0.42719 0.93675 0.94069 0.0
H391 H 0.38967 1.0076 0.89002 0.0
Gd392 Gd 0.50665 0.50592 0.52106 0.0
Gd393 Gd 0.51542 0.56127 0.56417 0.0
C394 C 0.54116 0.50451 0.5954 0.0
C395 C 0.51406 0.45626 0.49071 0.0
C396 C 0.53683 0.4374 0.50043 0.0
C397 C 0.52959 0.40545 0.49616 0.0
C398 C 0.56504 0.45142 0.51691 0.0
C399 C 0.58037 0.40212 0.52147 0.0
C400 C 0.58657 0.43383 0.52762 0.0
C401 C 0.55145 0.38781 0.5065 0.0
C402 C 0.45235 0.5121 0.55645 0.0
C403 C 0.48765 0.56425 0.4872 0.0
C404 C 0.4993 0.60326 0.60237 0.0
C405 C 0.47725 0.62302 0.59287 0.0
C406 C 0.48463 0.65469 0.59967 0.0
C407 C 0.45142 0.61089 0.572 0.0
C408 C 0.43953 0.66161 0.56604 0.0
C409 C 0.43287 0.63007 0.55851 0.0
C410 C 0.46571 0.67397 0.58639 0.0
C411 C 0.57084 0.56724 0.52684 0.0
O412 O 0.53106 0.49002 0.5669 0.0
O413 O 0.53837 0.53346 0.60074 0.0
O414 O 0.49083 0.45696 0.51289 0.0
O415 O 0.52717 0.48348 0.47931 0.0
O416 O 0.45308 0.50504 0.52452 0.0
O417 O 0.48088 0.51685 0.5671 0.0
O418 O 0.48818 0.57544 0.51864 0.0
O419 O 0.49756 0.53822 0.48085 0.0
O420 O 0.52614 0.60764 0.58457 0.0
O421 O 0.48642 0.57413 0.60592 0.0
O422 O 0.56514 0.58624 0.55029 0.0
O423 O 0.54725 0.54477 0.52478 0.0
H424 H 0.50753 0.39433 0.48425 0.0
H425 H 0.57085 0.47612 0.52081 0.0
H426 H 0.60906 0.44527 0.53848 0.0
H427 H 0.54665 0.36327 0.5013 0.0
H428 H 0.50503 0.66443 0.61499 0.0
H429 H 0.44569 0.58656 0.56574 0.0
H430 H 0.4127 0.62015 0.54294 0.0
H431 H 0.47079 0.69825 0.59295 0.0
Gd432 Gd 0.02019 0.50873 0.06207 0.0
Gd433 Gd 1.00608 0.57003 1.02284 0.0
C434 C 0.07132 0.57561 0.06752 0.0
C435 C 0.04779 0.46336 0.07622 0.0
C436 C 0.07907 0.45986 0.09038 0.0
C437 C 0.07954 0.44256 0.1197 0.0
C438 C 0.10857 0.47242 0.07412 0.0
C439 C 0.13806 0.44819 0.11455 0.0
C440 C 0.13767 0.46658 0.08602 0.0
C441 C 0.10871 0.43689 0.13176 0.0
C442 C 0.98887 0.54492 0.10329 0.0
C443 C 0.95648 0.50282 1.0148 0.0
C444 C 0.97807 0.6152 1.00899 0.0
C445 C 0.95011 0.62043 0.98945 0.0
C446 C 0.94847 0.61619 0.9542 0.0
C447 C 0.92442 0.63022 1.0068 0.0
C448 C 0.89633 0.63262 0.95414 0.0
C449 C 0.89797 0.63624 0.98947 0.0
C450 C 0.92187 0.62222 0.93674 0.0
C451 C 0.03677 0.53302 0.98215 0.0
O452 O 0.06491 0.54525 0.07202 0.0
O453 O 0.05183 0.59041 0.05099 0.0
O454 O 0.02701 0.47307 0.09684 0.0
O455 O 0.04871 0.47526 0.04607 0.0
O456 O 0.99704 0.51955 0.11271 0.0
O457 O 0.99745 0.54843 0.07247 0.0
O458 O 0.96329 0.53298 1.00953 0.0
O459 O 0.9745 0.48808 1.03345 0.0
O460 O 1.004 0.61015 0.99253 0.0
O461 O 0.97091 0.59798 1.03566 0.0
O462 O 0.02763 0.55763 0.97166 0.0
O463 O 0.02911 0.53086 1.01318 0.0
H464 H 0.05722 0.4327 0.13282 0.0
H465 H 0.10923 0.48623 0.05173 0.0
H466 H 0.15988 0.47606 0.07251 0.0
H467 H 0.10809 0.42251 0.15371 0.0
H468 H 0.96774 0.6084 0.94006 0.0
H469 H 0.92499 0.63368 1.03396 0.0
H470 H 0.87927 0.6447 1.00385 0.0
H471 H 0.92138 0.61877 0.90961 0.0
H472 H 0.27506 0.1901 0.36822 0.0
H473 H 0.2574 0.26878 0.42593 0.0
H474 H 0.20885 0.23764 0.45173 0.0
H475 H 0.16764 0.18994 0.45138 0.0
H476 H 0.18423 0.11236 0.39076 0.0
H477 H 0.23691 0.14104 0.37243 0.0
C478 C 0.26117 0.20003 0.3874 0.0
C479 C 0.26971 0.23145 0.3955 0.0
C480 C 0.23268 0.18238 0.40084 0.0
C481 C 0.25125 0.24447 0.41969 0.0
C482 C 0.22336 0.22679 0.43406 0.0
C483 C 0.18298 0.17935 0.43436 0.0
C484 C 0.17209 0.14928 0.42215 0.0
C485 C 0.21314 0.19608 0.42372 0.0
C486 C 0.19224 0.13551 0.40052 0.0
C487 C 0.2223 0.15189 0.38999 0.0
H488 H 0.32724 0.89758 0.8016 0.0
H489 H 0.37765 0.97345 0.74227 0.0
H490 H 0.41553 0.98884 0.78813 0.0
H491 H 0.42771 0.98531 0.84793 0.0
H492 H 0.37324 0.91233 0.90836 0.0
H493 H 0.34435 0.88989 0.85855 0.0
C494 C 0.34649 0.91756 0.79885 0.0
C495 C 0.34921 0.93521 0.76953 0.0
C496 C 0.36762 0.92623 0.82514 0.0
C497 C 0.37489 0.96017 0.76525 0.0
C498 C 0.39652 0.96876 0.79123 0.0
C499 C 0.41021 0.96393 0.84973 0.0
C500 C 0.40179 0.95071 0.88142 0.0
C501 C 0.39232 0.95256 0.82167 0.0
C502 C 0.37979 0.92278 0.88399 0.0
C503 C 0.36294 0.91034 0.85572 0.0
H504 H 0.5675 0.41196 0.70944 0.0
H505 H 0.65184 0.48301 0.72316 0.0
H506 H 0.63464 0.51298 0.67869 0.0
H507 H 0.5951 0.52036 0.63542 0.0
H508 H 0.51346 0.4476 0.61803 0.0
H509 H 0.52992 0.41772 0.66363 0.0
C510 C 0.5824 0.43385 0.7027 0.0
C511 C 0.61087 0.44503 0.72098 0.0
C512 C 0.57263 0.45115 0.67607 0.0
C513 C 0.62936 0.47374 0.71103 0.0
C514 C 0.61963 0.49104 0.68509 0.0
C515 C 0.58093 0.49795 0.64158 0.0
C516 C 0.55284 0.48649 0.62308 0.0
C517 C 0.59114 0.48025 0.66753 0.0
C518 C 0.53519 0.45712 0.63145 0.0
C519 C 0.54463 0.43994 0.65773 0.0
H520 H 0.91184 0.63219 0.1898 0.0
H521 H 0.96469 0.60082 0.26954 0.0
H522 H 0.99042 0.57085 0.22875 0.0
H523 H 0.9979 0.55256 0.17055 0.0
H524 H 0.94516 0.58251 0.09029 0.0
H525 H 0.92013 0.61409 0.13052 0.0
C526 C 0.92898 0.6188 0.19827 0.0
C527 C 0.9363 0.61918 0.23306 0.0
C528 C 0.94415 0.6015 0.17432 0.0
C529 C 0.95878 0.6016 0.24316 0.0
C530 C 0.97349 0.58423 0.21975 0.0
C531 C 0.98113 0.56622 0.16172 0.0
C532 C 0.97437 0.56581 0.12693 0.0
C533 C 0.96643 0.58397 0.18529 0.0
C534 C 0.95219 0.58341 0.11632 0.0
C535 C 0.93735 0.60109 0.13963 0.0
H536 H 0.47571 0.20688 0.15552 0.0
H537 H 0.38047 0.15485 0.17681 0.0
H538 H 0.39619 0.10822 0.15337 0.0
H539 H 0.43625 0.08275 0.12401 0.0
H540 H 0.53159 0.13481 0.1024 0.0
H541 H 0.51666 0.18074 0.12815 0.0
C542 C 0.45855 0.18526 0.15501 0.0
C543 C 0.4269 0.18423 0.16744 0.0
C544 C 0.46772 0.15857 0.14118 0.0
C545 C 0.40481 0.15616 0.16684 0.0
C546 C 0.41381 0.12952 0.15354 0.0
C547 C 0.45382 0.10406 0.12532 0.0
C548 C 0.48501 0.10523 0.11149 0.0
C549 C 0.44507 0.1305 0.14021 0.0
C550 C 0.50754 0.13308 0.11332 0.0
C551 C 0.49896 0.15948 0.12785 0.0
H552 H 0.09175 0.90266 0.59772 0.0
H553 H 0.18818 0.94402 0.56476 0.0
H554 H 0.16979 0.99075 0.54895 0.0
H555 H 0.12581 1.01928 0.5442 0.0
H556 H 0.02963 0.97561 0.57298 0.0
H557 H 0.04828 0.93097 0.59301 0.0
C558 C 0.10857 0.92193 0.58692 0.0
C559 C 0.1409 0.92016 0.58197 0.0
C560 C 0.09808 0.94863 0.57862 0.0
C561 C 0.16285 0.94494 0.56797 0.0
C562 C 0.15253 0.97172 0.55946 0.0
C563 C 0.10933 1.00023 0.55582 0.0
C564 C 0.07667 1.00127 0.55962 0.0
C565 C 0.12021 0.97382 0.56489 0.0
C566 C 0.05501 0.97628 0.57302 0.0
C567 C 0.06564 0.95028 0.5832 0.0
H568 H 0.8509 0.45158 0.90621 0.0
H569 H 0.79591 0.41701 0.99508 0.0
H570 H 0.84213 0.43729 1.03059 0.0
H571 H 0.89863 0.4665 1.03668 0.0
H572 H 0.95295 0.50086 0.94717 0.0
H573 H 0.90749 0.47872 0.91195 0.0
C574 C 0.84909 0.44858 0.93336 0.0
C575 C 0.81983 0.43304 0.94798 0.0
C576 C 0.87603 0.46005 0.95363 0.0
C577 C 0.81805 0.42901 0.9832 0.0
C578 C 0.84458 0.44057 1.00352 0.0
C579 C 0.90061 0.46864 1.00945 0.0
C580 C 0.9294 0.48517 0.9946 0.0
C581 C 0.87381 0.45623 0.98911 0.0
C582 C 0.93122 0.48818 0.95926 0.0
C583 C 0.9051 0.47564 0.93905 0.0
H584 H 0.701 0.5773 0.43886 0.0
H585 H 0.70278 0.67352 0.45961 0.0
H586 H 0.65066 0.66084 0.48923 0.0
H587 H 0.60602 0.62273 0.51201 0.0
H588 H 0.60223 0.52616 0.49234 0.0
H589 H 0.6536 0.53839 0.45996 0.0
C590 C 0.68973 0.59538 0.44967 0.0
C591 C 0.70588 0.62637 0.44721 0.0
C592 C 0.65958 0.58781 0.4672 0.0
C593 C 0.69105 0.64956 0.46143 0.0
C594 C 0.66122 0.64231 0.47838 0.0
C595 C 0.61631 0.60429 0.50049 0.0
C596 C 0.60038 0.57355 0.50472 0.0
C597 C 0.64554 0.61157 0.4819 0.0
C598 C 0.6139 0.55 0.48933 0.0
C599 C 0.64334 0.55705 0.47092 0.0
H600 H 0.26358 0.39255 0.13313 0.0
H601 H 0.24034 0.40723 0.23801 0.0
H602 H 0.19618 0.4321 0.22205 0.0
H603 H 0.16103 0.44548 0.17826 0.0
H604 H 0.18342 0.42933 0.07335 0.0
H605 H 0.23093 0.40966 0.08921 0.0
C606 C 0.24925 0.40182 0.15238 0.0
C607 C 0.25507 0.39793 0.18664 0.0
C608 C 0.22342 0.41555 0.14301 0.0
C609 C 0.23613 0.40977 0.21143 0.0
C610 C 0.21081 0.4239 0.20233 0.0
C611 C 0.1764 0.43778 0.15888 0.0
C612 C 0.16851 0.43883 0.12465 0.0
C613 C 0.20364 0.42615 0.1682 0.0
C614 C 0.18901 0.42912 0.09986 0.0
C615 C 0.21614 0.41766 0.10892 0.0
H616 H 0.56371 0.20029 0.90854 0.0
H617 H 0.64502 0.22614 0.9734 0.0
H618 H 0.6268 0.17999 1.00693 0.0
H619 H 0.58621 0.13241 1.01979 0.0
H620 H 0.50513 0.1069 0.95475 0.0
H621 H 0.52473 0.15189 0.91975 0.0
C622 C 0.57744 0.19592 0.93004 0.0
C623 C 0.60586 0.21707 0.93811 0.0
C624 C 0.56689 0.1689 0.94934 0.0
C625 C 0.62329 0.21044 0.96607 0.0
C626 C 0.6128 0.18392 0.98547 0.0
C627 C 0.57327 0.13638 0.99753 0.0
C628 C 0.54438 0.11585 0.98971 0.0
C629 C 0.58456 0.16288 0.9775 0.0
C630 C 0.52759 0.12196 0.96118 0.0
C631 C 0.53869 0.14791 0.94122 0.0
H632 H 0.96401 0.8588 0.41938 0.0
H633 H 0.88333 0.83386 0.4889 0.0
H634 H 0.89972 0.88225 0.52005 0.0
H635 H 0.9363 0.93311 0.52689 0.0
H636 H 0.01489 0.95896 0.45506 0.0
H637 H 1.00049 0.90917 0.42629 0.0
C638 C 0.95016 0.86379 0.44152 0.0
C639 C 0.92231 0.84247 0.45149 0.0
C640 C 0.95941 0.89214 0.45911 0.0
C641 C 0.90462 0.84977 0.4802 0.0
C642 C 0.91406 0.87752 0.4982 0.0
C643 C 0.95027 0.92778 0.50499 0.0
C644 C 0.97654 0.95003 0.49307 0.0
C645 C 0.94126 0.89913 0.48777 0.0
C646 C 0.99429 0.94259 0.46457 0.0
C647 C 0.98612 0.91398 0.44808 0.0
H648 H 0.35751 0.76298 0.55003 0.0
H649 H 0.28912 0.6934 0.60304 0.0
H650 H 0.32345 0.65636 0.59241 0.0
H651 H 0.37673 0.6469 0.57942 0.0
H652 H 0.44973 0.71809 0.53596 0.0
H653 H 0.4102 0.75189 0.53251 0.0
C654 C 0.35004 0.73965 0.55908 0.0
C655 C 0.32104 0.73124 0.57783 0.0
C656 C 0.37108 0.71904 0.55532 0.0
C657 C 0.3111 0.70062 0.58826 0.0
C658 C 0.33098 0.67943 0.58267 0.0
C659 C 0.38372 0.66948 0.5682 0.0
C660 C 0.41576 0.68023 0.55791 0.0
C661 C 0.36157 0.68888 0.56784 0.0
C662 C 0.42499 0.70966 0.54412 0.0
C663 C 0.4025 0.72883 0.54219 0.0
H664 H 0.74439 0.86085 0.66581 0.0
H665 H 0.79484 0.80652 0.72652 0.0
H666 H 0.84659 0.83553 0.70596 0.0
H667 H 0.87692 0.88058 0.67688 0.0
H668 H 0.82703 0.93482 0.61519 0.0
H669 H 0.77558 0.90137 0.62955 0.0
C670 C 0.7668 0.85492 0.67364 0.0
C671 C 0.76606 0.83166 0.69739 0.0
C672 C 0.79644 0.87187 0.66192 0.0
C673 C 0.79503 0.82411 0.70778 0.0
C674 C 0.82457 0.84086 0.69632 0.0
C675 C 0.85492 0.88462 0.66584 0.0
C676 C 0.85567 0.91044 0.64557 0.0
C677 C 0.82552 0.86539 0.67422 0.0
C678 C 0.82691 0.91548 0.63159 0.0
C679 C 0.79753 0.89633 0.63968 0.0
H680 H 0.65588 0.13636 0.32112 0.0
H681 H 0.74402 0.16494 0.26293 0.0
H682 H 0.71488 0.15222 0.2105 0.0
H683 H 0.66573 0.12959 0.18213 0.0
H684 H 0.57821 0.09684 0.23962 0.0
H685 H 0.60548 0.11568 0.29208 0.0
C686 C 0.66859 0.13952 0.29688 0.0
C687 C 0.70188 0.15104 0.29545 0.0
C688 C 0.65178 0.1321 0.26713 0.0
C689 C 0.71832 0.15587 0.26422 0.0
C690 C 0.70173 0.14878 0.23444 0.0
C691 C 0.65246 0.12745 0.20611 0.0
C692 C 0.62025 0.11231 0.20751 0.0
C693 C 0.6686 0.13667 0.23572 0.0
C694 C 0.60312 0.10877 0.23844 0.0
C695 C 0.61874 0.11917 0.26821 0.0
H696 H 0.45418 0.61801 0.3459 0.0
H697 H 0.38694 0.65629 0.40929 0.0
H698 H 0.40626 0.63419 0.45914 0.0
H699 H 0.44224 0.60291 0.48573 0.0
H700 H 0.50706 0.56247 0.42125 0.0
H701 H 0.48916 0.58632 0.37203 0.0
C702 C 0.4438 0.62175 0.37059 0.0
C703 C 0.41888 0.6391 0.37321 0.0
C704 C 0.45478 0.60839 0.39954 0.0
C705 C 0.40579 0.64299 0.40585 0.0
C706 C 0.41701 0.63036 0.43466 0.0
C707 C 0.45263 0.59947 0.46098 0.0
C708 C 0.47632 0.58074 0.45776 0.0
C709 C 0.4415 0.61287 0.432 0.0
C710 C 0.48887 0.57649 0.42501 0.0
C711 C 0.4786 0.59024 0.39657 0.0
H712 H 0.11843 0.44853 0.89823 0.0
H713 H 0.05482 0.46589 0.82042 0.0
H714 H 0.02749 0.49496 0.86051 0.0
H715 H 0.02238 0.51767 0.9171 0.0
H716 H 0.08476 0.50091 0.99585 0.0
H717 H 0.11148 0.46971 0.95648 0.0
C718 C 0.09863 0.45871 0.88999 0.0
C719 C 0.08887 0.45465 0.85593 0.0
C720 C 0.08259 0.47561 0.91357 0.0
C721 C 0.06284 0.46797 0.84624 0.0
C722 C 0.04718 0.48489 0.86924 0.0
C723 C 0.04161 0.50689 0.92578 0.0
C724 C 0.05112 0.51128 0.95969 0.0
C725 C 0.05689 0.48906 0.90288 0.0
C726 C 0.07621 0.49723 0.97033 0.0
C727 C 0.09181 0.47968 0.94757 0.0
H728 H 0.56538 0.89841 0.8865 0.0
H729 H 0.59555 0.86026 0.97703 0.0
H730 H 0.5762 0.89968 1.01121 0.0
H731 H 0.55361 0.94643 1.01528 0.0
H732 H 0.52066 0.98418 0.92611 0.0
H733 H 0.53813 0.94346 0.89134 0.0
C734 C 0.56746 0.89867 0.91374 0.0
C735 C 0.58199 0.87644 0.92922 0.0
C736 C 0.55602 0.9214 0.93336 0.0
C737 C 0.58424 0.87686 0.96454 0.0
C738 C 0.57338 0.89953 0.98408 0.0
C739 C 0.55018 0.94574 0.98819 0.0
C740 C 0.53638 0.96853 0.97312 0.0
C741 C 0.55971 0.92213 0.96872 0.0
C742 C 0.53137 0.96695 0.9382 0.0
C743 C 0.54143 0.94373 0.91839 0.0
H744 H 0.91668 0.14746 0.43986 0.0
H745 H 0.93004 0.20335 0.53029 0.0
H746 H 0.96273 0.16946 0.55375 0.0
H747 H 0.96912 0.11606 0.55617 0.0
H748 H 0.94747 0.05592 0.46961 0.0
H749 H 0.93537 0.09864 0.43695 0.0
C750 C 0.92835 0.15291 0.4639 0.0
C751 C 0.92012 0.17657 0.48422 0.0
C752 C 0.9437 0.1315 0.47858 0.0
C753 C 0.93571 0.18462 0.51475 0.0
C754 C 0.95368 0.16485 0.52845 0.0
C755 C 0.96207 0.11251 0.53003 0.0
C756 C 0.9573 0.08305 0.51547 0.0
C757 C 0.9547 0.13677 0.51201 0.0
C758 C 0.94989 0.07854 0.4813 0.0
C759 C 0.94336 0.10289 0.46268 0.0
H760 H 0.19841 0.66761 0.11657 0.0
H761 H 0.20289 0.59024 0.17984 0.0
H762 H 0.15375 0.56147 0.15525 0.0
H763 H 0.10913 0.55749 0.11572 0.0
H764 H 0.10289 0.63478 0.05316 0.0
H765 H 0.15267 0.66381 0.07714 0.0
C766 C 0.18878 0.64441 0.12492 0.0
C767 C 0.20478 0.63144 0.15044 0.0
C768 C 0.15994 0.62773 0.11064 0.0
C769 C 0.19129 0.60131 0.16083 0.0
C770 C 0.1631 0.58462 0.14655 0.0
C771 C 0.11858 0.58067 0.10714 0.0
C772 C 0.10192 0.59366 0.08233 0.0
C773 C 0.14714 0.59751 0.12145 0.0
C774 C 0.1148 0.62396 0.07212 0.0
C775 C 0.14346 0.64065 0.08587 0.0
H776 H 0.34513 0.4307 0.6489 0.0
H777 H 0.2888 0.49482 0.61337 0.0
H778 H 0.33552 0.52202 0.58157 0.0
H779 H 0.39255 0.52709 0.56189 0.0
H780 H 0.44905 0.46382 0.59834 0.0
H781 H 0.40233 0.43664 0.63073 0.0
C782 C 0.34289 0.45049 0.63406 0.0
C783 C 0.31306 0.46047 0.63386 0.0
C784 C 0.37009 0.46625 0.61564 0.0
C785 C 0.31125 0.4866 0.61467 0.0
C786 C 0.33803 0.50217 0.59615 0.0
C787 C 0.3946 0.50755 0.57724 0.0
C788 C 0.4243 0.49769 0.578 0.0
C789 C 0.36759 0.4922 0.59628 0.0
C790 C 0.42661 0.47218 0.59779 0.0
C791 C 0.39981 0.45651 0.61619 0.0
H792 H 0.80002 0.69164 0.86781 0.0
H793 H 0.73621 0.65953 0.95177 0.0
H794 H 0.77734 0.63435 0.97532 0.0
H795 H 0.83265 0.62468 0.9741 0.0
H796 H 0.89819 0.66081 0.89259 0.0
H797 H 0.85511 0.68037 0.86565 0.0
C798 C 0.79512 0.67884 0.89109 0.0
C799 C 0.76525 0.6775 0.9082 0.0
C800 C 0.81924 0.66517 0.90494 0.0
C801 C 0.75915 0.66105 0.9384 0.0
C802 C 0.78264 0.64666 0.9518 0.0
C803 C 0.83767 0.63694 0.95052 0.0
C804 C 0.86897 0.64144 0.93576 0.0
C805 C 0.81303 0.64915 0.93569 0.0
C806 C 0.87446 0.65664 0.90458 0.0
C807 C 0.84984 0.66817 0.88924 0.0
H808 H 0.4062 0.86009 0.11761 0.0
H809 H 0.46484 0.87334 0.20639 0.0
H810 H 0.48926 0.92468 0.18794 0.0
H811 H 0.49561 0.96653 0.14623 0.0
H812 H 0.44106 0.9523 0.05508 0.0
H813 H 0.41424 0.90124 0.07453 0.0
C814 C 0.42451 0.87387 0.13298 0.0
C815 C 0.43276 0.86208 0.16407 0.0
C816 C 0.43952 0.90373 0.12167 0.0
C817 C 0.45668 0.88126 0.18308 0.0
C818 C 0.47114 0.9109 0.17231 0.0
C819 C 0.47765 0.95241 0.13069 0.0
C820 C 0.47024 0.96372 0.09924 0.0
C821 C 0.46278 0.92253 0.14173 0.0
C822 C 0.44723 0.94455 0.07941 0.0
C823 C 0.43188 0.91517 0.09056 0.0
H824 H 0.11832 0.23007 0.6069 0.0
H825 H 0.0534 0.2203 0.69358 0.0
H826 H 0.02759 0.16914 0.67361 0.0
H827 H 0.02344 0.1263 0.63137 0.0
H828 H 0.08664 0.13785 0.54332 0.0
H829 H 0.1131 0.18838 0.56406 0.0
C830 C 0.09866 0.21672 0.62158 0.0
C831 C 0.08807 0.22929 0.6519 0.0
C832 C 0.08357 0.18725 0.60971 0.0
C833 C 0.06207 0.21158 0.67008 0.0
C834 C 0.04734 0.18211 0.65874 0.0
C835 C 0.04313 0.13983 0.61688 0.0
C836 C 0.05313 0.12799 0.58589 0.0
C837 C 0.05789 0.16956 0.62861 0.0
C838 C 0.07834 0.14622 0.5672 0.0
C839 C 0.09358 0.17523 0.57907 0.0
H840 H 0.70327 0.34521 0.54177 0.0
H841 H 0.68957 0.32822 0.43484 0.0
H842 H 0.64353 0.35342 0.43678 0.0
H843 H 0.60492 0.37648 0.46908 0.0
H844 H 0.61686 0.39444 0.5757 0.0
H845 H 0.66557 0.3716 0.57407 0.0
C846 C 0.6904 0.34751 0.51892 0.0
C847 C 0.69978 0.33505 0.48829 0.0
C848 C 0.66323 0.36118 0.52036 0.0
C849 C 0.68323 0.33823 0.45863 0.0
C850 C 0.65654 0.35212 0.45977 0.0
C851 C 0.61793 0.37484 0.49205 0.0
C852 C 0.6072 0.3859 0.52262 0.0
C853 C 0.6459 0.3628 0.49059 0.0
C854 C 0.62465 0.38511 0.55211 0.0
C855 C 0.65247 0.37245 0.55106 0.0
loop_
_geom_bond_atom_site_label_1
_geom_bond_atom_site_label_2
_geom_bond_distance
_geom_bond_site_symmetry_2
_ccdc_geom_bond_type
C0 C1 1.386 . S
C0 C2 1.397 . S
C0 H24 0.931 . S
C1 C0 1.386 . S
C1 C5 1.397 . S
C2 C0 1.397 . S
C2 C3 1.384 . S
C2 H25 0.930 . S
C3 C2 1.384 . S
C3 C4 1.377 . S
C3 C6 1.481 . S
C4 C3 1.377 . S
C4 C5 1.389 . S
C4 H26 0.929 . S
C5 C1 1.397 . S
C5 C4 1.389 . S
C5 H27 0.931 . S
C6 C3 1.481 . S
C6 C7 1.387 . S
C6 C11 1.390 . S
C7 C6 1.387 . S
C7 C8 1.401 . S
C7 H28 0.930 . S
C8 C7 1.401 . S
C8 C9 1.376 . S
C8 C17 1.511 . S
C9 C8 1.376 . S
C9 C10 1.392 . S
C9 H30 0.931 . S
C10 C9 1.392 . S
C10 C11 1.361 . S
C10 C12 1.500 . S
C11 C6 1.390 . S
C11 C10 1.361 . S
C11 H29 0.931 . S
C12 C10 1.500 . S
C12 C13 1.371 . S
C12 C14 1.365 . S
C13 C12 1.371 . S
C13 C23 1.386 . S
C13 H31 0.931 . S
C14 C12 1.365 . S
C14 C15 1.409 . S
C14 H32 0.929 . S
C15 C14 1.409 . S
C15 C16 1.380 . S
C15 H33 0.930 . S
C16 C15 1.380 . S
C16 C23 1.357 . S
C17 C8 1.511 . S
C17 C18 1.341 . S
C17 C19 1.371 . S
C18 C17 1.341 . S
C18 C22 1.394 . S
C18 H34 0.930 . S
C19 C17 1.371 . S
C19 C20 1.392 . S
C19 H35 0.931 . S
C20 C19 1.392 . S
C20 C21 1.331 . S
C20 H38 0.932 . S
C21 C20 1.331 . S
C21 C22 1.336 . S
C22 C18 1.394 . S
C22 C21 1.336 . S
C22 H37 0.929 . S
C23 C13 1.386 . S
C23 C16 1.357 . S
C23 H36 0.928 . S
H24 C0 0.931 . S
H25 C2 0.930 . S
H26 C4 0.929 . S
H27 C5 0.931 . S
H28 C7 0.930 . S
H29 C11 0.931 . S
H30 C9 0.931 . S
H31 C13 0.931 . S
H32 C14 0.929 . S
H33 C15 0.930 . S
H34 C18 0.930 . S
H35 C19 0.931 . S
H36 C23 0.928 . S
H37 C22 0.929 . S
H38 C20 0.932 . S
C39 C40 1.386 . S
C39 C41 1.397 . S
C39 H63 0.931 . S
C40 C39 1.386 . S
C40 C44 1.397 . S
C41 C39 1.397 . S
C41 C42 1.384 . S
C41 H64 0.930 . S
C42 C41 1.384 . S
C42 C43 1.377 . S
C42 C45 1.481 . S
C43 C42 1.377 . S
C43 C44 1.389 . S
C43 H65 0.929 . S
C44 C40 1.397 . S
C44 C43 1.389 . S
C44 H66 0.931 . S
C45 C42 1.481 . S
C45 C46 1.387 . S
C45 C50 1.390 . S
C46 C45 1.387 . S
C46 C47 1.401 . S
C46 H67 0.930 . S
C47 C46 1.401 . S
C47 C48 1.376 . S
C47 C56 1.511 . S
C48 C47 1.376 . S
C48 C49 1.392 . S
C48 H69 0.931 . S
C49 C48 1.392 . S
C49 C50 1.361 . S
C49 C51 1.500 . S
C50 C45 1.390 . S
C50 C49 1.361 . S
C50 H68 0.931 . S
C51 C49 1.500 . S
C51 C52 1.371 . S
C51 C53 1.365 . S
C52 C51 1.371 . S
C52 C62 1.386 . S
C52 H70 0.931 . S
C53 C51 1.365 . S
C53 C54 1.409 . S
C53 H71 0.929 . S
C54 C53 1.409 . S
C54 C55 1.380 . S
C54 H72 0.930 . S
C55 C54 1.380 . S
C55 C62 1.357 . S
C56 C47 1.511 . S
C56 C57 1.341 . S
C56 C58 1.371 . S
C57 C56 1.341 . S
C57 C61 1.394 . S
C57 H73 0.930 . S
C58 C56 1.371 . S
C58 C59 1.392 . S
C58 H74 0.931 . S
C59 C58 1.392 . S
C59 C60 1.331 . S
C59 H77 0.932 . S
C60 C59 1.331 . S
C60 C61 1.336 . S
C61 C57 1.394 . S
C61 C60 1.336 . S
C61 H76 0.929 . S
C62 C52 1.386 . S
C62 C55 1.357 . S
C62 H75 0.928 . S
H63 C39 0.931 . S
H64 C41 0.930 . S
H65 C43 0.929 . S
H66 C44 0.931 . S
H67 C46 0.930 . S
H68 C50 0.931 . S
H69 C48 0.931 . S
H70 C52 0.931 . S
H71 C53 0.929 . S
H72 C54 0.930 . S
H73 C57 0.930 . S
H74 C58 0.931 . S
H75 C62 0.928 . S
H76 C61 0.929 . S
H77 C59 0.932 . S
C78 C79 1.386 . S
C78 C80 1.397 . S
C78 H102 0.931 . S
C79 C78 1.386 . S
C79 C83 1.397 . S
C80 C78 1.397 . S
C80 C81 1.384 . S
C80 H103 0.930 . S
C81 C80 1.384 . S
C81 C82 1.377 . S
C81 C84 1.481 . S
C82 C81 1.377 . S
C82 C83 1.389 . S
C82 H104 0.929 . S
C83 C79 1.397 . S
C83 C82 1.389 . S
C83 H105 0.931 . S
C84 C81 1.481 . S
C84 C85 1.387 . S
C84 C89 1.390 . S
C85 C84 1.387 . S
C85 C86 1.401 . S
C85 H106 0.930 . S
C86 C85 1.401 . S
C86 C87 1.376 . S
C86 C95 1.511 . S
C87 C86 1.376 . S
C87 C88 1.392 . S
C87 H108 0.931 . S
C88 C87 1.392 . S
C88 C89 1.361 . S
C88 C90 1.500 . S
C89 C84 1.390 . S
C89 C88 1.361 . S
C89 H107 0.931 . S
C90 C88 1.500 . S
C90 C91 1.371 . S
C90 C92 1.365 . S
C91 C90 1.371 . S
C91 C101 1.386 . S
C91 H109 0.931 . S
C92 C90 1.365 . S
C92 C93 1.409 . S
C92 H110 0.929 . S
C93 C92 1.409 . S
C93 C94 1.380 . S
C93 H111 0.930 . S
C94 C93 1.380 . S
C94 C101 1.357 . S
C95 C86 1.511 . S
C95 C96 1.341 . S
C95 C97 1.371 . S
C96 C95 1.341 . S
C96 C100 1.394 . S
C96 H112 0.930 . S
C97 C95 1.371 . S
C97 C98 1.392 . S
C97 H113 0.931 . S
C98 C97 1.392 . S
C98 C99 1.331 . S
C98 H116 0.932 . S
C99 C98 1.331 . S
C99 C100 1.336 . S
C100 C96 1.394 . S
C100 C99 1.336 . S
C100 H115 0.929 . S
C101 C91 1.386 . S
C101 C94 1.357 . S
C101 H114 0.928 . S
H102 C78 0.931 . S
H103 C80 0.930 . S
H104 C82 0.929 . S
H105 C83 0.931 . S
H106 C85 0.930 . S
H107 C89 0.931 . S
H108 C87 0.931 . S
H109 C91 0.931 . S
H110 C92 0.929 . S
H111 C93 0.930 . S
H112 C96 0.930 . S
H113 C97 0.931 . S
H114 C101 0.928 . S
H115 C100 0.929 . S
H116 C98 0.932 . S
C117 C118 1.386 . S
C117 C119 1.397 . S
C117 H141 0.931 . S
C118 C117 1.386 . S
C118 C122 1.397 . S
C119 C117 1.397 . S
C119 C120 1.384 . S
C119 H142 0.930 . S
C120 C119 1.384 . S
C120 C121 1.377 . S
C120 C123 1.481 . S
C121 C120 1.377 . S
C121 C122 1.389 . S
C121 H143 0.929 . S
C122 C118 1.397 . S
C122 C121 1.389 . S
C122 H144 0.931 . S
C123 C120 1.481 . S
C123 C124 1.387 . S
C123 C128 1.390 . S
C124 C123 1.387 . S
C124 C125 1.401 . S
C124 H145 0.930 . S
C125 C124 1.401 . S
C125 C126 1.376 . S
C125 C134 1.511 . S
C126 C125 1.376 . S
C126 C127 1.392 . S
C126 H147 0.931 . S
C127 C126 1.392 . S
C127 C128 1.361 . S
C127 C129 1.500 . S
C128 C123 1.390 . S
C128 C127 1.361 . S
C128 H146 0.931 . S
C129 C127 1.500 . S
C129 C130 1.371 . S
C129 C131 1.365 . S
C130 C129 1.371 . S
C130 C140 1.386 . S
C130 H148 0.931 . S
C131 C129 1.365 . S
C131 C132 1.409 . S
C131 H149 0.929 . S
C132 C131 1.409 . S
C132 C133 1.380 . S
C132 H150 0.930 . S
C133 C132 1.380 . S
C133 C140 1.357 . S
C134 C125 1.511 . S
C134 C135 1.341 . S
C134 C136 1.371 . S
C135 C134 1.341 . S
C135 C139 1.394 . S
C135 H151 0.930 . S
C136 C134 1.371 . S
C136 C137 1.392 . S
C136 H152 0.931 . S
C137 C136 1.392 . S
C137 C138 1.331 . S
C137 H155 0.932 . S
C138 C137 1.331 . S
C138 C139 1.336 . S
C139 C135 1.394 . S
C139 C138 1.336 . S
C139 H154 0.929 . S
C140 C130 1.386 . S
C140 C133 1.357 . S
C140 H153 0.928 . S
H141 C117 0.931 . S
H142 C119 0.930 . S
H143 C121 0.929 . S
H144 C122 0.931 . S
H145 C124 0.930 . S
H146 C128 0.931 . S
H147 C126 0.931 . S
H148 C130 0.931 . S
H149 C131 0.929 . S
H150 C132 0.930 . S
H151 C135 0.930 . S
H152 C136 0.931 . S
H153 C140 0.928 . S
H154 C139 0.929 . S
H155 C137 0.932 . S
C156 C157 1.386 . S
C156 C158 1.397 . S
C156 H180 0.931 . S
C157 C156 1.386 . S
C157 C161 1.397 . S
C158 C156 1.397 . S
C158 C159 1.384 . S
C158 H181 0.930 . S
C159 C158 1.384 . S
C159 C160 1.377 . S
C159 C162 1.481 . S
C160 C159 1.377 . S
C160 C161 1.389 . S
C160 H182 0.929 . S
C161 C157 1.397 . S
C161 C160 1.389 . S
C161 H183 0.931 . S
C162 C159 1.481 . S
C162 C163 1.387 . S
C162 C167 1.390 . S
C163 C162 1.387 . S
C163 C164 1.401 . S
C163 H184 0.930 . S
C164 C163 1.401 . S
C164 C165 1.376 . S
C164 C173 1.511 . S
C165 C164 1.376 . S
C165 C166 1.392 . S
C165 H186 0.931 . S
C166 C165 1.392 . S
C166 C167 1.361 . S
C166 C168 1.500 . S
C167 C162 1.390 . S
C167 C166 1.361 . S
C167 H185 0.931 . S
C168 C166 1.500 . S
C168 C169 1.371 . S
C168 C170 1.365 . S
C169 C168 1.371 . S
C169 C179 1.386 . S
C169 H187 0.931 . S
C170 C168 1.365 . S
C170 C171 1.409 . S
C170 H188 0.929 . S
C171 C170 1.409 . S
C171 C172 1.380 . S
C171 H189 0.930 . S
C172 C171 1.380 . S
C172 C179 1.357 . S
C173 C164 1.511 . S
C173 C174 1.341 . S
C173 C175 1.371 . S
C174 C173 1.341 . S
C174 C178 1.394 . S
C174 H190 0.930 . S
C175 C173 1.371 . S
C175 C176 1.392 . S
C175 H191 0.931 . S
C176 C175 1.392 . S
C176 C177 1.331 . S
C176 H194 0.932 . S
C177 C176 1.331 . S
C177 C178 1.336 . S
C178 C174 1.394 . S
C178 C177 1.336 . S
C178 H193 0.929 . S
C179 C169 1.386 . S
C179 C172 1.357 . S
C179 H192 0.928 . S
H180 C156 0.931 . S
H181 C158 0.930 . S
H182 C160 0.929 . S
H183 C161 0.931 . S
H184 C163 0.930 . S
H185 C167 0.931 . S
H186 C165 0.931 . S
H187 C169 0.931 . S
H188 C170 0.929 . S
H189 C171 0.930 . S
H190 C174 0.930 . S
H191 C175 0.931 . S
H192 C179 0.928 . S
H193 C178 0.929 . S
H194 C176 0.932 . S
C195 C196 1.386 . S
C195 C197 1.397 . S
C195 H219 0.931 . S
C196 C195 1.386 . S
C196 C200 1.397 . S
C197 C195 1.397 . S
C197 C198 1.384 . S
C197 H220 0.930 . S
C198 C197 1.384 . S
C198 C199 1.377 . S
C198 C201 1.481 . S
C199 C198 1.377 . S
C199 C200 1.389 . S
C199 H221 0.929 . S
C200 C196 1.397 . S
C200 C199 1.389 . S
C200 H222 0.931 . S
C201 C198 1.481 . S
C201 C202 1.387 . S
C201 C206 1.390 . S
C202 C201 1.387 . S
C202 C203 1.401 . S
C202 H223 0.930 . S
C203 C202 1.401 . S
C203 C204 1.376 . S
C203 C212 1.511 . S
C204 C203 1.376 . S
C204 C205 1.392 . S
C204 H225 0.931 . S
C205 C204 1.392 . S
C205 C206 1.361 . S
C205 C207 1.500 . S
C206 C201 1.390 . S
C206 C205 1.361 . S
C206 H224 0.931 . S
C207 C205 1.500 . S
C207 C208 1.371 . S
C207 C209 1.365 . S
C208 C207 1.371 . S
C208 C218 1.386 . S
C208 H226 0.931 . S
C209 C207 1.365 . S
C209 C210 1.409 . S
C209 H227 0.929 . S
C210 C209 1.409 . S
C210 C211 1.380 . S
C210 H228 0.930 . S
C211 C210 1.380 . S
C211 C218 1.357 . S
C212 C203 1.511 . S
C212 C213 1.341 . S
C212 C214 1.371 . S
C213 C212 1.341 . S
C213 C217 1.394 . S
C213 H229 0.930 . S
C214 C212 1.371 . S
C214 C215 1.392 . S
C214 H230 0.931 . S
C215 C214 1.392 . S
C215 C216 1.331 . S
C215 H233 0.932 . S
C216 C215 1.331 . S
C216 C217 1.336 . S
C217 C213 1.394 . S
C217 C216 1.336 . S
C217 H232 0.929 . S
C218 C208 1.386 . S
C218 C211 1.357 . S
C218 H231 0.928 . S
H219 C195 0.931 . S
H220 C197 0.930 . S
H221 C199 0.929 . S
H222 C200 0.931 . S
H223 C202 0.930 . S
H224 C206 0.931 . S
H225 C204 0.931 . S
H226 C208 0.931 . S
H227 C209 0.929 . S
H228 C210 0.930 . S
H229 C213 0.930 . S
H230 C214 0.931 . S
H231 C218 0.928 . S
H232 C217 0.929 . S
H233 C215 0.932 . S
C234 C235 1.386 . S
C234 C236 1.397 . S
C234 H258 0.931 . S
C235 C234 1.386 . S
C235 C239 1.397 . S
C236 C234 1.397 . S
C236 C237 1.384 . S
C236 H259 0.930 . S
C237 C236 1.384 . S
C237 C238 1.377 . S
C237 C240 1.481 . S
C238 C237 1.377 . S
C238 C239 1.389 . S
C238 H260 0.929 . S
C239 C235 1.397 . S
C239 C238 1.389 . S
C239 H261 0.931 . S
C240 C237 1.481 . S
C240 C241 1.387 . S
C240 C245 1.390 . S
C241 C240 1.387 . S
C241 C242 1.401 . S
C241 H262 0.930 . S
C242 C241 1.401 . S
C242 C243 1.376 . S
C242 C251 1.511 . S
C243 C242 1.376 . S
C243 C244 1.392 . S
C243 H264 0.931 . S
C244 C243 1.392 . S
C244 C245 1.361 . S
C244 C246 1.500 . S
C245 C240 1.390 . S
C245 C244 1.361 . S
C245 H263 0.931 . S
C246 C244 1.500 . S
C246 C247 1.371 . S
C246 C248 1.365 . S
C247 C246 1.371 . S
C247 C257 1.386 . S
C247 H265 0.931 . S
C248 C246 1.365 . S
C248 C249 1.409 . S
C248 H266 0.929 . S
C249 C248 1.409 . S
C249 C250 1.380 . S
C249 H267 0.930 . S
C250 C249 1.380 . S
C250 C257 1.357 . S
C251 C242 1.511 . S
C251 C252 1.341 . S
C251 C253 1.371 . S
C252 C251 1.341 . S
C252 C256 1.394 . S
C252 H268 0.930 . S
C253 C251 1.371 . S
C253 C254 1.392 . S
C253 H269 0.931 . S
C254 C253 1.392 . S
C254 C255 1.331 . S
C254 H272 0.932 . S
C255 C254 1.331 . S
C255 C256 1.336 . S
C256 C252 1.394 . S
C256 C255 1.336 . S
C256 H271 0.929 . S
C257 C247 1.386 . S
C257 C250 1.357 . S
C257 H270 0.928 . S
H258 C234 0.931 . S
H259 C236 0.930 . S
H260 C238 0.929 . S
H261 C239 0.931 . S
H262 C241 0.930 . S
H263 C245 0.931 . S
H264 C243 0.931 . S
H265 C247 0.931 . S
H266 C248 0.929 . S
H267 C249 0.930 . S
H268 C252 0.930 . S
H269 C253 0.931 . S
H270 C257 0.928 . S
H271 C256 0.929 . S
H272 C254 0.932 . S
C273 C274 1.386 . S
C273 C275 1.397 . S
C273 H297 0.931 . S
C274 C273 1.386 . S
C274 C278 1.397 . S
C275 C273 1.397 . S
C275 C276 1.384 . S
C275 H298 0.930 . S
C276 C275 1.384 . S
C276 C277 1.377 . S
C276 C279 1.481 . S
C277 C276 1.377 . S
C277 C278 1.389 . S
C277 H299 0.929 . S
C278 C274 1.397 . S
C278 C277 1.389 . S
C278 H300 0.931 . S
C279 C276 1.481 . S
C279 C280 1.387 . S
C279 C284 1.390 . S
C280 C279 1.387 . S
C280 C281 1.401 . S
C280 H301 0.930 . S
C281 C280 1.401 . S
C281 C282 1.376 . S
C281 C290 1.511 . S
C282 C281 1.376 . S
C282 C283 1.392 . S
C282 H303 0.931 . S
C283 C282 1.392 . S
C283 C284 1.361 . S
C283 C285 1.500 . S
C284 C279 1.390 . S
C284 C283 1.361 . S
C284 H302 0.931 . S
C285 C283 1.500 . S
C285 C286 1.371 . S
C285 C287 1.365 . S
C286 C285 1.371 . S
C286 C296 1.386 . S
C286 H304 0.931 . S
C287 C285 1.365 . S
C287 C288 1.409 . S
C287 H305 0.929 . S
C288 C287 1.409 . S
C288 C289 1.380 . S
C288 H306 0.930 . S
C289 C288 1.380 . S
C289 C296 1.357 . S
C290 C281 1.511 . S
C290 C291 1.341 . S
C290 C292 1.371 . S
C291 C290 1.341 . S
C291 C295 1.394 . S
C291 H307 0.930 . S
C292 C290 1.371 . S
C292 C293 1.392 . S
C292 H308 0.931 . S
C293 C292 1.392 . S
C293 C294 1.331 . S
C293 H311 0.932 . S
C294 C293 1.331 . S
C294 C295 1.336 . S
C295 C291 1.394 . S
C295 C294 1.336 . S
C295 H310 0.929 . S
C296 C286 1.386 . S
C296 C289 1.357 . S
C296 H309 0.928 . S
H297 C273 0.931 . S
H298 C275 0.930 . S
H299 C277 0.929 . S
H300 C278 0.931 . S
H301 C280 0.930 . S
H302 C284 0.931 . S
H303 C282 0.931 . S
H304 C286 0.931 . S
H305 C287 0.929 . S
H306 C288 0.930 . S
H307 C291 0.930 . S
H308 C292 0.931 . S
H309 C296 0.928 . S
H310 C295 0.929 . S
H311 C293 0.932 . S
Gd312 C315 2.818 . S
Gd312 O332 2.377 . S
Gd312 O334 2.448 . S
Gd312 O335 2.506 . S
Gd312 O336 2.435 1_545 S
Gd312 O337 2.717 1_545 S
Gd312 O339 2.395 1_445 S
Gd312 O343 2.327 1_455 S
Gd313 C324 2.818 . S
Gd313 O333 2.395 1_665 S
Gd313 O337 2.327 1_655 S
Gd313 O338 2.377 . S
Gd313 O340 2.448 . S
Gd313 O341 2.506 . S
Gd313 O342 2.435 1_565 S
Gd313 O343 2.717 1_565 S
C314 O332 1.240 . S
C314 O333 1.240 . S
C315 Gd312 2.818 . S
C315 C316 1.510 . S
C315 O334 1.249 . S
C315 O335 1.252 . S
C316 C315 1.510 . S
C316 C317 1.404 . S
C316 C318 1.352 . S
C317 C316 1.404 . S
C317 C321 1.389 . S
C317 H344 0.930 . S
C318 C316 1.352 . S
C318 C320 1.374 . S
C318 H345 0.931 . S
C319 C320 1.359 . S
C319 C321 1.364 . S
C320 C318 1.374 . S
C320 C319 1.359 . S
C320 H346 0.931 . S
C321 C317 1.389 . S
C321 C319 1.364 . S
C321 H347 0.931 . S
C322 O336 1.256 . S
C322 O337 1.257 . S
C323 O338 1.240 . S
C323 O339 1.240 . S
C324 Gd313 2.818 . S
C324 C325 1.510 . S
C324 O340 1.249 . S
C324 O341 1.252 . S
C325 C324 1.510 . S
C325 C326 1.404 . S
C325 C327 1.352 . S
C326 C325 1.404 . S
C326 C330 1.389 . S
C326 H348 0.930 . S
C327 C325 1.352 . S
C327 C329 1.374 . S
C327 H349 0.931 . S
C328 C329 1.359 . S
C328 C330 1.364 . S
C329 C327 1.374 . S
C329 C328 1.359 . S
C329 H350 0.931 . S
C330 C326 1.389 . S
C330 C328 1.364 . S
C330 H351 0.931 . S
C331 O342 1.256 . S
C331 O343 1.257 . S
O332 Gd312 2.377 . S
O332 C314 1.240 . S
O333 Gd313 2.395 1_445 S
O333 C314 1.240 . S
O334 Gd312 2.448 . S
O334 C315 1.249 . S
O335 Gd312 2.506 . S
O335 C315 1.252 . S
O336 Gd312 2.435 1_565 S
O336 C322 1.256 . S
O337 Gd312 2.717 1_565 S
O337 Gd313 2.327 1_455 S
O337 C322 1.257 . S
O338 Gd313 2.377 . S
O338 C323 1.240 . S
O339 Gd312 2.395 1_665 S
O339 C323 1.240 . S
O340 Gd313 2.448 . S
O340 C324 1.249 . S
O341 Gd313 2.506 . S
O341 C324 1.252 . S
O342 Gd313 2.435 1_545 S
O342 C331 1.256 . S
O343 Gd312 2.327 1_655 S
O343 Gd313 2.717 1_545 S
O343 C331 1.257 . S
H344 C317 0.930 . S
H345 C318 0.931 . S
H346 C320 0.931 . S
H347 C321 0.931 . S
H348 C326 0.930 . S
H349 C327 0.931 . S
H350 C329 0.931 . S
H351 C330 0.931 . S
Gd352 C355 2.819 1_565 S
Gd352 O372 2.378 1_565 S
Gd352 O374 2.448 1_565 S
Gd352 O375 2.507 1_565 S
Gd352 O376 2.434 . S
Gd352 O377 2.717 . S
Gd352 O379 2.394 1_554 S
Gd352 O383 2.328 1_564 S
Gd353 C364 2.818 1_545 S
Gd353 O373 2.395 1_556 S
Gd353 O377 2.327 1_546 S
Gd353 O378 2.377 1_545 S
Gd353 O380 2.448 1_545 S
Gd353 O381 2.506 1_545 S
Gd353 O382 2.435 . S
Gd353 O383 2.717 . S
C354 O372 1.240 . S
C354 O373 1.240 . S
C355 Gd352 2.819 1_545 S
C355 C356 1.510 . S
C355 O374 1.249 . S
C355 O375 1.252 . S
C356 C355 1.510 . S
C356 C357 1.404 . S
C356 C358 1.352 . S
C357 C356 1.404 . S
C357 C361 1.389 . S
C357 H384 0.930 . S
C358 C356 1.352 . S
C358 C360 1.374 . S
C358 H385 0.931 . S
C359 C360 1.359 . S
C359 C361 1.364 . S
C360 C358 1.374 . S
C360 C359 1.359 . S
C360 H386 0.931 . S
C361 C357 1.389 . S
C361 C359 1.364 . S
C361 H387 0.931 . S
C362 O376 1.256 . S
C362 O377 1.257 . S
C363 O378 1.240 . S
C363 O379 1.240 . S
C364 Gd353 2.818 1_565 S
C364 C365 1.510 . S
C364 O380 1.249 . S
C364 O381 1.252 . S
C365 C364 1.510 . S
C365 C366 1.404 . S
C365 C367 1.352 . S
C366 C365 1.404 . S
C366 C370 1.389 . S
C366 H388 0.930 . S
C367 C365 1.352 . S
C367 C369 1.374 . S
C367 H389 0.931 . S
C368 C369 1.359 . S
C368 C370 1.364 . S
C369 C367 1.374 . S
C369 C368 1.359 . S
C369 H390 0.931 . S
C370 C366 1.389 . S
C370 C368 1.364 . S
C370 H391 0.931 . S
C371 O382 1.256 . S
C371 O383 1.257 . S
O372 Gd352 2.378 1_545 S
O372 C354 1.240 . S
O373 Gd353 2.395 1_554 S
O373 C354 1.240 . S
O374 Gd352 2.448 1_545 S
O374 C355 1.249 . S
O375 Gd352 2.507 1_545 S
O375 C355 1.252 . S
O376 Gd352 2.434 . S
O376 C362 1.256 . S
O377 Gd352 2.717 . S
O377 Gd353 2.327 1_564 S
O377 C362 1.257 . S
O378 Gd353 2.377 1_565 S
O378 C363 1.240 . S
O379 Gd352 2.394 1_556 S
O379 C363 1.240 . S
O380 Gd353 2.448 1_565 S
O380 C364 1.249 . S
O381 Gd353 2.506 1_565 S
O381 C364 1.252 . S
O382 Gd353 2.435 . S
O382 C371 1.256 . S
O383 Gd352 2.328 1_546 S
O383 Gd353 2.717 . S
O383 C371 1.257 . S
H384 C357 0.930 . S
H385 C358 0.931 . S
H386 C360 0.931 . S
H387 C361 0.931 . S
H388 C366 0.930 . S
H389 C367 0.931 . S
H390 C369 0.931 . S
H391 C370 0.931 . S
Gd392 C395 2.818 . S
Gd392 O412 2.377 . S
Gd392 O414 2.448 . S
Gd392 O415 2.506 . S
Gd392 O416 2.435 . S
Gd392 O417 2.717 . S
Gd392 O419 2.395 . S
Gd392 O423 2.327 . S
Gd393 C404 2.818 . S
Gd393 O413 2.395 . S
Gd393 O417 2.327 . S
Gd393 O418 2.377 . S
Gd393 O420 2.448 . S
Gd393 O421 2.506 . S
Gd393 O422 2.435 . S
Gd393 O423 2.717 . S
C394 O412 1.240 . S
C394 O413 1.240 . S
C395 Gd392 2.818 . S
C395 C396 1.510 . S
C395 O414 1.249 . S
C395 O415 1.252 . S
C396 C395 1.510 . S
C396 C397 1.404 . S
C396 C398 1.352 . S
C397 C396 1.404 . S
C397 C401 1.389 . S
C397 H424 0.930 . S
C398 C396 1.352 . S
C398 C400 1.374 . S
C398 H425 0.931 . S
C399 C400 1.359 . S
C399 C401 1.364 . S
C400 C398 1.374 . S
C400 C399 1.359 . S
C400 H426 0.931 . S
C401 C397 1.389 . S
C401 C399 1.364 . S
C401 H427 0.931 . S
C402 O416 1.256 . S
C402 O417 1.257 . S
C403 O418 1.240 . S
C403 O419 1.240 . S
C404 Gd393 2.818 . S
C404 C405 1.510 . S
C404 O420 1.249 . S
C404 O421 1.252 . S
C405 C404 1.510 . S
C405 C406 1.404 . S
C405 C407 1.352 . S
C406 C405 1.404 . S
C406 C410 1.389 . S
C406 H428 0.930 . S
C407 C405 1.352 . S
C407 C409 1.374 . S
C407 H429 0.931 . S
C408 C409 1.359 . S
C408 C410 1.364 . S
C409 C407 1.374 . S
C409 C408 1.359 . S
C409 H430 0.931 . S
C410 C406 1.389 . S
C410 C408 1.364 . S
C410 H431 0.931 . S
C411 O422 1.256 . S
C411 O423 1.257 . S
O412 Gd392 2.377 . S
O412 C394 1.240 . S
O413 Gd393 2.395 . S
O413 C394 1.240 . S
O414 Gd392 2.448 . S
O414 C395 1.249 . S
O415 Gd392 2.506 . S
O415 C395 1.252 . S
O416 Gd392 2.435 . S
O416 C402 1.256 . S
O417 Gd392 2.717 . S
O417 Gd393 2.327 . S
O417 C402 1.257 . S
O418 Gd393 2.377 . S
O418 C403 1.240 . S
O419 Gd392 2.395 . S
O419 C403 1.240 . S
O420 Gd393 2.448 . S
O420 C404 1.249 . S
O421 Gd393 2.506 . S
O421 C404 1.252 . S
O422 Gd393 2.435 . S
O422 C411 1.256 . S
O423 Gd392 2.327 . S
O423 Gd393 2.717 . S
O423 C411 1.257 . S
H424 C397 0.930 . S
H425 C398 0.931 . S
H426 C400 0.931 . S
H427 C401 0.931 . S
H428 C406 0.930 . S
H429 C407 0.931 . S
H430 C409 0.931 . S
H431 C410 0.931 . S
Gd432 C435 2.818 . S
Gd432 O452 2.377 . S
Gd432 O454 2.448 . S
Gd432 O455 2.506 . S
Gd432 O456 2.435 1_455 S
Gd432 O457 2.717 1_455 S
Gd432 O459 2.395 1_454 S
Gd432 O463 2.327 1_554 S
Gd433 C444 2.818 . S
Gd433 O453 2.395 1_656 S
Gd433 O457 2.327 1_556 S
Gd433 O458 2.377 . S
Gd433 O460 2.448 . S
Gd433 O461 2.506 . S
Gd433 O462 2.435 1_655 S
Gd433 O463 2.717 1_655 S
C434 O452 1.240 . S
C434 O453 1.240 . S
C435 Gd432 2.818 . S
C435 C436 1.510 . S
C435 O454 1.249 . S
C435 O455 1.252 . S
C436 C435 1.510 . S
C436 C437 1.404 . S
C436 C438 1.352 . S
C437 C436 1.404 . S
C437 C441 1.389 . S
C437 H464 0.930 . S
C438 C436 1.352 . S
C438 C440 1.374 . S
C438 H465 0.931 . S
C439 C440 1.359 . S
C439 C441 1.364 . S
C440 C438 1.374 . S
C440 C439 1.359 . S
C440 H466 0.931 . S
C441 C437 1.389 . S
C441 C439 1.364 . S
C441 H467 0.931 . S
C442 O456 1.256 . S
C442 O457 1.257 . S
C443 O458 1.240 . S
C443 O459 1.240 . S
C444 Gd433 2.818 . S
C444 C445 1.510 . S
C444 O460 1.249 . S
C444 O461 1.252 . S
C445 C444 1.510 . S
C445 C446 1.404 . S
C445 C447 1.352 . S
C446 C445 1.404 . S
C446 C450 1.389 . S
C446 H468 0.930 . S
C447 C445 1.352 . S
C447 C449 1.374 . S
C447 H469 0.931 . S
C448 C449 1.359 . S
C448 C450 1.364 . S
C449 C447 1.374 . S
C449 C448 1.359 . S
C449 H470 0.931 . S
C450 C446 1.389 . S
C450 C448 1.364 . S
C450 H471 0.931 . S
C451 O462 1.256 . S
C451 O463 1.257 . S
O452 Gd432 2.377 . S
O452 C434 1.240 . S
O453 Gd433 2.395 1_454 S
O453 C434 1.240 . S
O454 Gd432 2.448 . S
O454 C435 1.249 . S
O455 Gd432 2.506 . S
O455 C435 1.252 . S
O456 Gd432 2.435 1_655 S
O456 C442 1.256 . S
O457 Gd432 2.717 1_655 S
O457 Gd433 2.327 1_554 S
O457 C442 1.257 . S
O458 Gd433 2.377 . S
O458 C443 1.240 . S
O459 Gd432 2.395 1_656 S
O459 C443 1.240 . S
O460 Gd433 2.448 . S
O460 C444 1.249 . S
O461 Gd433 2.506 . S
O461 C444 1.252 . S
O462 Gd433 2.435 1_455 S
O462 C451 1.256 . S
O463 Gd432 2.327 1_556 S
O463 Gd433 2.717 1_455 S
O463 C451 1.257 . S
H464 C437 0.930 . S
H465 C438 0.931 . S
H466 C440 0.931 . S
H467 C441 0.931 . S
H468 C446 0.930 . S
H469 C447 0.931 . S
H470 C449 0.931 . S
H471 C450 0.931 . S
H472 C478 0.930 . S
H473 C481 0.930 . S
H474 C482 0.930 . S
H475 C483 0.930 . S
H476 C486 0.930 . S
H477 C487 0.930 . S
C478 H472 0.930 . S
C478 C479 1.355 . S
C478 C480 1.415 . S
C479 C478 1.355 . S
C479 C481 1.419 . S
C480 C478 1.415 . S
C480 C485 1.425 . S
C480 C487 1.409 . S
C481 H473 0.930 . S
C481 C479 1.419 . S
C481 C482 1.362 . S
C482 H474 0.930 . S
C482 C481 1.362 . S
C482 C485 1.409 . S
C483 H475 0.930 . S
C483 C484 1.355 . S
C483 C485 1.415 . S
C484 C483 1.355 . S
C484 C486 1.419 . S
C485 C480 1.425 . S
C485 C482 1.409 . S
C485 C483 1.415 . S
C486 H476 0.930 . S
C486 C484 1.419 . S
C486 C487 1.362 . S
C487 H477 0.930 . S
C487 C480 1.409 . S
C487 C486 1.362 . S
H488 C494 0.930 . S
H489 C497 0.930 . S
H490 C498 0.930 . S
H491 C499 0.930 . S
H492 C502 0.930 . S
H493 C503 0.930 . S
C494 H488 0.930 . S
C494 C495 1.355 . S
C494 C496 1.415 . S
C495 C494 1.355 . S
C495 C497 1.419 . S
C496 C494 1.415 . S
C496 C501 1.425 . S
C496 C503 1.409 . S
C497 H489 0.930 . S
C497 C495 1.419 . S
C497 C498 1.362 . S
C498 H490 0.930 . S
C498 C497 1.362 . S
C498 C501 1.409 . S
C499 H491 0.930 . S
C499 C500 1.355 . S
C499 C501 1.415 . S
C500 C499 1.355 . S
C500 C502 1.419 . S
C501 C496 1.425 . S
C501 C498 1.409 . S
C501 C499 1.415 . S
C502 H492 0.930 . S
C502 C500 1.419 . S
C502 C503 1.362 . S
C503 H493 0.930 . S
C503 C496 1.409 . S
C503 C502 1.362 . S
H504 C510 0.930 . S
H505 C513 0.930 . S
H506 C514 0.930 . S
H507 C515 0.930 . S
H508 C518 0.930 . S
H509 C519 0.930 . S
C510 H504 0.930 . S
C510 C511 1.355 . S
C510 C512 1.415 . S
C511 C510 1.355 . S
C511 C513 1.419 . S
C512 C510 1.415 . S
C512 C517 1.425 . S
C512 C519 1.409 . S
C513 H505 0.930 . S
C513 C511 1.419 . S
C513 C514 1.362 . S
C514 H506 0.930 . S
C514 C513 1.362 . S
C514 C517 1.409 . S
C515 H507 0.930 . S
C515 C516 1.355 . S
C515 C517 1.415 . S
C516 C515 1.355 . S
C516 C518 1.419 . S
C517 C512 1.425 . S
C517 C514 1.409 . S
C517 C515 1.415 . S
C518 H508 0.930 . S
C518 C516 1.419 . S
C518 C519 1.362 . S
C519 H509 0.930 . S
C519 C512 1.409 . S
C519 C518 1.362 . S
H520 C526 0.930 . S
H521 C529 0.930 . S
H522 C530 0.930 . S
H523 C531 0.930 . S
H524 C534 0.930 . S
H525 C535 0.930 . S
C526 H520 0.930 . S
C526 C527 1.355 . S
C526 C528 1.415 . S
C527 C526 1.355 . S
C527 C529 1.419 . S
C528 C526 1.415 . S
C528 C533 1.425 . S
C528 C535 1.409 . S
C529 H521 0.930 . S
C529 C527 1.419 . S
C529 C530 1.362 . S
C530 H522 0.930 . S
C530 C529 1.362 . S
C530 C533 1.409 . S
C531 H523 0.930 . S
C531 C532 1.355 . S
C531 C533 1.415 . S
C532 C531 1.355 . S
C532 C534 1.419 . S
C533 C528 1.425 . S
C533 C530 1.409 . S
C533 C531 1.415 . S
C534 H524 0.930 . S
C534 C532 1.419 . S
C534 C535 1.362 . S
C535 H525 0.930 . S
C535 C528 1.409 . S
C535 C534 1.362 . S
H536 C542 0.930 . S
H537 C545 0.930 . S
H538 C546 0.930 . S
H539 C547 0.930 . S
H540 C550 0.930 . S
H541 C551 0.930 . S
C542 H536 0.930 . S
C542 C543 1.355 . S
C542 C544 1.415 . S
C543 C542 1.355 . S
C543 C545 1.419 . S
C544 C542 1.415 . S
C544 C549 1.425 . S
C544 C551 1.409 . S
C545 H537 0.930 . S
C545 C543 1.419 . S
C545 C546 1.362 . S
C546 H538 0.930 . S
C546 C545 1.362 . S
C546 C549 1.409 . S
C547 H539 0.930 . S
C547 C548 1.355 . S
C547 C549 1.415 . S
C548 C547 1.355 . S
C548 C550 1.419 . S
C549 C544 1.425 . S
C549 C546 1.409 . S
C549 C547 1.415 . S
C550 H540 0.930 . S
C550 C548 1.419 . S
C550 C551 1.362 . S
C551 H541 0.930 . S
C551 C544 1.409 . S
C551 C550 1.362 . S
H552 C558 0.930 . S
H553 C561 0.930 . S
H554 C562 0.930 . S
H555 C563 0.930 . S
H556 C566 0.930 . S
H557 C567 0.930 . S
C558 H552 0.930 . S
C558 C559 1.355 . S
C558 C560 1.415 . S
C559 C558 1.355 . S
C559 C561 1.419 . S
C560 C558 1.415 . S
C560 C565 1.425 . S
C560 C567 1.409 . S
C561 H553 0.930 . S
C561 C559 1.419 . S
C561 C562 1.362 . S
C562 H554 0.930 . S
C562 C561 1.362 . S
C562 C565 1.409 . S
C563 H555 0.930 . S
C563 C564 1.355 . S
C563 C565 1.415 . S
C564 C563 1.355 . S
C564 C566 1.419 . S
C565 C560 1.425 . S
C565 C562 1.409 . S
C565 C563 1.415 . S
C566 H556 0.930 . S
C566 C564 1.419 . S
C566 C567 1.362 . S
C567 H557 0.930 . S
C567 C560 1.409 . S
C567 C566 1.362 . S
H568 C574 0.930 . S
H569 C577 0.930 . S
H570 C578 0.930 . S
H571 C579 0.930 . S
H572 C582 0.930 . S
H573 C583 0.930 . S
C574 H568 0.930 . S
C574 C575 1.355 . S
C574 C576 1.415 . S
C575 C574 1.355 . S
C575 C577 1.419 . S
C576 C574 1.415 . S
C576 C581 1.425 . S
C576 C583 1.409 . S
C577 H569 0.930 . S
C577 C575 1.419 . S
C577 C578 1.362 . S
C578 H570 0.930 . S
C578 C577 1.362 . S
C578 C581 1.409 . S
C579 H571 0.930 . S
C579 C580 1.355 . S
C579 C581 1.415 . S
C580 C579 1.355 . S
C580 C582 1.419 . S
C581 C576 1.425 . S
C581 C578 1.409 . S
C581 C579 1.415 . S
C582 H572 0.930 . S
C582 C580 1.419 . S
C582 C583 1.362 . S
C583 H573 0.930 . S
C583 C576 1.409 . S
C583 C582 1.362 . S
H584 C590 0.930 . S
H585 C593 0.930 . S
H586 C594 0.930 . S
H587 C595 0.930 . S
H588 C598 0.930 . S
H589 C599 0.930 . S
C590 H584 0.930 . S
C590 C591 1.355 . S
C590 C592 1.415 . S
C591 C590 1.355 . S
C591 C593 1.419 . S
C592 C590 1.415 . S
C592 C597 1.425 . S
C592 C599 1.409 . S
C593 H585 0.930 . S
C593 C591 1.419 . S
C593 C594 1.362 . S
C594 H586 0.930 . S
C594 C593 1.362 . S
C594 C597 1.409 . S
C595 H587 0.930 . S
C595 C596 1.355 . S
C595 C597 1.415 . S
C596 C595 1.355 . S
C596 C598 1.419 . S
C597 C592 1.425 . S
C597 C594 1.409 . S
C597 C595 1.415 . S
C598 H588 0.930 . S
C598 C596 1.419 . S
C598 C599 1.362 . S
C599 H589 0.930 . S
C599 C592 1.409 . S
C599 C598 1.362 . S
H600 C606 0.930 . S
H601 C609 0.930 . S
H602 C610 0.930 . S
H603 C611 0.930 . S
H604 C614 0.930 . S
H605 C615 0.930 . S
C606 H600 0.930 . S
C606 C607 1.355 . S
C606 C608 1.415 . S
C607 C606 1.355 . S
C607 C609 1.419 . S
C608 C606 1.415 . S
C608 C613 1.425 . S
C608 C615 1.409 . S
C609 H601 0.930 . S
C609 C607 1.419 . S
C609 C610 1.362 . S
C610 H602 0.930 . S
C610 C609 1.362 . S
C610 C613 1.409 . S
C611 H603 0.930 . S
C611 C612 1.355 . S
C611 C613 1.415 . S
C612 C611 1.355 . S
C612 C614 1.419 . S
C613 C608 1.425 . S
C613 C610 1.409 . S
C613 C611 1.415 . S
C614 H604 0.930 . S
C614 C612 1.419 . S
C614 C615 1.362 . S
C615 H605 0.930 . S
C615 C608 1.409 . S
C615 C614 1.362 . S
H616 C622 0.930 . S
H617 C625 0.930 . S
H618 C626 0.930 . S
H619 C627 0.930 . S
H620 C630 0.930 . S
H621 C631 0.930 . S
C622 H616 0.930 . S
C622 C623 1.355 . S
C622 C624 1.415 . S
C623 C622 1.355 . S
C623 C625 1.419 . S
C624 C622 1.415 . S
C624 C629 1.425 . S
C624 C631 1.409 . S
C625 H617 0.930 . S
C625 C623 1.419 . S
C625 C626 1.362 . S
C626 H618 0.930 . S
C626 C625 1.362 . S
C626 C629 1.409 . S
C627 H619 0.930 . S
C627 C628 1.355 . S
C627 C629 1.415 . S
C628 C627 1.355 . S
C628 C630 1.419 . S
C629 C624 1.425 . S
C629 C626 1.409 . S
C629 C627 1.415 . S
C630 H620 0.930 . S
C630 C628 1.419 . S
C630 C631 1.362 . S
C631 H621 0.930 . S
C631 C624 1.409 . S
C631 C630 1.362 . S
H632 C638 0.930 . S
H633 C641 0.930 . S
H634 C642 0.930 . S
H635 C643 0.930 . S
H636 C646 0.930 . S
H637 C647 0.930 . S
C638 H632 0.930 . S
C638 C639 1.355 . S
C638 C640 1.415 . S
C639 C638 1.355 . S
C639 C641 1.419 . S
C640 C638 1.415 . S
C640 C645 1.425 . S
C640 C647 1.409 . S
C641 H633 0.930 . S
C641 C639 1.419 . S
C641 C642 1.362 . S
C642 H634 0.930 . S
C642 C641 1.362 . S
C642 C645 1.409 . S
C643 H635 0.930 . S
C643 C644 1.355 . S
C643 C645 1.415 . S
C644 C643 1.355 . S
C644 C646 1.419 . S
C645 C640 1.425 . S
C645 C642 1.409 . S
C645 C643 1.415 . S
C646 H636 0.930 . S
C646 C644 1.419 . S
C646 C647 1.362 . S
C647 H637 0.930 . S
C647 C640 1.409 . S
C647 C646 1.362 . S
H648 C654 0.930 . S
H649 C657 0.930 . S
H650 C658 0.930 . S
H651 C659 0.930 . S
H652 C662 0.930 . S
H653 C663 0.930 . S
C654 H648 0.930 . S
C654 C655 1.355 . S
C654 C656 1.415 . S
C655 C654 1.355 . S
C655 C657 1.419 . S
C656 C654 1.415 . S
C656 C661 1.425 . S
C656 C663 1.409 . S
C657 H649 0.930 . S
C657 C655 1.419 . S
C657 C658 1.362 . S
C658 H650 0.930 . S
C658 C657 1.362 . S
C658 C661 1.409 . S
C659 H651 0.930 . S
C659 C660 1.355 . S
C659 C661 1.415 . S
C660 C659 1.355 . S
C660 C662 1.419 . S
C661 C656 1.425 . S
C661 C658 1.409 . S
C661 C659 1.415 . S
C662 H652 0.930 . S
C662 C660 1.419 . S
C662 C663 1.362 . S
C663 H653 0.930 . S
C663 C656 1.409 . S
C663 C662 1.362 . S
H664 C670 0.930 . S
H665 C673 0.930 . S
H666 C674 0.930 . S
H667 C675 0.930 . S
H668 C678 0.930 . S
H669 C679 0.930 . S
C670 H664 0.930 . S
C670 C671 1.355 . S
C670 C672 1.415 . S
C671 C670 1.355 . S
C671 C673 1.419 . S
C672 C670 1.415 . S
C672 C677 1.425 . S
C672 C679 1.409 . S
C673 H665 0.930 . S
C673 C671 1.419 . S
C673 C674 1.362 . S
C674 H666 0.930 . S
C674 C673 1.362 . S
C674 C677 1.409 . S
C675 H667 0.930 . S
C675 C676 1.355 . S
C675 C677 1.415 . S
C676 C675 1.355 . S
C676 C678 1.419 . S
C677 C672 1.425 . S
C677 C674 1.409 . S
C677 C675 1.415 . S
C678 H668 0.930 . S
C678 C676 1.419 . S
C678 C679 1.362 . S
C679 H669 0.930 . S
C679 C672 1.409 . S
C679 C678 1.362 . S
H680 C686 0.930 . S
H681 C689 0.930 . S
H682 C690 0.930 . S
H683 C691 0.930 . S
H684 C694 0.930 . S
H685 C695 0.930 . S
C686 H680 0.930 . S
C686 C687 1.355 . S
C686 C688 1.415 . S
C687 C686 1.355 . S
C687 C689 1.419 . S
C688 C686 1.415 . S
C688 C693 1.425 . S
C688 C695 1.409 . S
C689 H681 0.930 . S
C689 C687 1.419 . S
C689 C690 1.362 . S
C690 H682 0.930 . S
C690 C689 1.362 . S
C690 C693 1.409 . S
C691 H683 0.930 . S
C691 C692 1.355 . S
C691 C693 1.415 . S
C692 C691 1.355 . S
C692 C694 1.419 . S
C693 C688 1.425 . S
C693 C690 1.409 . S
C693 C691 1.415 . S
C694 H684 0.930 . S
C694 C692 1.419 . S
C694 C695 1.362 . S
C695 H685 0.930 . S
C695 C688 1.409 . S
C695 C694 1.362 . S
H696 C702 0.930 . S
H697 C705 0.930 . S
H698 C706 0.930 . S
H699 C707 0.930 . S
H700 C710 0.930 . S
H701 C711 0.930 . S
C702 H696 0.930 . S
C702 C703 1.355 . S
C702 C704 1.415 . S
C703 C702 1.355 . S
C703 C705 1.419 . S
C704 C702 1.415 . S
C704 C709 1.425 . S
C704 C711 1.409 . S
C705 H697 0.930 . S
C705 C703 1.419 . S
C705 C706 1.362 . S
C706 H698 0.930 . S
C706 C705 1.362 . S
C706 C709 1.409 . S
C707 H699 0.930 . S
C707 C708 1.355 . S
C707 C709 1.415 . S
C708 C707 1.355 . S
C708 C710 1.419 . S
C709 C704 1.425 . S
C709 C706 1.409 . S
C709 C707 1.415 . S
C710 H700 0.930 . S
C710 C708 1.419 . S
C710 C711 1.362 . S
C711 H701 0.930 . S
C711 C704 1.409 . S
C711 C710 1.362 . S
H712 C718 0.930 . S
H713 C721 0.930 . S
H714 C722 0.930 . S
H715 C723 0.930 . S
H716 C726 0.930 . S
H717 C727 0.930 . S
C718 H712 0.930 . S
C718 C719 1.355 . S
C718 C720 1.415 . S
C719 C718 1.355 . S
C719 C721 1.419 . S
C720 C718 1.415 . S
C720 C725 1.425 . S
C720 C727 1.409 . S
C721 H713 0.930 . S
C721 C719 1.419 . S
C721 C722 1.362 . S
C722 H714 0.930 . S
C722 C721 1.362 . S
C722 C725 1.409 . S
C723 H715 0.930 . S
C723 C724 1.355 . S
C723 C725 1.415 . S
C724 C723 1.355 . S
C724 C726 1.419 . S
C725 C720 1.425 . S
C725 C722 1.409 . S
C725 C723 1.415 . S
C726 H716 0.930 . S
C726 C724 1.419 . S
C726 C727 1.362 . S
C727 H717 0.930 . S
C727 C720 1.409 . S
C727 C726 1.362 . S
H728 C734 0.930 . S
H729 C737 0.930 . S
H730 C738 0.930 . S
H731 C739 0.930 . S
H732 C742 0.930 . S
H733 C743 0.930 . S
C734 H728 0.930 . S
C734 C735 1.355 . S
C734 C736 1.415 . S
C735 C734 1.355 . S
C735 C737 1.419 . S
C736 C734 1.415 . S
C736 C741 1.425 . S
C736 C743 1.409 . S
C737 H729 0.930 . S
C737 C735 1.419 . S
C737 C738 1.362 . S
C738 H730 0.930 . S
C738 C737 1.362 . S
C738 C741 1.409 . S
C739 H731 0.930 . S
C739 C740 1.355 . S
C739 C741 1.415 . S
C740 C739 1.355 . S
C740 C742 1.419 . S
C741 C736 1.425 . S
C741 C738 1.409 . S
C741 C739 1.415 . S
C742 H732 0.930 . S
C742 C740 1.419 . S
C742 C743 1.362 . S
C743 H733 0.930 . S
C743 C736 1.409 . S
C743 C742 1.362 . S
H744 C750 0.930 . S
H745 C753 0.930 . S
H746 C754 0.930 . S
H747 C755 0.930 . S
H748 C758 0.930 . S
H749 C759 0.930 . S
C750 H744 0.930 . S
C750 C751 1.355 . S
C750 C752 1.415 . S
C751 C750 1.355 . S
C751 C753 1.419 . S
C752 C750 1.415 . S
C752 C757 1.425 . S
C752 C759 1.409 . S
C753 H745 0.930 . S
C753 C751 1.419 . S
C753 C754 1.362 . S
C754 H746 0.930 . S
C754 C753 1.362 . S
C754 C757 1.409 . S
C755 H747 0.930 . S
C755 C756 1.355 . S
C755 C757 1.415 . S
C756 C755 1.355 . S
C756 C758 1.419 . S
C757 C752 1.425 . S
C757 C754 1.409 . S
C757 C755 1.415 . S
C758 H748 0.930 . S
C758 C756 1.419 . S
C758 C759 1.362 . S
C759 H749 0.930 . S
C759 C752 1.409 . S
C759 C758 1.362 . S
H760 C766 0.930 . S
H761 C769 0.930 . S
H762 C770 0.930 . S
H763 C771 0.930 . S
H764 C774 0.930 . S
H765 C775 0.930 . S
C766 H760 0.930 . S
C766 C767 1.355 . S
C766 C768 1.415 . S
C767 C766 1.355 . S
C767 C769 1.419 . S
C768 C766 1.415 . S
C768 C773 1.425 . S
C768 C775 1.409 . S
C769 H761 0.930 . S
C769 C767 1.419 . S
C769 C770 1.362 . S
C770 H762 0.930 . S
C770 C769 1.362 . S
C770 C773 1.409 . S
C771 H763 0.930 . S
C771 C772 1.355 . S
C771 C773 1.415 . S
C772 C771 1.355 . S
C772 C774 1.419 . S
C773 C768 1.425 . S
C773 C770 1.409 . S
C773 C771 1.415 . S
C774 H764 0.930 . S
C774 C772 1.419 . S
C774 C775 1.362 . S
C775 H765 0.930 . S
C775 C768 1.409 . S
C775 C774 1.362 . S
H776 C782 0.930 . S
H777 C785 0.930 . S
H778 C786 0.930 . S
H779 C787 0.930 . S
H780 C790 0.930 . S
H781 C791 0.930 . S
C782 H776 0.930 . S
C782 C783 1.355 . S
C782 C784 1.415 . S
C783 C782 1.355 . S
C783 C785 1.419 . S
C784 C782 1.415 . S
C784 C789 1.425 . S
C784 C791 1.409 . S
C785 H777 0.930 . S
C785 C783 1.419 . S
C785 C786 1.362 . S
C786 H778 0.930 . S
C786 C785 1.362 . S
C786 C789 1.409 . S
C787 H779 0.930 . S
C787 C788 1.355 . S
C787 C789 1.415 . S
C788 C787 1.355 . S
C788 C790 1.419 . S
C789 C784 1.425 . S
C789 C786 1.409 . S
C789 C787 1.415 . S
C790 H780 0.930 . S
C790 C788 1.419 . S
C790 C791 1.362 . S
C791 H781 0.930 . S
C791 C784 1.409 . S
C791 C790 1.362 . S
H792 C798 0.930 . S
H793 C801 0.930 . S
H794 C802 0.930 . S
H795 C803 0.930 . S
H796 C806 0.930 . S
H797 C807 0.930 . S
C798 H792 0.930 . S
C798 C799 1.355 . S
C798 C800 1.415 . S
C799 C798 1.355 . S
C799 C801 1.419 . S
C800 C798 1.415 . S
C800 C805 1.425 . S
C800 C807 1.409 . S
C801 H793 0.930 . S
C801 C799 1.419 . S
C801 C802 1.362 . S
C802 H794 0.930 . S
C802 C801 1.362 . S
C802 C805 1.409 . S
C803 H795 0.930 . S
C803 C804 1.355 . S
C803 C805 1.415 . S
C804 C803 1.355 . S
C804 C806 1.419 . S
C805 C800 1.425 . S
C805 C802 1.409 . S
C805 C803 1.415 . S
C806 H796 0.930 . S
C806 C804 1.419 . S
C806 C807 1.362 . S
C807 H797 0.930 . S
C807 C800 1.409 . S
C807 C806 1.362 . S
H808 C814 0.930 . S
H809 C817 0.930 . S
H810 C818 0.930 . S
H811 C819 0.930 . S
H812 C822 0.930 . S
H813 C823 0.930 . S
C814 H808 0.930 . S
C814 C815 1.355 . S
C814 C816 1.415 . S
C815 C814 1.355 . S
C815 C817 1.419 . S
C816 C814 1.415 . S
C816 C821 1.425 . S
C816 C823 1.409 . S
C817 H809 0.930 . S
C817 C815 1.419 . S
C817 C818 1.362 . S
C818 H810 0.930 . S
C818 C817 1.362 . S
C818 C821 1.409 . S
C819 H811 0.930 . S
C819 C820 1.355 . S
C819 C821 1.415 . S
C820 C819 1.355 . S
C820 C822 1.419 . S
C821 C816 1.425 . S
C821 C818 1.409 . S
C821 C819 1.415 . S
C822 H812 0.930 . S
C822 C820 1.419 . S
C822 C823 1.362 . S
C823 H813 0.930 . S
C823 C816 1.409 . S
C823 C822 1.362 . S
H824 C830 0.930 . S
H825 C833 0.930 . S
H826 C834 0.930 . S
H827 C835 0.930 . S
H828 C838 0.930 . S
H829 C839 0.930 . S
C830 H824 0.930 . S
C830 C831 1.355 . S
C830 C832 1.415 . S
C831 C830 1.355 . S
C831 C833 1.419 . S
C832 C830 1.415 . S
C832 C837 1.425 . S
C832 C839 1.409 . S
C833 H825 0.930 . S
C833 C831 1.419 . S
C833 C834 1.362 . S
C834 H826 0.930 . S
C834 C833 1.362 . S
C834 C837 1.409 . S
C835 H827 0.930 . S
C835 C836 1.355 . S
C835 C837 1.415 . S
C836 C835 1.355 . S
C836 C838 1.419 . S
C837 C832 1.425 . S
C837 C834 1.409 . S
C837 C835 1.415 . S
C838 H828 0.930 . S
C838 C836 1.419 . S
C838 C839 1.362 . S
C839 H829 0.930 . S
C839 C832 1.409 . S
C839 C838 1.362 . S
H840 C846 0.930 . S
H841 C849 0.930 . S
H842 C850 0.930 . S
H843 C851 0.930 . S
H844 C854 0.930 . S
H845 C855 0.930 . S
C846 H840 0.930 . S
C846 C847 1.355 . S
C846 C848 1.415 . S
C847 C846 1.355 . S
C847 C849 1.419 . S
C848 C846 1.415 . S
C848 C853 1.425 . S
C848 C855 1.409 . S
C849 H841 0.930 . S
C849 C847 1.419 . S
C849 C850 1.362 . S
C850 H842 0.930 . S
C850 C849 1.362 . S
C850 C853 1.409 . S
C851 H843 0.930 . S
C851 C852 1.355 . S
C851 C853 1.415 . S
C852 C851 1.355 . S
C852 C854 1.419 . S
C853 C848 1.425 . S
C853 C850 1.409 . S
C853 C851 1.415 . S
C854 H844 0.930 . S
C854 C852 1.419 . S
C854 C855 1.362 . S
C855 H845 0.930 . S
C855 C848 1.409 . S
C855 C854 1.362 . S
C479 C1 1.281 . S
C484 C319 1.338 . S
C495 C40 1.049 . S
C500 C368 1.043 . S
C516 C394 2.436 . S
C511 C99 2.485 . S
C527 C118 2.397 . S
C532 C442 2.357 . S
C548 C354 2.530 . S
C543 C16 2.353 . S
C564 C322 0.944 . S
C559 C60 0.909 . S
C580 C443 1.901 . S
C575 C79 1.941 . S
C596 C411 1.603 . S
C591 C138 1.602 . S
C607 C21 1.710 . S
C612 C439 1.789 . S
C628 C371 2.306 . S
C623 C94 2.399 . S
C639 C133 2.308 . S
C644 C323 2.299 . S
C655 C55 1.017 . S
C660 C408 1.040 . S
C676 C328 1.325 . S
C671 C157 1.240 . S
C687 C196 1.073 . S
C692 C359 1.071 . S
C703 C255 2.482 . S
C708 C403 2.435 . S
C719 C289 2.394 . S
C724 C451 2.341 . S
C735 C172 2.356 . S
C740 C363 2.534 . S
C756 C331 0.955 . S
C751 C216 0.938 . S
C772 C434 1.919 . S
C767 C235 1.951 . S
C788 C402 1.567 . S
C783 C294 1.615 . S
C799 C177 1.746 . S
C804 C448 1.806 . S
C820 C362 2.352 . S
C815 C250 2.410 . S
C836 C314 2.316 . S
C831 C274 2.320 . S
C847 C211 0.933 . S
C852 C399 0.979 . S
