# Generated by pormake.
# Topology zzz, (3,6)-cn, num edge types: 1
# Building blocks:
#     Node 0, Type 0, BuildingBlock: CUQRIR_clean_linker_1, # of connection points: 3
#     Node 1, Type 0, BuildingBlock: CUQRIR_clean_linker_1, # of connection points: 3
#     Node 2, Type 0, BuildingBlock: CUQRIR_clean_linker_1, # of connection points: 3
#     Node 3, Type 0, BuildingBlock: CUQRIR_clean_linker_1, # of connection points: 3
#     Node 4, Type 0, BuildingBlock: CUQRIR_clean_linker_1, # of connection points: 3
#     Node 5, Type 0, BuildingBlock: CUQRIR_clean_linker_1, # of connection points: 3
#     Node 6, Type 0, BuildingBlock: CUQRIR_clean_linker_1, # of connection points: 3
#     Node 7, Type 0, BuildingBlock: CUQRIR_clean_linker_1, # of connection points: 3
#     Node 8, Type 1, BuildingBlock: PAMTOO_clean_sbu_0, # of connection points: 6
#     Node 9, Type 1, BuildingBlock: PAMTOO_clean_sbu_0, # of connection points: 6
#     Node 10, Type 1, BuildingBlock: PAMTOO_clean_sbu_0, # of connection points: 6
#     Node 11, Type 1, BuildingBlock: PAMTOO_clean_sbu_0, # of connection points: 6
#     Edge 12, Type (0, 1), None
#     Edge 13, Type (0, 1), None
#     Edge 14, Type (0, 1), None
#     Edge 15, Type (0, 1), None
#     Edge 16, Type (0, 1), None
#     Edge 17, Type (0, 1), None
#     Edge 18, Type (0, 1), None
#     Edge 19, Type (0, 1), None
#     Edge 20, Type (0, 1), None
#     Edge 21, Type (0, 1), None
#     Edge 22, Type (0, 1), None
#     Edge 23, Type (0, 1), None
#     Edge 24, Type (0, 1), None
#     Edge 25, Type (0, 1), None
#     Edge 26, Type (0, 1), None
#     Edge 27, Type (0, 1), None
#     Edge 28, Type (0, 1), None
#     Edge 29, Type (0, 1), None
#     Edge 30, Type (0, 1), None
#     Edge 31, Type (0, 1), None
#     Edge 32, Type (0, 1), None
#     Edge 33, Type (0, 1), None
#     Edge 34, Type (0, 1), None
#     Edge 35, Type (0, 1), None
# Relax obj value: 0.741
# Max RMSD: 0.331
# Mean RMSD: 0.156
data_MOF--net-zzz--node1-PAMTOO_clean_sbu_0--node2-CUQRIR_clean_linker_1--edge1-none
_symmetry_space_group_name_H-M    P1
_symmetry_Int_Tables_number       1
_symmetry_cell_setting            triclinic
loop_
_symmetry_equiv_pos_as_xyz
'x, y, z'
_cell_length_a     24.697699
_cell_length_b     17.341281
_cell_length_c     7.0814775
_cell_angle_alpha  93.830782
_cell_angle_beta   65.47844
_cell_angle_gamma 89.82347
loop_
_atom_site_label
_atom_site_type_symbol
_atom_site_fract_x
_atom_site_fract_y
_atom_site_fract_z
_atom_type_partial_charge
C0 C 0.88013 0.65286 0.79005 0.0
N1 N 0.90643 0.58118 0.76994 0.0
N2 N 0.85866 0.66305 0.64245 0.0
C3 C 0.87011 0.70783 0.96732 0.0
C4 C 0.87919 0.59744 0.52655 0.0
N5 N 0.89356 0.54239 0.62536 0.0
C6 C 0.89823 0.59584 0.29942 0.0
H7 H 0.8453 0.67455 0.09916 0.0
H8 H 0.84578 0.76057 0.96234 0.0
H9 H 0.91211 0.72067 0.98102 0.0
H10 H 0.90827 0.65516 0.2501 0.0
H11 H 0.86338 0.57183 0.25458 0.0
H12 H 0.9397 0.56218 0.22323 0.0
C13 C 1.03809 0.73495 0.54747 0.0
N14 N 0.0836 0.77325 0.58521 0.0
N15 N 1.05862 0.67744 0.37808 0.0
C16 C 0.98092 0.77797 0.60025 0.0
C17 C 0.11175 0.70973 0.275 0.0
N18 N 0.13096 0.74841 0.40929 0.0
C19 C 0.11533 0.75269 0.09017 0.0
H20 H 0.96117 0.80092 0.76456 0.0
H21 H 0.95109 0.74473 0.54842 0.0
H22 H 0.99135 0.8293 0.51029 0.0
H23 H 0.07333 0.78797 0.14171 0.0
H24 H 0.15171 0.79196 0.02764 0.0
H25 H 0.11744 0.71845 0.95475 0.0
C26 C 0.84451 0.95867 0.6466 0.0
N27 N 0.78472 0.98823 0.70122 0.0
N28 N 0.88919 0.97862 0.44709 0.0
C29 C 0.85892 0.90885 0.78342 0.0
C30 C 0.85114 1.01318 0.3839 0.0
N31 N 0.7958 0.02467 0.5332 0.0
C32 C 0.86661 0.03522 0.16542 0.0
H33 H 0.90389 0.92052 0.7728 0.0
H34 H 0.8601 0.84808 0.72553 0.0
H35 H 0.82463 0.91598 0.94607 0.0
H36 H 0.90012 0.99424 0.05076 0.0
H37 H 0.88228 0.09439 0.16043 0.0
H38 H 0.82894 0.03682 0.12016 0.0
C39 C 0.6016 0.79743 0.58 0.0
N40 N 0.57135 0.73027 0.6649 0.0
N41 N 0.58123 0.83351 0.44465 0.0
C42 C 0.64806 0.8318 0.64153 0.0
C43 C 0.53617 0.78556 0.45816 0.0
N44 N 0.53444 0.72154 0.56749 0.0
C45 C 0.49703 0.79642 0.34331 0.0
H46 H 0.6678 0.78872 0.70432 0.0
H47 H 0.62902 0.87813 0.76701 0.0
H48 H 0.68222 0.8577 0.50694 0.0
H49 H 0.52092 0.77358 0.17923 0.0
H50 H 0.48452 0.85745 0.34357 0.0
H51 H 0.45421 0.76726 0.41755 0.0
C52 C 0.22921 0.34924 0.84142 0.0
N53 N 0.18808 0.39095 1.00865 0.0
N54 N 0.2773 0.3291 0.87605 0.0
C55 C 0.20507 0.28697 0.74599 0.0
C56 C 0.25425 0.33965 0.08496 0.0
N57 N 0.20696 0.39089 0.15952 0.0
C58 C 0.28861 0.31309 0.20438 0.0
H59 H 0.1707 0.25609 0.87104 0.0
H60 H 0.18208 0.31289 0.66122 0.0
H61 H 0.24046 0.24392 0.64654 0.0
H62 H 0.31669 0.35889 0.22722 0.0
H63 H 0.31708 0.26102 0.1259 0.0
H64 H 0.25868 0.2979 0.35685 0.0
C65 C 0.10283 0.24869 0.39269 0.0
N66 N 1.06685 0.21652 0.30434 0.0
N67 N 0.08592 0.32499 0.46596 0.0
C68 C 0.1459 0.20312 0.44209 0.0
C69 C 1.03719 0.33357 0.42918 0.0
N70 N 1.02029 0.26542 0.37044 0.0
C71 C 0.99479 0.40189 0.5278 0.0
H72 H 0.13219 0.20863 0.61233 0.0
H73 H 0.19046 0.22495 0.36124 0.0
H74 H 0.14838 0.14143 0.39388 0.0
H75 H 1.01681 0.45562 0.52971 0.0
H76 H 0.96717 0.41732 0.45196 0.0
H77 H 0.9684 0.39035 0.68847 0.0
C78 C 0.32029 0.04963 0.43106 0.0
N79 N 0.3716 0.07556 0.45352 0.0
N80 N 0.26516 0.06434 0.60992 0.0
C81 C 0.32636 1.00374 0.24098 0.0
C82 C 0.28856 0.09568 0.73948 0.0
N83 N 0.34912 0.09542 0.65558 0.0
C84 C 0.2518 0.12124 0.96311 0.0
H85 H 0.28974 1.01861 0.19918 0.0
H86 H 0.33029 0.94145 0.25869 0.0
H87 H 0.36876 1.01667 0.1183 0.0
H88 H 0.23783 0.06979 0.05096 0.0
H89 H 0.21136 0.154 0.9798 0.0
H90 H 0.27795 0.15649 0.02875 0.0
C91 C 0.56204 0.31843 0.6109 0.0
N92 N 0.58631 0.39154 0.57266 0.0
N93 N 0.57709 0.27793 0.75027 0.0
C94 C 0.52537 0.2851 0.50225 0.0
C95 C 0.61301 0.33128 0.79029 0.0
N96 N 0.61637 0.39964 0.6951 0.0
C97 C 0.64933 0.31499 0.90951 0.0
H98 H 0.49476 0.32962 0.49286 0.0
H99 H 0.49992 0.2353 0.58059 0.0
H100 H 0.55417 0.26684 0.33853 0.0
H101 H 0.66315 0.25338 0.88591 0.0
H102 H 0.62303 0.33111 0.07692 0.0
H103 H 0.69074 0.34799 0.85435 0.0
Dy104 Dy 1.05413 0.02834 0.85018 0.0
Dy105 Dy 0.10169 0.9587 0.0976 0.0
C106 C 0.20642 0.03148 0.6927 0.0
O107 O 1.04456 0.90201 0.73748 0.0
O108 O 0.11394 0.85728 0.82628 0.0
O109 O 1.03881 0.10899 0.65931 0.0
O110 O 0.99077 1.00303 0.72 0.0
O111 O 0.99816 0.93876 0.32114 0.0
O112 O 0.97241 0.02957 0.16676 0.0
O113 O 0.10378 0.08762 0.18704 0.0
O114 O 1.03702 0.13343 0.08487 0.0
O115 O 0.12124 0.88821 0.29909 0.0
O116 O 0.15343 1.00211 0.26234 0.0
C117 C 0.07995 0.84301 0.7202 0.0
O118 O 0.15839 0.05965 0.67066 0.0
O119 O 0.19349 0.98221 0.83924 0.0
C120 C 0.93348 0.11557 0.75325 0.0
C121 C 0.96738 0.23753 0.52704 0.0
C122 C 0.96014 0.24399 0.73902 0.0
C123 C 0.93557 0.18409 0.86307 0.0
C124 C 0.90885 0.12678 0.61205 0.0
C125 C 0.93369 0.18307 0.47349 0.0
C126 C 0.99193 0.07253 0.66276 0.0
C127 C 0.95336 0.98007 0.31452 0.0
C128 C 0.06924 0.14532 0.19219 0.0
C129 C 0.21906 0.90825 0.28438 0.0
C130 C 0.19351 0.76372 0.3489 0.0
C131 C 0.22964 0.77955 0.13988 0.0
C132 C 0.2428 0.85719 0.10557 0.0
C133 C 0.22545 0.87824 0.45463 0.0
C134 C 0.21035 0.80243 0.49196 0.0
C135 C 0.15755 0.93639 0.33054 0.0
H136 H 0.9832 0.28448 0.79733 0.0
H137 H 0.94408 0.183 1.00032 0.0
H138 H 0.86336 0.11292 0.65025 0.0
H139 H 0.92422 0.18752 0.33927 0.0
H140 H 0.23342 0.74057 1.00879 0.0
H141 H 0.25376 0.87691 0.95252 0.0
H142 H 0.25204 0.90391 0.52737 0.0
H143 H 0.2074 0.77796 0.63222 0.0
Dy144 Dy 0.56776 1.01794 0.98881 0.0
Dy145 Dy 0.58364 0.07844 0.17374 0.0
C146 C 0.56065 0.20048 0.81578 0.0
O147 O 0.67532 1.01933 0.86191 0.0
O148 O 0.6728 1.01857 0.87821 0.0
O149 O 0.58 0.99615 0.67388 0.0
O150 O 0.52636 0.91848 0.90962 0.0
O151 O 0.56711 0.94587 0.26478 0.0
O152 O 0.56432 0.94406 0.26971 0.0
O153 O 0.47776 0.10561 0.3701 0.0
O154 O 0.46271 1.02229 0.16229 0.0
O155 O 0.58169 0.12722 0.45489 0.0
O156 O 0.64448 0.16806 0.16115 0.0
C157 C 0.72432 0.98636 0.87446 0.0
O158 O 0.57315 0.1608 0.95402 0.0
O159 O 0.5749 0.16885 0.95787 0.0
C160 C 0.47944 0.98435 0.74128 0.0
C161 C 0.37783 0.0588 0.76265 0.0
C162 C 0.41814 0.10074 0.81116 0.0
C163 C 0.46913 0.06362 0.79287 0.0
C164 C 0.43376 0.93949 0.73252 0.0
C165 C 0.38314 0.97694 0.73801 0.0
C166 C 0.53355 0.95197 0.74152 0.0
C167 C 0.60159 0.90051 0.32137 0.0
C168 C 0.43614 0.0693 0.32621 0.0
C169 C 0.6769 0.13738 0.392 0.0
C170 C 0.75384 0.06446 0.49694 0.0
C171 C 0.72458 1.02103 0.40185 0.0
C172 C 0.68701 0.05798 0.3447 0.0
C173 C 0.70958 0.18286 0.47213 0.0
C174 C 0.74909 0.14507 0.52808 0.0
C175 C 0.62982 0.16552 0.35854 0.0
H176 H 0.41306 0.1621 0.84657 0.0
H177 H 0.49928 0.09568 0.83311 0.0
H178 H 0.43734 0.87714 0.71884 0.0
H179 H 0.35081 0.94344 0.70451 0.0
H180 H 0.73331 0.95947 0.3654 0.0
H181 H 0.66296 0.02424 0.27402 0.0
H182 H 0.70422 0.24514 0.49188 0.0
H183 H 0.77576 0.17712 0.59297 0.0
Dy184 Dy 0.63952 0.59226 0.12386 0.0
Dy185 Dy 0.51486 0.53658 0.14865 0.0
C186 C 0.58482 0.44627 0.42723 0.0
O187 O 0.6551 0.48182 0.89597 0.0
O188 O 0.58188 0.52225 0.823 0.0
O189 O 0.72747 0.59366 0.12876 0.0
O190 O 0.67442 0.6996 0.20071 0.0
O191 O 0.53002 0.62763 0.89936 0.0
O192 O 0.61647 0.67668 0.89511 0.0
O193 O 0.49305 0.6401 0.38506 0.0
O194 O 0.56754 0.59885 0.44341 0.0
O195 O 0.42357 0.53536 0.17724 0.0
O196 O 0.47665 0.4284 0.11288 0.0
C197 C 0.62354 0.471 0.78292 0.0
O198 O 0.62692 0.4985 0.35941 0.0
O199 O 0.54149 0.44971 0.35608 0.0
C200 C 0.73822 0.68695 0.38353 0.0
C201 C 0.8038 0.69619 0.64098 0.0
C202 C 0.80795 0.75355 0.5031 0.0
C203 C 0.77233 0.75209 0.38856 0.0
C204 C 0.72731 0.63709 0.54151 0.0
C205 C 0.75565 0.64621 0.67857 0.0
C206 C 0.72189 0.66636 0.20102 0.0
C207 C 0.57319 0.67869 0.8209 0.0
C208 C 0.5252 0.64978 0.49276 0.0
C209 C 0.40858 0.43229 0.95494 0.0
C210 C 0.33571 0.36253 0.77655 0.0
C211 C 0.38354 0.32057 0.77969 0.0
C212 C 0.41643 0.3533 0.88515 0.0
C213 C 0.37412 0.47854 0.88855 0.0
C214 C 0.33973 0.44359 0.79246 0.0
C215 C 0.42819 0.4612 0.11963 0.0
H216 H 0.84412 0.79307 0.46033 0.0
H217 H 0.7783 0.7962 0.28134 0.0
H218 H 0.69961 0.58796 0.55173 0.0
H219 H 0.74946 0.60122 0.78104 0.0
H220 H 0.38529 0.25918 0.74579 0.0
H221 H 0.44324 0.3152 0.92952 0.0
H222 H 0.36907 0.5403 0.92836 0.0
H223 H 0.30854 0.47916 0.76772 0.0
Dy224 Dy 0.08836 0.55555 0.79528 0.0
Dy225 Dy 1.00502 0.44822 0.08459 0.0
C226 C 0.09163 0.3754 0.61725 0.0
O227 O 1.00324 0.60092 0.76904 0.0
O228 O 0.95338 0.49683 0.90888 0.0
O229 O 0.13725 0.61244 0.52596 0.0
O230 O 0.16749 0.6148 0.77228 0.0
O231 O 1.02112 0.55126 0.30929 0.0
O232 O 1.04172 0.63931 0.07998 0.0
O233 O 0.08664 0.43312 0.15696 0.0
O234 O 0.1455 0.46264 0.83769 0.0
O235 O 0.91167 0.4348 0.22125 0.0
O236 O 0.96444 0.33543 0.20033 0.0
C237 C 0.95426 0.56098 0.82007 0.0
O238 O 0.099 0.44908 0.57738 0.0
O239 O 1.0625 0.36122 0.81431 0.0
C240 C 0.24023 0.5981 0.42585 0.0
C241 C 0.21622 0.46267 0.25405 0.0
C242 C 0.22658 0.53016 0.14537 0.0
C243 C 0.24716 0.5946 0.21945 0.0
C244 C 0.25363 0.52883 0.48598 0.0
C245 C 0.23276 0.46261 0.42164 0.0
C246 C 0.18117 0.6283 0.57852 0.0
C247 C 1.03276 0.62629 0.27034 0.0
C248 C 0.14016 0.4326 1.00726 0.0
C249 C 0.85777 0.34343 0.46176 0.0
C250 C 0.85163 0.4791 0.67729 0.0
C251 C 0.86245 0.41353 0.76074 0.0
C252 C 0.86432 0.34258 0.6503 0.0
C253 C 0.80896 0.39183 0.49248 0.0
C254 C 0.81126 0.46634 0.57955 0.0
C255 C 0.91022 0.36325 0.26381 0.0
H256 H 0.2228 0.53214 0.99958 0.0
H257 H 0.26365 0.64183 0.12441 0.0
H258 H 0.25924 0.52908 0.62801 0.0
H259 H 0.22909 0.41271 0.50487 0.0
H260 H 0.87141 0.41675 0.89776 0.0
H261 H 0.85721 0.29058 0.73157 0.0
H262 H 0.78821 0.38611 0.38429 0.0
H263 H 0.79371 0.51135 0.52341 0.0
loop_
_geom_bond_atom_site_label_1
_geom_bond_atom_site_label_2
_geom_bond_distance
_geom_bond_site_symmetry_2
_ccdc_geom_bond_type
C0 N1 1.317 . S
C0 N2 1.348 1_554 S
C0 C3 1.485 . S
N1 C0 1.317 . S
N1 N5 1.370 1_554 S
N2 C0 1.348 1_556 S
N2 C4 1.346 . S
C3 C0 1.485 . S
C3 H7 0.960 . S
C3 H8 0.961 . S
C3 H9 0.960 . S
C4 N2 1.346 . S
C4 N5 1.307 . S
C4 C6 1.486 . S
N5 N1 1.370 1_556 S
N5 C4 1.307 . S
C6 C4 1.486 . S
C6 H10 0.960 . S
C6 H11 0.960 . S
C6 H12 0.959 . S
H7 C3 0.960 . S
H8 C3 0.961 . S
H9 C3 0.960 . S
H10 C6 0.960 . S
H11 C6 0.960 . S
H12 C6 0.959 . S
C13 N14 1.317 . S
C13 N15 1.348 . S
C13 C16 1.485 1_556 S
N14 C13 1.317 . S
N14 N18 1.368 . S
N15 C13 1.348 . S
N15 C17 1.346 1_655 S
C16 C13 1.485 1_554 S
C16 H20 0.960 1_655 S
C16 H21 0.961 . S
C16 H22 0.960 . S
C17 N15 1.346 1_455 S
C17 N18 1.311 1_455 S
C17 C19 1.485 . S
N18 N14 1.368 . S
N18 C17 1.311 1_655 S
C19 C17 1.485 . S
C19 H23 0.960 1_455 S
C19 H24 0.960 . S
C19 H25 0.959 . S
H20 C16 0.960 1_455 S
H21 C16 0.961 . S
H22 C16 0.960 . S
H23 C19 0.960 1_655 S
H24 C19 0.960 . S
H25 C19 0.959 . S
C26 N27 1.317 . S
C26 N28 1.348 . S
C26 C29 1.485 . S
N27 C26 1.317 . S
N27 N31 1.373 . S
N28 C26 1.348 . S
N28 C30 1.346 1_565 S
C29 C26 1.485 . S
C29 H33 0.960 1_566 S
C29 H34 0.961 . S
C29 H35 0.960 1_556 S
C30 N28 1.346 1_545 S
C30 N31 1.303 1_545 S
C30 C32 1.488 . S
N31 N27 1.373 . S
N31 C30 1.303 1_565 S
C32 C30 1.488 . S
C32 H36 0.960 1_545 S
C32 H37 0.960 . S
C32 H38 0.959 . S
H33 C29 0.960 1_544 S
H34 C29 0.961 . S
H35 C29 0.960 1_554 S
H36 C32 0.960 1_565 S
H37 C32 0.960 . S
H38 C32 0.959 . S
C39 N40 1.317 . S
C39 N41 1.348 . S
C39 C42 1.485 . S
N40 C39 1.317 . S
N40 N44 1.370 . S
N41 C39 1.348 . S
N41 C43 1.346 . S
C42 C39 1.485 . S
C42 H46 0.960 . S
C42 H47 0.961 . S
C42 H48 0.960 . S
C43 N41 1.346 . S
C43 N44 1.307 . S
C43 C45 1.486 . S
N44 N40 1.370 . S
N44 C43 1.307 . S
C45 C43 1.486 . S
C45 H49 0.960 1_554 S
C45 H50 0.960 . S
C45 H51 0.959 . S
H46 C42 0.960 . S
H47 C42 0.961 . S
H48 C42 0.960 . S
H49 C45 0.960 1_556 S
H50 C45 0.960 . S
H51 C45 0.959 . S
C52 N53 1.317 . S
C52 N54 1.348 1_556 S
C52 C55 1.485 . S
N53 C52 1.317 . S
N53 N57 1.370 1_556 S
N54 C52 1.348 1_554 S
N54 C56 1.346 . S
C55 C52 1.485 . S
C55 H59 0.960 . S
C55 H60 0.961 . S
C55 H61 0.960 . S
C56 N54 1.346 . S
C56 N57 1.307 . S
C56 C58 1.486 . S
N57 N53 1.370 1_554 S
N57 C56 1.307 . S
C58 C56 1.486 . S
C58 H62 0.960 . S
C58 H63 0.960 . S
C58 H64 0.959 . S
H59 C55 0.960 . S
H60 C55 0.961 . S
H61 C55 0.960 . S
H62 C58 0.960 . S
H63 C58 0.960 . S
H64 C58 0.959 . S
C65 N66 1.317 . S
C65 N67 1.348 . S
C65 C68 1.485 1_554 S
N66 C65 1.317 . S
N66 N70 1.373 . S
N67 C65 1.348 . S
N67 C69 1.345 1_655 S
C68 C65 1.485 1_556 S
C68 H72 0.960 1_655 S
C68 H73 0.961 . S
C68 H74 0.960 . S
C69 N67 1.345 1_455 S
C69 N70 1.302 1_455 S
C69 C71 1.490 . S
N70 N66 1.373 . S
N70 C69 1.302 1_655 S
C71 C69 1.490 . S
C71 H75 0.960 1_455 S
C71 H76 0.960 . S
C71 H77 0.959 . S
H72 C68 0.960 1_455 S
H73 C68 0.961 . S
H74 C68 0.960 . S
H75 C71 0.960 1_655 S
H76 C71 0.960 . S
H77 C71 0.959 . S
C78 N79 1.317 . S
C78 N80 1.348 . S
C78 C81 1.485 . S
N79 C78 1.317 . S
N79 N83 1.369 . S
N80 C78 1.348 . S
N80 C82 1.346 1_565 S
C81 C78 1.485 . S
C81 H85 0.960 1_565 S
C81 H86 0.961 . S
C81 H87 0.960 1_554 S
C82 N80 1.346 1_545 S
C82 N83 1.311 1_545 S
C82 C84 1.484 . S
N83 N79 1.369 . S
N83 C82 1.311 1_565 S
C84 C82 1.484 . S
C84 H88 0.960 1_545 S
C84 H89 0.960 . S
C84 H90 0.959 . S
H85 C81 0.960 1_545 S
H86 C81 0.961 . S
H87 C81 0.960 1_556 S
H88 C84 0.960 1_565 S
H89 C84 0.960 . S
H90 C84 0.959 . S
C91 N92 1.317 . S
C91 N93 1.348 . S
C91 C94 1.485 . S
N92 C91 1.317 . S
N92 N96 1.370 . S
N93 C91 1.348 . S
N93 C95 1.346 . S
C94 C91 1.485 . S
C94 H98 0.960 . S
C94 H99 0.961 . S
C94 H100 0.960 . S
C95 N93 1.346 . S
C95 N96 1.307 . S
C95 C97 1.486 . S
N96 N92 1.370 . S
N96 C95 1.307 . S
C97 C95 1.486 . S
C97 H101 0.960 . S
C97 H102 0.960 . S
C97 H103 0.959 . S
H98 C94 0.960 . S
H99 C94 0.961 . S
H100 C94 0.960 . S
H101 C97 0.960 . S
H102 C97 0.960 . S
H103 C97 0.959 . S
Dy104 O107 2.307 1_545 S
Dy104 O109 2.395 1_655 S
Dy104 O110 2.379 . S
Dy104 O112 2.339 1_556 S
Dy104 O114 2.298 1_556 S
Dy104 O118 2.273 1_645 S
Dy104 C126 2.738 . S
Dy105 O108 2.298 1_554 S
Dy105 O111 2.275 1_465 S
Dy105 O113 2.307 1_565 S
Dy105 O115 2.395 1_455 S
Dy105 O116 2.379 . S
Dy105 O119 2.339 1_554 S
Dy105 C135 2.738 . S
C106 O118 1.255 . S
C106 O119 1.257 . S
O107 Dy104 2.307 1_565 S
O107 C117 1.266 . S
O108 Dy105 2.298 1_556 S
O108 C117 1.236 1_455 S
O109 Dy104 2.395 1_455 S
O109 C126 1.255 1_455 S
O110 Dy104 2.379 . S
O110 C126 1.249 . S
O111 Dy105 2.275 1_645 S
O111 C127 1.254 . S
O112 Dy104 2.339 1_554 S
O112 C127 1.257 . S
O113 Dy105 2.307 1_545 S
O113 C128 1.266 . S
O114 Dy104 2.298 1_554 S
O114 C128 1.236 1_655 S
O115 Dy105 2.395 1_655 S
O115 C135 1.255 1_655 S
O116 Dy105 2.379 . S
O116 C135 1.249 . S
C117 O107 1.266 . S
C117 O108 1.236 1_655 S
O118 Dy104 2.273 1_465 S
O118 C106 1.255 . S
O119 Dy105 2.339 1_556 S
O119 C106 1.257 . S
C120 C123 1.344 1_655 S
C120 C124 1.328 . S
C120 C126 1.516 . S
C121 C122 1.290 1_655 S
C121 C125 1.323 . S
C122 C121 1.290 1_455 S
C122 C123 1.373 . S
C122 H136 0.943 . S
C123 C120 1.344 1_455 S
C123 C122 1.373 . S
C123 H137 0.931 . S
C124 C120 1.328 . S
C124 C125 1.433 . S
C124 H138 0.931 . S
C125 C121 1.323 . S
C125 C124 1.433 . S
C125 H139 0.933 . S
C126 Dy104 2.738 . S
C126 O109 1.255 1_655 S
C126 O110 1.249 . S
C126 C120 1.516 . S
C127 O111 1.254 . S
C127 O112 1.257 . S
C128 O113 1.266 . S
C128 O114 1.236 1_455 S
C129 C132 1.344 1_455 S
C129 C133 1.328 . S
C129 C135 1.516 . S
C130 C131 1.295 1_455 S
C130 C134 1.323 . S
C131 C130 1.295 1_655 S
C131 C132 1.372 . S
C131 H140 0.939 . S
C132 C129 1.344 1_655 S
C132 C131 1.372 . S
C132 H141 0.931 . S
C133 C129 1.328 . S
C133 C134 1.433 . S
C133 H142 0.931 . S
C134 C130 1.323 . S
C134 C133 1.433 . S
C134 H143 0.933 . S
C135 Dy105 2.738 . S
C135 O115 1.255 1_455 S
C135 O116 1.249 . S
C135 C129 1.516 . S
H136 C122 0.943 . S
H137 C123 0.931 . S
H138 C124 0.931 . S
H139 C125 0.933 . S
H140 C131 0.939 . S
H141 C132 0.931 . S
H142 C133 0.931 . S
H143 C134 0.933 . S
Dy144 O147 2.307 . S
Dy144 O149 2.395 . S
Dy144 O150 2.379 . S
Dy144 O152 2.339 . S
Dy144 O154 2.298 1_556 S
Dy144 O158 2.275 1_565 S
Dy144 C166 2.738 . S
Dy145 O148 2.298 1_554 S
Dy145 O151 2.275 1_545 S
Dy145 O153 2.307 . S
Dy145 O155 2.395 . S
Dy145 O156 2.379 . S
Dy145 O159 2.339 . S
Dy145 C175 2.738 . S
C146 O158 1.254 . S
C146 O159 1.257 1_556 S
O147 Dy144 2.307 . S
O147 C157 1.266 . S
O148 Dy145 2.298 1_556 S
O148 C157 1.236 1_545 S
O149 Dy144 2.395 . S
O149 C166 1.255 . S
O150 Dy144 2.379 . S
O150 C166 1.249 . S
O151 Dy145 2.275 1_565 S
O151 C167 1.254 . S
O152 Dy144 2.339 . S
O152 C167 1.257 1_556 S
O153 Dy145 2.307 . S
O153 C168 1.266 . S
O154 Dy144 2.298 1_554 S
O154 C168 1.236 1_565 S
O155 Dy145 2.395 . S
O155 C175 1.255 . S
O156 Dy145 2.379 . S
O156 C175 1.249 . S
C157 O147 1.266 . S
C157 O148 1.236 1_565 S
O158 Dy144 2.275 1_545 S
O158 C146 1.254 . S
O159 Dy145 2.339 . S
O159 C146 1.257 1_554 S
C160 C163 1.344 . S
C160 C164 1.328 . S
C160 C166 1.516 . S
C161 C162 1.304 . S
C161 C165 1.323 . S
C162 C161 1.304 . S
C162 C163 1.371 . S
C162 H176 0.930 . S
C163 C160 1.344 . S
C163 C162 1.371 . S
C163 H177 0.931 1_565 S
C164 C160 1.328 . S
C164 C165 1.433 . S
C164 H178 0.931 . S
C165 C161 1.323 . S
C165 C164 1.433 . S
C165 H179 0.933 . S
C166 Dy144 2.738 . S
C166 O149 1.255 . S
C166 O150 1.249 . S
C166 C160 1.516 . S
C167 O151 1.254 . S
C167 O152 1.257 1_554 S
C168 O153 1.266 . S
C168 O154 1.236 1_545 S
C169 C172 1.344 . S
C169 C173 1.328 . S
C169 C175 1.516 . S
C170 C171 1.304 . S
C170 C174 1.323 . S
C171 C170 1.304 . S
C171 C172 1.371 . S
C171 H180 0.930 . S
C172 C169 1.344 . S
C172 C171 1.371 . S
C172 H181 0.931 1_545 S
C173 C169 1.328 . S
C173 C174 1.433 . S
C173 H182 0.931 . S
C174 C170 1.323 . S
C174 C173 1.433 . S
C174 H183 0.933 . S
C175 Dy145 2.738 . S
C175 O155 1.255 . S
C175 O156 1.249 . S
C175 C169 1.516 . S
H176 C162 0.930 . S
H177 C163 0.931 1_545 S
H178 C164 0.931 . S
H179 C165 0.933 . S
H180 C171 0.930 . S
H181 C172 0.931 1_565 S
H182 C173 0.931 . S
H183 C174 0.933 . S
Dy184 O187 2.307 . S
Dy184 O189 2.395 1_556 S
Dy184 O190 2.379 1_556 S
Dy184 O192 2.339 . S
Dy184 O194 2.298 1_556 S
Dy184 O198 2.275 1_556 S
Dy184 C206 2.738 1_556 S
Dy185 O188 2.298 1_554 S
Dy185 O191 2.275 1_554 S
Dy185 O193 2.307 . S
Dy185 O195 2.395 1_554 S
Dy185 O196 2.379 1_554 S
Dy185 O199 2.339 . S
Dy185 C215 2.738 1_554 S
C186 O198 1.254 . S
C186 O199 1.257 . S
O187 Dy184 2.307 . S
O187 C197 1.266 . S
O188 Dy185 2.298 1_556 S
O188 C197 1.236 . S
O189 Dy184 2.395 1_554 S
O189 C206 1.255 . S
O190 Dy184 2.379 1_554 S
O190 C206 1.249 . S
O191 Dy185 2.275 1_556 S
O191 C207 1.254 . S
O192 Dy184 2.339 . S
O192 C207 1.257 . S
O193 Dy185 2.307 . S
O193 C208 1.266 . S
O194 Dy184 2.298 1_554 S
O194 C208 1.236 . S
O195 Dy185 2.395 1_556 S
O195 C215 1.255 . S
O196 Dy185 2.379 1_556 S
O196 C215 1.249 . S
C197 O187 1.266 . S
C197 O188 1.236 . S
O198 Dy184 2.275 1_554 S
O198 C186 1.254 . S
O199 Dy185 2.339 . S
O199 C186 1.257 . S
C200 C203 1.344 . S
C200 C204 1.328 . S
C200 C206 1.516 . S
C201 C202 1.304 . S
C201 C205 1.323 . S
C202 C201 1.304 . S
C202 C203 1.371 . S
C202 H216 0.930 . S
C203 C200 1.344 . S
C203 C202 1.371 . S
C203 H217 0.931 . S
C204 C200 1.328 . S
C204 C205 1.433 . S
C204 H218 0.931 . S
C205 C201 1.323 . S
C205 C204 1.433 . S
C205 H219 0.933 . S
C206 Dy184 2.738 1_554 S
C206 O189 1.255 . S
C206 O190 1.249 . S
C206 C200 1.516 . S
C207 O191 1.254 . S
C207 O192 1.257 . S
C208 O193 1.266 . S
C208 O194 1.236 . S
C209 C212 1.344 . S
C209 C213 1.328 . S
C209 C215 1.516 . S
C210 C211 1.304 . S
C210 C214 1.323 . S
C211 C210 1.304 . S
C211 C212 1.371 . S
C211 H220 0.930 . S
C212 C209 1.344 . S
C212 C211 1.371 . S
C212 H221 0.931 . S
C213 C209 1.328 . S
C213 C214 1.433 . S
C213 H222 0.931 . S
C214 C210 1.323 . S
C214 C213 1.433 . S
C214 H223 0.933 . S
C215 Dy185 2.738 1_556 S
C215 O195 1.255 . S
C215 O196 1.249 . S
C215 C209 1.516 . S
H216 C202 0.930 . S
H217 C203 0.931 . S
H218 C204 0.931 . S
H219 C205 0.933 . S
H220 C211 0.930 . S
H221 C212 0.931 . S
H222 C213 0.931 . S
H223 C214 0.933 . S
Dy224 O227 2.307 1_455 S
Dy224 O229 2.395 . S
Dy224 O230 2.379 . S
Dy224 O232 2.339 1_556 S
Dy224 O234 2.298 . S
Dy224 O238 2.275 . S
Dy224 C246 2.738 . S
Dy225 O228 2.298 . S
Dy225 O231 2.275 . S
Dy225 O233 2.307 1_655 S
Dy225 O235 2.395 . S
Dy225 O236 2.379 . S
Dy225 O239 2.339 1_554 S
Dy225 C255 2.738 . S
C226 O238 1.254 . S
C226 O239 1.257 1_455 S
O227 Dy224 2.307 1_655 S
O227 C237 1.266 1_556 S
O228 Dy225 2.298 . S
O228 C237 1.236 . S
O229 Dy224 2.395 . S
O229 C246 1.255 . S
O230 Dy224 2.379 . S
O230 C246 1.249 . S
O231 Dy225 2.275 . S
O231 C247 1.254 . S
O232 Dy224 2.339 1_554 S
O232 C247 1.257 1_455 S
O233 Dy225 2.307 1_455 S
O233 C248 1.266 1_554 S
O234 Dy224 2.298 . S
O234 C248 1.236 . S
O235 Dy225 2.395 . S
O235 C255 1.255 . S
O236 Dy225 2.379 . S
O236 C255 1.249 . S
C237 O227 1.266 1_554 S
C237 O228 1.236 . S
O238 Dy224 2.275 . S
O238 C226 1.254 . S
O239 Dy225 2.339 1_556 S
O239 C226 1.257 1_655 S
C240 C243 1.344 . S
C240 C244 1.328 . S
C240 C246 1.516 . S
C241 C242 1.304 . S
C241 C245 1.323 . S
C242 C241 1.304 . S
C242 C243 1.371 . S
C242 H256 0.930 . S
C243 C240 1.344 . S
C243 C242 1.371 . S
C243 H257 0.931 . S
C244 C240 1.328 . S
C244 C245 1.433 . S
C244 H258 0.931 . S
C245 C241 1.323 . S
C245 C244 1.433 . S
C245 H259 0.933 . S
C246 Dy224 2.738 . S
C246 O229 1.255 . S
C246 O230 1.249 . S
C246 C240 1.516 . S
C247 O231 1.254 . S
C247 O232 1.257 1_655 S
C248 O233 1.266 1_556 S
C248 O234 1.236 . S
C249 C252 1.344 . S
C249 C253 1.328 . S
C249 C255 1.516 . S
C250 C251 1.304 . S
C250 C254 1.323 . S
C251 C250 1.304 . S
C251 C252 1.371 . S
C251 H260 0.930 . S
C252 C249 1.344 . S
C252 C251 1.371 . S
C252 H261 0.931 . S
C253 C249 1.328 . S
C253 C254 1.433 . S
C253 H262 0.931 . S
C254 C250 1.323 . S
C254 C253 1.433 . S
C254 H263 0.933 . S
C255 Dy225 2.738 . S
C255 O235 1.255 . S
C255 O236 1.249 . S
C255 C249 1.516 . S
H256 C242 0.930 . S
H257 C243 0.931 . S
H258 C244 0.931 . S
H259 C245 0.933 . S
H260 C251 0.930 . S
H261 C252 0.931 . S
H262 C253 0.931 . S
H263 C254 0.933 . S
N80 C106 3.462 . S
C146 N93 3.011 . S
C210 N54 3.325 . S
C226 N67 3.327 1_455 S
C127 N28 3.470 1_545 S
N41 C167 3.021 . S
N2 C201 3.329 . S
N15 C247 3.325 . S
C121 N70 1.284 . S
C161 N83 2.155 . S
C197 N96 1.481 . S
N57 C241 3.011 . S
N18 C130 1.291 1_655 S
C170 N31 2.163 1_545 S
C208 N44 1.492 . S
N5 C250 3.032 . S
N66 C128 3.166 1_655 S
N79 C168 3.802 1_565 S
C186 N92 2.860 . S
C248 N53 4.016 . S
N14 C117 3.165 . S
C157 N27 3.782 . S
C207 N40 2.838 . S
N1 C237 4.005 . S
