# Generated by pormake.
# Topology wbl, (4,4)-cn, num edge types: 1
# Building blocks:
#     Node 0, Type 0, BuildingBlock: MIFKUJ_clean_linker_1, # of connection points: 4
#     Node 1, Type 0, BuildingBlock: MIFKUJ_clean_linker_1, # of connection points: 4
#     Node 2, Type 0, BuildingBlock: MIFKUJ_clean_linker_1, # of connection points: 4
#     Node 3, Type 0, BuildingBlock: MIFKUJ_clean_linker_1, # of connection points: 4
#     Node 4, Type 0, BuildingBlock: MIFKUJ_clean_linker_1, # of connection points: 4
#     Node 5, Type 0, BuildingBlock: MIFKUJ_clean_linker_1, # of connection points: 4
#     Node 6, Type 0, BuildingBlock: MIFKUJ_clean_linker_1, # of connection points: 4
#     Node 7, Type 0, BuildingBlock: MIFKUJ_clean_linker_1, # of connection points: 4
#     Node 8, Type 1, BuildingBlock: GALJAG_clean_sbu_0, # of connection points: 4
#     Node 9, Type 1, BuildingBlock: GALJAG_clean_sbu_0, # of connection points: 4
#     Node 10, Type 1, BuildingBlock: GALJAG_clean_sbu_0, # of connection points: 4
#     Node 11, Type 1, BuildingBlock: GALJAG_clean_sbu_0, # of connection points: 4
#     Node 12, Type 1, BuildingBlock: GALJAG_clean_sbu_0, # of connection points: 4
#     Node 13, Type 1, BuildingBlock: GALJAG_clean_sbu_0, # of connection points: 4
#     Node 14, Type 1, BuildingBlock: GALJAG_clean_sbu_0, # of connection points: 4
#     Node 15, Type 1, BuildingBlock: GALJAG_clean_sbu_0, # of connection points: 4
#     Edge 16, Type (0, 1), None
#     Edge 17, Type (0, 1), None
#     Edge 18, Type (0, 1), None
#     Edge 19, Type (0, 1), None
#     Edge 20, Type (0, 1), None
#     Edge 21, Type (0, 1), None
#     Edge 22, Type (0, 1), None
#     Edge 23, Type (0, 1), None
#     Edge 24, Type (0, 1), None
#     Edge 25, Type (0, 1), None
#     Edge 26, Type (0, 1), None
#     Edge 27, Type (0, 1), None
#     Edge 28, Type (0, 1), None
#     Edge 29, Type (0, 1), None
#     Edge 30, Type (0, 1), None
#     Edge 31, Type (0, 1), None
#     Edge 32, Type (0, 1), None
#     Edge 33, Type (0, 1), None
#     Edge 34, Type (0, 1), None
#     Edge 35, Type (0, 1), None
#     Edge 36, Type (0, 1), None
#     Edge 37, Type (0, 1), None
#     Edge 38, Type (0, 1), None
#     Edge 39, Type (0, 1), None
#     Edge 40, Type (0, 1), None
#     Edge 41, Type (0, 1), None
#     Edge 42, Type (0, 1), None
#     Edge 43, Type (0, 1), None
#     Edge 44, Type (0, 1), None
#     Edge 45, Type (0, 1), None
#     Edge 46, Type (0, 1), None
#     Edge 47, Type (0, 1), None
# Relax obj value: 0.140
# Max RMSD: 0.144
# Mean RMSD: 0.131
data_MOF--net-wbl--node1-GALJAG_clean_sbu_0--node2-MIFKUJ_clean_linker_1--edge1-none
_symmetry_space_group_name_H-M    P1
_symmetry_Int_Tables_number       1
_symmetry_cell_setting            triclinic
loop_
_symmetry_equiv_pos_as_xyz
'x, y, z'
_cell_length_a     24.441016
_cell_length_b     24.455476
_cell_length_c     43.818926
_cell_angle_alpha  90.301094
_cell_angle_beta   90.097159
_cell_angle_gamma 90.003058
loop_
_atom_site_label
_atom_site_type_symbol
_atom_site_fract_x
_atom_site_fract_y
_atom_site_fract_z
_atom_type_partial_charge
H0 H 0.01129 0.11054 0.41107 0.0
H1 H 0.96442 0.15787 0.45261 0.0
H2 H 0.80871 0.10453 0.41661 0.0
H3 H 0.85612 0.05445 0.37564 0.0
H4 H 0.00352 0.00252 0.4098 0.0
H5 H 0.94236 0.1505 0.34251 0.0
H6 H 0.8672 0.20036 0.31788 0.0
H7 H 0.82369 0.05392 0.26786 0.0
H8 H 0.89528 0.00391 0.29372 0.0
H9 H 0.04561 0.85367 0.33395 0.0
H10 H 0.1186 0.80269 0.30809 0.0
H11 H 0.1776 0.95347 0.26907 0.0
H12 H 0.10716 0.00414 0.29634 0.0
H13 H -0.0034 0.00232 0.29691 0.0
H14 H 0.01904 0.85979 0.38532 0.0
H15 H 0.06717 0.81109 0.42611 0.0
H16 H 0.17323 0.95032 0.43915 0.0
H17 H 0.12768 -0.00273 0.39684 0.0
C18 C 0.93726 0.07877 0.39028 0.0
C19 C 0.96697 0.10979 0.41172 0.0
C20 C 0.94026 0.13669 0.43549 0.0
C21 C 0.88319 0.1343 0.43786 0.0
C22 C 0.85288 0.107 0.41512 0.0
C23 C 0.87984 0.07867 0.39165 0.0
C24 C 0.96753 0.04015 0.37028 0.0
C25 C 0.00176 0.00269 0.38502 0.0
C26 C 0.96396 0.03912 0.338 0.0
C27 C 0.92374 0.07278 0.32073 0.0
C28 C 0.91636 0.12907 0.32639 0.0
C29 C 0.87393 0.15783 0.31198 0.0
C30 C 0.83937 0.13107 0.29103 0.0
C31 C 0.8495 0.07593 0.28386 0.0
C32 C 0.89071 0.04711 0.29869 0.0
C33 C 0.07228 0.93308 0.31817 0.0
C34 C 0.07481 0.87578 0.32025 0.0
C35 C 0.11585 0.8465 0.30494 0.0
C36 C 0.15409 0.87405 0.28671 0.0
C37 C 0.14885 0.9309 0.28296 0.0
C38 C 0.10861 0.96006 0.29863 0.0
C39 C 0.0332 0.96588 0.33662 0.0
C40 C -0.00238 0.0023 0.32166 0.0
C41 C 0.03438 0.96578 0.36882 0.0
C42 C 0.07127 0.93121 0.3872 0.0
C43 C 0.05479 0.87843 0.39565 0.0
C44 C 0.08168 0.85105 0.41926 0.0
C45 C 0.12347 0.87731 0.43569 0.0
C46 C 0.14098 0.92942 0.42673 0.0
C47 C 0.11547 0.95592 0.40241 0.0
H48 H -0.00439 0.39327 0.54256 0.0
H49 H 0.94388 0.32297 0.51611 0.0
H50 H 0.79757 0.37195 0.56422 0.0
H51 H 0.84926 0.44545 0.58949 0.0
H52 H -0.00051 0.49557 0.5461 0.0
H53 H 0.94078 0.35545 0.62369 0.0
H54 H 0.88752 0.31009 0.66394 0.0
H55 H 0.83978 0.46768 0.69974 0.0
H56 H 0.88982 0.51264 0.65882 0.0
H57 H -0.00069 0.62504 0.64636 0.0
H58 H 0.04374 0.67229 0.68921 0.0
H59 H 0.18664 0.57074 0.67781 0.0
H60 H 0.14048 0.52079 0.63647 0.0
H61 H -0.00313 0.5014 0.659 0.0
H62 H -0.00475 0.60518 0.54625 0.0
H63 H 0.04407 0.67766 0.52013 0.0
H64 H 0.19601 0.62333 0.56043 0.0
H65 H 0.14691 0.54811 0.58516 0.0
C66 C 0.92696 0.424 0.56875 0.0
C67 C 0.95212 0.3901 0.54698 0.0
C68 C 0.92233 0.34972 0.53178 0.0
C69 C 0.86666 0.34147 0.5383 0.0
C70 C 0.84047 0.3772 0.55882 0.0
C71 C 0.87025 0.41866 0.57362 0.0
C72 C 0.96137 0.46304 0.58661 0.0
C73 C -0.00099 0.49635 0.57085 0.0
C74 C 0.95965 0.46633 0.61889 0.0
C75 C 0.91935 0.43746 0.63827 0.0
C76 C 0.91708 0.38009 0.63946 0.0
C77 C 0.88695 0.3543 0.66249 0.0
C78 C 0.86038 0.38572 0.68497 0.0
C79 C 0.86038 0.44277 0.68277 0.0
C80 C 0.88885 0.46835 0.65937 0.0
C81 C 0.06735 0.57068 0.63752 0.0
C82 C 0.0409 0.61417 0.65243 0.0
C83 C 0.06597 0.64067 0.67704 0.0
C84 C 0.11842 0.62496 0.68659 0.0
C85 C 0.14639 0.58388 0.6705 0.0
C86 C 0.12043 0.55595 0.64659 0.0
C87 C 0.03436 0.53284 0.6186 0.0
C88 C -0.0027 0.49984 0.63422 0.0
C89 C 0.03493 0.53199 0.5864 0.0
C90 C 0.067 0.57224 0.56856 0.0
C91 C 0.03922 0.60804 0.54906 0.0
C92 C 0.06734 0.64954 0.53409 0.0
C93 C 0.1239 0.65666 0.53853 0.0
C94 C 0.15237 0.61912 0.5568 0.0
C95 C 0.12415 0.57677 0.5714 0.0
H96 H 0.50856 0.6019 0.91032 0.0
H97 H 0.4638 0.65107 0.95194 0.0
H98 H 0.30598 0.60301 0.91654 0.0
H99 H 0.35114 0.55098 0.87555 0.0
H100 H 0.49792 0.49481 0.90917 0.0
H101 H 0.44013 0.6434 0.84184 0.0
H102 H 0.36665 0.69597 0.81739 0.0
H103 H 0.31671 0.55092 0.768 0.0
H104 H 0.38657 0.4983 0.79374 0.0
H105 H 0.5433 0.34416 0.83792 0.0
H106 H 0.61664 0.2934 0.81233 0.0
H107 H 0.66011 0.43916 0.76272 0.0
H108 H 0.59077 0.49053 0.79021 0.0
H109 H 0.4875 0.49257 0.79639 0.0
H110 H 0.50743 0.35392 0.88869 0.0
H111 H 0.55641 0.30727 0.92999 0.0
H112 H 0.67098 0.44115 0.93505 0.0
H113 H 0.6244 0.48578 0.89223 0.0
C114 C 0.43326 0.57252 0.88984 0.0
C115 C 0.46425 0.60268 0.91111 0.0
C116 C 0.43875 0.63066 0.93492 0.0
C117 C 0.38166 0.63032 0.93748 0.0
C118 C 0.35019 0.60394 0.91489 0.0
C119 C 0.37588 0.57447 0.89141 0.0
C120 C 0.46194 0.53275 0.86977 0.0
C121 C 0.4955 0.49459 0.8844 0.0
C122 C 0.45747 0.53125 0.83753 0.0
C123 C 0.41815 0.56624 0.8204 0.0
C124 C 0.41305 0.62284 0.82593 0.0
C125 C 0.37158 0.65314 0.81162 0.0
C126 C 0.33578 0.62762 0.79085 0.0
C127 C 0.34358 0.57202 0.78384 0.0
C128 C 0.38379 0.5417 0.7986 0.0
C129 C 0.56295 0.42204 0.81723 0.0
C130 C 0.56936 0.36553 0.82209 0.0
C131 C 0.61046 0.33611 0.80689 0.0
C132 C 0.6443 0.36227 0.78563 0.0
C133 C 0.63464 0.4176 0.7789 0.0
C134 C 0.5949 0.44721 0.79472 0.0
C135 C 0.52494 0.45612 0.83592 0.0
C136 C 0.48953 0.49305 0.82112 0.0
C137 C 0.52689 0.45669 0.86815 0.0
C138 C 0.56367 0.42216 0.88657 0.0
C139 C 0.54498 0.3716 0.89745 0.0
C140 C 0.57244 0.3454 0.92125 0.0
C141 C 0.61709 0.37096 0.93549 0.0
C142 C 0.63663 0.4208 0.9242 0.0
C143 C 0.6105 0.44591 0.89962 0.0
H144 H 0.49832 0.88902 0.04373 0.0
H145 H 0.44678 0.81844 0.01729 0.0
H146 H 0.29987 0.86848 0.06448 0.0
H147 H 0.35145 0.94191 0.08986 0.0
H148 H 0.50144 0.99227 0.04683 0.0
H149 H 0.44427 0.85185 0.12484 0.0
H150 H 0.3915 0.80633 0.1652 0.0
H151 H 0.34056 0.96377 0.19989 0.0
H152 H 0.39053 0.00877 0.15897 0.0
H153 H 0.50059 0.12159 0.14752 0.0
H154 H 0.54509 0.16858 0.19044 0.0
H155 H 0.68843 0.06792 0.17839 0.0
H156 H 0.64222 0.01817 0.13697 0.0
H157 H 0.49848 -0.00184 0.15973 0.0
H158 H 0.49545 0.10163 0.04702 0.0
H159 H 0.54275 0.17526 0.02105 0.0
H160 H 0.69574 0.12403 0.06137 0.0
H161 H 0.64823 0.04763 0.08594 0.0
C162 C 0.42936 0.92015 0.06949 0.0
C163 C 0.45477 0.88593 0.04797 0.0
C164 C 0.42509 0.8454 0.03279 0.0
C165 C 0.36925 0.83747 0.03899 0.0
C166 C 0.34288 0.87348 0.05929 0.0
C167 C 0.37259 0.91494 0.07415 0.0
C168 C 0.46352 0.95946 0.08732 0.0
C169 C 0.50093 0.99308 0.07158 0.0
C170 C 0.46164 0.96284 0.11959 0.0
C171 C 0.42144 0.93372 0.13893 0.0
C172 C 0.42003 0.87637 0.14041 0.0
C173 C 0.39015 0.8505 0.16352 0.0
C174 C 0.36279 0.88183 0.18576 0.0
C175 C 0.3618 0.93885 0.18316 0.0
C176 C 0.39021 0.96448 0.15975 0.0
C177 C 0.56884 0.06767 0.13834 0.0
C178 C 0.54227 0.11085 0.15347 0.0
C179 C 0.56738 0.13719 0.17812 0.0
C180 C 0.61998 0.12166 0.1875 0.0
C181 C 0.64805 0.08091 0.17121 0.0
C182 C 0.62206 0.0531 0.14726 0.0
C183 C 0.53591 0.02986 0.11936 0.0
C184 C 0.49901 -0.00339 0.13494 0.0
C185 C 0.53648 0.02913 0.08714 0.0
C186 C 0.56782 0.07006 0.06933 0.0
C187 C 0.53935 0.10539 0.04986 0.0
C188 C 0.56659 0.14759 0.03499 0.0
C189 C 0.62299 0.15593 0.03947 0.0
C190 C 0.65221 0.1189 0.0577 0.0
C191 C 0.62487 0.07585 0.07222 0.0
H192 H 0.01824 0.63618 0.89787 0.0
H193 H 0.06601 0.68538 0.85723 0.0
H194 H 0.16726 0.54374 0.84093 0.0
H195 H 0.12218 0.49615 0.8831 0.0
H196 H -0.00394 0.49491 0.87248 0.0
H197 H 0.04548 0.64076 0.94892 0.0
H198 H 0.11926 0.69079 0.97481 0.0
H199 H 0.17962 0.53852 0.01142 0.0
H200 H 0.10824 0.48886 0.98412 0.0
H201 H 0.94201 0.34721 0.94511 0.0
H202 H 0.8664 0.29856 0.96981 0.0
H203 H 0.81317 0.45058 0.01079 0.0
H204 H 0.88623 0.49897 0.98479 0.0
H205 H -0.00387 0.49304 0.98555 0.0
H206 H 0.97258 0.35371 0.89367 0.0
H207 H 0.9221 0.30792 0.85239 0.0
H208 H 0.81993 0.4507 0.84258 0.0
H209 H 0.86823 0.4949 0.88512 0.0
C210 C 0.06828 0.56338 0.8944 0.0
C211 C 0.05294 0.61697 0.88684 0.0
C212 C 0.07957 0.64468 0.8633 0.0
C213 C 0.11991 0.61804 0.84603 0.0
C214 C 0.13614 0.56497 0.854 0.0
C215 C 0.11091 0.53806 0.87823 0.0
C216 C 0.03162 0.52932 0.91314 0.0
C217 C -0.00384 0.49442 0.89727 0.0
C218 C 0.03218 0.52879 0.94541 0.0
C219 C 0.07269 0.56074 0.96346 0.0
C220 C 0.07522 0.61812 0.96203 0.0
C221 C 0.11672 0.64683 0.97737 0.0
C222 C 0.15546 0.61864 0.99502 0.0
C223 C 0.15048 0.5616 0.998 0.0
C224 C 0.10974 0.53301 0.9823 0.0
C225 C 0.91859 0.42716 0.96212 0.0
C226 C 0.91349 0.37011 0.959 0.0
C227 C 0.8709 0.34214 0.97359 0.0
C228 C 0.83362 0.37072 0.99209 0.0
C229 C 0.84111 0.42722 0.99666 0.0
C230 C 0.8829 0.45509 0.98175 0.0
C231 C 0.9599 0.45878 0.94475 0.0
C232 C -0.00385 0.49341 0.96079 0.0
C233 C 0.96049 0.45924 0.9125 0.0
C234 C 0.92277 0.42686 0.8932 0.0
C235 C 0.93739 0.3739 0.88376 0.0
C236 C 0.90905 0.3481 0.85994 0.0
C237 C 0.86747 0.37603 0.84434 0.0
C238 C 0.85194 0.42842 0.8543 0.0
C239 C 0.87907 0.45344 0.87873 0.0
H240 H 0.49458 0.60225 0.24107 0.0
H241 H 0.44269 0.67248 0.26734 0.0
H242 H 0.29685 0.62406 0.21833 0.0
H243 H 0.34868 0.5506 0.19323 0.0
H244 H 0.49842 0.50014 0.23742 0.0
H245 H 0.44148 0.64056 0.15928 0.0
H246 H 0.38946 0.68605 0.11851 0.0
H247 H 0.34006 0.52857 0.0831 0.0
H248 H 0.38921 0.48358 0.12443 0.0
H249 H 0.5007 0.3702 0.1379 0.0
H250 H 0.54519 0.32366 0.09492 0.0
H251 H 0.68619 0.42821 0.10543 0.0
H252 H 0.6399 0.47739 0.14697 0.0
H253 H 0.49707 0.49485 0.1245 0.0
H254 H 0.49521 0.39145 0.23786 0.0
H255 H 0.54414 0.31885 0.26389 0.0
H256 H 0.69558 0.37211 0.22287 0.0
H257 H 0.64646 0.4475 0.19825 0.0
C258 C 0.42616 0.57179 0.21445 0.0
C259 C 0.45115 0.60552 0.23641 0.0
C260 C 0.42127 0.64587 0.2515 0.0
C261 C 0.3657 0.65425 0.24469 0.0
C262 C 0.33967 0.61869 0.22396 0.0
C263 C 0.36954 0.57726 0.20925 0.0
C264 C 0.4607 0.53278 0.19674 0.0
C265 C 0.49822 0.49946 0.21266 0.0
C266 C 0.45933 0.52964 0.16445 0.0
C267 C 0.41931 0.55866 0.14487 0.0
C268 C 0.41768 0.61602 0.14346 0.0
C269 C 0.38824 0.64188 0.12013 0.0
C270 C 0.36157 0.61053 0.09758 0.0
C271 C 0.36075 0.5535 0.10008 0.0
C272 C 0.38869 0.52787 0.12372 0.0
C273 C 0.56777 0.42604 0.14628 0.0
C274 C 0.54193 0.38187 0.13163 0.0
C275 C 0.56702 0.35578 0.10696 0.0
C276 C 0.61888 0.3726 0.09711 0.0
C277 C 0.6464 0.41428 0.11299 0.0
C278 C 0.62037 0.44179 0.13697 0.0
C279 C 0.53432 0.46348 0.16507 0.0
C280 C 0.49724 0.49632 0.14929 0.0
C281 C 0.53449 0.46407 0.19727 0.0
C282 C 0.5667 0.42393 0.2152 0.0
C283 C 0.53912 0.38838 0.23489 0.0
C284 C 0.56729 0.34679 0.2498 0.0
C285 C 0.62371 0.33928 0.24511 0.0
C286 C 0.65204 0.3766 0.22669 0.0
C287 C 0.62379 0.41907 0.21215 0.0
H288 H 0.51157 0.88347 0.37179 0.0
H289 H 0.46401 0.83689 0.33014 0.0
H290 H 0.309 0.89099 0.36642 0.0
H291 H 0.35711 0.94033 0.4075 0.0
H292 H 0.50452 0.99149 0.3733 0.0
H293 H 0.44287 0.84362 0.4405 0.0
H294 H 0.36748 0.79425 0.46511 0.0
H295 H 0.32524 0.94097 0.51513 0.0
H296 H 0.39706 0.99049 0.48932 0.0
H297 H 0.54619 0.14025 0.44942 0.0
H298 H 0.61907 0.19166 0.47525 0.0
H299 H 0.6798 0.04111 0.51382 0.0
H300 H 0.60943 0.99003 0.48657 0.0
H301 H 0.49832 0.99148 0.48619 0.0
H302 H 0.51982 0.13416 0.39806 0.0
H303 H 0.56733 0.18329 0.35731 0.0
H304 H 0.67362 0.04447 0.34377 0.0
H305 H 0.62871 -0.00292 0.38606 0.0
C306 C 0.43795 0.91556 0.39275 0.0
C307 C 0.46725 0.88454 0.37118 0.0
C308 C 0.44015 0.85809 0.34734 0.0
C309 C 0.38307 0.86092 0.34502 0.0
C310 C 0.35316 0.8882 0.36787 0.0
C311 C 0.38052 0.9161 0.39141 0.0
C312 C 0.46866 0.95387 0.41279 0.0
C313 C 0.50293 0.99125 0.39808 0.0
C314 C 0.46529 0.95485 0.44508 0.0
C315 C 0.42493 0.92144 0.46232 0.0
C316 C 0.41711 0.86521 0.45662 0.0
C317 C 0.37454 0.83673 0.47101 0.0
C318 C 0.34026 0.86373 0.49194 0.0
C319 C 0.35081 0.9188 0.49913 0.0
C320 C 0.39217 0.94732 0.48434 0.0
C321 C 0.57372 0.06095 0.46497 0.0
C322 C 0.57574 0.11829 0.46301 0.0
C323 C 0.61672 0.1478 0.4783 0.0
C324 C 0.65541 0.12046 0.4964 0.0
C325 C 0.6507 0.06353 0.50003 0.0
C326 C 0.6105 0.03413 0.48438 0.0
C327 C 0.53466 0.02799 0.4465 0.0
C328 C 0.49919 0.99154 0.46144 0.0
C329 C 0.53565 0.02813 0.4143 0.0
C330 C 0.57225 0.06291 0.39595 0.0
C331 C 0.55552 0.11571 0.38764 0.0
C332 C 0.58203 0.14334 0.36405 0.0
C333 C 0.6237 0.11731 0.34748 0.0
C334 C 0.64147 0.06519 0.3563 0.0
C335 C 0.61633 0.03844 0.3806 0.0
H336 H 0.00692 0.11879 0.73421 0.0
H337 H 0.95478 0.19115 0.75901 0.0
H338 H 0.80568 0.12719 0.71953 0.0
H339 H 0.85829 0.05334 0.69527 0.0
H340 H 0.00964 0.01065 0.73596 0.0
H341 H 0.94886 0.14643 0.65721 0.0
H342 H 0.89434 0.19079 0.61714 0.0
H343 H 0.84438 0.03238 0.58333 0.0
H344 H 0.89601 0.98844 0.62407 0.0
H345 H 0.00488 0.87599 0.63663 0.0
H346 H 0.04808 0.82801 0.59372 0.0
H347 H 0.19241 0.92778 0.60456 0.0
H348 H 0.14747 0.97855 0.64593 0.0
H349 H 0.00288 -0.00195 0.62322 0.0
H350 H 0.0014 0.90071 0.73729 0.0
H351 H 0.04765 0.82653 0.76349 0.0
H352 H 0.2007 0.8733 0.72188 0.0
H353 H 0.15437 0.95021 0.69705 0.0
C354 C 0.93683 0.08116 0.71236 0.0
C355 C 0.96289 0.11956 0.7313 0.0
C356 C 0.93293 0.16103 0.74547 0.0
C357 C 0.8761 0.16517 0.74103 0.0
C358 C 0.84942 0.1251 0.72334 0.0
C359 C 0.87954 0.08323 0.70923 0.0
C360 C 0.9706 0.04096 0.69515 0.0
C361 C 0.00834 0.00821 0.71125 0.0
C362 C 0.96748 0.03568 0.66301 0.0
C363 C 0.92666 0.06408 0.64362 0.0
C364 C 0.92448 0.12139 0.64193 0.0
C365 C 0.89359 0.14663 0.61898 0.0
C366 C 0.86595 0.11473 0.59705 0.0
C367 C 0.86579 0.05773 0.59982 0.0
C368 C 0.89521 0.03271 0.62312 0.0
C369 C 0.07371 0.92957 0.64521 0.0
C370 C 0.04653 0.88628 0.63045 0.0
C371 C 0.07089 0.85938 0.6058 0.0
C372 C 0.12336 0.87443 0.59606 0.0
C373 C 0.15212 0.91517 0.61202 0.0
C374 C 0.12687 0.94354 0.63596 0.0
C375 C 0.04135 0.96829 0.66385 0.0
C376 C 0.00417 0.0009 0.64796 0.0
C377 C 0.04293 0.97079 0.69606 0.0
C378 C 0.07389 0.93007 0.7143 0.0
C379 C 0.04513 0.8959 0.73424 0.0
C380 C 0.07177 0.85338 0.74925 0.0
C381 C 0.1278 0.84355 0.74444 0.0
C382 C 0.15741 0.87955 0.72581 0.0
C383 C 0.13072 0.92292 0.71115 0.0
In384 In 0.30698 0.68405 0.01757 0.0
O385 O 0.29497 0.77192 0.03591 0.0
O386 O 0.36821 0.75227 0.01221 0.0
C387 C 0.20483 0.64632 0.0072 0.0
C388 C 0.33979 0.63613 0.06979 0.0
C389 C 0.35593 0.6523 0.9653 0.0
O390 O 0.21845 0.69465 1.00024 0.0
O391 O 0.24103 0.61991 0.02133 0.0
O392 O 0.379 0.64944 0.99104 0.0
O393 O 0.30835 0.67222 0.96565 0.0
C394 C 0.342 0.78735 0.02743 0.0
O395 O 0.34349 0.61324 0.044 0.0
O396 O 0.31872 0.68318 0.06953 0.0
In397 In 0.30575 0.80855 0.26523 0.0
O398 O 0.29275 0.72122 0.24638 0.0
O399 O 0.36462 0.73882 0.27196 0.0
C400 C 0.20347 0.84614 0.2749 0.0
C401 C 0.34022 0.85624 0.21332 0.0
C402 C 0.35596 0.84014 0.31727 0.0
O403 O 0.21736 0.79824 0.28255 0.0
O404 O 0.23953 0.87217 0.26052 0.0
O405 O 0.37899 0.84137 0.29152 0.0
O406 O 0.30755 0.8223 0.31703 0.0
C407 C 0.33869 0.70457 0.25598 0.0
O408 O 0.34212 0.87966 0.23903 0.0
O409 O 0.32019 0.80875 0.2135 0.0
In410 In 0.1855 0.80896 0.51537 0.0
O411 O 0.11694 0.84534 0.54403 0.0
O412 O 0.19506 0.83681 0.56505 0.0
C413 C 0.14551 0.85273 0.46365 0.0
C414 C 0.15036 0.70677 0.52692 0.0
C415 C 0.28949 0.83837 0.50357 0.0
O416 O 0.1544 0.88064 0.48742 0.0
O417 O 0.15548 0.80234 0.46599 0.0
O418 O 0.2704 0.79336 0.49386 0.0
O419 O 0.25766 0.86493 0.52066 0.0
C420 C 0.14573 0.85112 0.56775 0.0
O421 O 0.19815 0.72196 0.53433 0.0
O422 O 0.12327 0.74158 0.51218 0.0
In423 In 0.18321 0.68838 0.76725 0.0
O424 O 0.15012 0.61644 0.7942 0.0
O425 O 0.15308 0.69373 0.81666 0.0
C426 C 0.14161 0.64793 0.71483 0.0
C427 C 0.28622 0.65534 0.77914 0.0
C428 C 0.15227 0.79227 0.75599 0.0
O429 O 0.11299 0.65541 0.73841 0.0
O430 O 0.19156 0.65986 0.71767 0.0
O431 O 0.19912 0.77492 0.7483 0.0
O432 O 0.12407 0.75867 0.7709 0.0
C433 C 0.14193 0.64348 0.81833 0.0
O434 O 0.26823 0.70028 0.78956 0.0
O435 O 0.25402 0.63086 0.76127 0.0
In436 In 0.80685 0.18704 0.5177 0.0
O437 O 0.79377 0.2744 0.53649 0.0
O438 O 0.86555 0.25695 0.51094 0.0
C439 C 0.7047 0.14873 0.50819 0.0
C440 C 0.84237 0.13979 0.56956 0.0
C441 C 0.85648 0.15541 0.46559 0.0
O442 O 0.71819 0.19672 0.50052 0.0
O443 O 0.74107 0.12298 0.52256 0.0
O444 O 0.87976 0.15413 0.49131 0.0
O445 O 0.80815 0.17344 0.46588 0.0
C446 C 0.83964 0.29115 0.52692 0.0
O447 O 0.84414 0.11629 0.54388 0.0
O448 O 0.82181 0.18706 0.56939 0.0
In449 In 0.8012 0.31256 0.7638 0.0
O450 O 0.84451 0.38071 0.7386 0.0
O451 O 0.8118 0.3155 0.71184 0.0
C452 C 0.84358 0.35296 0.81623 0.0
C453 C 0.84694 0.21447 0.75212 0.0
C454 C 0.69446 0.33585 0.77375 0.0
O455 O 0.83008 0.38269 0.79406 0.0
O456 O 0.8368 0.30235 0.81195 0.0
O457 O 0.71797 0.29663 0.78707 0.0
O458 O 0.72295 0.35847 0.75358 0.0
C459 C 0.83766 0.3601 0.71241 0.0
O460 O 0.79616 0.22262 0.74824 0.0
O461 O 0.87283 0.2546 0.76318 0.0
In462 In 0.68143 0.30946 0.01612 0.0
O463 O 0.69601 0.22271 0.0351 0.0
O464 O 0.62047 0.24094 0.01322 0.0
C465 C 0.78352 0.34443 1.00396 0.0
C466 C 0.64157 0.35027 0.06869 0.0
C467 C 0.63979 0.34868 0.9638 0.0
O468 O 0.76829 0.29652 0.99675 0.0
O469 O 0.74886 0.37168 0.01884 0.0
O470 O 0.6453 0.37766 0.98749 0.0
O471 O 0.65395 0.29935 0.96649 0.0
C472 C 0.64838 0.20664 0.02786 0.0
O473 O 0.61272 0.34449 0.045 0.0
O474 O 0.6911 0.33671 0.06587 0.0
In475 In 0.6846 0.18644 0.26788 0.0
O476 O 0.65409 0.11445 0.29571 0.0
O477 O 0.65503 0.19262 0.31729 0.0
C478 C 0.64326 0.14461 0.21571 0.0
C479 C 0.7887 0.15678 0.27942 0.0
C480 C 0.65008 0.28898 0.2566 0.0
O481 O 0.61504 0.15082 0.23955 0.0
O482 O 0.69282 0.15833 0.21818 0.0
O483 O 0.69746 0.27331 0.24879 0.0
O484 O 0.62315 0.25447 0.27158 0.0
C485 C 0.64532 0.14216 0.31955 0.0
O486 O 0.76967 0.20159 0.28941 0.0
O487 O 0.75678 0.1306 0.26213 0.0
loop_
_geom_bond_atom_site_label_1
_geom_bond_atom_site_label_2
_geom_bond_distance
_geom_bond_site_symmetry_2
_ccdc_geom_bond_type
H0 C19 0.949 . S
H1 C20 0.950 . S
H2 C22 0.950 . S
H3 C23 0.950 . S
H4 C25 0.950 . S
H5 C28 0.950 . S
H6 C29 0.950 . S
H7 C31 0.951 . S
H8 C32 0.949 1_565 S
H9 C34 0.949 . S
H10 C35 0.950 . S
H11 C37 0.950 . S
H12 C38 0.950 . S
H13 C40 0.950 . S
H14 C43 0.950 . S
H15 C44 0.950 . S
H16 C46 0.951 . S
H17 C47 0.949 1_545 S
C18 C19 1.376 . S
C18 C23 1.386 . S
C18 C24 1.483 . S
C19 H0 0.949 . S
C19 C18 1.376 . S
C19 C20 1.397 . S
C20 H1 0.950 . S
C20 C19 1.397 . S
C20 C21 1.391 . S
C21 C20 1.391 . S
C21 C22 1.405 . S
C22 H2 0.950 . S
C22 C21 1.405 . S
C22 C23 1.367 . S
C23 H3 0.950 . S
C23 C18 1.386 . S
C23 C22 1.367 . S
C24 C18 1.483 . S
C24 C25 1.382 1_655 S
C24 C26 1.403 . S
C25 H4 0.950 . S
C25 C24 1.382 1_455 S
C25 C41 1.411 1_545 S
C26 C24 1.403 . S
C26 C27 1.489 . S
C26 C40 1.411 1_545 S
C27 C26 1.489 . S
C27 C28 1.383 . S
C27 C32 1.382 . S
C28 H5 0.950 . S
C28 C27 1.383 . S
C28 C29 1.395 . S
C29 H6 0.950 . S
C29 C28 1.395 . S
C29 C30 1.288 . S
C30 C29 1.288 . S
C30 C31 1.392 . S
C31 H7 0.951 . S
C31 C30 1.392 . S
C31 C32 1.392 . S
C32 H8 0.949 1_545 S
C32 C27 1.382 . S
C32 C31 1.392 . S
C33 C34 1.376 . S
C33 C38 1.386 . S
C33 C39 1.483 . S
C34 H9 0.949 . S
C34 C33 1.376 . S
C34 C35 1.397 . S
C35 H10 0.950 . S
C35 C34 1.397 . S
C35 C36 1.391 . S
C36 C35 1.391 . S
C36 C37 1.405 . S
C37 H11 0.950 . S
C37 C36 1.405 . S
C37 C38 1.367 . S
C38 H12 0.950 . S
C38 C33 1.386 . S
C38 C37 1.367 . S
C39 C33 1.483 . S
C39 C40 1.382 1_455 S
C39 C41 1.403 . S
C40 H13 0.950 . S
C40 C26 1.411 1_565 S
C40 C39 1.382 1_655 S
C41 C25 1.411 1_565 S
C41 C39 1.403 . S
C41 C42 1.489 . S
C42 C41 1.489 . S
C42 C43 1.383 . S
C42 C47 1.382 . S
C43 H14 0.950 . S
C43 C42 1.383 . S
C43 C44 1.395 . S
C44 H15 0.950 . S
C44 C43 1.395 . S
C44 C45 1.288 . S
C45 C44 1.288 . S
C45 C46 1.392 . S
C46 H16 0.951 . S
C46 C45 1.392 . S
C46 C47 1.392 . S
C47 H17 0.949 1_565 S
C47 C42 1.382 . S
C47 C46 1.392 . S
H48 C67 0.949 1_455 S
H49 C68 0.950 . S
H50 C70 0.950 . S
H51 C71 0.950 . S
H52 C73 0.950 . S
H53 C76 0.950 . S
H54 C77 0.950 . S
H55 C79 0.951 . S
H56 C80 0.949 . S
H57 C82 0.949 1_655 S
H58 C83 0.950 . S
H59 C85 0.950 . S
H60 C86 0.950 . S
H61 C88 0.950 . S
H62 C91 0.950 . S
H63 C92 0.950 . S
H64 C94 0.951 . S
H65 C95 0.949 . S
C66 C67 1.376 . S
C66 C71 1.386 . S
C66 C72 1.483 . S
C67 H48 0.949 1_655 S
C67 C66 1.376 . S
C67 C68 1.397 . S
C68 H49 0.950 . S
C68 C67 1.397 . S
C68 C69 1.391 . S
C69 C68 1.391 . S
C69 C70 1.405 . S
C70 H50 0.950 . S
C70 C69 1.405 . S
C70 C71 1.367 . S
C71 H51 0.950 . S
C71 C66 1.386 . S
C71 C70 1.367 . S
C72 C66 1.483 . S
C72 C73 1.382 1_655 S
C72 C74 1.403 . S
C73 H52 0.950 . S
C73 C72 1.382 1_455 S
C73 C89 1.411 . S
C74 C72 1.403 . S
C74 C75 1.489 . S
C74 C88 1.411 . S
C75 C74 1.489 . S
C75 C76 1.383 . S
C75 C80 1.382 . S
C76 H53 0.950 . S
C76 C75 1.383 . S
C76 C77 1.395 . S
C77 H54 0.950 . S
C77 C76 1.395 . S
C77 C78 1.288 . S
C78 C77 1.288 . S
C78 C79 1.392 . S
C79 H55 0.951 . S
C79 C78 1.392 . S
C79 C80 1.392 . S
C80 H56 0.949 . S
C80 C75 1.382 . S
C80 C79 1.392 . S
C81 C82 1.376 . S
C81 C86 1.386 . S
C81 C87 1.483 . S
C82 H57 0.949 1_455 S
C82 C81 1.376 . S
C82 C83 1.397 . S
C83 H58 0.950 . S
C83 C82 1.397 . S
C83 C84 1.391 . S
C84 C83 1.391 . S
C84 C85 1.405 . S
C85 H59 0.950 . S
C85 C84 1.405 . S
C85 C86 1.367 . S
C86 H60 0.950 . S
C86 C81 1.386 . S
C86 C85 1.367 . S
C87 C81 1.483 . S
C87 C88 1.382 1_455 S
C87 C89 1.403 . S
C88 H61 0.950 . S
C88 C74 1.411 . S
C88 C87 1.382 1_655 S
C89 C73 1.411 . S
C89 C87 1.403 . S
C89 C90 1.489 . S
C90 C89 1.489 . S
C90 C91 1.383 . S
C90 C95 1.382 . S
C91 H62 0.950 . S
C91 C90 1.383 . S
C91 C92 1.395 . S
C92 H63 0.950 . S
C92 C91 1.395 . S
C92 C93 1.288 . S
C93 C92 1.288 . S
C93 C94 1.392 . S
C94 H64 0.951 . S
C94 C93 1.392 . S
C94 C95 1.392 . S
C95 H65 0.949 . S
C95 C90 1.382 . S
C95 C94 1.392 . S
H96 C115 0.949 . S
H97 C116 0.950 . S
H98 C118 0.950 . S
H99 C119 0.950 . S
H100 C121 0.950 . S
H101 C124 0.950 . S
H102 C125 0.950 . S
H103 C127 0.951 . S
H104 C128 0.949 . S
H105 C130 0.949 . S
H106 C131 0.950 . S
H107 C133 0.950 . S
H108 C134 0.950 . S
H109 C136 0.950 . S
H110 C139 0.950 . S
H111 C140 0.950 . S
H112 C142 0.951 . S
H113 C143 0.949 . S
C114 C115 1.376 . S
C114 C119 1.386 . S
C114 C120 1.483 . S
C115 H96 0.949 . S
C115 C114 1.376 . S
C115 C116 1.397 . S
C116 H97 0.950 . S
C116 C115 1.397 . S
C116 C117 1.391 . S
C117 C116 1.391 . S
C117 C118 1.405 . S
C118 H98 0.950 . S
C118 C117 1.405 . S
C118 C119 1.367 . S
C119 H99 0.950 . S
C119 C114 1.386 . S
C119 C118 1.367 . S
C120 C114 1.483 . S
C120 C121 1.382 . S
C120 C122 1.403 . S
C121 H100 0.950 . S
C121 C120 1.382 . S
C121 C137 1.411 . S
C122 C120 1.403 . S
C122 C123 1.489 . S
C122 C136 1.411 . S
C123 C122 1.489 . S
C123 C124 1.383 . S
C123 C128 1.382 . S
C124 H101 0.950 . S
C124 C123 1.383 . S
C124 C125 1.395 . S
C125 H102 0.950 . S
C125 C124 1.395 . S
C125 C126 1.288 . S
C126 C125 1.288 . S
C126 C127 1.392 . S
C127 H103 0.951 . S
C127 C126 1.392 . S
C127 C128 1.392 . S
C128 H104 0.949 . S
C128 C123 1.382 . S
C128 C127 1.392 . S
C129 C130 1.376 . S
C129 C134 1.386 . S
C129 C135 1.483 . S
C130 H105 0.949 . S
C130 C129 1.376 . S
C130 C131 1.397 . S
C131 H106 0.950 . S
C131 C130 1.397 . S
C131 C132 1.391 . S
C132 C131 1.391 . S
C132 C133 1.405 . S
C133 H107 0.950 . S
C133 C132 1.405 . S
C133 C134 1.367 . S
C134 H108 0.950 . S
C134 C129 1.386 . S
C134 C133 1.367 . S
C135 C129 1.483 . S
C135 C136 1.382 . S
C135 C137 1.403 . S
C136 H109 0.950 . S
C136 C122 1.411 . S
C136 C135 1.382 . S
C137 C121 1.411 . S
C137 C135 1.403 . S
C137 C138 1.489 . S
C138 C137 1.489 . S
C138 C139 1.383 . S
C138 C143 1.382 . S
C139 H110 0.950 . S
C139 C138 1.383 . S
C139 C140 1.395 . S
C140 H111 0.950 . S
C140 C139 1.395 . S
C140 C141 1.288 . S
C141 C140 1.288 . S
C141 C142 1.392 . S
C142 H112 0.951 . S
C142 C141 1.392 . S
C142 C143 1.392 . S
C143 H113 0.949 . S
C143 C138 1.382 . S
C143 C142 1.392 . S
H144 C163 0.949 . S
H145 C164 0.950 . S
H146 C166 0.950 . S
H147 C167 0.950 . S
H148 C169 0.950 . S
H149 C172 0.950 . S
H150 C173 0.950 . S
H151 C175 0.951 . S
H152 C176 0.949 . S
H153 C178 0.949 . S
H154 C179 0.950 . S
H155 C181 0.950 . S
H156 C182 0.950 . S
H157 C184 0.950 . S
H158 C187 0.950 . S
H159 C188 0.950 . S
H160 C190 0.951 . S
H161 C191 0.949 . S
C162 C163 1.376 . S
C162 C167 1.386 . S
C162 C168 1.483 . S
C163 H144 0.949 . S
C163 C162 1.376 . S
C163 C164 1.397 . S
C164 H145 0.950 . S
C164 C163 1.397 . S
C164 C165 1.391 . S
C165 C164 1.391 . S
C165 C166 1.405 . S
C166 H146 0.950 . S
C166 C165 1.405 . S
C166 C167 1.367 . S
C167 H147 0.950 . S
C167 C162 1.386 . S
C167 C166 1.367 . S
C168 C162 1.483 . S
C168 C169 1.382 . S
C168 C170 1.403 . S
C169 H148 0.950 . S
C169 C168 1.382 . S
C169 C185 1.411 1_565 S
C170 C168 1.403 . S
C170 C171 1.489 . S
C170 C184 1.411 1_565 S
C171 C170 1.489 . S
C171 C172 1.383 . S
C171 C176 1.382 . S
C172 H149 0.950 . S
C172 C171 1.383 . S
C172 C173 1.395 . S
C173 H150 0.950 . S
C173 C172 1.395 . S
C173 C174 1.288 . S
C174 C173 1.288 . S
C174 C175 1.392 . S
C175 H151 0.951 . S
C175 C174 1.392 . S
C175 C176 1.392 . S
C176 H152 0.949 . S
C176 C171 1.382 . S
C176 C175 1.392 . S
C177 C178 1.376 . S
C177 C182 1.386 . S
C177 C183 1.483 . S
C178 H153 0.949 . S
C178 C177 1.376 . S
C178 C179 1.397 . S
C179 H154 0.950 . S
C179 C178 1.397 . S
C179 C180 1.391 . S
C180 C179 1.391 . S
C180 C181 1.405 . S
C181 H155 0.950 . S
C181 C180 1.405 . S
C181 C182 1.367 . S
C182 H156 0.950 . S
C182 C177 1.386 . S
C182 C181 1.367 . S
C183 C177 1.483 . S
C183 C184 1.382 . S
C183 C185 1.403 . S
C184 H157 0.950 . S
C184 C170 1.411 1_545 S
C184 C183 1.382 . S
C185 C169 1.411 1_545 S
C185 C183 1.403 . S
C185 C186 1.489 . S
C186 C185 1.489 . S
C186 C187 1.383 . S
C186 C191 1.382 . S
C187 H158 0.950 . S
C187 C186 1.383 . S
C187 C188 1.395 . S
C188 H159 0.950 . S
C188 C187 1.395 . S
C188 C189 1.288 . S
C189 C188 1.288 . S
C189 C190 1.392 . S
C190 H160 0.951 . S
C190 C189 1.392 . S
C190 C191 1.392 . S
C191 H161 0.949 . S
C191 C186 1.382 . S
C191 C190 1.392 . S
H192 C211 0.949 . S
H193 C212 0.950 . S
H194 C214 0.950 . S
H195 C215 0.950 . S
H196 C217 0.950 . S
H197 C220 0.950 . S
H198 C221 0.950 . S
H199 C223 0.951 1_554 S
H200 C224 0.949 . S
H201 C226 0.949 . S
H202 C227 0.950 1_554 S
H203 C229 0.950 . S
H204 C230 0.950 . S
H205 C232 0.950 . S
H206 C235 0.950 . S
H207 C236 0.950 . S
H208 C238 0.951 . S
H209 C239 0.949 . S
C210 C211 1.376 . S
C210 C215 1.386 . S
C210 C216 1.483 . S
C211 H192 0.949 . S
C211 C210 1.376 . S
C211 C212 1.397 . S
C212 H193 0.950 . S
C212 C211 1.397 . S
C212 C213 1.391 . S
C213 C212 1.391 . S
C213 C214 1.405 . S
C214 H194 0.950 . S
C214 C213 1.405 . S
C214 C215 1.367 . S
C215 H195 0.950 . S
C215 C210 1.386 . S
C215 C214 1.367 . S
C216 C210 1.483 . S
C216 C217 1.382 1_455 S
C216 C218 1.403 . S
C217 H196 0.950 . S
C217 C216 1.382 1_655 S
C217 C233 1.411 . S
C218 C216 1.403 . S
C218 C219 1.489 . S
C218 C232 1.411 . S
C219 C218 1.489 . S
C219 C220 1.383 . S
C219 C224 1.382 . S
C220 H197 0.950 . S
C220 C219 1.383 . S
C220 C221 1.395 . S
C221 H198 0.950 . S
C221 C220 1.395 . S
C221 C222 1.288 . S
C222 C221 1.288 . S
C222 C223 1.392 . S
C223 H199 0.951 1_556 S
C223 C222 1.392 . S
C223 C224 1.392 . S
C224 H200 0.949 . S
C224 C219 1.382 . S
C224 C223 1.392 . S
C225 C226 1.376 . S
C225 C230 1.386 . S
C225 C231 1.483 . S
C226 H201 0.949 . S
C226 C225 1.376 . S
C226 C227 1.397 . S
C227 H202 0.950 1_556 S
C227 C226 1.397 . S
C227 C228 1.391 . S
C228 C227 1.391 . S
C228 C229 1.405 . S
C229 H203 0.950 . S
C229 C228 1.405 . S
C229 C230 1.367 . S
C230 H204 0.950 . S
C230 C225 1.386 . S
C230 C229 1.367 . S
C231 C225 1.483 . S
C231 C232 1.382 1_655 S
C231 C233 1.403 . S
C232 H205 0.950 . S
C232 C218 1.411 . S
C232 C231 1.382 1_455 S
C233 C217 1.411 . S
C233 C231 1.403 . S
C233 C234 1.489 . S
C234 C233 1.489 . S
C234 C235 1.383 . S
C234 C239 1.382 . S
C235 H206 0.950 . S
C235 C234 1.383 . S
C235 C236 1.395 . S
C236 H207 0.950 . S
C236 C235 1.395 . S
C236 C237 1.288 . S
C237 C236 1.288 . S
C237 C238 1.392 . S
C238 H208 0.951 . S
C238 C237 1.392 . S
C238 C239 1.392 . S
C239 H209 0.949 . S
C239 C234 1.382 . S
C239 C238 1.392 . S
H240 C259 0.949 . S
H241 C260 0.950 . S
H242 C262 0.950 . S
H243 C263 0.950 . S
H244 C265 0.950 . S
H245 C268 0.950 . S
H246 C269 0.950 . S
H247 C271 0.951 . S
H248 C272 0.949 . S
H249 C274 0.949 . S
H250 C275 0.950 . S
H251 C277 0.950 . S
H252 C278 0.950 . S
H253 C280 0.950 . S
H254 C283 0.950 . S
H255 C284 0.950 . S
H256 C286 0.951 . S
H257 C287 0.949 . S
C258 C259 1.376 . S
C258 C263 1.386 . S
C258 C264 1.483 . S
C259 H240 0.949 . S
C259 C258 1.376 . S
C259 C260 1.397 . S
C260 H241 0.950 . S
C260 C259 1.397 . S
C260 C261 1.391 . S
C261 C260 1.391 . S
C261 C262 1.405 . S
C262 H242 0.950 . S
C262 C261 1.405 . S
C262 C263 1.367 . S
C263 H243 0.950 . S
C263 C258 1.386 . S
C263 C262 1.367 . S
C264 C258 1.483 . S
C264 C265 1.382 . S
C264 C266 1.403 . S
C265 H244 0.950 . S
C265 C264 1.382 . S
C265 C281 1.411 . S
C266 C264 1.403 . S
C266 C267 1.489 . S
C266 C280 1.411 . S
C267 C266 1.489 . S
C267 C268 1.383 . S
C267 C272 1.382 . S
C268 H245 0.950 . S
C268 C267 1.383 . S
C268 C269 1.395 . S
C269 H246 0.950 . S
C269 C268 1.395 . S
C269 C270 1.288 . S
C270 C269 1.288 . S
C270 C271 1.392 . S
C271 H247 0.951 . S
C271 C270 1.392 . S
C271 C272 1.392 . S
C272 H248 0.949 . S
C272 C267 1.382 . S
C272 C271 1.392 . S
C273 C274 1.376 . S
C273 C278 1.386 . S
C273 C279 1.483 . S
C274 H249 0.949 . S
C274 C273 1.376 . S
C274 C275 1.397 . S
C275 H250 0.950 . S
C275 C274 1.397 . S
C275 C276 1.391 . S
C276 C275 1.391 . S
C276 C277 1.405 . S
C277 H251 0.950 . S
C277 C276 1.405 . S
C277 C278 1.367 . S
C278 H252 0.950 . S
C278 C273 1.386 . S
C278 C277 1.367 . S
C279 C273 1.483 . S
C279 C280 1.382 . S
C279 C281 1.403 . S
C280 H253 0.950 . S
C280 C266 1.411 . S
C280 C279 1.382 . S
C281 C265 1.411 . S
C281 C279 1.403 . S
C281 C282 1.489 . S
C282 C281 1.489 . S
C282 C283 1.383 . S
C282 C287 1.382 . S
C283 H254 0.950 . S
C283 C282 1.383 . S
C283 C284 1.395 . S
C284 H255 0.950 . S
C284 C283 1.395 . S
C284 C285 1.288 . S
C285 C284 1.288 . S
C285 C286 1.392 . S
C286 H256 0.951 . S
C286 C285 1.392 . S
C286 C287 1.392 . S
C287 H257 0.949 . S
C287 C282 1.382 . S
C287 C286 1.392 . S
H288 C307 0.949 . S
H289 C308 0.950 . S
H290 C310 0.950 . S
H291 C311 0.950 . S
H292 C313 0.950 . S
H293 C316 0.950 . S
H294 C317 0.950 . S
H295 C319 0.951 . S
H296 C320 0.949 1_545 S
H297 C322 0.949 . S
H298 C323 0.950 . S
H299 C325 0.950 . S
H300 C326 0.950 . S
H301 C328 0.950 . S
H302 C331 0.950 . S
H303 C332 0.950 . S
H304 C334 0.951 . S
H305 C335 0.949 1_565 S
C306 C307 1.376 . S
C306 C311 1.386 . S
C306 C312 1.483 . S
C307 H288 0.949 . S
C307 C306 1.376 . S
C307 C308 1.397 . S
C308 H289 0.950 . S
C308 C307 1.397 . S
C308 C309 1.391 . S
C309 C308 1.391 . S
C309 C310 1.405 . S
C310 H290 0.950 . S
C310 C309 1.405 . S
C310 C311 1.367 . S
C311 H291 0.950 . S
C311 C306 1.386 . S
C311 C310 1.367 . S
C312 C306 1.483 . S
C312 C313 1.382 . S
C312 C314 1.403 . S
C313 H292 0.950 . S
C313 C312 1.382 . S
C313 C329 1.411 1_565 S
C314 C312 1.403 . S
C314 C315 1.489 . S
C314 C328 1.411 1_565 S
C315 C314 1.489 . S
C315 C316 1.383 . S
C315 C320 1.382 . S
C316 H293 0.950 . S
C316 C315 1.383 . S
C316 C317 1.395 . S
C317 H294 0.950 . S
C317 C316 1.395 . S
C317 C318 1.288 . S
C318 C317 1.288 . S
C318 C319 1.392 . S
C319 H295 0.951 . S
C319 C318 1.392 . S
C319 C320 1.392 . S
C320 H296 0.949 1_565 S
C320 C315 1.382 . S
C320 C319 1.392 . S
C321 C322 1.376 . S
C321 C326 1.386 . S
C321 C327 1.483 . S
C322 H297 0.949 . S
C322 C321 1.376 . S
C322 C323 1.397 . S
C323 H298 0.950 . S
C323 C322 1.397 . S
C323 C324 1.391 . S
C324 C323 1.391 . S
C324 C325 1.405 . S
C325 H299 0.950 . S
C325 C324 1.405 . S
C325 C326 1.367 . S
C326 H300 0.950 . S
C326 C321 1.386 . S
C326 C325 1.367 . S
C327 C321 1.483 . S
C327 C328 1.382 . S
C327 C329 1.403 . S
C328 H301 0.950 . S
C328 C314 1.411 1_545 S
C328 C327 1.382 . S
C329 C313 1.411 1_545 S
C329 C327 1.403 . S
C329 C330 1.489 . S
C330 C329 1.489 . S
C330 C331 1.383 . S
C330 C335 1.382 . S
C331 H302 0.950 . S
C331 C330 1.383 . S
C331 C332 1.395 . S
C332 H303 0.950 . S
C332 C331 1.395 . S
C332 C333 1.288 . S
C333 C332 1.288 . S
C333 C334 1.392 . S
C334 H304 0.951 . S
C334 C333 1.392 . S
C334 C335 1.392 . S
C335 H305 0.949 1_545 S
C335 C330 1.382 . S
C335 C334 1.392 . S
H336 C355 0.949 1_455 S
H337 C356 0.950 . S
H338 C358 0.950 . S
H339 C359 0.950 . S
H340 C361 0.950 . S
H341 C364 0.950 . S
H342 C365 0.950 . S
H343 C367 0.951 . S
H344 C368 0.949 . S
H345 C370 0.949 1_655 S
H346 C371 0.950 . S
H347 C373 0.950 . S
H348 C374 0.950 . S
H349 C376 0.950 . S
H350 C379 0.950 . S
H351 C380 0.950 . S
H352 C382 0.951 . S
H353 C383 0.949 . S
C354 C355 1.376 . S
C354 C359 1.386 . S
C354 C360 1.483 . S
C355 H336 0.949 1_655 S
C355 C354 1.376 . S
C355 C356 1.397 . S
C356 H337 0.950 . S
C356 C355 1.397 . S
C356 C357 1.391 . S
C357 C356 1.391 . S
C357 C358 1.405 . S
C358 H338 0.950 . S
C358 C357 1.405 . S
C358 C359 1.367 . S
C359 H339 0.950 . S
C359 C354 1.386 . S
C359 C358 1.367 . S
C360 C354 1.483 . S
C360 C361 1.382 1_655 S
C360 C362 1.403 . S
C361 H340 0.950 . S
C361 C360 1.382 1_455 S
C361 C377 1.411 1_545 S
C362 C360 1.403 . S
C362 C363 1.489 . S
C362 C376 1.411 1_545 S
C363 C362 1.489 . S
C363 C364 1.383 . S
C363 C368 1.382 . S
C364 H341 0.950 . S
C364 C363 1.383 . S
C364 C365 1.395 . S
C365 H342 0.950 . S
C365 C364 1.395 . S
C365 C366 1.288 . S
C366 C365 1.288 . S
C366 C367 1.392 . S
C367 H343 0.951 . S
C367 C366 1.392 . S
C367 C368 1.392 . S
C368 H344 0.949 . S
C368 C363 1.382 . S
C368 C367 1.392 . S
C369 C370 1.376 . S
C369 C374 1.386 . S
C369 C375 1.483 . S
C370 H345 0.949 1_455 S
C370 C369 1.376 . S
C370 C371 1.397 . S
C371 H346 0.950 . S
C371 C370 1.397 . S
C371 C372 1.391 . S
C372 C371 1.391 . S
C372 C373 1.405 . S
C373 H347 0.950 . S
C373 C372 1.405 . S
C373 C374 1.367 . S
C374 H348 0.950 . S
C374 C369 1.386 . S
C374 C373 1.367 . S
C375 C369 1.483 . S
C375 C376 1.382 1_455 S
C375 C377 1.403 . S
C376 H349 0.950 . S
C376 C362 1.411 1_565 S
C376 C375 1.382 1_655 S
C377 C361 1.411 1_565 S
C377 C375 1.403 . S
C377 C378 1.489 . S
C378 C377 1.489 . S
C378 C379 1.383 . S
C378 C383 1.382 . S
C379 H350 0.950 . S
C379 C378 1.383 . S
C379 C380 1.395 . S
C380 H351 0.950 . S
C380 C379 1.395 . S
C380 C381 1.288 . S
C381 C380 1.288 . S
C381 C382 1.392 . S
C382 H352 0.951 . S
C382 C381 1.392 . S
C382 C383 1.392 . S
C383 H353 0.949 . S
C383 C378 1.382 . S
C383 C382 1.392 . S
In384 O385 2.294 . S
In384 O386 2.326 . S
In384 O390 2.266 1_554 S
In384 O391 2.326 1_554 S
In384 O392 2.266 1_554 S
In384 O393 2.326 1_554 S
In384 O395 2.294 . S
In384 O396 2.326 . S
O385 In384 2.294 . S
O385 C394 1.240 . S
O386 In384 2.326 . S
O386 C394 1.252 . S
C387 O390 1.252 . S
C387 O391 1.260 . S
C388 O395 1.240 . S
C388 O396 1.252 . S
C389 O392 1.252 . S
C389 O393 1.260 . S
O390 In384 2.266 1_556 S
O390 C387 1.252 . S
O391 In384 2.326 1_556 S
O391 C387 1.260 . S
O392 In384 2.266 1_556 S
O392 C389 1.252 . S
O393 In384 2.326 1_556 S
O393 C389 1.260 . S
C394 O385 1.240 . S
C394 O386 1.252 . S
O395 In384 2.294 . S
O395 C388 1.240 . S
O396 In384 2.326 . S
O396 C388 1.252 . S
In397 O398 2.294 . S
In397 O399 2.326 . S
In397 O403 2.266 . S
In397 O404 2.326 . S
In397 O405 2.266 . S
In397 O406 2.326 . S
In397 O408 2.294 . S
In397 O409 2.326 . S
O398 In397 2.294 . S
O398 C407 1.240 . S
O399 In397 2.326 . S
O399 C407 1.252 . S
C400 O403 1.252 . S
C400 O404 1.260 . S
C401 O408 1.240 . S
C401 O409 1.252 . S
C402 O405 1.252 . S
C402 O406 1.260 . S
O403 In397 2.266 . S
O403 C400 1.252 . S
O404 In397 2.326 . S
O404 C400 1.260 . S
O405 In397 2.266 . S
O405 C402 1.252 . S
O406 In397 2.326 . S
O406 C402 1.260 . S
C407 O398 1.240 . S
C407 O399 1.252 . S
O408 In397 2.294 . S
O408 C401 1.240 . S
O409 In397 2.326 . S
O409 C401 1.252 . S
In410 O411 2.294 . S
In410 O412 2.326 . S
In410 O416 2.266 . S
In410 O417 2.326 . S
In410 O418 2.266 . S
In410 O419 2.326 . S
In410 O421 2.294 . S
In410 O422 2.326 . S
O411 In410 2.294 . S
O411 C420 1.240 . S
O412 In410 2.326 . S
O412 C420 1.252 . S
C413 O416 1.252 . S
C413 O417 1.260 . S
C414 O421 1.240 . S
C414 O422 1.252 . S
C415 O418 1.252 . S
C415 O419 1.260 . S
O416 In410 2.266 . S
O416 C413 1.252 . S
O417 In410 2.326 . S
O417 C413 1.260 . S
O418 In410 2.266 . S
O418 C415 1.252 . S
O419 In410 2.326 . S
O419 C415 1.260 . S
C420 O411 1.240 . S
C420 O412 1.252 . S
O421 In410 2.294 . S
O421 C414 1.240 . S
O422 In410 2.326 . S
O422 C414 1.252 . S
In423 O424 2.294 . S
In423 O425 2.326 . S
In423 O429 2.266 . S
In423 O430 2.326 . S
In423 O431 2.266 . S
In423 O432 2.326 . S
In423 O434 2.294 . S
In423 O435 2.326 . S
O424 In423 2.294 . S
O424 C433 1.240 . S
O425 In423 2.326 . S
O425 C433 1.252 . S
C426 O429 1.252 . S
C426 O430 1.260 . S
C427 O434 1.240 . S
C427 O435 1.252 . S
C428 O431 1.252 . S
C428 O432 1.260 . S
O429 In423 2.266 . S
O429 C426 1.252 . S
O430 In423 2.326 . S
O430 C426 1.260 . S
O431 In423 2.266 . S
O431 C428 1.252 . S
O432 In423 2.326 . S
O432 C428 1.260 . S
C433 O424 1.240 . S
C433 O425 1.252 . S
O434 In423 2.294 . S
O434 C427 1.240 . S
O435 In423 2.326 . S
O435 C427 1.252 . S
In436 O437 2.294 . S
In436 O438 2.326 . S
In436 O442 2.266 . S
In436 O443 2.326 . S
In436 O444 2.266 . S
In436 O445 2.326 . S
In436 O447 2.294 . S
In436 O448 2.326 . S
O437 In436 2.294 . S
O437 C446 1.240 . S
O438 In436 2.326 . S
O438 C446 1.252 . S
C439 O442 1.252 . S
C439 O443 1.260 . S
C440 O447 1.240 . S
C440 O448 1.252 . S
C441 O444 1.252 . S
C441 O445 1.260 . S
O442 In436 2.266 . S
O442 C439 1.252 . S
O443 In436 2.326 . S
O443 C439 1.260 . S
O444 In436 2.266 . S
O444 C441 1.252 . S
O445 In436 2.326 . S
O445 C441 1.260 . S
C446 O437 1.240 . S
C446 O438 1.252 . S
O447 In436 2.294 . S
O447 C440 1.240 . S
O448 In436 2.326 . S
O448 C440 1.252 . S
In449 O450 2.294 . S
In449 O451 2.326 . S
In449 O455 2.266 . S
In449 O456 2.326 . S
In449 O457 2.266 . S
In449 O458 2.326 . S
In449 O460 2.294 . S
In449 O461 2.326 . S
O450 In449 2.294 . S
O450 C459 1.240 . S
O451 In449 2.326 . S
O451 C459 1.252 . S
C452 O455 1.252 . S
C452 O456 1.260 . S
C453 O460 1.240 . S
C453 O461 1.252 . S
C454 O457 1.252 . S
C454 O458 1.260 . S
O455 In449 2.266 . S
O455 C452 1.252 . S
O456 In449 2.326 . S
O456 C452 1.260 . S
O457 In449 2.266 . S
O457 C454 1.252 . S
O458 In449 2.326 . S
O458 C454 1.260 . S
C459 O450 1.240 . S
C459 O451 1.252 . S
O460 In449 2.294 . S
O460 C453 1.240 . S
O461 In449 2.326 . S
O461 C453 1.252 . S
In462 O463 2.294 . S
In462 O464 2.326 . S
In462 O468 2.266 1_554 S
In462 O469 2.326 1_554 S
In462 O470 2.266 1_554 S
In462 O471 2.326 1_554 S
In462 O473 2.294 . S
In462 O474 2.326 . S
O463 In462 2.294 . S
O463 C472 1.240 . S
O464 In462 2.326 . S
O464 C472 1.252 . S
C465 O468 1.252 . S
C465 O469 1.260 . S
C466 O473 1.240 . S
C466 O474 1.252 . S
C467 O470 1.252 . S
C467 O471 1.260 . S
O468 In462 2.266 1_556 S
O468 C465 1.252 . S
O469 In462 2.326 1_556 S
O469 C465 1.260 . S
O470 In462 2.266 1_556 S
O470 C467 1.252 . S
O471 In462 2.326 1_556 S
O471 C467 1.260 . S
C472 O463 1.240 . S
C472 O464 1.252 . S
O473 In462 2.294 . S
O473 C466 1.240 . S
O474 In462 2.326 . S
O474 C466 1.252 . S
In475 O476 2.294 . S
In475 O477 2.326 . S
In475 O481 2.266 . S
In475 O482 2.326 . S
In475 O483 2.266 . S
In475 O484 2.326 . S
In475 O486 2.294 . S
In475 O487 2.326 . S
O476 In475 2.294 . S
O476 C485 1.240 . S
O477 In475 2.326 . S
O477 C485 1.252 . S
C478 O481 1.252 . S
C478 O482 1.260 . S
C479 O486 1.240 . S
C479 O487 1.252 . S
C480 O483 1.252 . S
C480 O484 1.260 . S
O481 In475 2.266 . S
O481 C478 1.252 . S
O482 In475 2.326 . S
O482 C478 1.260 . S
O483 In475 2.266 . S
O483 C480 1.252 . S
O484 In475 2.326 . S
O484 C480 1.260 . S
C485 O476 1.240 . S
C485 O477 1.252 . S
O486 In475 2.294 . S
O486 C479 1.240 . S
O487 In475 2.326 . S
O487 C479 1.252 . S
C400 C36 1.548 . S
C414 C93 1.609 . S
C427 C126 1.585 . S
C165 C394 1.555 . S
C222 C387 1.588 . S
C261 C407 1.557 . S
C415 C318 1.572 . S
C428 C381 1.617 . S
C132 C454 1.546 . S
C472 C189 1.609 . S
C30 C479 1.583 . S
C446 C69 1.555 . S
C324 C439 1.566 . S
C357 C453 1.557 . S
C465 C228 1.545 . S
C285 C480 1.618 . S
C413 C45 2.180 . S
C426 C84 2.188 . S
C117 C389 2.138 . S
C174 C401 2.052 . S
C213 C433 2.115 . S
C388 C270 2.049 . S
C402 C309 2.148 . S
C420 C372 2.164 . S
C467 C141 2.182 . S
C478 C180 2.188 . S
C21 C441 2.140 . S
C459 C78 2.051 . S
C485 C333 2.145 . S
C366 C440 2.049 . S
C452 C237 2.181 . S
C466 C276 2.163 . S
