# Generated by pormake.
# Topology hwx, (6,3)-cn, num edge types: 1
# Building blocks:
#     Node 0, Type 0, BuildingBlock: OJICUG_clean_sbu_0, # of connection points: 6
#     Node 1, Type 0, BuildingBlock: OJICUG_clean_sbu_0, # of connection points: 6
#     Node 2, Type 0, BuildingBlock: OJICUG_clean_sbu_0, # of connection points: 6
#     Node 3, Type 0, BuildingBlock: OJICUG_clean_sbu_0, # of connection points: 6
#     Node 4, Type 1, BuildingBlock: INOVEN_clean_linker_0, # of connection points: 3
#     Node 5, Type 1, BuildingBlock: INOVEN_clean_linker_0, # of connection points: 3
#     Node 6, Type 1, BuildingBlock: INOVEN_clean_linker_0, # of connection points: 3
#     Node 7, Type 1, BuildingBlock: INOVEN_clean_linker_0, # of connection points: 3
#     Node 8, Type 1, BuildingBlock: INOVEN_clean_linker_0, # of connection points: 3
#     Node 9, Type 1, BuildingBlock: INOVEN_clean_linker_0, # of connection points: 3
#     Node 10, Type 1, BuildingBlock: INOVEN_clean_linker_0, # of connection points: 3
#     Node 11, Type 1, BuildingBlock: INOVEN_clean_linker_0, # of connection points: 3
#     Edge 12, Type (0, 1), BuildingBlock: OJICUG_clean_linker_0, # of connection points: 2
#     Edge 13, Type (0, 1), BuildingBlock: OJICUG_clean_linker_0, # of connection points: 2
#     Edge 14, Type (0, 1), BuildingBlock: OJICUG_clean_linker_0, # of connection points: 2
#     Edge 15, Type (0, 1), BuildingBlock: OJICUG_clean_linker_0, # of connection points: 2
#     Edge 16, Type (0, 1), BuildingBlock: OJICUG_clean_linker_0, # of connection points: 2
#     Edge 17, Type (0, 1), BuildingBlock: OJICUG_clean_linker_0, # of connection points: 2
#     Edge 18, Type (0, 1), BuildingBlock: OJICUG_clean_linker_0, # of connection points: 2
#     Edge 19, Type (0, 1), BuildingBlock: OJICUG_clean_linker_0, # of connection points: 2
#     Edge 20, Type (0, 1), BuildingBlock: OJICUG_clean_linker_0, # of connection points: 2
#     Edge 21, Type (0, 1), BuildingBlock: OJICUG_clean_linker_0, # of connection points: 2
#     Edge 22, Type (0, 1), BuildingBlock: OJICUG_clean_linker_0, # of connection points: 2
#     Edge 23, Type (0, 1), BuildingBlock: OJICUG_clean_linker_0, # of connection points: 2
#     Edge 24, Type (0, 1), BuildingBlock: OJICUG_clean_linker_0, # of connection points: 2
#     Edge 25, Type (0, 1), BuildingBlock: OJICUG_clean_linker_0, # of connection points: 2
#     Edge 26, Type (0, 1), BuildingBlock: OJICUG_clean_linker_0, # of connection points: 2
#     Edge 27, Type (0, 1), BuildingBlock: OJICUG_clean_linker_0, # of connection points: 2
#     Edge 28, Type (0, 1), BuildingBlock: OJICUG_clean_linker_0, # of connection points: 2
#     Edge 29, Type (0, 1), BuildingBlock: OJICUG_clean_linker_0, # of connection points: 2
#     Edge 30, Type (0, 1), BuildingBlock: OJICUG_clean_linker_0, # of connection points: 2
#     Edge 31, Type (0, 1), BuildingBlock: OJICUG_clean_linker_0, # of connection points: 2
#     Edge 32, Type (0, 1), BuildingBlock: OJICUG_clean_linker_0, # of connection points: 2
#     Edge 33, Type (0, 1), BuildingBlock: OJICUG_clean_linker_0, # of connection points: 2
#     Edge 34, Type (0, 1), BuildingBlock: OJICUG_clean_linker_0, # of connection points: 2
#     Edge 35, Type (0, 1), BuildingBlock: OJICUG_clean_linker_0, # of connection points: 2
# Relax obj value: 0.009
# Max RMSD: 0.040
# Mean RMSD: 0.039
data_MOF--net-hwx--node1-OJICUG_clean_sbu_0--node2-INOVEN_clean_linker_0--edge1-OJICUG_clean_linker_0
_symmetry_space_group_name_H-M    P1
_symmetry_Int_Tables_number       1
_symmetry_cell_setting            triclinic
loop_
_symmetry_equiv_pos_as_xyz
'x, y, z'
_cell_length_a     39.136272
_cell_length_b     39.022426
_cell_length_c     15.250609
_cell_angle_alpha  92.714673
_cell_angle_beta   92.723287
_cell_angle_gamma 90.002072
loop_
_atom_site_label
_atom_site_type_symbol
_atom_site_fract_x
_atom_site_fract_y
_atom_site_fract_z
_atom_type_partial_charge
Sc0 Sc 0.23421 0.2374 0.10817 0.0
Sc1 Sc 0.18033 0.18022 0.97899 0.0
Sc2 Sc 0.23491 0.23728 0.87878 0.0
O3 O 0.21646 0.21827 -0.01136 0.0
C4 C 0.22856 0.30538 0.00078 0.0
C5 C 0.15434 0.22854 0.136 0.0
C6 C 0.15523 0.22847 0.82632 0.0
C7 C 0.22932 0.15706 0.13781 0.0
C8 C 0.30263 0.23478 0.00298 0.0
C9 C 0.23011 0.15695 0.82818 0.0
O10 O 0.2297 0.28988 0.07226 0.0
O11 O 0.14924 0.20541 0.07532 0.0
O12 O 0.18453 0.24171 0.81838 0.0
O13 O 0.24103 0.18701 0.15668 0.0
O14 O 0.28729 0.23528 0.92773 0.0
O15 O 0.2072 0.15062 0.8815 0.0
O16 O 0.28686 0.23539 0.07393 0.0
O17 O 0.20677 0.15062 0.07656 0.0
O18 O 0.24205 0.18686 0.82002 0.0
O19 O 0.18352 0.24187 0.15512 0.0
O20 O 0.23014 0.28977 0.92605 0.0
O21 O 0.14979 0.20549 0.88031 0.0
Sc22 Sc 0.25453 0.73756 0.37734 0.0
Sc23 Sc 0.30861 0.68027 0.49092 0.0
Sc24 Sc 0.25443 0.73691 0.60671 0.0
O25 O 0.27255 0.71821 0.49164 0.0
C26 C 0.26059 0.80529 0.50255 0.0
C27 C 0.33431 0.72906 0.34601 0.0
C28 C 0.33419 0.72817 0.65567 0.0
C29 C 0.25932 0.65733 0.32657 0.0
C30 C 0.18641 0.7345 0.48298 0.0
C31 C 0.25906 0.65649 0.63615 0.0
O32 O 0.25912 0.78995 0.42707 0.0
O33 O 0.33945 0.70581 0.40064 0.0
O34 O 0.30493 0.74125 0.6675 0.0
O35 O 0.24761 0.68728 0.31555 0.0
O36 O 0.20196 0.73502 0.55807 0.0
O37 O 0.28191 0.65034 0.58112 0.0
O38 O 0.20197 0.73517 0.41185 0.0
O39 O 0.28189 0.65084 0.38608 0.0
O40 O 0.24721 0.68633 0.65216 0.0
O41 O 0.30513 0.7424 0.3308 0.0
O42 O 0.25932 0.78951 0.57329 0.0
O43 O 0.33948 0.70536 0.59566 0.0
Sc44 Sc 0.75498 0.75612 0.88224 0.0
Sc45 Sc 0.80889 0.81326 0.01146 0.0
Sc46 Sc 0.75428 0.75623 0.11163 0.0
O47 O 0.77274 0.77524 0.00179 0.0
C48 C 0.68656 0.75877 -0.01258 0.0
C49 C 0.75992 0.83646 0.85264 0.0
C50 C 0.75912 0.83655 0.16227 0.0
C51 C 0.83487 0.76495 0.85443 0.0
C52 C 0.7606 0.68813 -0.01039 0.0
C53 C 0.83396 0.765 0.16412 0.0
O54 O 0.70234 0.75815 0.91647 0.0
O55 O 0.78247 0.84289 0.9139 0.0
O56 O 0.74716 0.80665 0.17041 0.0
O57 O 0.80567 0.75163 0.83531 0.0
O58 O 0.75903 0.70373 0.06434 0.0
O59 O 0.83942 0.78798 0.11013 0.0
O60 O 0.75948 0.70363 0.91814 0.0
O61 O 0.83997 0.78806 0.91513 0.0
O62 O 0.80466 0.75177 0.17205 0.0
O63 O 0.74819 0.80651 0.83376 0.0
O64 O 0.7019 0.75825 0.06267 0.0
O65 O 0.78202 0.84288 0.10896 0.0
Sc66 Sc 0.73465 0.25597 0.61296 0.0
Sc67 Sc 0.68061 0.31328 0.49933 0.0
Sc68 Sc 0.73476 0.2566 0.38358 0.0
O69 O 0.71665 0.27531 0.49864 0.0
C70 C 0.80278 0.25898 0.50735 0.0
C71 C 0.72991 0.3362 0.6637 0.0
C72 C 0.73019 0.33702 0.35411 0.0
C73 C 0.65488 0.26451 0.64425 0.0
C74 C 0.72857 0.18823 0.48777 0.0
C75 C 0.65501 0.26538 0.33459 0.0
O76 O 0.78721 0.25832 0.57847 0.0
O77 O 0.70734 0.3427 0.60418 0.0
O78 O 0.74202 0.30717 0.33811 0.0
O79 O 0.68405 0.25116 0.65946 0.0
O80 O 0.72985 0.204 0.41702 0.0
O81 O 0.64973 0.2882 0.3946 0.0
O82 O 0.73004 0.20357 0.56324 0.0
O83 O 0.64975 0.28777 0.58961 0.0
O84 O 0.68426 0.25229 0.32278 0.0
O85 O 0.74159 0.30624 0.67473 0.0
O86 O 0.78723 0.25847 0.43224 0.0
O87 O 0.70734 0.34318 0.40914 0.0
H88 H 0.2248 0.50937 0.81889 0.0
H89 H 0.22634 0.60511 0.9699 0.0
H90 H 0.22487 0.51054 0.10192 0.0
N91 N 0.22374 0.4693 0.95304 0.0
N92 N 0.22308 0.45187 0.01936 0.0
C93 C 0.22436 0.5235 0.88176 0.0
C94 C 0.22462 0.55944 0.88532 0.0
C95 C 0.22384 0.50565 0.95937 0.0
C96 C 0.22439 0.52402 0.04137 0.0
C97 C 0.22473 0.55997 0.04512 0.0
C98 C 0.2245 0.57733 0.96695 0.0
H99 H 0.98288 0.73597 0.66418 0.0
H100 H 0.88739 0.73595 0.51339 0.0
H101 H 0.98165 0.73577 0.38103 0.0
N102 N 0.02283 0.73477 0.52967 0.0
N103 N 0.0402 0.73383 0.46316 0.0
C104 C 0.9688 0.73545 0.60118 0.0
C105 C 0.93297 0.73514 0.59759 0.0
C106 C 0.98659 0.73507 0.52342 0.0
C107 C 0.96825 0.73532 0.44151 0.0
C108 C 0.93241 0.73509 0.43787 0.0
C109 C 0.91512 0.73473 0.51595 0.0
H110 H 0.76448 0.48413 0.17139 0.0
H111 H 0.76295 0.38839 0.02034 0.0
H112 H 0.76439 0.48297 0.88837 0.0
N113 N 0.76551 0.5242 0.03727 0.0
N114 N 0.76614 0.54165 0.97096 0.0
C115 C 0.76492 0.47 0.10852 0.0
C116 C 0.76467 0.43406 0.10494 0.0
C117 C 0.76543 0.48786 0.03092 0.0
C118 C 0.76487 0.4695 0.94891 0.0
C119 C 0.76455 0.43354 0.94514 0.0
C120 C 0.76479 0.41618 0.0233 0.0
H121 H 0.00631 0.25746 0.32623 0.0
H122 H 0.1018 0.25748 0.47706 0.0
H123 H 0.00753 0.25765 0.60938 0.0
N124 N 0.96636 0.25865 0.46073 0.0
N125 N 0.94899 0.25959 0.52723 0.0
C126 C 0.02039 0.25797 0.38924 0.0
C127 C 0.05622 0.25829 0.39284 0.0
C128 C 0.0026 0.25835 0.46699 0.0
C129 C 0.02093 0.2581 0.54891 0.0
C130 C 0.05678 0.25834 0.55256 0.0
C131 C 0.07407 0.2587 0.47449 0.0
H132 H 0.72559 0.98342 0.66285 0.0
H133 H 0.72686 0.88822 0.50982 0.0
H134 H 0.72498 0.98332 0.37988 0.0
N135 N 0.72413 0.024 0.52957 0.0
N136 N 0.72327 0.04173 0.46363 0.0
C137 C 0.72503 0.96951 0.59955 0.0
C138 C 0.72534 0.93357 0.59517 0.0
C139 C 0.7243 0.98767 0.5223 0.0
C140 C 0.72467 0.96962 0.43997 0.0
C141 C 0.725 0.93366 0.43542 0.0
C142 C 0.72502 0.91599 0.51308 0.0
H143 H 0.5068 0.23558 0.82667 0.0
H144 H 0.60187 0.23578 0.97934 0.0
H145 H 0.50717 0.23607 0.10975 0.0
N146 N 0.46643 0.2348 0.96003 0.0
N147 N 0.44882 0.23402 0.02591 0.0
C148 C 0.52069 0.23519 0.88982 0.0
C149 C 0.55653 0.23484 0.89402 0.0
C150 C 0.50266 0.23502 0.96711 0.0
C151 C 0.52075 0.23545 0.04945 0.0
C152 C 0.55659 0.23515 0.05372 0.0
C153 C 0.57413 0.23458 0.97592 0.0
H154 H 0.26367 0.01012 0.32758 0.0
H155 H 0.26242 0.10531 0.48066 0.0
H156 H 0.26426 0.01019 0.61055 0.0
N157 N 0.2651 0.96952 0.46084 0.0
N158 N 0.26594 0.95179 0.52677 0.0
C159 C 0.26423 0.02402 0.39089 0.0
C160 C 0.26393 0.05996 0.39529 0.0
C161 C 0.26495 0.00586 0.46813 0.0
C162 C 0.26459 0.0239 0.55047 0.0
C163 C 0.26426 0.05986 0.55504 0.0
C164 C 0.26426 0.07753 0.47739 0.0
H165 H 0.48237 0.75805 0.16362 0.0
H166 H 0.38732 0.75783 0.01088 0.0
H167 H 0.48203 0.75755 0.88054 0.0
N168 N 0.52275 0.75882 0.03028 0.0
N169 N 0.54037 0.75959 0.96442 0.0
C170 C 0.46848 0.75844 0.10046 0.0
C171 C 0.43265 0.75879 0.09624 0.0
C172 C 0.48652 0.75861 0.02318 0.0
C173 C 0.46844 0.75818 0.94083 0.0
C174 C 0.4326 0.75847 0.93653 0.0
C175 C 0.41505 0.75904 0.01432 0.0
C176 C 0.12881 0.26935 0.2452 0.0
C177 C 0.12556 0.2396 0.18982 0.0
H178 H 0.10839 0.29919 0.35155 0.0
C179 C 0.09573 0.21954 0.19132 0.0
H180 H 0.15108 0.2858 0.24435 0.0
C181 C 0.07114 0.22742 0.25276 0.0
C182 C 0.07608 0.25549 0.31303 0.0
H183 H 0.09234 0.19664 0.14883 0.0
H184 H 0.04967 0.21018 0.25742 0.0
C185 C 0.10427 0.27723 0.30607 0.0
C186 C 0.21709 0.63269 0.73536 0.0
C187 C 0.2466 0.62816 0.68714 0.0
H188 H 0.18631 0.61351 0.83434 0.0
C189 C 0.26514 0.59741 0.69331 0.0
H190 H 0.20178 0.65572 0.73065 0.0
C191 C 0.2561 0.57312 0.75273 0.0
C192 C 0.22836 0.57927 0.80631 0.0
H193 H 0.28781 0.59302 0.65632 0.0
H194 H 0.27227 0.55089 0.76139 0.0
C195 C 0.20803 0.60844 0.79419 0.0
C196 C 0.85874 0.72471 0.27226 0.0
C197 C 0.86248 0.75395 0.22319 0.0
H198 H 0.87887 0.69519 0.3773 0.0
C199 C 0.89272 0.77347 0.2355 0.0
H200 H 0.83614 0.70867 0.26312 0.0
C201 C 0.91732 0.76556 0.30098 0.0
C202 C 0.91201 0.738 0.35464 0.0
H203 H 0.89652 0.79597 0.19811 0.0
H204 H 0.93918 0.78239 0.31369 0.0
C205 C 0.88329 0.71679 0.33717 0.0
C206 C 0.7242 0.39535 0.73372 0.0
C207 C 0.7423 0.36429 0.72555 0.0
H208 H 0.71746 0.44218 0.81028 0.0
C209 C 0.77135 0.35934 0.7812 0.0
H210 H 0.70188 0.40007 0.69128 0.0
C211 C 0.78045 0.3836 0.84811 0.0
C212 C 0.76061 0.4132 0.86109 0.0
H213 H 0.78633 0.33606 0.77546 0.0
H214 H 0.80189 0.37829 0.89301 0.0
C215 C 0.73327 0.41963 0.80121 0.0
C216 C 0.62976 0.22477 0.21794 0.0
C217 C 0.62636 0.2543 0.27318 0.0
H218 H 0.60938 0.19492 0.10641 0.0
C219 C 0.59639 0.27404 0.26488 0.0
H220 H 0.65215 0.20855 0.22382 0.0
C221 C 0.57176 0.26605 0.1975 0.0
C222 C 0.57678 0.23817 0.13797 0.0
H223 H 0.59287 0.29677 0.30703 0.0
H224 H 0.55014 0.28304 0.18815 0.0
C225 C 0.60518 0.21676 0.15117 0.0
C226 C 0.22413 0.09778 0.75684 0.0
C227 C 0.24249 0.12875 0.76984 0.0
H228 H 0.21705 0.05107 0.67808 0.0
C229 C 0.27173 0.13358 0.72181 0.0
H230 H 0.20166 0.09314 0.79343 0.0
C231 C 0.28071 0.10935 0.65702 0.0
C232 C 0.26058 0.0799 0.63863 0.0
H233 H 0.28691 0.15679 0.73153 0.0
H234 H 0.30225 0.11462 0.61756 0.0
C235 C 0.23309 0.07352 0.69148 0.0
C236 C 0.35959 0.76963 0.24525 0.0
C237 C 0.36301 0.74019 0.2945 0.0
H238 H 0.37994 0.79922 0.14536 0.0
C239 C 0.393 0.72045 0.28902 0.0
H240 H 0.33719 0.78583 0.24933 0.0
C241 C 0.41761 0.72832 0.22947 0.0
C242 C 0.41255 0.75605 0.17502 0.0
H243 H 0.39654 0.6978 0.3268 0.0
H244 H 0.43923 0.71131 0.22148 0.0
C245 C 0.38416 0.7775 0.18624 0.0
C246 C 0.76595 0.89557 0.79686 0.0
C247 C 0.74756 0.86462 0.79809 0.0
H248 H 0.77291 0.94227 0.73105 0.0
C249 C 0.71821 0.85981 0.74212 0.0
H250 H 0.78849 0.90017 0.8398 0.0
C251 C 0.70913 0.88404 0.68116 0.0
C252 C 0.72927 0.91348 0.67459 0.0
H253 H 0.70302 0.83662 0.74276 0.0
H254 H 0.68749 0.87881 0.63548 0.0
C255 C 0.75688 0.91983 0.7353 0.0
C256 C 0.86039 0.72411 0.74526 0.0
C257 C 0.86364 0.75387 0.80062 0.0
H258 H 0.88079 0.69426 0.63892 0.0
C259 C 0.89348 0.77392 0.79911 0.0
H260 H 0.83811 0.70768 0.74612 0.0
C261 C 0.91806 0.76602 0.73767 0.0
C262 C 0.91312 0.73796 0.67741 0.0
H263 H 0.89687 0.79682 0.84159 0.0
H264 H 0.93954 0.78326 0.733 0.0
C265 C 0.88492 0.71622 0.68439 0.0
C266 C 0.77216 0.36079 0.25486 0.0
C267 C 0.74266 0.36534 0.30312 0.0
H268 H 0.80295 0.37996 0.15587 0.0
C269 C 0.72414 0.39611 0.29698 0.0
H270 H 0.78746 0.33775 0.25956 0.0
C271 C 0.73319 0.42039 0.23756 0.0
C272 C 0.76093 0.41423 0.18395 0.0
H273 H 0.70148 0.40051 0.33398 0.0
H274 H 0.71704 0.44263 0.22891 0.0
C275 C 0.78123 0.38504 0.19603 0.0
C276 C 0.09648 0.21996 0.75493 0.0
C277 C 0.1267 0.2395 0.76725 0.0
H278 H 0.05002 0.21102 0.67673 0.0
C279 C 0.13043 0.26875 0.7182 0.0
H280 H 0.09269 0.19747 0.79232 0.0
C281 C 0.10587 0.27665 0.65328 0.0
C282 C 0.07717 0.25544 0.6358 0.0
H283 H 0.15301 0.28481 0.72734 0.0
H284 H 0.11028 0.29827 0.61316 0.0
C285 C 0.07188 0.22786 0.68945 0.0
C286 C 0.26505 0.59818 0.25656 0.0
C287 C 0.24694 0.62924 0.26471 0.0
H288 H 0.27181 0.55135 0.18002 0.0
C289 C 0.21789 0.63418 0.20903 0.0
H290 H 0.28736 0.59347 0.29902 0.0
C291 C 0.2088 0.60992 0.14212 0.0
C292 C 0.22865 0.58031 0.12916 0.0
H293 H 0.20291 0.65746 0.21475 0.0
H294 H 0.18737 0.61522 0.09719 0.0
C295 C 0.25599 0.5739 0.18907 0.0
C296 C 0.39282 0.71954 0.72539 0.0
C297 C 0.36284 0.73927 0.71707 0.0
H298 H 0.43907 0.71057 0.80213 0.0
C299 C 0.35943 0.76881 0.77228 0.0
H300 H 0.39635 0.69681 0.68326 0.0
C301 C 0.38401 0.77684 0.83905 0.0
C302 C 0.41242 0.75544 0.85227 0.0
H303 H 0.33704 0.78502 0.76639 0.0
H304 H 0.3798 0.79868 0.88379 0.0
C305 C 0.41744 0.72756 0.79277 0.0
C306 C 0.76511 0.89573 0.2336 0.0
C307 C 0.74675 0.86475 0.22062 0.0
H308 H 0.7722 0.94243 0.31235 0.0
C309 C 0.71751 0.85993 0.26867 0.0
H310 H 0.78757 0.90035 0.19699 0.0
C311 C 0.70854 0.88416 0.33347 0.0
C312 C 0.72868 0.91362 0.35184 0.0
H313 H 0.70233 0.83672 0.25897 0.0
H314 H 0.68701 0.8789 0.37295 0.0
C315 C 0.75616 0.91999 0.29896 0.0
C316 C 0.59619 0.27316 0.70124 0.0
C317 C 0.62617 0.2534 0.69574 0.0
H318 H 0.54997 0.28234 0.7688 0.0
C319 C 0.62955 0.22395 0.74497 0.0
H320 H 0.59267 0.29582 0.66349 0.0
C321 C 0.60499 0.2161 0.80398 0.0
C322 C 0.57662 0.23757 0.81522 0.0
H323 H 0.65194 0.20773 0.74087 0.0
H324 H 0.60919 0.19437 0.84484 0.0
C325 C 0.57158 0.26531 0.76079 0.0
C326 C 0.22332 0.09795 0.19359 0.0
C327 C 0.24169 0.1289 0.19237 0.0
H328 H 0.21637 0.05125 0.25938 0.0
C329 C 0.27102 0.13374 0.24836 0.0
H330 H 0.20078 0.09334 0.15063 0.0
C331 C 0.28012 0.10951 0.30933 0.0
C332 C 0.26 0.08006 0.31588 0.0
H333 H 0.28621 0.15693 0.24773 0.0
H334 H 0.30175 0.11475 0.35502 0.0
C335 C 0.23239 0.07369 0.25515 0.0
C336 C 0.22563 0.3615 0.92733 0.0
C337 C 0.22601 0.34327 0.00479 0.0
H338 H 0.22441 0.41058 0.87054 0.0
C339 C 0.22458 0.36169 0.08615 0.0
H340 H 0.22663 0.3482 0.86354 0.0
C341 C 0.22329 0.39749 0.08989 0.0
C342 C 0.2234 0.41552 0.01284 0.0
H343 H 0.22474 0.34853 0.14712 0.0
H344 H 0.22251 0.41125 0.15313 0.0
C345 C 0.22437 0.39728 0.93125 0.0
C346 C 0.13033 0.73387 0.55571 0.0
C347 C 0.14854 0.73362 0.47833 0.0
H348 H 0.08135 0.73418 0.61223 0.0
C349 C 0.13017 0.73303 0.39666 0.0
H350 H 0.14359 0.73429 0.61973 0.0
C351 C 0.09444 0.73296 0.39264 0.0
C352 C 0.07644 0.73351 0.46973 0.0
H353 H 0.14332 0.73277 0.33573 0.0
H354 H 0.08072 0.73265 0.32922 0.0
C355 C 0.09463 0.73383 0.55152 0.0
C356 C 0.76459 0.63183 0.90421 0.0
C357 C 0.76316 0.65024 -0.01443 0.0
H358 H 0.76667 0.58227 0.8372 0.0
C359 C 0.76355 0.63201 0.06303 0.0
H360 H 0.76442 0.64499 0.84324 0.0
C361 C 0.76483 0.59623 0.05909 0.0
C362 C 0.7658 0.57799 0.9775 0.0
H363 H 0.76256 0.6453 0.12683 0.0
H364 H 0.7648 0.58292 0.11979 0.0
C365 C 0.76589 0.59603 0.90045 0.0
C366 C 0.85887 0.25958 0.43464 0.0
C367 C 0.84065 0.25984 0.51201 0.0
H368 H 0.90785 0.25925 0.37814 0.0
C369 C 0.85901 0.26043 0.59369 0.0
H370 H 0.84561 0.25917 0.37061 0.0
C371 C 0.89474 0.26048 0.59772 0.0
C372 C 0.91274 0.25992 0.52065 0.0
H373 H 0.84586 0.26069 0.65461 0.0
H374 H 0.90845 0.26079 0.66115 0.0
C375 C 0.89456 0.2596 0.43884 0.0
C376 C 0.72574 0.13175 0.55889 0.0
C377 C 0.726 0.15033 0.48209 0.0
H378 H 0.72468 0.08237 0.6139 0.0
C379 C 0.72449 0.13226 0.39989 0.0
H380 H 0.72681 0.14478 0.62327 0.0
C381 C 0.72326 0.09645 0.39479 0.0
C382 C 0.72351 0.07807 0.47129 0.0
H383 H 0.72455 0.1457 0.33937 0.0
H384 H 0.72242 0.08297 0.33098 0.0
C385 C 0.72454 0.09596 0.55362 0.0
C386 C 0.35859 0.23338 0.09014 0.0
C387 C 0.34049 0.23394 0.00822 0.0
H388 H 0.40782 0.233 0.15859 0.0
C389 C 0.35898 0.23413 0.93134 0.0
H390 H 0.34523 0.23316 0.15069 0.0
C391 C 0.39468 0.23407 0.93633 0.0
C392 C 0.41259 0.23376 0.01844 0.0
H393 H 0.34593 0.23452 0.86715 0.0
H394 H 0.40817 0.23436 0.87604 0.0
C395 C 0.39431 0.23329 0.09495 0.0
C396 C 0.26342 0.86178 0.43146 0.0
C397 C 0.26316 0.84319 0.50825 0.0
H398 H 0.26451 0.91116 0.37648 0.0
C399 C 0.26466 0.86126 0.59046 0.0
H400 H 0.26236 0.84876 0.36707 0.0
C401 C 0.26591 0.89706 0.59558 0.0
C402 C 0.26567 0.91545 0.51909 0.0
H403 H 0.26459 0.84781 0.65097 0.0
H404 H 0.26675 0.91054 0.6594 0.0
C405 C 0.26464 0.89757 0.43675 0.0
C406 C 0.63021 0.75944 0.05903 0.0
C407 C 0.6487 0.75963 0.98217 0.0
H408 H 0.58101 0.75924 0.11431 0.0
C409 C 0.63061 0.7602 0.90024 0.0
H410 H 0.64325 0.75905 0.12323 0.0
C411 C 0.59488 0.7603 0.89541 0.0
C412 C 0.5766 0.75984 0.97191 0.0
H413 H 0.64398 0.76041 0.8397 0.0
H414 H 0.58139 0.76061 0.83176 0.0
C415 C 0.59451 0.75953 0.05403 0.0
loop_
_geom_bond_atom_site_label_1
_geom_bond_atom_site_label_2
_geom_bond_distance
_geom_bond_site_symmetry_2
_ccdc_geom_bond_type
Sc0 O3 2.025 . S
Sc0 O10 2.105 . S
Sc0 O13 2.105 . S
Sc0 O16 2.105 . S
Sc0 O19 2.105 . S
Sc1 O3 2.025 . S
Sc1 O11 2.114 . S
Sc1 O15 2.096 1_554 S
Sc1 O17 2.114 . S
Sc1 O21 2.096 1_554 S
Sc2 O3 2.025 1_556 S
Sc2 O12 2.105 . S
Sc2 O14 2.105 . S
Sc2 O18 2.105 . S
Sc2 O20 2.105 . S
O3 Sc0 2.025 . S
O3 Sc1 2.025 . S
O3 Sc2 2.025 1_554 S
C4 O10 1.268 . S
C4 O20 1.268 1_554 S
C5 O11 1.268 . S
C5 O19 1.268 . S
C6 O12 1.268 . S
C6 O21 1.268 . S
C7 O13 1.268 . S
C7 O17 1.268 . S
C8 O14 1.268 1_554 S
C8 O16 1.268 . S
C9 O15 1.268 . S
C9 O18 1.268 . S
O10 Sc0 2.105 . S
O10 C4 1.268 . S
O11 Sc1 2.114 . S
O11 C5 1.268 . S
O12 Sc2 2.105 . S
O12 C6 1.268 . S
O13 Sc0 2.105 . S
O13 C7 1.268 . S
O14 Sc2 2.105 . S
O14 C8 1.268 1_556 S
O15 Sc1 2.096 1_556 S
O15 C9 1.268 . S
O16 Sc0 2.105 . S
O16 C8 1.268 . S
O17 Sc1 2.114 . S
O17 C7 1.268 . S
O18 Sc2 2.105 . S
O18 C9 1.268 . S
O19 Sc0 2.105 . S
O19 C5 1.268 . S
O20 Sc2 2.105 . S
O20 C4 1.268 1_556 S
O21 Sc1 2.096 1_556 S
O21 C6 1.268 . S
Sc22 O25 2.025 . S
Sc22 O32 2.105 . S
Sc22 O35 2.105 . S
Sc22 O38 2.105 . S
Sc22 O41 2.105 . S
Sc23 O25 2.025 . S
Sc23 O33 2.105 . S
Sc23 O37 2.105 . S
Sc23 O39 2.105 . S
Sc23 O43 2.105 . S
Sc24 O25 2.025 . S
Sc24 O34 2.105 . S
Sc24 O36 2.105 . S
Sc24 O40 2.105 . S
Sc24 O42 2.105 . S
O25 Sc22 2.025 . S
O25 Sc23 2.025 . S
O25 Sc24 2.025 . S
C26 O32 1.268 . S
C26 O42 1.268 . S
C27 O33 1.268 . S
C27 O41 1.268 . S
C28 O34 1.268 . S
C28 O43 1.268 . S
C29 O35 1.268 . S
C29 O39 1.268 . S
C30 O36 1.268 . S
C30 O38 1.268 . S
C31 O37 1.268 . S
C31 O40 1.268 . S
O32 Sc22 2.105 . S
O32 C26 1.268 . S
O33 Sc23 2.105 . S
O33 C27 1.268 . S
O34 Sc24 2.105 . S
O34 C28 1.268 . S
O35 Sc22 2.105 . S
O35 C29 1.268 . S
O36 Sc24 2.105 . S
O36 C30 1.268 . S
O37 Sc23 2.105 . S
O37 C31 1.268 . S
O38 Sc22 2.105 . S
O38 C30 1.268 . S
O39 Sc23 2.105 . S
O39 C29 1.268 . S
O40 Sc24 2.105 . S
O40 C31 1.268 . S
O41 Sc22 2.105 . S
O41 C27 1.268 . S
O42 Sc24 2.105 . S
O42 C26 1.268 . S
O43 Sc23 2.105 . S
O43 C28 1.268 . S
Sc44 O47 2.025 1_556 S
Sc44 O54 2.105 . S
Sc44 O57 2.105 . S
Sc44 O60 2.105 . S
Sc44 O63 2.105 . S
Sc45 O47 2.025 . S
Sc45 O55 2.105 1_554 S
Sc45 O59 2.105 . S
Sc45 O61 2.105 1_554 S
Sc45 O65 2.105 . S
Sc46 O47 2.025 . S
Sc46 O56 2.105 . S
Sc46 O58 2.105 . S
Sc46 O62 2.105 . S
Sc46 O64 2.105 . S
O47 Sc44 2.025 1_554 S
O47 Sc45 2.025 . S
O47 Sc46 2.025 . S
C48 O54 1.268 1_554 S
C48 O64 1.268 . S
C49 O55 1.268 . S
C49 O63 1.268 . S
C50 O56 1.268 . S
C50 O65 1.268 . S
C51 O57 1.268 . S
C51 O61 1.268 . S
C52 O58 1.268 . S
C52 O60 1.268 1_554 S
C53 O59 1.268 . S
C53 O62 1.268 . S
O54 Sc44 2.105 . S
O54 C48 1.268 1_556 S
O55 Sc45 2.105 1_556 S
O55 C49 1.268 . S
O56 Sc46 2.105 . S
O56 C50 1.268 . S
O57 Sc44 2.105 . S
O57 C51 1.268 . S
O58 Sc46 2.105 . S
O58 C52 1.268 . S
O59 Sc45 2.105 . S
O59 C53 1.268 . S
O60 Sc44 2.105 . S
O60 C52 1.268 1_556 S
O61 Sc45 2.105 1_556 S
O61 C51 1.268 . S
O62 Sc46 2.105 . S
O62 C53 1.268 . S
O63 Sc44 2.105 . S
O63 C49 1.268 . S
O64 Sc46 2.105 . S
O64 C48 1.268 . S
O65 Sc45 2.105 . S
O65 C50 1.268 . S
Sc66 O69 2.025 . S
Sc66 O76 2.105 . S
Sc66 O79 2.105 . S
Sc66 O82 2.105 . S
Sc66 O85 2.105 . S
Sc67 O69 2.025 . S
Sc67 O77 2.105 . S
Sc67 O81 2.105 . S
Sc67 O83 2.105 . S
Sc67 O87 2.105 . S
Sc68 O69 2.025 . S
Sc68 O78 2.105 . S
Sc68 O80 2.105 . S
Sc68 O84 2.105 . S
Sc68 O86 2.105 . S
O69 Sc66 2.025 . S
O69 Sc67 2.025 . S
O69 Sc68 2.025 . S
C70 O76 1.268 . S
C70 O86 1.268 . S
C71 O77 1.268 . S
C71 O85 1.268 . S
C72 O78 1.268 . S
C72 O87 1.268 . S
C73 O79 1.268 . S
C73 O83 1.268 . S
C74 O80 1.268 . S
C74 O82 1.268 . S
C75 O81 1.268 . S
C75 O84 1.268 . S
O76 Sc66 2.105 . S
O76 C70 1.268 . S
O77 Sc67 2.105 . S
O77 C71 1.268 . S
O78 Sc68 2.105 . S
O78 C72 1.268 . S
O79 Sc66 2.105 . S
O79 C73 1.268 . S
O80 Sc68 2.105 . S
O80 C74 1.268 . S
O81 Sc67 2.105 . S
O81 C75 1.268 . S
O82 Sc66 2.105 . S
O82 C74 1.268 . S
O83 Sc67 2.105 . S
O83 C73 1.268 . S
O84 Sc68 2.105 . S
O84 C75 1.268 . S
O85 Sc66 2.105 . S
O85 C71 1.268 . S
O86 Sc68 2.105 . S
O86 C70 1.268 . S
O87 Sc67 2.105 . S
O87 C72 1.268 . S
H88 C93 0.929 . S
H89 C98 0.931 . S
H90 C96 0.930 . S
N91 N92 1.234 1_556 S
N91 C95 1.453 . S
N92 N91 1.234 1_554 S
C93 H88 0.929 . S
C93 C94 1.373 . S
C93 C95 1.368 . S
C94 C93 1.373 . S
C94 C98 1.397 1_556 S
C95 N91 1.453 . S
C95 C93 1.368 . S
C95 C96 1.373 1_556 S
C96 H90 0.930 . S
C96 C95 1.373 1_554 S
C96 C97 1.371 . S
C97 C96 1.371 . S
C97 C98 1.383 . S
C98 H89 0.931 . S
C98 C94 1.397 1_554 S
C98 C97 1.383 . S
H99 C104 0.929 . S
H100 C109 0.931 . S
H101 C107 0.931 . S
N102 N103 1.234 . S
N102 C106 1.453 . S
N103 N102 1.234 . S
C104 H99 0.929 . S
C104 C105 1.373 . S
C104 C106 1.368 1_655 S
C105 C104 1.373 . S
C105 C109 1.397 . S
C106 N102 1.453 . S
C106 C104 1.368 1_455 S
C106 C107 1.373 1_455 S
C107 H101 0.931 . S
C107 C106 1.373 1_655 S
C107 C108 1.371 . S
C108 C107 1.371 . S
C108 C109 1.383 . S
C109 H100 0.931 . S
C109 C105 1.397 . S
C109 C108 1.383 . S
H110 C115 0.929 . S
H111 C120 0.931 . S
H112 C118 0.930 . S
N113 N114 1.234 . S
N113 C117 1.453 . S
N114 N113 1.234 . S
C115 H110 0.929 . S
C115 C116 1.373 . S
C115 C117 1.368 . S
C116 C115 1.373 . S
C116 C120 1.397 . S
C117 N113 1.453 . S
C117 C115 1.368 . S
C117 C118 1.373 1_554 S
C118 H112 0.930 . S
C118 C117 1.373 1_556 S
C118 C119 1.371 . S
C119 C118 1.371 . S
C119 C120 1.383 1_556 S
C120 H111 0.931 . S
C120 C116 1.397 . S
C120 C119 1.383 1_554 S
H121 C126 0.929 . S
H122 C131 0.931 . S
H123 C129 0.930 . S
N124 N125 1.234 . S
N124 C128 1.453 1_655 S
N125 N124 1.234 . S
C126 H121 0.929 . S
C126 C127 1.373 . S
C126 C128 1.368 . S
C127 C126 1.373 . S
C127 C131 1.397 . S
C128 N124 1.453 1_455 S
C128 C126 1.368 . S
C128 C129 1.373 . S
C129 H123 0.930 . S
C129 C128 1.373 . S
C129 C130 1.371 . S
C130 C129 1.371 . S
C130 C131 1.383 . S
C131 H122 0.931 . S
C131 C127 1.397 . S
C131 C130 1.383 . S
H132 C137 0.929 . S
H133 C142 0.931 . S
H134 C140 0.930 . S
N135 N136 1.234 . S
N135 C139 1.421 1_545 S
N136 N135 1.234 . S
C137 H132 0.929 . S
C137 C138 1.373 . S
C137 C139 1.388 . S
C138 C137 1.373 . S
C138 C142 1.397 . S
C139 N135 1.421 1_565 S
C139 C137 1.388 . S
C139 C140 1.386 . S
C140 H134 0.930 . S
C140 C139 1.386 . S
C140 C141 1.371 . S
C141 C140 1.371 . S
C141 C142 1.383 . S
C142 H133 0.931 . S
C142 C138 1.397 . S
C142 C141 1.383 . S
H143 C148 0.929 . S
H144 C153 0.931 . S
H145 C151 0.930 . S
N146 N147 1.234 1_556 S
N146 C150 1.453 . S
N147 N146 1.234 1_554 S
C148 H143 0.929 . S
C148 C149 1.373 . S
C148 C150 1.368 . S
C149 C148 1.373 . S
C149 C153 1.397 1_556 S
C150 N146 1.453 . S
C150 C148 1.368 . S
C150 C151 1.373 1_556 S
C151 H145 0.930 . S
C151 C150 1.373 1_554 S
C151 C152 1.371 . S
C152 C151 1.371 . S
C152 C153 1.383 . S
C153 H144 0.931 . S
C153 C149 1.397 1_554 S
C153 C152 1.383 . S
H154 C159 0.929 . S
H155 C164 0.931 . S
H156 C162 0.939 . S
N157 N158 1.234 . S
N157 C161 1.476 . S
N158 N157 1.234 . S
C159 H154 0.929 . S
C159 C160 1.373 . S
C159 C161 1.354 1_545 S
C160 C159 1.373 . S
C160 C164 1.397 . S
C161 N157 1.476 . S
C161 C159 1.354 1_565 S
C161 C162 1.364 1_565 S
C162 H156 0.939 . S
C162 C161 1.364 1_545 S
C162 C163 1.371 . S
C163 C162 1.371 . S
C163 C164 1.383 . S
C164 H155 0.931 . S
C164 C160 1.397 . S
C164 C163 1.383 . S
H165 C170 0.929 . S
H166 C175 0.931 . S
H167 C173 0.930 . S
N168 N169 1.234 . S
N168 C172 1.453 . S
N169 N168 1.234 . S
C170 H165 0.929 . S
C170 C171 1.373 . S
C170 C172 1.368 . S
C171 C170 1.373 . S
C171 C175 1.397 . S
C172 N168 1.453 . S
C172 C170 1.368 . S
C172 C173 1.373 1_554 S
C173 H167 0.930 . S
C173 C172 1.373 1_556 S
C173 C174 1.371 . S
C174 C173 1.371 . S
C174 C175 1.383 1_556 S
C175 H166 0.931 . S
C175 C171 1.397 . S
C175 C174 1.383 1_554 S
C176 C177 1.387 . S
C176 H180 0.950 . S
C176 C185 1.390 . S
C177 C176 1.387 . S
C177 C179 1.387 . S
H178 C185 0.950 . S
C179 C177 1.387 . S
C179 C181 1.390 . S
C179 H183 0.950 . S
H180 C176 0.950 . S
C181 C179 1.390 . S
C181 C182 1.387 . S
C181 H184 0.950 . S
C182 C181 1.387 . S
C182 C185 1.387 . S
H183 C179 0.950 . S
H184 C181 0.950 . S
C185 C176 1.390 . S
C185 H178 0.950 . S
C185 C182 1.387 . S
C186 C187 1.387 . S
C186 H190 0.950 . S
C186 C195 1.390 . S
C187 C186 1.387 . S
C187 C189 1.387 . S
H188 C195 0.950 . S
C189 C187 1.387 . S
C189 C191 1.390 . S
C189 H193 0.950 . S
H190 C186 0.950 . S
C191 C189 1.390 . S
C191 C192 1.387 . S
C191 H194 0.950 . S
C192 C191 1.387 . S
C192 C195 1.387 . S
H193 C189 0.950 . S
H194 C191 0.950 . S
C195 C186 1.390 . S
C195 H188 0.950 . S
C195 C192 1.387 . S
C196 C197 1.387 . S
C196 H200 0.950 . S
C196 C205 1.390 . S
C197 C196 1.387 . S
C197 C199 1.387 . S
H198 C205 0.950 . S
C199 C197 1.387 . S
C199 C201 1.390 . S
C199 H203 0.950 . S
H200 C196 0.950 . S
C201 C199 1.390 . S
C201 C202 1.387 . S
C201 H204 0.950 . S
C202 C201 1.387 . S
C202 C205 1.387 . S
H203 C199 0.950 . S
H204 C201 0.950 . S
C205 C196 1.390 . S
C205 H198 0.950 . S
C205 C202 1.387 . S
C206 C207 1.387 . S
C206 H210 0.950 . S
C206 C215 1.390 . S
C207 C206 1.387 . S
C207 C209 1.387 . S
H208 C215 0.950 . S
C209 C207 1.387 . S
C209 C211 1.390 . S
C209 H213 0.950 . S
H210 C206 0.950 . S
C211 C209 1.390 . S
C211 C212 1.387 . S
C211 H214 0.950 . S
C212 C211 1.387 . S
C212 C215 1.387 . S
H213 C209 0.950 . S
H214 C211 0.950 . S
C215 C206 1.390 . S
C215 H208 0.950 . S
C215 C212 1.387 . S
C216 C217 1.387 . S
C216 H220 0.950 . S
C216 C225 1.390 . S
C217 C216 1.387 . S
C217 C219 1.387 . S
H218 C225 0.950 . S
C219 C217 1.387 . S
C219 C221 1.390 . S
C219 H223 0.950 . S
H220 C216 0.950 . S
C221 C219 1.390 . S
C221 C222 1.387 . S
C221 H224 0.950 . S
C222 C221 1.387 . S
C222 C225 1.387 . S
H223 C219 0.950 . S
H224 C221 0.950 . S
C225 C216 1.390 . S
C225 H218 0.950 . S
C225 C222 1.387 . S
C226 C227 1.387 . S
C226 H230 0.950 . S
C226 C235 1.390 . S
C227 C226 1.387 . S
C227 C229 1.387 . S
H228 C235 0.950 . S
C229 C227 1.387 . S
C229 C231 1.390 . S
C229 H233 0.950 . S
H230 C226 0.950 . S
C231 C229 1.390 . S
C231 C232 1.387 . S
C231 H234 0.950 . S
C232 C231 1.387 . S
C232 C235 1.387 . S
H233 C229 0.950 . S
H234 C231 0.950 . S
C235 C226 1.390 . S
C235 H228 0.950 . S
C235 C232 1.387 . S
C236 C237 1.387 . S
C236 H240 0.950 . S
C236 C245 1.390 . S
C237 C236 1.387 . S
C237 C239 1.387 . S
H238 C245 0.950 . S
C239 C237 1.387 . S
C239 C241 1.390 . S
C239 H243 0.950 . S
H240 C236 0.950 . S
C241 C239 1.390 . S
C241 C242 1.387 . S
C241 H244 0.950 . S
C242 C241 1.387 . S
C242 C245 1.387 . S
H243 C239 0.950 . S
H244 C241 0.950 . S
C245 C236 1.390 . S
C245 H238 0.950 . S
C245 C242 1.387 . S
C246 C247 1.387 . S
C246 H250 0.950 . S
C246 C255 1.390 . S
C247 C246 1.387 . S
C247 C249 1.387 . S
H248 C255 0.950 . S
C249 C247 1.387 . S
C249 C251 1.390 . S
C249 H253 0.950 . S
H250 C246 0.950 . S
C251 C249 1.390 . S
C251 C252 1.387 . S
C251 H254 0.950 . S
C252 C251 1.387 . S
C252 C255 1.387 . S
H253 C249 0.950 . S
H254 C251 0.950 . S
C255 C246 1.390 . S
C255 H248 0.950 . S
C255 C252 1.387 . S
C256 C257 1.387 . S
C256 H260 0.950 . S
C256 C265 1.390 . S
C257 C256 1.387 . S
C257 C259 1.387 . S
H258 C265 0.950 . S
C259 C257 1.387 . S
C259 C261 1.390 . S
C259 H263 0.950 . S
H260 C256 0.950 . S
C261 C259 1.390 . S
C261 C262 1.387 . S
C261 H264 0.950 . S
C262 C261 1.387 . S
C262 C265 1.387 . S
H263 C259 0.950 . S
H264 C261 0.950 . S
C265 C256 1.390 . S
C265 H258 0.950 . S
C265 C262 1.387 . S
C266 C267 1.387 . S
C266 H270 0.950 . S
C266 C275 1.390 . S
C267 C266 1.387 . S
C267 C269 1.387 . S
H268 C275 0.950 . S
C269 C267 1.387 . S
C269 C271 1.390 . S
C269 H273 0.950 . S
H270 C266 0.950 . S
C271 C269 1.390 . S
C271 C272 1.387 . S
C271 H274 0.950 . S
C272 C271 1.387 . S
C272 C275 1.387 . S
H273 C269 0.950 . S
H274 C271 0.950 . S
C275 C266 1.390 . S
C275 H268 0.950 . S
C275 C272 1.387 . S
C276 C277 1.387 . S
C276 H280 0.950 . S
C276 C285 1.390 . S
C277 C276 1.387 . S
C277 C279 1.387 . S
H278 C285 0.950 . S
C279 C277 1.387 . S
C279 C281 1.390 . S
C279 H283 0.950 . S
H280 C276 0.950 . S
C281 C279 1.390 . S
C281 C282 1.387 . S
C281 H284 0.950 . S
C282 C281 1.387 . S
C282 C285 1.387 . S
H283 C279 0.950 . S
H284 C281 0.950 . S
C285 C276 1.390 . S
C285 H278 0.950 . S
C285 C282 1.387 . S
C286 C287 1.387 . S
C286 H290 0.950 . S
C286 C295 1.390 . S
C287 C286 1.387 . S
C287 C289 1.387 . S
H288 C295 0.950 . S
C289 C287 1.387 . S
C289 C291 1.390 . S
C289 H293 0.950 . S
H290 C286 0.950 . S
C291 C289 1.390 . S
C291 C292 1.387 . S
C291 H294 0.950 . S
C292 C291 1.387 . S
C292 C295 1.387 . S
H293 C289 0.950 . S
H294 C291 0.950 . S
C295 C286 1.390 . S
C295 H288 0.950 . S
C295 C292 1.387 . S
C296 C297 1.387 . S
C296 H300 0.950 . S
C296 C305 1.390 . S
C297 C296 1.387 . S
C297 C299 1.387 . S
H298 C305 0.950 . S
C299 C297 1.387 . S
C299 C301 1.390 . S
C299 H303 0.950 . S
H300 C296 0.950 . S
C301 C299 1.390 . S
C301 C302 1.387 . S
C301 H304 0.950 . S
C302 C301 1.387 . S
C302 C305 1.387 . S
H303 C299 0.950 . S
H304 C301 0.950 . S
C305 C296 1.390 . S
C305 H298 0.950 . S
C305 C302 1.387 . S
C306 C307 1.387 . S
C306 H310 0.950 . S
C306 C315 1.390 . S
C307 C306 1.387 . S
C307 C309 1.387 . S
H308 C315 0.950 . S
C309 C307 1.387 . S
C309 C311 1.390 . S
C309 H313 0.950 . S
H310 C306 0.950 . S
C311 C309 1.390 . S
C311 C312 1.387 . S
C311 H314 0.950 . S
C312 C311 1.387 . S
C312 C315 1.387 . S
H313 C309 0.950 . S
H314 C311 0.950 . S
C315 C306 1.390 . S
C315 H308 0.950 . S
C315 C312 1.387 . S
C316 C317 1.387 . S
C316 H320 0.950 . S
C316 C325 1.390 . S
C317 C316 1.387 . S
C317 C319 1.387 . S
H318 C325 0.950 . S
C319 C317 1.387 . S
C319 C321 1.390 . S
C319 H323 0.950 . S
H320 C316 0.950 . S
C321 C319 1.390 . S
C321 C322 1.387 . S
C321 H324 0.950 . S
C322 C321 1.387 . S
C322 C325 1.387 . S
H323 C319 0.950 . S
H324 C321 0.950 . S
C325 C316 1.390 . S
C325 H318 0.950 . S
C325 C322 1.387 . S
C326 C327 1.387 . S
C326 H330 0.950 . S
C326 C335 1.390 . S
C327 C326 1.387 . S
C327 C329 1.387 . S
H328 C335 0.950 . S
C329 C327 1.387 . S
C329 C331 1.390 . S
C329 H333 0.950 . S
H330 C326 0.950 . S
C331 C329 1.390 . S
C331 C332 1.387 . S
C331 H334 0.950 . S
C332 C331 1.387 . S
C332 C335 1.387 . S
H333 C329 0.950 . S
H334 C331 0.950 . S
C335 C326 1.390 . S
C335 H328 0.950 . S
C335 C332 1.387 . S
C336 C337 1.387 1_556 S
C336 H340 0.950 . S
C336 C345 1.390 . S
C337 C336 1.387 1_554 S
C337 C339 1.387 . S
H338 C345 0.950 . S
C339 C337 1.387 . S
C339 C341 1.390 . S
C339 H343 0.950 . S
H340 C336 0.950 . S
C341 C339 1.390 . S
C341 C342 1.387 . S
C341 H344 0.950 . S
C342 C341 1.387 . S
C342 C345 1.387 1_554 S
H343 C339 0.950 . S
H344 C341 0.950 . S
C345 C336 1.390 . S
C345 H338 0.950 . S
C345 C342 1.387 1_556 S
C346 C347 1.387 . S
C346 H350 0.950 . S
C346 C355 1.390 . S
C347 C346 1.387 . S
C347 C349 1.387 . S
H348 C355 0.950 . S
C349 C347 1.387 . S
C349 C351 1.390 . S
C349 H353 0.950 . S
H350 C346 0.950 . S
C351 C349 1.390 . S
C351 C352 1.387 . S
C351 H354 0.950 . S
C352 C351 1.387 . S
C352 C355 1.387 . S
H353 C349 0.950 . S
H354 C351 0.950 . S
C355 C346 1.390 . S
C355 H348 0.950 . S
C355 C352 1.387 . S
C356 C357 1.387 1_556 S
C356 H360 0.950 . S
C356 C365 1.390 . S
C357 C356 1.387 1_554 S
C357 C359 1.387 . S
H358 C365 0.950 . S
C359 C357 1.387 . S
C359 C361 1.390 . S
C359 H363 0.950 . S
H360 C356 0.950 . S
C361 C359 1.390 . S
C361 C362 1.387 . S
C361 H364 0.950 . S
C362 C361 1.387 . S
C362 C365 1.387 1_554 S
H363 C359 0.950 . S
H364 C361 0.950 . S
C365 C356 1.390 . S
C365 H358 0.950 . S
C365 C362 1.387 1_556 S
C366 C367 1.387 . S
C366 H370 0.950 . S
C366 C375 1.390 . S
C367 C366 1.387 . S
C367 C369 1.387 . S
H368 C375 0.950 . S
C369 C367 1.387 . S
C369 C371 1.390 . S
C369 H373 0.950 . S
H370 C366 0.950 . S
C371 C369 1.390 . S
C371 C372 1.387 . S
C371 H374 0.950 . S
C372 C371 1.387 . S
C372 C375 1.387 . S
H373 C369 0.950 . S
H374 C371 0.950 . S
C375 C366 1.390 . S
C375 H368 0.950 . S
C375 C372 1.387 . S
C376 C377 1.387 . S
C376 H380 0.950 . S
C376 C385 1.390 . S
C377 C376 1.387 . S
C377 C379 1.387 . S
H378 C385 0.950 . S
C379 C377 1.387 . S
C379 C381 1.390 . S
C379 H383 0.950 . S
H380 C376 0.950 . S
C381 C379 1.390 . S
C381 C382 1.387 . S
C381 H384 0.950 . S
C382 C381 1.387 . S
C382 C385 1.387 . S
H383 C379 0.950 . S
H384 C381 0.950 . S
C385 C376 1.390 . S
C385 H378 0.950 . S
C385 C382 1.387 . S
C386 C387 1.387 . S
C386 H390 0.950 . S
C386 C395 1.390 . S
C387 C386 1.387 . S
C387 C389 1.387 1_554 S
H388 C395 0.950 . S
C389 C387 1.387 1_556 S
C389 C391 1.390 . S
C389 H393 0.950 . S
H390 C386 0.950 . S
C391 C389 1.390 . S
C391 C392 1.387 1_556 S
C391 H394 0.950 . S
C392 C391 1.387 1_554 S
C392 C395 1.387 . S
H393 C389 0.950 . S
H394 C391 0.950 . S
C395 C386 1.390 . S
C395 H388 0.950 . S
C395 C392 1.387 . S
C396 C397 1.387 . S
C396 H400 0.950 . S
C396 C405 1.390 . S
C397 C396 1.387 . S
C397 C399 1.387 . S
H398 C405 0.950 . S
C399 C397 1.387 . S
C399 C401 1.390 . S
C399 H403 0.950 . S
H400 C396 0.950 . S
C401 C399 1.390 . S
C401 C402 1.387 . S
C401 H404 0.950 . S
C402 C401 1.387 . S
C402 C405 1.387 . S
H403 C399 0.950 . S
H404 C401 0.950 . S
C405 C396 1.390 . S
C405 H398 0.950 . S
C405 C402 1.387 . S
C406 C407 1.387 . S
C406 H410 0.950 . S
C406 C415 1.390 . S
C407 C406 1.387 . S
C407 C409 1.387 1_554 S
H408 C415 0.950 . S
C409 C407 1.387 1_556 S
C409 C411 1.390 . S
C409 H413 0.950 . S
H410 C406 0.950 . S
C411 C409 1.390 . S
C411 C412 1.387 1_556 S
C411 H414 0.950 . S
C412 C411 1.387 1_554 S
C412 C415 1.387 . S
H413 C409 0.950 . S
H414 C411 0.950 . S
C415 C406 1.390 . S
C415 H408 0.950 . S
C415 C412 1.387 . S
C177 C5 1.451 . S
C182 C127 1.467 . S
C187 C31 1.472 . S
C192 C94 1.482 . S
C202 C108 1.477 . S
C197 C53 1.500 . S
C207 C71 1.480 . S
C212 C119 1.461 . S
C222 C152 1.462 . S
C217 C75 1.479 . S
C232 C163 1.475 . S
C227 C9 1.501 . S
C242 C171 1.482 . S
C237 C27 1.471 . S
C252 C138 1.466 . S
C247 C49 1.452 . S
C257 C51 1.452 . S
C262 C105 1.458 . S
C267 C72 1.473 . S
C272 C116 1.471 . S
C277 C6 1.501 . S
C282 C130 1.481 . S
C292 C97 1.468 . S
C287 C29 1.478 . S
C297 C28 1.479 . S
C302 C174 1.467 . S
C312 C141 1.483 . S
C307 C50 1.499 . S
C322 C149 1.472 . S
C317 C73 1.471 . S
C327 C7 1.450 . S
C332 C160 1.459 . S
C342 N92 1.506 . S
C337 C4 1.507 . S
C352 N103 1.510 . S
C347 C30 1.508 . S
C357 C52 1.507 . S
C362 N114 1.512 . S
C367 C70 1.507 . S
C372 N125 1.506 . S
C382 N136 1.506 . S
C377 C74 1.507 . S
C387 C8 1.507 . S
C392 N147 1.512 . S
C397 C26 1.508 . S
C402 N158 1.510 . S
C407 C48 1.507 . S
C412 N169 1.506 . S
