# Generated by pormake.
# Topology ptr, (4,4)-cn, num edge types: 1
# Building blocks:
#     Node 0, Type 0, BuildingBlock: NAHDIM_clean_sbu_0, # of connection points: 4
#     Node 1, Type 0, BuildingBlock: NAHDIM_clean_sbu_0, # of connection points: 4
#     Node 2, Type 0, BuildingBlock: NAHDIM_clean_sbu_0, # of connection points: 4
#     Node 3, Type 0, BuildingBlock: NAHDIM_clean_sbu_0, # of connection points: 4
#     Node 4, Type 0, BuildingBlock: NAHDIM_clean_sbu_0, # of connection points: 4
#     Node 5, Type 0, BuildingBlock: NAHDIM_clean_sbu_0, # of connection points: 4
#     Node 6, Type 0, BuildingBlock: NAHDIM_clean_sbu_0, # of connection points: 4
#     Node 7, Type 0, BuildingBlock: NAHDIM_clean_sbu_0, # of connection points: 4
#     Node 8, Type 0, BuildingBlock: NAHDIM_clean_sbu_0, # of connection points: 4
#     Node 9, Type 0, BuildingBlock: NAHDIM_clean_sbu_0, # of connection points: 4
#     Node 10, Type 0, BuildingBlock: NAHDIM_clean_sbu_0, # of connection points: 4
#     Node 11, Type 0, BuildingBlock: NAHDIM_clean_sbu_0, # of connection points: 4
#     Node 12, Type 0, BuildingBlock: NAHDIM_clean_sbu_0, # of connection points: 4
#     Node 13, Type 0, BuildingBlock: NAHDIM_clean_sbu_0, # of connection points: 4
#     Node 14, Type 0, BuildingBlock: NAHDIM_clean_sbu_0, # of connection points: 4
#     Node 15, Type 0, BuildingBlock: NAHDIM_clean_sbu_0, # of connection points: 4
#     Node 16, Type 0, BuildingBlock: NAHDIM_clean_sbu_0, # of connection points: 4
#     Node 17, Type 0, BuildingBlock: NAHDIM_clean_sbu_0, # of connection points: 4
#     Node 18, Type 1, BuildingBlock: NAWXER_clean_linker_0, # of connection points: 4
#     Node 19, Type 1, BuildingBlock: NAWXER_clean_linker_0, # of connection points: 4
#     Node 20, Type 1, BuildingBlock: NAWXER_clean_linker_0, # of connection points: 4
#     Node 21, Type 1, BuildingBlock: NAWXER_clean_linker_0, # of connection points: 4
#     Node 22, Type 1, BuildingBlock: NAWXER_clean_linker_0, # of connection points: 4
#     Node 23, Type 1, BuildingBlock: NAWXER_clean_linker_0, # of connection points: 4
#     Node 24, Type 1, BuildingBlock: NAWXER_clean_linker_0, # of connection points: 4
#     Node 25, Type 1, BuildingBlock: NAWXER_clean_linker_0, # of connection points: 4
#     Node 26, Type 1, BuildingBlock: NAWXER_clean_linker_0, # of connection points: 4
#     Node 27, Type 1, BuildingBlock: NAWXER_clean_linker_0, # of connection points: 4
#     Node 28, Type 1, BuildingBlock: NAWXER_clean_linker_0, # of connection points: 4
#     Node 29, Type 1, BuildingBlock: NAWXER_clean_linker_0, # of connection points: 4
#     Node 30, Type 1, BuildingBlock: NAWXER_clean_linker_0, # of connection points: 4
#     Node 31, Type 1, BuildingBlock: NAWXER_clean_linker_0, # of connection points: 4
#     Node 32, Type 1, BuildingBlock: NAWXER_clean_linker_0, # of connection points: 4
#     Node 33, Type 1, BuildingBlock: NAWXER_clean_linker_0, # of connection points: 4
#     Node 34, Type 1, BuildingBlock: NAWXER_clean_linker_0, # of connection points: 4
#     Node 35, Type 1, BuildingBlock: NAWXER_clean_linker_0, # of connection points: 4
#     Edge 36, Type (0, 1), BuildingBlock: ZUJKAS_clean_linker_0, # of connection points: 2
#     Edge 37, Type (0, 1), BuildingBlock: ZUJKAS_clean_linker_0, # of connection points: 2
#     Edge 38, Type (0, 1), BuildingBlock: ZUJKAS_clean_linker_0, # of connection points: 2
#     Edge 39, Type (0, 1), BuildingBlock: ZUJKAS_clean_linker_0, # of connection points: 2
#     Edge 40, Type (0, 1), BuildingBlock: ZUJKAS_clean_linker_0, # of connection points: 2
#     Edge 41, Type (0, 1), BuildingBlock: ZUJKAS_clean_linker_0, # of connection points: 2
#     Edge 42, Type (0, 1), BuildingBlock: ZUJKAS_clean_linker_0, # of connection points: 2
#     Edge 43, Type (0, 1), BuildingBlock: ZUJKAS_clean_linker_0, # of connection points: 2
#     Edge 44, Type (0, 1), BuildingBlock: ZUJKAS_clean_linker_0, # of connection points: 2
#     Edge 45, Type (0, 1), BuildingBlock: ZUJKAS_clean_linker_0, # of connection points: 2
#     Edge 46, Type (0, 1), BuildingBlock: ZUJKAS_clean_linker_0, # of connection points: 2
#     Edge 47, Type (0, 1), BuildingBlock: ZUJKAS_clean_linker_0, # of connection points: 2
#     Edge 48, Type (0, 1), BuildingBlock: ZUJKAS_clean_linker_0, # of connection points: 2
#     Edge 49, Type (0, 1), BuildingBlock: ZUJKAS_clean_linker_0, # of connection points: 2
#     Edge 50, Type (0, 1), BuildingBlock: ZUJKAS_clean_linker_0, # of connection points: 2
#     Edge 51, Type (0, 1), BuildingBlock: ZUJKAS_clean_linker_0, # of connection points: 2
#     Edge 52, Type (0, 1), BuildingBlock: ZUJKAS_clean_linker_0, # of connection points: 2
#     Edge 53, Type (0, 1), BuildingBlock: ZUJKAS_clean_linker_0, # of connection points: 2
#     Edge 54, Type (0, 1), BuildingBlock: ZUJKAS_clean_linker_0, # of connection points: 2
#     Edge 55, Type (0, 1), BuildingBlock: ZUJKAS_clean_linker_0, # of connection points: 2
#     Edge 56, Type (0, 1), BuildingBlock: ZUJKAS_clean_linker_0, # of connection points: 2
#     Edge 57, Type (0, 1), BuildingBlock: ZUJKAS_clean_linker_0, # of connection points: 2
#     Edge 58, Type (0, 1), BuildingBlock: ZUJKAS_clean_linker_0, # of connection points: 2
#     Edge 59, Type (0, 1), BuildingBlock: ZUJKAS_clean_linker_0, # of connection points: 2
#     Edge 60, Type (0, 1), BuildingBlock: ZUJKAS_clean_linker_0, # of connection points: 2
#     Edge 61, Type (0, 1), BuildingBlock: ZUJKAS_clean_linker_0, # of connection points: 2
#     Edge 62, Type (0, 1), BuildingBlock: ZUJKAS_clean_linker_0, # of connection points: 2
#     Edge 63, Type (0, 1), BuildingBlock: ZUJKAS_clean_linker_0, # of connection points: 2
#     Edge 64, Type (0, 1), BuildingBlock: ZUJKAS_clean_linker_0, # of connection points: 2
#     Edge 65, Type (0, 1), BuildingBlock: ZUJKAS_clean_linker_0, # of connection points: 2
#     Edge 66, Type (0, 1), BuildingBlock: ZUJKAS_clean_linker_0, # of connection points: 2
#     Edge 67, Type (0, 1), BuildingBlock: ZUJKAS_clean_linker_0, # of connection points: 2
#     Edge 68, Type (0, 1), BuildingBlock: ZUJKAS_clean_linker_0, # of connection points: 2
#     Edge 69, Type (0, 1), BuildingBlock: ZUJKAS_clean_linker_0, # of connection points: 2
#     Edge 70, Type (0, 1), BuildingBlock: ZUJKAS_clean_linker_0, # of connection points: 2
#     Edge 71, Type (0, 1), BuildingBlock: ZUJKAS_clean_linker_0, # of connection points: 2
#     Edge 72, Type (0, 1), BuildingBlock: ZUJKAS_clean_linker_0, # of connection points: 2
#     Edge 73, Type (0, 1), BuildingBlock: ZUJKAS_clean_linker_0, # of connection points: 2
#     Edge 74, Type (0, 1), BuildingBlock: ZUJKAS_clean_linker_0, # of connection points: 2
#     Edge 75, Type (0, 1), BuildingBlock: ZUJKAS_clean_linker_0, # of connection points: 2
#     Edge 76, Type (0, 1), BuildingBlock: ZUJKAS_clean_linker_0, # of connection points: 2
#     Edge 77, Type (0, 1), BuildingBlock: ZUJKAS_clean_linker_0, # of connection points: 2
#     Edge 78, Type (0, 1), BuildingBlock: ZUJKAS_clean_linker_0, # of connection points: 2
#     Edge 79, Type (0, 1), BuildingBlock: ZUJKAS_clean_linker_0, # of connection points: 2
#     Edge 80, Type (0, 1), BuildingBlock: ZUJKAS_clean_linker_0, # of connection points: 2
#     Edge 81, Type (0, 1), BuildingBlock: ZUJKAS_clean_linker_0, # of connection points: 2
#     Edge 82, Type (0, 1), BuildingBlock: ZUJKAS_clean_linker_0, # of connection points: 2
#     Edge 83, Type (0, 1), BuildingBlock: ZUJKAS_clean_linker_0, # of connection points: 2
#     Edge 84, Type (0, 1), BuildingBlock: ZUJKAS_clean_linker_0, # of connection points: 2
#     Edge 85, Type (0, 1), BuildingBlock: ZUJKAS_clean_linker_0, # of connection points: 2
#     Edge 86, Type (0, 1), BuildingBlock: ZUJKAS_clean_linker_0, # of connection points: 2
#     Edge 87, Type (0, 1), BuildingBlock: ZUJKAS_clean_linker_0, # of connection points: 2
#     Edge 88, Type (0, 1), BuildingBlock: ZUJKAS_clean_linker_0, # of connection points: 2
#     Edge 89, Type (0, 1), BuildingBlock: ZUJKAS_clean_linker_0, # of connection points: 2
#     Edge 90, Type (0, 1), BuildingBlock: ZUJKAS_clean_linker_0, # of connection points: 2
#     Edge 91, Type (0, 1), BuildingBlock: ZUJKAS_clean_linker_0, # of connection points: 2
#     Edge 92, Type (0, 1), BuildingBlock: ZUJKAS_clean_linker_0, # of connection points: 2
#     Edge 93, Type (0, 1), BuildingBlock: ZUJKAS_clean_linker_0, # of connection points: 2
#     Edge 94, Type (0, 1), BuildingBlock: ZUJKAS_clean_linker_0, # of connection points: 2
#     Edge 95, Type (0, 1), BuildingBlock: ZUJKAS_clean_linker_0, # of connection points: 2
#     Edge 96, Type (0, 1), BuildingBlock: ZUJKAS_clean_linker_0, # of connection points: 2
#     Edge 97, Type (0, 1), BuildingBlock: ZUJKAS_clean_linker_0, # of connection points: 2
#     Edge 98, Type (0, 1), BuildingBlock: ZUJKAS_clean_linker_0, # of connection points: 2
#     Edge 99, Type (0, 1), BuildingBlock: ZUJKAS_clean_linker_0, # of connection points: 2
#     Edge 100, Type (0, 1), BuildingBlock: ZUJKAS_clean_linker_0, # of connection points: 2
#     Edge 101, Type (0, 1), BuildingBlock: ZUJKAS_clean_linker_0, # of connection points: 2
#     Edge 102, Type (0, 1), BuildingBlock: ZUJKAS_clean_linker_0, # of connection points: 2
#     Edge 103, Type (0, 1), BuildingBlock: ZUJKAS_clean_linker_0, # of connection points: 2
#     Edge 104, Type (0, 1), BuildingBlock: ZUJKAS_clean_linker_0, # of connection points: 2
#     Edge 105, Type (0, 1), BuildingBlock: ZUJKAS_clean_linker_0, # of connection points: 2
#     Edge 106, Type (0, 1), BuildingBlock: ZUJKAS_clean_linker_0, # of connection points: 2
#     Edge 107, Type (0, 1), BuildingBlock: ZUJKAS_clean_linker_0, # of connection points: 2
# Relax obj value: 0.073
# Max RMSD: 0.264
# Mean RMSD: 0.108
data_MOF--net-ptr--node1-NAHDIM_clean_sbu_0--node2-NAWXER_clean_linker_0--edge1-ZUJKAS_clean_linker_0
_symmetry_space_group_name_H-M    P1
_symmetry_Int_Tables_number       1
_symmetry_cell_setting            triclinic
loop_
_symmetry_equiv_pos_as_xyz
'x, y, z'
_cell_length_a     110.45762
_cell_length_b     108.37869
_cell_length_c     78.632971
_cell_angle_alpha  91.60374
_cell_angle_beta   89.171176
_cell_angle_gamma 121.85815
loop_
_atom_site_label
_atom_site_type_symbol
_atom_site_fract_x
_atom_site_fract_y
_atom_site_fract_z
_atom_type_partial_charge
C0 C 0.03198 0.34055 0.00975 0.0
O1 O 0.02506 0.33312 0.99601 0.0
O2 O 0.99864 0.3339 0.99692 0.0
Zn3 Zn 0.0144 0.35286 0.00683 0.0
O4 O 0.00726 0.35979 0.02616 0.0
C5 C 0.01953 0.36457 0.97307 0.0
O6 O 0.01297 0.35078 0.96842 0.0
O7 O 0.02956 0.34996 0.01607 0.0
C8 C 0.99743 0.36239 0.02419 0.0
O9 O 0.99129 0.35986 0.00923 0.0
C10 C 0.98863 0.32376 0.00541 0.0
O11 O 0.98797 0.32553 0.02192 0.0
O12 O 0.02191 0.36805 0.98879 0.0
C13 C 0.68365 0.6692 0.99737 0.0
O14 O 0.67957 0.67858 0.99881 0.0
O15 O 0.65918 0.66874 0.02657 0.0
Zn16 Zn 0.65672 0.65142 0.01323 0.0
O17 O 0.64265 0.64571 0.99422 0.0
C18 C 0.65421 0.63671 0.04418 0.0
O19 O 0.66463 0.64973 0.04898 0.0
O20 O 0.67556 0.65647 0.00297 0.0
C21 C 0.62939 0.63981 0.99707 0.0
O22 O 0.6248 0.63767 0.01286 0.0
C23 C 0.65505 0.67696 0.02152 0.0
O24 O 0.64855 0.67416 0.00677 0.0
O25 O 0.64938 0.63471 0.02912 0.0
C26 C 0.33976 0.02481 0.9908 0.0
O27 O 0.33608 0.01236 0.98322 0.0
O28 O 0.32861 0.997 0.02546 0.0
Zn29 Zn 0.34744 0.01182 0.01539 0.0
O30 O 0.3537 0.0032 0.99686 0.0
C31 C 0.36317 0.00903 0.04037 0.0
O32 O 0.35488 0.99568 0.0344 0.0
O33 O 0.34544 0.02763 0.00547 0.0
C34 C 0.36633 0.01167 0.99157 0.0
O35 O 0.37388 0.02479 0.99844 0.0
C36 C 0.31815 0.9866 0.01739 0.0
O37 O 0.31938 0.98472 0.00102 0.0
O38 O 0.36208 0.01909 0.0341 0.0
C39 C 0.98415 0.66721 0.9845 0.0
O40 O 0.99702 0.67234 0.97833 0.0
O41 O 0.01131 0.67876 0.01582 0.0
Zn42 Zn 0.99639 0.65848 0.00816 0.0
O43 O 0.00352 0.65056 0.98976 0.0
C44 C 0.99809 0.6476 0.04025 0.0
O45 O 0.01097 0.65925 0.03976 0.0
O46 O 0.98066 0.66003 0.9981 0.0
C47 C 0.01061 0.64466 0.99257 0.0
O48 O 0.01424 0.64415 0.00825 0.0
C49 C 0.02475 0.68489 0.01449 0.0
O50 O 0.03019 0.67774 0.00746 0.0
O51 O 0.98951 0.64501 0.02811 0.0
C52 C 0.31187 0.34522 0.00917 0.0
O53 O 0.31153 0.33972 0.99395 0.0
O54 O 0.33912 0.34038 0.99306 0.0
Zn55 Zn 0.34229 0.35825 0.00559 0.0
O56 O 0.35664 0.36416 0.02437 0.0
C57 C 0.34679 0.37262 0.97364 0.0
O58 O 0.33847 0.35926 0.96773 0.0
O59 O 0.32384 0.35375 0.01625 0.0
C60 C 0.36572 0.36039 0.02523 0.0
O61 O 0.36613 0.35199 0.01315 0.0
C62 C 0.33415 0.32845 0.00063 0.0
O63 O 0.33156 0.32799 0.01704 0.0
O64 O 0.34957 0.37477 0.98946 0.0
C65 C 0.66345 0.97898 0.02398 0.0
O66 O 0.6708 0.99296 0.02775 0.0
O67 O 0.66642 0.0044 0.9931 0.0
Zn68 Zn 0.64895 0.98887 0.00511 0.0
O69 O 0.64335 0.99694 0.02492 0.0
C70 C 0.63427 0.97965 0.97267 0.0
O71 O 0.64704 0.98395 0.96669 0.0
O72 O 0.65293 0.97407 0.01387 0.0
C73 C 0.63928 0.00577 0.02261 0.0
O74 O 0.63972 0.01036 0.00719 0.0
C75 C 0.6755 0.01689 0.99922 0.0
O76 O 0.67373 0.02056 0.01471 0.0
O77 O 0.63254 0.98009 0.98864 0.0
C78 C 0.68025 0.67513 0.36773 0.0
O79 O 0.66761 0.67109 0.37396 0.0
O80 O 0.65619 0.6702 0.33113 0.0
Zn81 Zn 0.67121 0.68786 0.34406 0.0
O82 O 0.66246 0.69382 0.36261 0.0
C83 C 0.68455 0.70225 0.31281 0.0
O84 O 0.68133 0.68914 0.308 0.0
O85 O 0.68453 0.68286 0.35455 0.0
C86 C 0.65495 0.69915 0.35925 0.0
O87 O 0.65266 0.70058 0.34327 0.0
C88 C 0.64392 0.6612 0.33701 0.0
O89 O 0.64042 0.66347 0.3523 0.0
O90 O 0.68157 0.70434 0.32787 0.0
C91 C 0.35021 0.99334 0.34378 0.0
O92 O 0.35313 0.00281 0.35628 0.0
O93 O 0.32799 0.00475 0.36093 0.0
Zn94 Zn 0.32109 0.98489 0.35094 0.0
O95 O 0.30607 0.97991 0.33331 0.0
C96 C 0.303 0.9702 0.37873 0.0
O97 O 0.29905 0.97942 0.37553 0.0
O98 O 0.3373 0.98447 0.33961 0.0
C99 C 0.29777 0.96667 0.32889 0.0
O100 O 0.29916 0.95671 0.33613 0.0
C101 C 0.33261 0.01579 0.35169 0.0
O102 O 0.33277 0.01418 0.33508 0.0
O103 O 0.3127 0.9704 0.36965 0.0
C104 C 0.01309 0.35787 0.32116 0.0
O105 O 0.00495 0.34398 0.31716 0.0
O106 O 0.0035 0.33217 0.35454 0.0
Zn107 Zn 0.02284 0.34589 0.34464 0.0
O108 O 0.02804 0.33549 0.32716 0.0
C109 C 0.03885 0.34535 0.37226 0.0
O110 O 0.03081 0.33136 0.36875 0.0
O111 O 0.02212 0.36175 0.33309 0.0
C112 C 0.04107 0.34016 0.32407 0.0
O113 O 0.05095 0.35169 0.33249 0.0
C114 C 0.99771 0.31845 0.35392 0.0
O115 O 0.00449 0.31282 0.34649 0.0
O116 O 0.03738 0.35415 0.3635 0.0
C117 C 0.64717 0.98461 0.31742 0.0
O118 O 0.65836 0.98669 0.30883 0.0
O119 O 0.67601 0.00082 0.35494 0.0
Zn120 Zn 0.66214 0.98119 0.34449 0.0
O121 O 0.67166 0.97524 0.32692 0.0
C122 C 0.66299 0.96515 0.37186 0.0
O123 O 0.67668 0.97346 0.36865 0.0
O124 O 0.64628 0.98195 0.33319 0.0
C125 C 0.68499 0.9807 0.32524 0.0
O126 O 0.69385 0.99102 0.33589 0.0
C127 C 0.68237 0.01231 0.3463 0.0
O128 O 0.6801 0.01143 0.32984 0.0
O129 O 0.65422 0.96644 0.36296 0.0
C130 C 0.98874 0.67971 0.36937 0.0
O131 O 0.99835 0.67909 0.3783 0.0
O132 O 0.00957 0.67342 0.33182 0.0
Zn133 Zn 0.01109 0.69046 0.3447 0.0
O134 O 0.02529 0.6969 0.3638 0.0
C135 C 0.01358 0.70492 0.31341 0.0
O136 O 0.00388 0.69171 0.30818 0.0
O137 O 0.9918 0.68452 0.35435 0.0
C138 C 0.03558 0.69481 0.36379 0.0
O139 O 0.03744 0.68828 0.35059 0.0
C140 C 0.00645 0.66177 0.33908 0.0
O141 O 0.00429 0.66081 0.35559 0.0
O142 O 0.01794 0.707 0.3287 0.0
C143 C 0.32455 0.30909 0.34638 0.0
O144 O 0.33046 0.31476 0.33172 0.0
O145 O 0.33143 0.3427 0.3324 0.0
Zn146 Zn 0.31317 0.32753 0.34338 0.0
O147 O 0.30738 0.33628 0.36231 0.0
C148 C 0.29876 0.31569 0.31073 0.0
O149 O 0.31125 0.3184 0.30544 0.0
O150 O 0.31635 0.31262 0.35346 0.0
C151 C 0.315 0.34912 0.36844 0.0
O152 O 0.32781 0.35784 0.36228 0.0
C153 C 0.33215 0.35194 0.32219 0.0
O154 O 0.32056 0.35197 0.31876 0.0
O155 O 0.29726 0.31841 0.32618 0.0
C156 C 0.35344 0.0169 0.6997 0.0
O157 O 0.34102 0.01256 0.70682 0.0
O158 O 0.32546 0.00332 0.66559 0.0
Zn159 Zn 0.34024 0.02348 0.67406 0.0
O160 O 0.33202 0.03075 0.69195 0.0
C161 C 0.34031 0.03507 0.6415 0.0
O162 O 0.32748 0.02333 0.64072 0.0
O163 O 0.35593 0.02231 0.68499 0.0
C164 C 0.32622 0.03789 0.68866 0.0
O165 O 0.32512 0.0406 0.67277 0.0
C166 C 0.31211 0.99777 0.66731 0.0
O167 O 0.30743 0.00537 0.675 0.0
O168 O 0.34797 0.0374 0.65455 0.0
C169 C 0.01699 0.32911 0.65742 0.0
O170 O 0.01032 0.33585 0.65413 0.0
O171 O 0.99272 0.32969 0.68687 0.0
Zn172 Zn 0.99141 0.31224 0.67538 0.0
O173 O 0.97802 0.30602 0.65543 0.0
C174 C 0.98793 0.29896 0.70769 0.0
O175 O 0.99732 0.31244 0.71237 0.0
O176 O 0.01087 0.31802 0.66675 0.0
C177 C 0.96486 0.29639 0.65679 0.0
O178 O 0.95991 0.29016 0.67149 0.0
C179 C 0.98181 0.32904 0.69336 0.0
O180 O 0.96945 0.31671 0.69253 0.0
O181 O 0.98408 0.29611 0.6922 0.0
C182 C 0.67811 0.68696 0.65003 0.0
O183 O 0.67365 0.67376 0.64418 0.0
O184 O 0.67142 0.66328 0.68706 0.0
Zn185 Zn 0.68946 0.67757 0.67494 0.0
O186 O 0.69499 0.66771 0.65715 0.0
C187 C 0.7049 0.68182 0.70569 0.0
O188 O 0.69361 0.66897 0.70868 0.0
O189 O 0.68567 0.69152 0.66344 0.0
C190 C 0.69728 0.65771 0.66048 0.0
O191 O 0.69573 0.65323 0.67616 0.0
C192 C 0.66215 0.65067 0.68145 0.0
O193 O 0.66414 0.64608 0.66666 0.0
O194 O 0.70555 0.68801 0.69191 0.0
C195 C 0.31792 0.33453 0.65838 0.0
O196 O 0.33178 0.34365 0.6591 0.0
O197 O 0.34091 0.33527 0.68825 0.0
Zn198 Zn 0.3264 0.31756 0.67495 0.0
O199 O 0.33609 0.31313 0.65601 0.0
C200 C 0.31378 0.30203 0.7059 0.0
O201 O 0.3171 0.31495 0.71166 0.0
O202 O 0.31262 0.322 0.6646 0.0
C203 C 0.34086 0.3049 0.65827 0.0
O204 O 0.33958 0.29935 0.67332 0.0
C205 C 0.35026 0.33563 0.69781 0.0
O206 O 0.35076 0.32386 0.69931 0.0
O207 O 0.31637 0.30049 0.69045 0.0
C208 C 0.65805 0.01305 0.69435 0.0
O209 O 0.663 0.00489 0.69856 0.0
O210 O 0.67557 0.00427 0.66098 0.0
Zn211 Zn 0.68145 0.02377 0.67155 0.0
O212 O 0.69664 0.02992 0.68936 0.0
C213 C 0.69398 0.03687 0.63966 0.0
O214 O 0.69499 0.02535 0.63794 0.0
O215 O 0.66432 0.02229 0.68276 0.0
C216 C 0.70925 0.03318 0.68589 0.0
O217 O 0.71266 0.03231 0.67002 0.0
C218 C 0.67743 0.99486 0.66768 0.0
O219 O 0.6837 0.99772 0.68259 0.0
O220 O 0.68855 0.03862 0.65318 0.0
C221 C 0.98151 0.6453 0.69558 0.0
O222 O 0.99035 0.65918 0.69911 0.0
O223 O 0.99074 0.67106 0.66299 0.0
Zn224 Zn 0.97147 0.65795 0.6735 0.0
O225 O 0.96761 0.66883 0.69182 0.0
C226 C 0.95825 0.65054 0.63993 0.0
O227 O 0.97138 0.65603 0.63449 0.0
O228 O 0.97187 0.64165 0.68447 0.0
C229 C 0.9607 0.67491 0.68886 0.0
O230 O 0.95619 0.67439 0.67334 0.0
C231 C 0.99534 0.68412 0.65912 0.0
O232 O 0.9872 0.68946 0.66185 0.0
O233 O 0.95588 0.65005 0.65584 0.0
C234 C 0.19239 0.30616 0.1319 0.0
C235 C 0.18999 0.29792 0.1168 0.0
C236 C 0.1811 0.30318 0.14273 0.0
C237 C 0.16719 0.29175 0.13883 0.0
C238 C 0.1761 0.28631 0.11307 0.0
C239 C 0.16478 0.28333 0.12393 0.0
C240 C 0.15498 0.28979 0.14906 0.0
C241 C 0.18089 0.28019 0.18371 0.0
C242 C 0.18631 0.28942 0.19818 0.0
C243 C 0.17055 0.28014 0.17355 0.0
C244 C 0.16565 0.2895 0.17753 0.0
C245 C 0.18123 0.29861 0.20223 0.0
C246 C 0.17099 0.2986 0.19206 0.0
C247 C 0.15473 0.28973 0.16703 0.0
C248 C 0.09901 0.28526 0.18451 0.0
C249 C 0.10406 0.29611 0.19739 0.0
C250 C 0.1086 0.2835 0.17446 0.0
C251 C 0.12335 0.29252 0.17724 0.0
C252 C 0.11881 0.30499 0.2002 0.0
C253 C 0.12834 0.30314 0.1903 0.0
C254 C 0.13377 0.29095 0.16692 0.0
C255 C 0.11513 0.30821 0.13075 0.0
C256 C 0.10831 0.29919 0.11643 0.0
C257 C 0.12307 0.30521 0.14167 0.0
C258 C 0.12421 0.29304 0.1386 0.0
C259 C 0.10933 0.28691 0.11349 0.0
C260 C 0.11731 0.28394 0.12441 0.0
C261 C 0.13387 0.29072 0.14896 0.0
H262 H 0.20299 0.3151 0.13519 0.0
H263 H 0.18319 0.31015 0.15384 0.0
H264 H 0.17389 0.27989 0.10143 0.0
H265 H 0.1541 0.27464 0.12053 0.0
H266 H 0.18446 0.27285 0.1804 0.0
H267 H 0.16632 0.2727 0.1627 0.0
H268 H 0.18533 0.30599 0.21316 0.0
H269 H 0.16738 0.3059 0.19543 0.0
H270 H 0.08769 0.27825 0.18211 0.0
H271 H 0.1045 0.27505 0.16463 0.0
H272 H 0.123 0.31328 0.21022 0.0
H273 H 0.13966 0.31016 0.19274 0.0
H274 H 0.11447 0.31769 0.13342 0.0
H275 H 0.12866 0.31267 0.15222 0.0
H276 H 0.10436 0.27986 0.10245 0.0
H277 H 0.11827 0.27464 0.12164 0.0
N278 N 0.14445 0.29011 0.14075 0.0
N279 N 0.14418 0.29042 0.17522 0.0
C280 C 0.69314 0.88771 0.13567 0.0
C281 C 0.70058 0.89334 0.12037 0.0
C282 C 0.69626 0.87944 0.14594 0.0
C283 C 0.70702 0.87678 0.14125 0.0
C284 C 0.71134 0.89065 0.1157 0.0
C285 C 0.71446 0.88238 0.126 0.0
C286 C 0.70958 0.86705 0.15131 0.0
C287 C 0.7213 0.90595 0.18541 0.0
C288 C 0.71234 0.90239 0.19969 0.0
C289 C 0.72111 0.89498 0.17536 0.0
C290 C 0.71199 0.88032 0.17949 0.0
C291 C 0.70343 0.88773 0.2039 0.0
C292 C 0.70332 0.87682 0.19396 0.0
C293 C 0.71147 0.86845 0.16914 0.0
C294 C 0.72088 0.81961 0.18461 0.0
C295 C 0.71315 0.81509 0.19991 0.0
C296 C 0.72041 0.82983 0.17462 0.0
C297 C 0.71205 0.83556 0.17964 0.0
C298 C 0.70501 0.82105 0.20502 0.0
C299 C 0.70452 0.83122 0.19503 0.0
C300 C 0.71126 0.84632 0.16925 0.0
C301 C 0.69035 0.80539 0.13701 0.0
C302 C 0.69727 0.80632 0.12153 0.0
C303 C 0.69443 0.81785 0.14695 0.0
C304 C 0.70563 0.83147 0.14171 0.0
C305 C 0.70854 0.81996 0.11634 0.0
C306 C 0.7126 0.83245 0.12629 0.0
C307 C 0.70914 0.84481 0.15146 0.0
H308 H 0.68459 0.88931 0.13946 0.0
H309 H 0.68999 0.87479 0.15731 0.0
H310 H 0.71734 0.89493 0.10407 0.0
H311 H 0.72267 0.88029 0.12203 0.0
H312 H 0.72828 0.91717 0.1819 0.0
H313 H 0.7281 0.89794 0.16442 0.0
H314 H 0.6966 0.88468 0.215 0.0
H315 H 0.6963 0.8656 0.19747 0.0
H316 H 0.72742 0.81538 0.18046 0.0
H317 H 0.72666 0.83332 0.16305 0.0
H318 H 0.69878 0.81766 0.21662 0.0
H319 H 0.69803 0.83551 0.19921 0.0
H320 H 0.68169 0.79502 0.14139 0.0
H321 H 0.68861 0.81686 0.15855 0.0
H322 H 0.71395 0.82104 0.10437 0.0
H323 H 0.7211 0.8429 0.12188 0.0
N324 N 0.70855 0.85531 0.14317 0.0
N325 N 0.71222 0.85803 0.17739 0.0
C326 C 0.11383 0.81212 0.13088 0.0
C327 C 0.10777 0.81403 0.11637 0.0
C328 C 0.12229 0.82383 0.1419 0.0
C329 C 0.12477 0.83766 0.13872 0.0
C330 C 0.11008 0.82784 0.11333 0.0
C331 C 0.11862 0.83958 0.12434 0.0
C332 C 0.13507 0.85036 0.14922 0.0
C333 C 0.09816 0.82268 0.18396 0.0
C334 C 0.10172 0.8178 0.19834 0.0
C335 C 0.10888 0.83327 0.17369 0.0
C336 C 0.12332 0.83897 0.17747 0.0
C337 C 0.11616 0.82357 0.20209 0.0
C338 C 0.12683 0.83405 0.19181 0.0
C339 C 0.13494 0.8505 0.16719 0.0
C340 C 0.18739 0.90837 0.18669 0.0
C341 C 0.19289 0.90336 0.19889 0.0
C342 C 0.17594 0.89847 0.17633 0.0
C343 C 0.16981 0.88345 0.17813 0.0
C344 C 0.18661 0.88833 0.20071 0.0
C345 C 0.17515 0.8785 0.19052 0.0
C346 C 0.15767 0.87264 0.16754 0.0
C347 C 0.19501 0.89488 0.13176 0.0
C348 C 0.19287 0.90129 0.11775 0.0
C349 C 0.18365 0.88582 0.14235 0.0
C350 C 0.16998 0.88322 0.13935 0.0
C351 C 0.17917 0.89862 0.1147 0.0
C352 C 0.16782 0.88964 0.12539 0.0
C353 C 0.15764 0.87268 0.14958 0.0
H354 H 0.11215 0.80158 0.13361 0.0
H355 H 0.12727 0.82215 0.15263 0.0
H356 H 0.10566 0.82965 0.10214 0.0
H357 H 0.12061 0.85023 0.1215 0.0
H358 H 0.08712 0.81855 0.18088 0.0
H359 H 0.10587 0.83716 0.16299 0.0
H360 H 0.11924 0.81988 0.21292 0.0
H361 H 0.13787 0.83826 0.19503 0.0
H362 H 0.19202 0.91991 0.18507 0.0
H363 H 0.17182 0.90252 0.16702 0.0
H364 H 0.19045 0.88416 0.21022 0.0
H365 H 0.17053 0.86696 0.1922 0.0
H366 H 0.20538 0.89649 0.13421 0.0
H367 H 0.18549 0.88051 0.15257 0.0
H368 H 0.17723 0.90347 0.10404 0.0
H369 H 0.15732 0.88759 0.12268 0.0
N370 N 0.14631 0.86155 0.14115 0.0
N371 N 0.14632 0.86158 0.17559 0.0
C372 C 0.30439 0.11744 0.83233 0.0
C373 C 0.29317 0.10915 0.8208 0.0
C374 C 0.30399 0.12742 0.84358 0.0
C375 C 0.29224 0.12914 0.84373 0.0
C376 C 0.28138 0.11084 0.82104 0.0
C377 C 0.28096 0.12079 0.83234 0.0
C378 C 0.29229 0.14059 0.85448 0.0
C379 C 0.29274 0.10948 0.89098 0.0
C380 C 0.30494 0.11578 0.90138 0.0
C381 C 0.28976 0.1182 0.8813 0.0
C382 C 0.29902 0.13337 0.88172 0.0
C383 C 0.3141 0.13098 0.90185 0.0
C384 C 0.31112 0.13966 0.89219 0.0
C385 C 0.29601 0.1429 0.87189 0.0
C386 C 0.28837 0.19271 0.89216 0.0
C387 C 0.30004 0.20012 0.90331 0.0
C388 C 0.28651 0.18097 0.88213 0.0
C389 C 0.29647 0.17666 0.88282 0.0
C390 C 0.30979 0.19558 0.90425 0.0
C391 C 0.30801 0.18397 0.89412 0.0
C392 C 0.2948 0.16426 0.87241 0.0
C393 C 0.30043 0.19719 0.83445 0.0
C394 C 0.28906 0.19238 0.82299 0.0
C395 C 0.30103 0.18741 0.84506 0.0
C396 C 0.29014 0.17265 0.84465 0.0
C397 C 0.27818 0.1776 0.82257 0.0
C398 C 0.27875 0.16782 0.83325 0.0
C399 C 0.29119 0.16203 0.85495 0.0
H400 H 0.31376 0.11664 0.83222 0.0
H401 H 0.31308 0.13411 0.85176 0.0
H402 H 0.27254 0.10454 0.81238 0.0
H403 H 0.27188 0.12206 0.8321 0.0
H404 H 0.28535 0.09782 0.89056 0.0
H405 H 0.28015 0.1131 0.87367 0.0
H406 H 0.32368 0.13617 0.90953 0.0
H407 H 0.31838 0.15135 0.89277 0.0
H408 H 0.28059 0.19587 0.89138 0.0
H409 H 0.27724 0.17521 0.87396 0.0
H410 H 0.31895 0.20117 0.91262 0.0
H411 H 0.31578 0.1808 0.89498 0.0
H412 H 0.30913 0.20844 0.83482 0.0
H413 H 0.3102 0.19133 0.85326 0.0
H414 H 0.26926 0.17358 0.81392 0.0
H415 H 0.27033 0.15646 0.83257 0.0
N416 N 0.28996 0.15021 0.84673 0.0
N417 N 0.29713 0.15464 0.88012 0.0
C418 C 0.89571 0.189 0.89711 0.0
C419 C 0.89084 0.19607 0.90789 0.0
C420 C 0.88622 0.17753 0.88632 0.0
C421 C 0.87176 0.1731 0.88588 0.0
C422 C 0.87633 0.19144 0.90765 0.0
C423 C 0.86689 0.18005 0.89679 0.0
C424 C 0.86144 0.16086 0.87476 0.0
C425 C 0.89191 0.19507 0.83875 0.0
C426 C 0.89914 0.19079 0.82755 0.0
C427 C 0.88067 0.18485 0.84872 0.0
C428 C 0.8766 0.17018 0.84795 0.0
C429 C 0.89504 0.1761 0.82677 0.0
C430 C 0.88385 0.1659 0.83683 0.0
C431 C 0.86402 0.15909 0.85747 0.0
C432 C 0.80703 0.11338 0.83083 0.0
C433 C 0.8108 0.10538 0.82001 0.0
C434 C 0.81673 0.12341 0.84275 0.0
C435 C 0.83037 0.12555 0.84421 0.0
C436 C 0.82442 0.10743 0.82167 0.0
C437 C 0.83413 0.1175 0.83357 0.0
C438 C 0.84117 0.13713 0.8556 0.0
C439 C 0.8071 0.1045 0.8905 0.0
C440 C 0.80053 0.11015 0.90078 0.0
C441 C 0.81936 0.11378 0.88118 0.0
C442 C 0.82517 0.12886 0.88183 0.0
C443 C 0.80637 0.12524 0.90135 0.0
C444 C 0.81859 0.13448 0.89205 0.0
C445 C 0.83852 0.139 0.87281 0.0
H446 H 0.90679 0.19219 0.89723 0.0
H447 H 0.89017 0.17204 0.87845 0.0
H448 H 0.8723 0.19676 0.91568 0.0
H449 H 0.85577 0.17677 0.89678 0.0
H450 H 0.8946 0.20624 0.83937 0.0
H451 H 0.87492 0.18838 0.85668 0.0
H452 H 0.90045 0.17249 0.81831 0.0
H453 H 0.88078 0.15462 0.83586 0.0
H454 H 0.79676 0.11232 0.82966 0.0
H455 H 0.81372 0.12983 0.85042 0.0
H456 H 0.82763 0.10136 0.81365 0.0
H457 H 0.84465 0.11908 0.83438 0.0
H458 H 0.80298 0.09295 0.89 0.0
H459 H 0.82446 0.1092 0.87378 0.0
H460 H 0.80146 0.12993 0.90895 0.0
H461 H 0.82291 0.14608 0.8928 0.0
N462 N 0.84876 0.15079 0.88167 0.0
N463 N 0.85384 0.14722 0.84864 0.0
C464 C 0.81686 0.7199 0.89116 0.0
C465 C 0.81027 0.70784 0.90183 0.0
C466 C 0.82897 0.72306 0.88173 0.0
C467 C 0.83457 0.71408 0.8826 0.0
C468 C 0.81619 0.69917 0.90304 0.0
C469 C 0.82819 0.70226 0.89354 0.0
C470 C 0.84721 0.71691 0.87257 0.0
C471 C 0.81378 0.70699 0.83345 0.0
C472 C 0.81732 0.71834 0.82229 0.0
C473 C 0.82401 0.70777 0.84439 0.0
C474 C 0.83793 0.72001 0.8446 0.0
C475 C 0.83124 0.73064 0.8226 0.0
C476 C 0.84149 0.73141 0.83358 0.0
C477 C 0.84906 0.72031 0.85513 0.0
C478 C 0.89352 0.7082 0.83312 0.0
C479 C 0.90131 0.71936 0.82152 0.0
C480 C 0.88385 0.70873 0.84426 0.0
C481 C 0.88197 0.72058 0.8443 0.0
C482 C 0.89944 0.73123 0.82157 0.0
C483 C 0.88981 0.7318 0.83283 0.0
C484 C 0.87081 0.72054 0.85498 0.0
C485 C 0.90233 0.72094 0.89094 0.0
C486 C 0.89647 0.70841 0.90081 0.0
C487 C 0.89347 0.72397 0.88178 0.0
C488 C 0.87861 0.71444 0.88221 0.0
C489 C 0.88158 0.69909 0.90145 0.0
C490 C 0.87276 0.70212 0.89233 0.0
C491 C 0.86893 0.71712 0.8724 0.0
H492 H 0.81257 0.72679 0.88991 0.0
H493 H 0.83393 0.7325 0.87378 0.0
H494 H 0.81162 0.69001 0.91142 0.0
H495 H 0.8324 0.69526 0.89462 0.0
H496 H 0.80313 0.69742 0.83361 0.0
H497 H 0.8211 0.69865 0.85241 0.0
H498 H 0.83433 0.73946 0.814 0.0
H499 H 0.85224 0.74084 0.83334 0.0
H500 H 0.89445 0.69874 0.83311 0.0
H501 H 0.87751 0.69963 0.85247 0.0
H502 H 0.90532 0.74 0.81281 0.0
H503 H 0.88837 0.74093 0.83246 0.0
H504 H 0.91376 0.72845 0.8904 0.0
H505 H 0.89822 0.73374 0.8744 0.0
H506 H 0.87672 0.68925 0.90872 0.0
H507 H 0.86132 0.69462 0.89288 0.0
N508 N 0.85721 0.71542 0.88045 0.0
N509 N 0.86085 0.72211 0.84707 0.0
C510 C 0.7598 0.61653 0.45811 0.0
C511 C 0.76526 0.62865 0.44761 0.0
C512 C 0.76902 0.6138 0.46697 0.0
C513 C 0.78385 0.62322 0.46559 0.0
C514 C 0.78012 0.63786 0.44603 0.0
C515 C 0.78929 0.63512 0.45483 0.0
C516 C 0.79388 0.62084 0.47508 0.0
C517 C 0.77145 0.63192 0.51529 0.0
C518 C 0.76433 0.62146 0.52785 0.0
C519 C 0.78035 0.63065 0.50355 0.0
C520 C 0.78209 0.61872 0.50386 0.0
C521 C 0.76595 0.60943 0.52801 0.0
C522 C 0.77481 0.60812 0.51617 0.0
C523 C 0.79268 0.61812 0.49269 0.0
C524 C 0.85006 0.63016 0.51107 0.0
C525 C 0.84655 0.61911 0.52266 0.0
C526 C 0.83958 0.62962 0.50079 0.0
C527 C 0.82541 0.61789 0.50166 0.0
C528 C 0.83234 0.6074 0.52356 0.0
C529 C 0.82186 0.60683 0.5132 0.0
C530 C 0.8141 0.61774 0.49164 0.0
C531 C 0.84432 0.61562 0.45493 0.0
C532 C 0.8514 0.62774 0.44442 0.0
C533 C 0.83233 0.61293 0.46428 0.0
C534 C 0.82737 0.62247 0.46349 0.0
C535 C 0.84604 0.6369 0.44314 0.0
C536 C 0.83412 0.63426 0.45253 0.0
C537 C 0.81528 0.62045 0.47403 0.0
H538 H 0.74841 0.6091 0.45939 0.0
H539 H 0.76456 0.60434 0.47486 0.0
H540 H 0.7847 0.64741 0.43826 0.0
H541 H 0.8007 0.64252 0.45354 0.0
H542 H 0.77035 0.64125 0.51471 0.0
H543 H 0.78621 0.63925 0.49458 0.0
H544 H 0.7608 0.60129 0.53766 0.0
H545 H 0.77619 0.59897 0.51684 0.0
H546 H 0.86083 0.6395 0.51033 0.0
H547 H 0.84251 0.63857 0.49245 0.0
H548 H 0.82931 0.59868 0.53231 0.0
H549 H 0.81096 0.59778 0.51425 0.0
H550 H 0.84807 0.60823 0.45595 0.0
H551 H 0.82704 0.60351 0.47225 0.0
H552 H 0.85133 0.64641 0.43529 0.0
H553 H 0.83044 0.64172 0.45163 0.0
N554 N 0.80516 0.62195 0.46649 0.0
N555 N 0.80279 0.61657 0.50023 0.0
C556 C 0.35892 0.22298 0.46106 0.0
C557 C 0.36709 0.22953 0.44646 0.0
C558 C 0.36211 0.21482 0.47143 0.0
C559 C 0.37366 0.21321 0.46756 0.0
C560 C 0.37872 0.228 0.44267 0.0
C561 C 0.3819 0.21982 0.45306 0.0
C562 C 0.37618 0.2034 0.47753 0.0
C563 C 0.38444 0.23999 0.51393 0.0
C564 C 0.37585 0.2356 0.52858 0.0
C565 C 0.38461 0.22965 0.503 0.0
C566 C 0.37596 0.21475 0.50639 0.0
C567 C 0.36726 0.22072 0.53192 0.0
C568 C 0.36733 0.21043 0.52097 0.0
C569 C 0.37627 0.20353 0.49551 0.0
C570 C 0.38366 0.15361 0.51186 0.0
C571 C 0.37266 0.14675 0.5239 0.0
C572 C 0.38507 0.16504 0.50236 0.0
C573 C 0.37553 0.16979 0.50484 0.0
C574 C 0.36332 0.15173 0.52651 0.0
C575 C 0.36481 0.16319 0.51717 0.0
C576 C 0.37651 0.18163 0.49483 0.0
C577 C 0.36304 0.14392 0.4586 0.0
C578 C 0.37269 0.14673 0.44524 0.0
C579 C 0.3644 0.15526 0.46893 0.0
C580 C 0.37557 0.16962 0.4663 0.0
C581 C 0.38371 0.16115 0.44241 0.0
C582 C 0.3851 0.1725 0.45282 0.0
C583 C 0.37678 0.18169 0.47688 0.0
H584 H 0.34996 0.22404 0.4644 0.0
H585 H 0.35529 0.20946 0.48223 0.0
H586 H 0.3851 0.23276 0.43139 0.0
H587 H 0.3907 0.2185 0.44967 0.0
H588 H 0.39128 0.25141 0.51115 0.0
H589 H 0.39168 0.23333 0.49212 0.0
H590 H 0.36038 0.21701 0.54298 0.0
H591 H 0.36058 0.19903 0.5239 0.0
H592 H 0.39102 0.14999 0.50963 0.0
H593 H 0.39358 0.17015 0.4931 0.0
H594 H 0.3549 0.14681 0.53591 0.0
H595 H 0.3574 0.16675 0.51938 0.0
H596 H 0.35423 0.13298 0.46085 0.0
H597 H 0.35657 0.15281 0.47882 0.0
H598 H 0.39133 0.16364 0.43224 0.0
H599 H 0.39367 0.18354 0.45042 0.0
N600 N 0.37664 0.19259 0.46893 0.0
N601 N 0.3763 0.19256 0.5034 0.0
C602 C 0.78237 0.14198 0.45387 0.0
C603 C 0.77548 0.14404 0.44035 0.0
C604 C 0.79217 0.15372 0.464 0.0
C605 C 0.7952 0.16777 0.461 0.0
C606 C 0.77874 0.15819 0.43711 0.0
C607 C 0.78859 0.16997 0.44732 0.0
C608 C 0.80586 0.18019 0.47158 0.0
C609 C 0.7685 0.15253 0.50588 0.0
C610 C 0.77183 0.14574 0.51838 0.0
C611 C 0.77937 0.16373 0.49637 0.0
C612 C 0.79368 0.16835 0.49934 0.0
C613 C 0.78617 0.15051 0.52139 0.0
C614 C 0.79698 0.16177 0.51206 0.0
C615 C 0.80542 0.18011 0.48952 0.0
C616 C 0.8586 0.23704 0.51025 0.0
C617 C 0.86225 0.23182 0.52422 0.0
C618 C 0.8477 0.22737 0.49911 0.0
C619 C 0.84044 0.21231 0.50165 0.0
C620 C 0.85499 0.21676 0.52663 0.0
C621 C 0.8442 0.20715 0.51552 0.0
C622 C 0.82849 0.20173 0.4906 0.0
C623 C 0.86686 0.2213 0.45658 0.0
C624 C 0.86634 0.22936 0.44323 0.0
C625 C 0.85476 0.21257 0.46633 0.0
C626 C 0.84193 0.21182 0.46301 0.0
C627 C 0.85349 0.22862 0.43993 0.0
C628 C 0.84134 0.2198 0.44965 0.0
C629 C 0.82893 0.20186 0.47263 0.0
H630 H 0.7804 0.1313 0.45642 0.0
H631 H 0.79755 0.15182 0.47407 0.0
H632 H 0.7736 0.16012 0.4268 0.0
H633 H 0.79095 0.18078 0.44465 0.0
H634 H 0.75752 0.14905 0.50335 0.0
H635 H 0.77661 0.16883 0.48679 0.0
H636 H 0.78904 0.14563 0.53114 0.0
H637 H 0.80796 0.16521 0.51462 0.0
H638 H 0.86393 0.2486 0.50818 0.0
H639 H 0.84477 0.23166 0.48875 0.0
H640 H 0.85772 0.21239 0.53711 0.0
H641 H 0.8388 0.19559 0.51775 0.0
H642 H 0.87663 0.22173 0.45949 0.0
H643 H 0.85537 0.20622 0.47629 0.0
H644 H 0.85276 0.2346 0.4296 0.0
H645 H 0.83147 0.21917 0.44674 0.0
N646 N 0.81755 0.19113 0.46379 0.0
N647 N 0.81676 0.19084 0.49829 0.0
C648 C 0.97501 0.53487 0.16881 0.0
C649 C 0.98481 0.54247 0.15578 0.0
C650 C 0.97581 0.52438 0.17781 0.0
C651 C 0.9864 0.52129 0.17388 0.0
C652 C 0.99533 0.53927 0.15181 0.0
C653 C 0.99603 0.52869 0.16069 0.0
C654 C 0.9873 0.51011 0.18311 0.0
C655 C 0.00036 0.54721 0.22012 0.0
C656 C 0.9912 0.5438 0.23417 0.0
C657 C -0.00077 0.53622 0.2093 0.0
C658 C 0.98881 0.52162 0.21219 0.0
C659 C 0.98092 0.52914 0.23719 0.0
C660 C 0.9798 0.51815 0.22634 0.0
C661 C 0.98778 0.50991 0.20102 0.0
C662 C 0.00316 0.46554 0.21307 0.0
C663 C 0.99459 0.4586 0.22729 0.0
C664 C 0.00109 0.47506 0.20374 0.0
C665 C 0.9903 0.47769 0.20832 0.0
C666 C 0.98385 0.46133 0.2319 0.0
C667 C 0.98179 0.47084 0.22256 0.0
C668 C 0.98846 0.48829 0.19908 0.0
C669 C 0.97724 0.45174 0.1614 0.0
C670 C 0.9862 0.45585 0.14707 0.0
C671 C 0.97782 0.46228 0.17262 0.0
C672 C 0.98749 0.47711 0.16981 0.0
C673 C 0.99583 0.47071 0.1443 0.0
C674 C 0.9964 0.48122 0.1555 0.0
C675 C 0.98792 0.48846 0.18115 0.0
H676 H 0.96681 0.53714 0.17213 0.0
H677 H 0.96809 0.5186 0.18775 0.0
H678 H 0.00289 0.5448 0.14166 0.0
H679 H 0.00421 0.52637 0.15737 0.0
H680 H 0.0086 0.55836 0.21767 0.0
H681 H 0.00664 0.53914 0.1988 0.0
H682 H 0.97364 0.52617 0.24783 0.0
H683 H 0.97179 0.50693 0.22889 0.0
H684 H 0.0117 0.46389 0.20938 0.0
H685 H 0.00813 0.48059 0.19316 0.0
H686 H 0.97699 0.45605 0.24269 0.0
H687 H 0.97349 0.47283 0.22642 0.0
H688 H 0.96956 0.44039 0.16374 0.0
H689 H 0.97055 0.45884 0.18331 0.0
H690 H 0.00302 0.47425 0.13353 0.0
H691 H 0.00389 0.4926 0.15305 0.0
N692 N 0.98745 0.49942 0.17387 0.0
N693 N 0.98827 0.49897 0.20832 0.0
C694 C 0.47381 0.43562 0.16801 0.0
C695 C 0.46854 0.43928 0.15413 0.0
C696 C 0.4845 0.44653 0.1784 0.0
C697 C 0.49008 0.46123 0.17497 0.0
C698 C 0.47432 0.454 0.15062 0.0
C699 C 0.48507 0.46486 0.16086 0.0
C700 C 0.50126 0.47299 0.1858 0.0
C701 C 0.46128 0.45142 0.21696 0.0
C702 C 0.46212 0.44483 0.23168 0.0
C703 C 0.47355 0.46078 0.2078 0.0
C704 C 0.4869 0.46359 0.21301 0.0
C705 C 0.47554 0.44785 0.23703 0.0
C706 C 0.48783 0.45721 0.22781 0.0
C707 C 0.49999 0.47384 0.20362 0.0
C708 C 0.54482 0.53506 0.22068 0.0
C709 C 0.55052 0.53354 0.23577 0.0
C710 C 0.53591 0.52293 0.21041 0.0
C711 C 0.53259 0.50905 0.21498 0.0
C712 C 0.54717 0.51963 0.24035 0.0
C713 C 0.53817 0.50747 0.2301 0.0
C714 C 0.52255 0.49611 0.20461 0.0
C715 C 0.56191 0.52162 0.17259 0.0
C716 C 0.55962 0.52652 0.1573 0.0
C717 C 0.55036 0.51145 0.18229 0.0
C718 C 0.53631 0.50617 0.17698 0.0
C719 C 0.54555 0.5211 0.15199 0.0
C720 C 0.53404 0.511 0.16168 0.0
C721 C 0.52388 0.49517 0.18679 0.0
H722 H 0.46954 0.42434 0.17096 0.0
H723 H 0.4884 0.4435 0.18907 0.0
H724 H 0.4706 0.45711 0.13984 0.0
H725 H 0.48931 0.47614 0.15792 0.0
H726 H 0.45116 0.44958 0.21272 0.0
H727 H 0.47262 0.46599 0.19677 0.0
H728 H 0.47653 0.44289 0.24825 0.0
H729 H 0.49805 0.45938 0.23217 0.0
H730 H 0.54729 0.54565 0.21677 0.0
H731 H 0.53143 0.52438 0.19903 0.0
H732 H 0.55127 0.51811 0.25202 0.0
H733 H 0.53556 0.49682 0.23397 0.0
H734 H 0.57262 0.52544 0.17689 0.0
H735 H 0.55242 0.50758 0.19378 0.0
H736 H 0.54341 0.52481 0.1404 0.0
H737 H 0.52331 0.50705 0.15729 0.0
N738 N 0.51312 0.48369 0.17809 0.0
N739 N 0.51072 0.48534 0.21236 0.0
C740 C 0.46926 0.01774 0.22548 0.0
C741 C 0.46113 0.00513 0.235 0.0
C742 C 0.48007 0.01915 0.21469 0.0
C743 C 0.4829 0.00797 0.21323 0.0
C744 C 0.46409 0.99402 0.23362 0.0
C745 C 0.47495 0.99549 0.22293 0.0
C746 C 0.49445 0.00937 0.20213 0.0
C747 C 0.46079 0.00564 0.16738 0.0
C748 C 0.46525 0.01753 0.15676 0.0
C749 C 0.47071 0.00428 0.1766 0.0
C750 C 0.4853 0.01493 0.17569 0.0
C751 C 0.47989 0.02813 0.15577 0.0
C752 C 0.48981 0.0268 0.16509 0.0
C753 C 0.49596 0.01329 0.1849 0.0
C754 C 0.54119 0.00234 0.15986 0.0
C755 C 0.5489 0.01417 0.14905 0.0
C756 C 0.53089 0.00173 0.17091 0.0
C757 C 0.52826 0.01308 0.17165 0.0
C758 C 0.54613 0.02544 0.14969 0.0
C759 C 0.53587 0.02486 0.16082 0.0
C760 C 0.51706 0.01236 0.18292 0.0
C761 C 0.54996 0.014 0.21754 0.0
C762 C 0.54484 0.00172 0.22768 0.0
C763 C 0.5405 0.01626 0.20855 0.0
C764 C 0.52576 0.00615 0.20933 0.0
C765 C 0.53007 0.99176 0.22863 0.0
C766 C 0.52063 0.99399 0.21959 0.0
C767 C 0.51553 0.00847 0.20019 0.0
H768 H 0.46718 0.02645 0.22626 0.0
H769 H 0.48628 0.02902 0.20759 0.0
H770 H 0.45813 0.98428 0.24099 0.0
H771 H 0.47707 0.9868 0.22211 0.0
H772 H 0.44961 0.99732 0.16854 0.0
H773 H 0.46696 0.99476 0.18423 0.0
H774 H 0.48372 0.03729 0.1475 0.0
H775 H 0.50103 0.03503 0.16399 0.0
H776 H 0.54311 0.99351 0.15979 0.0
H777 H 0.52486 0.99229 0.17873 0.0
H778 H 0.55167 0.03458 0.14132 0.0
H779 H 0.53387 0.03364 0.16098 0.0
H780 H 0.56127 0.02201 0.21681 0.0
H781 H 0.5447 0.02598 0.20117 0.0
H782 H 0.52581 0.98213 0.23621 0.0
H783 H 0.50929 0.98611 0.22048 0.0
N784 N 0.50424 0.00705 0.20906 0.0
N785 N 0.50726 0.01471 0.176 0.0
C786 C 0.54054 0.00388 0.80406 0.0
C787 C 0.53821 0.99584 0.78882 0.0
C788 C 0.52906 0.00171 0.81406 0.0
C789 C 0.51503 0.99134 0.8091 0.0
C790 C 0.52412 0.98563 0.78375 0.0
C791 C 0.51264 0.98348 0.79376 0.0
C792 C 0.50281 0.98916 0.81944 0.0
C793 C 0.52586 0.97373 0.85067 0.0
C794 C 0.53109 0.98121 0.86632 0.0
C795 C 0.51635 0.97555 0.84112 0.0
C796 C 0.51211 0.9851 0.8469 0.0
C797 C 0.52667 0.9906 0.87217 0.0
C798 C 0.51725 0.99249 0.86258 0.0
C799 C 0.50185 0.98702 0.83717 0.0
C800 C 0.44407 0.97682 0.85515 0.0
C801 C 0.44771 0.98559 0.87002 0.0
C802 C 0.45471 0.97743 0.84467 0.0
C803 C 0.46915 0.98692 0.8488 0.0
C804 C 0.46219 0.99496 0.87414 0.0
C805 C 0.47278 0.99554 0.8637 0.0
C806 C 0.48062 0.98772 0.83805 0.0
C807 C 0.45891 0.00465 0.80693 0.0
C808 C 0.45312 0.99698 0.79151 0.0
C809 C 0.46815 0.00234 0.81633 0.0
C810 C 0.47151 0.99208 0.81068 0.0
C811 C 0.45675 0.98697 0.78568 0.0
C812 C 0.46588 0.98457 0.79516 0.0
C813 C 0.4815 0.98971 0.82029 0.0
H814 H 0.55123 0.01204 0.80814 0.0
H815 H 0.53114 0.00824 0.82558 0.0
H816 H 0.52197 0.97917 0.77215 0.0
H817 H 0.50189 0.97553 0.78963 0.0
H818 H 0.5289 0.96625 0.84597 0.0
H819 H 0.51217 0.96934 0.82935 0.0
H820 H 0.53062 0.99662 0.8841 0.0
H821 H 0.51407 -0.00017 0.86737 0.0
H822 H 0.43301 0.96934 0.85175 0.0
H823 H 0.45165 0.97042 0.83342 0.0
H824 H 0.46539 0.00204 0.88533 0.0
H825 H 0.48386 0.00291 0.86715 0.0
H826 H 0.45651 0.01263 0.81156 0.0
H827 H 0.47279 0.00872 0.8279 0.0
H828 H 0.45238 0.98086 0.77388 0.0
H829 H 0.46847 0.97675 0.79044 0.0
N830 N 0.49253 0.99028 0.81167 0.0
N831 N 0.49086 0.98651 0.84578 0.0
C832 C 0.99093 0.53592 0.80082 0.0
C833 C -0.00103 0.54224 0.78606 0.0
C834 C 0.99297 0.52639 0.81014 0.0
C835 C 0.00323 0.52312 0.80501 0.0
C836 C 0.00903 0.53873 0.78078 0.0
C837 C 0.01108 0.5292 0.79013 0.0
C838 C 0.00535 0.51288 0.81465 0.0
C839 C 0.01929 0.55166 0.84989 0.0
C840 C 0.01073 0.54842 0.86449 0.0
C841 C 0.01809 0.54049 0.8393 0.0
C842 C 0.0083 0.5259 0.84315 0.0
C843 C 0.001 0.5338 0.86832 0.0
C844 C -0.00012 0.52266 0.85781 0.0
C845 C 0.00719 0.5139 0.83248 0.0
C846 C 0.02139 0.46863 0.84609 0.0
C847 C 0.01339 0.4627 0.86098 0.0
C848 C 0.01947 0.4781 0.83643 0.0
C849 C 0.00949 0.48178 0.84145 0.0
C850 C 0.00347 0.46648 0.86601 0.0
C851 C 0.00162 0.47601 0.8564 0.0
C852 C 0.00762 0.49214 0.83169 0.0
C853 C 0.99137 0.45233 0.79846 0.0
C854 C -0.00095 0.45449 0.78328 0.0
C855 C 0.99349 0.46417 0.80841 0.0
C856 C 0.00348 0.47842 0.80352 0.0
C857 C 0.00886 0.46877 0.77824 0.0
C858 C 0.01098 0.48063 0.78823 0.0
C859 C 0.00563 0.49101 0.81388 0.0
H860 H 0.98288 0.53816 0.80503 0.0
H861 H 0.98642 0.52144 0.82126 0.0
H862 H 0.01547 0.54349 0.76955 0.0
H863 H 0.01894 0.5267 0.78585 0.0
H864 H 0.02686 0.56284 0.84663 0.0
H865 H 0.02492 0.54324 0.82824 0.0
H866 H 0.99443 0.53096 0.87963 0.0
H867 H 0.99237 0.51147 0.8611 0.0
H868 H 0.02908 0.46588 0.84188 0.0
H869 H 0.02591 0.48269 0.82514 0.0
H870 H 0.99732 0.46229 0.87757 0.0
H871 H 0.99397 0.47882 0.86061 0.0
H872 H 0.9838 0.44147 0.80276 0.0
H873 H 0.98724 0.46218 0.81989 0.0
H874 H 0.01477 0.47079 0.76648 0.0
H875 H 0.01858 0.49153 0.78409 0.0
N876 N 0.0047 0.5015 0.80602 0.0
N877 N 0.0082 0.50347 0.8403 0.0
C878 C 0.5306 0.56671 0.79185 0.0
C879 C 0.53705 0.56086 0.7817 0.0
C880 C 0.51838 0.55763 0.80132 0.0
C881 C 0.51251 0.54255 0.80104 0.0
C882 C 0.53093 0.54572 0.78114 0.0
C883 C 0.51879 0.53668 0.79069 0.0
C884 C 0.49957 0.53267 0.81095 0.0
C885 C 0.53257 0.5601 0.85064 0.0
C886 C 0.52909 0.56819 0.8617 0.0
C887 C 0.52243 0.54972 0.83937 0.0
C888 C 0.50866 0.54738 0.83871 0.0
C889 C 0.51534 0.56592 0.86094 0.0
C890 C 0.50521 0.55557 0.84959 0.0
C891 C 0.49746 0.5354 0.82809 0.0
C892 C 0.44786 0.47849 0.84971 0.0
C893 C 0.43987 0.48295 0.85917 0.0
C894 C 0.45914 0.48827 0.83949 0.0
C895 C 0.46251 0.50265 0.83827 0.0
C896 C 0.44337 0.4974 0.85808 0.0
C897 C 0.45463 0.50718 0.84777 0.0
C898 C 0.47479 0.51322 0.82799 0.0
C899 C 0.44276 0.47882 0.7923 0.0
C900 C 0.44772 0.47057 0.78422 0.0
C901 C 0.45225 0.49193 0.80076 0.0
C902 C 0.46684 0.49694 0.80139 0.0
C903 C 0.4624 0.47588 0.78443 0.0
C904 C 0.47186 0.48896 0.79286 0.0
C905 C 0.47701 0.51037 0.81096 0.0
H906 H 0.53506 0.57833 0.79263 0.0
H907 H 0.5135 0.56242 0.8088 0.0
H908 H 0.53542 0.54081 0.77318 0.0
H909 H 0.51436 0.52506 0.79007 0.0
H910 H 0.54296 0.56136 0.85118 0.0
H911 H 0.52522 0.54318 0.8316 0.0
H912 H 0.51237 0.57203 0.86926 0.0
H913 H 0.4946 0.55381 0.84946 0.0
H914 H 0.44566 0.46754 0.85059 0.0
H915 H 0.46539 0.48465 0.83278 0.0
H916 H 0.43738 0.50114 0.86518 0.0
H917 H 0.45717 0.51828 0.84717 0.0
H918 H 0.43151 0.47501 0.79239 0.0
H919 H 0.44818 0.49807 0.80693 0.0
H920 H 0.46658 0.46991 0.77805 0.0
H921 H 0.4831 0.4927 0.79304 0.0
N922 N 0.48931 0.5202 0.80313 0.0
N923 N 0.48508 0.52564 0.83586 0.0
C924 C 0.63262 0.77751 0.50385 0.0
C925 C 0.62166 0.76979 0.49185 0.0
C926 C 0.6322 0.7873 0.51539 0.0
C927 C 0.62069 0.7894 0.51536 0.0
C928 C 0.61014 0.7719 0.49184 0.0
C929 C 0.6097 0.78167 0.50345 0.0
C930 C 0.62074 0.80058 0.52662 0.0
C931 C 0.61919 0.76698 0.56043 0.0
C932 C 0.63129 0.77252 0.57089 0.0
C933 C 0.61642 0.77639 0.55189 0.0
C934 C 0.6258 0.7915 0.55353 0.0
C935 C 0.64045 0.78766 0.57276 0.0
C936 C 0.63769 0.79703 0.56425 0.0
C937 C 0.62348 0.80177 0.54427 0.0
C938 C 0.61898 0.85338 0.56583 0.0
C939 C 0.63051 0.86011 0.57727 0.0
C940 C 0.61655 0.84147 0.5557 0.0
C941 C 0.62572 0.8362 0.55669 0.0
C942 C 0.63942 0.85454 0.57853 0.0
C943 C 0.637 0.84267 0.56841 0.0
C944 C 0.62369 0.82391 0.54576 0.0
C945 C 0.63564 0.86004 0.50967 0.0
C946 C 0.62571 0.85695 0.49673 0.0
C947 C 0.63401 0.84907 0.52013 0.0
C948 C 0.62223 0.83482 0.51816 0.0
C949 C 0.61385 0.8427 0.49486 0.0
C950 C 0.61218 0.83173 0.50542 0.0
C951 C 0.62124 0.82288 0.52804 0.0
H952 H 0.6418 0.7764 0.50394 0.0
H953 H 0.64108 0.79353 0.52402 0.0
H954 H 0.6015 0.76606 0.4828 0.0
H955 H 0.60082 0.78327 0.50306 0.0
H956 H 0.61181 0.75537 0.55893 0.0
H957 H 0.60699 0.77187 0.544 0.0
H958 H 0.64998 0.79231 0.5805 0.0
H959 H 0.64506 0.80865 0.56574 0.0
H960 H 0.6118 0.85728 0.56477 0.0
H961 H 0.60753 0.8364 0.54709 0.0
H962 H 0.64849 0.85957 0.58705 0.0
H963 H 0.64418 0.83876 0.56945 0.0
H964 H 0.64483 0.87091 0.51157 0.0
H965 H 0.64221 0.85168 0.52944 0.0
H966 H 0.60612 0.8399 0.48486 0.0
H967 H 0.60315 0.82076 0.50346 0.0
N968 N 0.61968 0.81116 0.51922 0.0
N969 N 0.62483 0.81338 0.55312 0.0
C970 C 0.14079 0.76581 0.51027 0.0
C971 C 0.13534 0.7698 0.49689 0.0
C972 C 0.15136 0.77645 0.52102 0.0
C973 C 0.15667 0.79124 0.51844 0.0
C974 C 0.14078 0.78461 0.4943 0.0
C975 C 0.1514 0.79521 0.50489 0.0
C976 C 0.16789 0.80276 0.52948 0.0
C977 C 0.12872 0.78075 0.56171 0.0
C978 C 0.12959 0.77362 0.57586 0.0
C979 C 0.14087 0.79001 0.55235 0.0
C980 C 0.15415 0.7922 0.55675 0.0
C981 C 0.1429 0.7758 0.58028 0.0
C982 C 0.15511 0.78513 0.57088 0.0
C983 C 0.16711 0.80276 0.54742 0.0
C984 C 0.20907 0.86385 0.56728 0.0
C985 C 0.21683 0.86267 0.58045 0.0
C986 C 0.20017 0.85185 0.55686 0.0
C987 C 0.19891 0.83845 0.55934 0.0
C988 C 0.21554 0.84923 0.58297 0.0
C989 C 0.20652 0.83716 0.57258 0.0
C990 C 0.18907 0.82567 0.54867 0.0
C991 C 0.2255 0.8563 0.51477 0.0
C992 C 0.22119 0.86181 0.50175 0.0
C993 C 0.21534 0.84459 0.52433 0.0
C994 C 0.20074 0.83821 0.52098 0.0
C995 C 0.20657 0.85527 0.49837 0.0
C996 C 0.19648 0.84356 0.50781 0.0
C997 C 0.18968 0.82577 0.53072 0.0
H998 H 0.13678 0.75447 0.51252 0.0
H999 H 0.15545 0.77316 0.53123 0.0
H1000 H 0.13694 0.78801 0.48392 0.0
H1001 H 0.1554 0.80654 0.50261 0.0
H1002 H 0.11862 0.77921 0.55789 0.0
H1003 H 0.13991 0.79569 0.54183 0.0
H1004 H 0.14393 0.77059 0.59124 0.0
H1005 H 0.1653 0.78687 0.57466 0.0
H1006 H 0.20994 0.8741 0.56496 0.0
H1007 H 0.19415 0.853 0.54695 0.0
H1008 H 0.2213 0.84799 0.59314 0.0
H1009 H 0.20552 0.82684 0.57482 0.0
H1010 H 0.2367 0.86112 0.51762 0.0
H1011 H 0.21889 0.84046 0.53423 0.0
H1012 H 0.20293 0.85909 0.48822 0.0
H1013 H 0.18528 0.83875 0.50492 0.0
N1014 N 0.17908 0.81431 0.52186 0.0
N1015 N 0.17782 0.81416 0.55636 0.0
C1016 C 0.24113 0.3899 0.50342 0.0
C1017 C 0.23698 0.38017 0.4894 0.0
C1018 C 0.23092 0.39086 0.51312 0.0
C1019 C 0.21638 0.38203 0.50901 0.0
C1020 C 0.22245 0.37167 0.48506 0.0
C1021 C 0.21229 0.37264 0.49473 0.0
C1022 C 0.20527 0.38245 0.51932 0.0
C1023 C 0.22376 0.36399 0.55344 0.0
C1024 C 0.2311 0.37292 0.56762 0.0
C1025 C 0.21536 0.36701 0.54341 0.0
C1026 C 0.21422 0.37908 0.54729 0.0
C1027 C 0.22994 0.38501 0.57149 0.0
C1028 C 0.22145 0.38798 0.56149 0.0
C1029 C 0.20466 0.38174 0.53725 0.0
C1030 C 0.14515 0.36482 0.55266 0.0
C1031 C 0.14684 0.37348 0.56716 0.0
C1032 C 0.15691 0.36764 0.54283 0.0
C1033 C 0.17059 0.37931 0.54712 0.0
C1034 C 0.16058 0.38505 0.57157 0.0
C1035 C 0.17237 0.3879 0.56167 0.0
C1036 C 0.18313 0.38183 0.53716 0.0
C1037 C 0.15614 0.39018 0.50303 0.0
C1038 C 0.1501 0.37997 0.48949 0.0
C1039 C 0.16725 0.39127 0.51263 0.0
C1040 C 0.17247 0.38216 0.50883 0.0
C1041 C 0.15565 0.3712 0.48544 0.0
C1042 C 0.16677 0.37234 0.49495 0.0
C1043 C 0.18373 0.38255 0.51923 0.0
H1044 H 0.25224 0.3966 0.50707 0.0
H1045 H 0.23439 0.39846 0.52384 0.0
H1046 H 0.21893 0.3643 0.47413 0.0
H1047 H 0.20115 0.36583 0.49119 0.0
H1048 H 0.22452 0.35466 0.55009 0.0
H1049 H 0.20958 0.35978 0.53276 0.0
H1050 H 0.23536 0.39198 0.58246 0.0
H1051 H 0.22052 0.39721 0.56482 0.0
H1052 H 0.13477 0.3556 0.54916 0.0
H1053 H 0.15533 0.3605 0.53204 0.0
H1054 H 0.16221 0.39195 0.58263 0.0
H1055 H 0.18287 0.39682 0.56533 0.0
H1056 H 0.15208 0.39708 0.50643 0.0
H1057 H 0.17169 0.39914 0.52307 0.0
H1058 H 0.1514 0.36344 0.47488 0.0
H1059 H 0.1707 0.36529 0.4917 0.0
N1060 N 0.19474 0.38276 0.51103 0.0
N1061 N 0.19368 0.38157 0.5455 0.0
H1062 H 0.97795 0.37074 0.02394 0.0
H1063 H 0.9743 0.38492 0.04594 0.0
H1064 H 0.00553 0.3845 0.07776 0.0
H1065 H 0.0093 0.37039 0.05592 0.0
H1066 H 0.9672 0.37954 0.08272 0.0
H1067 H 0.02039 0.42842 0.06938 0.0
H1068 H 0.01159 0.41306 0.05473 0.0
H1069 H 0.02018 0.41205 0.07339 0.0
C1070 C 0.98393 0.37352 0.03569 0.0
C1071 C 0.99403 0.36957 0.03809 0.0
C1072 C 0.98181 0.38159 0.04824 0.0
C1073 C 0.98978 0.38588 0.06333 0.0
C1074 C -0.0006 0.38142 0.06609 0.0
H1075 H 0.98349 0.42988 0.15425 0.0
H1076 H 0.98327 0.41213 0.13406 0.0
C1077 C 0.00151 0.37333 0.05359 0.0
C1078 C 0.98868 0.39573 0.07575 0.0
H1079 H 0.00743 0.43028 0.09238 0.0
C1080 C 0.97597 0.39063 0.08488 0.0
C1081 C 0.00012 0.41022 0.07833 0.0
C1082 C 0.01382 0.41637 0.06838 0.0
C1083 C 0.97446 0.39967 0.09675 0.0
C1084 C 0.98599 0.41408 0.09953 0.0
C1085 C 0.99864 0.41919 0.09026 0.0
C1086 C 0.98514 0.42424 0.11173 0.0
C1087 C 0.96049 0.39385 0.10601 0.0
C1088 C 0.98636 0.43693 0.10584 0.0
C1089 C 0.98646 0.44705 0.1173 0.0
C1090 C 0.98547 0.44473 0.13491 0.0
C1091 C 0.98408 0.4319 0.14076 0.0
C1092 C 0.98395 0.42174 0.12926 0.0
H1093 H 0.95178 0.38369 0.09989 0.0
H1094 H 0.96171 0.39143 0.11928 0.0
H1095 H 0.95733 0.40203 0.10653 0.0
H1096 H 0.9873 0.43904 0.09234 0.0
H1097 H 0.98731 0.45671 0.11234 0.0
H1098 H 0.63176 0.60894 0.03864 0.0
H1099 H 0.61875 0.59025 0.05977 0.0
H1100 H 0.64772 0.61891 0.09885 0.0
H1101 H 0.66076 0.63777 0.07785 0.0
H1102 H 0.62785 0.5767 0.08291 0.0
H1103 H 0.60798 0.60873 0.116 0.0
H1104 H 0.61588 0.61311 0.09508 0.0
H1105 H 0.62698 0.61773 0.11354 0.0
C1106 C 0.63546 0.61125 0.0517 0.0
C1107 C 0.64722 0.62491 0.05659 0.0
C1108 C 0.62802 0.60054 0.06374 0.0
C1109 C 0.63216 0.6033 0.08089 0.0
C1110 C 0.64423 0.61668 0.08571 0.0
H1111 H 0.58426 0.55104 0.16822 0.0
H1112 H 0.60359 0.56942 0.15069 0.0
C1113 C 0.65169 0.62741 0.07367 0.0
C1114 C 0.6234 0.59236 0.09373 0.0
H1115 H 0.60066 0.58585 0.12691 0.0
C1116 C 0.62198 0.57871 0.09262 0.0
C1117 C 0.6158 0.59506 0.1064 0.0
C1118 C 0.6166 0.6094 0.10784 0.0
C1119 C 0.613 0.5676 0.10373 0.0
C1120 C 0.60504 0.57015 0.11604 0.0
C1121 C 0.6068 0.58394 0.11748 0.0
C1122 C 0.59407 0.55843 0.12673 0.0
C1123 C 0.61209 0.55323 0.10218 0.0
C1124 C 0.58233 0.54617 0.11907 0.0
C1125 C 0.57133 0.53566 0.12902 0.0
C1126 C 0.57178 0.53725 0.14685 0.0
C1127 C 0.58367 0.54942 0.15453 0.0
C1128 C 0.59469 0.55996 0.14454 0.0
H1129 H 0.62185 0.55447 0.09622 0.0
H1130 H 0.61054 0.54825 0.1148 0.0
H1131 H 0.60289 0.54567 0.09397 0.0
H1132 H 0.58149 0.54492 0.10534 0.0
H1133 H 0.5624 0.52634 0.12273 0.0
H1134 H 0.38261 0.03537 0.05538 0.0
H1135 H 0.40025 0.04004 0.07728 0.0
H1136 H 0.38521 0.99435 0.07739 0.0
H1137 H 0.36754 0.98957 0.05582 0.0
H1138 H 0.38883 0.00708 0.11007 0.0
H1139 H 0.4367 0.03902 0.06928 0.0
H1140 H 0.42449 0.04522 0.07088 0.0
H1141 H 0.41897 0.02807 0.06053 0.0
C1142 C 0.38306 0.02633 0.0601 0.0
C1143 C 0.37371 0.0121 0.05381 0.0
C1144 C 0.39319 0.02903 0.07254 0.0
C1145 C 0.39413 0.01756 0.07879 0.0
C1146 C 0.38467 0.00336 0.0727 0.0
H1147 H 0.44218 0.99555 0.13973 0.0
H1148 H 0.42494 0.99716 0.12244 0.0
C1149 C 0.37459 0.00066 0.06034 0.0
C1150 C 0.40492 0.0201 0.09166 0.0
H1151 H 0.44058 0.03442 0.09709 0.0
C1152 C 0.40016 0.01319 0.10731 0.0
C1153 C 0.41969 0.02813 0.08804 0.0
C1154 C 0.42534 0.03548 0.07125 0.0
C1155 C 0.40974 0.01372 0.11925 0.0
C1156 C 0.42444 0.02119 0.11531 0.0
C1157 C 0.42929 0.02867 0.10001 0.0
C1158 C 0.43475 0.02037 0.12628 0.0
C1159 C 0.40405 0.0061 0.13588 0.0
C1160 C 0.44614 0.03294 0.13391 0.0
C1161 C 0.45601 0.03205 0.14393 0.0
C1162 C 0.45471 0.01858 0.14634 0.0
C1163 C 0.44333 0.00605 0.13848 0.0
C1164 C 0.43347 0.00695 0.12856 0.0
H1165 H 0.3935 0.00454 0.139 0.0
H1166 H 0.40271 0.99521 0.13489 0.0
H1167 H 0.41154 0.01228 0.14649 0.0
H1168 H 0.44734 0.04342 0.13219 0.0
H1169 H 0.46458 0.04189 0.1499 0.0
H1170 H 0.35301 0.98654 0.97207 0.0
H1171 H 0.3636 0.97928 0.94933 0.0
H1172 H 0.4042 0.01893 0.95782 0.0
H1173 H 0.39371 0.02638 0.98019 0.0
H1174 H 0.39711 0.01318 0.92402 0.0
H1175 H 0.39048 0.96457 0.95531 0.0
H1176 H 0.37445 0.96476 0.95268 0.0
H1177 H 0.38823 0.97794 0.96663 0.0
C1178 C 0.3642 0.99368 0.9691 0.0
C1179 C 0.37254 0.00702 0.97796 0.0
C1180 C 0.37024 0.98948 0.95617 0.0
C1181 C 0.38472 0.99849 0.95203 0.0
C1182 C 0.393 0.01182 0.96082 0.0
H1183 H 0.44713 0.9863 0.90478 0.0
H1184 H 0.43008 0.988 0.92319 0.0
C1185 C 0.38698 0.01604 0.97363 0.0
C1186 C 0.39141 0.99429 0.93849 0.0
H1187 H 0.40131 0.97001 0.92829 0.0
C1188 C 0.39793 0.00367 0.92484 0.0
C1189 C 0.39251 0.98192 0.9397 0.0
C1190 C 0.38616 0.97175 0.95442 0.0
C1191 C 0.40593 0.0013 0.91265 0.0
C1192 C 0.40714 0.989 0.91394 0.0
C1193 C 0.40025 0.97936 0.92729 0.0
C1194 C 0.41668 0.98677 0.90258 0.0
C1195 C 0.41359 0.0124 0.89904 0.0
C1196 C 0.41462 0.98517 0.88489 0.0
C1197 C 0.42451 0.98443 0.87428 0.0
C1198 C 0.43654 0.98515 0.88121 0.0
C1199 C 0.43816 0.98605 0.899 0.0
C1200 C 0.42835 0.98688 0.90956 0.0
H1201 H 0.41403 0.0227 0.90204 0.0
H1202 H 0.42466 0.01489 0.89735 0.0
H1203 H 0.40789 0.00797 0.88677 0.0
H1204 H 0.40553 0.98479 0.87928 0.0
H1205 H 0.42295 0.98377 0.86064 0.0
H1206 H 0.01182 0.36025 0.93955 0.0
H1207 H 0.01373 0.3782 0.91986 0.0
H1208 H 0.03554 0.412 0.95824 0.0
H1209 H 0.03337 0.39404 0.9782 0.0
H1210 H 0.01354 0.41234 0.94489 0.0
H1211 H 0.04611 0.40951 0.89257 0.0
H1212 H 0.03097 0.392 0.89743 0.0
H1213 H 0.04475 0.40183 0.91311 0.0
C1214 C 0.01726 0.37154 0.94373 0.0
C1215 C 0.0224 0.3757 0.96048 0.0
C1216 C 0.01842 0.38182 0.9324 0.0
C1217 C 0.02493 0.39648 0.93749 0.0
C1218 C 0.03052 0.40075 0.95402 0.0
H1219 H 0.03862 0.46565 0.87017 0.0
H1220 H 0.04205 0.44996 0.88876 0.0
C1221 C 0.02928 0.39047 0.9654 0.0
C1222 C 0.02467 0.40707 0.92619 0.0
H1223 H 0.03292 0.42072 0.88619 0.0
C1224 C 0.01792 0.41429 0.93212 0.0
C1225 C 0.03051 0.40972 0.90959 0.0
C1226 C 0.03862 0.40297 0.90285 0.0
C1227 C 0.01647 0.42375 0.92175 0.0
C1228 C 0.02162 0.42579 0.90485 0.0
C1229 C 0.02879 0.41896 0.89908 0.0
C1230 C 0.01954 0.43489 0.89298 0.0
C1231 C 0.00949 0.43152 0.92905 0.0
C1232 C 0.00574 0.4314 0.88887 0.0
C1233 C 0.00375 0.44033 0.8783 0.0
C1234 C 0.01552 0.45283 0.87148 0.0
C1235 C 0.02933 0.45604 0.87516 0.0
C1236 C 0.03132 0.44713 0.88581 0.0
H1237 H 0.00992 0.43209 0.94318 0.0
H1238 H 0.01467 0.44274 0.92425 0.0
H1239 H 0.99811 0.42551 0.92522 0.0
H1240 H 0.99649 0.4218 0.89392 0.0
H1241 H 0.99298 0.43743 0.87544 0.0
H1242 H 0.6355 0.64248 0.96308 0.0
H1243 H 0.61867 0.63292 0.93935 0.0
H1244 H 0.58354 0.61605 0.97467 0.0
H1245 H 0.60029 0.62571 0.99852 0.0
H1246 H 0.5981 0.60367 0.93381 0.0
H1247 H 0.57316 0.6366 0.93998 0.0
H1248 H 0.58975 0.64177 0.95028 0.0
H1249 H 0.57308 0.62799 0.95921 0.0
C1250 C 0.6242 0.63688 0.96582 0.0
C1251 C 0.61923 0.63483 0.9827 0.0
C1252 C 0.6146 0.63144 0.95224 0.0
C1253 C 0.59988 0.62394 0.95525 0.0
C1254 C 0.59487 0.62207 0.97206 0.0
H1255 H 0.52406 0.57121 0.89523 0.0
H1256 H 0.5416 0.58587 0.91729 0.0
C1257 C 0.60446 0.62751 0.98568 0.0
C1258 C 0.58977 0.61712 0.94086 0.0
H1259 H 0.56195 0.61606 0.92097 0.0
C1260 C 0.59028 0.60647 0.93089 0.0
C1261 C 0.57956 0.62076 0.93718 0.0
C1262 C 0.57889 0.6325 0.94711 0.0
C1263 C 0.5806 0.59908 0.91755 0.0
C1264 C 0.57033 0.60266 0.9139 0.0
C1265 C 0.56988 0.61339 0.92379 0.0
C1266 C 0.55967 0.59497 0.90021 0.0
C1267 C 0.58117 0.58717 0.90785 0.0
C1268 C 0.564 0.59559 0.88323 0.0
C1269 C 0.55401 0.58724 0.87059 0.0
C1270 C 0.5395 0.57821 0.87471 0.0
C1271 C 0.53514 0.57814 0.89162 0.0
C1272 C 0.54514 0.58647 0.90425 0.0
H1273 H 0.58736 0.58348 0.91477 0.0
H1274 H 0.57028 0.57766 0.90542 0.0
H1275 H 0.58642 0.59132 0.89539 0.0
H1276 H 0.57514 0.60234 0.87981 0.0
H1277 H 0.55765 0.5877 0.85763 0.0
H1278 H 0.00233 0.64156 0.95935 0.0
H1279 H 0.00472 0.62693 0.93694 0.0
H1280 H 0.02789 0.61641 0.97128 0.0
H1281 H 0.02533 0.63081 0.99395 0.0
H1282 H 0.028 0.62754 0.92164 0.0
H1283 H 0.99393 0.57661 0.95678 0.0
H1284 H 0.99547 0.59354 0.96292 0.0
H1285 H 0.00934 0.59035 0.96827 0.0
C1286 C 0.00805 0.63624 0.96213 0.0
C1287 C 0.01348 0.63718 0.97852 0.0
C1288 C 0.00943 0.62791 0.94928 0.0
C1289 C 0.01625 0.62039 0.95255 0.0
C1290 C 0.02233 0.6219 0.96862 0.0
H1291 H 0.03519 0.57255 0.87633 0.0
H1292 H 0.03726 0.59086 0.89709 0.0
C1293 C 0.0209 0.63019 0.98152 0.0
C1294 C 0.01631 0.61038 0.93939 0.0
H1295 H 0.00386 0.57458 0.93089 0.0
C1296 C 0.02278 0.61597 0.92364 0.0
C1297 C 0.00928 0.59526 0.942 0.0
C1298 C 0.00149 0.58852 0.95833 0.0
C1299 C 0.02241 0.60681 0.91039 0.0
C1300 C 0.01557 0.59172 0.91312 0.0
C1301 C 0.00915 0.58617 0.92889 0.0
C1302 C 0.0145 0.58134 0.89968 0.0
C1303 C 0.02898 0.61328 0.89347 0.0
C1304 C 0.00103 0.56989 0.89436 0.0
C1305 C -0.00018 0.5594 0.88263 0.0
C1306 C 0.01208 0.56015 0.876 0.0
C1307 C 0.02557 0.57181 0.88106 0.0
C1308 C 0.02677 0.58228 0.89289 0.0
H1309 H 0.0306 0.62424 0.89215 0.0
H1310 H 0.03953 0.61439 0.89237 0.0
H1311 H 0.0222 0.60616 0.88279 0.0
H1312 H 0.99143 0.56898 0.89945 0.0
H1313 H 0.98929 0.55063 0.87882 0.0
H1314 H 0.36355 0.40157 0.98179 0.0
H1315 H 0.37711 0.42158 0.96236 0.0
H1316 H 0.36021 0.39146 0.91955 0.0
H1317 H 0.34639 0.37142 0.93885 0.0
H1318 H 0.39782 0.42404 0.94118 0.0
H1319 H 0.35582 0.42412 0.90357 0.0
H1320 H 0.35209 0.41463 0.92332 0.0
H1321 H 0.35392 0.40662 0.90386 0.0
C1322 C 0.36253 0.39922 0.96823 0.0
C1323 C 0.35391 0.38489 0.96186 0.0
C1324 C 0.37028 0.41068 0.95714 0.0
C1325 C 0.36955 0.40804 0.9395 0.0
C1326 C 0.36069 0.3938 0.93309 0.0
H1327 H 0.41949 0.45444 0.85262 0.0
H1328 H 0.4019 0.43694 0.87248 0.0
C1329 C 0.35287 0.38234 0.94416 0.0
C1330 C 0.37905 0.41994 0.92797 0.0
H1331 H 0.37953 0.43753 0.89235 0.0
C1332 C 0.39381 0.42712 0.93064 0.0
C1333 C 0.37379 0.42387 0.91417 0.0
C1334 C 0.35803 0.41701 0.91113 0.0
C1335 C 0.40349 0.43785 0.91961 0.0
C1336 C 0.39824 0.44162 0.90567 0.0
C1337 C 0.38349 0.43458 0.90308 0.0
C1338 C 0.40802 0.45252 0.89337 0.0
C1339 C 0.41926 0.44475 0.92264 0.0
C1340 C 0.41702 0.46711 0.89848 0.0
C1341 C 0.42711 0.4771 0.88721 0.0
C1342 C 0.42835 0.47266 0.87063 0.0
C1343 C 0.41893 0.45813 0.86538 0.0
C1344 C 0.40882 0.44816 0.87665 0.0
H1345 H 0.42151 0.43861 0.93184 0.0
H1346 H 0.42487 0.44547 0.91053 0.0
H1347 H 0.42375 0.45596 0.92787 0.0
H1348 H 0.41644 0.47068 0.9113 0.0
H1349 H 0.43427 0.48819 0.89167 0.0
H1350 H 0.60741 0.97301 0.98101 0.0
H1351 H 0.58913 0.97083 0.96186 0.0
H1352 H 0.61622 0.97709 0.91877 0.0
H1353 H 0.6346 0.97923 0.93782 0.0
H1354 H 0.59467 0.99395 0.94002 0.0
H1355 H 0.57648 0.94218 0.90396 0.0
H1356 H 0.58552 0.94632 0.92421 0.0
H1357 H 0.59545 0.95463 0.90526 0.0
C1358 C 0.6094 0.97366 0.96744 0.0
C1359 C 0.6225 0.97636 0.96095 0.0
C1360 C 0.59894 0.97242 0.95652 0.0
C1361 C 0.6013 0.97372 0.93892 0.0
C1362 C 0.61411 0.97584 0.93231 0.0
H1363 H 0.55434 0.98047 0.85534 0.0
H1364 H 0.57138 0.97833 0.87273 0.0
C1365 C 0.62463 0.97713 0.94323 0.0
C1366 C 0.59093 0.97424 0.92773 0.0
H1367 H 0.56777 0.95672 0.89476 0.0
C1368 C 0.58873 0.98578 0.93017 0.0
C1369 C 0.58337 0.96366 0.91479 0.0
C1370 C 0.58519 0.95091 0.9119 0.0
C1371 C 0.5792 0.98709 0.91994 0.0
C1372 C 0.57141 0.97636 0.90719 0.0
C1373 C 0.57372 0.96489 0.9046 0.0
C1374 C 0.56071 0.97685 0.89656 0.0
C1375 C 0.57779 0.00012 0.92267 0.0
C1376 C 0.54891 0.97638 0.90418 0.0
C1377 C 0.53922 0.97764 0.89432 0.0
C1378 C 0.54106 0.97923 0.87662 0.0
C1379 C 0.55262 0.97919 0.86894 0.0
C1380 C 0.56237 0.97801 0.87884 0.0
H1381 H 0.58719 0.00918 0.92942 0.0
H1382 H 0.57651 0.00412 0.91038 0.0
H1383 H 0.56823 0.99699 0.93057 0.0
H1384 H 0.54725 0.97514 0.91779 0.0
H1385 H 0.53026 0.97733 0.90055 0.0
H1386 H 0.63337 0.99507 0.05475 0.0
H1387 H 0.61963 0.99873 0.07672 0.0
H1388 H 0.61638 0.02844 0.04455 0.0
H1389 H 0.62986 0.02459 0.0223 0.0
H1390 H 0.62316 0.02274 0.09453 0.0
H1391 H 0.57482 0.99768 0.05376 0.0
H1392 H 0.59024 0.99674 0.04833 0.0
H1393 H 0.59024 0.01304 0.04464 0.0
C1394 C 0.62985 0.00249 0.05238 0.0
C1395 C 0.63254 0.00939 0.03667 0.0
C1396 C 0.62201 0.00458 0.06497 0.0
C1397 C 0.61674 0.01362 0.06212 0.0
C1398 C 0.62007 0.02115 0.04684 0.0
H1399 H 0.57491 0.03764 0.14012 0.0
H1400 H 0.5918 0.03822 0.11919 0.0
C1401 C 0.62784 0.019 0.03418 0.0
C1402 C 0.60722 0.01459 0.07485 0.0
H1403 H 0.57336 0.00723 0.08051 0.0
C1404 C 0.61228 0.0194 0.09148 0.0
C1405 C 0.59297 0.01 0.07087 0.0
C1406 C 0.58666 0.00394 0.05349 0.0
C1407 C 0.60345 0.01976 0.10428 0.0
C1408 C 0.58928 0.01542 0.10021 0.0
C1409 C 0.58426 0.01065 0.08356 0.0
C1410 C 0.57925 0.01518 0.11312 0.0
C1411 C 0.60923 0.02434 0.12213 0.0
C1412 C 0.56643 0.0021 0.11637 0.0
C1413 C 0.55666 0.00178 0.12809 0.0
C1414 C 0.55948 0.01454 0.13682 0.0
C1415 C 0.57235 0.02763 0.13354 0.0
C1416 C 0.58211 0.02796 0.12174 0.0
H1417 H 0.61885 0.02374 0.12403 0.0
H1418 H 0.61226 0.03576 0.12457 0.0
H1419 H 0.60107 0.01744 0.13166 0.0
H1420 H 0.56397 0.99213 0.10976 0.0
H1421 H 0.54676 0.99155 0.13005 0.0
H1422 H 0.0153 0.64844 0.06531 0.0
H1423 H 0.00967 0.63014 0.08647 0.0
H1424 H 0.96646 0.60476 0.06784 0.0
H1425 H 0.97213 0.6229 0.04621 0.0
H1426 H 0.99031 0.61924 0.11233 0.0
H1427 H 0.97905 0.57578 0.0643 0.0
H1428 H 0.98713 0.59456 0.05872 0.0
H1429 H 0.96826 0.58356 0.06248 0.0
C1430 C 0.00457 0.639 0.06572 0.0
C1431 C 0.9942 0.63705 0.05395 0.0
C1432 C 0.00136 0.62856 0.07786 0.0
C1433 C 0.98772 0.61596 0.07854 0.0
C1434 C 0.97715 0.61424 0.06728 0.0
H1435 H 0.9612 0.54031 0.1419 0.0
H1436 H 0.96024 0.55818 0.12439 0.0
C1437 C 0.98039 0.62465 0.055 0.0
C1438 C 0.98487 0.60455 0.09075 0.0
H1439 H 0.97693 0.56961 0.0931 0.0
C1440 C 0.98728 0.60835 0.10814 0.0
C1441 C 0.98092 0.59035 0.08525 0.0
C1442 C 0.9788 0.5858 0.06667 0.0
C1443 C 0.98612 0.59843 0.12012 0.0
C1444 C 0.98254 0.5844 0.11454 0.0
C1445 C 0.97963 0.5804 0.09729 0.0
C1446 C 0.98285 0.57408 0.12616 0.0
C1447 C 0.98892 0.60306 0.13864 0.0
C1448 C 0.99588 0.57715 0.13288 0.0
C1449 C 0.99646 0.56697 0.14275 0.0
C1450 C 0.98402 0.55356 0.14611 0.0
C1451 C 0.97092 0.55062 0.13964 0.0
C1452 C 0.97037 0.56077 0.12961 0.0
H1453 H 0.98808 0.6127 0.14141 0.0
H1454 H 0.98133 0.59407 0.14691 0.0
H1455 H -0.00013 0.60597 0.14195 0.0
H1456 H 0.00565 0.58729 0.13014 0.0
H1457 H 0.00667 0.56956 0.14767 0.0
H1458 H 0.36901 0.37964 0.05055 0.0
H1459 H 0.38627 0.38915 0.07373 0.0
H1460 H 0.40255 0.36261 0.05604 0.0
H1461 H 0.38543 0.3532 0.03248 0.0
H1462 H 0.39034 0.37502 0.09977 0.0
H1463 H 0.43834 0.40319 0.05836 0.0
H1464 H 0.42058 0.39619 0.0504 0.0
H1465 H 0.42664 0.38405 0.05419 0.0
C1466 C 0.37624 0.3758 0.05155 0.0
C1467 C 0.37592 0.36575 0.03958 0.0
C1468 C 0.38608 0.38122 0.06485 0.0
C1469 C 0.3958 0.37672 0.06648 0.0
C1470 C 0.39532 0.36643 0.05481 0.0
H1471 H 0.46685 0.41514 0.13972 0.0
H1472 H 0.44867 0.39746 0.1197 0.0
C1473 C 0.3855 0.36103 0.04141 0.0
C1474 C 0.40651 0.3831 0.08032 0.0
H1475 H 0.44215 0.40572 0.0879 0.0
C1476 C 0.40168 0.38161 0.09719 0.0
C1477 C 0.42131 0.39164 0.07691 0.0
C1478 C 0.42708 0.394 0.059 0.0
C1479 C 0.41122 0.38881 0.11071 0.0
C1480 C 0.42592 0.39781 0.10722 0.0
C1481 C 0.43084 0.39876 0.09047 0.0
C1482 C 0.43618 0.40752 0.12042 0.0
C1483 C 0.40548 0.387 0.12859 0.0
C1484 C 0.43511 0.41896 0.1274 0.0
C1485 C 0.44545 0.42905 0.13867 0.0
C1486 C 0.45706 0.42788 0.14319 0.0
C1487 C 0.45794 0.4162 0.13654 0.0
C1488 C 0.44762 0.40616 0.1251 0.0
H1489 H 0.39485 0.37686 0.12973 0.0
H1490 H 0.41288 0.38681 0.13783 0.0
H1491 H 0.40431 0.39631 0.13207 0.0
H1492 H 0.42647 0.42032 0.12373 0.0
H1493 H 0.44448 0.4379 0.14371 0.0
H1494 H 0.65741 0.69726 0.39347 0.0
H1495 H 0.64946 0.70694 0.4165 0.0
H1496 H 0.63237 0.7226 0.37976 0.0
H1497 H 0.64012 0.71279 0.35662 0.0
H1498 H 0.65833 0.73585 0.42155 0.0
H1499 H 0.59959 0.70219 0.41367 0.0
H1500 H 0.61143 0.69728 0.40391 0.0
H1501 H 0.60908 0.71084 0.3946 0.0
C1502 C 0.65182 0.70263 0.39027 0.0
C1503 C 0.64941 0.70427 0.3732 0.0
C1504 C 0.64728 0.70814 0.40345 0.0
C1505 C 0.64017 0.71532 0.39984 0.0
C1506 C 0.63757 0.71682 0.38284 0.0
H1507 H 0.61567 0.7675 0.45785 0.0
H1508 H 0.6194 0.7533 0.43603 0.0
C1509 C 0.6421 0.71129 0.36962 0.0
C1510 C 0.63641 0.72214 0.41383 0.0
H1511 H 0.60864 0.72285 0.43242 0.0
C1512 C 0.64746 0.73292 0.42403 0.0
C1513 C 0.62221 0.71833 0.41696 0.0
C1514 C 0.60987 0.70643 0.40682 0.0
C1515 C 0.64475 0.74024 0.43706 0.0
C1516 C 0.63057 0.73649 0.44015 0.0
C1517 C 0.61949 0.72566 0.43001 0.0
C1518 C 0.62714 0.744 0.4536 0.0
C1519 C 0.65713 0.75221 0.4471 0.0
C1520 C 0.62989 0.74313 0.47075 0.0
C1521 C 0.62773 0.7512 0.48325 0.0
C1522 C 0.62271 0.7602 0.47883 0.0
C1523 C 0.61942 0.76057 0.4617 0.0
C1524 C 0.6216 0.75252 0.44921 0.0
H1525 H 0.66748 0.75598 0.44062 0.0
H1526 H 0.65588 0.76166 0.44919 0.0
H1527 H 0.65753 0.74811 0.45973 0.0
H1528 H 0.63391 0.73639 0.47442 0.0
H1529 H 0.63012 0.75048 0.49637 0.0
H1530 H 0.30839 0.94948 0.38857 0.0
H1531 H 0.29594 0.93129 0.41048 0.0
H1532 H 0.26941 0.94869 0.42169 0.0
H1533 H 0.28166 0.96681 0.39981 0.0
H1534 H 0.29204 0.93519 0.44635 0.0
H1535 H 0.24102 0.90502 0.41063 0.0
H1536 H 0.25772 0.91788 0.4007 0.0
H1537 H 0.24817 0.92418 0.41313 0.0
C1538 C 0.29992 0.94945 0.39572 0.0
C1539 C 0.29594 0.95952 0.39236 0.0
C1540 C 0.29285 0.93908 0.40825 0.0
C1541 C 0.28165 0.93855 0.41751 0.0
C1542 C 0.27789 0.94879 0.41447 0.0
H1543 H 0.22035 0.88541 0.49263 0.0
H1544 H 0.23623 0.90437 0.47302 0.0
C1545 C 0.28494 0.95916 0.40199 0.0
C1546 C 0.27368 0.92717 0.43019 0.0
H1547 H 0.24043 0.89866 0.43938 0.0
C1548 C 0.28078 0.92712 0.44482 0.0
C1549 C 0.25903 0.91665 0.42806 0.0
C1550 C 0.25103 0.91579 0.41222 0.0
C1551 C 0.27344 0.91708 0.45772 0.0
C1552 C 0.2587 0.90677 0.45573 0.0
C1553 C 0.25171 0.90666 0.44092 0.0
C1554 C 0.25013 0.89611 0.46894 0.0
C1555 C 0.28137 0.91788 0.47358 0.0
C1556 C 0.25281 0.8853 0.47331 0.0
C1557 C 0.24373 0.87443 0.48454 0.0
C1558 C 0.23175 0.87414 0.49139 0.0
C1559 C 0.22938 0.88525 0.48737 0.0
C1560 C 0.23847 0.89611 0.47623 0.0
H1561 H 0.29171 0.92838 0.47482 0.0
H1562 H 0.27488 0.91645 0.48511 0.0
H1563 H 0.28358 0.90901 0.47305 0.0
H1564 H 0.26161 0.88496 0.46758 0.0
H1565 H 0.24572 0.86591 0.48728 0.0
H1566 H 0.05765 0.37358 0.38248 0.0
H1567 H 0.07614 0.38227 0.40437 0.0
H1568 H 0.06331 0.33806 0.41438 0.0
H1569 H 0.04473 0.32926 0.39276 0.0
H1570 H 0.06786 0.35543 0.44399 0.0
H1571 H 0.11323 0.38224 0.39858 0.0
H1572 H 0.10045 0.3877 0.39782 0.0
H1573 H 0.0952 0.36946 0.39166 0.0
C1574 C 0.05874 0.3657 0.38937 0.0
C1575 C 0.04977 0.35073 0.38581 0.0
C1576 C 0.06935 0.3707 0.40181 0.0
C1577 C 0.0712 0.36081 0.41081 0.0
C1578 C 0.06207 0.34587 0.40753 0.0
H1579 H 0.12597 0.35471 0.4798 0.0
H1580 H 0.10659 0.35167 0.46203 0.0
C1581 C 0.05148 0.34086 0.39514 0.0
C1582 C 0.08274 0.3659 0.42352 0.0
H1583 H 0.11889 0.38329 0.4275 0.0
C1584 C 0.07902 0.36163 0.44043 0.0
C1585 C 0.09729 0.37404 0.41883 0.0
C1586 C 0.10186 0.37857 0.40073 0.0
C1587 C 0.08948 0.36501 0.45273 0.0
C1588 C 0.10399 0.37266 0.44788 0.0
C1589 C 0.10774 0.37743 0.43114 0.0
C1590 C 0.11533 0.37471 0.45955 0.0
C1591 C 0.0849 0.36025 0.47075 0.0
C1592 C 0.12678 0.38869 0.46386 0.0
C1593 C 0.13796 0.39046 0.47394 0.0
C1594 C 0.13793 0.37827 0.47965 0.0
C1595 C 0.12636 0.3643 0.47545 0.0
C1596 C 0.11519 0.36255 0.46547 0.0
H1597 H 0.07426 0.35861 0.47354 0.0
H1598 H 0.08415 0.34975 0.47256 0.0
H1599 H 0.09273 0.36833 0.48006 0.0
H1600 H 0.12713 0.3982 0.45926 0.0
H1601 H 0.1468 0.40135 0.47686 0.0
H1602 H 0.02359 0.31841 0.30145 0.0
H1603 H 0.03059 0.30715 0.27909 0.0
H1604 H 0.07453 0.3344 0.29453 0.0
H1605 H 0.06769 0.3457 0.31684 0.0
H1606 H 0.05054 0.32216 0.25205 0.0
H1607 H 0.06717 0.29262 0.29262 0.0
H1608 H 0.05583 0.29896 0.30027 0.0
H1609 H 0.07478 0.31136 0.29887 0.0
C1610 C 0.03473 0.32192 0.30016 0.0
C1611 C 0.0451 0.33294 0.31092 0.0
C1612 C 0.0387 0.31549 0.28739 0.0
C1613 C 0.05304 0.31983 0.28534 0.0
C1614 C 0.06337 0.33074 0.29611 0.0
H1615 H 0.10596 0.32159 0.20593 0.0
H1616 H 0.09107 0.32538 0.22602 0.0
C1617 C 0.05945 0.33724 0.30879 0.0
C1618 C 0.05742 0.31354 0.27143 0.0
H1619 H 0.07536 0.29622 0.26376 0.0
C1620 C 0.05577 0.31629 0.25456 0.0
C1621 C 0.06405 0.30571 0.27476 0.0
C1622 C 0.06546 0.30185 0.29261 0.0
C1623 C 0.06132 0.31212 0.24096 0.0
C1624 C 0.06878 0.30515 0.2444 0.0
C1625 C 0.06971 0.30166 0.26118 0.0
C1626 C 0.07679 0.30254 0.23102 0.0
C1627 C 0.05941 0.31547 0.22307 0.0
C1628 C 0.07371 0.28844 0.22722 0.0
C1629 C 0.08225 0.28625 0.21576 0.0
C1630 C 0.09411 0.29816 0.20815 0.0
C1631 C 0.09694 0.31223 0.21171 0.0
C1632 C 0.08837 0.31439 0.22304 0.0
H1633 H 0.05011 0.31677 0.22211 0.0
H1634 H 0.06906 0.32582 0.21927 0.0
H1635 H 0.05794 0.30677 0.21394 0.0
H1636 H 0.06488 0.27918 0.23338 0.0
H1637 H 0.0799 0.27531 0.21335 0.0
H1638 H 0.69167 0.73031 0.3185 0.0
H1639 H 0.69941 0.74931 0.29756 0.0
H1640 H 0.69862 0.72028 0.25834 0.0
H1641 H 0.69072 0.70111 0.27916 0.0
H1642 H 0.72344 0.76217 0.27496 0.0
H1643 H 0.67152 0.73258 0.24067 0.0
H1644 H 0.67375 0.72768 0.26162 0.0
H1645 H 0.6803 0.72274 0.24329 0.0
C1646 C 0.69323 0.72797 0.30545 0.0
C1647 C 0.69044 0.71413 0.30047 0.0
C1648 C 0.69768 0.73886 0.29352 0.0
C1649 C 0.69938 0.73611 0.27639 0.0
C1650 C 0.69714 0.72252 0.27147 0.0
H1651 H 0.71151 0.78997 0.18918 0.0
H1652 H 0.71017 0.77102 0.20684 0.0
C1653 C 0.69268 0.7116 0.2834 0.0
C1654 C 0.70295 0.74735 0.26366 0.0
H1655 H 0.68909 0.75525 0.23014 0.0
C1656 C 0.71599 0.76065 0.26508 0.0
C1657 C 0.6932 0.74528 0.25076 0.0
C1658 C 0.67885 0.73136 0.24899 0.0
C1659 C 0.71949 0.77203 0.25403 0.0
C1660 C 0.70956 0.77012 0.24148 0.0
C1661 C 0.6967 0.75667 0.23976 0.0
C1662 C 0.7118 0.78218 0.23075 0.0
C1663 C 0.73379 0.78598 0.25591 0.0
C1664 C 0.71319 0.79474 0.23834 0.0
C1665 C 0.71402 0.80559 0.22831 0.0
C1666 C 0.71335 0.80404 0.21047 0.0
C1667 C 0.71222 0.79157 0.20288 0.0
C1668 C 0.71138 0.7807 0.21294 0.0
H1669 H 0.74169 0.78416 0.26208 0.0
H1670 H 0.73805 0.79098 0.24338 0.0
H1671 H 0.73259 0.79379 0.26406 0.0
H1672 H 0.71323 0.79597 0.25206 0.0
H1673 H 0.71503 0.81512 0.23455 0.0
H1674 H 0.27759 0.93931 0.31794 0.0
H1675 H 0.26028 0.93238 0.29506 0.0
H1676 H 0.27606 0.97753 0.28646 0.0
H1677 H 0.29352 0.98463 0.30936 0.0
H1678 H 0.23876 0.9398 0.29185 0.0
H1679 H 0.27848 0.96024 0.23918 0.0
H1680 H 0.28263 0.95702 0.26011 0.0
H1681 H 0.2815 0.97267 0.2566 0.0
C1682 C 0.2774 0.94779 0.31122 0.0
C1683 C 0.28699 0.96252 0.31541 0.0
C1684 C 0.26748 0.9438 0.29817 0.0
C1685 C 0.26701 0.95445 0.289 0.0
C1686 C 0.27639 0.96917 0.29328 0.0
H1687 H 0.19649 0.92716 0.2167 0.0
H1688 H 0.21506 0.94213 0.23784 0.0
C1689 C 0.28631 0.97319 0.3064 0.0
C1690 C 0.25671 0.94998 0.27488 0.0
H1691 H 0.25429 0.94844 0.23154 0.0
C1692 C 0.24211 0.94184 0.27866 0.0
C1693 C 0.2612 0.95263 0.25773 0.0
C1694 C 0.27679 0.96104 0.25303 0.0
C1695 C 0.23184 0.93589 0.26569 0.0
C1696 C 0.23633 0.93828 0.24852 0.0
C1697 C 0.25092 0.94677 0.24474 0.0
C1698 C 0.22612 0.93067 0.23441 0.0
C1699 C 0.2163 0.9265 0.27041 0.0
C1700 C 0.22655 0.91969 0.22511 0.0
C1701 C 0.21605 0.9112 0.21308 0.0
C1702 C 0.20494 0.91359 0.21007 0.0
C1703 C 0.20494 0.92511 0.21875 0.0
C1704 C 0.21546 0.93358 0.23088 0.0
H1705 H 0.21479 0.92399 0.28416 0.0
H1706 H 0.21075 0.93223 0.2674 0.0
H1707 H 0.21114 0.91612 0.26291 0.0
H1708 H 0.23474 0.91732 0.22761 0.0
H1709 H 0.21642 0.90253 0.20639 0.0
H1710 H 0.71272 0.9894 0.31788 0.0
H1711 H 0.72129 0.98052 0.29448 0.0
H1712 H 0.67799 0.95131 0.27774 0.0
H1713 H 0.66937 0.96015 0.3008 0.0
H1714 H 0.71461 0.95221 0.2882 0.0
H1715 H 0.69805 0.9713 0.23391 0.0
H1716 H 0.69919 0.9782 0.25538 0.0
H1717 H 0.68371 0.96126 0.24855 0.0
C1718 C 0.70504 0.98116 0.30914 0.0
C1719 C 0.69037 0.97551 0.31118 0.0
C1720 C 0.70996 0.97612 0.29578 0.0
C1721 C 0.7003 0.96548 0.28419 0.0
C1722 C 0.68566 0.9598 0.28628 0.0
H1723 H 0.68913 0.90252 0.21149 0.0
H1724 H 0.68866 0.92016 0.23109 0.0
C1725 C 0.68074 0.96479 0.29958 0.0
C1726 C 0.70525 0.95958 0.27044 0.0
H1727 H 0.7018 0.9516 0.22782 0.0
C1728 C 0.71212 0.95233 0.27494 0.0
C1729 C 0.70204 0.95985 0.25315 0.0
C1730 C 0.69547 0.96821 0.24743 0.0
C1731 C 0.71496 0.94448 0.26274 0.0
C1732 C 0.71095 0.94404 0.24563 0.0
C1733 C 0.7048 0.95193 0.24098 0.0
C1734 C 0.7116 0.93416 0.23281 0.0
C1735 C 0.72144 0.93601 0.26837 0.0
C1736 C 0.72467 0.93639 0.22704 0.0
C1737 C 0.72497 0.9263 0.21582 0.0
C1738 C 0.71219 0.91381 0.21033 0.0
C1739 C 0.69914 0.91192 0.21572 0.0
C1740 C 0.69885 0.92202 0.22682 0.0
H1741 H 0.72229 0.93606 0.28243 0.0
H1742 H 0.71498 0.92457 0.26362 0.0
H1743 H 0.7323 0.94085 0.2629 0.0
H1744 H 0.73461 0.9458 0.23142 0.0
H1745 H 0.73518 0.928 0.2119 0.0
H1746 H 0.00858 0.70379 0.2792 0.0
H1747 H 0.02172 0.72321 0.25882 0.0
H1748 H 0.04697 0.75262 0.29972 0.0
H1749 H 0.03404 0.73332 0.32016 0.0
H1750 H 0.02692 0.75246 0.2571 0.0
H1751 H 0.07615 0.75156 0.2668 0.0
H1752 H 0.05881 0.7371 0.2736 0.0
H1753 H 0.06838 0.7537 0.28601 0.0
C1754 C 0.01683 0.71443 0.28389 0.0
C1755 C 0.02038 0.71696 0.30128 0.0
C1756 C 0.0243 0.7255 0.27222 0.0
C1757 C 0.03544 0.73924 0.27776 0.0
C1758 C 0.03855 0.742 0.29519 0.0
H1759 H 0.10116 0.81811 0.233 0.0
H1760 H 0.08393 0.79902 0.25157 0.0
C1761 C 0.03112 0.73096 0.30684 0.0
C1762 C 0.04433 0.75052 0.26532 0.0
H1763 H 0.0784 0.7707 0.25048 0.0
C1764 C 0.03816 0.75643 0.25554 0.0
C1765 C 0.05895 0.75554 0.26328 0.0
C1766 C 0.06598 0.74908 0.27285 0.0
C1767 C 0.04639 0.76764 0.24415 0.0
C1768 C 0.06108 0.77286 0.2424 0.0
C1769 C 0.06715 0.76673 0.25195 0.0
C1770 C 0.07055 0.78489 0.23103 0.0
C1771 C 0.03944 0.7741 0.23446 0.0
C1772 C 0.06865 0.78331 0.21332 0.0
C1773 C 0.07853 0.79422 0.20264 0.0
C1774 C 0.09052 0.80678 0.20954 0.0
C1775 C 0.09214 0.80846 0.22731 0.0
C1776 C 0.08228 0.79761 0.23793 0.0
H1777 H 0.02896 0.77115 0.23999 0.0
H1778 H 0.04641 0.78613 0.2343 0.0
H1779 H 0.03768 0.76995 0.2211 0.0
H1780 H 0.05981 0.77345 0.20772 0.0
H1781 H 0.07708 0.79257 0.18899 0.0
H1782 H 0.29878 0.31104 0.27627 0.0
H1783 H 0.27957 0.3049 0.25608 0.0
H1784 H 0.25265 0.3029 0.29752 0.0
H1785 H 0.27172 0.30912 0.31773 0.0
H1786 H 0.25023 0.28055 0.25438 0.0
H1787 H 0.25469 0.33363 0.26542 0.0
H1788 H 0.26837 0.33037 0.27183 0.0
H1789 H 0.25253 0.32387 0.28445 0.0
C1790 C 0.28873 0.30918 0.2811 0.0
C1791 C 0.28684 0.31072 0.2986 0.0
C1792 C 0.27778 0.30566 0.26955 0.0
C1793 C 0.2648 0.30369 0.27531 0.0
C1794 C 0.26268 0.30463 0.29281 0.0
H1795 H 0.1874 0.29013 0.23287 0.0
H1796 H 0.20647 0.29259 0.25082 0.0
C1797 C 0.2736 0.30815 0.30434 0.0
C1798 C 0.25361 0.30115 0.26308 0.0
H1799 H 0.23477 0.31577 0.2494 0.0
C1800 C 0.24689 0.28827 0.25316 0.0
C1801 C 0.24937 0.3113 0.2615 0.0
C1802 C 0.25668 0.32564 0.27124 0.0
C1803 C 0.23563 0.28503 0.24211 0.0
C1804 C 0.2312 0.29506 0.24083 0.0
C1805 C 0.23813 0.30806 0.25051 0.0
C1806 C 0.21919 0.29227 0.22983 0.0
C1807 C 0.2283 0.27075 0.2323 0.0
C1808 C 0.21998 0.29117 0.21207 0.0
C1809 C 0.20909 0.2898 0.20175 0.0
C1810 C 0.19731 0.28965 0.20905 0.0
C1811 C 0.19643 0.29042 0.22686 0.0
C1812 C 0.20728 0.29175 0.23713 0.0
H1813 H 0.2308 0.26293 0.23755 0.0
H1814 H 0.21656 0.26575 0.23241 0.0
H1815 H 0.23193 0.27268 0.21887 0.0
H1816 H 0.22922 0.29183 0.20616 0.0
H1817 H 0.21015 0.2894 0.18807 0.0
H1818 H 0.28985 0.33311 0.38544 0.0
H1819 H 0.28016 0.34136 0.40798 0.0
H1820 H 0.31741 0.38458 0.40568 0.0
H1821 H 0.32726 0.37644 0.38297 0.0
H1822 H 0.29345 0.35537 0.44064 0.0
H1823 H 0.28252 0.38946 0.39949 0.0
H1824 H 0.28529 0.37555 0.39077 0.0
H1825 H 0.30013 0.39236 0.39879 0.0
C1826 C 0.29602 0.34438 0.38968 0.0
C1827 C 0.30931 0.35414 0.38234 0.0
C1828 C 0.29047 0.34906 0.40261 0.0
C1829 C 0.29802 0.36358 0.40837 0.0
C1830 C 0.31136 0.37335 0.40125 0.0
H1831 H 0.26325 0.40187 0.47844 0.0
H1832 H 0.2802 0.39928 0.46053 0.0
C1833 C 0.31698 0.36867 0.38833 0.0
C1834 C 0.29173 0.36836 0.42174 0.0
H1835 H 0.27524 0.38731 0.42802 0.0
C1836 C 0.2896 0.36248 0.43797 0.0
C1837 C 0.28683 0.37772 0.41821 0.0
C1838 C 0.28869 0.38412 0.40087 0.0
C1839 C 0.28234 0.36541 0.45066 0.0
C1840 C 0.2768 0.37418 0.44686 0.0
C1841 C 0.27948 0.38057 0.43087 0.0
C1842 C 0.26716 0.37581 0.45872 0.0
C1843 C 0.28056 0.35897 0.46796 0.0
C1844 C 0.25424 0.36349 0.46357 0.0
C1845 C 0.24461 0.36492 0.47381 0.0
C1846 C 0.24764 0.37873 0.47928 0.0
C1847 C 0.26068 0.39108 0.47457 0.0
C1848 C 0.27033 0.38962 0.46429 0.0
H1849 H 0.28914 0.35683 0.47056 0.0
H1850 H 0.28061 0.36627 0.4782 0.0
H1851 H 0.27022 0.34845 0.46839 0.0
H1852 H 0.25143 0.35275 0.45913 0.0
H1853 H 0.23473 0.3552 0.47736 0.0
H1854 H 0.63548 0.94655 0.38224 0.0
H1855 H 0.62728 0.92868 0.40478 0.0
H1856 H 0.67072 0.94133 0.41455 0.0
H1857 H 0.67902 0.9593 0.39231 0.0
H1858 H 0.63074 0.90525 0.40705 0.0
H1859 H 0.65634 0.94333 0.46191 0.0
H1860 H 0.65437 0.94922 0.44144 0.0
H1861 H 0.66867 0.94623 0.44509 0.0
C1862 C 0.64329 0.94559 0.38927 0.0
C1863 C 0.65791 0.9544 0.38554 0.0
C1864 C 0.63859 0.93538 0.40213 0.0
C1865 C 0.64841 0.93387 0.41153 0.0
C1866 C 0.66298 0.94256 0.40773 0.0
H1867 H 0.65094 0.87744 0.4825 0.0
H1868 H 0.65505 0.89602 0.4624 0.0
C1869 C 0.6677 0.95277 0.39493 0.0
C1870 C 0.64347 0.9228 0.42484 0.0
H1871 H 0.64829 0.91838 0.46651 0.0
C1872 C 0.63439 0.90811 0.42011 0.0
C1873 C 0.64822 0.92658 0.44188 0.0
C1874 C 0.65732 0.94221 0.44794 0.0
C1875 C 0.63049 0.89705 0.4318 0.0
C1876 C 0.63568 0.90084 0.44867 0.0
C1877 C 0.64439 0.91553 0.45353 0.0
C1878 C 0.63295 0.8897 0.46117 0.0
C1879 C 0.62134 0.88139 0.42588 0.0
C1880 C 0.61916 0.8801 0.46729 0.0
C1881 C 0.61676 0.86951 0.47894 0.0
C1882 C 0.62815 0.86839 0.48469 0.0
C1883 C 0.64196 0.87814 0.47859 0.0
C1884 C 0.64433 0.88872 0.46701 0.0
H1885 H 0.62025 0.88029 0.41181 0.0
H1886 H 0.62589 0.87501 0.43022 0.0
H1887 H 0.61054 0.87659 0.43148 0.0
H1888 H 0.61027 0.88084 0.4631 0.0
H1889 H 0.60604 0.86229 0.48354 0.0
H1890 H 0.05767 0.6907 0.36903 0.0
H1891 H 0.07399 0.69933 0.39334 0.0
H1892 H 0.05218 0.71906 0.41582 0.0
H1893 H 0.03569 0.71026 0.39186 0.0
H1894 H 0.09228 0.72714 0.40378 0.0
H1895 H 0.0543 0.6976 0.45567 0.0
H1896 H 0.04969 0.69283 0.43351 0.0
H1897 H 0.0488 0.70752 0.44343 0.0
C1898 C 0.05628 0.69677 0.37923 0.0
C1899 C 0.04536 0.69977 0.37853 0.0
C1900 C 0.06559 0.70166 0.39312 0.0
C1901 C 0.06412 0.70957 0.40655 0.0
C1902 C 0.05326 0.71261 0.40584 0.0
H1903 H 0.11113 0.76824 0.48662 0.0
H1904 H 0.09389 0.75153 0.46536 0.0
C1905 C 0.04392 0.70768 0.39204 0.0
C1906 C 0.07448 0.71558 0.42078 0.0
H1907 H 0.07679 0.71885 0.46411 0.0
C1908 C 0.08895 0.7251 0.41698 0.0
C1909 C 0.07011 0.71285 0.43799 0.0
C1910 C 0.05489 0.70202 0.44289 0.0
C1911 C 0.09903 0.73262 0.42992 0.0
C1912 C 0.09451 0.73046 0.44706 0.0
C1913 C 0.08017 0.72049 0.45092 0.0
C1914 C 0.10427 0.73949 0.46099 0.0
C1915 C 0.11432 0.74338 0.42519 0.0
C1916 C 0.1156 0.73798 0.4658 0.0
C1917 C 0.12547 0.74751 0.47798 0.0
C1918 C 0.12416 0.75872 0.48538 0.0
C1919 C 0.11249 0.75982 0.48095 0.0
C1920 C 0.10261 0.75025 0.4689 0.0
H1921 H 0.11575 0.745 0.41124 0.0
H1922 H 0.11809 0.75404 0.43166 0.0
H1923 H 0.12117 0.73941 0.4295 0.0
H1924 H 0.11697 0.72965 0.45987 0.0
H1925 H 0.13439 0.74647 0.48113 0.0
H1926 H 0.31369 0.05384 0.68625 0.0
H1927 H 0.30647 0.06402 0.70958 0.0
H1928 H 0.3199 0.04461 0.74601 0.0
H1929 H 0.32727 0.03448 0.72283 0.0
H1930 H 0.28685 0.04977 0.73714 0.0
H1931 H 0.34229 0.08833 0.75943 0.0
H1932 H 0.33834 0.07929 0.73881 0.0
H1933 H 0.33724 0.06964 0.75755 0.0
C1934 C 0.31508 0.0517 0.69922 0.0
C1935 C 0.32117 0.04345 0.70268 0.0
C1936 C 0.31092 0.0575 0.71252 0.0
C1937 C 0.31285 0.05522 0.72948 0.0
C1938 C 0.31855 0.04668 0.73299 0.0
H1939 H 0.30253 0.09059 0.82547 0.0
H1940 H 0.30607 0.07617 0.80371 0.0
C1941 C 0.32271 0.04086 0.71972 0.0
C1942 C 0.30917 0.06205 0.74351 0.0
H1943 H 0.32377 0.08724 0.77595 0.0
C1944 C 0.2949 0.05796 0.74565 0.0
C1945 C 0.31971 0.07271 0.75457 0.0
C1946 C 0.33528 0.07788 0.75246 0.0
C1947 C 0.29086 0.06418 0.7587 0.0
C1948 C 0.30143 0.07495 0.76965 0.0
C1949 C 0.31568 0.07894 0.76758 0.0
C1950 C 0.29811 0.08266 0.78299 0.0
C1951 C 0.2753 0.05903 0.76079 0.0
C1952 C 0.29243 0.09105 0.77854 0.0
C1953 C 0.29042 0.09931 0.79092 0.0
C1954 C 0.29419 0.09943 0.80796 0.0
C1955 C 0.29965 0.09082 0.81242 0.0
C1956 C 0.30162 0.08254 0.80003 0.0
H1957 H 0.26831 0.04808 0.75487 0.0
H1958 H 0.27242 0.05866 0.77444 0.0
H1959 H 0.27313 0.06668 0.75444 0.0
H1960 H 0.28998 0.0916 0.7654 0.0
H1961 H 0.28644 0.10602 0.78702 0.0
H1962 H 0.96795 0.2701 0.70235 0.0
H1963 H 0.955 0.25172 0.72388 0.0
H1964 H 0.97908 0.28342 0.76351 0.0
H1965 H 0.99207 0.30191 0.74213 0.0
H1966 H 0.96557 0.24192 0.75125 0.0
H1967 H 0.93636 0.26809 0.77439 0.0
H1968 H 0.94546 0.27225 0.75416 0.0
H1969 H 0.95545 0.27964 0.77352 0.0
C1970 C 0.97059 0.27315 0.71564 0.0
C1971 C 0.98097 0.28751 0.72053 0.0
C1972 C 0.96319 0.26262 0.72791 0.0
C1973 C 0.96598 0.26629 0.74525 0.0
C1974 C 0.97666 0.28045 0.75017 0.0
H1975 H 0.92068 0.21857 0.8355 0.0
H1976 H 0.93812 0.23676 0.81611 0.0
C1977 C 0.9841 0.29098 0.73793 0.0
C1978 C 0.9573 0.25543 0.7582 0.0
H1979 H 0.93211 0.2474 0.78876 0.0
C1980 C 0.95827 0.24309 0.7595 0.0
C1981 C 0.94782 0.25706 0.76893 0.0
C1982 C 0.94607 0.2699 0.76767 0.0
C1983 C 0.95003 0.23234 0.77137 0.0
C1984 C 0.94037 0.23385 0.78191 0.0
C1985 C 0.93955 0.24628 0.78071 0.0
C1986 C 0.93061 0.22246 0.79386 0.0
C1987 C 0.9519 0.21957 0.77265 0.0
C1988 C 0.92062 0.20839 0.78779 0.0
C1989 C 0.91067 0.19798 0.79884 0.0
C1990 C 0.91041 0.20151 0.81613 0.0
C1991 C 0.92054 0.21557 0.82222 0.0
C1992 C 0.93054 0.22595 0.81118 0.0
H1993 H 0.96246 0.22219 0.76772 0.0
H1994 H 0.95082 0.21606 0.786 0.0
H1995 H 0.94357 0.21032 0.76489 0.0
H1996 H 0.92021 0.20556 0.77441 0.0
H1997 H 0.90284 0.18733 0.7937 0.0
H1998 H 0.73078 0.70727 0.70255 0.0
H1999 H 0.75117 0.71726 0.72199 0.0
H2000 H 0.72677 0.68139 0.75542 0.0
H2001 H 0.70636 0.67143 0.73627 0.0
H2002 H 0.74269 0.70897 0.77236 0.0
H2003 H 0.77539 0.69863 0.72642 0.0
H2004 H 0.76856 0.70934 0.71899 0.0
H2005 H 0.75646 0.69057 0.72372 0.0
C2006 C 0.72973 0.70157 0.7141 0.0
C2007 C 0.71698 0.68849 0.7178 0.0
C2008 C 0.7414 0.70726 0.72514 0.0
C2009 C 0.7405 0.69995 0.74001 0.0
C2010 C 0.72767 0.68717 0.74398 0.0
H2011 H 0.79893 0.6945 0.80301 0.0
H2012 H 0.78104 0.69195 0.78295 0.0
C2013 C 0.71603 0.68148 0.73298 0.0
C2014 C 0.75302 0.70518 0.75122 0.0
H2015 H 0.7854 0.70837 0.75332 0.0
C2016 C 0.75212 0.70903 0.76818 0.0
C2017 C 0.76522 0.7051 0.74571 0.0
C2018 C 0.76652 0.7006 0.72776 0.0
C2019 C 0.76298 0.71244 0.77992 0.0
C2020 C 0.77507 0.71213 0.77446 0.0
C2021 C 0.77613 0.70867 0.7574 0.0
C2022 C 0.7861 0.71404 0.78656 0.0
C2023 C 0.76116 0.71572 0.79823 0.0
C2024 C 0.79494 0.72736 0.79514 0.0
C2025 C 0.80515 0.72883 0.80673 0.0
C2026 C 0.80664 0.71699 0.80991 0.0
C2027 C 0.79787 0.70374 0.80109 0.0
C2028 C 0.78773 0.7023 0.78952 0.0
H2029 H 0.75017 0.71314 0.80093 0.0
H2030 H 0.76365 0.70944 0.80692 0.0
H2031 H 0.76868 0.72744 0.80112 0.0
H2032 H 0.79395 0.7366 0.79286 0.0
H2033 H 0.81173 0.73916 0.81337 0.0
H2034 H 0.70294 0.63606 0.66289 0.0
H2035 H 0.71238 0.62713 0.64065 0.0
H2036 H 0.71249 0.65692 0.60532 0.0
H2037 H 0.70284 0.66571 0.62729 0.0
H2038 H 0.70231 0.62933 0.59111 0.0
H2039 H 0.75384 0.65051 0.62464 0.0
H2040 H 0.73824 0.63829 0.63663 0.0
H2041 H 0.7413 0.65565 0.63093 0.0
C2042 C 0.70491 0.64066 0.65036 0.0
C2043 C 0.70226 0.65169 0.6469 0.0
C2044 C 0.71035 0.63559 0.6377 0.0
C2045 C 0.71334 0.64154 0.62143 0.0
C2046 C 0.7103 0.65222 0.61781 0.0
H2047 H 0.77116 0.64673 0.54459 0.0
H2048 H 0.75777 0.65032 0.56703 0.0
C2049 C 0.70482 0.65726 0.63041 0.0
C2050 C 0.72004 0.63703 0.60824 0.0
H2051 H 0.75067 0.63781 0.59864 0.0
C2052 C 0.71284 0.63108 0.59276 0.0
C2053 C 0.73385 0.63949 0.61041 0.0
C2054 C 0.74235 0.64645 0.62648 0.0
C2055 C 0.71917 0.62771 0.57929 0.0
C2056 C 0.73296 0.63015 0.58149 0.0
C2057 C 0.74006 0.63588 0.59705 0.0
C2058 C 0.74065 0.62775 0.56748 0.0
C2059 C 0.71128 0.62207 0.56262 0.0
C2060 C 0.73546 0.61384 0.5603 0.0
C2061 C 0.74304 0.61177 0.54728 0.0
C2062 C 0.75596 0.62357 0.5413 0.0
C2063 C 0.76111 0.63746 0.54863 0.0
C2064 C 0.75354 0.63951 0.56157 0.0
H2065 H 0.70224 0.6238 0.56184 0.0
H2066 H 0.71856 0.62746 0.55173 0.0
H2067 H 0.70693 0.61023 0.56133 0.0
H2068 H 0.72565 0.60458 0.56487 0.0
H2069 H 0.73875 0.60095 0.54186 0.0
H2070 H 0.36631 0.06041 0.63875 0.0
H2071 H 0.37358 0.0792 0.61747 0.0
H2072 H 0.33278 0.05329 0.59271 0.0
H2073 H 0.32542 0.03445 0.61376 0.0
H2074 H 0.37192 0.07542 0.57756 0.0
H2075 H 0.339 0.09475 0.60841 0.0
H2076 H 0.34524 0.08489 0.61977 0.0
H2077 H 0.3307 0.07544 0.60507 0.0
C2078 C 0.35893 0.05864 0.62868 0.0
C2079 C 0.34524 0.04597 0.62802 0.0
C2080 C 0.36312 0.06937 0.61654 0.0
C2081 C 0.35367 0.06761 0.60365 0.0
C2082 C 0.34019 0.05482 0.60264 0.0
H2083 H 0.34802 0.12103 0.52962 0.0
H2084 H 0.34443 0.10166 0.54818 0.0
C2085 C 0.33601 0.04408 0.61469 0.0
C2086 C 0.35749 0.07944 0.59175 0.0
H2087 H 0.34969 0.10497 0.58217 0.0
C2088 C 0.36716 0.08197 0.57856 0.0
C2089 C 0.35122 0.08789 0.59319 0.0
C2090 C 0.34102 0.08574 0.60742 0.0
C2091 C 0.37041 0.09254 0.56637 0.0
C2092 C 0.36402 0.10092 0.56771 0.0
C2093 C 0.35454 0.0985 0.58112 0.0
C2094 C 0.36665 0.11206 0.5552 0.0
C2095 C 0.38029 0.09433 0.5519 0.0
C2096 C 0.38038 0.12427 0.55282 0.0
C2097 C 0.38247 0.13535 0.54212 0.0
C2098 C 0.37082 0.13447 0.53387 0.0
C2099 C 0.35716 0.12207 0.53598 0.0
C2100 C 0.35511 0.11099 0.54653 0.0
H2101 H 0.38133 0.08471 0.55027 0.0
H2102 H 0.37647 0.09608 0.53975 0.0
H2103 H 0.39104 0.10395 0.55459 0.0
H2104 H 0.3894 0.12548 0.55966 0.0
H2105 H 0.39308 0.14486 0.54086 0.0
H2106 H 0.97176 0.30631 0.62427 0.0
H2107 H 0.95564 0.29932 0.59993 0.0
H2108 H 0.92014 0.27024 0.63153 0.0
H2109 H 0.93609 0.27719 0.65591 0.0
H2110 H 0.93824 0.27124 0.58576 0.0
H2111 H 0.90599 0.29386 0.60843 0.0
H2112 H 0.92305 0.29927 0.61759 0.0
H2113 H 0.90726 0.2826 0.62372 0.0
C2114 C 0.96051 0.29849 0.62607 0.0
C2115 C 0.95519 0.29232 0.64204 0.0
C2116 C 0.95133 0.29453 0.61215 0.0
C2117 C 0.93669 0.28446 0.61402 0.0
C2118 C 0.93137 0.27827 0.62992 0.0
H2119 H 0.86109 0.2307 0.55879 0.0
H2120 H 0.8802 0.24563 0.57904 0.0
C2121 C 0.94052 0.28218 0.64381 0.0
C2122 C 0.927 0.27975 0.5992 0.0
H2123 H 0.89597 0.276 0.58573 0.0
C2124 C 0.92913 0.27249 0.58556 0.0
C2125 C 0.91518 0.28148 0.599 0.0
C2126 C 0.91278 0.28986 0.61289 0.0
C2127 C 0.91926 0.26611 0.57218 0.0
C2128 C 0.90709 0.26728 0.57238 0.0
C2129 C 0.9053 0.27511 0.58564 0.0
C2130 C 0.89539 0.25919 0.55993 0.0
C2131 C 0.92151 0.25751 0.55845 0.0
C2132 C 0.89751 0.2621 0.54249 0.0
C2133 C 0.8866 0.2535 0.53083 0.0
C2134 C 0.87344 0.24187 0.53648 0.0
C2135 C 0.87121 0.23941 0.55403 0.0
C2136 C 0.88207 0.24799 0.56562 0.0
H2137 H 0.93013 0.25559 0.56176 0.0
H2138 H 0.91154 0.24684 0.55612 0.0
H2139 H 0.9245 0.26356 0.54643 0.0
H2140 H 0.90767 0.27085 0.53789 0.0
H2141 H 0.88862 0.25564 0.51739 0.0
H2142 H 0.34537 0.31464 0.62564 0.0
H2143 H 0.35453 0.30709 0.60163 0.0
H2144 H 0.3595 0.27875 0.6343 0.0
H2145 H 0.35058 0.28637 0.65841 0.0
H2146 H 0.38279 0.29487 0.61219 0.0
H2147 H 0.33089 0.26709 0.57783 0.0
H2148 H 0.3382 0.28592 0.58342 0.0
H2149 H 0.33251 0.27281 0.59988 0.0
C2150 C 0.34847 0.30685 0.62774 0.0
C2151 C 0.34712 0.301 0.64391 0.0
C2152 C 0.35365 0.30252 0.61399 0.0
C2153 C 0.35747 0.2922 0.61615 0.0
C2154 C 0.35656 0.28669 0.63237 0.0
H2155 H 0.37742 0.23634 0.56314 0.0
H2156 H 0.37493 0.25253 0.58309 0.0
C2157 C 0.35142 0.29104 0.64612 0.0
C2158 C 0.36199 0.2867 0.6015 0.0
H2159 H 0.34964 0.26599 0.56501 0.0
C2160 C 0.3756 0.28867 0.60178 0.0
C2161 C 0.3526 0.27868 0.5879 0.0
C2162 C 0.33769 0.27587 0.5872 0.0
C2163 C 0.37996 0.28252 0.58902 0.0
C2164 C 0.37036 0.27402 0.57582 0.0
C2165 C 0.35698 0.27256 0.57514 0.0
C2166 C 0.37334 0.26532 0.5636 0.0
C2167 C 0.39473 0.28502 0.5899 0.0
C2168 C 0.37317 0.26707 0.546 0.0
C2169 C 0.3745 0.25774 0.53453 0.0
C2170 C 0.37581 0.2464 0.54053 0.0
C2171 C 0.3763 0.24491 0.55816 0.0
C2172 C 0.37505 0.25425 0.56957 0.0
H2173 H 0.4021 0.29515 0.59722 0.0
H2174 H 0.39421 0.27582 0.59647 0.0
H2175 H 0.3992 0.28568 0.57698 0.0
H2176 H 0.37172 0.27547 0.54116 0.0
H2177 H 0.37398 0.25906 0.52101 0.0
H2178 H 0.69203 0.06099 0.63807 0.0
H2179 H 0.70133 0.07912 0.61579 0.0
H2180 H 0.71756 0.05566 0.58872 0.0
H2181 H 0.70807 0.03738 0.61065 0.0
H2182 H 0.72876 0.09671 0.60637 0.0
H2183 H 0.69765 0.06263 0.55096 0.0
H2184 H 0.6929 0.05662 0.57257 0.0
H2185 H 0.70649 0.0551 0.56156 0.0
C2186 C 0.69746 0.05962 0.62728 0.0
C2187 C 0.69928 0.04772 0.6261 0.0
C2188 C 0.70274 0.06998 0.61456 0.0
C2189 C 0.70988 0.06859 0.60043 0.0
C2190 C 0.71172 0.05674 0.59925 0.0
H2191 H 0.76888 0.1198 0.52503 0.0
H2192 H 0.75184 0.10121 0.54433 0.0
C2193 C 0.7064 0.04635 0.6119 0.0
C2194 C 0.71635 0.08004 0.58751 0.0
H2195 H 0.71934 0.08527 0.54465 0.0
C2196 C 0.72649 0.09428 0.5929 0.0
C2197 C 0.71333 0.07685 0.56994 0.0
C2198 C 0.70188 0.06199 0.56343 0.0
C2199 C 0.73428 0.10524 0.58113 0.0
C2200 C 0.73177 0.10185 0.56356 0.0
C2201 C 0.72124 0.08777 0.55816 0.0
C2202 C 0.74093 0.11244 0.55067 0.0
C2203 C 0.74564 0.1202 0.58746 0.0
C2204 C 0.74016 0.1247 0.5476 0.0
C2205 C 0.74987 0.13532 0.53654 0.0
C2206 C 0.76052 0.13385 0.52855 0.0
C2207 C 0.76088 0.12127 0.53119 0.0
C2208 C 0.75113 0.11064 0.54211 0.0
H2209 H 0.74723 0.12066 0.60144 0.0
H2210 H 0.75593 0.12367 0.58102 0.0
H2211 H 0.74256 0.12811 0.58435 0.0
H2212 H 0.73229 0.1262 0.55408 0.0
H2213 H 0.74941 0.14494 0.53477 0.0
H2214 H 0.95978 0.65178 0.60518 0.0
H2215 H 0.94035 0.64501 0.58519 0.0
H2216 H 0.91054 0.63136 0.62688 0.0
H2217 H 0.9299 0.63829 0.64699 0.0
H2218 H 0.91484 0.61834 0.57895 0.0
H2219 H 0.90443 0.66062 0.60276 0.0
H2220 H 0.92032 0.66077 0.60823 0.0
H2221 H 0.90378 0.64888 0.61889 0.0
C2222 C 0.94909 0.64731 0.61011 0.0
C2223 C 0.94641 0.64569 0.6277 0.0
C2224 C 0.938 0.64343 0.59866 0.0
C2225 C 0.92406 0.63792 0.60459 0.0
C2226 C 0.92128 0.63588 0.62208 0.0
H2227 H 0.84396 0.61342 0.55662 0.0
H2228 H 0.86254 0.61677 0.57618 0.0
C2229 C 0.93235 0.63978 0.63354 0.0
C2230 C 0.91246 0.63448 0.5925 0.0
H2231 H 0.88809 0.64342 0.58261 0.0
C2232 C 0.909 0.62384 0.5797 0.0
C2233 C 0.90491 0.64171 0.59351 0.0
C2234 C 0.9086 0.65373 0.60648 0.0
C2235 C 0.89799 0.62005 0.56803 0.0
C2236 C 0.89041 0.62724 0.5691 0.0
C2237 C 0.89388 0.63788 0.5819 0.0
C2238 C 0.87896 0.62412 0.55693 0.0
C2239 C 0.89439 0.60822 0.55485 0.0
C2240 C 0.88205 0.6271 0.53962 0.0
C2241 C 0.87145 0.62514 0.5284 0.0
C2242 C 0.85757 0.62022 0.5343 0.0
C2243 C 0.85448 0.61703 0.55162 0.0
C2244 C 0.86509 0.61902 0.56283 0.0
H2245 H 0.89866 0.60136 0.55836 0.0
H2246 H 0.88268 0.60114 0.55309 0.0
H2247 H 0.89917 0.61324 0.54249 0.0
H2248 H 0.89275 0.63127 0.53487 0.0
H2249 H 0.87414 0.6276 0.51511 0.0
H2250 H 0.96759 0.67702 0.72255 0.0
H2251 H 0.96034 0.68705 0.74599 0.0
H2252 H 0.93843 0.6983 0.7106 0.0
H2253 H 0.94571 0.68842 0.68703 0.0
H2254 H 0.95511 0.7204 0.73622 0.0
H2255 H 0.91863 0.66594 0.76327 0.0
H2256 H 0.9367 0.67066 0.75985 0.0
H2257 H 0.92567 0.66824 0.74195 0.0
C2258 C 0.9613 0.6817 0.71972 0.0
C2259 C 0.95711 0.6818 0.70293 0.0
C2260 C 0.95714 0.68739 0.73314 0.0
C2261 C 0.94869 0.69321 0.73002 0.0
C2262 C 0.94491 0.69379 0.71325 0.0
H2263 H 0.90328 0.72486 0.78757 0.0
H2264 H 0.91651 0.72009 0.76597 0.0
C2265 C 0.94905 0.6881 0.69981 0.0
C2266 C 0.94334 0.69822 0.74429 0.0
H2267 H 0.92095 0.6861 0.77847 0.0
C2268 C 0.94767 0.71294 0.74551 0.0
C2269 C 0.93366 0.68843 0.75636 0.0
C2270 C 0.92826 0.67241 0.7553 0.0
C2271 C 0.9426 0.71816 0.75857 0.0
C2272 C 0.93273 0.70831 0.77048 0.0
C2273 C 0.92856 0.69364 0.76936 0.0
C2274 C 0.92604 0.71276 0.78377 0.0
C2275 C 0.94794 0.73416 0.75959 0.0
C2276 C 0.92693 0.71015 0.80095 0.0
C2277 C 0.91931 0.7128 0.81332 0.0
C2278 C 0.91061 0.71805 0.80872 0.0
C2279 C 0.91007 0.72105 0.79156 0.0
C2280 C 0.91765 0.71835 0.77919 0.0
H2281 H 0.95838 0.74071 0.75306 0.0
H2282 H 0.94019 0.73606 0.75321 0.0
H2283 H 0.9491 0.73809 0.77301 0.0
H2284 H 0.9333 0.70578 0.80474 0.0
H2285 H 0.92004 0.7105 0.82646 0.0
H2286 H 0.30491 0.27378 0.69787 0.0
H2287 H 0.29774 0.25395 0.71747 0.0
H2288 H 0.30365 0.28269 0.75992 0.0
H2289 H 0.31053 0.30249 0.74041 0.0
H2290 H 0.31439 0.25348 0.74208 0.0
H2291 H 0.26545 0.24707 0.77123 0.0
H2292 H 0.27324 0.25715 0.7521 0.0
H2293 H 0.28047 0.26538 0.7726 0.0
C2294 C 0.30447 0.27583 0.71136 0.0
C2295 C 0.30829 0.28972 0.71758 0.0
C2296 C 0.30038 0.26448 0.72254 0.0
C2297 C 0.29998 0.26678 0.74014 0.0
C2298 C 0.30354 0.28056 0.74637 0.0
H2299 H 0.2955 0.22015 0.82964 0.0
H2300 H 0.29728 0.23769 0.80918 0.0
C2301 C 0.30757 0.29191 0.73519 0.0
C2302 C 0.297 0.25511 0.75203 0.0
H2303 H 0.27578 0.23541 0.78513 0.0
C2304 C 0.30585 0.24942 0.75136 0.0
C2305 C 0.28589 0.24988 0.76419 0.0
C2306 C 0.27563 0.25508 0.765 0.0
C2307 C 0.3041 0.23888 0.76276 0.0
C2308 C 0.29312 0.23379 0.77504 0.0
C2309 C 0.28419 0.23938 0.77568 0.0
C2310 C 0.29098 0.22284 0.78751 0.0
C2311 C 0.31424 0.23353 0.7619 0.0
C2312 C 0.28656 0.20864 0.78209 0.0
C2313 C 0.28557 0.19862 0.79371 0.0
C2314 C 0.28899 0.20265 0.81095 0.0
C2315 C 0.29298 0.21678 0.8164 0.0
C2316 C 0.29391 0.22678 0.80478 0.0
H2317 H 0.32378 0.24058 0.75402 0.0
H2318 H 0.31782 0.23302 0.77484 0.0
H2319 H 0.30869 0.2224 0.75617 0.0
H2320 H 0.28413 0.20539 0.76882 0.0
H2321 H 0.28257 0.18787 0.78908 0.0
H2322 H 0.70538 0.03534 0.72 0.0
H2323 H 0.72357 0.04575 0.74227 0.0
H2324 H 0.75582 0.05362 0.7051 0.0
H2325 H 0.7377 0.0433 0.68265 0.0
H2326 H 0.74379 0.03795 0.75238 0.0
H2327 H 0.76963 0.09402 0.72784 0.0
H2328 H 0.752 0.07968 0.72132 0.0
H2329 H 0.76741 0.08019 0.71277 0.0
C2330 C 0.71633 0.03922 0.71654 0.0
C2331 C 0.72011 0.03862 0.69952 0.0
C2332 C 0.72669 0.04513 0.7293 0.0
C2333 C 0.74103 0.0506 0.72527 0.0
C2334 C 0.74481 0.04962 0.7084 0.0
H2335 H 0.81726 0.10195 0.78716 0.0
H2336 H 0.80076 0.0872 0.7643 0.0
C2337 C 0.73444 0.04368 0.69562 0.0
C2338 C 0.75204 0.05776 0.73869 0.0
H2339 H 0.78001 0.09078 0.75187 0.0
C2340 C 0.75176 0.04949 0.75227 0.0
C2341 C 0.76241 0.0728 0.73845 0.0
C2342 C 0.76289 0.08227 0.72441 0.0
C2343 C 0.76162 0.05588 0.76567 0.0
C2344 C 0.77181 0.07099 0.76561 0.0
C2345 C 0.77221 0.07919 0.75187 0.0
C2346 C 0.78184 0.07869 0.77992 0.0
C2347 C 0.76112 0.04638 0.77966 0.0
C2348 C 0.77669 0.07873 0.79633 0.0
C2349 C 0.78611 0.08704 0.80948 0.0
C2350 C 0.80086 0.09559 0.80644 0.0
C2351 C 0.80599 0.09532 0.79003 0.0
C2352 C 0.79657 0.08698 0.77691 0.0
H2353 H 0.75588 0.03483 0.77533 0.0
H2354 H 0.77199 0.05006 0.78431 0.0
H2355 H 0.75486 0.04694 0.79049 0.0
H2356 H 0.76534 0.07266 0.79887 0.0
H2357 H 0.78181 0.0869 0.82199 0.0
H2358 H 0.03864 0.32023 0.0007 0.0
H2359 H 0.052 0.3126 0.01745 0.0
H2360 H 0.05952 0.3448 0.05623 0.0
H2361 H 0.04619 0.35249 0.03968 0.0
H2362 H 0.08094 0.3294 0.03112 0.0
H2363 H 0.03908 0.30513 0.08096 0.0
H2364 H 0.03581 0.30943 0.06015 0.0
H2365 H 0.04503 0.32358 0.07601 0.0
C2366 C 0.04324 0.32578 0.01272 0.0
C2367 C 0.04124 0.33689 0.01892 0.0
C2368 C 0.05086 0.3214 0.02226 0.0
C2369 C 0.05651 0.32799 0.03817 0.0
C2370 C 0.05502 0.33944 0.04409 0.0
H2371 H 0.11684 0.32591 0.10416 0.0
H2372 H 0.10416 0.33216 0.08432 0.0
C2373 C 0.04746 0.34385 0.03456 0.0
C2374 C 0.06365 0.32267 0.04885 0.0
H2375 H 0.06103 0.30704 0.0869 0.0
C2376 C 0.07658 0.32444 0.04327 0.0
C2377 C 0.05779 0.31602 0.06456 0.0
C2378 C 0.0436 0.31328 0.07077 0.0
C2379 C 0.08406 0.32011 0.05331 0.0
C2380 C 0.07847 0.314 0.06934 0.0
C2381 C 0.06532 0.31183 0.07465 0.0
C2382 C 0.08626 0.3101 0.08101 0.0
C2383 C 0.09783 0.32206 0.04666 0.0
C2384 C 0.08023 0.29568 0.08599 0.0
C2385 C 0.0874 0.29209 0.09745 0.0
C2386 C 0.10064 0.30291 0.10426 0.0
C2387 C 0.10659 0.31736 0.09928 0.0
C2388 C 0.09945 0.32092 0.08779 0.0
H2389 H 0.09872 0.32329 0.03264 0.0
H2390 H 0.10692 0.33203 0.05258 0.0
H2391 H 0.09877 0.3127 0.04995 0.0
H2392 H 0.06999 0.28721 0.081 0.0
H2393 H 0.08249 0.28089 0.10118 0.0
H2394 H 0.66958 0.68649 0.05158 0.0
H2395 H 0.67558 0.70839 0.0681 0.0
H2396 H 0.65374 0.71875 0.0315 0.0
H2397 H 0.64786 0.69692 0.01467 0.0
H2398 H 0.68048 0.74216 0.04006 0.0
H2399 H 0.64926 0.71551 0.09796 0.0
H2400 H 0.66115 0.70961 0.09171 0.0
H2401 H 0.6466 0.70576 0.07799 0.0
C2402 C 0.66595 0.69336 0.04707 0.0
C2403 C 0.6582 0.68994 0.03183 0.0
C2404 C 0.66933 0.70583 0.05659 0.0
C2405 C 0.66491 0.71506 0.05115 0.0
C2406 C 0.65718 0.71171 0.03595 0.0
H2407 H 0.66991 0.78501 0.11374 0.0
H2408 H 0.66187 0.76317 0.09595 0.0
C2409 C 0.65381 0.69923 0.02637 0.0
C2410 C 0.66884 0.72848 0.06105 0.0
H2411 H 0.66634 0.74095 0.10045 0.0
C2412 C 0.67731 0.74191 0.05323 0.0
C2413 C 0.66453 0.7281 0.07814 0.0
C2414 C 0.65477 0.71397 0.08691 0.0
C2415 C 0.68192 0.75503 0.06221 0.0
C2416 C 0.67814 0.75465 0.07953 0.0
C2417 C 0.66936 0.74121 0.08721 0.0
C2418 C 0.68313 0.76807 0.08995 0.0
C2419 C 0.69065 0.76914 0.05301 0.0
C2420 C 0.69775 0.77799 0.09259 0.0
C2421 C 0.70237 0.79048 0.10276 0.0
C2422 C 0.69244 0.79316 0.11062 0.0
C2423 C 0.67781 0.78315 0.10802 0.0
C2424 C 0.6732 0.77072 0.0978 0.0
H2425 H 0.68922 0.76748 0.039 0.0
H2426 H 0.68774 0.77712 0.05722 0.0
H2427 H 0.7021 0.77386 0.05585 0.0
H2428 H 0.70557 0.77598 0.08698 0.0
H2429 H 0.7137 0.7979 0.10473 0.0
H2430 H 0.29267 0.96498 0.00386 0.0
H2431 H 0.27 0.95032 0.0189 0.0
H2432 H 0.29034 0.97215 0.06616 0.0
H2433 H 0.31289 0.98692 0.05132 0.0
H2434 H 0.26314 0.93152 0.04597 0.0
H2435 H 0.25626 0.97717 0.06436 0.0
H2436 H 0.26887 0.97876 0.04836 0.0
H2437 H 0.27324 0.98028 0.07058 0.0
C2438 C 0.29231 0.96665 0.01745 0.0
C2439 C 0.30455 0.9772 0.02637 0.0
C2440 C 0.27935 0.95828 0.02601 0.0
C2441 C 0.27845 0.96039 0.04356 0.0
C2442 C 0.29073 0.97062 0.05253 0.0
H2443 H 0.22017 0.92241 0.12616 0.0
H2444 H 0.24021 0.93645 0.10684 0.0
C2445 C 0.30364 0.97899 0.04403 0.0
C2446 C 0.26477 0.95173 0.0527 0.0
H2447 H 0.2417 0.95496 0.07906 0.0
C2448 C 0.25832 0.93659 0.05302 0.0
C2449 C 0.2585 0.95842 0.06181 0.0
C2450 C 0.26449 0.97454 0.06115 0.0
C2451 C 0.2461 0.92801 0.06286 0.0
C2452 C 0.24017 0.93478 0.07245 0.0
C2453 C 0.24637 0.94985 0.07174 0.0
C2454 C 0.2279 0.92647 0.08391 0.0
C2455 C 0.23991 0.91185 0.06346 0.0
C2456 C 0.21435 0.91641 0.07733 0.0
C2457 C 0.20289 0.90839 0.08832 0.0
C2458 C 0.20483 0.91031 0.10606 0.0
C2459 C 0.2184 0.92059 0.11256 0.0
C2460 C 0.22982 0.92865 0.10157 0.0
H2461 H 0.24708 0.90867 0.05751 0.0
H2462 H 0.2378 0.9082 0.07682 0.0
H2463 H 0.22961 0.90605 0.05653 0.0
H2464 H 0.21266 0.91471 0.06372 0.0
H2465 H 0.19258 0.90046 0.08296 0.0
H2466 H 0.34429 0.05082 0.00341 0.0
H2467 H 0.3381 0.06688 0.9898 0.0
H2468 H 0.32234 0.03788 0.94594 0.0
H2469 H 0.32829 0.02177 0.9594 0.0
H2470 H 0.34726 0.08092 0.95825 0.0
H2471 H 0.28875 0.0423 0.95918 0.0
H2472 H 0.30085 0.03997 0.97189 0.0
H2473 H 0.29839 0.03474 0.9497 0.0
C2474 C 0.33951 0.04788 0.99087 0.0
C2475 C 0.33668 0.03496 0.98254 0.0
C2476 C 0.33598 0.05705 0.98313 0.0
C2477 C 0.32951 0.0534 0.96702 0.0
C2478 C 0.32701 0.04071 0.95855 0.0
H2479 H 0.3023 0.08993 0.89204 0.0
H2480 H 0.30827 0.0752 0.90888 0.0
C2481 C 0.33051 0.03156 0.96624 0.0
C2482 C 0.32553 0.06289 0.95883 0.0
H2483 H 0.29734 0.06289 0.94158 0.0
C2484 C 0.33634 0.07706 0.95476 0.0
C2485 C 0.31126 0.05779 0.95433 0.0
C2486 C 0.29912 0.04292 0.95913 0.0
C2487 C 0.33332 0.08611 0.94572 0.0
C2488 C 0.31909 0.08088 0.94087 0.0
C2489 C 0.30825 0.06682 0.94524 0.0
C2490 C 0.31527 0.08972 0.93092 0.0
C2491 C 0.34541 0.10102 0.94093 0.0
C2492 C 0.317 0.1026 0.93789 0.0
C2493 C 0.31352 0.11099 0.92836 0.0
C2494 C 0.3082 0.10661 0.91169 0.0
C2495 C 0.30624 0.09354 0.90488 0.0
C2496 C 0.30971 0.08516 0.91444 0.0
H2497 H 0.35596 0.1022 0.94243 0.0
H2498 H 0.34428 0.10332 0.92757 0.0
H2499 H 0.34518 0.10931 0.94929 0.0
H2500 H 0.32099 0.10614 0.95073 0.0
H2501 H 0.31489 0.12085 0.9341 0.0
H2502 H 0.96458 0.30042 0.01873 0.0
H2503 H 0.94754 0.27749 0.004 0.0
H2504 H 0.97198 0.29301 0.95778 0.0
H2505 H 0.98899 0.31586 0.97227 0.0
H2506 H 0.93158 0.27418 0.97289 0.0
H2507 H 0.96731 0.25274 0.96563 0.0
H2508 H 0.97052 0.26684 0.98104 0.0
H2509 H 0.97486 0.27114 0.95904 0.0
C2510 C 0.96633 0.29893 0.00544 0.0
C2511 C 0.97816 0.30994 0.99668 0.0
C2512 C 0.9566 0.28585 0.99707 0.0
C2513 C 0.95865 0.28353 0.97991 0.0
C2514 C 0.97036 0.29453 0.97112 0.0
H2515 H 0.91741 0.21893 0.90027 0.0
H2516 H 0.93348 0.23964 0.91877 0.0
C2517 C 0.98002 0.30761 0.97941 0.0
C2518 C 0.94841 0.26979 0.97091 0.0
H2519 H 0.94581 0.24063 0.9496 0.0
C2520 C 0.93459 0.26673 0.96795 0.0
C2521 C 0.95246 0.26019 0.96446 0.0
C2522 C 0.96706 0.26278 0.96779 0.0
C2523 C 0.92483 0.25453 0.95811 0.0
C2524 C 0.92896 0.24502 0.95142 0.0
C2525 C 0.9427 0.24795 0.95471 0.0
C2526 C 0.91933 0.23223 0.94051 0.0
C2527 C 0.91041 0.25226 0.95442 0.0
C2528 C 0.90619 0.22107 0.94672 0.0
C2529 C 0.89699 0.20925 0.93618 0.0
C2530 C 0.90085 0.20831 0.91929 0.0
C2531 C 0.91419 0.21931 0.91325 0.0
C2532 C 0.92335 0.23116 0.92378 0.0
H2533 H 0.91025 0.26232 0.95684 0.0
H2534 H 0.90723 0.24861 0.941 0.0
H2535 H 0.90233 0.24374 0.9628 0.0
H2536 H 0.90304 0.2215 0.95973 0.0
H2537 H 0.88688 0.20081 0.94127 0.0
H2538 H 0.70449 0.69618 0.98733 0.0
H2539 H 0.72628 0.70279 0.97158 0.0
H2540 H 0.71518 0.65822 0.9717 0.0
H2541 H 0.69333 0.65146 0.98755 0.0
H2542 H 0.74906 0.69653 0.98138 0.0
H2543 H 0.72118 0.67149 0.92 0.0
H2544 H 0.71331 0.67668 0.93683 0.0
H2545 H 0.71414 0.6607 0.93872 0.0
C2546 C 0.70669 0.68777 0.98408 0.0
C2547 C 0.69715 0.67328 0.98861 0.0
C2548 C 0.71915 0.69159 0.97511 0.0
C2549 C 0.7222 0.68096 0.9704 0.0
C2550 C 0.71288 0.66653 0.97515 0.0
H2551 H 0.78689 0.68089 0.90754 0.0
H2552 H 0.76598 0.67477 0.92476 0.0
C2553 C 0.70045 0.66271 0.98423 0.0
C2554 C 0.73507 0.68496 0.96027 0.0
H2555 H 0.74601 0.68163 0.92057 0.0
C2556 C 0.74846 0.69331 0.96807 0.0
C2557 C 0.73413 0.68069 0.94297 0.0
C2558 C 0.71995 0.67197 0.93401 0.0
C2559 C 0.76102 0.69732 0.95905 0.0
C2560 C 0.76011 0.69317 0.94165 0.0
C2561 C 0.74668 0.68483 0.93388 0.0
C2562 C 0.77293 0.69708 0.93134 0.0
C2563 C 0.77508 0.70562 0.96834 0.0
C2564 C 0.7837 0.71167 0.92912 0.0
C2565 C 0.7958 0.71521 0.91947 0.0
C2566 C 0.79727 0.70422 0.91171 0.0
C2567 C 0.78626 0.68962 0.91363 0.0
C2568 C 0.77424 0.6861 0.92336 0.0
H2569 H 0.77364 0.7044 0.98234 0.0
H2570 H 0.78231 0.70191 0.96411 0.0
H2571 H 0.78033 0.71735 0.96564 0.0
H2572 H 0.78275 0.72033 0.93483 0.0
H2573 H 0.8041 0.72655 0.91832 0.0
H2574 H 0.98796 0.68042 0.95422 0.0
H2575 H 0.97231 0.6869 0.94086 0.0
H2576 H 0.94241 0.6679 0.98218 0.0
H2577 H 0.95806 0.66137 0.99576 0.0
H2578 H 0.94264 0.6678 0.93116 0.0
H2579 H 0.95139 0.71042 0.97925 0.0
H2580 H 0.96322 0.70368 0.9771 0.0
H2581 H 0.94623 0.69292 0.98728 0.0
C2582 C 0.97805 0.67758 0.96049 0.0
C2583 C 0.97428 0.67044 0.97611 0.0
C2584 C 0.96912 0.68128 0.95281 0.0
C2585 C 0.95633 0.67803 0.96066 0.0
C2586 C 0.95237 0.67067 0.97608 0.0
H2587 H 0.89261 0.69768 0.93285 0.0
H2588 H 0.90691 0.69 0.94731 0.0
C2589 C 0.96127 0.66689 0.98376 0.0
C2590 C 0.94721 0.6824 0.95259 0.0
H2591 H 0.9352 0.70557 0.95707 0.0
C2592 C 0.94098 0.67604 0.9368 0.0
C2593 C 0.94509 0.69313 0.96005 0.0
C2594 C 0.95189 0.70056 0.9768 0.0
C2595 C 0.93256 0.68007 0.92828 0.0
C2596 C 0.93065 0.691 0.93559 0.0
C2597 C 0.93675 0.69724 0.95148 0.0
C2598 C 0.92229 0.69607 0.92695 0.0
C2599 C 0.92562 0.67242 0.91167 0.0
C2600 C 0.92639 0.70234 0.91088 0.0
C2601 C 0.91817 0.70662 0.90251 0.0
C2602 C 0.90575 0.70481 0.91014 0.0
C2603 C 0.90196 0.69897 0.9265 0.0
C2604 C 0.91016 0.69466 0.93482 0.0
H2605 H 0.9249 0.66182 0.91023 0.0
H2606 H 0.91473 0.67049 0.91065 0.0
H2607 H 0.93209 0.6793 0.90097 0.0
H2608 H 0.93589 0.70381 0.90475 0.0
H2609 H 0.92134 0.711 0.88989 0.0
H2610 H 0.3262 0.30189 0.0131 0.0
H2611 H 0.32039 0.27985 0.99683 0.0
H2612 H 0.32827 0.30277 0.95003 0.0
H2613 H 0.33442 0.3249 0.96615 0.0
H2614 H 0.29934 0.26438 0.97348 0.0
H2615 H 0.35214 0.28483 0.94349 0.0
H2616 H 0.34953 0.29433 0.96097 0.0
H2617 H 0.34507 0.29606 0.93961 0.0
C2618 C 0.3268 0.30227 0.99935 0.0
C2619 C 0.33087 0.31517 0.99092 0.0
C2620 C 0.32346 0.28966 0.99008 0.0
C2621 C 0.32413 0.28974 0.97224 0.0
C2622 C 0.32803 0.30256 0.9638 0.0
H2623 H 0.29839 0.22312 0.89332 0.0
H2624 H 0.30349 0.24462 0.91048 0.0
C2625 C 0.33148 0.31519 0.97304 0.0
C2626 C 0.32033 0.27631 0.96242 0.0
H2627 H 0.33283 0.26236 0.93241 0.0
C2628 C 0.30669 0.26391 0.96459 0.0
C2629 C 0.32997 0.27572 0.95087 0.0
C2630 C 0.34504 0.2884 0.9487 0.0
C2631 C 0.30235 0.25101 0.95525 0.0
C2632 C 0.31189 0.25057 0.94349 0.0
C2633 C 0.32553 0.26288 0.94138 0.0
C2634 C 0.30799 0.23728 0.93348 0.0
C2635 C 0.28759 0.23794 0.95781 0.0
C2636 C 0.30879 0.22612 0.94087 0.0
C2637 C 0.30595 0.21391 0.93113 0.0
C2638 C 0.30221 0.21266 0.91387 0.0
C2639 C 0.30112 0.22375 0.90662 0.0
C2640 C 0.30408 0.23603 0.91635 0.0
H2641 H 0.28103 0.24041 0.96641 0.0
H2642 H 0.28207 0.23387 0.94537 0.0
H2643 H 0.28839 0.22909 0.96335 0.0
H2644 H 0.31184 0.22699 0.95409 0.0
H2645 H 0.30674 0.20546 0.93707 0.0
H2646 H 0.69798 0.04375 0.00885 0.0
H2647 H 0.71913 0.06002 0.99204 0.0
H2648 H 0.70289 0.02903 0.95006 0.0
H2649 H 0.68172 0.01278 0.96661 0.0
H2650 H 0.73904 0.05372 0.9776 0.0
H2651 H 0.71278 0.0673 0.92817 0.0
H2652 H 0.7043 0.05939 0.94814 0.0
H2653 H 0.70483 0.04817 0.93123 0.0
C2654 C 0.69886 0.04044 0.996 0.0
C2655 C 0.68815 0.02698 0.98906 0.0
C2656 C 0.71095 0.04974 0.98644 0.0
C2657 C 0.71246 0.0458 0.96975 0.0
C2658 C 0.7018 0.03239 0.9628 0.0
H2659 H 0.77732 0.0837 0.89143 0.0
H2660 H 0.75623 0.06789 0.90857 0.0
C2661 C 0.68974 0.02308 0.97233 0.0
C2662 C 0.72541 0.05544 0.95978 0.0
H2663 H 0.73689 0.07455 0.92314 0.0
C2664 C 0.73861 0.05837 0.96575 0.0
C2665 C 0.72476 0.0614 0.9443 0.0
C2666 C 0.71094 0.05903 0.93761 0.0
C2667 C 0.75118 0.06689 0.95646 0.0
C2668 C 0.75053 0.07283 0.94095 0.0
C2669 C 0.73733 0.06993 0.93501 0.0
C2670 C 0.76344 0.08223 0.93078 0.0
C2671 C 0.76498 0.06919 0.96311 0.0
C2672 C 0.77441 0.09555 0.93757 0.0
C2673 C 0.78648 0.10454 0.92788 0.0
C2674 C 0.78777 0.10043 0.91113 0.0
C2675 C 0.77673 0.08708 0.90435 0.0
C2676 C 0.76465 0.07809 0.91407 0.0
H2677 H 0.76311 0.06092 0.97256 0.0
H2678 H 0.77158 0.06877 0.95258 0.0
H2679 H 0.77114 0.08005 0.96948 0.0
H2680 H 0.77358 0.09905 0.95034 0.0
H2681 H 0.79485 0.11468 0.93354 0.0
H2682 H 0.68586 0.98659 0.045 0.0
H2683 H 0.69179 0.97059 0.05885 0.0
H2684 H 0.65572 0.93329 0.03474 0.0
H2685 H 0.64959 0.94927 0.02086 0.0
H2686 H 0.65759 0.9306 0.06982 0.0
H2687 H 0.70913 0.94824 0.03795 0.0
H2688 H 0.70808 0.96306 0.04695 0.0
H2689 H 0.69637 0.9522 0.02978 0.0
C2690 C 0.67922 0.975 0.04251 0.0
C2691 C 0.66726 0.9692 0.0318 0.0
C2692 C 0.68269 0.96587 0.05036 0.0
C2693 C 0.67433 0.95079 0.0476 0.0
C2694 C 0.66237 0.94493 0.03691 0.0
H2695 H 0.69826 0.89147 0.08562 0.0
H2696 H 0.69139 0.90463 0.06723 0.0
C2697 C 0.6589 0.95407 0.029 0.0
C2698 C 0.67771 0.94117 0.05665 0.0
H2699 H 0.70433 0.93471 0.06335 0.0
C2700 C 0.66774 0.93137 0.06829 0.0
C2701 C 0.69089 0.94209 0.05446 0.0
C2702 C 0.70168 0.95186 0.04149 0.0
C2703 C 0.67083 0.92286 0.0783 0.0
C2704 C 0.68432 0.92437 0.07677 0.0
C2705 C 0.69407 0.93373 0.06465 0.0
C2706 C 0.68863 0.91653 0.08789 0.0
C2707 C 0.65965 0.91235 0.09044 0.0
C2708 C 0.68962 0.91909 0.10555 0.0
C2709 C 0.69363 0.91167 0.11608 0.0
C2710 C 0.6968 0.9016 0.10912 0.0
C2711 C 0.69604 0.89926 0.09137 0.0
C2712 C 0.69203 0.9067 0.08085 0.0
H2713 H 0.64881 0.90962 0.08681 0.0
H2714 H 0.65969 0.90214 0.09092 0.0
H2715 H 0.66196 0.91738 0.10341 0.0
H2716 H 0.68736 0.92689 0.11119 0.0
H2717 H 0.69435 0.91391 0.12966 0.0
H2718 H 0.01702 0.70387 0.02531 0.0
H2719 H 0.03179 0.72729 0.03996 0.0
H2720 H 0.06804 0.72239 0.0361 0.0
H2721 H 0.05339 0.69904 0.02103 0.0
H2722 H 0.04463 0.73129 0.07026 0.0
H2723 H 0.08519 0.76397 0.02162 0.0
H2724 H 0.06894 0.74703 0.01646 0.0
H2725 H 0.08379 0.74704 0.02557 0.0
C2726 C 0.02819 0.70785 0.02737 0.0
C2727 C 0.03404 0.69959 0.02206 0.0
C2728 C 0.03661 0.72125 0.03573 0.0
C2729 C 0.05104 0.72666 0.03897 0.0
C2730 C 0.057 0.71858 0.03339 0.0
H2731 H 0.11462 0.79473 0.10399 0.0
H2732 H 0.10066 0.77394 0.08458 0.0
C2733 C 0.0486 0.70519 0.02488 0.0
C2734 C 0.05945 0.74014 0.0494 0.0
H2735 H 0.08986 0.77383 0.05001 0.0
C2736 C 0.05444 0.74065 0.06576 0.0
C2737 C 0.07226 0.75231 0.04351 0.0
C2738 C 0.07781 0.75266 0.02577 0.0
C2739 C 0.06205 0.75288 0.07654 0.0
C2740 C 0.07494 0.76494 0.07073 0.0
C2741 C 0.07994 0.76452 0.05436 0.0
C2742 C 0.08356 0.77791 0.08177 0.0
C2743 C 0.05646 0.7527 0.09422 0.0
C2744 C 0.07859 0.78707 0.08639 0.0
C2745 C 0.08652 0.79893 0.09751 0.0
C2746 C 0.0995 0.80174 0.1042 0.0
C2747 C 0.10455 0.79268 0.09925 0.0
C2748 C 0.09666 0.78089 0.08808 0.0
H2749 H 0.04772 0.74164 0.09776 0.0
H2750 H 0.06516 0.75673 0.10374 0.0
H2751 H 0.05228 0.76002 0.09485 0.0
H2752 H 0.06853 0.78495 0.08152 0.0
H2753 H 0.08237 0.80571 0.10113 0.0
H2754 H 0.28447 0.32578 0.99883 0.0
H2755 H 0.26263 0.31683 0.01556 0.0
H2756 H 0.28726 0.34505 0.0576 0.0
H2757 H 0.30911 0.35397 0.04111 0.0
H2758 H 0.2681 0.31558 0.06613 0.0
H2759 H 0.24184 0.3382 0.02928 0.0
H2760 H 0.24771 0.32796 0.01721 0.0
H2761 H 0.26062 0.34486 0.02738 0.0
C2762 C 0.28522 0.3302 0.01157 0.0
C2763 C 0.29853 0.34059 0.01864 0.0
C2764 C 0.27273 0.3251 0.02108 0.0
C2765 C 0.27336 0.33037 0.03775 0.0
C2766 C 0.28658 0.34088 0.04473 0.0
H2767 H 0.21032 0.32511 0.10683 0.0
H2768 H 0.23003 0.33191 0.08707 0.0
C2769 C 0.29905 0.34598 0.03527 0.0
C2770 C 0.26035 0.32454 0.04827 0.0
H2771 H 0.22887 0.32318 0.05222 0.0
C2772 C 0.25948 0.31717 0.06307 0.0
C2773 C 0.2492 0.32672 0.04423 0.0
C2774 C 0.24985 0.33496 0.02874 0.0
C2775 C 0.24778 0.31204 0.07409 0.0
C2776 C 0.23661 0.3142 0.07005 0.0
C2777 C 0.23742 0.32146 0.05517 0.0
C2778 C 0.22444 0.30983 0.08168 0.0
C2779 C 0.24765 0.30476 0.09023 0.0
C2780 C 0.21472 0.29514 0.08506 0.0
C2781 C 0.20348 0.29121 0.09645 0.0
C2782 C 0.20182 0.30193 0.10464 0.0
C2783 C 0.21148 0.31661 0.10099 0.0
C2784 C 0.22266 0.32052 0.08959 0.0
H2785 H 0.25827 0.30647 0.09306 0.0
H2786 H 0.24429 0.30892 0.10123 0.0
H2787 H 0.23989 0.29289 0.08888 0.0
H2788 H 0.21584 0.28673 0.0789 0.0
H2789 H 0.19623 0.27982 0.09903 0.0
H2790 H 0.67515 0.66077 0.39747 0.0
H2791 H 0.68962 0.65268 0.4106 0.0
H2792 H 0.71958 0.67022 0.36911 0.0
H2793 H 0.70534 0.67866 0.35606 0.0
H2794 H 0.69682 0.63358 0.39813 0.0
H2795 H 0.74548 0.68778 0.41024 0.0
H2796 H 0.72865 0.68553 0.40453 0.0
H2797 H 0.73981 0.68445 0.38843 0.0
C2798 C 0.68487 0.663 0.39118 0.0
C2799 C 0.68914 0.67043 0.37576 0.0
C2800 C 0.69311 0.65834 0.39869 0.0
C2801 C 0.70578 0.66103 0.39096 0.0
C2802 C 0.71001 0.66833 0.37549 0.0
H2803 H 0.76792 0.63846 0.41522 0.0
H2804 H 0.75301 0.64562 0.40122 0.0
C2805 C 0.70182 0.67308 0.36801 0.0
C2806 C 0.71434 0.65586 0.39892 0.0
H2807 H 0.74733 0.66727 0.4148 0.0
C2808 C 0.70785 0.64095 0.40184 0.0
C2809 C 0.72871 0.66551 0.40377 0.0
C2810 C 0.73605 0.68172 0.40174 0.0
C2811 C 0.71542 0.63539 0.40928 0.0
C2812 C 0.72979 0.64503 0.41401 0.0
C2813 C 0.7363 0.65992 0.41107 0.0
C2814 C 0.73828 0.63993 0.42222 0.0
C2815 C 0.70809 0.61924 0.41179 0.0
C2816 C 0.73489 0.63434 0.43865 0.0
C2817 C 0.74346 0.63037 0.44677 0.0
C2818 C 0.7556 0.63194 0.43859 0.0
C2819 C 0.75878 0.6373 0.42198 0.0
C2820 C 0.75024 0.64133 0.41392 0.0
H2821 H 0.6981 0.61303 0.40425 0.0
H2822 H 0.71525 0.6153 0.40816 0.0
H2823 H 0.70533 0.61692 0.42544 0.0
H2824 H 0.72581 0.63341 0.44536 0.0
H2825 H 0.74083 0.62649 0.45965 0.0
H2826 H 0.33434 0.02265 0.38558 0.0
H2827 H 0.34324 0.04655 0.39886 0.0
H2828 H 0.35216 0.06571 0.3494 0.0
H2829 H 0.34315 0.04176 0.3359 0.0
H2830 H 0.37095 0.0722 0.39526 0.0
H2831 H 0.32742 0.07944 0.3733 0.0
H2832 H 0.32578 0.06196 0.3729 0.0
H2833 H 0.33638 0.07508 0.35718 0.0
C2834 C 0.33815 0.03192 0.37748 0.0
C2835 C 0.33798 0.03029 0.35966 0.0
C2836 C 0.34326 0.04557 0.38511 0.0
C2837 C 0.34822 0.05784 0.3751 0.0
C2838 C 0.34818 0.05632 0.35732 0.0
H2839 H 0.37481 0.14598 0.41053 0.0
H2840 H 0.37073 0.12542 0.39228 0.0
C2841 C 0.34308 0.04264 0.34965 0.0
C2842 C 0.35348 0.07218 0.38344 0.0
H2843 H 0.34546 0.09832 0.39018 0.0
C2844 C 0.36545 0.07798 0.39408 0.0
C2845 C 0.34631 0.07969 0.38175 0.0
C2846 C 0.3332 0.07374 0.37077 0.0
C2847 C 0.37031 0.09101 0.40334 0.0
C2848 C 0.36283 0.09825 0.40214 0.0
C2849 C 0.35115 0.09271 0.39106 0.0
C2850 C 0.36632 0.11101 0.41313 0.0
C2851 C 0.38338 0.09687 0.41437 0.0
C2852 C 0.36516 0.10968 0.43086 0.0
C2853 C 0.36754 0.12138 0.44129 0.0
C2854 C 0.37101 0.13462 0.43417 0.0
C2855 C 0.37233 0.13598 0.4164 0.0
C2856 C 0.36992 0.12424 0.40596 0.0
H2857 H 0.39023 0.09274 0.40997 0.0
H2858 H 0.3898 0.10894 0.41449 0.0
H2859 H 0.38002 0.09329 0.42761 0.0
H2860 H 0.36212 0.09948 0.43664 0.0
H2861 H 0.36656 0.12004 0.45494 0.0
H2862 H 0.98004 0.32646 0.36809 0.0
H2863 H 0.95716 0.3109 0.38218 0.0
H2864 H 0.96062 0.27359 0.37197 0.0
H2865 H 0.98354 0.28904 0.35785 0.0
H2866 H 0.93157 0.28465 0.36829 0.0
H2867 H 0.95484 0.27473 0.42472 0.0
H2868 H 0.96533 0.28963 0.41065 0.0
H2869 H 0.96031 0.2715 0.40428 0.0
C2870 C 0.97594 0.31494 0.36881 0.0
C2871 C 0.98365 0.30899 0.36194 0.0
C2872 C 0.96286 0.30608 0.37683 0.0
C2873 C 0.95733 0.29117 0.37824 0.0
C2874 C 0.96484 0.28513 0.37116 0.0
H2875 H 0.88436 0.22164 0.42972 0.0
H2876 H 0.90596 0.23657 0.41308 0.0
C2877 C 0.9779 0.29396 0.36306 0.0
C2878 C 0.94376 0.28195 0.38731 0.0
H2879 H 0.92975 0.26198 0.42299 0.0
C2880 C 0.93113 0.27969 0.38027 0.0
C2881 C 0.94329 0.27554 0.40289 0.0
C2882 C 0.95665 0.27801 0.41121 0.0
C2883 C 0.91793 0.27092 0.38829 0.0
C2884 C 0.91747 0.26455 0.40395 0.0
C2885 C 0.93013 0.26686 0.41098 0.0
C2886 C 0.90398 0.2554 0.41331 0.0
C2887 C 0.90459 0.26828 0.37974 0.0
C2888 C 0.89572 0.26106 0.41899 0.0
C2889 C 0.88334 0.25253 0.42847 0.0
C2890 C 0.87914 0.23828 0.43263 0.0
C2891 C 0.88742 0.23264 0.42687 0.0
C2892 C 0.89972 0.24113 0.41732 0.0
H2893 H 0.90628 0.27046 0.36592 0.0
H2894 H 0.89561 0.25691 0.3814 0.0
H2895 H 0.9015 0.27567 0.38555 0.0
H2896 H 0.89899 0.27216 0.4164 0.0
H2897 H 0.87725 0.2572 0.43293 0.0
H2898 H 0.02854 0.38746 0.32579 0.0
H2899 H 0.02576 0.4053 0.31073 0.0
H2900 H 0.99176 0.37079 0.28073 0.0
H2901 H 0.99434 0.35289 0.29575 0.0
H2902 H 0.02794 0.4104 0.27532 0.0
H2903 H 0.97431 0.39366 0.30047 0.0
H2904 H 0.98556 0.3883 0.31004 0.0
H2905 H 0.97555 0.37904 0.29114 0.0
C2906 C 0.02044 0.38366 0.31602 0.0
C2907 C 0.01161 0.36875 0.31202 0.0
C2908 C 0.01889 0.39387 0.30742 0.0
C2909 C 0.00843 0.38932 0.29481 0.0
C2910 C -0.00028 0.37448 0.29065 0.0
H2911 H 0.00021 0.4381 0.21558 0.0
H2912 H 0.00425 0.42194 0.23237 0.0
C2913 C 0.00127 0.36428 0.2992 0.0
C2914 C 0.00675 0.4001 0.28575 0.0
H2915 H 0.98283 0.41004 0.27753 0.0
C2916 C 0.01812 0.41039 0.27586 0.0
C2917 C 0.99398 0.40015 0.28668 0.0
C2918 C 0.98168 0.38979 0.29777 0.0
C2919 C 0.01692 0.42053 0.26648 0.0
C2920 C 0.00395 0.4202 0.26688 0.0
C2921 C 0.99271 0.41016 0.27713 0.0
C2922 C 0.00178 0.43017 0.25672 0.0
C2923 C 0.02958 0.43157 0.25635 0.0
C2924 C 0.99877 0.43993 0.26486 0.0
C2925 C 0.99645 0.44917 0.25531 0.0
C2926 C 0.99701 0.44874 0.23743 0.0
C2927 C -6e-05 0.43886 0.22933 0.0
C2928 C 0.00226 0.42963 0.2389 0.0
H2929 H 0.03966 0.43281 0.26081 0.0
H2930 H 0.02807 0.42796 0.24278 0.0
H2931 H 0.03064 0.44235 0.25714 0.0
H2932 H 0.99832 0.44047 0.27861 0.0
H2933 H 0.99439 0.45677 0.26194 0.0
H2934 H 0.61628 0.6405 0.34463 0.0
H2935 H 0.59996 0.61862 0.32787 0.0
H2936 H 0.63262 0.63017 0.28995 0.0
H2937 H 0.64888 0.65218 0.30638 0.0
H2938 H 0.6069 0.62168 0.27591 0.0
H2939 H 0.60104 0.58174 0.32312 0.0
H2940 H 0.59663 0.59454 0.33126 0.0
H2941 H 0.61464 0.6008 0.32486 0.0
C2942 C 0.61999 0.63838 0.33273 0.0
C2943 C 0.6339 0.64805 0.32687 0.0
C2944 C 0.61068 0.62582 0.32323 0.0
C2945 C 0.61517 0.62265 0.30782 0.0
C2946 C 0.62897 0.63238 0.30185 0.0
H2947 H 0.57553 0.5407 0.25116 0.0
H2948 H 0.59108 0.56238 0.26872 0.0
C2949 C 0.63825 0.64496 0.31127 0.0
C2950 C 0.60544 0.60935 0.29768 0.0
H2951 H 0.58594 0.5723 0.2989 0.0
C2952 C 0.60232 0.61088 0.28092 0.0
C2953 C 0.59966 0.59527 0.30419 0.0
C2954 C 0.60325 0.59293 0.32178 0.0
C2955 C 0.59348 0.59871 0.2705 0.0
C2956 C 0.58734 0.58465 0.27718 0.0
C2957 C 0.59056 0.5831 0.29389 0.0
C2958 C 0.57773 0.57139 0.26691 0.0
C2959 C 0.59106 0.60104 0.25233 0.0
C2960 C 0.56496 0.56917 0.26034 0.0
C2961 C 0.55611 0.55685 0.25029 0.0
C2962 C 0.55979 0.54644 0.24678 0.0
C2963 C 0.5724 0.54851 0.25373 0.0
C2964 C 0.58129 0.56089 0.26371 0.0
H2965 H 0.59945 0.61196 0.24793 0.0
H2966 H 0.59083 0.59268 0.24362 0.0
H2967 H 0.58065 0.60023 0.25141 0.0
H2968 H 0.56183 0.57696 0.26302 0.0
H2969 H 0.54632 0.55541 0.24537 0.0
H2970 H 0.34792 0.97381 0.31931 0.0
H2971 H 0.36701 0.97499 0.30192 0.0
H2972 H 0.39772 0.01485 0.32799 0.0
H2973 H 0.37876 0.01358 0.34572 0.0
H2974 H 0.38417 0.996 0.28001 0.0
H2975 H 0.417 0.99194 0.3296 0.0
H2976 H 0.39908 0.98772 0.3336 0.0
H2977 H 0.41376 0.0063 0.33387 0.0
C2978 C 0.35876 0.98274 0.32149 0.0
C2979 C 0.36184 0.99358 0.33393 0.0
C2980 C 0.36965 0.9834 0.31153 0.0
C2981 C 0.38381 0.99489 0.31381 0.0
C2982 C 0.38692 0.00569 0.32629 0.0
H2983 H 0.46216 0.02535 0.2575 0.0
H2984 H 0.44316 0.02267 0.27652 0.0
C2985 C 0.37605 0.00499 0.33635 0.0
C2986 C 0.39515 0.99603 0.30245 0.0
H2987 H 0.42757 0.99911 0.30212 0.0
C2988 C 0.3936 0.99656 0.28484 0.0
C2989 C 0.40746 0.99678 0.30879 0.0
C2990 C 0.40939 0.99551 0.32749 0.0
C2991 C 0.40414 0.99808 0.27341 0.0
C2992 C 0.4165 0.99902 0.27978 0.0
C2993 C 0.41807 0.99845 0.29735 0.0
C2994 C 0.4279 0.00057 0.26833 0.0
C2995 C 0.40215 0.99893 0.25463 0.0
C2996 C 0.42556 0.98897 0.25757 0.0
C2997 C 0.43636 0.99046 0.24673 0.0
C2998 C 0.44966 0.00359 0.24646 0.0
C2999 C 0.45196 0.01517 0.2573 0.0
C3000 C 0.44118 0.01364 0.26822 0.0
H3001 H 0.39326 0.00061 0.25206 0.0
H3002 H 0.41208 0.00793 0.24896 0.0
H3003 H 0.39974 0.98864 0.24817 0.0
H3004 H 0.41539 0.97877 0.2576 0.0
H3005 H 0.43426 0.98139 0.23843 0.0
H3006 H 0.64666 0.99128 0.28435 0.0
H3007 H 0.62838 0.99346 0.27018 0.0
H3008 H 0.60386 0.98223 0.31656 0.0
H3009 H 0.62223 0.98023 0.33098 0.0
H3010 H 0.59959 0.97256 0.26545 0.0
H3011 H 0.60692 0.02008 0.30343 0.0
H3012 H 0.61972 0.01453 0.30359 0.0
H3013 H 0.60353 0.00483 0.31568 0.0
C3014 C 0.6374 0.9893 0.29158 0.0
C3015 C 0.63594 0.98566 0.30883 0.0
C3016 C 0.62696 0.99054 0.28345 0.0
C3017 C 0.61488 0.98821 0.29239 0.0
C3018 C 0.61325 0.98436 0.30953 0.0
H3019 H 0.54227 0.99292 0.26049 0.0
H3020 H 0.55874 0.98883 0.2763 0.0
C3021 C 0.62372 0.98314 0.31772 0.0
C3022 C 0.60396 0.98967 0.2836 0.0
H3023 H 0.58805 0.00944 0.28346 0.0
C3024 C 0.59706 0.98062 0.26937 0.0
C3025 C 0.60069 0.00018 0.2888 0.0
C3026 C 0.60817 0.01056 0.30362 0.0
C3027 C 0.58692 0.98177 0.2602 0.0
C3028 C 0.58379 0.9924 0.26527 0.0
C3029 C 0.59052 0.00131 0.27964 0.0
C3030 C 0.57376 0.99466 0.25559 0.0
C3031 C 0.57955 0.97153 0.24525 0.0
C3032 C 0.57687 -0.00056 0.23879 0.0
C3033 C 0.56749 0.00175 0.22972 0.0
C3034 C 0.55485 -0.00065 0.23733 0.0
C3035 C 0.55183 0.99466 0.25422 0.0
C3036 C 0.56125 0.9924 0.26329 0.0
H3037 H 0.58045 0.9618 0.24564 0.0
H3038 H 0.56809 0.9679 0.24488 0.0
H3039 H 0.58457 0.97725 0.23328 0.0
H3040 H 0.58661 0.00146 0.23273 0.0
H3041 H 0.57006 0.00526 0.2167 0.0
H3042 H 0.00066 0.6356 0.3506 0.0
H3043 H 0.99863 0.61525 0.33373 0.0
H3044 H 0.00719 0.63963 0.288 0.0
H3045 H 0.00944 0.66006 0.30471 0.0
H3046 H 0.9797 0.59949 0.30725 0.0
H3047 H 0.03572 0.62652 0.28504 0.0
H3048 H 0.03025 0.63375 0.30241 0.0
H3049 H 0.02739 0.63654 0.28076 0.0
C3050 C 0.00219 0.63666 0.33696 0.0
C3051 C 0.00528 0.64947 0.329 0.0
C3052 C 0.00102 0.62503 0.32736 0.0
C3053 C 0.00299 0.62604 0.30967 0.0
C3054 C 0.00595 0.63876 0.30168 0.0
H3055 H 0.99572 0.57016 0.22543 0.0
H3056 H 0.99843 0.58971 0.24446 0.0
C3057 C 0.00715 0.65039 0.31126 0.0
C3058 C 0.00149 0.61365 0.29945 0.0
H3059 H 0.01903 0.60407 0.27116 0.0
C3060 C 0.98833 0.60042 0.29948 0.0
C3061 C 0.01279 0.61494 0.28935 0.0
C3062 C 0.02738 0.62865 0.28947 0.0
C3063 C 0.98601 0.58855 0.28923 0.0
C3064 C 0.99722 0.58995 0.27889 0.0
C3065 C 0.01045 0.6031 0.27906 0.0
C3066 C 0.99538 0.57798 0.26753 0.0
C3067 C 0.97147 0.57477 0.28915 0.0
C3068 C 0.99287 0.56498 0.27426 0.0
C3069 C 0.99141 0.55383 0.26343 0.0
C3070 C 0.99248 0.55552 0.2457 0.0
C3071 C 0.99501 0.56859 0.23904 0.0
C3072 C 0.99649 0.57973 0.24987 0.0
H3073 H 0.96324 0.5765 0.29497 0.0
H3074 H 0.96815 0.5704 0.27597 0.0
H3075 H 0.97191 0.56645 0.29655 0.0
H3076 H 0.99225 0.56355 0.28789 0.0
H3077 H 0.98971 0.544 0.26897 0.0
H3078 H 0.35788 0.35454 0.32667 0.0
H3079 H 0.38033 0.37086 0.31225 0.0
H3080 H 0.35989 0.38854 0.28413 0.0
H3081 H 0.33738 0.37236 0.29866 0.0
H3082 H 0.38564 0.37207 0.27755 0.0
H3083 H 0.39569 0.42492 0.30323 0.0
H3084 H 0.38288 0.40779 0.31256 0.0
H3085 H 0.37845 0.41353 0.29365 0.0
C3086 C 0.35816 0.36197 0.31752 0.0
C3087 C 0.34584 0.36218 0.31385 0.0
C3088 C 0.371 0.37128 0.30928 0.0
C3089 C 0.3718 0.38102 0.29728 0.0
C3090 C 0.35956 0.38129 0.2936 0.0
H3091 H 0.43594 0.42393 0.2193 0.0
H3092 H 0.4142 0.4084 0.23547 0.0
C3093 C 0.34669 0.37199 0.30185 0.0
C3094 C 0.38534 0.39045 0.28815 0.0
H3095 H 0.41066 0.42586 0.28061 0.0
C3096 C 0.39115 0.38384 0.27826 0.0
C3097 C 0.39257 0.40578 0.28928 0.0
C3098 C 0.38718 0.41346 0.30037 0.0
C3099 C 0.40388 0.39215 0.2692 0.0
C3100 C 0.41086 0.40747 0.26987 0.0
C3101 C 0.4052 0.4141 0.28002 0.0
C3102 C 0.42405 0.41683 0.26011 0.0
C3103 C 0.40986 0.38448 0.25916 0.0
C3104 C 0.4367 0.42691 0.2686 0.0
C3105 C 0.44911 0.4359 0.25939 0.0
C3106 C 0.44905 0.43504 0.24151 0.0
C3107 C 0.43631 0.42494 0.23305 0.0
C3108 C 0.42392 0.41595 0.24227 0.0
H3109 H 0.40538 0.3732 0.26349 0.0
H3110 H 0.40708 0.3839 0.24554 0.0
H3111 H 0.42165 0.39046 0.26024 0.0
H3112 H 0.43697 0.4278 0.28236 0.0
H3113 H 0.45869 0.4437 0.26627 0.0
H3114 H 0.31538 0.29695 0.37757 0.0
H3115 H 0.32314 0.28314 0.3932 0.0
H3116 H 0.35021 0.28645 0.35127 0.0
H3117 H 0.34245 0.30021 0.33543 0.0
H3118 H 0.33406 0.25825 0.36563 0.0
H3119 H 0.36332 0.30192 0.41455 0.0
H3120 H 0.34509 0.29666 0.41158 0.0
H3121 H 0.35766 0.30507 0.39456 0.0
C3122 C 0.32292 0.29468 0.3716 0.0
C3123 C 0.32838 0.29978 0.3553 0.0
C3124 C 0.3274 0.28685 0.3806 0.0
C3125 C 0.33743 0.28402 0.37349 0.0
C3126 C 0.34253 0.28863 0.357 0.0
H3127 H 0.38485 0.25541 0.43099 0.0
H3128 H 0.37819 0.26848 0.41208 0.0
C3129 C 0.33808 0.29649 0.34799 0.0
C3130 C 0.34272 0.2764 0.3834 0.0
H3131 H 0.36036 0.27901 0.4199 0.0
C3132 C 0.33987 0.2628 0.37745 0.0
C3133 C 0.35049 0.28249 0.39866 0.0
C3134 C 0.35446 0.2974 0.40518 0.0
C3135 C 0.34424 0.2549 0.38667 0.0
C3136 C 0.35149 0.26073 0.4023 0.0
C3137 C 0.3547 0.27453 0.40797 0.0
C3138 C 0.35556 0.25257 0.41318 0.0
C3139 C 0.34114 0.24044 0.37957 0.0
C3140 C 0.34502 0.23938 0.42015 0.0
C3141 C 0.34879 0.2319 0.43089 0.0
C3142 C 0.36317 0.23751 0.43496 0.0
C3143 C 0.3737 0.25074 0.42795 0.0
C3144 C 0.36992 0.25824 0.41722 0.0
H3145 H 0.33909 0.23937 0.36565 0.0
H3146 H 0.35013 0.2389 0.38203 0.0
H3147 H 0.33149 0.2316 0.38585 0.0
H3148 H 0.33386 0.23495 0.41742 0.0
H3149 H 0.34043 0.22166 0.43593 0.0
H3150 H 0.68847 0.01786 0.3802 0.0
H3151 H 0.70433 0.04131 0.39432 0.0
H3152 H 0.71442 0.06231 0.3459 0.0
H3153 H 0.69837 0.03889 0.33164 0.0
H3154 H 0.73333 0.06011 0.38914 0.0
H3155 H 0.70332 0.08674 0.37505 0.0
H3156 H 0.69559 0.06739 0.37247 0.0
H3157 H 0.70777 0.07952 0.35683 0.0
C3158 C 0.69401 0.02746 0.37253 0.0
C3159 C 0.69211 0.02651 0.3548 0.0
C3160 C 0.70307 0.04085 0.38063 0.0
C3161 C 0.71038 0.05356 0.37118 0.0
C3162 C 0.70864 0.05267 0.35346 0.0
H3163 H 0.77266 0.14251 0.40561 0.0
H3164 H 0.75686 0.12098 0.38791 0.0
C3165 C 0.69953 0.03926 0.34533 0.0
C3166 C 0.72011 0.06764 0.37996 0.0
H3167 H 0.72541 0.10113 0.38927 0.0
C3168 C 0.73161 0.06908 0.38914 0.0
C3169 C 0.71786 0.07934 0.37986 0.0
C3170 C 0.70541 0.0782 0.37065 0.0
C3171 C 0.74086 0.08188 0.39837 0.0
C3172 C 0.73845 0.09346 0.39856 0.0
C3173 C 0.72718 0.09219 0.38907 0.0
C3174 C 0.74722 0.1067 0.40917 0.0
C3175 C 0.75318 0.08295 0.40785 0.0
C3176 C 0.74667 0.10581 0.42693 0.0
C3177 C 0.75556 0.11805 0.43705 0.0
C3178 C 0.76518 0.13142 0.42957 0.0
C3179 C 0.76531 0.13239 0.41176 0.0
C3180 C 0.75636 0.12011 0.40163 0.0
H3181 H 0.75555 0.07467 0.40319 0.0
H3182 H 0.76293 0.0939 0.4066 0.0
H3183 H 0.75046 0.08115 0.42156 0.0
H3184 H 0.73947 0.09559 0.43297 0.0
H3185 H 0.75498 0.11701 0.45074 0.0
H3186 H 0.96607 0.67884 0.35429 0.0
H3187 H 0.94232 0.66972 0.36638 0.0
H3188 H 0.95524 0.65927 0.41256 0.0
H3189 H 0.97898 0.66848 0.40074 0.0
H3190 H 0.9227 0.6416 0.37828 0.0
H3191 H 0.93886 0.68364 0.42956 0.0
H3192 H 0.95029 0.68577 0.41179 0.0
H3193 H 0.94874 0.67476 0.42936 0.0
C3194 C 0.96388 0.67468 0.36706 0.0
C3195 C 0.97443 0.67446 0.37659 0.0
C3196 C 0.95031 0.66946 0.37392 0.0
C3197 C 0.94712 0.66402 0.39043 0.0
C3198 C 0.95759 0.66369 0.39991 0.0
H3199 H 0.87388 0.62688 0.45689 0.0
H3200 H 0.89666 0.63468 0.44287 0.0
C3201 C 0.97113 0.6689 0.39309 0.0
C3202 C 0.93275 0.6584 0.39769 0.0
H3203 H 0.91525 0.66307 0.43093 0.0
C3204 C 0.92103 0.64633 0.38972 0.0
C3205 C 0.93066 0.66462 0.41261 0.0
C3206 C 0.94277 0.67799 0.42127 0.0
C3207 C 0.90725 0.64008 0.39656 0.0
C3208 C 0.9052 0.64621 0.4116 0.0
C3209 C 0.91691 0.65835 0.41946 0.0
C3210 C 0.89098 0.64032 0.41938 0.0
C3211 C 0.89508 0.62679 0.38788 0.0
C3212 C 0.88024 0.64082 0.41073 0.0
C3213 C 0.86719 0.63631 0.41867 0.0
C3214 C 0.8647 0.63128 0.43542 0.0
C3215 C 0.8754 0.63051 0.4439 0.0
C3216 C 0.88844 0.63505 0.43597 0.0
H3217 H 0.89891 0.62142 0.379 0.0
H3218 H 0.88787 0.61879 0.39738 0.0
H3219 H 0.88878 0.63003 0.38045 0.0
H3220 H 0.88207 0.64506 0.39802 0.0
H3221 H 0.85912 0.63694 0.41178 0.0
H3222 H 0.37874 0.02141 0.68726 0.0
H3223 H 0.39602 0.01788 0.70203 0.0
H3224 H 0.36989 0.00558 0.74715 0.0
H3225 H 0.35245 0.00874 0.73243 0.0
H3226 H 0.41162 0.03104 0.73091 0.0
H3227 H 0.37572 0.97191 0.74045 0.0
H3228 H 0.37141 0.98184 0.72624 0.0
H3229 H 0.3685 0.98228 0.74878 0.0
C3230 C 0.37666 0.01792 0.70032 0.0
C3231 C 0.36416 0.01523 0.70863 0.0
C3232 C 0.38654 0.01591 0.70873 0.0
C3233 C 0.38409 0.01118 0.72557 0.0
C3234 C 0.3718 0.00885 0.73401 0.0
H3235 H 0.43066 0.9987 0.80324 0.0
H3236 H 0.41436 0.00257 0.78667 0.0
C3237 C 0.36189 0.01075 0.72559 0.0
C3238 C 0.39448 0.00892 0.73446 0.0
H3239 H 0.3975 0.98381 0.75617 0.0
C3240 C 0.40858 0.02069 0.7363 0.0
C3241 C 0.39048 0.99537 0.74142 0.0
C3242 C 0.37574 0.98209 0.73899 0.0
C3243 C 0.41868 0.01936 0.74534 0.0
C3244 C 0.41456 0.00593 0.75264 0.0
C3245 C 0.40055 0.99412 0.75063 0.0
C3246 C 0.42462 0.00394 0.76256 0.0
C3247 C 0.43362 0.03237 0.7474 0.0
C3248 C 0.43569 0.00336 0.7544 0.0
C3249 C 0.44496 0.0011 0.7638 0.0
C3250 C 0.44334 -0.00055 0.78152 0.0
C3251 C 0.43225 9e-05 0.78964 0.0
C3252 C 0.42291 0.00223 0.78021 0.0
H3253 H 0.43453 0.04252 0.74313 0.0
H3254 H 0.43701 0.03386 0.76091 0.0
H3255 H 0.44107 0.03054 0.73975 0.0
H3256 H 0.43707 0.00455 0.74076 0.0
H3257 H 0.45348 0.00077 0.75724 0.0
H3258 H 0.00599 0.35569 0.69863 0.0
H3259 H 0.00812 0.37692 0.71334 0.0
H3260 H 0.96272 0.35309 0.7219 0.0
H3261 H 0.96049 0.3317 0.70745 0.0
H3262 H 0.99531 0.39249 0.70573 0.0
H3263 H 0.97911 0.36816 0.7696 0.0
H3264 H 0.98393 0.36011 0.7525 0.0
H3265 H 0.96659 0.35783 0.7529 0.0
C3266 C 0.99645 0.35493 0.70367 0.0
C3267 C 0.98307 0.34197 0.70198 0.0
C3268 C 0.99769 0.36708 0.71205 0.0
C3269 C 0.98561 0.36649 0.71891 0.0
C3270 C 0.97221 0.35366 0.71699 0.0
H3271 H 0.97384 0.42932 0.77566 0.0
H3272 H 0.97036 0.40815 0.75929 0.0
C3273 C 0.97095 0.34148 0.70866 0.0
C3274 C 0.98707 0.37935 0.72797 0.0
H3275 H 0.98236 0.39139 0.76659 0.0
C3276 C 0.9925 0.39228 0.71904 0.0
C3277 C 0.98338 0.379 0.74533 0.0
C3278 C 0.97805 0.36558 0.75572 0.0
C3279 C 0.99424 0.40486 0.727 0.0
C3280 C 0.99063 0.40452 0.74437 0.0
C3281 C 0.98509 0.39157 0.75325 0.0
C3282 C 0.99275 0.41755 0.7537 0.0
C3283 C -0.00026 0.41835 0.71671 0.0
C3284 C 0.0065 0.42979 0.75603 0.0
C3285 C 0.00854 0.44185 0.76546 0.0
C3286 C 0.99685 0.44186 0.7728 0.0
C3287 C 0.98308 0.42958 0.77035 0.0
C3288 C 0.98106 0.41752 0.76093 0.0
H3289 H 0.99857 0.41582 0.70282 0.0
H3290 H 0.99404 0.42399 0.7201 0.0
H3291 H 0.01123 0.42594 0.71948 0.0
H3292 H 0.01569 0.42988 0.75084 0.0
H3293 H 0.01929 0.45104 0.76735 0.0
H3294 H 0.6416 0.62207 0.6755 0.0
H3295 H 0.62023 0.60685 0.69247 0.0
H3296 H 0.63185 0.64315 0.72685 0.0
H3297 H 0.65336 0.6583 0.71028 0.0
H3298 H 0.62384 0.61872 0.74373 0.0
H3299 H 0.58389 0.60744 0.69406 0.0
H3300 H 0.59637 0.60237 0.68765 0.0
H3301 H 0.60253 0.62119 0.69185 0.0
C3302 C 0.63957 0.62682 0.68664 0.0
C3303 C 0.64915 0.6414 0.69151 0.0
C3304 C 0.62731 0.61814 0.69626 0.0
C3305 C 0.62433 0.62395 0.71075 0.0
C3306 C 0.63392 0.63847 0.71567 0.0
H3307 H 0.5433 0.58497 0.76395 0.0
H3308 H 0.56475 0.60064 0.7474 0.0
C3309 C 0.64621 0.64711 0.70617 0.0
C3310 C 0.61143 0.61484 0.72112 0.0
H3311 H 0.57511 0.59395 0.71939 0.0
C3312 C 0.61318 0.61334 0.73843 0.0
C3313 C 0.59753 0.60802 0.71422 0.0
C3314 C 0.59492 0.60993 0.69597 0.0
C3315 C 0.60141 0.60505 0.74901 0.0
C3316 C 0.58754 0.59777 0.74197 0.0
C3317 C 0.58577 0.59943 0.72471 0.0
C3318 C 0.5747 0.58843 0.75231 0.0
C3319 C 0.60396 0.60441 0.76769 0.0
C3320 C 0.57315 0.57633 0.76047 0.0
C3321 C 0.56101 0.56749 0.77014 0.0
C3322 C 0.55007 0.57045 0.77164 0.0
C3323 C 0.55161 0.58251 0.7633 0.0
C3324 C 0.56381 0.59141 0.75371 0.0
H3325 H 0.61449 0.61375 0.77187 0.0
H3326 H 0.59553 0.60434 0.77563 0.0
H3327 H 0.60385 0.5943 0.77003 0.0
H3328 H 0.5813 0.57366 0.75928 0.0
H3329 H 0.56025 0.55838 0.77651 0.0
H3330 H 0.66393 0.68121 0.6199 0.0
H3331 H 0.656 0.69574 0.6063 0.0
H3332 H 0.67402 0.72742 0.64752 0.0
H3333 H 0.68227 0.71311 0.66104 0.0
H3334 H 0.63749 0.70333 0.61856 0.0
H3335 H 0.69028 0.75272 0.60622 0.0
H3336 H 0.68828 0.73576 0.6121 0.0
H3337 H 0.68758 0.74757 0.62809 0.0
C3338 C 0.66632 0.69133 0.62601 0.0
C3339 C 0.67379 0.69604 0.64152 0.0
C3340 C 0.66176 0.69961 0.61823 0.0
C3341 C 0.66459 0.71275 0.62578 0.0
C3342 C 0.67201 0.71748 0.64128 0.0
H3343 H 0.64148 0.77531 0.60319 0.0
H3344 H 0.6489 0.76023 0.61653 0.0
C3345 C 0.67666 0.70925 0.64903 0.0
C3346 C 0.65931 0.72123 0.61772 0.0
H3347 H 0.66999 0.75454 0.60207 0.0
C3348 C 0.6446 0.7145 0.61486 0.0
C3349 C 0.66862 0.73579 0.61289 0.0
C3350 C 0.68458 0.74336 0.61482 0.0
C3351 C 0.63892 0.72205 0.60757 0.0
C3352 C 0.64822 0.73663 0.60294 0.0
C3353 C 0.66291 0.74336 0.60574 0.0
C3354 C 0.64294 0.74517 0.59513 0.0
C3355 C 0.62301 0.71449 0.60517 0.0
C3356 C 0.6371 0.74162 0.5787 0.0
C3357 C 0.63296 0.75028 0.57097 0.0
C3358 C 0.63465 0.76267 0.57953 0.0
C3359 C 0.64024 0.76598 0.59615 0.0
C3360 C 0.64441 0.75735 0.60383 0.0
H3361 H 0.61713 0.70431 0.61246 0.0
H3362 H 0.61918 0.72176 0.60918 0.0
H3363 H 0.62042 0.71165 0.59148 0.0
H3364 H 0.63608 0.73236 0.57171 0.0
H3365 H 0.6289 0.74756 0.55808 0.0
H3366 H 0.31824 0.97854 0.65256 0.0
H3367 H 0.30154 0.95479 0.63943 0.0
H3368 H 0.26648 0.9601 0.65243 0.0
H3369 H 0.28307 0.98388 0.6656 0.0
H3370 H 0.27603 0.92954 0.65475 0.0
H3371 H 0.26433 0.95257 0.59948 0.0
H3372 H 0.2799 0.96323 0.6127 0.0
H3373 H 0.26275 0.95907 0.62019 0.0
C3374 C 0.30698 0.97465 0.65268 0.0
C3375 C 0.30199 0.98314 0.66003 0.0
C3376 C 0.29746 0.96107 0.64522 0.0
C3377 C 0.28284 0.95581 0.64485 0.0
C3378 C 0.27777 0.96409 0.65246 0.0
H3379 H 0.21062 0.88172 0.59531 0.0
H3380 H 0.22648 0.90371 0.61212 0.0
C3381 C 0.28726 0.97764 0.66 0.0
C3382 C 0.27291 0.9418 0.63615 0.0
H3383 H 0.25124 0.92707 0.60147 0.0
C3384 C 0.2706 0.92894 0.64309 0.0
C3385 C 0.26589 0.94115 0.62097 0.0
C3386 C 0.26837 0.95472 0.61276 0.0
C3387 C 0.26118 0.91534 0.63536 0.0
C3388 C 0.25421 0.91469 0.62011 0.0
C3389 C 0.25657 0.92759 0.61319 0.0
C3390 C 0.24441 0.90079 0.61099 0.0
C3391 C 0.25857 0.90181 0.64381 0.0
C3392 C 0.24921 0.89183 0.60482 0.0
C3393 C 0.24014 0.87921 0.59526 0.0
C3394 C 0.22619 0.87549 0.59151 0.0
C3395 C 0.22137 0.88441 0.59786 0.0
C3396 C 0.23039 0.89693 0.6075 0.0
H3397 H 0.26142 0.90385 0.65753 0.0
H3398 H 0.24724 0.89287 0.64258 0.0
H3399 H 0.26528 0.89817 0.63759 0.0
H3400 H 0.26009 0.89478 0.60701 0.0
H3401 H 0.24419 0.87264 0.59034 0.0
H3402 H 0.03379 0.31778 0.6616 0.0
H3403 H 0.05714 0.32609 0.64878 0.0
H3404 H 0.05556 0.36008 0.62365 0.0
H3405 H 0.03239 0.35201 0.63654 0.0
H3406 H 0.06339 0.32746 0.61454 0.0
H3407 H 0.0951 0.38207 0.64531 0.0
H3408 H 0.07782 0.36822 0.65307 0.0
H3409 H 0.0792 0.37893 0.63524 0.0
C3410 C 0.03847 0.3271 0.65346 0.0
C3411 C 0.03125 0.33425 0.65011 0.0
C3412 C 0.0518 0.33183 0.64616 0.0
C3413 C 0.05817 0.34384 0.63549 0.0
C3414 C 0.05099 0.35101 0.63216 0.0
H3415 H 0.12029 0.36587 0.55644 0.0
H3416 H 0.09917 0.35863 0.57388 0.0
C3417 C 0.03769 0.3463 0.63945 0.0
C3418 C 0.07191 0.34838 0.62701 0.0
H3419 H 0.10557 0.37752 0.62095 0.0
C3420 C 0.07266 0.33836 0.61607 0.0
C3421 C 0.08403 0.36256 0.62918 0.0
C3422 C 0.08409 0.37353 0.64147 0.0
C3423 C 0.08506 0.34228 0.60676 0.0
C3424 C 0.09693 0.35667 0.60827 0.0
C3425 C 0.09638 0.36655 0.61967 0.0
C3426 C 0.10989 0.36169 0.59785 0.0
C3427 C 0.08536 0.331 0.5954 0.0
C3428 C 0.12301 0.36626 0.60561 0.0
C3429 C 0.13511 0.37039 0.59567 0.0
C3430 C 0.13429 0.37008 0.57781 0.0
C3431 C 0.12121 0.36594 0.57014 0.0
C3432 C 0.10914 0.36182 0.58008 0.0
H3433 H 0.07706 0.31979 0.59904 0.0
H3434 H 0.08331 0.3325 0.58207 0.0
H3435 H 0.09594 0.33211 0.59585 0.0
H3436 H 0.12379 0.36629 0.61933 0.0
H3437 H 0.145 0.37342 0.60196 0.0
H3438 H 0.28937 0.31748 0.6513 0.0
H3439 H 0.27459 0.32453 0.63664 0.0
H3440 H 0.31084 0.36825 0.63262 0.0
H3441 H 0.32574 0.36126 0.6469 0.0
H3442 H 0.26823 0.34546 0.64502 0.0
H3443 H 0.2973 0.35771 0.58361 0.0
H3444 H 0.29976 0.34805 0.6002 0.0
H3445 H 0.30853 0.36753 0.60149 0.0
C3446 C 0.2942 0.32859 0.64727 0.0
C3447 C 0.30876 0.33878 0.65011 0.0
C3448 C 0.28574 0.3326 0.63892 0.0
C3449 C 0.2917 0.34684 0.63327 0.0
C3450 C 0.30612 0.35712 0.6365 0.0
H3451 H 0.25794 0.39158 0.58004 0.0
H3452 H 0.2725 0.38556 0.59705 0.0
C3453 C 0.3146 0.35311 0.64475 0.0
C3454 C 0.28282 0.35098 0.62404 0.0
H3455 H 0.28006 0.36439 0.58649 0.0
C3456 C 0.27077 0.34955 0.6322 0.0
C3457 C 0.28618 0.3563 0.60731 0.0
C3458 C 0.29856 0.35737 0.59756 0.0
C3459 C 0.26209 0.35349 0.62415 0.0
C3460 C 0.26551 0.35888 0.60748 0.0
C3461 C 0.27756 0.36035 0.59933 0.0
C3462 C 0.25647 0.36262 0.59802 0.0
C3463 C 0.24942 0.35206 0.63356 0.0
C3464 C 0.24271 0.35169 0.59293 0.0
C3465 C 0.23442 0.35508 0.58321 0.0
C3466 C 0.23976 0.36947 0.57841 0.0
C3467 C 0.25351 0.38043 0.58369 0.0
C3468 C 0.26184 0.37701 0.59333 0.0
H3469 H 0.25006 0.35084 0.64744 0.0
H3470 H 0.24856 0.36167 0.63152 0.0
H3471 H 0.23954 0.3423 0.62862 0.0
H3472 H 0.23847 0.3405 0.59626 0.0
H3473 H 0.22381 0.34643 0.57945 0.0
H3474 H 0.67802 0.9715 0.67901 0.0
H3475 H 0.66947 0.94819 0.66406 0.0
H3476 H 0.6567 0.96297 0.62149 0.0
H3477 H 0.66526 0.98628 0.63619 0.0
H3478 H 0.64115 0.92805 0.65119 0.0
H3479 H 0.68216 0.94915 0.60021 0.0
H3480 H 0.6842 0.95925 0.61973 0.0
H3481 H 0.67296 0.95865 0.60302 0.0
C3482 C 0.67344 0.96982 0.66644 0.0
C3483 C 0.67238 0.98077 0.65876 0.0
C3484 C 0.66854 0.95649 0.65795 0.0
C3485 C 0.66263 0.95397 0.64162 0.0
C3486 C 0.66144 0.96482 0.63398 0.0
H3487 H 0.62951 0.88344 0.56692 0.0
H3488 H 0.63618 0.9057 0.58323 0.0
C3489 C 0.6663 0.97811 0.64245 0.0
C3490 C 0.6575 0.93992 0.63257 0.0
H3491 H 0.66292 0.92476 0.59695 0.0
C3492 C 0.64593 0.92728 0.63937 0.0
C3493 C 0.66376 0.93902 0.61716 0.0
C3494 C 0.67654 0.95221 0.60963 0.0
C3495 C 0.64026 0.91374 0.63094 0.0
C3496 C 0.64651 0.91286 0.6155 0.0
C3497 C 0.65811 0.9255 0.60876 0.0
C3498 C 0.64137 0.8989 0.60619 0.0
C3499 C 0.62743 0.90059 0.63843 0.0
C3500 C 0.64201 0.88769 0.61374 0.0
C3501 C 0.63811 0.87492 0.60451 0.0
C3502 C 0.63359 0.87318 0.58749 0.0
C3503 C 0.63275 0.88435 0.58006 0.0
C3504 C 0.63665 0.89711 0.58931 0.0
H3505 H 0.62165 0.9037 0.64754 0.0
H3506 H 0.61992 0.89339 0.62831 0.0
H3507 H 0.631 0.89431 0.64543 0.0
H3508 H 0.64587 0.88895 0.62664 0.0
H3509 H 0.63876 0.86646 0.61064 0.0
H3510 H 0.0148 0.67636 0.65214 0.0
H3511 H 0.03855 0.69132 0.63981 0.0
H3512 H 0.0321 0.72711 0.63659 0.0
H3513 H 0.0084 0.71231 0.64911 0.0
H3514 H 0.04567 0.7044 0.60828 0.0
H3515 H 0.07071 0.74563 0.66055 0.0
H3516 H 0.05414 0.72851 0.66317 0.0
H3517 H 0.05435 0.74325 0.65292 0.0
C3518 C 0.01845 0.68744 0.6489 0.0
C3519 C 0.00972 0.69317 0.65167 0.0
C3520 C 0.03203 0.69597 0.64185 0.0
C3521 C 0.03716 0.71038 0.63755 0.0
C3522 C 0.02845 0.71611 0.64018 0.0
H3523 H 0.1092 0.77915 0.58621 0.0
H3524 H 0.08722 0.76321 0.6017 0.0
C3525 C 0.01487 0.7076 0.64723 0.0
C3526 C 0.05142 0.71927 0.62969 0.0
H3527 H 0.08352 0.75107 0.63438 0.0
C3528 C 0.05401 0.71453 0.61405 0.0
C3529 C 0.06226 0.73245 0.6373 0.0
C3530 C 0.06031 0.73772 0.65449 0.0
C3531 C 0.06701 0.7229 0.60548 0.0
C3532 C 0.07774 0.73623 0.61293 0.0
C3533 C 0.07525 0.74083 0.62873 0.0
C3534 C 0.09135 0.74592 0.60409 0.0
C3535 C 0.06898 0.71768 0.58827 0.0
C3536 C 0.10106 0.74156 0.60057 0.0
C3537 C 0.11363 0.75063 0.59162 0.0
C3538 C 0.11665 0.7642 0.58607 0.0
C3539 C 0.10705 0.76865 0.59004 0.0
C3540 C 0.09454 0.75961 0.59898 0.0
H3541 H 0.05873 0.70877 0.58284 0.0
H3542 H 0.07393 0.72674 0.5792 0.0
H3543 H 0.0762 0.71352 0.58954 0.0
H3544 H 0.09887 0.73111 0.60464 0.0
H3545 H 0.12081 0.7469 0.58872 0.0
H3546 H 0.965 0.61568 0.69148 0.0
H3547 H 0.96743 0.59747 0.70619 0.0
H3548 H 0.00333 0.63156 0.73433 0.0
H3549 H 0.0011 0.64981 0.71961 0.0
H3550 H 0.00792 0.61027 0.72013 0.0
H3551 H 0.95704 0.58585 0.75622 0.0
H3552 H 0.95542 0.58661 0.73363 0.0
H3553 H 0.96483 0.60318 0.7461 0.0
C3554 C 0.97339 0.6193 0.70083 0.0
C3555 C 0.98283 0.63419 0.70442 0.0
C3556 C 0.97472 0.60888 0.70927 0.0
C3557 C 0.98545 0.61319 0.72149 0.0
C3558 C 0.99495 0.62803 0.72498 0.0
H3559 H 0.99525 0.56387 0.79843 0.0
H3560 H 0.99182 0.58072 0.78221 0.0
C3561 C 0.99363 0.63844 0.71656 0.0
C3562 C 0.98699 0.60228 0.7305 0.0
H3563 H 0.97031 0.57452 0.75838 0.0
C3564 C -0.0003 0.60242 0.72847 0.0
C3565 C 0.97628 0.59219 0.74149 0.0
C3566 C 0.96266 0.59196 0.74466 0.0
C3567 C 0.002 0.59269 0.73714 0.0
C3568 C 0.99121 0.58245 0.74793 0.0
C3569 C 0.97851 0.58233 0.74999 0.0
C3570 C 0.99308 0.57204 0.7576 0.0
C3571 C 0.01609 0.59369 0.735 0.0
C3572 C 0.99475 0.56148 0.7491 0.0
C3573 C 0.99666 0.5518 0.75832 0.0
C3574 C 0.99685 0.55246 0.77622 0.0
C3575 C 0.995 0.56297 0.78467 0.0
C3576 C 0.9931 0.57264 0.77543 0.0
H3577 H 0.02435 0.60418 0.72949 0.0
H3578 H 0.02001 0.59248 0.74739 0.0
H3579 H 0.01467 0.58479 0.72629 0.0
H3580 H 0.99448 0.56067 0.73533 0.0
H3581 H 0.9978 0.54367 0.75145 0.0
H3582 H 0.37191 0.34055 0.71904 0.0
H3583 H 0.3884 0.36308 0.73475 0.0
H3584 H 0.36796 0.38381 0.71355 0.0
H3585 H 0.35142 0.36141 0.69794 0.0
H3586 H 0.40736 0.39102 0.72112 0.0
H3587 H 0.36785 0.39144 0.76518 0.0
H3588 H 0.36429 0.37538 0.75325 0.0
H3589 H 0.36303 0.38932 0.7431 0.0
C3590 C 0.37089 0.34989 0.71777 0.0
C3591 C 0.36032 0.34917 0.7073 0.0
C3592 C 0.38032 0.36273 0.72674 0.0
C3593 C 0.37923 0.375 0.72549 0.0
C3594 C 0.36878 0.37436 0.71494 0.0
H3595 H 0.42503 0.46372 0.7638 0.0
H3596 H 0.4086 0.44031 0.74972 0.0
C3597 C 0.35939 0.36156 0.70596 0.0
C3598 C 0.38926 0.38865 0.7348 0.0
H3599 H 0.39081 0.41304 0.76447 0.0
C3600 C 0.40379 0.3958 0.7307 0.0
C3601 C 0.38451 0.39483 0.74724 0.0
C3602 C 0.36909 0.3873 0.7526 0.0
C3603 C 0.41369 0.40921 0.73841 0.0
C3604 C 0.40892 0.41546 0.75074 0.0
C3605 C 0.39441 0.40823 0.75496 0.0
C3606 C 0.41883 0.42954 0.75937 0.0
C3607 C 0.4291 0.41678 0.73294 0.0
C3608 C 0.42985 0.43113 0.76965 0.0
C3609 C 0.43922 0.44445 0.77772 0.0
C3610 C 0.43765 0.4564 0.77575 0.0
C3611 C 0.42644 0.45469 0.76566 0.0
C3612 C 0.41709 0.44136 0.75756 0.0
H3613 H 0.43035 0.4124 0.72054 0.0
H3614 H 0.43374 0.42865 0.73186 0.0
H3615 H 0.4353 0.41513 0.74262 0.0
H3616 H 0.43116 0.42203 0.77152 0.0
H3617 H 0.44757 0.44534 0.78569 0.0
H3618 H 0.64152 0.99342 0.71837 0.0
H3619 H 0.62067 0.99097 0.73289 0.0
H3620 H 0.62499 0.02659 0.70459 0.0
H3621 H 0.64593 0.02922 0.69002 0.0
H3622 H 0.62124 0.02837 0.74033 0.0
H3623 H 0.58064 0.97477 0.71218 0.0
H3624 H 0.59574 0.9753 0.72128 0.0
H3625 H 0.59816 0.98602 0.70307 0.0
C3626 C 0.63802 0.00072 0.71517 0.0
C3627 C 0.64536 0.01149 0.703 0.0
C3628 C 0.62606 0.99924 0.72341 0.0
C3629 C 0.62121 0.00847 0.71962 0.0
C3630 C 0.62855 0.01931 0.70759 0.0
H3631 H 0.54061 0.99705 0.75409 0.0
H3632 H 0.56079 0.00069 0.73676 0.0
C3633 C 0.64049 0.02078 0.69928 0.0
C3634 C 0.60872 0.00707 0.72862 0.0
H3635 H 0.57327 0.98346 0.73582 0.0
C3636 C 0.61073 0.01861 0.73927 0.0
C3637 C 0.59501 0.99438 0.72703 0.0
C3638 C 0.59217 0.98195 0.71516 0.0
C3639 C 0.59942 0.0176 0.7488 0.0
C3640 C 0.58584 0.00466 0.74775 0.0
C3641 C 0.58374 0.99331 0.7367 0.0
C3642 C 0.57373 0.0026 0.75824 0.0
C3643 C 0.60206 0.03038 0.75989 0.0
C3644 C 0.5743 0.00227 0.77601 0.0
C3645 C 0.56277 8e-05 0.78593 0.0
C3646 C 0.55044 0.99813 0.77824 0.0
C3647 C 0.54988 0.99836 0.76039 0.0
C3648 C 0.56142 0.00052 0.75048 0.0
H3649 H 0.61188 0.0406 0.75605 0.0
H3650 H 0.5929 0.03192 0.75937 0.0
H3651 H 0.60341 0.02833 0.77327 0.0
H3652 H 0.58361 0.00355 0.7822 0.0
H3653 H 0.56343 -0.00031 0.79962 0.0
loop_
_geom_bond_atom_site_label_1
_geom_bond_atom_site_label_2
_geom_bond_distance
_geom_bond_site_symmetry_2
_ccdc_geom_bond_type
C0 O1 1.160 . S
C0 O7 1.185 . S
O1 C0 1.160 . S
O2 Zn3 1.899 1_656 S
O2 C10 1.285 1_556 S
Zn3 O2 1.899 1_454 S
Zn3 O4 2.032 . S
Zn3 O7 2.086 . S
Zn3 O12 1.977 1_554 S
O4 Zn3 2.032 . S
O4 C8 1.278 1_455 S
C5 O6 1.203 1_455 S
C5 O12 1.267 . S
O6 C5 1.203 1_655 S
O7 C0 1.185 . S
O7 Zn3 2.086 . S
C8 O4 1.278 1_655 S
C8 O9 1.211 . S
O9 C8 1.211 . S
C10 O2 1.285 1_554 S
C10 O11 1.270 . S
O11 C10 1.270 . S
O12 Zn3 1.977 1_556 S
O12 C5 1.267 . S
C13 O14 1.160 . S
C13 O20 1.185 1_556 S
O14 C13 1.160 . S
O15 Zn16 1.899 . S
O15 C23 1.284 . S
Zn16 O15 1.899 . S
Zn16 O17 2.032 1_554 S
Zn16 O20 2.086 . S
Zn16 O25 1.977 . S
O17 Zn16 2.032 1_556 S
O17 C21 1.278 . S
C18 O19 1.203 . S
C18 O25 1.267 . S
O19 C18 1.203 . S
O20 C13 1.185 1_554 S
O20 Zn16 2.086 . S
C21 O17 1.278 . S
C21 O22 1.181 1_556 S
O22 C21 1.181 1_554 S
C23 O15 1.284 . S
C23 O24 1.273 . S
O24 C23 1.273 . S
O25 Zn16 1.977 . S
O25 C18 1.267 . S
C26 O27 1.152 1_554 S
C26 O33 1.202 . S
O27 C26 1.152 1_556 S
O28 Zn29 1.917 . S
O28 C36 1.205 1_545 S
Zn29 O28 1.917 . S
Zn29 O30 2.032 1_554 S
Zn29 O33 2.086 . S
Zn29 O38 1.977 . S
O30 Zn29 2.032 1_556 S
O30 C34 1.278 . S
C31 O32 1.255 . S
C31 O38 1.267 . S
O32 C31 1.255 . S
O33 C26 1.202 . S
O33 Zn29 2.086 . S
C34 O30 1.278 . S
C34 O35 1.193 1_546 S
O35 C34 1.193 1_564 S
C36 O28 1.205 1_565 S
C36 O37 1.273 . S
O37 C36 1.273 . S
O38 Zn29 1.977 . S
O38 C31 1.267 . S
C39 O40 1.160 . S
C39 O46 1.185 1_556 S
O40 C39 1.160 . S
O41 Zn42 1.899 1_455 S
O41 C49 1.284 . S
Zn42 O41 1.899 1_655 S
Zn42 O43 2.009 1_654 S
Zn42 O46 2.086 . S
Zn42 O51 1.977 . S
O43 Zn42 2.009 1_456 S
O43 C47 1.336 . S
C44 O45 1.203 1_655 S
C44 O51 1.267 . S
O45 C44 1.203 1_455 S
O46 C39 1.185 1_554 S
O46 Zn42 2.086 . S
C47 O43 1.336 . S
C47 O48 1.211 . S
O48 C47 1.211 . S
C49 O41 1.284 . S
C49 O50 1.273 . S
O50 C49 1.273 . S
O51 Zn42 1.977 . S
O51 C44 1.267 . S
C52 O53 1.160 . S
C52 O59 1.185 . S
O53 C52 1.160 . S
O54 Zn55 1.899 1_556 S
O54 C62 1.284 . S
Zn55 O54 1.899 1_554 S
Zn55 O56 2.032 . S
Zn55 O59 2.086 . S
Zn55 O64 1.977 1_554 S
O56 Zn55 2.032 . S
O56 C60 1.278 . S
C57 O58 1.203 . S
C57 O64 1.267 . S
O58 C57 1.203 . S
O59 C52 1.185 . S
O59 Zn55 2.086 . S
C60 O56 1.278 . S
C60 O61 1.211 . S
O61 C60 1.211 . S
C62 O54 1.284 . S
C62 O63 1.273 1_556 S
O63 C62 1.273 1_554 S
O64 Zn55 1.977 1_556 S
O64 C57 1.267 . S
C65 O66 1.160 . S
C65 O72 1.185 . S
O66 C65 1.160 . S
O67 Zn68 1.899 1_546 S
O67 C75 1.293 . S
Zn68 O67 1.899 1_564 S
Zn68 O69 2.032 1_565 S
Zn68 O72 2.086 . S
Zn68 O77 1.977 1_554 S
O69 Zn68 2.032 1_545 S
O69 C73 1.278 . S
C70 O71 1.203 1_565 S
C70 O77 1.267 . S
O71 C70 1.203 1_545 S
O72 C65 1.185 . S
O72 Zn68 2.086 . S
C73 O69 1.278 . S
C73 O74 1.211 . S
O74 C73 1.211 . S
C75 O67 1.293 . S
C75 O76 1.253 1_556 S
O76 C75 1.253 1_554 S
O77 Zn68 1.977 1_556 S
O77 C70 1.267 . S
C78 O79 1.160 . S
C78 O85 1.185 . S
O79 C78 1.160 . S
O80 Zn81 1.899 . S
O80 C88 1.284 . S
Zn81 O80 1.899 . S
Zn81 O82 2.032 . S
Zn81 O85 2.086 . S
Zn81 O90 1.977 . S
O82 Zn81 2.032 . S
O82 C86 1.278 . S
C83 O84 1.203 . S
C83 O90 1.267 . S
O84 C83 1.203 . S
O85 C78 1.185 . S
O85 Zn81 2.086 . S
C86 O82 1.278 . S
C86 O87 1.211 . S
O87 C86 1.211 . S
C88 O80 1.284 . S
C88 O89 1.273 . S
O89 C88 1.273 . S
O90 Zn81 1.977 . S
O90 C83 1.267 . S
C91 O92 1.160 1_565 S
C91 O98 1.185 . S
O92 C91 1.160 1_545 S
O93 Zn94 1.899 1_545 S
O93 C101 1.284 . S
Zn94 O93 1.899 1_565 S
Zn94 O95 2.032 . S
Zn94 O98 2.086 . S
Zn94 O103 1.977 . S
O95 Zn94 2.032 . S
O95 C99 1.278 . S
C96 O97 1.203 . S
C96 O103 1.267 . S
O97 C96 1.203 . S
O98 C91 1.185 . S
O98 Zn94 2.086 . S
C99 O95 1.278 . S
C99 O100 1.211 . S
O100 C99 1.211 . S
C101 O93 1.284 . S
C101 O102 1.273 . S
O102 C101 1.273 . S
O103 Zn94 1.977 . S
O103 C96 1.267 . S
C104 O105 1.160 . S
C104 O111 1.185 . S
O105 C104 1.160 . S
O106 Zn107 1.899 . S
O106 C114 1.284 1_455 S
Zn107 O106 1.899 . S
Zn107 O108 2.032 . S
Zn107 O111 2.086 . S
Zn107 O116 1.977 . S
O108 Zn107 2.032 . S
O108 C112 1.278 . S
C109 O110 1.203 . S
C109 O116 1.267 . S
O110 C109 1.203 . S
O111 C104 1.185 . S
O111 Zn107 2.086 . S
C112 O108 1.278 . S
C112 O113 1.211 . S
O113 C112 1.211 . S
C114 O106 1.284 1_655 S
C114 O115 1.277 1_655 S
O115 C114 1.277 1_455 S
O116 Zn107 1.977 . S
O116 C109 1.267 . S
C117 O118 1.143 1_565 S
C117 O124 1.185 . S
O118 C117 1.143 1_545 S
O119 Zn120 1.899 1_545 S
O119 C127 1.284 . S
Zn120 O119 1.899 1_565 S
Zn120 O121 2.032 . S
Zn120 O124 2.086 . S
Zn120 O129 1.977 . S
O121 Zn120 2.032 . S
O121 C125 1.278 . S
C122 O123 1.203 . S
C122 O129 1.267 . S
O123 C122 1.203 . S
O124 C117 1.185 . S
O124 Zn120 2.086 . S
C125 O121 1.278 . S
C125 O126 1.211 . S
O126 C125 1.211 . S
C127 O119 1.284 . S
C127 O128 1.273 . S
O128 C127 1.273 . S
O129 Zn120 1.977 . S
O129 C122 1.267 . S
C130 O131 1.160 . S
C130 O137 1.185 . S
O131 C130 1.160 . S
O132 Zn133 1.899 . S
O132 C140 1.284 . S
Zn133 O132 1.899 . S
Zn133 O134 2.032 . S
Zn133 O137 2.086 1_455 S
Zn133 O142 1.977 . S
O134 Zn133 2.032 . S
O134 C138 1.278 . S
C135 O136 1.203 . S
C135 O142 1.267 . S
O136 C135 1.203 . S
O137 C130 1.185 . S
O137 Zn133 2.086 1_655 S
C138 O134 1.278 . S
C138 O139 1.211 . S
O139 C138 1.211 . S
C140 O132 1.284 . S
C140 O141 1.273 . S
O141 C140 1.273 . S
O142 Zn133 1.977 . S
O142 C135 1.267 . S
C143 O144 1.160 . S
C143 O150 1.185 . S
O144 C143 1.160 . S
O145 Zn146 1.899 . S
O145 C153 1.284 . S
Zn146 O145 1.899 . S
Zn146 O147 2.032 . S
Zn146 O150 2.086 . S
Zn146 O155 1.977 . S
O147 Zn146 2.032 . S
O147 C151 1.278 . S
C148 O149 1.203 . S
C148 O155 1.267 . S
O149 C148 1.203 . S
O150 C143 1.185 . S
O150 Zn146 2.086 . S
C151 O147 1.278 . S
C151 O152 1.211 . S
O152 C151 1.211 . S
C153 O145 1.284 . S
C153 O154 1.273 . S
O154 C153 1.273 . S
O155 Zn146 1.977 . S
O155 C148 1.267 . S
C156 O157 1.160 . S
C156 O163 1.185 . S
O157 C156 1.160 . S
O158 Zn159 1.899 . S
O158 C166 1.284 1_545 S
Zn159 O158 1.899 . S
Zn159 O160 2.032 . S
Zn159 O163 2.086 . S
Zn159 O168 1.977 . S
O160 Zn159 2.032 . S
O160 C164 1.278 . S
C161 O162 1.203 . S
C161 O168 1.267 . S
O162 C161 1.203 . S
O163 C156 1.185 . S
O163 Zn159 2.086 . S
C164 O160 1.278 . S
C164 O165 1.211 . S
O165 C164 1.211 . S
C166 O158 1.284 1_565 S
C166 O167 1.273 1_565 S
O167 C166 1.273 1_545 S
O168 Zn159 1.977 . S
O168 C161 1.267 . S
C169 O170 1.160 . S
C169 O176 1.185 . S
O170 C169 1.160 . S
O171 Zn172 1.899 . S
O171 C179 1.284 . S
Zn172 O171 1.899 . S
Zn172 O173 2.032 . S
Zn172 O176 2.086 1_655 S
Zn172 O181 1.977 . S
O173 Zn172 2.032 . S
O173 C177 1.278 . S
C174 O175 1.203 . S
C174 O181 1.267 . S
O175 C174 1.203 . S
O176 C169 1.185 . S
O176 Zn172 2.086 1_455 S
C177 O173 1.278 . S
C177 O178 1.211 . S
O178 C177 1.211 . S
C179 O171 1.284 . S
C179 O180 1.273 . S
O180 C179 1.273 . S
O181 Zn172 1.977 . S
O181 C174 1.267 . S
C182 O183 1.160 . S
C182 O189 1.185 . S
O183 C182 1.160 . S
O184 Zn185 1.899 . S
O184 C192 1.284 . S
Zn185 O184 1.899 . S
Zn185 O186 2.032 . S
Zn185 O189 2.086 . S
Zn185 O194 1.977 . S
O186 Zn185 2.032 . S
O186 C190 1.278 . S
C187 O188 1.203 . S
C187 O194 1.267 . S
O188 C187 1.203 . S
O189 C182 1.185 . S
O189 Zn185 2.086 . S
C190 O186 1.278 . S
C190 O191 1.211 . S
O191 C190 1.211 . S
C192 O184 1.284 . S
C192 O193 1.273 . S
O193 C192 1.273 . S
O194 Zn185 1.977 . S
O194 C187 1.267 . S
C195 O196 1.160 . S
C195 O202 1.185 . S
O196 C195 1.160 . S
O197 Zn198 1.899 . S
O197 C205 1.284 . S
Zn198 O197 1.899 . S
Zn198 O199 2.032 . S
Zn198 O202 2.086 . S
Zn198 O207 1.977 . S
O199 Zn198 2.032 . S
O199 C203 1.278 . S
C200 O201 1.203 . S
C200 O207 1.267 . S
O201 C200 1.203 . S
O202 C195 1.185 . S
O202 Zn198 2.086 . S
C203 O199 1.278 . S
C203 O204 1.211 . S
O204 C203 1.211 . S
C205 O197 1.284 . S
C205 O206 1.273 . S
O206 C205 1.273 . S
O207 Zn198 1.977 . S
O207 C200 1.267 . S
C208 O209 1.160 . S
C208 O215 1.185 . S
O209 C208 1.160 . S
O210 Zn211 1.899 . S
O210 C218 1.284 1_545 S
Zn211 O210 1.899 . S
Zn211 O212 2.032 . S
Zn211 O215 2.086 . S
Zn211 O220 1.977 . S
O212 Zn211 2.032 . S
O212 C216 1.278 . S
C213 O214 1.203 . S
C213 O220 1.267 . S
O214 C213 1.203 . S
O215 C208 1.185 . S
O215 Zn211 2.086 . S
C216 O212 1.278 . S
C216 O217 1.211 . S
O217 C216 1.211 . S
C218 O210 1.284 1_565 S
C218 O219 1.273 1_565 S
O219 C218 1.273 1_545 S
O220 Zn211 1.977 . S
O220 C213 1.267 . S
C221 O222 1.160 . S
C221 O228 1.185 . S
O222 C221 1.160 . S
O223 Zn224 1.899 . S
O223 C231 1.284 1_655 S
Zn224 O223 1.899 . S
Zn224 O225 2.032 . S
Zn224 O228 2.086 . S
Zn224 O233 1.977 . S
O225 Zn224 2.032 . S
O225 C229 1.278 . S
C226 O227 1.203 . S
C226 O233 1.267 . S
O227 C226 1.203 . S
O228 C221 1.185 . S
O228 Zn224 2.086 . S
C229 O225 1.278 . S
C229 O230 1.211 . S
O230 C229 1.211 . S
C231 O223 1.284 1_455 S
C231 O232 1.273 1_455 S
O232 C231 1.273 1_655 S
O233 Zn224 1.977 . S
O233 C226 1.267 . S
C234 C235 1.384 . S
C234 C236 1.384 . S
C234 H262 0.931 . S
C235 C234 1.384 . S
C235 C238 1.382 . S
C236 C234 1.384 . S
C236 C237 1.381 . S
C236 H263 0.930 . S
C237 C236 1.381 . S
C237 C239 1.381 . S
C237 C240 1.487 . S
C238 C235 1.382 . S
C238 C239 1.387 . S
C238 H264 0.930 . S
C239 C237 1.381 . S
C239 C238 1.387 . S
C239 H265 0.931 . S
C240 C237 1.487 . S
C240 C247 1.399 . S
C240 N278 1.343 . S
C241 C242 1.384 . S
C241 C243 1.384 . S
C241 H266 0.931 . S
C242 C241 1.384 . S
C242 C245 1.382 . S
C243 C241 1.384 . S
C243 C244 1.381 . S
C243 H267 0.930 . S
C244 C243 1.381 . S
C244 C246 1.381 . S
C244 C247 1.487 . S
C245 C242 1.382 . S
C245 C246 1.387 . S
C245 H268 0.930 . S
C246 C244 1.381 . S
C246 C245 1.387 . S
C246 H269 0.931 . S
C247 C240 1.399 . S
C247 C244 1.487 . S
C247 N279 1.343 . S
C248 C249 1.384 . S
C248 C250 1.384 . S
C248 H270 0.931 . S
C249 C248 1.384 . S
C249 C252 1.382 . S
C250 C248 1.384 . S
C250 C251 1.381 . S
C250 H271 0.930 . S
C251 C250 1.381 . S
C251 C253 1.381 . S
C251 C254 1.487 . S
C252 C249 1.382 . S
C252 C253 1.387 . S
C252 H272 0.930 . S
C253 C251 1.381 . S
C253 C252 1.387 . S
C253 H273 0.931 . S
C254 C251 1.487 . S
C254 C261 1.399 . S
C254 N279 1.343 . S
C255 C256 1.384 . S
C255 C257 1.384 . S
C255 H274 0.931 . S
C256 C255 1.384 . S
C256 C259 1.382 . S
C257 C255 1.384 . S
C257 C258 1.381 . S
C257 H275 0.930 . S
C258 C257 1.381 . S
C258 C260 1.381 . S
C258 C261 1.487 . S
C259 C256 1.382 . S
C259 C260 1.387 . S
C259 H276 0.930 . S
C260 C258 1.381 . S
C260 C259 1.387 . S
C260 H277 0.931 . S
C261 C254 1.399 . S
C261 C258 1.487 . S
C261 N278 1.343 . S
H262 C234 0.931 . S
H263 C236 0.930 . S
H264 C238 0.930 . S
H265 C239 0.931 . S
H266 C241 0.931 . S
H267 C243 0.930 . S
H268 C245 0.930 . S
H269 C246 0.931 . S
H270 C248 0.931 . S
H271 C250 0.930 . S
H272 C252 0.930 . S
H273 C253 0.931 . S
H274 C255 0.931 . S
H275 C257 0.930 . S
H276 C259 0.930 . S
H277 C260 0.931 . S
N278 C240 1.343 . S
N278 C261 1.343 . S
N279 C247 1.343 . S
N279 C254 1.343 . S
C280 C281 1.384 . S
C280 C282 1.384 . S
C280 H308 0.931 . S
C281 C280 1.384 . S
C281 C284 1.382 . S
C282 C280 1.384 . S
C282 C283 1.381 . S
C282 H309 0.930 . S
C283 C282 1.381 . S
C283 C285 1.381 . S
C283 C286 1.487 . S
C284 C281 1.382 . S
C284 C285 1.387 . S
C284 H310 0.930 . S
C285 C283 1.381 . S
C285 C284 1.387 . S
C285 H311 0.931 . S
C286 C283 1.487 . S
C286 C293 1.399 . S
C286 N324 1.343 . S
C287 C288 1.384 . S
C287 C289 1.384 . S
C287 H312 0.931 . S
C288 C287 1.384 . S
C288 C291 1.382 . S
C289 C287 1.384 . S
C289 C290 1.381 . S
C289 H313 0.930 . S
C290 C289 1.381 . S
C290 C292 1.381 . S
C290 C293 1.487 . S
C291 C288 1.382 . S
C291 C292 1.387 . S
C291 H314 0.930 . S
C292 C290 1.381 . S
C292 C291 1.387 . S
C292 H315 0.931 . S
C293 C286 1.399 . S
C293 C290 1.487 . S
C293 N325 1.343 . S
C294 C295 1.384 . S
C294 C296 1.384 . S
C294 H316 0.931 . S
C295 C294 1.384 . S
C295 C298 1.382 . S
C296 C294 1.384 . S
C296 C297 1.381 . S
C296 H317 0.930 . S
C297 C296 1.381 . S
C297 C299 1.381 . S
C297 C300 1.487 . S
C298 C295 1.382 . S
C298 C299 1.387 . S
C298 H318 0.930 . S
C299 C297 1.381 . S
C299 C298 1.387 . S
C299 H319 0.931 . S
C300 C297 1.487 . S
C300 C307 1.399 . S
C300 N325 1.343 . S
C301 C302 1.384 . S
C301 C303 1.384 . S
C301 H320 0.931 . S
C302 C301 1.384 . S
C302 C305 1.382 . S
C303 C301 1.384 . S
C303 C304 1.381 . S
C303 H321 0.930 . S
C304 C303 1.381 . S
C304 C306 1.381 . S
C304 C307 1.487 . S
C305 C302 1.382 . S
C305 C306 1.387 . S
C305 H322 0.930 . S
C306 C304 1.381 . S
C306 C305 1.387 . S
C306 H323 0.931 . S
C307 C300 1.399 . S
C307 C304 1.487 . S
C307 N324 1.343 . S
H308 C280 0.931 . S
H309 C282 0.930 . S
H310 C284 0.930 . S
H311 C285 0.931 . S
H312 C287 0.931 . S
H313 C289 0.930 . S
H314 C291 0.930 . S
H315 C292 0.931 . S
H316 C294 0.931 . S
H317 C296 0.930 . S
H318 C298 0.930 . S
H319 C299 0.931 . S
H320 C301 0.931 . S
H321 C303 0.930 . S
H322 C305 0.930 . S
H323 C306 0.931 . S
N324 C286 1.343 . S
N324 C307 1.343 . S
N325 C293 1.343 . S
N325 C300 1.343 . S
C326 C327 1.384 . S
C326 C328 1.384 . S
C326 H354 0.931 . S
C327 C326 1.384 . S
C327 C330 1.382 . S
C328 C326 1.384 . S
C328 C329 1.381 . S
C328 H355 0.930 . S
C329 C328 1.381 . S
C329 C331 1.381 . S
C329 C332 1.487 . S
C330 C327 1.382 . S
C330 C331 1.387 . S
C330 H356 0.930 . S
C331 C329 1.381 . S
C331 C330 1.387 . S
C331 H357 0.931 . S
C332 C329 1.487 . S
C332 C339 1.399 . S
C332 N370 1.343 . S
C333 C334 1.384 . S
C333 C335 1.384 . S
C333 H358 0.931 . S
C334 C333 1.384 . S
C334 C337 1.382 . S
C335 C333 1.384 . S
C335 C336 1.381 . S
C335 H359 0.930 . S
C336 C335 1.381 . S
C336 C338 1.381 . S
C336 C339 1.487 . S
C337 C334 1.382 . S
C337 C338 1.387 . S
C337 H360 0.930 . S
C338 C336 1.381 . S
C338 C337 1.387 . S
C338 H361 0.931 . S
C339 C332 1.399 . S
C339 C336 1.487 . S
C339 N371 1.343 . S
C340 C341 1.384 . S
C340 C342 1.384 . S
C340 H362 0.931 . S
C341 C340 1.384 . S
C341 C344 1.382 . S
C342 C340 1.384 . S
C342 C343 1.381 . S
C342 H363 0.930 . S
C343 C342 1.381 . S
C343 C345 1.381 . S
C343 C346 1.487 . S
C344 C341 1.382 . S
C344 C345 1.387 . S
C344 H364 0.930 . S
C345 C343 1.381 . S
C345 C344 1.387 . S
C345 H365 0.931 . S
C346 C343 1.487 . S
C346 C353 1.399 . S
C346 N371 1.343 . S
C347 C348 1.384 . S
C347 C349 1.384 . S
C347 H366 0.931 . S
C348 C347 1.384 . S
C348 C351 1.382 . S
C349 C347 1.384 . S
C349 C350 1.381 . S
C349 H367 0.930 . S
C350 C349 1.381 . S
C350 C352 1.381 . S
C350 C353 1.487 . S
C351 C348 1.382 . S
C351 C352 1.387 . S
C351 H368 0.930 . S
C352 C350 1.381 . S
C352 C351 1.387 . S
C352 H369 0.931 . S
C353 C346 1.399 . S
C353 C350 1.487 . S
C353 N370 1.343 . S
H354 C326 0.931 . S
H355 C328 0.930 . S
H356 C330 0.930 . S
H357 C331 0.931 . S
H358 C333 0.931 . S
H359 C335 0.930 . S
H360 C337 0.930 . S
H361 C338 0.931 . S
H362 C340 0.931 . S
H363 C342 0.930 . S
H364 C344 0.930 . S
H365 C345 0.931 . S
H366 C347 0.931 . S
H367 C349 0.930 . S
H368 C351 0.930 . S
H369 C352 0.931 . S
N370 C332 1.343 . S
N370 C353 1.343 . S
N371 C339 1.343 . S
N371 C346 1.343 . S
C372 C373 1.384 . S
C372 C374 1.384 . S
C372 H400 0.931 . S
C373 C372 1.384 . S
C373 C376 1.382 . S
C374 C372 1.384 . S
C374 C375 1.381 . S
C374 H401 0.930 . S
C375 C374 1.381 . S
C375 C377 1.381 . S
C375 C378 1.487 . S
C376 C373 1.382 . S
C376 C377 1.387 . S
C376 H402 0.930 . S
C377 C375 1.381 . S
C377 C376 1.387 . S
C377 H403 0.931 . S
C378 C375 1.487 . S
C378 C385 1.399 . S
C378 N416 1.343 . S
C379 C380 1.384 . S
C379 C381 1.384 . S
C379 H404 0.931 . S
C380 C379 1.384 . S
C380 C383 1.382 . S
C381 C379 1.384 . S
C381 C382 1.381 . S
C381 H405 0.930 . S
C382 C381 1.381 . S
C382 C384 1.381 . S
C382 C385 1.487 . S
C383 C380 1.382 . S
C383 C384 1.387 . S
C383 H406 0.930 . S
C384 C382 1.381 . S
C384 C383 1.387 . S
C384 H407 0.931 . S
C385 C378 1.399 . S
C385 C382 1.487 . S
C385 N417 1.343 . S
C386 C387 1.384 . S
C386 C388 1.384 . S
C386 H408 0.931 . S
C387 C386 1.384 . S
C387 C390 1.382 . S
C388 C386 1.384 . S
C388 C389 1.381 . S
C388 H409 0.930 . S
C389 C388 1.381 . S
C389 C391 1.381 . S
C389 C392 1.487 . S
C390 C387 1.382 . S
C390 C391 1.387 . S
C390 H410 0.930 . S
C391 C389 1.381 . S
C391 C390 1.387 . S
C391 H411 0.931 . S
C392 C389 1.487 . S
C392 C399 1.399 . S
C392 N417 1.343 . S
C393 C394 1.384 . S
C393 C395 1.384 . S
C393 H412 0.931 . S
C394 C393 1.384 . S
C394 C397 1.382 . S
C395 C393 1.384 . S
C395 C396 1.381 . S
C395 H413 0.930 . S
C396 C395 1.381 . S
C396 C398 1.381 . S
C396 C399 1.487 . S
C397 C394 1.382 . S
C397 C398 1.387 . S
C397 H414 0.930 . S
C398 C396 1.381 . S
C398 C397 1.387 . S
C398 H415 0.931 . S
C399 C392 1.399 . S
C399 C396 1.487 . S
C399 N416 1.343 . S
H400 C372 0.931 . S
H401 C374 0.930 . S
H402 C376 0.930 . S
H403 C377 0.931 . S
H404 C379 0.931 . S
H405 C381 0.930 . S
H406 C383 0.930 . S
H407 C384 0.931 . S
H408 C386 0.931 . S
H409 C388 0.930 . S
H410 C390 0.930 . S
H411 C391 0.931 . S
H412 C393 0.931 . S
H413 C395 0.930 . S
H414 C397 0.930 . S
H415 C398 0.931 . S
N416 C378 1.343 . S
N416 C399 1.343 . S
N417 C385 1.343 . S
N417 C392 1.343 . S
C418 C419 1.384 . S
C418 C420 1.384 . S
C418 H446 0.931 . S
C419 C418 1.384 . S
C419 C422 1.382 . S
C420 C418 1.384 . S
C420 C421 1.381 . S
C420 H447 0.930 . S
C421 C420 1.381 . S
C421 C423 1.381 . S
C421 C424 1.487 . S
C422 C419 1.382 . S
C422 C423 1.387 . S
C422 H448 0.930 . S
C423 C421 1.381 . S
C423 C422 1.387 . S
C423 H449 0.931 . S
C424 C421 1.487 . S
C424 C431 1.399 . S
C424 N462 1.343 . S
C425 C426 1.384 . S
C425 C427 1.384 . S
C425 H450 0.931 . S
C426 C425 1.384 . S
C426 C429 1.382 . S
C427 C425 1.384 . S
C427 C428 1.381 . S
C427 H451 0.930 . S
C428 C427 1.381 . S
C428 C430 1.381 . S
C428 C431 1.487 . S
C429 C426 1.382 . S
C429 C430 1.387 . S
C429 H452 0.930 . S
C430 C428 1.381 . S
C430 C429 1.387 . S
C430 H453 0.931 . S
C431 C424 1.399 . S
C431 C428 1.487 . S
C431 N463 1.343 . S
C432 C433 1.384 . S
C432 C434 1.384 . S
C432 H454 0.931 . S
C433 C432 1.384 . S
C433 C436 1.382 . S
C434 C432 1.384 . S
C434 C435 1.381 . S
C434 H455 0.930 . S
C435 C434 1.381 . S
C435 C437 1.381 . S
C435 C438 1.487 . S
C436 C433 1.382 . S
C436 C437 1.387 . S
C436 H456 0.930 . S
C437 C435 1.381 . S
C437 C436 1.387 . S
C437 H457 0.931 . S
C438 C435 1.487 . S
C438 C445 1.399 . S
C438 N463 1.343 . S
C439 C440 1.384 . S
C439 C441 1.384 . S
C439 H458 0.931 . S
C440 C439 1.384 . S
C440 C443 1.382 . S
C441 C439 1.384 . S
C441 C442 1.381 . S
C441 H459 0.930 . S
C442 C441 1.381 . S
C442 C444 1.381 . S
C442 C445 1.487 . S
C443 C440 1.382 . S
C443 C444 1.387 . S
C443 H460 0.930 . S
C444 C442 1.381 . S
C444 C443 1.387 . S
C444 H461 0.931 . S
C445 C438 1.399 . S
C445 C442 1.487 . S
C445 N462 1.343 . S
H446 C418 0.931 . S
H447 C420 0.930 . S
H448 C422 0.930 . S
H449 C423 0.931 . S
H450 C425 0.931 . S
H451 C427 0.930 . S
H452 C429 0.930 . S
H453 C430 0.931 . S
H454 C432 0.931 . S
H455 C434 0.930 . S
H456 C436 0.930 . S
H457 C437 0.931 . S
H458 C439 0.931 . S
H459 C441 0.930 . S
H460 C443 0.930 . S
H461 C444 0.931 . S
N462 C424 1.343 . S
N462 C445 1.343 . S
N463 C431 1.343 . S
N463 C438 1.343 . S
C464 C465 1.384 . S
C464 C466 1.384 . S
C464 H492 0.931 . S
C465 C464 1.384 . S
C465 C468 1.382 . S
C466 C464 1.384 . S
C466 C467 1.381 . S
C466 H493 0.930 . S
C467 C466 1.381 . S
C467 C469 1.381 . S
C467 C470 1.487 . S
C468 C465 1.382 . S
C468 C469 1.387 . S
C468 H494 0.930 . S
C469 C467 1.381 . S
C469 C468 1.387 . S
C469 H495 0.931 . S
C470 C467 1.487 . S
C470 C477 1.399 . S
C470 N508 1.343 . S
C471 C472 1.384 . S
C471 C473 1.384 . S
C471 H496 0.931 . S
C472 C471 1.384 . S
C472 C475 1.382 . S
C473 C471 1.384 . S
C473 C474 1.381 . S
C473 H497 0.930 . S
C474 C473 1.381 . S
C474 C476 1.381 . S
C474 C477 1.487 . S
C475 C472 1.382 . S
C475 C476 1.387 . S
C475 H498 0.930 . S
C476 C474 1.381 . S
C476 C475 1.387 . S
C476 H499 0.931 . S
C477 C470 1.399 . S
C477 C474 1.487 . S
C477 N509 1.343 . S
C478 C479 1.384 . S
C478 C480 1.384 . S
C478 H500 0.931 . S
C479 C478 1.384 . S
C479 C482 1.382 . S
C480 C478 1.384 . S
C480 C481 1.381 . S
C480 H501 0.930 . S
C481 C480 1.381 . S
C481 C483 1.381 . S
C481 C484 1.487 . S
C482 C479 1.382 . S
C482 C483 1.387 . S
C482 H502 0.930 . S
C483 C481 1.381 . S
C483 C482 1.387 . S
C483 H503 0.931 . S
C484 C481 1.487 . S
C484 C491 1.399 . S
C484 N509 1.343 . S
C485 C486 1.384 . S
C485 C487 1.384 . S
C485 H504 0.931 . S
C486 C485 1.384 . S
C486 C489 1.382 . S
C487 C485 1.384 . S
C487 C488 1.381 . S
C487 H505 0.930 . S
C488 C487 1.381 . S
C488 C490 1.381 . S
C488 C491 1.487 . S
C489 C486 1.382 . S
C489 C490 1.387 . S
C489 H506 0.930 . S
C490 C488 1.381 . S
C490 C489 1.387 . S
C490 H507 0.931 . S
C491 C484 1.399 . S
C491 C488 1.487 . S
C491 N508 1.343 . S
H492 C464 0.931 . S
H493 C466 0.930 . S
H494 C468 0.930 . S
H495 C469 0.931 . S
H496 C471 0.931 . S
H497 C473 0.930 . S
H498 C475 0.930 . S
H499 C476 0.931 . S
H500 C478 0.931 . S
H501 C480 0.930 . S
H502 C482 0.930 . S
H503 C483 0.931 . S
H504 C485 0.931 . S
H505 C487 0.930 . S
H506 C489 0.930 . S
H507 C490 0.931 . S
N508 C470 1.343 . S
N508 C491 1.343 . S
N509 C477 1.343 . S
N509 C484 1.343 . S
C510 C511 1.384 . S
C510 C512 1.384 . S
C510 H538 0.931 . S
C511 C510 1.384 . S
C511 C514 1.382 . S
C512 C510 1.384 . S
C512 C513 1.381 . S
C512 H539 0.930 . S
C513 C512 1.381 . S
C513 C515 1.381 . S
C513 C516 1.487 . S
C514 C511 1.382 . S
C514 C515 1.387 . S
C514 H540 0.930 . S
C515 C513 1.381 . S
C515 C514 1.387 . S
C515 H541 0.931 . S
C516 C513 1.487 . S
C516 C523 1.399 . S
C516 N554 1.343 . S
C517 C518 1.384 . S
C517 C519 1.384 . S
C517 H542 0.931 . S
C518 C517 1.384 . S
C518 C521 1.382 . S
C519 C517 1.384 . S
C519 C520 1.381 . S
C519 H543 0.930 . S
C520 C519 1.381 . S
C520 C522 1.381 . S
C520 C523 1.487 . S
C521 C518 1.382 . S
C521 C522 1.387 . S
C521 H544 0.930 . S
C522 C520 1.381 . S
C522 C521 1.387 . S
C522 H545 0.931 . S
C523 C516 1.399 . S
C523 C520 1.487 . S
C523 N555 1.343 . S
C524 C525 1.384 . S
C524 C526 1.384 . S
C524 H546 0.931 . S
C525 C524 1.384 . S
C525 C528 1.382 . S
C526 C524 1.384 . S
C526 C527 1.381 . S
C526 H547 0.930 . S
C527 C526 1.381 . S
C527 C529 1.381 . S
C527 C530 1.487 . S
C528 C525 1.382 . S
C528 C529 1.387 . S
C528 H548 0.930 . S
C529 C527 1.381 . S
C529 C528 1.387 . S
C529 H549 0.931 . S
C530 C527 1.487 . S
C530 C537 1.399 . S
C530 N555 1.343 . S
C531 C532 1.384 . S
C531 C533 1.384 . S
C531 H550 0.931 . S
C532 C531 1.384 . S
C532 C535 1.382 . S
C533 C531 1.384 . S
C533 C534 1.381 . S
C533 H551 0.930 . S
C534 C533 1.381 . S
C534 C536 1.381 . S
C534 C537 1.487 . S
C535 C532 1.382 . S
C535 C536 1.387 . S
C535 H552 0.930 . S
C536 C534 1.381 . S
C536 C535 1.387 . S
C536 H553 0.931 . S
C537 C530 1.399 . S
C537 C534 1.487 . S
C537 N554 1.343 . S
H538 C510 0.931 . S
H539 C512 0.930 . S
H540 C514 0.930 . S
H541 C515 0.931 . S
H542 C517 0.931 . S
H543 C519 0.930 . S
H544 C521 0.930 . S
H545 C522 0.931 . S
H546 C524 0.931 . S
H547 C526 0.930 . S
H548 C528 0.930 . S
H549 C529 0.931 . S
H550 C531 0.931 . S
H551 C533 0.930 . S
H552 C535 0.930 . S
H553 C536 0.931 . S
N554 C516 1.343 . S
N554 C537 1.343 . S
N555 C523 1.343 . S
N555 C530 1.343 . S
C556 C557 1.384 . S
C556 C558 1.384 . S
C556 H584 0.931 . S
C557 C556 1.384 . S
C557 C560 1.382 . S
C558 C556 1.384 . S
C558 C559 1.381 . S
C558 H585 0.930 . S
C559 C558 1.381 . S
C559 C561 1.381 . S
C559 C562 1.487 . S
C560 C557 1.382 . S
C560 C561 1.387 . S
C560 H586 0.930 . S
C561 C559 1.381 . S
C561 C560 1.387 . S
C561 H587 0.931 . S
C562 C559 1.487 . S
C562 C569 1.399 . S
C562 N600 1.343 . S
C563 C564 1.384 . S
C563 C565 1.384 . S
C563 H588 0.931 . S
C564 C563 1.384 . S
C564 C567 1.382 . S
C565 C563 1.384 . S
C565 C566 1.381 . S
C565 H589 0.930 . S
C566 C565 1.381 . S
C566 C568 1.381 . S
C566 C569 1.487 . S
C567 C564 1.382 . S
C567 C568 1.387 . S
C567 H590 0.930 . S
C568 C566 1.381 . S
C568 C567 1.387 . S
C568 H591 0.931 . S
C569 C562 1.399 . S
C569 C566 1.487 . S
C569 N601 1.343 . S
C570 C571 1.384 . S
C570 C572 1.384 . S
C570 H592 0.931 . S
C571 C570 1.384 . S
C571 C574 1.382 . S
C572 C570 1.384 . S
C572 C573 1.381 . S
C572 H593 0.930 . S
C573 C572 1.381 . S
C573 C575 1.381 . S
C573 C576 1.487 . S
C574 C571 1.382 . S
C574 C575 1.387 . S
C574 H594 0.930 . S
C575 C573 1.381 . S
C575 C574 1.387 . S
C575 H595 0.931 . S
C576 C573 1.487 . S
C576 C583 1.399 . S
C576 N601 1.343 . S
C577 C578 1.384 . S
C577 C579 1.384 . S
C577 H596 0.931 . S
C578 C577 1.384 . S
C578 C581 1.382 . S
C579 C577 1.384 . S
C579 C580 1.381 . S
C579 H597 0.930 . S
C580 C579 1.381 . S
C580 C582 1.381 . S
C580 C583 1.487 . S
C581 C578 1.382 . S
C581 C582 1.387 . S
C581 H598 0.930 . S
C582 C580 1.381 . S
C582 C581 1.387 . S
C582 H599 0.931 . S
C583 C576 1.399 . S
C583 C580 1.487 . S
C583 N600 1.343 . S
H584 C556 0.931 . S
H585 C558 0.930 . S
H586 C560 0.930 . S
H587 C561 0.931 . S
H588 C563 0.931 . S
H589 C565 0.930 . S
H590 C567 0.930 . S
H591 C568 0.931 . S
H592 C570 0.931 . S
H593 C572 0.930 . S
H594 C574 0.930 . S
H595 C575 0.931 . S
H596 C577 0.931 . S
H597 C579 0.930 . S
H598 C581 0.930 . S
H599 C582 0.931 . S
N600 C562 1.343 . S
N600 C583 1.343 . S
N601 C569 1.343 . S
N601 C576 1.343 . S
C602 C603 1.384 . S
C602 C604 1.384 . S
C602 H630 0.931 . S
C603 C602 1.384 . S
C603 C606 1.382 . S
C604 C602 1.384 . S
C604 C605 1.381 . S
C604 H631 0.930 . S
C605 C604 1.381 . S
C605 C607 1.381 . S
C605 C608 1.487 . S
C606 C603 1.382 . S
C606 C607 1.387 . S
C606 H632 0.930 . S
C607 C605 1.381 . S
C607 C606 1.387 . S
C607 H633 0.931 . S
C608 C605 1.487 . S
C608 C615 1.399 . S
C608 N646 1.343 . S
C609 C610 1.384 . S
C609 C611 1.384 . S
C609 H634 0.931 . S
C610 C609 1.384 . S
C610 C613 1.382 . S
C611 C609 1.384 . S
C611 C612 1.381 . S
C611 H635 0.930 . S
C612 C611 1.381 . S
C612 C614 1.381 . S
C612 C615 1.487 . S
C613 C610 1.382 . S
C613 C614 1.387 . S
C613 H636 0.930 . S
C614 C612 1.381 . S
C614 C613 1.387 . S
C614 H637 0.931 . S
C615 C608 1.399 . S
C615 C612 1.487 . S
C615 N647 1.343 . S
C616 C617 1.384 . S
C616 C618 1.384 . S
C616 H638 0.931 . S
C617 C616 1.384 . S
C617 C620 1.382 . S
C618 C616 1.384 . S
C618 C619 1.381 . S
C618 H639 0.930 . S
C619 C618 1.381 . S
C619 C621 1.381 . S
C619 C622 1.487 . S
C620 C617 1.382 . S
C620 C621 1.387 . S
C620 H640 0.930 . S
C621 C619 1.381 . S
C621 C620 1.387 . S
C621 H641 0.931 . S
C622 C619 1.487 . S
C622 C629 1.399 . S
C622 N647 1.343 . S
C623 C624 1.384 . S
C623 C625 1.384 . S
C623 H642 0.931 . S
C624 C623 1.384 . S
C624 C627 1.382 . S
C625 C623 1.384 . S
C625 C626 1.381 . S
C625 H643 0.930 . S
C626 C625 1.381 . S
C626 C628 1.381 . S
C626 C629 1.487 . S
C627 C624 1.382 . S
C627 C628 1.387 . S
C627 H644 0.930 . S
C628 C626 1.381 . S
C628 C627 1.387 . S
C628 H645 0.931 . S
C629 C622 1.399 . S
C629 C626 1.487 . S
C629 N646 1.343 . S
H630 C602 0.931 . S
H631 C604 0.930 . S
H632 C606 0.930 . S
H633 C607 0.931 . S
H634 C609 0.931 . S
H635 C611 0.930 . S
H636 C613 0.930 . S
H637 C614 0.931 . S
H638 C616 0.931 . S
H639 C618 0.930 . S
H640 C620 0.930 . S
H641 C621 0.931 . S
H642 C623 0.931 . S
H643 C625 0.930 . S
H644 C627 0.930 . S
H645 C628 0.931 . S
N646 C608 1.343 . S
N646 C629 1.343 . S
N647 C615 1.343 . S
N647 C622 1.343 . S
C648 C649 1.384 . S
C648 C650 1.384 . S
C648 H676 0.931 . S
C649 C648 1.384 . S
C649 C652 1.382 1_655 S
C650 C648 1.384 . S
C650 C651 1.426 . S
C650 H677 0.930 . S
C651 C650 1.426 . S
C651 C653 1.360 1_655 S
C651 C654 1.468 1_655 S
C652 C649 1.382 1_455 S
C652 C653 1.387 . S
C652 H678 0.930 . S
C653 C651 1.360 1_455 S
C653 C652 1.387 . S
C653 H679 0.931 . S
C654 C651 1.468 1_455 S
C654 C661 1.399 1_455 S
C654 N692 1.304 . S
C655 C656 1.430 . S
C655 C657 1.384 . S
C655 H680 0.931 . S
C656 C655 1.430 . S
C656 C659 1.371 1_455 S
C657 C655 1.384 . S
C657 C658 1.379 1_455 S
C657 H681 0.930 . S
C658 C657 1.379 1_655 S
C658 C660 1.390 . S
C658 C661 1.491 . S
C659 C656 1.371 1_655 S
C659 C660 1.387 . S
C659 H682 0.930 . S
C660 C658 1.390 . S
C660 C659 1.387 . S
C660 H683 0.931 . S
C661 C654 1.399 1_655 S
C661 C658 1.491 . S
C661 N693 1.357 . S
C662 C663 1.384 . S
C662 C664 1.384 . S
C662 H684 0.931 . S
C663 C662 1.384 . S
C663 C666 1.382 1_455 S
C664 C662 1.384 . S
C664 C665 1.447 . S
C664 H685 0.930 . S
C665 C664 1.447 . S
C665 C667 1.350 1_455 S
C665 C668 1.459 . S
C666 C663 1.382 1_655 S
C666 C667 1.387 . S
C666 H686 0.930 . S
C667 C665 1.350 1_655 S
C667 C666 1.387 . S
C667 H687 0.931 . S
C668 C665 1.459 . S
C668 C675 1.399 . S
C668 N693 1.314 1_455 S
C669 C670 1.417 . S
C669 C671 1.384 . S
C669 H688 0.931 . S
C670 C669 1.417 . S
C670 C673 1.373 1_655 S
C671 C669 1.384 . S
C671 C672 1.376 1_655 S
C671 H689 0.930 . S
C672 C671 1.376 1_455 S
C672 C674 1.402 . S
C672 C675 1.491 . S
C673 C670 1.373 1_455 S
C673 C674 1.387 . S
C673 H690 0.930 . S
C674 C672 1.402 . S
C674 C673 1.387 . S
C674 H691 0.931 . S
C675 C668 1.399 . S
C675 C672 1.491 . S
C675 N692 1.357 . S
H676 C648 0.931 . S
H677 C650 0.930 . S
H678 C652 0.930 . S
H679 C653 0.931 . S
H680 C655 0.931 . S
H681 C657 0.930 . S
H682 C659 0.930 . S
H683 C660 0.931 . S
H684 C662 0.931 . S
H685 C664 0.930 . S
H686 C666 0.930 . S
H687 C667 0.931 . S
H688 C669 0.931 . S
H689 C671 0.930 . S
H690 C673 0.930 . S
H691 C674 0.931 . S
N692 C654 1.304 . S
N692 C675 1.357 . S
N693 C661 1.357 . S
N693 C668 1.314 1_655 S
C694 C695 1.384 . S
C694 C696 1.384 . S
C694 H722 0.931 . S
C695 C694 1.384 . S
C695 C698 1.382 . S
C696 C694 1.384 . S
C696 C697 1.381 . S
C696 H723 0.930 . S
C697 C696 1.381 . S
C697 C699 1.381 . S
C697 C700 1.487 . S
C698 C695 1.382 . S
C698 C699 1.387 . S
C698 H724 0.930 . S
C699 C697 1.381 . S
C699 C698 1.387 . S
C699 H725 0.931 . S
C700 C697 1.487 . S
C700 C707 1.399 . S
C700 N738 1.343 . S
C701 C702 1.384 . S
C701 C703 1.384 . S
C701 H726 0.931 . S
C702 C701 1.384 . S
C702 C705 1.382 . S
C703 C701 1.384 . S
C703 C704 1.381 . S
C703 H727 0.930 . S
C704 C703 1.381 . S
C704 C706 1.381 . S
C704 C707 1.487 . S
C705 C702 1.382 . S
C705 C706 1.387 . S
C705 H728 0.930 . S
C706 C704 1.381 . S
C706 C705 1.387 . S
C706 H729 0.931 . S
C707 C700 1.399 . S
C707 C704 1.487 . S
C707 N739 1.343 . S
C708 C709 1.384 . S
C708 C710 1.384 . S
C708 H730 0.931 . S
C709 C708 1.384 . S
C709 C712 1.382 . S
C710 C708 1.384 . S
C710 C711 1.381 . S
C710 H731 0.930 . S
C711 C710 1.381 . S
C711 C713 1.381 . S
C711 C714 1.487 . S
C712 C709 1.382 . S
C712 C713 1.387 . S
C712 H732 0.930 . S
C713 C711 1.381 . S
C713 C712 1.387 . S
C713 H733 0.931 . S
C714 C711 1.487 . S
C714 C721 1.399 . S
C714 N739 1.343 . S
C715 C716 1.384 . S
C715 C717 1.384 . S
C715 H734 0.931 . S
C716 C715 1.384 . S
C716 C719 1.382 . S
C717 C715 1.384 . S
C717 C718 1.381 . S
C717 H735 0.930 . S
C718 C717 1.381 . S
C718 C720 1.381 . S
C718 C721 1.487 . S
C719 C716 1.382 . S
C719 C720 1.387 . S
C719 H736 0.930 . S
C720 C718 1.381 . S
C720 C719 1.387 . S
C720 H737 0.931 . S
C721 C714 1.399 . S
C721 C718 1.487 . S
C721 N738 1.343 . S
H722 C694 0.931 . S
H723 C696 0.930 . S
H724 C698 0.930 . S
H725 C699 0.931 . S
H726 C701 0.931 . S
H727 C703 0.930 . S
H728 C705 0.930 . S
H729 C706 0.931 . S
H730 C708 0.931 . S
H731 C710 0.930 . S
H732 C712 0.930 . S
H733 C713 0.931 . S
H734 C715 0.931 . S
H735 C717 0.930 . S
H736 C719 0.930 . S
H737 C720 0.931 . S
N738 C700 1.343 . S
N738 C721 1.343 . S
N739 C707 1.343 . S
N739 C714 1.343 . S
C740 C741 1.384 1_545 S
C740 C742 1.384 . S
C740 H768 0.931 . S
C741 C740 1.384 1_565 S
C741 C744 1.382 . S
C742 C740 1.384 . S
C742 C743 1.381 1_545 S
C742 H769 0.930 . S
C743 C742 1.381 1_565 S
C743 C745 1.381 . S
C743 C746 1.487 . S
C744 C741 1.382 . S
C744 C745 1.387 . S
C744 H770 0.930 . S
C745 C743 1.381 . S
C745 C744 1.387 . S
C745 H771 0.931 . S
C746 C743 1.487 . S
C746 C753 1.399 1_565 S
C746 N784 1.343 . S
C747 C748 1.384 1_565 S
C747 C749 1.384 . S
C747 H772 0.931 . S
C748 C747 1.384 1_545 S
C748 C751 1.382 . S
C749 C747 1.384 . S
C749 C750 1.381 1_565 S
C749 H773 0.930 . S
C750 C749 1.381 1_545 S
C750 C752 1.381 . S
C750 C753 1.487 . S
C751 C748 1.382 . S
C751 C752 1.387 . S
C751 H774 0.930 . S
C752 C750 1.381 . S
C752 C751 1.387 . S
C752 H775 0.931 . S
C753 C746 1.399 1_545 S
C753 C750 1.487 . S
C753 N785 1.343 . S
C754 C755 1.384 1_565 S
C754 C756 1.384 . S
C754 H776 0.931 . S
C755 C754 1.384 1_545 S
C755 C758 1.382 . S
C756 C754 1.384 . S
C756 C757 1.381 1_565 S
C756 H777 0.930 . S
C757 C756 1.381 1_545 S
C757 C759 1.381 . S
C757 C760 1.456 . S
C758 C755 1.382 . S
C758 C759 1.387 . S
C758 H778 0.930 . S
C759 C757 1.381 . S
C759 C758 1.387 . S
C759 H779 0.931 . S
C760 C757 1.456 . S
C760 C767 1.388 1_545 S
C760 N785 1.395 . S
C761 C762 1.384 1_545 S
C761 C763 1.384 . S
C761 H780 0.931 . S
C762 C761 1.384 1_565 S
C762 C765 1.382 . S
C763 C761 1.384 . S
C763 C764 1.381 1_545 S
C763 H781 0.930 . S
C764 C763 1.381 1_565 S
C764 C766 1.381 . S
C764 C767 1.487 . S
C765 C762 1.382 . S
C765 C766 1.387 . S
C765 H782 0.930 . S
C766 C764 1.381 . S
C766 C765 1.387 . S
C766 H783 0.931 . S
C767 C760 1.388 1_565 S
C767 C764 1.487 . S
C767 N784 1.343 . S
H768 C740 0.931 . S
H769 C742 0.930 . S
H770 C744 0.930 . S
H771 C745 0.931 . S
H772 C747 0.931 . S
H773 C749 0.930 . S
H774 C751 0.930 . S
H775 C752 0.931 . S
H776 C754 0.931 . S
H777 C756 0.930 . S
H778 C758 0.930 . S
H779 C759 0.931 . S
H780 C761 0.931 . S
H781 C763 0.930 . S
H782 C765 0.930 . S
H783 C766 0.931 . S
N784 C746 1.343 . S
N784 C767 1.343 . S
N785 C753 1.343 . S
N785 C760 1.395 . S
C786 C787 1.384 . S
C786 C788 1.384 . S
C786 H814 0.931 . S
C787 C786 1.384 . S
C787 C790 1.382 1_545 S
C788 C786 1.384 . S
C788 C789 1.381 1_545 S
C788 H815 0.930 . S
C789 C788 1.381 1_565 S
C789 C791 1.381 . S
C789 C792 1.494 . S
C790 C787 1.382 1_565 S
C790 C791 1.387 . S
C790 H816 0.930 . S
C791 C789 1.381 . S
C791 C790 1.387 . S
C791 H817 0.931 . S
C792 C789 1.494 . S
C792 C799 1.399 1_565 S
C792 N830 1.359 . S
C793 C794 1.384 . S
C793 C795 1.384 . S
C793 H818 0.931 . S
C794 C793 1.384 . S
C794 C797 1.382 1_565 S
C795 C793 1.384 . S
C795 C796 1.416 . S
C795 H819 0.930 . S
C796 C795 1.416 . S
C796 C798 1.365 1_565 S
C796 C799 1.470 1_565 S
C797 C794 1.382 1_545 S
C797 C798 1.387 . S
C797 H820 0.930 . S
C798 C796 1.365 1_545 S
C798 C797 1.387 . S
C798 H821 0.931 . S
C799 C792 1.399 1_545 S
C799 C796 1.470 1_545 S
C799 N831 1.309 . S
C800 C801 1.434 . S
C800 C802 1.384 . S
C800 H822 0.931 . S
C801 C800 1.434 . S
C801 C804 1.369 1_565 S
C802 C800 1.384 . S
C802 C803 1.378 1_565 S
C802 H823 0.930 . S
C803 C802 1.378 1_545 S
C803 C805 1.393 . S
C803 C806 1.494 . S
C804 C801 1.369 1_545 S
C804 C805 1.387 . S
C804 H824 0.930 . S
C805 C803 1.393 . S
C805 C804 1.387 . S
C805 H825 0.931 . S
C806 C803 1.494 . S
C806 C813 1.400 . S
C806 N831 1.359 . S
C807 C808 1.384 . S
C807 C809 1.384 . S
C807 H826 0.931 . S
C808 C807 1.384 . S
C808 C811 1.382 1_545 S
C809 C807 1.384 . S
C809 C810 1.437 . S
C809 H827 0.930 . S
C810 C809 1.437 . S
C810 C812 1.356 1_545 S
C810 C813 1.460 . S
C811 C808 1.382 1_565 S
C811 C812 1.387 . S
C811 H828 0.930 . S
C812 C810 1.356 1_565 S
C812 C811 1.387 . S
C812 H829 0.931 . S
C813 C806 1.400 . S
C813 C810 1.460 . S
C813 N830 1.319 1_545 S
H814 C786 0.931 . S
H815 C788 0.930 . S
H816 C790 0.930 . S
H817 C791 0.931 . S
H818 C793 0.931 . S
H819 C795 0.930 . S
H820 C797 0.930 . S
H821 C798 0.931 . S
H822 C800 0.931 . S
H823 C802 0.930 . S
H824 C804 0.930 . S
H825 C805 0.931 . S
H826 C807 0.931 . S
H827 C809 0.930 . S
H828 C811 0.930 . S
H829 C812 0.931 . S
N830 C792 1.359 . S
N830 C813 1.319 1_565 S
N831 C799 1.309 . S
N831 C806 1.359 . S
C832 C833 1.384 . S
C832 C834 1.384 . S
C832 H860 0.931 . S
C833 C832 1.384 . S
C833 C836 1.382 1_655 S
C834 C832 1.384 . S
C834 C835 1.464 . S
C834 H861 0.930 . S
C835 C834 1.464 . S
C835 C837 1.343 1_655 S
C835 C838 1.454 . S
C836 C833 1.382 1_455 S
C836 C837 1.387 . S
C836 H862 0.930 . S
C837 C835 1.343 1_455 S
C837 C836 1.387 . S
C837 H863 0.931 . S
C838 C835 1.454 . S
C838 C845 1.399 . S
C838 N876 1.318 1_655 S
C839 C840 1.438 . S
C839 C841 1.384 . S
C839 H864 0.931 . S
C840 C839 1.438 . S
C840 C843 1.369 1_455 S
C841 C839 1.384 . S
C841 C842 1.378 1_455 S
C841 H865 0.930 . S
C842 C841 1.378 1_655 S
C842 C844 1.392 . S
C842 C845 1.495 . S
C843 C840 1.369 1_655 S
C843 C844 1.387 . S
C843 H866 0.930 . S
C844 C842 1.392 . S
C844 C843 1.387 . S
C844 H867 0.931 . S
C845 C838 1.399 . S
C845 C842 1.495 . S
C845 N877 1.353 . S
C846 C847 1.384 . S
C846 C848 1.384 . S
C846 H868 0.931 . S
C847 C846 1.384 . S
C847 C850 1.382 1_455 S
C848 C846 1.384 . S
C848 C849 1.442 . S
C848 H869 0.930 . S
C849 C848 1.442 . S
C849 C851 1.352 1_455 S
C849 C852 1.454 . S
C850 C847 1.382 1_655 S
C850 C851 1.387 . S
C850 H870 0.930 . S
C851 C849 1.352 1_655 S
C851 C850 1.387 . S
C851 H871 0.931 . S
C852 C849 1.454 . S
C852 C859 1.399 . S
C852 N877 1.318 1_455 S
C853 C854 1.384 . S
C853 C855 1.384 . S
C853 H872 0.931 . S
C854 C853 1.384 . S
C854 C857 1.382 1_655 S
C855 C853 1.384 . S
C855 C856 1.382 1_655 S
C855 H873 0.930 . S
C856 C855 1.382 1_455 S
C856 C858 1.380 . S
C856 C859 1.495 . S
C857 C854 1.382 1_455 S
C857 C858 1.387 . S
C857 H874 0.930 . S
C858 C856 1.380 . S
C858 C857 1.387 . S
C858 H875 0.931 . S
C859 C852 1.399 . S
C859 C856 1.495 . S
C859 N876 1.353 . S
H860 C832 0.931 . S
H861 C834 0.930 . S
H862 C836 0.930 . S
H863 C837 0.931 . S
H864 C839 0.931 . S
H865 C841 0.930 . S
H866 C843 0.930 . S
H867 C844 0.931 . S
H868 C846 0.931 . S
H869 C848 0.930 . S
H870 C850 0.930 . S
H871 C851 0.931 . S
H872 C853 0.931 . S
H873 C855 0.930 . S
H874 C857 0.930 . S
H875 C858 0.931 . S
N876 C838 1.318 1_455 S
N876 C859 1.353 . S
N877 C845 1.353 . S
N877 C852 1.318 1_655 S
C878 C879 1.384 . S
C878 C880 1.384 . S
C878 H906 0.931 . S
C879 C878 1.384 . S
C879 C882 1.382 . S
C880 C878 1.384 . S
C880 C881 1.381 . S
C880 H907 0.930 . S
C881 C880 1.381 . S
C881 C883 1.381 . S
C881 C884 1.487 . S
C882 C879 1.382 . S
C882 C883 1.387 . S
C882 H908 0.930 . S
C883 C881 1.381 . S
C883 C882 1.387 . S
C883 H909 0.931 . S
C884 C881 1.487 . S
C884 C891 1.399 . S
C884 N922 1.343 . S
C885 C886 1.384 . S
C885 C887 1.384 . S
C885 H910 0.931 . S
C886 C885 1.384 . S
C886 C889 1.382 . S
C887 C885 1.384 . S
C887 C888 1.381 . S
C887 H911 0.930 . S
C888 C887 1.381 . S
C888 C890 1.381 . S
C888 C891 1.487 . S
C889 C886 1.382 . S
C889 C890 1.387 . S
C889 H912 0.930 . S
C890 C888 1.381 . S
C890 C889 1.387 . S
C890 H913 0.931 . S
C891 C884 1.399 . S
C891 C888 1.487 . S
C891 N923 1.343 . S
C892 C893 1.384 . S
C892 C894 1.384 . S
C892 H914 0.931 . S
C893 C892 1.384 . S
C893 C896 1.382 . S
C894 C892 1.384 . S
C894 C895 1.381 . S
C894 H915 0.930 . S
C895 C894 1.381 . S
C895 C897 1.381 . S
C895 C898 1.487 . S
C896 C893 1.382 . S
C896 C897 1.387 . S
C896 H916 0.930 . S
C897 C895 1.381 . S
C897 C896 1.387 . S
C897 H917 0.931 . S
C898 C895 1.487 . S
C898 C905 1.399 . S
C898 N923 1.343 . S
C899 C900 1.384 . S
C899 C901 1.384 . S
C899 H918 0.931 . S
C900 C899 1.384 . S
C900 C903 1.382 . S
C901 C899 1.384 . S
C901 C902 1.381 . S
C901 H919 0.930 . S
C902 C901 1.381 . S
C902 C904 1.381 . S
C902 C905 1.487 . S
C903 C900 1.382 . S
C903 C904 1.387 . S
C903 H920 0.930 . S
C904 C902 1.381 . S
C904 C903 1.387 . S
C904 H921 0.931 . S
C905 C898 1.399 . S
C905 C902 1.487 . S
C905 N922 1.343 . S
H906 C878 0.931 . S
H907 C880 0.930 . S
H908 C882 0.930 . S
H909 C883 0.931 . S
H910 C885 0.931 . S
H911 C887 0.930 . S
H912 C889 0.930 . S
H913 C890 0.931 . S
H914 C892 0.931 . S
H915 C894 0.930 . S
H916 C896 0.930 . S
H917 C897 0.931 . S
H918 C899 0.931 . S
H919 C901 0.930 . S
H920 C903 0.930 . S
H921 C904 0.931 . S
N922 C884 1.343 . S
N922 C905 1.343 . S
N923 C891 1.343 . S
N923 C898 1.343 . S
C924 C925 1.384 . S
C924 C926 1.384 . S
C924 H952 0.931 . S
C925 C924 1.384 . S
C925 C928 1.382 . S
C926 C924 1.384 . S
C926 C927 1.381 . S
C926 H953 0.930 . S
C927 C926 1.381 . S
C927 C929 1.381 . S
C927 C930 1.487 . S
C928 C925 1.382 . S
C928 C929 1.387 . S
C928 H954 0.930 . S
C929 C927 1.381 . S
C929 C928 1.387 . S
C929 H955 0.931 . S
C930 C927 1.487 . S
C930 C937 1.399 . S
C930 N968 1.343 . S
C931 C932 1.384 . S
C931 C933 1.384 . S
C931 H956 0.931 . S
C932 C931 1.384 . S
C932 C935 1.382 . S
C933 C931 1.384 . S
C933 C934 1.381 . S
C933 H957 0.930 . S
C934 C933 1.381 . S
C934 C936 1.381 . S
C934 C937 1.487 . S
C935 C932 1.382 . S
C935 C936 1.387 . S
C935 H958 0.930 . S
C936 C934 1.381 . S
C936 C935 1.387 . S
C936 H959 0.931 . S
C937 C930 1.399 . S
C937 C934 1.487 . S
C937 N969 1.343 . S
C938 C939 1.384 . S
C938 C940 1.384 . S
C938 H960 0.931 . S
C939 C938 1.384 . S
C939 C942 1.382 . S
C940 C938 1.384 . S
C940 C941 1.381 . S
C940 H961 0.930 . S
C941 C940 1.381 . S
C941 C943 1.381 . S
C941 C944 1.487 . S
C942 C939 1.382 . S
C942 C943 1.387 . S
C942 H962 0.930 . S
C943 C941 1.381 . S
C943 C942 1.387 . S
C943 H963 0.931 . S
C944 C941 1.487 . S
C944 C951 1.399 . S
C944 N969 1.343 . S
C945 C946 1.384 . S
C945 C947 1.384 . S
C945 H964 0.931 . S
C946 C945 1.384 . S
C946 C949 1.382 . S
C947 C945 1.384 . S
C947 C948 1.381 . S
C947 H965 0.930 . S
C948 C947 1.381 . S
C948 C950 1.381 . S
C948 C951 1.487 . S
C949 C946 1.382 . S
C949 C950 1.387 . S
C949 H966 0.930 . S
C950 C948 1.381 . S
C950 C949 1.387 . S
C950 H967 0.931 . S
C951 C944 1.399 . S
C951 C948 1.487 . S
C951 N968 1.343 . S
H952 C924 0.931 . S
H953 C926 0.930 . S
H954 C928 0.930 . S
H955 C929 0.931 . S
H956 C931 0.931 . S
H957 C933 0.930 . S
H958 C935 0.930 . S
H959 C936 0.931 . S
H960 C938 0.931 . S
H961 C940 0.930 . S
H962 C942 0.930 . S
H963 C943 0.931 . S
H964 C945 0.931 . S
H965 C947 0.930 . S
H966 C949 0.930 . S
H967 C950 0.931 . S
N968 C930 1.343 . S
N968 C951 1.343 . S
N969 C937 1.343 . S
N969 C944 1.343 . S
C970 C971 1.384 . S
C970 C972 1.384 . S
C970 H998 0.931 . S
C971 C970 1.384 . S
C971 C974 1.382 . S
C972 C970 1.384 . S
C972 C973 1.381 . S
C972 H999 0.930 . S
C973 C972 1.381 . S
C973 C975 1.381 . S
C973 C976 1.487 . S
C974 C971 1.382 . S
C974 C975 1.387 . S
C974 H1000 0.930 . S
C975 C973 1.381 . S
C975 C974 1.387 . S
C975 H1001 0.931 . S
C976 C973 1.487 . S
C976 C983 1.399 . S
C976 N1014 1.343 . S
C977 C978 1.384 . S
C977 C979 1.384 . S
C977 H1002 0.931 . S
C978 C977 1.384 . S
C978 C981 1.382 . S
C979 C977 1.384 . S
C979 C980 1.381 . S
C979 H1003 0.930 . S
C980 C979 1.381 . S
C980 C982 1.381 . S
C980 C983 1.487 . S
C981 C978 1.382 . S
C981 C982 1.387 . S
C981 H1004 0.930 . S
C982 C980 1.381 . S
C982 C981 1.387 . S
C982 H1005 0.931 . S
C983 C976 1.399 . S
C983 C980 1.487 . S
C983 N1015 1.343 . S
C984 C985 1.384 . S
C984 C986 1.384 . S
C984 H1006 0.931 . S
C985 C984 1.384 . S
C985 C988 1.382 . S
C986 C984 1.384 . S
C986 C987 1.381 . S
C986 H1007 0.930 . S
C987 C986 1.381 . S
C987 C989 1.381 . S
C987 C990 1.487 . S
C988 C985 1.382 . S
C988 C989 1.387 . S
C988 H1008 0.930 . S
C989 C987 1.381 . S
C989 C988 1.387 . S
C989 H1009 0.931 . S
C990 C987 1.487 . S
C990 C997 1.399 . S
C990 N1015 1.343 . S
C991 C992 1.384 . S
C991 C993 1.384 . S
C991 H1010 0.931 . S
C992 C991 1.384 . S
C992 C995 1.382 . S
C993 C991 1.384 . S
C993 C994 1.381 . S
C993 H1011 0.930 . S
C994 C993 1.381 . S
C994 C996 1.381 . S
C994 C997 1.487 . S
C995 C992 1.382 . S
C995 C996 1.387 . S
C995 H1012 0.930 . S
C996 C994 1.381 . S
C996 C995 1.387 . S
C996 H1013 0.931 . S
C997 C990 1.399 . S
C997 C994 1.487 . S
C997 N1014 1.343 . S
H998 C970 0.931 . S
H999 C972 0.930 . S
H1000 C974 0.930 . S
H1001 C975 0.931 . S
H1002 C977 0.931 . S
H1003 C979 0.930 . S
H1004 C981 0.930 . S
H1005 C982 0.931 . S
H1006 C984 0.931 . S
H1007 C986 0.930 . S
H1008 C988 0.930 . S
H1009 C989 0.931 . S
H1010 C991 0.931 . S
H1011 C993 0.930 . S
H1012 C995 0.930 . S
H1013 C996 0.931 . S
N1014 C976 1.343 . S
N1014 C997 1.343 . S
N1015 C983 1.343 . S
N1015 C990 1.343 . S
C1016 C1017 1.384 . S
C1016 C1018 1.384 . S
C1016 H1044 0.931 . S
C1017 C1016 1.384 . S
C1017 C1020 1.382 . S
C1018 C1016 1.384 . S
C1018 C1019 1.381 . S
C1018 H1045 0.930 . S
C1019 C1018 1.381 . S
C1019 C1021 1.381 . S
C1019 C1022 1.487 . S
C1020 C1017 1.382 . S
C1020 C1021 1.387 . S
C1020 H1046 0.930 . S
C1021 C1019 1.381 . S
C1021 C1020 1.387 . S
C1021 H1047 0.931 . S
C1022 C1019 1.487 . S
C1022 C1029 1.399 . S
C1022 N1060 1.343 . S
C1023 C1024 1.384 . S
C1023 C1025 1.384 . S
C1023 H1048 0.931 . S
C1024 C1023 1.384 . S
C1024 C1027 1.382 . S
C1025 C1023 1.384 . S
C1025 C1026 1.381 . S
C1025 H1049 0.930 . S
C1026 C1025 1.381 . S
C1026 C1028 1.381 . S
C1026 C1029 1.487 . S
C1027 C1024 1.382 . S
C1027 C1028 1.387 . S
C1027 H1050 0.930 . S
C1028 C1026 1.381 . S
C1028 C1027 1.387 . S
C1028 H1051 0.931 . S
C1029 C1022 1.399 . S
C1029 C1026 1.487 . S
C1029 N1061 1.343 . S
C1030 C1031 1.384 . S
C1030 C1032 1.384 . S
C1030 H1052 0.931 . S
C1031 C1030 1.384 . S
C1031 C1034 1.382 . S
C1032 C1030 1.384 . S
C1032 C1033 1.381 . S
C1032 H1053 0.930 . S
C1033 C1032 1.381 . S
C1033 C1035 1.381 . S
C1033 C1036 1.487 . S
C1034 C1031 1.382 . S
C1034 C1035 1.387 . S
C1034 H1054 0.930 . S
C1035 C1033 1.381 . S
C1035 C1034 1.387 . S
C1035 H1055 0.931 . S
C1036 C1033 1.487 . S
C1036 C1043 1.399 . S
C1036 N1061 1.343 . S
C1037 C1038 1.384 . S
C1037 C1039 1.384 . S
C1037 H1056 0.931 . S
C1038 C1037 1.384 . S
C1038 C1041 1.382 . S
C1039 C1037 1.384 . S
C1039 C1040 1.381 . S
C1039 H1057 0.930 . S
C1040 C1039 1.381 . S
C1040 C1042 1.381 . S
C1040 C1043 1.487 . S
C1041 C1038 1.382 . S
C1041 C1042 1.387 . S
C1041 H1058 0.930 . S
C1042 C1040 1.381 . S
C1042 C1041 1.387 . S
C1042 H1059 0.931 . S
C1043 C1036 1.399 . S
C1043 C1040 1.487 . S
C1043 N1060 1.343 . S
H1044 C1016 0.931 . S
H1045 C1018 0.930 . S
H1046 C1020 0.930 . S
H1047 C1021 0.931 . S
H1048 C1023 0.931 . S
H1049 C1025 0.930 . S
H1050 C1027 0.930 . S
H1051 C1028 0.931 . S
H1052 C1030 0.931 . S
H1053 C1032 0.930 . S
H1054 C1034 0.930 . S
H1055 C1035 0.931 . S
H1056 C1037 0.931 . S
H1057 C1039 0.930 . S
H1058 C1041 0.930 . S
H1059 C1042 0.931 . S
N1060 C1022 1.343 . S
N1060 C1043 1.343 . S
N1061 C1029 1.343 . S
N1061 C1036 1.343 . S
H1062 C1070 0.929 . S
H1063 C1072 0.930 . S
H1064 C1074 0.930 . S
H1065 C1077 0.929 . S
H1066 C1080 0.930 . S
H1067 C1082 0.960 . S
H1068 C1082 0.960 . S
H1069 C1082 0.960 . S
C1070 H1062 0.929 . S
C1070 C1071 1.377 . S
C1070 C1072 1.384 . S
C1071 C1070 1.377 . S
C1071 C1077 1.390 1_655 S
C1072 H1063 0.930 . S
C1072 C1070 1.384 . S
C1072 C1073 1.372 . S
C1073 C1072 1.372 . S
C1073 C1074 1.400 1_655 S
C1073 C1078 1.490 . S
C1074 H1064 0.930 . S
C1074 C1073 1.400 1_455 S
C1074 C1077 1.386 . S
H1075 C1091 0.930 . S
H1076 C1092 0.931 . S
C1077 H1065 0.929 . S
C1077 C1071 1.390 1_455 S
C1077 C1074 1.386 . S
C1078 C1073 1.490 . S
C1078 C1080 1.395 . S
C1078 C1081 1.403 1_655 S
H1079 C1085 0.930 . S
C1080 H1066 0.930 . S
C1080 C1078 1.395 . S
C1080 C1083 1.403 . S
C1081 C1078 1.403 1_455 S
C1081 C1082 1.524 . S
C1081 C1085 1.400 . S
C1082 H1067 0.960 . S
C1082 H1068 0.960 . S
C1082 H1069 0.960 . S
C1082 C1081 1.524 . S
C1083 C1080 1.403 . S
C1083 C1084 1.392 . S
C1083 C1087 1.495 . S
C1084 C1083 1.392 . S
C1084 C1085 1.385 1_655 S
C1084 C1086 1.478 . S
C1085 H1079 0.930 . S
C1085 C1081 1.400 . S
C1085 C1084 1.385 1_455 S
C1086 C1084 1.478 . S
C1086 C1088 1.381 . S
C1086 C1092 1.383 1_655 S
C1087 C1083 1.495 . S
C1087 H1093 0.959 . S
C1087 H1094 0.961 . S
C1087 H1095 0.960 . S
C1088 C1086 1.381 . S
C1088 C1089 1.394 . S
C1088 H1096 0.930 . S
C1089 C1088 1.394 . S
C1089 C1090 1.383 . S
C1089 H1097 0.929 . S
C1090 C1089 1.383 . S
C1090 C1091 1.377 1_655 S
C1091 H1075 0.930 . S
C1091 C1090 1.377 1_455 S
C1091 C1092 1.379 . S
C1092 H1076 0.931 . S
C1092 C1086 1.383 1_455 S
C1092 C1091 1.379 . S
H1093 C1087 0.959 . S
H1094 C1087 0.961 . S
H1095 C1087 0.960 . S
H1096 C1088 0.930 . S
H1097 C1089 0.929 . S
H1098 C1106 0.929 . S
H1099 C1108 0.930 . S
H1100 C1110 0.930 . S
H1101 C1113 0.929 . S
H1102 C1116 0.930 . S
H1103 C1118 0.960 . S
H1104 C1118 0.960 . S
H1105 C1118 0.960 . S
C1106 H1098 0.929 . S
C1106 C1107 1.377 . S
C1106 C1108 1.384 . S
C1107 C1106 1.377 . S
C1107 C1113 1.390 . S
C1108 H1099 0.930 . S
C1108 C1106 1.384 . S
C1108 C1109 1.372 . S
C1109 C1108 1.372 . S
C1109 C1110 1.400 . S
C1109 C1114 1.490 . S
C1110 H1100 0.930 . S
C1110 C1109 1.400 . S
C1110 C1113 1.386 . S
H1111 C1127 0.930 . S
H1112 C1128 0.931 . S
C1113 H1101 0.929 . S
C1113 C1107 1.390 . S
C1113 C1110 1.386 . S
C1114 C1109 1.490 . S
C1114 C1116 1.395 . S
C1114 C1117 1.403 . S
H1115 C1121 0.930 . S
C1116 H1102 0.930 . S
C1116 C1114 1.395 . S
C1116 C1119 1.403 . S
C1117 C1114 1.403 . S
C1117 C1118 1.524 . S
C1117 C1121 1.400 . S
C1118 H1103 0.960 . S
C1118 H1104 0.960 . S
C1118 H1105 0.960 . S
C1118 C1117 1.524 . S
C1119 C1116 1.403 . S
C1119 C1120 1.392 . S
C1119 C1123 1.495 . S
C1120 C1119 1.392 . S
C1120 C1121 1.385 . S
C1120 C1122 1.478 . S
C1121 H1115 0.930 . S
C1121 C1117 1.400 . S
C1121 C1120 1.385 . S
C1122 C1120 1.478 . S
C1122 C1124 1.381 . S
C1122 C1128 1.383 . S
C1123 C1119 1.495 . S
C1123 H1129 0.959 . S
C1123 H1130 0.961 . S
C1123 H1131 0.960 . S
C1124 C1122 1.381 . S
C1124 C1125 1.394 . S
C1124 H1132 0.930 . S
C1125 C1124 1.394 . S
C1125 C1126 1.383 . S
C1125 H1133 0.929 . S
C1126 C1125 1.383 . S
C1126 C1127 1.377 . S
C1127 H1111 0.930 . S
C1127 C1126 1.377 . S
C1127 C1128 1.379 . S
C1128 H1112 0.931 . S
C1128 C1122 1.383 . S
C1128 C1127 1.379 . S
H1129 C1123 0.959 . S
H1130 C1123 0.961 . S
H1131 C1123 0.960 . S
H1132 C1124 0.930 . S
H1133 C1125 0.929 . S
H1134 C1142 0.929 . S
H1135 C1144 0.930 . S
H1136 C1146 0.930 . S
H1137 C1149 0.929 . S
H1138 C1152 0.930 . S
H1139 C1154 0.960 . S
H1140 C1154 0.960 . S
H1141 C1154 0.960 . S
C1142 H1134 0.929 . S
C1142 C1143 1.377 . S
C1142 C1144 1.384 . S
C1143 C1142 1.377 . S
C1143 C1149 1.390 . S
C1144 H1135 0.930 . S
C1144 C1142 1.384 . S
C1144 C1145 1.372 . S
C1145 C1144 1.372 . S
C1145 C1146 1.400 . S
C1145 C1150 1.490 . S
C1146 H1136 0.930 . S
C1146 C1145 1.400 . S
C1146 C1149 1.386 . S
H1147 C1163 0.930 . S
H1148 C1164 0.931 . S
C1149 H1137 0.929 . S
C1149 C1143 1.390 . S
C1149 C1146 1.386 . S
C1150 C1145 1.490 . S
C1150 C1152 1.395 . S
C1150 C1153 1.403 . S
H1151 C1157 0.930 . S
C1152 H1138 0.930 . S
C1152 C1150 1.395 . S
C1152 C1155 1.403 . S
C1153 C1150 1.403 . S
C1153 C1154 1.524 . S
C1153 C1157 1.400 . S
C1154 H1139 0.960 . S
C1154 H1140 0.960 . S
C1154 H1141 0.960 . S
C1154 C1153 1.524 . S
C1155 C1152 1.403 . S
C1155 C1156 1.392 . S
C1155 C1159 1.495 1_545 S
C1156 C1155 1.392 . S
C1156 C1157 1.385 . S
C1156 C1158 1.478 . S
C1157 H1151 0.930 . S
C1157 C1153 1.400 . S
C1157 C1156 1.385 . S
C1158 C1156 1.478 . S
C1158 C1160 1.381 . S
C1158 C1164 1.383 1_545 S
C1159 C1155 1.495 1_565 S
C1159 H1165 0.959 . S
C1159 H1166 0.961 . S
C1159 H1167 0.960 1_565 S
C1160 C1158 1.381 . S
C1160 C1161 1.394 . S
C1160 H1168 0.930 . S
C1161 C1160 1.394 . S
C1161 C1162 1.383 . S
C1161 H1169 0.929 . S
C1162 C1161 1.383 . S
C1162 C1163 1.377 1_545 S
C1163 H1147 0.930 . S
C1163 C1162 1.377 1_565 S
C1163 C1164 1.379 . S
C1164 H1148 0.931 . S
C1164 C1158 1.383 1_565 S
C1164 C1163 1.379 . S
H1165 C1159 0.959 . S
H1166 C1159 0.961 . S
H1167 C1159 0.960 1_545 S
H1168 C1160 0.930 . S
H1169 C1161 0.929 . S
H1170 C1178 0.929 . S
H1171 C1180 0.930 . S
H1172 C1182 0.930 . S
H1173 C1185 0.929 . S
H1174 C1188 0.930 . S
H1175 C1190 0.960 . S
H1176 C1190 0.960 . S
H1177 C1190 0.960 . S
C1178 H1170 0.929 . S
C1178 C1179 1.376 1_565 S
C1178 C1180 1.384 . S
C1179 C1178 1.376 1_545 S
C1179 C1185 1.389 . S
C1180 H1171 0.930 . S
C1180 C1178 1.384 . S
C1180 C1181 1.365 . S
C1181 C1180 1.365 . S
C1181 C1182 1.388 1_565 S
C1181 C1186 1.492 . S
C1182 H1172 0.930 . S
C1182 C1181 1.388 1_545 S
C1182 C1185 1.386 . S
H1183 C1199 0.930 . S
H1184 C1200 0.931 . S
C1185 H1173 0.929 . S
C1185 C1179 1.389 . S
C1185 C1182 1.386 . S
C1186 C1181 1.492 . S
C1186 C1188 1.370 1_565 S
C1186 C1189 1.446 . S
H1187 C1193 0.930 . S
C1188 H1174 0.930 . S
C1188 C1186 1.370 1_545 S
C1188 C1191 1.403 . S
C1189 C1186 1.446 . S
C1189 C1190 1.524 . S
C1189 C1193 1.400 . S
C1190 H1175 0.960 . S
C1190 H1176 0.960 . S
C1190 H1177 0.960 . S
C1190 C1189 1.524 . S
C1191 C1188 1.403 . S
C1191 C1192 1.422 . S
C1191 C1195 1.495 . S
C1192 C1191 1.422 . S
C1192 C1193 1.368 1_545 S
C1192 C1194 1.482 . S
C1193 H1187 0.930 . S
C1193 C1189 1.400 . S
C1193 C1192 1.368 1_565 S
C1194 C1192 1.482 . S
C1194 C1196 1.365 1_545 S
C1194 C1200 1.380 . S
C1195 C1191 1.495 . S
C1195 H1201 0.959 . S
C1195 H1202 0.961 . S
C1195 H1203 0.960 . S
C1196 C1194 1.365 1_565 S
C1196 C1197 1.394 . S
C1196 H1204 0.930 . S
C1197 C1196 1.394 . S
C1197 C1198 1.380 . S
C1197 H1205 0.929 . S
C1198 C1197 1.380 . S
C1198 C1199 1.349 1_565 S
C1199 H1183 0.930 . S
C1199 C1198 1.349 1_545 S
C1199 C1200 1.379 . S
C1200 H1184 0.931 . S
C1200 C1194 1.380 . S
C1200 C1199 1.379 . S
H1201 C1195 0.959 . S
H1202 C1195 0.961 . S
H1203 C1195 0.960 . S
H1204 C1196 0.930 . S
H1205 C1197 0.929 . S
H1206 C1214 0.981 . S
H1207 C1216 0.930 . S
H1208 C1218 0.930 . S
H1209 C1221 0.929 . S
H1210 C1224 0.930 . S
H1211 C1226 0.960 . S
H1212 C1226 0.960 . S
H1213 C1226 0.960 . S
C1214 H1206 0.981 . S
C1214 C1215 1.288 1_655 S
C1214 C1216 1.428 . S
C1215 C1214 1.288 1_455 S
C1215 C1221 1.390 . S
C1216 H1207 0.930 . S
C1216 C1214 1.428 . S
C1216 C1217 1.372 1_655 S
C1217 C1216 1.372 1_455 S
C1217 C1218 1.400 . S
C1217 C1222 1.490 . S
C1218 H1208 0.930 . S
C1218 C1217 1.400 . S
C1218 C1221 1.386 . S
H1219 C1235 0.930 . S
H1220 C1236 0.931 . S
C1221 H1209 0.929 . S
C1221 C1215 1.390 . S
C1221 C1218 1.386 . S
C1222 C1217 1.490 . S
C1222 C1224 1.395 . S
C1222 C1225 1.403 . S
H1223 C1229 0.930 . S
C1224 H1210 0.930 . S
C1224 C1222 1.395 . S
C1224 C1227 1.403 . S
C1225 C1222 1.403 . S
C1225 C1226 1.524 . S
C1225 C1229 1.400 . S
C1226 H1211 0.960 . S
C1226 H1212 0.960 . S
C1226 H1213 0.960 . S
C1226 C1225 1.524 . S
C1227 C1224 1.403 . S
C1227 C1228 1.392 . S
C1227 C1231 1.495 . S
C1228 C1227 1.392 . S
C1228 C1229 1.385 . S
C1228 C1230 1.478 . S
C1229 H1223 0.930 . S
C1229 C1225 1.400 . S
C1229 C1228 1.385 . S
C1230 C1228 1.478 . S
C1230 C1232 1.381 1_455 S
C1230 C1236 1.383 . S
C1231 C1227 1.495 . S
C1231 H1237 0.959 . S
C1231 H1238 0.961 . S
C1231 H1239 0.960 1_455 S
C1232 C1230 1.381 1_655 S
C1232 C1233 1.394 . S
C1232 H1240 0.930 . S
C1233 C1232 1.394 . S
C1233 C1234 1.383 1_655 S
C1233 H1241 0.929 . S
C1234 C1233 1.383 1_455 S
C1234 C1235 1.377 . S
C1235 H1219 0.930 . S
C1235 C1234 1.377 . S
C1235 C1236 1.379 . S
C1236 H1220 0.931 . S
C1236 C1230 1.383 . S
C1236 C1235 1.379 . S
H1237 C1231 0.959 . S
H1238 C1231 0.961 . S
H1239 C1231 0.960 1_655 S
H1240 C1232 0.930 . S
H1241 C1233 0.929 . S
H1242 C1250 0.929 . S
H1243 C1252 0.930 . S
H1244 C1254 0.930 . S
H1245 C1257 0.929 . S
H1246 C1260 0.930 . S
H1247 C1262 0.960 . S
H1248 C1262 0.960 . S
H1249 C1262 0.960 . S
C1250 H1242 0.929 . S
C1250 C1251 1.377 . S
C1250 C1252 1.384 . S
C1251 C1250 1.377 . S
C1251 C1257 1.390 . S
C1252 H1243 0.930 . S
C1252 C1250 1.384 . S
C1252 C1253 1.372 . S
C1253 C1252 1.372 . S
C1253 C1254 1.400 . S
C1253 C1258 1.490 . S
C1254 H1244 0.930 . S
C1254 C1253 1.400 . S
C1254 C1257 1.386 . S
H1255 C1271 0.930 . S
H1256 C1272 0.931 . S
C1257 H1245 0.929 . S
C1257 C1251 1.390 . S
C1257 C1254 1.386 . S
C1258 C1253 1.490 . S
C1258 C1260 1.395 . S
C1258 C1261 1.403 . S
H1259 C1265 0.930 . S
C1260 H1246 0.930 . S
C1260 C1258 1.395 . S
C1260 C1263 1.403 . S
C1261 C1258 1.403 . S
C1261 C1262 1.524 . S
C1261 C1265 1.400 . S
C1262 H1247 0.960 . S
C1262 H1248 0.960 . S
C1262 H1249 0.960 . S
C1262 C1261 1.524 . S
C1263 C1260 1.403 . S
C1263 C1264 1.392 . S
C1263 C1267 1.495 . S
C1264 C1263 1.392 . S
C1264 C1265 1.385 . S
C1264 C1266 1.478 . S
C1265 H1259 0.930 . S
C1265 C1261 1.400 . S
C1265 C1264 1.385 . S
C1266 C1264 1.478 . S
C1266 C1268 1.381 . S
C1266 C1272 1.383 . S
C1267 C1263 1.495 . S
C1267 H1273 0.959 . S
C1267 H1274 0.961 . S
C1267 H1275 0.960 . S
C1268 C1266 1.381 . S
C1268 C1269 1.394 . S
C1268 H1276 0.930 . S
C1269 C1268 1.394 . S
C1269 C1270 1.383 . S
C1269 H1277 0.929 . S
C1270 C1269 1.383 . S
C1270 C1271 1.377 . S
C1271 H1255 0.930 . S
C1271 C1270 1.377 . S
C1271 C1272 1.379 . S
C1272 H1256 0.931 . S
C1272 C1266 1.383 . S
C1272 C1271 1.379 . S
H1273 C1267 0.959 . S
H1274 C1267 0.961 . S
H1275 C1267 0.960 . S
H1276 C1268 0.930 . S
H1277 C1269 0.929 . S
H1278 C1286 0.929 . S
H1279 C1288 0.930 . S
H1280 C1290 0.930 . S
H1281 C1293 0.929 . S
H1282 C1296 0.963 . S
H1283 C1298 0.960 . S
H1284 C1298 0.960 . S
H1285 C1298 0.960 . S
C1286 H1278 0.929 . S
C1286 C1287 1.377 1_655 S
C1286 C1288 1.384 . S
C1287 C1286 1.377 1_455 S
C1287 C1293 1.390 . S
C1288 H1279 0.930 . S
C1288 C1286 1.384 . S
C1288 C1289 1.372 1_655 S
C1289 C1288 1.372 1_455 S
C1289 C1290 1.400 . S
C1289 C1294 1.490 . S
C1290 H1280 0.930 . S
C1290 C1289 1.400 . S
C1290 C1293 1.386 . S
H1291 C1307 0.930 . S
H1292 C1308 0.931 . S
C1293 H1281 0.929 . S
C1293 C1287 1.390 . S
C1293 C1290 1.386 . S
C1294 C1289 1.490 . S
C1294 C1296 1.376 1_455 S
C1294 C1297 1.403 . S
H1295 C1301 0.930 . S
C1296 H1282 0.963 . S
C1296 C1294 1.376 1_655 S
C1296 C1299 1.391 . S
C1297 C1294 1.403 . S
C1297 C1298 1.524 . S
C1297 C1301 1.400 . S
C1298 H1283 0.960 . S
C1298 H1284 0.960 . S
C1298 H1285 0.960 . S
C1298 C1297 1.524 . S
C1299 C1296 1.391 . S
C1299 C1300 1.392 1_655 S
C1299 C1303 1.495 . S
C1300 C1299 1.392 1_455 S
C1300 C1301 1.385 . S
C1300 C1302 1.478 . S
C1301 H1295 0.930 . S
C1301 C1297 1.400 . S
C1301 C1300 1.385 . S
C1302 C1300 1.478 . S
C1302 C1304 1.381 1_455 S
C1302 C1308 1.383 . S
C1303 C1299 1.495 . S
C1303 H1309 0.959 . S
C1303 H1310 0.969 1_655 S
C1303 H1311 0.960 . S
C1304 C1302 1.381 1_655 S
C1304 C1305 1.394 . S
C1304 H1312 0.930 . S
C1305 C1304 1.394 . S
C1305 C1306 1.383 1_655 S
C1305 H1313 0.929 . S
C1306 C1305 1.383 1_455 S
C1306 C1307 1.377 . S
C1307 H1291 0.930 . S
C1307 C1306 1.377 . S
C1307 C1308 1.379 . S
C1308 H1292 0.931 . S
C1308 C1302 1.383 . S
C1308 C1307 1.379 . S
H1309 C1303 0.959 . S
H1310 C1303 0.969 1_455 S
H1311 C1303 0.960 . S
H1312 C1304 0.930 . S
H1313 C1305 0.929 . S
H1314 C1322 0.929 . S
H1315 C1324 0.930 . S
H1316 C1326 0.930 . S
H1317 C1329 0.929 . S
H1318 C1332 0.930 . S
H1319 C1334 0.960 . S
H1320 C1334 0.960 . S
H1321 C1334 0.960 . S
C1322 H1314 0.929 . S
C1322 C1323 1.377 . S
C1322 C1324 1.384 . S
C1323 C1322 1.377 . S
C1323 C1329 1.390 . S
C1324 H1315 0.930 . S
C1324 C1322 1.384 . S
C1324 C1325 1.372 . S
C1325 C1324 1.372 . S
C1325 C1326 1.400 . S
C1325 C1330 1.490 . S
C1326 H1316 0.930 . S
C1326 C1325 1.400 . S
C1326 C1329 1.386 . S
H1327 C1343 0.930 . S
H1328 C1344 0.931 . S
C1329 H1317 0.929 . S
C1329 C1323 1.390 . S
C1329 C1326 1.386 . S
C1330 C1325 1.490 . S
C1330 C1332 1.395 . S
C1330 C1333 1.403 . S
H1331 C1337 0.930 . S
C1332 H1318 0.930 . S
C1332 C1330 1.395 . S
C1332 C1335 1.403 . S
C1333 C1330 1.403 . S
C1333 C1334 1.524 . S
C1333 C1337 1.400 . S
C1334 H1319 0.960 . S
C1334 H1320 0.960 . S
C1334 H1321 0.960 . S
C1334 C1333 1.524 . S
C1335 C1332 1.403 . S
C1335 C1336 1.392 . S
C1335 C1339 1.495 . S
C1336 C1335 1.392 . S
C1336 C1337 1.385 . S
C1336 C1338 1.478 . S
C1337 H1331 0.930 . S
C1337 C1333 1.400 . S
C1337 C1336 1.385 . S
C1338 C1336 1.478 . S
C1338 C1340 1.381 . S
C1338 C1344 1.383 . S
C1339 C1335 1.495 . S
C1339 H1345 0.959 . S
C1339 H1346 0.961 . S
C1339 H1347 0.960 . S
C1340 C1338 1.381 . S
C1340 C1341 1.394 . S
C1340 H1348 0.930 . S
C1341 C1340 1.394 . S
C1341 C1342 1.383 . S
C1341 H1349 0.929 . S
C1342 C1341 1.383 . S
C1342 C1343 1.377 . S
C1343 H1327 0.930 . S
C1343 C1342 1.377 . S
C1343 C1344 1.379 . S
C1344 H1328 0.931 . S
C1344 C1338 1.383 . S
C1344 C1343 1.379 . S
H1345 C1339 0.959 . S
H1346 C1339 0.961 . S
H1347 C1339 0.960 . S
H1348 C1340 0.930 . S
H1349 C1341 0.929 . S
H1350 C1358 0.929 . S
H1351 C1360 0.930 . S
H1352 C1362 0.930 1_545 S
H1353 C1365 0.929 1_545 S
H1354 C1368 0.950 . S
H1355 C1370 0.960 . S
H1356 C1370 0.960 . S
H1357 C1370 0.960 . S
C1358 H1350 0.929 . S
C1358 C1359 1.377 . S
C1358 C1360 1.384 . S
C1359 C1358 1.377 . S
C1359 C1365 1.390 . S
C1360 H1351 0.930 . S
C1360 C1358 1.384 . S
C1360 C1361 1.372 . S
C1361 C1360 1.372 . S
C1361 C1362 1.400 . S
C1361 C1366 1.490 . S
C1362 H1352 0.930 1_565 S
C1362 C1361 1.400 . S
C1362 C1365 1.386 . S
H1363 C1379 0.930 . S
H1364 C1380 0.931 . S
C1365 H1353 0.929 1_565 S
C1365 C1359 1.390 . S
C1365 C1362 1.386 . S
C1366 C1361 1.490 . S
C1366 C1368 1.346 1_565 S
C1366 C1369 1.403 . S
H1367 C1373 0.930 . S
C1368 H1354 0.950 . S
C1368 C1366 1.346 1_545 S
C1368 C1371 1.435 . S
C1369 C1366 1.403 . S
C1369 C1370 1.524 . S
C1369 C1373 1.400 . S
C1370 H1355 0.960 . S
C1370 H1356 0.960 . S
C1370 H1357 0.960 . S
C1370 C1369 1.524 . S
C1371 C1368 1.435 . S
C1371 C1372 1.392 1_545 S
C1371 C1375 1.495 . S
C1372 C1371 1.392 1_565 S
C1372 C1373 1.385 . S
C1372 C1374 1.478 . S
C1373 H1367 0.930 . S
C1373 C1369 1.400 . S
C1373 C1372 1.385 . S
C1374 C1372 1.478 . S
C1374 C1376 1.381 . S
C1374 C1380 1.383 1_565 S
C1375 C1371 1.495 . S
C1375 H1381 0.959 . S
C1375 H1382 0.961 . S
C1375 H1383 0.960 . S
C1376 C1374 1.381 . S
C1376 C1377 1.394 . S
C1376 H1384 0.930 . S
C1377 C1376 1.394 . S
C1377 C1378 1.383 . S
C1377 H1385 0.929 . S
C1378 C1377 1.383 . S
C1378 C1379 1.377 1_565 S
C1379 H1363 0.930 . S
C1379 C1378 1.377 1_545 S
C1379 C1380 1.379 . S
C1380 H1364 0.931 . S
C1380 C1374 1.383 1_545 S
C1380 C1379 1.379 . S
H1381 C1375 0.959 . S
H1382 C1375 0.961 . S
H1383 C1375 0.960 . S
H1384 C1376 0.930 . S
H1385 C1377 0.929 . S
H1386 C1394 0.929 . S
H1387 C1396 0.930 . S
H1388 C1398 0.930 . S
H1389 C1401 0.929 . S
H1390 C1404 0.930 . S
H1391 C1406 0.960 . S
H1392 C1406 0.960 1_565 S
H1393 C1406 0.960 . S
C1394 H1386 0.929 . S
C1394 C1395 1.377 1_565 S
C1394 C1396 1.384 . S
C1395 C1394 1.377 1_545 S
C1395 C1401 1.390 . S
C1396 H1387 0.930 . S
C1396 C1394 1.384 . S
C1396 C1397 1.372 1_565 S
C1397 C1396 1.372 1_545 S
C1397 C1398 1.400 . S
C1397 C1402 1.490 . S
C1398 H1388 0.930 . S
C1398 C1397 1.400 . S
C1398 C1401 1.386 . S
H1399 C1415 0.930 . S
H1400 C1416 0.931 . S
C1401 H1389 0.929 . S
C1401 C1395 1.390 . S
C1401 C1398 1.386 . S
C1402 C1397 1.490 . S
C1402 C1404 1.395 . S
C1402 C1405 1.403 . S
H1403 C1409 0.930 . S
C1404 H1390 0.930 . S
C1404 C1402 1.395 . S
C1404 C1407 1.403 . S
C1405 C1402 1.403 . S
C1405 C1406 1.524 . S
C1405 C1409 1.400 . S
C1406 H1391 0.960 . S
C1406 H1392 0.960 1_545 S
C1406 H1393 0.960 . S
C1406 C1405 1.524 . S
C1407 C1404 1.403 . S
C1407 C1408 1.392 . S
C1407 C1411 1.495 . S
C1408 C1407 1.392 . S
C1408 C1409 1.385 . S
C1408 C1410 1.478 . S
C1409 H1403 0.930 . S
C1409 C1405 1.400 . S
C1409 C1408 1.385 . S
C1410 C1408 1.478 . S
C1410 C1412 1.381 1_545 S
C1410 C1416 1.383 . S
C1411 C1407 1.495 . S
C1411 H1417 0.959 . S
C1411 H1418 0.961 . S
C1411 H1419 0.960 1_545 S
C1412 C1410 1.381 1_565 S
C1412 C1413 1.394 . S
C1412 H1420 0.930 . S
C1413 C1412 1.394 . S
C1413 C1414 1.383 1_565 S
C1413 H1421 0.929 . S
C1414 C1413 1.383 1_545 S
C1414 C1415 1.377 . S
C1415 H1399 0.930 . S
C1415 C1414 1.377 . S
C1415 C1416 1.379 . S
C1416 H1400 0.931 . S
C1416 C1410 1.383 . S
C1416 C1415 1.379 . S
H1417 C1411 0.959 . S
H1418 C1411 0.961 . S
H1419 C1411 0.960 1_565 S
H1420 C1412 0.930 . S
H1421 C1413 0.929 . S
H1422 C1430 0.929 . S
H1423 C1432 0.930 . S
H1424 C1434 0.930 . S
H1425 C1437 0.929 . S
H1426 C1440 0.942 1_455 S
H1427 C1442 0.960 . S
H1428 C1442 0.960 . S
H1429 C1442 0.960 . S
C1430 H1422 0.929 . S
C1430 C1431 1.377 1_455 S
C1430 C1432 1.384 . S
C1431 C1430 1.377 1_655 S
C1431 C1437 1.390 . S
C1432 H1423 0.930 . S
C1432 C1430 1.384 . S
C1432 C1433 1.372 1_455 S
C1433 C1432 1.372 1_655 S
C1433 C1434 1.400 . S
C1433 C1438 1.490 . S
C1434 H1424 0.930 . S
C1434 C1433 1.400 . S
C1434 C1437 1.386 . S
H1435 C1451 0.930 . S
H1436 C1452 0.931 . S
C1437 H1425 0.929 . S
C1437 C1431 1.390 . S
C1437 C1434 1.386 . S
C1438 C1433 1.490 . S
C1438 C1440 1.395 . S
C1438 C1441 1.403 . S
H1439 C1445 0.930 . S
C1440 H1426 0.942 1_655 S
C1440 C1438 1.395 . S
C1440 C1443 1.444 . S
C1441 C1438 1.403 . S
C1441 C1442 1.524 . S
C1441 C1445 1.400 . S
C1442 H1427 0.960 . S
C1442 H1428 0.960 . S
C1442 H1429 0.960 . S
C1442 C1441 1.524 . S
C1443 C1440 1.444 . S
C1443 C1444 1.364 . S
C1443 C1447 1.494 1_655 S
C1444 C1443 1.364 . S
C1444 C1445 1.385 . S
C1444 C1446 1.478 . S
C1445 H1439 0.930 . S
C1445 C1441 1.400 . S
C1445 C1444 1.385 . S
C1446 C1444 1.478 . S
C1446 C1448 1.381 1_655 S
C1446 C1452 1.383 . S
C1447 C1443 1.494 1_455 S
C1447 H1453 0.959 . S
C1447 H1454 0.961 1_455 S
C1447 H1455 0.960 . S
C1448 C1446 1.381 1_455 S
C1448 C1449 1.394 . S
C1448 H1456 0.930 . S
C1449 C1448 1.394 . S
C1449 C1450 1.383 1_455 S
C1449 H1457 0.929 . S
C1450 C1449 1.383 1_655 S
C1450 C1451 1.377 . S
C1451 H1435 0.930 . S
C1451 C1450 1.377 . S
C1451 C1452 1.379 . S
C1452 H1436 0.931 . S
C1452 C1446 1.383 . S
C1452 C1451 1.379 . S
H1453 C1447 0.959 . S
H1454 C1447 0.961 1_655 S
H1455 C1447 0.960 . S
H1456 C1448 0.930 . S
H1457 C1449 0.929 . S
H1458 C1466 0.929 . S
H1459 C1468 0.930 . S
H1460 C1470 0.930 . S
H1461 C1473 0.929 . S
H1462 C1476 0.930 . S
H1463 C1478 0.960 . S
H1464 C1478 0.960 . S
H1465 C1478 0.960 . S
C1466 H1458 0.929 . S
C1466 C1467 1.377 . S
C1466 C1468 1.384 . S
C1467 C1466 1.377 . S
C1467 C1473 1.390 . S
C1468 H1459 0.930 . S
C1468 C1466 1.384 . S
C1468 C1469 1.372 . S
C1469 C1468 1.372 . S
C1469 C1470 1.400 . S
C1469 C1474 1.490 . S
C1470 H1460 0.930 . S
C1470 C1469 1.400 . S
C1470 C1473 1.386 . S
H1471 C1487 0.930 . S
H1472 C1488 0.931 . S
C1473 H1461 0.929 . S
C1473 C1467 1.390 . S
C1473 C1470 1.386 . S
C1474 C1469 1.490 . S
C1474 C1476 1.395 . S
C1474 C1477 1.403 . S
H1475 C1481 0.930 . S
C1476 H1462 0.930 . S
C1476 C1474 1.395 . S
C1476 C1479 1.403 . S
C1477 C1474 1.403 . S
C1477 C1478 1.524 . S
C1477 C1481 1.400 . S
C1478 H1463 0.960 . S
C1478 H1464 0.960 . S
C1478 H1465 0.960 . S
C1478 C1477 1.524 . S
C1479 C1476 1.403 . S
C1479 C1480 1.392 . S
C1479 C1483 1.495 . S
C1480 C1479 1.392 . S
C1480 C1481 1.385 . S
C1480 C1482 1.478 . S
C1481 H1475 0.930 . S
C1481 C1477 1.400 . S
C1481 C1480 1.385 . S
C1482 C1480 1.478 . S
C1482 C1484 1.381 . S
C1482 C1488 1.383 . S
C1483 C1479 1.495 . S
C1483 H1489 0.959 . S
C1483 H1490 0.961 . S
C1483 H1491 0.960 . S
C1484 C1482 1.381 . S
C1484 C1485 1.394 . S
C1484 H1492 0.930 . S
C1485 C1484 1.394 . S
C1485 C1486 1.383 . S
C1485 H1493 0.929 . S
C1486 C1485 1.383 . S
C1486 C1487 1.377 . S
C1487 H1471 0.930 . S
C1487 C1486 1.377 . S
C1487 C1488 1.379 . S
C1488 H1472 0.931 . S
C1488 C1482 1.383 . S
C1488 C1487 1.379 . S
H1489 C1483 0.959 . S
H1490 C1483 0.961 . S
H1491 C1483 0.960 . S
H1492 C1484 0.930 . S
H1493 C1485 0.929 . S
H1494 C1502 0.929 . S
H1495 C1504 0.930 . S
H1496 C1506 0.930 . S
H1497 C1509 0.929 . S
H1498 C1512 0.930 . S
H1499 C1514 0.960 . S
H1500 C1514 0.960 . S
H1501 C1514 0.960 . S
C1502 H1494 0.929 . S
C1502 C1503 1.377 . S
C1502 C1504 1.384 . S
C1503 C1502 1.377 . S
C1503 C1509 1.390 . S
C1504 H1495 0.930 . S
C1504 C1502 1.384 . S
C1504 C1505 1.372 . S
C1505 C1504 1.372 . S
C1505 C1506 1.400 . S
C1505 C1510 1.490 . S
C1506 H1496 0.930 . S
C1506 C1505 1.400 . S
C1506 C1509 1.386 . S
H1507 C1523 0.930 . S
H1508 C1524 0.931 . S
C1509 H1497 0.929 . S
C1509 C1503 1.390 . S
C1509 C1506 1.386 . S
C1510 C1505 1.490 . S
C1510 C1512 1.395 . S
C1510 C1513 1.403 . S
H1511 C1517 0.930 . S
C1512 H1498 0.930 . S
C1512 C1510 1.395 . S
C1512 C1515 1.403 . S
C1513 C1510 1.403 . S
C1513 C1514 1.524 . S
C1513 C1517 1.400 . S
C1514 H1499 0.960 . S
C1514 H1500 0.960 . S
C1514 H1501 0.960 . S
C1514 C1513 1.524 . S
C1515 C1512 1.403 . S
C1515 C1516 1.392 . S
C1515 C1519 1.495 . S
C1516 C1515 1.392 . S
C1516 C1517 1.385 . S
C1516 C1518 1.478 . S
C1517 H1511 0.930 . S
C1517 C1513 1.400 . S
C1517 C1516 1.385 . S
C1518 C1516 1.478 . S
C1518 C1520 1.381 . S
C1518 C1524 1.383 . S
C1519 C1515 1.495 . S
C1519 H1525 0.959 . S
C1519 H1526 0.961 . S
C1519 H1527 0.960 . S
C1520 C1518 1.381 . S
C1520 C1521 1.394 . S
C1520 H1528 0.930 . S
C1521 C1520 1.394 . S
C1521 C1522 1.383 . S
C1521 H1529 0.929 . S
C1522 C1521 1.383 . S
C1522 C1523 1.377 . S
C1523 H1507 0.930 . S
C1523 C1522 1.377 . S
C1523 C1524 1.379 . S
C1524 H1508 0.931 . S
C1524 C1518 1.383 . S
C1524 C1523 1.379 . S
H1525 C1519 0.959 . S
H1526 C1519 0.961 . S
H1527 C1519 0.960 . S
H1528 C1520 0.930 . S
H1529 C1521 0.929 . S
H1530 C1538 0.929 . S
H1531 C1540 0.930 . S
H1532 C1542 0.930 . S
H1533 C1545 0.929 . S
H1534 C1548 0.930 . S
H1535 C1550 0.960 . S
H1536 C1550 0.960 . S
H1537 C1550 0.960 . S
C1538 H1530 0.929 . S
C1538 C1539 1.377 . S
C1538 C1540 1.384 . S
C1539 C1538 1.377 . S
C1539 C1545 1.390 . S
C1540 H1531 0.930 . S
C1540 C1538 1.384 . S
C1540 C1541 1.372 . S
C1541 C1540 1.372 . S
C1541 C1542 1.400 . S
C1541 C1546 1.490 . S
C1542 H1532 0.930 . S
C1542 C1541 1.400 . S
C1542 C1545 1.386 . S
H1543 C1559 0.930 . S
H1544 C1560 0.931 . S
C1545 H1533 0.929 . S
C1545 C1539 1.390 . S
C1545 C1542 1.386 . S
C1546 C1541 1.490 . S
C1546 C1548 1.395 . S
C1546 C1549 1.403 . S
H1547 C1553 0.930 . S
C1548 H1534 0.930 . S
C1548 C1546 1.395 . S
C1548 C1551 1.403 . S
C1549 C1546 1.403 . S
C1549 C1550 1.524 . S
C1549 C1553 1.400 . S
C1550 H1535 0.960 . S
C1550 H1536 0.960 . S
C1550 H1537 0.960 . S
C1550 C1549 1.524 . S
C1551 C1548 1.403 . S
C1551 C1552 1.392 . S
C1551 C1555 1.495 . S
C1552 C1551 1.392 . S
C1552 C1553 1.385 . S
C1552 C1554 1.478 . S
C1553 H1547 0.930 . S
C1553 C1549 1.400 . S
C1553 C1552 1.385 . S
C1554 C1552 1.478 . S
C1554 C1556 1.381 . S
C1554 C1560 1.383 . S
C1555 C1551 1.495 . S
C1555 H1561 0.959 . S
C1555 H1562 0.961 . S
C1555 H1563 0.960 . S
C1556 C1554 1.381 . S
C1556 C1557 1.394 . S
C1556 H1564 0.930 . S
C1557 C1556 1.394 . S
C1557 C1558 1.383 . S
C1557 H1565 0.929 . S
C1558 C1557 1.383 . S
C1558 C1559 1.377 . S
C1559 H1543 0.930 . S
C1559 C1558 1.377 . S
C1559 C1560 1.379 . S
C1560 H1544 0.931 . S
C1560 C1554 1.383 . S
C1560 C1559 1.379 . S
H1561 C1555 0.959 . S
H1562 C1555 0.961 . S
H1563 C1555 0.960 . S
H1564 C1556 0.930 . S
H1565 C1557 0.929 . S
H1566 C1574 0.929 . S
H1567 C1576 0.930 . S
H1568 C1578 0.930 . S
H1569 C1581 0.929 . S
H1570 C1584 0.930 . S
H1571 C1586 0.960 . S
H1572 C1586 0.960 . S
H1573 C1586 0.960 . S
C1574 H1566 0.929 . S
C1574 C1575 1.377 . S
C1574 C1576 1.384 . S
C1575 C1574 1.377 . S
C1575 C1581 1.390 . S
C1576 H1567 0.930 . S
C1576 C1574 1.384 . S
C1576 C1577 1.372 . S
C1577 C1576 1.372 . S
C1577 C1578 1.400 . S
C1577 C1582 1.490 . S
C1578 H1568 0.930 . S
C1578 C1577 1.400 . S
C1578 C1581 1.386 . S
H1579 C1595 0.930 . S
H1580 C1596 0.931 . S
C1581 H1569 0.929 . S
C1581 C1575 1.390 . S
C1581 C1578 1.386 . S
C1582 C1577 1.490 . S
C1582 C1584 1.395 . S
C1582 C1585 1.403 . S
H1583 C1589 0.930 . S
C1584 H1570 0.930 . S
C1584 C1582 1.395 . S
C1584 C1587 1.403 . S
C1585 C1582 1.403 . S
C1585 C1586 1.524 . S
C1585 C1589 1.400 . S
C1586 H1571 0.960 . S
C1586 H1572 0.960 . S
C1586 H1573 0.960 . S
C1586 C1585 1.524 . S
C1587 C1584 1.403 . S
C1587 C1588 1.392 . S
C1587 C1591 1.495 . S
C1588 C1587 1.392 . S
C1588 C1589 1.385 . S
C1588 C1590 1.478 . S
C1589 H1583 0.930 . S
C1589 C1585 1.400 . S
C1589 C1588 1.385 . S
C1590 C1588 1.478 . S
C1590 C1592 1.381 . S
C1590 C1596 1.383 . S
C1591 C1587 1.495 . S
C1591 H1597 0.959 . S
C1591 H1598 0.961 . S
C1591 H1599 0.960 . S
C1592 C1590 1.381 . S
C1592 C1593 1.394 . S
C1592 H1600 0.930 . S
C1593 C1592 1.394 . S
C1593 C1594 1.383 . S
C1593 H1601 0.929 . S
C1594 C1593 1.383 . S
C1594 C1595 1.377 . S
C1595 H1579 0.930 . S
C1595 C1594 1.377 . S
C1595 C1596 1.379 . S
C1596 H1580 0.931 . S
C1596 C1590 1.383 . S
C1596 C1595 1.379 . S
H1597 C1591 0.959 . S
H1598 C1591 0.961 . S
H1599 C1591 0.960 . S
H1600 C1592 0.930 . S
H1601 C1593 0.929 . S
H1602 C1610 0.929 . S
H1603 C1612 0.930 . S
H1604 C1614 0.930 . S
H1605 C1617 0.929 . S
H1606 C1620 0.930 . S
H1607 C1622 0.960 . S
H1608 C1622 0.960 . S
H1609 C1622 0.960 . S
C1610 H1602 0.929 . S
C1610 C1611 1.377 . S
C1610 C1612 1.384 . S
C1611 C1610 1.377 . S
C1611 C1617 1.390 . S
C1612 H1603 0.930 . S
C1612 C1610 1.384 . S
C1612 C1613 1.372 . S
C1613 C1612 1.372 . S
C1613 C1614 1.400 . S
C1613 C1618 1.490 . S
C1614 H1604 0.930 . S
C1614 C1613 1.400 . S
C1614 C1617 1.386 . S
H1615 C1631 0.930 . S
H1616 C1632 0.931 . S
C1617 H1605 0.929 . S
C1617 C1611 1.390 . S
C1617 C1614 1.386 . S
C1618 C1613 1.490 . S
C1618 C1620 1.395 . S
C1618 C1621 1.403 . S
H1619 C1625 0.930 . S
C1620 H1606 0.930 . S
C1620 C1618 1.395 . S
C1620 C1623 1.403 . S
C1621 C1618 1.403 . S
C1621 C1622 1.524 . S
C1621 C1625 1.400 . S
C1622 H1607 0.960 . S
C1622 H1608 0.960 . S
C1622 H1609 0.960 . S
C1622 C1621 1.524 . S
C1623 C1620 1.403 . S
C1623 C1624 1.392 . S
C1623 C1627 1.495 . S
C1624 C1623 1.392 . S
C1624 C1625 1.385 . S
C1624 C1626 1.478 . S
C1625 H1619 0.930 . S
C1625 C1621 1.400 . S
C1625 C1624 1.385 . S
C1626 C1624 1.478 . S
C1626 C1628 1.381 . S
C1626 C1632 1.383 . S
C1627 C1623 1.495 . S
C1627 H1633 0.959 . S
C1627 H1634 0.961 . S
C1627 H1635 0.960 . S
C1628 C1626 1.381 . S
C1628 C1629 1.394 . S
C1628 H1636 0.930 . S
C1629 C1628 1.394 . S
C1629 C1630 1.383 . S
C1629 H1637 0.929 . S
C1630 C1629 1.383 . S
C1630 C1631 1.377 . S
C1631 H1615 0.930 . S
C1631 C1630 1.377 . S
C1631 C1632 1.379 . S
C1632 H1616 0.931 . S
C1632 C1626 1.383 . S
C1632 C1631 1.379 . S
H1633 C1627 0.959 . S
H1634 C1627 0.961 . S
H1635 C1627 0.960 . S
H1636 C1628 0.930 . S
H1637 C1629 0.929 . S
H1638 C1646 0.929 . S
H1639 C1648 0.930 . S
H1640 C1650 0.930 . S
H1641 C1653 0.929 . S
H1642 C1656 0.930 . S
H1643 C1658 0.960 . S
H1644 C1658 0.960 . S
H1645 C1658 0.960 . S
C1646 H1638 0.929 . S
C1646 C1647 1.377 . S
C1646 C1648 1.384 . S
C1647 C1646 1.377 . S
C1647 C1653 1.390 . S
C1648 H1639 0.930 . S
C1648 C1646 1.384 . S
C1648 C1649 1.372 . S
C1649 C1648 1.372 . S
C1649 C1650 1.400 . S
C1649 C1654 1.490 . S
C1650 H1640 0.930 . S
C1650 C1649 1.400 . S
C1650 C1653 1.386 . S
H1651 C1667 0.930 . S
H1652 C1668 0.931 . S
C1653 H1641 0.929 . S
C1653 C1647 1.390 . S
C1653 C1650 1.386 . S
C1654 C1649 1.490 . S
C1654 C1656 1.395 . S
C1654 C1657 1.403 . S
H1655 C1661 0.930 . S
C1656 H1642 0.930 . S
C1656 C1654 1.395 . S
C1656 C1659 1.403 . S
C1657 C1654 1.403 . S
C1657 C1658 1.524 . S
C1657 C1661 1.400 . S
C1658 H1643 0.960 . S
C1658 H1644 0.960 . S
C1658 H1645 0.960 . S
C1658 C1657 1.524 . S
C1659 C1656 1.403 . S
C1659 C1660 1.392 . S
C1659 C1663 1.495 . S
C1660 C1659 1.392 . S
C1660 C1661 1.385 . S
C1660 C1662 1.478 . S
C1661 H1655 0.930 . S
C1661 C1657 1.400 . S
C1661 C1660 1.385 . S
C1662 C1660 1.478 . S
C1662 C1664 1.381 . S
C1662 C1668 1.383 . S
C1663 C1659 1.495 . S
C1663 H1669 0.959 . S
C1663 H1670 0.961 . S
C1663 H1671 0.960 . S
C1664 C1662 1.381 . S
C1664 C1665 1.394 . S
C1664 H1672 0.930 . S
C1665 C1664 1.394 . S
C1665 C1666 1.383 . S
C1665 H1673 0.929 . S
C1666 C1665 1.383 . S
C1666 C1667 1.377 . S
C1667 H1651 0.930 . S
C1667 C1666 1.377 . S
C1667 C1668 1.379 . S
C1668 H1652 0.931 . S
C1668 C1662 1.383 . S
C1668 C1667 1.379 . S
H1669 C1663 0.959 . S
H1670 C1663 0.961 . S
H1671 C1663 0.960 . S
H1672 C1664 0.930 . S
H1673 C1665 0.929 . S
H1674 C1682 0.929 . S
H1675 C1684 0.930 . S
H1676 C1686 0.930 . S
H1677 C1689 0.929 . S
H1678 C1692 0.930 . S
H1679 C1694 0.960 . S
H1680 C1694 0.960 . S
H1681 C1694 0.960 . S
C1682 H1674 0.929 . S
C1682 C1683 1.377 . S
C1682 C1684 1.384 . S
C1683 C1682 1.377 . S
C1683 C1689 1.390 . S
C1684 H1675 0.930 . S
C1684 C1682 1.384 . S
C1684 C1685 1.372 . S
C1685 C1684 1.372 . S
C1685 C1686 1.400 . S
C1685 C1690 1.490 . S
C1686 H1676 0.930 . S
C1686 C1685 1.400 . S
C1686 C1689 1.386 . S
H1687 C1703 0.930 . S
H1688 C1704 0.931 . S
C1689 H1677 0.929 . S
C1689 C1683 1.390 . S
C1689 C1686 1.386 . S
C1690 C1685 1.490 . S
C1690 C1692 1.395 . S
C1690 C1693 1.403 . S
H1691 C1697 0.930 . S
C1692 H1678 0.930 . S
C1692 C1690 1.395 . S
C1692 C1695 1.403 . S
C1693 C1690 1.403 . S
C1693 C1694 1.524 . S
C1693 C1697 1.400 . S
C1694 H1679 0.960 . S
C1694 H1680 0.960 . S
C1694 H1681 0.960 . S
C1694 C1693 1.524 . S
C1695 C1692 1.403 . S
C1695 C1696 1.392 . S
C1695 C1699 1.495 . S
C1696 C1695 1.392 . S
C1696 C1697 1.385 . S
C1696 C1698 1.478 . S
C1697 H1691 0.930 . S
C1697 C1693 1.400 . S
C1697 C1696 1.385 . S
C1698 C1696 1.478 . S
C1698 C1700 1.381 . S
C1698 C1704 1.383 . S
C1699 C1695 1.495 . S
C1699 H1705 0.959 . S
C1699 H1706 0.961 . S
C1699 H1707 0.960 . S
C1700 C1698 1.381 . S
C1700 C1701 1.394 . S
C1700 H1708 0.930 . S
C1701 C1700 1.394 . S
C1701 C1702 1.383 . S
C1701 H1709 0.929 . S
C1702 C1701 1.383 . S
C1702 C1703 1.377 . S
C1703 H1687 0.930 . S
C1703 C1702 1.377 . S
C1703 C1704 1.379 . S
C1704 H1688 0.931 . S
C1704 C1698 1.383 . S
C1704 C1703 1.379 . S
H1705 C1699 0.959 . S
H1706 C1699 0.961 . S
H1707 C1699 0.960 . S
H1708 C1700 0.930 . S
H1709 C1701 0.929 . S
H1710 C1718 0.929 . S
H1711 C1720 0.930 . S
H1712 C1722 0.930 . S
H1713 C1725 0.929 . S
H1714 C1728 0.930 . S
H1715 C1730 0.960 . S
H1716 C1730 0.960 . S
H1717 C1730 0.960 . S
C1718 H1710 0.929 . S
C1718 C1719 1.377 . S
C1718 C1720 1.384 . S
C1719 C1718 1.377 . S
C1719 C1725 1.390 . S
C1720 H1711 0.930 . S
C1720 C1718 1.384 . S
C1720 C1721 1.372 . S
C1721 C1720 1.372 . S
C1721 C1722 1.400 . S
C1721 C1726 1.490 . S
C1722 H1712 0.930 . S
C1722 C1721 1.400 . S
C1722 C1725 1.386 . S
H1723 C1739 0.930 . S
H1724 C1740 0.931 . S
C1725 H1713 0.929 . S
C1725 C1719 1.390 . S
C1725 C1722 1.386 . S
C1726 C1721 1.490 . S
C1726 C1728 1.395 . S
C1726 C1729 1.403 . S
H1727 C1733 0.930 . S
C1728 H1714 0.930 . S
C1728 C1726 1.395 . S
C1728 C1731 1.403 . S
C1729 C1726 1.403 . S
C1729 C1730 1.524 . S
C1729 C1733 1.400 . S
C1730 H1715 0.960 . S
C1730 H1716 0.960 . S
C1730 H1717 0.960 . S
C1730 C1729 1.524 . S
C1731 C1728 1.403 . S
C1731 C1732 1.392 . S
C1731 C1735 1.495 . S
C1732 C1731 1.392 . S
C1732 C1733 1.385 . S
C1732 C1734 1.478 . S
C1733 H1727 0.930 . S
C1733 C1729 1.400 . S
C1733 C1732 1.385 . S
C1734 C1732 1.478 . S
C1734 C1736 1.381 . S
C1734 C1740 1.383 . S
C1735 C1731 1.495 . S
C1735 H1741 0.959 . S
C1735 H1742 0.961 . S
C1735 H1743 0.960 . S
C1736 C1734 1.381 . S
C1736 C1737 1.394 . S
C1736 H1744 0.930 . S
C1737 C1736 1.394 . S
C1737 C1738 1.383 . S
C1737 H1745 0.929 . S
C1738 C1737 1.383 . S
C1738 C1739 1.377 . S
C1739 H1723 0.930 . S
C1739 C1738 1.377 . S
C1739 C1740 1.379 . S
C1740 H1724 0.931 . S
C1740 C1734 1.383 . S
C1740 C1739 1.379 . S
H1741 C1735 0.959 . S
H1742 C1735 0.961 . S
H1743 C1735 0.960 . S
H1744 C1736 0.930 . S
H1745 C1737 0.929 . S
H1746 C1754 0.929 . S
H1747 C1756 0.930 . S
H1748 C1758 0.930 . S
H1749 C1761 0.929 . S
H1750 C1764 0.930 . S
H1751 C1766 0.960 . S
H1752 C1766 0.960 . S
H1753 C1766 0.960 . S
C1754 H1746 0.929 . S
C1754 C1755 1.377 . S
C1754 C1756 1.384 . S
C1755 C1754 1.377 . S
C1755 C1761 1.390 . S
C1756 H1747 0.930 . S
C1756 C1754 1.384 . S
C1756 C1757 1.372 . S
C1757 C1756 1.372 . S
C1757 C1758 1.400 . S
C1757 C1762 1.490 . S
C1758 H1748 0.930 . S
C1758 C1757 1.400 . S
C1758 C1761 1.386 . S
H1759 C1775 0.930 . S
H1760 C1776 0.931 . S
C1761 H1749 0.929 . S
C1761 C1755 1.390 . S
C1761 C1758 1.386 . S
C1762 C1757 1.490 . S
C1762 C1764 1.395 . S
C1762 C1765 1.403 . S
H1763 C1769 0.930 . S
C1764 H1750 0.930 . S
C1764 C1762 1.395 . S
C1764 C1767 1.403 . S
C1765 C1762 1.403 . S
C1765 C1766 1.524 . S
C1765 C1769 1.400 . S
C1766 H1751 0.960 . S
C1766 H1752 0.960 . S
C1766 H1753 0.960 . S
C1766 C1765 1.524 . S
C1767 C1764 1.403 . S
C1767 C1768 1.392 . S
C1767 C1771 1.495 . S
C1768 C1767 1.392 . S
C1768 C1769 1.385 . S
C1768 C1770 1.478 . S
C1769 H1763 0.930 . S
C1769 C1765 1.400 . S
C1769 C1768 1.385 . S
C1770 C1768 1.478 . S
C1770 C1772 1.381 . S
C1770 C1776 1.383 . S
C1771 C1767 1.495 . S
C1771 H1777 0.959 . S
C1771 H1778 0.961 . S
C1771 H1779 0.960 . S
C1772 C1770 1.381 . S
C1772 C1773 1.394 . S
C1772 H1780 0.930 . S
C1773 C1772 1.394 . S
C1773 C1774 1.383 . S
C1773 H1781 0.929 . S
C1774 C1773 1.383 . S
C1774 C1775 1.377 . S
C1775 H1759 0.930 . S
C1775 C1774 1.377 . S
C1775 C1776 1.379 . S
C1776 H1760 0.931 . S
C1776 C1770 1.383 . S
C1776 C1775 1.379 . S
H1777 C1771 0.959 . S
H1778 C1771 0.961 . S
H1779 C1771 0.960 . S
H1780 C1772 0.930 . S
H1781 C1773 0.929 . S
H1782 C1790 0.929 . S
H1783 C1792 0.930 . S
H1784 C1794 0.930 . S
H1785 C1797 0.929 . S
H1786 C1800 0.930 . S
H1787 C1802 0.960 . S
H1788 C1802 0.960 . S
H1789 C1802 0.960 . S
C1790 H1782 0.929 . S
C1790 C1791 1.377 . S
C1790 C1792 1.384 . S
C1791 C1790 1.377 . S
C1791 C1797 1.390 . S
C1792 H1783 0.930 . S
C1792 C1790 1.384 . S
C1792 C1793 1.372 . S
C1793 C1792 1.372 . S
C1793 C1794 1.400 . S
C1793 C1798 1.490 . S
C1794 H1784 0.930 . S
C1794 C1793 1.400 . S
C1794 C1797 1.386 . S
H1795 C1811 0.930 . S
H1796 C1812 0.931 . S
C1797 H1785 0.929 . S
C1797 C1791 1.390 . S
C1797 C1794 1.386 . S
C1798 C1793 1.490 . S
C1798 C1800 1.395 . S
C1798 C1801 1.403 . S
H1799 C1805 0.930 . S
C1800 H1786 0.930 . S
C1800 C1798 1.395 . S
C1800 C1803 1.403 . S
C1801 C1798 1.403 . S
C1801 C1802 1.524 . S
C1801 C1805 1.400 . S
C1802 H1787 0.960 . S
C1802 H1788 0.960 . S
C1802 H1789 0.960 . S
C1802 C1801 1.524 . S
C1803 C1800 1.403 . S
C1803 C1804 1.392 . S
C1803 C1807 1.495 . S
C1804 C1803 1.392 . S
C1804 C1805 1.385 . S
C1804 C1806 1.478 . S
C1805 H1799 0.930 . S
C1805 C1801 1.400 . S
C1805 C1804 1.385 . S
C1806 C1804 1.478 . S
C1806 C1808 1.381 . S
C1806 C1812 1.383 . S
C1807 C1803 1.495 . S
C1807 H1813 0.959 . S
C1807 H1814 0.961 . S
C1807 H1815 0.960 . S
C1808 C1806 1.381 . S
C1808 C1809 1.394 . S
C1808 H1816 0.930 . S
C1809 C1808 1.394 . S
C1809 C1810 1.383 . S
C1809 H1817 0.929 . S
C1810 C1809 1.383 . S
C1810 C1811 1.377 . S
C1811 H1795 0.930 . S
C1811 C1810 1.377 . S
C1811 C1812 1.379 . S
C1812 H1796 0.931 . S
C1812 C1806 1.383 . S
C1812 C1811 1.379 . S
H1813 C1807 0.959 . S
H1814 C1807 0.961 . S
H1815 C1807 0.960 . S
H1816 C1808 0.930 . S
H1817 C1809 0.929 . S
H1818 C1826 0.929 . S
H1819 C1828 0.930 . S
H1820 C1830 0.930 . S
H1821 C1833 0.929 . S
H1822 C1836 0.930 . S
H1823 C1838 0.960 . S
H1824 C1838 0.960 . S
H1825 C1838 0.960 . S
C1826 H1818 0.929 . S
C1826 C1827 1.377 . S
C1826 C1828 1.384 . S
C1827 C1826 1.377 . S
C1827 C1833 1.390 . S
C1828 H1819 0.930 . S
C1828 C1826 1.384 . S
C1828 C1829 1.372 . S
C1829 C1828 1.372 . S
C1829 C1830 1.400 . S
C1829 C1834 1.490 . S
C1830 H1820 0.930 . S
C1830 C1829 1.400 . S
C1830 C1833 1.386 . S
H1831 C1847 0.930 . S
H1832 C1848 0.931 . S
C1833 H1821 0.929 . S
C1833 C1827 1.390 . S
C1833 C1830 1.386 . S
C1834 C1829 1.490 . S
C1834 C1836 1.395 . S
C1834 C1837 1.403 . S
H1835 C1841 0.930 . S
C1836 H1822 0.930 . S
C1836 C1834 1.395 . S
C1836 C1839 1.403 . S
C1837 C1834 1.403 . S
C1837 C1838 1.524 . S
C1837 C1841 1.400 . S
C1838 H1823 0.960 . S
C1838 H1824 0.960 . S
C1838 H1825 0.960 . S
C1838 C1837 1.524 . S
C1839 C1836 1.403 . S
C1839 C1840 1.392 . S
C1839 C1843 1.495 . S
C1840 C1839 1.392 . S
C1840 C1841 1.385 . S
C1840 C1842 1.478 . S
C1841 H1835 0.930 . S
C1841 C1837 1.400 . S
C1841 C1840 1.385 . S
C1842 C1840 1.478 . S
C1842 C1844 1.381 . S
C1842 C1848 1.383 . S
C1843 C1839 1.495 . S
C1843 H1849 0.959 . S
C1843 H1850 0.961 . S
C1843 H1851 0.960 . S
C1844 C1842 1.381 . S
C1844 C1845 1.394 . S
C1844 H1852 0.930 . S
C1845 C1844 1.394 . S
C1845 C1846 1.383 . S
C1845 H1853 0.929 . S
C1846 C1845 1.383 . S
C1846 C1847 1.377 . S
C1847 H1831 0.930 . S
C1847 C1846 1.377 . S
C1847 C1848 1.379 . S
C1848 H1832 0.931 . S
C1848 C1842 1.383 . S
C1848 C1847 1.379 . S
H1849 C1843 0.959 . S
H1850 C1843 0.961 . S
H1851 C1843 0.960 . S
H1852 C1844 0.930 . S
H1853 C1845 0.929 . S
H1854 C1862 0.929 . S
H1855 C1864 0.930 . S
H1856 C1866 0.930 . S
H1857 C1869 0.929 . S
H1858 C1872 0.930 . S
H1859 C1874 0.960 . S
H1860 C1874 0.960 . S
H1861 C1874 0.960 . S
C1862 H1854 0.929 . S
C1862 C1863 1.377 . S
C1862 C1864 1.384 . S
C1863 C1862 1.377 . S
C1863 C1869 1.390 . S
C1864 H1855 0.930 . S
C1864 C1862 1.384 . S
C1864 C1865 1.372 . S
C1865 C1864 1.372 . S
C1865 C1866 1.400 . S
C1865 C1870 1.490 . S
C1866 H1856 0.930 . S
C1866 C1865 1.400 . S
C1866 C1869 1.386 . S
H1867 C1883 0.930 . S
H1868 C1884 0.931 . S
C1869 H1857 0.929 . S
C1869 C1863 1.390 . S
C1869 C1866 1.386 . S
C1870 C1865 1.490 . S
C1870 C1872 1.395 . S
C1870 C1873 1.403 . S
H1871 C1877 0.930 . S
C1872 H1858 0.930 . S
C1872 C1870 1.395 . S
C1872 C1875 1.403 . S
C1873 C1870 1.403 . S
C1873 C1874 1.524 . S
C1873 C1877 1.400 . S
C1874 H1859 0.960 . S
C1874 H1860 0.960 . S
C1874 H1861 0.960 . S
C1874 C1873 1.524 . S
C1875 C1872 1.403 . S
C1875 C1876 1.392 . S
C1875 C1879 1.495 . S
C1876 C1875 1.392 . S
C1876 C1877 1.385 . S
C1876 C1878 1.478 . S
C1877 H1871 0.930 . S
C1877 C1873 1.400 . S
C1877 C1876 1.385 . S
C1878 C1876 1.478 . S
C1878 C1880 1.381 . S
C1878 C1884 1.383 . S
C1879 C1875 1.495 . S
C1879 H1885 0.959 . S
C1879 H1886 0.961 . S
C1879 H1887 0.960 . S
C1880 C1878 1.381 . S
C1880 C1881 1.394 . S
C1880 H1888 0.930 . S
C1881 C1880 1.394 . S
C1881 C1882 1.383 . S
C1881 H1889 0.929 . S
C1882 C1881 1.383 . S
C1882 C1883 1.377 . S
C1883 H1867 0.930 . S
C1883 C1882 1.377 . S
C1883 C1884 1.379 . S
C1884 H1868 0.931 . S
C1884 C1878 1.383 . S
C1884 C1883 1.379 . S
H1885 C1879 0.959 . S
H1886 C1879 0.961 . S
H1887 C1879 0.960 . S
H1888 C1880 0.930 . S
H1889 C1881 0.929 . S
H1890 C1898 0.929 . S
H1891 C1900 0.930 . S
H1892 C1902 0.930 . S
H1893 C1905 0.929 . S
H1894 C1908 0.930 . S
H1895 C1910 0.960 . S
H1896 C1910 0.960 . S
H1897 C1910 0.960 . S
C1898 H1890 0.929 . S
C1898 C1899 1.377 . S
C1898 C1900 1.384 . S
C1899 C1898 1.377 . S
C1899 C1905 1.390 . S
C1900 H1891 0.930 . S
C1900 C1898 1.384 . S
C1900 C1901 1.372 . S
C1901 C1900 1.372 . S
C1901 C1902 1.400 . S
C1901 C1906 1.490 . S
C1902 H1892 0.930 . S
C1902 C1901 1.400 . S
C1902 C1905 1.386 . S
H1903 C1919 0.930 . S
H1904 C1920 0.931 . S
C1905 H1893 0.929 . S
C1905 C1899 1.390 . S
C1905 C1902 1.386 . S
C1906 C1901 1.490 . S
C1906 C1908 1.395 . S
C1906 C1909 1.403 . S
H1907 C1913 0.930 . S
C1908 H1894 0.930 . S
C1908 C1906 1.395 . S
C1908 C1911 1.403 . S
C1909 C1906 1.403 . S
C1909 C1910 1.524 . S
C1909 C1913 1.400 . S
C1910 H1895 0.960 . S
C1910 H1896 0.960 . S
C1910 H1897 0.960 . S
C1910 C1909 1.524 . S
C1911 C1908 1.403 . S
C1911 C1912 1.392 . S
C1911 C1915 1.495 . S
C1912 C1911 1.392 . S
C1912 C1913 1.385 . S
C1912 C1914 1.478 . S
C1913 H1907 0.930 . S
C1913 C1909 1.400 . S
C1913 C1912 1.385 . S
C1914 C1912 1.478 . S
C1914 C1916 1.381 . S
C1914 C1920 1.383 . S
C1915 C1911 1.495 . S
C1915 H1921 0.959 . S
C1915 H1922 0.961 . S
C1915 H1923 0.960 . S
C1916 C1914 1.381 . S
C1916 C1917 1.394 . S
C1916 H1924 0.930 . S
C1917 C1916 1.394 . S
C1917 C1918 1.383 . S
C1917 H1925 0.929 . S
C1918 C1917 1.383 . S
C1918 C1919 1.377 . S
C1919 H1903 0.930 . S
C1919 C1918 1.377 . S
C1919 C1920 1.379 . S
C1920 H1904 0.931 . S
C1920 C1914 1.383 . S
C1920 C1919 1.379 . S
H1921 C1915 0.959 . S
H1922 C1915 0.961 . S
H1923 C1915 0.960 . S
H1924 C1916 0.930 . S
H1925 C1917 0.929 . S
H1926 C1934 0.929 . S
H1927 C1936 0.930 . S
H1928 C1938 0.930 . S
H1929 C1941 0.929 . S
H1930 C1944 0.930 . S
H1931 C1946 0.960 . S
H1932 C1946 0.960 . S
H1933 C1946 0.960 . S
C1934 H1926 0.929 . S
C1934 C1935 1.377 . S
C1934 C1936 1.384 . S
C1935 C1934 1.377 . S
C1935 C1941 1.390 . S
C1936 H1927 0.930 . S
C1936 C1934 1.384 . S
C1936 C1937 1.372 . S
C1937 C1936 1.372 . S
C1937 C1938 1.400 . S
C1937 C1942 1.490 . S
C1938 H1928 0.930 . S
C1938 C1937 1.400 . S
C1938 C1941 1.386 . S
H1939 C1955 0.930 . S
H1940 C1956 0.931 . S
C1941 H1929 0.929 . S
C1941 C1935 1.390 . S
C1941 C1938 1.386 . S
C1942 C1937 1.490 . S
C1942 C1944 1.395 . S
C1942 C1945 1.403 . S
H1943 C1949 0.930 . S
C1944 H1930 0.930 . S
C1944 C1942 1.395 . S
C1944 C1947 1.403 . S
C1945 C1942 1.403 . S
C1945 C1946 1.524 . S
C1945 C1949 1.400 . S
C1946 H1931 0.960 . S
C1946 H1932 0.960 . S
C1946 H1933 0.960 . S
C1946 C1945 1.524 . S
C1947 C1944 1.403 . S
C1947 C1948 1.392 . S
C1947 C1951 1.495 . S
C1948 C1947 1.392 . S
C1948 C1949 1.385 . S
C1948 C1950 1.478 . S
C1949 H1943 0.930 . S
C1949 C1945 1.400 . S
C1949 C1948 1.385 . S
C1950 C1948 1.478 . S
C1950 C1952 1.381 . S
C1950 C1956 1.383 . S
C1951 C1947 1.495 . S
C1951 H1957 0.959 . S
C1951 H1958 0.961 . S
C1951 H1959 0.960 . S
C1952 C1950 1.381 . S
C1952 C1953 1.394 . S
C1952 H1960 0.930 . S
C1953 C1952 1.394 . S
C1953 C1954 1.383 . S
C1953 H1961 0.929 . S
C1954 C1953 1.383 . S
C1954 C1955 1.377 . S
C1955 H1939 0.930 . S
C1955 C1954 1.377 . S
C1955 C1956 1.379 . S
C1956 H1940 0.931 . S
C1956 C1950 1.383 . S
C1956 C1955 1.379 . S
H1957 C1951 0.959 . S
H1958 C1951 0.961 . S
H1959 C1951 0.960 . S
H1960 C1952 0.930 . S
H1961 C1953 0.929 . S
H1962 C1970 0.929 . S
H1963 C1972 0.930 . S
H1964 C1974 0.930 . S
H1965 C1977 0.929 . S
H1966 C1980 0.930 . S
H1967 C1982 0.960 . S
H1968 C1982 0.960 . S
H1969 C1982 0.960 . S
C1970 H1962 0.929 . S
C1970 C1971 1.377 . S
C1970 C1972 1.384 . S
C1971 C1970 1.377 . S
C1971 C1977 1.390 . S
C1972 H1963 0.930 . S
C1972 C1970 1.384 . S
C1972 C1973 1.372 . S
C1973 C1972 1.372 . S
C1973 C1974 1.400 . S
C1973 C1978 1.490 . S
C1974 H1964 0.930 . S
C1974 C1973 1.400 . S
C1974 C1977 1.386 . S
H1975 C1991 0.930 . S
H1976 C1992 0.931 . S
C1977 H1965 0.929 . S
C1977 C1971 1.390 . S
C1977 C1974 1.386 . S
C1978 C1973 1.490 . S
C1978 C1980 1.395 . S
C1978 C1981 1.403 . S
H1979 C1985 0.930 . S
C1980 H1966 0.930 . S
C1980 C1978 1.395 . S
C1980 C1983 1.403 . S
C1981 C1978 1.403 . S
C1981 C1982 1.524 . S
C1981 C1985 1.400 . S
C1982 H1967 0.960 . S
C1982 H1968 0.960 . S
C1982 H1969 0.960 . S
C1982 C1981 1.524 . S
C1983 C1980 1.403 . S
C1983 C1984 1.392 . S
C1983 C1987 1.495 . S
C1984 C1983 1.392 . S
C1984 C1985 1.385 . S
C1984 C1986 1.478 . S
C1985 H1979 0.930 . S
C1985 C1981 1.400 . S
C1985 C1984 1.385 . S
C1986 C1984 1.478 . S
C1986 C1988 1.381 . S
C1986 C1992 1.383 . S
C1987 C1983 1.495 . S
C1987 H1993 0.959 . S
C1987 H1994 0.961 . S
C1987 H1995 0.960 . S
C1988 C1986 1.381 . S
C1988 C1989 1.394 . S
C1988 H1996 0.930 . S
C1989 C1988 1.394 . S
C1989 C1990 1.383 . S
C1989 H1997 0.929 . S
C1990 C1989 1.383 . S
C1990 C1991 1.377 . S
C1991 H1975 0.930 . S
C1991 C1990 1.377 . S
C1991 C1992 1.379 . S
C1992 H1976 0.931 . S
C1992 C1986 1.383 . S
C1992 C1991 1.379 . S
H1993 C1987 0.959 . S
H1994 C1987 0.961 . S
H1995 C1987 0.960 . S
H1996 C1988 0.930 . S
H1997 C1989 0.929 . S
H1998 C2006 0.929 . S
H1999 C2008 0.930 . S
H2000 C2010 0.930 . S
H2001 C2013 0.929 . S
H2002 C2016 0.930 . S
H2003 C2018 0.960 . S
H2004 C2018 0.960 . S
H2005 C2018 0.960 . S
C2006 H1998 0.929 . S
C2006 C2007 1.377 . S
C2006 C2008 1.384 . S
C2007 C2006 1.377 . S
C2007 C2013 1.390 . S
C2008 H1999 0.930 . S
C2008 C2006 1.384 . S
C2008 C2009 1.372 . S
C2009 C2008 1.372 . S
C2009 C2010 1.400 . S
C2009 C2014 1.490 . S
C2010 H2000 0.930 . S
C2010 C2009 1.400 . S
C2010 C2013 1.386 . S
H2011 C2027 0.930 . S
H2012 C2028 0.931 . S
C2013 H2001 0.929 . S
C2013 C2007 1.390 . S
C2013 C2010 1.386 . S
C2014 C2009 1.490 . S
C2014 C2016 1.395 . S
C2014 C2017 1.403 . S
H2015 C2021 0.930 . S
C2016 H2002 0.930 . S
C2016 C2014 1.395 . S
C2016 C2019 1.403 . S
C2017 C2014 1.403 . S
C2017 C2018 1.524 . S
C2017 C2021 1.400 . S
C2018 H2003 0.960 . S
C2018 H2004 0.960 . S
C2018 H2005 0.960 . S
C2018 C2017 1.524 . S
C2019 C2016 1.403 . S
C2019 C2020 1.392 . S
C2019 C2023 1.495 . S
C2020 C2019 1.392 . S
C2020 C2021 1.385 . S
C2020 C2022 1.478 . S
C2021 H2015 0.930 . S
C2021 C2017 1.400 . S
C2021 C2020 1.385 . S
C2022 C2020 1.478 . S
C2022 C2024 1.381 . S
C2022 C2028 1.383 . S
C2023 C2019 1.495 . S
C2023 H2029 0.959 . S
C2023 H2030 0.961 . S
C2023 H2031 0.960 . S
C2024 C2022 1.381 . S
C2024 C2025 1.394 . S
C2024 H2032 0.930 . S
C2025 C2024 1.394 . S
C2025 C2026 1.383 . S
C2025 H2033 0.929 . S
C2026 C2025 1.383 . S
C2026 C2027 1.377 . S
C2027 H2011 0.930 . S
C2027 C2026 1.377 . S
C2027 C2028 1.379 . S
C2028 H2012 0.931 . S
C2028 C2022 1.383 . S
C2028 C2027 1.379 . S
H2029 C2023 0.959 . S
H2030 C2023 0.961 . S
H2031 C2023 0.960 . S
H2032 C2024 0.930 . S
H2033 C2025 0.929 . S
H2034 C2042 0.929 . S
H2035 C2044 0.930 . S
H2036 C2046 0.930 . S
H2037 C2049 0.929 . S
H2038 C2052 0.930 . S
H2039 C2054 0.960 . S
H2040 C2054 0.960 . S
H2041 C2054 0.960 . S
C2042 H2034 0.929 . S
C2042 C2043 1.377 . S
C2042 C2044 1.384 . S
C2043 C2042 1.377 . S
C2043 C2049 1.390 . S
C2044 H2035 0.930 . S
C2044 C2042 1.384 . S
C2044 C2045 1.372 . S
C2045 C2044 1.372 . S
C2045 C2046 1.400 . S
C2045 C2050 1.490 . S
C2046 H2036 0.930 . S
C2046 C2045 1.400 . S
C2046 C2049 1.386 . S
H2047 C2063 0.930 . S
H2048 C2064 0.931 . S
C2049 H2037 0.929 . S
C2049 C2043 1.390 . S
C2049 C2046 1.386 . S
C2050 C2045 1.490 . S
C2050 C2052 1.395 . S
C2050 C2053 1.403 . S
H2051 C2057 0.930 . S
C2052 H2038 0.930 . S
C2052 C2050 1.395 . S
C2052 C2055 1.403 . S
C2053 C2050 1.403 . S
C2053 C2054 1.524 . S
C2053 C2057 1.400 . S
C2054 H2039 0.960 . S
C2054 H2040 0.960 . S
C2054 H2041 0.960 . S
C2054 C2053 1.524 . S
C2055 C2052 1.403 . S
C2055 C2056 1.392 . S
C2055 C2059 1.495 . S
C2056 C2055 1.392 . S
C2056 C2057 1.385 . S
C2056 C2058 1.478 . S
C2057 H2051 0.930 . S
C2057 C2053 1.400 . S
C2057 C2056 1.385 . S
C2058 C2056 1.478 . S
C2058 C2060 1.381 . S
C2058 C2064 1.383 . S
C2059 C2055 1.495 . S
C2059 H2065 0.959 . S
C2059 H2066 0.961 . S
C2059 H2067 0.960 . S
C2060 C2058 1.381 . S
C2060 C2061 1.394 . S
C2060 H2068 0.930 . S
C2061 C2060 1.394 . S
C2061 C2062 1.383 . S
C2061 H2069 0.929 . S
C2062 C2061 1.383 . S
C2062 C2063 1.377 . S
C2063 H2047 0.930 . S
C2063 C2062 1.377 . S
C2063 C2064 1.379 . S
C2064 H2048 0.931 . S
C2064 C2058 1.383 . S
C2064 C2063 1.379 . S
H2065 C2059 0.959 . S
H2066 C2059 0.961 . S
H2067 C2059 0.960 . S
H2068 C2060 0.930 . S
H2069 C2061 0.929 . S
H2070 C2078 0.929 . S
H2071 C2080 0.930 . S
H2072 C2082 0.930 . S
H2073 C2085 0.929 . S
H2074 C2088 0.930 . S
H2075 C2090 0.960 . S
H2076 C2090 0.960 . S
H2077 C2090 0.960 . S
C2078 H2070 0.929 . S
C2078 C2079 1.377 . S
C2078 C2080 1.384 . S
C2079 C2078 1.377 . S
C2079 C2085 1.390 . S
C2080 H2071 0.930 . S
C2080 C2078 1.384 . S
C2080 C2081 1.372 . S
C2081 C2080 1.372 . S
C2081 C2082 1.400 . S
C2081 C2086 1.490 . S
C2082 H2072 0.930 . S
C2082 C2081 1.400 . S
C2082 C2085 1.386 . S
H2083 C2099 0.930 . S
H2084 C2100 0.931 . S
C2085 H2073 0.929 . S
C2085 C2079 1.390 . S
C2085 C2082 1.386 . S
C2086 C2081 1.490 . S
C2086 C2088 1.395 . S
C2086 C2089 1.403 . S
H2087 C2093 0.930 . S
C2088 H2074 0.930 . S
C2088 C2086 1.395 . S
C2088 C2091 1.403 . S
C2089 C2086 1.403 . S
C2089 C2090 1.524 . S
C2089 C2093 1.400 . S
C2090 H2075 0.960 . S
C2090 H2076 0.960 . S
C2090 H2077 0.960 . S
C2090 C2089 1.524 . S
C2091 C2088 1.403 . S
C2091 C2092 1.392 . S
C2091 C2095 1.495 . S
C2092 C2091 1.392 . S
C2092 C2093 1.385 . S
C2092 C2094 1.478 . S
C2093 H2087 0.930 . S
C2093 C2089 1.400 . S
C2093 C2092 1.385 . S
C2094 C2092 1.478 . S
C2094 C2096 1.381 . S
C2094 C2100 1.383 . S
C2095 C2091 1.495 . S
C2095 H2101 0.959 . S
C2095 H2102 0.961 . S
C2095 H2103 0.960 . S
C2096 C2094 1.381 . S
C2096 C2097 1.394 . S
C2096 H2104 0.930 . S
C2097 C2096 1.394 . S
C2097 C2098 1.383 . S
C2097 H2105 0.929 . S
C2098 C2097 1.383 . S
C2098 C2099 1.377 . S
C2099 H2083 0.930 . S
C2099 C2098 1.377 . S
C2099 C2100 1.379 . S
C2100 H2084 0.931 . S
C2100 C2094 1.383 . S
C2100 C2099 1.379 . S
H2101 C2095 0.959 . S
H2102 C2095 0.961 . S
H2103 C2095 0.960 . S
H2104 C2096 0.930 . S
H2105 C2097 0.929 . S
H2106 C2114 0.929 . S
H2107 C2116 0.930 . S
H2108 C2118 0.930 . S
H2109 C2121 0.929 . S
H2110 C2124 0.930 . S
H2111 C2126 0.960 . S
H2112 C2126 0.960 . S
H2113 C2126 0.960 . S
C2114 H2106 0.929 . S
C2114 C2115 1.377 . S
C2114 C2116 1.384 . S
C2115 C2114 1.377 . S
C2115 C2121 1.390 . S
C2116 H2107 0.930 . S
C2116 C2114 1.384 . S
C2116 C2117 1.372 . S
C2117 C2116 1.372 . S
C2117 C2118 1.400 . S
C2117 C2122 1.490 . S
C2118 H2108 0.930 . S
C2118 C2117 1.400 . S
C2118 C2121 1.386 . S
H2119 C2135 0.930 . S
H2120 C2136 0.931 . S
C2121 H2109 0.929 . S
C2121 C2115 1.390 . S
C2121 C2118 1.386 . S
C2122 C2117 1.490 . S
C2122 C2124 1.395 . S
C2122 C2125 1.403 . S
H2123 C2129 0.930 . S
C2124 H2110 0.930 . S
C2124 C2122 1.395 . S
C2124 C2127 1.403 . S
C2125 C2122 1.403 . S
C2125 C2126 1.524 . S
C2125 C2129 1.400 . S
C2126 H2111 0.960 . S
C2126 H2112 0.960 . S
C2126 H2113 0.960 . S
C2126 C2125 1.524 . S
C2127 C2124 1.403 . S
C2127 C2128 1.392 . S
C2127 C2131 1.495 . S
C2128 C2127 1.392 . S
C2128 C2129 1.385 . S
C2128 C2130 1.478 . S
C2129 H2123 0.930 . S
C2129 C2125 1.400 . S
C2129 C2128 1.385 . S
C2130 C2128 1.478 . S
C2130 C2132 1.381 . S
C2130 C2136 1.383 . S
C2131 C2127 1.495 . S
C2131 H2137 0.959 . S
C2131 H2138 0.961 . S
C2131 H2139 0.960 . S
C2132 C2130 1.381 . S
C2132 C2133 1.394 . S
C2132 H2140 0.930 . S
C2133 C2132 1.394 . S
C2133 C2134 1.383 . S
C2133 H2141 0.929 . S
C2134 C2133 1.383 . S
C2134 C2135 1.377 . S
C2135 H2119 0.930 . S
C2135 C2134 1.377 . S
C2135 C2136 1.379 . S
C2136 H2120 0.931 . S
C2136 C2130 1.383 . S
C2136 C2135 1.379 . S
H2137 C2131 0.959 . S
H2138 C2131 0.961 . S
H2139 C2131 0.960 . S
H2140 C2132 0.930 . S
H2141 C2133 0.929 . S
H2142 C2150 0.929 . S
H2143 C2152 0.930 . S
H2144 C2154 0.930 . S
H2145 C2157 0.929 . S
H2146 C2160 0.930 . S
H2147 C2162 0.960 . S
H2148 C2162 0.960 . S
H2149 C2162 0.960 . S
C2150 H2142 0.929 . S
C2150 C2151 1.377 . S
C2150 C2152 1.384 . S
C2151 C2150 1.377 . S
C2151 C2157 1.390 . S
C2152 H2143 0.930 . S
C2152 C2150 1.384 . S
C2152 C2153 1.372 . S
C2153 C2152 1.372 . S
C2153 C2154 1.400 . S
C2153 C2158 1.490 . S
C2154 H2144 0.930 . S
C2154 C2153 1.400 . S
C2154 C2157 1.386 . S
H2155 C2171 0.930 . S
H2156 C2172 0.931 . S
C2157 H2145 0.929 . S
C2157 C2151 1.390 . S
C2157 C2154 1.386 . S
C2158 C2153 1.490 . S
C2158 C2160 1.395 . S
C2158 C2161 1.403 . S
H2159 C2165 0.930 . S
C2160 H2146 0.930 . S
C2160 C2158 1.395 . S
C2160 C2163 1.403 . S
C2161 C2158 1.403 . S
C2161 C2162 1.524 . S
C2161 C2165 1.400 . S
C2162 H2147 0.960 . S
C2162 H2148 0.960 . S
C2162 H2149 0.960 . S
C2162 C2161 1.524 . S
C2163 C2160 1.403 . S
C2163 C2164 1.392 . S
C2163 C2167 1.495 . S
C2164 C2163 1.392 . S
C2164 C2165 1.385 . S
C2164 C2166 1.478 . S
C2165 H2159 0.930 . S
C2165 C2161 1.400 . S
C2165 C2164 1.385 . S
C2166 C2164 1.478 . S
C2166 C2168 1.381 . S
C2166 C2172 1.383 . S
C2167 C2163 1.495 . S
C2167 H2173 0.959 . S
C2167 H2174 0.961 . S
C2167 H2175 0.960 . S
C2168 C2166 1.381 . S
C2168 C2169 1.394 . S
C2168 H2176 0.930 . S
C2169 C2168 1.394 . S
C2169 C2170 1.383 . S
C2169 H2177 0.929 . S
C2170 C2169 1.383 . S
C2170 C2171 1.377 . S
C2171 H2155 0.930 . S
C2171 C2170 1.377 . S
C2171 C2172 1.379 . S
C2172 H2156 0.931 . S
C2172 C2166 1.383 . S
C2172 C2171 1.379 . S
H2173 C2167 0.959 . S
H2174 C2167 0.961 . S
H2175 C2167 0.960 . S
H2176 C2168 0.930 . S
H2177 C2169 0.929 . S
H2178 C2186 0.929 . S
H2179 C2188 0.930 . S
H2180 C2190 0.930 . S
H2181 C2193 0.929 . S
H2182 C2196 0.930 . S
H2183 C2198 0.960 . S
H2184 C2198 0.960 . S
H2185 C2198 0.960 . S
C2186 H2178 0.929 . S
C2186 C2187 1.377 . S
C2186 C2188 1.384 . S
C2187 C2186 1.377 . S
C2187 C2193 1.390 . S
C2188 H2179 0.930 . S
C2188 C2186 1.384 . S
C2188 C2189 1.372 . S
C2189 C2188 1.372 . S
C2189 C2190 1.400 . S
C2189 C2194 1.490 . S
C2190 H2180 0.930 . S
C2190 C2189 1.400 . S
C2190 C2193 1.386 . S
H2191 C2207 0.930 . S
H2192 C2208 0.931 . S
C2193 H2181 0.929 . S
C2193 C2187 1.390 . S
C2193 C2190 1.386 . S
C2194 C2189 1.490 . S
C2194 C2196 1.395 . S
C2194 C2197 1.403 . S
H2195 C2201 0.930 . S
C2196 H2182 0.930 . S
C2196 C2194 1.395 . S
C2196 C2199 1.403 . S
C2197 C2194 1.403 . S
C2197 C2198 1.524 . S
C2197 C2201 1.400 . S
C2198 H2183 0.960 . S
C2198 H2184 0.960 . S
C2198 H2185 0.960 . S
C2198 C2197 1.524 . S
C2199 C2196 1.403 . S
C2199 C2200 1.392 . S
C2199 C2203 1.495 . S
C2200 C2199 1.392 . S
C2200 C2201 1.385 . S
C2200 C2202 1.478 . S
C2201 H2195 0.930 . S
C2201 C2197 1.400 . S
C2201 C2200 1.385 . S
C2202 C2200 1.478 . S
C2202 C2204 1.381 . S
C2202 C2208 1.383 . S
C2203 C2199 1.495 . S
C2203 H2209 0.959 . S
C2203 H2210 0.961 . S
C2203 H2211 0.960 . S
C2204 C2202 1.381 . S
C2204 C2205 1.394 . S
C2204 H2212 0.930 . S
C2205 C2204 1.394 . S
C2205 C2206 1.383 . S
C2205 H2213 0.929 . S
C2206 C2205 1.383 . S
C2206 C2207 1.377 . S
C2207 H2191 0.930 . S
C2207 C2206 1.377 . S
C2207 C2208 1.379 . S
C2208 H2192 0.931 . S
C2208 C2202 1.383 . S
C2208 C2207 1.379 . S
H2209 C2203 0.959 . S
H2210 C2203 0.961 . S
H2211 C2203 0.960 . S
H2212 C2204 0.930 . S
H2213 C2205 0.929 . S
H2214 C2222 0.929 . S
H2215 C2224 0.930 . S
H2216 C2226 0.930 . S
H2217 C2229 0.929 . S
H2218 C2232 0.930 . S
H2219 C2234 0.960 . S
H2220 C2234 0.960 . S
H2221 C2234 0.960 . S
C2222 H2214 0.929 . S
C2222 C2223 1.377 . S
C2222 C2224 1.384 . S
C2223 C2222 1.377 . S
C2223 C2229 1.390 . S
C2224 H2215 0.930 . S
C2224 C2222 1.384 . S
C2224 C2225 1.372 . S
C2225 C2224 1.372 . S
C2225 C2226 1.400 . S
C2225 C2230 1.490 . S
C2226 H2216 0.930 . S
C2226 C2225 1.400 . S
C2226 C2229 1.386 . S
H2227 C2243 0.930 . S
H2228 C2244 0.931 . S
C2229 H2217 0.929 . S
C2229 C2223 1.390 . S
C2229 C2226 1.386 . S
C2230 C2225 1.490 . S
C2230 C2232 1.395 . S
C2230 C2233 1.403 . S
H2231 C2237 0.930 . S
C2232 H2218 0.930 . S
C2232 C2230 1.395 . S
C2232 C2235 1.403 . S
C2233 C2230 1.403 . S
C2233 C2234 1.524 . S
C2233 C2237 1.400 . S
C2234 H2219 0.960 . S
C2234 H2220 0.960 . S
C2234 H2221 0.960 . S
C2234 C2233 1.524 . S
C2235 C2232 1.403 . S
C2235 C2236 1.392 . S
C2235 C2239 1.495 . S
C2236 C2235 1.392 . S
C2236 C2237 1.385 . S
C2236 C2238 1.478 . S
C2237 H2231 0.930 . S
C2237 C2233 1.400 . S
C2237 C2236 1.385 . S
C2238 C2236 1.478 . S
C2238 C2240 1.381 . S
C2238 C2244 1.383 . S
C2239 C2235 1.495 . S
C2239 H2245 0.959 . S
C2239 H2246 0.961 . S
C2239 H2247 0.960 . S
C2240 C2238 1.381 . S
C2240 C2241 1.394 . S
C2240 H2248 0.930 . S
C2241 C2240 1.394 . S
C2241 C2242 1.383 . S
C2241 H2249 0.929 . S
C2242 C2241 1.383 . S
C2242 C2243 1.377 . S
C2243 H2227 0.930 . S
C2243 C2242 1.377 . S
C2243 C2244 1.379 . S
C2244 H2228 0.931 . S
C2244 C2238 1.383 . S
C2244 C2243 1.379 . S
H2245 C2239 0.959 . S
H2246 C2239 0.961 . S
H2247 C2239 0.960 . S
H2248 C2240 0.930 . S
H2249 C2241 0.929 . S
H2250 C2258 0.929 . S
H2251 C2260 0.930 . S
H2252 C2262 0.930 . S
H2253 C2265 0.929 . S
H2254 C2268 0.930 . S
H2255 C2270 0.960 . S
H2256 C2270 0.960 . S
H2257 C2270 0.960 . S
C2258 H2250 0.929 . S
C2258 C2259 1.377 . S
C2258 C2260 1.384 . S
C2259 C2258 1.377 . S
C2259 C2265 1.390 . S
C2260 H2251 0.930 . S
C2260 C2258 1.384 . S
C2260 C2261 1.372 . S
C2261 C2260 1.372 . S
C2261 C2262 1.400 . S
C2261 C2266 1.490 . S
C2262 H2252 0.930 . S
C2262 C2261 1.400 . S
C2262 C2265 1.386 . S
H2263 C2279 0.930 . S
H2264 C2280 0.931 . S
C2265 H2253 0.929 . S
C2265 C2259 1.390 . S
C2265 C2262 1.386 . S
C2266 C2261 1.490 . S
C2266 C2268 1.395 . S
C2266 C2269 1.403 . S
H2267 C2273 0.930 . S
C2268 H2254 0.930 . S
C2268 C2266 1.395 . S
C2268 C2271 1.403 . S
C2269 C2266 1.403 . S
C2269 C2270 1.524 . S
C2269 C2273 1.400 . S
C2270 H2255 0.960 . S
C2270 H2256 0.960 . S
C2270 H2257 0.960 . S
C2270 C2269 1.524 . S
C2271 C2268 1.403 . S
C2271 C2272 1.392 . S
C2271 C2275 1.495 . S
C2272 C2271 1.392 . S
C2272 C2273 1.385 . S
C2272 C2274 1.478 . S
C2273 H2267 0.930 . S
C2273 C2269 1.400 . S
C2273 C2272 1.385 . S
C2274 C2272 1.478 . S
C2274 C2276 1.381 . S
C2274 C2280 1.383 . S
C2275 C2271 1.495 . S
C2275 H2281 0.959 . S
C2275 H2282 0.961 . S
C2275 H2283 0.960 . S
C2276 C2274 1.381 . S
C2276 C2277 1.394 . S
C2276 H2284 0.930 . S
C2277 C2276 1.394 . S
C2277 C2278 1.383 . S
C2277 H2285 0.929 . S
C2278 C2277 1.383 . S
C2278 C2279 1.377 . S
C2279 H2263 0.930 . S
C2279 C2278 1.377 . S
C2279 C2280 1.379 . S
C2280 H2264 0.931 . S
C2280 C2274 1.383 . S
C2280 C2279 1.379 . S
H2281 C2275 0.959 . S
H2282 C2275 0.961 . S
H2283 C2275 0.960 . S
H2284 C2276 0.930 . S
H2285 C2277 0.929 . S
H2286 C2294 0.929 . S
H2287 C2296 0.930 . S
H2288 C2298 0.930 . S
H2289 C2301 0.929 . S
H2290 C2304 0.930 . S
H2291 C2306 0.960 . S
H2292 C2306 0.960 . S
H2293 C2306 0.960 . S
C2294 H2286 0.929 . S
C2294 C2295 1.377 . S
C2294 C2296 1.384 . S
C2295 C2294 1.377 . S
C2295 C2301 1.390 . S
C2296 H2287 0.930 . S
C2296 C2294 1.384 . S
C2296 C2297 1.372 . S
C2297 C2296 1.372 . S
C2297 C2298 1.400 . S
C2297 C2302 1.490 . S
C2298 H2288 0.930 . S
C2298 C2297 1.400 . S
C2298 C2301 1.386 . S
H2299 C2315 0.930 . S
H2300 C2316 0.931 . S
C2301 H2289 0.929 . S
C2301 C2295 1.390 . S
C2301 C2298 1.386 . S
C2302 C2297 1.490 . S
C2302 C2304 1.395 . S
C2302 C2305 1.403 . S
H2303 C2309 0.930 . S
C2304 H2290 0.930 . S
C2304 C2302 1.395 . S
C2304 C2307 1.403 . S
C2305 C2302 1.403 . S
C2305 C2306 1.524 . S
C2305 C2309 1.400 . S
C2306 H2291 0.960 . S
C2306 H2292 0.960 . S
C2306 H2293 0.960 . S
C2306 C2305 1.524 . S
C2307 C2304 1.403 . S
C2307 C2308 1.392 . S
C2307 C2311 1.495 . S
C2308 C2307 1.392 . S
C2308 C2309 1.385 . S
C2308 C2310 1.478 . S
C2309 H2303 0.930 . S
C2309 C2305 1.400 . S
C2309 C2308 1.385 . S
C2310 C2308 1.478 . S
C2310 C2312 1.381 . S
C2310 C2316 1.383 . S
C2311 C2307 1.495 . S
C2311 H2317 0.959 . S
C2311 H2318 0.961 . S
C2311 H2319 0.960 . S
C2312 C2310 1.381 . S
C2312 C2313 1.394 . S
C2312 H2320 0.930 . S
C2313 C2312 1.394 . S
C2313 C2314 1.383 . S
C2313 H2321 0.929 . S
C2314 C2313 1.383 . S
C2314 C2315 1.377 . S
C2315 H2299 0.930 . S
C2315 C2314 1.377 . S
C2315 C2316 1.379 . S
C2316 H2300 0.931 . S
C2316 C2310 1.383 . S
C2316 C2315 1.379 . S
H2317 C2311 0.959 . S
H2318 C2311 0.961 . S
H2319 C2311 0.960 . S
H2320 C2312 0.930 . S
H2321 C2313 0.929 . S
H2322 C2330 0.929 . S
H2323 C2332 0.930 . S
H2324 C2334 0.930 . S
H2325 C2337 0.929 . S
H2326 C2340 0.930 . S
H2327 C2342 0.960 . S
H2328 C2342 0.960 . S
H2329 C2342 0.960 . S
C2330 H2322 0.929 . S
C2330 C2331 1.377 . S
C2330 C2332 1.384 . S
C2331 C2330 1.377 . S
C2331 C2337 1.390 . S
C2332 H2323 0.930 . S
C2332 C2330 1.384 . S
C2332 C2333 1.372 . S
C2333 C2332 1.372 . S
C2333 C2334 1.400 . S
C2333 C2338 1.490 . S
C2334 H2324 0.930 . S
C2334 C2333 1.400 . S
C2334 C2337 1.386 . S
H2335 C2351 0.930 . S
H2336 C2352 0.931 . S
C2337 H2325 0.929 . S
C2337 C2331 1.390 . S
C2337 C2334 1.386 . S
C2338 C2333 1.490 . S
C2338 C2340 1.395 . S
C2338 C2341 1.403 . S
H2339 C2345 0.930 . S
C2340 H2326 0.930 . S
C2340 C2338 1.395 . S
C2340 C2343 1.403 . S
C2341 C2338 1.403 . S
C2341 C2342 1.524 . S
C2341 C2345 1.400 . S
C2342 H2327 0.960 . S
C2342 H2328 0.960 . S
C2342 H2329 0.960 . S
C2342 C2341 1.524 . S
C2343 C2340 1.403 . S
C2343 C2344 1.392 . S
C2343 C2347 1.495 . S
C2344 C2343 1.392 . S
C2344 C2345 1.385 . S
C2344 C2346 1.478 . S
C2345 H2339 0.930 . S
C2345 C2341 1.400 . S
C2345 C2344 1.385 . S
C2346 C2344 1.478 . S
C2346 C2348 1.381 . S
C2346 C2352 1.383 . S
C2347 C2343 1.495 . S
C2347 H2353 0.959 . S
C2347 H2354 0.961 . S
C2347 H2355 0.960 . S
C2348 C2346 1.381 . S
C2348 C2349 1.394 . S
C2348 H2356 0.930 . S
C2349 C2348 1.394 . S
C2349 C2350 1.383 . S
C2349 H2357 0.929 . S
C2350 C2349 1.383 . S
C2350 C2351 1.377 . S
C2351 H2335 0.930 . S
C2351 C2350 1.377 . S
C2351 C2352 1.379 . S
C2352 H2336 0.931 . S
C2352 C2346 1.383 . S
C2352 C2351 1.379 . S
H2353 C2347 0.959 . S
H2354 C2347 0.961 . S
H2355 C2347 0.960 . S
H2356 C2348 0.930 . S
H2357 C2349 0.929 . S
H2358 C2366 0.929 . S
H2359 C2368 0.930 . S
H2360 C2370 0.930 . S
H2361 C2373 0.929 . S
H2362 C2376 0.930 . S
H2363 C2378 0.960 . S
H2364 C2378 0.960 . S
H2365 C2378 0.960 . S
C2366 H2358 0.929 . S
C2366 C2367 1.377 . S
C2366 C2368 1.384 . S
C2367 C2366 1.377 . S
C2367 C2373 1.390 . S
C2368 H2359 0.930 . S
C2368 C2366 1.384 . S
C2368 C2369 1.372 . S
C2369 C2368 1.372 . S
C2369 C2370 1.400 . S
C2369 C2374 1.490 . S
C2370 H2360 0.930 . S
C2370 C2369 1.400 . S
C2370 C2373 1.386 . S
H2371 C2387 0.930 . S
H2372 C2388 0.931 . S
C2373 H2361 0.929 . S
C2373 C2367 1.390 . S
C2373 C2370 1.386 . S
C2374 C2369 1.490 . S
C2374 C2376 1.395 . S
C2374 C2377 1.403 . S
H2375 C2381 0.930 . S
C2376 H2362 0.930 . S
C2376 C2374 1.395 . S
C2376 C2379 1.403 . S
C2377 C2374 1.403 . S
C2377 C2378 1.524 . S
C2377 C2381 1.400 . S
C2378 H2363 0.960 . S
C2378 H2364 0.960 . S
C2378 H2365 0.960 . S
C2378 C2377 1.524 . S
C2379 C2376 1.403 . S
C2379 C2380 1.392 . S
C2379 C2383 1.495 . S
C2380 C2379 1.392 . S
C2380 C2381 1.385 . S
C2380 C2382 1.478 . S
C2381 H2375 0.930 . S
C2381 C2377 1.400 . S
C2381 C2380 1.385 . S
C2382 C2380 1.478 . S
C2382 C2384 1.381 . S
C2382 C2388 1.383 . S
C2383 C2379 1.495 . S
C2383 H2389 0.959 . S
C2383 H2390 0.961 . S
C2383 H2391 0.960 . S
C2384 C2382 1.381 . S
C2384 C2385 1.394 . S
C2384 H2392 0.930 . S
C2385 C2384 1.394 . S
C2385 C2386 1.383 . S
C2385 H2393 0.929 . S
C2386 C2385 1.383 . S
C2386 C2387 1.377 . S
C2387 H2371 0.930 . S
C2387 C2386 1.377 . S
C2387 C2388 1.379 . S
C2388 H2372 0.931 . S
C2388 C2382 1.383 . S
C2388 C2387 1.379 . S
H2389 C2383 0.959 . S
H2390 C2383 0.961 . S
H2391 C2383 0.960 . S
H2392 C2384 0.930 . S
H2393 C2385 0.929 . S
H2394 C2402 0.929 . S
H2395 C2404 0.930 . S
H2396 C2406 0.930 . S
H2397 C2409 0.929 . S
H2398 C2412 0.930 . S
H2399 C2414 0.960 . S
H2400 C2414 0.960 . S
H2401 C2414 0.960 . S
C2402 H2394 0.929 . S
C2402 C2403 1.377 . S
C2402 C2404 1.384 . S
C2403 C2402 1.377 . S
C2403 C2409 1.390 . S
C2404 H2395 0.930 . S
C2404 C2402 1.384 . S
C2404 C2405 1.372 . S
C2405 C2404 1.372 . S
C2405 C2406 1.400 . S
C2405 C2410 1.490 . S
C2406 H2396 0.930 . S
C2406 C2405 1.400 . S
C2406 C2409 1.386 . S
H2407 C2423 0.930 . S
H2408 C2424 0.931 . S
C2409 H2397 0.929 . S
C2409 C2403 1.390 . S
C2409 C2406 1.386 . S
C2410 C2405 1.490 . S
C2410 C2412 1.395 . S
C2410 C2413 1.403 . S
H2411 C2417 0.930 . S
C2412 H2398 0.930 . S
C2412 C2410 1.395 . S
C2412 C2415 1.403 . S
C2413 C2410 1.403 . S
C2413 C2414 1.524 . S
C2413 C2417 1.400 . S
C2414 H2399 0.960 . S
C2414 H2400 0.960 . S
C2414 H2401 0.960 . S
C2414 C2413 1.524 . S
C2415 C2412 1.403 . S
C2415 C2416 1.392 . S
C2415 C2419 1.495 . S
C2416 C2415 1.392 . S
C2416 C2417 1.385 . S
C2416 C2418 1.478 . S
C2417 H2411 0.930 . S
C2417 C2413 1.400 . S
C2417 C2416 1.385 . S
C2418 C2416 1.478 . S
C2418 C2420 1.381 . S
C2418 C2424 1.383 . S
C2419 C2415 1.495 . S
C2419 H2425 0.959 . S
C2419 H2426 0.961 . S
C2419 H2427 0.960 . S
C2420 C2418 1.381 . S
C2420 C2421 1.394 . S
C2420 H2428 0.930 . S
C2421 C2420 1.394 . S
C2421 C2422 1.383 . S
C2421 H2429 0.929 . S
C2422 C2421 1.383 . S
C2422 C2423 1.377 . S
C2423 H2407 0.930 . S
C2423 C2422 1.377 . S
C2423 C2424 1.379 . S
C2424 H2408 0.931 . S
C2424 C2418 1.383 . S
C2424 C2423 1.379 . S
H2425 C2419 0.959 . S
H2426 C2419 0.961 . S
H2427 C2419 0.960 . S
H2428 C2420 0.930 . S
H2429 C2421 0.929 . S
H2430 C2438 0.929 . S
H2431 C2440 0.930 . S
H2432 C2442 0.930 . S
H2433 C2445 0.929 . S
H2434 C2448 0.930 . S
H2435 C2450 0.960 . S
H2436 C2450 0.960 . S
H2437 C2450 0.960 . S
C2438 H2430 0.929 . S
C2438 C2439 1.377 . S
C2438 C2440 1.384 . S
C2439 C2438 1.377 . S
C2439 C2445 1.390 . S
C2440 H2431 0.930 . S
C2440 C2438 1.384 . S
C2440 C2441 1.372 . S
C2441 C2440 1.372 . S
C2441 C2442 1.400 . S
C2441 C2446 1.490 . S
C2442 H2432 0.930 . S
C2442 C2441 1.400 . S
C2442 C2445 1.386 . S
H2443 C2459 0.930 . S
H2444 C2460 0.931 . S
C2445 H2433 0.929 . S
C2445 C2439 1.390 . S
C2445 C2442 1.386 . S
C2446 C2441 1.490 . S
C2446 C2448 1.395 . S
C2446 C2449 1.403 . S
H2447 C2453 0.930 . S
C2448 H2434 0.930 . S
C2448 C2446 1.395 . S
C2448 C2451 1.403 . S
C2449 C2446 1.403 . S
C2449 C2450 1.524 . S
C2449 C2453 1.400 . S
C2450 H2435 0.960 . S
C2450 H2436 0.960 . S
C2450 H2437 0.960 . S
C2450 C2449 1.524 . S
C2451 C2448 1.403 . S
C2451 C2452 1.392 . S
C2451 C2455 1.495 . S
C2452 C2451 1.392 . S
C2452 C2453 1.385 . S
C2452 C2454 1.478 . S
C2453 H2447 0.930 . S
C2453 C2449 1.400 . S
C2453 C2452 1.385 . S
C2454 C2452 1.478 . S
C2454 C2456 1.381 . S
C2454 C2460 1.383 . S
C2455 C2451 1.495 . S
C2455 H2461 0.959 . S
C2455 H2462 0.961 . S
C2455 H2463 0.960 . S
C2456 C2454 1.381 . S
C2456 C2457 1.394 . S
C2456 H2464 0.930 . S
C2457 C2456 1.394 . S
C2457 C2458 1.383 . S
C2457 H2465 0.929 . S
C2458 C2457 1.383 . S
C2458 C2459 1.377 . S
C2459 H2443 0.930 . S
C2459 C2458 1.377 . S
C2459 C2460 1.379 . S
C2460 H2444 0.931 . S
C2460 C2454 1.383 . S
C2460 C2459 1.379 . S
H2461 C2455 0.959 . S
H2462 C2455 0.961 . S
H2463 C2455 0.960 . S
H2464 C2456 0.930 . S
H2465 C2457 0.929 . S
H2466 C2474 0.929 1_554 S
H2467 C2476 0.930 . S
H2468 C2478 0.930 . S
H2469 C2481 0.929 . S
H2470 C2484 0.930 . S
H2471 C2486 0.960 . S
H2472 C2486 0.960 . S
H2473 C2486 0.960 . S
C2474 H2466 0.929 1_556 S
C2474 C2475 1.377 . S
C2474 C2476 1.384 . S
C2475 C2474 1.377 . S
C2475 C2481 1.390 . S
C2476 H2467 0.930 . S
C2476 C2474 1.384 . S
C2476 C2477 1.372 . S
C2477 C2476 1.372 . S
C2477 C2478 1.400 . S
C2477 C2482 1.490 . S
C2478 H2468 0.930 . S
C2478 C2477 1.400 . S
C2478 C2481 1.386 . S
H2479 C2495 0.930 . S
H2480 C2496 0.931 . S
C2481 H2469 0.929 . S
C2481 C2475 1.390 . S
C2481 C2478 1.386 . S
C2482 C2477 1.490 . S
C2482 C2484 1.395 . S
C2482 C2485 1.403 . S
H2483 C2489 0.930 . S
C2484 H2470 0.930 . S
C2484 C2482 1.395 . S
C2484 C2487 1.403 . S
C2485 C2482 1.403 . S
C2485 C2486 1.524 . S
C2485 C2489 1.400 . S
C2486 H2471 0.960 . S
C2486 H2472 0.960 . S
C2486 H2473 0.960 . S
C2486 C2485 1.524 . S
C2487 C2484 1.403 . S
C2487 C2488 1.392 . S
C2487 C2491 1.495 . S
C2488 C2487 1.392 . S
C2488 C2489 1.385 . S
C2488 C2490 1.478 . S
C2489 H2483 0.930 . S
C2489 C2485 1.400 . S
C2489 C2488 1.385 . S
C2490 C2488 1.478 . S
C2490 C2492 1.381 . S
C2490 C2496 1.383 . S
C2491 C2487 1.495 . S
C2491 H2497 0.959 . S
C2491 H2498 0.961 . S
C2491 H2499 0.960 . S
C2492 C2490 1.381 . S
C2492 C2493 1.394 . S
C2492 H2500 0.930 . S
C2493 C2492 1.394 . S
C2493 C2494 1.383 . S
C2493 H2501 0.929 . S
C2494 C2493 1.383 . S
C2494 C2495 1.377 . S
C2495 H2479 0.930 . S
C2495 C2494 1.377 . S
C2495 C2496 1.379 . S
C2496 H2480 0.931 . S
C2496 C2490 1.383 . S
C2496 C2495 1.379 . S
H2497 C2491 0.959 . S
H2498 C2491 0.961 . S
H2499 C2491 0.960 . S
H2500 C2492 0.930 . S
H2501 C2493 0.929 . S
H2502 C2510 0.929 1_554 S
H2503 C2512 0.930 . S
H2504 C2514 0.930 . S
H2505 C2517 0.929 . S
H2506 C2520 0.930 . S
H2507 C2522 0.960 . S
H2508 C2522 0.960 . S
H2509 C2522 0.960 . S
C2510 H2502 0.929 1_556 S
C2510 C2511 1.377 . S
C2510 C2512 1.384 . S
C2511 C2510 1.377 . S
C2511 C2517 1.390 . S
C2512 H2503 0.930 . S
C2512 C2510 1.384 . S
C2512 C2513 1.372 . S
C2513 C2512 1.372 . S
C2513 C2514 1.400 . S
C2513 C2518 1.490 . S
C2514 H2504 0.930 . S
C2514 C2513 1.400 . S
C2514 C2517 1.386 . S
H2515 C2531 0.930 . S
H2516 C2532 0.931 . S
C2517 H2505 0.929 . S
C2517 C2511 1.390 . S
C2517 C2514 1.386 . S
C2518 C2513 1.490 . S
C2518 C2520 1.395 . S
C2518 C2521 1.403 . S
H2519 C2525 0.930 . S
C2520 H2506 0.930 . S
C2520 C2518 1.395 . S
C2520 C2523 1.403 . S
C2521 C2518 1.403 . S
C2521 C2522 1.524 . S
C2521 C2525 1.400 . S
C2522 H2507 0.960 . S
C2522 H2508 0.960 . S
C2522 H2509 0.960 . S
C2522 C2521 1.524 . S
C2523 C2520 1.403 . S
C2523 C2524 1.392 . S
C2523 C2527 1.495 . S
C2524 C2523 1.392 . S
C2524 C2525 1.385 . S
C2524 C2526 1.478 . S
C2525 H2519 0.930 . S
C2525 C2521 1.400 . S
C2525 C2524 1.385 . S
C2526 C2524 1.478 . S
C2526 C2528 1.381 . S
C2526 C2532 1.383 . S
C2527 C2523 1.495 . S
C2527 H2533 0.959 . S
C2527 H2534 0.961 . S
C2527 H2535 0.960 . S
C2528 C2526 1.381 . S
C2528 C2529 1.394 . S
C2528 H2536 0.930 . S
C2529 C2528 1.394 . S
C2529 C2530 1.383 . S
C2529 H2537 0.929 . S
C2530 C2529 1.383 . S
C2530 C2531 1.377 . S
C2531 H2515 0.930 . S
C2531 C2530 1.377 . S
C2531 C2532 1.379 . S
C2532 H2516 0.931 . S
C2532 C2526 1.383 . S
C2532 C2531 1.379 . S
H2533 C2527 0.959 . S
H2534 C2527 0.961 . S
H2535 C2527 0.960 . S
H2536 C2528 0.930 . S
H2537 C2529 0.929 . S
H2538 C2546 0.973 . S
H2539 C2548 0.930 . S
H2540 C2550 0.930 . S
H2541 C2553 0.929 . S
H2542 C2556 0.930 . S
H2543 C2558 0.960 . S
H2544 C2558 0.960 . S
H2545 C2558 0.960 . S
C2546 H2538 0.973 . S
C2546 C2547 1.377 . S
C2546 C2548 1.384 . S
C2547 C2546 1.377 . S
C2547 C2553 1.390 . S
C2548 H2539 0.930 . S
C2548 C2546 1.384 . S
C2548 C2549 1.372 . S
C2549 C2548 1.372 . S
C2549 C2550 1.400 . S
C2549 C2554 1.490 . S
C2550 H2540 0.930 . S
C2550 C2549 1.400 . S
C2550 C2553 1.386 . S
H2551 C2567 0.930 . S
H2552 C2568 0.931 . S
C2553 H2541 0.929 . S
C2553 C2547 1.390 . S
C2553 C2550 1.386 . S
C2554 C2549 1.490 . S
C2554 C2556 1.395 . S
C2554 C2557 1.403 . S
H2555 C2561 0.930 . S
C2556 H2542 0.930 . S
C2556 C2554 1.395 . S
C2556 C2559 1.403 . S
C2557 C2554 1.403 . S
C2557 C2558 1.524 . S
C2557 C2561 1.400 . S
C2558 H2543 0.960 . S
C2558 H2544 0.960 . S
C2558 H2545 0.960 . S
C2558 C2557 1.524 . S
C2559 C2556 1.403 . S
C2559 C2560 1.392 . S
C2559 C2563 1.495 . S
C2560 C2559 1.392 . S
C2560 C2561 1.385 . S
C2560 C2562 1.478 . S
C2561 H2555 0.930 . S
C2561 C2557 1.400 . S
C2561 C2560 1.385 . S
C2562 C2560 1.478 . S
C2562 C2564 1.381 . S
C2562 C2568 1.383 . S
C2563 C2559 1.495 . S
C2563 H2569 0.959 . S
C2563 H2570 0.961 . S
C2563 H2571 0.960 . S
C2564 C2562 1.381 . S
C2564 C2565 1.394 . S
C2564 H2572 0.930 . S
C2565 C2564 1.394 . S
C2565 C2566 1.383 . S
C2565 H2573 0.929 . S
C2566 C2565 1.383 . S
C2566 C2567 1.377 . S
C2567 H2551 0.930 . S
C2567 C2566 1.377 . S
C2567 C2568 1.379 . S
C2568 H2552 0.931 . S
C2568 C2562 1.383 . S
C2568 C2567 1.379 . S
H2569 C2563 0.959 . S
H2570 C2563 0.961 . S
H2571 C2563 0.960 . S
H2572 C2564 0.930 . S
H2573 C2565 0.929 . S
H2574 C2582 0.929 . S
H2575 C2584 0.930 . S
H2576 C2586 0.930 . S
H2577 C2589 0.929 1_554 S
H2578 C2592 0.930 . S
H2579 C2594 0.960 . S
H2580 C2594 0.960 . S
H2581 C2594 0.960 . S
C2582 H2574 0.929 . S
C2582 C2583 1.377 . S
C2582 C2584 1.384 . S
C2583 C2582 1.377 . S
C2583 C2589 1.390 . S
C2584 H2575 0.930 . S
C2584 C2582 1.384 . S
C2584 C2585 1.372 . S
C2585 C2584 1.372 . S
C2585 C2586 1.400 . S
C2585 C2590 1.490 . S
C2586 H2576 0.930 . S
C2586 C2585 1.400 . S
C2586 C2589 1.386 . S
H2587 C2603 0.930 . S
H2588 C2604 0.931 . S
C2589 H2577 0.929 1_556 S
C2589 C2583 1.390 . S
C2589 C2586 1.386 . S
C2590 C2585 1.490 . S
C2590 C2592 1.395 . S
C2590 C2593 1.403 . S
H2591 C2597 0.930 . S
C2592 H2578 0.930 . S
C2592 C2590 1.395 . S
C2592 C2595 1.403 . S
C2593 C2590 1.403 . S
C2593 C2594 1.524 . S
C2593 C2597 1.400 . S
C2594 H2579 0.960 . S
C2594 H2580 0.960 . S
C2594 H2581 0.960 . S
C2594 C2593 1.524 . S
C2595 C2592 1.403 . S
C2595 C2596 1.392 . S
C2595 C2599 1.495 . S
C2596 C2595 1.392 . S
C2596 C2597 1.385 . S
C2596 C2598 1.478 . S
C2597 H2591 0.930 . S
C2597 C2593 1.400 . S
C2597 C2596 1.385 . S
C2598 C2596 1.478 . S
C2598 C2600 1.381 . S
C2598 C2604 1.383 . S
C2599 C2595 1.495 . S
C2599 H2605 0.959 . S
C2599 H2606 0.961 . S
C2599 H2607 0.960 . S
C2600 C2598 1.381 . S
C2600 C2601 1.394 . S
C2600 H2608 0.930 . S
C2601 C2600 1.394 . S
C2601 C2602 1.383 . S
C2601 H2609 0.929 . S
C2602 C2601 1.383 . S
C2602 C2603 1.377 . S
C2603 H2587 0.930 . S
C2603 C2602 1.377 . S
C2603 C2604 1.379 . S
C2604 H2588 0.931 . S
C2604 C2598 1.383 . S
C2604 C2603 1.379 . S
H2605 C2599 0.959 . S
H2606 C2599 0.961 . S
H2607 C2599 0.960 . S
H2608 C2600 0.930 . S
H2609 C2601 0.929 . S
H2610 C2618 0.929 1_554 S
H2611 C2620 0.930 . S
H2612 C2622 0.930 . S
H2613 C2625 0.929 . S
H2614 C2628 0.930 . S
H2615 C2630 0.960 . S
H2616 C2630 0.960 . S
H2617 C2630 0.960 . S
C2618 H2610 0.929 1_556 S
C2618 C2619 1.377 . S
C2618 C2620 1.384 . S
C2619 C2618 1.377 . S
C2619 C2625 1.390 . S
C2620 H2611 0.930 . S
C2620 C2618 1.384 . S
C2620 C2621 1.372 . S
C2621 C2620 1.372 . S
C2621 C2622 1.400 . S
C2621 C2626 1.490 . S
C2622 H2612 0.930 . S
C2622 C2621 1.400 . S
C2622 C2625 1.386 . S
H2623 C2639 0.930 . S
H2624 C2640 0.931 . S
C2625 H2613 0.929 . S
C2625 C2619 1.390 . S
C2625 C2622 1.386 . S
C2626 C2621 1.490 . S
C2626 C2628 1.395 . S
C2626 C2629 1.403 . S
H2627 C2633 0.930 . S
C2628 H2614 0.930 . S
C2628 C2626 1.395 . S
C2628 C2631 1.403 . S
C2629 C2626 1.403 . S
C2629 C2630 1.524 . S
C2629 C2633 1.400 . S
C2630 H2615 0.960 . S
C2630 H2616 0.960 . S
C2630 H2617 0.960 . S
C2630 C2629 1.524 . S
C2631 C2628 1.403 . S
C2631 C2632 1.392 . S
C2631 C2635 1.495 . S
C2632 C2631 1.392 . S
C2632 C2633 1.385 . S
C2632 C2634 1.478 . S
C2633 H2627 0.930 . S
C2633 C2629 1.400 . S
C2633 C2632 1.385 . S
C2634 C2632 1.478 . S
C2634 C2636 1.381 . S
C2634 C2640 1.383 . S
C2635 C2631 1.495 . S
C2635 H2641 0.959 . S
C2635 H2642 0.961 . S
C2635 H2643 0.960 . S
C2636 C2634 1.381 . S
C2636 C2637 1.394 . S
C2636 H2644 0.930 . S
C2637 C2636 1.394 . S
C2637 C2638 1.383 . S
C2637 H2645 0.929 . S
C2638 C2637 1.383 . S
C2638 C2639 1.377 . S
C2639 H2623 0.930 . S
C2639 C2638 1.377 . S
C2639 C2640 1.379 . S
C2640 H2624 0.931 . S
C2640 C2634 1.383 . S
C2640 C2639 1.379 . S
H2641 C2635 0.959 . S
H2642 C2635 0.961 . S
H2643 C2635 0.960 . S
H2644 C2636 0.930 . S
H2645 C2637 0.929 . S
H2646 C2654 0.864 1_554 S
H2647 C2656 0.930 . S
H2648 C2658 0.930 . S
H2649 C2661 0.929 . S
H2650 C2664 0.930 . S
H2651 C2666 0.960 . S
H2652 C2666 0.960 . S
H2653 C2666 0.960 . S
C2654 H2646 0.864 1_556 S
C2654 C2655 1.411 . S
C2654 C2656 1.417 . S
C2655 C2654 1.411 . S
C2655 C2661 1.390 . S
C2656 H2647 0.930 . S
C2656 C2654 1.417 . S
C2656 C2657 1.372 . S
C2657 C2656 1.372 . S
C2657 C2658 1.400 . S
C2657 C2662 1.490 . S
C2658 H2648 0.930 . S
C2658 C2657 1.400 . S
C2658 C2661 1.386 . S
H2659 C2675 0.930 . S
H2660 C2676 0.931 . S
C2661 H2649 0.929 . S
C2661 C2655 1.390 . S
C2661 C2658 1.386 . S
C2662 C2657 1.490 . S
C2662 C2664 1.395 . S
C2662 C2665 1.403 . S
H2663 C2669 0.930 . S
C2664 H2650 0.930 . S
C2664 C2662 1.395 . S
C2664 C2667 1.403 . S
C2665 C2662 1.403 . S
C2665 C2666 1.524 . S
C2665 C2669 1.400 . S
C2666 H2651 0.960 . S
C2666 H2652 0.960 . S
C2666 H2653 0.960 . S
C2666 C2665 1.524 . S
C2667 C2664 1.403 . S
C2667 C2668 1.392 . S
C2667 C2671 1.495 . S
C2668 C2667 1.392 . S
C2668 C2669 1.385 . S
C2668 C2670 1.478 . S
C2669 H2663 0.930 . S
C2669 C2665 1.400 . S
C2669 C2668 1.385 . S
C2670 C2668 1.478 . S
C2670 C2672 1.381 . S
C2670 C2676 1.383 . S
C2671 C2667 1.495 . S
C2671 H2677 0.959 . S
C2671 H2678 0.961 . S
C2671 H2679 0.960 . S
C2672 C2670 1.381 . S
C2672 C2673 1.394 . S
C2672 H2680 0.930 . S
C2673 C2672 1.394 . S
C2673 C2674 1.383 . S
C2673 H2681 0.929 . S
C2674 C2673 1.383 . S
C2674 C2675 1.377 . S
C2675 H2659 0.930 . S
C2675 C2674 1.377 . S
C2675 C2676 1.379 . S
C2676 H2660 0.931 . S
C2676 C2670 1.383 . S
C2676 C2675 1.379 . S
H2677 C2671 0.959 . S
H2678 C2671 0.961 . S
H2679 C2671 0.960 . S
H2680 C2672 0.930 . S
H2681 C2673 0.929 . S
H2682 C2690 0.929 . S
H2683 C2692 0.930 . S
H2684 C2694 0.930 . S
H2685 C2697 0.929 . S
H2686 C2700 0.930 . S
H2687 C2702 0.960 . S
H2688 C2702 0.960 . S
H2689 C2702 0.960 . S
C2690 H2682 0.929 . S
C2690 C2691 1.377 . S
C2690 C2692 1.384 . S
C2691 C2690 1.377 . S
C2691 C2697 1.390 . S
C2692 H2683 0.930 . S
C2692 C2690 1.384 . S
C2692 C2693 1.372 . S
C2693 C2692 1.372 . S
C2693 C2694 1.400 . S
C2693 C2698 1.490 . S
C2694 H2684 0.930 . S
C2694 C2693 1.400 . S
C2694 C2697 1.386 . S
H2695 C2711 0.930 . S
H2696 C2712 0.931 . S
C2697 H2685 0.929 . S
C2697 C2691 1.390 . S
C2697 C2694 1.386 . S
C2698 C2693 1.490 . S
C2698 C2700 1.395 . S
C2698 C2701 1.403 . S
H2699 C2705 0.930 . S
C2700 H2686 0.930 . S
C2700 C2698 1.395 . S
C2700 C2703 1.403 . S
C2701 C2698 1.403 . S
C2701 C2702 1.524 . S
C2701 C2705 1.400 . S
C2702 H2687 0.960 . S
C2702 H2688 0.960 . S
C2702 H2689 0.960 . S
C2702 C2701 1.524 . S
C2703 C2700 1.403 . S
C2703 C2704 1.392 . S
C2703 C2707 1.495 . S
C2704 C2703 1.392 . S
C2704 C2705 1.385 . S
C2704 C2706 1.478 . S
C2705 H2699 0.930 . S
C2705 C2701 1.400 . S
C2705 C2704 1.385 . S
C2706 C2704 1.478 . S
C2706 C2708 1.381 . S
C2706 C2712 1.383 . S
C2707 C2703 1.495 . S
C2707 H2713 0.959 . S
C2707 H2714 0.961 . S
C2707 H2715 0.960 . S
C2708 C2706 1.381 . S
C2708 C2709 1.394 . S
C2708 H2716 0.930 . S
C2709 C2708 1.394 . S
C2709 C2710 1.383 . S
C2709 H2717 0.929 . S
C2710 C2709 1.383 . S
C2710 C2711 1.377 . S
C2711 H2695 0.930 . S
C2711 C2710 1.377 . S
C2711 C2712 1.379 . S
C2712 H2696 0.931 . S
C2712 C2706 1.383 . S
C2712 C2711 1.379 . S
H2713 C2707 0.959 . S
H2714 C2707 0.961 . S
H2715 C2707 0.960 . S
H2716 C2708 0.930 . S
H2717 C2709 0.929 . S
H2718 C2726 0.929 . S
H2719 C2728 0.930 . S
H2720 C2730 0.930 . S
H2721 C2733 0.929 . S
H2722 C2736 0.930 . S
H2723 C2738 0.960 . S
H2724 C2738 0.960 . S
H2725 C2738 0.960 . S
C2726 H2718 0.929 . S
C2726 C2727 1.377 . S
C2726 C2728 1.384 . S
C2727 C2726 1.377 . S
C2727 C2733 1.390 . S
C2728 H2719 0.930 . S
C2728 C2726 1.384 . S
C2728 C2729 1.372 . S
C2729 C2728 1.372 . S
C2729 C2730 1.400 . S
C2729 C2734 1.490 . S
C2730 H2720 0.930 . S
C2730 C2729 1.400 . S
C2730 C2733 1.386 . S
H2731 C2747 0.930 . S
H2732 C2748 0.931 . S
C2733 H2721 0.929 . S
C2733 C2727 1.390 . S
C2733 C2730 1.386 . S
C2734 C2729 1.490 . S
C2734 C2736 1.395 . S
C2734 C2737 1.403 . S
H2735 C2741 0.930 . S
C2736 H2722 0.930 . S
C2736 C2734 1.395 . S
C2736 C2739 1.403 . S
C2737 C2734 1.403 . S
C2737 C2738 1.524 . S
C2737 C2741 1.400 . S
C2738 H2723 0.960 . S
C2738 H2724 0.960 . S
C2738 H2725 0.960 . S
C2738 C2737 1.524 . S
C2739 C2736 1.403 . S
C2739 C2740 1.392 . S
C2739 C2743 1.495 . S
C2740 C2739 1.392 . S
C2740 C2741 1.385 . S
C2740 C2742 1.478 . S
C2741 H2735 0.930 . S
C2741 C2737 1.400 . S
C2741 C2740 1.385 . S
C2742 C2740 1.478 . S
C2742 C2744 1.381 . S
C2742 C2748 1.383 . S
C2743 C2739 1.495 . S
C2743 H2749 0.959 . S
C2743 H2750 0.961 . S
C2743 H2751 0.960 . S
C2744 C2742 1.381 . S
C2744 C2745 1.394 . S
C2744 H2752 0.930 . S
C2745 C2744 1.394 . S
C2745 C2746 1.383 . S
C2745 H2753 0.929 . S
C2746 C2745 1.383 . S
C2746 C2747 1.377 . S
C2747 H2731 0.930 . S
C2747 C2746 1.377 . S
C2747 C2748 1.379 . S
C2748 H2732 0.931 . S
C2748 C2742 1.383 . S
C2748 C2747 1.379 . S
H2749 C2743 0.959 . S
H2750 C2743 0.961 . S
H2751 C2743 0.960 . S
H2752 C2744 0.930 . S
H2753 C2745 0.929 . S
H2754 C2762 0.929 . S
H2755 C2764 0.930 . S
H2756 C2766 0.930 . S
H2757 C2769 0.929 . S
H2758 C2772 0.930 . S
H2759 C2774 0.960 . S
H2760 C2774 0.960 . S
H2761 C2774 0.960 . S
C2762 H2754 0.929 . S
C2762 C2763 1.377 . S
C2762 C2764 1.384 . S
C2763 C2762 1.377 . S
C2763 C2769 1.390 . S
C2764 H2755 0.930 . S
C2764 C2762 1.384 . S
C2764 C2765 1.372 . S
C2765 C2764 1.372 . S
C2765 C2766 1.400 . S
C2765 C2770 1.490 . S
C2766 H2756 0.930 . S
C2766 C2765 1.400 . S
C2766 C2769 1.386 . S
H2767 C2783 0.930 . S
H2768 C2784 0.931 . S
C2769 H2757 0.929 . S
C2769 C2763 1.390 . S
C2769 C2766 1.386 . S
C2770 C2765 1.490 . S
C2770 C2772 1.395 . S
C2770 C2773 1.403 . S
H2771 C2777 0.930 . S
C2772 H2758 0.930 . S
C2772 C2770 1.395 . S
C2772 C2775 1.403 . S
C2773 C2770 1.403 . S
C2773 C2774 1.524 . S
C2773 C2777 1.400 . S
C2774 H2759 0.960 . S
C2774 H2760 0.960 . S
C2774 H2761 0.960 . S
C2774 C2773 1.524 . S
C2775 C2772 1.403 . S
C2775 C2776 1.392 . S
C2775 C2779 1.495 . S
C2776 C2775 1.392 . S
C2776 C2777 1.385 . S
C2776 C2778 1.478 . S
C2777 H2771 0.930 . S
C2777 C2773 1.400 . S
C2777 C2776 1.385 . S
C2778 C2776 1.478 . S
C2778 C2780 1.381 . S
C2778 C2784 1.383 . S
C2779 C2775 1.495 . S
C2779 H2785 0.959 . S
C2779 H2786 0.961 . S
C2779 H2787 0.960 . S
C2780 C2778 1.381 . S
C2780 C2781 1.394 . S
C2780 H2788 0.930 . S
C2781 C2780 1.394 . S
C2781 C2782 1.383 . S
C2781 H2789 0.929 . S
C2782 C2781 1.383 . S
C2782 C2783 1.377 . S
C2783 H2767 0.930 . S
C2783 C2782 1.377 . S
C2783 C2784 1.379 . S
C2784 H2768 0.931 . S
C2784 C2778 1.383 . S
C2784 C2783 1.379 . S
H2785 C2779 0.959 . S
H2786 C2779 0.961 . S
H2787 C2779 0.960 . S
H2788 C2780 0.930 . S
H2789 C2781 0.929 . S
H2790 C2798 0.929 . S
H2791 C2800 0.930 . S
H2792 C2802 0.930 . S
H2793 C2805 0.929 . S
H2794 C2808 0.930 . S
H2795 C2810 0.960 . S
H2796 C2810 0.960 . S
H2797 C2810 0.960 . S
C2798 H2790 0.929 . S
C2798 C2799 1.377 . S
C2798 C2800 1.384 . S
C2799 C2798 1.377 . S
C2799 C2805 1.390 . S
C2800 H2791 0.930 . S
C2800 C2798 1.384 . S
C2800 C2801 1.372 . S
C2801 C2800 1.372 . S
C2801 C2802 1.400 . S
C2801 C2806 1.490 . S
C2802 H2792 0.930 . S
C2802 C2801 1.400 . S
C2802 C2805 1.386 . S
H2803 C2819 0.930 . S
H2804 C2820 0.931 . S
C2805 H2793 0.929 . S
C2805 C2799 1.390 . S
C2805 C2802 1.386 . S
C2806 C2801 1.490 . S
C2806 C2808 1.395 . S
C2806 C2809 1.403 . S
H2807 C2813 0.930 . S
C2808 H2794 0.930 . S
C2808 C2806 1.395 . S
C2808 C2811 1.403 . S
C2809 C2806 1.403 . S
C2809 C2810 1.524 . S
C2809 C2813 1.400 . S
C2810 H2795 0.960 . S
C2810 H2796 0.960 . S
C2810 H2797 0.960 . S
C2810 C2809 1.524 . S
C2811 C2808 1.403 . S
C2811 C2812 1.392 . S
C2811 C2815 1.495 . S
C2812 C2811 1.392 . S
C2812 C2813 1.385 . S
C2812 C2814 1.478 . S
C2813 H2807 0.930 . S
C2813 C2809 1.400 . S
C2813 C2812 1.385 . S
C2814 C2812 1.478 . S
C2814 C2816 1.381 . S
C2814 C2820 1.383 . S
C2815 C2811 1.495 . S
C2815 H2821 0.959 . S
C2815 H2822 0.961 . S
C2815 H2823 0.960 . S
C2816 C2814 1.381 . S
C2816 C2817 1.394 . S
C2816 H2824 0.930 . S
C2817 C2816 1.394 . S
C2817 C2818 1.383 . S
C2817 H2825 0.929 . S
C2818 C2817 1.383 . S
C2818 C2819 1.377 . S
C2819 H2803 0.930 . S
C2819 C2818 1.377 . S
C2819 C2820 1.379 . S
C2820 H2804 0.931 . S
C2820 C2814 1.383 . S
C2820 C2819 1.379 . S
H2821 C2815 0.959 . S
H2822 C2815 0.961 . S
H2823 C2815 0.960 . S
H2824 C2816 0.930 . S
H2825 C2817 0.929 . S
H2826 C2834 0.929 . S
H2827 C2836 0.930 . S
H2828 C2838 0.930 . S
H2829 C2841 0.929 . S
H2830 C2844 0.930 . S
H2831 C2846 0.960 . S
H2832 C2846 0.960 . S
H2833 C2846 0.960 . S
C2834 H2826 0.929 . S
C2834 C2835 1.377 . S
C2834 C2836 1.384 . S
C2835 C2834 1.377 . S
C2835 C2841 1.390 . S
C2836 H2827 0.930 . S
C2836 C2834 1.384 . S
C2836 C2837 1.372 . S
C2837 C2836 1.372 . S
C2837 C2838 1.400 . S
C2837 C2842 1.490 . S
C2838 H2828 0.930 . S
C2838 C2837 1.400 . S
C2838 C2841 1.386 . S
H2839 C2855 0.930 . S
H2840 C2856 0.931 . S
C2841 H2829 0.929 . S
C2841 C2835 1.390 . S
C2841 C2838 1.386 . S
C2842 C2837 1.490 . S
C2842 C2844 1.395 . S
C2842 C2845 1.403 . S
H2843 C2849 0.930 . S
C2844 H2830 0.930 . S
C2844 C2842 1.395 . S
C2844 C2847 1.403 . S
C2845 C2842 1.403 . S
C2845 C2846 1.524 . S
C2845 C2849 1.400 . S
C2846 H2831 0.960 . S
C2846 H2832 0.960 . S
C2846 H2833 0.960 . S
C2846 C2845 1.524 . S
C2847 C2844 1.403 . S
C2847 C2848 1.392 . S
C2847 C2851 1.495 . S
C2848 C2847 1.392 . S
C2848 C2849 1.385 . S
C2848 C2850 1.478 . S
C2849 H2843 0.930 . S
C2849 C2845 1.400 . S
C2849 C2848 1.385 . S
C2850 C2848 1.478 . S
C2850 C2852 1.381 . S
C2850 C2856 1.383 . S
C2851 C2847 1.495 . S
C2851 H2857 0.959 . S
C2851 H2858 0.961 . S
C2851 H2859 0.960 . S
C2852 C2850 1.381 . S
C2852 C2853 1.394 . S
C2852 H2860 0.930 . S
C2853 C2852 1.394 . S
C2853 C2854 1.383 . S
C2853 H2861 0.929 . S
C2854 C2853 1.383 . S
C2854 C2855 1.377 . S
C2855 H2839 0.930 . S
C2855 C2854 1.377 . S
C2855 C2856 1.379 . S
C2856 H2840 0.931 . S
C2856 C2850 1.383 . S
C2856 C2855 1.379 . S
H2857 C2851 0.959 . S
H2858 C2851 0.961 . S
H2859 C2851 0.960 . S
H2860 C2852 0.930 . S
H2861 C2853 0.929 . S
H2862 C2870 0.929 . S
H2863 C2872 0.930 . S
H2864 C2874 0.930 . S
H2865 C2877 0.929 . S
H2866 C2880 0.930 . S
H2867 C2882 0.960 . S
H2868 C2882 0.960 . S
H2869 C2882 0.960 . S
C2870 H2862 0.929 . S
C2870 C2871 1.377 . S
C2870 C2872 1.384 . S
C2871 C2870 1.377 . S
C2871 C2877 1.390 . S
C2872 H2863 0.930 . S
C2872 C2870 1.384 . S
C2872 C2873 1.372 . S
C2873 C2872 1.372 . S
C2873 C2874 1.400 . S
C2873 C2878 1.490 . S
C2874 H2864 0.930 . S
C2874 C2873 1.400 . S
C2874 C2877 1.386 . S
H2875 C2891 0.930 . S
H2876 C2892 0.931 . S
C2877 H2865 0.929 . S
C2877 C2871 1.390 . S
C2877 C2874 1.386 . S
C2878 C2873 1.490 . S
C2878 C2880 1.395 . S
C2878 C2881 1.403 . S
H2879 C2885 0.930 . S
C2880 H2866 0.930 . S
C2880 C2878 1.395 . S
C2880 C2883 1.403 . S
C2881 C2878 1.403 . S
C2881 C2882 1.524 . S
C2881 C2885 1.400 . S
C2882 H2867 0.960 . S
C2882 H2868 0.960 . S
C2882 H2869 0.960 . S
C2882 C2881 1.524 . S
C2883 C2880 1.403 . S
C2883 C2884 1.392 . S
C2883 C2887 1.495 . S
C2884 C2883 1.392 . S
C2884 C2885 1.385 . S
C2884 C2886 1.478 . S
C2885 H2879 0.930 . S
C2885 C2881 1.400 . S
C2885 C2884 1.385 . S
C2886 C2884 1.478 . S
C2886 C2888 1.381 . S
C2886 C2892 1.383 . S
C2887 C2883 1.495 . S
C2887 H2893 0.959 . S
C2887 H2894 0.961 . S
C2887 H2895 0.960 . S
C2888 C2886 1.381 . S
C2888 C2889 1.394 . S
C2888 H2896 0.930 . S
C2889 C2888 1.394 . S
C2889 C2890 1.383 . S
C2889 H2897 0.929 . S
C2890 C2889 1.383 . S
C2890 C2891 1.377 . S
C2891 H2875 0.930 . S
C2891 C2890 1.377 . S
C2891 C2892 1.379 . S
C2892 H2876 0.931 . S
C2892 C2886 1.383 . S
C2892 C2891 1.379 . S
H2893 C2887 0.959 . S
H2894 C2887 0.961 . S
H2895 C2887 0.960 . S
H2896 C2888 0.930 . S
H2897 C2889 0.929 . S
H2898 C2906 0.929 . S
H2899 C2908 0.930 . S
H2900 C2910 0.930 . S
H2901 C2913 0.929 . S
H2902 C2916 0.930 . S
H2903 C2918 0.960 . S
H2904 C2918 0.960 . S
H2905 C2918 0.960 . S
C2906 H2898 0.929 . S
C2906 C2907 1.377 . S
C2906 C2908 1.384 . S
C2907 C2906 1.377 . S
C2907 C2913 1.390 . S
C2908 H2899 0.930 . S
C2908 C2906 1.384 . S
C2908 C2909 1.372 . S
C2909 C2908 1.372 . S
C2909 C2910 1.400 . S
C2909 C2914 1.490 . S
C2910 H2900 0.930 . S
C2910 C2909 1.400 . S
C2910 C2913 1.386 . S
H2911 C2927 0.949 . S
H2912 C2928 0.931 . S
C2913 H2901 0.929 . S
C2913 C2907 1.390 . S
C2913 C2910 1.386 . S
C2914 C2909 1.490 . S
C2914 C2916 1.395 . S
C2914 C2917 1.403 . S
H2915 C2921 0.868 1_655 S
C2916 H2902 0.930 . S
C2916 C2914 1.395 . S
C2916 C2919 1.403 . S
C2917 C2914 1.403 . S
C2917 C2918 1.524 1_455 S
C2917 C2921 1.434 . S
C2918 H2903 0.960 . S
C2918 H2904 0.960 . S
C2918 H2905 0.960 . S
C2918 C2917 1.524 1_655 S
C2919 C2916 1.403 . S
C2919 C2920 1.392 . S
C2919 C2923 1.495 . S
C2920 C2919 1.392 . S
C2920 C2921 1.414 . S
C2920 C2922 1.478 . S
C2921 H2915 0.868 1_455 S
C2921 C2917 1.434 . S
C2921 C2920 1.414 . S
C2922 C2920 1.478 . S
C2922 C2924 1.381 . S
C2922 C2928 1.383 . S
C2923 C2919 1.495 . S
C2923 H2929 0.959 . S
C2923 H2930 0.961 . S
C2923 H2931 0.960 . S
C2924 C2922 1.381 . S
C2924 C2925 1.394 . S
C2924 H2932 0.930 . S
C2925 C2924 1.394 . S
C2925 C2926 1.383 . S
C2925 H2933 0.929 . S
C2926 C2925 1.383 . S
C2926 C2927 1.377 . S
C2927 H2911 0.949 . S
C2927 C2926 1.377 . S
C2927 C2928 1.379 . S
C2928 H2912 0.931 . S
C2928 C2922 1.383 . S
C2928 C2927 1.379 . S
H2929 C2923 0.959 . S
H2930 C2923 0.961 . S
H2931 C2923 0.960 . S
H2932 C2924 0.930 . S
H2933 C2925 0.929 . S
H2934 C2942 0.929 . S
H2935 C2944 0.930 . S
H2936 C2946 0.930 . S
H2937 C2949 0.929 . S
H2938 C2952 0.930 . S
H2939 C2954 0.960 . S
H2940 C2954 0.960 . S
H2941 C2954 0.960 . S
C2942 H2934 0.929 . S
C2942 C2943 1.377 . S
C2942 C2944 1.384 . S
C2943 C2942 1.377 . S
C2943 C2949 1.390 . S
C2944 H2935 0.930 . S
C2944 C2942 1.384 . S
C2944 C2945 1.372 . S
C2945 C2944 1.372 . S
C2945 C2946 1.400 . S
C2945 C2950 1.490 . S
C2946 H2936 0.930 . S
C2946 C2945 1.400 . S
C2946 C2949 1.386 . S
H2947 C2963 0.930 . S
H2948 C2964 0.931 . S
C2949 H2937 0.929 . S
C2949 C2943 1.390 . S
C2949 C2946 1.386 . S
C2950 C2945 1.490 . S
C2950 C2952 1.395 . S
C2950 C2953 1.403 . S
H2951 C2957 0.930 . S
C2952 H2938 0.930 . S
C2952 C2950 1.395 . S
C2952 C2955 1.403 . S
C2953 C2950 1.403 . S
C2953 C2954 1.524 . S
C2953 C2957 1.400 . S
C2954 H2939 0.960 . S
C2954 H2940 0.960 . S
C2954 H2941 0.960 . S
C2954 C2953 1.524 . S
C2955 C2952 1.403 . S
C2955 C2956 1.392 . S
C2955 C2959 1.495 . S
C2956 C2955 1.392 . S
C2956 C2957 1.385 . S
C2956 C2958 1.478 . S
C2957 H2951 0.930 . S
C2957 C2953 1.400 . S
C2957 C2956 1.385 . S
C2958 C2956 1.478 . S
C2958 C2960 1.381 . S
C2958 C2964 1.383 . S
C2959 C2955 1.495 . S
C2959 H2965 0.959 . S
C2959 H2966 0.961 . S
C2959 H2967 0.960 . S
C2960 C2958 1.381 . S
C2960 C2961 1.394 . S
C2960 H2968 0.930 . S
C2961 C2960 1.394 . S
C2961 C2962 1.383 . S
C2961 H2969 0.929 . S
C2962 C2961 1.383 . S
C2962 C2963 1.377 . S
C2963 H2947 0.930 . S
C2963 C2962 1.377 . S
C2963 C2964 1.379 . S
C2964 H2948 0.931 . S
C2964 C2958 1.383 . S
C2964 C2963 1.379 . S
H2965 C2959 0.959 . S
H2966 C2959 0.961 . S
H2967 C2959 0.960 . S
H2968 C2960 0.930 . S
H2969 C2961 0.929 . S
H2970 C2978 0.929 . S
H2971 C2980 0.930 . S
H2972 C2982 0.970 . S
H2973 C2985 0.941 . S
H2974 C2988 0.930 . S
H2975 C2990 0.960 . S
H2976 C2990 0.960 . S
H2977 C2990 0.978 . S
C2978 H2970 0.929 . S
C2978 C2979 1.377 . S
C2978 C2980 1.384 . S
C2979 C2978 1.377 . S
C2979 C2985 1.384 1_565 S
C2980 H2971 0.930 . S
C2980 C2978 1.384 . S
C2980 C2981 1.372 . S
C2981 C2980 1.372 . S
C2981 C2982 1.328 1_565 S
C2981 C2986 1.490 . S
C2982 H2972 0.970 . S
C2982 C2981 1.328 1_545 S
C2982 C2985 1.420 . S
H2983 C2999 0.930 . S
H2984 C3000 0.931 . S
C2985 H2973 0.941 . S
C2985 C2979 1.384 1_545 S
C2985 C2982 1.420 . S
C2986 C2981 1.490 . S
C2986 C2988 1.395 . S
C2986 C2989 1.403 . S
H2987 C2993 0.930 . S
C2988 H2974 0.930 . S
C2988 C2986 1.395 . S
C2988 C2991 1.403 . S
C2989 C2986 1.403 . S
C2989 C2990 1.524 . S
C2989 C2993 1.400 . S
C2990 H2975 0.960 . S
C2990 H2976 0.960 . S
C2990 H2977 0.978 . S
C2990 C2989 1.524 . S
C2991 C2988 1.403 . S
C2991 C2992 1.392 . S
C2991 C2995 1.495 . S
C2992 C2991 1.392 . S
C2992 C2993 1.385 . S
C2992 C2994 1.478 . S
C2993 H2987 0.930 . S
C2993 C2989 1.400 . S
C2993 C2992 1.385 . S
C2994 C2992 1.478 . S
C2994 C2996 1.381 . S
C2994 C3000 1.383 1_565 S
C2995 C2991 1.495 . S
C2995 H3001 0.959 . S
C2995 H3002 0.928 1_565 S
C2995 H3003 0.960 . S
C2996 C2994 1.381 . S
C2996 C2997 1.394 . S
C2996 H3004 0.930 . S
C2997 C2996 1.394 . S
C2997 C2998 1.383 . S
C2997 H3005 0.929 . S
C2998 C2997 1.383 . S
C2998 C2999 1.377 1_565 S
C2999 H2983 0.930 . S
C2999 C2998 1.377 1_545 S
C2999 C3000 1.379 . S
C3000 H2984 0.931 . S
C3000 C2994 1.383 1_545 S
C3000 C2999 1.379 . S
H3001 C2995 0.959 . S
H3002 C2995 0.928 1_545 S
H3003 C2995 0.960 . S
H3004 C2996 0.930 . S
H3005 C2997 0.929 . S
H3006 C3014 0.929 . S
H3007 C3016 0.930 . S
H3008 C3018 0.930 . S
H3009 C3021 0.929 . S
H3010 C3024 0.930 . S
H3011 C3026 0.960 . S
H3012 C3026 0.960 . S
H3013 C3026 0.960 . S
C3014 H3006 0.929 . S
C3014 C3015 1.377 . S
C3014 C3016 1.384 . S
C3015 C3014 1.377 . S
C3015 C3021 1.390 . S
C3016 H3007 0.930 . S
C3016 C3014 1.384 . S
C3016 C3017 1.372 . S
C3017 C3016 1.372 . S
C3017 C3018 1.400 . S
C3017 C3022 1.490 . S
C3018 H3008 0.930 . S
C3018 C3017 1.400 . S
C3018 C3021 1.386 . S
H3019 C3035 0.930 . S
H3020 C3036 0.931 . S
C3021 H3009 0.929 . S
C3021 C3015 1.390 . S
C3021 C3018 1.386 . S
C3022 C3017 1.490 . S
C3022 C3024 1.395 . S
C3022 C3025 1.403 1_565 S
H3023 C3029 0.930 . S
C3024 H3010 0.930 . S
C3024 C3022 1.395 . S
C3024 C3027 1.403 . S
C3025 C3022 1.403 1_545 S
C3025 C3026 1.524 . S
C3025 C3029 1.400 . S
C3026 H3011 0.960 . S
C3026 H3012 0.960 . S
C3026 H3013 0.960 . S
C3026 C3025 1.524 . S
C3027 C3024 1.403 . S
C3027 C3028 1.392 . S
C3027 C3031 1.495 . S
C3028 C3027 1.392 . S
C3028 C3029 1.385 1_565 S
C3028 C3030 1.478 . S
C3029 H3023 0.930 . S
C3029 C3025 1.400 . S
C3029 C3028 1.385 1_545 S
C3030 C3028 1.478 . S
C3030 C3032 1.381 . S
C3030 C3036 1.383 . S
C3031 C3027 1.495 . S
C3031 H3037 0.959 . S
C3031 H3038 0.961 . S
C3031 H3039 0.960 . S
C3032 C3030 1.381 . S
C3032 C3033 1.394 . S
C3032 H3040 0.930 . S
C3033 C3032 1.394 . S
C3033 C3034 1.383 . S
C3033 H3041 0.929 . S
C3034 C3033 1.383 . S
C3034 C3035 1.377 . S
C3035 H3019 0.930 . S
C3035 C3034 1.377 . S
C3035 C3036 1.379 . S
C3036 H3020 0.931 . S
C3036 C3030 1.383 . S
C3036 C3035 1.379 . S
H3037 C3031 0.959 . S
H3038 C3031 0.961 . S
H3039 C3031 0.960 . S
H3040 C3032 0.930 . S
H3041 C3033 0.929 . S
H3042 C3050 0.929 . S
H3043 C3052 0.930 . S
H3044 C3054 0.930 . S
H3045 C3057 0.929 . S
H3046 C3060 0.930 . S
H3047 C3062 0.960 . S
H3048 C3062 0.960 . S
H3049 C3062 0.960 . S
C3050 H3042 0.929 . S
C3050 C3051 1.377 . S
C3050 C3052 1.384 . S
C3051 C3050 1.377 . S
C3051 C3057 1.390 . S
C3052 H3043 0.930 . S
C3052 C3050 1.384 . S
C3052 C3053 1.372 . S
C3053 C3052 1.372 . S
C3053 C3054 1.400 . S
C3053 C3058 1.490 . S
C3054 H3044 0.930 . S
C3054 C3053 1.400 . S
C3054 C3057 1.386 . S
H3055 C3071 0.926 . S
H3056 C3072 0.906 1_655 S
C3057 H3045 0.929 . S
C3057 C3051 1.390 . S
C3057 C3054 1.386 . S
C3058 C3053 1.490 . S
C3058 C3060 1.395 1_455 S
C3058 C3061 1.403 . S
H3059 C3065 0.930 . S
C3060 H3046 0.930 . S
C3060 C3058 1.395 1_655 S
C3060 C3063 1.403 . S
C3061 C3058 1.403 . S
C3061 C3062 1.524 . S
C3061 C3065 1.400 . S
C3062 H3047 0.960 . S
C3062 H3048 0.960 . S
C3062 H3049 0.960 . S
C3062 C3061 1.524 . S
C3063 C3060 1.403 . S
C3063 C3064 1.392 1_655 S
C3063 C3067 1.495 . S
C3064 C3063 1.392 1_455 S
C3064 C3065 1.385 . S
C3064 C3066 1.478 . S
C3065 H3059 0.930 . S
C3065 C3061 1.400 . S
C3065 C3064 1.385 . S
C3066 C3064 1.478 . S
C3066 C3068 1.381 . S
C3066 C3072 1.382 . S
C3067 C3063 1.495 . S
C3067 H3073 0.959 . S
C3067 H3074 0.961 . S
C3067 H3075 0.960 . S
C3068 C3066 1.381 . S
C3068 C3069 1.394 . S
C3068 H3076 0.930 . S
C3069 C3068 1.394 . S
C3069 C3070 1.390 . S
C3069 H3077 0.929 . S
C3070 C3069 1.390 . S
C3070 C3071 1.340 1_455 S
C3071 H3055 0.926 . S
C3071 C3070 1.340 1_655 S
C3071 C3072 1.382 1_655 S
C3072 H3056 0.906 1_455 S
C3072 C3066 1.382 . S
C3072 C3071 1.382 1_455 S
H3073 C3067 0.959 . S
H3074 C3067 0.961 . S
H3075 C3067 0.960 . S
H3076 C3068 0.930 . S
H3077 C3069 0.929 . S
H3078 C3086 0.929 . S
H3079 C3088 0.930 . S
H3080 C3090 0.930 . S
H3081 C3093 0.929 . S
H3082 C3096 0.930 . S
H3083 C3098 0.960 . S
H3084 C3098 0.960 . S
H3085 C3098 0.960 . S
C3086 H3078 0.929 . S
C3086 C3087 1.377 . S
C3086 C3088 1.384 . S
C3087 C3086 1.377 . S
C3087 C3093 1.390 . S
C3088 H3079 0.930 . S
C3088 C3086 1.384 . S
C3088 C3089 1.372 . S
C3089 C3088 1.372 . S
C3089 C3090 1.400 . S
C3089 C3094 1.490 . S
C3090 H3080 0.930 . S
C3090 C3089 1.400 . S
C3090 C3093 1.386 . S
H3091 C3107 0.930 . S
H3092 C3108 0.931 . S
C3093 H3081 0.929 . S
C3093 C3087 1.390 . S
C3093 C3090 1.386 . S
C3094 C3089 1.490 . S
C3094 C3096 1.395 . S
C3094 C3097 1.403 . S
H3095 C3101 0.930 . S
C3096 H3082 0.930 . S
C3096 C3094 1.395 . S
C3096 C3099 1.403 . S
C3097 C3094 1.403 . S
C3097 C3098 1.524 . S
C3097 C3101 1.400 . S
C3098 H3083 0.960 . S
C3098 H3084 0.960 . S
C3098 H3085 0.960 . S
C3098 C3097 1.524 . S
C3099 C3096 1.403 . S
C3099 C3100 1.392 . S
C3099 C3103 1.495 . S
C3100 C3099 1.392 . S
C3100 C3101 1.385 . S
C3100 C3102 1.478 . S
C3101 H3095 0.930 . S
C3101 C3097 1.400 . S
C3101 C3100 1.385 . S
C3102 C3100 1.478 . S
C3102 C3104 1.381 . S
C3102 C3108 1.383 . S
C3103 C3099 1.495 . S
C3103 H3109 0.959 . S
C3103 H3110 0.961 . S
C3103 H3111 0.960 . S
C3104 C3102 1.381 . S
C3104 C3105 1.394 . S
C3104 H3112 0.930 . S
C3105 C3104 1.394 . S
C3105 C3106 1.383 . S
C3105 H3113 0.929 . S
C3106 C3105 1.383 . S
C3106 C3107 1.377 . S
C3107 H3091 0.930 . S
C3107 C3106 1.377 . S
C3107 C3108 1.379 . S
C3108 H3092 0.931 . S
C3108 C3102 1.383 . S
C3108 C3107 1.379 . S
H3109 C3103 0.959 . S
H3110 C3103 0.961 . S
H3111 C3103 0.960 . S
H3112 C3104 0.930 . S
H3113 C3105 0.929 . S
H3114 C3122 0.929 . S
H3115 C3124 0.930 . S
H3116 C3126 0.930 . S
H3117 C3129 0.929 . S
H3118 C3132 0.930 . S
H3119 C3134 0.960 . S
H3120 C3134 0.960 . S
H3121 C3134 0.960 . S
C3122 H3114 0.929 . S
C3122 C3123 1.377 . S
C3122 C3124 1.384 . S
C3123 C3122 1.377 . S
C3123 C3129 1.390 . S
C3124 H3115 0.930 . S
C3124 C3122 1.384 . S
C3124 C3125 1.372 . S
C3125 C3124 1.372 . S
C3125 C3126 1.400 . S
C3125 C3130 1.490 . S
C3126 H3116 0.930 . S
C3126 C3125 1.400 . S
C3126 C3129 1.386 . S
H3127 C3143 0.930 . S
H3128 C3144 0.931 . S
C3129 H3117 0.929 . S
C3129 C3123 1.390 . S
C3129 C3126 1.386 . S
C3130 C3125 1.490 . S
C3130 C3132 1.395 . S
C3130 C3133 1.403 . S
H3131 C3137 0.930 . S
C3132 H3118 0.930 . S
C3132 C3130 1.395 . S
C3132 C3135 1.403 . S
C3133 C3130 1.403 . S
C3133 C3134 1.524 . S
C3133 C3137 1.400 . S
C3134 H3119 0.960 . S
C3134 H3120 0.960 . S
C3134 H3121 0.960 . S
C3134 C3133 1.524 . S
C3135 C3132 1.403 . S
C3135 C3136 1.392 . S
C3135 C3139 1.495 . S
C3136 C3135 1.392 . S
C3136 C3137 1.385 . S
C3136 C3138 1.478 . S
C3137 H3131 0.930 . S
C3137 C3133 1.400 . S
C3137 C3136 1.385 . S
C3138 C3136 1.478 . S
C3138 C3140 1.381 . S
C3138 C3144 1.383 . S
C3139 C3135 1.495 . S
C3139 H3145 0.959 . S
C3139 H3146 0.961 . S
C3139 H3147 0.960 . S
C3140 C3138 1.381 . S
C3140 C3141 1.394 . S
C3140 H3148 0.930 . S
C3141 C3140 1.394 . S
C3141 C3142 1.383 . S
C3141 H3149 0.929 . S
C3142 C3141 1.383 . S
C3142 C3143 1.377 . S
C3143 H3127 0.930 . S
C3143 C3142 1.377 . S
C3143 C3144 1.379 . S
C3144 H3128 0.931 . S
C3144 C3138 1.383 . S
C3144 C3143 1.379 . S
H3145 C3139 0.959 . S
H3146 C3139 0.961 . S
H3147 C3139 0.960 . S
H3148 C3140 0.930 . S
H3149 C3141 0.929 . S
H3150 C3158 0.929 . S
H3151 C3160 0.930 . S
H3152 C3162 0.930 . S
H3153 C3165 0.929 . S
H3154 C3168 0.930 . S
H3155 C3170 0.960 . S
H3156 C3170 0.960 . S
H3157 C3170 0.960 . S
C3158 H3150 0.929 . S
C3158 C3159 1.377 . S
C3158 C3160 1.384 . S
C3159 C3158 1.377 . S
C3159 C3165 1.390 . S
C3160 H3151 0.930 . S
C3160 C3158 1.384 . S
C3160 C3161 1.372 . S
C3161 C3160 1.372 . S
C3161 C3162 1.400 . S
C3161 C3166 1.490 . S
C3162 H3152 0.930 . S
C3162 C3161 1.400 . S
C3162 C3165 1.386 . S
H3163 C3179 0.930 . S
H3164 C3180 0.931 . S
C3165 H3153 0.929 . S
C3165 C3159 1.390 . S
C3165 C3162 1.386 . S
C3166 C3161 1.490 . S
C3166 C3168 1.395 . S
C3166 C3169 1.403 . S
H3167 C3173 0.930 . S
C3168 H3154 0.930 . S
C3168 C3166 1.395 . S
C3168 C3171 1.403 . S
C3169 C3166 1.403 . S
C3169 C3170 1.524 . S
C3169 C3173 1.400 . S
C3170 H3155 0.960 . S
C3170 H3156 0.960 . S
C3170 H3157 0.960 . S
C3170 C3169 1.524 . S
C3171 C3168 1.403 . S
C3171 C3172 1.392 . S
C3171 C3175 1.495 . S
C3172 C3171 1.392 . S
C3172 C3173 1.385 . S
C3172 C3174 1.478 . S
C3173 H3167 0.930 . S
C3173 C3169 1.400 . S
C3173 C3172 1.385 . S
C3174 C3172 1.478 . S
C3174 C3176 1.381 . S
C3174 C3180 1.383 . S
C3175 C3171 1.495 . S
C3175 H3181 0.959 . S
C3175 H3182 0.961 . S
C3175 H3183 0.960 . S
C3176 C3174 1.381 . S
C3176 C3177 1.394 . S
C3176 H3184 0.930 . S
C3177 C3176 1.394 . S
C3177 C3178 1.383 . S
C3177 H3185 0.929 . S
C3178 C3177 1.383 . S
C3178 C3179 1.377 . S
C3179 H3163 0.930 . S
C3179 C3178 1.377 . S
C3179 C3180 1.379 . S
C3180 H3164 0.931 . S
C3180 C3174 1.383 . S
C3180 C3179 1.379 . S
H3181 C3175 0.959 . S
H3182 C3175 0.961 . S
H3183 C3175 0.960 . S
H3184 C3176 0.930 . S
H3185 C3177 0.929 . S
H3186 C3194 0.929 . S
H3187 C3196 0.930 . S
H3188 C3198 0.930 . S
H3189 C3201 0.929 . S
H3190 C3204 0.930 . S
H3191 C3206 0.960 . S
H3192 C3206 0.960 . S
H3193 C3206 0.960 . S
C3194 H3186 0.929 . S
C3194 C3195 1.377 . S
C3194 C3196 1.384 . S
C3195 C3194 1.377 . S
C3195 C3201 1.390 . S
C3196 H3187 0.930 . S
C3196 C3194 1.384 . S
C3196 C3197 1.372 . S
C3197 C3196 1.372 . S
C3197 C3198 1.400 . S
C3197 C3202 1.490 . S
C3198 H3188 0.930 . S
C3198 C3197 1.400 . S
C3198 C3201 1.386 . S
H3199 C3215 0.930 . S
H3200 C3216 0.931 . S
C3201 H3189 0.929 . S
C3201 C3195 1.390 . S
C3201 C3198 1.386 . S
C3202 C3197 1.490 . S
C3202 C3204 1.395 . S
C3202 C3205 1.403 . S
H3203 C3209 0.930 . S
C3204 H3190 0.930 . S
C3204 C3202 1.395 . S
C3204 C3207 1.403 . S
C3205 C3202 1.403 . S
C3205 C3206 1.524 . S
C3205 C3209 1.400 . S
C3206 H3191 0.960 . S
C3206 H3192 0.960 . S
C3206 H3193 0.960 . S
C3206 C3205 1.524 . S
C3207 C3204 1.403 . S
C3207 C3208 1.392 . S
C3207 C3211 1.495 . S
C3208 C3207 1.392 . S
C3208 C3209 1.385 . S
C3208 C3210 1.478 . S
C3209 H3203 0.930 . S
C3209 C3205 1.400 . S
C3209 C3208 1.385 . S
C3210 C3208 1.478 . S
C3210 C3212 1.381 . S
C3210 C3216 1.383 . S
C3211 C3207 1.495 . S
C3211 H3217 0.959 . S
C3211 H3218 0.961 . S
C3211 H3219 0.960 . S
C3212 C3210 1.381 . S
C3212 C3213 1.394 . S
C3212 H3220 0.930 . S
C3213 C3212 1.394 . S
C3213 C3214 1.383 . S
C3213 H3221 0.929 . S
C3214 C3213 1.383 . S
C3214 C3215 1.377 . S
C3215 H3199 0.930 . S
C3215 C3214 1.377 . S
C3215 C3216 1.379 . S
C3216 H3200 0.931 . S
C3216 C3210 1.383 . S
C3216 C3215 1.379 . S
H3217 C3211 0.959 . S
H3218 C3211 0.961 . S
H3219 C3211 0.960 . S
H3220 C3212 0.930 . S
H3221 C3213 0.929 . S
H3222 C3230 0.929 . S
H3223 C3232 0.930 . S
H3224 C3234 0.930 . S
H3225 C3237 0.929 . S
H3226 C3240 0.930 . S
H3227 C3242 0.960 . S
H3228 C3242 0.960 . S
H3229 C3242 0.960 1_545 S
C3230 H3222 0.929 . S
C3230 C3231 1.377 . S
C3230 C3232 1.384 . S
C3231 C3230 1.377 . S
C3231 C3237 1.390 . S
C3232 H3223 0.930 . S
C3232 C3230 1.384 . S
C3232 C3233 1.372 . S
C3233 C3232 1.372 . S
C3233 C3234 1.400 . S
C3233 C3238 1.490 . S
C3234 H3224 0.930 . S
C3234 C3233 1.400 . S
C3234 C3237 1.386 . S
H3235 C3251 0.930 . S
H3236 C3252 0.931 . S
C3237 H3225 0.929 . S
C3237 C3231 1.390 . S
C3237 C3234 1.386 . S
C3238 C3233 1.490 . S
C3238 C3240 1.395 . S
C3238 C3241 1.403 . S
H3239 C3245 0.930 1_565 S
C3240 H3226 0.930 . S
C3240 C3238 1.395 . S
C3240 C3243 1.403 . S
C3241 C3238 1.403 . S
C3241 C3242 1.524 1_545 S
C3241 C3245 1.400 . S
C3242 H3227 0.960 . S
C3242 H3228 0.960 . S
C3242 H3229 0.960 1_565 S
C3242 C3241 1.524 1_565 S
C3243 C3240 1.403 . S
C3243 C3244 1.392 . S
C3243 C3247 1.495 . S
C3244 C3243 1.392 . S
C3244 C3245 1.385 . S
C3244 C3246 1.478 . S
C3245 H3239 0.930 1_545 S
C3245 C3241 1.400 . S
C3245 C3244 1.385 . S
C3246 C3244 1.478 . S
C3246 C3248 1.381 . S
C3246 C3252 1.383 . S
C3247 C3243 1.495 . S
C3247 H3253 0.959 . S
C3247 H3254 0.961 . S
C3247 H3255 0.960 . S
C3248 C3246 1.381 . S
C3248 C3249 1.346 1_545 S
C3248 H3256 0.930 1_545 S
C3249 C3248 1.346 1_565 S
C3249 C3250 1.363 1_565 S
C3249 H3257 1.002 . S
C3250 C3249 1.363 1_545 S
C3250 C3251 1.377 . S
C3251 H3235 0.930 . S
C3251 C3250 1.377 . S
C3251 C3252 1.379 . S
C3252 H3236 0.931 . S
C3252 C3246 1.383 . S
C3252 C3251 1.379 . S
H3253 C3247 0.959 . S
H3254 C3247 0.961 . S
H3255 C3247 0.960 . S
H3256 C3248 0.930 1_565 S
H3257 C3249 1.002 . S
H3258 C3266 0.929 . S
H3259 C3268 0.930 . S
H3260 C3270 0.930 . S
H3261 C3273 0.929 . S
H3262 C3276 0.930 . S
H3263 C3278 0.960 . S
H3264 C3278 0.960 . S
H3265 C3278 0.960 . S
C3266 H3258 0.929 . S
C3266 C3267 1.377 1_455 S
C3266 C3268 1.384 . S
C3267 C3266 1.377 1_655 S
C3267 C3273 1.390 . S
C3268 H3259 0.930 . S
C3268 C3266 1.384 . S
C3268 C3269 1.372 1_455 S
C3269 C3268 1.372 1_655 S
C3269 C3270 1.400 . S
C3269 C3274 1.490 . S
C3270 H3260 0.930 . S
C3270 C3269 1.400 . S
C3270 C3273 1.386 . S
H3271 C3287 0.930 . S
H3272 C3288 0.931 . S
C3273 H3261 0.929 . S
C3273 C3267 1.390 . S
C3273 C3270 1.386 . S
C3274 C3269 1.490 . S
C3274 C3276 1.395 1_655 S
C3274 C3277 1.403 . S
H3275 C3281 0.930 . S
C3276 H3262 0.930 . S
C3276 C3274 1.395 1_455 S
C3276 C3279 1.403 . S
C3277 C3274 1.403 . S
C3277 C3278 1.524 . S
C3277 C3281 1.400 . S
C3278 H3263 0.960 . S
C3278 H3264 0.960 . S
C3278 H3265 0.960 . S
C3278 C3277 1.524 . S
C3279 C3276 1.403 . S
C3279 C3280 1.392 1_455 S
C3279 C3283 1.495 . S
C3280 C3279 1.392 1_655 S
C3280 C3281 1.385 . S
C3280 C3282 1.478 . S
C3281 H3275 0.930 . S
C3281 C3277 1.400 . S
C3281 C3280 1.385 . S
C3282 C3280 1.478 . S
C3282 C3284 1.381 1_655 S
C3282 C3288 1.383 . S
C3283 C3279 1.495 . S
C3283 H3289 0.959 . S
C3283 H3290 0.961 . S
C3283 H3291 0.960 . S
C3284 C3282 1.381 1_455 S
C3284 C3285 1.394 . S
C3284 H3292 0.930 . S
C3285 C3284 1.394 . S
C3285 C3286 1.383 1_455 S
C3285 H3293 0.929 . S
C3286 C3285 1.383 1_655 S
C3286 C3287 1.377 . S
C3287 H3271 0.930 . S
C3287 C3286 1.377 . S
C3287 C3288 1.379 . S
C3288 H3272 0.931 . S
C3288 C3282 1.383 . S
C3288 C3287 1.379 . S
H3289 C3283 0.959 . S
H3290 C3283 0.961 . S
H3291 C3283 0.960 . S
H3292 C3284 0.930 . S
H3293 C3285 0.929 . S
H3294 C3302 0.929 . S
H3295 C3304 0.930 . S
H3296 C3306 0.930 . S
H3297 C3309 0.929 . S
H3298 C3312 0.930 . S
H3299 C3314 0.960 . S
H3300 C3314 0.960 . S
H3301 C3314 0.960 . S
C3302 H3294 0.929 . S
C3302 C3303 1.377 . S
C3302 C3304 1.384 . S
C3303 C3302 1.377 . S
C3303 C3309 1.390 . S
C3304 H3295 0.930 . S
C3304 C3302 1.384 . S
C3304 C3305 1.372 . S
C3305 C3304 1.372 . S
C3305 C3306 1.400 . S
C3305 C3310 1.490 . S
C3306 H3296 0.930 . S
C3306 C3305 1.400 . S
C3306 C3309 1.386 . S
H3307 C3323 0.930 . S
H3308 C3324 0.931 . S
C3309 H3297 0.929 . S
C3309 C3303 1.390 . S
C3309 C3306 1.386 . S
C3310 C3305 1.490 . S
C3310 C3312 1.395 . S
C3310 C3313 1.403 . S
H3311 C3317 0.930 . S
C3312 H3298 0.930 . S
C3312 C3310 1.395 . S
C3312 C3315 1.403 . S
C3313 C3310 1.403 . S
C3313 C3314 1.524 . S
C3313 C3317 1.400 . S
C3314 H3299 0.960 . S
C3314 H3300 0.960 . S
C3314 H3301 0.960 . S
C3314 C3313 1.524 . S
C3315 C3312 1.403 . S
C3315 C3316 1.392 . S
C3315 C3319 1.495 . S
C3316 C3315 1.392 . S
C3316 C3317 1.385 . S
C3316 C3318 1.478 . S
C3317 H3311 0.930 . S
C3317 C3313 1.400 . S
C3317 C3316 1.385 . S
C3318 C3316 1.478 . S
C3318 C3320 1.381 . S
C3318 C3324 1.383 . S
C3319 C3315 1.495 . S
C3319 H3325 0.959 . S
C3319 H3326 0.961 . S
C3319 H3327 0.960 . S
C3320 C3318 1.381 . S
C3320 C3321 1.394 . S
C3320 H3328 0.930 . S
C3321 C3320 1.394 . S
C3321 C3322 1.383 . S
C3321 H3329 0.929 . S
C3322 C3321 1.383 . S
C3322 C3323 1.377 . S
C3323 H3307 0.930 . S
C3323 C3322 1.377 . S
C3323 C3324 1.379 . S
C3324 H3308 0.931 . S
C3324 C3318 1.383 . S
C3324 C3323 1.379 . S
H3325 C3319 0.959 . S
H3326 C3319 0.961 . S
H3327 C3319 0.960 . S
H3328 C3320 0.930 . S
H3329 C3321 0.929 . S
H3330 C3338 0.929 . S
H3331 C3340 0.930 . S
H3332 C3342 0.930 . S
H3333 C3345 0.929 . S
H3334 C3348 0.930 . S
H3335 C3350 0.960 . S
H3336 C3350 0.960 . S
H3337 C3350 0.960 . S
C3338 H3330 0.929 . S
C3338 C3339 1.377 . S
C3338 C3340 1.384 . S
C3339 C3338 1.377 . S
C3339 C3345 1.390 . S
C3340 H3331 0.930 . S
C3340 C3338 1.384 . S
C3340 C3341 1.372 . S
C3341 C3340 1.372 . S
C3341 C3342 1.400 . S
C3341 C3346 1.490 . S
C3342 H3332 0.930 . S
C3342 C3341 1.400 . S
C3342 C3345 1.386 . S
H3343 C3359 0.930 . S
H3344 C3360 0.931 . S
C3345 H3333 0.929 . S
C3345 C3339 1.390 . S
C3345 C3342 1.386 . S
C3346 C3341 1.490 . S
C3346 C3348 1.395 . S
C3346 C3349 1.403 . S
H3347 C3353 0.930 . S
C3348 H3334 0.930 . S
C3348 C3346 1.395 . S
C3348 C3351 1.403 . S
C3349 C3346 1.403 . S
C3349 C3350 1.524 . S
C3349 C3353 1.400 . S
C3350 H3335 0.960 . S
C3350 H3336 0.960 . S
C3350 H3337 0.960 . S
C3350 C3349 1.524 . S
C3351 C3348 1.403 . S
C3351 C3352 1.392 . S
C3351 C3355 1.495 . S
C3352 C3351 1.392 . S
C3352 C3353 1.385 . S
C3352 C3354 1.478 . S
C3353 H3347 0.930 . S
C3353 C3349 1.400 . S
C3353 C3352 1.385 . S
C3354 C3352 1.478 . S
C3354 C3356 1.381 . S
C3354 C3360 1.383 . S
C3355 C3351 1.495 . S
C3355 H3361 0.959 . S
C3355 H3362 0.961 . S
C3355 H3363 0.960 . S
C3356 C3354 1.381 . S
C3356 C3357 1.394 . S
C3356 H3364 0.930 . S
C3357 C3356 1.394 . S
C3357 C3358 1.383 . S
C3357 H3365 0.929 . S
C3358 C3357 1.383 . S
C3358 C3359 1.377 . S
C3359 H3343 0.930 . S
C3359 C3358 1.377 . S
C3359 C3360 1.379 . S
C3360 H3344 0.931 . S
C3360 C3354 1.383 . S
C3360 C3359 1.379 . S
H3361 C3355 0.959 . S
H3362 C3355 0.961 . S
H3363 C3355 0.960 . S
H3364 C3356 0.930 . S
H3365 C3357 0.929 . S
H3366 C3374 0.929 . S
H3367 C3376 0.930 . S
H3368 C3378 0.930 . S
H3369 C3381 0.929 . S
H3370 C3384 0.930 . S
H3371 C3386 0.960 . S
H3372 C3386 0.960 . S
H3373 C3386 0.960 . S
C3374 H3366 0.929 . S
C3374 C3375 1.377 . S
C3374 C3376 1.384 . S
C3375 C3374 1.377 . S
C3375 C3381 1.390 . S
C3376 H3367 0.930 . S
C3376 C3374 1.384 . S
C3376 C3377 1.372 . S
C3377 C3376 1.372 . S
C3377 C3378 1.400 . S
C3377 C3382 1.490 . S
C3378 H3368 0.930 . S
C3378 C3377 1.400 . S
C3378 C3381 1.386 . S
H3379 C3395 0.930 . S
H3380 C3396 0.931 . S
C3381 H3369 0.929 . S
C3381 C3375 1.390 . S
C3381 C3378 1.386 . S
C3382 C3377 1.490 . S
C3382 C3384 1.395 . S
C3382 C3385 1.403 . S
H3383 C3389 0.930 . S
C3384 H3370 0.930 . S
C3384 C3382 1.395 . S
C3384 C3387 1.403 . S
C3385 C3382 1.403 . S
C3385 C3386 1.524 . S
C3385 C3389 1.400 . S
C3386 H3371 0.960 . S
C3386 H3372 0.960 . S
C3386 H3373 0.960 . S
C3386 C3385 1.524 . S
C3387 C3384 1.403 . S
C3387 C3388 1.392 . S
C3387 C3391 1.495 . S
C3388 C3387 1.392 . S
C3388 C3389 1.385 . S
C3388 C3390 1.478 . S
C3389 H3383 0.930 . S
C3389 C3385 1.400 . S
C3389 C3388 1.385 . S
C3390 C3388 1.478 . S
C3390 C3392 1.381 . S
C3390 C3396 1.383 . S
C3391 C3387 1.495 . S
C3391 H3397 0.959 . S
C3391 H3398 0.961 . S
C3391 H3399 0.960 . S
C3392 C3390 1.381 . S
C3392 C3393 1.394 . S
C3392 H3400 0.930 . S
C3393 C3392 1.394 . S
C3393 C3394 1.383 . S
C3393 H3401 0.929 . S
C3394 C3393 1.383 . S
C3394 C3395 1.377 . S
C3395 H3379 0.930 . S
C3395 C3394 1.377 . S
C3395 C3396 1.379 . S
C3396 H3380 0.931 . S
C3396 C3390 1.383 . S
C3396 C3395 1.379 . S
H3397 C3391 0.959 . S
H3398 C3391 0.961 . S
H3399 C3391 0.960 . S
H3400 C3392 0.930 . S
H3401 C3393 0.929 . S
H3402 C3410 0.929 . S
H3403 C3412 0.930 . S
H3404 C3414 0.930 . S
H3405 C3417 0.929 . S
H3406 C3420 0.930 . S
H3407 C3422 0.960 . S
H3408 C3422 0.960 . S
H3409 C3422 0.960 . S
C3410 H3402 0.929 . S
C3410 C3411 1.377 . S
C3410 C3412 1.384 . S
C3411 C3410 1.377 . S
C3411 C3417 1.390 . S
C3412 H3403 0.930 . S
C3412 C3410 1.384 . S
C3412 C3413 1.372 . S
C3413 C3412 1.372 . S
C3413 C3414 1.400 . S
C3413 C3418 1.490 . S
C3414 H3404 0.930 . S
C3414 C3413 1.400 . S
C3414 C3417 1.386 . S
H3415 C3431 0.930 . S
H3416 C3432 0.931 . S
C3417 H3405 0.929 . S
C3417 C3411 1.390 . S
C3417 C3414 1.386 . S
C3418 C3413 1.490 . S
C3418 C3420 1.395 . S
C3418 C3421 1.403 . S
H3419 C3425 0.930 . S
C3420 H3406 0.930 . S
C3420 C3418 1.395 . S
C3420 C3423 1.403 . S
C3421 C3418 1.403 . S
C3421 C3422 1.524 . S
C3421 C3425 1.400 . S
C3422 H3407 0.960 . S
C3422 H3408 0.960 . S
C3422 H3409 0.960 . S
C3422 C3421 1.524 . S
C3423 C3420 1.403 . S
C3423 C3424 1.392 . S
C3423 C3427 1.495 . S
C3424 C3423 1.392 . S
C3424 C3425 1.385 . S
C3424 C3426 1.478 . S
C3425 H3419 0.930 . S
C3425 C3421 1.400 . S
C3425 C3424 1.385 . S
C3426 C3424 1.478 . S
C3426 C3428 1.381 . S
C3426 C3432 1.383 . S
C3427 C3423 1.495 . S
C3427 H3433 0.959 . S
C3427 H3434 0.961 . S
C3427 H3435 0.960 . S
C3428 C3426 1.381 . S
C3428 C3429 1.394 . S
C3428 H3436 0.930 . S
C3429 C3428 1.394 . S
C3429 C3430 1.383 . S
C3429 H3437 0.929 . S
C3430 C3429 1.383 . S
C3430 C3431 1.377 . S
C3431 H3415 0.930 . S
C3431 C3430 1.377 . S
C3431 C3432 1.379 . S
C3432 H3416 0.931 . S
C3432 C3426 1.383 . S
C3432 C3431 1.379 . S
H3433 C3427 0.959 . S
H3434 C3427 0.961 . S
H3435 C3427 0.960 . S
H3436 C3428 0.930 . S
H3437 C3429 0.929 . S
H3438 C3446 0.929 . S
H3439 C3448 0.930 . S
H3440 C3450 0.930 . S
H3441 C3453 0.929 . S
H3442 C3456 0.930 . S
H3443 C3458 0.960 . S
H3444 C3458 0.960 . S
H3445 C3458 0.960 . S
C3446 H3438 0.929 . S
C3446 C3447 1.377 . S
C3446 C3448 1.384 . S
C3447 C3446 1.377 . S
C3447 C3453 1.390 . S
C3448 H3439 0.930 . S
C3448 C3446 1.384 . S
C3448 C3449 1.372 . S
C3449 C3448 1.372 . S
C3449 C3450 1.400 . S
C3449 C3454 1.490 . S
C3450 H3440 0.930 . S
C3450 C3449 1.400 . S
C3450 C3453 1.386 . S
H3451 C3467 0.930 . S
H3452 C3468 0.931 . S
C3453 H3441 0.929 . S
C3453 C3447 1.390 . S
C3453 C3450 1.386 . S
C3454 C3449 1.490 . S
C3454 C3456 1.395 . S
C3454 C3457 1.403 . S
H3455 C3461 0.930 . S
C3456 H3442 0.930 . S
C3456 C3454 1.395 . S
C3456 C3459 1.403 . S
C3457 C3454 1.403 . S
C3457 C3458 1.524 . S
C3457 C3461 1.400 . S
C3458 H3443 0.960 . S
C3458 H3444 0.960 . S
C3458 H3445 0.960 . S
C3458 C3457 1.524 . S
C3459 C3456 1.403 . S
C3459 C3460 1.392 . S
C3459 C3463 1.495 . S
C3460 C3459 1.392 . S
C3460 C3461 1.385 . S
C3460 C3462 1.478 . S
C3461 H3455 0.930 . S
C3461 C3457 1.400 . S
C3461 C3460 1.385 . S
C3462 C3460 1.478 . S
C3462 C3464 1.381 . S
C3462 C3468 1.383 . S
C3463 C3459 1.495 . S
C3463 H3469 0.959 . S
C3463 H3470 0.961 . S
C3463 H3471 0.960 . S
C3464 C3462 1.381 . S
C3464 C3465 1.394 . S
C3464 H3472 0.930 . S
C3465 C3464 1.394 . S
C3465 C3466 1.383 . S
C3465 H3473 0.929 . S
C3466 C3465 1.383 . S
C3466 C3467 1.377 . S
C3467 H3451 0.930 . S
C3467 C3466 1.377 . S
C3467 C3468 1.379 . S
C3468 H3452 0.931 . S
C3468 C3462 1.383 . S
C3468 C3467 1.379 . S
H3469 C3463 0.959 . S
H3470 C3463 0.961 . S
H3471 C3463 0.960 . S
H3472 C3464 0.930 . S
H3473 C3465 0.929 . S
H3474 C3482 0.929 . S
H3475 C3484 0.930 . S
H3476 C3486 0.930 . S
H3477 C3489 0.929 . S
H3478 C3492 0.930 . S
H3479 C3494 0.960 . S
H3480 C3494 0.960 . S
H3481 C3494 0.960 . S
C3482 H3474 0.929 . S
C3482 C3483 1.377 . S
C3482 C3484 1.384 . S
C3483 C3482 1.377 . S
C3483 C3489 1.390 . S
C3484 H3475 0.930 . S
C3484 C3482 1.384 . S
C3484 C3485 1.372 . S
C3485 C3484 1.372 . S
C3485 C3486 1.400 . S
C3485 C3490 1.490 . S
C3486 H3476 0.930 . S
C3486 C3485 1.400 . S
C3486 C3489 1.386 . S
H3487 C3503 0.930 . S
H3488 C3504 0.931 . S
C3489 H3477 0.929 . S
C3489 C3483 1.390 . S
C3489 C3486 1.386 . S
C3490 C3485 1.490 . S
C3490 C3492 1.395 . S
C3490 C3493 1.403 . S
H3491 C3497 0.930 . S
C3492 H3478 0.930 . S
C3492 C3490 1.395 . S
C3492 C3495 1.403 . S
C3493 C3490 1.403 . S
C3493 C3494 1.524 . S
C3493 C3497 1.400 . S
C3494 H3479 0.960 . S
C3494 H3480 0.960 . S
C3494 H3481 0.960 . S
C3494 C3493 1.524 . S
C3495 C3492 1.403 . S
C3495 C3496 1.392 . S
C3495 C3499 1.495 . S
C3496 C3495 1.392 . S
C3496 C3497 1.385 . S
C3496 C3498 1.478 . S
C3497 H3491 0.930 . S
C3497 C3493 1.400 . S
C3497 C3496 1.385 . S
C3498 C3496 1.478 . S
C3498 C3500 1.381 . S
C3498 C3504 1.383 . S
C3499 C3495 1.495 . S
C3499 H3505 0.959 . S
C3499 H3506 0.961 . S
C3499 H3507 0.960 . S
C3500 C3498 1.381 . S
C3500 C3501 1.394 . S
C3500 H3508 0.930 . S
C3501 C3500 1.394 . S
C3501 C3502 1.383 . S
C3501 H3509 0.929 . S
C3502 C3501 1.383 . S
C3502 C3503 1.377 . S
C3503 H3487 0.930 . S
C3503 C3502 1.377 . S
C3503 C3504 1.379 . S
C3504 H3488 0.931 . S
C3504 C3498 1.383 . S
C3504 C3503 1.379 . S
H3505 C3499 0.959 . S
H3506 C3499 0.961 . S
H3507 C3499 0.960 . S
H3508 C3500 0.930 . S
H3509 C3501 0.929 . S
H3510 C3518 0.929 . S
H3511 C3520 0.930 . S
H3512 C3522 0.930 . S
H3513 C3525 0.929 . S
H3514 C3528 0.930 . S
H3515 C3530 0.960 . S
H3516 C3530 0.960 . S
H3517 C3530 0.960 . S
C3518 H3510 0.929 . S
C3518 C3519 1.377 . S
C3518 C3520 1.384 . S
C3519 C3518 1.377 . S
C3519 C3525 1.390 . S
C3520 H3511 0.930 . S
C3520 C3518 1.384 . S
C3520 C3521 1.372 . S
C3521 C3520 1.372 . S
C3521 C3522 1.400 . S
C3521 C3526 1.490 . S
C3522 H3512 0.930 . S
C3522 C3521 1.400 . S
C3522 C3525 1.386 . S
H3523 C3539 0.930 . S
H3524 C3540 0.931 . S
C3525 H3513 0.929 . S
C3525 C3519 1.390 . S
C3525 C3522 1.386 . S
C3526 C3521 1.490 . S
C3526 C3528 1.395 . S
C3526 C3529 1.403 . S
H3527 C3533 0.930 . S
C3528 H3514 0.930 . S
C3528 C3526 1.395 . S
C3528 C3531 1.403 . S
C3529 C3526 1.403 . S
C3529 C3530 1.524 . S
C3529 C3533 1.400 . S
C3530 H3515 0.960 . S
C3530 H3516 0.960 . S
C3530 H3517 0.960 . S
C3530 C3529 1.524 . S
C3531 C3528 1.403 . S
C3531 C3532 1.392 . S
C3531 C3535 1.495 . S
C3532 C3531 1.392 . S
C3532 C3533 1.385 . S
C3532 C3534 1.478 . S
C3533 H3527 0.930 . S
C3533 C3529 1.400 . S
C3533 C3532 1.385 . S
C3534 C3532 1.478 . S
C3534 C3536 1.381 . S
C3534 C3540 1.383 . S
C3535 C3531 1.495 . S
C3535 H3541 0.959 . S
C3535 H3542 0.961 . S
C3535 H3543 0.960 . S
C3536 C3534 1.381 . S
C3536 C3537 1.394 . S
C3536 H3544 0.930 . S
C3537 C3536 1.394 . S
C3537 C3538 1.383 . S
C3537 H3545 0.929 . S
C3538 C3537 1.383 . S
C3538 C3539 1.377 . S
C3539 H3523 0.930 . S
C3539 C3538 1.377 . S
C3539 C3540 1.379 . S
C3540 H3524 0.931 . S
C3540 C3534 1.383 . S
C3540 C3539 1.379 . S
H3541 C3535 0.959 . S
H3542 C3535 0.961 . S
H3543 C3535 0.960 . S
H3544 C3536 0.930 . S
H3545 C3537 0.929 . S
H3546 C3554 0.929 . S
H3547 C3556 0.930 . S
H3548 C3558 0.930 . S
H3549 C3561 0.929 . S
H3550 C3564 0.930 . S
H3551 C3566 0.960 . S
H3552 C3566 0.960 . S
H3553 C3566 0.960 . S
C3554 H3546 0.929 . S
C3554 C3555 1.377 . S
C3554 C3556 1.384 . S
C3555 C3554 1.377 . S
C3555 C3561 1.390 . S
C3556 H3547 0.930 . S
C3556 C3554 1.384 . S
C3556 C3557 1.372 . S
C3557 C3556 1.372 . S
C3557 C3558 1.400 . S
C3557 C3562 1.490 . S
C3558 H3548 0.930 . S
C3558 C3557 1.400 . S
C3558 C3561 1.386 . S
H3559 C3575 0.930 . S
H3560 C3576 0.931 . S
C3561 H3549 0.929 . S
C3561 C3555 1.390 . S
C3561 C3558 1.386 . S
C3562 C3557 1.490 . S
C3562 C3564 1.395 1_655 S
C3562 C3565 1.403 . S
H3563 C3569 0.930 . S
C3564 H3550 0.930 . S
C3564 C3562 1.395 1_455 S
C3564 C3567 1.403 . S
C3565 C3562 1.403 . S
C3565 C3566 1.524 . S
C3565 C3569 1.400 . S
C3566 H3551 0.960 . S
C3566 H3552 0.960 . S
C3566 H3553 0.960 . S
C3566 C3565 1.524 . S
C3567 C3564 1.403 . S
C3567 C3568 1.392 1_455 S
C3567 C3571 1.495 . S
C3568 C3567 1.392 1_655 S
C3568 C3569 1.385 . S
C3568 C3570 1.478 . S
C3569 H3563 0.930 . S
C3569 C3565 1.400 . S
C3569 C3568 1.385 . S
C3570 C3568 1.478 . S
C3570 C3572 1.381 . S
C3570 C3576 1.383 . S
C3571 C3567 1.495 . S
C3571 H3577 0.959 . S
C3571 H3578 0.961 . S
C3571 H3579 0.960 . S
C3572 C3570 1.381 . S
C3572 C3573 1.429 . S
C3572 H3580 0.924 1_655 S
C3573 C3572 1.429 . S
C3573 C3574 1.395 . S
C3573 H3581 0.887 1_655 S
C3574 C3573 1.395 . S
C3574 C3575 1.377 . S
C3575 H3559 0.930 . S
C3575 C3574 1.377 . S
C3575 C3576 1.379 . S
C3576 H3560 0.931 . S
C3576 C3570 1.383 . S
C3576 C3575 1.379 . S
H3577 C3571 0.959 . S
H3578 C3571 0.961 . S
H3579 C3571 0.960 . S
H3580 C3572 0.924 1_455 S
H3581 C3573 0.887 1_455 S
H3582 C3590 0.929 . S
H3583 C3592 0.930 . S
H3584 C3594 0.930 . S
H3585 C3597 0.929 . S
H3586 C3600 0.930 . S
H3587 C3602 0.960 . S
H3588 C3602 0.960 . S
H3589 C3602 0.960 . S
C3590 H3582 0.929 . S
C3590 C3591 1.377 . S
C3590 C3592 1.384 . S
C3591 C3590 1.377 . S
C3591 C3597 1.390 . S
C3592 H3583 0.930 . S
C3592 C3590 1.384 . S
C3592 C3593 1.372 . S
C3593 C3592 1.372 . S
C3593 C3594 1.400 . S
C3593 C3598 1.490 . S
C3594 H3584 0.930 . S
C3594 C3593 1.400 . S
C3594 C3597 1.386 . S
H3595 C3611 0.930 . S
H3596 C3612 0.931 . S
C3597 H3585 0.929 . S
C3597 C3591 1.390 . S
C3597 C3594 1.386 . S
C3598 C3593 1.490 . S
C3598 C3600 1.395 . S
C3598 C3601 1.403 . S
H3599 C3605 0.930 . S
C3600 H3586 0.930 . S
C3600 C3598 1.395 . S
C3600 C3603 1.403 . S
C3601 C3598 1.403 . S
C3601 C3602 1.524 . S
C3601 C3605 1.400 . S
C3602 H3587 0.960 . S
C3602 H3588 0.960 . S
C3602 H3589 0.960 . S
C3602 C3601 1.524 . S
C3603 C3600 1.403 . S
C3603 C3604 1.392 . S
C3603 C3607 1.495 . S
C3604 C3603 1.392 . S
C3604 C3605 1.385 . S
C3604 C3606 1.478 . S
C3605 H3599 0.930 . S
C3605 C3601 1.400 . S
C3605 C3604 1.385 . S
C3606 C3604 1.478 . S
C3606 C3608 1.381 . S
C3606 C3612 1.383 . S
C3607 C3603 1.495 . S
C3607 H3613 0.959 . S
C3607 H3614 0.961 . S
C3607 H3615 0.960 . S
C3608 C3606 1.381 . S
C3608 C3609 1.394 . S
C3608 H3616 0.930 . S
C3609 C3608 1.394 . S
C3609 C3610 1.383 . S
C3609 H3617 0.929 . S
C3610 C3609 1.383 . S
C3610 C3611 1.377 . S
C3611 H3595 0.930 . S
C3611 C3610 1.377 . S
C3611 C3612 1.379 . S
C3612 H3596 0.931 . S
C3612 C3606 1.383 . S
C3612 C3611 1.379 . S
H3613 C3607 0.959 . S
H3614 C3607 0.961 . S
H3615 C3607 0.960 . S
H3616 C3608 0.930 . S
H3617 C3609 0.929 . S
H3618 C3626 0.929 . S
H3619 C3628 0.930 . S
H3620 C3630 0.930 . S
H3621 C3633 0.929 . S
H3622 C3636 0.930 . S
H3623 C3638 0.960 . S
H3624 C3638 0.960 . S
H3625 C3638 0.960 . S
C3626 H3618 0.929 . S
C3626 C3627 1.377 . S
C3626 C3628 1.384 . S
C3627 C3626 1.377 . S
C3627 C3633 1.390 . S
C3628 H3619 0.930 . S
C3628 C3626 1.384 . S
C3628 C3629 1.372 . S
C3629 C3628 1.372 . S
C3629 C3630 1.400 . S
C3629 C3634 1.490 . S
C3630 H3620 0.930 . S
C3630 C3629 1.400 . S
C3630 C3633 1.386 . S
H3631 C3647 0.930 . S
H3632 C3648 0.931 . S
C3633 H3621 0.929 . S
C3633 C3627 1.390 . S
C3633 C3630 1.386 . S
C3634 C3629 1.490 . S
C3634 C3636 1.395 . S
C3634 C3637 1.404 . S
H3635 C3641 0.935 . S
C3636 H3622 0.930 . S
C3636 C3634 1.395 . S
C3636 C3639 1.403 . S
C3637 C3634 1.404 . S
C3637 C3638 1.521 1_545 S
C3637 C3641 1.408 1_545 S
C3638 H3623 0.960 . S
C3638 H3624 0.960 . S
C3638 H3625 0.960 . S
C3638 C3637 1.521 1_565 S
C3639 C3636 1.403 . S
C3639 C3640 1.392 . S
C3639 C3643 1.495 . S
C3640 C3639 1.392 . S
C3640 C3641 1.374 1_545 S
C3640 C3642 1.478 . S
C3641 H3635 0.935 . S
C3641 C3637 1.408 1_565 S
C3641 C3640 1.374 1_565 S
C3642 C3640 1.478 . S
C3642 C3644 1.381 . S
C3642 C3648 1.383 . S
C3643 C3639 1.495 . S
C3643 H3649 0.959 . S
C3643 H3650 0.961 . S
C3643 H3651 0.960 . S
C3644 C3642 1.381 . S
C3644 C3645 1.394 . S
C3644 H3652 0.930 . S
C3645 C3644 1.394 . S
C3645 C3646 1.383 . S
C3645 H3653 0.913 1_545 S
C3646 C3645 1.383 . S
C3646 C3647 1.377 . S
C3647 H3631 0.930 . S
C3647 C3646 1.377 . S
C3647 C3648 1.379 . S
C3648 H3632 0.931 . S
C3648 C3642 1.383 . S
C3648 C3647 1.379 . S
H3649 C3643 0.959 . S
H3650 C3643 0.961 . S
H3651 C3643 0.960 . S
H3652 C3644 0.930 . S
H3653 C3645 0.913 1_565 S
C1071 C8 1.342 . S
C1090 C670 1.399 . S
C1107 C18 1.457 . S
C1126 C716 1.506 . S
C1162 C748 1.457 . S
C1143 C31 1.385 . S
C1179 C34 1.372 . S
C1198 C801 1.423 . S
C1215 C5 1.370 . S
C1234 C847 1.451 . S
C1251 C21 1.475 . S
C1270 C886 1.513 . S
C1287 C47 1.330 . S
C1306 C840 1.367 . S
C1342 C893 1.493 . S
C1323 C57 1.462 . S
C1378 C794 1.477 . S
C1359 C70 1.417 . S
C1395 C73 1.325 . S
C1414 C755 1.395 . S
C1450 C649 1.467 . S
C1431 C44 1.393 . S
C1467 C60 1.460 . S
C1486 C695 1.499 . S
C1503 C86 1.566 . S
C1522 C925 1.600 . S
C1539 C96 1.532 . S
C1558 C992 1.558 . S
C1594 C1038 1.598 . S
C1575 C109 1.593 . S
C1611 C112 1.555 . S
C1630 C249 1.579 . S
C1647 C83 1.585 . S
C1666 C295 1.624 . S
C1683 C99 1.534 . S
C1702 C341 1.555 . S
C1719 C125 1.461 . S
C1738 C288 1.487 . S
C1755 C135 1.516 . S
C1774 C334 1.561 . S
C1810 C242 1.625 . S
C1791 C148 1.588 . S
C1846 C1017 1.681 . S
C1827 C151 1.650 . S
C1882 C946 1.586 . S
C1863 C122 1.564 . S
C1918 C971 1.604 . S
C1899 C138 1.575 . S
C1935 C164 1.460 . S
C1954 C373 1.517 . S
C1971 C174 1.505 . S
C1990 C426 1.552 . S
C2007 C187 1.586 . S
C2026 C472 1.625 . S
C2043 C190 1.645 . S
C2062 C518 1.692 . S
C2098 C571 1.608 . S
C2079 C161 1.585 . S
C2134 C617 1.594 . S
C2115 C177 1.577 . S
C2170 C564 1.625 . S
C2151 C203 1.582 . S
C2206 C610 1.555 . S
C2187 C213 1.550 . S
C2223 C226 1.574 . S
C2242 C525 1.607 . S
C2278 C479 1.593 . S
C2259 C229 1.546 . S
C2295 C200 1.586 . S
C2314 C394 1.609 . S
C2350 C433 1.589 . S
C2331 C216 1.543 . S
C2386 C256 1.471 . S
C2367 C0 1.411 . S
C2403 C23 1.387 . S
C2422 C302 1.384 . S
C2458 C348 1.466 . S
C2439 C36 1.492 . S
C2494 C380 1.472 . S
C2475 C26 1.430 1_556 S
C2530 C419 1.409 . S
C2511 C10 1.465 1_556 S
C2566 C465 1.393 . S
C2547 C13 1.353 . S
C2583 C39 1.427 . S
C2602 C486 1.459 . S
C2619 C62 1.373 . S
C2638 C387 1.367 . S
C2655 C75 1.472 . S
C2674 C440 1.439 . S
C2691 C65 1.479 . S
C2710 C281 1.529 . S
C2746 C327 1.424 . S
C2727 C49 1.452 . S
C2763 C52 1.354 . S
C2782 C235 1.391 . S
C2818 C511 1.423 . S
C2799 C78 1.378 . S
C2835 C101 1.526 . S
C2854 C578 1.514 . S
C2871 C114 1.534 . S
C2890 C624 1.533 . S
C2926 C663 1.236 . S
C2907 C104 1.212 . S
C2943 C88 1.392 . S
C2962 C709 1.362 . S
C2979 C91 1.132 . S
C2998 C741 1.131 . S
C3015 C117 1.163 . S
C3034 C762 1.165 . S
C3051 C140 1.180 . S
C3070 C656 1.181 . S
C3106 C702 1.413 . S
C3087 C153 1.418 . S
C3123 C143 1.416 . S
C3142 C557 1.450 . S
C3159 C127 1.527 . S
C3178 C603 1.494 . S
C3214 C532 1.524 . S
C3195 C130 1.495 . S
C3250 C808 1.210 . S
C3231 C156 1.179 . S
C3267 C179 1.175 . S
C3286 C854 1.183 . S
C3303 C192 1.408 . S
C3322 C879 1.372 . S
C3358 C932 1.432 . S
C3339 C182 1.388 . S
C3394 C985 1.524 . S
C3375 C166 1.534 . S
C3411 C169 1.491 . S
C3430 C1031 1.518 . S
C3447 C195 1.396 . S
C3466 C1024 1.431 . S
C3483 C218 1.518 . S
C3502 C939 1.506 . S
C3538 C978 1.482 . S
C3519 C231 1.509 . S
C3574 C833 1.215 . S
C3555 C221 1.196 . S
C3610 C900 1.367 . S
C3591 C205 1.405 . S
C3627 C208 1.143 . S
C3646 C787 1.158 . S
