# Generated by pormake.
# Topology ptr, (4,4)-cn, num edge types: 1
# Building blocks:
#     Node 0, Type 0, BuildingBlock: CEKHIL_clean_sbu_0, # of connection points: 4
#     Node 1, Type 0, BuildingBlock: CEKHIL_clean_sbu_0, # of connection points: 4
#     Node 2, Type 0, BuildingBlock: CEKHIL_clean_sbu_0, # of connection points: 4
#     Node 3, Type 0, BuildingBlock: CEKHIL_clean_sbu_0, # of connection points: 4
#     Node 4, Type 0, BuildingBlock: CEKHIL_clean_sbu_0, # of connection points: 4
#     Node 5, Type 0, BuildingBlock: CEKHIL_clean_sbu_0, # of connection points: 4
#     Node 6, Type 0, BuildingBlock: CEKHIL_clean_sbu_0, # of connection points: 4
#     Node 7, Type 0, BuildingBlock: CEKHIL_clean_sbu_0, # of connection points: 4
#     Node 8, Type 0, BuildingBlock: CEKHIL_clean_sbu_0, # of connection points: 4
#     Node 9, Type 0, BuildingBlock: CEKHIL_clean_sbu_0, # of connection points: 4
#     Node 10, Type 0, BuildingBlock: CEKHIL_clean_sbu_0, # of connection points: 4
#     Node 11, Type 0, BuildingBlock: CEKHIL_clean_sbu_0, # of connection points: 4
#     Node 12, Type 0, BuildingBlock: CEKHIL_clean_sbu_0, # of connection points: 4
#     Node 13, Type 0, BuildingBlock: CEKHIL_clean_sbu_0, # of connection points: 4
#     Node 14, Type 0, BuildingBlock: CEKHIL_clean_sbu_0, # of connection points: 4
#     Node 15, Type 0, BuildingBlock: CEKHIL_clean_sbu_0, # of connection points: 4
#     Node 16, Type 0, BuildingBlock: CEKHIL_clean_sbu_0, # of connection points: 4
#     Node 17, Type 0, BuildingBlock: CEKHIL_clean_sbu_0, # of connection points: 4
#     Node 18, Type 1, BuildingBlock: NAHDIM_clean_linker_0, # of connection points: 4
#     Node 19, Type 1, BuildingBlock: NAHDIM_clean_linker_0, # of connection points: 4
#     Node 20, Type 1, BuildingBlock: NAHDIM_clean_linker_0, # of connection points: 4
#     Node 21, Type 1, BuildingBlock: NAHDIM_clean_linker_0, # of connection points: 4
#     Node 22, Type 1, BuildingBlock: NAHDIM_clean_linker_0, # of connection points: 4
#     Node 23, Type 1, BuildingBlock: NAHDIM_clean_linker_0, # of connection points: 4
#     Node 24, Type 1, BuildingBlock: NAHDIM_clean_linker_0, # of connection points: 4
#     Node 25, Type 1, BuildingBlock: NAHDIM_clean_linker_0, # of connection points: 4
#     Node 26, Type 1, BuildingBlock: NAHDIM_clean_linker_0, # of connection points: 4
#     Node 27, Type 1, BuildingBlock: NAHDIM_clean_linker_0, # of connection points: 4
#     Node 28, Type 1, BuildingBlock: NAHDIM_clean_linker_0, # of connection points: 4
#     Node 29, Type 1, BuildingBlock: NAHDIM_clean_linker_0, # of connection points: 4
#     Node 30, Type 1, BuildingBlock: NAHDIM_clean_linker_0, # of connection points: 4
#     Node 31, Type 1, BuildingBlock: NAHDIM_clean_linker_0, # of connection points: 4
#     Node 32, Type 1, BuildingBlock: NAHDIM_clean_linker_0, # of connection points: 4
#     Node 33, Type 1, BuildingBlock: NAHDIM_clean_linker_0, # of connection points: 4
#     Node 34, Type 1, BuildingBlock: NAHDIM_clean_linker_0, # of connection points: 4
#     Node 35, Type 1, BuildingBlock: NAHDIM_clean_linker_0, # of connection points: 4
#     Edge 36, Type (0, 1), BuildingBlock: UVAHIK_clean_linker_0, # of connection points: 2
#     Edge 37, Type (0, 1), BuildingBlock: UVAHIK_clean_linker_0, # of connection points: 2
#     Edge 38, Type (0, 1), BuildingBlock: UVAHIK_clean_linker_0, # of connection points: 2
#     Edge 39, Type (0, 1), BuildingBlock: UVAHIK_clean_linker_0, # of connection points: 2
#     Edge 40, Type (0, 1), BuildingBlock: UVAHIK_clean_linker_0, # of connection points: 2
#     Edge 41, Type (0, 1), BuildingBlock: UVAHIK_clean_linker_0, # of connection points: 2
#     Edge 42, Type (0, 1), BuildingBlock: UVAHIK_clean_linker_0, # of connection points: 2
#     Edge 43, Type (0, 1), BuildingBlock: UVAHIK_clean_linker_0, # of connection points: 2
#     Edge 44, Type (0, 1), BuildingBlock: UVAHIK_clean_linker_0, # of connection points: 2
#     Edge 45, Type (0, 1), BuildingBlock: UVAHIK_clean_linker_0, # of connection points: 2
#     Edge 46, Type (0, 1), BuildingBlock: UVAHIK_clean_linker_0, # of connection points: 2
#     Edge 47, Type (0, 1), BuildingBlock: UVAHIK_clean_linker_0, # of connection points: 2
#     Edge 48, Type (0, 1), BuildingBlock: UVAHIK_clean_linker_0, # of connection points: 2
#     Edge 49, Type (0, 1), BuildingBlock: UVAHIK_clean_linker_0, # of connection points: 2
#     Edge 50, Type (0, 1), BuildingBlock: UVAHIK_clean_linker_0, # of connection points: 2
#     Edge 51, Type (0, 1), BuildingBlock: UVAHIK_clean_linker_0, # of connection points: 2
#     Edge 52, Type (0, 1), BuildingBlock: UVAHIK_clean_linker_0, # of connection points: 2
#     Edge 53, Type (0, 1), BuildingBlock: UVAHIK_clean_linker_0, # of connection points: 2
#     Edge 54, Type (0, 1), BuildingBlock: UVAHIK_clean_linker_0, # of connection points: 2
#     Edge 55, Type (0, 1), BuildingBlock: UVAHIK_clean_linker_0, # of connection points: 2
#     Edge 56, Type (0, 1), BuildingBlock: UVAHIK_clean_linker_0, # of connection points: 2
#     Edge 57, Type (0, 1), BuildingBlock: UVAHIK_clean_linker_0, # of connection points: 2
#     Edge 58, Type (0, 1), BuildingBlock: UVAHIK_clean_linker_0, # of connection points: 2
#     Edge 59, Type (0, 1), BuildingBlock: UVAHIK_clean_linker_0, # of connection points: 2
#     Edge 60, Type (0, 1), BuildingBlock: UVAHIK_clean_linker_0, # of connection points: 2
#     Edge 61, Type (0, 1), BuildingBlock: UVAHIK_clean_linker_0, # of connection points: 2
#     Edge 62, Type (0, 1), BuildingBlock: UVAHIK_clean_linker_0, # of connection points: 2
#     Edge 63, Type (0, 1), BuildingBlock: UVAHIK_clean_linker_0, # of connection points: 2
#     Edge 64, Type (0, 1), BuildingBlock: UVAHIK_clean_linker_0, # of connection points: 2
#     Edge 65, Type (0, 1), BuildingBlock: UVAHIK_clean_linker_0, # of connection points: 2
#     Edge 66, Type (0, 1), BuildingBlock: UVAHIK_clean_linker_0, # of connection points: 2
#     Edge 67, Type (0, 1), BuildingBlock: UVAHIK_clean_linker_0, # of connection points: 2
#     Edge 68, Type (0, 1), BuildingBlock: UVAHIK_clean_linker_0, # of connection points: 2
#     Edge 69, Type (0, 1), BuildingBlock: UVAHIK_clean_linker_0, # of connection points: 2
#     Edge 70, Type (0, 1), BuildingBlock: UVAHIK_clean_linker_0, # of connection points: 2
#     Edge 71, Type (0, 1), BuildingBlock: UVAHIK_clean_linker_0, # of connection points: 2
#     Edge 72, Type (0, 1), BuildingBlock: UVAHIK_clean_linker_0, # of connection points: 2
#     Edge 73, Type (0, 1), BuildingBlock: UVAHIK_clean_linker_0, # of connection points: 2
#     Edge 74, Type (0, 1), BuildingBlock: UVAHIK_clean_linker_0, # of connection points: 2
#     Edge 75, Type (0, 1), BuildingBlock: UVAHIK_clean_linker_0, # of connection points: 2
#     Edge 76, Type (0, 1), BuildingBlock: UVAHIK_clean_linker_0, # of connection points: 2
#     Edge 77, Type (0, 1), BuildingBlock: UVAHIK_clean_linker_0, # of connection points: 2
#     Edge 78, Type (0, 1), BuildingBlock: UVAHIK_clean_linker_0, # of connection points: 2
#     Edge 79, Type (0, 1), BuildingBlock: UVAHIK_clean_linker_0, # of connection points: 2
#     Edge 80, Type (0, 1), BuildingBlock: UVAHIK_clean_linker_0, # of connection points: 2
#     Edge 81, Type (0, 1), BuildingBlock: UVAHIK_clean_linker_0, # of connection points: 2
#     Edge 82, Type (0, 1), BuildingBlock: UVAHIK_clean_linker_0, # of connection points: 2
#     Edge 83, Type (0, 1), BuildingBlock: UVAHIK_clean_linker_0, # of connection points: 2
#     Edge 84, Type (0, 1), BuildingBlock: UVAHIK_clean_linker_0, # of connection points: 2
#     Edge 85, Type (0, 1), BuildingBlock: UVAHIK_clean_linker_0, # of connection points: 2
#     Edge 86, Type (0, 1), BuildingBlock: UVAHIK_clean_linker_0, # of connection points: 2
#     Edge 87, Type (0, 1), BuildingBlock: UVAHIK_clean_linker_0, # of connection points: 2
#     Edge 88, Type (0, 1), BuildingBlock: UVAHIK_clean_linker_0, # of connection points: 2
#     Edge 89, Type (0, 1), BuildingBlock: UVAHIK_clean_linker_0, # of connection points: 2
#     Edge 90, Type (0, 1), BuildingBlock: UVAHIK_clean_linker_0, # of connection points: 2
#     Edge 91, Type (0, 1), BuildingBlock: UVAHIK_clean_linker_0, # of connection points: 2
#     Edge 92, Type (0, 1), BuildingBlock: UVAHIK_clean_linker_0, # of connection points: 2
#     Edge 93, Type (0, 1), BuildingBlock: UVAHIK_clean_linker_0, # of connection points: 2
#     Edge 94, Type (0, 1), BuildingBlock: UVAHIK_clean_linker_0, # of connection points: 2
#     Edge 95, Type (0, 1), BuildingBlock: UVAHIK_clean_linker_0, # of connection points: 2
#     Edge 96, Type (0, 1), BuildingBlock: UVAHIK_clean_linker_0, # of connection points: 2
#     Edge 97, Type (0, 1), BuildingBlock: UVAHIK_clean_linker_0, # of connection points: 2
#     Edge 98, Type (0, 1), BuildingBlock: UVAHIK_clean_linker_0, # of connection points: 2
#     Edge 99, Type (0, 1), BuildingBlock: UVAHIK_clean_linker_0, # of connection points: 2
#     Edge 100, Type (0, 1), BuildingBlock: UVAHIK_clean_linker_0, # of connection points: 2
#     Edge 101, Type (0, 1), BuildingBlock: UVAHIK_clean_linker_0, # of connection points: 2
#     Edge 102, Type (0, 1), BuildingBlock: UVAHIK_clean_linker_0, # of connection points: 2
#     Edge 103, Type (0, 1), BuildingBlock: UVAHIK_clean_linker_0, # of connection points: 2
#     Edge 104, Type (0, 1), BuildingBlock: UVAHIK_clean_linker_0, # of connection points: 2
#     Edge 105, Type (0, 1), BuildingBlock: UVAHIK_clean_linker_0, # of connection points: 2
#     Edge 106, Type (0, 1), BuildingBlock: UVAHIK_clean_linker_0, # of connection points: 2
#     Edge 107, Type (0, 1), BuildingBlock: UVAHIK_clean_linker_0, # of connection points: 2
# Relax obj value: 0.030
# Max RMSD: 0.166
# Mean RMSD: 0.058
data_MOF--net-ptr--node1-CEKHIL_clean_sbu_0--node2-NAHDIM_clean_linker_0--edge1-UVAHIK_clean_linker_0
_symmetry_space_group_name_H-M    P1
_symmetry_Int_Tables_number       1
_symmetry_cell_setting            triclinic
loop_
_symmetry_equiv_pos_as_xyz
'x, y, z'
_cell_length_a     114.83339
_cell_length_b     113.03397
_cell_length_c     97.503871
_cell_angle_alpha  91.598785
_cell_angle_beta   89.841543
_cell_angle_gamma 121.06629
loop_
_atom_site_label
_atom_site_type_symbol
_atom_site_fract_x
_atom_site_fract_y
_atom_site_fract_z
_atom_type_partial_charge
Co0 Co 0.00186 0.33509 0.01001 0.0
O1 O 0.006 0.32575 0.02348 0.0
O2 O 0.02117 0.34564 0.01462 0.0
C3 C 0.98922 0.31627 0.99638 0.0
O4 O 0.00113 0.34737 0.99546 0.0
Co5 Co 0.97198 0.3271 0.00567 0.0
O6 O 0.97926 0.33824 0.98908 0.0
C7 C 0.98729 0.34464 0.0296 0.0
C8 C 0.01854 0.33575 0.02293 0.0
C9 C 0.99189 0.34688 0.98755 0.0
O10 O 0.99803 0.34515 0.02501 0.0
O11 O 0.97558 0.33732 0.02383 0.0
O12 O 0.00238 0.32325 0.99551 0.0
O13 O 0.98422 0.3201 0.00625 0.0
Co14 Co 0.66209 0.66102 0.01632 0.0
O15 O 0.6737 0.67183 0.00177 0.0
O16 O 0.67018 0.65143 0.00761 0.0
C17 C 0.6701 0.67855 0.03201 0.0
O18 O 0.65133 0.64711 0.03101 0.0
Co19 Co 0.64089 0.6671 0.02889 0.0
O20 O 0.63952 0.65443 0.04327 0.0
C21 C 0.63546 0.65284 0.00176 0.0
C22 C 0.67636 0.66207 -0.00017 0.0
C23 C 0.64387 0.64618 0.04129 0.0
O24 O 0.64615 0.65201 0.00312 0.0
O25 O 0.63207 0.65918 0.01048 0.0
O26 O 0.67643 0.67193 0.02979 0.0
O27 O 0.65981 0.67511 0.02401 0.0
Co28 Co 0.3378 0.00389 0.00589 0.0
O29 O 0.32844 0.00817 0.99252 0.0
O30 O 0.34794 0.02362 0.00255 0.0
C31 C 0.31953 0.99062 0.01883 0.0
O32 O 0.35001 0.00287 0.02046 0.0
Co33 Co 0.32983 0.97322 0.00774 0.0
O34 O 0.34196 0.98035 0.02414 0.0
C35 C 0.34677 0.98958 0.98498 0.0
C36 C 0.3382 0.02093 0.99388 0.0
C37 C 0.35014 0.99314 0.02698 0.0
O38 O 0.34781 0.00046 0.99077 0.0
O39 O 0.33907 0.97743 0.98948 0.0
O40 O 0.32614 0.00398 0.02037 0.0
O41 O 0.32323 0.98587 0.00857 0.0
Co42 Co 0.99982 0.66902 0.01102 0.0
O43 O 0.9972 0.67855 0.9965 0.0
O44 O 0.98097 0.65888 0.00488 0.0
C45 C 0.01171 0.68791 0.02477 0.0
O46 O 0.99873 0.65651 0.0263 0.0
Co47 Co 0.02872 0.67606 0.01921 0.0
O48 O 0.01954 0.6658 0.03588 0.0
C49 C 0.01564 0.65903 0.99416 0.0
C50 C 0.98452 0.66879 0.99632 0.0
C51 C 0.00679 0.65715 0.03584 0.0
O52 O 0.00457 0.65867 0.99725 0.0
O53 O 0.02671 0.66613 0.00112 0.0
O54 O 0.99851 0.68116 0.02462 0.0
O55 O 0.0173 0.68369 0.01593 0.0
Co56 Co 0.34494 0.34827 0.99811 0.0
O57 O 0.33339 0.33739 0.01268 0.0
O58 O 0.33657 0.35763 0.00674 0.0
C59 C 0.33706 0.33054 0.98257 0.0
O60 O 0.35555 0.36219 0.98341 0.0
Co61 Co 0.36635 0.34254 0.98553 0.0
O62 O 0.36796 0.3555 0.97132 0.0
C63 C 0.37091 0.35559 0.01319 0.0
C64 C 0.33047 0.34697 0.01452 0.0
C65 C 0.36327 0.36346 0.97326 0.0
O66 O 0.36092 0.3575 0.01129 0.0
O67 O 0.3739 0.34875 0.00468 0.0
O68 O 0.33063 0.33708 0.98464 0.0
O69 O 0.34745 0.33428 0.99053 0.0
Co70 Co 0.66637 0.0042 0.01013 0.0
O71 O 0.6758 0.001 0.02438 0.0
O72 O 0.65614 0.98495 0.01509 0.0
C73 C 0.68467 0.01625 0.99684 0.0
O74 O 0.65398 0.00374 0.99487 0.0
Co75 Co 0.67393 0.03412 0.0043 0.0
O76 O 0.66298 0.02534 0.98735 0.0
C77 C 0.65737 0.02036 0.02839 0.0
C78 C 0.66598 0.9882 0.02383 0.0
C79 C 0.65443 0.0124 0.98624 0.0
O80 O 0.65661 0.00905 0.02434 0.0
O81 O 0.66456 0.0318 0.02233 0.0
O82 O 0.67793 0.00284 0.99631 0.0
O83 O 0.68091 0.02189 0.0062 0.0
Co84 Co 0.66635 0.67623 0.33914 0.0
O85 O 0.66652 0.66557 0.35407 0.0
O86 O 0.68435 0.68511 0.34739 0.0
C87 C 0.65516 0.65798 0.32435 0.0
O88 O 0.67036 0.6898 0.32388 0.0
Co89 Co 0.63956 0.67165 0.32665 0.0
O90 O 0.65129 0.68318 0.31171 0.0
C91 C 0.64976 0.68692 0.35323 0.0
C92 C 0.67936 0.67472 0.35553 0.0
C93 C 0.66409 0.69085 0.31348 0.0
O94 O 0.6608 0.68667 0.35205 0.0
O95 O 0.63983 0.68087 0.34463 0.0
O96 O 0.66823 0.66396 0.32608 0.0
O97 O 0.64918 0.66262 0.33215 0.0
Co98 Co 0.32479 0.99145 0.35483 0.0
O99 O 0.3369 0.00026 0.33977 0.0
O100 O 0.33121 0.97981 0.34769 0.0
C101 C 0.33397 0.01022 0.36906 0.0
O102 O 0.3134 0.97915 0.37029 0.0
Co103 Co 0.30514 0.00032 0.366 0.0
O104 O 0.30236 0.98804 0.38136 0.0
C105 C 0.29865 0.9842 0.33984 0.0
C106 C 0.33816 0.98947 0.33904 0.0
C107 C 0.30602 0.97918 0.38023 0.0
O108 O 0.3088 0.98255 0.3417 0.0
O109 O 0.29596 0.9916 0.34791 0.0
O110 O 0.33946 0.00266 0.36796 0.0
O111 O 0.3238 0.00682 0.3609 0.0
Co112 Co 0.01787 0.3373 0.34391 0.0
O113 O 0.00874 0.33988 0.32876 0.0
O114 O 0.0288 0.35585 0.33737 0.0
C115 C 0.99946 0.32693 0.35744 0.0
O116 O 0.03028 0.33896 0.35968 0.0
Co117 Co 0.00973 0.30833 0.35408 0.0
O118 O 0.02221 0.3186 0.36974 0.0
C119 C 0.02481 0.31823 0.32821 0.0
C120 C 0.01905 0.35246 0.3285 0.0
C121 C 0.03065 0.33155 0.36925 0.0
O122 O 0.02688 0.3304 0.33082 0.0
O123 O 0.01732 0.30786 0.33564 0.0
O124 O 0.00656 0.34032 0.35689 0.0
O125 O 0.00312 0.32034 0.3492 0.0
Co126 Co 0.66815 0.98532 0.34974 0.0
O127 O 0.66641 0.99488 0.33456 0.0
O128 O 0.65024 0.97443 0.3415 0.0
C129 C 0.67767 0.00389 0.36434 0.0
O130 O 0.66569 0.97247 0.36517 0.0
Co131 Co 0.69599 0.9933 0.36245 0.0
O132 O 0.68511 0.98074 0.37726 0.0
C133 C 0.68766 0.9788 0.33537 0.0
C134 C 0.65402 0.98453 0.33316 0.0
C135 C 0.67245 0.97213 0.37551 0.0
O136 O 0.67549 0.97632 0.33712 0.0
O137 O 0.69751 0.98641 0.34371 0.0
O138 O 0.66455 0.9966 0.36258 0.0
O139 O 0.68457 0.00028 0.35667 0.0
Co140 Co 0.01207 0.68574 0.34191 0.0
O141 O 1.00034 0.67421 0.35602 0.0
O142 O 0.0023 0.6939 0.35004 0.0
C143 C 0.006 0.6683 0.32649 0.0
O144 O 0.02265 0.70007 0.32746 0.0
Co145 Co 0.0351 0.68184 0.33026 0.0
O146 O 0.03574 0.69403 0.31568 0.0
C147 C 0.03765 0.69413 0.3581 0.0
C148 C 0.9965 0.68311 0.35767 0.0
C149 C 0.03049 0.70152 0.31736 0.0
O150 O 0.02745 0.69561 0.35576 0.0
O151 O 0.04138 0.68779 0.34975 0.0
O152 O 0.99865 0.67395 0.32777 0.0
O153 O 0.01611 0.67275 0.33494 0.0
Co154 Co 0.32249 0.33631 0.34099 0.0
O155 O 0.33344 0.336 0.35572 0.0
O156 O 0.31336 0.31834 0.34917 0.0
C157 C 0.33965 0.34626 0.32592 0.0
O158 O 0.30855 0.33241 0.32588 0.0
Co159 Co 0.32796 0.36373 0.32897 0.0
O160 O 0.31574 0.35161 0.31389 0.0
C161 C 0.3147 0.3552 0.35589 0.0
C162 C 0.32401 0.32319 0.35717 0.0
C163 C 0.30767 0.33873 0.31548 0.0
O164 O 0.31365 0.34334 0.35418 0.0
O165 O 0.3209 0.36499 0.34747 0.0
O166 O 0.33329 0.33302 0.32764 0.0
O167 O 0.33612 0.35313 0.33396 0.0
Co168 Co 0.33714 0.01713 0.67254 0.0
O169 O 0.33948 0.00801 0.68779 0.0
O170 O 0.35525 0.02834 0.68016 0.0
C171 C 0.32718 0.99831 0.65836 0.0
O172 O 0.33907 0.02958 0.65689 0.0
Co173 Co 0.30893 0.00887 0.66045 0.0
O174 O 0.31941 0.02078 0.64512 0.0
C175 C 0.31837 0.02504 0.68664 0.0
C176 C 0.35184 0.01851 0.68875 0.0
C177 C 0.33207 0.02953 0.64657 0.0
O178 O 0.33015 0.02639 0.68528 0.0
O179 O 0.30841 0.01781 0.67831 0.0
O180 O 0.34034 0.00553 0.65973 0.0
O181 O 0.32053 0.0021 0.6662 0.0
Co182 Co 0.99062 0.32107 0.67439 0.0
O183 O 0.00219 0.33245 0.66005 0.0
O184 O 0.00137 0.31365 0.66729 0.0
C185 C 0.99534 0.33878 0.68908 0.0
O186 O 0.98064 0.30711 0.68931 0.0
Co187 Co 0.96617 0.32311 0.68501 0.0
O188 O 0.96685 0.31256 0.70054 0.0
C189 C 0.96381 0.30829 0.65865 0.0
C190 C 0.0068 0.32412 0.65924 0.0
C191 C 0.97275 0.30566 0.69938 0.0
O192 O 0.97559 0.30975 0.66053 0.0
O193 O 0.95872 0.31346 0.66681 0.0
O194 O 0.0035 0.33402 0.68824 0.0
O195 O 0.98524 0.33336 0.6805 0.0
Co196 Co 0.67773 0.66963 0.67535 0.0
O197 O 0.66681 0.67015 0.66072 0.0
O198 O 0.6867 0.68785 0.66771 0.0
C199 C 0.66048 0.6589 0.69022 0.0
O200 O 0.69162 0.6733 0.69041 0.0
Co201 Co 0.67255 0.6419 0.68649 0.0
O202 O 0.68525 0.65372 0.70144 0.0
C203 C 0.68576 0.65138 0.65967 0.0
C204 C 0.67614 0.68306 0.65959 0.0
C205 C 0.69298 0.66672 0.70026 0.0
O206 O 0.68696 0.66325 0.66192 0.0
O207 O 0.67935 0.64124 0.66768 0.0
O208 O 0.66655 0.67219 0.68889 0.0
O209 O 0.66432 0.65251 0.68191 0.0
Co210 Co 0.33538 0.32462 0.67617 0.0
O211 O 0.33525 0.33542 0.66137 0.0
O212 O 0.31742 0.31575 0.66775 0.0
C213 C 0.34623 0.34277 0.69111 0.0
O214 O 0.33141 0.31092 0.6913 0.0
Co215 Co 0.36219 0.32949 0.68867 0.0
O216 O 0.3505 0.31772 0.7035 0.0
C217 C 0.35242 0.31461 0.66187 0.0
C218 C 0.32244 0.32627 0.65977 0.0
C219 C 0.33771 0.30992 0.7017 0.0
O220 O 0.34119 0.31447 0.6632 0.0
O221 O 0.36235 0.32086 0.67045 0.0
O222 O 0.33315 0.33654 0.68935 0.0
O223 O 0.35244 0.33843 0.68328 0.0
Co224 Co 0.68294 0.01763 0.66219 0.0
O225 O 0.67141 0.00787 0.67729 0.0
O226 O 0.67582 0.02828 0.67048 0.0
C227 C 0.674 0.9992 0.64746 0.0
O228 O 0.69357 0.03067 0.64684 0.0
Co229 Co 0.70315 0.01022 0.64953 0.0
O230 O 0.70464 0.02247 0.63463 0.0
C231 C 0.70943 0.02503 0.67646 0.0
C232 C 0.66942 0.01814 0.6788 0.0
C233 C 0.70064 0.03101 0.63641 0.0
O234 O 0.69925 0.02673 0.67495 0.0
O235 O 0.71207 0.01792 0.66794 0.0
O236 O 0.66808 0.00629 0.64925 0.0
O237 O 0.68452 0.00289 0.6552 0.0
Co238 Co 0.98115 0.6676 0.67418 0.0
O239 O 0.99001 0.6649 0.68955 0.0
O240 O 0.96995 0.64915 0.68077 0.0
C241 C 0.99974 0.67763 0.66086 0.0
O242 O 0.96894 0.66589 0.65816 0.0
Co243 Co 0.98962 0.69635 0.6632 0.0
O244 O 0.97782 0.68586 0.6472 0.0
C245 C 0.97415 0.68706 0.68898 0.0
C246 C 0.9796 0.65237 0.6897 0.0
C247 C 0.96907 0.67303 0.64805 0.0
O248 O 0.97224 0.67487 0.68698 0.0
O249 O 0.98153 0.69715 0.68121 0.0
O250 O 0.99245 0.66425 0.6615 0.0
O251 O 0.99609 0.68442 0.66883 0.0
C252 C 0.20351 0.27025 0.09067 0.0
C253 C 0.20643 0.28492 0.08831 0.0
C254 C 0.19657 0.29183 0.10704 0.0
C255 C 0.19986 0.30247 0.11671 0.0
C256 C 0.18972 0.30349 0.1237 0.0
C257 C 0.17589 0.29315 0.12144 0.0
C258 C 0.17247 0.28225 0.11173 0.0
C259 C 0.18283 0.28184 0.10446 0.0
C260 C 0.19384 0.31564 0.13349 0.0
C261 C 0.15787 0.27096 0.1091 0.0
C262 C 0.09366 0.31121 0.08915 0.0
C263 C 0.0999 0.30447 0.09656 0.0
C264 C 0.1215 0.30943 0.10651 0.0
C265 C 0.11719 0.29554 0.10888 0.0
C266 C 0.12554 0.29205 0.11603 0.0
C267 C 0.1384 0.30264 0.12104 0.0
C268 C 0.14288 0.3166 0.11848 0.0
C269 C 0.13438 0.3198 0.11116 0.0
C270 C 0.12056 0.27702 0.11832 0.0
C271 C 0.15655 0.32814 0.12365 0.0
C272 C 0.10906 0.29347 0.20737 0.0
C273 C 0.10564 0.28094 0.20052 0.0
C274 C 0.11561 0.27931 0.19389 0.0
C275 C 0.12923 0.29046 0.19394 0.0
C276 C 0.13274 0.30301 0.20095 0.0
C277 C 0.12259 0.30432 0.20761 0.0
C278 C 0.11156 0.26573 0.18662 0.0
C279 C 0.14716 0.31512 0.20116 0.0
C280 C 0.20374 0.2591 0.20514 0.0
C281 C 0.20347 0.27187 0.21025 0.0
C282 C 0.18248 0.27207 0.20802 0.0
C283 C 0.16886 0.26228 0.20511 0.0
C284 C 0.16054 0.26587 0.19805 0.0
C285 C 0.16592 0.27972 0.19421 0.0
C286 C 0.17951 0.28984 0.19786 0.0
C287 C 0.18769 0.28587 0.20463 0.0
C288 C 0.14609 0.25481 0.19445 0.0
C289 C 0.18546 0.30482 0.19449 0.0
C290 C 0.16506 0.29375 0.12924 0.0
C291 C 0.15708 0.29782 0.12235 0.0
C292 C 0.14702 0.29906 0.12917 0.0
C293 C 0.14511 0.29662 0.14338 0.0
C294 C 0.13546 0.2983 0.15068 0.0
C295 C 0.13366 0.2959 0.16465 0.0
C296 C 0.14141 0.29167 0.17188 0.0
C297 C 0.13965 0.2892 0.18609 0.0
C298 C 0.14775 0.28534 0.19305 0.0
C299 C 0.15746 0.28357 0.18613 0.0
C300 C 0.1591 0.28562 0.17183 0.0
C301 C 0.16839 0.28344 0.16441 0.0
C302 C 0.17022 0.2859 0.15044 0.0
C303 C 0.16288 0.29068 0.14333 0.0
C304 C 0.15306 0.2924 0.15047 0.0
C305 C 0.15118 0.28989 0.16474 0.0
C306 C 0.0789 0.28682 0.20096 0.0
C307 C 0.0858 0.28666 0.21434 0.0
O308 O 0.20696 0.29151 0.10068 0.0
O309 O 0.19035 0.26792 0.2141 0.0
O310 O 0.09973 0.29567 0.21372 0.0
O311 O 0.11355 0.3132 0.09989 0.0
H312 H 0.19812 0.28404 0.08166 0.0
H313 H 0.19311 0.26364 0.09467 0.0
H314 H 0.21076 0.27036 0.09824 0.0
H315 H 0.20421 0.26544 0.08085 0.0
H316 H 0.21048 0.31015 0.11861 0.0
H317 H 0.18009 0.27355 0.09698 0.0
H318 H 0.18698 0.31977 0.13236 0.0
H319 H 0.20447 0.32412 0.13183 0.0
H320 H 0.19311 0.31227 0.1442 0.0
H321 H 0.15706 0.2622 0.10283 0.0
H322 H 0.15249 0.27523 0.10357 0.0
H323 H 0.15259 0.26697 0.11896 0.0
H324 H 0.09386 0.29811 0.10535 0.0
H325 H 0.08851 0.30098 0.06991 0.0
H326 H 0.10086 0.32271 0.09048 0.0
H327 H 0.08585 0.31091 0.09636 0.0
H328 H 0.10733 0.28735 0.10517 0.0
H329 H 0.13767 0.33047 0.10923 0.0
H330 H 0.12828 0.27454 0.1148 0.0
H331 H 0.11079 0.26997 0.11286 0.0
H332 H 0.11909 0.27503 0.12946 0.0
H333 H 0.15836 0.3385 0.12122 0.0
H334 H 0.16471 0.32693 0.11897 0.0
H335 H 0.1573 0.32758 0.13494 0.0
H336 H 0.08356 0.27599 0.21597 0.0
H337 H 0.09524 0.2724 0.20015 0.0
H338 H 0.12516 0.31394 0.21292 0.0
H339 H 0.11292 0.26728 0.1754 0.0
H340 H 0.10081 0.25768 0.18849 0.0
H341 H 0.11823 0.26192 0.19004 0.0
H342 H 0.14822 0.32424 0.20696 0.0
H343 H 0.15061 0.31813 0.19049 0.0
H344 H 0.154 0.31211 0.2059 0.0
H345 H 0.20669 0.27892 0.20143 0.0
H346 H 0.21419 0.26201 0.20206 0.0
H347 H 0.19688 0.25434 0.19606 0.0
H348 H 0.20026 0.25128 0.21323 0.0
H349 H 0.1649 0.25169 0.20798 0.0
H350 H 0.19812 0.29355 0.20733 0.0
H351 H 0.14415 0.25483 0.1833 0.0
H352 H 0.13897 0.25704 0.20005 0.0
H353 H 0.14382 0.24435 0.19712 0.0
H354 H 0.19535 0.31166 0.19984 0.0
H355 H 0.1783 0.30829 0.19735 0.0
H356 H 0.1871 0.30602 0.18327 0.0
H357 H 0.15868 0.30001 0.11152 0.0
H358 H 0.12922 0.30158 0.14568 0.0
H359 H 0.12612 0.29743 0.16972 0.0
H360 H 0.14646 0.28366 0.20399 0.0
H361 H 0.17439 0.27985 0.16933 0.0
H362 H 0.17753 0.28405 0.14529 0.0
H363 H 0.06771 0.27978 0.20157 0.0
H364 H 0.08259 0.28326 0.19217 0.0
H365 H 0.08115 0.29742 0.19896 0.0
C366 C 0.72259 0.90973 0.07298 0.0
C367 C 0.71142 0.90596 0.08354 0.0
C368 C 0.71659 0.90154 0.10621 0.0
C369 C 0.70405 0.89038 0.11014 0.0
C370 C 0.70344 0.88093 0.11957 0.0
C371 C 0.71566 0.88263 0.12501 0.0
C372 C 0.72831 0.89418 0.12137 0.0
C373 C 0.72858 0.90366 0.11219 0.0
C374 C 0.68976 0.86891 0.12341 0.0
C375 C 0.74156 0.89623 0.12675 0.0
C376 C 0.71168 0.78644 0.09268 0.0
C377 C 0.71683 0.80087 0.09766 0.0
C378 C 0.70859 0.81419 0.11005 0.0
C379 C 0.72158 0.8257 0.11299 0.0
C380 C 0.7231 0.83712 0.12064 0.0
C381 C 0.71142 0.83703 0.12542 0.0
C382 C 0.69834 0.82553 0.1224 0.0
C383 C 0.69711 0.81423 0.11475 0.0
C384 C 0.73719 0.84927 0.12368 0.0
C385 C 0.68569 0.82517 0.12729 0.0
C386 C 0.71595 0.81913 0.21314 0.0
C387 C 0.72862 0.83041 0.20947 0.0
C388 C 0.72946 0.84161 0.20264 0.0
C389 C 0.71743 0.84163 0.19961 0.0
C390 C 0.70471 0.83052 0.20371 0.0
C391 C 0.70416 0.81941 0.21039 0.0
C392 C 0.74318 0.85331 0.19844 0.0
C393 C 0.69169 0.83026 0.20074 0.0
C394 C 0.74126 0.94939 0.21164 0.0
C395 C 0.73021 0.93487 0.21565 0.0
C396 C 0.73218 0.91446 0.21196 0.0
C397 C 0.7421 0.91121 0.2089 0.0
C398 C 0.73865 0.89859 0.20237 0.0
C399 C 0.72485 0.88883 0.19922 0.0
C400 C 0.71465 0.89174 0.20302 0.0
C401 C 0.71843 0.9046 0.20929 0.0
C402 C 0.7498 0.89581 0.19862 0.0
C403 C 0.69981 0.88137 0.20025 0.0
C404 C 0.71521 0.87166 0.13343 0.0
C405 C 0.71348 0.85986 0.12648 0.0
C406 C 0.71291 0.84902 0.13356 0.0
C407 C 0.71405 0.84984 0.14803 0.0
C408 C 0.71344 0.83905 0.15546 0.0
C409 C 0.71466 0.83999 0.16969 0.0
C410 C 0.71663 0.85178 0.17704 0.0
C411 C 0.71806 0.85288 0.19151 0.0
C412 C 0.72037 0.8649 0.19847 0.0
C413 C 0.72124 0.87591 0.19136 0.0
C414 C 0.71951 0.87486 0.17692 0.0
C415 C 0.7201 0.88564 0.16945 0.0
C416 C 0.71845 0.88453 0.15524 0.0
C417 C 0.71652 0.87276 0.14791 0.0
C418 C 0.71592 0.86178 0.15522 0.0
C419 C 0.71729 0.86278 0.16975 0.0
C420 C 0.7288 0.80046 0.20846 0.0
C421 C 0.72453 0.80465 0.22179 0.0
O422 O 0.71734 0.91025 0.0965 0.0
O423 O 0.73627 0.92713 0.21761 0.0
O424 O 0.71453 0.80773 0.21914 0.0
O425 O 0.70669 0.80286 0.10282 0.0
H426 H 0.70457 0.89451 0.0829 0.0
H427 H 0.72827 0.90451 0.07536 0.0
H428 H 0.72986 0.92108 0.07317 0.0
H429 H 0.71808 0.90631 0.06251 0.0
H430 H 0.69477 0.88901 0.10572 0.0
H431 H 0.73819 0.91244 0.10914 0.0
H432 H 0.68836 0.85927 0.11851 0.0
H433 H 0.68127 0.87022 0.12003 0.0
H434 H 0.68922 0.86764 0.13469 0.0
H435 H 0.75053 0.90523 0.1222 0.0
H436 H 0.74208 0.88682 0.1245 0.0
H437 H 0.74214 0.89787 0.13806 0.0
H438 H 0.72369 0.80904 0.09049 0.0
H439 H 0.72092 0.77939 0.10601 0.0
H440 H 0.71356 0.78721 0.0813 0.0
H441 H 0.7003 0.7813 0.09152 0.0
H442 H 0.73056 0.82584 0.10937 0.0
H443 H 0.68714 0.80532 0.11243 0.0
H444 H 0.73821 0.85874 0.11937 0.0
H445 H 0.74526 0.8477 0.11934 0.0
H446 H 0.73882 0.85105 0.13495 0.0
H447 H 0.67625 0.81551 0.12395 0.0
H448 H 0.68541 0.83412 0.12329 0.0
H449 H 0.6859 0.82608 0.13866 0.0
H450 H 0.73353 0.81384 0.22664 0.0
H451 H 0.73789 0.83052 0.2117 0.0
H452 H 0.69444 0.81073 0.21334 0.0
H453 H 0.74328 0.85455 0.18718 0.0
H454 H 0.75157 0.85161 0.20125 0.0
H455 H 0.74513 0.8631 0.20347 0.0
H456 H 0.68273 0.82135 0.20541 0.0
H457 H 0.68999 0.82962 0.18947 0.0
H458 H 0.69251 0.83997 0.20468 0.0
H459 H 0.72272 0.93042 0.20698 0.0
H460 H 0.73678 0.95582 0.20944 0.0
H461 H 0.74643 0.94874 0.20225 0.0
H462 H 0.74897 0.95451 0.22003 0.0
H463 H 0.75264 0.91882 0.21125 0.0
H464 H 0.71067 0.9069 0.21215 0.0
H465 H 0.74909 0.89294 0.18753 0.0
H466 H 0.74855 0.88696 0.20448 0.0
H467 H 0.76009 0.90488 0.20087 0.0
H468 H 0.69307 0.88452 0.20523 0.0
H469 H 0.69717 0.8711 0.20398 0.0
H470 H 0.69779 0.88023 0.18902 0.0
H471 H 0.71261 0.85913 0.11537 0.0
H472 H 0.712 0.82976 0.15035 0.0
H473 H 0.71413 0.83136 0.17483 0.0
H474 H 0.72171 0.86579 0.20954 0.0
H475 H 0.72179 0.89505 0.17451 0.0
H476 H 0.71887 0.89308 0.15006 0.0
H477 H 0.73653 0.79764 0.21071 0.0
H478 H 0.73334 0.80911 0.20127 0.0
H479 H 0.71988 0.7915 0.20327 0.0
C480 C 0.18718 0.91344 0.08411 0.0
C481 C 0.19743 0.91576 0.09549 0.0
C482 C 0.18361 0.89608 0.11031 0.0
C483 C 0.17543 0.90099 0.11568 0.0
C484 C 0.16456 0.89287 0.12435 0.0
C485 C 0.16185 0.87963 0.12782 0.0
C486 C 0.17022 0.87478 0.12272 0.0
C487 C 0.18101 0.88309 0.11403 0.0
C488 C 0.15583 0.89837 0.12964 0.0
C489 C 0.16766 0.86074 0.12633 0.0
C490 C 0.06196 0.82431 0.09587 0.0
C491 C 0.07246 0.81979 0.09533 0.0
C492 C 0.08819 0.82717 0.11475 0.0
C493 C 0.09469 0.82155 0.12177 0.0
C494 C 0.1072 0.83009 0.12851 0.0
C495 C 0.11288 0.8446 0.12888 0.0
C496 C 0.10623 0.85033 0.12187 0.0
C497 C 0.09404 0.84154 0.11469 0.0
C498 C 0.11423 0.82355 0.13525 0.0
C499 C 0.11187 0.86571 0.1221 0.0
C500 C 0.09095 0.82957 0.21683 0.0
C501 C 0.09911 0.82461 0.21168 0.0
C502 C 0.11128 0.83341 0.20494 0.0
C503 C 0.1153 0.84741 0.20326 0.0
C504 C 0.10738 0.85256 0.20899 0.0
C505 C 0.09536 0.84358 0.21587 0.0
C506 C 0.11972 0.82767 0.19938 0.0
C507 C 0.11141 0.86745 0.20749 0.0
C508 C 0.2168 0.92844 0.20796 0.0
C509 C 0.20914 0.925 0.22154 0.0
C510 C 0.18885 0.90223 0.21598 0.0
C511 C 0.18402 0.88808 0.21568 0.0
C512 C 0.17188 0.87863 0.20876 0.0
C513 C 0.16418 0.88348 0.2023 0.0
C514 C 0.16872 0.89775 0.20301 0.0
C515 C 0.18112 0.90701 0.20963 0.0
C516 C 0.16741 0.86351 0.20815 0.0
C517 C 0.16054 0.90327 0.19668 0.0
C518 C 0.14988 0.87067 0.13632 0.0
C519 C 0.13757 0.86175 0.12953 0.0
C520 C 0.12562 0.85375 0.13681 0.0
C521 C 0.12592 0.85462 0.15132 0.0
C522 C 0.11401 0.84711 0.15898 0.0
C523 C 0.11448 0.84768 0.17325 0.0
C524 C 0.12682 0.85597 0.18043 0.0
C525 C 0.12742 0.85645 0.19494 0.0
C526 C 0.13972 0.86542 0.20176 0.0
C527 C 0.15159 0.87372 0.19445 0.0
C528 C 0.15132 0.87287 0.17994 0.0
C529 C 0.16319 0.88062 0.17227 0.0
C530 C 0.16276 0.87993 0.15799 0.0
C531 C 0.15046 0.87137 0.15083 0.0
C532 C 0.13842 0.86331 0.15834 0.0
C533 C 0.13886 0.86405 0.17291 0.0
C534 C 0.05629 0.80735 0.21375 0.0
C535 C 0.06931 0.80782 0.21814 0.0
O536 O 0.19392 0.90335 0.10143 0.0
O537 O 0.20092 0.91078 0.22253 0.0
O538 O 0.07879 0.82112 0.22276 0.0
O539 O 0.07608 0.81847 0.10847 0.0
H540 H 0.19756 0.92307 0.10346 0.0
H541 H 0.17687 0.90936 0.08835 0.0
H542 H 0.18663 0.90591 0.07617 0.0
H543 H 0.19022 0.92336 0.07917 0.0
H544 H 0.17731 0.91106 0.11308 0.0
H545 H 0.18738 0.8794 0.10993 0.0
H546 H 0.14514 0.89135 0.1262 0.0
H547 H 0.1593 0.90892 0.12606 0.0
H548 H 0.15598 0.89866 0.14104 0.0
H549 H 0.17546 0.85872 0.12203 0.0
H550 H 0.1575 0.85262 0.12232 0.0
H551 H 0.16757 0.85991 0.13765 0.0
H552 H 0.08149 0.82785 0.08982 0.0
H553 H 0.05833 0.82439 0.08534 0.0
H554 H 0.0666 0.83491 0.10045 0.0
H555 H 0.05312 0.81731 0.1022 0.0
H556 H 0.09005 0.81042 0.12171 0.0
H557 H 0.08893 0.84587 0.10934 0.0
H558 H 0.11251 0.82319 0.14647 0.0
H559 H 0.12537 0.82968 0.13357 0.0
H560 H 0.11027 0.8128 0.1313 0.0
H561 H 0.10445 0.8683 0.118 0.0
H562 H 0.12112 0.87078 0.11573 0.0
H563 H 0.11483 0.87011 0.13272 0.0
H564 H 0.07297 0.80489 0.20879 0.0
H565 H 0.09598 0.81388 0.21292 0.0
H566 H 0.08909 0.84734 0.2201 0.0
H567 H 0.11922 0.82727 0.188 0.0
H568 H 0.11611 0.8171 0.20297 0.0
H569 H 0.13054 0.83454 0.20252 0.0
H570 H 0.10391 0.86973 0.21213 0.0
H571 H 0.11244 0.86994 0.19646 0.0
H572 H 0.12147 0.87432 0.21251 0.0
H573 H 0.20289 0.9299 0.22207 0.0
H574 H 0.22338 0.93981 0.20703 0.0
H575 H 0.20948 0.92439 0.19919 0.0
H576 H 0.22322 0.92372 0.20733 0.0
H577 H 0.19 0.88447 0.22067 0.0
H578 H 0.18457 0.91789 0.20979 0.0
H579 H 0.16528 0.85951 0.19735 0.0
H580 H 0.15785 0.85756 0.21393 0.0
H581 H 0.17518 0.8616 0.21258 0.0
H582 H 0.16415 0.91406 0.20021 0.0
H583 H 0.14962 0.89668 0.19921 0.0
H584 H 0.16141 0.90309 0.18535 0.0
H585 H 0.13724 0.86116 0.11839 0.0
H586 H 0.10419 0.84064 0.15405 0.0
H587 H 0.105 0.84157 0.17857 0.0
H588 H 0.14006 0.86595 0.21289 0.0
H589 H 0.17296 0.88732 0.17722 0.0
H590 H 0.17219 0.88615 0.15264 0.0
H591 H 0.05212 0.8106 0.22238 0.0
H592 H 0.04849 0.79674 0.21014 0.0
H593 H 0.05852 0.81447 0.20518 0.0
C594 C 0.30014 0.11965 0.94204 0.0
C595 C 0.29739 0.108 0.93169 0.0
C596 C 0.29885 0.11963 0.91038 0.0
C597 C 0.28501 0.11507 0.90843 0.0
C598 C 0.28096 0.12206 0.89978 0.0
C599 C 0.29093 0.13398 0.8931 0.0
C600 C 0.30485 0.13838 0.89476 0.0
C601 C 0.30859 0.13096 0.90319 0.0
C602 C 0.266 0.11683 0.89797 0.0
C603 C 0.31581 0.15114 0.88798 0.0
C604 C 0.25744 0.18623 0.94727 0.0
C605 C 0.26845 0.19115 0.93636 0.0
C606 C 0.26681 0.18035 0.91395 0.0
C607 C 0.28071 0.18557 0.91189 0.0
C608 C 0.28504 0.17914 0.90236 0.0
C609 C 0.27525 0.16712 0.89495 0.0
C610 C 0.26122 0.16208 0.89678 0.0
C611 C 0.25721 0.16898 0.90606 0.0
C612 C 0.30007 0.18502 0.90043 0.0
C613 C 0.25043 0.14913 0.88932 0.0
C614 C 0.26806 0.18549 0.80707 0.0
C615 C 0.28148 0.19006 0.81116 0.0
C616 C 0.28468 0.18118 0.81775 0.0
C617 C 0.27422 0.16748 0.82035 0.0
C618 C 0.26078 0.16272 0.81579 0.0
C619 C 0.25791 0.17177 0.80905 0.0
C620 C 0.2992 0.18646 0.82203 0.0
C621 C 0.2494 0.14815 0.81826 0.0
C622 C 0.28814 0.0838 0.81355 0.0
C623 C 0.2847 0.08707 0.7995 0.0
C624 C 0.28854 0.11032 0.80454 0.0
C625 C 0.29863 0.12431 0.80477 0.0
C626 C 0.29683 0.13419 0.81192 0.0
C627 C 0.28444 0.12995 0.8187 0.0
C628 C 0.27389 0.11589 0.81793 0.0
C629 C 0.27612 0.10618 0.81102 0.0
C630 C 0.30827 0.14908 0.81249 0.0
C631 C 0.26034 0.11106 0.8246 0.0
C632 C 0.28684 0.14238 0.88522 0.0
C633 C 0.28354 0.15094 0.8927 0.0
C634 C 0.27961 0.15921 0.88615 0.0
C635 C 0.27931 0.15928 0.87166 0.0
C636 C 0.27603 0.16794 0.86473 0.0
C637 C 0.27542 0.16766 0.85045 0.0
C638 C 0.27806 0.15871 0.84257 0.0
C639 C 0.27732 0.15824 0.82805 0.0
C640 C 0.27952 0.14885 0.82058 0.0
C641 C 0.28273 0.14004 0.82719 0.0
C642 C 0.284 0.14072 0.84166 0.0
C643 C 0.28768 0.13235 0.84862 0.0
C644 C 0.28862 0.13287 0.86287 0.0
C645 C 0.28599 0.14182 0.87073 0.0
C646 C 0.28231 0.15039 0.86393 0.0
C647 C 0.28149 0.14996 0.84938 0.0
C648 C 0.2583 0.20986 0.80949 0.0
C649 C 0.26986 0.20783 0.80471 0.0
O650 O 0.30317 0.11348 0.91917 0.0
O651 O 0.29131 0.10126 0.79803 0.0
O652 O 0.26458 0.194 0.80114 0.0
O653 O 0.26234 0.18588 0.92363 0.0
H654 H 0.28623 0.10103 0.93042 0.0
H655 H 0.29542 0.12546 0.93836 0.0
H656 H 0.31126 0.12695 0.9434 0.0
H657 H 0.29568 0.11535 0.95213 0.0
H658 H 0.2773 0.10602 0.91351 0.0
H659 H 0.31923 0.13432 0.90465 0.0
H660 H 0.26354 0.124 0.90344 0.0
H661 H 0.2595 0.10635 0.90208 0.0
H662 H 0.26344 0.11654 0.88694 0.0
H663 H 0.32618 0.15379 0.89117 0.0
H664 H 0.31458 0.16007 0.89054 0.0
H665 H 0.31485 0.14949 0.87667 0.0
H666 H 0.27498 0.18691 0.93909 0.0
H667 H 0.26211 0.19031 0.95759 0.0
H668 H 0.25167 0.17476 0.9474 0.0
H669 H 0.25019 0.1897 0.94507 0.0
H670 H 0.28818 0.19462 0.91774 0.0
H671 H 0.24651 0.16514 0.90767 0.0
H672 H 0.30243 0.18548 0.88934 0.0
H673 H 0.30307 0.17817 0.90521 0.0
H674 H 0.30627 0.19554 0.9052 0.0
H675 H 0.24006 0.14571 0.8931 0.0
H676 H 0.25245 0.1406 0.89054 0.0
H677 H 0.25066 0.15104 0.8782 0.0
H678 H 0.27702 0.21101 0.81363 0.0
H679 H 0.28947 0.20054 0.80913 0.0
H680 H 0.24763 0.16828 0.80564 0.0
H681 H 0.29998 0.18686 0.8334 0.0
H682 H 0.30633 0.19694 0.81822 0.0
H683 H 0.30243 0.17928 0.81813 0.0
H684 H 0.2394 0.14622 0.81461 0.0
H685 H 0.24878 0.1461 0.8294 0.0
H686 H 0.25156 0.14071 0.81289 0.0
H687 H 0.27353 0.08248 0.79851 0.0
H688 H 0.28293 0.07245 0.81475 0.0
H689 H 0.28468 0.08811 0.82189 0.0
H690 H 0.29929 0.08835 0.8147 0.0
H691 H 0.30813 0.12742 0.79964 0.0
H692 H 0.26809 0.09544 0.81078 0.0
H693 H 0.31084 0.15284 0.82334 0.0
H694 H 0.30499 0.15556 0.8074 0.0
H695 H 0.31757 0.15055 0.80738 0.0
H696 H 0.25254 0.10039 0.82117 0.0
H697 H 0.25661 0.11811 0.82226 0.0
H698 H 0.26156 0.11124 0.8359 0.0
H699 H 0.28385 0.15105 0.90383 0.0
H700 H 0.27387 0.17501 0.87027 0.0
H701 H 0.27275 0.1745 0.84568 0.0
H702 H 0.27869 0.14835 0.80947 0.0
H703 H 0.28986 0.12528 0.84312 0.0
H704 H 0.29138 0.12612 0.86766 0.0
H705 H 0.26227 0.22092 0.81227 0.0
H706 H 0.25351 0.20367 0.81871 0.0
H707 H 0.25036 0.20647 0.80135 0.0
C708 C 0.82079 0.08077 0.94125 0.0
C709 C 0.81411 0.08664 0.93237 0.0
C710 C 0.82143 0.0935 0.90911 0.0
C711 C 0.81883 0.10425 0.90791 0.0
C712 C 0.82604 0.11478 0.89857 0.0
C713 C 0.83624 0.11464 0.89048 0.0
C714 C 0.83861 0.10356 0.89146 0.0
C715 C 0.83091 0.09295 0.90057 0.0
C716 C 0.82298 0.1262 0.89759 0.0
C717 C 0.84961 0.10315 0.88332 0.0
C718 C 0.9249 0.21309 0.92379 0.0
C719 C 0.91782 0.20081 0.91431 0.0
C720 C 0.89549 0.18605 0.90349 0.0
C721 C 0.89796 0.17555 0.89924 0.0
C722 C 0.88795 0.16369 0.89208 0.0
C723 C 0.87527 0.16233 0.88905 0.0
C724 C 0.87273 0.17282 0.89338 0.0
C725 C 0.8829 0.18456 0.90056 0.0
C726 C 0.89094 0.15262 0.88766 0.0
C727 C 0.85928 0.17164 0.89035 0.0
C728 C 0.89576 0.17999 0.80152 0.0
C729 C 0.89686 0.16872 0.80544 0.0
C730 C 0.88614 0.15754 0.81212 0.0
C731 C 0.87405 0.15758 0.81485 0.0
C732 C 0.87271 0.16865 0.81046 0.0
C733 C 0.88361 0.17971 0.80385 0.0
C734 C 0.88785 0.14584 0.81659 0.0
C735 C 0.85993 0.16896 0.81314 0.0
C736 C 0.78228 0.05283 0.8088 0.0
C737 C 0.78809 0.06681 0.80208 0.0
C738 C 0.81194 0.08537 0.80502 0.0
C739 C 0.82471 0.08734 0.80805 0.0
C740 C 0.83516 0.09996 0.81365 0.0
C741 C 0.83275 0.11091 0.81611 0.0
C742 C 0.82012 0.10928 0.81226 0.0
C743 C 0.80984 0.09652 0.80668 0.0
C744 C 0.8486 0.10145 0.81738 0.0
C745 C 0.81739 0.12089 0.81445 0.0
C746 C 0.84516 0.12659 0.88188 0.0
C747 C 0.85533 0.13862 0.88859 0.0
C748 C 0.86472 0.14999 0.88122 0.0
C749 C 0.86421 0.14938 0.86673 0.0
C750 C 0.87381 0.16049 0.85902 0.0
C751 C 0.87349 0.15961 0.84476 0.0
C752 C 0.86344 0.14766 0.83765 0.0
C753 C 0.86324 0.14654 0.82315 0.0
C754 C 0.85303 0.13458 0.81639 0.0
C755 C 0.84301 0.12358 0.82377 0.0
C756 C 0.84315 0.12444 0.83828 0.0
C757 C 0.83331 0.11349 0.84603 0.0
C758 C 0.83381 0.11425 0.8603 0.0
C759 C 0.84418 0.12595 0.86739 0.0
C760 C 0.8539 0.13731 0.85979 0.0
C761 C 0.85345 0.1365 0.84523 0.0
C762 C 0.92732 0.19884 0.80737 0.0
C763 C 0.91938 0.19457 0.7937 0.0
O764 O 0.81519 0.08375 0.91868 0.0
O765 O 0.80199 0.0726 0.80058 0.0
O766 O 0.90612 0.1914 0.7957 0.0
O767 O 0.90491 0.19769 0.91043 0.0
H768 H 0.81981 0.09802 0.93451 0.0
H769 H 0.83173 0.08568 0.93867 0.0
H770 H 0.81588 0.06943 0.93945 0.0
H771 H 0.82004 0.08295 0.95229 0.0
H772 H 0.81121 0.10444 0.91435 0.0
H773 H 0.83273 0.0845 0.90155 0.0
H774 H 0.83129 0.13573 0.90272 0.0
H775 H 0.81325 0.12353 0.9026 0.0
H776 H 0.82246 0.12852 0.88669 0.0
H777 H 0.85145 0.09496 0.88676 0.0
H778 H 0.85929 0.11326 0.88421 0.0
H779 H 0.8466 0.10109 0.87231 0.0
H780 H 0.92397 0.20071 0.90548 0.0
H781 H 0.92695 0.20493 0.94203 0.0
H782 H 0.91923 0.21876 0.92316 0.0
H783 H 0.93391 0.22096 0.91788 0.0
H784 H 0.90765 0.17653 0.90145 0.0
H785 H 0.88107 0.19268 0.90391 0.0
H786 H 0.88315 0.14255 0.89184 0.0
H787 H 0.90115 0.15503 0.89116 0.0
H788 H 0.89036 0.15143 0.8763 0.0
H789 H 0.85892 0.18075 0.89435 0.0
H790 H 0.85093 0.1622 0.89502 0.0
H791 H 0.85739 0.17058 0.8791 0.0
H792 H 0.91933 0.18542 0.78913 0.0
H793 H 0.90608 0.16861 0.80354 0.0
H794 H 0.88279 0.18838 0.80071 0.0
H795 H 0.88736 0.14531 0.82795 0.0
H796 H 0.89766 0.14707 0.81325 0.0
H797 H 0.8794 0.13587 0.81232 0.0
H798 H 0.86019 0.17794 0.80844 0.0
H799 H 0.85857 0.16949 0.82437 0.0
H800 H 0.85096 0.1593 0.80901 0.0
H801 H 0.78583 0.07327 0.80912 0.0
H802 H 0.77113 0.04795 0.81015 0.0
H803 H 0.78709 0.0543 0.81907 0.0
H804 H 0.78429 0.04577 0.80245 0.0
H805 H 0.82632 0.07876 0.80645 0.0
H806 H 0.8002 0.09532 0.80369 0.0
H807 H 0.85024 0.10303 0.82867 0.0
H808 H 0.85702 0.11068 0.81252 0.0
H809 H 0.84911 0.09223 0.81413 0.0
H810 H 0.80736 0.11829 0.81016 0.0
H811 H 0.82548 0.13037 0.8096 0.0
H812 H 0.81764 0.12327 0.82561 0.0
H813 H 0.85607 0.13906 0.89971 0.0
H814 H 0.88179 0.16993 0.86392 0.0
H815 H 0.88125 0.16843 0.83939 0.0
H816 H 0.85299 0.13374 0.80528 0.0
H817 H 0.82516 0.10415 0.84115 0.0
H818 H 0.82602 0.10549 0.86573 0.0
H819 H 0.93804 0.20176 0.80565 0.0
H820 H 0.9228 0.19018 0.81456 0.0
H821 H 0.9272 0.20776 0.81231 0.0
C822 C 0.81294 0.71122 0.94403 0.0
C823 C 0.80404 0.71246 0.93312 0.0
C824 C 0.81502 0.70995 0.91246 0.0
C825 C 0.82618 0.72357 0.91237 0.0
C826 C 0.83733 0.72705 0.90388 0.0
C827 C 0.83742 0.71668 0.89551 0.0
C828 C 0.82609 0.70301 0.89542 0.0
C829 C 0.81493 0.69991 0.90372 0.0
C830 C 0.84914 0.74178 0.90408 0.0
C831 C 0.82593 0.69157 0.88689 0.0
C832 C 0.91261 0.73226 0.94987 0.0
C833 C 0.90773 0.72079 0.93878 0.0
C834 C 0.90266 0.72552 0.91621 0.0
C835 C 0.89165 0.7126 0.91204 0.0
C836 C 0.88205 0.71156 0.90246 0.0
C837 C 0.8834 0.72374 0.89715 0.0
C838 C 0.89477 0.73679 0.90106 0.0
C839 C 0.90442 0.73746 0.91036 0.0
C840 C 0.87027 0.69746 0.89828 0.0
C841 C 0.89645 0.75003 0.89585 0.0
C842 C 0.91218 0.73375 0.81207 0.0
C843 C 0.90093 0.72036 0.81351 0.0
C844 C 0.88875 0.71834 0.81904 0.0
C845 C 0.88783 0.72994 0.82312 0.0
C846 C 0.89888 0.74343 0.82089 0.0
C847 C 0.91089 0.74514 0.81527 0.0
C848 C 0.877 0.70383 0.82092 0.0
C849 C 0.89815 0.75601 0.82492 0.0
C850 C 0.80152 0.73529 0.8094 0.0
C851 C 0.80581 0.73038 0.79657 0.0
C852 C 0.82005 0.72222 0.80668 0.0
C853 C 0.82032 0.7104 0.80991 0.0
C854 C 0.83125 0.71133 0.81729 0.0
C855 C 0.84218 0.72445 0.8216 0.0
C856 C 0.84215 0.73651 0.81813 0.0
C857 C 0.83112 0.73529 0.81064 0.0
C858 C 0.83103 0.69826 0.82066 0.0
C859 C 0.8537 0.75066 0.82253 0.0
C860 C 0.84978 0.71985 0.88772 0.0
C861 C 0.86062 0.72066 0.89505 0.0
C862 C 0.87237 0.72289 0.88846 0.0
C863 C 0.87333 0.72419 0.87406 0.0
C864 C 0.88479 0.72596 0.86702 0.0
C865 C 0.88566 0.72729 0.85286 0.0
C866 C 0.87505 0.72679 0.84516 0.0
C867 C 0.87579 0.72801 0.83074 0.0
C868 C 0.86503 0.72734 0.82338 0.0
C869 C 0.85344 0.72552 0.83006 0.0
C870 C 0.85256 0.7244 0.8445 0.0
C871 C 0.84112 0.7227 0.85158 0.0
C872 C 0.84023 0.72133 0.86575 0.0
C873 C 0.85073 0.72158 0.87338 0.0
C874 C 0.86249 0.72362 0.86651 0.0
C875 C 0.86338 0.72496 0.85205 0.0
C876 C 0.94349 0.73691 0.81791 0.0
C877 C 0.93002 0.72806 0.81012 0.0
O878 O 0.80426 0.70598 0.92091 0.0
O879 O 0.80888 0.72042 0.7999 0.0
O880 O 0.92438 0.7361 0.8076 0.0
O881 O 0.91155 0.72673 0.92605 0.0
H882 H 0.80787 0.72355 0.9314 0.0
H883 H 0.82368 0.71644 0.94071 0.0
H884 H 0.80933 0.70018 0.94576 0.0
H885 H 0.81264 0.71624 0.95388 0.0
H886 H 0.82634 0.73154 0.91889 0.0
H887 H 0.80625 0.68946 0.90381 0.0
H888 H 0.85795 0.74237 0.90943 0.0
H889 H 0.84665 0.74899 0.90944 0.0
H890 H 0.85227 0.74526 0.89344 0.0
H891 H 0.81693 0.68128 0.88899 0.0
H892 H 0.83528 0.69126 0.88894 0.0
H893 H 0.82579 0.69357 0.87583 0.0
H894 H 0.89643 0.71443 0.93948 0.0
H895 H 0.90958 0.72776 0.96018 0.0
H896 H 0.90792 0.73858 0.94808 0.0
H897 H 0.92384 0.73914 0.94966 0.0
H898 H 0.89055 0.70335 0.91637 0.0
H899 H 0.91306 0.74738 0.9136 0.0
H900 H 0.86869 0.69662 0.88698 0.0
H901 H 0.86085 0.69595 0.90311 0.0
H902 H 0.87187 0.68904 0.90151 0.0
H903 H 0.9052 0.75933 0.90082 0.0
H904 H 0.88707 0.75035 0.89772 0.0
H905 H 0.89808 0.75046 0.88461 0.0
H906 H 0.92339 0.71936 0.81685 0.0
H907 H 0.90163 0.71149 0.81038 0.0
H908 H 0.91955 0.75542 0.81383 0.0
H909 H 0.87518 0.70189 0.83204 0.0
H910 H 0.87891 0.69593 0.81622 0.0
H911 H 0.8676 0.7026 0.81629 0.0
H912 H 0.90742 0.76577 0.82204 0.0
H913 H 0.89682 0.75631 0.83619 0.0
H914 H 0.88917 0.75539 0.81991 0.0
H915 H 0.81487 0.73932 0.79202 0.0
H916 H 0.79877 0.74302 0.80663 0.0
H917 H 0.80994 0.74025 0.81707 0.0
H918 H 0.79264 0.72645 0.81425 0.0
H919 H 0.8118 0.70037 0.80675 0.0
H920 H 0.83122 0.74458 0.80806 0.0
H921 H 0.83059 0.69712 0.83195 0.0
H922 H 0.84052 0.69889 0.8171 0.0
H923 H 0.82219 0.68891 0.81586 0.0
H924 H 0.8521 0.75905 0.81918 0.0
H925 H 0.86336 0.75235 0.81817 0.0
H926 H 0.85483 0.75135 0.83388 0.0
H927 H 0.85985 0.71943 0.90608 0.0
H928 H 0.89321 0.72632 0.87239 0.0
H929 H 0.89476 0.72867 0.84803 0.0
H930 H 0.86564 0.72817 0.81231 0.0
H931 H 0.8327 0.72236 0.84624 0.0
H932 H 0.83119 0.72003 0.87065 0.0
H933 H 0.94823 0.73071 0.82009 0.0
H934 H 0.94166 0.7407 0.82784 0.0
H935 H 0.95066 0.74598 0.81188 0.0
C936 C 0.85668 0.61462 0.40002 0.0
C937 C 0.86343 0.62545 0.41168 0.0
C938 C 0.85233 0.62044 0.43374 0.0
C939 C 0.85517 0.63358 0.43815 0.0
C940 C 0.84668 0.63506 0.44752 0.0
C941 C 0.83502 0.62313 0.45239 0.0
C942 C 0.83239 0.60985 0.44825 0.0
C943 C 0.84127 0.6087 0.43915 0.0
C944 C 0.84998 0.64938 0.45192 0.0
C945 C 0.81994 0.59689 0.45302 0.0
C946 C 0.76234 0.62173 0.40871 0.0
C947 C 0.75907 0.62782 0.42136 0.0
C948 C 0.77891 0.63495 0.43648 0.0
C949 C 0.77554 0.62154 0.43994 0.0
C950 C 0.78429 0.61945 0.44815 0.0
C951 C 0.79665 0.63096 0.45306 0.0
C952 C 0.79999 0.64446 0.44981 0.0
C953 C 0.79104 0.64627 0.44158 0.0
C954 C 0.78043 0.6049 0.45145 0.0
C955 C 0.81307 0.65695 0.45493 0.0
C956 C 0.77238 0.62739 0.54064 0.0
C957 C 0.76911 0.61471 0.53423 0.0
C958 C 0.77909 0.61317 0.52749 0.0
C959 C 0.79256 0.62457 0.52695 0.0
C960 C 0.79594 0.63725 0.53357 0.0
C961 C 0.7858 0.63846 0.54039 0.0
C962 C 0.77519 0.59942 0.5207 0.0
C963 C 0.8102 0.64961 0.53318 0.0
C964 C 0.8691 0.59432 0.5353 0.0
C965 C 0.86778 0.60656 0.54014 0.0
C966 C 0.84646 0.60624 0.53864 0.0
C967 C 0.83281 0.59658 0.53575 0.0
C968 C 0.8244 0.60049 0.52941 0.0
C969 C 0.82974 0.61451 0.52628 0.0
C970 C 0.84333 0.6245 0.53004 0.0
C971 C 0.8516 0.62023 0.53607 0.0
C972 C 0.80992 0.58957 0.52572 0.0
C973 C 0.84918 0.63962 0.52741 0.0
C974 C 0.82504 0.62459 0.46086 0.0
C975 C 0.81599 0.62726 0.45403 0.0
C976 C 0.80627 0.62879 0.46118 0.0
C977 C 0.80555 0.62775 0.4756 0.0
C978 C 0.79602 0.62944 0.48311 0.0
C979 C 0.79525 0.62819 0.49728 0.0
C980 C 0.80388 0.62506 0.50448 0.0
C981 C 0.80292 0.6234 0.51884 0.0
C982 C 0.81161 0.62023 0.52567 0.0
C983 C 0.82128 0.61858 0.51852 0.0
C984 C 0.82244 0.62026 0.50415 0.0
C985 C 0.83207 0.61872 0.4966 0.0
C986 C 0.83312 0.62038 0.48247 0.0
C987 C 0.82434 0.62328 0.47527 0.0
C988 C 0.81455 0.62487 0.48266 0.0
C989 C 0.81367 0.62345 0.49711 0.0
C990 C 0.74222 0.62024 0.5341 0.0
C991 C 0.74909 0.62041 0.54764 0.0
O992 O 0.85998 0.61884 0.4241 0.0
O993 O 0.85442 0.60174 0.54378 0.0
O994 O 0.76301 0.6295 0.54704 0.0
O995 O 0.77094 0.63748 0.42821 0.0
H996 H 0.85947 0.63258 0.41096 0.0
H997 H 0.84546 0.60894 0.40118 0.0
H998 H 0.86012 0.60706 0.40018 0.0
H999 H 0.85918 0.61967 0.38994 0.0
H1000 H 0.86399 0.64265 0.43418 0.0
H1001 H 0.83929 0.59861 0.43574 0.0
H1002 H 0.84254 0.65154 0.44712 0.0
H1003 H 0.86036 0.65746 0.44886 0.0
H1004 H 0.84913 0.65008 0.46323 0.0
H1005 H 0.81886 0.5874 0.44807 0.0
H1006 H 0.81067 0.59726 0.45075 0.0
H1007 H 0.82055 0.5962 0.4643 0.0
H1008 H 0.75253 0.61935 0.42835 0.0
H1009 H 0.75283 0.61422 0.40309 0.0
H1010 H 0.76752 0.61619 0.41177 0.0
H1011 H 0.76912 0.63002 0.40168 0.0
H1012 H 0.76618 0.61262 0.43621 0.0
H1013 H 0.79357 0.65657 0.43892 0.0
H1014 H 0.78825 0.60277 0.44742 0.0
H1015 H 0.77038 0.59703 0.447 0.0
H1016 H 0.78014 0.60381 0.46274 0.0
H1017 H 0.81398 0.66679 0.45189 0.0
H1018 H 0.82184 0.65649 0.45078 0.0
H1019 H 0.81368 0.65693 0.46629 0.0
H1020 H 0.74694 0.60982 0.54953 0.0
H1021 H 0.75882 0.60597 0.53428 0.0
H1022 H 0.78826 0.64818 0.54538 0.0
H1023 H 0.7759 0.60046 0.5094 0.0
H1024 H 0.76468 0.59119 0.52322 0.0
H1025 H 0.78235 0.59614 0.52393 0.0
H1026 H 0.81115 0.65881 0.5387 0.0
H1027 H 0.81326 0.65227 0.52236 0.0
H1028 H 0.81739 0.64705 0.53788 0.0
H1029 H 0.87063 0.61345 0.53123 0.0
H1030 H 0.87977 0.59792 0.53241 0.0
H1031 H 0.86245 0.58915 0.52616 0.0
H1032 H 0.866 0.58662 0.54347 0.0
H1033 H 0.82891 0.58584 0.53799 0.0
H1034 H 0.86206 0.62781 0.53878 0.0
H1035 H 0.80798 0.58985 0.51462 0.0
H1036 H 0.80284 0.59173 0.53151 0.0
H1037 H 0.80758 0.57901 0.5281 0.0
H1038 H 0.8592 0.64624 0.53262 0.0
H1039 H 0.84209 0.64294 0.53098 0.0
H1040 H 0.85053 0.64129 0.51621 0.0
H1041 H 0.81645 0.62805 0.44295 0.0
H1042 H 0.78904 0.63175 0.47812 0.0
H1043 H 0.78772 0.62963 0.50251 0.0
H1044 H 0.81071 0.61884 0.53667 0.0
H1045 H 0.83896 0.61624 0.50153 0.0
H1046 H 0.8408 0.61919 0.47723 0.0
H1047 H 0.73104 0.61314 0.53469 0.0
H1048 H 0.74599 0.61655 0.52549 0.0
H1049 H 0.7444 0.63076 0.53183 0.0
C1050 C 0.38435 0.24665 0.40463 0.0
C1051 C 0.37357 0.24324 0.41557 0.0
C1052 C 0.37971 0.2379 0.43726 0.0
C1053 C 0.36746 0.2264 0.44131 0.0
C1054 C 0.36746 0.21666 0.44993 0.0
C1055 C 0.37999 0.21843 0.45445 0.0
C1056 C 0.39236 0.23023 0.45062 0.0
C1057 C 0.39203 0.23997 0.44224 0.0
C1058 C 0.35407 0.20436 0.45403 0.0
C1059 C 0.40591 0.23239 0.4551 0.0
C1060 C 0.37659 0.12131 0.42397 0.0
C1061 C 0.38178 0.13593 0.42834 0.0
C1062 C 0.37364 0.14979 0.43984 0.0
C1063 C 0.38665 0.16138 0.44249 0.0
C1064 C 0.38823 0.17302 0.44976 0.0
C1065 C 0.37659 0.17308 0.45446 0.0
C1066 C 0.36349 0.16151 0.45165 0.0
C1067 C 0.3622 0.15 0.44437 0.0
C1068 C 0.40234 0.18523 0.45258 0.0
C1069 C 0.35088 0.16127 0.45648 0.0
C1070 C 0.38123 0.15498 0.54209 0.0
C1071 C 0.39395 0.16606 0.53822 0.0
C1072 C 0.39494 0.17735 0.53146 0.0
C1073 C 0.38301 0.17763 0.5286 0.0
C1074 C 0.37026 0.16671 0.53285 0.0
C1075 C 0.36956 0.15552 0.53953 0.0
C1076 C 0.4087 0.18887 0.52709 0.0
C1077 C 0.35735 0.16671 0.53006 0.0
C1078 C 0.40323 0.2847 0.53756 0.0
C1079 C 0.39311 0.27014 0.54232 0.0
C1080 C 0.39639 0.25046 0.54005 0.0
C1081 C 0.40666 0.24764 0.53726 0.0
C1082 C 0.40362 0.2349 0.53132 0.0
C1083 C 0.38991 0.22465 0.52842 0.0
C1084 C 0.37939 0.2271 0.53214 0.0
C1085 C 0.38274 0.24003 0.53788 0.0
C1086 C 0.41508 0.23256 0.52771 0.0
C1087 C 0.36464 0.2162 0.52966 0.0
C1088 C 0.38011 0.2076 0.46265 0.0
C1089 C 0.37845 0.19587 0.45561 0.0
C1090 C 0.37816 0.18511 0.46262 0.0
C1091 C 0.37949 0.18595 0.47708 0.0
C1092 C 0.37906 0.17522 0.48444 0.0
C1093 C 0.38039 0.17614 0.49867 0.0
C1094 C 0.38231 0.18789 0.50608 0.0
C1095 C 0.38377 0.18896 0.52054 0.0
C1096 C 0.38599 0.20092 0.52757 0.0
C1097 C 0.38671 0.21188 0.52052 0.0
C1098 C 0.38495 0.21086 0.50609 0.0
C1099 C 0.38534 0.22158 0.49869 0.0
C1100 C 0.38355 0.22045 0.48451 0.0
C1101 C 0.38166 0.20873 0.47711 0.0
C1102 C 0.38132 0.19784 0.48433 0.0
C1103 C 0.38283 0.19885 0.49885 0.0
C1104 C 0.39334 0.13556 0.53744 0.0
C1105 C 0.38948 0.14023 0.55074 0.0
O1106 O 0.37983 0.247 0.42841 0.0
O1107 O 0.40006 0.26336 0.54473 0.0
O1108 O 0.37964 0.14353 0.54812 0.0
O1109 O 0.37168 0.1382 0.4331 0.0
H1110 H 0.36628 0.23187 0.41476 0.0
H1111 H 0.38949 0.24076 0.4064 0.0
H1112 H 0.39215 0.25786 0.40502 0.0
H1113 H 0.37955 0.24374 0.39424 0.0
H1114 H 0.35793 0.22505 0.43768 0.0
H1115 H 0.40142 0.24898 0.43911 0.0
H1116 H 0.35285 0.19486 0.44898 0.0
H1117 H 0.34528 0.20534 0.45104 0.0
H1118 H 0.35391 0.20309 0.46529 0.0
H1119 H 0.41458 0.24157 0.45043 0.0
H1120 H 0.40649 0.22312 0.45225 0.0
H1121 H 0.40696 0.23378 0.46643 0.0
H1122 H 0.38868 0.14379 0.42093 0.0
H1123 H 0.37849 0.12162 0.41261 0.0
H1124 H 0.36522 0.11618 0.42276 0.0
H1125 H 0.38574 0.11476 0.43796 0.0
H1126 H 0.39561 0.1614 0.43899 0.0
H1127 H 0.35222 0.14103 0.44226 0.0
H1128 H 0.40323 0.19468 0.44836 0.0
H1129 H 0.41036 0.18369 0.44802 0.0
H1130 H 0.40417 0.18701 0.46382 0.0
H1131 H 0.34141 0.15158 0.45327 0.0
H1132 H 0.35061 0.17018 0.45233 0.0
H1133 H 0.35114 0.16235 0.46785 0.0
H1134 H 0.39868 0.1494 0.55533 0.0
H1135 H 0.40314 0.16594 0.54026 0.0
H1136 H 0.3598 0.14699 0.54262 0.0
H1137 H 0.40879 0.18977 0.51578 0.0
H1138 H 0.41705 0.18719 0.53013 0.0
H1139 H 0.41072 0.19884 0.53176 0.0
H1140 H 0.34833 0.15783 0.53469 0.0
H1141 H 0.35561 0.16625 0.51881 0.0
H1142 H 0.35835 0.17646 0.53418 0.0
H1143 H 0.38555 0.26486 0.53379 0.0
H1144 H 0.39791 0.29036 0.53544 0.0
H1145 H 0.40815 0.28406 0.52797 0.0
H1146 H 0.41127 0.2906 0.5455 0.0
H1147 H 0.41714 0.25568 0.53925 0.0
H1148 H 0.37472 0.24198 0.54058 0.0
H1149 H 0.41474 0.23014 0.51655 0.0
H1150 H 0.41385 0.22355 0.53327 0.0
H1151 H 0.42522 0.24169 0.53038 0.0
H1152 H 0.35767 0.21901 0.53469 0.0
H1153 H 0.36252 0.20613 0.53353 0.0
H1154 H 0.36243 0.2148 0.51846 0.0
H1155 H 0.37736 0.1951 0.44452 0.0
H1156 H 0.37766 0.16595 0.4793 0.0
H1157 H 0.37997 0.16754 0.50377 0.0
H1158 H 0.38729 0.20176 0.53864 0.0
H1159 H 0.38694 0.23095 0.50379 0.0
H1160 H 0.3838 0.22897 0.4794 0.0
H1161 H 0.40097 0.1326 0.53965 0.0
H1162 H 0.39785 0.14403 0.53004 0.0
H1163 H 0.38423 0.12657 0.53252 0.0
C1164 C 0.85898 0.24989 0.40713 0.0
C1165 C 0.86801 0.25172 0.41955 0.0
C1166 C 0.85347 0.2303 0.43195 0.0
C1167 C 0.84406 0.23384 0.43675 0.0
C1168 C 0.83264 0.22445 0.44416 0.0
C1169 C 0.8306 0.21129 0.4469 0.0
C1170 C 0.84008 0.20773 0.44219 0.0
C1171 C 0.85142 0.21731 0.43479 0.0
C1172 C 0.82272 0.22857 0.4491 0.0
C1173 C 0.83824 0.1938 0.44498 0.0
C1174 C 0.74507 0.1494 0.39471 0.0
C1175 C 0.75078 0.14478 0.40616 0.0
C1176 C 0.7603 0.15764 0.42773 0.0
C1177 C 0.76995 0.15383 0.43014 0.0
C1178 C 0.781 0.16176 0.43914 0.0
C1179 C 0.78246 0.17377 0.44573 0.0
C1180 C 0.77251 0.1774 0.44359 0.0
C1181 C 0.76141 0.16911 0.43478 0.0
C1182 C 0.79125 0.15742 0.44142 0.0
C1183 C 0.7738 0.19022 0.45031 0.0
C1184 C 0.7576 0.15625 0.53319 0.0
C1185 C 0.76606 0.15132 0.52893 0.0
C1186 C 0.77848 0.16006 0.52256 0.0
C1187 C 0.78243 0.17395 0.52031 0.0
C1188 C 0.77418 0.17908 0.52514 0.0
C1189 C 0.76193 0.17017 0.53169 0.0
C1190 C 0.78728 0.15439 0.51801 0.0
C1191 C 0.77815 0.19388 0.52307 0.0
C1192 C 0.88232 0.25778 0.52638 0.0
C1193 C 0.87543 0.25316 0.54029 0.0
C1194 C 0.85573 0.23005 0.53448 0.0
C1195 C 0.85152 0.21605 0.53355 0.0
C1196 C 0.83935 0.20642 0.52678 0.0
C1197 C 0.83102 0.21091 0.5211 0.0
C1198 C 0.83487 0.22497 0.52259 0.0
C1199 C 0.84729 0.23445 0.52906 0.0
C1200 C 0.83557 0.19152 0.5254 0.0
C1201 C 0.82602 0.23007 0.51707 0.0
C1202 C 0.81857 0.2013 0.45477 0.0
C1203 C 0.80661 0.19225 0.44748 0.0
C1204 C 0.79475 0.18293 0.45426 0.0
C1205 C 0.79472 0.18265 0.46876 0.0
C1206 C 0.78295 0.17353 0.47594 0.0
C1207 C 0.78294 0.17364 0.49022 0.0
C1208 C 0.79478 0.18269 0.49788 0.0
C1209 C 0.79487 0.18296 0.51241 0.0
C1210 C 0.8068 0.19216 0.51968 0.0
C1211 C 0.81876 0.20113 0.51283 0.0
C1212 C 0.81889 0.20095 0.49832 0.0
C1213 C 0.83079 0.20975 0.49111 0.0
C1214 C 0.83071 0.20987 0.47686 0.0
C1215 C 0.8188 0.20106 0.46924 0.0
C1216 C 0.80679 0.1918 0.47627 0.0
C1217 C 0.80683 0.19178 0.49083 0.0
C1218 C 0.72261 0.1327 0.53058 0.0
C1219 C 0.73622 0.13426 0.5346 0.0
O1220 O 0.86457 0.23895 0.42451 0.0
O1221 O 0.86798 0.23885 0.54061 0.0
O1222 O 0.74522 0.14787 0.53871 0.0
O1223 O 0.74992 0.15059 0.41855 0.0
H1224 H 0.86672 0.25798 0.42775 0.0
H1225 H 0.84814 0.24466 0.41005 0.0
H1226 H 0.86006 0.24356 0.39887 0.0
H1227 H 0.86186 0.26012 0.40305 0.0
H1228 H 0.84548 0.24386 0.43475 0.0
H1229 H 0.85873 0.21467 0.4311 0.0
H1230 H 0.81242 0.22116 0.44484 0.0
H1231 H 0.82567 0.23915 0.44606 0.0
H1232 H 0.82206 0.22811 0.46045 0.0
H1233 H 0.84654 0.19261 0.44063 0.0
H1234 H 0.82838 0.1855 0.44054 0.0
H1235 H 0.83791 0.19236 0.45623 0.0
H1236 H 0.76162 0.14874 0.40358 0.0
H1237 H 0.74563 0.14484 0.38467 0.0
H1238 H 0.75113 0.16083 0.39411 0.0
H1239 H 0.73432 0.14622 0.39669 0.0
H1240 H 0.76887 0.14469 0.425 0.0
H1241 H 0.75381 0.17185 0.43293 0.0
H1242 H 0.80106 0.16501 0.43678 0.0
H1243 H 0.78787 0.14702 0.4368 0.0
H1244 H 0.7931 0.15733 0.45258 0.0
H1245 H 0.7657 0.1921 0.44684 0.0
H1246 H 0.78386 0.19938 0.448 0.0
H1247 H 0.7732 0.1892 0.46161 0.0
H1248 H 0.7399 0.13144 0.52519 0.0
H1249 H 0.76296 0.14065 0.53058 0.0
H1250 H 0.75542 0.17392 0.53524 0.0
H1251 H 0.78749 0.15396 0.50663 0.0
H1252 H 0.78351 0.14385 0.52178 0.0
H1253 H 0.79789 0.16135 0.52175 0.0
H1254 H 0.77039 0.19613 0.52702 0.0
H1255 H 0.77961 0.19614 0.51198 0.0
H1256 H 0.78797 0.20094 0.52841 0.0
H1257 H 0.86865 0.25734 0.54205 0.0
H1258 H 0.87455 0.25393 0.51803 0.0
H1259 H 0.88837 0.26924 0.52611 0.0
H1260 H 0.88914 0.25367 0.52442 0.0
H1261 H 0.85803 0.21273 0.53784 0.0
H1262 H 0.85025 0.2452 0.52975 0.0
H1263 H 0.83401 0.18817 0.5144 0.0
H1264 H 0.82583 0.18487 0.53069 0.0
H1265 H 0.84347 0.18981 0.52983 0.0
H1266 H 0.82918 0.2406 0.52112 0.0
H1267 H 0.81521 0.22293 0.51972 0.0
H1268 H 0.82667 0.23037 0.50572 0.0
H1269 H 0.80651 0.19254 0.43637 0.0
H1270 H 0.77356 0.1663 0.47059 0.0
H1271 H 0.77352 0.16651 0.49517 0.0
H1272 H 0.80676 0.19242 0.53081 0.0
H1273 H 0.84029 0.21675 0.49639 0.0
H1274 H 0.84013 0.21699 0.47189 0.0
H1275 H 0.71519 0.12182 0.52737 0.0
H1276 H 0.72407 0.1394 0.52183 0.0
H1277 H 0.71837 0.13578 0.53928 0.0
C1278 C 0.9929 0.45352 0.27006 0.0
C1279 C 0.9961 0.44732 0.25745 0.0
C1280 C 0.00367 0.46589 0.2409 0.0
C1281 C 0.99068 0.46365 0.2379 0.0
C1282 C 0.98906 0.47244 0.22927 0.0
C1283 C 0.00064 0.48382 0.2236 0.0
C1284 C 0.01372 0.48611 0.22652 0.0
C1285 C 0.01504 0.47703 0.23504 0.0
C1286 C 0.97494 0.46965 0.22633 0.0
C1287 C 0.0263 0.49823 0.22074 0.0
C1288 C 0.00202 0.58213 0.24513 0.0
C1289 C 0.00392 0.57237 0.23622 0.0
C1290 C 0.99596 0.54779 0.23382 0.0
C1291 C 0.00715 0.54955 0.22622 0.0
C1292 C 0.00728 0.53816 0.2204 0.0
C1293 C 0.99579 0.52474 0.22176 0.0
C1294 C 0.9846 0.52288 0.22959 0.0
C1295 C 0.98494 0.53446 0.23568 0.0
C1296 C 0.01965 0.54053 0.21259 0.0
C1297 C 0.9722 0.50873 0.23124 0.0
C1298 C 0.97974 0.53373 0.13618 0.0
C1299 C 0.99335 0.53807 0.13913 0.0
C1300 C 0.99677 0.52913 0.1452 0.0
C1301 C 0.98636 0.51557 0.14831 0.0
C1302 C 0.97273 0.51092 0.14458 0.0
C1303 C 0.96961 0.52007 0.13843 0.0
C1304 C 0.01146 0.5343 0.14869 0.0
C1305 C 0.96141 0.49649 0.1476 0.0
C1306 C 0.0255 0.44643 0.14597 0.0
C1307 C 0.01289 0.44444 0.1385 0.0
C1308 C 0.0104 0.46459 0.13805 0.0
C1309 C 0.019 0.47887 0.13958 0.0
C1310 C 0.01428 0.48713 0.14526 0.0
C1311 C 0.0005 0.48091 0.14912 0.0
C1312 C 0.9915 0.46658 0.14663 0.0
C1313 C 0.99657 0.45853 0.14116 0.0
C1314 C 0.02413 0.50242 0.14754 0.0
C1315 C 0.97665 0.45974 0.15017 0.0
C1316 C 0.99896 0.4935 0.215 0.0
C1317 C 0.99797 0.50405 0.22169 0.0
C1318 C 0.9953 0.51285 0.21435 0.0
C1319 C 0.99315 0.51088 0.19999 0.0
C1320 C 0.98949 0.51892 0.19244 0.0
C1321 C 0.98802 0.51736 0.17825 0.0
C1322 C 0.99035 0.50785 0.17102 0.0
C1323 C 0.98958 0.50671 0.15652 0.0
C1324 C 0.99245 0.49749 0.14964 0.0
C1325 C 0.99593 0.48923 0.15691 0.0
C1326 C 0.99623 0.48985 0.17143 0.0
C1327 C 0.99925 0.48135 0.17908 0.0
C1328 C 0.99978 0.48225 0.19336 0.0
C1329 C 0.99786 0.49206 0.20052 0.0
C1330 C 0.99484 0.50073 0.19301 0.0
C1331 C 0.99369 0.49939 0.17848 0.0
C1332 C 0.97146 0.55495 0.14843 0.0
C1333 C 0.98065 0.5557 0.1366 0.0
O1334 O 0.00572 0.45775 0.24942 0.0
O1335 O 0.01576 0.457 0.13346 0.0
O1336 O 0.9761 0.54251 0.13124 0.0
O1337 O 0.99544 0.55863 0.23946 0.0
H1338 H 0.98661 0.44081 0.25134 0.0
H1339 H 0.98848 0.45976 0.26689 0.0
H1340 H 0.00228 0.46033 0.27621 0.0
H1341 H 0.98539 0.44517 0.27662 0.0
H1342 H 0.9817 0.45513 0.24226 0.0
H1343 H 0.02502 0.47872 0.23736 0.0
H1344 H 0.97395 0.47825 0.23074 0.0
H1345 H 0.9669 0.45983 0.23071 0.0
H1346 H 0.9732 0.4692 0.21508 0.0
H1347 H 0.03578 0.49889 0.2244 0.0
H1348 H 0.02669 0.50799 0.22368 0.0
H1349 H 0.02589 0.49732 0.20937 0.0
H1350 H 0.00414 0.57406 0.22498 0.0
H1351 H 0.02065 0.59364 0.25564 0.0
H1352 H 0.99207 0.57579 0.25054 0.0
H1353 H 0.99802 0.58695 0.23803 0.0
H1354 H 0.01583 0.55978 0.22479 0.0
H1355 H 0.9764 0.53318 0.24164 0.0
H1356 H 0.01736 0.53936 0.20141 0.0
H1357 H 0.02239 0.53277 0.21527 0.0
H1358 H 0.02858 0.55103 0.21469 0.0
H1359 H 0.96393 0.50916 0.23675 0.0
H1360 H 0.975 0.50225 0.23708 0.0
H1361 H 0.96828 0.50358 0.22102 0.0
H1362 H 0.99101 0.56033 0.1412 0.0
H1363 H 0.00131 0.54844 0.13675 0.0
H1364 H 0.95916 0.51675 0.13586 0.0
H1365 H 0.01281 0.53486 0.16001 0.0
H1366 H 0.01845 0.5447 0.14462 0.0
H1367 H 0.01436 0.52697 0.14448 0.0
H1368 H 0.95141 0.49427 0.14358 0.0
H1369 H 0.96068 0.4951 0.15886 0.0
H1370 H 0.9637 0.48883 0.14299 0.0
H1371 H 0.00457 0.4406 0.14613 0.0
H1372 H 0.02343 0.43653 0.15024 0.0
H1373 H 0.02831 0.4541 0.1546 0.0
H1374 H 0.03423 0.45028 0.13888 0.0
H1375 H 0.02959 0.48345 0.13683 0.0
H1376 H 0.98977 0.44753 0.13937 0.0
H1377 H 0.02441 0.50531 0.15857 0.0
H1378 H 0.02063 0.5083 0.14165 0.0
H1379 H 0.0346 0.50557 0.14431 0.0
H1380 H 0.97067 0.44895 0.14601 0.0
H1381 H 0.97228 0.46573 0.14609 0.0
H1382 H 0.9756 0.45961 0.16149 0.0
H1383 H 0.99934 0.50545 0.23274 0.0
H1384 H 0.98773 0.52653 0.19742 0.0
H1385 H 0.98524 0.52389 0.17301 0.0
H1386 H 0.9923 0.497 0.13851 0.0
H1387 H 0.00117 0.47385 0.17414 0.0
H1388 H 0.00205 0.47538 0.19869 0.0
H1389 H 0.97416 0.5655 0.152 0.0
H1390 H 0.97286 0.54971 0.15719 0.0
H1391 H 0.96058 0.5489 0.14527 0.0
C1392 C 0.47805 0.42015 0.27758 0.0
C1393 C 0.47051 0.42334 0.26677 0.0
C1394 C 0.48119 0.43039 0.24456 0.0
C1395 C 0.47865 0.44096 0.24174 0.0
C1396 C 0.48688 0.45135 0.23262 0.0
C1397 C 0.4979 0.45117 0.22629 0.0
C1398 C 0.50021 0.44026 0.22883 0.0
C1399 C 0.49163 0.42985 0.23777 0.0
C1400 C 0.48392 0.46262 0.22991 0.0
C1401 C 0.51194 0.43978 0.2224 0.0
C1402 C 0.58876 0.5519 0.25515 0.0
C1403 C 0.58122 0.53894 0.24663 0.0
C1404 C 0.55816 0.52287 0.23795 0.0
C1405 C 0.5607 0.51239 0.23384 0.0
C1406 C 0.55055 0.50021 0.22722 0.0
C1407 C 0.53767 0.49853 0.22453 0.0
C1408 C 0.53503 0.50896 0.22883 0.0
C1409 C 0.54532 0.52099 0.23554 0.0
C1410 C 0.55363 0.48918 0.22293 0.0
C1411 C 0.5214 0.50748 0.22615 0.0
C1412 C 0.55885 0.51523 0.13723 0.0
C1413 C 0.55989 0.5039 0.1411 0.0
C1414 C 0.54914 0.49275 0.14777 0.0
C1415 C 0.53706 0.49281 0.15045 0.0
C1416 C 0.53576 0.50389 0.14603 0.0
C1417 C 0.5467 0.51496 0.13949 0.0
C1418 C 0.55083 0.48105 0.15229 0.0
C1419 C 0.52297 0.50422 0.14862 0.0
C1420 C 0.45045 0.38564 0.14002 0.0
C1421 C 0.4543 0.40007 0.13552 0.0
C1422 C 0.47721 0.42023 0.13927 0.0
C1423 C 0.49047 0.42334 0.14181 0.0
C1424 C 0.5001 0.43591 0.14821 0.0
C1425 C 0.49642 0.44575 0.15184 0.0
C1426 C 0.4832 0.44296 0.14865 0.0
C1427 C 0.47369 0.43018 0.14242 0.0
C1428 C 0.51415 0.43858 0.15129 0.0
C1429 C 0.47909 0.4534 0.15201 0.0
C1430 C 0.50742 0.46275 0.21761 0.0
C1431 C 0.51752 0.47487 0.22425 0.0
C1432 C 0.52712 0.48607 0.21681 0.0
C1433 C 0.52677 0.48521 0.20232 0.0
C1434 C 0.53638 0.49624 0.19453 0.0
C1435 C 0.5362 0.49518 0.18029 0.0
C1436 C 0.5263 0.48309 0.17325 0.0
C1437 C 0.52624 0.48181 0.15877 0.0
C1438 C 0.51621 0.46969 0.15208 0.0
C1439 C 0.50625 0.45866 0.15949 0.0
C1440 C 0.50624 0.45971 0.17399 0.0
C1441 C 0.49651 0.44875 0.18179 0.0
C1442 C 0.49674 0.44978 0.19606 0.0
C1443 C 0.50681 0.46175 0.2031 0.0
C1444 C 0.5166 0.47299 0.19544 0.0
C1445 C 0.51632 0.47197 0.18088 0.0
C1446 C 0.59024 0.53378 0.14361 0.0
C1447 C 0.58259 0.52985 0.12977 0.0
O1448 O 0.47378 0.42063 0.25383 0.0
O1449 O 0.46824 0.40763 0.13361 0.0
O1450 O 0.56929 0.52667 0.13154 0.0
O1451 O 0.56775 0.5349 0.24422 0.0
H1452 H 0.474 0.43451 0.26821 0.0
H1453 H 0.4892 0.42684 0.27619 0.0
H1454 H 0.47529 0.40918 0.27664 0.0
H1455 H 0.47556 0.42223 0.28806 0.0
H1456 H 0.47025 0.44108 0.24668 0.0
H1457 H 0.49337 0.42153 0.23992 0.0
H1458 H 0.4921 0.47251 0.23462 0.0
H1459 H 0.47403 0.46035 0.23423 0.0
H1460 H 0.48381 0.46407 0.2187 0.0
H1461 H 0.51299 0.43123 0.2263 0.0
H1462 H 0.52159 0.44971 0.22446 0.0
H1463 H 0.51041 0.43836 0.2111 0.0
H1464 H 0.58652 0.53855 0.23717 0.0
H1465 H 0.59345 0.54549 0.27317 0.0
H1466 H 0.58251 0.55698 0.25507 0.0
H1467 H 0.59681 0.55958 0.2482 0.0
H1468 H 0.57057 0.51366 0.23572 0.0
H1469 H 0.54343 0.52908 0.23881 0.0
H1470 H 0.54577 0.47906 0.22694 0.0
H1471 H 0.56378 0.49158 0.22665 0.0
H1472 H 0.55332 0.48811 0.21157 0.0
H1473 H 0.52104 0.51665 0.22991 0.0
H1474 H 0.51333 0.49821 0.23129 0.0
H1475 H 0.51907 0.50593 0.21497 0.0
H1476 H 0.5826 0.52079 0.12504 0.0
H1477 H 0.56909 0.50376 0.1392 0.0
H1478 H 0.54593 0.52366 0.13635 0.0
H1479 H 0.54994 0.48027 0.16362 0.0
H1480 H 0.5608 0.48244 0.1493 0.0
H1481 H 0.54261 0.47114 0.14769 0.0
H1482 H 0.52319 0.51309 0.14373 0.0
H1483 H 0.52168 0.50495 0.15984 0.0
H1484 H 0.51398 0.49447 0.14465 0.0
H1485 H 0.45127 0.40477 0.14392 0.0
H1486 H 0.43942 0.37936 0.14225 0.0
H1487 H 0.45619 0.3865 0.14952 0.0
H1488 H 0.45293 0.38023 0.13189 0.0
H1489 H 0.49313 0.41568 0.13909 0.0
H1490 H 0.46358 0.42805 0.13993 0.0
H1491 H 0.51672 0.44141 0.16233 0.0
H1492 H 0.52171 0.44742 0.14528 0.0
H1493 H 0.51508 0.42947 0.1487 0.0
H1494 H 0.4689 0.45023 0.14772 0.0
H1495 H 0.48668 0.4636 0.14794 0.0
H1496 H 0.47889 0.45471 0.16332 0.0
H1497 H 0.51798 0.47555 0.23538 0.0
H1498 H 0.54425 0.5058 0.19936 0.0
H1499 H 0.54395 0.50396 0.17488 0.0
H1500 H 0.51631 0.46873 0.14098 0.0
H1501 H 0.48861 0.43921 0.17697 0.0
H1502 H 0.48899 0.44103 0.20152 0.0
H1503 H 0.601 0.53678 0.14205 0.0
H1504 H 0.58561 0.52494 0.15057 0.0
H1505 H 0.59 0.54256 0.14872 0.0
C1506 C 0.44489 0.97326 0.27369 0.0
C1507 C 0.44474 0.98504 0.26648 0.0
C1508 C 0.45446 0.98648 0.24407 0.0
C1509 C 0.46506 0.0003 0.2438 0.0
C1510 C 0.47643 0.0042 0.23552 0.0
C1511 C 0.47718 0.99403 0.22743 0.0
C1512 C 0.46629 0.98012 0.22743 0.0
C1513 C 0.45493 0.97657 0.23561 0.0
C1514 C 0.48771 0.01916 0.23554 0.0
C1515 C 0.4668 0.96897 0.21906 0.0
C1516 C 0.54947 0.00767 0.27843 0.0
C1517 C 0.55134 0.99926 0.267 0.0
C1518 C 0.54441 0.005 0.24596 0.0
C1519 C 0.53403 0.99206 0.24091 0.0
C1520 C 0.52382 0.99097 0.23216 0.0
C1521 C 0.52399 0.00308 0.22844 0.0
C1522 C 0.53467 0.01617 0.23326 0.0
C1523 C 0.54489 0.01696 0.2418 0.0
C1524 C 0.51277 0.97687 0.22697 0.0
C1525 C 0.53512 0.02929 0.22964 0.0
C1526 C 0.55309 0.01844 0.14259 0.0
C1527 C 0.54232 0.00484 0.14427 0.0
C1528 C 0.5302 0.00223 0.15045 0.0
C1529 C 0.52885 0.01345 0.15504 0.0
C1530 C 0.53946 0.02715 0.1528 0.0
C1531 C 0.55142 0.02946 0.14644 0.0
C1532 C 0.51891 0.98748 0.1523 0.0
C1533 C 0.53831 0.03934 0.15745 0.0
C1534 C 0.43857 0.01346 0.14841 0.0
C1535 C 0.44649 0.01667 0.13498 0.0
C1536 C 0.46219 0.00855 0.1401 0.0
C1537 C 0.46389 0.99718 0.1388 0.0
C1538 C 0.47422 0.99676 0.14604 0.0
C1539 C 0.48329 0.00818 0.15459 0.0
C1540 C 0.48193 0.01993 0.15562 0.0
C1541 C 0.47132 0.01993 0.14851 0.0
C1542 C 0.47535 0.98406 0.14468 0.0
C1543 C 0.49166 0.03248 0.1643 0.0
C1544 C 0.48965 0.99778 0.21957 0.0
C1545 C 0.50068 0.9988 0.22671 0.0
C1546 C 0.51269 0.002 0.22003 0.0
C1547 C 0.51375 0.00412 0.20575 0.0
C1548 C 0.52554 0.00699 0.19863 0.0
C1549 C 0.52653 0.0092 0.1846 0.0
C1550 C 0.51575 0.00859 0.17714 0.0
C1551 C 0.51668 0.01083 0.16287 0.0
C1552 C 0.50594 0.01052 0.15582 0.0
C1553 C 0.49409 0.00781 0.16261 0.0
C1554 C 0.49282 0.00514 0.17681 0.0
C1555 C 0.4809 0.00196 0.18389 0.0
C1556 C 0.47985 0.99959 0.1979 0.0
C1557 C 0.49062 0.00021 0.20535 0.0
C1558 C 0.50271 0.00333 0.19841 0.0
C1559 C 0.50376 0.00568 0.1841 0.0
C1560 C 0.5812 0.02212 0.15314 0.0
C1561 C 0.57226 0.01489 0.14043 0.0
O1562 O 0.44367 0.98246 0.25242 0.0
O1563 O 0.45166 0.00802 0.13313 0.0
O1564 O 0.56512 0.02129 0.1371 0.0
O1565 O 0.55409 0.0062 0.2548 0.0
H1566 H 0.45443 0.99478 0.26917 0.0
H1567 H 0.45376 0.97257 0.27026 0.0
H1568 H 0.43545 0.96323 0.27123 0.0
H1569 H 0.44574 0.97516 0.28499 0.0
H1570 H 0.46444 0.00803 0.25004 0.0
H1571 H 0.44658 0.96595 0.23582 0.0
H1572 H 0.49696 0.02026 0.24043 0.0
H1573 H 0.48495 0.02601 0.2412 0.0
H1574 H 0.49031 0.02268 0.22484 0.0
H1575 H 0.45784 0.95854 0.22079 0.0
H1576 H 0.47618 0.96891 0.22169 0.0
H1577 H 0.4672 0.97115 0.20799 0.0
H1578 H 0.54174 0.98904 0.26604 0.0
H1579 H 0.54731 0.00228 0.28831 0.0
H1580 H 0.54076 0.00893 0.27587 0.0
H1581 H 0.55875 0.0181 0.27971 0.0
H1582 H 0.53396 0.98283 0.24376 0.0
H1583 H 0.55306 0.0269 0.24565 0.0
H1584 H 0.51164 0.97682 0.21566 0.0
H1585 H 0.50293 0.97441 0.23155 0.0
H1586 H 0.51486 0.96863 0.2296 0.0
H1587 H 0.54362 0.03856 0.23494 0.0
H1588 H 0.52539 0.02857 0.23241 0.0
H1589 H 0.53636 0.03069 0.2184 0.0
H1590 H 0.5652 0.00391 0.1429 0.0
H1591 H 0.54327 0.99624 0.14065 0.0
H1592 H 0.5597 0.03991 0.14485 0.0
H1593 H 0.51759 0.98528 0.1634 0.0
H1594 H 0.521 0.97994 0.14703 0.0
H1595 H 0.50917 0.98594 0.14827 0.0
H1596 H 0.5475 0.04937 0.15502 0.0
H1597 H 0.53671 0.03906 0.16871 0.0
H1598 H 0.52933 0.03872 0.15244 0.0
H1599 H 0.45496 0.02763 0.13531 0.0
H1600 H 0.43427 0.02023 0.14985 0.0
H1601 H 0.44537 0.0153 0.1573 0.0
H1602 H 0.43014 0.00249 0.14831 0.0
H1603 H 0.45688 0.98847 0.13225 0.0
H1604 H 0.4703 0.02889 0.14961 0.0
H1605 H 0.47551 0.98022 0.155 0.0
H1606 H 0.48506 0.98676 0.13964 0.0
H1607 H 0.46683 0.97561 0.13854 0.0
H1608 H 0.49048 0.04147 0.16245 0.0
H1609 H 0.50233 0.03548 0.16218 0.0
H1610 H 0.48978 0.03 0.17531 0.0
H1611 H 0.4999 0.99705 0.23766 0.0
H1612 H 0.53415 0.00757 0.20383 0.0
H1613 H 0.53589 0.01143 0.1797 0.0
H1614 H 0.50682 0.01246 0.14492 0.0
H1615 H 0.47225 0.00128 0.17869 0.0
H1616 H 0.47047 0.99727 0.20283 0.0
H1617 H 0.58712 0.01722 0.15581 0.0
H1618 H 0.57472 0.02122 0.16201 0.0
H1619 H 0.58835 0.03326 0.15134 0.0
C1620 C 0.54427 0.99621 0.74213 0.0
C1621 C 0.55544 0.00493 0.75279 0.0
C1622 C 0.5442 0.99997 0.77471 0.0
C1623 C 0.54766 0.01308 0.7799 0.0
C1624 C 0.53908 0.01467 0.78906 0.0
C1625 C 0.52677 0.00288 0.79301 0.0
C1626 C 0.52351 0.98958 0.78813 0.0
C1627 C 0.53242 0.98829 0.77918 0.0
C1628 C 0.54301 0.02896 0.79427 0.0
C1629 C 0.51042 0.9768 0.79203 0.0
C1630 C 0.47019 0.01726 0.7435 0.0
C1631 C 0.45959 0.01214 0.75489 0.0
C1632 C 0.47286 0.01705 0.77597 0.0
C1633 C 0.46875 0.00357 0.7798 0.0
C1634 C 0.47698 0.00109 0.78841 0.0
C1635 C 0.48946 0.01233 0.79345 0.0
C1636 C 0.49331 0.02598 0.79016 0.0
C1637 C 0.48487 0.02816 0.78152 0.0
C1638 C 0.47243 0.98642 0.79197 0.0
C1639 C 0.50645 0.03819 0.79556 0.0
C1640 C 0.46338 0.00785 0.87904 0.0
C1641 C 0.46031 0.99481 0.8739 0.0
C1642 C 0.4704 0.99299 0.86786 0.0
C1643 C 0.48384 0.0044 0.86707 0.0
C1644 C 0.48711 0.01736 0.87296 0.0
C1645 C 0.47682 0.01888 0.87898 0.0
C1646 C 0.46664 0.97894 0.86199 0.0
C1647 C 0.50137 0.02968 0.87244 0.0
C1648 C 0.55352 0.96807 0.87057 0.0
C1649 C 0.555 0.98021 0.87935 0.0
C1650 C 0.53497 0.98227 0.8787 0.0
C1651 C 0.5213 0.9732 0.87531 0.0
C1652 C 0.51354 0.97794 0.86904 0.0
C1653 C 0.51955 0.9922 0.86651 0.0
C1654 C 0.53316 0.00155 0.87074 0.0
C1655 C 0.54077 0.99647 0.87672 0.0
C1656 C 0.49901 0.96767 0.86485 0.0
C1657 C 0.53974 0.01686 0.8687 0.0
C1658 C 0.5169 0.00459 0.8014 0.0
C1659 C 0.50832 0.00789 0.79455 0.0
C1660 C 0.49873 0.00969 0.80164 0.0
C1661 C 0.49772 0.00834 0.81602 0.0
C1662 C 0.48833 0.0103 0.82348 0.0
C1663 C 0.48724 0.00871 0.8376 0.0
C1664 C 0.49544 0.005 0.84481 0.0
C1665 C 0.49415 0.00302 0.85912 0.0
C1666 C 0.50232 0.99917 0.86595 0.0
C1667 C 0.51179 0.99715 0.85883 0.0
C1668 C 0.51331 0.99921 0.84452 0.0
C1669 C 0.52276 0.99733 0.83702 0.0
C1670 C 0.52412 0.99931 0.82294 0.0
C1671 C 0.51587 0.00292 0.81575 0.0
C1672 C 0.50625 0.00484 0.82309 0.0
C1673 C 0.50506 0.00309 0.8375 0.0
C1674 C 0.44151 0.01485 0.86755 0.0
C1675 C 0.44084 0.00506 0.87849 0.0
O1676 O 0.552 0.99838 0.76524 0.0
O1677 O 0.5423 0.97708 0.88392 0.0
O1678 O 0.45367 0.01012 0.88421 0.0
O1679 O 0.46548 0.01966 0.76698 0.0
H1680 H 0.55627 0.01518 0.75381 0.0
H1681 H 0.5345 0.99507 0.74548 0.0
H1682 H 0.54286 0.98574 0.74085 0.0
H1683 H 0.5469 0.00129 0.73206 0.0
H1684 H 0.55704 0.02207 0.77674 0.0
H1685 H 0.52995 0.9782 0.77519 0.0
H1686 H 0.53597 0.03186 0.78982 0.0
H1687 H 0.55357 0.03685 0.7915 0.0
H1688 H 0.54206 0.02911 0.8056 0.0
H1689 H 0.50917 0.96727 0.78698 0.0
H1690 H 0.50163 0.9778 0.78913 0.0
H1691 H 0.51018 0.97567 0.80331 0.0
H1692 H 0.45601 0.00104 0.75608 0.0
H1693 H 0.46541 0.01175 0.73362 0.0
H1694 H 0.47836 0.01519 0.74615 0.0
H1695 H 0.47491 0.02856 0.74222 0.0
H1696 H 0.45911 0.99495 0.77617 0.0
H1697 H 0.48783 0.03855 0.77871 0.0
H1698 H 0.47181 0.98542 0.80328 0.0
H1699 H 0.48003 0.98381 0.78832 0.0
H1700 H 0.46237 0.97881 0.78733 0.0
H1701 H 0.50766 0.0482 0.79264 0.0
H1702 H 0.51515 0.03755 0.79148 0.0
H1703 H 0.50687 0.03796 0.80692 0.0
H1704 H 0.43706 0.99484 0.87326 0.0
H1705 H 0.45009 0.98602 0.8746 0.0
H1706 H 0.47914 0.02883 0.88324 0.0
H1707 H 0.46814 0.97951 0.85072 0.0
H1708 H 0.45592 0.97094 0.86405 0.0
H1709 H 0.47342 0.97569 0.8664 0.0
H1710 H 0.50243 0.03886 0.8781 0.0
H1711 H 0.50422 0.03239 0.86158 0.0
H1712 H 0.50865 0.02709 0.87686 0.0
H1713 H 0.55943 0.9893 0.87262 0.0
H1714 H 0.56362 0.97034 0.86691 0.0
H1715 H 0.54695 0.96631 0.86147 0.0
H1716 H 0.54879 0.95845 0.8765 0.0
H1717 H 0.51687 0.9623 0.87713 0.0
H1718 H 0.55123 0.00355 0.87987 0.0
H1719 H 0.4974 0.96864 0.85381 0.0
H1720 H 0.49209 0.96994 0.87079 0.0
H1721 H 0.49615 0.95685 0.86665 0.0
H1722 H 0.54973 0.02291 0.8741 0.0
H1723 H 0.53297 0.02054 0.87245 0.0
H1724 H 0.54132 0.01894 0.85758 0.0
H1725 H 0.50902 0.00893 0.7835 0.0
H1726 H 0.48171 0.01307 0.81847 0.0
H1727 H 0.47981 0.01034 0.84278 0.0
H1728 H 0.50113 0.99748 0.87689 0.0
H1729 H 0.52924 0.99433 0.84193 0.0
H1730 H 0.53162 0.9978 0.81772 0.0
H1731 H 0.43121 0.01113 0.86321 0.0
H1732 H 0.44816 0.01522 0.85907 0.0
H1733 H 0.44574 0.0255 0.87192 0.0
C1734 C 0.99857 0.54359 0.74483 0.0
C1735 C 0.98957 0.54551 0.75517 0.0
C1736 C 0.99487 0.53894 0.7767 0.0
C1737 C 0.9824 0.52724 0.77997 0.0
C1738 C 0.98189 0.51721 0.78855 0.0
C1739 C 0.99412 0.51892 0.79392 0.0
C1740 C 0.0067 0.53087 0.79084 0.0
C1741 C 0.00687 0.54085 0.78244 0.0
C1742 C 0.96829 0.50476 0.79183 0.0
C1743 C 0.01998 0.53299 0.79623 0.0
C1744 C 0.00853 0.43177 0.76661 0.0
C1745 C 0.01023 0.44351 0.77543 0.0
C1746 C 0.99756 0.4545 0.78266 0.0
C1747 C 0.00909 0.46679 0.78751 0.0
C1748 C 0.00785 0.47743 0.79366 0.0
C1749 C 0.9948 0.47567 0.7952 0.0
C1750 C 0.98319 0.46345 0.79008 0.0
C1751 C 0.98475 0.45302 0.78382 0.0
C1752 C 0.0205 0.49044 0.79879 0.0
C1753 C 0.96916 0.46131 0.79155 0.0
C1754 C 0.00461 0.46172 0.88223 0.0
C1755 C 0.01569 0.47246 0.87542 0.0
C1756 C 0.01436 0.48251 0.86867 0.0
C1757 C 0.00171 0.48185 0.8687 0.0
C1758 C 0.99066 0.4713 0.87585 0.0
C1759 C 0.99228 0.46139 0.88256 0.0
C1760 C 0.02642 0.49369 0.86123 0.0
C1761 C 0.97705 0.47032 0.87611 0.0
C1762 C 0.01836 0.58378 0.86622 0.0
C1763 C 0.01119 0.57449 0.8783 0.0
C1764 C 0.01347 0.55418 0.87733 0.0
C1765 C 0.02333 0.55124 0.87304 0.0
C1766 C 0.01966 0.53807 0.86785 0.0
C1767 C 0.00576 0.52753 0.86727 0.0
C1768 C 0.9958 0.53019 0.87247 0.0
C1769 C 0.99977 0.54353 0.87747 0.0
C1770 C 0.03059 0.53553 0.86261 0.0
C1771 C 0.98096 0.51905 0.87235 0.0
C1772 C 0.99378 0.50804 0.80243 0.0
C1773 C 0.99312 0.49664 0.79564 0.0
C1774 C 0.99338 0.48632 0.80295 0.0
C1775 C 0.99394 0.48711 0.81744 0.0
C1776 C 0.99382 0.47667 0.82509 0.0
C1777 C 0.99539 0.478 0.83928 0.0
C1778 C 0.99729 0.48989 0.84637 0.0
C1779 C 0.99994 0.49182 0.86067 0.0
C1780 C 0.00208 0.50391 0.86734 0.0
C1781 C 0.00167 0.51419 0.86007 0.0
C1782 C 0.99878 0.51232 0.84582 0.0
C1783 C 0.99815 0.5224 0.83823 0.0
C1784 C 0.99607 0.52082 0.82408 0.0
C1785 C 0.99487 0.50927 0.81692 0.0
C1786 C 0.99504 0.49879 0.82443 0.0
C1787 C 0.99684 0.50024 0.83891 0.0
C1788 C 0.01619 0.44269 0.87377 0.0
C1789 C 0.01583 0.4488 0.88792 0.0
O1790 O 0.99561 0.54853 0.7681 0.0
O1791 O 0.01759 0.56733 0.88147 0.0
O1792 O 0.00527 0.45141 0.88844 0.0
O1793 O 0.9984 0.44388 0.77686 0.0
H1794 H 0.97954 0.5357 0.75521 0.0
H1795 H 0.99966 0.53477 0.74774 0.0
H1796 H 0.00886 0.55304 0.7446 0.0
H1797 H 0.99393 0.54134 0.73438 0.0
H1798 H 0.97304 0.52601 0.77595 0.0
H1799 H 0.01644 0.55 0.77996 0.0
H1800 H 0.96764 0.49532 0.78727 0.0
H1801 H 0.95966 0.5055 0.7878 0.0
H1802 H 0.96727 0.50354 0.80311 0.0
H1803 H 0.02892 0.54217 0.79186 0.0
H1804 H 0.02068 0.52373 0.79378 0.0
H1805 H 0.02044 0.5344 0.80756 0.0
H1806 H 0.01567 0.44504 0.78539 0.0
H1807 H 0.02074 0.44142 0.74964 0.0
H1808 H 0.99726 0.42414 0.76567 0.0
H1809 H 0.01049 0.42524 0.77365 0.0
H1810 H 0.01911 0.46816 0.78664 0.0
H1811 H 0.97592 0.44354 0.77997 0.0
H1812 H 0.02059 0.49091 0.81018 0.0
H1813 H 0.02055 0.4997 0.79518 0.0
H1814 H 0.02995 0.49092 0.79532 0.0
H1815 H 0.96114 0.45122 0.78701 0.0
H1816 H 0.96869 0.46972 0.78644 0.0
H1817 H 0.96697 0.46182 0.80258 0.0
H1818 H 0.02567 0.45858 0.88994 0.0
H1819 H 0.02538 0.47304 0.87516 0.0
H1820 H 0.9838 0.45315 0.8879 0.0
H1821 H 0.02427 0.49237 0.85002 0.0
H1822 H 0.03585 0.4935 0.86315 0.0
H1823 H 0.02822 0.504 0.86449 0.0
H1824 H 0.96945 0.46151 0.88216 0.0
H1825 H 0.97309 0.46909 0.86546 0.0
H1826 H 0.97827 0.48004 0.8806 0.0
H1827 H 0.00043 0.56732 0.8751 0.0
H1828 H 0.01345 0.58973 0.86362 0.0
H1829 H 0.01765 0.57734 0.85708 0.0
H1830 H 0.02928 0.59112 0.86869 0.0
H1831 H 0.03391 0.55948 0.87331 0.0
H1832 H 0.99217 0.54559 0.88149 0.0
H1833 H 0.02858 0.53206 0.85165 0.0
H1834 H 0.03042 0.52716 0.86846 0.0
H1835 H 0.0409 0.5449 0.86359 0.0
H1836 H 0.97464 0.52237 0.87795 0.0
H1837 H 0.97965 0.50961 0.87707 0.0
H1838 H 0.97719 0.51626 0.86158 0.0
H1839 H 0.99286 0.49603 0.78451 0.0
H1840 H 0.99263 0.4674 0.82016 0.0
H1841 H 0.99535 0.4697 0.84459 0.0
H1842 H 0.00457 0.50556 0.87822 0.0
H1843 H 0.99936 0.53169 0.84311 0.0
H1844 H 0.99574 0.52893 0.81878 0.0
H1845 H 0.02443 0.4403 0.87351 0.0
H1846 H 0.01817 0.45013 0.86562 0.0
H1847 H 0.00633 0.43307 0.8714 0.0
C1848 C 0.52512 0.57919 0.74935 0.0
C1849 C 0.53473 0.58269 0.76171 0.0
C1850 C 0.52133 0.56249 0.77607 0.0
C1851 C 0.51167 0.56594 0.78025 0.0
C1852 C 0.50055 0.55695 0.78824 0.0
C1853 C 0.49907 0.54432 0.79223 0.0
C1854 C 0.50883 0.54088 0.78821 0.0
C1855 C 0.51986 0.55005 0.7802 0.0
C1856 C 0.49031 0.56094 0.79237 0.0
C1857 C 0.50759 0.52753 0.79238 0.0
C1858 C 0.39811 0.47894 0.76634 0.0
C1859 C 0.40871 0.47511 0.76221 0.0
C1860 C 0.42733 0.48492 0.77929 0.0
C1861 C 0.4349 0.48127 0.78744 0.0
C1862 C 0.44705 0.49136 0.79387 0.0
C1863 C 0.45136 0.50551 0.79272 0.0
C1864 C 0.44379 0.5093 0.78439 0.0
C1865 C 0.43199 0.49897 0.77755 0.0
C1866 C 0.45514 0.4868 0.80203 0.0
C1867 C 0.44799 0.52425 0.78291 0.0
C1868 C 0.42542 0.49531 0.87874 0.0
C1869 C 0.43383 0.49024 0.87476 0.0
C1870 C 0.4465 0.49894 0.86881 0.0
C1871 C 0.4507 0.51292 0.86663 0.0
C1872 C 0.44253 0.5182 0.8713 0.0
C1873 C 0.43004 0.50932 0.87749 0.0
C1874 C 0.45519 0.49308 0.86448 0.0
C1875 C 0.44675 0.53307 0.86928 0.0
C1876 C 0.55187 0.59388 0.87103 0.0
C1877 C 0.54458 0.59135 0.88478 0.0
C1878 C 0.52407 0.56852 0.88018 0.0
C1879 C 0.51936 0.55439 0.88017 0.0
C1880 C 0.50727 0.54476 0.87329 0.0
C1881 C 0.4995 0.54939 0.86657 0.0
C1882 C 0.50387 0.56362 0.86708 0.0
C1883 C 0.51623 0.57307 0.87368 0.0
C1884 C 0.50295 0.52968 0.87295 0.0
C1885 C 0.4956 0.56888 0.86049 0.0
C1886 C 0.48721 0.53471 0.80051 0.0
C1887 C 0.47541 0.52471 0.79356 0.0
C1888 C 0.46345 0.51623 0.80064 0.0
C1889 C 0.46316 0.51788 0.81506 0.0
C1890 C 0.45109 0.51021 0.82243 0.0
C1891 C 0.45101 0.51153 0.83664 0.0
C1892 C 0.46301 0.52059 0.84407 0.0
C1893 C 0.4631 0.52169 0.85857 0.0
C1894 C 0.47511 0.53112 0.8656 0.0
C1895 C 0.48714 0.53945 0.85853 0.0
C1896 C 0.4873 0.53827 0.84404 0.0
C1897 C 0.49927 0.54631 0.83661 0.0
C1898 C 0.49925 0.54525 0.82236 0.0
C1899 C 0.48734 0.53589 0.815 0.0
C1900 C 0.47523 0.5275 0.82228 0.0
C1901 C 0.47518 0.52879 0.83681 0.0
C1902 C 0.39044 0.47286 0.87425 0.0
C1903 C 0.40364 0.47367 0.87853 0.0
O1904 O 0.53208 0.57071 0.76802 0.0
O1905 O 0.53617 0.57728 0.88658 0.0
O1906 O 0.41274 0.48689 0.88363 0.0
O1907 O 0.41548 0.47458 0.77369 0.0
H1908 H 0.53336 0.58948 0.76919 0.0
H1909 H 0.51438 0.5739 0.75265 0.0
H1910 H 0.52624 0.57227 0.74184 0.0
H1911 H 0.5274 0.58878 0.74419 0.0
H1912 H 0.51265 0.57555 0.77729 0.0
H1913 H 0.52735 0.54748 0.77699 0.0
H1914 H 0.48004 0.55291 0.78855 0.0
H1915 H 0.49281 0.57106 0.78831 0.0
H1916 H 0.48988 0.56149 0.80373 0.0
H1917 H 0.51616 0.52648 0.78863 0.0
H1918 H 0.49791 0.51866 0.78823 0.0
H1919 H 0.50725 0.52696 0.80373 0.0
H1920 H 0.41602 0.48313 0.75519 0.0
H1921 H 0.3915 0.47757 0.75739 0.0
H1922 H 0.40316 0.48989 0.76992 0.0
H1923 H 0.39169 0.47252 0.77482 0.0
H1924 H 0.43128 0.47041 0.78864 0.0
H1925 H 0.42632 0.50197 0.77118 0.0
H1926 H 0.45299 0.48704 0.8131 0.0
H1927 H 0.46622 0.49383 0.80058 0.0
H1928 H 0.4524 0.4761 0.79908 0.0
H1929 H 0.44 0.52535 0.77774 0.0
H1930 H 0.45737 0.52952 0.77673 0.0
H1931 H 0.45029 0.52963 0.79312 0.0
H1932 H 0.40762 0.47136 0.86903 0.0
H1933 H 0.43045 0.47947 0.87621 0.0
H1934 H 0.42355 0.51316 0.88083 0.0
H1935 H 0.45497 0.49197 0.85313 0.0
H1936 H 0.45157 0.48278 0.86883 0.0
H1937 H 0.46593 0.50021 0.86777 0.0
H1938 H 0.43905 0.53546 0.87312 0.0
H1939 H 0.44839 0.5354 0.85821 0.0
H1940 H 0.45654 0.53999 0.87476 0.0
H1941 H 0.53852 0.59647 0.88498 0.0
H1942 H 0.55865 0.60514 0.86952 0.0
H1943 H 0.54433 0.58956 0.86245 0.0
H1944 H 0.55802 0.58886 0.87066 0.0
H1945 H 0.52541 0.55097 0.88531 0.0
H1946 H 0.51956 0.58392 0.87371 0.0
H1947 H 0.50119 0.52562 0.86217 0.0
H1948 H 0.49322 0.52368 0.87845 0.0
H1949 H 0.51065 0.5279 0.87779 0.0
H1950 H 0.49911 0.57972 0.86378 0.0
H1951 H 0.48468 0.56226 0.86305 0.0
H1952 H 0.49646 0.56848 0.84917 0.0
H1953 H 0.47551 0.52362 0.78248 0.0
H1954 H 0.44154 0.50308 0.8173 0.0
H1955 H 0.44141 0.50531 0.84172 0.0
H1956 H 0.4751 0.53199 0.87671 0.0
H1957 H 0.50879 0.55356 0.84172 0.0
H1958 H 0.50873 0.55176 0.81719 0.0
H1959 H 0.38595 0.47552 0.88304 0.0
H1960 H 0.38293 0.46229 0.87025 0.0
H1961 H 0.39253 0.48025 0.86599 0.0
C1962 C 0.62064 0.76284 0.60633 0.0
C1963 C 0.62692 0.76011 0.59361 0.0
C1964 C 0.63186 0.77976 0.57924 0.0
C1965 C 0.61829 0.77508 0.57551 0.0
C1966 C 0.61503 0.78322 0.56764 0.0
C1967 C 0.62552 0.79629 0.56338 0.0
C1968 C 0.63918 0.80096 0.56696 0.0
C1969 C 0.64216 0.7926 0.57481 0.0
C1970 C 0.60035 0.77791 0.56394 0.0
C1971 C 0.65061 0.81485 0.56259 0.0
C1972 C 0.59759 0.85401 0.61596 0.0
C1973 C 0.608 0.859 0.60445 0.0
C1974 C 0.605 0.84636 0.58285 0.0
C1975 C 0.61868 0.85097 0.58017 0.0
C1976 C 0.62221 0.84349 0.5711 0.0
C1977 C 0.61183 0.83108 0.56472 0.0
C1978 C 0.59801 0.82662 0.56717 0.0
C1979 C 0.5948 0.8345 0.57602 0.0
C1980 C 0.63703 0.84873 0.5685 0.0
C1981 C 0.58665 0.81334 0.56075 0.0
C1982 C 0.60125 0.8462 0.47747 0.0
C1983 C 0.61483 0.85154 0.48153 0.0
C1984 C 0.61881 0.84312 0.48778 0.0
C1985 C 0.60897 0.82914 0.49017 0.0
C1986 C 0.5954 0.82361 0.48557 0.0
C1987 C 0.59177 0.8322 0.47909 0.0
C1988 C 0.63349 0.84922 0.49205 0.0
C1989 C 0.58466 0.80872 0.48782 0.0
C1990 C 0.62492 0.74644 0.48277 0.0
C1991 C 0.62127 0.75013 0.46907 0.0
C1992 C 0.62511 0.77329 0.47473 0.0
C1993 C 0.63503 0.78734 0.47493 0.0
C1994 C 0.63309 0.7971 0.48215 0.0
C1995 C 0.62073 0.79269 0.48905 0.0
C1996 C 0.61037 0.77855 0.4884 0.0
C1997 C 0.61274 0.76897 0.48144 0.0
C1998 C 0.64436 0.81207 0.48262 0.0
C1999 C 0.59685 0.77352 0.49521 0.0
C2000 C 0.62214 0.80519 0.55547 0.0
C2001 C 0.61901 0.81395 0.56282 0.0
C2002 C 0.61542 0.82241 0.5561 0.0
C2003 C 0.61497 0.8222 0.5416 0.0
C2004 C 0.61154 0.83065 0.5345 0.0
C2005 C 0.61077 0.83009 0.52023 0.0
C2006 C 0.61358 0.82117 0.51249 0.0
C2007 C 0.61274 0.82046 0.49798 0.0
C2008 C 0.61527 0.81122 0.49064 0.0
C2009 C 0.61879 0.80273 0.4974 0.0
C2010 C 0.62001 0.80355 0.51188 0.0
C2011 C 0.62388 0.79542 0.51899 0.0
C2012 C 0.62463 0.79597 0.53325 0.0
C2013 C 0.62164 0.80474 0.54097 0.0
C2014 C 0.61799 0.81324 0.53401 0.0
C2015 C 0.61724 0.81269 0.51945 0.0
C2016 C 0.58925 0.86918 0.47969 0.0
C2017 C 0.60151 0.86784 0.47614 0.0
O2018 O 0.63549 0.77239 0.58715 0.0
O2019 O 0.62795 0.76438 0.46801 0.0
O2020 O 0.59697 0.85428 0.47206 0.0
O2021 O 0.60133 0.85302 0.59209 0.0
H2022 H 0.61867 0.75287 0.58637 0.0
H2023 H 0.61436 0.76725 0.60339 0.0
H2024 H 0.62872 0.77025 0.61361 0.0
H2025 H 0.61397 0.75303 0.61161 0.0
H2026 H 0.61013 0.76516 0.57873 0.0
H2027 H 0.6526 0.79613 0.57767 0.0
H2028 H 0.59724 0.78498 0.56845 0.0
H2029 H 0.5934 0.76735 0.56766 0.0
H2030 H 0.59917 0.77777 0.55262 0.0
H2031 H 0.66071 0.817 0.56619 0.0
H2032 H 0.64896 0.82312 0.56671 0.0
H2033 H 0.65066 0.81528 0.55122 0.0
H2034 H 0.61516 0.85544 0.60696 0.0
H2035 H 0.60272 0.8587 0.62599 0.0
H2036 H 0.59242 0.8426 0.61656 0.0
H2037 H 0.58976 0.85677 0.61405 0.0
H2038 H 0.6266 0.8604 0.58518 0.0
H2039 H 0.58427 0.83113 0.57808 0.0
H2040 H 0.63881 0.84867 0.5573 0.0
H2041 H 0.63988 0.84175 0.57324 0.0
H2042 H 0.64377 0.85935 0.57283 0.0
H2043 H 0.57652 0.81069 0.56469 0.0
H2044 H 0.58829 0.80468 0.56277 0.0
H2045 H 0.58658 0.81431 0.54946 0.0
H2046 H 0.60773 0.87066 0.48576 0.0
H2047 H 0.6223 0.86228 0.47981 0.0
H2048 H 0.58136 0.82815 0.47572 0.0
H2049 H 0.63433 0.85003 0.50341 0.0
H2050 H 0.64016 0.85967 0.48793 0.0
H2051 H 0.63722 0.84236 0.48846 0.0
H2052 H 0.57443 0.8062 0.48425 0.0
H2053 H 0.58418 0.80649 0.4989 0.0
H2054 H 0.5874 0.80183 0.48222 0.0
H2055 H 0.61009 0.74565 0.4684 0.0
H2056 H 0.61962 0.73505 0.48367 0.0
H2057 H 0.62172 0.75064 0.49146 0.0
H2058 H 0.63607 0.75085 0.48362 0.0
H2059 H 0.6445 0.79061 0.46967 0.0
H2060 H 0.60485 0.75818 0.48132 0.0
H2061 H 0.64691 0.81593 0.49344 0.0
H2062 H 0.64089 0.81837 0.47746 0.0
H2063 H 0.65371 0.81368 0.47751 0.0
H2064 H 0.58915 0.76278 0.49185 0.0
H2065 H 0.59289 0.78039 0.49292 0.0
H2066 H 0.59819 0.77375 0.5065 0.0
H2067 H 0.61924 0.8141 0.57395 0.0
H2068 H 0.6093 0.83774 0.5399 0.0
H2069 H 0.60791 0.83672 0.51535 0.0
H2070 H 0.61438 0.81056 0.47953 0.0
H2071 H 0.62632 0.78848 0.51362 0.0
H2072 H 0.62755 0.78939 0.53816 0.0
H2073 H 0.58216 0.86607 0.47076 0.0
H2074 H 0.59264 0.88002 0.48289 0.0
H2075 H 0.58365 0.8624 0.48832 0.0
C2076 C 0.14139 0.74668 0.61704 0.0
C2077 C 0.13442 0.75138 0.60706 0.0
C2078 C 0.1449 0.75915 0.58495 0.0
C2079 C 0.14288 0.77019 0.58291 0.0
C2080 C 0.15156 0.78104 0.57444 0.0
C2081 C 0.16256 0.78087 0.56803 0.0
C2082 C 0.16437 0.76952 0.56981 0.0
C2083 C 0.15532 0.75865 0.57807 0.0
C2084 C 0.14913 0.7928 0.57252 0.0
C2085 C 0.17608 0.76905 0.56332 0.0
C2086 C 0.24227 0.85435 0.61163 0.0
C2087 C 0.24511 0.86276 0.59867 0.0
C2088 C 0.22365 0.84979 0.58536 0.0
C2089 C 0.2251 0.83856 0.58138 0.0
C2090 C 0.21506 0.8275 0.57335 0.0
C2091 C 0.20332 0.82763 0.56925 0.0
C2092 C 0.2018 0.83887 0.57327 0.0
C2093 C 0.21203 0.84982 0.58125 0.0
C2094 C 0.21697 0.81564 0.56922 0.0
C2095 C 0.18937 0.83928 0.56912 0.0
C2096 C 0.22473 0.85086 0.48201 0.0
C2097 C 0.22649 0.83988 0.48549 0.0
C2098 C 0.2161 0.82824 0.49194 0.0
C2099 C 0.20369 0.82753 0.49492 0.0
C2100 C 0.20175 0.83838 0.49111 0.0
C2101 C 0.21232 0.8499 0.4847 0.0
C2102 C 0.21845 0.81679 0.49581 0.0
C2103 C 0.18863 0.83792 0.4941 0.0
C2104 C 0.11749 0.71902 0.48102 0.0
C2105 C 0.12178 0.73397 0.47818 0.0
C2106 C 0.14468 0.75421 0.4814 0.0
C2107 C 0.15809 0.75766 0.48359 0.0
C2108 C 0.16765 0.77035 0.48984 0.0
C2109 C 0.1637 0.77993 0.49368 0.0
C2110 C 0.15037 0.77689 0.49061 0.0
C2111 C 0.14094 0.76399 0.48455 0.0
C2112 C 0.18183 0.77332 0.49276 0.0
C2113 C 0.14599 0.78709 0.49415 0.0
C2114 C 0.17256 0.79289 0.5601 0.0
C2115 C 0.18264 0.80444 0.56746 0.0
C2116 C 0.19266 0.816 0.56074 0.0
C2117 C 0.19269 0.81615 0.54625 0.0
C2118 C 0.20266 0.82759 0.53918 0.0
C2119 C 0.20272 0.82755 0.52492 0.0
C2120 C 0.19285 0.81603 0.51716 0.0
C2121 C 0.19302 0.81577 0.50264 0.0
C2122 C 0.18319 0.80405 0.49524 0.0
C2123 C 0.17315 0.7925 0.50198 0.0
C2124 C 0.17271 0.79265 0.51649 0.0
C2125 C 0.16268 0.78123 0.52359 0.0
C2126 C 0.16245 0.78138 0.53785 0.0
C2127 C 0.17241 0.79283 0.54559 0.0
C2128 C 0.18254 0.80449 0.53865 0.0
C2129 C 0.18265 0.80443 0.52409 0.0
C2130 C 0.25638 0.87087 0.48713 0.0
C2131 C 0.24801 0.86631 0.47373 0.0
O2132 O 0.1371 0.74901 0.59372 0.0
O2133 O 0.13571 0.74136 0.47626 0.0
O2134 O 0.23467 0.8626 0.47626 0.0
O2135 O 0.23307 0.86073 0.59318 0.0
H2136 H 0.13889 0.76266 0.60924 0.0
H2137 H 0.15257 0.75278 0.61558 0.0
H2138 H 0.13784 0.73557 0.61526 0.0
H2139 H 0.13925 0.74837 0.62781 0.0
H2140 H 0.13454 0.77033 0.58799 0.0
H2141 H 0.15668 0.74999 0.57966 0.0
H2142 H 0.1574 0.80229 0.57773 0.0
H2143 H 0.13925 0.79059 0.5768 0.0
H2144 H 0.14933 0.79493 0.56144 0.0
H2145 H 0.17675 0.76011 0.5667 0.0
H2146 H 0.18581 0.77871 0.56591 0.0
H2147 H 0.17484 0.76829 0.55199 0.0
H2148 H 0.25021 0.85954 0.59099 0.0
H2149 H 0.25194 0.85608 0.61611 0.0
H2150 H 0.23563 0.84315 0.60917 0.0
H2151 H 0.23711 0.85738 0.61941 0.0
H2152 H 0.23398 0.83828 0.58448 0.0
H2153 H 0.21097 0.8585 0.58437 0.0
H2154 H 0.20864 0.80593 0.57349 0.0
H2155 H 0.22685 0.81726 0.57288 0.0
H2156 H 0.2164 0.81426 0.55787 0.0
H2157 H 0.18952 0.84856 0.57343 0.0
H2158 H 0.18007 0.82989 0.57264 0.0
H2159 H 0.18872 0.83927 0.55776 0.0
H2160 H 0.24822 0.85737 0.46896 0.0
H2161 H 0.23595 0.84032 0.48338 0.0
H2162 H 0.211 0.85836 0.48192 0.0
H2163 H 0.21774 0.81567 0.50711 0.0
H2164 H 0.22855 0.81873 0.49252 0.0
H2165 H 0.21043 0.80685 0.49105 0.0
H2166 H 0.18854 0.84696 0.49005 0.0
H2167 H 0.18709 0.83768 0.50535 0.0
H2168 H 0.17994 0.82832 0.48949 0.0
H2169 H 0.11905 0.73806 0.48737 0.0
H2170 H 0.10646 0.7128 0.48323 0.0
H2171 H 0.12318 0.71878 0.49011 0.0
H2172 H 0.11972 0.71423 0.47207 0.0
H2173 H 0.16091 0.75012 0.48085 0.0
H2174 H 0.13069 0.76158 0.48236 0.0
H2175 H 0.18417 0.77546 0.50391 0.0
H2176 H 0.1893 0.78268 0.4873 0.0
H2177 H 0.18316 0.7646 0.48947 0.0
H2178 H 0.13593 0.78395 0.48955 0.0
H2179 H 0.15364 0.79749 0.49054 0.0
H2180 H 0.14535 0.78791 0.50546 0.0
H2181 H 0.18279 0.80438 0.57859 0.0
H2182 H 0.21057 0.83671 0.5446 0.0
H2183 H 0.21067 0.83665 0.52005 0.0
H2184 H 0.18352 0.80382 0.48412 0.0
H2185 H 0.15486 0.77202 0.51822 0.0
H2186 H 0.15445 0.77233 0.54275 0.0
H2187 H 0.26712 0.87411 0.48501 0.0
H2188 H 0.25232 0.86225 0.49435 0.0
H2189 H 0.2561 0.87964 0.4922 0.0
C2190 C 0.14663 0.38574 0.61047 0.0
C2191 C 0.13748 0.37985 0.59761 0.0
C2192 C 0.15125 0.37434 0.58221 0.0
C2193 C 0.16136 0.38806 0.57956 0.0
C2194 C 0.17276 0.39095 0.5717 0.0
C2195 C 0.174 0.37992 0.56627 0.0
C2196 C 0.16367 0.36612 0.56859 0.0
C2197 C 0.15245 0.36353 0.57655 0.0
C2198 C 0.18357 0.40578 0.56933 0.0
C2199 C 0.1646 0.35411 0.56282 0.0
C2200 C 0.24822 0.39132 0.62058 0.0
C2201 C 0.24472 0.38109 0.60848 0.0
C2202 C 0.23907 0.38742 0.58694 0.0
C2203 C 0.22814 0.37464 0.58228 0.0
C2204 C 0.2185 0.37397 0.57298 0.0
C2205 C 0.21978 0.38635 0.56837 0.0
C2206 C 0.23106 0.39925 0.57276 0.0
C2207 C 0.2407 0.39959 0.58183 0.0
C2208 C 0.2068 0.36002 0.56829 0.0
C2209 C 0.23271 0.41267 0.56816 0.0
C2210 C 0.24812 0.39531 0.48147 0.0
C2211 C 0.23711 0.38202 0.48394 0.0
C2212 C 0.22535 0.38022 0.49032 0.0
C2213 C 0.22458 0.39195 0.49422 0.0
C2214 C 0.23542 0.40532 0.4912 0.0
C2215 C 0.24702 0.4068 0.48474 0.0
C2216 C 0.21379 0.36581 0.49303 0.0
C2217 C 0.23485 0.41803 0.49506 0.0
C2218 C 0.13656 0.39485 0.48122 0.0
C2219 C 0.14154 0.39114 0.46809 0.0
C2220 C 0.15656 0.38361 0.47747 0.0
C2221 C 0.15745 0.372 0.48004 0.0
C2222 C 0.16849 0.37316 0.4874 0.0
C2223 C 0.17892 0.38631 0.49231 0.0
C2224 C 0.17831 0.39818 0.48945 0.0
C2225 C 0.16714 0.39673 0.48203 0.0
C2226 C 0.1689 0.36031 0.49015 0.0
C2227 C 0.18933 0.41236 0.49447 0.0
C2228 C 0.18635 0.38278 0.55864 0.0
C2229 C 0.19717 0.38373 0.56612 0.0
C2230 C 0.20892 0.38579 0.55964 0.0
C2231 C 0.20998 0.387 0.54522 0.0
C2232 C 0.22154 0.38885 0.53832 0.0
C2233 C 0.22248 0.39002 0.52413 0.0
C2234 C 0.21184 0.38926 0.51628 0.0
C2235 C 0.21262 0.39025 0.50183 0.0
C2236 C 0.20184 0.38943 0.49434 0.0
C2237 C 0.19018 0.38755 0.50089 0.0
C2238 C 0.1892 0.3865 0.51533 0.0
C2239 C 0.17757 0.38452 0.52224 0.0
C2240 C 0.17662 0.38332 0.53642 0.0
C2241 C 0.18728 0.38412 0.54425 0.0
C2242 C 0.19913 0.38621 0.53752 0.0
C2243 C 0.20007 0.38737 0.52304 0.0
C2244 C 0.27918 0.39926 0.48657 0.0
C2245 C 0.26616 0.39006 0.4782 0.0
O2246 O 0.14032 0.37098 0.59025 0.0
O2247 O 0.14527 0.38154 0.47074 0.0
O2248 O 0.2598 0.39743 0.47571 0.0
O2249 O 0.24815 0.38828 0.59638 0.0
H2250 H 0.13918 0.38848 0.59105 0.0
H2251 H 0.15749 0.39199 0.60763 0.0
H2252 H 0.14535 0.37728 0.61703 0.0
H2253 H 0.14406 0.39255 0.61651 0.0
H2254 H 0.16055 0.39658 0.58367 0.0
H2255 H 0.14458 0.35299 0.57855 0.0
H2256 H 0.19342 0.40793 0.57372 0.0
H2257 H 0.18102 0.41321 0.57404 0.0
H2258 H 0.18498 0.40753 0.55815 0.0
H2259 H 0.15542 0.34399 0.56503 0.0
H2260 H 0.17364 0.35442 0.56728 0.0
H2261 H 0.16595 0.35495 0.55154 0.0
H2262 H 0.23357 0.37356 0.60882 0.0
H2263 H 0.24545 0.38581 0.63041 0.0
H2264 H 0.24243 0.39667 0.61962 0.0
H2265 H 0.25926 0.39922 0.62081 0.0
H2266 H 0.22716 0.3652 0.58592 0.0
H2267 H 0.2493 0.4094 0.58539 0.0
H2268 H 0.20541 0.35962 0.55699 0.0
H2269 H 0.1973 0.35835 0.57307 0.0
H2270 H 0.20831 0.35147 0.57118 0.0
H2271 H 0.24162 0.42183 0.57312 0.0
H2272 H 0.22342 0.413 0.57058 0.0
H2273 H 0.234 0.41336 0.55687 0.0
H2274 H 0.25968 0.38089 0.48445 0.0
H2275 H 0.23761 0.37303 0.48079 0.0
H2276 H 0.25547 0.417 0.48253 0.0
H2277 H 0.21235 0.36447 0.50427 0.0
H2278 H 0.21563 0.35773 0.4887 0.0
H2279 H 0.2042 0.36424 0.48855 0.0
H2280 H 0.24415 0.4277 0.49202 0.0
H2281 H 0.2336 0.41851 0.50632 0.0
H2282 H 0.22589 0.41742 0.49002 0.0
H2283 H 0.15039 0.40064 0.46403 0.0
H2284 H 0.13328 0.40229 0.47898 0.0
H2285 H 0.14481 0.39974 0.48909 0.0
H2286 H 0.12787 0.38544 0.48559 0.0
H2287 H 0.14931 0.36194 0.47641 0.0
H2288 H 0.16674 0.40586 0.47998 0.0
H2289 H 0.16877 0.3589 0.50139 0.0
H2290 H 0.17849 0.36145 0.4862 0.0
H2291 H 0.16017 0.35088 0.48531 0.0
H2292 H 0.1876 0.42063 0.49106 0.0
H2293 H 0.19935 0.4145 0.49067 0.0
H2294 H 0.18984 0.41272 0.50585 0.0
H2295 H 0.19637 0.38269 0.57717 0.0
H2296 H 0.23001 0.38942 0.54381 0.0
H2297 H 0.23165 0.39148 0.51939 0.0
H2298 H 0.20248 0.39012 0.48326 0.0
H2299 H 0.16905 0.38383 0.51675 0.0
H2300 H 0.16742 0.38177 0.54117 0.0
H2301 H 0.28448 0.39359 0.48871 0.0
H2302 H 0.27664 0.40235 0.49653 0.0
H2303 H 0.28616 0.40877 0.48098 0.0
C2304 C 0.00062 0.35939 0.04996 0.0
C2305 C 0.98875 0.35346 0.04177 0.0
C2306 C 0.00251 0.36852 0.06085 0.0
C2307 C 0.98462 0.38112 0.08316 0.0
H2308 H 0.02094 0.41306 0.08809 0.0
C2309 C 0.01492 0.43765 0.11398 0.0
C2310 C 0.00884 0.43383 0.1269 0.0
C2311 C 0.01185 0.42765 0.10363 0.0
C2312 C 0.0107 0.40429 0.08678 0.0
H2313 H 0.96943 0.35223 0.03883 0.0
H2314 H 0.97289 0.36841 0.05764 0.0
H2315 H 0.01659 0.39589 0.07016 0.0
H2316 H 0.99514 0.41656 0.13924 0.0
H2317 H 0.98995 0.39901 0.12124 0.0
H2318 H 0.97866 0.38982 0.09951 0.0
C2319 C 0.98063 0.36582 0.0558 0.0
C2320 C 0.00825 0.39431 0.07662 0.0
C2321 C 0.97867 0.35658 0.04496 0.0
C2322 C 0.99974 0.41979 0.12928 0.0
C2323 C 0.99675 0.40977 0.11896 0.0
C2324 C 0.98706 0.39117 0.09328 0.0
C2325 C 0.99267 0.37205 0.06375 0.0
C2326 C 0.9952 0.38257 0.07469 0.0
C2327 C 0.00283 0.41357 0.10602 0.0
C2328 C 1.00013 0.40289 0.09521 0.0
H2329 H 0.00852 0.35708 0.0479 0.0
H2330 H 0.01177 0.37287 0.06696 0.0
H2331 H 0.97448 0.37215 0.08205 0.0
H2332 H 0.02217 0.44837 0.11192 0.0
H2333 H 0.01659 0.43098 0.09374 0.0
C2334 C 0.6426 0.62431 0.04841 0.0
C2335 C 0.63957 0.63475 0.05092 0.0
C2336 C 0.63783 0.61317 0.05716 0.0
C2337 C 0.624 0.60193 0.09191 0.0
H2338 H 0.60738 0.56498 0.0756 0.0
C2339 C 0.5885 0.55356 0.12219 0.0
C2340 C 0.58971 0.54187 0.12028 0.0
C2341 C 0.59555 0.56492 0.11384 0.0
C2342 C 0.61215 0.57524 0.08033 0.0
H2343 H 0.62939 0.64175 0.06483 0.0
H2344 H 0.62105 0.62237 0.0799 0.0
H2345 H 0.6184 0.58494 0.06095 0.0
H2346 H 0.59955 0.53309 0.10839 0.0
H2347 H 0.61187 0.55297 0.09371 0.0
H2348 H 0.61757 0.59224 0.11126 0.0
C2349 C 0.62721 0.62283 0.07127 0.0
C2350 C 0.61848 0.58668 0.07194 0.0
C2351 C 0.63193 0.63392 0.06254 0.0
C2352 C 0.59825 0.54186 0.10992 0.0
C2353 C 0.60528 0.55323 0.10153 0.0
C2354 C 0.61766 0.59051 0.10029 0.0
C2355 C 0.63 0.61226 0.06863 0.0
C2356 C 0.6243 0.60015 0.07762 0.0
C2357 C 0.60403 0.5649 0.10343 0.0
C2358 C 0.61149 0.57703 0.09458 0.0
H2359 H 0.64849 0.62463 0.03958 0.0
H2360 H 0.64027 0.60525 0.05493 0.0
H2361 H 0.62861 0.61218 0.09664 0.0
H2362 H 0.58213 0.55392 0.1302 0.0
H2363 H 0.59425 0.57369 0.11546 0.0
C2364 C 0.36821 0.01009 0.04377 0.0
C2365 C 0.36039 0.99663 0.03803 0.0
C2366 C 0.37769 0.01297 0.05433 0.0
C2367 C 0.38596 0.99539 0.08084 0.0
H2368 H 0.4217 0.02858 0.08135 0.0
C2369 C 0.42872 0.00176 0.1167 0.0
C2370 C 0.43717 0.01481 0.12307 0.0
C2371 C 0.41956 5e-05 0.10631 0.0
C2372 C 0.41171 0.01932 0.08144 0.0
H2373 H 0.35677 0.97578 0.03866 0.0
H2374 H 0.37325 0.98085 0.0567 0.0
H2375 H 0.40525 0.02497 0.06343 0.0
H2376 H 0.44223 0.03611 0.12392 0.0
H2377 H 0.42614 0.03311 0.10587 0.0
H2378 H 0.39236 0.98967 0.09876 0.0
C2379 C 0.37187 0.98911 0.05337 0.0
C2380 C 0.40227 0.01728 0.07117 0.0
C2381 C 0.36243 0.98623 0.04294 0.0
C2382 C 0.43608 0.02602 0.11896 0.0
C2383 C 0.42689 0.0243 0.1086 0.0
C2384 C 0.39536 0.99742 0.09106 0.0
C2385 C 0.37953 0.00246 0.05932 0.0
C2386 C 0.38934 0.0052 0.07066 0.0
C2387 C 0.41848 0.01128 0.10218 0.0
C2388 C 0.40841 0.00934 0.09142 0.0
H2389 H 0.36691 0.01833 0.04023 0.0
H2390 H 0.38339 0.02336 0.05875 0.0
H2391 H 0.37599 0.9861 0.08093 0.0
H2392 H 0.42912 0.99286 0.11983 0.0
H2393 H 0.41333 0.9899 0.10149 0.0
C2394 C 0.35353 0.97974 0.96525 0.0
C2395 C 0.35546 0.9913 0.97302 0.0
C2396 C 0.36231 0.9813 0.95457 0.0
C2397 C 0.38891 0.00743 0.9321 0.0
H2398 H 0.39942 0.97996 0.92811 0.0
C2399 C 0.4336 0.01481 0.89829 0.0
C2400 C 0.43099 0.00351 0.88964 0.0
C2401 C 0.42425 0.01341 0.90828 0.0
C2402 C 0.39649 0.98766 0.92903 0.0
H2403 H 0.36802 0.01362 0.97542 0.0
H2404 H 0.38348 0.01629 0.95706 0.0
H2405 H 0.38315 0.97737 0.94561 0.0
H2406 H 0.41662 0.98189 0.88478 0.0
H2407 H 0.40038 0.9794 0.90236 0.0
H2408 H 0.40255 0.01784 0.91566 0.0
C2409 C 0.37504 0.00603 0.95903 0.0
C2410 C 0.38711 0.98615 0.93902 0.0
C2411 C 0.36619 0.00448 0.96963 0.0
C2412 C 0.41892 0.99076 0.89132 0.0
C2413 C 0.40965 0.98933 0.9014 0.0
C2414 C 0.39839 0.009 0.92219 0.0
C2415 C 0.37331 0.99444 0.95146 0.0
C2416 C 0.38317 0.996 0.94067 0.0
C2417 C 0.41219 0.00065 0.90994 0.0
C2418 C 0.40225 0.99911 0.92054 0.0
H2419 H 0.3453 0.96945 0.96748 0.0
H2420 H 0.36048 0.97217 0.94878 0.0
H2421 H 0.38597 0.01511 0.93293 0.0
H2422 H 0.44286 0.02473 0.89726 0.0
H2423 H 0.42653 0.02227 0.91482 0.0
C2424 C 0.00921 0.36815 0.9753 0.0
C2425 C 0.99577 0.35706 0.97656 0.0
C2426 C 0.01244 0.37809 0.96536 0.0
C2427 C 0.99928 0.38404 0.93311 0.0
H2428 H 0.02209 0.42282 0.94356 0.0
C2429 C 0.00114 0.42686 0.9009 0.0
C2430 C 0.01393 0.43872 0.89887 0.0
C2431 C 0.99964 0.41706 0.91029 0.0
C2432 C 0.01582 0.41203 0.94044 0.0
H2433 H 0.97527 0.34764 0.96812 0.0
H2434 H 0.98087 0.36489 0.9511 0.0
H2435 H 0.01861 0.40523 0.95979 0.0
H2436 H 0.03522 0.44945 0.90485 0.0
H2437 H 0.0326 0.43234 0.92131 0.0
H2438 H 0.99631 0.3908 0.91386 0.0
C2439 C 0.98897 0.36588 0.95762 0.0
C2440 C 0.01386 0.40195 0.94972 0.0
C2441 C 0.98574 0.35601 0.9675 0.0
C2442 C 0.0252 0.44053 0.9064 0.0
C2443 C 0.02369 0.43075 0.91582 0.0
C2444 C 0.0012 0.39409 0.92387 0.0
C2445 C 0.00232 0.37709 0.95646 0.0
C2446 C 0.00541 0.38783 0.94623 0.0
C2447 C 0.01092 0.41885 0.91779 0.0
C2448 C 0.00935 0.40821 0.92748 0.0
H2449 H 0.01718 0.36928 0.98209 0.0
H2450 H 0.02286 0.38655 0.96465 0.0
H2451 H 0.99292 0.37326 0.92999 0.0
H2452 H 0.99233 0.42509 0.8951 0.0
H2453 H 0.98964 0.40807 0.91167 0.0
C2454 C 0.63155 0.64298 0.97767 0.0
C2455 C 0.6266 0.64618 0.98953 0.0
C2456 C 0.62324 0.63715 0.96599 0.0
C2457 C 0.59163 0.63239 0.95013 0.0
H2458 H 0.59389 0.60524 0.92695 0.0
C2459 C 0.55912 0.59005 0.90372 0.0
C2460 C 0.55491 0.59779 0.89641 0.0
C2461 C 0.56849 0.59617 0.91458 0.0
C2462 C 0.59303 0.61272 0.93338 0.0
H2463 H 0.60891 0.64533 0.99857 0.0
H2464 H 0.59434 0.63477 0.97847 0.0
H2465 H 0.60849 0.61493 0.94724 0.0
H2466 H 0.55801 0.6182 0.89404 0.0
H2467 H 0.57468 0.62902 0.91267 0.0
H2468 H 0.57575 0.62972 0.93672 0.0
C2469 C 0.60476 0.63717 0.97796 0.0
C2470 C 0.60155 0.61843 0.94492 0.0
C2471 C 0.6131 0.64316 0.98955 0.0
C2472 C 0.56081 0.61192 0.89974 0.0
C2473 C 0.57031 0.61808 0.91047 0.0
C2474 C 0.58301 0.62657 0.9387 0.0
C2475 C 0.60975 0.63423 0.96596 0.0
C2476 C 0.60091 0.6283 0.95349 0.0
C2477 C 0.5741 0.61024 0.91819 0.0
C2478 C 0.58357 0.61663 0.93018 0.0
H2479 H 0.64193 0.64525 0.97731 0.0
H2480 H 0.6275 0.63519 0.95689 0.0
H2481 H 0.59099 0.64014 0.95632 0.0
H2482 H 0.55503 0.57921 0.90121 0.0
H2483 H 0.57108 0.58977 0.92033 0.0
C2484 C 0.00354 0.64293 0.97408 0.0
C2485 C 0.01544 0.65062 0.98213 0.0
C2486 C 0.0032 0.63473 0.96293 0.0
C2487 C 0.02526 0.62998 0.93874 0.0
H2488 H 0.99346 0.59341 0.93292 0.0
C2489 C 0.02371 0.59083 0.89846 0.0
C2490 C 0.01166 0.58306 0.89069 0.0
C2491 C 0.02423 0.59901 0.9097 0.0
C2492 C 0.00235 0.60365 0.93432 0.0
H2493 H 0.03633 0.65574 0.98466 0.0
H2494 H 0.03567 0.64135 0.96525 0.0
H2495 H 0.99432 0.60787 0.95238 0.0
H2496 H 0.99085 0.5781 0.8883 0.0
H2497 H 0.99175 0.59248 0.90791 0.0
H2498 H 0.03329 0.62577 0.92066 0.0
C2499 C 0.02666 0.64179 0.96751 0.0
C2500 C 0.00284 0.61194 0.94547 0.0
C2501 C 0.02701 0.64999 0.97868 0.0
C2502 C 1.0002 0.58381 0.89426 0.0
C2503 C 0.00071 0.592 0.9055 0.0
C2504 C 0.02477 0.6217 0.92759 0.0
C2505 C 0.01474 0.63404 0.95955 0.0
C2506 C 0.01429 0.6252 0.94778 0.0
C2507 C 0.01273 0.59969 0.91335 0.0
C2508 C 0.0133 0.60845 0.92525 0.0
H2509 H 0.99444 0.64319 0.97637 0.0
H2510 H 0.99392 0.62904 0.95687 0.0
H2511 H 0.03414 0.64023 0.94014 0.0
H2512 H 0.03274 0.59056 0.89582 0.0
H2513 H 0.0336 0.60471 0.91561 0.0
C2514 C 0.37371 0.37517 0.95128 0.0
C2515 C 0.36724 0.37484 0.96366 0.0
C2516 C 0.37773 0.38602 0.94234 0.0
C2517 C 0.38682 0.42221 0.94112 0.0
H2518 H 0.37955 0.41419 0.90211 0.0
C2519 C 0.39648 0.46419 0.90237 0.0
C2520 C 0.40092 0.4631 0.8892 0.0
C2521 C 0.39279 0.45373 0.91176 0.0
C2522 C 0.38186 0.41665 0.91294 0.0
H2523 H 0.35992 0.38572 0.9763 0.0
H2524 H 0.36703 0.40472 0.96065 0.0
H2525 H 0.37203 0.39527 0.9178 0.0
H2526 H 0.40545 0.45047 0.87573 0.0
H2527 H 0.39944 0.43244 0.89221 0.0
H2528 H 0.39683 0.44359 0.93627 0.0
C2529 C 0.36901 0.39656 0.95794 0.0
C2530 C 0.37749 0.40579 0.92193 0.0
C2531 C 0.36485 0.38563 0.96685 0.0
C2532 C 0.40201 0.45156 0.88578 0.0
C2533 C 0.39844 0.44117 0.8952 0.0
C2534 C 0.3913 0.4331 0.9321 0.0
C2535 C 0.37548 0.39686 0.94559 0.0
C2536 C 0.37994 0.40844 0.93611 0.0
C2537 C 0.39355 0.44199 0.90822 0.0
C2538 C 0.3889 0.43046 0.91789 0.0
H2539 H 0.37569 0.36704 0.94847 0.0
H2540 H 0.38281 0.38603 0.93295 0.0
H2541 H 0.38899 0.42457 0.95199 0.0
H2542 H 0.39553 0.47297 0.90525 0.0
H2543 H 0.38895 0.45467 0.92163 0.0
C2544 C 0.64636 0.01608 0.9639 0.0
C2545 C 0.64419 0.0075 0.97497 0.0
C2546 C 0.6363 0.01231 0.95389 0.0
C2547 C 0.60438 0.98309 0.9391 0.0
H2548 H 0.59958 0.01268 0.92684 0.0
C2549 C 0.56063 0.97401 0.90225 0.0
C2550 C 0.56448 0.98324 0.89143 0.0
C2551 C 0.56976 0.97648 0.91297 0.0
C2552 C 0.60085 0.00432 0.93008 0.0
H2553 H 0.62989 0.98792 0.9839 0.0
H2554 H 0.61215 0.98137 0.96643 0.0
H2555 H 0.61667 0.01754 0.94433 0.0
H2556 H 0.5809 0.00222 0.88333 0.0
H2557 H 0.5968 0.0066 0.90206 0.0
H2558 H 0.58846 0.96988 0.92478 0.0
C2559 C 0.62173 0.991 0.96548 0.0
C2560 C 0.61067 0.0071 0.94009 0.0
C2561 C 0.63188 0.99476 0.97549 0.0
C2562 C 0.5776 0.99502 0.8916 0.0
C2563 C 0.58669 0.99753 0.90234 0.0
C2564 C 0.59448 0.98029 0.92909 0.0
C2565 C 0.62373 0.99989 0.95472 0.0
C2566 C 0.61273 0.99658 0.94457 0.0
C2567 C 0.5829 0.98827 0.91312 0.0
C2568 C 0.59276 0.99094 0.92434 0.0
H2569 H 0.6558 0.02587 0.96304 0.0
H2570 H 0.63835 0.01922 0.94555 0.0
H2571 H 0.60575 0.97477 0.94226 0.0
H2572 H 0.55059 0.96482 0.90232 0.0
H2573 H 0.56653 0.96922 0.92118 0.0
C2574 C 0.6488 0.03182 0.04453 0.0
C2575 C 0.64923 0.02003 0.04038 0.0
C2576 C 0.64072 0.03134 0.05549 0.0
C2577 C 0.61088 0.0068 0.07533 0.0
H2578 H 0.62384 0.03759 0.10154 0.0
C2579 C 0.58182 0.00385 0.12474 0.0
C2580 C 0.58094 0.01546 0.12846 0.0
C2581 C 0.59019 0.00445 0.11402 0.0
C2582 C 0.62001 0.02897 0.09421 0.0
H2583 H 0.64164 0.99853 0.04478 0.0
H2584 H 0.62769 0.99777 0.06398 0.0
H2585 H 0.63855 0.03856 0.08297 0.0
H2586 H 0.58841 0.0369 0.12416 0.0
H2587 H 0.60293 0.03791 0.10529 0.0
H2588 H 0.59235 0.99721 0.08658 0.0
C2589 C 0.63344 0.00733 0.05859 0.0
C2590 C 0.62845 0.02952 0.08358 0.0
C2591 C 0.64151 0.0078 0.04762 0.0
C2592 C 0.58876 0.02775 0.12138 0.0
C2593 C 0.59716 0.02835 0.11067 0.0
C2594 C 0.60245 0.00624 0.08597 0.0
C2595 C 0.63287 0.01906 0.06259 0.0
C2596 C 0.62398 0.01844 0.074 0.0
C2597 C 0.59796 0.0167 0.10687 0.0
C2598 C 0.60692 0.01733 0.09553 0.0
H2599 H 0.65456 0.04141 0.03919 0.0
H2600 H 0.64039 0.04052 0.05821 0.0
H2601 H 0.60703 0.99819 0.068 0.0
H2602 H 0.57608 0.99433 0.13018 0.0
H2603 H 0.59075 0.99536 0.1115 0.0
C2604 C 0.0076 0.65032 0.05974 0.0
C2605 C 0.00145 0.64681 0.04667 0.0
C2606 C 0.00388 0.64024 0.06952 0.0
C2607 C 0.97856 0.60347 0.07739 0.0
H2608 H 0.00845 0.608 0.0999 0.0
C2609 C 0.97091 0.56722 0.12192 0.0
C2610 C 0.98159 0.56503 0.12519 0.0
C2611 C 0.97258 0.57659 0.11191 0.0
C2612 C 0.99999 0.60641 0.09358 0.0
H2613 H 0.98627 0.63011 0.03368 0.0
H2614 H 0.98013 0.61232 0.05055 0.0
H2615 H 0.01244 0.62542 0.08364 0.0
H2616 H 0.00172 0.56977 0.1194 0.0
H2617 H 0.00447 0.58568 0.10161 0.0
H2618 H 0.96628 0.58405 0.08693 0.0
C2619 C 0.98758 0.62292 0.05343 0.0
C2620 C 0.00223 0.6166 0.0844 0.0
C2621 C 0.99111 0.6331 0.04373 0.0
C2622 C 0.9935 0.5716 0.11744 0.0
C2623 C 0.99509 0.58079 0.1073 0.0
C2624 C 0.97635 0.59314 0.08647 0.0
C2625 C 0.99416 0.6263 0.06636 0.0
C2626 C 0.99155 0.61535 0.07622 0.0
C2627 C 0.9848 0.58371 0.10464 0.0
C2628 C 0.98705 0.59448 0.09471 0.0
H2629 H 0.01548 0.66087 0.06233 0.0
H2630 H 0.00886 0.64337 0.07949 0.0
H2631 H 0.97004 0.60216 0.07137 0.0
H2632 H 0.96137 0.56203 0.12728 0.0
H2633 H 0.96441 0.57853 0.11018 0.0
C2634 C 0.38035 0.37297 0.03288 0.0
C2635 C 0.37947 0.36156 0.02573 0.0
C2636 C 0.38888 0.37879 0.04445 0.0
C2637 C 0.418 0.37932 0.06203 0.0
H2638 H 0.40771 0.39414 0.09291 0.0
C2639 C 0.45288 0.40181 0.10957 0.0
C2640 C 0.44661 0.39899 0.12246 0.0
C2641 C 0.44524 0.39935 0.09757 0.0
C2642 C 0.41071 0.38994 0.08443 0.0
H2643 H 0.3864 0.34698 0.02539 0.0
H2644 H 0.4007 0.35665 0.04574 0.0
H2645 H 0.39296 0.38501 0.07271 0.0
H2646 H 0.42749 0.3916 0.13281 0.0
H2647 H 0.41401 0.38662 0.1119 0.0
H2648 H 0.43524 0.38335 0.07398 0.0
C2649 C 0.39532 0.36154 0.04219 0.0
C2650 C 0.40232 0.38488 0.07272 0.0
C2651 C 0.38701 0.3559 0.03055 0.0
C2652 C 0.43259 0.39393 0.12303 0.0
C2653 C 0.4249 0.39119 0.11102 0.0
C2654 C 0.42625 0.38415 0.07378 0.0
C2655 C 0.39654 0.37319 0.04921 0.0
C2656 C 0.40577 0.37933 0.06142 0.0
C2657 C 0.43107 0.39364 0.09808 0.0
C2658 C 0.42268 0.38942 0.08522 0.0
H2659 H 0.37469 0.37759 0.02938 0.0
H2660 H 0.38964 0.38783 0.04948 0.0
H2661 H 0.42121 0.37545 0.05344 0.0
H2662 H 0.46365 0.40569 0.10868 0.0
H2663 H 0.45045 0.40172 0.08786 0.0
C2664 C 0.63904 0.69907 0.36438 0.0
C2665 C 0.64827 0.69445 0.36511 0.0
C2666 C 0.63699 0.70554 0.37571 0.0
C2667 C 0.65129 0.72227 0.40989 0.0
H2668 H 0.6144 0.71399 0.41541 0.0
C2669 C 0.61606 0.73007 0.45301 0.0
C2670 C 0.62511 0.74382 0.45731 0.0
C2671 C 0.61939 0.72397 0.44228 0.0
C2672 C 0.62474 0.7163 0.41417 0.0
H2673 H 0.66277 0.69322 0.37826 0.0
H2674 H 0.65885 0.70413 0.39829 0.0
H2675 H 0.61932 0.70348 0.39603 0.0
H2676 H 0.64517 0.76171 0.45423 0.0
H2677 H 0.65077 0.7513 0.43508 0.0
H2678 H 0.65655 0.73468 0.42841 0.0
C2679 C 0.65341 0.70302 0.38883 0.0
C2680 C 0.62762 0.71044 0.40287 0.0
C2681 C 0.65562 0.69671 0.37738 0.0
C2682 C 0.63782 0.7512 0.45094 0.0
C2683 C 0.6411 0.74515 0.44007 0.0
C2684 C 0.64837 0.72804 0.42131 0.0
C2685 C 0.64392 0.70736 0.38819 0.0
C2686 C 0.64095 0.71344 0.40048 0.0
C2687 C 0.63187 0.73149 0.43551 0.0
C2688 C 0.63506 0.72517 0.42356 0.0
H2689 H 0.63338 0.69768 0.355 0.0
H2690 H 0.6299 0.70908 0.37468 0.0
H2691 H 0.66169 0.72491 0.40834 0.0
H2692 H 0.60635 0.72403 0.45799 0.0
H2693 H 0.61218 0.71331 0.43933 0.0
C2694 C 0.30425 0.95764 0.38904 0.0
C2695 C 0.30112 0.96812 0.39041 0.0
C2696 C 0.29913 0.94689 0.39827 0.0
C2697 C 0.28434 0.937 0.43279 0.0
H2698 H 0.26962 0.89961 0.41823 0.0
C2699 C 0.25208 0.88922 0.46546 0.0
C2700 C 0.25418 0.87806 0.46384 0.0
C2701 C 0.25819 0.90029 0.45663 0.0
C2702 C 0.27384 0.91 0.42249 0.0
H2703 H 0.29032 0.97558 0.40277 0.0
H2704 H 0.28135 0.95679 0.41878 0.0
H2705 H 0.27981 0.91888 0.40273 0.0
H2706 H 0.26476 0.87003 0.45205 0.0
H2707 H 0.2755 0.88941 0.43662 0.0
H2708 H 0.27833 0.92812 0.45254 0.0
C2709 C 0.28786 0.95696 0.41062 0.0
C2710 C 0.27969 0.92105 0.4136 0.0
C2711 C 0.29295 0.9677 0.40138 0.0
C2712 C 0.26274 0.87835 0.45336 0.0
C2713 C 0.26886 0.88943 0.44451 0.0
C2714 C 0.27851 0.92596 0.44168 0.0
C2715 C 0.2908 0.94637 0.40911 0.0
C2716 C 0.28495 0.93467 0.41864 0.0
C2717 C 0.26665 0.90053 0.44604 0.0
C2718 C 0.27312 0.91231 0.43663 0.0
H2719 H 0.31054 0.95764 0.38075 0.0
H2720 H 0.30174 0.93899 0.39694 0.0
H2721 H 0.28849 0.94739 0.43702 0.0
H2722 H 0.24571 0.88937 0.47359 0.0
H2723 H 0.25618 0.90861 0.45801 0.0
C2724 C 0.04255 0.33034 0.39026 0.0
C2725 C 0.0417 0.33817 0.37977 0.0
C2726 C 0.05331 0.33637 0.39976 0.0
C2727 C 0.0803 0.36998 0.41454 0.0
H2728 H 0.09681 0.34889 0.42459 0.0
C2729 C 0.12985 0.39343 0.44717 0.0
C2730 C 0.13024 0.38509 0.45737 0.0
C2731 C 0.11917 0.38797 0.43756 0.0
C2732 C 0.09223 0.35486 0.42199 0.0
H2733 H 0.05146 0.35862 0.37125 0.0
H2734 H 0.07028 0.36908 0.38778 0.0
H2735 H 0.07787 0.33894 0.40824 0.0
H2736 H 0.11943 0.36468 0.46588 0.0
H2737 H 0.10082 0.35512 0.44909 0.0
H2738 H 0.09473 0.38592 0.42831 0.0
C2739 C 0.06254 0.35829 0.38871 0.0
C2740 C 0.08136 0.34915 0.41264 0.0
C2741 C 0.05176 0.35226 0.37919 0.0
C2742 C 0.11957 0.37126 0.45793 0.0
C2743 C 0.10893 0.36579 0.44831 0.0
C2744 C 0.09121 0.37571 0.4239 0.0
C2745 C 0.0635 0.35038 0.39902 0.0
C2746 C 0.0752 0.3566 0.40885 0.0
C2747 C 0.10861 0.37407 0.43799 0.0
C2748 C 0.09725 0.36818 0.42779 0.0
H2749 H 0.03496 0.31948 0.39109 0.0
H2750 H 0.05361 0.33003 0.40771 0.0
H2751 H 0.0757 0.37593 0.41196 0.0
H2752 H 0.13782 0.40419 0.44665 0.0
H2753 H 0.11925 0.3946 0.4297 0.0
C2754 C 0.04068 0.327 0.30814 0.0
C2755 C 0.03151 0.31597 0.31624 0.0
C2756 C 0.04718 0.32471 0.2971 0.0
C2757 C 0.05635 0.29959 0.284 0.0
H2758 H 0.06018 0.3167 0.24904 0.0
C2759 C 0.07068 0.28085 0.23504 0.0
C2760 C 0.08022 0.29089 0.22634 0.0
C2761 C 0.06533 0.28463 0.24602 0.0
C2762 C 0.05933 0.31197 0.2588 0.0
H2763 H 0.02179 0.29382 0.31878 0.0
H2764 H 0.03293 0.28989 0.29957 0.0
H2765 H 0.0498 0.32214 0.26823 0.0
H2766 H 0.09126 0.31271 0.22201 0.0
H2767 H 0.08196 0.31938 0.24132 0.0
H2768 H 0.06572 0.28932 0.27459 0.0
C2769 C 0.03533 0.30034 0.30189 0.0
C2770 C 0.0534 0.3151 0.26979 0.0
C2771 C 0.02887 0.30261 0.31289 0.0
C2772 C 0.08406 0.30479 0.22868 0.0
C2773 C 0.07867 0.30858 0.23965 0.0
C2774 C 0.06224 0.29646 0.27305 0.0
C2775 C 0.04465 0.31136 0.29394 0.0
C2776 C 0.05168 0.30879 0.28246 0.0
C2777 C 0.0693 0.29854 0.24849 0.0
C2778 C 0.06364 0.30247 0.26027 0.0
H2779 H 0.04295 0.33742 0.31041 0.0
H2780 H 0.05436 0.33343 0.2912 0.0
H2781 H 0.05545 0.29478 0.29372 0.0
H2782 H 0.06735 0.27004 0.23333 0.0
H2783 H 0.05794 0.27663 0.25248 0.0
C2784 C 0.6855 0.71215 0.30605 0.0
C2785 C 0.67183 0.70186 0.30351 0.0
C2786 C 0.6924 0.72301 0.29703 0.0
C2787 C 0.69095 0.7335 0.26166 0.0
H2788 H 0.71191 0.7708 0.27715 0.0
C2789 C 0.706 0.78117 0.22961 0.0
C2790 C 0.71906 0.79286 0.23163 0.0
C2791 C 0.70117 0.77002 0.2383 0.0
C2792 C 0.70626 0.76044 0.27265 0.0
H2793 H 0.65486 0.69477 0.28924 0.0
H2794 H 0.66682 0.71365 0.27367 0.0
H2795 H 0.70211 0.75122 0.29233 0.0
H2796 H 0.73744 0.80184 0.24408 0.0
H2797 H 0.72898 0.78232 0.25933 0.0
H2798 H 0.69492 0.74271 0.24202 0.0
C2799 C 0.67226 0.7133 0.28256 0.0
C2800 C 0.70065 0.74922 0.28135 0.0
C2801 C 0.66536 0.70251 0.29157 0.0
C2802 C 0.72724 0.79307 0.24244 0.0
C2803 C 0.72239 0.78191 0.25116 0.0
C2804 C 0.69654 0.74471 0.25298 0.0
C2805 C 0.68581 0.72376 0.28524 0.0
C2806 C 0.69276 0.73563 0.27597 0.0
C2807 C 0.70931 0.77024 0.24917 0.0
C2808 C 0.70408 0.75832 0.25838 0.0
H2809 H 0.69081 0.71198 0.31513 0.0
H2810 H 0.70289 0.73085 0.2993 0.0
H2811 H 0.68513 0.72316 0.25717 0.0
H2812 H 0.69954 0.78065 0.22125 0.0
H2813 H 0.69098 0.76126 0.23657 0.0
C2814 C 0.27631 0.97477 0.3277 0.0
C2815 C 0.28966 0.97737 0.32775 0.0
C2816 C 0.26791 0.96876 0.31615 0.0
C2817 C 0.26439 0.94972 0.28314 0.0
H2818 H 0.23937 0.96194 0.27466 0.0
C2819 C 0.22508 0.94502 0.23722 0.0
C2820 C 0.21914 0.93097 0.23349 0.0
C2821 C 0.23427 0.95078 0.24824 0.0
C2822 C 0.24642 0.95853 0.27672 0.0
H2823 H 0.30468 0.97567 0.31574 0.0
H2824 H 0.2902 0.96566 0.29536 0.0
H2825 H 0.25438 0.97189 0.29447 0.0
H2826 H 0.21881 0.91208 0.238 0.0
H2827 H 0.23426 0.92192 0.25762 0.0
H2828 H 0.25683 0.93681 0.26499 0.0
C2829 C 0.28606 0.9679 0.30437 0.0
C2830 C 0.25489 0.96407 0.28828 0.0
C2831 C 0.2944 0.97371 0.31604 0.0
C2832 C 0.22295 0.92288 0.24077 0.0
C2833 C 0.23198 0.92859 0.25194 0.0
C2834 C 0.25604 0.9443 0.27145 0.0
C2835 C 0.27272 0.96544 0.30424 0.0
C2836 C 0.26391 0.95966 0.29173 0.0
C2837 C 0.23767 0.94259 0.2559 0.0
C2838 C 0.24688 0.94858 0.26813 0.0
H2839 H 0.27229 0.9773 0.33663 0.0
H2840 H 0.2576 0.9667 0.3166 0.0
H2841 H 0.2711 0.94595 0.28552 0.0
H2842 H 0.22257 0.95155 0.23159 0.0
H2843 H 0.23871 0.96168 0.25071 0.0
C2844 C 0.70398 0.97846 0.31862 0.0
C2845 C 0.69057 0.97262 0.32323 0.0
C2846 C 0.70695 0.97267 0.30734 0.0
C2847 C 0.69119 0.94864 0.27717 0.0
H2848 H 0.72618 0.95121 0.27687 0.0
C2849 C 0.71404 0.94041 0.22765 0.0
C2850 C 0.72316 0.93567 0.22851 0.0
C2851 C 0.70869 0.94292 0.23949 0.0
C2852 C 0.71624 0.95012 0.27681 0.0
H2853 H 0.66973 0.95608 0.31959 0.0
H2854 H 0.67497 0.94563 0.30012 0.0
H2855 H 0.71942 0.95901 0.29704 0.0
H2856 H 0.73345 0.92939 0.24261 0.0
H2857 H 0.72354 0.93298 0.26316 0.0
H2858 H 0.68781 0.93924 0.25709 0.0
C2859 C 0.68317 0.9549 0.30504 0.0
C2860 C 0.71246 0.95488 0.28835 0.0
C2861 C 0.68016 0.96086 0.31624 0.0
C2862 C 0.72641 0.93298 0.24151 0.0
C2863 C 0.72083 0.93522 0.25335 0.0
C2864 C 0.69488 0.94366 0.26568 0.0
C2865 C 0.69664 0.96071 0.30048 0.0
C2866 C 0.70004 0.95451 0.28858 0.0
C2867 C 0.71218 0.94057 0.25255 0.0
C2868 C 0.70758 0.94459 0.26523 0.0
H2869 H 0.71222 0.98765 0.32365 0.0
H2870 H 0.71737 0.97771 0.30393 0.0
H2871 H 0.68156 0.94823 0.27691 0.0
H2872 H 0.71147 0.94268 0.21777 0.0
H2873 H 0.70226 0.94724 0.23839 0.0
C2874 C 0.03148 0.72329 0.31037 0.0
C2875 C 0.0339 0.7125 0.30739 0.0
C2876 C 0.03514 0.73383 0.30105 0.0
C2877 C 0.0422 0.74161 0.26452 0.0
H2878 H 0.06249 0.77995 0.27721 0.0
C2879 C 0.06686 0.78562 0.22636 0.0
C2880 C 0.06637 0.79759 0.22927 0.0
C2881 C 0.0631 0.77558 0.23622 0.0
C2882 C 0.05667 0.7693 0.27351 0.0
H2883 H 0.04183 0.70421 0.29214 0.0
H2884 H 0.04808 0.72247 0.27592 0.0
H2885 H 0.05487 0.76161 0.29374 0.0
H2886 H 0.06178 0.80856 0.24486 0.0
H2887 H 0.05489 0.79088 0.26203 0.0
H2888 H 0.04379 0.74917 0.24434 0.0
C2889 C 0.04337 0.7228 0.28546 0.0
C2890 C 0.05232 0.7588 0.28299 0.0
C2891 C 0.03986 0.71238 0.2948 0.0
C2892 C 0.06228 0.79943 0.24236 0.0
C2893 C 0.05841 0.78933 0.25221 0.0
C2894 C 0.04644 0.75208 0.25506 0.0
C2895 C 0.04112 0.73368 0.28849 0.0
C2896 C 0.04516 0.74485 0.27857 0.0
C2897 C 0.0586 0.77718 0.2492 0.0
C2898 C 0.05386 0.76607 0.2594 0.0
H2899 H 0.02692 0.72371 0.31997 0.0
H2900 H 0.0332 0.74203 0.30361 0.0
H2901 H 0.03651 0.73094 0.26083 0.0
H2902 H 0.07 0.78394 0.21637 0.0
H2903 H 0.06367 0.76652 0.23363 0.0
C2904 C 0.28564 0.31765 0.3076 0.0
C2905 C 0.29673 0.33092 0.30506 0.0
C2906 C 0.2752 0.31061 0.29779 0.0
C2907 C 0.26795 0.30924 0.26081 0.0
H2908 H 0.23022 0.2923 0.27142 0.0
C2909 C 0.22553 0.29149 0.2203 0.0
C2910 C 0.21333 0.27894 0.22218 0.0
C2911 C 0.23528 0.29747 0.23083 0.0
C2912 C 0.24069 0.29682 0.2683 0.0
H2913 H 0.30559 0.34705 0.29009 0.0
H2914 H 0.28751 0.33476 0.27308 0.0
H2915 H 0.24818 0.30287 0.28899 0.0
H2916 H 0.20164 0.26293 0.23664 0.0
H2917 H 0.21878 0.27325 0.25503 0.0
H2918 H 0.2606 0.30317 0.24018 0.0
C2919 C 0.28688 0.3298 0.28262 0.0
C2920 C 0.25097 0.30287 0.27837 0.0
C2921 C 0.29721 0.33688 0.29243 0.0
C2922 C 0.21095 0.27264 0.23495 0.0
C2923 C 0.22075 0.27859 0.24548 0.0
C2924 C 0.25771 0.30313 0.25077 0.0
C2925 C 0.27573 0.31661 0.28519 0.0
C2926 C 0.26472 0.30931 0.2747 0.0
C2927 C 0.23313 0.29099 0.24348 0.0
C2928 C 0.24395 0.29701 0.25434 0.0
H2929 H 0.28494 0.31277 0.31722 0.0
H2930 H 0.26677 0.30041 0.30001 0.0
H2931 H 0.27844 0.31391 0.25768 0.0
H2932 H 0.22765 0.29658 0.21058 0.0
H2933 H 0.24456 0.30717 0.22901 0.0
C2934 C 0.30281 0.34812 0.37858 0.0
C2935 C 0.30861 0.35783 0.36818 0.0
C2936 C 0.29752 0.35098 0.39034 0.0
C2937 C 0.30011 0.38039 0.41058 0.0
H2938 H 0.26631 0.35267 0.42667 0.0
C2939 C 0.27486 0.3945 0.45383 0.0
C2940 C 0.26949 0.38546 0.46479 0.0
C2941 C 0.27897 0.39063 0.44188 0.0
C2942 C 0.27583 0.36048 0.42237 0.0
H2943 H 0.31304 0.37802 0.3619 0.0
H2944 H 0.30376 0.38287 0.3822 0.0
H2945 H 0.2748 0.3467 0.40621 0.0
H2946 H 0.26442 0.36539 0.47193 0.0
H2947 H 0.27167 0.35863 0.45107 0.0
H2948 H 0.30122 0.39416 0.42669 0.0
C2949 C 0.30351 0.37317 0.38142 0.0
C2950 C 0.2807 0.35706 0.41066 0.0
C2951 C 0.30878 0.37033 0.36972 0.0
C2952 C 0.2683 0.37246 0.46354 0.0
C2953 C 0.27242 0.36859 0.45159 0.0
C2954 C 0.29527 0.3838 0.42226 0.0
C2955 C 0.29795 0.36361 0.39194 0.0
C2956 C 0.29285 0.36701 0.40458 0.0
C2957 C 0.27794 0.37769 0.44067 0.0
C2958 C 0.28303 0.37393 0.42825 0.0
H2959 H 0.30251 0.3384 0.37776 0.0
H2960 H 0.29339 0.34344 0.3983 0.0
H2961 H 0.30965 0.38822 0.40633 0.0
H2962 H 0.27607 0.40465 0.45458 0.0
H2963 H 0.28303 0.39783 0.4336 0.0
C2964 C 0.6521 0.94989 0.38283 0.0
C2965 C 0.6653 0.96112 0.38561 0.0
C2966 C 0.64546 0.93943 0.3923 0.0
C2967 C 0.64496 0.93257 0.42894 0.0
H2968 H 0.62602 0.89402 0.41693 0.0
C2969 C 0.62256 0.88925 0.46797 0.0
C2970 C 0.60974 0.87759 0.46492 0.0
C2971 C 0.62971 0.89897 0.45799 0.0
C2972 C 0.63113 0.90473 0.42044 0.0
H2973 H 0.68182 0.97014 0.40061 0.0
H2974 H 0.67019 0.95196 0.41712 0.0
H2975 H 0.63749 0.91201 0.40013 0.0
H2976 H 0.59447 0.86677 0.44896 0.0
H2977 H 0.60677 0.8839 0.43157 0.0
H2978 H 0.63843 0.92542 0.44917 0.0
C2979 C 0.66498 0.95127 0.40762 0.0
C2980 C 0.63771 0.91503 0.41081 0.0
C2981 C 0.67167 0.96166 0.39812 0.0
C2982 C 0.60435 0.87567 0.45157 0.0
C2983 C 0.61145 0.88545 0.4416 0.0
C2984 C 0.6383 0.92229 0.43854 0.0
C2985 C 0.65182 0.94003 0.40481 0.0
C2986 C 0.64473 0.92906 0.41497 0.0
C2987 C 0.62414 0.89734 0.44474 0.0
C2988 C 0.63133 0.90823 0.43444 0.0
H2989 H 0.64689 0.94912 0.3733 0.0
H2990 H 0.63527 0.93096 0.3899 0.0
H2991 H 0.65011 0.9433 0.43242 0.0
H2992 H 0.62698 0.89098 0.47816 0.0
H2993 H 0.63957 0.90783 0.46071 0.0
C2994 C 0.04673 0.71151 0.37785 0.0
C2995 C 0.04567 0.69991 0.37094 0.0
C2996 C 0.05533 0.71743 0.38937 0.0
C2997 C 0.08484 0.71824 0.40596 0.0
H2998 H 0.07539 0.73252 0.43793 0.0
C2999 C 0.12038 0.73819 0.45281 0.0
C3000 C 0.11417 0.73439 0.46569 0.0
C3001 C 0.11273 0.73691 0.44116 0.0
C3002 C 0.07817 0.72851 0.4291 0.0
H3003 H 0.05207 0.68491 0.37115 0.0
H3004 H 0.06652 0.69481 0.39133 0.0
H3005 H 0.0601 0.72377 0.418 0.0
H3006 H 0.09522 0.72669 0.47646 0.0
H3007 H 0.0817 0.72372 0.45606 0.0
H3008 H 0.10236 0.72202 0.41718 0.0
C3009 C 0.06126 0.69977 0.38762 0.0
C3010 C 0.06946 0.72366 0.41761 0.0
C3011 C 0.05287 0.69401 0.37608 0.0
C3012 C 0.10026 0.72972 0.46667 0.0
C3013 C 0.09254 0.72815 0.45497 0.0
C3014 C 0.0934 0.72289 0.41746 0.0
C3015 C 0.06287 0.71174 0.39423 0.0
C3016 C 0.07257 0.71817 0.40602 0.0
C3017 C 0.09861 0.73141 0.44199 0.0
C3018 C 0.0901 0.72789 0.42929 0.0
H3019 H 0.04128 0.71626 0.37409 0.0
H3020 H 0.05634 0.72666 0.39422 0.0
H3021 H 0.08775 0.71442 0.39709 0.0
H3022 H 0.13108 0.74184 0.45162 0.0
H3023 H 0.11786 0.73988 0.43142 0.0
C3024 C 0.32371 0.03529 0.71061 0.0
C3025 C 0.31604 0.03206 0.69841 0.0
C3026 C 0.3208 0.04114 0.72196 0.0
C3027 C 0.29319 0.04591 0.73586 0.0
H3028 H 0.32167 0.0726 0.76047 0.0
C3029 C 0.28034 0.06656 0.78456 0.0
C3030 C 0.28891 0.08059 0.78823 0.0
C3031 C 0.28405 0.06031 0.7743 0.0
C3032 C 0.31359 0.06527 0.75362 0.0
H3033 H 0.29975 0.03301 0.68831 0.0
H3034 H 0.29507 0.04369 0.70777 0.0
H3035 H 0.32755 0.063 0.74087 0.0
H3036 H 0.30852 0.0989 0.78448 0.0
H3037 H 0.31467 0.08825 0.76611 0.0
H3038 H 0.27931 0.04868 0.74811 0.0
C3039 C 0.30296 0.04123 0.70886 0.0
C3040 C 0.31695 0.05959 0.74248 0.0
C3041 C 0.30571 0.03519 0.69764 0.0
C3042 C 0.30151 0.08815 0.78169 0.0
C3043 C 0.30513 0.08196 0.77127 0.0
C3044 C 0.28986 0.05172 0.74686 0.0
C3045 C 0.31029 0.04407 0.72127 0.0
C3046 C 0.30679 0.0499 0.73339 0.0
C3047 C 0.29641 0.06798 0.76736 0.0
C3048 C 0.30001 0.06152 0.75588 0.0
H3049 H 0.33169 0.03293 0.71152 0.0
H3050 H 0.32657 0.04305 0.73137 0.0
H3051 H 0.28503 0.03827 0.72928 0.0
H3052 H 0.27073 0.06041 0.78968 0.0
H3053 H 0.27722 0.04944 0.77187 0.0
C3054 C 0.9738 0.28534 0.70773 0.0
C3055 C 0.96979 0.2951 0.70971 0.0
C3056 C 0.97016 0.27489 0.71714 0.0
C3057 C 0.95807 0.26507 0.75266 0.0
H3058 H 0.94242 0.2275 0.73828 0.0
C3059 C 0.92487 0.21794 0.78544 0.0
C3060 C 0.92626 0.20633 0.78388 0.0
C3061 C 0.93153 0.22899 0.77665 0.0
C3062 C 0.94695 0.23795 0.74248 0.0
H3063 H 0.95918 0.30176 0.72343 0.0
H3064 H 0.95285 0.2836 0.73969 0.0
H3065 H 0.95212 0.24663 0.72255 0.0
H3066 H 0.93611 0.19742 0.77222 0.0
H3067 H 0.94778 0.21676 0.75678 0.0
H3068 H 0.95271 0.25641 0.77255 0.0
C3069 C 0.95886 0.28404 0.73092 0.0
C3070 C 0.95253 0.24891 0.73346 0.0
C3071 C 0.96241 0.2944 0.72151 0.0
C3072 C 0.93466 0.20613 0.77349 0.0
C3073 C 0.94132 0.21718 0.76466 0.0
C3074 C 0.95251 0.25413 0.76166 0.0
C3075 C 0.96256 0.27407 0.72879 0.0
C3076 C 0.95792 0.26258 0.73843 0.0
C3077 C 0.93982 0.22873 0.76613 0.0
C3078 C 0.94666 0.24042 0.75665 0.0
H3079 H 0.97951 0.28559 0.69877 0.0
H3080 H 0.97327 0.26743 0.71529 0.0
H3081 H 0.96237 0.27551 0.75683 0.0
H3082 H 0.91861 0.21846 0.79349 0.0
H3083 H 0.93003 0.23765 0.77797 0.0
C3084 C 0.70534 0.66761 0.72179 0.0
C3085 C 0.70425 0.67438 0.71041 0.0
C3086 C 0.71616 0.67454 0.73112 0.0
C3087 C 0.75123 0.704 0.73435 0.0
H3088 H 0.74501 0.69775 0.77329 0.0
C3089 C 0.79422 0.73228 0.77535 0.0
C3090 C 0.79429 0.72428 0.78609 0.0
C3091 C 0.78326 0.72688 0.76607 0.0
C3092 C 0.74695 0.6995 0.76244 0.0
H3093 H 0.71373 0.6939 0.70006 0.0
H3094 H 0.73265 0.70604 0.71643 0.0
H3095 H 0.72576 0.68731 0.7573 0.0
H3096 H 0.78274 0.7045 0.79578 0.0
H3097 H 0.76377 0.69497 0.77945 0.0
H3098 H 0.77246 0.71606 0.73949 0.0
C3099 C 0.72512 0.69529 0.71803 0.0
C3100 C 0.73591 0.69354 0.75328 0.0
C3101 C 0.71423 0.68835 0.70869 0.0
C3102 C 0.78307 0.71083 0.78747 0.0
C3103 C 0.77214 0.70544 0.7782 0.0
C3104 C 0.7623 0.70996 0.74353 0.0
C3105 C 0.72622 0.68844 0.72932 0.0
C3106 C 0.73792 0.69557 0.73911 0.0
C3107 C 0.77206 0.71341 0.76741 0.0
C3108 C 0.7603 0.70764 0.75767 0.0
H3109 H 0.69787 0.65686 0.72347 0.0
H3110 H 0.71679 0.66891 0.7396 0.0
H3111 H 0.75314 0.70565 0.72348 0.0
H3112 H 0.8026 0.74276 0.77421 0.0
H3113 H 0.78344 0.73337 0.758 0.0
C3114 C 0.68989 0.63596 0.64416 0.0
C3115 C 0.69234 0.64924 0.6475 0.0
C3116 C 0.6965 0.63383 0.63322 0.0
C3117 C 0.71511 0.64874 0.60136 0.0
H3118 H 0.72801 0.62358 0.60721 0.0
C3119 C 0.74699 0.63862 0.56146 0.0
C3120 C 0.74332 0.62474 0.5594 0.0
C3121 C 0.74132 0.64245 0.57216 0.0
C3122 C 0.72438 0.63055 0.60537 0.0
H3123 H 0.70346 0.67068 0.64164 0.0
H3124 H 0.71515 0.66694 0.62251 0.0
H3125 H 0.71714 0.62887 0.62584 0.0
H3126 H 0.73048 0.60396 0.56657 0.0
H3127 H 0.72062 0.61061 0.58522 0.0
H3128 H 0.72237 0.65033 0.58081 0.0
C3129 C 0.70801 0.65817 0.62838 0.0
C3130 C 0.71814 0.63358 0.61605 0.0
C3131 C 0.70134 0.66032 0.63937 0.0
C3132 C 0.7337 0.61476 0.56808 0.0
C3133 C 0.72808 0.61858 0.57877 0.0
C3134 C 0.72141 0.64571 0.59065 0.0
C3135 C 0.7058 0.64492 0.62532 0.0
C3136 C 0.71322 0.64252 0.61412 0.0
C3137 C 0.73187 0.63247 0.58098 0.0
C3138 C 0.72592 0.63641 0.59249 0.0
H3139 H 0.6829 0.62712 0.65005 0.0
H3140 H 0.6943 0.62344 0.63094 0.0
H3141 H 0.71136 0.6556 0.59953 0.0
H3142 H 0.75424 0.64649 0.55479 0.0
H3143 H 0.74447 0.65323 0.57362 0.0
C3144 C 0.35257 0.05091 0.63793 0.0
C3145 C 0.33885 0.0404 0.63626 0.0
C3146 C 0.35874 0.06147 0.6285 0.0
C3147 C 0.35515 0.0705 0.59318 0.0
H3148 H 0.37756 0.10827 0.60707 0.0
C3149 C 0.37071 0.11723 0.55931 0.0
C3150 C 0.38399 0.12869 0.56086 0.0
C3151 C 0.36578 0.10637 0.56839 0.0
C3152 C 0.37148 0.09777 0.60301 0.0
H3153 H 0.32096 0.03266 0.62315 0.0
H3154 H 0.33169 0.05107 0.60682 0.0
H3155 H 0.36806 0.08937 0.62303 0.0
H3156 H 0.40265 0.1375 0.57282 0.0
H3157 H 0.39405 0.11849 0.5887 0.0
H3158 H 0.35847 0.0789 0.57317 0.0
C3159 C 0.33772 0.05109 0.61536 0.0
C3160 C 0.36604 0.08693 0.61216 0.0
C3161 C 0.33154 0.04057 0.62479 0.0
C3162 C 0.3923 0.12892 0.57154 0.0
C3163 C 0.38736 0.11805 0.58064 0.0
C3164 C 0.36059 0.08133 0.58404 0.0
C3165 C 0.35136 0.06172 0.61714 0.0
C3166 C 0.35771 0.07318 0.60736 0.0
C3167 C 0.37404 0.10665 0.57916 0.0
C3168 C 0.36871 0.0951 0.58885 0.0
H3169 H 0.35853 0.0511 0.64661 0.0
H3170 H 0.36932 0.06941 0.63007 0.0
H3171 H 0.34896 0.06001 0.58914 0.0
H3172 H 0.36415 0.11668 0.55105 0.0
H3173 H 0.35543 0.09781 0.56704 0.0
C3174 C 0.94142 0.29363 0.64695 0.0
C3175 C 0.95565 0.30056 0.64638 0.0
C3176 C 0.93351 0.28774 0.63512 0.0
C3177 C 0.9339 0.27761 0.59864 0.0
H3178 H 0.90328 0.28306 0.59626 0.0
C3179 C 0.89215 0.25166 0.55621 0.0
C3180 C 0.88604 0.25893 0.55169 0.0
C3181 C 0.9016 0.25697 0.56705 0.0
C3182 C 0.91188 0.2816 0.59663 0.0
H3183 H 0.97281 0.30625 0.63311 0.0
H3184 H 0.95895 0.29627 0.61219 0.0
H3185 H 0.91787 0.29143 0.61644 0.0
H3186 H 0.88596 0.27799 0.55409 0.0
H3187 H 0.90267 0.28744 0.57278 0.0
H3188 H 0.92805 0.26814 0.57852 0.0
C3189 C 0.95389 0.2952 0.62186 0.0
C3190 C 0.92014 0.28619 0.60835 0.0
C3191 C 0.96183 0.30093 0.63382 0.0
C3192 C 0.89021 0.27199 0.55765 0.0
C3193 C 0.89975 0.27736 0.56838 0.0
C3194 C 0.92565 0.27308 0.58681 0.0
C3195 C 0.93965 0.28887 0.62234 0.0
C3196 C 0.93116 0.28413 0.6096 0.0
C3197 C 0.90534 0.26979 0.57343 0.0
C3198 C 0.9145 0.27497 0.5857 0.0
H3199 H 0.93637 0.29297 0.65655 0.0
H3200 H 0.92256 0.28255 0.63595 0.0
H3201 H 0.94228 0.27582 0.59927 0.0
H3202 H 0.88942 0.24173 0.55156 0.0
H3203 H 0.90567 0.25084 0.57068 0.0
C3204 C 0.36535 0.30554 0.64923 0.0
C3205 C 0.35409 0.30729 0.64987 0.0
C3206 C 0.36729 0.29906 0.63782 0.0
C3207 C 0.35924 0.29198 0.60114 0.0
H3208 H 0.37363 0.26784 0.60523 0.0
C3209 C 0.37341 0.26986 0.55426 0.0
C3210 C 0.38612 0.27092 0.55518 0.0
C3211 C 0.36754 0.27205 0.56589 0.0
C3212 C 0.36965 0.2746 0.60392 0.0
H3213 H 0.3359 0.30337 0.639 0.0
H3214 H 0.33935 0.29205 0.61899 0.0
H3215 H 0.36673 0.27575 0.6255 0.0
H3216 H 0.4027 0.27518 0.56896 0.0
H3217 H 0.39249 0.279 0.58927 0.0
H3218 H 0.3625 0.29114 0.57961 0.0
C3219 C 0.34669 0.29577 0.62737 0.0
C3220 C 0.3657 0.27912 0.61552 0.0
C3221 C 0.34469 0.3022 0.63886 0.0
C3222 C 0.39277 0.27404 0.568 0.0
C3223 C 0.3869 0.27619 0.57963 0.0
C3224 C 0.3632 0.28746 0.58953 0.0
C3225 C 0.35805 0.29419 0.62671 0.0
C3226 C 0.36073 0.2881 0.61429 0.0
C3227 C 0.3743 0.27541 0.57868 0.0
C3228 C 0.36872 0.27895 0.59082 0.0
H3229 H 0.37279 0.30927 0.65752 0.0
H3230 H 0.37626 0.29819 0.63756 0.0
H3231 H 0.35559 0.29901 0.59986 0.0
H3232 H 0.36815 0.26763 0.54446 0.0
H3233 H 0.35778 0.27128 0.56484 0.0
C3234 C 0.71055 0.04144 0.6138 0.0
C3235 C 0.70458 0.04194 0.62625 0.0
C3236 C 0.71436 0.05174 0.60424 0.0
C3237 C 0.72345 0.08779 0.60071 0.0
H3238 H 0.71435 0.07705 0.56232 0.0
C3239 C 0.73053 0.12662 0.55919 0.0
C3240 C 0.73434 0.12464 0.54601 0.0
C3241 C 0.72754 0.11696 0.56932 0.0
C3242 C 0.71718 0.08027 0.57296 0.0
H3243 H 0.69801 0.05379 0.63839 0.0
H3244 H 0.70473 0.07182 0.62165 0.0
H3245 H 0.70771 0.05934 0.57927 0.0
H3246 H 0.73849 0.11128 0.53324 0.0
H3247 H 0.73369 0.09463 0.55099 0.0
H3248 H 0.73305 0.10874 0.59439 0.0
C3249 C 0.70648 0.06343 0.61936 0.0
C3250 C 0.71332 0.0701 0.58268 0.0
C3251 C 0.70255 0.05305 0.62891 0.0
C3252 C 0.73553 0.11304 0.5433 0.0
C3253 C 0.73265 0.10345 0.55344 0.0
C3254 C 0.72741 0.098 0.59096 0.0
C3255 C 0.71239 0.06286 0.60691 0.0
C3256 C 0.71641 0.07374 0.59666 0.0
C3257 C 0.72837 0.10514 0.5665 0.0
C3258 C 0.72434 0.09436 0.57695 0.0
H3259 H 0.71227 0.03305 0.6114 0.0
H3260 H 0.71902 0.05109 0.59479 0.0
H3261 H 0.72611 0.09091 0.61139 0.0
H3262 H 0.72952 0.13547 0.56154 0.0
H3263 H 0.72416 0.11855 0.5792 0.0
C3264 C 0.94721 0.65279 0.63881 0.0
C3265 C 0.95844 0.6662 0.63717 0.0
C3266 C 0.93708 0.64647 0.62864 0.0
C3267 C 0.93098 0.64736 0.59181 0.0
H3268 H 0.8929 0.62828 0.60158 0.0
C3269 C 0.88895 0.62724 0.55038 0.0
C3270 C 0.8773 0.6142 0.55216 0.0
C3271 C 0.89842 0.63385 0.56107 0.0
C3272 C 0.90348 0.63343 0.59868 0.0
H3273 H 0.96781 0.68341 0.62343 0.0
H3274 H 0.95018 0.67235 0.6057 0.0
H3275 H 0.91038 0.639 0.61957 0.0
H3276 H 0.86629 0.59793 0.56657 0.0
H3277 H 0.88296 0.60931 0.5852 0.0
H3278 H 0.9242 0.64165 0.57098 0.0
C3279 C 0.94925 0.66673 0.61486 0.0
C3280 C 0.91349 0.63958 0.60899 0.0
C3281 C 0.95932 0.67309 0.62506 0.0
C3282 C 0.87516 0.60801 0.56496 0.0
C3283 C 0.88469 0.61458 0.57563 0.0
C3284 C 0.921 0.64114 0.58152 0.0
C3285 C 0.93801 0.65337 0.61654 0.0
C3286 C 0.92735 0.64666 0.60566 0.0
C3287 C 0.89654 0.6275 0.57376 0.0
C3288 C 0.90712 0.63415 0.5848 0.0
H3289 H 0.94618 0.64718 0.64801 0.0
H3290 H 0.9286 0.63612 0.63017 0.0
H3291 H 0.94158 0.65255 0.58893 0.0
H3292 H 0.89085 0.63225 0.54064 0.0
H3293 H 0.90727 0.64391 0.55935 0.0
C3294 C 0.96835 0.70257 0.70221 0.0
C3295 C 0.96778 0.68985 0.70092 0.0
C3296 C 0.96319 0.70576 0.71375 0.0
C3297 C 0.94043 0.69098 0.74322 0.0
H3298 H 0.96279 0.72816 0.75865 0.0
C3299 C 0.93026 0.70913 0.79587 0.0
C3300 C 0.93237 0.72253 0.79676 0.0
C3301 C 0.93365 0.70443 0.78397 0.0
C3302 C 0.95633 0.7178 0.75438 0.0
H3303 H 0.96092 0.67033 0.71066 0.0
H3304 H 0.95197 0.67601 0.73098 0.0
H3305 H 0.97039 0.7211 0.73843 0.0
H3306 H 0.93969 0.74153 0.78592 0.0
H3307 H 0.94539 0.73328 0.76505 0.0
H3308 H 0.92638 0.68773 0.7593 0.0
C3309 C 0.95637 0.68345 0.72294 0.0
C3310 C 0.96069 0.71374 0.74279 0.0
C3311 C 0.96153 0.68022 0.71133 0.0
C3312 C 0.93781 0.73109 0.78545 0.0
C3313 C 0.94119 0.72641 0.77357 0.0
C3314 C 0.93604 0.69506 0.75486 0.0
C3315 C 0.95735 0.69636 0.72437 0.0
C3316 C 0.95275 0.70034 0.73699 0.0
C3317 C 0.93934 0.7131 0.77276 0.0
C3318 C 0.9439 0.70856 0.76049 0.0
H3319 H 0.97291 0.71019 0.69435 0.0
H3320 H 0.96383 0.71566 0.71438 0.0
H3321 H 0.93404 0.68062 0.73893 0.0
H3322 H 0.92627 0.7024 0.80452 0.0
H3323 H 0.93225 0.69419 0.78374 0.0
C3324 C 0.33634 0.29886 0.72403 0.0
C3325 C 0.33004 0.29893 0.71171 0.0
C3326 C 0.32949 0.28825 0.73324 0.0
C3327 C 0.29522 0.26017 0.74299 0.0
H3328 H 0.31589 0.2471 0.76199 0.0
C3329 C 0.27035 0.21439 0.7799 0.0
C3330 C 0.27706 0.21681 0.79264 0.0
C3331 C 0.27661 0.22348 0.76919 0.0
C3332 C 0.31 0.25068 0.75681 0.0
H3333 H 0.31143 0.28791 0.69956 0.0
H3334 H 0.29951 0.26924 0.7156 0.0
H3335 H 0.32696 0.26476 0.74489 0.0
H3336 H 0.29567 0.23046 0.80401 0.0
H3337 H 0.30666 0.24624 0.78528 0.0
H3338 H 0.27824 0.246 0.75496 0.0
C3339 C 0.30973 0.27752 0.71818 0.0
C3340 C 0.31634 0.26084 0.74704 0.0
C3341 C 0.31659 0.28821 0.70896 0.0
C3342 C 0.29028 0.22829 0.7943 0.0
C3343 C 0.29659 0.2373 0.78356 0.0
C3344 C 0.28884 0.24992 0.75271 0.0
C3345 C 0.31616 0.27734 0.73039 0.0
C3346 C 0.3091 0.26589 0.74016 0.0
C3347 C 0.28976 0.23511 0.77094 0.0
C3348 C 0.29622 0.24521 0.75987 0.0
H3349 H 0.34664 0.30701 0.72658 0.0
H3350 H 0.33465 0.28865 0.74268 0.0
H3351 H 0.28935 0.26389 0.738 0.0
H3352 H 0.26015 0.2056 0.77835 0.0
H3353 H 0.27115 0.22145 0.75954 0.0
C3354 C 0.71506 0.03756 0.69947 0.0
C3355 C 0.71839 0.03127 0.68874 0.0
C3356 C 0.72316 0.04264 0.71137 0.0
C3357 C 0.74765 0.03792 0.73121 0.0
H3358 H 0.75625 0.07229 0.74987 0.0
C3359 C 0.78508 0.05983 0.77683 0.0
C3360 C 0.78133 0.06493 0.78824 0.0
C3361 C 0.77797 0.05683 0.7644 0.0
C3362 C 0.75383 0.06261 0.74482 0.0
H3363 H 0.73319 0.02593 0.68197 0.0
H3364 H 0.74729 0.03489 0.70257 0.0
H3365 H 0.74265 0.06501 0.72867 0.0
H3366 H 0.76719 0.07085 0.79561 0.0
H3367 H 0.75465 0.06552 0.77387 0.0
H3368 H 0.75868 0.03541 0.74733 0.0
C3369 C 0.73828 0.03565 0.70191 0.0
C3370 C 0.74605 0.05844 0.7327 0.0
C3371 C 0.7302 0.03056 0.69005 0.0
C3372 C 0.7704 0.06711 0.78691 0.0
C3373 C 0.76326 0.0641 0.77446 0.0
C3374 C 0.75541 0.04207 0.74329 0.0
C3375 C 0.73475 0.04155 0.7128 0.0
C3376 C 0.74292 0.04607 0.72573 0.0
C3377 C 0.76684 0.05873 0.76313 0.0
C3378 C 0.75865 0.05449 0.75022 0.0
H3379 H 0.70603 0.03828 0.69881 0.0
H3380 H 0.72012 0.04705 0.71962 0.0
H3381 H 0.74518 0.02818 0.72627 0.0
H3382 H 0.79336 0.0579 0.77762 0.0
H3383 H 0.78109 0.05287 0.75582 0.0
C3384 C 0.04306 0.34474 0.02936 0.0
C3385 C 0.02912 0.33531 0.03115 0.0
C3386 C 0.05282 0.34332 0.03658 0.0
C3387 C 0.05642 0.32503 0.06616 0.0
H3388 H 0.08624 0.32697 0.04554 0.0
C3389 C 0.07894 0.28789 0.08416 0.0
C3390 C 0.09782 0.29738 0.08392 0.0
C3391 C 0.07152 0.29743 0.07801 0.0
C3392 C 0.07812 0.32663 0.05152 0.0
H3393 H 0.01451 0.31727 0.04218 0.0
H3394 H 0.03127 0.31469 0.05443 0.0
H3395 H 0.07215 0.33492 0.03531 0.0
H3396 H 0.11894 0.31633 0.07115 0.0
H3397 H 0.1054 0.33005 0.06084 0.0
H3398 H 0.06191 0.31603 0.08202 0.0
C3399 C 0.03482 0.32333 0.0477 0.0
C3400 C 0.07005 0.33121 0.04567 0.0
C3401 C 0.02516 0.32473 0.04054 0.0
C3402 C 0.10808 0.31183 0.07216 0.0
C3403 C 0.09969 0.3206 0.06637 0.0
C3404 C 0.06434 0.3203 0.07188 0.0
C3405 C 0.04878 0.3325 0.04576 0.0
C3406 C 0.05882 0.33003 0.05276 0.0
C3407 C 0.08185 0.31371 0.06972 0.0
C3408 C 0.07499 0.32069 0.06446 0.0
H3409 H 0.04642 0.353 0.02219 0.0
H3410 H 0.06349 0.35062 0.03491 0.0
H3411 H 0.0481 0.32433 0.07207 0.0
H3412 H 0.07309 0.27876 0.09012 0.0
H3413 H 0.06074 0.29327 0.07921 0.0
C3414 C 0.68595 0.69307 0.05111 0.0
C3415 C 0.67493 0.6899 0.0424 0.0
C3416 C 0.69125 0.7045 0.06019 0.0
C3417 C 0.68391 0.73 0.07649 0.0
H3418 H 0.72319 0.75274 0.07914 0.0
C3419 C 0.73468 0.79494 0.09602 0.0
C3420 C 0.72322 0.7974 0.10771 0.0
C3421 C 0.72701 0.77813 0.08767 0.0
C3422 C 0.71222 0.74659 0.07843 0.0
H3423 H 0.66055 0.69594 0.03662 0.0
H3424 H 0.66994 0.71603 0.05227 0.0
H3425 H 0.71277 0.73141 0.06535 0.0
H3426 H 0.70254 0.78447 0.12382 0.0
H3427 H 0.69186 0.75775 0.11023 0.0
H3428 H 0.68337 0.74548 0.08909 0.0
C3429 C 0.67439 0.7096 0.05225 0.0
C3430 C 0.70623 0.73422 0.07069 0.0
C3431 C 0.66905 0.69812 0.04322 0.0
C3432 C 0.70828 0.78279 0.116 0.0
C3433 C 0.70145 0.76637 0.10702 0.0
C3434 C 0.68992 0.7424 0.0842 0.0
C3435 C 0.68568 0.71304 0.0607 0.0
C3436 C 0.692 0.72582 0.06954 0.0
C3437 C 0.71044 0.76427 0.09278 0.0
C3438 C 0.70413 0.75087 0.08516 0.0
H3439 H 0.69063 0.68685 0.05077 0.0
H3440 H 0.69979 0.7067 0.06673 0.0
H3441 H 0.67292 0.72371 0.07593 0.0
H3442 H 0.7439 0.8036 0.09215 0.0
H3443 H 0.73228 0.77654 0.07929 0.0
C3444 C 0.30111 0.9672 0.02606 0.0
C3445 C 0.30834 0.98163 0.02801 0.0
C3446 C 0.29009 0.95886 0.03442 0.0
C3447 C 0.27378 0.95925 0.06733 0.0
H3448 H 0.24092 0.93004 0.04946 0.0
C3449 C 0.22077 0.93638 0.09116 0.0
C3450 C 0.21151 0.92212 0.0895 0.0
C3451 C 0.23334 0.94255 0.08468 0.0
C3452 C 0.25007 0.938 0.05466 0.0
H3453 H 0.30992 0.99864 0.04042 0.0
H3454 H 0.29068 0.9842 0.05481 0.0
H3455 H 0.26162 0.94275 0.03625 0.0
H3456 H 0.20813 0.90314 0.07969 0.0
H3457 H 0.23019 0.91393 0.06837 0.0
H3458 H 0.26209 0.95474 0.08566 0.0
C3459 C 0.29357 0.97924 0.04699 0.0
C3460 C 0.26195 0.94528 0.04709 0.0
C3461 C 0.30455 0.98754 0.03866 0.0
C3462 C 0.21514 0.91413 0.08127 0.0
C3463 C 0.22771 0.92032 0.07473 0.0
C3464 C 0.26189 0.95199 0.07489 0.0
C3465 C 0.28611 0.96481 0.04491 0.0
C3466 C 0.27389 0.95616 0.05327 0.0
C3467 C 0.2369 0.93463 0.07626 0.0
C3468 C 0.24984 0.94145 0.06859 0.0
H3469 H 0.30385 0.96235 0.01797 0.0
H3470 H 0.28466 0.94777 0.03265 0.0
H3471 H 0.28286 0.96739 0.07248 0.0
H3472 H 0.21816 0.94282 0.09725 0.0
H3473 H 0.24009 0.95363 0.08588 0.0
C3474 C 0.33049 0.02782 0.97349 0.0
C3475 C 0.33768 0.03163 0.98602 0.0
C3476 C 0.32802 0.03703 0.96676 0.0
C3477 C 0.3365 0.07357 0.96589 0.0
H3478 H 0.2999 0.05608 0.95076 0.0
C3479 C 0.29485 0.08824 0.94542 0.0
C3480 C 0.30307 0.09956 0.93724 0.0
C3481 C 0.29996 0.08063 0.95116 0.0
C3482 C 0.31012 0.06119 0.95502 0.0
H3483 H 0.34851 0.0483 0.00105 0.0
H3484 H 0.34383 0.06444 0.98947 0.0
H3485 H 0.30761 0.04205 0.96111 0.0
H3486 H 0.32338 0.11224 0.92927 0.0
H3487 H 0.33224 0.09864 0.93893 0.0
H3488 H 0.33872 0.09283 0.96019 0.0
C3489 C 0.3403 0.05436 0.98471 0.0
C3490 C 0.31464 0.05309 0.96079 0.0
C3491 C 0.34298 0.04513 0.99137 0.0
C3492 C 0.31669 0.10335 0.93524 0.0
C3493 C 0.32181 0.09566 0.94093 0.0
C3494 C 0.33192 0.08173 0.96015 0.0
C3495 C 0.33242 0.05024 0.97252 0.0
C3496 C 0.3279 0.05913 0.96627 0.0
C3497 C 0.31346 0.08414 0.94889 0.0
C3498 C 0.31864 0.07562 0.95471 0.0
H3499 H 0.32646 0.01753 0.96902 0.0
H3500 H 0.32231 0.03364 0.95718 0.0
H3501 H 0.34679 0.07857 0.96995 0.0
H3502 H 0.28444 0.08533 0.94747 0.0
H3503 H 0.29333 0.07207 0.95753 0.0
C3504 C 0.96681 0.29525 0.98996 0.0
C3505 C 0.98078 0.30387 0.98758 0.0
C3506 C 0.95921 0.28276 0.9825 0.0
C3507 C 0.96383 0.2569 0.96366 0.0
H3508 H 0.92704 0.24282 0.95042 0.0
C3509 C 0.93662 0.20179 0.92744 0.0
C3510 C 0.91788 0.19381 0.92596 0.0
C3511 C 0.94531 0.21832 0.93638 0.0
C3512 C 0.93724 0.24652 0.95422 0.0
H3513 H 0.99759 0.30658 0.97507 0.0
H3514 H 0.98431 0.28493 0.96198 0.0
H3515 H 0.93951 0.26558 0.96188 0.0
H3516 H 0.89692 0.19225 0.93807 0.0
H3517 H 0.91221 0.2185 0.95282 0.0
H3518 H 0.96158 0.23789 0.95623 0.0
C3519 C 0.97928 0.28764 0.96978 0.0
C3520 C 0.94439 0.25958 0.96074 0.0
C3521 C 0.98686 0.30009 0.97722 0.0
C3522 C 0.90792 0.19798 0.93818 0.0
C3523 C 0.91752 0.21464 0.94678 0.0
C3524 C 0.95668 0.24387 0.95718 0.0
C3525 C 0.96545 0.2787 0.97253 0.0
C3526 C 0.95778 0.26492 0.96549 0.0
C3527 C 0.93585 0.22481 0.94545 0.0
C3528 C 0.94334 0.23856 0.95237 0.0
H3529 H 0.96185 0.29792 0.99787 0.0
H3530 H 0.94857 0.27606 0.98489 0.0
H3531 H 0.97403 0.2606 0.96747 0.0
H3532 H 0.9421 0.19844 0.92093 0.0
H3533 H 0.95628 0.22448 0.93599 0.0
C3534 C 0.69497 0.65807 0.99257 0.0
C3535 C 0.68689 0.66378 0.99005 0.0
C3536 C 0.70649 0.66179 0.98467 0.0
C3537 C 0.73051 0.69042 0.96278 0.0
H3538 H 0.74605 0.66734 0.95716 0.0
C3539 C 0.78616 0.71369 0.94706 0.0
C3540 C 0.78961 0.70598 0.93822 0.0
C3541 C 0.77311 0.70778 0.95241 0.0
C3542 C 0.74179 0.67389 0.95844 0.0
H3543 H 0.68375 0.67689 0.97668 0.0
H3544 H 0.70331 0.68276 0.96241 0.0
H3545 H 0.72356 0.65757 0.96704 0.0
H3546 H 0.78214 0.68577 0.92851 0.0
H3547 H 0.75917 0.67565 0.93729 0.0
H3548 H 0.74845 0.70659 0.95376 0.0
C3549 C 0.70124 0.67594 0.97085 0.0
C3550 C 0.72893 0.66832 0.96431 0.0
C3551 C 0.68993 0.67248 0.97893 0.0
C3552 C 0.77974 0.69211 0.93504 0.0
C3553 C 0.7666 0.68625 0.94024 0.0
C3554 C 0.74323 0.69591 0.95674 0.0
C3555 C 0.70999 0.67109 0.97394 0.0
C3556 C 0.72319 0.67657 0.96672 0.0
C3557 C 0.7631 0.69401 0.949 0.0
C3558 C 0.74916 0.68781 0.9547 0.0
H3559 H 0.69288 0.6514 0.00116 0.0
H3560 H 0.713 0.65791 0.98748 0.0
H3561 H 0.72662 0.69722 0.96466 0.0
H3562 H 0.79367 0.72428 0.94995 0.0
H3563 H 0.77096 0.71399 0.95943 0.0
C3564 C 0.97942 0.67973 0.97729 0.0
C3565 C 0.97465 0.66967 0.98736 0.0
C3566 C 0.97042 0.68201 0.9699 0.0
C3567 C 0.93738 0.6791 0.97366 0.0
H3568 H 0.94352 0.69106 0.93605 0.0
C3569 C 0.90608 0.69944 0.94836 0.0
C3570 C 0.91369 0.71183 0.94138 0.0
C3571 C 0.91196 0.69186 0.95223 0.0
C3572 C 0.94169 0.68776 0.94657 0.0
H3573 H 0.95662 0.65361 0.99712 0.0
H3574 H 0.94077 0.65758 0.98412 0.0
H3575 H 0.95636 0.68147 0.94576 0.0
H3576 H 0.93344 0.726 0.93299 0.0
H3577 H 0.94377 0.71278 0.93974 0.0
H3578 H 0.92302 0.68576 0.97461 0.0
C3579 C 0.95153 0.66379 0.98206 0.0
C3580 C 0.94903 0.68225 0.95213 0.0
C3581 C 0.96059 0.66146 0.98943 0.0
C3582 C 0.92726 0.71636 0.93814 0.0
C3583 C 0.93315 0.70876 0.94198 0.0
C3584 C 0.93003 0.68459 0.96809 0.0
C3585 C 0.9564 0.67431 0.97242 0.0
C3586 C 0.9472 0.67817 0.96585 0.0
C3587 C 0.92563 0.69653 0.94927 0.0
C3588 C 0.93232 0.68927 0.95459 0.0
H3589 H 0.9902 0.68621 0.97539 0.0
H3590 H 0.97455 0.6903 0.96269 0.0
H3591 H 0.93585 0.67625 0.98431 0.0
H3592 H 0.89564 0.6958 0.95113 0.0
H3593 H 0.90587 0.68243 0.95773 0.0
C3594 C 0.32005 0.31416 0.9651 0.0
C3595 C 0.3318 0.3184 0.97308 0.0
C3596 C 0.31405 0.30167 0.95751 0.0
C3597 C 0.3194 0.27327 0.9452 0.0
H3598 H 0.28037 0.25057 0.94963 0.0
C3599 C 0.28987 0.21382 0.94238 0.0
C3600 C 0.27678 0.20677 0.93644 0.0
C3601 C 0.29712 0.22821 0.94377 0.0
C3602 C 0.29123 0.25684 0.94805 0.0
H3603 H 0.34688 0.31331 0.97883 0.0
H3604 H 0.33631 0.29145 0.96586 0.0
H3605 H 0.29225 0.27465 0.95745 0.0
H3606 H 0.26111 0.20921 0.92704 0.0
H3607 H 0.27379 0.23446 0.92952 0.0
H3608 H 0.31836 0.25519 0.93631 0.0
C3609 C 0.33179 0.29779 0.96526 0.0
C3610 C 0.29806 0.27068 0.95252 0.0
C3611 C 0.33782 0.3103 0.97278 0.0
C3612 C 0.27121 0.21442 0.93161 0.0
C3613 C 0.27843 0.22883 0.93309 0.0
C3614 C 0.31256 0.25939 0.94079 0.0
C3615 C 0.31964 0.29315 0.9578 0.0
C3616 C 0.31227 0.27899 0.95142 0.0
C3617 C 0.29138 0.23586 0.93939 0.0
C3618 C 0.29844 0.25096 0.94243 0.0
H3619 H 0.31524 0.32025 0.96504 0.0
H3620 H 0.30484 0.29853 0.95168 0.0
H3621 H 0.33031 0.27945 0.94397 0.0
H3622 H 0.29435 0.20816 0.94627 0.0
H3623 H 0.30699 0.2333 0.94884 0.0
C3624 C 0.70415 0.03892 0.98948 0.0
C3625 C 0.69639 0.02446 0.98792 0.0
C3626 C 0.71592 0.04655 0.98183 0.0
C3627 C 0.73461 0.0448 0.95149 0.0
H3628 H 0.76635 0.07225 0.97224 0.0
C3629 C 0.78969 0.06664 0.93288 0.0
C3630 C 0.79936 0.08053 0.93617 0.0
C3631 C 0.77643 0.06063 0.93777 0.0
C3632 C 0.75756 0.06482 0.9662 0.0
H3633 H 0.69456 0.00669 0.97676 0.0
H3634 H 0.71514 0.01999 0.9635 0.0
H3635 H 0.74435 0.06036 0.98327 0.0
H3636 H 0.80264 0.09911 0.94681 0.0
H3637 H 0.77944 0.08873 0.95512 0.0
H3638 H 0.74793 0.04912 0.93447 0.0
C3639 C 0.7121 0.02546 0.97054 0.0
C3640 C 0.74493 0.05799 0.97254 0.0
C3641 C 0.70035 0.01783 0.97821 0.0
C3642 C 0.79539 0.08839 0.94409 0.0
C3643 C 0.78213 0.08241 0.94894 0.0
C3644 C 0.74726 0.05166 0.94512 0.0
C3645 C 0.72015 0.03988 0.97245 0.0
C3646 C 0.73333 0.0478 0.96531 0.0
C3647 C 0.77257 0.06838 0.94608 0.0
C3648 C 0.75892 0.06166 0.95245 0.0
H3649 H 0.7013 0.04432 0.99683 0.0
H3650 H 0.72181 0.05767 0.98339 0.0
H3651 H 0.72583 0.03711 0.9456 0.0
H3652 H 0.79253 0.06033 0.92688 0.0
H3653 H 0.76937 0.04976 0.93551 0.0
C3654 C 0.6765 0.98246 0.04282 0.0
C3655 C 0.66659 0.97792 0.03235 0.0
C3656 C 0.67828 0.97302 0.05004 0.0
C3657 C 0.67389 0.93873 0.04579 0.0
H3658 H 0.68501 0.94483 0.08413 0.0
C3659 C 0.69126 0.9053 0.07234 0.0
C3660 C 0.70334 0.91269 0.08014 0.0
C3661 C 0.68445 0.9118 0.0679 0.0
C3662 C 0.68195 0.94301 0.07341 0.0
H3663 H 0.65039 0.95987 0.02161 0.0
H3664 H 0.65352 0.94326 0.0343 0.0
H3665 H 0.67663 0.95859 0.07399 0.0
H3666 H 0.71784 0.93271 0.08928 0.0
H3667 H 0.70594 0.94409 0.08156 0.0
H3668 H 0.67956 0.92342 0.04511 0.0
C3669 C 0.65997 0.95418 0.03682 0.0
C3670 C 0.67713 0.95087 0.0676 0.0
C3671 C 0.65812 0.96366 0.02961 0.0
C3672 C 0.7084 0.92669 0.08353 0.0
C3673 C 0.70156 0.93318 0.07912 0.0
C3674 C 0.67869 0.93085 0.05161 0.0
C3675 C 0.67023 0.95879 0.04697 0.0
C3676 C 0.67337 0.94906 0.05364 0.0
C3677 C 0.6896 0.92586 0.0711 0.0
C3678 C 0.68307 0.93313 0.0654 0.0
H3679 H 0.68317 0.99337 0.04522 0.0
H3680 H 0.68639 0.97697 0.05765 0.0
H3681 H 0.67125 0.93719 0.03497 0.0
H3682 H 0.68725 0.89455 0.06943 0.0
H3683 H 0.67522 0.90586 0.06181 0.0
C3684 C 0.0135 0.70356 0.04424 0.0
C3685 C 0.01973 0.70047 0.03347 0.0
C3686 C 0.02065 0.7161 0.05163 0.0
C3687 C 0.04741 0.75164 0.04738 0.0
H3688 H 0.04613 0.75472 0.08698 0.0
C3689 C 0.07379 0.80461 0.07653 0.0
C3690 C 0.06688 0.80601 0.08778 0.0
C3691 C 0.06912 0.79167 0.07014 0.0
C3692 C 0.04646 0.75406 0.0759 0.0
H3693 H 0.03845 0.70783 0.02224 0.0
H3694 H 0.05091 0.72993 0.03505 0.0
H3695 H 0.03616 0.73195 0.07573 0.0
H3696 H 0.04986 0.79489 0.10137 0.0
H3697 H 0.04132 0.77252 0.08988 0.0
H3698 H 0.05717 0.77365 0.04741 0.0
C3699 C 0.0405 0.7226 0.03776 0.0
C3700 C 0.04083 0.74101 0.06949 0.0
C3701 C 0.0334 0.70995 0.0305 0.0
C3702 C 0.05524 0.7942 0.09255 0.0
C3703 C 0.05048 0.78132 0.08608 0.0
C3704 C 0.0529 0.76469 0.05377 0.0
C3705 C 0.03412 0.72586 0.04826 0.0
C3706 C 0.04112 0.73968 0.05516 0.0
C3707 C 0.05741 0.77985 0.07486 0.0
C3708 C 0.05232 0.76605 0.0681 0.0
H3709 H 0.00298 0.69641 0.04677 0.0
H3710 H 0.01547 0.7184 0.05962 0.0
H3711 H 0.04763 0.75087 0.03629 0.0
H3712 H 0.08293 0.81349 0.0728 0.0
H3713 H 0.07483 0.7909 0.06167 0.0
C3714 C 0.31144 0.35047 0.02144 0.0
C3715 C 0.31974 0.34502 0.02415 0.0
C3716 C 0.29982 0.34656 0.02924 0.0
C3717 C 0.28308 0.33212 0.06163 0.0
H3718 H 0.24955 0.31272 0.04032 0.0
C3719 C 0.23197 0.29541 0.08686 0.0
C3720 C 0.21988 0.29354 0.08117 0.0
C3721 C 0.24436 0.30339 0.08031 0.0
C3722 C 0.25876 0.31835 0.04648 0.0
H3723 H 0.32296 0.33198 0.03758 0.0
H3724 H 0.30294 0.32558 0.0515 0.0
H3725 H 0.27124 0.32471 0.02862 0.0
H3726 H 0.21147 0.29936 0.06461 0.0
H3727 H 0.23316 0.31375 0.05344 0.0
H3728 H 0.27075 0.32601 0.0795 0.0
C3729 C 0.3053 0.33269 0.04327 0.0
C3730 C 0.2712 0.32519 0.03974 0.0
C3731 C 0.31672 0.33632 0.03529 0.0
C3732 C 0.22057 0.30034 0.06908 0.0
C3733 C 0.23302 0.30854 0.06264 0.0
C3734 C 0.27064 0.32552 0.06839 0.0
C3735 C 0.29654 0.33746 0.04006 0.0
C3736 C 0.28346 0.33188 0.04725 0.0
C3737 C 0.24509 0.31007 0.06809 0.0
C3738 C 0.2583 0.31825 0.06091 0.0
H3739 H 0.31351 0.35711 0.01284 0.0
H3740 H 0.2932 0.35037 0.02661 0.0
H3741 H 0.29243 0.33729 0.06764 0.0
H3742 H 0.23186 0.29062 0.09636 0.0
H3743 H 0.25334 0.30411 0.08477 0.0
C3744 C 0.68195 0.66144 0.37405 0.0
C3745 C 0.68799 0.67254 0.36511 0.0
C3746 C 0.68995 0.65799 0.38174 0.0
C3747 C 0.7249 0.67 0.39404 0.0
H3748 H 0.71198 0.63079 0.39269 0.0
C3749 C 0.75787 0.64724 0.41023 0.0
C3750 C 0.7513 0.6346 0.41695 0.0
C3751 C 0.7504 0.65279 0.40505 0.0
C3752 C 0.71565 0.64175 0.39337 0.0
H3753 H 0.70719 0.68919 0.35778 0.0
H3754 H 0.72122 0.68309 0.37119 0.0
H3755 H 0.69857 0.63907 0.38195 0.0
H3756 H 0.7318 0.61795 0.42364 0.0
H3757 H 0.7188 0.62774 0.41492 0.0
H3758 H 0.74208 0.67262 0.40541 0.0
C3759 C 0.71028 0.67711 0.37229 0.0
C3760 C 0.70795 0.64651 0.3872 0.0
C3761 C 0.70225 0.68059 0.36458 0.0
C3762 C 0.73715 0.62775 0.41859 0.0
C3763 C 0.7297 0.63331 0.41348 0.0
C3764 C 0.73262 0.66522 0.40027 0.0
C3765 C 0.70418 0.66553 0.38065 0.0
C3766 C 0.71245 0.66067 0.38748 0.0
C3767 C 0.7362 0.64577 0.40645 0.0
C3768 C 0.72805 0.65102 0.40003 0.0
H3769 H 0.671 0.65511 0.3748 0.0
H3770 H 0.68495 0.6492 0.38831 0.0
H3771 H 0.7286 0.68097 0.39448 0.0
H3772 H 0.76875 0.65264 0.40867 0.0
H3773 H 0.75571 0.66232 0.39955 0.0
C3774 C 0.35044 0.0259 0.38734 0.0
C3775 C 0.33931 0.02232 0.37862 0.0
C3776 C 0.35597 0.03785 0.39574 0.0
C3777 C 0.34877 0.06412 0.41029 0.0
H3778 H 0.38804 0.08702 0.41271 0.0
C3779 C 0.37315 0.11861 0.44739 0.0
C3780 C 0.38814 0.13283 0.43876 0.0
C3781 C 0.36627 0.10185 0.43909 0.0
C3782 C 0.37706 0.08084 0.41206 0.0
H3783 H 0.32506 0.02827 0.37207 0.0
H3784 H 0.33482 0.04918 0.38652 0.0
H3785 H 0.37762 0.06505 0.39998 0.0
H3786 H 0.40883 0.13833 0.42351 0.0
H3787 H 0.39713 0.11079 0.41176 0.0
H3788 H 0.34821 0.08014 0.42188 0.0
C3789 C 0.33918 0.0427 0.38706 0.0
C3790 C 0.37108 0.0681 0.40493 0.0
C3791 C 0.33363 0.03074 0.3787 0.0
C3792 C 0.39957 0.12985 0.42754 0.0
C3793 C 0.39186 0.11274 0.41988 0.0
C3794 C 0.35476 0.07687 0.41739 0.0
C3795 C 0.3505 0.04648 0.39558 0.0
C3796 C 0.35685 0.05964 0.40385 0.0
C3797 C 0.37526 0.09914 0.42524 0.0
C3798 C 0.36897 0.08541 0.41824 0.0
H3799 H 0.35499 0.01956 0.38754 0.0
H3800 H 0.36457 0.04035 0.40234 0.0
H3801 H 0.33778 0.0578 0.4098 0.0
H3802 H 0.3674 0.12061 0.45494 0.0
H3803 H 0.35667 0.09339 0.4425 0.0
C3804 C 0.98232 0.32665 0.37368 0.0
C3805 C 0.98742 0.31952 0.36622 0.0
C3806 C 0.97016 0.31937 0.38089 0.0
C3807 C 0.93865 0.28531 0.38039 0.0
H3808 H 0.93253 0.29696 0.41609 0.0
C3809 C 0.88846 0.25239 0.40869 0.0
C3810 C 0.88276 0.25941 0.4153 0.0
C3811 C 0.90174 0.25968 0.4038 0.0
C3812 C 0.93405 0.29364 0.40606 0.0
H3813 H 0.98417 0.29923 0.361 0.0
H3814 H 0.96312 0.2866 0.37363 0.0
H3815 H 0.95498 0.30993 0.40573 0.0
H3816 H 0.8864 0.27956 0.42168 0.0
H3817 H 0.90956 0.29234 0.413 0.0
H3818 H 0.91777 0.2692 0.38053 0.0
C3819 C 0.96833 0.29778 0.37372 0.0
C3820 C 0.94691 0.30107 0.40014 0.0
C3821 C 0.98044 0.30503 0.36654 0.0
C3822 C 0.89063 0.27387 0.41687 0.0
C3823 C 0.90391 0.28117 0.41194 0.0
C3824 C 0.92583 0.27793 0.38627 0.0
C3825 C 0.96289 0.30483 0.38074 0.0
C3826 C 0.94935 0.29696 0.38724 0.0
C3827 C 0.90957 0.27418 0.40522 0.0
C3828 C 0.92336 0.28198 0.39918 0.0
H3829 H 0.9875 0.33782 0.37362 0.0
H3830 H 0.9662 0.3251 0.38613 0.0
H3831 H 0.94011 0.28204 0.37031 0.0
H3832 H 0.88257 0.24127 0.40711 0.0
H3833 H 0.90583 0.25394 0.39882 0.0
C3834 C 0.03031 0.37627 0.31907 0.0
C3835 C 0.0193 0.36257 0.31901 0.0
C3836 C 0.03002 0.38601 0.31074 0.0
C3837 C 0.01193 0.38933 0.28083 0.0
H3838 H 0.0227 0.42504 0.29776 0.0
C3839 C 0.9924 0.42371 0.26186 0.0
C3840 C 0.00124 0.43811 0.26203 0.0
C3841 C 0.99653 0.41513 0.26726 0.0
C3842 C 0.01988 0.41522 0.29278 0.0
H3843 H 0.9995 0.34826 0.30992 0.0
H3844 H 0.99891 0.36521 0.2956 0.0
H3845 H 0.02649 0.4088 0.31005 0.0
H3846 H 0.02136 0.45482 0.26807 0.0
H3847 H 0.02865 0.43976 0.27752 0.0
H3848 H 0.00493 0.3956 0.26375 0.0
C3849 C 0.00787 0.36844 0.3019 0.0
C3850 C 0.02205 0.4059 0.29982 0.0
C3851 C 0.00817 0.35872 0.31019 0.0
C3852 C 0.0144 0.44374 0.26765 0.0
C3853 C 0.01852 0.43514 0.27314 0.0
C3854 C 0.00973 0.39863 0.27382 0.0
C3855 C 0.01872 0.38224 0.30217 0.0
C3856 C 0.01783 0.39272 0.29406 0.0
C3857 C 0.00957 0.42074 0.2731 0.0
C3858 C 0.01341 0.41156 0.27983 0.0
H3859 H 0.03906 0.37953 0.32572 0.0
H3860 H 0.03861 0.39651 0.31108 0.0
H3861 H 0.00882 0.37938 0.27597 0.0
H3862 H 0.98213 0.41908 0.25783 0.0
H3863 H 0.9893 0.40411 0.2673 0.0
C3864 C 0.63316 0.63906 0.31427 0.0
C3865 C 0.64738 0.64565 0.31523 0.0
C3866 C 0.62563 0.62655 0.30688 0.0
C3867 C 0.62818 0.60331 0.28106 0.0
H3868 H 0.59635 0.57484 0.29932 0.0
C3869 C 0.60197 0.54202 0.25766 0.0
C3870 C 0.5831 0.53306 0.25829 0.0
C3871 C 0.61077 0.55912 0.26545 0.0
C3872 C 0.60505 0.5827 0.29394 0.0
H3873 H 0.66493 0.64465 0.30872 0.0
H3874 H 0.65178 0.62275 0.29589 0.0
H3875 H 0.60911 0.59796 0.30967 0.0
H3876 H 0.56304 0.53118 0.27252 0.0
H3877 H 0.57852 0.55848 0.28512 0.0
H3878 H 0.62414 0.58798 0.26539 0.0
C3879 C 0.64644 0.62728 0.30077 0.0
C3880 C 0.6124 0.59599 0.2999 0.0
C3881 C 0.65398 0.6398 0.30817 0.0
C3882 C 0.57397 0.53734 0.27147 0.0
C3883 C 0.58365 0.55459 0.27881 0.0
C3884 C 0.62081 0.59001 0.2751 0.0
C3885 C 0.63216 0.62037 0.30028 0.0
C3886 C 0.62408 0.60644 0.29356 0.0
C3887 C 0.60163 0.56543 0.27542 0.0
C3888 C 0.60922 0.57956 0.28153 0.0
H3889 H 0.62779 0.64336 0.31953 0.0
H3890 H 0.61466 0.62161 0.3065 0.0
H3891 H 0.63703 0.61118 0.27584 0.0
H3892 H 0.6071 0.5386 0.25074 0.0
H3893 H 0.62162 0.5656 0.26414 0.0
C3894 C 0.3544 0.99873 0.31953 0.0
C3895 C 0.34749 0.9885 0.32924 0.0
C3896 C 0.36389 0.99826 0.31087 0.0
C3897 C 0.3761 0.97523 0.29809 0.0
H3898 H 0.40977 0.00983 0.29262 0.0
C3899 C 0.41976 0.97773 0.26617 0.0
C3900 C 0.43298 0.98636 0.27153 0.0
C3901 C 0.40881 0.97834 0.27167 0.0
C3902 C 0.40045 7e-05 0.29409 0.0
H3903 H 0.34489 0.96961 0.33731 0.0
H3904 H 0.36162 0.96895 0.32246 0.0
H3905 H 0.39142 0.00985 0.30513 0.0
H3906 H 0.44503 0.00206 0.28708 0.0
H3907 H 0.42596 0.00301 0.29682 0.0
H3908 H 0.38538 0.96538 0.28762 0.0
C3909 C 0.35956 0.97721 0.32131 0.0
C3910 C 0.38984 9e-05 0.30111 0.0
C3911 C 0.35002 0.97763 0.3299 0.0
C3912 C 0.435 0.99552 0.28255 0.0
C3913 C 0.42406 0.99608 0.28809 0.0
C3914 C 0.38674 0.97519 0.29112 0.0
C3915 C 0.36674 0.98761 0.31179 0.0
C3916 C 0.3776 0.98765 0.30337 0.0
C3917 C 0.41082 0.98746 0.28277 0.0
C3918 C 0.39912 0.9876 0.28921 0.0
H3919 H 0.3526 0.00719 0.31871 0.0
H3920 H 0.36906 0.00632 0.3035 0.0
H3921 H 0.36674 0.96547 0.29946 0.0
H3922 H 0.41787 0.97039 0.25784 0.0
H3923 H 0.39877 0.97162 0.26726 0.0
C3924 C 0.64874 0.99621 0.31487 0.0
C3925 C 0.64443 0.98481 0.32327 0.0
C3926 C 0.63941 0.99729 0.30663 0.0
C3927 C 0.60448 0.97763 0.29185 0.0
H3928 H 0.60711 0.01325 0.29384 0.0
C3929 C 0.55993 0.98481 0.27716 0.0
C3930 C 0.56282 0.997 0.27076 0.0
C3931 C 0.57044 0.98307 0.2818 0.0
C3932 C 0.60634 0.00329 0.29295 0.0
H3933 H 0.62704 0.9653 0.32918 0.0
H3934 H 0.61072 0.96721 0.31486 0.0
H3935 H 0.62449 0.01048 0.30487 0.0
H3936 H 0.57899 0.01703 0.26437 0.0
H3937 H 0.5974 0.0139 0.27221 0.0
H3938 H 0.58618 0.9704 0.28009 0.0
C3939 C 0.62134 0.97529 0.31456 0.0
C3940 C 0.61632 0.0017 0.29929 0.0
C3941 C 0.63068 0.97422 0.32282 0.0
C3942 C 0.57647 0.00743 0.26906 0.0
C3943 C 0.58699 0.00568 0.27368 0.0
C3944 C 0.5945 0.97923 0.28547 0.0
C3945 C 0.62555 0.98698 0.3066 0.0
C3946 C 0.61543 0.98881 0.29896 0.0
C3947 C 0.5841 0.99353 0.28024 0.0
C3948 C 0.59522 0.99204 0.28609 0.0
H3949 H 0.65928 0.00452 0.31492 0.0
H3950 H 0.64302 0.00631 0.30044 0.0
H3951 H 0.6036 0.96761 0.29125 0.0
H3952 H 0.54951 0.97673 0.27885 0.0
H3953 H 0.56782 0.97371 0.28704 0.0
C3954 C 0.99966 0.65805 0.30265 0.0
C3955 C 0.00318 0.65736 0.31625 0.0
C3956 C 0.99868 0.64835 0.29273 0.0
C3957 C 0.99372 0.61388 0.28775 0.0
H3958 H 0.02112 0.6294 0.25966 0.0
C3959 C 0.01147 0.57458 0.26111 0.0
C3960 C 0.01663 0.57874 0.24294 0.0
C3961 C 0.00677 0.5858 0.26963 0.0
C3962 C 0.01316 0.62479 0.26716 0.0
H3963 H 0.00773 0.64583 0.33043 0.0
H3964 H 0.00547 0.62861 0.31328 0.0
H3965 H 0.01683 0.64462 0.27408 0.0
H3966 H 0.02742 0.59878 0.22584 0.0
H3967 H 0.02032 0.61635 0.241 0.0
H3968 H 0.99001 0.5941 0.28097 0.0
C3969 C 0.00366 0.63667 0.3102 0.0
C3970 C 0.01073 0.63357 0.27544 0.0
C3971 C 0.00502 0.64654 0.31997 0.0
C3972 C 0.02339 0.59626 0.23609 0.0
C3973 C 0.01831 0.60681 0.24538 0.0
C3974 C 0.99598 0.60509 0.27933 0.0
C3975 C 0.00078 0.63765 0.29646 0.0
C3976 C 0.00129 0.62821 0.28605 0.0
C3977 C 0.00971 0.60139 0.26164 0.0
C3978 C 0.00605 0.61049 0.26925 0.0
H3979 H 0.99831 0.66642 0.29959 0.0
H3980 H 0.99651 0.6493 0.28215 0.0
H3981 H 0.98633 0.60954 0.29586 0.0
H3982 H 0.00893 0.56478 0.26531 0.0
H3983 H 0.00237 0.58321 0.27971 0.0
C3984 C 0.35823 0.36768 0.31547 0.0
C3985 C 0.35098 0.35322 0.31622 0.0
C3986 C 0.36977 0.37441 0.30735 0.0
C3987 C 0.39661 0.36944 0.29288 0.0
H3988 H 0.40674 0.4033 0.27437 0.0
C3989 C 0.44808 0.40046 0.26574 0.0
C3990 C 0.45532 0.41472 0.2689 0.0
C3991 C 0.43436 0.39229 0.26911 0.0
C3992 C 0.40405 0.39387 0.27951 0.0
H3993 H 0.34977 0.33441 0.30859 0.0
H3994 H 0.36986 0.34615 0.29425 0.0
H3995 H 0.38424 0.39003 0.28445 0.0
H3996 H 0.45386 0.43163 0.27791 0.0
H3997 H 0.42993 0.41742 0.28381 0.0
H3998 H 0.4165 0.37343 0.28821 0.0
C3999 C 0.36675 0.35231 0.30012 0.0
C4000 C 0.39118 0.38627 0.2853 0.0
C4001 C 0.3552 0.34558 0.30827 0.0
C4002 C 0.44848 0.4207 0.27521 0.0
C4003 C 0.43477 0.41256 0.27853 0.0
C4004 C 0.40946 0.37702 0.28707 0.0
C4005 C 0.37433 0.36682 0.29977 0.0
C4006 C 0.3874 0.37411 0.2923 0.0
C4007 C 0.4276 0.39823 0.27573 0.0
C4008 C 0.41343 0.38946 0.28055 0.0
H4009 H 0.35523 0.37385 0.32148 0.0
H4010 H 0.37544 0.38559 0.30746 0.0
H4011 H 0.39412 0.36024 0.29836 0.0
H4012 H 0.45314 0.39558 0.26097 0.0
H4013 H 0.42908 0.3813 0.26672 0.0
C4014 C 0.33758 0.32012 0.3752 0.0
C4015 C 0.32603 0.31432 0.36657 0.0
C4016 C 0.34061 0.31169 0.38272 0.0
C4017 C 0.33525 0.27681 0.38103 0.0
H4018 H 0.35233 0.28682 0.41713 0.0
C4019 C 0.35309 0.24356 0.40669 0.0
C4020 C 0.36605 0.25071 0.41291 0.0
C4021 C 0.34664 0.2506 0.40281 0.0
C4022 C 0.34764 0.28393 0.40702 0.0
H4023 H 0.30821 0.29513 0.35959 0.0
H4024 H 0.31347 0.28035 0.3728 0.0
H4025 H 0.34344 0.30034 0.4074 0.0
H4026 H 0.38239 0.27082 0.42004 0.0
H4027 H 0.37121 0.28321 0.41314 0.0
H4028 H 0.33974 0.26066 0.38043 0.0
C4029 C 0.32027 0.29145 0.37361 0.0
C4030 C 0.34252 0.29165 0.40145 0.0
C4031 C 0.31721 0.29991 0.36612 0.0
C4032 C 0.37233 0.26504 0.41542 0.0
C4033 C 0.36589 0.2721 0.41151 0.0
C4034 C 0.34037 0.26911 0.38657 0.0
C4035 C 0.33219 0.29723 0.38175 0.0
C4036 C 0.33642 0.28829 0.38831 0.0
C4037 C 0.35305 0.265 0.40494 0.0
C4038 C 0.34678 0.27266 0.39956 0.0
H4039 H 0.34457 0.3312 0.3758 0.0
H4040 H 0.34992 0.31649 0.38877 0.0
H4041 H 0.33085 0.27407 0.37078 0.0
H4042 H 0.34805 0.23254 0.40455 0.0
H4043 H 0.33669 0.24478 0.39795 0.0
C4044 C 0.67679 0.02107 0.38047 0.0
C4045 C 0.68442 0.01647 0.37331 0.0
C4046 C 0.6833 0.03384 0.38759 0.0
C4047 C 0.71721 0.06231 0.40042 0.0
H4048 H 0.70206 0.08535 0.39358 0.0
C4049 C 0.74895 0.12175 0.40164 0.0
C4050 C 0.74304 0.12918 0.4067 0.0
C4051 C 0.74138 0.10733 0.40065 0.0
C4052 C 0.70631 0.07899 0.39583 0.0
H4053 H 0.70485 0.02129 0.36855 0.0
H4054 H 0.71616 0.04357 0.38072 0.0
H4055 H 0.68939 0.06106 0.38641 0.0
H4056 H 0.7247 0.12736 0.41505 0.0
H4057 H 0.7114 0.10207 0.41328 0.0
H4058 H 0.7344 0.08047 0.40932 0.0
C4059 C 0.70518 0.03732 0.38102 0.0
C4060 C 0.69903 0.06504 0.39173 0.0
C4061 C 0.69868 0.02456 0.37394 0.0
C4062 C 0.72951 0.12187 0.41114 0.0
C4063 C 0.72189 0.10743 0.41006 0.0
C4064 C 0.72452 0.07629 0.40445 0.0
C4065 C 0.69757 0.04227 0.38769 0.0
C4066 C 0.70452 0.05659 0.39369 0.0
C4067 C 0.72769 0.10002 0.40458 0.0
C4068 C 0.71927 0.08485 0.40193 0.0
H4069 H 0.66579 0.01501 0.38023 0.0
H4070 H 0.67714 0.03724 0.39279 0.0
H4071 H 0.72162 0.05604 0.40232 0.0
H4072 H 0.75933 0.12713 0.39806 0.0
H4073 H 0.7461 0.10195 0.39622 0.0
C4074 C 0.98077 0.66956 0.37633 0.0
C4075 C 0.98522 0.68024 0.36698 0.0
C4076 C 0.9689 0.66524 0.38373 0.0
C4077 C 0.94278 0.67382 0.39358 0.0
H4078 H 0.91916 0.63395 0.3931 0.0
C4079 C 0.8849 0.64606 0.40309 0.0
C4080 C 0.8787 0.63352 0.40995 0.0
C4081 C 0.89871 0.65282 0.39994 0.0
C4082 C 0.92569 0.64509 0.39358 0.0
H4083 H 0.98113 0.69531 0.3586 0.0
H4084 H 0.96018 0.6876 0.3714 0.0
H4085 H 0.94192 0.64413 0.384 0.0
H4086 H 0.8821 0.61823 0.41897 0.0
H4087 H 0.9063 0.63015 0.41375 0.0
H4088 H 0.92631 0.6747 0.40294 0.0
C4089 C 0.96597 0.68266 0.37311 0.0
C4090 C 0.93878 0.65095 0.38834 0.0
C4091 C 0.97795 0.68706 0.36575 0.0
C4092 C 0.88665 0.62798 0.41384 0.0
C4093 C 0.90047 0.63475 0.41072 0.0
C4094 C 0.92964 0.66794 0.39886 0.0
C4095 C 0.9611 0.67141 0.38188 0.0
C4096 C 0.94746 0.66538 0.38819 0.0
C4097 C 0.90662 0.64712 0.4035 0.0
C4098 C 0.92091 0.65349 0.39882 0.0
H4099 H 0.98625 0.66421 0.37764 0.0
H4100 H 0.96562 0.65677 0.39064 0.0
H4101 H 0.94926 0.68496 0.39374 0.0
H4102 H 0.87896 0.65043 0.39977 0.0
H4103 H 0.90305 0.66219 0.39419 0.0
C4104 C 0.37492 0.03052 0.69998 0.0
C4105 C 0.36182 0.01877 0.69849 0.0
C4106 C 0.38476 0.03024 0.70816 0.0
C4107 C 0.39408 0.00586 0.71971 0.0
H4108 H 0.41886 0.03546 0.74481 0.0
C4109 C 0.43451 0.00153 0.74972 0.0
C4110 C 0.44754 0.0134 0.75093 0.0
C4111 C 0.4235 0.00241 0.74508 0.0
C4112 C 0.41211 0.02717 0.73773 0.0
H4113 H 0.34861 0.99769 0.70481 0.0
H4114 H 0.36583 0.99717 0.71896 0.0
H4115 H 0.40062 0.03679 0.73345 0.0
H4116 H 0.45907 0.03564 0.74902 0.0
H4117 H 0.43997 0.03714 0.74035 0.0
H4118 H 0.40572 0.99645 0.72344 0.0
C4119 C 0.36848 0.00657 0.71377 0.0
C4120 C 0.40164 0.02792 0.73128 0.0
C4121 C 0.35862 0.0069 0.70572 0.0
C4122 C 0.44918 0.02628 0.74797 0.0
C4123 C 0.43819 0.02714 0.74315 0.0
C4124 C 0.4046 0.00518 0.72601 0.0
C4125 C 0.38172 0.01815 0.71487 0.0
C4126 C 0.39253 0.01727 0.7222 0.0
C4127 C 0.42525 0.01517 0.74139 0.0
C4128 C 0.41378 0.01582 0.7351 0.0
H4129 H 0.37767 0.03983 0.69456 0.0
H4130 H 0.3949 0.03928 0.70876 0.0
H4131 H 0.38737 0.99762 0.71256 0.0
H4132 H 0.43287 0.99149 0.75214 0.0
H4133 H 0.41363 0.99302 0.74425 0.0
C4134 C 0.00771 0.35485 0.70912 0.0
C4135 C 0.99743 0.34981 0.69901 0.0
C4136 C 0.00996 0.36578 0.71801 0.0
C4137 C 0.99424 0.38595 0.73012 0.0
H4138 H 0.0316 0.41469 0.73787 0.0
C4139 C 0.0056 0.44444 0.75016 0.0
C4140 C 0.01829 0.45131 0.76452 0.0
C4141 C 0.00258 0.42847 0.74237 0.0
C4142 C 0.02112 0.40667 0.73596 0.0
H4143 H 0.98134 0.35209 0.69036 0.0
H4144 H 0.98548 0.37131 0.70548 0.0
H4145 H 0.02687 0.39371 0.72531 0.0
H4146 H 0.03978 0.452 0.77394 0.0
H4147 H 0.03441 0.42684 0.75983 0.0
H4148 H 0.98857 0.3992 0.74035 0.0
C4149 C 0.99163 0.36669 0.70686 0.0
C4150 C 0.01839 0.39461 0.72879 0.0
C4151 C 0.98931 0.35571 0.69809 0.0
C4152 C 0.03181 0.44702 0.76621 0.0
C4153 C 0.02797 0.43099 0.75787 0.0
C4154 C 0.997 0.39808 0.73713 0.0
C4155 C 0.00204 0.37194 0.71687 0.0
C4156 C 0.00492 0.38418 0.7256 0.0
C4157 C 0.01331 0.42168 0.74658 0.0
C4158 C 0.01045 0.40859 0.73994 0.0
H4159 H 0.01407 0.35042 0.71009 0.0
H4160 H 0.01794 0.36944 0.72573 0.0
H4161 H 0.98374 0.37801 0.72814 0.0
H4162 H 0.99867 0.44808 0.74853 0.0
H4163 H 0.9943 0.42296 0.73506 0.0
C4164 C 0.64344 0.63704 0.7012 0.0
C4165 C 0.64937 0.65137 0.70001 0.0
C4166 C 0.63213 0.6296 0.70947 0.0
C4167 C 0.6118 0.63295 0.73724 0.0
H4168 H 0.58263 0.59879 0.72079 0.0
C4169 C 0.55669 0.605 0.75724 0.0
C4170 C 0.5493 0.59048 0.75689 0.0
C4171 C 0.56965 0.6123 0.7516 0.0
C4172 C 0.59074 0.60817 0.72566 0.0
H4173 H 0.64844 0.66925 0.70694 0.0
H4174 H 0.62855 0.65622 0.7213 0.0
H4175 H 0.60398 0.61182 0.70879 0.0
H4176 H 0.54965 0.57222 0.75019 0.0
H4177 H 0.57241 0.58495 0.7406 0.0
H4178 H 0.59841 0.62934 0.75404 0.0
C4179 C 0.63272 0.65075 0.71593 0.0
C4180 C 0.603 0.61567 0.71876 0.0
C4181 C 0.64407 0.6582 0.70766 0.0
C4182 C 0.55519 0.58341 0.75082 0.0
C4183 C 0.56817 0.59071 0.74521 0.0
C4184 C 0.59951 0.62543 0.74416 0.0
C4185 C 0.62646 0.63632 0.71672 0.0
C4186 C 0.61366 0.62817 0.72443 0.0
C4187 C 0.57548 0.60524 0.74537 0.0
C4188 C 0.58881 0.61298 0.73841 0.0
H4189 H 0.64736 0.63149 0.69553 0.0
H4190 H 0.62772 0.61854 0.71006 0.0
H4191 H 0.61987 0.64247 0.74195 0.0
H4192 H 0.55228 0.6107 0.76161 0.0
H4193 H 0.5749 0.62348 0.7517 0.0
C4194 C 0.66283 0.68622 0.64136 0.0
C4195 C 0.67422 0.69201 0.65021 0.0
C4196 C 0.66008 0.69466 0.6335 0.0
C4197 C 0.66593 0.72977 0.63356 0.0
H4198 H 0.64978 0.71855 0.5971 0.0
C4199 C 0.64768 0.76122 0.60424 0.0
C4200 C 0.63481 0.7534 0.59786 0.0
C4201 C 0.65434 0.75474 0.60924 0.0
C4202 C 0.65423 0.7218 0.6073 0.0
H4203 H 0.69194 0.71118 0.65739 0.0
H4204 H 0.68716 0.72597 0.64357 0.0
H4205 H 0.65843 0.70545 0.60815 0.0
H4206 H 0.61877 0.73268 0.59191 0.0
H4207 H 0.63034 0.72137 0.60063 0.0
H4208 H 0.66142 0.7459 0.63286 0.0
C4209 C 0.68029 0.71489 0.64283 0.0
C4210 C 0.6592 0.7143 0.61362 0.0
C4211 C 0.68308 0.70641 0.65067 0.0
C4212 C 0.62879 0.73899 0.59654 0.0
C4213 C 0.63545 0.73253 0.6015 0.0
C4214 C 0.66096 0.73727 0.62723 0.0
C4215 C 0.66864 0.70911 0.63431 0.0
C4216 C 0.66485 0.71802 0.62694 0.0
C4217 C 0.64825 0.7403 0.60802 0.0
C4218 C 0.6548 0.73321 0.61414 0.0
H4219 H 0.6558 0.67516 0.64076 0.0
H4220 H 0.65093 0.68986 0.6272 0.0
H4221 H 0.67006 0.73282 0.64389 0.0
H4222 H 0.65246 0.77232 0.60558 0.0
H4223 H 0.66422 0.76103 0.61414 0.0
C4224 C 0.32719 0.98073 0.6421 0.0
C4225 C 0.32007 0.98608 0.649 0.0
C4226 C 0.32016 0.9684 0.63426 0.0
C4227 C 0.2866 0.94403 0.61793 0.0
H4228 H 0.29634 0.9165 0.62441 0.0
C4229 C 0.24947 0.88589 0.60801 0.0
C4230 C 0.25454 0.87795 0.60219 0.0
C4231 C 0.25828 0.89974 0.61184 0.0
C4232 C 0.29362 0.92414 0.6223 0.0
H4233 H 0.30008 0.98305 0.6527 0.0
H4234 H 0.28786 0.96161 0.63918 0.0
H4235 H 0.31052 0.93987 0.63405 0.0
H4236 H 0.27284 0.87816 0.59623 0.0
H4237 H 0.28829 0.90245 0.6029 0.0
H4238 H 0.26948 0.92816 0.60651 0.0
C4239 C 0.29886 0.96692 0.63968 0.0
C4240 C 0.30176 0.93754 0.6278 0.0
C4241 C 0.30586 0.97917 0.64752 0.0
C4242 C 0.26864 0.88411 0.60049 0.0
C4243 C 0.27748 0.89797 0.60438 0.0
C4244 C 0.27845 0.93062 0.61245 0.0
C4245 C 0.30589 0.96127 0.63313 0.0
C4246 C 0.29819 0.94756 0.62591 0.0
C4247 C 0.27238 0.90592 0.61011 0.0
C4248 C 0.28172 0.92046 0.61481 0.0
H4249 H 0.33815 0.98586 0.64304 0.0
H4250 H 0.32587 0.96437 0.62922 0.0
H4251 H 0.28371 0.95158 0.61608 0.0
H4252 H 0.23868 0.88132 0.60975 0.0
H4253 H 0.25407 0.90551 0.61649 0.0
C4254 C 0.02422 0.33885 0.64219 0.0
C4255 C 0.01842 0.32714 0.65035 0.0
C4256 C 0.03606 0.34266 0.63488 0.0
C4257 C 0.06615 0.33915 0.63557 0.0
H4258 H 0.07294 0.35623 0.60019 0.0
C4259 C 0.11701 0.35888 0.60751 0.0
C4260 C 0.12272 0.37201 0.60184 0.0
C4261 C 0.10365 0.35204 0.61223 0.0
C4262 C 0.07122 0.35154 0.6101 0.0
H4263 H 0.02017 0.30991 0.6568 0.0
H4264 H 0.04081 0.3165 0.64387 0.0
H4265 H 0.05043 0.34625 0.61025 0.0
H4266 H 0.119 0.38834 0.59688 0.0
H4267 H 0.09567 0.37642 0.60512 0.0
H4268 H 0.08698 0.34462 0.63552 0.0
C4269 C 0.0363 0.32284 0.64331 0.0
C4270 C 0.05832 0.34582 0.61587 0.0
C4271 C 0.02443 0.31902 0.65063 0.0
C4272 C 0.11479 0.37814 0.60099 0.0
C4273 C 0.10142 0.37128 0.60567 0.0
C4274 C 0.07903 0.34484 0.62979 0.0
C4275 C 0.04239 0.33485 0.63553 0.0
C4276 C 0.05569 0.33974 0.62877 0.0
C4277 C 0.09573 0.3582 0.61143 0.0
C4278 C 0.08177 0.35128 0.61709 0.0
H4279 H 0.01986 0.34534 0.64176 0.0
H4280 H 0.04054 0.35206 0.62915 0.0
H4281 H 0.06455 0.33475 0.64562 0.0
H4282 H 0.12295 0.35398 0.60845 0.0
H4283 H 0.09954 0.34193 0.61654 0.0
C4284 C 0.32007 0.33954 0.6411 0.0
C4285 C 0.31388 0.32875 0.65038 0.0
C4286 C 0.31234 0.34366 0.63388 0.0
C4287 C 0.27725 0.33438 0.62442 0.0
H4288 H 0.29312 0.37413 0.62602 0.0
C4289 C 0.24605 0.36073 0.6164 0.0
C4290 C 0.25228 0.37348 0.60991 0.0
C4291 C 0.25339 0.35432 0.61924 0.0
C4292 C 0.28861 0.36303 0.62522 0.0
H4293 H 0.29462 0.31324 0.65872 0.0
H4294 H 0.28108 0.32053 0.64619 0.0
H4295 H 0.30609 0.3643 0.63442 0.0
H4296 H 0.2711 0.38953 0.6013 0.0
H4297 H 0.28386 0.37821 0.60593 0.0
H4298 H 0.25963 0.33317 0.61543 0.0
C4299 C 0.29192 0.32575 0.64443 0.0
C4300 C 0.29606 0.35738 0.63006 0.0
C4301 C 0.29967 0.32158 0.65163 0.0
C4302 C 0.26597 0.37961 0.60613 0.0
C4303 C 0.2733 0.37318 0.60892 0.0
C4304 C 0.26977 0.34006 0.61954 0.0
C4305 C 0.29824 0.33714 0.63581 0.0
C4306 C 0.29045 0.34299 0.62982 0.0
C4307 C 0.26717 0.36057 0.61573 0.0
C4308 C 0.27533 0.35446 0.61999 0.0
H4309 H 0.33099 0.34519 0.63979 0.0
H4310 H 0.31749 0.35226 0.62709 0.0
H4311 H 0.27268 0.32327 0.62398 0.0
H4312 H 0.23558 0.35591 0.61965 0.0
H4313 H 0.2484 0.34475 0.62469 0.0
C4314 C 0.65598 0.98196 0.63117 0.0
C4315 C 0.66831 0.98677 0.6383 0.0
C4316 C 0.64984 0.96931 0.62384 0.0
C4317 C 0.65588 0.94172 0.61033 0.0
H4318 H 0.61748 0.91757 0.61738 0.0
C4319 C 0.62908 0.88243 0.60884 0.0
C4320 C 0.61562 0.8746 0.60392 0.0
C4321 C 0.63571 0.89683 0.60984 0.0
C4322 C 0.62814 0.92424 0.61506 0.0
H4323 H 0.68421 0.98245 0.64279 0.0
H4324 H 0.67347 0.96038 0.63025 0.0
H4325 H 0.62881 0.94177 0.62477 0.0
H4326 H 0.59865 0.87566 0.59583 0.0
H4327 H 0.61023 0.90091 0.59763 0.0
H4328 H 0.65526 0.92396 0.60113 0.0
C4329 C 0.66856 0.96638 0.63013 0.0
C4330 C 0.63465 0.93815 0.61929 0.0
C4331 C 0.67469 0.97901 0.63743 0.0
C4332 C 0.60904 0.88148 0.59963 0.0
C4333 C 0.61564 0.89589 0.60073 0.0
C4334 C 0.64937 0.92779 0.60615 0.0
C4335 C 0.65591 0.96122 0.6235 0.0
C4336 C 0.64867 0.94698 0.61728 0.0
C4337 C 0.62897 0.90371 0.60606 0.0
C4338 C 0.6355 0.91883 0.60877 0.0
H4339 H 0.65086 0.98776 0.63159 0.0
H4340 H 0.6402 0.96573 0.61868 0.0
H4341 H 0.66663 0.9483 0.60838 0.0
H4342 H 0.63436 0.87739 0.61229 0.0
H4343 H 0.64591 0.90252 0.61416 0.0
C4344 C 0.01709 0.67751 0.64521 0.0
C4345 C 0.01198 0.68483 0.65231 0.0
C4346 C 0.02949 0.68462 0.63837 0.0
C4347 C 0.06136 0.71817 0.64009 0.0
H4348 H 0.06885 0.70708 0.60476 0.0
C4349 C 0.11331 0.75089 0.61532 0.0
C4350 C 0.11925 0.74382 0.60942 0.0
C4351 C 0.09962 0.74375 0.61891 0.0
C4352 C 0.06694 0.71024 0.61469 0.0
H4353 H 0.01545 0.70525 0.6572 0.0
H4354 H 0.03693 0.71757 0.64523 0.0
H4355 H 0.04585 0.69426 0.614 0.0
H4356 H 0.11542 0.72382 0.60216 0.0
H4357 H 0.09151 0.71123 0.60873 0.0
H4358 H 0.08236 0.73389 0.64104 0.0
C4359 C 0.03153 0.70639 0.64513 0.0
C4360 C 0.05377 0.7029 0.61996 0.0
C4361 C 0.01918 0.69931 0.65194 0.0
C4362 C 0.11108 0.72951 0.60672 0.0
C4363 C 0.09738 0.72233 0.6104 0.0
C4364 C 0.07448 0.72543 0.63488 0.0
C4365 C 0.03699 0.69915 0.63855 0.0
C4366 C 0.05085 0.70684 0.63271 0.0
C4367 C 0.09157 0.72933 0.61682 0.0
C4368 C 0.07744 0.72161 0.62209 0.0
H4369 H 0.01174 0.66633 0.64531 0.0
H4370 H 0.03348 0.67876 0.63343 0.0
H4371 H 0.05953 0.72127 0.65009 0.0
H4372 H 0.11934 0.76192 0.61745 0.0
H4373 H 0.09541 0.74952 0.62354 0.0
C4374 C 0.99035 0.64531 0.70752 0.0
C4375 C 0.97923 0.64195 0.69885 0.0
C4376 C 0.99061 0.63511 0.71507 0.0
C4377 C 0.97619 0.59747 0.71416 0.0
H4378 H 0.99142 0.60383 0.75096 0.0
C4379 C 0.97548 0.5538 0.74367 0.0
C4380 C 0.98743 0.55702 0.75078 0.0
C4381 C 0.97387 0.56426 0.73846 0.0
C4382 C 0.98723 0.60194 0.74064 0.0
H4383 H 0.95941 0.62538 0.69178 0.0
H4384 H 0.95979 0.60763 0.70506 0.0
H4385 H 0.98947 0.62196 0.74003 0.0
H4386 H 0.00714 0.57372 0.7579 0.0
H4387 H 0.00436 0.59207 0.74875 0.0
H4388 H 0.9741 0.57757 0.71464 0.0
C4389 C 0.96842 0.6181 0.70585 0.0
C4390 C 0.98611 0.61232 0.73439 0.0
C4391 C 0.96816 0.6283 0.6983 0.0
C4392 C 0.99772 0.57096 0.75266 0.0
C4393 C 0.99611 0.58145 0.74745 0.0
C4394 C 0.97731 0.58713 0.7204 0.0
C4395 C 0.97977 0.62132 0.7141 0.0
C4396 C 0.98059 0.61021 0.72106 0.0
C4397 C 0.98423 0.57821 0.74013 0.0
C4398 C 0.98285 0.58922 0.73371 0.0
H4399 H 0.99905 0.65575 0.70817 0.0
H4400 H 0.99955 0.63793 0.72124 0.0
H4401 H 0.97217 0.5956 0.70378 0.0
H4402 H 0.96745 0.54314 0.74193 0.0
H4403 H 0.96453 0.56141 0.73302 0.0
C4404 C 0.34678 0.35839 0.71007 0.0
C4405 C 0.35368 0.35526 0.70006 0.0
C4406 C 0.35353 0.37092 0.71757 0.0
C4407 C 0.38028 0.40638 0.71417 0.0
H4408 H 0.3794 0.40938 0.75381 0.0
C4409 C 0.40834 0.45938 0.74301 0.0
C4410 C 0.40224 0.46114 0.75478 0.0
C4411 C 0.40303 0.44634 0.73662 0.0
C4412 C 0.37957 0.40877 0.74272 0.0
H4413 H 0.37311 0.36257 0.69025 0.0
H4414 H 0.38482 0.38465 0.70315 0.0
H4415 H 0.36892 0.38661 0.74244 0.0
H4416 H 0.38613 0.45032 0.76946 0.0
H4417 H 0.37637 0.4279 0.75789 0.0
H4418 H 0.39032 0.42839 0.71424 0.0
C4419 C 0.37423 0.37735 0.70524 0.0
C4420 C 0.37366 0.39571 0.73625 0.0
C4421 C 0.36755 0.3647 0.69794 0.0
C4422 C 0.39084 0.44948 0.76016 0.0
C4423 C 0.38539 0.43651 0.75364 0.0
C4424 C 0.38597 0.41943 0.7206 0.0
C4425 C 0.36723 0.38062 0.71499 0.0
C4426 C 0.37395 0.39442 0.72193 0.0
C4427 C 0.39143 0.43472 0.74181 0.0
C4428 C 0.38566 0.42082 0.73497 0.0
H4429 H 0.33609 0.35128 0.71192 0.0
H4430 H 0.34792 0.37326 0.725 0.0
H4431 H 0.38047 0.40562 0.70308 0.0
H4432 H 0.41738 0.46807 0.73886 0.0
H4433 H 0.40819 0.44536 0.72775 0.0
C4434 C 0.65263 0.00648 0.69746 0.0
C4435 C 0.65968 0.01784 0.68895 0.0
C4436 C 0.64254 0.00554 0.70619 0.0
C4437 C 0.62864 0.02568 0.72235 0.0
H4438 H 0.59493 0.9902 0.72207 0.0
C4439 C 0.57797 0.01909 0.74105 0.0
C4440 C 0.5689 0.00705 0.74794 0.0
C4441 C 0.58987 0.02067 0.73542 0.0
C4442 C 0.60433 0.00012 0.72248 0.0
H4443 H 0.66201 0.03736 0.68328 0.0
H4444 H 0.64431 0.03567 0.69847 0.0
H4445 H 0.61437 0.99263 0.70956 0.0
H4446 H 0.5651 0.98713 0.7542 0.0
H4447 H 0.58606 0.98998 0.7446 0.0
H4448 H 0.61851 0.0332 0.73514 0.0
C4449 C 0.64666 0.02753 0.69847 0.0
C4450 C 0.61549 0.00152 0.71528 0.0
C4451 C 0.65676 0.02848 0.68971 0.0
C4452 C 0.57202 0.99661 0.74913 0.0
C4453 C 0.58395 0.9982 0.74352 0.0
C4454 C 0.61748 0.02427 0.72958 0.0
C4455 C 0.63927 0.01593 0.70663 0.0
C4456 C 0.62773 0.01434 0.71501 0.0
C4457 C 0.59295 0.01019 0.73647 0.0
C4458 C 0.60514 0.01151 0.72961 0.0
H4459 H 0.6547 0.99815 0.69717 0.0
H4460 H 0.63719 0.99658 0.71251 0.0
H4461 H 0.63799 0.03565 0.7225 0.0
H4462 H 0.57569 0.02718 0.73975 0.0
H4463 H 0.59643 0.02992 0.72984 0.0
loop_
_geom_bond_atom_site_label_1
_geom_bond_atom_site_label_2
_geom_bond_distance
_geom_bond_site_symmetry_2
_ccdc_geom_bond_type
Co0 O1 2.216 . S
Co0 O2 2.091 . S
Co0 O4 2.004 1_554 S
Co0 O10 2.021 . S
Co0 O12 2.137 1_554 S
Co0 O13 2.244 1_455 S
O1 Co0 2.216 . S
O1 C8 1.247 . S
O2 Co0 2.091 . S
O2 C8 1.261 . S
C3 O12 1.247 1_655 S
C3 O13 1.272 1_556 S
O4 Co0 2.004 1_556 S
O4 C9 1.259 . S
Co5 O6 2.015 1_554 S
Co5 O11 2.128 . S
Co5 O13 2.141 . S
O6 Co5 2.015 1_556 S
O6 C9 1.235 1_655 S
C7 O10 1.238 1_655 S
C7 O11 1.241 . S
C8 O1 1.247 . S
C8 O2 1.261 . S
C9 O4 1.259 . S
C9 O6 1.235 1_455 S
O10 Co0 2.021 . S
O10 C7 1.238 1_455 S
O11 Co5 2.128 . S
O11 C7 1.241 . S
O12 Co0 2.137 1_556 S
O12 C3 1.247 1_455 S
O13 Co0 2.244 1_655 S
O13 C3 1.272 1_554 S
O13 Co5 2.141 . S
Co14 O15 2.186 1_554 S
Co14 O16 2.091 . S
Co14 O18 2.004 . S
Co14 O24 2.021 . S
Co14 O26 2.137 . S
Co14 O27 2.244 . S
O15 Co14 2.186 1_556 S
O15 C22 1.242 1_556 S
O16 Co14 2.091 . S
O16 C22 1.281 . S
C17 O26 1.247 . S
C17 O27 1.272 . S
O18 Co14 2.004 . S
O18 C23 1.259 . S
Co19 O20 2.061 . S
Co19 O25 2.052 . S
Co19 O27 2.135 . S
O20 Co19 2.061 . S
O20 C23 1.235 . S
C21 O24 1.238 1_556 S
C21 O25 1.241 1_556 S
C22 O15 1.242 1_554 S
C22 O16 1.281 . S
C23 O18 1.259 . S
C23 O20 1.235 . S
O24 Co14 2.021 . S
O24 C21 1.238 1_554 S
O25 Co19 2.052 . S
O25 C21 1.241 1_554 S
O26 Co14 2.137 . S
O26 C17 1.247 . S
O27 Co14 2.244 . S
O27 C17 1.272 . S
O27 Co19 2.135 . S
Co28 O29 2.216 1_554 S
Co28 O30 2.091 . S
Co28 O32 2.004 . S
Co28 O38 2.021 1_554 S
Co28 O40 2.137 . S
Co28 O41 2.244 1_545 S
O29 Co28 2.216 1_556 S
O29 C36 1.247 . S
O30 Co28 2.091 . S
O30 C36 1.261 1_554 S
C31 O40 1.247 1_565 S
C31 O41 1.272 . S
O32 Co28 2.004 . S
O32 C37 1.259 . S
Co33 O34 2.061 . S
Co33 O39 2.052 1_554 S
Co33 O41 2.135 . S
O34 Co33 2.061 . S
O34 C37 1.235 1_565 S
C35 O38 1.251 . S
C35 O39 1.230 1_545 S
C36 O29 1.247 . S
C36 O30 1.261 1_556 S
C37 O32 1.259 . S
C37 O34 1.235 1_545 S
O38 Co28 2.021 1_556 S
O38 C35 1.251 . S
O39 Co33 2.052 1_556 S
O39 C35 1.230 1_565 S
O40 Co28 2.137 . S
O40 C31 1.247 1_545 S
O41 Co28 2.244 1_565 S
O41 C31 1.272 . S
O41 Co33 2.135 . S
Co42 O43 2.216 1_554 S
Co42 O44 2.091 . S
Co42 O46 2.004 . S
Co42 O52 2.021 1_554 S
Co42 O54 2.137 1_655 S
Co42 O55 2.244 1_655 S
O43 Co42 2.216 1_556 S
O43 C50 1.247 . S
O44 Co42 2.091 . S
O44 C50 1.261 1_554 S
C45 O54 1.247 . S
C45 O55 1.272 . S
O46 Co42 2.004 . S
O46 C51 1.259 . S
Co47 O48 2.061 . S
Co47 O53 2.052 1_554 S
Co47 O55 2.135 . S
O48 Co47 2.061 . S
O48 C51 1.235 1_455 S
C49 O52 1.238 1_455 S
C49 O53 1.241 . S
C50 O43 1.247 . S
C50 O44 1.261 1_556 S
C51 O46 1.259 . S
C51 O48 1.235 1_655 S
O52 Co42 2.021 1_556 S
O52 C49 1.238 1_655 S
O53 Co47 2.052 1_556 S
O53 C49 1.241 . S
O54 Co42 2.137 1_455 S
O54 C45 1.247 . S
O55 Co42 2.244 1_455 S
O55 C45 1.272 . S
O55 Co47 2.135 . S
Co56 O57 2.216 . S
Co56 O58 2.091 . S
Co56 O60 2.004 1_554 S
Co56 O66 2.021 . S
Co56 O68 2.137 1_554 S
Co56 O69 2.244 1_554 S
O57 Co56 2.216 . S
O57 C64 1.247 . S
O58 Co56 2.091 . S
O58 C64 1.261 . S
C59 O68 1.247 . S
C59 O69 1.272 . S
O60 Co56 2.004 1_556 S
O60 C65 1.259 . S
Co61 O62 2.061 . S
Co61 O67 2.052 1_556 S
Co61 O69 2.135 . S
O62 Co61 2.061 . S
O62 C65 1.235 . S
C63 O66 1.238 . S
C63 O67 1.241 . S
C64 O57 1.247 . S
C64 O58 1.261 . S
C65 O60 1.259 . S
C65 O62 1.235 . S
O66 Co56 2.021 . S
O66 C63 1.238 . S
O67 Co61 2.052 1_554 S
O67 C63 1.241 . S
O68 Co56 2.137 1_556 S
O68 C59 1.247 . S
O69 Co56 2.244 1_556 S
O69 C59 1.272 . S
O69 Co61 2.135 . S
Co70 O71 2.216 . S
Co70 O72 2.091 . S
Co70 O74 2.004 1_554 S
Co70 O80 2.021 . S
Co70 O82 2.137 1_564 S
Co70 O83 2.244 1_565 S
O71 Co70 2.216 . S
O71 C78 1.247 . S
O72 Co70 2.091 . S
O72 C78 1.261 . S
C73 O82 1.247 . S
C73 O83 1.272 1_556 S
O74 Co70 2.004 1_556 S
O74 C79 1.259 . S
Co75 O76 2.061 1_554 S
Co75 O81 2.052 . S
Co75 O83 2.135 . S
O76 Co75 2.061 1_556 S
O76 C79 1.235 1_545 S
C77 O80 1.238 1_545 S
C77 O81 1.241 . S
C78 O71 1.247 . S
C78 O72 1.261 . S
C79 O74 1.259 . S
C79 O76 1.235 1_565 S
O80 Co70 2.021 . S
O80 C77 1.238 1_565 S
O81 Co75 2.052 . S
O81 C77 1.241 . S
O82 Co70 2.137 1_546 S
O82 C73 1.247 . S
O83 Co70 2.244 1_545 S
O83 C73 1.272 1_554 S
O83 Co75 2.135 . S
Co84 O85 2.216 . S
Co84 O86 2.091 . S
Co84 O88 2.004 . S
Co84 O94 2.021 . S
Co84 O96 2.137 . S
Co84 O97 2.244 . S
O85 Co84 2.216 . S
O85 C92 1.247 . S
O86 Co84 2.091 . S
O86 C92 1.261 . S
C87 O96 1.247 . S
C87 O97 1.272 . S
O88 Co84 2.004 . S
O88 C93 1.259 . S
Co89 O90 2.061 . S
Co89 O95 2.052 . S
Co89 O97 2.135 . S
O90 Co89 2.061 . S
O90 C93 1.235 . S
C91 O94 1.238 . S
C91 O95 1.241 . S
C92 O85 1.247 . S
C92 O86 1.261 . S
C93 O88 1.259 . S
C93 O90 1.235 . S
O94 Co84 2.021 . S
O94 C91 1.238 . S
O95 Co89 2.052 . S
O95 C91 1.241 . S
O96 Co84 2.137 . S
O96 C87 1.247 . S
O97 Co84 2.244 . S
O97 C87 1.272 . S
O97 Co89 2.135 . S
Co98 O99 2.216 . S
Co98 O100 2.091 . S
Co98 O102 2.004 . S
Co98 O108 2.021 . S
Co98 O110 2.136 . S
Co98 O111 2.244 . S
O99 Co98 2.216 . S
O99 C106 1.247 . S
O100 Co98 2.091 . S
O100 C106 1.261 . S
C101 O110 1.249 1_545 S
C101 O111 1.272 1_545 S
O102 Co98 2.004 . S
O102 C107 1.259 . S
Co103 O104 2.061 . S
Co103 O109 2.052 . S
Co103 O111 2.135 . S
O104 Co103 2.061 . S
O104 C107 1.235 . S
C105 O108 1.238 . S
C105 O109 1.241 . S
C106 O99 1.247 . S
C106 O100 1.261 . S
C107 O102 1.259 . S
C107 O104 1.235 . S
O108 Co98 2.021 . S
O108 C105 1.238 . S
O109 Co103 2.052 . S
O109 C105 1.241 . S
O110 Co98 2.136 . S
O110 C101 1.249 1_565 S
O111 Co98 2.244 . S
O111 C101 1.272 1_565 S
O111 Co103 2.135 . S
Co112 O113 2.216 . S
Co112 O114 2.091 . S
Co112 O116 2.004 . S
Co112 O122 2.021 . S
Co112 O124 2.137 . S
Co112 O125 2.244 . S
O113 Co112 2.216 . S
O113 C120 1.247 . S
O114 Co112 2.091 . S
O114 C120 1.261 . S
C115 O124 1.247 . S
C115 O125 1.272 . S
O116 Co112 2.004 . S
O116 C121 1.259 . S
Co117 O118 2.061 . S
Co117 O123 2.052 . S
Co117 O125 2.135 . S
O118 Co117 2.061 . S
O118 C121 1.235 . S
C119 O122 1.238 . S
C119 O123 1.241 . S
C120 O113 1.247 . S
C120 O114 1.261 . S
C121 O116 1.259 . S
C121 O118 1.235 . S
O122 Co112 2.021 . S
O122 C119 1.238 . S
O123 Co117 2.052 . S
O123 C119 1.241 . S
O124 Co112 2.137 . S
O124 C115 1.247 . S
O125 Co112 2.244 . S
O125 C115 1.272 . S
O125 Co117 2.135 . S
Co126 O127 2.216 . S
Co126 O128 2.091 . S
Co126 O130 2.004 . S
Co126 O136 2.021 . S
Co126 O138 2.078 1_565 S
Co126 O139 2.244 . S
O127 Co126 2.216 . S
O127 C134 1.247 . S
O128 Co126 2.091 . S
O128 C134 1.261 . S
C129 O138 1.232 . S
C129 O139 1.272 1_545 S
O130 Co126 2.004 . S
O130 C135 1.259 . S
Co131 O132 2.061 . S
Co131 O137 2.052 . S
Co131 O139 2.135 . S
O132 Co131 2.061 . S
O132 C135 1.235 . S
C133 O136 1.238 . S
C133 O137 1.241 . S
C134 O127 1.247 . S
C134 O128 1.261 . S
C135 O130 1.259 . S
C135 O132 1.235 . S
O136 Co126 2.021 . S
O136 C133 1.238 . S
O137 Co131 2.052 . S
O137 C133 1.241 . S
O138 Co126 2.078 1_545 S
O138 C129 1.232 . S
O139 Co126 2.244 . S
O139 C129 1.272 1_565 S
O139 Co131 2.135 . S
Co140 O141 2.216 1_455 S
Co140 O142 2.091 1_455 S
Co140 O144 2.004 . S
Co140 O150 2.021 . S
Co140 O152 2.137 . S
Co140 O153 2.244 . S
O141 Co140 2.216 1_655 S
O141 C148 1.247 . S
O142 Co140 2.091 1_655 S
O142 C148 1.261 . S
C143 O152 1.247 . S
C143 O153 1.272 . S
O144 Co140 2.004 . S
O144 C149 1.259 . S
Co145 O146 2.061 . S
Co145 O151 2.052 . S
Co145 O153 2.135 . S
O146 Co145 2.061 . S
O146 C149 1.235 . S
C147 O150 1.238 . S
C147 O151 1.241 . S
C148 O141 1.247 . S
C148 O142 1.261 . S
C149 O144 1.259 . S
C149 O146 1.235 . S
O150 Co140 2.021 . S
O150 C147 1.238 . S
O151 Co145 2.052 . S
O151 C147 1.241 . S
O152 Co140 2.137 . S
O152 C143 1.247 . S
O153 Co140 2.244 . S
O153 C143 1.272 . S
O153 Co145 2.135 . S
Co154 O155 2.216 . S
Co154 O156 2.091 . S
Co154 O158 2.004 . S
Co154 O164 2.021 . S
Co154 O166 2.137 . S
Co154 O167 2.244 . S
O155 Co154 2.216 . S
O155 C162 1.247 . S
O156 Co154 2.091 . S
O156 C162 1.261 . S
C157 O166 1.247 . S
C157 O167 1.272 . S
O158 Co154 2.004 . S
O158 C163 1.259 . S
Co159 O160 2.061 . S
Co159 O165 2.052 . S
Co159 O167 2.135 . S
O160 Co159 2.061 . S
O160 C163 1.235 . S
C161 O164 1.238 . S
C161 O165 1.241 . S
C162 O155 1.247 . S
C162 O156 1.261 . S
C163 O158 1.259 . S
C163 O160 1.235 . S
O164 Co154 2.021 . S
O164 C161 1.238 . S
O165 Co159 2.052 . S
O165 C161 1.241 . S
O166 Co154 2.137 . S
O166 C157 1.247 . S
O167 Co154 2.244 . S
O167 C157 1.272 . S
O167 Co159 2.135 . S
Co168 O169 2.216 . S
Co168 O170 2.091 . S
Co168 O172 2.004 . S
Co168 O178 2.021 . S
Co168 O180 2.137 . S
Co168 O181 2.244 . S
O169 Co168 2.216 . S
O169 C176 1.247 . S
O170 Co168 2.091 . S
O170 C176 1.261 . S
C171 O180 1.269 1_565 S
C171 O181 1.206 1_565 S
O172 Co168 2.004 . S
O172 C177 1.259 . S
Co173 O174 2.061 . S
Co173 O179 2.052 . S
Co173 O181 2.135 . S
O174 Co173 2.061 . S
O174 C177 1.235 . S
C175 O178 1.238 . S
C175 O179 1.241 . S
C176 O169 1.247 . S
C176 O170 1.261 . S
C177 O172 1.259 . S
C177 O174 1.235 . S
O178 Co168 2.021 . S
O178 C175 1.238 . S
O179 Co173 2.052 . S
O179 C175 1.241 . S
O180 Co168 2.137 . S
O180 C171 1.269 1_545 S
O181 Co168 2.244 . S
O181 C171 1.206 1_545 S
O181 Co173 2.135 . S
Co182 O183 2.216 1_655 S
Co182 O184 2.091 1_655 S
Co182 O186 2.004 . S
Co182 O192 2.021 . S
Co182 O194 2.134 1_655 S
Co182 O195 2.244 . S
O183 Co182 2.216 1_455 S
O183 C190 1.247 . S
O184 Co182 2.091 1_455 S
O184 C190 1.261 . S
C185 O194 1.187 1_655 S
C185 O195 1.272 . S
O186 Co182 2.004 . S
O186 C191 1.259 . S
Co187 O188 2.061 . S
Co187 O193 2.052 . S
Co187 O195 2.135 . S
O188 Co187 2.061 . S
O188 C191 1.235 . S
C189 O192 1.238 . S
C189 O193 1.241 . S
C190 O183 1.247 . S
C190 O184 1.261 . S
C191 O186 1.259 . S
C191 O188 1.235 . S
O192 Co182 2.021 . S
O192 C189 1.238 . S
O193 Co187 2.052 . S
O193 C189 1.241 . S
O194 Co182 2.134 1_455 S
O194 C185 1.187 1_455 S
O195 Co182 2.244 . S
O195 C185 1.272 . S
O195 Co187 2.135 . S
Co196 O197 2.216 . S
Co196 O198 2.091 . S
Co196 O200 2.004 . S
Co196 O206 2.021 . S
Co196 O208 2.137 . S
Co196 O209 2.244 . S
O197 Co196 2.216 . S
O197 C204 1.247 . S
O198 Co196 2.091 . S
O198 C204 1.261 . S
C199 O208 1.247 . S
C199 O209 1.272 . S
O200 Co196 2.004 . S
O200 C205 1.259 . S
Co201 O202 2.061 . S
Co201 O207 2.052 . S
Co201 O209 2.135 . S
O202 Co201 2.061 . S
O202 C205 1.235 . S
C203 O206 1.238 . S
C203 O207 1.241 . S
C204 O197 1.247 . S
C204 O198 1.261 . S
C205 O200 1.259 . S
C205 O202 1.235 . S
O206 Co196 2.021 . S
O206 C203 1.238 . S
O207 Co201 2.052 . S
O207 C203 1.241 . S
O208 Co196 2.137 . S
O208 C199 1.247 . S
O209 Co196 2.244 . S
O209 C199 1.272 . S
O209 Co201 2.135 . S
Co210 O211 2.216 . S
Co210 O212 2.091 . S
Co210 O214 2.004 . S
Co210 O220 2.021 . S
Co210 O222 2.137 . S
Co210 O223 2.244 . S
O211 Co210 2.216 . S
O211 C218 1.247 . S
O212 Co210 2.091 . S
O212 C218 1.261 . S
C213 O222 1.247 . S
C213 O223 1.272 . S
O214 Co210 2.004 . S
O214 C219 1.259 . S
Co215 O216 2.061 . S
Co215 O221 2.052 . S
Co215 O223 2.135 . S
O216 Co215 2.061 . S
O216 C219 1.235 . S
C217 O220 1.238 . S
C217 O221 1.241 . S
C218 O211 1.247 . S
C218 O212 1.261 . S
C219 O214 1.259 . S
C219 O216 1.235 . S
O220 Co210 2.021 . S
O220 C217 1.238 . S
O221 Co215 2.052 . S
O221 C217 1.241 . S
O222 Co210 2.137 . S
O222 C213 1.247 . S
O223 Co210 2.244 . S
O223 C213 1.272 . S
O223 Co215 2.135 . S
Co224 O225 2.216 . S
Co224 O226 2.091 . S
Co224 O228 2.004 . S
Co224 O234 2.021 . S
Co224 O236 2.137 . S
Co224 O237 2.244 . S
O225 Co224 2.216 . S
O225 C232 1.247 . S
O226 Co224 2.091 . S
O226 C232 1.261 . S
C227 O236 1.250 1_565 S
C227 O237 1.272 1_565 S
O228 Co224 2.004 . S
O228 C233 1.259 . S
Co229 O230 2.061 . S
Co229 O235 2.052 . S
Co229 O237 2.135 . S
O230 Co229 2.061 . S
O230 C233 1.235 . S
C231 O234 1.238 . S
C231 O235 1.241 . S
C232 O225 1.247 . S
C232 O226 1.261 . S
C233 O228 1.259 . S
C233 O230 1.235 . S
O234 Co224 2.021 . S
O234 C231 1.238 . S
O235 Co229 2.052 . S
O235 C231 1.241 . S
O236 Co224 2.137 . S
O236 C227 1.250 1_545 S
O237 Co224 2.244 . S
O237 C227 1.272 1_545 S
O237 Co229 2.135 . S
Co238 O239 2.216 . S
Co238 O240 2.091 . S
Co238 O242 2.004 . S
Co238 O248 2.021 . S
Co238 O250 2.137 . S
Co238 O251 2.244 . S
O239 Co238 2.216 . S
O239 C246 1.247 . S
O240 Co238 2.091 . S
O240 C246 1.261 . S
C241 O250 1.232 . S
C241 O251 1.338 . S
O242 Co238 2.004 . S
O242 C247 1.259 . S
Co243 O244 2.061 . S
Co243 O249 2.052 . S
Co243 O251 2.135 . S
O244 Co243 2.061 . S
O244 C247 1.235 . S
C245 O248 1.238 . S
C245 O249 1.241 . S
C246 O239 1.247 . S
C246 O240 1.261 . S
C247 O242 1.259 . S
C247 O244 1.235 . S
O248 Co238 2.021 . S
O248 C245 1.238 . S
O249 Co243 2.052 . S
O249 C245 1.241 . S
O250 Co238 2.137 . S
O250 C241 1.232 . S
O251 Co238 2.244 . S
O251 C241 1.338 . S
O251 Co243 2.135 . S
C252 C253 1.560 . S
C252 H313 0.959 . S
C252 H314 0.959 . S
C252 H315 0.960 . S
C253 C252 1.560 . S
C253 O308 1.426 . S
C253 H312 0.980 . S
C254 C255 1.407 . S
C254 C259 1.418 . S
C254 O308 1.334 . S
C255 C254 1.407 . S
C255 C256 1.360 . S
C255 H316 0.929 . S
C256 C255 1.360 . S
C256 C257 1.401 . S
C256 C260 1.527 . S
C257 C256 1.401 . S
C257 C258 1.405 . S
C257 C290 1.587 . S
C258 C257 1.405 . S
C258 C259 1.332 . S
C258 C261 1.496 . S
C259 C254 1.418 . S
C259 C258 1.332 . S
C259 H317 0.929 . S
C260 C256 1.527 . S
C260 H318 0.959 . S
C260 H319 0.961 . S
C260 H320 0.961 . S
C261 C258 1.496 . S
C261 H321 0.960 . S
C261 H322 0.960 . S
C261 H323 0.961 . S
C262 C263 1.517 . S
C262 H325 0.961 . S
C262 H326 0.960 . S
C262 H327 0.959 . S
C263 C262 1.517 . S
C263 O311 1.468 . S
C263 H324 0.980 . S
C264 C265 1.349 . S
C264 C269 1.367 . S
C264 O311 1.408 . S
C265 C264 1.349 . S
C265 C266 1.407 . S
C265 H328 0.930 . S
C266 C265 1.407 . S
C266 C267 1.449 . S
C266 C270 1.535 . S
C267 C266 1.449 . S
C267 C268 1.384 . S
C267 C292 1.553 . S
C268 C267 1.384 . S
C268 C269 1.364 . S
C268 C271 1.450 . S
C269 C264 1.367 . S
C269 C268 1.364 . S
C269 H329 0.931 . S
C270 C266 1.535 . S
C270 H330 0.959 . S
C270 H331 0.961 . S
C270 H332 0.959 . S
C271 C268 1.450 . S
C271 H333 0.960 . S
C271 H334 0.960 . S
C271 H335 0.960 . S
C272 C273 1.309 . S
C272 C277 1.304 . S
C272 O310 1.435 . S
C273 C272 1.309 . S
C273 C274 1.476 . S
C273 H337 0.930 . S
C274 C273 1.476 . S
C274 C275 1.400 . S
C274 C278 1.567 . S
C275 C274 1.400 . S
C275 C276 1.373 . S
C275 C297 1.432 . S
C276 C275 1.373 . S
C276 C277 1.339 . S
C276 C279 1.530 . S
C277 C272 1.304 . S
C277 C276 1.339 . S
C277 H338 0.930 . S
C278 C274 1.567 . S
C278 H339 0.961 . S
C278 H340 0.960 . S
C278 H341 0.958 . S
C279 C276 1.530 . S
C279 H342 0.961 . S
C279 H343 0.960 . S
C279 H344 0.960 . S
C280 C281 1.530 . S
C280 H346 0.961 . S
C280 H347 0.961 . S
C280 H348 0.959 . S
C281 C280 1.530 . S
C281 O309 1.412 . S
C281 H345 0.980 . S
C282 C283 1.288 . S
C282 C287 1.377 . S
C282 O309 1.393 . S
C283 C282 1.288 . S
C283 C284 1.369 . S
C283 H349 0.932 . S
C284 C283 1.369 . S
C284 C285 1.398 . S
C284 C288 1.527 . S
C285 C284 1.398 . S
C285 C286 1.380 . S
C285 C299 1.497 . S
C286 C285 1.380 . S
C286 C287 1.383 . S
C286 C289 1.603 . S
C287 C282 1.377 . S
C287 C286 1.383 . S
C287 H350 0.929 . S
C288 C284 1.527 . S
C288 H351 0.961 . S
C288 H352 0.959 . S
C288 H353 0.959 . S
C289 C286 1.603 . S
C289 H354 0.960 . S
C289 H355 0.962 . S
C289 H356 0.961 . S
C290 C257 1.587 . S
C290 C291 1.360 . S
C290 C303 1.412 . S
C291 C290 1.360 . S
C291 C292 1.365 . S
C291 H357 0.929 . S
C292 C267 1.553 . S
C292 C291 1.365 . S
C292 C293 1.404 . S
C293 C292 1.404 . S
C293 C294 1.395 . S
C293 C304 1.451 . S
C294 C293 1.395 . S
C294 C295 1.322 . S
C294 H358 0.930 . S
C295 C294 1.322 . S
C295 C296 1.459 . S
C295 H359 0.929 . S
C296 C295 1.459 . S
C296 C297 1.445 . S
C296 C305 1.395 . S
C297 C275 1.432 . S
C297 C296 1.445 . S
C297 C298 1.370 . S
C298 C297 1.370 . S
C298 C299 1.438 . S
C298 H360 0.930 . S
C299 C285 1.497 . S
C299 C298 1.438 . S
C299 C300 1.360 . S
C300 C299 1.360 . S
C300 C301 1.401 . S
C300 C305 1.446 . S
C301 C300 1.401 . S
C301 C302 1.347 . S
C301 H361 0.929 . S
C302 C301 1.347 . S
C302 C303 1.455 . S
C302 H362 0.930 . S
C303 C290 1.412 . S
C303 C302 1.455 . S
C303 C304 1.331 . S
C304 C293 1.451 . S
C304 C303 1.331 . S
C304 C305 1.497 . S
C305 C296 1.395 . S
C305 C300 1.446 . S
C305 C304 1.497 . S
C306 C307 1.582 . S
C306 H363 0.962 . S
C306 H364 0.959 . S
C306 H365 0.958 . S
C307 C306 1.582 . S
C307 O310 1.458 . S
C307 H336 0.980 . S
O308 C253 1.426 . S
O308 C254 1.334 . S
O309 C281 1.412 . S
O309 C282 1.393 . S
O310 C272 1.435 . S
O310 C307 1.458 . S
O311 C263 1.468 . S
O311 C264 1.408 . S
H312 C253 0.980 . S
H313 C252 0.959 . S
H314 C252 0.959 . S
H315 C252 0.960 . S
H316 C255 0.929 . S
H317 C259 0.929 . S
H318 C260 0.959 . S
H319 C260 0.961 . S
H320 C260 0.961 . S
H321 C261 0.960 . S
H322 C261 0.960 . S
H323 C261 0.961 . S
H324 C263 0.980 . S
H325 C262 0.961 . S
H326 C262 0.960 . S
H327 C262 0.959 . S
H328 C265 0.930 . S
H329 C269 0.931 . S
H330 C270 0.959 . S
H331 C270 0.961 . S
H332 C270 0.959 . S
H333 C271 0.960 . S
H334 C271 0.960 . S
H335 C271 0.960 . S
H336 C307 0.980 . S
H337 C273 0.930 . S
H338 C277 0.930 . S
H339 C278 0.961 . S
H340 C278 0.960 . S
H341 C278 0.958 . S
H342 C279 0.961 . S
H343 C279 0.960 . S
H344 C279 0.960 . S
H345 C281 0.980 . S
H346 C280 0.961 . S
H347 C280 0.961 . S
H348 C280 0.959 . S
H349 C283 0.932 . S
H350 C287 0.929 . S
H351 C288 0.961 . S
H352 C288 0.959 . S
H353 C288 0.959 . S
H354 C289 0.960 . S
H355 C289 0.962 . S
H356 C289 0.961 . S
H357 C291 0.929 . S
H358 C294 0.930 . S
H359 C295 0.929 . S
H360 C298 0.930 . S
H361 C301 0.929 . S
H362 C302 0.930 . S
H363 C306 0.962 . S
H364 C306 0.959 . S
H365 C306 0.958 . S
C366 C367 1.560 . S
C366 H427 0.959 . S
C366 H428 0.959 . S
C366 H429 0.960 . S
C367 C366 1.560 . S
C367 O422 1.426 . S
C367 H426 0.980 . S
C368 C369 1.407 . S
C368 C373 1.418 . S
C368 O422 1.334 . S
C369 C368 1.407 . S
C369 C370 1.360 . S
C369 H430 0.929 . S
C370 C369 1.360 . S
C370 C371 1.401 . S
C370 C374 1.527 . S
C371 C370 1.401 . S
C371 C372 1.405 . S
C371 C404 1.587 . S
C372 C371 1.405 . S
C372 C373 1.332 . S
C372 C375 1.496 . S
C373 C368 1.418 . S
C373 C372 1.332 . S
C373 H431 0.929 . S
C374 C370 1.527 . S
C374 H432 0.959 . S
C374 H433 0.961 . S
C374 H434 0.961 . S
C375 C372 1.496 . S
C375 H435 0.960 . S
C375 H436 0.960 . S
C375 H437 0.961 . S
C376 C377 1.517 . S
C376 H439 0.961 . S
C376 H440 0.960 . S
C376 H441 0.959 . S
C377 C376 1.517 . S
C377 O425 1.468 . S
C377 H438 0.980 . S
C378 C379 1.349 . S
C378 C383 1.367 . S
C378 O425 1.408 . S
C379 C378 1.349 . S
C379 C380 1.407 . S
C379 H442 0.930 . S
C380 C379 1.407 . S
C380 C381 1.449 . S
C380 C384 1.535 . S
C381 C380 1.449 . S
C381 C382 1.384 . S
C381 C406 1.553 . S
C382 C381 1.384 . S
C382 C383 1.364 . S
C382 C385 1.450 . S
C383 C378 1.367 . S
C383 C382 1.364 . S
C383 H443 0.931 . S
C384 C380 1.535 . S
C384 H444 0.959 . S
C384 H445 0.961 . S
C384 H446 0.959 . S
C385 C382 1.450 . S
C385 H447 0.960 . S
C385 H448 0.960 . S
C385 H449 0.960 . S
C386 C387 1.309 . S
C386 C391 1.304 . S
C386 O424 1.435 . S
C387 C386 1.309 . S
C387 C388 1.476 . S
C387 H451 0.930 . S
C388 C387 1.476 . S
C388 C389 1.400 . S
C388 C392 1.567 . S
C389 C388 1.400 . S
C389 C390 1.373 . S
C389 C411 1.432 . S
C390 C389 1.373 . S
C390 C391 1.339 . S
C390 C393 1.530 . S
C391 C386 1.304 . S
C391 C390 1.339 . S
C391 H452 0.930 . S
C392 C388 1.567 . S
C392 H453 0.961 . S
C392 H454 0.960 . S
C392 H455 0.958 . S
C393 C390 1.530 . S
C393 H456 0.961 . S
C393 H457 0.960 . S
C393 H458 0.960 . S
C394 C395 1.530 . S
C394 H460 0.961 . S
C394 H461 0.961 . S
C394 H462 0.959 . S
C395 C394 1.530 . S
C395 O423 1.412 . S
C395 H459 0.980 . S
C396 C397 1.288 . S
C396 C401 1.377 . S
C396 O423 1.393 . S
C397 C396 1.288 . S
C397 C398 1.369 . S
C397 H463 0.932 . S
C398 C397 1.369 . S
C398 C399 1.398 . S
C398 C402 1.527 . S
C399 C398 1.398 . S
C399 C400 1.380 . S
C399 C413 1.497 . S
C400 C399 1.380 . S
C400 C401 1.383 . S
C400 C403 1.603 . S
C401 C396 1.377 . S
C401 C400 1.383 . S
C401 H464 0.929 . S
C402 C398 1.527 . S
C402 H465 0.961 . S
C402 H466 0.959 . S
C402 H467 0.959 . S
C403 C400 1.603 . S
C403 H468 0.960 . S
C403 H469 0.962 . S
C403 H470 0.961 . S
C404 C371 1.587 . S
C404 C405 1.360 . S
C404 C417 1.412 . S
C405 C404 1.360 . S
C405 C406 1.365 . S
C405 H471 0.929 . S
C406 C381 1.553 . S
C406 C405 1.365 . S
C406 C407 1.404 . S
C407 C406 1.404 . S
C407 C408 1.395 . S
C407 C418 1.451 . S
C408 C407 1.395 . S
C408 C409 1.322 . S
C408 H472 0.930 . S
C409 C408 1.322 . S
C409 C410 1.459 . S
C409 H473 0.929 . S
C410 C409 1.459 . S
C410 C411 1.445 . S
C410 C419 1.395 . S
C411 C389 1.432 . S
C411 C410 1.445 . S
C411 C412 1.370 . S
C412 C411 1.370 . S
C412 C413 1.438 . S
C412 H474 0.930 . S
C413 C399 1.497 . S
C413 C412 1.438 . S
C413 C414 1.360 . S
C414 C413 1.360 . S
C414 C415 1.401 . S
C414 C419 1.446 . S
C415 C414 1.401 . S
C415 C416 1.347 . S
C415 H475 0.929 . S
C416 C415 1.347 . S
C416 C417 1.455 . S
C416 H476 0.930 . S
C417 C404 1.412 . S
C417 C416 1.455 . S
C417 C418 1.331 . S
C418 C407 1.451 . S
C418 C417 1.331 . S
C418 C419 1.497 . S
C419 C410 1.395 . S
C419 C414 1.446 . S
C419 C418 1.497 . S
C420 C421 1.582 . S
C420 H477 0.962 . S
C420 H478 0.959 . S
C420 H479 0.958 . S
C421 C420 1.582 . S
C421 O424 1.458 . S
C421 H450 0.980 . S
O422 C367 1.426 . S
O422 C368 1.334 . S
O423 C395 1.412 . S
O423 C396 1.393 . S
O424 C386 1.435 . S
O424 C421 1.458 . S
O425 C377 1.468 . S
O425 C378 1.408 . S
H426 C367 0.980 . S
H427 C366 0.959 . S
H428 C366 0.959 . S
H429 C366 0.960 . S
H430 C369 0.929 . S
H431 C373 0.929 . S
H432 C374 0.959 . S
H433 C374 0.961 . S
H434 C374 0.961 . S
H435 C375 0.960 . S
H436 C375 0.960 . S
H437 C375 0.961 . S
H438 C377 0.980 . S
H439 C376 0.961 . S
H440 C376 0.960 . S
H441 C376 0.959 . S
H442 C379 0.930 . S
H443 C383 0.931 . S
H444 C384 0.959 . S
H445 C384 0.961 . S
H446 C384 0.959 . S
H447 C385 0.960 . S
H448 C385 0.960 . S
H449 C385 0.960 . S
H450 C421 0.980 . S
H451 C387 0.930 . S
H452 C391 0.930 . S
H453 C392 0.961 . S
H454 C392 0.960 . S
H455 C392 0.958 . S
H456 C393 0.961 . S
H457 C393 0.960 . S
H458 C393 0.960 . S
H459 C395 0.980 . S
H460 C394 0.961 . S
H461 C394 0.961 . S
H462 C394 0.959 . S
H463 C397 0.932 . S
H464 C401 0.929 . S
H465 C402 0.961 . S
H466 C402 0.959 . S
H467 C402 0.959 . S
H468 C403 0.960 . S
H469 C403 0.962 . S
H470 C403 0.961 . S
H471 C405 0.929 . S
H472 C408 0.930 . S
H473 C409 0.929 . S
H474 C412 0.930 . S
H475 C415 0.929 . S
H476 C416 0.930 . S
H477 C420 0.962 . S
H478 C420 0.959 . S
H479 C420 0.958 . S
C480 C481 1.560 . S
C480 H541 0.959 . S
C480 H542 0.959 . S
C480 H543 0.960 . S
C481 C480 1.560 . S
C481 O536 1.426 . S
C481 H540 0.980 . S
C482 C483 1.407 . S
C482 C487 1.418 . S
C482 O536 1.334 . S
C483 C482 1.407 . S
C483 C484 1.360 . S
C483 H544 0.929 . S
C484 C483 1.360 . S
C484 C485 1.401 . S
C484 C488 1.527 . S
C485 C484 1.401 . S
C485 C486 1.405 . S
C485 C518 1.587 . S
C486 C485 1.405 . S
C486 C487 1.332 . S
C486 C489 1.496 . S
C487 C482 1.418 . S
C487 C486 1.332 . S
C487 H545 0.929 . S
C488 C484 1.527 . S
C488 H546 0.959 . S
C488 H547 0.961 . S
C488 H548 0.961 . S
C489 C486 1.496 . S
C489 H549 0.960 . S
C489 H550 0.960 . S
C489 H551 0.961 . S
C490 C491 1.517 . S
C490 H553 0.961 . S
C490 H554 0.960 . S
C490 H555 0.959 . S
C491 C490 1.517 . S
C491 O539 1.468 . S
C491 H552 0.980 . S
C492 C493 1.349 . S
C492 C497 1.367 . S
C492 O539 1.408 . S
C493 C492 1.349 . S
C493 C494 1.407 . S
C493 H556 0.930 . S
C494 C493 1.407 . S
C494 C495 1.449 . S
C494 C498 1.535 . S
C495 C494 1.449 . S
C495 C496 1.384 . S
C495 C520 1.553 . S
C496 C495 1.384 . S
C496 C497 1.364 . S
C496 C499 1.450 . S
C497 C492 1.367 . S
C497 C496 1.364 . S
C497 H557 0.931 . S
C498 C494 1.535 . S
C498 H558 0.959 . S
C498 H559 0.961 . S
C498 H560 0.959 . S
C499 C496 1.450 . S
C499 H561 0.960 . S
C499 H562 0.960 . S
C499 H563 0.960 . S
C500 C501 1.309 . S
C500 C505 1.304 . S
C500 O538 1.435 . S
C501 C500 1.309 . S
C501 C502 1.476 . S
C501 H565 0.930 . S
C502 C501 1.476 . S
C502 C503 1.400 . S
C502 C506 1.567 . S
C503 C502 1.400 . S
C503 C504 1.373 . S
C503 C525 1.432 . S
C504 C503 1.373 . S
C504 C505 1.339 . S
C504 C507 1.530 . S
C505 C500 1.304 . S
C505 C504 1.339 . S
C505 H566 0.930 . S
C506 C502 1.567 . S
C506 H567 0.961 . S
C506 H568 0.960 . S
C506 H569 0.958 . S
C507 C504 1.530 . S
C507 H570 0.961 . S
C507 H571 0.960 . S
C507 H572 0.960 . S
C508 C509 1.530 . S
C508 H574 0.961 . S
C508 H575 0.961 . S
C508 H576 0.959 . S
C509 C508 1.530 . S
C509 O537 1.412 . S
C509 H573 0.980 . S
C510 C511 1.288 . S
C510 C515 1.377 . S
C510 O537 1.393 . S
C511 C510 1.288 . S
C511 C512 1.369 . S
C511 H577 0.932 . S
C512 C511 1.369 . S
C512 C513 1.398 . S
C512 C516 1.527 . S
C513 C512 1.398 . S
C513 C514 1.380 . S
C513 C527 1.497 . S
C514 C513 1.380 . S
C514 C515 1.383 . S
C514 C517 1.603 . S
C515 C510 1.377 . S
C515 C514 1.383 . S
C515 H578 0.929 . S
C516 C512 1.527 . S
C516 H579 0.961 . S
C516 H580 0.959 . S
C516 H581 0.959 . S
C517 C514 1.603 . S
C517 H582 0.960 . S
C517 H583 0.962 . S
C517 H584 0.961 . S
C518 C485 1.587 . S
C518 C519 1.360 . S
C518 C531 1.412 . S
C519 C518 1.360 . S
C519 C520 1.365 . S
C519 H585 0.929 . S
C520 C495 1.553 . S
C520 C519 1.365 . S
C520 C521 1.404 . S
C521 C520 1.404 . S
C521 C522 1.395 . S
C521 C532 1.451 . S
C522 C521 1.395 . S
C522 C523 1.322 . S
C522 H586 0.930 . S
C523 C522 1.322 . S
C523 C524 1.459 . S
C523 H587 0.929 . S
C524 C523 1.459 . S
C524 C525 1.445 . S
C524 C533 1.395 . S
C525 C503 1.432 . S
C525 C524 1.445 . S
C525 C526 1.370 . S
C526 C525 1.370 . S
C526 C527 1.438 . S
C526 H588 0.930 . S
C527 C513 1.497 . S
C527 C526 1.438 . S
C527 C528 1.360 . S
C528 C527 1.360 . S
C528 C529 1.401 . S
C528 C533 1.446 . S
C529 C528 1.401 . S
C529 C530 1.347 . S
C529 H589 0.929 . S
C530 C529 1.347 . S
C530 C531 1.455 . S
C530 H590 0.930 . S
C531 C518 1.412 . S
C531 C530 1.455 . S
C531 C532 1.331 . S
C532 C521 1.451 . S
C532 C531 1.331 . S
C532 C533 1.497 . S
C533 C524 1.395 . S
C533 C528 1.446 . S
C533 C532 1.497 . S
C534 C535 1.582 . S
C534 H591 0.962 . S
C534 H592 0.959 . S
C534 H593 0.958 . S
C535 C534 1.582 . S
C535 O538 1.458 . S
C535 H564 0.980 . S
O536 C481 1.426 . S
O536 C482 1.334 . S
O537 C509 1.412 . S
O537 C510 1.393 . S
O538 C500 1.435 . S
O538 C535 1.458 . S
O539 C491 1.468 . S
O539 C492 1.408 . S
H540 C481 0.980 . S
H541 C480 0.959 . S
H542 C480 0.959 . S
H543 C480 0.960 . S
H544 C483 0.929 . S
H545 C487 0.929 . S
H546 C488 0.959 . S
H547 C488 0.961 . S
H548 C488 0.961 . S
H549 C489 0.960 . S
H550 C489 0.960 . S
H551 C489 0.961 . S
H552 C491 0.980 . S
H553 C490 0.961 . S
H554 C490 0.960 . S
H555 C490 0.959 . S
H556 C493 0.930 . S
H557 C497 0.931 . S
H558 C498 0.959 . S
H559 C498 0.961 . S
H560 C498 0.959 . S
H561 C499 0.960 . S
H562 C499 0.960 . S
H563 C499 0.960 . S
H564 C535 0.980 . S
H565 C501 0.930 . S
H566 C505 0.930 . S
H567 C506 0.961 . S
H568 C506 0.960 . S
H569 C506 0.958 . S
H570 C507 0.961 . S
H571 C507 0.960 . S
H572 C507 0.960 . S
H573 C509 0.980 . S
H574 C508 0.961 . S
H575 C508 0.961 . S
H576 C508 0.959 . S
H577 C511 0.932 . S
H578 C515 0.929 . S
H579 C516 0.961 . S
H580 C516 0.959 . S
H581 C516 0.959 . S
H582 C517 0.960 . S
H583 C517 0.962 . S
H584 C517 0.961 . S
H585 C519 0.929 . S
H586 C522 0.930 . S
H587 C523 0.929 . S
H588 C526 0.930 . S
H589 C529 0.929 . S
H590 C530 0.930 . S
H591 C534 0.962 . S
H592 C534 0.959 . S
H593 C534 0.958 . S
C594 C595 1.560 . S
C594 H655 0.959 . S
C594 H656 0.959 . S
C594 H657 0.960 . S
C595 C594 1.560 . S
C595 O650 1.426 . S
C595 H654 0.980 . S
C596 C597 1.407 . S
C596 C601 1.418 . S
C596 O650 1.334 . S
C597 C596 1.407 . S
C597 C598 1.360 . S
C597 H658 0.929 . S
C598 C597 1.360 . S
C598 C599 1.401 . S
C598 C602 1.527 . S
C599 C598 1.401 . S
C599 C600 1.405 . S
C599 C632 1.587 . S
C600 C599 1.405 . S
C600 C601 1.332 . S
C600 C603 1.496 . S
C601 C596 1.418 . S
C601 C600 1.332 . S
C601 H659 0.929 . S
C602 C598 1.527 . S
C602 H660 0.959 . S
C602 H661 0.961 . S
C602 H662 0.961 . S
C603 C600 1.496 . S
C603 H663 0.960 . S
C603 H664 0.960 . S
C603 H665 0.961 . S
C604 C605 1.517 . S
C604 H667 0.961 . S
C604 H668 0.960 . S
C604 H669 0.959 . S
C605 C604 1.517 . S
C605 O653 1.468 . S
C605 H666 0.980 . S
C606 C607 1.349 . S
C606 C611 1.367 . S
C606 O653 1.408 . S
C607 C606 1.349 . S
C607 C608 1.407 . S
C607 H670 0.930 . S
C608 C607 1.407 . S
C608 C609 1.449 . S
C608 C612 1.535 . S
C609 C608 1.449 . S
C609 C610 1.384 . S
C609 C634 1.553 . S
C610 C609 1.384 . S
C610 C611 1.364 . S
C610 C613 1.450 . S
C611 C606 1.367 . S
C611 C610 1.364 . S
C611 H671 0.931 . S
C612 C608 1.535 . S
C612 H672 0.959 . S
C612 H673 0.961 . S
C612 H674 0.959 . S
C613 C610 1.450 . S
C613 H675 0.960 . S
C613 H676 0.960 . S
C613 H677 0.960 . S
C614 C615 1.309 . S
C614 C619 1.304 . S
C614 O652 1.435 . S
C615 C614 1.309 . S
C615 C616 1.476 . S
C615 H679 0.930 . S
C616 C615 1.476 . S
C616 C617 1.400 . S
C616 C620 1.567 . S
C617 C616 1.400 . S
C617 C618 1.373 . S
C617 C639 1.432 . S
C618 C617 1.373 . S
C618 C619 1.339 . S
C618 C621 1.530 . S
C619 C614 1.304 . S
C619 C618 1.339 . S
C619 H680 0.930 . S
C620 C616 1.567 . S
C620 H681 0.961 . S
C620 H682 0.960 . S
C620 H683 0.958 . S
C621 C618 1.530 . S
C621 H684 0.961 . S
C621 H685 0.960 . S
C621 H686 0.960 . S
C622 C623 1.530 . S
C622 H688 0.961 . S
C622 H689 0.961 . S
C622 H690 0.959 . S
C623 C622 1.530 . S
C623 O651 1.412 . S
C623 H687 0.980 . S
C624 C625 1.288 . S
C624 C629 1.377 . S
C624 O651 1.393 . S
C625 C624 1.288 . S
C625 C626 1.369 . S
C625 H691 0.932 . S
C626 C625 1.369 . S
C626 C627 1.398 . S
C626 C630 1.527 . S
C627 C626 1.398 . S
C627 C628 1.380 . S
C627 C641 1.497 . S
C628 C627 1.380 . S
C628 C629 1.383 . S
C628 C631 1.603 . S
C629 C624 1.377 . S
C629 C628 1.383 . S
C629 H692 0.929 . S
C630 C626 1.527 . S
C630 H693 0.961 . S
C630 H694 0.959 . S
C630 H695 0.959 . S
C631 C628 1.603 . S
C631 H696 0.960 . S
C631 H697 0.962 . S
C631 H698 0.961 . S
C632 C599 1.587 . S
C632 C633 1.360 . S
C632 C645 1.412 . S
C633 C632 1.360 . S
C633 C634 1.365 . S
C633 H699 0.929 . S
C634 C609 1.553 . S
C634 C633 1.365 . S
C634 C635 1.404 . S
C635 C634 1.404 . S
C635 C636 1.395 . S
C635 C646 1.451 . S
C636 C635 1.395 . S
C636 C637 1.322 . S
C636 H700 0.930 . S
C637 C636 1.322 . S
C637 C638 1.459 . S
C637 H701 0.929 . S
C638 C637 1.459 . S
C638 C639 1.445 . S
C638 C647 1.395 . S
C639 C617 1.432 . S
C639 C638 1.445 . S
C639 C640 1.370 . S
C640 C639 1.370 . S
C640 C641 1.438 . S
C640 H702 0.930 . S
C641 C627 1.497 . S
C641 C640 1.438 . S
C641 C642 1.360 . S
C642 C641 1.360 . S
C642 C643 1.401 . S
C642 C647 1.446 . S
C643 C642 1.401 . S
C643 C644 1.347 . S
C643 H703 0.929 . S
C644 C643 1.347 . S
C644 C645 1.455 . S
C644 H704 0.930 . S
C645 C632 1.412 . S
C645 C644 1.455 . S
C645 C646 1.331 . S
C646 C635 1.451 . S
C646 C645 1.331 . S
C646 C647 1.497 . S
C647 C638 1.395 . S
C647 C642 1.446 . S
C647 C646 1.497 . S
C648 C649 1.582 . S
C648 H705 0.962 . S
C648 H706 0.959 . S
C648 H707 0.958 . S
C649 C648 1.582 . S
C649 O652 1.458 . S
C649 H678 0.980 . S
O650 C595 1.426 . S
O650 C596 1.334 . S
O651 C623 1.412 . S
O651 C624 1.393 . S
O652 C614 1.435 . S
O652 C649 1.458 . S
O653 C605 1.468 . S
O653 C606 1.408 . S
H654 C595 0.980 . S
H655 C594 0.959 . S
H656 C594 0.959 . S
H657 C594 0.960 . S
H658 C597 0.929 . S
H659 C601 0.929 . S
H660 C602 0.959 . S
H661 C602 0.961 . S
H662 C602 0.961 . S
H663 C603 0.960 . S
H664 C603 0.960 . S
H665 C603 0.961 . S
H666 C605 0.980 . S
H667 C604 0.961 . S
H668 C604 0.960 . S
H669 C604 0.959 . S
H670 C607 0.930 . S
H671 C611 0.931 . S
H672 C612 0.959 . S
H673 C612 0.961 . S
H674 C612 0.959 . S
H675 C613 0.960 . S
H676 C613 0.960 . S
H677 C613 0.960 . S
H678 C649 0.980 . S
H679 C615 0.930 . S
H680 C619 0.930 . S
H681 C620 0.961 . S
H682 C620 0.960 . S
H683 C620 0.958 . S
H684 C621 0.961 . S
H685 C621 0.960 . S
H686 C621 0.960 . S
H687 C623 0.980 . S
H688 C622 0.961 . S
H689 C622 0.961 . S
H690 C622 0.959 . S
H691 C625 0.932 . S
H692 C629 0.929 . S
H693 C630 0.961 . S
H694 C630 0.959 . S
H695 C630 0.959 . S
H696 C631 0.960 . S
H697 C631 0.962 . S
H698 C631 0.961 . S
H699 C633 0.929 . S
H700 C636 0.930 . S
H701 C637 0.929 . S
H702 C640 0.930 . S
H703 C643 0.929 . S
H704 C644 0.930 . S
H705 C648 0.962 . S
H706 C648 0.959 . S
H707 C648 0.958 . S
C708 C709 1.560 . S
C708 H769 0.959 . S
C708 H770 0.959 . S
C708 H771 0.960 . S
C709 C708 1.560 . S
C709 O764 1.426 . S
C709 H768 0.980 . S
C710 C711 1.407 . S
C710 C715 1.418 . S
C710 O764 1.334 . S
C711 C710 1.407 . S
C711 C712 1.360 . S
C711 H772 0.929 . S
C712 C711 1.360 . S
C712 C713 1.401 . S
C712 C716 1.527 . S
C713 C712 1.401 . S
C713 C714 1.405 . S
C713 C746 1.587 . S
C714 C713 1.405 . S
C714 C715 1.332 . S
C714 C717 1.496 . S
C715 C710 1.418 . S
C715 C714 1.332 . S
C715 H773 0.929 . S
C716 C712 1.527 . S
C716 H774 0.959 . S
C716 H775 0.961 . S
C716 H776 0.961 . S
C717 C714 1.496 . S
C717 H777 0.960 . S
C717 H778 0.960 . S
C717 H779 0.961 . S
C718 C719 1.517 . S
C718 H781 0.961 . S
C718 H782 0.960 . S
C718 H783 0.959 . S
C719 C718 1.517 . S
C719 O767 1.468 . S
C719 H780 0.980 . S
C720 C721 1.349 . S
C720 C725 1.367 . S
C720 O767 1.408 . S
C721 C720 1.349 . S
C721 C722 1.407 . S
C721 H784 0.930 . S
C722 C721 1.407 . S
C722 C723 1.449 . S
C722 C726 1.535 . S
C723 C722 1.449 . S
C723 C724 1.384 . S
C723 C748 1.553 . S
C724 C723 1.384 . S
C724 C725 1.364 . S
C724 C727 1.450 . S
C725 C720 1.367 . S
C725 C724 1.364 . S
C725 H785 0.931 . S
C726 C722 1.535 . S
C726 H786 0.959 . S
C726 H787 0.961 . S
C726 H788 0.959 . S
C727 C724 1.450 . S
C727 H789 0.960 . S
C727 H790 0.960 . S
C727 H791 0.960 . S
C728 C729 1.309 . S
C728 C733 1.304 . S
C728 O766 1.435 . S
C729 C728 1.309 . S
C729 C730 1.476 . S
C729 H793 0.930 . S
C730 C729 1.476 . S
C730 C731 1.400 . S
C730 C734 1.567 . S
C731 C730 1.400 . S
C731 C732 1.373 . S
C731 C753 1.432 . S
C732 C731 1.373 . S
C732 C733 1.339 . S
C732 C735 1.530 . S
C733 C728 1.304 . S
C733 C732 1.339 . S
C733 H794 0.930 . S
C734 C730 1.567 . S
C734 H795 0.961 . S
C734 H796 0.960 . S
C734 H797 0.958 . S
C735 C732 1.530 . S
C735 H798 0.961 . S
C735 H799 0.960 . S
C735 H800 0.960 . S
C736 C737 1.530 . S
C736 H802 0.961 . S
C736 H803 0.961 . S
C736 H804 0.959 . S
C737 C736 1.530 . S
C737 O765 1.412 . S
C737 H801 0.980 . S
C738 C739 1.288 . S
C738 C743 1.377 . S
C738 O765 1.393 . S
C739 C738 1.288 . S
C739 C740 1.369 . S
C739 H805 0.932 . S
C740 C739 1.369 . S
C740 C741 1.398 . S
C740 C744 1.527 . S
C741 C740 1.398 . S
C741 C742 1.380 . S
C741 C755 1.497 . S
C742 C741 1.380 . S
C742 C743 1.383 . S
C742 C745 1.603 . S
C743 C738 1.377 . S
C743 C742 1.383 . S
C743 H806 0.929 . S
C744 C740 1.527 . S
C744 H807 0.961 . S
C744 H808 0.959 . S
C744 H809 0.959 . S
C745 C742 1.603 . S
C745 H810 0.960 . S
C745 H811 0.962 . S
C745 H812 0.961 . S
C746 C713 1.587 . S
C746 C747 1.360 . S
C746 C759 1.412 . S
C747 C746 1.360 . S
C747 C748 1.365 . S
C747 H813 0.929 . S
C748 C723 1.553 . S
C748 C747 1.365 . S
C748 C749 1.404 . S
C749 C748 1.404 . S
C749 C750 1.395 . S
C749 C760 1.451 . S
C750 C749 1.395 . S
C750 C751 1.322 . S
C750 H814 0.930 . S
C751 C750 1.322 . S
C751 C752 1.459 . S
C751 H815 0.929 . S
C752 C751 1.459 . S
C752 C753 1.445 . S
C752 C761 1.395 . S
C753 C731 1.432 . S
C753 C752 1.445 . S
C753 C754 1.370 . S
C754 C753 1.370 . S
C754 C755 1.438 . S
C754 H816 0.930 . S
C755 C741 1.497 . S
C755 C754 1.438 . S
C755 C756 1.360 . S
C756 C755 1.360 . S
C756 C757 1.401 . S
C756 C761 1.446 . S
C757 C756 1.401 . S
C757 C758 1.347 . S
C757 H817 0.929 . S
C758 C757 1.347 . S
C758 C759 1.455 . S
C758 H818 0.930 . S
C759 C746 1.412 . S
C759 C758 1.455 . S
C759 C760 1.331 . S
C760 C749 1.451 . S
C760 C759 1.331 . S
C760 C761 1.497 . S
C761 C752 1.395 . S
C761 C756 1.446 . S
C761 C760 1.497 . S
C762 C763 1.582 . S
C762 H819 0.962 . S
C762 H820 0.959 . S
C762 H821 0.958 . S
C763 C762 1.582 . S
C763 O766 1.458 . S
C763 H792 0.980 . S
O764 C709 1.426 . S
O764 C710 1.334 . S
O765 C737 1.412 . S
O765 C738 1.393 . S
O766 C728 1.435 . S
O766 C763 1.458 . S
O767 C719 1.468 . S
O767 C720 1.408 . S
H768 C709 0.980 . S
H769 C708 0.959 . S
H770 C708 0.959 . S
H771 C708 0.960 . S
H772 C711 0.929 . S
H773 C715 0.929 . S
H774 C716 0.959 . S
H775 C716 0.961 . S
H776 C716 0.961 . S
H777 C717 0.960 . S
H778 C717 0.960 . S
H779 C717 0.961 . S
H780 C719 0.980 . S
H781 C718 0.961 . S
H782 C718 0.960 . S
H783 C718 0.959 . S
H784 C721 0.930 . S
H785 C725 0.931 . S
H786 C726 0.959 . S
H787 C726 0.961 . S
H788 C726 0.959 . S
H789 C727 0.960 . S
H790 C727 0.960 . S
H791 C727 0.960 . S
H792 C763 0.980 . S
H793 C729 0.930 . S
H794 C733 0.930 . S
H795 C734 0.961 . S
H796 C734 0.960 . S
H797 C734 0.958 . S
H798 C735 0.961 . S
H799 C735 0.960 . S
H800 C735 0.960 . S
H801 C737 0.980 . S
H802 C736 0.961 . S
H803 C736 0.961 . S
H804 C736 0.959 . S
H805 C739 0.932 . S
H806 C743 0.929 . S
H807 C744 0.961 . S
H808 C744 0.959 . S
H809 C744 0.959 . S
H810 C745 0.960 . S
H811 C745 0.962 . S
H812 C745 0.961 . S
H813 C747 0.929 . S
H814 C750 0.930 . S
H815 C751 0.929 . S
H816 C754 0.930 . S
H817 C757 0.929 . S
H818 C758 0.930 . S
H819 C762 0.962 . S
H820 C762 0.959 . S
H821 C762 0.958 . S
C822 C823 1.560 . S
C822 H883 0.959 . S
C822 H884 0.959 . S
C822 H885 0.960 . S
C823 C822 1.560 . S
C823 O878 1.426 . S
C823 H882 0.980 . S
C824 C825 1.407 . S
C824 C829 1.418 . S
C824 O878 1.334 . S
C825 C824 1.407 . S
C825 C826 1.360 . S
C825 H886 0.929 . S
C826 C825 1.360 . S
C826 C827 1.401 . S
C826 C830 1.527 . S
C827 C826 1.401 . S
C827 C828 1.405 . S
C827 C860 1.587 . S
C828 C827 1.405 . S
C828 C829 1.332 . S
C828 C831 1.496 . S
C829 C824 1.418 . S
C829 C828 1.332 . S
C829 H887 0.929 . S
C830 C826 1.527 . S
C830 H888 0.959 . S
C830 H889 0.961 . S
C830 H890 0.961 . S
C831 C828 1.496 . S
C831 H891 0.960 . S
C831 H892 0.960 . S
C831 H893 0.961 . S
C832 C833 1.517 . S
C832 H895 0.961 . S
C832 H896 0.960 . S
C832 H897 0.959 . S
C833 C832 1.517 . S
C833 O881 1.468 . S
C833 H894 0.980 . S
C834 C835 1.349 . S
C834 C839 1.367 . S
C834 O881 1.408 . S
C835 C834 1.349 . S
C835 C836 1.407 . S
C835 H898 0.930 . S
C836 C835 1.407 . S
C836 C837 1.449 . S
C836 C840 1.535 . S
C837 C836 1.449 . S
C837 C838 1.384 . S
C837 C862 1.553 . S
C838 C837 1.384 . S
C838 C839 1.364 . S
C838 C841 1.450 . S
C839 C834 1.367 . S
C839 C838 1.364 . S
C839 H899 0.931 . S
C840 C836 1.535 . S
C840 H900 0.959 . S
C840 H901 0.961 . S
C840 H902 0.959 . S
C841 C838 1.450 . S
C841 H903 0.960 . S
C841 H904 0.960 . S
C841 H905 0.960 . S
C842 C843 1.309 . S
C842 C847 1.304 . S
C842 O880 1.435 . S
C843 C842 1.309 . S
C843 C844 1.476 . S
C843 H907 0.930 . S
C844 C843 1.476 . S
C844 C845 1.400 . S
C844 C848 1.567 . S
C845 C844 1.400 . S
C845 C846 1.373 . S
C845 C867 1.432 . S
C846 C845 1.373 . S
C846 C847 1.339 . S
C846 C849 1.530 . S
C847 C842 1.304 . S
C847 C846 1.339 . S
C847 H908 0.930 . S
C848 C844 1.567 . S
C848 H909 0.961 . S
C848 H910 0.960 . S
C848 H911 0.958 . S
C849 C846 1.530 . S
C849 H912 0.961 . S
C849 H913 0.960 . S
C849 H914 0.960 . S
C850 C851 1.530 . S
C850 H916 0.961 . S
C850 H917 0.961 . S
C850 H918 0.959 . S
C851 C850 1.530 . S
C851 O879 1.412 . S
C851 H915 0.980 . S
C852 C853 1.288 . S
C852 C857 1.377 . S
C852 O879 1.393 . S
C853 C852 1.288 . S
C853 C854 1.369 . S
C853 H919 0.932 . S
C854 C853 1.369 . S
C854 C855 1.398 . S
C854 C858 1.527 . S
C855 C854 1.398 . S
C855 C856 1.380 . S
C855 C869 1.497 . S
C856 C855 1.380 . S
C856 C857 1.383 . S
C856 C859 1.603 . S
C857 C852 1.377 . S
C857 C856 1.383 . S
C857 H920 0.929 . S
C858 C854 1.527 . S
C858 H921 0.961 . S
C858 H922 0.959 . S
C858 H923 0.959 . S
C859 C856 1.603 . S
C859 H924 0.960 . S
C859 H925 0.962 . S
C859 H926 0.961 . S
C860 C827 1.587 . S
C860 C861 1.360 . S
C860 C873 1.412 . S
C861 C860 1.360 . S
C861 C862 1.365 . S
C861 H927 0.929 . S
C862 C837 1.553 . S
C862 C861 1.365 . S
C862 C863 1.404 . S
C863 C862 1.404 . S
C863 C864 1.395 . S
C863 C874 1.451 . S
C864 C863 1.395 . S
C864 C865 1.322 . S
C864 H928 0.930 . S
C865 C864 1.322 . S
C865 C866 1.459 . S
C865 H929 0.929 . S
C866 C865 1.459 . S
C866 C867 1.445 . S
C866 C875 1.395 . S
C867 C845 1.432 . S
C867 C866 1.445 . S
C867 C868 1.370 . S
C868 C867 1.370 . S
C868 C869 1.438 . S
C868 H930 0.930 . S
C869 C855 1.497 . S
C869 C868 1.438 . S
C869 C870 1.360 . S
C870 C869 1.360 . S
C870 C871 1.401 . S
C870 C875 1.446 . S
C871 C870 1.401 . S
C871 C872 1.347 . S
C871 H931 0.929 . S
C872 C871 1.347 . S
C872 C873 1.455 . S
C872 H932 0.930 . S
C873 C860 1.412 . S
C873 C872 1.455 . S
C873 C874 1.331 . S
C874 C863 1.451 . S
C874 C873 1.331 . S
C874 C875 1.497 . S
C875 C866 1.395 . S
C875 C870 1.446 . S
C875 C874 1.497 . S
C876 C877 1.582 . S
C876 H933 0.962 . S
C876 H934 0.959 . S
C876 H935 0.958 . S
C877 C876 1.582 . S
C877 O880 1.458 . S
C877 H906 0.980 . S
O878 C823 1.426 . S
O878 C824 1.334 . S
O879 C851 1.412 . S
O879 C852 1.393 . S
O880 C842 1.435 . S
O880 C877 1.458 . S
O881 C833 1.468 . S
O881 C834 1.408 . S
H882 C823 0.980 . S
H883 C822 0.959 . S
H884 C822 0.959 . S
H885 C822 0.960 . S
H886 C825 0.929 . S
H887 C829 0.929 . S
H888 C830 0.959 . S
H889 C830 0.961 . S
H890 C830 0.961 . S
H891 C831 0.960 . S
H892 C831 0.960 . S
H893 C831 0.961 . S
H894 C833 0.980 . S
H895 C832 0.961 . S
H896 C832 0.960 . S
H897 C832 0.959 . S
H898 C835 0.930 . S
H899 C839 0.931 . S
H900 C840 0.959 . S
H901 C840 0.961 . S
H902 C840 0.959 . S
H903 C841 0.960 . S
H904 C841 0.960 . S
H905 C841 0.960 . S
H906 C877 0.980 . S
H907 C843 0.930 . S
H908 C847 0.930 . S
H909 C848 0.961 . S
H910 C848 0.960 . S
H911 C848 0.958 . S
H912 C849 0.961 . S
H913 C849 0.960 . S
H914 C849 0.960 . S
H915 C851 0.980 . S
H916 C850 0.961 . S
H917 C850 0.961 . S
H918 C850 0.959 . S
H919 C853 0.932 . S
H920 C857 0.929 . S
H921 C858 0.961 . S
H922 C858 0.959 . S
H923 C858 0.959 . S
H924 C859 0.960 . S
H925 C859 0.962 . S
H926 C859 0.961 . S
H927 C861 0.929 . S
H928 C864 0.930 . S
H929 C865 0.929 . S
H930 C868 0.930 . S
H931 C871 0.929 . S
H932 C872 0.930 . S
H933 C876 0.962 . S
H934 C876 0.959 . S
H935 C876 0.958 . S
C936 C937 1.560 . S
C936 H997 0.959 . S
C936 H998 0.959 . S
C936 H999 0.960 . S
C937 C936 1.560 . S
C937 O992 1.426 . S
C937 H996 0.980 . S
C938 C939 1.407 . S
C938 C943 1.418 . S
C938 O992 1.334 . S
C939 C938 1.407 . S
C939 C940 1.360 . S
C939 H1000 0.929 . S
C940 C939 1.360 . S
C940 C941 1.401 . S
C940 C944 1.527 . S
C941 C940 1.401 . S
C941 C942 1.405 . S
C941 C974 1.587 . S
C942 C941 1.405 . S
C942 C943 1.332 . S
C942 C945 1.496 . S
C943 C938 1.418 . S
C943 C942 1.332 . S
C943 H1001 0.929 . S
C944 C940 1.527 . S
C944 H1002 0.959 . S
C944 H1003 0.961 . S
C944 H1004 0.961 . S
C945 C942 1.496 . S
C945 H1005 0.960 . S
C945 H1006 0.960 . S
C945 H1007 0.961 . S
C946 C947 1.517 . S
C946 H1009 0.961 . S
C946 H1010 0.960 . S
C946 H1011 0.959 . S
C947 C946 1.517 . S
C947 O995 1.468 . S
C947 H1008 0.980 . S
C948 C949 1.349 . S
C948 C953 1.367 . S
C948 O995 1.408 . S
C949 C948 1.349 . S
C949 C950 1.407 . S
C949 H1012 0.930 . S
C950 C949 1.407 . S
C950 C951 1.449 . S
C950 C954 1.535 . S
C951 C950 1.449 . S
C951 C952 1.384 . S
C951 C976 1.553 . S
C952 C951 1.384 . S
C952 C953 1.364 . S
C952 C955 1.450 . S
C953 C948 1.367 . S
C953 C952 1.364 . S
C953 H1013 0.931 . S
C954 C950 1.535 . S
C954 H1014 0.959 . S
C954 H1015 0.961 . S
C954 H1016 0.959 . S
C955 C952 1.450 . S
C955 H1017 0.960 . S
C955 H1018 0.960 . S
C955 H1019 0.960 . S
C956 C957 1.309 . S
C956 C961 1.304 . S
C956 O994 1.435 . S
C957 C956 1.309 . S
C957 C958 1.476 . S
C957 H1021 0.930 . S
C958 C957 1.476 . S
C958 C959 1.400 . S
C958 C962 1.567 . S
C959 C958 1.400 . S
C959 C960 1.373 . S
C959 C981 1.432 . S
C960 C959 1.373 . S
C960 C961 1.339 . S
C960 C963 1.530 . S
C961 C956 1.304 . S
C961 C960 1.339 . S
C961 H1022 0.930 . S
C962 C958 1.567 . S
C962 H1023 0.961 . S
C962 H1024 0.960 . S
C962 H1025 0.958 . S
C963 C960 1.530 . S
C963 H1026 0.961 . S
C963 H1027 0.960 . S
C963 H1028 0.960 . S
C964 C965 1.530 . S
C964 H1030 0.961 . S
C964 H1031 0.961 . S
C964 H1032 0.959 . S
C965 C964 1.530 . S
C965 O993 1.412 . S
C965 H1029 0.980 . S
C966 C967 1.288 . S
C966 C971 1.377 . S
C966 O993 1.393 . S
C967 C966 1.288 . S
C967 C968 1.369 . S
C967 H1033 0.932 . S
C968 C967 1.369 . S
C968 C969 1.398 . S
C968 C972 1.527 . S
C969 C968 1.398 . S
C969 C970 1.380 . S
C969 C983 1.497 . S
C970 C969 1.380 . S
C970 C971 1.383 . S
C970 C973 1.603 . S
C971 C966 1.377 . S
C971 C970 1.383 . S
C971 H1034 0.929 . S
C972 C968 1.527 . S
C972 H1035 0.961 . S
C972 H1036 0.959 . S
C972 H1037 0.959 . S
C973 C970 1.603 . S
C973 H1038 0.960 . S
C973 H1039 0.962 . S
C973 H1040 0.961 . S
C974 C941 1.587 . S
C974 C975 1.360 . S
C974 C987 1.412 . S
C975 C974 1.360 . S
C975 C976 1.365 . S
C975 H1041 0.929 . S
C976 C951 1.553 . S
C976 C975 1.365 . S
C976 C977 1.404 . S
C977 C976 1.404 . S
C977 C978 1.395 . S
C977 C988 1.451 . S
C978 C977 1.395 . S
C978 C979 1.322 . S
C978 H1042 0.930 . S
C979 C978 1.322 . S
C979 C980 1.459 . S
C979 H1043 0.929 . S
C980 C979 1.459 . S
C980 C981 1.445 . S
C980 C989 1.395 . S
C981 C959 1.432 . S
C981 C980 1.445 . S
C981 C982 1.370 . S
C982 C981 1.370 . S
C982 C983 1.438 . S
C982 H1044 0.930 . S
C983 C969 1.497 . S
C983 C982 1.438 . S
C983 C984 1.360 . S
C984 C983 1.360 . S
C984 C985 1.401 . S
C984 C989 1.446 . S
C985 C984 1.401 . S
C985 C986 1.347 . S
C985 H1045 0.929 . S
C986 C985 1.347 . S
C986 C987 1.455 . S
C986 H1046 0.930 . S
C987 C974 1.412 . S
C987 C986 1.455 . S
C987 C988 1.331 . S
C988 C977 1.451 . S
C988 C987 1.331 . S
C988 C989 1.497 . S
C989 C980 1.395 . S
C989 C984 1.446 . S
C989 C988 1.497 . S
C990 C991 1.582 . S
C990 H1047 0.962 . S
C990 H1048 0.959 . S
C990 H1049 0.958 . S
C991 C990 1.582 . S
C991 O994 1.458 . S
C991 H1020 0.980 . S
O992 C937 1.426 . S
O992 C938 1.334 . S
O993 C965 1.412 . S
O993 C966 1.393 . S
O994 C956 1.435 . S
O994 C991 1.458 . S
O995 C947 1.468 . S
O995 C948 1.408 . S
H996 C937 0.980 . S
H997 C936 0.959 . S
H998 C936 0.959 . S
H999 C936 0.960 . S
H1000 C939 0.929 . S
H1001 C943 0.929 . S
H1002 C944 0.959 . S
H1003 C944 0.961 . S
H1004 C944 0.961 . S
H1005 C945 0.960 . S
H1006 C945 0.960 . S
H1007 C945 0.961 . S
H1008 C947 0.980 . S
H1009 C946 0.961 . S
H1010 C946 0.960 . S
H1011 C946 0.959 . S
H1012 C949 0.930 . S
H1013 C953 0.931 . S
H1014 C954 0.959 . S
H1015 C954 0.961 . S
H1016 C954 0.959 . S
H1017 C955 0.960 . S
H1018 C955 0.960 . S
H1019 C955 0.960 . S
H1020 C991 0.980 . S
H1021 C957 0.930 . S
H1022 C961 0.930 . S
H1023 C962 0.961 . S
H1024 C962 0.960 . S
H1025 C962 0.958 . S
H1026 C963 0.961 . S
H1027 C963 0.960 . S
H1028 C963 0.960 . S
H1029 C965 0.980 . S
H1030 C964 0.961 . S
H1031 C964 0.961 . S
H1032 C964 0.959 . S
H1033 C967 0.932 . S
H1034 C971 0.929 . S
H1035 C972 0.961 . S
H1036 C972 0.959 . S
H1037 C972 0.959 . S
H1038 C973 0.960 . S
H1039 C973 0.962 . S
H1040 C973 0.961 . S
H1041 C975 0.929 . S
H1042 C978 0.930 . S
H1043 C979 0.929 . S
H1044 C982 0.930 . S
H1045 C985 0.929 . S
H1046 C986 0.930 . S
H1047 C990 0.962 . S
H1048 C990 0.959 . S
H1049 C990 0.958 . S
C1050 C1051 1.560 . S
C1050 H1111 0.959 . S
C1050 H1112 0.959 . S
C1050 H1113 0.960 . S
C1051 C1050 1.560 . S
C1051 O1106 1.426 . S
C1051 H1110 0.980 . S
C1052 C1053 1.407 . S
C1052 C1057 1.418 . S
C1052 O1106 1.334 . S
C1053 C1052 1.407 . S
C1053 C1054 1.360 . S
C1053 H1114 0.929 . S
C1054 C1053 1.360 . S
C1054 C1055 1.401 . S
C1054 C1058 1.527 . S
C1055 C1054 1.401 . S
C1055 C1056 1.405 . S
C1055 C1088 1.587 . S
C1056 C1055 1.405 . S
C1056 C1057 1.332 . S
C1056 C1059 1.496 . S
C1057 C1052 1.418 . S
C1057 C1056 1.332 . S
C1057 H1115 0.929 . S
C1058 C1054 1.527 . S
C1058 H1116 0.959 . S
C1058 H1117 0.961 . S
C1058 H1118 0.961 . S
C1059 C1056 1.496 . S
C1059 H1119 0.960 . S
C1059 H1120 0.960 . S
C1059 H1121 0.961 . S
C1060 C1061 1.517 . S
C1060 H1123 0.961 . S
C1060 H1124 0.960 . S
C1060 H1125 0.959 . S
C1061 C1060 1.517 . S
C1061 O1109 1.468 . S
C1061 H1122 0.980 . S
C1062 C1063 1.349 . S
C1062 C1067 1.367 . S
C1062 O1109 1.408 . S
C1063 C1062 1.349 . S
C1063 C1064 1.407 . S
C1063 H1126 0.930 . S
C1064 C1063 1.407 . S
C1064 C1065 1.449 . S
C1064 C1068 1.535 . S
C1065 C1064 1.449 . S
C1065 C1066 1.384 . S
C1065 C1090 1.553 . S
C1066 C1065 1.384 . S
C1066 C1067 1.364 . S
C1066 C1069 1.450 . S
C1067 C1062 1.367 . S
C1067 C1066 1.364 . S
C1067 H1127 0.931 . S
C1068 C1064 1.535 . S
C1068 H1128 0.959 . S
C1068 H1129 0.961 . S
C1068 H1130 0.959 . S
C1069 C1066 1.450 . S
C1069 H1131 0.960 . S
C1069 H1132 0.960 . S
C1069 H1133 0.960 . S
C1070 C1071 1.309 . S
C1070 C1075 1.304 . S
C1070 O1108 1.435 . S
C1071 C1070 1.309 . S
C1071 C1072 1.476 . S
C1071 H1135 0.930 . S
C1072 C1071 1.476 . S
C1072 C1073 1.400 . S
C1072 C1076 1.567 . S
C1073 C1072 1.400 . S
C1073 C1074 1.373 . S
C1073 C1095 1.432 . S
C1074 C1073 1.373 . S
C1074 C1075 1.339 . S
C1074 C1077 1.530 . S
C1075 C1070 1.304 . S
C1075 C1074 1.339 . S
C1075 H1136 0.930 . S
C1076 C1072 1.567 . S
C1076 H1137 0.961 . S
C1076 H1138 0.960 . S
C1076 H1139 0.958 . S
C1077 C1074 1.530 . S
C1077 H1140 0.961 . S
C1077 H1141 0.960 . S
C1077 H1142 0.960 . S
C1078 C1079 1.530 . S
C1078 H1144 0.961 . S
C1078 H1145 0.961 . S
C1078 H1146 0.959 . S
C1079 C1078 1.530 . S
C1079 O1107 1.412 . S
C1079 H1143 0.980 . S
C1080 C1081 1.288 . S
C1080 C1085 1.377 . S
C1080 O1107 1.393 . S
C1081 C1080 1.288 . S
C1081 C1082 1.369 . S
C1081 H1147 0.932 . S
C1082 C1081 1.369 . S
C1082 C1083 1.398 . S
C1082 C1086 1.527 . S
C1083 C1082 1.398 . S
C1083 C1084 1.380 . S
C1083 C1097 1.497 . S
C1084 C1083 1.380 . S
C1084 C1085 1.383 . S
C1084 C1087 1.603 . S
C1085 C1080 1.377 . S
C1085 C1084 1.383 . S
C1085 H1148 0.929 . S
C1086 C1082 1.527 . S
C1086 H1149 0.961 . S
C1086 H1150 0.959 . S
C1086 H1151 0.959 . S
C1087 C1084 1.603 . S
C1087 H1152 0.960 . S
C1087 H1153 0.962 . S
C1087 H1154 0.961 . S
C1088 C1055 1.587 . S
C1088 C1089 1.360 . S
C1088 C1101 1.412 . S
C1089 C1088 1.360 . S
C1089 C1090 1.365 . S
C1089 H1155 0.929 . S
C1090 C1065 1.553 . S
C1090 C1089 1.365 . S
C1090 C1091 1.404 . S
C1091 C1090 1.404 . S
C1091 C1092 1.395 . S
C1091 C1102 1.451 . S
C1092 C1091 1.395 . S
C1092 C1093 1.322 . S
C1092 H1156 0.930 . S
C1093 C1092 1.322 . S
C1093 C1094 1.459 . S
C1093 H1157 0.929 . S
C1094 C1093 1.459 . S
C1094 C1095 1.445 . S
C1094 C1103 1.395 . S
C1095 C1073 1.432 . S
C1095 C1094 1.445 . S
C1095 C1096 1.370 . S
C1096 C1095 1.370 . S
C1096 C1097 1.438 . S
C1096 H1158 0.930 . S
C1097 C1083 1.497 . S
C1097 C1096 1.438 . S
C1097 C1098 1.360 . S
C1098 C1097 1.360 . S
C1098 C1099 1.401 . S
C1098 C1103 1.446 . S
C1099 C1098 1.401 . S
C1099 C1100 1.347 . S
C1099 H1159 0.929 . S
C1100 C1099 1.347 . S
C1100 C1101 1.455 . S
C1100 H1160 0.930 . S
C1101 C1088 1.412 . S
C1101 C1100 1.455 . S
C1101 C1102 1.331 . S
C1102 C1091 1.451 . S
C1102 C1101 1.331 . S
C1102 C1103 1.497 . S
C1103 C1094 1.395 . S
C1103 C1098 1.446 . S
C1103 C1102 1.497 . S
C1104 C1105 1.582 . S
C1104 H1161 0.962 . S
C1104 H1162 0.959 . S
C1104 H1163 0.958 . S
C1105 C1104 1.582 . S
C1105 O1108 1.458 . S
C1105 H1134 0.980 . S
O1106 C1051 1.426 . S
O1106 C1052 1.334 . S
O1107 C1079 1.412 . S
O1107 C1080 1.393 . S
O1108 C1070 1.435 . S
O1108 C1105 1.458 . S
O1109 C1061 1.468 . S
O1109 C1062 1.408 . S
H1110 C1051 0.980 . S
H1111 C1050 0.959 . S
H1112 C1050 0.959 . S
H1113 C1050 0.960 . S
H1114 C1053 0.929 . S
H1115 C1057 0.929 . S
H1116 C1058 0.959 . S
H1117 C1058 0.961 . S
H1118 C1058 0.961 . S
H1119 C1059 0.960 . S
H1120 C1059 0.960 . S
H1121 C1059 0.961 . S
H1122 C1061 0.980 . S
H1123 C1060 0.961 . S
H1124 C1060 0.960 . S
H1125 C1060 0.959 . S
H1126 C1063 0.930 . S
H1127 C1067 0.931 . S
H1128 C1068 0.959 . S
H1129 C1068 0.961 . S
H1130 C1068 0.959 . S
H1131 C1069 0.960 . S
H1132 C1069 0.960 . S
H1133 C1069 0.960 . S
H1134 C1105 0.980 . S
H1135 C1071 0.930 . S
H1136 C1075 0.930 . S
H1137 C1076 0.961 . S
H1138 C1076 0.960 . S
H1139 C1076 0.958 . S
H1140 C1077 0.961 . S
H1141 C1077 0.960 . S
H1142 C1077 0.960 . S
H1143 C1079 0.980 . S
H1144 C1078 0.961 . S
H1145 C1078 0.961 . S
H1146 C1078 0.959 . S
H1147 C1081 0.932 . S
H1148 C1085 0.929 . S
H1149 C1086 0.961 . S
H1150 C1086 0.959 . S
H1151 C1086 0.959 . S
H1152 C1087 0.960 . S
H1153 C1087 0.962 . S
H1154 C1087 0.961 . S
H1155 C1089 0.929 . S
H1156 C1092 0.930 . S
H1157 C1093 0.929 . S
H1158 C1096 0.930 . S
H1159 C1099 0.929 . S
H1160 C1100 0.930 . S
H1161 C1104 0.962 . S
H1162 C1104 0.959 . S
H1163 C1104 0.958 . S
C1164 C1165 1.560 . S
C1164 H1225 0.959 . S
C1164 H1226 0.959 . S
C1164 H1227 0.960 . S
C1165 C1164 1.560 . S
C1165 O1220 1.426 . S
C1165 H1224 0.980 . S
C1166 C1167 1.407 . S
C1166 C1171 1.418 . S
C1166 O1220 1.334 . S
C1167 C1166 1.407 . S
C1167 C1168 1.360 . S
C1167 H1228 0.929 . S
C1168 C1167 1.360 . S
C1168 C1169 1.401 . S
C1168 C1172 1.527 . S
C1169 C1168 1.401 . S
C1169 C1170 1.405 . S
C1169 C1202 1.587 . S
C1170 C1169 1.405 . S
C1170 C1171 1.332 . S
C1170 C1173 1.496 . S
C1171 C1166 1.418 . S
C1171 C1170 1.332 . S
C1171 H1229 0.929 . S
C1172 C1168 1.527 . S
C1172 H1230 0.959 . S
C1172 H1231 0.961 . S
C1172 H1232 0.961 . S
C1173 C1170 1.496 . S
C1173 H1233 0.960 . S
C1173 H1234 0.960 . S
C1173 H1235 0.961 . S
C1174 C1175 1.517 . S
C1174 H1237 0.961 . S
C1174 H1238 0.960 . S
C1174 H1239 0.959 . S
C1175 C1174 1.517 . S
C1175 O1223 1.468 . S
C1175 H1236 0.980 . S
C1176 C1177 1.349 . S
C1176 C1181 1.367 . S
C1176 O1223 1.408 . S
C1177 C1176 1.349 . S
C1177 C1178 1.407 . S
C1177 H1240 0.930 . S
C1178 C1177 1.407 . S
C1178 C1179 1.449 . S
C1178 C1182 1.535 . S
C1179 C1178 1.449 . S
C1179 C1180 1.384 . S
C1179 C1204 1.553 . S
C1180 C1179 1.384 . S
C1180 C1181 1.364 . S
C1180 C1183 1.450 . S
C1181 C1176 1.367 . S
C1181 C1180 1.364 . S
C1181 H1241 0.931 . S
C1182 C1178 1.535 . S
C1182 H1242 0.959 . S
C1182 H1243 0.961 . S
C1182 H1244 0.959 . S
C1183 C1180 1.450 . S
C1183 H1245 0.960 . S
C1183 H1246 0.960 . S
C1183 H1247 0.960 . S
C1184 C1185 1.309 . S
C1184 C1189 1.304 . S
C1184 O1222 1.435 . S
C1185 C1184 1.309 . S
C1185 C1186 1.476 . S
C1185 H1249 0.930 . S
C1186 C1185 1.476 . S
C1186 C1187 1.400 . S
C1186 C1190 1.567 . S
C1187 C1186 1.400 . S
C1187 C1188 1.373 . S
C1187 C1209 1.432 . S
C1188 C1187 1.373 . S
C1188 C1189 1.339 . S
C1188 C1191 1.530 . S
C1189 C1184 1.304 . S
C1189 C1188 1.339 . S
C1189 H1250 0.930 . S
C1190 C1186 1.567 . S
C1190 H1251 0.961 . S
C1190 H1252 0.960 . S
C1190 H1253 0.958 . S
C1191 C1188 1.530 . S
C1191 H1254 0.961 . S
C1191 H1255 0.960 . S
C1191 H1256 0.960 . S
C1192 C1193 1.530 . S
C1192 H1258 0.961 . S
C1192 H1259 0.961 . S
C1192 H1260 0.959 . S
C1193 C1192 1.530 . S
C1193 O1221 1.412 . S
C1193 H1257 0.980 . S
C1194 C1195 1.288 . S
C1194 C1199 1.377 . S
C1194 O1221 1.393 . S
C1195 C1194 1.288 . S
C1195 C1196 1.369 . S
C1195 H1261 0.932 . S
C1196 C1195 1.369 . S
C1196 C1197 1.398 . S
C1196 C1200 1.527 . S
C1197 C1196 1.398 . S
C1197 C1198 1.380 . S
C1197 C1211 1.497 . S
C1198 C1197 1.380 . S
C1198 C1199 1.383 . S
C1198 C1201 1.603 . S
C1199 C1194 1.377 . S
C1199 C1198 1.383 . S
C1199 H1262 0.929 . S
C1200 C1196 1.527 . S
C1200 H1263 0.961 . S
C1200 H1264 0.959 . S
C1200 H1265 0.959 . S
C1201 C1198 1.603 . S
C1201 H1266 0.960 . S
C1201 H1267 0.962 . S
C1201 H1268 0.961 . S
C1202 C1169 1.587 . S
C1202 C1203 1.360 . S
C1202 C1215 1.412 . S
C1203 C1202 1.360 . S
C1203 C1204 1.365 . S
C1203 H1269 0.929 . S
C1204 C1179 1.553 . S
C1204 C1203 1.365 . S
C1204 C1205 1.404 . S
C1205 C1204 1.404 . S
C1205 C1206 1.395 . S
C1205 C1216 1.451 . S
C1206 C1205 1.395 . S
C1206 C1207 1.322 . S
C1206 H1270 0.930 . S
C1207 C1206 1.322 . S
C1207 C1208 1.459 . S
C1207 H1271 0.929 . S
C1208 C1207 1.459 . S
C1208 C1209 1.445 . S
C1208 C1217 1.395 . S
C1209 C1187 1.432 . S
C1209 C1208 1.445 . S
C1209 C1210 1.370 . S
C1210 C1209 1.370 . S
C1210 C1211 1.438 . S
C1210 H1272 0.930 . S
C1211 C1197 1.497 . S
C1211 C1210 1.438 . S
C1211 C1212 1.360 . S
C1212 C1211 1.360 . S
C1212 C1213 1.401 . S
C1212 C1217 1.446 . S
C1213 C1212 1.401 . S
C1213 C1214 1.347 . S
C1213 H1273 0.929 . S
C1214 C1213 1.347 . S
C1214 C1215 1.455 . S
C1214 H1274 0.930 . S
C1215 C1202 1.412 . S
C1215 C1214 1.455 . S
C1215 C1216 1.331 . S
C1216 C1205 1.451 . S
C1216 C1215 1.331 . S
C1216 C1217 1.497 . S
C1217 C1208 1.395 . S
C1217 C1212 1.446 . S
C1217 C1216 1.497 . S
C1218 C1219 1.582 . S
C1218 H1275 0.962 . S
C1218 H1276 0.959 . S
C1218 H1277 0.958 . S
C1219 C1218 1.582 . S
C1219 O1222 1.458 . S
C1219 H1248 0.980 . S
O1220 C1165 1.426 . S
O1220 C1166 1.334 . S
O1221 C1193 1.412 . S
O1221 C1194 1.393 . S
O1222 C1184 1.435 . S
O1222 C1219 1.458 . S
O1223 C1175 1.468 . S
O1223 C1176 1.408 . S
H1224 C1165 0.980 . S
H1225 C1164 0.959 . S
H1226 C1164 0.959 . S
H1227 C1164 0.960 . S
H1228 C1167 0.929 . S
H1229 C1171 0.929 . S
H1230 C1172 0.959 . S
H1231 C1172 0.961 . S
H1232 C1172 0.961 . S
H1233 C1173 0.960 . S
H1234 C1173 0.960 . S
H1235 C1173 0.961 . S
H1236 C1175 0.980 . S
H1237 C1174 0.961 . S
H1238 C1174 0.960 . S
H1239 C1174 0.959 . S
H1240 C1177 0.930 . S
H1241 C1181 0.931 . S
H1242 C1182 0.959 . S
H1243 C1182 0.961 . S
H1244 C1182 0.959 . S
H1245 C1183 0.960 . S
H1246 C1183 0.960 . S
H1247 C1183 0.960 . S
H1248 C1219 0.980 . S
H1249 C1185 0.930 . S
H1250 C1189 0.930 . S
H1251 C1190 0.961 . S
H1252 C1190 0.960 . S
H1253 C1190 0.958 . S
H1254 C1191 0.961 . S
H1255 C1191 0.960 . S
H1256 C1191 0.960 . S
H1257 C1193 0.980 . S
H1258 C1192 0.961 . S
H1259 C1192 0.961 . S
H1260 C1192 0.959 . S
H1261 C1195 0.932 . S
H1262 C1199 0.929 . S
H1263 C1200 0.961 . S
H1264 C1200 0.959 . S
H1265 C1200 0.959 . S
H1266 C1201 0.960 . S
H1267 C1201 0.962 . S
H1268 C1201 0.961 . S
H1269 C1203 0.929 . S
H1270 C1206 0.930 . S
H1271 C1207 0.929 . S
H1272 C1210 0.930 . S
H1273 C1213 0.929 . S
H1274 C1214 0.930 . S
H1275 C1218 0.962 . S
H1276 C1218 0.959 . S
H1277 C1218 0.958 . S
C1278 C1279 1.560 . S
C1278 H1339 0.959 . S
C1278 H1340 0.959 . S
C1278 H1341 0.960 . S
C1279 C1278 1.560 . S
C1279 O1334 1.426 . S
C1279 H1338 0.980 . S
C1280 C1281 1.407 1_455 S
C1280 C1285 1.418 . S
C1280 O1334 1.334 . S
C1281 C1280 1.407 1_655 S
C1281 C1282 1.360 . S
C1281 H1342 0.929 . S
C1282 C1281 1.360 . S
C1282 C1283 1.401 1_655 S
C1282 C1286 1.527 . S
C1283 C1282 1.401 1_455 S
C1283 C1284 1.405 . S
C1283 C1316 1.587 1_455 S
C1284 C1283 1.405 . S
C1284 C1285 1.332 . S
C1284 C1287 1.496 . S
C1285 C1280 1.418 . S
C1285 C1284 1.332 . S
C1285 H1343 0.929 . S
C1286 C1282 1.527 . S
C1286 H1344 0.959 . S
C1286 H1345 0.961 . S
C1286 H1346 0.961 . S
C1287 C1284 1.496 . S
C1287 H1347 0.960 . S
C1287 H1348 0.960 . S
C1287 H1349 0.961 . S
C1288 C1289 1.517 . S
C1288 H1351 0.961 . S
C1288 H1352 0.960 . S
C1288 H1353 0.959 . S
C1289 C1288 1.517 . S
C1289 O1337 1.468 . S
C1289 H1350 0.980 1_655 S
C1290 C1291 1.349 . S
C1290 C1295 1.367 . S
C1290 O1337 1.408 . S
C1291 C1290 1.349 . S
C1291 C1292 1.379 1_655 S
C1291 H1354 0.930 1_655 S
C1292 C1291 1.379 1_455 S
C1292 C1293 1.426 1_455 S
C1292 C1296 1.583 . S
C1293 C1292 1.426 1_655 S
C1293 C1294 1.384 . S
C1293 C1318 1.553 . S
C1294 C1293 1.384 . S
C1294 C1295 1.364 . S
C1294 C1297 1.450 . S
C1295 C1290 1.367 . S
C1295 C1294 1.364 . S
C1295 H1355 0.931 . S
C1296 C1292 1.583 . S
C1296 H1356 0.959 . S
C1296 H1357 0.961 . S
C1296 H1358 0.959 . S
C1297 C1294 1.450 . S
C1297 H1359 0.960 . S
C1297 H1360 0.960 . S
C1297 H1361 0.960 . S
C1298 C1299 1.309 . S
C1298 C1303 1.304 . S
C1298 O1336 1.435 . S
C1299 C1298 1.309 . S
C1299 C1300 1.482 1_655 S
C1299 H1363 0.930 1_655 S
C1300 C1299 1.482 1_455 S
C1300 C1301 1.404 1_455 S
C1300 C1304 1.557 . S
C1301 C1300 1.404 1_655 S
C1301 C1302 1.373 . S
C1301 C1323 1.432 . S
C1302 C1301 1.373 . S
C1302 C1303 1.339 . S
C1302 C1305 1.530 . S
C1303 C1298 1.304 . S
C1303 C1302 1.339 . S
C1303 H1364 0.930 . S
C1304 C1300 1.557 . S
C1304 H1365 0.961 . S
C1304 H1366 0.960 . S
C1304 H1367 0.958 . S
C1305 C1302 1.530 . S
C1305 H1368 0.961 . S
C1305 H1369 0.960 . S
C1305 H1370 0.960 . S
C1306 C1307 1.558 . S
C1306 H1372 0.961 . S
C1306 H1373 0.961 . S
C1306 H1374 0.959 . S
C1307 C1306 1.558 . S
C1307 O1335 1.417 . S
C1307 H1371 0.973 1_455 S
C1308 C1309 1.288 . S
C1308 C1313 1.377 1_455 S
C1308 O1335 1.393 . S
C1309 C1308 1.288 . S
C1309 C1310 1.369 . S
C1309 H1375 0.932 . S
C1310 C1309 1.369 . S
C1310 C1311 1.398 1_455 S
C1310 C1314 1.527 . S
C1311 C1310 1.398 1_655 S
C1311 C1312 1.380 . S
C1311 C1325 1.497 . S
C1312 C1311 1.380 . S
C1312 C1313 1.383 . S
C1312 C1315 1.603 . S
C1313 C1308 1.377 1_655 S
C1313 C1312 1.383 . S
C1313 H1376 0.929 . S
C1314 C1310 1.527 . S
C1314 H1377 0.961 . S
C1314 H1378 0.959 . S
C1314 H1379 0.959 . S
C1315 C1312 1.603 . S
C1315 H1380 0.960 . S
C1315 H1381 0.962 . S
C1315 H1382 0.961 . S
C1316 C1283 1.587 1_655 S
C1316 C1317 1.360 . S
C1316 C1329 1.412 . S
C1317 C1316 1.360 . S
C1317 C1318 1.365 . S
C1317 H1383 0.929 . S
C1318 C1293 1.553 . S
C1318 C1317 1.365 . S
C1318 C1319 1.404 . S
C1319 C1318 1.404 . S
C1319 C1320 1.395 . S
C1319 C1330 1.451 . S
C1320 C1319 1.395 . S
C1320 C1321 1.322 . S
C1320 H1384 0.930 . S
C1321 C1320 1.322 . S
C1321 C1322 1.459 . S
C1321 H1385 0.929 . S
C1322 C1321 1.459 . S
C1322 C1323 1.445 . S
C1322 C1331 1.395 . S
C1323 C1301 1.432 . S
C1323 C1322 1.445 . S
C1323 C1324 1.370 . S
C1324 C1323 1.370 . S
C1324 C1325 1.438 . S
C1324 H1386 0.930 . S
C1325 C1311 1.497 . S
C1325 C1324 1.438 . S
C1325 C1326 1.360 . S
C1326 C1325 1.360 . S
C1326 C1327 1.401 . S
C1326 C1331 1.446 . S
C1327 C1326 1.401 . S
C1327 C1328 1.347 . S
C1327 H1387 0.986 . S
C1328 C1327 1.347 . S
C1328 C1329 1.455 . S
C1328 H1388 0.984 . S
C1329 C1316 1.412 . S
C1329 C1328 1.455 . S
C1329 C1330 1.331 . S
C1330 C1319 1.451 . S
C1330 C1329 1.331 . S
C1330 C1331 1.497 . S
C1331 C1322 1.395 . S
C1331 C1326 1.446 . S
C1331 C1330 1.497 . S
C1332 C1333 1.582 . S
C1332 H1389 0.962 . S
C1332 H1390 0.959 . S
C1332 H1391 0.958 . S
C1333 C1332 1.582 . S
C1333 O1336 1.458 . S
C1333 H1362 0.980 . S
O1334 C1279 1.426 . S
O1334 C1280 1.334 . S
O1335 C1307 1.417 . S
O1335 C1308 1.393 . S
O1336 C1298 1.435 . S
O1336 C1333 1.458 . S
O1337 C1289 1.468 . S
O1337 C1290 1.408 . S
H1338 C1279 0.980 . S
H1339 C1278 0.959 . S
H1340 C1278 0.959 . S
H1341 C1278 0.960 . S
H1342 C1281 0.929 . S
H1343 C1285 0.929 . S
H1344 C1286 0.959 . S
H1345 C1286 0.961 . S
H1346 C1286 0.961 . S
H1347 C1287 0.960 . S
H1348 C1287 0.960 . S
H1349 C1287 0.961 . S
H1350 C1289 0.980 1_455 S
H1351 C1288 0.961 . S
H1352 C1288 0.960 . S
H1353 C1288 0.959 . S
H1354 C1291 0.930 1_455 S
H1355 C1295 0.931 . S
H1356 C1296 0.959 . S
H1357 C1296 0.961 . S
H1358 C1296 0.959 . S
H1359 C1297 0.960 . S
H1360 C1297 0.960 . S
H1361 C1297 0.960 . S
H1362 C1333 0.980 . S
H1363 C1299 0.930 1_455 S
H1364 C1303 0.930 . S
H1365 C1304 0.961 . S
H1366 C1304 0.960 . S
H1367 C1304 0.958 . S
H1368 C1305 0.961 . S
H1369 C1305 0.960 . S
H1370 C1305 0.960 . S
H1371 C1307 0.973 1_655 S
H1372 C1306 0.961 . S
H1373 C1306 0.961 . S
H1374 C1306 0.959 . S
H1375 C1309 0.932 . S
H1376 C1313 0.929 . S
H1377 C1314 0.961 . S
H1378 C1314 0.959 . S
H1379 C1314 0.959 . S
H1380 C1315 0.960 . S
H1381 C1315 0.962 . S
H1382 C1315 0.961 . S
H1383 C1317 0.929 . S
H1384 C1320 0.930 . S
H1385 C1321 0.929 . S
H1386 C1324 0.930 . S
H1387 C1327 0.986 . S
H1388 C1328 0.984 . S
H1389 C1332 0.962 . S
H1390 C1332 0.959 . S
H1391 C1332 0.958 . S
C1392 C1393 1.560 . S
C1392 H1453 0.959 . S
C1392 H1454 0.959 . S
C1392 H1455 0.960 . S
C1393 C1392 1.560 . S
C1393 O1448 1.426 . S
C1393 H1452 0.980 . S
C1394 C1395 1.407 . S
C1394 C1399 1.418 . S
C1394 O1448 1.334 . S
C1395 C1394 1.407 . S
C1395 C1396 1.360 . S
C1395 H1456 0.929 . S
C1396 C1395 1.360 . S
C1396 C1397 1.401 . S
C1396 C1400 1.527 . S
C1397 C1396 1.401 . S
C1397 C1398 1.405 . S
C1397 C1430 1.587 . S
C1398 C1397 1.405 . S
C1398 C1399 1.332 . S
C1398 C1401 1.496 . S
C1399 C1394 1.418 . S
C1399 C1398 1.332 . S
C1399 H1457 0.929 . S
C1400 C1396 1.527 . S
C1400 H1458 0.959 . S
C1400 H1459 0.961 . S
C1400 H1460 0.961 . S
C1401 C1398 1.496 . S
C1401 H1461 0.960 . S
C1401 H1462 0.960 . S
C1401 H1463 0.961 . S
C1402 C1403 1.517 . S
C1402 H1465 0.961 . S
C1402 H1466 0.960 . S
C1402 H1467 0.959 . S
C1403 C1402 1.517 . S
C1403 O1451 1.468 . S
C1403 H1464 0.980 . S
C1404 C1405 1.349 . S
C1404 C1409 1.367 . S
C1404 O1451 1.408 . S
C1405 C1404 1.349 . S
C1405 C1406 1.407 . S
C1405 H1468 0.930 . S
C1406 C1405 1.407 . S
C1406 C1407 1.449 . S
C1406 C1410 1.535 . S
C1407 C1406 1.449 . S
C1407 C1408 1.384 . S
C1407 C1432 1.553 . S
C1408 C1407 1.384 . S
C1408 C1409 1.364 . S
C1408 C1411 1.450 . S
C1409 C1404 1.367 . S
C1409 C1408 1.364 . S
C1409 H1469 0.931 . S
C1410 C1406 1.535 . S
C1410 H1470 0.959 . S
C1410 H1471 0.961 . S
C1410 H1472 0.959 . S
C1411 C1408 1.450 . S
C1411 H1473 0.960 . S
C1411 H1474 0.960 . S
C1411 H1475 0.960 . S
C1412 C1413 1.309 . S
C1412 C1417 1.304 . S
C1412 O1450 1.435 . S
C1413 C1412 1.309 . S
C1413 C1414 1.476 . S
C1413 H1477 0.930 . S
C1414 C1413 1.476 . S
C1414 C1415 1.400 . S
C1414 C1418 1.567 . S
C1415 C1414 1.400 . S
C1415 C1416 1.373 . S
C1415 C1437 1.432 . S
C1416 C1415 1.373 . S
C1416 C1417 1.339 . S
C1416 C1419 1.530 . S
C1417 C1412 1.304 . S
C1417 C1416 1.339 . S
C1417 H1478 0.930 . S
C1418 C1414 1.567 . S
C1418 H1479 0.961 . S
C1418 H1480 0.960 . S
C1418 H1481 0.958 . S
C1419 C1416 1.530 . S
C1419 H1482 0.961 . S
C1419 H1483 0.960 . S
C1419 H1484 0.960 . S
C1420 C1421 1.530 . S
C1420 H1486 0.961 . S
C1420 H1487 0.961 . S
C1420 H1488 0.959 . S
C1421 C1420 1.530 . S
C1421 O1449 1.412 . S
C1421 H1485 0.980 . S
C1422 C1423 1.288 . S
C1422 C1427 1.377 . S
C1422 O1449 1.393 . S
C1423 C1422 1.288 . S
C1423 C1424 1.369 . S
C1423 H1489 0.932 . S
C1424 C1423 1.369 . S
C1424 C1425 1.398 . S
C1424 C1428 1.527 . S
C1425 C1424 1.398 . S
C1425 C1426 1.380 . S
C1425 C1439 1.497 . S
C1426 C1425 1.380 . S
C1426 C1427 1.383 . S
C1426 C1429 1.603 . S
C1427 C1422 1.377 . S
C1427 C1426 1.383 . S
C1427 H1490 0.929 . S
C1428 C1424 1.527 . S
C1428 H1491 0.961 . S
C1428 H1492 0.959 . S
C1428 H1493 0.959 . S
C1429 C1426 1.603 . S
C1429 H1494 0.960 . S
C1429 H1495 0.962 . S
C1429 H1496 0.961 . S
C1430 C1397 1.587 . S
C1430 C1431 1.360 . S
C1430 C1443 1.412 . S
C1431 C1430 1.360 . S
C1431 C1432 1.365 . S
C1431 H1497 0.929 . S
C1432 C1407 1.553 . S
C1432 C1431 1.365 . S
C1432 C1433 1.404 . S
C1433 C1432 1.404 . S
C1433 C1434 1.395 . S
C1433 C1444 1.451 . S
C1434 C1433 1.395 . S
C1434 C1435 1.322 . S
C1434 H1498 0.930 . S
C1435 C1434 1.322 . S
C1435 C1436 1.459 . S
C1435 H1499 0.929 . S
C1436 C1435 1.459 . S
C1436 C1437 1.445 . S
C1436 C1445 1.395 . S
C1437 C1415 1.432 . S
C1437 C1436 1.445 . S
C1437 C1438 1.370 . S
C1438 C1437 1.370 . S
C1438 C1439 1.438 . S
C1438 H1500 0.930 . S
C1439 C1425 1.497 . S
C1439 C1438 1.438 . S
C1439 C1440 1.360 . S
C1440 C1439 1.360 . S
C1440 C1441 1.401 . S
C1440 C1445 1.446 . S
C1441 C1440 1.401 . S
C1441 C1442 1.347 . S
C1441 H1501 0.929 . S
C1442 C1441 1.347 . S
C1442 C1443 1.455 . S
C1442 H1502 0.930 . S
C1443 C1430 1.412 . S
C1443 C1442 1.455 . S
C1443 C1444 1.331 . S
C1444 C1433 1.451 . S
C1444 C1443 1.331 . S
C1444 C1445 1.497 . S
C1445 C1436 1.395 . S
C1445 C1440 1.446 . S
C1445 C1444 1.497 . S
C1446 C1447 1.582 . S
C1446 H1503 0.962 . S
C1446 H1504 0.959 . S
C1446 H1505 0.958 . S
C1447 C1446 1.582 . S
C1447 O1450 1.458 . S
C1447 H1476 0.980 . S
O1448 C1393 1.426 . S
O1448 C1394 1.334 . S
O1449 C1421 1.412 . S
O1449 C1422 1.393 . S
O1450 C1412 1.435 . S
O1450 C1447 1.458 . S
O1451 C1403 1.468 . S
O1451 C1404 1.408 . S
H1452 C1393 0.980 . S
H1453 C1392 0.959 . S
H1454 C1392 0.959 . S
H1455 C1392 0.960 . S
H1456 C1395 0.929 . S
H1457 C1399 0.929 . S
H1458 C1400 0.959 . S
H1459 C1400 0.961 . S
H1460 C1400 0.961 . S
H1461 C1401 0.960 . S
H1462 C1401 0.960 . S
H1463 C1401 0.961 . S
H1464 C1403 0.980 . S
H1465 C1402 0.961 . S
H1466 C1402 0.960 . S
H1467 C1402 0.959 . S
H1468 C1405 0.930 . S
H1469 C1409 0.931 . S
H1470 C1410 0.959 . S
H1471 C1410 0.961 . S
H1472 C1410 0.959 . S
H1473 C1411 0.960 . S
H1474 C1411 0.960 . S
H1475 C1411 0.960 . S
H1476 C1447 0.980 . S
H1477 C1413 0.930 . S
H1478 C1417 0.930 . S
H1479 C1418 0.961 . S
H1480 C1418 0.960 . S
H1481 C1418 0.958 . S
H1482 C1419 0.961 . S
H1483 C1419 0.960 . S
H1484 C1419 0.960 . S
H1485 C1421 0.980 . S
H1486 C1420 0.961 . S
H1487 C1420 0.961 . S
H1488 C1420 0.959 . S
H1489 C1423 0.932 . S
H1490 C1427 0.929 . S
H1491 C1428 0.961 . S
H1492 C1428 0.959 . S
H1493 C1428 0.959 . S
H1494 C1429 0.960 . S
H1495 C1429 0.962 . S
H1496 C1429 0.961 . S
H1497 C1431 0.929 . S
H1498 C1434 0.930 . S
H1499 C1435 0.929 . S
H1500 C1438 0.930 . S
H1501 C1441 0.929 . S
H1502 C1442 0.930 . S
H1503 C1446 0.962 . S
H1504 C1446 0.959 . S
H1505 C1446 0.958 . S
C1506 C1507 1.560 . S
C1506 H1567 0.959 . S
C1506 H1568 0.959 . S
C1506 H1569 0.960 . S
C1507 C1506 1.560 . S
C1507 O1562 1.426 . S
C1507 H1566 0.980 . S
C1508 C1509 1.407 1_565 S
C1508 C1513 1.418 . S
C1508 O1562 1.334 . S
C1509 C1508 1.407 1_545 S
C1509 C1510 1.360 . S
C1509 H1570 0.929 . S
C1510 C1509 1.360 . S
C1510 C1511 1.401 1_545 S
C1510 C1514 1.527 . S
C1511 C1510 1.401 1_565 S
C1511 C1512 1.405 . S
C1511 C1544 1.587 1_565 S
C1512 C1511 1.405 . S
C1512 C1513 1.332 . S
C1512 C1515 1.496 . S
C1513 C1508 1.418 . S
C1513 C1512 1.332 . S
C1513 H1571 0.929 . S
C1514 C1510 1.527 . S
C1514 H1572 0.959 . S
C1514 H1573 0.961 . S
C1514 H1574 0.961 . S
C1515 C1512 1.496 . S
C1515 H1575 0.960 . S
C1515 H1576 0.960 . S
C1515 H1577 0.961 . S
C1516 C1517 1.517 . S
C1516 H1579 0.961 1_545 S
C1516 H1580 0.960 . S
C1516 H1581 0.959 . S
C1517 C1516 1.517 . S
C1517 O1565 1.468 . S
C1517 H1578 0.980 1_545 S
C1518 C1519 1.359 . S
C1518 C1523 1.367 . S
C1518 O1565 1.408 . S
C1519 C1518 1.359 . S
C1519 C1520 1.414 1_545 S
C1519 H1582 0.914 1_545 S
C1520 C1519 1.414 1_565 S
C1520 C1521 1.449 1_565 S
C1520 C1524 1.535 . S
C1521 C1520 1.449 1_545 S
C1521 C1522 1.384 . S
C1521 C1546 1.553 . S
C1522 C1521 1.384 . S
C1522 C1523 1.364 . S
C1522 C1525 1.450 . S
C1523 C1518 1.367 . S
C1523 C1522 1.364 . S
C1523 H1583 0.931 . S
C1524 C1520 1.535 . S
C1524 H1584 0.959 . S
C1524 H1585 0.961 . S
C1524 H1586 0.959 . S
C1525 C1522 1.450 . S
C1525 H1587 0.960 . S
C1525 H1588 0.960 . S
C1525 H1589 0.960 . S
C1526 C1527 1.309 . S
C1526 C1531 1.304 . S
C1526 O1564 1.435 . S
C1527 C1526 1.309 . S
C1527 C1528 1.493 1_545 S
C1527 H1591 0.930 1_545 S
C1528 C1527 1.493 1_565 S
C1528 C1529 1.347 1_565 S
C1528 C1532 1.603 . S
C1529 C1528 1.347 1_545 S
C1529 C1530 1.373 . S
C1529 C1551 1.432 . S
C1530 C1529 1.373 . S
C1530 C1531 1.339 . S
C1530 C1533 1.530 . S
C1531 C1526 1.304 . S
C1531 C1530 1.339 . S
C1531 H1592 0.930 . S
C1532 C1528 1.603 . S
C1532 H1593 0.961 . S
C1532 H1594 0.960 . S
C1532 H1595 0.958 . S
C1533 C1530 1.530 . S
C1533 H1596 0.961 . S
C1533 H1597 0.960 . S
C1533 H1598 0.960 . S
C1534 C1535 1.530 1_565 S
C1534 H1600 0.961 . S
C1534 H1601 0.961 . S
C1534 H1602 0.959 . S
C1535 C1534 1.530 1_545 S
C1535 O1563 1.412 1_545 S
C1535 H1599 0.980 . S
C1536 C1537 1.288 . S
C1536 C1541 1.377 1_565 S
C1536 O1563 1.393 . S
C1537 C1536 1.288 . S
C1537 C1538 1.369 . S
C1537 H1603 0.932 . S
C1538 C1537 1.369 . S
C1538 C1539 1.398 1_565 S
C1538 C1542 1.527 . S
C1539 C1538 1.398 1_545 S
C1539 C1540 1.380 . S
C1539 C1553 1.497 . S
C1540 C1539 1.380 . S
C1540 C1541 1.383 . S
C1540 C1543 1.603 . S
C1541 C1536 1.377 1_545 S
C1541 C1540 1.383 . S
C1541 H1604 0.929 . S
C1542 C1538 1.527 . S
C1542 H1605 0.961 . S
C1542 H1606 0.959 . S
C1542 H1607 0.959 . S
C1543 C1540 1.603 . S
C1543 H1608 0.960 . S
C1543 H1609 0.962 . S
C1543 H1610 0.961 . S
C1544 C1511 1.587 1_545 S
C1544 C1545 1.360 . S
C1544 C1557 1.412 . S
C1545 C1544 1.360 . S
C1545 C1546 1.365 . S
C1545 H1611 0.929 . S
C1546 C1521 1.553 . S
C1546 C1545 1.365 . S
C1546 C1547 1.404 . S
C1547 C1546 1.404 . S
C1547 C1548 1.395 . S
C1547 C1558 1.451 . S
C1548 C1547 1.395 . S
C1548 C1549 1.322 . S
C1548 H1612 0.930 . S
C1549 C1548 1.322 . S
C1549 C1550 1.459 . S
C1549 H1613 0.929 . S
C1550 C1549 1.459 . S
C1550 C1551 1.445 . S
C1550 C1559 1.395 . S
C1551 C1529 1.432 . S
C1551 C1550 1.445 . S
C1551 C1552 1.370 . S
C1552 C1551 1.370 . S
C1552 C1553 1.438 . S
C1552 H1614 0.930 . S
C1553 C1539 1.497 . S
C1553 C1552 1.438 . S
C1553 C1554 1.360 . S
C1554 C1553 1.360 . S
C1554 C1555 1.401 . S
C1554 C1559 1.446 . S
C1555 C1554 1.401 . S
C1555 C1556 1.347 . S
C1555 H1615 0.929 . S
C1556 C1555 1.347 . S
C1556 C1557 1.455 . S
C1556 H1616 0.930 . S
C1557 C1544 1.412 . S
C1557 C1556 1.455 . S
C1557 C1558 1.331 . S
C1558 C1547 1.451 . S
C1558 C1557 1.331 . S
C1558 C1559 1.497 . S
C1559 C1550 1.395 . S
C1559 C1554 1.446 . S
C1559 C1558 1.497 . S
C1560 C1561 1.582 . S
C1560 H1617 0.962 . S
C1560 H1618 0.959 . S
C1560 H1619 0.958 . S
C1561 C1560 1.582 . S
C1561 O1564 1.458 . S
C1561 H1590 0.980 . S
O1562 C1507 1.426 . S
O1562 C1508 1.334 . S
O1563 C1535 1.412 1_565 S
O1563 C1536 1.393 . S
O1564 C1526 1.435 . S
O1564 C1561 1.458 . S
O1565 C1517 1.468 . S
O1565 C1518 1.408 . S
H1566 C1507 0.980 . S
H1567 C1506 0.959 . S
H1568 C1506 0.959 . S
H1569 C1506 0.960 . S
H1570 C1509 0.929 . S
H1571 C1513 0.929 . S
H1572 C1514 0.959 . S
H1573 C1514 0.961 . S
H1574 C1514 0.961 . S
H1575 C1515 0.960 . S
H1576 C1515 0.960 . S
H1577 C1515 0.961 . S
H1578 C1517 0.980 1_565 S
H1579 C1516 0.961 1_565 S
H1580 C1516 0.960 . S
H1581 C1516 0.959 . S
H1582 C1519 0.914 1_565 S
H1583 C1523 0.931 . S
H1584 C1524 0.959 . S
H1585 C1524 0.961 . S
H1586 C1524 0.959 . S
H1587 C1525 0.960 . S
H1588 C1525 0.960 . S
H1589 C1525 0.960 . S
H1590 C1561 0.980 . S
H1591 C1527 0.930 1_565 S
H1592 C1531 0.930 . S
H1593 C1532 0.961 . S
H1594 C1532 0.960 . S
H1595 C1532 0.958 . S
H1596 C1533 0.961 . S
H1597 C1533 0.960 . S
H1598 C1533 0.960 . S
H1599 C1535 0.980 . S
H1600 C1534 0.961 . S
H1601 C1534 0.961 . S
H1602 C1534 0.959 . S
H1603 C1537 0.932 . S
H1604 C1541 0.929 . S
H1605 C1542 0.961 . S
H1606 C1542 0.959 . S
H1607 C1542 0.959 . S
H1608 C1543 0.960 . S
H1609 C1543 0.962 . S
H1610 C1543 0.961 . S
H1611 C1545 0.929 . S
H1612 C1548 0.930 . S
H1613 C1549 0.929 . S
H1614 C1552 0.930 . S
H1615 C1555 0.929 . S
H1616 C1556 0.930 . S
H1617 C1560 0.962 . S
H1618 C1560 0.959 . S
H1619 C1560 0.958 . S
C1620 C1621 1.560 . S
C1620 H1681 0.959 . S
C1620 H1682 0.959 . S
C1620 H1683 0.960 . S
C1621 C1620 1.560 . S
C1621 O1676 1.426 . S
C1621 H1680 0.980 1_565 S
C1622 C1623 1.407 1_565 S
C1622 C1627 1.418 . S
C1622 O1676 1.334 . S
C1623 C1622 1.407 1_545 S
C1623 C1624 1.360 . S
C1623 H1684 0.929 . S
C1624 C1623 1.360 . S
C1624 C1625 1.401 . S
C1624 C1628 1.527 . S
C1625 C1624 1.401 . S
C1625 C1626 1.405 1_545 S
C1625 C1658 1.587 . S
C1626 C1625 1.405 1_565 S
C1626 C1627 1.332 . S
C1626 C1629 1.496 . S
C1627 C1622 1.418 . S
C1627 C1626 1.332 . S
C1627 H1685 0.929 . S
C1628 C1624 1.527 . S
C1628 H1686 0.959 . S
C1628 H1687 0.961 . S
C1628 H1688 0.961 . S
C1629 C1626 1.496 . S
C1629 H1689 0.960 . S
C1629 H1690 0.960 . S
C1629 H1691 0.961 . S
C1630 C1631 1.517 . S
C1630 H1693 0.961 . S
C1630 H1694 0.960 . S
C1630 H1695 0.959 . S
C1631 C1630 1.517 . S
C1631 O1679 1.468 . S
C1631 H1692 0.980 . S
C1632 C1633 1.349 . S
C1632 C1637 1.367 . S
C1632 O1679 1.408 . S
C1633 C1632 1.349 . S
C1633 C1634 1.407 . S
C1633 H1696 0.933 . S
C1634 C1633 1.407 . S
C1634 C1635 1.449 . S
C1634 C1638 1.535 1_545 S
C1635 C1634 1.449 . S
C1635 C1636 1.384 . S
C1635 C1660 1.553 . S
C1636 C1635 1.384 . S
C1636 C1637 1.364 . S
C1636 C1639 1.450 . S
C1637 C1632 1.367 . S
C1637 C1636 1.364 . S
C1637 H1697 0.931 . S
C1638 C1634 1.535 1_565 S
C1638 H1698 0.959 . S
C1638 H1699 0.961 . S
C1638 H1700 0.959 . S
C1639 C1636 1.450 . S
C1639 H1701 0.960 . S
C1639 H1702 0.960 . S
C1639 H1703 0.960 . S
C1640 C1641 1.309 1_545 S
C1640 C1645 1.304 . S
C1640 O1678 1.435 . S
C1641 C1640 1.309 1_565 S
C1641 C1642 1.476 . S
C1641 H1705 0.930 . S
C1642 C1641 1.476 . S
C1642 C1643 1.400 1_565 S
C1642 C1646 1.567 . S
C1643 C1642 1.400 1_545 S
C1643 C1644 1.373 . S
C1643 C1665 1.432 . S
C1644 C1643 1.373 . S
C1644 C1645 1.339 . S
C1644 C1647 1.530 . S
C1645 C1640 1.304 . S
C1645 C1644 1.339 . S
C1645 H1706 0.930 . S
C1646 C1642 1.567 . S
C1646 H1707 0.961 . S
C1646 H1708 0.960 . S
C1646 H1709 0.958 . S
C1647 C1644 1.530 . S
C1647 H1710 0.961 . S
C1647 H1711 0.960 . S
C1647 H1712 0.960 . S
C1648 C1649 1.530 . S
C1648 H1714 0.961 . S
C1648 H1715 0.961 . S
C1648 H1716 0.959 . S
C1649 C1648 1.530 . S
C1649 O1677 1.412 . S
C1649 H1713 1.014 . S
C1650 C1651 1.288 . S
C1650 C1655 1.377 1_565 S
C1650 O1677 1.393 . S
C1651 C1650 1.288 . S
C1651 C1652 1.369 . S
C1651 H1717 0.932 . S
C1652 C1651 1.369 . S
C1652 C1653 1.398 . S
C1652 C1656 1.527 . S
C1653 C1652 1.398 . S
C1653 C1654 1.380 1_565 S
C1653 C1667 1.497 1_565 S
C1654 C1653 1.380 1_545 S
C1654 C1655 1.383 . S
C1654 C1657 1.603 . S
C1655 C1650 1.377 1_545 S
C1655 C1654 1.383 . S
C1655 H1718 0.929 . S
C1656 C1652 1.527 . S
C1656 H1719 0.961 . S
C1656 H1720 0.959 . S
C1656 H1721 0.959 . S
C1657 C1654 1.603 . S
C1657 H1722 0.960 . S
C1657 H1723 0.962 . S
C1657 H1724 0.961 . S
C1658 C1625 1.587 . S
C1658 C1659 1.360 . S
C1658 C1671 1.412 . S
C1659 C1658 1.360 . S
C1659 C1660 1.365 . S
C1659 H1725 0.929 . S
C1660 C1635 1.553 . S
C1660 C1659 1.365 . S
C1660 C1661 1.404 . S
C1661 C1660 1.404 . S
C1661 C1662 1.395 . S
C1661 C1672 1.451 . S
C1662 C1661 1.395 . S
C1662 C1663 1.322 . S
C1662 H1726 0.930 . S
C1663 C1662 1.322 . S
C1663 C1664 1.459 . S
C1663 H1727 0.929 . S
C1664 C1663 1.459 . S
C1664 C1665 1.445 . S
C1664 C1673 1.395 . S
C1665 C1643 1.432 . S
C1665 C1664 1.445 . S
C1665 C1666 1.370 . S
C1666 C1665 1.370 . S
C1666 C1667 1.438 . S
C1666 H1728 0.930 . S
C1667 C1653 1.497 1_545 S
C1667 C1666 1.438 . S
C1667 C1668 1.360 . S
C1668 C1667 1.360 . S
C1668 C1669 1.401 . S
C1668 C1673 1.446 . S
C1669 C1668 1.401 . S
C1669 C1670 1.347 . S
C1669 H1729 0.952 . S
C1670 C1669 1.347 . S
C1670 C1671 1.455 . S
C1670 H1730 0.930 . S
C1671 C1658 1.412 . S
C1671 C1670 1.455 . S
C1671 C1672 1.331 . S
C1672 C1661 1.451 . S
C1672 C1671 1.331 . S
C1672 C1673 1.497 . S
C1673 C1664 1.395 . S
C1673 C1668 1.446 . S
C1673 C1672 1.497 . S
C1674 C1675 1.582 . S
C1674 H1731 0.962 . S
C1674 H1732 0.959 . S
C1674 H1733 0.958 . S
C1675 C1674 1.582 . S
C1675 O1678 1.458 . S
C1675 H1704 0.980 1_545 S
O1676 C1621 1.426 . S
O1676 C1622 1.334 . S
O1677 C1649 1.412 . S
O1677 C1650 1.393 . S
O1678 C1640 1.435 . S
O1678 C1675 1.458 . S
O1679 C1631 1.468 . S
O1679 C1632 1.408 . S
H1680 C1621 0.980 1_545 S
H1681 C1620 0.959 . S
H1682 C1620 0.959 . S
H1683 C1620 0.960 . S
H1684 C1623 0.929 . S
H1685 C1627 0.929 . S
H1686 C1628 0.959 . S
H1687 C1628 0.961 . S
H1688 C1628 0.961 . S
H1689 C1629 0.960 . S
H1690 C1629 0.960 . S
H1691 C1629 0.961 . S
H1692 C1631 0.980 . S
H1693 C1630 0.961 . S
H1694 C1630 0.960 . S
H1695 C1630 0.959 . S
H1696 C1633 0.933 . S
H1697 C1637 0.931 . S
H1698 C1638 0.959 . S
H1699 C1638 0.961 . S
H1700 C1638 0.959 . S
H1701 C1639 0.960 . S
H1702 C1639 0.960 . S
H1703 C1639 0.960 . S
H1704 C1675 0.980 1_565 S
H1705 C1641 0.930 . S
H1706 C1645 0.930 . S
H1707 C1646 0.961 . S
H1708 C1646 0.960 . S
H1709 C1646 0.958 . S
H1710 C1647 0.961 . S
H1711 C1647 0.960 . S
H1712 C1647 0.960 . S
H1713 C1649 1.014 . S
H1714 C1648 0.961 . S
H1715 C1648 0.961 . S
H1716 C1648 0.959 . S
H1717 C1651 0.932 . S
H1718 C1655 0.929 . S
H1719 C1656 0.961 . S
H1720 C1656 0.959 . S
H1721 C1656 0.959 . S
H1722 C1657 0.960 . S
H1723 C1657 0.962 . S
H1724 C1657 0.961 . S
H1725 C1659 0.929 . S
H1726 C1662 0.930 . S
H1727 C1663 0.929 . S
H1728 C1666 0.930 . S
H1729 C1669 0.952 . S
H1730 C1670 0.930 . S
H1731 C1674 0.962 . S
H1732 C1674 0.959 . S
H1733 C1674 0.958 . S
C1734 C1735 1.595 . S
C1734 H1795 0.959 . S
C1734 H1796 0.959 . S
C1734 H1797 0.960 . S
C1735 C1734 1.595 . S
C1735 O1790 1.497 . S
C1735 H1794 0.965 1_455 S
C1736 C1737 1.407 1_455 S
C1736 C1741 1.418 . S
C1736 O1790 1.334 . S
C1737 C1736 1.407 1_655 S
C1737 C1738 1.360 . S
C1737 H1798 0.929 . S
C1738 C1737 1.360 . S
C1738 C1739 1.401 . S
C1738 C1742 1.527 . S
C1739 C1738 1.401 . S
C1739 C1740 1.405 1_655 S
C1739 C1772 1.587 . S
C1740 C1739 1.405 1_455 S
C1740 C1741 1.332 . S
C1740 C1743 1.496 . S
C1741 C1736 1.418 . S
C1741 C1740 1.332 . S
C1741 H1799 0.929 . S
C1742 C1738 1.527 . S
C1742 H1800 0.959 . S
C1742 H1801 0.961 . S
C1742 H1802 0.961 . S
C1743 C1740 1.496 . S
C1743 H1803 0.960 . S
C1743 H1804 0.960 . S
C1743 H1805 0.961 . S
C1744 C1745 1.517 . S
C1744 H1807 0.961 . S
C1744 H1808 0.960 . S
C1744 H1809 0.959 . S
C1745 C1744 1.517 . S
C1745 O1793 1.468 . S
C1745 H1806 0.980 . S
C1746 C1747 1.349 . S
C1746 C1751 1.367 . S
C1746 O1793 1.408 . S
C1747 C1746 1.349 . S
C1747 C1748 1.407 . S
C1747 H1810 0.893 1_655 S
C1748 C1747 1.407 . S
C1748 C1749 1.449 . S
C1748 C1752 1.535 1_655 S
C1749 C1748 1.449 . S
C1749 C1750 1.384 . S
C1749 C1774 1.553 . S
C1750 C1749 1.384 . S
C1750 C1751 1.364 . S
C1750 C1753 1.450 . S
C1751 C1746 1.367 . S
C1751 C1750 1.364 . S
C1751 H1811 0.931 . S
C1752 C1748 1.535 1_455 S
C1752 H1812 0.959 . S
C1752 H1813 0.961 . S
C1752 H1814 0.959 . S
C1753 C1750 1.450 . S
C1753 H1815 0.960 . S
C1753 H1816 0.960 . S
C1753 H1817 0.960 . S
C1754 C1755 1.309 1_655 S
C1754 C1759 1.304 . S
C1754 O1792 1.435 . S
C1755 C1754 1.309 1_455 S
C1755 C1756 1.476 . S
C1755 H1819 0.930 . S
C1756 C1755 1.476 . S
C1756 C1757 1.400 1_455 S
C1756 C1760 1.567 . S
C1757 C1756 1.400 1_655 S
C1757 C1758 1.373 . S
C1757 C1779 1.432 . S
C1758 C1757 1.373 . S
C1758 C1759 1.339 . S
C1758 C1761 1.530 . S
C1759 C1754 1.304 . S
C1759 C1758 1.339 . S
C1759 H1820 0.930 . S
C1760 C1756 1.567 . S
C1760 H1821 0.961 . S
C1760 H1822 0.960 . S
C1760 H1823 0.958 . S
C1761 C1758 1.530 . S
C1761 H1824 0.961 . S
C1761 H1825 0.960 . S
C1761 H1826 0.960 . S
C1762 C1763 1.530 . S
C1762 H1828 0.961 . S
C1762 H1829 0.961 . S
C1762 H1830 0.959 . S
C1763 C1762 1.530 . S
C1763 O1791 1.412 . S
C1763 H1827 0.961 1_455 S
C1764 C1765 1.288 . S
C1764 C1769 1.377 1_455 S
C1764 O1791 1.393 . S
C1765 C1764 1.288 . S
C1765 C1766 1.369 . S
C1765 H1831 0.932 . S
C1766 C1765 1.369 . S
C1766 C1767 1.398 . S
C1766 C1770 1.527 . S
C1767 C1766 1.398 . S
C1767 C1768 1.380 1_455 S
C1767 C1781 1.497 1_455 S
C1768 C1767 1.380 1_655 S
C1768 C1769 1.383 . S
C1768 C1771 1.603 . S
C1769 C1764 1.377 1_655 S
C1769 C1768 1.383 . S
C1769 H1832 0.929 . S
C1770 C1766 1.527 . S
C1770 H1833 0.961 . S
C1770 H1834 0.959 . S
C1770 H1835 0.959 . S
C1771 C1768 1.603 . S
C1771 H1836 0.960 . S
C1771 H1837 0.962 . S
C1771 H1838 0.961 . S
C1772 C1739 1.587 . S
C1772 C1773 1.360 . S
C1772 C1785 1.412 . S
C1773 C1772 1.360 . S
C1773 C1774 1.365 . S
C1773 H1839 0.929 . S
C1774 C1749 1.553 . S
C1774 C1773 1.365 . S
C1774 C1775 1.404 . S
C1775 C1774 1.404 . S
C1775 C1776 1.395 . S
C1775 C1786 1.451 . S
C1776 C1775 1.395 . S
C1776 C1777 1.322 . S
C1776 H1840 0.930 . S
C1777 C1776 1.322 . S
C1777 C1778 1.459 . S
C1777 H1841 0.929 . S
C1778 C1777 1.459 . S
C1778 C1779 1.445 . S
C1778 C1787 1.395 . S
C1779 C1757 1.432 . S
C1779 C1778 1.445 . S
C1779 C1780 1.370 . S
C1780 C1779 1.370 . S
C1780 C1781 1.438 . S
C1780 H1842 0.930 . S
C1781 C1767 1.497 1_655 S
C1781 C1780 1.438 . S
C1781 C1782 1.360 . S
C1782 C1781 1.360 . S
C1782 C1783 1.401 . S
C1782 C1787 1.446 . S
C1783 C1782 1.401 . S
C1783 C1784 1.347 . S
C1783 H1843 0.929 . S
C1784 C1783 1.347 . S
C1784 C1785 1.455 . S
C1784 H1844 0.930 . S
C1785 C1772 1.412 . S
C1785 C1784 1.455 . S
C1785 C1786 1.331 . S
C1786 C1775 1.451 . S
C1786 C1785 1.331 . S
C1786 C1787 1.497 . S
C1787 C1778 1.395 . S
C1787 C1782 1.446 . S
C1787 C1786 1.497 . S
C1788 C1789 1.582 1_655 S
C1788 H1845 0.919 1_655 S
C1788 H1846 0.959 . S
C1788 H1847 0.958 . S
C1789 C1788 1.582 1_455 S
C1789 O1792 1.458 1_455 S
C1789 H1818 0.980 . S
O1790 C1735 1.497 . S
O1790 C1736 1.334 . S
O1791 C1763 1.412 . S
O1791 C1764 1.393 . S
O1792 C1754 1.435 . S
O1792 C1789 1.458 1_655 S
O1793 C1745 1.468 . S
O1793 C1746 1.408 . S
H1794 C1735 0.965 1_655 S
H1795 C1734 0.959 . S
H1796 C1734 0.959 . S
H1797 C1734 0.960 . S
H1798 C1737 0.929 . S
H1799 C1741 0.929 . S
H1800 C1742 0.959 . S
H1801 C1742 0.961 . S
H1802 C1742 0.961 . S
H1803 C1743 0.960 . S
H1804 C1743 0.960 . S
H1805 C1743 0.961 . S
H1806 C1745 0.980 . S
H1807 C1744 0.961 . S
H1808 C1744 0.960 . S
H1809 C1744 0.959 . S
H1810 C1747 0.893 1_455 S
H1811 C1751 0.931 . S
H1812 C1752 0.959 . S
H1813 C1752 0.961 . S
H1814 C1752 0.959 . S
H1815 C1753 0.960 . S
H1816 C1753 0.960 . S
H1817 C1753 0.960 . S
H1818 C1789 0.980 . S
H1819 C1755 0.930 . S
H1820 C1759 0.930 . S
H1821 C1760 0.961 . S
H1822 C1760 0.960 . S
H1823 C1760 0.958 . S
H1824 C1761 0.961 . S
H1825 C1761 0.960 . S
H1826 C1761 0.960 . S
H1827 C1763 0.961 1_655 S
H1828 C1762 0.961 . S
H1829 C1762 0.961 . S
H1830 C1762 0.959 . S
H1831 C1765 0.932 . S
H1832 C1769 0.929 . S
H1833 C1770 0.961 . S
H1834 C1770 0.959 . S
H1835 C1770 0.959 . S
H1836 C1771 0.960 . S
H1837 C1771 0.962 . S
H1838 C1771 0.961 . S
H1839 C1773 0.929 . S
H1840 C1776 0.930 . S
H1841 C1777 0.929 . S
H1842 C1780 0.930 . S
H1843 C1783 0.929 . S
H1844 C1784 0.930 . S
H1845 C1788 0.919 1_455 S
H1846 C1788 0.959 . S
H1847 C1788 0.958 . S
C1848 C1849 1.560 . S
C1848 H1909 0.959 . S
C1848 H1910 0.959 . S
C1848 H1911 0.960 . S
C1849 C1848 1.560 . S
C1849 O1904 1.426 . S
C1849 H1908 0.980 . S
C1850 C1851 1.407 . S
C1850 C1855 1.418 . S
C1850 O1904 1.334 . S
C1851 C1850 1.407 . S
C1851 C1852 1.360 . S
C1851 H1912 0.929 . S
C1852 C1851 1.360 . S
C1852 C1853 1.401 . S
C1852 C1856 1.527 . S
C1853 C1852 1.401 . S
C1853 C1854 1.405 . S
C1853 C1886 1.587 . S
C1854 C1853 1.405 . S
C1854 C1855 1.332 . S
C1854 C1857 1.496 . S
C1855 C1850 1.418 . S
C1855 C1854 1.332 . S
C1855 H1913 0.929 . S
C1856 C1852 1.527 . S
C1856 H1914 0.959 . S
C1856 H1915 0.961 . S
C1856 H1916 0.961 . S
C1857 C1854 1.496 . S
C1857 H1917 0.960 . S
C1857 H1918 0.960 . S
C1857 H1919 0.961 . S
C1858 C1859 1.517 . S
C1858 H1921 0.961 . S
C1858 H1922 0.960 . S
C1858 H1923 0.959 . S
C1859 C1858 1.517 . S
C1859 O1907 1.468 . S
C1859 H1920 0.980 . S
C1860 C1861 1.349 . S
C1860 C1865 1.367 . S
C1860 O1907 1.408 . S
C1861 C1860 1.349 . S
C1861 C1862 1.407 . S
C1861 H1924 0.930 . S
C1862 C1861 1.407 . S
C1862 C1863 1.449 . S
C1862 C1866 1.535 . S
C1863 C1862 1.449 . S
C1863 C1864 1.384 . S
C1863 C1888 1.553 . S
C1864 C1863 1.384 . S
C1864 C1865 1.364 . S
C1864 C1867 1.450 . S
C1865 C1860 1.367 . S
C1865 C1864 1.364 . S
C1865 H1925 0.931 . S
C1866 C1862 1.535 . S
C1866 H1926 0.959 . S
C1866 H1927 0.961 . S
C1866 H1928 0.959 . S
C1867 C1864 1.450 . S
C1867 H1929 0.960 . S
C1867 H1930 0.960 . S
C1867 H1931 0.960 . S
C1868 C1869 1.309 . S
C1868 C1873 1.304 . S
C1868 O1906 1.435 . S
C1869 C1868 1.309 . S
C1869 C1870 1.476 . S
C1869 H1933 0.930 . S
C1870 C1869 1.476 . S
C1870 C1871 1.400 . S
C1870 C1874 1.567 . S
C1871 C1870 1.400 . S
C1871 C1872 1.373 . S
C1871 C1893 1.432 . S
C1872 C1871 1.373 . S
C1872 C1873 1.339 . S
C1872 C1875 1.530 . S
C1873 C1868 1.304 . S
C1873 C1872 1.339 . S
C1873 H1934 0.930 . S
C1874 C1870 1.567 . S
C1874 H1935 0.961 . S
C1874 H1936 0.960 . S
C1874 H1937 0.958 . S
C1875 C1872 1.530 . S
C1875 H1938 0.961 . S
C1875 H1939 0.960 . S
C1875 H1940 0.960 . S
C1876 C1877 1.530 . S
C1876 H1942 0.961 . S
C1876 H1943 0.961 . S
C1876 H1944 0.959 . S
C1877 C1876 1.530 . S
C1877 O1905 1.412 . S
C1877 H1941 0.980 . S
C1878 C1879 1.288 . S
C1878 C1883 1.377 . S
C1878 O1905 1.393 . S
C1879 C1878 1.288 . S
C1879 C1880 1.369 . S
C1879 H1945 0.932 . S
C1880 C1879 1.369 . S
C1880 C1881 1.398 . S
C1880 C1884 1.527 . S
C1881 C1880 1.398 . S
C1881 C1882 1.380 . S
C1881 C1895 1.497 . S
C1882 C1881 1.380 . S
C1882 C1883 1.383 . S
C1882 C1885 1.603 . S
C1883 C1878 1.377 . S
C1883 C1882 1.383 . S
C1883 H1946 0.929 . S
C1884 C1880 1.527 . S
C1884 H1947 0.961 . S
C1884 H1948 0.959 . S
C1884 H1949 0.959 . S
C1885 C1882 1.603 . S
C1885 H1950 0.960 . S
C1885 H1951 0.962 . S
C1885 H1952 0.961 . S
C1886 C1853 1.587 . S
C1886 C1887 1.360 . S
C1886 C1899 1.412 . S
C1887 C1886 1.360 . S
C1887 C1888 1.365 . S
C1887 H1953 0.929 . S
C1888 C1863 1.553 . S
C1888 C1887 1.365 . S
C1888 C1889 1.404 . S
C1889 C1888 1.404 . S
C1889 C1890 1.395 . S
C1889 C1900 1.451 . S
C1890 C1889 1.395 . S
C1890 C1891 1.322 . S
C1890 H1954 0.930 . S
C1891 C1890 1.322 . S
C1891 C1892 1.459 . S
C1891 H1955 0.929 . S
C1892 C1891 1.459 . S
C1892 C1893 1.445 . S
C1892 C1901 1.395 . S
C1893 C1871 1.432 . S
C1893 C1892 1.445 . S
C1893 C1894 1.370 . S
C1894 C1893 1.370 . S
C1894 C1895 1.438 . S
C1894 H1956 0.930 . S
C1895 C1881 1.497 . S
C1895 C1894 1.438 . S
C1895 C1896 1.360 . S
C1896 C1895 1.360 . S
C1896 C1897 1.401 . S
C1896 C1901 1.446 . S
C1897 C1896 1.401 . S
C1897 C1898 1.347 . S
C1897 H1957 0.929 . S
C1898 C1897 1.347 . S
C1898 C1899 1.455 . S
C1898 H1958 0.930 . S
C1899 C1886 1.412 . S
C1899 C1898 1.455 . S
C1899 C1900 1.331 . S
C1900 C1889 1.451 . S
C1900 C1899 1.331 . S
C1900 C1901 1.497 . S
C1901 C1892 1.395 . S
C1901 C1896 1.446 . S
C1901 C1900 1.497 . S
C1902 C1903 1.582 . S
C1902 H1959 0.962 . S
C1902 H1960 0.959 . S
C1902 H1961 0.958 . S
C1903 C1902 1.582 . S
C1903 O1906 1.458 . S
C1903 H1932 0.980 . S
O1904 C1849 1.426 . S
O1904 C1850 1.334 . S
O1905 C1877 1.412 . S
O1905 C1878 1.393 . S
O1906 C1868 1.435 . S
O1906 C1903 1.458 . S
O1907 C1859 1.468 . S
O1907 C1860 1.408 . S
H1908 C1849 0.980 . S
H1909 C1848 0.959 . S
H1910 C1848 0.959 . S
H1911 C1848 0.960 . S
H1912 C1851 0.929 . S
H1913 C1855 0.929 . S
H1914 C1856 0.959 . S
H1915 C1856 0.961 . S
H1916 C1856 0.961 . S
H1917 C1857 0.960 . S
H1918 C1857 0.960 . S
H1919 C1857 0.961 . S
H1920 C1859 0.980 . S
H1921 C1858 0.961 . S
H1922 C1858 0.960 . S
H1923 C1858 0.959 . S
H1924 C1861 0.930 . S
H1925 C1865 0.931 . S
H1926 C1866 0.959 . S
H1927 C1866 0.961 . S
H1928 C1866 0.959 . S
H1929 C1867 0.960 . S
H1930 C1867 0.960 . S
H1931 C1867 0.960 . S
H1932 C1903 0.980 . S
H1933 C1869 0.930 . S
H1934 C1873 0.930 . S
H1935 C1874 0.961 . S
H1936 C1874 0.960 . S
H1937 C1874 0.958 . S
H1938 C1875 0.961 . S
H1939 C1875 0.960 . S
H1940 C1875 0.960 . S
H1941 C1877 0.980 . S
H1942 C1876 0.961 . S
H1943 C1876 0.961 . S
H1944 C1876 0.959 . S
H1945 C1879 0.932 . S
H1946 C1883 0.929 . S
H1947 C1884 0.961 . S
H1948 C1884 0.959 . S
H1949 C1884 0.959 . S
H1950 C1885 0.960 . S
H1951 C1885 0.962 . S
H1952 C1885 0.961 . S
H1953 C1887 0.929 . S
H1954 C1890 0.930 . S
H1955 C1891 0.929 . S
H1956 C1894 0.930 . S
H1957 C1897 0.929 . S
H1958 C1898 0.930 . S
H1959 C1902 0.962 . S
H1960 C1902 0.959 . S
H1961 C1902 0.958 . S
C1962 C1963 1.560 . S
C1962 H2023 0.959 . S
C1962 H2024 0.959 . S
C1962 H2025 0.960 . S
C1963 C1962 1.560 . S
C1963 O2018 1.426 . S
C1963 H2022 0.980 . S
C1964 C1965 1.407 . S
C1964 C1969 1.418 . S
C1964 O2018 1.334 . S
C1965 C1964 1.407 . S
C1965 C1966 1.360 . S
C1965 H2026 0.929 . S
C1966 C1965 1.360 . S
C1966 C1967 1.401 . S
C1966 C1970 1.527 . S
C1967 C1966 1.401 . S
C1967 C1968 1.405 . S
C1967 C2000 1.587 . S
C1968 C1967 1.405 . S
C1968 C1969 1.332 . S
C1968 C1971 1.496 . S
C1969 C1964 1.418 . S
C1969 C1968 1.332 . S
C1969 H2027 0.929 . S
C1970 C1966 1.527 . S
C1970 H2028 0.959 . S
C1970 H2029 0.961 . S
C1970 H2030 0.961 . S
C1971 C1968 1.496 . S
C1971 H2031 0.960 . S
C1971 H2032 0.960 . S
C1971 H2033 0.961 . S
C1972 C1973 1.517 . S
C1972 H2035 0.961 . S
C1972 H2036 0.960 . S
C1972 H2037 0.959 . S
C1973 C1972 1.517 . S
C1973 O2021 1.468 . S
C1973 H2034 0.980 . S
C1974 C1975 1.349 . S
C1974 C1979 1.367 . S
C1974 O2021 1.408 . S
C1975 C1974 1.349 . S
C1975 C1976 1.407 . S
C1975 H2038 0.930 . S
C1976 C1975 1.407 . S
C1976 C1977 1.449 . S
C1976 C1980 1.535 . S
C1977 C1976 1.449 . S
C1977 C1978 1.384 . S
C1977 C2002 1.553 . S
C1978 C1977 1.384 . S
C1978 C1979 1.364 . S
C1978 C1981 1.450 . S
C1979 C1974 1.367 . S
C1979 C1978 1.364 . S
C1979 H2039 0.931 . S
C1980 C1976 1.535 . S
C1980 H2040 0.959 . S
C1980 H2041 0.961 . S
C1980 H2042 0.959 . S
C1981 C1978 1.450 . S
C1981 H2043 0.960 . S
C1981 H2044 0.960 . S
C1981 H2045 0.960 . S
C1982 C1983 1.309 . S
C1982 C1987 1.304 . S
C1982 O2020 1.435 . S
C1983 C1982 1.309 . S
C1983 C1984 1.476 . S
C1983 H2047 0.930 . S
C1984 C1983 1.476 . S
C1984 C1985 1.400 . S
C1984 C1988 1.567 . S
C1985 C1984 1.400 . S
C1985 C1986 1.373 . S
C1985 C2007 1.432 . S
C1986 C1985 1.373 . S
C1986 C1987 1.339 . S
C1986 C1989 1.530 . S
C1987 C1982 1.304 . S
C1987 C1986 1.339 . S
C1987 H2048 0.930 . S
C1988 C1984 1.567 . S
C1988 H2049 0.961 . S
C1988 H2050 0.960 . S
C1988 H2051 0.958 . S
C1989 C1986 1.530 . S
C1989 H2052 0.961 . S
C1989 H2053 0.960 . S
C1989 H2054 0.960 . S
C1990 C1991 1.530 . S
C1990 H2056 0.961 . S
C1990 H2057 0.961 . S
C1990 H2058 0.959 . S
C1991 C1990 1.530 . S
C1991 O2019 1.412 . S
C1991 H2055 0.980 . S
C1992 C1993 1.288 . S
C1992 C1997 1.377 . S
C1992 O2019 1.393 . S
C1993 C1992 1.288 . S
C1993 C1994 1.369 . S
C1993 H2059 0.932 . S
C1994 C1993 1.369 . S
C1994 C1995 1.398 . S
C1994 C1998 1.527 . S
C1995 C1994 1.398 . S
C1995 C1996 1.380 . S
C1995 C2009 1.497 . S
C1996 C1995 1.380 . S
C1996 C1997 1.383 . S
C1996 C1999 1.603 . S
C1997 C1992 1.377 . S
C1997 C1996 1.383 . S
C1997 H2060 0.929 . S
C1998 C1994 1.527 . S
C1998 H2061 0.961 . S
C1998 H2062 0.959 . S
C1998 H2063 0.959 . S
C1999 C1996 1.603 . S
C1999 H2064 0.960 . S
C1999 H2065 0.962 . S
C1999 H2066 0.961 . S
C2000 C1967 1.587 . S
C2000 C2001 1.360 . S
C2000 C2013 1.412 . S
C2001 C2000 1.360 . S
C2001 C2002 1.365 . S
C2001 H2067 0.929 . S
C2002 C1977 1.553 . S
C2002 C2001 1.365 . S
C2002 C2003 1.404 . S
C2003 C2002 1.404 . S
C2003 C2004 1.395 . S
C2003 C2014 1.451 . S
C2004 C2003 1.395 . S
C2004 C2005 1.322 . S
C2004 H2068 0.930 . S
C2005 C2004 1.322 . S
C2005 C2006 1.459 . S
C2005 H2069 0.929 . S
C2006 C2005 1.459 . S
C2006 C2007 1.445 . S
C2006 C2015 1.395 . S
C2007 C1985 1.432 . S
C2007 C2006 1.445 . S
C2007 C2008 1.370 . S
C2008 C2007 1.370 . S
C2008 C2009 1.438 . S
C2008 H2070 0.930 . S
C2009 C1995 1.497 . S
C2009 C2008 1.438 . S
C2009 C2010 1.360 . S
C2010 C2009 1.360 . S
C2010 C2011 1.401 . S
C2010 C2015 1.446 . S
C2011 C2010 1.401 . S
C2011 C2012 1.347 . S
C2011 H2071 0.929 . S
C2012 C2011 1.347 . S
C2012 C2013 1.455 . S
C2012 H2072 0.930 . S
C2013 C2000 1.412 . S
C2013 C2012 1.455 . S
C2013 C2014 1.331 . S
C2014 C2003 1.451 . S
C2014 C2013 1.331 . S
C2014 C2015 1.497 . S
C2015 C2006 1.395 . S
C2015 C2010 1.446 . S
C2015 C2014 1.497 . S
C2016 C2017 1.582 . S
C2016 H2073 0.962 . S
C2016 H2074 0.959 . S
C2016 H2075 0.958 . S
C2017 C2016 1.582 . S
C2017 O2020 1.458 . S
C2017 H2046 0.980 . S
O2018 C1963 1.426 . S
O2018 C1964 1.334 . S
O2019 C1991 1.412 . S
O2019 C1992 1.393 . S
O2020 C1982 1.435 . S
O2020 C2017 1.458 . S
O2021 C1973 1.468 . S
O2021 C1974 1.408 . S
H2022 C1963 0.980 . S
H2023 C1962 0.959 . S
H2024 C1962 0.959 . S
H2025 C1962 0.960 . S
H2026 C1965 0.929 . S
H2027 C1969 0.929 . S
H2028 C1970 0.959 . S
H2029 C1970 0.961 . S
H2030 C1970 0.961 . S
H2031 C1971 0.960 . S
H2032 C1971 0.960 . S
H2033 C1971 0.961 . S
H2034 C1973 0.980 . S
H2035 C1972 0.961 . S
H2036 C1972 0.960 . S
H2037 C1972 0.959 . S
H2038 C1975 0.930 . S
H2039 C1979 0.931 . S
H2040 C1980 0.959 . S
H2041 C1980 0.961 . S
H2042 C1980 0.959 . S
H2043 C1981 0.960 . S
H2044 C1981 0.960 . S
H2045 C1981 0.960 . S
H2046 C2017 0.980 . S
H2047 C1983 0.930 . S
H2048 C1987 0.930 . S
H2049 C1988 0.961 . S
H2050 C1988 0.960 . S
H2051 C1988 0.958 . S
H2052 C1989 0.961 . S
H2053 C1989 0.960 . S
H2054 C1989 0.960 . S
H2055 C1991 0.980 . S
H2056 C1990 0.961 . S
H2057 C1990 0.961 . S
H2058 C1990 0.959 . S
H2059 C1993 0.932 . S
H2060 C1997 0.929 . S
H2061 C1998 0.961 . S
H2062 C1998 0.959 . S
H2063 C1998 0.959 . S
H2064 C1999 0.960 . S
H2065 C1999 0.962 . S
H2066 C1999 0.961 . S
H2067 C2001 0.929 . S
H2068 C2004 0.930 . S
H2069 C2005 0.929 . S
H2070 C2008 0.930 . S
H2071 C2011 0.929 . S
H2072 C2012 0.930 . S
H2073 C2016 0.962 . S
H2074 C2016 0.959 . S
H2075 C2016 0.958 . S
C2076 C2077 1.560 . S
C2076 H2137 0.959 . S
C2076 H2138 0.959 . S
C2076 H2139 0.960 . S
C2077 C2076 1.560 . S
C2077 O2132 1.426 . S
C2077 H2136 0.980 . S
C2078 C2079 1.407 . S
C2078 C2083 1.418 . S
C2078 O2132 1.334 . S
C2079 C2078 1.407 . S
C2079 C2080 1.360 . S
C2079 H2140 0.929 . S
C2080 C2079 1.360 . S
C2080 C2081 1.401 . S
C2080 C2084 1.527 . S
C2081 C2080 1.401 . S
C2081 C2082 1.405 . S
C2081 C2114 1.587 . S
C2082 C2081 1.405 . S
C2082 C2083 1.332 . S
C2082 C2085 1.496 . S
C2083 C2078 1.418 . S
C2083 C2082 1.332 . S
C2083 H2141 0.929 . S
C2084 C2080 1.527 . S
C2084 H2142 0.959 . S
C2084 H2143 0.961 . S
C2084 H2144 0.961 . S
C2085 C2082 1.496 . S
C2085 H2145 0.960 . S
C2085 H2146 0.960 . S
C2085 H2147 0.961 . S
C2086 C2087 1.517 . S
C2086 H2149 0.961 . S
C2086 H2150 0.960 . S
C2086 H2151 0.959 . S
C2087 C2086 1.517 . S
C2087 O2135 1.468 . S
C2087 H2148 0.980 . S
C2088 C2089 1.349 . S
C2088 C2093 1.367 . S
C2088 O2135 1.408 . S
C2089 C2088 1.349 . S
C2089 C2090 1.407 . S
C2089 H2152 0.930 . S
C2090 C2089 1.407 . S
C2090 C2091 1.449 . S
C2090 C2094 1.535 . S
C2091 C2090 1.449 . S
C2091 C2092 1.384 . S
C2091 C2116 1.553 . S
C2092 C2091 1.384 . S
C2092 C2093 1.364 . S
C2092 C2095 1.450 . S
C2093 C2088 1.367 . S
C2093 C2092 1.364 . S
C2093 H2153 0.931 . S
C2094 C2090 1.535 . S
C2094 H2154 0.959 . S
C2094 H2155 0.961 . S
C2094 H2156 0.959 . S
C2095 C2092 1.450 . S
C2095 H2157 0.960 . S
C2095 H2158 0.960 . S
C2095 H2159 0.960 . S
C2096 C2097 1.309 . S
C2096 C2101 1.304 . S
C2096 O2134 1.435 . S
C2097 C2096 1.309 . S
C2097 C2098 1.476 . S
C2097 H2161 0.930 . S
C2098 C2097 1.476 . S
C2098 C2099 1.400 . S
C2098 C2102 1.567 . S
C2099 C2098 1.400 . S
C2099 C2100 1.373 . S
C2099 C2121 1.432 . S
C2100 C2099 1.373 . S
C2100 C2101 1.339 . S
C2100 C2103 1.530 . S
C2101 C2096 1.304 . S
C2101 C2100 1.339 . S
C2101 H2162 0.930 . S
C2102 C2098 1.567 . S
C2102 H2163 0.961 . S
C2102 H2164 0.960 . S
C2102 H2165 0.958 . S
C2103 C2100 1.530 . S
C2103 H2166 0.961 . S
C2103 H2167 0.960 . S
C2103 H2168 0.960 . S
C2104 C2105 1.530 . S
C2104 H2170 0.961 . S
C2104 H2171 0.961 . S
C2104 H2172 0.959 . S
C2105 C2104 1.530 . S
C2105 O2133 1.412 . S
C2105 H2169 0.980 . S
C2106 C2107 1.288 . S
C2106 C2111 1.377 . S
C2106 O2133 1.393 . S
C2107 C2106 1.288 . S
C2107 C2108 1.369 . S
C2107 H2173 0.932 . S
C2108 C2107 1.369 . S
C2108 C2109 1.398 . S
C2108 C2112 1.527 . S
C2109 C2108 1.398 . S
C2109 C2110 1.380 . S
C2109 C2123 1.497 . S
C2110 C2109 1.380 . S
C2110 C2111 1.383 . S
C2110 C2113 1.603 . S
C2111 C2106 1.377 . S
C2111 C2110 1.383 . S
C2111 H2174 0.929 . S
C2112 C2108 1.527 . S
C2112 H2175 0.961 . S
C2112 H2176 0.959 . S
C2112 H2177 0.959 . S
C2113 C2110 1.603 . S
C2113 H2178 0.960 . S
C2113 H2179 0.962 . S
C2113 H2180 0.961 . S
C2114 C2081 1.587 . S
C2114 C2115 1.360 . S
C2114 C2127 1.412 . S
C2115 C2114 1.360 . S
C2115 C2116 1.365 . S
C2115 H2181 0.929 . S
C2116 C2091 1.553 . S
C2116 C2115 1.365 . S
C2116 C2117 1.404 . S
C2117 C2116 1.404 . S
C2117 C2118 1.395 . S
C2117 C2128 1.451 . S
C2118 C2117 1.395 . S
C2118 C2119 1.322 . S
C2118 H2182 0.930 . S
C2119 C2118 1.322 . S
C2119 C2120 1.459 . S
C2119 H2183 0.929 . S
C2120 C2119 1.459 . S
C2120 C2121 1.445 . S
C2120 C2129 1.395 . S
C2121 C2099 1.432 . S
C2121 C2120 1.445 . S
C2121 C2122 1.370 . S
C2122 C2121 1.370 . S
C2122 C2123 1.438 . S
C2122 H2184 0.930 . S
C2123 C2109 1.497 . S
C2123 C2122 1.438 . S
C2123 C2124 1.360 . S
C2124 C2123 1.360 . S
C2124 C2125 1.401 . S
C2124 C2129 1.446 . S
C2125 C2124 1.401 . S
C2125 C2126 1.347 . S
C2125 H2185 0.929 . S
C2126 C2125 1.347 . S
C2126 C2127 1.455 . S
C2126 H2186 0.930 . S
C2127 C2114 1.412 . S
C2127 C2126 1.455 . S
C2127 C2128 1.331 . S
C2128 C2117 1.451 . S
C2128 C2127 1.331 . S
C2128 C2129 1.497 . S
C2129 C2120 1.395 . S
C2129 C2124 1.446 . S
C2129 C2128 1.497 . S
C2130 C2131 1.582 . S
C2130 H2187 0.962 . S
C2130 H2188 0.959 . S
C2130 H2189 0.958 . S
C2131 C2130 1.582 . S
C2131 O2134 1.458 . S
C2131 H2160 0.980 . S
O2132 C2077 1.426 . S
O2132 C2078 1.334 . S
O2133 C2105 1.412 . S
O2133 C2106 1.393 . S
O2134 C2096 1.435 . S
O2134 C2131 1.458 . S
O2135 C2087 1.468 . S
O2135 C2088 1.408 . S
H2136 C2077 0.980 . S
H2137 C2076 0.959 . S
H2138 C2076 0.959 . S
H2139 C2076 0.960 . S
H2140 C2079 0.929 . S
H2141 C2083 0.929 . S
H2142 C2084 0.959 . S
H2143 C2084 0.961 . S
H2144 C2084 0.961 . S
H2145 C2085 0.960 . S
H2146 C2085 0.960 . S
H2147 C2085 0.961 . S
H2148 C2087 0.980 . S
H2149 C2086 0.961 . S
H2150 C2086 0.960 . S
H2151 C2086 0.959 . S
H2152 C2089 0.930 . S
H2153 C2093 0.931 . S
H2154 C2094 0.959 . S
H2155 C2094 0.961 . S
H2156 C2094 0.959 . S
H2157 C2095 0.960 . S
H2158 C2095 0.960 . S
H2159 C2095 0.960 . S
H2160 C2131 0.980 . S
H2161 C2097 0.930 . S
H2162 C2101 0.930 . S
H2163 C2102 0.961 . S
H2164 C2102 0.960 . S
H2165 C2102 0.958 . S
H2166 C2103 0.961 . S
H2167 C2103 0.960 . S
H2168 C2103 0.960 . S
H2169 C2105 0.980 . S
H2170 C2104 0.961 . S
H2171 C2104 0.961 . S
H2172 C2104 0.959 . S
H2173 C2107 0.932 . S
H2174 C2111 0.929 . S
H2175 C2112 0.961 . S
H2176 C2112 0.959 . S
H2177 C2112 0.959 . S
H2178 C2113 0.960 . S
H2179 C2113 0.962 . S
H2180 C2113 0.961 . S
H2181 C2115 0.929 . S
H2182 C2118 0.930 . S
H2183 C2119 0.929 . S
H2184 C2122 0.930 . S
H2185 C2125 0.929 . S
H2186 C2126 0.930 . S
H2187 C2130 0.962 . S
H2188 C2130 0.959 . S
H2189 C2130 0.958 . S
C2190 C2191 1.560 . S
C2190 H2251 0.959 . S
C2190 H2252 0.959 . S
C2190 H2253 0.960 . S
C2191 C2190 1.560 . S
C2191 O2246 1.426 . S
C2191 H2250 0.980 . S
C2192 C2193 1.407 . S
C2192 C2197 1.418 . S
C2192 O2246 1.334 . S
C2193 C2192 1.407 . S
C2193 C2194 1.360 . S
C2193 H2254 0.929 . S
C2194 C2193 1.360 . S
C2194 C2195 1.401 . S
C2194 C2198 1.527 . S
C2195 C2194 1.401 . S
C2195 C2196 1.405 . S
C2195 C2228 1.587 . S
C2196 C2195 1.405 . S
C2196 C2197 1.332 . S
C2196 C2199 1.496 . S
C2197 C2192 1.418 . S
C2197 C2196 1.332 . S
C2197 H2255 0.929 . S
C2198 C2194 1.527 . S
C2198 H2256 0.959 . S
C2198 H2257 0.961 . S
C2198 H2258 0.961 . S
C2199 C2196 1.496 . S
C2199 H2259 0.960 . S
C2199 H2260 0.960 . S
C2199 H2261 0.961 . S
C2200 C2201 1.517 . S
C2200 H2263 0.961 . S
C2200 H2264 0.960 . S
C2200 H2265 0.959 . S
C2201 C2200 1.517 . S
C2201 O2249 1.468 . S
C2201 H2262 0.980 . S
C2202 C2203 1.349 . S
C2202 C2207 1.367 . S
C2202 O2249 1.408 . S
C2203 C2202 1.349 . S
C2203 C2204 1.407 . S
C2203 H2266 0.930 . S
C2204 C2203 1.407 . S
C2204 C2205 1.449 . S
C2204 C2208 1.535 . S
C2205 C2204 1.449 . S
C2205 C2206 1.384 . S
C2205 C2230 1.553 . S
C2206 C2205 1.384 . S
C2206 C2207 1.364 . S
C2206 C2209 1.450 . S
C2207 C2202 1.367 . S
C2207 C2206 1.364 . S
C2207 H2267 0.931 . S
C2208 C2204 1.535 . S
C2208 H2268 0.959 . S
C2208 H2269 0.961 . S
C2208 H2270 0.959 . S
C2209 C2206 1.450 . S
C2209 H2271 0.960 . S
C2209 H2272 0.960 . S
C2209 H2273 0.960 . S
C2210 C2211 1.309 . S
C2210 C2215 1.304 . S
C2210 O2248 1.435 . S
C2211 C2210 1.309 . S
C2211 C2212 1.476 . S
C2211 H2275 0.930 . S
C2212 C2211 1.476 . S
C2212 C2213 1.400 . S
C2212 C2216 1.567 . S
C2213 C2212 1.400 . S
C2213 C2214 1.373 . S
C2213 C2235 1.432 . S
C2214 C2213 1.373 . S
C2214 C2215 1.339 . S
C2214 C2217 1.530 . S
C2215 C2210 1.304 . S
C2215 C2214 1.339 . S
C2215 H2276 0.930 . S
C2216 C2212 1.567 . S
C2216 H2277 0.961 . S
C2216 H2278 0.960 . S
C2216 H2279 0.958 . S
C2217 C2214 1.530 . S
C2217 H2280 0.961 . S
C2217 H2281 0.960 . S
C2217 H2282 0.960 . S
C2218 C2219 1.530 . S
C2218 H2284 0.961 . S
C2218 H2285 0.961 . S
C2218 H2286 0.959 . S
C2219 C2218 1.530 . S
C2219 O2247 1.412 . S
C2219 H2283 0.980 . S
C2220 C2221 1.288 . S
C2220 C2225 1.377 . S
C2220 O2247 1.393 . S
C2221 C2220 1.288 . S
C2221 C2222 1.369 . S
C2221 H2287 0.932 . S
C2222 C2221 1.369 . S
C2222 C2223 1.398 . S
C2222 C2226 1.527 . S
C2223 C2222 1.398 . S
C2223 C2224 1.380 . S
C2223 C2237 1.497 . S
C2224 C2223 1.380 . S
C2224 C2225 1.383 . S
C2224 C2227 1.603 . S
C2225 C2220 1.377 . S
C2225 C2224 1.383 . S
C2225 H2288 0.929 . S
C2226 C2222 1.527 . S
C2226 H2289 0.961 . S
C2226 H2290 0.959 . S
C2226 H2291 0.959 . S
C2227 C2224 1.603 . S
C2227 H2292 0.960 . S
C2227 H2293 0.962 . S
C2227 H2294 0.961 . S
C2228 C2195 1.587 . S
C2228 C2229 1.360 . S
C2228 C2241 1.412 . S
C2229 C2228 1.360 . S
C2229 C2230 1.365 . S
C2229 H2295 0.929 . S
C2230 C2205 1.553 . S
C2230 C2229 1.365 . S
C2230 C2231 1.404 . S
C2231 C2230 1.404 . S
C2231 C2232 1.395 . S
C2231 C2242 1.451 . S
C2232 C2231 1.395 . S
C2232 C2233 1.322 . S
C2232 H2296 0.930 . S
C2233 C2232 1.322 . S
C2233 C2234 1.459 . S
C2233 H2297 0.929 . S
C2234 C2233 1.459 . S
C2234 C2235 1.445 . S
C2234 C2243 1.395 . S
C2235 C2213 1.432 . S
C2235 C2234 1.445 . S
C2235 C2236 1.370 . S
C2236 C2235 1.370 . S
C2236 C2237 1.438 . S
C2236 H2298 0.930 . S
C2237 C2223 1.497 . S
C2237 C2236 1.438 . S
C2237 C2238 1.360 . S
C2238 C2237 1.360 . S
C2238 C2239 1.401 . S
C2238 C2243 1.446 . S
C2239 C2238 1.401 . S
C2239 C2240 1.347 . S
C2239 H2299 0.929 . S
C2240 C2239 1.347 . S
C2240 C2241 1.455 . S
C2240 H2300 0.930 . S
C2241 C2228 1.412 . S
C2241 C2240 1.455 . S
C2241 C2242 1.331 . S
C2242 C2231 1.451 . S
C2242 C2241 1.331 . S
C2242 C2243 1.497 . S
C2243 C2234 1.395 . S
C2243 C2238 1.446 . S
C2243 C2242 1.497 . S
C2244 C2245 1.582 . S
C2244 H2301 0.962 . S
C2244 H2302 0.959 . S
C2244 H2303 0.958 . S
C2245 C2244 1.582 . S
C2245 O2248 1.458 . S
C2245 H2274 0.980 . S
O2246 C2191 1.426 . S
O2246 C2192 1.334 . S
O2247 C2219 1.412 . S
O2247 C2220 1.393 . S
O2248 C2210 1.435 . S
O2248 C2245 1.458 . S
O2249 C2201 1.468 . S
O2249 C2202 1.408 . S
H2250 C2191 0.980 . S
H2251 C2190 0.959 . S
H2252 C2190 0.959 . S
H2253 C2190 0.960 . S
H2254 C2193 0.929 . S
H2255 C2197 0.929 . S
H2256 C2198 0.959 . S
H2257 C2198 0.961 . S
H2258 C2198 0.961 . S
H2259 C2199 0.960 . S
H2260 C2199 0.960 . S
H2261 C2199 0.961 . S
H2262 C2201 0.980 . S
H2263 C2200 0.961 . S
H2264 C2200 0.960 . S
H2265 C2200 0.959 . S
H2266 C2203 0.930 . S
H2267 C2207 0.931 . S
H2268 C2208 0.959 . S
H2269 C2208 0.961 . S
H2270 C2208 0.959 . S
H2271 C2209 0.960 . S
H2272 C2209 0.960 . S
H2273 C2209 0.960 . S
H2274 C2245 0.980 . S
H2275 C2211 0.930 . S
H2276 C2215 0.930 . S
H2277 C2216 0.961 . S
H2278 C2216 0.960 . S
H2279 C2216 0.958 . S
H2280 C2217 0.961 . S
H2281 C2217 0.960 . S
H2282 C2217 0.960 . S
H2283 C2219 0.980 . S
H2284 C2218 0.961 . S
H2285 C2218 0.961 . S
H2286 C2218 0.959 . S
H2287 C2221 0.932 . S
H2288 C2225 0.929 . S
H2289 C2226 0.961 . S
H2290 C2226 0.959 . S
H2291 C2226 0.959 . S
H2292 C2227 0.960 . S
H2293 C2227 0.962 . S
H2294 C2227 0.961 . S
H2295 C2229 0.929 . S
H2296 C2232 0.930 . S
H2297 C2233 0.929 . S
H2298 C2236 0.930 . S
H2299 C2239 0.929 . S
H2300 C2240 0.930 . S
H2301 C2244 0.962 . S
H2302 C2244 0.959 . S
H2303 C2244 0.958 . S
C2304 C2305 1.333 1_455 S
C2304 C2306 1.327 . S
C2304 H2329 0.950 . S
C2305 C2304 1.333 1_655 S
C2305 C2321 1.388 . S
C2306 C2304 1.327 . S
C2306 C2325 1.429 1_455 S
C2306 H2330 0.950 . S
C2307 C2324 1.574 . S
C2307 C2326 1.368 . S
C2307 H2331 0.949 . S
H2308 C2312 0.949 . S
C2309 C2310 1.349 . S
C2309 C2311 1.327 . S
C2309 H2332 0.950 . S
C2310 C2309 1.349 . S
C2310 C2322 1.380 . S
C2311 C2309 1.327 . S
C2311 C2327 1.429 . S
C2311 H2333 0.950 . S
C2312 H2308 0.949 . S
C2312 C2320 1.574 . S
C2312 C2328 1.368 1_455 S
H2313 C2321 0.950 . S
H2314 C2319 0.950 . S
H2315 C2320 0.949 . S
H2316 C2322 0.937 1_455 S
H2317 C2323 0.955 . S
H2318 C2324 0.949 . S
C2319 H2314 0.950 . S
C2319 C2321 1.327 . S
C2319 C2325 1.429 . S
C2320 C2312 1.574 . S
C2320 H2315 0.949 . S
C2320 C2326 1.368 1_455 S
C2321 C2305 1.388 . S
C2321 H2313 0.950 . S
C2321 C2319 1.327 . S
C2322 C2310 1.380 . S
C2322 H2316 0.937 1_655 S
C2322 C2323 1.307 1_655 S
C2323 H2317 0.955 . S
C2323 C2322 1.307 1_455 S
C2323 C2327 1.426 1_455 S
C2324 C2307 1.574 . S
C2324 H2318 0.949 . S
C2324 C2328 1.368 . S
C2325 C2306 1.429 1_655 S
C2325 C2319 1.429 . S
C2325 C2326 1.523 . S
C2326 C2307 1.368 . S
C2326 C2320 1.368 1_655 S
C2326 C2325 1.523 . S
C2327 C2311 1.429 . S
C2327 C2323 1.426 1_655 S
C2327 C2328 1.523 . S
C2328 C2312 1.368 1_655 S
C2328 C2324 1.368 . S
C2328 C2327 1.523 . S
H2329 C2304 0.950 . S
H2330 C2306 0.950 . S
H2331 C2307 0.949 . S
H2332 C2309 0.950 . S
H2333 C2311 0.950 . S
C2334 C2335 1.349 . S
C2334 C2336 1.327 . S
C2334 H2359 0.950 . S
C2335 C2334 1.349 . S
C2335 C2351 1.349 . S
C2336 C2334 1.327 . S
C2336 C2355 1.429 . S
C2336 H2360 0.950 . S
C2337 C2354 1.574 . S
C2337 C2356 1.368 . S
C2337 H2361 0.949 . S
H2338 C2342 0.949 . S
C2339 C2340 1.349 . S
C2339 C2341 1.327 . S
C2339 H2362 0.950 . S
C2340 C2339 1.349 . S
C2340 C2352 1.349 . S
C2341 C2339 1.327 . S
C2341 C2357 1.429 . S
C2341 H2363 0.950 . S
C2342 H2338 0.949 . S
C2342 C2350 1.574 . S
C2342 C2358 1.368 . S
H2343 C2351 0.950 . S
H2344 C2349 0.950 . S
H2345 C2350 0.949 . S
H2346 C2352 0.950 . S
H2347 C2353 0.950 . S
H2348 C2354 0.949 . S
C2349 H2344 0.950 . S
C2349 C2351 1.327 . S
C2349 C2355 1.429 . S
C2350 C2342 1.574 . S
C2350 H2345 0.949 . S
C2350 C2356 1.368 . S
C2351 C2335 1.349 . S
C2351 H2343 0.950 . S
C2351 C2349 1.327 . S
C2352 C2340 1.349 . S
C2352 H2346 0.950 . S
C2352 C2353 1.327 . S
C2353 H2347 0.950 . S
C2353 C2352 1.327 . S
C2353 C2357 1.429 . S
C2354 C2337 1.574 . S
C2354 H2348 0.949 . S
C2354 C2358 1.368 . S
C2355 C2336 1.429 . S
C2355 C2349 1.429 . S
C2355 C2356 1.523 . S
C2356 C2337 1.368 . S
C2356 C2350 1.368 . S
C2356 C2355 1.523 . S
C2357 C2341 1.429 . S
C2357 C2353 1.429 . S
C2357 C2358 1.523 . S
C2358 C2342 1.368 . S
C2358 C2354 1.368 . S
C2358 C2357 1.523 . S
H2359 C2334 0.950 . S
H2360 C2336 0.950 . S
H2361 C2337 0.949 . S
H2362 C2339 0.950 . S
H2363 C2341 0.950 . S
C2364 C2365 1.349 . S
C2364 C2366 1.327 . S
C2364 H2389 0.950 . S
C2365 C2364 1.349 . S
C2365 C2381 1.349 . S
C2366 C2364 1.327 . S
C2366 C2385 1.429 . S
C2366 H2390 0.950 . S
C2367 C2384 1.545 . S
C2367 C2386 1.358 1_565 S
C2367 H2391 0.954 . S
H2368 C2372 0.949 . S
C2369 C2370 1.349 1_565 S
C2369 C2371 1.327 . S
C2369 H2392 0.950 . S
C2370 C2369 1.349 1_545 S
C2370 C2382 1.349 . S
C2371 C2369 1.327 . S
C2371 C2387 1.429 1_565 S
C2371 H2393 0.950 . S
C2372 H2368 0.949 . S
C2372 C2380 1.574 . S
C2372 C2388 1.368 . S
H2373 C2381 0.950 1_565 S
H2374 C2379 0.950 1_565 S
H2375 C2380 0.949 . S
H2376 C2382 0.950 . S
H2377 C2383 0.950 . S
H2378 C2384 1.028 . S
C2379 H2374 0.950 1_545 S
C2379 C2381 1.327 . S
C2379 C2385 1.429 . S
C2380 C2372 1.574 . S
C2380 H2375 0.949 . S
C2380 C2386 1.368 . S
C2381 C2365 1.349 . S
C2381 H2373 0.950 1_545 S
C2381 C2379 1.327 . S
C2382 C2370 1.349 . S
C2382 H2376 0.950 . S
C2382 C2383 1.327 . S
C2383 H2377 0.950 . S
C2383 C2382 1.327 . S
C2383 C2387 1.429 . S
C2384 C2367 1.545 . S
C2384 H2378 1.028 . S
C2384 C2388 1.318 1_565 S
C2385 C2366 1.429 . S
C2385 C2379 1.429 . S
C2385 C2386 1.523 . S
C2386 C2367 1.358 1_545 S
C2386 C2380 1.368 . S
C2386 C2385 1.523 . S
C2387 C2371 1.429 1_545 S
C2387 C2383 1.429 . S
C2387 C2388 1.523 . S
C2388 C2372 1.368 . S
C2388 C2384 1.318 1_545 S
C2388 C2387 1.523 . S
H2389 C2364 0.950 . S
H2390 C2366 0.950 . S
H2391 C2367 0.954 . S
H2392 C2369 0.950 . S
H2393 C2371 0.950 . S
C2394 C2395 1.279 1_565 S
C2394 C2396 1.327 . S
C2394 H2419 0.950 . S
C2395 C2394 1.279 1_545 S
C2395 C2411 1.392 . S
C2396 C2394 1.327 . S
C2396 C2415 1.461 . S
C2396 H2420 0.950 . S
C2397 C2414 1.574 . S
C2397 C2416 1.368 1_545 S
C2397 H2421 0.949 . S
H2398 C2402 0.949 . S
C2399 C2400 1.349 1_545 S
C2399 C2401 1.327 . S
C2399 H2422 0.950 . S
C2400 C2399 1.349 1_565 S
C2400 C2412 1.349 . S
C2401 C2399 1.327 . S
C2401 C2417 1.429 1_545 S
C2401 H2423 0.950 . S
C2402 H2398 0.949 . S
C2402 C2410 1.574 . S
C2402 C2418 1.368 . S
H2403 C2411 0.950 . S
H2404 C2409 0.950 . S
H2405 C2410 0.949 . S
H2406 C2412 0.950 . S
H2407 C2413 0.950 . S
H2408 C2414 0.949 . S
C2409 H2404 0.950 . S
C2409 C2411 1.327 . S
C2409 C2415 1.372 1_545 S
C2410 C2402 1.574 . S
C2410 H2405 0.949 . S
C2410 C2416 1.368 . S
C2411 C2395 1.392 . S
C2411 H2403 0.950 . S
C2411 C2409 1.327 . S
C2412 C2400 1.349 . S
C2412 H2406 0.950 . S
C2412 C2413 1.327 . S
C2413 H2407 0.950 . S
C2413 C2412 1.327 . S
C2413 C2417 1.429 . S
C2414 C2397 1.574 . S
C2414 H2408 0.949 . S
C2414 C2418 1.368 1_545 S
C2415 C2396 1.461 . S
C2415 C2409 1.372 1_565 S
C2415 C2416 1.547 . S
C2416 C2397 1.368 1_565 S
C2416 C2410 1.368 . S
C2416 C2415 1.547 . S
C2417 C2401 1.429 1_565 S
C2417 C2413 1.429 . S
C2417 C2418 1.523 . S
C2418 C2402 1.368 . S
C2418 C2414 1.368 1_565 S
C2418 C2417 1.523 . S
H2419 C2394 0.950 . S
H2420 C2396 0.950 . S
H2421 C2397 0.949 . S
H2422 C2399 0.950 . S
H2423 C2401 0.950 . S
C2424 C2425 1.349 . S
C2424 C2426 1.327 . S
C2424 H2449 0.950 . S
C2425 C2424 1.349 . S
C2425 C2441 1.349 1_455 S
C2426 C2424 1.327 . S
C2426 C2445 1.429 . S
C2426 H2450 0.950 . S
C2427 C2444 1.574 . S
C2427 C2446 1.368 1_655 S
C2427 H2451 0.949 . S
H2428 C2432 0.949 . S
C2429 C2430 1.349 1_655 S
C2429 C2431 1.327 . S
C2429 H2452 0.950 . S
C2430 C2429 1.349 1_455 S
C2430 C2442 1.349 . S
C2431 C2429 1.327 . S
C2431 C2447 1.429 1_655 S
C2431 H2453 0.950 . S
C2432 H2428 0.949 . S
C2432 C2440 1.574 . S
C2432 C2448 1.368 . S
H2433 C2441 0.950 . S
H2434 C2439 0.950 . S
H2435 C2440 0.949 . S
H2436 C2442 0.950 . S
H2437 C2443 0.950 . S
H2438 C2444 0.949 . S
C2439 H2434 0.950 . S
C2439 C2441 1.327 . S
C2439 C2445 1.429 1_655 S
C2440 C2432 1.574 . S
C2440 H2435 0.949 . S
C2440 C2446 1.368 . S
C2441 C2425 1.349 1_655 S
C2441 H2433 0.950 . S
C2441 C2439 1.327 . S
C2442 C2430 1.349 . S
C2442 H2436 0.950 . S
C2442 C2443 1.327 . S
C2443 H2437 0.950 . S
C2443 C2442 1.327 . S
C2443 C2447 1.429 . S
C2444 C2427 1.574 . S
C2444 H2438 0.949 . S
C2444 C2448 1.368 1_655 S
C2445 C2426 1.429 . S
C2445 C2439 1.429 1_455 S
C2445 C2446 1.523 . S
C2446 C2427 1.368 1_455 S
C2446 C2440 1.368 . S
C2446 C2445 1.523 . S
C2447 C2431 1.429 1_455 S
C2447 C2443 1.429 . S
C2447 C2448 1.523 . S
C2448 C2432 1.368 . S
C2448 C2444 1.368 1_455 S
C2448 C2447 1.523 . S
H2449 C2424 0.950 . S
H2450 C2426 0.950 . S
H2451 C2427 0.949 . S
H2452 C2429 0.950 . S
H2453 C2431 0.950 . S
C2454 C2455 1.349 . S
C2454 C2456 1.327 . S
C2454 H2479 0.950 . S
C2455 C2454 1.349 . S
C2455 C2471 1.349 . S
C2456 C2454 1.327 . S
C2456 C2475 1.429 . S
C2456 H2480 0.950 . S
C2457 C2474 1.574 . S
C2457 C2476 1.368 . S
C2457 H2481 0.949 . S
H2458 C2462 0.949 . S
C2459 C2460 1.349 . S
C2459 C2461 1.327 . S
C2459 H2482 0.950 . S
C2460 C2459 1.349 . S
C2460 C2472 1.349 . S
C2461 C2459 1.327 . S
C2461 C2477 1.429 . S
C2461 H2483 0.950 . S
C2462 H2458 0.949 . S
C2462 C2470 1.574 . S
C2462 C2478 1.368 . S
H2463 C2471 0.950 . S
H2464 C2469 0.950 . S
H2465 C2470 0.949 . S
H2466 C2472 0.950 . S
H2467 C2473 0.950 . S
H2468 C2474 0.949 . S
C2469 H2464 0.950 . S
C2469 C2471 1.327 . S
C2469 C2475 1.429 . S
C2470 C2462 1.574 . S
C2470 H2465 0.949 . S
C2470 C2476 1.368 . S
C2471 C2455 1.349 . S
C2471 H2463 0.950 . S
C2471 C2469 1.327 . S
C2472 C2460 1.349 . S
C2472 H2466 0.950 . S
C2472 C2473 1.327 . S
C2473 H2467 0.950 . S
C2473 C2472 1.327 . S
C2473 C2477 1.429 . S
C2474 C2457 1.574 . S
C2474 H2468 0.949 . S
C2474 C2478 1.368 . S
C2475 C2456 1.429 . S
C2475 C2469 1.429 . S
C2475 C2476 1.523 . S
C2476 C2457 1.368 . S
C2476 C2470 1.368 . S
C2476 C2475 1.523 . S
C2477 C2461 1.429 . S
C2477 C2473 1.429 . S
C2477 C2478 1.523 . S
C2478 C2462 1.368 . S
C2478 C2474 1.368 . S
C2478 C2477 1.523 . S
H2479 C2454 0.950 . S
H2480 C2456 0.950 . S
H2481 C2457 0.949 . S
H2482 C2459 0.950 . S
H2483 C2461 0.950 . S
C2484 C2485 1.349 1_655 S
C2484 C2486 1.327 . S
C2484 H2509 0.950 . S
C2485 C2484 1.349 1_455 S
C2485 C2501 1.349 . S
C2486 C2484 1.327 . S
C2486 C2505 1.429 1_655 S
C2486 H2510 0.950 . S
C2487 C2504 1.574 . S
C2487 C2506 1.368 . S
C2487 H2511 0.949 . S
H2488 C2492 0.949 . S
C2489 C2490 1.394 . S
C2489 C2491 1.327 . S
C2489 H2512 0.950 . S
C2490 C2489 1.394 . S
C2490 C2502 1.281 1_455 S
C2491 C2489 1.327 . S
C2491 C2507 1.429 . S
C2491 H2513 0.950 . S
C2492 H2488 0.949 . S
C2492 C2500 1.574 . S
C2492 C2508 1.368 1_655 S
H2493 C2501 0.950 . S
H2494 C2499 0.950 . S
H2495 C2500 0.949 . S
H2496 C2502 0.950 . S
H2497 C2503 0.950 . S
H2498 C2504 0.949 . S
C2499 H2494 0.950 . S
C2499 C2501 1.327 . S
C2499 C2505 1.429 . S
C2500 C2492 1.574 . S
C2500 H2495 0.949 . S
C2500 C2506 1.368 1_655 S
C2501 C2485 1.349 . S
C2501 H2493 0.950 . S
C2501 C2499 1.327 . S
C2502 C2490 1.281 1_655 S
C2502 H2496 0.950 . S
C2502 C2503 1.327 . S
C2503 H2497 0.950 . S
C2503 C2502 1.327 . S
C2503 C2507 1.429 1_655 S
C2504 C2487 1.574 . S
C2504 H2498 0.949 . S
C2504 C2508 1.368 . S
C2505 C2486 1.429 1_455 S
C2505 C2499 1.429 . S
C2505 C2506 1.523 . S
C2506 C2487 1.368 . S
C2506 C2500 1.368 1_455 S
C2506 C2505 1.523 . S
C2507 C2491 1.429 . S
C2507 C2503 1.429 1_455 S
C2507 C2508 1.523 . S
C2508 C2492 1.368 1_455 S
C2508 C2504 1.368 . S
C2508 C2507 1.523 . S
H2509 C2484 0.950 . S
H2510 C2486 0.950 . S
H2511 C2487 0.949 . S
H2512 C2489 0.950 . S
H2513 C2491 0.950 . S
C2514 C2515 1.349 . S
C2514 C2516 1.327 . S
C2514 H2539 0.950 . S
C2515 C2514 1.349 . S
C2515 C2531 1.349 . S
C2516 C2514 1.327 . S
C2516 C2535 1.429 . S
C2516 H2540 0.950 . S
C2517 C2534 1.574 . S
C2517 C2536 1.368 . S
C2517 H2541 0.949 . S
H2518 C2522 0.949 . S
C2519 C2520 1.349 . S
C2519 C2521 1.327 . S
C2519 H2542 0.950 . S
C2520 C2519 1.349 . S
C2520 C2532 1.349 . S
C2521 C2519 1.327 . S
C2521 C2537 1.429 . S
C2521 H2543 0.950 . S
C2522 H2518 0.949 . S
C2522 C2530 1.574 . S
C2522 C2538 1.368 . S
H2523 C2531 0.950 . S
H2524 C2529 0.950 . S
H2525 C2530 0.949 . S
H2526 C2532 0.950 . S
H2527 C2533 0.950 . S
H2528 C2534 0.949 . S
C2529 H2524 0.950 . S
C2529 C2531 1.327 . S
C2529 C2535 1.429 . S
C2530 C2522 1.574 . S
C2530 H2525 0.949 . S
C2530 C2536 1.368 . S
C2531 C2515 1.349 . S
C2531 H2523 0.950 . S
C2531 C2529 1.327 . S
C2532 C2520 1.349 . S
C2532 H2526 0.950 . S
C2532 C2533 1.327 . S
C2533 H2527 0.950 . S
C2533 C2532 1.327 . S
C2533 C2537 1.429 . S
C2534 C2517 1.574 . S
C2534 H2528 0.949 . S
C2534 C2538 1.368 . S
C2535 C2516 1.429 . S
C2535 C2529 1.429 . S
C2535 C2536 1.523 . S
C2536 C2517 1.368 . S
C2536 C2530 1.368 . S
C2536 C2535 1.523 . S
C2537 C2521 1.429 . S
C2537 C2533 1.429 . S
C2537 C2538 1.523 . S
C2538 C2522 1.368 . S
C2538 C2534 1.368 . S
C2538 C2537 1.523 . S
H2539 C2514 0.950 . S
H2540 C2516 0.950 . S
H2541 C2517 0.949 . S
H2542 C2519 0.950 . S
H2543 C2521 0.950 . S
C2544 C2545 1.349 1_545 S
C2544 C2546 1.327 . S
C2544 H2569 0.950 . S
C2545 C2544 1.349 1_565 S
C2545 C2561 1.349 . S
C2546 C2544 1.327 . S
C2546 C2565 1.429 1_545 S
C2546 H2570 0.950 . S
C2547 C2564 1.574 . S
C2547 C2566 1.368 . S
C2547 H2571 0.949 . S
H2548 C2552 0.949 . S
C2549 C2550 1.349 . S
C2549 C2551 1.327 . S
C2549 H2572 0.950 . S
C2550 C2549 1.349 . S
C2550 C2562 1.349 1_565 S
C2551 C2549 1.327 . S
C2551 C2567 1.429 . S
C2551 H2573 0.950 . S
C2552 H2548 0.949 . S
C2552 C2560 1.574 . S
C2552 C2568 1.368 1_545 S
H2553 C2561 0.950 . S
H2554 C2559 0.950 . S
H2555 C2560 0.949 . S
H2556 C2562 0.950 . S
H2557 C2563 0.950 . S
H2558 C2564 0.949 . S
C2559 H2554 0.950 . S
C2559 C2561 1.327 . S
C2559 C2565 1.429 . S
C2560 C2552 1.574 . S
C2560 H2555 0.949 . S
C2560 C2566 1.368 1_545 S
C2561 C2545 1.349 . S
C2561 H2553 0.950 . S
C2561 C2559 1.327 . S
C2562 C2550 1.349 1_545 S
C2562 H2556 0.950 . S
C2562 C2563 1.327 . S
C2563 H2557 0.950 . S
C2563 C2562 1.327 . S
C2563 C2567 1.429 1_545 S
C2564 C2547 1.574 . S
C2564 H2558 0.949 . S
C2564 C2568 1.368 . S
C2565 C2546 1.429 1_565 S
C2565 C2559 1.429 . S
C2565 C2566 1.523 . S
C2566 C2547 1.368 . S
C2566 C2560 1.368 1_565 S
C2566 C2565 1.523 . S
C2567 C2551 1.429 . S
C2567 C2563 1.429 1_565 S
C2567 C2568 1.523 . S
C2568 C2552 1.368 1_565 S
C2568 C2564 1.368 . S
C2568 C2567 1.523 . S
H2569 C2544 0.950 . S
H2570 C2546 0.950 . S
H2571 C2547 0.949 . S
H2572 C2549 0.950 . S
H2573 C2551 0.950 . S
C2574 C2575 1.349 . S
C2574 C2576 1.327 . S
C2574 H2599 0.950 . S
C2575 C2574 1.349 . S
C2575 C2591 1.349 1_545 S
C2576 C2574 1.327 . S
C2576 C2595 1.429 . S
C2576 H2600 0.950 . S
C2577 C2594 1.574 . S
C2577 C2596 1.368 1_565 S
C2577 H2601 0.949 . S
H2578 C2582 0.949 . S
C2579 C2580 1.349 1_565 S
C2579 C2581 1.327 . S
C2579 H2602 0.950 . S
C2580 C2579 1.349 1_545 S
C2580 C2592 1.349 . S
C2581 C2579 1.327 . S
C2581 C2597 1.429 1_565 S
C2581 H2603 0.950 . S
C2582 H2578 0.949 . S
C2582 C2590 1.574 . S
C2582 C2598 1.368 . S
H2583 C2591 0.950 . S
H2584 C2589 0.950 . S
H2585 C2590 0.949 . S
H2586 C2592 0.950 . S
H2587 C2593 0.950 . S
H2588 C2594 0.949 . S
C2589 H2584 0.950 . S
C2589 C2591 1.327 . S
C2589 C2595 1.429 1_565 S
C2590 C2582 1.574 . S
C2590 H2585 0.949 . S
C2590 C2596 1.368 . S
C2591 C2575 1.349 1_565 S
C2591 H2583 0.950 . S
C2591 C2589 1.327 . S
C2592 C2580 1.349 . S
C2592 H2586 0.950 . S
C2592 C2593 1.327 . S
C2593 H2587 0.950 . S
C2593 C2592 1.327 . S
C2593 C2597 1.429 . S
C2594 C2577 1.574 . S
C2594 H2588 0.949 . S
C2594 C2598 1.368 1_565 S
C2595 C2576 1.429 . S
C2595 C2589 1.429 1_545 S
C2595 C2596 1.523 . S
C2596 C2577 1.368 1_545 S
C2596 C2590 1.368 . S
C2596 C2595 1.523 . S
C2597 C2581 1.429 1_545 S
C2597 C2593 1.429 . S
C2597 C2598 1.523 . S
C2598 C2582 1.368 . S
C2598 C2594 1.368 1_545 S
C2598 C2597 1.523 . S
H2599 C2574 0.950 . S
H2600 C2576 0.950 . S
H2601 C2577 0.949 . S
H2602 C2579 0.950 . S
H2603 C2581 0.950 . S
C2604 C2605 1.349 1_455 S
C2604 C2606 1.327 . S
C2604 H2629 0.950 . S
C2605 C2604 1.349 1_655 S
C2605 C2621 1.349 . S
C2606 C2604 1.327 . S
C2606 C2625 1.429 1_455 S
C2606 H2630 0.950 . S
C2607 C2624 1.574 . S
C2607 C2626 1.368 . S
C2607 H2631 0.949 . S
H2608 C2612 0.949 . S
C2609 C2610 1.349 . S
C2609 C2611 1.327 . S
C2609 H2632 0.950 . S
C2610 C2609 1.349 . S
C2610 C2622 1.349 1_655 S
C2611 C2609 1.327 . S
C2611 C2627 1.429 . S
C2611 H2633 0.950 . S
C2612 H2608 0.949 . S
C2612 C2620 1.574 . S
C2612 C2628 1.368 1_455 S
H2613 C2621 0.950 . S
H2614 C2619 0.950 . S
H2615 C2620 0.949 . S
H2616 C2622 0.950 . S
H2617 C2623 0.950 . S
H2618 C2624 0.949 . S
C2619 H2614 0.950 . S
C2619 C2621 1.327 . S
C2619 C2625 1.429 . S
C2620 C2612 1.574 . S
C2620 H2615 0.949 . S
C2620 C2626 1.368 1_455 S
C2621 C2605 1.349 . S
C2621 H2613 0.950 . S
C2621 C2619 1.327 . S
C2622 C2610 1.349 1_455 S
C2622 H2616 0.950 . S
C2622 C2623 1.327 . S
C2623 H2617 0.950 . S
C2623 C2622 1.327 . S
C2623 C2627 1.429 1_455 S
C2624 C2607 1.574 . S
C2624 H2618 0.949 . S
C2624 C2628 1.368 . S
C2625 C2606 1.429 1_655 S
C2625 C2619 1.429 . S
C2625 C2626 1.523 . S
C2626 C2607 1.368 . S
C2626 C2620 1.368 1_655 S
C2626 C2625 1.523 . S
C2627 C2611 1.429 . S
C2627 C2623 1.429 1_655 S
C2627 C2628 1.523 . S
C2628 C2612 1.368 1_655 S
C2628 C2624 1.368 . S
C2628 C2627 1.523 . S
H2629 C2604 0.950 . S
H2630 C2606 0.950 . S
H2631 C2607 0.949 . S
H2632 C2609 0.950 . S
H2633 C2611 0.950 . S
C2634 C2635 1.349 . S
C2634 C2636 1.327 . S
C2634 H2659 0.950 . S
C2635 C2634 1.349 . S
C2635 C2651 1.349 . S
C2636 C2634 1.327 . S
C2636 C2655 1.429 . S
C2636 H2660 0.950 . S
C2637 C2654 1.574 . S
C2637 C2656 1.368 . S
C2637 H2661 0.949 . S
H2638 C2642 0.949 . S
C2639 C2640 1.349 . S
C2639 C2641 1.327 . S
C2639 H2662 0.950 . S
C2640 C2639 1.349 . S
C2640 C2652 1.349 . S
C2641 C2639 1.327 . S
C2641 C2657 1.429 . S
C2641 H2663 0.950 . S
C2642 H2638 0.949 . S
C2642 C2650 1.574 . S
C2642 C2658 1.368 . S
H2643 C2651 0.950 . S
H2644 C2649 0.950 . S
H2645 C2650 0.949 . S
H2646 C2652 0.950 . S
H2647 C2653 0.950 . S
H2648 C2654 0.949 . S
C2649 H2644 0.950 . S
C2649 C2651 1.327 . S
C2649 C2655 1.429 . S
C2650 C2642 1.574 . S
C2650 H2645 0.949 . S
C2650 C2656 1.368 . S
C2651 C2635 1.349 . S
C2651 H2643 0.950 . S
C2651 C2649 1.327 . S
C2652 C2640 1.349 . S
C2652 H2646 0.950 . S
C2652 C2653 1.327 . S
C2653 H2647 0.950 . S
C2653 C2652 1.327 . S
C2653 C2657 1.429 . S
C2654 C2637 1.574 . S
C2654 H2648 0.949 . S
C2654 C2658 1.368 . S
C2655 C2636 1.429 . S
C2655 C2649 1.429 . S
C2655 C2656 1.523 . S
C2656 C2637 1.368 . S
C2656 C2650 1.368 . S
C2656 C2655 1.523 . S
C2657 C2641 1.429 . S
C2657 C2653 1.429 . S
C2657 C2658 1.523 . S
C2658 C2642 1.368 . S
C2658 C2654 1.368 . S
C2658 C2657 1.523 . S
H2659 C2634 0.950 . S
H2660 C2636 0.950 . S
H2661 C2637 0.949 . S
H2662 C2639 0.950 . S
H2663 C2641 0.950 . S
C2664 C2665 1.349 . S
C2664 C2666 1.327 . S
C2664 H2689 0.950 . S
C2665 C2664 1.349 . S
C2665 C2681 1.349 . S
C2666 C2664 1.327 . S
C2666 C2685 1.429 . S
C2666 H2690 0.950 . S
C2667 C2684 1.574 . S
C2667 C2686 1.368 . S
C2667 H2691 0.949 . S
H2668 C2672 0.949 . S
C2669 C2670 1.349 . S
C2669 C2671 1.327 . S
C2669 H2692 0.950 . S
C2670 C2669 1.349 . S
C2670 C2682 1.349 . S
C2671 C2669 1.327 . S
C2671 C2687 1.429 . S
C2671 H2693 0.950 . S
C2672 H2668 0.949 . S
C2672 C2680 1.574 . S
C2672 C2688 1.368 . S
H2673 C2681 0.950 . S
H2674 C2679 0.950 . S
H2675 C2680 0.949 . S
H2676 C2682 0.950 . S
H2677 C2683 0.950 . S
H2678 C2684 0.949 . S
C2679 H2674 0.950 . S
C2679 C2681 1.327 . S
C2679 C2685 1.429 . S
C2680 C2672 1.574 . S
C2680 H2675 0.949 . S
C2680 C2686 1.368 . S
C2681 C2665 1.349 . S
C2681 H2673 0.950 . S
C2681 C2679 1.327 . S
C2682 C2670 1.349 . S
C2682 H2676 0.950 . S
C2682 C2683 1.327 . S
C2683 H2677 0.950 . S
C2683 C2682 1.327 . S
C2683 C2687 1.429 . S
C2684 C2667 1.574 . S
C2684 H2678 0.949 . S
C2684 C2688 1.368 . S
C2685 C2666 1.429 . S
C2685 C2679 1.429 . S
C2685 C2686 1.523 . S
C2686 C2667 1.368 . S
C2686 C2680 1.368 . S
C2686 C2685 1.523 . S
C2687 C2671 1.429 . S
C2687 C2683 1.429 . S
C2687 C2688 1.523 . S
C2688 C2672 1.368 . S
C2688 C2684 1.368 . S
C2688 C2687 1.523 . S
H2689 C2664 0.950 . S
H2690 C2666 0.950 . S
H2691 C2667 0.949 . S
H2692 C2669 0.950 . S
H2693 C2671 0.950 . S
C2694 C2695 1.349 . S
C2694 C2696 1.327 . S
C2694 H2719 0.950 . S
C2695 C2694 1.349 . S
C2695 C2711 1.349 . S
C2696 C2694 1.327 . S
C2696 C2715 1.429 . S
C2696 H2720 0.950 . S
C2697 C2714 1.574 . S
C2697 C2716 1.368 . S
C2697 H2721 0.949 . S
H2698 C2702 0.949 . S
C2699 C2700 1.349 . S
C2699 C2701 1.327 . S
C2699 H2722 0.950 . S
C2700 C2699 1.349 . S
C2700 C2712 1.349 . S
C2701 C2699 1.327 . S
C2701 C2717 1.429 . S
C2701 H2723 0.950 . S
C2702 H2698 0.949 . S
C2702 C2710 1.574 . S
C2702 C2718 1.368 . S
H2703 C2711 0.950 . S
H2704 C2709 0.950 . S
H2705 C2710 0.949 . S
H2706 C2712 0.950 . S
H2707 C2713 0.950 . S
H2708 C2714 0.949 . S
C2709 H2704 0.950 . S
C2709 C2711 1.327 . S
C2709 C2715 1.429 . S
C2710 C2702 1.574 . S
C2710 H2705 0.949 . S
C2710 C2716 1.368 . S
C2711 C2695 1.349 . S
C2711 H2703 0.950 . S
C2711 C2709 1.327 . S
C2712 C2700 1.349 . S
C2712 H2706 0.950 . S
C2712 C2713 1.327 . S
C2713 H2707 0.950 . S
C2713 C2712 1.327 . S
C2713 C2717 1.429 . S
C2714 C2697 1.574 . S
C2714 H2708 0.949 . S
C2714 C2718 1.368 . S
C2715 C2696 1.429 . S
C2715 C2709 1.429 . S
C2715 C2716 1.523 . S
C2716 C2697 1.368 . S
C2716 C2710 1.368 . S
C2716 C2715 1.523 . S
C2717 C2701 1.429 . S
C2717 C2713 1.429 . S
C2717 C2718 1.523 . S
C2718 C2702 1.368 . S
C2718 C2714 1.368 . S
C2718 C2717 1.523 . S
H2719 C2694 0.950 . S
H2720 C2696 0.950 . S
H2721 C2697 0.949 . S
H2722 C2699 0.950 . S
H2723 C2701 0.950 . S
C2724 C2725 1.349 . S
C2724 C2726 1.327 . S
C2724 H2749 0.950 . S
C2725 C2724 1.349 . S
C2725 C2741 1.349 . S
C2726 C2724 1.327 . S
C2726 C2745 1.429 . S
C2726 H2750 0.950 . S
C2727 C2744 1.574 . S
C2727 C2746 1.368 . S
C2727 H2751 0.949 . S
H2728 C2732 0.949 . S
C2729 C2730 1.349 . S
C2729 C2731 1.327 . S
C2729 H2752 0.950 . S
C2730 C2729 1.349 . S
C2730 C2742 1.349 . S
C2731 C2729 1.327 . S
C2731 C2747 1.429 . S
C2731 H2753 0.950 . S
C2732 H2728 0.949 . S
C2732 C2740 1.574 . S
C2732 C2748 1.368 . S
H2733 C2741 0.950 . S
H2734 C2739 0.950 . S
H2735 C2740 0.949 . S
H2736 C2742 0.950 . S
H2737 C2743 0.950 . S
H2738 C2744 0.949 . S
C2739 H2734 0.950 . S
C2739 C2741 1.327 . S
C2739 C2745 1.429 . S
C2740 C2732 1.574 . S
C2740 H2735 0.949 . S
C2740 C2746 1.368 . S
C2741 C2725 1.349 . S
C2741 H2733 0.950 . S
C2741 C2739 1.327 . S
C2742 C2730 1.349 . S
C2742 H2736 0.950 . S
C2742 C2743 1.327 . S
C2743 H2737 0.950 . S
C2743 C2742 1.327 . S
C2743 C2747 1.429 . S
C2744 C2727 1.574 . S
C2744 H2738 0.949 . S
C2744 C2748 1.368 . S
C2745 C2726 1.429 . S
C2745 C2739 1.429 . S
C2745 C2746 1.523 . S
C2746 C2727 1.368 . S
C2746 C2740 1.368 . S
C2746 C2745 1.523 . S
C2747 C2731 1.429 . S
C2747 C2743 1.429 . S
C2747 C2748 1.523 . S
C2748 C2732 1.368 . S
C2748 C2744 1.368 . S
C2748 C2747 1.523 . S
H2749 C2724 0.950 . S
H2750 C2726 0.950 . S
H2751 C2727 0.949 . S
H2752 C2729 0.950 . S
H2753 C2731 0.950 . S
C2754 C2755 1.349 . S
C2754 C2756 1.327 . S
C2754 H2779 0.950 . S
C2755 C2754 1.349 . S
C2755 C2771 1.349 . S
C2756 C2754 1.327 . S
C2756 C2775 1.429 . S
C2756 H2780 0.950 . S
C2757 C2774 1.574 . S
C2757 C2776 1.368 . S
C2757 H2781 0.949 . S
H2758 C2762 0.949 . S
C2759 C2760 1.349 . S
C2759 C2761 1.327 . S
C2759 H2782 0.950 . S
C2760 C2759 1.349 . S
C2760 C2772 1.349 . S
C2761 C2759 1.327 . S
C2761 C2777 1.429 . S
C2761 H2783 0.950 . S
C2762 H2758 0.949 . S
C2762 C2770 1.574 . S
C2762 C2778 1.368 . S
H2763 C2771 0.950 . S
H2764 C2769 0.950 . S
H2765 C2770 0.949 . S
H2766 C2772 0.950 . S
H2767 C2773 0.950 . S
H2768 C2774 0.949 . S
C2769 H2764 0.950 . S
C2769 C2771 1.327 . S
C2769 C2775 1.429 . S
C2770 C2762 1.574 . S
C2770 H2765 0.949 . S
C2770 C2776 1.368 . S
C2771 C2755 1.349 . S
C2771 H2763 0.950 . S
C2771 C2769 1.327 . S
C2772 C2760 1.349 . S
C2772 H2766 0.950 . S
C2772 C2773 1.327 . S
C2773 H2767 0.950 . S
C2773 C2772 1.327 . S
C2773 C2777 1.429 . S
C2774 C2757 1.574 . S
C2774 H2768 0.949 . S
C2774 C2778 1.368 . S
C2775 C2756 1.429 . S
C2775 C2769 1.429 . S
C2775 C2776 1.523 . S
C2776 C2757 1.368 . S
C2776 C2770 1.368 . S
C2776 C2775 1.523 . S
C2777 C2761 1.429 . S
C2777 C2773 1.429 . S
C2777 C2778 1.523 . S
C2778 C2762 1.368 . S
C2778 C2774 1.368 . S
C2778 C2777 1.523 . S
H2779 C2754 0.950 . S
H2780 C2756 0.950 . S
H2781 C2757 0.949 . S
H2782 C2759 0.950 . S
H2783 C2761 0.950 . S
C2784 C2785 1.349 . S
C2784 C2786 1.327 . S
C2784 H2809 0.950 . S
C2785 C2784 1.349 . S
C2785 C2801 1.349 . S
C2786 C2784 1.327 . S
C2786 C2805 1.429 . S
C2786 H2810 0.950 . S
C2787 C2804 1.574 . S
C2787 C2806 1.368 . S
C2787 H2811 0.949 . S
H2788 C2792 0.949 . S
C2789 C2790 1.349 . S
C2789 C2791 1.327 . S
C2789 H2812 0.950 . S
C2790 C2789 1.349 . S
C2790 C2802 1.349 . S
C2791 C2789 1.327 . S
C2791 C2807 1.429 . S
C2791 H2813 0.950 . S
C2792 H2788 0.949 . S
C2792 C2800 1.574 . S
C2792 C2808 1.368 . S
H2793 C2801 0.950 . S
H2794 C2799 0.950 . S
H2795 C2800 0.949 . S
H2796 C2802 0.950 . S
H2797 C2803 0.950 . S
H2798 C2804 0.949 . S
C2799 H2794 0.950 . S
C2799 C2801 1.327 . S
C2799 C2805 1.429 . S
C2800 C2792 1.574 . S
C2800 H2795 0.949 . S
C2800 C2806 1.368 . S
C2801 C2785 1.349 . S
C2801 H2793 0.950 . S
C2801 C2799 1.327 . S
C2802 C2790 1.349 . S
C2802 H2796 0.950 . S
C2802 C2803 1.327 . S
C2803 H2797 0.950 . S
C2803 C2802 1.327 . S
C2803 C2807 1.429 . S
C2804 C2787 1.574 . S
C2804 H2798 0.949 . S
C2804 C2808 1.368 . S
C2805 C2786 1.429 . S
C2805 C2799 1.429 . S
C2805 C2806 1.523 . S
C2806 C2787 1.368 . S
C2806 C2800 1.368 . S
C2806 C2805 1.523 . S
C2807 C2791 1.429 . S
C2807 C2803 1.429 . S
C2807 C2808 1.523 . S
C2808 C2792 1.368 . S
C2808 C2804 1.368 . S
C2808 C2807 1.523 . S
H2809 C2784 0.950 . S
H2810 C2786 0.950 . S
H2811 C2787 0.949 . S
H2812 C2789 0.950 . S
H2813 C2791 0.950 . S
C2814 C2815 1.349 . S
C2814 C2816 1.327 . S
C2814 H2839 0.950 . S
C2815 C2814 1.349 . S
C2815 C2831 1.349 . S
C2816 C2814 1.327 . S
C2816 C2835 1.429 . S
C2816 H2840 0.950 . S
C2817 C2834 1.574 . S
C2817 C2836 1.368 . S
C2817 H2841 0.949 . S
H2818 C2822 0.949 . S
C2819 C2820 1.349 . S
C2819 C2821 1.327 . S
C2819 H2842 0.950 . S
C2820 C2819 1.349 . S
C2820 C2832 1.349 . S
C2821 C2819 1.327 . S
C2821 C2837 1.429 . S
C2821 H2843 0.950 . S
C2822 H2818 0.949 . S
C2822 C2830 1.574 . S
C2822 C2838 1.368 . S
H2823 C2831 0.950 . S
H2824 C2829 0.950 . S
H2825 C2830 0.949 . S
H2826 C2832 0.950 . S
H2827 C2833 0.950 . S
H2828 C2834 0.949 . S
C2829 H2824 0.950 . S
C2829 C2831 1.327 . S
C2829 C2835 1.429 . S
C2830 C2822 1.574 . S
C2830 H2825 0.949 . S
C2830 C2836 1.368 . S
C2831 C2815 1.349 . S
C2831 H2823 0.950 . S
C2831 C2829 1.327 . S
C2832 C2820 1.349 . S
C2832 H2826 0.950 . S
C2832 C2833 1.327 . S
C2833 H2827 0.950 . S
C2833 C2832 1.327 . S
C2833 C2837 1.429 . S
C2834 C2817 1.574 . S
C2834 H2828 0.949 . S
C2834 C2838 1.368 . S
C2835 C2816 1.429 . S
C2835 C2829 1.429 . S
C2835 C2836 1.523 . S
C2836 C2817 1.368 . S
C2836 C2830 1.368 . S
C2836 C2835 1.523 . S
C2837 C2821 1.429 . S
C2837 C2833 1.429 . S
C2837 C2838 1.523 . S
C2838 C2822 1.368 . S
C2838 C2834 1.368 . S
C2838 C2837 1.523 . S
H2839 C2814 0.950 . S
H2840 C2816 0.950 . S
H2841 C2817 0.949 . S
H2842 C2819 0.950 . S
H2843 C2821 0.950 . S
C2844 C2845 1.349 . S
C2844 C2846 1.327 . S
C2844 H2869 0.950 . S
C2845 C2844 1.349 . S
C2845 C2861 1.349 . S
C2846 C2844 1.327 . S
C2846 C2865 1.429 . S
C2846 H2870 0.950 . S
C2847 C2864 1.574 . S
C2847 C2866 1.368 . S
C2847 H2871 0.949 . S
H2848 C2852 0.949 . S
C2849 C2850 1.349 . S
C2849 C2851 1.327 . S
C2849 H2872 0.950 . S
C2850 C2849 1.349 . S
C2850 C2862 1.349 . S
C2851 C2849 1.327 . S
C2851 C2867 1.429 . S
C2851 H2873 0.950 . S
C2852 H2848 0.949 . S
C2852 C2860 1.574 . S
C2852 C2868 1.368 . S
H2853 C2861 0.950 . S
H2854 C2859 0.950 . S
H2855 C2860 0.949 . S
H2856 C2862 0.950 . S
H2857 C2863 0.950 . S
H2858 C2864 0.949 . S
C2859 H2854 0.950 . S
C2859 C2861 1.327 . S
C2859 C2865 1.429 . S
C2860 C2852 1.574 . S
C2860 H2855 0.949 . S
C2860 C2866 1.368 . S
C2861 C2845 1.349 . S
C2861 H2853 0.950 . S
C2861 C2859 1.327 . S
C2862 C2850 1.349 . S
C2862 H2856 0.950 . S
C2862 C2863 1.327 . S
C2863 H2857 0.950 . S
C2863 C2862 1.327 . S
C2863 C2867 1.429 . S
C2864 C2847 1.574 . S
C2864 H2858 0.949 . S
C2864 C2868 1.368 . S
C2865 C2846 1.429 . S
C2865 C2859 1.429 . S
C2865 C2866 1.523 . S
C2866 C2847 1.368 . S
C2866 C2860 1.368 . S
C2866 C2865 1.523 . S
C2867 C2851 1.429 . S
C2867 C2863 1.429 . S
C2867 C2868 1.523 . S
C2868 C2852 1.368 . S
C2868 C2864 1.368 . S
C2868 C2867 1.523 . S
H2869 C2844 0.950 . S
H2870 C2846 0.950 . S
H2871 C2847 0.949 . S
H2872 C2849 0.950 . S
H2873 C2851 0.950 . S
C2874 C2875 1.349 . S
C2874 C2876 1.327 . S
C2874 H2899 0.950 . S
C2875 C2874 1.349 . S
C2875 C2891 1.349 . S
C2876 C2874 1.327 . S
C2876 C2895 1.429 . S
C2876 H2900 0.950 . S
C2877 C2894 1.574 . S
C2877 C2896 1.368 . S
C2877 H2901 0.949 . S
H2878 C2882 0.949 . S
C2879 C2880 1.349 . S
C2879 C2881 1.327 . S
C2879 H2902 0.950 . S
C2880 C2879 1.349 . S
C2880 C2892 1.349 . S
C2881 C2879 1.327 . S
C2881 C2897 1.429 . S
C2881 H2903 0.950 . S
C2882 H2878 0.949 . S
C2882 C2890 1.574 . S
C2882 C2898 1.368 . S
H2883 C2891 0.950 . S
H2884 C2889 0.950 . S
H2885 C2890 0.949 . S
H2886 C2892 0.950 . S
H2887 C2893 0.950 . S
H2888 C2894 0.949 . S
C2889 H2884 0.950 . S
C2889 C2891 1.327 . S
C2889 C2895 1.429 . S
C2890 C2882 1.574 . S
C2890 H2885 0.949 . S
C2890 C2896 1.368 . S
C2891 C2875 1.349 . S
C2891 H2883 0.950 . S
C2891 C2889 1.327 . S
C2892 C2880 1.349 . S
C2892 H2886 0.950 . S
C2892 C2893 1.327 . S
C2893 H2887 0.950 . S
C2893 C2892 1.327 . S
C2893 C2897 1.429 . S
C2894 C2877 1.574 . S
C2894 H2888 0.949 . S
C2894 C2898 1.368 . S
C2895 C2876 1.429 . S
C2895 C2889 1.429 . S
C2895 C2896 1.523 . S
C2896 C2877 1.368 . S
C2896 C2890 1.368 . S
C2896 C2895 1.523 . S
C2897 C2881 1.429 . S
C2897 C2893 1.429 . S
C2897 C2898 1.523 . S
C2898 C2882 1.368 . S
C2898 C2894 1.368 . S
C2898 C2897 1.523 . S
H2899 C2874 0.950 . S
H2900 C2876 0.950 . S
H2901 C2877 0.949 . S
H2902 C2879 0.950 . S
H2903 C2881 0.950 . S
C2904 C2905 1.349 . S
C2904 C2906 1.327 . S
C2904 H2929 0.950 . S
C2905 C2904 1.349 . S
C2905 C2921 1.349 . S
C2906 C2904 1.327 . S
C2906 C2925 1.429 . S
C2906 H2930 0.950 . S
C2907 C2924 1.574 . S
C2907 C2926 1.368 . S
C2907 H2931 0.949 . S
H2908 C2912 0.949 . S
C2909 C2910 1.349 . S
C2909 C2911 1.327 . S
C2909 H2932 0.950 . S
C2910 C2909 1.349 . S
C2910 C2922 1.349 . S
C2911 C2909 1.327 . S
C2911 C2927 1.429 . S
C2911 H2933 0.950 . S
C2912 H2908 0.949 . S
C2912 C2920 1.574 . S
C2912 C2928 1.368 . S
H2913 C2921 0.950 . S
H2914 C2919 0.950 . S
H2915 C2920 0.949 . S
H2916 C2922 0.950 . S
H2917 C2923 0.950 . S
H2918 C2924 0.949 . S
C2919 H2914 0.950 . S
C2919 C2921 1.327 . S
C2919 C2925 1.429 . S
C2920 C2912 1.574 . S
C2920 H2915 0.949 . S
C2920 C2926 1.368 . S
C2921 C2905 1.349 . S
C2921 H2913 0.950 . S
C2921 C2919 1.327 . S
C2922 C2910 1.349 . S
C2922 H2916 0.950 . S
C2922 C2923 1.327 . S
C2923 H2917 0.950 . S
C2923 C2922 1.327 . S
C2923 C2927 1.429 . S
C2924 C2907 1.574 . S
C2924 H2918 0.949 . S
C2924 C2928 1.368 . S
C2925 C2906 1.429 . S
C2925 C2919 1.429 . S
C2925 C2926 1.523 . S
C2926 C2907 1.368 . S
C2926 C2920 1.368 . S
C2926 C2925 1.523 . S
C2927 C2911 1.429 . S
C2927 C2923 1.429 . S
C2927 C2928 1.523 . S
C2928 C2912 1.368 . S
C2928 C2924 1.368 . S
C2928 C2927 1.523 . S
H2929 C2904 0.950 . S
H2930 C2906 0.950 . S
H2931 C2907 0.949 . S
H2932 C2909 0.950 . S
H2933 C2911 0.950 . S
C2934 C2935 1.349 . S
C2934 C2936 1.327 . S
C2934 H2959 0.950 . S
C2935 C2934 1.349 . S
C2935 C2951 1.349 . S
C2936 C2934 1.327 . S
C2936 C2955 1.429 . S
C2936 H2960 0.950 . S
C2937 C2954 1.574 . S
C2937 C2956 1.368 . S
C2937 H2961 0.949 . S
H2938 C2942 0.949 . S
C2939 C2940 1.349 . S
C2939 C2941 1.327 . S
C2939 H2962 0.950 . S
C2940 C2939 1.349 . S
C2940 C2952 1.349 . S
C2941 C2939 1.327 . S
C2941 C2957 1.429 . S
C2941 H2963 0.950 . S
C2942 H2938 0.949 . S
C2942 C2950 1.574 . S
C2942 C2958 1.368 . S
H2943 C2951 0.950 . S
H2944 C2949 0.950 . S
H2945 C2950 0.949 . S
H2946 C2952 0.950 . S
H2947 C2953 0.950 . S
H2948 C2954 0.949 . S
C2949 H2944 0.950 . S
C2949 C2951 1.327 . S
C2949 C2955 1.429 . S
C2950 C2942 1.574 . S
C2950 H2945 0.949 . S
C2950 C2956 1.368 . S
C2951 C2935 1.349 . S
C2951 H2943 0.950 . S
C2951 C2949 1.327 . S
C2952 C2940 1.349 . S
C2952 H2946 0.950 . S
C2952 C2953 1.327 . S
C2953 H2947 0.950 . S
C2953 C2952 1.327 . S
C2953 C2957 1.429 . S
C2954 C2937 1.574 . S
C2954 H2948 0.949 . S
C2954 C2958 1.368 . S
C2955 C2936 1.429 . S
C2955 C2949 1.429 . S
C2955 C2956 1.523 . S
C2956 C2937 1.368 . S
C2956 C2950 1.368 . S
C2956 C2955 1.523 . S
C2957 C2941 1.429 . S
C2957 C2953 1.429 . S
C2957 C2958 1.523 . S
C2958 C2942 1.368 . S
C2958 C2954 1.368 . S
C2958 C2957 1.523 . S
H2959 C2934 0.950 . S
H2960 C2936 0.950 . S
H2961 C2937 0.949 . S
H2962 C2939 0.950 . S
H2963 C2941 0.950 . S
C2964 C2965 1.349 . S
C2964 C2966 1.327 . S
C2964 H2989 0.950 . S
C2965 C2964 1.349 . S
C2965 C2981 1.349 . S
C2966 C2964 1.327 . S
C2966 C2985 1.429 . S
C2966 H2990 0.950 . S
C2967 C2984 1.574 . S
C2967 C2986 1.368 . S
C2967 H2991 0.949 . S
H2968 C2972 0.949 . S
C2969 C2970 1.349 . S
C2969 C2971 1.327 . S
C2969 H2992 0.950 . S
C2970 C2969 1.349 . S
C2970 C2982 1.349 . S
C2971 C2969 1.327 . S
C2971 C2987 1.429 . S
C2971 H2993 0.950 . S
C2972 H2968 0.949 . S
C2972 C2980 1.574 . S
C2972 C2988 1.368 . S
H2973 C2981 0.950 . S
H2974 C2979 0.950 . S
H2975 C2980 0.949 . S
H2976 C2982 0.950 . S
H2977 C2983 0.950 . S
H2978 C2984 0.949 . S
C2979 H2974 0.950 . S
C2979 C2981 1.327 . S
C2979 C2985 1.429 . S
C2980 C2972 1.574 . S
C2980 H2975 0.949 . S
C2980 C2986 1.368 . S
C2981 C2965 1.349 . S
C2981 H2973 0.950 . S
C2981 C2979 1.327 . S
C2982 C2970 1.349 . S
C2982 H2976 0.950 . S
C2982 C2983 1.327 . S
C2983 H2977 0.950 . S
C2983 C2982 1.327 . S
C2983 C2987 1.429 . S
C2984 C2967 1.574 . S
C2984 H2978 0.949 . S
C2984 C2988 1.368 . S
C2985 C2966 1.429 . S
C2985 C2979 1.429 . S
C2985 C2986 1.523 . S
C2986 C2967 1.368 . S
C2986 C2980 1.368 . S
C2986 C2985 1.523 . S
C2987 C2971 1.429 . S
C2987 C2983 1.429 . S
C2987 C2988 1.523 . S
C2988 C2972 1.368 . S
C2988 C2984 1.368 . S
C2988 C2987 1.523 . S
H2989 C2964 0.950 . S
H2990 C2966 0.950 . S
H2991 C2967 0.949 . S
H2992 C2969 0.950 . S
H2993 C2971 0.950 . S
C2994 C2995 1.349 . S
C2994 C2996 1.327 . S
C2994 H3019 0.950 . S
C2995 C2994 1.349 . S
C2995 C3011 1.349 . S
C2996 C2994 1.327 . S
C2996 C3015 1.429 . S
C2996 H3020 0.950 . S
C2997 C3014 1.574 . S
C2997 C3016 1.368 . S
C2997 H3021 0.949 . S
H2998 C3002 0.949 . S
C2999 C3000 1.349 . S
C2999 C3001 1.327 . S
C2999 H3022 0.950 . S
C3000 C2999 1.349 . S
C3000 C3012 1.349 . S
C3001 C2999 1.327 . S
C3001 C3017 1.429 . S
C3001 H3023 0.950 . S
C3002 H2998 0.949 . S
C3002 C3010 1.574 . S
C3002 C3018 1.368 . S
H3003 C3011 0.950 . S
H3004 C3009 0.950 . S
H3005 C3010 0.949 . S
H3006 C3012 0.950 . S
H3007 C3013 0.950 . S
H3008 C3014 0.949 . S
C3009 H3004 0.950 . S
C3009 C3011 1.327 . S
C3009 C3015 1.429 . S
C3010 C3002 1.574 . S
C3010 H3005 0.949 . S
C3010 C3016 1.368 . S
C3011 C2995 1.349 . S
C3011 H3003 0.950 . S
C3011 C3009 1.327 . S
C3012 C3000 1.349 . S
C3012 H3006 0.950 . S
C3012 C3013 1.327 . S
C3013 H3007 0.950 . S
C3013 C3012 1.327 . S
C3013 C3017 1.429 . S
C3014 C2997 1.574 . S
C3014 H3008 0.949 . S
C3014 C3018 1.368 . S
C3015 C2996 1.429 . S
C3015 C3009 1.429 . S
C3015 C3016 1.523 . S
C3016 C2997 1.368 . S
C3016 C3010 1.368 . S
C3016 C3015 1.523 . S
C3017 C3001 1.429 . S
C3017 C3013 1.429 . S
C3017 C3018 1.523 . S
C3018 C3002 1.368 . S
C3018 C3014 1.368 . S
C3018 C3017 1.523 . S
H3019 C2994 0.950 . S
H3020 C2996 0.950 . S
H3021 C2997 0.949 . S
H3022 C2999 0.950 . S
H3023 C3001 0.950 . S
C3024 C3025 1.349 . S
C3024 C3026 1.327 . S
C3024 H3049 0.950 . S
C3025 C3024 1.349 . S
C3025 C3041 1.349 . S
C3026 C3024 1.327 . S
C3026 C3045 1.429 . S
C3026 H3050 0.950 . S
C3027 C3044 1.574 . S
C3027 C3046 1.368 . S
C3027 H3051 0.949 . S
H3028 C3032 0.949 . S
C3029 C3030 1.349 . S
C3029 C3031 1.327 . S
C3029 H3052 0.950 . S
C3030 C3029 1.349 . S
C3030 C3042 1.349 . S
C3031 C3029 1.327 . S
C3031 C3047 1.429 . S
C3031 H3053 0.950 . S
C3032 H3028 0.949 . S
C3032 C3040 1.574 . S
C3032 C3048 1.368 . S
H3033 C3041 0.950 . S
H3034 C3039 0.950 . S
H3035 C3040 0.949 . S
H3036 C3042 0.950 . S
H3037 C3043 0.950 . S
H3038 C3044 0.949 . S
C3039 H3034 0.950 . S
C3039 C3041 1.327 . S
C3039 C3045 1.429 . S
C3040 C3032 1.574 . S
C3040 H3035 0.949 . S
C3040 C3046 1.368 . S
C3041 C3025 1.349 . S
C3041 H3033 0.950 . S
C3041 C3039 1.327 . S
C3042 C3030 1.349 . S
C3042 H3036 0.950 . S
C3042 C3043 1.327 . S
C3043 H3037 0.950 . S
C3043 C3042 1.327 . S
C3043 C3047 1.429 . S
C3044 C3027 1.574 . S
C3044 H3038 0.949 . S
C3044 C3048 1.368 . S
C3045 C3026 1.429 . S
C3045 C3039 1.429 . S
C3045 C3046 1.523 . S
C3046 C3027 1.368 . S
C3046 C3040 1.368 . S
C3046 C3045 1.523 . S
C3047 C3031 1.429 . S
C3047 C3043 1.429 . S
C3047 C3048 1.523 . S
C3048 C3032 1.368 . S
C3048 C3044 1.368 . S
C3048 C3047 1.523 . S
H3049 C3024 0.950 . S
H3050 C3026 0.950 . S
H3051 C3027 0.949 . S
H3052 C3029 0.950 . S
H3053 C3031 0.950 . S
C3054 C3055 1.349 . S
C3054 C3056 1.327 . S
C3054 H3079 0.950 . S
C3055 C3054 1.349 . S
C3055 C3071 1.349 . S
C3056 C3054 1.327 . S
C3056 C3075 1.429 . S
C3056 H3080 0.950 . S
C3057 C3074 1.574 . S
C3057 C3076 1.368 . S
C3057 H3081 0.949 . S
H3058 C3062 0.949 . S
C3059 C3060 1.349 . S
C3059 C3061 1.327 . S
C3059 H3082 0.950 . S
C3060 C3059 1.349 . S
C3060 C3072 1.349 . S
C3061 C3059 1.327 . S
C3061 C3077 1.429 . S
C3061 H3083 0.950 . S
C3062 H3058 0.949 . S
C3062 C3070 1.574 . S
C3062 C3078 1.368 . S
H3063 C3071 0.950 . S
H3064 C3069 0.950 . S
H3065 C3070 0.949 . S
H3066 C3072 0.950 . S
H3067 C3073 0.950 . S
H3068 C3074 0.949 . S
C3069 H3064 0.950 . S
C3069 C3071 1.327 . S
C3069 C3075 1.429 . S
C3070 C3062 1.574 . S
C3070 H3065 0.949 . S
C3070 C3076 1.368 . S
C3071 C3055 1.349 . S
C3071 H3063 0.950 . S
C3071 C3069 1.327 . S
C3072 C3060 1.349 . S
C3072 H3066 0.950 . S
C3072 C3073 1.327 . S
C3073 H3067 0.950 . S
C3073 C3072 1.327 . S
C3073 C3077 1.429 . S
C3074 C3057 1.574 . S
C3074 H3068 0.949 . S
C3074 C3078 1.368 . S
C3075 C3056 1.429 . S
C3075 C3069 1.429 . S
C3075 C3076 1.523 . S
C3076 C3057 1.368 . S
C3076 C3070 1.368 . S
C3076 C3075 1.523 . S
C3077 C3061 1.429 . S
C3077 C3073 1.429 . S
C3077 C3078 1.523 . S
C3078 C3062 1.368 . S
C3078 C3074 1.368 . S
C3078 C3077 1.523 . S
H3079 C3054 0.950 . S
H3080 C3056 0.950 . S
H3081 C3057 0.949 . S
H3082 C3059 0.950 . S
H3083 C3061 0.950 . S
C3084 C3085 1.349 . S
C3084 C3086 1.327 . S
C3084 H3109 0.950 . S
C3085 C3084 1.349 . S
C3085 C3101 1.349 . S
C3086 C3084 1.327 . S
C3086 C3105 1.429 . S
C3086 H3110 0.950 . S
C3087 C3104 1.574 . S
C3087 C3106 1.368 . S
C3087 H3111 0.949 . S
H3088 C3092 0.949 . S
C3089 C3090 1.349 . S
C3089 C3091 1.327 . S
C3089 H3112 0.950 . S
C3090 C3089 1.349 . S
C3090 C3102 1.349 . S
C3091 C3089 1.327 . S
C3091 C3107 1.429 . S
C3091 H3113 0.950 . S
C3092 H3088 0.949 . S
C3092 C3100 1.574 . S
C3092 C3108 1.368 . S
H3093 C3101 0.950 . S
H3094 C3099 0.950 . S
H3095 C3100 0.949 . S
H3096 C3102 0.950 . S
H3097 C3103 0.950 . S
H3098 C3104 0.949 . S
C3099 H3094 0.950 . S
C3099 C3101 1.327 . S
C3099 C3105 1.429 . S
C3100 C3092 1.574 . S
C3100 H3095 0.949 . S
C3100 C3106 1.368 . S
C3101 C3085 1.349 . S
C3101 H3093 0.950 . S
C3101 C3099 1.327 . S
C3102 C3090 1.349 . S
C3102 H3096 0.950 . S
C3102 C3103 1.327 . S
C3103 H3097 0.950 . S
C3103 C3102 1.327 . S
C3103 C3107 1.429 . S
C3104 C3087 1.574 . S
C3104 H3098 0.949 . S
C3104 C3108 1.368 . S
C3105 C3086 1.429 . S
C3105 C3099 1.429 . S
C3105 C3106 1.523 . S
C3106 C3087 1.368 . S
C3106 C3100 1.368 . S
C3106 C3105 1.523 . S
C3107 C3091 1.429 . S
C3107 C3103 1.429 . S
C3107 C3108 1.523 . S
C3108 C3092 1.368 . S
C3108 C3104 1.368 . S
C3108 C3107 1.523 . S
H3109 C3084 0.950 . S
H3110 C3086 0.950 . S
H3111 C3087 0.949 . S
H3112 C3089 0.950 . S
H3113 C3091 0.950 . S
C3114 C3115 1.349 . S
C3114 C3116 1.327 . S
C3114 H3139 0.950 . S
C3115 C3114 1.349 . S
C3115 C3131 1.349 . S
C3116 C3114 1.327 . S
C3116 C3135 1.429 . S
C3116 H3140 0.950 . S
C3117 C3134 1.574 . S
C3117 C3136 1.368 . S
C3117 H3141 0.949 . S
H3118 C3122 0.949 . S
C3119 C3120 1.349 . S
C3119 C3121 1.327 . S
C3119 H3142 0.950 . S
C3120 C3119 1.349 . S
C3120 C3132 1.349 . S
C3121 C3119 1.327 . S
C3121 C3137 1.429 . S
C3121 H3143 0.950 . S
C3122 H3118 0.949 . S
C3122 C3130 1.574 . S
C3122 C3138 1.368 . S
H3123 C3131 0.950 . S
H3124 C3129 0.950 . S
H3125 C3130 0.949 . S
H3126 C3132 0.950 . S
H3127 C3133 0.950 . S
H3128 C3134 0.949 . S
C3129 H3124 0.950 . S
C3129 C3131 1.327 . S
C3129 C3135 1.429 . S
C3130 C3122 1.574 . S
C3130 H3125 0.949 . S
C3130 C3136 1.368 . S
C3131 C3115 1.349 . S
C3131 H3123 0.950 . S
C3131 C3129 1.327 . S
C3132 C3120 1.349 . S
C3132 H3126 0.950 . S
C3132 C3133 1.327 . S
C3133 H3127 0.950 . S
C3133 C3132 1.327 . S
C3133 C3137 1.429 . S
C3134 C3117 1.574 . S
C3134 H3128 0.949 . S
C3134 C3138 1.368 . S
C3135 C3116 1.429 . S
C3135 C3129 1.429 . S
C3135 C3136 1.523 . S
C3136 C3117 1.368 . S
C3136 C3130 1.368 . S
C3136 C3135 1.523 . S
C3137 C3121 1.429 . S
C3137 C3133 1.429 . S
C3137 C3138 1.523 . S
C3138 C3122 1.368 . S
C3138 C3134 1.368 . S
C3138 C3137 1.523 . S
H3139 C3114 0.950 . S
H3140 C3116 0.950 . S
H3141 C3117 0.949 . S
H3142 C3119 0.950 . S
H3143 C3121 0.950 . S
C3144 C3145 1.349 . S
C3144 C3146 1.327 . S
C3144 H3169 0.950 . S
C3145 C3144 1.349 . S
C3145 C3161 1.349 . S
C3146 C3144 1.327 . S
C3146 C3165 1.429 . S
C3146 H3170 0.950 . S
C3147 C3164 1.574 . S
C3147 C3166 1.368 . S
C3147 H3171 0.949 . S
H3148 C3152 0.949 . S
C3149 C3150 1.349 . S
C3149 C3151 1.327 . S
C3149 H3172 0.950 . S
C3150 C3149 1.349 . S
C3150 C3162 1.349 . S
C3151 C3149 1.327 . S
C3151 C3167 1.429 . S
C3151 H3173 0.950 . S
C3152 H3148 0.949 . S
C3152 C3160 1.574 . S
C3152 C3168 1.368 . S
H3153 C3161 0.950 . S
H3154 C3159 0.950 . S
H3155 C3160 0.949 . S
H3156 C3162 0.950 . S
H3157 C3163 0.950 . S
H3158 C3164 0.949 . S
C3159 H3154 0.950 . S
C3159 C3161 1.327 . S
C3159 C3165 1.429 . S
C3160 C3152 1.574 . S
C3160 H3155 0.949 . S
C3160 C3166 1.368 . S
C3161 C3145 1.349 . S
C3161 H3153 0.950 . S
C3161 C3159 1.327 . S
C3162 C3150 1.349 . S
C3162 H3156 0.950 . S
C3162 C3163 1.327 . S
C3163 H3157 0.950 . S
C3163 C3162 1.327 . S
C3163 C3167 1.429 . S
C3164 C3147 1.574 . S
C3164 H3158 0.949 . S
C3164 C3168 1.368 . S
C3165 C3146 1.429 . S
C3165 C3159 1.429 . S
C3165 C3166 1.523 . S
C3166 C3147 1.368 . S
C3166 C3160 1.368 . S
C3166 C3165 1.523 . S
C3167 C3151 1.429 . S
C3167 C3163 1.429 . S
C3167 C3168 1.523 . S
C3168 C3152 1.368 . S
C3168 C3164 1.368 . S
C3168 C3167 1.523 . S
H3169 C3144 0.950 . S
H3170 C3146 0.950 . S
H3171 C3147 0.949 . S
H3172 C3149 0.950 . S
H3173 C3151 0.950 . S
C3174 C3175 1.349 . S
C3174 C3176 1.327 . S
C3174 H3199 0.950 . S
C3175 C3174 1.349 . S
C3175 C3191 1.349 . S
C3176 C3174 1.327 . S
C3176 C3195 1.429 . S
C3176 H3200 0.950 . S
C3177 C3194 1.574 . S
C3177 C3196 1.368 . S
C3177 H3201 0.949 . S
H3178 C3182 0.949 . S
C3179 C3180 1.349 . S
C3179 C3181 1.327 . S
C3179 H3202 0.950 . S
C3180 C3179 1.349 . S
C3180 C3192 1.349 . S
C3181 C3179 1.327 . S
C3181 C3197 1.429 . S
C3181 H3203 0.950 . S
C3182 H3178 0.949 . S
C3182 C3190 1.574 . S
C3182 C3198 1.368 . S
H3183 C3191 0.950 . S
H3184 C3189 0.950 . S
H3185 C3190 0.949 . S
H3186 C3192 0.950 . S
H3187 C3193 0.950 . S
H3188 C3194 0.949 . S
C3189 H3184 0.950 . S
C3189 C3191 1.327 . S
C3189 C3195 1.429 . S
C3190 C3182 1.574 . S
C3190 H3185 0.949 . S
C3190 C3196 1.368 . S
C3191 C3175 1.349 . S
C3191 H3183 0.950 . S
C3191 C3189 1.327 . S
C3192 C3180 1.349 . S
C3192 H3186 0.950 . S
C3192 C3193 1.327 . S
C3193 H3187 0.950 . S
C3193 C3192 1.327 . S
C3193 C3197 1.429 . S
C3194 C3177 1.574 . S
C3194 H3188 0.949 . S
C3194 C3198 1.368 . S
C3195 C3176 1.429 . S
C3195 C3189 1.429 . S
C3195 C3196 1.523 . S
C3196 C3177 1.368 . S
C3196 C3190 1.368 . S
C3196 C3195 1.523 . S
C3197 C3181 1.429 . S
C3197 C3193 1.429 . S
C3197 C3198 1.523 . S
C3198 C3182 1.368 . S
C3198 C3194 1.368 . S
C3198 C3197 1.523 . S
H3199 C3174 0.950 . S
H3200 C3176 0.950 . S
H3201 C3177 0.949 . S
H3202 C3179 0.950 . S
H3203 C3181 0.950 . S
C3204 C3205 1.349 . S
C3204 C3206 1.327 . S
C3204 H3229 0.950 . S
C3205 C3204 1.349 . S
C3205 C3221 1.349 . S
C3206 C3204 1.327 . S
C3206 C3225 1.429 . S
C3206 H3230 0.950 . S
C3207 C3224 1.574 . S
C3207 C3226 1.368 . S
C3207 H3231 0.949 . S
H3208 C3212 0.949 . S
C3209 C3210 1.349 . S
C3209 C3211 1.327 . S
C3209 H3232 0.950 . S
C3210 C3209 1.349 . S
C3210 C3222 1.349 . S
C3211 C3209 1.327 . S
C3211 C3227 1.429 . S
C3211 H3233 0.950 . S
C3212 H3208 0.949 . S
C3212 C3220 1.574 . S
C3212 C3228 1.368 . S
H3213 C3221 0.950 . S
H3214 C3219 0.950 . S
H3215 C3220 0.949 . S
H3216 C3222 0.950 . S
H3217 C3223 0.950 . S
H3218 C3224 0.949 . S
C3219 H3214 0.950 . S
C3219 C3221 1.327 . S
C3219 C3225 1.429 . S
C3220 C3212 1.574 . S
C3220 H3215 0.949 . S
C3220 C3226 1.368 . S
C3221 C3205 1.349 . S
C3221 H3213 0.950 . S
C3221 C3219 1.327 . S
C3222 C3210 1.349 . S
C3222 H3216 0.950 . S
C3222 C3223 1.327 . S
C3223 H3217 0.950 . S
C3223 C3222 1.327 . S
C3223 C3227 1.429 . S
C3224 C3207 1.574 . S
C3224 H3218 0.949 . S
C3224 C3228 1.368 . S
C3225 C3206 1.429 . S
C3225 C3219 1.429 . S
C3225 C3226 1.523 . S
C3226 C3207 1.368 . S
C3226 C3220 1.368 . S
C3226 C3225 1.523 . S
C3227 C3211 1.429 . S
C3227 C3223 1.429 . S
C3227 C3228 1.523 . S
C3228 C3212 1.368 . S
C3228 C3224 1.368 . S
C3228 C3227 1.523 . S
H3229 C3204 0.950 . S
H3230 C3206 0.950 . S
H3231 C3207 0.949 . S
H3232 C3209 0.950 . S
H3233 C3211 0.950 . S
C3234 C3235 1.349 . S
C3234 C3236 1.327 . S
C3234 H3259 0.950 . S
C3235 C3234 1.349 . S
C3235 C3251 1.349 . S
C3236 C3234 1.327 . S
C3236 C3255 1.429 . S
C3236 H3260 0.950 . S
C3237 C3254 1.574 . S
C3237 C3256 1.368 . S
C3237 H3261 0.949 . S
H3238 C3242 0.949 . S
C3239 C3240 1.349 . S
C3239 C3241 1.327 . S
C3239 H3262 0.950 . S
C3240 C3239 1.349 . S
C3240 C3252 1.349 . S
C3241 C3239 1.327 . S
C3241 C3257 1.429 . S
C3241 H3263 0.950 . S
C3242 H3238 0.949 . S
C3242 C3250 1.574 . S
C3242 C3258 1.368 . S
H3243 C3251 0.950 . S
H3244 C3249 0.950 . S
H3245 C3250 0.949 . S
H3246 C3252 0.950 . S
H3247 C3253 0.950 . S
H3248 C3254 0.949 . S
C3249 H3244 0.950 . S
C3249 C3251 1.327 . S
C3249 C3255 1.429 . S
C3250 C3242 1.574 . S
C3250 H3245 0.949 . S
C3250 C3256 1.368 . S
C3251 C3235 1.349 . S
C3251 H3243 0.950 . S
C3251 C3249 1.327 . S
C3252 C3240 1.349 . S
C3252 H3246 0.950 . S
C3252 C3253 1.327 . S
C3253 H3247 0.950 . S
C3253 C3252 1.327 . S
C3253 C3257 1.429 . S
C3254 C3237 1.574 . S
C3254 H3248 0.949 . S
C3254 C3258 1.368 . S
C3255 C3236 1.429 . S
C3255 C3249 1.429 . S
C3255 C3256 1.523 . S
C3256 C3237 1.368 . S
C3256 C3250 1.368 . S
C3256 C3255 1.523 . S
C3257 C3241 1.429 . S
C3257 C3253 1.429 . S
C3257 C3258 1.523 . S
C3258 C3242 1.368 . S
C3258 C3254 1.368 . S
C3258 C3257 1.523 . S
H3259 C3234 0.950 . S
H3260 C3236 0.950 . S
H3261 C3237 0.949 . S
H3262 C3239 0.950 . S
H3263 C3241 0.950 . S
C3264 C3265 1.349 . S
C3264 C3266 1.327 . S
C3264 H3289 0.950 . S
C3265 C3264 1.349 . S
C3265 C3281 1.349 . S
C3266 C3264 1.327 . S
C3266 C3285 1.429 . S
C3266 H3290 0.950 . S
C3267 C3284 1.574 . S
C3267 C3286 1.368 . S
C3267 H3291 0.949 . S
H3268 C3272 0.949 . S
C3269 C3270 1.349 . S
C3269 C3271 1.327 . S
C3269 H3292 0.950 . S
C3270 C3269 1.349 . S
C3270 C3282 1.349 . S
C3271 C3269 1.327 . S
C3271 C3287 1.429 . S
C3271 H3293 0.950 . S
C3272 H3268 0.949 . S
C3272 C3280 1.574 . S
C3272 C3288 1.368 . S
H3273 C3281 0.950 . S
H3274 C3279 0.950 . S
H3275 C3280 0.949 . S
H3276 C3282 0.950 . S
H3277 C3283 0.950 . S
H3278 C3284 0.949 . S
C3279 H3274 0.950 . S
C3279 C3281 1.327 . S
C3279 C3285 1.429 . S
C3280 C3272 1.574 . S
C3280 H3275 0.949 . S
C3280 C3286 1.368 . S
C3281 C3265 1.349 . S
C3281 H3273 0.950 . S
C3281 C3279 1.327 . S
C3282 C3270 1.349 . S
C3282 H3276 0.950 . S
C3282 C3283 1.327 . S
C3283 H3277 0.950 . S
C3283 C3282 1.327 . S
C3283 C3287 1.429 . S
C3284 C3267 1.574 . S
C3284 H3278 0.949 . S
C3284 C3288 1.368 . S
C3285 C3266 1.429 . S
C3285 C3279 1.429 . S
C3285 C3286 1.523 . S
C3286 C3267 1.368 . S
C3286 C3280 1.368 . S
C3286 C3285 1.523 . S
C3287 C3271 1.429 . S
C3287 C3283 1.429 . S
C3287 C3288 1.523 . S
C3288 C3272 1.368 . S
C3288 C3284 1.368 . S
C3288 C3287 1.523 . S
H3289 C3264 0.950 . S
H3290 C3266 0.950 . S
H3291 C3267 0.949 . S
H3292 C3269 0.950 . S
H3293 C3271 0.950 . S
C3294 C3295 1.349 . S
C3294 C3296 1.327 . S
C3294 H3319 0.950 . S
C3295 C3294 1.349 . S
C3295 C3311 1.349 . S
C3296 C3294 1.327 . S
C3296 C3315 1.429 . S
C3296 H3320 0.950 . S
C3297 C3314 1.574 . S
C3297 C3316 1.368 . S
C3297 H3321 0.949 . S
H3298 C3302 0.949 . S
C3299 C3300 1.349 . S
C3299 C3301 1.327 . S
C3299 H3322 0.950 . S
C3300 C3299 1.349 . S
C3300 C3312 1.349 . S
C3301 C3299 1.327 . S
C3301 C3317 1.429 . S
C3301 H3323 0.950 . S
C3302 H3298 0.949 . S
C3302 C3310 1.574 . S
C3302 C3318 1.368 . S
H3303 C3311 0.950 . S
H3304 C3309 0.950 . S
H3305 C3310 0.949 . S
H3306 C3312 0.950 . S
H3307 C3313 0.950 . S
H3308 C3314 0.949 . S
C3309 H3304 0.950 . S
C3309 C3311 1.327 . S
C3309 C3315 1.429 . S
C3310 C3302 1.574 . S
C3310 H3305 0.949 . S
C3310 C3316 1.368 . S
C3311 C3295 1.349 . S
C3311 H3303 0.950 . S
C3311 C3309 1.327 . S
C3312 C3300 1.349 . S
C3312 H3306 0.950 . S
C3312 C3313 1.327 . S
C3313 H3307 0.950 . S
C3313 C3312 1.327 . S
C3313 C3317 1.429 . S
C3314 C3297 1.574 . S
C3314 H3308 0.949 . S
C3314 C3318 1.368 . S
C3315 C3296 1.429 . S
C3315 C3309 1.429 . S
C3315 C3316 1.523 . S
C3316 C3297 1.368 . S
C3316 C3310 1.368 . S
C3316 C3315 1.523 . S
C3317 C3301 1.429 . S
C3317 C3313 1.429 . S
C3317 C3318 1.523 . S
C3318 C3302 1.368 . S
C3318 C3314 1.368 . S
C3318 C3317 1.523 . S
H3319 C3294 0.950 . S
H3320 C3296 0.950 . S
H3321 C3297 0.949 . S
H3322 C3299 0.950 . S
H3323 C3301 0.950 . S
C3324 C3325 1.349 . S
C3324 C3326 1.327 . S
C3324 H3349 0.950 . S
C3325 C3324 1.349 . S
C3325 C3341 1.349 . S
C3326 C3324 1.327 . S
C3326 C3345 1.429 . S
C3326 H3350 0.950 . S
C3327 C3344 1.574 . S
C3327 C3346 1.368 . S
C3327 H3351 0.949 . S
H3328 C3332 0.949 . S
C3329 C3330 1.349 . S
C3329 C3331 1.327 . S
C3329 H3352 0.950 . S
C3330 C3329 1.349 . S
C3330 C3342 1.349 . S
C3331 C3329 1.327 . S
C3331 C3347 1.429 . S
C3331 H3353 0.950 . S
C3332 H3328 0.949 . S
C3332 C3340 1.574 . S
C3332 C3348 1.368 . S
H3333 C3341 0.950 . S
H3334 C3339 0.950 . S
H3335 C3340 0.949 . S
H3336 C3342 0.950 . S
H3337 C3343 0.950 . S
H3338 C3344 0.949 . S
C3339 H3334 0.950 . S
C3339 C3341 1.327 . S
C3339 C3345 1.429 . S
C3340 C3332 1.574 . S
C3340 H3335 0.949 . S
C3340 C3346 1.368 . S
C3341 C3325 1.349 . S
C3341 H3333 0.950 . S
C3341 C3339 1.327 . S
C3342 C3330 1.349 . S
C3342 H3336 0.950 . S
C3342 C3343 1.327 . S
C3343 H3337 0.950 . S
C3343 C3342 1.327 . S
C3343 C3347 1.429 . S
C3344 C3327 1.574 . S
C3344 H3338 0.949 . S
C3344 C3348 1.368 . S
C3345 C3326 1.429 . S
C3345 C3339 1.429 . S
C3345 C3346 1.523 . S
C3346 C3327 1.368 . S
C3346 C3340 1.368 . S
C3346 C3345 1.523 . S
C3347 C3331 1.429 . S
C3347 C3343 1.429 . S
C3347 C3348 1.523 . S
C3348 C3332 1.368 . S
C3348 C3344 1.368 . S
C3348 C3347 1.523 . S
H3349 C3324 0.950 . S
H3350 C3326 0.950 . S
H3351 C3327 0.949 . S
H3352 C3329 0.950 . S
H3353 C3331 0.950 . S
C3354 C3355 1.349 . S
C3354 C3356 1.327 . S
C3354 H3379 0.950 . S
C3355 C3354 1.349 . S
C3355 C3371 1.349 . S
C3356 C3354 1.327 . S
C3356 C3375 1.429 . S
C3356 H3380 0.950 . S
C3357 C3374 1.574 . S
C3357 C3376 1.368 . S
C3357 H3381 0.949 . S
H3358 C3362 0.949 . S
C3359 C3360 1.349 . S
C3359 C3361 1.327 . S
C3359 H3382 0.950 . S
C3360 C3359 1.349 . S
C3360 C3372 1.349 . S
C3361 C3359 1.327 . S
C3361 C3377 1.429 . S
C3361 H3383 0.950 . S
C3362 H3358 0.949 . S
C3362 C3370 1.574 . S
C3362 C3378 1.368 . S
H3363 C3371 0.950 . S
H3364 C3369 0.950 . S
H3365 C3370 0.949 . S
H3366 C3372 0.950 . S
H3367 C3373 0.950 . S
H3368 C3374 0.949 . S
C3369 H3364 0.950 . S
C3369 C3371 1.327 . S
C3369 C3375 1.429 . S
C3370 C3362 1.574 . S
C3370 H3365 0.949 . S
C3370 C3376 1.368 . S
C3371 C3355 1.349 . S
C3371 H3363 0.950 . S
C3371 C3369 1.327 . S
C3372 C3360 1.349 . S
C3372 H3366 0.950 . S
C3372 C3373 1.327 . S
C3373 H3367 0.950 . S
C3373 C3372 1.327 . S
C3373 C3377 1.429 . S
C3374 C3357 1.574 . S
C3374 H3368 0.949 . S
C3374 C3378 1.368 . S
C3375 C3356 1.429 . S
C3375 C3369 1.429 . S
C3375 C3376 1.523 . S
C3376 C3357 1.368 . S
C3376 C3370 1.368 . S
C3376 C3375 1.523 . S
C3377 C3361 1.429 . S
C3377 C3373 1.429 . S
C3377 C3378 1.523 . S
C3378 C3362 1.368 . S
C3378 C3374 1.368 . S
C3378 C3377 1.523 . S
H3379 C3354 0.950 . S
H3380 C3356 0.950 . S
H3381 C3357 0.949 . S
H3382 C3359 0.950 . S
H3383 C3361 0.950 . S
C3384 C3385 1.349 . S
C3384 C3386 1.327 . S
C3384 H3409 0.950 . S
C3385 C3384 1.349 . S
C3385 C3401 1.349 . S
C3386 C3384 1.327 . S
C3386 C3405 1.429 . S
C3386 H3410 0.950 . S
C3387 C3404 1.574 . S
C3387 C3406 1.368 . S
C3387 H3411 0.949 . S
H3388 C3392 0.949 . S
C3389 C3390 1.349 . S
C3389 C3391 1.327 . S
C3389 H3412 0.950 . S
C3390 C3389 1.349 . S
C3390 C3402 1.349 . S
C3391 C3389 1.327 . S
C3391 C3407 1.429 . S
C3391 H3413 0.950 . S
C3392 H3388 0.949 . S
C3392 C3400 1.574 . S
C3392 C3408 1.368 . S
H3393 C3401 0.950 . S
H3394 C3399 0.950 . S
H3395 C3400 0.949 . S
H3396 C3402 0.950 . S
H3397 C3403 0.950 . S
H3398 C3404 0.949 . S
C3399 H3394 0.950 . S
C3399 C3401 1.327 . S
C3399 C3405 1.429 . S
C3400 C3392 1.574 . S
C3400 H3395 0.949 . S
C3400 C3406 1.368 . S
C3401 C3385 1.349 . S
C3401 H3393 0.950 . S
C3401 C3399 1.327 . S
C3402 C3390 1.349 . S
C3402 H3396 0.950 . S
C3402 C3403 1.327 . S
C3403 H3397 0.950 . S
C3403 C3402 1.327 . S
C3403 C3407 1.429 . S
C3404 C3387 1.574 . S
C3404 H3398 0.949 . S
C3404 C3408 1.368 . S
C3405 C3386 1.429 . S
C3405 C3399 1.429 . S
C3405 C3406 1.523 . S
C3406 C3387 1.368 . S
C3406 C3400 1.368 . S
C3406 C3405 1.523 . S
C3407 C3391 1.429 . S
C3407 C3403 1.429 . S
C3407 C3408 1.523 . S
C3408 C3392 1.368 . S
C3408 C3404 1.368 . S
C3408 C3407 1.523 . S
H3409 C3384 0.950 . S
H3410 C3386 0.950 . S
H3411 C3387 0.949 . S
H3412 C3389 0.950 . S
H3413 C3391 0.950 . S
C3414 C3415 1.349 . S
C3414 C3416 1.327 . S
C3414 H3439 0.950 . S
C3415 C3414 1.349 . S
C3415 C3431 1.349 . S
C3416 C3414 1.327 . S
C3416 C3435 1.429 . S
C3416 H3440 0.950 . S
C3417 C3434 1.574 . S
C3417 C3436 1.368 . S
C3417 H3441 0.949 . S
H3418 C3422 0.949 . S
C3419 C3420 1.349 . S
C3419 C3421 1.327 . S
C3419 H3442 0.950 . S
C3420 C3419 1.349 . S
C3420 C3432 1.349 . S
C3421 C3419 1.327 . S
C3421 C3437 1.429 . S
C3421 H3443 0.950 . S
C3422 H3418 0.949 . S
C3422 C3430 1.574 . S
C3422 C3438 1.368 . S
H3423 C3431 0.950 . S
H3424 C3429 0.950 . S
H3425 C3430 0.949 . S
H3426 C3432 0.950 . S
H3427 C3433 0.950 . S
H3428 C3434 0.949 . S
C3429 H3424 0.950 . S
C3429 C3431 1.327 . S
C3429 C3435 1.429 . S
C3430 C3422 1.574 . S
C3430 H3425 0.949 . S
C3430 C3436 1.368 . S
C3431 C3415 1.349 . S
C3431 H3423 0.950 . S
C3431 C3429 1.327 . S
C3432 C3420 1.349 . S
C3432 H3426 0.950 . S
C3432 C3433 1.327 . S
C3433 H3427 0.950 . S
C3433 C3432 1.327 . S
C3433 C3437 1.429 . S
C3434 C3417 1.574 . S
C3434 H3428 0.949 . S
C3434 C3438 1.368 . S
C3435 C3416 1.429 . S
C3435 C3429 1.429 . S
C3435 C3436 1.523 . S
C3436 C3417 1.368 . S
C3436 C3430 1.368 . S
C3436 C3435 1.523 . S
C3437 C3421 1.429 . S
C3437 C3433 1.429 . S
C3437 C3438 1.523 . S
C3438 C3422 1.368 . S
C3438 C3434 1.368 . S
C3438 C3437 1.523 . S
H3439 C3414 0.950 . S
H3440 C3416 0.950 . S
H3441 C3417 0.949 . S
H3442 C3419 0.950 . S
H3443 C3421 0.950 . S
C3444 C3445 1.349 . S
C3444 C3446 1.327 . S
C3444 H3469 0.950 . S
C3445 C3444 1.349 . S
C3445 C3461 1.349 . S
C3446 C3444 1.327 . S
C3446 C3465 1.429 . S
C3446 H3470 0.950 . S
C3447 C3464 1.574 . S
C3447 C3466 1.368 . S
C3447 H3471 0.949 . S
H3448 C3452 0.949 . S
C3449 C3450 1.349 . S
C3449 C3451 1.327 . S
C3449 H3472 0.950 . S
C3450 C3449 1.349 . S
C3450 C3462 1.349 . S
C3451 C3449 1.327 . S
C3451 C3467 1.429 . S
C3451 H3473 0.950 . S
C3452 H3448 0.949 . S
C3452 C3460 1.574 . S
C3452 C3468 1.368 . S
H3453 C3461 0.950 . S
H3454 C3459 0.950 . S
H3455 C3460 0.949 . S
H3456 C3462 0.950 . S
H3457 C3463 0.950 . S
H3458 C3464 0.949 . S
C3459 H3454 0.950 . S
C3459 C3461 1.327 . S
C3459 C3465 1.429 . S
C3460 C3452 1.574 . S
C3460 H3455 0.949 . S
C3460 C3466 1.368 . S
C3461 C3445 1.349 . S
C3461 H3453 0.950 . S
C3461 C3459 1.327 . S
C3462 C3450 1.349 . S
C3462 H3456 0.950 . S
C3462 C3463 1.327 . S
C3463 H3457 0.950 . S
C3463 C3462 1.327 . S
C3463 C3467 1.429 . S
C3464 C3447 1.574 . S
C3464 H3458 0.949 . S
C3464 C3468 1.368 . S
C3465 C3446 1.429 . S
C3465 C3459 1.429 . S
C3465 C3466 1.523 . S
C3466 C3447 1.368 . S
C3466 C3460 1.368 . S
C3466 C3465 1.523 . S
C3467 C3451 1.429 . S
C3467 C3463 1.429 . S
C3467 C3468 1.523 . S
C3468 C3452 1.368 . S
C3468 C3464 1.368 . S
C3468 C3467 1.523 . S
H3469 C3444 0.950 . S
H3470 C3446 0.950 . S
H3471 C3447 0.949 . S
H3472 C3449 0.950 . S
H3473 C3451 0.950 . S
C3474 C3475 1.349 . S
C3474 C3476 1.327 . S
C3474 H3499 0.950 . S
C3475 C3474 1.349 . S
C3475 C3491 1.349 . S
C3476 C3474 1.327 . S
C3476 C3495 1.429 . S
C3476 H3500 0.950 . S
C3477 C3494 1.574 . S
C3477 C3496 1.368 . S
C3477 H3501 0.949 . S
H3478 C3482 0.949 . S
C3479 C3480 1.349 . S
C3479 C3481 1.327 . S
C3479 H3502 0.950 . S
C3480 C3479 1.349 . S
C3480 C3492 1.349 . S
C3481 C3479 1.327 . S
C3481 C3497 1.429 . S
C3481 H3503 0.950 . S
C3482 H3478 0.949 . S
C3482 C3490 1.574 . S
C3482 C3498 1.368 . S
H3483 C3491 0.950 1_554 S
H3484 C3489 0.950 . S
H3485 C3490 0.949 . S
H3486 C3492 0.950 . S
H3487 C3493 0.950 . S
H3488 C3494 0.949 . S
C3489 H3484 0.950 . S
C3489 C3491 1.327 . S
C3489 C3495 1.429 . S
C3490 C3482 1.574 . S
C3490 H3485 0.949 . S
C3490 C3496 1.368 . S
C3491 C3475 1.349 . S
C3491 H3483 0.950 1_556 S
C3491 C3489 1.327 . S
C3492 C3480 1.349 . S
C3492 H3486 0.950 . S
C3492 C3493 1.327 . S
C3493 H3487 0.950 . S
C3493 C3492 1.327 . S
C3493 C3497 1.429 . S
C3494 C3477 1.574 . S
C3494 H3488 0.949 . S
C3494 C3498 1.368 . S
C3495 C3476 1.429 . S
C3495 C3489 1.429 . S
C3495 C3496 1.523 . S
C3496 C3477 1.368 . S
C3496 C3490 1.368 . S
C3496 C3495 1.523 . S
C3497 C3481 1.429 . S
C3497 C3493 1.429 . S
C3497 C3498 1.523 . S
C3498 C3482 1.368 . S
C3498 C3494 1.368 . S
C3498 C3497 1.523 . S
H3499 C3474 0.950 . S
H3500 C3476 0.950 . S
H3501 C3477 0.949 . S
H3502 C3479 0.950 . S
H3503 C3481 0.950 . S
C3504 C3505 1.349 . S
C3504 C3506 1.327 . S
C3504 H3529 0.950 . S
C3505 C3504 1.349 . S
C3505 C3521 1.349 . S
C3506 C3504 1.327 . S
C3506 C3525 1.429 . S
C3506 H3530 0.950 . S
C3507 C3524 1.574 . S
C3507 C3526 1.368 . S
C3507 H3531 0.949 . S
H3508 C3512 0.949 . S
C3509 C3510 1.349 . S
C3509 C3511 1.327 . S
C3509 H3532 0.950 . S
C3510 C3509 1.349 . S
C3510 C3522 1.349 . S
C3511 C3509 1.327 . S
C3511 C3527 1.429 . S
C3511 H3533 0.950 . S
C3512 H3508 0.949 . S
C3512 C3520 1.574 . S
C3512 C3528 1.368 . S
H3513 C3521 0.950 . S
H3514 C3519 0.950 . S
H3515 C3520 0.949 . S
H3516 C3522 0.950 . S
H3517 C3523 0.950 . S
H3518 C3524 0.949 . S
C3519 H3514 0.950 . S
C3519 C3521 1.327 . S
C3519 C3525 1.429 . S
C3520 C3512 1.574 . S
C3520 H3515 0.949 . S
C3520 C3526 1.368 . S
C3521 C3505 1.349 . S
C3521 H3513 0.950 . S
C3521 C3519 1.327 . S
C3522 C3510 1.349 . S
C3522 H3516 0.950 . S
C3522 C3523 1.327 . S
C3523 H3517 0.950 . S
C3523 C3522 1.327 . S
C3523 C3527 1.429 . S
C3524 C3507 1.574 . S
C3524 H3518 0.949 . S
C3524 C3528 1.368 . S
C3525 C3506 1.429 . S
C3525 C3519 1.429 . S
C3525 C3526 1.523 . S
C3526 C3507 1.368 . S
C3526 C3520 1.368 . S
C3526 C3525 1.523 . S
C3527 C3511 1.429 . S
C3527 C3523 1.429 . S
C3527 C3528 1.523 . S
C3528 C3512 1.368 . S
C3528 C3524 1.368 . S
C3528 C3527 1.523 . S
H3529 C3504 0.950 . S
H3530 C3506 0.950 . S
H3531 C3507 0.949 . S
H3532 C3509 0.950 . S
H3533 C3511 0.950 . S
C3534 C3535 1.349 . S
C3534 C3536 1.327 . S
C3534 H3559 0.950 . S
C3535 C3534 1.349 . S
C3535 C3551 1.349 . S
C3536 C3534 1.327 . S
C3536 C3555 1.429 . S
C3536 H3560 0.950 . S
C3537 C3554 1.574 . S
C3537 C3556 1.368 . S
C3537 H3561 0.949 . S
H3538 C3542 0.949 . S
C3539 C3540 1.349 . S
C3539 C3541 1.327 . S
C3539 H3562 0.950 . S
C3540 C3539 1.349 . S
C3540 C3552 1.349 . S
C3541 C3539 1.327 . S
C3541 C3557 1.429 . S
C3541 H3563 0.950 . S
C3542 H3538 0.949 . S
C3542 C3550 1.574 . S
C3542 C3558 1.368 . S
H3543 C3551 0.950 1_554 S
H3544 C3549 0.950 . S
H3545 C3550 0.949 . S
H3546 C3552 0.950 . S
H3547 C3553 0.950 . S
H3548 C3554 0.949 . S
C3549 H3544 0.950 . S
C3549 C3551 1.327 . S
C3549 C3555 1.429 . S
C3550 C3542 1.574 . S
C3550 H3545 0.949 . S
C3550 C3556 1.368 . S
C3551 C3535 1.349 . S
C3551 H3543 0.950 1_556 S
C3551 C3549 1.327 . S
C3552 C3540 1.349 . S
C3552 H3546 0.950 . S
C3552 C3553 1.327 . S
C3553 H3547 0.950 . S
C3553 C3552 1.327 . S
C3553 C3557 1.429 . S
C3554 C3537 1.574 . S
C3554 H3548 0.949 . S
C3554 C3558 1.368 . S
C3555 C3536 1.429 . S
C3555 C3549 1.429 . S
C3555 C3556 1.523 . S
C3556 C3537 1.368 . S
C3556 C3550 1.368 . S
C3556 C3555 1.523 . S
C3557 C3541 1.429 . S
C3557 C3553 1.429 . S
C3557 C3558 1.523 . S
C3558 C3542 1.368 . S
C3558 C3554 1.368 . S
C3558 C3557 1.523 . S
H3559 C3534 0.950 . S
H3560 C3536 0.950 . S
H3561 C3537 0.949 . S
H3562 C3539 0.950 . S
H3563 C3541 0.950 . S
C3564 C3565 1.349 . S
C3564 C3566 1.327 . S
C3564 H3589 0.950 . S
C3565 C3564 1.349 . S
C3565 C3581 1.349 . S
C3566 C3564 1.327 . S
C3566 C3585 1.429 . S
C3566 H3590 0.950 . S
C3567 C3584 1.574 . S
C3567 C3586 1.368 . S
C3567 H3591 0.949 . S
H3568 C3572 0.949 . S
C3569 C3570 1.349 . S
C3569 C3571 1.327 . S
C3569 H3592 0.950 . S
C3570 C3569 1.349 . S
C3570 C3582 1.349 . S
C3571 C3569 1.327 . S
C3571 C3587 1.429 . S
C3571 H3593 0.950 . S
C3572 H3568 0.949 . S
C3572 C3580 1.574 . S
C3572 C3588 1.368 . S
H3573 C3581 0.947 1_554 S
H3574 C3579 0.950 . S
H3575 C3580 0.949 . S
H3576 C3582 0.950 . S
H3577 C3583 0.950 . S
H3578 C3584 0.949 . S
C3579 H3574 0.950 . S
C3579 C3581 1.327 . S
C3579 C3585 1.429 . S
C3580 C3572 1.574 . S
C3580 H3575 0.949 . S
C3580 C3586 1.368 . S
C3581 C3565 1.349 . S
C3581 H3573 0.947 1_556 S
C3581 C3579 1.327 . S
C3582 C3570 1.349 . S
C3582 H3576 0.950 . S
C3582 C3583 1.327 . S
C3583 H3577 0.950 . S
C3583 C3582 1.327 . S
C3583 C3587 1.429 . S
C3584 C3567 1.574 . S
C3584 H3578 0.949 . S
C3584 C3588 1.368 . S
C3585 C3566 1.429 . S
C3585 C3579 1.429 . S
C3585 C3586 1.523 . S
C3586 C3567 1.368 . S
C3586 C3580 1.368 . S
C3586 C3585 1.523 . S
C3587 C3571 1.429 . S
C3587 C3583 1.429 . S
C3587 C3588 1.523 . S
C3588 C3572 1.368 . S
C3588 C3584 1.368 . S
C3588 C3587 1.523 . S
H3589 C3564 0.950 . S
H3590 C3566 0.950 . S
H3591 C3567 0.949 . S
H3592 C3569 0.950 . S
H3593 C3571 0.950 . S
C3594 C3595 1.349 . S
C3594 C3596 1.327 . S
C3594 H3619 0.950 . S
C3595 C3594 1.349 . S
C3595 C3611 1.349 . S
C3596 C3594 1.327 . S
C3596 C3615 1.429 . S
C3596 H3620 0.950 . S
C3597 C3614 1.574 . S
C3597 C3616 1.368 . S
C3597 H3621 0.949 . S
H3598 C3602 0.949 . S
C3599 C3600 1.349 . S
C3599 C3601 1.327 . S
C3599 H3622 0.950 . S
C3600 C3599 1.349 . S
C3600 C3612 1.349 . S
C3601 C3599 1.327 . S
C3601 C3617 1.429 . S
C3601 H3623 0.950 . S
C3602 H3598 0.949 . S
C3602 C3610 1.574 . S
C3602 C3618 1.368 . S
H3603 C3611 0.950 . S
H3604 C3609 0.950 . S
H3605 C3610 0.949 . S
H3606 C3612 0.950 . S
H3607 C3613 0.950 . S
H3608 C3614 0.949 . S
C3609 H3604 0.950 . S
C3609 C3611 1.327 . S
C3609 C3615 1.429 . S
C3610 C3602 1.574 . S
C3610 H3605 0.949 . S
C3610 C3616 1.368 . S
C3611 C3595 1.349 . S
C3611 H3603 0.950 . S
C3611 C3609 1.327 . S
C3612 C3600 1.349 . S
C3612 H3606 0.950 . S
C3612 C3613 1.327 . S
C3613 H3607 0.950 . S
C3613 C3612 1.327 . S
C3613 C3617 1.429 . S
C3614 C3597 1.574 . S
C3614 H3608 0.949 . S
C3614 C3618 1.368 . S
C3615 C3596 1.429 . S
C3615 C3609 1.429 . S
C3615 C3616 1.523 . S
C3616 C3597 1.368 . S
C3616 C3610 1.368 . S
C3616 C3615 1.523 . S
C3617 C3601 1.429 . S
C3617 C3613 1.429 . S
C3617 C3618 1.523 . S
C3618 C3602 1.368 . S
C3618 C3614 1.368 . S
C3618 C3617 1.523 . S
H3619 C3594 0.950 . S
H3620 C3596 0.950 . S
H3621 C3597 0.949 . S
H3622 C3599 0.950 . S
H3623 C3601 0.950 . S
C3624 C3625 1.349 . S
C3624 C3626 1.327 . S
C3624 H3649 0.950 1_556 S
C3625 C3624 1.349 . S
C3625 C3641 1.349 . S
C3626 C3624 1.327 . S
C3626 C3645 1.429 . S
C3626 H3650 0.950 . S
C3627 C3644 1.574 . S
C3627 C3646 1.368 . S
C3627 H3651 0.949 . S
H3628 C3632 0.949 . S
C3629 C3630 1.349 . S
C3629 C3631 1.327 . S
C3629 H3652 0.950 . S
C3630 C3629 1.349 . S
C3630 C3642 1.349 . S
C3631 C3629 1.327 . S
C3631 C3647 1.429 . S
C3631 H3653 0.950 . S
C3632 H3628 0.949 . S
C3632 C3640 1.574 . S
C3632 C3648 1.368 . S
H3633 C3641 0.950 . S
H3634 C3639 0.950 . S
H3635 C3640 0.949 . S
H3636 C3642 0.950 . S
H3637 C3643 0.950 . S
H3638 C3644 0.949 . S
C3639 H3634 0.950 . S
C3639 C3641 1.327 . S
C3639 C3645 1.429 . S
C3640 C3632 1.574 . S
C3640 H3635 0.949 . S
C3640 C3646 1.368 . S
C3641 C3625 1.349 . S
C3641 H3633 0.950 . S
C3641 C3639 1.327 . S
C3642 C3630 1.349 . S
C3642 H3636 0.950 . S
C3642 C3643 1.327 . S
C3643 H3637 0.950 . S
C3643 C3642 1.327 . S
C3643 C3647 1.429 . S
C3644 C3627 1.574 . S
C3644 H3638 0.949 . S
C3644 C3648 1.368 . S
C3645 C3626 1.429 . S
C3645 C3639 1.429 . S
C3645 C3646 1.523 . S
C3646 C3627 1.368 . S
C3646 C3640 1.368 . S
C3646 C3645 1.523 . S
C3647 C3631 1.429 . S
C3647 C3643 1.429 . S
C3647 C3648 1.523 . S
C3648 C3632 1.368 . S
C3648 C3644 1.368 . S
C3648 C3647 1.523 . S
H3649 C3624 0.950 1_554 S
H3650 C3626 0.950 . S
H3651 C3627 0.949 . S
H3652 C3629 0.950 . S
H3653 C3631 0.950 . S
C3654 C3655 1.349 . S
C3654 C3656 1.327 . S
C3654 H3679 0.950 . S
C3655 C3654 1.349 . S
C3655 C3671 1.349 . S
C3656 C3654 1.327 . S
C3656 C3675 1.429 . S
C3656 H3680 0.950 . S
C3657 C3674 1.574 . S
C3657 C3676 1.368 . S
C3657 H3681 0.949 . S
H3658 C3662 0.949 . S
C3659 C3660 1.349 . S
C3659 C3661 1.327 . S
C3659 H3682 0.950 . S
C3660 C3659 1.349 . S
C3660 C3672 1.349 . S
C3661 C3659 1.327 . S
C3661 C3677 1.429 . S
C3661 H3683 0.950 . S
C3662 H3658 0.949 . S
C3662 C3670 1.574 . S
C3662 C3678 1.368 . S
H3663 C3671 0.950 . S
H3664 C3669 0.950 . S
H3665 C3670 0.949 . S
H3666 C3672 0.950 . S
H3667 C3673 0.950 . S
H3668 C3674 0.949 . S
C3669 H3664 0.950 . S
C3669 C3671 1.327 . S
C3669 C3675 1.429 . S
C3670 C3662 1.574 . S
C3670 H3665 0.949 . S
C3670 C3676 1.368 . S
C3671 C3655 1.349 . S
C3671 H3663 0.950 . S
C3671 C3669 1.327 . S
C3672 C3660 1.349 . S
C3672 H3666 0.950 . S
C3672 C3673 1.327 . S
C3673 H3667 0.950 . S
C3673 C3672 1.327 . S
C3673 C3677 1.429 . S
C3674 C3657 1.574 . S
C3674 H3668 0.949 . S
C3674 C3678 1.368 . S
C3675 C3656 1.429 . S
C3675 C3669 1.429 . S
C3675 C3676 1.523 . S
C3676 C3657 1.368 . S
C3676 C3670 1.368 . S
C3676 C3675 1.523 . S
C3677 C3661 1.429 . S
C3677 C3673 1.429 . S
C3677 C3678 1.523 . S
C3678 C3662 1.368 . S
C3678 C3674 1.368 . S
C3678 C3677 1.523 . S
H3679 C3654 0.950 . S
H3680 C3656 0.950 . S
H3681 C3657 0.949 . S
H3682 C3659 0.950 . S
H3683 C3661 0.950 . S
C3684 C3685 1.349 . S
C3684 C3686 1.327 . S
C3684 H3709 0.950 . S
C3685 C3684 1.349 . S
C3685 C3701 1.349 . S
C3686 C3684 1.327 . S
C3686 C3705 1.429 . S
C3686 H3710 0.950 . S
C3687 C3704 1.574 . S
C3687 C3706 1.368 . S
C3687 H3711 0.949 . S
H3688 C3692 0.949 . S
C3689 C3690 1.349 . S
C3689 C3691 1.327 . S
C3689 H3712 0.950 . S
C3690 C3689 1.349 . S
C3690 C3702 1.349 . S
C3691 C3689 1.327 . S
C3691 C3707 1.429 . S
C3691 H3713 0.950 . S
C3692 H3688 0.949 . S
C3692 C3700 1.574 . S
C3692 C3708 1.368 . S
H3693 C3701 0.950 . S
H3694 C3699 0.950 . S
H3695 C3700 0.949 . S
H3696 C3702 0.950 . S
H3697 C3703 0.950 . S
H3698 C3704 0.949 . S
C3699 H3694 0.950 . S
C3699 C3701 1.327 . S
C3699 C3705 1.429 . S
C3700 C3692 1.574 . S
C3700 H3695 0.949 . S
C3700 C3706 1.368 . S
C3701 C3685 1.349 . S
C3701 H3693 0.950 . S
C3701 C3699 1.327 . S
C3702 C3690 1.349 . S
C3702 H3696 0.950 . S
C3702 C3703 1.327 . S
C3703 H3697 0.950 . S
C3703 C3702 1.327 . S
C3703 C3707 1.429 . S
C3704 C3687 1.574 . S
C3704 H3698 0.949 . S
C3704 C3708 1.368 . S
C3705 C3686 1.429 . S
C3705 C3699 1.429 . S
C3705 C3706 1.523 . S
C3706 C3687 1.368 . S
C3706 C3700 1.368 . S
C3706 C3705 1.523 . S
C3707 C3691 1.429 . S
C3707 C3703 1.429 . S
C3707 C3708 1.523 . S
C3708 C3692 1.368 . S
C3708 C3704 1.368 . S
C3708 C3707 1.523 . S
H3709 C3684 0.950 . S
H3710 C3686 0.950 . S
H3711 C3687 0.949 . S
H3712 C3689 0.950 . S
H3713 C3691 0.950 . S
C3714 C3715 1.349 . S
C3714 C3716 1.327 . S
C3714 H3739 0.950 . S
C3715 C3714 1.349 . S
C3715 C3731 1.349 . S
C3716 C3714 1.327 . S
C3716 C3735 1.429 . S
C3716 H3740 0.950 . S
C3717 C3734 1.574 . S
C3717 C3736 1.368 . S
C3717 H3741 0.949 . S
H3718 C3722 0.949 . S
C3719 C3720 1.349 . S
C3719 C3721 1.327 . S
C3719 H3742 0.950 . S
C3720 C3719 1.349 . S
C3720 C3732 1.349 . S
C3721 C3719 1.327 . S
C3721 C3737 1.429 . S
C3721 H3743 0.950 . S
C3722 H3718 0.949 . S
C3722 C3730 1.574 . S
C3722 C3738 1.368 . S
H3723 C3731 0.950 . S
H3724 C3729 0.950 . S
H3725 C3730 0.949 . S
H3726 C3732 0.950 . S
H3727 C3733 0.950 . S
H3728 C3734 0.949 . S
C3729 H3724 0.950 . S
C3729 C3731 1.327 . S
C3729 C3735 1.429 . S
C3730 C3722 1.574 . S
C3730 H3725 0.949 . S
C3730 C3736 1.368 . S
C3731 C3715 1.349 . S
C3731 H3723 0.950 . S
C3731 C3729 1.327 . S
C3732 C3720 1.349 . S
C3732 H3726 0.950 . S
C3732 C3733 1.327 . S
C3733 H3727 0.950 . S
C3733 C3732 1.327 . S
C3733 C3737 1.429 . S
C3734 C3717 1.574 . S
C3734 H3728 0.949 . S
C3734 C3738 1.368 . S
C3735 C3716 1.429 . S
C3735 C3729 1.429 . S
C3735 C3736 1.523 . S
C3736 C3717 1.368 . S
C3736 C3730 1.368 . S
C3736 C3735 1.523 . S
C3737 C3721 1.429 . S
C3737 C3733 1.429 . S
C3737 C3738 1.523 . S
C3738 C3722 1.368 . S
C3738 C3734 1.368 . S
C3738 C3737 1.523 . S
H3739 C3714 0.950 . S
H3740 C3716 0.950 . S
H3741 C3717 0.949 . S
H3742 C3719 0.950 . S
H3743 C3721 0.950 . S
C3744 C3745 1.349 . S
C3744 C3746 1.327 . S
C3744 H3769 0.950 . S
C3745 C3744 1.349 . S
C3745 C3761 1.349 . S
C3746 C3744 1.327 . S
C3746 C3765 1.429 . S
C3746 H3770 0.950 . S
C3747 C3764 1.574 . S
C3747 C3766 1.368 . S
C3747 H3771 0.949 . S
H3748 C3752 0.949 . S
C3749 C3750 1.349 . S
C3749 C3751 1.327 . S
C3749 H3772 0.950 . S
C3750 C3749 1.349 . S
C3750 C3762 1.349 . S
C3751 C3749 1.327 . S
C3751 C3767 1.429 . S
C3751 H3773 0.950 . S
C3752 H3748 0.949 . S
C3752 C3760 1.574 . S
C3752 C3768 1.368 . S
H3753 C3761 0.950 . S
H3754 C3759 0.950 . S
H3755 C3760 0.949 . S
H3756 C3762 0.950 . S
H3757 C3763 0.950 . S
H3758 C3764 0.949 . S
C3759 H3754 0.950 . S
C3759 C3761 1.327 . S
C3759 C3765 1.429 . S
C3760 C3752 1.574 . S
C3760 H3755 0.949 . S
C3760 C3766 1.368 . S
C3761 C3745 1.349 . S
C3761 H3753 0.950 . S
C3761 C3759 1.327 . S
C3762 C3750 1.349 . S
C3762 H3756 0.950 . S
C3762 C3763 1.327 . S
C3763 H3757 0.950 . S
C3763 C3762 1.327 . S
C3763 C3767 1.429 . S
C3764 C3747 1.574 . S
C3764 H3758 0.949 . S
C3764 C3768 1.368 . S
C3765 C3746 1.429 . S
C3765 C3759 1.429 . S
C3765 C3766 1.523 . S
C3766 C3747 1.368 . S
C3766 C3760 1.368 . S
C3766 C3765 1.523 . S
C3767 C3751 1.429 . S
C3767 C3763 1.429 . S
C3767 C3768 1.523 . S
C3768 C3752 1.368 . S
C3768 C3764 1.368 . S
C3768 C3767 1.523 . S
H3769 C3744 0.950 . S
H3770 C3746 0.950 . S
H3771 C3747 0.949 . S
H3772 C3749 0.950 . S
H3773 C3751 0.950 . S
C3774 C3775 1.349 . S
C3774 C3776 1.327 . S
C3774 H3799 0.950 . S
C3775 C3774 1.349 . S
C3775 C3791 1.349 . S
C3776 C3774 1.327 . S
C3776 C3795 1.429 . S
C3776 H3800 0.950 . S
C3777 C3794 1.574 . S
C3777 C3796 1.368 . S
C3777 H3801 0.949 . S
H3778 C3782 0.949 . S
C3779 C3780 1.349 . S
C3779 C3781 1.327 . S
C3779 H3802 0.950 . S
C3780 C3779 1.349 . S
C3780 C3792 1.349 . S
C3781 C3779 1.327 . S
C3781 C3797 1.429 . S
C3781 H3803 0.950 . S
C3782 H3778 0.949 . S
C3782 C3790 1.574 . S
C3782 C3798 1.368 . S
H3783 C3791 0.950 . S
H3784 C3789 0.950 . S
H3785 C3790 0.949 . S
H3786 C3792 0.950 . S
H3787 C3793 0.950 . S
H3788 C3794 0.949 . S
C3789 H3784 0.950 . S
C3789 C3791 1.327 . S
C3789 C3795 1.429 . S
C3790 C3782 1.574 . S
C3790 H3785 0.949 . S
C3790 C3796 1.368 . S
C3791 C3775 1.349 . S
C3791 H3783 0.950 . S
C3791 C3789 1.327 . S
C3792 C3780 1.349 . S
C3792 H3786 0.950 . S
C3792 C3793 1.327 . S
C3793 H3787 0.950 . S
C3793 C3792 1.327 . S
C3793 C3797 1.429 . S
C3794 C3777 1.574 . S
C3794 H3788 0.949 . S
C3794 C3798 1.368 . S
C3795 C3776 1.429 . S
C3795 C3789 1.429 . S
C3795 C3796 1.523 . S
C3796 C3777 1.368 . S
C3796 C3790 1.368 . S
C3796 C3795 1.523 . S
C3797 C3781 1.429 . S
C3797 C3793 1.429 . S
C3797 C3798 1.523 . S
C3798 C3782 1.368 . S
C3798 C3794 1.368 . S
C3798 C3797 1.523 . S
H3799 C3774 0.950 . S
H3800 C3776 0.950 . S
H3801 C3777 0.949 . S
H3802 C3779 0.950 . S
H3803 C3781 0.950 . S
C3804 C3805 1.349 . S
C3804 C3806 1.327 . S
C3804 H3829 0.950 . S
C3805 C3804 1.349 . S
C3805 C3821 1.349 . S
C3806 C3804 1.327 . S
C3806 C3825 1.429 . S
C3806 H3830 0.950 . S
C3807 C3824 1.574 . S
C3807 C3826 1.368 . S
C3807 H3831 0.949 . S
H3808 C3812 0.949 . S
C3809 C3810 1.349 . S
C3809 C3811 1.327 . S
C3809 H3832 0.950 . S
C3810 C3809 1.349 . S
C3810 C3822 1.349 . S
C3811 C3809 1.327 . S
C3811 C3827 1.429 . S
C3811 H3833 0.950 . S
C3812 H3808 0.949 . S
C3812 C3820 1.574 . S
C3812 C3828 1.368 . S
H3813 C3821 0.950 . S
H3814 C3819 0.950 . S
H3815 C3820 0.949 . S
H3816 C3822 0.950 . S
H3817 C3823 0.950 . S
H3818 C3824 0.949 . S
C3819 H3814 0.950 . S
C3819 C3821 1.327 . S
C3819 C3825 1.429 . S
C3820 C3812 1.574 . S
C3820 H3815 0.949 . S
C3820 C3826 1.368 . S
C3821 C3805 1.349 . S
C3821 H3813 0.950 . S
C3821 C3819 1.327 . S
C3822 C3810 1.349 . S
C3822 H3816 0.950 . S
C3822 C3823 1.327 . S
C3823 H3817 0.950 . S
C3823 C3822 1.327 . S
C3823 C3827 1.429 . S
C3824 C3807 1.574 . S
C3824 H3818 0.949 . S
C3824 C3828 1.368 . S
C3825 C3806 1.429 . S
C3825 C3819 1.429 . S
C3825 C3826 1.523 . S
C3826 C3807 1.368 . S
C3826 C3820 1.368 . S
C3826 C3825 1.523 . S
C3827 C3811 1.429 . S
C3827 C3823 1.429 . S
C3827 C3828 1.523 . S
C3828 C3812 1.368 . S
C3828 C3824 1.368 . S
C3828 C3827 1.523 . S
H3829 C3804 0.950 . S
H3830 C3806 0.950 . S
H3831 C3807 0.949 . S
H3832 C3809 0.950 . S
H3833 C3811 0.950 . S
C3834 C3835 1.349 . S
C3834 C3836 1.327 . S
C3834 H3859 0.950 . S
C3835 C3834 1.349 . S
C3835 C3851 1.349 . S
C3836 C3834 1.327 . S
C3836 C3855 1.429 . S
C3836 H3860 0.950 . S
C3837 C3854 1.517 1_455 S
C3837 C3856 1.440 . S
C3837 H3861 0.926 1_455 S
H3838 C3842 0.949 . S
C3839 C3840 1.349 1_655 S
C3839 C3841 1.327 . S
C3839 H3862 0.950 . S
C3840 C3839 1.349 1_455 S
C3840 C3852 1.349 . S
C3841 C3839 1.327 . S
C3841 C3857 1.429 1_655 S
C3841 H3863 0.950 . S
C3842 H3838 0.949 . S
C3842 C3850 1.574 . S
C3842 C3858 1.368 . S
H3843 C3851 0.950 1_655 S
H3844 C3849 0.950 1_655 S
H3845 C3850 0.949 . S
H3846 C3852 0.950 . S
H3847 C3853 0.950 . S
H3848 C3854 0.983 . S
C3849 H3844 0.950 1_455 S
C3849 C3851 1.327 . S
C3849 C3855 1.429 . S
C3850 C3842 1.574 . S
C3850 H3845 0.949 . S
C3850 C3856 1.368 . S
C3851 C3835 1.349 . S
C3851 H3843 0.950 1_455 S
C3851 C3849 1.327 . S
C3852 C3840 1.349 . S
C3852 H3846 0.950 . S
C3852 C3853 1.327 . S
C3853 H3847 0.950 . S
C3853 C3852 1.327 . S
C3853 C3857 1.429 . S
C3854 C3837 1.517 1_655 S
C3854 H3848 0.983 . S
C3854 C3858 1.351 1_655 S
C3855 C3836 1.429 . S
C3855 C3849 1.429 . S
C3855 C3856 1.523 . S
C3856 C3837 1.440 . S
C3856 C3850 1.368 . S
C3856 C3855 1.523 . S
C3857 C3841 1.429 1_455 S
C3857 C3853 1.429 . S
C3857 C3858 1.523 . S
C3858 C3842 1.368 . S
C3858 C3854 1.351 1_455 S
C3858 C3857 1.523 . S
H3859 C3834 0.950 . S
H3860 C3836 0.950 . S
H3861 C3837 0.926 1_655 S
H3862 C3839 0.950 . S
H3863 C3841 0.950 . S
C3864 C3865 1.349 . S
C3864 C3866 1.327 . S
C3864 H3889 0.950 . S
C3865 C3864 1.349 . S
C3865 C3881 1.349 . S
C3866 C3864 1.327 . S
C3866 C3885 1.429 . S
C3866 H3890 0.950 . S
C3867 C3884 1.574 . S
C3867 C3886 1.368 . S
C3867 H3891 0.949 . S
H3868 C3872 0.949 . S
C3869 C3870 1.349 . S
C3869 C3871 1.327 . S
C3869 H3892 0.950 . S
C3870 C3869 1.349 . S
C3870 C3882 1.349 . S
C3871 C3869 1.327 . S
C3871 C3887 1.429 . S
C3871 H3893 0.950 . S
C3872 H3868 0.949 . S
C3872 C3880 1.574 . S
C3872 C3888 1.368 . S
H3873 C3881 0.950 . S
H3874 C3879 0.950 . S
H3875 C3880 0.949 . S
H3876 C3882 0.950 . S
H3877 C3883 0.950 . S
H3878 C3884 0.949 . S
C3879 H3874 0.950 . S
C3879 C3881 1.327 . S
C3879 C3885 1.429 . S
C3880 C3872 1.574 . S
C3880 H3875 0.949 . S
C3880 C3886 1.368 . S
C3881 C3865 1.349 . S
C3881 H3873 0.950 . S
C3881 C3879 1.327 . S
C3882 C3870 1.349 . S
C3882 H3876 0.950 . S
C3882 C3883 1.327 . S
C3883 H3877 0.950 . S
C3883 C3882 1.327 . S
C3883 C3887 1.429 . S
C3884 C3867 1.574 . S
C3884 H3878 0.949 . S
C3884 C3888 1.368 . S
C3885 C3866 1.429 . S
C3885 C3879 1.429 . S
C3885 C3886 1.523 . S
C3886 C3867 1.368 . S
C3886 C3880 1.368 . S
C3886 C3885 1.523 . S
C3887 C3871 1.429 . S
C3887 C3883 1.429 . S
C3887 C3888 1.523 . S
C3888 C3872 1.368 . S
C3888 C3884 1.368 . S
C3888 C3887 1.523 . S
H3889 C3864 0.950 . S
H3890 C3866 0.950 . S
H3891 C3867 0.949 . S
H3892 C3869 0.950 . S
H3893 C3871 0.950 . S
C3894 C3895 1.372 . S
C3894 C3896 1.360 . S
C3894 H3919 0.901 1_565 S
C3895 C3894 1.372 . S
C3895 C3911 1.349 . S
C3896 C3894 1.360 . S
C3896 C3915 1.427 . S
C3896 H3920 0.950 1_565 S
C3897 C3914 1.574 . S
C3897 C3916 1.368 . S
C3897 H3921 0.949 . S
H3898 C3902 0.949 . S
C3899 C3900 1.349 . S
C3899 C3901 1.327 . S
C3899 H3922 0.950 . S
C3900 C3899 1.349 . S
C3900 C3912 1.349 1_565 S
C3901 C3899 1.327 . S
C3901 C3917 1.429 . S
C3901 H3923 0.950 . S
C3902 H3898 0.949 . S
C3902 C3910 1.574 . S
C3902 C3918 1.368 1_545 S
H3903 C3911 0.950 . S
H3904 C3909 0.950 . S
H3905 C3910 0.949 . S
H3906 C3912 0.950 . S
H3907 C3913 0.950 . S
H3908 C3914 0.949 . S
C3909 H3904 0.950 . S
C3909 C3911 1.327 . S
C3909 C3915 1.429 . S
C3910 C3902 1.574 . S
C3910 H3905 0.949 . S
C3910 C3916 1.368 1_545 S
C3911 C3895 1.349 . S
C3911 H3903 0.950 . S
C3911 C3909 1.327 . S
C3912 C3900 1.349 1_545 S
C3912 H3906 0.950 . S
C3912 C3913 1.327 . S
C3913 H3907 0.950 . S
C3913 C3912 1.327 . S
C3913 C3917 1.429 1_545 S
C3914 C3897 1.574 . S
C3914 H3908 0.949 . S
C3914 C3918 1.368 . S
C3915 C3896 1.427 . S
C3915 C3909 1.429 . S
C3915 C3916 1.523 . S
C3916 C3897 1.368 . S
C3916 C3910 1.368 1_565 S
C3916 C3915 1.523 . S
C3917 C3901 1.429 . S
C3917 C3913 1.429 1_565 S
C3917 C3918 1.523 . S
C3918 C3902 1.368 1_565 S
C3918 C3914 1.368 . S
C3918 C3917 1.523 . S
H3919 C3894 0.901 1_545 S
H3920 C3896 0.950 1_545 S
H3921 C3897 0.949 . S
H3922 C3899 0.950 . S
H3923 C3901 0.950 . S
C3924 C3925 1.349 1_545 S
C3924 C3926 1.327 . S
C3924 H3949 0.950 . S
C3925 C3924 1.349 1_565 S
C3925 C3941 1.349 . S
C3926 C3924 1.327 . S
C3926 C3945 1.429 1_545 S
C3926 H3950 0.950 . S
C3927 C3944 1.574 . S
C3927 C3946 1.368 . S
C3927 H3951 0.949 . S
H3928 C3932 0.949 . S
C3929 C3930 1.349 . S
C3929 C3931 1.327 . S
C3929 H3952 0.950 . S
C3930 C3929 1.349 . S
C3930 C3942 1.349 1_565 S
C3931 C3929 1.327 . S
C3931 C3947 1.429 . S
C3931 H3953 0.950 . S
C3932 H3928 0.949 . S
C3932 C3940 1.574 . S
C3932 C3948 1.368 1_545 S
H3933 C3941 0.950 . S
H3934 C3939 0.950 . S
H3935 C3940 0.949 . S
H3936 C3942 0.950 . S
H3937 C3943 0.950 . S
H3938 C3944 0.949 . S
C3939 H3934 0.950 . S
C3939 C3941 1.327 . S
C3939 C3945 1.429 . S
C3940 C3932 1.574 . S
C3940 H3935 0.949 . S
C3940 C3946 1.368 1_545 S
C3941 C3925 1.349 . S
C3941 H3933 0.950 . S
C3941 C3939 1.327 . S
C3942 C3930 1.349 1_545 S
C3942 H3936 0.950 . S
C3942 C3943 1.327 . S
C3943 H3937 0.950 . S
C3943 C3942 1.327 . S
C3943 C3947 1.429 1_545 S
C3944 C3927 1.574 . S
C3944 H3938 0.949 . S
C3944 C3948 1.368 . S
C3945 C3926 1.429 1_565 S
C3945 C3939 1.429 . S
C3945 C3946 1.523 . S
C3946 C3927 1.368 . S
C3946 C3940 1.368 1_565 S
C3946 C3945 1.523 . S
C3947 C3931 1.429 . S
C3947 C3943 1.429 1_565 S
C3947 C3948 1.523 . S
C3948 C3932 1.368 1_565 S
C3948 C3944 1.368 . S
C3948 C3947 1.523 . S
H3949 C3924 0.950 . S
H3950 C3926 0.950 . S
H3951 C3927 0.949 . S
H3952 C3929 0.950 . S
H3953 C3931 0.950 . S
C3954 C3955 1.349 . S
C3954 C3956 1.327 . S
C3954 H3979 0.950 . S
C3955 C3954 1.349 . S
C3955 C3971 1.351 . S
C3956 C3954 1.327 . S
C3956 C3975 1.429 . S
C3956 H3980 0.950 . S
C3957 C3974 1.574 . S
C3957 C3976 1.368 1_655 S
C3957 H3981 0.949 . S
H3958 C3962 0.949 . S
C3959 C3960 1.349 1_655 S
C3959 C3961 1.327 . S
C3959 H3982 0.950 . S
C3960 C3959 1.349 1_455 S
C3960 C3972 1.349 . S
C3961 C3959 1.327 . S
C3961 C3977 1.429 1_655 S
C3961 H3983 0.950 . S
C3962 H3958 0.949 . S
C3962 C3970 1.574 . S
C3962 C3978 1.368 . S
H3963 C3971 0.946 1_655 S
H3964 C3969 0.950 . S
H3965 C3970 0.949 . S
H3966 C3972 0.950 . S
H3967 C3973 0.950 . S
H3968 C3974 0.949 . S
C3969 H3964 0.950 . S
C3969 C3971 1.329 1_655 S
C3969 C3975 1.429 1_655 S
C3970 C3962 1.574 . S
C3970 H3965 0.949 . S
C3970 C3976 1.368 . S
C3971 C3955 1.351 . S
C3971 H3963 0.946 1_455 S
C3971 C3969 1.329 1_455 S
C3972 C3960 1.349 . S
C3972 H3966 0.950 . S
C3972 C3973 1.327 . S
C3973 H3967 0.950 . S
C3973 C3972 1.327 . S
C3973 C3977 1.429 . S
C3974 C3957 1.574 . S
C3974 H3968 0.949 . S
C3974 C3978 1.368 1_655 S
C3975 C3956 1.429 . S
C3975 C3969 1.429 1_455 S
C3975 C3976 1.523 . S
C3976 C3957 1.368 1_455 S
C3976 C3970 1.368 . S
C3976 C3975 1.523 . S
C3977 C3961 1.429 1_455 S
C3977 C3973 1.429 . S
C3977 C3978 1.523 . S
C3978 C3962 1.368 . S
C3978 C3974 1.368 1_455 S
C3978 C3977 1.523 . S
H3979 C3954 0.950 . S
H3980 C3956 0.950 . S
H3981 C3957 0.949 . S
H3982 C3959 0.950 . S
H3983 C3961 0.950 . S
C3984 C3985 1.349 . S
C3984 C3986 1.327 . S
C3984 H4009 0.950 . S
C3985 C3984 1.349 . S
C3985 C4001 1.349 . S
C3986 C3984 1.327 . S
C3986 C4005 1.429 . S
C3986 H4010 0.950 . S
C3987 C4004 1.574 . S
C3987 C4006 1.368 . S
C3987 H4011 0.949 . S
H3988 C3992 0.949 . S
C3989 C3990 1.349 . S
C3989 C3991 1.327 . S
C3989 H4012 0.950 . S
C3990 C3989 1.349 . S
C3990 C4002 1.349 . S
C3991 C3989 1.327 . S
C3991 C4007 1.429 . S
C3991 H4013 0.950 . S
C3992 H3988 0.949 . S
C3992 C4000 1.574 . S
C3992 C4008 1.368 . S
H3993 C4001 0.950 . S
H3994 C3999 0.950 . S
H3995 C4000 0.949 . S
H3996 C4002 0.950 . S
H3997 C4003 0.950 . S
H3998 C4004 0.949 . S
C3999 H3994 0.950 . S
C3999 C4001 1.327 . S
C3999 C4005 1.429 . S
C4000 C3992 1.574 . S
C4000 H3995 0.949 . S
C4000 C4006 1.368 . S
C4001 C3985 1.349 . S
C4001 H3993 0.950 . S
C4001 C3999 1.327 . S
C4002 C3990 1.349 . S
C4002 H3996 0.950 . S
C4002 C4003 1.327 . S
C4003 H3997 0.950 . S
C4003 C4002 1.327 . S
C4003 C4007 1.429 . S
C4004 C3987 1.574 . S
C4004 H3998 0.949 . S
C4004 C4008 1.368 . S
C4005 C3986 1.429 . S
C4005 C3999 1.429 . S
C4005 C4006 1.523 . S
C4006 C3987 1.368 . S
C4006 C4000 1.368 . S
C4006 C4005 1.523 . S
C4007 C3991 1.429 . S
C4007 C4003 1.429 . S
C4007 C4008 1.523 . S
C4008 C3992 1.368 . S
C4008 C4004 1.368 . S
C4008 C4007 1.523 . S
H4009 C3984 0.950 . S
H4010 C3986 0.950 . S
H4011 C3987 0.949 . S
H4012 C3989 0.950 . S
H4013 C3991 0.950 . S
C4014 C4015 1.349 . S
C4014 C4016 1.327 . S
C4014 H4039 0.950 . S
C4015 C4014 1.349 . S
C4015 C4031 1.349 . S
C4016 C4014 1.327 . S
C4016 C4035 1.429 . S
C4016 H4040 0.950 . S
C4017 C4034 1.574 . S
C4017 C4036 1.368 . S
C4017 H4041 0.949 . S
H4018 C4022 0.949 . S
C4019 C4020 1.349 . S
C4019 C4021 1.327 . S
C4019 H4042 0.950 . S
C4020 C4019 1.349 . S
C4020 C4032 1.349 . S
C4021 C4019 1.327 . S
C4021 C4037 1.429 . S
C4021 H4043 0.950 . S
C4022 H4018 0.949 . S
C4022 C4030 1.574 . S
C4022 C4038 1.368 . S
H4023 C4031 0.950 . S
H4024 C4029 0.950 . S
H4025 C4030 0.949 . S
H4026 C4032 0.950 . S
H4027 C4033 0.950 . S
H4028 C4034 0.949 . S
C4029 H4024 0.950 . S
C4029 C4031 1.327 . S
C4029 C4035 1.429 . S
C4030 C4022 1.574 . S
C4030 H4025 0.949 . S
C4030 C4036 1.368 . S
C4031 C4015 1.349 . S
C4031 H4023 0.950 . S
C4031 C4029 1.327 . S
C4032 C4020 1.349 . S
C4032 H4026 0.950 . S
C4032 C4033 1.327 . S
C4033 H4027 0.950 . S
C4033 C4032 1.327 . S
C4033 C4037 1.429 . S
C4034 C4017 1.574 . S
C4034 H4028 0.949 . S
C4034 C4038 1.368 . S
C4035 C4016 1.429 . S
C4035 C4029 1.429 . S
C4035 C4036 1.523 . S
C4036 C4017 1.368 . S
C4036 C4030 1.368 . S
C4036 C4035 1.523 . S
C4037 C4021 1.429 . S
C4037 C4033 1.429 . S
C4037 C4038 1.523 . S
C4038 C4022 1.368 . S
C4038 C4034 1.368 . S
C4038 C4037 1.523 . S
H4039 C4014 0.950 . S
H4040 C4016 0.950 . S
H4041 C4017 0.949 . S
H4042 C4019 0.950 . S
H4043 C4021 0.950 . S
C4044 C4045 1.349 . S
C4044 C4046 1.327 . S
C4044 H4069 0.950 . S
C4045 C4044 1.349 . S
C4045 C4061 1.349 . S
C4046 C4044 1.327 . S
C4046 C4065 1.429 . S
C4046 H4070 0.950 . S
C4047 C4064 1.574 . S
C4047 C4066 1.368 . S
C4047 H4071 0.949 . S
H4048 C4052 0.949 . S
C4049 C4050 1.349 . S
C4049 C4051 1.327 . S
C4049 H4072 0.950 . S
C4050 C4049 1.349 . S
C4050 C4062 1.349 . S
C4051 C4049 1.327 . S
C4051 C4067 1.429 . S
C4051 H4073 0.950 . S
C4052 H4048 0.949 . S
C4052 C4060 1.574 . S
C4052 C4068 1.368 . S
H4053 C4061 0.950 . S
H4054 C4059 0.950 . S
H4055 C4060 0.949 . S
H4056 C4062 0.950 . S
H4057 C4063 0.950 . S
H4058 C4064 0.949 . S
C4059 H4054 0.950 . S
C4059 C4061 1.327 . S
C4059 C4065 1.429 . S
C4060 C4052 1.574 . S
C4060 H4055 0.949 . S
C4060 C4066 1.368 . S
C4061 C4045 1.349 . S
C4061 H4053 0.950 . S
C4061 C4059 1.327 . S
C4062 C4050 1.349 . S
C4062 H4056 0.950 . S
C4062 C4063 1.327 . S
C4063 H4057 0.950 . S
C4063 C4062 1.327 . S
C4063 C4067 1.429 . S
C4064 C4047 1.574 . S
C4064 H4058 0.949 . S
C4064 C4068 1.368 . S
C4065 C4046 1.429 . S
C4065 C4059 1.429 . S
C4065 C4066 1.523 . S
C4066 C4047 1.368 . S
C4066 C4060 1.368 . S
C4066 C4065 1.523 . S
C4067 C4051 1.429 . S
C4067 C4063 1.429 . S
C4067 C4068 1.523 . S
C4068 C4052 1.368 . S
C4068 C4064 1.368 . S
C4068 C4067 1.523 . S
H4069 C4044 0.950 . S
H4070 C4046 0.950 . S
H4071 C4047 0.949 . S
H4072 C4049 0.950 . S
H4073 C4051 0.950 . S
C4074 C4075 1.349 . S
C4074 C4076 1.327 . S
C4074 H4099 0.950 . S
C4075 C4074 1.349 . S
C4075 C4091 1.349 . S
C4076 C4074 1.327 . S
C4076 C4095 1.429 . S
C4076 H4100 0.950 . S
C4077 C4094 1.574 . S
C4077 C4096 1.368 . S
C4077 H4101 0.949 . S
H4078 C4082 0.949 . S
C4079 C4080 1.349 . S
C4079 C4081 1.327 . S
C4079 H4102 0.950 . S
C4080 C4079 1.349 . S
C4080 C4092 1.349 . S
C4081 C4079 1.327 . S
C4081 C4097 1.429 . S
C4081 H4103 0.950 . S
C4082 H4078 0.949 . S
C4082 C4090 1.574 . S
C4082 C4098 1.368 . S
H4083 C4091 0.950 . S
H4084 C4089 0.950 . S
H4085 C4090 0.949 . S
H4086 C4092 0.950 . S
H4087 C4093 0.950 . S
H4088 C4094 0.949 . S
C4089 H4084 0.950 . S
C4089 C4091 1.327 . S
C4089 C4095 1.429 . S
C4090 C4082 1.574 . S
C4090 H4085 0.949 . S
C4090 C4096 1.368 . S
C4091 C4075 1.349 . S
C4091 H4083 0.950 . S
C4091 C4089 1.327 . S
C4092 C4080 1.349 . S
C4092 H4086 0.950 . S
C4092 C4093 1.327 . S
C4093 H4087 0.950 . S
C4093 C4092 1.327 . S
C4093 C4097 1.429 . S
C4094 C4077 1.574 . S
C4094 H4088 0.949 . S
C4094 C4098 1.368 . S
C4095 C4076 1.429 . S
C4095 C4089 1.429 . S
C4095 C4096 1.523 . S
C4096 C4077 1.368 . S
C4096 C4090 1.368 . S
C4096 C4095 1.523 . S
C4097 C4081 1.429 . S
C4097 C4093 1.429 . S
C4097 C4098 1.523 . S
C4098 C4082 1.368 . S
C4098 C4094 1.368 . S
C4098 C4097 1.523 . S
H4099 C4074 0.950 . S
H4100 C4076 0.950 . S
H4101 C4077 0.949 . S
H4102 C4079 0.950 . S
H4103 C4081 0.950 . S
C4104 C4105 1.349 . S
C4104 C4106 1.327 . S
C4104 H4129 0.950 . S
C4105 C4104 1.349 . S
C4105 C4121 1.349 . S
C4106 C4104 1.327 . S
C4106 C4125 1.429 . S
C4106 H4130 0.950 . S
C4107 C4124 1.595 . S
C4107 C4126 1.368 . S
C4107 H4131 0.949 1_545 S
H4108 C4112 0.949 . S
C4109 C4110 1.349 1_565 S
C4109 C4111 1.365 . S
C4109 H4132 0.950 . S
C4110 C4109 1.349 1_545 S
C4110 C4122 1.349 . S
C4111 C4109 1.365 . S
C4111 C4127 1.357 1_565 S
C4111 H4133 0.989 . S
C4112 H4108 0.949 . S
C4112 C4120 1.574 . S
C4112 C4128 1.368 . S
H4113 C4121 0.950 1_565 S
H4114 C4119 0.950 1_565 S
H4115 C4120 0.949 . S
H4116 C4122 0.950 . S
H4117 C4123 0.950 . S
H4118 C4124 0.910 1_565 S
C4119 H4114 0.950 1_545 S
C4119 C4121 1.327 . S
C4119 C4125 1.429 . S
C4120 C4112 1.574 . S
C4120 H4115 0.949 . S
C4120 C4126 1.368 . S
C4121 C4105 1.349 . S
C4121 H4113 0.950 1_545 S
C4121 C4119 1.327 . S
C4122 C4110 1.349 . S
C4122 H4116 0.950 . S
C4122 C4123 1.327 . S
C4123 H4117 0.950 . S
C4123 C4122 1.327 . S
C4123 C4127 1.429 . S
C4124 C4107 1.595 . S
C4124 H4118 0.910 1_545 S
C4124 C4128 1.392 . S
C4125 C4106 1.429 . S
C4125 C4119 1.429 . S
C4125 C4126 1.523 . S
C4126 C4107 1.368 . S
C4126 C4120 1.368 . S
C4126 C4125 1.523 . S
C4127 C4111 1.357 1_545 S
C4127 C4123 1.429 . S
C4127 C4128 1.523 . S
C4128 C4112 1.368 . S
C4128 C4124 1.392 . S
C4128 C4127 1.523 . S
H4129 C4104 0.950 . S
H4130 C4106 0.950 . S
H4131 C4107 0.949 1_565 S
H4132 C4109 0.950 . S
H4133 C4111 0.989 . S
C4134 C4135 1.349 1_455 S
C4134 C4136 1.327 . S
C4134 H4159 0.950 . S
C4135 C4134 1.349 1_655 S
C4135 C4151 1.349 . S
C4136 C4134 1.327 . S
C4136 C4155 1.429 1_455 S
C4136 H4160 0.950 . S
C4137 C4154 1.574 . S
C4137 C4156 1.368 . S
C4137 H4161 0.949 . S
H4138 C4142 0.949 . S
C4139 C4140 1.349 . S
C4139 C4141 1.327 . S
C4139 H4162 0.950 . S
C4140 C4139 1.349 . S
C4140 C4152 1.349 1_655 S
C4141 C4139 1.327 . S
C4141 C4157 1.429 . S
C4141 H4163 0.950 . S
C4142 H4138 0.949 . S
C4142 C4150 1.574 . S
C4142 C4158 1.368 1_455 S
H4143 C4151 0.950 . S
H4144 C4149 0.950 . S
H4145 C4150 0.949 . S
H4146 C4152 0.950 . S
H4147 C4153 0.950 . S
H4148 C4154 0.949 . S
C4149 H4144 0.950 . S
C4149 C4151 1.327 . S
C4149 C4155 1.429 . S
C4150 C4142 1.574 . S
C4150 H4145 0.949 . S
C4150 C4156 1.368 1_455 S
C4151 C4135 1.349 . S
C4151 H4143 0.950 . S
C4151 C4149 1.327 . S
C4152 C4140 1.349 1_455 S
C4152 H4146 0.950 . S
C4152 C4153 1.327 . S
C4153 H4147 0.950 . S
C4153 C4152 1.327 . S
C4153 C4157 1.429 1_455 S
C4154 C4137 1.574 . S
C4154 H4148 0.949 . S
C4154 C4158 1.368 . S
C4155 C4136 1.429 1_655 S
C4155 C4149 1.429 . S
C4155 C4156 1.523 . S
C4156 C4137 1.368 . S
C4156 C4150 1.368 1_655 S
C4156 C4155 1.523 . S
C4157 C4141 1.429 . S
C4157 C4153 1.429 1_655 S
C4157 C4158 1.523 . S
C4158 C4142 1.368 1_655 S
C4158 C4154 1.368 . S
C4158 C4157 1.523 . S
H4159 C4134 0.950 . S
H4160 C4136 0.950 . S
H4161 C4137 0.949 . S
H4162 C4139 0.950 . S
H4163 C4141 0.950 . S
C4164 C4165 1.349 . S
C4164 C4166 1.327 . S
C4164 H4189 0.950 . S
C4165 C4164 1.349 . S
C4165 C4181 1.349 . S
C4166 C4164 1.327 . S
C4166 C4185 1.429 . S
C4166 H4190 0.950 . S
C4167 C4184 1.574 . S
C4167 C4186 1.368 . S
C4167 H4191 0.949 . S
H4168 C4172 0.949 . S
C4169 C4170 1.349 . S
C4169 C4171 1.327 . S
C4169 H4192 0.950 . S
C4170 C4169 1.349 . S
C4170 C4182 1.349 . S
C4171 C4169 1.327 . S
C4171 C4187 1.429 . S
C4171 H4193 0.950 . S
C4172 H4168 0.949 . S
C4172 C4180 1.574 . S
C4172 C4188 1.368 . S
H4173 C4181 0.950 . S
H4174 C4179 0.950 . S
H4175 C4180 0.949 . S
H4176 C4182 0.950 . S
H4177 C4183 0.950 . S
H4178 C4184 0.949 . S
C4179 H4174 0.950 . S
C4179 C4181 1.327 . S
C4179 C4185 1.429 . S
C4180 C4172 1.574 . S
C4180 H4175 0.949 . S
C4180 C4186 1.368 . S
C4181 C4165 1.349 . S
C4181 H4173 0.950 . S
C4181 C4179 1.327 . S
C4182 C4170 1.349 . S
C4182 H4176 0.950 . S
C4182 C4183 1.327 . S
C4183 H4177 0.950 . S
C4183 C4182 1.327 . S
C4183 C4187 1.429 . S
C4184 C4167 1.574 . S
C4184 H4178 0.949 . S
C4184 C4188 1.368 . S
C4185 C4166 1.429 . S
C4185 C4179 1.429 . S
C4185 C4186 1.523 . S
C4186 C4167 1.368 . S
C4186 C4180 1.368 . S
C4186 C4185 1.523 . S
C4187 C4171 1.429 . S
C4187 C4183 1.429 . S
C4187 C4188 1.523 . S
C4188 C4172 1.368 . S
C4188 C4184 1.368 . S
C4188 C4187 1.523 . S
H4189 C4164 0.950 . S
H4190 C4166 0.950 . S
H4191 C4167 0.949 . S
H4192 C4169 0.950 . S
H4193 C4171 0.950 . S
C4194 C4195 1.349 . S
C4194 C4196 1.327 . S
C4194 H4219 0.950 . S
C4195 C4194 1.349 . S
C4195 C4211 1.349 . S
C4196 C4194 1.327 . S
C4196 C4215 1.429 . S
C4196 H4220 0.950 . S
C4197 C4214 1.574 . S
C4197 C4216 1.368 . S
C4197 H4221 0.949 . S
H4198 C4202 0.949 . S
C4199 C4200 1.349 . S
C4199 C4201 1.327 . S
C4199 H4222 0.950 . S
C4200 C4199 1.349 . S
C4200 C4212 1.349 . S
C4201 C4199 1.327 . S
C4201 C4217 1.429 . S
C4201 H4223 0.950 . S
C4202 H4198 0.949 . S
C4202 C4210 1.574 . S
C4202 C4218 1.368 . S
H4203 C4211 0.950 . S
H4204 C4209 0.950 . S
H4205 C4210 0.949 . S
H4206 C4212 0.950 . S
H4207 C4213 0.950 . S
H4208 C4214 0.949 . S
C4209 H4204 0.950 . S
C4209 C4211 1.327 . S
C4209 C4215 1.429 . S
C4210 C4202 1.574 . S
C4210 H4205 0.949 . S
C4210 C4216 1.368 . S
C4211 C4195 1.349 . S
C4211 H4203 0.950 . S
C4211 C4209 1.327 . S
C4212 C4200 1.349 . S
C4212 H4206 0.950 . S
C4212 C4213 1.327 . S
C4213 H4207 0.950 . S
C4213 C4212 1.327 . S
C4213 C4217 1.429 . S
C4214 C4197 1.574 . S
C4214 H4208 0.949 . S
C4214 C4218 1.368 . S
C4215 C4196 1.429 . S
C4215 C4209 1.429 . S
C4215 C4216 1.523 . S
C4216 C4197 1.368 . S
C4216 C4210 1.368 . S
C4216 C4215 1.523 . S
C4217 C4201 1.429 . S
C4217 C4213 1.429 . S
C4217 C4218 1.523 . S
C4218 C4202 1.368 . S
C4218 C4214 1.368 . S
C4218 C4217 1.523 . S
H4219 C4194 0.950 . S
H4220 C4196 0.950 . S
H4221 C4197 0.949 . S
H4222 C4199 0.950 . S
H4223 C4201 0.950 . S
C4224 C4225 1.349 . S
C4224 C4226 1.327 . S
C4224 H4249 0.950 . S
C4225 C4224 1.349 . S
C4225 C4241 1.349 . S
C4226 C4224 1.327 . S
C4226 C4245 1.429 . S
C4226 H4250 0.950 . S
C4227 C4244 1.574 . S
C4227 C4246 1.368 . S
C4227 H4251 0.949 . S
H4228 C4232 0.949 . S
C4229 C4230 1.349 . S
C4229 C4231 1.327 . S
C4229 H4252 0.950 . S
C4230 C4229 1.349 . S
C4230 C4242 1.349 . S
C4231 C4229 1.327 . S
C4231 C4247 1.429 . S
C4231 H4253 0.950 . S
C4232 H4228 0.949 . S
C4232 C4240 1.574 . S
C4232 C4248 1.368 . S
H4233 C4241 0.950 . S
H4234 C4239 0.950 . S
H4235 C4240 0.949 . S
H4236 C4242 0.950 . S
H4237 C4243 0.950 . S
H4238 C4244 0.949 . S
C4239 H4234 0.950 . S
C4239 C4241 1.327 . S
C4239 C4245 1.429 . S
C4240 C4232 1.574 . S
C4240 H4235 0.949 . S
C4240 C4246 1.368 . S
C4241 C4225 1.349 . S
C4241 H4233 0.950 . S
C4241 C4239 1.327 . S
C4242 C4230 1.349 . S
C4242 H4236 0.950 . S
C4242 C4243 1.327 . S
C4243 H4237 0.950 . S
C4243 C4242 1.327 . S
C4243 C4247 1.429 . S
C4244 C4227 1.574 . S
C4244 H4238 0.949 . S
C4244 C4248 1.368 . S
C4245 C4226 1.429 . S
C4245 C4239 1.429 . S
C4245 C4246 1.523 . S
C4246 C4227 1.368 . S
C4246 C4240 1.368 . S
C4246 C4245 1.523 . S
C4247 C4231 1.429 . S
C4247 C4243 1.429 . S
C4247 C4248 1.523 . S
C4248 C4232 1.368 . S
C4248 C4244 1.368 . S
C4248 C4247 1.523 . S
H4249 C4224 0.950 . S
H4250 C4226 0.950 . S
H4251 C4227 0.949 . S
H4252 C4229 0.950 . S
H4253 C4231 0.950 . S
C4254 C4255 1.349 . S
C4254 C4256 1.327 . S
C4254 H4279 0.950 . S
C4255 C4254 1.349 . S
C4255 C4271 1.349 . S
C4256 C4254 1.327 . S
C4256 C4275 1.429 . S
C4256 H4280 0.950 . S
C4257 C4274 1.574 . S
C4257 C4276 1.368 . S
C4257 H4281 0.949 . S
H4258 C4262 0.949 . S
C4259 C4260 1.349 . S
C4259 C4261 1.327 . S
C4259 H4282 0.950 . S
C4260 C4259 1.349 . S
C4260 C4272 1.349 . S
C4261 C4259 1.327 . S
C4261 C4277 1.429 . S
C4261 H4283 0.950 . S
C4262 H4258 0.949 . S
C4262 C4270 1.574 . S
C4262 C4278 1.368 . S
H4263 C4271 0.950 . S
H4264 C4269 0.950 . S
H4265 C4270 0.949 . S
H4266 C4272 0.950 . S
H4267 C4273 0.950 . S
H4268 C4274 0.949 . S
C4269 H4264 0.950 . S
C4269 C4271 1.327 . S
C4269 C4275 1.429 . S
C4270 C4262 1.574 . S
C4270 H4265 0.949 . S
C4270 C4276 1.368 . S
C4271 C4255 1.349 . S
C4271 H4263 0.950 . S
C4271 C4269 1.327 . S
C4272 C4260 1.349 . S
C4272 H4266 0.950 . S
C4272 C4273 1.327 . S
C4273 H4267 0.950 . S
C4273 C4272 1.327 . S
C4273 C4277 1.429 . S
C4274 C4257 1.574 . S
C4274 H4268 0.949 . S
C4274 C4278 1.368 . S
C4275 C4256 1.429 . S
C4275 C4269 1.429 . S
C4275 C4276 1.523 . S
C4276 C4257 1.368 . S
C4276 C4270 1.368 . S
C4276 C4275 1.523 . S
C4277 C4261 1.429 . S
C4277 C4273 1.429 . S
C4277 C4278 1.523 . S
C4278 C4262 1.368 . S
C4278 C4274 1.368 . S
C4278 C4277 1.523 . S
H4279 C4254 0.950 . S
H4280 C4256 0.950 . S
H4281 C4257 0.949 . S
H4282 C4259 0.950 . S
H4283 C4261 0.950 . S
C4284 C4285 1.349 . S
C4284 C4286 1.327 . S
C4284 H4309 0.950 . S
C4285 C4284 1.349 . S
C4285 C4301 1.349 . S
C4286 C4284 1.327 . S
C4286 C4305 1.429 . S
C4286 H4310 0.950 . S
C4287 C4304 1.574 . S
C4287 C4306 1.368 . S
C4287 H4311 0.949 . S
H4288 C4292 0.949 . S
C4289 C4290 1.349 . S
C4289 C4291 1.327 . S
C4289 H4312 0.950 . S
C4290 C4289 1.349 . S
C4290 C4302 1.349 . S
C4291 C4289 1.327 . S
C4291 C4307 1.429 . S
C4291 H4313 0.950 . S
C4292 H4288 0.949 . S
C4292 C4300 1.574 . S
C4292 C4308 1.368 . S
H4293 C4301 0.950 . S
H4294 C4299 0.950 . S
H4295 C4300 0.949 . S
H4296 C4302 0.950 . S
H4297 C4303 0.950 . S
H4298 C4304 0.949 . S
C4299 H4294 0.950 . S
C4299 C4301 1.327 . S
C4299 C4305 1.429 . S
C4300 C4292 1.574 . S
C4300 H4295 0.949 . S
C4300 C4306 1.368 . S
C4301 C4285 1.349 . S
C4301 H4293 0.950 . S
C4301 C4299 1.327 . S
C4302 C4290 1.349 . S
C4302 H4296 0.950 . S
C4302 C4303 1.327 . S
C4303 H4297 0.950 . S
C4303 C4302 1.327 . S
C4303 C4307 1.429 . S
C4304 C4287 1.574 . S
C4304 H4298 0.949 . S
C4304 C4308 1.368 . S
C4305 C4286 1.429 . S
C4305 C4299 1.429 . S
C4305 C4306 1.523 . S
C4306 C4287 1.368 . S
C4306 C4300 1.368 . S
C4306 C4305 1.523 . S
C4307 C4291 1.429 . S
C4307 C4303 1.429 . S
C4307 C4308 1.523 . S
C4308 C4292 1.368 . S
C4308 C4304 1.368 . S
C4308 C4307 1.523 . S
H4309 C4284 0.950 . S
H4310 C4286 0.950 . S
H4311 C4287 0.949 . S
H4312 C4289 0.950 . S
H4313 C4291 0.950 . S
C4314 C4315 1.349 . S
C4314 C4316 1.327 . S
C4314 H4339 0.950 . S
C4315 C4314 1.349 . S
C4315 C4331 1.349 . S
C4316 C4314 1.327 . S
C4316 C4335 1.429 . S
C4316 H4340 0.950 . S
C4317 C4334 1.574 . S
C4317 C4336 1.368 . S
C4317 H4341 0.949 . S
H4318 C4322 0.949 . S
C4319 C4320 1.349 . S
C4319 C4321 1.327 . S
C4319 H4342 0.950 . S
C4320 C4319 1.349 . S
C4320 C4332 1.349 . S
C4321 C4319 1.327 . S
C4321 C4337 1.429 . S
C4321 H4343 0.950 . S
C4322 H4318 0.949 . S
C4322 C4330 1.574 . S
C4322 C4338 1.368 . S
H4323 C4331 0.950 . S
H4324 C4329 0.950 . S
H4325 C4330 0.949 . S
H4326 C4332 0.950 . S
H4327 C4333 0.950 . S
H4328 C4334 0.949 . S
C4329 H4324 0.950 . S
C4329 C4331 1.327 . S
C4329 C4335 1.429 . S
C4330 C4322 1.574 . S
C4330 H4325 0.949 . S
C4330 C4336 1.368 . S
C4331 C4315 1.349 . S
C4331 H4323 0.950 . S
C4331 C4329 1.327 . S
C4332 C4320 1.349 . S
C4332 H4326 0.950 . S
C4332 C4333 1.327 . S
C4333 H4327 0.950 . S
C4333 C4332 1.327 . S
C4333 C4337 1.429 . S
C4334 C4317 1.574 . S
C4334 H4328 0.949 . S
C4334 C4338 1.368 . S
C4335 C4316 1.429 . S
C4335 C4329 1.429 . S
C4335 C4336 1.523 . S
C4336 C4317 1.368 . S
C4336 C4330 1.368 . S
C4336 C4335 1.523 . S
C4337 C4321 1.429 . S
C4337 C4333 1.429 . S
C4337 C4338 1.523 . S
C4338 C4322 1.368 . S
C4338 C4334 1.368 . S
C4338 C4337 1.523 . S
H4339 C4314 0.950 . S
H4340 C4316 0.950 . S
H4341 C4317 0.949 . S
H4342 C4319 0.950 . S
H4343 C4321 0.950 . S
C4344 C4345 1.349 . S
C4344 C4346 1.327 . S
C4344 H4369 0.950 . S
C4345 C4344 1.349 . S
C4345 C4361 1.349 . S
C4346 C4344 1.327 . S
C4346 C4365 1.429 . S
C4346 H4370 0.950 . S
C4347 C4364 1.574 . S
C4347 C4366 1.368 . S
C4347 H4371 0.949 . S
H4348 C4352 0.949 . S
C4349 C4350 1.349 . S
C4349 C4351 1.327 . S
C4349 H4372 0.950 . S
C4350 C4349 1.349 . S
C4350 C4362 1.349 . S
C4351 C4349 1.327 . S
C4351 C4367 1.429 . S
C4351 H4373 0.950 . S
C4352 H4348 0.949 . S
C4352 C4360 1.574 . S
C4352 C4368 1.368 . S
H4353 C4361 0.950 . S
H4354 C4359 0.950 . S
H4355 C4360 0.949 . S
H4356 C4362 0.950 . S
H4357 C4363 0.950 . S
H4358 C4364 0.949 . S
C4359 H4354 0.950 . S
C4359 C4361 1.327 . S
C4359 C4365 1.429 . S
C4360 C4352 1.574 . S
C4360 H4355 0.949 . S
C4360 C4366 1.368 . S
C4361 C4345 1.349 . S
C4361 H4353 0.950 . S
C4361 C4359 1.327 . S
C4362 C4350 1.349 . S
C4362 H4356 0.950 . S
C4362 C4363 1.327 . S
C4363 H4357 0.950 . S
C4363 C4362 1.327 . S
C4363 C4367 1.429 . S
C4364 C4347 1.574 . S
C4364 H4358 0.949 . S
C4364 C4368 1.368 . S
C4365 C4346 1.429 . S
C4365 C4359 1.429 . S
C4365 C4366 1.523 . S
C4366 C4347 1.368 . S
C4366 C4360 1.368 . S
C4366 C4365 1.523 . S
C4367 C4351 1.429 . S
C4367 C4363 1.429 . S
C4367 C4368 1.523 . S
C4368 C4352 1.368 . S
C4368 C4364 1.368 . S
C4368 C4367 1.523 . S
H4369 C4344 0.950 . S
H4370 C4346 0.950 . S
H4371 C4347 0.949 . S
H4372 C4349 0.950 . S
H4373 C4351 0.950 . S
C4374 C4375 1.349 . S
C4374 C4376 1.327 . S
C4374 H4399 0.950 . S
C4375 C4374 1.349 . S
C4375 C4391 1.349 . S
C4376 C4374 1.327 . S
C4376 C4395 1.429 . S
C4376 H4400 0.950 . S
C4377 C4394 1.574 . S
C4377 C4396 1.368 . S
C4377 H4401 0.949 . S
H4378 C4382 0.949 . S
C4379 C4380 1.346 . S
C4379 C4381 1.322 . S
C4379 H4402 0.958 1_655 S
C4380 C4379 1.346 . S
C4380 C4392 1.349 . S
C4381 C4379 1.322 . S
C4381 C4397 1.429 . S
C4381 H4403 0.950 1_655 S
C4382 H4378 0.949 . S
C4382 C4390 1.574 . S
C4382 C4398 1.368 . S
H4383 C4391 0.950 . S
H4384 C4389 0.950 . S
H4385 C4390 0.949 . S
H4386 C4392 0.950 . S
H4387 C4393 0.950 . S
H4388 C4394 0.991 . S
C4389 H4384 0.950 . S
C4389 C4391 1.327 . S
C4389 C4395 1.429 . S
C4390 C4382 1.574 . S
C4390 H4385 0.949 . S
C4390 C4396 1.368 . S
C4391 C4375 1.349 . S
C4391 H4383 0.950 . S
C4391 C4389 1.327 . S
C4392 C4380 1.349 . S
C4392 H4386 0.950 . S
C4392 C4393 1.327 . S
C4393 H4387 0.950 . S
C4393 C4392 1.327 . S
C4393 C4397 1.429 . S
C4394 C4377 1.574 . S
C4394 H4388 0.991 . S
C4394 C4398 1.368 . S
C4395 C4376 1.429 . S
C4395 C4389 1.429 . S
C4395 C4396 1.523 . S
C4396 C4377 1.368 . S
C4396 C4390 1.368 . S
C4396 C4395 1.523 . S
C4397 C4381 1.429 . S
C4397 C4393 1.429 . S
C4397 C4398 1.523 . S
C4398 C4382 1.368 . S
C4398 C4394 1.368 . S
C4398 C4397 1.523 . S
H4399 C4374 0.950 . S
H4400 C4376 0.950 . S
H4401 C4377 0.949 . S
H4402 C4379 0.958 1_455 S
H4403 C4381 0.950 1_455 S
C4404 C4405 1.349 . S
C4404 C4406 1.327 . S
C4404 H4429 0.950 . S
C4405 C4404 1.349 . S
C4405 C4421 1.349 . S
C4406 C4404 1.327 . S
C4406 C4425 1.429 . S
C4406 H4430 0.950 . S
C4407 C4424 1.574 . S
C4407 C4426 1.368 . S
C4407 H4431 0.949 . S
H4408 C4412 0.949 . S
C4409 C4410 1.349 . S
C4409 C4411 1.327 . S
C4409 H4432 0.950 . S
C4410 C4409 1.349 . S
C4410 C4422 1.349 . S
C4411 C4409 1.327 . S
C4411 C4427 1.429 . S
C4411 H4433 0.950 . S
C4412 H4408 0.949 . S
C4412 C4420 1.574 . S
C4412 C4428 1.368 . S
H4413 C4421 0.950 . S
H4414 C4419 0.950 . S
H4415 C4420 0.949 . S
H4416 C4422 0.950 . S
H4417 C4423 0.950 . S
H4418 C4424 0.949 . S
C4419 H4414 0.950 . S
C4419 C4421 1.327 . S
C4419 C4425 1.429 . S
C4420 C4412 1.574 . S
C4420 H4415 0.949 . S
C4420 C4426 1.368 . S
C4421 C4405 1.349 . S
C4421 H4413 0.950 . S
C4421 C4419 1.327 . S
C4422 C4410 1.349 . S
C4422 H4416 0.950 . S
C4422 C4423 1.327 . S
C4423 H4417 0.950 . S
C4423 C4422 1.327 . S
C4423 C4427 1.429 . S
C4424 C4407 1.574 . S
C4424 H4418 0.949 . S
C4424 C4428 1.368 . S
C4425 C4406 1.429 . S
C4425 C4419 1.429 . S
C4425 C4426 1.523 . S
C4426 C4407 1.368 . S
C4426 C4420 1.368 . S
C4426 C4425 1.523 . S
C4427 C4411 1.429 . S
C4427 C4423 1.429 . S
C4427 C4428 1.523 . S
C4428 C4412 1.368 . S
C4428 C4424 1.368 . S
C4428 C4427 1.523 . S
H4429 C4404 0.950 . S
H4430 C4406 0.950 . S
H4431 C4407 0.949 . S
H4432 C4409 0.950 . S
H4433 C4411 0.950 . S
C4434 C4435 1.349 . S
C4434 C4436 1.340 1_545 S
C4434 H4459 0.950 1_545 S
C4435 C4434 1.349 . S
C4435 C4451 1.349 . S
C4436 C4434 1.340 1_565 S
C4436 C4455 1.387 1_565 S
C4436 H4460 0.980 . S
C4437 C4454 1.574 . S
C4437 C4456 1.368 . S
C4437 H4461 0.949 . S
H4438 C4442 0.949 . S
C4439 C4440 1.418 . S
C4439 C4441 1.327 . S
C4439 H4462 0.950 . S
C4440 C4439 1.418 . S
C4440 C4452 1.252 1_545 S
C4441 C4439 1.327 . S
C4441 C4457 1.429 . S
C4441 H4463 0.950 . S
C4442 H4438 0.949 . S
C4442 C4450 1.574 . S
C4442 C4458 1.368 1_565 S
H4443 C4451 0.950 . S
H4444 C4449 0.950 . S
H4445 C4450 0.949 . S
H4446 C4452 0.950 . S
H4447 C4453 0.950 . S
H4448 C4454 0.949 . S
C4449 H4444 0.950 . S
C4449 C4451 1.327 . S
C4449 C4455 1.429 . S
C4450 C4442 1.574 . S
C4450 H4445 0.949 . S
C4450 C4456 1.368 1_565 S
C4451 C4435 1.349 . S
C4451 H4443 0.950 . S
C4451 C4449 1.327 . S
C4452 C4440 1.252 1_565 S
C4452 H4446 0.950 . S
C4452 C4453 1.327 . S
C4453 H4447 0.950 . S
C4453 C4452 1.327 . S
C4453 C4457 1.429 1_565 S
C4454 C4437 1.574 . S
C4454 H4448 0.949 . S
C4454 C4458 1.368 . S
C4455 C4436 1.387 1_545 S
C4455 C4449 1.429 . S
C4455 C4456 1.523 . S
C4456 C4437 1.368 . S
C4456 C4450 1.368 1_545 S
C4456 C4455 1.523 . S
C4457 C4441 1.429 . S
C4457 C4453 1.429 1_545 S
C4457 C4458 1.523 . S
C4458 C4442 1.368 1_545 S
C4458 C4454 1.368 . S
C4458 C4457 1.523 . S
H4459 C4434 0.950 1_565 S
H4460 C4436 0.980 . S
H4461 C4437 0.949 . S
H4462 C4439 0.950 . S
H4463 C4441 0.950 . S
C2305 C7 1.256 . S
C2310 C1307 1.045 1_655 S
C2335 C23 1.717 . S
C2340 C1447 1.136 . S
C2370 C1535 1.119 . S
C2365 C37 1.324 . S
C2395 C35 1.415 . S
C2400 C1675 1.043 1_565 S
C2425 C9 1.357 . S
C2430 C1789 1.037 . S
C2455 C21 1.711 . S
C2460 C1877 1.323 . S
C2485 C49 1.246 . S
C2490 C1763 1.069 . S
C2520 C1903 1.359 . S
C2515 C65 1.623 . S
C2550 C1649 1.147 . S
C2545 C79 1.347 . S
C2575 C77 1.363 . S
C2580 C1561 1.026 . S
C2610 C1333 1.066 . S
C2605 C51 1.372 . S
C2635 C63 1.619 . S
C2640 C1421 1.486 . S
C2665 C91 1.775 . S
C2670 C1991 1.367 . S
C2695 C107 1.803 . S
C2700 C2131 1.203 . S
C2730 C2219 1.325 . S
C2725 C121 1.771 . S
C2755 C119 1.799 . S
C2760 C307 1.205 . S
C2785 C93 1.860 . S
C2790 C421 1.232 . S
C2815 C105 1.779 . S
C2820 C509 1.378 . S
C2845 C133 1.493 . S
C2850 C395 1.372 . S
C2875 C149 1.698 . S
C2880 C535 1.449 . S
C2910 C281 1.537 . S
C2905 C163 1.710 . S
C2940 C2245 1.663 . S
C2935 C161 1.893 . S
C2970 C2017 1.452 . S
C2965 C135 1.711 . S
C3000 C2105 1.601 . S
C2995 C147 1.713 . S
C3025 C175 1.592 . S
C3030 C623 1.207 . S
C3055 C191 1.785 . S
C3060 C763 1.185 . S
C3085 C205 1.806 . S
C3090 C851 1.360 . S
C3115 C203 1.977 . S
C3120 C991 1.362 . S
C3150 C1105 1.198 . S
C3145 C177 1.827 . S
C3180 C1193 1.416 . S
C3175 C189 1.805 . S
C3210 C1079 1.564 . S
C3205 C217 1.697 . S
C3240 C1219 1.460 . S
C3235 C233 1.718 . S
C3265 C247 1.659 . S
C3270 C965 1.489 . S
C3300 C877 1.483 . S
C3295 C245 1.697 . S
C3325 C219 1.761 . S
C3330 C649 1.495 . S
C3360 C737 1.572 . S
C3355 C231 1.692 . S
C3390 C263 1.041 . S
C3385 C8 1.848 . S
C3415 C17 1.590 . S
C3420 C377 0.895 . S
C3450 C481 1.282 . S
C3445 C31 1.728 . S
C3480 C595 1.231 . S
C3475 C36 1.674 . S
C3510 C719 1.014 . S
C3505 C3 1.766 . S
C3540 C823 1.177 . S
C3535 C22 1.606 1_556 S
C3565 C50 1.951 . S
C3570 C833 1.451 . S
C3595 C59 1.671 . S
C3600 C605 1.252 . S
C3625 C73 1.796 . S
C3630 C709 1.573 . S
C3655 C78 1.797 . S
C3660 C367 1.572 . S
C3690 C491 1.414 . S
C3685 C45 1.848 . S
C3715 C64 1.717 . S
C3720 C253 1.487 . S
C3750 C947 1.000 . S
C3745 C92 1.752 . S
C3775 C101 1.827 . S
C3780 C1061 1.076 . S
C3805 C115 1.801 1_655 S
C3810 C1165 1.373 . S
C3840 C1279 1.004 . S
C3835 C120 1.226 . S
C3865 C87 1.690 . S
C3870 C1403 0.972 . S
C3895 C106 1.286 . S
C3900 C1507 1.043 . S
C3925 C134 1.428 . S
C3930 C1517 0.903 1_565 S
C3955 C143 1.321 . S
C3960 C1289 0.880 1_455 S
C3990 C1393 1.515 . S
C3985 C157 1.753 . S
C4015 C162 1.692 . S
C4020 C1051 1.479 . S
C4045 C129 1.914 . S
C4050 C1175 1.460 . S
C4080 C937 1.673 . S
C4075 C148 1.924 . S
C4110 C1631 0.907 . S
C4105 C176 1.434 . S
C4135 C185 1.305 . S
C4140 C1745 0.862 . S
C4165 C199 1.660 . S
C4170 C1849 1.238 . S
C4200 C1963 1.176 . S
C4195 C204 1.575 . S
C4230 C2087 1.106 . S
C4225 C171 1.892 . S
C4255 C190 1.833 . S
C4260 C2191 1.364 . S
C4285 C218 1.853 . S
C4290 C2201 1.371 . S
C4315 C227 1.903 . S
C4320 C1973 1.441 . S
C4350 C2077 1.631 . S
C4345 C241 1.810 1_455 S
C4380 C1735 0.937 1_655 S
C4375 C246 1.218 . S
C4410 C1859 1.337 . S
C4405 C213 1.786 . S
C4435 C232 1.313 . S
C4440 C1621 1.091 1_545 S
